# Generated by pormake.
# Topology lcs-e, (6)-cn, num edge types: 1
# Building blocks:
#     Node 0, Type 0, BuildingBlock: KUMBUR_clean_sbu_0, # of connection points: 6
#     Node 1, Type 0, BuildingBlock: KUMBUR_clean_sbu_0, # of connection points: 6
#     Node 2, Type 0, BuildingBlock: KUMBUR_clean_sbu_0, # of connection points: 6
#     Node 3, Type 0, BuildingBlock: KUMBUR_clean_sbu_0, # of connection points: 6
#     Node 4, Type 0, BuildingBlock: KUMBUR_clean_sbu_0, # of connection points: 6
#     Node 5, Type 0, BuildingBlock: KUMBUR_clean_sbu_0, # of connection points: 6
#     Node 6, Type 0, BuildingBlock: KUMBUR_clean_sbu_0, # of connection points: 6
#     Node 7, Type 0, BuildingBlock: KUMBUR_clean_sbu_0, # of connection points: 6
#     Node 8, Type 0, BuildingBlock: KUMBUR_clean_sbu_0, # of connection points: 6
#     Node 9, Type 0, BuildingBlock: KUMBUR_clean_sbu_0, # of connection points: 6
#     Node 10, Type 0, BuildingBlock: KUMBUR_clean_sbu_0, # of connection points: 6
#     Node 11, Type 0, BuildingBlock: KUMBUR_clean_sbu_0, # of connection points: 6
#     Node 12, Type 0, BuildingBlock: KUMBUR_clean_sbu_0, # of connection points: 6
#     Node 13, Type 0, BuildingBlock: KUMBUR_clean_sbu_0, # of connection points: 6
#     Node 14, Type 0, BuildingBlock: KUMBUR_clean_sbu_0, # of connection points: 6
#     Node 15, Type 0, BuildingBlock: KUMBUR_clean_sbu_0, # of connection points: 6
#     Node 16, Type 0, BuildingBlock: KUMBUR_clean_sbu_0, # of connection points: 6
#     Node 17, Type 0, BuildingBlock: KUMBUR_clean_sbu_0, # of connection points: 6
#     Node 18, Type 0, BuildingBlock: KUMBUR_clean_sbu_0, # of connection points: 6
#     Node 19, Type 0, BuildingBlock: KUMBUR_clean_sbu_0, # of connection points: 6
#     Node 20, Type 0, BuildingBlock: KUMBUR_clean_sbu_0, # of connection points: 6
#     Node 21, Type 0, BuildingBlock: KUMBUR_clean_sbu_0, # of connection points: 6
#     Node 22, Type 0, BuildingBlock: KUMBUR_clean_sbu_0, # of connection points: 6
#     Node 23, Type 0, BuildingBlock: KUMBUR_clean_sbu_0, # of connection points: 6
#     Node 24, Type 0, BuildingBlock: KUMBUR_clean_sbu_0, # of connection points: 6
#     Node 25, Type 0, BuildingBlock: KUMBUR_clean_sbu_0, # of connection points: 6
#     Node 26, Type 0, BuildingBlock: KUMBUR_clean_sbu_0, # of connection points: 6
#     Node 27, Type 0, BuildingBlock: KUMBUR_clean_sbu_0, # of connection points: 6
#     Node 28, Type 0, BuildingBlock: KUMBUR_clean_sbu_0, # of connection points: 6
#     Node 29, Type 0, BuildingBlock: KUMBUR_clean_sbu_0, # of connection points: 6
#     Node 30, Type 0, BuildingBlock: KUMBUR_clean_sbu_0, # of connection points: 6
#     Node 31, Type 0, BuildingBlock: KUMBUR_clean_sbu_0, # of connection points: 6
#     Node 32, Type 0, BuildingBlock: KUMBUR_clean_sbu_0, # of connection points: 6
#     Node 33, Type 0, BuildingBlock: KUMBUR_clean_sbu_0, # of connection points: 6
#     Node 34, Type 0, BuildingBlock: KUMBUR_clean_sbu_0, # of connection points: 6
#     Node 35, Type 0, BuildingBlock: KUMBUR_clean_sbu_0, # of connection points: 6
#     Node 36, Type 0, BuildingBlock: KUMBUR_clean_sbu_0, # of connection points: 6
#     Node 37, Type 0, BuildingBlock: KUMBUR_clean_sbu_0, # of connection points: 6
#     Node 38, Type 0, BuildingBlock: KUMBUR_clean_sbu_0, # of connection points: 6
#     Node 39, Type 0, BuildingBlock: KUMBUR_clean_sbu_0, # of connection points: 6
#     Node 40, Type 0, BuildingBlock: KUMBUR_clean_sbu_0, # of connection points: 6
#     Node 41, Type 0, BuildingBlock: KUMBUR_clean_sbu_0, # of connection points: 6
#     Node 42, Type 0, BuildingBlock: KUMBUR_clean_sbu_0, # of connection points: 6
#     Node 43, Type 0, BuildingBlock: KUMBUR_clean_sbu_0, # of connection points: 6
#     Node 44, Type 0, BuildingBlock: KUMBUR_clean_sbu_0, # of connection points: 6
#     Node 45, Type 0, BuildingBlock: KUMBUR_clean_sbu_0, # of connection points: 6
#     Node 46, Type 0, BuildingBlock: KUMBUR_clean_sbu_0, # of connection points: 6
#     Node 47, Type 0, BuildingBlock: KUMBUR_clean_sbu_0, # of connection points: 6
#     Edge 48, Type (0, 0), BuildingBlock: XIVTED_clean_linker_0, # of connection points: 2
#     Edge 49, Type (0, 0), BuildingBlock: XIVTED_clean_linker_0, # of connection points: 2
#     Edge 50, Type (0, 0), BuildingBlock: XIVTED_clean_linker_0, # of connection points: 2
#     Edge 51, Type (0, 0), BuildingBlock: XIVTED_clean_linker_0, # of connection points: 2
#     Edge 52, Type (0, 0), BuildingBlock: XIVTED_clean_linker_0, # of connection points: 2
#     Edge 53, Type (0, 0), BuildingBlock: XIVTED_clean_linker_0, # of connection points: 2
#     Edge 54, Type (0, 0), BuildingBlock: XIVTED_clean_linker_0, # of connection points: 2
#     Edge 55, Type (0, 0), BuildingBlock: XIVTED_clean_linker_0, # of connection points: 2
#     Edge 56, Type (0, 0), BuildingBlock: XIVTED_clean_linker_0, # of connection points: 2
#     Edge 57, Type (0, 0), BuildingBlock: XIVTED_clean_linker_0, # of connection points: 2
#     Edge 58, Type (0, 0), BuildingBlock: XIVTED_clean_linker_0, # of connection points: 2
#     Edge 59, Type (0, 0), BuildingBlock: XIVTED_clean_linker_0, # of connection points: 2
#     Edge 60, Type (0, 0), BuildingBlock: XIVTED_clean_linker_0, # of connection points: 2
#     Edge 61, Type (0, 0), BuildingBlock: XIVTED_clean_linker_0, # of connection points: 2
#     Edge 62, Type (0, 0), BuildingBlock: XIVTED_clean_linker_0, # of connection points: 2
#     Edge 63, Type (0, 0), BuildingBlock: XIVTED_clean_linker_0, # of connection points: 2
#     Edge 64, Type (0, 0), BuildingBlock: XIVTED_clean_linker_0, # of connection points: 2
#     Edge 65, Type (0, 0), BuildingBlock: XIVTED_clean_linker_0, # of connection points: 2
#     Edge 66, Type (0, 0), BuildingBlock: XIVTED_clean_linker_0, # of connection points: 2
#     Edge 67, Type (0, 0), BuildingBlock: XIVTED_clean_linker_0, # of connection points: 2
#     Edge 68, Type (0, 0), BuildingBlock: XIVTED_clean_linker_0, # of connection points: 2
#     Edge 69, Type (0, 0), BuildingBlock: XIVTED_clean_linker_0, # of connection points: 2
#     Edge 70, Type (0, 0), BuildingBlock: XIVTED_clean_linker_0, # of connection points: 2
#     Edge 71, Type (0, 0), BuildingBlock: XIVTED_clean_linker_0, # of connection points: 2
#     Edge 72, Type (0, 0), BuildingBlock: XIVTED_clean_linker_0, # of connection points: 2
#     Edge 73, Type (0, 0), BuildingBlock: XIVTED_clean_linker_0, # of connection points: 2
#     Edge 74, Type (0, 0), BuildingBlock: XIVTED_clean_linker_0, # of connection points: 2
#     Edge 75, Type (0, 0), BuildingBlock: XIVTED_clean_linker_0, # of connection points: 2
#     Edge 76, Type (0, 0), BuildingBlock: XIVTED_clean_linker_0, # of connection points: 2
#     Edge 77, Type (0, 0), BuildingBlock: XIVTED_clean_linker_0, # of connection points: 2
#     Edge 78, Type (0, 0), BuildingBlock: XIVTED_clean_linker_0, # of connection points: 2
#     Edge 79, Type (0, 0), BuildingBlock: XIVTED_clean_linker_0, # of connection points: 2
#     Edge 80, Type (0, 0), BuildingBlock: XIVTED_clean_linker_0, # of connection points: 2
#     Edge 81, Type (0, 0), BuildingBlock: XIVTED_clean_linker_0, # of connection points: 2
#     Edge 82, Type (0, 0), BuildingBlock: XIVTED_clean_linker_0, # of connection points: 2
#     Edge 83, Type (0, 0), BuildingBlock: XIVTED_clean_linker_0, # of connection points: 2
#     Edge 84, Type (0, 0), BuildingBlock: XIVTED_clean_linker_0, # of connection points: 2
#     Edge 85, Type (0, 0), BuildingBlock: XIVTED_clean_linker_0, # of connection points: 2
#     Edge 86, Type (0, 0), BuildingBlock: XIVTED_clean_linker_0, # of connection points: 2
#     Edge 87, Type (0, 0), BuildingBlock: XIVTED_clean_linker_0, # of connection points: 2
#     Edge 88, Type (0, 0), BuildingBlock: XIVTED_clean_linker_0, # of connection points: 2
#     Edge 89, Type (0, 0), BuildingBlock: XIVTED_clean_linker_0, # of connection points: 2
#     Edge 90, Type (0, 0), BuildingBlock: XIVTED_clean_linker_0, # of connection points: 2
#     Edge 91, Type (0, 0), BuildingBlock: XIVTED_clean_linker_0, # of connection points: 2
#     Edge 92, Type (0, 0), BuildingBlock: XIVTED_clean_linker_0, # of connection points: 2
#     Edge 93, Type (0, 0), BuildingBlock: XIVTED_clean_linker_0, # of connection points: 2
#     Edge 94, Type (0, 0), BuildingBlock: XIVTED_clean_linker_0, # of connection points: 2
#     Edge 95, Type (0, 0), BuildingBlock: XIVTED_clean_linker_0, # of connection points: 2
#     Edge 96, Type (0, 0), BuildingBlock: XIVTED_clean_linker_0, # of connection points: 2
#     Edge 97, Type (0, 0), BuildingBlock: XIVTED_clean_linker_0, # of connection points: 2
#     Edge 98, Type (0, 0), BuildingBlock: XIVTED_clean_linker_0, # of connection points: 2
#     Edge 99, Type (0, 0), BuildingBlock: XIVTED_clean_linker_0, # of connection points: 2
#     Edge 100, Type (0, 0), BuildingBlock: XIVTED_clean_linker_0, # of connection points: 2
#     Edge 101, Type (0, 0), BuildingBlock: XIVTED_clean_linker_0, # of connection points: 2
#     Edge 102, Type (0, 0), BuildingBlock: XIVTED_clean_linker_0, # of connection points: 2
#     Edge 103, Type (0, 0), BuildingBlock: XIVTED_clean_linker_0, # of connection points: 2
#     Edge 104, Type (0, 0), BuildingBlock: XIVTED_clean_linker_0, # of connection points: 2
#     Edge 105, Type (0, 0), BuildingBlock: XIVTED_clean_linker_0, # of connection points: 2
#     Edge 106, Type (0, 0), BuildingBlock: XIVTED_clean_linker_0, # of connection points: 2
#     Edge 107, Type (0, 0), BuildingBlock: XIVTED_clean_linker_0, # of connection points: 2
#     Edge 108, Type (0, 0), BuildingBlock: XIVTED_clean_linker_0, # of connection points: 2
#     Edge 109, Type (0, 0), BuildingBlock: XIVTED_clean_linker_0, # of connection points: 2
#     Edge 110, Type (0, 0), BuildingBlock: XIVTED_clean_linker_0, # of connection points: 2
#     Edge 111, Type (0, 0), BuildingBlock: XIVTED_clean_linker_0, # of connection points: 2
#     Edge 112, Type (0, 0), BuildingBlock: XIVTED_clean_linker_0, # of connection points: 2
#     Edge 113, Type (0, 0), BuildingBlock: XIVTED_clean_linker_0, # of connection points: 2
#     Edge 114, Type (0, 0), BuildingBlock: XIVTED_clean_linker_0, # of connection points: 2
#     Edge 115, Type (0, 0), BuildingBlock: XIVTED_clean_linker_0, # of connection points: 2
#     Edge 116, Type (0, 0), BuildingBlock: XIVTED_clean_linker_0, # of connection points: 2
#     Edge 117, Type (0, 0), BuildingBlock: XIVTED_clean_linker_0, # of connection points: 2
#     Edge 118, Type (0, 0), BuildingBlock: XIVTED_clean_linker_0, # of connection points: 2
#     Edge 119, Type (0, 0), BuildingBlock: XIVTED_clean_linker_0, # of connection points: 2
#     Edge 120, Type (0, 0), BuildingBlock: XIVTED_clean_linker_0, # of connection points: 2
#     Edge 121, Type (0, 0), BuildingBlock: XIVTED_clean_linker_0, # of connection points: 2
#     Edge 122, Type (0, 0), BuildingBlock: XIVTED_clean_linker_0, # of connection points: 2
#     Edge 123, Type (0, 0), BuildingBlock: XIVTED_clean_linker_0, # of connection points: 2
#     Edge 124, Type (0, 0), BuildingBlock: XIVTED_clean_linker_0, # of connection points: 2
#     Edge 125, Type (0, 0), BuildingBlock: XIVTED_clean_linker_0, # of connection points: 2
#     Edge 126, Type (0, 0), BuildingBlock: XIVTED_clean_linker_0, # of connection points: 2
#     Edge 127, Type (0, 0), BuildingBlock: XIVTED_clean_linker_0, # of connection points: 2
#     Edge 128, Type (0, 0), BuildingBlock: XIVTED_clean_linker_0, # of connection points: 2
#     Edge 129, Type (0, 0), BuildingBlock: XIVTED_clean_linker_0, # of connection points: 2
#     Edge 130, Type (0, 0), BuildingBlock: XIVTED_clean_linker_0, # of connection points: 2
#     Edge 131, Type (0, 0), BuildingBlock: XIVTED_clean_linker_0, # of connection points: 2
#     Edge 132, Type (0, 0), BuildingBlock: XIVTED_clean_linker_0, # of connection points: 2
#     Edge 133, Type (0, 0), BuildingBlock: XIVTED_clean_linker_0, # of connection points: 2
#     Edge 134, Type (0, 0), BuildingBlock: XIVTED_clean_linker_0, # of connection points: 2
#     Edge 135, Type (0, 0), BuildingBlock: XIVTED_clean_linker_0, # of connection points: 2
#     Edge 136, Type (0, 0), BuildingBlock: XIVTED_clean_linker_0, # of connection points: 2
#     Edge 137, Type (0, 0), BuildingBlock: XIVTED_clean_linker_0, # of connection points: 2
#     Edge 138, Type (0, 0), BuildingBlock: XIVTED_clean_linker_0, # of connection points: 2
#     Edge 139, Type (0, 0), BuildingBlock: XIVTED_clean_linker_0, # of connection points: 2
#     Edge 140, Type (0, 0), BuildingBlock: XIVTED_clean_linker_0, # of connection points: 2
#     Edge 141, Type (0, 0), BuildingBlock: XIVTED_clean_linker_0, # of connection points: 2
#     Edge 142, Type (0, 0), BuildingBlock: XIVTED_clean_linker_0, # of connection points: 2
#     Edge 143, Type (0, 0), BuildingBlock: XIVTED_clean_linker_0, # of connection points: 2
#     Edge 144, Type (0, 0), BuildingBlock: XIVTED_clean_linker_0, # of connection points: 2
#     Edge 145, Type (0, 0), BuildingBlock: XIVTED_clean_linker_0, # of connection points: 2
#     Edge 146, Type (0, 0), BuildingBlock: XIVTED_clean_linker_0, # of connection points: 2
#     Edge 147, Type (0, 0), BuildingBlock: XIVTED_clean_linker_0, # of connection points: 2
#     Edge 148, Type (0, 0), BuildingBlock: XIVTED_clean_linker_0, # of connection points: 2
#     Edge 149, Type (0, 0), BuildingBlock: XIVTED_clean_linker_0, # of connection points: 2
#     Edge 150, Type (0, 0), BuildingBlock: XIVTED_clean_linker_0, # of connection points: 2
#     Edge 151, Type (0, 0), BuildingBlock: XIVTED_clean_linker_0, # of connection points: 2
#     Edge 152, Type (0, 0), BuildingBlock: XIVTED_clean_linker_0, # of connection points: 2
#     Edge 153, Type (0, 0), BuildingBlock: XIVTED_clean_linker_0, # of connection points: 2
#     Edge 154, Type (0, 0), BuildingBlock: XIVTED_clean_linker_0, # of connection points: 2
#     Edge 155, Type (0, 0), BuildingBlock: XIVTED_clean_linker_0, # of connection points: 2
#     Edge 156, Type (0, 0), BuildingBlock: XIVTED_clean_linker_0, # of connection points: 2
#     Edge 157, Type (0, 0), BuildingBlock: XIVTED_clean_linker_0, # of connection points: 2
#     Edge 158, Type (0, 0), BuildingBlock: XIVTED_clean_linker_0, # of connection points: 2
#     Edge 159, Type (0, 0), BuildingBlock: XIVTED_clean_linker_0, # of connection points: 2
#     Edge 160, Type (0, 0), BuildingBlock: XIVTED_clean_linker_0, # of connection points: 2
#     Edge 161, Type (0, 0), BuildingBlock: XIVTED_clean_linker_0, # of connection points: 2
#     Edge 162, Type (0, 0), BuildingBlock: XIVTED_clean_linker_0, # of connection points: 2
#     Edge 163, Type (0, 0), BuildingBlock: XIVTED_clean_linker_0, # of connection points: 2
#     Edge 164, Type (0, 0), BuildingBlock: XIVTED_clean_linker_0, # of connection points: 2
#     Edge 165, Type (0, 0), BuildingBlock: XIVTED_clean_linker_0, # of connection points: 2
#     Edge 166, Type (0, 0), BuildingBlock: XIVTED_clean_linker_0, # of connection points: 2
#     Edge 167, Type (0, 0), BuildingBlock: XIVTED_clean_linker_0, # of connection points: 2
#     Edge 168, Type (0, 0), BuildingBlock: XIVTED_clean_linker_0, # of connection points: 2
#     Edge 169, Type (0, 0), BuildingBlock: XIVTED_clean_linker_0, # of connection points: 2
#     Edge 170, Type (0, 0), BuildingBlock: XIVTED_clean_linker_0, # of connection points: 2
#     Edge 171, Type (0, 0), BuildingBlock: XIVTED_clean_linker_0, # of connection points: 2
#     Edge 172, Type (0, 0), BuildingBlock: XIVTED_clean_linker_0, # of connection points: 2
#     Edge 173, Type (0, 0), BuildingBlock: XIVTED_clean_linker_0, # of connection points: 2
#     Edge 174, Type (0, 0), BuildingBlock: XIVTED_clean_linker_0, # of connection points: 2
#     Edge 175, Type (0, 0), BuildingBlock: XIVTED_clean_linker_0, # of connection points: 2
#     Edge 176, Type (0, 0), BuildingBlock: XIVTED_clean_linker_0, # of connection points: 2
#     Edge 177, Type (0, 0), BuildingBlock: XIVTED_clean_linker_0, # of connection points: 2
#     Edge 178, Type (0, 0), BuildingBlock: XIVTED_clean_linker_0, # of connection points: 2
#     Edge 179, Type (0, 0), BuildingBlock: XIVTED_clean_linker_0, # of connection points: 2
#     Edge 180, Type (0, 0), BuildingBlock: XIVTED_clean_linker_0, # of connection points: 2
#     Edge 181, Type (0, 0), BuildingBlock: XIVTED_clean_linker_0, # of connection points: 2
#     Edge 182, Type (0, 0), BuildingBlock: XIVTED_clean_linker_0, # of connection points: 2
#     Edge 183, Type (0, 0), BuildingBlock: XIVTED_clean_linker_0, # of connection points: 2
#     Edge 184, Type (0, 0), BuildingBlock: XIVTED_clean_linker_0, # of connection points: 2
#     Edge 185, Type (0, 0), BuildingBlock: XIVTED_clean_linker_0, # of connection points: 2
#     Edge 186, Type (0, 0), BuildingBlock: XIVTED_clean_linker_0, # of connection points: 2
#     Edge 187, Type (0, 0), BuildingBlock: XIVTED_clean_linker_0, # of connection points: 2
#     Edge 188, Type (0, 0), BuildingBlock: XIVTED_clean_linker_0, # of connection points: 2
#     Edge 189, Type (0, 0), BuildingBlock: XIVTED_clean_linker_0, # of connection points: 2
#     Edge 190, Type (0, 0), BuildingBlock: XIVTED_clean_linker_0, # of connection points: 2
#     Edge 191, Type (0, 0), BuildingBlock: XIVTED_clean_linker_0, # of connection points: 2
# Relax obj value: 0.211
# Max RMSD: 0.192
# Mean RMSD: 0.189
data_MOF--net-lcs-e--node1-KUMBUR_clean_sbu_0--edge1-XIVTED_clean_linker_0
_symmetry_space_group_name_H-M    P1
_symmetry_Int_Tables_number       1
_symmetry_cell_setting            triclinic
loop_
_symmetry_equiv_pos_as_xyz
'x, y, z'
_cell_length_a     66.024199
_cell_length_b     65.981374
_cell_length_c     66.127351
_cell_angle_alpha  89.874468
_cell_angle_beta   90.182027
_cell_angle_gamma 90.242188
loop_
_atom_site_label
_atom_site_type_symbol
_atom_site_fract_x
_atom_site_fract_y
_atom_site_fract_z
_atom_type_partial_charge
Tb0 Tb 1.0171 0.40493 0.31033 0.0
C1 C 0.06654 0.36574 0.24833 0.0
C2 C 0.09895 0.35445 0.26182 0.0
C3 C 0.08374 0.3371 0.2331 0.0
C4 C 0.08232 0.3678 0.2624 0.0
C5 C 0.06718 0.35039 0.2336 0.0
C6 C 0.09952 0.3391 0.24717 0.0
C7 C 0.03491 0.36239 0.22088 0.0
N8 N 0.05008 0.37824 0.24973 0.0
C9 C 0.0348 0.37738 0.23581 0.0
C10 C 0.05105 0.34876 0.21987 0.0
Tb11 Tb 0.05345 0.40298 0.27332 0.0
N12 N 0.08145 0.38288 0.27646 0.0
C13 C 0.0972 0.38582 0.28971 0.0
C14 C 0.11464 0.35697 0.27588 0.0
C15 C 0.1138 0.37278 0.28979 0.0
H16 H 1.02271 0.38834 0.23623 0.0
H17 H 0.12604 0.37507 0.30049 0.0
H18 H 0.11217 0.3287 0.24656 0.0
H19 H 1.02264 0.36145 0.21002 0.0
H20 H 0.09727 0.39832 0.30018 0.0
H21 H 0.97881 0.38556 0.23985 0.0
H22 H 0.12761 0.34696 0.27595 0.0
H23 H 1.0151 0.44575 0.33913 0.0
H24 H 1.00291 0.38048 0.26714 0.0
H25 H 0.99627 0.4779 0.33984 0.0
H26 H 0.08446 0.32516 0.2219 0.0
H27 H 0.95751 0.41622 0.23902 0.0
H28 H 0.94802 0.44937 0.25463 0.0
H29 H 0.05102 0.33715 0.2083 0.0
H30 H 0.95303 0.47465 0.28147 0.0
N31 N 0.99551 0.40751 0.283 0.0
C32 C 0.99375 0.39371 0.26772 0.0
C33 C 0.96803 0.41395 0.25141 0.0
C34 C 0.97007 0.42832 0.26677 0.0
C35 C 0.98001 0.39664 0.25185 0.0
C36 C 0.98407 0.42465 0.28254 0.0
H37 H 0.97114 0.48554 0.3131 0.0
N38 N 1.0013 0.43549 0.31182 0.0
C39 C 0.99363 0.46718 0.32775 0.0
C40 C 0.98705 0.43905 0.29746 0.0
C41 C 1.00442 0.44899 0.32716 0.0
C42 C 0.9794 0.47139 0.31268 0.0
C43 C 0.9759 0.45724 0.29731 0.0
O44 O 1.01341 0.40632 0.34166 0.0
O45 O 0.04352 0.39047 0.30078 0.0
O46 O 0.03972 0.36939 0.27639 0.0
O47 O 1.01448 0.37067 0.30055 0.0
O48 O 0.03787 0.38948 0.3311 0.0
O49 O 0.98935 0.3946 0.32264 0.0
O50 O 0.05719 0.41576 0.24461 0.0
O51 O 0.03343 0.42525 0.28899 0.0
O52 O 0.04125 0.42621 0.32114 0.0
O53 O 0.0679 0.41881 0.2988 0.0
O54 O 0.03398 0.42838 0.2599 0.0
O55 O 0.08182 0.41614 0.26665 0.0
C56 C 0.05064 0.38421 0.31756 0.0
C57 C 0.98103 0.40583 0.35619 0.0
C58 C 0.96731 0.40177 0.39026 0.0
C59 C 0.98077 0.39593 0.37494 0.0
C60 C 0.95498 0.41882 0.38691 0.0
C61 C 0.96826 0.42239 0.35284 0.0
C62 C 0.95557 0.42908 0.36834 0.0
C63 C 0.02576 0.35905 0.2878 0.0
C64 C 0.99541 0.39838 0.34109 0.0
C65 C 0.96173 0.46077 0.28185 0.0
C66 C 0.95884 0.44635 0.2666 0.0
C67 C 0.02835 0.43883 0.27561 0.0
C68 C 0.09066 0.41176 0.23202 0.0
C69 C 0.11117 0.41759 0.23251 0.0
C70 C 0.12456 0.41178 0.21694 0.0
C71 C 0.11714 0.39921 0.20136 0.0
C72 C 0.08367 0.39963 0.21596 0.0
C73 C 0.09692 0.3931 0.20102 0.0
C74 C 0.06057 0.42792 0.31521 0.0
C75 C 0.07656 0.41913 0.24776 0.0
H76 H 0.99091 0.38326 0.37741 0.0
H77 H 0.94427 0.42371 0.39824 0.0
H78 H 0.96801 0.43007 0.33839 0.0
H79 H 0.94577 0.44195 0.36579 0.0
H80 H 0.11654 0.42696 0.24486 0.0
H81 H 0.12668 0.39472 0.18888 0.0
H82 H 0.06792 0.39528 0.21473 0.0
H83 H 0.09135 0.38373 0.18877 0.0
Tb84 Tb 0.89022 0.77428 0.55799 0.0
C85 C 0.92717 0.84632 0.52279 0.0
C86 C 0.91541 0.87639 0.5397 0.0
C87 C 0.95015 0.87473 0.52788 0.0
C88 C 0.91213 0.8564 0.53289 0.0
C89 C 0.94584 0.85597 0.51881 0.0
C90 C 0.9349 0.88496 0.53842 0.0
C91 C 0.95176 0.83109 0.49285 0.0
N92 N 0.92199 0.82874 0.51364 0.0
C93 C 0.93292 0.82235 0.49719 0.0
C94 C 0.95864 0.84751 0.5043 0.0
Tb95 Tb 0.8923 0.81365 0.52449 0.0
N96 N 0.89338 0.84788 0.5328 0.0
C97 C 0.87684 0.86016 0.53551 0.0
C98 C 0.8987 0.88775 0.54586 0.0
C99 C 0.87925 0.87985 0.54303 0.0
H100 H 0.9278 0.80943 0.48849 0.0
H101 H 0.86611 0.88895 0.54646 0.0
H102 H 0.93787 0.90009 0.54405 0.0
H103 H 0.96094 0.82514 0.48072 0.0
H104 H 0.8617 0.85431 0.53309 0.0
H105 H 0.90373 0.74172 0.48432 0.0
H106 H 0.90055 0.90313 0.55129 0.0
H107 H 0.85136 0.77031 0.5899 0.0
H108 H 0.90992 0.76542 0.51226 0.0
H109 H 0.821 0.74885 0.59325 0.0
H110 H 0.96462 0.88216 0.5255 0.0
H111 H 0.87498 0.71761 0.48599 0.0
H112 H 0.84478 0.70426 0.50498 0.0
H113 H 0.9731 0.85445 0.50074 0.0
H114 H 0.82241 0.7061 0.53462 0.0
N115 N 0.88519 0.75486 0.52995 0.0
C116 C 0.89749 0.75496 0.51341 0.0
C117 C 0.87766 0.728 0.49838 0.0
C118 C 0.86489 0.72821 0.51522 0.0
C119 C 0.89392 0.74157 0.4974 0.0
C120 C 0.869 0.74213 0.53086 0.0
H121 H 0.81317 0.72295 0.56736 0.0
N122 N 0.86007 0.75776 0.56154 0.0
C123 C 0.8307 0.74726 0.58019 0.0
C124 C 0.85616 0.74347 0.54732 0.0
C125 C 0.84779 0.75965 0.57803 0.0
C126 C 0.82641 0.73256 0.56562 0.0
C127 C 0.83922 0.73046 0.54895 0.0
O128 O 0.89074 0.76555 0.58839 0.0
O129 O 0.90622 0.80083 0.54978 0.0
O130 O 0.92552 0.79866 0.52651 0.0
O131 O 0.92415 0.77137 0.54803 0.0
O132 O 0.90298 0.79556 0.5801 0.0
O133 O 0.90478 0.74678 0.56568 0.0
O134 O 0.88811 0.79827 0.49586 0.0
O135 O 0.87103 0.78773 0.53283 0.0
O136 O 0.86952 0.79677 0.57173 0.0
O137 O 0.8769 0.8251 0.55155 0.0
O138 O 0.85837 0.81456 0.52552 0.0
O139 O 0.88529 0.83118 0.50001 0.0
C140 C 0.91055 0.80788 0.56713 0.0
C141 C 0.89735 0.73196 0.59805 0.0
C142 C 0.90388 0.71518 0.63042 0.0
C143 C 0.90843 0.73037 0.6162 0.0
C144 C 0.88822 0.70132 0.62596 0.0
C145 C 0.88185 0.71804 0.59385 0.0
C146 C 0.87738 0.70273 0.60779 0.0
C147 C 0.93581 0.78318 0.53589 0.0
C148 C 0.90142 0.74944 0.58495 0.0
C149 C 0.83538 0.71618 0.53368 0.0
C150 C 0.84811 0.71513 0.5168 0.0
C151 C 0.85268 0.79642 0.53077 0.0
C152 C 0.8784 0.82053 0.46643 0.0
C153 C 0.87125 0.84013 0.46158 0.0
C154 C 0.86761 0.84609 0.44146 0.0
C155 C 0.87064 0.83167 0.4261 0.0
C156 C 0.88115 0.80646 0.4509 0.0
C157 C 0.87719 0.81203 0.43084 0.0
C158 C 0.86791 0.81638 0.56727 0.0
C159 C 0.88421 0.816 0.48759 0.0
H160 H 0.92016 0.74144 0.61954 0.0
H161 H 0.88443 0.68927 0.63645 0.0
H162 H 0.87312 0.71914 0.58003 0.0
H163 H 0.86535 0.69201 0.60458 0.0
H164 H 0.86851 0.85088 0.47361 0.0
H165 H 0.8683 0.83558 0.41036 0.0
H166 H 0.88671 0.79139 0.4542 0.0
H167 H 0.87953 0.80116 0.41884 0.0
Tb168 Tb 0.49402 0.65226 0.76839 0.0
C169 C 0.54397 0.61165 0.82963 0.0
C170 C 0.52915 0.60838 0.86311 0.0
C171 C 0.55376 0.5837 0.85158 0.0
C172 C 0.53059 0.61871 0.84444 0.0
C173 C 0.55582 0.59426 0.83326 0.0
C174 C 0.54045 0.59069 0.8664 0.0
C175 C 0.57129 0.59896 0.80045 0.0
N176 N 0.54537 0.62179 0.81165 0.0
C177 C 0.55933 0.6161 0.79738 0.0
C178 C 0.56947 0.58795 0.8184 0.0
Tb179 Tb 0.52543 0.65002 0.80996 0.0
N180 N 0.51996 0.63616 0.84111 0.0
C181 C 0.50971 0.64509 0.85666 0.0
C182 C 0.51694 0.61649 0.87829 0.0
C183 C 0.50751 0.6351 0.87518 0.0
H184 H 0.56098 0.62473 0.78358 0.0
H185 H 0.49885 0.64198 0.8872 0.0
H186 H 0.53936 0.58253 0.8806 0.0
H187 H 0.58201 0.59433 0.78903 0.0
H188 H 0.50336 0.66004 0.85519 0.0
H189 H 0.56348 0.62415 0.73392 0.0
H190 H 0.51541 0.60895 0.89278 0.0
H191 H 0.47341 0.6992 0.76748 0.0
H192 H 0.53606 0.62332 0.75794 0.0
H193 H 0.47843 0.73072 0.74846 0.0
H194 H 0.56261 0.57021 0.85453 0.0
H195 H 0.56775 0.6534 0.71104 0.0
H196 H 0.55666 0.6878 0.70019 0.0
H197 H 0.5788 0.57467 0.8207 0.0
H198 H 0.53401 0.71686 0.70449 0.0
N199 N 0.52275 0.65137 0.74862 0.0
C200 C 0.53666 0.63603 0.74799 0.0
C201 C 0.55517 0.65306 0.72152 0.0
C202 C 0.54175 0.66928 0.72285 0.0
C203 C 0.55278 0.63653 0.73437 0.0
C204 C 0.52555 0.6681 0.73676 0.0
H205 H 0.50527 0.73308 0.72264 0.0
N206 N 0.49778 0.68347 0.75317 0.0
C207 C 0.48819 0.71789 0.74571 0.0
C208 C 0.51279 0.68462 0.73919 0.0
C209 C 0.48564 0.69997 0.75671 0.0
C210 C 0.50331 0.71914 0.73111 0.0
C211 C 0.51588 0.70249 0.72775 0.0
O212 O 0.47284 0.66363 0.74755 0.0
O213 O 0.49914 0.63858 0.79673 0.0
O214 O 0.52004 0.61604 0.79736 0.0
O215 O 0.50255 0.61796 0.76704 0.0
O216 O 0.46971 0.64086 0.78868 0.0
O217 O 0.47617 0.63193 0.75069 0.0
O218 O 0.55607 0.65737 0.80345 0.0
O219 O 0.51973 0.66989 0.78255 0.0
O220 O 0.47981 0.67262 0.79104 0.0
O221 O 0.49872 0.66662 0.82087 0.0
O222 O 0.52392 0.6837 0.80973 0.0
O223 O 0.54206 0.66326 0.83294 0.0
C224 C 0.48145 0.63351 0.80234 0.0
C225 C 0.44267 0.64536 0.74961 0.0
C226 C 0.40845 0.63166 0.7456 0.0
C227 C 0.42897 0.63242 0.73956 0.0
C228 C 0.40192 0.64372 0.76177 0.0
C229 C 0.4354 0.65783 0.76527 0.0
C230 C 0.41532 0.65679 0.77145 0.0
C231 C 0.51175 0.60597 0.78108 0.0
C232 C 0.46446 0.64635 0.7442 0.0
C233 C 0.53154 0.70333 0.71349 0.0
C234 C 0.54441 0.68677 0.71103 0.0
C235 C 0.52104 0.68839 0.791 0.0
C236 C 0.57665 0.65646 0.8343 0.0
C237 C 0.57889 0.66341 0.8544 0.0
C238 C 0.59439 0.65607 0.86718 0.0
C239 C 0.60763 0.64138 0.85929 0.0
C240 C 0.59092 0.6429 0.82658 0.0
C241 C 0.60607 0.63516 0.83914 0.0
C242 C 0.48349 0.67543 0.81073 0.0
C243 C 0.55885 0.66333 0.82239 0.0
H244 H 0.43418 0.62305 0.7272 0.0
H245 H 0.38623 0.6435 0.76654 0.0
H246 H 0.44528 0.6685 0.77285 0.0
H247 H 0.41007 0.66634 0.78363 0.0
H248 H 0.56852 0.6748 0.85989 0.0
H249 H 0.61935 0.63466 0.86856 0.0
H250 H 0.59035 0.63816 0.81097 0.0
H251 H 0.61668 0.62422 0.83322 0.0
Tb252 Tb 0.6518 0.27665 0.05351 0.0
C253 C 0.60898 0.20922 1.01462 0.0
C254 C 0.61363 0.17802 0.03332 0.0
C255 C 0.58181 0.18427 1.01591 0.0
C256 C 0.62084 0.19721 0.02706 0.0
C257 C 0.58988 0.20227 1.0079 0.0
C258 C 0.59366 0.17219 0.02872 0.0
C259 C 0.58993 0.22921 0.98309 0.0
N260 N 0.61731 0.22642 1.007 0.0
C261 C 0.60891 0.23545 0.9902 0.0
C262 C 0.5801 0.21289 0.99236 0.0
Tb263 Tb 0.64747 0.23624 1.0215 0.0
N264 N 0.6404 0.20294 0.03033 0.0
C265 C 0.65422 0.1885 0.03606 0.0
C266 C 0.62721 0.16459 0.04246 0.0
C267 C 0.64775 0.16957 0.04313 0.0
H268 H 0.61619 0.24841 0.98328 0.0
H269 H 0.65866 0.15871 0.04875 0.0
H270 H 0.58774 0.1577 0.03378 0.0
H271 H 0.58286 0.23704 0.97054 0.0
H272 H 0.67029 0.19168 0.03571 0.0
H273 H 0.63851 0.30648 0.97846 0.0
H274 H 0.62227 0.14975 0.04753 0.0
H275 H 0.69139 0.27943 0.08477 0.0
H276 H 0.63039 0.28621 1.00863 0.0
H277 H 0.72493 0.29592 0.08494 0.0
H278 H 0.56694 0.17895 1.01134 0.0
H279 H 0.67089 0.32538 0.97665 0.0
H280 H 0.70417 0.33463 0.99286 0.0
H281 H 0.56544 0.20802 0.98675 0.0
H282 H 0.72776 0.33144 1.02157 0.0
N283 N 0.65758 0.2939 1.02419 0.0
C284 C 0.64437 0.29461 1.00831 0.0
C285 C 0.66733 0.31663 0.99007 0.0
C286 C 0.68095 0.31562 1.00629 0.0
C287 C 0.64902 0.30599 0.99105 0.0
C288 C 0.67558 0.30398 1.02336 0.0
H289 H 0.73577 0.31681 0.05578 0.0
N290 N 0.68365 0.28993 0.05524 0.0
C291 C 0.71505 0.29759 0.07196 0.0
C292 C 0.68903 0.30192 0.03941 0.0
C293 C 0.6961 0.28805 0.07168 0.0
C294 C 0.72107 0.30945 0.05552 0.0
C295 C 0.70797 0.31185 0.03901 0.0
O296 O 0.65214 0.28721 0.08321 0.0
O297 O 0.63508 0.25067 0.04639 0.0
O298 O 0.61437 0.2512 0.02502 0.0
O299 O 0.61751 0.2804 0.04371 0.0
O300 O 0.63795 0.25678 0.07658 0.0
O301 O 0.64086 0.30623 0.05904 0.0
O302 O 0.65374 0.24968 0.99234 0.0
O303 O 0.66909 0.26192 0.02857 0.0
O304 O 0.67156 0.25291 0.06786 0.0
O305 O 0.66277 0.22438 0.04838 0.0
O306 O 0.6816 0.23454 1.02313 0.0
O307 O 0.6549 0.2168 0.99878 0.0
C308 C 0.63039 0.24423 0.06379 0.0
C309 C 0.6529 0.32199 0.08953 0.0
C310 C 0.65424 0.33964 0.12197 0.0
C311 C 0.64546 0.32518 0.10903 0.0
C312 C 0.67032 0.35159 0.11458 0.0
C313 C 0.66889 0.33397 0.08232 0.0
C314 C 0.67746 0.34882 0.09483 0.0
C315 C 0.60489 0.26775 0.03327 0.0
C316 C 0.64451 0.30468 0.07839 0.0
C317 C 0.71325 0.32373 1.02217 0.0
C318 C 0.69979 0.32558 1.00584 0.0
C319 C 0.68718 0.253 0.02733 0.0
C320 C 0.66448 0.22531 0.96523 0.0
C321 C 0.67246 0.20567 0.96244 0.0
C322 C 0.67702 0.19823 0.94306 0.0
C323 C 0.67409 0.21128 0.92639 0.0
C324 C 0.66197 0.23802 0.94847 0.0
C325 C 0.66687 0.23102 0.92916 0.0
C326 C 0.67231 0.23302 0.06384 0.0
C327 C 0.65732 0.23126 0.98552 0.0
H328 H 0.63275 0.31606 0.11414 0.0
H329 H 0.67757 0.36283 0.12408 0.0
H330 H 0.67485 0.33173 0.06728 0.0
H331 H 0.68991 0.358 0.08932 0.0
H332 H 0.67502 0.19607 0.97549 0.0
H333 H 0.67699 0.20621 0.91113 0.0
H334 H 0.65579 0.25309 0.95023 0.0
H335 H 0.66465 0.24079 0.91618 0.0
Tb336 Tb 1.01743 0.64149 0.24112 0.0
C337 C 0.07784 0.68777 0.28387 0.0
C338 C 0.10783 0.68901 0.26275 0.0
C339 C 0.09922 0.71794 0.28358 0.0
C340 C 0.09056 0.67843 0.2699 0.0
C341 C 0.08267 0.7072 0.29149 0.0
C342 C 0.11162 0.70895 0.2691 0.0
C343 C 0.05573 0.70335 0.3158 0.0
N344 N 0.0611 0.67761 0.29059 0.0
C345 C 0.05096 0.68451 0.30743 0.0
C346 C 0.0712 0.71503 0.30739 0.0
Tb347 Tb 0.056 0.64641 0.27574 0.0
N348 N 0.08695 0.65874 0.26445 0.0
C349 C 0.10143 0.64854 0.25356 0.0
C350 C 0.12132 0.67905 0.25002 0.0
C351 C 0.11834 0.65864 0.24581 0.0
H352 H 0.03843 0.67603 0.31369 0.0
H353 H 0.12927 0.65052 0.23679 0.0
H354 H 0.12466 0.71727 0.26353 0.0
H355 H 0.04718 0.70904 0.3285 0.0
H356 H 0.10074 0.63253 0.25065 0.0
H357 H 0.98842 0.67168 0.31224 0.0
H358 H 0.13462 0.68671 0.24416 0.0
H359 H 1.00954 0.59421 0.22412 0.0
H360 H 1.01449 0.66444 0.28749 0.0
H361 H 0.9832 0.5682 0.22615 0.0
H362 H 0.10288 0.73302 0.28897 0.0
H363 H 0.95581 0.65323 0.31078 0.0
H364 H 0.93595 0.62429 0.29604 0.0
H365 H 0.0746 0.72979 0.31372 0.0
H366 H 0.93517 0.59489 0.27321 0.0
N367 N 0.99602 0.64587 0.2687 0.0
C368 C 0.99992 0.65805 0.285 0.0
C369 C 0.96696 0.65098 0.29902 0.0
C370 C 0.96424 0.63616 0.28422 0.0
C371 C 0.98526 0.66147 0.29982 0.0
C372 C 0.97934 0.63383 0.2693 0.0
H373 H 0.95322 0.57335 0.2478 0.0
N374 N 0.99516 0.61459 0.24462 0.0
C375 C 0.98172 0.58201 0.23482 0.0
C376 C 0.97902 0.61732 0.25684 0.0
C377 C 0.99677 0.59695 0.23383 0.0
C378 C 0.96481 0.585 0.24696 0.0
C379 C 0.96341 0.6027 0.2584 0.0
O380 O 1.01566 0.62735 0.21311 0.0
O381 O 0.04837 0.64983 0.24489 0.0
O382 O 0.04085 0.67877 0.27049 0.0
O383 O 1.01396 0.67607 0.24822 0.0
O384 O 0.03286 0.66666 0.22521 0.0
O385 O 0.9954 0.65165 0.21982 0.0
O386 O 0.04792 0.64144 0.30631 0.0
O387 O 0.03005 0.62577 0.26758 0.0
O388 O 0.04079 0.61773 0.23325 0.0
O389 O 0.06836 0.62445 0.25478 0.0
O390 O 0.05133 0.61343 0.2843 0.0
O391 O 0.07973 0.63947 0.29493 0.0
C392 C 0.05063 0.66444 0.2328 0.0
C393 C 1.00852 0.64903 0.18608 0.0
C394 C 1.00014 0.66497 0.15357 0.0
C395 C 0.99415 0.65771 0.17285 0.0
C396 C 1.02056 0.66301 0.1478 0.0
C397 C 0.02889 0.64791 0.1799 0.0
C398 C 0.03477 0.65478 0.16095 0.0
C399 C 0.02602 0.68829 0.25973 0.0
C400 C 1.00249 0.63986 0.20571 0.0
C401 C 0.94741 0.60581 0.27197 0.0
C402 C 0.94781 0.62258 0.28488 0.0
C403 C 0.03493 0.60756 0.27516 0.0
C404 C 0.07529 0.63405 0.3308 0.0
C405 C 0.09606 0.6302 0.3332 0.0
C406 C 0.10412 0.6254 0.35219 0.0
C407 C 0.09131 0.62481 0.36908 0.0
C408 C 0.06265 0.63371 0.34782 0.0
C409 C 0.0707 0.62919 0.3669 0.0
C410 C 0.05954 0.61374 0.24019 0.0
C411 C 0.06734 0.63871 0.31051 0.0
H412 H 0.97851 0.65883 0.17758 0.0
H413 H 0.02566 0.66763 0.13294 0.0
H414 H 0.04034 0.64125 0.18954 0.0
H415 H 0.0504 0.65345 0.15631 0.0
H416 H 0.10597 0.63022 0.32016 0.0
H417 H 0.09723 0.62087 0.38386 0.0
H418 H 0.04663 0.6369 0.34638 0.0
H419 H 0.0609 0.62884 0.37998 0.0
Tb420 Tb 0.64591 0.76721 0.49782 0.0
C421 C 0.61667 0.84726 0.52511 0.0
C422 C 0.63837 0.87423 0.51331 0.0
C423 C 0.60213 0.87973 0.51558 0.0
C424 C 0.63558 0.85407 0.51996 0.0
C425 C 0.59997 0.86055 0.52456 0.0
C426 C 0.6214 0.88656 0.50985 0.0
C427 C 0.58252 0.83772 0.54702 0.0
N428 N 0.61555 0.82897 0.53427 0.0
C429 C 0.59946 0.82506 0.5469 0.0
C430 C 0.58237 0.85506 0.53495 0.0
Tb431 Tb 0.64355 0.80799 0.53082 0.0
N432 N 0.65148 0.84186 0.52442 0.0
C433 C 0.67046 0.85039 0.52602 0.0
C434 C 0.65808 0.88186 0.51198 0.0
C435 C 0.67413 0.87012 0.51907 0.0
H436 H 0.59943 0.81175 0.55651 0.0
H437 H 0.68935 0.87628 0.5193 0.0
H438 H 0.62318 0.90192 0.50428 0.0
H439 H 0.56956 0.83399 0.55633 0.0
H440 H 0.68314 0.84184 0.53162 0.0
H441 H 0.62854 0.73697 0.57202 0.0
H442 H 0.66091 0.89723 0.50691 0.0
H443 H 0.68637 0.76244 0.46837 0.0
H444 H 0.62394 0.75978 0.54309 0.0
H445 H 0.71608 0.74015 0.46671 0.0
H446 H 0.58937 0.88994 0.51448 0.0
H447 H 0.65699 0.71272 0.57253 0.0
H448 H 0.68777 0.69858 0.55539 0.0
H449 H 0.56928 0.86491 0.53512 0.0
H450 H 0.71131 0.69916 0.52661 0.0
N451 N 0.64929 0.74862 0.52682 0.0
C452 C 0.63625 0.74924 0.54278 0.0
C453 C 0.65504 0.72275 0.55968 0.0
C454 C 0.66859 0.72242 0.54348 0.0
C455 C 0.63893 0.73638 0.55941 0.0
C456 C 0.66544 0.73592 0.52723 0.0
H457 H 0.72203 0.71462 0.49351 0.0
N458 N 0.67609 0.75066 0.49663 0.0
C459 C 0.70587 0.73911 0.47944 0.0
C460 C 0.67909 0.73674 0.51144 0.0
C461 C 0.68914 0.75199 0.48065 0.0
C462 C 0.70909 0.72461 0.49452 0.0
C463 C 0.69568 0.72333 0.51084 0.0
O464 O 0.64701 0.75869 0.46723 0.0
O465 O 0.63087 0.79451 0.50517 0.0
O466 O 0.61031 0.79368 0.52667 0.0
O467 O 0.61187 0.76463 0.50755 0.0
O468 O 0.6327 0.78791 0.47514 0.0
O469 O 0.6323 0.73945 0.48904 0.0
O470 O 0.6489 0.79038 0.55736 0.0
O471 O 0.66521 0.78331 0.52126 0.0
O472 O 0.66737 0.78928 0.48505 0.0
O473 O 0.66082 0.81844 0.50464 0.0
O474 O 0.67719 0.8071 0.53531 0.0
O475 O 0.63981 0.82143 0.55891 0.0
C476 C 0.62616 0.80112 0.4877 0.0
C477 C 0.64351 0.72426 0.45802 0.0
C478 C 0.64086 0.70376 0.42702 0.0
C479 C 0.63423 0.7201 0.43913 0.0
C480 C 0.65751 0.69231 0.43393 0.0
C481 C 0.65927 0.71185 0.46481 0.0
C482 C 0.66644 0.69622 0.45268 0.0
C483 C 0.60007 0.77775 0.51799 0.0
C484 C 0.6369 0.74197 0.46998 0.0
C485 C 0.69859 0.70948 0.52672 0.0
C486 C 0.68517 0.70914 0.54309 0.0
C487 C 0.68362 0.79047 0.52702 0.0
C488 C 0.66493 0.81238 0.58192 0.0
C489 C 0.66922 0.83318 0.58536 0.0
C490 C 0.68658 0.83937 0.59609 0.0
C491 C 0.69948 0.82439 0.60399 0.0
C492 C 0.67797 0.79779 0.59014 0.0
C493 C 0.69507 0.8038 0.60118 0.0
C494 C 0.66967 0.80883 0.48936 0.0
C495 C 0.64751 0.80642 0.56884 0.0
H496 H 0.6216 0.72931 0.43416 0.0
H497 H 0.66362 0.68011 0.42491 0.0
H498 H 0.66611 0.71422 0.47943 0.0
H499 H 0.67893 0.68699 0.4579 0.0
H500 H 0.65948 0.84476 0.57903 0.0
H501 H 0.71294 0.8286 0.61242 0.0
H502 H 0.6751 0.78178 0.58779 0.0
H503 H 0.70512 0.79245 0.60738 0.0
Tb504 Tb 0.52746 0.40124 0.74466 0.0
C505 C 0.45835 0.36222 0.78506 0.0
C506 C 0.42692 0.36706 0.7668 0.0
C507 C 0.43206 0.33634 0.78641 0.0
C508 C 0.44656 0.37377 0.7721 0.0
C509 C 0.45068 0.34401 0.79332 0.0
C510 C 0.42023 0.34781 0.77306 0.0
C511 C 0.47811 0.34459 0.81755 0.0
N512 N 0.47614 0.37021 0.79164 0.0
C513 C 0.48526 0.3625 0.80874 0.0
C514 C 0.46116 0.3349 0.80935 0.0
Tb515 Tb 0.48643 0.3994 0.77558 0.0
N516 N 0.45309 0.39279 0.76733 0.0
C517 C 0.43932 0.40678 0.76057 0.0
C518 C 0.41396 0.38055 0.75688 0.0
C519 C 0.41995 0.4007 0.7544 0.0
H520 H 0.4988 0.36951 0.8148 0.0
H521 H 0.40951 0.41165 0.74811 0.0
H522 H 0.40534 0.34228 0.76881 0.0
H523 H 0.48586 0.33812 0.83047 0.0
H524 H 0.44324 0.42264 0.75962 0.0
H525 H 0.55468 0.38511 0.82028 0.0
H526 H 0.39878 0.37598 0.75252 0.0
H527 H 0.53292 0.44141 0.71437 0.0
H528 H 0.5348 0.37854 0.7896 0.0
H529 H 0.55102 0.47406 0.7154 0.0
H530 H 0.42613 0.32215 0.79224 0.0
H531 H 0.57519 0.41642 0.82311 0.0
H532 H 0.58654 0.44939 0.80777 0.0
H533 H 0.45567 0.321 0.8162 0.0
H534 H 0.58525 0.47367 0.77951 0.0
N535 N 0.54418 0.40554 0.7746 0.0
C536 C 0.54383 0.39207 0.79028 0.0
C537 C 0.56657 0.41354 0.80944 0.0
C538 C 0.56662 0.42747 0.79346 0.0
C539 C 0.55503 0.39584 0.80788 0.0
C540 C 0.5551 0.42303 0.77603 0.0
H541 H 0.57179 0.48316 0.74524 0.0
N542 N 0.54221 0.4325 0.744 0.0
C543 C 0.55186 0.46383 0.72819 0.0
C544 C 0.55409 0.43691 0.76023 0.0
C545 C 0.54136 0.44539 0.72782 0.0
C546 C 0.56366 0.46886 0.74501 0.0
C547 C 0.565 0.4553 0.76126 0.0
O548 O 0.53833 0.40158 0.71517 0.0
O549 O 0.50001 0.38627 0.75068 0.0
O550 O 0.49999 0.36568 0.773 0.0
O551 O 0.52905 0.367 0.75391 0.0
O552 O 0.50811 0.38696 0.72114 0.0
O553 O 0.55689 0.38958 0.73937 0.0
O554 O 0.50026 0.40607 0.80459 0.0
O555 O 0.51276 0.42024 0.76894 0.0
O556 O 0.50582 0.42138 0.72903 0.0
O557 O 0.47629 0.4154 0.74806 0.0
O558 O 0.48501 0.43318 0.77285 0.0
O559 O 0.46744 0.40803 0.79793 0.0
C560 C 0.49421 0.38074 0.73319 0.0
C561 C 0.57291 0.4004 0.70842 0.0
C562 C 0.58955 0.39993 0.67542 0.0
C563 C 0.57582 0.39163 0.68941 0.0
C564 C 0.6013 0.41676 0.68142 0.0
C565 C 0.58469 0.4171 0.71422 0.0
C566 C 0.59899 0.4251 0.70077 0.0
C567 C 0.51586 0.35533 0.76455 0.0
C568 C 0.55541 0.39315 0.71998 0.0
C569 C 0.57679 0.4596 0.77844 0.0
C570 C 0.57755 0.44576 0.79452 0.0
C571 C 0.50373 0.43846 0.76957 0.0
C572 C 0.47579 0.41729 0.83149 0.0
C573 C 0.45587 0.42441 0.83386 0.0
C574 C 0.44772 0.42819 0.85297 0.0
C575 C 0.46004 0.42547 0.87009 0.0
C576 C 0.48809 0.41501 0.84863 0.0
C577 C 0.48021 0.41922 0.86786 0.0
C578 C 0.4861 0.42362 0.73238 0.0
C579 C 0.48189 0.41014 0.81127 0.0
H580 H 0.56683 0.37843 0.68543 0.0
H581 H 0.61195 0.42377 0.67113 0.0
H582 H 0.58258 0.42415 0.72881 0.0
H583 H 0.60798 0.43813 0.70517 0.0
H584 H 0.44613 0.42614 0.82075 0.0
H585 H 0.45413 0.42827 0.88508 0.0
H586 H 0.50341 0.40939 0.84724 0.0
H587 H 0.48965 0.41721 0.88112 0.0
Tb588 Tb 0.90095 0.24471 0.02953 0.0
C589 C 0.85928 0.27927 0.95872 0.0
C590 C 0.86192 0.25664 0.93009 0.0
C591 C 0.83177 0.27712 0.93427 0.0
C592 C 0.87 0.26472 0.94818 0.0
C593 C 0.84067 0.28652 0.95114 0.0
C594 C 0.84232 0.26205 0.92385 0.0
C595 C 0.84257 0.31374 0.97545 0.0
N596 N 0.86818 0.28789 0.97513 0.0
C597 C 0.86083 0.30583 0.98265 0.0
C598 C 0.83217 0.30376 0.95996 0.0
Tb599 Tb 0.89765 0.27288 0.98595 0.0
N600 N 0.88926 0.26052 0.9542 0.0
C601 C 0.90219 0.2517 0.94061 0.0
C602 C 0.87431 0.24459 0.91801 0.0
C603 C 0.89476 0.24275 0.92293 0.0
H604 H 0.86845 0.31335 0.99504 0.0
H605 H 0.90493 0.23487 0.91285 0.0
H606 H 0.83573 0.25566 0.91024 0.0
H607 H 0.83643 0.32742 0.98198 0.0
H608 H 0.91829 0.25142 0.94328 0.0
H609 H 0.88791 0.32197 0.05283 0.0
H610 H 0.86866 0.23801 0.90408 0.0
H611 H 0.93982 0.21329 0.03625 0.0
H612 H 0.8803 0.29057 0.03422 0.0
H613 H 0.97226 0.21372 0.0547 0.0
H614 H 0.81722 0.28211 0.92855 0.0
H615 H 0.91906 0.32451 0.07358 0.0
H616 H 0.95121 0.30836 0.08609 0.0
H617 H 0.81799 0.30989 0.95445 0.0
H618 H 0.97422 0.27911 0.08634 0.0
N619 N 0.90661 0.2752 0.04458 0.0
C620 C 0.89377 0.2913 0.04337 0.0
C621 C 0.91575 0.31061 0.0655 0.0
C622 C 0.92903 0.29416 0.06638 0.0
C623 C 0.89813 0.30922 0.05381 0.0
C624 C 0.92404 0.27648 0.05551 0.0
H625 H 0.98241 0.24397 0.07436 0.0
N626 N 0.93222 0.24366 0.04409 0.0
C627 C 0.96264 0.22696 0.05484 0.0
C628 C 0.93722 0.26015 0.05532 0.0
C629 C 0.94435 0.22692 0.04412 0.0
C630 C 0.96826 0.24402 0.06602 0.0
C631 C 0.95544 0.26084 0.06649 0.0
O632 O 0.90007 0.21559 0.04162 0.0
O633 O 0.88485 0.24961 1.00272 0.0
O634 O 0.86439 0.27166 1.00113 0.0
O635 O 0.86681 0.25473 0.03157 0.0
O636 O 0.88761 0.22001 1.01136 0.0
O637 O 0.88964 0.24105 0.05931 0.0
O638 O 0.90493 0.3033 0.99522 0.0
O639 O 0.91865 0.26834 1.01268 0.0
O640 O 0.9212 0.22835 1.00826 0.0
O641 O 0.91324 0.24467 0.97758 0.0
O642 O 0.93152 0.27081 0.98495 0.0
O643 O 0.90636 0.29262 0.96354 0.0
C644 C 0.87993 0.23174 0.99791 0.0
C645 C 0.89921 0.21023 0.07647 0.0
C646 C 0.8965 0.1786 0.09552 0.0
C647 C 0.8902 0.19131 0.0797 0.0
C648 C 0.91256 0.18504 0.10799 0.0
C649 C 0.91507 0.21667 0.08905 0.0
C650 C 0.92173 0.20401 0.10476 0.0
C651 C 0.85458 0.26439 1.01804 0.0
C652 C 0.89231 0.22146 0.05862 0.0
C653 C 0.96028 0.27828 0.07768 0.0
C654 C 0.94715 0.29492 0.07757 0.0
C655 C 0.93682 0.26882 1.00379 0.0
C656 C 0.91629 0.32722 0.96788 0.0
C657 C 0.92287 0.32842 0.94753 0.0
C658 C 0.92839 0.34709 0.93875 0.0
C659 C 0.92758 0.36463 0.95077 0.0
C660 C 0.91583 0.3449 0.97954 0.0
C661 C 0.92149 0.36348 0.971 0.0
C662 C 0.92251 0.23019 0.9882 0.0
C663 C 0.90897 0.30763 0.97613 0.0
H664 H 0.87837 0.18627 0.06943 0.0
H665 H 0.91778 0.17563 0.12037 0.0
H666 H 0.92239 0.23117 0.08662 0.0
H667 H 0.93404 0.2089 0.11446 0.0
H668 H 0.92322 0.3149 0.93827 0.0
H669 H 0.93186 0.37924 0.94457 0.0
H670 H 0.9108 0.34441 0.99511 0.0
H671 H 0.921 0.37711 0.98006 0.0
Tb672 Tb 0.30171 0.02411 0.40184 0.0
C673 C 0.26429 0.094 0.3603 0.0
C674 C 0.27826 0.12604 0.37136 0.0
C675 C 0.26618 0.12234 0.33683 0.0
C676 C 0.27334 0.10556 0.37522 0.0
C677 C 0.25922 0.10276 0.34147 0.0
C678 C 0.27583 0.13395 0.35175 0.0
C679 C 0.23667 0.07449 0.33543 0.0
N680 N 0.25736 0.07538 0.36553 0.0
C681 C 0.24221 0.06643 0.3542 0.0
C682 C 0.24581 0.09237 0.32869 0.0
Tb683 Tb 0.26883 0.06302 0.39616 0.0
N684 N 0.27436 0.09766 0.39424 0.0
C685 C 0.27675 0.11055 0.41037 0.0
C686 C 0.28383 0.13838 0.38762 0.0
C687 C 0.28241 0.13077 0.40728 0.0
H688 H 0.23533 0.0524 0.35928 0.0
H689 H 0.2855 0.14052 0.42007 0.0
H690 H 0.27994 0.14951 0.3484 0.0
H691 H 0.2255 0.06683 0.32615 0.0
H692 H 0.27543 0.10499 0.42571 0.0
H693 H 0.22872 0.99133 0.38362 0.0
H694 H 0.28782 0.15416 0.38529 0.0
H695 H 0.32977 0.02298 0.4438 0.0
H696 H 0.2573 1.01486 0.37884 0.0
H697 H 0.3312 1.00208 0.47465 0.0
H698 H 0.26293 0.12914 0.32224 0.0
H699 H 0.22811 0.96828 0.41318 0.0
H700 H 0.24494 0.95584 0.44505 0.0
H701 H 0.24143 0.09866 0.31418 0.0
H702 H 0.27306 0.95837 0.46947 0.0
N703 N 0.27287 1.00541 0.4054 0.0
C704 C 0.25737 1.00491 0.39172 0.0
C705 C 0.24071 0.97865 0.41119 0.0
C706 C 0.25658 0.97937 0.42525 0.0
C707 C 0.24102 0.99163 0.39446 0.0
C708 C 0.2725 0.99328 0.42203 0.0
H709 H 0.30517 0.97571 0.48076 0.0
N710 N 0.30238 1.00953 0.43302 0.0
C711 C 0.31889 1.00004 0.46398 0.0
C712 C 0.28798 0.99514 0.43609 0.0
C713 C 0.31781 1.01212 0.44661 0.0
C714 C 0.30426 0.98506 0.4673 0.0
C715 C 0.28851 0.98247 0.45331 0.0
O716 O 0.33175 1.01465 0.40509 0.0
O717 O 0.29454 0.04959 0.38435 0.0
O718 O 0.27472 0.04822 0.36329 0.0
O719 O 0.29347 1.01938 0.36723 0.0
O720 O 0.32474 0.04385 0.38803 0.0
O721 O 0.30954 0.99542 0.39026 0.0
O722 O 0.24277 0.04533 0.40429 0.0
O723 O 0.27662 0.03903 0.41955 0.0
O724 O 0.3151 0.04849 0.42115 0.0
O725 O 0.29525 0.07648 0.41149 0.0
O726 O 0.26922 0.06699 0.4299 0.0
O727 O 0.24089 0.07666 0.39517 0.0
C728 C 0.31208 0.05622 0.38002 0.0
C729 C 0.33953 0.97993 0.4036 0.0
C730 C 0.37081 0.96052 0.40189 0.0
C731 C 0.3591 0.97729 0.39619 0.0
C732 C 0.36301 0.94688 0.41628 0.0
C733 C 0.33161 0.966 0.41754 0.0
C734 C 0.3435 0.94969 0.42408 0.0
C735 C 0.28346 0.03178 0.35408 0.0
C736 C 0.32837 0.99753 0.39599 0.0
C737 C 0.273 0.96815 0.45629 0.0
C738 C 0.25698 0.96672 0.44238 0.0
C739 C 0.27433 0.04922 0.43704 0.0
C740 C 0.21644 0.06696 0.41836 0.0
C741 C 0.21668 0.08692 0.42619 0.0
C742 C 0.19958 0.0951 0.43568 0.0
C743 C 0.18266 0.08255 0.43891 0.0
C744 C 0.19951 0.05463 0.42202 0.0
C745 C 0.18286 0.06232 0.43254 0.0
C746 C 0.31089 0.06831 0.42125 0.0
C747 C 0.23112 0.06126 0.40247 0.0
H748 H 0.36514 0.9883 0.38556 0.0
H749 H 0.37165 0.93376 0.42096 0.0
H750 H 0.31641 0.9676 0.42323 0.0
H751 H 0.33742 0.93898 0.43491 0.0
H752 H 0.22949 0.09683 0.4233 0.0
H753 H 0.16926 0.08845 0.44621 0.0
H754 H 0.19875 0.03944 0.41587 0.0
H755 H 0.16969 0.05282 0.435 0.0
Tb756 Tb 0.24121 1.02217 0.6408 0.0
C757 C 0.26809 0.09908 0.67793 0.0
C758 C 0.25465 0.12815 0.66038 0.0
C759 C 0.25929 0.12935 0.6968 0.0
C760 C 0.26159 0.10796 0.66029 0.0
C761 C 0.26856 0.11026 0.6961 0.0
C762 C 0.25222 0.13829 0.67889 0.0
C763 C 0.29218 0.08585 0.70942 0.0
N764 N 0.2775 0.08102 0.67632 0.0
C765 C 0.29116 0.07539 0.69107 0.0
C766 C 0.2801 0.10289 0.71229 0.0
Tb767 Tb 0.27214 0.06352 0.64634 0.0
N768 N 0.26522 0.09791 0.64278 0.0
C769 C 0.26567 0.10869 0.62497 0.0
C770 C 0.25209 0.13809 0.64188 0.0
C771 C 0.25838 0.12857 0.62417 0.0
H772 H 0.30046 0.06208 0.68903 0.0
H773 H 0.25774 0.13656 0.60989 0.0
H774 H 0.24642 0.15362 0.67932 0.0
H775 H 0.30217 0.08066 0.72135 0.0
H776 H 0.27043 0.10168 0.61106 0.0
H777 H 0.31425 0.99242 0.66542 0.0
H778 H 0.24673 0.15358 0.64124 0.0
H779 H 0.22086 1.02165 0.59381 0.0
H780 H 0.28665 1.01674 0.66563 0.0
H781 H 0.22228 0.99906 0.56435 0.0
H782 H 0.25895 0.13794 0.71074 0.0
H783 H 0.31552 0.96582 0.63923 0.0
H784 H 0.30089 0.95093 0.60756 0.0
H785 H 0.28099 0.11108 0.72645 0.0
H786 H 0.27575 0.95262 0.5801 0.0
N787 N 0.27057 1.0034 0.6409 0.0
C788 C 0.28607 1.00487 0.65463 0.0
C789 C 0.30294 0.97632 0.63947 0.0
C790 C 0.28796 0.97577 0.62451 0.0
C791 C 0.30223 0.99125 0.6543 0.0
C792 C 0.27199 0.98992 0.62543 0.0
H793 H 0.24648 0.97056 0.5638 0.0
N794 N 0.24434 1.00635 0.61005 0.0
C795 C 0.23247 0.99669 0.57698 0.0
C796 C 0.25826 0.99127 0.60962 0.0
C797 C 0.23204 1.00978 0.59359 0.0
C798 C 0.24604 0.98052 0.5768 0.0
C799 C 0.25949 0.97793 0.593 0.0
O800 O 0.22041 1.0005 0.63 0.0
O801 O 0.24634 0.04895 0.65769 0.0
O802 O 0.2664 0.04854 0.67874 0.0
O803 O 0.25113 1.01749 0.67476 0.0
O804 O 0.21681 0.04249 0.65039 0.0
O805 O 0.2228 1.0055 0.66143 0.0
O806 O 0.29855 0.04574 0.64136 0.0
O807 O 0.26545 0.03894 0.62361 0.0
O808 O 0.2272 0.04571 0.62057 0.0
O809 O 0.24632 0.07482 0.62877 0.0
O810 O 0.27507 0.06567 0.61253 0.0
O811 O 0.30025 0.07699 0.64995 0.0
C812 C 0.22822 0.05486 0.66025 0.0
C813 C 0.18973 1.00163 0.64733 0.0
C814 C 0.1552 0.99395 0.65869 0.0
C815 C 0.17629 0.9901 0.6593 0.0
C816 C 0.14792 1.00946 0.646 0.0
C817 C 0.18183 1.01691 0.63471 0.0
C818 C 0.16116 1.02083 0.63418 0.0
C819 C 0.2596 0.03115 0.68775 0.0
C820 C 0.21182 0.99758 0.64717 0.0
C821 C 0.27458 0.96302 0.5927 0.0
C822 C 0.28888 0.96204 0.60835 0.0
C823 C 0.26944 0.04798 0.60572 0.0
C824 C 0.32513 0.06667 0.62744 0.0
C825 C 0.3287 0.08718 0.62243 0.0
C826 C 0.34267 0.09269 0.60754 0.0
C827 C 0.35342 0.07743 0.5975 0.0
C828 C 0.33622 0.05162 0.6175 0.0
C829 C 0.3503 0.05702 0.6026 0.0
C830 C 0.23133 0.06556 0.61891 0.0
C831 C 0.31032 0.06154 0.64346 0.0
H832 H 0.18224 0.97827 0.669 0.0
H833 H 0.13186 1.01255 0.64484 0.0
H834 H 0.19162 0.02576 0.62498 0.0
H835 H 0.15533 0.03259 0.62434 0.0
H836 H 0.32032 0.09913 0.62986 0.0
H837 H 0.36431 0.08129 0.58588 0.0
H838 H 0.33401 0.03577 0.62124 0.0
H839 H 0.3588 0.04535 0.59495 0.0
Tb840 Tb 0.25196 0.0292 0.9021 0.0
C841 C 0.27501 0.94673 0.86678 0.0
C842 C 0.2614 0.91802 0.88501 0.0
C843 C 0.26858 0.915 0.84916 0.0
C844 C 0.26801 0.9384 0.88455 0.0
C845 C 0.2766 0.93472 0.8492 0.0
C846 C 0.2609 0.90667 0.86706 0.0
C847 C 0.29789 0.96064 0.83471 0.0
N848 N 0.28278 0.96571 0.86749 0.0
C849 C 0.29593 0.97184 0.85251 0.0
C850 C 0.28752 0.94232 0.83273 0.0
Tb851 Tb 0.27686 0.98407 0.89672 0.0
N852 N 0.26882 0.94992 0.9016 0.0
C853 C 0.26563 0.94071 0.92002 0.0
C854 C 0.25627 0.90938 0.90359 0.0
C855 C 0.25886 0.92063 0.9212 0.0
H856 H 0.30429 0.98591 0.85402 0.0
H857 H 0.25558 0.91387 0.93576 0.0
H858 H 0.25554 0.89113 0.86707 0.0
H859 H 0.30744 0.96615 0.82259 0.0
H860 H 0.26718 0.94889 0.93402 0.0
H861 H 0.32618 0.05145 0.87276 0.0
H862 H 0.25109 0.8938 0.90458 0.0
H863 H 0.23516 0.03107 0.95048 0.0
H864 H 0.29594 0.03049 0.87385 0.0
H865 H 0.24189 0.0521 0.98024 0.0
H866 H 0.26922 0.90572 0.83568 0.0
H867 H 0.33298 0.07636 0.89974 0.0
H868 H 0.32321 0.09112 0.93304 0.0
H869 H 0.28915 0.93356 0.819 0.0
H870 H 0.30042 0.09118 0.96233 0.0
N871 N 0.28339 0.04461 0.90006 0.0
C872 C 0.29753 0.04195 0.88518 0.0
C873 C 0.31914 0.06748 0.90008 0.0
C874 C 0.30564 0.069 0.9162 0.0
C875 C 0.3153 0.05353 0.88477 0.0
C876 C 0.28788 0.05696 0.91599 0.0
H877 H 0.27022 0.07668 0.98006 0.0
N878 N 0.25931 0.04368 0.93289 0.0
C879 C 0.25139 0.05356 0.96699 0.0
C880 C 0.27541 0.05656 0.93284 0.0
C881 C 0.24778 0.04145 0.95004 0.0
C882 C 0.26734 0.06747 0.9668 0.0
C883 C 0.27984 0.06881 0.9498 0.0
O884 O 0.23645 0.05422 0.91421 0.0
O885 O 0.25269 1.0016 0.88593 0.0
O886 O 0.27071 0.99856 0.86386 0.0
O887 O 0.2607 0.03176 0.86773 0.0
O888 O 0.22453 1.01297 0.89187 0.0
O889 O 0.23245 0.04679 0.88344 0.0
O890 O 0.30386 1.00125 0.9014 0.0
O891 O 0.27311 1.00902 0.91926 0.0
O892 O 0.23609 1.00776 0.92291 0.0
O893 O 0.24906 0.97599 0.91324 0.0
O894 O 0.28004 0.98169 0.93056 0.0
O895 O 0.30458 0.96975 0.89382 0.0
C896 C 0.23385 0.99862 0.88264 0.0
C897 C 0.20299 0.05298 0.90278 0.0
C898 C 0.16749 0.05694 0.89387 0.0
C899 C 0.18803 0.06116 0.89006 0.0
C900 C 0.16194 0.04444 0.9101 0.0
C901 C 0.19703 0.04048 0.91906 0.0
C902 C 0.17669 0.03621 0.92262 0.0
C903 C 0.26609 1.0167 0.85471 0.0
C904 C 0.2248 0.05622 0.89876 0.0
C905 C 0.29684 0.08162 0.94949 0.0
C906 C 0.30978 0.08163 0.93279 0.0
C907 C 0.27646 0.99991 0.93716 0.0
C908 C 0.32909 0.97984 0.91703 0.0
C909 C 0.33414 0.95931 0.92047 0.0
C910 C 0.34567 0.95343 0.93731 0.0
C911 C 0.353 0.96849 0.95046 0.0
C912 C 0.33676 0.99465 0.9302 0.0
C913 C 0.34877 0.98896 0.94674 0.0
C914 C 0.23631 0.98752 0.92372 0.0
C915 C 0.31509 0.98505 0.9002 0.0
H916 H 0.19229 0.07067 0.87737 0.0
H917 H 0.14614 0.04105 0.91303 0.0
H918 H 0.20805 0.03373 0.92902 0.0
H919 H 0.17239 0.02648 0.9351 0.0
H920 H 0.32832 0.94761 0.91052 0.0
H921 H 0.36197 0.96444 0.96358 0.0
H922 H 0.33326 1.01052 0.92789 0.0
H923 H 0.35455 1.00044 0.95693 0.0
Tb924 Tb 0.27434 0.98983 0.15209 0.0
C925 C 0.35237 1.01538 0.11875 0.0
C926 C 0.38023 1.00488 0.13984 0.0
C927 C 0.3838 1.00438 0.1033 0.0
C928 C 0.36006 1.01148 0.13759 0.0
C929 C 0.3647 1.01349 0.10147 0.0
C930 C 0.39157 0.99999 0.12257 0.0
C931 C 0.34157 0.03543 0.08381 0.0
N932 N 0.33436 0.02493 0.11799 0.0
C933 C 0.33018 0.03702 0.10153 0.0
C934 C 0.35845 0.0228 0.0835 0.0
Tb935 Tb 0.31459 0.02281 0.14696 0.0
N936 N 0.34876 1.01728 0.15366 0.0
C937 C 0.35824 1.02039 0.17194 0.0
C938 C 0.38887 1.00508 0.15915 0.0
C939 C 0.37809 1.01363 0.17511 0.0
H940 H 0.31741 0.04726 0.10181 0.0
H941 H 0.38506 1.01503 0.18988 0.0
H942 H 0.40691 0.99438 0.12397 0.0
H943 H 0.33743 0.0441 0.07051 0.0
H944 H 0.35023 0.02693 0.1845 0.0
H945 H 0.242 0.06147 0.12673 0.0
H946 H 0.4043 1.00007 0.16159 0.0
H947 H 0.27379 0.96748 0.19808 0.0
H948 H 0.264 0.0324 0.1242 0.0
H949 H 0.25652 0.97249 0.23048 0.0
H950 H 0.39329 1.00222 0.09014 0.0
H951 H 0.22146 0.06673 0.15734 0.0
H952 H 0.21196 0.05554 0.19208 0.0
H953 H 0.3675 1.02185 0.0699 0.0
H954 H 0.21618 0.03171 0.22032 0.0
N955 N 0.25553 1.01922 0.15248 0.0
C956 C 0.25482 0.03341 0.13736 0.0
C957 C 0.23091 0.0534 0.15618 0.0
C958 C 0.23222 0.03948 0.17204 0.0
C959 C 0.24243 0.05045 0.13888 0.0
C960 C 0.24482 1.02235 0.1698 0.0
H961 H 0.23285 1.00101 0.2348 0.0
N962 N 0.26025 0.9932 0.18371 0.0
C963 C 0.2538 0.98287 0.21808 0.0
C964 C 0.24726 1.00897 0.18586 0.0
C965 C 0.26382 0.98031 0.19969 0.0
C966 C 0.2404 0.99894 0.22043 0.0
C967 C 0.23707 1.01229 0.20432 0.0
O968 O 0.25295 0.96912 0.1634 0.0
O969 O 0.30141 0.99594 0.13586 0.0
O970 O 0.29953 1.01746 0.11447 0.0
O971 O 0.27119 0.99736 0.11735 0.0
O972 O 0.29599 0.9662 0.14342 0.0
O973 O 0.25656 0.97207 0.13181 0.0
O974 O 0.29667 0.04929 0.15102 0.0
O975 O 0.28948 1.01515 0.1684 0.0
O976 O 0.29811 0.97687 0.17273 0.0
O977 O 0.32612 0.99821 0.16602 0.0
O978 O 0.31424 0.02751 0.18091 0.0
O979 O 0.32765 0.05096 0.1417 0.0
C980 C 0.30817 0.97803 0.13372 0.0
C981 C 0.25271 0.93884 0.14542 0.0
C982 C 0.24321 0.90462 0.13457 0.0
C983 C 0.23992 0.9258 0.13433 0.0
C984 C 0.25945 0.89684 0.146 0.0
C985 C 0.26872 0.93051 0.15678 0.0
C986 C 0.27209 0.90972 0.15694 0.0
C987 C 0.28389 1.00778 0.10482 0.0
C988 C 0.24909 0.96096 0.14619 0.0
C989 C 0.22414 0.02897 0.20629 0.0
C990 C 0.22173 0.04253 0.1902 0.0
C991 C 0.29674 1.0204 0.18665 0.0
C992 C 0.31804 0.07542 0.16505 0.0
C993 C 0.33864 0.07818 0.17037 0.0
C994 C 0.34444 0.09117 0.18611 0.0
C995 C 0.3293 0.10177 0.19655 0.0
C996 C 0.30323 0.08622 0.17559 0.0
C997 C 0.30888 0.09936 0.19124 0.0
C998 C 0.31739 0.98273 0.17562 0.0
C999 C 0.31247 0.06103 0.14872 0.0
H1000 H 0.22752 0.93211 0.12563 0.0
H1001 H 0.26216 0.88069 0.1469 0.0
H1002 H 0.27849 0.94001 0.16592 0.0
H1003 H 0.2844 0.90353 0.16584 0.0
H1004 H 0.35034 0.06975 0.16265 0.0
H1005 H 0.33324 0.11197 0.20877 0.0
H1006 H 0.28734 0.08443 0.17182 0.0
H1007 H 0.29736 0.10763 0.19936 0.0
Tb1008 Tb 0.39025 0.27129 0.05597 0.0
C1009 C 0.42879 0.34676 0.02838 0.0
C1010 C 0.41727 0.37581 0.04717 0.0
C1011 C 0.45193 0.37471 0.03503 0.0
C1012 C 0.41382 0.35631 0.03913 0.0
C1013 C 0.44753 0.35649 0.02496 0.0
C1014 C 0.43679 0.38435 0.04624 0.0
C1015 C 0.45372 0.33249 0.99819 0.0
N1016 N 0.4236 0.32964 1.0184 0.0
C1017 C 0.43485 0.3236 1.00203 0.0
C1018 C 0.46041 0.3486 1.01019 0.0
Tb1019 Tb 0.39356 0.31455 0.02797 0.0
N1020 N 0.39499 0.348 0.03855 0.0
C1021 C 0.37857 0.36015 0.04215 0.0
C1022 C 0.40067 0.38684 0.05417 0.0
C1023 C 0.38115 0.37927 0.05094 0.0
H1024 H 0.4299 0.31087 0.99296 0.0
H1025 H 0.36809 0.38825 0.05497 0.0
H1026 H 0.43987 0.39911 0.05275 0.0
H1027 H 0.46309 0.32689 0.98603 0.0
H1028 H 0.3634 0.35471 0.03914 0.0
H1029 H 0.41386 0.24712 0.98084 0.0
H1030 H 0.40265 0.40183 0.06056 0.0
H1031 H 0.34345 0.26921 0.07667 0.0
H1032 H 0.41461 0.26923 1.01023 0.0
H1033 H 0.31308 0.248 0.07267 0.0
H1034 H 0.46644 0.38217 0.03305 0.0
H1035 H 0.38718 0.221 0.97747 0.0
H1036 H 0.35509 0.20564 0.99064 0.0
H1037 H 0.47493 0.35564 1.00705 0.0
H1038 H 0.32753 0.20603 1.01553 0.0
N1039 N 0.38999 0.25466 0.02538 0.0
C1040 C 0.40353 0.25735 1.00997 0.0
C1041 C 0.38773 0.2304 0.99088 0.0
C1042 C 0.37281 0.22888 1.00574 0.0
C1043 C 0.40285 0.24506 0.99278 0.0
C1044 C 0.37415 0.2416 1.02286 0.0
H1045 H 0.31157 0.22202 0.04585 0.0
N1046 N 0.35923 0.25587 0.05186 0.0
C1047 C 0.3257 0.24619 0.06245 0.0
C1048 C 0.35833 0.24215 0.03659 0.0
C1049 C 0.34288 0.2585 0.06439 0.0
C1050 C 0.32497 0.23143 0.04738 0.0
C1051 C 0.34121 0.2295 0.034 0.0
O1052 O 0.37969 0.24772 0.07471 0.0
O1053 O 0.40608 0.29892 0.05231 0.0
O1054 O 0.427 0.30057 0.03199 0.0
O1055 O 0.42422 0.26849 0.04551 0.0
O1056 O 0.40067 0.29019 0.08143 0.0
O1057 O 0.41108 0.25361 0.07313 0.0
O1058 O 0.39043 0.30048 0.99855 0.0
O1059 O 0.3721 0.28814 0.03243 0.0
O1060 O 0.37045 0.29313 0.07269 0.0
O1061 O 0.37651 0.32341 0.05499 0.0
O1062 O 0.35967 0.31596 0.02859 0.0
O1063 O 0.3875 0.33319 1.00407 0.0
C1064 C 0.40959 0.3037 0.07058 0.0
C1065 C 0.39662 0.24832 0.10571 0.0
C1066 C 0.40812 0.24063 0.14014 0.0
C1067 C 0.40887 0.23703 0.11903 0.0
C1068 C 0.39521 0.25576 0.14756 0.0
C1069 C 0.38352 0.26303 0.11378 0.0
C1070 C 0.38303 0.26684 0.13444 0.0
C1071 C 0.43672 0.28307 0.03775 0.0
C1072 C 0.39682 0.24493 0.08351 0.0
C1073 C 0.34049 0.21592 1.0177 0.0
C1074 C 0.35621 0.21567 1.00356 0.0
C1075 C 0.35393 0.29724 0.03122 0.0
C1076 C 0.38112 0.32397 0.97003 0.0
C1077 C 0.37207 0.34297 0.96647 0.0
C1078 C 0.37039 0.35115 0.94685 0.0
C1079 C 0.37658 0.33894 0.93052 0.0
C1080 C 0.38687 0.31206 0.95358 0.0
C1081 C 0.38434 0.31947 0.9339 0.0
C1082 C 0.36787 0.31305 0.06996 0.0
C1083 C 0.38679 0.31854 0.99098 0.0
H1084 H 0.41884 0.22553 0.11303 0.0
H1085 H 0.39403 0.25865 0.16363 0.0
H1086 H 0.37344 0.27158 0.10416 0.0
H1087 H 0.3729 0.27824 0.14035 0.0
H1088 H 0.36676 0.35163 0.97926 0.0
H1089 H 0.37594 0.34446 0.91513 0.0
H1090 H 0.39392 0.29745 0.95594 0.0
H1091 H 0.3891 0.31036 0.92119 0.0
Tb1092 Tb 0.02992 0.90442 0.24531 0.0
C1093 C 0.9549 0.8637 0.2719 0.0
C1094 C 0.92515 0.87568 0.25435 0.0
C1095 C 0.92699 0.84053 0.26521 0.0
C1096 C 0.94477 0.87911 0.26214 0.0
C1097 C 0.94549 0.8447 0.27488 0.0
C1098 C 0.91686 0.85602 0.25482 0.0
C1099 C 0.9703 0.8376 0.30077 0.0
N1100 N 0.9724 0.86853 0.28142 0.0
C1101 C 0.97895 0.85666 0.29731 0.0
C1102 C 0.95396 0.83124 0.28891 0.0
Tb1103 Tb 0.98663 0.89937 0.27267 0.0
N1104 N 0.95296 0.89805 0.26295 0.0
C1105 C 0.94085 0.91448 0.2592 0.0
C1106 C 0.9139 0.89233 0.24773 0.0
C1107 C 0.92153 0.91187 0.25077 0.0
H1108 H 0.99189 0.86135 0.30627 0.0
H1109 H 0.91249 0.92492 0.24677 0.0
H1110 H 0.902 0.85299 0.24849 0.0
H1111 H 0.97629 0.82783 0.3125 0.0
H1112 H 0.94641 0.92969 0.26176 0.0
H1113 H 0.05263 0.87835 0.32007 0.0
H1114 H 0.89881 0.89035 0.24153 0.0
H1115 H 0.03294 0.95023 0.22345 0.0
H1116 H 0.03468 0.87588 0.28803 0.0
H1117 H 0.04993 0.98263 0.23045 0.0
H1118 H 0.91976 0.82584 0.26684 0.0
H1119 H 0.072 0.9093 0.32852 0.0
H1120 H 0.08313 0.94429 0.31884 0.0
H1121 H 0.94715 0.81653 0.29172 0.0
H1122 H 0.08234 0.97259 0.29461 0.0
N1123 N 0.04375 0.90499 0.27723 0.0
C1124 C 0.04314 0.88939 0.29086 0.0
C1125 C 0.06417 0.90828 0.31413 0.0
C1126 C 0.06455 0.92439 0.30039 0.0
C1127 C 0.05327 0.8908 0.3094 0.0
C1128 C 0.05403 0.92233 0.28188 0.0
H1129 H 0.06982 0.98709 0.26186 0.0
N1130 N 0.04239 0.93629 0.25109 0.0
C1131 C 0.051 0.97034 0.24125 0.0
C1132 C 0.05343 0.93841 0.26834 0.0
C1133 C 0.04118 0.95191 0.23747 0.0
C1134 C 0.06228 0.97277 0.25895 0.0
C1135 C 0.06357 0.95675 0.27278 0.0
O1136 O 0.04509 0.91381 0.21924 0.0
O1137 O 1.00239 0.88865 0.24776 0.0
O1138 O 1.00136 0.86648 0.26802 0.0
O1139 O 0.03186 0.86924 0.25153 0.0
O1140 O 1.01426 0.88935 0.21951 0.0
O1141 O 0.05983 0.89364 0.24072 0.0
O1142 O 1.0021 0.90463 0.30077 0.0
O1143 O 1.01203 0.9218 0.26849 0.0
O1144 O 1.00811 0.92348 0.22825 0.0
O1145 O 0.97772 0.91698 0.24578 0.0
O1146 O 0.98392 0.93347 0.27316 0.0
O1147 O 0.96976 0.89922 0.29865 0.0
C1148 C 0.99875 0.88321 0.22964 0.0
C1149 C 0.07592 0.89902 0.20823 0.0
C1150 C 0.08368 0.89043 0.17321 0.0
C1151 C 0.06951 0.89228 0.18902 0.0
C1152 C 0.10414 0.89519 0.17695 0.0
C1153 C 0.09644 0.90343 0.21159 0.0
C1154 C 0.11045 0.90154 0.19603 0.0
C1155 C 1.01795 0.85673 0.26036 0.0
C1156 C 0.06166 0.90451 0.22429 0.0
C1157 C 0.07443 0.95864 0.29096 0.0
C1158 C 0.07489 0.94252 0.30475 0.0
C1159 C 1.0025 0.93971 0.27007 0.0
C1160 C 0.97969 0.91696 0.32741 0.0
C1161 C 0.96089 0.92706 0.3271 0.0
C1162 C 0.95143 0.93278 0.34513 0.0
C1163 C 0.96176 0.93019 0.36353 0.0
C1164 C 0.99001 0.91491 0.34585 0.0
C1165 C 0.9812 0.92181 0.36378 0.0
C1166 C 0.98817 0.92551 0.23074 0.0
C1167 C 0.98491 0.90335 0.31055 0.0
H1168 H 0.05364 0.88898 0.18628 0.0
H1169 H 0.1154 0.89358 0.16518 0.0
H1170 H 0.10156 0.90896 0.22617 0.0
H1171 H 0.12624 0.90513 0.19872 0.0
H1172 H 0.95251 0.92849 0.31303 0.0
H1173 H 0.95472 0.93444 0.37767 0.0
H1174 H 1.00422 0.90678 0.34659 0.0
H1175 H 0.98902 0.91969 0.37803 0.0
Tb1176 Tb 0.15028 0.77376 0.55368 0.0
C1177 C 0.10676 0.70746 0.51575 0.0
C1178 C 0.11417 0.67597 0.53297 0.0
C1179 C 0.08039 0.68195 0.51967 0.0
C1180 C 0.12022 0.69544 0.52638 0.0
C1181 C 0.08721 0.70016 0.51098 0.0
C1182 C 0.09386 0.6699 0.53078 0.0
C1183 C 0.0848 0.72624 0.48544 0.0
N1184 N 0.11401 0.72469 0.50723 0.0
C1185 C 0.10426 0.73282 0.49067 0.0
C1186 C 0.07589 0.71034 0.49622 0.0
Tb1187 Tb 0.14526 0.7352 0.51877 0.0
N1188 N 0.13994 0.70149 0.52733 0.0
C1189 C 0.15462 0.68717 0.53075 0.0
C1190 C 0.12901 0.66258 0.53992 0.0
C1191 C 0.1494 0.66794 0.53808 0.0
H1192 H 0.11091 0.74547 0.48261 0.0
H1193 H 0.1611 0.65718 0.54203 0.0
H1194 H 0.08882 0.65522 0.53622 0.0
H1195 H 0.07666 0.7335 0.47319 0.0
H1196 H 0.17045 0.6908 0.52862 0.0
H1197 H 0.13602 0.80859 0.48098 0.0
H1198 H 0.12499 0.64755 0.54522 0.0
H1199 H 0.18997 0.77535 0.58502 0.0
H1200 H 0.12814 0.78667 0.50999 0.0
H1201 H 0.22333 0.79215 0.586 0.0
H1202 H 0.06522 0.67637 0.51665 0.0
H1203 H 0.16858 0.82722 0.47977 0.0
H1204 H 0.20209 0.8353 0.49605 0.0
H1205 H 0.06086 0.70515 0.49203 0.0
H1206 H 0.2259 0.83056 0.52435 0.0
N1207 N 0.15572 0.79292 0.52547 0.0
C1208 C 0.14224 0.79481 0.50991 0.0
C1209 C 0.16514 0.81768 0.49268 0.0
C1210 C 0.17897 0.81558 0.50861 0.0
C1211 C 0.14674 0.80719 0.49331 0.0
C1212 C 0.17377 0.80294 0.52501 0.0
H1213 H 0.23404 0.81438 0.55781 0.0
N1214 N 0.18211 0.78713 0.55599 0.0
C1215 C 0.21343 0.79433 0.5731 0.0
C1216 C 0.18736 0.79998 0.54079 0.0
C1217 C 0.19457 0.78464 0.57236 0.0
C1218 C 0.21939 0.80694 0.5572 0.0
C1219 C 0.20626 0.81001 0.54083 0.0
O1220 O 0.15123 0.7824 0.58399 0.0
O1221 O 0.13352 0.74779 0.54519 0.0
O1222 O 0.11302 0.75169 0.52272 0.0
O1223 O 0.11589 0.77766 0.54567 0.0
O1224 O 0.13721 0.75218 0.57559 0.0
O1225 O 0.13941 0.80286 0.56118 0.0
O1226 O 0.15123 0.74903 0.48983 0.0
O1227 O 0.16653 0.76048 0.52745 0.0
O1228 O 0.17076 0.7499 0.56577 0.0
O1229 O 0.16286 0.72269 0.54405 0.0
O1230 O 0.17949 0.73475 0.51752 0.0
O1231 O 0.14811 0.7163 0.49441 0.0
C1232 C 0.12923 0.74034 0.56236 0.0
C1233 C 0.15199 0.81686 0.59228 0.0
C1234 C 0.15088 0.8349 0.62438 0.0
C1235 C 0.14401 0.81939 0.6116 0.0
C1236 C 0.16687 0.8474 0.61789 0.0
C1237 C 0.16768 0.8296 0.58567 0.0
C1238 C 0.17523 0.84469 0.5986 0.0
C1239 C 0.10351 0.76675 0.53334 0.0
C1240 C 0.14358 0.80014 0.58031 0.0
C1241 C 0.21142 0.82278 0.52462 0.0
C1242 C 0.19784 0.82551 0.50852 0.0
C1243 C 0.18478 0.75262 0.52403 0.0
C1244 C 0.16319 0.72508 0.46337 0.0
C1245 C 0.17218 0.7056 0.46194 0.0
C1246 C 0.17735 0.69703 0.44297 0.0
C1247 C 0.17418 0.70913 0.42559 0.0
C1248 C 0.1609 0.73666 0.4458 0.0
C1249 C 0.16652 0.72878 0.4271 0.0
C1250 C 0.17243 0.73062 0.55995 0.0
C1251 C 0.15138 0.73087 0.48153 0.0
H1252 H 0.13211 0.8092 0.61667 0.0
H1253 H 0.17246 0.85954 0.62741 0.0
H1254 H 0.17407 0.82789 0.57074 0.0
H1255 H 0.18739 0.8545 0.59355 0.0
H1256 H 0.17424 0.69686 0.47563 0.0
H1257 H 0.17695 0.70341 0.41057 0.0
H1258 H 0.15361 0.75133 0.44635 0.0
H1259 H 0.16405 0.73764 0.41352 0.0
Tb1260 Tb 0.99064 0.64433 0.78143 0.0
C1261 C 0.04976 0.60534 0.7478 0.0
C1262 C 0.07073 0.6143 0.77654 0.0
C1263 C 0.07528 0.58179 0.75993 0.0
C1264 C 0.05531 0.61915 0.76255 0.0
C1265 C 0.05979 0.5866 0.74617 0.0
C1266 C 0.08069 0.59558 0.77513 0.0
C1267 C 0.03845 0.57882 0.71745 0.0
N1268 N 0.03426 0.6102 0.7352 0.0
C1269 C 0.02873 0.59745 0.71988 0.0
C1270 C 0.05394 0.57328 0.73076 0.0
Tb1271 Tb 1.02028 0.6414 0.73963 0.0
N1272 N 0.04488 0.63686 0.76379 0.0
C1273 C 0.04957 0.65054 0.77853 0.0
C1274 C 0.07544 0.62827 0.79171 0.0
C1275 C 0.06483 0.64647 0.79268 0.0
H1276 H 1.01689 0.60162 0.70936 0.0
H1277 H 0.06832 0.65738 0.8044 0.0
H1278 H 0.09255 0.59159 0.78576 0.0
H1279 H 0.03396 0.56873 0.70534 0.0
H1280 H 0.04165 0.66457 0.77975 0.0
H1281 H 0.9138 0.67076 0.76847 0.0
H1282 H 0.08713 0.62511 0.8028 0.0
H1283 H 0.02682 0.65888 0.81354 0.0
H1284 H 0.9425 0.64807 0.76361 0.0
H1285 H 0.03138 0.68618 0.83892 0.0
H1286 H 0.0831 0.56742 0.75901 0.0
H1287 H 0.91646 0.69931 0.79239 0.0
H1288 H 0.93691 0.71836 0.81795 0.0
H1289 H 0.06132 0.55877 0.72895 0.0
H1290 H 0.96859 0.72252 0.8371 0.0
N1291 N 0.96259 0.66462 0.78287 0.0
C1292 C 0.94459 0.66113 0.77309 0.0
C1293 C 0.92949 0.68973 0.78985 0.0
C1294 C 0.94758 0.69283 0.80048 0.0
C1295 C 0.92795 0.67371 0.77625 0.0
C1296 C 0.96409 0.67982 0.79677 0.0
H1297 H 1.00388 0.71079 0.84483 0.0
N1298 N 0.99785 0.66921 0.80421 0.0
C1299 C 1.01754 0.68525 0.83015 0.0
C1300 C 0.98199 0.68201 0.80799 0.0
C1301 C 1.0151 0.67002 0.81564 0.0
C1302 C 1.00192 0.69909 0.83352 0.0
C1303 C 0.98379 0.69743 0.82259 0.0
O1304 O 0.99033 0.63333 0.81126 0.0
O1305 O 1.0074 0.62131 0.76333 0.0
O1306 O 0.99398 0.62074 0.73234 0.0
O1307 O 0.97185 0.62836 0.75911 0.0
O1308 O 1.01128 0.6185 0.79221 0.0
O1309 O 0.9639 0.63039 0.79172 0.0
O1310 O 0.02394 0.63999 0.70804 0.0
O1311 O 0.99628 0.65797 0.75249 0.0
O1312 O 1.00423 0.67779 0.77658 0.0
O1313 O 0.02444 0.67601 0.74844 0.0
O1314 O 0.99507 0.65262 0.72183 0.0
O1315 O 0.04586 0.65541 0.72662 0.0
C1316 C 1.01402 0.60766 0.77598 0.0
C1317 C 0.95767 0.63654 0.82641 0.0
C1318 C 0.9241 0.63778 0.84217 0.0
C1319 C 0.93755 0.62957 0.8278 0.0
C1320 C 0.9311 0.65375 0.85453 0.0
C1321 C 0.96461 0.65113 0.84026 0.0
C1322 C 0.95125 0.66008 0.85378 0.0
C1323 C 0.97599 0.61909 0.74175 0.0
C1324 C 0.97097 0.62878 0.81016 0.0
C1325 C 0.96748 0.71058 0.82593 0.0
C1326 C 0.94944 0.70825 0.81497 0.0
C1327 C 0.98551 0.66081 0.73663 0.0
C1328 C 0.05718 0.64268 0.69503 0.0
C1329 C 0.06088 0.65264 0.67654 0.0
C1330 C 0.07611 0.64572 0.66331 0.0
C1331 C 0.087 0.62819 0.66874 0.0
C1332 C 0.06909 0.62602 0.70048 0.0
C1333 C 0.08365 0.61862 0.68726 0.0
C1334 C 1.01623 0.68797 0.76309 0.0
C1335 C 0.0409 0.65007 0.70829 0.0
H1336 H 0.9327 0.61743 0.8179 0.0
H1337 H 0.92115 0.66126 0.86508 0.0
H1338 H 0.98027 0.65597 0.84046 0.0
H1339 H 0.95656 0.67193 0.8638 0.0
H1340 H 0.05223 0.66606 0.67281 0.0
H1341 H 0.09832 0.62188 0.65879 0.0
H1342 H 0.0673 0.61873 0.71489 0.0
H1343 H 0.09249 0.60547 0.69145 0.0
Tb1344 Tb 0.14805 0.2325 0.52409 0.0
C1345 C 0.18792 0.29995 0.51469 0.0
C1346 C 0.175 0.31286 0.54641 0.0
C1347 C 0.20936 0.32102 0.53619 0.0
C1348 C 0.17209 0.30168 0.52839 0.0
C1349 C 0.20673 0.30952 0.51856 0.0
C1350 C 0.19354 0.32268 0.55007 0.0
C1351 C 0.21947 0.2952 0.4876 0.0
N1352 N 0.18517 0.28834 0.49794 0.0
C1353 C 0.20077 0.2857 0.48451 0.0
C1354 C 0.22251 0.30709 0.50473 0.0
Tb1355 Tb 0.15327 0.27478 0.49402 0.0
N1356 N 0.15436 0.29162 0.52464 0.0
C1357 C 0.13954 0.29147 0.53912 0.0
C1358 C 0.1594 0.31345 0.56057 0.0
C1359 C 0.14172 0.30251 0.557 0.0
H1360 H 0.19867 0.2768 0.47099 0.0
H1361 H 0.12982 0.30225 0.56823 0.0
H1362 H 0.19593 0.33134 0.56379 0.0
H1363 H 0.2316 0.29319 0.47683 0.0
H1364 H 0.12622 0.28236 0.53786 0.0
H1365 H 0.18695 0.16124 0.50856 0.0
H1366 H 0.16108 0.3218 0.57457 0.0
H1367 H 0.10463 0.23201 0.55101 0.0
H1368 H 0.18447 0.19573 0.5223 0.0
H1369 H 0.07254 0.21268 0.55092 0.0
H1370 H 0.22367 0.32847 0.53937 0.0
H1371 H 0.15618 0.14333 0.49663 0.0
H1372 H 0.11804 0.14199 0.49538 0.0
H1373 H 0.23712 0.3142 0.50721 0.0
H1374 H 0.08584 0.15646 0.50713 0.0
N1375 N 0.15269 0.19838 0.51662 0.0
C1376 C 0.17085 0.18827 0.51714 0.0
C1377 C 0.155 0.15862 0.50244 0.0
C1378 C 0.13614 0.16781 0.50485 0.0
C1379 C 0.17237 0.16864 0.5093 0.0
C1380 C 0.13553 0.18781 0.51231 0.0
H1381 H 0.06876 0.18255 0.52897 0.0
N1382 N 0.11841 0.21395 0.5281 0.0
C1383 C 0.08491 0.20799 0.54133 0.0
C1384 C 0.1175 0.19603 0.51833 0.0
C1385 C 0.10313 0.21888 0.54132 0.0
C1386 C 0.0828 0.1911 0.52882 0.0
C1387 C 0.09955 0.18435 0.51786 0.0
O1388 O 0.15177 0.25026 0.55069 0.0
O1389 O 0.17024 0.25728 0.51737 0.0
O1390 O 0.17335 0.25168 0.47929 0.0
O1391 O 0.16636 0.22231 0.49851 0.0
O1392 O 0.1821 0.23174 0.52863 0.0
O1393 O 0.14468 0.21856 0.55197 0.0
O1394 O 0.16418 0.29868 0.47579 0.0
O1395 O 0.13682 0.24751 0.49845 0.0
O1396 O 0.11545 0.24712 0.51818 0.0
O1397 O 0.11906 0.27849 0.50344 0.0
O1398 O 0.14369 0.25476 0.46908 0.0
O1399 O 0.13298 0.29172 0.47559 0.0
C1400 C 0.18835 0.2494 0.52227 0.0
C1401 C 0.16698 0.22973 0.57683 0.0
C1402 C 0.1871 0.20399 0.59445 0.0
C1403 C 0.17018 0.20946 0.58289 0.0
C1404 C 0.20043 0.21928 0.60106 0.0
C1405 C 0.18031 0.24482 0.58377 0.0
C1406 C 0.19683 0.23958 0.596 0.0
C1407 C 0.17583 0.23195 0.48356 0.0
C1408 C 0.15048 0.23424 0.56226 0.0
C1409 C 0.09959 0.16543 0.50819 0.0
C1410 C 0.11793 0.15717 0.50157 0.0
C1411 C 0.13408 0.24189 0.48024 0.0
C1412 C 0.14869 0.29787 0.44391 0.0
C1413 C 0.1367 0.309 0.43015 0.0
C1414 C 0.13803 0.30521 0.40912 0.0
C1415 C 0.1516 0.29043 0.40218 0.0
C1416 C 0.16209 0.2832 0.43637 0.0
C1417 C 0.16352 0.27956 0.41572 0.0
C1418 C 0.10618 0.26442 0.51147 0.0
C1419 C 0.14743 0.301 0.46609 0.0
H1420 H 0.16013 0.19756 0.57758 0.0
H1421 H 0.21368 0.21549 0.60998 0.0
H1422 H 0.17819 0.26052 0.57945 0.0
H1423 H 0.20719 0.25124 0.60116 0.0
H1424 H 0.12628 0.32029 0.43578 0.0
H1425 H 0.15325 0.28747 0.38616 0.0
H1426 H 0.17156 0.27444 0.44644 0.0
H1427 H 0.17396 0.26827 0.41018 0.0
Tb1428 Tb 0.52382 0.39268 0.23494 0.0
C1429 C 0.53709 0.356 0.30357 0.0
C1430 C 0.5032 0.36454 0.31461 0.0
C1431 C 0.51796 0.33223 0.32429 0.0
C1432 C 0.52114 0.36961 0.3042 0.0
C1433 C 0.53569 0.33721 0.31369 0.0
C1434 C 0.50175 0.34585 0.32473 0.0
C1435 C 0.5695 0.32962 0.30219 0.0
N1436 N 0.55382 0.36103 0.29275 0.0
C1437 C 0.5702 0.34841 0.29241 0.0
C1438 C 0.55212 0.32392 0.31277 0.0
Tb1439 Tb 0.55325 0.39235 0.27811 0.0
N1440 N 0.52292 0.38746 0.29398 0.0
C1441 C 0.50708 0.40068 0.29328 0.0
C1442 C 0.48711 0.37825 0.31426 0.0
C1443 C 0.48904 0.39634 0.30346 0.0
H1444 H 0.58404 0.35283 0.2849 0.0
H1445 H 0.47654 0.40689 0.30282 0.0
H1446 H 0.48809 0.34172 0.33282 0.0
H1447 H 0.58244 0.31962 0.30171 0.0
H1448 H 0.5079 0.41444 0.28465 0.0
H1449 H 0.55295 0.36558 0.16278 0.0
H1450 H 0.47306 0.3749 0.32203 0.0
H1451 H 0.48676 0.42678 0.2373 0.0
H1452 H 0.53805 0.36152 0.19667 0.0
H1453 H 0.47661 0.45792 0.2192 0.0
H1454 H 0.51659 0.31784 0.33211 0.0
H1455 H 0.55521 0.3996 0.14711 0.0
H1456 H 0.54454 0.43616 0.1479 0.0
H1457 H 0.55162 0.30933 0.32031 0.0
H1458 H 0.52296 0.46205 0.16358 0.0
N1459 N 0.53441 0.3933 0.2015 0.0
C1460 C 0.53953 0.37657 0.19033 0.0
C1461 C 0.54916 0.39798 0.16224 0.0
C1462 C 0.54087 0.41454 0.17238 0.0
C1463 C 0.54783 0.37875 0.171 0.0
C1464 C 0.53331 0.41158 0.19211 0.0
H1465 H 0.49638 0.46978 0.18968 0.0
N1466 N 0.51246 0.42139 0.21862 0.0
C1467 C 0.48956 0.44936 0.21409 0.0
C1468 C 0.5217 0.42627 0.20104 0.0
C1469 C 0.4953 0.43165 0.22423 0.0
C1470 C 0.50086 0.45609 0.19755 0.0
C1471 C 0.51667 0.44407 0.19033 0.0
O1472 O 0.49436 0.38882 0.24887 0.0
O1473 O 0.53035 0.37254 0.26179 0.0
O1474 O 0.57015 0.37255 0.25757 0.0
O1475 O 0.55238 0.37727 0.22709 0.0
O1476 O 0.52574 0.35879 0.23463 0.0
O1477 O 0.50061 0.3838 0.21662 0.0
O1478 O 0.58288 0.39277 0.28901 0.0
O1479 O 0.5473 0.40649 0.25033 0.0
O1480 O 0.52543 0.42683 0.24839 0.0
O1481 O 0.54246 0.42616 0.279 0.0
O1482 O 0.57657 0.40804 0.25951 0.0
O1483 O 0.55864 0.4042 0.30755 0.0
C1484 C 0.52954 0.35404 0.25333 0.0
C1485 C 0.46631 0.37783 0.2253 0.0
C1486 C 0.44305 0.36834 0.19761 0.0
C1487 C 0.46273 0.36995 0.20576 0.0
C1488 C 0.4267 0.37354 0.21026 0.0
C1489 C 0.4498 0.38251 0.2376 0.0
C1490 C 0.43009 0.38015 0.23013 0.0
C1491 C 0.56777 0.36982 0.23784 0.0
C1492 C 0.48724 0.38365 0.23099 0.0
C1493 C 0.52616 0.44819 0.17178 0.0
C1494 C 0.5384 0.43342 0.16284 0.0
C1495 C 0.56453 0.41307 0.24513 0.0
C1496 C 0.59058 0.39559 0.32346 0.0
C1497 C 0.6077 0.40754 0.32792 0.0
C1498 C 0.62216 0.40117 0.34222 0.0
C1499 C 0.61918 0.38258 0.35219 0.0
C1500 C 0.5876 0.37729 0.33383 0.0
C1501 C 0.60189 0.37085 0.34815 0.0
C1502 C 0.53263 0.43753 0.26488 0.0
C1503 C 0.57817 0.40149 0.3059 0.0
H1504 H 0.47554 0.36544 0.1967 0.0
H1505 H 0.41125 0.373 0.20482 0.0
H1506 H 0.45213 0.38868 0.2526 0.0
H1507 H 0.41735 0.38414 0.23955 0.0
H1508 H 0.61012 0.42161 0.31973 0.0
H1509 H 0.62998 0.37736 0.36339 0.0
H1510 H 0.57455 0.36786 0.33063 0.0
H1511 H 0.59963 0.35663 0.35603 0.0
Tb1512 Tb 0.39415 0.81211 0.02671 0.0
C1513 C 0.35589 0.74505 1.00795 0.0
C1514 C 0.36484 0.731 0.0407 0.0
C1515 C 0.33264 0.72209 0.02506 0.0
C1516 C 0.36963 0.74313 1.02379 0.0
C1517 C 0.33726 0.73453 1.00844 0.0
C1518 C 0.34638 0.72035 0.04117 0.0
C1519 C 0.32904 0.74952 0.97608 0.0
N1520 N 0.36059 0.75761 0.99233 0.0
C1521 C 0.34768 0.75965 0.97626 0.0
C1522 C 0.32376 0.73696 0.99227 0.0
Tb1523 Tb 0.39209 0.77179 0.99383 0.0
N1524 N 0.38722 0.75393 1.02302 0.0
C1525 C 0.40042 0.75365 0.03895 0.0
C1526 C 0.37858 0.73026 0.05684 0.0
C1527 C 0.39635 0.74176 0.05601 0.0
H1528 H 0.35176 0.76884 0.96335 0.0
H1529 H 0.40689 0.74158 0.06858 0.0
H1530 H 0.34248 0.71091 0.05401 0.0
H1531 H 0.31881 0.75128 0.96339 0.0
H1532 H 0.41393 0.76276 0.0389 0.0
H1533 H 0.37781 0.88988 1.00469 0.0
H1534 H 0.37545 0.72115 0.07013 0.0
H1535 H 0.42788 0.79806 0.06284 0.0
H1536 H 0.36884 0.85493 1.01433 0.0
H1537 H 0.46005 0.81076 0.07663 0.0
H1538 H 0.3184 0.7139 0.02571 0.0
H1539 H 0.41314 0.90198 1.00835 0.0
H1540 H 0.448 0.89582 1.02233 0.0
H1541 H 0.30929 0.72917 0.99209 0.0
H1542 H 0.47044 0.87424 0.04279 0.0
N1543 N 0.39934 0.84624 1.02074 0.0
C1544 C 0.3845 0.85969 1.01524 0.0
C1545 C 0.40939 0.88641 1.01206 0.0
C1546 C 0.42386 0.87349 1.02054 0.0
C1547 C 0.38944 0.87966 1.01003 0.0
C1548 C 0.41819 0.85333 0.02503 0.0
H1549 H 0.47465 0.84289 0.06391 0.0
N1550 N 0.42376 0.82287 0.04235 0.0
C1551 C 0.45205 0.81948 0.06528 0.0
C1552 C 0.43081 0.84127 0.03649 0.0
C1553 C 0.4335 0.81257 0.05769 0.0
C1554 C 0.46031 0.83752 0.05795 0.0
C1555 C 0.44943 0.84894 0.0438 0.0
O1556 O 0.39166 0.79902 0.05628 0.0
O1557 O 0.37383 0.7855 1.01878 0.0
O1558 O 0.3725 0.79515 0.97903 0.0
O1559 O 0.37955 0.82364 0.99934 0.0
O1560 O 0.36028 0.81262 1.02353 0.0
O1561 O 0.37773 0.82753 0.04795 0.0
O1562 O 0.39063 0.76133 0.96412 0.0
O1563 O 0.40647 0.79926 1.00079 0.0
O1564 O 0.42788 0.79879 1.02243 0.0
O1565 O 0.42586 0.76904 1.00425 0.0
O1566 O 0.40828 0.79092 0.97145 0.0
O1567 O 0.40448 0.74297 0.98753 0.0
C1568 C 0.35545 0.79401 1.01944 0.0
C1569 C 0.38847 0.8265 0.08119 0.0
C1570 C 0.38757 0.85873 0.10016 0.0
C1571 C 0.3805 0.84614 0.08445 0.0
C1572 C 0.40233 0.85077 0.11339 0.0
C1573 C 0.40254 0.81879 0.09506 0.0
C1574 C 0.40945 0.83094 0.11099 0.0
C1575 C 0.37097 0.81489 0.98334 0.0
C1576 C 0.38205 0.81525 0.06273 0.0
C1577 C 0.456 0.86825 0.03768 0.0
C1578 C 0.44323 0.88052 0.02601 0.0
C1579 C 0.41343 0.80501 0.98378 0.0
C1580 C 0.39289 0.72664 0.95717 0.0
C1581 C 0.40223 0.72281 0.93861 0.0
C1582 C 0.39461 0.70805 0.92525 0.0
C1583 C 0.37775 0.69644 0.93142 0.0
C1584 C 0.37623 0.71492 0.96314 0.0
C1585 C 0.3688 0.69976 0.95031 0.0
C1586 C 0.43785 0.78242 1.01432 0.0
C1587 C 0.39989 0.7445 0.96836 0.0
H1588 H 0.36867 0.85164 0.07451 0.0
H1589 H 0.40857 0.85985 0.12553 0.0
H1590 H 0.40843 0.80361 0.09343 0.0
H1591 H 0.42065 0.82503 0.12142 0.0
H1592 H 0.41542 0.73174 0.93454 0.0
H1593 H 0.37122 0.68505 0.92158 0.0
H1594 H 0.36883 0.71764 0.97744 0.0
H1595 H 0.35581 0.6908 0.95485 0.0
Tb1596 Tb 0.98997 0.39891 0.77345 0.0
C1597 C 0.05825 0.43824 0.79015 0.0
C1598 C 0.0696 0.43149 0.75599 0.0
C1599 C 0.07981 0.46264 0.77288 0.0
C1600 C 0.05884 0.42559 0.77342 0.0
C1601 C 0.06901 0.45673 0.79019 0.0
C1602 C 0.08005 0.45009 0.7558 0.0
C1603 C 0.05835 0.46173 0.82476 0.0
N1604 N 0.04732 0.43229 0.80648 0.0
C1605 C 0.04771 0.44337 0.82392 0.0
C1606 C 0.06884 0.46857 0.80774 0.0
Tb1607 Tb 0.03221 0.40142 0.80374 0.0
N1608 N 0.04855 0.40769 0.77411 0.0
C1609 C 0.04814 0.39513 0.75775 0.0
C1610 C 0.06943 0.41857 0.73924 0.0
C1611 C 0.05859 0.40036 0.7401 0.0
H1612 H 0.03994 0.43804 0.83728 0.0
H1613 H 0.05818 0.39039 0.72713 0.0
H1614 H 0.08841 0.45489 0.74254 0.0
H1615 H 0.05845 0.47057 0.83852 0.0
H1616 H 0.0395 0.38128 0.75796 0.0
H1617 H 0.9153 0.42149 0.80019 0.0
H1618 H 0.07747 0.42257 0.72553 0.0
H1619 H 0.99634 0.36454 0.73674 0.0
H1620 H 0.94961 0.42775 0.78696 0.0
H1621 H 0.98084 0.33202 0.7265 0.0
H1622 H 0.08809 0.47685 0.77257 0.0
H1623 H 0.90146 0.38662 0.80125 0.0
H1624 H 0.9047 0.35038 0.79022 0.0
H1625 H 0.07699 0.48284 0.8084 0.0
H1626 H 0.92279 0.32551 0.76942 0.0
N1627 N 0.95636 0.39633 0.78302 0.0
C1628 C 0.94406 0.41232 0.78793 0.0
C1629 C 0.91678 0.38919 0.79595 0.0
C1630 C 0.92821 0.37333 0.78796 0.0
C1631 C 0.92449 0.4089 0.79528 0.0
C1632 C 0.94809 0.3775 0.78131 0.0
H1633 H 0.95083 0.31888 0.74469 0.0
N1634 N 0.97602 0.36921 0.76135 0.0
C1635 C 0.97448 0.34054 0.73891 0.0
C1636 C 0.95829 0.3634 0.76985 0.0
C1637 C 0.98309 0.35905 0.74465 0.0
C1638 C 0.95764 0.33312 0.74931 0.0
C1639 C 0.94884 0.34496 0.76444 0.0
O1640 O 1.00384 0.40291 0.74395 0.0
O1641 O 1.01609 0.42023 0.78008 0.0
O1642 O 1.01105 0.42291 0.81791 0.0
O1643 O 0.98074 0.41439 0.80107 0.0
O1644 O 0.98912 0.433 0.7733 0.0
O1645 O 0.97124 0.40628 0.75024 0.0
O1646 O 0.04197 0.39865 0.83365 0.0
O1647 O 1.00482 0.3858 0.79817 0.0
O1648 O 1.00369 0.36554 0.77648 0.0
O1649 O 0.03459 0.3678 0.79244 0.0
O1650 O 1.01334 0.38812 0.82775 0.0
O1651 O 0.06194 0.3905 0.80929 0.0
C1652 C 1.00742 0.4386 0.77813 0.0
C1653 C 0.97953 0.41289 0.71607 0.0
C1654 C 0.95189 0.42371 0.69359 0.0
C1655 C 0.95974 0.42031 0.71301 0.0
C1656 C 0.96433 0.41992 0.67684 0.0
C1657 C 0.99186 0.40953 0.69923 0.0
C1658 C 0.98426 0.4131 0.67971 0.0
C1659 C 0.99108 0.42395 0.81544 0.0
C1660 C 0.98562 0.40701 0.73683 0.0
C1661 C 0.93008 0.33981 0.773 0.0
C1662 C 0.91978 0.35399 0.78483 0.0
C1663 C 0.99951 0.38106 0.81606 0.0
C1664 C 0.07635 0.39896 0.84181 0.0
C1665 C 0.07893 0.38979 0.86091 0.0
C1666 C 0.09321 0.39733 0.87494 0.0
C1667 C 0.10474 0.4145 0.86938 0.0
C1668 C 0.08841 0.4156 0.83646 0.0
C1669 C 0.10243 0.42339 0.85028 0.0
C1670 C 1.02069 0.35573 0.78312 0.0
C1671 C 0.05966 0.3917 0.82889 0.0
H1672 H 0.94994 0.42284 0.72588 0.0
H1673 H 0.95874 0.42243 0.66163 0.0
H1674 H 1.00706 0.40368 0.70112 0.0
H1675 H 0.99376 0.41031 0.66671 0.0
H1676 H 0.06979 0.37665 0.86472 0.0
H1677 H 0.11552 0.42119 0.87979 0.0
H1678 H 0.08676 0.42277 0.82182 0.0
H1679 H 0.11148 0.4365 0.84623 0.0
Tb1680 Tb 0.39659 0.23445 0.52076 0.0
C1681 C 0.35649 0.29971 0.54359 0.0
C1682 C 0.36325 0.31401 0.5105 0.0
C1683 C 0.33199 0.32229 0.52794 0.0
C1684 C 0.36913 0.30185 0.52704 0.0
C1685 C 0.33795 0.3102 0.5444 0.0
C1686 C 0.34457 0.32412 0.511 0.0
C1687 C 0.33303 0.29669 0.57804 0.0
N1688 N 0.36257 0.28767 0.55908 0.0
C1689 C 0.35142 0.28636 0.57641 0.0
C1690 C 0.32615 0.30848 0.56187 0.0
Tb1691 Tb 0.39362 0.27335 0.5556 0.0
N1692 N 0.38716 0.29196 0.52716 0.0
C1693 C 0.40003 0.29367 0.51115 0.0
C1694 C 0.37634 0.31568 0.49399 0.0
C1695 C 0.3948 0.30545 0.49432 0.0
H1696 H 0.35671 0.27745 0.58909 0.0
H1697 H 0.40501 0.3066 0.48159 0.0
H1698 H 0.33979 0.33354 0.49842 0.0
H1699 H 0.32418 0.29551 0.59174 0.0
H1700 H 0.41419 0.28577 0.51094 0.0
H1701 H 0.34567 0.16886 0.5242 0.0
H1702 H 0.37235 0.32482 0.48095 0.0
H1703 H 0.44309 0.22707 0.50035 0.0
H1704 H 0.35527 0.20328 0.51445 0.0
H1705 H 0.47198 0.20437 0.50643 0.0
H1706 H 0.31775 0.33039 0.52823 0.0
H1707 H 0.37093 0.1458 0.53944 0.0
H1708 H 0.40737 0.13903 0.54813 0.0
H1709 H 0.31186 0.31639 0.56314 0.0
H1710 H 0.44301 0.1493 0.54383 0.0
N1711 N 0.3859 0.20093 0.52514 0.0
C1712 C 0.36669 0.19379 0.52115 0.0
C1713 C 0.37525 0.16115 0.53547 0.0
C1714 C 0.39529 0.16765 0.53741 0.0
C1715 C 0.36104 0.17407 0.52669 0.0
C1716 C 0.40018 0.18768 0.53168 0.0
H1717 H 0.46751 0.17364 0.52745 0.0
N1718 N 0.42333 0.21159 0.52077 0.0
C1719 C 0.4576 0.20139 0.5137 0.0
C1720 C 0.41993 0.19341 0.52954 0.0
C1721 C 0.44129 0.21456 0.51077 0.0
C1722 C 0.45502 0.18407 0.52554 0.0
C1723 C 0.43567 0.17931 0.53266 0.0
O1724 O 0.39178 0.25282 0.49472 0.0
O1725 O 0.37465 0.25748 0.53257 0.0
O1726 O 0.3729 0.24982 0.56816 0.0
O1727 O 0.37986 0.22201 0.5468 0.0
O1728 O 0.36325 0.23739 0.51358 0.0
O1729 O 0.40314 0.22252 0.49247 0.0
O1730 O 0.39528 0.2816 0.58617 0.0
O1731 O 0.40999 0.2477 0.54623 0.0
O1732 O 0.42939 0.25015 0.52334 0.0
O1733 O 0.42763 0.27706 0.54529 0.0
O1734 O 0.40653 0.25136 0.57691 0.0
O1735 O 0.40588 0.30204 0.56297 0.0
C1736 C 0.35664 0.25204 0.5248 0.0
C1737 C 0.38028 0.23204 0.46718 0.0
C1738 C 0.36134 0.20555 0.44922 0.0
C1739 C 0.37388 0.21167 0.46525 0.0
C1740 C 0.35453 0.22016 0.43534 0.0
C1741 C 0.37314 0.24644 0.4533 0.0
C1742 C 0.36019 0.24051 0.43756 0.0
C1743 C 0.37083 0.23039 0.56271 0.0
C1744 C 0.39556 0.23771 0.48265 0.0
C1745 C 0.43111 0.16018 0.54083 0.0
C1746 C 0.41083 0.15433 0.54322 0.0
C1747 C 0.41406 0.23984 0.56324 0.0
C1748 C 0.39651 0.31614 0.59494 0.0
C1749 C 0.40668 0.32009 0.61329 0.0
C1750 C 0.39991 0.33536 0.62654 0.0
C1751 C 0.38246 0.34637 0.62102 0.0
C1752 C 0.37971 0.32783 0.58951 0.0
C1753 C 0.37263 0.34274 0.60261 0.0
C1754 C 0.4395 0.26559 0.53303 0.0
C1755 C 0.40346 0.29915 0.58237 0.0
H1756 H 0.3793 0.20025 0.47573 0.0
H1757 H 0.34478 0.21584 0.42284 0.0
H1758 H 0.37783 0.26215 0.45443 0.0
H1759 H 0.35482 0.25168 0.42682 0.0
H1760 H 0.42004 0.31135 0.617 0.0
H1761 H 0.37627 0.35782 0.6309 0.0
H1762 H 0.37197 0.32537 0.5753 0.0
H1763 H 0.35941 0.3515 0.59851 0.0
Tb1764 Tb 0.55797 0.64475 0.27343 0.0
C1765 C 0.48832 0.606 0.2801 0.0
C1766 C 0.47431 0.62157 0.24992 0.0
C1767 C 0.46438 0.58729 0.25908 0.0
C1768 C 0.48674 0.62268 0.26733 0.0
C1769 C 0.47736 0.58805 0.2759 0.0
C1770 C 0.46286 0.604 0.24613 0.0
C1771 C 0.4937 0.5723 0.30457 0.0
N1772 N 0.50119 0.60707 0.29615 0.0
C1773 C 0.50425 0.59034 0.3082 0.0
C1774 C 0.48008 0.57119 0.28847 0.0
Tb1775 Tb 0.51546 0.63848 0.30158 0.0
N1776 N 0.49826 0.63944 0.27125 0.0
C1777 C 0.49909 0.65477 0.2573 0.0
C1778 C 0.47421 0.63789 0.23644 0.0
C1779 C 0.48693 0.65438 0.23998 0.0
H1780 H 0.51418 0.59103 0.32118 0.0
H1781 H 0.48755 0.66676 0.22923 0.0
H1782 H 0.45312 0.60301 0.23295 0.0
H1783 H 0.49603 0.55928 0.31428 0.0
H1784 H 0.50923 0.66729 0.25889 0.0
H1785 H 0.63205 0.6514 0.31023 0.0
H1786 H 0.46489 0.6376 0.22292 0.0
H1787 H 0.53629 0.67321 0.23671 0.0
H1788 H 0.60196 0.63306 0.29988 0.0
H1789 H 0.54358 0.70553 0.21968 0.0
H1790 H 0.45577 0.57369 0.25572 0.0
H1791 H 0.63845 0.68607 0.29783 0.0
H1792 H 0.62838 0.71468 0.27546 0.0
H1793 H 0.47199 0.55715 0.28567 0.0
H1794 H 0.60495 0.72902 0.25044 0.0
N1795 N 0.58892 0.65783 0.28317 0.0
C1796 C 0.60335 0.6485 0.29489 0.0
C1797 C 0.6246 0.67831 0.29352 0.0
C1798 C 0.61078 0.68728 0.28027 0.0
C1799 C 0.62101 0.65876 0.30059 0.0
C1800 C 0.59284 0.67664 0.27521 0.0
H1801 H 0.57366 0.72563 0.22946 0.0
N1802 N 0.56199 0.67488 0.25646 0.0
C1803 C 0.55367 0.70002 0.23137 0.0
C1804 C 0.57941 0.68505 0.2611 0.0
C1805 C 0.54967 0.68161 0.24103 0.0
C1806 C 0.57069 0.71129 0.23693 0.0
C1807 C 0.58389 0.70381 0.25174 0.0
O1808 O 0.54839 0.63897 0.24296 0.0
O1809 O 0.5316 0.62307 0.27636 0.0
O1810 O 0.53844 0.61732 0.31556 0.0
O1811 O 0.56861 0.62596 0.2985 0.0
O1812 O 0.55948 0.61081 0.27212 0.0
O1813 O 0.58057 0.63867 0.25337 0.0
O1814 O 0.49242 0.6263 0.31988 0.0
O1815 O 0.54301 0.65451 0.29944 0.0
O1816 O 0.54423 0.67732 0.27976 0.0
O1817 O 0.51268 0.67327 0.29386 0.0
O1818 O 0.53453 0.64633 0.32773 0.0
O1819 O 0.49714 0.65805 0.31921 0.0
C1820 C 0.54072 0.60505 0.27408 0.0
C1821 C 0.5759 0.63169 0.21826 0.0
C1822 C 0.60563 0.62208 0.1987 0.0
C1823 C 0.59597 0.62492 0.21723 0.0
C1824 C 0.5949 0.62596 0.18075 0.0
C1825 C 0.56513 0.63518 0.20029 0.0
C1826 C 0.57466 0.63228 0.18159 0.0
C1827 C 0.55845 0.61536 0.3124 0.0
C1828 C 0.56773 0.63695 0.23824 0.0
C1829 C 0.60142 0.7145 0.2573 0.0
C1830 C 0.61474 0.70633 0.27158 0.0
C1831 C 0.54788 0.65668 0.31795 0.0
C1832 C 0.49372 0.64221 0.35125 0.0
C1833 C 0.4845 0.65565 0.36479 0.0
C1834 C 0.49004 0.65532 0.38534 0.0
C1835 C 0.50486 0.64182 0.39227 0.0
C1836 C 0.50814 0.62829 0.35868 0.0
C1837 C 0.5138 0.62829 0.37897 0.0
C1838 C 0.52701 0.68631 0.28656 0.0
C1839 C 0.48939 0.64302 0.32931 0.0
H1840 H 0.60449 0.62239 0.23105 0.0
H1841 H 0.60204 0.62387 0.16618 0.0
H1842 H 0.5497 0.64065 0.20071 0.0
H1843 H 0.56641 0.63518 0.16772 0.0
H1844 H 0.47324 0.6663 0.35941 0.0
H1845 H 0.50923 0.64154 0.40808 0.0
H1846 H 0.51539 0.61754 0.34875 0.0
H1847 H 0.52511 0.61774 0.38438 0.0
Tb1848 Tb 0.14579 0.76955 0.06173 0.0
C1849 C 0.10926 0.77589 0.98989 0.0
C1850 C 0.12437 0.74483 0.97774 0.0
C1851 C 0.09148 0.75528 0.96499 0.0
C1852 C 0.12546 0.76255 0.98965 0.0
C1853 C 0.09201 0.77225 0.97774 0.0
C1854 C 0.10758 0.74156 0.96505 0.0
C1855 C 0.07608 0.80119 0.9932 0.0
N1856 N 0.10999 0.79184 1.00283 0.0
C1857 C 0.09339 0.80414 1.00508 0.0
C1858 C 0.07547 0.78534 0.97929 0.0
Tb1859 Tb 0.14089 0.79699 1.01816 0.0
N1860 N 0.14145 0.76606 1.00225 0.0
C1861 C 0.15553 0.75121 1.00525 0.0
C1862 C 0.13977 0.73048 0.97956 0.0
C1863 C 0.15514 0.73347 0.99373 0.0
H1864 H 0.09371 0.81683 1.01531 0.0
H1865 H 0.16657 0.72196 0.99603 0.0
H1866 H 0.10665 0.72816 0.95565 0.0
H1867 H 0.06323 0.81119 0.99476 0.0
H1868 H 0.16681 0.75237 1.01682 0.0
H1869 H 0.14089 0.80655 0.1356 0.0
H1870 H 0.13944 0.71663 0.97077 0.0
H1871 H 0.17661 0.73147 0.04824 0.0
H1872 H 0.12652 0.79136 0.10517 0.0
H1873 H 0.209 0.7172 0.05984 0.0
H1874 H 0.0784 0.75229 0.9555 0.0
H1875 H 0.177 0.80165 0.14395 0.0
H1876 H 0.20928 0.78343 0.13683 0.0
H1877 H 0.06196 0.78301 0.97024 0.0
H1878 H 0.22748 0.75799 0.11691 0.0
N1879 N 0.15492 0.78096 0.09362 0.0
C1880 C 0.14262 0.79029 0.10743 0.0
C1881 C 0.17096 0.79561 0.12994 0.0
C1882 C 0.18279 0.78352 0.11738 0.0
C1883 C 0.1506 0.79847 0.12524 0.0
C1884 C 0.17424 0.77617 0.09918 0.0
H1885 H 0.22699 0.73244 0.08894 0.0
N1886 N 0.17598 0.75475 0.07069 0.0
C1887 C 0.20246 0.72995 0.06771 0.0
C1888 C 0.18485 0.76221 0.08769 0.0
C1889 C 0.18396 0.73798 0.06133 0.0
C1890 C 0.21259 0.73863 0.0841 0.0
C1891 C 0.20372 0.75479 0.09446 0.0
O1892 O 0.14047 0.73957 0.05068 0.0
O1893 O 0.12437 0.77294 0.03527 0.0
O1894 O 0.11999 0.81232 0.04007 0.0
O1895 O 0.1277 0.79598 0.07087 0.0
O1896 O 0.11183 0.76951 0.06313 0.0
O1897 O 0.1385 0.74787 0.08311 0.0
O1898 O 0.13004 0.81461 0.99388 0.0
O1899 O 0.15696 0.79413 0.04538 0.0
O1900 O 0.17894 0.77418 0.04719 0.0
O1901 O 0.17536 0.78838 1.0155 0.0
O1902 O 0.1492 0.82303 0.03727 0.0
O1903 O 0.16129 0.8151 1.00103 0.0
C1904 C 0.10627 0.77142 0.04431 0.0
C1905 C 0.1314 0.71284 0.07582 0.0
C1906 C 0.12085 0.68949 0.10301 0.0
C1907 C 0.12392 0.70935 0.09554 0.0
C1908 C 0.1252 0.67317 0.08997 0.0
C1909 C 0.13507 0.69632 0.06315 0.0
C1910 C 0.13195 0.67661 0.07023 0.0
C1911 C 0.11783 0.80998 0.06011 0.0
C1912 C 0.13706 0.7336 0.06945 0.0
C1913 C 0.21278 0.76316 0.11175 0.0
C1914 C 0.20242 0.77765 0.12309 0.0
C1915 C 0.15932 0.81254 0.05023 0.0
C1916 C 0.14485 0.84663 0.9966 0.0
C1917 C 0.1587 0.86074 0.98877 0.0
C1918 C 0.1574 0.88134 0.99428 0.0
C1919 C 0.1424 0.88755 1.00792 0.0
C1920 C 0.12962 0.85341 1.00984 0.0
C1921 C 0.12857 0.87363 1.01559 0.0
C1922 C 0.18826 0.78091 0.02983 0.0
C1923 C 0.14662 0.82474 0.99221 0.0
H1924 H 0.12052 0.72222 0.10504 0.0
H1925 H 0.12377 0.65763 0.095 0.0
H1926 H 0.14093 0.6986 0.04803 0.0
H1927 H 0.13519 0.66388 0.06048 0.0
H1928 H 0.17042 0.85572 0.9785 0.0
H1929 H 0.14091 0.90333 1.01213 0.0
H1930 H 0.11858 0.84304 1.01606 0.0
H1931 H 0.11687 0.87856 0.02588 0.0
Tb1932 Tb 0.77721 0.98191 0.65093 0.0
C1933 C 0.76811 0.04866 0.60995 0.0
C1934 C 0.79739 0.06437 0.6256 0.0
C1935 C 0.78891 0.07241 0.59077 0.0
C1936 C 0.7803 0.05142 0.62677 0.0
C1937 C 0.77238 0.05904 0.59171 0.0
C1938 C 0.80142 0.07504 0.60766 0.0
C1939 C 0.74444 0.04134 0.57611 0.0
N1940 N 0.75261 0.03517 0.61118 0.0
C1941 C 0.741 0.03115 0.59433 0.0
C1942 C 0.76015 0.05541 0.5748 0.0
Tb1943 Tb 0.74607 1.02241 0.64309 0.0
N1944 N 0.77605 0.04069 0.64389 0.0
C1945 C 0.78923 0.04165 0.65989 0.0
C1946 C 0.81024 0.06589 0.64231 0.0
C1947 C 0.80628 0.05426 0.65941 0.0
H1948 H 0.72871 1.0203 0.59493 0.0
H1949 H 0.81648 0.05485 0.67225 0.0
H1950 H 0.81438 0.08511 0.60659 0.0
H1951 H 0.73506 0.03818 0.56303 0.0
H1952 H 0.78746 0.03249 0.67299 0.0
H1953 H 0.77189 0.91058 0.60892 0.0
H1954 H 0.82353 0.07559 0.64198 0.0
H1955 H 0.79968 0.97957 0.6973 0.0
H1956 H 0.78377 0.94526 0.61422 0.0
H1957 H 0.79468 0.95999 0.72873 0.0
H1958 H 0.79238 0.08052 0.57693 0.0
H1959 H 0.75533 0.89166 0.63667 0.0
H1960 H 0.74769 0.88949 0.67394 0.0
H1961 H 0.76295 0.06309 0.56058 0.0
H1962 H 0.75382 0.90356 0.70787 0.0
N1963 N 0.77245 0.94742 0.64455 0.0
C1964 C 0.77633 0.9377 0.62659 0.0
C1965 C 0.76024 0.90716 0.6391 0.0
C1966 C 0.75905 0.91606 0.65819 0.0
C1967 C 0.76968 0.91776 0.62345 0.0
C1968 C 0.76563 0.9363 0.66044 0.0
H1969 H 0.77237 0.92976 0.72868 0.0
N1970 N 0.77818 0.96232 0.68022 0.0
C1971 C 0.78674 0.95563 0.71507 0.0
C1972 C 0.76857 0.94425 0.6793 0.0
C1973 C 0.78935 0.96679 0.69724 0.0
C1974 C 0.77408 0.93865 0.71499 0.0
C1975 C 0.76573 0.93211 0.69666 0.0
O1976 O 0.80298 1.00076 0.64606 0.0
O1977 O 0.77054 1.00588 0.62756 0.0
O1978 O 0.73266 0.99718 0.62415 0.0
O1979 O 0.75201 0.96885 0.63401 0.0
O1980 O 0.78123 0.97992 0.61682 0.0
O1981 O 0.80579 0.97064 0.65774 0.0
O1982 O 0.72221 0.03552 0.62836 0.0
O1983 O 0.7507 0.99629 0.66081 0.0
O1984 O 0.77154 0.99796 0.68298 0.0
O1985 O 0.75163 0.02619 0.67855 0.0
O1986 O 0.72117 1.00407 0.6556 0.0
O1987 O 0.73237 0.04893 0.65596 0.0
C1988 C 0.77484 0.99719 0.60983 0.0
C1989 C 0.83076 0.98051 0.63486 0.0
C1990 C 0.84777 0.95408 0.61543 0.0
C1991 C 0.83174 0.96046 0.62763 0.0
C1992 C 0.86264 0.9682 0.60967 0.0
C1993 C 0.84555 0.99451 0.62877 0.0
C1994 C 0.86132 0.98839 0.61607 0.0
C1995 C 0.73701 0.9773 0.62362 0.0
C1996 C 0.81535 0.98597 0.65007 0.0
C1997 C 0.75667 0.91292 0.69469 0.0
C1998 C 0.75325 0.90489 0.67537 0.0
C1999 C 0.73252 0.99083 0.66433 0.0
C2000 C 0.6979 0.05447 0.6436 0.0
C2001 C 0.68883 0.0577 0.66248 0.0
C2002 C 0.66786 0.06106 0.66333 0.0
C2003 C 0.65612 0.06107 0.64559 0.0
C2004 C 0.68593 0.05526 0.62588 0.0
C2005 C 0.66517 0.05828 0.62693 0.0
C2006 C 0.76183 1.01394 0.69193 0.0
C2007 C 0.71952 0.05005 0.64093 0.0
H2008 H 0.82053 0.94936 0.63228 0.0
H2009 H 0.8752 0.96364 0.60024 0.0
H2010 H 0.84513 1.01001 0.63413 0.0
H2011 H 0.8728 0.99922 0.61152 0.0
H2012 H 0.69785 0.05773 0.6762 0.0
H2013 H 0.63996 0.06383 0.64618 0.0
H2014 H 0.69266 0.05326 0.61109 0.0
H2015 H 0.65613 0.05864 0.61325 0.0
Tb2016 Tb 0.81263 0.02509 0.40009 0.0
C2017 C 0.7394 1.01106 0.3647 0.0
C2018 C 0.72121 0.03659 0.38328 0.0
C2019 C 0.71036 0.02788 0.34933 0.0
C2020 C 0.73681 1.02195 0.38217 0.0
C2021 C 0.72639 1.0141 0.34792 0.0
C2022 C 0.70777 0.03913 0.36699 0.0
C2023 C 0.74669 0.99065 0.32905 0.0
N2024 N 0.75535 0.99829 0.36372 0.0
C2025 C 0.7592 0.98824 0.34597 0.0
C2026 C 0.73011 1.00353 0.33006 0.0
Tb2027 Tb 0.77333 0.99266 0.3933 0.0
N2028 N 0.75043 1.01931 0.39743 0.0
C2029 C 0.74998 0.03257 0.41335 0.0
C2030 C 0.72003 0.04884 0.40035 0.0
C2031 C 0.73476 0.04708 0.41526 0.0
H2032 H 0.77217 0.9785 0.34439 0.0
H2033 H 0.73466 0.05719 0.42814 0.0
H2034 H 0.69568 0.05016 0.3677 0.0
H2035 H 0.75 0.98267 0.31517 0.0
H2036 H 0.76142 0.03299 0.42457 0.0
H2037 H 0.87903 0.99093 0.43404 0.0
H2038 H 0.70839 0.06028 0.40176 0.0
H2039 H 0.78095 0.06145 0.41523 0.0
H2040 H 0.85201 0.99357 0.40862 0.0
H2041 H 0.77932 0.08535 0.4441 0.0
H2042 H 0.70017 0.03031 0.33667 0.0
H2043 H 0.88061 1.01514 0.46247 0.0
H2044 H 0.86576 0.04497 0.48045 0.0
H2045 H 0.72053 1.0055 0.31687 0.0
H2046 H 0.83886 0.07043 0.48325 0.0
N2047 N 0.83777 1.01882 0.42274 0.0
C2048 C 0.85217 1.00412 0.42104 0.0
C2049 C 0.86853 1.01637 0.45141 0.0
C2050 C 0.85379 0.03147 0.45305 0.0
C2051 C 0.86767 1.00263 0.43539 0.0
C2052 C 0.83835 0.0324 0.43832 0.0
H2053 H 0.80627 0.08513 0.47019 0.0
N2054 N 0.80735 0.04675 0.42623 0.0
C2055 C 0.79149 0.07446 0.44319 0.0
C2056 C 0.82305 0.04706 0.43991 0.0
C2057 C 0.79217 0.06071 0.42713 0.0
C2058 C 0.80687 0.07441 0.45781 0.0
C2059 C 0.82294 0.0607 0.45624 0.0
O2060 O 0.81556 0.0555 0.39119 0.0
O2061 O 0.78589 1.01997 0.37922 0.0
O2062 O 0.79856 0.98376 0.3714 0.0
O2063 O 0.82719 1.00073 0.38358 0.0
O2064 O 0.81049 0.03113 0.36648 0.0
O2065 O 0.84173 0.03515 0.39214 0.0
O2066 O 0.77241 0.96577 0.37758 0.0
O2067 O 0.80366 0.99433 0.40356 0.0
O2068 O 0.79735 1.01945 0.43239 0.0
O2069 O 0.76976 0.9981 0.42852 0.0
O2070 O 0.78607 0.97513 0.41868 0.0
O2071 O 0.7488 0.97237 0.39874 0.0
C2072 C 0.79287 0.02488 0.36096 0.0
C2073 C 0.84819 0.06996 0.39849 0.0
C2074 C 0.88076 0.08788 0.40014 0.0
C2075 C 0.86831 0.0725 0.39189 0.0
C2076 C 0.87317 0.09965 0.41613 0.0
C2077 C 0.84053 0.08335 0.41302 0.0
C2078 C 0.85314 0.09753 0.42232 0.0
C2079 C 0.81849 0.98815 0.37048 0.0
C2080 C 0.83539 0.05382 0.38946 0.0
C2081 C 0.83862 0.05999 0.47064 0.0
C2082 C 0.85395 0.04544 0.46905 0.0
C2083 C 0.80462 0.98134 0.41771 0.0
C2084 C 0.75865 0.9378 0.39356 0.0
C2085 C 0.74396 0.92907 0.40602 0.0
C2086 C 0.74578 0.90878 0.4117 0.0
C2087 C 0.76239 0.89724 0.40548 0.0
C2088 C 0.77489 0.92578 0.38662 0.0
C2089 C 0.77694 0.90578 0.39294 0.0
C2090 C 0.78224 1.00859 0.44147 0.0
C2091 C 0.75652 0.95885 0.38661 0.0
H2092 H 0.87381 0.06317 0.37964 0.0
H2093 H 0.88247 0.11113 0.42332 0.0
H2094 H 0.82482 0.08303 0.41722 0.0
H2095 H 0.84719 0.1073 0.43399 0.0
H2096 H 0.73099 0.93781 0.41091 0.0
H2097 H 0.76383 0.88151 0.41002 0.0
H2098 H 0.78596 0.93167 0.37608 0.0
H2099 H 0.78958 0.89678 0.38777 0.0
Tb2100 Tb 0.77166 0.05923 0.14987 0.0
C2101 C 0.78311 0.9926 0.10974 0.0
C2102 C 0.74894 0.98205 0.11824 0.0
C2103 C 0.76308 0.9734 0.08546 0.0
C2104 C 0.76724 0.99182 0.12347 0.0
C2105 C 0.78125 0.98324 0.09068 0.0
C2106 C 0.74695 0.97285 0.09919 0.0
C2107 C 0.81562 0.99368 0.08348 0.0
N2108 N 0.80028 1.00267 0.11504 0.0
C2109 C 0.81672 1.00278 0.10254 0.0
C2110 C 0.79774 0.98403 0.07744 0.0
Tb2111 Tb 0.80035 1.01612 0.1467 0.0
N2112 N 0.76959 1.0011 0.14169 0.0
C2113 C 0.75415 1.00119 0.15536 0.0
C2114 C 0.7331 0.98201 0.13225 0.0
C2115 C 0.73572 0.99165 0.15085 0.0
H2116 H 0.83083 1.00968 0.10725 0.0
H2117 H 0.72349 0.99185 0.16171 0.0
H2118 H 0.73299 0.96528 0.09491 0.0
H2119 H 0.82859 0.99401 0.07353 0.0
H2120 H 0.75568 1.00888 0.16958 0.0
H2121 H 0.79909 0.13236 0.12226 0.0
H2122 H 0.71878 0.97471 0.1288 0.0
H2123 H 0.73657 0.05658 0.18621 0.0
H2124 H 0.78296 0.09876 0.11855 0.0
H2125 H 0.72883 0.07427 0.21818 0.0
H2126 H 0.76134 0.9662 0.07085 0.0
H2127 H 0.805 0.14661 0.15636 0.0
H2128 H 0.79737 0.14472 0.19359 0.0
H2129 H 0.79692 0.97703 0.06265 0.0
H2130 H 0.77723 0.12867 0.22051 0.0
N2131 N 0.78244 0.0927 0.15025 0.0
C2132 C 0.78605 0.10452 0.13352 0.0
C2133 C 0.79848 0.1316 0.15482 0.0
C2134 C 0.7915 0.12093 0.17172 0.0
C2135 C 0.79505 0.12365 0.13555 0.0
C2136 C 0.78326 0.10138 0.16885 0.0
H2137 H 0.75026 0.10305 0.22931 0.0
N2138 N 0.76243 0.07491 0.17957 0.0
C2139 C 0.7414 0.07928 0.20895 0.0
C2140 C 0.77252 0.09218 0.18416 0.0
C2141 C 0.74579 0.06937 0.19082 0.0
C2142 C 0.75365 0.09539 0.21525 0.0
C2143 C 0.76896 0.10253 0.20245 0.0
O2144 O 0.74358 0.04436 0.14341 0.0
O2145 O 0.77762 0.03368 0.12822 0.0
O2146 O 0.81655 0.03763 0.12666 0.0
O2147 O 0.79961 0.06815 0.13389 0.0
O2148 O 0.77191 0.06126 0.1158 0.0
O2149 O 0.74581 0.07659 0.14835 0.0
O2150 O 0.82967 1.00468 0.14743 0.0
O2151 O 0.79522 0.04298 0.1626 0.0
O2152 O 0.77456 0.0447 0.18335 0.0
O2153 O 0.79082 1.01403 0.18111 0.0
O2154 O 0.82484 0.03433 0.16051 0.0
O2155 O 0.80455 0.98571 0.15644 0.0
C2156 C 0.77598 0.04279 0.11008 0.0
C2157 C 0.72068 0.0672 0.12559 0.0
C2158 C 0.70353 0.09395 0.10614 0.0
C2159 C 0.71538 0.08777 0.12267 0.0
C2160 C 0.69623 0.07907 0.09275 0.0
C2161 C 0.71309 0.05262 0.11214 0.0
C2162 C 0.70083 0.05857 0.09588 0.0
C2163 C 0.81432 0.05762 0.125 0.0
C2164 C 0.73407 0.06177 0.14282 0.0
C2165 C 0.77926 0.12077 0.20631 0.0
C2166 C 0.79069 0.12993 0.19095 0.0
C2167 C 0.8131 0.0481 0.16741 0.0
C2168 C 0.83584 0.96999 0.14606 0.0
C2169 C 0.85514 0.96678 0.15438 0.0
C2170 C 0.86882 0.95303 0.14567 0.0
C2171 C 0.8623 0.94177 0.12877 0.0
C2172 C 0.82959 0.95867 0.12927 0.0
C2173 C 0.84278 0.94448 0.12079 0.0
C2174 C 0.78167 0.02784 0.19337 0.0
C2175 C 0.82416 0.98704 0.15416 0.0
H2176 H 0.72109 0.09923 0.13295 0.0
H2177 H 0.68694 0.08327 0.0799 0.0
H2178 H 0.71669 0.03673 0.11411 0.0
H2179 H 0.69504 0.04726 0.0855 0.0
H2180 H 0.85953 0.97543 0.16761 0.0
H2181 H 0.87233 0.93116 0.12144 0.0
H2182 H 0.81482 0.96103 0.12254 0.0
H2183 H 0.83802 0.93585 0.1077 0.0
Tb2184 Tb 0.73753 1.0224 0.90012 0.0
C2185 C 0.81158 0.04066 0.868 0.0
C2186 C 0.8296 1.01522 0.88701 0.0
C2187 C 0.84292 0.0267 0.85479 0.0
C2188 C 0.81351 0.02918 0.88517 0.0
C2189 C 0.82587 0.03911 0.85224 0.0
C2190 C 0.84478 1.01473 0.87219 0.0
C2191 C 0.80398 0.05977 0.83162 0.0
N2192 N 0.79444 0.05162 0.86586 0.0
C2193 C 0.79015 0.06055 0.84759 0.0
C2194 C 0.8221 0.04927 0.83406 0.0
Tb2195 Tb 0.77517 0.05615 0.89462 0.0
N2196 N 0.79801 0.02962 0.89857 0.0
C2197 C 0.79629 1.01402 0.91213 0.0
C2198 C 0.82909 1.00115 0.90279 0.0
C2199 C 0.81197 1.0001 0.91498 0.0
H2200 H 0.77611 0.06858 0.84522 0.0
H2201 H 0.81056 0.98824 0.92623 0.0
H2202 H 0.8574 1.00435 0.87352 0.0
H2203 H 0.80054 0.06714 0.81739 0.0
H2204 H 0.78275 1.01159 0.92041 0.0
H2205 H 0.66711 0.0624 0.91755 0.0
H2206 H 0.84105 0.99011 0.90472 0.0
H2207 H 0.76198 0.98473 0.92491 0.0
H2208 H 0.69668 0.05588 0.89764 0.0
H2209 H 0.75612 0.96406 0.95527 0.0
H2210 H 0.85421 0.02551 0.843 0.0
H2211 H 0.66027 0.04281 0.94853 0.0
H2212 H 0.67048 1.01577 0.97253 0.0
H2213 H 0.83265 0.04843 0.82158 0.0
H2214 H 0.69436 0.98929 0.98273 0.0
N2215 N 0.7081 0.03167 0.91649 0.0
C2216 C 0.69464 0.04648 0.91074 0.0
C2217 C 0.67369 0.03956 0.93974 0.0
C2218 C 0.68725 0.02453 0.94577 0.0
C2219 C 0.67746 0.05059 0.92223 0.0
C2220 C 0.70467 1.02092 0.93391 0.0
H2221 H 0.72612 0.97013 0.97654 0.0
N2222 N 0.73595 1.00343 0.92928 0.0
C2223 C 0.74558 0.97596 0.95129 0.0
C2224 C 0.71854 1.0061 0.9401 0.0
C2225 C 0.7489 0.98784 0.93412 0.0
C2226 C 0.72857 0.97936 0.96319 0.0
C2227 C 0.71474 0.99439 0.95762 0.0
O2228 O 0.7453 0.99217 0.89256 0.0
O2229 O 0.7637 0.02867 0.87879 0.0
O2230 O 0.74957 0.06614 0.87338 0.0
O2231 O 0.72273 0.04386 0.88015 0.0
O2232 O 0.73745 1.01916 0.86634 0.0
O2233 O 0.71347 1.00356 0.89339 0.0
O2234 O 0.7785 0.08303 0.87866 0.0
O2235 O 0.74484 0.05332 0.90434 0.0
O2236 O 0.75221 0.02735 0.93263 0.0
O2237 O 0.77983 0.04855 0.92938 0.0
O2238 O 0.76175 0.0721 0.92063 0.0
O2239 O 0.79726 0.07782 0.9044 0.0
C2240 C 0.75537 0.02472 0.86056 0.0
C2241 C 0.71737 0.96826 0.88505 0.0
C2242 C 0.68764 0.94824 0.87584 0.0
C2243 C 0.69682 0.96694 0.87993 0.0
C2244 C 0.69927 0.93051 0.8771 0.0
C2245 C 0.72897 0.95053 0.88599 0.0
C2246 C 0.71989 0.93172 0.88204 0.0
C2247 C 0.73048 0.05949 0.87003 0.0
C2248 C 0.72574 0.98811 0.89078 0.0
C2249 C 0.69738 0.99804 0.96918 0.0
C2250 C 0.68377 1.01311 0.96335 0.0
C2251 C 0.74354 0.06523 0.91929 0.0
C2252 C 0.78517 0.11169 0.89804 0.0
C2253 C 0.79859 0.12421 0.90895 0.0
C2254 C 0.79293 0.14421 0.91408 0.0
C2255 C 0.77366 0.1513 0.9084 0.0
C2256 C 0.76614 0.11952 0.89231 0.0
C2257 C 0.76038 0.13898 0.89769 0.0
C2258 C 0.76754 0.03757 0.942 0.0
C2259 C 0.79116 0.09115 0.89116 0.0
H2260 H 0.68768 0.98055 0.87947 0.0
H2261 H 0.69253 0.91585 0.87398 0.0
H2262 H 0.74484 0.95116 0.89015 0.0
H2263 H 0.72883 0.91803 0.88292 0.0
H2264 H 0.81336 0.11848 0.91321 0.0
H2265 H 0.76899 0.16666 0.91166 0.0
H2266 H 0.75574 0.11085 0.88313 0.0
H2267 H 0.74572 0.14471 0.8931 0.0
Tb2268 Tb 0.6478 0.73328 0.0258 0.0
C2269 C 0.68711 0.80114 1.00302 0.0
C2270 C 0.6778 0.81761 0.03434 0.0
C2271 C 0.70837 0.82808 1.01667 0.0
C2272 C 0.6737 0.80347 1.0189 0.0
C2273 C 0.70456 0.81349 1.00167 0.0
C2274 C 0.69509 0.83002 0.03305 0.0
C2275 C 0.71363 0.79545 0.9713 0.0
N2276 N 0.68313 0.78665 0.98901 0.0
C2277 C 0.69601 0.78376 0.97313 0.0
C2278 C 0.7179 0.81045 0.98557 0.0
Tb2279 Tb 0.65191 0.77199 0.99143 0.0
N2280 N 0.65695 0.79146 1.01946 0.0
C2281 C 0.64412 0.79219 0.03558 0.0
C2282 C 0.66448 0.81869 0.05071 0.0
C2283 C 0.64769 0.80576 0.05143 0.0
H2284 H 0.69248 0.77294 0.9614 0.0
H2285 H 0.63747 0.80627 0.06418 0.0
H2286 H 0.69841 0.84107 0.0447 0.0
H2287 H 0.72374 0.79313 0.95867 0.0
H2288 H 0.63127 0.78221 0.03655 0.0
H2289 H 0.67664 0.65736 1.0109 0.0
H2290 H 0.66714 0.82926 0.06296 0.0
H2291 H 0.60893 0.73924 0.05821 0.0
H2292 H 0.67949 0.6928 1.0225 0.0
H2293 H 0.57546 0.72336 0.06405 0.0
H2294 H 0.72171 0.83766 1.01594 0.0
H2295 H 0.6429 0.64241 1.00394 0.0
H2296 H 0.60505 0.64527 1.00764 0.0
H2297 H 0.73152 0.81953 0.98405 0.0
H2298 H 0.57654 0.6638 1.02263 0.0
N2299 N 0.64786 0.6987 1.01968 0.0
C2300 C 0.66471 0.68659 1.01912 0.0
C2301 C 0.6441 0.6581 1.0086 0.0
C2302 C 0.62678 0.66952 1.01258 0.0
C2303 C 0.66316 0.66645 1.01263 0.0
C2304 C 0.62924 0.68992 1.01846 0.0
H2305 H 0.56556 0.69267 0.04489 0.0
N2306 N 0.61719 0.71865 0.03479 0.0
C2307 C 0.58575 0.71691 0.05312 0.0
C2308 C 0.61314 0.7004 0.02641 0.0
C2309 C 0.60472 0.72578 0.04983 0.0
C2310 C 0.58017 0.69969 0.04216 0.0
C2311 C 0.59432 0.69066 0.02933 0.0
O2312 O 0.65443 0.75019 0.05271 0.0
O2313 O 0.66999 0.75823 1.01714 0.0
O2314 O 0.67156 0.74787 0.97847 0.0
O2315 O 0.6639 0.72043 0.99998 0.0
O2316 O 0.68178 0.73132 0.02604 0.0
O2317 O 0.64748 0.71816 0.05309 0.0
O2318 O 0.65358 0.78097 0.96103 0.0
O2319 O 0.63526 0.74585 0.99966 0.0
O2320 O 0.61513 0.7485 1.02096 0.0
O2321 O 0.61805 0.77688 1.0012 0.0
O2322 O 0.63794 0.75112 0.96942 0.0
O2323 O 0.63875 0.79993 0.98291 0.0
C2324 C 0.68802 0.74914 1.02004 0.0
C2325 C 0.66799 0.72876 0.07988 0.0
C2326 C 0.68516 0.70173 0.09952 0.0
C2327 C 0.6767 0.70913 0.0812 0.0
C2328 C 0.68589 0.71527 0.11606 0.0
C2329 C 0.66954 0.74173 0.09649 0.0
C2330 C 0.67866 0.73508 0.11433 0.0
C2331 C 0.6729 0.72838 0.98382 0.0
C2332 C 0.65313 0.73367 0.0637 0.0
C2333 C 0.59108 0.67132 1.02109 0.0
C2334 C 0.60734 0.66075 1.01261 0.0
C2335 C 0.63038 0.7388 0.98242 0.0
C2336 C 0.65061 0.81545 0.95229 0.0
C2337 C 0.64121 0.81969 0.93362 0.0
C2338 C 0.6482 0.83563 0.92115 0.0
C2339 C 0.66514 0.84696 0.92772 0.0
C2340 C 0.66683 0.82752 0.95879 0.0
C2341 C 0.67418 0.84304 0.94645 0.0
C2342 C 0.6056 0.76472 1.01218 0.0
C2343 C 0.64368 0.79768 0.96394 0.0
H2344 H 0.67593 0.69943 0.06809 0.0
H2345 H 0.69143 0.71066 0.13073 0.0
H2346 H 0.66269 0.75662 0.09604 0.0
H2347 H 0.67926 0.74507 0.1273 0.0
H2348 H 0.62824 0.81067 0.92906 0.0
H2349 H 0.67149 0.85892 0.91845 0.0
H2350 H 0.6739 0.82495 0.97325 0.0
H2351 H 0.68698 0.85208 0.95141 0.0
Tb2352 Tb 0.06188 0.14501 0.77261 0.0
C2353 C 0.99275 0.1059 0.78554 0.0
C2354 C 0.98295 0.11312 0.7509 0.0
C2355 C 0.97255 0.08144 0.76673 0.0
C2356 C 0.99277 0.11885 0.76896 0.0
C2357 C 0.98243 0.08717 0.78468 0.0
C2358 C 0.97285 0.09436 0.74987 0.0
C2359 C 0.9919 0.08142 0.81954 0.0
N2360 N 1.00291 0.11164 0.80248 0.0
C2361 C 1.00198 0.1001 0.81966 0.0
C2362 C 0.98226 0.07482 0.80191 0.0
Tb2363 Tb 1.01798 0.14271 0.80084 0.0
N2364 N 1.00292 0.1368 0.77038 0.0
C2365 C 1.00391 0.14966 0.75423 0.0
C2366 C 0.98376 0.12633 0.73433 0.0
C2367 C 0.99433 0.14464 0.736 0.0
H2368 H 1.00891 0.10528 0.83356 0.0
H2369 H 0.99521 0.15485 0.7232 0.0
H2370 H 0.96523 0.08968 0.73611 0.0
H2371 H 0.99145 0.0722 0.83309 0.0
H2372 H 1.01235 0.16361 0.7551 0.0
H2373 H 0.13379 0.11963 0.80463 0.0
H2374 H 0.97644 0.12247 0.72016 0.0
H2375 H 0.06023 0.18098 0.73675 0.0
H2376 H 0.10107 0.11479 0.78717 0.0
H2377 H 0.07686 0.21392 0.73005 0.0
H2378 H 0.96463 0.06706 0.76574 0.0
H2379 H 0.14735 0.15423 0.81001 0.0
H2380 H 0.14523 0.19132 0.80131 0.0
H2381 H 0.97449 0.06032 0.80186 0.0
H2382 H 0.12954 0.21767 0.78011 0.0
N2383 N 0.09465 0.14643 0.78525 0.0
C2384 C 0.10644 0.13001 0.79007 0.0
C2385 C 0.13269 0.15221 0.80286 0.0
C2386 C 0.12216 0.16873 0.79484 0.0
C2387 C 0.12512 0.13266 0.79978 0.0
C2388 C 0.1031 0.16523 0.78576 0.0
H2389 H 0.10454 0.22588 0.75242 0.0
N2390 N 0.07758 0.17489 0.76336 0.0
C2391 C 0.08174 0.2047 0.7427 0.0
C2392 C 0.09422 0.1801 0.77416 0.0
C2393 C 0.0725 0.18595 0.74644 0.0
C2394 C 0.09725 0.21146 0.75546 0.0
C2395 C 0.10424 0.19874 0.77092 0.0
O2396 O 0.04982 0.14249 0.74225 0.0
O2397 O 0.03473 0.12487 0.77748 0.0
O2398 O 0.03795 0.12096 0.81633 0.0
O2399 O 0.06892 0.12738 0.79991 0.0
O2400 O 0.06134 0.11092 0.77173 0.0
O2401 O 0.08185 0.13764 0.75034 0.0
O2402 O 1.00658 0.14524 0.83001 0.0
O2403 O 0.04599 0.15765 0.79657 0.0
O2404 O 0.04796 0.17844 0.77511 0.0
O2405 O 1.01657 0.17646 0.79009 0.0
O2406 O 0.03657 0.15548 0.82572 0.0
O2407 O 0.98799 0.15363 0.80437 0.0
C2408 C 0.04255 0.10629 0.7754 0.0
C2409 C 0.0749 0.13266 0.71542 0.0
C2410 C 0.10323 0.12269 0.69341 0.0
C2411 C 0.09447 0.12451 0.71272 0.0
C2412 C 0.09129 0.12816 0.67654 0.0
C2413 C 0.06332 0.13766 0.69841 0.0
C2414 C 0.07147 0.13524 0.67906 0.0
C2415 C 0.05775 0.11834 0.81404 0.0
C2416 C 0.0682 0.13785 0.73611 0.0
C2417 C 0.1219 0.20322 0.78194 0.0
C2418 C 0.13084 0.1882 0.794 0.0
C2419 C 0.0509 0.16233 0.81454 0.0
C2420 C 0.97184 0.14521 0.83605 0.0
C2421 C 0.96936 0.15422 0.85503 0.0
C2422 C 0.954 0.14791 0.86831 0.0
C2423 C 0.94126 0.13185 0.86237 0.0
C2424 C 0.95894 0.12936 0.83018 0.0
C2425 C 0.94373 0.12269 0.84339 0.0
C2426 C 0.03091 0.18839 0.7814 0.0
C2427 C 0.9892 0.15216 0.82405 0.0
H2428 H 0.10302 0.11985 0.72589 0.0
H2429 H 0.09727 0.12745 0.66136 0.0
H2430 H 0.04831 0.14401 0.70006 0.0
H2431 H 0.06258 0.13944 0.66594 0.0
H2432 H 0.97982 0.16609 0.85961 0.0
H2433 H 0.9292 0.12663 0.87217 0.0
H2434 H 0.96077 0.12205 0.81566 0.0
H2435 H 0.93381 0.11039 0.83891 0.0
Tb2436 Tb 0.89532 0.30955 0.52343 0.0
C2437 C 0.85518 0.24177 0.51061 0.0
C2438 C 0.86375 0.23079 0.54459 0.0
C2439 C 0.8313 0.22128 0.5298 0.0
C2440 C 0.86885 0.24104 0.52659 0.0
C2441 C 0.83631 0.23178 0.512 0.0
C2442 C 0.84496 0.22082 0.54607 0.0
C2443 C 0.82881 0.24322 0.47806 0.0
N2444 N 0.86023 0.25257 0.49385 0.0
C2445 C 0.84765 0.25296 0.47741 0.0
C2446 C 0.82304 0.23272 0.49548 0.0
Tb2447 Tb 0.89171 0.26667 0.49435 0.0
N2448 N 0.88678 0.25113 0.52476 0.0
C2449 C 0.90008 0.25193 0.54058 0.0
C2450 C 0.87753 0.23119 0.56071 0.0
C2451 C 0.8957 0.24191 0.55873 0.0
H2452 H 0.85214 0.26061 0.46367 0.0
H2453 H 0.90629 0.2426 0.57124 0.0
H2454 H 0.84079 0.21284 0.55978 0.0
H2455 H 0.81879 0.24374 0.46508 0.0
H2456 H 0.91388 0.26053 0.53958 0.0
H2457 H 0.89097 0.3851 0.48933 0.0
H2458 H 0.87415 0.22355 0.57483 0.0
H2459 H 0.9245 0.29423 0.56233 0.0
H2460 H 0.87652 0.35326 0.50151 0.0
H2461 H 0.95631 0.30523 0.57854 0.0
H2462 H 0.81686 0.21356 0.53118 0.0
H2463 H 0.92631 0.39425 0.49767 0.0
H2464 H 0.95758 0.38682 0.51764 0.0
H2465 H 0.8084 0.22524 0.49596 0.0
H2466 H 0.97511 0.36549 0.54258 0.0
N2467 N 0.90447 0.34205 0.51379 0.0
C2468 C 0.89242 0.35603 0.50418 0.0
C2469 C 0.92029 0.37973 0.50248 0.0
C2470 C 0.93166 0.36676 0.51474 0.0
C2471 C 0.90038 0.37458 0.49768 0.0
C2472 C 0.9232 0.34788 0.52045 0.0
H2473 H 0.97444 0.3355 0.56581 0.0
N2474 N 0.92466 0.31794 0.54023 0.0
C2475 C 0.95014 0.31382 0.56601 0.0
C2476 C 0.9334 0.33566 0.5343 0.0
C2477 C 0.93198 0.30779 0.55692 0.0
C2478 C 0.96034 0.33088 0.55874 0.0
C2479 C 0.95182 0.34227 0.54302 0.0
O2480 O 0.88843 0.29895 0.5534 0.0
O2481 O 0.87411 0.28305 0.51823 0.0
O2482 O 0.87102 0.28893 0.47913 0.0
O2483 O 0.88014 0.31924 0.49564 0.0
O2484 O 0.86127 0.31065 0.52204 0.0
O2485 O 0.88672 0.33118 0.54383 0.0
O2486 O 0.89181 0.25563 0.46487 0.0
O2487 O 0.9076 0.29372 0.49926 0.0
O2488 O 0.92867 0.29526 0.52048 0.0
O2489 O 0.92595 0.26438 0.50447 0.0
O2490 O 0.90552 0.28461 0.46998 0.0
O2491 O 0.9021 0.23663 0.48944 0.0
C2492 C 0.85591 0.29189 0.51917 0.0
C2493 C 0.87827 0.32548 0.57849 0.0
C2494 C 0.86913 0.35478 0.59966 0.0
C2495 C 0.87199 0.34584 0.58051 0.0
C2496 C 0.87202 0.34239 0.61686 0.0
C2497 C 0.88051 0.31352 0.59582 0.0
C2498 C 0.87729 0.32196 0.61489 0.0
C2499 C 0.87019 0.30909 0.48134 0.0
C2500 C 0.88477 0.31797 0.55848 0.0
C2501 C 0.96078 0.36039 0.53634 0.0
C2502 C 0.95079 0.37253 0.52213 0.0
C2503 C 0.91294 0.29845 0.48145 0.0
C2504 C 0.89174 0.22095 0.45798 0.0
C2505 C 0.8999 0.21844 0.43857 0.0
C2506 C 0.89171 0.20431 0.42481 0.0
C2507 C 0.87554 0.19198 0.43138 0.0
C2508 C 0.87563 0.20862 0.46422 0.0
C2509 C 0.86771 0.19406 0.45097 0.0
C2510 C 0.93834 0.27823 0.51357 0.0
C2511 C 0.8993 0.23819 0.46993 0.0
H2512 H 0.86955 0.35476 0.56699 0.0
H2513 H 0.87065 0.34841 0.63199 0.0
H2514 H 0.88543 0.29793 0.59469 0.0
H2515 H 0.87945 0.31275 0.62829 0.0
H2516 H 0.91262 0.22789 0.43418 0.0
H2517 H 0.86861 0.18102 0.42133 0.0
H2518 H 0.86901 0.21045 0.47906 0.0
H2519 H 0.85517 0.1846 0.45575 0.0
Tb2520 Tb 0.5179 0.90074 0.80523 0.0
C2521 C 0.59141 0.86452 0.7713 0.0
C2522 C 0.6204 0.87202 0.79249 0.0
C2523 C 0.61863 0.84 0.77454 0.0
C2524 C 0.60124 0.87738 0.78463 0.0
C2525 C 0.60072 0.84637 0.76503 0.0
C2526 C 0.6284 0.85277 0.7884 0.0
C2527 C 0.5765 0.84449 0.73765 0.0
N2528 N 0.57427 0.87126 0.76224 0.0
C2529 C 0.56769 0.8624 0.74456 0.0
C2530 C 0.59269 0.83607 0.74833 0.0
Tb2531 Tb 0.56078 0.90046 0.77546 0.0
N2532 N 0.59351 0.89626 0.78736 0.0
C2533 C 0.60602 0.91137 0.79441 0.0
C2534 C 0.63172 0.88675 0.80272 0.0
C2535 C 0.62482 0.9067 0.80302 0.0
H2536 H 0.55481 0.8685 0.7365 0.0
H2537 H 0.6341 0.91855 0.80959 0.0
H2538 H 0.64288 0.84824 0.79467 0.0
H2539 H 0.57066 0.83709 0.72425 0.0
H2540 H 0.60142 0.92707 0.79388 0.0
H2541 H 0.49425 0.8887 0.72783 0.0
H2542 H 0.64646 0.88324 0.80903 0.0
H2543 H 0.50827 0.93734 0.83836 0.0
H2544 H 0.51253 0.88049 0.75919 0.0
H2545 H 0.48907 0.96929 0.83875 0.0
H2546 H 0.62571 0.82584 0.77034 0.0
H2547 H 0.47379 0.91995 0.72563 0.0
H2548 H 0.46137 0.95179 0.74222 0.0
H2549 H 0.59951 0.82219 0.74295 0.0
H2550 H 0.46042 0.97392 0.77211 0.0
N2551 N 0.5021 0.90641 0.77507 0.0
C2552 C 0.5034 0.89391 0.75872 0.0
C2553 C 0.48165 0.91632 0.73957 0.0
C2554 C 0.48062 0.92923 0.75629 0.0
C2555 C 0.49316 0.89864 0.74077 0.0
C2556 C 0.49117 0.92382 0.77404 0.0
H2557 H 0.47079 0.98065 0.80808 0.0
N2558 N 0.50178 0.9311 0.80738 0.0
C2559 C 0.48967 0.96033 0.82508 0.0
C2560 C 0.49102 0.93654 0.79073 0.0
C2561 C 0.50072 0.94231 0.8247 0.0
C2562 C 0.47932 0.96666 0.80775 0.0
C2563 C 0.47975 0.95464 0.79034 0.0
O2564 O 0.5072 0.89777 0.83478 0.0
O2565 O 0.54592 0.88658 0.79948 0.0
O2566 O 0.54696 0.8665 0.77696 0.0
O2567 O 0.51684 0.86703 0.79446 0.0
O2568 O 0.53789 0.88811 0.82907 0.0
O2569 O 0.48867 0.88805 0.80972 0.0
O2570 O 0.55001 0.90552 0.74496 0.0
O2571 O 0.53361 0.92008 0.78175 0.0
O2572 O 0.53762 0.92272 0.82067 0.0
O2573 O 0.56818 0.91761 0.8031 0.0
O2574 O 0.55991 0.93446 0.77526 0.0
O2575 O 0.58182 0.90961 0.75479 0.0
C2576 C 0.55168 0.88166 0.8171 0.0
C2577 C 0.47246 0.89647 0.8412 0.0
C2578 C 0.45406 0.89472 0.87344 0.0
C2579 C 0.46911 0.88742 0.86022 0.0
C2580 C 0.44241 0.91143 0.86699 0.0
C2581 C 0.46024 0.9126 0.83495 0.0
C2582 C 0.44536 0.92007 0.84787 0.0
C2583 C 0.53065 0.85575 0.78439 0.0
C2584 C 0.49005 0.88977 0.82936 0.0
C2585 C 0.46911 0.96003 0.77272 0.0
C2586 C 0.46959 0.94739 0.75573 0.0
C2587 C 0.54133 0.93892 0.77975 0.0
C2588 C 0.57664 0.91653 0.71983 0.0
C2589 C 0.59732 0.92201 0.71779 0.0
C2590 C 0.60577 0.92662 0.69881 0.0
C2591 C 0.5931 0.9258 0.68169 0.0
C2592 C 0.56434 0.91603 0.70255 0.0
C2593 C 0.57258 0.92066 0.6836 0.0
C2594 C 0.55723 0.92605 0.81777 0.0
C2595 C 0.56879 0.9104 0.73996 0.0
H2596 H 0.47837 0.87462 0.8646 0.0
H2597 H 0.43109 0.91805 0.87672 0.0
H2598 H 0.46241 0.91965 0.82033 0.0
H2599 H 0.4362 0.93282 0.84315 0.0
H2600 H 0.6071 0.92226 0.73097 0.0
H2601 H 0.59899 0.92941 0.66684 0.0
H2602 H 0.54851 0.91181 0.70365 0.0
H2603 H 0.56302 0.92017 0.67029 0.0
Tb2604 Tb 0.9945 0.15473 0.26703 0.0
C2605 C 0.03117 0.11528 0.34028 0.0
C2606 C 1.01186 0.11871 0.37115 0.0
C2607 C 0.03366 0.08954 0.36659 0.0
C2608 C 1.01739 0.12598 0.35182 0.0
C2609 C 0.04002 0.09735 0.3479 0.0
C2610 C 1.01951 0.10014 0.37814 0.0
C2611 C 0.06215 0.09706 0.31894 0.0
N2612 N 0.03681 0.12305 0.32213 0.0
C2613 C 0.05285 0.11469 0.31189 0.0
C2614 C 0.05549 0.08815 0.33686 0.0
Tb2615 Tb 1.02005 0.152 0.31212 0.0
N2616 N 1.01057 0.14414 0.34479 0.0
C2617 C 1.00069 0.15688 0.35777 0.0
C2618 C 0.99953 0.13074 0.38331 0.0
C2619 C 0.99437 0.15013 0.37679 0.0
H2620 H 0.0577 0.12094 0.29759 0.0
H2621 H 0.98592 0.16009 0.3866 0.0
H2622 H 1.01522 0.09425 0.39283 0.0
H2623 H 0.07432 0.09025 0.31043 0.0
H2624 H 0.99784 0.17245 0.35385 0.0
H2625 H 0.06989 0.12876 0.24619 0.0
H2626 H 0.99488 0.12566 0.39819 0.0
H2627 H 0.97476 0.20182 0.26403 0.0
H2628 H 0.03926 0.12851 0.26645 0.0
H2629 H 0.98131 0.23278 0.24439 0.0
H2630 H 0.04004 0.07563 0.37252 0.0
H2631 H 0.07589 0.1562 0.22145 0.0
H2632 H 0.06503 0.18939 0.20676 0.0
H2633 H 0.06268 0.07443 0.34227 0.0
H2634 H 0.04126 0.21794 0.20669 0.0
N2635 N 0.02594 0.15423 0.25207 0.0
C2636 C 0.04065 0.13999 0.25512 0.0
C2637 C 0.06192 0.1559 0.23002 0.0
C2638 C 0.04778 0.17149 0.22824 0.0
C2639 C 0.05855 0.14035 0.2439 0.0
C2640 C 0.02984 0.1704 0.23979 0.0
H2641 H 1.01038 0.23441 0.22099 0.0
N2642 N 1.00024 0.18581 0.25231 0.0
C2643 C 0.99132 0.21992 0.24297 0.0
C2644 C 1.01661 0.18669 0.23995 0.0
C2645 C 0.98786 0.20237 0.25434 0.0
C2646 C 1.00769 0.22075 0.22971 0.0
C2647 C 1.02073 0.20415 0.22826 0.0
O2648 O 0.9769 0.16597 0.24294 0.0
O2649 O 0.99642 0.13993 0.29494 0.0
O2650 O 1.01647 0.11796 0.29885 0.0
O2651 O 1.00412 0.1204 0.26613 0.0
O2652 O 0.96809 0.14326 0.28358 0.0
O2653 O 0.97845 0.13437 0.24775 0.0
O2654 O 0.05031 0.15702 0.30196 0.0
O2655 O 1.01683 0.17303 0.28525 0.0
O2656 O 0.97658 0.17447 0.2882 0.0
O2657 O 0.99137 0.16712 0.31986 0.0
O2658 O 1.01671 0.18566 0.31342 0.0
O2659 O 0.03963 0.16648 0.33165 0.0
C2660 C 0.97807 0.13493 0.29811 0.0
C2661 C 0.94584 0.14897 0.24286 0.0
C2662 C 0.91202 0.13443 0.23861 0.0
C2663 C 0.93284 0.13468 0.23371 0.0
C2664 C 0.90441 0.14841 0.25259 0.0
C2665 C 0.93754 0.16323 0.25637 0.0
C2666 C 0.91709 0.16279 0.26129 0.0
C2667 C 1.01096 0.10804 0.28128 0.0
C2668 C 0.96809 0.14892 0.23952 0.0
C2669 C 0.03795 0.20474 0.2159 0.0
C2670 C 0.05146 0.18846 0.2159 0.0
C2671 C 1.01623 0.19116 0.29453 0.0
C2672 C 0.07409 0.15945 0.33053 0.0
C2673 C 0.07747 0.1676 0.35004 0.0
C2674 C 0.09426 0.16184 0.36197 0.0
C2675 C 0.10794 0.14782 0.35361 0.0
C2676 C 0.08857 0.14644 0.32231 0.0
C2677 C 0.10525 0.1405 0.33392 0.0
C2678 C 0.97743 0.17629 0.3084 0.0
C2679 C 0.0552 0.16504 0.31962 0.0
H2680 H 0.93885 0.12376 0.22311 0.0
H2681 H 0.88846 0.14854 0.25641 0.0
H2682 H 0.94689 0.17469 0.26344 0.0
H2683 H 0.91104 0.17372 0.27184 0.0
H2684 H 0.06693 0.17869 0.35577 0.0
H2685 H 0.12078 0.14235 0.3622 0.0
H2686 H 0.08694 0.14067 0.30709 0.0
H2687 H 0.11613 0.13002 0.32767 0.0
Tb2688 Tb 0.51633 0.14064 0.74626 0.0
C2689 C 0.58393 0.185 0.77981 0.0
C2690 C 0.61486 0.17617 0.76254 0.0
C2691 C 0.60935 0.21091 0.77325 0.0
C2692 C 0.59561 0.17069 0.77003 0.0
C2693 C 0.59139 0.20484 0.78283 0.0
C2694 C 0.62105 0.19658 0.76299 0.0
C2695 C 0.5659 0.2094 0.8085 0.0
N2696 N 0.56689 0.17851 0.7892 0.0
C2697 C 0.55913 0.18962 0.80502 0.0
C2698 C 0.58158 0.21735 0.79676 0.0
Tb2699 Tb 0.55588 0.14659 0.78004 0.0
N2700 N 0.58949 0.15094 0.77078 0.0
C2701 C 0.60366 0.13599 0.76816 0.0
C2702 C 0.62801 0.16081 0.75647 0.0
C2703 C 0.62268 0.14062 0.76003 0.0
H2704 H 0.54656 0.18374 0.81373 0.0
H2705 H 0.6333 0.12864 0.75676 0.0
H2706 H 0.63557 0.20114 0.75684 0.0
H2707 H 0.55891 0.21854 0.8201 0.0
H2708 H 0.60008 0.12034 0.77153 0.0
H2709 H 0.48254 0.16769 0.81623 0.0
H2710 H 0.64288 0.16438 0.75054 0.0
H2711 H 0.51543 0.09371 0.72597 0.0
H2712 H 0.50784 0.16734 0.78973 0.0
H2713 H 0.49542 0.06254 0.72995 0.0
H2714 H 0.61504 0.22624 0.7749 0.0
H2715 H 0.45725 0.14013 0.81852 0.0
H2716 H 0.4449 0.1065 0.80614 0.0
H2717 H 0.58689 0.23265 0.79957 0.0
H2718 H 0.44904 0.07748 0.78333 0.0
N2719 N 0.49599 0.14135 0.77456 0.0
C2720 C 0.49641 0.15591 0.78926 0.0
C2721 C 0.46807 0.14024 0.80623 0.0
C2722 C 0.46883 0.12433 0.79237 0.0
C2723 C 0.48225 0.15584 0.80493 0.0
C2724 C 0.48325 0.1252 0.77663 0.0
H2725 H 0.46821 0.06075 0.75544 0.0
N2726 N 0.50039 0.10965 0.74967 0.0
C2727 C 0.49252 0.0754 0.73963 0.0
C2728 C 0.48566 0.10877 0.76391 0.0
C2729 C 0.50411 0.09308 0.73771 0.0
C2730 C 0.47714 0.07448 0.75397 0.0
C2731 C 0.47359 0.09121 0.76639 0.0
O2732 O 0.49725 0.1291 0.72351 0.0
O2733 O 0.54324 0.15711 0.75293 0.0
O2734 O 0.54037 0.17857 0.77377 0.0
O2735 O 0.51247 0.17525 0.75326 0.0
O2736 O 0.53919 0.1488 0.72345 0.0
O2737 O 0.49985 0.16078 0.72714 0.0
O2738 O 0.5417 0.14186 0.80896 0.0
O2739 O 0.53066 0.12473 0.77259 0.0
O2740 O 0.53993 0.11938 0.73526 0.0
O2741 O 0.5678 0.12671 0.75655 0.0
O2742 O 0.55606 0.11257 0.78437 0.0
O2743 O 0.57402 0.14757 0.80507 0.0
C2744 C 0.55076 0.15895 0.73538 0.0
C2745 C 0.49984 0.14764 0.6935 0.0
C2746 C 0.49483 0.16002 0.65888 0.0
C2747 C 0.48875 0.15924 0.67939 0.0
C2748 C 0.51214 0.14935 0.65283 0.0
C2749 C 0.51661 0.13644 0.68666 0.0
C2750 C 0.52286 0.13759 0.66662 0.0
C2751 C 0.52483 0.18791 0.76385 0.0
C2752 C 0.4939 0.14636 0.71515 0.0
C2753 C 0.45858 0.09074 0.78136 0.0
C2754 C 0.45618 0.10728 0.7943 0.0
C2755 C 0.53837 0.10656 0.77774 0.0
C2756 C 0.56622 0.13118 0.83518 0.0
C2757 C 0.58513 0.12124 0.83426 0.0
C2758 C 0.59632 0.11721 0.85191 0.0
C2759 C 0.5876 0.1214 0.87077 0.0
C2760 C 0.5576 0.13479 0.85417 0.0
C2761 C 0.56812 0.12963 0.87185 0.0
C2762 C 0.55903 0.11667 0.74144 0.0
C2763 C 0.55953 0.14364 0.81779 0.0
H2764 H 0.4755 0.16751 0.68428 0.0
H2765 H 0.51703 0.14955 0.6372 0.0
H2766 H 0.52489 0.12654 0.69675 0.0
H2767 H 0.53589 0.12903 0.66168 0.0
H2768 H 0.59223 0.11867 0.81973 0.0
H2769 H 0.5959 0.11846 0.88461 0.0
H2770 H 0.54342 0.14291 0.85537 0.0
H2771 H 0.56159 0.13299 0.88645 0.0
Tb2772 Tb 0.14965 0.26897 0.99556 0.0
C2773 C 0.11639 0.3471 1.0182 0.0
C2774 C 0.13634 0.37461 1.0048 0.0
C2775 C 0.09972 0.37761 1.00612 0.0
C2776 C 0.13484 0.35478 1.01265 0.0
C2777 C 0.0988 0.35909 1.01657 0.0
C2778 C 0.11858 0.38539 1.00017 0.0
C2779 C 0.08304 0.33728 0.04119 0.0
N2780 N 0.11658 0.32975 0.02903 0.0
C2781 C 0.10101 0.32618 0.04238 0.0
C2782 C 0.08159 0.35328 0.02745 0.0
Tb2783 Tb 0.14595 0.3105 0.02711 0.0
N2784 N 0.15144 0.34417 1.01844 0.0
C2785 C 0.16957 0.35421 1.02046 0.0
C2786 C 0.15549 0.38363 1.00371 0.0
C2787 C 0.17206 0.37368 1.01231 0.0
H2788 H 0.10214 0.31404 0.05338 0.0
H2789 H 0.18672 0.38106 1.01285 0.0
H2790 H 0.11937 0.40043 0.9936 0.0
H2791 H 0.07044 0.33361 0.05099 0.0
H2792 H 0.18238 0.34684 0.0274 0.0
H2793 H 0.13142 0.2404 0.07013 0.0
H2794 H 0.15735 0.39884 0.99778 0.0
H2795 H 0.18959 0.26212 0.96581 0.0
H2796 H 0.12741 0.26276 0.04074 0.0
H2797 H 0.21892 0.23927 0.96473 0.0
H2798 H 0.08628 0.38678 1.00417 0.0
H2799 H 0.15936 0.21556 0.07119 0.0
H2800 H 0.18988 0.20046 0.05441 0.0
H2801 H 0.06781 0.36212 0.02678 0.0
H2802 H 0.21348 0.19997 0.02567 0.0
N2803 N 0.15261 0.25083 0.02485 0.0
C2804 C 0.13952 0.25201 0.04073 0.0
C2805 C 0.15767 0.22541 0.05816 0.0
C2806 C 0.17125 0.22448 0.04201 0.0
C2807 C 0.14186 0.23938 0.05759 0.0
C2808 C 0.16842 0.23774 0.02549 0.0
H2809 H 0.22452 0.21446 0.99226 0.0
N2810 N 0.1793 0.25146 0.9945 0.0
C2811 C 0.20875 0.2388 0.97752 0.0
C2812 C 0.18203 0.23785 1.00964 0.0
C2813 C 0.19225 0.252 0.97839 0.0
C2814 C 0.21177 0.22471 0.99302 0.0
C2815 C 0.19836 0.22411 1.00937 0.0
O2816 O 0.14997 0.26019 0.96509 0.0
O2817 O 0.13394 0.29636 1.00145 0.0
O2818 O 0.11335 0.29477 1.02396 0.0
O2819 O 0.11535 0.26661 1.00384 0.0
O2820 O 0.13977 0.29017 0.97179 0.0
O2821 O 0.13579 0.24113 0.98749 0.0
O2822 O 0.14997 0.29489 0.05522 0.0
O2823 O 0.16761 0.2852 1.01984 0.0
O2824 O 0.17302 0.28957 0.98407 0.0
O2825 O 0.16571 0.31985 1.00149 0.0
O2826 O 0.17937 0.30995 0.03279 0.0
O2827 O 0.14225 0.32646 0.05366 0.0
C2828 C 0.13131 0.30299 0.98359 0.0
C2829 C 0.14598 0.22587 0.95619 0.0
C2830 C 0.1427 0.20649 0.92463 0.0
C2831 C 0.13634 0.22235 0.93743 0.0
C2832 C 0.15936 0.19468 0.93089 0.0
C2833 C 0.16173 0.21316 0.9624 0.0
C2834 C 0.16856 0.19786 0.94967 0.0
C2835 C 0.10338 0.27905 1.01477 0.0
C2836 C 0.13988 0.24355 0.96831 0.0
C2837 C 0.20098 0.21055 0.02555 0.0
C2838 C 0.18753 0.21083 0.0419 0.0
C2839 C 0.18581 0.29269 0.02578 0.0
C2840 C 0.16293 0.31783 0.08097 0.0
C2841 C 0.16928 0.33832 0.08244 0.0
C2842 C 0.18045 0.34529 0.09917 0.0
C2843 C 0.18605 0.33133 0.11422 0.0
C2844 C 0.16885 0.30418 0.0961 0.0
C2845 C 0.18052 0.31088 0.11252 0.0
C2846 C 0.17585 0.3092 0.98758 0.0
C2847 C 0.14786 0.31175 0.06535 0.0
H2848 H 0.12372 0.23185 0.93305 0.0
H2849 H 0.16536 0.18286 0.92133 0.0
H2850 H 0.16886 0.21511 0.97695 0.0
H2851 H 0.18109 0.1884 0.95436 0.0
H2852 H 0.16466 0.34927 0.07111 0.0
H2853 H 0.19471 0.33623 0.12728 0.0
H2854 H 0.16401 0.28848 0.09552 0.0
H2855 H 0.18489 0.30027 0.12423 0.0
Tb2856 Tb 0.39761 0.74676 0.53207 0.0
C2857 C 0.35646 0.78422 0.46223 0.0
C2858 C 0.3592 0.76296 0.43256 0.0
C2859 C 0.32929 0.78367 0.4373 0.0
C2860 C 0.36718 0.77004 0.45111 0.0
C2861 C 0.33799 0.79202 0.45479 0.0
C2862 C 0.33981 0.76903 0.42629 0.0
C2863 C 0.33939 0.8176 0.48084 0.0
N2864 N 0.3651 0.79188 0.47925 0.0
C2865 C 0.35755 0.80927 0.48781 0.0
C2866 C 0.32933 0.80868 0.46453 0.0
Tb2867 Tb 0.39464 0.77651 0.48926 0.0
N2868 N 0.38635 0.76523 0.45713 0.0
C2869 C 0.3992 0.75642 0.44343 0.0
C2870 C 0.37149 0.75119 0.42011 0.0
C2871 C 0.39178 0.74851 0.42525 0.0
H2872 H 0.3649 0.81599 0.50081 0.0
H2873 H 0.40185 0.74076 0.415 0.0
H2874 H 0.33335 0.76344 0.41228 0.0
H2875 H 0.33309 0.8308 0.48816 0.0
H2876 H 0.41528 0.75536 0.44625 0.0
H2877 H 0.38487 0.82374 0.55649 0.0
H2878 H 0.3659 0.74542 0.40581 0.0
H2879 H 0.4359 0.7148 0.53896 0.0
H2880 H 0.37634 0.79208 0.53875 0.0
H2881 H 0.46929 0.71547 0.55578 0.0
H2882 H 0.31488 0.78912 0.43164 0.0
H2883 H 0.41736 0.82684 0.57499 0.0
H2884 H 0.45048 0.81119 0.58539 0.0
H2885 H 0.31524 0.81515 0.45918 0.0
H2886 H 0.47357 0.78201 0.58478 0.0
N2887 N 0.40338 0.77702 0.54757 0.0
C2888 C 0.39034 0.793 0.54704 0.0
C2889 C 0.4136 0.81278 0.5674 0.0
C2890 C 0.42702 0.79642 0.56767 0.0
C2891 C 0.39523 0.81108 0.55698 0.0
C2892 C 0.42141 0.7785 0.55751 0.0
H2893 H 0.48082 0.74638 0.57362 0.0
N2894 N 0.42902 0.74545 0.54627 0.0
C2895 C 0.45977 0.72878 0.55602 0.0
C2896 C 0.43462 0.76219 0.55685 0.0
C2897 C 0.44093 0.72856 0.54629 0.0
C2898 C 0.46618 0.74623 0.56616 0.0
C2899 C 0.4535 0.76316 0.56681 0.0
O2900 O 0.39552 0.71726 0.5431 0.0
O2901 O 0.38199 0.75236 0.50503 0.0
O2902 O 0.36137 0.77399 0.50383 0.0
O2903 O 0.36345 0.75653 0.53399 0.0
O2904 O 0.38514 0.72249 0.51269 0.0
O2905 O 0.3874 0.7424 0.5622 0.0
O2906 O 0.40117 0.80669 0.49972 0.0
O2907 O 0.41517 0.77077 0.51586 0.0
O2908 O 0.41864 0.73193 0.51067 0.0
O2909 O 0.41111 0.74914 0.48026 0.0
O2910 O 0.4287 0.7761 0.4889 0.0
O2911 O 0.4031 0.79716 0.46763 0.0
C2912 C 0.37766 0.73457 0.49941 0.0
C2913 C 0.39777 0.71092 0.57761 0.0
C2914 C 0.39919 0.67757 0.59387 0.0
C2915 C 0.38993 0.69137 0.58052 0.0
C2916 C 0.41621 0.68415 0.60499 0.0
C2917 C 0.41457 0.71731 0.58892 0.0
C2918 C 0.42368 0.70394 0.60262 0.0
C2919 C 0.35141 0.76634 0.52042 0.0
C2920 C 0.38922 0.72275 0.5608 0.0
C2921 C 0.45908 0.78094 0.57711 0.0
C2922 C 0.4459 0.79753 0.5775 0.0
C2923 C 0.43356 0.77242 0.50759 0.0
C2924 C 0.41202 0.8318 0.47329 0.0
C2925 C 0.42007 0.83343 0.45356 0.0
C2926 C 0.42356 0.85245 0.44436 0.0
C2927 C 0.41947 0.86994 0.45589 0.0
C2928 C 0.4086 0.84942 0.48445 0.0
C2929 C 0.41241 0.86837 0.47578 0.0
C2930 C 0.42045 0.73466 0.49075 0.0
C2931 C 0.40511 0.8118 0.48078 0.0
H2932 H 0.37662 0.68691 0.57197 0.0
H2933 H 0.42396 0.674 0.61526 0.0
H2934 H 0.42085 0.73235 0.58692 0.0
H2935 H 0.43683 0.70879 0.61117 0.0
H2936 H 0.42339 0.81971 0.44533 0.0
H2937 H 0.42126 0.88496 0.44957 0.0
H2938 H 0.40232 0.84857 0.49955 0.0
H2939 H 0.40935 0.88198 0.48433 0.0
Tb2940 Tb 0.79742 0.52037 0.90223 0.0
C2941 C 0.77232 0.59906 0.86654 0.0
C2942 C 0.78481 0.62732 0.886 0.0
C2943 C 0.78214 0.63025 0.8495 0.0
C2944 C 0.77775 0.60714 0.88482 0.0
C2945 C 0.77285 0.61109 0.84887 0.0
C2946 C 0.78826 0.63836 0.86812 0.0
C2947 C 0.74993 0.58724 0.83337 0.0
N2948 N 0.76294 0.58084 0.86687 0.0
C2949 C 0.75003 0.57589 0.85128 0.0
C2950 C 0.7622 0.60443 0.83182 0.0
Tb2951 Tb 0.76675 0.56178 0.89614 0.0
N2952 N 0.77333 0.59614 0.90161 0.0
C2953 C 0.77222 0.60598 0.9199 0.0
C2954 C 0.78667 0.63626 0.90504 0.0
C2955 C 0.77964 0.62579 0.92199 0.0
H2956 H 0.74045 0.56258 0.85235 0.0
H2957 H 0.77989 0.63297 0.93668 0.0
H2958 H 0.79415 0.6537 0.86867 0.0
H2959 H 0.74042 0.58269 0.8208 0.0
H2960 H 0.76687 0.59834 0.93327 0.0
H2961 H 0.72496 0.49018 0.8762 0.0
H2962 H 0.79215 0.65168 0.90666 0.0
H2963 H 0.81865 0.52029 0.94873 0.0
H2964 H 0.75489 0.51137 0.87386 0.0
H2965 H 0.81257 0.50345 0.98135 0.0
H2966 H 0.78325 0.6395 0.83598 0.0
H2967 H 0.71837 0.47019 0.90707 0.0
H2968 H 0.72861 0.46076 0.94218 0.0
H2969 H 0.762 0.61329 0.81801 0.0
H2970 H 0.75212 0.46461 0.97078 0.0
N2971 N 0.76714 0.50287 0.90258 0.0
C2972 C 0.75326 0.50234 0.88716 0.0
C2973 C 0.73204 0.47927 0.90601 0.0
C2974 C 0.74569 0.48041 0.92214 0.0
C2975 C 0.73575 0.49048 0.88856 0.0
C2976 C 0.76329 0.49251 0.92003 0.0
H2977 H 0.78318 0.48057 0.98553 0.0
N2978 N 0.79279 0.50715 0.93415 0.0
C2979 C 0.80231 0.50086 0.96881 0.0
C2980 C 0.77648 0.49473 0.93627 0.0
C2981 C 0.80553 0.51059 0.9503 0.0
C2982 C 0.78575 0.48792 0.97109 0.0
C2983 C 0.77251 0.48483 0.95482 0.0
O2984 O 0.8171 0.49887 0.91478 0.0
O2985 O 0.79242 0.54702 0.88534 0.0
O2986 O 0.77256 0.54667 0.8633 0.0
O2987 O 0.78995 0.51677 0.86745 0.0
O2988 O 0.8221 0.5404 0.89173 0.0
O2989 O 0.81351 0.50049 0.88294 0.0
O2990 O 0.74063 0.54334 0.90053 0.0
O2991 O 0.77385 0.53743 0.91863 0.0
O2992 O 0.81242 0.54425 0.92144 0.0
O2993 O 0.79246 0.57296 0.91409 0.0
O2994 O 0.7631 0.56306 0.93025 0.0
O2995 O 0.73834 0.57465 0.89237 0.0
C2996 C 0.81049 0.55286 0.88217 0.0
C2997 C 0.8467 0.49884 0.89617 0.0
C2998 C 0.87901 0.49493 0.87947 0.0
C2999 C 0.85861 0.48935 0.88158 0.0
C3000 C 0.88741 0.50999 0.89199 0.0
C3001 C 0.85546 0.5137 0.90883 0.0
C3002 C 0.87566 0.51926 0.90665 0.0
C3003 C 0.78106 0.52996 0.8542 0.0
C3004 C 0.82497 0.49429 0.89768 0.0
C3005 C 0.75535 0.47238 0.95669 0.0
C3006 C 0.74197 0.47018 0.9404 0.0
C3007 C 0.76952 0.54554 0.93666 0.0
C3008 C 0.71512 0.56369 0.91648 0.0
C3009 C 0.71003 0.58408 0.9205 0.0
C3010 C 0.69937 0.58945 0.93797 0.0
C3011 C 0.69295 0.57401 0.95119 0.0
C3012 C 0.70843 0.54852 0.92979 0.0
C3013 C 0.69727 0.55369 0.94697 0.0
C3014 C 0.80786 0.56395 0.92349 0.0
C3015 C 0.72868 0.559 0.89927 0.0
H3016 H 0.85205 0.47781 0.87188 0.0
H3017 H 0.90326 0.51416 0.89081 0.0
H3018 H 0.84668 0.52129 0.92032 0.0
H3019 H 0.88224 0.53069 0.9164 0.0
H3020 H 0.71528 0.59605 0.91055 0.0
H3021 H 0.68465 0.57765 0.9648 0.0
H3022 H 0.71213 0.53277 0.92714 0.0
H3023 H 0.69228 0.54193 0.95727 0.0
Tb3024 Tb 0.7785 0.55551 0.15127 0.0
C3025 C 0.72691 0.49987 0.10882 0.0
C3026 C 0.6967 0.51496 0.09403 0.0
C3027 C 0.71177 0.48503 0.07879 0.0
C3028 C 0.71186 0.51481 0.10904 0.0
C3029 C 0.7271 0.48504 0.09358 0.0
C3030 C 0.69665 0.49992 0.07901 0.0
C3031 C 0.75754 0.47133 0.10893 0.0
N3032 N 0.7422 0.50087 0.12294 0.0
C3033 C 0.7568 0.48638 0.1238 0.0
C3034 C 0.74275 0.47076 0.09369 0.0
Tb3035 Tb 0.73689 0.52439 0.14737 0.0
N3036 N 0.71242 0.52935 0.12369 0.0
C3037 C 0.69808 0.54415 0.12439 0.0
C3038 C 0.6821 0.53031 0.09449 0.0
C3039 C 0.6828 0.54495 0.10973 0.0
H3040 H 0.76746 0.48624 0.13621 0.0
H3041 H 0.67138 0.55664 0.1104 0.0
H3042 H 0.68504 0.49976 0.06739 0.0
H3043 H 0.76932 0.45998 0.10939 0.0
H3044 H 0.69785 0.55469 0.1368 0.0
H3045 H 0.81185 0.4853 0.12226 0.0
H3046 H 0.67017 0.53094 0.08322 0.0
H3047 H 0.78376 0.57818 0.19594 0.0
H3048 H 0.79162 0.51523 0.11996 0.0
H3049 H 0.80171 0.57219 0.22785 0.0
H3050 H 0.71157 0.47367 0.06698 0.0
H3051 H 0.8297 0.47676 0.15389 0.0
H3052 H 0.83832 0.48562 0.18943 0.0
H3053 H 0.7434 0.45906 0.08225 0.0
H3054 H 0.8356 0.50904 0.21807 0.0
N3055 N 0.79693 0.52552 0.15028 0.0
C3056 C 0.79894 0.51277 0.13406 0.0
C3057 C 0.82067 0.49042 0.15307 0.0
C3058 C 0.81904 0.50335 0.16961 0.0
C3059 C 0.81066 0.49522 0.13522 0.0
C3060 C 0.80705 0.521 0.16778 0.0
H3061 H 0.82216 0.54125 0.23246 0.0
N3062 N 0.79375 0.55077 0.18205 0.0
C3063 C 0.80288 0.5613 0.21569 0.0
C3064 C 0.80551 0.53409 0.18404 0.0
C3065 C 0.79263 0.56457 0.19746 0.0
C3066 C 0.81439 0.54385 0.21823 0.0
C3067 C 0.81592 0.53003 0.20232 0.0
O3068 O 0.78411 0.58545 0.1594 0.0
O3069 O 0.74743 0.55474 0.14214 0.0
O3070 O 0.75169 0.52813 0.1147 0.0
O3071 O 0.78036 0.54824 0.11656 0.0
O3072 O 0.76558 0.57401 0.12668 0.0
O3073 O 0.80838 0.56683 0.14663 0.0
O3074 O 0.72957 0.4959 0.159 0.0
O3075 O 0.76225 0.53224 0.16817 0.0
O3076 O 0.75578 0.56747 0.17355 0.0
O3077 O 0.72577 0.55018 0.16495 0.0
O3078 O 0.74522 0.51074 0.17795 0.0
O3079 O 0.70662 0.51956 0.15652 0.0
C3080 C 0.74707 0.56781 0.12796 0.0
C3081 C 0.81584 0.60209 0.15487 0.0
C3082 C 0.82029 0.63772 0.14711 0.0
C3083 C 0.80881 0.6199 0.14584 0.0
C3084 C 0.83877 0.63759 0.15778 0.0
C3085 C 0.83436 0.60198 0.16525 0.0
C3086 C 0.84575 0.61977 0.16677 0.0
C3087 C 0.76689 0.53792 0.10469 0.0
C3088 C 0.80316 0.58403 0.15475 0.0
C3089 C 0.8276 0.51244 0.20414 0.0
C3090 C 0.82914 0.49912 0.18784 0.0
C3091 C 0.75872 0.52272 0.18548 0.0
C3092 C 0.69609 0.48524 0.15164 0.0
C3093 C 0.67601 0.48391 0.15856 0.0
C3094 C 0.66256 0.46939 0.15028 0.0
C3095 C 0.66904 0.45784 0.1336 0.0
C3096 C 0.70278 0.47116 0.13724 0.0
C3097 C 0.68915 0.45838 0.12752 0.0
C3098 C 0.73609 0.56332 0.17646 0.0
C3099 C 0.71024 0.50036 0.16036 0.0
H3100 H 0.79449 0.61984 0.13774 0.0
H3101 H 0.84815 0.65108 0.15858 0.0
H3102 H 0.8398 0.58827 0.17247 0.0
H3103 H 0.86006 0.61974 0.1748 0.0
H3104 H 0.67139 0.49335 0.17108 0.0
H3105 H 0.65888 0.44745 0.12594 0.0
H3106 H 0.71856 0.46986 0.13345 0.0
H3107 H 0.69433 0.44837 0.11568 0.0
Tb3108 Tb 0.74817 0.5304 0.40167 0.0
C3109 C 0.78257 0.46138 0.35653 0.0
C3110 C 0.7639 0.42972 0.35847 0.0
C3111 C 0.78439 0.43722 0.32889 0.0
C3112 C 0.76943 0.44856 0.36701 0.0
C3113 C 0.7909 0.45535 0.33786 0.0
C3114 C 0.77082 0.4245 0.3391 0.0
C3115 C 0.81331 0.48438 0.33937 0.0
N3116 N 0.78841 0.47906 0.36537 0.0
C3117 C 0.80468 0.48976 0.35784 0.0
C3118 C 0.8061 0.46734 0.32912 0.0
Tb3119 Tb 0.77308 0.48593 0.39565 0.0
N3120 N 0.76351 0.45372 0.38611 0.0
C3121 C 0.75431 0.43947 0.3981 0.0
C3122 C 0.75241 0.41619 0.37002 0.0
C3123 C 0.74803 0.42089 0.39007 0.0
H3124 H 0.81026 0.50304 0.36562 0.0
H3125 H 0.74018 0.41 0.39951 0.0
H3126 H 0.76648 0.41021 0.33226 0.0
H3127 H 0.82551 0.49337 0.33307 0.0
H3128 H 0.75193 0.44203 0.41398 0.0
H3129 H 0.82289 0.5512 0.37386 0.0
H3130 H 0.7478 0.40163 0.36397 0.0
H3131 H 0.72833 0.53305 0.44827 0.0
H3132 H 0.79057 0.53347 0.37258 0.0
H3133 H 0.73662 0.55 0.48023 0.0
H3134 H 0.79031 0.43255 0.31437 0.0
H3135 H 0.83233 0.57121 0.404 0.0
H3136 H 0.82385 0.58276 0.43898 0.0
H3137 H 0.81285 0.46319 0.31481 0.0
H3138 H 0.8006 0.58222 0.46794 0.0
N3139 N 0.78042 0.54367 0.40137 0.0
C3140 C 0.79379 0.54232 0.38569 0.0
C3141 C 0.81781 0.56352 0.40348 0.0
C3142 C 0.80453 0.56426 0.41986 0.0
C3143 C 0.81251 0.55228 0.38644 0.0
C3144 C 0.78579 0.55396 0.41841 0.0
H3145 H 0.7683 0.56981 0.48355 0.0
N3146 N 0.75541 0.54262 0.43329 0.0
C3147 C 0.74694 0.55112 0.46759 0.0
C3148 C 0.77283 0.55348 0.43485 0.0
C3149 C 0.7424 0.54138 0.44937 0.0
C3150 C 0.7648 0.56233 0.46938 0.0
C3151 C 0.77805 0.56356 0.45296 0.0
O3152 O 0.72256 0.54483 0.41275 0.0
O3153 O 0.7484 0.50307 0.38576 0.0
O3154 O 0.76769 0.50028 0.36286 0.0
O3155 O 0.75474 0.53246 0.36642 0.0
O3156 O 0.72123 0.51702 0.38727 0.0
O3157 O 0.74225 0.56058 0.39166 0.0
O3158 O 0.80218 0.49817 0.40308 0.0
O3159 O 0.77078 0.51126 0.41826 0.0
O3160 O 0.73175 0.50802 0.42145 0.0
O3161 O 0.74581 0.47659 0.41202 0.0
O3162 O 0.7726 0.48243 0.42956 0.0
O3163 O 0.79647 0.4658 0.39883 0.0
C3164 C 0.72986 0.50087 0.38073 0.0
C3165 C 0.70937 0.57526 0.39939 0.0
C3166 C 0.67366 0.58086 0.39129 0.0
C3167 C 0.6909 0.56825 0.39111 0.0
C3168 C 0.67523 0.60036 0.39976 0.0
C3169 C 0.71052 0.59486 0.40746 0.0
C3170 C 0.69354 0.60729 0.40767 0.0
C3171 C 0.76168 0.51782 0.35355 0.0
C3172 C 0.72653 0.56175 0.40356 0.0
C3173 C 0.79638 0.57432 0.4542 0.0
C3174 C 0.8096 0.57465 0.4377 0.0
C3175 C 0.77156 0.50118 0.43591 0.0
C3176 C 0.82401 0.47337 0.41997 0.0
C3177 C 0.82455 0.45282 0.426 0.0
C3178 C 0.84076 0.44513 0.43731 0.0
C3179 C 0.85626 0.45835 0.44351 0.0
C3180 C 0.8395 0.48642 0.42651 0.0
C3181 C 0.85541 0.47896 0.43843 0.0
C3182 C 0.73249 0.48771 0.42228 0.0
C3183 C 0.8097 0.47969 0.40385 0.0
H3184 H 0.68982 0.553 0.38515 0.0
H3185 H 0.66234 0.61047 0.39987 0.0
H3186 H 0.72443 0.60028 0.41436 0.0
H3187 H 0.69452 0.6223 0.41418 0.0
H3188 H 0.81302 0.44227 0.42084 0.0
H3189 H 0.86898 0.45273 0.45222 0.0
H3190 H 0.83972 0.50216 0.4218 0.0
H3191 H 0.86744 0.48906 0.44322 0.0
Tb3192 Tb 0.77276 0.49012 0.6498 0.0
C3193 C 0.84907 0.52379 0.61669 0.0
C3194 C 0.87822 0.51078 0.63445 0.0
C3195 C 0.8806 0.51842 0.59862 0.0
C3196 C 0.85764 0.51647 0.63416 0.0
C3197 C 0.86096 0.52646 0.59917 0.0
C3198 C 0.88922 0.51043 0.61629 0.0
C3199 C 0.83574 0.5497 0.58674 0.0
N3200 N 0.83039 0.53193 0.61818 0.0
C3201 C 0.82445 0.5463 0.60429 0.0
C3202 C 0.85362 0.53895 0.5837 0.0
Tb3203 Tb 0.81217 0.52338 0.64687 0.0
N3204 N 0.84676 0.51831 0.65144 0.0
C3205 C 0.85687 0.51826 0.66966 0.0
C3206 C 0.88759 0.50748 0.65313 0.0
C3207 C 0.87708 0.51199 0.67081 0.0
H3208 H 0.81044 0.5545 0.60642 0.0
H3209 H 0.88455 0.51076 0.68535 0.0
H3210 H 0.90489 0.50564 0.61612 0.0
H3211 H 0.83048 0.56038 0.57546 0.0
H3212 H 0.84921 0.52188 0.68355 0.0
H3213 H 0.73996 0.56308 0.63157 0.0
H3214 H 0.90334 0.503 0.65405 0.0
H3215 H 0.77049 0.46125 0.69118 0.0
H3216 H 0.76149 0.53364 0.62565 0.0
H3217 H 0.75321 0.46217 0.72407 0.0
H3218 H 0.88978 0.51977 0.58512 0.0
H3219 H 0.72049 0.56584 0.6633 0.0
H3220 H 0.71112 0.551 0.69699 0.0
H3221 H 0.86237 0.5416 0.57011 0.0
H3222 H 0.71477 0.5237 0.72211 0.0
N3223 N 0.75424 0.51909 0.6535 0.0
C3224 C 0.75293 0.53416 0.63938 0.0
C3225 C 0.72984 0.55265 0.66072 0.0
C3226 C 0.73126 0.53724 0.67519 0.0
C3227 C 0.74079 0.55113 0.64278 0.0
C3228 C 0.74373 0.52044 0.67111 0.0
H3229 H 0.73063 0.49073 0.73246 0.0
N3230 N 0.75867 0.48962 0.68123 0.0
C3231 C 0.75113 0.47443 0.71337 0.0
C3232 C 0.74597 0.50519 0.68538 0.0
C3233 C 0.76111 0.47411 0.69475 0.0
C3234 C 0.73831 0.49052 0.71801 0.0
C3235 C 0.73553 0.50613 0.70393 0.0
O3236 O 0.76243 0.46024 0.65236 0.0
O3237 O 0.79932 0.49764 0.63385 0.0
O3238 O 0.79847 0.51878 0.6133 0.0
O3239 O 0.76978 0.4991 0.61537 0.0
O3240 O 0.79294 0.46743 0.63631 0.0
O3241 O 0.74448 0.48273 0.63667 0.0
O3242 O 0.79266 0.54813 0.65342 0.0
O3243 O 0.78697 0.51489 0.66828 0.0
O3244 O 0.79642 0.47603 0.66951 0.0
O3245 O 0.8246 0.49688 0.66256 0.0
O3246 O 0.81355 0.52309 0.68103 0.0
O3247 O 0.82387 0.55256 0.64584 0.0
C3248 C 0.80587 0.48015 0.62922 0.0
C3249 C 0.72793 0.4526 0.64838 0.0
C3250 C 0.70754 0.42189 0.64431 0.0
C3251 C 0.72336 0.43469 0.63797 0.0
C3252 C 0.69602 0.42771 0.66123 0.0
C3253 C 0.71629 0.45827 0.66507 0.0
C3254 C 0.70032 0.44583 0.67141 0.0
C3255 C 0.78251 0.50985 0.60321 0.0
C3256 C 0.74603 0.46376 0.64207 0.0
C3257 C 0.72287 0.52268 0.70792 0.0
C3258 C 0.72078 0.53822 0.69361 0.0
C3259 C 0.79557 0.51713 0.68657 0.0
C3260 C 0.81192 0.57326 0.67159 0.0
C3261 C 0.83211 0.57645 0.67793 0.0
C3262 C 0.83675 0.58809 0.69502 0.0
C3263 C 0.82078 0.59655 0.70613 0.0
C3264 C 0.7962 0.58197 0.68276 0.0
C3265 C 0.80066 0.59352 0.69997 0.0
C3266 C 0.81605 0.4808 0.67128 0.0
C3267 C 0.80784 0.56085 0.65334 0.0
H3268 H 0.73231 0.43076 0.62485 0.0
H3269 H 0.68385 0.4182 0.66679 0.0
H3270 H 0.71965 0.47204 0.67328 0.0
H3271 H 0.6914 0.45012 0.68441 0.0
H3272 H 0.84448 0.56958 0.66973 0.0
H3273 H 0.82386 0.60569 0.71938 0.0
H3274 H 0.78056 0.57981 0.67822 0.0
H3275 H 0.78847 0.60021 0.70855 0.0
Tb3276 Tb 0.48751 0.14484 0.27588 0.0
C3277 C 0.55765 0.10701 0.25948 0.0
C3278 C 0.57537 0.12225 0.28778 0.0
C3279 C 0.5859 0.08937 0.27526 0.0
C3280 C 0.5604 0.1232 0.27251 0.0
C3281 C 0.5702 0.08978 0.26091 0.0
C3282 C 0.58843 0.10553 0.28873 0.0
C3283 C 0.54932 0.07364 0.23553 0.0
N3284 N 0.54192 0.10766 0.24623 0.0
C3285 C 0.53719 0.09094 0.23474 0.0
C3286 C 0.56607 0.07315 0.24845 0.0
Tb3287 Tb 0.52676 0.13886 0.24317 0.0
N3288 N 0.54743 0.13912 0.27121 0.0
C3289 C 0.54742 0.15346 0.2861 0.0
C3290 C 0.5763 0.13777 0.3021 0.0
C3291 C 0.56196 0.15319 0.30151 0.0
H3292 H 0.52483 0.0913 0.22404 0.0
H3293 H 0.56196 0.16481 0.31304 0.0
H3294 H 0.60016 0.10468 0.3002 0.0
H3295 H 0.54581 0.06071 0.22608 0.0
H3296 H 0.53616 0.16499 0.28665 0.0
H3297 H 0.41333 0.15906 0.24112 0.0
H3298 H 0.58749 0.13755 0.31412 0.0
H3299 H 0.51263 0.16923 0.3131 0.0
H3300 H 0.44234 0.13836 0.24858 0.0
H3301 H 0.50759 0.20013 0.33327 0.0
H3302 H 0.59575 0.07632 0.27652 0.0
H3303 H 0.4092 0.19239 0.25721 0.0
H3304 H 0.42136 0.21789 0.28202 0.0
H3305 H 0.57533 0.05965 0.24913 0.0
H3306 H 0.44617 0.22855 0.30755 0.0
N3307 N 0.45725 0.16035 0.26776 0.0
C3308 C 0.44204 0.1531 0.25542 0.0
C3309 C 0.42264 0.18354 0.26038 0.0
C3310 C 0.43723 0.19035 0.27413 0.0
C3311 C 0.42494 0.16476 0.25124 0.0
C3312 C 0.45464 0.1784 0.27765 0.0
H3313 H 0.47794 0.22193 0.32687 0.0
N3314 N 0.48611 0.17361 0.29503 0.0
C3315 C 0.49673 0.19604 0.32166 0.0
C3316 C 0.46897 0.18478 0.29205 0.0
C3317 C 0.49951 0.17853 0.31021 0.0
C3318 C 0.47993 0.20827 0.31803 0.0
C3319 C 0.46577 0.2027 0.30323 0.0
O3320 O 0.49504 0.13673 0.30631 0.0
O3321 O 0.51343 0.12289 0.27004 0.0
O3322 O 0.50176 0.11848 0.23094 0.0
O3323 O 0.47413 0.12753 0.25142 0.0
O3324 O 0.48595 0.11096 0.27643 0.0
O3325 O 0.46345 0.13799 0.29424 0.0
O3326 O 0.54579 0.12704 0.22078 0.0
O3327 O 0.50052 0.15561 0.24916 0.0
O3328 O 0.5024 0.17747 0.27067 0.0
O3329 O 0.53093 0.17366 0.25115 0.0
O3330 O 0.50509 0.14785 0.21967 0.0
O3331 O 0.54471 0.15877 0.22514 0.0
C3332 C 0.50416 0.10489 0.27261 0.0
C3333 C 0.46609 0.12853 0.32914 0.0
C3334 C 0.43544 0.11904 0.34775 0.0
C3335 C 0.44533 0.12348 0.32952 0.0
C3336 C 0.44668 0.11956 0.36584 0.0
C3337 C 0.47709 0.12875 0.34728 0.0
C3338 C 0.46738 0.12427 0.36554 0.0
C3339 C 0.48212 0.11714 0.23624 0.0
C3340 C 0.47538 0.1348 0.30985 0.0
C3341 C 0.44868 0.21462 0.29929 0.0
C3342 C 0.43457 0.20856 0.28471 0.0
C3343 C 0.4937 0.15824 0.23144 0.0
C3344 C 0.5447 0.1463 0.19126 0.0
C3345 C 0.55597 0.15861 0.17794 0.0
C3346 C 0.55031 0.16004 0.15735 0.0
C3347 C 0.53334 0.14918 0.15035 0.0
C3348 C 0.52816 0.13509 0.18356 0.0
C3349 C 0.52242 0.13675 0.16338 0.0
C3350 C 0.51845 0.18662 0.26128 0.0
C3351 C 0.55016 0.14436 0.21297 0.0
H3352 H 0.43661 0.12345 0.3156 0.0
H3353 H 0.43954 0.11608 0.38016 0.0
H3354 H 0.49302 0.13275 0.3474 0.0
H3355 H 0.4759 0.12458 0.37955 0.0
H3356 H 0.56897 0.167 0.18353 0.0
H3357 H 0.52882 0.14987 0.1346 0.0
H3358 H 0.51961 0.12484 0.1931 0.0
H3359 H 0.5096 0.12815 0.15776 0.0
Tb3360 Tb 0.02477 0.89565 0.73814 0.0
C3361 C 0.03762 0.8583 0.80883 0.0
C3362 C 1.00362 0.86686 0.8195 0.0
C3363 C 1.01952 0.83606 0.83199 0.0
C3364 C 1.02131 0.87147 0.80851 0.0
C3365 C 0.03694 0.84048 0.82063 0.0
C3366 C 1.00288 0.84917 0.83137 0.0
C3367 C 0.07067 0.8327 0.809 0.0
N3368 N 0.05406 0.86286 0.7974 0.0
C3369 C 0.0707 0.85061 0.79765 0.0
C3370 C 0.0537 0.82758 0.82051 0.0
Tb3371 Tb 0.05298 0.89347 0.78152 0.0
N3372 N 1.02256 0.88844 0.79689 0.0
C3373 C 1.00636 0.90107 0.79498 0.0
C3374 C 0.98712 0.88002 0.818 0.0
C3375 C 0.98844 0.8971 0.80554 0.0
H3376 H 0.08424 0.85475 0.78947 0.0
H3377 H 0.97563 0.90718 0.80401 0.0
H3378 H 0.98945 0.84542 0.83999 0.0
H3379 H 0.08385 0.82299 0.80908 0.0
H3380 H 1.00696 0.91404 0.78514 0.0
H3381 H 0.06278 0.89194 0.66485 0.0
H3382 H 0.97322 0.87699 0.82615 0.0
H3383 H 0.98459 0.92421 0.75082 0.0
H3384 H 0.04846 0.87717 0.69554 0.0
H3385 H 0.96876 0.95577 0.73883 0.0
H3386 H 1.01869 0.82243 0.84112 0.0
H3387 H 0.05554 0.9275 0.6558 0.0
H3388 H 0.03532 0.95872 0.66228 0.0
H3389 H 0.05375 0.81372 0.82933 0.0
H3390 H 1.00881 0.97574 0.68183 0.0
N3391 N 0.03607 0.90507 0.70639 0.0
C3392 C 0.04629 0.89313 0.69289 0.0
C3393 C 0.04984 0.92134 0.66989 0.0
C3394 C 0.03696 0.93262 0.68218 0.0
C3395 C 0.05401 0.90129 0.67497 0.0
C3396 C 0.03005 0.92395 0.70048 0.0
H3397 H 0.98333 0.97432 0.70977 0.0
N3398 N 1.00821 0.9248 0.72875 0.0
C3399 C 0.98193 0.94986 0.73117 0.0
C3400 C 1.01533 0.93385 0.7117 0.0
C3401 C 0.99082 0.93183 0.73774 0.0
C3402 C 0.99024 0.96031 0.71479 0.0
C3403 C 1.00689 0.95218 0.70462 0.0
O3404 O 0.99447 0.88842 0.74749 0.0
O3405 O 0.02926 0.87463 0.76509 0.0
O3406 O 0.06891 0.87244 0.76091 0.0
O3407 O 0.05284 0.87981 0.72993 0.0
O3408 O 0.02688 0.86183 0.73717 0.0
O3409 O 1.00508 0.88684 0.71571 0.0
O3410 O 0.08236 0.89459 0.79306 0.0
O3411 O 0.04833 0.90885 0.7542 0.0
O3412 O 0.02682 0.92929 0.75209 0.0
O3413 O 0.04249 0.92743 0.78311 0.0
O3414 O 0.07774 0.90608 0.76296 0.0
O3415 O 0.05762 0.90652 0.81058 0.0
C3416 C 0.02881 0.85636 0.75599 0.0
C3417 C 0.97003 0.87847 0.72008 0.0
C3418 C 0.9489 0.87011 0.69052 0.0
C3419 C 0.96789 0.87473 0.69911 0.0
C3420 C 0.93192 0.86921 0.7033 0.0
C3421 C 0.95291 0.8773 0.73248 0.0
C3422 C 0.93397 0.87269 0.72409 0.0
C3423 C 0.06716 0.87067 0.74091 0.0
C3424 C 0.98996 0.8848 0.72832 0.0
C3425 C 1.0148 0.96144 0.68723 0.0
C3426 C 0.02992 0.95175 0.67612 0.0
C3427 C 0.06623 0.91365 0.74928 0.0
C3428 C 0.08948 0.89953 0.82737 0.0
C3429 C 0.10678 0.91158 0.83088 0.0
C3430 C 0.12156 0.90597 0.8453 0.0
C3431 C 0.11804 0.88814 0.85664 0.0
C3432 C 0.08622 0.88213 0.83903 0.0
C3433 C 0.10043 0.87658 0.8537 0.0
C3434 C 0.03339 0.9394 0.76903 0.0
C3435 C 0.07721 0.90412 0.80937 0.0
H3436 H 0.98095 0.87583 0.68928 0.0
H3437 H 0.91709 0.86551 0.69728 0.0
H3438 H 0.9541 0.88024 0.74855 0.0
H3439 H 0.92078 0.87188 0.73373 0.0
H3440 H 0.10876 0.92516 0.82188 0.0
H3441 H 0.12901 0.88271 0.86752 0.0
H3442 H 0.07308 0.87263 0.83645 0.0
H3443 H 0.09806 0.86292 0.8625 0.0
Tb3444 Tb 0.48601 0.8969 0.27674 0.0
C3445 C 0.55814 0.93323 0.29292 0.0
C3446 C 0.57066 0.92346 0.25996 0.0
C3447 C 0.58442 0.95334 0.27663 0.0
C3448 C 0.55805 0.9199 0.27677 0.0
C3449 C 0.57149 0.94999 0.29314 0.0
C3450 C 0.58389 0.9402 0.26001 0.0
C3451 C 0.55756 0.95941 0.32551 0.0
N3452 N 0.54504 0.92986 0.30834 0.0
C3453 C 0.54477 0.94248 0.32471 0.0
C3454 C 0.57102 0.96317 0.30969 0.0
Tb3455 Tb 0.52818 0.89973 0.30702 0.0
N3456 N 0.54537 0.90364 0.27742 0.0
C3457 C 0.54411 0.89066 0.26142 0.0
C3458 C 0.56953 0.91012 0.24358 0.0
C3459 C 0.55608 0.89375 0.24426 0.0
H3460 H 0.53519 0.93926 0.33754 0.0
H3461 H 0.55496 0.88346 0.23158 0.0
H3462 H 0.59375 0.94313 0.24727 0.0
H3463 H 0.55727 0.96935 0.3385 0.0
H3464 H 0.5337 0.8781 0.26155 0.0
H3465 H 0.41409 0.9314 0.29759 0.0
H3466 H 0.57887 0.91239 0.23031 0.0
H3467 H 0.48671 0.85692 0.24513 0.0
H3468 H 0.44843 0.93151 0.28315 0.0
H3469 H 0.46801 0.82465 0.24114 0.0
H3470 H 0.59466 0.96621 0.27645 0.0
H3471 H 0.39724 0.89891 0.30603 0.0
H3472 H 0.39695 0.86091 0.30262 0.0
H3473 H 0.58095 0.97627 0.31038 0.0
H3474 H 0.41202 0.83088 0.28669 0.0
N3475 N 0.45217 0.89948 0.28562 0.0
C3476 C 0.44151 0.91722 0.28717 0.0
C3477 C 0.41254 0.89888 0.30014 0.0
C3478 C 0.42226 0.88071 0.2955 0.0
C3479 C 0.42195 0.91724 0.29528 0.0
C3480 C 0.4422 0.88158 0.28795 0.0
H3481 H 0.43818 0.81743 0.26259 0.0
N3482 N 0.46847 0.86727 0.26962 0.0
C3483 C 0.46315 0.8356 0.25225 0.0
C3484 C 0.45075 0.86467 0.27946 0.0
C3485 C 0.47363 0.85392 0.25452 0.0
C3486 C 0.44643 0.83153 0.2645 0.0
C3487 C 0.43947 0.84654 0.27766 0.0
O3488 O 0.50243 0.90191 0.24943 0.0
O3489 O 0.51198 0.91851 0.28315 0.0
O3490 O 0.50735 0.92145 0.32116 0.0
O3491 O 0.47704 0.91454 0.30353 0.0
O3492 O 0.485 0.93068 0.27508 0.0
O3493 O 0.4703 0.89644 0.24971 0.0
O3494 O 0.53813 0.89943 0.33703 0.0
O3495 O 0.5005 0.88436 0.30176 0.0
O3496 O 0.49969 0.86368 0.28098 0.0
O3497 O 0.53044 0.86574 0.29698 0.0
O3498 O 0.50882 0.88743 0.33124 0.0
O3499 O 0.55672 0.8866 0.31357 0.0
C3500 C 0.5032 0.93674 0.27999 0.0
C3501 C 0.48097 0.91889 0.22484 0.0
C3502 C 0.45504 0.93889 0.2072 0.0
C3503 C 0.4606 0.92221 0.21912 0.0
C3504 C 0.47032 0.952 0.20018 0.0
C3505 C 0.496 0.93201 0.2175 0.0
C3506 C 0.49066 0.9484 0.20511 0.0
C3507 C 0.48754 0.92363 0.31826 0.0
C3508 C 0.48567 0.90189 0.23879 0.0
C3509 C 0.42068 0.84485 0.2874 0.0
C3510 C 0.41209 0.86197 0.29643 0.0
C3511 C 0.4949 0.88029 0.31971 0.0
C3512 C 0.57252 0.89613 0.34504 0.0
C3513 C 0.57536 0.88674 0.36395 0.0
C3514 C 0.59059 0.89339 0.3774 0.0
C3515 C 0.60296 0.90979 0.37134 0.0
C3516 C 0.58537 0.91196 0.33914 0.0
C3517 C 0.60047 0.9188 0.35232 0.0
C3518 C 0.51645 0.85369 0.28787 0.0
C3519 C 0.55483 0.89 0.33293 0.0
H3520 H 0.44877 0.91222 0.22465 0.0
H3521 H 0.46655 0.96498 0.19088 0.0
H3522 H 0.51176 0.92974 0.22146 0.0
H3523 H 0.50231 0.95855 0.19955 0.0
H3524 H 0.56558 0.87417 0.36807 0.0
H3525 H 0.61451 0.91587 0.3813 0.0
H3526 H 0.58359 0.9192 0.32458 0.0
H3527 H 0.61016 0.93129 0.34786 0.0
Tb3528 Tb 0.89686 0.73611 1.02039 0.0
C3529 C 0.85929 0.80794 0.03775 0.0
C3530 C 0.86941 0.82162 1.00528 0.0
C3531 C 0.8394 0.83464 1.02201 0.0
C3532 C 0.87273 0.80842 1.02173 0.0
C3533 C 0.84253 0.82113 0.03815 0.0
C3534 C 0.85275 0.8348 1.00556 0.0
C3535 C 0.8328 0.80603 0.07001 0.0
N3536 N 0.86255 0.7944 0.05285 0.0
C3537 C 0.84975 0.79343 0.06905 0.0
C3538 C 0.8292 0.82 0.05454 0.0
Tb3539 Tb 0.89262 0.77774 0.05132 0.0
N3540 N 0.88887 0.79574 1.02217 0.0
C3541 C 0.90195 0.79498 1.00628 0.0
C3542 C 0.88292 0.8211 0.98904 0.0
C3543 C 0.89916 0.8076 0.98947 0.0
H3544 H 0.85285 0.78341 0.08162 0.0
H3545 H 0.90958 0.80694 0.97689 0.0
H3546 H 0.85001 0.84513 0.9931 0.0
H3547 H 0.82272 0.80519 0.08287 0.0
H3548 H 0.91443 0.7846 1.00631 0.0
H3549 H 0.86313 0.66292 0.03916 0.0
H3550 H 0.88088 0.83094 0.97605 0.0
H3551 H 0.93802 0.73507 0.98994 0.0
H3552 H 0.86376 0.69672 1.02274 0.0
H3553 H 0.97078 0.71714 0.98904 0.0
H3554 H 0.82658 0.84483 1.02199 0.0
H3555 H 0.8948 0.6484 0.05307 0.0
H3556 H 0.93306 0.6499 0.05404 0.0
H3557 H 0.8161 0.82979 0.05537 0.0
H3558 H 0.96379 0.6652 0.0394 0.0
N3559 N 0.89462 0.70245 0.03024 0.0
C3560 C 0.87741 0.69078 0.02949 0.0
C3561 C 0.89496 0.66346 0.04651 0.0
C3562 C 0.91319 0.67391 0.04362 0.0
C3563 C 0.87708 0.67157 0.03856 0.0
C3564 C 0.91244 0.69344 0.03497 0.0
H3565 H 0.97787 0.68979 1.01369 0.0
N3566 N 0.92707 0.71883 1.0157 0.0
C3567 C 0.95953 0.71299 1.00018 0.0
C3568 C 0.9296 0.70199 0.02704 0.0
C3569 C 0.94091 0.72303 1.00071 0.0
C3570 C 0.96351 0.69767 1.0142 0.0
C3571 C 0.94805 0.69127 0.02717 0.0
O3572 O 0.89171 0.75131 0.9922 0.0
O3573 O 0.87481 0.76144 0.02693 0.0
O3574 O 0.87011 0.75639 0.06341 0.0
O3575 O 0.87848 0.72598 0.04676 0.0
O3576 O 0.8631 0.73497 1.01708 0.0
O3577 O 0.89887 0.71955 0.99411 0.0
O3578 O 0.89259 0.78706 0.08155 0.0
O3579 O 0.909 0.75108 0.04542 0.0
O3580 O 0.92946 0.75182 1.02326 0.0
O3581 O 0.92712 0.78019 0.04298 0.0
O3582 O 0.90258 0.75689 0.07524 0.0
O3583 O 0.90619 0.80596 0.05857 0.0
C3584 C 0.85667 0.75278 1.02268 0.0
C3585 C 0.878 0.7281 0.96696 0.0
C3586 C 0.86045 0.70032 0.94935 0.0
C3587 C 0.87102 0.70779 0.96623 0.0
C3588 C 0.85589 0.71367 0.93342 0.0
C3589 C 0.87307 0.74119 0.95099 0.0
C3590 C 0.86187 0.73404 0.93444 0.0
C3591 C 0.86813 0.73652 0.06055 0.0
C3592 C 0.89327 0.73421 0.98233 0.0
C3593 C 0.94959 0.67333 0.03851 0.0
C3594 C 0.93208 0.66464 0.04685 0.0
C3595 C 0.91143 0.74451 0.06326 0.0
C3596 C 0.89729 0.82131 0.09027 0.0
C3597 C 0.90859 0.82486 0.10799 0.0
C3598 C 0.90306 0.84019 0.12173 0.0
C3599 C 0.88579 0.8519 0.11718 0.0
C3600 C 0.88061 0.83355 0.08582 0.0
C3601 C 0.87485 0.84871 0.0993 0.0
C3602 C 0.9393 0.76777 0.03216 0.0
C3603 C 0.90258 0.80365 0.07785 0.0
H3604 H 0.87485 0.69726 0.97824 0.0
H3605 H 0.84771 0.70834 0.92023 0.0
H3606 H 0.87847 0.75672 0.95098 0.0
H3607 H 0.85831 0.74419 0.92207 0.0
H3608 H 0.92177 0.81557 0.11094 0.0
H3609 H 0.88053 0.86346 0.12746 0.0
H3610 H 0.87192 0.83128 0.07214 0.0
H3611 H 0.86172 0.85792 0.09598 0.0
Tb3612 Tb 0.6448 0.27036 0.56128 0.0
C3613 C 0.60899 0.27897 0.49163 0.0
C3614 C 0.623 0.24789 0.47823 0.0
C3615 C 0.58891 0.25797 0.46884 0.0
C3616 C 0.62503 0.2655 0.49021 0.0
C3617 C 0.59082 0.27537 0.48086 0.0
C3618 C 0.60493 0.24425 0.46757 0.0
C3619 C 0.57751 0.30634 0.49477 0.0
N3620 N 0.61105 0.29542 0.50377 0.0
C3621 C 0.59572 0.30925 0.50522 0.0
C3622 C 0.57502 0.2893 0.48257 0.0
Tb3623 Tb 0.64228 0.2997 0.51818 0.0
N3624 N 0.64239 0.26945 0.50078 0.0
C3625 C 0.6581 0.256 0.49993 0.0
C3626 C 0.63914 0.23432 0.47737 0.0
C3627 C 0.65671 0.23838 0.48832 0.0
H3628 H 0.59734 0.3227 0.51435 0.0
H3629 H 0.66926 0.22789 0.48786 0.0
H3630 H 0.60319 0.23082 0.45831 0.0
H3631 H 0.5654 0.31725 0.49613 0.0
H3632 H 0.67187 0.25824 0.5081 0.0
H3633 H 0.65954 0.30035 0.63622 0.0
H3634 H 0.63815 0.22063 0.46839 0.0
H3635 H 0.66717 0.23355 0.53417 0.0
H3636 H 0.63906 0.29522 0.60563 0.0
H3637 H 0.69776 0.21231 0.53777 0.0
H3638 H 0.57506 0.25495 0.46053 0.0
H3639 H 0.69207 0.28245 0.64035 0.0
H3640 H 0.71669 0.25697 0.62736 0.0
H3641 H 0.56084 0.28703 0.47457 0.0
H3642 H 0.72656 0.23259 0.60123 0.0
N3643 N 0.66101 0.27665 0.59104 0.0
C3644 C 0.65374 0.28819 0.60654 0.0
C3645 C 0.68342 0.28055 0.62652 0.0
C3646 C 0.68992 0.2673 0.61141 0.0
C3647 C 0.6651 0.29076 0.62422 0.0
C3648 C 0.67819 0.26542 0.59362 0.0
H3649 H 0.71962 0.21587 0.56797 0.0
N3650 N 0.67252 0.2498 0.56148 0.0
C3651 C 0.69409 0.22334 0.54927 0.0
C3652 C 0.68378 0.25128 0.57882 0.0
C3653 C 0.67692 0.23548 0.54715 0.0
C3654 C 0.70633 0.22532 0.56642 0.0
C3655 C 0.70119 0.23926 0.5815 0.0
O3656 O 0.63616 0.23963 0.55797 0.0
O3657 O 0.62474 0.27497 0.53378 0.0
O3658 O 0.62199 0.31459 0.54042 0.0
O3659 O 0.62901 0.29775 0.57122 0.0
O3660 O 0.61104 0.27146 0.561 0.0
O3661 O 0.63247 0.25619 0.58654 0.0
O3662 O 0.63417 0.32906 0.50851 0.0
O3663 O 0.65437 0.29711 0.54744 0.0
O3664 O 0.67841 0.27505 0.54772 0.0
O3665 O 0.67671 0.29212 0.51708 0.0
O3666 O 0.66181 0.323 0.5331 0.0
O3667 O 0.6508 0.30835 0.48864 0.0
C3668 C 0.60632 0.27395 0.54223 0.0
C3669 C 0.6376 0.22114 0.58993 0.0
C3670 C 0.63592 0.20277 0.62244 0.0
C3671 C 0.62937 0.21861 0.60953 0.0
C3672 C 0.65147 0.19001 0.61545 0.0
C3673 C 0.65192 0.20717 0.58306 0.0
C3674 C 0.65913 0.19205 0.59591 0.0
C3675 C 0.61992 0.31231 0.56039 0.0
C3676 C 0.63107 0.23863 0.57733 0.0
C3677 C 0.71305 0.2416 0.59899 0.0
C3678 C 0.70747 0.25557 0.61385 0.0
C3679 C 0.66359 0.31382 0.55017 0.0
C3680 C 0.64182 0.3413 0.47479 0.0
C3681 C 0.64989 0.3607 0.47838 0.0
C3682 C 0.64806 0.37608 0.46368 0.0
C3683 C 0.63752 0.37182 0.44563 0.0
C3684 C 0.63162 0.3373 0.45663 0.0
C3685 C 0.62937 0.35257 0.44219 0.0
C3686 C 0.68851 0.28312 0.53137 0.0
C3687 C 0.64197 0.32591 0.49079 0.0
H3688 H 0.61757 0.2288 0.61446 0.0
H3689 H 0.65771 0.17822 0.62499 0.0
H3690 H 0.65761 0.20783 0.56783 0.0
H3691 H 0.67066 0.18173 0.59063 0.0
H3692 H 0.65752 0.36377 0.49259 0.0
H3693 H 0.63607 0.38319 0.43388 0.0
H3694 H 0.62492 0.32253 0.45388 0.0
H3695 H 0.62134 0.34947 0.42823 0.0
Tb3696 Tb 0.2762 0.48151 0.14815 0.0
C3697 C 0.26902 0.54986 0.11071 0.0
C3698 C 0.30066 0.56247 0.12449 0.0
C3699 C 0.29056 0.57193 0.09043 0.0
C3700 C 0.28261 0.55109 0.12666 0.0
C3701 C 0.27292 0.56018 0.09239 0.0
C3702 C 0.30441 0.57306 0.10644 0.0
C3703 C 0.24188 0.54617 0.07898 0.0
N3704 N 0.25234 0.53799 0.11291 0.0
C3705 C 0.23872 0.5361 0.09733 0.0
C3706 C 0.25906 0.55824 0.07647 0.0
Tb3707 Tb 0.24732 0.52468 0.14458 0.0
N3708 N 0.27859 0.54046 0.14389 0.0
C3709 C 0.29278 0.53993 0.15901 0.0
C3710 C 0.31467 0.56254 0.14035 0.0
C3711 C 0.31081 0.55101 0.15755 0.0
H3712 H 0.22527 0.52688 0.09889 0.0
H3713 H 0.32181 0.55051 0.16971 0.0
H3714 H 0.31813 0.58195 0.10461 0.0
H3715 H 0.23108 0.54451 0.06673 0.0
H3716 H 0.29094 0.53083 0.17217 0.0
H3717 H 0.24886 0.40817 0.12131 0.0
H3718 H 0.3287 0.57105 0.13926 0.0
H3719 H 0.31235 0.48475 0.18399 0.0
H3720 H 0.26437 0.442 0.1172 0.0
H3721 H 0.3204 0.46793 0.2163 0.0
H3722 H 0.29376 0.58 0.07651 0.0
H3723 H 0.24451 0.39351 0.15554 0.0
H3724 H 0.25312 0.39552 0.19281 0.0
H3725 H 0.26154 0.5659 0.06217 0.0
H3726 H 0.27337 0.41217 0.21946 0.0
N3727 N 0.26704 0.44743 0.14892 0.0
C3728 C 0.26246 0.43588 0.13224 0.0
C3729 C 0.25108 0.40849 0.15382 0.0
C3730 C 0.25867 0.41906 0.17052 0.0
C3731 C 0.25364 0.41666 0.13449 0.0
C3732 C 0.26684 0.43858 0.16738 0.0
H3733 H 0.2998 0.43874 0.22794 0.0
N3734 N 0.28738 0.46524 0.17712 0.0
C3735 C 0.30812 0.46226 0.20699 0.0
C3736 C 0.27768 0.44796 0.18226 0.0
C3737 C 0.30364 0.47161 0.18848 0.0
C3738 C 0.29635 0.44592 0.2136 0.0
C3739 C 0.28137 0.43806 0.20081 0.0
O3740 O 0.3054 0.4959 0.14878 0.0
O3741 O 0.2702 0.50753 0.12659 0.0
O3742 O 0.23042 0.50176 0.12589 0.0
O3743 O 0.2477 0.47183 0.13431 0.0
O3744 O 0.27394 0.47973 0.11422 0.0
O3745 O 0.2994 0.46814 0.13255 0.0
O3746 O 0.22028 0.53728 0.13454 0.0
O3747 O 0.25146 0.49723 0.15937 0.0
O3748 O 0.27347 0.49597 0.18178 0.0
O3749 O 0.25551 0.52618 0.17944 0.0
O3750 O 0.22328 0.50903 0.16212 0.0
O3751 O 0.23928 0.55386 0.15569 0.0
C3752 C 0.27074 0.4983 0.10854 0.0
C3753 C 0.3328 0.47148 0.14367 0.0
C3754 C 0.35464 0.44142 0.14114 0.0
C3755 C 0.33532 0.45031 0.14126 0.0
C3756 C 0.3716 0.45389 0.14462 0.0
C3757 C 0.34995 0.48353 0.14724 0.0
C3758 C 0.3692 0.47471 0.14796 0.0
C3759 C 0.23275 0.48164 0.12517 0.0
C3760 C 0.31315 0.48101 0.13824 0.0
C3761 C 0.27127 0.41975 0.20506 0.0
C3762 C 0.25979 0.41026 0.18988 0.0
C3763 C 0.23408 0.4935 0.16671 0.0
C3764 C 0.20495 0.56565 0.14931 0.0
C3765 C 0.19078 0.55918 0.16392 0.0
C3766 C 0.17171 0.56873 0.16491 0.0
C3767 C 0.16713 0.58456 0.15143 0.0
C3768 C 0.20006 0.58167 0.13622 0.0
C3769 C 0.18126 0.59103 0.13725 0.0
C3770 C 0.26519 0.51247 0.19171 0.0
C3771 C 0.22316 0.55415 0.14413 0.0
H3772 H 0.32235 0.44079 0.13786 0.0
H3773 H 0.38672 0.44759 0.14455 0.0
H3774 H 0.34856 0.49982 0.14866 0.0
H3775 H 0.3824 0.48418 0.15042 0.0
H3776 H 0.19424 0.54655 0.17383 0.0
H3777 H 0.15257 0.59207 0.15199 0.0
H3778 H 0.21056 0.58643 0.12454 0.0
H3779 H 0.17751 0.60313 0.12684 0.0
Tb3780 Tb 0.31061 0.52164 0.89801 0.0
C3781 C 0.24172 0.51143 0.86104 0.0
C3782 C 0.22671 0.54149 0.87565 0.0
C3783 C 0.21795 0.53161 0.84135 0.0
C3784 C 0.23958 0.5245 0.87734 0.0
C3785 C 0.23084 0.51484 0.84293 0.0
C3786 C 0.21593 0.54492 0.85764 0.0
C3787 C 0.24631 0.4849 0.82902 0.0
N3788 N 0.25463 0.49556 0.86281 0.0
C3789 C 0.25687 0.48217 0.84716 0.0
C3790 C 0.23328 0.50133 0.82686 0.0
Tb3791 Tb 0.26872 0.49122 0.89414 0.0
N3792 N 0.25023 0.52074 0.89467 0.0
C3793 C 0.2485 0.53368 0.91071 0.0
C3794 C 0.22504 0.55462 0.89208 0.0
C3795 C 0.23603 0.55072 0.90963 0.0
H3796 H 0.26672 0.46922 0.8485 0.0
H3797 H 0.2349 0.56084 0.92243 0.0
H3798 H 0.20597 0.55786 0.85615 0.0
H3799 H 0.24827 0.47433 0.81669 0.0
H3800 H 0.25658 0.53148 0.92452 0.0
H3801 H 0.38619 0.49429 0.91519 0.0
H3802 H 0.21536 0.56782 0.89135 0.0
H3803 H 0.28135 0.55716 0.91961 0.0
H3804 H 0.35589 0.49769 0.89408 0.0
H3805 H 0.28346 0.57901 0.94988 0.0
H3806 H 0.20953 0.53447 0.82755 0.0
H3807 H 0.38927 0.51358 0.94701 0.0
H3808 H 0.37501 0.53932 0.97058 0.0
H3809 H 0.22521 0.50346 0.81273 0.0
H3810 H 0.34769 0.56274 0.97954 0.0
N3811 N 0.34028 0.51669 0.91498 0.0
C3812 C 0.35621 0.50524 0.9085 0.0
C3813 C 0.37551 0.51469 0.93811 0.0
C3814 C 0.35984 0.52761 0.94393 0.0
C3815 C 0.37379 0.50369 0.92021 0.0
C3816 C 0.34217 0.52848 0.93188 0.0
H3817 H 0.31365 0.57752 0.97202 0.0
N3818 N 0.30937 0.54243 0.92552 0.0
C3819 C 0.29556 0.56853 0.94653 0.0
C3820 C 0.32667 0.54205 0.93697 0.0
C3821 C 0.29424 0.55599 0.92957 0.0
C3822 C 0.31271 0.56774 0.95891 0.0
C3823 C 0.32856 0.55453 0.95417 0.0
O3824 O 0.3066 0.55226 0.88951 0.0
O3825 O 0.28346 0.51683 0.87744 0.0
O3826 O 0.29229 0.47733 0.87395 0.0
O3827 O 0.32221 0.49483 0.88304 0.0
O3828 O 0.31078 0.52076 0.86414 0.0
O3829 O 0.33563 0.53636 0.88593 0.0
O3830 O 0.25944 0.46251 0.88474 0.0
O3831 O 0.29767 0.49404 0.90695 0.0
O3832 O 0.29728 0.51621 0.93129 0.0
O3833 O 0.26719 0.49817 0.92888 0.0
O3834 O 0.2832 0.46779 0.91333 0.0
O3835 O 0.23904 0.48176 0.90243 0.0
C3836 C 0.29207 0.51804 0.85916 0.0
C3837 C 0.33815 0.57133 0.89144 0.0
C3838 C 0.37056 0.58974 0.8903 0.0
C3839 C 0.35774 0.57403 0.88343 0.0
C3840 C 0.36344 0.60244 0.90583 0.0
C3841 C 0.33105 0.58508 0.90587 0.0
C3842 C 0.3438 0.60025 0.91331 0.0
C3843 C 0.31237 0.48035 0.8729 0.0
C3844 C 0.32599 0.55371 0.88461 0.0
C3845 C 0.34603 0.55332 0.96623 0.0
C3846 C 0.36157 0.53991 0.96116 0.0
C3847 C 0.30015 0.4771 0.91589 0.0
C3848 C 0.22719 0.44812 0.89249 0.0
C3849 C 0.23261 0.42977 0.90166 0.0
C3850 C 0.21993 0.41273 0.89985 0.0
C3851 C 0.20199 0.41423 0.8884 0.0
C3852 C 0.20917 0.44949 0.88136 0.0
C3853 C 0.19666 0.43253 0.87925 0.0
C3854 C 0.28113 0.50747 0.94103 0.0
C3855 C 0.24142 0.46505 0.89213 0.0
H3856 H 0.36275 0.564 0.87152 0.0
H3857 H 0.37293 0.61426 0.91215 0.0
H3858 H 0.31578 0.58418 0.91146 0.0
H3859 H 0.33838 0.61046 0.92486 0.0
H3860 H 0.24671 0.42874 0.91006 0.0
H3861 H 0.19176 0.40143 0.88701 0.0
H3862 H 0.20509 0.4635 0.87383 0.0
H3863 H 0.18281 0.43357 0.87052 0.0
Tb3864 Tb 0.2703 0.56034 0.64948 0.0
C3865 C 0.28344 0.49374 0.60857 0.0
C3866 C 0.24955 0.48199 0.6166 0.0
C3867 C 0.26457 0.47354 0.58417 0.0
C3868 C 0.2674 0.49248 0.62202 0.0
C3869 C 0.28225 0.48416 0.58955 0.0
C3870 C 0.24825 0.47251 0.59763 0.0
C3871 C 0.31615 0.49617 0.58264 0.0
N3872 N 0.30014 0.50448 0.61406 0.0
C3873 C 0.31665 0.50537 0.60166 0.0
C3874 C 0.29883 0.48562 0.5765 0.0
Tb3875 Tb 0.29953 0.51749 0.64592 0.0
N3876 N 0.26914 0.50191 0.64023 0.0
C3877 C 0.25351 0.50148 0.65367 0.0
C3878 C 0.2335 0.48148 0.63034 0.0
C3879 C 0.23548 0.49131 0.64892 0.0
H3880 H 0.3304 0.51291 0.60645 0.0
H3881 H 0.22308 0.49112 0.65959 0.0
H3882 H 0.23466 0.46436 0.59321 0.0
H3883 H 0.32919 0.49708 0.5728 0.0
H3884 H 0.25455 0.50922 0.6679 0.0
H3885 H 0.29086 0.63098 0.6111 0.0
H3886 H 0.2195 0.47363 0.62672 0.0
H3887 H 0.24034 0.56279 0.69055 0.0
H3888 H 0.27539 0.59719 0.61309 0.0
H3889 H 0.23849 0.58306 0.72183 0.0
H3890 H 0.26334 0.46614 0.5696 0.0
H3891 H 0.30247 0.64831 0.6422 0.0
H3892 H 0.30198 0.64965 0.68025 0.0
H3893 H 0.29849 0.47851 0.56175 0.0
H3894 H 0.28722 0.63612 0.71165 0.0
N3895 N 0.2799 0.59404 0.64503 0.0
C3896 C 0.28051 0.60425 0.62688 0.0
C3897 C 0.296 0.63322 0.64318 0.0
C3898 C 0.29238 0.62411 0.66192 0.0
C3899 C 0.28933 0.62355 0.62562 0.0
C3900 C 0.28397 0.60442 0.66229 0.0
H3901 H 0.2621 0.6118 0.72707 0.0
N3902 N 0.26546 0.57931 0.67851 0.0
C3903 C 0.24957 0.58683 0.71038 0.0
C3904 C 0.27625 0.59668 0.67992 0.0
C3905 C 0.25072 0.57537 0.69264 0.0
C3906 C 0.26302 0.60292 0.71334 0.0
C3907 C 0.27595 0.60862 0.6976 0.0
O3908 O 0.24301 0.54417 0.64319 0.0
O3909 O 0.27705 0.53509 0.62777 0.0
O3910 O 0.31566 0.53983 0.62673 0.0
O3911 O 0.29839 0.57011 0.63422 0.0
O3912 O 0.26959 0.56189 0.61536 0.0
O3913 O 0.24303 0.57571 0.6508 0.0
O3914 O 0.32883 0.50591 0.64568 0.0
O3915 O 0.29384 0.54403 0.66226 0.0
O3916 O 0.27261 0.54488 0.68264 0.0
O3917 O 0.28951 0.51454 0.68 0.0
O3918 O 0.32355 0.53559 0.66072 0.0
O3919 O 0.3038 0.48741 0.65626 0.0
C3920 C 0.27478 0.5438 0.6096 0.0
C3921 C 0.21938 0.56638 0.62634 0.0
C3922 C 0.20425 0.59311 0.60535 0.0
C3923 C 0.21545 0.58705 0.62235 0.0
C3924 C 0.19636 0.57811 0.59244 0.0
C3925 C 0.21119 0.55167 0.61337 0.0
C3926 C 0.19968 0.55755 0.59656 0.0
C3927 C 0.31332 0.55986 0.62539 0.0
C3928 C 0.23234 0.56078 0.64382 0.0
C3929 C 0.28672 0.62701 0.69804 0.0
C3930 C 0.29506 0.63473 0.68014 0.0
C3931 C 0.31156 0.5492 0.66754 0.0
C3932 C 0.33444 0.47096 0.64569 0.0
C3933 C 0.35296 0.46695 0.6551 0.0
C3934 C 0.36555 0.45129 0.6484 0.0
C3935 C 0.35943 0.43978 0.63158 0.0
C3936 C 0.32828 0.45932 0.62906 0.0
C3937 C 0.34083 0.44377 0.62203 0.0
C3938 C 0.27988 0.52787 0.69236 0.0
C3939 C 0.3233 0.48854 0.65314 0.0
H3940 H 0.2217 0.59867 0.63214 0.0
H3941 H 0.18754 0.58228 0.57924 0.0
H3942 H 0.21382 0.5357 0.61611 0.0
H3943 H 0.19345 0.54614 0.58656 0.0
H3944 H 0.35779 0.47647 0.6676 0.0
H3945 H 0.3688 0.42758 0.62604 0.0
H3946 H 0.31407 0.46235 0.62146 0.0
H3947 H 0.33616 0.4348 0.60914 0.0
Tb3948 Tb 0.23905 0.52209 0.3993 0.0
C3949 C 0.31245 0.54047 0.36741 0.0
C3950 C 0.33051 0.51433 0.38546 0.0
C3951 C 0.34294 0.52592 0.35293 0.0
C3952 C 0.31463 0.5286 0.38435 0.0
C3953 C 0.32619 0.53884 0.35118 0.0
C3954 C 0.34511 0.51366 0.37008 0.0
C3955 C 0.30447 0.56079 0.33174 0.0
N3956 N 0.29569 0.55213 0.36606 0.0
C3957 C 0.29124 0.56176 0.34818 0.0
C3958 C 0.32221 0.54953 0.33335 0.0
Tb3959 Tb 0.27706 0.55593 0.39528 0.0
N3960 N 0.29973 0.52924 0.39844 0.0
C3961 C 0.29849 0.51381 0.41225 0.0
C3962 C 0.33047 0.50025 0.40124 0.0
C3963 C 0.31401 0.49959 0.41432 0.0
H3964 H 0.27755 0.57049 0.34643 0.0
H3965 H 0.31299 0.48783 0.42571 0.0
H3966 H 0.35755 0.50302 0.37085 0.0
H3967 H 0.3009 0.56866 0.31781 0.0
H3968 H 0.28544 0.5117 0.42138 0.0
H3969 H 0.16376 0.55451 0.41044 0.0
H3970 H 0.34231 0.489 0.40262 0.0
H3971 H 0.26362 0.48496 0.42473 0.0
H3972 H 0.19383 0.54772 0.39109 0.0
H3973 H 0.25747 0.4642 0.45499 0.0
H3974 H 0.3538 0.52466 0.34074 0.0
H3975 H 0.15846 0.53825 0.44358 0.0
H3976 H 0.16995 0.51358 0.46955 0.0
H3977 H 0.33234 0.54862 0.32053 0.0
H3978 H 0.19472 0.48849 0.48114 0.0
N3979 N 0.20817 0.5292 0.41385 0.0
C3980 C 0.19304 0.54104 0.40588 0.0
C3981 C 0.17239 0.53555 0.43541 0.0
C3982 C 0.187 0.52226 0.44293 0.0
C3983 C 0.17534 0.54476 0.41673 0.0
C3984 C 0.20506 0.51938 0.43185 0.0
H3985 H 0.22696 0.46983 0.47566 0.0
N3986 N 0.23716 0.50319 0.42851 0.0
C3987 C 0.24681 0.4759 0.45076 0.0
C3988 C 0.21944 0.50547 0.43889 0.0
C3989 C 0.25026 0.4878 0.43363 0.0
C3990 C 0.22952 0.47906 0.46233 0.0
C3991 C 0.21552 0.49381 0.45641 0.0
O3992 O 0.24843 0.49234 0.39171 0.0
O3993 O 0.26559 0.52865 0.37858 0.0
O3994 O 0.25271 0.56719 0.3741 0.0
O3995 O 0.22553 0.54507 0.37968 0.0
O3996 O 0.2392 0.51982 0.36555 0.0
O3997 O 0.2161 0.50226 0.39156 0.0
O3998 O 0.2816 0.58364 0.38069 0.0
O3999 O 0.24629 0.55289 0.40435 0.0
O4000 O 0.25304 0.52706 0.43224 0.0
O4001 O 0.281 0.54789 0.42977 0.0
O4002 O 0.26293 0.57174 0.42104 0.0
O4003 O 0.29935 0.57638 0.40669 0.0
C4004 C 0.25737 0.52506 0.36017 0.0
C4005 C 0.2218 0.46714 0.38352 0.0
C4006 C 0.1933 0.44514 0.37488 0.0
C4007 C 0.20107 0.4643 0.3797 0.0
C4008 C 0.20652 0.42854 0.37405 0.0
C4009 C 0.23485 0.45044 0.38277 0.0
C4010 C 0.22718 0.43121 0.37809 0.0
C4011 C 0.2339 0.56074 0.36999 0.0
C4012 C 0.22912 0.48737 0.38941 0.0
C4013 C 0.19778 0.4971 0.4675 0.0
C4014 C 0.18369 0.5114 0.4609 0.0
C4015 C 0.24482 0.56486 0.41922 0.0
C4016 C 0.286 0.60996 0.40356 0.0
C4017 C 0.29928 0.62424 0.41229 0.0
C4018 C 0.29171 0.64274 0.41994 0.0
C4019 C 0.2708 0.6467 0.41845 0.0
C4020 C 0.26511 0.61435 0.40271 0.0
C4021 C 0.25766 0.63253 0.41005 0.0
C4022 C 0.26832 0.53705 0.44199 0.0
C4023 C 0.29342 0.5908 0.39455 0.0
H4024 H 0.1909 0.47716 0.37998 0.0
H4025 H 0.20089 0.41358 0.37024 0.0
H4026 H 0.25086 0.45221 0.38599 0.0
H4027 H 0.23728 0.41834 0.37754 0.0
H4028 H 0.3153 0.62089 0.41322 0.0
H4029 H 0.26453 0.66092 0.42357 0.0
H4030 H 0.25441 0.6038 0.3961 0.0
H4031 H 0.24163 0.63575 0.40902 0.0
H4032 H 0.0353 0.46928 0.30796 0.0
H4033 H 0.03395 0.57739 0.24125 0.0
H4034 H 1.02301 0.46929 0.2443 0.0
H4035 H 0.02922 0.57736 0.30576 0.0
H4036 H 0.03152 0.53996 0.24157 0.0
H4037 H 0.03488 0.50692 0.30746 0.0
C4038 C 0.03212 0.47668 0.29371 0.0
C4039 C 0.02854 0.46406 0.27627 0.0
C4040 C 0.03051 0.54785 0.25586 0.0
C4041 C 0.02909 0.51078 0.27531 0.0
C4042 C 0.03135 0.57018 0.25565 0.0
C4043 C 0.03009 0.58284 0.27339 0.0
C4044 C 0.02932 0.53601 0.27412 0.0
C4045 C 0.02919 0.56994 0.29119 0.0
C4046 C 0.03213 0.499 0.2934 0.0
C4047 C 0.02563 0.4768 0.25859 0.0
N4048 N 0.02881 0.54847 0.29101 0.0
N4049 N 0.02605 0.49828 0.25867 0.0
H4050 H 0.82557 0.75934 0.52417 0.0
H4051 H 0.71436 0.81999 0.53091 0.0
H4052 H 0.81916 0.82295 0.53376 0.0
H4053 H 0.71447 0.75585 0.52255 0.0
H4054 H 0.75143 0.81997 0.53159 0.0
H4055 H 0.78795 0.75611 0.52355 0.0
C4056 C 0.81688 0.77269 0.52741 0.0
C4057 C 0.82782 0.79136 0.53112 0.0
C4058 C 0.74377 0.80566 0.5291 0.0
C4059 C 0.78101 0.78795 0.52839 0.0
C4060 C 0.72163 0.80558 0.52837 0.0
C4061 C 0.7088 0.78805 0.5251 0.0
C4062 C 0.75571 0.78779 0.52711 0.0
C4063 C 0.72172 0.77033 0.52353 0.0
C4064 C 0.79449 0.77089 0.52639 0.0
C4065 C 0.81326 0.80777 0.5324 0.0
N4066 N 0.74333 0.77075 0.52444 0.0
N4067 N 0.792 0.80567 0.53124 0.0
H4068 H 0.53148 0.46434 0.79394 0.0
H4069 H 0.49349 0.57845 0.75181 0.0
H4070 H 0.48715 0.47158 0.7471 0.0
H4071 H 0.52995 0.57298 0.80525 0.0
H4072 H 0.49316 0.54099 0.74876 0.0
H4073 H 0.53381 0.50196 0.79673 0.0
C4074 C 0.52256 0.47336 0.78357 0.0
C4075 C 0.50966 0.46284 0.76939 0.0
C4076 C 0.50146 0.54765 0.76123 0.0
C4077 C 0.51168 0.50928 0.77343 0.0
C4078 C 0.50171 0.56983 0.76307 0.0
C4079 C 0.51195 0.58088 0.77887 0.0
C4080 C 0.51172 0.53443 0.7751 0.0
C4081 C 0.52185 0.56675 0.79248 0.0
C4082 C 0.52368 0.49562 0.78549 0.0
C4083 C 0.49801 0.47744 0.75788 0.0
N4084 N 0.52152 0.54538 0.79024 0.0
N4085 N 0.49941 0.49871 0.76 0.0
H4086 H 0.82726 0.24852 0.049 0.0
H4087 H 0.71315 0.27601 0.99938 0.0
H4088 H 0.82141 0.27932 0.99225 0.0
H4089 H 0.72011 0.24271 0.05461 0.0
H4090 H 0.75068 0.27911 0.99724 0.0
H4091 H 0.78977 0.24743 0.05166 0.0
C4092 C 0.81855 0.25539 0.03693 0.0
C4093 C 0.82951 0.26442 1.02035 0.0
C4094 C 0.7443 0.27119 1.01009 0.0
C4095 C 0.78304 0.26301 1.02349 0.0
C4096 C 0.72209 0.26959 1.01153 0.0
C4097 C 0.71145 0.25942 0.02766 0.0
C4098 C 0.75789 0.26234 0.02464 0.0
C4099 C 0.72598 0.25101 0.04181 0.0
C4100 C 0.79636 0.25467 0.03852 0.0
C4101 C 0.81527 0.27245 1.00569 0.0
N4102 N 0.74726 0.25269 0.04002 0.0
N4103 N 0.79391 0.27159 1.00762 0.0
H4104 H 0.27492 0.07798 0.46869 0.0
H4105 H 0.27387 1.01229 0.57712 0.0
H4106 H 0.26923 1.01367 0.46652 0.0
H4107 H 0.26971 0.07659 0.5735 0.0
H4108 H 0.27358 1.0107 0.5395 0.0
H4109 H 0.27448 0.07655 0.50574 0.0
C4110 C 0.27479 0.06309 0.47547 0.0
C4111 C 0.27457 0.04579 0.46212 0.0
C4112 C 0.27196 0.02534 0.54664 0.0
C4113 C 0.27244 0.04392 0.50879 0.0
C4114 C 0.27137 0.02617 0.56901 0.0
C4115 C 0.26899 0.04445 0.58069 0.0
C4116 C 0.2713 0.04312 0.53396 0.0
C4117 C 0.26937 0.06164 0.56694 0.0
C4118 C 0.27406 0.06236 0.49756 0.0
C4119 C 0.27198 0.02762 0.4743 0.0
N4120 N 0.27026 0.06051 0.54564 0.0
N4121 N 0.27129 0.02726 0.49585 0.0
H4122 H 0.25878 0.99549 0.7144 0.0
H4123 H 0.26315 0.05191 0.82797 0.0
H4124 H 0.26135 0.06005 0.72086 0.0
H4125 H 0.26623 0.98734 0.82171 0.0
H4126 H 0.2617 0.05504 0.79053 0.0
H4127 H 0.26041 0.99216 0.75186 0.0
C4128 C 0.25978 1.00923 0.72325 0.0
C4129 C 0.26034 0.02827 0.71259 0.0
C4130 C 0.26277 0.04002 0.79704 0.0
C4131 C 0.2621 0.0243 0.75873 0.0
C4132 C 0.26364 0.03813 0.81915 0.0
C4133 C 0.26521 1.01918 0.82985 0.0
C4134 C 0.26315 0.0229 0.78371 0.0
C4135 C 0.26549 1.00253 0.81563 0.0
C4136 C 0.26077 1.00723 0.74536 0.0
C4137 C 0.26152 0.04483 0.72686 0.0
N4138 N 0.26448 1.00478 0.79438 0.0
N4139 N 0.26227 0.04247 0.7481 0.0
H4140 H 0.29809 0.03578 0.07355 0.0
H4141 H 0.26211 0.97467 0.96879 0.0
H4142 H 0.26454 0.98009 0.07562 0.0
H4143 H 0.293 0.03161 0.96542 0.0
H4144 H 0.26276 0.9767 1.00603 0.0
H4145 H 0.29649 0.035 0.03618 0.0
C4146 C 0.29049 0.02305 0.06665 0.0
C4147 C 0.28178 1.00788 0.07978 0.0
C4148 C 0.26898 0.98928 0.99752 0.0
C4149 C 0.27944 1.00697 0.03335 0.0
C4150 C 0.26831 0.98833 0.97544 0.0
C4151 C 0.27552 1.00389 0.96189 0.0
C4152 C 0.278 1.00575 1.0083 0.0
C4153 C 0.2852 1.01977 0.9736 0.0
C4154 C 0.28941 1.02274 0.04448 0.0
C4155 C 0.27172 0.99254 0.06771 0.0
N4156 N 0.28588 1.02026 0.99508 0.0
N4157 N 0.27102 0.99254 0.04628 0.0
H4158 H 0.30498 0.99105 0.21897 0.0
H4159 H 0.27276 0.05895 0.321 0.0
H4160 H 0.27749 0.04947 0.21373 0.0
H4161 H 0.29726 0.99922 0.32656 0.0
H4162 H 0.27392 0.05575 0.28371 0.0
H4163 H 0.30215 0.99331 0.25623 0.0
C4164 C 0.29789 1.0044 0.22511 0.0
C4165 C 0.29072 1.01953 0.21103 0.0
C4166 C 0.27901 0.04305 0.29275 0.0
C4167 C 0.28797 0.02289 0.25752 0.0
C4168 C 0.27811 0.04482 0.31488 0.0
C4169 C 0.28429 0.02933 0.329 0.0
C4170 C 0.2865 0.02543 0.28257 0.0
C4171 C 0.29184 1.01202 0.31787 0.0
C4172 C 0.29634 1.00574 0.24725 0.0
C4173 C 0.28261 0.03648 0.22232 0.0
N4174 N 0.29261 1.01072 0.29644 0.0
N4175 N 0.28147 0.03749 0.24373 0.0
H4176 H 0.46938 0.31282 0.036 0.0
H4177 H 0.57199 0.23904 0.02628 0.0
H4178 H 0.46456 0.24805 0.03764 0.0
H4179 H 0.57723 0.30202 0.04108 0.0
H4180 H 0.53457 0.24212 0.02725 0.0
H4181 H 0.50682 0.30974 0.0349 0.0
C4182 C 0.47571 0.29773 0.03592 0.0
C4183 C 0.46179 0.28084 0.03677 0.0
C4184 C 0.54358 0.25554 0.0302 0.0
C4185 C 0.50825 0.27688 0.03538 0.0
C4186 C 0.56575 0.2538 0.02945 0.0
C4187 C 0.57979 0.27017 0.03323 0.0
C4188 C 0.53333 0.27415 0.03456 0.0
C4189 C 0.56859 0.28846 0.03778 0.0
C4190 C 0.49789 0.29596 0.0354 0.0
C4191 C 0.47311 0.26205 0.03698 0.0
N4192 N 0.54713 0.28979 0.03809 0.0
N4193 N 0.49455 0.26078 0.03614 0.0
H4194 H 0.96889 0.24693 0.986 0.0
H4195 H 0.07188 0.2958 0.04084 0.0
H4196 H 0.96356 0.29123 0.03284 0.0
H4197 H 0.0748 0.25642 0.98951 0.0
H4198 H 0.03445 0.2936 0.03977 0.0
H4199 H 1.00601 0.24902 0.98864 0.0
C4200 C 0.97507 0.25685 0.9974 0.0
C4201 C 0.96108 0.26801 1.00969 0.0
C4202 C 0.04299 0.28537 0.02853 0.0
C4203 C 1.00726 0.27127 1.01264 0.0
C4204 C 0.06514 0.28681 0.029 0.0
C4205 C 0.07843 0.27674 1.01507 0.0
C4206 C 0.03218 0.27343 1.01398 0.0
C4207 C 0.06668 0.26481 1.00092 0.0
C4208 C 0.99707 0.25817 0.99879 0.0
C4209 C 0.97218 0.2811 1.02338 0.0
N4210 N 0.04528 0.26365 1.00083 0.0
N4211 N 0.99363 0.28215 1.02442 0.0
H4212 H 1.02206 0.71798 0.22722 0.0
H4213 H 1.01121 0.82635 0.29174 0.0
H4214 H 0.02548 0.71902 0.2919 0.0
H4215 H 0.02878 0.82668 0.22942 0.0
H4216 H 1.01278 0.78879 0.2917 0.0
H4217 H 1.02092 0.75564 0.2271 0.0
C4218 C 1.02249 0.72567 0.24166 0.0
C4219 C 0.0241 0.71337 0.25963 0.0
C4220 C 1.01629 0.79675 0.27782 0.0
C4221 C 1.02241 0.75993 0.25962 0.0
C4222 C 1.01524 0.81897 0.27776 0.0
C4223 C 1.01971 0.83164 0.26056 0.0
C4224 C 1.02146 0.7851 0.2603 0.0
C4225 C 0.02517 0.81909 0.24348 0.0
C4226 C 1.02192 0.74794 0.24153 0.0
C4227 C 0.02467 0.72629 0.2773 0.0
N4228 N 0.02561 0.79761 0.24383 0.0
N4229 N 0.02366 0.74774 0.27676 0.0
H4230 H 0.56893 0.80799 0.52329 0.0
H4231 H 0.46323 0.73998 0.50681 0.0
H4232 H 0.57107 0.74438 0.511 0.0
H4233 H 0.46204 0.80339 0.52042 0.0
H4234 H 0.50067 0.74072 0.50924 0.0
H4235 H 0.53155 0.80635 0.52325 0.0
C4236 C 0.562 0.79337 0.5211 0.0
C4237 C 0.57508 0.77632 0.51795 0.0
C4238 C 0.49251 0.7546 0.51209 0.0
C4239 C 0.52879 0.7742 0.51697 0.0
C4240 C 0.47035 0.75416 0.51091 0.0
C4241 C 0.45751 0.77139 0.51434 0.0
C4242 C 0.50382 0.77269 0.51627 0.0
C4243 C 0.46978 0.78911 0.51847 0.0
C4244 C 0.53987 0.79248 0.52075 0.0
C4245 C 0.56309 0.75835 0.51392 0.0
N4246 N 0.49117 0.78917 0.51933 0.0
N4247 N 0.54165 0.75789 0.51366 0.0
H4248 H 0.96559 0.78986 0.50363 0.0
H4249 H 0.07496 0.77587 0.56537 0.0
H4250 H 0.96621 0.77047 0.56553 0.0
H4251 H 0.0719 0.76445 0.50166 0.0
H4252 H 0.0375 0.77897 0.566 0.0
H4253 H 1.00302 0.786 0.50264 0.0
C4254 C 0.97314 0.78489 0.51729 0.0
C4255 C 0.96079 0.7806 0.53472 0.0
C4256 C 0.0447 0.77583 0.55167 0.0
C4257 C 1.00713 0.7763 0.53378 0.0
C4258 C 0.06686 0.77406 0.55123 0.0
C4259 C 0.07854 0.7696 0.53342 0.0
C4260 C 0.0322 0.77395 0.53399 0.0
C4261 C 0.06511 0.76759 0.51616 0.0
C4262 C 0.99528 0.78255 0.51664 0.0
C4263 C 0.97354 0.77406 0.55136 0.0
N4264 N 0.04378 0.76995 0.51691 0.0
N4265 N 0.99492 0.77249 0.55048 0.0
H4266 H 0.04018 0.21774 0.26652 0.0
H4267 H 0.99984 0.33055 0.30948 0.0
H4268 H 0.99498 0.22402 0.31236 0.0
H4269 H 0.04699 0.32706 0.26523 0.0
H4270 H 0.99752 0.29303 0.30949 0.0
H4271 H 0.04224 0.25546 0.26419 0.0
C4272 C 0.03009 0.22654 0.27586 0.0
C4273 C 1.01657 0.21572 0.28919 0.0
C4274 C 1.00845 0.30014 0.29956 0.0
C4275 C 1.01977 0.26225 0.28718 0.0
C4276 C 1.00982 0.32235 0.29949 0.0
C4277 C 0.0236 0.33397 0.28718 0.0
C4278 C 1.0209 0.28743 0.28721 0.0
C4279 C 0.03578 0.32036 0.27508 0.0
C4280 C 0.03155 0.24886 0.2747 0.0
C4281 C 1.00532 0.23008 0.30126 0.0
N4282 N 0.03412 0.29892 0.27544 0.0
N4283 N 1.00708 0.25137 0.2999 0.0
H4284 H 0.55751 0.82423 0.76893 0.0
H4285 H 0.49515 0.71986 0.80479 0.0
H4286 H 0.50007 0.82675 0.79863 0.0
H4287 H 0.54722 0.71587 0.76659 0.0
H4288 H 0.49705 0.75719 0.80285 0.0
H4289 H 0.55489 0.78673 0.76813 0.0
C4290 C 0.54404 0.8174 0.77512 0.0
C4291 C 0.52895 0.83067 0.78343 0.0
C4292 C 0.50806 0.74851 0.79447 0.0
C4293 C 0.52581 0.78419 0.78319 0.0
C4294 C 0.50685 0.72639 0.79538 0.0
C4295 C 0.52024 0.7127 0.78507 0.0
C4296 C 0.52353 0.75913 0.78365 0.0
C4297 C 0.53551 0.72424 0.77429 0.0
C4298 C 0.54259 0.79518 0.77479 0.0
C4299 C 0.51246 0.81871 0.79165 0.0
N4300 N 0.53659 0.74574 0.77397 0.0
N4301 N 0.51152 0.79727 0.79132 0.0
H4302 H 1.00531 0.46762 0.74589 0.0
H4303 H 0.02528 0.57793 0.80613 0.0
H4304 H 1.0188 0.46959 0.80913 0.0
H4305 H 1.00236 0.57607 0.74549 0.0
H4306 H 0.02535 0.54035 0.80687 0.0
H4307 H 1.00669 0.50513 0.74473 0.0
C4308 C 1.00946 0.47544 0.75968 0.0
C4309 C 1.01343 0.46315 0.77736 0.0
C4310 C 1.02038 0.54779 0.79314 0.0
C4311 C 1.0141 0.51008 0.77632 0.0
C4312 C 1.02032 0.57009 0.79263 0.0
C4313 C 1.01416 0.58232 0.77557 0.0
C4314 C 1.01426 0.53545 0.77635 0.0
C4315 C 1.0079 0.56905 0.75919 0.0
C4316 C 1.00996 0.49772 0.75898 0.0
C4317 C 1.0172 0.47651 0.79442 0.0
N4318 N 1.00826 0.5475 0.76004 0.0
N4319 N 1.01756 0.49805 0.79335 0.0
H4320 H 0.21934 0.2451 0.49071 0.0
H4321 H 0.32656 0.259 0.55832 0.0
H4322 H 0.21728 0.26254 0.55299 0.0
H4323 H 0.32636 0.25049 0.49421 0.0
H4324 H 0.28889 0.26077 0.55748 0.0
H4325 H 0.25681 0.2469 0.49205 0.0
C4326 C 0.22623 0.24988 0.50477 0.0
C4327 C 0.21297 0.25476 0.52135 0.0
C4328 C 0.29681 0.25888 0.54332 0.0
C4329 C 0.25973 0.25581 0.52351 0.0
C4330 C 0.31921 0.25841 0.54375 0.0
C4331 C 0.3318 0.256 0.52613 0.0
C4332 C 0.28498 0.25622 0.52512 0.0
C4333 C 0.31893 0.25325 0.5085 0.0
C4334 C 0.24849 0.25074 0.50557 0.0
C4335 C 0.22522 0.25954 0.53903 0.0
N4336 N 0.29751 0.25347 0.50854 0.0
N4337 N 0.24672 0.25998 0.53949 0.0
H4338 H 0.51533 0.46914 0.23889 0.0
H4339 H 0.55694 0.57281 0.29795 0.0
H4340 H 0.54926 0.46646 0.29411 0.0
H4341 H 0.51465 0.57773 0.24905 0.0
H4342 H 0.55459 0.53569 0.29611 0.0
H4343 H 0.51511 0.50664 0.24124 0.0
C4344 C 0.52265 0.47592 0.25179 0.0
C4345 C 0.53195 0.46262 0.26638 0.0
C4346 C 0.54539 0.54452 0.28581 0.0
C4347 C 0.53233 0.50909 0.26915 0.0
C4348 C 0.54657 0.56659 0.28701 0.0
C4349 C 0.53531 0.58053 0.27455 0.0
C4350 C 0.53321 0.53413 0.27126 0.0
C4351 C 0.52325 0.5692 0.26008 0.0
C4352 C 0.52261 0.49815 0.25309 0.0
C4353 C 0.54144 0.47453 0.28218 0.0
N4354 N 0.52263 0.54769 0.25899 0.0
N4355 N 0.54138 0.49597 0.28294 0.0
H4356 H 0.32992 0.77037 0.04738 0.0
H4357 H 0.21519 0.79491 0.99748 0.0
H4358 H 0.3224 0.80428 0.9926 0.0
H4359 H 0.22176 0.76912 0.0566 0.0
H4360 H 0.25268 0.79636 0.99458 0.0
H4361 H 0.29241 0.76712 0.0498 0.0
C4362 C 0.32086 0.77681 0.03533 0.0
C4363 C 0.33132 0.78715 1.01919 0.0
C4364 C 0.24624 0.79014 1.0083 0.0
C4365 C 0.28491 0.78399 1.02254 0.0
C4366 C 0.22406 0.78923 1.01005 0.0
C4367 C 0.21331 0.78145 0.02737 0.0
C4368 C 0.25976 0.78317 1.02387 0.0
C4369 C 0.22774 0.77488 0.04257 0.0
C4370 C 0.29866 0.77514 0.03695 0.0
C4371 C 0.31664 0.79566 1.00525 0.0
N4372 N 0.24908 0.77579 0.04044 0.0
N4373 N 0.29537 0.79381 1.00716 0.0
H4374 H 0.75272 0.98955 0.46903 0.0
H4375 H 0.80168 1.0204 0.58285 0.0
H4376 H 0.80692 0.02504 0.47473 0.0
H4377 H 0.74829 0.98384 0.57675 0.0
H4378 H 0.80326 0.02325 0.54536 0.0
H4379 H 0.75051 0.98799 0.50653 0.0
C4380 C 0.76433 0.9973 0.47767 0.0
C4381 C 0.78002 1.00778 0.46661 0.0
C4382 C 0.79094 1.01462 0.5519 0.0
C4383 C 0.77746 1.00578 0.51323 0.0
C4384 C 0.78984 1.01309 0.57413 0.0
C4385 C 0.77434 1.00222 0.5851 0.0
C4386 C 0.77669 1.00495 0.53848 0.0
C4387 C 0.76061 0.99273 0.57072 0.0
C4388 C 0.763 0.99631 0.49991 0.0
C4389 C 0.79411 1.01692 0.48087 0.0
N4390 N 0.76204 0.99442 0.54939 0.0
N4391 N 0.79247 1.01572 0.50223 0.0
H4392 H 0.76605 0.04776 0.33382 0.0
H4393 H 0.79685 0.99703 0.22162 0.0
H4394 H 0.80895 0.99955 0.3289 0.0
H4395 H 0.76854 0.05507 0.22576 0.0
H4396 H 0.79827 0.99556 0.25917 0.0
H4397 H 0.76329 0.04849 0.29627 0.0
C4398 C 0.7746 0.03671 0.32536 0.0
C4399 C 0.78719 0.02286 0.3366 0.0
C4400 C 0.79147 1.00872 0.25216 0.0
C4401 C 0.78439 0.0241 0.29012 0.0
C4402 C 0.79055 1.00961 0.22994 0.0
C4403 C 0.78202 0.02614 0.21848 0.0
C4404 C 0.78368 0.02439 0.26499 0.0
C4405 C 0.77475 0.0415 0.23226 0.0
C4406 C 0.77316 0.03735 0.30313 0.0
C4407 C 0.7983 1.01021 0.3226 0.0
N4408 N 0.77561 0.04017 0.25363 0.0
N4409 N 0.79646 1.01098 0.30129 0.0
H4410 H 0.74046 0.02375 0.97374 0.0
H4411 H 0.80647 0.05001 0.07926 0.0
H4412 H 0.7994 0.05096 0.97118 0.0
H4413 H 0.74624 0.02587 0.08147 0.0
H4414 H 0.80505 0.04897 0.04182 0.0
H4415 H 0.74278 0.02307 1.01108 0.0
C4416 C 0.75422 0.02945 0.98052 0.0
C4417 C 0.76972 0.03713 0.96716 0.0
C4418 C 0.79204 0.0435 0.05014 0.0
C4419 C 0.77265 0.03666 1.01379 0.0
C4420 C 0.79291 0.04388 0.07237 0.0
C4421 C 0.77692 0.03714 0.08565 0.0
C4422 C 0.77463 0.0367 0.03898 0.0
C4423 C 0.75979 0.0305 0.07351 0.0
C4424 C 0.75548 0.02917 1.00271 0.0
C4425 C 0.78659 0.0446 0.97919 0.0
N4426 N 0.75929 0.03041 0.05203 0.0
N4427 N 0.78746 0.04408 1.00067 0.0
H4428 H 0.73441 0.0347 0.72015 0.0
H4429 H 0.78957 1.01173 0.83341 0.0
H4430 H 0.78921 1.00043 0.72468 0.0
H4431 H 0.73041 0.03749 0.82754 0.0
H4432 H 0.79139 1.00957 0.79576 0.0
H4433 H 0.73409 0.03772 0.75762 0.0
C4434 C 0.74665 0.02769 0.72851 0.0
C4435 C 0.7618 1.01697 0.71708 0.0
C4436 C 0.77793 1.01604 0.8024 0.0
C4437 C 0.7616 1.0208 0.76377 0.0
C4438 C 0.77696 1.01759 0.82474 0.0
C4439 C 0.76 0.02578 0.83576 0.0
C4440 C 0.7618 1.02242 0.78905 0.0
C4441 C 0.74437 0.03168 0.82141 0.0
C4442 C 0.74638 0.02944 0.75075 0.0
C4443 C 0.77667 1.00862 0.73106 0.0
N4444 N 0.74573 0.0301 0.80011 0.0
N4445 N 0.77616 1.01074 0.75243 0.0
H4446 H 0.47089 0.81139 1.02106 0.0
H4447 H 0.57244 0.73583 1.01591 0.0
H4448 H 0.46519 0.74803 1.00788 0.0
H4449 H 0.57849 0.80018 1.0093 0.0
H4450 H 0.53508 0.73966 1.01655 0.0
H4451 H 0.50835 0.80785 1.02039 0.0
C4452 C 0.47703 0.7965 1.0182 0.0
C4453 C 0.46291 0.78013 1.01471 0.0
C4454 C 0.54427 0.7532 1.01508 0.0
C4455 C 0.50928 0.77559 1.01402 0.0
C4456 C 0.5664 0.751 1.01489 0.0
C4457 C 0.5806 0.76751 1.01285 0.0
C4458 C 0.53428 0.77242 1.01359 0.0
C4459 C 0.56966 0.78644 1.01103 0.0
C4460 C 0.4992 0.79447 1.0177 0.0
C4461 C 0.47395 0.7616 1.01084 0.0
N4462 N 0.54826 0.78818 1.01165 0.0
N4463 N 0.49536 0.76001 1.01083 0.0
H4464 H 0.9674 0.78759 0.05979 0.0
H4465 H 0.07983 0.75163 1.01343 0.0
H4466 H 0.97128 0.75241 1.00558 0.0
H4467 H 0.07362 0.79077 0.06447 0.0
H4468 H 0.04224 0.75143 1.0097 0.0
H4469 H 1.00495 0.7887 0.06131 0.0
C4470 C 0.97571 0.77996 0.04797 0.0
C4471 C 0.96428 0.76958 0.03258 0.0
C4472 C 0.04888 0.76049 1.02164 0.0
C4473 C 1.01059 0.77077 0.03443 0.0
C4474 C 0.07111 0.76097 1.02358 0.0
C4475 C 0.08191 0.77246 0.03868 0.0
C4476 C 0.03561 0.77104 0.03521 0.0
C4477 C 0.06763 0.78237 0.05188 0.0
C4478 C 0.99788 0.78057 0.04895 0.0
C4479 C 0.97789 0.76022 1.01829 0.0
N4480 N 0.0464 0.78152 0.04983 0.0
N4481 N 0.99926 0.76103 1.01959 0.0
H4482 H 0.99646 0.21574 0.78372 0.0
H4483 H 0.05505 0.32834 0.78747 0.0
H4484 H 0.06102 0.22087 0.77904 0.0
H4485 H 0.991 0.32333 0.77772 0.0
H4486 H 0.05746 0.29077 0.78663 0.0
H4487 H 0.99413 0.25331 0.78369 0.0
C4488 C 1.0104 0.22435 0.78256 0.0
C4489 C 0.02907 0.21332 0.78097 0.0
C4490 C 0.04272 0.2976 0.78457 0.0
C4491 C 0.02635 0.25956 0.78146 0.0
C4492 C 0.04126 0.31976 0.78504 0.0
C4493 C 1.02271 0.33083 0.78235 0.0
C4494 C 0.02549 0.28459 0.78178 0.0
C4495 C 1.00594 0.31694 0.77953 0.0
C4496 C 1.00898 0.24652 0.78257 0.0
C4497 C 0.046 0.22724 0.77981 0.0
N4498 N 1.00774 0.2956 0.77946 0.0
N4499 N 0.04422 0.24858 0.78019 0.0
H4500 H 0.47121 0.24335 0.51178 0.0
H4501 H 0.57531 0.30065 0.55547 0.0
H4502 H 0.46831 0.29325 0.553 0.0
H4503 H 0.57879 0.24797 0.51794 0.0
H4504 H 0.53797 0.29931 0.55316 0.0
H4505 H 0.50846 0.24537 0.5126 0.0
C4506 C 0.47784 0.25487 0.52119 0.0
C4507 C 0.46452 0.2679 0.5324 0.0
C4508 C 0.54657 0.28806 0.54501 0.0
C4509 C 0.51089 0.27082 0.53315 0.0
C4510 C 0.56866 0.28895 0.54612 0.0
C4511 C 0.58216 0.27516 0.53612 0.0
C4512 C 0.53587 0.27272 0.53407 0.0
C4513 C 0.57054 0.25996 0.52536 0.0
C4514 C 0.49999 0.25609 0.52155 0.0
C4515 C 0.47639 0.28246 0.54378 0.0
N4516 N 0.54908 0.25934 0.52465 0.0
N4517 N 0.49782 0.28341 0.54374 0.0
H4518 H 0.97067 0.3073 0.52165 0.0
H4519 H 0.07374 0.23475 0.51007 0.0
H4520 H 0.96637 0.24456 0.50544 0.0
H4521 H 0.07836 0.29948 0.51291 0.0
H4522 H 0.03634 0.23757 0.51079 0.0
H4523 H 1.00812 0.30467 0.52101 0.0
C4524 C 0.97712 0.29272 0.51809 0.0
C4525 C 0.96339 0.27623 0.51379 0.0
C4526 C 0.04521 0.25139 0.51139 0.0
C4527 C 1.00978 0.27284 0.513 0.0
C4528 C 0.06736 0.24976 0.51117 0.0
C4529 C 0.08117 0.26671 0.51175 0.0
C4530 C 0.03481 0.27037 0.51247 0.0
C4531 C 0.06984 0.28545 0.51247 0.0
C4532 C 0.9993 0.29124 0.51762 0.0
C4533 C 0.97482 0.25816 0.50908 0.0
N4534 N 0.0484 0.28657 0.51297 0.0
N4535 N 0.99625 0.2571 0.50899 0.0
H4536 H 0.03728 0.71648 0.73644 0.0
H4537 H 1.00946 0.82983 0.7879 0.0
H4538 H 1.00107 0.72025 0.78995 0.0
H4539 H 0.04493 0.82294 0.73433 0.0
H4540 H 1.00697 0.79214 0.79035 0.0
H4541 H 0.04041 0.75397 0.73635 0.0
C4542 C 0.02993 0.72471 0.74848 0.0
C4543 C 1.01893 0.71312 0.76337 0.0
C4544 C 1.01569 0.7986 0.77807 0.0
C4545 C 1.02265 0.75976 0.7633 0.0
C4546 C 1.01755 0.82095 0.77687 0.0
C4547 C 0.02859 0.83168 0.76132 0.0
C4548 C 0.02444 0.78501 0.76344 0.0
C4549 C 0.03682 0.81707 0.74721 0.0
C4550 C 0.03177 0.74693 0.74836 0.0
C4551 C 1.01 0.72686 0.77795 0.0
N4552 N 0.03472 0.7958 0.74864 0.0
N4553 N 1.01204 0.7483 0.77749 0.0
H4554 H 0.55811 0.3228 0.24381 0.0
H4555 H 0.49235 0.21878 0.27548 0.0
H4556 H 0.50111 0.3265 0.27421 0.0
H4557 H 0.55027 0.21507 0.24679 0.0
H4558 H 0.49539 0.25615 0.27582 0.0
H4559 H 0.55612 0.28536 0.24558 0.0
C4560 C 0.54526 0.3162 0.25152 0.0
C4561 C 0.53042 0.32984 0.25974 0.0
C4562 C 0.50771 0.2475 0.26946 0.0
C4563 C 0.52722 0.28331 0.26097 0.0
C4564 C 0.50603 0.22532 0.26939 0.0
C4565 C 0.52104 0.2117 0.26145 0.0
C4566 C 0.52479 0.25821 0.26137 0.0
C4567 C 0.53786 0.22335 0.25341 0.0
C4568 C 0.544 0.29401 0.2523 0.0
C4569 C 0.51388 0.31819 0.26832 0.0
N4570 N 0.53909 0.24484 0.25365 0.0
N4571 N 0.51292 0.29669 0.26868 0.0
H4572 H 0.54278 0.07593 0.74547 0.0
H4573 H 0.53255 0.96831 0.81225 0.0
H4574 H 0.52594 0.07695 0.80791 0.0
H4575 H 0.53912 0.96852 0.74791 0.0
H4576 H 0.52976 1.00587 0.81149 0.0
H4577 H 0.54147 0.03855 0.7462 0.0
C4578 C 0.53814 0.06889 0.75944 0.0
C4579 C 0.53321 0.08188 0.77626 0.0
C4580 C 0.53134 0.99798 0.79725 0.0
C4581 C 0.53299 0.03505 0.7777 0.0
C4582 C 0.53248 0.97566 0.79763 0.0
C4583 C 0.53453 0.96306 0.77995 0.0
C4584 C 0.53311 1.00981 0.77903 0.0
C4585 C 0.53636 0.97592 0.76222 0.0
C4586 C 0.53763 0.04661 0.75988 0.0
C4587 C 0.52886 0.06928 0.79378 0.0
N4588 N 0.53558 0.99736 0.76231 0.0
N4589 N 0.52881 0.04777 0.79391 0.0
H4590 H 0.21649 0.32183 0.03089 0.0
H4591 H 0.32733 0.26364 1.01484 0.0
H4592 H 0.21627 0.25811 1.01934 0.0
H4593 H 0.32073 0.32095 0.04412 0.0
H4594 H 0.28966 0.26048 1.01353 0.0
H4595 H 0.25356 0.32138 0.03235 0.0
C4596 C 0.22371 0.30742 0.02813 0.0
C4597 C 0.21087 0.29009 1.02413 0.0
C4598 C 0.29618 0.27374 1.02067 0.0
C4599 C 0.25756 0.28945 0.02621 0.0
C4600 C 0.31851 0.27537 1.02192 0.0
C4601 C 0.32927 0.29209 0.03113 0.0
C4602 C 0.28272 0.28933 0.02774 0.0
C4603 C 0.31479 0.30713 0.03769 0.0
C4604 C 0.2458 0.30727 0.02916 0.0
C4605 C 0.2236 0.27242 1.02146 0.0
N4606 N 0.29355 0.3054 0.0359 0.0
N4607 N 0.24517 0.27267 1.02239 0.0
H4608 H 0.99777 0.08053 0.24918 0.0
H4609 H 0.02478 0.96602 0.29868 0.0
H4610 H 0.02376 0.0747 0.30836 0.0
H4611 H 0.9905 0.97308 0.24408 0.0
H4612 H 0.0271 1.0036 0.30141 0.0
H4613 H 0.99712 0.04303 0.24632 0.0
C4614 C 1.0036 0.07183 0.2618 0.0
C4615 C 1.01106 0.08285 0.27912 0.0
C4616 C 1.0192 0.99726 0.28852 0.0
C4617 C 1.01037 0.03621 0.27563 0.0
C4618 C 1.01807 0.97499 0.28672 0.0
C4619 C 1.00805 0.96432 0.27046 0.0
C4620 C 1.01005 1.01094 0.27421 0.0
C4621 C 0.99905 0.97895 0.25674 0.0
C4622 C 1.00316 0.0496 0.26006 0.0
C4623 C 1.01797 0.06856 0.29435 0.0
N4624 N 1.00041 1.00028 0.2588 0.0
N4625 N 1.01752 0.04714 0.2922 0.0
H4626 H 0.31989 0.77899 0.49255 0.0
H4627 H 0.21518 0.74505 0.5551 0.0
H4628 H 0.32276 0.75215 0.55149 0.0
H4629 H 0.21277 0.77245 0.49636 0.0
H4630 H 0.25255 0.74839 0.55476 0.0
H4631 H 0.28246 0.77773 0.49406 0.0
C4632 C 0.3131 0.77307 0.50614 0.0
C4633 C 0.3264 0.76616 0.52196 0.0
C4634 C 0.24413 0.75405 0.54188 0.0
C4635 C 0.28009 0.76402 0.52383 0.0
C4636 C 0.222 0.75227 0.54211 0.0
C4637 C 0.20882 0.75911 0.52612 0.0
C4638 C 0.25511 0.76244 0.52517 0.0
C4639 C 0.22076 0.76744 0.50976 0.0
C4640 C 0.29095 0.77215 0.50693 0.0
C4641 C 0.31462 0.7581 0.53858 0.0
N4642 N 0.24215 0.76882 0.50984 0.0
N4643 N 0.29318 0.75736 0.53895 0.0
H4644 H 0.80039 0.55495 0.96717 0.0
H4645 H 0.73938 0.52278 0.07361 0.0
H4646 H 0.7417 0.52713 0.9659 0.0
H4647 H 0.79672 0.5534 0.07503 0.0
H4648 H 0.74046 0.52306 0.03621 0.0
H4649 H 0.79997 0.55354 1.00455 0.0
C4650 C 0.78729 0.54821 0.97423 0.0
C4651 C 0.77141 0.54057 0.96123 0.0
C4652 C 0.75306 0.52973 0.04436 0.0
C4653 C 0.77052 0.53921 1.00784 0.0
C4654 C 0.75253 0.52946 0.06656 0.0
C4655 C 0.76806 0.53775 0.07955 0.0
C4656 C 0.76938 0.53847 0.03299 0.0
C4657 C 0.78406 0.54643 0.06725 0.0
C4658 C 0.78708 0.54742 0.99644 0.0
C4659 C 0.75509 0.53265 0.97363 0.0
N4660 N 0.7842 0.54645 0.04579 0.0
N4661 N 0.75524 0.53214 0.99508 0.0
H4662 H 0.75416 0.55592 0.21557 0.0
H4663 H 0.76813 0.48815 0.32217 0.0
H4664 H 0.76864 0.4927 0.21552 0.0
H4665 H 0.75485 0.55159 0.3244 0.0
H4666 H 0.76887 0.49002 0.28484 0.0
H4667 H 0.75495 0.55546 0.25309 0.0
C4668 C 0.75816 0.54184 0.22289 0.0
C4669 C 0.76239 0.52454 0.21027 0.0
C4670 C 0.76584 0.50379 0.29314 0.0
C4671 C 0.76226 0.5236 0.25688 0.0
C4672 C 0.76556 0.50276 0.31528 0.0
C4673 C 0.76178 0.51966 0.32847 0.0
C4674 C 0.76216 0.52206 0.282 0.0
C4675 C 0.75804 0.53767 0.31643 0.0
C4676 C 0.75832 0.54155 0.24517 0.0
C4677 C 0.76599 0.507 0.223 0.0
N4678 N 0.75836 0.53824 0.29495 0.0
N4679 N 0.76595 0.50712 0.2444 0.0
H4680 H 0.80967 0.52328 0.57113 0.0
H4681 H 0.74485 0.48907 0.46801 0.0
H4682 H 0.75119 0.49534 0.57477 0.0
H4683 H 0.80026 0.52264 0.46329 0.0
H4684 H 0.74705 0.49112 0.50517 0.0
H4685 H 0.80701 0.52327 0.53381 0.0
C4686 C 0.79593 0.5174 0.56459 0.0
C4687 C 0.78058 0.50989 0.57815 0.0
C4688 C 0.7588 0.4984 0.49636 0.0
C4689 C 0.77739 0.50905 0.53177 0.0
C4690 C 0.75749 0.49733 0.47429 0.0
C4691 C 0.77177 0.50627 0.46044 0.0
C4692 C 0.77513 0.50818 0.50676 0.0
C4693 C 0.78795 0.51593 0.47178 0.0
C4694 C 0.79448 0.51719 0.54245 0.0
C4695 C 0.7638 0.50176 0.56651 0.0
N4696 N 0.78901 0.51655 0.49322 0.0
N4697 N 0.76283 0.50162 0.54509 0.0
H4698 H 0.80453 0.50315 0.82785 0.0
H4699 H 0.76708 0.5409 0.71167 0.0
H4700 H 0.76016 0.54959 0.81975 0.0
H4701 H 0.81192 0.4951 0.72073 0.0
H4702 H 0.76335 0.54359 0.74905 0.0
H4703 H 0.80664 0.49962 0.79051 0.0
C4704 C 0.79498 0.51284 0.81871 0.0
C4705 C 0.78209 0.52703 0.8291 0.0
C4706 C 0.77393 0.5326 0.74319 0.0
C4707 C 0.78463 0.52273 0.78259 0.0
C4708 C 0.7759 0.53074 0.72102 0.0
C4709 C 0.78933 0.51683 0.71095 0.0
C4710 C 0.7857 0.52092 0.75739 0.0
C4711 C 0.80076 0.50569 0.72609 0.0
C4712 C 0.79631 0.51075 0.79656 0.0
C4713 C 0.77072 0.53856 0.81421 0.0
N4714 N 0.79864 0.50785 0.7473 0.0
N4715 N 0.77223 0.53619 0.79293 0.0
H4716 H 0.50629 0.32495 0.79528 0.0
H4717 H 0.52052 0.21736 0.73137 0.0
H4718 H 0.52906 0.32569 0.7347 0.0
H4719 H 0.52423 0.21816 0.7961 0.0
H4720 H 0.51918 0.25501 0.73139 0.0
H4721 H 0.50808 0.28743 0.79524 0.0
C4722 C 0.51152 0.31768 0.78169 0.0
C4723 C 0.51737 0.33036 0.76498 0.0
C4724 C 0.52021 0.24723 0.74578 0.0
C4725 C 0.51939 0.28405 0.76467 0.0
C4726 C 0.52091 0.22502 0.74582 0.0
C4727 C 0.52261 0.21279 0.76377 0.0
C4728 C 0.52055 0.25906 0.76393 0.0
C4729 C 0.52314 0.22553 0.78152 0.0
C4730 C 0.51271 0.29551 0.78175 0.0
C4731 C 0.52431 0.318 0.74835 0.0
N4732 N 0.52191 0.24691 0.78107 0.0
N4733 N 0.52483 0.29657 0.74863 0.0
H4734 H 0.47503 0.96844 0.28127 0.0
H4735 H 0.53884 0.07752 0.28504 0.0
H4736 H 0.5395 0.96582 0.27665 0.0
H4737 H 0.47797 0.07202 0.26343 0.0
H4738 H 0.54096 0.03977 0.2862 0.0
H4739 H 0.47676 1.0055 0.27937 0.0
C4740 C 0.48999 0.97515 0.28068 0.0
C4741 C 0.50718 0.96169 0.28072 0.0
C4742 C 0.52707 0.04657 0.28078 0.0
C4743 C 0.50939 1.00831 0.27785 0.0
C4744 C 0.52599 0.06895 0.2796 0.0
C4745 C 0.50854 0.08006 0.27253 0.0
C4746 C 0.51022 0.03344 0.27596 0.0
C4747 C 0.49231 0.06587 0.26811 0.0
C4748 C 0.49087 0.99721 0.27932 0.0
C4749 C 0.52551 0.97373 0.27859 0.0
N4750 N 0.49355 0.04461 0.26991 0.0
N4751 N 0.52602 0.9953 0.27754 0.0
H4752 H 0.82564 0.72349 1.02332 0.0
H4753 H 0.71556 0.78538 0.02764 0.0
H4754 H 0.82663 0.78824 1.0223 0.0
H4755 H 0.72124 0.72213 1.01629 0.0
H4756 H 0.75314 0.78848 0.02723 0.0
H4757 H 0.78857 0.72404 1.02274 0.0
C4758 C 0.81859 0.73822 1.02378 0.0
C4759 C 0.83165 0.75583 1.02438 0.0
C4760 C 0.74643 0.77383 1.02407 0.0
C4761 C 0.7849 0.75663 1.02275 0.0
C4762 C 0.72405 0.77218 1.02347 0.0
C4763 C 0.71292 0.75374 1.01932 0.0
C4764 C 0.75968 0.7567 1.02159 0.0
C4765 C 0.72726 0.73723 1.01768 0.0
C4766 C 0.79649 0.73843 1.02314 0.0
C4767 C 0.81911 0.77386 1.02353 0.0
N4768 N 0.74854 0.7391 1.01868 0.0
N4769 N 0.79751 0.77369 1.02293 0.0
H4770 H 0.02867 0.07936 0.74386 0.0
H4771 H 0.04296 0.96729 0.80198 0.0
H4772 H 0.04319 0.07501 0.80687 0.0
H4773 H 0.02354 0.97172 0.74024 0.0
H4774 H 0.04308 1.00488 0.80406 0.0
H4775 H 0.02612 0.04185 0.74238 0.0
C4776 C 0.03079 0.07098 0.75779 0.0
C4777 C 0.03538 0.08235 0.7758 0.0
C4778 C 0.03863 0.99794 0.78991 0.0
C4779 C 0.03354 0.03592 0.77384 0.0
C4780 C 0.03851 0.97572 0.78864 0.0
C4781 C 0.03292 0.96442 0.77086 0.0
C4782 C 0.03331 1.01082 0.77324 0.0
C4783 C 0.02769 0.97821 0.75463 0.0
C4784 C 0.0296 0.0488 0.75679 0.0
C4785 C 0.03902 0.06855 0.79246 0.0
N4786 N 0.02808 0.99959 0.75623 0.0
N4787 N 0.03801 0.04717 0.79105 0.0
H4788 H 0.7209 0.27113 0.5593 0.0
H4789 H 0.82392 0.29657 0.48947 0.0
H4790 H 0.71672 0.29486 0.49906 0.0
H4791 H 0.82893 0.27538 0.55052 0.0
H4792 H 0.78657 0.29459 0.49214 0.0
H4793 H 0.75837 0.2712 0.55632 0.0
C4794 C 0.72735 0.27625 0.54518 0.0
C4795 C 0.71362 0.28276 0.52948 0.0
C4796 C 0.7955 0.29 0.50509 0.0
C4797 C 0.7601 0.28313 0.52574 0.0
C4798 C 0.81766 0.29097 0.50351 0.0
C4799 C 0.83164 0.28544 0.51935 0.0
C4800 C 0.78517 0.28372 0.5231 0.0
C4801 C 0.82035 0.27918 0.53709 0.0
C4802 C 0.74956 0.27639 0.5435 0.0
C4803 C 0.72513 0.28944 0.51203 0.0
N4804 N 0.79889 0.2785 0.53827 0.0
N4805 N 0.74656 0.28936 0.51081 0.0
H4806 H 0.24148 0.49146 0.07659 0.0
H4807 H 0.3086 0.52091 0.97308 0.0
H4808 H 0.30129 0.5164 0.08115 0.0
H4809 H 0.24974 0.49351 0.96957 0.0
H4810 H 0.30615 0.5206 1.0105 0.0
H4811 H 0.24384 0.49316 0.03933 0.0
C4812 C 0.25526 0.49757 0.07025 0.0
C4813 C 0.27083 0.50418 0.08412 0.0
C4814 C 0.29353 0.51464 1.00186 0.0
C4815 C 0.27407 0.50602 0.03767 0.0
C4816 C 0.29488 0.5149 0.97967 0.0
C4817 C 0.27938 0.50749 0.96612 0.0
C4818 C 0.27633 0.50679 1.01259 0.0
C4819 C 0.2625 0.49971 0.97781 0.0
C4820 C 0.2566 0.49856 0.04813 0.0
C4821 C 0.28807 0.51159 0.07269 0.0
N4822 N 0.26159 0.49966 0.99924 0.0
N4823 N 0.28902 0.5123 0.05124 0.0
H4824 H 0.26841 0.54581 0.83337 0.0
H4825 H 0.29463 0.4961 0.7195 0.0
H4826 H 0.3033 0.49172 0.8264 0.0
H4827 H 0.26636 0.55398 0.72556 0.0
H4828 H 0.29596 0.49334 0.75695 0.0
H4829 H 0.26523 0.54799 0.79588 0.0
C4830 C 0.27509 0.53387 0.82444 0.0
C4831 C 0.28565 0.51796 0.83499 0.0
C4832 C 0.28928 0.50678 0.75039 0.0
C4833 C 0.28255 0.52101 0.78874 0.0
C4834 C 0.28841 0.50844 0.72824 0.0
C4835 C 0.28 0.52539 0.71736 0.0
C4836 C 0.28171 0.52214 0.76369 0.0
C4837 C 0.27274 0.54031 0.7316 0.0
C4838 C 0.27344 0.53534 0.80228 0.0
C4839 C 0.29452 0.50418 0.82052 0.0
N4840 N 0.27371 0.53833 0.7529 0.0
N4841 N 0.29266 0.50591 0.7993 0.0
H4842 H 0.30232 0.55781 0.57883 0.0
H4843 H 0.24326 0.51914 0.47345 0.0
H4844 H 0.24925 0.52043 0.5812 0.0
H4845 H 0.29737 0.555 0.47123 0.0
H4846 H 0.24538 0.51877 0.5108 0.0
H4847 H 0.30125 0.55638 0.54146 0.0
C4848 C 0.29058 0.54866 0.57197 0.0
C4849 C 0.27659 0.53841 0.58524 0.0
C4850 C 0.25705 0.52675 0.50249 0.0
C4851 C 0.27452 0.53736 0.53872 0.0
C4852 C 0.25591 0.52686 0.48031 0.0
C4853 C 0.27021 0.53674 0.4671 0.0
C4854 C 0.27275 0.53687 0.51361 0.0
C4855 C 0.28565 0.54673 0.47917 0.0
C4856 C 0.28987 0.54803 0.5498 0.0
C4857 C 0.2614 0.528 0.57321 0.0
N4858 N 0.28636 0.54647 0.50063 0.0
N4859 N 0.26095 0.52775 0.55174 0.0
H4860 H 0.23404 0.54055 0.32744 0.0
H4861 H 0.2909 0.49521 0.22396 0.0
H4862 H 0.29038 0.50909 0.33267 0.0
H4863 H 0.24054 0.53572 0.22061 0.0
H4864 H 0.29086 0.49857 0.26133 0.0
H4865 H 0.23607 0.53811 0.29035 0.0
C4866 C 0.24736 0.53347 0.32127 0.0
C4867 C 0.26234 0.52606 0.33542 0.0
C4868 C 0.27962 0.50688 0.25276 0.0
C4869 C 0.26446 0.52188 0.2888 0.0
C4870 C 0.27955 0.50482 0.23054 0.0
C4871 C 0.2657 0.51494 0.21693 0.0
C4872 C 0.26545 0.51921 0.26361 0.0
C4873 C 0.25196 0.52727 0.22877 0.0
C4874 C 0.24837 0.53185 0.29919 0.0
C4875 C 0.27835 0.51618 0.3241 0.0
N4876 N 0.2522 0.52877 0.25021 0.0
N4877 N 0.27881 0.51452 0.30258 0.0
H4878 H 0.48578 0.82227 0.28609 0.0
H4879 H 0.55698 0.71798 0.28274 0.0
H4880 H 0.55056 0.82516 0.28965 0.0
H4881 H 0.4927 0.71458 0.29122 0.0
H4882 H 0.55487 0.75541 0.28297 0.0
H4883 H 0.48768 0.78476 0.28569 0.0
C4884 C 0.50063 0.81545 0.28645 0.0
C4885 C 0.51794 0.82873 0.28751 0.0
C4886 C 0.54101 0.74679 0.28474 0.0
C4887 C 0.52042 0.78246 0.2873 0.0
C4888 C 0.54218 0.72466 0.28449 0.0
C4889 C 0.52509 0.71124 0.28678 0.0
C4890 C 0.52237 0.7575 0.28712 0.0
C4891 C 0.50675 0.72285 0.28932 0.0
C4892 C 0.50169 0.79329 0.28643 0.0
C4893 C 0.53635 0.81699 0.28867 0.0
N4894 N 0.50602 0.7443 0.28927 0.0
N4895 N 0.53696 0.79556 0.28837 0.0
H4896 H 0.08102 0.39934 0.33973 0.0
H4897 H 0.11733 0.29027 0.37636 0.0
H4898 H 0.06116 0.34454 0.31077 0.0
H4899 H 0.13129 0.3462 0.40715 0.0
H4900 H 0.09996 0.30952 0.34985 0.0
H4901 H 0.10422 0.38015 0.36058 0.0
C4902 C 0.08218 0.38333 0.33715 0.0
C4903 C 0.06948 0.37374 0.3231 0.0
C4904 C 0.10684 0.31758 0.36237 0.0
C4905 C 0.09516 0.35104 0.34811 0.0
C4906 C 0.11672 0.30663 0.37755 0.0
C4907 C 0.1258 0.31665 0.39403 0.0
C4908 C 0.10607 0.33878 0.36357 0.0
C4909 C 0.12434 0.33782 0.39488 0.0
C4910 C 0.09521 0.37222 0.34938 0.0
C4911 C 0.07106 0.35265 0.32103 0.0
N4912 N 0.11474 0.34815 0.37985 0.0
N4913 N 0.08346 0.34192 0.33364 0.0
H4914 H 0.91936 0.88351 0.66434 0.0
H4915 H 0.9499 0.80696 0.57781 0.0
H4916 H 0.97376 0.84757 0.66603 0.0
H4917 H 0.89907 0.8473 0.57397 0.0
H4918 H 0.96316 0.82679 0.60612 0.0
H4919 H 0.91483 0.87456 0.62874 0.0
C4920 C 0.9304 0.87378 0.65721 0.0
C4921 C 0.94682 0.86606 0.66836 0.0
C4922 C 0.94941 0.83175 0.59867 0.0
C4923 C 0.94178 0.85579 0.62735 0.0
C4924 C 0.94205 0.82066 0.58214 0.0
C4925 C 0.92318 0.82527 0.57348 0.0
C4926 C 0.93766 0.8475 0.60672 0.0
C4927 C 0.91349 0.8429 0.58018 0.0
C4928 C 0.92791 0.86881 0.63679 0.0
C4929 C 0.96087 0.85388 0.65811 0.0
N4930 N 0.92051 0.85305 0.59668 0.0
N4931 N 0.95788 0.8489 0.63833 0.0
H4932 H 0.48995 0.7027 0.84083 0.0
H4933 H 0.39833 0.67278 0.90295 0.0
H4934 H 0.44268 0.67014 0.80949 0.0
H4935 H 0.41306 0.73671 0.90098 0.0
H4936 H 0.41711 0.66826 0.87142 0.0
H4937 H 0.46512 0.71317 0.86633 0.0
C4938 C 0.47421 0.69831 0.83901 0.0
C4939 C 0.46818 0.68591 0.82291 0.0
C4940 C 0.41596 0.68326 0.87794 0.0
C4941 C 0.44024 0.69679 0.85234 0.0
C4942 C 0.40521 0.68592 0.89591 0.0
C4943 C 0.40435 0.70512 0.90509 0.0
C4944 C 0.42628 0.69977 0.86936 0.0
C4945 C 0.4139 0.72146 0.89511 0.0
C4946 C 0.46015 0.70416 0.85354 0.0
C4947 C 0.44774 0.68018 0.8214 0.0
N4948 N 0.42484 0.71833 0.87806 0.0
N4949 N 0.43453 0.6852 0.83629 0.0
H4950 H 0.58968 0.2451 0.06657 0.0
H4951 H 0.59124 0.15943 0.15093 0.0
H4952 H 0.64093 0.20637 0.07674 0.0
H4953 H 0.53617 0.18741 0.1298 0.0
H4954 H 0.60986 0.1767 0.12381 0.0
H4955 H 0.56912 0.22291 0.08777 0.0
C4956 C 0.59638 0.23138 0.07245 0.0
C4957 C 0.61697 0.22739 0.06956 0.0
C4958 C 0.59369 0.17902 0.12508 0.0
C4959 C 0.59402 0.20271 0.09517 0.0
C4960 C 0.58315 0.16941 0.14072 0.0
C4961 C 0.5622 0.17209 0.14261 0.0
C4962 C 0.58321 0.19155 0.1114 0.0
C4963 C 0.55234 0.18492 0.1288 0.0
C4964 C 0.58476 0.21892 0.08497 0.0
C4965 C 0.62517 0.21002 0.07856 0.0
N4966 N 0.56293 0.19422 0.11384 0.0
N4967 N 0.61377 0.19846 0.09122 0.0
H4968 H 0.06591 0.70111 0.22163 0.0
H4969 H 0.09869 0.65689 0.11761 0.0
H4970 H 0.07365 0.63718 0.21216 0.0
H4971 H 0.12548 0.71343 0.13749 0.0
H4972 H 0.08736 0.65064 0.15191 0.0
H4973 H 0.0864 0.70771 0.19122 0.0
C4974 C 0.07262 0.68848 0.21368 0.0
C4975 C 0.06838 0.66851 0.21976 0.0
C4976 C 0.09575 0.66441 0.14873 0.0
C4977 C 0.09074 0.67587 0.18446 0.0
C4978 C 0.10246 0.66799 0.12905 0.0
C4979 C 0.11335 0.68574 0.12421 0.0
C4980 C 0.09921 0.67891 0.16384 0.0
C4981 C 0.11685 0.69971 0.14003 0.0
C4982 C 0.08411 0.69224 0.19623 0.0
C4983 C 0.07692 0.65271 0.20854 0.0
N4984 N 0.1096 0.69612 0.15902 0.0
N4985 N 0.08727 0.65668 0.19125 0.0
H4986 H 0.58741 0.80612 0.47534 0.0
H4987 H 0.62635 0.88829 0.39833 0.0
H4988 H 0.64359 0.83898 0.48139 0.0
H4989 H 0.56243 0.87446 0.40247 0.0
H4990 H 0.63184 0.87055 0.42994 0.0
H4991 H 0.57609 0.83164 0.45065 0.0
C4992 C 0.59702 0.81913 0.47233 0.0
C4993 C 0.61649 0.82026 0.48093 0.0
C4994 C 0.61654 0.87154 0.42408 0.0
C4995 C 0.60407 0.84898 0.45198 0.0
C4996 C 0.61334 0.88184 0.40593 0.0
C4997 C 0.59385 0.88304 0.3974 0.0
C4998 C 0.60028 0.86186 0.43384 0.0
C4999 C 0.57783 0.87366 0.40804 0.0
C5000 C 0.59064 0.83354 0.45801 0.0
C5001 C 0.62852 0.83707 0.47572 0.0
N5002 N 0.58143 0.86327 0.42554 0.0
N5003 N 0.62225 0.8505 0.46152 0.0
H5004 H 0.49033 0.34137 0.72222 0.0
H5005 H 0.4042 0.37241 0.64518 0.0
H5006 H 0.45641 0.39685 0.72468 0.0
H5007 H 0.42191 0.30974 0.65182 0.0
H5008 H 0.42304 0.38057 0.67554 0.0
H5009 H 0.46495 0.32781 0.69845 0.0
C5010 C 0.47714 0.35041 0.71861 0.0
C5011 C 0.47552 0.37027 0.72609 0.0
C5012 C 0.42269 0.36495 0.67052 0.0
C5013 C 0.44694 0.35527 0.69814 0.0
C5014 C 0.41175 0.3602 0.6531 0.0
C5015 C 0.41121 0.34025 0.64568 0.0
C5016 C 0.43369 0.34982 0.68067 0.0
C5017 C 0.42206 0.3254 0.65659 0.0
C5018 C 0.4628 0.34274 0.70483 0.0
C5019 C 0.45851 0.3815 0.72012 0.0
N5020 N 0.433 0.33052 0.67339 0.0
N5021 N 0.44513 0.37397 0.70645 0.0
H5022 H 0.95719 0.18847 0.87509 0.0
H5023 H 0.92302 0.18829 0.99013 0.0
H5024 H 0.94457 0.13224 0.90619 0.0
H5025 H 0.9483 0.2393 0.95807 0.0
H5026 H 0.93315 0.16612 0.96189 0.0
H5027 H 0.95495 0.20635 0.90681 0.0
C5028 C 0.95413 0.17979 0.88867 0.0
C5029 C 0.95136 0.15872 0.8879 0.0
C5030 C 0.93689 0.1821 0.96134 0.0
C5031 C 0.94832 0.17942 0.92476 0.0
C5032 C 0.93135 0.19468 0.97753 0.0
C5033 C 0.93436 0.21571 0.9761 0.0
C5034 C 0.94569 0.19078 0.94397 0.0
C5035 C 0.94523 0.22325 0.95956 0.0
C5036 C 0.95281 0.19007 0.9069 0.0
C5037 C 0.94674 0.14851 0.90604 0.0
N5038 N 0.95018 0.2109 0.94407 0.0
N5039 N 0.94528 0.15898 0.92378 0.0
H5040 H 0.31481 0.0973 0.38741 0.0
H5041 H 0.41492 0.09386 0.32181 0.0
H5042 H 0.32685 0.05179 0.34255 0.0
H5043 H 0.40583 0.13267 0.37338 0.0
H5044 H 0.37907 0.08445 0.3228 0.0
H5045 H 0.34285 0.11732 0.37466 0.0
C5046 C 0.32257 0.0919 0.37419 0.0
C5047 C 0.31858 0.07258 0.36629 0.0
C5048 C 0.38485 0.09523 0.33374 0.0
C5049 C 0.35153 0.09513 0.3521 0.0
C5050 C 0.40532 0.1006 0.33321 0.0
C5051 C 0.41347 0.11388 0.34772 0.0
C5052 C 0.37233 0.1032 0.34888 0.0
C5053 C 0.40031 0.12205 0.36218 0.0
C5054 C 0.33897 0.10327 0.3671 0.0
C5055 C 0.32949 0.06657 0.34917 0.0
N5056 N 0.38045 0.11647 0.36248 0.0
N5057 N 0.34587 0.07747 0.34301 0.0
H5058 H 0.19177 0.07587 0.62644 0.0
H5059 H 0.22274 0.18495 0.58707 0.0
H5060 H 0.24185 0.08822 0.58698 0.0
H5061 H 0.16187 0.17329 0.6076 0.0
H5062 H 0.22949 0.14871 0.58814 0.0
H5063 H 0.1785 0.10999 0.61916 0.0
C5064 C 0.1994 0.08531 0.61538 0.0
C5065 C 0.21811 0.07933 0.60737 0.0
C5066 C 0.21464 0.15399 0.5925 0.0
C5067 C 0.20354 0.1183 0.59953 0.0
C5068 C 0.21089 0.17475 0.59214 0.0
C5069 C 0.1918 0.18216 0.5974 0.0
C5070 C 0.1993 0.1404 0.59849 0.0
C5071 C 0.17683 0.16815 0.60344 0.0
C5072 C 0.19203 0.10491 0.61152 0.0
C5073 C 0.22749 0.0922 0.59341 0.0
N5074 N 0.18093 0.14791 0.60398 0.0
N5075 N 0.22042 0.11119 0.59028 0.0
H5076 H 0.2058 1.00575 0.85372 0.0
H5077 H 0.14586 0.90956 0.8795 0.0
H5078 H 0.23495 0.95699 0.88497 0.0
H5079 H 0.14155 0.93107 0.81774 0.0
H5080 H 0.17661 0.92958 0.8837 0.0
H5081 H 0.18024 0.98167 0.84109 0.0
C5082 C 0.20742 0.98979 0.85726 0.0
C5083 C 0.22305 0.98324 0.87016 0.0
C5084 C 0.1689 0.92974 0.86921 0.0
C5085 C 0.19337 0.95588 0.85659 0.0
C5086 C 0.15128 0.91819 0.86668 0.0
C5087 C 0.14064 0.91834 0.84816 0.0
C5088 C 0.17581 0.94213 0.85341 0.0
C5089 C 0.14857 0.93064 0.83251 0.0
C5090 C 0.19276 0.97612 0.85014 0.0
C5091 C 0.22417 0.96251 0.87437 0.0
N5092 N 0.16543 0.94225 0.8356 0.0
N5093 N 0.20923 0.94965 0.86819 0.0
H5094 H 0.37336 0.88529 0.07067 0.0
H5095 H 0.34709 0.97322 0.14847 0.0
H5096 H 0.38326 0.8813 0.13523 0.0
H5097 H 0.30979 0.96204 0.09618 0.0
H5098 H 0.36932 0.94599 0.13843 0.0
H5099 H 0.3578 0.91847 0.0755 0.0
C5100 C 0.37228 0.89117 0.08588 0.0
C5101 C 0.37945 0.87992 0.10261 0.0
C5102 C 0.35658 0.94984 0.12882 0.0
C5103 C 0.36245 0.9187 0.10793 0.0
C5104 C 0.34385 0.96568 0.13445 0.0
C5105 C 0.32634 0.97016 0.12325 0.0
C5106 C 0.35186 0.93822 0.11172 0.0
C5107 C 0.32328 0.95941 0.10516 0.0
C5108 C 0.36357 0.91032 0.08852 0.0
C5109 C 0.37824 0.88915 0.12176 0.0
N5110 N 0.3357 0.94374 0.10007 0.0
N5111 N 0.36992 0.90789 0.12385 0.0
H5112 H 0.4247 0.91238 0.1958 0.0
H5113 H 0.3394 0.99703 0.2067 0.0
H5114 H 0.43544 0.97507 0.21098 0.0
H5115 H 0.32879 0.94283 0.17205 0.0
H5116 H 0.37241 0.98421 0.21666 0.0
H5117 H 0.38827 0.91959 0.19286 0.0
C5118 C 0.41941 0.92766 0.19847 0.0
C5119 C 0.43318 0.94319 0.20358 0.0
C5120 C 0.36275 0.97483 0.20726 0.0
C5121 C 0.39157 0.95134 0.20069 0.0
C5122 C 0.34367 0.98196 0.20193 0.0
C5123 C 0.3314 0.97103 0.18846 0.0
C5124 C 0.36978 0.95667 0.19892 0.0
C5125 C 0.33781 0.95168 0.18254 0.0
C5126 C 0.39865 0.93171 0.19683 0.0
C5127 C 0.42548 0.96269 0.20677 0.0
N5128 N 0.35687 0.94527 0.18739 0.0
N5129 N 0.40525 0.96616 0.20539 0.0
H5130 H 0.36567 0.18218 0.41539 0.0
H5131 H 0.30337 0.08945 0.45525 0.0
H5132 H 0.34591 0.17929 0.47741 0.0
H5133 H 0.34775 0.08202 0.40854 0.0
H5134 H 0.31846 0.12203 0.46416 0.0
H5135 H 0.35801 0.1459 0.41178 0.0
C5136 C 0.35962 0.1739 0.4282 0.0
C5137 C 0.35624 0.18374 0.44666 0.0
C5138 C 0.3253 0.11308 0.45231 0.0
C5139 C 0.34758 0.14233 0.4427 0.0
C5140 C 0.31681 0.09432 0.44744 0.0
C5141 C 0.3244 0.08295 0.43134 0.0
C5142 C 0.34112 0.12086 0.44047 0.0
C5143 C 0.34155 0.09029 0.4212 0.0
C5144 C 0.35551 0.15319 0.42621 0.0
C5145 C 0.34869 0.17226 0.4629 0.0
N5146 N 0.34905 0.10907 0.42557 0.0
N5147 N 0.34437 0.15223 0.46048 0.0
H5148 H 0.2228 0.09488 0.64898 0.0
H5149 H 0.13553 0.12631 0.72044 0.0
H5150 H 0.21139 0.05244 0.69719 0.0
H5151 H 0.12108 0.10301 0.66095 0.0
H5152 H 0.16996 0.1134 0.71671 0.0
H5153 H 0.19314 0.11405 0.65905 0.0
C5154 C 0.21479 0.09 0.66228 0.0
C5155 C 0.21969 0.07178 0.6721 0.0
C5156 C 0.15914 0.11133 0.70453 0.0
C5157 C 0.18549 0.09384 0.68368 0.0
C5158 C 0.1393 0.11843 0.70664 0.0
C5159 C 0.12481 0.11563 0.69109 0.0
C5160 C 0.16488 0.10198 0.68652 0.0
C5161 C 0.13141 0.10596 0.67332 0.0
C5162 C 0.19762 0.10094 0.66787 0.0
C5163 C 0.20833 0.0665 0.68928 0.0
N5164 N 0.15092 0.09962 0.6715 0.0
N5165 N 0.19148 0.07722 0.69433 0.0
H5166 H 0.16639 0.88491 0.95439 0.0
H5167 H 0.22868 0.98852 0.96459 0.0
H5168 H 0.17725 0.91322 1.01222 0.0
H5169 H 0.2074 0.96273 0.90887 0.0
H5170 H 0.21001 0.962 0.98324 0.0
H5171 H 0.18358 0.91306 0.9379 0.0
C5172 C 0.17271 0.89693 0.96364 0.0
C5173 C 0.17036 0.89682 0.98465 0.0
C5174 C 0.20946 0.96222 0.96688 0.0
C5175 C 0.18958 0.92943 0.96589 0.0
C5176 C 0.22012 0.97726 0.95632 0.0
C5177 C 0.22065 0.97677 0.93518 0.0
C5178 C 0.19912 0.94708 0.95596 0.0
C5179 C 0.20843 0.96277 0.92505 0.0
C5180 C 0.18227 0.91317 0.95422 0.0
C5181 C 0.17859 0.91293 0.99591 0.0
N5182 N 0.19838 0.94831 0.93548 0.0
N5183 N 0.18783 0.92869 0.98637 0.0
H5184 H 0.38186 0.42487 0.11461 0.0
H5185 H 0.34012 0.34251 0.06425 0.0
H5186 H 0.33202 0.40848 0.15353 0.0
H5187 H 0.37612 0.31415 0.11068 0.0
H5188 H 0.33672 0.37248 0.08556 0.0
H5189 H 0.38207 0.39007 0.10145 0.0
C5190 C 0.37133 0.41388 0.1208 0.0
C5191 C 0.35688 0.41967 0.13523 0.0
C5192 C 0.34473 0.35939 0.09134 0.0
C5193 C 0.35711 0.37998 0.12016 0.0
C5194 C 0.34647 0.34217 0.07933 0.0
C5195 C 0.35839 0.32577 0.08567 0.0
C5196 C 0.35499 0.36025 0.10985 0.0
C5197 C 0.36657 0.32635 0.10532 0.0
C5198 C 0.37144 0.3941 0.11322 0.0
C5199 C 0.34328 0.40475 0.14229 0.0
N5200 N 0.36524 0.34364 0.11657 0.0
N5201 N 0.34355 0.38563 0.13451 0.0
H5202 H 0.83406 0.14855 0.90875 0.0
H5203 H 0.84241 0.24274 0.98396 0.0
H5204 H 0.78397 0.17218 0.94322 0.0
H5205 H 0.89217 0.20261 0.97227 0.0
H5206 H 0.82156 0.22322 0.96034 0.0
H5207 H 0.85637 0.17359 0.92487 0.0
C5208 C 0.82776 0.15887 0.91976 0.0
C5209 C 0.80707 0.15824 0.9246 0.0
C5210 C 0.83725 0.21904 0.9626 0.0
C5211 C 0.83231 0.18729 0.94241 0.0
C5212 C 0.84922 0.23032 0.97591 0.0
C5213 C 0.86918 0.22441 0.97988 0.0
C5214 C 0.84538 0.20176 0.95332 0.0
C5215 C 0.87703 0.20783 0.96936 0.0
C5216 C 0.84044 0.17329 0.92872 0.0
C5217 C 0.79971 0.17229 0.93872 0.0
N5218 N 0.86511 0.19697 0.95663 0.0
N5219 N 0.8123 0.18626 0.94706 0.0
H5220 H 0.08701 0.59089 0.26007 0.0
H5221 H 0.1729 0.57552 0.20537 0.0
H5222 H 0.06108 0.59985 0.20081 0.0
H5223 H 0.13473 0.55183 0.15803 0.0
H5224 H 0.14316 0.57914 0.2269 0.0
H5225 H 0.11409 0.57095 0.24515 0.0
C5226 C 0.08687 0.58837 0.24388 0.0
C5227 C 0.07215 0.59754 0.23152 0.0
C5228 C 0.1413 0.57222 0.21218 0.0
C5229 C 0.10338 0.57507 0.21434 0.0
C5230 C 0.15837 0.57006 0.19995 0.0
C5231 C 0.15618 0.56331 0.18001 0.0
C5232 C 0.12195 0.56775 0.20426 0.0
C5233 C 0.13693 0.55706 0.17339 0.0
C5234 C 0.10243 0.57711 0.2354 0.0
C5235 C 0.07232 0.59329 0.21079 0.0
N5236 N 0.12044 0.55993 0.18529 0.0
N5237 N 0.088 0.58264 0.20276 0.0
H5238 H 0.66471 0.81506 0.44914 0.0
H5239 H 0.74236 0.90803 0.45232 0.0
H5240 H 0.70086 0.83221 0.50066 0.0
H5241 H 0.71456 0.88678 0.39724 0.0
H5242 H 0.72161 0.88406 0.47153 0.0
H5243 H 0.6794 0.84351 0.43006 0.0
C5244 C 0.67626 0.82445 0.45613 0.0
C5245 C 0.68194 0.82142 0.47628 0.0
C5246 C 0.71977 0.88483 0.45526 0.0
C5247 C 0.69799 0.85395 0.45525 0.0
C5248 C 0.73141 0.89862 0.44445 0.0
C5249 C 0.73002 0.89896 0.42341 0.0
C5250 C 0.70711 0.87125 0.44475 0.0
C5251 C 0.71589 0.88661 0.41357 0.0
C5252 C 0.68428 0.84085 0.44549 0.0
C5253 C 0.69631 0.83418 0.48511 0.0
N5254 N 0.70508 0.8729 0.42435 0.0
N5255 N 0.70383 0.85 0.47456 0.0
H5256 H 0.95964 0.95449 0.23563 0.0
H5257 H 0.89312 0.91885 0.14744 0.0
H5258 H 0.98742 0.91681 0.19051 0.0
H5259 H 0.89286 0.98237 0.16339 0.0
H5260 H 0.92595 0.91545 0.16452 0.0
H5261 H 0.93308 0.96344 0.21134 0.0
C5262 C 0.96052 0.94869 0.22035 0.0
C5263 C 0.97594 0.93528 0.21487 0.0
C5264 C 0.91869 0.93014 0.164 0.0
C5265 C 0.94502 0.94443 0.18748 0.0
C5266 C 0.89994 0.93215 0.15424 0.0
C5267 C 0.88974 0.95085 0.15428 0.0
C5268 C 0.92711 0.9468 0.1742 0.0
C5269 C 0.89953 0.96743 0.16358 0.0
C5270 C 0.94529 0.95365 0.20658 0.0
C5271 C 0.97602 0.9276 0.19509 0.0
N5272 N 0.91739 0.96491 0.1735 0.0
N5273 N 0.96045 0.93186 0.1822 0.0
H5274 H 0.19435 0.62404 0.63139 0.0
H5275 H 0.20258 0.70821 0.5447 0.0
H5276 H 0.20902 0.61236 0.56899 0.0
H5277 H 0.16977 0.71885 0.5998 0.0
H5278 H 0.21337 0.67544 0.55775 0.0
H5279 H 0.19176 0.66036 0.62349 0.0
C5280 C 0.19706 0.62911 0.61605 0.0
C5281 C 0.20176 0.61509 0.60077 0.0
C5282 C 0.20419 0.68507 0.56725 0.0
C5283 C 0.19915 0.65659 0.59178 0.0
C5284 C 0.19832 0.70394 0.55995 0.0
C5285 C 0.1852 0.71616 0.57116 0.0
C5286 C 0.19679 0.67823 0.58592 0.0
C5287 C 0.18002 0.70989 0.59077 0.0
C5288 C 0.19559 0.64982 0.61159 0.0
C5289 C 0.20505 0.62252 0.58117 0.0
N5290 N 0.18546 0.69107 0.59741 0.0
N5291 N 0.20373 0.6427 0.57727 0.0
H5292 H 0.0901 0.45162 0.30002 0.0
H5293 H 0.17796 0.42639 0.34168 0.0
H5294 H 0.06478 0.4312 0.35655 0.0
H5295 H 0.15983 0.46008 0.39445 0.0
H5296 H 0.14313 0.42789 0.32919 0.0
H5297 H 0.12204 0.45878 0.31718 0.0
C5298 C 0.09109 0.44929 0.31623 0.0
C5299 C 0.0752 0.44004 0.32682 0.0
C5300 C 0.14684 0.43492 0.34353 0.0
C5301 C 0.11165 0.44764 0.34623 0.0
C5302 C 0.16657 0.4338 0.35079 0.0
C5303 C 0.17175 0.44323 0.36901 0.0
C5304 C 0.13217 0.44547 0.3546 0.0
C5305 C 0.15639 0.45283 0.38017 0.0
C5306 C 0.10933 0.45319 0.32591 0.0
C5307 C 0.07695 0.43794 0.34787 0.0
N5308 N 0.13714 0.45371 0.37278 0.0
N5309 N 0.09528 0.44104 0.35693 0.0
H5310 H 0.47258 0.65014 0.83974 0.0
H5311 H 0.39743 0.56221 0.87326 0.0
H5312 H 0.46969 0.59428 0.80637 0.0
H5313 H 0.39003 0.62624 0.8848 0.0
H5314 H 0.42891 0.56994 0.85509 0.0
H5315 H 0.44929 0.63696 0.86387 0.0
C5316 C 0.46787 0.63481 0.83766 0.0
C5317 C 0.47385 0.62335 0.82091 0.0
C5318 C 0.4204 0.58216 0.86186 0.0
C5319 C 0.44531 0.6082 0.84853 0.0
C5320 C 0.40231 0.57785 0.87211 0.0
C5321 C 0.39073 0.59358 0.88064 0.0
C5322 C 0.42718 0.60228 0.86044 0.0
C5323 C 0.39834 0.61344 0.87897 0.0
C5324 C 0.45406 0.62727 0.85158 0.0
C5325 C 0.46597 0.60357 0.81931 0.0
N5326 N 0.41595 0.61715 0.86912 0.0
N5327 N 0.45184 0.59667 0.83276 0.0
H5328 H 0.8884 0.70839 0.66816 0.0
H5329 H 0.99505 0.69886 0.72458 0.0
H5330 H 0.94497 0.71936 0.63745 0.0
H5331 H 0.94522 0.65741 0.73178 0.0
H5332 H 0.97468 0.71825 0.7002 0.0
H5333 H 0.90717 0.70222 0.69952 0.0
C5334 C 0.90476 0.70959 0.66801 0.0
C5335 C 0.91513 0.71385 0.64999 0.0
C5336 C 0.96782 0.70568 0.70825 0.0
C5337 C 0.93664 0.7072 0.68601 0.0
C5338 C 0.97925 0.69486 0.72255 0.0
C5339 C 0.97132 0.67727 0.73174 0.0
C5340 C 0.94812 0.69913 0.70354 0.0
C5341 C 0.95134 0.67179 0.72695 0.0
C5342 C 0.91542 0.70626 0.68595 0.0
C5343 C 0.93635 0.71594 0.65094 0.0
N5344 N 0.94046 0.68268 0.71333 0.0
N5345 N 0.94646 0.71229 0.6686 0.0
H5346 H 0.14694 0.20238 0.47466 0.0
H5347 H 0.06583 0.17633 0.38947 0.0
H5348 H 0.09669 0.24228 0.46356 0.0
H5349 H 0.13039 0.16771 0.38274 0.0
H5350 H 0.07218 0.19264 0.42206 0.0
H5351 H 0.13517 0.18041 0.44781 0.0
C5352 C 0.13299 0.20628 0.46725 0.0
C5353 C 0.12286 0.22438 0.47163 0.0
C5354 C 0.08484 0.18694 0.41342 0.0
C5355 C 0.10936 0.19914 0.44016 0.0
C5356 C 0.08133 0.1778 0.3946 0.0
C5357 C 0.09758 0.17065 0.38278 0.0
C5358 C 0.10465 0.18846 0.42092 0.0
C5359 C 0.1172 0.17251 0.39107 0.0
C5360 C 0.12637 0.19369 0.45162 0.0
C5361 C 0.10486 0.22833 0.46095 0.0
N5362 N 0.12013 0.18114 0.40954 0.0
N5363 N 0.09877 0.21598 0.44553 0.0
H5364 H 0.60734 0.38091 0.23818 0.0
H5365 H 0.63967 0.30998 0.14744 0.0
H5366 H 0.56522 0.33939 0.21029 0.0
H5367 H 0.65074 0.37456 0.14477 0.0
H5368 H 0.6214 0.31474 0.17907 0.0
H5369 H 0.63258 0.3722 0.21228 0.0
C5370 C 0.60375 0.36935 0.2271 0.0
C5371 C 0.58433 0.36068 0.22633 0.0
C5372 C 0.62814 0.32775 0.17163 0.0
C5373 C 0.61287 0.35069 0.19712 0.0
C5374 C 0.63839 0.32517 0.15345 0.0
C5375 C 0.64624 0.34201 0.14292 0.0
C5376 C 0.62627 0.34718 0.17975 0.0
C5377 C 0.64489 0.36113 0.15217 0.0
C5378 C 0.61799 0.36463 0.21227 0.0
C5379 C 0.58009 0.34626 0.21139 0.0
N5380 N 0.63492 0.36324 0.17003 0.0
N5381 N 0.59428 0.34167 0.19733 0.0
H5382 H 0.45157 0.80658 0.9696 0.0
H5383 H 0.41819 0.8918 0.89472 0.0
H5384 H 0.40017 0.84505 0.98002 0.0
H5385 H 0.48125 0.87476 0.8988 0.0
H5386 H 0.41202 0.87473 0.92664 0.0
H5387 H 0.46439 0.8316 0.94525 0.0
C5388 C 0.44337 0.82064 0.96756 0.0
C5389 C 0.42466 0.82348 0.97722 0.0
C5390 C 0.42728 0.8749 0.92066 0.0
C5391 C 0.43873 0.85174 0.94856 0.0
C5392 C 0.4309 0.88479 0.90233 0.0
C5393 C 0.45034 0.88485 0.89364 0.0
C5394 C 0.44302 0.86445 0.93041 0.0
C5395 C 0.46588 0.87481 0.90438 0.0
C5396 C 0.4506 0.8348 0.95343 0.0
C5397 C 0.41454 0.8418 0.97345 0.0
N5398 N 0.46183 0.86481 0.92199 0.0
N5399 N 0.42144 0.85494 0.95918 0.0
H5400 H 0.91621 0.37447 0.90998 0.0
H5401 H 1.0007 0.343 0.83062 0.0
H5402 H 0.95493 0.32261 0.91803 0.0
H5403 H 0.96004 0.39322 0.82299 0.0
H5404 H 0.97986 0.33087 0.85876 0.0
H5405 H 0.9284 0.37796 0.87528 0.0
C5406 C 0.92728 0.36378 0.90443 0.0
C5407 C 0.93475 0.3484 0.91709 0.0
C5408 C 0.97509 0.34419 0.85045 0.0
C5409 C 0.94887 0.35228 0.87712 0.0
C5410 C 0.98679 0.35093 0.83408 0.0
C5411 C 0.98218 0.36917 0.82407 0.0
C5412 C 0.95867 0.35591 0.85705 0.0
C5413 C 0.96431 0.37907 0.82976 0.0
C5414 C 0.93415 0.36568 0.88452 0.0
C5415 C 0.94877 0.33472 0.90885 0.0
N5416 N 0.95347 0.37256 0.84602 0.0
N5417 N 0.95557 0.33715 0.88952 0.0
H5418 H 0.45401 0.15804 0.65175 0.0
H5419 H 0.45516 0.2395 0.56307 0.0
H5420 H 0.5088 0.18625 0.62998 0.0
H5421 H 0.40325 0.20257 0.57703 0.0
H5422 H 0.47597 0.21791 0.58468 0.0
H5423 H 0.43534 0.1735 0.62361 0.0
C5424 C 0.46203 0.16771 0.64119 0.0
C5425 C 0.48292 0.171 0.64327 0.0
C5426 C 0.46011 0.21418 0.58267 0.0
C5427 C 0.46182 0.18843 0.61081 0.0
C5428 C 0.4483 0.22629 0.56994 0.0
C5429 C 0.42743 0.22279 0.56823 0.0
C5430 C 0.45081 0.19876 0.59409 0.0
C5431 C 0.4192 0.20594 0.5782 0.0
C5432 C 0.45146 0.17629 0.62496 0.0
C5433 C 0.49269 0.18332 0.6289 0.0
N5434 N 0.4308 0.19474 0.59099 0.0
N5435 N 0.48205 0.19166 0.61336 0.0
H5436 H 0.63422 0.66535 0.41288 0.0
H5437 H 0.56936 0.69304 0.31376 0.0
H5438 H 0.62244 0.72782 0.39736 0.0
H5439 H 0.56779 0.637 0.34707 0.0
H5440 H 0.59494 0.70602 0.33821 0.0
H5441 H 0.6167 0.65476 0.38256 0.0
C5442 C 0.62822 0.67698 0.403 0.0
C5443 C 0.63006 0.69762 0.4079 0.0
C5444 C 0.58936 0.69063 0.33964 0.0
C5445 C 0.60901 0.68527 0.37281 0.0
C5446 C 0.57504 0.68313 0.32553 0.0
C5447 C 0.56701 0.66347 0.3278 0.0
C5448 C 0.59565 0.67823 0.35589 0.0
C5449 C 0.57421 0.65169 0.34393 0.0
C5450 C 0.61798 0.67084 0.38562 0.0
C5451 C 0.62126 0.71173 0.39443 0.0
N5452 N 0.58797 0.65916 0.35716 0.0
N5453 N 0.61101 0.70531 0.37755 0.0
H5454 H 0.10992 0.85064 0.05434 0.0
H5455 H 0.06242 0.85586 0.16484 0.0
H5456 H 0.09488 0.79963 0.09234 0.0
H5457 H 0.09264 0.90614 0.13593 0.0
H5458 H 0.06242 0.83773 0.1326 0.0
H5459 H 0.09275 0.87308 0.07858 0.0
C5460 C 0.10258 0.84413 0.06746 0.0
C5461 C 0.10425 0.82337 0.07165 0.0
C5462 C 0.0686 0.85295 0.13317 0.0
C5463 C 0.08453 0.84864 0.0991 0.0
C5464 C 0.06844 0.86335 0.15154 0.0
C5465 C 0.07801 0.88226 0.15311 0.0
C5466 C 0.07849 0.86153 0.11636 0.0
C5467 C 0.08558 0.89131 0.1354 0.0
C5468 C 0.09286 0.85689 0.08129 0.0
C5469 C 0.09449 0.81565 0.08885 0.0
N5470 N 0.08606 0.88069 0.11782 0.0
N5471 N 0.08523 0.82826 0.10199 0.0
H5472 H 0.71686 0.99502 0.70152 0.0
H5473 H 0.63328 0.91428 0.67018 0.0
H5474 H 0.72574 0.95054 0.65498 0.0
H5475 H 0.62847 0.95178 0.72327 0.0
H5476 H 0.66866 0.92493 0.66657 0.0
H5477 H 0.68732 0.97598 0.71331 0.0
C5478 C 0.71325 0.98068 0.69438 0.0
C5479 C 0.72389 0.97452 0.67711 0.0
C5480 C 0.65996 0.93068 0.67915 0.0
C5481 C 0.68922 0.95314 0.68979 0.0
C5482 C 0.63965 0.92475 0.6811 0.0
C5483 C 0.62771 0.93227 0.69695 0.0
C5484 C 0.66848 0.94447 0.69299 0.0
C5485 C 0.63702 0.94551 0.71085 0.0
C5486 C 0.69605 0.97001 0.70086 0.0
C5487 C 0.71807 0.9561 0.66817 0.0
N5488 N 0.6567 0.95135 0.70841 0.0
N5489 N 0.70089 0.94635 0.67426 0.0
H5490 H 0.84161 0.85885 0.41133 0.0
H5491 H 0.83073 0.97289 0.44928 0.0
H5492 H 0.87786 0.88201 0.46071 0.0
H5493 H 0.8102 0.95148 0.39167 0.0
H5494 H 0.8486 0.94045 0.45449 0.0
H5495 H 0.83004 0.89315 0.40436 0.0
C5496 C 0.84734 0.87109 0.42063 0.0
C5497 C 0.86076 0.86726 0.43671 0.0
C5498 C 0.84077 0.94315 0.44034 0.0
C5499 C 0.84712 0.90693 0.42897 0.0
C5500 C 0.83083 0.96174 0.43728 0.0
C5501 C 0.82007 0.96528 0.41929 0.0
C5502 C 0.83923 0.92783 0.42558 0.0
C5503 C 0.81958 0.94985 0.40485 0.0
C5504 C 0.84062 0.89077 0.41668 0.0
C5505 C 0.8672 0.88397 0.44841 0.0
N5506 N 0.8288 0.93185 0.40828 0.0
N5507 N 0.86023 0.90299 0.44441 0.0
H5508 H 0.82716 0.08484 0.15378 0.0
H5509 H 0.88601 0.10793 0.25669 0.0
H5510 H 0.81812 0.04951 0.20788 0.0
H5511 H 0.9044 0.13043 0.19831 0.0
H5512 H 0.85799 0.08951 0.24054 0.0
H5513 H 0.85085 0.10633 0.17182 0.0
C5514 C 0.82957 0.08191 0.16961 0.0
C5515 C 0.82037 0.06541 0.17935 0.0
C5516 C 0.86823 0.09837 0.23125 0.0
C5517 C 0.84832 0.0896 0.20003 0.0
C5518 C 0.88426 0.1087 0.24041 0.0
C5519 C 0.89754 0.1205 0.22872 0.0
C5520 C 0.86529 0.10014 0.2103 0.0
C5521 C 0.89463 0.12123 0.20776 0.0
C5522 C 0.84338 0.09413 0.1799 0.0
C5523 C 0.82447 0.06238 0.19994 0.0
N5524 N 0.8787 0.11131 0.19921 0.0
N5525 N 0.83835 0.07422 0.20959 0.0
H5526 H 0.66814 0.16366 0.96564 0.0
H5527 H 0.72919 0.09144 0.89253 0.0
H5528 H 0.70323 0.18363 0.91417 0.0
H5529 H 0.72393 0.07537 0.95481 0.0
H5530 H 0.71006 0.12197 0.89803 0.0
H5531 H 0.68113 0.12927 0.96075 0.0
C5532 C 0.67863 0.16102 0.9534 0.0
C5533 C 0.68453 0.17693 0.94031 0.0
C5534 C 0.71244 0.11158 0.91051 0.0
C5535 C 0.69877 0.1372 0.93433 0.0
C5536 C 0.72274 0.09366 0.90703 0.0
C5537 C 0.72714 0.08013 0.92261 0.0
C5538 C 0.7067 0.11655 0.9302 0.0
C5539 C 0.72032 0.08509 0.94211 0.0
C5540 C 0.68589 0.14126 0.9506 0.0
C5541 C 0.69778 0.17209 0.92446 0.0
N5542 N 0.71047 0.10301 0.94543 0.0
N5543 N 0.70429 0.15275 0.92189 0.0
H5544 H 0.61048 0.08479 0.83085 0.0
H5545 H 0.72735 0.10096 0.86035 0.0
H5546 H 0.63059 0.13399 0.8688 0.0
H5547 H 0.69918 0.04287 0.8496 0.0
H5548 H 0.69464 0.11736 0.85311 0.0
H5549 H 0.64559 0.07327 0.82812 0.0
C5550 C 0.62234 0.0932 0.83853 0.0
C5551 C 0.61761 0.11012 0.85034 0.0
C5552 C 0.69586 0.10104 0.852 0.0
C5553 C 0.6579 0.09737 0.84688 0.0
C5554 C 0.71451 0.09165 0.85613 0.0
C5555 C 0.71561 0.0704 0.85705 0.0
C5556 C 0.67875 0.08902 0.84755 0.0
C5557 C 0.69884 0.05928 0.84995 0.0
C5558 C 0.64236 0.0867 0.8369 0.0
C5559 C 0.63359 0.1206 0.85988 0.0
N5560 N 0.68107 0.06865 0.84587 0.0
N5561 N 0.65305 0.11403 0.85799 0.0
H5562 H 0.75051 0.95301 0.59413 0.0
H5563 H 0.66159 0.87119 0.60638 0.0
H5564 H 0.69692 0.9663 0.62846 0.0
H5565 H 0.72325 0.85782 0.58995 0.0
H5566 H 0.67071 0.90735 0.60889 0.0
H5567 H 0.73625 0.92031 0.58499 0.0
C5568 C 0.73526 0.94943 0.59898 0.0
C5569 C 0.72481 0.96259 0.61185 0.0
C5570 C 0.68218 0.89647 0.60469 0.0
C5571 C 0.70874 0.92431 0.6024 0.0
C5572 C 0.67701 0.87585 0.60323 0.0
C5573 C 0.69172 0.86138 0.59807 0.0
C5574 C 0.70211 0.90272 0.60056 0.0
C5575 C 0.71146 0.86831 0.59424 0.0
C5576 C 0.72729 0.93049 0.59412 0.0
C5577 C 0.70535 0.95675 0.61822 0.0
N5578 N 0.71602 0.88839 0.5955 0.0
N5579 N 0.69805 0.93784 0.61375 0.0
H5580 H 0.82152 0.94703 0.36076 0.0
H5581 H 0.93545 0.96383 0.32311 0.0
H5582 H 0.84811 1.00562 0.349 0.0
H5583 H 0.9189 0.91662 0.36516 0.0
H5584 H 0.89997 0.97476 0.32203 0.0
H5585 H 0.85372 0.93111 0.35113 0.0
C5586 C 0.83391 0.95653 0.35584 0.0
C5587 C 0.83263 0.97772 0.35679 0.0
C5588 C 0.9041 0.96189 0.33134 0.0
C5589 C 0.86879 0.95972 0.34477 0.0
C5590 C 0.92429 0.95577 0.33206 0.0
C5591 C 0.93009 0.93965 0.3446 0.0
C5592 C 0.88954 0.95158 0.34293 0.0
C5593 C 0.91505 0.92946 0.3557 0.0
C5594 C 0.85223 0.94744 0.35028 0.0
C5595 C 0.84873 0.98922 0.349 0.0
N5596 N 0.89541 0.93563 0.35466 0.0
N5597 N 0.86625 0.98012 0.34358 0.0
H5598 H 0.85597 0.17137 0.09279 0.0
H5599 H 0.85537 0.05815 0.1306 0.0
H5600 H 0.91244 0.1411 0.10565 0.0
H5601 H 0.80736 0.08536 0.09583 0.0
H5602 H 0.87773 0.08664 0.12128 0.0
H5603 H 0.83839 0.13921 0.09513 0.0
C5604 C 0.86475 0.15789 0.09596 0.0
C5605 C 0.88581 0.15897 0.09871 0.0
C5606 C 0.86247 0.08605 0.11526 0.0
C5607 C 0.86551 0.12177 0.10175 0.0
C5608 C 0.84984 0.06971 0.12035 0.0
C5609 C 0.82951 0.0697 0.11414 0.0
C5610 C 0.85449 0.1023 0.10404 0.0
C5611 C 0.82286 0.0851 0.10121 0.0
C5612 C 0.85466 0.13945 0.09727 0.0
C5613 C 0.89618 0.14099 0.10348 0.0
N5614 N 0.83519 0.10094 0.09686 0.0
N5615 N 0.8859 0.12306 0.10493 0.0
H5616 H 0.66577 0.71714 0.94431 0.0
H5617 H 0.70589 0.60792 0.97429 0.0
H5618 H 0.70273 0.704 0.99624 0.0
H5619 H 0.68711 0.62074 0.91306 0.0
H5620 H 0.7035 0.64388 0.98211 0.0
H5621 H 0.67374 0.68325 0.93083 0.0
C5622 C 0.67647 0.70763 0.95233 0.0
C5623 C 0.68389 0.71351 0.97137 0.0
C5624 C 0.69995 0.63891 0.96691 0.0
C5625 C 0.69233 0.67469 0.95662 0.0
C5626 C 0.70105 0.61829 0.96253 0.0
C5627 C 0.69658 0.61126 0.94305 0.0
C5628 C 0.69413 0.65276 0.95177 0.0
C5629 C 0.69075 0.62555 0.92829 0.0
C5630 C 0.6807 0.68816 0.94484 0.0
C5631 C 0.69711 0.70035 0.98142 0.0
N5632 N 0.68956 0.64563 0.93298 0.0
N5633 N 0.70061 0.68153 0.97417 0.0
H5634 H 0.2017 0.90574 0.13061 0.0
H5635 H 0.19603 0.80249 0.06729 0.0
H5636 H 0.2539 0.8706 0.11347 0.0
H5637 H 0.14637 0.84436 0.07209 0.0
H5638 H 0.21577 0.82373 0.09035 0.0
H5639 H 0.17989 0.88075 0.11386 0.0
C5640 C 0.2086 0.89288 0.12322 0.0
C5641 C 0.2297 0.89031 0.12349 0.0
C5642 C 0.20039 0.82805 0.08667 0.0
C5643 C 0.20478 0.86138 0.10474 0.0
C5644 C 0.18898 0.81572 0.07374 0.0
C5645 C 0.1694 0.82151 0.068 0.0
C5646 C 0.19217 0.84636 0.0937 0.0
C5647 C 0.16133 0.83924 0.07635 0.0
C5648 C 0.19612 0.8785 0.11386 0.0
C5649 C 0.23772 0.8731 0.11394 0.0
N5650 N 0.17277 0.85113 0.08864 0.0
N5651 N 0.22528 0.85933 0.10499 0.0
H5652 H 0.88408 0.4542 0.8767 0.0
H5653 H 0.97933 0.46118 0.8046 0.0
H5654 H 0.9045 0.51106 0.85149 0.0
H5655 H 0.97335 0.41613 0.85143 0.0
H5656 H 0.94944 0.47832 0.81735 0.0
H5657 H 0.91277 0.43724 0.86062 0.0
C5658 C 0.89434 0.46298 0.86734 0.0
C5659 C 0.89236 0.48403 0.86565 0.0
C5660 C 0.95493 0.46495 0.82513 0.0
C5661 C 0.92508 0.46505 0.8479 0.0
C5662 C 0.97229 0.4555 0.81821 0.0
C5663 C 0.97909 0.43769 0.82747 0.0
C5664 C 0.9441 0.45612 0.84105 0.0
C5665 C 0.9687 0.43013 0.84425 0.0
C5666 C 0.91079 0.4534 0.85849 0.0
C5667 C 0.90589 0.49482 0.85337 0.0
N5668 N 0.95143 0.43926 0.85041 0.0
N5669 N 0.92191 0.48522 0.8451 0.0
H5670 H 0.33687 0.2111 0.55071 0.0
H5671 H 0.34034 0.10992 0.57011 0.0
H5672 H 0.37788 0.21662 0.60113 0.0
H5673 H 0.34994 0.12478 0.63288 0.0
H5674 H 0.34131 0.14599 0.56181 0.0
H5675 H 0.32647 0.17773 0.56302 0.0
C5676 C 0.34317 0.2055 0.5648 0.0
C5677 C 0.3585 0.21632 0.57475 0.0
C5678 C 0.34307 0.14145 0.57744 0.0
C5679 C 0.34771 0.17774 0.58821 0.0
C5680 C 0.34282 0.12082 0.5821 0.0
C5681 C 0.3451 0.11441 0.60216 0.0
C5682 C 0.34596 0.15581 0.5929 0.0
C5683 C 0.34808 0.12918 0.6172 0.0
C5684 C 0.3376 0.18627 0.57156 0.0
C5685 C 0.36611 0.20856 0.59298 0.0
N5686 N 0.34868 0.14922 0.61224 0.0
N5687 N 0.361 0.18942 0.59893 0.0
H5688 H 0.06031 0.11986 0.85512 0.0
H5689 H 0.15342 0.04256 0.85808 0.0
H5690 H 0.08115 0.08703 0.80297 0.0
H5691 H 0.14444 0.08957 0.9022 0.0
H5692 H 0.12322 0.05431 0.83978 0.0
H5693 H 0.08674 0.10336 0.87556 0.0
C5694 C 0.06998 0.1086 0.84822 0.0
C5695 C 0.06874 0.10468 0.8275 0.0
C5696 C 0.12797 0.06216 0.85337 0.0
C5697 C 0.09891 0.08626 0.85031 0.0
C5698 C 0.14523 0.05561 0.8636 0.0
C5699 C 0.1514 0.06548 0.88127 0.0
C5700 C 0.11685 0.07852 0.86109 0.0
C5701 C 0.14014 0.08189 0.88838 0.0
C5702 C 0.08521 0.09948 0.85972 0.0
C5703 C 0.08181 0.09041 0.81898 0.0
N5704 N 0.12333 0.08795 0.87823 0.0
N5705 N 0.09649 0.08179 0.83039 0.0
H5706 H 0.81285 0.42175 0.45685 0.0
H5707 H 0.87053 0.31676 0.43999 0.0
H5708 H 0.87035 0.41835 0.42642 0.0
H5709 H 0.83919 0.3316 0.49492 0.0
H5710 H 0.86147 0.35031 0.42628 0.0
H5711 H 0.81415 0.38501 0.46291 0.0
C5712 C 0.82572 0.41321 0.45144 0.0
C5713 C 0.84171 0.42305 0.4415 0.0
C5714 C 0.85621 0.3459 0.44115 0.0
C5715 C 0.84291 0.3811 0.44765 0.0
C5716 C 0.86145 0.32684 0.449 0.0
C5717 C 0.85661 0.32192 0.46903 0.0
C5718 C 0.84519 0.35947 0.45318 0.0
C5719 C 0.84353 0.33492 0.4795 0.0
C5720 C 0.82637 0.39231 0.45475 0.0
C5721 C 0.85794 0.41132 0.43451 0.0
N5722 N 0.83853 0.35322 0.4716 0.0
N5723 N 0.85814 0.39092 0.43771 0.0
H5724 H 0.94895 0.5958 0.76161 0.0
H5725 H 0.86924 0.59629 0.67052 0.0
H5726 H 0.96369 0.61782 0.70202 0.0
H5727 H 0.85355 0.58607 0.73303 0.0
H5728 H 0.9049 0.59898 0.68027 0.0
H5729 H 0.91555 0.58565 0.74945 0.0
C5730 C 0.94528 0.598 0.74577 0.0
C5731 C 0.95898 0.60776 0.73278 0.0
C5732 C 0.89366 0.59613 0.69184 0.0
C5733 C 0.92054 0.59669 0.71888 0.0
C5734 C 0.87329 0.59457 0.68631 0.0
C5735 C 0.85832 0.59097 0.701 0.0
C5736 C 0.8992 0.59405 0.71221 0.0
C5737 C 0.86449 0.58911 0.72123 0.0
C5738 C 0.92614 0.59239 0.7389 0.0
C5739 C 0.95356 0.61023 0.71244 0.0
N5740 N 0.88443 0.59065 0.72622 0.0
N5741 N 0.93456 0.60501 0.70614 0.0
H5742 H 0.63623 0.49405 0.17206 0.0
H5743 H 0.57539 0.39695 0.20835 0.0
H5744 H 0.64473 0.43205 0.15276 0.0
H5745 H 0.5709 0.45352 0.24041 0.0
H5746 H 0.59342 0.41334 0.18193 0.0
H5747 H 0.60694 0.48278 0.19212 0.0
C5748 C 0.6319 0.47821 0.17173 0.0
C5749 C 0.64313 0.46408 0.16048 0.0
C5750 C 0.58826 0.42244 0.19451 0.0
C5751 C 0.60946 0.45133 0.18298 0.0
C5752 C 0.57749 0.41296 0.20976 0.0
C5753 C 0.57087 0.42382 0.22661 0.0
C5754 C 0.59371 0.44286 0.19649 0.0
C5755 C 0.5753 0.44465 0.2274 0.0
C5756 C 0.6151 0.47187 0.18308 0.0
C5757 C 0.63651 0.44381 0.16054 0.0
N5758 N 0.5868 0.45352 0.2127 0.0
N5759 N 0.62029 0.43816 0.1716 0.0
H5760 H 0.64379 0.87332 0.90391 0.0
H5761 H 0.56065 0.84164 0.82264 0.0
H5762 H 0.62767 0.81053 0.89412 0.0
H5763 H 0.58598 0.90126 0.83042 0.0
H5764 H 0.5874 0.82828 0.8451 0.0
H5765 H 0.6251 0.88246 0.87386 0.0
C5766 C 0.63661 0.8613 0.89536 0.0
C5767 C 0.63744 0.84103 0.90188 0.0
C5768 C 0.58732 0.84426 0.84136 0.0
C5769 C 0.61497 0.85171 0.86726 0.0
C5770 C 0.5722 0.85186 0.82837 0.0
C5771 C 0.57101 0.87274 0.8243 0.0
C5772 C 0.6011 0.85778 0.8505 0.0
C5773 C 0.58594 0.88527 0.83277 0.0
C5774 C 0.62569 0.86661 0.87811 0.0
C5775 C 0.62717 0.82641 0.89009 0.0
N5776 N 0.60016 0.87769 0.84542 0.0
N5777 N 0.61617 0.83206 0.87351 0.0
H5778 H 0.44747 0.30269 0.08561 0.0
H5779 H 0.40935 0.34995 0.18007 0.0
H5780 H 0.39659 0.34277 0.079 0.0
H5781 H 0.46925 0.37205 0.16475 0.0
H5782 H 0.40463 0.33999 0.14488 0.0
H5783 H 0.45803 0.32189 0.11569 0.0
C5784 C 0.43903 0.31609 0.08979 0.0
C5785 C 0.4209 0.32084 0.07969 0.0
C5786 C 0.41877 0.34705 0.14943 0.0
C5787 C 0.43223 0.342 0.11464 0.0
C5788 C 0.42152 0.35291 0.16955 0.0
C5789 C 0.43984 0.36191 0.17594 0.0
C5790 C 0.43458 0.34955 0.13555 0.0
C5791 C 0.45508 0.36464 0.16114 0.0
C5792 C 0.44491 0.3268 0.10715 0.0
C5793 C 0.41035 0.33805 0.08625 0.0
N5794 N 0.45224 0.35819 0.14177 0.0
N5795 N 0.41572 0.34756 0.10368 0.0
H5796 H 0.89468 0.1705 0.40005 0.0
H5797 H 0.98386 0.20174 0.33981 0.0
H5798 H 0.90781 0.23477 0.401 0.0
H5799 H 0.93578 0.17747 0.30282 0.0
H5800 H 0.95899 0.21136 0.36526 0.0
H5801 H 0.91154 0.16831 0.36713 0.0
C5802 C 0.90074 0.18422 0.39335 0.0
C5803 C 0.90009 0.2028 0.40379 0.0
C5804 C 0.95387 0.2041 0.35146 0.0
C5805 C 0.91965 0.20014 0.36625 0.0
C5806 C 0.968 0.19862 0.33692 0.0
C5807 C 0.96196 0.18787 0.31963 0.0
C5808 C 0.93361 0.19833 0.34895 0.0
C5809 C 0.94114 0.18487 0.31639 0.0
C5810 C 0.91032 0.1829 0.37452 0.0
C5811 C 0.90853 0.21993 0.39413 0.0
N5812 N 0.92767 0.1893 0.33136 0.0
N5813 N 0.91838 0.21808 0.37622 0.0
H5814 H 0.14489 0.70278 0.5702 0.0
H5815 H 0.05118 0.66781 0.63746 0.0
H5816 H 0.08899 0.73603 0.56999 0.0
H5817 H 0.11362 0.65026 0.64615 0.0
H5818 H 0.06152 0.68776 0.60778 0.0
H5819 H 0.12975 0.67717 0.59118 0.0
C5820 C 0.12923 0.70452 0.57396 0.0
C5821 C 0.11825 0.7216 0.5679 0.0
C5822 C 0.07281 0.67928 0.61612 0.0
C5823 C 0.10076 0.69245 0.59338 0.0
C5824 C 0.06699 0.66801 0.63319 0.0
C5825 C 0.08149 0.65716 0.6445 0.0
C5826 C 0.09321 0.67952 0.6102 0.0
C5827 C 0.10169 0.65784 0.63786 0.0
C5828 C 0.12053 0.68982 0.58627 0.0
C5829 C 0.0979 0.72284 0.5739 0.0
N5830 N 0.10686 0.66878 0.62128 0.0
N5831 N 0.08984 0.70862 0.58661 0.0
H5832 H 0.58753 0.14207 0.72671 0.0
H5833 H 0.6185 0.23008 0.64947 0.0
H5834 H 0.55539 0.19862 0.72501 0.0
H5835 H 0.63055 0.1662 0.64193 0.0
H5836 H 0.60151 0.22224 0.68158 0.0
H5837 H 0.61106 0.15491 0.70181 0.0
C5838 C 0.58573 0.15746 0.72169 0.0
C5839 C 0.5694 0.16924 0.72823 0.0
C5840 C 0.60814 0.21007 0.67291 0.0
C5841 C 0.59609 0.18399 0.69858 0.0
C5842 C 0.61772 0.21446 0.65443 0.0
C5843 C 0.62619 0.19885 0.64266 0.0
C5844 C 0.60727 0.18996 0.67989 0.0
C5845 C 0.62486 0.17897 0.65037 0.0
C5846 C 0.59916 0.16478 0.70716 0.0
C5847 C 0.568 0.18913 0.72072 0.0
N5848 N 0.61567 0.17518 0.66835 0.0
N5849 N 0.58094 0.19581 0.70602 0.0
H5850 H 0.06548 0.37733 0.8997 0.0
H5851 H 0.1532 0.33606 0.9707 0.0
H5852 H 0.12887 0.39337 0.89608 0.0
H5853 H 0.09204 0.31382 0.97614 0.0
H5854 H 0.14197 0.36232 0.94865 0.0
H5855 H 0.07261 0.3583 0.93085 0.0
C5856 C 0.08086 0.37698 0.90537 0.0
C5857 C 0.09661 0.38697 0.8949 0.0
C5858 C 0.13076 0.35204 0.95487 0.0
C5859 C 0.1047 0.36553 0.93095 0.0
C5860 C 0.13723 0.33695 0.96801 0.0
C5861 C 0.12359 0.32275 0.9761 0.0
C5862 C 0.11051 0.35251 0.94853 0.0
C5863 C 0.10306 0.32475 0.97076 0.0
C5864 C 0.08485 0.36624 0.92331 0.0
C5865 C 0.11609 0.38627 0.90348 0.0
N5866 N 0.09715 0.3391 0.95699 0.0
N5867 N 0.11952 0.37571 0.92079 0.0
H5868 H 0.95909 0.89709 0.22397 0.0
H5869 H 0.92531 0.81308 0.14512 0.0
H5870 H 0.99816 0.84662 0.21116 0.0
H5871 H 0.90921 0.87647 0.14158 0.0
H5872 H 0.9467 0.82073 0.17448 0.0
H5873 H 0.93465 0.88434 0.20062 0.0
C5874 C 0.96252 0.88293 0.21709 0.0
C5875 C 0.98095 0.87286 0.22028 0.0
C5876 C 0.93832 0.83284 0.16726 0.0
C5877 C 0.95257 0.85833 0.192 0.0
C5878 C 0.9262 0.82859 0.15034 0.0
C5879 C 0.91535 0.84415 0.14047 0.0
C5880 C 0.9393 0.85268 0.17472 0.0
C5881 C 0.91682 0.86379 0.14861 0.0
C5882 C 0.94836 0.87573 0.20322 0.0
C5883 C 0.98405 0.85477 0.20953 0.0
N5884 N 0.92848 0.86743 0.16518 0.0
N5885 N 0.9701 0.84811 0.19575 0.0
H5886 H 0.50423 0.69048 0.40133 0.0
H5887 H 0.42146 0.69327 0.48873 0.0
H5888 H 0.45409 0.64856 0.40362 0.0
H5889 H 0.44988 0.74752 0.46574 0.0
H5890 H 0.43933 0.6735 0.46278 0.0
H5891 H 0.48942 0.70931 0.42969 0.0
C5892 C 0.48992 0.68553 0.40766 0.0
C5893 C 0.48004 0.66834 0.40012 0.0
C5894 C 0.44183 0.68971 0.4637 0.0
C5895 C 0.46363 0.68897 0.43272 0.0
C5896 C 0.43189 0.70086 0.47858 0.0
C5897 C 0.43418 0.72193 0.47908 0.0
C5898 C 0.45444 0.69978 0.4498 0.0
C5899 C 0.44765 0.73125 0.46559 0.0
C5900 C 0.48161 0.69608 0.42385 0.0
C5901 C 0.46185 0.66202 0.40897 0.0
N5902 N 0.45729 0.72012 0.45142 0.0
N5903 N 0.45422 0.6723 0.42497 0.0
H5904 H 0.82668 0.55169 0.84484 0.0
H5905 H 0.9018 0.63613 0.87729 0.0
H5906 H 0.81502 0.59276 0.89388 0.0
H5907 H 0.89867 0.61884 0.81426 0.0
H5908 H 0.86933 0.62016 0.88277 0.0
H5909 H 0.85179 0.57586 0.83161 0.0
C5910 C 0.82862 0.56618 0.8523 0.0
C5911 C 0.81835 0.57022 0.8704 0.0
C5912 C 0.8756 0.62007 0.86765 0.0
C5913 C 0.8476 0.59743 0.85595 0.0
C5914 C 0.89425 0.62939 0.8644 0.0
C5915 C 0.90334 0.62903 0.84519 0.0
C5916 C 0.86598 0.60971 0.8518 0.0
C5917 C 0.8927 0.61921 0.82946 0.0
C5918 C 0.84309 0.57986 0.84486 0.0
C5919 C 0.82206 0.58886 0.87985 0.0
N5920 N 0.87475 0.60965 0.83319 0.0
N5921 N 0.83655 0.60158 0.87273 0.0
H5922 H 0.71485 0.58391 0.14943 0.0
H5923 H 0.67565 0.6675 0.07587 0.0
H5924 H 0.74263 0.58453 0.09079 0.0
H5925 H 0.71085 0.68467 0.12863 0.0
H5926 H 0.68697 0.63267 0.08058 0.0
H5927 H 0.69818 0.61593 0.14157 0.0
C5928 C 0.71713 0.5904 0.13477 0.0
C5929 C 0.73053 0.58151 0.12102 0.0
C5930 C 0.69194 0.64424 0.09111 0.0
C5931 C 0.71091 0.61807 0.11151 0.0
C5932 C 0.68573 0.6644 0.08838 0.0
C5933 C 0.69207 0.67987 0.10183 0.0
C5934 C 0.70398 0.63914 0.10779 0.0
C5935 C 0.70476 0.67384 0.11802 0.0
C5936 C 0.70753 0.60873 0.13024 0.0
C5937 C 0.73233 0.59071 0.10187 0.0
N5938 N 0.71002 0.65407 0.12063 0.0
N5939 N 0.7228 0.60857 0.0977 0.0
H5940 H 0.73689 0.46975 0.35279 0.0
H5941 H 0.62124 0.44085 0.35263 0.0
H5942 H 0.69391 0.49162 0.39634 0.0
H5943 H 0.663 0.39175 0.34311 0.0
H5944 H 0.64965 0.46284 0.36165 0.0
H5945 H 0.71231 0.44278 0.34322 0.0
C5946 C 0.72278 0.46834 0.36093 0.0
C5947 C 0.7178 0.48242 0.37599 0.0
C5948 C 0.65265 0.44726 0.35752 0.0
C5949 C 0.68936 0.4529 0.36433 0.0
C5950 C 0.63645 0.43474 0.35231 0.0
C5951 C 0.63975 0.41445 0.34723 0.0
C5952 C 0.67249 0.43964 0.35742 0.0
C5953 C 0.65984 0.40731 0.34715 0.0
C5954 C 0.70866 0.45323 0.35527 0.0
C5955 C 0.69867 0.48083 0.38506 0.0
N5956 N 0.67557 0.41993 0.3521 0.0
N5957 N 0.68522 0.46658 0.37902 0.0
H5958 H 0.84884 0.37387 0.63098 0.0
H5959 H 0.80555 0.46683 0.59082 0.0
H5960 H 0.87632 0.38699 0.57299 0.0
H5961 H 0.84586 0.47546 0.64137 0.0
H5962 H 0.82551 0.4373 0.58067 0.0
H5963 H 0.84034 0.40955 0.63413 0.0
C5964 C 0.85338 0.38402 0.61895 0.0
C5965 C 0.86353 0.37686 0.60167 0.0
C5966 C 0.83038 0.44619 0.59357 0.0
C5967 C 0.85279 0.41797 0.60506 0.0
C5968 C 0.81923 0.46328 0.59921 0.0
C5969 C 0.82359 0.47348 0.61736 0.0
C5970 C 0.84577 0.43919 0.60638 0.0
C5971 C 0.84131 0.46786 0.62772 0.0
C5972 C 0.84833 0.40446 0.62079 0.0
C5973 C 0.8681 0.39125 0.58642 0.0
N5974 N 0.85122 0.45057 0.62265 0.0
N5975 N 0.86241 0.41102 0.58832 0.0
H5976 H 0.93345 0.45394 0.71458 0.0
H5977 H 0.82468 0.44137 0.66182 0.0
H5978 H 0.92171 0.40967 0.66807 0.0
H5979 H 0.84165 0.48999 0.7018 0.0
H5980 H 0.85769 0.42531 0.66831 0.0
H5981 H 0.89805 0.46396 0.71339 0.0
C5982 C 0.92339 0.44632 0.70407 0.0
C5983 C 0.93061 0.43093 0.69141 0.0
C5984 C 0.85392 0.4392 0.6761 0.0
C5985 C 0.8897 0.44235 0.68998 0.0
C5986 C 0.83492 0.44813 0.67274 0.0
C5987 C 0.83045 0.46702 0.68134 0.0
C5988 C 0.86826 0.44917 0.68839 0.0
C5989 C 0.84444 0.4754 0.69495 0.0
C5990 C 0.9031 0.45203 0.70342 0.0
C5991 C 0.91684 0.42175 0.67795 0.0
N5992 N 0.86275 0.46659 0.69785 0.0
N5993 N 0.89702 0.42759 0.67759 0.0
H5994 H 0.84737 0.57339 0.91513 0.0
H5995 H 0.84098 0.67713 0.97762 0.0
H5996 H 0.7979 0.58838 0.95457 0.0
H5997 H 0.86842 0.67355 0.91866 0.0
H5998 H 0.83254 0.64093 0.97558 0.0
H5999 H 0.86326 0.60628 0.92323 0.0
C6000 C 0.84042 0.58307 0.92633 0.0
C6001 C 0.82141 0.57806 0.93439 0.0
C6002 C 0.84054 0.64806 0.96316 0.0
C6003 C 0.83925 0.61554 0.94353 0.0
C6004 C 0.84529 0.66868 0.96429 0.0
C6005 C 0.85514 0.6784 0.94816 0.0
C6006 C 0.84601 0.63691 0.94596 0.0
C6007 C 0.86049 0.6667 0.93127 0.0
C6008 C 0.84927 0.60197 0.93063 0.0
C6009 C 0.81273 0.59144 0.94834 0.0
N6010 N 0.85587 0.64655 0.9306 0.0
N6011 N 0.82162 0.60958 0.95236 0.0
H6012 H 0.62162 0.59126 0.22074 0.0
H6013 H 0.73348 0.60474 0.17755 0.0
H6014 H 0.63812 0.63753 0.17755 0.0
H6015 H 0.70984 0.5501 0.20446 0.0
H6016 H 0.70222 0.62246 0.18706 0.0
H6017 H 0.65697 0.5812 0.2231 0.0
C6018 C 0.63274 0.59931 0.21173 0.0
C6019 C 0.62693 0.61513 0.19878 0.0
C6020 C 0.70422 0.60678 0.19148 0.0
C6021 C 0.66752 0.60368 0.20146 0.0
C6022 C 0.72217 0.5968 0.18641 0.0
C6023 C 0.72379 0.5759 0.18983 0.0
C6024 C 0.68839 0.59573 0.20053 0.0
C6025 C 0.70883 0.56617 0.20125 0.0
C6026 C 0.65293 0.59362 0.21317 0.0
C6027 C 0.64196 0.62501 0.18743 0.0
N6028 N 0.69156 0.57608 0.20588 0.0
N6029 N 0.66164 0.61904 0.18895 0.0
H6030 H 0.69228 0.49447 0.43208 0.0
H6031 H 0.68581 0.38329 0.47932 0.0
H6032 H 0.74282 0.45536 0.44504 0.0
H6033 H 0.63422 0.41419 0.45372 0.0
H6034 H 0.7053 0.4146 0.47698 0.0
H6035 H 0.6698 0.4701 0.44944 0.0
C6036 C 0.69864 0.4809 0.43871 0.0
C6037 C 0.71918 0.47629 0.43615 0.0
C6038 C 0.6896 0.41466 0.47217 0.0
C6039 C 0.69397 0.44892 0.45642 0.0
C6040 C 0.67839 0.39678 0.47364 0.0
C6041 C 0.65848 0.39595 0.46622 0.0
C6042 C 0.68094 0.43184 0.46305 0.0
C6043 C 0.64975 0.41399 0.459 0.0
C6044 C 0.68588 0.46706 0.44864 0.0
C6045 C 0.72685 0.45891 0.44567 0.0
N6046 N 0.66114 0.43113 0.45725 0.0
N6047 N 0.71426 0.44579 0.45516 0.0
H6048 H 0.83502 0.83874 0.55868 0.0
H6049 H 0.88 0.92859 0.62057 0.0
H6050 H 0.8792 0.82793 0.60527 0.0
H6051 H 0.81847 0.93011 0.59857 0.0
H6052 H 0.88092 0.89198 0.61382 0.0
H6053 H 0.82783 0.87172 0.5732 0.0
C6054 C 0.84243 0.84288 0.57262 0.0
C6055 C 0.85752 0.8305 0.58087 0.0
C6056 C 0.86719 0.90034 0.61063 0.0
C6057 C 0.85053 0.86894 0.59685 0.0
C6058 C 0.86678 0.92123 0.61415 0.0
C6059 C 0.8492 0.93236 0.60993 0.0
C6060 C 0.85002 0.89064 0.60254 0.0
C6061 C 0.83233 0.92206 0.60198 0.0
C6062 C 0.83863 0.86193 0.58072 0.0
C6063 C 0.86728 0.83698 0.59859 0.0
N6064 N 0.83322 0.90182 0.59835 0.0
N6065 N 0.86411 0.85609 0.60566 0.0
H6066 H 0.28358 0.66671 0.45262 0.0
H6067 H 0.39175 0.70988 0.46988 0.0
H6068 H 0.33062 0.65401 0.40924 0.0
H6069 H 0.33855 0.74205 0.48868 0.0
H6070 H 0.37098 0.68969 0.44682 0.0
H6071 H 0.30448 0.69357 0.46678 0.0
C6072 C 0.29823 0.66968 0.44588 0.0
C6073 C 0.30518 0.65818 0.42946 0.0
C6074 C 0.36393 0.70157 0.45558 0.0
C6075 C 0.32944 0.68884 0.44604 0.0
C6076 C 0.37581 0.71319 0.46866 0.0
C6077 C 0.36689 0.72775 0.48115 0.0
C6078 C 0.34286 0.70401 0.45571 0.0
C6079 C 0.34608 0.73118 0.47922 0.0
C6080 C 0.31014 0.68508 0.454 0.0
C6081 C 0.32466 0.66235 0.42196 0.0
N6082 N 0.33465 0.71905 0.46711 0.0
N6083 N 0.3362 0.67727 0.43042 0.0
H6084 H 0.58176 0.08739 0.75851 0.0
H6085 H 0.66325 0.09864 0.67777 0.0
H6086 H 0.56693 0.11493 0.70119 0.0
H6087 H 0.64747 0.0362 0.68907 0.0
H6088 H 0.63445 0.1092 0.69849 0.0
H6089 H 0.61101 0.07087 0.74281 0.0
C6090 C 0.58438 0.08942 0.74247 0.0
C6091 C 0.57211 0.10242 0.73097 0.0
C6092 C 0.63777 0.09321 0.6969 0.0
C6093 C 0.60556 0.08457 0.71355 0.0
C6094 C 0.65432 0.08722 0.68552 0.0
C6095 C 0.65761 0.0666 0.682 0.0
C6096 C 0.62481 0.07842 0.70489 0.0
C6097 C 0.64537 0.05224 0.69179 0.0
C6098 C 0.60102 0.08014 0.73367 0.0
C6099 C 0.57602 0.10482 0.71037 0.0
N6100 N 0.62918 0.05842 0.70274 0.0
N6101 N 0.59288 0.09639 0.70236 0.0
H6102 H 0.20222 0.33873 0.99961 0.0
H6103 H 0.21707 0.37335 0.88692 0.0
H6104 H 0.18468 0.30313 0.9479 0.0
H6105 H 0.23244 0.40955 0.93906 0.0
H6106 H 0.21532 0.34337 0.90864 0.0
H6107 H 0.22272 0.36032 0.97781 0.0
C6108 C 0.20269 0.33552 0.98364 0.0
C6109 C 0.19104 0.31985 0.97533 0.0
C6110 C 0.21952 0.35779 0.91526 0.0
C6111 C 0.21465 0.34415 0.95026 0.0
C6112 C 0.22046 0.37489 0.90288 0.0
C6113 C 0.22421 0.39401 0.91136 0.0
C6114 C 0.22202 0.35999 0.93624 0.0
C6115 C 0.22915 0.39513 0.93196 0.0
C6116 C 0.21463 0.34764 0.9712 0.0
C6117 C 0.19312 0.31545 0.95475 0.0
N6118 N 0.22742 0.37842 0.94381 0.0
N6119 N 0.20433 0.32787 0.94277 0.0
H6120 H 0.37127 0.45083 0.68911 0.0
H6121 H 0.48628 0.41891 0.69126 0.0
H6122 H 0.40357 0.44274 0.63307 0.0
H6123 H 0.45619 0.45038 0.73955 0.0
H6124 H 0.45764 0.42697 0.6687 0.0
H6125 H 0.40294 0.44828 0.70751 0.0
C6126 C 0.38509 0.44859 0.68063 0.0
C6127 C 0.38477 0.44736 0.65946 0.0
C6128 C 0.45761 0.43254 0.68409 0.0
C6129 C 0.42135 0.44419 0.68062 0.0
C6130 C 0.47403 0.4282 0.69685 0.0
C6131 C 0.47338 0.43389 0.71728 0.0
C6132 C 0.44062 0.44249 0.69202 0.0
C6133 C 0.45708 0.44552 0.72396 0.0
C6134 C 0.40322 0.44718 0.69117 0.0
C6135 C 0.40314 0.44377 0.64939 0.0
N6136 N 0.44121 0.44916 0.71148 0.0
N6137 N 0.42078 0.44229 0.66009 0.0
H6138 H 0.69288 0.12383 0.13332 0.0
H6139 H 0.70348 0.21115 0.05022 0.0
H6140 H 0.70671 0.1145 0.07033 0.0
H6141 H 0.66694 0.22013 0.10322 0.0
H6142 H 0.71302 0.17792 0.06265 0.0
H6143 H 0.68941 0.1604 0.12661 0.0
C6144 C 0.69517 0.12944 0.11809 0.0
C6145 C 0.70003 0.116 0.10232 0.0
C6146 C 0.70336 0.1873 0.07192 0.0
C6147 C 0.69649 0.1578 0.09473 0.0
C6148 C 0.69833 0.2066 0.06508 0.0
C6149 C 0.68462 0.21865 0.07582 0.0
C6150 C 0.69453 0.17974 0.08966 0.0
C6151 C 0.6778 0.21146 0.09463 0.0
C6152 C 0.69319 0.15029 0.11432 0.0
C6153 C 0.70273 0.12416 0.0829 0.0
N6154 N 0.68251 0.19224 0.10082 0.0
N6155 N 0.70105 0.14445 0.07972 0.0
H6156 H 0.57937 0.95902 0.80837 0.0
H6157 H 0.65755 0.92305 0.89002 0.0
H6158 H 0.56199 0.9209 0.85834 0.0
H6159 H 0.66846 0.97282 0.84897 0.0
H6160 H 0.62148 0.92403 0.88091 0.0
H6161 H 0.60998 0.96871 0.82652 0.0
C6162 C 0.58162 0.95345 0.82364 0.0
C6163 C 0.56854 0.9389 0.83181 0.0
C6164 C 0.63176 0.93492 0.87415 0.0
C6165 C 0.6039 0.94892 0.85222 0.0
C6166 C 0.65234 0.93413 0.87909 0.0
C6167 C 0.66596 0.94781 0.87016 0.0
C6168 C 0.6249 0.94934 0.86004 0.0
C6169 C 0.65844 0.96208 0.85631 0.0
C6170 C 0.59925 0.95871 0.83391 0.0
C6171 C 0.57193 0.93211 0.8516 0.0
N6172 N 0.63848 0.96238 0.8516 0.0
N6173 N 0.58979 0.93657 0.86092 0.0
H6174 H 0.90992 0.06308 0.38289 0.0
H6175 H 0.94081 0.14461 0.30947 0.0
H6176 H 0.89609 0.12595 0.39454 0.0
H6177 H 0.99015 0.10595 0.32671 0.0
H6178 H 0.92213 0.134 0.33889 0.0
H6179 H 0.93838 0.07421 0.36146 0.0
C6180 C 0.91305 0.07913 0.38134 0.0
C6181 C 0.90032 0.09357 0.3904 0.0
C6182 C 0.93733 0.12825 0.33671 0.0
C6183 C 0.93279 0.10616 0.36628 0.0
C6184 C 0.94819 0.13464 0.32007 0.0
C6185 C 0.96791 0.12779 0.31671 0.0
C6186 C 0.94557 0.11367 0.34961 0.0
C6187 C 0.97565 0.1128 0.32969 0.0
C6188 C 0.92943 0.08539 0.36936 0.0
C6189 C 0.90538 0.11415 0.3881 0.0
N6190 N 0.96433 0.106 0.34566 0.0
N6191 N 0.92092 0.11978 0.376 0.0
H6192 H 0.41356 0.19957 0.13984 0.0
H6193 H 0.47945 0.19625 0.24188 0.0
H6194 H 0.42865 0.25314 0.17417 0.0
H6195 H 0.46876 0.14567 0.2023 0.0
H6196 H 0.4563 0.21668 0.22095 0.0
H6197 H 0.43036 0.17894 0.16545 0.0
C6198 C 0.42062 0.20702 0.15265 0.0
C6199 C 0.41977 0.22811 0.15478 0.0
C6200 C 0.45864 0.20089 0.21722 0.0
C6201 C 0.43875 0.20453 0.18451 0.0
C6202 C 0.47162 0.18918 0.22934 0.0
C6203 C 0.47569 0.16904 0.22401 0.0
C6204 C 0.44993 0.19231 0.19972 0.0
C6205 C 0.46563 0.16085 0.20724 0.0
C6206 C 0.43001 0.19522 0.16744 0.0
C6207 C 0.42882 0.23688 0.17199 0.0
N6208 N 0.4534 0.17247 0.19565 0.0
N6209 N 0.43798 0.22507 0.18618 0.0
H6210 H 0.59189 0.73703 0.96876 0.0
H6211 H 0.62975 0.65948 0.88946 0.0
H6212 H 0.64388 0.69912 0.97874 0.0
H6213 H 0.56557 0.67162 0.8937 0.0
H6214 H 0.63446 0.67413 0.92269 0.0
H6215 H 0.58008 0.71308 0.94287 0.0
C6216 C 0.60037 0.72322 0.96632 0.0
C6217 C 0.61905 0.72035 0.97617 0.0
C6218 C 0.61928 0.6734 0.91645 0.0
C6219 C 0.60619 0.69343 0.94576 0.0
C6220 C 0.61649 0.66486 0.89734 0.0
C6221 C 0.59717 0.66418 0.8883 0.0
C6222 C 0.6028 0.68193 0.92667 0.0
C6223 C 0.58087 0.67216 0.89953 0.0
C6224 C 0.59376 0.70972 0.95128 0.0
C6225 C 0.62962 0.70247 0.97177 0.0
N6226 N 0.58411 0.68098 0.91792 0.0
N6227 N 0.62332 0.69001 0.95667 0.0
H6228 H 0.11036 0.83454 0.62993 0.0
H6229 H 0.10877 0.86818 0.74464 0.0
H6230 H 0.16641 0.8435 0.66254 0.0
H6231 H 0.05788 0.84533 0.71056 0.0
H6232 H 0.1315 0.85667 0.71742 0.0
H6233 H 0.09189 0.83742 0.66109 0.0
C6234 C 0.11884 0.83696 0.64378 0.0
C6235 C 0.14001 0.8384 0.64365 0.0
C6236 C 0.1154 0.8537 0.71627 0.0
C6237 C 0.11869 0.84218 0.67986 0.0
C6238 C 0.10249 0.86004 0.73185 0.0
C6239 C 0.08144 0.85815 0.72946 0.0
C6240 C 0.10695 0.84519 0.69865 0.0
C6241 C 0.07399 0.84747 0.71279 0.0
C6242 C 0.10824 0.83861 0.66169 0.0
C6243 C 0.15007 0.84228 0.66202 0.0
N6244 N 0.08666 0.84168 0.69794 0.0
N6245 N 0.13928 0.84412 0.6795 0.0
H6246 H 0.9026 0.31573 0.44684 0.0
H6247 H 0.95873 0.41263 0.42994 0.0
H6248 H 0.94562 0.32157 0.4953 0.0
H6249 H 0.96883 0.36048 0.39187 0.0
H6250 H 0.94799 0.3895 0.45733 0.0
H6251 H 0.91849 0.34385 0.42938 0.0
C6252 C 0.91463 0.32377 0.4544 0.0
C6253 C 0.92164 0.31738 0.4733 0.0
C6254 C 0.95331 0.38333 0.44314 0.0
C6255 C 0.94118 0.3486 0.45259 0.0
C6256 C 0.95913 0.39643 0.42743 0.0
C6257 C 0.96446 0.38858 0.40838 0.0
C6258 C 0.95276 0.36242 0.43958 0.0
C6259 C 0.96505 0.36741 0.40618 0.0
C6260 C 0.92399 0.33952 0.44423 0.0
C6261 C 0.93892 0.32694 0.48139 0.0
N6262 N 0.95887 0.35516 0.42141 0.0
N6263 N 0.94832 0.34215 0.47087 0.0
H6264 H 0.45716 0.89751 0.32758 0.0
H6265 H 0.41908 0.82491 0.41253 0.0
H6266 H 0.49097 0.84211 0.33396 0.0
H6267 H 0.44522 0.88365 0.4261 0.0
H6268 H 0.43228 0.82781 0.37811 0.0
H6269 H 0.43742 0.88856 0.35679 0.0
C6270 C 0.46014 0.88306 0.33435 0.0
C6271 C 0.47629 0.87076 0.32808 0.0
C6272 C 0.43491 0.83999 0.38876 0.0
C6273 C 0.4531 0.86034 0.36208 0.0
C6274 C 0.42762 0.83836 0.4086 0.0
C6275 C 0.43101 0.85401 0.42283 0.0
C6276 C 0.44505 0.85765 0.38278 0.0
C6277 C 0.44163 0.87128 0.41601 0.0
C6278 C 0.4487 0.87802 0.35132 0.0
C6279 C 0.47862 0.85204 0.33804 0.0
N6280 N 0.44806 0.87268 0.39653 0.0
N6281 N 0.46746 0.84752 0.35483 0.0
H6282 H 0.95969 0.65557 0.14664 0.0
H6283 H 0.95068 0.73454 0.05516 0.0
H6284 H 1.00719 0.69651 0.12748 0.0
H6285 H 0.89855 0.71577 0.08956 0.0
H6286 H 0.9718 0.71215 0.07564 0.0
H6287 H 0.9371 0.67091 0.12128 0.0
C6288 C 0.96541 0.66774 0.13722 0.0
C6289 C 0.98555 0.67453 0.13915 0.0
C6290 C 0.95565 0.71259 0.07843 0.0
C6291 C 0.96001 0.69154 0.10972 0.0
C6292 C 0.94355 0.72519 0.06653 0.0
C6293 C 0.92283 0.72684 0.07055 0.0
C6294 C 0.94698 0.70174 0.09456 0.0
C6295 C 0.91449 0.7147 0.0859 0.0
C6296 C 0.95256 0.6763 0.12262 0.0
C6297 C 0.99205 0.69026 0.12629 0.0
N6298 N 0.92661 0.70274 0.0975 0.0
N6299 N 0.97941 0.69809 0.11212 0.0
H6300 H 0.1372 0.16918 0.90706 0.0
H6301 H 0.05796 0.20217 0.8228 0.0
H6302 H 0.1225 0.2323 0.89783 0.0
H6303 H 0.08553 0.14339 0.82814 0.0
H6304 H 0.08278 0.21523 0.84756 0.0
H6305 H 0.1194 0.16082 0.87628 0.0
C6306 C 0.13054 0.18145 0.89848 0.0
C6307 C 0.13172 0.20159 0.90527 0.0
C6308 C 0.08367 0.19958 0.84276 0.0
C6309 C 0.11024 0.19179 0.86969 0.0
C6310 C 0.06968 0.19217 0.82843 0.0
C6311 C 0.06967 0.1716 0.8229 0.0
C6312 C 0.09752 0.18616 0.85182 0.0
C6313 C 0.0847 0.15924 0.83138 0.0
C6314 C 0.12014 0.17658 0.88079 0.0
C6315 C 0.1219 0.21651 0.8935 0.0
N6316 N 0.0978 0.16663 0.84536 0.0
N6317 N 0.11144 0.2113 0.87639 0.0
H6318 H 0.55941 0.38217 0.6524 0.0
H6319 H 0.62445 0.35313 0.55681 0.0
H6320 H 0.62318 0.39741 0.65057 0.0
H6321 H 0.59321 0.30707 0.59109 0.0
H6322 H 0.61491 0.3783 0.58254 0.0
H6323 H 0.56336 0.36311 0.62113 0.0
C6324 C 0.57426 0.38161 0.64554 0.0
C6325 C 0.59117 0.39093 0.65474 0.0
C6326 C 0.60968 0.36278 0.58399 0.0
C6327 C 0.59523 0.37018 0.61813 0.0
C6328 C 0.61483 0.34854 0.56927 0.0
C6329 C 0.60944 0.32812 0.57191 0.0
C6330 C 0.59851 0.35655 0.6009 0.0
C6331 C 0.59751 0.32272 0.58856 0.0
C6332 C 0.57633 0.37095 0.62752 0.0
C6333 C 0.6097 0.39047 0.64427 0.0
N6334 N 0.59241 0.33688 0.60249 0.0
N6335 N 0.61126 0.38012 0.62656 0.0
H6336 H 0.15909 0.39383 0.20163 0.0
H6337 H 0.22174 0.49737 0.20505 0.0
H6338 H 0.13827 0.44926 0.22929 0.0
H6339 H 0.22747 0.45289 0.15787 0.0
H6340 H 0.19895 0.47429 0.22307 0.0
H6341 H 0.19132 0.41053 0.19407 0.0
C6342 C 0.16126 0.4094 0.20634 0.0
C6343 C 0.14556 0.42022 0.21574 0.0
C6344 C 0.20582 0.46934 0.20909 0.0
C6345 C 0.18281 0.43909 0.20775 0.0
C6346 C 0.21899 0.4824 0.1989 0.0
C6347 C 0.22696 0.477 0.18005 0.0
C6348 C 0.20041 0.4508 0.20023 0.0
C6349 C 0.22235 0.45767 0.17248 0.0
C6350 C 0.17977 0.41881 0.20216 0.0
C6351 C 0.14974 0.44014 0.2221 0.0
N6352 N 0.20921 0.44535 0.18248 0.0
N6353 N 0.16786 0.44895 0.21781 0.0
H6354 H 0.30062 0.46083 0.95334 0.0
H6355 H 0.35138 0.36793 0.91324 0.0
H6356 H 0.33868 0.46847 0.90122 0.0
H6357 H 0.37238 0.38397 0.97324 0.0
H6358 H 0.33967 0.40268 0.90876 0.0
H6359 H 0.32093 0.4312 0.96309 0.0
C6360 C 0.31374 0.45696 0.94436 0.0
C6361 C 0.31766 0.46737 0.92618 0.0
C6362 C 0.34686 0.39839 0.92288 0.0
C6363 C 0.34008 0.43286 0.93663 0.0
C6364 C 0.35372 0.37853 0.92548 0.0
C6365 C 0.36291 0.37249 0.94375 0.0
C6366 C 0.34858 0.41228 0.9388 0.0
C6367 C 0.36484 0.38731 0.9591 0.0
C6368 C 0.3251 0.43988 0.94981 0.0
C6369 C 0.33462 0.46123 0.91505 0.0
N6370 N 0.35745 0.40637 0.9564 0.0
N6371 N 0.34474 0.44402 0.92 0.0
H6372 H 0.38098 0.60513 0.76157 0.0
H6373 H 0.32592 0.58636 0.65565 0.0
H6374 H 0.40079 0.63101 0.70503 0.0
H6375 H 0.31501 0.54931 0.70821 0.0
H6376 H 0.3483 0.60779 0.67548 0.0
H6377 H 0.35305 0.58822 0.7438 0.0
C6378 C 0.3795 0.60708 0.74536 0.0
C6379 C 0.39325 0.61932 0.73467 0.0
C6380 C 0.34068 0.59523 0.68283 0.0
C6381 C 0.36115 0.60048 0.71438 0.0
C6382 C 0.32765 0.58304 0.67151 0.0
C6383 C 0.3183 0.56612 0.68032 0.0
C6384 C 0.34471 0.59018 0.70305 0.0
C6385 C 0.32147 0.56253 0.70097 0.0
C6386 C 0.36353 0.59756 0.73528 0.0
C6387 C 0.39068 0.62145 0.71374 0.0
N6388 N 0.33461 0.57432 0.71163 0.0
N6389 N 0.37487 0.61219 0.70427 0.0
H6390 H 0.17301 0.66413 0.46966 0.0
H6391 H 0.21202 0.57895 0.39668 0.0
H6392 H 0.19939 0.67939 0.41166 0.0
H6393 H 0.23943 0.58282 0.45553 0.0
H6394 H 0.19399 0.61045 0.40305 0.0
H6395 H 0.1857 0.62964 0.46575 0.0
C6396 C 0.18143 0.66062 0.45615 0.0
C6397 C 0.18496 0.67542 0.44103 0.0
C6398 C 0.20358 0.60409 0.41475 0.0
C6399 C 0.19841 0.63506 0.43613 0.0
C6400 C 0.21392 0.58597 0.41109 0.0
C6401 C 0.2277 0.57823 0.42528 0.0
C6402 C 0.20645 0.61425 0.43314 0.0
C6403 C 0.22896 0.58816 0.44408 0.0
C6404 C 0.18844 0.64067 0.4539 0.0
C6405 C 0.19555 0.66896 0.42366 0.0
N6406 N 0.21863 0.60571 0.44745 0.0
N6407 N 0.20164 0.64937 0.42164 0.0
H6408 H 0.13825 0.64605 0.34025 0.0
H6409 H 0.20318 0.54619 0.34742 0.0
H6410 H 0.11799 0.58951 0.36618 0.0
H6411 H 0.23192 0.60227 0.36509 0.0
H6412 H 0.17225 0.56456 0.33991 0.0
H6413 H 0.17301 0.63239 0.33858 0.0
C6414 C 0.14122 0.63089 0.3458 0.0
C6415 C 0.12542 0.61887 0.35358 0.0
C6416 C 0.18551 0.57294 0.34489 0.0
C6417 C 0.16439 0.60313 0.35082 0.0
C6418 C 0.20326 0.56254 0.3489 0.0
C6419 C 0.21993 0.57269 0.35738 0.0
C6420 C 0.18443 0.59363 0.3493 0.0
C6421 C 0.21926 0.59391 0.35879 0.0
C6422 C 0.16089 0.62316 0.34473 0.0
C6423 C 0.12983 0.5993 0.36036 0.0
N6424 N 0.20145 0.60374 0.35536 0.0
N6425 N 0.14887 0.59195 0.3586 0.0
H6426 H 0.1746 0.37002 0.13195 0.0
H6427 H 0.24 0.46019 0.09143 0.0
H6428 H 0.19708 0.3707 0.0708 0.0
H6429 H 0.19499 0.46985 0.13728 0.0
H6430 H 0.22397 0.42817 0.08274 0.0
H6431 H 0.18243 0.40635 0.13469 0.0
C6432 C 0.18125 0.37781 0.11913 0.0
C6433 C 0.18536 0.36728 0.10118 0.0
C6434 C 0.21705 0.43758 0.09417 0.0
C6435 C 0.19421 0.40885 0.10416 0.0
C6436 C 0.22592 0.45623 0.09879 0.0
C6437 C 0.21837 0.46819 0.11456 0.0
C6438 C 0.20093 0.43035 0.10595 0.0
C6439 C 0.20095 0.46136 0.12464 0.0
C6440 C 0.18546 0.39858 0.12062 0.0
C6441 C 0.19368 0.37821 0.08493 0.0
N6442 N 0.19311 0.44264 0.12054 0.0
N6443 N 0.19805 0.3983 0.08689 0.0
H6444 H 0.33641 0.49237 0.84255 0.0
H6445 H 0.41783 0.41213 0.87723 0.0
H6446 H 0.31993 0.43974 0.87749 0.0
H6447 H 0.42827 0.45732 0.83117 0.0
H6448 H 0.38151 0.42041 0.87646 0.0
H6449 H 0.36865 0.47689 0.83461 0.0
C6450 C 0.33919 0.47702 0.8477 0.0
C6451 C 0.32551 0.46731 0.86068 0.0
C6452 C 0.39177 0.42839 0.86644 0.0
C6453 C 0.36318 0.45002 0.85297 0.0
C6454 C 0.4125 0.42391 0.86713 0.0
C6455 C 0.42609 0.43418 0.85437 0.0
C6456 C 0.38467 0.44334 0.85301 0.0
C6457 C 0.41834 0.44903 0.84127 0.0
C6458 C 0.35786 0.46833 0.84355 0.0
C6459 C 0.3301 0.44765 0.86734 0.0
N6460 N 0.39824 0.45319 0.841 0.0
N6461 N 0.34891 0.43989 0.86401 0.0
H6462 H 0.38115 0.65377 0.56461 0.0
H6463 H 0.35369 0.55922 0.63373 0.0
H6464 H 0.39831 0.65283 0.62777 0.0
H6465 H 0.30896 0.58925 0.59689 0.0
H6466 H 0.37849 0.58564 0.62434 0.0
H6467 H 0.36282 0.62199 0.56955 0.0
C6468 C 0.38117 0.64698 0.57953 0.0
C6469 C 0.3908 0.65657 0.59598 0.0
C6470 C 0.36337 0.58605 0.61796 0.0
C6471 C 0.37072 0.61947 0.60124 0.0
C6472 C 0.34935 0.57093 0.62307 0.0
C6473 C 0.32936 0.57211 0.61594 0.0
C6474 C 0.3574 0.60192 0.60515 0.0
C6475 C 0.32425 0.58783 0.60263 0.0
C6476 C 0.37088 0.62869 0.58219 0.0
C6477 C 0.39107 0.64623 0.61463 0.0
N6478 N 0.3382 0.60214 0.59761 0.0
N6479 N 0.38103 0.62829 0.6168 0.0
H6480 H 0.22761 0.11746 0.45662 0.0
H6481 H 0.16834 0.22259 0.44399 0.0
H6482 H 0.17068 0.12292 0.42502 0.0
H6483 H 0.20803 0.20911 0.49396 0.0
H6484 H 0.17636 0.18936 0.42927 0.0
H6485 H 0.22685 0.15395 0.46367 0.0
C6486 C 0.21497 0.12637 0.45115 0.0
C6487 C 0.19902 0.11711 0.44053 0.0
C6488 C 0.18385 0.19403 0.4431 0.0
C6489 C 0.19833 0.15893 0.44803 0.0
C6490 C 0.17961 0.21315 0.45127 0.0
C6491 C 0.18752 0.21853 0.47023 0.0
C6492 C 0.19655 0.18063 0.45375 0.0
C6493 C 0.20171 0.20557 0.47926 0.0
C6494 C 0.21459 0.14717 0.4551 0.0
C6495 C 0.18307 0.1294 0.43363 0.0
N6496 N 0.20558 0.18712 0.4711 0.0
N6497 N 0.18312 0.14968 0.43749 0.0
H6498 H 0.64624 0.32401 0.58698 0.0
H6499 H 0.7343 0.39592 0.62542 0.0
H6500 H 0.70219 0.32809 0.55401 0.0
H6501 H 0.67049 0.40408 0.63719 0.0
H6502 H 0.72602 0.36632 0.60464 0.0
H6503 H 0.65886 0.34672 0.61162 0.0
C6504 C 0.66149 0.32874 0.58504 0.0
C6505 C 0.67317 0.32308 0.56835 0.0
C6506 C 0.71394 0.37459 0.61191 0.0
C6507 C 0.6877 0.35125 0.59671 0.0
C6508 C 0.71856 0.3916 0.62368 0.0
C6509 C 0.70305 0.40282 0.633 0.0
C6510 C 0.69372 0.3685 0.60976 0.0
C6511 C 0.68304 0.39595 0.63062 0.0
C6512 C 0.66868 0.34238 0.59928 0.0
C6513 C 0.69272 0.33153 0.56688 0.0
N6514 N 0.679 0.37931 0.61925 0.0
N6515 N 0.69937 0.34536 0.58079 0.0
H6516 H 0.46036 0.95278 0.30967 0.0
H6517 H 0.40722 0.94712 0.41793 0.0
H6518 H 0.48716 0.92022 0.35941 0.0
H6519 H 0.37882 0.9655 0.36194 0.0
H6520 H 0.43923 0.9423 0.39947 0.0
H6521 H 0.43385 0.96478 0.33195 0.0
C6522 C 0.46088 0.94859 0.32546 0.0
C6523 C 0.47574 0.93545 0.33273 0.0
C6524 C 0.42596 0.94758 0.39139 0.0
C6525 C 0.44508 0.94843 0.35831 0.0
C6526 C 0.40771 0.95016 0.40184 0.0
C6527 C 0.39037 0.95695 0.39152 0.0
C6528 C 0.42674 0.95191 0.37059 0.0
C6529 C 0.39185 0.96074 0.37069 0.0
C6530 C 0.44566 0.95528 0.33819 0.0
C6531 C 0.4759 0.93048 0.35336 0.0
N6532 N 0.40965 0.95821 0.361 0.0
N6533 N 0.46046 0.93667 0.36546 0.0
H6534 H 0.8198 0.67726 0.1595 0.0
H6535 H 0.84357 0.70572 0.0482 0.0
H6536 H 0.80747 0.63915 0.10796 0.0
H6537 H 0.85604 0.74438 0.09912 0.0
H6538 H 0.81993 0.68634 0.0685 0.0
H6539 H 0.82109 0.70669 0.13705 0.0
C6540 C 0.81686 0.67521 0.1435 0.0
C6541 C 0.81442 0.65577 0.13538 0.0
C6542 C 0.82763 0.69918 0.07528 0.0
C6543 C 0.81631 0.68901 0.10972 0.0
C6544 C 0.84147 0.71001 0.06373 0.0
C6545 C 0.85253 0.72595 0.0723 0.0
C6546 C 0.82527 0.70402 0.09577 0.0
C6547 C 0.84822 0.73172 0.09217 0.0
C6548 C 0.81755 0.69197 0.1307 0.0
C6549 C 0.80992 0.65388 0.11474 0.0
N6550 N 0.83526 0.72041 0.10346 0.0
N6551 N 0.8116 0.67026 0.10248 0.0
H6552 H 0.55288 0.60154 0.35173 0.0
H6553 H 0.66778 0.56478 0.35369 0.0
H6554 H 0.59221 0.59602 0.30009 0.0
H6555 H 0.63528 0.58375 0.40678 0.0
H6556 H 0.63589 0.56442 0.33477 0.0
H6557 H 0.57863 0.58409 0.37245 0.0
C6558 C 0.56667 0.59629 0.34468 0.0
C6559 C 0.57083 0.60101 0.32442 0.0
C6560 C 0.63563 0.56821 0.3507 0.0
C6561 C 0.59993 0.5808 0.34767 0.0
C6562 C 0.65384 0.56824 0.36152 0.0
C6563 C 0.65422 0.5748 0.38165 0.0
C6564 C 0.61774 0.57487 0.36007 0.0
C6565 C 0.63567 0.57912 0.39108 0.0
C6566 C 0.58136 0.5864 0.35647 0.0
C6567 C 0.58875 0.59351 0.3159 0.0
N6568 N 0.61821 0.57949 0.38011 0.0
N6569 N 0.60269 0.58404 0.32758 0.0
H6570 H 0.3388 0.83689 0.99424 0.0
H6571 H 0.35759 0.92308 0.91143 0.0
H6572 H 0.37962 0.82717 0.9446 0.0
H6573 H 0.33967 0.9337 0.97315 0.0
H6574 H 0.35969 0.88655 0.91885 0.0
H6575 H 0.33085 0.87028 0.98086 0.0
C6576 C 0.34525 0.84135 0.97986 0.0
C6577 C 0.35968 0.8291 0.97037 0.0
C6578 C 0.35531 0.89692 0.93071 0.0
C6579 C 0.35149 0.86794 0.9555 0.0
C6580 C 0.35415 0.91773 0.92654 0.0
C6581 C 0.34857 0.93148 0.94176 0.0
C6582 C 0.3504 0.8898 0.9501 0.0
C6583 C 0.34428 0.92373 0.96104 0.0
C6584 C 0.34111 0.86067 0.9725 0.0
C6585 C 0.36814 0.83602 0.95216 0.0
N6586 N 0.34516 0.90345 0.9646 0.0
N6587 N 0.36422 0.85521 0.94546 0.0
H6588 H 0.36014 0.09059 0.22431 0.0
H6589 H 0.47522 0.11192 0.19481 0.0
H6590 H 0.37826 0.09458 0.1618 0.0
H6591 H 0.45364 0.09422 0.25372 0.0
H6592 H 0.44149 0.10338 0.18074 0.0
H6593 H 0.39558 0.09142 0.23433 0.0
C6594 C 0.3716 0.0918 0.21267 0.0
C6595 C 0.36616 0.09262 0.19221 0.0
C6596 C 0.44447 0.10081 0.19664 0.0
C6597 C 0.40717 0.09325 0.20355 0.0
C6598 C 0.46376 0.10551 0.20462 0.0
C6599 C 0.46713 0.10422 0.22556 0.0
C6600 C 0.42885 0.09452 0.20979 0.0
C6601 C 0.45186 0.09547 0.2375 0.0
C6602 C 0.39193 0.09202 0.21837 0.0
C6603 C 0.3818 0.09382 0.17778 0.0
N6604 N 0.43341 0.09137 0.22957 0.0
N6605 N 0.40162 0.09425 0.18371 0.0
H6606 H 0.1214 1.00706 0.67888 0.0
H6607 H 0.09588 0.89932 0.72562 0.0
H6608 H 0.1551 0.95283 0.6655 0.0
H6609 H 0.05626 0.95038 0.73215 0.0
H6610 H 0.11554 0.91784 0.70083 0.0
H6611 H 0.09626 0.9865 0.69666 0.0
C6612 C 0.1235 0.99081 0.67959 0.0
C6613 C 0.14048 0.98169 0.67065 0.0
C6614 C 0.10229 0.92496 0.70725 0.0
C6615 C 0.11166 0.95804 0.69114 0.0
C6616 C 0.09083 0.91417 0.72123 0.0
C6617 C 0.07407 0.92301 0.73059 0.0
C6618 C 0.09749 0.94521 0.7031 0.0
C6619 C 0.0688 0.94281 0.72499 0.0
C6620 C 0.10908 0.97908 0.68974 0.0
C6621 C 0.14248 0.96059 0.67239 0.0
N6622 N 0.08067 0.9534 0.7118 0.0
N6623 N 0.12829 0.94953 0.68246 0.0
loop_
_geom_bond_atom_site_label_1
_geom_bond_atom_site_label_2
_geom_bond_distance
_geom_bond_site_symmetry_2
_ccdc_geom_bond_type
Tb0 N31 2.660 1_455 S
Tb0 N38 2.600 1_455 S
Tb0 O44 2.540 1_455 S
Tb0 O45 2.610 . S
Tb0 O47 2.317 1_455 S
Tb0 O48 2.552 . S
Tb0 O49 2.413 1_455 S
Tb0 O51 2.362 . S
Tb0 O52 2.421 . S
Tb0 C64 2.833 1_455 S
C1 C4 1.432 . S
C1 C5 1.414 . S
C1 N8 1.359 . S
C2 C4 1.417 . S
C2 C6 1.432 . S
C2 C14 1.410 . S
C3 C5 1.444 . S
C3 C6 1.317 . S
C3 H26 0.929 . S
C4 C1 1.432 . S
C4 C2 1.417 . S
C4 N12 1.360 . S
C5 C1 1.414 . S
C5 C3 1.444 . S
C5 C10 1.385 . S
C6 C2 1.432 . S
C6 C3 1.317 . S
C6 H18 0.930 . S
C7 C9 1.392 . S
C7 C10 1.370 . S
C7 H19 0.931 . S
N8 C1 1.359 . S
N8 C9 1.327 . S
N8 Tb11 2.600 . S
C9 C7 1.392 . S
C9 N8 1.327 . S
C9 H16 0.930 . S
C10 C5 1.385 . S
C10 C7 1.370 . S
C10 H29 0.930 . S
Tb11 N8 2.600 . S
Tb11 N12 2.660 . S
Tb11 O45 2.362 . S
Tb11 O46 2.421 . S
Tb11 O50 2.546 . S
Tb11 O51 2.610 . S
Tb11 O53 2.320 . S
Tb11 O54 2.552 . S
Tb11 O55 2.413 . S
Tb11 C75 2.833 . S
N12 C4 1.360 . S
N12 Tb11 2.660 . S
N12 C13 1.305 . S
C13 N12 1.305 . S
C13 C15 1.407 . S
C13 H20 0.930 . S
C14 C2 1.410 . S
C14 C15 1.345 . S
C14 H22 0.930 . S
C15 C13 1.407 . S
C15 C14 1.345 . S
C15 H17 0.930 . S
H16 C9 0.930 . S
H17 C15 0.930 . S
H18 C6 0.930 . S
H19 C7 0.931 . S
H20 C13 0.930 . S
H21 C35 0.930 . S
H22 C14 0.930 . S
H23 C41 0.930 . S
H24 C32 0.930 . S
H25 C39 0.933 . S
H26 C3 0.929 . S
H27 C33 0.930 . S
H28 C66 0.930 . S
H29 C10 0.930 . S
H30 C65 0.929 . S
N31 Tb0 2.660 1_655 S
N31 C32 1.305 . S
N31 C36 1.360 . S
C32 H24 0.930 . S
C32 N31 1.305 . S
C32 C35 1.407 . S
C33 H27 0.930 . S
C33 C34 1.410 . S
C33 C35 1.345 . S
C34 C33 1.410 . S
C34 C36 1.417 . S
C34 C66 1.432 . S
C35 H21 0.930 . S
C35 C32 1.407 . S
C35 C33 1.345 . S
C36 N31 1.360 . S
C36 C34 1.417 . S
C36 C40 1.432 . S
H37 C42 0.930 . S
N38 Tb0 2.600 1_655 S
N38 C40 1.359 . S
N38 C41 1.327 1_655 S
C39 H25 0.933 . S
C39 C41 1.394 . S
C39 C42 1.366 1_455 S
C40 C36 1.432 . S
C40 N38 1.359 . S
C40 C43 1.414 . S
C41 H23 0.930 . S
C41 N38 1.327 1_455 S
C41 C39 1.394 . S
C42 H37 0.930 . S
C42 C39 1.366 1_655 S
C42 C43 1.385 . S
C43 C40 1.414 . S
C43 C42 1.385 . S
C43 C65 1.444 . S
O44 Tb0 2.540 1_655 S
O44 C64 1.267 . S
O45 Tb0 2.610 . S
O45 Tb11 2.362 . S
O45 C56 1.283 . S
O46 Tb11 2.421 . S
O46 C63 1.262 . S
O47 Tb0 2.317 1_655 S
O47 C63 1.256 1_655 S
O48 Tb0 2.552 . S
O48 C56 1.243 . S
O49 Tb0 2.413 1_655 S
O49 C64 1.256 . S
O50 Tb11 2.546 . S
O50 C75 1.251 . S
O51 Tb0 2.362 . S
O51 Tb11 2.610 . S
O51 C67 1.283 . S
O52 Tb0 2.421 . S
O52 C74 1.262 . S
O53 Tb11 2.320 . S
O53 C74 1.260 . S
O54 Tb11 2.552 . S
O54 C67 1.243 . S
O55 Tb11 2.413 . S
O55 C75 1.256 . S
C56 O45 1.283 . S
C56 O48 1.243 . S
C57 C59 1.382 . S
C57 C61 1.393 . S
C57 C64 1.500 . S
C58 C59 1.400 . S
C58 C60 1.384 . S
C59 C57 1.382 . S
C59 C58 1.400 . S
C59 H76 0.930 . S
C60 C58 1.384 . S
C60 C62 1.392 . S
C60 H77 0.931 . S
C61 C57 1.393 . S
C61 C62 1.401 . S
C61 H78 0.930 . S
C62 C60 1.392 . S
C62 C61 1.401 . S
C62 H79 0.930 . S
C63 O46 1.262 . S
C63 O47 1.256 1_455 S
C64 Tb0 2.833 1_655 S
C64 O44 1.267 . S
C64 O49 1.256 . S
C64 C57 1.500 . S
C65 H30 0.929 . S
C65 C43 1.444 . S
C65 C66 1.317 . S
C66 H28 0.930 . S
C66 C34 1.432 . S
C66 C65 1.317 . S
C67 O51 1.283 . S
C67 O54 1.243 . S
C68 C69 1.382 . S
C68 C72 1.393 . S
C68 C75 1.500 . S
C69 C68 1.382 . S
C69 C70 1.400 . S
C69 H80 0.930 . S
C70 C69 1.400 . S
C70 C71 1.384 . S
C71 C70 1.384 . S
C71 C73 1.392 . S
C71 H81 0.931 . S
C72 C68 1.393 . S
C72 C73 1.401 . S
C72 H82 0.930 . S
C73 C71 1.392 . S
C73 C72 1.401 . S
C73 H83 0.930 . S
C74 O52 1.262 . S
C74 O53 1.260 . S
C75 Tb11 2.833 . S
C75 O50 1.251 . S
C75 O55 1.256 . S
C75 C68 1.500 . S
H76 C59 0.930 . S
H77 C60 0.931 . S
H78 C61 0.930 . S
H79 C62 0.930 . S
H80 C69 0.930 . S
H81 C71 0.931 . S
H82 C72 0.930 . S
H83 C73 0.930 . S
Tb84 N115 2.660 . S
Tb84 N122 2.600 . S
Tb84 O128 2.546 . S
Tb84 O129 2.610 . S
Tb84 O131 2.320 . S
Tb84 O132 2.552 . S
Tb84 O133 2.413 . S
Tb84 O135 2.362 . S
Tb84 O136 2.421 . S
Tb84 C148 2.833 . S
C85 C88 1.432 . S
C85 C89 1.414 . S
C85 N92 1.359 . S
C86 C88 1.417 . S
C86 C90 1.432 . S
C86 C98 1.410 . S
C87 C89 1.444 . S
C87 C90 1.317 . S
C87 H110 0.929 . S
C88 C85 1.432 . S
C88 C86 1.417 . S
C88 N96 1.360 . S
C89 C85 1.414 . S
C89 C87 1.444 . S
C89 C94 1.385 . S
C90 C86 1.432 . S
C90 C87 1.317 . S
C90 H102 0.930 . S
C91 C93 1.392 . S
C91 C94 1.370 . S
C91 H103 0.931 . S
N92 C85 1.359 . S
N92 C93 1.327 . S
N92 Tb95 2.600 . S
C93 C91 1.392 . S
C93 N92 1.327 . S
C93 H100 0.930 . S
C94 C89 1.385 . S
C94 C91 1.370 . S
C94 H113 0.930 . S
Tb95 N92 2.600 . S
Tb95 N96 2.660 . S
Tb95 O129 2.362 . S
Tb95 O130 2.421 . S
Tb95 O134 2.546 . S
Tb95 O135 2.610 . S
Tb95 O137 2.320 . S
Tb95 O138 2.552 . S
Tb95 O139 2.413 . S
Tb95 C159 2.833 . S
N96 C88 1.360 . S
N96 Tb95 2.660 . S
N96 C97 1.305 . S
C97 N96 1.305 . S
C97 C99 1.407 . S
C97 H104 0.930 . S
C98 C86 1.410 . S
C98 C99 1.345 . S
C98 H106 0.930 . S
C99 C97 1.407 . S
C99 C98 1.345 . S
C99 H101 0.930 . S
H100 C93 0.930 . S
H101 C99 0.930 . S
H102 C90 0.930 . S
H103 C91 0.931 . S
H104 C97 0.930 . S
H105 C119 0.930 . S
H106 C98 0.930 . S
H107 C125 0.930 . S
H108 C116 0.930 . S
H109 C123 0.931 . S
H110 C87 0.929 . S
H111 C117 0.930 . S
H112 C150 0.930 . S
H113 C94 0.930 . S
H114 C149 0.929 . S
N115 Tb84 2.660 . S
N115 C116 1.305 . S
N115 C120 1.360 . S
C116 H108 0.930 . S
C116 N115 1.305 . S
C116 C119 1.407 . S
C117 H111 0.930 . S
C117 C118 1.410 . S
C117 C119 1.345 . S
C118 C117 1.410 . S
C118 C120 1.417 . S
C118 C150 1.432 . S
C119 H105 0.930 . S
C119 C116 1.407 . S
C119 C117 1.345 . S
C120 N115 1.360 . S
C120 C118 1.417 . S
C120 C124 1.432 . S
H121 C126 0.930 . S
N122 Tb84 2.600 . S
N122 C124 1.359 . S
N122 C125 1.327 . S
C123 H109 0.931 . S
C123 C125 1.392 . S
C123 C126 1.370 . S
C124 C120 1.432 . S
C124 N122 1.359 . S
C124 C127 1.414 . S
C125 H107 0.930 . S
C125 N122 1.327 . S
C125 C123 1.392 . S
C126 H121 0.930 . S
C126 C123 1.370 . S
C126 C127 1.385 . S
C127 C124 1.414 . S
C127 C126 1.385 . S
C127 C149 1.444 . S
O128 Tb84 2.546 . S
O128 C148 1.251 . S
O129 Tb84 2.610 . S
O129 Tb95 2.362 . S
O129 C140 1.283 . S
O130 Tb95 2.421 . S
O130 C147 1.262 . S
O131 Tb84 2.320 . S
O131 C147 1.260 . S
O132 Tb84 2.552 . S
O132 C140 1.243 . S
O133 Tb84 2.413 . S
O133 C148 1.256 . S
O134 Tb95 2.546 . S
O134 C159 1.251 . S
O135 Tb84 2.362 . S
O135 Tb95 2.610 . S
O135 C151 1.283 . S
O136 Tb84 2.421 . S
O136 C158 1.262 . S
O137 Tb95 2.320 . S
O137 C158 1.260 . S
O138 Tb95 2.552 . S
O138 C151 1.243 . S
O139 Tb95 2.413 . S
O139 C159 1.256 . S
C140 O129 1.283 . S
C140 O132 1.243 . S
C141 C143 1.382 . S
C141 C145 1.393 . S
C141 C148 1.500 . S
C142 C143 1.400 . S
C142 C144 1.384 . S
C143 C141 1.382 . S
C143 C142 1.400 . S
C143 H160 0.930 . S
C144 C142 1.384 . S
C144 C146 1.392 . S
C144 H161 0.931 . S
C145 C141 1.393 . S
C145 C146 1.401 . S
C145 H162 0.930 . S
C146 C144 1.392 . S
C146 C145 1.401 . S
C146 H163 0.930 . S
C147 O130 1.262 . S
C147 O131 1.260 . S
C148 Tb84 2.833 . S
C148 O128 1.251 . S
C148 O133 1.256 . S
C148 C141 1.500 . S
C149 H114 0.929 . S
C149 C127 1.444 . S
C149 C150 1.317 . S
C150 H112 0.930 . S
C150 C118 1.432 . S
C150 C149 1.317 . S
C151 O135 1.283 . S
C151 O138 1.243 . S
C152 C153 1.382 . S
C152 C156 1.393 . S
C152 C159 1.500 . S
C153 C152 1.382 . S
C153 C154 1.400 . S
C153 H164 0.930 . S
C154 C153 1.400 . S
C154 C155 1.384 . S
C155 C154 1.384 . S
C155 C157 1.392 . S
C155 H165 0.931 . S
C156 C152 1.393 . S
C156 C157 1.401 . S
C156 H166 0.930 . S
C157 C155 1.392 . S
C157 C156 1.401 . S
C157 H167 0.930 . S
C158 O136 1.262 . S
C158 O137 1.260 . S
C159 Tb95 2.833 . S
C159 O134 1.251 . S
C159 O139 1.256 . S
C159 C152 1.500 . S
H160 C143 0.930 . S
H161 C144 0.931 . S
H162 C145 0.930 . S
H163 C146 0.930 . S
H164 C153 0.930 . S
H165 C155 0.931 . S
H166 C156 0.930 . S
H167 C157 0.930 . S
Tb168 N199 2.660 . S
Tb168 N206 2.600 . S
Tb168 O212 2.546 . S
Tb168 O213 2.610 . S
Tb168 O215 2.320 . S
Tb168 O216 2.552 . S
Tb168 O217 2.413 . S
Tb168 O219 2.362 . S
Tb168 O220 2.421 . S
Tb168 C232 2.833 . S
C169 C172 1.432 . S
C169 C173 1.414 . S
C169 N176 1.359 . S
C170 C172 1.417 . S
C170 C174 1.432 . S
C170 C182 1.410 . S
C171 C173 1.444 . S
C171 C174 1.317 . S
C171 H194 0.929 . S
C172 C169 1.432 . S
C172 C170 1.417 . S
C172 N180 1.360 . S
C173 C169 1.414 . S
C173 C171 1.444 . S
C173 C178 1.385 . S
C174 C170 1.432 . S
C174 C171 1.317 . S
C174 H186 0.930 . S
C175 C177 1.392 . S
C175 C178 1.370 . S
C175 H187 0.931 . S
N176 C169 1.359 . S
N176 C177 1.327 . S
N176 Tb179 2.600 . S
C177 C175 1.392 . S
C177 N176 1.327 . S
C177 H184 0.930 . S
C178 C173 1.385 . S
C178 C175 1.370 . S
C178 H197 0.930 . S
Tb179 N176 2.600 . S
Tb179 N180 2.660 . S
Tb179 O213 2.362 . S
Tb179 O214 2.421 . S
Tb179 O218 2.546 . S
Tb179 O219 2.610 . S
Tb179 O221 2.320 . S
Tb179 O222 2.552 . S
Tb179 O223 2.413 . S
Tb179 C243 2.833 . S
N180 C172 1.360 . S
N180 Tb179 2.660 . S
N180 C181 1.305 . S
C181 N180 1.305 . S
C181 C183 1.407 . S
C181 H188 0.930 . S
C182 C170 1.410 . S
C182 C183 1.345 . S
C182 H190 0.930 . S
C183 C181 1.407 . S
C183 C182 1.345 . S
C183 H185 0.930 . S
H184 C177 0.930 . S
H185 C183 0.930 . S
H186 C174 0.930 . S
H187 C175 0.931 . S
H188 C181 0.930 . S
H189 C203 0.930 . S
H190 C182 0.930 . S
H191 C209 0.930 . S
H192 C200 0.930 . S
H193 C207 0.931 . S
H194 C171 0.929 . S
H195 C201 0.930 . S
H196 C234 0.930 . S
H197 C178 0.930 . S
H198 C233 0.929 . S
N199 Tb168 2.660 . S
N199 C200 1.305 . S
N199 C204 1.360 . S
C200 H192 0.930 . S
C200 N199 1.305 . S
C200 C203 1.407 . S
C201 H195 0.930 . S
C201 C202 1.410 . S
C201 C203 1.345 . S
C202 C201 1.410 . S
C202 C204 1.417 . S
C202 C234 1.432 . S
C203 H189 0.930 . S
C203 C200 1.407 . S
C203 C201 1.345 . S
C204 N199 1.360 . S
C204 C202 1.417 . S
C204 C208 1.432 . S
H205 C210 0.930 . S
N206 Tb168 2.600 . S
N206 C208 1.359 . S
N206 C209 1.327 . S
C207 H193 0.931 . S
C207 C209 1.392 . S
C207 C210 1.370 . S
C208 C204 1.432 . S
C208 N206 1.359 . S
C208 C211 1.414 . S
C209 H191 0.930 . S
C209 N206 1.327 . S
C209 C207 1.392 . S
C210 H205 0.930 . S
C210 C207 1.370 . S
C210 C211 1.385 . S
C211 C208 1.414 . S
C211 C210 1.385 . S
C211 C233 1.444 . S
O212 Tb168 2.546 . S
O212 C232 1.251 . S
O213 Tb168 2.610 . S
O213 Tb179 2.362 . S
O213 C224 1.283 . S
O214 Tb179 2.421 . S
O214 C231 1.262 . S
O215 Tb168 2.320 . S
O215 C231 1.260 . S
O216 Tb168 2.552 . S
O216 C224 1.243 . S
O217 Tb168 2.413 . S
O217 C232 1.256 . S
O218 Tb179 2.546 . S
O218 C243 1.251 . S
O219 Tb168 2.362 . S
O219 Tb179 2.610 . S
O219 C235 1.283 . S
O220 Tb168 2.421 . S
O220 C242 1.262 . S
O221 Tb179 2.320 . S
O221 C242 1.260 . S
O222 Tb179 2.552 . S
O222 C235 1.243 . S
O223 Tb179 2.413 . S
O223 C243 1.256 . S
C224 O213 1.283 . S
C224 O216 1.243 . S
C225 C227 1.382 . S
C225 C229 1.393 . S
C225 C232 1.500 . S
C226 C227 1.400 . S
C226 C228 1.384 . S
C227 C225 1.382 . S
C227 C226 1.400 . S
C227 H244 0.930 . S
C228 C226 1.384 . S
C228 C230 1.392 . S
C228 H245 0.931 . S
C229 C225 1.393 . S
C229 C230 1.401 . S
C229 H246 0.930 . S
C230 C228 1.392 . S
C230 C229 1.401 . S
C230 H247 0.930 . S
C231 O214 1.262 . S
C231 O215 1.260 . S
C232 Tb168 2.833 . S
C232 O212 1.251 . S
C232 O217 1.256 . S
C232 C225 1.500 . S
C233 H198 0.929 . S
C233 C211 1.444 . S
C233 C234 1.317 . S
C234 H196 0.930 . S
C234 C202 1.432 . S
C234 C233 1.317 . S
C235 O219 1.283 . S
C235 O222 1.243 . S
C236 C237 1.382 . S
C236 C240 1.393 . S
C236 C243 1.500 . S
C237 C236 1.382 . S
C237 C238 1.400 . S
C237 H248 0.930 . S
C238 C237 1.400 . S
C238 C239 1.384 . S
C239 C238 1.384 . S
C239 C241 1.392 . S
C239 H249 0.931 . S
C240 C236 1.393 . S
C240 C241 1.401 . S
C240 H250 0.930 . S
C241 C239 1.392 . S
C241 C240 1.401 . S
C241 H251 0.930 . S
C242 O220 1.262 . S
C242 O221 1.260 . S
C243 Tb179 2.833 . S
C243 O218 1.251 . S
C243 O223 1.256 . S
C243 C236 1.500 . S
H244 C227 0.930 . S
H245 C228 0.931 . S
H246 C229 0.930 . S
H247 C230 0.930 . S
H248 C237 0.930 . S
H249 C239 0.931 . S
H250 C240 0.930 . S
H251 C241 0.930 . S
Tb252 N283 2.660 . S
Tb252 N290 2.600 . S
Tb252 O296 2.546 . S
Tb252 O297 2.610 . S
Tb252 O299 2.320 . S
Tb252 O300 2.552 . S
Tb252 O301 2.413 . S
Tb252 O303 2.362 . S
Tb252 O304 2.421 . S
Tb252 C316 2.833 . S
C253 C256 1.432 . S
C253 C257 1.414 1_554 S
C253 N260 1.359 1_554 S
C254 C256 1.417 . S
C254 C258 1.432 . S
C254 C266 1.410 . S
C255 C257 1.444 1_554 S
C255 C258 1.317 . S
C255 H278 0.929 . S
C256 C253 1.432 . S
C256 C254 1.417 . S
C256 N264 1.360 . S
C257 C253 1.414 1_556 S
C257 C255 1.444 1_556 S
C257 C262 1.385 . S
C258 C254 1.432 . S
C258 C255 1.317 . S
C258 H270 0.930 . S
C259 C261 1.392 . S
C259 C262 1.370 . S
C259 H271 0.931 . S
N260 C253 1.359 1_556 S
N260 C261 1.327 . S
N260 Tb263 2.600 1_556 S
C261 C259 1.392 . S
C261 N260 1.327 . S
C261 H268 0.930 . S
C262 C257 1.385 . S
C262 C259 1.370 . S
C262 H281 0.930 . S
Tb263 N260 2.600 1_554 S
Tb263 N264 2.660 . S
Tb263 O297 2.362 . S
Tb263 O298 2.429 . S
Tb263 O302 2.546 1_554 S
Tb263 O303 2.610 . S
Tb263 O305 2.320 . S
Tb263 O306 2.552 1_554 S
Tb263 O307 2.413 1_554 S
Tb263 C327 2.833 1_554 S
N264 C256 1.360 . S
N264 Tb263 2.660 . S
N264 C265 1.305 . S
C265 N264 1.305 . S
C265 C267 1.407 . S
C265 H272 0.930 . S
C266 C254 1.410 . S
C266 C267 1.345 . S
C266 H274 0.930 . S
C267 C265 1.407 . S
C267 C266 1.345 . S
C267 H269 0.930 . S
H268 C261 0.930 . S
H269 C267 0.930 . S
H270 C258 0.930 . S
H271 C259 0.931 . S
H272 C265 0.930 . S
H273 C287 0.930 1_556 S
H274 C266 0.930 . S
H275 C293 0.930 . S
H276 C284 0.930 . S
H277 C291 0.931 . S
H278 C255 0.929 . S
H279 C285 0.930 . S
H280 C318 0.930 . S
H281 C262 0.930 . S
H282 C317 0.929 . S
N283 Tb252 2.660 . S
N283 C284 1.305 . S
N283 C288 1.360 . S
C284 H276 0.930 . S
C284 N283 1.305 . S
C284 C287 1.407 . S
C285 H279 0.930 . S
C285 C286 1.410 . S
C285 C287 1.345 . S
C286 C285 1.410 . S
C286 C288 1.417 . S
C286 C318 1.432 . S
C287 H273 0.930 1_554 S
C287 C284 1.407 . S
C287 C285 1.345 . S
C288 N283 1.360 . S
C288 C286 1.417 . S
C288 C292 1.432 . S
H289 C294 0.930 . S
N290 Tb252 2.600 . S
N290 C292 1.359 . S
N290 C293 1.327 . S
C291 H277 0.931 . S
C291 C293 1.392 . S
C291 C294 1.370 . S
C292 C288 1.432 . S
C292 N290 1.359 . S
C292 C295 1.414 . S
C293 H275 0.930 . S
C293 N290 1.327 . S
C293 C291 1.392 . S
C294 H289 0.930 . S
C294 C291 1.370 . S
C294 C295 1.385 . S
C295 C292 1.414 . S
C295 C294 1.385 . S
C295 C317 1.444 . S
O296 Tb252 2.546 . S
O296 C316 1.251 . S
O297 Tb252 2.610 . S
O297 Tb263 2.362 . S
O297 C308 1.283 . S
O298 Tb263 2.429 . S
O298 C315 1.290 . S
O299 Tb252 2.320 . S
O299 C315 1.260 . S
O300 Tb252 2.552 . S
O300 C308 1.243 . S
O301 Tb252 2.413 . S
O301 C316 1.256 . S
O302 Tb263 2.546 1_556 S
O302 C327 1.251 . S
O303 Tb252 2.362 . S
O303 Tb263 2.610 . S
O303 C319 1.283 . S
O304 Tb252 2.421 . S
O304 C326 1.262 . S
O305 Tb263 2.320 . S
O305 C326 1.260 . S
O306 Tb263 2.552 1_556 S
O306 C319 1.243 1_556 S
O307 Tb263 2.413 1_556 S
O307 C327 1.256 . S
C308 O297 1.283 . S
C308 O300 1.243 . S
C309 C311 1.382 . S
C309 C313 1.393 . S
C309 C316 1.500 . S
C310 C311 1.400 . S
C310 C312 1.384 . S
C311 C309 1.382 . S
C311 C310 1.400 . S
C311 H328 0.930 . S
C312 C310 1.384 . S
C312 C314 1.392 . S
C312 H329 0.931 . S
C313 C309 1.393 . S
C313 C314 1.401 . S
C313 H330 0.930 . S
C314 C312 1.392 . S
C314 C313 1.401 . S
C314 H331 0.930 . S
C315 O298 1.290 . S
C315 O299 1.260 . S
C316 Tb252 2.833 . S
C316 O296 1.251 . S
C316 O301 1.256 . S
C316 C309 1.500 . S
C317 H282 0.929 . S
C317 C295 1.444 . S
C317 C318 1.317 . S
C318 H280 0.930 . S
C318 C286 1.432 . S
C318 C317 1.317 . S
C319 O303 1.283 . S
C319 O306 1.243 1_554 S
C320 C321 1.382 . S
C320 C324 1.393 . S
C320 C327 1.500 . S
C321 C320 1.382 . S
C321 C322 1.400 . S
C321 H332 0.930 . S
C322 C321 1.400 . S
C322 C323 1.384 . S
C323 C322 1.384 . S
C323 C325 1.392 . S
C323 H333 0.931 . S
C324 C320 1.393 . S
C324 C325 1.401 . S
C324 H334 0.930 . S
C325 C323 1.392 . S
C325 C324 1.401 . S
C325 H335 0.930 . S
C326 O304 1.262 . S
C326 O305 1.260 . S
C327 Tb263 2.833 1_556 S
C327 O302 1.251 . S
C327 O307 1.256 . S
C327 C320 1.500 . S
H328 C311 0.930 . S
H329 C312 0.931 . S
H330 C313 0.930 . S
H331 C314 0.930 . S
H332 C321 0.930 . S
H333 C323 0.931 . S
H334 C324 0.930 . S
H335 C325 0.930 . S
Tb336 N367 2.660 1_455 S
Tb336 N374 2.600 1_455 S
Tb336 O380 2.546 1_455 S
Tb336 O381 2.610 . S
Tb336 O383 2.320 1_455 S
Tb336 O384 2.552 . S
Tb336 O385 2.413 1_455 S
Tb336 O387 2.362 . S
Tb336 O388 2.421 . S
Tb336 C400 2.833 1_455 S
C337 C340 1.432 . S
C337 C341 1.414 . S
C337 N344 1.359 . S
C338 C340 1.417 . S
C338 C342 1.432 . S
C338 C350 1.410 . S
C339 C341 1.444 . S
C339 C342 1.317 . S
C339 H362 0.929 . S
C340 C337 1.432 . S
C340 C338 1.417 . S
C340 N348 1.360 . S
C341 C337 1.414 . S
C341 C339 1.444 . S
C341 C346 1.385 . S
C342 C338 1.432 . S
C342 C339 1.317 . S
C342 H354 0.930 . S
C343 C345 1.392 . S
C343 C346 1.370 . S
C343 H355 0.931 . S
N344 C337 1.359 . S
N344 C345 1.327 . S
N344 Tb347 2.600 . S
C345 C343 1.392 . S
C345 N344 1.327 . S
C345 H352 0.930 . S
C346 C341 1.385 . S
C346 C343 1.370 . S
C346 H365 0.930 . S
Tb347 N344 2.600 . S
Tb347 N348 2.660 . S
Tb347 O381 2.362 . S
Tb347 O382 2.421 . S
Tb347 O386 2.546 . S
Tb347 O387 2.610 . S
Tb347 O389 2.320 . S
Tb347 O390 2.552 . S
Tb347 O391 2.413 . S
Tb347 C411 2.833 . S
N348 C340 1.360 . S
N348 Tb347 2.660 . S
N348 C349 1.305 . S
C349 N348 1.305 . S
C349 C351 1.407 . S
C349 H356 0.930 . S
C350 C338 1.410 . S
C350 C351 1.345 . S
C350 H358 0.930 . S
C351 C349 1.407 . S
C351 C350 1.345 . S
C351 H353 0.930 . S
H352 C345 0.930 . S
H353 C351 0.930 . S
H354 C342 0.930 . S
H355 C343 0.931 . S
H356 C349 0.930 . S
H357 C371 0.930 . S
H358 C350 0.930 . S
H359 C377 0.930 . S
H360 C368 0.930 . S
H361 C375 0.931 1_455 S
H362 C339 0.929 . S
H363 C369 0.930 . S
H364 C402 0.930 . S
H365 C346 0.930 . S
H366 C401 0.929 . S
N367 Tb336 2.660 1_655 S
N367 C368 1.305 . S
N367 C372 1.360 . S
C368 H360 0.930 . S
C368 N367 1.305 . S
C368 C371 1.407 . S
C369 H363 0.930 . S
C369 C370 1.410 . S
C369 C371 1.345 . S
C370 C369 1.410 . S
C370 C372 1.417 . S
C370 C402 1.432 . S
C371 H357 0.930 . S
C371 C368 1.407 . S
C371 C369 1.345 . S
C372 N367 1.360 . S
C372 C370 1.417 . S
C372 C376 1.432 . S
H373 C378 0.930 . S
N374 Tb336 2.600 1_655 S
N374 C376 1.359 . S
N374 C377 1.327 1_655 S
C375 H361 0.931 1_655 S
C375 C377 1.392 1_655 S
C375 C378 1.370 . S
C376 C372 1.432 . S
C376 N374 1.359 . S
C376 C379 1.414 . S
C377 H359 0.930 . S
C377 N374 1.327 1_455 S
C377 C375 1.392 1_455 S
C378 H373 0.930 . S
C378 C375 1.370 . S
C378 C379 1.385 . S
C379 C376 1.414 . S
C379 C378 1.385 . S
C379 C401 1.444 . S
O380 Tb336 2.546 1_655 S
O380 C400 1.251 . S
O381 Tb336 2.610 . S
O381 Tb347 2.362 . S
O381 C392 1.283 . S
O382 Tb347 2.421 . S
O382 C399 1.262 . S
O383 Tb336 2.320 1_655 S
O383 C399 1.260 1_655 S
O384 Tb336 2.552 . S
O384 C392 1.243 . S
O385 Tb336 2.413 1_655 S
O385 C400 1.256 . S
O386 Tb347 2.546 . S
O386 C411 1.251 . S
O387 Tb336 2.362 . S
O387 Tb347 2.610 . S
O387 C403 1.283 . S
O388 Tb336 2.421 . S
O388 C410 1.262 . S
O389 Tb347 2.320 . S
O389 C410 1.260 . S
O390 Tb347 2.552 . S
O390 C403 1.243 . S
O391 Tb347 2.413 . S
O391 C411 1.256 . S
C392 O381 1.283 . S
C392 O384 1.243 . S
C393 C395 1.382 . S
C393 C397 1.393 . S
C393 C400 1.500 . S
C394 C395 1.400 . S
C394 C396 1.384 . S
C395 C393 1.382 . S
C395 C394 1.400 . S
C395 H412 0.930 . S
C396 C394 1.384 . S
C396 C398 1.392 . S
C396 H413 0.931 . S
C397 C393 1.393 . S
C397 C398 1.401 . S
C397 H414 0.930 . S
C398 C396 1.392 . S
C398 C397 1.401 . S
C398 H415 0.930 . S
C399 O382 1.262 . S
C399 O383 1.260 1_455 S
C400 Tb336 2.833 1_655 S
C400 O380 1.251 . S
C400 O385 1.256 . S
C400 C393 1.500 . S
C401 H366 0.929 . S
C401 C379 1.444 . S
C401 C402 1.317 . S
C402 H364 0.930 . S
C402 C370 1.432 . S
C402 C401 1.317 . S
C403 O387 1.283 . S
C403 O390 1.243 . S
C404 C405 1.382 . S
C404 C408 1.393 . S
C404 C411 1.500 . S
C405 C404 1.382 . S
C405 C406 1.400 . S
C405 H416 0.930 . S
C406 C405 1.400 . S
C406 C407 1.384 . S
C407 C406 1.384 . S
C407 C409 1.392 . S
C407 H417 0.931 . S
C408 C404 1.393 . S
C408 C409 1.401 . S
C408 H418 0.930 . S
C409 C407 1.392 . S
C409 C408 1.401 . S
C409 H419 0.930 . S
C410 O388 1.262 . S
C410 O389 1.260 . S
C411 Tb347 2.833 . S
C411 O386 1.251 . S
C411 O391 1.256 . S
C411 C404 1.500 . S
H412 C395 0.930 . S
H413 C396 0.931 . S
H414 C397 0.930 . S
H415 C398 0.930 . S
H416 C405 0.930 . S
H417 C407 0.931 . S
H418 C408 0.930 . S
H419 C409 0.930 . S
Tb420 N451 2.660 . S
Tb420 N458 2.600 . S
Tb420 O464 2.546 . S
Tb420 O465 2.610 . S
Tb420 O467 2.320 . S
Tb420 O468 2.552 . S
Tb420 O469 2.413 . S
Tb420 O471 2.362 . S
Tb420 O472 2.421 . S
Tb420 C484 2.833 . S
C421 C424 1.432 . S
C421 C425 1.414 . S
C421 N428 1.359 . S
C422 C424 1.417 . S
C422 C426 1.432 . S
C422 C434 1.410 . S
C423 C425 1.444 . S
C423 C426 1.317 . S
C423 H446 0.929 . S
C424 C421 1.432 . S
C424 C422 1.417 . S
C424 N432 1.360 . S
C425 C421 1.414 . S
C425 C423 1.444 . S
C425 C430 1.385 . S
C426 C422 1.432 . S
C426 C423 1.317 . S
C426 H438 0.930 . S
C427 C429 1.392 . S
C427 C430 1.370 . S
C427 H439 0.931 . S
N428 C421 1.359 . S
N428 C429 1.327 . S
N428 Tb431 2.600 . S
C429 C427 1.392 . S
C429 N428 1.327 . S
C429 H436 0.930 . S
C430 C425 1.385 . S
C430 C427 1.370 . S
C430 H449 0.930 . S
Tb431 N428 2.600 . S
Tb431 N432 2.660 . S
Tb431 O465 2.362 . S
Tb431 O466 2.421 . S
Tb431 O470 2.546 . S
Tb431 O471 2.610 . S
Tb431 O473 2.320 . S
Tb431 O474 2.552 . S
Tb431 O475 2.413 . S
Tb431 C495 2.833 . S
N432 C424 1.360 . S
N432 Tb431 2.660 . S
N432 C433 1.305 . S
C433 N432 1.305 . S
C433 C435 1.407 . S
C433 H440 0.930 . S
C434 C422 1.410 . S
C434 C435 1.345 . S
C434 H442 0.930 . S
C435 C433 1.407 . S
C435 C434 1.345 . S
C435 H437 0.930 . S
H436 C429 0.930 . S
H437 C435 0.930 . S
H438 C426 0.930 . S
H439 C427 0.931 . S
H440 C433 0.930 . S
H441 C455 0.930 . S
H442 C434 0.930 . S
H443 C461 0.930 . S
H444 C452 0.930 . S
H445 C459 0.931 . S
H446 C423 0.929 . S
H447 C453 0.930 . S
H448 C486 0.930 . S
H449 C430 0.930 . S
H450 C485 0.929 . S
N451 Tb420 2.660 . S
N451 C452 1.305 . S
N451 C456 1.360 . S
C452 H444 0.930 . S
C452 N451 1.305 . S
C452 C455 1.407 . S
C453 H447 0.930 . S
C453 C454 1.410 . S
C453 C455 1.345 . S
C454 C453 1.410 . S
C454 C456 1.417 . S
C454 C486 1.432 . S
C455 H441 0.930 . S
C455 C452 1.407 . S
C455 C453 1.345 . S
C456 N451 1.360 . S
C456 C454 1.417 . S
C456 C460 1.432 . S
H457 C462 0.930 . S
N458 Tb420 2.600 . S
N458 C460 1.359 . S
N458 C461 1.327 . S
C459 H445 0.931 . S
C459 C461 1.392 . S
C459 C462 1.370 . S
C460 C456 1.432 . S
C460 N458 1.359 . S
C460 C463 1.414 . S
C461 H443 0.930 . S
C461 N458 1.327 . S
C461 C459 1.392 . S
C462 H457 0.930 . S
C462 C459 1.370 . S
C462 C463 1.385 . S
C463 C460 1.414 . S
C463 C462 1.385 . S
C463 C485 1.444 . S
O464 Tb420 2.546 . S
O464 C484 1.251 . S
O465 Tb420 2.610 . S
O465 Tb431 2.362 . S
O465 C476 1.283 . S
O466 Tb431 2.421 . S
O466 C483 1.262 . S
O467 Tb420 2.320 . S
O467 C483 1.260 . S
O468 Tb420 2.552 . S
O468 C476 1.243 . S
O469 Tb420 2.413 . S
O469 C484 1.256 . S
O470 Tb431 2.546 . S
O470 C495 1.251 . S
O471 Tb420 2.362 . S
O471 Tb431 2.610 . S
O471 C487 1.283 . S
O472 Tb420 2.421 . S
O472 C494 1.262 . S
O473 Tb431 2.320 . S
O473 C494 1.260 . S
O474 Tb431 2.552 . S
O474 C487 1.243 . S
O475 Tb431 2.413 . S
O475 C495 1.256 . S
C476 O465 1.283 . S
C476 O468 1.243 . S
C477 C479 1.382 . S
C477 C481 1.393 . S
C477 C484 1.500 . S
C478 C479 1.400 . S
C478 C480 1.384 . S
C479 C477 1.382 . S
C479 C478 1.400 . S
C479 H496 0.930 . S
C480 C478 1.384 . S
C480 C482 1.392 . S
C480 H497 0.931 . S
C481 C477 1.393 . S
C481 C482 1.401 . S
C481 H498 0.930 . S
C482 C480 1.392 . S
C482 C481 1.401 . S
C482 H499 0.930 . S
C483 O466 1.262 . S
C483 O467 1.260 . S
C484 Tb420 2.833 . S
C484 O464 1.251 . S
C484 O469 1.256 . S
C484 C477 1.500 . S
C485 H450 0.929 . S
C485 C463 1.444 . S
C485 C486 1.317 . S
C486 H448 0.930 . S
C486 C454 1.432 . S
C486 C485 1.317 . S
C487 O471 1.283 . S
C487 O474 1.243 . S
C488 C489 1.382 . S
C488 C492 1.393 . S
C488 C495 1.500 . S
C489 C488 1.382 . S
C489 C490 1.400 . S
C489 H500 0.930 . S
C490 C489 1.400 . S
C490 C491 1.384 . S
C491 C490 1.384 . S
C491 C493 1.392 . S
C491 H501 0.931 . S
C492 C488 1.393 . S
C492 C493 1.401 . S
C492 H502 0.930 . S
C493 C491 1.392 . S
C493 C492 1.401 . S
C493 H503 0.930 . S
C494 O472 1.262 . S
C494 O473 1.260 . S
C495 Tb431 2.833 . S
C495 O470 1.251 . S
C495 O475 1.256 . S
C495 C488 1.500 . S
H496 C479 0.930 . S
H497 C480 0.931 . S
H498 C481 0.930 . S
H499 C482 0.930 . S
H500 C489 0.930 . S
H501 C491 0.931 . S
H502 C492 0.930 . S
H503 C493 0.930 . S
Tb504 N535 2.660 . S
Tb504 N542 2.600 . S
Tb504 O548 2.546 . S
Tb504 O549 2.610 . S
Tb504 O551 2.320 . S
Tb504 O552 2.552 . S
Tb504 O553 2.413 . S
Tb504 O555 2.362 . S
Tb504 O556 2.421 . S
Tb504 C568 2.833 . S
C505 C508 1.432 . S
C505 C509 1.414 . S
C505 N512 1.359 . S
C506 C508 1.417 . S
C506 C510 1.432 . S
C506 C518 1.410 . S
C507 C509 1.444 . S
C507 C510 1.317 . S
C507 H530 0.929 . S
C508 C505 1.432 . S
C508 C506 1.417 . S
C508 N516 1.360 . S
C509 C505 1.414 . S
C509 C507 1.444 . S
C509 C514 1.385 . S
C510 C506 1.432 . S
C510 C507 1.317 . S
C510 H522 0.930 . S
C511 C513 1.392 . S
C511 C514 1.370 . S
C511 H523 0.931 . S
N512 C505 1.359 . S
N512 C513 1.327 . S
N512 Tb515 2.600 . S
C513 C511 1.392 . S
C513 N512 1.327 . S
C513 H520 0.930 . S
C514 C509 1.385 . S
C514 C511 1.370 . S
C514 H533 0.930 . S
Tb515 N512 2.600 . S
Tb515 N516 2.660 . S
Tb515 O549 2.362 . S
Tb515 O550 2.421 . S
Tb515 O554 2.546 . S
Tb515 O555 2.610 . S
Tb515 O557 2.320 . S
Tb515 O558 2.552 . S
Tb515 O559 2.413 . S
Tb515 C579 2.833 . S
N516 C508 1.360 . S
N516 Tb515 2.660 . S
N516 C517 1.305 . S
C517 N516 1.305 . S
C517 C519 1.407 . S
C517 H524 0.930 . S
C518 C506 1.410 . S
C518 C519 1.345 . S
C518 H526 0.930 . S
C519 C517 1.407 . S
C519 C518 1.345 . S
C519 H521 0.930 . S
H520 C513 0.930 . S
H521 C519 0.930 . S
H522 C510 0.930 . S
H523 C511 0.931 . S
H524 C517 0.930 . S
H525 C539 0.930 . S
H526 C518 0.930 . S
H527 C545 0.930 . S
H528 C536 0.930 . S
H529 C543 0.931 . S
H530 C507 0.929 . S
H531 C537 0.930 . S
H532 C570 0.930 . S
H533 C514 0.930 . S
H534 C569 0.929 . S
N535 Tb504 2.660 . S
N535 C536 1.305 . S
N535 C540 1.360 . S
C536 H528 0.930 . S
C536 N535 1.305 . S
C536 C539 1.407 . S
C537 H531 0.930 . S
C537 C538 1.410 . S
C537 C539 1.345 . S
C538 C537 1.410 . S
C538 C540 1.417 . S
C538 C570 1.432 . S
C539 H525 0.930 . S
C539 C536 1.407 . S
C539 C537 1.345 . S
C540 N535 1.360 . S
C540 C538 1.417 . S
C540 C544 1.432 . S
H541 C546 0.930 . S
N542 Tb504 2.600 . S
N542 C544 1.359 . S
N542 C545 1.327 . S
C543 H529 0.931 . S
C543 C545 1.392 . S
C543 C546 1.370 . S
C544 C540 1.432 . S
C544 N542 1.359 . S
C544 C547 1.414 . S
C545 H527 0.930 . S
C545 N542 1.327 . S
C545 C543 1.392 . S
C546 H541 0.930 . S
C546 C543 1.370 . S
C546 C547 1.385 . S
C547 C544 1.414 . S
C547 C546 1.385 . S
C547 C569 1.444 . S
O548 Tb504 2.546 . S
O548 C568 1.251 . S
O549 Tb504 2.610 . S
O549 Tb515 2.362 . S
O549 C560 1.283 . S
O550 Tb515 2.421 . S
O550 C567 1.262 . S
O551 Tb504 2.320 . S
O551 C567 1.260 . S
O552 Tb504 2.552 . S
O552 C560 1.243 . S
O553 Tb504 2.413 . S
O553 C568 1.256 . S
O554 Tb515 2.546 . S
O554 C579 1.251 . S
O555 Tb504 2.362 . S
O555 Tb515 2.610 . S
O555 C571 1.283 . S
O556 Tb504 2.421 . S
O556 C578 1.262 . S
O557 Tb515 2.320 . S
O557 C578 1.260 . S
O558 Tb515 2.552 . S
O558 C571 1.243 . S
O559 Tb515 2.413 . S
O559 C579 1.256 . S
C560 O549 1.283 . S
C560 O552 1.243 . S
C561 C563 1.382 . S
C561 C565 1.393 . S
C561 C568 1.500 . S
C562 C563 1.400 . S
C562 C564 1.384 . S
C563 C561 1.382 . S
C563 C562 1.400 . S
C563 H580 0.930 . S
C564 C562 1.384 . S
C564 C566 1.392 . S
C564 H581 0.931 . S
C565 C561 1.393 . S
C565 C566 1.401 . S
C565 H582 0.930 . S
C566 C564 1.392 . S
C566 C565 1.401 . S
C566 H583 0.930 . S
C567 O550 1.262 . S
C567 O551 1.260 . S
C568 Tb504 2.833 . S
C568 O548 1.251 . S
C568 O553 1.256 . S
C568 C561 1.500 . S
C569 H534 0.929 . S
C569 C547 1.444 . S
C569 C570 1.317 . S
C570 H532 0.930 . S
C570 C538 1.432 . S
C570 C569 1.317 . S
C571 O555 1.283 . S
C571 O558 1.243 . S
C572 C573 1.382 . S
C572 C576 1.393 . S
C572 C579 1.500 . S
C573 C572 1.382 . S
C573 C574 1.400 . S
C573 H584 0.930 . S
C574 C573 1.400 . S
C574 C575 1.384 . S
C575 C574 1.384 . S
C575 C577 1.392 . S
C575 H585 0.931 . S
C576 C572 1.393 . S
C576 C577 1.401 . S
C576 H586 0.930 . S
C577 C575 1.392 . S
C577 C576 1.401 . S
C577 H587 0.930 . S
C578 O556 1.262 . S
C578 O557 1.260 . S
C579 Tb515 2.833 . S
C579 O554 1.251 . S
C579 O559 1.256 . S
C579 C572 1.500 . S
H580 C563 0.930 . S
H581 C564 0.931 . S
H582 C565 0.930 . S
H583 C566 0.930 . S
H584 C573 0.930 . S
H585 C575 0.931 . S
H586 C576 0.930 . S
H587 C577 0.930 . S
Tb588 N619 2.660 1_556 S
Tb588 N626 2.600 1_556 S
Tb588 O632 2.546 1_556 S
Tb588 O633 2.610 . S
Tb588 O635 2.320 1_556 S
Tb588 O636 2.552 . S
Tb588 O637 2.413 1_556 S
Tb588 O639 2.362 . S
Tb588 O640 2.421 . S
Tb588 C652 2.833 1_556 S
C589 C592 1.432 . S
C589 C593 1.414 . S
C589 N596 1.359 . S
C590 C592 1.417 . S
C590 C594 1.432 . S
C590 C602 1.410 . S
C591 C593 1.444 . S
C591 C594 1.317 . S
C591 H614 0.929 . S
C592 C589 1.432 . S
C592 C590 1.417 . S
C592 N600 1.360 . S
C593 C589 1.414 . S
C593 C591 1.444 . S
C593 C598 1.385 . S
C594 C590 1.432 . S
C594 C591 1.317 . S
C594 H606 0.930 . S
C595 C597 1.392 . S
C595 C598 1.370 . S
C595 H607 0.931 . S
N596 C589 1.359 . S
N596 C597 1.327 . S
N596 Tb599 2.600 . S
C597 C595 1.392 . S
C597 N596 1.327 . S
C597 H604 0.930 . S
C598 C593 1.385 . S
C598 C595 1.370 . S
C598 H617 0.930 . S
Tb599 N596 2.600 . S
Tb599 N600 2.660 . S
Tb599 O633 2.362 . S
Tb599 O634 2.421 . S
Tb599 O638 2.546 . S
Tb599 O639 2.610 . S
Tb599 O641 2.320 . S
Tb599 O642 2.552 . S
Tb599 O643 2.413 . S
Tb599 C663 2.833 . S
N600 C592 1.360 . S
N600 Tb599 2.660 . S
N600 C601 1.305 . S
C601 N600 1.305 . S
C601 C603 1.407 . S
C601 H608 0.930 . S
C602 C590 1.410 . S
C602 C603 1.345 . S
C602 H610 0.930 . S
C603 C601 1.407 . S
C603 C602 1.345 . S
C603 H605 0.930 . S
H604 C597 0.930 . S
H605 C603 0.930 . S
H606 C594 0.930 . S
H607 C595 0.931 . S
H608 C601 0.930 . S
H609 C623 0.930 . S
H610 C602 0.930 . S
H611 C629 0.930 . S
H612 C620 0.930 . S
H613 C627 0.931 1_556 S
H614 C591 0.929 . S
H615 C621 0.930 . S
H616 C654 0.930 . S
H617 C598 0.930 . S
H618 C653 0.929 . S
N619 Tb588 2.660 1_554 S
N619 C620 1.305 . S
N619 C624 1.360 . S
C620 H612 0.930 . S
C620 N619 1.305 . S
C620 C623 1.407 . S
C621 H615 0.930 . S
C621 C622 1.410 . S
C621 C623 1.345 . S
C622 C621 1.410 . S
C622 C624 1.417 . S
C622 C654 1.432 . S
C623 H609 0.930 . S
C623 C620 1.407 . S
C623 C621 1.345 . S
C624 N619 1.360 . S
C624 C622 1.417 . S
C624 C628 1.432 . S
H625 C630 0.930 . S
N626 Tb588 2.600 1_554 S
N626 C628 1.359 . S
N626 C629 1.327 1_554 S
C627 H613 0.931 1_554 S
C627 C629 1.392 1_554 S
C627 C630 1.370 . S
C628 C624 1.432 . S
C628 N626 1.359 . S
C628 C631 1.414 . S
C629 H611 0.930 . S
C629 N626 1.327 1_556 S
C629 C627 1.392 1_556 S
C630 H625 0.930 . S
C630 C627 1.370 . S
C630 C631 1.385 . S
C631 C628 1.414 . S
C631 C630 1.385 . S
C631 C653 1.444 . S
O632 Tb588 2.546 1_554 S
O632 C652 1.251 . S
O633 Tb588 2.610 . S
O633 Tb599 2.362 . S
O633 C644 1.283 . S
O634 Tb599 2.421 . S
O634 C651 1.262 . S
O635 Tb588 2.320 1_554 S
O635 C651 1.260 1_554 S
O636 Tb588 2.552 . S
O636 C644 1.243 . S
O637 Tb588 2.413 1_554 S
O637 C652 1.256 . S
O638 Tb599 2.546 . S
O638 C663 1.251 . S
O639 Tb588 2.362 . S
O639 Tb599 2.610 . S
O639 C655 1.283 . S
O640 Tb588 2.421 . S
O640 C662 1.262 . S
O641 Tb599 2.320 . S
O641 C662 1.260 . S
O642 Tb599 2.552 . S
O642 C655 1.243 . S
O643 Tb599 2.413 . S
O643 C663 1.256 . S
C644 O633 1.283 . S
C644 O636 1.243 . S
C645 C647 1.382 . S
C645 C649 1.393 . S
C645 C652 1.500 . S
C646 C647 1.400 . S
C646 C648 1.384 . S
C647 C645 1.382 . S
C647 C646 1.400 . S
C647 H664 0.930 . S
C648 C646 1.384 . S
C648 C650 1.392 . S
C648 H665 0.931 . S
C649 C645 1.393 . S
C649 C650 1.401 . S
C649 H666 0.930 . S
C650 C648 1.392 . S
C650 C649 1.401 . S
C650 H667 0.930 . S
C651 O634 1.262 . S
C651 O635 1.260 1_556 S
C652 Tb588 2.833 1_554 S
C652 O632 1.251 . S
C652 O637 1.256 . S
C652 C645 1.500 . S
C653 H618 0.929 . S
C653 C631 1.444 . S
C653 C654 1.317 . S
C654 H616 0.930 . S
C654 C622 1.432 . S
C654 C653 1.317 . S
C655 O639 1.283 . S
C655 O642 1.243 . S
C656 C657 1.382 . S
C656 C660 1.393 . S
C656 C663 1.500 . S
C657 C656 1.382 . S
C657 C658 1.400 . S
C657 H668 0.930 . S
C658 C657 1.400 . S
C658 C659 1.384 . S
C659 C658 1.384 . S
C659 C661 1.392 . S
C659 H669 0.931 . S
C660 C656 1.393 . S
C660 C661 1.401 . S
C660 H670 0.930 . S
C661 C659 1.392 . S
C661 C660 1.401 . S
C661 H671 0.930 . S
C662 O640 1.262 . S
C662 O641 1.260 . S
C663 Tb599 2.833 . S
C663 O638 1.251 . S
C663 O643 1.256 . S
C663 C656 1.500 . S
H664 C647 0.930 . S
H665 C648 0.931 . S
H666 C649 0.930 . S
H667 C650 0.930 . S
H668 C657 0.930 . S
H669 C659 0.931 . S
H670 C660 0.930 . S
H671 C661 0.930 . S
Tb672 N703 2.660 1_545 S
Tb672 N710 2.600 1_545 S
Tb672 O716 2.541 1_545 S
Tb672 O717 2.610 . S
Tb672 O719 2.319 1_545 S
Tb672 O720 2.552 . S
Tb672 O721 2.413 1_545 S
Tb672 O723 2.362 . S
Tb672 O724 2.421 . S
Tb672 C736 2.833 1_545 S
C673 C676 1.432 . S
C673 C677 1.414 . S
C673 N680 1.359 . S
C674 C676 1.417 . S
C674 C678 1.432 . S
C674 C686 1.410 . S
C675 C677 1.444 . S
C675 C678 1.317 . S
C675 H698 0.929 . S
C676 C673 1.432 . S
C676 C674 1.417 . S
C676 N684 1.360 . S
C677 C673 1.414 . S
C677 C675 1.444 . S
C677 C682 1.385 . S
C678 C674 1.432 . S
C678 C675 1.317 . S
C678 H690 0.930 . S
C679 C681 1.392 . S
C679 C682 1.370 . S
C679 H691 0.931 . S
N680 C673 1.359 . S
N680 C681 1.327 . S
N680 Tb683 2.600 . S
C681 C679 1.392 . S
C681 N680 1.327 . S
C681 H688 0.930 . S
C682 C677 1.385 . S
C682 C679 1.370 . S
C682 H701 0.930 . S
Tb683 N680 2.600 . S
Tb683 N684 2.660 . S
Tb683 O717 2.362 . S
Tb683 O718 2.421 . S
Tb683 O722 2.546 . S
Tb683 O723 2.610 . S
Tb683 O725 2.320 . S
Tb683 O726 2.552 . S
Tb683 O727 2.413 . S
Tb683 C747 2.833 . S
N684 C676 1.360 . S
N684 Tb683 2.660 . S
N684 C685 1.305 . S
C685 N684 1.305 . S
C685 C687 1.407 . S
C685 H692 0.930 . S
C686 C674 1.410 . S
C686 C687 1.345 . S
C686 H694 0.930 . S
C687 C685 1.407 . S
C687 C686 1.345 . S
C687 H689 0.930 . S
H688 C681 0.930 . S
H689 C687 0.930 . S
H690 C678 0.930 . S
H691 C679 0.931 . S
H692 C685 0.930 . S
H693 C707 0.930 . S
H694 C686 0.930 . S
H695 C713 0.930 . S
H696 C704 0.930 . S
H697 C711 0.928 1_545 S
H698 C675 0.929 . S
H699 C705 0.930 . S
H700 C738 0.930 . S
H701 C682 0.930 . S
H702 C737 0.929 . S
N703 Tb672 2.660 1_565 S
N703 C704 1.305 . S
N703 C708 1.360 . S
C704 H696 0.930 . S
C704 N703 1.305 . S
C704 C707 1.407 . S
C705 H699 0.930 . S
C705 C706 1.410 . S
C705 C707 1.345 . S
C706 C705 1.410 . S
C706 C708 1.417 . S
C706 C738 1.432 . S
C707 H693 0.930 . S
C707 C704 1.407 . S
C707 C705 1.345 . S
C708 N703 1.360 . S
C708 C706 1.417 . S
C708 C712 1.432 . S
H709 C714 0.930 . S
N710 Tb672 2.600 1_565 S
N710 C712 1.359 . S
N710 C713 1.327 1_565 S
C711 H697 0.928 1_565 S
C711 C713 1.390 1_565 S
C711 C714 1.375 . S
C712 C708 1.432 . S
C712 N710 1.359 . S
C712 C715 1.414 . S
C713 H695 0.930 . S
C713 N710 1.327 1_545 S
C713 C711 1.390 1_545 S
C714 H709 0.930 . S
C714 C711 1.375 . S
C714 C715 1.385 . S
C715 C712 1.414 . S
C715 C714 1.385 . S
C715 C737 1.444 . S
O716 Tb672 2.541 1_565 S
O716 C736 1.265 . S
O717 Tb672 2.610 . S
O717 Tb683 2.362 . S
O717 C728 1.283 . S
O718 Tb683 2.421 . S
O718 C735 1.262 . S
O719 Tb672 2.319 1_565 S
O719 C735 1.259 1_565 S
O720 Tb672 2.552 . S
O720 C728 1.243 . S
O721 Tb672 2.413 1_565 S
O721 C736 1.256 . S
O722 Tb683 2.546 . S
O722 C747 1.251 . S
O723 Tb672 2.362 . S
O723 Tb683 2.610 . S
O723 C739 1.283 . S
O724 Tb672 2.421 . S
O724 C746 1.262 . S
O725 Tb683 2.320 . S
O725 C746 1.260 . S
O726 Tb683 2.552 . S
O726 C739 1.243 . S
O727 Tb683 2.413 . S
O727 C747 1.256 . S
C728 O717 1.283 . S
C728 O720 1.243 . S
C729 C731 1.382 . S
C729 C733 1.393 . S
C729 C736 1.500 . S
C730 C731 1.400 . S
C730 C732 1.384 . S
C731 C729 1.382 . S
C731 C730 1.400 . S
C731 H748 0.930 . S
C732 C730 1.384 . S
C732 C734 1.392 . S
C732 H749 0.931 . S
C733 C729 1.393 . S
C733 C734 1.401 . S
C733 H750 0.930 . S
C734 C732 1.392 . S
C734 C733 1.401 . S
C734 H751 0.930 . S
C735 O718 1.262 . S
C735 O719 1.259 1_545 S
C736 Tb672 2.833 1_565 S
C736 O716 1.265 . S
C736 O721 1.256 . S
C736 C729 1.500 . S
C737 H702 0.929 . S
C737 C715 1.444 . S
C737 C738 1.317 . S
C738 H700 0.930 . S
C738 C706 1.432 . S
C738 C737 1.317 . S
C739 O723 1.283 . S
C739 O726 1.243 . S
C740 C741 1.382 . S
C740 C744 1.393 . S
C740 C747 1.500 . S
C741 C740 1.382 . S
C741 C742 1.400 . S
C741 H752 0.930 . S
C742 C741 1.400 . S
C742 C743 1.384 . S
C743 C742 1.384 . S
C743 C745 1.392 . S
C743 H753 0.931 . S
C744 C740 1.393 . S
C744 C745 1.401 . S
C744 H754 0.930 . S
C745 C743 1.392 . S
C745 C744 1.401 . S
C745 H755 0.930 . S
C746 O724 1.262 . S
C746 O725 1.260 . S
C747 Tb683 2.833 . S
C747 O722 1.251 . S
C747 O727 1.256 . S
C747 C740 1.500 . S
H748 C731 0.930 . S
H749 C732 0.931 . S
H750 C733 0.930 . S
H751 C734 0.930 . S
H752 C741 0.930 . S
H753 C743 0.931 . S
H754 C744 0.930 . S
H755 C745 0.930 . S
Tb756 N787 2.660 1_545 S
Tb756 N794 2.600 1_545 S
Tb756 O800 2.546 1_545 S
Tb756 O801 2.610 . S
Tb756 O803 2.303 1_545 S
Tb756 O804 2.552 . S
Tb756 O805 2.413 1_545 S
Tb756 O807 2.362 . S
Tb756 O808 2.421 . S
Tb756 C820 2.833 1_545 S
C757 C760 1.432 . S
C757 C761 1.414 . S
C757 N764 1.359 . S
C758 C760 1.417 . S
C758 C762 1.432 . S
C758 C770 1.410 . S
C759 C761 1.444 . S
C759 C762 1.317 . S
C759 H782 0.929 . S
C760 C757 1.432 . S
C760 C758 1.417 . S
C760 N768 1.360 . S
C761 C757 1.414 . S
C761 C759 1.444 . S
C761 C766 1.385 . S
C762 C758 1.432 . S
C762 C759 1.317 . S
C762 H774 0.930 . S
C763 C765 1.392 . S
C763 C766 1.370 . S
C763 H775 0.931 . S
N764 C757 1.359 . S
N764 C765 1.327 . S
N764 Tb767 2.600 . S
C765 C763 1.392 . S
C765 N764 1.327 . S
C765 H772 0.930 . S
C766 C761 1.385 . S
C766 C763 1.370 . S
C766 H785 0.930 . S
Tb767 N764 2.600 . S
Tb767 N768 2.660 . S
Tb767 O801 2.362 . S
Tb767 O802 2.421 . S
Tb767 O806 2.546 . S
Tb767 O807 2.610 . S
Tb767 O809 2.320 . S
Tb767 O810 2.552 . S
Tb767 O811 2.413 . S
Tb767 C831 2.833 . S
N768 C760 1.360 . S
N768 Tb767 2.660 . S
N768 C769 1.305 . S
C769 N768 1.305 . S
C769 C771 1.407 . S
C769 H776 0.930 . S
C770 C758 1.410 . S
C770 C771 1.345 . S
C770 H778 0.930 . S
C771 C769 1.407 . S
C771 C770 1.345 . S
C771 H773 0.930 . S
H772 C765 0.930 . S
H773 C771 0.930 . S
H774 C762 0.930 . S
H775 C763 0.931 . S
H776 C769 0.930 . S
H777 C791 0.930 . S
H778 C770 0.930 . S
H779 C797 0.930 . S
H780 C788 0.930 . S
H781 C795 0.908 1_545 S
H782 C759 0.929 . S
H783 C789 0.930 . S
H784 C822 0.930 . S
H785 C766 0.930 . S
H786 C821 0.929 . S
N787 Tb756 2.660 1_565 S
N787 C788 1.305 . S
N787 C792 1.360 . S
C788 H780 0.930 . S
C788 N787 1.305 . S
C788 C791 1.407 . S
C789 H783 0.930 . S
C789 C790 1.410 . S
C789 C791 1.345 . S
C790 C789 1.410 . S
C790 C792 1.417 . S
C790 C822 1.432 . S
C791 H777 0.930 . S
C791 C788 1.407 . S
C791 C789 1.345 . S
C792 N787 1.360 . S
C792 C790 1.417 . S
C792 C796 1.432 . S
H793 C798 0.930 . S
N794 Tb756 2.600 1_565 S
N794 C796 1.359 . S
N794 C797 1.327 1_565 S
C795 H781 0.908 1_565 S
C795 C797 1.375 1_565 S
C795 C798 1.412 . S
C796 C792 1.432 . S
C796 N794 1.359 . S
C796 C799 1.414 . S
C797 H779 0.930 . S
C797 N794 1.327 1_545 S
C797 C795 1.375 1_545 S
C798 H793 0.930 . S
C798 C795 1.412 . S
C798 C799 1.385 . S
C799 C796 1.414 . S
C799 C798 1.385 . S
C799 C821 1.444 . S
O800 Tb756 2.546 1_565 S
O800 C820 1.251 . S
O801 Tb756 2.610 . S
O801 Tb767 2.362 . S
O801 C812 1.283 . S
O802 Tb767 2.421 . S
O802 C819 1.262 . S
O803 Tb756 2.303 1_565 S
O803 C819 1.240 1_565 S
O804 Tb756 2.552 . S
O804 C812 1.243 . S
O805 Tb756 2.413 1_565 S
O805 C820 1.256 . S
O806 Tb767 2.546 . S
O806 C831 1.251 . S
O807 Tb756 2.362 . S
O807 Tb767 2.610 . S
O807 C823 1.283 . S
O808 Tb756 2.421 . S
O808 C830 1.262 . S
O809 Tb767 2.320 . S
O809 C830 1.260 . S
O810 Tb767 2.552 . S
O810 C823 1.243 . S
O811 Tb767 2.413 . S
O811 C831 1.256 . S
C812 O801 1.283 . S
C812 O804 1.243 . S
C813 C815 1.382 . S
C813 C817 1.393 . S
C813 C820 1.500 . S
C814 C815 1.400 . S
C814 C816 1.384 . S
C815 C813 1.382 . S
C815 C814 1.400 . S
C815 H832 0.930 . S
C816 C814 1.384 . S
C816 C818 1.392 . S
C816 H833 0.931 . S
C817 C813 1.393 . S
C817 C818 1.401 . S
C817 H834 0.930 . S
C818 C816 1.392 . S
C818 C817 1.401 . S
C818 H835 0.930 . S
C819 O802 1.262 . S
C819 O803 1.240 1_545 S
C820 Tb756 2.833 1_565 S
C820 O800 1.251 . S
C820 O805 1.256 . S
C820 C813 1.500 . S
C821 H786 0.929 . S
C821 C799 1.444 . S
C821 C822 1.317 . S
C822 H784 0.930 . S
C822 C790 1.432 . S
C822 C821 1.317 . S
C823 O807 1.283 . S
C823 O810 1.243 . S
C824 C825 1.382 . S
C824 C828 1.393 . S
C824 C831 1.500 . S
C825 C824 1.382 . S
C825 C826 1.400 . S
C825 H836 0.930 . S
C826 C825 1.400 . S
C826 C827 1.384 . S
C827 C826 1.384 . S
C827 C829 1.392 . S
C827 H837 0.931 . S
C828 C824 1.393 . S
C828 C829 1.401 . S
C828 H838 0.930 . S
C829 C827 1.392 . S
C829 C828 1.401 . S
C829 H839 0.930 . S
C830 O808 1.262 . S
C830 O809 1.260 . S
C831 Tb767 2.833 . S
C831 O806 1.251 . S
C831 O811 1.256 . S
C831 C824 1.500 . S
H832 C815 0.930 . S
H833 C816 0.931 . S
H834 C817 0.930 . S
H835 C818 0.930 . S
H836 C825 0.930 . S
H837 C827 0.931 . S
H838 C828 0.930 . S
H839 C829 0.930 . S
Tb840 N871 2.660 1_565 S
Tb840 N878 2.600 1_565 S
Tb840 O884 2.546 1_565 S
Tb840 O885 2.610 . S
Tb840 O887 2.320 1_565 S
Tb840 O888 2.552 . S
Tb840 O889 2.413 1_565 S
Tb840 O891 2.362 . S
Tb840 O892 2.421 . S
Tb840 C904 2.833 1_565 S
C841 C844 1.432 . S
C841 C845 1.414 . S
C841 N848 1.359 . S
C842 C844 1.417 . S
C842 C846 1.432 . S
C842 C854 1.410 . S
C843 C845 1.444 . S
C843 C846 1.317 . S
C843 H866 0.929 . S
C844 C841 1.432 . S
C844 C842 1.417 . S
C844 N852 1.360 . S
C845 C841 1.414 . S
C845 C843 1.444 . S
C845 C850 1.385 . S
C846 C842 1.432 . S
C846 C843 1.317 . S
C846 H858 0.930 . S
C847 C849 1.392 . S
C847 C850 1.370 . S
C847 H859 0.931 . S
N848 C841 1.359 . S
N848 C849 1.327 . S
N848 Tb851 2.600 . S
C849 C847 1.392 . S
C849 N848 1.327 . S
C849 H856 0.930 . S
C850 C845 1.385 . S
C850 C847 1.370 . S
C850 H869 0.930 . S
Tb851 N848 2.600 . S
Tb851 N852 2.660 . S
Tb851 O885 2.362 . S
Tb851 O886 2.421 . S
Tb851 O890 2.546 . S
Tb851 O891 2.610 . S
Tb851 O893 2.320 . S
Tb851 O894 2.552 . S
Tb851 O895 2.413 . S
Tb851 C915 2.833 . S
N852 C844 1.360 . S
N852 Tb851 2.660 . S
N852 C853 1.305 . S
C853 N852 1.305 . S
C853 C855 1.407 . S
C853 H860 0.930 . S
C854 C842 1.410 . S
C854 C855 1.345 . S
C854 H862 0.930 . S
C855 C853 1.407 . S
C855 C854 1.345 . S
C855 H857 0.930 . S
H856 C849 0.930 . S
H857 C855 0.930 . S
H858 C846 0.930 . S
H859 C847 0.931 . S
H860 C853 0.930 . S
H861 C875 0.930 . S
H862 C854 0.930 . S
H863 C881 0.930 . S
H864 C872 0.930 . S
H865 C879 0.931 1_565 S
H866 C843 0.929 . S
H867 C873 0.930 . S
H868 C906 0.930 . S
H869 C850 0.930 . S
H870 C905 0.929 . S
N871 Tb840 2.660 1_545 S
N871 C872 1.305 . S
N871 C876 1.360 . S
C872 H864 0.930 . S
C872 N871 1.305 . S
C872 C875 1.407 . S
C873 H867 0.930 . S
C873 C874 1.410 . S
C873 C875 1.345 . S
C874 C873 1.410 . S
C874 C876 1.417 . S
C874 C906 1.432 . S
C875 H861 0.930 . S
C875 C872 1.407 . S
C875 C873 1.345 . S
C876 N871 1.360 . S
C876 C874 1.417 . S
C876 C880 1.432 . S
H877 C882 0.930 . S
N878 Tb840 2.600 1_545 S
N878 C880 1.359 . S
N878 C881 1.327 1_545 S
C879 H865 0.931 1_545 S
C879 C881 1.392 1_545 S
C879 C882 1.370 . S
C880 C876 1.432 . S
C880 N878 1.359 . S
C880 C883 1.414 . S
C881 H863 0.930 . S
C881 N878 1.327 1_565 S
C881 C879 1.392 1_565 S
C882 H877 0.930 . S
C882 C879 1.370 . S
C882 C883 1.385 . S
C883 C880 1.414 . S
C883 C882 1.385 . S
C883 C905 1.444 . S
O884 Tb840 2.546 1_545 S
O884 C904 1.251 . S
O885 Tb840 2.610 . S
O885 Tb851 2.362 . S
O885 C896 1.283 . S
O886 Tb851 2.421 . S
O886 C903 1.262 . S
O887 Tb840 2.320 1_545 S
O887 C903 1.260 1_545 S
O888 Tb840 2.552 . S
O888 C896 1.243 . S
O889 Tb840 2.413 1_545 S
O889 C904 1.256 . S
O890 Tb851 2.546 . S
O890 C915 1.251 . S
O891 Tb840 2.362 . S
O891 Tb851 2.610 . S
O891 C907 1.283 . S
O892 Tb840 2.421 . S
O892 C914 1.262 . S
O893 Tb851 2.320 . S
O893 C914 1.260 . S
O894 Tb851 2.552 . S
O894 C907 1.243 . S
O895 Tb851 2.413 . S
O895 C915 1.256 . S
C896 O885 1.283 . S
C896 O888 1.243 . S
C897 C899 1.382 . S
C897 C901 1.393 . S
C897 C904 1.500 . S
C898 C899 1.400 . S
C898 C900 1.384 . S
C899 C897 1.382 . S
C899 C898 1.400 . S
C899 H916 0.930 . S
C900 C898 1.384 . S
C900 C902 1.392 . S
C900 H917 0.931 . S
C901 C897 1.393 . S
C901 C902 1.401 . S
C901 H918 0.930 . S
C902 C900 1.392 . S
C902 C901 1.401 . S
C902 H919 0.930 . S
C903 O886 1.262 . S
C903 O887 1.260 1_565 S
C904 Tb840 2.833 1_545 S
C904 O884 1.251 . S
C904 O889 1.256 . S
C904 C897 1.500 . S
C905 H870 0.929 . S
C905 C883 1.444 . S
C905 C906 1.317 . S
C906 H868 0.930 . S
C906 C874 1.432 . S
C906 C905 1.317 . S
C907 O891 1.283 . S
C907 O894 1.243 . S
C908 C909 1.382 . S
C908 C912 1.393 . S
C908 C915 1.500 . S
C909 C908 1.382 . S
C909 C910 1.400 . S
C909 H920 0.930 . S
C910 C909 1.400 . S
C910 C911 1.384 . S
C911 C910 1.384 . S
C911 C913 1.392 . S
C911 H921 0.931 . S
C912 C908 1.393 . S
C912 C913 1.401 . S
C912 H922 0.930 . S
C913 C911 1.392 . S
C913 C912 1.401 . S
C913 H923 0.930 . S
C914 O892 1.262 . S
C914 O893 1.260 . S
C915 Tb851 2.833 . S
C915 O890 1.251 . S
C915 O895 1.256 . S
C915 C908 1.500 . S
H916 C899 0.930 . S
H917 C900 0.931 . S
H918 C901 0.930 . S
H919 C902 0.930 . S
H920 C909 0.930 . S
H921 C911 0.931 . S
H922 C912 0.930 . S
H923 C913 0.930 . S
Tb924 N955 2.660 . S
Tb924 N962 2.600 . S
Tb924 O968 2.546 . S
Tb924 O969 2.610 . S
Tb924 O971 2.320 . S
Tb924 O972 2.552 . S
Tb924 O973 2.413 . S
Tb924 O975 2.362 . S
Tb924 O976 2.421 . S
Tb924 C988 2.833 . S
C925 C928 1.432 . S
C925 C929 1.414 1_565 S
C925 N932 1.359 1_565 S
C926 C928 1.417 . S
C926 C930 1.432 . S
C926 C938 1.410 . S
C927 C929 1.444 1_565 S
C927 C930 1.317 . S
C927 H950 0.929 . S
C928 C925 1.432 . S
C928 C926 1.417 . S
C928 N936 1.360 . S
C929 C925 1.414 1_545 S
C929 C927 1.444 1_545 S
C929 C934 1.385 . S
C930 C926 1.432 . S
C930 C927 1.317 . S
C930 H942 0.930 . S
C931 C933 1.392 . S
C931 C934 1.370 . S
C931 H943 0.931 . S
N932 C925 1.359 1_545 S
N932 C933 1.327 . S
N932 Tb935 2.600 1_545 S
C933 C931 1.392 . S
C933 N932 1.327 . S
C933 H940 0.930 . S
C934 C929 1.385 . S
C934 C931 1.370 . S
C934 H953 0.930 . S
Tb935 N932 2.600 1_565 S
Tb935 N936 2.660 . S
Tb935 O969 2.362 . S
Tb935 O970 2.421 . S
Tb935 O974 2.546 1_565 S
Tb935 O975 2.610 . S
Tb935 O977 2.320 . S
Tb935 O978 2.552 1_565 S
Tb935 O979 2.413 1_565 S
Tb935 C999 2.833 1_565 S
N936 C928 1.360 . S
N936 Tb935 2.660 . S
N936 C937 1.305 . S
C937 N936 1.305 . S
C937 C939 1.407 . S
C937 H944 0.930 . S
C938 C926 1.410 . S
C938 C939 1.345 . S
C938 H946 0.930 . S
C939 C937 1.407 . S
C939 C938 1.345 . S
C939 H941 0.930 . S
H940 C933 0.930 . S
H941 C939 0.930 . S
H942 C930 0.930 . S
H943 C931 0.931 . S
H944 C937 0.930 . S
H945 C959 0.930 1_545 S
H946 C938 0.930 . S
H947 C965 0.930 . S
H948 C956 0.930 . S
H949 C963 0.931 . S
H950 C927 0.929 . S
H951 C957 0.930 . S
H952 C990 0.930 . S
H953 C934 0.930 . S
H954 C989 0.929 . S
N955 Tb924 2.660 . S
N955 C956 1.305 . S
N955 C960 1.360 . S
C956 H948 0.930 . S
C956 N955 1.305 . S
C956 C959 1.407 . S
C957 H951 0.930 . S
C957 C958 1.410 . S
C957 C959 1.345 . S
C958 C957 1.410 . S
C958 C960 1.417 . S
C958 C990 1.432 . S
C959 H945 0.930 1_565 S
C959 C956 1.407 . S
C959 C957 1.345 . S
C960 N955 1.360 . S
C960 C958 1.417 . S
C960 C964 1.432 . S
H961 C966 0.930 . S
N962 Tb924 2.600 . S
N962 C964 1.359 . S
N962 C965 1.327 . S
C963 H949 0.931 . S
C963 C965 1.392 . S
C963 C966 1.370 . S
C964 C960 1.432 . S
C964 N962 1.359 . S
C964 C967 1.414 . S
C965 H947 0.930 . S
C965 N962 1.327 . S
C965 C963 1.392 . S
C966 H961 0.930 . S
C966 C963 1.370 . S
C966 C967 1.385 . S
C967 C964 1.414 . S
C967 C966 1.385 . S
C967 C989 1.444 . S
O968 Tb924 2.546 . S
O968 C988 1.251 . S
O969 Tb924 2.610 . S
O969 Tb935 2.362 . S
O969 C980 1.283 . S
O970 Tb935 2.421 . S
O970 C987 1.262 . S
O971 Tb924 2.320 . S
O971 C987 1.260 . S
O972 Tb924 2.552 . S
O972 C980 1.243 . S
O973 Tb924 2.413 . S
O973 C988 1.256 . S
O974 Tb935 2.546 1_545 S
O974 C999 1.251 . S
O975 Tb924 2.362 . S
O975 Tb935 2.610 . S
O975 C991 1.283 . S
O976 Tb924 2.421 . S
O976 C998 1.262 . S
O977 Tb935 2.320 . S
O977 C998 1.260 . S
O978 Tb935 2.552 1_545 S
O978 C991 1.243 1_545 S
O979 Tb935 2.413 1_545 S
O979 C999 1.256 . S
C980 O969 1.283 . S
C980 O972 1.243 . S
C981 C983 1.382 . S
C981 C985 1.393 . S
C981 C988 1.500 . S
C982 C983 1.400 . S
C982 C984 1.384 . S
C983 C981 1.382 . S
C983 C982 1.400 . S
C983 H1000 0.930 . S
C984 C982 1.384 . S
C984 C986 1.392 . S
C984 H1001 0.931 . S
C985 C981 1.393 . S
C985 C986 1.401 . S
C985 H1002 0.930 . S
C986 C984 1.392 . S
C986 C985 1.401 . S
C986 H1003 0.930 . S
C987 O970 1.262 . S
C987 O971 1.260 . S
C988 Tb924 2.833 . S
C988 O968 1.251 . S
C988 O973 1.256 . S
C988 C981 1.500 . S
C989 H954 0.929 . S
C989 C967 1.444 . S
C989 C990 1.317 . S
C990 H952 0.930 . S
C990 C958 1.432 . S
C990 C989 1.317 . S
C991 O975 1.283 . S
C991 O978 1.243 1_565 S
C992 C993 1.382 . S
C992 C996 1.393 . S
C992 C999 1.500 . S
C993 C992 1.382 . S
C993 C994 1.400 . S
C993 H1004 0.930 . S
C994 C993 1.400 . S
C994 C995 1.384 . S
C995 C994 1.384 . S
C995 C997 1.392 . S
C995 H1005 0.931 . S
C996 C992 1.393 . S
C996 C997 1.401 . S
C996 H1006 0.930 . S
C997 C995 1.392 . S
C997 C996 1.401 . S
C997 H1007 0.930 . S
C998 O976 1.262 . S
C998 O977 1.260 . S
C999 Tb935 2.833 1_545 S
C999 O974 1.251 . S
C999 O979 1.256 . S
C999 C992 1.500 . S
H1000 C983 0.930 . S
H1001 C984 0.931 . S
H1002 C985 0.930 . S
H1003 C986 0.930 . S
H1004 C993 0.930 . S
H1005 C995 0.931 . S
H1006 C996 0.930 . S
H1007 C997 0.930 . S
Tb1008 N1039 2.660 . S
Tb1008 N1046 2.600 . S
Tb1008 O1052 2.546 . S
Tb1008 O1053 2.610 . S
Tb1008 O1055 2.320 . S
Tb1008 O1056 2.552 . S
Tb1008 O1057 2.413 . S
Tb1008 O1059 2.362 . S
Tb1008 O1060 2.421 . S
Tb1008 C1072 2.833 . S
C1009 C1012 1.432 . S
C1009 C1013 1.396 1_554 S
C1009 N1016 1.359 1_554 S
C1010 C1012 1.417 . S
C1010 C1014 1.432 . S
C1010 C1022 1.410 . S
C1011 C1013 1.417 1_554 S
C1011 C1014 1.317 . S
C1011 H1034 0.929 . S
C1012 C1009 1.432 . S
C1012 C1010 1.417 . S
C1012 N1020 1.360 . S
C1013 C1009 1.396 1_556 S
C1013 C1011 1.417 1_556 S
C1013 C1018 1.432 . S
C1014 C1010 1.432 . S
C1014 C1011 1.317 . S
C1014 H1026 0.930 . S
C1015 C1017 1.392 . S
C1015 C1018 1.370 . S
C1015 H1027 0.931 . S
N1016 C1009 1.359 1_556 S
N1016 C1017 1.327 . S
N1016 Tb1019 2.600 1_556 S
C1017 C1015 1.392 . S
C1017 N1016 1.327 . S
C1017 H1024 0.930 . S
C1018 C1013 1.432 . S
C1018 C1015 1.370 . S
C1018 H1037 0.930 . S
Tb1019 N1016 2.600 1_554 S
Tb1019 N1020 2.660 . S
Tb1019 O1053 2.362 . S
Tb1019 O1054 2.421 . S
Tb1019 O1058 2.546 1_554 S
Tb1019 O1059 2.610 . S
Tb1019 O1061 2.320 . S
Tb1019 O1062 2.552 1_554 S
Tb1019 O1063 2.413 1_554 S
Tb1019 C1083 2.833 1_554 S
N1020 C1012 1.360 . S
N1020 Tb1019 2.660 . S
N1020 C1021 1.305 . S
C1021 N1020 1.305 . S
C1021 C1023 1.407 . S
C1021 H1028 0.930 . S
C1022 C1010 1.410 . S
C1022 C1023 1.345 . S
C1022 H1030 0.930 . S
C1023 C1021 1.407 . S
C1023 C1022 1.345 . S
C1023 H1025 0.930 . S
H1024 C1017 0.930 . S
H1025 C1023 0.930 . S
H1026 C1014 0.930 . S
H1027 C1015 0.931 . S
H1028 C1021 0.930 . S
H1029 C1043 0.930 1_556 S
H1030 C1022 0.930 . S
H1031 C1049 0.930 . S
H1032 C1040 0.930 . S
H1033 C1047 0.931 . S
H1034 C1011 0.929 . S
H1035 C1041 0.930 . S
H1036 C1074 0.930 . S
H1037 C1018 0.930 . S
H1038 C1073 0.929 . S
N1039 Tb1008 2.660 . S
N1039 C1040 1.305 . S
N1039 C1044 1.360 . S
C1040 H1032 0.930 . S
C1040 N1039 1.305 . S
C1040 C1043 1.407 . S
C1041 H1035 0.930 . S
C1041 C1042 1.410 . S
C1041 C1043 1.345 . S
C1042 C1041 1.410 . S
C1042 C1044 1.417 . S
C1042 C1074 1.432 . S
C1043 H1029 0.930 1_554 S
C1043 C1040 1.407 . S
C1043 C1041 1.345 . S
C1044 N1039 1.360 . S
C1044 C1042 1.417 . S
C1044 C1048 1.432 . S
H1045 C1050 0.930 . S
N1046 Tb1008 2.600 . S
N1046 C1048 1.359 . S
N1046 C1049 1.327 . S
C1047 H1033 0.931 . S
C1047 C1049 1.392 . S
C1047 C1050 1.370 . S
C1048 C1044 1.432 . S
C1048 N1046 1.359 . S
C1048 C1051 1.414 . S
C1049 H1031 0.930 . S
C1049 N1046 1.327 . S
C1049 C1047 1.392 . S
C1050 H1045 0.930 . S
C1050 C1047 1.370 . S
C1050 C1051 1.385 . S
C1051 C1048 1.414 . S
C1051 C1050 1.385 . S
C1051 C1073 1.444 . S
O1052 Tb1008 2.546 . S
O1052 C1072 1.251 . S
O1053 Tb1008 2.610 . S
O1053 Tb1019 2.362 . S
O1053 C1064 1.283 . S
O1054 Tb1019 2.421 . S
O1054 C1071 1.262 . S
O1055 Tb1008 2.320 . S
O1055 C1071 1.260 . S
O1056 Tb1008 2.552 . S
O1056 C1064 1.243 . S
O1057 Tb1008 2.413 . S
O1057 C1072 1.256 . S
O1058 Tb1019 2.546 1_556 S
O1058 C1083 1.251 . S
O1059 Tb1008 2.362 . S
O1059 Tb1019 2.610 . S
O1059 C1075 1.283 . S
O1060 Tb1008 2.421 . S
O1060 C1082 1.262 . S
O1061 Tb1019 2.320 . S
O1061 C1082 1.260 . S
O1062 Tb1019 2.552 1_556 S
O1062 C1075 1.243 1_556 S
O1063 Tb1019 2.413 1_556 S
O1063 C1083 1.256 . S
C1064 O1053 1.283 . S
C1064 O1056 1.243 . S
C1065 C1067 1.382 . S
C1065 C1069 1.393 . S
C1065 C1072 1.500 . S
C1066 C1067 1.400 . S
C1066 C1068 1.384 . S
C1067 C1065 1.382 . S
C1067 C1066 1.400 . S
C1067 H1084 0.930 . S
C1068 C1066 1.384 . S
C1068 C1070 1.392 . S
C1068 H1085 0.931 . S
C1069 C1065 1.393 . S
C1069 C1070 1.401 . S
C1069 H1086 0.930 . S
C1070 C1068 1.392 . S
C1070 C1069 1.401 . S
C1070 H1087 0.930 . S
C1071 O1054 1.262 . S
C1071 O1055 1.260 . S
C1072 Tb1008 2.833 . S
C1072 O1052 1.251 . S
C1072 O1057 1.256 . S
C1072 C1065 1.500 . S
C1073 H1038 0.929 . S
C1073 C1051 1.444 . S
C1073 C1074 1.317 . S
C1074 H1036 0.930 . S
C1074 C1042 1.432 . S
C1074 C1073 1.317 . S
C1075 O1059 1.283 . S
C1075 O1062 1.243 1_554 S
C1076 C1077 1.382 . S
C1076 C1080 1.393 . S
C1076 C1083 1.500 . S
C1077 C1076 1.382 . S
C1077 C1078 1.400 . S
C1077 H1088 0.930 . S
C1078 C1077 1.400 . S
C1078 C1079 1.384 . S
C1079 C1078 1.384 . S
C1079 C1081 1.392 . S
C1079 H1089 0.931 . S
C1080 C1076 1.393 . S
C1080 C1081 1.401 . S
C1080 H1090 0.930 . S
C1081 C1079 1.392 . S
C1081 C1080 1.401 . S
C1081 H1091 0.930 . S
C1082 O1060 1.262 . S
C1082 O1061 1.260 . S
C1083 Tb1019 2.833 1_556 S
C1083 O1058 1.251 . S
C1083 O1063 1.256 . S
C1083 C1076 1.500 . S
H1084 C1067 0.930 . S
H1085 C1068 0.931 . S
H1086 C1069 0.930 . S
H1087 C1070 0.930 . S
H1088 C1077 0.930 . S
H1089 C1079 0.931 . S
H1090 C1080 0.930 . S
H1091 C1081 0.930 . S
Tb1092 N1123 2.660 1_655 S
Tb1092 N1130 2.600 1_655 S
Tb1092 O1136 2.546 1_655 S
Tb1092 O1137 2.610 . S
Tb1092 O1139 2.320 1_655 S
Tb1092 O1140 2.552 . S
Tb1092 O1141 2.413 1_655 S
Tb1092 O1143 2.362 . S
Tb1092 O1144 2.421 . S
Tb1092 C1156 2.833 1_655 S
C1093 C1096 1.432 . S
C1093 C1097 1.414 . S
C1093 N1100 1.359 . S
C1094 C1096 1.417 . S
C1094 C1098 1.432 . S
C1094 C1106 1.410 . S
C1095 C1097 1.444 . S
C1095 C1098 1.317 . S
C1095 H1118 0.929 . S
C1096 C1093 1.432 . S
C1096 C1094 1.417 . S
C1096 N1104 1.360 . S
C1097 C1093 1.414 . S
C1097 C1095 1.444 . S
C1097 C1102 1.385 . S
C1098 C1094 1.432 . S
C1098 C1095 1.317 . S
C1098 H1110 0.930 . S
C1099 C1101 1.392 . S
C1099 C1102 1.370 . S
C1099 H1111 0.931 . S
N1100 C1093 1.359 . S
N1100 C1101 1.327 . S
N1100 Tb1103 2.600 . S
C1101 C1099 1.392 . S
C1101 N1100 1.327 . S
C1101 H1108 0.930 . S
C1102 C1097 1.385 . S
C1102 C1099 1.370 . S
C1102 H1121 0.930 . S
Tb1103 N1100 2.600 . S
Tb1103 N1104 2.660 . S
Tb1103 O1137 2.362 . S
Tb1103 O1138 2.421 . S
Tb1103 O1142 2.546 . S
Tb1103 O1143 2.610 . S
Tb1103 O1145 2.320 . S
Tb1103 O1146 2.552 . S
Tb1103 O1147 2.413 . S
Tb1103 C1167 2.833 . S
N1104 C1096 1.360 . S
N1104 Tb1103 2.660 . S
N1104 C1105 1.305 . S
C1105 N1104 1.305 . S
C1105 C1107 1.407 . S
C1105 H1112 0.930 . S
C1106 C1094 1.410 . S
C1106 C1107 1.345 . S
C1106 H1114 0.930 . S
C1107 C1105 1.407 . S
C1107 C1106 1.345 . S
C1107 H1109 0.930 . S
H1108 C1101 0.930 . S
H1109 C1107 0.930 . S
H1110 C1098 0.930 . S
H1111 C1099 0.931 . S
H1112 C1105 0.930 . S
H1113 C1127 0.930 . S
H1114 C1106 0.930 . S
H1115 C1133 0.930 . S
H1116 C1124 0.930 . S
H1117 C1131 0.931 1_655 S
H1118 C1095 0.929 . S
H1119 C1125 0.930 . S
H1120 C1158 0.930 . S
H1121 C1102 0.930 . S
H1122 C1157 0.929 . S
N1123 Tb1092 2.660 1_455 S
N1123 C1124 1.305 . S
N1123 C1128 1.360 . S
C1124 H1116 0.930 . S
C1124 N1123 1.305 . S
C1124 C1127 1.407 . S
C1125 H1119 0.930 . S
C1125 C1126 1.410 . S
C1125 C1127 1.345 . S
C1126 C1125 1.410 . S
C1126 C1128 1.417 . S
C1126 C1158 1.432 . S
C1127 H1113 0.930 . S
C1127 C1124 1.407 . S
C1127 C1125 1.345 . S
C1128 N1123 1.360 . S
C1128 C1126 1.417 . S
C1128 C1132 1.432 . S
H1129 C1134 0.930 . S
N1130 Tb1092 2.600 1_455 S
N1130 C1132 1.359 . S
N1130 C1133 1.327 1_455 S
C1131 H1117 0.931 1_455 S
C1131 C1133 1.392 1_455 S
C1131 C1134 1.370 . S
C1132 C1128 1.432 . S
C1132 N1130 1.359 . S
C1132 C1135 1.414 . S
C1133 H1115 0.930 . S
C1133 N1130 1.327 1_655 S
C1133 C1131 1.392 1_655 S
C1134 H1129 0.930 . S
C1134 C1131 1.370 . S
C1134 C1135 1.385 . S
C1135 C1132 1.414 . S
C1135 C1134 1.385 . S
C1135 C1157 1.444 . S
O1136 Tb1092 2.546 1_455 S
O1136 C1156 1.251 . S
O1137 Tb1092 2.610 . S
O1137 Tb1103 2.362 . S
O1137 C1148 1.283 . S
O1138 Tb1103 2.421 . S
O1138 C1155 1.262 . S
O1139 Tb1092 2.320 1_455 S
O1139 C1155 1.260 1_455 S
O1140 Tb1092 2.552 . S
O1140 C1148 1.243 . S
O1141 Tb1092 2.413 1_455 S
O1141 C1156 1.256 . S
O1142 Tb1103 2.546 . S
O1142 C1167 1.251 . S
O1143 Tb1092 2.362 . S
O1143 Tb1103 2.610 . S
O1143 C1159 1.283 . S
O1144 Tb1092 2.421 . S
O1144 C1166 1.262 . S
O1145 Tb1103 2.320 . S
O1145 C1166 1.260 . S
O1146 Tb1103 2.552 . S
O1146 C1159 1.243 . S
O1147 Tb1103 2.413 . S
O1147 C1167 1.256 . S
C1148 O1137 1.283 . S
C1148 O1140 1.243 . S
C1149 C1151 1.382 . S
C1149 C1153 1.393 . S
C1149 C1156 1.500 . S
C1150 C1151 1.400 . S
C1150 C1152 1.384 . S
C1151 C1149 1.382 . S
C1151 C1150 1.400 . S
C1151 H1168 0.930 . S
C1152 C1150 1.384 . S
C1152 C1154 1.392 . S
C1152 H1169 0.931 . S
C1153 C1149 1.393 . S
C1153 C1154 1.401 . S
C1153 H1170 0.930 . S
C1154 C1152 1.392 . S
C1154 C1153 1.401 . S
C1154 H1171 0.930 . S
C1155 O1138 1.262 . S
C1155 O1139 1.260 1_655 S
C1156 Tb1092 2.833 1_455 S
C1156 O1136 1.251 . S
C1156 O1141 1.256 . S
C1156 C1149 1.500 . S
C1157 H1122 0.929 . S
C1157 C1135 1.444 . S
C1157 C1158 1.317 . S
C1158 H1120 0.930 . S
C1158 C1126 1.432 . S
C1158 C1157 1.317 . S
C1159 O1143 1.283 . S
C1159 O1146 1.243 . S
C1160 C1161 1.382 . S
C1160 C1164 1.393 . S
C1160 C1167 1.500 . S
C1161 C1160 1.382 . S
C1161 C1162 1.400 . S
C1161 H1172 0.930 . S
C1162 C1161 1.400 . S
C1162 C1163 1.384 . S
C1163 C1162 1.384 . S
C1163 C1165 1.392 . S
C1163 H1173 0.931 . S
C1164 C1160 1.393 . S
C1164 C1165 1.401 . S
C1164 H1174 0.930 . S
C1165 C1163 1.392 . S
C1165 C1164 1.401 . S
C1165 H1175 0.930 . S
C1166 O1144 1.262 . S
C1166 O1145 1.260 . S
C1167 Tb1103 2.833 . S
C1167 O1142 1.251 . S
C1167 O1147 1.256 . S
C1167 C1160 1.500 . S
H1168 C1151 0.930 . S
H1169 C1152 0.931 . S
H1170 C1153 0.930 . S
H1171 C1154 0.930 . S
H1172 C1161 0.930 . S
H1173 C1163 0.931 . S
H1174 C1164 0.930 . S
H1175 C1165 0.930 . S
Tb1176 N1207 2.660 . S
Tb1176 N1214 2.600 . S
Tb1176 O1220 2.546 . S
Tb1176 O1221 2.610 . S
Tb1176 O1223 2.320 . S
Tb1176 O1224 2.552 . S
Tb1176 O1225 2.413 . S
Tb1176 O1227 2.362 . S
Tb1176 O1228 2.421 . S
Tb1176 C1240 2.833 . S
C1177 C1180 1.432 . S
C1177 C1181 1.414 . S
C1177 N1184 1.359 . S
C1178 C1180 1.417 . S
C1178 C1182 1.432 . S
C1178 C1190 1.410 . S
C1179 C1181 1.444 . S
C1179 C1182 1.317 . S
C1179 H1202 0.929 . S
C1180 C1177 1.432 . S
C1180 C1178 1.417 . S
C1180 N1188 1.360 . S
C1181 C1177 1.414 . S
C1181 C1179 1.444 . S
C1181 C1186 1.385 . S
C1182 C1178 1.432 . S
C1182 C1179 1.317 . S
C1182 H1194 0.930 . S
C1183 C1185 1.392 . S
C1183 C1186 1.370 . S
C1183 H1195 0.931 . S
N1184 C1177 1.359 . S
N1184 C1185 1.327 . S
N1184 Tb1187 2.600 . S
C1185 C1183 1.392 . S
C1185 N1184 1.327 . S
C1185 H1192 0.930 . S
C1186 C1181 1.385 . S
C1186 C1183 1.370 . S
C1186 H1205 0.930 . S
Tb1187 N1184 2.600 . S
Tb1187 N1188 2.660 . S
Tb1187 O1221 2.362 . S
Tb1187 O1222 2.421 . S
Tb1187 O1226 2.546 . S
Tb1187 O1227 2.610 . S
Tb1187 O1229 2.320 . S
Tb1187 O1230 2.552 . S
Tb1187 O1231 2.413 . S
Tb1187 C1251 2.833 . S
N1188 C1180 1.360 . S
N1188 Tb1187 2.660 . S
N1188 C1189 1.305 . S
C1189 N1188 1.305 . S
C1189 C1191 1.407 . S
C1189 H1196 0.930 . S
C1190 C1178 1.410 . S
C1190 C1191 1.345 . S
C1190 H1198 0.930 . S
C1191 C1189 1.407 . S
C1191 C1190 1.345 . S
C1191 H1193 0.930 . S
H1192 C1185 0.930 . S
H1193 C1191 0.930 . S
H1194 C1182 0.930 . S
H1195 C1183 0.931 . S
H1196 C1189 0.930 . S
H1197 C1211 0.930 . S
H1198 C1190 0.930 . S
H1199 C1217 0.930 . S
H1200 C1208 0.930 . S
H1201 C1215 0.931 . S
H1202 C1179 0.929 . S
H1203 C1209 0.930 . S
H1204 C1242 0.930 . S
H1205 C1186 0.930 . S
H1206 C1241 0.929 . S
N1207 Tb1176 2.660 . S
N1207 C1208 1.305 . S
N1207 C1212 1.360 . S
C1208 H1200 0.930 . S
C1208 N1207 1.305 . S
C1208 C1211 1.407 . S
C1209 H1203 0.930 . S
C1209 C1210 1.410 . S
C1209 C1211 1.345 . S
C1210 C1209 1.410 . S
C1210 C1212 1.417 . S
C1210 C1242 1.432 . S
C1211 H1197 0.930 . S
C1211 C1208 1.407 . S
C1211 C1209 1.345 . S
C1212 N1207 1.360 . S
C1212 C1210 1.417 . S
C1212 C1216 1.432 . S
H1213 C1218 0.930 . S
N1214 Tb1176 2.600 . S
N1214 C1216 1.359 . S
N1214 C1217 1.327 . S
C1215 H1201 0.931 . S
C1215 C1217 1.392 . S
C1215 C1218 1.370 . S
C1216 C1212 1.432 . S
C1216 N1214 1.359 . S
C1216 C1219 1.414 . S
C1217 H1199 0.930 . S
C1217 N1214 1.327 . S
C1217 C1215 1.392 . S
C1218 H1213 0.930 . S
C1218 C1215 1.370 . S
C1218 C1219 1.385 . S
C1219 C1216 1.414 . S
C1219 C1218 1.385 . S
C1219 C1241 1.444 . S
O1220 Tb1176 2.546 . S
O1220 C1240 1.251 . S
O1221 Tb1176 2.610 . S
O1221 Tb1187 2.362 . S
O1221 C1232 1.283 . S
O1222 Tb1187 2.421 . S
O1222 C1239 1.262 . S
O1223 Tb1176 2.320 . S
O1223 C1239 1.260 . S
O1224 Tb1176 2.552 . S
O1224 C1232 1.243 . S
O1225 Tb1176 2.413 . S
O1225 C1240 1.256 . S
O1226 Tb1187 2.546 . S
O1226 C1251 1.251 . S
O1227 Tb1176 2.362 . S
O1227 Tb1187 2.610 . S
O1227 C1243 1.283 . S
O1228 Tb1176 2.421 . S
O1228 C1250 1.262 . S
O1229 Tb1187 2.320 . S
O1229 C1250 1.260 . S
O1230 Tb1187 2.552 . S
O1230 C1243 1.243 . S
O1231 Tb1187 2.413 . S
O1231 C1251 1.256 . S
C1232 O1221 1.283 . S
C1232 O1224 1.243 . S
C1233 C1235 1.382 . S
C1233 C1237 1.393 . S
C1233 C1240 1.500 . S
C1234 C1235 1.400 . S
C1234 C1236 1.384 . S
C1235 C1233 1.382 . S
C1235 C1234 1.400 . S
C1235 H1252 0.930 . S
C1236 C1234 1.384 . S
C1236 C1238 1.392 . S
C1236 H1253 0.931 . S
C1237 C1233 1.393 . S
C1237 C1238 1.401 . S
C1237 H1254 0.930 . S
C1238 C1236 1.392 . S
C1238 C1237 1.401 . S
C1238 H1255 0.930 . S
C1239 O1222 1.262 . S
C1239 O1223 1.260 . S
C1240 Tb1176 2.833 . S
C1240 O1220 1.251 . S
C1240 O1225 1.256 . S
C1240 C1233 1.500 . S
C1241 H1206 0.929 . S
C1241 C1219 1.444 . S
C1241 C1242 1.317 . S
C1242 H1204 0.930 . S
C1242 C1210 1.432 . S
C1242 C1241 1.317 . S
C1243 O1227 1.283 . S
C1243 O1230 1.243 . S
C1244 C1245 1.382 . S
C1244 C1248 1.393 . S
C1244 C1251 1.500 . S
C1245 C1244 1.382 . S
C1245 C1246 1.400 . S
C1245 H1256 0.930 . S
C1246 C1245 1.400 . S
C1246 C1247 1.384 . S
C1247 C1246 1.384 . S
C1247 C1249 1.392 . S
C1247 H1257 0.931 . S
C1248 C1244 1.393 . S
C1248 C1249 1.401 . S
C1248 H1258 0.930 . S
C1249 C1247 1.392 . S
C1249 C1248 1.401 . S
C1249 H1259 0.930 . S
C1250 O1228 1.262 . S
C1250 O1229 1.260 . S
C1251 Tb1187 2.833 . S
C1251 O1226 1.251 . S
C1251 O1231 1.256 . S
C1251 C1244 1.500 . S
H1252 C1235 0.930 . S
H1253 C1236 0.931 . S
H1254 C1237 0.930 . S
H1255 C1238 0.930 . S
H1256 C1245 0.930 . S
H1257 C1247 0.931 . S
H1258 C1248 0.930 . S
H1259 C1249 0.930 . S
Tb1260 N1291 2.660 . S
Tb1260 N1298 2.600 . S
Tb1260 O1304 2.546 . S
Tb1260 O1305 2.610 . S
Tb1260 O1307 2.320 . S
Tb1260 O1308 2.552 . S
Tb1260 O1309 2.413 . S
Tb1260 O1311 2.362 . S
Tb1260 O1312 2.421 . S
Tb1260 C1324 2.833 . S
C1261 C1264 1.432 . S
C1261 C1265 1.414 . S
C1261 N1268 1.359 . S
C1262 C1264 1.417 . S
C1262 C1266 1.432 . S
C1262 C1274 1.410 . S
C1263 C1265 1.444 . S
C1263 C1266 1.317 . S
C1263 H1286 0.929 . S
C1264 C1261 1.432 . S
C1264 C1262 1.417 . S
C1264 N1272 1.360 . S
C1265 C1261 1.414 . S
C1265 C1263 1.444 . S
C1265 C1270 1.385 . S
C1266 C1262 1.432 . S
C1266 C1263 1.317 . S
C1266 H1278 0.930 . S
C1267 C1269 1.401 . S
C1267 C1270 1.351 1_655 S
C1267 H1279 0.942 . S
N1268 C1261 1.359 . S
N1268 C1269 1.327 1_455 S
N1268 Tb1271 2.600 1_455 S
C1269 C1267 1.401 . S
C1269 N1268 1.327 1_655 S
C1269 H1276 0.930 . S
C1270 C1265 1.385 . S
C1270 C1267 1.351 1_455 S
C1270 H1289 0.930 . S
Tb1271 N1268 2.600 1_655 S
Tb1271 N1272 2.660 1_655 S
Tb1271 O1305 2.362 . S
Tb1271 O1306 2.421 . S
Tb1271 O1310 2.547 1_655 S
Tb1271 O1311 2.610 . S
Tb1271 O1313 2.321 . S
Tb1271 O1314 2.552 . S
Tb1271 O1315 2.413 1_655 S
Tb1271 C1335 2.833 1_655 S
N1272 C1264 1.360 . S
N1272 Tb1271 2.660 1_455 S
N1272 C1273 1.305 . S
C1273 N1272 1.305 . S
C1273 C1275 1.407 . S
C1273 H1280 0.930 . S
C1274 C1262 1.410 . S
C1274 C1275 1.345 . S
C1274 H1282 0.930 . S
C1275 C1273 1.407 . S
C1275 C1274 1.345 . S
C1275 H1277 0.930 . S
H1276 C1269 0.930 . S
H1277 C1275 0.930 . S
H1278 C1266 0.930 . S
H1279 C1267 0.942 . S
H1280 C1273 0.930 . S
H1281 C1295 0.930 . S
H1282 C1274 0.930 . S
H1283 C1301 0.930 . S
H1284 C1292 0.930 . S
H1285 C1299 0.931 . S
H1286 C1263 0.929 . S
H1287 C1293 0.930 . S
H1288 C1326 0.930 . S
H1289 C1270 0.930 . S
H1290 C1325 0.929 . S
N1291 Tb1260 2.660 . S
N1291 C1292 1.305 . S
N1291 C1296 1.360 . S
C1292 H1284 0.930 . S
C1292 N1291 1.305 . S
C1292 C1295 1.407 . S
C1293 H1287 0.930 . S
C1293 C1294 1.410 . S
C1293 C1295 1.345 . S
C1294 C1293 1.410 . S
C1294 C1296 1.417 . S
C1294 C1326 1.432 . S
C1295 H1281 0.930 . S
C1295 C1292 1.407 . S
C1295 C1293 1.345 . S
C1296 N1291 1.360 . S
C1296 C1294 1.417 . S
C1296 C1300 1.432 . S
H1297 C1302 0.930 . S
N1298 Tb1260 2.600 . S
N1298 C1300 1.359 . S
N1298 C1301 1.327 . S
C1299 H1285 0.931 . S
C1299 C1301 1.392 . S
C1299 C1302 1.370 . S
C1300 C1296 1.432 . S
C1300 N1298 1.359 . S
C1300 C1303 1.414 . S
C1301 H1283 0.930 . S
C1301 N1298 1.327 . S
C1301 C1299 1.392 . S
C1302 H1297 0.930 . S
C1302 C1299 1.370 . S
C1302 C1303 1.385 . S
C1303 C1300 1.414 . S
C1303 C1302 1.385 . S
C1303 C1325 1.444 . S
O1304 Tb1260 2.546 . S
O1304 C1324 1.251 . S
O1305 Tb1260 2.610 . S
O1305 Tb1271 2.362 . S
O1305 C1316 1.283 . S
O1306 Tb1271 2.421 . S
O1306 C1323 1.262 . S
O1307 Tb1260 2.320 . S
O1307 C1323 1.260 . S
O1308 Tb1260 2.552 . S
O1308 C1316 1.243 . S
O1309 Tb1260 2.413 . S
O1309 C1324 1.256 . S
O1310 Tb1271 2.547 1_455 S
O1310 C1335 1.246 . S
O1311 Tb1260 2.362 . S
O1311 Tb1271 2.610 . S
O1311 C1327 1.283 . S
O1312 Tb1260 2.421 . S
O1312 C1334 1.262 . S
O1313 Tb1271 2.321 . S
O1313 C1334 1.261 . S
O1314 Tb1271 2.552 . S
O1314 C1327 1.243 . S
O1315 Tb1271 2.413 1_455 S
O1315 C1335 1.256 . S
C1316 O1305 1.283 . S
C1316 O1308 1.243 . S
C1317 C1319 1.382 . S
C1317 C1321 1.393 . S
C1317 C1324 1.500 . S
C1318 C1319 1.400 . S
C1318 C1320 1.384 . S
C1319 C1317 1.382 . S
C1319 C1318 1.400 . S
C1319 H1336 0.930 . S
C1320 C1318 1.384 . S
C1320 C1322 1.392 . S
C1320 H1337 0.931 . S
C1321 C1317 1.393 . S
C1321 C1322 1.401 . S
C1321 H1338 0.930 . S
C1322 C1320 1.392 . S
C1322 C1321 1.401 . S
C1322 H1339 0.930 . S
C1323 O1306 1.262 . S
C1323 O1307 1.260 . S
C1324 Tb1260 2.833 . S
C1324 O1304 1.251 . S
C1324 O1309 1.256 . S
C1324 C1317 1.500 . S
C1325 H1290 0.929 . S
C1325 C1303 1.444 . S
C1325 C1326 1.317 . S
C1326 H1288 0.930 . S
C1326 C1294 1.432 . S
C1326 C1325 1.317 . S
C1327 O1311 1.283 . S
C1327 O1314 1.243 . S
C1328 C1329 1.382 . S
C1328 C1332 1.393 . S
C1328 C1335 1.500 . S
C1329 C1328 1.382 . S
C1329 C1330 1.400 . S
C1329 H1340 0.930 . S
C1330 C1329 1.400 . S
C1330 C1331 1.384 . S
C1331 C1330 1.384 . S
C1331 C1333 1.392 . S
C1331 H1341 0.931 . S
C1332 C1328 1.393 . S
C1332 C1333 1.401 . S
C1332 H1342 0.930 . S
C1333 C1331 1.392 . S
C1333 C1332 1.401 . S
C1333 H1343 0.930 . S
C1334 O1312 1.262 . S
C1334 O1313 1.261 . S
C1335 Tb1271 2.833 1_455 S
C1335 O1310 1.246 . S
C1335 O1315 1.256 . S
C1335 C1328 1.500 . S
H1336 C1319 0.930 . S
H1337 C1320 0.931 . S
H1338 C1321 0.930 . S
H1339 C1322 0.930 . S
H1340 C1329 0.930 . S
H1341 C1331 0.931 . S
H1342 C1332 0.930 . S
H1343 C1333 0.930 . S
Tb1344 N1375 2.660 . S
Tb1344 N1382 2.600 . S
Tb1344 O1388 2.546 . S
Tb1344 O1389 2.610 . S
Tb1344 O1391 2.320 . S
Tb1344 O1392 2.552 . S
Tb1344 O1393 2.413 . S
Tb1344 O1395 2.362 . S
Tb1344 O1396 2.421 . S
Tb1344 C1408 2.833 . S
C1345 C1348 1.432 . S
C1345 C1349 1.414 . S
C1345 N1352 1.359 . S
C1346 C1348 1.417 . S
C1346 C1350 1.432 . S
C1346 C1358 1.410 . S
C1347 C1349 1.444 . S
C1347 C1350 1.317 . S
C1347 H1370 0.929 . S
C1348 C1345 1.432 . S
C1348 C1346 1.417 . S
C1348 N1356 1.360 . S
C1349 C1345 1.414 . S
C1349 C1347 1.444 . S
C1349 C1354 1.385 . S
C1350 C1346 1.432 . S
C1350 C1347 1.317 . S
C1350 H1362 0.930 . S
C1351 C1353 1.392 . S
C1351 C1354 1.370 . S
C1351 H1363 0.931 . S
N1352 C1345 1.359 . S
N1352 C1353 1.327 . S
N1352 Tb1355 2.600 . S
C1353 C1351 1.392 . S
C1353 N1352 1.327 . S
C1353 H1360 0.930 . S
C1354 C1349 1.385 . S
C1354 C1351 1.370 . S
C1354 H1373 0.930 . S
Tb1355 N1352 2.600 . S
Tb1355 N1356 2.660 . S
Tb1355 O1389 2.362 . S
Tb1355 O1390 2.421 . S
Tb1355 O1394 2.546 . S
Tb1355 O1395 2.610 . S
Tb1355 O1397 2.320 . S
Tb1355 O1398 2.552 . S
Tb1355 O1399 2.413 . S
Tb1355 C1419 2.833 . S
N1356 C1348 1.360 . S
N1356 Tb1355 2.660 . S
N1356 C1357 1.305 . S
C1357 N1356 1.305 . S
C1357 C1359 1.407 . S
C1357 H1364 0.930 . S
C1358 C1346 1.410 . S
C1358 C1359 1.345 . S
C1358 H1366 0.930 . S
C1359 C1357 1.407 . S
C1359 C1358 1.345 . S
C1359 H1361 0.930 . S
H1360 C1353 0.930 . S
H1361 C1359 0.930 . S
H1362 C1350 0.930 . S
H1363 C1351 0.931 . S
H1364 C1357 0.930 . S
H1365 C1379 0.930 . S
H1366 C1358 0.930 . S
H1367 C1385 0.930 . S
H1368 C1376 0.930 . S
H1369 C1383 0.931 . S
H1370 C1347 0.929 . S
H1371 C1377 0.930 . S
H1372 C1410 0.930 . S
H1373 C1354 0.930 . S
H1374 C1409 0.929 . S
N1375 Tb1344 2.660 . S
N1375 C1376 1.305 . S
N1375 C1380 1.360 . S
C1376 H1368 0.930 . S
C1376 N1375 1.305 . S
C1376 C1379 1.407 . S
C1377 H1371 0.930 . S
C1377 C1378 1.410 . S
C1377 C1379 1.345 . S
C1378 C1377 1.410 . S
C1378 C1380 1.417 . S
C1378 C1410 1.432 . S
C1379 H1365 0.930 . S
C1379 C1376 1.407 . S
C1379 C1377 1.345 . S
C1380 N1375 1.360 . S
C1380 C1378 1.417 . S
C1380 C1384 1.432 . S
H1381 C1386 0.930 . S
N1382 Tb1344 2.600 . S
N1382 C1384 1.359 . S
N1382 C1385 1.327 . S
C1383 H1369 0.931 . S
C1383 C1385 1.392 . S
C1383 C1386 1.370 . S
C1384 C1380 1.432 . S
C1384 N1382 1.359 . S
C1384 C1387 1.414 . S
C1385 H1367 0.930 . S
C1385 N1382 1.327 . S
C1385 C1383 1.392 . S
C1386 H1381 0.930 . S
C1386 C1383 1.370 . S
C1386 C1387 1.385 . S
C1387 C1384 1.414 . S
C1387 C1386 1.385 . S
C1387 C1409 1.444 . S
O1388 Tb1344 2.546 . S
O1388 C1408 1.251 . S
O1389 Tb1344 2.610 . S
O1389 Tb1355 2.362 . S
O1389 C1400 1.283 . S
O1390 Tb1355 2.421 . S
O1390 C1407 1.262 . S
O1391 Tb1344 2.320 . S
O1391 C1407 1.260 . S
O1392 Tb1344 2.552 . S
O1392 C1400 1.243 . S
O1393 Tb1344 2.413 . S
O1393 C1408 1.256 . S
O1394 Tb1355 2.546 . S
O1394 C1419 1.251 . S
O1395 Tb1344 2.362 . S
O1395 Tb1355 2.610 . S
O1395 C1411 1.283 . S
O1396 Tb1344 2.421 . S
O1396 C1418 1.262 . S
O1397 Tb1355 2.320 . S
O1397 C1418 1.260 . S
O1398 Tb1355 2.552 . S
O1398 C1411 1.243 . S
O1399 Tb1355 2.413 . S
O1399 C1419 1.256 . S
C1400 O1389 1.283 . S
C1400 O1392 1.243 . S
C1401 C1403 1.382 . S
C1401 C1405 1.393 . S
C1401 C1408 1.500 . S
C1402 C1403 1.400 . S
C1402 C1404 1.384 . S
C1403 C1401 1.382 . S
C1403 C1402 1.400 . S
C1403 H1420 0.930 . S
C1404 C1402 1.384 . S
C1404 C1406 1.392 . S
C1404 H1421 0.931 . S
C1405 C1401 1.393 . S
C1405 C1406 1.401 . S
C1405 H1422 0.930 . S
C1406 C1404 1.392 . S
C1406 C1405 1.401 . S
C1406 H1423 0.930 . S
C1407 O1390 1.262 . S
C1407 O1391 1.260 . S
C1408 Tb1344 2.833 . S
C1408 O1388 1.251 . S
C1408 O1393 1.256 . S
C1408 C1401 1.500 . S
C1409 H1374 0.929 . S
C1409 C1387 1.444 . S
C1409 C1410 1.317 . S
C1410 H1372 0.930 . S
C1410 C1378 1.432 . S
C1410 C1409 1.317 . S
C1411 O1395 1.283 . S
C1411 O1398 1.243 . S
C1412 C1413 1.382 . S
C1412 C1416 1.393 . S
C1412 C1419 1.500 . S
C1413 C1412 1.382 . S
C1413 C1414 1.400 . S
C1413 H1424 0.930 . S
C1414 C1413 1.400 . S
C1414 C1415 1.384 . S
C1415 C1414 1.384 . S
C1415 C1417 1.392 . S
C1415 H1425 0.931 . S
C1416 C1412 1.393 . S
C1416 C1417 1.401 . S
C1416 H1426 0.930 . S
C1417 C1415 1.392 . S
C1417 C1416 1.401 . S
C1417 H1427 0.930 . S
C1418 O1396 1.262 . S
C1418 O1397 1.260 . S
C1419 Tb1355 2.833 . S
C1419 O1394 1.251 . S
C1419 O1399 1.256 . S
C1419 C1412 1.500 . S
H1420 C1403 0.930 . S
H1421 C1404 0.931 . S
H1422 C1405 0.930 . S
H1423 C1406 0.930 . S
H1424 C1413 0.930 . S
H1425 C1415 0.931 . S
H1426 C1416 0.930 . S
H1427 C1417 0.930 . S
Tb1428 N1459 2.660 . S
Tb1428 N1466 2.600 . S
Tb1428 O1472 2.546 . S
Tb1428 O1473 2.610 . S
Tb1428 O1475 2.320 . S
Tb1428 O1476 2.552 . S
Tb1428 O1477 2.413 . S
Tb1428 O1479 2.362 . S
Tb1428 O1480 2.421 . S
Tb1428 C1492 2.833 . S
C1429 C1432 1.432 . S
C1429 C1433 1.414 . S
C1429 N1436 1.359 . S
C1430 C1432 1.417 . S
C1430 C1434 1.432 . S
C1430 C1442 1.410 . S
C1431 C1433 1.444 . S
C1431 C1434 1.317 . S
C1431 H1454 0.929 . S
C1432 C1429 1.432 . S
C1432 C1430 1.417 . S
C1432 N1440 1.360 . S
C1433 C1429 1.414 . S
C1433 C1431 1.444 . S
C1433 C1438 1.385 . S
C1434 C1430 1.432 . S
C1434 C1431 1.317 . S
C1434 H1446 0.930 . S
C1435 C1437 1.392 . S
C1435 C1438 1.370 . S
C1435 H1447 0.931 . S
N1436 C1429 1.359 . S
N1436 C1437 1.327 . S
N1436 Tb1439 2.600 . S
C1437 C1435 1.392 . S
C1437 N1436 1.327 . S
C1437 H1444 0.930 . S
C1438 C1433 1.385 . S
C1438 C1435 1.370 . S
C1438 H1457 0.930 . S
Tb1439 N1436 2.600 . S
Tb1439 N1440 2.660 . S
Tb1439 O1473 2.362 . S
Tb1439 O1474 2.421 . S
Tb1439 O1478 2.546 . S
Tb1439 O1479 2.610 . S
Tb1439 O1481 2.320 . S
Tb1439 O1482 2.552 . S
Tb1439 O1483 2.413 . S
Tb1439 C1503 2.833 . S
N1440 C1432 1.360 . S
N1440 Tb1439 2.660 . S
N1440 C1441 1.305 . S
C1441 N1440 1.305 . S
C1441 C1443 1.407 . S
C1441 H1448 0.930 . S
C1442 C1430 1.410 . S
C1442 C1443 1.345 . S
C1442 H1450 0.930 . S
C1443 C1441 1.407 . S
C1443 C1442 1.345 . S
C1443 H1445 0.930 . S
H1444 C1437 0.930 . S
H1445 C1443 0.930 . S
H1446 C1434 0.930 . S
H1447 C1435 0.931 . S
H1448 C1441 0.930 . S
H1449 C1463 0.930 . S
H1450 C1442 0.930 . S
H1451 C1469 0.930 . S
H1452 C1460 0.930 . S
H1453 C1467 0.931 . S
H1454 C1431 0.929 . S
H1455 C1461 0.930 . S
H1456 C1494 0.930 . S
H1457 C1438 0.930 . S
H1458 C1493 0.929 . S
N1459 Tb1428 2.660 . S
N1459 C1460 1.305 . S
N1459 C1464 1.360 . S
C1460 H1452 0.930 . S
C1460 N1459 1.305 . S
C1460 C1463 1.407 . S
C1461 H1455 0.930 . S
C1461 C1462 1.410 . S
C1461 C1463 1.345 . S
C1462 C1461 1.410 . S
C1462 C1464 1.417 . S
C1462 C1494 1.432 . S
C1463 H1449 0.930 . S
C1463 C1460 1.407 . S
C1463 C1461 1.345 . S
C1464 N1459 1.360 . S
C1464 C1462 1.417 . S
C1464 C1468 1.432 . S
H1465 C1470 0.930 . S
N1466 Tb1428 2.600 . S
N1466 C1468 1.359 . S
N1466 C1469 1.327 . S
C1467 H1453 0.931 . S
C1467 C1469 1.392 . S
C1467 C1470 1.370 . S
C1468 C1464 1.432 . S
C1468 N1466 1.359 . S
C1468 C1471 1.414 . S
C1469 H1451 0.930 . S
C1469 N1466 1.327 . S
C1469 C1467 1.392 . S
C1470 H1465 0.930 . S
C1470 C1467 1.370 . S
C1470 C1471 1.385 . S
C1471 C1468 1.414 . S
C1471 C1470 1.385 . S
C1471 C1493 1.444 . S
O1472 Tb1428 2.546 . S
O1472 C1492 1.251 . S
O1473 Tb1428 2.610 . S
O1473 Tb1439 2.362 . S
O1473 C1484 1.283 . S
O1474 Tb1439 2.421 . S
O1474 C1491 1.262 . S
O1475 Tb1428 2.320 . S
O1475 C1491 1.260 . S
O1476 Tb1428 2.552 . S
O1476 C1484 1.243 . S
O1477 Tb1428 2.413 . S
O1477 C1492 1.256 . S
O1478 Tb1439 2.546 . S
O1478 C1503 1.251 . S
O1479 Tb1428 2.362 . S
O1479 Tb1439 2.610 . S
O1479 C1495 1.283 . S
O1480 Tb1428 2.421 . S
O1480 C1502 1.262 . S
O1481 Tb1439 2.320 . S
O1481 C1502 1.260 . S
O1482 Tb1439 2.552 . S
O1482 C1495 1.243 . S
O1483 Tb1439 2.413 . S
O1483 C1503 1.256 . S
C1484 O1473 1.283 . S
C1484 O1476 1.243 . S
C1485 C1487 1.382 . S
C1485 C1489 1.393 . S
C1485 C1492 1.500 . S
C1486 C1487 1.400 . S
C1486 C1488 1.384 . S
C1487 C1485 1.382 . S
C1487 C1486 1.400 . S
C1487 H1504 0.930 . S
C1488 C1486 1.384 . S
C1488 C1490 1.392 . S
C1488 H1505 0.931 . S
C1489 C1485 1.393 . S
C1489 C1490 1.401 . S
C1489 H1506 0.930 . S
C1490 C1488 1.392 . S
C1490 C1489 1.401 . S
C1490 H1507 0.930 . S
C1491 O1474 1.262 . S
C1491 O1475 1.260 . S
C1492 Tb1428 2.833 . S
C1492 O1472 1.251 . S
C1492 O1477 1.256 . S
C1492 C1485 1.500 . S
C1493 H1458 0.929 . S
C1493 C1471 1.444 . S
C1493 C1494 1.317 . S
C1494 H1456 0.930 . S
C1494 C1462 1.432 . S
C1494 C1493 1.317 . S
C1495 O1479 1.283 . S
C1495 O1482 1.243 . S
C1496 C1497 1.382 . S
C1496 C1500 1.393 . S
C1496 C1503 1.500 . S
C1497 C1496 1.382 . S
C1497 C1498 1.400 . S
C1497 H1508 0.930 . S
C1498 C1497 1.400 . S
C1498 C1499 1.384 . S
C1499 C1498 1.384 . S
C1499 C1501 1.392 . S
C1499 H1509 0.931 . S
C1500 C1496 1.393 . S
C1500 C1501 1.401 . S
C1500 H1510 0.930 . S
C1501 C1499 1.392 . S
C1501 C1500 1.401 . S
C1501 H1511 0.930 . S
C1502 O1480 1.262 . S
C1502 O1481 1.260 . S
C1503 Tb1439 2.833 . S
C1503 O1478 1.251 . S
C1503 O1483 1.256 . S
C1503 C1496 1.500 . S
H1504 C1487 0.930 . S
H1505 C1488 0.931 . S
H1506 C1489 0.930 . S
H1507 C1490 0.930 . S
H1508 C1497 0.930 . S
H1509 C1499 0.931 . S
H1510 C1500 0.930 . S
H1511 C1501 0.930 . S
Tb1512 N1543 2.660 . S
Tb1512 N1550 2.600 1_556 S
Tb1512 O1556 2.546 1_556 S
Tb1512 O1557 2.610 . S
Tb1512 O1559 2.320 . S
Tb1512 O1560 2.552 1_556 S
Tb1512 O1561 2.413 1_556 S
Tb1512 O1563 2.362 . S
Tb1512 O1564 2.426 . S
Tb1512 C1576 2.833 1_556 S
C1513 C1516 1.432 . S
C1513 C1517 1.414 . S
C1513 N1520 1.359 . S
C1514 C1516 1.417 . S
C1514 C1518 1.432 . S
C1514 C1526 1.410 . S
C1515 C1517 1.444 . S
C1515 C1518 1.317 . S
C1515 H1538 0.929 . S
C1516 C1513 1.432 . S
C1516 C1514 1.417 . S
C1516 N1524 1.360 . S
C1517 C1513 1.414 . S
C1517 C1515 1.444 . S
C1517 C1522 1.385 . S
C1518 C1514 1.432 . S
C1518 C1515 1.317 . S
C1518 H1530 0.930 . S
C1519 C1521 1.392 . S
C1519 C1522 1.370 . S
C1519 H1531 0.931 . S
N1520 C1513 1.359 . S
N1520 C1521 1.327 . S
N1520 Tb1523 2.600 . S
C1521 C1519 1.392 . S
C1521 N1520 1.327 . S
C1521 H1528 0.930 . S
C1522 C1517 1.385 . S
C1522 C1519 1.370 . S
C1522 H1541 0.930 . S
Tb1523 N1520 2.600 . S
Tb1523 N1524 2.660 . S
Tb1523 O1557 2.362 . S
Tb1523 O1558 2.421 . S
Tb1523 O1562 2.546 . S
Tb1523 O1563 2.610 . S
Tb1523 O1565 2.320 . S
Tb1523 O1566 2.552 . S
Tb1523 O1567 2.413 . S
Tb1523 C1587 2.833 . S
N1524 C1516 1.360 . S
N1524 Tb1523 2.660 . S
N1524 C1525 1.305 . S
C1525 N1524 1.305 . S
C1525 C1527 1.407 . S
C1525 H1532 0.930 . S
C1526 C1514 1.410 . S
C1526 C1527 1.345 . S
C1526 H1534 0.930 . S
C1527 C1525 1.407 . S
C1527 C1526 1.345 . S
C1527 H1529 0.930 1_556 S
H1528 C1521 0.930 . S
H1529 C1527 0.930 1_554 S
H1530 C1518 0.930 . S
H1531 C1519 0.931 . S
H1532 C1525 0.930 . S
H1533 C1547 0.930 . S
H1534 C1526 0.930 . S
H1535 C1553 0.930 . S
H1536 C1544 0.930 . S
H1537 C1551 0.931 . S
H1538 C1515 0.929 . S
H1539 C1545 0.930 . S
H1540 C1578 0.930 . S
H1541 C1522 0.930 . S
H1542 C1577 0.929 . S
N1543 Tb1512 2.660 . S
N1543 C1544 1.305 . S
N1543 C1548 1.360 . S
C1544 H1536 0.930 . S
C1544 N1543 1.305 . S
C1544 C1547 1.407 . S
C1545 H1539 0.930 . S
C1545 C1546 1.410 . S
C1545 C1547 1.345 . S
C1546 C1545 1.410 . S
C1546 C1548 1.417 . S
C1546 C1578 1.432 . S
C1547 H1533 0.930 . S
C1547 C1544 1.407 . S
C1547 C1545 1.345 . S
C1548 N1543 1.360 . S
C1548 C1546 1.417 . S
C1548 C1552 1.432 . S
H1549 C1554 0.930 . S
N1550 Tb1512 2.600 1_554 S
N1550 C1552 1.359 1_554 S
N1550 C1553 1.327 . S
C1551 H1537 0.931 . S
C1551 C1553 1.392 . S
C1551 C1554 1.370 . S
C1552 C1548 1.432 . S
C1552 N1550 1.359 1_556 S
C1552 C1555 1.414 1_556 S
C1553 H1535 0.930 . S
C1553 N1550 1.327 . S
C1553 C1551 1.392 . S
C1554 H1549 0.930 . S
C1554 C1551 1.370 . S
C1554 C1555 1.385 . S
C1555 C1552 1.414 1_554 S
C1555 C1554 1.385 . S
C1555 C1577 1.444 1_554 S
O1556 Tb1512 2.546 1_554 S
O1556 C1576 1.251 . S
O1557 Tb1512 2.610 . S
O1557 Tb1523 2.362 . S
O1557 C1568 1.283 . S
O1558 Tb1523 2.421 . S
O1558 C1575 1.262 . S
O1559 Tb1512 2.320 . S
O1559 C1575 1.260 . S
O1560 Tb1512 2.552 1_554 S
O1560 C1568 1.243 1_554 S
O1561 Tb1512 2.413 1_554 S
O1561 C1576 1.256 . S
O1562 Tb1523 2.546 . S
O1562 C1587 1.251 . S
O1563 Tb1512 2.362 . S
O1563 Tb1523 2.610 . S
O1563 C1579 1.283 . S
O1564 Tb1512 2.426 . S
O1564 C1586 1.281 . S
O1565 Tb1523 2.320 . S
O1565 C1586 1.260 . S
O1566 Tb1523 2.552 . S
O1566 C1579 1.243 . S
O1567 Tb1523 2.413 . S
O1567 C1587 1.256 . S
C1568 O1557 1.283 . S
C1568 O1560 1.243 1_556 S
C1569 C1571 1.382 . S
C1569 C1573 1.393 . S
C1569 C1576 1.500 . S
C1570 C1571 1.400 . S
C1570 C1572 1.384 . S
C1571 C1569 1.382 . S
C1571 C1570 1.400 . S
C1571 H1588 0.930 . S
C1572 C1570 1.384 . S
C1572 C1574 1.392 . S
C1572 H1589 0.931 . S
C1573 C1569 1.393 . S
C1573 C1574 1.401 . S
C1573 H1590 0.930 . S
C1574 C1572 1.392 . S
C1574 C1573 1.401 . S
C1574 H1591 0.930 . S
C1575 O1558 1.262 . S
C1575 O1559 1.260 . S
C1576 Tb1512 2.833 1_554 S
C1576 O1556 1.251 . S
C1576 O1561 1.256 . S
C1576 C1569 1.500 . S
C1577 H1542 0.929 . S
C1577 C1555 1.444 1_556 S
C1577 C1578 1.317 . S
C1578 H1540 0.930 . S
C1578 C1546 1.432 . S
C1578 C1577 1.317 . S
C1579 O1563 1.283 . S
C1579 O1566 1.243 . S
C1580 C1581 1.382 . S
C1580 C1584 1.393 . S
C1580 C1587 1.500 . S
C1581 C1580 1.382 . S
C1581 C1582 1.400 . S
C1581 H1592 0.930 . S
C1582 C1581 1.400 . S
C1582 C1583 1.384 . S
C1583 C1582 1.384 . S
C1583 C1585 1.392 . S
C1583 H1593 0.931 . S
C1584 C1580 1.393 . S
C1584 C1585 1.401 . S
C1584 H1594 0.930 . S
C1585 C1583 1.392 . S
C1585 C1584 1.401 . S
C1585 H1595 0.930 . S
C1586 O1564 1.281 . S
C1586 O1565 1.260 . S
C1587 Tb1523 2.833 . S
C1587 O1562 1.251 . S
C1587 O1567 1.256 . S
C1587 C1580 1.500 . S
H1588 C1571 0.930 . S
H1589 C1572 0.931 . S
H1590 C1573 0.930 . S
H1591 C1574 0.930 . S
H1592 C1581 0.930 . S
H1593 C1583 0.931 . S
H1594 C1584 0.930 . S
H1595 C1585 0.930 . S
Tb1596 N1627 2.660 . S
Tb1596 N1634 2.600 . S
Tb1596 O1640 2.546 . S
Tb1596 O1641 2.610 . S
Tb1596 O1643 2.320 . S
Tb1596 O1644 2.552 . S
Tb1596 O1645 2.413 . S
Tb1596 O1647 2.362 . S
Tb1596 O1648 2.421 . S
Tb1596 C1660 2.833 . S
C1597 C1600 1.432 . S
C1597 C1601 1.414 . S
C1597 N1604 1.359 . S
C1598 C1600 1.417 . S
C1598 C1602 1.432 . S
C1598 C1610 1.410 . S
C1599 C1601 1.444 . S
C1599 C1602 1.317 . S
C1599 H1622 0.929 . S
C1600 C1597 1.432 . S
C1600 C1598 1.417 . S
C1600 N1608 1.360 . S
C1601 C1597 1.414 . S
C1601 C1599 1.444 . S
C1601 C1606 1.385 . S
C1602 C1598 1.432 . S
C1602 C1599 1.317 . S
C1602 H1614 0.930 . S
C1603 C1605 1.392 1_455 S
C1603 C1606 1.370 . S
C1603 H1615 0.931 1_455 S
N1604 C1597 1.359 . S
N1604 C1605 1.327 1_455 S
N1604 Tb1607 2.600 1_455 S
C1605 C1603 1.392 1_655 S
C1605 N1604 1.327 1_655 S
C1605 H1612 0.930 . S
C1606 C1601 1.385 . S
C1606 C1603 1.370 . S
C1606 H1625 0.930 . S
Tb1607 N1604 2.600 1_655 S
Tb1607 N1608 2.660 1_655 S
Tb1607 O1641 2.362 . S
Tb1607 O1642 2.421 . S
Tb1607 O1646 2.546 1_655 S
Tb1607 O1647 2.610 . S
Tb1607 O1649 2.320 1_655 S
Tb1607 O1650 2.552 . S
Tb1607 O1651 2.413 1_655 S
Tb1607 C1671 2.833 1_655 S
N1608 C1600 1.360 . S
N1608 Tb1607 2.660 1_455 S
N1608 C1609 1.305 . S
C1609 N1608 1.305 . S
C1609 C1611 1.407 . S
C1609 H1616 0.930 . S
C1610 C1598 1.410 . S
C1610 C1611 1.345 . S
C1610 H1618 0.930 . S
C1611 C1609 1.407 . S
C1611 C1610 1.345 . S
C1611 H1613 0.930 . S
H1612 C1605 0.930 . S
H1613 C1611 0.930 . S
H1614 C1602 0.930 . S
H1615 C1603 0.931 1_655 S
H1616 C1609 0.930 . S
H1617 C1631 0.930 . S
H1618 C1610 0.930 . S
H1619 C1637 0.930 . S
H1620 C1628 0.930 . S
H1621 C1635 0.931 . S
H1622 C1599 0.929 . S
H1623 C1629 0.930 . S
H1624 C1662 0.930 . S
H1625 C1606 0.930 . S
H1626 C1661 0.929 . S
N1627 Tb1596 2.660 . S
N1627 C1628 1.305 . S
N1627 C1632 1.360 . S
C1628 H1620 0.930 . S
C1628 N1627 1.305 . S
C1628 C1631 1.407 . S
C1629 H1623 0.930 . S
C1629 C1630 1.410 . S
C1629 C1631 1.345 . S
C1630 C1629 1.410 . S
C1630 C1632 1.417 . S
C1630 C1662 1.432 . S
C1631 H1617 0.930 . S
C1631 C1628 1.407 . S
C1631 C1629 1.345 . S
C1632 N1627 1.360 . S
C1632 C1630 1.417 . S
C1632 C1636 1.432 . S
H1633 C1638 0.930 . S
N1634 Tb1596 2.600 . S
N1634 C1636 1.359 . S
N1634 C1637 1.327 . S
C1635 H1621 0.931 . S
C1635 C1637 1.392 . S
C1635 C1638 1.370 . S
C1636 C1632 1.432 . S
C1636 N1634 1.359 . S
C1636 C1639 1.414 . S
C1637 H1619 0.930 . S
C1637 N1634 1.327 . S
C1637 C1635 1.392 . S
C1638 H1633 0.930 . S
C1638 C1635 1.370 . S
C1638 C1639 1.385 . S
C1639 C1636 1.414 . S
C1639 C1638 1.385 . S
C1639 C1661 1.444 . S
O1640 Tb1596 2.546 . S
O1640 C1660 1.251 . S
O1641 Tb1596 2.610 . S
O1641 Tb1607 2.362 . S
O1641 C1652 1.283 . S
O1642 Tb1607 2.421 . S
O1642 C1659 1.262 . S
O1643 Tb1596 2.320 . S
O1643 C1659 1.260 . S
O1644 Tb1596 2.552 . S
O1644 C1652 1.243 . S
O1645 Tb1596 2.413 . S
O1645 C1660 1.256 . S
O1646 Tb1607 2.546 1_455 S
O1646 C1671 1.251 . S
O1647 Tb1596 2.362 . S
O1647 Tb1607 2.610 . S
O1647 C1663 1.283 . S
O1648 Tb1596 2.421 . S
O1648 C1670 1.262 . S
O1649 Tb1607 2.320 1_455 S
O1649 C1670 1.260 1_455 S
O1650 Tb1607 2.552 . S
O1650 C1663 1.243 . S
O1651 Tb1607 2.413 1_455 S
O1651 C1671 1.256 . S
C1652 O1641 1.283 . S
C1652 O1644 1.243 . S
C1653 C1655 1.382 . S
C1653 C1657 1.393 . S
C1653 C1660 1.500 . S
C1654 C1655 1.400 . S
C1654 C1656 1.384 . S
C1655 C1653 1.382 . S
C1655 C1654 1.400 . S
C1655 H1672 0.930 . S
C1656 C1654 1.384 . S
C1656 C1658 1.392 . S
C1656 H1673 0.931 . S
C1657 C1653 1.393 . S
C1657 C1658 1.401 . S
C1657 H1674 0.930 . S
C1658 C1656 1.392 . S
C1658 C1657 1.401 . S
C1658 H1675 0.930 . S
C1659 O1642 1.262 . S
C1659 O1643 1.260 . S
C1660 Tb1596 2.833 . S
C1660 O1640 1.251 . S
C1660 O1645 1.256 . S
C1660 C1653 1.500 . S
C1661 H1626 0.929 . S
C1661 C1639 1.444 . S
C1661 C1662 1.317 . S
C1662 H1624 0.930 . S
C1662 C1630 1.432 . S
C1662 C1661 1.317 . S
C1663 O1647 1.283 . S
C1663 O1650 1.243 . S
C1664 C1665 1.382 . S
C1664 C1668 1.393 . S
C1664 C1671 1.500 . S
C1665 C1664 1.382 . S
C1665 C1666 1.400 . S
C1665 H1676 0.930 . S
C1666 C1665 1.400 . S
C1666 C1667 1.384 . S
C1667 C1666 1.384 . S
C1667 C1669 1.392 . S
C1667 H1677 0.931 . S
C1668 C1664 1.393 . S
C1668 C1669 1.401 . S
C1668 H1678 0.930 . S
C1669 C1667 1.392 . S
C1669 C1668 1.401 . S
C1669 H1679 0.930 . S
C1670 O1648 1.262 . S
C1670 O1649 1.260 1_655 S
C1671 Tb1607 2.833 1_455 S
C1671 O1646 1.251 . S
C1671 O1651 1.256 . S
C1671 C1664 1.500 . S
H1672 C1655 0.930 . S
H1673 C1656 0.931 . S
H1674 C1657 0.930 . S
H1675 C1658 0.930 . S
H1676 C1665 0.930 . S
H1677 C1667 0.931 . S
H1678 C1668 0.930 . S
H1679 C1669 0.930 . S
Tb1680 N1711 2.660 . S
Tb1680 N1718 2.600 . S
Tb1680 O1724 2.546 . S
Tb1680 O1725 2.610 . S
Tb1680 O1727 2.320 . S
Tb1680 O1728 2.552 . S
Tb1680 O1729 2.413 . S
Tb1680 O1731 2.362 . S
Tb1680 O1732 2.421 . S
Tb1680 C1744 2.833 . S
C1681 C1684 1.432 . S
C1681 C1685 1.414 . S
C1681 N1688 1.359 . S
C1682 C1684 1.417 . S
C1682 C1686 1.432 . S
C1682 C1694 1.410 . S
C1683 C1685 1.444 . S
C1683 C1686 1.317 . S
C1683 H1706 0.929 . S
C1684 C1681 1.432 . S
C1684 C1682 1.417 . S
C1684 N1692 1.360 . S
C1685 C1681 1.414 . S
C1685 C1683 1.444 . S
C1685 C1690 1.385 . S
C1686 C1682 1.432 . S
C1686 C1683 1.317 . S
C1686 H1698 0.930 . S
C1687 C1689 1.392 . S
C1687 C1690 1.370 . S
C1687 H1699 0.931 . S
N1688 C1681 1.359 . S
N1688 C1689 1.327 . S
N1688 Tb1691 2.600 . S
C1689 C1687 1.392 . S
C1689 N1688 1.327 . S
C1689 H1696 0.930 . S
C1690 C1685 1.385 . S
C1690 C1687 1.370 . S
C1690 H1709 0.930 . S
Tb1691 N1688 2.600 . S
Tb1691 N1692 2.660 . S
Tb1691 O1725 2.362 . S
Tb1691 O1726 2.421 . S
Tb1691 O1730 2.546 . S
Tb1691 O1731 2.610 . S
Tb1691 O1733 2.320 . S
Tb1691 O1734 2.552 . S
Tb1691 O1735 2.413 . S
Tb1691 C1755 2.833 . S
N1692 C1684 1.360 . S
N1692 Tb1691 2.660 . S
N1692 C1693 1.305 . S
C1693 N1692 1.305 . S
C1693 C1695 1.407 . S
C1693 H1700 0.930 . S
C1694 C1682 1.410 . S
C1694 C1695 1.345 . S
C1694 H1702 0.930 . S
C1695 C1693 1.407 . S
C1695 C1694 1.345 . S
C1695 H1697 0.930 . S
H1696 C1689 0.930 . S
H1697 C1695 0.930 . S
H1698 C1686 0.930 . S
H1699 C1687 0.931 . S
H1700 C1693 0.930 . S
H1701 C1715 0.930 . S
H1702 C1694 0.930 . S
H1703 C1721 0.930 . S
H1704 C1712 0.930 . S
H1705 C1719 0.931 . S
H1706 C1683 0.929 . S
H1707 C1713 0.930 . S
H1708 C1746 0.930 . S
H1709 C1690 0.930 . S
H1710 C1745 0.929 . S
N1711 Tb1680 2.660 . S
N1711 C1712 1.305 . S
N1711 C1716 1.360 . S
C1712 H1704 0.930 . S
C1712 N1711 1.305 . S
C1712 C1715 1.407 . S
C1713 H1707 0.930 . S
C1713 C1714 1.410 . S
C1713 C1715 1.345 . S
C1714 C1713 1.410 . S
C1714 C1716 1.417 . S
C1714 C1746 1.432 . S
C1715 H1701 0.930 . S
C1715 C1712 1.407 . S
C1715 C1713 1.345 . S
C1716 N1711 1.360 . S
C1716 C1714 1.417 . S
C1716 C1720 1.432 . S
H1717 C1722 0.930 . S
N1718 Tb1680 2.600 . S
N1718 C1720 1.359 . S
N1718 C1721 1.327 . S
C1719 H1705 0.931 . S
C1719 C1721 1.392 . S
C1719 C1722 1.370 . S
C1720 C1716 1.432 . S
C1720 N1718 1.359 . S
C1720 C1723 1.414 . S
C1721 H1703 0.930 . S
C1721 N1718 1.327 . S
C1721 C1719 1.392 . S
C1722 H1717 0.930 . S
C1722 C1719 1.370 . S
C1722 C1723 1.385 . S
C1723 C1720 1.414 . S
C1723 C1722 1.385 . S
C1723 C1745 1.444 . S
O1724 Tb1680 2.546 . S
O1724 C1744 1.251 . S
O1725 Tb1680 2.610 . S
O1725 Tb1691 2.362 . S
O1725 C1736 1.283 . S
O1726 Tb1691 2.421 . S
O1726 C1743 1.262 . S
O1727 Tb1680 2.320 . S
O1727 C1743 1.260 . S
O1728 Tb1680 2.552 . S
O1728 C1736 1.243 . S
O1729 Tb1680 2.413 . S
O1729 C1744 1.256 . S
O1730 Tb1691 2.546 . S
O1730 C1755 1.251 . S
O1731 Tb1680 2.362 . S
O1731 Tb1691 2.610 . S
O1731 C1747 1.283 . S
O1732 Tb1680 2.421 . S
O1732 C1754 1.262 . S
O1733 Tb1691 2.320 . S
O1733 C1754 1.260 . S
O1734 Tb1691 2.552 . S
O1734 C1747 1.243 . S
O1735 Tb1691 2.413 . S
O1735 C1755 1.256 . S
C1736 O1725 1.283 . S
C1736 O1728 1.243 . S
C1737 C1739 1.382 . S
C1737 C1741 1.393 . S
C1737 C1744 1.500 . S
C1738 C1739 1.400 . S
C1738 C1740 1.384 . S
C1739 C1737 1.382 . S
C1739 C1738 1.400 . S
C1739 H1756 0.930 . S
C1740 C1738 1.384 . S
C1740 C1742 1.392 . S
C1740 H1757 0.931 . S
C1741 C1737 1.393 . S
C1741 C1742 1.401 . S
C1741 H1758 0.930 . S
C1742 C1740 1.392 . S
C1742 C1741 1.401 . S
C1742 H1759 0.930 . S
C1743 O1726 1.262 . S
C1743 O1727 1.260 . S
C1744 Tb1680 2.833 . S
C1744 O1724 1.251 . S
C1744 O1729 1.256 . S
C1744 C1737 1.500 . S
C1745 H1710 0.929 . S
C1745 C1723 1.444 . S
C1745 C1746 1.317 . S
C1746 H1708 0.930 . S
C1746 C1714 1.432 . S
C1746 C1745 1.317 . S
C1747 O1731 1.283 . S
C1747 O1734 1.243 . S
C1748 C1749 1.382 . S
C1748 C1752 1.393 . S
C1748 C1755 1.500 . S
C1749 C1748 1.382 . S
C1749 C1750 1.400 . S
C1749 H1760 0.930 . S
C1750 C1749 1.400 . S
C1750 C1751 1.384 . S
C1751 C1750 1.384 . S
C1751 C1753 1.392 . S
C1751 H1761 0.931 . S
C1752 C1748 1.393 . S
C1752 C1753 1.401 . S
C1752 H1762 0.930 . S
C1753 C1751 1.392 . S
C1753 C1752 1.401 . S
C1753 H1763 0.930 . S
C1754 O1732 1.262 . S
C1754 O1733 1.260 . S
C1755 Tb1691 2.833 . S
C1755 O1730 1.251 . S
C1755 O1735 1.256 . S
C1755 C1748 1.500 . S
H1756 C1739 0.930 . S
H1757 C1740 0.931 . S
H1758 C1741 0.930 . S
H1759 C1742 0.930 . S
H1760 C1749 0.930 . S
H1761 C1751 0.931 . S
H1762 C1752 0.930 . S
H1763 C1753 0.930 . S
Tb1764 N1795 2.660 . S
Tb1764 N1802 2.600 . S
Tb1764 O1808 2.546 . S
Tb1764 O1809 2.610 . S
Tb1764 O1811 2.320 . S
Tb1764 O1812 2.552 . S
Tb1764 O1813 2.413 . S
Tb1764 O1815 2.362 . S
Tb1764 O1816 2.421 . S
Tb1764 C1828 2.833 . S
C1765 C1768 1.432 . S
C1765 C1769 1.414 . S
C1765 N1772 1.359 . S
C1766 C1768 1.417 . S
C1766 C1770 1.432 . S
C1766 C1778 1.410 . S
C1767 C1769 1.444 . S
C1767 C1770 1.317 . S
C1767 H1790 0.929 . S
C1768 C1765 1.432 . S
C1768 C1766 1.417 . S
C1768 N1776 1.360 . S
C1769 C1765 1.414 . S
C1769 C1767 1.444 . S
C1769 C1774 1.385 . S
C1770 C1766 1.432 . S
C1770 C1767 1.317 . S
C1770 H1782 0.930 . S
C1771 C1773 1.392 . S
C1771 C1774 1.370 . S
C1771 H1783 0.931 . S
N1772 C1765 1.359 . S
N1772 C1773 1.327 . S
N1772 Tb1775 2.600 . S
C1773 C1771 1.392 . S
C1773 N1772 1.327 . S
C1773 H1780 0.930 . S
C1774 C1769 1.385 . S
C1774 C1771 1.370 . S
C1774 H1793 0.930 . S
Tb1775 N1772 2.600 . S
Tb1775 N1776 2.660 . S
Tb1775 O1809 2.362 . S
Tb1775 O1810 2.421 . S
Tb1775 O1814 2.546 . S
Tb1775 O1815 2.610 . S
Tb1775 O1817 2.320 . S
Tb1775 O1818 2.552 . S
Tb1775 O1819 2.413 . S
Tb1775 C1839 2.833 . S
N1776 C1768 1.360 . S
N1776 Tb1775 2.660 . S
N1776 C1777 1.305 . S
C1777 N1776 1.305 . S
C1777 C1779 1.407 . S
C1777 H1784 0.930 . S
C1778 C1766 1.410 . S
C1778 C1779 1.345 . S
C1778 H1786 0.930 . S
C1779 C1777 1.407 . S
C1779 C1778 1.345 . S
C1779 H1781 0.930 . S
H1780 C1773 0.930 . S
H1781 C1779 0.930 . S
H1782 C1770 0.930 . S
H1783 C1771 0.931 . S
H1784 C1777 0.930 . S
H1785 C1799 0.930 . S
H1786 C1778 0.930 . S
H1787 C1805 0.930 . S
H1788 C1796 0.930 . S
H1789 C1803 0.931 . S
H1790 C1767 0.929 . S
H1791 C1797 0.930 . S
H1792 C1830 0.930 . S
H1793 C1774 0.930 . S
H1794 C1829 0.929 . S
N1795 Tb1764 2.660 . S
N1795 C1796 1.305 . S
N1795 C1800 1.360 . S
C1796 H1788 0.930 . S
C1796 N1795 1.305 . S
C1796 C1799 1.407 . S
C1797 H1791 0.930 . S
C1797 C1798 1.410 . S
C1797 C1799 1.345 . S
C1798 C1797 1.410 . S
C1798 C1800 1.417 . S
C1798 C1830 1.432 . S
C1799 H1785 0.930 . S
C1799 C1796 1.407 . S
C1799 C1797 1.345 . S
C1800 N1795 1.360 . S
C1800 C1798 1.417 . S
C1800 C1804 1.432 . S
H1801 C1806 0.930 . S
N1802 Tb1764 2.600 . S
N1802 C1804 1.359 . S
N1802 C1805 1.327 . S
C1803 H1789 0.931 . S
C1803 C1805 1.392 . S
C1803 C1806 1.370 . S
C1804 C1800 1.432 . S
C1804 N1802 1.359 . S
C1804 C1807 1.414 . S
C1805 H1787 0.930 . S
C1805 N1802 1.327 . S
C1805 C1803 1.392 . S
C1806 H1801 0.930 . S
C1806 C1803 1.370 . S
C1806 C1807 1.385 . S
C1807 C1804 1.414 . S
C1807 C1806 1.385 . S
C1807 C1829 1.444 . S
O1808 Tb1764 2.546 . S
O1808 C1828 1.251 . S
O1809 Tb1764 2.610 . S
O1809 Tb1775 2.362 . S
O1809 C1820 1.283 . S
O1810 Tb1775 2.421 . S
O1810 C1827 1.262 . S
O1811 Tb1764 2.320 . S
O1811 C1827 1.260 . S
O1812 Tb1764 2.552 . S
O1812 C1820 1.243 . S
O1813 Tb1764 2.413 . S
O1813 C1828 1.256 . S
O1814 Tb1775 2.546 . S
O1814 C1839 1.251 . S
O1815 Tb1764 2.362 . S
O1815 Tb1775 2.610 . S
O1815 C1831 1.283 . S
O1816 Tb1764 2.421 . S
O1816 C1838 1.262 . S
O1817 Tb1775 2.320 . S
O1817 C1838 1.260 . S
O1818 Tb1775 2.552 . S
O1818 C1831 1.243 . S
O1819 Tb1775 2.413 . S
O1819 C1839 1.256 . S
C1820 O1809 1.283 . S
C1820 O1812 1.243 . S
C1821 C1823 1.382 . S
C1821 C1825 1.393 . S
C1821 C1828 1.500 . S
C1822 C1823 1.400 . S
C1822 C1824 1.384 . S
C1823 C1821 1.382 . S
C1823 C1822 1.400 . S
C1823 H1840 0.930 . S
C1824 C1822 1.384 . S
C1824 C1826 1.392 . S
C1824 H1841 0.931 . S
C1825 C1821 1.393 . S
C1825 C1826 1.401 . S
C1825 H1842 0.930 . S
C1826 C1824 1.392 . S
C1826 C1825 1.401 . S
C1826 H1843 0.930 . S
C1827 O1810 1.262 . S
C1827 O1811 1.260 . S
C1828 Tb1764 2.833 . S
C1828 O1808 1.251 . S
C1828 O1813 1.256 . S
C1828 C1821 1.500 . S
C1829 H1794 0.929 . S
C1829 C1807 1.444 . S
C1829 C1830 1.317 . S
C1830 H1792 0.930 . S
C1830 C1798 1.432 . S
C1830 C1829 1.317 . S
C1831 O1815 1.283 . S
C1831 O1818 1.243 . S
C1832 C1833 1.382 . S
C1832 C1836 1.393 . S
C1832 C1839 1.500 . S
C1833 C1832 1.382 . S
C1833 C1834 1.400 . S
C1833 H1844 0.930 . S
C1834 C1833 1.400 . S
C1834 C1835 1.384 . S
C1835 C1834 1.384 . S
C1835 C1837 1.392 . S
C1835 H1845 0.931 . S
C1836 C1832 1.393 . S
C1836 C1837 1.401 . S
C1836 H1846 0.930 . S
C1837 C1835 1.392 . S
C1837 C1836 1.401 . S
C1837 H1847 0.930 . S
C1838 O1816 1.262 . S
C1838 O1817 1.260 . S
C1839 Tb1775 2.833 . S
C1839 O1814 1.251 . S
C1839 O1819 1.256 . S
C1839 C1832 1.500 . S
H1840 C1823 0.930 . S
H1841 C1824 0.931 . S
H1842 C1825 0.930 . S
H1843 C1826 0.930 . S
H1844 C1833 0.930 . S
H1845 C1835 0.931 . S
H1846 C1836 0.930 . S
H1847 C1837 0.930 . S
Tb1848 N1879 2.660 . S
Tb1848 N1886 2.600 . S
Tb1848 O1892 2.546 . S
Tb1848 O1893 2.610 . S
Tb1848 O1895 2.320 . S
Tb1848 O1896 2.552 . S
Tb1848 O1897 2.413 . S
Tb1848 O1899 2.362 . S
Tb1848 O1900 2.421 . S
Tb1848 C1912 2.833 . S
C1849 C1852 1.432 . S
C1849 C1853 1.414 . S
C1849 N1856 1.359 . S
C1850 C1852 1.417 . S
C1850 C1854 1.432 . S
C1850 C1862 1.410 . S
C1851 C1853 1.444 . S
C1851 C1854 1.317 . S
C1851 H1874 0.929 . S
C1852 C1849 1.432 . S
C1852 C1850 1.417 . S
C1852 N1860 1.360 . S
C1853 C1849 1.414 . S
C1853 C1851 1.444 . S
C1853 C1858 1.385 . S
C1854 C1850 1.432 . S
C1854 C1851 1.317 . S
C1854 H1866 0.930 . S
C1855 C1857 1.373 1_556 S
C1855 C1858 1.419 . S
C1855 H1867 0.905 1_556 S
N1856 C1849 1.359 . S
N1856 C1857 1.327 1_556 S
N1856 Tb1859 2.600 1_556 S
C1857 C1855 1.373 1_554 S
C1857 N1856 1.327 1_554 S
C1857 H1864 0.930 . S
C1858 C1853 1.385 . S
C1858 C1855 1.419 . S
C1858 H1877 0.930 . S
Tb1859 N1856 2.600 1_554 S
Tb1859 N1860 2.660 1_554 S
Tb1859 O1893 2.362 . S
Tb1859 O1894 2.421 . S
Tb1859 O1898 2.546 1_554 S
Tb1859 O1899 2.610 . S
Tb1859 O1901 2.320 1_554 S
Tb1859 O1902 2.552 . S
Tb1859 O1903 2.413 1_554 S
Tb1859 C1923 2.833 1_554 S
N1860 C1852 1.360 . S
N1860 Tb1859 2.660 1_556 S
N1860 C1861 1.305 . S
C1861 N1860 1.305 . S
C1861 C1863 1.407 . S
C1861 H1868 0.930 . S
C1862 C1850 1.410 . S
C1862 C1863 1.345 . S
C1862 H1870 0.930 . S
C1863 C1861 1.407 . S
C1863 C1862 1.345 . S
C1863 H1865 0.930 . S
H1864 C1857 0.930 . S
H1865 C1863 0.930 . S
H1866 C1854 0.930 . S
H1867 C1855 0.905 1_554 S
H1868 C1861 0.930 . S
H1869 C1883 0.930 . S
H1870 C1862 0.930 . S
H1871 C1889 0.930 . S
H1872 C1880 0.930 . S
H1873 C1887 0.931 . S
H1874 C1851 0.929 . S
H1875 C1881 0.930 . S
H1876 C1914 0.930 . S
H1877 C1858 0.930 . S
H1878 C1913 0.929 . S
N1879 Tb1848 2.660 . S
N1879 C1880 1.305 . S
N1879 C1884 1.360 . S
C1880 H1872 0.930 . S
C1880 N1879 1.305 . S
C1880 C1883 1.407 . S
C1881 H1875 0.930 . S
C1881 C1882 1.410 . S
C1881 C1883 1.345 . S
C1882 C1881 1.410 . S
C1882 C1884 1.417 . S
C1882 C1914 1.432 . S
C1883 H1869 0.930 . S
C1883 C1880 1.407 . S
C1883 C1881 1.345 . S
C1884 N1879 1.360 . S
C1884 C1882 1.417 . S
C1884 C1888 1.432 . S
H1885 C1890 0.930 . S
N1886 Tb1848 2.600 . S
N1886 C1888 1.359 . S
N1886 C1889 1.327 . S
C1887 H1873 0.931 . S
C1887 C1889 1.392 . S
C1887 C1890 1.370 . S
C1888 C1884 1.432 . S
C1888 N1886 1.359 . S
C1888 C1891 1.414 . S
C1889 H1871 0.930 . S
C1889 N1886 1.327 . S
C1889 C1887 1.392 . S
C1890 H1885 0.930 . S
C1890 C1887 1.370 . S
C1890 C1891 1.385 . S
C1891 C1888 1.414 . S
C1891 C1890 1.385 . S
C1891 C1913 1.444 . S
O1892 Tb1848 2.546 . S
O1892 C1912 1.251 . S
O1893 Tb1848 2.610 . S
O1893 Tb1859 2.362 . S
O1893 C1904 1.283 . S
O1894 Tb1859 2.421 . S
O1894 C1911 1.262 . S
O1895 Tb1848 2.320 . S
O1895 C1911 1.260 . S
O1896 Tb1848 2.552 . S
O1896 C1904 1.243 . S
O1897 Tb1848 2.413 . S
O1897 C1912 1.256 . S
O1898 Tb1859 2.546 1_556 S
O1898 C1923 1.251 . S
O1899 Tb1848 2.362 . S
O1899 Tb1859 2.610 . S
O1899 C1915 1.283 . S
O1900 Tb1848 2.421 . S
O1900 C1922 1.262 . S
O1901 Tb1859 2.320 1_556 S
O1901 C1922 1.260 1_556 S
O1902 Tb1859 2.552 . S
O1902 C1915 1.243 . S
O1903 Tb1859 2.413 1_556 S
O1903 C1923 1.256 . S
C1904 O1893 1.283 . S
C1904 O1896 1.243 . S
C1905 C1907 1.382 . S
C1905 C1909 1.393 . S
C1905 C1912 1.500 . S
C1906 C1907 1.400 . S
C1906 C1908 1.384 . S
C1907 C1905 1.382 . S
C1907 C1906 1.400 . S
C1907 H1924 0.930 . S
C1908 C1906 1.384 . S
C1908 C1910 1.392 . S
C1908 H1925 0.931 . S
C1909 C1905 1.393 . S
C1909 C1910 1.401 . S
C1909 H1926 0.930 . S
C1910 C1908 1.392 . S
C1910 C1909 1.401 . S
C1910 H1927 0.930 . S
C1911 O1894 1.262 . S
C1911 O1895 1.260 . S
C1912 Tb1848 2.833 . S
C1912 O1892 1.251 . S
C1912 O1897 1.256 . S
C1912 C1905 1.500 . S
C1913 H1878 0.929 . S
C1913 C1891 1.444 . S
C1913 C1914 1.317 . S
C1914 H1876 0.930 . S
C1914 C1882 1.432 . S
C1914 C1913 1.317 . S
C1915 O1899 1.283 . S
C1915 O1902 1.243 . S
C1916 C1917 1.382 . S
C1916 C1920 1.393 . S
C1916 C1923 1.500 . S
C1917 C1916 1.382 . S
C1917 C1918 1.400 . S
C1917 H1928 0.930 . S
C1918 C1917 1.400 . S
C1918 C1919 1.384 . S
C1919 C1918 1.384 . S
C1919 C1921 1.392 . S
C1919 H1929 0.931 . S
C1920 C1916 1.393 . S
C1920 C1921 1.401 . S
C1920 H1930 0.930 . S
C1921 C1919 1.392 . S
C1921 C1920 1.401 . S
C1921 H1931 0.930 . S
C1922 O1900 1.262 . S
C1922 O1901 1.260 1_554 S
C1923 Tb1859 2.833 1_556 S
C1923 O1898 1.251 . S
C1923 O1903 1.256 . S
C1923 C1916 1.500 . S
H1924 C1907 0.930 . S
H1925 C1908 0.931 . S
H1926 C1909 0.930 . S
H1927 C1910 0.930 . S
H1928 C1917 0.930 . S
H1929 C1919 0.931 . S
H1930 C1920 0.930 . S
H1931 C1921 0.930 . S
Tb1932 N1963 2.660 . S
Tb1932 N1970 2.600 . S
Tb1932 O1976 2.546 . S
Tb1932 O1977 2.610 . S
Tb1932 O1979 2.320 . S
Tb1932 O1980 2.552 . S
Tb1932 O1981 2.413 . S
Tb1932 O1983 2.362 . S
Tb1932 O1984 2.421 . S
Tb1932 C1996 2.833 . S
C1933 C1936 1.432 . S
C1933 C1937 1.414 . S
C1933 N1940 1.359 . S
C1934 C1936 1.417 . S
C1934 C1938 1.432 . S
C1934 C1946 1.410 . S
C1935 C1937 1.444 . S
C1935 C1938 1.317 . S
C1935 H1958 0.929 . S
C1936 C1933 1.432 . S
C1936 C1934 1.417 . S
C1936 N1944 1.360 . S
C1937 C1933 1.414 . S
C1937 C1935 1.444 . S
C1937 C1942 1.385 . S
C1938 C1934 1.432 . S
C1938 C1935 1.317 . S
C1938 H1950 0.930 . S
C1939 C1941 1.375 1_545 S
C1939 C1942 1.413 . S
C1939 H1951 0.907 1_545 S
N1940 C1933 1.359 . S
N1940 C1941 1.327 1_545 S
N1940 Tb1943 2.600 1_545 S
C1941 C1939 1.375 1_565 S
C1941 N1940 1.327 1_565 S
C1941 H1948 0.930 . S
C1942 C1937 1.385 . S
C1942 C1939 1.413 . S
C1942 H1961 0.930 . S
Tb1943 N1940 2.600 1_565 S
Tb1943 N1944 2.660 1_565 S
Tb1943 O1977 2.362 . S
Tb1943 O1978 2.421 . S
Tb1943 O1982 2.546 1_565 S
Tb1943 O1983 2.610 . S
Tb1943 O1985 2.306 1_565 S
Tb1943 O1986 2.552 . S
Tb1943 O1987 2.413 1_565 S
Tb1943 C2007 2.833 1_565 S
N1944 C1936 1.360 . S
N1944 Tb1943 2.660 1_545 S
N1944 C1945 1.305 . S
C1945 N1944 1.305 . S
C1945 C1947 1.407 . S
C1945 H1952 0.930 . S
C1946 C1934 1.410 . S
C1946 C1947 1.345 . S
C1946 H1954 0.930 . S
C1947 C1945 1.407 . S
C1947 C1946 1.345 . S
C1947 H1949 0.930 . S
H1948 C1941 0.930 . S
H1949 C1947 0.930 . S
H1950 C1938 0.930 . S
H1951 C1939 0.907 1_565 S
H1952 C1945 0.930 . S
H1953 C1967 0.930 . S
H1954 C1946 0.930 . S
H1955 C1973 0.930 . S
H1956 C1964 0.930 . S
H1957 C1971 0.931 . S
H1958 C1935 0.929 . S
H1959 C1965 0.930 . S
H1960 C1998 0.930 . S
H1961 C1942 0.930 . S
H1962 C1997 0.929 . S
N1963 Tb1932 2.660 . S
N1963 C1964 1.305 . S
N1963 C1968 1.360 . S
C1964 H1956 0.930 . S
C1964 N1963 1.305 . S
C1964 C1967 1.407 . S
C1965 H1959 0.930 . S
C1965 C1966 1.410 . S
C1965 C1967 1.345 . S
C1966 C1965 1.410 . S
C1966 C1968 1.417 . S
C1966 C1998 1.432 . S
C1967 H1953 0.930 . S
C1967 C1964 1.407 . S
C1967 C1965 1.345 . S
C1968 N1963 1.360 . S
C1968 C1966 1.417 . S
C1968 C1972 1.432 . S
H1969 C1974 0.930 . S
N1970 Tb1932 2.600 . S
N1970 C1972 1.359 . S
N1970 C1973 1.327 . S
C1971 H1957 0.931 . S
C1971 C1973 1.392 . S
C1971 C1974 1.370 . S
C1972 C1968 1.432 . S
C1972 N1970 1.359 . S
C1972 C1975 1.414 . S
C1973 H1955 0.930 . S
C1973 N1970 1.327 . S
C1973 C1971 1.392 . S
C1974 H1969 0.930 . S
C1974 C1971 1.370 . S
C1974 C1975 1.385 . S
C1975 C1972 1.414 . S
C1975 C1974 1.385 . S
C1975 C1997 1.444 . S
O1976 Tb1932 2.546 . S
O1976 C1996 1.251 . S
O1977 Tb1932 2.610 . S
O1977 Tb1943 2.362 . S
O1977 C1988 1.283 . S
O1978 Tb1943 2.421 . S
O1978 C1995 1.262 . S
O1979 Tb1932 2.320 . S
O1979 C1995 1.260 . S
O1980 Tb1932 2.552 . S
O1980 C1988 1.243 . S
O1981 Tb1932 2.413 . S
O1981 C1996 1.256 . S
O1982 Tb1943 2.546 1_545 S
O1982 C2007 1.251 . S
O1983 Tb1932 2.362 . S
O1983 Tb1943 2.610 . S
O1983 C1999 1.283 . S
O1984 Tb1932 2.421 . S
O1984 C2006 1.262 . S
O1985 Tb1943 2.306 1_545 S
O1985 C2006 1.242 1_545 S
O1986 Tb1943 2.552 . S
O1986 C1999 1.243 . S
O1987 Tb1943 2.413 1_545 S
O1987 C2007 1.256 . S
C1988 O1977 1.283 . S
C1988 O1980 1.243 . S
C1989 C1991 1.382 . S
C1989 C1993 1.393 . S
C1989 C1996 1.500 . S
C1990 C1991 1.400 . S
C1990 C1992 1.384 . S
C1991 C1989 1.382 . S
C1991 C1990 1.400 . S
C1991 H2008 0.930 . S
C1992 C1990 1.384 . S
C1992 C1994 1.392 . S
C1992 H2009 0.931 . S
C1993 C1989 1.393 . S
C1993 C1994 1.401 . S
C1993 H2010 0.930 . S
C1994 C1992 1.392 . S
C1994 C1993 1.401 . S
C1994 H2011 0.930 . S
C1995 O1978 1.262 . S
C1995 O1979 1.260 . S
C1996 Tb1932 2.833 . S
C1996 O1976 1.251 . S
C1996 O1981 1.256 . S
C1996 C1989 1.500 . S
C1997 H1962 0.929 . S
C1997 C1975 1.444 . S
C1997 C1998 1.317 . S
C1998 H1960 0.930 . S
C1998 C1966 1.432 . S
C1998 C1997 1.317 . S
C1999 O1983 1.283 . S
C1999 O1986 1.243 . S
C2000 C2001 1.382 . S
C2000 C2004 1.393 . S
C2000 C2007 1.500 . S
C2001 C2000 1.382 . S
C2001 C2002 1.400 . S
C2001 H2012 0.930 . S
C2002 C2001 1.400 . S
C2002 C2003 1.384 . S
C2003 C2002 1.384 . S
C2003 C2005 1.392 . S
C2003 H2013 0.931 . S
C2004 C2000 1.393 . S
C2004 C2005 1.401 . S
C2004 H2014 0.930 . S
C2005 C2003 1.392 . S
C2005 C2004 1.401 . S
C2005 H2015 0.930 . S
C2006 O1984 1.262 . S
C2006 O1985 1.242 1_565 S
C2007 Tb1943 2.833 1_545 S
C2007 O1982 1.251 . S
C2007 O1987 1.256 . S
C2007 C2000 1.500 . S
H2008 C1991 0.930 . S
H2009 C1992 0.931 . S
H2010 C1993 0.930 . S
H2011 C1994 0.930 . S
H2012 C2001 0.930 . S
H2013 C2003 0.931 . S
H2014 C2004 0.930 . S
H2015 C2005 0.930 . S
Tb2016 N2047 2.660 . S
Tb2016 N2054 2.600 1_565 S
Tb2016 O2060 2.546 1_565 S
Tb2016 O2061 2.610 . S
Tb2016 O2063 2.320 . S
Tb2016 O2064 2.552 1_565 S
Tb2016 O2065 2.413 1_565 S
Tb2016 O2067 2.362 . S
Tb2016 O2068 2.421 . S
Tb2016 C2080 2.833 1_565 S
C2017 C2020 1.432 . S
C2017 C2021 1.414 . S
C2017 N2024 1.359 . S
C2018 C2020 1.417 . S
C2018 C2022 1.432 . S
C2018 C2030 1.410 . S
C2019 C2021 1.444 . S
C2019 C2022 1.317 . S
C2019 H2042 0.929 . S
C2020 C2017 1.432 . S
C2020 C2018 1.417 . S
C2020 N2028 1.360 . S
C2021 C2017 1.414 . S
C2021 C2019 1.444 . S
C2021 C2026 1.385 . S
C2022 C2018 1.432 . S
C2022 C2019 1.317 . S
C2022 H2034 0.930 . S
C2023 C2025 1.392 . S
C2023 C2026 1.370 . S
C2023 H2035 0.931 . S
N2024 C2017 1.359 . S
N2024 C2025 1.327 . S
N2024 Tb2027 2.600 . S
C2025 C2023 1.392 . S
C2025 N2024 1.327 . S
C2025 H2032 0.930 . S
C2026 C2021 1.385 . S
C2026 C2023 1.370 . S
C2026 H2045 0.930 . S
Tb2027 N2024 2.600 . S
Tb2027 N2028 2.660 . S
Tb2027 O2061 2.362 . S
Tb2027 O2062 2.421 . S
Tb2027 O2066 2.546 . S
Tb2027 O2067 2.610 . S
Tb2027 O2069 2.320 . S
Tb2027 O2070 2.552 . S
Tb2027 O2071 2.413 . S
Tb2027 C2091 2.833 . S
N2028 C2020 1.360 . S
N2028 Tb2027 2.660 . S
N2028 C2029 1.305 . S
C2029 N2028 1.305 . S
C2029 C2031 1.407 . S
C2029 H2036 0.930 . S
C2030 C2018 1.410 . S
C2030 C2031 1.345 . S
C2030 H2038 0.930 . S
C2031 C2029 1.407 . S
C2031 C2030 1.345 . S
C2031 H2033 0.930 1_565 S
H2032 C2025 0.930 . S
H2033 C2031 0.930 1_545 S
H2034 C2022 0.930 . S
H2035 C2023 0.931 . S
H2036 C2029 0.930 . S
H2037 C2051 0.930 . S
H2038 C2030 0.930 . S
H2039 C2057 0.930 . S
H2040 C2048 0.930 . S
H2041 C2055 0.931 . S
H2042 C2019 0.929 . S
H2043 C2049 0.930 . S
H2044 C2082 0.930 . S
H2045 C2026 0.930 . S
H2046 C2081 0.929 . S
N2047 Tb2016 2.660 . S
N2047 C2048 1.305 . S
N2047 C2052 1.360 . S
C2048 H2040 0.930 . S
C2048 N2047 1.305 . S
C2048 C2051 1.407 . S
C2049 H2043 0.930 . S
C2049 C2050 1.410 . S
C2049 C2051 1.345 . S
C2050 C2049 1.410 . S
C2050 C2052 1.417 . S
C2050 C2082 1.432 . S
C2051 H2037 0.930 . S
C2051 C2048 1.407 . S
C2051 C2049 1.345 . S
C2052 N2047 1.360 . S
C2052 C2050 1.417 . S
C2052 C2056 1.432 . S
H2053 C2058 0.930 . S
N2054 Tb2016 2.600 1_545 S
N2054 C2056 1.359 1_545 S
N2054 C2057 1.327 . S
C2055 H2041 0.931 . S
C2055 C2057 1.392 . S
C2055 C2058 1.370 . S
C2056 C2052 1.432 . S
C2056 N2054 1.359 1_565 S
C2056 C2059 1.401 1_565 S
C2057 H2039 0.930 . S
C2057 N2054 1.327 . S
C2057 C2055 1.392 . S
C2058 H2053 0.930 . S
C2058 C2055 1.370 . S
C2058 C2059 1.419 . S
C2059 C2056 1.401 1_545 S
C2059 C2058 1.419 . S
C2059 C2081 1.425 1_545 S
O2060 Tb2016 2.546 1_545 S
O2060 C2080 1.251 . S
O2061 Tb2016 2.610 . S
O2061 Tb2027 2.362 . S
O2061 C2072 1.283 . S
O2062 Tb2027 2.421 . S
O2062 C2079 1.262 . S
O2063 Tb2016 2.320 . S
O2063 C2079 1.260 . S
O2064 Tb2016 2.552 1_545 S
O2064 C2072 1.243 1_545 S
O2065 Tb2016 2.413 1_545 S
O2065 C2080 1.256 . S
O2066 Tb2027 2.546 . S
O2066 C2091 1.251 . S
O2067 Tb2016 2.362 . S
O2067 Tb2027 2.610 . S
O2067 C2083 1.283 . S
O2068 Tb2016 2.421 . S
O2068 C2090 1.262 . S
O2069 Tb2027 2.320 . S
O2069 C2090 1.260 . S
O2070 Tb2027 2.552 . S
O2070 C2083 1.243 . S
O2071 Tb2027 2.413 . S
O2071 C2091 1.256 . S
C2072 O2061 1.283 . S
C2072 O2064 1.243 1_565 S
C2073 C2075 1.382 . S
C2073 C2077 1.393 . S
C2073 C2080 1.500 . S
C2074 C2075 1.400 . S
C2074 C2076 1.384 . S
C2075 C2073 1.382 . S
C2075 C2074 1.400 . S
C2075 H2092 0.930 . S
C2076 C2074 1.384 . S
C2076 C2078 1.392 . S
C2076 H2093 0.931 . S
C2077 C2073 1.393 . S
C2077 C2078 1.401 . S
C2077 H2094 0.930 . S
C2078 C2076 1.392 . S
C2078 C2077 1.401 . S
C2078 H2095 0.930 . S
C2079 O2062 1.262 . S
C2079 O2063 1.260 . S
C2080 Tb2016 2.833 1_545 S
C2080 O2060 1.251 . S
C2080 O2065 1.256 . S
C2080 C2073 1.500 . S
C2081 H2046 0.929 . S
C2081 C2059 1.425 1_565 S
C2081 C2082 1.317 . S
C2082 H2044 0.930 . S
C2082 C2050 1.432 . S
C2082 C2081 1.317 . S
C2083 O2067 1.283 . S
C2083 O2070 1.243 . S
C2084 C2085 1.382 . S
C2084 C2088 1.393 . S
C2084 C2091 1.500 . S
C2085 C2084 1.382 . S
C2085 C2086 1.400 . S
C2085 H2096 0.930 . S
C2086 C2085 1.400 . S
C2086 C2087 1.384 . S
C2087 C2086 1.384 . S
C2087 C2089 1.392 . S
C2087 H2097 0.931 . S
C2088 C2084 1.393 . S
C2088 C2089 1.401 . S
C2088 H2098 0.930 . S
C2089 C2087 1.392 . S
C2089 C2088 1.401 . S
C2089 H2099 0.930 . S
C2090 O2068 1.262 . S
C2090 O2069 1.260 . S
C2091 Tb2027 2.833 . S
C2091 O2066 1.251 . S
C2091 O2071 1.256 . S
C2091 C2084 1.500 . S
H2092 C2075 0.930 . S
H2093 C2076 0.931 . S
H2094 C2077 0.930 . S
H2095 C2078 0.930 . S
H2096 C2085 0.930 . S
H2097 C2087 0.931 . S
H2098 C2088 0.930 . S
H2099 C2089 0.930 . S
Tb2100 N2131 2.660 . S
Tb2100 N2138 2.600 . S
Tb2100 O2144 2.546 . S
Tb2100 O2145 2.610 . S
Tb2100 O2147 2.320 . S
Tb2100 O2148 2.552 . S
Tb2100 O2149 2.413 . S
Tb2100 O2151 2.362 . S
Tb2100 O2152 2.421 . S
Tb2100 C2164 2.833 . S
C2101 C2104 1.432 . S
C2101 C2105 1.414 . S
C2101 N2108 1.359 . S
C2102 C2104 1.417 . S
C2102 C2106 1.432 . S
C2102 C2114 1.410 . S
C2103 C2105 1.444 . S
C2103 C2106 1.317 . S
C2103 H2126 0.929 . S
C2104 C2101 1.432 . S
C2104 C2102 1.417 . S
C2104 N2112 1.360 . S
C2105 C2101 1.414 . S
C2105 C2103 1.444 . S
C2105 C2110 1.385 . S
C2106 C2102 1.432 . S
C2106 C2103 1.317 . S
C2106 H2118 0.930 . S
C2107 C2109 1.392 1_565 S
C2107 C2110 1.370 . S
C2107 H2119 0.931 1_565 S
N2108 C2101 1.359 . S
N2108 C2109 1.327 1_565 S
N2108 Tb2111 2.600 1_565 S
C2109 C2107 1.392 1_545 S
C2109 N2108 1.327 1_545 S
C2109 H2116 0.930 . S
C2110 C2105 1.385 . S
C2110 C2107 1.370 . S
C2110 H2129 0.930 . S
Tb2111 N2108 2.600 1_545 S
Tb2111 N2112 2.660 1_545 S
Tb2111 O2145 2.362 . S
Tb2111 O2146 2.421 . S
Tb2111 O2150 2.546 1_545 S
Tb2111 O2151 2.610 . S
Tb2111 O2153 2.320 1_545 S
Tb2111 O2154 2.552 . S
Tb2111 O2155 2.413 1_545 S
Tb2111 C2175 2.833 1_545 S
N2112 C2104 1.360 . S
N2112 Tb2111 2.660 1_565 S
N2112 C2113 1.305 . S
C2113 N2112 1.305 . S
C2113 C2115 1.407 . S
C2113 H2120 0.930 . S
C2114 C2102 1.410 . S
C2114 C2115 1.345 . S
C2114 H2122 0.930 . S
C2115 C2113 1.407 . S
C2115 C2114 1.345 . S
C2115 H2117 0.930 . S
H2116 C2109 0.930 . S
H2117 C2115 0.930 . S
H2118 C2106 0.930 . S
H2119 C2107 0.931 1_545 S
H2120 C2113 0.930 . S
H2121 C2135 0.930 . S
H2122 C2114 0.930 . S
H2123 C2141 0.930 . S
H2124 C2132 0.930 . S
H2125 C2139 0.931 . S
H2126 C2103 0.929 . S
H2127 C2133 0.930 . S
H2128 C2166 0.930 . S
H2129 C2110 0.930 . S
H2130 C2165 0.929 . S
N2131 Tb2100 2.660 . S
N2131 C2132 1.305 . S
N2131 C2136 1.360 . S
C2132 H2124 0.930 . S
C2132 N2131 1.305 . S
C2132 C2135 1.407 . S
C2133 H2127 0.930 . S
C2133 C2134 1.410 . S
C2133 C2135 1.345 . S
C2134 C2133 1.410 . S
C2134 C2136 1.417 . S
C2134 C2166 1.432 . S
C2135 H2121 0.930 . S
C2135 C2132 1.407 . S
C2135 C2133 1.345 . S
C2136 N2131 1.360 . S
C2136 C2134 1.417 . S
C2136 C2140 1.432 . S
H2137 C2142 0.930 . S
N2138 Tb2100 2.600 . S
N2138 C2140 1.359 . S
N2138 C2141 1.327 . S
C2139 H2125 0.931 . S
C2139 C2141 1.392 . S
C2139 C2142 1.370 . S
C2140 C2136 1.432 . S
C2140 N2138 1.359 . S
C2140 C2143 1.414 . S
C2141 H2123 0.930 . S
C2141 N2138 1.327 . S
C2141 C2139 1.392 . S
C2142 H2137 0.930 . S
C2142 C2139 1.370 . S
C2142 C2143 1.385 . S
C2143 C2140 1.414 . S
C2143 C2142 1.385 . S
C2143 C2165 1.444 . S
O2144 Tb2100 2.546 . S
O2144 C2164 1.251 . S
O2145 Tb2100 2.610 . S
O2145 Tb2111 2.362 . S
O2145 C2156 1.283 . S
O2146 Tb2111 2.421 . S
O2146 C2163 1.262 . S
O2147 Tb2100 2.320 . S
O2147 C2163 1.260 . S
O2148 Tb2100 2.552 . S
O2148 C2156 1.243 . S
O2149 Tb2100 2.413 . S
O2149 C2164 1.256 . S
O2150 Tb2111 2.546 1_565 S
O2150 C2175 1.251 . S
O2151 Tb2100 2.362 . S
O2151 Tb2111 2.610 . S
O2151 C2167 1.283 . S
O2152 Tb2100 2.421 . S
O2152 C2174 1.262 . S
O2153 Tb2111 2.320 1_565 S
O2153 C2174 1.260 1_565 S
O2154 Tb2111 2.552 . S
O2154 C2167 1.243 . S
O2155 Tb2111 2.413 1_565 S
O2155 C2175 1.256 . S
C2156 O2145 1.283 . S
C2156 O2148 1.243 . S
C2157 C2159 1.382 . S
C2157 C2161 1.393 . S
C2157 C2164 1.500 . S
C2158 C2159 1.400 . S
C2158 C2160 1.384 . S
C2159 C2157 1.382 . S
C2159 C2158 1.400 . S
C2159 H2176 0.930 . S
C2160 C2158 1.384 . S
C2160 C2162 1.392 . S
C2160 H2177 0.931 . S
C2161 C2157 1.393 . S
C2161 C2162 1.401 . S
C2161 H2178 0.930 . S
C2162 C2160 1.392 . S
C2162 C2161 1.401 . S
C2162 H2179 0.930 . S
C2163 O2146 1.262 . S
C2163 O2147 1.260 . S
C2164 Tb2100 2.833 . S
C2164 O2144 1.251 . S
C2164 O2149 1.256 . S
C2164 C2157 1.500 . S
C2165 H2130 0.929 . S
C2165 C2143 1.444 . S
C2165 C2166 1.317 . S
C2166 H2128 0.930 . S
C2166 C2134 1.432 . S
C2166 C2165 1.317 . S
C2167 O2151 1.283 . S
C2167 O2154 1.243 . S
C2168 C2169 1.382 . S
C2168 C2172 1.393 . S
C2168 C2175 1.500 . S
C2169 C2168 1.382 . S
C2169 C2170 1.400 . S
C2169 H2180 0.930 . S
C2170 C2169 1.400 . S
C2170 C2171 1.384 . S
C2171 C2170 1.384 . S
C2171 C2173 1.392 . S
C2171 H2181 0.931 . S
C2172 C2168 1.393 . S
C2172 C2173 1.401 . S
C2172 H2182 0.930 . S
C2173 C2171 1.392 . S
C2173 C2172 1.401 . S
C2173 H2183 0.930 . S
C2174 O2152 1.262 . S
C2174 O2153 1.260 1_545 S
C2175 Tb2111 2.833 1_565 S
C2175 O2150 1.251 . S
C2175 O2155 1.256 . S
C2175 C2168 1.500 . S
H2176 C2159 0.930 . S
H2177 C2160 0.931 . S
H2178 C2161 0.930 . S
H2179 C2162 0.930 . S
H2180 C2169 0.930 . S
H2181 C2171 0.931 . S
H2182 C2172 0.930 . S
H2183 C2173 0.930 . S
Tb2184 N2215 2.660 . S
Tb2184 N2222 2.600 1_545 S
Tb2184 O2228 2.546 1_545 S
Tb2184 O2229 2.610 . S
Tb2184 O2231 2.320 . S
Tb2184 O2232 2.552 1_545 S
Tb2184 O2233 2.413 1_545 S
Tb2184 O2235 2.362 . S
Tb2184 O2236 2.421 . S
Tb2184 C2248 2.833 1_545 S
C2185 C2188 1.432 . S
C2185 C2189 1.414 . S
C2185 N2192 1.359 . S
C2186 C2188 1.417 . S
C2186 C2190 1.432 . S
C2186 C2198 1.410 . S
C2187 C2189 1.444 . S
C2187 C2190 1.317 . S
C2187 H2210 0.929 . S
C2188 C2185 1.432 . S
C2188 C2186 1.417 . S
C2188 N2196 1.360 . S
C2189 C2185 1.414 . S
C2189 C2187 1.444 . S
C2189 C2194 1.385 . S
C2190 C2186 1.432 . S
C2190 C2187 1.317 . S
C2190 H2202 0.930 . S
C2191 C2193 1.392 . S
C2191 C2194 1.370 . S
C2191 H2203 0.931 . S
N2192 C2185 1.359 . S
N2192 C2193 1.327 . S
N2192 Tb2195 2.600 . S
C2193 C2191 1.392 . S
C2193 N2192 1.327 . S
C2193 H2200 0.930 . S
C2194 C2189 1.385 . S
C2194 C2191 1.370 . S
C2194 H2213 0.930 . S
Tb2195 N2192 2.600 . S
Tb2195 N2196 2.660 . S
Tb2195 O2229 2.362 . S
Tb2195 O2230 2.421 . S
Tb2195 O2234 2.546 . S
Tb2195 O2235 2.610 . S
Tb2195 O2237 2.320 . S
Tb2195 O2238 2.552 . S
Tb2195 O2239 2.413 . S
Tb2195 C2259 2.833 . S
N2196 C2188 1.360 . S
N2196 Tb2195 2.660 . S
N2196 C2197 1.305 . S
C2197 N2196 1.305 . S
C2197 C2199 1.407 . S
C2197 H2204 0.930 . S
C2198 C2186 1.410 . S
C2198 C2199 1.345 . S
C2198 H2206 0.930 . S
C2199 C2197 1.407 . S
C2199 C2198 1.345 . S
C2199 H2201 0.930 1_545 S
H2200 C2193 0.930 . S
H2201 C2199 0.930 1_565 S
H2202 C2190 0.930 . S
H2203 C2191 0.931 . S
H2204 C2197 0.930 . S
H2205 C2219 0.930 . S
H2206 C2198 0.930 . S
H2207 C2225 0.930 . S
H2208 C2216 0.930 . S
H2209 C2223 0.931 . S
H2210 C2187 0.929 . S
H2211 C2217 0.930 . S
H2212 C2250 0.930 . S
H2213 C2194 0.930 . S
H2214 C2249 0.929 . S
N2215 Tb2184 2.660 . S
N2215 C2216 1.305 . S
N2215 C2220 1.360 . S
C2216 H2208 0.930 . S
C2216 N2215 1.305 . S
C2216 C2219 1.407 . S
C2217 H2211 0.930 . S
C2217 C2218 1.410 . S
C2217 C2219 1.345 . S
C2218 C2217 1.410 . S
C2218 C2220 1.417 . S
C2218 C2250 1.432 . S
C2219 H2205 0.930 . S
C2219 C2216 1.407 . S
C2219 C2217 1.345 . S
C2220 N2215 1.360 . S
C2220 C2218 1.417 . S
C2220 C2224 1.432 . S
H2221 C2226 0.930 . S
N2222 Tb2184 2.600 1_565 S
N2222 C2224 1.359 1_565 S
N2222 C2225 1.327 . S
C2223 H2209 0.931 . S
C2223 C2225 1.392 . S
C2223 C2226 1.370 . S
C2224 C2220 1.432 . S
C2224 N2222 1.359 1_545 S
C2224 C2227 1.414 1_545 S
C2225 H2207 0.930 . S
C2225 N2222 1.327 . S
C2225 C2223 1.392 . S
C2226 H2221 0.930 . S
C2226 C2223 1.370 . S
C2226 C2227 1.385 . S
C2227 C2224 1.414 1_565 S
C2227 C2226 1.385 . S
C2227 C2249 1.444 1_565 S
O2228 Tb2184 2.546 1_565 S
O2228 C2248 1.251 . S
O2229 Tb2184 2.610 . S
O2229 Tb2195 2.362 . S
O2229 C2240 1.283 . S
O2230 Tb2195 2.421 . S
O2230 C2247 1.262 . S
O2231 Tb2184 2.320 . S
O2231 C2247 1.260 . S
O2232 Tb2184 2.552 1_565 S
O2232 C2240 1.243 1_565 S
O2233 Tb2184 2.413 1_565 S
O2233 C2248 1.256 . S
O2234 Tb2195 2.546 . S
O2234 C2259 1.251 . S
O2235 Tb2184 2.362 . S
O2235 Tb2195 2.610 . S
O2235 C2251 1.283 . S
O2236 Tb2184 2.421 . S
O2236 C2258 1.262 . S
O2237 Tb2195 2.320 . S
O2237 C2258 1.260 . S
O2238 Tb2195 2.552 . S
O2238 C2251 1.243 . S
O2239 Tb2195 2.413 . S
O2239 C2259 1.256 . S
C2240 O2229 1.283 . S
C2240 O2232 1.243 1_545 S
C2241 C2243 1.382 . S
C2241 C2245 1.393 . S
C2241 C2248 1.500 . S
C2242 C2243 1.400 . S
C2242 C2244 1.384 . S
C2243 C2241 1.382 . S
C2243 C2242 1.400 . S
C2243 H2260 0.930 . S
C2244 C2242 1.384 . S
C2244 C2246 1.392 . S
C2244 H2261 0.931 . S
C2245 C2241 1.393 . S
C2245 C2246 1.401 . S
C2245 H2262 0.930 . S
C2246 C2244 1.392 . S
C2246 C2245 1.401 . S
C2246 H2263 0.930 . S
C2247 O2230 1.262 . S
C2247 O2231 1.260 . S
C2248 Tb2184 2.833 1_565 S
C2248 O2228 1.251 . S
C2248 O2233 1.256 . S
C2248 C2241 1.500 . S
C2249 H2214 0.929 . S
C2249 C2227 1.444 1_545 S
C2249 C2250 1.317 . S
C2250 H2212 0.930 . S
C2250 C2218 1.432 . S
C2250 C2249 1.317 . S
C2251 O2235 1.283 . S
C2251 O2238 1.243 . S
C2252 C2253 1.382 . S
C2252 C2256 1.393 . S
C2252 C2259 1.500 . S
C2253 C2252 1.382 . S
C2253 C2254 1.400 . S
C2253 H2264 0.930 . S
C2254 C2253 1.400 . S
C2254 C2255 1.384 . S
C2255 C2254 1.384 . S
C2255 C2257 1.392 . S
C2255 H2265 0.931 . S
C2256 C2252 1.393 . S
C2256 C2257 1.401 . S
C2256 H2266 0.930 . S
C2257 C2255 1.392 . S
C2257 C2256 1.401 . S
C2257 H2267 0.930 . S
C2258 O2236 1.262 . S
C2258 O2237 1.260 . S
C2259 Tb2195 2.833 . S
C2259 O2234 1.251 . S
C2259 O2239 1.256 . S
C2259 C2252 1.500 . S
H2260 C2243 0.930 . S
H2261 C2244 0.931 . S
H2262 C2245 0.930 . S
H2263 C2246 0.930 . S
H2264 C2253 0.930 . S
H2265 C2255 0.931 . S
H2266 C2256 0.930 . S
H2267 C2257 0.930 . S
Tb2268 N2299 2.660 . S
Tb2268 N2306 2.600 1_556 S
Tb2268 O2312 2.546 1_556 S
Tb2268 O2313 2.610 . S
Tb2268 O2315 2.320 . S
Tb2268 O2316 2.552 1_556 S
Tb2268 O2317 2.413 1_556 S
Tb2268 O2319 2.362 . S
Tb2268 O2320 2.421 . S
Tb2268 C2332 2.833 1_556 S
C2269 C2272 1.432 . S
C2269 C2273 1.414 . S
C2269 N2276 1.359 . S
C2270 C2272 1.417 . S
C2270 C2274 1.432 . S
C2270 C2282 1.410 . S
C2271 C2273 1.444 . S
C2271 C2274 1.317 . S
C2271 H2294 0.929 . S
C2272 C2269 1.432 . S
C2272 C2270 1.417 . S
C2272 N2280 1.360 . S
C2273 C2269 1.414 . S
C2273 C2271 1.444 . S
C2273 C2278 1.385 . S
C2274 C2270 1.432 . S
C2274 C2271 1.317 . S
C2274 H2286 0.930 . S
C2275 C2277 1.392 . S
C2275 C2278 1.370 . S
C2275 H2287 0.931 . S
N2276 C2269 1.359 . S
N2276 C2277 1.327 . S
N2276 Tb2279 2.600 . S
C2277 C2275 1.392 . S
C2277 N2276 1.327 . S
C2277 H2284 0.930 . S
C2278 C2273 1.385 . S
C2278 C2275 1.370 . S
C2278 H2297 0.930 . S
Tb2279 N2276 2.600 . S
Tb2279 N2280 2.660 . S
Tb2279 O2313 2.362 . S
Tb2279 O2314 2.421 . S
Tb2279 O2318 2.546 . S
Tb2279 O2319 2.610 . S
Tb2279 O2321 2.320 . S
Tb2279 O2322 2.552 . S
Tb2279 O2323 2.413 . S
Tb2279 C2343 2.833 . S
N2280 C2272 1.360 . S
N2280 Tb2279 2.660 . S
N2280 C2281 1.305 . S
C2281 N2280 1.305 . S
C2281 C2283 1.407 . S
C2281 H2288 0.930 . S
C2282 C2270 1.410 . S
C2282 C2283 1.345 . S
C2282 H2290 0.930 . S
C2283 C2281 1.407 . S
C2283 C2282 1.345 . S
C2283 H2285 0.930 1_556 S
H2284 C2277 0.930 . S
H2285 C2283 0.930 1_554 S
H2286 C2274 0.930 . S
H2287 C2275 0.931 . S
H2288 C2281 0.930 . S
H2289 C2303 0.930 . S
H2290 C2282 0.930 . S
H2291 C2309 0.930 . S
H2292 C2300 0.930 . S
H2293 C2307 0.931 . S
H2294 C2271 0.929 . S
H2295 C2301 0.930 . S
H2296 C2334 0.930 . S
H2297 C2278 0.930 . S
H2298 C2333 0.929 . S
N2299 Tb2268 2.660 . S
N2299 C2300 1.305 . S
N2299 C2304 1.360 . S
C2300 H2292 0.930 . S
C2300 N2299 1.305 . S
C2300 C2303 1.407 . S
C2301 H2295 0.930 . S
C2301 C2302 1.410 . S
C2301 C2303 1.345 . S
C2302 C2301 1.410 . S
C2302 C2304 1.417 . S
C2302 C2334 1.432 . S
C2303 H2289 0.930 . S
C2303 C2300 1.407 . S
C2303 C2301 1.345 . S
C2304 N2299 1.360 . S
C2304 C2302 1.417 . S
C2304 C2308 1.432 . S
H2305 C2310 0.930 . S
N2306 Tb2268 2.600 1_554 S
N2306 C2308 1.359 1_554 S
N2306 C2309 1.327 . S
C2307 H2293 0.931 . S
C2307 C2309 1.392 . S
C2307 C2310 1.370 . S
C2308 C2304 1.432 . S
C2308 N2306 1.359 1_556 S
C2308 C2311 1.396 1_556 S
C2309 H2291 0.930 . S
C2309 N2306 1.327 . S
C2309 C2307 1.392 . S
C2310 H2305 0.930 . S
C2310 C2307 1.370 . S
C2310 C2311 1.432 . S
C2311 C2308 1.396 1_554 S
C2311 C2310 1.432 . S
C2311 C2333 1.417 1_554 S
O2312 Tb2268 2.546 1_554 S
O2312 C2332 1.251 . S
O2313 Tb2268 2.610 . S
O2313 Tb2279 2.362 . S
O2313 C2324 1.283 . S
O2314 Tb2279 2.421 . S
O2314 C2331 1.262 . S
O2315 Tb2268 2.320 . S
O2315 C2331 1.260 . S
O2316 Tb2268 2.552 1_554 S
O2316 C2324 1.243 1_554 S
O2317 Tb2268 2.413 1_554 S
O2317 C2332 1.256 . S
O2318 Tb2279 2.546 . S
O2318 C2343 1.251 . S
O2319 Tb2268 2.362 . S
O2319 Tb2279 2.610 . S
O2319 C2335 1.283 . S
O2320 Tb2268 2.421 . S
O2320 C2342 1.262 . S
O2321 Tb2279 2.320 . S
O2321 C2342 1.260 . S
O2322 Tb2279 2.552 . S
O2322 C2335 1.243 . S
O2323 Tb2279 2.413 . S
O2323 C2343 1.256 . S
C2324 O2313 1.283 . S
C2324 O2316 1.243 1_556 S
C2325 C2327 1.382 . S
C2325 C2329 1.393 . S
C2325 C2332 1.500 . S
C2326 C2327 1.400 . S
C2326 C2328 1.384 . S
C2327 C2325 1.382 . S
C2327 C2326 1.400 . S
C2327 H2344 0.930 . S
C2328 C2326 1.384 . S
C2328 C2330 1.392 . S
C2328 H2345 0.931 . S
C2329 C2325 1.393 . S
C2329 C2330 1.401 . S
C2329 H2346 0.930 . S
C2330 C2328 1.392 . S
C2330 C2329 1.401 . S
C2330 H2347 0.930 . S
C2331 O2314 1.262 . S
C2331 O2315 1.260 . S
C2332 Tb2268 2.833 1_554 S
C2332 O2312 1.251 . S
C2332 O2317 1.256 . S
C2332 C2325 1.500 . S
C2333 H2298 0.929 . S
C2333 C2311 1.417 1_556 S
C2333 C2334 1.317 . S
C2334 H2296 0.930 . S
C2334 C2302 1.432 . S
C2334 C2333 1.317 . S
C2335 O2319 1.283 . S
C2335 O2322 1.243 . S
C2336 C2337 1.382 . S
C2336 C2340 1.393 . S
C2336 C2343 1.500 . S
C2337 C2336 1.382 . S
C2337 C2338 1.400 . S
C2337 H2348 0.930 . S
C2338 C2337 1.400 . S
C2338 C2339 1.384 . S
C2339 C2338 1.384 . S
C2339 C2341 1.392 . S
C2339 H2349 0.931 . S
C2340 C2336 1.393 . S
C2340 C2341 1.401 . S
C2340 H2350 0.930 . S
C2341 C2339 1.392 . S
C2341 C2340 1.401 . S
C2341 H2351 0.930 . S
C2342 O2320 1.262 . S
C2342 O2321 1.260 . S
C2343 Tb2279 2.833 . S
C2343 O2318 1.251 . S
C2343 O2323 1.256 . S
C2343 C2336 1.500 . S
H2344 C2327 0.930 . S
H2345 C2328 0.931 . S
H2346 C2329 0.930 . S
H2347 C2330 0.930 . S
H2348 C2337 0.930 . S
H2349 C2339 0.931 . S
H2350 C2340 0.930 . S
H2351 C2341 0.930 . S
Tb2352 N2383 2.660 . S
Tb2352 N2390 2.600 . S
Tb2352 O2396 2.546 . S
Tb2352 O2397 2.610 . S
Tb2352 O2399 2.320 . S
Tb2352 O2400 2.552 . S
Tb2352 O2401 2.413 . S
Tb2352 O2403 2.362 . S
Tb2352 O2404 2.421 . S
Tb2352 C2416 2.833 . S
C2353 C2356 1.432 . S
C2353 C2357 1.414 . S
C2353 N2360 1.359 . S
C2354 C2356 1.417 . S
C2354 C2358 1.432 . S
C2354 C2366 1.410 . S
C2355 C2357 1.444 . S
C2355 C2358 1.317 . S
C2355 H2378 0.929 . S
C2356 C2353 1.432 . S
C2356 C2354 1.417 . S
C2356 N2364 1.360 . S
C2357 C2353 1.414 . S
C2357 C2355 1.444 . S
C2357 C2362 1.385 . S
C2358 C2354 1.432 . S
C2358 C2355 1.317 . S
C2358 H2370 0.930 . S
C2359 C2361 1.392 1_655 S
C2359 C2362 1.370 . S
C2359 H2371 0.931 1_655 S
N2360 C2353 1.359 . S
N2360 C2361 1.327 1_655 S
N2360 Tb2363 2.600 1_655 S
C2361 C2359 1.392 1_455 S
C2361 N2360 1.327 1_455 S
C2361 H2368 0.930 . S
C2362 C2357 1.385 . S
C2362 C2359 1.370 . S
C2362 H2381 0.930 . S
Tb2363 N2360 2.600 1_455 S
Tb2363 N2364 2.660 1_455 S
Tb2363 O2397 2.362 . S
Tb2363 O2398 2.421 . S
Tb2363 O2402 2.546 1_455 S
Tb2363 O2403 2.610 . S
Tb2363 O2405 2.320 1_455 S
Tb2363 O2406 2.552 . S
Tb2363 O2407 2.413 1_455 S
Tb2363 C2427 2.833 1_455 S
N2364 C2356 1.360 . S
N2364 Tb2363 2.660 1_655 S
N2364 C2365 1.305 . S
C2365 N2364 1.305 . S
C2365 C2367 1.407 . S
C2365 H2372 0.930 . S
C2366 C2354 1.410 . S
C2366 C2367 1.345 . S
C2366 H2374 0.930 . S
C2367 C2365 1.407 . S
C2367 C2366 1.345 . S
C2367 H2369 0.930 . S
H2368 C2361 0.930 . S
H2369 C2367 0.930 . S
H2370 C2358 0.930 . S
H2371 C2359 0.931 1_455 S
H2372 C2365 0.930 . S
H2373 C2387 0.930 . S
H2374 C2366 0.930 . S
H2375 C2393 0.930 . S
H2376 C2384 0.930 . S
H2377 C2391 0.931 . S
H2378 C2355 0.929 . S
H2379 C2385 0.930 . S
H2380 C2418 0.930 . S
H2381 C2362 0.930 . S
H2382 C2417 0.929 . S
N2383 Tb2352 2.660 . S
N2383 C2384 1.305 . S
N2383 C2388 1.360 . S
C2384 H2376 0.930 . S
C2384 N2383 1.305 . S
C2384 C2387 1.407 . S
C2385 H2379 0.930 . S
C2385 C2386 1.410 . S
C2385 C2387 1.345 . S
C2386 C2385 1.410 . S
C2386 C2388 1.417 . S
C2386 C2418 1.432 . S
C2387 H2373 0.930 . S
C2387 C2384 1.407 . S
C2387 C2385 1.345 . S
C2388 N2383 1.360 . S
C2388 C2386 1.417 . S
C2388 C2392 1.432 . S
H2389 C2394 0.930 . S
N2390 Tb2352 2.600 . S
N2390 C2392 1.359 . S
N2390 C2393 1.327 . S
C2391 H2377 0.931 . S
C2391 C2393 1.392 . S
C2391 C2394 1.370 . S
C2392 C2388 1.432 . S
C2392 N2390 1.359 . S
C2392 C2395 1.414 . S
C2393 H2375 0.930 . S
C2393 N2390 1.327 . S
C2393 C2391 1.392 . S
C2394 H2389 0.930 . S
C2394 C2391 1.370 . S
C2394 C2395 1.385 . S
C2395 C2392 1.414 . S
C2395 C2394 1.385 . S
C2395 C2417 1.444 . S
O2396 Tb2352 2.546 . S
O2396 C2416 1.251 . S
O2397 Tb2352 2.610 . S
O2397 Tb2363 2.362 . S
O2397 C2408 1.283 . S
O2398 Tb2363 2.421 . S
O2398 C2415 1.262 . S
O2399 Tb2352 2.320 . S
O2399 C2415 1.260 . S
O2400 Tb2352 2.552 . S
O2400 C2408 1.243 . S
O2401 Tb2352 2.413 . S
O2401 C2416 1.256 . S
O2402 Tb2363 2.546 1_655 S
O2402 C2427 1.251 . S
O2403 Tb2352 2.362 . S
O2403 Tb2363 2.610 . S
O2403 C2419 1.283 . S
O2404 Tb2352 2.421 . S
O2404 C2426 1.262 . S
O2405 Tb2363 2.320 1_655 S
O2405 C2426 1.260 1_655 S
O2406 Tb2363 2.552 . S
O2406 C2419 1.243 . S
O2407 Tb2363 2.413 1_655 S
O2407 C2427 1.256 . S
C2408 O2397 1.283 . S
C2408 O2400 1.243 . S
C2409 C2411 1.382 . S
C2409 C2413 1.393 . S
C2409 C2416 1.500 . S
C2410 C2411 1.400 . S
C2410 C2412 1.384 . S
C2411 C2409 1.382 . S
C2411 C2410 1.400 . S
C2411 H2428 0.930 . S
C2412 C2410 1.384 . S
C2412 C2414 1.392 . S
C2412 H2429 0.931 . S
C2413 C2409 1.393 . S
C2413 C2414 1.401 . S
C2413 H2430 0.930 . S
C2414 C2412 1.392 . S
C2414 C2413 1.401 . S
C2414 H2431 0.930 . S
C2415 O2398 1.262 . S
C2415 O2399 1.260 . S
C2416 Tb2352 2.833 . S
C2416 O2396 1.251 . S
C2416 O2401 1.256 . S
C2416 C2409 1.500 . S
C2417 H2382 0.929 . S
C2417 C2395 1.444 . S
C2417 C2418 1.317 . S
C2418 H2380 0.930 . S
C2418 C2386 1.432 . S
C2418 C2417 1.317 . S
C2419 O2403 1.283 . S
C2419 O2406 1.243 . S
C2420 C2421 1.382 . S
C2420 C2424 1.393 . S
C2420 C2427 1.500 . S
C2421 C2420 1.382 . S
C2421 C2422 1.400 . S
C2421 H2432 0.930 . S
C2422 C2421 1.400 . S
C2422 C2423 1.384 . S
C2423 C2422 1.384 . S
C2423 C2425 1.392 . S
C2423 H2433 0.931 . S
C2424 C2420 1.393 . S
C2424 C2425 1.401 . S
C2424 H2434 0.930 . S
C2425 C2423 1.392 . S
C2425 C2424 1.401 . S
C2425 H2435 0.930 . S
C2426 O2404 1.262 . S
C2426 O2405 1.260 1_455 S
C2427 Tb2363 2.833 1_655 S
C2427 O2402 1.251 . S
C2427 O2407 1.256 . S
C2427 C2420 1.500 . S
H2428 C2411 0.930 . S
H2429 C2412 0.931 . S
H2430 C2413 0.930 . S
H2431 C2414 0.930 . S
H2432 C2421 0.930 . S
H2433 C2423 0.931 . S
H2434 C2424 0.930 . S
H2435 C2425 0.930 . S
Tb2436 N2467 2.660 . S
Tb2436 N2474 2.600 . S
Tb2436 O2480 2.546 . S
Tb2436 O2481 2.610 . S
Tb2436 O2483 2.320 . S
Tb2436 O2484 2.552 . S
Tb2436 O2485 2.413 . S
Tb2436 O2487 2.362 . S
Tb2436 O2488 2.421 . S
Tb2436 C2500 2.833 . S
C2437 C2440 1.432 . S
C2437 C2441 1.414 . S
C2437 N2444 1.359 . S
C2438 C2440 1.417 . S
C2438 C2442 1.432 . S
C2438 C2450 1.410 . S
C2439 C2441 1.444 . S
C2439 C2442 1.317 . S
C2439 H2462 0.929 . S
C2440 C2437 1.432 . S
C2440 C2438 1.417 . S
C2440 N2448 1.360 . S
C2441 C2437 1.414 . S
C2441 C2439 1.444 . S
C2441 C2446 1.385 . S
C2442 C2438 1.432 . S
C2442 C2439 1.317 . S
C2442 H2454 0.930 . S
C2443 C2445 1.392 . S
C2443 C2446 1.370 . S
C2443 H2455 0.931 . S
N2444 C2437 1.359 . S
N2444 C2445 1.327 . S
N2444 Tb2447 2.600 . S
C2445 C2443 1.392 . S
C2445 N2444 1.327 . S
C2445 H2452 0.930 . S
C2446 C2441 1.385 . S
C2446 C2443 1.370 . S
C2446 H2465 0.930 . S
Tb2447 N2444 2.600 . S
Tb2447 N2448 2.660 . S
Tb2447 O2481 2.362 . S
Tb2447 O2482 2.421 . S
Tb2447 O2486 2.546 . S
Tb2447 O2487 2.610 . S
Tb2447 O2489 2.320 . S
Tb2447 O2490 2.552 . S
Tb2447 O2491 2.413 . S
Tb2447 C2511 2.833 . S
N2448 C2440 1.360 . S
N2448 Tb2447 2.660 . S
N2448 C2449 1.305 . S
C2449 N2448 1.305 . S
C2449 C2451 1.407 . S
C2449 H2456 0.930 . S
C2450 C2438 1.410 . S
C2450 C2451 1.345 . S
C2450 H2458 0.930 . S
C2451 C2449 1.407 . S
C2451 C2450 1.345 . S
C2451 H2453 0.930 . S
H2452 C2445 0.930 . S
H2453 C2451 0.930 . S
H2454 C2442 0.930 . S
H2455 C2443 0.931 . S
H2456 C2449 0.930 . S
H2457 C2471 0.930 . S
H2458 C2450 0.930 . S
H2459 C2477 0.930 . S
H2460 C2468 0.930 . S
H2461 C2475 0.931 . S
H2462 C2439 0.929 . S
H2463 C2469 0.930 . S
H2464 C2502 0.930 . S
H2465 C2446 0.930 . S
H2466 C2501 0.929 . S
N2467 Tb2436 2.660 . S
N2467 C2468 1.305 . S
N2467 C2472 1.360 . S
C2468 H2460 0.930 . S
C2468 N2467 1.305 . S
C2468 C2471 1.407 . S
C2469 H2463 0.930 . S
C2469 C2470 1.410 . S
C2469 C2471 1.345 . S
C2470 C2469 1.410 . S
C2470 C2472 1.417 . S
C2470 C2502 1.432 . S
C2471 H2457 0.930 . S
C2471 C2468 1.407 . S
C2471 C2469 1.345 . S
C2472 N2467 1.360 . S
C2472 C2470 1.417 . S
C2472 C2476 1.432 . S
H2473 C2478 0.930 . S
N2474 Tb2436 2.600 . S
N2474 C2476 1.359 . S
N2474 C2477 1.327 . S
C2475 H2461 0.931 . S
C2475 C2477 1.392 . S
C2475 C2478 1.370 . S
C2476 C2472 1.432 . S
C2476 N2474 1.359 . S
C2476 C2479 1.414 . S
C2477 H2459 0.930 . S
C2477 N2474 1.327 . S
C2477 C2475 1.392 . S
C2478 H2473 0.930 . S
C2478 C2475 1.370 . S
C2478 C2479 1.385 . S
C2479 C2476 1.414 . S
C2479 C2478 1.385 . S
C2479 C2501 1.444 . S
O2480 Tb2436 2.546 . S
O2480 C2500 1.251 . S
O2481 Tb2436 2.610 . S
O2481 Tb2447 2.362 . S
O2481 C2492 1.283 . S
O2482 Tb2447 2.421 . S
O2482 C2499 1.262 . S
O2483 Tb2436 2.320 . S
O2483 C2499 1.260 . S
O2484 Tb2436 2.552 . S
O2484 C2492 1.243 . S
O2485 Tb2436 2.413 . S
O2485 C2500 1.256 . S
O2486 Tb2447 2.546 . S
O2486 C2511 1.251 . S
O2487 Tb2436 2.362 . S
O2487 Tb2447 2.610 . S
O2487 C2503 1.283 . S
O2488 Tb2436 2.421 . S
O2488 C2510 1.262 . S
O2489 Tb2447 2.320 . S
O2489 C2510 1.260 . S
O2490 Tb2447 2.552 . S
O2490 C2503 1.243 . S
O2491 Tb2447 2.413 . S
O2491 C2511 1.256 . S
C2492 O2481 1.283 . S
C2492 O2484 1.243 . S
C2493 C2495 1.382 . S
C2493 C2497 1.393 . S
C2493 C2500 1.500 . S
C2494 C2495 1.400 . S
C2494 C2496 1.384 . S
C2495 C2493 1.382 . S
C2495 C2494 1.400 . S
C2495 H2512 0.930 . S
C2496 C2494 1.384 . S
C2496 C2498 1.392 . S
C2496 H2513 0.931 . S
C2497 C2493 1.393 . S
C2497 C2498 1.401 . S
C2497 H2514 0.930 . S
C2498 C2496 1.392 . S
C2498 C2497 1.401 . S
C2498 H2515 0.930 . S
C2499 O2482 1.262 . S
C2499 O2483 1.260 . S
C2500 Tb2436 2.833 . S
C2500 O2480 1.251 . S
C2500 O2485 1.256 . S
C2500 C2493 1.500 . S
C2501 H2466 0.929 . S
C2501 C2479 1.444 . S
C2501 C2502 1.317 . S
C2502 H2464 0.930 . S
C2502 C2470 1.432 . S
C2502 C2501 1.317 . S
C2503 O2487 1.283 . S
C2503 O2490 1.243 . S
C2504 C2505 1.382 . S
C2504 C2508 1.393 . S
C2504 C2511 1.500 . S
C2505 C2504 1.382 . S
C2505 C2506 1.400 . S
C2505 H2516 0.930 . S
C2506 C2505 1.400 . S
C2506 C2507 1.384 . S
C2507 C2506 1.384 . S
C2507 C2509 1.392 . S
C2507 H2517 0.931 . S
C2508 C2504 1.393 . S
C2508 C2509 1.401 . S
C2508 H2518 0.930 . S
C2509 C2507 1.392 . S
C2509 C2508 1.401 . S
C2509 H2519 0.930 . S
C2510 O2488 1.262 . S
C2510 O2489 1.260 . S
C2511 Tb2447 2.833 . S
C2511 O2486 1.251 . S
C2511 O2491 1.256 . S
C2511 C2504 1.500 . S
H2512 C2495 0.930 . S
H2513 C2496 0.931 . S
H2514 C2497 0.930 . S
H2515 C2498 0.930 . S
H2516 C2505 0.930 . S
H2517 C2507 0.931 . S
H2518 C2508 0.930 . S
H2519 C2509 0.930 . S
Tb2520 N2551 2.660 . S
Tb2520 N2558 2.600 . S
Tb2520 O2564 2.546 . S
Tb2520 O2565 2.610 . S
Tb2520 O2567 2.320 . S
Tb2520 O2568 2.552 . S
Tb2520 O2569 2.413 . S
Tb2520 O2571 2.362 . S
Tb2520 O2572 2.421 . S
Tb2520 C2584 2.833 . S
C2521 C2524 1.432 . S
C2521 C2525 1.414 . S
C2521 N2528 1.359 . S
C2522 C2524 1.417 . S
C2522 C2526 1.432 . S
C2522 C2534 1.410 . S
C2523 C2525 1.444 . S
C2523 C2526 1.317 . S
C2523 H2546 0.929 . S
C2524 C2521 1.432 . S
C2524 C2522 1.417 . S
C2524 N2532 1.360 . S
C2525 C2521 1.414 . S
C2525 C2523 1.444 . S
C2525 C2530 1.385 . S
C2526 C2522 1.432 . S
C2526 C2523 1.317 . S
C2526 H2538 0.930 . S
C2527 C2529 1.392 . S
C2527 C2530 1.370 . S
C2527 H2539 0.931 . S
N2528 C2521 1.359 . S
N2528 C2529 1.327 . S
N2528 Tb2531 2.600 . S
C2529 C2527 1.392 . S
C2529 N2528 1.327 . S
C2529 H2536 0.930 . S
C2530 C2525 1.385 . S
C2530 C2527 1.370 . S
C2530 H2549 0.930 . S
Tb2531 N2528 2.600 . S
Tb2531 N2532 2.660 . S
Tb2531 O2565 2.362 . S
Tb2531 O2566 2.421 . S
Tb2531 O2570 2.546 . S
Tb2531 O2571 2.610 . S
Tb2531 O2573 2.320 . S
Tb2531 O2574 2.552 . S
Tb2531 O2575 2.413 . S
Tb2531 C2595 2.833 . S
N2532 C2524 1.360 . S
N2532 Tb2531 2.660 . S
N2532 C2533 1.305 . S
C2533 N2532 1.305 . S
C2533 C2535 1.407 . S
C2533 H2540 0.930 . S
C2534 C2522 1.410 . S
C2534 C2535 1.345 . S
C2534 H2542 0.930 . S
C2535 C2533 1.407 . S
C2535 C2534 1.345 . S
C2535 H2537 0.930 . S
H2536 C2529 0.930 . S
H2537 C2535 0.930 . S
H2538 C2526 0.930 . S
H2539 C2527 0.931 . S
H2540 C2533 0.930 . S
H2541 C2555 0.930 . S
H2542 C2534 0.930 . S
H2543 C2561 0.930 . S
H2544 C2552 0.930 . S
H2545 C2559 0.931 . S
H2546 C2523 0.929 . S
H2547 C2553 0.930 . S
H2548 C2586 0.930 . S
H2549 C2530 0.930 . S
H2550 C2585 0.929 . S
N2551 Tb2520 2.660 . S
N2551 C2552 1.305 . S
N2551 C2556 1.360 . S
C2552 H2544 0.930 . S
C2552 N2551 1.305 . S
C2552 C2555 1.407 . S
C2553 H2547 0.930 . S
C2553 C2554 1.410 . S
C2553 C2555 1.345 . S
C2554 C2553 1.410 . S
C2554 C2556 1.417 . S
C2554 C2586 1.432 . S
C2555 H2541 0.930 . S
C2555 C2552 1.407 . S
C2555 C2553 1.345 . S
C2556 N2551 1.360 . S
C2556 C2554 1.417 . S
C2556 C2560 1.432 . S
H2557 C2562 0.930 . S
N2558 Tb2520 2.600 . S
N2558 C2560 1.359 . S
N2558 C2561 1.327 . S
C2559 H2545 0.931 . S
C2559 C2561 1.392 . S
C2559 C2562 1.370 . S
C2560 C2556 1.432 . S
C2560 N2558 1.359 . S
C2560 C2563 1.414 . S
C2561 H2543 0.930 . S
C2561 N2558 1.327 . S
C2561 C2559 1.392 . S
C2562 H2557 0.930 . S
C2562 C2559 1.370 . S
C2562 C2563 1.385 . S
C2563 C2560 1.414 . S
C2563 C2562 1.385 . S
C2563 C2585 1.444 . S
O2564 Tb2520 2.546 . S
O2564 C2584 1.251 . S
O2565 Tb2520 2.610 . S
O2565 Tb2531 2.362 . S
O2565 C2576 1.283 . S
O2566 Tb2531 2.421 . S
O2566 C2583 1.262 . S
O2567 Tb2520 2.320 . S
O2567 C2583 1.260 . S
O2568 Tb2520 2.552 . S
O2568 C2576 1.243 . S
O2569 Tb2520 2.413 . S
O2569 C2584 1.256 . S
O2570 Tb2531 2.546 . S
O2570 C2595 1.251 . S
O2571 Tb2520 2.362 . S
O2571 Tb2531 2.610 . S
O2571 C2587 1.283 . S
O2572 Tb2520 2.421 . S
O2572 C2594 1.262 . S
O2573 Tb2531 2.320 . S
O2573 C2594 1.260 . S
O2574 Tb2531 2.552 . S
O2574 C2587 1.243 . S
O2575 Tb2531 2.413 . S
O2575 C2595 1.256 . S
C2576 O2565 1.283 . S
C2576 O2568 1.243 . S
C2577 C2579 1.382 . S
C2577 C2581 1.393 . S
C2577 C2584 1.500 . S
C2578 C2579 1.400 . S
C2578 C2580 1.384 . S
C2579 C2577 1.382 . S
C2579 C2578 1.400 . S
C2579 H2596 0.930 . S
C2580 C2578 1.384 . S
C2580 C2582 1.392 . S
C2580 H2597 0.931 . S
C2581 C2577 1.393 . S
C2581 C2582 1.401 . S
C2581 H2598 0.930 . S
C2582 C2580 1.392 . S
C2582 C2581 1.401 . S
C2582 H2599 0.930 . S
C2583 O2566 1.262 . S
C2583 O2567 1.260 . S
C2584 Tb2520 2.833 . S
C2584 O2564 1.251 . S
C2584 O2569 1.256 . S
C2584 C2577 1.500 . S
C2585 H2550 0.929 . S
C2585 C2563 1.444 . S
C2585 C2586 1.317 . S
C2586 H2548 0.930 . S
C2586 C2554 1.432 . S
C2586 C2585 1.317 . S
C2587 O2571 1.283 . S
C2587 O2574 1.243 . S
C2588 C2589 1.382 . S
C2588 C2592 1.393 . S
C2588 C2595 1.500 . S
C2589 C2588 1.382 . S
C2589 C2590 1.400 . S
C2589 H2600 0.930 . S
C2590 C2589 1.400 . S
C2590 C2591 1.384 . S
C2591 C2590 1.384 . S
C2591 C2593 1.392 . S
C2591 H2601 0.931 . S
C2592 C2588 1.393 . S
C2592 C2593 1.401 . S
C2592 H2602 0.930 . S
C2593 C2591 1.392 . S
C2593 C2592 1.401 . S
C2593 H2603 0.930 . S
C2594 O2572 1.262 . S
C2594 O2573 1.260 . S
C2595 Tb2531 2.833 . S
C2595 O2570 1.251 . S
C2595 O2575 1.256 . S
C2595 C2588 1.500 . S
H2596 C2579 0.930 . S
H2597 C2580 0.931 . S
H2598 C2581 0.930 . S
H2599 C2582 0.930 . S
H2600 C2589 0.930 . S
H2601 C2591 0.931 . S
H2602 C2592 0.930 . S
H2603 C2593 0.930 . S
Tb2604 N2635 2.660 . S
Tb2604 N2642 2.600 . S
Tb2604 O2648 2.546 . S
Tb2604 O2649 2.610 . S
Tb2604 O2651 2.320 . S
Tb2604 O2652 2.552 . S
Tb2604 O2653 2.413 . S
Tb2604 O2655 2.362 . S
Tb2604 O2656 2.421 . S
Tb2604 C2668 2.833 . S
C2605 C2608 1.432 . S
C2605 C2609 1.409 1_655 S
C2605 N2612 1.359 1_655 S
C2606 C2608 1.417 . S
C2606 C2610 1.432 . S
C2606 C2618 1.410 . S
C2607 C2609 1.436 1_655 S
C2607 C2610 1.317 . S
C2607 H2630 0.929 . S
C2608 C2605 1.432 . S
C2608 C2606 1.417 . S
C2608 N2616 1.360 . S
C2609 C2605 1.409 1_455 S
C2609 C2607 1.436 1_455 S
C2609 C2614 1.398 . S
C2610 C2606 1.432 . S
C2610 C2607 1.317 . S
C2610 H2622 0.930 . S
C2611 C2613 1.392 . S
C2611 C2614 1.370 . S
C2611 H2623 0.931 . S
N2612 C2605 1.359 1_455 S
N2612 C2613 1.327 . S
N2612 Tb2615 2.600 1_455 S
C2613 C2611 1.392 . S
C2613 N2612 1.327 . S
C2613 H2620 0.930 . S
C2614 C2609 1.398 . S
C2614 C2611 1.370 . S
C2614 H2633 0.930 . S
Tb2615 N2612 2.600 1_655 S
Tb2615 N2616 2.660 . S
Tb2615 O2649 2.362 . S
Tb2615 O2650 2.421 . S
Tb2615 O2654 2.546 1_655 S
Tb2615 O2655 2.610 . S
Tb2615 O2657 2.320 . S
Tb2615 O2658 2.552 1_655 S
Tb2615 O2659 2.413 1_655 S
Tb2615 C2679 2.833 1_655 S
N2616 C2608 1.360 . S
N2616 Tb2615 2.660 . S
N2616 C2617 1.305 . S
C2617 N2616 1.305 . S
C2617 C2619 1.407 . S
C2617 H2624 0.930 . S
C2618 C2606 1.410 . S
C2618 C2619 1.345 . S
C2618 H2626 0.930 . S
C2619 C2617 1.407 . S
C2619 C2618 1.345 . S
C2619 H2621 0.930 . S
H2620 C2613 0.930 . S
H2621 C2619 0.930 . S
H2622 C2610 0.930 . S
H2623 C2611 0.931 . S
H2624 C2617 0.930 . S
H2625 C2639 0.930 1_455 S
H2626 C2618 0.930 . S
H2627 C2645 0.930 . S
H2628 C2636 0.930 . S
H2629 C2643 0.931 . S
H2630 C2607 0.929 . S
H2631 C2637 0.930 . S
H2632 C2670 0.930 . S
H2633 C2614 0.930 . S
H2634 C2669 0.929 . S
N2635 Tb2604 2.660 . S
N2635 C2636 1.305 . S
N2635 C2640 1.360 . S
C2636 H2628 0.930 . S
C2636 N2635 1.305 . S
C2636 C2639 1.407 . S
C2637 H2631 0.930 . S
C2637 C2638 1.410 . S
C2637 C2639 1.345 . S
C2638 C2637 1.410 . S
C2638 C2640 1.417 . S
C2638 C2670 1.432 . S
C2639 H2625 0.930 1_655 S
C2639 C2636 1.407 . S
C2639 C2637 1.345 . S
C2640 N2635 1.360 . S
C2640 C2638 1.417 . S
C2640 C2644 1.432 . S
H2641 C2646 0.930 . S
N2642 Tb2604 2.600 . S
N2642 C2644 1.359 . S
N2642 C2645 1.327 . S
C2643 H2629 0.931 . S
C2643 C2645 1.392 . S
C2643 C2646 1.370 . S
C2644 C2640 1.432 . S
C2644 N2642 1.359 . S
C2644 C2647 1.414 . S
C2645 H2627 0.930 . S
C2645 N2642 1.327 . S
C2645 C2643 1.392 . S
C2646 H2641 0.930 . S
C2646 C2643 1.370 . S
C2646 C2647 1.385 . S
C2647 C2644 1.414 . S
C2647 C2646 1.385 . S
C2647 C2669 1.444 . S
O2648 Tb2604 2.546 . S
O2648 C2668 1.251 . S
O2649 Tb2604 2.610 . S
O2649 Tb2615 2.362 . S
O2649 C2660 1.283 . S
O2650 Tb2615 2.421 . S
O2650 C2667 1.262 . S
O2651 Tb2604 2.320 . S
O2651 C2667 1.260 . S
O2652 Tb2604 2.552 . S
O2652 C2660 1.243 . S
O2653 Tb2604 2.413 . S
O2653 C2668 1.256 . S
O2654 Tb2615 2.546 1_455 S
O2654 C2679 1.251 . S
O2655 Tb2604 2.362 . S
O2655 Tb2615 2.610 . S
O2655 C2671 1.283 . S
O2656 Tb2604 2.421 . S
O2656 C2678 1.262 . S
O2657 Tb2615 2.320 . S
O2657 C2678 1.260 . S
O2658 Tb2615 2.552 1_455 S
O2658 C2671 1.243 1_455 S
O2659 Tb2615 2.413 1_455 S
O2659 C2679 1.256 . S
C2660 O2649 1.283 . S
C2660 O2652 1.243 . S
C2661 C2663 1.382 . S
C2661 C2665 1.393 . S
C2661 C2668 1.500 . S
C2662 C2663 1.400 . S
C2662 C2664 1.384 . S
C2663 C2661 1.382 . S
C2663 C2662 1.400 . S
C2663 H2680 0.930 . S
C2664 C2662 1.384 . S
C2664 C2666 1.392 . S
C2664 H2681 0.931 . S
C2665 C2661 1.393 . S
C2665 C2666 1.401 . S
C2665 H2682 0.930 . S
C2666 C2664 1.392 . S
C2666 C2665 1.401 . S
C2666 H2683 0.930 . S
C2667 O2650 1.262 . S
C2667 O2651 1.260 . S
C2668 Tb2604 2.833 . S
C2668 O2648 1.251 . S
C2668 O2653 1.256 . S
C2668 C2661 1.500 . S
C2669 H2634 0.929 . S
C2669 C2647 1.444 . S
C2669 C2670 1.317 . S
C2670 H2632 0.930 . S
C2670 C2638 1.432 . S
C2670 C2669 1.317 . S
C2671 O2655 1.283 . S
C2671 O2658 1.243 1_655 S
C2672 C2673 1.382 . S
C2672 C2676 1.393 . S
C2672 C2679 1.500 . S
C2673 C2672 1.382 . S
C2673 C2674 1.400 . S
C2673 H2684 0.930 . S
C2674 C2673 1.400 . S
C2674 C2675 1.384 . S
C2675 C2674 1.384 . S
C2675 C2677 1.392 . S
C2675 H2685 0.931 . S
C2676 C2672 1.393 . S
C2676 C2677 1.401 . S
C2676 H2686 0.930 . S
C2677 C2675 1.392 . S
C2677 C2676 1.401 . S
C2677 H2687 0.930 . S
C2678 O2656 1.262 . S
C2678 O2657 1.260 . S
C2679 Tb2615 2.833 1_455 S
C2679 O2654 1.251 . S
C2679 O2659 1.256 . S
C2679 C2672 1.500 . S
H2680 C2663 0.930 . S
H2681 C2664 0.931 . S
H2682 C2665 0.930 . S
H2683 C2666 0.930 . S
H2684 C2673 0.930 . S
H2685 C2675 0.931 . S
H2686 C2676 0.930 . S
H2687 C2677 0.930 . S
Tb2688 N2719 2.660 . S
Tb2688 N2726 2.600 . S
Tb2688 O2732 2.546 . S
Tb2688 O2733 2.610 . S
Tb2688 O2735 2.320 . S
Tb2688 O2736 2.552 . S
Tb2688 O2737 2.413 . S
Tb2688 O2739 2.362 . S
Tb2688 O2740 2.421 . S
Tb2688 C2752 2.833 . S
C2689 C2692 1.432 . S
C2689 C2693 1.414 . S
C2689 N2696 1.359 . S
C2690 C2692 1.417 . S
C2690 C2694 1.432 . S
C2690 C2702 1.410 . S
C2691 C2693 1.444 . S
C2691 C2694 1.317 . S
C2691 H2714 0.929 . S
C2692 C2689 1.432 . S
C2692 C2690 1.417 . S
C2692 N2700 1.360 . S
C2693 C2689 1.414 . S
C2693 C2691 1.444 . S
C2693 C2698 1.385 . S
C2694 C2690 1.432 . S
C2694 C2691 1.317 . S
C2694 H2706 0.930 . S
C2695 C2697 1.392 . S
C2695 C2698 1.370 . S
C2695 H2707 0.931 . S
N2696 C2689 1.359 . S
N2696 C2697 1.327 . S
N2696 Tb2699 2.600 . S
C2697 C2695 1.392 . S
C2697 N2696 1.327 . S
C2697 H2704 0.930 . S
C2698 C2693 1.385 . S
C2698 C2695 1.370 . S
C2698 H2717 0.930 . S
Tb2699 N2696 2.600 . S
Tb2699 N2700 2.660 . S
Tb2699 O2733 2.362 . S
Tb2699 O2734 2.421 . S
Tb2699 O2738 2.546 . S
Tb2699 O2739 2.610 . S
Tb2699 O2741 2.320 . S
Tb2699 O2742 2.552 . S
Tb2699 O2743 2.413 . S
Tb2699 C2763 2.833 . S
N2700 C2692 1.360 . S
N2700 Tb2699 2.660 . S
N2700 C2701 1.305 . S
C2701 N2700 1.305 . S
C2701 C2703 1.407 . S
C2701 H2708 0.930 . S
C2702 C2690 1.410 . S
C2702 C2703 1.345 . S
C2702 H2710 0.930 . S
C2703 C2701 1.407 . S
C2703 C2702 1.345 . S
C2703 H2705 0.930 . S
H2704 C2697 0.930 . S
H2705 C2703 0.930 . S
H2706 C2694 0.930 . S
H2707 C2695 0.931 . S
H2708 C2701 0.930 . S
H2709 C2723 0.930 . S
H2710 C2702 0.930 . S
H2711 C2729 0.930 . S
H2712 C2720 0.930 . S
H2713 C2727 0.931 . S
H2714 C2691 0.929 . S
H2715 C2721 0.930 . S
H2716 C2754 0.930 . S
H2717 C2698 0.930 . S
H2718 C2753 0.929 . S
N2719 Tb2688 2.660 . S
N2719 C2720 1.305 . S
N2719 C2724 1.360 . S
C2720 H2712 0.930 . S
C2720 N2719 1.305 . S
C2720 C2723 1.407 . S
C2721 H2715 0.930 . S
C2721 C2722 1.410 . S
C2721 C2723 1.345 . S
C2722 C2721 1.410 . S
C2722 C2724 1.417 . S
C2722 C2754 1.432 . S
C2723 H2709 0.930 . S
C2723 C2720 1.407 . S
C2723 C2721 1.345 . S
C2724 N2719 1.360 . S
C2724 C2722 1.417 . S
C2724 C2728 1.432 . S
H2725 C2730 0.930 . S
N2726 Tb2688 2.600 . S
N2726 C2728 1.359 . S
N2726 C2729 1.327 . S
C2727 H2713 0.931 . S
C2727 C2729 1.392 . S
C2727 C2730 1.370 . S
C2728 C2724 1.432 . S
C2728 N2726 1.359 . S
C2728 C2731 1.414 . S
C2729 H2711 0.930 . S
C2729 N2726 1.327 . S
C2729 C2727 1.392 . S
C2730 H2725 0.930 . S
C2730 C2727 1.370 . S
C2730 C2731 1.385 . S
C2731 C2728 1.414 . S
C2731 C2730 1.385 . S
C2731 C2753 1.444 . S
O2732 Tb2688 2.546 . S
O2732 C2752 1.251 . S
O2733 Tb2688 2.610 . S
O2733 Tb2699 2.362 . S
O2733 C2744 1.283 . S
O2734 Tb2699 2.421 . S
O2734 C2751 1.262 . S
O2735 Tb2688 2.320 . S
O2735 C2751 1.260 . S
O2736 Tb2688 2.552 . S
O2736 C2744 1.243 . S
O2737 Tb2688 2.413 . S
O2737 C2752 1.256 . S
O2738 Tb2699 2.546 . S
O2738 C2763 1.251 . S
O2739 Tb2688 2.362 . S
O2739 Tb2699 2.610 . S
O2739 C2755 1.283 . S
O2740 Tb2688 2.421 . S
O2740 C2762 1.262 . S
O2741 Tb2699 2.320 . S
O2741 C2762 1.260 . S
O2742 Tb2699 2.552 . S
O2742 C2755 1.243 . S
O2743 Tb2699 2.413 . S
O2743 C2763 1.256 . S
C2744 O2733 1.283 . S
C2744 O2736 1.243 . S
C2745 C2747 1.382 . S
C2745 C2749 1.393 . S
C2745 C2752 1.500 . S
C2746 C2747 1.400 . S
C2746 C2748 1.384 . S
C2747 C2745 1.382 . S
C2747 C2746 1.400 . S
C2747 H2764 0.930 . S
C2748 C2746 1.384 . S
C2748 C2750 1.392 . S
C2748 H2765 0.931 . S
C2749 C2745 1.393 . S
C2749 C2750 1.401 . S
C2749 H2766 0.930 . S
C2750 C2748 1.392 . S
C2750 C2749 1.401 . S
C2750 H2767 0.930 . S
C2751 O2734 1.262 . S
C2751 O2735 1.260 . S
C2752 Tb2688 2.833 . S
C2752 O2732 1.251 . S
C2752 O2737 1.256 . S
C2752 C2745 1.500 . S
C2753 H2718 0.929 . S
C2753 C2731 1.444 . S
C2753 C2754 1.317 . S
C2754 H2716 0.930 . S
C2754 C2722 1.432 . S
C2754 C2753 1.317 . S
C2755 O2739 1.283 . S
C2755 O2742 1.243 . S
C2756 C2757 1.382 . S
C2756 C2760 1.393 . S
C2756 C2763 1.500 . S
C2757 C2756 1.382 . S
C2757 C2758 1.400 . S
C2757 H2768 0.930 . S
C2758 C2757 1.400 . S
C2758 C2759 1.384 . S
C2759 C2758 1.384 . S
C2759 C2761 1.392 . S
C2759 H2769 0.931 . S
C2760 C2756 1.393 . S
C2760 C2761 1.401 . S
C2760 H2770 0.930 . S
C2761 C2759 1.392 . S
C2761 C2760 1.401 . S
C2761 H2771 0.930 . S
C2762 O2740 1.262 . S
C2762 O2741 1.260 . S
C2763 Tb2699 2.833 . S
C2763 O2738 1.251 . S
C2763 O2743 1.256 . S
C2763 C2756 1.500 . S
H2764 C2747 0.930 . S
H2765 C2748 0.931 . S
H2766 C2749 0.930 . S
H2767 C2750 0.930 . S
H2768 C2757 0.930 . S
H2769 C2759 0.931 . S
H2770 C2760 0.930 . S
H2771 C2761 0.930 . S
Tb2772 N2803 2.660 . S
Tb2772 N2810 2.600 . S
Tb2772 O2816 2.546 . S
Tb2772 O2817 2.610 . S
Tb2772 O2819 2.320 . S
Tb2772 O2820 2.552 . S
Tb2772 O2821 2.413 . S
Tb2772 O2823 2.362 . S
Tb2772 O2824 2.421 . S
Tb2772 C2836 2.833 . S
C2773 C2776 1.432 . S
C2773 C2777 1.417 . S
C2773 N2780 1.359 1_556 S
C2774 C2776 1.417 . S
C2774 C2778 1.432 . S
C2774 C2786 1.410 . S
C2775 C2777 1.450 . S
C2775 C2778 1.317 . S
C2775 H2798 0.929 . S
C2776 C2773 1.432 . S
C2776 C2774 1.417 . S
C2776 N2784 1.360 . S
C2777 C2773 1.417 . S
C2777 C2775 1.450 . S
C2777 C2782 1.376 1_556 S
C2778 C2774 1.432 . S
C2778 C2775 1.317 . S
C2778 H2790 0.930 . S
C2779 C2781 1.392 . S
C2779 C2782 1.370 . S
C2779 H2791 0.931 . S
N2780 C2773 1.359 1_554 S
N2780 C2781 1.327 . S
N2780 Tb2783 2.600 1_554 S
C2781 C2779 1.392 . S
C2781 N2780 1.327 . S
C2781 H2788 0.930 . S
C2782 C2777 1.376 1_554 S
C2782 C2779 1.370 . S
C2782 H2801 0.930 . S
Tb2783 N2780 2.600 1_556 S
Tb2783 N2784 2.660 . S
Tb2783 O2817 2.362 . S
Tb2783 O2818 2.421 . S
Tb2783 O2822 2.546 1_556 S
Tb2783 O2823 2.610 . S
Tb2783 O2825 2.320 . S
Tb2783 O2826 2.552 1_556 S
Tb2783 O2827 2.413 1_556 S
Tb2783 C2847 2.833 1_556 S
N2784 C2776 1.360 . S
N2784 Tb2783 2.660 . S
N2784 C2785 1.305 . S
C2785 N2784 1.305 . S
C2785 C2787 1.407 . S
C2785 H2792 0.930 . S
C2786 C2774 1.410 . S
C2786 C2787 1.345 . S
C2786 H2794 0.930 . S
C2787 C2785 1.407 . S
C2787 C2786 1.345 . S
C2787 H2789 0.930 . S
H2788 C2781 0.930 . S
H2789 C2787 0.930 . S
H2790 C2778 0.930 . S
H2791 C2779 0.931 . S
H2792 C2785 0.930 . S
H2793 C2807 0.930 1_554 S
H2794 C2786 0.930 . S
H2795 C2813 0.930 . S
H2796 C2804 0.930 . S
H2797 C2811 0.931 . S
H2798 C2775 0.929 . S
H2799 C2805 0.930 . S
H2800 C2838 0.930 . S
H2801 C2782 0.930 . S
H2802 C2837 0.929 . S
N2803 Tb2772 2.660 . S
N2803 C2804 1.305 . S
N2803 C2808 1.360 . S
C2804 H2796 0.930 . S
C2804 N2803 1.305 . S
C2804 C2807 1.407 . S
C2805 H2799 0.930 . S
C2805 C2806 1.410 . S
C2805 C2807 1.345 . S
C2806 C2805 1.410 . S
C2806 C2808 1.417 . S
C2806 C2838 1.432 . S
C2807 H2793 0.930 1_556 S
C2807 C2804 1.407 . S
C2807 C2805 1.345 . S
C2808 N2803 1.360 . S
C2808 C2806 1.417 . S
C2808 C2812 1.432 . S
H2809 C2814 0.930 . S
N2810 Tb2772 2.600 . S
N2810 C2812 1.359 . S
N2810 C2813 1.327 . S
C2811 H2797 0.931 . S
C2811 C2813 1.392 . S
C2811 C2814 1.370 . S
C2812 C2808 1.432 . S
C2812 N2810 1.359 . S
C2812 C2815 1.414 . S
C2813 H2795 0.930 . S
C2813 N2810 1.327 . S
C2813 C2811 1.392 . S
C2814 H2809 0.930 . S
C2814 C2811 1.370 . S
C2814 C2815 1.385 . S
C2815 C2812 1.414 . S
C2815 C2814 1.385 . S
C2815 C2837 1.444 . S
O2816 Tb2772 2.546 . S
O2816 C2836 1.251 . S
O2817 Tb2772 2.610 . S
O2817 Tb2783 2.362 . S
O2817 C2828 1.283 . S
O2818 Tb2783 2.421 . S
O2818 C2835 1.262 . S
O2819 Tb2772 2.320 . S
O2819 C2835 1.260 . S
O2820 Tb2772 2.552 . S
O2820 C2828 1.243 . S
O2821 Tb2772 2.413 . S
O2821 C2836 1.256 . S
O2822 Tb2783 2.546 1_554 S
O2822 C2847 1.251 . S
O2823 Tb2772 2.362 . S
O2823 Tb2783 2.610 . S
O2823 C2839 1.283 . S
O2824 Tb2772 2.421 . S
O2824 C2846 1.262 . S
O2825 Tb2783 2.320 . S
O2825 C2846 1.260 . S
O2826 Tb2783 2.552 1_554 S
O2826 C2839 1.243 1_554 S
O2827 Tb2783 2.413 1_554 S
O2827 C2847 1.256 . S
C2828 O2817 1.283 . S
C2828 O2820 1.243 . S
C2829 C2831 1.382 . S
C2829 C2833 1.393 . S
C2829 C2836 1.500 . S
C2830 C2831 1.400 . S
C2830 C2832 1.384 . S
C2831 C2829 1.382 . S
C2831 C2830 1.400 . S
C2831 H2848 0.930 . S
C2832 C2830 1.384 . S
C2832 C2834 1.392 . S
C2832 H2849 0.931 . S
C2833 C2829 1.393 . S
C2833 C2834 1.401 . S
C2833 H2850 0.930 . S
C2834 C2832 1.392 . S
C2834 C2833 1.401 . S
C2834 H2851 0.930 . S
C2835 O2818 1.262 . S
C2835 O2819 1.260 . S
C2836 Tb2772 2.833 . S
C2836 O2816 1.251 . S
C2836 O2821 1.256 . S
C2836 C2829 1.500 . S
C2837 H2802 0.929 . S
C2837 C2815 1.444 . S
C2837 C2838 1.317 . S
C2838 H2800 0.930 . S
C2838 C2806 1.432 . S
C2838 C2837 1.317 . S
C2839 O2823 1.283 . S
C2839 O2826 1.243 1_556 S
C2840 C2841 1.382 . S
C2840 C2844 1.393 . S
C2840 C2847 1.500 . S
C2841 C2840 1.382 . S
C2841 C2842 1.400 . S
C2841 H2852 0.930 . S
C2842 C2841 1.400 . S
C2842 C2843 1.384 . S
C2843 C2842 1.384 . S
C2843 C2845 1.392 . S
C2843 H2853 0.931 . S
C2844 C2840 1.393 . S
C2844 C2845 1.401 . S
C2844 H2854 0.930 . S
C2845 C2843 1.392 . S
C2845 C2844 1.401 . S
C2845 H2855 0.930 . S
C2846 O2824 1.262 . S
C2846 O2825 1.260 . S
C2847 Tb2783 2.833 1_554 S
C2847 O2822 1.251 . S
C2847 O2827 1.256 . S
C2847 C2840 1.500 . S
H2848 C2831 0.930 . S
H2849 C2832 0.931 . S
H2850 C2833 0.930 . S
H2851 C2834 0.930 . S
H2852 C2841 0.930 . S
H2853 C2843 0.931 . S
H2854 C2844 0.930 . S
H2855 C2845 0.930 . S
Tb2856 N2887 2.660 . S
Tb2856 N2894 2.600 . S
Tb2856 O2900 2.546 . S
Tb2856 O2901 2.610 . S
Tb2856 O2903 2.320 . S
Tb2856 O2904 2.552 . S
Tb2856 O2905 2.413 . S
Tb2856 O2907 2.362 . S
Tb2856 O2908 2.421 . S
Tb2856 C2920 2.833 . S
C2857 C2860 1.432 . S
C2857 C2861 1.414 . S
C2857 N2864 1.359 . S
C2858 C2860 1.417 . S
C2858 C2862 1.432 . S
C2858 C2870 1.410 . S
C2859 C2861 1.444 . S
C2859 C2862 1.317 . S
C2859 H2882 0.929 . S
C2860 C2857 1.432 . S
C2860 C2858 1.417 . S
C2860 N2868 1.360 . S
C2861 C2857 1.414 . S
C2861 C2859 1.444 . S
C2861 C2866 1.385 . S
C2862 C2858 1.432 . S
C2862 C2859 1.317 . S
C2862 H2874 0.930 . S
C2863 C2865 1.392 . S
C2863 C2866 1.370 . S
C2863 H2875 0.931 . S
N2864 C2857 1.359 . S
N2864 C2865 1.327 . S
N2864 Tb2867 2.600 . S
C2865 C2863 1.392 . S
C2865 N2864 1.327 . S
C2865 H2872 0.930 . S
C2866 C2861 1.385 . S
C2866 C2863 1.370 . S
C2866 H2885 0.930 . S
Tb2867 N2864 2.600 . S
Tb2867 N2868 2.660 . S
Tb2867 O2901 2.362 . S
Tb2867 O2902 2.421 . S
Tb2867 O2906 2.546 . S
Tb2867 O2907 2.610 . S
Tb2867 O2909 2.320 . S
Tb2867 O2910 2.552 . S
Tb2867 O2911 2.413 . S
Tb2867 C2931 2.833 . S
N2868 C2860 1.360 . S
N2868 Tb2867 2.660 . S
N2868 C2869 1.305 . S
C2869 N2868 1.305 . S
C2869 C2871 1.407 . S
C2869 H2876 0.930 . S
C2870 C2858 1.410 . S
C2870 C2871 1.345 . S
C2870 H2878 0.930 . S
C2871 C2869 1.407 . S
C2871 C2870 1.345 . S
C2871 H2873 0.930 . S
H2872 C2865 0.930 . S
H2873 C2871 0.930 . S
H2874 C2862 0.930 . S
H2875 C2863 0.931 . S
H2876 C2869 0.930 . S
H2877 C2891 0.930 . S
H2878 C2870 0.930 . S
H2879 C2897 0.930 . S
H2880 C2888 0.930 . S
H2881 C2895 0.931 . S
H2882 C2859 0.929 . S
H2883 C2889 0.930 . S
H2884 C2922 0.930 . S
H2885 C2866 0.930 . S
H2886 C2921 0.929 . S
N2887 Tb2856 2.660 . S
N2887 C2888 1.305 . S
N2887 C2892 1.360 . S
C2888 H2880 0.930 . S
C2888 N2887 1.305 . S
C2888 C2891 1.407 . S
C2889 H2883 0.930 . S
C2889 C2890 1.410 . S
C2889 C2891 1.345 . S
C2890 C2889 1.410 . S
C2890 C2892 1.417 . S
C2890 C2922 1.432 . S
C2891 H2877 0.930 . S
C2891 C2888 1.407 . S
C2891 C2889 1.345 . S
C2892 N2887 1.360 . S
C2892 C2890 1.417 . S
C2892 C2896 1.432 . S
H2893 C2898 0.930 . S
N2894 Tb2856 2.600 . S
N2894 C2896 1.359 . S
N2894 C2897 1.327 . S
C2895 H2881 0.931 . S
C2895 C2897 1.392 . S
C2895 C2898 1.370 . S
C2896 C2892 1.432 . S
C2896 N2894 1.359 . S
C2896 C2899 1.414 . S
C2897 H2879 0.930 . S
C2897 N2894 1.327 . S
C2897 C2895 1.392 . S
C2898 H2893 0.930 . S
C2898 C2895 1.370 . S
C2898 C2899 1.385 . S
C2899 C2896 1.414 . S
C2899 C2898 1.385 . S
C2899 C2921 1.444 . S
O2900 Tb2856 2.546 . S
O2900 C2920 1.251 . S
O2901 Tb2856 2.610 . S
O2901 Tb2867 2.362 . S
O2901 C2912 1.283 . S
O2902 Tb2867 2.421 . S
O2902 C2919 1.262 . S
O2903 Tb2856 2.320 . S
O2903 C2919 1.260 . S
O2904 Tb2856 2.552 . S
O2904 C2912 1.243 . S
O2905 Tb2856 2.413 . S
O2905 C2920 1.256 . S
O2906 Tb2867 2.546 . S
O2906 C2931 1.251 . S
O2907 Tb2856 2.362 . S
O2907 Tb2867 2.610 . S
O2907 C2923 1.283 . S
O2908 Tb2856 2.421 . S
O2908 C2930 1.262 . S
O2909 Tb2867 2.320 . S
O2909 C2930 1.260 . S
O2910 Tb2867 2.552 . S
O2910 C2923 1.243 . S
O2911 Tb2867 2.413 . S
O2911 C2931 1.256 . S
C2912 O2901 1.283 . S
C2912 O2904 1.243 . S
C2913 C2915 1.382 . S
C2913 C2917 1.393 . S
C2913 C2920 1.500 . S
C2914 C2915 1.400 . S
C2914 C2916 1.384 . S
C2915 C2913 1.382 . S
C2915 C2914 1.400 . S
C2915 H2932 0.930 . S
C2916 C2914 1.384 . S
C2916 C2918 1.392 . S
C2916 H2933 0.931 . S
C2917 C2913 1.393 . S
C2917 C2918 1.401 . S
C2917 H2934 0.930 . S
C2918 C2916 1.392 . S
C2918 C2917 1.401 . S
C2918 H2935 0.930 . S
C2919 O2902 1.262 . S
C2919 O2903 1.260 . S
C2920 Tb2856 2.833 . S
C2920 O2900 1.251 . S
C2920 O2905 1.256 . S
C2920 C2913 1.500 . S
C2921 H2886 0.929 . S
C2921 C2899 1.444 . S
C2921 C2922 1.317 . S
C2922 H2884 0.930 . S
C2922 C2890 1.432 . S
C2922 C2921 1.317 . S
C2923 O2907 1.283 . S
C2923 O2910 1.243 . S
C2924 C2925 1.382 . S
C2924 C2928 1.393 . S
C2924 C2931 1.500 . S
C2925 C2924 1.382 . S
C2925 C2926 1.400 . S
C2925 H2936 0.930 . S
C2926 C2925 1.400 . S
C2926 C2927 1.384 . S
C2927 C2926 1.384 . S
C2927 C2929 1.392 . S
C2927 H2937 0.931 . S
C2928 C2924 1.393 . S
C2928 C2929 1.401 . S
C2928 H2938 0.930 . S
C2929 C2927 1.392 . S
C2929 C2928 1.401 . S
C2929 H2939 0.930 . S
C2930 O2908 1.262 . S
C2930 O2909 1.260 . S
C2931 Tb2867 2.833 . S
C2931 O2906 1.251 . S
C2931 O2911 1.256 . S
C2931 C2924 1.500 . S
H2932 C2915 0.930 . S
H2933 C2916 0.931 . S
H2934 C2917 0.930 . S
H2935 C2918 0.930 . S
H2936 C2925 0.930 . S
H2937 C2927 0.931 . S
H2938 C2928 0.930 . S
H2939 C2929 0.930 . S
Tb2940 N2971 2.660 . S
Tb2940 N2978 2.600 . S
Tb2940 O2984 2.546 . S
Tb2940 O2985 2.610 . S
Tb2940 O2987 2.320 . S
Tb2940 O2988 2.552 . S
Tb2940 O2989 2.413 . S
Tb2940 O2991 2.362 . S
Tb2940 O2992 2.421 . S
Tb2940 C3004 2.833 . S
C2941 C2944 1.432 . S
C2941 C2945 1.414 . S
C2941 N2948 1.359 . S
C2942 C2944 1.417 . S
C2942 C2946 1.432 . S
C2942 C2954 1.410 . S
C2943 C2945 1.444 . S
C2943 C2946 1.317 . S
C2943 H2966 0.929 . S
C2944 C2941 1.432 . S
C2944 C2942 1.417 . S
C2944 N2952 1.360 . S
C2945 C2941 1.414 . S
C2945 C2943 1.444 . S
C2945 C2950 1.385 . S
C2946 C2942 1.432 . S
C2946 C2943 1.317 . S
C2946 H2958 0.930 . S
C2947 C2949 1.392 . S
C2947 C2950 1.370 . S
C2947 H2959 0.931 . S
N2948 C2941 1.359 . S
N2948 C2949 1.327 . S
N2948 Tb2951 2.600 . S
C2949 C2947 1.392 . S
C2949 N2948 1.327 . S
C2949 H2956 0.930 . S
C2950 C2945 1.385 . S
C2950 C2947 1.370 . S
C2950 H2969 0.930 . S
Tb2951 N2948 2.600 . S
Tb2951 N2952 2.660 . S
Tb2951 O2985 2.362 . S
Tb2951 O2986 2.421 . S
Tb2951 O2990 2.546 . S
Tb2951 O2991 2.610 . S
Tb2951 O2993 2.320 . S
Tb2951 O2994 2.552 . S
Tb2951 O2995 2.413 . S
Tb2951 C3015 2.833 . S
N2952 C2944 1.360 . S
N2952 Tb2951 2.660 . S
N2952 C2953 1.305 . S
C2953 N2952 1.305 . S
C2953 C2955 1.407 . S
C2953 H2960 0.930 . S
C2954 C2942 1.410 . S
C2954 C2955 1.345 . S
C2954 H2962 0.930 . S
C2955 C2953 1.407 . S
C2955 C2954 1.345 . S
C2955 H2957 0.930 . S
H2956 C2949 0.930 . S
H2957 C2955 0.930 . S
H2958 C2946 0.930 . S
H2959 C2947 0.931 . S
H2960 C2953 0.930 . S
H2961 C2975 0.930 . S
H2962 C2954 0.930 . S
H2963 C2981 0.930 . S
H2964 C2972 0.930 . S
H2965 C2979 0.931 . S
H2966 C2943 0.929 . S
H2967 C2973 0.930 . S
H2968 C3006 0.930 . S
H2969 C2950 0.930 . S
H2970 C3005 0.929 . S
N2971 Tb2940 2.660 . S
N2971 C2972 1.305 . S
N2971 C2976 1.360 . S
C2972 H2964 0.930 . S
C2972 N2971 1.305 . S
C2972 C2975 1.407 . S
C2973 H2967 0.930 . S
C2973 C2974 1.410 . S
C2973 C2975 1.345 . S
C2974 C2973 1.410 . S
C2974 C2976 1.417 . S
C2974 C3006 1.432 . S
C2975 H2961 0.930 . S
C2975 C2972 1.407 . S
C2975 C2973 1.345 . S
C2976 N2971 1.360 . S
C2976 C2974 1.417 . S
C2976 C2980 1.432 . S
H2977 C2982 0.930 . S
N2978 Tb2940 2.600 . S
N2978 C2980 1.359 . S
N2978 C2981 1.327 . S
C2979 H2965 0.931 . S
C2979 C2981 1.392 . S
C2979 C2982 1.370 . S
C2980 C2976 1.432 . S
C2980 N2978 1.359 . S
C2980 C2983 1.414 . S
C2981 H2963 0.930 . S
C2981 N2978 1.327 . S
C2981 C2979 1.392 . S
C2982 H2977 0.930 . S
C2982 C2979 1.370 . S
C2982 C2983 1.385 . S
C2983 C2980 1.414 . S
C2983 C2982 1.385 . S
C2983 C3005 1.444 . S
O2984 Tb2940 2.546 . S
O2984 C3004 1.251 . S
O2985 Tb2940 2.610 . S
O2985 Tb2951 2.362 . S
O2985 C2996 1.283 . S
O2986 Tb2951 2.421 . S
O2986 C3003 1.262 . S
O2987 Tb2940 2.320 . S
O2987 C3003 1.260 . S
O2988 Tb2940 2.552 . S
O2988 C2996 1.243 . S
O2989 Tb2940 2.413 . S
O2989 C3004 1.256 . S
O2990 Tb2951 2.546 . S
O2990 C3015 1.251 . S
O2991 Tb2940 2.362 . S
O2991 Tb2951 2.610 . S
O2991 C3007 1.283 . S
O2992 Tb2940 2.421 . S
O2992 C3014 1.262 . S
O2993 Tb2951 2.320 . S
O2993 C3014 1.260 . S
O2994 Tb2951 2.552 . S
O2994 C3007 1.243 . S
O2995 Tb2951 2.413 . S
O2995 C3015 1.256 . S
C2996 O2985 1.283 . S
C2996 O2988 1.243 . S
C2997 C2999 1.382 . S
C2997 C3001 1.393 . S
C2997 C3004 1.500 . S
C2998 C2999 1.400 . S
C2998 C3000 1.384 . S
C2999 C2997 1.382 . S
C2999 C2998 1.400 . S
C2999 H3016 0.930 . S
C3000 C2998 1.384 . S
C3000 C3002 1.392 . S
C3000 H3017 0.931 . S
C3001 C2997 1.393 . S
C3001 C3002 1.401 . S
C3001 H3018 0.930 . S
C3002 C3000 1.392 . S
C3002 C3001 1.401 . S
C3002 H3019 0.930 . S
C3003 O2986 1.262 . S
C3003 O2987 1.260 . S
C3004 Tb2940 2.833 . S
C3004 O2984 1.251 . S
C3004 O2989 1.256 . S
C3004 C2997 1.500 . S
C3005 H2970 0.929 . S
C3005 C2983 1.444 . S
C3005 C3006 1.317 . S
C3006 H2968 0.930 . S
C3006 C2974 1.432 . S
C3006 C3005 1.317 . S
C3007 O2991 1.283 . S
C3007 O2994 1.243 . S
C3008 C3009 1.382 . S
C3008 C3012 1.393 . S
C3008 C3015 1.500 . S
C3009 C3008 1.382 . S
C3009 C3010 1.400 . S
C3009 H3020 0.930 . S
C3010 C3009 1.400 . S
C3010 C3011 1.384 . S
C3011 C3010 1.384 . S
C3011 C3013 1.392 . S
C3011 H3021 0.931 . S
C3012 C3008 1.393 . S
C3012 C3013 1.401 . S
C3012 H3022 0.930 . S
C3013 C3011 1.392 . S
C3013 C3012 1.401 . S
C3013 H3023 0.930 . S
C3014 O2992 1.262 . S
C3014 O2993 1.260 . S
C3015 Tb2951 2.833 . S
C3015 O2990 1.251 . S
C3015 O2995 1.256 . S
C3015 C3008 1.500 . S
H3016 C2999 0.930 . S
H3017 C3000 0.931 . S
H3018 C3001 0.930 . S
H3019 C3002 0.930 . S
H3020 C3009 0.930 . S
H3021 C3011 0.931 . S
H3022 C3012 0.930 . S
H3023 C3013 0.930 . S
Tb3024 N3055 2.660 . S
Tb3024 N3062 2.600 . S
Tb3024 O3068 2.546 . S
Tb3024 O3069 2.610 . S
Tb3024 O3071 2.320 . S
Tb3024 O3072 2.552 . S
Tb3024 O3073 2.413 . S
Tb3024 O3075 2.362 . S
Tb3024 O3076 2.421 . S
Tb3024 C3088 2.833 . S
C3025 C3028 1.432 . S
C3025 C3029 1.414 . S
C3025 N3032 1.359 . S
C3026 C3028 1.417 . S
C3026 C3030 1.432 . S
C3026 C3038 1.410 . S
C3027 C3029 1.444 . S
C3027 C3030 1.317 . S
C3027 H3050 0.929 . S
C3028 C3025 1.432 . S
C3028 C3026 1.417 . S
C3028 N3036 1.360 . S
C3029 C3025 1.414 . S
C3029 C3027 1.444 . S
C3029 C3034 1.385 . S
C3030 C3026 1.432 . S
C3030 C3027 1.317 . S
C3030 H3042 0.930 . S
C3031 C3033 1.392 . S
C3031 C3034 1.370 . S
C3031 H3043 0.931 . S
N3032 C3025 1.359 . S
N3032 C3033 1.327 . S
N3032 Tb3035 2.600 . S
C3033 C3031 1.392 . S
C3033 N3032 1.327 . S
C3033 H3040 0.930 . S
C3034 C3029 1.385 . S
C3034 C3031 1.370 . S
C3034 H3053 0.930 . S
Tb3035 N3032 2.600 . S
Tb3035 N3036 2.660 . S
Tb3035 O3069 2.362 . S
Tb3035 O3070 2.421 . S
Tb3035 O3074 2.546 . S
Tb3035 O3075 2.610 . S
Tb3035 O3077 2.320 . S
Tb3035 O3078 2.552 . S
Tb3035 O3079 2.413 . S
Tb3035 C3099 2.833 . S
N3036 C3028 1.360 . S
N3036 Tb3035 2.660 . S
N3036 C3037 1.305 . S
C3037 N3036 1.305 . S
C3037 C3039 1.407 . S
C3037 H3044 0.930 . S
C3038 C3026 1.410 . S
C3038 C3039 1.345 . S
C3038 H3046 0.930 . S
C3039 C3037 1.407 . S
C3039 C3038 1.345 . S
C3039 H3041 0.930 . S
H3040 C3033 0.930 . S
H3041 C3039 0.930 . S
H3042 C3030 0.930 . S
H3043 C3031 0.931 . S
H3044 C3037 0.930 . S
H3045 C3059 0.930 . S
H3046 C3038 0.930 . S
H3047 C3065 0.930 . S
H3048 C3056 0.930 . S
H3049 C3063 0.931 . S
H3050 C3027 0.929 . S
H3051 C3057 0.930 . S
H3052 C3090 0.930 . S
H3053 C3034 0.930 . S
H3054 C3089 0.929 . S
N3055 Tb3024 2.660 . S
N3055 C3056 1.305 . S
N3055 C3060 1.360 . S
C3056 H3048 0.930 . S
C3056 N3055 1.305 . S
C3056 C3059 1.407 . S
C3057 H3051 0.930 . S
C3057 C3058 1.410 . S
C3057 C3059 1.345 . S
C3058 C3057 1.410 . S
C3058 C3060 1.417 . S
C3058 C3090 1.432 . S
C3059 H3045 0.930 . S
C3059 C3056 1.407 . S
C3059 C3057 1.345 . S
C3060 N3055 1.360 . S
C3060 C3058 1.417 . S
C3060 C3064 1.432 . S
H3061 C3066 0.930 . S
N3062 Tb3024 2.600 . S
N3062 C3064 1.359 . S
N3062 C3065 1.327 . S
C3063 H3049 0.931 . S
C3063 C3065 1.392 . S
C3063 C3066 1.370 . S
C3064 C3060 1.432 . S
C3064 N3062 1.359 . S
C3064 C3067 1.414 . S
C3065 H3047 0.930 . S
C3065 N3062 1.327 . S
C3065 C3063 1.392 . S
C3066 H3061 0.930 . S
C3066 C3063 1.370 . S
C3066 C3067 1.385 . S
C3067 C3064 1.414 . S
C3067 C3066 1.385 . S
C3067 C3089 1.444 . S
O3068 Tb3024 2.546 . S
O3068 C3088 1.251 . S
O3069 Tb3024 2.610 . S
O3069 Tb3035 2.362 . S
O3069 C3080 1.283 . S
O3070 Tb3035 2.421 . S
O3070 C3087 1.262 . S
O3071 Tb3024 2.320 . S
O3071 C3087 1.260 . S
O3072 Tb3024 2.552 . S
O3072 C3080 1.243 . S
O3073 Tb3024 2.413 . S
O3073 C3088 1.256 . S
O3074 Tb3035 2.546 . S
O3074 C3099 1.251 . S
O3075 Tb3024 2.362 . S
O3075 Tb3035 2.610 . S
O3075 C3091 1.283 . S
O3076 Tb3024 2.421 . S
O3076 C3098 1.262 . S
O3077 Tb3035 2.320 . S
O3077 C3098 1.260 . S
O3078 Tb3035 2.552 . S
O3078 C3091 1.243 . S
O3079 Tb3035 2.413 . S
O3079 C3099 1.256 . S
C3080 O3069 1.283 . S
C3080 O3072 1.243 . S
C3081 C3083 1.382 . S
C3081 C3085 1.393 . S
C3081 C3088 1.500 . S
C3082 C3083 1.400 . S
C3082 C3084 1.384 . S
C3083 C3081 1.382 . S
C3083 C3082 1.400 . S
C3083 H3100 0.930 . S
C3084 C3082 1.384 . S
C3084 C3086 1.392 . S
C3084 H3101 0.931 . S
C3085 C3081 1.393 . S
C3085 C3086 1.401 . S
C3085 H3102 0.930 . S
C3086 C3084 1.392 . S
C3086 C3085 1.401 . S
C3086 H3103 0.930 . S
C3087 O3070 1.262 . S
C3087 O3071 1.260 . S
C3088 Tb3024 2.833 . S
C3088 O3068 1.251 . S
C3088 O3073 1.256 . S
C3088 C3081 1.500 . S
C3089 H3054 0.929 . S
C3089 C3067 1.444 . S
C3089 C3090 1.317 . S
C3090 H3052 0.930 . S
C3090 C3058 1.432 . S
C3090 C3089 1.317 . S
C3091 O3075 1.283 . S
C3091 O3078 1.243 . S
C3092 C3093 1.382 . S
C3092 C3096 1.393 . S
C3092 C3099 1.500 . S
C3093 C3092 1.382 . S
C3093 C3094 1.400 . S
C3093 H3104 0.930 . S
C3094 C3093 1.400 . S
C3094 C3095 1.384 . S
C3095 C3094 1.384 . S
C3095 C3097 1.392 . S
C3095 H3105 0.931 . S
C3096 C3092 1.393 . S
C3096 C3097 1.401 . S
C3096 H3106 0.930 . S
C3097 C3095 1.392 . S
C3097 C3096 1.401 . S
C3097 H3107 0.930 . S
C3098 O3076 1.262 . S
C3098 O3077 1.260 . S
C3099 Tb3035 2.833 . S
C3099 O3074 1.251 . S
C3099 O3079 1.256 . S
C3099 C3092 1.500 . S
H3100 C3083 0.930 . S
H3101 C3084 0.931 . S
H3102 C3085 0.930 . S
H3103 C3086 0.930 . S
H3104 C3093 0.930 . S
H3105 C3095 0.931 . S
H3106 C3096 0.930 . S
H3107 C3097 0.930 . S
Tb3108 N3139 2.660 . S
Tb3108 N3146 2.600 . S
Tb3108 O3152 2.546 . S
Tb3108 O3153 2.610 . S
Tb3108 O3155 2.320 . S
Tb3108 O3156 2.552 . S
Tb3108 O3157 2.413 . S
Tb3108 O3159 2.362 . S
Tb3108 O3160 2.421 . S
Tb3108 C3172 2.833 . S
C3109 C3112 1.432 . S
C3109 C3113 1.414 . S
C3109 N3116 1.359 . S
C3110 C3112 1.417 . S
C3110 C3114 1.432 . S
C3110 C3122 1.410 . S
C3111 C3113 1.444 . S
C3111 C3114 1.317 . S
C3111 H3134 0.929 . S
C3112 C3109 1.432 . S
C3112 C3110 1.417 . S
C3112 N3120 1.360 . S
C3113 C3109 1.414 . S
C3113 C3111 1.444 . S
C3113 C3118 1.385 . S
C3114 C3110 1.432 . S
C3114 C3111 1.317 . S
C3114 H3126 0.930 . S
C3115 C3117 1.392 . S
C3115 C3118 1.370 . S
C3115 H3127 0.931 . S
N3116 C3109 1.359 . S
N3116 C3117 1.327 . S
N3116 Tb3119 2.600 . S
C3117 C3115 1.392 . S
C3117 N3116 1.327 . S
C3117 H3124 0.930 . S
C3118 C3113 1.385 . S
C3118 C3115 1.370 . S
C3118 H3137 0.930 . S
Tb3119 N3116 2.600 . S
Tb3119 N3120 2.660 . S
Tb3119 O3153 2.362 . S
Tb3119 O3154 2.421 . S
Tb3119 O3158 2.546 . S
Tb3119 O3159 2.610 . S
Tb3119 O3161 2.320 . S
Tb3119 O3162 2.552 . S
Tb3119 O3163 2.413 . S
Tb3119 C3183 2.833 . S
N3120 C3112 1.360 . S
N3120 Tb3119 2.660 . S
N3120 C3121 1.305 . S
C3121 N3120 1.305 . S
C3121 C3123 1.407 . S
C3121 H3128 0.930 . S
C3122 C3110 1.410 . S
C3122 C3123 1.345 . S
C3122 H3130 0.930 . S
C3123 C3121 1.407 . S
C3123 C3122 1.345 . S
C3123 H3125 0.930 . S
H3124 C3117 0.930 . S
H3125 C3123 0.930 . S
H3126 C3114 0.930 . S
H3127 C3115 0.931 . S
H3128 C3121 0.930 . S
H3129 C3143 0.930 . S
H3130 C3122 0.930 . S
H3131 C3149 0.930 . S
H3132 C3140 0.930 . S
H3133 C3147 0.931 . S
H3134 C3111 0.929 . S
H3135 C3141 0.930 . S
H3136 C3174 0.930 . S
H3137 C3118 0.930 . S
H3138 C3173 0.929 . S
N3139 Tb3108 2.660 . S
N3139 C3140 1.305 . S
N3139 C3144 1.360 . S
C3140 H3132 0.930 . S
C3140 N3139 1.305 . S
C3140 C3143 1.407 . S
C3141 H3135 0.930 . S
C3141 C3142 1.410 . S
C3141 C3143 1.345 . S
C3142 C3141 1.410 . S
C3142 C3144 1.417 . S
C3142 C3174 1.432 . S
C3143 H3129 0.930 . S
C3143 C3140 1.407 . S
C3143 C3141 1.345 . S
C3144 N3139 1.360 . S
C3144 C3142 1.417 . S
C3144 C3148 1.432 . S
H3145 C3150 0.930 . S
N3146 Tb3108 2.600 . S
N3146 C3148 1.359 . S
N3146 C3149 1.327 . S
C3147 H3133 0.931 . S
C3147 C3149 1.392 . S
C3147 C3150 1.370 . S
C3148 C3144 1.432 . S
C3148 N3146 1.359 . S
C3148 C3151 1.414 . S
C3149 H3131 0.930 . S
C3149 N3146 1.327 . S
C3149 C3147 1.392 . S
C3150 H3145 0.930 . S
C3150 C3147 1.370 . S
C3150 C3151 1.385 . S
C3151 C3148 1.414 . S
C3151 C3150 1.385 . S
C3151 C3173 1.444 . S
O3152 Tb3108 2.546 . S
O3152 C3172 1.251 . S
O3153 Tb3108 2.610 . S
O3153 Tb3119 2.362 . S
O3153 C3164 1.283 . S
O3154 Tb3119 2.421 . S
O3154 C3171 1.262 . S
O3155 Tb3108 2.320 . S
O3155 C3171 1.260 . S
O3156 Tb3108 2.552 . S
O3156 C3164 1.243 . S
O3157 Tb3108 2.413 . S
O3157 C3172 1.256 . S
O3158 Tb3119 2.546 . S
O3158 C3183 1.251 . S
O3159 Tb3108 2.362 . S
O3159 Tb3119 2.610 . S
O3159 C3175 1.283 . S
O3160 Tb3108 2.421 . S
O3160 C3182 1.262 . S
O3161 Tb3119 2.320 . S
O3161 C3182 1.260 . S
O3162 Tb3119 2.552 . S
O3162 C3175 1.243 . S
O3163 Tb3119 2.413 . S
O3163 C3183 1.256 . S
C3164 O3153 1.283 . S
C3164 O3156 1.243 . S
C3165 C3167 1.382 . S
C3165 C3169 1.393 . S
C3165 C3172 1.500 . S
C3166 C3167 1.400 . S
C3166 C3168 1.384 . S
C3167 C3165 1.382 . S
C3167 C3166 1.400 . S
C3167 H3184 0.930 . S
C3168 C3166 1.384 . S
C3168 C3170 1.392 . S
C3168 H3185 0.931 . S
C3169 C3165 1.393 . S
C3169 C3170 1.401 . S
C3169 H3186 0.930 . S
C3170 C3168 1.392 . S
C3170 C3169 1.401 . S
C3170 H3187 0.930 . S
C3171 O3154 1.262 . S
C3171 O3155 1.260 . S
C3172 Tb3108 2.833 . S
C3172 O3152 1.251 . S
C3172 O3157 1.256 . S
C3172 C3165 1.500 . S
C3173 H3138 0.929 . S
C3173 C3151 1.444 . S
C3173 C3174 1.317 . S
C3174 H3136 0.930 . S
C3174 C3142 1.432 . S
C3174 C3173 1.317 . S
C3175 O3159 1.283 . S
C3175 O3162 1.243 . S
C3176 C3177 1.382 . S
C3176 C3180 1.393 . S
C3176 C3183 1.500 . S
C3177 C3176 1.382 . S
C3177 C3178 1.400 . S
C3177 H3188 0.930 . S
C3178 C3177 1.400 . S
C3178 C3179 1.384 . S
C3179 C3178 1.384 . S
C3179 C3181 1.392 . S
C3179 H3189 0.931 . S
C3180 C3176 1.393 . S
C3180 C3181 1.401 . S
C3180 H3190 0.930 . S
C3181 C3179 1.392 . S
C3181 C3180 1.401 . S
C3181 H3191 0.930 . S
C3182 O3160 1.262 . S
C3182 O3161 1.260 . S
C3183 Tb3119 2.833 . S
C3183 O3158 1.251 . S
C3183 O3163 1.256 . S
C3183 C3176 1.500 . S
H3184 C3167 0.930 . S
H3185 C3168 0.931 . S
H3186 C3169 0.930 . S
H3187 C3170 0.930 . S
H3188 C3177 0.930 . S
H3189 C3179 0.931 . S
H3190 C3180 0.930 . S
H3191 C3181 0.930 . S
Tb3192 N3223 2.660 . S
Tb3192 N3230 2.600 . S
Tb3192 O3236 2.546 . S
Tb3192 O3237 2.610 . S
Tb3192 O3239 2.320 . S
Tb3192 O3240 2.552 . S
Tb3192 O3241 2.413 . S
Tb3192 O3243 2.362 . S
Tb3192 O3244 2.421 . S
Tb3192 C3256 2.833 . S
C3193 C3196 1.432 . S
C3193 C3197 1.414 . S
C3193 N3200 1.359 . S
C3194 C3196 1.417 . S
C3194 C3198 1.432 . S
C3194 C3206 1.410 . S
C3195 C3197 1.444 . S
C3195 C3198 1.317 . S
C3195 H3218 0.929 . S
C3196 C3193 1.432 . S
C3196 C3194 1.417 . S
C3196 N3204 1.360 . S
C3197 C3193 1.414 . S
C3197 C3195 1.444 . S
C3197 C3202 1.385 . S
C3198 C3194 1.432 . S
C3198 C3195 1.317 . S
C3198 H3210 0.930 . S
C3199 C3201 1.392 . S
C3199 C3202 1.370 . S
C3199 H3211 0.931 . S
N3200 C3193 1.359 . S
N3200 C3201 1.327 . S
N3200 Tb3203 2.600 . S
C3201 C3199 1.392 . S
C3201 N3200 1.327 . S
C3201 H3208 0.930 . S
C3202 C3197 1.385 . S
C3202 C3199 1.370 . S
C3202 H3221 0.930 . S
Tb3203 N3200 2.600 . S
Tb3203 N3204 2.660 . S
Tb3203 O3237 2.362 . S
Tb3203 O3238 2.421 . S
Tb3203 O3242 2.546 . S
Tb3203 O3243 2.610 . S
Tb3203 O3245 2.320 . S
Tb3203 O3246 2.552 . S
Tb3203 O3247 2.413 . S
Tb3203 C3267 2.833 . S
N3204 C3196 1.360 . S
N3204 Tb3203 2.660 . S
N3204 C3205 1.305 . S
C3205 N3204 1.305 . S
C3205 C3207 1.407 . S
C3205 H3212 0.930 . S
C3206 C3194 1.410 . S
C3206 C3207 1.345 . S
C3206 H3214 0.930 . S
C3207 C3205 1.407 . S
C3207 C3206 1.345 . S
C3207 H3209 0.930 . S
H3208 C3201 0.930 . S
H3209 C3207 0.930 . S
H3210 C3198 0.930 . S
H3211 C3199 0.931 . S
H3212 C3205 0.930 . S
H3213 C3227 0.930 . S
H3214 C3206 0.930 . S
H3215 C3233 0.930 . S
H3216 C3224 0.930 . S
H3217 C3231 0.931 . S
H3218 C3195 0.929 . S
H3219 C3225 0.930 . S
H3220 C3258 0.930 . S
H3221 C3202 0.930 . S
H3222 C3257 0.929 . S
N3223 Tb3192 2.660 . S
N3223 C3224 1.305 . S
N3223 C3228 1.360 . S
C3224 H3216 0.930 . S
C3224 N3223 1.305 . S
C3224 C3227 1.407 . S
C3225 H3219 0.930 . S
C3225 C3226 1.410 . S
C3225 C3227 1.345 . S
C3226 C3225 1.410 . S
C3226 C3228 1.417 . S
C3226 C3258 1.432 . S
C3227 H3213 0.930 . S
C3227 C3224 1.407 . S
C3227 C3225 1.345 . S
C3228 N3223 1.360 . S
C3228 C3226 1.417 . S
C3228 C3232 1.432 . S
H3229 C3234 0.930 . S
N3230 Tb3192 2.600 . S
N3230 C3232 1.359 . S
N3230 C3233 1.327 . S
C3231 H3217 0.931 . S
C3231 C3233 1.392 . S
C3231 C3234 1.370 . S
C3232 C3228 1.432 . S
C3232 N3230 1.359 . S
C3232 C3235 1.414 . S
C3233 H3215 0.930 . S
C3233 N3230 1.327 . S
C3233 C3231 1.392 . S
C3234 H3229 0.930 . S
C3234 C3231 1.370 . S
C3234 C3235 1.385 . S
C3235 C3232 1.414 . S
C3235 C3234 1.385 . S
C3235 C3257 1.444 . S
O3236 Tb3192 2.546 . S
O3236 C3256 1.251 . S
O3237 Tb3192 2.610 . S
O3237 Tb3203 2.362 . S
O3237 C3248 1.283 . S
O3238 Tb3203 2.421 . S
O3238 C3255 1.262 . S
O3239 Tb3192 2.320 . S
O3239 C3255 1.260 . S
O3240 Tb3192 2.552 . S
O3240 C3248 1.243 . S
O3241 Tb3192 2.413 . S
O3241 C3256 1.256 . S
O3242 Tb3203 2.546 . S
O3242 C3267 1.251 . S
O3243 Tb3192 2.362 . S
O3243 Tb3203 2.610 . S
O3243 C3259 1.283 . S
O3244 Tb3192 2.421 . S
O3244 C3266 1.262 . S
O3245 Tb3203 2.320 . S
O3245 C3266 1.260 . S
O3246 Tb3203 2.552 . S
O3246 C3259 1.243 . S
O3247 Tb3203 2.413 . S
O3247 C3267 1.256 . S
C3248 O3237 1.283 . S
C3248 O3240 1.243 . S
C3249 C3251 1.382 . S
C3249 C3253 1.393 . S
C3249 C3256 1.500 . S
C3250 C3251 1.400 . S
C3250 C3252 1.384 . S
C3251 C3249 1.382 . S
C3251 C3250 1.400 . S
C3251 H3268 0.930 . S
C3252 C3250 1.384 . S
C3252 C3254 1.392 . S
C3252 H3269 0.931 . S
C3253 C3249 1.393 . S
C3253 C3254 1.401 . S
C3253 H3270 0.930 . S
C3254 C3252 1.392 . S
C3254 C3253 1.401 . S
C3254 H3271 0.930 . S
C3255 O3238 1.262 . S
C3255 O3239 1.260 . S
C3256 Tb3192 2.833 . S
C3256 O3236 1.251 . S
C3256 O3241 1.256 . S
C3256 C3249 1.500 . S
C3257 H3222 0.929 . S
C3257 C3235 1.444 . S
C3257 C3258 1.317 . S
C3258 H3220 0.930 . S
C3258 C3226 1.432 . S
C3258 C3257 1.317 . S
C3259 O3243 1.283 . S
C3259 O3246 1.243 . S
C3260 C3261 1.382 . S
C3260 C3264 1.393 . S
C3260 C3267 1.500 . S
C3261 C3260 1.382 . S
C3261 C3262 1.400 . S
C3261 H3272 0.930 . S
C3262 C3261 1.400 . S
C3262 C3263 1.384 . S
C3263 C3262 1.384 . S
C3263 C3265 1.392 . S
C3263 H3273 0.931 . S
C3264 C3260 1.393 . S
C3264 C3265 1.401 . S
C3264 H3274 0.930 . S
C3265 C3263 1.392 . S
C3265 C3264 1.401 . S
C3265 H3275 0.930 . S
C3266 O3244 1.262 . S
C3266 O3245 1.260 . S
C3267 Tb3203 2.833 . S
C3267 O3242 1.251 . S
C3267 O3247 1.256 . S
C3267 C3260 1.500 . S
H3268 C3251 0.930 . S
H3269 C3252 0.931 . S
H3270 C3253 0.930 . S
H3271 C3254 0.930 . S
H3272 C3261 0.930 . S
H3273 C3263 0.931 . S
H3274 C3264 0.930 . S
H3275 C3265 0.930 . S
Tb3276 N3307 2.660 . S
Tb3276 N3314 2.600 . S
Tb3276 O3320 2.546 . S
Tb3276 O3321 2.610 . S
Tb3276 O3323 2.320 . S
Tb3276 O3324 2.552 . S
Tb3276 O3325 2.413 . S
Tb3276 O3327 2.362 . S
Tb3276 O3328 2.421 . S
Tb3276 C3340 2.833 . S
C3277 C3280 1.432 . S
C3277 C3281 1.414 . S
C3277 N3284 1.359 . S
C3278 C3280 1.417 . S
C3278 C3282 1.432 . S
C3278 C3290 1.410 . S
C3279 C3281 1.444 . S
C3279 C3282 1.317 . S
C3279 H3302 0.929 . S
C3280 C3277 1.432 . S
C3280 C3278 1.417 . S
C3280 N3288 1.360 . S
C3281 C3277 1.414 . S
C3281 C3279 1.444 . S
C3281 C3286 1.385 . S
C3282 C3278 1.432 . S
C3282 C3279 1.317 . S
C3282 H3294 0.930 . S
C3283 C3285 1.392 . S
C3283 C3286 1.370 . S
C3283 H3295 0.931 . S
N3284 C3277 1.359 . S
N3284 C3285 1.327 . S
N3284 Tb3287 2.600 . S
C3285 C3283 1.392 . S
C3285 N3284 1.327 . S
C3285 H3292 0.930 . S
C3286 C3281 1.385 . S
C3286 C3283 1.370 . S
C3286 H3305 0.930 . S
Tb3287 N3284 2.600 . S
Tb3287 N3288 2.660 . S
Tb3287 O3321 2.362 . S
Tb3287 O3322 2.421 . S
Tb3287 O3326 2.546 . S
Tb3287 O3327 2.610 . S
Tb3287 O3329 2.320 . S
Tb3287 O3330 2.552 . S
Tb3287 O3331 2.413 . S
Tb3287 C3351 2.833 . S
N3288 C3280 1.360 . S
N3288 Tb3287 2.660 . S
N3288 C3289 1.305 . S
C3289 N3288 1.305 . S
C3289 C3291 1.407 . S
C3289 H3296 0.930 . S
C3290 C3278 1.410 . S
C3290 C3291 1.345 . S
C3290 H3298 0.930 . S
C3291 C3289 1.407 . S
C3291 C3290 1.345 . S
C3291 H3293 0.930 . S
H3292 C3285 0.930 . S
H3293 C3291 0.930 . S
H3294 C3282 0.930 . S
H3295 C3283 0.931 . S
H3296 C3289 0.930 . S
H3297 C3311 0.930 . S
H3298 C3290 0.930 . S
H3299 C3317 0.930 . S
H3300 C3308 0.930 . S
H3301 C3315 0.931 . S
H3302 C3279 0.929 . S
H3303 C3309 0.930 . S
H3304 C3342 0.930 . S
H3305 C3286 0.930 . S
H3306 C3341 0.929 . S
N3307 Tb3276 2.660 . S
N3307 C3308 1.305 . S
N3307 C3312 1.360 . S
C3308 H3300 0.930 . S
C3308 N3307 1.305 . S
C3308 C3311 1.407 . S
C3309 H3303 0.930 . S
C3309 C3310 1.410 . S
C3309 C3311 1.345 . S
C3310 C3309 1.410 . S
C3310 C3312 1.417 . S
C3310 C3342 1.432 . S
C3311 H3297 0.930 . S
C3311 C3308 1.407 . S
C3311 C3309 1.345 . S
C3312 N3307 1.360 . S
C3312 C3310 1.417 . S
C3312 C3316 1.432 . S
H3313 C3318 0.930 . S
N3314 Tb3276 2.600 . S
N3314 C3316 1.359 . S
N3314 C3317 1.327 . S
C3315 H3301 0.931 . S
C3315 C3317 1.392 . S
C3315 C3318 1.370 . S
C3316 C3312 1.432 . S
C3316 N3314 1.359 . S
C3316 C3319 1.414 . S
C3317 H3299 0.930 . S
C3317 N3314 1.327 . S
C3317 C3315 1.392 . S
C3318 H3313 0.930 . S
C3318 C3315 1.370 . S
C3318 C3319 1.385 . S
C3319 C3316 1.414 . S
C3319 C3318 1.385 . S
C3319 C3341 1.444 . S
O3320 Tb3276 2.546 . S
O3320 C3340 1.251 . S
O3321 Tb3276 2.610 . S
O3321 Tb3287 2.362 . S
O3321 C3332 1.283 . S
O3322 Tb3287 2.421 . S
O3322 C3339 1.262 . S
O3323 Tb3276 2.320 . S
O3323 C3339 1.260 . S
O3324 Tb3276 2.552 . S
O3324 C3332 1.243 . S
O3325 Tb3276 2.413 . S
O3325 C3340 1.256 . S
O3326 Tb3287 2.546 . S
O3326 C3351 1.251 . S
O3327 Tb3276 2.362 . S
O3327 Tb3287 2.610 . S
O3327 C3343 1.283 . S
O3328 Tb3276 2.421 . S
O3328 C3350 1.262 . S
O3329 Tb3287 2.320 . S
O3329 C3350 1.260 . S
O3330 Tb3287 2.552 . S
O3330 C3343 1.243 . S
O3331 Tb3287 2.413 . S
O3331 C3351 1.256 . S
C3332 O3321 1.283 . S
C3332 O3324 1.243 . S
C3333 C3335 1.382 . S
C3333 C3337 1.393 . S
C3333 C3340 1.500 . S
C3334 C3335 1.400 . S
C3334 C3336 1.384 . S
C3335 C3333 1.382 . S
C3335 C3334 1.400 . S
C3335 H3352 0.930 . S
C3336 C3334 1.384 . S
C3336 C3338 1.392 . S
C3336 H3353 0.931 . S
C3337 C3333 1.393 . S
C3337 C3338 1.401 . S
C3337 H3354 0.930 . S
C3338 C3336 1.392 . S
C3338 C3337 1.401 . S
C3338 H3355 0.930 . S
C3339 O3322 1.262 . S
C3339 O3323 1.260 . S
C3340 Tb3276 2.833 . S
C3340 O3320 1.251 . S
C3340 O3325 1.256 . S
C3340 C3333 1.500 . S
C3341 H3306 0.929 . S
C3341 C3319 1.444 . S
C3341 C3342 1.317 . S
C3342 H3304 0.930 . S
C3342 C3310 1.432 . S
C3342 C3341 1.317 . S
C3343 O3327 1.283 . S
C3343 O3330 1.243 . S
C3344 C3345 1.382 . S
C3344 C3348 1.393 . S
C3344 C3351 1.500 . S
C3345 C3344 1.382 . S
C3345 C3346 1.400 . S
C3345 H3356 0.930 . S
C3346 C3345 1.400 . S
C3346 C3347 1.384 . S
C3347 C3346 1.384 . S
C3347 C3349 1.392 . S
C3347 H3357 0.931 . S
C3348 C3344 1.393 . S
C3348 C3349 1.401 . S
C3348 H3358 0.930 . S
C3349 C3347 1.392 . S
C3349 C3348 1.401 . S
C3349 H3359 0.930 . S
C3350 O3328 1.262 . S
C3350 O3329 1.260 . S
C3351 Tb3287 2.833 . S
C3351 O3326 1.251 . S
C3351 O3331 1.256 . S
C3351 C3344 1.500 . S
H3352 C3335 0.930 . S
H3353 C3336 0.931 . S
H3354 C3337 0.930 . S
H3355 C3338 0.930 . S
H3356 C3345 0.930 . S
H3357 C3347 0.931 . S
H3358 C3348 0.930 . S
H3359 C3349 0.930 . S
Tb3360 N3391 2.660 . S
Tb3360 N3398 2.600 1_455 S
Tb3360 O3404 2.546 1_455 S
Tb3360 O3405 2.610 . S
Tb3360 O3407 2.320 . S
Tb3360 O3408 2.552 1_455 S
Tb3360 O3409 2.413 1_455 S
Tb3360 O3411 2.362 . S
Tb3360 O3412 2.430 . S
Tb3360 C3424 2.833 1_455 S
C3361 C3364 1.432 . S
C3361 C3365 1.414 . S
C3361 N3368 1.359 . S
C3362 C3364 1.417 . S
C3362 C3366 1.432 . S
C3362 C3374 1.410 . S
C3363 C3365 1.444 . S
C3363 C3366 1.317 . S
C3363 H3386 0.929 . S
C3364 C3361 1.432 . S
C3364 C3362 1.417 . S
C3364 N3372 1.360 . S
C3365 C3361 1.414 . S
C3365 C3363 1.444 . S
C3365 C3370 1.385 . S
C3366 C3362 1.432 . S
C3366 C3363 1.317 . S
C3366 H3378 0.930 . S
C3367 C3369 1.392 . S
C3367 C3370 1.370 . S
C3367 H3379 0.931 . S
N3368 C3361 1.359 . S
N3368 C3369 1.327 . S
N3368 Tb3371 2.600 . S
C3369 C3367 1.392 . S
C3369 N3368 1.327 . S
C3369 H3376 0.930 . S
C3370 C3365 1.385 . S
C3370 C3367 1.370 . S
C3370 H3389 0.930 . S
Tb3371 N3368 2.600 . S
Tb3371 N3372 2.660 . S
Tb3371 O3405 2.362 . S
Tb3371 O3406 2.421 . S
Tb3371 O3410 2.546 . S
Tb3371 O3411 2.610 . S
Tb3371 O3413 2.320 . S
Tb3371 O3414 2.552 . S
Tb3371 O3415 2.413 . S
Tb3371 C3435 2.833 . S
N3372 C3364 1.360 . S
N3372 Tb3371 2.660 . S
N3372 C3373 1.305 . S
C3373 N3372 1.305 . S
C3373 C3375 1.407 . S
C3373 H3380 0.930 . S
C3374 C3362 1.410 . S
C3374 C3375 1.345 . S
C3374 H3382 0.930 . S
C3375 C3373 1.407 . S
C3375 C3374 1.345 . S
C3375 H3377 0.930 1_455 S
H3376 C3369 0.930 . S
H3377 C3375 0.930 1_655 S
H3378 C3366 0.930 . S
H3379 C3367 0.931 . S
H3380 C3373 0.930 . S
H3381 C3395 0.930 . S
H3382 C3374 0.930 . S
H3383 C3401 0.930 . S
H3384 C3392 0.930 . S
H3385 C3399 0.931 . S
H3386 C3363 0.929 . S
H3387 C3393 0.930 . S
H3388 C3426 0.930 . S
H3389 C3370 0.930 . S
H3390 C3425 0.929 . S
N3391 Tb3360 2.660 . S
N3391 C3392 1.305 . S
N3391 C3396 1.360 . S
C3392 H3384 0.930 . S
C3392 N3391 1.305 . S
C3392 C3395 1.407 . S
C3393 H3387 0.930 . S
C3393 C3394 1.410 . S
C3393 C3395 1.345 . S
C3394 C3393 1.410 . S
C3394 C3396 1.417 . S
C3394 C3426 1.432 . S
C3395 H3381 0.930 . S
C3395 C3392 1.407 . S
C3395 C3393 1.345 . S
C3396 N3391 1.360 . S
C3396 C3394 1.417 . S
C3396 C3400 1.432 . S
H3397 C3402 0.930 . S
N3398 Tb3360 2.600 1_655 S
N3398 C3400 1.359 1_655 S
N3398 C3401 1.327 . S
C3399 H3385 0.931 . S
C3399 C3401 1.392 . S
C3399 C3402 1.370 . S
C3400 C3396 1.432 . S
C3400 N3398 1.359 1_455 S
C3400 C3403 1.414 1_455 S
C3401 H3383 0.930 . S
C3401 N3398 1.327 . S
C3401 C3399 1.392 . S
C3402 H3397 0.930 . S
C3402 C3399 1.370 . S
C3402 C3403 1.385 . S
C3403 C3400 1.414 1_655 S
C3403 C3402 1.385 . S
C3403 C3425 1.444 1_655 S
O3404 Tb3360 2.546 1_655 S
O3404 C3424 1.251 . S
O3405 Tb3360 2.610 . S
O3405 Tb3371 2.362 . S
O3405 C3416 1.283 . S
O3406 Tb3371 2.421 . S
O3406 C3423 1.262 . S
O3407 Tb3360 2.320 . S
O3407 C3423 1.260 . S
O3408 Tb3360 2.552 1_655 S
O3408 C3416 1.243 1_655 S
O3409 Tb3360 2.413 1_655 S
O3409 C3424 1.256 . S
O3410 Tb3371 2.546 . S
O3410 C3435 1.251 . S
O3411 Tb3360 2.362 . S
O3411 Tb3371 2.610 . S
O3411 C3427 1.283 . S
O3412 Tb3360 2.430 . S
O3412 C3434 1.295 . S
O3413 Tb3371 2.320 . S
O3413 C3434 1.260 . S
O3414 Tb3371 2.552 . S
O3414 C3427 1.243 . S
O3415 Tb3371 2.413 . S
O3415 C3435 1.256 . S
C3416 O3405 1.283 . S
C3416 O3408 1.243 1_455 S
C3417 C3419 1.382 . S
C3417 C3421 1.393 . S
C3417 C3424 1.500 . S
C3418 C3419 1.400 . S
C3418 C3420 1.384 . S
C3419 C3417 1.382 . S
C3419 C3418 1.400 . S
C3419 H3436 0.930 . S
C3420 C3418 1.384 . S
C3420 C3422 1.392 . S
C3420 H3437 0.931 . S
C3421 C3417 1.393 . S
C3421 C3422 1.401 . S
C3421 H3438 0.930 . S
C3422 C3420 1.392 . S
C3422 C3421 1.401 . S
C3422 H3439 0.930 . S
C3423 O3406 1.262 . S
C3423 O3407 1.260 . S
C3424 Tb3360 2.833 1_655 S
C3424 O3404 1.251 . S
C3424 O3409 1.256 . S
C3424 C3417 1.500 . S
C3425 H3390 0.929 . S
C3425 C3403 1.444 1_455 S
C3425 C3426 1.317 . S
C3426 H3388 0.930 . S
C3426 C3394 1.432 . S
C3426 C3425 1.317 . S
C3427 O3411 1.283 . S
C3427 O3414 1.243 . S
C3428 C3429 1.382 . S
C3428 C3432 1.393 . S
C3428 C3435 1.500 . S
C3429 C3428 1.382 . S
C3429 C3430 1.400 . S
C3429 H3440 0.930 . S
C3430 C3429 1.400 . S
C3430 C3431 1.384 . S
C3431 C3430 1.384 . S
C3431 C3433 1.392 . S
C3431 H3441 0.931 . S
C3432 C3428 1.393 . S
C3432 C3433 1.401 . S
C3432 H3442 0.930 . S
C3433 C3431 1.392 . S
C3433 C3432 1.401 . S
C3433 H3443 0.930 . S
C3434 O3412 1.295 . S
C3434 O3413 1.260 . S
C3435 Tb3371 2.833 . S
C3435 O3410 1.251 . S
C3435 O3415 1.256 . S
C3435 C3428 1.500 . S
H3436 C3419 0.930 . S
H3437 C3420 0.931 . S
H3438 C3421 0.930 . S
H3439 C3422 0.930 . S
H3440 C3429 0.930 . S
H3441 C3431 0.931 . S
H3442 C3432 0.930 . S
H3443 C3433 0.930 . S
Tb3444 N3475 2.660 . S
Tb3444 N3482 2.600 . S
Tb3444 O3488 2.546 . S
Tb3444 O3489 2.610 . S
Tb3444 O3491 2.320 . S
Tb3444 O3492 2.552 . S
Tb3444 O3493 2.413 . S
Tb3444 O3495 2.362 . S
Tb3444 O3496 2.421 . S
Tb3444 C3508 2.833 . S
C3445 C3448 1.432 . S
C3445 C3449 1.414 . S
C3445 N3452 1.359 . S
C3446 C3448 1.417 . S
C3446 C3450 1.432 . S
C3446 C3458 1.410 . S
C3447 C3449 1.444 . S
C3447 C3450 1.317 . S
C3447 H3470 0.929 . S
C3448 C3445 1.432 . S
C3448 C3446 1.417 . S
C3448 N3456 1.360 . S
C3449 C3445 1.414 . S
C3449 C3447 1.444 . S
C3449 C3454 1.385 . S
C3450 C3446 1.432 . S
C3450 C3447 1.317 . S
C3450 H3462 0.930 . S
C3451 C3453 1.392 . S
C3451 C3454 1.370 . S
C3451 H3463 0.931 . S
N3452 C3445 1.359 . S
N3452 C3453 1.327 . S
N3452 Tb3455 2.600 . S
C3453 C3451 1.392 . S
C3453 N3452 1.327 . S
C3453 H3460 0.930 . S
C3454 C3449 1.385 . S
C3454 C3451 1.370 . S
C3454 H3473 0.930 . S
Tb3455 N3452 2.600 . S
Tb3455 N3456 2.660 . S
Tb3455 O3489 2.362 . S
Tb3455 O3490 2.421 . S
Tb3455 O3494 2.546 . S
Tb3455 O3495 2.610 . S
Tb3455 O3497 2.320 . S
Tb3455 O3498 2.552 . S
Tb3455 O3499 2.413 . S
Tb3455 C3519 2.833 . S
N3456 C3448 1.360 . S
N3456 Tb3455 2.660 . S
N3456 C3457 1.305 . S
C3457 N3456 1.305 . S
C3457 C3459 1.407 . S
C3457 H3464 0.930 . S
C3458 C3446 1.410 . S
C3458 C3459 1.345 . S
C3458 H3466 0.930 . S
C3459 C3457 1.407 . S
C3459 C3458 1.345 . S
C3459 H3461 0.930 . S
H3460 C3453 0.930 . S
H3461 C3459 0.930 . S
H3462 C3450 0.930 . S
H3463 C3451 0.931 . S
H3464 C3457 0.930 . S
H3465 C3479 0.930 . S
H3466 C3458 0.930 . S
H3467 C3485 0.930 . S
H3468 C3476 0.930 . S
H3469 C3483 0.931 . S
H3470 C3447 0.929 . S
H3471 C3477 0.930 . S
H3472 C3510 0.930 . S
H3473 C3454 0.930 . S
H3474 C3509 0.929 . S
N3475 Tb3444 2.660 . S
N3475 C3476 1.305 . S
N3475 C3480 1.360 . S
C3476 H3468 0.930 . S
C3476 N3475 1.305 . S
C3476 C3479 1.407 . S
C3477 H3471 0.930 . S
C3477 C3478 1.410 . S
C3477 C3479 1.345 . S
C3478 C3477 1.410 . S
C3478 C3480 1.417 . S
C3478 C3510 1.432 . S
C3479 H3465 0.930 . S
C3479 C3476 1.407 . S
C3479 C3477 1.345 . S
C3480 N3475 1.360 . S
C3480 C3478 1.417 . S
C3480 C3484 1.432 . S
H3481 C3486 0.930 . S
N3482 Tb3444 2.600 . S
N3482 C3484 1.359 . S
N3482 C3485 1.327 . S
C3483 H3469 0.931 . S
C3483 C3485 1.392 . S
C3483 C3486 1.370 . S
C3484 C3480 1.432 . S
C3484 N3482 1.359 . S
C3484 C3487 1.414 . S
C3485 H3467 0.930 . S
C3485 N3482 1.327 . S
C3485 C3483 1.392 . S
C3486 H3481 0.930 . S
C3486 C3483 1.370 . S
C3486 C3487 1.385 . S
C3487 C3484 1.414 . S
C3487 C3486 1.385 . S
C3487 C3509 1.444 . S
O3488 Tb3444 2.546 . S
O3488 C3508 1.251 . S
O3489 Tb3444 2.610 . S
O3489 Tb3455 2.362 . S
O3489 C3500 1.283 . S
O3490 Tb3455 2.421 . S
O3490 C3507 1.262 . S
O3491 Tb3444 2.320 . S
O3491 C3507 1.260 . S
O3492 Tb3444 2.552 . S
O3492 C3500 1.243 . S
O3493 Tb3444 2.413 . S
O3493 C3508 1.256 . S
O3494 Tb3455 2.546 . S
O3494 C3519 1.251 . S
O3495 Tb3444 2.362 . S
O3495 Tb3455 2.610 . S
O3495 C3511 1.283 . S
O3496 Tb3444 2.421 . S
O3496 C3518 1.262 . S
O3497 Tb3455 2.320 . S
O3497 C3518 1.260 . S
O3498 Tb3455 2.552 . S
O3498 C3511 1.243 . S
O3499 Tb3455 2.413 . S
O3499 C3519 1.256 . S
C3500 O3489 1.283 . S
C3500 O3492 1.243 . S
C3501 C3503 1.382 . S
C3501 C3505 1.393 . S
C3501 C3508 1.500 . S
C3502 C3503 1.400 . S
C3502 C3504 1.384 . S
C3503 C3501 1.382 . S
C3503 C3502 1.400 . S
C3503 H3520 0.930 . S
C3504 C3502 1.384 . S
C3504 C3506 1.392 . S
C3504 H3521 0.931 . S
C3505 C3501 1.393 . S
C3505 C3506 1.401 . S
C3505 H3522 0.930 . S
C3506 C3504 1.392 . S
C3506 C3505 1.401 . S
C3506 H3523 0.930 . S
C3507 O3490 1.262 . S
C3507 O3491 1.260 . S
C3508 Tb3444 2.833 . S
C3508 O3488 1.251 . S
C3508 O3493 1.256 . S
C3508 C3501 1.500 . S
C3509 H3474 0.929 . S
C3509 C3487 1.444 . S
C3509 C3510 1.317 . S
C3510 H3472 0.930 . S
C3510 C3478 1.432 . S
C3510 C3509 1.317 . S
C3511 O3495 1.283 . S
C3511 O3498 1.243 . S
C3512 C3513 1.382 . S
C3512 C3516 1.393 . S
C3512 C3519 1.500 . S
C3513 C3512 1.382 . S
C3513 C3514 1.400 . S
C3513 H3524 0.930 . S
C3514 C3513 1.400 . S
C3514 C3515 1.384 . S
C3515 C3514 1.384 . S
C3515 C3517 1.392 . S
C3515 H3525 0.931 . S
C3516 C3512 1.393 . S
C3516 C3517 1.401 . S
C3516 H3526 0.930 . S
C3517 C3515 1.392 . S
C3517 C3516 1.401 . S
C3517 H3527 0.930 . S
C3518 O3496 1.262 . S
C3518 O3497 1.260 . S
C3519 Tb3455 2.833 . S
C3519 O3494 1.251 . S
C3519 O3499 1.256 . S
C3519 C3512 1.500 . S
H3520 C3503 0.930 . S
H3521 C3504 0.931 . S
H3522 C3505 0.930 . S
H3523 C3506 0.930 . S
H3524 C3513 0.930 . S
H3525 C3515 0.931 . S
H3526 C3516 0.930 . S
H3527 C3517 0.930 . S
Tb3528 N3559 2.660 . S
Tb3528 N3566 2.600 1_554 S
Tb3528 O3572 2.546 1_554 S
Tb3528 O3573 2.610 . S
Tb3528 O3575 2.320 . S
Tb3528 O3576 2.552 1_554 S
Tb3528 O3577 2.413 1_554 S
Tb3528 O3579 2.362 . S
Tb3528 O3580 2.421 . S
Tb3528 C3592 2.833 1_554 S
C3529 C3532 1.432 . S
C3529 C3533 1.414 . S
C3529 N3536 1.359 . S
C3530 C3532 1.417 . S
C3530 C3534 1.432 . S
C3530 C3542 1.410 . S
C3531 C3533 1.444 . S
C3531 C3534 1.317 . S
C3531 H3554 0.929 . S
C3532 C3529 1.432 . S
C3532 C3530 1.417 . S
C3532 N3540 1.360 . S
C3533 C3529 1.414 . S
C3533 C3531 1.444 . S
C3533 C3538 1.385 . S
C3534 C3530 1.432 . S
C3534 C3531 1.317 . S
C3534 H3546 0.930 . S
C3535 C3537 1.392 . S
C3535 C3538 1.370 . S
C3535 H3547 0.931 . S
N3536 C3529 1.359 . S
N3536 C3537 1.327 . S
N3536 Tb3539 2.600 . S
C3537 C3535 1.392 . S
C3537 N3536 1.327 . S
C3537 H3544 0.930 . S
C3538 C3533 1.385 . S
C3538 C3535 1.370 . S
C3538 H3557 0.930 . S
Tb3539 N3536 2.600 . S
Tb3539 N3540 2.660 . S
Tb3539 O3573 2.362 . S
Tb3539 O3574 2.421 . S
Tb3539 O3578 2.546 . S
Tb3539 O3579 2.610 . S
Tb3539 O3581 2.320 . S
Tb3539 O3582 2.552 . S
Tb3539 O3583 2.413 . S
Tb3539 C3603 2.833 . S
N3540 C3532 1.360 . S
N3540 Tb3539 2.660 . S
N3540 C3541 1.305 . S
C3541 N3540 1.305 . S
C3541 C3543 1.407 . S
C3541 H3548 0.930 . S
C3542 C3530 1.410 . S
C3542 C3543 1.345 . S
C3542 H3550 0.930 . S
C3543 C3541 1.407 . S
C3543 C3542 1.345 . S
C3543 H3545 0.930 1_554 S
H3544 C3537 0.930 . S
H3545 C3543 0.930 1_556 S
H3546 C3534 0.930 . S
H3547 C3535 0.931 . S
H3548 C3541 0.930 . S
H3549 C3563 0.930 . S
H3550 C3542 0.930 . S
H3551 C3569 0.930 . S
H3552 C3560 0.930 . S
H3553 C3567 0.931 . S
H3554 C3531 0.929 . S
H3555 C3561 0.930 . S
H3556 C3594 0.930 . S
H3557 C3538 0.930 . S
H3558 C3593 0.929 . S
N3559 Tb3528 2.660 . S
N3559 C3560 1.305 . S
N3559 C3564 1.360 . S
C3560 H3552 0.930 . S
C3560 N3559 1.305 . S
C3560 C3563 1.407 . S
C3561 H3555 0.930 . S
C3561 C3562 1.410 . S
C3561 C3563 1.345 . S
C3562 C3561 1.410 . S
C3562 C3564 1.417 . S
C3562 C3594 1.432 . S
C3563 H3549 0.930 . S
C3563 C3560 1.407 . S
C3563 C3561 1.345 . S
C3564 N3559 1.360 . S
C3564 C3562 1.417 . S
C3564 C3568 1.432 . S
H3565 C3570 0.930 . S
N3566 Tb3528 2.600 1_556 S
N3566 C3568 1.359 1_556 S
N3566 C3569 1.327 . S
C3567 H3553 0.931 . S
C3567 C3569 1.392 . S
C3567 C3570 1.370 . S
C3568 C3564 1.432 . S
C3568 N3566 1.359 1_554 S
C3568 C3571 1.415 1_554 S
C3569 H3551 0.930 . S
C3569 N3566 1.327 . S
C3569 C3567 1.392 . S
C3570 H3565 0.930 . S
C3570 C3567 1.370 . S
C3570 C3571 1.382 . S
C3571 C3568 1.415 1_556 S
C3571 C3570 1.382 . S
C3571 C3593 1.446 1_556 S
O3572 Tb3528 2.546 1_556 S
O3572 C3592 1.251 . S
O3573 Tb3528 2.610 . S
O3573 Tb3539 2.362 . S
O3573 C3584 1.283 . S
O3574 Tb3539 2.421 . S
O3574 C3591 1.262 . S
O3575 Tb3528 2.320 . S
O3575 C3591 1.260 . S
O3576 Tb3528 2.552 1_556 S
O3576 C3584 1.243 1_556 S
O3577 Tb3528 2.413 1_556 S
O3577 C3592 1.256 . S
O3578 Tb3539 2.546 . S
O3578 C3603 1.251 . S
O3579 Tb3528 2.362 . S
O3579 Tb3539 2.610 . S
O3579 C3595 1.283 . S
O3580 Tb3528 2.421 . S
O3580 C3602 1.262 . S
O3581 Tb3539 2.320 . S
O3581 C3602 1.260 . S
O3582 Tb3539 2.552 . S
O3582 C3595 1.243 . S
O3583 Tb3539 2.413 . S
O3583 C3603 1.256 . S
C3584 O3573 1.283 . S
C3584 O3576 1.243 1_554 S
C3585 C3587 1.382 . S
C3585 C3589 1.393 . S
C3585 C3592 1.500 . S
C3586 C3587 1.400 . S
C3586 C3588 1.384 . S
C3587 C3585 1.382 . S
C3587 C3586 1.400 . S
C3587 H3604 0.930 . S
C3588 C3586 1.384 . S
C3588 C3590 1.392 . S
C3588 H3605 0.931 . S
C3589 C3585 1.393 . S
C3589 C3590 1.401 . S
C3589 H3606 0.930 . S
C3590 C3588 1.392 . S
C3590 C3589 1.401 . S
C3590 H3607 0.930 . S
C3591 O3574 1.262 . S
C3591 O3575 1.260 . S
C3592 Tb3528 2.833 1_556 S
C3592 O3572 1.251 . S
C3592 O3577 1.256 . S
C3592 C3585 1.500 . S
C3593 H3558 0.929 . S
C3593 C3571 1.446 1_554 S
C3593 C3594 1.317 . S
C3594 H3556 0.930 . S
C3594 C3562 1.432 . S
C3594 C3593 1.317 . S
C3595 O3579 1.283 . S
C3595 O3582 1.243 . S
C3596 C3597 1.382 . S
C3596 C3600 1.393 . S
C3596 C3603 1.500 . S
C3597 C3596 1.382 . S
C3597 C3598 1.400 . S
C3597 H3608 0.930 . S
C3598 C3597 1.400 . S
C3598 C3599 1.384 . S
C3599 C3598 1.384 . S
C3599 C3601 1.392 . S
C3599 H3609 0.931 . S
C3600 C3596 1.393 . S
C3600 C3601 1.401 . S
C3600 H3610 0.930 . S
C3601 C3599 1.392 . S
C3601 C3600 1.401 . S
C3601 H3611 0.930 . S
C3602 O3580 1.262 . S
C3602 O3581 1.260 . S
C3603 Tb3539 2.833 . S
C3603 O3578 1.251 . S
C3603 O3583 1.256 . S
C3603 C3596 1.500 . S
H3604 C3587 0.930 . S
H3605 C3588 0.931 . S
H3606 C3589 0.930 . S
H3607 C3590 0.930 . S
H3608 C3597 0.930 . S
H3609 C3599 0.931 . S
H3610 C3600 0.930 . S
H3611 C3601 0.930 . S
Tb3612 N3643 2.660 . S
Tb3612 N3650 2.600 . S
Tb3612 O3656 2.546 . S
Tb3612 O3657 2.610 . S
Tb3612 O3659 2.320 . S
Tb3612 O3660 2.552 . S
Tb3612 O3661 2.413 . S
Tb3612 O3663 2.362 . S
Tb3612 O3664 2.421 . S
Tb3612 C3676 2.833 . S
C3613 C3616 1.432 . S
C3613 C3617 1.414 . S
C3613 N3620 1.359 . S
C3614 C3616 1.417 . S
C3614 C3618 1.432 . S
C3614 C3626 1.410 . S
C3615 C3617 1.444 . S
C3615 C3618 1.317 . S
C3615 H3638 0.929 . S
C3616 C3613 1.432 . S
C3616 C3614 1.417 . S
C3616 N3624 1.360 . S
C3617 C3613 1.414 . S
C3617 C3615 1.444 . S
C3617 C3622 1.385 . S
C3618 C3614 1.432 . S
C3618 C3615 1.317 . S
C3618 H3630 0.930 . S
C3619 C3621 1.392 . S
C3619 C3622 1.370 . S
C3619 H3631 0.931 . S
N3620 C3613 1.359 . S
N3620 C3621 1.327 . S
N3620 Tb3623 2.600 . S
C3621 C3619 1.392 . S
C3621 N3620 1.327 . S
C3621 H3628 0.930 . S
C3622 C3617 1.385 . S
C3622 C3619 1.370 . S
C3622 H3641 0.930 . S
Tb3623 N3620 2.600 . S
Tb3623 N3624 2.660 . S
Tb3623 O3657 2.362 . S
Tb3623 O3658 2.421 . S
Tb3623 O3662 2.546 . S
Tb3623 O3663 2.610 . S
Tb3623 O3665 2.320 . S
Tb3623 O3666 2.552 . S
Tb3623 O3667 2.413 . S
Tb3623 C3687 2.833 . S
N3624 C3616 1.360 . S
N3624 Tb3623 2.660 . S
N3624 C3625 1.305 . S
C3625 N3624 1.305 . S
C3625 C3627 1.407 . S
C3625 H3632 0.930 . S
C3626 C3614 1.410 . S
C3626 C3627 1.345 . S
C3626 H3634 0.930 . S
C3627 C3625 1.407 . S
C3627 C3626 1.345 . S
C3627 H3629 0.930 . S
H3628 C3621 0.930 . S
H3629 C3627 0.930 . S
H3630 C3618 0.930 . S
H3631 C3619 0.931 . S
H3632 C3625 0.930 . S
H3633 C3647 0.930 . S
H3634 C3626 0.930 . S
H3635 C3653 0.930 . S
H3636 C3644 0.930 . S
H3637 C3651 0.931 . S
H3638 C3615 0.929 . S
H3639 C3645 0.930 . S
H3640 C3678 0.930 . S
H3641 C3622 0.930 . S
H3642 C3677 0.929 . S
N3643 Tb3612 2.660 . S
N3643 C3644 1.305 . S
N3643 C3648 1.360 . S
C3644 H3636 0.930 . S
C3644 N3643 1.305 . S
C3644 C3647 1.407 . S
C3645 H3639 0.930 . S
C3645 C3646 1.410 . S
C3645 C3647 1.345 . S
C3646 C3645 1.410 . S
C3646 C3648 1.417 . S
C3646 C3678 1.432 . S
C3647 H3633 0.930 . S
C3647 C3644 1.407 . S
C3647 C3645 1.345 . S
C3648 N3643 1.360 . S
C3648 C3646 1.417 . S
C3648 C3652 1.432 . S
H3649 C3654 0.930 . S
N3650 Tb3612 2.600 . S
N3650 C3652 1.359 . S
N3650 C3653 1.327 . S
C3651 H3637 0.931 . S
C3651 C3653 1.392 . S
C3651 C3654 1.370 . S
C3652 C3648 1.432 . S
C3652 N3650 1.359 . S
C3652 C3655 1.414 . S
C3653 H3635 0.930 . S
C3653 N3650 1.327 . S
C3653 C3651 1.392 . S
C3654 H3649 0.930 . S
C3654 C3651 1.370 . S
C3654 C3655 1.385 . S
C3655 C3652 1.414 . S
C3655 C3654 1.385 . S
C3655 C3677 1.444 . S
O3656 Tb3612 2.546 . S
O3656 C3676 1.251 . S
O3657 Tb3612 2.610 . S
O3657 Tb3623 2.362 . S
O3657 C3668 1.283 . S
O3658 Tb3623 2.421 . S
O3658 C3675 1.262 . S
O3659 Tb3612 2.320 . S
O3659 C3675 1.260 . S
O3660 Tb3612 2.552 . S
O3660 C3668 1.243 . S
O3661 Tb3612 2.413 . S
O3661 C3676 1.256 . S
O3662 Tb3623 2.546 . S
O3662 C3687 1.251 . S
O3663 Tb3612 2.362 . S
O3663 Tb3623 2.610 . S
O3663 C3679 1.283 . S
O3664 Tb3612 2.421 . S
O3664 C3686 1.262 . S
O3665 Tb3623 2.320 . S
O3665 C3686 1.260 . S
O3666 Tb3623 2.552 . S
O3666 C3679 1.243 . S
O3667 Tb3623 2.413 . S
O3667 C3687 1.256 . S
C3668 O3657 1.283 . S
C3668 O3660 1.243 . S
C3669 C3671 1.382 . S
C3669 C3673 1.393 . S
C3669 C3676 1.500 . S
C3670 C3671 1.400 . S
C3670 C3672 1.384 . S
C3671 C3669 1.382 . S
C3671 C3670 1.400 . S
C3671 H3688 0.930 . S
C3672 C3670 1.384 . S
C3672 C3674 1.392 . S
C3672 H3689 0.931 . S
C3673 C3669 1.393 . S
C3673 C3674 1.401 . S
C3673 H3690 0.930 . S
C3674 C3672 1.392 . S
C3674 C3673 1.401 . S
C3674 H3691 0.930 . S
C3675 O3658 1.262 . S
C3675 O3659 1.260 . S
C3676 Tb3612 2.833 . S
C3676 O3656 1.251 . S
C3676 O3661 1.256 . S
C3676 C3669 1.500 . S
C3677 H3642 0.929 . S
C3677 C3655 1.444 . S
C3677 C3678 1.317 . S
C3678 H3640 0.930 . S
C3678 C3646 1.432 . S
C3678 C3677 1.317 . S
C3679 O3663 1.283 . S
C3679 O3666 1.243 . S
C3680 C3681 1.382 . S
C3680 C3684 1.393 . S
C3680 C3687 1.500 . S
C3681 C3680 1.382 . S
C3681 C3682 1.400 . S
C3681 H3692 0.930 . S
C3682 C3681 1.400 . S
C3682 C3683 1.384 . S
C3683 C3682 1.384 . S
C3683 C3685 1.392 . S
C3683 H3693 0.931 . S
C3684 C3680 1.393 . S
C3684 C3685 1.401 . S
C3684 H3694 0.930 . S
C3685 C3683 1.392 . S
C3685 C3684 1.401 . S
C3685 H3695 0.930 . S
C3686 O3664 1.262 . S
C3686 O3665 1.260 . S
C3687 Tb3623 2.833 . S
C3687 O3662 1.251 . S
C3687 O3667 1.256 . S
C3687 C3680 1.500 . S
H3688 C3671 0.930 . S
H3689 C3672 0.931 . S
H3690 C3673 0.930 . S
H3691 C3674 0.930 . S
H3692 C3681 0.930 . S
H3693 C3683 0.931 . S
H3694 C3684 0.930 . S
H3695 C3685 0.930 . S
Tb3696 N3727 2.660 . S
Tb3696 N3734 2.600 . S
Tb3696 O3740 2.546 . S
Tb3696 O3741 2.610 . S
Tb3696 O3743 2.320 . S
Tb3696 O3744 2.552 . S
Tb3696 O3745 2.413 . S
Tb3696 O3747 2.362 . S
Tb3696 O3748 2.421 . S
Tb3696 C3760 2.833 . S
C3697 C3700 1.432 . S
C3697 C3701 1.414 . S
C3697 N3704 1.359 . S
C3698 C3700 1.417 . S
C3698 C3702 1.432 . S
C3698 C3710 1.410 . S
C3699 C3701 1.444 . S
C3699 C3702 1.317 . S
C3699 H3722 0.929 . S
C3700 C3697 1.432 . S
C3700 C3698 1.417 . S
C3700 N3708 1.360 . S
C3701 C3697 1.414 . S
C3701 C3699 1.444 . S
C3701 C3706 1.385 . S
C3702 C3698 1.432 . S
C3702 C3699 1.317 . S
C3702 H3714 0.930 . S
C3703 C3705 1.392 . S
C3703 C3706 1.370 . S
C3703 H3715 0.931 . S
N3704 C3697 1.359 . S
N3704 C3705 1.327 . S
N3704 Tb3707 2.600 . S
C3705 C3703 1.392 . S
C3705 N3704 1.327 . S
C3705 H3712 0.930 . S
C3706 C3701 1.385 . S
C3706 C3703 1.370 . S
C3706 H3725 0.930 . S
Tb3707 N3704 2.600 . S
Tb3707 N3708 2.660 . S
Tb3707 O3741 2.362 . S
Tb3707 O3742 2.421 . S
Tb3707 O3746 2.546 . S
Tb3707 O3747 2.610 . S
Tb3707 O3749 2.320 . S
Tb3707 O3750 2.552 . S
Tb3707 O3751 2.413 . S
Tb3707 C3771 2.833 . S
N3708 C3700 1.360 . S
N3708 Tb3707 2.660 . S
N3708 C3709 1.305 . S
C3709 N3708 1.305 . S
C3709 C3711 1.407 . S
C3709 H3716 0.930 . S
C3710 C3698 1.410 . S
C3710 C3711 1.345 . S
C3710 H3718 0.930 . S
C3711 C3709 1.407 . S
C3711 C3710 1.345 . S
C3711 H3713 0.930 . S
H3712 C3705 0.930 . S
H3713 C3711 0.930 . S
H3714 C3702 0.930 . S
H3715 C3703 0.931 . S
H3716 C3709 0.930 . S
H3717 C3731 0.930 . S
H3718 C3710 0.930 . S
H3719 C3737 0.930 . S
H3720 C3728 0.930 . S
H3721 C3735 0.931 . S
H3722 C3699 0.929 . S
H3723 C3729 0.930 . S
H3724 C3762 0.930 . S
H3725 C3706 0.930 . S
H3726 C3761 0.929 . S
N3727 Tb3696 2.660 . S
N3727 C3728 1.305 . S
N3727 C3732 1.360 . S
C3728 H3720 0.930 . S
C3728 N3727 1.305 . S
C3728 C3731 1.407 . S
C3729 H3723 0.930 . S
C3729 C3730 1.410 . S
C3729 C3731 1.345 . S
C3730 C3729 1.410 . S
C3730 C3732 1.417 . S
C3730 C3762 1.432 . S
C3731 H3717 0.930 . S
C3731 C3728 1.407 . S
C3731 C3729 1.345 . S
C3732 N3727 1.360 . S
C3732 C3730 1.417 . S
C3732 C3736 1.432 . S
H3733 C3738 0.930 . S
N3734 Tb3696 2.600 . S
N3734 C3736 1.359 . S
N3734 C3737 1.327 . S
C3735 H3721 0.931 . S
C3735 C3737 1.392 . S
C3735 C3738 1.370 . S
C3736 C3732 1.432 . S
C3736 N3734 1.359 . S
C3736 C3739 1.414 . S
C3737 H3719 0.930 . S
C3737 N3734 1.327 . S
C3737 C3735 1.392 . S
C3738 H3733 0.930 . S
C3738 C3735 1.370 . S
C3738 C3739 1.385 . S
C3739 C3736 1.414 . S
C3739 C3738 1.385 . S
C3739 C3761 1.444 . S
O3740 Tb3696 2.546 . S
O3740 C3760 1.251 . S
O3741 Tb3696 2.610 . S
O3741 Tb3707 2.362 . S
O3741 C3752 1.283 . S
O3742 Tb3707 2.421 . S
O3742 C3759 1.262 . S
O3743 Tb3696 2.320 . S
O3743 C3759 1.260 . S
O3744 Tb3696 2.552 . S
O3744 C3752 1.243 . S
O3745 Tb3696 2.413 . S
O3745 C3760 1.256 . S
O3746 Tb3707 2.546 . S
O3746 C3771 1.251 . S
O3747 Tb3696 2.362 . S
O3747 Tb3707 2.610 . S
O3747 C3763 1.283 . S
O3748 Tb3696 2.421 . S
O3748 C3770 1.262 . S
O3749 Tb3707 2.320 . S
O3749 C3770 1.260 . S
O3750 Tb3707 2.552 . S
O3750 C3763 1.243 . S
O3751 Tb3707 2.413 . S
O3751 C3771 1.256 . S
C3752 O3741 1.283 . S
C3752 O3744 1.243 . S
C3753 C3755 1.382 . S
C3753 C3757 1.393 . S
C3753 C3760 1.500 . S
C3754 C3755 1.400 . S
C3754 C3756 1.384 . S
C3755 C3753 1.382 . S
C3755 C3754 1.400 . S
C3755 H3772 0.930 . S
C3756 C3754 1.384 . S
C3756 C3758 1.392 . S
C3756 H3773 0.931 . S
C3757 C3753 1.393 . S
C3757 C3758 1.401 . S
C3757 H3774 0.930 . S
C3758 C3756 1.392 . S
C3758 C3757 1.401 . S
C3758 H3775 0.930 . S
C3759 O3742 1.262 . S
C3759 O3743 1.260 . S
C3760 Tb3696 2.833 . S
C3760 O3740 1.251 . S
C3760 O3745 1.256 . S
C3760 C3753 1.500 . S
C3761 H3726 0.929 . S
C3761 C3739 1.444 . S
C3761 C3762 1.317 . S
C3762 H3724 0.930 . S
C3762 C3730 1.432 . S
C3762 C3761 1.317 . S
C3763 O3747 1.283 . S
C3763 O3750 1.243 . S
C3764 C3765 1.382 . S
C3764 C3768 1.393 . S
C3764 C3771 1.500 . S
C3765 C3764 1.382 . S
C3765 C3766 1.400 . S
C3765 H3776 0.930 . S
C3766 C3765 1.400 . S
C3766 C3767 1.384 . S
C3767 C3766 1.384 . S
C3767 C3769 1.392 . S
C3767 H3777 0.931 . S
C3768 C3764 1.393 . S
C3768 C3769 1.401 . S
C3768 H3778 0.930 . S
C3769 C3767 1.392 . S
C3769 C3768 1.401 . S
C3769 H3779 0.930 . S
C3770 O3748 1.262 . S
C3770 O3749 1.260 . S
C3771 Tb3707 2.833 . S
C3771 O3746 1.251 . S
C3771 O3751 1.256 . S
C3771 C3764 1.500 . S
H3772 C3755 0.930 . S
H3773 C3756 0.931 . S
H3774 C3757 0.930 . S
H3775 C3758 0.930 . S
H3776 C3765 0.930 . S
H3777 C3767 0.931 . S
H3778 C3768 0.930 . S
H3779 C3769 0.930 . S
Tb3780 N3811 2.660 . S
Tb3780 N3818 2.600 . S
Tb3780 O3824 2.546 . S
Tb3780 O3825 2.610 . S
Tb3780 O3827 2.320 . S
Tb3780 O3828 2.552 . S
Tb3780 O3829 2.413 . S
Tb3780 O3831 2.362 . S
Tb3780 O3832 2.421 . S
Tb3780 C3844 2.833 . S
C3781 C3784 1.432 . S
C3781 C3785 1.414 . S
C3781 N3788 1.359 . S
C3782 C3784 1.417 . S
C3782 C3786 1.432 . S
C3782 C3794 1.410 . S
C3783 C3785 1.444 . S
C3783 C3786 1.317 . S
C3783 H3806 0.929 . S
C3784 C3781 1.432 . S
C3784 C3782 1.417 . S
C3784 N3792 1.360 . S
C3785 C3781 1.414 . S
C3785 C3783 1.444 . S
C3785 C3790 1.385 . S
C3786 C3782 1.432 . S
C3786 C3783 1.317 . S
C3786 H3798 0.930 . S
C3787 C3789 1.392 . S
C3787 C3790 1.370 . S
C3787 H3799 0.931 . S
N3788 C3781 1.359 . S
N3788 C3789 1.327 . S
N3788 Tb3791 2.600 . S
C3789 C3787 1.392 . S
C3789 N3788 1.327 . S
C3789 H3796 0.930 . S
C3790 C3785 1.385 . S
C3790 C3787 1.370 . S
C3790 H3809 0.930 . S
Tb3791 N3788 2.600 . S
Tb3791 N3792 2.660 . S
Tb3791 O3825 2.362 . S
Tb3791 O3826 2.421 . S
Tb3791 O3830 2.546 . S
Tb3791 O3831 2.610 . S
Tb3791 O3833 2.320 . S
Tb3791 O3834 2.552 . S
Tb3791 O3835 2.413 . S
Tb3791 C3855 2.833 . S
N3792 C3784 1.360 . S
N3792 Tb3791 2.660 . S
N3792 C3793 1.305 . S
C3793 N3792 1.305 . S
C3793 C3795 1.407 . S
C3793 H3800 0.930 . S
C3794 C3782 1.410 . S
C3794 C3795 1.345 . S
C3794 H3802 0.930 . S
C3795 C3793 1.407 . S
C3795 C3794 1.345 . S
C3795 H3797 0.930 . S
H3796 C3789 0.930 . S
H3797 C3795 0.930 . S
H3798 C3786 0.930 . S
H3799 C3787 0.931 . S
H3800 C3793 0.930 . S
H3801 C3815 0.930 . S
H3802 C3794 0.930 . S
H3803 C3821 0.930 . S
H3804 C3812 0.930 . S
H3805 C3819 0.931 . S
H3806 C3783 0.929 . S
H3807 C3813 0.930 . S
H3808 C3846 0.930 . S
H3809 C3790 0.930 . S
H3810 C3845 0.929 . S
N3811 Tb3780 2.660 . S
N3811 C3812 1.305 . S
N3811 C3816 1.360 . S
C3812 H3804 0.930 . S
C3812 N3811 1.305 . S
C3812 C3815 1.407 . S
C3813 H3807 0.930 . S
C3813 C3814 1.410 . S
C3813 C3815 1.345 . S
C3814 C3813 1.410 . S
C3814 C3816 1.417 . S
C3814 C3846 1.432 . S
C3815 H3801 0.930 . S
C3815 C3812 1.407 . S
C3815 C3813 1.345 . S
C3816 N3811 1.360 . S
C3816 C3814 1.417 . S
C3816 C3820 1.432 . S
H3817 C3822 0.930 . S
N3818 Tb3780 2.600 . S
N3818 C3820 1.359 . S
N3818 C3821 1.327 . S
C3819 H3805 0.931 . S
C3819 C3821 1.392 . S
C3819 C3822 1.370 . S
C3820 C3816 1.432 . S
C3820 N3818 1.359 . S
C3820 C3823 1.414 . S
C3821 H3803 0.930 . S
C3821 N3818 1.327 . S
C3821 C3819 1.392 . S
C3822 H3817 0.930 . S
C3822 C3819 1.370 . S
C3822 C3823 1.385 . S
C3823 C3820 1.414 . S
C3823 C3822 1.385 . S
C3823 C3845 1.444 . S
O3824 Tb3780 2.546 . S
O3824 C3844 1.251 . S
O3825 Tb3780 2.610 . S
O3825 Tb3791 2.362 . S
O3825 C3836 1.283 . S
O3826 Tb3791 2.421 . S
O3826 C3843 1.262 . S
O3827 Tb3780 2.320 . S
O3827 C3843 1.260 . S
O3828 Tb3780 2.552 . S
O3828 C3836 1.243 . S
O3829 Tb3780 2.413 . S
O3829 C3844 1.256 . S
O3830 Tb3791 2.546 . S
O3830 C3855 1.251 . S
O3831 Tb3780 2.362 . S
O3831 Tb3791 2.610 . S
O3831 C3847 1.283 . S
O3832 Tb3780 2.421 . S
O3832 C3854 1.262 . S
O3833 Tb3791 2.320 . S
O3833 C3854 1.260 . S
O3834 Tb3791 2.552 . S
O3834 C3847 1.243 . S
O3835 Tb3791 2.413 . S
O3835 C3855 1.256 . S
C3836 O3825 1.283 . S
C3836 O3828 1.243 . S
C3837 C3839 1.382 . S
C3837 C3841 1.393 . S
C3837 C3844 1.500 . S
C3838 C3839 1.400 . S
C3838 C3840 1.384 . S
C3839 C3837 1.382 . S
C3839 C3838 1.400 . S
C3839 H3856 0.930 . S
C3840 C3838 1.384 . S
C3840 C3842 1.392 . S
C3840 H3857 0.931 . S
C3841 C3837 1.393 . S
C3841 C3842 1.401 . S
C3841 H3858 0.930 . S
C3842 C3840 1.392 . S
C3842 C3841 1.401 . S
C3842 H3859 0.930 . S
C3843 O3826 1.262 . S
C3843 O3827 1.260 . S
C3844 Tb3780 2.833 . S
C3844 O3824 1.251 . S
C3844 O3829 1.256 . S
C3844 C3837 1.500 . S
C3845 H3810 0.929 . S
C3845 C3823 1.444 . S
C3845 C3846 1.317 . S
C3846 H3808 0.930 . S
C3846 C3814 1.432 . S
C3846 C3845 1.317 . S
C3847 O3831 1.283 . S
C3847 O3834 1.243 . S
C3848 C3849 1.382 . S
C3848 C3852 1.393 . S
C3848 C3855 1.500 . S
C3849 C3848 1.382 . S
C3849 C3850 1.400 . S
C3849 H3860 0.930 . S
C3850 C3849 1.400 . S
C3850 C3851 1.384 . S
C3851 C3850 1.384 . S
C3851 C3853 1.392 . S
C3851 H3861 0.931 . S
C3852 C3848 1.393 . S
C3852 C3853 1.401 . S
C3852 H3862 0.930 . S
C3853 C3851 1.392 . S
C3853 C3852 1.401 . S
C3853 H3863 0.930 . S
C3854 O3832 1.262 . S
C3854 O3833 1.260 . S
C3855 Tb3791 2.833 . S
C3855 O3830 1.251 . S
C3855 O3835 1.256 . S
C3855 C3848 1.500 . S
H3856 C3839 0.930 . S
H3857 C3840 0.931 . S
H3858 C3841 0.930 . S
H3859 C3842 0.930 . S
H3860 C3849 0.930 . S
H3861 C3851 0.931 . S
H3862 C3852 0.930 . S
H3863 C3853 0.930 . S
Tb3864 N3895 2.660 . S
Tb3864 N3902 2.600 . S
Tb3864 O3908 2.546 . S
Tb3864 O3909 2.610 . S
Tb3864 O3911 2.320 . S
Tb3864 O3912 2.552 . S
Tb3864 O3913 2.413 . S
Tb3864 O3915 2.362 . S
Tb3864 O3916 2.421 . S
Tb3864 C3928 2.833 . S
C3865 C3868 1.432 . S
C3865 C3869 1.414 . S
C3865 N3872 1.359 . S
C3866 C3868 1.417 . S
C3866 C3870 1.432 . S
C3866 C3878 1.410 . S
C3867 C3869 1.444 . S
C3867 C3870 1.317 . S
C3867 H3890 0.929 . S
C3868 C3865 1.432 . S
C3868 C3866 1.417 . S
C3868 N3876 1.360 . S
C3869 C3865 1.414 . S
C3869 C3867 1.444 . S
C3869 C3874 1.385 . S
C3870 C3866 1.432 . S
C3870 C3867 1.317 . S
C3870 H3882 0.930 . S
C3871 C3873 1.392 . S
C3871 C3874 1.370 . S
C3871 H3883 0.931 . S
N3872 C3865 1.359 . S
N3872 C3873 1.327 . S
N3872 Tb3875 2.600 . S
C3873 C3871 1.392 . S
C3873 N3872 1.327 . S
C3873 H3880 0.930 . S
C3874 C3869 1.385 . S
C3874 C3871 1.370 . S
C3874 H3893 0.930 . S
Tb3875 N3872 2.600 . S
Tb3875 N3876 2.660 . S
Tb3875 O3909 2.362 . S
Tb3875 O3910 2.421 . S
Tb3875 O3914 2.546 . S
Tb3875 O3915 2.610 . S
Tb3875 O3917 2.320 . S
Tb3875 O3918 2.552 . S
Tb3875 O3919 2.413 . S
Tb3875 C3939 2.833 . S
N3876 C3868 1.360 . S
N3876 Tb3875 2.660 . S
N3876 C3877 1.305 . S
C3877 N3876 1.305 . S
C3877 C3879 1.407 . S
C3877 H3884 0.930 . S
C3878 C3866 1.410 . S
C3878 C3879 1.345 . S
C3878 H3886 0.930 . S
C3879 C3877 1.407 . S
C3879 C3878 1.345 . S
C3879 H3881 0.930 . S
H3880 C3873 0.930 . S
H3881 C3879 0.930 . S
H3882 C3870 0.930 . S
H3883 C3871 0.931 . S
H3884 C3877 0.930 . S
H3885 C3899 0.930 . S
H3886 C3878 0.930 . S
H3887 C3905 0.930 . S
H3888 C3896 0.930 . S
H3889 C3903 0.931 . S
H3890 C3867 0.929 . S
H3891 C3897 0.930 . S
H3892 C3930 0.930 . S
H3893 C3874 0.930 . S
H3894 C3929 0.929 . S
N3895 Tb3864 2.660 . S
N3895 C3896 1.305 . S
N3895 C3900 1.360 . S
C3896 H3888 0.930 . S
C3896 N3895 1.305 . S
C3896 C3899 1.407 . S
C3897 H3891 0.930 . S
C3897 C3898 1.410 . S
C3897 C3899 1.345 . S
C3898 C3897 1.410 . S
C3898 C3900 1.417 . S
C3898 C3930 1.432 . S
C3899 H3885 0.930 . S
C3899 C3896 1.407 . S
C3899 C3897 1.345 . S
C3900 N3895 1.360 . S
C3900 C3898 1.417 . S
C3900 C3904 1.432 . S
H3901 C3906 0.930 . S
N3902 Tb3864 2.600 . S
N3902 C3904 1.359 . S
N3902 C3905 1.327 . S
C3903 H3889 0.931 . S
C3903 C3905 1.392 . S
C3903 C3906 1.370 . S
C3904 C3900 1.432 . S
C3904 N3902 1.359 . S
C3904 C3907 1.414 . S
C3905 H3887 0.930 . S
C3905 N3902 1.327 . S
C3905 C3903 1.392 . S
C3906 H3901 0.930 . S
C3906 C3903 1.370 . S
C3906 C3907 1.385 . S
C3907 C3904 1.414 . S
C3907 C3906 1.385 . S
C3907 C3929 1.444 . S
O3908 Tb3864 2.546 . S
O3908 C3928 1.251 . S
O3909 Tb3864 2.610 . S
O3909 Tb3875 2.362 . S
O3909 C3920 1.283 . S
O3910 Tb3875 2.421 . S
O3910 C3927 1.262 . S
O3911 Tb3864 2.320 . S
O3911 C3927 1.260 . S
O3912 Tb3864 2.552 . S
O3912 C3920 1.243 . S
O3913 Tb3864 2.413 . S
O3913 C3928 1.256 . S
O3914 Tb3875 2.546 . S
O3914 C3939 1.251 . S
O3915 Tb3864 2.362 . S
O3915 Tb3875 2.610 . S
O3915 C3931 1.283 . S
O3916 Tb3864 2.421 . S
O3916 C3938 1.262 . S
O3917 Tb3875 2.320 . S
O3917 C3938 1.260 . S
O3918 Tb3875 2.552 . S
O3918 C3931 1.243 . S
O3919 Tb3875 2.413 . S
O3919 C3939 1.256 . S
C3920 O3909 1.283 . S
C3920 O3912 1.243 . S
C3921 C3923 1.382 . S
C3921 C3925 1.393 . S
C3921 C3928 1.500 . S
C3922 C3923 1.400 . S
C3922 C3924 1.384 . S
C3923 C3921 1.382 . S
C3923 C3922 1.400 . S
C3923 H3940 0.930 . S
C3924 C3922 1.384 . S
C3924 C3926 1.392 . S
C3924 H3941 0.931 . S
C3925 C3921 1.393 . S
C3925 C3926 1.401 . S
C3925 H3942 0.930 . S
C3926 C3924 1.392 . S
C3926 C3925 1.401 . S
C3926 H3943 0.930 . S
C3927 O3910 1.262 . S
C3927 O3911 1.260 . S
C3928 Tb3864 2.833 . S
C3928 O3908 1.251 . S
C3928 O3913 1.256 . S
C3928 C3921 1.500 . S
C3929 H3894 0.929 . S
C3929 C3907 1.444 . S
C3929 C3930 1.317 . S
C3930 H3892 0.930 . S
C3930 C3898 1.432 . S
C3930 C3929 1.317 . S
C3931 O3915 1.283 . S
C3931 O3918 1.243 . S
C3932 C3933 1.382 . S
C3932 C3936 1.393 . S
C3932 C3939 1.500 . S
C3933 C3932 1.382 . S
C3933 C3934 1.400 . S
C3933 H3944 0.930 . S
C3934 C3933 1.400 . S
C3934 C3935 1.384 . S
C3935 C3934 1.384 . S
C3935 C3937 1.392 . S
C3935 H3945 0.931 . S
C3936 C3932 1.393 . S
C3936 C3937 1.401 . S
C3936 H3946 0.930 . S
C3937 C3935 1.392 . S
C3937 C3936 1.401 . S
C3937 H3947 0.930 . S
C3938 O3916 1.262 . S
C3938 O3917 1.260 . S
C3939 Tb3875 2.833 . S
C3939 O3914 1.251 . S
C3939 O3919 1.256 . S
C3939 C3932 1.500 . S
H3940 C3923 0.930 . S
H3941 C3924 0.931 . S
H3942 C3925 0.930 . S
H3943 C3926 0.930 . S
H3944 C3933 0.930 . S
H3945 C3935 0.931 . S
H3946 C3936 0.930 . S
H3947 C3937 0.930 . S
Tb3948 N3979 2.660 . S
Tb3948 N3986 2.600 . S
Tb3948 O3992 2.546 . S
Tb3948 O3993 2.610 . S
Tb3948 O3995 2.320 . S
Tb3948 O3996 2.552 . S
Tb3948 O3997 2.413 . S
Tb3948 O3999 2.362 . S
Tb3948 O4000 2.421 . S
Tb3948 C4012 2.833 . S
C3949 C3952 1.432 . S
C3949 C3953 1.414 . S
C3949 N3956 1.359 . S
C3950 C3952 1.417 . S
C3950 C3954 1.432 . S
C3950 C3962 1.410 . S
C3951 C3953 1.444 . S
C3951 C3954 1.317 . S
C3951 H3974 0.929 . S
C3952 C3949 1.432 . S
C3952 C3950 1.417 . S
C3952 N3960 1.360 . S
C3953 C3949 1.414 . S
C3953 C3951 1.444 . S
C3953 C3958 1.385 . S
C3954 C3950 1.432 . S
C3954 C3951 1.317 . S
C3954 H3966 0.930 . S
C3955 C3957 1.392 . S
C3955 C3958 1.370 . S
C3955 H3967 0.931 . S
N3956 C3949 1.359 . S
N3956 C3957 1.327 . S
N3956 Tb3959 2.600 . S
C3957 C3955 1.392 . S
C3957 N3956 1.327 . S
C3957 H3964 0.930 . S
C3958 C3953 1.385 . S
C3958 C3955 1.370 . S
C3958 H3977 0.930 . S
Tb3959 N3956 2.600 . S
Tb3959 N3960 2.660 . S
Tb3959 O3993 2.362 . S
Tb3959 O3994 2.421 . S
Tb3959 O3998 2.546 . S
Tb3959 O3999 2.610 . S
Tb3959 O4001 2.320 . S
Tb3959 O4002 2.552 . S
Tb3959 O4003 2.413 . S
Tb3959 C4023 2.833 . S
N3960 C3952 1.360 . S
N3960 Tb3959 2.660 . S
N3960 C3961 1.305 . S
C3961 N3960 1.305 . S
C3961 C3963 1.407 . S
C3961 H3968 0.930 . S
C3962 C3950 1.410 . S
C3962 C3963 1.345 . S
C3962 H3970 0.930 . S
C3963 C3961 1.407 . S
C3963 C3962 1.345 . S
C3963 H3965 0.930 . S
H3964 C3957 0.930 . S
H3965 C3963 0.930 . S
H3966 C3954 0.930 . S
H3967 C3955 0.931 . S
H3968 C3961 0.930 . S
H3969 C3983 0.930 . S
H3970 C3962 0.930 . S
H3971 C3989 0.930 . S
H3972 C3980 0.930 . S
H3973 C3987 0.931 . S
H3974 C3951 0.929 . S
H3975 C3981 0.930 . S
H3976 C4014 0.930 . S
H3977 C3958 0.930 . S
H3978 C4013 0.929 . S
N3979 Tb3948 2.660 . S
N3979 C3980 1.305 . S
N3979 C3984 1.360 . S
C3980 H3972 0.930 . S
C3980 N3979 1.305 . S
C3980 C3983 1.407 . S
C3981 H3975 0.930 . S
C3981 C3982 1.410 . S
C3981 C3983 1.345 . S
C3982 C3981 1.410 . S
C3982 C3984 1.417 . S
C3982 C4014 1.432 . S
C3983 H3969 0.930 . S
C3983 C3980 1.407 . S
C3983 C3981 1.345 . S
C3984 N3979 1.360 . S
C3984 C3982 1.417 . S
C3984 C3988 1.432 . S
H3985 C3990 0.930 . S
N3986 Tb3948 2.600 . S
N3986 C3988 1.359 . S
N3986 C3989 1.327 . S
C3987 H3973 0.931 . S
C3987 C3989 1.392 . S
C3987 C3990 1.370 . S
C3988 C3984 1.432 . S
C3988 N3986 1.359 . S
C3988 C3991 1.414 . S
C3989 H3971 0.930 . S
C3989 N3986 1.327 . S
C3989 C3987 1.392 . S
C3990 H3985 0.930 . S
C3990 C3987 1.370 . S
C3990 C3991 1.385 . S
C3991 C3988 1.414 . S
C3991 C3990 1.385 . S
C3991 C4013 1.444 . S
O3992 Tb3948 2.546 . S
O3992 C4012 1.251 . S
O3993 Tb3948 2.610 . S
O3993 Tb3959 2.362 . S
O3993 C4004 1.283 . S
O3994 Tb3959 2.421 . S
O3994 C4011 1.262 . S
O3995 Tb3948 2.320 . S
O3995 C4011 1.260 . S
O3996 Tb3948 2.552 . S
O3996 C4004 1.243 . S
O3997 Tb3948 2.413 . S
O3997 C4012 1.256 . S
O3998 Tb3959 2.546 . S
O3998 C4023 1.251 . S
O3999 Tb3948 2.362 . S
O3999 Tb3959 2.610 . S
O3999 C4015 1.283 . S
O4000 Tb3948 2.421 . S
O4000 C4022 1.262 . S
O4001 Tb3959 2.320 . S
O4001 C4022 1.260 . S
O4002 Tb3959 2.552 . S
O4002 C4015 1.243 . S
O4003 Tb3959 2.413 . S
O4003 C4023 1.256 . S
C4004 O3993 1.283 . S
C4004 O3996 1.243 . S
C4005 C4007 1.382 . S
C4005 C4009 1.393 . S
C4005 C4012 1.500 . S
C4006 C4007 1.400 . S
C4006 C4008 1.384 . S
C4007 C4005 1.382 . S
C4007 C4006 1.400 . S
C4007 H4024 0.930 . S
C4008 C4006 1.384 . S
C4008 C4010 1.392 . S
C4008 H4025 0.931 . S
C4009 C4005 1.393 . S
C4009 C4010 1.401 . S
C4009 H4026 0.930 . S
C4010 C4008 1.392 . S
C4010 C4009 1.401 . S
C4010 H4027 0.930 . S
C4011 O3994 1.262 . S
C4011 O3995 1.260 . S
C4012 Tb3948 2.833 . S
C4012 O3992 1.251 . S
C4012 O3997 1.256 . S
C4012 C4005 1.500 . S
C4013 H3978 0.929 . S
C4013 C3991 1.444 . S
C4013 C4014 1.317 . S
C4014 H3976 0.930 . S
C4014 C3982 1.432 . S
C4014 C4013 1.317 . S
C4015 O3999 1.283 . S
C4015 O4002 1.243 . S
C4016 C4017 1.382 . S
C4016 C4020 1.393 . S
C4016 C4023 1.500 . S
C4017 C4016 1.382 . S
C4017 C4018 1.400 . S
C4017 H4028 0.930 . S
C4018 C4017 1.400 . S
C4018 C4019 1.384 . S
C4019 C4018 1.384 . S
C4019 C4021 1.392 . S
C4019 H4029 0.931 . S
C4020 C4016 1.393 . S
C4020 C4021 1.401 . S
C4020 H4030 0.930 . S
C4021 C4019 1.392 . S
C4021 C4020 1.401 . S
C4021 H4031 0.930 . S
C4022 O4000 1.262 . S
C4022 O4001 1.260 . S
C4023 Tb3959 2.833 . S
C4023 O3998 1.251 . S
C4023 O4003 1.256 . S
C4023 C4016 1.500 . S
H4024 C4007 0.930 . S
H4025 C4008 0.931 . S
H4026 C4009 0.930 . S
H4027 C4010 0.930 . S
H4028 C4017 0.930 . S
H4029 C4019 0.931 . S
H4030 C4020 0.930 . S
H4031 C4021 0.930 . S
H4032 C4038 0.930 . S
H4033 C4042 0.930 . S
H4034 C4047 0.929 . S
H4035 C4045 0.929 . S
H4036 C4040 0.929 . S
H4037 C4046 0.929 . S
C4038 H4032 0.930 . S
C4038 C4039 1.367 . S
C4038 C4046 1.378 . S
C4039 C4038 1.367 . S
C4039 C4047 1.433 . S
C4040 H4036 0.929 . S
C4040 C4042 1.378 . S
C4040 C4044 1.350 . S
C4041 C4044 1.463 . S
C4041 C4046 1.350 . S
C4041 N4049 1.427 . S
C4042 H4033 0.930 . S
C4042 C4040 1.378 . S
C4042 C4043 1.367 . S
C4043 C4042 1.367 . S
C4043 C4045 1.433 . S
C4044 C4040 1.350 . S
C4044 C4041 1.463 . S
C4044 N4048 1.427 . S
C4045 H4035 0.929 . S
C4045 C4043 1.433 . S
C4045 N4048 1.384 . S
C4046 H4037 0.929 . S
C4046 C4038 1.378 . S
C4046 C4041 1.350 . S
C4047 H4034 0.929 . S
C4047 C4039 1.433 . S
C4047 N4049 1.384 . S
N4048 C4044 1.427 . S
N4048 C4045 1.384 . S
N4049 C4041 1.427 . S
N4049 C4047 1.384 . S
H4050 C4056 0.930 . S
H4051 C4060 0.930 . S
H4052 C4065 0.929 . S
H4053 C4063 0.929 . S
H4054 C4058 0.929 . S
H4055 C4064 0.929 . S
C4056 H4050 0.930 . S
C4056 C4057 1.367 . S
C4056 C4064 1.378 . S
C4057 C4056 1.367 . S
C4057 C4065 1.433 . S
C4058 H4054 0.929 . S
C4058 C4060 1.378 . S
C4058 C4062 1.350 . S
C4059 C4062 1.463 . S
C4059 C4064 1.350 . S
C4059 N4067 1.427 . S
C4060 H4051 0.930 . S
C4060 C4058 1.378 . S
C4060 C4061 1.367 . S
C4061 C4060 1.367 . S
C4061 C4063 1.433 . S
C4062 C4058 1.350 . S
C4062 C4059 1.463 . S
C4062 N4066 1.427 . S
C4063 H4053 0.929 . S
C4063 C4061 1.433 . S
C4063 N4066 1.384 . S
C4064 H4055 0.929 . S
C4064 C4056 1.378 . S
C4064 C4059 1.350 . S
C4065 H4052 0.929 . S
C4065 C4057 1.433 . S
C4065 N4067 1.384 . S
N4066 C4062 1.427 . S
N4066 C4063 1.384 . S
N4067 C4059 1.427 . S
N4067 C4065 1.384 . S
H4068 C4074 0.930 . S
H4069 C4078 0.930 . S
H4070 C4083 0.929 . S
H4071 C4081 0.929 . S
H4072 C4076 0.929 . S
H4073 C4082 0.929 . S
C4074 H4068 0.930 . S
C4074 C4075 1.367 . S
C4074 C4082 1.378 . S
C4075 C4074 1.367 . S
C4075 C4083 1.433 . S
C4076 H4072 0.929 . S
C4076 C4078 1.378 . S
C4076 C4080 1.350 . S
C4077 C4080 1.463 . S
C4077 C4082 1.350 . S
C4077 N4085 1.427 . S
C4078 H4069 0.930 . S
C4078 C4076 1.378 . S
C4078 C4079 1.367 . S
C4079 C4078 1.367 . S
C4079 C4081 1.433 . S
C4080 C4076 1.350 . S
C4080 C4077 1.463 . S
C4080 N4084 1.427 . S
C4081 H4071 0.929 . S
C4081 C4079 1.433 . S
C4081 N4084 1.384 . S
C4082 H4073 0.929 . S
C4082 C4074 1.378 . S
C4082 C4077 1.350 . S
C4083 H4070 0.929 . S
C4083 C4075 1.433 . S
C4083 N4085 1.384 . S
N4084 C4080 1.427 . S
N4084 C4081 1.384 . S
N4085 C4077 1.427 . S
N4085 C4083 1.384 . S
H4086 C4092 0.930 . S
H4087 C4096 0.930 . S
H4088 C4101 0.929 . S
H4089 C4099 0.929 . S
H4090 C4094 0.929 . S
H4091 C4100 0.929 . S
C4092 H4086 0.930 . S
C4092 C4093 1.389 . S
C4092 C4100 1.378 . S
C4093 C4092 1.389 . S
C4093 C4101 1.412 1_556 S
C4094 H4090 0.929 . S
C4094 C4096 1.378 . S
C4094 C4098 1.355 . S
C4095 C4098 1.461 1_556 S
C4095 C4100 1.365 . S
C4095 N4103 1.413 1_556 S
C4096 H4087 0.930 . S
C4096 C4094 1.378 . S
C4096 C4097 1.378 . S
C4097 C4096 1.378 . S
C4097 C4099 1.422 1_554 S
C4098 C4094 1.355 . S
C4098 C4095 1.461 1_554 S
C4098 N4102 1.423 1_554 S
C4099 H4089 0.929 . S
C4099 C4097 1.422 1_556 S
C4099 N4102 1.384 . S
C4100 H4091 0.929 . S
C4100 C4092 1.378 . S
C4100 C4095 1.365 . S
C4101 H4088 0.929 . S
C4101 C4093 1.412 1_554 S
C4101 N4103 1.384 . S
N4102 C4098 1.423 1_556 S
N4102 C4099 1.384 . S
N4103 C4095 1.413 1_554 S
N4103 C4101 1.384 . S
H4104 C4110 0.930 . S
H4105 C4114 0.884 1_565 S
H4106 C4119 0.887 1_565 S
H4107 C4117 0.929 . S
H4108 C4112 0.929 1_565 S
H4109 C4118 0.929 . S
C4110 H4104 0.930 . S
C4110 C4111 1.367 . S
C4110 C4118 1.378 . S
C4111 C4110 1.367 . S
C4111 C4119 1.478 . S
C4112 H4108 0.929 1_545 S
C4112 C4114 1.379 . S
C4112 C4116 1.350 . S
C4113 C4116 1.463 . S
C4113 C4118 1.350 . S
C4113 N4121 1.427 . S
C4114 H4105 0.884 1_545 S
C4114 C4112 1.379 . S
C4114 C4115 1.414 . S
C4115 C4114 1.414 . S
C4115 C4117 1.433 . S
C4116 C4112 1.350 . S
C4116 C4113 1.463 . S
C4116 N4120 1.427 . S
C4117 H4107 0.929 . S
C4117 C4115 1.433 . S
C4117 N4120 1.384 . S
C4118 H4109 0.929 . S
C4118 C4110 1.378 . S
C4118 C4113 1.350 . S
C4119 H4106 0.887 1_545 S
C4119 C4111 1.478 . S
C4119 N4121 1.385 . S
N4120 C4116 1.427 . S
N4120 C4117 1.384 . S
N4121 C4113 1.427 . S
N4121 C4119 1.385 . S
H4122 C4128 0.930 . S
H4123 C4132 0.930 . S
H4124 C4137 0.929 . S
H4125 C4135 0.929 . S
H4126 C4130 0.929 . S
H4127 C4136 0.929 . S
C4128 H4122 0.930 . S
C4128 C4129 1.349 1_565 S
C4128 C4136 1.378 . S
C4129 C4128 1.349 1_545 S
C4129 C4137 1.452 . S
C4130 H4126 0.929 . S
C4130 C4132 1.378 . S
C4130 C4134 1.373 . S
C4131 C4134 1.462 . S
C4131 C4136 1.348 1_545 S
C4131 N4139 1.429 . S
C4132 H4123 0.930 . S
C4132 C4130 1.378 . S
C4132 C4133 1.373 . S
C4133 C4132 1.373 . S
C4133 C4135 1.427 1_545 S
C4134 C4130 1.373 . S
C4134 C4131 1.462 . S
C4134 N4138 1.405 1_545 S
C4135 H4125 0.929 . S
C4135 C4133 1.427 1_565 S
C4135 N4138 1.384 . S
C4136 H4127 0.929 . S
C4136 C4128 1.378 . S
C4136 C4131 1.348 1_565 S
C4137 H4124 0.929 . S
C4137 C4129 1.452 . S
C4137 N4139 1.384 . S
N4138 C4134 1.405 1_565 S
N4138 C4135 1.384 . S
N4139 C4131 1.429 . S
N4139 C4137 1.384 . S
H4140 C4146 0.930 . S
H4141 C4150 0.930 . S
H4142 C4155 0.929 . S
H4143 C4153 0.929 . S
H4144 C4148 0.929 . S
H4145 C4154 0.929 . S
C4146 H4140 0.930 . S
C4146 C4147 1.367 1_545 S
C4146 C4154 1.378 . S
C4147 C4146 1.367 1_565 S
C4147 C4155 1.433 . S
C4148 H4144 0.929 . S
C4148 C4150 1.378 . S
C4148 C4152 1.350 . S
C4149 C4152 1.463 1_554 S
C4149 C4154 1.350 1_565 S
C4149 N4157 1.427 . S
C4150 H4141 0.930 . S
C4150 C4148 1.378 . S
C4150 C4151 1.367 . S
C4151 C4150 1.367 . S
C4151 C4153 1.433 1_565 S
C4152 C4148 1.350 . S
C4152 C4149 1.463 1_556 S
C4152 N4156 1.427 1_565 S
C4153 H4143 0.929 . S
C4153 C4151 1.433 1_545 S
C4153 N4156 1.384 . S
C4154 H4145 0.929 . S
C4154 C4146 1.378 . S
C4154 C4149 1.350 1_545 S
C4155 H4142 0.929 . S
C4155 C4147 1.433 . S
C4155 N4157 1.384 . S
N4156 C4152 1.427 1_545 S
N4156 C4153 1.384 . S
N4157 C4149 1.427 . S
N4157 C4155 1.384 . S
H4158 C4164 0.930 . S
H4159 C4168 0.930 . S
H4160 C4173 0.929 . S
H4161 C4171 0.929 . S
H4162 C4166 0.929 . S
H4163 C4172 0.929 . S
C4164 H4158 0.930 . S
C4164 C4165 1.395 . S
C4164 C4172 1.378 . S
C4165 C4164 1.395 . S
C4165 C4173 1.404 1_565 S
C4166 H4162 0.929 . S
C4166 C4168 1.378 . S
C4166 C4170 1.350 . S
C4167 C4170 1.462 1_565 S
C4167 C4172 1.353 . S
C4167 N4175 1.425 1_565 S
C4168 H4159 0.930 . S
C4168 C4166 1.378 . S
C4168 C4169 1.367 . S
C4169 C4168 1.367 . S
C4169 C4171 1.433 1_545 S
C4170 C4166 1.350 . S
C4170 C4167 1.462 1_545 S
C4170 N4174 1.427 1_545 S
C4171 H4161 0.929 . S
C4171 C4169 1.433 1_565 S
C4171 N4174 1.384 . S
C4172 H4163 0.929 . S
C4172 C4164 1.378 . S
C4172 C4167 1.353 . S
C4173 H4160 0.929 . S
C4173 C4165 1.404 1_545 S
C4173 N4175 1.384 . S
N4174 C4170 1.427 1_565 S
N4174 C4171 1.384 . S
N4175 C4167 1.425 1_545 S
N4175 C4173 1.384 . S
H4176 C4182 0.930 1_556 S
H4177 C4186 0.930 . S
H4178 C4191 0.929 . S
H4179 C4189 0.929 1_556 S
H4180 C4184 0.929 . S
H4181 C4190 0.929 1_556 S
C4182 H4176 0.930 1_554 S
C4182 C4183 1.367 . S
C4182 C4190 1.378 . S
C4183 C4182 1.367 . S
C4183 C4191 1.433 . S
C4184 H4180 0.929 . S
C4184 C4186 1.378 . S
C4184 C4188 1.350 . S
C4185 C4188 1.463 . S
C4185 C4190 1.350 . S
C4185 N4193 1.427 . S
C4186 H4177 0.930 . S
C4186 C4184 1.378 . S
C4186 C4187 1.367 . S
C4187 C4186 1.367 . S
C4187 C4189 1.433 . S
C4188 C4184 1.350 . S
C4188 C4185 1.463 . S
C4188 N4192 1.427 . S
C4189 H4179 0.929 1_554 S
C4189 C4187 1.433 . S
C4189 N4192 1.384 . S
C4190 H4181 0.929 1_554 S
C4190 C4182 1.378 . S
C4190 C4185 1.350 . S
C4191 H4178 0.929 . S
C4191 C4183 1.433 . S
C4191 N4193 1.384 . S
N4192 C4188 1.427 . S
N4192 C4189 1.384 . S
N4193 C4185 1.427 . S
N4193 C4191 1.384 . S
H4194 C4200 0.930 . S
H4195 C4204 0.930 . S
H4196 C4209 0.947 . S
H4197 C4207 0.929 . S
H4198 C4202 0.969 . S
H4199 C4208 0.929 . S
C4200 H4194 0.930 . S
C4200 C4201 1.367 . S
C4200 C4208 1.378 . S
C4201 C4200 1.367 . S
C4201 C4209 1.414 1_556 S
C4202 H4198 0.969 . S
C4202 C4204 1.379 . S
C4202 C4206 1.309 1_554 S
C4203 C4206 1.463 1_655 S
C4203 C4208 1.350 . S
C4203 N4211 1.409 1_556 S
C4204 H4195 0.930 . S
C4204 C4202 1.379 . S
C4204 C4205 1.367 1_554 S
C4205 C4204 1.367 1_556 S
C4205 C4207 1.433 . S
C4206 C4202 1.309 1_556 S
C4206 C4203 1.463 1_455 S
C4206 N4210 1.427 . S
C4207 H4197 0.929 . S
C4207 C4205 1.433 . S
C4207 N4210 1.384 . S
C4208 H4199 0.929 . S
C4208 C4200 1.378 . S
C4208 C4203 1.350 . S
C4209 H4196 0.947 . S
C4209 C4201 1.414 1_554 S
C4209 N4211 1.384 . S
N4210 C4206 1.427 . S
N4210 C4207 1.384 . S
N4211 C4203 1.409 1_554 S
N4211 C4209 1.384 . S
H4212 C4218 0.930 . S
H4213 C4222 0.930 . S
H4214 C4227 0.929 . S
H4215 C4225 0.929 . S
H4216 C4220 0.929 . S
H4217 C4226 0.929 . S
C4218 H4212 0.930 . S
C4218 C4219 1.350 1_655 S
C4218 C4226 1.378 . S
C4219 C4218 1.350 1_455 S
C4219 C4227 1.451 . S
C4220 H4216 0.929 . S
C4220 C4222 1.378 . S
C4220 C4224 1.375 . S
C4221 C4224 1.462 . S
C4221 C4226 1.340 1_455 S
C4221 N4229 1.438 . S
C4222 H4213 0.930 . S
C4222 C4220 1.378 . S
C4222 C4223 1.384 . S
C4223 C4222 1.384 . S
C4223 C4225 1.417 1_455 S
C4224 C4220 1.375 . S
C4224 C4221 1.462 . S
C4224 N4228 1.403 1_455 S
C4225 H4215 0.929 . S
C4225 C4223 1.417 1_655 S
C4225 N4228 1.384 . S
C4226 H4217 0.929 . S
C4226 C4218 1.378 . S
C4226 C4221 1.340 1_655 S
C4227 H4214 0.929 . S
C4227 C4219 1.451 . S
C4227 N4229 1.384 . S
N4228 C4224 1.403 1_655 S
N4228 C4225 1.384 . S
N4229 C4221 1.438 . S
N4229 C4227 1.384 . S
H4230 C4236 0.930 . S
H4231 C4240 0.930 . S
H4232 C4245 0.929 . S
H4233 C4243 0.929 . S
H4234 C4238 0.929 . S
H4235 C4244 0.929 . S
C4236 H4230 0.930 . S
C4236 C4237 1.367 . S
C4236 C4244 1.378 . S
C4237 C4236 1.367 . S
C4237 C4245 1.433 . S
C4238 H4234 0.929 . S
C4238 C4240 1.378 . S
C4238 C4242 1.350 . S
C4239 C4242 1.463 . S
C4239 C4244 1.350 . S
C4239 N4247 1.427 . S
C4240 H4231 0.930 . S
C4240 C4238 1.378 . S
C4240 C4241 1.367 . S
C4241 C4240 1.367 . S
C4241 C4243 1.433 . S
C4242 C4238 1.350 . S
C4242 C4239 1.463 . S
C4242 N4246 1.427 . S
C4243 H4233 0.929 . S
C4243 C4241 1.433 . S
C4243 N4246 1.384 . S
C4244 H4235 0.929 . S
C4244 C4236 1.378 . S
C4244 C4239 1.350 . S
C4245 H4232 0.929 . S
C4245 C4237 1.433 . S
C4245 N4247 1.384 . S
N4246 C4242 1.427 . S
N4246 C4243 1.384 . S
N4247 C4239 1.427 . S
N4247 C4245 1.384 . S
H4248 C4254 0.930 . S
H4249 C4258 0.930 . S
H4250 C4263 0.929 . S
H4251 C4261 0.929 . S
H4252 C4256 0.929 . S
H4253 C4262 0.929 . S
C4254 H4248 0.930 . S
C4254 C4255 1.367 . S
C4254 C4262 1.378 . S
C4255 C4254 1.367 . S
C4255 C4263 1.433 . S
C4256 H4252 0.929 . S
C4256 C4258 1.378 . S
C4256 C4260 1.350 . S
C4257 C4260 1.463 1_655 S
C4257 C4262 1.350 . S
C4257 N4265 1.427 . S
C4258 H4249 0.930 . S
C4258 C4256 1.378 . S
C4258 C4259 1.367 . S
C4259 C4258 1.367 . S
C4259 C4261 1.433 . S
C4260 C4256 1.350 . S
C4260 C4257 1.463 1_455 S
C4260 N4264 1.427 . S
C4261 H4251 0.929 . S
C4261 C4259 1.433 . S
C4261 N4264 1.384 . S
C4262 H4253 0.929 . S
C4262 C4254 1.378 . S
C4262 C4257 1.350 . S
C4263 H4250 0.929 . S
C4263 C4255 1.433 . S
C4263 N4265 1.384 . S
N4264 C4260 1.427 . S
N4264 C4261 1.384 . S
N4265 C4257 1.427 . S
N4265 C4263 1.384 . S
H4266 C4272 0.930 . S
H4267 C4276 0.930 . S
H4268 C4281 0.929 . S
H4269 C4279 0.929 . S
H4270 C4274 0.929 . S
H4271 C4280 0.929 . S
C4272 H4266 0.930 . S
C4272 C4273 1.357 1_455 S
C4272 C4280 1.378 . S
C4273 C4272 1.357 1_655 S
C4273 C4281 1.443 . S
C4274 H4270 0.929 . S
C4274 C4276 1.378 . S
C4274 C4278 1.349 1_655 S
C4275 C4278 1.462 . S
C4275 C4280 1.359 . S
C4275 N4283 1.418 1_455 S
C4276 H4267 0.930 . S
C4276 C4274 1.378 . S
C4276 C4277 1.341 1_655 S
C4277 C4276 1.341 1_455 S
C4277 C4279 1.460 . S
C4278 C4274 1.349 1_455 S
C4278 C4275 1.462 . S
C4278 N4282 1.429 . S
C4279 H4269 0.929 . S
C4279 C4277 1.460 . S
C4279 N4282 1.384 . S
C4280 H4271 0.929 . S
C4280 C4272 1.378 . S
C4280 C4275 1.359 . S
C4281 H4268 0.929 . S
C4281 C4273 1.443 . S
C4281 N4283 1.384 . S
N4282 C4278 1.429 . S
N4282 C4279 1.384 . S
N4283 C4275 1.418 1_655 S
N4283 C4281 1.384 . S
H4284 C4290 0.930 . S
H4285 C4294 0.930 . S
H4286 C4299 0.929 . S
H4287 C4297 0.929 . S
H4288 C4292 0.929 . S
H4289 C4298 0.929 . S
C4290 H4284 0.930 . S
C4290 C4291 1.367 . S
C4290 C4298 1.378 . S
C4291 C4290 1.367 . S
C4291 C4299 1.433 . S
C4292 H4288 0.929 . S
C4292 C4294 1.378 . S
C4292 C4296 1.350 . S
C4293 C4296 1.463 . S
C4293 C4298 1.350 . S
C4293 N4301 1.427 . S
C4294 H4285 0.930 . S
C4294 C4292 1.378 . S
C4294 C4295 1.367 . S
C4295 C4294 1.367 . S
C4295 C4297 1.433 . S
C4296 C4292 1.350 . S
C4296 C4293 1.463 . S
C4296 N4300 1.427 . S
C4297 H4287 0.929 . S
C4297 C4295 1.433 . S
C4297 N4300 1.384 . S
C4298 H4289 0.929 . S
C4298 C4290 1.378 . S
C4298 C4293 1.350 . S
C4299 H4286 0.929 . S
C4299 C4291 1.433 . S
C4299 N4301 1.384 . S
N4300 C4296 1.427 . S
N4300 C4297 1.384 . S
N4301 C4293 1.427 . S
N4301 C4299 1.384 . S
H4302 C4308 0.930 . S
H4303 C4312 0.930 . S
H4304 C4317 0.929 . S
H4305 C4315 0.929 . S
H4306 C4310 0.929 . S
H4307 C4316 0.929 . S
C4308 H4302 0.930 . S
C4308 C4309 1.367 . S
C4308 C4316 1.378 . S
C4309 C4308 1.367 . S
C4309 C4317 1.433 . S
C4310 H4306 0.929 . S
C4310 C4312 1.378 . S
C4310 C4314 1.350 . S
C4311 C4314 1.463 . S
C4311 C4316 1.350 . S
C4311 N4319 1.427 . S
C4312 H4303 0.930 . S
C4312 C4310 1.378 . S
C4312 C4313 1.367 . S
C4313 C4312 1.367 . S
C4313 C4315 1.433 . S
C4314 C4310 1.350 . S
C4314 C4311 1.463 . S
C4314 N4318 1.427 . S
C4315 H4305 0.929 . S
C4315 C4313 1.433 . S
C4315 N4318 1.384 . S
C4316 H4307 0.929 . S
C4316 C4308 1.378 . S
C4316 C4311 1.350 . S
C4317 H4304 0.929 . S
C4317 C4309 1.433 . S
C4317 N4319 1.384 . S
N4318 C4314 1.427 . S
N4318 C4315 1.384 . S
N4319 C4311 1.427 . S
N4319 C4317 1.384 . S
H4320 C4326 0.930 . S
H4321 C4330 0.930 . S
H4322 C4335 0.929 . S
H4323 C4333 0.929 . S
H4324 C4328 0.929 . S
H4325 C4334 0.929 . S
C4326 H4320 0.930 . S
C4326 C4327 1.367 . S
C4326 C4334 1.378 . S
C4327 C4326 1.367 . S
C4327 C4335 1.433 . S
C4328 H4324 0.929 . S
C4328 C4330 1.378 . S
C4328 C4332 1.350 . S
C4329 C4332 1.463 . S
C4329 C4334 1.350 . S
C4329 N4337 1.427 . S
C4330 H4321 0.930 . S
C4330 C4328 1.378 . S
C4330 C4331 1.367 . S
C4331 C4330 1.367 . S
C4331 C4333 1.433 . S
C4332 C4328 1.350 . S
C4332 C4329 1.463 . S
C4332 N4336 1.427 . S
C4333 H4323 0.929 . S
C4333 C4331 1.433 . S
C4333 N4336 1.384 . S
C4334 H4325 0.929 . S
C4334 C4326 1.378 . S
C4334 C4329 1.350 . S
C4335 H4322 0.929 . S
C4335 C4327 1.433 . S
C4335 N4337 1.384 . S
N4336 C4332 1.427 . S
N4336 C4333 1.384 . S
N4337 C4329 1.427 . S
N4337 C4335 1.384 . S
H4338 C4344 0.930 . S
H4339 C4348 0.930 . S
H4340 C4353 0.929 . S
H4341 C4351 0.929 . S
H4342 C4346 0.929 . S
H4343 C4352 0.929 . S
C4344 H4338 0.930 . S
C4344 C4345 1.367 . S
C4344 C4352 1.378 . S
C4345 C4344 1.367 . S
C4345 C4353 1.433 . S
C4346 H4342 0.929 . S
C4346 C4348 1.378 . S
C4346 C4350 1.350 . S
C4347 C4350 1.463 . S
C4347 C4352 1.350 . S
C4347 N4355 1.427 . S
C4348 H4339 0.930 . S
C4348 C4346 1.378 . S
C4348 C4349 1.367 . S
C4349 C4348 1.367 . S
C4349 C4351 1.433 . S
C4350 C4346 1.350 . S
C4350 C4347 1.463 . S
C4350 N4354 1.427 . S
C4351 H4341 0.929 . S
C4351 C4349 1.433 . S
C4351 N4354 1.384 . S
C4352 H4343 0.929 . S
C4352 C4344 1.378 . S
C4352 C4347 1.350 . S
C4353 H4340 0.929 . S
C4353 C4345 1.433 . S
C4353 N4355 1.384 . S
N4354 C4350 1.427 . S
N4354 C4351 1.384 . S
N4355 C4347 1.427 . S
N4355 C4353 1.384 . S
H4356 C4362 0.930 . S
H4357 C4366 0.930 . S
H4358 C4371 0.929 . S
H4359 C4369 0.929 . S
H4360 C4364 0.929 . S
H4361 C4370 0.929 . S
C4362 H4356 0.930 . S
C4362 C4363 1.368 . S
C4362 C4370 1.378 . S
C4363 C4362 1.368 . S
C4363 C4371 1.432 1_556 S
C4364 H4360 0.929 . S
C4364 C4366 1.378 . S
C4364 C4368 1.358 . S
C4365 C4368 1.462 . S
C4365 C4370 1.351 1_554 S
C4365 N4373 1.427 . S
C4366 H4357 0.930 . S
C4366 C4364 1.378 . S
C4366 C4367 1.379 . S
C4367 C4366 1.379 . S
C4367 C4369 1.422 1_554 S
C4368 C4364 1.358 . S
C4368 C4365 1.462 . S
C4368 N4372 1.420 1_554 S
C4369 H4359 0.929 . S
C4369 C4367 1.422 1_556 S
C4369 N4372 1.384 . S
C4370 H4361 0.929 . S
C4370 C4362 1.378 . S
C4370 C4365 1.351 1_556 S
C4371 H4358 0.929 . S
C4371 C4363 1.432 1_554 S
C4371 N4373 1.384 . S
N4372 C4368 1.420 1_556 S
N4372 C4369 1.384 . S
N4373 C4365 1.427 . S
N4373 C4371 1.384 . S
H4374 C4380 0.930 . S
H4375 C4384 0.928 1_545 S
H4376 C4389 0.929 1_545 S
H4377 C4387 0.929 . S
H4378 C4382 0.910 1_545 S
H4379 C4388 0.929 . S
C4380 H4374 0.930 . S
C4380 C4381 1.367 . S
C4380 C4388 1.378 . S
C4381 C4380 1.367 . S
C4381 C4389 1.433 . S
C4382 H4378 0.910 1_565 S
C4382 C4384 1.378 . S
C4382 C4386 1.350 . S
C4383 C4386 1.463 . S
C4383 C4388 1.350 . S
C4383 N4391 1.427 . S
C4384 H4375 0.928 1_565 S
C4384 C4382 1.378 . S
C4384 C4385 1.367 . S
C4385 C4384 1.367 . S
C4385 C4387 1.433 . S
C4386 C4382 1.350 . S
C4386 C4383 1.463 . S
C4386 N4390 1.427 . S
C4387 H4377 0.929 . S
C4387 C4385 1.433 . S
C4387 N4390 1.384 . S
C4388 H4379 0.929 . S
C4388 C4380 1.378 . S
C4388 C4383 1.350 . S
C4389 H4376 0.929 1_565 S
C4389 C4381 1.433 . S
C4389 N4391 1.384 . S
N4390 C4386 1.427 . S
N4390 C4387 1.384 . S
N4391 C4383 1.427 . S
N4391 C4389 1.384 . S
H4392 C4398 0.930 . S
H4393 C4402 0.930 . S
H4394 C4407 0.929 . S
H4395 C4405 0.929 . S
H4396 C4400 0.929 . S
H4397 C4406 0.929 . S
C4398 H4392 0.930 . S
C4398 C4399 1.335 1_545 S
C4398 C4406 1.378 . S
C4399 C4398 1.335 1_565 S
C4399 C4407 1.465 . S
C4400 H4396 0.929 . S
C4400 C4402 1.378 . S
C4400 C4404 1.388 . S
C4401 C4404 1.461 . S
C4401 C4406 1.351 1_565 S
C4401 N4409 1.426 . S
C4402 H4393 0.930 . S
C4402 C4400 1.378 . S
C4402 C4403 1.372 . S
C4403 C4402 1.372 . S
C4403 C4405 1.428 1_565 S
C4404 C4400 1.388 . S
C4404 C4401 1.461 . S
C4404 N4408 1.389 1_565 S
C4405 H4395 0.929 . S
C4405 C4403 1.428 1_545 S
C4405 N4408 1.384 . S
C4406 H4397 0.929 . S
C4406 C4398 1.378 . S
C4406 C4401 1.351 1_545 S
C4407 H4394 0.929 . S
C4407 C4399 1.465 . S
C4407 N4409 1.384 . S
N4408 C4404 1.389 1_545 S
N4408 C4405 1.384 . S
N4409 C4401 1.426 . S
N4409 C4407 1.384 . S
H4410 C4416 0.930 . S
H4411 C4420 0.916 1_565 S
H4412 C4425 0.929 1_565 S
H4413 C4423 0.929 . S
H4414 C4418 0.929 1_565 S
H4415 C4424 0.929 . S
C4416 H4410 0.930 . S
C4416 C4417 1.367 . S
C4416 C4424 1.378 . S
C4417 C4416 1.367 . S
C4417 C4425 1.433 . S
C4418 H4414 0.929 1_545 S
C4418 C4420 1.378 . S
C4418 C4422 1.350 . S
C4419 C4422 1.463 1_556 S
C4419 C4424 1.350 . S
C4419 N4427 1.427 . S
C4420 H4411 0.916 1_545 S
C4420 C4418 1.378 . S
C4420 C4421 1.367 . S
C4421 C4420 1.367 . S
C4421 C4423 1.433 . S
C4422 C4418 1.350 . S
C4422 C4419 1.463 1_554 S
C4422 N4426 1.427 . S
C4423 H4413 0.929 . S
C4423 C4421 1.433 . S
C4423 N4426 1.384 . S
C4424 H4415 0.929 . S
C4424 C4416 1.378 . S
C4424 C4419 1.350 . S
C4425 H4412 0.929 1_545 S
C4425 C4417 1.433 . S
C4425 N4427 1.384 . S
N4426 C4422 1.427 . S
N4426 C4423 1.384 . S
N4427 C4419 1.427 . S
N4427 C4425 1.384 . S
H4428 C4434 0.930 . S
H4429 C4438 0.930 . S
H4430 C4443 0.929 . S
H4431 C4441 0.929 . S
H4432 C4436 0.929 . S
H4433 C4442 0.929 . S
C4434 H4428 0.930 . S
C4434 C4435 1.367 . S
C4434 C4442 1.378 . S
C4435 C4434 1.367 . S
C4435 C4443 1.433 1_565 S
C4436 H4432 0.929 . S
C4436 C4438 1.378 . S
C4436 C4440 1.359 . S
C4437 C4440 1.461 1_565 S
C4437 C4442 1.366 . S
C4437 N4445 1.412 1_565 S
C4438 H4429 0.930 . S
C4438 C4436 1.378 . S
C4438 C4439 1.390 . S
C4439 C4438 1.390 . S
C4439 C4441 1.410 1_545 S
C4440 C4436 1.359 . S
C4440 C4437 1.461 1_545 S
C4440 N4444 1.419 1_545 S
C4441 H4431 0.929 . S
C4441 C4439 1.410 1_565 S
C4441 N4444 1.384 . S
C4442 H4433 0.929 . S
C4442 C4434 1.378 . S
C4442 C4437 1.366 . S
C4443 H4430 0.929 . S
C4443 C4435 1.433 1_545 S
C4443 N4445 1.384 . S
N4444 C4440 1.419 1_565 S
N4444 C4441 1.384 . S
N4445 C4437 1.412 1_545 S
N4445 C4443 1.384 . S
H4446 C4452 0.909 1_554 S
H4447 C4456 0.930 . S
H4448 C4461 0.929 . S
H4449 C4459 0.902 1_554 S
H4450 C4454 0.929 . S
H4451 C4460 0.904 1_554 S
C4452 H4446 0.909 1_556 S
C4452 C4453 1.389 . S
C4452 C4460 1.378 . S
C4453 C4452 1.389 . S
C4453 C4461 1.433 . S
C4454 H4450 0.929 . S
C4454 C4456 1.378 . S
C4454 C4458 1.350 . S
C4455 C4458 1.463 . S
C4455 C4460 1.376 . S
C4455 N4463 1.427 . S
C4456 H4447 0.930 . S
C4456 C4454 1.378 . S
C4456 C4457 1.367 . S
C4457 C4456 1.367 . S
C4457 C4459 1.463 . S
C4458 C4454 1.350 . S
C4458 C4455 1.463 . S
C4458 N4462 1.460 . S
C4459 H4449 0.902 1_556 S
C4459 C4457 1.463 . S
C4459 N4462 1.384 . S
C4460 H4451 0.904 1_556 S
C4460 C4452 1.378 . S
C4460 C4455 1.376 . S
C4461 H4448 0.929 . S
C4461 C4453 1.433 . S
C4461 N4463 1.384 . S
N4462 C4458 1.460 . S
N4462 C4459 1.384 . S
N4463 C4455 1.427 . S
N4463 C4461 1.384 . S
H4464 C4470 0.930 . S
H4465 C4474 0.930 . S
H4466 C4479 0.929 . S
H4467 C4477 0.929 . S
H4468 C4472 0.929 . S
H4469 C4478 0.929 . S
C4470 H4464 0.930 . S
C4470 C4471 1.367 . S
C4470 C4478 1.378 . S
C4471 C4470 1.367 . S
C4471 C4479 1.433 1_554 S
C4472 H4468 0.929 . S
C4472 C4474 1.378 . S
C4472 C4476 1.350 1_556 S
C4473 C4476 1.463 1_655 S
C4473 C4478 1.350 . S
C4473 N4481 1.427 1_554 S
C4474 H4465 0.930 . S
C4474 C4472 1.378 . S
C4474 C4475 1.367 1_556 S
C4475 C4474 1.367 1_554 S
C4475 C4477 1.433 . S
C4476 C4472 1.350 1_554 S
C4476 C4473 1.463 1_455 S
C4476 N4480 1.427 . S
C4477 H4467 0.929 . S
C4477 C4475 1.433 . S
C4477 N4480 1.384 . S
C4478 H4469 0.929 . S
C4478 C4470 1.378 . S
C4478 C4473 1.350 . S
C4479 H4466 0.929 . S
C4479 C4471 1.433 1_556 S
C4479 N4481 1.384 . S
N4480 C4476 1.427 . S
N4480 C4477 1.384 . S
N4481 C4473 1.427 1_556 S
N4481 C4479 1.384 . S
H4482 C4488 0.930 . S
H4483 C4492 0.930 . S
H4484 C4497 0.929 . S
H4485 C4495 0.929 . S
H4486 C4490 0.929 . S
H4487 C4496 0.929 . S
C4488 H4482 0.930 . S
C4488 C4489 1.367 . S
C4488 C4496 1.378 . S
C4489 C4488 1.367 . S
C4489 C4497 1.433 1_655 S
C4490 H4486 0.929 . S
C4490 C4492 1.378 . S
C4490 C4494 1.339 1_455 S
C4491 C4494 1.463 . S
C4491 C4496 1.350 . S
C4491 N4499 1.427 1_655 S
C4492 H4483 0.930 . S
C4492 C4490 1.378 . S
C4492 C4493 1.339 1_455 S
C4493 C4492 1.339 1_655 S
C4493 C4495 1.461 . S
C4494 C4490 1.339 1_655 S
C4494 C4491 1.463 . S
C4494 N4498 1.439 . S
C4495 H4485 0.929 . S
C4495 C4493 1.461 . S
C4495 N4498 1.384 . S
C4496 H4487 0.929 . S
C4496 C4488 1.378 . S
C4496 C4491 1.350 . S
C4497 H4484 0.929 . S
C4497 C4489 1.433 1_455 S
C4497 N4499 1.384 . S
N4498 C4494 1.439 . S
N4498 C4495 1.384 . S
N4499 C4491 1.427 1_455 S
N4499 C4497 1.384 . S
H4500 C4506 0.930 . S
H4501 C4510 0.930 . S
H4502 C4515 0.929 . S
H4503 C4513 0.929 . S
H4504 C4508 0.929 . S
H4505 C4514 0.929 . S
C4506 H4500 0.930 . S
C4506 C4507 1.367 . S
C4506 C4514 1.378 . S
C4507 C4506 1.367 . S
C4507 C4515 1.433 . S
C4508 H4504 0.929 . S
C4508 C4510 1.378 . S
C4508 C4512 1.350 . S
C4509 C4512 1.463 . S
C4509 C4514 1.350 . S
C4509 N4517 1.427 . S
C4510 H4501 0.930 . S
C4510 C4508 1.378 . S
C4510 C4511 1.367 . S
C4511 C4510 1.367 . S
C4511 C4513 1.433 . S
C4512 C4508 1.350 . S
C4512 C4509 1.463 . S
C4512 N4516 1.427 . S
C4513 H4503 0.929 . S
C4513 C4511 1.433 . S
C4513 N4516 1.384 . S
C4514 H4505 0.929 . S
C4514 C4506 1.378 . S
C4514 C4509 1.350 . S
C4515 H4502 0.929 . S
C4515 C4507 1.433 . S
C4515 N4517 1.384 . S
N4516 C4512 1.427 . S
N4516 C4513 1.384 . S
N4517 C4509 1.427 . S
N4517 C4515 1.384 . S
H4518 C4524 0.930 . S
H4519 C4528 0.930 . S
H4520 C4533 0.929 . S
H4521 C4531 0.929 . S
H4522 C4526 0.929 . S
H4523 C4532 0.929 . S
C4524 H4518 0.930 . S
C4524 C4525 1.367 . S
C4524 C4532 1.378 . S
C4525 C4524 1.367 . S
C4525 C4533 1.433 . S
C4526 H4522 0.929 . S
C4526 C4528 1.378 . S
C4526 C4530 1.350 . S
C4527 C4530 1.463 1_655 S
C4527 C4532 1.350 . S
C4527 N4535 1.427 . S
C4528 H4519 0.930 . S
C4528 C4526 1.378 . S
C4528 C4529 1.367 . S
C4529 C4528 1.367 . S
C4529 C4531 1.433 . S
C4530 C4526 1.350 . S
C4530 C4527 1.463 1_455 S
C4530 N4534 1.427 . S
C4531 H4521 0.929 . S
C4531 C4529 1.433 . S
C4531 N4534 1.384 . S
C4532 H4523 0.929 . S
C4532 C4524 1.378 . S
C4532 C4527 1.350 . S
C4533 H4520 0.929 . S
C4533 C4525 1.433 . S
C4533 N4535 1.384 . S
N4534 C4530 1.427 . S
N4534 C4531 1.384 . S
N4535 C4527 1.427 . S
N4535 C4533 1.384 . S
H4536 C4542 0.930 . S
H4537 C4546 0.930 . S
H4538 C4551 0.929 . S
H4539 C4549 0.929 . S
H4540 C4544 0.929 . S
H4541 C4550 0.929 . S
C4542 H4536 0.930 . S
C4542 C4543 1.367 . S
C4542 C4550 1.378 . S
C4543 C4542 1.367 . S
C4543 C4551 1.433 1_655 S
C4544 H4540 0.929 . S
C4544 C4546 1.378 . S
C4544 C4548 1.338 1_455 S
C4545 C4548 1.464 . S
C4545 C4550 1.350 . S
C4545 N4553 1.427 1_655 S
C4546 H4537 0.930 . S
C4546 C4544 1.378 . S
C4546 C4547 1.366 . S
C4547 C4546 1.366 . S
C4547 C4549 1.435 1_455 S
C4548 C4544 1.338 1_655 S
C4548 C4545 1.464 . S
C4548 N4552 1.439 . S
C4549 H4539 0.929 . S
C4549 C4547 1.435 1_655 S
C4549 N4552 1.384 . S
C4550 H4541 0.929 . S
C4550 C4542 1.378 . S
C4550 C4545 1.350 . S
C4551 H4538 0.929 . S
C4551 C4543 1.433 1_455 S
C4551 N4553 1.384 . S
N4552 C4548 1.439 . S
N4552 C4549 1.384 . S
N4553 C4545 1.427 1_455 S
N4553 C4551 1.384 . S
H4554 C4560 0.930 . S
H4555 C4564 0.930 . S
H4556 C4569 0.929 . S
H4557 C4567 0.929 . S
H4558 C4562 0.929 . S
H4559 C4568 0.929 . S
C4560 H4554 0.930 . S
C4560 C4561 1.367 . S
C4560 C4568 1.378 . S
C4561 C4560 1.367 . S
C4561 C4569 1.433 . S
C4562 H4558 0.929 . S
C4562 C4564 1.378 . S
C4562 C4566 1.350 . S
C4563 C4566 1.463 . S
C4563 C4568 1.350 . S
C4563 N4571 1.427 . S
C4564 H4555 0.930 . S
C4564 C4562 1.378 . S
C4564 C4565 1.367 . S
C4565 C4564 1.367 . S
C4565 C4567 1.433 . S
C4566 C4562 1.350 . S
C4566 C4563 1.463 . S
C4566 N4570 1.427 . S
C4567 H4557 0.929 . S
C4567 C4565 1.433 . S
C4567 N4570 1.384 . S
C4568 H4559 0.929 . S
C4568 C4560 1.378 . S
C4568 C4563 1.350 . S
C4569 H4556 0.929 . S
C4569 C4561 1.433 . S
C4569 N4571 1.384 . S
N4570 C4566 1.427 . S
N4570 C4567 1.384 . S
N4571 C4563 1.427 . S
N4571 C4569 1.384 . S
H4572 C4578 0.930 . S
H4573 C4582 0.930 . S
H4574 C4587 0.929 . S
H4575 C4585 0.929 . S
H4576 C4580 0.929 . S
H4577 C4586 0.929 . S
C4578 H4572 0.930 . S
C4578 C4579 1.367 . S
C4578 C4586 1.378 . S
C4579 C4578 1.367 . S
C4579 C4587 1.433 . S
C4580 H4576 0.929 . S
C4580 C4582 1.378 . S
C4580 C4584 1.350 . S
C4581 C4584 1.463 1_545 S
C4581 C4586 1.350 . S
C4581 N4589 1.427 . S
C4582 H4573 0.930 . S
C4582 C4580 1.378 . S
C4582 C4583 1.367 . S
C4583 C4582 1.367 . S
C4583 C4585 1.433 . S
C4584 C4580 1.350 . S
C4584 C4581 1.463 1_565 S
C4584 N4588 1.427 . S
C4585 H4575 0.929 . S
C4585 C4583 1.433 . S
C4585 N4588 1.384 . S
C4586 H4577 0.929 . S
C4586 C4578 1.378 . S
C4586 C4581 1.350 . S
C4587 H4574 0.929 . S
C4587 C4579 1.433 . S
C4587 N4589 1.384 . S
N4588 C4584 1.427 . S
N4588 C4585 1.384 . S
N4589 C4581 1.427 . S
N4589 C4587 1.384 . S
H4590 C4596 0.930 . S
H4591 C4600 0.930 . S
H4592 C4605 0.929 . S
H4593 C4603 0.929 . S
H4594 C4598 0.929 . S
H4595 C4604 0.929 . S
C4596 H4590 0.930 . S
C4596 C4597 1.367 . S
C4596 C4604 1.378 . S
C4597 C4596 1.367 . S
C4597 C4605 1.433 1_556 S
C4598 H4594 0.929 . S
C4598 C4600 1.378 . S
C4598 C4602 1.348 1_554 S
C4599 C4602 1.462 . S
C4599 C4604 1.358 . S
C4599 N4607 1.422 1_556 S
C4600 H4591 0.930 . S
C4600 C4598 1.378 . S
C4600 C4601 1.369 . S
C4601 C4600 1.369 . S
C4601 C4603 1.431 1_554 S
C4602 C4598 1.348 1_556 S
C4602 C4599 1.462 . S
C4602 N4606 1.429 . S
C4603 H4593 0.929 . S
C4603 C4601 1.431 1_556 S
C4603 N4606 1.384 . S
C4604 H4595 0.929 . S
C4604 C4596 1.378 . S
C4604 C4599 1.358 . S
C4605 H4592 0.929 . S
C4605 C4597 1.433 1_554 S
C4605 N4607 1.384 . S
N4606 C4602 1.429 . S
N4606 C4603 1.384 . S
N4607 C4599 1.422 1_554 S
N4607 C4605 1.384 . S
H4608 C4614 0.934 . S
H4609 C4618 0.930 . S
H4610 C4623 0.929 . S
H4611 C4621 0.952 . S
H4612 C4616 0.929 . S
H4613 C4622 0.941 . S
C4614 H4608 0.934 . S
C4614 C4615 1.367 . S
C4614 C4622 1.378 . S
C4615 C4614 1.367 . S
C4615 C4623 1.433 . S
C4616 H4612 0.929 . S
C4616 C4618 1.378 . S
C4616 C4620 1.350 . S
C4617 C4620 1.463 1_545 S
C4617 C4622 1.350 . S
C4617 N4625 1.427 . S
C4618 H4609 0.930 . S
C4618 C4616 1.378 . S
C4618 C4619 1.367 . S
C4619 C4618 1.367 . S
C4619 C4621 1.433 . S
C4620 C4616 1.350 . S
C4620 C4617 1.463 1_565 S
C4620 N4624 1.427 . S
C4621 H4611 0.952 . S
C4621 C4619 1.433 . S
C4621 N4624 1.384 . S
C4622 H4613 0.941 . S
C4622 C4614 1.378 . S
C4622 C4617 1.350 . S
C4623 H4610 0.929 . S
C4623 C4615 1.433 . S
C4623 N4625 1.384 . S
N4624 C4620 1.427 . S
N4624 C4621 1.384 . S
N4625 C4617 1.427 . S
N4625 C4623 1.384 . S
H4626 C4632 0.930 . S
H4627 C4636 0.930 . S
H4628 C4641 0.929 . S
H4629 C4639 0.929 . S
H4630 C4634 0.929 . S
H4631 C4640 0.929 . S
C4632 H4626 0.930 . S
C4632 C4633 1.367 . S
C4632 C4640 1.378 . S
C4633 C4632 1.367 . S
C4633 C4641 1.433 . S
C4634 H4630 0.929 . S
C4634 C4636 1.378 . S
C4634 C4638 1.350 . S
C4635 C4638 1.463 . S
C4635 C4640 1.350 . S
C4635 N4643 1.427 . S
C4636 H4627 0.930 . S
C4636 C4634 1.378 . S
C4636 C4637 1.367 . S
C4637 C4636 1.367 . S
C4637 C4639 1.433 . S
C4638 C4634 1.350 . S
C4638 C4635 1.463 . S
C4638 N4642 1.427 . S
C4639 H4629 0.929 . S
C4639 C4637 1.433 . S
C4639 N4642 1.384 . S
C4640 H4631 0.929 . S
C4640 C4632 1.378 . S
C4640 C4635 1.350 . S
C4641 H4628 0.929 . S
C4641 C4633 1.433 . S
C4641 N4643 1.384 . S
N4642 C4638 1.427 . S
N4642 C4639 1.384 . S
N4643 C4635 1.427 . S
N4643 C4641 1.384 . S
H4644 C4650 0.930 . S
H4645 C4654 0.930 . S
H4646 C4659 0.929 . S
H4647 C4657 0.929 . S
H4648 C4652 0.929 . S
H4649 C4658 0.929 . S
C4650 H4644 0.930 . S
C4650 C4651 1.367 . S
C4650 C4658 1.378 . S
C4651 C4650 1.367 . S
C4651 C4659 1.433 . S
C4652 H4648 0.929 . S
C4652 C4654 1.378 . S
C4652 C4656 1.350 . S
C4653 C4656 1.463 1_556 S
C4653 C4658 1.350 . S
C4653 N4661 1.427 . S
C4654 H4645 0.930 . S
C4654 C4652 1.378 . S
C4654 C4655 1.367 . S
C4655 C4654 1.367 . S
C4655 C4657 1.433 . S
C4656 C4652 1.350 . S
C4656 C4653 1.463 1_554 S
C4656 N4660 1.427 . S
C4657 H4647 0.929 . S
C4657 C4655 1.433 . S
C4657 N4660 1.384 . S
C4658 H4649 0.929 . S
C4658 C4650 1.378 . S
C4658 C4653 1.350 . S
C4659 H4646 0.929 . S
C4659 C4651 1.433 . S
C4659 N4661 1.384 . S
N4660 C4656 1.427 . S
N4660 C4657 1.384 . S
N4661 C4653 1.427 . S
N4661 C4659 1.384 . S
H4662 C4668 0.930 . S
H4663 C4672 0.930 . S
H4664 C4677 0.929 . S
H4665 C4675 0.929 . S
H4666 C4670 0.929 . S
H4667 C4676 0.929 . S
C4668 H4662 0.930 . S
C4668 C4669 1.367 . S
C4668 C4676 1.378 . S
C4669 C4668 1.367 . S
C4669 C4677 1.433 . S
C4670 H4666 0.929 . S
C4670 C4672 1.378 . S
C4670 C4674 1.350 . S
C4671 C4674 1.463 . S
C4671 C4676 1.350 . S
C4671 N4679 1.427 . S
C4672 H4663 0.930 . S
C4672 C4670 1.378 . S
C4672 C4673 1.367 . S
C4673 C4672 1.367 . S
C4673 C4675 1.433 . S
C4674 C4670 1.350 . S
C4674 C4671 1.463 . S
C4674 N4678 1.427 . S
C4675 H4665 0.929 . S
C4675 C4673 1.433 . S
C4675 N4678 1.384 . S
C4676 H4667 0.929 . S
C4676 C4668 1.378 . S
C4676 C4671 1.350 . S
C4677 H4664 0.929 . S
C4677 C4669 1.433 . S
C4677 N4679 1.384 . S
N4678 C4674 1.427 . S
N4678 C4675 1.384 . S
N4679 C4671 1.427 . S
N4679 C4677 1.384 . S
H4680 C4686 0.930 . S
H4681 C4690 0.930 . S
H4682 C4695 0.929 . S
H4683 C4693 0.929 . S
H4684 C4688 0.929 . S
H4685 C4694 0.929 . S
C4686 H4680 0.930 . S
C4686 C4687 1.367 . S
C4686 C4694 1.378 . S
C4687 C4686 1.367 . S
C4687 C4695 1.433 . S
C4688 H4684 0.929 . S
C4688 C4690 1.378 . S
C4688 C4692 1.350 . S
C4689 C4692 1.463 . S
C4689 C4694 1.350 . S
C4689 N4697 1.427 . S
C4690 H4681 0.930 . S
C4690 C4688 1.378 . S
C4690 C4691 1.367 . S
C4691 C4690 1.367 . S
C4691 C4693 1.433 . S
C4692 C4688 1.350 . S
C4692 C4689 1.463 . S
C4692 N4696 1.427 . S
C4693 H4683 0.929 . S
C4693 C4691 1.433 . S
C4693 N4696 1.384 . S
C4694 H4685 0.929 . S
C4694 C4686 1.378 . S
C4694 C4689 1.350 . S
C4695 H4682 0.929 . S
C4695 C4687 1.433 . S
C4695 N4697 1.384 . S
N4696 C4692 1.427 . S
N4696 C4693 1.384 . S
N4697 C4689 1.427 . S
N4697 C4695 1.384 . S
H4698 C4704 0.930 . S
H4699 C4708 0.930 . S
H4700 C4713 0.929 . S
H4701 C4711 0.929 . S
H4702 C4706 0.929 . S
H4703 C4712 0.929 . S
C4704 H4698 0.930 . S
C4704 C4705 1.367 . S
C4704 C4712 1.378 . S
C4705 C4704 1.367 . S
C4705 C4713 1.433 . S
C4706 H4702 0.929 . S
C4706 C4708 1.378 . S
C4706 C4710 1.350 . S
C4707 C4710 1.463 . S
C4707 C4712 1.350 . S
C4707 N4715 1.427 . S
C4708 H4699 0.930 . S
C4708 C4706 1.378 . S
C4708 C4709 1.367 . S
C4709 C4708 1.367 . S
C4709 C4711 1.433 . S
C4710 C4706 1.350 . S
C4710 C4707 1.463 . S
C4710 N4714 1.427 . S
C4711 H4701 0.929 . S
C4711 C4709 1.433 . S
C4711 N4714 1.384 . S
C4712 H4703 0.929 . S
C4712 C4704 1.378 . S
C4712 C4707 1.350 . S
C4713 H4700 0.929 . S
C4713 C4705 1.433 . S
C4713 N4715 1.384 . S
N4714 C4710 1.427 . S
N4714 C4711 1.384 . S
N4715 C4707 1.427 . S
N4715 C4713 1.384 . S
H4716 C4722 0.930 . S
H4717 C4726 0.930 . S
H4718 C4731 0.929 . S
H4719 C4729 0.929 . S
H4720 C4724 0.929 . S
H4721 C4730 0.929 . S
C4722 H4716 0.930 . S
C4722 C4723 1.367 . S
C4722 C4730 1.378 . S
C4723 C4722 1.367 . S
C4723 C4731 1.433 . S
C4724 H4720 0.929 . S
C4724 C4726 1.378 . S
C4724 C4728 1.350 . S
C4725 C4728 1.463 . S
C4725 C4730 1.350 . S
C4725 N4733 1.427 . S
C4726 H4717 0.930 . S
C4726 C4724 1.378 . S
C4726 C4727 1.367 . S
C4727 C4726 1.367 . S
C4727 C4729 1.433 . S
C4728 C4724 1.350 . S
C4728 C4725 1.463 . S
C4728 N4732 1.427 . S
C4729 H4719 0.929 . S
C4729 C4727 1.433 . S
C4729 N4732 1.384 . S
C4730 H4721 0.929 . S
C4730 C4722 1.378 . S
C4730 C4725 1.350 . S
C4731 H4718 0.929 . S
C4731 C4723 1.433 . S
C4731 N4733 1.384 . S
N4732 C4728 1.427 . S
N4732 C4729 1.384 . S
N4733 C4725 1.427 . S
N4733 C4731 1.384 . S
H4734 C4740 0.930 . S
H4735 C4744 0.930 . S
H4736 C4749 0.929 . S
H4737 C4747 0.929 . S
H4738 C4742 0.929 . S
H4739 C4748 0.929 . S
C4740 H4734 0.930 . S
C4740 C4741 1.367 . S
C4740 C4748 1.378 . S
C4741 C4740 1.367 . S
C4741 C4749 1.433 . S
C4742 H4738 0.929 . S
C4742 C4744 1.378 . S
C4742 C4746 1.350 . S
C4743 C4746 1.463 1_565 S
C4743 C4748 1.350 . S
C4743 N4751 1.427 . S
C4744 H4735 0.930 . S
C4744 C4742 1.378 . S
C4744 C4745 1.367 . S
C4745 C4744 1.367 . S
C4745 C4747 1.433 . S
C4746 C4742 1.350 . S
C4746 C4743 1.463 1_545 S
C4746 N4750 1.427 . S
C4747 H4737 0.929 . S
C4747 C4745 1.433 . S
C4747 N4750 1.384 . S
C4748 H4739 0.929 . S
C4748 C4740 1.378 . S
C4748 C4743 1.350 . S
C4749 H4736 0.929 . S
C4749 C4741 1.433 . S
C4749 N4751 1.384 . S
N4750 C4746 1.427 . S
N4750 C4747 1.384 . S
N4751 C4743 1.427 . S
N4751 C4749 1.384 . S
H4752 C4758 0.930 . S
H4753 C4762 0.930 . S
H4754 C4767 0.931 . S
H4755 C4765 0.929 . S
H4756 C4760 0.929 . S
H4757 C4766 0.929 . S
C4758 H4752 0.930 . S
C4758 C4759 1.367 . S
C4758 C4766 1.378 . S
C4759 C4758 1.367 . S
C4759 C4767 1.432 1_554 S
C4760 H4756 0.929 . S
C4760 C4762 1.378 . S
C4760 C4764 1.350 1_556 S
C4761 C4764 1.462 . S
C4761 C4766 1.353 . S
C4761 N4769 1.424 1_554 S
C4762 H4753 0.930 . S
C4762 C4760 1.378 . S
C4762 C4763 1.368 . S
C4763 C4762 1.368 . S
C4763 C4765 1.432 1_556 S
C4764 C4760 1.350 1_554 S
C4764 C4761 1.462 . S
C4764 N4768 1.428 . S
C4765 H4755 0.929 . S
C4765 C4763 1.432 1_554 S
C4765 N4768 1.384 . S
C4766 H4757 0.929 . S
C4766 C4758 1.378 . S
C4766 C4761 1.353 . S
C4767 H4754 0.931 . S
C4767 C4759 1.432 1_556 S
C4767 N4769 1.383 . S
N4768 C4764 1.428 . S
N4768 C4765 1.384 . S
N4769 C4761 1.424 1_556 S
N4769 C4767 1.383 . S
H4770 C4776 0.930 . S
H4771 C4780 0.930 . S
H4772 C4785 0.929 . S
H4773 C4783 0.929 . S
H4774 C4778 0.929 . S
H4775 C4784 0.929 . S
C4776 H4770 0.930 . S
C4776 C4777 1.367 . S
C4776 C4784 1.378 . S
C4777 C4776 1.367 . S
C4777 C4785 1.433 . S
C4778 H4774 0.929 . S
C4778 C4780 1.378 . S
C4778 C4782 1.350 . S
C4779 C4782 1.463 1_545 S
C4779 C4784 1.350 . S
C4779 N4787 1.427 . S
C4780 H4771 0.930 . S
C4780 C4778 1.378 . S
C4780 C4781 1.367 . S
C4781 C4780 1.367 . S
C4781 C4783 1.433 . S
C4782 C4778 1.350 . S
C4782 C4779 1.463 1_565 S
C4782 N4786 1.427 . S
C4783 H4773 0.929 . S
C4783 C4781 1.433 . S
C4783 N4786 1.384 . S
C4784 H4775 0.929 . S
C4784 C4776 1.378 . S
C4784 C4779 1.350 . S
C4785 H4772 0.929 . S
C4785 C4777 1.433 . S
C4785 N4787 1.384 . S
N4786 C4782 1.427 . S
N4786 C4783 1.384 . S
N4787 C4779 1.427 . S
N4787 C4785 1.384 . S
H4788 C4794 0.930 . S
H4789 C4798 0.930 . S
H4790 C4803 0.929 . S
H4791 C4801 0.929 . S
H4792 C4796 0.929 . S
H4793 C4802 0.929 . S
C4794 H4788 0.930 . S
C4794 C4795 1.367 . S
C4794 C4802 1.378 . S
C4795 C4794 1.367 . S
C4795 C4803 1.433 . S
C4796 H4792 0.929 . S
C4796 C4798 1.378 . S
C4796 C4800 1.350 . S
C4797 C4800 1.463 . S
C4797 C4802 1.350 . S
C4797 N4805 1.427 . S
C4798 H4789 0.930 . S
C4798 C4796 1.378 . S
C4798 C4799 1.367 . S
C4799 C4798 1.367 . S
C4799 C4801 1.433 . S
C4800 C4796 1.350 . S
C4800 C4797 1.463 . S
C4800 N4804 1.427 . S
C4801 H4791 0.929 . S
C4801 C4799 1.433 . S
C4801 N4804 1.384 . S
C4802 H4793 0.929 . S
C4802 C4794 1.378 . S
C4802 C4797 1.350 . S
C4803 H4790 0.929 . S
C4803 C4795 1.433 . S
C4803 N4805 1.384 . S
N4804 C4800 1.427 . S
N4804 C4801 1.384 . S
N4805 C4797 1.427 . S
N4805 C4803 1.384 . S
H4806 C4812 0.930 . S
H4807 C4816 0.930 . S
H4808 C4821 0.929 . S
H4809 C4819 0.929 . S
H4810 C4814 0.929 . S
H4811 C4820 0.929 . S
C4812 H4806 0.930 . S
C4812 C4813 1.367 . S
C4812 C4820 1.378 . S
C4813 C4812 1.367 . S
C4813 C4821 1.433 . S
C4814 H4810 0.929 . S
C4814 C4816 1.378 . S
C4814 C4818 1.350 . S
C4815 C4818 1.463 1_554 S
C4815 C4820 1.350 . S
C4815 N4823 1.427 . S
C4816 H4807 0.930 . S
C4816 C4814 1.378 . S
C4816 C4817 1.367 . S
C4817 C4816 1.367 . S
C4817 C4819 1.433 . S
C4818 C4814 1.350 . S
C4818 C4815 1.463 1_556 S
C4818 N4822 1.427 . S
C4819 H4809 0.929 . S
C4819 C4817 1.433 . S
C4819 N4822 1.384 . S
C4820 H4811 0.929 . S
C4820 C4812 1.378 . S
C4820 C4815 1.350 . S
C4821 H4808 0.929 . S
C4821 C4813 1.433 . S
C4821 N4823 1.384 . S
N4822 C4818 1.427 . S
N4822 C4819 1.384 . S
N4823 C4815 1.427 . S
N4823 C4821 1.384 . S
H4824 C4830 0.930 . S
H4825 C4834 0.930 . S
H4826 C4839 0.929 . S
H4827 C4837 0.929 . S
H4828 C4832 0.929 . S
H4829 C4838 0.929 . S
C4830 H4824 0.930 . S
C4830 C4831 1.367 . S
C4830 C4838 1.378 . S
C4831 C4830 1.367 . S
C4831 C4839 1.433 . S
C4832 H4828 0.929 . S
C4832 C4834 1.378 . S
C4832 C4836 1.350 . S
C4833 C4836 1.463 . S
C4833 C4838 1.350 . S
C4833 N4841 1.427 . S
C4834 H4825 0.930 . S
C4834 C4832 1.378 . S
C4834 C4835 1.367 . S
C4835 C4834 1.367 . S
C4835 C4837 1.433 . S
C4836 C4832 1.350 . S
C4836 C4833 1.463 . S
C4836 N4840 1.427 . S
C4837 H4827 0.929 . S
C4837 C4835 1.433 . S
C4837 N4840 1.384 . S
C4838 H4829 0.929 . S
C4838 C4830 1.378 . S
C4838 C4833 1.350 . S
C4839 H4826 0.929 . S
C4839 C4831 1.433 . S
C4839 N4841 1.384 . S
N4840 C4836 1.427 . S
N4840 C4837 1.384 . S
N4841 C4833 1.427 . S
N4841 C4839 1.384 . S
H4842 C4848 0.930 . S
H4843 C4852 0.930 . S
H4844 C4857 0.929 . S
H4845 C4855 0.929 . S
H4846 C4850 0.929 . S
H4847 C4856 0.929 . S
C4848 H4842 0.930 . S
C4848 C4849 1.367 . S
C4848 C4856 1.378 . S
C4849 C4848 1.367 . S
C4849 C4857 1.433 . S
C4850 H4846 0.929 . S
C4850 C4852 1.378 . S
C4850 C4854 1.350 . S
C4851 C4854 1.463 . S
C4851 C4856 1.350 . S
C4851 N4859 1.427 . S
C4852 H4843 0.930 . S
C4852 C4850 1.378 . S
C4852 C4853 1.367 . S
C4853 C4852 1.367 . S
C4853 C4855 1.433 . S
C4854 C4850 1.350 . S
C4854 C4851 1.463 . S
C4854 N4858 1.427 . S
C4855 H4845 0.929 . S
C4855 C4853 1.433 . S
C4855 N4858 1.384 . S
C4856 H4847 0.929 . S
C4856 C4848 1.378 . S
C4856 C4851 1.350 . S
C4857 H4844 0.929 . S
C4857 C4849 1.433 . S
C4857 N4859 1.384 . S
N4858 C4854 1.427 . S
N4858 C4855 1.384 . S
N4859 C4851 1.427 . S
N4859 C4857 1.384 . S
H4860 C4866 0.930 . S
H4861 C4870 0.930 . S
H4862 C4875 0.929 . S
H4863 C4873 0.929 . S
H4864 C4868 0.929 . S
H4865 C4874 0.929 . S
C4866 H4860 0.930 . S
C4866 C4867 1.367 . S
C4866 C4874 1.378 . S
C4867 C4866 1.367 . S
C4867 C4875 1.433 . S
C4868 H4864 0.929 . S
C4868 C4870 1.378 . S
C4868 C4872 1.350 . S
C4869 C4872 1.463 . S
C4869 C4874 1.350 . S
C4869 N4877 1.427 . S
C4870 H4861 0.930 . S
C4870 C4868 1.378 . S
C4870 C4871 1.367 . S
C4871 C4870 1.367 . S
C4871 C4873 1.433 . S
C4872 C4868 1.350 . S
C4872 C4869 1.463 . S
C4872 N4876 1.427 . S
C4873 H4863 0.929 . S
C4873 C4871 1.433 . S
C4873 N4876 1.384 . S
C4874 H4865 0.929 . S
C4874 C4866 1.378 . S
C4874 C4869 1.350 . S
C4875 H4862 0.929 . S
C4875 C4867 1.433 . S
C4875 N4877 1.384 . S
N4876 C4872 1.427 . S
N4876 C4873 1.384 . S
N4877 C4869 1.427 . S
N4877 C4875 1.384 . S
H4878 C4884 0.930 . S
H4879 C4888 0.930 . S
H4880 C4893 0.929 . S
H4881 C4891 0.929 . S
H4882 C4886 0.929 . S
H4883 C4892 0.929 . S
C4884 H4878 0.930 . S
C4884 C4885 1.367 . S
C4884 C4892 1.378 . S
C4885 C4884 1.367 . S
C4885 C4893 1.433 . S
C4886 H4882 0.929 . S
C4886 C4888 1.378 . S
C4886 C4890 1.350 . S
C4887 C4890 1.463 . S
C4887 C4892 1.350 . S
C4887 N4895 1.427 . S
C4888 H4879 0.930 . S
C4888 C4886 1.378 . S
C4888 C4889 1.367 . S
C4889 C4888 1.367 . S
C4889 C4891 1.433 . S
C4890 C4886 1.350 . S
C4890 C4887 1.463 . S
C4890 N4894 1.427 . S
C4891 H4881 0.929 . S
C4891 C4889 1.433 . S
C4891 N4894 1.384 . S
C4892 H4883 0.929 . S
C4892 C4884 1.378 . S
C4892 C4887 1.350 . S
C4893 H4880 0.929 . S
C4893 C4885 1.433 . S
C4893 N4895 1.384 . S
N4894 C4890 1.427 . S
N4894 C4891 1.384 . S
N4895 C4887 1.427 . S
N4895 C4893 1.384 . S
H4896 C4902 0.930 . S
H4897 C4906 0.930 . S
H4898 C4911 0.929 . S
H4899 C4909 0.929 . S
H4900 C4904 0.929 . S
H4901 C4910 0.929 . S
C4902 H4896 0.930 . S
C4902 C4903 1.367 . S
C4902 C4910 1.378 . S
C4903 C4902 1.367 . S
C4903 C4911 1.433 . S
C4904 H4900 0.929 . S
C4904 C4906 1.378 . S
C4904 C4908 1.350 . S
C4905 C4908 1.463 . S
C4905 C4910 1.350 . S
C4905 N4913 1.427 . S
C4906 H4897 0.930 . S
C4906 C4904 1.378 . S
C4906 C4907 1.367 . S
C4907 C4906 1.367 . S
C4907 C4909 1.433 . S
C4908 C4904 1.350 . S
C4908 C4905 1.463 . S
C4908 N4912 1.427 . S
C4909 H4899 0.929 . S
C4909 C4907 1.433 . S
C4909 N4912 1.384 . S
C4910 H4901 0.929 . S
C4910 C4902 1.378 . S
C4910 C4905 1.350 . S
C4911 H4898 0.929 . S
C4911 C4903 1.433 . S
C4911 N4913 1.384 . S
N4912 C4908 1.427 . S
N4912 C4909 1.384 . S
N4913 C4905 1.427 . S
N4913 C4911 1.384 . S
H4914 C4920 0.930 . S
H4915 C4924 0.930 . S
H4916 C4929 0.929 . S
H4917 C4927 0.929 . S
H4918 C4922 0.929 . S
H4919 C4928 0.929 . S
C4920 H4914 0.930 . S
C4920 C4921 1.367 . S
C4920 C4928 1.378 . S
C4921 C4920 1.367 . S
C4921 C4929 1.433 . S
C4922 H4918 0.929 . S
C4922 C4924 1.378 . S
C4922 C4926 1.350 . S
C4923 C4926 1.463 . S
C4923 C4928 1.350 . S
C4923 N4931 1.427 . S
C4924 H4915 0.930 . S
C4924 C4922 1.378 . S
C4924 C4925 1.367 . S
C4925 C4924 1.367 . S
C4925 C4927 1.433 . S
C4926 C4922 1.350 . S
C4926 C4923 1.463 . S
C4926 N4930 1.427 . S
C4927 H4917 0.929 . S
C4927 C4925 1.433 . S
C4927 N4930 1.384 . S
C4928 H4919 0.929 . S
C4928 C4920 1.378 . S
C4928 C4923 1.350 . S
C4929 H4916 0.929 . S
C4929 C4921 1.433 . S
C4929 N4931 1.384 . S
N4930 C4926 1.427 . S
N4930 C4927 1.384 . S
N4931 C4923 1.427 . S
N4931 C4929 1.384 . S
H4932 C4938 0.930 . S
H4933 C4942 0.930 . S
H4934 C4947 0.929 . S
H4935 C4945 0.929 . S
H4936 C4940 0.929 . S
H4937 C4946 0.929 . S
C4938 H4932 0.930 . S
C4938 C4939 1.367 . S
C4938 C4946 1.378 . S
C4939 C4938 1.367 . S
C4939 C4947 1.433 . S
C4940 H4936 0.929 . S
C4940 C4942 1.378 . S
C4940 C4944 1.350 . S
C4941 C4944 1.463 . S
C4941 C4946 1.350 . S
C4941 N4949 1.427 . S
C4942 H4933 0.930 . S
C4942 C4940 1.378 . S
C4942 C4943 1.367 . S
C4943 C4942 1.367 . S
C4943 C4945 1.433 . S
C4944 C4940 1.350 . S
C4944 C4941 1.463 . S
C4944 N4948 1.427 . S
C4945 H4935 0.929 . S
C4945 C4943 1.433 . S
C4945 N4948 1.384 . S
C4946 H4937 0.929 . S
C4946 C4938 1.378 . S
C4946 C4941 1.350 . S
C4947 H4934 0.929 . S
C4947 C4939 1.433 . S
C4947 N4949 1.384 . S
N4948 C4944 1.427 . S
N4948 C4945 1.384 . S
N4949 C4941 1.427 . S
N4949 C4947 1.384 . S
H4950 C4956 0.930 . S
H4951 C4960 0.930 . S
H4952 C4965 0.929 . S
H4953 C4963 0.929 . S
H4954 C4958 0.929 . S
H4955 C4964 0.929 . S
C4956 H4950 0.930 . S
C4956 C4957 1.367 . S
C4956 C4964 1.378 . S
C4957 C4956 1.367 . S
C4957 C4965 1.433 . S
C4958 H4954 0.929 . S
C4958 C4960 1.378 . S
C4958 C4962 1.350 . S
C4959 C4962 1.463 . S
C4959 C4964 1.350 . S
C4959 N4967 1.427 . S
C4960 H4951 0.930 . S
C4960 C4958 1.378 . S
C4960 C4961 1.367 . S
C4961 C4960 1.367 . S
C4961 C4963 1.433 . S
C4962 C4958 1.350 . S
C4962 C4959 1.463 . S
C4962 N4966 1.427 . S
C4963 H4953 0.929 . S
C4963 C4961 1.433 . S
C4963 N4966 1.384 . S
C4964 H4955 0.929 . S
C4964 C4956 1.378 . S
C4964 C4959 1.350 . S
C4965 H4952 0.929 . S
C4965 C4957 1.433 . S
C4965 N4967 1.384 . S
N4966 C4962 1.427 . S
N4966 C4963 1.384 . S
N4967 C4959 1.427 . S
N4967 C4965 1.384 . S
H4968 C4974 0.930 . S
H4969 C4978 0.930 . S
H4970 C4983 0.929 . S
H4971 C4981 0.929 . S
H4972 C4976 0.929 . S
H4973 C4982 0.929 . S
C4974 H4968 0.930 . S
C4974 C4975 1.367 . S
C4974 C4982 1.378 . S
C4975 C4974 1.367 . S
C4975 C4983 1.433 . S
C4976 H4972 0.929 . S
C4976 C4978 1.378 . S
C4976 C4980 1.350 . S
C4977 C4980 1.463 . S
C4977 C4982 1.350 . S
C4977 N4985 1.427 . S
C4978 H4969 0.930 . S
C4978 C4976 1.378 . S
C4978 C4979 1.367 . S
C4979 C4978 1.367 . S
C4979 C4981 1.433 . S
C4980 C4976 1.350 . S
C4980 C4977 1.463 . S
C4980 N4984 1.427 . S
C4981 H4971 0.929 . S
C4981 C4979 1.433 . S
C4981 N4984 1.384 . S
C4982 H4973 0.929 . S
C4982 C4974 1.378 . S
C4982 C4977 1.350 . S
C4983 H4970 0.929 . S
C4983 C4975 1.433 . S
C4983 N4985 1.384 . S
N4984 C4980 1.427 . S
N4984 C4981 1.384 . S
N4985 C4977 1.427 . S
N4985 C4983 1.384 . S
H4986 C4992 0.930 . S
H4987 C4996 0.930 . S
H4988 C5001 0.929 . S
H4989 C4999 0.929 . S
H4990 C4994 0.929 . S
H4991 C5000 0.929 . S
C4992 H4986 0.930 . S
C4992 C4993 1.367 . S
C4992 C5000 1.378 . S
C4993 C4992 1.367 . S
C4993 C5001 1.433 . S
C4994 H4990 0.929 . S
C4994 C4996 1.378 . S
C4994 C4998 1.350 . S
C4995 C4998 1.463 . S
C4995 C5000 1.350 . S
C4995 N5003 1.427 . S
C4996 H4987 0.930 . S
C4996 C4994 1.378 . S
C4996 C4997 1.367 . S
C4997 C4996 1.367 . S
C4997 C4999 1.433 . S
C4998 C4994 1.350 . S
C4998 C4995 1.463 . S
C4998 N5002 1.427 . S
C4999 H4989 0.929 . S
C4999 C4997 1.433 . S
C4999 N5002 1.384 . S
C5000 H4991 0.929 . S
C5000 C4992 1.378 . S
C5000 C4995 1.350 . S
C5001 H4988 0.929 . S
C5001 C4993 1.433 . S
C5001 N5003 1.384 . S
N5002 C4998 1.427 . S
N5002 C4999 1.384 . S
N5003 C4995 1.427 . S
N5003 C5001 1.384 . S
H5004 C5010 0.930 . S
H5005 C5014 0.930 . S
H5006 C5019 0.929 . S
H5007 C5017 0.929 . S
H5008 C5012 0.929 . S
H5009 C5018 0.929 . S
C5010 H5004 0.930 . S
C5010 C5011 1.367 . S
C5010 C5018 1.378 . S
C5011 C5010 1.367 . S
C5011 C5019 1.433 . S
C5012 H5008 0.929 . S
C5012 C5014 1.378 . S
C5012 C5016 1.350 . S
C5013 C5016 1.463 . S
C5013 C5018 1.350 . S
C5013 N5021 1.427 . S
C5014 H5005 0.930 . S
C5014 C5012 1.378 . S
C5014 C5015 1.367 . S
C5015 C5014 1.367 . S
C5015 C5017 1.433 . S
C5016 C5012 1.350 . S
C5016 C5013 1.463 . S
C5016 N5020 1.427 . S
C5017 H5007 0.929 . S
C5017 C5015 1.433 . S
C5017 N5020 1.384 . S
C5018 H5009 0.929 . S
C5018 C5010 1.378 . S
C5018 C5013 1.350 . S
C5019 H5006 0.929 . S
C5019 C5011 1.433 . S
C5019 N5021 1.384 . S
N5020 C5016 1.427 . S
N5020 C5017 1.384 . S
N5021 C5013 1.427 . S
N5021 C5019 1.384 . S
H5022 C5028 0.930 . S
H5023 C5032 0.930 . S
H5024 C5037 0.929 . S
H5025 C5035 0.929 . S
H5026 C5030 0.929 . S
H5027 C5036 0.929 . S
C5028 H5022 0.930 . S
C5028 C5029 1.367 . S
C5028 C5036 1.378 . S
C5029 C5028 1.367 . S
C5029 C5037 1.433 . S
C5030 H5026 0.929 . S
C5030 C5032 1.378 . S
C5030 C5034 1.350 . S
C5031 C5034 1.463 . S
C5031 C5036 1.350 . S
C5031 N5039 1.427 . S
C5032 H5023 0.930 . S
C5032 C5030 1.378 . S
C5032 C5033 1.367 . S
C5033 C5032 1.367 . S
C5033 C5035 1.433 . S
C5034 C5030 1.350 . S
C5034 C5031 1.463 . S
C5034 N5038 1.427 . S
C5035 H5025 0.929 . S
C5035 C5033 1.433 . S
C5035 N5038 1.384 . S
C5036 H5027 0.929 . S
C5036 C5028 1.378 . S
C5036 C5031 1.350 . S
C5037 H5024 0.929 . S
C5037 C5029 1.433 . S
C5037 N5039 1.384 . S
N5038 C5034 1.427 . S
N5038 C5035 1.384 . S
N5039 C5031 1.427 . S
N5039 C5037 1.384 . S
H5040 C5046 0.930 . S
H5041 C5050 0.930 . S
H5042 C5055 0.929 . S
H5043 C5053 0.929 . S
H5044 C5048 0.929 . S
H5045 C5054 0.929 . S
C5046 H5040 0.930 . S
C5046 C5047 1.367 . S
C5046 C5054 1.378 . S
C5047 C5046 1.367 . S
C5047 C5055 1.433 . S
C5048 H5044 0.929 . S
C5048 C5050 1.378 . S
C5048 C5052 1.350 . S
C5049 C5052 1.463 . S
C5049 C5054 1.350 . S
C5049 N5057 1.427 . S
C5050 H5041 0.930 . S
C5050 C5048 1.378 . S
C5050 C5051 1.367 . S
C5051 C5050 1.367 . S
C5051 C5053 1.433 . S
C5052 C5048 1.350 . S
C5052 C5049 1.463 . S
C5052 N5056 1.427 . S
C5053 H5043 0.929 . S
C5053 C5051 1.433 . S
C5053 N5056 1.384 . S
C5054 H5045 0.929 . S
C5054 C5046 1.378 . S
C5054 C5049 1.350 . S
C5055 H5042 0.929 . S
C5055 C5047 1.433 . S
C5055 N5057 1.384 . S
N5056 C5052 1.427 . S
N5056 C5053 1.384 . S
N5057 C5049 1.427 . S
N5057 C5055 1.384 . S
H5058 C5064 0.930 . S
H5059 C5068 0.930 . S
H5060 C5073 0.929 . S
H5061 C5071 0.929 . S
H5062 C5066 0.929 . S
H5063 C5072 0.929 . S
C5064 H5058 0.930 . S
C5064 C5065 1.367 . S
C5064 C5072 1.378 . S
C5065 C5064 1.367 . S
C5065 C5073 1.433 . S
C5066 H5062 0.929 . S
C5066 C5068 1.378 . S
C5066 C5070 1.350 . S
C5067 C5070 1.463 . S
C5067 C5072 1.350 . S
C5067 N5075 1.427 . S
C5068 H5059 0.930 . S
C5068 C5066 1.378 . S
C5068 C5069 1.367 . S
C5069 C5068 1.367 . S
C5069 C5071 1.433 . S
C5070 C5066 1.350 . S
C5070 C5067 1.463 . S
C5070 N5074 1.427 . S
C5071 H5061 0.929 . S
C5071 C5069 1.433 . S
C5071 N5074 1.384 . S
C5072 H5063 0.929 . S
C5072 C5064 1.378 . S
C5072 C5067 1.350 . S
C5073 H5060 0.929 . S
C5073 C5065 1.433 . S
C5073 N5075 1.384 . S
N5074 C5070 1.427 . S
N5074 C5071 1.384 . S
N5075 C5067 1.427 . S
N5075 C5073 1.384 . S
H5076 C5082 0.930 . S
H5077 C5086 0.930 . S
H5078 C5091 0.929 . S
H5079 C5089 0.929 . S
H5080 C5084 0.929 . S
H5081 C5090 0.929 . S
C5082 H5076 0.930 . S
C5082 C5083 1.367 . S
C5082 C5090 1.378 . S
C5083 C5082 1.367 . S
C5083 C5091 1.433 . S
C5084 H5080 0.929 . S
C5084 C5086 1.378 . S
C5084 C5088 1.350 . S
C5085 C5088 1.463 . S
C5085 C5090 1.350 . S
C5085 N5093 1.427 . S
C5086 H5077 0.930 . S
C5086 C5084 1.378 . S
C5086 C5087 1.367 . S
C5087 C5086 1.367 . S
C5087 C5089 1.433 . S
C5088 C5084 1.350 . S
C5088 C5085 1.463 . S
C5088 N5092 1.427 . S
C5089 H5079 0.929 . S
C5089 C5087 1.433 . S
C5089 N5092 1.384 . S
C5090 H5081 0.929 . S
C5090 C5082 1.378 . S
C5090 C5085 1.350 . S
C5091 H5078 0.929 . S
C5091 C5083 1.433 . S
C5091 N5093 1.384 . S
N5092 C5088 1.427 . S
N5092 C5089 1.384 . S
N5093 C5085 1.427 . S
N5093 C5091 1.384 . S
H5094 C5100 0.930 . S
H5095 C5104 0.930 . S
H5096 C5109 0.929 . S
H5097 C5107 0.929 . S
H5098 C5102 0.929 . S
H5099 C5108 0.929 . S
C5100 H5094 0.930 . S
C5100 C5101 1.367 . S
C5100 C5108 1.378 . S
C5101 C5100 1.367 . S
C5101 C5109 1.433 . S
C5102 H5098 0.929 . S
C5102 C5104 1.378 . S
C5102 C5106 1.350 . S
C5103 C5106 1.463 . S
C5103 C5108 1.350 . S
C5103 N5111 1.427 . S
C5104 H5095 0.930 . S
C5104 C5102 1.378 . S
C5104 C5105 1.367 . S
C5105 C5104 1.367 . S
C5105 C5107 1.433 . S
C5106 C5102 1.350 . S
C5106 C5103 1.463 . S
C5106 N5110 1.427 . S
C5107 H5097 0.929 . S
C5107 C5105 1.433 . S
C5107 N5110 1.384 . S
C5108 H5099 0.929 . S
C5108 C5100 1.378 . S
C5108 C5103 1.350 . S
C5109 H5096 0.929 . S
C5109 C5101 1.433 . S
C5109 N5111 1.384 . S
N5110 C5106 1.427 . S
N5110 C5107 1.384 . S
N5111 C5103 1.427 . S
N5111 C5109 1.384 . S
H5112 C5118 0.930 . S
H5113 C5122 0.930 . S
H5114 C5127 0.929 . S
H5115 C5125 0.929 . S
H5116 C5120 0.929 . S
H5117 C5126 0.929 . S
C5118 H5112 0.930 . S
C5118 C5119 1.367 . S
C5118 C5126 1.378 . S
C5119 C5118 1.367 . S
C5119 C5127 1.433 . S
C5120 H5116 0.929 . S
C5120 C5122 1.378 . S
C5120 C5124 1.350 . S
C5121 C5124 1.463 . S
C5121 C5126 1.350 . S
C5121 N5129 1.427 . S
C5122 H5113 0.930 . S
C5122 C5120 1.378 . S
C5122 C5123 1.367 . S
C5123 C5122 1.367 . S
C5123 C5125 1.433 . S
C5124 C5120 1.350 . S
C5124 C5121 1.463 . S
C5124 N5128 1.427 . S
C5125 H5115 0.929 . S
C5125 C5123 1.433 . S
C5125 N5128 1.384 . S
C5126 H5117 0.929 . S
C5126 C5118 1.378 . S
C5126 C5121 1.350 . S
C5127 H5114 0.929 . S
C5127 C5119 1.433 . S
C5127 N5129 1.384 . S
N5128 C5124 1.427 . S
N5128 C5125 1.384 . S
N5129 C5121 1.427 . S
N5129 C5127 1.384 . S
H5130 C5136 0.930 . S
H5131 C5140 0.930 . S
H5132 C5145 0.929 . S
H5133 C5143 0.929 . S
H5134 C5138 0.929 . S
H5135 C5144 0.929 . S
C5136 H5130 0.930 . S
C5136 C5137 1.367 . S
C5136 C5144 1.378 . S
C5137 C5136 1.367 . S
C5137 C5145 1.433 . S
C5138 H5134 0.929 . S
C5138 C5140 1.378 . S
C5138 C5142 1.350 . S
C5139 C5142 1.463 . S
C5139 C5144 1.350 . S
C5139 N5147 1.427 . S
C5140 H5131 0.930 . S
C5140 C5138 1.378 . S
C5140 C5141 1.367 . S
C5141 C5140 1.367 . S
C5141 C5143 1.433 . S
C5142 C5138 1.350 . S
C5142 C5139 1.463 . S
C5142 N5146 1.427 . S
C5143 H5133 0.929 . S
C5143 C5141 1.433 . S
C5143 N5146 1.384 . S
C5144 H5135 0.929 . S
C5144 C5136 1.378 . S
C5144 C5139 1.350 . S
C5145 H5132 0.929 . S
C5145 C5137 1.433 . S
C5145 N5147 1.384 . S
N5146 C5142 1.427 . S
N5146 C5143 1.384 . S
N5147 C5139 1.427 . S
N5147 C5145 1.384 . S
H5148 C5154 0.930 . S
H5149 C5158 0.930 . S
H5150 C5163 0.929 . S
H5151 C5161 0.929 . S
H5152 C5156 0.929 . S
H5153 C5162 0.929 . S
C5154 H5148 0.930 . S
C5154 C5155 1.367 . S
C5154 C5162 1.378 . S
C5155 C5154 1.367 . S
C5155 C5163 1.433 . S
C5156 H5152 0.929 . S
C5156 C5158 1.378 . S
C5156 C5160 1.350 . S
C5157 C5160 1.463 . S
C5157 C5162 1.350 . S
C5157 N5165 1.427 . S
C5158 H5149 0.930 . S
C5158 C5156 1.378 . S
C5158 C5159 1.367 . S
C5159 C5158 1.367 . S
C5159 C5161 1.433 . S
C5160 C5156 1.350 . S
C5160 C5157 1.463 . S
C5160 N5164 1.427 . S
C5161 H5151 0.929 . S
C5161 C5159 1.433 . S
C5161 N5164 1.384 . S
C5162 H5153 0.929 . S
C5162 C5154 1.378 . S
C5162 C5157 1.350 . S
C5163 H5150 0.929 . S
C5163 C5155 1.433 . S
C5163 N5165 1.384 . S
N5164 C5160 1.427 . S
N5164 C5161 1.384 . S
N5165 C5157 1.427 . S
N5165 C5163 1.384 . S
H5166 C5172 0.930 . S
H5167 C5176 0.930 . S
H5168 C5181 0.929 . S
H5169 C5179 0.929 . S
H5170 C5174 0.929 . S
H5171 C5180 0.929 . S
C5172 H5166 0.930 . S
C5172 C5173 1.367 . S
C5172 C5180 1.378 . S
C5173 C5172 1.367 . S
C5173 C5181 1.433 . S
C5174 H5170 0.929 . S
C5174 C5176 1.378 . S
C5174 C5178 1.350 . S
C5175 C5178 1.463 . S
C5175 C5180 1.350 . S
C5175 N5183 1.427 . S
C5176 H5167 0.930 . S
C5176 C5174 1.378 . S
C5176 C5177 1.367 . S
C5177 C5176 1.367 . S
C5177 C5179 1.433 . S
C5178 C5174 1.350 . S
C5178 C5175 1.463 . S
C5178 N5182 1.427 . S
C5179 H5169 0.929 . S
C5179 C5177 1.433 . S
C5179 N5182 1.384 . S
C5180 H5171 0.929 . S
C5180 C5172 1.378 . S
C5180 C5175 1.350 . S
C5181 H5168 0.929 . S
C5181 C5173 1.433 . S
C5181 N5183 1.384 . S
N5182 C5178 1.427 . S
N5182 C5179 1.384 . S
N5183 C5175 1.427 . S
N5183 C5181 1.384 . S
H5184 C5190 0.930 . S
H5185 C5194 0.930 . S
H5186 C5199 0.929 . S
H5187 C5197 0.929 . S
H5188 C5192 0.929 . S
H5189 C5198 0.929 . S
C5190 H5184 0.930 . S
C5190 C5191 1.367 . S
C5190 C5198 1.378 . S
C5191 C5190 1.367 . S
C5191 C5199 1.433 . S
C5192 H5188 0.929 . S
C5192 C5194 1.378 . S
C5192 C5196 1.350 . S
C5193 C5196 1.463 . S
C5193 C5198 1.350 . S
C5193 N5201 1.427 . S
C5194 H5185 0.930 . S
C5194 C5192 1.378 . S
C5194 C5195 1.367 . S
C5195 C5194 1.367 . S
C5195 C5197 1.433 . S
C5196 C5192 1.350 . S
C5196 C5193 1.463 . S
C5196 N5200 1.427 . S
C5197 H5187 0.929 . S
C5197 C5195 1.433 . S
C5197 N5200 1.384 . S
C5198 H5189 0.929 . S
C5198 C5190 1.378 . S
C5198 C5193 1.350 . S
C5199 H5186 0.929 . S
C5199 C5191 1.433 . S
C5199 N5201 1.384 . S
N5200 C5196 1.427 . S
N5200 C5197 1.384 . S
N5201 C5193 1.427 . S
N5201 C5199 1.384 . S
H5202 C5208 0.930 . S
H5203 C5212 0.930 . S
H5204 C5217 0.929 . S
H5205 C5215 0.929 . S
H5206 C5210 0.929 . S
H5207 C5216 0.929 . S
C5208 H5202 0.930 . S
C5208 C5209 1.367 . S
C5208 C5216 1.378 . S
C5209 C5208 1.367 . S
C5209 C5217 1.433 . S
C5210 H5206 0.929 . S
C5210 C5212 1.378 . S
C5210 C5214 1.350 . S
C5211 C5214 1.463 . S
C5211 C5216 1.350 . S
C5211 N5219 1.427 . S
C5212 H5203 0.930 . S
C5212 C5210 1.378 . S
C5212 C5213 1.367 . S
C5213 C5212 1.367 . S
C5213 C5215 1.433 . S
C5214 C5210 1.350 . S
C5214 C5211 1.463 . S
C5214 N5218 1.427 . S
C5215 H5205 0.929 . S
C5215 C5213 1.433 . S
C5215 N5218 1.384 . S
C5216 H5207 0.929 . S
C5216 C5208 1.378 . S
C5216 C5211 1.350 . S
C5217 H5204 0.929 . S
C5217 C5209 1.433 . S
C5217 N5219 1.384 . S
N5218 C5214 1.427 . S
N5218 C5215 1.384 . S
N5219 C5211 1.427 . S
N5219 C5217 1.384 . S
H5220 C5226 0.930 . S
H5221 C5230 0.930 . S
H5222 C5235 0.929 . S
H5223 C5233 0.929 . S
H5224 C5228 0.929 . S
H5225 C5234 0.929 . S
C5226 H5220 0.930 . S
C5226 C5227 1.367 . S
C5226 C5234 1.378 . S
C5227 C5226 1.367 . S
C5227 C5235 1.433 . S
C5228 H5224 0.929 . S
C5228 C5230 1.378 . S
C5228 C5232 1.350 . S
C5229 C5232 1.463 . S
C5229 C5234 1.350 . S
C5229 N5237 1.427 . S
C5230 H5221 0.930 . S
C5230 C5228 1.378 . S
C5230 C5231 1.367 . S
C5231 C5230 1.367 . S
C5231 C5233 1.433 . S
C5232 C5228 1.350 . S
C5232 C5229 1.463 . S
C5232 N5236 1.427 . S
C5233 H5223 0.929 . S
C5233 C5231 1.433 . S
C5233 N5236 1.384 . S
C5234 H5225 0.929 . S
C5234 C5226 1.378 . S
C5234 C5229 1.350 . S
C5235 H5222 0.929 . S
C5235 C5227 1.433 . S
C5235 N5237 1.384 . S
N5236 C5232 1.427 . S
N5236 C5233 1.384 . S
N5237 C5229 1.427 . S
N5237 C5235 1.384 . S
H5238 C5244 0.930 . S
H5239 C5248 0.930 . S
H5240 C5253 0.929 . S
H5241 C5251 0.929 . S
H5242 C5246 0.929 . S
H5243 C5252 0.929 . S
C5244 H5238 0.930 . S
C5244 C5245 1.367 . S
C5244 C5252 1.378 . S
C5245 C5244 1.367 . S
C5245 C5253 1.433 . S
C5246 H5242 0.929 . S
C5246 C5248 1.378 . S
C5246 C5250 1.350 . S
C5247 C5250 1.463 . S
C5247 C5252 1.350 . S
C5247 N5255 1.427 . S
C5248 H5239 0.930 . S
C5248 C5246 1.378 . S
C5248 C5249 1.367 . S
C5249 C5248 1.367 . S
C5249 C5251 1.433 . S
C5250 C5246 1.350 . S
C5250 C5247 1.463 . S
C5250 N5254 1.427 . S
C5251 H5241 0.929 . S
C5251 C5249 1.433 . S
C5251 N5254 1.384 . S
C5252 H5243 0.929 . S
C5252 C5244 1.378 . S
C5252 C5247 1.350 . S
C5253 H5240 0.929 . S
C5253 C5245 1.433 . S
C5253 N5255 1.384 . S
N5254 C5250 1.427 . S
N5254 C5251 1.384 . S
N5255 C5247 1.427 . S
N5255 C5253 1.384 . S
H5256 C5262 0.930 . S
H5257 C5266 0.930 . S
H5258 C5271 0.929 . S
H5259 C5269 0.929 . S
H5260 C5264 0.929 . S
H5261 C5270 0.929 . S
C5262 H5256 0.930 . S
C5262 C5263 1.367 . S
C5262 C5270 1.378 . S
C5263 C5262 1.367 . S
C5263 C5271 1.433 . S
C5264 H5260 0.929 . S
C5264 C5266 1.378 . S
C5264 C5268 1.350 . S
C5265 C5268 1.463 . S
C5265 C5270 1.350 . S
C5265 N5273 1.427 . S
C5266 H5257 0.930 . S
C5266 C5264 1.378 . S
C5266 C5267 1.367 . S
C5267 C5266 1.367 . S
C5267 C5269 1.433 . S
C5268 C5264 1.350 . S
C5268 C5265 1.463 . S
C5268 N5272 1.427 . S
C5269 H5259 0.929 . S
C5269 C5267 1.433 . S
C5269 N5272 1.384 . S
C5270 H5261 0.929 . S
C5270 C5262 1.378 . S
C5270 C5265 1.350 . S
C5271 H5258 0.929 . S
C5271 C5263 1.433 . S
C5271 N5273 1.384 . S
N5272 C5268 1.427 . S
N5272 C5269 1.384 . S
N5273 C5265 1.427 . S
N5273 C5271 1.384 . S
H5274 C5280 0.930 . S
H5275 C5284 0.930 . S
H5276 C5289 0.929 . S
H5277 C5287 0.929 . S
H5278 C5282 0.929 . S
H5279 C5288 0.929 . S
C5280 H5274 0.930 . S
C5280 C5281 1.367 . S
C5280 C5288 1.378 . S
C5281 C5280 1.367 . S
C5281 C5289 1.433 . S
C5282 H5278 0.929 . S
C5282 C5284 1.378 . S
C5282 C5286 1.350 . S
C5283 C5286 1.463 . S
C5283 C5288 1.350 . S
C5283 N5291 1.427 . S
C5284 H5275 0.930 . S
C5284 C5282 1.378 . S
C5284 C5285 1.367 . S
C5285 C5284 1.367 . S
C5285 C5287 1.433 . S
C5286 C5282 1.350 . S
C5286 C5283 1.463 . S
C5286 N5290 1.427 . S
C5287 H5277 0.929 . S
C5287 C5285 1.433 . S
C5287 N5290 1.384 . S
C5288 H5279 0.929 . S
C5288 C5280 1.378 . S
C5288 C5283 1.350 . S
C5289 H5276 0.929 . S
C5289 C5281 1.433 . S
C5289 N5291 1.384 . S
N5290 C5286 1.427 . S
N5290 C5287 1.384 . S
N5291 C5283 1.427 . S
N5291 C5289 1.384 . S
H5292 C5298 0.930 . S
H5293 C5302 0.930 . S
H5294 C5307 0.929 . S
H5295 C5305 0.929 . S
H5296 C5300 0.929 . S
H5297 C5306 0.929 . S
C5298 H5292 0.930 . S
C5298 C5299 1.367 . S
C5298 C5306 1.378 . S
C5299 C5298 1.367 . S
C5299 C5307 1.433 . S
C5300 H5296 0.929 . S
C5300 C5302 1.378 . S
C5300 C5304 1.350 . S
C5301 C5304 1.463 . S
C5301 C5306 1.350 . S
C5301 N5309 1.427 . S
C5302 H5293 0.930 . S
C5302 C5300 1.378 . S
C5302 C5303 1.367 . S
C5303 C5302 1.367 . S
C5303 C5305 1.433 . S
C5304 C5300 1.350 . S
C5304 C5301 1.463 . S
C5304 N5308 1.427 . S
C5305 H5295 0.929 . S
C5305 C5303 1.433 . S
C5305 N5308 1.384 . S
C5306 H5297 0.929 . S
C5306 C5298 1.378 . S
C5306 C5301 1.350 . S
C5307 H5294 0.929 . S
C5307 C5299 1.433 . S
C5307 N5309 1.384 . S
N5308 C5304 1.427 . S
N5308 C5305 1.384 . S
N5309 C5301 1.427 . S
N5309 C5307 1.384 . S
H5310 C5316 0.930 . S
H5311 C5320 0.930 . S
H5312 C5325 0.929 . S
H5313 C5323 0.929 . S
H5314 C5318 0.929 . S
H5315 C5324 0.929 . S
C5316 H5310 0.930 . S
C5316 C5317 1.367 . S
C5316 C5324 1.378 . S
C5317 C5316 1.367 . S
C5317 C5325 1.433 . S
C5318 H5314 0.929 . S
C5318 C5320 1.378 . S
C5318 C5322 1.350 . S
C5319 C5322 1.463 . S
C5319 C5324 1.350 . S
C5319 N5327 1.427 . S
C5320 H5311 0.930 . S
C5320 C5318 1.378 . S
C5320 C5321 1.367 . S
C5321 C5320 1.367 . S
C5321 C5323 1.433 . S
C5322 C5318 1.350 . S
C5322 C5319 1.463 . S
C5322 N5326 1.427 . S
C5323 H5313 0.929 . S
C5323 C5321 1.433 . S
C5323 N5326 1.384 . S
C5324 H5315 0.929 . S
C5324 C5316 1.378 . S
C5324 C5319 1.350 . S
C5325 H5312 0.929 . S
C5325 C5317 1.433 . S
C5325 N5327 1.384 . S
N5326 C5322 1.427 . S
N5326 C5323 1.384 . S
N5327 C5319 1.427 . S
N5327 C5325 1.384 . S
H5328 C5334 0.930 . S
H5329 C5338 0.930 . S
H5330 C5343 0.929 . S
H5331 C5341 0.929 . S
H5332 C5336 0.929 . S
H5333 C5342 0.929 . S
C5334 H5328 0.930 . S
C5334 C5335 1.367 . S
C5334 C5342 1.378 . S
C5335 C5334 1.367 . S
C5335 C5343 1.433 . S
C5336 H5332 0.929 . S
C5336 C5338 1.378 . S
C5336 C5340 1.350 . S
C5337 C5340 1.463 . S
C5337 C5342 1.350 . S
C5337 N5345 1.427 . S
C5338 H5329 0.930 . S
C5338 C5336 1.378 . S
C5338 C5339 1.367 . S
C5339 C5338 1.367 . S
C5339 C5341 1.433 . S
C5340 C5336 1.350 . S
C5340 C5337 1.463 . S
C5340 N5344 1.427 . S
C5341 H5331 0.929 . S
C5341 C5339 1.433 . S
C5341 N5344 1.384 . S
C5342 H5333 0.929 . S
C5342 C5334 1.378 . S
C5342 C5337 1.350 . S
C5343 H5330 0.929 . S
C5343 C5335 1.433 . S
C5343 N5345 1.384 . S
N5344 C5340 1.427 . S
N5344 C5341 1.384 . S
N5345 C5337 1.427 . S
N5345 C5343 1.384 . S
H5346 C5352 0.930 . S
H5347 C5356 0.930 . S
H5348 C5361 0.929 . S
H5349 C5359 0.929 . S
H5350 C5354 0.929 . S
H5351 C5360 0.929 . S
C5352 H5346 0.930 . S
C5352 C5353 1.367 . S
C5352 C5360 1.378 . S
C5353 C5352 1.367 . S
C5353 C5361 1.433 . S
C5354 H5350 0.929 . S
C5354 C5356 1.378 . S
C5354 C5358 1.350 . S
C5355 C5358 1.463 . S
C5355 C5360 1.350 . S
C5355 N5363 1.427 . S
C5356 H5347 0.930 . S
C5356 C5354 1.378 . S
C5356 C5357 1.367 . S
C5357 C5356 1.367 . S
C5357 C5359 1.433 . S
C5358 C5354 1.350 . S
C5358 C5355 1.463 . S
C5358 N5362 1.427 . S
C5359 H5349 0.929 . S
C5359 C5357 1.433 . S
C5359 N5362 1.384 . S
C5360 H5351 0.929 . S
C5360 C5352 1.378 . S
C5360 C5355 1.350 . S
C5361 H5348 0.929 . S
C5361 C5353 1.433 . S
C5361 N5363 1.384 . S
N5362 C5358 1.427 . S
N5362 C5359 1.384 . S
N5363 C5355 1.427 . S
N5363 C5361 1.384 . S
H5364 C5370 0.930 . S
H5365 C5374 0.930 . S
H5366 C5379 0.929 . S
H5367 C5377 0.929 . S
H5368 C5372 0.929 . S
H5369 C5378 0.929 . S
C5370 H5364 0.930 . S
C5370 C5371 1.367 . S
C5370 C5378 1.378 . S
C5371 C5370 1.367 . S
C5371 C5379 1.433 . S
C5372 H5368 0.929 . S
C5372 C5374 1.378 . S
C5372 C5376 1.350 . S
C5373 C5376 1.463 . S
C5373 C5378 1.350 . S
C5373 N5381 1.427 . S
C5374 H5365 0.930 . S
C5374 C5372 1.378 . S
C5374 C5375 1.367 . S
C5375 C5374 1.367 . S
C5375 C5377 1.433 . S
C5376 C5372 1.350 . S
C5376 C5373 1.463 . S
C5376 N5380 1.427 . S
C5377 H5367 0.929 . S
C5377 C5375 1.433 . S
C5377 N5380 1.384 . S
C5378 H5369 0.929 . S
C5378 C5370 1.378 . S
C5378 C5373 1.350 . S
C5379 H5366 0.929 . S
C5379 C5371 1.433 . S
C5379 N5381 1.384 . S
N5380 C5376 1.427 . S
N5380 C5377 1.384 . S
N5381 C5373 1.427 . S
N5381 C5379 1.384 . S
H5382 C5388 0.930 . S
H5383 C5392 0.930 . S
H5384 C5397 0.929 . S
H5385 C5395 0.929 . S
H5386 C5390 0.929 . S
H5387 C5396 0.929 . S
C5388 H5382 0.930 . S
C5388 C5389 1.367 . S
C5388 C5396 1.378 . S
C5389 C5388 1.367 . S
C5389 C5397 1.433 . S
C5390 H5386 0.929 . S
C5390 C5392 1.378 . S
C5390 C5394 1.350 . S
C5391 C5394 1.463 . S
C5391 C5396 1.350 . S
C5391 N5399 1.427 . S
C5392 H5383 0.930 . S
C5392 C5390 1.378 . S
C5392 C5393 1.367 . S
C5393 C5392 1.367 . S
C5393 C5395 1.433 . S
C5394 C5390 1.350 . S
C5394 C5391 1.463 . S
C5394 N5398 1.427 . S
C5395 H5385 0.929 . S
C5395 C5393 1.433 . S
C5395 N5398 1.384 . S
C5396 H5387 0.929 . S
C5396 C5388 1.378 . S
C5396 C5391 1.350 . S
C5397 H5384 0.929 . S
C5397 C5389 1.433 . S
C5397 N5399 1.384 . S
N5398 C5394 1.427 . S
N5398 C5395 1.384 . S
N5399 C5391 1.427 . S
N5399 C5397 1.384 . S
H5400 C5406 0.930 . S
H5401 C5410 0.930 . S
H5402 C5415 0.929 . S
H5403 C5413 0.929 . S
H5404 C5408 0.929 . S
H5405 C5414 0.929 . S
C5406 H5400 0.930 . S
C5406 C5407 1.367 . S
C5406 C5414 1.378 . S
C5407 C5406 1.367 . S
C5407 C5415 1.433 . S
C5408 H5404 0.929 . S
C5408 C5410 1.378 . S
C5408 C5412 1.350 . S
C5409 C5412 1.463 . S
C5409 C5414 1.350 . S
C5409 N5417 1.427 . S
C5410 H5401 0.930 . S
C5410 C5408 1.378 . S
C5410 C5411 1.367 . S
C5411 C5410 1.367 . S
C5411 C5413 1.433 . S
C5412 C5408 1.350 . S
C5412 C5409 1.463 . S
C5412 N5416 1.427 . S
C5413 H5403 0.929 . S
C5413 C5411 1.433 . S
C5413 N5416 1.384 . S
C5414 H5405 0.929 . S
C5414 C5406 1.378 . S
C5414 C5409 1.350 . S
C5415 H5402 0.929 . S
C5415 C5407 1.433 . S
C5415 N5417 1.384 . S
N5416 C5412 1.427 . S
N5416 C5413 1.384 . S
N5417 C5409 1.427 . S
N5417 C5415 1.384 . S
H5418 C5424 0.930 . S
H5419 C5428 0.930 . S
H5420 C5433 0.929 . S
H5421 C5431 0.929 . S
H5422 C5426 0.929 . S
H5423 C5432 0.929 . S
C5424 H5418 0.930 . S
C5424 C5425 1.367 . S
C5424 C5432 1.378 . S
C5425 C5424 1.367 . S
C5425 C5433 1.433 . S
C5426 H5422 0.929 . S
C5426 C5428 1.378 . S
C5426 C5430 1.350 . S
C5427 C5430 1.463 . S
C5427 C5432 1.350 . S
C5427 N5435 1.427 . S
C5428 H5419 0.930 . S
C5428 C5426 1.378 . S
C5428 C5429 1.367 . S
C5429 C5428 1.367 . S
C5429 C5431 1.433 . S
C5430 C5426 1.350 . S
C5430 C5427 1.463 . S
C5430 N5434 1.427 . S
C5431 H5421 0.929 . S
C5431 C5429 1.433 . S
C5431 N5434 1.384 . S
C5432 H5423 0.929 . S
C5432 C5424 1.378 . S
C5432 C5427 1.350 . S
C5433 H5420 0.929 . S
C5433 C5425 1.433 . S
C5433 N5435 1.384 . S
N5434 C5430 1.427 . S
N5434 C5431 1.384 . S
N5435 C5427 1.427 . S
N5435 C5433 1.384 . S
H5436 C5442 0.930 . S
H5437 C5446 0.930 . S
H5438 C5451 0.929 . S
H5439 C5449 0.929 . S
H5440 C5444 0.929 . S
H5441 C5450 0.929 . S
C5442 H5436 0.930 . S
C5442 C5443 1.367 . S
C5442 C5450 1.378 . S
C5443 C5442 1.367 . S
C5443 C5451 1.433 . S
C5444 H5440 0.929 . S
C5444 C5446 1.378 . S
C5444 C5448 1.350 . S
C5445 C5448 1.463 . S
C5445 C5450 1.350 . S
C5445 N5453 1.427 . S
C5446 H5437 0.930 . S
C5446 C5444 1.378 . S
C5446 C5447 1.367 . S
C5447 C5446 1.367 . S
C5447 C5449 1.433 . S
C5448 C5444 1.350 . S
C5448 C5445 1.463 . S
C5448 N5452 1.427 . S
C5449 H5439 0.929 . S
C5449 C5447 1.433 . S
C5449 N5452 1.384 . S
C5450 H5441 0.929 . S
C5450 C5442 1.378 . S
C5450 C5445 1.350 . S
C5451 H5438 0.929 . S
C5451 C5443 1.433 . S
C5451 N5453 1.384 . S
N5452 C5448 1.427 . S
N5452 C5449 1.384 . S
N5453 C5445 1.427 . S
N5453 C5451 1.384 . S
H5454 C5460 0.930 . S
H5455 C5464 0.930 . S
H5456 C5469 0.929 . S
H5457 C5467 0.929 . S
H5458 C5462 0.929 . S
H5459 C5468 0.929 . S
C5460 H5454 0.930 . S
C5460 C5461 1.367 . S
C5460 C5468 1.378 . S
C5461 C5460 1.367 . S
C5461 C5469 1.433 . S
C5462 H5458 0.929 . S
C5462 C5464 1.378 . S
C5462 C5466 1.350 . S
C5463 C5466 1.463 . S
C5463 C5468 1.350 . S
C5463 N5471 1.427 . S
C5464 H5455 0.930 . S
C5464 C5462 1.378 . S
C5464 C5465 1.367 . S
C5465 C5464 1.367 . S
C5465 C5467 1.433 . S
C5466 C5462 1.350 . S
C5466 C5463 1.463 . S
C5466 N5470 1.427 . S
C5467 H5457 0.929 . S
C5467 C5465 1.433 . S
C5467 N5470 1.384 . S
C5468 H5459 0.929 . S
C5468 C5460 1.378 . S
C5468 C5463 1.350 . S
C5469 H5456 0.929 . S
C5469 C5461 1.433 . S
C5469 N5471 1.384 . S
N5470 C5466 1.427 . S
N5470 C5467 1.384 . S
N5471 C5463 1.427 . S
N5471 C5469 1.384 . S
H5472 C5478 0.930 . S
H5473 C5482 0.930 . S
H5474 C5487 0.929 . S
H5475 C5485 0.929 . S
H5476 C5480 0.929 . S
H5477 C5486 0.929 . S
C5478 H5472 0.930 . S
C5478 C5479 1.367 . S
C5478 C5486 1.378 . S
C5479 C5478 1.367 . S
C5479 C5487 1.433 . S
C5480 H5476 0.929 . S
C5480 C5482 1.378 . S
C5480 C5484 1.350 . S
C5481 C5484 1.463 . S
C5481 C5486 1.350 . S
C5481 N5489 1.427 . S
C5482 H5473 0.930 . S
C5482 C5480 1.378 . S
C5482 C5483 1.367 . S
C5483 C5482 1.367 . S
C5483 C5485 1.433 . S
C5484 C5480 1.350 . S
C5484 C5481 1.463 . S
C5484 N5488 1.427 . S
C5485 H5475 0.929 . S
C5485 C5483 1.433 . S
C5485 N5488 1.384 . S
C5486 H5477 0.929 . S
C5486 C5478 1.378 . S
C5486 C5481 1.350 . S
C5487 H5474 0.929 . S
C5487 C5479 1.433 . S
C5487 N5489 1.384 . S
N5488 C5484 1.427 . S
N5488 C5485 1.384 . S
N5489 C5481 1.427 . S
N5489 C5487 1.384 . S
H5490 C5496 0.930 . S
H5491 C5500 0.930 . S
H5492 C5505 0.929 . S
H5493 C5503 0.929 . S
H5494 C5498 0.929 . S
H5495 C5504 0.929 . S
C5496 H5490 0.930 . S
C5496 C5497 1.367 . S
C5496 C5504 1.378 . S
C5497 C5496 1.367 . S
C5497 C5505 1.433 . S
C5498 H5494 0.929 . S
C5498 C5500 1.378 . S
C5498 C5502 1.350 . S
C5499 C5502 1.463 . S
C5499 C5504 1.350 . S
C5499 N5507 1.427 . S
C5500 H5491 0.930 . S
C5500 C5498 1.378 . S
C5500 C5501 1.367 . S
C5501 C5500 1.367 . S
C5501 C5503 1.433 . S
C5502 C5498 1.350 . S
C5502 C5499 1.463 . S
C5502 N5506 1.427 . S
C5503 H5493 0.929 . S
C5503 C5501 1.433 . S
C5503 N5506 1.384 . S
C5504 H5495 0.929 . S
C5504 C5496 1.378 . S
C5504 C5499 1.350 . S
C5505 H5492 0.929 . S
C5505 C5497 1.433 . S
C5505 N5507 1.384 . S
N5506 C5502 1.427 . S
N5506 C5503 1.384 . S
N5507 C5499 1.427 . S
N5507 C5505 1.384 . S
H5508 C5514 0.930 . S
H5509 C5518 0.930 . S
H5510 C5523 0.929 . S
H5511 C5521 0.929 . S
H5512 C5516 0.929 . S
H5513 C5522 0.929 . S
C5514 H5508 0.930 . S
C5514 C5515 1.367 . S
C5514 C5522 1.378 . S
C5515 C5514 1.367 . S
C5515 C5523 1.433 . S
C5516 H5512 0.929 . S
C5516 C5518 1.378 . S
C5516 C5520 1.350 . S
C5517 C5520 1.463 . S
C5517 C5522 1.350 . S
C5517 N5525 1.427 . S
C5518 H5509 0.930 . S
C5518 C5516 1.378 . S
C5518 C5519 1.367 . S
C5519 C5518 1.367 . S
C5519 C5521 1.433 . S
C5520 C5516 1.350 . S
C5520 C5517 1.463 . S
C5520 N5524 1.427 . S
C5521 H5511 0.929 . S
C5521 C5519 1.433 . S
C5521 N5524 1.384 . S
C5522 H5513 0.929 . S
C5522 C5514 1.378 . S
C5522 C5517 1.350 . S
C5523 H5510 0.929 . S
C5523 C5515 1.433 . S
C5523 N5525 1.384 . S
N5524 C5520 1.427 . S
N5524 C5521 1.384 . S
N5525 C5517 1.427 . S
N5525 C5523 1.384 . S
H5526 C5532 0.930 . S
H5527 C5536 0.930 . S
H5528 C5541 0.929 . S
H5529 C5539 0.929 . S
H5530 C5534 0.929 . S
H5531 C5540 0.929 . S
C5532 H5526 0.930 . S
C5532 C5533 1.367 . S
C5532 C5540 1.378 . S
C5533 C5532 1.367 . S
C5533 C5541 1.433 . S
C5534 H5530 0.929 . S
C5534 C5536 1.378 . S
C5534 C5538 1.350 . S
C5535 C5538 1.463 . S
C5535 C5540 1.350 . S
C5535 N5543 1.427 . S
C5536 H5527 0.930 . S
C5536 C5534 1.378 . S
C5536 C5537 1.367 . S
C5537 C5536 1.367 . S
C5537 C5539 1.433 . S
C5538 C5534 1.350 . S
C5538 C5535 1.463 . S
C5538 N5542 1.427 . S
C5539 H5529 0.929 . S
C5539 C5537 1.433 . S
C5539 N5542 1.384 . S
C5540 H5531 0.929 . S
C5540 C5532 1.378 . S
C5540 C5535 1.350 . S
C5541 H5528 0.929 . S
C5541 C5533 1.433 . S
C5541 N5543 1.384 . S
N5542 C5538 1.427 . S
N5542 C5539 1.384 . S
N5543 C5535 1.427 . S
N5543 C5541 1.384 . S
H5544 C5550 0.930 . S
H5545 C5554 0.930 . S
H5546 C5559 0.929 . S
H5547 C5557 0.929 . S
H5548 C5552 0.929 . S
H5549 C5558 0.929 . S
C5550 H5544 0.930 . S
C5550 C5551 1.367 . S
C5550 C5558 1.378 . S
C5551 C5550 1.367 . S
C5551 C5559 1.433 . S
C5552 H5548 0.929 . S
C5552 C5554 1.378 . S
C5552 C5556 1.350 . S
C5553 C5556 1.463 . S
C5553 C5558 1.350 . S
C5553 N5561 1.427 . S
C5554 H5545 0.930 . S
C5554 C5552 1.378 . S
C5554 C5555 1.367 . S
C5555 C5554 1.367 . S
C5555 C5557 1.433 . S
C5556 C5552 1.350 . S
C5556 C5553 1.463 . S
C5556 N5560 1.427 . S
C5557 H5547 0.929 . S
C5557 C5555 1.433 . S
C5557 N5560 1.384 . S
C5558 H5549 0.929 . S
C5558 C5550 1.378 . S
C5558 C5553 1.350 . S
C5559 H5546 0.929 . S
C5559 C5551 1.433 . S
C5559 N5561 1.384 . S
N5560 C5556 1.427 . S
N5560 C5557 1.384 . S
N5561 C5553 1.427 . S
N5561 C5559 1.384 . S
H5562 C5568 0.930 . S
H5563 C5572 0.930 . S
H5564 C5577 0.929 . S
H5565 C5575 0.929 . S
H5566 C5570 0.929 . S
H5567 C5576 0.929 . S
C5568 H5562 0.930 . S
C5568 C5569 1.367 . S
C5568 C5576 1.378 . S
C5569 C5568 1.367 . S
C5569 C5577 1.433 . S
C5570 H5566 0.929 . S
C5570 C5572 1.378 . S
C5570 C5574 1.350 . S
C5571 C5574 1.463 . S
C5571 C5576 1.350 . S
C5571 N5579 1.427 . S
C5572 H5563 0.930 . S
C5572 C5570 1.378 . S
C5572 C5573 1.367 . S
C5573 C5572 1.367 . S
C5573 C5575 1.433 . S
C5574 C5570 1.350 . S
C5574 C5571 1.463 . S
C5574 N5578 1.427 . S
C5575 H5565 0.929 . S
C5575 C5573 1.433 . S
C5575 N5578 1.384 . S
C5576 H5567 0.929 . S
C5576 C5568 1.378 . S
C5576 C5571 1.350 . S
C5577 H5564 0.929 . S
C5577 C5569 1.433 . S
C5577 N5579 1.384 . S
N5578 C5574 1.427 . S
N5578 C5575 1.384 . S
N5579 C5571 1.427 . S
N5579 C5577 1.384 . S
H5580 C5586 0.930 . S
H5581 C5590 0.930 . S
H5582 C5595 0.929 . S
H5583 C5593 0.929 . S
H5584 C5588 0.929 . S
H5585 C5594 0.929 . S
C5586 H5580 0.930 . S
C5586 C5587 1.367 . S
C5586 C5594 1.378 . S
C5587 C5586 1.367 . S
C5587 C5595 1.433 . S
C5588 H5584 0.929 . S
C5588 C5590 1.378 . S
C5588 C5592 1.350 . S
C5589 C5592 1.463 . S
C5589 C5594 1.350 . S
C5589 N5597 1.427 . S
C5590 H5581 0.930 . S
C5590 C5588 1.378 . S
C5590 C5591 1.367 . S
C5591 C5590 1.367 . S
C5591 C5593 1.433 . S
C5592 C5588 1.350 . S
C5592 C5589 1.463 . S
C5592 N5596 1.427 . S
C5593 H5583 0.929 . S
C5593 C5591 1.433 . S
C5593 N5596 1.384 . S
C5594 H5585 0.929 . S
C5594 C5586 1.378 . S
C5594 C5589 1.350 . S
C5595 H5582 0.929 . S
C5595 C5587 1.433 . S
C5595 N5597 1.384 . S
N5596 C5592 1.427 . S
N5596 C5593 1.384 . S
N5597 C5589 1.427 . S
N5597 C5595 1.384 . S
H5598 C5604 0.930 . S
H5599 C5608 0.930 . S
H5600 C5613 0.929 . S
H5601 C5611 0.929 . S
H5602 C5606 0.929 . S
H5603 C5612 0.929 . S
C5604 H5598 0.930 . S
C5604 C5605 1.367 . S
C5604 C5612 1.378 . S
C5605 C5604 1.367 . S
C5605 C5613 1.433 . S
C5606 H5602 0.929 . S
C5606 C5608 1.378 . S
C5606 C5610 1.350 . S
C5607 C5610 1.463 . S
C5607 C5612 1.350 . S
C5607 N5615 1.427 . S
C5608 H5599 0.930 . S
C5608 C5606 1.378 . S
C5608 C5609 1.367 . S
C5609 C5608 1.367 . S
C5609 C5611 1.433 . S
C5610 C5606 1.350 . S
C5610 C5607 1.463 . S
C5610 N5614 1.427 . S
C5611 H5601 0.929 . S
C5611 C5609 1.433 . S
C5611 N5614 1.384 . S
C5612 H5603 0.929 . S
C5612 C5604 1.378 . S
C5612 C5607 1.350 . S
C5613 H5600 0.929 . S
C5613 C5605 1.433 . S
C5613 N5615 1.384 . S
N5614 C5610 1.427 . S
N5614 C5611 1.384 . S
N5615 C5607 1.427 . S
N5615 C5613 1.384 . S
H5616 C5622 0.930 . S
H5617 C5626 0.930 . S
H5618 C5631 0.929 . S
H5619 C5629 0.929 . S
H5620 C5624 0.929 . S
H5621 C5630 0.929 . S
C5622 H5616 0.930 . S
C5622 C5623 1.367 . S
C5622 C5630 1.378 . S
C5623 C5622 1.367 . S
C5623 C5631 1.433 . S
C5624 H5620 0.929 . S
C5624 C5626 1.378 . S
C5624 C5628 1.350 . S
C5625 C5628 1.463 . S
C5625 C5630 1.350 . S
C5625 N5633 1.427 . S
C5626 H5617 0.930 . S
C5626 C5624 1.378 . S
C5626 C5627 1.367 . S
C5627 C5626 1.367 . S
C5627 C5629 1.433 . S
C5628 C5624 1.350 . S
C5628 C5625 1.463 . S
C5628 N5632 1.427 . S
C5629 H5619 0.929 . S
C5629 C5627 1.433 . S
C5629 N5632 1.384 . S
C5630 H5621 0.929 . S
C5630 C5622 1.378 . S
C5630 C5625 1.350 . S
C5631 H5618 0.929 . S
C5631 C5623 1.433 . S
C5631 N5633 1.384 . S
N5632 C5628 1.427 . S
N5632 C5629 1.384 . S
N5633 C5625 1.427 . S
N5633 C5631 1.384 . S
H5634 C5640 0.930 . S
H5635 C5644 0.930 . S
H5636 C5649 0.929 . S
H5637 C5647 0.929 . S
H5638 C5642 0.929 . S
H5639 C5648 0.929 . S
C5640 H5634 0.930 . S
C5640 C5641 1.367 . S
C5640 C5648 1.378 . S
C5641 C5640 1.367 . S
C5641 C5649 1.433 . S
C5642 H5638 0.929 . S
C5642 C5644 1.378 . S
C5642 C5646 1.350 . S
C5643 C5646 1.463 . S
C5643 C5648 1.350 . S
C5643 N5651 1.427 . S
C5644 H5635 0.930 . S
C5644 C5642 1.378 . S
C5644 C5645 1.367 . S
C5645 C5644 1.367 . S
C5645 C5647 1.433 . S
C5646 C5642 1.350 . S
C5646 C5643 1.463 . S
C5646 N5650 1.427 . S
C5647 H5637 0.929 . S
C5647 C5645 1.433 . S
C5647 N5650 1.384 . S
C5648 H5639 0.929 . S
C5648 C5640 1.378 . S
C5648 C5643 1.350 . S
C5649 H5636 0.929 . S
C5649 C5641 1.433 . S
C5649 N5651 1.384 . S
N5650 C5646 1.427 . S
N5650 C5647 1.384 . S
N5651 C5643 1.427 . S
N5651 C5649 1.384 . S
H5652 C5658 0.930 . S
H5653 C5662 0.930 . S
H5654 C5667 0.929 . S
H5655 C5665 0.929 . S
H5656 C5660 0.929 . S
H5657 C5666 0.929 . S
C5658 H5652 0.930 . S
C5658 C5659 1.367 . S
C5658 C5666 1.378 . S
C5659 C5658 1.367 . S
C5659 C5667 1.433 . S
C5660 H5656 0.929 . S
C5660 C5662 1.378 . S
C5660 C5664 1.350 . S
C5661 C5664 1.463 . S
C5661 C5666 1.350 . S
C5661 N5669 1.427 . S
C5662 H5653 0.930 . S
C5662 C5660 1.378 . S
C5662 C5663 1.367 . S
C5663 C5662 1.367 . S
C5663 C5665 1.433 . S
C5664 C5660 1.350 . S
C5664 C5661 1.463 . S
C5664 N5668 1.427 . S
C5665 H5655 0.929 . S
C5665 C5663 1.433 . S
C5665 N5668 1.384 . S
C5666 H5657 0.929 . S
C5666 C5658 1.378 . S
C5666 C5661 1.350 . S
C5667 H5654 0.929 . S
C5667 C5659 1.433 . S
C5667 N5669 1.384 . S
N5668 C5664 1.427 . S
N5668 C5665 1.384 . S
N5669 C5661 1.427 . S
N5669 C5667 1.384 . S
H5670 C5676 0.930 . S
H5671 C5680 0.930 . S
H5672 C5685 0.929 . S
H5673 C5683 0.929 . S
H5674 C5678 0.929 . S
H5675 C5684 0.929 . S
C5676 H5670 0.930 . S
C5676 C5677 1.367 . S
C5676 C5684 1.378 . S
C5677 C5676 1.367 . S
C5677 C5685 1.433 . S
C5678 H5674 0.929 . S
C5678 C5680 1.378 . S
C5678 C5682 1.350 . S
C5679 C5682 1.463 . S
C5679 C5684 1.350 . S
C5679 N5687 1.427 . S
C5680 H5671 0.930 . S
C5680 C5678 1.378 . S
C5680 C5681 1.367 . S
C5681 C5680 1.367 . S
C5681 C5683 1.433 . S
C5682 C5678 1.350 . S
C5682 C5679 1.463 . S
C5682 N5686 1.427 . S
C5683 H5673 0.929 . S
C5683 C5681 1.433 . S
C5683 N5686 1.384 . S
C5684 H5675 0.929 . S
C5684 C5676 1.378 . S
C5684 C5679 1.350 . S
C5685 H5672 0.929 . S
C5685 C5677 1.433 . S
C5685 N5687 1.384 . S
N5686 C5682 1.427 . S
N5686 C5683 1.384 . S
N5687 C5679 1.427 . S
N5687 C5685 1.384 . S
H5688 C5694 0.930 . S
H5689 C5698 0.930 . S
H5690 C5703 0.929 . S
H5691 C5701 0.929 . S
H5692 C5696 0.929 . S
H5693 C5702 0.929 . S
C5694 H5688 0.930 . S
C5694 C5695 1.367 . S
C5694 C5702 1.378 . S
C5695 C5694 1.367 . S
C5695 C5703 1.433 . S
C5696 H5692 0.929 . S
C5696 C5698 1.378 . S
C5696 C5700 1.350 . S
C5697 C5700 1.463 . S
C5697 C5702 1.350 . S
C5697 N5705 1.427 . S
C5698 H5689 0.930 . S
C5698 C5696 1.378 . S
C5698 C5699 1.367 . S
C5699 C5698 1.367 . S
C5699 C5701 1.433 . S
C5700 C5696 1.350 . S
C5700 C5697 1.463 . S
C5700 N5704 1.427 . S
C5701 H5691 0.929 . S
C5701 C5699 1.433 . S
C5701 N5704 1.384 . S
C5702 H5693 0.929 . S
C5702 C5694 1.378 . S
C5702 C5697 1.350 . S
C5703 H5690 0.929 . S
C5703 C5695 1.433 . S
C5703 N5705 1.384 . S
N5704 C5700 1.427 . S
N5704 C5701 1.384 . S
N5705 C5697 1.427 . S
N5705 C5703 1.384 . S
H5706 C5712 0.930 . S
H5707 C5716 0.930 . S
H5708 C5721 0.929 . S
H5709 C5719 0.929 . S
H5710 C5714 0.929 . S
H5711 C5720 0.929 . S
C5712 H5706 0.930 . S
C5712 C5713 1.367 . S
C5712 C5720 1.378 . S
C5713 C5712 1.367 . S
C5713 C5721 1.433 . S
C5714 H5710 0.929 . S
C5714 C5716 1.378 . S
C5714 C5718 1.350 . S
C5715 C5718 1.463 . S
C5715 C5720 1.350 . S
C5715 N5723 1.427 . S
C5716 H5707 0.930 . S
C5716 C5714 1.378 . S
C5716 C5717 1.367 . S
C5717 C5716 1.367 . S
C5717 C5719 1.433 . S
C5718 C5714 1.350 . S
C5718 C5715 1.463 . S
C5718 N5722 1.427 . S
C5719 H5709 0.929 . S
C5719 C5717 1.433 . S
C5719 N5722 1.384 . S
C5720 H5711 0.929 . S
C5720 C5712 1.378 . S
C5720 C5715 1.350 . S
C5721 H5708 0.929 . S
C5721 C5713 1.433 . S
C5721 N5723 1.384 . S
N5722 C5718 1.427 . S
N5722 C5719 1.384 . S
N5723 C5715 1.427 . S
N5723 C5721 1.384 . S
H5724 C5730 0.930 . S
H5725 C5734 0.930 . S
H5726 C5739 0.929 . S
H5727 C5737 0.929 . S
H5728 C5732 0.929 . S
H5729 C5738 0.929 . S
C5730 H5724 0.930 . S
C5730 C5731 1.367 . S
C5730 C5738 1.378 . S
C5731 C5730 1.367 . S
C5731 C5739 1.433 . S
C5732 H5728 0.929 . S
C5732 C5734 1.378 . S
C5732 C5736 1.350 . S
C5733 C5736 1.463 . S
C5733 C5738 1.350 . S
C5733 N5741 1.427 . S
C5734 H5725 0.930 . S
C5734 C5732 1.378 . S
C5734 C5735 1.367 . S
C5735 C5734 1.367 . S
C5735 C5737 1.433 . S
C5736 C5732 1.350 . S
C5736 C5733 1.463 . S
C5736 N5740 1.427 . S
C5737 H5727 0.929 . S
C5737 C5735 1.433 . S
C5737 N5740 1.384 . S
C5738 H5729 0.929 . S
C5738 C5730 1.378 . S
C5738 C5733 1.350 . S
C5739 H5726 0.929 . S
C5739 C5731 1.433 . S
C5739 N5741 1.384 . S
N5740 C5736 1.427 . S
N5740 C5737 1.384 . S
N5741 C5733 1.427 . S
N5741 C5739 1.384 . S
H5742 C5748 0.930 . S
H5743 C5752 0.930 . S
H5744 C5757 0.929 . S
H5745 C5755 0.929 . S
H5746 C5750 0.929 . S
H5747 C5756 0.929 . S
C5748 H5742 0.930 . S
C5748 C5749 1.367 . S
C5748 C5756 1.378 . S
C5749 C5748 1.367 . S
C5749 C5757 1.433 . S
C5750 H5746 0.929 . S
C5750 C5752 1.378 . S
C5750 C5754 1.350 . S
C5751 C5754 1.463 . S
C5751 C5756 1.350 . S
C5751 N5759 1.427 . S
C5752 H5743 0.930 . S
C5752 C5750 1.378 . S
C5752 C5753 1.367 . S
C5753 C5752 1.367 . S
C5753 C5755 1.433 . S
C5754 C5750 1.350 . S
C5754 C5751 1.463 . S
C5754 N5758 1.427 . S
C5755 H5745 0.929 . S
C5755 C5753 1.433 . S
C5755 N5758 1.384 . S
C5756 H5747 0.929 . S
C5756 C5748 1.378 . S
C5756 C5751 1.350 . S
C5757 H5744 0.929 . S
C5757 C5749 1.433 . S
C5757 N5759 1.384 . S
N5758 C5754 1.427 . S
N5758 C5755 1.384 . S
N5759 C5751 1.427 . S
N5759 C5757 1.384 . S
H5760 C5766 0.930 . S
H5761 C5770 0.930 . S
H5762 C5775 0.929 . S
H5763 C5773 0.929 . S
H5764 C5768 0.929 . S
H5765 C5774 0.929 . S
C5766 H5760 0.930 . S
C5766 C5767 1.367 . S
C5766 C5774 1.378 . S
C5767 C5766 1.367 . S
C5767 C5775 1.433 . S
C5768 H5764 0.929 . S
C5768 C5770 1.378 . S
C5768 C5772 1.350 . S
C5769 C5772 1.463 . S
C5769 C5774 1.350 . S
C5769 N5777 1.427 . S
C5770 H5761 0.930 . S
C5770 C5768 1.378 . S
C5770 C5771 1.367 . S
C5771 C5770 1.367 . S
C5771 C5773 1.433 . S
C5772 C5768 1.350 . S
C5772 C5769 1.463 . S
C5772 N5776 1.427 . S
C5773 H5763 0.929 . S
C5773 C5771 1.433 . S
C5773 N5776 1.384 . S
C5774 H5765 0.929 . S
C5774 C5766 1.378 . S
C5774 C5769 1.350 . S
C5775 H5762 0.929 . S
C5775 C5767 1.433 . S
C5775 N5777 1.384 . S
N5776 C5772 1.427 . S
N5776 C5773 1.384 . S
N5777 C5769 1.427 . S
N5777 C5775 1.384 . S
H5778 C5784 0.930 . S
H5779 C5788 0.930 . S
H5780 C5793 0.929 . S
H5781 C5791 0.929 . S
H5782 C5786 0.929 . S
H5783 C5792 0.929 . S
C5784 H5778 0.930 . S
C5784 C5785 1.367 . S
C5784 C5792 1.378 . S
C5785 C5784 1.367 . S
C5785 C5793 1.433 . S
C5786 H5782 0.929 . S
C5786 C5788 1.378 . S
C5786 C5790 1.350 . S
C5787 C5790 1.463 . S
C5787 C5792 1.350 . S
C5787 N5795 1.427 . S
C5788 H5779 0.930 . S
C5788 C5786 1.378 . S
C5788 C5789 1.367 . S
C5789 C5788 1.367 . S
C5789 C5791 1.433 . S
C5790 C5786 1.350 . S
C5790 C5787 1.463 . S
C5790 N5794 1.427 . S
C5791 H5781 0.929 . S
C5791 C5789 1.433 . S
C5791 N5794 1.384 . S
C5792 H5783 0.929 . S
C5792 C5784 1.378 . S
C5792 C5787 1.350 . S
C5793 H5780 0.929 . S
C5793 C5785 1.433 . S
C5793 N5795 1.384 . S
N5794 C5790 1.427 . S
N5794 C5791 1.384 . S
N5795 C5787 1.427 . S
N5795 C5793 1.384 . S
H5796 C5802 0.930 . S
H5797 C5806 0.930 . S
H5798 C5811 0.929 . S
H5799 C5809 0.929 . S
H5800 C5804 0.929 . S
H5801 C5810 0.929 . S
C5802 H5796 0.930 . S
C5802 C5803 1.367 . S
C5802 C5810 1.378 . S
C5803 C5802 1.367 . S
C5803 C5811 1.433 . S
C5804 H5800 0.929 . S
C5804 C5806 1.378 . S
C5804 C5808 1.350 . S
C5805 C5808 1.463 . S
C5805 C5810 1.350 . S
C5805 N5813 1.427 . S
C5806 H5797 0.930 . S
C5806 C5804 1.378 . S
C5806 C5807 1.367 . S
C5807 C5806 1.367 . S
C5807 C5809 1.433 . S
C5808 C5804 1.350 . S
C5808 C5805 1.463 . S
C5808 N5812 1.427 . S
C5809 H5799 0.929 . S
C5809 C5807 1.433 . S
C5809 N5812 1.384 . S
C5810 H5801 0.929 . S
C5810 C5802 1.378 . S
C5810 C5805 1.350 . S
C5811 H5798 0.929 . S
C5811 C5803 1.433 . S
C5811 N5813 1.384 . S
N5812 C5808 1.427 . S
N5812 C5809 1.384 . S
N5813 C5805 1.427 . S
N5813 C5811 1.384 . S
H5814 C5820 0.930 . S
H5815 C5824 0.930 . S
H5816 C5829 0.929 . S
H5817 C5827 0.929 . S
H5818 C5822 0.929 . S
H5819 C5828 0.929 . S
C5820 H5814 0.930 . S
C5820 C5821 1.367 . S
C5820 C5828 1.378 . S
C5821 C5820 1.367 . S
C5821 C5829 1.433 . S
C5822 H5818 0.929 . S
C5822 C5824 1.378 . S
C5822 C5826 1.350 . S
C5823 C5826 1.463 . S
C5823 C5828 1.350 . S
C5823 N5831 1.427 . S
C5824 H5815 0.930 . S
C5824 C5822 1.378 . S
C5824 C5825 1.367 . S
C5825 C5824 1.367 . S
C5825 C5827 1.433 . S
C5826 C5822 1.350 . S
C5826 C5823 1.463 . S
C5826 N5830 1.427 . S
C5827 H5817 0.929 . S
C5827 C5825 1.433 . S
C5827 N5830 1.384 . S
C5828 H5819 0.929 . S
C5828 C5820 1.378 . S
C5828 C5823 1.350 . S
C5829 H5816 0.929 . S
C5829 C5821 1.433 . S
C5829 N5831 1.384 . S
N5830 C5826 1.427 . S
N5830 C5827 1.384 . S
N5831 C5823 1.427 . S
N5831 C5829 1.384 . S
H5832 C5838 0.930 . S
H5833 C5842 0.930 . S
H5834 C5847 0.929 . S
H5835 C5845 0.929 . S
H5836 C5840 0.929 . S
H5837 C5846 0.929 . S
C5838 H5832 0.930 . S
C5838 C5839 1.367 . S
C5838 C5846 1.378 . S
C5839 C5838 1.367 . S
C5839 C5847 1.433 . S
C5840 H5836 0.929 . S
C5840 C5842 1.378 . S
C5840 C5844 1.350 . S
C5841 C5844 1.463 . S
C5841 C5846 1.350 . S
C5841 N5849 1.427 . S
C5842 H5833 0.930 . S
C5842 C5840 1.378 . S
C5842 C5843 1.367 . S
C5843 C5842 1.367 . S
C5843 C5845 1.433 . S
C5844 C5840 1.350 . S
C5844 C5841 1.463 . S
C5844 N5848 1.427 . S
C5845 H5835 0.929 . S
C5845 C5843 1.433 . S
C5845 N5848 1.384 . S
C5846 H5837 0.929 . S
C5846 C5838 1.378 . S
C5846 C5841 1.350 . S
C5847 H5834 0.929 . S
C5847 C5839 1.433 . S
C5847 N5849 1.384 . S
N5848 C5844 1.427 . S
N5848 C5845 1.384 . S
N5849 C5841 1.427 . S
N5849 C5847 1.384 . S
H5850 C5856 0.930 . S
H5851 C5860 0.930 . S
H5852 C5865 0.929 . S
H5853 C5863 0.929 . S
H5854 C5858 0.929 . S
H5855 C5864 0.929 . S
C5856 H5850 0.930 . S
C5856 C5857 1.367 . S
C5856 C5864 1.378 . S
C5857 C5856 1.367 . S
C5857 C5865 1.433 . S
C5858 H5854 0.929 . S
C5858 C5860 1.378 . S
C5858 C5862 1.350 . S
C5859 C5862 1.463 . S
C5859 C5864 1.350 . S
C5859 N5867 1.427 . S
C5860 H5851 0.930 . S
C5860 C5858 1.378 . S
C5860 C5861 1.367 . S
C5861 C5860 1.367 . S
C5861 C5863 1.433 . S
C5862 C5858 1.350 . S
C5862 C5859 1.463 . S
C5862 N5866 1.427 . S
C5863 H5853 0.929 . S
C5863 C5861 1.433 . S
C5863 N5866 1.384 . S
C5864 H5855 0.929 . S
C5864 C5856 1.378 . S
C5864 C5859 1.350 . S
C5865 H5852 0.929 . S
C5865 C5857 1.433 . S
C5865 N5867 1.384 . S
N5866 C5862 1.427 . S
N5866 C5863 1.384 . S
N5867 C5859 1.427 . S
N5867 C5865 1.384 . S
H5868 C5874 0.930 . S
H5869 C5878 0.930 . S
H5870 C5883 0.929 . S
H5871 C5881 0.929 . S
H5872 C5876 0.929 . S
H5873 C5882 0.929 . S
C5874 H5868 0.930 . S
C5874 C5875 1.367 . S
C5874 C5882 1.378 . S
C5875 C5874 1.367 . S
C5875 C5883 1.433 . S
C5876 H5872 0.929 . S
C5876 C5878 1.378 . S
C5876 C5880 1.350 . S
C5877 C5880 1.463 . S
C5877 C5882 1.350 . S
C5877 N5885 1.427 . S
C5878 H5869 0.930 . S
C5878 C5876 1.378 . S
C5878 C5879 1.367 . S
C5879 C5878 1.367 . S
C5879 C5881 1.433 . S
C5880 C5876 1.350 . S
C5880 C5877 1.463 . S
C5880 N5884 1.427 . S
C5881 H5871 0.929 . S
C5881 C5879 1.433 . S
C5881 N5884 1.384 . S
C5882 H5873 0.929 . S
C5882 C5874 1.378 . S
C5882 C5877 1.350 . S
C5883 H5870 0.929 . S
C5883 C5875 1.433 . S
C5883 N5885 1.384 . S
N5884 C5880 1.427 . S
N5884 C5881 1.384 . S
N5885 C5877 1.427 . S
N5885 C5883 1.384 . S
H5886 C5892 0.930 . S
H5887 C5896 0.930 . S
H5888 C5901 0.929 . S
H5889 C5899 0.929 . S
H5890 C5894 0.929 . S
H5891 C5900 0.929 . S
C5892 H5886 0.930 . S
C5892 C5893 1.367 . S
C5892 C5900 1.378 . S
C5893 C5892 1.367 . S
C5893 C5901 1.433 . S
C5894 H5890 0.929 . S
C5894 C5896 1.378 . S
C5894 C5898 1.350 . S
C5895 C5898 1.463 . S
C5895 C5900 1.350 . S
C5895 N5903 1.427 . S
C5896 H5887 0.930 . S
C5896 C5894 1.378 . S
C5896 C5897 1.367 . S
C5897 C5896 1.367 . S
C5897 C5899 1.433 . S
C5898 C5894 1.350 . S
C5898 C5895 1.463 . S
C5898 N5902 1.427 . S
C5899 H5889 0.929 . S
C5899 C5897 1.433 . S
C5899 N5902 1.384 . S
C5900 H5891 0.929 . S
C5900 C5892 1.378 . S
C5900 C5895 1.350 . S
C5901 H5888 0.929 . S
C5901 C5893 1.433 . S
C5901 N5903 1.384 . S
N5902 C5898 1.427 . S
N5902 C5899 1.384 . S
N5903 C5895 1.427 . S
N5903 C5901 1.384 . S
H5904 C5910 0.930 . S
H5905 C5914 0.930 . S
H5906 C5919 0.929 . S
H5907 C5917 0.929 . S
H5908 C5912 0.929 . S
H5909 C5918 0.929 . S
C5910 H5904 0.930 . S
C5910 C5911 1.367 . S
C5910 C5918 1.378 . S
C5911 C5910 1.367 . S
C5911 C5919 1.433 . S
C5912 H5908 0.929 . S
C5912 C5914 1.378 . S
C5912 C5916 1.350 . S
C5913 C5916 1.463 . S
C5913 C5918 1.350 . S
C5913 N5921 1.427 . S
C5914 H5905 0.930 . S
C5914 C5912 1.378 . S
C5914 C5915 1.367 . S
C5915 C5914 1.367 . S
C5915 C5917 1.433 . S
C5916 C5912 1.350 . S
C5916 C5913 1.463 . S
C5916 N5920 1.427 . S
C5917 H5907 0.929 . S
C5917 C5915 1.433 . S
C5917 N5920 1.384 . S
C5918 H5909 0.929 . S
C5918 C5910 1.378 . S
C5918 C5913 1.350 . S
C5919 H5906 0.929 . S
C5919 C5911 1.433 . S
C5919 N5921 1.384 . S
N5920 C5916 1.427 . S
N5920 C5917 1.384 . S
N5921 C5913 1.427 . S
N5921 C5919 1.384 . S
H5922 C5928 0.930 . S
H5923 C5932 0.930 . S
H5924 C5937 0.929 . S
H5925 C5935 0.929 . S
H5926 C5930 0.929 . S
H5927 C5936 0.929 . S
C5928 H5922 0.930 . S
C5928 C5929 1.367 . S
C5928 C5936 1.378 . S
C5929 C5928 1.367 . S
C5929 C5937 1.433 . S
C5930 H5926 0.929 . S
C5930 C5932 1.378 . S
C5930 C5934 1.350 . S
C5931 C5934 1.463 . S
C5931 C5936 1.350 . S
C5931 N5939 1.427 . S
C5932 H5923 0.930 . S
C5932 C5930 1.378 . S
C5932 C5933 1.367 . S
C5933 C5932 1.367 . S
C5933 C5935 1.433 . S
C5934 C5930 1.350 . S
C5934 C5931 1.463 . S
C5934 N5938 1.427 . S
C5935 H5925 0.929 . S
C5935 C5933 1.433 . S
C5935 N5938 1.384 . S
C5936 H5927 0.929 . S
C5936 C5928 1.378 . S
C5936 C5931 1.350 . S
C5937 H5924 0.929 . S
C5937 C5929 1.433 . S
C5937 N5939 1.384 . S
N5938 C5934 1.427 . S
N5938 C5935 1.384 . S
N5939 C5931 1.427 . S
N5939 C5937 1.384 . S
H5940 C5946 0.930 . S
H5941 C5950 0.930 . S
H5942 C5955 0.929 . S
H5943 C5953 0.929 . S
H5944 C5948 0.929 . S
H5945 C5954 0.929 . S
C5946 H5940 0.930 . S
C5946 C5947 1.367 . S
C5946 C5954 1.378 . S
C5947 C5946 1.367 . S
C5947 C5955 1.433 . S
C5948 H5944 0.929 . S
C5948 C5950 1.378 . S
C5948 C5952 1.350 . S
C5949 C5952 1.463 . S
C5949 C5954 1.350 . S
C5949 N5957 1.427 . S
C5950 H5941 0.930 . S
C5950 C5948 1.378 . S
C5950 C5951 1.367 . S
C5951 C5950 1.367 . S
C5951 C5953 1.433 . S
C5952 C5948 1.350 . S
C5952 C5949 1.463 . S
C5952 N5956 1.427 . S
C5953 H5943 0.929 . S
C5953 C5951 1.433 . S
C5953 N5956 1.384 . S
C5954 H5945 0.929 . S
C5954 C5946 1.378 . S
C5954 C5949 1.350 . S
C5955 H5942 0.929 . S
C5955 C5947 1.433 . S
C5955 N5957 1.384 . S
N5956 C5952 1.427 . S
N5956 C5953 1.384 . S
N5957 C5949 1.427 . S
N5957 C5955 1.384 . S
H5958 C5964 0.930 . S
H5959 C5968 0.930 . S
H5960 C5973 0.929 . S
H5961 C5971 0.929 . S
H5962 C5966 0.929 . S
H5963 C5972 0.929 . S
C5964 H5958 0.930 . S
C5964 C5965 1.367 . S
C5964 C5972 1.378 . S
C5965 C5964 1.367 . S
C5965 C5973 1.433 . S
C5966 H5962 0.929 . S
C5966 C5968 1.378 . S
C5966 C5970 1.350 . S
C5967 C5970 1.463 . S
C5967 C5972 1.350 . S
C5967 N5975 1.427 . S
C5968 H5959 0.930 . S
C5968 C5966 1.378 . S
C5968 C5969 1.367 . S
C5969 C5968 1.367 . S
C5969 C5971 1.433 . S
C5970 C5966 1.350 . S
C5970 C5967 1.463 . S
C5970 N5974 1.427 . S
C5971 H5961 0.929 . S
C5971 C5969 1.433 . S
C5971 N5974 1.384 . S
C5972 H5963 0.929 . S
C5972 C5964 1.378 . S
C5972 C5967 1.350 . S
C5973 H5960 0.929 . S
C5973 C5965 1.433 . S
C5973 N5975 1.384 . S
N5974 C5970 1.427 . S
N5974 C5971 1.384 . S
N5975 C5967 1.427 . S
N5975 C5973 1.384 . S
H5976 C5982 0.930 . S
H5977 C5986 0.930 . S
H5978 C5991 0.929 . S
H5979 C5989 0.929 . S
H5980 C5984 0.929 . S
H5981 C5990 0.929 . S
C5982 H5976 0.930 . S
C5982 C5983 1.367 . S
C5982 C5990 1.378 . S
C5983 C5982 1.367 . S
C5983 C5991 1.433 . S
C5984 H5980 0.929 . S
C5984 C5986 1.378 . S
C5984 C5988 1.350 . S
C5985 C5988 1.463 . S
C5985 C5990 1.350 . S
C5985 N5993 1.427 . S
C5986 H5977 0.930 . S
C5986 C5984 1.378 . S
C5986 C5987 1.367 . S
C5987 C5986 1.367 . S
C5987 C5989 1.433 . S
C5988 C5984 1.350 . S
C5988 C5985 1.463 . S
C5988 N5992 1.427 . S
C5989 H5979 0.929 . S
C5989 C5987 1.433 . S
C5989 N5992 1.384 . S
C5990 H5981 0.929 . S
C5990 C5982 1.378 . S
C5990 C5985 1.350 . S
C5991 H5978 0.929 . S
C5991 C5983 1.433 . S
C5991 N5993 1.384 . S
N5992 C5988 1.427 . S
N5992 C5989 1.384 . S
N5993 C5985 1.427 . S
N5993 C5991 1.384 . S
H5994 C6000 0.930 . S
H5995 C6004 0.930 . S
H5996 C6009 0.929 . S
H5997 C6007 0.929 . S
H5998 C6002 0.929 . S
H5999 C6008 0.929 . S
C6000 H5994 0.930 . S
C6000 C6001 1.367 . S
C6000 C6008 1.378 . S
C6001 C6000 1.367 . S
C6001 C6009 1.433 . S
C6002 H5998 0.929 . S
C6002 C6004 1.378 . S
C6002 C6006 1.350 . S
C6003 C6006 1.463 . S
C6003 C6008 1.350 . S
C6003 N6011 1.427 . S
C6004 H5995 0.930 . S
C6004 C6002 1.378 . S
C6004 C6005 1.367 . S
C6005 C6004 1.367 . S
C6005 C6007 1.433 . S
C6006 C6002 1.350 . S
C6006 C6003 1.463 . S
C6006 N6010 1.427 . S
C6007 H5997 0.929 . S
C6007 C6005 1.433 . S
C6007 N6010 1.384 . S
C6008 H5999 0.929 . S
C6008 C6000 1.378 . S
C6008 C6003 1.350 . S
C6009 H5996 0.929 . S
C6009 C6001 1.433 . S
C6009 N6011 1.384 . S
N6010 C6006 1.427 . S
N6010 C6007 1.384 . S
N6011 C6003 1.427 . S
N6011 C6009 1.384 . S
H6012 C6018 0.930 . S
H6013 C6022 0.930 . S
H6014 C6027 0.929 . S
H6015 C6025 0.929 . S
H6016 C6020 0.929 . S
H6017 C6026 0.929 . S
C6018 H6012 0.930 . S
C6018 C6019 1.367 . S
C6018 C6026 1.378 . S
C6019 C6018 1.367 . S
C6019 C6027 1.433 . S
C6020 H6016 0.929 . S
C6020 C6022 1.378 . S
C6020 C6024 1.350 . S
C6021 C6024 1.463 . S
C6021 C6026 1.350 . S
C6021 N6029 1.427 . S
C6022 H6013 0.930 . S
C6022 C6020 1.378 . S
C6022 C6023 1.367 . S
C6023 C6022 1.367 . S
C6023 C6025 1.433 . S
C6024 C6020 1.350 . S
C6024 C6021 1.463 . S
C6024 N6028 1.427 . S
C6025 H6015 0.929 . S
C6025 C6023 1.433 . S
C6025 N6028 1.384 . S
C6026 H6017 0.929 . S
C6026 C6018 1.378 . S
C6026 C6021 1.350 . S
C6027 H6014 0.929 . S
C6027 C6019 1.433 . S
C6027 N6029 1.384 . S
N6028 C6024 1.427 . S
N6028 C6025 1.384 . S
N6029 C6021 1.427 . S
N6029 C6027 1.384 . S
H6030 C6036 0.930 . S
H6031 C6040 0.930 . S
H6032 C6045 0.929 . S
H6033 C6043 0.929 . S
H6034 C6038 0.929 . S
H6035 C6044 0.929 . S
C6036 H6030 0.930 . S
C6036 C6037 1.367 . S
C6036 C6044 1.378 . S
C6037 C6036 1.367 . S
C6037 C6045 1.433 . S
C6038 H6034 0.929 . S
C6038 C6040 1.378 . S
C6038 C6042 1.350 . S
C6039 C6042 1.463 . S
C6039 C6044 1.350 . S
C6039 N6047 1.427 . S
C6040 H6031 0.930 . S
C6040 C6038 1.378 . S
C6040 C6041 1.367 . S
C6041 C6040 1.367 . S
C6041 C6043 1.433 . S
C6042 C6038 1.350 . S
C6042 C6039 1.463 . S
C6042 N6046 1.427 . S
C6043 H6033 0.929 . S
C6043 C6041 1.433 . S
C6043 N6046 1.384 . S
C6044 H6035 0.929 . S
C6044 C6036 1.378 . S
C6044 C6039 1.350 . S
C6045 H6032 0.929 . S
C6045 C6037 1.433 . S
C6045 N6047 1.384 . S
N6046 C6042 1.427 . S
N6046 C6043 1.384 . S
N6047 C6039 1.427 . S
N6047 C6045 1.384 . S
H6048 C6054 0.930 . S
H6049 C6058 0.930 . S
H6050 C6063 0.929 . S
H6051 C6061 0.929 . S
H6052 C6056 0.929 . S
H6053 C6062 0.929 . S
C6054 H6048 0.930 . S
C6054 C6055 1.367 . S
C6054 C6062 1.378 . S
C6055 C6054 1.367 . S
C6055 C6063 1.433 . S
C6056 H6052 0.929 . S
C6056 C6058 1.378 . S
C6056 C6060 1.350 . S
C6057 C6060 1.463 . S
C6057 C6062 1.350 . S
C6057 N6065 1.427 . S
C6058 H6049 0.930 . S
C6058 C6056 1.378 . S
C6058 C6059 1.367 . S
C6059 C6058 1.367 . S
C6059 C6061 1.433 . S
C6060 C6056 1.350 . S
C6060 C6057 1.463 . S
C6060 N6064 1.427 . S
C6061 H6051 0.929 . S
C6061 C6059 1.433 . S
C6061 N6064 1.384 . S
C6062 H6053 0.929 . S
C6062 C6054 1.378 . S
C6062 C6057 1.350 . S
C6063 H6050 0.929 . S
C6063 C6055 1.433 . S
C6063 N6065 1.384 . S
N6064 C6060 1.427 . S
N6064 C6061 1.384 . S
N6065 C6057 1.427 . S
N6065 C6063 1.384 . S
H6066 C6072 0.930 . S
H6067 C6076 0.930 . S
H6068 C6081 0.929 . S
H6069 C6079 0.929 . S
H6070 C6074 0.929 . S
H6071 C6080 0.929 . S
C6072 H6066 0.930 . S
C6072 C6073 1.367 . S
C6072 C6080 1.378 . S
C6073 C6072 1.367 . S
C6073 C6081 1.433 . S
C6074 H6070 0.929 . S
C6074 C6076 1.378 . S
C6074 C6078 1.350 . S
C6075 C6078 1.463 . S
C6075 C6080 1.350 . S
C6075 N6083 1.427 . S
C6076 H6067 0.930 . S
C6076 C6074 1.378 . S
C6076 C6077 1.367 . S
C6077 C6076 1.367 . S
C6077 C6079 1.433 . S
C6078 C6074 1.350 . S
C6078 C6075 1.463 . S
C6078 N6082 1.427 . S
C6079 H6069 0.929 . S
C6079 C6077 1.433 . S
C6079 N6082 1.384 . S
C6080 H6071 0.929 . S
C6080 C6072 1.378 . S
C6080 C6075 1.350 . S
C6081 H6068 0.929 . S
C6081 C6073 1.433 . S
C6081 N6083 1.384 . S
N6082 C6078 1.427 . S
N6082 C6079 1.384 . S
N6083 C6075 1.427 . S
N6083 C6081 1.384 . S
H6084 C6090 0.930 . S
H6085 C6094 0.930 . S
H6086 C6099 0.929 . S
H6087 C6097 0.929 . S
H6088 C6092 0.929 . S
H6089 C6098 0.929 . S
C6090 H6084 0.930 . S
C6090 C6091 1.367 . S
C6090 C6098 1.378 . S
C6091 C6090 1.367 . S
C6091 C6099 1.433 . S
C6092 H6088 0.929 . S
C6092 C6094 1.378 . S
C6092 C6096 1.350 . S
C6093 C6096 1.463 . S
C6093 C6098 1.350 . S
C6093 N6101 1.427 . S
C6094 H6085 0.930 . S
C6094 C6092 1.378 . S
C6094 C6095 1.367 . S
C6095 C6094 1.367 . S
C6095 C6097 1.433 . S
C6096 C6092 1.350 . S
C6096 C6093 1.463 . S
C6096 N6100 1.427 . S
C6097 H6087 0.929 . S
C6097 C6095 1.433 . S
C6097 N6100 1.384 . S
C6098 H6089 0.929 . S
C6098 C6090 1.378 . S
C6098 C6093 1.350 . S
C6099 H6086 0.929 . S
C6099 C6091 1.433 . S
C6099 N6101 1.384 . S
N6100 C6096 1.427 . S
N6100 C6097 1.384 . S
N6101 C6093 1.427 . S
N6101 C6099 1.384 . S
H6102 C6108 0.930 . S
H6103 C6112 0.930 . S
H6104 C6117 0.929 . S
H6105 C6115 0.929 . S
H6106 C6110 0.929 . S
H6107 C6116 0.929 . S
C6108 H6102 0.930 . S
C6108 C6109 1.367 . S
C6108 C6116 1.378 . S
C6109 C6108 1.367 . S
C6109 C6117 1.433 . S
C6110 H6106 0.929 . S
C6110 C6112 1.378 . S
C6110 C6114 1.350 . S
C6111 C6114 1.463 . S
C6111 C6116 1.350 . S
C6111 N6119 1.427 . S
C6112 H6103 0.930 . S
C6112 C6110 1.378 . S
C6112 C6113 1.367 . S
C6113 C6112 1.367 . S
C6113 C6115 1.433 . S
C6114 C6110 1.350 . S
C6114 C6111 1.463 . S
C6114 N6118 1.427 . S
C6115 H6105 0.929 . S
C6115 C6113 1.433 . S
C6115 N6118 1.384 . S
C6116 H6107 0.929 . S
C6116 C6108 1.378 . S
C6116 C6111 1.350 . S
C6117 H6104 0.929 . S
C6117 C6109 1.433 . S
C6117 N6119 1.384 . S
N6118 C6114 1.427 . S
N6118 C6115 1.384 . S
N6119 C6111 1.427 . S
N6119 C6117 1.384 . S
H6120 C6126 0.930 . S
H6121 C6130 0.930 . S
H6122 C6135 0.929 . S
H6123 C6133 0.929 . S
H6124 C6128 0.929 . S
H6125 C6134 0.929 . S
C6126 H6120 0.930 . S
C6126 C6127 1.367 . S
C6126 C6134 1.378 . S
C6127 C6126 1.367 . S
C6127 C6135 1.433 . S
C6128 H6124 0.929 . S
C6128 C6130 1.378 . S
C6128 C6132 1.350 . S
C6129 C6132 1.463 . S
C6129 C6134 1.350 . S
C6129 N6137 1.427 . S
C6130 H6121 0.930 . S
C6130 C6128 1.378 . S
C6130 C6131 1.367 . S
C6131 C6130 1.367 . S
C6131 C6133 1.433 . S
C6132 C6128 1.350 . S
C6132 C6129 1.463 . S
C6132 N6136 1.427 . S
C6133 H6123 0.929 . S
C6133 C6131 1.433 . S
C6133 N6136 1.384 . S
C6134 H6125 0.929 . S
C6134 C6126 1.378 . S
C6134 C6129 1.350 . S
C6135 H6122 0.929 . S
C6135 C6127 1.433 . S
C6135 N6137 1.384 . S
N6136 C6132 1.427 . S
N6136 C6133 1.384 . S
N6137 C6129 1.427 . S
N6137 C6135 1.384 . S
H6138 C6144 0.930 . S
H6139 C6148 0.930 . S
H6140 C6153 0.929 . S
H6141 C6151 0.929 . S
H6142 C6146 0.929 . S
H6143 C6152 0.929 . S
C6144 H6138 0.930 . S
C6144 C6145 1.367 . S
C6144 C6152 1.378 . S
C6145 C6144 1.367 . S
C6145 C6153 1.433 . S
C6146 H6142 0.929 . S
C6146 C6148 1.378 . S
C6146 C6150 1.350 . S
C6147 C6150 1.463 . S
C6147 C6152 1.350 . S
C6147 N6155 1.427 . S
C6148 H6139 0.930 . S
C6148 C6146 1.378 . S
C6148 C6149 1.367 . S
C6149 C6148 1.367 . S
C6149 C6151 1.433 . S
C6150 C6146 1.350 . S
C6150 C6147 1.463 . S
C6150 N6154 1.427 . S
C6151 H6141 0.929 . S
C6151 C6149 1.433 . S
C6151 N6154 1.384 . S
C6152 H6143 0.929 . S
C6152 C6144 1.378 . S
C6152 C6147 1.350 . S
C6153 H6140 0.929 . S
C6153 C6145 1.433 . S
C6153 N6155 1.384 . S
N6154 C6150 1.427 . S
N6154 C6151 1.384 . S
N6155 C6147 1.427 . S
N6155 C6153 1.384 . S
H6156 C6162 0.930 . S
H6157 C6166 0.930 . S
H6158 C6171 0.929 . S
H6159 C6169 0.929 . S
H6160 C6164 0.929 . S
H6161 C6170 0.929 . S
C6162 H6156 0.930 . S
C6162 C6163 1.367 . S
C6162 C6170 1.378 . S
C6163 C6162 1.367 . S
C6163 C6171 1.433 . S
C6164 H6160 0.929 . S
C6164 C6166 1.378 . S
C6164 C6168 1.350 . S
C6165 C6168 1.463 . S
C6165 C6170 1.350 . S
C6165 N6173 1.427 . S
C6166 H6157 0.930 . S
C6166 C6164 1.378 . S
C6166 C6167 1.367 . S
C6167 C6166 1.367 . S
C6167 C6169 1.433 . S
C6168 C6164 1.350 . S
C6168 C6165 1.463 . S
C6168 N6172 1.427 . S
C6169 H6159 0.929 . S
C6169 C6167 1.433 . S
C6169 N6172 1.384 . S
C6170 H6161 0.929 . S
C6170 C6162 1.378 . S
C6170 C6165 1.350 . S
C6171 H6158 0.929 . S
C6171 C6163 1.433 . S
C6171 N6173 1.384 . S
N6172 C6168 1.427 . S
N6172 C6169 1.384 . S
N6173 C6165 1.427 . S
N6173 C6171 1.384 . S
H6174 C6180 0.930 . S
H6175 C6184 0.930 . S
H6176 C6189 0.929 . S
H6177 C6187 0.929 . S
H6178 C6182 0.929 . S
H6179 C6188 0.929 . S
C6180 H6174 0.930 . S
C6180 C6181 1.367 . S
C6180 C6188 1.378 . S
C6181 C6180 1.367 . S
C6181 C6189 1.433 . S
C6182 H6178 0.929 . S
C6182 C6184 1.378 . S
C6182 C6186 1.350 . S
C6183 C6186 1.463 . S
C6183 C6188 1.350 . S
C6183 N6191 1.427 . S
C6184 H6175 0.930 . S
C6184 C6182 1.378 . S
C6184 C6185 1.367 . S
C6185 C6184 1.367 . S
C6185 C6187 1.433 . S
C6186 C6182 1.350 . S
C6186 C6183 1.463 . S
C6186 N6190 1.427 . S
C6187 H6177 0.929 . S
C6187 C6185 1.433 . S
C6187 N6190 1.384 . S
C6188 H6179 0.929 . S
C6188 C6180 1.378 . S
C6188 C6183 1.350 . S
C6189 H6176 0.929 . S
C6189 C6181 1.433 . S
C6189 N6191 1.384 . S
N6190 C6186 1.427 . S
N6190 C6187 1.384 . S
N6191 C6183 1.427 . S
N6191 C6189 1.384 . S
H6192 C6198 0.930 . S
H6193 C6202 0.930 . S
H6194 C6207 0.929 . S
H6195 C6205 0.929 . S
H6196 C6200 0.929 . S
H6197 C6206 0.929 . S
C6198 H6192 0.930 . S
C6198 C6199 1.367 . S
C6198 C6206 1.378 . S
C6199 C6198 1.367 . S
C6199 C6207 1.433 . S
C6200 H6196 0.929 . S
C6200 C6202 1.378 . S
C6200 C6204 1.350 . S
C6201 C6204 1.463 . S
C6201 C6206 1.350 . S
C6201 N6209 1.427 . S
C6202 H6193 0.930 . S
C6202 C6200 1.378 . S
C6202 C6203 1.367 . S
C6203 C6202 1.367 . S
C6203 C6205 1.433 . S
C6204 C6200 1.350 . S
C6204 C6201 1.463 . S
C6204 N6208 1.427 . S
C6205 H6195 0.929 . S
C6205 C6203 1.433 . S
C6205 N6208 1.384 . S
C6206 H6197 0.929 . S
C6206 C6198 1.378 . S
C6206 C6201 1.350 . S
C6207 H6194 0.929 . S
C6207 C6199 1.433 . S
C6207 N6209 1.384 . S
N6208 C6204 1.427 . S
N6208 C6205 1.384 . S
N6209 C6201 1.427 . S
N6209 C6207 1.384 . S
H6210 C6216 0.930 . S
H6211 C6220 0.930 . S
H6212 C6225 0.929 . S
H6213 C6223 0.929 . S
H6214 C6218 0.929 . S
H6215 C6224 0.929 . S
C6216 H6210 0.930 . S
C6216 C6217 1.367 . S
C6216 C6224 1.378 . S
C6217 C6216 1.367 . S
C6217 C6225 1.433 . S
C6218 H6214 0.929 . S
C6218 C6220 1.378 . S
C6218 C6222 1.350 . S
C6219 C6222 1.463 . S
C6219 C6224 1.350 . S
C6219 N6227 1.427 . S
C6220 H6211 0.930 . S
C6220 C6218 1.378 . S
C6220 C6221 1.367 . S
C6221 C6220 1.367 . S
C6221 C6223 1.433 . S
C6222 C6218 1.350 . S
C6222 C6219 1.463 . S
C6222 N6226 1.427 . S
C6223 H6213 0.929 . S
C6223 C6221 1.433 . S
C6223 N6226 1.384 . S
C6224 H6215 0.929 . S
C6224 C6216 1.378 . S
C6224 C6219 1.350 . S
C6225 H6212 0.929 . S
C6225 C6217 1.433 . S
C6225 N6227 1.384 . S
N6226 C6222 1.427 . S
N6226 C6223 1.384 . S
N6227 C6219 1.427 . S
N6227 C6225 1.384 . S
H6228 C6234 0.930 . S
H6229 C6238 0.930 . S
H6230 C6243 0.929 . S
H6231 C6241 0.929 . S
H6232 C6236 0.929 . S
H6233 C6242 0.929 . S
C6234 H6228 0.930 . S
C6234 C6235 1.367 . S
C6234 C6242 1.378 . S
C6235 C6234 1.367 . S
C6235 C6243 1.433 . S
C6236 H6232 0.929 . S
C6236 C6238 1.378 . S
C6236 C6240 1.350 . S
C6237 C6240 1.463 . S
C6237 C6242 1.350 . S
C6237 N6245 1.427 . S
C6238 H6229 0.930 . S
C6238 C6236 1.378 . S
C6238 C6239 1.367 . S
C6239 C6238 1.367 . S
C6239 C6241 1.433 . S
C6240 C6236 1.350 . S
C6240 C6237 1.463 . S
C6240 N6244 1.427 . S
C6241 H6231 0.929 . S
C6241 C6239 1.433 . S
C6241 N6244 1.384 . S
C6242 H6233 0.929 . S
C6242 C6234 1.378 . S
C6242 C6237 1.350 . S
C6243 H6230 0.929 . S
C6243 C6235 1.433 . S
C6243 N6245 1.384 . S
N6244 C6240 1.427 . S
N6244 C6241 1.384 . S
N6245 C6237 1.427 . S
N6245 C6243 1.384 . S
H6246 C6252 0.930 . S
H6247 C6256 0.930 . S
H6248 C6261 0.929 . S
H6249 C6259 0.929 . S
H6250 C6254 0.929 . S
H6251 C6260 0.929 . S
C6252 H6246 0.930 . S
C6252 C6253 1.367 . S
C6252 C6260 1.378 . S
C6253 C6252 1.367 . S
C6253 C6261 1.433 . S
C6254 H6250 0.929 . S
C6254 C6256 1.378 . S
C6254 C6258 1.350 . S
C6255 C6258 1.463 . S
C6255 C6260 1.350 . S
C6255 N6263 1.427 . S
C6256 H6247 0.930 . S
C6256 C6254 1.378 . S
C6256 C6257 1.367 . S
C6257 C6256 1.367 . S
C6257 C6259 1.433 . S
C6258 C6254 1.350 . S
C6258 C6255 1.463 . S
C6258 N6262 1.427 . S
C6259 H6249 0.929 . S
C6259 C6257 1.433 . S
C6259 N6262 1.384 . S
C6260 H6251 0.929 . S
C6260 C6252 1.378 . S
C6260 C6255 1.350 . S
C6261 H6248 0.929 . S
C6261 C6253 1.433 . S
C6261 N6263 1.384 . S
N6262 C6258 1.427 . S
N6262 C6259 1.384 . S
N6263 C6255 1.427 . S
N6263 C6261 1.384 . S
H6264 C6270 0.930 . S
H6265 C6274 0.930 . S
H6266 C6279 0.929 . S
H6267 C6277 0.929 . S
H6268 C6272 0.929 . S
H6269 C6278 0.929 . S
C6270 H6264 0.930 . S
C6270 C6271 1.367 . S
C6270 C6278 1.378 . S
C6271 C6270 1.367 . S
C6271 C6279 1.433 . S
C6272 H6268 0.929 . S
C6272 C6274 1.378 . S
C6272 C6276 1.350 . S
C6273 C6276 1.463 . S
C6273 C6278 1.350 . S
C6273 N6281 1.427 . S
C6274 H6265 0.930 . S
C6274 C6272 1.378 . S
C6274 C6275 1.367 . S
C6275 C6274 1.367 . S
C6275 C6277 1.433 . S
C6276 C6272 1.350 . S
C6276 C6273 1.463 . S
C6276 N6280 1.427 . S
C6277 H6267 0.929 . S
C6277 C6275 1.433 . S
C6277 N6280 1.384 . S
C6278 H6269 0.929 . S
C6278 C6270 1.378 . S
C6278 C6273 1.350 . S
C6279 H6266 0.929 . S
C6279 C6271 1.433 . S
C6279 N6281 1.384 . S
N6280 C6276 1.427 . S
N6280 C6277 1.384 . S
N6281 C6273 1.427 . S
N6281 C6279 1.384 . S
H6282 C6288 0.930 . S
H6283 C6292 0.930 . S
H6284 C6297 0.929 . S
H6285 C6295 0.929 . S
H6286 C6290 0.929 . S
H6287 C6296 0.929 . S
C6288 H6282 0.930 . S
C6288 C6289 1.367 . S
C6288 C6296 1.378 . S
C6289 C6288 1.367 . S
C6289 C6297 1.433 . S
C6290 H6286 0.929 . S
C6290 C6292 1.378 . S
C6290 C6294 1.350 . S
C6291 C6294 1.463 . S
C6291 C6296 1.350 . S
C6291 N6299 1.427 . S
C6292 H6283 0.930 . S
C6292 C6290 1.378 . S
C6292 C6293 1.367 . S
C6293 C6292 1.367 . S
C6293 C6295 1.433 . S
C6294 C6290 1.350 . S
C6294 C6291 1.463 . S
C6294 N6298 1.427 . S
C6295 H6285 0.929 . S
C6295 C6293 1.433 . S
C6295 N6298 1.384 . S
C6296 H6287 0.929 . S
C6296 C6288 1.378 . S
C6296 C6291 1.350 . S
C6297 H6284 0.929 . S
C6297 C6289 1.433 . S
C6297 N6299 1.384 . S
N6298 C6294 1.427 . S
N6298 C6295 1.384 . S
N6299 C6291 1.427 . S
N6299 C6297 1.384 . S
H6300 C6306 0.930 . S
H6301 C6310 0.930 . S
H6302 C6315 0.929 . S
H6303 C6313 0.929 . S
H6304 C6308 0.929 . S
H6305 C6314 0.929 . S
C6306 H6300 0.930 . S
C6306 C6307 1.367 . S
C6306 C6314 1.378 . S
C6307 C6306 1.367 . S
C6307 C6315 1.433 . S
C6308 H6304 0.929 . S
C6308 C6310 1.378 . S
C6308 C6312 1.350 . S
C6309 C6312 1.463 . S
C6309 C6314 1.350 . S
C6309 N6317 1.427 . S
C6310 H6301 0.930 . S
C6310 C6308 1.378 . S
C6310 C6311 1.367 . S
C6311 C6310 1.367 . S
C6311 C6313 1.433 . S
C6312 C6308 1.350 . S
C6312 C6309 1.463 . S
C6312 N6316 1.427 . S
C6313 H6303 0.929 . S
C6313 C6311 1.433 . S
C6313 N6316 1.384 . S
C6314 H6305 0.929 . S
C6314 C6306 1.378 . S
C6314 C6309 1.350 . S
C6315 H6302 0.929 . S
C6315 C6307 1.433 . S
C6315 N6317 1.384 . S
N6316 C6312 1.427 . S
N6316 C6313 1.384 . S
N6317 C6309 1.427 . S
N6317 C6315 1.384 . S
H6318 C6324 0.930 . S
H6319 C6328 0.930 . S
H6320 C6333 0.929 . S
H6321 C6331 0.929 . S
H6322 C6326 0.929 . S
H6323 C6332 0.929 . S
C6324 H6318 0.930 . S
C6324 C6325 1.367 . S
C6324 C6332 1.378 . S
C6325 C6324 1.367 . S
C6325 C6333 1.433 . S
C6326 H6322 0.929 . S
C6326 C6328 1.378 . S
C6326 C6330 1.350 . S
C6327 C6330 1.463 . S
C6327 C6332 1.350 . S
C6327 N6335 1.427 . S
C6328 H6319 0.930 . S
C6328 C6326 1.378 . S
C6328 C6329 1.367 . S
C6329 C6328 1.367 . S
C6329 C6331 1.433 . S
C6330 C6326 1.350 . S
C6330 C6327 1.463 . S
C6330 N6334 1.427 . S
C6331 H6321 0.929 . S
C6331 C6329 1.433 . S
C6331 N6334 1.384 . S
C6332 H6323 0.929 . S
C6332 C6324 1.378 . S
C6332 C6327 1.350 . S
C6333 H6320 0.929 . S
C6333 C6325 1.433 . S
C6333 N6335 1.384 . S
N6334 C6330 1.427 . S
N6334 C6331 1.384 . S
N6335 C6327 1.427 . S
N6335 C6333 1.384 . S
H6336 C6342 0.930 . S
H6337 C6346 0.930 . S
H6338 C6351 0.929 . S
H6339 C6349 0.929 . S
H6340 C6344 0.929 . S
H6341 C6350 0.929 . S
C6342 H6336 0.930 . S
C6342 C6343 1.367 . S
C6342 C6350 1.378 . S
C6343 C6342 1.367 . S
C6343 C6351 1.433 . S
C6344 H6340 0.929 . S
C6344 C6346 1.378 . S
C6344 C6348 1.350 . S
C6345 C6348 1.463 . S
C6345 C6350 1.350 . S
C6345 N6353 1.427 . S
C6346 H6337 0.930 . S
C6346 C6344 1.378 . S
C6346 C6347 1.367 . S
C6347 C6346 1.367 . S
C6347 C6349 1.433 . S
C6348 C6344 1.350 . S
C6348 C6345 1.463 . S
C6348 N6352 1.427 . S
C6349 H6339 0.929 . S
C6349 C6347 1.433 . S
C6349 N6352 1.384 . S
C6350 H6341 0.929 . S
C6350 C6342 1.378 . S
C6350 C6345 1.350 . S
C6351 H6338 0.929 . S
C6351 C6343 1.433 . S
C6351 N6353 1.384 . S
N6352 C6348 1.427 . S
N6352 C6349 1.384 . S
N6353 C6345 1.427 . S
N6353 C6351 1.384 . S
H6354 C6360 0.930 . S
H6355 C6364 0.930 . S
H6356 C6369 0.929 . S
H6357 C6367 0.929 . S
H6358 C6362 0.929 . S
H6359 C6368 0.929 . S
C6360 H6354 0.930 . S
C6360 C6361 1.367 . S
C6360 C6368 1.378 . S
C6361 C6360 1.367 . S
C6361 C6369 1.433 . S
C6362 H6358 0.929 . S
C6362 C6364 1.378 . S
C6362 C6366 1.350 . S
C6363 C6366 1.463 . S
C6363 C6368 1.350 . S
C6363 N6371 1.427 . S
C6364 H6355 0.930 . S
C6364 C6362 1.378 . S
C6364 C6365 1.367 . S
C6365 C6364 1.367 . S
C6365 C6367 1.433 . S
C6366 C6362 1.350 . S
C6366 C6363 1.463 . S
C6366 N6370 1.427 . S
C6367 H6357 0.929 . S
C6367 C6365 1.433 . S
C6367 N6370 1.384 . S
C6368 H6359 0.929 . S
C6368 C6360 1.378 . S
C6368 C6363 1.350 . S
C6369 H6356 0.929 . S
C6369 C6361 1.433 . S
C6369 N6371 1.384 . S
N6370 C6366 1.427 . S
N6370 C6367 1.384 . S
N6371 C6363 1.427 . S
N6371 C6369 1.384 . S
H6372 C6378 0.930 . S
H6373 C6382 0.930 . S
H6374 C6387 0.929 . S
H6375 C6385 0.929 . S
H6376 C6380 0.929 . S
H6377 C6386 0.929 . S
C6378 H6372 0.930 . S
C6378 C6379 1.367 . S
C6378 C6386 1.378 . S
C6379 C6378 1.367 . S
C6379 C6387 1.433 . S
C6380 H6376 0.929 . S
C6380 C6382 1.378 . S
C6380 C6384 1.350 . S
C6381 C6384 1.463 . S
C6381 C6386 1.350 . S
C6381 N6389 1.427 . S
C6382 H6373 0.930 . S
C6382 C6380 1.378 . S
C6382 C6383 1.367 . S
C6383 C6382 1.367 . S
C6383 C6385 1.433 . S
C6384 C6380 1.350 . S
C6384 C6381 1.463 . S
C6384 N6388 1.427 . S
C6385 H6375 0.929 . S
C6385 C6383 1.433 . S
C6385 N6388 1.384 . S
C6386 H6377 0.929 . S
C6386 C6378 1.378 . S
C6386 C6381 1.350 . S
C6387 H6374 0.929 . S
C6387 C6379 1.433 . S
C6387 N6389 1.384 . S
N6388 C6384 1.427 . S
N6388 C6385 1.384 . S
N6389 C6381 1.427 . S
N6389 C6387 1.384 . S
H6390 C6396 0.930 . S
H6391 C6400 0.930 . S
H6392 C6405 0.929 . S
H6393 C6403 0.929 . S
H6394 C6398 0.929 . S
H6395 C6404 0.929 . S
C6396 H6390 0.930 . S
C6396 C6397 1.367 . S
C6396 C6404 1.378 . S
C6397 C6396 1.367 . S
C6397 C6405 1.433 . S
C6398 H6394 0.929 . S
C6398 C6400 1.378 . S
C6398 C6402 1.350 . S
C6399 C6402 1.463 . S
C6399 C6404 1.350 . S
C6399 N6407 1.427 . S
C6400 H6391 0.930 . S
C6400 C6398 1.378 . S
C6400 C6401 1.367 . S
C6401 C6400 1.367 . S
C6401 C6403 1.433 . S
C6402 C6398 1.350 . S
C6402 C6399 1.463 . S
C6402 N6406 1.427 . S
C6403 H6393 0.929 . S
C6403 C6401 1.433 . S
C6403 N6406 1.384 . S
C6404 H6395 0.929 . S
C6404 C6396 1.378 . S
C6404 C6399 1.350 . S
C6405 H6392 0.929 . S
C6405 C6397 1.433 . S
C6405 N6407 1.384 . S
N6406 C6402 1.427 . S
N6406 C6403 1.384 . S
N6407 C6399 1.427 . S
N6407 C6405 1.384 . S
H6408 C6414 0.930 . S
H6409 C6418 0.930 . S
H6410 C6423 0.929 . S
H6411 C6421 0.929 . S
H6412 C6416 0.929 . S
H6413 C6422 0.929 . S
C6414 H6408 0.930 . S
C6414 C6415 1.367 . S
C6414 C6422 1.378 . S
C6415 C6414 1.367 . S
C6415 C6423 1.433 . S
C6416 H6412 0.929 . S
C6416 C6418 1.378 . S
C6416 C6420 1.350 . S
C6417 C6420 1.463 . S
C6417 C6422 1.350 . S
C6417 N6425 1.427 . S
C6418 H6409 0.930 . S
C6418 C6416 1.378 . S
C6418 C6419 1.367 . S
C6419 C6418 1.367 . S
C6419 C6421 1.433 . S
C6420 C6416 1.350 . S
C6420 C6417 1.463 . S
C6420 N6424 1.427 . S
C6421 H6411 0.929 . S
C6421 C6419 1.433 . S
C6421 N6424 1.384 . S
C6422 H6413 0.929 . S
C6422 C6414 1.378 . S
C6422 C6417 1.350 . S
C6423 H6410 0.929 . S
C6423 C6415 1.433 . S
C6423 N6425 1.384 . S
N6424 C6420 1.427 . S
N6424 C6421 1.384 . S
N6425 C6417 1.427 . S
N6425 C6423 1.384 . S
H6426 C6432 0.930 . S
H6427 C6436 0.930 . S
H6428 C6441 0.929 . S
H6429 C6439 0.929 . S
H6430 C6434 0.929 . S
H6431 C6440 0.929 . S
C6432 H6426 0.930 . S
C6432 C6433 1.367 . S
C6432 C6440 1.378 . S
C6433 C6432 1.367 . S
C6433 C6441 1.433 . S
C6434 H6430 0.929 . S
C6434 C6436 1.378 . S
C6434 C6438 1.350 . S
C6435 C6438 1.463 . S
C6435 C6440 1.350 . S
C6435 N6443 1.427 . S
C6436 H6427 0.930 . S
C6436 C6434 1.378 . S
C6436 C6437 1.367 . S
C6437 C6436 1.367 . S
C6437 C6439 1.433 . S
C6438 C6434 1.350 . S
C6438 C6435 1.463 . S
C6438 N6442 1.427 . S
C6439 H6429 0.929 . S
C6439 C6437 1.433 . S
C6439 N6442 1.384 . S
C6440 H6431 0.929 . S
C6440 C6432 1.378 . S
C6440 C6435 1.350 . S
C6441 H6428 0.929 . S
C6441 C6433 1.433 . S
C6441 N6443 1.384 . S
N6442 C6438 1.427 . S
N6442 C6439 1.384 . S
N6443 C6435 1.427 . S
N6443 C6441 1.384 . S
H6444 C6450 0.930 . S
H6445 C6454 0.930 . S
H6446 C6459 0.929 . S
H6447 C6457 0.929 . S
H6448 C6452 0.929 . S
H6449 C6458 0.929 . S
C6450 H6444 0.930 . S
C6450 C6451 1.367 . S
C6450 C6458 1.378 . S
C6451 C6450 1.367 . S
C6451 C6459 1.433 . S
C6452 H6448 0.929 . S
C6452 C6454 1.378 . S
C6452 C6456 1.350 . S
C6453 C6456 1.463 . S
C6453 C6458 1.350 . S
C6453 N6461 1.427 . S
C6454 H6445 0.930 . S
C6454 C6452 1.378 . S
C6454 C6455 1.367 . S
C6455 C6454 1.367 . S
C6455 C6457 1.433 . S
C6456 C6452 1.350 . S
C6456 C6453 1.463 . S
C6456 N6460 1.427 . S
C6457 H6447 0.929 . S
C6457 C6455 1.433 . S
C6457 N6460 1.384 . S
C6458 H6449 0.929 . S
C6458 C6450 1.378 . S
C6458 C6453 1.350 . S
C6459 H6446 0.929 . S
C6459 C6451 1.433 . S
C6459 N6461 1.384 . S
N6460 C6456 1.427 . S
N6460 C6457 1.384 . S
N6461 C6453 1.427 . S
N6461 C6459 1.384 . S
H6462 C6468 0.930 . S
H6463 C6472 0.930 . S
H6464 C6477 0.929 . S
H6465 C6475 0.929 . S
H6466 C6470 0.929 . S
H6467 C6476 0.929 . S
C6468 H6462 0.930 . S
C6468 C6469 1.367 . S
C6468 C6476 1.378 . S
C6469 C6468 1.367 . S
C6469 C6477 1.433 . S
C6470 H6466 0.929 . S
C6470 C6472 1.378 . S
C6470 C6474 1.350 . S
C6471 C6474 1.463 . S
C6471 C6476 1.350 . S
C6471 N6479 1.427 . S
C6472 H6463 0.930 . S
C6472 C6470 1.378 . S
C6472 C6473 1.367 . S
C6473 C6472 1.367 . S
C6473 C6475 1.433 . S
C6474 C6470 1.350 . S
C6474 C6471 1.463 . S
C6474 N6478 1.427 . S
C6475 H6465 0.929 . S
C6475 C6473 1.433 . S
C6475 N6478 1.384 . S
C6476 H6467 0.929 . S
C6476 C6468 1.378 . S
C6476 C6471 1.350 . S
C6477 H6464 0.929 . S
C6477 C6469 1.433 . S
C6477 N6479 1.384 . S
N6478 C6474 1.427 . S
N6478 C6475 1.384 . S
N6479 C6471 1.427 . S
N6479 C6477 1.384 . S
H6480 C6486 0.930 . S
H6481 C6490 0.930 . S
H6482 C6495 0.929 . S
H6483 C6493 0.929 . S
H6484 C6488 0.929 . S
H6485 C6494 0.929 . S
C6486 H6480 0.930 . S
C6486 C6487 1.367 . S
C6486 C6494 1.378 . S
C6487 C6486 1.367 . S
C6487 C6495 1.433 . S
C6488 H6484 0.929 . S
C6488 C6490 1.378 . S
C6488 C6492 1.350 . S
C6489 C6492 1.463 . S
C6489 C6494 1.350 . S
C6489 N6497 1.427 . S
C6490 H6481 0.930 . S
C6490 C6488 1.378 . S
C6490 C6491 1.367 . S
C6491 C6490 1.367 . S
C6491 C6493 1.433 . S
C6492 C6488 1.350 . S
C6492 C6489 1.463 . S
C6492 N6496 1.427 . S
C6493 H6483 0.929 . S
C6493 C6491 1.433 . S
C6493 N6496 1.384 . S
C6494 H6485 0.929 . S
C6494 C6486 1.378 . S
C6494 C6489 1.350 . S
C6495 H6482 0.929 . S
C6495 C6487 1.433 . S
C6495 N6497 1.384 . S
N6496 C6492 1.427 . S
N6496 C6493 1.384 . S
N6497 C6489 1.427 . S
N6497 C6495 1.384 . S
H6498 C6504 0.930 . S
H6499 C6508 0.930 . S
H6500 C6513 0.929 . S
H6501 C6511 0.929 . S
H6502 C6506 0.929 . S
H6503 C6512 0.929 . S
C6504 H6498 0.930 . S
C6504 C6505 1.367 . S
C6504 C6512 1.378 . S
C6505 C6504 1.367 . S
C6505 C6513 1.433 . S
C6506 H6502 0.929 . S
C6506 C6508 1.378 . S
C6506 C6510 1.350 . S
C6507 C6510 1.463 . S
C6507 C6512 1.350 . S
C6507 N6515 1.427 . S
C6508 H6499 0.930 . S
C6508 C6506 1.378 . S
C6508 C6509 1.367 . S
C6509 C6508 1.367 . S
C6509 C6511 1.433 . S
C6510 C6506 1.350 . S
C6510 C6507 1.463 . S
C6510 N6514 1.427 . S
C6511 H6501 0.929 . S
C6511 C6509 1.433 . S
C6511 N6514 1.384 . S
C6512 H6503 0.929 . S
C6512 C6504 1.378 . S
C6512 C6507 1.350 . S
C6513 H6500 0.929 . S
C6513 C6505 1.433 . S
C6513 N6515 1.384 . S
N6514 C6510 1.427 . S
N6514 C6511 1.384 . S
N6515 C6507 1.427 . S
N6515 C6513 1.384 . S
H6516 C6522 0.930 . S
H6517 C6526 0.930 . S
H6518 C6531 0.929 . S
H6519 C6529 0.929 . S
H6520 C6524 0.929 . S
H6521 C6530 0.929 . S
C6522 H6516 0.930 . S
C6522 C6523 1.367 . S
C6522 C6530 1.378 . S
C6523 C6522 1.367 . S
C6523 C6531 1.433 . S
C6524 H6520 0.929 . S
C6524 C6526 1.378 . S
C6524 C6528 1.350 . S
C6525 C6528 1.463 . S
C6525 C6530 1.350 . S
C6525 N6533 1.427 . S
C6526 H6517 0.930 . S
C6526 C6524 1.378 . S
C6526 C6527 1.367 . S
C6527 C6526 1.367 . S
C6527 C6529 1.433 . S
C6528 C6524 1.350 . S
C6528 C6525 1.463 . S
C6528 N6532 1.427 . S
C6529 H6519 0.929 . S
C6529 C6527 1.433 . S
C6529 N6532 1.384 . S
C6530 H6521 0.929 . S
C6530 C6522 1.378 . S
C6530 C6525 1.350 . S
C6531 H6518 0.929 . S
C6531 C6523 1.433 . S
C6531 N6533 1.384 . S
N6532 C6528 1.427 . S
N6532 C6529 1.384 . S
N6533 C6525 1.427 . S
N6533 C6531 1.384 . S
H6534 C6540 0.930 . S
H6535 C6544 0.930 . S
H6536 C6549 0.929 . S
H6537 C6547 0.929 . S
H6538 C6542 0.929 . S
H6539 C6548 0.929 . S
C6540 H6534 0.930 . S
C6540 C6541 1.367 . S
C6540 C6548 1.378 . S
C6541 C6540 1.367 . S
C6541 C6549 1.433 . S
C6542 H6538 0.929 . S
C6542 C6544 1.378 . S
C6542 C6546 1.350 . S
C6543 C6546 1.463 . S
C6543 C6548 1.350 . S
C6543 N6551 1.427 . S
C6544 H6535 0.930 . S
C6544 C6542 1.378 . S
C6544 C6545 1.367 . S
C6545 C6544 1.367 . S
C6545 C6547 1.433 . S
C6546 C6542 1.350 . S
C6546 C6543 1.463 . S
C6546 N6550 1.427 . S
C6547 H6537 0.929 . S
C6547 C6545 1.433 . S
C6547 N6550 1.384 . S
C6548 H6539 0.929 . S
C6548 C6540 1.378 . S
C6548 C6543 1.350 . S
C6549 H6536 0.929 . S
C6549 C6541 1.433 . S
C6549 N6551 1.384 . S
N6550 C6546 1.427 . S
N6550 C6547 1.384 . S
N6551 C6543 1.427 . S
N6551 C6549 1.384 . S
H6552 C6558 0.930 . S
H6553 C6562 0.930 . S
H6554 C6567 0.929 . S
H6555 C6565 0.929 . S
H6556 C6560 0.929 . S
H6557 C6566 0.929 . S
C6558 H6552 0.930 . S
C6558 C6559 1.367 . S
C6558 C6566 1.378 . S
C6559 C6558 1.367 . S
C6559 C6567 1.433 . S
C6560 H6556 0.929 . S
C6560 C6562 1.378 . S
C6560 C6564 1.350 . S
C6561 C6564 1.463 . S
C6561 C6566 1.350 . S
C6561 N6569 1.427 . S
C6562 H6553 0.930 . S
C6562 C6560 1.378 . S
C6562 C6563 1.367 . S
C6563 C6562 1.367 . S
C6563 C6565 1.433 . S
C6564 C6560 1.350 . S
C6564 C6561 1.463 . S
C6564 N6568 1.427 . S
C6565 H6555 0.929 . S
C6565 C6563 1.433 . S
C6565 N6568 1.384 . S
C6566 H6557 0.929 . S
C6566 C6558 1.378 . S
C6566 C6561 1.350 . S
C6567 H6554 0.929 . S
C6567 C6559 1.433 . S
C6567 N6569 1.384 . S
N6568 C6564 1.427 . S
N6568 C6565 1.384 . S
N6569 C6561 1.427 . S
N6569 C6567 1.384 . S
H6570 C6576 0.930 . S
H6571 C6580 0.930 . S
H6572 C6585 0.929 . S
H6573 C6583 0.929 . S
H6574 C6578 0.929 . S
H6575 C6584 0.929 . S
C6576 H6570 0.930 . S
C6576 C6577 1.367 . S
C6576 C6584 1.378 . S
C6577 C6576 1.367 . S
C6577 C6585 1.433 . S
C6578 H6574 0.929 . S
C6578 C6580 1.378 . S
C6578 C6582 1.350 . S
C6579 C6582 1.463 . S
C6579 C6584 1.350 . S
C6579 N6587 1.427 . S
C6580 H6571 0.930 . S
C6580 C6578 1.378 . S
C6580 C6581 1.367 . S
C6581 C6580 1.367 . S
C6581 C6583 1.433 . S
C6582 C6578 1.350 . S
C6582 C6579 1.463 . S
C6582 N6586 1.427 . S
C6583 H6573 0.929 . S
C6583 C6581 1.433 . S
C6583 N6586 1.384 . S
C6584 H6575 0.929 . S
C6584 C6576 1.378 . S
C6584 C6579 1.350 . S
C6585 H6572 0.929 . S
C6585 C6577 1.433 . S
C6585 N6587 1.384 . S
N6586 C6582 1.427 . S
N6586 C6583 1.384 . S
N6587 C6579 1.427 . S
N6587 C6585 1.384 . S
H6588 C6594 0.930 . S
H6589 C6598 0.930 . S
H6590 C6603 0.929 . S
H6591 C6601 0.929 . S
H6592 C6596 0.929 . S
H6593 C6602 0.929 . S
C6594 H6588 0.930 . S
C6594 C6595 1.367 . S
C6594 C6602 1.378 . S
C6595 C6594 1.367 . S
C6595 C6603 1.433 . S
C6596 H6592 0.929 . S
C6596 C6598 1.378 . S
C6596 C6600 1.350 . S
C6597 C6600 1.463 . S
C6597 C6602 1.350 . S
C6597 N6605 1.427 . S
C6598 H6589 0.930 . S
C6598 C6596 1.378 . S
C6598 C6599 1.367 . S
C6599 C6598 1.367 . S
C6599 C6601 1.433 . S
C6600 C6596 1.350 . S
C6600 C6597 1.463 . S
C6600 N6604 1.427 . S
C6601 H6591 0.929 . S
C6601 C6599 1.433 . S
C6601 N6604 1.384 . S
C6602 H6593 0.929 . S
C6602 C6594 1.378 . S
C6602 C6597 1.350 . S
C6603 H6590 0.929 . S
C6603 C6595 1.433 . S
C6603 N6605 1.384 . S
N6604 C6600 1.427 . S
N6604 C6601 1.384 . S
N6605 C6597 1.427 . S
N6605 C6603 1.384 . S
H6606 C6612 0.930 . S
H6607 C6616 0.930 . S
H6608 C6621 0.929 . S
H6609 C6619 0.929 . S
H6610 C6614 0.929 . S
H6611 C6620 0.929 . S
C6612 H6606 0.930 . S
C6612 C6613 1.367 . S
C6612 C6620 1.378 . S
C6613 C6612 1.367 . S
C6613 C6621 1.433 . S
C6614 H6610 0.929 . S
C6614 C6616 1.378 . S
C6614 C6618 1.350 . S
C6615 C6618 1.463 . S
C6615 C6620 1.350 . S
C6615 N6623 1.427 . S
C6616 H6607 0.930 . S
C6616 C6614 1.378 . S
C6616 C6617 1.367 . S
C6617 C6616 1.367 . S
C6617 C6619 1.433 . S
C6618 C6614 1.350 . S
C6618 C6615 1.463 . S
C6618 N6622 1.427 . S
C6619 H6609 0.929 . S
C6619 C6617 1.433 . S
C6619 N6622 1.384 . S
C6620 H6611 0.929 . S
C6620 C6612 1.378 . S
C6620 C6615 1.350 . S
C6621 H6608 0.929 . S
C6621 C6613 1.433 . S
C6621 N6623 1.384 . S
N6622 C6618 1.427 . S
N6622 C6619 1.384 . S
N6623 C6615 1.427 . S
N6623 C6621 1.384 . S
C4039 C67 3.378 . S
C4043 C403 3.376 . S
C4057 C151 3.389 . S
C4061 C487 3.383 . S
C4075 C571 3.313 . S
C4079 C231 3.353 . S
C4093 C651 3.364 . S
C4097 C319 3.325 . S
C4111 C739 3.435 . S
C4115 C823 3.440 . S
C4129 C819 3.276 . S
C4133 C903 3.272 1_545 S
C4147 C987 3.336 . S
C4151 C907 3.292 . S
C4165 C991 3.377 . S
C4169 C735 3.419 . S
C4183 C1071 3.295 . S
C4187 C315 3.295 . S
C4201 C655 3.219 . S
C4205 C2835 3.261 . S
C4219 C399 3.278 . S
C4223 C1155 3.270 1_455 S
C4237 C483 3.264 . S
C4241 C2923 3.227 . S
C4255 C147 3.296 . S
C4259 C1239 3.296 . S
C4273 C2671 3.242 . S
C4277 C63 3.288 . S
C4291 C2583 3.274 . S
C4295 C235 3.234 . S
C4309 C1652 3.385 . S
C4313 C1316 3.393 . S
C4327 C1400 3.436 . S
C4331 C1736 3.443 . S
C4345 C1502 3.348 . S
C4349 C1820 3.306 . S
C4363 C1568 3.320 . S
C4367 C1922 3.360 . S
C4381 C2090 3.424 . S
C4385 C1988 3.383 . S
C4399 C2072 3.297 . S
C4403 C2174 3.338 1_565 S
C4417 C2258 3.333 . S
C4421 C2156 3.295 . S
C4435 C2006 3.419 . S
C4439 C2240 3.382 . S
C4453 C1586 3.294 . S
C4457 C2342 3.294 . S
C4471 C3602 3.270 . S
C4475 C1904 3.233 . S
C4489 C2426 3.297 1_655 S
C4493 C1670 3.301 . S
C4507 C1754 3.242 . S
C4511 C3668 3.205 . S
C4525 C2510 3.273 . S
C4529 C1418 3.273 . S
C4543 C1334 3.296 . S
C4547 C3416 3.259 . S
C4561 C1484 3.230 . S
C4565 C3350 3.270 . S
C4579 C2755 3.374 . S
C4583 C2587 3.382 . S
C4597 C2839 3.384 . S
C4601 C1075 3.391 . S
C4615 C2667 3.351 . S
C4619 C1159 3.307 . S
C4633 C2919 3.357 . S
C4637 C1243 3.321 . S
C4651 C3007 3.376 . S
C4655 C3087 3.422 . S
C4669 C3091 3.294 . S
C4673 C3171 3.335 . S
C4687 C3255 3.335 . S
C4691 C3175 3.294 . S
C4705 C3003 3.422 . S
C4709 C3259 3.380 . S
C4723 C567 3.274 . S
C4727 C2751 3.274 . S
C4741 C3500 3.378 . S
C4745 C3332 3.387 . S
C4759 C3584 3.384 . S
C4763 C2324 3.391 . S
C4777 C2408 3.258 . S
C4781 C3434 3.299 . S
C4795 C3686 3.347 . S
C4799 C2492 3.309 . S
C4813 C3752 3.376 . S
C4817 C3854 3.419 . S
C4831 C3836 3.293 . S
C4835 C3938 3.337 . S
C4849 C3920 3.294 . S
C4853 C4022 3.336 . S
C4867 C4004 3.377 . S
C4871 C3770 3.422 . S
C4885 C3518 3.273 . S
C4889 C1838 3.273 . S
C4903 C56 0.740 . S
C4907 C1414 0.750 . S
C4921 C3418 0.810 . S
C4925 C140 0.812 . S
C4939 C242 0.759 . S
C4943 C1582 0.727 . S
C4957 C308 0.770 . S
C4961 C3346 0.755 . S
C4975 C392 0.844 . S
C4979 C1906 0.845 . S
C4993 C476 0.789 . S
C4997 C3514 0.772 . S
C5011 C560 0.776 . S
C5015 C1750 0.761 . S
C5029 C2422 0.778 . S
C5033 C662 0.757 . S
C5047 C728 0.794 . S
C5051 C3334 0.799 . S
C5065 C830 0.753 . S
C5069 C1402 0.745 . S
C5083 C896 0.813 . S
C5087 C3430 0.794 . S
C5101 C1570 0.842 . S
C5105 C980 0.804 . S
C5119 C3502 0.739 . S
C5123 C998 0.749 . S
C5137 C1738 0.704 . S
C5141 C746 0.743 . S
C5155 C812 0.818 . S
C5159 C2410 0.858 . S
C5173 C1918 0.739 . S
C5177 C914 0.762 . S
C5191 C3754 0.742 . S
C5195 C1082 0.774 . S
C5209 C2254 0.743 . S
C5213 C644 0.762 . S
C5227 C410 0.731 . S
C5231 C3766 0.728 . S
C5245 C494 0.687 . S
C5249 C2086 0.735 . S
C5263 C1166 0.765 . S
C5267 C2170 0.735 . S
C5281 C3922 0.794 . S
C5285 C1250 0.773 . S
C5299 C74 0.767 . S
C5303 C4006 0.736 . S
C5317 C224 0.783 . S
C5321 C3838 0.819 . S
C5335 C142 0.737 . S
C5339 C1327 0.748 . S
C5353 C1411 0.791 . S
C5357 C2674 0.828 . S
C5371 C1491 0.723 . S
C5375 C310 0.750 . S
C5389 C1579 0.778 . S
C5393 C2578 0.758 . S
C5407 C658 0.825 . S
C5411 C1663 0.804 . S
C5425 C2746 0.746 . S
C5429 C1747 0.764 . S
C5443 C478 0.790 . S
C5447 C1831 0.808 . S
C5461 C1911 0.767 . S
C5465 C1150 0.768 . S
C5479 C1999 0.781 . S
C5483 C2590 0.772 . S
C5497 C154 0.794 . S
C5501 C2083 0.808 . S
C5515 C2167 0.777 . S
C5519 C2662 0.787 . S
C5533 C322 0.813 . S
C5537 C2251 0.789 . S
C5551 C2758 0.761 . S
C5555 C2247 0.769 . S
C5569 C1995 0.760 . S
C5573 C490 0.730 . S
C5587 C2079 0.764 . S
C5591 C1162 0.803 . S
C5605 C646 0.758 . S
C5609 C2163 0.744 . S
C5623 C2331 0.763 . S
C5627 C3010 0.761 . S
C5641 C982 0.760 . S
C5645 C1915 0.779 . S
C5659 C2998 0.711 . S
C5663 C1659 0.733 . S
C5677 C1743 0.749 . S
C5681 C826 0.725 . S
C5695 C2415 0.735 . S
C5699 C898 0.763 . S
C5713 C3178 0.809 . S
C5717 C2499 0.778 . S
C5731 C1323 0.735 . S
C5735 C3262 0.728 . S
C5749 C3094 0.825 . S
C5753 C1495 0.791 . S
C5767 C2338 0.764 . S
C5771 C2576 0.780 . S
C5785 C1064 0.830 . S
C5789 C1486 0.818 . S
C5803 C2506 0.740 . S
C5807 C2678 0.763 . S
C5821 C1232 0.774 . S
C5825 C1330 0.787 . S
C5839 C2744 0.810 . S
C5843 C3670 0.850 . S
C5857 C1666 0.790 . S
C5861 C2828 0.777 . S
C5875 C1148 0.767 . S
C5879 C3598 0.769 . S
C5893 C1834 0.772 . S
C5897 C2930 0.740 . S
C5911 C2996 0.798 . S
C5915 C1318 0.778 . S
C5929 C3080 0.762 . S
C5933 C2326 0.788 . S
C5947 C3164 0.788 . S
C5951 C1498 0.787 . S
C5965 C2494 0.822 . S
C5969 C3248 0.830 . S
C5983 C1654 0.776 . S
C5987 C3266 0.758 . S
C6001 C3014 0.738 . S
C6005 C3586 0.774 . S
C6019 C1822 0.808 . S
C6023 C3098 0.769 . S
C6037 C3182 0.750 . S
C6041 C3682 0.755 . S
C6055 C158 0.769 . S
C6059 C1990 0.731 . S
C6073 C4018 0.788 . S
C6077 C2912 0.780 . S
C6091 C2762 0.731 . S
C6095 C2002 0.721 . S
C6109 C2846 0.695 . S
C6113 C3850 0.689 . S
C6127 C3934 0.772 . S
C6131 C578 0.754 . S
C6145 C2158 0.783 . S
C6149 C326 0.778 . S
C6163 C2594 0.750 . S
C6167 C2242 0.717 . S
C6181 C2074 0.805 . S
C6185 C2660 0.778 . S
C6199 C1066 0.778 . S
C6203 C3343 0.786 . S
C6217 C2335 0.831 . S
C6221 C238 0.818 . S
C6235 C1234 0.764 . S
C6239 C3423 0.764 . S
C6253 C2503 0.763 . S
C6257 C58 0.756 . S
C6271 C3511 0.811 . S
C6275 C2926 0.851 . S
C6289 C394 0.753 . S
C6293 C3595 0.772 . S
C6307 C2830 0.786 . S
C6311 C2419 0.808 . S
C6325 C562 0.743 . S
C6329 C3675 0.734 . S
C6343 C70 0.773 . S
C6347 C3763 0.786 . S
C6361 C3847 0.809 . S
C6365 C1078 0.796 . S
C6379 C226 0.786 . S
C6383 C3931 0.773 . S
C6397 C1246 0.819 . S
C6401 C4015 0.789 . S
C6415 C406 0.753 . S
C6419 C4011 0.741 . S
C6433 C2842 0.736 . S
C6437 C3759 0.773 . S
C6451 C3843 0.799 . S
C6455 C574 0.768 . S
C6469 C2914 0.761 . S
C6473 C3927 0.728 . S
C6487 C742 0.761 . S
C6491 C1407 0.726 . S
C6505 C3679 0.741 . S
C6509 C3250 0.745 . S
C6523 C3507 0.690 . S
C6527 C730 0.706 . S
C6541 C3082 0.691 . S
C6545 C3591 0.692 . S
C6559 C1827 0.762 . S
C6563 C3166 0.762 . S
C6577 C1575 0.783 . S
C6581 C910 0.785 . S
C6595 C994 0.748 . S
C6599 C3339 0.751 . S
C6613 C814 0.768 . S
C6617 C3427 0.756 . S
