# Generated by pormake.
# Topology uoq, (4)-cn, num edge types: 1
# Building blocks:
#     Node 0, Type 0, BuildingBlock: KUFVIS_clean_sbu_0, # of connection points: 4
#     Node 1, Type 0, BuildingBlock: KUFVIS_clean_sbu_0, # of connection points: 4
#     Node 2, Type 0, BuildingBlock: KUFVIS_clean_sbu_0, # of connection points: 4
#     Node 3, Type 0, BuildingBlock: KUFVIS_clean_sbu_0, # of connection points: 4
#     Node 4, Type 0, BuildingBlock: KUFVIS_clean_sbu_0, # of connection points: 4
#     Node 5, Type 0, BuildingBlock: KUFVIS_clean_sbu_0, # of connection points: 4
#     Node 6, Type 0, BuildingBlock: KUFVIS_clean_sbu_0, # of connection points: 4
#     Node 7, Type 0, BuildingBlock: KUFVIS_clean_sbu_0, # of connection points: 4
#     Node 8, Type 0, BuildingBlock: KUFVIS_clean_sbu_0, # of connection points: 4
#     Node 9, Type 0, BuildingBlock: KUFVIS_clean_sbu_0, # of connection points: 4
#     Node 10, Type 0, BuildingBlock: KUFVIS_clean_sbu_0, # of connection points: 4
#     Node 11, Type 0, BuildingBlock: KUFVIS_clean_sbu_0, # of connection points: 4
#     Edge 12, Type (0, 0), BuildingBlock: XIVTED_clean_linker_0, # of connection points: 2
#     Edge 13, Type (0, 0), BuildingBlock: XIVTED_clean_linker_0, # of connection points: 2
#     Edge 14, Type (0, 0), BuildingBlock: XIVTED_clean_linker_0, # of connection points: 2
#     Edge 15, Type (0, 0), BuildingBlock: XIVTED_clean_linker_0, # of connection points: 2
#     Edge 16, Type (0, 0), BuildingBlock: XIVTED_clean_linker_0, # of connection points: 2
#     Edge 17, Type (0, 0), BuildingBlock: XIVTED_clean_linker_0, # of connection points: 2
#     Edge 18, Type (0, 0), BuildingBlock: XIVTED_clean_linker_0, # of connection points: 2
#     Edge 19, Type (0, 0), BuildingBlock: XIVTED_clean_linker_0, # of connection points: 2
#     Edge 20, Type (0, 0), BuildingBlock: XIVTED_clean_linker_0, # of connection points: 2
#     Edge 21, Type (0, 0), BuildingBlock: XIVTED_clean_linker_0, # of connection points: 2
#     Edge 22, Type (0, 0), BuildingBlock: XIVTED_clean_linker_0, # of connection points: 2
#     Edge 23, Type (0, 0), BuildingBlock: XIVTED_clean_linker_0, # of connection points: 2
#     Edge 24, Type (0, 0), BuildingBlock: XIVTED_clean_linker_0, # of connection points: 2
#     Edge 25, Type (0, 0), BuildingBlock: XIVTED_clean_linker_0, # of connection points: 2
#     Edge 26, Type (0, 0), BuildingBlock: XIVTED_clean_linker_0, # of connection points: 2
#     Edge 27, Type (0, 0), BuildingBlock: XIVTED_clean_linker_0, # of connection points: 2
#     Edge 28, Type (0, 0), BuildingBlock: XIVTED_clean_linker_0, # of connection points: 2
#     Edge 29, Type (0, 0), BuildingBlock: XIVTED_clean_linker_0, # of connection points: 2
#     Edge 30, Type (0, 0), BuildingBlock: XIVTED_clean_linker_0, # of connection points: 2
#     Edge 31, Type (0, 0), BuildingBlock: XIVTED_clean_linker_0, # of connection points: 2
#     Edge 32, Type (0, 0), BuildingBlock: XIVTED_clean_linker_0, # of connection points: 2
#     Edge 33, Type (0, 0), BuildingBlock: XIVTED_clean_linker_0, # of connection points: 2
#     Edge 34, Type (0, 0), BuildingBlock: XIVTED_clean_linker_0, # of connection points: 2
#     Edge 35, Type (0, 0), BuildingBlock: XIVTED_clean_linker_0, # of connection points: 2
# Relax obj value: 0.144
# Max RMSD: 0.133
# Mean RMSD: 0.133
data_MOF--net-uoq--node1-KUFVIS_clean_sbu_0--edge1-XIVTED_clean_linker_0
_symmetry_space_group_name_H-M    P1
_symmetry_Int_Tables_number       1
_symmetry_cell_setting            triclinic
loop_
_symmetry_equiv_pos_as_xyz
'x, y, z'
_cell_length_a     59.383663
_cell_length_b     59.360452
_cell_length_c     22.4921
_cell_angle_alpha  89.988723
_cell_angle_beta   89.983329
_cell_angle_gamma 119.98653
loop_
_atom_site_label
_atom_site_type_symbol
_atom_site_fract_x
_atom_site_fract_y
_atom_site_fract_z
_atom_type_partial_charge
Mn0 Mn 0.29892 0.44719 0.25495 0.0
Mn1 Mn 0.31047 0.43563 0.39653 0.0
C2 C 0.28088 0.45709 0.3349 0.0
C3 C 0.27408 0.43513 0.16714 0.0
C4 C 0.34961 0.48099 0.32233 0.0
O5 O 0.31362 0.42242 0.2437 0.0
O6 O 0.3161 0.41358 0.34061 0.0
C7 C 0.26696 0.38158 0.40922 0.0
N8 N 0.28026 0.40653 0.42929 0.0
C9 C 0.2531 0.39559 0.5161 0.0
C10 C 0.23916 0.36971 0.49655 0.0
C11 C 0.24603 0.36272 0.44269 0.0
C12 C 0.27357 0.41356 0.48054 0.0
H13 H 0.27233 0.37614 0.36806 0.0
C14 C 0.31795 0.41021 0.28519 0.0
O15 O 0.29823 0.45355 0.16788 0.0
O16 O 0.26495 0.42224 0.21627 0.0
N17 N 0.30576 0.45568 0.4567 0.0
C18 C 0.32045 0.48166 0.46791 0.0
C19 C 0.31575 0.49197 0.51956 0.0
C20 C 0.29637 0.47541 0.5597 0.0
C21 C 0.28181 0.44869 0.54772 0.0
C22 C 0.2873 0.43955 0.49544 0.0
H23 H 0.33566 0.49441 0.43773 0.0
O24 O 0.28299 0.46807 0.2838 0.0
O25 O 0.28884 0.44039 0.33766 0.0
O26 O 0.33513 0.47699 0.27712 0.0
O27 O 0.34271 0.46619 0.36786 0.0
C28 C 0.26184 0.4308 0.58522 0.0
C29 C 0.24736 0.4043 0.5692 0.0
H30 H 0.22306 0.3551 0.52235 0.0
H31 H 0.2353 0.34282 0.4272 0.0
H32 H 0.32713 0.5126 0.52857 0.0
H33 H 0.29275 0.48344 0.59939 0.0
H34 H 0.25713 0.4373 0.62593 0.0
H35 H 0.23171 0.39084 0.59779 0.0
Mn36 Mn 0.85122 0.29975 0.58708 0.0
Mn37 Mn 0.87072 0.31001 0.73137 0.0
C38 C 0.82142 0.28227 0.66395 0.0
C39 C 0.83886 0.27394 0.50058 0.0
C40 C 0.86665 0.35015 0.65616 0.0
O41 O 0.89039 0.31265 0.57988 0.0
O42 O 0.89993 0.31785 0.678 0.0
C43 C 0.88281 0.26742 0.7413 0.0
N44 N 0.87008 0.27962 0.76166 0.0
C45 C 0.85232 0.25004 0.84419 0.0
C46 C 0.86536 0.23723 0.82431 0.0
C47 C 0.88056 0.24588 0.77245 0.0
C48 C 0.85508 0.27121 0.81094 0.0
H49 H 0.8946 0.2741 0.70163 0.0
C50 C 0.90627 0.31872 0.62351 0.0
O51 O 0.84596 0.29849 0.49845 0.0
O52 O 0.8411 0.26512 0.55159 0.0
N53 N 0.84458 0.30324 0.78961 0.0
C54 C 0.83265 0.31725 0.8018 0.0
C55 C 0.81654 0.31095 0.85202 0.0
C56 C 0.81326 0.29069 0.88981 0.0
C57 C 0.82613 0.27687 0.877 0.0
C58 C 0.8419 0.28399 0.82628 0.0
H59 H 0.83539 0.33308 0.77339 0.0
O60 O 0.81404 0.28539 0.61192 0.0
O61 O 0.84576 0.2893 0.6696 0.0
O62 O 0.85945 0.33696 0.60791 0.0
O63 O 0.8713 0.34179 0.70429 0.0
C64 C 0.82366 0.25609 0.91214 0.0
C65 C 0.83653 0.24252 0.89542 0.0
H66 H 0.86375 0.22067 0.84833 0.0
H67 H 0.89061 0.23605 0.75669 0.0
H68 H 0.80675 0.32177 0.86171 0.0
H69 H 0.80072 0.28581 0.92835 0.0
H70 H 0.81154 0.25011 0.95154 0.0
H71 H 0.83409 0.22626 0.92217 0.0
Mn72 Mn 0.55379 0.85186 0.92827 0.0
Mn73 Mn 0.56317 0.87158 0.07244 0.0
C74 C 0.54111 0.82206 0.00529 0.0
C75 C 0.56706 0.83955 0.84136 0.0
C76 C 0.51911 0.86773 0.99731 0.0
O77 O 0.58029 0.89095 0.92083 0.0
O78 O 0.58468 0.90065 0.0188 0.0
C79 C 0.61771 0.8833 0.0823 0.0
N80 N 0.5928 0.87078 0.1028 0.0
C81 C 0.60463 0.85378 0.18673 0.0
C82 C 0.63045 0.86658 0.1667 0.0
C83 C 0.63698 0.88127 0.11403 0.0
C84 C 0.58621 0.85619 0.15272 0.0
H85 H 0.62281 0.89478 0.04213 0.0
C86 C 0.5902 0.90689 0.96429 0.0
O87 O 0.54972 0.84679 0.83967 0.0
O88 O 0.57802 0.84143 0.89235 0.0
N89 N 0.54374 0.84573 0.13117 0.0
C90 C 0.51786 0.83414 0.1437 0.0
C91 C 0.50807 0.8186 0.1948 0.0
C92 C 0.52505 0.8156 0.23317 0.0
C93 C 0.55168 0.82814 0.22 0.0
C94 C 0.56029 0.84326 0.16829 0.0
H95 H 0.50478 0.83673 0.11493 0.0
O96 O 0.53067 0.81473 0.95317 0.0
O97 O 0.55866 0.84634 0.01095 0.0
O98 O 0.52506 0.86044 0.94914 0.0
O99 O 0.53209 0.87238 0.04545 0.0
C100 C 0.57001 0.82613 0.25599 0.0
C101 C 0.59642 0.83871 0.23904 0.0
H102 H 0.64541 0.86521 0.1913 0.0
H103 H 0.65685 0.89115 0.09819 0.0
H104 H 0.4875 0.80908 0.20476 0.0
H105 H 0.51743 0.80357 0.27248 0.0
H106 H 0.56394 0.81459 0.2963 0.0
H107 H 0.61024 0.8366 0.26649 0.0
Mn108 Mn 0.70124 0.55496 0.25367 0.0
Mn109 Mn 0.69108 0.56553 0.39733 0.0
C110 C 0.72008 0.54476 0.33154 0.0
C111 C 0.72545 0.56684 0.16479 0.0
C112 C 0.65168 0.51966 0.32535 0.0
O113 O 0.68697 0.58007 0.24422 0.0
O114 O 0.68205 0.58534 0.34202 0.0
C115 C 0.73226 0.62091 0.40347 0.0
N116 N 0.72087 0.59631 0.42578 0.0
C117 C 0.7501 0.61041 0.50921 0.0
C118 C 0.7621 0.63593 0.4873 0.0
C119 C 0.75324 0.64117 0.43399 0.0
C120 C 0.72955 0.59098 0.47638 0.0
H121 H 0.72535 0.62501 0.36279 0.0
C122 C 0.68065 0.59001 0.28721 0.0
O123 O 0.70119 0.54869 0.16623 0.0
O124 O 0.73503 0.5796 0.21382 0.0
N125 N 0.69886 0.54772 0.45763 0.0
C126 C 0.68549 0.52198 0.47211 0.0
C127 C 0.69196 0.51343 0.52421 0.0
C128 C 0.71169 0.53149 0.56157 0.0
C129 C 0.72481 0.55794 0.54641 0.0
C130 C 0.71758 0.56529 0.49384 0.0
H131 H 0.67001 0.50807 0.44412 0.0
O132 O 0.71696 0.53361 0.28033 0.0
O133 O 0.71238 0.56163 0.33603 0.0
O134 O 0.66479 0.52552 0.27709 0.0
O135 O 0.65977 0.53328 0.37266 0.0
C136 C 0.74489 0.57729 0.58119 0.0
C137 C 0.75773 0.60346 0.56226 0.0
H138 H 0.77817 0.65164 0.51094 0.0
H139 H 0.76244 0.6608 0.4167 0.0
H140 H 0.68167 0.49299 0.53571 0.0
H141 H 0.71667 0.52482 0.60164 0.0
H142 H 0.75091 0.57219 0.62208 0.0
H143 H 0.77347 0.61808 0.58882 0.0
Mn144 Mn 0.14803 0.70074 0.5837 0.0
Mn145 Mn 0.12849 0.68997 0.72798 0.0
C146 C 0.17785 0.71756 0.66072 0.0
C147 C 0.16055 0.72696 0.49779 0.0
C148 C 0.13159 0.64972 0.65078 0.0
O149 O 0.1089 0.68826 0.57703 0.0
O150 O 0.0995 0.68354 0.67528 0.0
C151 C 0.11815 0.73363 0.74115 0.0
N152 N 0.13019 0.72055 0.76026 0.0
C153 C 0.14856 0.74911 0.84428 0.0
C154 C 0.13619 0.76278 0.82577 0.0
C155 C 0.12105 0.75509 0.77377 0.0
C156 C 0.14516 0.72805 0.8096 0.0
H157 H 0.10645 0.72771 0.70134 0.0
C158 C 0.09318 0.68285 0.62082 0.0
O159 O 0.1532 0.70236 0.49502 0.0
O160 O 0.1585 0.73564 0.54916 0.0
N161 N 0.15451 0.69547 0.78544 0.0
C162 C 0.16595 0.68087 0.79588 0.0
C163 C 0.1821 0.68628 0.84575 0.0
C164 C 0.18591 0.70631 0.88497 0.0
C165 C 0.17356 0.72077 0.8739 0.0
C166 C 0.15776 0.71453 0.82342 0.0
H167 H 0.1628 0.66522 0.76637 0.0
O168 O 0.1852 0.71467 0.60842 0.0
O169 O 0.15357 0.71069 0.66644 0.0
O170 O 0.13943 0.66334 0.60322 0.0
O171 O 0.12677 0.65785 0.69906 0.0
C172 C 0.1766 0.74136 0.91052 0.0
C173 C 0.16431 0.75569 0.89542 0.0
H174 H 0.13832 0.7793 0.85091 0.0
H175 H 0.11156 0.76563 0.75902 0.0
H176 H 0.19149 0.67498 0.85408 0.0
H177 H 0.19846 0.7105 0.92325 0.0
H178 H 0.18875 0.74668 0.94979 0.0
H179 H 0.16724 0.77183 0.92324 0.0
Mn180 Mn 0.44604 0.14792 0.92344 0.0
Mn181 Mn 0.43581 0.12668 0.06658 0.0
C182 C 0.45881 0.17694 1.00215 0.0
C183 C 0.43334 0.16139 0.83735 0.0
C184 C 0.47964 0.13023 0.99063 0.0
O185 O 0.41914 0.10899 0.91427 0.0
O186 O 0.41358 0.09843 0.01184 0.0
C187 C 0.3819 0.11672 0.07796 0.0
N188 N 0.4068 0.12825 0.09834 0.0
C189 C 0.39587 0.14502 0.18419 0.0
C190 C 0.37005 0.13317 0.16438 0.0
C191 C 0.36308 0.11911 0.1108 0.0
C192 C 0.41382 0.14227 0.14914 0.0
H193 H 0.37648 0.10578 0.03702 0.0
C194 C 0.40834 0.09278 0.957 0.0
O195 O 0.45042 0.15382 0.83508 0.0
O196 O 0.4223 0.15921 0.88838 0.0
N197 N 0.45589 0.15177 0.12613 0.0
C198 C 0.48178 0.16277 0.13792 0.0
C199 C 0.49203 0.17781 0.18952 0.0
C200 C 0.47549 0.18095 0.22908 0.0
C201 C 0.44884 0.16907 0.21657 0.0
C202 C 0.43977 0.15441 0.16433 0.0
H203 H 0.49452 0.1601 0.10816 0.0
O204 O 0.46945 0.18474 0.95033 0.0
O205 O 0.44104 0.15269 0.00649 0.0
O206 O 0.47433 0.13863 0.9433 0.0
O207 O 0.46631 0.12499 0.0384 0.0
C208 C 0.43096 0.17136 0.25362 0.0
C209 C 0.40453 0.15955 0.23717 0.0
H210 H 0.35545 0.13484 0.18977 0.0
H211 H 0.34322 0.11 0.09507 0.0
H212 H 0.51261 0.18686 0.19894 0.0
H213 H 0.48348 0.19261 0.26877 0.0
H214 H 0.4374 0.18257 0.29432 0.0
H215 H 0.39107 0.1619 0.26542 0.0
Mn216 Mn 0.55204 0.69953 0.42441 0.0
Mn217 Mn 0.55984 0.68667 0.28108 0.0
C218 C 0.53907 0.71585 0.34629 0.0
C219 C 0.56646 0.72611 0.50954 0.0
C220 C 0.51739 0.64766 0.36185 0.0
O221 O 0.57824 0.68638 0.43131 0.0
O222 O 0.58369 0.68203 0.33318 0.0
C223 C 0.61311 0.73068 0.26129 0.0
N224 N 0.58767 0.7169 0.24487 0.0
C225 C 0.59572 0.74365 0.1582 0.0
C226 C 0.62205 0.75806 0.17399 0.0
C227 C 0.63075 0.75163 0.22595 0.0
C228 C 0.57902 0.72315 0.19547 0.0
H229 H 0.61986 0.7257 0.30102 0.0
C230 C 0.58911 0.68144 0.38784 0.0
O231 O 0.5489 0.70166 0.51282 0.0
O232 O 0.57707 0.73454 0.45787 0.0
N233 N 0.5379 0.69051 0.22462 0.0
C234 C 0.51169 0.67549 0.21732 0.0
C235 C 0.49974 0.67981 0.16818 0.0
C236 C 0.5149 0.69919 0.12654 0.0
C237 C 0.54188 0.71411 0.13449 0.0
C238 C 0.55268 0.70899 0.18441 0.0
H239 H 0.5 0.66032 0.2487 0.0
O240 O 0.52931 0.71399 0.39884 0.0
O241 O 0.55604 0.70836 0.34116 0.0
O242 O 0.52255 0.66245 0.40705 0.0
O243 O 0.53051 0.65449 0.31368 0.0
C244 C 0.55844 0.73413 0.09532 0.0
C245 C 0.58531 0.74903 0.10741 0.0
H246 H 0.63572 0.77421 0.14679 0.0
H247 H 0.65102 0.76274 0.23857 0.0
H248 H 0.47891 0.66816 0.16226 0.0
H249 H 0.5056 0.70252 0.08881 0.0
H250 H 0.55063 0.7386 0.05642 0.0
H251 H 0.59774 0.76473 0.07767 0.0
Mn252 Mn 0.85379 0.55459 0.75092 0.0
Mn253 Mn 0.87409 0.56613 0.60697 0.0
C254 C 0.82454 0.54484 0.67384 0.0
C255 C 0.84169 0.56596 0.84082 0.0
C256 C 0.86803 0.51987 0.67684 0.0
O257 O 0.89315 0.57967 0.75994 0.0
O258 O 0.90312 0.58574 0.66202 0.0
C259 C 0.88788 0.62144 0.60309 0.0
N260 N 0.87473 0.59697 0.5801 0.0
C261 C 0.85856 0.61129 0.49899 0.0
C262 C 0.87204 0.63669 0.52161 0.0
C263 C 0.88665 0.64175 0.57407 0.0
C264 C 0.86029 0.59181 0.53022 0.0
H265 H 0.89922 0.6254 0.64321 0.0
C266 C 0.90928 0.58999 0.71686 0.0
O267 O 0.84786 0.54786 0.83831 0.0
O268 O 0.8447 0.57897 0.79226 0.0
N269 N 0.84826 0.54854 0.54704 0.0
C270 C 0.83592 0.52288 0.53188 0.0
C271 C 0.82044 0.51452 0.48047 0.0
C272 C 0.81824 0.53267 0.44451 0.0
C273 C 0.83152 0.55904 0.46035 0.0
C274 C 0.84665 0.56622 0.51209 0.0
H275 H 0.83784 0.50889 0.55883 0.0
O276 O 0.81666 0.53336 0.72479 0.0
O277 O 0.84907 0.56174 0.66919 0.0
O278 O 0.86082 0.52535 0.72567 0.0
O279 O 0.87345 0.53381 0.63005 0.0
C280 C 0.83006 0.57844 0.42729 0.0
C281 C 0.84336 0.60451 0.44692 0.0
H282 H 0.87123 0.65243 0.49922 0.0
H283 H 0.89704 0.66128 0.59192 0.0
H284 H 0.81032 0.49414 0.46845 0.0
H285 H 0.80618 0.52613 0.40506 0.0
H286 H 0.81843 0.57346 0.38721 0.0
H287 H 0.84172 0.61916 0.42169 0.0
Mn288 Mn 0.29962 0.85265 0.07844 0.0
Mn289 Mn 0.31094 0.87313 0.9348 0.0
C290 C 0.28302 0.82331 1.00052 0.0
C291 C 0.27333 0.83967 0.16428 0.0
C292 C 0.35058 0.86875 0.01095 0.0
O293 O 0.31204 0.8917 0.08674 0.0
O294 O 0.31828 0.90191 0.98905 0.0
C295 C 0.26838 0.8852 0.92401 0.0
N296 N 0.28079 0.87267 0.90367 0.0
C297 C 0.2524 0.85612 0.81896 0.0
C298 C 0.23936 0.86894 0.83882 0.0
C299 C 0.24729 0.88341 0.89179 0.0
C300 C 0.27301 0.8583 0.85342 0.0
H301 H 0.27458 0.8965 0.96442 0.0
C302 C 0.31852 0.90788 0.04359 0.0
O303 O 0.2979 0.84697 0.16694 0.0
O304 O 0.26468 0.84196 0.11307 0.0
N305 N 0.30477 0.84754 0.87559 0.0
C306 C 0.31901 0.83586 0.86332 0.0
C307 C 0.31344 0.82049 0.81201 0.0
C308 C 0.2937 0.81775 0.77318 0.0
C309 C 0.27966 0.83038 0.7861 0.0
C310 C 0.28599 0.84533 0.83803 0.0
H311 H 0.33448 0.83824 0.89248 0.0
O312 O 0.28582 0.81568 0.05257 0.0
O313 O 0.28979 0.84762 0.99543 0.0
O314 O 0.33708 0.86135 0.05878 0.0
O315 O 0.34253 0.87358 0.96262 0.0
C316 C 0.25953 0.82859 0.74969 0.0
C317 C 0.24573 0.84123 0.76641 0.0
H318 H 0.2232 0.86775 0.81387 0.0
H319 H 0.23729 0.89331 0.9075 0.0
H320 H 0.32444 0.81089 0.80225 0.0
H321 H 0.28943 0.80584 0.73371 0.0
H322 H 0.25421 0.81717 0.70923 0.0
H323 H 0.22996 0.8393 0.73863 0.0
Mn324 Mn 0.44703 0.30036 0.41841 0.0
Mn325 Mn 0.439 0.31079 0.27334 0.0
C326 C 0.45954 0.28257 0.34249 0.0
C327 C 0.43321 0.27486 0.50547 0.0
C328 C 0.48289 0.3506 0.34947 0.0
O329 O 0.42086 0.31351 0.42399 0.0
O330 O 0.41769 0.31916 0.32555 0.0
C331 C 0.38413 0.26882 0.26229 0.0
N332 N 0.40916 0.28066 0.24263 0.0
C333 C 0.39734 0.2511 0.1601 0.0
C334 C 0.3714 0.23865 0.17928 0.0
C335 C 0.3648 0.24747 0.2308 0.0
C336 C 0.41579 0.27207 0.19373 0.0
H337 H 0.37899 0.27564 0.30166 0.0
C338 C 0.41173 0.31999 0.37967 0.0
O339 O 0.45067 0.2994 0.50716 0.0
O340 O 0.4223 0.26584 0.45441 0.0
N341 N 0.45837 0.30357 0.21605 0.0
C342 C 0.48437 0.31727 0.20445 0.0
C343 C 0.49424 0.31082 0.15457 0.0
C344 C 0.47724 0.29074 0.11645 0.0
C345 C 0.45051 0.27725 0.12863 0.0
C346 C 0.44181 0.28449 0.17908 0.0
H347 H 0.49748 0.33299 0.23306 0.0
O348 O 0.46977 0.2857 0.39485 0.0
O349 O 0.44244 0.28983 0.33592 0.0
O350 O 0.47628 0.33744 0.3978 0.0
O351 O 0.47032 0.34232 0.3008 0.0
C352 C 0.43217 0.2567 0.09308 0.0
C353 C 0.40565 0.24345 0.10916 0.0
H354 H 0.35642 0.22225 0.15495 0.0
H355 H 0.34484 0.23791 0.246 0.0
H356 H 0.51489 0.32139 0.14536 0.0
H357 H 0.48493 0.28575 0.07815 0.0
H358 H 0.43833 0.25064 0.05385 0.0
H359 H 0.39182 0.22736 0.08211 0.0
Mn360 Mn 0.14599 0.4464 0.75283 0.0
Mn361 Mn 0.12688 0.4352 0.6082 0.0
C362 C 0.17595 0.45669 0.677 0.0
C363 C 0.15744 0.43478 0.84317 0.0
C364 C 0.13152 0.48083 0.67855 0.0
O365 O 0.1066 0.42107 0.76008 0.0
O366 O 0.09745 0.41462 0.66182 0.0
C367 C 0.11447 0.38032 0.60287 0.0
N368 N 0.12732 0.40497 0.58077 0.0
C369 C 0.14482 0.39188 0.50002 0.0
C370 C 0.13162 0.3663 0.52165 0.0
C371 C 0.11651 0.36053 0.57351 0.0
C372 C 0.14228 0.41082 0.53156 0.0
H373 H 0.10279 0.37584 0.64256 0.0
C374 C 0.09089 0.41031 0.71649 0.0
O375 O 0.1511 0.45275 0.84043 0.0
O376 O 0.15496 0.42202 0.7945 0.0
N377 N 0.15323 0.4537 0.54977 0.0
C378 C 0.16541 0.47949 0.53591 0.0
C379 C 0.18149 0.48857 0.4855 0.0
C380 C 0.18448 0.47099 0.4492 0.0
C381 C 0.17139 0.44447 0.46372 0.0
C382 C 0.15566 0.43657 0.51456 0.0
H383 H 0.1629 0.49305 0.56314 0.0
O384 O 0.18334 0.46798 0.72826 0.0
O385 O 0.1515 0.43969 0.6714 0.0
O386 O 0.13886 0.4755 0.72736 0.0
O387 O 0.12642 0.46697 0.6317 0.0
C388 C 0.17359 0.42561 0.43022 0.0
C389 C 0.16054 0.39938 0.4487 0.0
H390 H 0.13306 0.35096 0.499 0.0
H391 H 0.10637 0.34086 0.59064 0.0
H392 H 0.19148 0.50906 0.47451 0.0
H393 H 0.19699 0.47808 0.4105 0.0
H394 H 0.18565 0.43114 0.39073 0.0
H395 H 0.1628 0.38515 0.42322 0.0
Mn396 Mn 0.69959 0.14738 0.08213 0.0
Mn397 Mn 0.68845 0.12622 0.93906 0.0
C398 C 0.7158 0.17641 0.00349 0.0
C399 C 0.72601 0.16093 0.16768 0.0
C400 C 0.64831 0.12992 0.01519 0.0
O401 O 0.68759 0.10846 0.09133 0.0
O402 O 0.68224 0.09787 0.99379 0.0
C403 C 0.73214 0.11586 0.92769 0.0
N404 N 0.71896 0.1276 0.90737 0.0
C405 C 0.74692 0.14454 0.82195 0.0
C406 C 0.7607 0.13247 0.84172 0.0
C407 C 0.75338 0.11822 0.89504 0.0
C408 C 0.72616 0.14179 0.85679 0.0
H409 H 0.72646 0.10478 0.96845 0.0
C410 C 0.68195 0.09222 0.04862 0.0
O411 O 0.70138 0.1534 0.1705 0.0
O412 O 0.73466 0.15858 0.11652 0.0
N413 N 0.69368 0.15144 0.8796 0.0
C414 C 0.67895 0.16263 0.86784 0.0
C415 C 0.68398 0.1779 0.81649 0.0
C416 C 0.70374 0.18106 0.77716 0.0
C417 C 0.71834 0.16899 0.78965 0.0
C418 C 0.71251 0.15411 0.84162 0.0
H419 H 0.66349 0.15997 0.89745 0.0
O420 O 0.71297 0.1842 0.05533 0.0
O421 O 0.70929 0.15215 0.99909 0.0
O422 O 0.66199 0.13814 0.06258 0.0
O423 O 0.65639 0.12477 0.96728 0.0
C424 C 0.73859 0.17129 0.75282 0.0
C425 C 0.75302 0.15928 0.76923 0.0
H426 H 0.77701 0.13413 0.81649 0.0
H427 H 0.76399 0.10894 0.91074 0.0
H428 H 0.67258 0.1871 0.8071 0.0
H429 H 0.70761 0.1929 0.73767 0.0
H430 H 0.74354 0.18267 0.71232 0.0
H431 H 0.76888 0.16164 0.74116 0.0
H432 H 0.36749 0.42545 0.25522 0.0
H433 H 0.35897 0.29496 0.37608 0.0
H434 H 0.29412 0.35785 0.29791 0.0
H435 H 0.42715 0.37076 0.38963 0.0
H436 H 0.33424 0.31529 0.34023 0.0
H437 H 0.38981 0.40228 0.2873 0.0
C438 C 0.35601 0.40521 0.26821 0.0
C439 C 0.32893 0.39337 0.27292 0.0
C440 C 0.35444 0.32753 0.35256 0.0
C441 C 0.35428 0.36722 0.31297 0.0
C442 C 0.36836 0.31599 0.37441 0.0
C443 C 0.39492 0.33131 0.38749 0.0
C444 C 0.36744 0.35448 0.34231 0.0
C445 C 0.40652 0.35837 0.38175 0.0
C446 C 0.36877 0.39224 0.28825 0.0
C447 C 0.31502 0.36745 0.29253 0.0
N448 N 0.39285 0.36907 0.35866 0.0
N449 N 0.32785 0.35531 0.31257 0.0
H450 H 0.93413 0.29389 0.62946 0.0
H451 H 0.05652 0.42629 0.73917 0.0
H452 H 0.94138 0.36927 0.60776 0.0
H453 H 0.06206 0.35791 0.70441 0.0
H454 H 0.01113 0.40285 0.70644 0.0
H455 H 0.97953 0.31495 0.66283 0.0
C456 C 0.94573 0.31492 0.62882 0.0
C457 C 0.93429 0.32993 0.61428 0.0
C458 C 0.02208 0.39275 0.70725 0.0
C459 C 0.98541 0.35404 0.6565 0.0
C460 C 0.04773 0.40589 0.72756 0.0
C461 C 0.06282 0.3938 0.72568 0.0
C462 C 0.01147 0.36732 0.68493 0.0
C463 C 0.05085 0.36769 0.70767 0.0
C464 C 0.97141 0.32691 0.6492 0.0
C465 C 0.94975 0.35708 0.6169 0.0
N466 N 0.02592 0.35534 0.68745 0.0
N467 N 0.97437 0.36826 0.63867 0.0
H468 H 0.64292 0.93475 0.97003 0.0
H469 H 0.63283 0.05701 0.07889 0.0
H470 H 0.57481 0.94197 0.94788 0.0
H471 H 0.70672 0.06465 0.03308 0.0
H472 H 0.61129 0.01125 0.04893 0.0
H473 H 0.66744 0.98047 1.00152 0.0
C474 C 0.63352 0.94638 0.96893 0.0
C475 C 0.60704 0.93488 0.95471 0.0
C476 C 0.63229 0.02277 0.04676 0.0
C477 C 0.63424 0.98631 0.9949 0.0
C478 C 0.64462 0.04865 0.06548 0.0
C479 C 0.67159 0.06441 0.05957 0.0
C480 C 0.6471 0.0126 0.02212 0.0
C481 C 0.68591 0.05293 0.03941 0.0
C482 C 0.64732 0.97224 0.9882 0.0
C483 C 0.5954 0.95039 0.95676 0.0
N484 N 0.67349 0.02773 0.02086 0.0
N485 N 0.60892 0.97516 0.97758 0.0
H486 H 0.70503 0.64274 0.2856 0.0
H487 H 0.57591 0.63255 0.41898 0.0
H488 H 0.62969 0.57368 0.27772 0.0
H489 H 0.64108 0.70629 0.36774 0.0
H490 H 0.59923 0.61084 0.38357 0.0
H491 H 0.68454 0.66724 0.32182 0.0
C492 C 0.68403 0.63308 0.28844 0.0
C493 C 0.66892 0.60631 0.27722 0.0
C494 C 0.60873 0.63186 0.38139 0.0
C495 C 0.64564 0.6336 0.32282 0.0
C496 C 0.59573 0.64429 0.4033 0.0
C497 C 0.60681 0.67126 0.3973 0.0
C498 C 0.63301 0.64656 0.3535 0.0
C499 C 0.63212 0.68548 0.3742 0.0
C500 C 0.67242 0.64689 0.31055 0.0
C501 C 0.64191 0.59444 0.2843 0.0
N502 N 0.64431 0.67296 0.35247 0.0
N503 N 0.63117 0.60801 0.30775 0.0
H504 H 0.93765 0.6427 0.71912 0.0
H505 H 0.05801 0.63369 0.59041 0.0
H506 H 0.94388 0.57357 0.72576 0.0
H507 H 0.06536 0.70702 0.6409 0.0
H508 H 0.01277 0.61153 0.62432 0.0
H509 H 0.98289 0.66744 0.68472 0.0
C510 C 0.94902 0.63306 0.71633 0.0
C511 C 0.93731 0.60623 0.72681 0.0
C512 C 0.02408 0.63255 0.62672 0.0
C513 C 0.9882 0.63381 0.68331 0.0
C514 C 0.04964 0.64523 0.60572 0.0
C515 C 0.06522 0.67223 0.61181 0.0
C516 C 0.01406 0.64702 0.65389 0.0
C517 C 0.05378 0.6862 0.63442 0.0
C518 C 0.97459 0.64701 0.6953 0.0
C519 C 0.95247 0.59437 0.7198 0.0
N520 N 0.02893 0.67343 0.65524 0.0
N521 N 0.97696 0.60811 0.69745 0.0
H522 H 0.29282 0.93501 0.04185 0.0
H523 H 0.42236 0.05798 0.92338 0.0
H524 H 0.36896 0.94355 0.05664 0.0
H525 H 0.35627 0.06471 0.97599 0.0
H526 H 0.39913 0.01228 0.95408 0.0
H527 H 0.31287 0.98057 0.00949 0.0
C528 C 0.31382 0.94691 0.04123 0.0
C529 C 0.32935 0.93581 0.05355 0.0
C530 C 0.38943 0.02358 0.95758 0.0
C531 C 0.35221 0.98703 0.01229 0.0
C532 C 0.40241 0.04942 0.93843 0.0
C533 C 0.391 0.06494 0.94614 0.0
C534 C 0.36484 0.0132 0.9844 0.0
C535 C 0.3655 0.0532 0.96832 0.0
C536 C 0.32521 0.97267 0.0214 0.0
C537 C 0.3564 0.95165 0.04924 0.0
N538 N 0.35331 0.02806 0.98726 0.0
N539 N 0.36696 0.9763 0.02794 0.0
H540 H 0.18389 0.47101 0.92889 0.0
H541 H 0.22742 0.3922 0.13537 0.0
H542 H 0.16337 0.39322 0.87602 0.0
H543 H 0.28072 0.47153 0.08456 0.0
H544 H 0.19715 0.39007 0.05735 0.0
H545 H 0.21213 0.46952 0.00629 0.0
C546 C 0.18486 0.45338 0.93432 0.0
C547 C 0.17116 0.43218 0.89586 0.0
C548 C 0.2156 0.4078 0.0632 0.0
C549 C 0.20345 0.43038 0.98478 0.0
C550 C 0.23288 0.40903 0.10747 0.0
C551 C 0.25676 0.43201 0.11618 0.0
C552 C 0.22188 0.42999 0.02902 0.0
C553 C 0.2627 0.45333 0.07908 0.0
C554 C 0.2012 0.45268 0.97813 0.0
C555 C 0.17355 0.40999 0.9047 0.0
N556 N 0.24525 0.45194 0.03791 0.0
N557 N 0.18929 0.40958 0.94847 0.0
H558 H 0.80443 0.22186 0.50668 0.0
H559 H 0.77781 0.19636 0.1604 0.0
H560 H 0.84073 0.28487 0.38071 0.0
H561 H 0.7156 0.15864 0.28783 0.0
H562 H 0.8068 0.22337 0.24046 0.0
H563 H 0.77758 0.19298 0.42638 0.0
C564 C 0.80712 0.22954 0.46194 0.0
C565 C 0.82498 0.25588 0.45043 0.0
C566 C 0.78687 0.20901 0.25087 0.0
C567 C 0.79436 0.22272 0.35827 0.0
C568 C 0.77033 0.19341 0.20539 0.0
C569 C 0.74419 0.1751 0.21742 0.0
C570 C 0.77747 0.20587 0.30925 0.0
C571 C 0.73558 0.17246 0.27654 0.0
C572 C 0.7916 0.21306 0.41632 0.0
C573 C 0.82728 0.26474 0.3916 0.0
N574 N 0.75221 0.18754 0.32033 0.0
N575 N 0.81228 0.24816 0.34763 0.0
H576 H 0.55816 0.84257 0.72207 0.0
H577 H 0.55986 0.71542 0.62933 0.0
H578 H 0.58483 0.80513 0.84487 0.0
H579 H 0.58275 0.77803 0.5037 0.0
H580 H 0.56326 0.74507 0.70974 0.0
H581 H 0.56139 0.81646 0.64091 0.0
C582 C 0.56494 0.82909 0.73186 0.0
C583 C 0.57141 0.82619 0.79032 0.0
C584 C 0.5678 0.75233 0.6646 0.0
C585 C 0.57433 0.79573 0.69819 0.0
C586 C 0.56588 0.73545 0.61876 0.0
C587 C 0.57125 0.7443 0.55976 0.0
C588 C 0.57429 0.77802 0.65114 0.0
C589 C 0.57873 0.77044 0.54861 0.0
C590 C 0.56678 0.81422 0.6856 0.0
C591 C 0.57989 0.80823 0.80045 0.0
N592 N 0.57962 0.78625 0.59363 0.0
N593 N 0.58072 0.79342 0.75515 0.0
H594 H 0.77219 0.60941 0.13214 0.0
H595 H 0.81412 0.52942 0.92527 0.0
H596 H 0.71803 0.53027 0.08183 0.0
H597 H 0.83629 0.60781 0.87385 0.0
H598 H 0.78575 0.53112 1.0021 0.0
H599 H 0.80212 0.6111 0.05376 0.0
C600 C 0.76646 0.59253 0.10423 0.0
C601 C 0.74244 0.56973 0.11323 0.0
C602 C 0.79705 0.54803 0.97436 0.0
C603 C 0.77695 0.57124 0.0256 0.0
C604 C 0.81347 0.5472 0.93088 0.0
C605 C 0.8277 0.56854 0.89303 0.0
C606 C 0.79526 0.57058 0.98132 0.0
C607 C 0.8257 0.59094 0.90207 0.0
C608 C 0.78355 0.59351 0.05974 0.0
C609 C 0.73616 0.54835 0.07611 0.0
N610 N 0.80989 0.59146 0.94555 0.0
N611 N 0.75344 0.54948 0.03472 0.0
H612 H 0.19553 0.77891 0.50439 0.0
H613 H 0.22133 0.80488 0.15772 0.0
H614 H 0.15811 0.71639 0.37768 0.0
H615 H 0.28395 0.84185 0.2843 0.0
H616 H 0.19235 0.77808 0.23807 0.0
H617 H 0.22236 0.80786 0.42404 0.0
C618 C 0.19259 0.77136 0.45949 0.0
C619 C 0.17443 0.74514 0.44778 0.0
C620 C 0.21237 0.79224 0.24824 0.0
C621 C 0.20501 0.77837 0.35557 0.0
C622 C 0.2289 0.80772 0.20259 0.0
C623 C 0.25516 0.82575 0.21427 0.0
C624 C 0.22189 0.79521 0.30646 0.0
C625 C 0.26388 0.82825 0.27326 0.0
C626 C 0.20809 0.78787 0.41384 0.0
C627 C 0.17181 0.73643 0.38874 0.0
N628 N 0.24726 0.81328 0.31723 0.0
N629 N 0.1868 0.75304 0.34477 0.0
H630 H 0.44127 0.1581 0.71767 0.0
H631 H 0.4418 0.28658 0.62489 0.0
H632 H 0.41724 0.19714 0.84246 0.0
H633 H 0.41602 0.22278 0.50156 0.0
H634 H 0.43891 0.25727 0.70581 0.0
H635 H 0.4382 0.18455 0.63711 0.0
C636 C 0.43513 0.17204 0.72804 0.0
C637 C 0.42929 0.17523 0.78686 0.0
C638 C 0.43365 0.2497 0.66105 0.0
C639 C 0.42659 0.20611 0.69534 0.0
C640 C 0.43527 0.26638 0.61493 0.0
C641 C 0.42893 0.2571 0.5564 0.0
C642 C 0.42647 0.22376 0.64828 0.0
C643 C 0.42082 0.23074 0.54606 0.0
C644 C 0.43338 0.18711 0.68212 0.0
C645 C 0.42164 0.19379 0.79773 0.0
N646 N 0.42021 0.21514 0.59124 0.0
N647 N 0.42089 0.20877 0.75268 0.0
H648 H 0.17979 0.41696 0.63222 0.0
H649 H 0.28705 0.50133 0.38821 0.0
H650 H 0.21552 0.50041 0.62517 0.0
H651 H 0.23911 0.41786 0.38712 0.0
H652 H 0.2635 0.50298 0.47697 0.0
H653 H 0.20635 0.4183 0.54863 0.0
C654 C 0.19353 0.43562 0.61304 0.0
C655 C 0.19493 0.4585 0.63331 0.0
C656 C 0.25815 0.48436 0.45707 0.0
C657 C 0.22546 0.46038 0.53811 0.0
C658 C 0.27141 0.48346 0.40655 0.0
C659 C 0.26547 0.45935 0.38255 0.0
C660 C 0.23891 0.46097 0.48253 0.0
C661 C 0.24477 0.43672 0.40613 0.0
C662 C 0.20869 0.43644 0.56539 0.0
C663 C 0.2136 0.48234 0.60911 0.0
N664 N 0.23246 0.43804 0.4554 0.0
N665 N 0.22798 0.48269 0.56162 0.0
H666 H 0.81772 0.23909 0.70988 0.0
H667 H 0.70931 0.21471 0.95159 0.0
H668 H 0.78187 0.28673 0.71562 0.0
H669 H 0.75868 0.18076 0.9539 0.0
H670 H 0.73341 0.24086 0.86417 0.0
H671 H 0.79155 0.21437 0.79412 0.0
C672 C 0.80401 0.24409 0.7289 0.0
C673 C 0.80247 0.2654 0.70799 0.0
C674 C 0.73899 0.22779 0.88421 0.0
C675 C 0.77224 0.23719 0.80394 0.0
C676 C 0.72542 0.21309 0.93396 0.0
C677 C 0.7316 0.19505 0.95773 0.0
C678 C 0.75873 0.22425 0.85938 0.0
C679 C 0.75285 0.19386 0.93504 0.0
C680 C 0.78906 0.23002 0.77696 0.0
C681 C 0.78385 0.27067 0.73211 0.0
N682 N 0.76541 0.20797 0.88656 0.0
N683 N 0.76958 0.25683 0.77993 0.0
H684 H 0.49609 0.78331 0.05521 0.0
H685 H 0.57879 0.75833 0.29909 0.0
H686 H 0.57937 0.8172 0.05489 0.0
H687 H 0.4953 0.71128 0.29267 0.0
H688 H 0.57784 0.78252 0.2133 0.0
H689 H 0.49355 0.75654 0.14179 0.0
C690 C 0.51371 0.78477 0.07305 0.0
C691 C 0.53806 0.80301 0.0502 0.0
C692 C 0.55958 0.76709 0.23056 0.0
C693 C 0.53543 0.77306 0.14756 0.0
C694 C 0.56018 0.75335 0.27957 0.0
C695 C 0.53719 0.73239 0.30096 0.0
C696 C 0.53573 0.76004 0.20314 0.0
C697 C 0.51345 0.7271 0.27597 0.0
C698 C 0.5123 0.7697 0.12231 0.0
C699 C 0.56035 0.80397 0.07308 0.0
N700 N 0.51328 0.7407 0.22736 0.0
N701 N 0.55853 0.78948 0.12107 0.0
H702 H 0.71501 0.50047 0.3822 0.0
H703 H 0.82139 0.5847 0.62752 0.0
H704 H 0.76227 0.58402 0.38229 0.0
H705 H 0.78531 0.50121 0.62113 0.0
H706 H 0.79576 0.5835 0.54218 0.0
H707 H 0.73907 0.4988 0.46986 0.0
C708 C 0.73068 0.51835 0.40042 0.0
C709 C 0.73619 0.54248 0.37733 0.0
C710 C 0.79314 0.56532 0.55944 0.0
C711 C 0.76331 0.54083 0.47605 0.0
C712 C 0.80776 0.56606 0.6081 0.0
C713 C 0.80601 0.54312 0.62911 0.0
C714 C 0.77651 0.5414 0.53198 0.0
C715 C 0.78749 0.51931 0.60455 0.0
C716 C 0.74422 0.51743 0.45034 0.0
C717 C 0.75693 0.56514 0.4007 0.0
N718 N 0.77361 0.51903 0.55617 0.0
N719 N 0.76952 0.56379 0.4494 0.0
H720 H 0.18174 0.76082 0.70629 0.0
H721 H 0.28903 0.78445 0.95014 0.0
H722 H 0.21708 0.71274 0.71323 0.0
H723 H 0.24037 0.81921 0.95025 0.0
H724 H 0.26493 0.75815 0.86294 0.0
H725 H 0.20757 0.78531 0.791 0.0
C726 C 0.19529 0.75569 0.72565 0.0
C727 C 0.19678 0.73434 0.70487 0.0
C728 C 0.2595 0.77143 0.88247 0.0
C729 C 0.22663 0.76228 0.80146 0.0
C730 C 0.27306 0.78621 0.9321 0.0
C731 C 0.26711 0.80453 0.95513 0.0
C732 C 0.24 0.77517 0.85703 0.0
C733 C 0.24604 0.8059 0.93196 0.0
C734 C 0.21004 0.76961 0.77403 0.0
C735 C 0.21516 0.72886 0.72954 0.0
N736 N 0.23348 0.7917 0.8836 0.0
N737 N 0.22926 0.74258 0.77764 0.0
H738 H 0.50369 0.21492 0.05432 0.0
H739 H 0.41996 0.23956 0.29649 0.0
H740 H 0.42046 0.18143 0.05226 0.0
H741 H 0.5035 0.28636 0.29197 0.0
H742 H 0.42131 0.21474 0.21242 0.0
H743 H 0.50588 0.24079 0.14244 0.0
C744 C 0.48601 0.21335 0.07214 0.0
C745 C 0.46177 0.19552 0.04819 0.0
C746 C 0.43949 0.23021 0.22983 0.0
C747 C 0.464 0.22435 0.1474 0.0
C748 C 0.43866 0.24433 0.27784 0.0
C749 C 0.46157 0.26546 0.29902 0.0
C750 C 0.46347 0.23716 0.20312 0.0
C751 C 0.48543 0.27045 0.27529 0.0
C752 C 0.48722 0.22787 0.12231 0.0
C753 C 0.4394 0.19437 0.07118 0.0
N754 N 0.48581 0.25659 0.22745 0.0
N755 N 0.44102 0.20829 0.12007 0.0
H756 H 0.36077 0.52976 0.29124 0.0
H757 H 0.51202 0.60141 0.32566 0.0
H758 H 0.39578 0.48677 0.36091 0.0
H759 H 0.46892 0.63607 0.39649 0.0
H760 H 0.4711 0.55969 0.31631 0.0
H761 H 0.40232 0.57034 0.30521 0.0
C762 C 0.37735 0.52889 0.30851 0.0
C763 C 0.37505 0.50503 0.32474 0.0
C764 C 0.47076 0.57643 0.3344 0.0
C765 C 0.42224 0.55097 0.3402 0.0
C766 C 0.49395 0.60008 0.33981 0.0
C767 C 0.49369 0.62195 0.36252 0.0
C768 C 0.44722 0.57506 0.34966 0.0
C769 C 0.46986 0.61947 0.37965 0.0
C770 C 0.40083 0.55195 0.317 0.0
C771 C 0.39691 0.50487 0.34787 0.0
N772 N 0.44744 0.5965 0.37196 0.0
N773 N 0.41978 0.52754 0.35439 0.0
H774 H 0.87419 0.49692 0.57709 0.0
H775 H 0.87464 0.38064 0.75393 0.0
H776 H 0.8649 0.48735 0.76757 0.0
H777 H 0.86316 0.37896 0.56391 0.0
H778 H 0.87605 0.42222 0.75868 0.0
H779 H 0.87497 0.45629 0.57097 0.0
C780 C 0.87241 0.48638 0.61775 0.0
C781 C 0.86941 0.49564 0.67304 0.0
C782 C 0.87325 0.4128 0.71592 0.0
C783 C 0.87039 0.44903 0.66604 0.0
C784 C 0.87253 0.38902 0.71299 0.0
C785 C 0.86869 0.3761 0.65832 0.0
C786 C 0.87034 0.42404 0.66381 0.0
C787 C 0.86608 0.3881 0.60703 0.0
C788 C 0.87277 0.4631 0.61406 0.0
C789 C 0.86716 0.481 0.72399 0.0
N790 N 0.86697 0.41143 0.61103 0.0
N791 N 0.86775 0.45846 0.71925 0.0
H792 H 0.49607 0.87512 0.09507 0.0
H793 H 0.38155 0.87683 0.91394 0.0
H794 H 0.48751 0.86507 0.90457 0.0
H795 H 0.37881 0.86494 0.10396 0.0
H796 H 0.42298 0.87784 0.91033 0.0
H797 H 0.45589 0.87665 0.09906 0.0
C798 C 0.48586 0.87336 0.0539 0.0
C799 C 0.49527 0.86988 0.99927 0.0
C800 C 0.41334 0.87504 0.95282 0.0
C801 C 0.44908 0.87171 0.0039 0.0
C802 C 0.38966 0.87455 0.95512 0.0
C803 C 0.37648 0.8707 0.00947 0.0
C804 C 0.42422 0.87192 0.00525 0.0
C805 C 0.38815 0.86788 0.06108 0.0
C806 C 0.46282 0.87414 0.0564 0.0
C807 C 0.48103 0.8677 0.94766 0.0
N808 N 0.41137 0.86857 0.05769 0.0
N809 N 0.45867 0.86869 0.95125 0.0
H810 H 0.62329 0.48757 0.23316 0.0
H811 H 0.51423 0.37909 0.44302 0.0
H812 H 0.62171 0.49616 0.42361 0.0
H813 H 0.50682 0.38091 0.25221 0.0
H814 H 0.55492 0.4208 0.43737 0.0
H815 H 0.58172 0.44697 0.23968 0.0
C816 C 0.61423 0.48099 0.2763 0.0
C817 C 0.6261 0.49538 0.32786 0.0
C818 C 0.54426 0.41205 0.39685 0.0
C819 C 0.57855 0.44879 0.33567 0.0
C820 C 0.52105 0.38823 0.40004 0.0
C821 C 0.507 0.37637 0.34808 0.0
C822 C 0.55362 0.42396 0.34128 0.0
C823 C 0.51686 0.38922 0.29358 0.0
C824 C 0.59046 0.45782 0.27999 0.0
C825 C 0.61334 0.48582 0.38257 0.0
N826 N 0.53957 0.41218 0.29163 0.0
N827 N 0.59036 0.46309 0.38505 0.0
H828 H 0.13606 0.62179 0.55793 0.0
H829 H 0.13304 0.51229 0.76986 0.0
H830 H 0.12201 0.61806 0.74716 0.0
H831 H 0.1259 0.50422 0.57886 0.0
H832 H 0.13145 0.55252 0.76201 0.0
H833 H 0.13458 0.57984 0.56406 0.0
C834 C 0.13254 0.61217 0.60063 0.0
C835 C 0.12923 0.62362 0.65207 0.0
C836 C 0.13011 0.54186 0.72185 0.0
C837 C 0.12777 0.57577 0.65942 0.0
C838 C 0.13109 0.51891 0.72629 0.0
C839 C 0.12964 0.50479 0.67499 0.0
C840 C 0.12797 0.55099 0.66566 0.0
C841 C 0.12705 0.51437 0.61971 0.0
C842 C 0.13168 0.58821 0.60408 0.0
C843 C 0.1247 0.61013 0.7062 0.0
N844 N 0.12647 0.53694 0.6165 0.0
N845 N 0.1243 0.58709 0.70847 0.0
H846 H 0.61983 0.1334 0.10799 0.0
H847 H 0.5117 0.13385 0.89799 0.0
H848 H 0.61722 0.12125 0.91813 0.0
H849 H 0.50182 0.12119 0.08769 0.0
H850 H 0.55195 0.13207 0.90438 0.0
H851 H 0.57785 0.13176 0.10168 0.0
C852 C 0.61045 0.13028 0.06509 0.0
C853 C 0.62221 0.12752 0.01358 0.0
C854 C 0.54084 0.12954 0.94448 0.0
C855 C 0.57432 0.1259 0.00597 0.0
C856 C 0.51787 0.13059 0.94087 0.0
C857 C 0.50328 0.12773 0.99231 0.0
C858 C 0.54947 0.12595 1.00001 0.0
C859 C 0.51232 0.12351 0.04671 0.0
C860 C 0.58647 0.12931 0.06152 0.0
C861 C 0.60902 0.1235 0.95916 0.0
N862 N 0.53488 0.12296 0.04916 0.0
N863 N 0.58594 0.12301 0.95676 0.0
loop_
_geom_bond_atom_site_label_1
_geom_bond_atom_site_label_2
_geom_bond_distance
_geom_bond_site_symmetry_2
_ccdc_geom_bond_type
Mn0 O5 2.095 . S
Mn0 O15 2.162 . S
Mn0 O16 2.297 . S
Mn0 O24 2.385 . S
Mn0 O25 2.209 . S
Mn0 O26 2.094 . S
Mn1 O6 2.121 . S
Mn1 N8 2.257 . S
Mn1 N17 2.282 . S
Mn1 O25 2.215 . S
Mn1 O27 2.117 . S
C2 O24 1.234 . S
C2 O25 1.283 . S
C3 O15 1.281 . S
C3 O16 1.236 . S
C4 O26 1.240 . S
C4 O27 1.264 . S
O5 Mn0 2.095 . S
O5 C14 1.250 . S
O6 Mn1 2.121 . S
O6 C14 1.258 . S
C7 N8 1.326 . S
C7 C11 1.460 . S
C7 H13 0.929 . S
N8 Mn1 2.257 . S
N8 C7 1.326 . S
N8 C12 1.362 . S
C9 C10 1.258 . S
C9 C12 1.431 . S
C9 C29 1.449 . S
C10 C9 1.258 . S
C10 C11 1.477 . S
C10 H30 0.931 . S
C11 C7 1.460 . S
C11 C10 1.477 . S
C11 H31 0.930 . S
C12 N8 1.362 . S
C12 C9 1.431 . S
C12 C22 1.476 . S
H13 C7 0.929 . S
C14 O5 1.250 . S
C14 O6 1.258 . S
O15 Mn0 2.162 . S
O15 C3 1.281 . S
O16 Mn0 2.297 . S
O16 C3 1.236 . S
N17 Mn1 2.282 . S
N17 C18 1.328 . S
N17 C22 1.318 . S
C18 N17 1.328 . S
C18 C19 1.457 . S
C18 H23 0.929 . S
C19 C18 1.457 . S
C19 C20 1.291 . S
C19 H32 0.931 . S
C20 C19 1.291 . S
C20 C21 1.373 . S
C20 H33 0.929 . S
C21 C20 1.373 . S
C21 C22 1.396 . S
C21 C28 1.403 . S
C22 C12 1.476 . S
C22 N17 1.318 . S
C22 C21 1.396 . S
H23 C18 0.929 . S
O24 Mn0 2.385 . S
O24 C2 1.234 . S
O25 Mn0 2.209 . S
O25 Mn1 2.215 . S
O25 C2 1.283 . S
O26 Mn0 2.094 . S
O26 C4 1.240 . S
O27 Mn1 2.117 . S
O27 C4 1.264 . S
C28 C21 1.403 . S
C28 C29 1.399 . S
C28 H34 0.929 . S
C29 C9 1.449 . S
C29 C28 1.399 . S
C29 H35 0.930 . S
H30 C10 0.931 . S
H31 C11 0.930 . S
H32 C19 0.931 . S
H33 C20 0.929 . S
H34 C28 0.929 . S
H35 C29 0.930 . S
Mn36 O41 2.095 . S
Mn36 O51 2.162 . S
Mn36 O52 2.297 . S
Mn36 O60 2.385 . S
Mn36 O61 2.209 . S
Mn36 O62 2.094 . S
Mn37 O42 2.121 . S
Mn37 N44 2.257 . S
Mn37 N53 2.282 . S
Mn37 O61 2.215 . S
Mn37 O63 2.117 . S
C38 O60 1.234 . S
C38 O61 1.283 . S
C39 O51 1.281 . S
C39 O52 1.236 . S
C40 O62 1.240 . S
C40 O63 1.264 . S
O41 Mn36 2.095 . S
O41 C50 1.250 . S
O42 Mn37 2.121 . S
O42 C50 1.258 . S
C43 N44 1.326 . S
C43 C47 1.460 . S
C43 H49 0.929 . S
N44 Mn37 2.257 . S
N44 C43 1.326 . S
N44 C48 1.362 . S
C45 C46 1.258 . S
C45 C48 1.431 . S
C45 C65 1.449 . S
C46 C45 1.258 . S
C46 C47 1.477 . S
C46 H66 0.931 . S
C47 C43 1.460 . S
C47 C46 1.477 . S
C47 H67 0.930 . S
C48 N44 1.362 . S
C48 C45 1.431 . S
C48 C58 1.476 . S
H49 C43 0.929 . S
C50 O41 1.250 . S
C50 O42 1.258 . S
O51 Mn36 2.162 . S
O51 C39 1.281 . S
O52 Mn36 2.297 . S
O52 C39 1.236 . S
N53 Mn37 2.282 . S
N53 C54 1.328 . S
N53 C58 1.318 . S
C54 N53 1.328 . S
C54 C55 1.457 . S
C54 H59 0.929 . S
C55 C54 1.457 . S
C55 C56 1.291 . S
C55 H68 0.931 . S
C56 C55 1.291 . S
C56 C57 1.373 . S
C56 H69 0.929 . S
C57 C56 1.373 . S
C57 C58 1.396 . S
C57 C64 1.403 . S
C58 C48 1.476 . S
C58 N53 1.318 . S
C58 C57 1.396 . S
H59 C54 0.929 . S
O60 Mn36 2.385 . S
O60 C38 1.234 . S
O61 Mn36 2.209 . S
O61 Mn37 2.215 . S
O61 C38 1.283 . S
O62 Mn36 2.094 . S
O62 C40 1.240 . S
O63 Mn37 2.117 . S
O63 C40 1.264 . S
C64 C57 1.403 . S
C64 C65 1.399 . S
C64 H70 0.929 . S
C65 C45 1.449 . S
C65 C64 1.399 . S
C65 H71 0.930 . S
H66 C46 0.931 . S
H67 C47 0.930 . S
H68 C55 0.931 . S
H69 C56 0.929 . S
H70 C64 0.929 . S
H71 C65 0.930 . S
Mn72 O77 2.095 . S
Mn72 O87 2.162 . S
Mn72 O88 2.297 . S
Mn72 O96 2.385 . S
Mn72 O97 2.209 1_556 S
Mn72 O98 2.094 . S
Mn73 O78 2.121 . S
Mn73 N80 2.257 . S
Mn73 N89 2.282 . S
Mn73 O97 2.215 . S
Mn73 O99 2.117 . S
C74 O96 1.234 1_554 S
C74 O97 1.283 . S
C75 O87 1.281 . S
C75 O88 1.236 . S
C76 O98 1.240 . S
C76 O99 1.264 1_556 S
O77 Mn72 2.095 . S
O77 C86 1.250 . S
O78 Mn73 2.121 . S
O78 C86 1.258 1_554 S
C79 N80 1.326 . S
C79 C83 1.460 . S
C79 H85 0.929 . S
N80 Mn73 2.257 . S
N80 C79 1.326 . S
N80 C84 1.362 . S
C81 C82 1.258 . S
C81 C84 1.431 . S
C81 C101 1.449 . S
C82 C81 1.258 . S
C82 C83 1.477 . S
C82 H102 0.931 . S
C83 C79 1.460 . S
C83 C82 1.477 . S
C83 H103 0.930 . S
C84 N80 1.362 . S
C84 C81 1.431 . S
C84 C94 1.476 . S
H85 C79 0.929 . S
C86 O77 1.250 . S
C86 O78 1.258 1_556 S
O87 Mn72 2.162 . S
O87 C75 1.281 . S
O88 Mn72 2.297 . S
O88 C75 1.236 . S
N89 Mn73 2.282 . S
N89 C90 1.328 . S
N89 C94 1.318 . S
C90 N89 1.328 . S
C90 C91 1.457 . S
C90 H95 0.929 . S
C91 C90 1.457 . S
C91 C92 1.291 . S
C91 H104 0.931 . S
C92 C91 1.291 . S
C92 C93 1.373 . S
C92 H105 0.929 . S
C93 C92 1.373 . S
C93 C94 1.396 . S
C93 C100 1.403 . S
C94 C84 1.476 . S
C94 N89 1.318 . S
C94 C93 1.396 . S
H95 C90 0.929 . S
O96 Mn72 2.385 . S
O96 C74 1.234 1_556 S
O97 Mn72 2.209 1_554 S
O97 Mn73 2.215 . S
O97 C74 1.283 . S
O98 Mn72 2.094 . S
O98 C76 1.240 . S
O99 Mn73 2.117 . S
O99 C76 1.264 1_554 S
C100 C93 1.403 . S
C100 C101 1.399 . S
C100 H106 0.929 . S
C101 C81 1.449 . S
C101 C100 1.399 . S
C101 H107 0.930 . S
H102 C82 0.931 . S
H103 C83 0.930 . S
H104 C91 0.931 . S
H105 C92 0.929 . S
H106 C100 0.929 . S
H107 C101 0.930 . S
Mn108 O113 2.095 . S
Mn108 O123 2.162 . S
Mn108 O124 2.297 . S
Mn108 O132 2.385 . S
Mn108 O133 2.209 . S
Mn108 O134 2.094 . S
Mn109 O114 2.121 . S
Mn109 N116 2.257 . S
Mn109 N125 2.282 . S
Mn109 O133 2.215 . S
Mn109 O135 2.117 . S
C110 O132 1.234 . S
C110 O133 1.283 . S
C111 O123 1.281 . S
C111 O124 1.236 . S
C112 O134 1.240 . S
C112 O135 1.264 . S
O113 Mn108 2.095 . S
O113 C122 1.250 . S
O114 Mn109 2.121 . S
O114 C122 1.258 . S
C115 N116 1.326 . S
C115 C119 1.460 . S
C115 H121 0.929 . S
N116 Mn109 2.257 . S
N116 C115 1.326 . S
N116 C120 1.362 . S
C117 C118 1.258 . S
C117 C120 1.431 . S
C117 C137 1.449 . S
C118 C117 1.258 . S
C118 C119 1.477 . S
C118 H138 0.931 . S
C119 C115 1.460 . S
C119 C118 1.477 . S
C119 H139 0.930 . S
C120 N116 1.362 . S
C120 C117 1.431 . S
C120 C130 1.476 . S
H121 C115 0.929 . S
C122 O113 1.250 . S
C122 O114 1.258 . S
O123 Mn108 2.162 . S
O123 C111 1.281 . S
O124 Mn108 2.297 . S
O124 C111 1.236 . S
N125 Mn109 2.282 . S
N125 C126 1.328 . S
N125 C130 1.318 . S
C126 N125 1.328 . S
C126 C127 1.457 . S
C126 H131 0.929 . S
C127 C126 1.457 . S
C127 C128 1.291 . S
C127 H140 0.931 . S
C128 C127 1.291 . S
C128 C129 1.373 . S
C128 H141 0.929 . S
C129 C128 1.373 . S
C129 C130 1.396 . S
C129 C136 1.403 . S
C130 C120 1.476 . S
C130 N125 1.318 . S
C130 C129 1.396 . S
H131 C126 0.929 . S
O132 Mn108 2.385 . S
O132 C110 1.234 . S
O133 Mn108 2.209 . S
O133 Mn109 2.215 . S
O133 C110 1.283 . S
O134 Mn108 2.094 . S
O134 C112 1.240 . S
O135 Mn109 2.117 . S
O135 C112 1.264 . S
C136 C129 1.403 . S
C136 C137 1.399 . S
C136 H142 0.929 . S
C137 C117 1.449 . S
C137 C136 1.399 . S
C137 H143 0.930 . S
H138 C118 0.931 . S
H139 C119 0.930 . S
H140 C127 0.931 . S
H141 C128 0.929 . S
H142 C136 0.929 . S
H143 C137 0.930 . S
Mn144 O149 2.095 . S
Mn144 O159 2.162 . S
Mn144 O160 2.297 . S
Mn144 O168 2.385 . S
Mn144 O169 2.209 . S
Mn144 O170 2.094 . S
Mn145 O150 2.121 . S
Mn145 N152 2.257 . S
Mn145 N161 2.282 . S
Mn145 O169 2.215 . S
Mn145 O171 2.117 . S
C146 O168 1.234 . S
C146 O169 1.283 . S
C147 O159 1.281 . S
C147 O160 1.236 . S
C148 O170 1.240 . S
C148 O171 1.264 . S
O149 Mn144 2.095 . S
O149 C158 1.250 . S
O150 Mn145 2.121 . S
O150 C158 1.258 . S
C151 N152 1.326 . S
C151 C155 1.460 . S
C151 H157 0.929 . S
N152 Mn145 2.257 . S
N152 C151 1.326 . S
N152 C156 1.362 . S
C153 C154 1.258 . S
C153 C156 1.431 . S
C153 C173 1.449 . S
C154 C153 1.258 . S
C154 C155 1.477 . S
C154 H174 0.931 . S
C155 C151 1.460 . S
C155 C154 1.477 . S
C155 H175 0.930 . S
C156 N152 1.362 . S
C156 C153 1.431 . S
C156 C166 1.476 . S
H157 C151 0.929 . S
C158 O149 1.250 . S
C158 O150 1.258 . S
O159 Mn144 2.162 . S
O159 C147 1.281 . S
O160 Mn144 2.297 . S
O160 C147 1.236 . S
N161 Mn145 2.282 . S
N161 C162 1.328 . S
N161 C166 1.318 . S
C162 N161 1.328 . S
C162 C163 1.457 . S
C162 H167 0.929 . S
C163 C162 1.457 . S
C163 C164 1.291 . S
C163 H176 0.931 . S
C164 C163 1.291 . S
C164 C165 1.373 . S
C164 H177 0.929 . S
C165 C164 1.373 . S
C165 C166 1.396 . S
C165 C172 1.403 . S
C166 C156 1.476 . S
C166 N161 1.318 . S
C166 C165 1.396 . S
H167 C162 0.929 . S
O168 Mn144 2.385 . S
O168 C146 1.234 . S
O169 Mn144 2.209 . S
O169 Mn145 2.215 . S
O169 C146 1.283 . S
O170 Mn144 2.094 . S
O170 C148 1.240 . S
O171 Mn145 2.117 . S
O171 C148 1.264 . S
C172 C165 1.403 . S
C172 C173 1.399 . S
C172 H178 0.929 . S
C173 C153 1.449 . S
C173 C172 1.399 . S
C173 H179 0.930 . S
H174 C154 0.931 . S
H175 C155 0.930 . S
H176 C163 0.931 . S
H177 C164 0.929 . S
H178 C172 0.929 . S
H179 C173 0.930 . S
Mn180 O185 2.095 . S
Mn180 O195 2.162 . S
Mn180 O196 2.297 . S
Mn180 O204 2.385 . S
Mn180 O205 2.209 1_556 S
Mn180 O206 2.094 . S
Mn181 O186 2.121 . S
Mn181 N188 2.257 . S
Mn181 N197 2.282 . S
Mn181 O205 2.215 . S
Mn181 O207 2.117 . S
C182 O204 1.234 1_554 S
C182 O205 1.283 . S
C183 O195 1.281 . S
C183 O196 1.236 . S
C184 O206 1.240 . S
C184 O207 1.264 1_556 S
O185 Mn180 2.095 . S
O185 C194 1.250 . S
O186 Mn181 2.121 . S
O186 C194 1.258 1_554 S
C187 N188 1.326 . S
C187 C191 1.460 . S
C187 H193 0.929 . S
N188 Mn181 2.257 . S
N188 C187 1.326 . S
N188 C192 1.362 . S
C189 C190 1.258 . S
C189 C192 1.431 . S
C189 C209 1.449 . S
C190 C189 1.258 . S
C190 C191 1.477 . S
C190 H210 0.931 . S
C191 C187 1.460 . S
C191 C190 1.477 . S
C191 H211 0.930 . S
C192 N188 1.362 . S
C192 C189 1.431 . S
C192 C202 1.476 . S
H193 C187 0.929 . S
C194 O185 1.250 . S
C194 O186 1.258 1_556 S
O195 Mn180 2.162 . S
O195 C183 1.281 . S
O196 Mn180 2.297 . S
O196 C183 1.236 . S
N197 Mn181 2.282 . S
N197 C198 1.328 . S
N197 C202 1.318 . S
C198 N197 1.328 . S
C198 C199 1.457 . S
C198 H203 0.929 . S
C199 C198 1.457 . S
C199 C200 1.291 . S
C199 H212 0.931 . S
C200 C199 1.291 . S
C200 C201 1.373 . S
C200 H213 0.929 . S
C201 C200 1.373 . S
C201 C202 1.396 . S
C201 C208 1.403 . S
C202 C192 1.476 . S
C202 N197 1.318 . S
C202 C201 1.396 . S
H203 C198 0.929 . S
O204 Mn180 2.385 . S
O204 C182 1.234 1_556 S
O205 Mn180 2.209 1_554 S
O205 Mn181 2.215 . S
O205 C182 1.283 . S
O206 Mn180 2.094 . S
O206 C184 1.240 . S
O207 Mn181 2.117 . S
O207 C184 1.264 1_554 S
C208 C201 1.403 . S
C208 C209 1.399 . S
C208 H214 0.929 . S
C209 C189 1.449 . S
C209 C208 1.399 . S
C209 H215 0.930 . S
H210 C190 0.931 . S
H211 C191 0.930 . S
H212 C199 0.931 . S
H213 C200 0.929 . S
H214 C208 0.929 . S
H215 C209 0.930 . S
Mn216 O221 2.095 . S
Mn216 O231 2.162 . S
Mn216 O232 2.297 . S
Mn216 O240 2.385 . S
Mn216 O241 2.209 . S
Mn216 O242 2.094 . S
Mn217 O222 2.121 . S
Mn217 N224 2.257 . S
Mn217 N233 2.282 . S
Mn217 O241 2.215 . S
Mn217 O243 2.117 . S
C218 O240 1.234 . S
C218 O241 1.283 . S
C219 O231 1.281 . S
C219 O232 1.236 . S
C220 O242 1.240 . S
C220 O243 1.264 . S
O221 Mn216 2.095 . S
O221 C230 1.250 . S
O222 Mn217 2.121 . S
O222 C230 1.258 . S
C223 N224 1.326 . S
C223 C227 1.460 . S
C223 H229 0.929 . S
N224 Mn217 2.257 . S
N224 C223 1.326 . S
N224 C228 1.362 . S
C225 C226 1.258 . S
C225 C228 1.431 . S
C225 C245 1.449 . S
C226 C225 1.258 . S
C226 C227 1.477 . S
C226 H246 0.931 . S
C227 C223 1.460 . S
C227 C226 1.477 . S
C227 H247 0.930 . S
C228 N224 1.362 . S
C228 C225 1.431 . S
C228 C238 1.476 . S
H229 C223 0.929 . S
C230 O221 1.250 . S
C230 O222 1.258 . S
O231 Mn216 2.162 . S
O231 C219 1.281 . S
O232 Mn216 2.297 . S
O232 C219 1.236 . S
N233 Mn217 2.282 . S
N233 C234 1.328 . S
N233 C238 1.318 . S
C234 N233 1.328 . S
C234 C235 1.457 . S
C234 H239 0.929 . S
C235 C234 1.457 . S
C235 C236 1.291 . S
C235 H248 0.931 . S
C236 C235 1.291 . S
C236 C237 1.373 . S
C236 H249 0.929 . S
C237 C236 1.373 . S
C237 C238 1.396 . S
C237 C244 1.403 . S
C238 C228 1.476 . S
C238 N233 1.318 . S
C238 C237 1.396 . S
H239 C234 0.929 . S
O240 Mn216 2.385 . S
O240 C218 1.234 . S
O241 Mn216 2.209 . S
O241 Mn217 2.215 . S
O241 C218 1.283 . S
O242 Mn216 2.094 . S
O242 C220 1.240 . S
O243 Mn217 2.117 . S
O243 C220 1.264 . S
C244 C237 1.403 . S
C244 C245 1.399 . S
C244 H250 0.929 . S
C245 C225 1.449 . S
C245 C244 1.399 . S
C245 H251 0.930 . S
H246 C226 0.931 . S
H247 C227 0.930 . S
H248 C235 0.931 . S
H249 C236 0.929 . S
H250 C244 0.929 . S
H251 C245 0.930 . S
Mn252 O257 2.095 . S
Mn252 O267 2.162 . S
Mn252 O268 2.297 . S
Mn252 O276 2.385 . S
Mn252 O277 2.209 . S
Mn252 O278 2.094 . S
Mn253 O258 2.121 . S
Mn253 N260 2.257 . S
Mn253 N269 2.282 . S
Mn253 O277 2.215 . S
Mn253 O279 2.117 . S
C254 O276 1.234 . S
C254 O277 1.283 . S
C255 O267 1.281 . S
C255 O268 1.236 . S
C256 O278 1.240 . S
C256 O279 1.264 . S
O257 Mn252 2.095 . S
O257 C266 1.250 . S
O258 Mn253 2.121 . S
O258 C266 1.258 . S
C259 N260 1.326 . S
C259 C263 1.460 . S
C259 H265 0.929 . S
N260 Mn253 2.257 . S
N260 C259 1.326 . S
N260 C264 1.362 . S
C261 C262 1.258 . S
C261 C264 1.431 . S
C261 C281 1.449 . S
C262 C261 1.258 . S
C262 C263 1.477 . S
C262 H282 0.931 . S
C263 C259 1.460 . S
C263 C262 1.477 . S
C263 H283 0.930 . S
C264 N260 1.362 . S
C264 C261 1.431 . S
C264 C274 1.476 . S
H265 C259 0.929 . S
C266 O257 1.250 . S
C266 O258 1.258 . S
O267 Mn252 2.162 . S
O267 C255 1.281 . S
O268 Mn252 2.297 . S
O268 C255 1.236 . S
N269 Mn253 2.282 . S
N269 C270 1.328 . S
N269 C274 1.318 . S
C270 N269 1.328 . S
C270 C271 1.457 . S
C270 H275 0.929 . S
C271 C270 1.457 . S
C271 C272 1.291 . S
C271 H284 0.931 . S
C272 C271 1.291 . S
C272 C273 1.373 . S
C272 H285 0.929 . S
C273 C272 1.373 . S
C273 C274 1.396 . S
C273 C280 1.403 . S
C274 C264 1.476 . S
C274 N269 1.318 . S
C274 C273 1.396 . S
H275 C270 0.929 . S
O276 Mn252 2.385 . S
O276 C254 1.234 . S
O277 Mn252 2.209 . S
O277 Mn253 2.215 . S
O277 C254 1.283 . S
O278 Mn252 2.094 . S
O278 C256 1.240 . S
O279 Mn253 2.117 . S
O279 C256 1.264 . S
C280 C273 1.403 . S
C280 C281 1.399 . S
C280 H286 0.929 . S
C281 C261 1.449 . S
C281 C280 1.399 . S
C281 H287 0.930 . S
H282 C262 0.931 . S
H283 C263 0.930 . S
H284 C271 0.931 . S
H285 C272 0.929 . S
H286 C280 0.929 . S
H287 C281 0.930 . S
Mn288 O293 2.095 . S
Mn288 O303 2.162 . S
Mn288 O304 2.297 . S
Mn288 O312 2.385 . S
Mn288 O313 2.209 1_554 S
Mn288 O314 2.094 . S
Mn289 O294 2.121 . S
Mn289 N296 2.257 . S
Mn289 N305 2.282 . S
Mn289 O313 2.215 . S
Mn289 O315 2.117 . S
C290 O312 1.234 1_556 S
C290 O313 1.283 . S
C291 O303 1.281 . S
C291 O304 1.236 . S
C292 O314 1.240 . S
C292 O315 1.264 1_554 S
O293 Mn288 2.095 . S
O293 C302 1.250 . S
O294 Mn289 2.121 . S
O294 C302 1.258 1_556 S
C295 N296 1.326 . S
C295 C299 1.460 . S
C295 H301 0.929 . S
N296 Mn289 2.257 . S
N296 C295 1.326 . S
N296 C300 1.362 . S
C297 C298 1.258 . S
C297 C300 1.431 . S
C297 C317 1.449 . S
C298 C297 1.258 . S
C298 C299 1.477 . S
C298 H318 0.931 . S
C299 C295 1.460 . S
C299 C298 1.477 . S
C299 H319 0.930 . S
C300 N296 1.362 . S
C300 C297 1.431 . S
C300 C310 1.476 . S
H301 C295 0.929 . S
C302 O293 1.250 . S
C302 O294 1.258 1_554 S
O303 Mn288 2.162 . S
O303 C291 1.281 . S
O304 Mn288 2.297 . S
O304 C291 1.236 . S
N305 Mn289 2.282 . S
N305 C306 1.328 . S
N305 C310 1.318 . S
C306 N305 1.328 . S
C306 C307 1.457 . S
C306 H311 0.929 . S
C307 C306 1.457 . S
C307 C308 1.291 . S
C307 H320 0.931 . S
C308 C307 1.291 . S
C308 C309 1.373 . S
C308 H321 0.929 . S
C309 C308 1.373 . S
C309 C310 1.396 . S
C309 C316 1.403 . S
C310 C300 1.476 . S
C310 N305 1.318 . S
C310 C309 1.396 . S
H311 C306 0.929 . S
O312 Mn288 2.385 . S
O312 C290 1.234 1_554 S
O313 Mn288 2.209 1_556 S
O313 Mn289 2.215 . S
O313 C290 1.283 . S
O314 Mn288 2.094 . S
O314 C292 1.240 . S
O315 Mn289 2.117 . S
O315 C292 1.264 1_556 S
C316 C309 1.403 . S
C316 C317 1.399 . S
C316 H322 0.929 . S
C317 C297 1.449 . S
C317 C316 1.399 . S
C317 H323 0.930 . S
H318 C298 0.931 . S
H319 C299 0.930 . S
H320 C307 0.931 . S
H321 C308 0.929 . S
H322 C316 0.929 . S
H323 C317 0.930 . S
Mn324 O329 2.095 . S
Mn324 O339 2.162 . S
Mn324 O340 2.297 . S
Mn324 O348 2.385 . S
Mn324 O349 2.209 . S
Mn324 O350 2.094 . S
Mn325 O330 2.121 . S
Mn325 N332 2.257 . S
Mn325 N341 2.282 . S
Mn325 O349 2.215 . S
Mn325 O351 2.117 . S
C326 O348 1.234 . S
C326 O349 1.283 . S
C327 O339 1.281 . S
C327 O340 1.236 . S
C328 O350 1.240 . S
C328 O351 1.264 . S
O329 Mn324 2.095 . S
O329 C338 1.250 . S
O330 Mn325 2.121 . S
O330 C338 1.258 . S
C331 N332 1.326 . S
C331 C335 1.460 . S
C331 H337 0.929 . S
N332 Mn325 2.257 . S
N332 C331 1.326 . S
N332 C336 1.362 . S
C333 C334 1.258 . S
C333 C336 1.431 . S
C333 C353 1.449 . S
C334 C333 1.258 . S
C334 C335 1.477 . S
C334 H354 0.931 . S
C335 C331 1.460 . S
C335 C334 1.477 . S
C335 H355 0.930 . S
C336 N332 1.362 . S
C336 C333 1.431 . S
C336 C346 1.476 . S
H337 C331 0.929 . S
C338 O329 1.250 . S
C338 O330 1.258 . S
O339 Mn324 2.162 . S
O339 C327 1.281 . S
O340 Mn324 2.297 . S
O340 C327 1.236 . S
N341 Mn325 2.282 . S
N341 C342 1.328 . S
N341 C346 1.318 . S
C342 N341 1.328 . S
C342 C343 1.457 . S
C342 H347 0.929 . S
C343 C342 1.457 . S
C343 C344 1.291 . S
C343 H356 0.931 . S
C344 C343 1.291 . S
C344 C345 1.373 . S
C344 H357 0.929 . S
C345 C344 1.373 . S
C345 C346 1.396 . S
C345 C352 1.403 . S
C346 C336 1.476 . S
C346 N341 1.318 . S
C346 C345 1.396 . S
H347 C342 0.929 . S
O348 Mn324 2.385 . S
O348 C326 1.234 . S
O349 Mn324 2.209 . S
O349 Mn325 2.215 . S
O349 C326 1.283 . S
O350 Mn324 2.094 . S
O350 C328 1.240 . S
O351 Mn325 2.117 . S
O351 C328 1.264 . S
C352 C345 1.403 . S
C352 C353 1.399 . S
C352 H358 0.929 . S
C353 C333 1.449 . S
C353 C352 1.399 . S
C353 H359 0.930 . S
H354 C334 0.931 . S
H355 C335 0.930 . S
H356 C343 0.931 . S
H357 C344 0.929 . S
H358 C352 0.929 . S
H359 C353 0.930 . S
Mn360 O365 2.095 . S
Mn360 O375 2.162 . S
Mn360 O376 2.297 . S
Mn360 O384 2.385 . S
Mn360 O385 2.209 . S
Mn360 O386 2.094 . S
Mn361 O366 2.121 . S
Mn361 N368 2.257 . S
Mn361 N377 2.282 . S
Mn361 O385 2.215 . S
Mn361 O387 2.117 . S
C362 O384 1.234 . S
C362 O385 1.283 . S
C363 O375 1.281 . S
C363 O376 1.236 . S
C364 O386 1.240 . S
C364 O387 1.264 . S
O365 Mn360 2.095 . S
O365 C374 1.250 . S
O366 Mn361 2.121 . S
O366 C374 1.258 . S
C367 N368 1.326 . S
C367 C371 1.460 . S
C367 H373 0.929 . S
N368 Mn361 2.257 . S
N368 C367 1.326 . S
N368 C372 1.362 . S
C369 C370 1.258 . S
C369 C372 1.431 . S
C369 C389 1.449 . S
C370 C369 1.258 . S
C370 C371 1.477 . S
C370 H390 0.931 . S
C371 C367 1.460 . S
C371 C370 1.477 . S
C371 H391 0.930 . S
C372 N368 1.362 . S
C372 C369 1.431 . S
C372 C382 1.476 . S
H373 C367 0.929 . S
C374 O365 1.250 . S
C374 O366 1.258 . S
O375 Mn360 2.162 . S
O375 C363 1.281 . S
O376 Mn360 2.297 . S
O376 C363 1.236 . S
N377 Mn361 2.282 . S
N377 C378 1.328 . S
N377 C382 1.318 . S
C378 N377 1.328 . S
C378 C379 1.457 . S
C378 H383 0.929 . S
C379 C378 1.457 . S
C379 C380 1.291 . S
C379 H392 0.931 . S
C380 C379 1.291 . S
C380 C381 1.373 . S
C380 H393 0.929 . S
C381 C380 1.373 . S
C381 C382 1.396 . S
C381 C388 1.403 . S
C382 C372 1.476 . S
C382 N377 1.318 . S
C382 C381 1.396 . S
H383 C378 0.929 . S
O384 Mn360 2.385 . S
O384 C362 1.234 . S
O385 Mn360 2.209 . S
O385 Mn361 2.215 . S
O385 C362 1.283 . S
O386 Mn360 2.094 . S
O386 C364 1.240 . S
O387 Mn361 2.117 . S
O387 C364 1.264 . S
C388 C381 1.403 . S
C388 C389 1.399 . S
C388 H394 0.929 . S
C389 C369 1.449 . S
C389 C388 1.399 . S
C389 H395 0.930 . S
H390 C370 0.931 . S
H391 C371 0.930 . S
H392 C379 0.931 . S
H393 C380 0.929 . S
H394 C388 0.929 . S
H395 C389 0.930 . S
Mn396 O401 2.095 . S
Mn396 O411 2.162 . S
Mn396 O412 2.297 . S
Mn396 O420 2.385 . S
Mn396 O421 2.209 1_554 S
Mn396 O422 2.094 . S
Mn397 O402 2.121 . S
Mn397 N404 2.257 . S
Mn397 N413 2.282 . S
Mn397 O421 2.215 . S
Mn397 O423 2.117 . S
C398 O420 1.234 1_556 S
C398 O421 1.283 . S
C399 O411 1.281 . S
C399 O412 1.236 . S
C400 O422 1.240 . S
C400 O423 1.264 1_554 S
O401 Mn396 2.095 . S
O401 C410 1.250 . S
O402 Mn397 2.121 . S
O402 C410 1.258 1_556 S
C403 N404 1.326 . S
C403 C407 1.460 . S
C403 H409 0.929 . S
N404 Mn397 2.257 . S
N404 C403 1.326 . S
N404 C408 1.362 . S
C405 C406 1.258 . S
C405 C408 1.431 . S
C405 C425 1.449 . S
C406 C405 1.258 . S
C406 C407 1.477 . S
C406 H426 0.931 . S
C407 C403 1.460 . S
C407 C406 1.477 . S
C407 H427 0.930 . S
C408 N404 1.362 . S
C408 C405 1.431 . S
C408 C418 1.476 . S
H409 C403 0.929 . S
C410 O401 1.250 . S
C410 O402 1.258 1_554 S
O411 Mn396 2.162 . S
O411 C399 1.281 . S
O412 Mn396 2.297 . S
O412 C399 1.236 . S
N413 Mn397 2.282 . S
N413 C414 1.328 . S
N413 C418 1.318 . S
C414 N413 1.328 . S
C414 C415 1.457 . S
C414 H419 0.929 . S
C415 C414 1.457 . S
C415 C416 1.291 . S
C415 H428 0.931 . S
C416 C415 1.291 . S
C416 C417 1.373 . S
C416 H429 0.929 . S
C417 C416 1.373 . S
C417 C418 1.396 . S
C417 C424 1.403 . S
C418 C408 1.476 . S
C418 N413 1.318 . S
C418 C417 1.396 . S
H419 C414 0.929 . S
O420 Mn396 2.385 . S
O420 C398 1.234 1_554 S
O421 Mn396 2.209 1_556 S
O421 Mn397 2.215 . S
O421 C398 1.283 . S
O422 Mn396 2.094 . S
O422 C400 1.240 . S
O423 Mn397 2.117 . S
O423 C400 1.264 1_556 S
C424 C417 1.403 . S
C424 C425 1.399 . S
C424 H430 0.929 . S
C425 C405 1.449 . S
C425 C424 1.399 . S
C425 H431 0.930 . S
H426 C406 0.931 . S
H427 C407 0.930 . S
H428 C415 0.931 . S
H429 C416 0.929 . S
H430 C424 0.929 . S
H431 C425 0.930 . S
H432 C438 0.930 . S
H433 C442 0.930 . S
H434 C447 0.929 . S
H435 C445 0.929 . S
H436 C440 0.929 . S
H437 C446 0.929 . S
C438 H432 0.930 . S
C438 C439 1.367 . S
C438 C446 1.378 . S
C439 C438 1.367 . S
C439 C447 1.433 . S
C440 H436 0.929 . S
C440 C442 1.378 . S
C440 C444 1.350 . S
C441 C444 1.463 . S
C441 C446 1.350 . S
C441 N449 1.427 . S
C442 H433 0.930 . S
C442 C440 1.378 . S
C442 C443 1.367 . S
C443 C442 1.367 . S
C443 C445 1.433 . S
C444 C440 1.350 . S
C444 C441 1.463 . S
C444 N448 1.427 . S
C445 H435 0.929 . S
C445 C443 1.433 . S
C445 N448 1.384 . S
C446 H437 0.929 . S
C446 C438 1.378 . S
C446 C441 1.350 . S
C447 H434 0.929 . S
C447 C439 1.433 . S
C447 N449 1.384 . S
N448 C444 1.427 . S
N448 C445 1.384 . S
N449 C441 1.427 . S
N449 C447 1.384 . S
H450 C456 0.930 . S
H451 C460 0.930 . S
H452 C465 0.929 . S
H453 C463 0.929 . S
H454 C458 0.929 . S
H455 C464 0.929 . S
C456 H450 0.930 . S
C456 C457 1.367 . S
C456 C464 1.378 . S
C457 C456 1.367 . S
C457 C465 1.433 . S
C458 H454 0.929 . S
C458 C460 1.378 . S
C458 C462 1.350 . S
C459 C462 1.463 1_655 S
C459 C464 1.350 . S
C459 N467 1.427 . S
C460 H451 0.930 . S
C460 C458 1.378 . S
C460 C461 1.367 . S
C461 C460 1.367 . S
C461 C463 1.433 . S
C462 C458 1.350 . S
C462 C459 1.463 1_455 S
C462 N466 1.427 . S
C463 H453 0.929 . S
C463 C461 1.433 . S
C463 N466 1.384 . S
C464 H455 0.929 . S
C464 C456 1.378 . S
C464 C459 1.350 . S
C465 H452 0.929 . S
C465 C457 1.433 . S
C465 N467 1.384 . S
N466 C462 1.427 . S
N466 C463 1.384 . S
N467 C459 1.427 . S
N467 C465 1.384 . S
H468 C474 0.930 . S
H469 C478 0.930 . S
H470 C483 0.929 . S
H471 C481 0.929 . S
H472 C476 0.929 . S
H473 C482 0.929 . S
C474 H468 0.930 . S
C474 C475 1.367 . S
C474 C482 1.378 . S
C475 C474 1.367 . S
C475 C483 1.433 . S
C476 H472 0.929 . S
C476 C478 1.378 . S
C476 C480 1.350 . S
C477 C480 1.463 1_566 S
C477 C482 1.350 . S
C477 N485 1.427 . S
C478 H469 0.930 . S
C478 C476 1.378 . S
C478 C479 1.367 . S
C479 C478 1.367 . S
C479 C481 1.433 . S
C480 C476 1.350 . S
C480 C477 1.463 1_544 S
C480 N484 1.427 . S
C481 H471 0.929 . S
C481 C479 1.433 . S
C481 N484 1.384 . S
C482 H473 0.929 . S
C482 C474 1.378 . S
C482 C477 1.350 . S
C483 H470 0.929 . S
C483 C475 1.433 . S
C483 N485 1.384 . S
N484 C480 1.427 . S
N484 C481 1.384 . S
N485 C477 1.427 . S
N485 C483 1.384 . S
H486 C492 0.930 . S
H487 C496 0.930 . S
H488 C501 0.929 . S
H489 C499 0.929 . S
H490 C494 0.929 . S
H491 C500 0.929 . S
C492 H486 0.930 . S
C492 C493 1.367 . S
C492 C500 1.378 . S
C493 C492 1.367 . S
C493 C501 1.433 . S
C494 H490 0.929 . S
C494 C496 1.378 . S
C494 C498 1.350 . S
C495 C498 1.463 . S
C495 C500 1.350 . S
C495 N503 1.427 . S
C496 H487 0.930 . S
C496 C494 1.378 . S
C496 C497 1.367 . S
C497 C496 1.367 . S
C497 C499 1.433 . S
C498 C494 1.350 . S
C498 C495 1.463 . S
C498 N502 1.427 . S
C499 H489 0.929 . S
C499 C497 1.433 . S
C499 N502 1.384 . S
C500 H491 0.929 . S
C500 C492 1.378 . S
C500 C495 1.350 . S
C501 H488 0.929 . S
C501 C493 1.433 . S
C501 N503 1.384 . S
N502 C498 1.427 . S
N502 C499 1.384 . S
N503 C495 1.427 . S
N503 C501 1.384 . S
H504 C510 0.930 . S
H505 C514 0.930 . S
H506 C519 0.929 . S
H507 C517 0.929 . S
H508 C512 0.929 . S
H509 C518 0.929 . S
C510 H504 0.930 . S
C510 C511 1.367 . S
C510 C518 1.378 . S
C511 C510 1.367 . S
C511 C519 1.433 . S
C512 H508 0.929 . S
C512 C514 1.378 . S
C512 C516 1.350 . S
C513 C516 1.463 1_655 S
C513 C518 1.350 . S
C513 N521 1.427 . S
C514 H505 0.930 . S
C514 C512 1.378 . S
C514 C515 1.367 . S
C515 C514 1.367 . S
C515 C517 1.433 . S
C516 C512 1.350 . S
C516 C513 1.463 1_455 S
C516 N520 1.427 . S
C517 H507 0.929 . S
C517 C515 1.433 . S
C517 N520 1.384 . S
C518 H509 0.929 . S
C518 C510 1.378 . S
C518 C513 1.350 . S
C519 H506 0.929 . S
C519 C511 1.433 . S
C519 N521 1.384 . S
N520 C516 1.427 . S
N520 C517 1.384 . S
N521 C513 1.427 . S
N521 C519 1.384 . S
H522 C528 0.930 . S
H523 C532 0.930 . S
H524 C537 0.929 . S
H525 C535 0.929 . S
H526 C530 0.929 . S
H527 C536 0.929 . S
C528 H522 0.930 . S
C528 C529 1.367 . S
C528 C536 1.378 . S
C529 C528 1.367 . S
C529 C537 1.433 . S
C530 H526 0.929 . S
C530 C532 1.378 . S
C530 C534 1.350 . S
C531 C534 1.463 1_564 S
C531 C536 1.350 . S
C531 N539 1.427 1_554 S
C532 H523 0.930 . S
C532 C530 1.378 . S
C532 C533 1.367 . S
C533 C532 1.367 . S
C533 C535 1.433 . S
C534 C530 1.350 . S
C534 C531 1.463 1_546 S
C534 N538 1.427 1_556 S
C535 H525 0.929 . S
C535 C533 1.433 . S
C535 N538 1.384 1_556 S
C536 H527 0.929 . S
C536 C528 1.378 . S
C536 C531 1.350 . S
C537 H524 0.929 . S
C537 C529 1.433 . S
C537 N539 1.384 1_554 S
N538 C534 1.427 1_554 S
N538 C535 1.384 1_554 S
N539 C531 1.427 1_556 S
N539 C537 1.384 1_556 S
H540 C546 0.930 . S
H541 C550 0.930 . S
H542 C555 0.929 . S
H543 C553 0.929 . S
H544 C548 0.929 . S
H545 C554 0.929 . S
C546 H540 0.930 . S
C546 C547 1.367 . S
C546 C554 1.378 . S
C547 C546 1.367 . S
C547 C555 1.433 . S
C548 H544 0.929 . S
C548 C550 1.378 . S
C548 C552 1.350 . S
C549 C552 1.463 1_556 S
C549 C554 1.350 . S
C549 N557 1.427 . S
C550 H541 0.930 . S
C550 C548 1.378 . S
C550 C551 1.367 . S
C551 C550 1.367 . S
C551 C553 1.433 . S
C552 C548 1.350 . S
C552 C549 1.463 1_554 S
C552 N556 1.427 . S
C553 H543 0.929 . S
C553 C551 1.433 . S
C553 N556 1.384 . S
C554 H545 0.929 . S
C554 C546 1.378 . S
C554 C549 1.350 . S
C555 H542 0.929 . S
C555 C547 1.433 . S
C555 N557 1.384 . S
N556 C552 1.427 . S
N556 C553 1.384 . S
N557 C549 1.427 . S
N557 C555 1.384 . S
H558 C564 0.930 . S
H559 C568 0.930 . S
H560 C573 0.929 . S
H561 C571 0.929 . S
H562 C566 0.929 . S
H563 C572 0.929 . S
C564 H558 0.930 . S
C564 C565 1.367 . S
C564 C572 1.378 . S
C565 C564 1.367 . S
C565 C573 1.433 . S
C566 H562 0.929 . S
C566 C568 1.378 . S
C566 C570 1.350 . S
C567 C570 1.463 . S
C567 C572 1.350 . S
C567 N575 1.427 . S
C568 H559 0.930 . S
C568 C566 1.378 . S
C568 C569 1.367 . S
C569 C568 1.367 . S
C569 C571 1.433 . S
C570 C566 1.350 . S
C570 C567 1.463 . S
C570 N574 1.427 . S
C571 H561 0.929 . S
C571 C569 1.433 . S
C571 N574 1.384 . S
C572 H563 0.929 . S
C572 C564 1.378 . S
C572 C567 1.350 . S
C573 H560 0.929 . S
C573 C565 1.433 . S
C573 N575 1.384 . S
N574 C570 1.427 . S
N574 C571 1.384 . S
N575 C567 1.427 . S
N575 C573 1.384 . S
H576 C582 0.930 . S
H577 C586 0.930 . S
H578 C591 0.929 . S
H579 C589 0.929 . S
H580 C584 0.929 . S
H581 C590 0.929 . S
C582 H576 0.930 . S
C582 C583 1.367 . S
C582 C590 1.378 . S
C583 C582 1.367 . S
C583 C591 1.433 . S
C584 H580 0.929 . S
C584 C586 1.378 . S
C584 C588 1.350 . S
C585 C588 1.463 . S
C585 C590 1.350 . S
C585 N593 1.427 . S
C586 H577 0.930 . S
C586 C584 1.378 . S
C586 C587 1.367 . S
C587 C586 1.367 . S
C587 C589 1.433 . S
C588 C584 1.350 . S
C588 C585 1.463 . S
C588 N592 1.427 . S
C589 H579 0.929 . S
C589 C587 1.433 . S
C589 N592 1.384 . S
C590 H581 0.929 . S
C590 C582 1.378 . S
C590 C585 1.350 . S
C591 H578 0.929 . S
C591 C583 1.433 . S
C591 N593 1.384 . S
N592 C588 1.427 . S
N592 C589 1.384 . S
N593 C585 1.427 . S
N593 C591 1.384 . S
H594 C600 0.930 . S
H595 C604 0.930 . S
H596 C609 0.929 . S
H597 C607 0.929 . S
H598 C602 0.929 . S
H599 C608 0.929 . S
C600 H594 0.930 . S
C600 C601 1.367 . S
C600 C608 1.378 . S
C601 C600 1.367 . S
C601 C609 1.433 . S
C602 H598 0.929 . S
C602 C604 1.378 . S
C602 C606 1.350 . S
C603 C606 1.463 1_554 S
C603 C608 1.350 . S
C603 N611 1.427 . S
C604 H595 0.930 . S
C604 C602 1.378 . S
C604 C605 1.367 . S
C605 C604 1.367 . S
C605 C607 1.433 . S
C606 C602 1.350 . S
C606 C603 1.463 1_556 S
C606 N610 1.427 . S
C607 H597 0.929 . S
C607 C605 1.433 . S
C607 N610 1.384 . S
C608 H599 0.929 . S
C608 C600 1.378 . S
C608 C603 1.350 . S
C609 H596 0.929 . S
C609 C601 1.433 . S
C609 N611 1.384 . S
N610 C606 1.427 . S
N610 C607 1.384 . S
N611 C603 1.427 . S
N611 C609 1.384 . S
H612 C618 0.930 . S
H613 C622 0.930 . S
H614 C627 0.929 . S
H615 C625 0.929 . S
H616 C620 0.929 . S
H617 C626 0.929 . S
C618 H612 0.930 . S
C618 C619 1.367 . S
C618 C626 1.378 . S
C619 C618 1.367 . S
C619 C627 1.433 . S
C620 H616 0.929 . S
C620 C622 1.378 . S
C620 C624 1.350 . S
C621 C624 1.463 . S
C621 C626 1.350 . S
C621 N629 1.427 . S
C622 H613 0.930 . S
C622 C620 1.378 . S
C622 C623 1.367 . S
C623 C622 1.367 . S
C623 C625 1.433 . S
C624 C620 1.350 . S
C624 C621 1.463 . S
C624 N628 1.427 . S
C625 H615 0.929 . S
C625 C623 1.433 . S
C625 N628 1.384 . S
C626 H617 0.929 . S
C626 C618 1.378 . S
C626 C621 1.350 . S
C627 H614 0.929 . S
C627 C619 1.433 . S
C627 N629 1.384 . S
N628 C624 1.427 . S
N628 C625 1.384 . S
N629 C621 1.427 . S
N629 C627 1.384 . S
H630 C636 0.930 . S
H631 C640 0.930 . S
H632 C645 0.929 . S
H633 C643 0.929 . S
H634 C638 0.929 . S
H635 C644 0.929 . S
C636 H630 0.930 . S
C636 C637 1.367 . S
C636 C644 1.378 . S
C637 C636 1.367 . S
C637 C645 1.433 . S
C638 H634 0.929 . S
C638 C640 1.378 . S
C638 C642 1.350 . S
C639 C642 1.463 . S
C639 C644 1.350 . S
C639 N647 1.427 . S
C640 H631 0.930 . S
C640 C638 1.378 . S
C640 C641 1.367 . S
C641 C640 1.367 . S
C641 C643 1.433 . S
C642 C638 1.350 . S
C642 C639 1.463 . S
C642 N646 1.427 . S
C643 H633 0.929 . S
C643 C641 1.433 . S
C643 N646 1.384 . S
C644 H635 0.929 . S
C644 C636 1.378 . S
C644 C639 1.350 . S
C645 H632 0.929 . S
C645 C637 1.433 . S
C645 N647 1.384 . S
N646 C642 1.427 . S
N646 C643 1.384 . S
N647 C639 1.427 . S
N647 C645 1.384 . S
H648 C654 0.930 . S
H649 C658 0.930 . S
H650 C663 0.929 . S
H651 C661 0.929 . S
H652 C656 0.929 . S
H653 C662 0.929 . S
C654 H648 0.930 . S
C654 C655 1.367 . S
C654 C662 1.378 . S
C655 C654 1.367 . S
C655 C663 1.433 . S
C656 H652 0.929 . S
C656 C658 1.378 . S
C656 C660 1.350 . S
C657 C660 1.463 . S
C657 C662 1.350 . S
C657 N665 1.427 . S
C658 H649 0.930 . S
C658 C656 1.378 . S
C658 C659 1.367 . S
C659 C658 1.367 . S
C659 C661 1.433 . S
C660 C656 1.350 . S
C660 C657 1.463 . S
C660 N664 1.427 . S
C661 H651 0.929 . S
C661 C659 1.433 . S
C661 N664 1.384 . S
C662 H653 0.929 . S
C662 C654 1.378 . S
C662 C657 1.350 . S
C663 H650 0.929 . S
C663 C655 1.433 . S
C663 N665 1.384 . S
N664 C660 1.427 . S
N664 C661 1.384 . S
N665 C657 1.427 . S
N665 C663 1.384 . S
H666 C672 0.930 . S
H667 C676 0.930 . S
H668 C681 0.929 . S
H669 C679 0.929 . S
H670 C674 0.929 . S
H671 C680 0.929 . S
C672 H666 0.930 . S
C672 C673 1.367 . S
C672 C680 1.378 . S
C673 C672 1.367 . S
C673 C681 1.433 . S
C674 H670 0.929 . S
C674 C676 1.378 . S
C674 C678 1.350 . S
C675 C678 1.463 . S
C675 C680 1.350 . S
C675 N683 1.427 . S
C676 H667 0.930 . S
C676 C674 1.378 . S
C676 C677 1.367 . S
C677 C676 1.367 . S
C677 C679 1.433 . S
C678 C674 1.350 . S
C678 C675 1.463 . S
C678 N682 1.427 . S
C679 H669 0.929 . S
C679 C677 1.433 . S
C679 N682 1.384 . S
C680 H671 0.929 . S
C680 C672 1.378 . S
C680 C675 1.350 . S
C681 H668 0.929 . S
C681 C673 1.433 . S
C681 N683 1.384 . S
N682 C678 1.427 . S
N682 C679 1.384 . S
N683 C675 1.427 . S
N683 C681 1.384 . S
H684 C690 0.930 . S
H685 C694 0.930 . S
H686 C699 0.929 . S
H687 C697 0.929 . S
H688 C692 0.929 . S
H689 C698 0.929 . S
C690 H684 0.930 . S
C690 C691 1.367 . S
C690 C698 1.378 . S
C691 C690 1.367 . S
C691 C699 1.433 . S
C692 H688 0.929 . S
C692 C694 1.378 . S
C692 C696 1.350 . S
C693 C696 1.463 . S
C693 C698 1.350 . S
C693 N701 1.427 . S
C694 H685 0.930 . S
C694 C692 1.378 . S
C694 C695 1.367 . S
C695 C694 1.367 . S
C695 C697 1.433 . S
C696 C692 1.350 . S
C696 C693 1.463 . S
C696 N700 1.427 . S
C697 H687 0.929 . S
C697 C695 1.433 . S
C697 N700 1.384 . S
C698 H689 0.929 . S
C698 C690 1.378 . S
C698 C693 1.350 . S
C699 H686 0.929 . S
C699 C691 1.433 . S
C699 N701 1.384 . S
N700 C696 1.427 . S
N700 C697 1.384 . S
N701 C693 1.427 . S
N701 C699 1.384 . S
H702 C708 0.930 . S
H703 C712 0.930 . S
H704 C717 0.929 . S
H705 C715 0.929 . S
H706 C710 0.929 . S
H707 C716 0.929 . S
C708 H702 0.930 . S
C708 C709 1.367 . S
C708 C716 1.378 . S
C709 C708 1.367 . S
C709 C717 1.433 . S
C710 H706 0.929 . S
C710 C712 1.378 . S
C710 C714 1.350 . S
C711 C714 1.463 . S
C711 C716 1.350 . S
C711 N719 1.427 . S
C712 H703 0.930 . S
C712 C710 1.378 . S
C712 C713 1.367 . S
C713 C712 1.367 . S
C713 C715 1.433 . S
C714 C710 1.350 . S
C714 C711 1.463 . S
C714 N718 1.427 . S
C715 H705 0.929 . S
C715 C713 1.433 . S
C715 N718 1.384 . S
C716 H707 0.929 . S
C716 C708 1.378 . S
C716 C711 1.350 . S
C717 H704 0.929 . S
C717 C709 1.433 . S
C717 N719 1.384 . S
N718 C714 1.427 . S
N718 C715 1.384 . S
N719 C711 1.427 . S
N719 C717 1.384 . S
H720 C726 0.930 . S
H721 C730 0.930 . S
H722 C735 0.929 . S
H723 C733 0.929 . S
H724 C728 0.929 . S
H725 C734 0.929 . S
C726 H720 0.930 . S
C726 C727 1.367 . S
C726 C734 1.378 . S
C727 C726 1.367 . S
C727 C735 1.433 . S
C728 H724 0.929 . S
C728 C730 1.378 . S
C728 C732 1.350 . S
C729 C732 1.463 . S
C729 C734 1.350 . S
C729 N737 1.427 . S
C730 H721 0.930 . S
C730 C728 1.378 . S
C730 C731 1.367 . S
C731 C730 1.367 . S
C731 C733 1.433 . S
C732 C728 1.350 . S
C732 C729 1.463 . S
C732 N736 1.427 . S
C733 H723 0.929 . S
C733 C731 1.433 . S
C733 N736 1.384 . S
C734 H725 0.929 . S
C734 C726 1.378 . S
C734 C729 1.350 . S
C735 H722 0.929 . S
C735 C727 1.433 . S
C735 N737 1.384 . S
N736 C732 1.427 . S
N736 C733 1.384 . S
N737 C729 1.427 . S
N737 C735 1.384 . S
H738 C744 0.930 . S
H739 C748 0.930 . S
H740 C753 0.929 . S
H741 C751 0.929 . S
H742 C746 0.929 . S
H743 C752 0.929 . S
C744 H738 0.930 . S
C744 C745 1.367 . S
C744 C752 1.378 . S
C745 C744 1.367 . S
C745 C753 1.433 . S
C746 H742 0.929 . S
C746 C748 1.378 . S
C746 C750 1.350 . S
C747 C750 1.463 . S
C747 C752 1.350 . S
C747 N755 1.427 . S
C748 H739 0.930 . S
C748 C746 1.378 . S
C748 C749 1.367 . S
C749 C748 1.367 . S
C749 C751 1.433 . S
C750 C746 1.350 . S
C750 C747 1.463 . S
C750 N754 1.427 . S
C751 H741 0.929 . S
C751 C749 1.433 . S
C751 N754 1.384 . S
C752 H743 0.929 . S
C752 C744 1.378 . S
C752 C747 1.350 . S
C753 H740 0.929 . S
C753 C745 1.433 . S
C753 N755 1.384 . S
N754 C750 1.427 . S
N754 C751 1.384 . S
N755 C747 1.427 . S
N755 C753 1.384 . S
H756 C762 0.930 . S
H757 C766 0.930 . S
H758 C771 0.929 . S
H759 C769 0.929 . S
H760 C764 0.929 . S
H761 C770 0.929 . S
C762 H756 0.930 . S
C762 C763 1.367 . S
C762 C770 1.378 . S
C763 C762 1.367 . S
C763 C771 1.433 . S
C764 H760 0.929 . S
C764 C766 1.378 . S
C764 C768 1.350 . S
C765 C768 1.463 . S
C765 C770 1.350 . S
C765 N773 1.427 . S
C766 H757 0.930 . S
C766 C764 1.378 . S
C766 C767 1.367 . S
C767 C766 1.367 . S
C767 C769 1.433 . S
C768 C764 1.350 . S
C768 C765 1.463 . S
C768 N772 1.427 . S
C769 H759 0.929 . S
C769 C767 1.433 . S
C769 N772 1.384 . S
C770 H761 0.929 . S
C770 C762 1.378 . S
C770 C765 1.350 . S
C771 H758 0.929 . S
C771 C763 1.433 . S
C771 N773 1.384 . S
N772 C768 1.427 . S
N772 C769 1.384 . S
N773 C765 1.427 . S
N773 C771 1.384 . S
H774 C780 0.930 . S
H775 C784 0.930 . S
H776 C789 0.929 . S
H777 C787 0.929 . S
H778 C782 0.929 . S
H779 C788 0.929 . S
C780 H774 0.930 . S
C780 C781 1.367 . S
C780 C788 1.378 . S
C781 C780 1.367 . S
C781 C789 1.433 . S
C782 H778 0.929 . S
C782 C784 1.378 . S
C782 C786 1.350 . S
C783 C786 1.463 . S
C783 C788 1.350 . S
C783 N791 1.427 . S
C784 H775 0.930 . S
C784 C782 1.378 . S
C784 C785 1.367 . S
C785 C784 1.367 . S
C785 C787 1.433 . S
C786 C782 1.350 . S
C786 C783 1.463 . S
C786 N790 1.427 . S
C787 H777 0.929 . S
C787 C785 1.433 . S
C787 N790 1.384 . S
C788 H779 0.929 . S
C788 C780 1.378 . S
C788 C783 1.350 . S
C789 H776 0.929 . S
C789 C781 1.433 . S
C789 N791 1.384 . S
N790 C786 1.427 . S
N790 C787 1.384 . S
N791 C783 1.427 . S
N791 C789 1.384 . S
H792 C798 0.930 . S
H793 C802 0.930 . S
H794 C807 0.929 . S
H795 C805 0.929 . S
H796 C800 0.929 . S
H797 C806 0.929 . S
C798 H792 0.930 . S
C798 C799 1.367 1_554 S
C798 C806 1.378 . S
C799 C798 1.367 1_556 S
C799 C807 1.433 . S
C800 H796 0.929 . S
C800 C802 1.378 . S
C800 C804 1.339 1_556 S
C801 C804 1.462 1_556 S
C801 C806 1.339 1_556 S
C801 N809 1.439 . S
C802 H793 0.930 . S
C802 C800 1.378 . S
C802 C803 1.367 1_556 S
C803 C802 1.367 1_554 S
C803 C805 1.433 . S
C804 C800 1.339 1_554 S
C804 C801 1.462 1_554 S
C804 N808 1.440 . S
C805 H795 0.929 . S
C805 C803 1.433 . S
C805 N808 1.384 . S
C806 H797 0.929 . S
C806 C798 1.378 . S
C806 C801 1.339 1_554 S
C807 H794 0.929 . S
C807 C799 1.433 . S
C807 N809 1.384 . S
N808 C804 1.440 . S
N808 C805 1.384 . S
N809 C801 1.439 . S
N809 C807 1.384 . S
H810 C816 0.930 . S
H811 C820 0.930 . S
H812 C825 0.929 . S
H813 C823 0.929 . S
H814 C818 0.929 . S
H815 C824 0.929 . S
C816 H810 0.930 . S
C816 C817 1.367 . S
C816 C824 1.378 . S
C817 C816 1.367 . S
C817 C825 1.433 . S
C818 H814 0.929 . S
C818 C820 1.378 . S
C818 C822 1.350 . S
C819 C822 1.463 . S
C819 C824 1.350 . S
C819 N827 1.427 . S
C820 H811 0.930 . S
C820 C818 1.378 . S
C820 C821 1.367 . S
C821 C820 1.367 . S
C821 C823 1.433 . S
C822 C818 1.350 . S
C822 C819 1.463 . S
C822 N826 1.427 . S
C823 H813 0.929 . S
C823 C821 1.433 . S
C823 N826 1.384 . S
C824 H815 0.929 . S
C824 C816 1.378 . S
C824 C819 1.350 . S
C825 H812 0.929 . S
C825 C817 1.433 . S
C825 N827 1.384 . S
N826 C822 1.427 . S
N826 C823 1.384 . S
N827 C819 1.427 . S
N827 C825 1.384 . S
H828 C834 0.930 . S
H829 C838 0.930 . S
H830 C843 0.929 . S
H831 C841 0.929 . S
H832 C836 0.929 . S
H833 C842 0.929 . S
C834 H828 0.930 . S
C834 C835 1.367 . S
C834 C842 1.378 . S
C835 C834 1.367 . S
C835 C843 1.433 . S
C836 H832 0.929 . S
C836 C838 1.378 . S
C836 C840 1.350 . S
C837 C840 1.463 . S
C837 C842 1.350 . S
C837 N845 1.427 . S
C838 H829 0.930 . S
C838 C836 1.378 . S
C838 C839 1.367 . S
C839 C838 1.367 . S
C839 C841 1.433 . S
C840 C836 1.350 . S
C840 C837 1.463 . S
C840 N844 1.427 . S
C841 H831 0.929 . S
C841 C839 1.433 . S
C841 N844 1.384 . S
C842 H833 0.929 . S
C842 C834 1.378 . S
C842 C837 1.350 . S
C843 H830 0.929 . S
C843 C835 1.433 . S
C843 N845 1.384 . S
N844 C840 1.427 . S
N844 C841 1.384 . S
N845 C837 1.427 . S
N845 C843 1.384 . S
H846 C852 0.930 . S
H847 C856 0.930 . S
H848 C861 0.929 . S
H849 C859 0.929 . S
H850 C854 0.929 . S
H851 C860 0.929 . S
C852 H846 0.930 . S
C852 C853 1.367 . S
C852 C860 1.378 . S
C853 C852 1.367 . S
C853 C861 1.433 1_554 S
C854 H850 0.929 . S
C854 C856 1.378 . S
C854 C858 1.350 . S
C855 C858 1.463 1_554 S
C855 C860 1.350 . S
C855 N863 1.427 1_554 S
C856 H847 0.930 . S
C856 C854 1.378 . S
C856 C857 1.367 . S
C857 C856 1.367 . S
C857 C859 1.433 1_556 S
C858 C854 1.350 . S
C858 C855 1.463 1_556 S
C858 N862 1.427 1_556 S
C859 H849 0.929 . S
C859 C857 1.433 1_554 S
C859 N862 1.384 . S
C860 H851 0.929 . S
C860 C852 1.378 . S
C860 C855 1.350 . S
C861 H848 0.929 . S
C861 C853 1.433 1_556 S
C861 N863 1.384 . S
N862 C858 1.427 1_554 S
N862 C859 1.384 . S
N863 C855 1.427 1_556 S
N863 C861 1.384 . S
C439 C14 1.224 . S
C443 C338 1.226 . S
C457 C50 1.220 . S
C461 C374 1.206 . S
C475 C86 1.224 . S
C479 C410 1.211 . S
C493 C122 1.212 . S
C497 C230 1.201 . S
C511 C266 1.212 . S
C515 C158 1.201 . S
C529 C302 1.225 . S
C533 C194 1.213 . S
C547 C363 1.732 . S
C551 C3 1.738 . S
C565 C39 1.733 . S
C569 C399 1.736 . S
C583 C75 1.733 . S
C587 C219 1.737 . S
C601 C111 1.737 . S
C605 C255 1.732 . S
C619 C147 1.735 . S
C623 C291 1.734 . S
C637 C183 1.737 . S
C641 C327 1.733 . S
C655 C362 0.962 . S
C659 C2 0.953 . S
C673 C38 0.962 . S
C677 C398 0.954 . S
C691 C74 0.954 . S
C695 C218 0.960 . S
C709 C110 0.954 . S
C713 C254 0.960 . S
C727 C146 0.962 . S
C731 C290 0.954 . S
C745 C182 0.957 . S
C749 C326 0.961 . S
C763 C4 1.642 . S
C767 C220 1.641 . S
C781 C256 1.641 . S
C785 C40 1.642 . S
C799 C76 1.641 . S
C803 C292 1.642 . S
C817 C112 1.643 . S
C821 C328 1.642 . S
C835 C148 1.643 . S
C839 C364 1.642 . S
C853 C400 1.642 . S
C857 C184 1.643 . S
