# Generated by pormake.
# Topology uog, (4)-cn, num edge types: 1
# Building blocks:
#     Node 0, Type 0, BuildingBlock: ESEHIV_clean_sbu_0, # of connection points: 4
#     Node 1, Type 0, BuildingBlock: ESEHIV_clean_sbu_0, # of connection points: 4
#     Node 2, Type 0, BuildingBlock: ESEHIV_clean_sbu_0, # of connection points: 4
#     Node 3, Type 0, BuildingBlock: ESEHIV_clean_sbu_0, # of connection points: 4
#     Node 4, Type 0, BuildingBlock: ESEHIV_clean_sbu_0, # of connection points: 4
#     Node 5, Type 0, BuildingBlock: ESEHIV_clean_sbu_0, # of connection points: 4
#     Edge 6, Type (0, 0), BuildingBlock: FUNLAD_clean_linker_0, # of connection points: 2
#     Edge 7, Type (0, 0), BuildingBlock: FUNLAD_clean_linker_0, # of connection points: 2
#     Edge 8, Type (0, 0), BuildingBlock: FUNLAD_clean_linker_0, # of connection points: 2
#     Edge 9, Type (0, 0), BuildingBlock: FUNLAD_clean_linker_0, # of connection points: 2
#     Edge 10, Type (0, 0), BuildingBlock: FUNLAD_clean_linker_0, # of connection points: 2
#     Edge 11, Type (0, 0), BuildingBlock: FUNLAD_clean_linker_0, # of connection points: 2
#     Edge 12, Type (0, 0), BuildingBlock: FUNLAD_clean_linker_0, # of connection points: 2
#     Edge 13, Type (0, 0), BuildingBlock: FUNLAD_clean_linker_0, # of connection points: 2
#     Edge 14, Type (0, 0), BuildingBlock: FUNLAD_clean_linker_0, # of connection points: 2
#     Edge 15, Type (0, 0), BuildingBlock: FUNLAD_clean_linker_0, # of connection points: 2
#     Edge 16, Type (0, 0), BuildingBlock: FUNLAD_clean_linker_0, # of connection points: 2
#     Edge 17, Type (0, 0), BuildingBlock: FUNLAD_clean_linker_0, # of connection points: 2
# Relax obj value: 0.017
# Max RMSD: 0.197
# Mean RMSD: 0.148
data_MOF--net-uog--node1-ESEHIV_clean_sbu_0--edge1-FUNLAD_clean_linker_0
_symmetry_space_group_name_H-M    P1
_symmetry_Int_Tables_number       1
_symmetry_cell_setting            triclinic
loop_
_symmetry_equiv_pos_as_xyz
'x, y, z'
_cell_length_a     33.139142
_cell_length_b     39.312631
_cell_length_c     51.723654
_cell_angle_alpha  90.022232
_cell_angle_beta   90.01289
_cell_angle_gamma 115.25818
loop_
_atom_site_label
_atom_site_type_symbol
_atom_site_fract_x
_atom_site_fract_y
_atom_site_fract_z
_atom_type_partial_charge
Cu0 Cu 0.57271 0.27791 0.17499 0.0
N1 N 0.53595 0.30229 0.17024 0.0
N2 N 0.51631 0.34972 0.16624 0.0
C3 C 0.54831 0.33927 0.17384 0.0
C4 C 0.48243 0.318 0.15755 0.0
C5 C 0.49465 0.28872 0.16007 0.0
O6 O 0.60381 0.2948 0.2075 0.0
C7 C 0.5908 0.27378 0.12367 0.0
O8 O 0.54744 0.25335 0.12425 0.0
H9 H 0.58102 0.35841 0.18073 0.0
H10 H 0.47542 0.25989 0.15411 0.0
N11 N 0.53937 0.22614 0.17783 0.0
N12 N 0.52346 0.16493 0.17807 0.0
C13 C 0.5538 0.19989 0.17192 0.0
C14 C 0.49853 0.20732 0.18813 0.0
C15 C 0.48857 0.16948 0.18828 0.0
C16 C 0.64025 0.32361 0.21145 0.0
O17 O 0.66217 0.34455 0.19183 0.0
H18 H 0.58666 0.20656 0.16417 0.0
H19 H 0.47797 0.2203 0.19558 0.0
O20 O 0.61087 0.28807 0.14472 0.0
H21 H 0.45138 0.31618 0.14957 0.0
H22 H 0.4582 0.14715 0.19555 0.0
Cu23 Cu 0.33197 0.59901 0.51348 0.0
N24 N 0.33533 0.62812 0.48425 0.0
N25 N 0.33972 0.64725 0.44323 0.0
C26 C 0.34794 0.62457 0.45999 0.0
C27 C 0.3218 0.66601 0.45757 0.0
C28 C 0.31918 0.65418 0.48281 0.0
O29 O 0.37346 0.5759 0.51083 0.0
C30 C 0.24064 0.55443 0.50115 0.0
O31 O 0.25403 0.56337 0.47718 0.0
H32 H 0.36068 0.60447 0.45446 0.0
H33 H 0.30491 0.66287 0.49889 0.0
N34 N 0.35036 0.63082 0.54209 0.0
N35 N 0.36037 0.65108 0.58303 0.0
C36 C 0.3391 0.62161 0.567 0.0
C37 C 0.37963 0.66726 0.54229 0.0
C38 C 0.38584 0.67986 0.56749 0.0
C39 C 0.37325 0.55195 0.4942 0.0
O40 O 0.34071 0.53856 0.47723 0.0
H41 H 0.31664 0.5936 0.57322 0.0
H42 H 0.39566 0.6834 0.5253 0.0
O43 O 0.26955 0.56429 0.51924 0.0
H44 H 0.31067 0.68637 0.45026 0.0
H45 H 0.4073 0.7081 0.57382 0.0
Cu46 Cu 0.76143 0.27405 0.85614 0.0
N47 N 0.74648 0.22279 0.85372 0.0
N48 N 0.70464 0.16085 0.8512 0.0
C49 C 0.70606 0.19447 0.85811 0.0
C50 C 0.74582 0.16836 0.84221 0.0
C51 C 0.77154 0.20661 0.84379 0.0
O52 O 0.72965 0.28147 0.88575 0.0
C53 C 0.74376 0.31905 0.81733 0.0
O54 O 0.75589 0.34635 0.83441 0.0
H55 H 0.67761 0.19871 0.86485 0.0
H56 H 0.80556 0.22174 0.83718 0.0
N57 N 0.82305 0.30034 0.86071 0.0
N58 N 0.89106 0.34783 0.86355 0.0
C59 C 0.84925 0.33624 0.85415 0.0
C60 C 0.8493 0.28867 0.8744 0.0
C61 C 0.89125 0.31787 0.8762 0.0
C62 C 0.748 0.3067 0.90289 0.0
O63 O 0.78952 0.33143 0.89977 0.0
H64 H 0.83718 0.35424 0.84418 0.0
H65 H 0.83814 0.26132 0.8834 0.0
O66 O 0.74351 0.28766 0.82352 0.0
H67 H 0.75627 0.14781 0.83449 0.0
H68 H 0.91932 0.3174 0.88663 0.0
Cu69 Cu 0.50449 0.74878 0.17312 0.0
N70 N 0.54092 0.72397 0.16867 0.0
N71 N 0.56133 0.67673 0.16822 0.0
C72 C 0.53109 0.68874 0.1766 0.0
C73 C 0.59146 0.70559 0.15452 0.0
C74 C 0.57882 0.73477 0.15488 0.0
O75 O 0.47603 0.73458 0.20659 0.0
C76 C 0.48285 0.7507 0.12215 0.0
O77 O 0.52604 0.77191 0.12187 0.0
H78 H 0.50117 0.67161 0.18726 0.0
H79 H 0.59531 0.76151 0.1451 0.0
N80 N 0.53787 0.8007 0.17435 0.0
N81 N 0.55219 0.86159 0.17586 0.0
C82 C 0.52093 0.82611 0.17205 0.0
C83 C 0.58139 0.82055 0.1798 0.0
C84 C 0.59039 0.8582 0.18064 0.0
C85 C 0.44188 0.70491 0.21272 0.0
O86 O 0.41946 0.68058 0.19472 0.0
H87 H 0.48611 0.81845 0.16796 0.0
H88 H 0.60459 0.80845 0.18368 0.0
O89 O 0.46428 0.73681 0.14362 0.0
H90 H 0.62015 0.7054 0.14463 0.0
H91 H 0.62222 0.88105 0.18538 0.0
Cu92 Cu 0.74208 0.42675 0.51545 0.0
N93 N 0.73255 0.397 0.48575 0.0
N94 N 0.72075 0.37692 0.44477 0.0
C95 C 0.71806 0.40152 0.46218 0.0
C96 C 0.73706 0.35592 0.45793 0.0
C97 C 0.74424 0.36833 0.48312 0.0
O98 O 0.70483 0.45407 0.51537 0.0
C99 C 0.83088 0.44222 0.52557 0.0
O100 O 0.81153 0.40693 0.53297 0.0
H101 H 0.70726 0.42313 0.45759 0.0
H102 H 0.758 0.35769 0.49838 0.0
N103 N 0.7234 0.39537 0.54435 0.0
N104 N 0.71298 0.3758 0.58543 0.0
C105 C 0.73421 0.40506 0.56926 0.0
C106 C 0.6943 0.35888 0.54473 0.0
C107 C 0.68787 0.3467 0.57001 0.0
C108 C 0.70244 0.47692 0.49866 0.0
O109 O 0.72998 0.487 0.47892 0.0
H110 H 0.75651 0.4332 0.57536 0.0
H111 H 0.67854 0.34239 0.52781 0.0
O112 O 0.80643 0.458 0.51781 0.0
H113 H 0.7436 0.33334 0.44989 0.0
H114 H 0.66658 0.31851 0.57648 0.0
Cu115 Cu 0.30971 0.74752 0.85481 0.0
N116 N 0.32533 0.79899 0.85413 0.0
N117 N 0.36744 0.86098 0.85544 0.0
C118 C 0.36442 0.82664 0.86177 0.0
C119 C 0.32869 0.85461 0.84345 0.0
C120 C 0.3028 0.81634 0.84267 0.0
O121 O 0.33842 0.73727 0.88487 0.0
C122 C 0.33058 0.70505 0.81569 0.0
O123 O 0.31768 0.67711 0.83227 0.0
H124 H 0.39103 0.82155 0.87051 0.0
H125 H 0.27054 0.80206 0.8335 0.0
N126 N 0.24765 0.72125 0.85674 0.0
N127 N 0.17922 0.67415 0.8556 0.0
C128 C 0.22243 0.68578 0.84887 0.0
C129 C 0.21938 0.7326 0.86861 0.0
C130 C 0.17714 0.70357 0.868 0.0
C131 C 0.31688 0.71668 0.90375 0.0
O132 O 0.27325 0.69877 0.90244 0.0
H133 H 0.23581 0.66818 0.83957 0.0
H134 H 0.22913 0.75965 0.87785 0.0
O135 O 0.33041 0.73615 0.8223 0.0
H136 H 0.32006 0.87603 0.83535 0.0
H137 H 0.1474 0.70388 0.87643 0.0
C138 C 0.50706 0.10058 0.19296 0.0
C139 C 0.52872 0.1305 0.17572 0.0
C140 C 0.51352 0.06774 0.19131 0.0
C141 C 0.54143 0.06388 0.1721 0.0
C142 C 0.56302 0.09382 0.1549 0.0
C143 C 0.55671 0.1267 0.15664 0.0
C144 C 0.55028 0.02987 0.16996 0.0
C145 C 0.52326 0.99608 0.17993 0.0
C146 C 0.53197 0.96199 0.17806 0.0
C147 C 0.49637 0.92668 0.1823 0.0
C148 C 0.50291 0.89389 0.18142 0.0
C149 C 0.5454 0.89552 0.17636 0.0
H150 H 0.60336 0.99036 0.17052 0.0
C151 C 0.58118 0.93089 0.17225 0.0
C152 C 0.57465 0.96376 0.17318 0.0
H153 H 0.61431 0.93324 0.16824 0.0
H154 H 0.48606 0.10291 0.20822 0.0
H155 H 0.49741 0.04605 0.20557 0.0
H156 H 0.58489 0.0918 0.14001 0.0
H157 H 0.57359 0.14909 0.14293 0.0
H158 H 0.57931 0.03274 0.15884 0.0
H159 H 0.49224 0.99247 0.18908 0.0
H160 H 0.46324 0.9244 0.18641 0.0
H161 H 0.47468 0.86736 0.1852 0.0
C162 C 0.44574 0.5554 0.51161 0.0
C163 C 0.41144 0.54152 0.49305 0.0
C164 C 0.48293 0.54734 0.50992 0.0
C165 C 0.48677 0.52502 0.48962 0.0
C166 C 0.45251 0.51118 0.47108 0.0
C167 C 0.41518 0.51912 0.47283 0.0
C168 C 0.52662 0.51682 0.48664 0.0
C169 C 0.55309 0.51698 0.50655 0.0
C170 C 0.5922 0.50781 0.50387 0.0
C171 C 0.60545 0.49324 0.52536 0.0
C172 C 0.64157 0.48381 0.52374 0.0
C173 C 0.666 0.48936 0.50066 0.0
H174 H 0.60875 0.52625 0.46409 0.0
C175 C 0.6537 0.50505 0.47932 0.0
C176 C 0.6171 0.51408 0.48086 0.0
H177 H 0.67182 0.50974 0.46126 0.0
H178 H 0.44424 0.57302 0.52734 0.0
H179 H 0.50902 0.55952 0.52422 0.0
H180 H 0.45462 0.49414 0.45512 0.0
H181 H 0.3896 0.50815 0.45809 0.0
H182 H 0.53292 0.50858 0.46757 0.0
H183 H 0.54438 0.52174 0.52602 0.0
H184 H 0.58728 0.4885 0.54342 0.0
H185 H 0.65019 0.47196 0.5406 0.0
C186 C 0.9295 0.41005 0.84258 0.0
C187 C 0.92599 0.3856 0.86317 0.0
C188 C 0.96205 0.4473 0.84288 0.0
C189 C 0.99165 0.46088 0.86391 0.0
C190 C 0.98809 0.43641 0.88442 0.0
C191 C 0.95591 0.39915 0.88399 0.0
C192 C 1.02504 0.50073 0.86583 0.0
C193 C 0.04325 0.52289 0.84519 0.0
C194 C 0.07727 0.56242 0.84782 0.0
C195 C 0.11048 0.5777 0.82887 0.0
C196 C 0.14373 0.61444 0.83129 0.0
C197 C 0.14391 0.6369 0.85249 0.0
H198 H 0.05102 0.57468 0.88333 0.0
C199 C 0.10978 0.622 0.87101 0.0
C200 C 0.07686 0.58516 0.86874 0.0
H201 H 0.10908 0.63852 0.88759 0.0
H202 H 0.90694 0.40039 0.82627 0.0
H203 H 0.96304 0.46553 0.82699 0.0
H204 H 1.01018 0.44622 0.90096 0.0
H205 H 0.95364 0.3813 0.90036 0.0
H206 H 1.03664 0.51157 0.88508 0.0
H207 H 1.03529 0.51122 0.82583 0.0
H208 H 0.11122 0.56094 0.8124 0.0
H209 H 0.16924 0.62534 0.81655 0.0
C210 C 0.16089 0.53347 0.48757 0.0
C211 C 0.19217 0.53797 0.50721 0.0
C212 C 0.11561 0.52126 0.49338 0.0
C213 C 0.10039 0.51316 0.51903 0.0
C214 C 0.13139 0.51645 0.53853 0.0
C215 C 0.17681 0.52898 0.53276 0.0
C216 C 0.0523 0.49968 0.5259 0.0
C217 C 1.02311 0.508 0.51202 0.0
C218 C 0.97435 0.49266 0.51782 0.0
C219 C 0.94922 0.5107 0.50756 0.0
C220 C 0.90276 0.49536 0.51085 0.0
C221 C 0.88037 0.46134 0.52426 0.0
H222 H 0.96946 0.4436 0.53945 0.0
C223 C 0.90565 0.44376 0.53498 0.0
C224 C 0.9519 0.45909 0.53177 0.0
H225 H 0.88956 0.41745 0.54538 0.0
H226 H 0.17143 0.53997 0.46765 0.0
H227 H 0.09265 0.51783 0.47765 0.0
H228 H 0.12056 0.50988 0.55841 0.0
H229 H 0.19991 0.53206 0.54837 0.0
H230 H 0.04123 0.48336 0.54353 0.0
H231 H 1.03532 0.5273 0.49583 0.0
H232 H 0.96548 0.53645 0.49657 0.0
H233 H 0.88432 0.50951 0.50222 0.0
C234 C 0.41563 0.92502 0.8399 0.0
C235 C 0.40575 0.89655 0.85852 0.0
C236 C 0.45365 0.95904 0.84235 0.0
C237 C 0.48249 0.96542 0.8636 0.0
C238 C 0.47198 0.93738 0.88256 0.0
C239 C 0.43427 0.9031 0.8799 0.0
C240 C 0.52316 1.0013 0.86665 0.0
C241 C 0.54756 0.02058 0.84629 0.0
C242 C 0.58868 0.05622 0.8488 0.0
C243 C 0.62197 0.06517 0.82987 0.0
C244 C 0.6604 0.09907 0.83099 0.0
C245 C 0.66597 0.12516 0.85081 0.0
H246 H 0.56889 0.07656 0.8834 0.0
C247 C 0.63256 0.11636 0.86971 0.0
C248 C 0.59435 0.08215 0.86881 0.0
H249 H 0.63603 0.13596 0.88519 0.0
H250 H 0.39441 0.92074 0.82316 0.0
H251 H 0.46012 0.98042 0.82772 0.0
H252 H 0.4934 0.94176 0.89925 0.0
H253 H 0.42718 0.88181 0.89467 0.0
H254 H 0.53464 1.01078 0.88616 0.0
H255 H 0.53842 1.00887 0.82699 0.0
H256 H 0.61822 0.04588 0.81411 0.0
H257 H 0.68521 0.10529 0.81593 0.0
C258 C 0.57425 0.62321 0.15174 0.0
C259 C 0.5592 0.63962 0.1714 0.0
C260 C 0.56976 0.58636 0.15423 0.0
C261 C 0.55036 0.56527 0.17656 0.0
C262 C 0.53671 0.58212 0.19655 0.0
C263 C 0.54064 0.61878 0.1939 0.0
C264 C 0.54472 0.52598 0.17972 0.0
C265 C 0.53629 0.50204 0.15967 0.0
C266 C 0.52995 0.4625 0.16255 0.0
C267 C 0.50377 0.43567 0.14434 0.0
C268 C 0.49835 0.39847 0.1459 0.0
C269 C 0.51968 0.38747 0.16549 0.0
H270 H 0.57232 0.47149 0.19634 0.0
C271 C 0.54591 0.41431 0.18373 0.0
C272 C 0.55099 0.45142 0.18232 0.0
H273 H 0.56263 0.40661 0.19907 0.0
H274 H 0.58854 0.63855 0.13416 0.0
H275 H 0.58179 0.57458 0.13875 0.0
H276 H 0.52218 0.56663 0.21407 0.0
H277 H 0.52931 0.63093 0.20949 0.0
H278 H 0.54478 0.51595 0.19928 0.0
H279 H 0.5317 0.51112 0.14049 0.0
H280 H 0.48754 0.44355 0.12879 0.0
H281 H 0.47849 0.3786 0.13134 0.0
C282 C 0.74737 0.32946 0.94813 0.0
C283 C 0.72456 0.30568 0.92749 0.0
C284 C 0.72665 0.32633 0.97214 0.0
C285 C 0.68255 0.29933 0.97603 0.0
C286 C 0.65923 0.27666 0.9551 0.0
C287 C 0.68004 0.27958 0.93116 0.0
C288 C 0.65952 0.29399 1.00141 0.0
C289 C 0.68091 0.30207 0.02441 0.0
C290 C 0.65738 0.29422 0.04981 0.0
C291 C 0.68046 0.31354 0.07198 0.0
C292 C 0.65934 0.30677 0.09616 0.0
C293 C 0.61467 0.28038 0.09864 0.0
H294 H 0.59443 0.25025 0.03639 0.0
C295 C 0.59198 0.26045 0.07659 0.0
C296 C 0.61305 0.26705 0.05256 0.0
H297 H 0.55774 0.23947 0.07785 0.0
H298 H 0.78161 0.35009 0.94593 0.0
H299 H 0.74528 0.34522 0.98748 0.0
H300 H 0.62506 0.25591 0.95745 0.0
H301 H 0.66142 0.26095 0.91566 0.0
H302 H 0.62336 0.28154 1.00086 0.0
H303 H 0.71711 0.31471 0.02488 0.0
H304 H 0.71483 0.33425 0.07055 0.0
H305 H 0.67779 0.3225 0.1128 0.0
C306 C 0.39036 0.667 0.24833 0.0
C307 C 0.43045 0.69685 0.24046 0.0
C308 C 0.38102 0.65913 0.27469 0.0
C309 C 0.41186 0.6808 0.29362 0.0
C310 C 0.45189 0.71035 0.28567 0.0
C311 C 0.46092 0.71853 0.25949 0.0
C312 C 0.4044 0.67296 0.32176 0.0
C313 C 0.36377 0.65832 0.33284 0.0
C314 C 0.3576 0.65417 0.36134 0.0
C315 C 0.32166 0.65854 0.37268 0.0
C316 C 0.31589 0.65636 0.3995 0.0
C317 C 0.34549 0.64902 0.41556 0.0
H318 H 0.41418 0.64155 0.36918 0.0
C319 C 0.38065 0.64339 0.40417 0.0
C320 C 0.38678 0.64607 0.37734 0.0
H321 H 0.40386 0.63757 0.41605 0.0
H322 H 0.36634 0.64963 0.23416 0.0
H323 H 0.35021 0.63559 0.28012 0.0
H324 H 0.47632 0.72737 0.29981 0.0
H325 H 0.49231 0.74156 0.25418 0.0
H326 H 0.43383 0.68244 0.33402 0.0
H327 H 0.33441 0.6523 0.32101 0.0
H328 H 0.29842 0.66439 0.3608 0.0
H329 H 0.28797 0.66008 0.40765 0.0
C330 C 0.74185 0.36097 0.78099 0.0
C331 C 0.73267 0.32485 0.7904 0.0
C332 C 0.73374 0.36621 0.75501 0.0
C333 C 0.71616 0.33532 0.73797 0.0
C334 C 0.70571 0.29921 0.74768 0.0
C335 C 0.7141 0.29403 0.77347 0.0
C336 C 0.70776 0.33912 0.71008 0.0
C337 C 0.72962 0.37071 0.69615 0.0
C338 C 0.72365 0.37257 0.6677 0.0
C339 C 0.75856 0.39904 0.65299 0.0
C340 C 0.75497 0.40045 0.62609 0.0
C341 C 0.71619 0.37549 0.61326 0.0
H342 H 0.65579 0.3287 0.66557 0.0
C343 C 0.68069 0.34983 0.62806 0.0
C344 C 0.68422 0.34848 0.65494 0.0
H345 H 0.64989 0.33091 0.6189 0.0
H346 H 0.75595 0.38528 0.79357 0.0
H347 H 0.74104 0.39437 0.74847 0.0
H348 H 0.69173 0.27485 0.73512 0.0
H349 H 0.70629 0.26576 0.78008 0.0
H350 H 0.68508 0.3137 0.70028 0.0
H351 H 0.75533 0.39519 0.70536 0.0
H352 H 0.78918 0.41817 0.66228 0.0
H353 H 0.78301 0.42048 0.6153 0.0
C354 C 0.31562 0.6959 0.94971 0.0
C355 C 0.34009 0.71601 0.92815 0.0
C356 C 0.33667 0.69786 0.97347 0.0
C357 C 0.38279 0.72011 0.97623 0.0
C358 C 0.40747 0.73894 0.9544 0.0
C359 C 0.38639 0.7371 0.93067 0.0
C360 C 0.40656 0.72469 1.00135 0.0
C361 C 0.38662 0.71958 0.02474 0.0
C362 C 0.41174 0.72762 0.04962 0.0
C363 C 0.38959 0.71006 0.07246 0.0
C364 C 0.41225 0.71752 0.0962 0.0
C365 C 0.45752 0.74296 0.09754 0.0
H366 H 0.47475 0.76915 0.03441 0.0
C367 C 0.47932 0.76106 0.07478 0.0
C368 C 0.45677 0.75369 0.05119 0.0
H369 H 0.51402 0.78123 0.0751 0.0
H370 H 0.27993 0.67905 0.9484 0.0
H371 H 0.3166 0.68183 0.98949 0.0
H372 H 0.44311 0.75598 0.95586 0.0
H373 H 0.40631 0.75282 0.91446 0.0
H374 H 0.44244 0.73418 1.0003 0.0
H375 H 0.3507 0.70961 0.02598 0.0
H376 H 0.35472 0.69026 0.07192 0.0
H377 H 0.39445 0.70322 0.11339 0.0
C378 C 0.73437 0.36307 0.39984 0.0
C379 C 0.71045 0.37454 0.41756 0.0
C380 C 0.7237 0.35968 0.37352 0.0
C381 C 0.68863 0.36756 0.36434 0.0
C382 C 0.66484 0.37915 0.38204 0.0
C383 C 0.6759 0.38299 0.40833 0.0
C384 C 0.67392 0.36118 0.33689 0.0
C385 C 0.70125 0.36331 0.31702 0.0
C386 C 0.68497 0.35368 0.29 0.0
C387 C 0.71362 0.37133 0.26924 0.0
C388 C 0.69924 0.3619 0.24364 0.0
C389 C 0.65619 0.33402 0.23836 0.0
H390 H 0.61947 0.31065 0.30015 0.0
C391 C 0.62786 0.31599 0.2592 0.0
C392 C 0.642 0.32571 0.28468 0.0
H393 H 0.59451 0.29429 0.25588 0.0
H394 H 0.76142 0.35667 0.40632 0.0
H395 H 0.74209 0.34978 0.36062 0.0
H396 H 0.63737 0.38501 0.37553 0.0
H397 H 0.65665 0.39157 0.42155 0.0
H398 H 0.63927 0.35503 0.33295 0.0
H399 H 0.7368 0.37316 0.32043 0.0
H400 H 0.74709 0.39265 0.27283 0.0
H401 H 0.72194 0.3762 0.22804 0.0
C402 C 0.33302 0.66413 0.77883 0.0
C403 C 0.34223 0.70003 0.78871 0.0
C404 C 0.34113 0.6595 0.75275 0.0
C405 C 0.35873 0.69078 0.73607 0.0
C406 C 0.36935 0.72668 0.74626 0.0
C407 C 0.36096 0.73126 0.77217 0.0
C408 C 0.36684 0.68752 0.70805 0.0
C409 C 0.34451 0.65626 0.69386 0.0
C410 C 0.35016 0.65469 0.66534 0.0
C411 C 0.31515 0.6282 0.65068 0.0
C412 C 0.31854 0.62677 0.62376 0.0
C413 C 0.35721 0.65172 0.61086 0.0
H414 H 0.41791 0.69872 0.66308 0.0
C415 C 0.39275 0.67751 0.62561 0.0
C416 C 0.38942 0.67889 0.6525 0.0
H417 H 0.42347 0.69644 0.61641 0.0
H418 H 0.31879 0.63951 0.79109 0.0
H419 H 0.33374 0.63149 0.74584 0.0
H420 H 0.38338 0.75133 0.73398 0.0
H421 H 0.36878 0.75937 0.77915 0.0
H422 H 0.38967 0.71304 0.69845 0.0
H423 H 0.3187 0.63175 0.70295 0.0
H424 H 0.28466 0.609 0.66002 0.0
H425 H 0.29046 0.60665 0.61303 0.0
loop_
_geom_bond_atom_site_label_1
_geom_bond_atom_site_label_2
_geom_bond_distance
_geom_bond_site_symmetry_2
_ccdc_geom_bond_type
Cu0 N1 1.999 . S
Cu0 O6 1.974 . S
Cu0 N11 1.985 . S
Cu0 O20 1.959 . S
N1 Cu0 1.999 . S
N1 C3 1.263 . S
N1 C5 1.389 . S
N2 C3 1.358 . S
N2 C4 1.400 . S
C3 N1 1.263 . S
C3 N2 1.358 . S
C3 H9 0.930 . S
C4 N2 1.400 . S
C4 C5 1.351 . S
C4 H21 0.930 . S
C5 N1 1.389 . S
C5 C4 1.351 . S
C5 H10 0.930 . S
O6 Cu0 1.974 . S
O6 C16 1.282 . S
C7 O8 1.261 . S
C7 O20 1.251 . S
O8 C7 1.261 . S
H9 C3 0.930 . S
H10 C5 0.930 . S
N11 Cu0 1.985 . S
N11 C13 1.335 . S
N11 C14 1.390 . S
N12 C13 1.345 . S
N12 C15 1.336 . S
C13 N11 1.335 . S
C13 N12 1.345 . S
C13 H18 0.930 . S
C14 N11 1.390 . S
C14 C15 1.346 . S
C14 H19 0.930 . S
C15 N12 1.336 . S
C15 C14 1.346 . S
C15 H22 0.929 . S
C16 O6 1.282 . S
C16 O17 1.216 . S
O17 C16 1.216 . S
H18 C13 0.930 . S
H19 C14 0.930 . S
O20 Cu0 1.959 . S
O20 C7 1.251 . S
H21 C4 0.930 . S
H22 C15 0.929 . S
Cu23 N24 1.999 . S
Cu23 O29 1.974 . S
Cu23 N34 1.985 . S
Cu23 O43 1.959 . S
N24 Cu23 1.999 . S
N24 C26 1.263 . S
N24 C28 1.389 . S
N25 C26 1.358 . S
N25 C27 1.400 . S
C26 N24 1.263 . S
C26 N25 1.358 . S
C26 H32 0.930 . S
C27 N25 1.400 . S
C27 C28 1.351 . S
C27 H44 0.930 . S
C28 N24 1.389 . S
C28 C27 1.351 . S
C28 H33 0.930 . S
O29 Cu23 1.974 . S
O29 C39 1.282 . S
C30 O31 1.261 . S
C30 O43 1.251 . S
O31 C30 1.261 . S
H32 C26 0.930 . S
H33 C28 0.930 . S
N34 Cu23 1.985 . S
N34 C36 1.335 . S
N34 C37 1.390 . S
N35 C36 1.345 . S
N35 C38 1.336 . S
C36 N34 1.335 . S
C36 N35 1.345 . S
C36 H41 0.930 . S
C37 N34 1.390 . S
C37 C38 1.346 . S
C37 H42 0.930 . S
C38 N35 1.336 . S
C38 C37 1.346 . S
C38 H45 0.929 . S
C39 O29 1.282 . S
C39 O40 1.216 . S
O40 C39 1.216 . S
H41 C36 0.930 . S
H42 C37 0.930 . S
O43 Cu23 1.959 . S
O43 C30 1.251 . S
H44 C27 0.930 . S
H45 C38 0.929 . S
Cu46 N47 1.999 . S
Cu46 O52 1.974 . S
Cu46 N57 1.985 . S
Cu46 O66 1.959 . S
N47 Cu46 1.999 . S
N47 C49 1.263 . S
N47 C51 1.389 . S
N48 C49 1.358 . S
N48 C50 1.400 . S
C49 N47 1.263 . S
C49 N48 1.358 . S
C49 H55 0.930 . S
C50 N48 1.400 . S
C50 C51 1.351 . S
C50 H67 0.930 . S
C51 N47 1.389 . S
C51 C50 1.351 . S
C51 H56 0.930 . S
O52 Cu46 1.974 . S
O52 C62 1.282 . S
C53 O54 1.261 . S
C53 O66 1.251 . S
O54 C53 1.261 . S
H55 C49 0.930 . S
H56 C51 0.930 . S
N57 Cu46 1.985 . S
N57 C59 1.335 . S
N57 C60 1.390 . S
N58 C59 1.345 . S
N58 C61 1.336 . S
C59 N57 1.335 . S
C59 N58 1.345 . S
C59 H64 0.930 . S
C60 N57 1.390 . S
C60 C61 1.346 . S
C60 H65 0.930 . S
C61 N58 1.336 . S
C61 C60 1.346 . S
C61 H68 0.929 . S
C62 O52 1.282 . S
C62 O63 1.216 . S
O63 C62 1.216 . S
H64 C59 0.930 . S
H65 C60 0.930 . S
O66 Cu46 1.959 . S
O66 C53 1.251 . S
H67 C50 0.930 . S
H68 C61 0.929 . S
Cu69 N70 1.999 . S
Cu69 O75 1.974 . S
Cu69 N80 1.985 . S
Cu69 O89 1.959 . S
N70 Cu69 1.999 . S
N70 C72 1.263 . S
N70 C74 1.389 . S
N71 C72 1.358 . S
N71 C73 1.400 . S
C72 N70 1.263 . S
C72 N71 1.358 . S
C72 H78 0.930 . S
C73 N71 1.400 . S
C73 C74 1.351 . S
C73 H90 0.930 . S
C74 N70 1.389 . S
C74 C73 1.351 . S
C74 H79 0.930 . S
O75 Cu69 1.974 . S
O75 C85 1.282 . S
C76 O77 1.261 . S
C76 O89 1.251 . S
O77 C76 1.261 . S
H78 C72 0.930 . S
H79 C74 0.930 . S
N80 Cu69 1.985 . S
N80 C82 1.335 . S
N80 C83 1.390 . S
N81 C82 1.345 . S
N81 C84 1.336 . S
C82 N80 1.335 . S
C82 N81 1.345 . S
C82 H87 0.930 . S
C83 N80 1.390 . S
C83 C84 1.346 . S
C83 H88 0.930 . S
C84 N81 1.336 . S
C84 C83 1.346 . S
C84 H91 0.929 . S
C85 O75 1.282 . S
C85 O86 1.216 . S
O86 C85 1.216 . S
H87 C82 0.930 . S
H88 C83 0.930 . S
O89 Cu69 1.959 . S
O89 C76 1.251 . S
H90 C73 0.930 . S
H91 C84 0.929 . S
Cu92 N93 1.999 . S
Cu92 O98 1.974 . S
Cu92 N103 1.985 . S
Cu92 O112 1.959 . S
N93 Cu92 1.999 . S
N93 C95 1.263 . S
N93 C97 1.389 . S
N94 C95 1.358 . S
N94 C96 1.400 . S
C95 N93 1.263 . S
C95 N94 1.358 . S
C95 H101 0.930 . S
C96 N94 1.400 . S
C96 C97 1.351 . S
C96 H113 0.930 . S
C97 N93 1.389 . S
C97 C96 1.351 . S
C97 H102 0.930 . S
O98 Cu92 1.974 . S
O98 C108 1.282 . S
C99 O100 1.261 . S
C99 O112 1.251 . S
O100 C99 1.261 . S
H101 C95 0.930 . S
H102 C97 0.930 . S
N103 Cu92 1.985 . S
N103 C105 1.335 . S
N103 C106 1.390 . S
N104 C105 1.345 . S
N104 C107 1.336 . S
C105 N103 1.335 . S
C105 N104 1.345 . S
C105 H110 0.930 . S
C106 N103 1.390 . S
C106 C107 1.346 . S
C106 H111 0.930 . S
C107 N104 1.336 . S
C107 C106 1.346 . S
C107 H114 0.929 . S
C108 O98 1.282 . S
C108 O109 1.216 . S
O109 C108 1.216 . S
H110 C105 0.930 . S
H111 C106 0.930 . S
O112 Cu92 1.959 . S
O112 C99 1.251 . S
H113 C96 0.930 . S
H114 C107 0.929 . S
Cu115 N116 1.999 . S
Cu115 O121 1.974 . S
Cu115 N126 1.985 . S
Cu115 O135 1.959 . S
N116 Cu115 1.999 . S
N116 C118 1.263 . S
N116 C120 1.389 . S
N117 C118 1.358 . S
N117 C119 1.400 . S
C118 N116 1.263 . S
C118 N117 1.358 . S
C118 H124 0.930 . S
C119 N117 1.400 . S
C119 C120 1.351 . S
C119 H136 0.930 . S
C120 N116 1.389 . S
C120 C119 1.351 . S
C120 H125 0.930 . S
O121 Cu115 1.974 . S
O121 C131 1.282 . S
C122 O123 1.261 . S
C122 O135 1.251 . S
O123 C122 1.261 . S
H124 C118 0.930 . S
H125 C120 0.930 . S
N126 Cu115 1.985 . S
N126 C128 1.335 . S
N126 C129 1.390 . S
N127 C128 1.345 . S
N127 C130 1.336 . S
C128 N126 1.335 . S
C128 N127 1.345 . S
C128 H133 0.930 . S
C129 N126 1.390 . S
C129 C130 1.346 . S
C129 H134 0.930 . S
C130 N127 1.336 . S
C130 C129 1.346 . S
C130 H137 0.929 . S
C131 O121 1.282 . S
C131 O132 1.216 . S
O132 C131 1.216 . S
H133 C128 0.930 . S
H134 C129 0.930 . S
O135 Cu115 1.959 . S
O135 C122 1.251 . S
H136 C119 0.930 . S
H137 C130 0.929 . S
C138 C139 1.386 . S
C138 C140 1.383 . S
C138 H154 0.951 . S
C139 C138 1.386 . S
C139 C143 1.383 . S
C140 C138 1.383 . S
C140 C141 1.402 . S
C140 H155 0.951 . S
C141 C140 1.402 . S
C141 C142 1.375 . S
C141 C144 1.481 . S
C142 C141 1.375 . S
C142 C143 1.367 . S
C142 H156 0.951 . S
C143 C139 1.383 . S
C143 C142 1.367 . S
C143 H157 0.950 . S
C144 C141 1.481 . S
C144 C145 1.297 1_545 S
C144 H158 0.950 . S
C145 C144 1.297 1_565 S
C145 C146 1.479 . S
C145 H159 0.950 . S
C146 C145 1.479 . S
C146 C147 1.375 . S
C146 C152 1.404 . S
C147 C146 1.375 . S
C147 C148 1.369 . S
C147 H160 0.950 . S
C148 C147 1.369 . S
C148 C149 1.392 . S
C148 H161 0.951 . S
C149 C148 1.392 . S
C149 C151 1.384 . S
H150 C152 0.949 . S
C151 C149 1.384 . S
C151 C152 1.385 . S
C151 H153 0.950 . S
C152 C146 1.404 . S
C152 H150 0.949 . S
C152 C151 1.385 . S
H153 C151 0.950 . S
H154 C138 0.951 . S
H155 C140 0.951 . S
H156 C142 0.951 . S
H157 C143 0.950 . S
H158 C144 0.950 . S
H159 C145 0.950 . S
H160 C147 0.950 . S
H161 C148 0.951 . S
C162 C163 1.386 . S
C162 C164 1.383 . S
C162 H178 0.951 . S
C163 C162 1.386 . S
C163 C167 1.383 . S
C164 C162 1.383 . S
C164 C165 1.402 . S
C164 H179 0.951 . S
C165 C164 1.402 . S
C165 C166 1.375 . S
C165 C168 1.481 . S
C166 C165 1.375 . S
C166 C167 1.367 . S
C166 H180 0.951 . S
C167 C163 1.383 . S
C167 C166 1.367 . S
C167 H181 0.950 . S
C168 C165 1.481 . S
C168 C169 1.297 . S
C168 H182 0.950 . S
C169 C168 1.297 . S
C169 C170 1.479 . S
C169 H183 0.950 . S
C170 C169 1.479 . S
C170 C171 1.375 . S
C170 C176 1.404 . S
C171 C170 1.375 . S
C171 C172 1.369 . S
C171 H184 0.950 . S
C172 C171 1.369 . S
C172 C173 1.392 . S
C172 H185 0.951 . S
C173 C172 1.392 . S
C173 C175 1.384 . S
H174 C176 0.949 . S
C175 C173 1.384 . S
C175 C176 1.385 . S
C175 H177 0.950 . S
C176 C170 1.404 . S
C176 H174 0.949 . S
C176 C175 1.385 . S
H177 C175 0.950 . S
H178 C162 0.951 . S
H179 C164 0.951 . S
H180 C166 0.951 . S
H181 C167 0.950 . S
H182 C168 0.950 . S
H183 C169 0.950 . S
H184 C171 0.950 . S
H185 C172 0.951 . S
C186 C187 1.386 . S
C186 C188 1.383 . S
C186 H202 0.951 . S
C187 C186 1.386 . S
C187 C191 1.383 . S
C188 C186 1.383 . S
C188 C189 1.402 . S
C188 H203 0.951 . S
C189 C188 1.402 . S
C189 C190 1.375 . S
C189 C192 1.481 . S
C190 C189 1.375 . S
C190 C191 1.367 . S
C190 H204 0.951 . S
C191 C187 1.383 . S
C191 C190 1.367 . S
C191 H205 0.950 . S
C192 C189 1.481 . S
C192 C193 1.297 1_655 S
C192 H206 0.950 . S
C193 C192 1.297 1_455 S
C193 C194 1.479 . S
C193 H207 0.950 . S
C194 C193 1.479 . S
C194 C195 1.375 . S
C194 C200 1.404 . S
C195 C194 1.375 . S
C195 C196 1.369 . S
C195 H208 0.950 . S
C196 C195 1.369 . S
C196 C197 1.392 . S
C196 H209 0.951 . S
C197 C196 1.392 . S
C197 C199 1.384 . S
H198 C200 0.949 . S
C199 C197 1.384 . S
C199 C200 1.385 . S
C199 H201 0.950 . S
C200 C194 1.404 . S
C200 H198 0.949 . S
C200 C199 1.385 . S
H201 C199 0.950 . S
H202 C186 0.951 . S
H203 C188 0.951 . S
H204 C190 0.951 . S
H205 C191 0.950 . S
H206 C192 0.950 . S
H207 C193 0.950 . S
H208 C195 0.950 . S
H209 C196 0.951 . S
C210 C211 1.386 . S
C210 C212 1.383 . S
C210 H226 0.951 . S
C211 C210 1.386 . S
C211 C215 1.383 . S
C212 C210 1.383 . S
C212 C213 1.402 . S
C212 H227 0.951 . S
C213 C212 1.402 . S
C213 C214 1.375 . S
C213 C216 1.481 . S
C214 C213 1.375 . S
C214 C215 1.367 . S
C214 H228 0.951 . S
C215 C211 1.383 . S
C215 C214 1.367 . S
C215 H229 0.950 . S
C216 C213 1.481 . S
C216 C217 1.297 1_455 S
C216 H230 0.950 . S
C217 C216 1.297 1_655 S
C217 C218 1.479 . S
C217 H231 0.950 . S
C218 C217 1.479 . S
C218 C219 1.375 . S
C218 C224 1.404 . S
C219 C218 1.375 . S
C219 C220 1.369 . S
C219 H232 0.950 . S
C220 C219 1.369 . S
C220 C221 1.392 . S
C220 H233 0.951 . S
C221 C220 1.392 . S
C221 C223 1.384 . S
H222 C224 0.949 . S
C223 C221 1.384 . S
C223 C224 1.385 . S
C223 H225 0.950 . S
C224 C218 1.404 . S
C224 H222 0.949 . S
C224 C223 1.385 . S
H225 C223 0.950 . S
H226 C210 0.951 . S
H227 C212 0.951 . S
H228 C214 0.951 . S
H229 C215 0.950 . S
H230 C216 0.950 . S
H231 C217 0.950 . S
H232 C219 0.950 . S
H233 C220 0.951 . S
C234 C235 1.386 . S
C234 C236 1.383 . S
C234 H250 0.951 . S
C235 C234 1.386 . S
C235 C239 1.383 . S
C236 C234 1.383 . S
C236 C237 1.402 . S
C236 H251 0.951 . S
C237 C236 1.402 . S
C237 C238 1.375 . S
C237 C240 1.481 . S
C238 C237 1.375 . S
C238 C239 1.367 . S
C238 H252 0.951 . S
C239 C235 1.383 . S
C239 C238 1.367 . S
C239 H253 0.950 . S
C240 C237 1.481 . S
C240 C241 1.297 1_565 S
C240 H254 0.950 1_565 S
C241 C240 1.297 1_545 S
C241 C242 1.479 . S
C241 H255 0.950 . S
C242 C241 1.479 . S
C242 C243 1.375 . S
C242 C248 1.404 . S
C243 C242 1.375 . S
C243 C244 1.369 . S
C243 H256 0.950 . S
C244 C243 1.369 . S
C244 C245 1.392 . S
C244 H257 0.951 . S
C245 C244 1.392 . S
C245 C247 1.384 . S
H246 C248 0.949 . S
C247 C245 1.384 . S
C247 C248 1.385 . S
C247 H249 0.950 . S
C248 C242 1.404 . S
C248 H246 0.949 . S
C248 C247 1.385 . S
H249 C247 0.950 . S
H250 C234 0.951 . S
H251 C236 0.951 . S
H252 C238 0.951 . S
H253 C239 0.950 . S
H254 C240 0.950 1_545 S
H255 C241 0.950 . S
H256 C243 0.950 . S
H257 C244 0.951 . S
C258 C259 1.386 . S
C258 C260 1.383 . S
C258 H274 0.951 . S
C259 C258 1.386 . S
C259 C263 1.383 . S
C260 C258 1.383 . S
C260 C261 1.402 . S
C260 H275 0.951 . S
C261 C260 1.402 . S
C261 C262 1.375 . S
C261 C264 1.481 . S
C262 C261 1.375 . S
C262 C263 1.367 . S
C262 H276 0.951 . S
C263 C259 1.383 . S
C263 C262 1.367 . S
C263 H277 0.950 . S
C264 C261 1.481 . S
C264 C265 1.297 . S
C264 H278 0.950 . S
C265 C264 1.297 . S
C265 C266 1.479 . S
C265 H279 0.950 . S
C266 C265 1.479 . S
C266 C267 1.375 . S
C266 C272 1.404 . S
C267 C266 1.375 . S
C267 C268 1.369 . S
C267 H280 0.950 . S
C268 C267 1.369 . S
C268 C269 1.392 . S
C268 H281 0.951 . S
C269 C268 1.392 . S
C269 C271 1.384 . S
H270 C272 0.949 . S
C271 C269 1.384 . S
C271 C272 1.385 . S
C271 H273 0.950 . S
C272 C266 1.404 . S
C272 H270 0.949 . S
C272 C271 1.385 . S
H273 C271 0.950 . S
H274 C258 0.951 . S
H275 C260 0.951 . S
H276 C262 0.951 . S
H277 C263 0.950 . S
H278 C264 0.950 . S
H279 C265 0.950 . S
H280 C267 0.950 . S
H281 C268 0.951 . S
C282 C283 1.386 . S
C282 C284 1.383 . S
C282 H298 0.951 . S
C283 C282 1.386 . S
C283 C287 1.383 . S
C284 C282 1.383 . S
C284 C285 1.402 . S
C284 H299 0.951 . S
C285 C284 1.402 . S
C285 C286 1.375 . S
C285 C288 1.481 . S
C286 C285 1.375 . S
C286 C287 1.367 . S
C286 H300 0.951 . S
C287 C283 1.383 . S
C287 C286 1.367 . S
C287 H301 0.950 . S
C288 C285 1.481 . S
C288 C289 1.297 1_556 S
C288 H302 0.969 . S
C289 C288 1.297 1_554 S
C289 C290 1.479 . S
C289 H303 0.950 1_554 S
C290 C289 1.479 . S
C290 C291 1.375 . S
C290 C296 1.404 . S
C291 C290 1.375 . S
C291 C292 1.369 . S
C291 H304 0.950 . S
C292 C291 1.369 . S
C292 C293 1.392 . S
C292 H305 0.951 . S
C293 C292 1.392 . S
C293 C295 1.384 . S
H294 C296 0.949 . S
C295 C293 1.384 . S
C295 C296 1.385 . S
C295 H297 0.950 . S
C296 C290 1.404 . S
C296 H294 0.949 . S
C296 C295 1.385 . S
H297 C295 0.950 . S
H298 C282 0.951 . S
H299 C284 0.951 . S
H300 C286 0.951 . S
H301 C287 0.950 . S
H302 C288 0.969 . S
H303 C289 0.950 1_556 S
H304 C291 0.950 . S
H305 C292 0.951 . S
C306 C307 1.386 . S
C306 C308 1.383 . S
C306 H322 0.951 . S
C307 C306 1.386 . S
C307 C311 1.383 . S
C308 C306 1.383 . S
C308 C309 1.402 . S
C308 H323 0.951 . S
C309 C308 1.402 . S
C309 C310 1.375 . S
C309 C312 1.481 . S
C310 C309 1.375 . S
C310 C311 1.367 . S
C310 H324 0.951 . S
C311 C307 1.383 . S
C311 C310 1.367 . S
C311 H325 0.950 . S
C312 C309 1.481 . S
C312 C313 1.297 . S
C312 H326 0.950 . S
C313 C312 1.297 . S
C313 C314 1.479 . S
C313 H327 0.950 . S
C314 C313 1.479 . S
C314 C315 1.375 . S
C314 C320 1.404 . S
C315 C314 1.375 . S
C315 C316 1.369 . S
C315 H328 0.950 . S
C316 C315 1.369 . S
C316 C317 1.392 . S
C316 H329 0.951 . S
C317 C316 1.392 . S
C317 C319 1.384 . S
H318 C320 0.949 . S
C319 C317 1.384 . S
C319 C320 1.385 . S
C319 H321 0.950 . S
C320 C314 1.404 . S
C320 H318 0.949 . S
C320 C319 1.385 . S
H321 C319 0.950 . S
H322 C306 0.951 . S
H323 C308 0.951 . S
H324 C310 0.951 . S
H325 C311 0.950 . S
H326 C312 0.950 . S
H327 C313 0.950 . S
H328 C315 0.950 . S
H329 C316 0.951 . S
C330 C331 1.386 . S
C330 C332 1.383 . S
C330 H346 0.951 . S
C331 C330 1.386 . S
C331 C335 1.383 . S
C332 C330 1.383 . S
C332 C333 1.402 . S
C332 H347 0.951 . S
C333 C332 1.402 . S
C333 C334 1.375 . S
C333 C336 1.481 . S
C334 C333 1.375 . S
C334 C335 1.367 . S
C334 H348 0.951 . S
C335 C331 1.383 . S
C335 C334 1.367 . S
C335 H349 0.950 . S
C336 C333 1.481 . S
C336 C337 1.297 . S
C336 H350 0.950 . S
C337 C336 1.297 . S
C337 C338 1.479 . S
C337 H351 0.950 . S
C338 C337 1.479 . S
C338 C339 1.375 . S
C338 C344 1.404 . S
C339 C338 1.375 . S
C339 C340 1.369 . S
C339 H352 0.950 . S
C340 C339 1.369 . S
C340 C341 1.392 . S
C340 H353 0.951 . S
C341 C340 1.392 . S
C341 C343 1.384 . S
H342 C344 0.949 . S
C343 C341 1.384 . S
C343 C344 1.385 . S
C343 H345 0.950 . S
C344 C338 1.404 . S
C344 H342 0.949 . S
C344 C343 1.385 . S
H345 C343 0.950 . S
H346 C330 0.951 . S
H347 C332 0.951 . S
H348 C334 0.951 . S
H349 C335 0.950 . S
H350 C336 0.950 . S
H351 C337 0.950 . S
H352 C339 0.950 . S
H353 C340 0.951 . S
C354 C355 1.386 . S
C354 C356 1.383 . S
C354 H370 0.951 . S
C355 C354 1.386 . S
C355 C359 1.383 . S
C356 C354 1.383 . S
C356 C357 1.402 . S
C356 H371 0.951 . S
C357 C356 1.402 . S
C357 C358 1.375 . S
C357 C360 1.481 . S
C358 C357 1.375 . S
C358 C359 1.367 . S
C358 H372 0.951 . S
C359 C355 1.383 . S
C359 C358 1.367 . S
C359 H373 0.950 . S
C360 C357 1.481 . S
C360 C361 1.297 1_556 S
C360 H374 0.950 1_556 S
C361 C360 1.297 1_554 S
C361 C362 1.479 . S
C361 H375 0.950 1_554 S
C362 C361 1.479 . S
C362 C363 1.375 . S
C362 C368 1.404 . S
C363 C362 1.375 . S
C363 C364 1.369 . S
C363 H376 0.950 . S
C364 C363 1.369 . S
C364 C365 1.392 . S
C364 H377 0.951 . S
C365 C364 1.392 . S
C365 C367 1.384 . S
H366 C368 0.949 . S
C367 C365 1.384 . S
C367 C368 1.385 . S
C367 H369 0.950 . S
C368 C362 1.404 . S
C368 H366 0.949 . S
C368 C367 1.385 . S
H369 C367 0.950 . S
H370 C354 0.951 . S
H371 C356 0.951 . S
H372 C358 0.951 . S
H373 C359 0.950 . S
H374 C360 0.950 1_554 S
H375 C361 0.950 1_556 S
H376 C363 0.950 . S
H377 C364 0.951 . S
C378 C379 1.386 . S
C378 C380 1.383 . S
C378 H394 0.951 . S
C379 C378 1.386 . S
C379 C383 1.383 . S
C380 C378 1.383 . S
C380 C381 1.402 . S
C380 H395 0.951 . S
C381 C380 1.402 . S
C381 C382 1.375 . S
C381 C384 1.481 . S
C382 C381 1.375 . S
C382 C383 1.367 . S
C382 H396 0.951 . S
C383 C379 1.383 . S
C383 C382 1.367 . S
C383 H397 0.950 . S
C384 C381 1.481 . S
C384 C385 1.297 . S
C384 H398 0.950 . S
C385 C384 1.297 . S
C385 C386 1.479 . S
C385 H399 0.950 . S
C386 C385 1.479 . S
C386 C387 1.375 . S
C386 C392 1.404 . S
C387 C386 1.375 . S
C387 C388 1.369 . S
C387 H400 0.950 . S
C388 C387 1.369 . S
C388 C389 1.392 . S
C388 H401 0.951 . S
C389 C388 1.392 . S
C389 C391 1.384 . S
H390 C392 0.949 . S
C391 C389 1.384 . S
C391 C392 1.385 . S
C391 H393 0.950 . S
C392 C386 1.404 . S
C392 H390 0.949 . S
C392 C391 1.385 . S
H393 C391 0.950 . S
H394 C378 0.951 . S
H395 C380 0.951 . S
H396 C382 0.951 . S
H397 C383 0.950 . S
H398 C384 0.950 . S
H399 C385 0.950 . S
H400 C387 0.950 . S
H401 C388 0.951 . S
C402 C403 1.386 . S
C402 C404 1.383 . S
C402 H418 0.951 . S
C403 C402 1.386 . S
C403 C407 1.383 . S
C404 C402 1.383 . S
C404 C405 1.402 . S
C404 H419 0.951 . S
C405 C404 1.402 . S
C405 C406 1.375 . S
C405 C408 1.481 . S
C406 C405 1.375 . S
C406 C407 1.367 . S
C406 H420 0.951 . S
C407 C403 1.383 . S
C407 C406 1.367 . S
C407 H421 0.950 . S
C408 C405 1.481 . S
C408 C409 1.297 . S
C408 H422 0.950 . S
C409 C408 1.297 . S
C409 C410 1.479 . S
C409 H423 0.950 . S
C410 C409 1.479 . S
C410 C411 1.375 . S
C410 C416 1.404 . S
C411 C410 1.375 . S
C411 C412 1.369 . S
C411 H424 0.950 . S
C412 C411 1.369 . S
C412 C413 1.392 . S
C412 H425 0.951 . S
C413 C412 1.392 . S
C413 C415 1.384 . S
H414 C416 0.949 . S
C415 C413 1.384 . S
C415 C416 1.385 . S
C415 H417 0.950 . S
C416 C410 1.404 . S
C416 H414 0.949 . S
C416 C415 1.385 . S
H417 C415 0.950 . S
H418 C402 0.951 . S
H419 C404 0.951 . S
H420 C406 0.951 . S
H421 C407 0.950 . S
H422 C408 0.950 . S
H423 C409 0.950 . S
H424 C411 0.950 . S
H425 C412 0.951 . S
C139 N12 1.490 . S
C149 N81 1.497 . S
C163 C39 1.676 . S
C173 C108 1.713 . S
C187 N58 1.335 . S
C197 N127 1.370 . S
C211 C30 1.776 . S
C221 C99 1.789 . S
C235 N117 1.485 . S
C245 N48 1.514 . S
C259 N71 1.377 . S
C269 N2 1.408 . S
C283 C62 1.888 . S
C293 C7 1.945 . S
C307 C85 1.937 . S
C317 N25 1.886 . S
C331 C53 1.973 . S
C341 N104 1.942 . S
C355 C131 1.893 . S
C365 C76 1.948 . S
C379 N94 1.823 . S
C389 C16 1.909 . S
C403 C122 1.968 . S
C413 N35 1.933 . S
