# Generated by pormake.
# Topology uog, (4)-cn, num edge types: 1
# Building blocks:
#     Node 0, Type 0, BuildingBlock: ESEHIV_clean_sbu_0, # of connection points: 4
#     Node 1, Type 0, BuildingBlock: ESEHIV_clean_sbu_0, # of connection points: 4
#     Node 2, Type 0, BuildingBlock: ESEHIV_clean_sbu_0, # of connection points: 4
#     Node 3, Type 0, BuildingBlock: ESEHIV_clean_sbu_0, # of connection points: 4
#     Node 4, Type 0, BuildingBlock: ESEHIV_clean_sbu_0, # of connection points: 4
#     Node 5, Type 0, BuildingBlock: ESEHIV_clean_sbu_0, # of connection points: 4
#     Edge 6, Type (0, 0), BuildingBlock: UVAHIK_clean_linker_0, # of connection points: 2
#     Edge 7, Type (0, 0), BuildingBlock: UVAHIK_clean_linker_0, # of connection points: 2
#     Edge 8, Type (0, 0), BuildingBlock: UVAHIK_clean_linker_0, # of connection points: 2
#     Edge 9, Type (0, 0), BuildingBlock: UVAHIK_clean_linker_0, # of connection points: 2
#     Edge 10, Type (0, 0), BuildingBlock: UVAHIK_clean_linker_0, # of connection points: 2
#     Edge 11, Type (0, 0), BuildingBlock: UVAHIK_clean_linker_0, # of connection points: 2
#     Edge 12, Type (0, 0), BuildingBlock: UVAHIK_clean_linker_0, # of connection points: 2
#     Edge 13, Type (0, 0), BuildingBlock: UVAHIK_clean_linker_0, # of connection points: 2
#     Edge 14, Type (0, 0), BuildingBlock: UVAHIK_clean_linker_0, # of connection points: 2
#     Edge 15, Type (0, 0), BuildingBlock: UVAHIK_clean_linker_0, # of connection points: 2
#     Edge 16, Type (0, 0), BuildingBlock: UVAHIK_clean_linker_0, # of connection points: 2
#     Edge 17, Type (0, 0), BuildingBlock: UVAHIK_clean_linker_0, # of connection points: 2
# Relax obj value: 0.017
# Max RMSD: 0.193
# Mean RMSD: 0.147
data_MOF--net-uog--node1-ESEHIV_clean_sbu_0--edge1-UVAHIK_clean_linker_0
_symmetry_space_group_name_H-M    P1
_symmetry_Int_Tables_number       1
_symmetry_cell_setting            triclinic
loop_
_symmetry_equiv_pos_as_xyz
'x, y, z'
_cell_length_a     37.085679
_cell_length_b     43.06485
_cell_length_c     57.233907
_cell_angle_alpha  90.162824
_cell_angle_beta   90.292002
_cell_angle_gamma 115.57741
loop_
_atom_site_label
_atom_site_type_symbol
_atom_site_fract_x
_atom_site_fract_y
_atom_site_fract_z
_atom_type_partial_charge
Cu0 Cu 0.56744 0.2848 0.17706 0.0
N1 N 0.53282 0.30472 0.17078 0.0
N2 N 0.51127 0.34541 0.16686 0.0
C3 C 0.53941 0.33715 0.1762 0.0
C4 C 0.48593 0.31708 0.15515 0.0
C5 C 0.49924 0.29191 0.15769 0.0
O6 O 0.59953 0.30843 0.20399 0.0
C7 C 0.58115 0.27023 0.13166 0.0
O8 O 0.54364 0.24781 0.1338 0.0
H9 H 0.56549 0.3549 0.18575 0.0
H10 H 0.48614 0.26648 0.1499 0.0
N11 N 0.53839 0.23834 0.18417 0.0
N12 N 0.5218 0.18206 0.18735 0.0
C13 C 0.5505 0.21328 0.18138 0.0
C14 C 0.50085 0.22268 0.19227 0.0
C15 C 0.4905 0.18798 0.19425 0.0
C16 C 0.62367 0.29908 0.21426 0.0
O17 O 0.62982 0.27359 0.20546 0.0
H18 H 0.57985 0.21807 0.17503 0.0
H19 H 0.48215 0.23555 0.19613 0.0
O20 O 0.59882 0.28933 0.14907 0.0
H21 H 0.46016 0.31499 0.1451 0.0
H22 H 0.46177 0.16862 0.19982 0.0
Cu23 Cu 0.33308 0.59779 0.51006 0.0
N24 N 0.34013 0.62796 0.48532 0.0
N25 N 0.34872 0.65024 0.44943 0.0
C26 C 0.34855 0.62441 0.46287 0.0
C27 C 0.34043 0.67087 0.4641 0.0
C28 C 0.33518 0.65707 0.48619 0.0
O29 O 0.36146 0.56998 0.50288 0.0
C30 C 0.25035 0.56562 0.49921 0.0
O31 O 0.26336 0.57353 0.47775 0.0
H32 H 0.353 0.60267 0.45642 0.0
H33 H 0.32762 0.66719 0.50178 0.0
N34 N 0.35805 0.6244 0.53625 0.0
N35 N 0.37237 0.64563 0.57262 0.0
C36 C 0.34415 0.62305 0.55813 0.0
C37 C 0.39612 0.64843 0.53686 0.0
C38 C 0.40506 0.66155 0.55917 0.0
C39 C 0.37145 0.55488 0.51903 0.0
O40 O 0.35768 0.55439 0.5402 0.0
H41 H 0.31409 0.60577 0.56324 0.0
H42 H 0.41619 0.6554 0.52213 0.0
O43 O 0.27568 0.57181 0.51579 0.0
H44 H 0.33826 0.69429 0.45926 0.0
H45 H 0.43387 0.68069 0.56508 0.0
Cu46 Cu 0.74795 0.27608 0.8564 0.0
N47 N 0.73417 0.22964 0.85141 0.0
N48 N 0.69712 0.17306 0.84777 0.0
C49 C 0.69938 0.20284 0.85679 0.0
C50 C 0.73183 0.18144 0.83639 0.0
C51 C 0.75468 0.2164 0.83872 0.0
O52 O 0.72134 0.28058 0.88449 0.0
C53 C 0.73398 0.322 0.82469 0.0
O54 O 0.74605 0.34518 0.84148 0.0
H55 H 0.67533 0.20542 0.86595 0.0
H56 H 0.78351 0.23138 0.83091 0.0
N57 N 0.80318 0.29915 0.86048 0.0
N58 N 0.86549 0.34097 0.86097 0.0
C59 C 0.82761 0.33105 0.85329 0.0
C60 C 0.82635 0.28828 0.87292 0.0
C61 C 0.86485 0.31399 0.87323 0.0
C62 C 0.73656 0.3065 0.89814 0.0
O63 O 0.76989 0.3328 0.89217 0.0
H64 H 0.81764 0.34687 0.84297 0.0
H65 H 0.81567 0.26376 0.88173 0.0
O66 O 0.73196 0.29219 0.82838 0.0
H67 H 0.73965 0.1637 0.82661 0.0
H68 H 0.88996 0.31336 0.88257 0.0
Cu69 Cu 0.48755 0.75245 0.16827 0.0
N70 N 0.51802 0.72893 0.1609 0.0
N71 N 0.536 0.686 0.157 0.0
C72 C 0.51454 0.69869 0.16949 0.0
C73 C 0.5539 0.70927 0.14009 0.0
C74 C 0.54275 0.73571 0.14255 0.0
O75 O 0.4636 0.73911 0.19889 0.0
C76 C 0.43384 0.71637 0.13169 0.0
O77 O 0.43951 0.69002 0.13922 0.0
H78 H 0.49441 0.68503 0.18345 0.0
H79 H 0.55026 0.75741 0.13098 0.0
N80 N 0.52052 0.79951 0.1695 0.0
N81 N 0.53953 0.85621 0.17167 0.0
C82 C 0.50839 0.82468 0.17144 0.0
C83 C 0.56068 0.81555 0.1686 0.0
C84 C 0.57251 0.85058 0.16984 0.0
C85 C 0.43584 0.71009 0.20445 0.0
O86 O 0.41962 0.68617 0.18836 0.0
H87 H 0.47728 0.81989 0.17232 0.0
H88 H 0.58 0.8027 0.16721 0.0
O89 O 0.44949 0.74474 0.14291 0.0
H90 H 0.57243 0.70666 0.12638 0.0
H91 H 0.603 0.87031 0.16975 0.0
Cu92 Cu 0.74656 0.42943 0.51803 0.0
N93 N 0.7401 0.40216 0.4914 0.0
N94 N 0.73177 0.3823 0.45462 0.0
C95 C 0.73104 0.40682 0.46922 0.0
C96 C 0.74146 0.36146 0.46825 0.0
C97 C 0.74671 0.37383 0.49078 0.0
O98 O 0.71257 0.45358 0.51672 0.0
C99 C 0.82589 0.44562 0.53043 0.0
O100 O 0.80898 0.41376 0.53795 0.0
H101 H 0.72508 0.42815 0.46378 0.0
H102 H 0.75521 0.3631 0.50573 0.0
N103 N 0.72739 0.40002 0.54362 0.0
N104 N 0.71484 0.37955 0.58005 0.0
C105 C 0.73645 0.40693 0.56647 0.0
C106 C 0.69878 0.36749 0.54274 0.0
C107 C 0.69109 0.35476 0.56508 0.0
C108 C 0.71091 0.4747 0.50171 0.0
O109 O 0.73669 0.48491 0.48452 0.0
H110 H 0.7585 0.43149 0.57291 0.0
H111 H 0.68392 0.35417 0.52693 0.0
O112 O 0.80395 0.45872 0.52159 0.0
H113 H 0.74446 0.33877 0.46245 0.0
H114 H 0.6689 0.32947 0.56991 0.0
Cu115 Cu 0.30886 0.74196 0.84927 0.0
N116 N 0.32353 0.78732 0.84038 0.0
N117 N 0.35964 0.84385 0.83609 0.0
C118 C 0.35436 0.81574 0.84865 0.0
C119 C 0.33093 0.83268 0.81941 0.0
C120 C 0.30862 0.79778 0.82216 0.0
O121 O 0.33383 0.74122 0.87896 0.0
C122 C 0.35431 0.73361 0.81235 0.0
O123 O 0.38053 0.76451 0.81872 0.0
H124 H 0.37389 0.81547 0.86269 0.0
H125 H 0.28425 0.7809 0.8111 0.0
N126 N 0.2538 0.71986 0.85306 0.0
N127 N 0.19205 0.67751 0.85505 0.0
C128 C 0.23069 0.68604 0.85001 0.0
C129 C 0.22913 0.73342 0.86016 0.0
C130 C 0.19091 0.70732 0.86137 0.0
C131 C 0.32694 0.71308 0.88922 0.0
O132 O 0.30519 0.68384 0.87851 0.0
H133 H 0.24218 0.66812 0.84422 0.0
H134 H 0.23844 0.76026 0.8645 0.0
O135 O 0.32262 0.71857 0.82425 0.0
H136 H 0.32697 0.84849 0.80589 0.0
H137 H 0.16461 0.71 0.86708 0.0
C138 C 0.49704 0.12079 0.19874 0.0
C139 C 0.52379 0.14929 0.18604 0.0
C140 C 0.4987 0.08902 0.19727 0.0
C141 C 0.53757 0.0395 0.16017 0.0
H142 H 0.51892 0.98277 0.21538 0.0
C143 C 0.56745 0.91845 0.16308 0.0
C144 C 0.53788 0.88897 0.17345 0.0
C145 C 0.56566 0.95016 0.16463 0.0
C146 C 0.52386 0.99821 0.19977 0.0
H147 H 0.57324 0.1662 0.16166 0.0
H148 H 0.57701 0.11142 0.15979 0.0
H149 H 0.51632 0.03828 0.21818 0.0
H150 H 0.48361 0.86981 0.19391 0.0
H151 H 0.48045 0.92518 0.19661 0.0
H152 H 0.54568 0.99953 0.14189 0.0
C153 C 0.55421 0.11344 0.17059 0.0
C154 C 0.52228 0.03 0.20134 0.0
C155 C 0.55239 0.14513 0.17193 0.0
C156 C 0.50662 0.89196 0.18554 0.0
C157 C 0.50502 0.92373 0.18728 0.0
C158 C 0.53946 1.00784 0.15866 0.0
C159 C 0.52732 0.08492 0.18318 0.0
C160 C 0.52907 0.05106 0.18155 0.0
C161 C 0.53446 0.95315 0.17678 0.0
C162 C 0.53257 0.98683 0.17843 0.0
H163 H 0.47486 0.12293 0.20997 0.0
H164 H 0.47718 0.06755 0.207 0.0
H165 H 0.54223 0.05468 0.14447 0.0
H166 H 0.5917 0.91692 0.15348 0.0
H167 H 0.58895 0.97244 0.15652 0.0
C168 C 0.42499 0.55045 0.49419 0.0
C169 C 0.40295 0.54281 0.51505 0.0
C170 C 0.45795 0.54284 0.49175 0.0
C171 C 0.53164 0.52691 0.52793 0.0
H172 H 0.55802 0.4958 0.46962 0.0
C173 C 0.6524 0.47649 0.52247 0.0
C174 C 0.67786 0.48548 0.50301 0.0
C175 C 0.61981 0.48466 0.52335 0.0
C176 C 0.55135 0.50489 0.48596 0.0
H177 H 0.39727 0.51963 0.54923 0.0
H178 H 0.45388 0.50573 0.54481 0.0
H179 H 0.49817 0.50594 0.47189 0.0
H180 H 0.68897 0.5105 0.46924 0.0
H181 H 0.63197 0.52491 0.47083 0.0
H182 H 0.58454 0.52564 0.54205 0.0
C183 C 0.44646 0.51842 0.53052 0.0
C184 C 0.51697 0.51067 0.48728 0.0
C185 C 0.41368 0.52612 0.53299 0.0
C186 C 0.67007 0.50325 0.48453 0.0
C187 C 0.63721 0.51127 0.48536 0.0
C188 C 0.56585 0.52104 0.52662 0.0
C189 C 0.46962 0.52733 0.51009 0.0
C190 C 0.50646 0.5215 0.50835 0.0
C191 C 0.61157 0.50195 0.50477 0.0
C192 C 0.57604 0.5097 0.50569 0.0
H193 H 0.4177 0.56344 0.48004 0.0
H194 H 0.47513 0.55028 0.47581 0.0
H195 H 0.52517 0.53605 0.5443 0.0
H196 H 0.65733 0.46272 0.53702 0.0
H197 H 0.60049 0.47669 0.53845 0.0
C198 C 0.89212 0.40384 0.85496 0.0
C199 C 0.89872 0.37437 0.85843 0.0
C200 C 0.92425 0.43638 0.85348 0.0
C201 C 1.03004 0.48393 0.8705 0.0
H202 H 1.02911 0.55118 0.82586 0.0
C203 C 0.16656 0.61421 0.85725 0.0
C204 C 0.15935 0.64351 0.85465 0.0
C205 C 0.13498 0.58128 0.85704 0.0
C206 C 1.02961 0.5328 0.83859 0.0
H207 H 0.94443 0.35605 0.86242 0.0
H208 H 1.00053 0.41288 0.85986 0.0
H209 H 0.97383 0.49366 0.82629 0.0
H210 H 0.11311 0.66097 0.84954 0.0
H211 H 0.05786 0.60349 0.84962 0.0
H212 H 0.08564 0.52306 0.88291 0.0
C213 C 0.97042 0.4108 0.85862 0.0
C214 C 0.99797 0.49984 0.83881 0.0
C215 C 0.93827 0.37822 0.86009 0.0
C216 C 0.11972 0.63903 0.85179 0.0
C217 C 0.08808 0.60604 0.85157 0.0
C218 C 0.06164 0.51687 0.87028 0.0
C219 C 0.96375 0.44027 0.85547 0.0
C220 C 0.9978 0.47505 0.8548 0.0
C221 C 0.09536 0.57679 0.85425 0.0
C222 C 0.06178 0.54171 0.85435 0.0
H223 H 0.86212 0.40199 0.85401 0.0
H224 H 0.91806 0.45861 0.8514 0.0
H225 H 1.03048 0.46562 0.8833 0.0
H226 H 0.19659 0.61664 0.85979 0.0
H227 H 0.14166 0.55928 0.85891 0.0
C228 C 0.18154 0.55603 0.48663 0.0
C229 C 0.20698 0.55325 0.504 0.0
C230 C 0.14114 0.54648 0.49116 0.0
C231 C 0.05768 0.49114 0.52744 0.0
H232 H 1.01094 0.553 0.51033 0.0
C233 C 0.8923 0.45524 0.54695 0.0
C234 C 0.87013 0.46406 0.53048 0.0
C235 C 0.93393 0.46883 0.54551 0.0
C236 C 1.02322 0.53514 0.51495 0.0
H237 H 0.20952 0.53766 0.53972 0.0
H238 H 0.13831 0.51999 0.54743 0.0
H239 H 0.08205 0.57026 0.50408 0.0
H240 H 0.87431 0.49475 0.49985 0.0
H241 H 0.9469 0.5176 0.49668 0.0
H242 H 0.999 0.45533 0.53735 0.0
C243 C 0.15002 0.52993 0.53036 0.0
C244 C 0.06411 0.54517 0.51147 0.0
C245 C 0.19076 0.54007 0.52595 0.0
C246 C 0.89065 0.48774 0.51293 0.0
C247 C 0.93238 0.50087 0.51118 0.0
C248 C 1.01669 0.48085 0.53057 0.0
C249 C 0.12489 0.5334 0.51307 0.0
C250 C 0.08177 0.52325 0.51762 0.0
C251 C 0.95461 0.49107 0.52721 0.0
C252 C 0.99873 0.50265 0.52437 0.0
H253 H 0.19296 0.5662 0.46955 0.0
H254 H 0.12246 0.54908 0.47741 0.0
H255 H 0.07033 0.47352 0.53207 0.0
H256 H 0.87733 0.43729 0.56083 0.0
H257 H 0.94977 0.46141 0.55865 0.0
C258 C 0.40943 0.89713 0.8184 0.0
C259 C 0.39187 0.87777 0.83836 0.0
C260 C 0.44159 0.92959 0.82046 0.0
C261 C 0.51991 0.98571 0.86258 0.0
H262 H 0.53328 0.05548 0.81636 0.0
C263 C 0.63894 0.12881 0.86787 0.0
C264 C 0.66298 0.14008 0.84792 0.0
C265 C 0.60532 0.09697 0.8678 0.0
C266 C 0.52987 0.03617 0.82935 0.0
H267 H 0.39349 0.87731 0.87612 0.0
H268 H 0.44866 0.9347 0.87995 0.0
H269 H 0.47451 1.00028 0.81457 0.0
H270 H 0.67053 0.12733 0.81221 0.0
H271 H 0.61121 0.07201 0.81189 0.0
H272 H 0.57502 0.0225 0.87765 0.0
C273 C 0.43854 0.92448 0.8626 0.0
C274 C 0.49636 1.0044 0.82828 0.0
C275 C 0.40678 0.89167 0.86048 0.0
C276 C 0.65272 0.11906 0.82788 0.0
C277 C 0.6187 0.08762 0.82764 0.0
C278 C 0.55306 0.01779 0.8639 0.0
C279 C 0.45658 0.94385 0.84259 0.0
C280 C 0.49118 0.97847 0.84465 0.0
C281 C 0.59473 0.07629 0.84759 0.0
C282 C 0.55858 0.04307 0.84709 0.0
H283 H 0.39895 0.88673 0.80113 0.0
H284 H 0.45516 0.94315 0.80461 0.0
H285 H 0.51744 0.96635 0.8753 0.0
H286 H 0.64639 0.14456 0.88354 0.0
H287 H 0.58718 0.08876 0.88336 0.0
C288 C 0.53325 0.63743 0.18094 0.0
C289 C 0.53484 0.6523 0.15896 0.0
C290 C 0.53139 0.60437 0.18273 0.0
C291 C 0.54651 0.53767 0.14757 0.0
H292 H 0.48452 0.47678 0.19692 0.0
C293 C 0.50032 0.39145 0.14708 0.0
C294 C 0.51125 0.37879 0.16716 0.0
C295 C 0.50301 0.42482 0.14683 0.0
C296 C 0.50206 0.49365 0.18314 0.0
H297 H 0.53449 0.64402 0.12162 0.0
H298 H 0.52976 0.58613 0.12454 0.0
H299 H 0.48985 0.53526 0.19495 0.0
H300 H 0.53224 0.39045 0.20291 0.0
H301 H 0.53595 0.44874 0.20269 0.0
H302 H 0.55731 0.49539 0.13534 0.0
C303 C 0.53157 0.60023 0.14053 0.0
C304 C 0.5054 0.52723 0.18205 0.0
C305 C 0.53414 0.63343 0.1388 0.0
C306 C 0.52385 0.39975 0.1872 0.0
C307 C 0.52578 0.43291 0.18711 0.0
C308 C 0.54253 0.50395 0.14843 0.0
C309 C 0.53034 0.58523 0.16251 0.0
C310 C 0.52758 0.5497 0.16418 0.0
C311 C 0.51593 0.44587 0.16681 0.0
C312 C 0.52022 0.48163 0.16617 0.0
H313 H 0.53395 0.65161 0.19673 0.0
H314 H 0.53116 0.59401 0.19996 0.0
H315 H 0.56468 0.55433 0.1339 0.0
H316 H 0.49089 0.37592 0.13134 0.0
H317 H 0.49509 0.43424 0.131 0.0
C318 C 0.73938 0.33183 0.938 0.0
C319 C 0.71958 0.3053 0.9217 0.0
C320 C 0.72563 0.32916 0.96096 0.0
C321 C 0.66476 0.26385 1.00395 0.0
H322 H 0.66628 0.34227 0.03816 0.0
C323 C 0.58244 0.2498 0.09096 0.0
C324 C 0.60108 0.27411 0.10877 0.0
C325 C 0.59931 0.25409 0.06878 0.0
C326 C 0.6662 0.32024 0.02893 0.0
H327 H 0.66884 0.25574 0.91653 0.0
H328 H 0.64446 0.25139 0.95639 0.0
H329 H 0.68929 0.34934 0.99776 0.0
H330 H 0.65253 0.3218 0.11735 0.0
H331 H 0.68216 0.32935 0.07838 0.0
H332 H 0.64125 0.23467 0.03499 0.0
C333 C 0.67116 0.27395 0.9516 0.0
C334 C 0.67931 0.32427 1.00576 0.0
C335 C 0.68495 0.27657 0.92866 0.0
C336 C 0.63747 0.3026 0.104 0.0
C337 C 0.65427 0.30704 0.08166 0.0
C338 C 0.65158 0.25982 0.02704 0.0
C339 C 0.69171 0.29993 0.96815 0.0
C340 C 0.67839 0.29602 0.99291 0.0
C341 C 0.6352 0.2829 0.06377 0.0
C342 C 0.65178 0.28788 0.03975 0.0
H343 H 0.7662 0.3543 0.93325 0.0
H344 H 0.74236 0.34954 0.97327 0.0
H345 H 0.66452 0.24172 0.99479 0.0
H346 H 0.5544 0.22753 0.09402 0.0
H347 H 0.5836 0.23523 0.05535 0.0
C348 C 0.39393 0.67081 0.23609 0.0
C349 C 0.42361 0.70301 0.22924 0.0
C350 C 0.38361 0.66401 0.25966 0.0
C351 C 0.3904 0.70766 0.31664 0.0
H352 H 0.37206 0.61908 0.34265 0.0
C353 C 0.33743 0.672 0.41145 0.0
C354 C 0.35483 0.65435 0.42453 0.0
C355 C 0.34378 0.67654 0.38741 0.0
C356 C 0.37735 0.64403 0.3357 0.0
H357 H 0.46561 0.75334 0.24188 0.0
H358 H 0.44802 0.74139 0.28278 0.0
H359 H 0.38725 0.63001 0.3012 0.0
H360 H 0.39254 0.62755 0.42247 0.0
H361 H 0.40404 0.63577 0.38052 0.0
H362 H 0.38175 0.72213 0.35117 0.0
C363 C 0.43222 0.72151 0.26997 0.0
C364 C 0.38556 0.65015 0.31186 0.0
C365 C 0.44248 0.7283 0.24647 0.0
C366 C 0.37839 0.64097 0.41289 0.0
C367 C 0.38489 0.64564 0.38882 0.0
C368 C 0.38227 0.70158 0.34044 0.0
C369 C 0.40273 0.68927 0.2769 0.0
C370 C 0.39244 0.68213 0.30206 0.0
C371 C 0.36786 0.66368 0.37579 0.0
C372 C 0.37579 0.66974 0.35031 0.0
H373 H 0.37877 0.65075 0.22327 0.0
H374 H 0.36044 0.63904 0.26434 0.0
H375 H 0.39505 0.73245 0.30966 0.0
H376 H 0.31846 0.68202 0.41974 0.0
H377 H 0.32951 0.68995 0.37789 0.0
C378 C 0.70999 0.30512 0.78364 0.0
C379 C 0.72627 0.331 0.80079 0.0
C380 C 0.70568 0.31343 0.76058 0.0
C381 C 0.74721 0.38399 0.71839 0.0
H382 H 0.65602 0.32409 0.68099 0.0
C383 C 0.72929 0.40659 0.6195 0.0
C384 C 0.71593 0.37703 0.60519 0.0
C385 C 0.72906 0.40371 0.6439 0.0
C386 C 0.68179 0.34098 0.69116 0.0
H387 H 0.74993 0.38596 0.80718 0.0
H388 H 0.74224 0.40051 0.76669 0.0
H389 H 0.65678 0.3144 0.72287 0.0
H390 H 0.6933 0.3214 0.6055 0.0
H391 H 0.69271 0.31644 0.64773 0.0
H392 H 0.77248 0.41018 0.68649 0.0
C393 C 0.7331 0.37377 0.77119 0.0
C394 C 0.68221 0.33545 0.71517 0.0
C395 C 0.73723 0.3654 0.7944 0.0
C396 C 0.70292 0.34466 0.61588 0.0
C397 C 0.70257 0.3418 0.64016 0.0
C398 C 0.74678 0.38956 0.69431 0.0
C399 C 0.7176 0.34786 0.75398 0.0
C400 C 0.71529 0.35639 0.729 0.0
C401 C 0.71533 0.37121 0.65449 0.0
C402 C 0.71443 0.36761 0.68035 0.0
H403 H 0.70123 0.27835 0.78792 0.0
H404 H 0.69415 0.29287 0.74774 0.0
H405 H 0.77331 0.40041 0.7285 0.0
H406 H 0.73916 0.4319 0.61193 0.0
H407 H 0.73889 0.42686 0.65446 0.0
C408 C 0.35736 0.74426 0.9266 0.0
C409 C 0.33953 0.71324 0.91388 0.0
C410 C 0.36616 0.74413 0.95038 0.0
C411 C 0.38262 0.69165 0.99638 0.0
H412 H 0.35591 0.74918 0.03852 0.0
C413 C 0.39824 0.68335 0.09599 0.0
C414 C 0.41544 0.71467 0.10838 0.0
C415 C 0.38588 0.6824 0.07277 0.0
C416 C 0.36391 0.7332 0.02698 0.0
H417 H 0.31788 0.65781 0.91613 0.0
H418 H 0.33342 0.65764 0.95757 0.0
H419 H 0.3427 0.74963 0.99674 0.0
H420 H 0.43163 0.76938 0.10633 0.0
H421 H 0.4106 0.76781 0.06579 0.0
H422 H 0.40437 0.67555 0.02646 0.0
C423 C 0.34067 0.68207 0.94912 0.0
C424 C 0.35636 0.73349 1.00303 0.0
C425 C 0.33166 0.68218 0.92537 0.0
C426 C 0.41838 0.74479 0.09733 0.0
C427 C 0.40621 0.74386 0.07406 0.0
C428 C 0.39035 0.69148 0.0203 0.0
C429 C 0.35757 0.71301 0.96197 0.0
C430 C 0.36569 0.71275 0.98744 0.0
C431 C 0.39061 0.71277 0.06132 0.0
C432 C 0.38113 0.71227 0.03593 0.0
H433 H 0.36385 0.76867 0.9183 0.0
H434 H 0.37972 0.76844 0.9597 0.0
H435 H 0.39063 0.67571 0.98481 0.0
H436 H 0.39526 0.65962 0.10401 0.0
H437 H 0.37316 0.65787 0.06369 0.0
C438 C 0.70164 0.39377 0.41875 0.0
C439 C 0.72471 0.37917 0.42967 0.0
C440 C 0.6939 0.38967 0.39469 0.0
C441 C 0.7281 0.36496 0.33954 0.0
H442 H 0.62065 0.34352 0.31795 0.0
C443 C 0.66647 0.30326 0.24936 0.0
C444 C 0.64107 0.31432 0.23726 0.0
C445 C 0.67983 0.3153 0.27197 0.0
C446 C 0.65097 0.34997 0.32362 0.0
H447 H 0.75881 0.34978 0.42345 0.0
H448 H 0.74441 0.34182 0.38192 0.0
H449 H 0.63778 0.35699 0.35905 0.0
H450 H 0.61101 0.34775 0.23918 0.0
H451 H 0.6344 0.36874 0.27857 0.0
H452 H 0.7409 0.35704 0.30414 0.0
C453 C 0.73261 0.35678 0.39183 0.0
C454 C 0.66083 0.35775 0.34721 0.0
C455 C 0.74039 0.36093 0.41582 0.0
C456 C 0.6304 0.33855 0.24802 0.0
C457 C 0.6436 0.35045 0.27066 0.0
C458 C 0.71818 0.35701 0.31597 0.0
C459 C 0.70906 0.3709 0.38095 0.0
C460 C 0.6994 0.36496 0.35554 0.0
C461 C 0.66796 0.33857 0.28304 0.0
C462 C 0.67938 0.34908 0.30778 0.0
H463 H 0.68889 0.40782 0.42883 0.0
H464 H 0.67601 0.40123 0.38685 0.0
H465 H 0.75831 0.37101 0.34524 0.0
H466 H 0.67528 0.28463 0.2416 0.0
H467 H 0.69832 0.30543 0.2811 0.0
C468 C 0.39068 0.73778 0.77486 0.0
C469 C 0.35873 0.71874 0.78973 0.0
C470 C 0.39247 0.7258 0.75238 0.0
C471 C 0.32715 0.66807 0.70639 0.0
H472 H 0.42827 0.68684 0.67686 0.0
C473 C 0.33983 0.62603 0.61114 0.0
C474 C 0.36928 0.65119 0.59733 0.0
C475 C 0.33795 0.63125 0.63521 0.0
C476 C 0.3998 0.68155 0.68484 0.0
H477 H 0.3045 0.67133 0.79293 0.0
H478 H 0.30807 0.6501 0.75384 0.0
H479 H 0.42703 0.70021 0.71817 0.0
H480 H 0.41889 0.70217 0.5982 0.0
H481 H 0.41588 0.71089 0.6399 0.0
H482 H 0.30005 0.64952 0.67291 0.0
C483 C 0.33132 0.67468 0.7594 0.0
C484 C 0.39907 0.68926 0.70852 0.0
C485 C 0.32945 0.68674 0.7819 0.0
C486 C 0.39638 0.68181 0.6082 0.0
C487 C 0.39467 0.68689 0.6322 0.0
C488 C 0.32787 0.66015 0.68271 0.0
C489 C 0.36247 0.69437 0.74419 0.0
C490 C 0.36283 0.68321 0.71953 0.0
C491 C 0.36562 0.66163 0.64602 0.0
C492 C 0.36429 0.6674 0.67157 0.0
H493 H 0.41369 0.76258 0.78027 0.0
H494 H 0.41665 0.7419 0.74111 0.0
H495 H 0.29873 0.66345 0.71416 0.0
H496 H 0.31869 0.60199 0.60353 0.0
H497 H 0.31532 0.61123 0.64543 0.0
loop_
_geom_bond_atom_site_label_1
_geom_bond_atom_site_label_2
_geom_bond_distance
_geom_bond_site_symmetry_2
_ccdc_geom_bond_type
Cu0 N1 1.999 . S
Cu0 O6 1.974 . S
Cu0 N11 1.985 . S
Cu0 O20 1.959 . S
N1 Cu0 1.999 . S
N1 C3 1.263 . S
N1 C5 1.389 . S
N2 C3 1.358 . S
N2 C4 1.400 . S
C3 N1 1.263 . S
C3 N2 1.358 . S
C3 H9 0.930 . S
C4 N2 1.400 . S
C4 C5 1.351 . S
C4 H21 0.930 . S
C5 N1 1.389 . S
C5 C4 1.351 . S
C5 H10 0.930 . S
O6 Cu0 1.974 . S
O6 C16 1.282 . S
C7 O8 1.261 . S
C7 O20 1.251 . S
O8 C7 1.261 . S
H9 C3 0.930 . S
H10 C5 0.930 . S
N11 Cu0 1.985 . S
N11 C13 1.335 . S
N11 C14 1.390 . S
N12 C13 1.345 . S
N12 C15 1.336 . S
C13 N11 1.335 . S
C13 N12 1.345 . S
C13 H18 0.930 . S
C14 N11 1.390 . S
C14 C15 1.346 . S
C14 H19 0.930 . S
C15 N12 1.336 . S
C15 C14 1.346 . S
C15 H22 0.929 . S
C16 O6 1.282 . S
C16 O17 1.216 . S
O17 C16 1.216 . S
H18 C13 0.930 . S
H19 C14 0.930 . S
O20 Cu0 1.959 . S
O20 C7 1.251 . S
H21 C4 0.930 . S
H22 C15 0.929 . S
Cu23 N24 1.999 . S
Cu23 O29 1.974 . S
Cu23 N34 1.985 . S
Cu23 O43 1.959 . S
N24 Cu23 1.999 . S
N24 C26 1.263 . S
N24 C28 1.389 . S
N25 C26 1.358 . S
N25 C27 1.400 . S
C26 N24 1.263 . S
C26 N25 1.358 . S
C26 H32 0.930 . S
C27 N25 1.400 . S
C27 C28 1.351 . S
C27 H44 0.930 . S
C28 N24 1.389 . S
C28 C27 1.351 . S
C28 H33 0.930 . S
O29 Cu23 1.974 . S
O29 C39 1.282 . S
C30 O31 1.261 . S
C30 O43 1.251 . S
O31 C30 1.261 . S
H32 C26 0.930 . S
H33 C28 0.930 . S
N34 Cu23 1.985 . S
N34 C36 1.335 . S
N34 C37 1.390 . S
N35 C36 1.345 . S
N35 C38 1.336 . S
C36 N34 1.335 . S
C36 N35 1.345 . S
C36 H41 0.930 . S
C37 N34 1.390 . S
C37 C38 1.346 . S
C37 H42 0.930 . S
C38 N35 1.336 . S
C38 C37 1.346 . S
C38 H45 0.929 . S
C39 O29 1.282 . S
C39 O40 1.216 . S
O40 C39 1.216 . S
H41 C36 0.930 . S
H42 C37 0.930 . S
O43 Cu23 1.959 . S
O43 C30 1.251 . S
H44 C27 0.930 . S
H45 C38 0.929 . S
Cu46 N47 1.999 . S
Cu46 O52 1.974 . S
Cu46 N57 1.985 . S
Cu46 O66 1.959 . S
N47 Cu46 1.999 . S
N47 C49 1.263 . S
N47 C51 1.389 . S
N48 C49 1.358 . S
N48 C50 1.400 . S
C49 N47 1.263 . S
C49 N48 1.358 . S
C49 H55 0.930 . S
C50 N48 1.400 . S
C50 C51 1.351 . S
C50 H67 0.930 . S
C51 N47 1.389 . S
C51 C50 1.351 . S
C51 H56 0.930 . S
O52 Cu46 1.974 . S
O52 C62 1.282 . S
C53 O54 1.261 . S
C53 O66 1.251 . S
O54 C53 1.261 . S
H55 C49 0.930 . S
H56 C51 0.930 . S
N57 Cu46 1.985 . S
N57 C59 1.335 . S
N57 C60 1.390 . S
N58 C59 1.345 . S
N58 C61 1.336 . S
C59 N57 1.335 . S
C59 N58 1.345 . S
C59 H64 0.930 . S
C60 N57 1.390 . S
C60 C61 1.346 . S
C60 H65 0.930 . S
C61 N58 1.336 . S
C61 C60 1.346 . S
C61 H68 0.929 . S
C62 O52 1.282 . S
C62 O63 1.216 . S
O63 C62 1.216 . S
H64 C59 0.930 . S
H65 C60 0.930 . S
O66 Cu46 1.959 . S
O66 C53 1.251 . S
H67 C50 0.930 . S
H68 C61 0.929 . S
Cu69 N70 1.999 . S
Cu69 O75 1.974 . S
Cu69 N80 1.985 . S
Cu69 O89 1.959 . S
N70 Cu69 1.999 . S
N70 C72 1.263 . S
N70 C74 1.389 . S
N71 C72 1.358 . S
N71 C73 1.400 . S
C72 N70 1.263 . S
C72 N71 1.358 . S
C72 H78 0.930 . S
C73 N71 1.400 . S
C73 C74 1.351 . S
C73 H90 0.930 . S
C74 N70 1.389 . S
C74 C73 1.351 . S
C74 H79 0.930 . S
O75 Cu69 1.974 . S
O75 C85 1.282 . S
C76 O77 1.261 . S
C76 O89 1.251 . S
O77 C76 1.261 . S
H78 C72 0.930 . S
H79 C74 0.930 . S
N80 Cu69 1.985 . S
N80 C82 1.335 . S
N80 C83 1.390 . S
N81 C82 1.345 . S
N81 C84 1.336 . S
C82 N80 1.335 . S
C82 N81 1.345 . S
C82 H87 0.930 . S
C83 N80 1.390 . S
C83 C84 1.346 . S
C83 H88 0.930 . S
C84 N81 1.336 . S
C84 C83 1.346 . S
C84 H91 0.929 . S
C85 O75 1.282 . S
C85 O86 1.216 . S
O86 C85 1.216 . S
H87 C82 0.930 . S
H88 C83 0.930 . S
O89 Cu69 1.959 . S
O89 C76 1.251 . S
H90 C73 0.930 . S
H91 C84 0.929 . S
Cu92 N93 1.999 . S
Cu92 O98 1.974 . S
Cu92 N103 1.985 . S
Cu92 O112 1.959 . S
N93 Cu92 1.999 . S
N93 C95 1.263 . S
N93 C97 1.389 . S
N94 C95 1.358 . S
N94 C96 1.400 . S
C95 N93 1.263 . S
C95 N94 1.358 . S
C95 H101 0.930 . S
C96 N94 1.400 . S
C96 C97 1.351 . S
C96 H113 0.930 . S
C97 N93 1.389 . S
C97 C96 1.351 . S
C97 H102 0.930 . S
O98 Cu92 1.974 . S
O98 C108 1.282 . S
C99 O100 1.261 . S
C99 O112 1.251 . S
O100 C99 1.261 . S
H101 C95 0.930 . S
H102 C97 0.930 . S
N103 Cu92 1.985 . S
N103 C105 1.335 . S
N103 C106 1.390 . S
N104 C105 1.345 . S
N104 C107 1.336 . S
C105 N103 1.335 . S
C105 N104 1.345 . S
C105 H110 0.930 . S
C106 N103 1.390 . S
C106 C107 1.346 . S
C106 H111 0.930 . S
C107 N104 1.336 . S
C107 C106 1.346 . S
C107 H114 0.929 . S
C108 O98 1.282 . S
C108 O109 1.216 . S
O109 C108 1.216 . S
H110 C105 0.930 . S
H111 C106 0.930 . S
O112 Cu92 1.959 . S
O112 C99 1.251 . S
H113 C96 0.930 . S
H114 C107 0.929 . S
Cu115 N116 1.999 . S
Cu115 O121 1.974 . S
Cu115 N126 1.985 . S
Cu115 O135 1.959 . S
N116 Cu115 1.999 . S
N116 C118 1.263 . S
N116 C120 1.389 . S
N117 C118 1.358 . S
N117 C119 1.400 . S
C118 N116 1.263 . S
C118 N117 1.358 . S
C118 H124 0.930 . S
C119 N117 1.400 . S
C119 C120 1.351 . S
C119 H136 0.930 . S
C120 N116 1.389 . S
C120 C119 1.351 . S
C120 H125 0.930 . S
O121 Cu115 1.974 . S
O121 C131 1.282 . S
C122 O123 1.261 . S
C122 O135 1.251 . S
O123 C122 1.261 . S
H124 C118 0.930 . S
H125 C120 0.930 . S
N126 Cu115 1.985 . S
N126 C128 1.335 . S
N126 C129 1.390 . S
N127 C128 1.345 . S
N127 C130 1.336 . S
C128 N126 1.335 . S
C128 N127 1.345 . S
C128 H133 0.930 . S
C129 N126 1.390 . S
C129 C130 1.346 . S
C129 H134 0.930 . S
C130 N127 1.336 . S
C130 C129 1.346 . S
C130 H137 0.929 . S
C131 O121 1.282 . S
C131 O132 1.216 . S
O132 C131 1.216 . S
H133 C128 0.930 . S
H134 C129 0.930 . S
O135 Cu115 1.959 . S
O135 C122 1.251 . S
H136 C119 0.930 . S
H137 C130 0.929 . S
C138 C139 1.349 . S
C138 C140 1.327 . S
C138 H163 0.950 . S
C139 C138 1.349 . S
C139 C155 1.349 . S
C140 C138 1.327 . S
C140 C159 1.429 . S
C140 H164 0.950 . S
C141 C158 1.574 1_545 S
C141 C160 1.368 . S
C141 H165 0.949 . S
H142 C146 0.949 . S
C143 C144 1.349 . S
C143 C145 1.327 . S
C143 H166 0.950 . S
C144 C143 1.349 . S
C144 C156 1.349 . S
C145 C143 1.327 . S
C145 C161 1.429 . S
C145 H167 0.950 . S
C146 H142 0.949 . S
C146 C154 1.574 1_565 S
C146 C162 1.368 . S
H147 C155 0.950 . S
H148 C153 0.950 . S
H149 C154 0.949 . S
H150 C156 0.950 . S
H151 C157 0.950 . S
H152 C158 0.949 . S
C153 H148 0.950 . S
C153 C155 1.327 . S
C153 C159 1.429 . S
C154 C146 1.574 1_545 S
C154 H149 0.949 . S
C154 C160 1.368 . S
C155 C139 1.349 . S
C155 H147 0.950 . S
C155 C153 1.327 . S
C156 C144 1.349 . S
C156 H150 0.950 . S
C156 C157 1.327 . S
C157 H151 0.950 . S
C157 C156 1.327 . S
C157 C161 1.429 . S
C158 C141 1.574 1_565 S
C158 H152 0.949 . S
C158 C162 1.368 . S
C159 C140 1.429 . S
C159 C153 1.429 . S
C159 C160 1.523 . S
C160 C141 1.368 . S
C160 C154 1.368 . S
C160 C159 1.523 . S
C161 C145 1.429 . S
C161 C157 1.429 . S
C161 C162 1.523 . S
C162 C146 1.368 . S
C162 C158 1.368 . S
C162 C161 1.523 . S
H163 C138 0.950 . S
H164 C140 0.950 . S
H165 C141 0.949 . S
H166 C143 0.950 . S
H167 C145 0.950 . S
C168 C169 1.349 . S
C168 C170 1.327 . S
C168 H193 0.950 . S
C169 C168 1.349 . S
C169 C185 1.349 . S
C170 C168 1.327 . S
C170 C189 1.429 . S
C170 H194 0.950 . S
C171 C188 1.574 . S
C171 C190 1.368 . S
C171 H195 0.949 . S
H172 C176 0.949 . S
C173 C174 1.349 . S
C173 C175 1.327 . S
C173 H196 0.950 . S
C174 C173 1.349 . S
C174 C186 1.349 . S
C175 C173 1.327 . S
C175 C191 1.429 . S
C175 H197 0.950 . S
C176 H172 0.949 . S
C176 C184 1.574 . S
C176 C192 1.368 . S
H177 C185 0.950 . S
H178 C183 0.950 . S
H179 C184 0.949 . S
H180 C186 0.950 . S
H181 C187 0.950 . S
H182 C188 0.949 . S
C183 H178 0.950 . S
C183 C185 1.327 . S
C183 C189 1.429 . S
C184 C176 1.574 . S
C184 H179 0.949 . S
C184 C190 1.368 . S
C185 C169 1.349 . S
C185 H177 0.950 . S
C185 C183 1.327 . S
C186 C174 1.349 . S
C186 H180 0.950 . S
C186 C187 1.327 . S
C187 H181 0.950 . S
C187 C186 1.327 . S
C187 C191 1.429 . S
C188 C171 1.574 . S
C188 H182 0.949 . S
C188 C192 1.368 . S
C189 C170 1.429 . S
C189 C183 1.429 . S
C189 C190 1.523 . S
C190 C171 1.368 . S
C190 C184 1.368 . S
C190 C189 1.523 . S
C191 C175 1.429 . S
C191 C187 1.429 . S
C191 C192 1.523 . S
C192 C176 1.368 . S
C192 C188 1.368 . S
C192 C191 1.523 . S
H193 C168 0.950 . S
H194 C170 0.950 . S
H195 C171 0.949 . S
H196 C173 0.950 . S
H197 C175 0.950 . S
C198 C199 1.349 . S
C198 C200 1.327 . S
C198 H223 0.950 . S
C199 C198 1.349 . S
C199 C215 1.349 . S
C200 C198 1.327 . S
C200 C219 1.429 . S
C200 H224 0.950 . S
C201 C218 1.574 1_655 S
C201 C220 1.368 . S
C201 H225 0.949 . S
H202 C206 0.949 . S
C203 C204 1.349 . S
C203 C205 1.327 . S
C203 H226 0.950 . S
C204 C203 1.349 . S
C204 C216 1.349 . S
C205 C203 1.327 . S
C205 C221 1.429 . S
C205 H227 0.950 . S
C206 H202 0.949 . S
C206 C214 1.574 1_455 S
C206 C222 1.368 . S
H207 C215 0.950 . S
H208 C213 0.950 . S
H209 C214 0.949 . S
H210 C216 0.950 . S
H211 C217 0.950 . S
H212 C218 0.949 . S
C213 H208 0.950 . S
C213 C215 1.327 . S
C213 C219 1.429 . S
C214 C206 1.574 1_655 S
C214 H209 0.949 . S
C214 C220 1.368 . S
C215 C199 1.349 . S
C215 H207 0.950 . S
C215 C213 1.327 . S
C216 C204 1.349 . S
C216 H210 0.950 . S
C216 C217 1.327 . S
C217 H211 0.950 . S
C217 C216 1.327 . S
C217 C221 1.429 . S
C218 C201 1.574 1_455 S
C218 H212 0.949 . S
C218 C222 1.368 . S
C219 C200 1.429 . S
C219 C213 1.429 . S
C219 C220 1.523 . S
C220 C201 1.368 . S
C220 C214 1.368 . S
C220 C219 1.523 . S
C221 C205 1.429 . S
C221 C217 1.429 . S
C221 C222 1.523 . S
C222 C206 1.368 . S
C222 C218 1.368 . S
C222 C221 1.523 . S
H223 C198 0.950 . S
H224 C200 0.950 . S
H225 C201 0.949 . S
H226 C203 0.950 . S
H227 C205 0.950 . S
C228 C229 1.349 . S
C228 C230 1.327 . S
C228 H253 0.950 . S
C229 C228 1.349 . S
C229 C245 1.349 . S
C230 C228 1.327 . S
C230 C249 1.429 . S
C230 H254 0.950 . S
C231 C248 1.574 1_455 S
C231 C250 1.368 . S
C231 H255 0.949 . S
H232 C236 0.949 . S
C233 C234 1.349 . S
C233 C235 1.327 . S
C233 H256 0.950 . S
C234 C233 1.349 . S
C234 C246 1.349 . S
C235 C233 1.327 . S
C235 C251 1.429 . S
C235 H257 0.950 . S
C236 H232 0.949 . S
C236 C244 1.574 1_655 S
C236 C252 1.368 . S
H237 C245 0.950 . S
H238 C243 0.950 . S
H239 C244 0.949 . S
H240 C246 0.950 . S
H241 C247 0.950 . S
H242 C248 0.949 . S
C243 H238 0.950 . S
C243 C245 1.327 . S
C243 C249 1.429 . S
C244 C236 1.574 1_455 S
C244 H239 0.949 . S
C244 C250 1.368 . S
C245 C229 1.349 . S
C245 H237 0.950 . S
C245 C243 1.327 . S
C246 C234 1.349 . S
C246 H240 0.950 . S
C246 C247 1.327 . S
C247 H241 0.950 . S
C247 C246 1.327 . S
C247 C251 1.429 . S
C248 C231 1.574 1_655 S
C248 H242 0.949 . S
C248 C252 1.368 . S
C249 C230 1.429 . S
C249 C243 1.429 . S
C249 C250 1.523 . S
C250 C231 1.368 . S
C250 C244 1.368 . S
C250 C249 1.523 . S
C251 C235 1.429 . S
C251 C247 1.429 . S
C251 C252 1.523 . S
C252 C236 1.368 . S
C252 C248 1.368 . S
C252 C251 1.523 . S
H253 C228 0.950 . S
H254 C230 0.950 . S
H255 C231 0.949 . S
H256 C233 0.950 . S
H257 C235 0.950 . S
C258 C259 1.349 . S
C258 C260 1.327 . S
C258 H283 0.950 . S
C259 C258 1.349 . S
C259 C275 1.349 . S
C260 C258 1.327 . S
C260 C279 1.429 . S
C260 H284 0.950 . S
C261 C278 1.574 1_565 S
C261 C280 1.368 . S
C261 H285 0.949 . S
H262 C266 0.949 . S
C263 C264 1.349 . S
C263 C265 1.327 . S
C263 H286 0.950 . S
C264 C263 1.349 . S
C264 C276 1.349 . S
C265 C263 1.327 . S
C265 C281 1.429 . S
C265 H287 0.950 . S
C266 H262 0.949 . S
C266 C274 1.574 1_545 S
C266 C282 1.368 . S
H267 C275 0.950 . S
H268 C273 0.950 . S
H269 C274 0.949 . S
H270 C276 0.950 . S
H271 C277 0.950 . S
H272 C278 0.949 . S
C273 H268 0.950 . S
C273 C275 1.327 . S
C273 C279 1.429 . S
C274 C266 1.574 1_565 S
C274 H269 0.949 . S
C274 C280 1.368 . S
C275 C259 1.349 . S
C275 H267 0.950 . S
C275 C273 1.327 . S
C276 C264 1.349 . S
C276 H270 0.950 . S
C276 C277 1.327 . S
C277 H271 0.950 . S
C277 C276 1.327 . S
C277 C281 1.429 . S
C278 C261 1.574 1_545 S
C278 H272 0.949 . S
C278 C282 1.368 . S
C279 C260 1.429 . S
C279 C273 1.429 . S
C279 C280 1.523 . S
C280 C261 1.368 . S
C280 C274 1.368 . S
C280 C279 1.523 . S
C281 C265 1.429 . S
C281 C277 1.429 . S
C281 C282 1.523 . S
C282 C266 1.368 . S
C282 C278 1.368 . S
C282 C281 1.523 . S
H283 C258 0.950 . S
H284 C260 0.950 . S
H285 C261 0.949 . S
H286 C263 0.950 . S
H287 C265 0.950 . S
C288 C289 1.349 . S
C288 C290 1.327 . S
C288 H313 0.950 . S
C289 C288 1.349 . S
C289 C305 1.349 . S
C290 C288 1.327 . S
C290 C309 1.429 . S
C290 H314 0.950 . S
C291 C308 1.574 . S
C291 C310 1.368 . S
C291 H315 0.949 . S
H292 C296 0.949 . S
C293 C294 1.349 . S
C293 C295 1.327 . S
C293 H316 0.950 . S
C294 C293 1.349 . S
C294 C306 1.349 . S
C295 C293 1.327 . S
C295 C311 1.429 . S
C295 H317 0.950 . S
C296 H292 0.949 . S
C296 C304 1.574 . S
C296 C312 1.368 . S
H297 C305 0.950 . S
H298 C303 0.950 . S
H299 C304 0.949 . S
H300 C306 0.950 . S
H301 C307 0.950 . S
H302 C308 0.949 . S
C303 H298 0.950 . S
C303 C305 1.327 . S
C303 C309 1.429 . S
C304 C296 1.574 . S
C304 H299 0.949 . S
C304 C310 1.368 . S
C305 C289 1.349 . S
C305 H297 0.950 . S
C305 C303 1.327 . S
C306 C294 1.349 . S
C306 H300 0.950 . S
C306 C307 1.327 . S
C307 H301 0.950 . S
C307 C306 1.327 . S
C307 C311 1.429 . S
C308 C291 1.574 . S
C308 H302 0.949 . S
C308 C312 1.368 . S
C309 C290 1.429 . S
C309 C303 1.429 . S
C309 C310 1.523 . S
C310 C291 1.368 . S
C310 C304 1.368 . S
C310 C309 1.523 . S
C311 C295 1.429 . S
C311 C307 1.429 . S
C311 C312 1.523 . S
C312 C296 1.368 . S
C312 C308 1.368 . S
C312 C311 1.523 . S
H313 C288 0.950 . S
H314 C290 0.950 . S
H315 C291 0.949 . S
H316 C293 0.950 . S
H317 C295 0.950 . S
C318 C319 1.349 . S
C318 C320 1.327 . S
C318 H343 0.950 . S
C319 C318 1.349 . S
C319 C335 1.349 . S
C320 C318 1.327 . S
C320 C339 1.429 . S
C320 H344 0.950 . S
C321 C338 1.574 1_556 S
C321 C340 1.368 . S
C321 H345 0.949 . S
H322 C326 0.949 . S
C323 C324 1.349 . S
C323 C325 1.327 . S
C323 H346 0.950 . S
C324 C323 1.349 . S
C324 C336 1.349 . S
C325 C323 1.327 . S
C325 C341 1.429 . S
C325 H347 0.950 . S
C326 H322 0.949 . S
C326 C334 1.574 1_554 S
C326 C342 1.368 . S
H327 C335 0.950 . S
H328 C333 0.950 . S
H329 C334 0.949 . S
H330 C336 0.950 . S
H331 C337 0.950 . S
H332 C338 0.949 . S
C333 H328 0.950 . S
C333 C335 1.327 . S
C333 C339 1.429 . S
C334 C326 1.574 1_556 S
C334 H329 0.949 . S
C334 C340 1.368 . S
C335 C319 1.349 . S
C335 H327 0.950 . S
C335 C333 1.327 . S
C336 C324 1.349 . S
C336 H330 0.950 . S
C336 C337 1.327 . S
C337 H331 0.950 . S
C337 C336 1.327 . S
C337 C341 1.429 . S
C338 C321 1.574 1_554 S
C338 H332 0.949 . S
C338 C342 1.368 . S
C339 C320 1.429 . S
C339 C333 1.429 . S
C339 C340 1.523 . S
C340 C321 1.368 . S
C340 C334 1.368 . S
C340 C339 1.523 . S
C341 C325 1.429 . S
C341 C337 1.429 . S
C341 C342 1.523 . S
C342 C326 1.368 . S
C342 C338 1.368 . S
C342 C341 1.523 . S
H343 C318 0.950 . S
H344 C320 0.950 . S
H345 C321 0.949 . S
H346 C323 0.950 . S
H347 C325 0.950 . S
C348 C349 1.349 . S
C348 C350 1.327 . S
C348 H373 0.950 . S
C349 C348 1.349 . S
C349 C365 1.349 . S
C350 C348 1.327 . S
C350 C369 1.429 . S
C350 H374 0.950 . S
C351 C368 1.574 . S
C351 C370 1.368 . S
C351 H375 0.949 . S
H352 C356 0.949 . S
C353 C354 1.349 . S
C353 C355 1.327 . S
C353 H376 0.950 . S
C354 C353 1.349 . S
C354 C366 1.349 . S
C355 C353 1.327 . S
C355 C371 1.429 . S
C355 H377 0.950 . S
C356 H352 0.949 . S
C356 C364 1.574 . S
C356 C372 1.368 . S
H357 C365 0.950 . S
H358 C363 0.950 . S
H359 C364 0.949 . S
H360 C366 0.950 . S
H361 C367 0.950 . S
H362 C368 0.949 . S
C363 H358 0.950 . S
C363 C365 1.327 . S
C363 C369 1.429 . S
C364 C356 1.574 . S
C364 H359 0.949 . S
C364 C370 1.368 . S
C365 C349 1.349 . S
C365 H357 0.950 . S
C365 C363 1.327 . S
C366 C354 1.349 . S
C366 H360 0.950 . S
C366 C367 1.327 . S
C367 H361 0.950 . S
C367 C366 1.327 . S
C367 C371 1.429 . S
C368 C351 1.574 . S
C368 H362 0.949 . S
C368 C372 1.368 . S
C369 C350 1.429 . S
C369 C363 1.429 . S
C369 C370 1.523 . S
C370 C351 1.368 . S
C370 C364 1.368 . S
C370 C369 1.523 . S
C371 C355 1.429 . S
C371 C367 1.429 . S
C371 C372 1.523 . S
C372 C356 1.368 . S
C372 C368 1.368 . S
C372 C371 1.523 . S
H373 C348 0.950 . S
H374 C350 0.950 . S
H375 C351 0.949 . S
H376 C353 0.950 . S
H377 C355 0.950 . S
C378 C379 1.349 . S
C378 C380 1.327 . S
C378 H403 0.950 . S
C379 C378 1.349 . S
C379 C395 1.349 . S
C380 C378 1.327 . S
C380 C399 1.429 . S
C380 H404 0.950 . S
C381 C398 1.574 . S
C381 C400 1.368 . S
C381 H405 0.949 . S
H382 C386 0.949 . S
C383 C384 1.349 . S
C383 C385 1.327 . S
C383 H406 0.950 . S
C384 C383 1.349 . S
C384 C396 1.349 . S
C385 C383 1.327 . S
C385 C401 1.429 . S
C385 H407 0.950 . S
C386 H382 0.949 . S
C386 C394 1.574 . S
C386 C402 1.368 . S
H387 C395 0.950 . S
H388 C393 0.950 . S
H389 C394 0.949 . S
H390 C396 0.950 . S
H391 C397 0.950 . S
H392 C398 0.949 . S
C393 H388 0.950 . S
C393 C395 1.327 . S
C393 C399 1.429 . S
C394 C386 1.574 . S
C394 H389 0.949 . S
C394 C400 1.368 . S
C395 C379 1.349 . S
C395 H387 0.950 . S
C395 C393 1.327 . S
C396 C384 1.349 . S
C396 H390 0.950 . S
C396 C397 1.327 . S
C397 H391 0.950 . S
C397 C396 1.327 . S
C397 C401 1.429 . S
C398 C381 1.574 . S
C398 H392 0.949 . S
C398 C402 1.368 . S
C399 C380 1.429 . S
C399 C393 1.429 . S
C399 C400 1.523 . S
C400 C381 1.368 . S
C400 C394 1.368 . S
C400 C399 1.523 . S
C401 C385 1.429 . S
C401 C397 1.429 . S
C401 C402 1.523 . S
C402 C386 1.368 . S
C402 C398 1.368 . S
C402 C401 1.523 . S
H403 C378 0.950 . S
H404 C380 0.950 . S
H405 C381 0.949 . S
H406 C383 0.950 . S
H407 C385 0.950 . S
C408 C409 1.349 . S
C408 C410 1.327 . S
C408 H433 0.950 . S
C409 C408 1.349 . S
C409 C425 1.349 . S
C410 C408 1.327 . S
C410 C429 1.429 . S
C410 H434 0.950 . S
C411 C428 1.574 1_556 S
C411 C430 1.368 . S
C411 H435 0.949 . S
H412 C416 0.949 . S
C413 C414 1.349 . S
C413 C415 1.327 . S
C413 H436 0.950 . S
C414 C413 1.349 . S
C414 C426 1.349 . S
C415 C413 1.327 . S
C415 C431 1.429 . S
C415 H437 0.950 . S
C416 H412 0.949 . S
C416 C424 1.574 1_554 S
C416 C432 1.368 . S
H417 C425 0.950 . S
H418 C423 0.950 . S
H419 C424 0.949 . S
H420 C426 0.950 . S
H421 C427 0.950 . S
H422 C428 0.949 . S
C423 H418 0.950 . S
C423 C425 1.327 . S
C423 C429 1.429 . S
C424 C416 1.574 1_556 S
C424 H419 0.949 . S
C424 C430 1.368 . S
C425 C409 1.349 . S
C425 H417 0.950 . S
C425 C423 1.327 . S
C426 C414 1.349 . S
C426 H420 0.950 . S
C426 C427 1.327 . S
C427 H421 0.950 . S
C427 C426 1.327 . S
C427 C431 1.429 . S
C428 C411 1.574 1_554 S
C428 H422 0.949 . S
C428 C432 1.368 . S
C429 C410 1.429 . S
C429 C423 1.429 . S
C429 C430 1.523 . S
C430 C411 1.368 . S
C430 C424 1.368 . S
C430 C429 1.523 . S
C431 C415 1.429 . S
C431 C427 1.429 . S
C431 C432 1.523 . S
C432 C416 1.368 . S
C432 C428 1.368 . S
C432 C431 1.523 . S
H433 C408 0.950 . S
H434 C410 0.950 . S
H435 C411 0.949 . S
H436 C413 0.950 . S
H437 C415 0.950 . S
C438 C439 1.349 . S
C438 C440 1.327 . S
C438 H463 0.950 . S
C439 C438 1.349 . S
C439 C455 1.349 . S
C440 C438 1.327 . S
C440 C459 1.429 . S
C440 H464 0.950 . S
C441 C458 1.574 . S
C441 C460 1.368 . S
C441 H465 0.949 . S
H442 C446 0.949 . S
C443 C444 1.349 . S
C443 C445 1.327 . S
C443 H466 0.950 . S
C444 C443 1.349 . S
C444 C456 1.349 . S
C445 C443 1.327 . S
C445 C461 1.429 . S
C445 H467 0.950 . S
C446 H442 0.949 . S
C446 C454 1.574 . S
C446 C462 1.368 . S
H447 C455 0.950 . S
H448 C453 0.950 . S
H449 C454 0.949 . S
H450 C456 0.950 . S
H451 C457 0.950 . S
H452 C458 0.949 . S
C453 H448 0.950 . S
C453 C455 1.327 . S
C453 C459 1.429 . S
C454 C446 1.574 . S
C454 H449 0.949 . S
C454 C460 1.368 . S
C455 C439 1.349 . S
C455 H447 0.950 . S
C455 C453 1.327 . S
C456 C444 1.349 . S
C456 H450 0.950 . S
C456 C457 1.327 . S
C457 H451 0.950 . S
C457 C456 1.327 . S
C457 C461 1.429 . S
C458 C441 1.574 . S
C458 H452 0.949 . S
C458 C462 1.368 . S
C459 C440 1.429 . S
C459 C453 1.429 . S
C459 C460 1.523 . S
C460 C441 1.368 . S
C460 C454 1.368 . S
C460 C459 1.523 . S
C461 C445 1.429 . S
C461 C457 1.429 . S
C461 C462 1.523 . S
C462 C446 1.368 . S
C462 C458 1.368 . S
C462 C461 1.523 . S
H463 C438 0.950 . S
H464 C440 0.950 . S
H465 C441 0.949 . S
H466 C443 0.950 . S
H467 C445 0.950 . S
C468 C469 1.349 . S
C468 C470 1.327 . S
C468 H493 0.950 . S
C469 C468 1.349 . S
C469 C485 1.349 . S
C470 C468 1.327 . S
C470 C489 1.429 . S
C470 H494 0.950 . S
C471 C488 1.574 . S
C471 C490 1.368 . S
C471 H495 0.949 . S
H472 C476 0.949 . S
C473 C474 1.349 . S
C473 C475 1.327 . S
C473 H496 0.950 . S
C474 C473 1.349 . S
C474 C486 1.349 . S
C475 C473 1.327 . S
C475 C491 1.429 . S
C475 H497 0.950 . S
C476 H472 0.949 . S
C476 C484 1.574 . S
C476 C492 1.368 . S
H477 C485 0.950 . S
H478 C483 0.950 . S
H479 C484 0.949 . S
H480 C486 0.950 . S
H481 C487 0.950 . S
H482 C488 0.949 . S
C483 H478 0.950 . S
C483 C485 1.327 . S
C483 C489 1.429 . S
C484 C476 1.574 . S
C484 H479 0.949 . S
C484 C490 1.368 . S
C485 C469 1.349 . S
C485 H477 0.950 . S
C485 C483 1.327 . S
C486 C474 1.349 . S
C486 H480 0.950 . S
C486 C487 1.327 . S
C487 H481 0.950 . S
C487 C486 1.327 . S
C487 C491 1.429 . S
C488 C471 1.574 . S
C488 H482 0.949 . S
C488 C492 1.368 . S
C489 C470 1.429 . S
C489 C483 1.429 . S
C489 C490 1.523 . S
C490 C471 1.368 . S
C490 C484 1.368 . S
C490 C489 1.523 . S
C491 C475 1.429 . S
C491 C487 1.429 . S
C491 C492 1.523 . S
C492 C476 1.368 . S
C492 C488 1.368 . S
C492 C491 1.523 . S
H493 C468 0.950 . S
H494 C470 0.950 . S
H495 C471 0.949 . S
H496 C473 0.950 . S
H497 C475 0.950 . S
C139 N12 1.477 . S
C144 N81 1.477 . S
C169 C39 1.689 . S
C174 C108 1.689 . S
C199 N58 1.353 . S
C204 N127 1.353 . S
C229 C30 1.777 . S
C234 C99 1.777 . S
C259 N117 1.498 . S
C264 N48 1.498 . S
C289 N71 1.379 . S
C294 N2 1.379 . S
C319 C62 1.915 . S
C324 C7 1.961 . S
C349 C85 1.952 . S
C354 N25 1.875 . S
C379 C53 1.999 . S
C384 N104 1.976 . S
C409 C131 1.915 . S
C414 C76 1.961 . S
C439 N94 1.875 . S
C444 C16 1.952 . S
C469 C122 1.999 . S
C474 N35 1.977 . S
