# Generated by pormake.
# Topology vmf, (6)-cn, num edge types: 1
# Building blocks:
#     Node 0, Type 0, BuildingBlock: IZENUY_clean_sbu_0, # of connection points: 6
#     Node 1, Type 0, BuildingBlock: IZENUY_clean_sbu_0, # of connection points: 6
#     Node 2, Type 0, BuildingBlock: IZENUY_clean_sbu_0, # of connection points: 6
#     Node 3, Type 0, BuildingBlock: IZENUY_clean_sbu_0, # of connection points: 6
#     Node 4, Type 0, BuildingBlock: IZENUY_clean_sbu_0, # of connection points: 6
#     Node 5, Type 0, BuildingBlock: IZENUY_clean_sbu_0, # of connection points: 6
#     Node 6, Type 0, BuildingBlock: IZENUY_clean_sbu_0, # of connection points: 6
#     Node 7, Type 0, BuildingBlock: IZENUY_clean_sbu_0, # of connection points: 6
#     Edge 8, Type (0, 0), BuildingBlock: OJICUG_clean_linker_0, # of connection points: 2
#     Edge 9, Type (0, 0), BuildingBlock: OJICUG_clean_linker_0, # of connection points: 2
#     Edge 10, Type (0, 0), BuildingBlock: OJICUG_clean_linker_0, # of connection points: 2
#     Edge 11, Type (0, 0), BuildingBlock: OJICUG_clean_linker_0, # of connection points: 2
#     Edge 12, Type (0, 0), BuildingBlock: OJICUG_clean_linker_0, # of connection points: 2
#     Edge 13, Type (0, 0), BuildingBlock: OJICUG_clean_linker_0, # of connection points: 2
#     Edge 14, Type (0, 0), BuildingBlock: OJICUG_clean_linker_0, # of connection points: 2
#     Edge 15, Type (0, 0), BuildingBlock: OJICUG_clean_linker_0, # of connection points: 2
#     Edge 16, Type (0, 0), BuildingBlock: OJICUG_clean_linker_0, # of connection points: 2
#     Edge 17, Type (0, 0), BuildingBlock: OJICUG_clean_linker_0, # of connection points: 2
#     Edge 18, Type (0, 0), BuildingBlock: OJICUG_clean_linker_0, # of connection points: 2
#     Edge 19, Type (0, 0), BuildingBlock: OJICUG_clean_linker_0, # of connection points: 2
#     Edge 20, Type (0, 0), BuildingBlock: OJICUG_clean_linker_0, # of connection points: 2
#     Edge 21, Type (0, 0), BuildingBlock: OJICUG_clean_linker_0, # of connection points: 2
#     Edge 22, Type (0, 0), BuildingBlock: OJICUG_clean_linker_0, # of connection points: 2
#     Edge 23, Type (0, 0), BuildingBlock: OJICUG_clean_linker_0, # of connection points: 2
#     Edge 24, Type (0, 0), BuildingBlock: OJICUG_clean_linker_0, # of connection points: 2
#     Edge 25, Type (0, 0), BuildingBlock: OJICUG_clean_linker_0, # of connection points: 2
#     Edge 26, Type (0, 0), BuildingBlock: OJICUG_clean_linker_0, # of connection points: 2
#     Edge 27, Type (0, 0), BuildingBlock: OJICUG_clean_linker_0, # of connection points: 2
#     Edge 28, Type (0, 0), BuildingBlock: OJICUG_clean_linker_0, # of connection points: 2
#     Edge 29, Type (0, 0), BuildingBlock: OJICUG_clean_linker_0, # of connection points: 2
#     Edge 30, Type (0, 0), BuildingBlock: OJICUG_clean_linker_0, # of connection points: 2
#     Edge 31, Type (0, 0), BuildingBlock: OJICUG_clean_linker_0, # of connection points: 2
# Relax obj value: 0.281
# Max RMSD: 0.266
# Mean RMSD: 0.266
data_MOF--net-vmf--node1-IZENUY_clean_sbu_0--edge1-OJICUG_clean_linker_0
_symmetry_space_group_name_H-M    P1
_symmetry_Int_Tables_number       1
_symmetry_cell_setting            triclinic
loop_
_symmetry_equiv_pos_as_xyz
'x, y, z'
_cell_length_a     21.129708
_cell_length_b     32.022523
_cell_length_c     20.879151
_cell_angle_alpha  90.773148
_cell_angle_beta   107.78392
_cell_angle_gamma 89.273334
loop_
_atom_site_label
_atom_site_type_symbol
_atom_site_fract_x
_atom_site_fract_y
_atom_site_fract_z
_atom_type_partial_charge
Fe0 Fe 0.24602 0.37397 0.20789 0.0
Fe1 Fe 0.23885 0.28672 0.26685 0.0
O2 O 0.21463 0.34008 0.2576 0.0
Fe3 Fe 0.15678 0.35999 0.29683 0.0
O4 O 0.0966 0.37021 0.21356 0.0
O5 O 0.1673 0.40344 0.17495 0.0
O6 O 0.21599 0.3414 0.13469 0.0
C7 C 0.23202 0.3038 0.13172 0.0
C8 C 0.24235 0.42892 0.30683 0.0
O9 O 0.24601 0.28076 0.18277 0.0
C10 C 0.23942 0.31217 0.39743 0.0
O11 O 0.32948 0.34941 0.22914 0.0
O12 O 0.32659 0.29963 0.29969 0.0
O13 O 0.18685 0.41387 0.30505 0.0
O14 O 0.27872 0.4098 0.27804 0.0
C15 C 0.1098 0.27779 0.26393 0.0
O16 O 0.23821 0.28439 0.35346 0.0
O17 O 0.21397 0.34839 0.38106 0.0
C18 C 0.35881 0.3216 0.27072 0.0
O19 O 0.15267 0.26815 0.23508 0.0
O20 O 0.11503 0.31108 0.29758 0.0
C21 C 0.10886 0.39026 0.16657 0.0
Fe22 Fe 0.7709 0.37574 0.83496 0.0
Fe23 Fe 0.79012 0.29 0.77666 0.0
O24 O 0.81355 0.34332 0.79139 0.0
Fe25 Fe 0.88039 0.36264 0.76588 0.0
O26 O 0.91794 0.39272 0.84606 0.0
O27 O 0.84643 0.38471 0.90289 0.0
O28 O 0.75572 0.33407 0.8851 0.0
C29 C 0.78838 0.30107 0.90469 0.0
C30 C 0.79985 0.43342 0.74532 0.0
O31 O 0.81391 0.28038 0.86655 0.0
C32 C 0.80111 0.31059 0.65471 0.0
O33 O 0.69029 0.36741 0.77131 0.0
O34 O 0.70388 0.29934 0.77278 0.0
O35 O 0.83365 0.40787 0.72234 0.0
O36 O 0.77981 0.42399 0.79415 0.0
C37 C 0.92835 0.2831 0.79681 0.0
O38 O 0.76477 0.29748 0.68784 0.0
O39 O 0.85264 0.33299 0.68292 0.0
C40 C 0.66616 0.33105 0.75915 0.0
O41 O 0.87077 0.26847 0.77448 0.0
O42 O 0.93627 0.32146 0.80767 0.0
C43 C 0.90449 0.39232 0.90188 0.0
Fe44 Fe 0.79633 0.75429 0.77818 0.0
Fe45 Fe 0.78203 0.67031 0.8402 0.0
O46 O 0.8207 0.70093 0.79254 0.0
Fe47 Fe 0.88366 0.67976 0.76115 0.0
O48 O 0.94166 0.72086 0.79894 0.0
O49 O 0.87435 0.77395 0.76894 0.0
O50 O 0.82704 0.76624 0.86699 0.0
C51 C 0.80686 0.7468 0.90902 0.0
C52 C 0.79987 0.73188 0.65448 0.0
O53 O 0.77343 0.71377 0.89316 0.0
C54 C 0.80235 0.61058 0.7457 0.0
O55 O 0.71209 0.74701 0.782 0.0
O56 O 0.69883 0.67931 0.78181 0.0
O57 O 0.8516 0.70879 0.67944 0.0
O58 O 0.76464 0.74437 0.68993 0.0
C59 C 0.91545 0.64932 0.89693 0.0
O60 O 0.786 0.62119 0.79689 0.0
O61 O 0.8342 0.63498 0.7201 0.0
C62 C 0.67436 0.71572 0.77093 0.0
O63 O 0.8601 0.65983 0.90326 0.0
O64 O 0.9252 0.64968 0.83934 0.0
C65 C 0.93228 0.75901 0.78616 0.0
Fe66 Fe 0.26377 0.66139 0.20585 0.0
Fe67 Fe 0.16334 0.67378 0.28528 0.0
O68 O 0.22471 0.69404 0.2526 0.0
Fe69 Fe 0.24666 0.74771 0.26386 0.0
O70 O 0.21787 0.75594 0.17348 0.0
O71 O 0.27531 0.7026 0.15311 0.0
O72 O 0.18601 0.65193 0.14241 0.0
C73 C 0.13109 0.64215 0.14942 0.0
C74 C 0.37022 0.70622 0.27474 0.0
O75 O 0.1232 0.64163 0.20795 0.0
C76 C 0.24399 0.72908 0.39003 0.0
O77 O 0.2583 0.61335 0.24834 0.0
O78 O 0.21634 0.63096 0.32864 0.0
O79 O 0.33286 0.73842 0.26332 0.0
O80 O 0.34557 0.67006 0.26535 0.0
C81 C 0.10869 0.75151 0.255 0.0
O82 O 0.19374 0.70512 0.36574 0.0
O83 O 0.277 0.74233 0.35357 0.0
C84 C 0.247 0.60525 0.30249 0.0
O85 O 0.10273 0.71293 0.24564 0.0
O86 O 0.16547 0.76802 0.26922 0.0
C87 C 0.24151 0.73518 0.13399 0.0
Fe88 Fe 0.74639 0.87404 0.20698 0.0
Fe89 Fe 0.73868 0.78665 0.26542 0.0
O90 O 0.7149 0.84009 0.25654 0.0
Fe91 Fe 0.65738 0.86007 0.2961 0.0
O92 O 0.59705 0.87043 0.21287 0.0
O93 O 0.6679 0.90372 0.17456 0.0
O94 O 0.71605 0.84172 0.13353 0.0
C95 C 0.73102 0.80394 0.13023 0.0
C96 C 0.74325 0.9288 0.30633 0.0
O97 O 0.74502 0.78079 0.18114 0.0
C98 C 0.74064 0.81212 0.39623 0.0
O99 O 0.82958 0.84932 0.22775 0.0
O100 O 0.82657 0.79924 0.29776 0.0
O101 O 0.68764 0.91388 0.30435 0.0
O102 O 0.77949 0.90965 0.27741 0.0
C103 C 0.60977 0.77797 0.26333 0.0
O104 O 0.73866 0.78429 0.35216 0.0
O105 O 0.71497 0.84833 0.38011 0.0
C106 C 0.8588 0.82134 0.26898 0.0
O107 O 0.65232 0.76829 0.23411 0.0
O108 O 0.61541 0.81125 0.29706 0.0
C109 C 0.60947 0.8905 0.16596 0.0
Fe110 Fe 0.29255 0.7896 0.77644 0.0
Fe111 Fe 0.38092 0.86309 0.76372 0.0
O112 O 0.31521 0.84314 0.79056 0.0
Fe113 Fe 0.27256 0.87519 0.83476 0.0
O114 O 0.25921 0.83328 0.8855 0.0
O115 O 0.31809 0.7801 0.86646 0.0
O116 O 0.37258 0.76847 0.77223 0.0
C117 C 0.42996 0.78354 0.7898 0.0
C118 C 0.16825 0.82973 0.76033 0.0
O119 O 0.43783 0.82171 0.80251 0.0
C120 C 0.29972 0.93378 0.74549 0.0
O121 O 0.26567 0.79693 0.68739 0.0
O122 O 0.35119 0.8343 0.68022 0.0
O123 O 0.19173 0.86625 0.77191 0.0
O124 O 0.20658 0.79831 0.77413 0.0
C125 C 0.40633 0.89226 0.90055 0.0
O126 O 0.33381 0.90872 0.72213 0.0
O127 O 0.27958 0.92369 0.79388 0.0
C128 C 0.30039 0.81103 0.65317 0.0
O129 O 0.41989 0.89221 0.84469 0.0
O130 O 0.3483 0.88486 0.90181 0.0
C131 C 0.29291 0.80064 0.90506 0.0
Fe132 Fe 0.29551 0.25488 0.77982 0.0
Fe133 Fe 0.28272 0.17087 0.8425 0.0
O134 O 0.32057 0.20156 0.79429 0.0
Fe135 Fe 0.38311 0.18063 0.76213 0.0
O136 O 0.4407 0.22222 0.79875 0.0
O137 O 0.37236 0.27468 0.76791 0.0
O138 O 0.32847 0.26704 0.86849 0.0
C139 C 0.31007 0.24746 0.91169 0.0
C140 C 0.29674 0.23192 0.65566 0.0
O141 O 0.27667 0.21428 0.89682 0.0
C142 C 0.30188 0.11116 0.74739 0.0
O143 O 0.21233 0.24789 0.78729 0.0
O144 O 0.19909 0.18046 0.78531 0.0
O145 O 0.3491 0.20927 0.68036 0.0
O146 O 0.26189 0.24444 0.69165 0.0
C147 C 0.41643 0.14968 0.89779 0.0
O148 O 0.2849 0.12196 0.79811 0.0
O149 O 0.33431 0.13536 0.72211 0.0
C150 C 0.17442 0.21682 0.77919 0.0
O151 O 0.36099 0.15955 0.9044 0.0
O152 O 0.42624 0.15099 0.8403 0.0
C153 C 0.43059 0.26023 0.7852 0.0
Fe154 Fe 0.74683 0.2478 0.26575 0.0
Fe155 Fe 0.76415 0.16179 0.20702 0.0
O156 O 0.72499 0.19413 0.25405 0.0
Fe157 Fe 0.66379 0.1736 0.28665 0.0
O158 O 0.603 0.21285 0.24765 0.0
O159 O 0.66572 0.26794 0.27166 0.0
O160 O 0.71752 0.2563 0.17549 0.0
C161 C 0.74088 0.23568 0.13565 0.0
C162 C 0.74484 0.22847 0.39183 0.0
O163 O 0.77536 0.20333 0.15463 0.0
C164 C 0.74764 0.10515 0.30306 0.0
O165 O 0.83297 0.23873 0.26473 0.0
O166 O 0.84581 0.17042 0.26664 0.0
O167 O 0.69446 0.20461 0.36742 0.0
O168 O 0.77757 0.24206 0.35534 0.0
C169 C 0.63161 0.1424 0.15045 0.0
O170 O 0.75893 0.11354 0.24902 0.0
O171 O 0.71688 0.13066 0.32945 0.0
C172 C 0.87041 0.20657 0.27608 0.0
O173 O 0.6865 0.15233 0.14356 0.0
O174 O 0.62355 0.14177 0.20891 0.0
C175 C 0.60893 0.25142 0.2573 0.0
C176 C 0.52534 0.31148 0.23367 0.0
C177 C 0.55071 0.27425 0.26712 0.0
H178 H 0.4444 0.3559 0.20826 0.0
C179 C 0.51648 0.25596 0.30761 0.0
H180 H 0.55059 0.32622 0.20207 0.0
C181 C 0.45683 0.27308 0.31225 0.0
C182 C 0.4286 0.3088 0.27558 0.0
H183 H 0.53519 0.22749 0.33465 0.0
H184 H 0.43132 0.257 0.34235 0.0
C185 C 0.46452 0.32842 0.23741 0.0
C186 C 0.56164 0.34187 0.79113 0.0
C187 C 0.59526 0.32258 0.74973 0.0
H188 H 0.48214 0.33692 0.83536 0.0
C189 C 0.56864 0.28605 0.71414 0.0
H190 H 0.58181 0.36954 0.82026 0.0
C191 C 0.51405 0.26679 0.72482 0.0
C192 C 0.48373 0.28402 0.77027 0.0
H193 H 0.59369 0.27037 0.68223 0.0
H194 H 0.49693 0.23744 0.69929 0.0
C195 C 0.50559 0.32282 0.80083 0.0
C196 C 0.51795 0.77871 0.73485 0.0
C197 C 0.4856 0.76026 0.77665 0.0
H198 H 0.60153 0.77749 0.69779 0.0
C199 C 0.50922 0.72175 0.80667 0.0
H200 H 0.49984 0.80792 0.70988 0.0
C201 C 0.56827 0.70409 0.79973 0.0
C202 C 0.60333 0.72463 0.76198 0.0
H203 H 0.48458 0.70681 0.83864 0.0
H204 H 0.58896 0.67633 0.82782 0.0
C205 C 0.57573 0.76102 0.72728 0.0
C206 C 0.45846 0.70827 0.21817 0.0
C207 C 0.43988 0.71224 0.27737 0.0
H208 H 0.52825 0.72591 0.1667 0.0
C209 C 0.4831 0.73165 0.33386 0.0
H210 H 0.42478 0.69419 0.1734 0.0
C211 C 0.54183 0.74932 0.33017 0.0
C212 C 0.55796 0.74886 0.26937 0.0
H213 H 0.46933 0.73564 0.37952 0.0
H214 H 0.57256 0.766 0.37395 0.0
C215 C 0.51741 0.72645 0.21416 0.0
C216 C 0.02504 0.81148 0.23152 0.0
C217 C 0.05062 0.77433 0.26506 0.0
H218 H 0.94394 0.85575 0.20619 0.0
C219 C 1.01671 0.75605 0.30584 0.0
H220 H 0.05009 0.8262 0.19971 0.0
C221 C 0.95705 0.77307 0.3106 0.0
C222 C 0.92858 0.80868 0.27378 0.0
H223 H 0.03562 0.72764 0.33298 0.0
H224 H 0.93173 0.75699 0.34087 0.0
C225 C 0.96426 0.82833 0.23541 0.0
C226 C 1.01707 0.7647 0.72736 0.0
C227 C 0.98594 0.78249 0.77173 0.0
H228 H 0.09724 0.76783 0.68552 0.0
C229 C 1.0071 0.82167 0.80117 0.0
H230 H 1.00043 0.73508 0.70256 0.0
C231 C 0.06324 0.84062 0.79151 0.0
C232 C 0.09757 0.82084 0.75119 0.0
H233 H 0.98295 0.83622 0.83476 0.0
H234 H 0.0828 0.86869 0.81975 0.0
C235 C 0.0717 0.78385 0.71666 0.0
C236 C 0.04821 0.26784 0.8485 0.0
C237 C 0.98797 0.25736 0.80041 0.0
H238 H 0.15375 0.26207 0.87978 0.0
C239 C 0.98837 0.22767 0.75 0.0
H240 H 0.04944 0.29042 0.88801 0.0
C241 C 0.04898 0.21151 0.74478 0.0
C242 C 0.10937 0.22487 0.79012 0.0
H243 H 0.94249 0.21941 0.71183 0.0
H244 H 0.04882 0.19098 0.70309 0.0
C245 C 0.10799 0.25169 0.84355 0.0
C246 C 1.01676 0.22694 0.21431 0.0
C247 C 0.05821 0.24856 0.26992 0.0
H248 H 0.92339 0.19555 0.17346 0.0
C249 C 0.04283 0.24847 0.3311 0.0
H250 H 0.02702 0.2269 0.16655 0.0
C251 C 0.98395 0.23108 0.33491 0.0
C252 C 0.93989 0.21252 0.2781 0.0
H253 H 0.07426 0.26459 0.37513 0.0
H254 H 0.97078 0.23464 0.38096 0.0
C255 C 0.9577 0.20903 0.21841 0.0
C256 C 0.94027 0.39098 0.0292 0.0
C257 C 0.95717 0.39746 0.96945 0.0
H258 H 0.97325 0.38346 0.13646 0.0
C259 C 0.02459 0.40462 0.97635 0.0
H260 H 0.88931 0.3851 0.02703 0.0
C261 C 0.07317 0.40433 0.04046 0.0
C262 C 0.05614 0.39619 0.09964 0.0
H263 H 0.04016 0.40933 0.93217 0.0
H264 H 0.12468 0.40879 0.04328 0.0
C265 C 0.9887 0.38998 0.09272 0.0
C266 C 1.00822 0.63667 0.08457 0.0
C267 C 0.07494 0.6351 0.08567 0.0
H268 H 0.90619 0.64165 0.0249 0.0
C269 C 0.08807 0.63299 1.02305 0.0
H270 H 0.9958 0.63862 0.13116 0.0
C271 C 0.03663 0.63516 0.96162 0.0
C272 C 0.97015 0.6394 0.96059 0.0
H273 H 0.13875 0.63165 1.02127 0.0
H274 H 0.04933 0.63554 0.91515 0.0
C275 C 0.95672 0.63871 1.02308 0.0
C276 C 0.48957 0.89058 0.09155 0.0
C277 C 0.55713 0.89638 0.09879 0.0
H278 H 0.39038 0.8861 0.02549 0.0
C279 C 0.57468 0.9041 0.03975 0.0
H280 H 0.47374 0.88443 0.13518 0.0
C281 C 0.52643 0.90434 0.97543 0.0
C282 C 0.45885 0.89757 0.9682 0.0
H283 H 0.62632 0.90828 0.04287 0.0
H284 H 0.54236 0.9087 0.93138 0.0
C285 C 0.44149 0.89159 0.02784 0.0
C286 C 0.58906 0.13378 0.02398 0.0
C287 C 0.57571 0.13532 0.08654 0.0
H288 H 0.55058 0.13686 0.91612 0.0
C289 C 0.50894 0.13629 0.08526 0.0
H290 H 0.6398 0.1329 1.02234 0.0
C291 C 0.45757 0.13831 1.0237 0.0
C292 C 0.47118 0.13963 0.96131 0.0
H293 H 0.49635 0.13776 0.13178 0.0
H294 H 0.40695 0.14077 0.02542 0.0
C295 C 0.53775 0.13599 0.96248 0.0
C296 C 0.30856 0.53792 0.31062 0.0
C297 C 0.25841 0.56164 0.32578 0.0
H298 H 0.34386 0.47714 0.29409 0.0
C299 C 0.21136 0.54108 0.34878 0.0
H300 H 0.34589 0.55305 0.29336 0.0
C301 C 0.20976 0.49736 0.3486 0.0
C302 C 0.25536 0.47359 0.32571 0.0
H303 H 0.17209 0.55854 0.36068 0.0
H304 H 0.16965 0.48234 0.36141 0.0
C305 C 0.30728 0.49435 0.31088 0.0
C306 C 0.7386 0.5446 0.73404 0.0
C307 C 0.79199 0.56619 0.72358 0.0
H308 H 0.69837 0.48554 0.7469 0.0
C309 C 0.84135 0.54309 0.70572 0.0
H310 H 0.69955 0.56145 0.74739 0.0
C311 C 0.84086 0.49909 0.70568 0.0
C312 C 0.79091 0.47771 0.7234 0.0
H313 H 0.88341 0.55883 0.69787 0.0
H314 H 0.88253 0.48208 0.69779 0.0
C315 C 0.73798 0.50101 0.73379 0.0
C316 C 0.808 0.99428 0.31015 0.0
C317 C 0.75642 0.97342 0.32544 0.0
H318 H 0.84623 0.05309 0.29257 0.0
C319 C 0.71117 0.99706 0.34902 0.0
H320 H 0.84431 0.97716 0.29283 0.0
C321 C 0.71268 0.04079 0.34942 0.0
C322 C 0.7593 0.06147 0.32598 0.0
H323 H 0.67136 0.98195 0.36221 0.0
H324 H 0.67363 0.05815 0.36189 0.0
C325 C 0.80921 0.03786 0.31015 0.0
C326 C 0.238 1.0014 0.73609 0.0
C327 C 0.29044 0.97823 0.72436 0.0
H328 H 0.19987 0.0617 0.75093 0.0
C329 C 0.33969 0.9998 0.70576 0.0
H330 H 0.19889 0.9858 0.74986 0.0
C331 C 0.3401 0.0438 0.70616 0.0
C332 C 0.29134 0.06675 0.72528 0.0
H333 H 0.38095 0.98291 0.69678 0.0
H334 H 0.3817 0.05964 0.69751 0.0
C335 C 0.23851 0.045 0.73667 0.0
C336 C 0.23324 0.28398 0.57013 0.0
C337 C 0.28327 0.25267 0.58926 0.0
H338 H 0.18179 0.32863 0.49593 0.0
C339 C 0.3229 0.24486 0.54738 0.0
H340 H 0.20199 0.29149 0.60132 0.0
C341 C 0.31123 0.26666 0.48705 0.0
C342 C 0.26039 0.29723 0.46759 0.0
H343 H 0.36244 0.22171 0.56079 0.0
H344 H 0.34093 0.25878 0.45441 0.0
C345 C 0.22226 0.30614 0.51031 0.0
C346 C 0.72564 0.27147 0.55591 0.0
C347 C 0.78653 0.29241 0.58519 0.0
H348 H 0.66537 0.23426 0.4741 0.0
C349 C 0.83422 0.2907 0.55094 0.0
H350 H 0.68731 0.27184 0.58052 0.0
C351 C 0.82138 0.26862 0.48958 0.0
C352 C 0.76065 0.24742 0.46082 0.0
H353 H 0.88188 0.30563 0.57209 0.0
H354 H 0.85927 0.26828 0.46444 0.0
C355 C 0.71306 0.24923 0.49504 0.0
C356 C 0.81308 0.76634 0.48514 0.0
C357 C 0.76266 0.79725 0.46639 0.0
H358 H 0.8644 0.7211 0.55847 0.0
C359 C 0.72577 0.80667 0.51003 0.0
H360 H 0.84188 0.75811 0.45178 0.0
C361 C 0.73728 0.78459 0.56991 0.0
C362 C 0.7867 0.75284 0.58829 0.0
H363 H 0.68571 0.82948 0.4963 0.0
H364 H 0.70675 0.79248 0.60168 0.0
C365 C 0.82536 0.7446 0.54563 0.0
C366 C 0.33233 0.7923 0.54842 0.0
C367 C 0.28523 0.79315 0.5834 0.0
H368 H 0.35715 0.77056 0.46147 0.0
C369 C 0.22493 0.77149 0.55474 0.0
H370 H 0.3796 0.80778 0.56912 0.0
C371 C 0.21241 0.74935 0.49373 0.0
C372 C 0.25953 0.74831 0.45887 0.0
H373 H 0.18713 0.77116 0.57999 0.0
H374 H 0.16521 0.73373 0.47329 0.0
C375 C 0.31961 0.77029 0.48704 0.0
C376 C 0.29453 0.25466 0.08105 0.0
C377 C 0.25437 0.29055 0.07501 0.0
H378 H 0.34823 0.2144 0.0337 0.0
C379 C 0.24387 0.31634 1.01867 0.0
H380 H 0.30525 0.2348 0.12474 0.0
C381 C 0.27045 0.30515 0.96756 0.0
C382 C 0.30714 0.26803 0.97246 0.0
H383 H 0.21417 0.34465 1.01347 0.0
H384 H 0.25772 0.32351 0.92209 0.0
C385 C 0.32095 0.24363 0.0302 0.0
C386 C 0.753 0.22574 1.02338 0.0
C387 C 0.74493 0.25327 0.07352 0.0
H388 H 0.77615 0.2193 0.93089 0.0
C389 C 0.75394 0.29606 0.06898 0.0
H390 H 0.74657 0.19238 0.02665 0.0
C391 C 0.77217 0.3111 1.01527 0.0
C392 C 0.78104 0.28352 0.96556 0.0
H393 H 0.74958 0.31753 0.10801 0.0
H394 H 0.77873 0.34445 1.01213 0.0
C395 C 0.7714 0.24078 0.96975 0.0
C396 C 0.81715 0.74288 0.02728 0.0
C397 C 0.80297 0.7672 0.96948 0.0
H398 H 0.80281 0.73448 0.12248 0.0
C399 C 0.76607 0.80424 0.96445 0.0
H400 H 0.84445 0.71366 0.03075 0.0
C401 C 0.74047 0.81577 1.01609 0.0
C402 C 0.75185 0.79026 0.07285 0.0
H403 H 0.75302 0.82247 0.91882 0.0
H404 H 0.711 0.84417 1.01112 0.0
C405 C 0.79157 0.75419 0.07858 0.0
C406 C 0.25817 0.79549 0.06904 0.0
C407 C 0.24717 0.75286 0.07251 0.0
H408 H 0.28541 0.84368 1.01353 0.0
C409 C 0.25508 0.72536 1.02225 0.0
H410 H 0.25409 0.8169 0.10825 0.0
C411 C 0.27482 0.74029 0.96934 0.0
C412 C 0.28605 0.78291 0.96602 0.0
H413 H 0.24729 0.6921 0.02479 0.0
H414 H 0.27901 0.7189 0.93015 0.0
C415 C 0.27778 0.81042 1.01609 0.0
loop_
_geom_bond_atom_site_label_1
_geom_bond_atom_site_label_2
_geom_bond_distance
_geom_bond_site_symmetry_2
_ccdc_geom_bond_type
Fe0 O2 1.918 . S
Fe0 O5 1.997 . S
Fe0 O6 2.002 . S
Fe0 O11 1.976 . S
Fe0 O14 1.996 . S
Fe1 O2 1.918 . S
Fe1 O9 1.997 . S
Fe1 O12 1.996 . S
Fe1 O16 1.976 . S
Fe1 O19 2.002 . S
O2 Fe0 1.918 . S
O2 Fe1 1.918 . S
O2 Fe3 1.918 . S
Fe3 O2 1.918 . S
Fe3 O4 2.002 . S
Fe3 O13 1.976 . S
Fe3 O17 1.996 . S
Fe3 O20 1.997 . S
O4 Fe3 2.002 . S
O4 C21 1.295 . S
O5 Fe0 1.997 . S
O5 C21 1.235 . S
O6 Fe0 2.002 . S
O6 C7 1.295 . S
C7 O6 1.295 . S
C7 O9 1.235 . S
C8 O13 1.287 . S
C8 O14 1.255 . S
O9 Fe1 1.997 . S
O9 C7 1.235 . S
C10 O16 1.287 . S
C10 O17 1.255 . S
O11 Fe0 1.976 . S
O11 C18 1.287 . S
O12 Fe1 1.996 . S
O12 C18 1.255 . S
O13 Fe3 1.976 . S
O13 C8 1.287 . S
O14 Fe0 1.996 . S
O14 C8 1.255 . S
C15 O19 1.295 . S
C15 O20 1.235 . S
O16 Fe1 1.976 . S
O16 C10 1.287 . S
O17 Fe3 1.996 . S
O17 C10 1.255 . S
C18 O11 1.287 . S
C18 O12 1.255 . S
O19 Fe1 2.002 . S
O19 C15 1.295 . S
O20 Fe3 1.997 . S
O20 C15 1.235 . S
C21 O4 1.295 . S
C21 O5 1.235 . S
Fe22 O24 1.918 . S
Fe22 O27 1.997 . S
Fe22 O28 2.002 . S
Fe22 O33 1.976 . S
Fe22 O36 1.996 . S
Fe23 O24 1.918 . S
Fe23 O31 1.997 . S
Fe23 O34 1.996 . S
Fe23 O38 1.976 . S
Fe23 O41 2.002 . S
O24 Fe22 1.918 . S
O24 Fe23 1.918 . S
O24 Fe25 1.918 . S
Fe25 O24 1.918 . S
Fe25 O26 2.002 . S
Fe25 O35 1.976 . S
Fe25 O39 1.996 . S
Fe25 O42 1.997 . S
O26 Fe25 2.002 . S
O26 C43 1.295 . S
O27 Fe22 1.997 . S
O27 C43 1.235 . S
O28 Fe22 2.002 . S
O28 C29 1.295 . S
C29 O28 1.295 . S
C29 O31 1.235 . S
C30 O35 1.287 . S
C30 O36 1.255 . S
O31 Fe23 1.997 . S
O31 C29 1.235 . S
C32 O38 1.287 . S
C32 O39 1.255 . S
O33 Fe22 1.976 . S
O33 C40 1.287 . S
O34 Fe23 1.996 . S
O34 C40 1.255 . S
O35 Fe25 1.976 . S
O35 C30 1.287 . S
O36 Fe22 1.996 . S
O36 C30 1.255 . S
C37 O41 1.295 . S
C37 O42 1.235 . S
O38 Fe23 1.976 . S
O38 C32 1.287 . S
O39 Fe25 1.996 . S
O39 C32 1.255 . S
C40 O33 1.287 . S
C40 O34 1.255 . S
O41 Fe23 2.002 . S
O41 C37 1.295 . S
O42 Fe25 1.997 . S
O42 C37 1.235 . S
C43 O26 1.295 . S
C43 O27 1.235 . S
Fe44 O46 1.918 . S
Fe44 O49 1.997 . S
Fe44 O50 2.002 . S
Fe44 O55 1.976 . S
Fe44 O58 1.996 . S
Fe45 O46 1.918 . S
Fe45 O53 1.997 . S
Fe45 O56 1.996 . S
Fe45 O60 1.976 . S
Fe45 O63 2.002 . S
O46 Fe44 1.918 . S
O46 Fe45 1.918 . S
O46 Fe47 1.918 . S
Fe47 O46 1.918 . S
Fe47 O48 2.002 . S
Fe47 O57 1.976 . S
Fe47 O61 1.996 . S
Fe47 O64 1.997 . S
O48 Fe47 2.002 . S
O48 C65 1.295 . S
O49 Fe44 1.997 . S
O49 C65 1.235 . S
O50 Fe44 2.002 . S
O50 C51 1.295 . S
C51 O50 1.295 . S
C51 O53 1.235 . S
C52 O57 1.287 . S
C52 O58 1.255 . S
O53 Fe45 1.997 . S
O53 C51 1.235 . S
C54 O60 1.287 . S
C54 O61 1.255 . S
O55 Fe44 1.976 . S
O55 C62 1.287 . S
O56 Fe45 1.996 . S
O56 C62 1.255 . S
O57 Fe47 1.976 . S
O57 C52 1.287 . S
O58 Fe44 1.996 . S
O58 C52 1.255 . S
C59 O63 1.295 . S
C59 O64 1.235 . S
O60 Fe45 1.976 . S
O60 C54 1.287 . S
O61 Fe47 1.996 . S
O61 C54 1.255 . S
C62 O55 1.287 . S
C62 O56 1.255 . S
O63 Fe45 2.002 . S
O63 C59 1.295 . S
O64 Fe47 1.997 . S
O64 C59 1.235 . S
C65 O48 1.295 . S
C65 O49 1.235 . S
Fe66 O68 1.918 . S
Fe66 O71 1.997 . S
Fe66 O72 2.002 . S
Fe66 O77 1.976 . S
Fe66 O80 1.996 . S
Fe67 O68 1.918 . S
Fe67 O75 1.997 . S
Fe67 O78 1.996 . S
Fe67 O82 1.976 . S
Fe67 O85 2.002 . S
O68 Fe66 1.918 . S
O68 Fe67 1.918 . S
O68 Fe69 1.918 . S
Fe69 O68 1.918 . S
Fe69 O70 2.002 . S
Fe69 O79 1.976 . S
Fe69 O83 1.996 . S
Fe69 O86 1.997 . S
O70 Fe69 2.002 . S
O70 C87 1.295 . S
O71 Fe66 1.997 . S
O71 C87 1.235 . S
O72 Fe66 2.002 . S
O72 C73 1.295 . S
C73 O72 1.295 . S
C73 O75 1.235 . S
C74 O79 1.287 . S
C74 O80 1.255 . S
O75 Fe67 1.997 . S
O75 C73 1.235 . S
C76 O82 1.287 . S
C76 O83 1.255 . S
O77 Fe66 1.976 . S
O77 C84 1.287 . S
O78 Fe67 1.996 . S
O78 C84 1.255 . S
O79 Fe69 1.976 . S
O79 C74 1.287 . S
O80 Fe66 1.996 . S
O80 C74 1.255 . S
C81 O85 1.295 . S
C81 O86 1.235 . S
O82 Fe67 1.976 . S
O82 C76 1.287 . S
O83 Fe69 1.996 . S
O83 C76 1.255 . S
C84 O77 1.287 . S
C84 O78 1.255 . S
O85 Fe67 2.002 . S
O85 C81 1.295 . S
O86 Fe69 1.997 . S
O86 C81 1.235 . S
C87 O70 1.295 . S
C87 O71 1.235 . S
Fe88 O90 1.918 . S
Fe88 O93 1.997 . S
Fe88 O94 2.002 . S
Fe88 O99 1.976 . S
Fe88 O102 1.996 . S
Fe89 O90 1.918 . S
Fe89 O97 1.997 . S
Fe89 O100 1.996 . S
Fe89 O104 1.976 . S
Fe89 O107 2.002 . S
O90 Fe88 1.918 . S
O90 Fe89 1.918 . S
O90 Fe91 1.918 . S
Fe91 O90 1.918 . S
Fe91 O92 2.002 . S
Fe91 O101 1.976 . S
Fe91 O105 1.996 . S
Fe91 O108 1.997 . S
O92 Fe91 2.002 . S
O92 C109 1.295 . S
O93 Fe88 1.997 . S
O93 C109 1.235 . S
O94 Fe88 2.002 . S
O94 C95 1.295 . S
C95 O94 1.295 . S
C95 O97 1.235 . S
C96 O101 1.287 . S
C96 O102 1.255 . S
O97 Fe89 1.997 . S
O97 C95 1.235 . S
C98 O104 1.287 . S
C98 O105 1.255 . S
O99 Fe88 1.976 . S
O99 C106 1.287 . S
O100 Fe89 1.996 . S
O100 C106 1.255 . S
O101 Fe91 1.976 . S
O101 C96 1.287 . S
O102 Fe88 1.996 . S
O102 C96 1.255 . S
C103 O107 1.295 . S
C103 O108 1.235 . S
O104 Fe89 1.976 . S
O104 C98 1.287 . S
O105 Fe91 1.996 . S
O105 C98 1.255 . S
C106 O99 1.287 . S
C106 O100 1.255 . S
O107 Fe89 2.002 . S
O107 C103 1.295 . S
O108 Fe91 1.997 . S
O108 C103 1.235 . S
C109 O92 1.295 . S
C109 O93 1.235 . S
Fe110 O112 1.918 . S
Fe110 O115 1.997 . S
Fe110 O116 2.002 . S
Fe110 O121 1.976 . S
Fe110 O124 1.996 . S
Fe111 O112 1.918 . S
Fe111 O119 1.997 . S
Fe111 O122 1.996 . S
Fe111 O126 1.976 . S
Fe111 O129 2.002 . S
O112 Fe110 1.918 . S
O112 Fe111 1.918 . S
O112 Fe113 1.918 . S
Fe113 O112 1.918 . S
Fe113 O114 2.002 . S
Fe113 O123 1.976 . S
Fe113 O127 1.996 . S
Fe113 O130 1.997 . S
O114 Fe113 2.002 . S
O114 C131 1.295 . S
O115 Fe110 1.997 . S
O115 C131 1.235 . S
O116 Fe110 2.002 . S
O116 C117 1.295 . S
C117 O116 1.295 . S
C117 O119 1.235 . S
C118 O123 1.287 . S
C118 O124 1.255 . S
O119 Fe111 1.997 . S
O119 C117 1.235 . S
C120 O126 1.287 . S
C120 O127 1.255 . S
O121 Fe110 1.976 . S
O121 C128 1.287 . S
O122 Fe111 1.996 . S
O122 C128 1.255 . S
O123 Fe113 1.976 . S
O123 C118 1.287 . S
O124 Fe110 1.996 . S
O124 C118 1.255 . S
C125 O129 1.295 . S
C125 O130 1.235 . S
O126 Fe111 1.976 . S
O126 C120 1.287 . S
O127 Fe113 1.996 . S
O127 C120 1.255 . S
C128 O121 1.287 . S
C128 O122 1.255 . S
O129 Fe111 2.002 . S
O129 C125 1.295 . S
O130 Fe113 1.997 . S
O130 C125 1.235 . S
C131 O114 1.295 . S
C131 O115 1.235 . S
Fe132 O134 1.918 . S
Fe132 O137 1.997 . S
Fe132 O138 2.002 . S
Fe132 O143 1.976 . S
Fe132 O146 1.996 . S
Fe133 O134 1.918 . S
Fe133 O141 1.997 . S
Fe133 O144 1.996 . S
Fe133 O148 1.976 . S
Fe133 O151 2.002 . S
O134 Fe132 1.918 . S
O134 Fe133 1.918 . S
O134 Fe135 1.918 . S
Fe135 O134 1.918 . S
Fe135 O136 2.002 . S
Fe135 O145 1.976 . S
Fe135 O149 1.996 . S
Fe135 O152 1.997 . S
O136 Fe135 2.002 . S
O136 C153 1.295 . S
O137 Fe132 1.997 . S
O137 C153 1.235 . S
O138 Fe132 2.002 . S
O138 C139 1.295 . S
C139 O138 1.295 . S
C139 O141 1.235 . S
C140 O145 1.287 . S
C140 O146 1.255 . S
O141 Fe133 1.997 . S
O141 C139 1.235 . S
C142 O148 1.287 . S
C142 O149 1.255 . S
O143 Fe132 1.976 . S
O143 C150 1.287 . S
O144 Fe133 1.996 . S
O144 C150 1.255 . S
O145 Fe135 1.976 . S
O145 C140 1.287 . S
O146 Fe132 1.996 . S
O146 C140 1.255 . S
C147 O151 1.295 . S
C147 O152 1.235 . S
O148 Fe133 1.976 . S
O148 C142 1.287 . S
O149 Fe135 1.996 . S
O149 C142 1.255 . S
C150 O143 1.287 . S
C150 O144 1.255 . S
O151 Fe133 2.002 . S
O151 C147 1.295 . S
O152 Fe135 1.997 . S
O152 C147 1.235 . S
C153 O136 1.295 . S
C153 O137 1.235 . S
Fe154 O156 1.918 . S
Fe154 O159 1.997 . S
Fe154 O160 2.002 . S
Fe154 O165 1.976 . S
Fe154 O168 1.996 . S
Fe155 O156 1.918 . S
Fe155 O163 1.997 . S
Fe155 O166 1.996 . S
Fe155 O170 1.976 . S
Fe155 O173 2.002 . S
O156 Fe154 1.918 . S
O156 Fe155 1.918 . S
O156 Fe157 1.918 . S
Fe157 O156 1.918 . S
Fe157 O158 2.002 . S
Fe157 O167 1.976 . S
Fe157 O171 1.996 . S
Fe157 O174 1.997 . S
O158 Fe157 2.002 . S
O158 C175 1.295 . S
O159 Fe154 1.997 . S
O159 C175 1.235 . S
O160 Fe154 2.002 . S
O160 C161 1.295 . S
C161 O160 1.295 . S
C161 O163 1.235 . S
C162 O167 1.287 . S
C162 O168 1.255 . S
O163 Fe155 1.997 . S
O163 C161 1.235 . S
C164 O170 1.287 . S
C164 O171 1.255 . S
O165 Fe154 1.976 . S
O165 C172 1.287 . S
O166 Fe155 1.996 . S
O166 C172 1.255 . S
O167 Fe157 1.976 . S
O167 C162 1.287 . S
O168 Fe154 1.996 . S
O168 C162 1.255 . S
C169 O173 1.295 . S
C169 O174 1.235 . S
O170 Fe155 1.976 . S
O170 C164 1.287 . S
O171 Fe157 1.996 . S
O171 C164 1.255 . S
C172 O165 1.287 . S
C172 O166 1.255 . S
O173 Fe155 2.002 . S
O173 C169 1.295 . S
O174 Fe157 1.997 . S
O174 C169 1.235 . S
C175 O158 1.295 . S
C175 O159 1.235 . S
C176 C177 1.387 . S
C176 H180 0.950 . S
C176 C185 1.390 . S
C177 C176 1.387 . S
C177 C179 1.387 . S
H178 C185 0.950 . S
C179 C177 1.387 . S
C179 C181 1.390 . S
C179 H183 0.950 . S
H180 C176 0.950 . S
C181 C179 1.390 . S
C181 C182 1.387 . S
C181 H184 0.950 . S
C182 C181 1.387 . S
C182 C185 1.387 . S
H183 C179 0.950 . S
H184 C181 0.950 . S
C185 C176 1.390 . S
C185 H178 0.950 . S
C185 C182 1.387 . S
C186 C187 1.387 . S
C186 H190 0.950 . S
C186 C195 1.390 . S
C187 C186 1.387 . S
C187 C189 1.387 . S
H188 C195 0.950 . S
C189 C187 1.387 . S
C189 C191 1.390 . S
C189 H193 0.950 . S
H190 C186 0.950 . S
C191 C189 1.390 . S
C191 C192 1.387 . S
C191 H194 0.950 . S
C192 C191 1.387 . S
C192 C195 1.387 . S
H193 C189 0.950 . S
H194 C191 0.950 . S
C195 C186 1.390 . S
C195 H188 0.950 . S
C195 C192 1.387 . S
C196 C197 1.387 . S
C196 H200 0.950 . S
C196 C205 1.390 . S
C197 C196 1.387 . S
C197 C199 1.387 . S
H198 C205 0.950 . S
C199 C197 1.387 . S
C199 C201 1.390 . S
C199 H203 0.950 . S
H200 C196 0.950 . S
C201 C199 1.390 . S
C201 C202 1.387 . S
C201 H204 0.950 . S
C202 C201 1.387 . S
C202 C205 1.387 . S
H203 C199 0.950 . S
H204 C201 0.950 . S
C205 C196 1.390 . S
C205 H198 0.950 . S
C205 C202 1.387 . S
C206 C207 1.387 . S
C206 H210 0.950 . S
C206 C215 1.390 . S
C207 C206 1.387 . S
C207 C209 1.387 . S
H208 C215 0.950 . S
C209 C207 1.387 . S
C209 C211 1.390 . S
C209 H213 0.950 . S
H210 C206 0.950 . S
C211 C209 1.390 . S
C211 C212 1.387 . S
C211 H214 0.950 . S
C212 C211 1.387 . S
C212 C215 1.387 . S
H213 C209 0.950 . S
H214 C211 0.950 . S
C215 C206 1.390 . S
C215 H208 0.950 . S
C215 C212 1.387 . S
C216 C217 1.387 . S
C216 H220 0.950 . S
C216 C225 1.390 1_455 S
C217 C216 1.387 . S
C217 C219 1.387 . S
H218 C225 0.950 . S
C219 C217 1.387 . S
C219 C221 1.390 1_455 S
C219 H223 0.950 . S
H220 C216 0.950 . S
C221 C219 1.390 1_655 S
C221 C222 1.387 . S
C221 H224 0.950 . S
C222 C221 1.387 . S
C222 C225 1.387 . S
H223 C219 0.950 . S
H224 C221 0.950 . S
C225 C216 1.390 1_655 S
C225 H218 0.950 . S
C225 C222 1.387 . S
C226 C227 1.387 . S
C226 H230 0.950 . S
C226 C235 1.390 1_655 S
C227 C226 1.387 . S
C227 C229 1.387 . S
H228 C235 0.950 . S
C229 C227 1.387 . S
C229 C231 1.390 1_655 S
C229 H233 0.950 . S
H230 C226 0.950 . S
C231 C229 1.390 1_455 S
C231 C232 1.387 . S
C231 H234 0.950 . S
C232 C231 1.387 . S
C232 C235 1.387 . S
H233 C229 0.950 . S
H234 C231 0.950 . S
C235 C226 1.390 1_455 S
C235 H228 0.950 . S
C235 C232 1.387 . S
C236 C237 1.387 1_455 S
C236 H240 0.950 . S
C236 C245 1.390 . S
C237 C236 1.387 1_655 S
C237 C239 1.387 . S
H238 C245 0.950 . S
C239 C237 1.387 . S
C239 C241 1.390 1_655 S
C239 H243 0.950 . S
H240 C236 0.950 . S
C241 C239 1.390 1_455 S
C241 C242 1.387 . S
C241 H244 0.950 . S
C242 C241 1.387 . S
C242 C245 1.387 . S
H243 C239 0.950 . S
H244 C241 0.950 . S
C245 C236 1.390 . S
C245 H238 0.950 . S
C245 C242 1.387 . S
C246 C247 1.387 . S
C246 H250 0.950 . S
C246 C255 1.390 1_455 S
C247 C246 1.387 . S
C247 C249 1.387 . S
H248 C255 0.950 . S
C249 C247 1.387 . S
C249 C251 1.390 1_455 S
C249 H253 0.950 . S
H250 C246 0.950 . S
C251 C249 1.390 1_655 S
C251 C252 1.387 . S
C251 H254 0.950 . S
C252 C251 1.387 . S
C252 C255 1.387 . S
H253 C249 0.950 . S
H254 C251 0.950 . S
C255 C246 1.390 1_655 S
C255 H248 0.950 . S
C255 C252 1.387 . S
C256 C257 1.387 . S
C256 H260 0.950 . S
C256 C265 1.390 1_656 S
C257 C256 1.387 . S
C257 C259 1.387 . S
H258 C265 0.950 . S
C259 C257 1.387 . S
C259 C261 1.390 1_656 S
C259 H263 0.950 . S
H260 C256 0.950 . S
C261 C259 1.390 1_454 S
C261 C262 1.387 . S
C261 H264 0.950 . S
C262 C261 1.387 . S
C262 C265 1.387 . S
H263 C259 0.950 . S
H264 C261 0.950 . S
C265 C256 1.390 1_454 S
C265 H258 0.950 . S
C265 C262 1.387 . S
C266 C267 1.387 . S
C266 H270 0.950 . S
C266 C275 1.390 1_454 S
C267 C266 1.387 . S
C267 C269 1.387 . S
H268 C275 0.950 . S
C269 C267 1.387 . S
C269 C271 1.390 1_454 S
C269 H273 0.950 . S
H270 C266 0.950 . S
C271 C269 1.390 1_656 S
C271 C272 1.387 . S
C271 H274 0.950 . S
C272 C271 1.387 . S
C272 C275 1.387 . S
H273 C269 0.950 . S
H274 C271 0.950 . S
C275 C266 1.390 1_656 S
C275 H268 0.950 . S
C275 C272 1.387 . S
C276 C277 1.387 . S
C276 H280 0.950 . S
C276 C285 1.390 1_554 S
C277 C276 1.387 . S
C277 C279 1.387 . S
H278 C285 0.950 . S
C279 C277 1.387 . S
C279 C281 1.390 1_554 S
C279 H283 0.950 . S
H280 C276 0.950 . S
C281 C279 1.390 1_556 S
C281 C282 1.387 . S
C281 H284 0.950 . S
C282 C281 1.387 . S
C282 C285 1.387 . S
H283 C279 0.950 . S
H284 C281 0.950 . S
C285 C276 1.390 1_556 S
C285 H278 0.950 . S
C285 C282 1.387 . S
C286 C287 1.387 . S
C286 H290 0.950 . S
C286 C295 1.390 1_554 S
C287 C286 1.387 . S
C287 C289 1.387 . S
H288 C295 0.950 . S
C289 C287 1.387 . S
C289 C291 1.390 1_554 S
C289 H293 0.950 . S
H290 C286 0.950 . S
C291 C289 1.390 1_556 S
C291 C292 1.387 . S
C291 H294 0.950 . S
C292 C291 1.387 . S
C292 C295 1.387 . S
H293 C289 0.950 . S
H294 C291 0.950 . S
C295 C286 1.390 1_556 S
C295 H288 0.950 . S
C295 C292 1.387 . S
C296 C297 1.387 . S
C296 H300 0.950 . S
C296 C305 1.390 . S
C297 C296 1.387 . S
C297 C299 1.387 . S
H298 C305 0.950 . S
C299 C297 1.387 . S
C299 C301 1.390 . S
C299 H303 0.950 . S
H300 C296 0.950 . S
C301 C299 1.390 . S
C301 C302 1.387 . S
C301 H304 0.950 . S
C302 C301 1.387 . S
C302 C305 1.387 . S
H303 C299 0.950 . S
H304 C301 0.950 . S
C305 C296 1.390 . S
C305 H298 0.950 . S
C305 C302 1.387 . S
C306 C307 1.387 . S
C306 H310 0.950 . S
C306 C315 1.390 . S
C307 C306 1.387 . S
C307 C309 1.387 . S
H308 C315 0.950 . S
C309 C307 1.387 . S
C309 C311 1.390 . S
C309 H313 0.950 . S
H310 C306 0.950 . S
C311 C309 1.390 . S
C311 C312 1.387 . S
C311 H314 0.950 . S
C312 C311 1.387 . S
C312 C315 1.387 . S
H313 C309 0.950 . S
H314 C311 0.950 . S
C315 C306 1.390 . S
C315 H308 0.950 . S
C315 C312 1.387 . S
C316 C317 1.387 . S
C316 H320 0.950 . S
C316 C325 1.390 1_565 S
C317 C316 1.387 . S
C317 C319 1.387 . S
H318 C325 0.950 . S
C319 C317 1.387 . S
C319 C321 1.390 1_565 S
C319 H323 0.950 . S
H320 C316 0.950 . S
C321 C319 1.390 1_545 S
C321 C322 1.387 . S
C321 H324 0.950 . S
C322 C321 1.387 . S
C322 C325 1.387 . S
H323 C319 0.950 . S
H324 C321 0.950 . S
C325 C316 1.390 1_545 S
C325 H318 0.950 . S
C325 C322 1.387 . S
C326 C327 1.387 . S
C326 H330 0.950 . S
C326 C335 1.390 1_565 S
C327 C326 1.387 . S
C327 C329 1.387 . S
H328 C335 0.950 . S
C329 C327 1.387 . S
C329 C331 1.390 1_565 S
C329 H333 0.950 . S
H330 C326 0.950 . S
C331 C329 1.390 1_545 S
C331 C332 1.387 . S
C331 H334 0.950 . S
C332 C331 1.387 . S
C332 C335 1.387 . S
H333 C329 0.950 . S
H334 C331 0.950 . S
C335 C326 1.390 1_545 S
C335 H328 0.950 . S
C335 C332 1.387 . S
C336 C337 1.387 . S
C336 H340 0.950 . S
C336 C345 1.390 . S
C337 C336 1.387 . S
C337 C339 1.387 . S
H338 C345 0.950 . S
C339 C337 1.387 . S
C339 C341 1.390 . S
C339 H343 0.950 . S
H340 C336 0.950 . S
C341 C339 1.390 . S
C341 C342 1.387 . S
C341 H344 0.950 . S
C342 C341 1.387 . S
C342 C345 1.387 . S
H343 C339 0.950 . S
H344 C341 0.950 . S
C345 C336 1.390 . S
C345 H338 0.950 . S
C345 C342 1.387 . S
C346 C347 1.387 . S
C346 H350 0.950 . S
C346 C355 1.390 . S
C347 C346 1.387 . S
C347 C349 1.387 . S
H348 C355 0.950 . S
C349 C347 1.387 . S
C349 C351 1.390 . S
C349 H353 0.950 . S
H350 C346 0.950 . S
C351 C349 1.390 . S
C351 C352 1.387 . S
C351 H354 0.950 . S
C352 C351 1.387 . S
C352 C355 1.387 . S
H353 C349 0.950 . S
H354 C351 0.950 . S
C355 C346 1.390 . S
C355 H348 0.950 . S
C355 C352 1.387 . S
C356 C357 1.387 . S
C356 H360 0.950 . S
C356 C365 1.390 . S
C357 C356 1.387 . S
C357 C359 1.387 . S
H358 C365 0.950 . S
C359 C357 1.387 . S
C359 C361 1.390 . S
C359 H363 0.950 . S
H360 C356 0.950 . S
C361 C359 1.390 . S
C361 C362 1.387 . S
C361 H364 0.950 . S
C362 C361 1.387 . S
C362 C365 1.387 . S
H363 C359 0.950 . S
H364 C361 0.950 . S
C365 C356 1.390 . S
C365 H358 0.950 . S
C365 C362 1.387 . S
C366 C367 1.387 . S
C366 H370 0.950 . S
C366 C375 1.390 . S
C367 C366 1.387 . S
C367 C369 1.387 . S
H368 C375 0.950 . S
C369 C367 1.387 . S
C369 C371 1.390 . S
C369 H373 0.950 . S
H370 C366 0.950 . S
C371 C369 1.390 . S
C371 C372 1.387 . S
C371 H374 0.950 . S
C372 C371 1.387 . S
C372 C375 1.387 . S
H373 C369 0.950 . S
H374 C371 0.950 . S
C375 C366 1.390 . S
C375 H368 0.950 . S
C375 C372 1.387 . S
C376 C377 1.387 . S
C376 H380 0.950 . S
C376 C385 1.390 1_554 S
C377 C376 1.387 . S
C377 C379 1.387 . S
H378 C385 0.950 . S
C379 C377 1.387 . S
C379 C381 1.390 1_554 S
C379 H383 0.950 . S
H380 C376 0.950 . S
C381 C379 1.390 1_556 S
C381 C382 1.387 . S
C381 H384 0.950 . S
C382 C381 1.387 . S
C382 C385 1.387 . S
H383 C379 0.950 . S
H384 C381 0.950 . S
C385 C376 1.390 1_556 S
C385 H378 0.950 . S
C385 C382 1.387 . S
C386 C387 1.387 . S
C386 H390 0.950 . S
C386 C395 1.390 1_554 S
C387 C386 1.387 . S
C387 C389 1.387 . S
H388 C395 0.950 . S
C389 C387 1.387 . S
C389 C391 1.390 1_554 S
C389 H393 0.950 . S
H390 C386 0.950 . S
C391 C389 1.390 1_556 S
C391 C392 1.387 . S
C391 H394 0.950 . S
C392 C391 1.387 . S
C392 C395 1.387 . S
H393 C389 0.950 . S
H394 C391 0.950 . S
C395 C386 1.390 1_556 S
C395 H388 0.950 . S
C395 C392 1.387 . S
C396 C397 1.387 . S
C396 H400 0.950 . S
C396 C405 1.390 1_556 S
C397 C396 1.387 . S
C397 C399 1.387 . S
H398 C405 0.950 . S
C399 C397 1.387 . S
C399 C401 1.390 1_556 S
C399 H403 0.950 . S
H400 C396 0.950 . S
C401 C399 1.390 1_554 S
C401 C402 1.387 . S
C401 H404 0.950 . S
C402 C401 1.387 . S
C402 C405 1.387 . S
H403 C399 0.950 . S
H404 C401 0.950 . S
C405 C396 1.390 1_554 S
C405 H398 0.950 . S
C405 C402 1.387 . S
C406 C407 1.387 . S
C406 H410 0.950 . S
C406 C415 1.390 1_554 S
C407 C406 1.387 . S
C407 C409 1.387 . S
H408 C415 0.950 . S
C409 C407 1.387 . S
C409 C411 1.390 1_554 S
C409 H413 0.950 . S
H410 C406 0.950 . S
C411 C409 1.390 1_556 S
C411 C412 1.387 . S
C411 H414 0.950 . S
C412 C411 1.387 . S
C412 C415 1.387 . S
H413 C409 0.950 . S
H414 C411 0.950 . S
C415 C406 1.390 1_556 S
C415 H408 0.950 . S
C415 C412 1.387 . S
C177 C175 1.438 . S
C182 C18 1.417 . S
C187 C40 1.417 . S
C192 C153 1.438 . S
C197 C117 1.446 . S
C202 C62 1.423 . S
C207 C74 1.426 . S
C212 C103 1.445 . S
C217 C81 1.438 . S
C222 C106 1.417 . S
C227 C65 1.437 . S
C232 C118 1.420 . S
C237 C37 1.444 . S
C242 C150 1.424 . S
C247 C15 1.445 . S
C252 C172 1.426 . S
C257 C43 1.665 . S
C262 C21 1.665 . S
C267 C73 1.669 . S
C272 C59 1.669 . S
C277 C109 1.665 . S
C282 C125 1.665 . S
C287 C169 1.669 . S
C292 C147 1.669 . S
C297 C84 1.470 . S
C302 C8 1.472 . S
C307 C54 1.470 . S
C312 C30 1.472 . S
C317 C96 1.471 . S
C322 C164 1.470 . S
C327 C120 1.472 . S
C332 C142 1.471 . S
C337 C140 1.823 . S
C342 C10 1.838 . S
C347 C32 1.835 . S
C352 C162 1.820 . S
C357 C98 1.835 . S
C362 C52 1.819 . S
C367 C128 1.838 . S
C372 C76 1.823 . S
C377 C7 1.174 . S
C382 C139 1.187 . S
C387 C161 1.186 . S
C392 C29 1.174 . S
C397 C51 1.187 . S
C402 C95 1.174 . S
C407 C87 1.189 . S
C412 C131 1.177 . S
