# Generated by pormake.
# Topology lcs, (4)-cn, num edge types: 1
# Building blocks:
#     Node 0, Type 0, BuildingBlock: QUQFOY_clean_sbu_3, # of connection points: 4
#     Node 1, Type 0, BuildingBlock: QUQFOY_clean_sbu_3, # of connection points: 4
#     Node 2, Type 0, BuildingBlock: QUQFOY_clean_sbu_3, # of connection points: 4
#     Node 3, Type 0, BuildingBlock: QUQFOY_clean_sbu_3, # of connection points: 4
#     Node 4, Type 0, BuildingBlock: QUQFOY_clean_sbu_3, # of connection points: 4
#     Node 5, Type 0, BuildingBlock: QUQFOY_clean_sbu_3, # of connection points: 4
#     Node 6, Type 0, BuildingBlock: QUQFOY_clean_sbu_3, # of connection points: 4
#     Node 7, Type 0, BuildingBlock: QUQFOY_clean_sbu_3, # of connection points: 4
#     Node 8, Type 0, BuildingBlock: QUQFOY_clean_sbu_3, # of connection points: 4
#     Node 9, Type 0, BuildingBlock: QUQFOY_clean_sbu_3, # of connection points: 4
#     Node 10, Type 0, BuildingBlock: QUQFOY_clean_sbu_3, # of connection points: 4
#     Node 11, Type 0, BuildingBlock: QUQFOY_clean_sbu_3, # of connection points: 4
#     Node 12, Type 0, BuildingBlock: QUQFOY_clean_sbu_3, # of connection points: 4
#     Node 13, Type 0, BuildingBlock: QUQFOY_clean_sbu_3, # of connection points: 4
#     Node 14, Type 0, BuildingBlock: QUQFOY_clean_sbu_3, # of connection points: 4
#     Node 15, Type 0, BuildingBlock: QUQFOY_clean_sbu_3, # of connection points: 4
#     Node 16, Type 0, BuildingBlock: QUQFOY_clean_sbu_3, # of connection points: 4
#     Node 17, Type 0, BuildingBlock: QUQFOY_clean_sbu_3, # of connection points: 4
#     Node 18, Type 0, BuildingBlock: QUQFOY_clean_sbu_3, # of connection points: 4
#     Node 19, Type 0, BuildingBlock: QUQFOY_clean_sbu_3, # of connection points: 4
#     Node 20, Type 0, BuildingBlock: QUQFOY_clean_sbu_3, # of connection points: 4
#     Node 21, Type 0, BuildingBlock: QUQFOY_clean_sbu_3, # of connection points: 4
#     Node 22, Type 0, BuildingBlock: QUQFOY_clean_sbu_3, # of connection points: 4
#     Node 23, Type 0, BuildingBlock: QUQFOY_clean_sbu_3, # of connection points: 4
#     Edge 24, Type (0, 0), BuildingBlock: KIFKEQ_clean_linker_1, # of connection points: 2
#     Edge 25, Type (0, 0), BuildingBlock: KIFKEQ_clean_linker_1, # of connection points: 2
#     Edge 26, Type (0, 0), BuildingBlock: KIFKEQ_clean_linker_1, # of connection points: 2
#     Edge 27, Type (0, 0), BuildingBlock: KIFKEQ_clean_linker_1, # of connection points: 2
#     Edge 28, Type (0, 0), BuildingBlock: KIFKEQ_clean_linker_1, # of connection points: 2
#     Edge 29, Type (0, 0), BuildingBlock: KIFKEQ_clean_linker_1, # of connection points: 2
#     Edge 30, Type (0, 0), BuildingBlock: KIFKEQ_clean_linker_1, # of connection points: 2
#     Edge 31, Type (0, 0), BuildingBlock: KIFKEQ_clean_linker_1, # of connection points: 2
#     Edge 32, Type (0, 0), BuildingBlock: KIFKEQ_clean_linker_1, # of connection points: 2
#     Edge 33, Type (0, 0), BuildingBlock: KIFKEQ_clean_linker_1, # of connection points: 2
#     Edge 34, Type (0, 0), BuildingBlock: KIFKEQ_clean_linker_1, # of connection points: 2
#     Edge 35, Type (0, 0), BuildingBlock: KIFKEQ_clean_linker_1, # of connection points: 2
#     Edge 36, Type (0, 0), BuildingBlock: KIFKEQ_clean_linker_1, # of connection points: 2
#     Edge 37, Type (0, 0), BuildingBlock: KIFKEQ_clean_linker_1, # of connection points: 2
#     Edge 38, Type (0, 0), BuildingBlock: KIFKEQ_clean_linker_1, # of connection points: 2
#     Edge 39, Type (0, 0), BuildingBlock: KIFKEQ_clean_linker_1, # of connection points: 2
#     Edge 40, Type (0, 0), BuildingBlock: KIFKEQ_clean_linker_1, # of connection points: 2
#     Edge 41, Type (0, 0), BuildingBlock: KIFKEQ_clean_linker_1, # of connection points: 2
#     Edge 42, Type (0, 0), BuildingBlock: KIFKEQ_clean_linker_1, # of connection points: 2
#     Edge 43, Type (0, 0), BuildingBlock: KIFKEQ_clean_linker_1, # of connection points: 2
#     Edge 44, Type (0, 0), BuildingBlock: KIFKEQ_clean_linker_1, # of connection points: 2
#     Edge 45, Type (0, 0), BuildingBlock: KIFKEQ_clean_linker_1, # of connection points: 2
#     Edge 46, Type (0, 0), BuildingBlock: KIFKEQ_clean_linker_1, # of connection points: 2
#     Edge 47, Type (0, 0), BuildingBlock: KIFKEQ_clean_linker_1, # of connection points: 2
#     Edge 48, Type (0, 0), BuildingBlock: KIFKEQ_clean_linker_1, # of connection points: 2
#     Edge 49, Type (0, 0), BuildingBlock: KIFKEQ_clean_linker_1, # of connection points: 2
#     Edge 50, Type (0, 0), BuildingBlock: KIFKEQ_clean_linker_1, # of connection points: 2
#     Edge 51, Type (0, 0), BuildingBlock: KIFKEQ_clean_linker_1, # of connection points: 2
#     Edge 52, Type (0, 0), BuildingBlock: KIFKEQ_clean_linker_1, # of connection points: 2
#     Edge 53, Type (0, 0), BuildingBlock: KIFKEQ_clean_linker_1, # of connection points: 2
#     Edge 54, Type (0, 0), BuildingBlock: KIFKEQ_clean_linker_1, # of connection points: 2
#     Edge 55, Type (0, 0), BuildingBlock: KIFKEQ_clean_linker_1, # of connection points: 2
#     Edge 56, Type (0, 0), BuildingBlock: KIFKEQ_clean_linker_1, # of connection points: 2
#     Edge 57, Type (0, 0), BuildingBlock: KIFKEQ_clean_linker_1, # of connection points: 2
#     Edge 58, Type (0, 0), BuildingBlock: KIFKEQ_clean_linker_1, # of connection points: 2
#     Edge 59, Type (0, 0), BuildingBlock: KIFKEQ_clean_linker_1, # of connection points: 2
#     Edge 60, Type (0, 0), BuildingBlock: KIFKEQ_clean_linker_1, # of connection points: 2
#     Edge 61, Type (0, 0), BuildingBlock: KIFKEQ_clean_linker_1, # of connection points: 2
#     Edge 62, Type (0, 0), BuildingBlock: KIFKEQ_clean_linker_1, # of connection points: 2
#     Edge 63, Type (0, 0), BuildingBlock: KIFKEQ_clean_linker_1, # of connection points: 2
#     Edge 64, Type (0, 0), BuildingBlock: KIFKEQ_clean_linker_1, # of connection points: 2
#     Edge 65, Type (0, 0), BuildingBlock: KIFKEQ_clean_linker_1, # of connection points: 2
#     Edge 66, Type (0, 0), BuildingBlock: KIFKEQ_clean_linker_1, # of connection points: 2
#     Edge 67, Type (0, 0), BuildingBlock: KIFKEQ_clean_linker_1, # of connection points: 2
#     Edge 68, Type (0, 0), BuildingBlock: KIFKEQ_clean_linker_1, # of connection points: 2
#     Edge 69, Type (0, 0), BuildingBlock: KIFKEQ_clean_linker_1, # of connection points: 2
#     Edge 70, Type (0, 0), BuildingBlock: KIFKEQ_clean_linker_1, # of connection points: 2
#     Edge 71, Type (0, 0), BuildingBlock: KIFKEQ_clean_linker_1, # of connection points: 2
# Relax obj value: 0.004
# Max RMSD: 0.037
# Mean RMSD: 0.027
data_MOF--net-lcs--node1-QUQFOY_clean_sbu_3--edge1-KIFKEQ_clean_linker_1
_symmetry_space_group_name_H-M    P1
_symmetry_Int_Tables_number       1
_symmetry_cell_setting            triclinic
loop_
_symmetry_equiv_pos_as_xyz
'x, y, z'
_cell_length_a     51.642285
_cell_length_b     52.452637
_cell_length_c     52.648257
_cell_angle_alpha  91.386693
_cell_angle_beta   89.929943
_cell_angle_gamma 91.045973
loop_
_atom_site_label
_atom_site_type_symbol
_atom_site_fract_x
_atom_site_fract_y
_atom_site_fract_z
_atom_type_partial_charge
C0 C 0.95074 0.25569 0.41684 0.0
O1 O 0.96115 0.23939 0.43083 0.0
Cd2 Cd -0.00322 0.21404 0.41818 0.0
O3 O 0.96032 0.2607 0.39513 0.0
Cd4 Cd -0.00089 0.24837 0.36942 0.0
C5 C 0.97327 0.18943 0.36105 0.0
O6 O 0.02924 0.2435 0.40421 0.0
O7 O 0.04089 0.2264 0.36849 0.0
O8 O 0.00626 0.29342 0.36125 0.0
C9 C 0.04657 0.23239 0.39129 0.0
O10 O 0.97932 0.18603 0.38416 0.0
C11 C 0.00919 0.29066 0.33742 0.0
O12 O 0.97738 0.21085 0.35077 0.0
O13 O 0.00685 0.26812 0.32822 0.0
C14 C 0.95147 0.76236 0.57479 0.0
O15 O 0.97166 0.76803 0.56217 0.0
Cd16 Cd 0.0146 0.75938 0.57611 0.0
O17 O 0.95318 0.75036 0.59548 0.0
Cd18 Cd -0.01368 0.73058 0.62257 0.0
C19 C 0.01331 0.78869 0.6355 0.0
O20 O 0.01363 0.71559 0.58778 0.0
O21 O 0.02867 0.71098 0.62559 0.0
O22 O 0.95493 0.69593 0.6273 0.0
C23 C 0.03143 0.70749 0.60186 0.0
O24 O 0.02112 0.78842 0.61254 0.0
C25 C 0.95709 0.6947 0.65125 0.0
O26 O -0.0003 0.77035 0.64412 0.0
O27 O 0.97258 0.71061 0.66207 0.0
C28 C 0.44592 0.75203 0.91882 0.0
O29 O 0.45519 0.734 0.93144 0.0
Cd30 Cd 0.49245 0.71021 0.91983 0.0
O31 O 0.45693 0.75935 0.89849 0.0
Cd32 Cd 0.49651 0.74839 0.87367 0.0
C33 C 0.47364 0.68858 0.86046 0.0
O34 O 0.52437 0.7417 0.90986 0.0
O35 O 0.54017 0.72972 0.87382 0.0
O36 O 0.50331 0.79391 0.86697 0.0
C37 C 0.5434 0.73295 0.89755 0.0
O38 O 0.47951 0.68344 0.88324 0.0
C39 C 0.50695 0.79171 0.84317 0.0
O40 O 0.47635 0.71118 0.85241 0.0
O41 O 0.50498 0.76937 0.83342 0.0
C42 C 0.45052 0.26376 0.0696 0.0
O43 O 0.4706 0.27049 0.05735 0.0
Cd44 Cd 0.51379 0.26351 0.07164 0.0
O45 O 0.4525 0.25145 0.09008 0.0
Cd46 Cd 0.48651 0.23292 0.11695 0.0
C47 C 0.51166 0.29148 0.13146 0.0
O48 O 0.51561 0.2197 0.08293 0.0
O49 O 0.53026 0.21702 0.12122 0.0
O50 O 0.46264 0.19292 0.12086 0.0
C51 C 0.53357 0.21298 0.09761 0.0
O52 O 0.51934 0.29211 0.10849 0.0
C53 C 0.4602 0.19437 0.14484 0.0
O54 O 0.49875 0.27246 0.13963 0.0
O55 O 0.46939 0.21428 0.15601 0.0
C56 C 0.94692 0.73351 0.0793 0.0
O57 O 0.95566 0.75212 0.06668 0.0
Cd58 Cd -0.00663 0.77694 0.07733 0.0
O59 O 0.95829 0.72673 0.09949 0.0
Cd60 Cd -0.00261 0.73914 0.12489 0.0
C61 C 0.97642 0.79895 0.13729 0.0
O62 O 0.02414 0.74592 0.088 0.0
O63 O 0.04146 0.75863 0.12322 0.0
O64 O 0.0019 0.69365 0.13104 0.0
C65 C 0.04363 0.75552 0.09937 0.0
O66 O 0.98213 0.80348 0.11427 0.0
C67 C 0.00664 0.69536 0.15466 0.0
O68 O 0.97817 0.77654 0.1459 0.0
O69 O 0.00667 0.7176 0.16478 0.0
C70 C 0.44786 0.72158 0.40968 0.0
O71 O 0.46755 0.71746 0.42328 0.0
Cd72 Cd 0.51083 0.72673 0.40998 0.0
O73 O 0.45039 0.73229 0.38831 0.0
Cd74 Cd 0.48546 0.75116 0.36187 0.0
C75 C 0.51112 0.69323 0.35274 0.0
O76 O 0.51173 0.76986 0.39628 0.0
O77 O 0.53008 0.76713 0.35955 0.0
O78 O 0.45484 0.78487 0.35402 0.0
C79 C 0.53106 0.77517 0.38241 0.0
O80 O 0.51925 0.69591 0.37551 0.0
C81 C 0.46029 0.78688 0.33064 0.0
O82 O 0.49686 0.70997 0.34301 0.0
O83 O 0.47687 0.77163 0.32144 0.0
C84 C 0.44586 0.2335 0.58158 0.0
O85 O 0.45261 0.25328 0.56963 0.0
Cd86 Cd 0.49178 0.27715 0.5774 0.0
O87 O 0.45948 0.22559 0.59985 0.0
Cd88 Cd 0.49955 0.23866 0.62309 0.0
C89 C 0.47927 0.29825 0.63822 0.0
O90 O 0.52421 0.24643 0.58472 0.0
O91 O 0.54311 0.25833 0.61948 0.0
O92 O 0.50506 0.19313 0.62861 0.0
C93 C 0.5442 0.25579 0.5955 0.0
O94 O 0.48393 0.3034 0.61514 0.0
C95 C 0.51085 0.19476 0.65201 0.0
O96 O 0.48105 0.27552 0.64601 0.0
O97 O 0.51113 0.21694 0.66225 0.0
C98 C 0.9501 0.21969 0.90771 0.0
O99 O 0.96987 0.21504 0.92103 0.0
Cd100 Cd 0.01325 0.22596 0.90926 0.0
O101 O 0.95241 0.23155 0.88694 0.0
Cd102 Cd -0.01308 0.25196 0.86102 0.0
C103 C 0.01539 0.19499 0.85077 0.0
O104 O 0.01138 0.26935 0.89711 0.0
O105 O 0.02955 0.27329 0.86055 0.0
O106 O 0.95428 0.28389 0.85319 0.0
C107 C 0.03019 0.27791 0.88426 0.0
O108 O 0.02288 0.19698 0.87378 0.0
C109 C 0.96039 0.28701 0.8301 0.0
O110 O 0.00094 0.21176 0.84132 0.0
O111 O 0.97815 0.27303 0.82103 0.0
C112 C 0.4017 0.94588 0.24589 0.0
O113 O 0.4143 0.95446 0.2271 0.0
Cd114 Cd 0.40489 -0.00618 0.20667 0.0
O115 O 0.38253 0.95793 0.25513 0.0
Cd116 Cd 0.35786 -0.00302 0.24732 0.0
C117 C 0.34357 0.97763 0.18663 0.0
O118 O 0.39519 0.02472 0.23925 0.0
O119 O 0.3578 0.04118 0.23341 0.0
O120 O 0.35265 0.00026 0.29325 0.0
C121 C 0.38221 0.04398 0.23337 0.0
O122 O 0.36691 0.98348 0.18111 0.0
C123 C 0.32842 0.00393 0.29282 0.0
O124 O 0.33553 0.97908 0.20952 0.0
O125 O 0.31765 0.00371 0.27112 0.0
C126 C 0.19479 0.15972 0.48879 0.0
O127 O 0.20205 0.17165 0.50887 0.0
Cd128 Cd 0.23868 0.15975 0.53329 0.0
O129 O 0.20642 0.13977 0.48103 0.0
Cd130 Cd 0.24295 0.11311 0.49471 0.0
C131 C 0.21717 0.1011 0.5523 0.0
O132 O 0.27197 0.14915 0.50331 0.0
O133 O 0.28507 0.1131 0.5167 0.0
O134 O 0.24944 0.10605 0.44936 0.0
C135 C 0.28991 0.13649 0.51301 0.0
O136 O 0.22428 0.12378 0.55846 0.0
C137 C 0.25326 0.08229 0.45042 0.0
O138 O 0.21965 0.09272 0.52953 0.0
O139 O 0.25202 0.07253 0.47224 0.0
C140 C 0.06602 0.03651 0.75159 0.0
O141 O 0.05156 0.0273 0.734 0.0
Cd142 Cd 0.06092 -0.01105 0.70999 0.0
O143 O 0.08641 0.02504 0.75816 0.0
Cd144 Cd 0.11067 0.98584 0.74788 0.0
C145 C 0.12133 0.0058 0.68759 0.0
O146 O 0.07263 0.95862 0.74082 0.0
O147 O 0.1093 0.94125 0.73276 0.0
O148 O 0.1188 0.98359 0.7933 0.0
C149 C 0.08486 0.939 0.73371 0.0
O150 O 0.09758 0.00051 0.68305 0.0
C151 C 0.14286 0.97942 0.7912 0.0
O152 O 0.13069 0.00344 0.70978 0.0
O153 O 0.15218 0.97892 0.76884 0.0
C154 C 0.2782 0.82409 0.98423 0.0
O155 O 0.26706 0.81151 0.00156 0.0
Cd156 Cd 0.22903 0.82341 0.02413 0.0
O157 O 0.26879 0.84492 0.97666 0.0
Cd158 Cd 0.22967 0.87101 0.98573 0.0
C159 C 0.24915 0.88297 0.04634 0.0
O160 O 0.2002 0.83544 -0.00826 0.0
O161 O 0.18539 0.87172 0.00375 0.0
O162 O 0.22586 0.87777 0.94028 0.0
C163 C 0.18149 0.84791 0.00077 0.0
O164 O 0.24211 0.86013 0.05092 0.0
C165 C 0.22283 0.9017 0.94224 0.0
O166 O 0.24825 0.89141 0.02386 0.0
O167 O 0.22367 0.91157 0.9645 0.0
C168 C 0.27514 0.32386 0.01517 0.0
O169 O 0.25493 0.31154 0.02176 0.0
Cd170 Cd 0.21193 0.32601 0.0153 0.0
O171 O 0.27335 0.34465 0.00326 0.0
Cd172 Cd 0.23925 0.3717 0.98506 0.0
C173 C 0.21606 0.38594 0.04365 0.0
O174 O 0.2097 0.3372 0.97166 0.0
O175 O 0.19533 0.37545 0.96891 0.0
O176 O 0.26567 0.37519 0.94701 0.0
C177 C 0.19178 0.35175 0.96486 0.0
O178 O 0.20783 0.36292 0.04394 0.0
C179 C 0.26509 0.39933 0.94614 0.0
O180 O 0.22883 0.39433 0.02481 0.0
O181 O 0.25325 0.41086 0.96406 0.0
C182 C 0.77403 0.15994 0.96762 0.0
O183 O 0.75418 0.17294 0.9629 0.0
Cd184 Cd 0.71113 0.15977 0.97392 0.0
O185 O 0.77193 0.13925 0.97976 0.0
Cd186 Cd 0.73849 0.11268 0.00102 0.0
C187 C 0.70973 0.10033 0.9442 0.0
O188 O 0.71331 0.14811 0.01733 0.0
O189 O 0.696 0.1108 0.0219 0.0
O190 O 0.77057 0.10849 0.03423 0.0
C191 C 0.69481 0.13467 0.02589 0.0
O192 O 0.70207 0.12326 0.94564 0.0
C193 C 0.76742 0.08462 0.0367 0.0
O194 O 0.72427 0.09151 0.96132 0.0
O195 O 0.7512 0.07341 0.02191 0.0
C196 C 0.15593 0.49742 0.28846 0.0
O197 O 0.17014 0.47978 0.2796 0.0
Cd198 Cd 0.16163 0.45713 0.24012 0.0
O199 O 0.13627 0.50467 0.27611 0.0
Cd200 Cd 0.11327 0.49599 0.23551 0.0
C201 C 0.09968 0.43488 0.25215 0.0
O202 O 0.15234 0.4895 0.21065 0.0
O203 O 0.11655 0.48242 0.19058 0.0
O204 O 0.107 0.54186 0.23438 0.0
C205 C 0.14108 0.4832 0.19005 0.0
O206 O 0.12349 0.43032 0.24804 0.0
C207 C 0.08305 0.54042 0.22902 0.0
O208 O 0.09106 0.45739 0.2504 0.0
O209 O 0.0729 0.51819 0.22726 0.0
C210 C 0.77669 0.81942 0.51489 0.0
O211 O 0.75663 0.80579 0.51901 0.0
Cd212 Cd 0.7138 0.81914 0.50919 0.0
O213 O 0.7748 0.84076 0.50404 0.0
Cd214 Cd 0.74062 0.86682 0.48496 0.0
C215 C 0.71238 0.87707 0.5416 0.0
O216 O 0.71305 0.83293 0.46631 0.0
O217 O 0.69616 0.87016 0.47021 0.0
O218 O 0.76849 0.87243 0.44834 0.0
C219 C 0.69436 0.84744 0.46159 0.0
O220 O 0.70402 0.85418 0.53873 0.0
C221 C 0.76685 0.89651 0.44782 0.0
O222 O 0.72808 0.88667 0.5256 0.0
O223 O 0.75375 0.90717 0.46541 0.0
C224 C 0.82033 0.98589 0.28837 0.0
O225 O 0.80512 0.00197 0.27909 0.0
Cd226 Cd 0.81738 0.02681 0.24318 0.0
O227 O 0.84166 0.98085 0.27733 0.0
Cd228 Cd 0.86622 -0.00821 0.23847 0.0
C229 C 0.87639 0.05018 0.26492 0.0
O230 O 0.83057 -0.0011 0.20886 0.0
O231 O 0.8686 0.01227 0.19762 0.0
O232 O 0.87166 0.94627 0.23126 0.0
C233 C 0.84498 0.00854 0.1919 0.0
O234 O 0.85266 0.05392 0.25988 0.0
C235 C 0.89603 0.94743 0.22815 0.0
O236 O 0.88668 0.02876 0.25984 0.0
O237 O 0.90682 0.96934 0.23051 0.0
C238 C 0.27209 0.66005 0.46893 0.0
O239 O 0.252 0.67273 0.46426 0.0
Cd240 Cd 0.20911 0.65891 0.47544 0.0
O241 O 0.27034 0.63928 0.48096 0.0
Cd242 Cd 0.23733 0.61201 0.50196 0.0
C243 C 0.20781 0.59963 0.4455 0.0
O244 O 0.21138 0.64679 0.51876 0.0
O245 O 0.1951 0.609 0.52306 0.0
O246 O 0.26958 0.60767 0.53504 0.0
C247 C 0.19326 0.63279 0.52722 0.0
O248 O 0.19991 0.62248 0.4471 0.0
C249 C 0.26694 0.58368 0.53692 0.0
O250 O 0.2228 0.59097 0.46233 0.0
O251 O 0.25087 0.57253 0.52193 0.0
C252 C 0.32222 0.48677 0.78658 0.0
O253 O 0.30811 0.50384 0.77737 0.0
Cd254 Cd 0.32052 0.52695 0.74017 0.0
O255 O 0.34306 0.48031 0.77541 0.0
Cd256 Cd 0.36824 0.49027 0.73688 0.0
C257 C 0.37994 0.5499 0.7603 0.0
O258 O 0.33269 0.49712 0.70716 0.0
O259 O 0.37087 0.50916 0.69512 0.0
O260 O 0.37387 0.4446 0.73084 0.0
C261 C 0.34712 0.50584 0.68974 0.0
O262 O 0.35671 0.55453 0.75402 0.0
C263 C 0.39831 0.44577 0.72836 0.0
O264 O 0.3889 0.52752 0.75757 0.0
O265 O 0.40897 0.46776 0.73041 0.0
C266 C 0.65882 -0.0023 0.7869 0.0
O267 O 0.67295 0.97999 0.77808 0.0
Cd268 Cd 0.6615 0.9554 0.74041 0.0
O269 O 0.63847 0.00403 0.77514 0.0
Cd270 Cd 0.61401 -0.00643 0.73586 0.0
C271 C 0.60013 0.93477 0.75744 0.0
O272 O 0.65085 0.9845 0.70792 0.0
O273 O 0.61298 0.97374 0.69362 0.0
O274 O 0.60989 0.0393 0.73091 0.0
C275 C 0.63716 0.97547 0.68972 0.0
O276 O 0.62358 0.92967 0.75209 0.0
C277 C 0.58562 0.03874 0.72704 0.0
O278 O 0.59162 0.95724 0.75501 0.0
O279 O 0.57428 0.01706 0.72776 0.0
C280 C 0.69505 0.66194 -0.00856 0.0
O281 O 0.70396 0.67417 0.01073 0.0
Cd282 Cd 0.74007 0.66128 0.03522 0.0
O283 O 0.70532 0.64117 0.9838 0.0
Cd284 Cd 0.74212 0.61362 -0.00478 0.0
C285 C 0.71775 0.60243 0.0539 0.0
O286 O 0.77089 0.64951 0.00359 0.0
O287 O 0.78662 0.61336 0.01315 0.0
O288 O 0.74588 0.6062 0.94953 0.0
C289 C 0.78996 0.63726 0.01153 0.0
O290 O 0.72471 0.62521 0.05989 0.0
C291 C 0.7494 0.58237 0.95062 0.0
O292 O 0.72036 0.59382 0.03123 0.0
O293 O 0.74913 0.57284 0.97257 0.0
C294 C 0.89811 0.44599 0.7478 0.0
O295 O 0.91111 0.45555 0.72977 0.0
Cd296 Cd 0.9001 0.49451 0.70955 0.0
O297 O 0.878 0.45698 0.75639 0.0
Cd298 Cd 0.85229 0.4953 0.74803 0.0
C299 C 0.8403 0.47509 0.68751 0.0
O300 O 0.8882 0.5255 0.74141 0.0
O301 O 0.85013 0.53807 0.73125 0.0
O302 O 0.8466 0.49917 0.79379 0.0
C303 C 0.87405 0.5433 0.73379 0.0
O304 O 0.86342 0.48235 0.68271 0.0
C305 C 0.82229 0.50224 0.79319 0.0
O306 O 0.83155 0.47589 0.71017 0.0
O307 O 0.81161 0.50139 0.77144 0.0
C308 C 0.78069 0.32356 0.48062 0.0
O309 O 0.76952 0.31048 0.49756 0.0
Cd310 Cd 0.73103 0.32167 0.51987 0.0
O311 O 0.77105 0.3444 0.47339 0.0
Cd312 Cd 0.73159 0.36976 0.48274 0.0
C313 C 0.75062 0.38071 0.54361 0.0
O314 O 0.70172 0.3341 0.48797 0.0
O315 O 0.6875 0.37042 0.50073 0.0
O316 O 0.72778 0.37725 0.43746 0.0
C317 C 0.68319 0.34674 0.4972 0.0
O318 O 0.74357 0.35776 0.54768 0.0
C319 C 0.72472 0.40116 0.43981 0.0
O320 O 0.74993 0.38958 0.5213 0.0
O321 O 0.72559 0.41068 0.46222 0.0
C322 C 0.5636 0.53584 0.2527 0.0
O323 O 0.54957 0.52697 0.23462 0.0
Cd324 Cd 0.55942 0.48936 0.20971 0.0
O325 O 0.58411 0.52451 0.25921 0.0
Cd326 Cd 0.60916 0.48605 0.24796 0.0
C327 C 0.61982 0.50729 0.18806 0.0
O328 O 0.57133 0.4589 0.2403 0.0
O329 O 0.60796 0.44146 0.23241 0.0
O330 O 0.61779 0.48322 0.29327 0.0
C331 C 0.5835 0.43931 0.23305 0.0
O332 O 0.59616 0.50186 0.18323 0.0
C333 C 0.6419 0.47943 0.29083 0.0
O334 O 0.62902 0.50456 0.21026 0.0
O335 O 0.65095 0.47933 0.26838 0.0
H336 H 0.10931 0.38392 0.25041 0.0
H337 H 0.05091 0.43813 0.27256 0.0
H338 H 0.08307 0.34958 0.26782 0.0
H339 H 0.02448 0.40351 0.28989 0.0
H340 H 0.01191 0.34098 0.35162 0.0
H341 H 0.02992 0.37613 0.32743 0.0
H342 H 0.04188 0.32488 0.26321 0.0
H343 H 0.02401 0.28955 0.28751 0.0
C344 C 0.09071 0.38848 0.25871 0.0
C345 C 0.08233 0.41383 0.26032 0.0
C346 C 0.07556 0.36873 0.2685 0.0
C347 C 0.05174 0.37385 0.28028 0.0
C348 C 0.04287 0.39905 0.2811 0.0
C349 C 0.05796 0.41883 0.27109 0.0
C350 C 0.01802 0.33726 0.33221 0.0
C351 C 0.01681 0.31244 0.32156 0.0
C352 C 0.02817 0.35746 0.31829 0.0
C353 C 0.03747 0.35323 0.29348 0.0
C354 C 0.03513 0.32863 0.28241 0.0
C355 C 0.02481 0.30845 0.29628 0.0
H356 H 0.9044 0.75579 0.59789 0.0
H357 H 0.94035 0.78627 0.53061 0.0
H358 H 0.86231 0.76939 0.58305 0.0
H359 H 0.89817 0.79931 0.51555 0.0
H360 H 0.82337 0.84464 0.51155 0.0
H361 H 0.86544 0.83046 0.52583 0.0
H362 H 0.83038 0.75976 0.55032 0.0
H363 H 0.78819 0.77414 0.53659 0.0
C364 C 0.90333 0.76523 0.57986 0.0
C365 C 0.92578 0.76999 0.56548 0.0
C366 C 0.87916 0.7729 0.57129 0.0
C367 C 0.87689 0.78545 0.54813 0.0
C368 C 0.89931 0.79002 0.53365 0.0
C369 C 0.92348 0.7824 0.54224 0.0
C370 C 0.82462 0.82605 0.51995 0.0
C371 C 0.80238 0.81056 0.52298 0.0
C372 C 0.84878 0.81786 0.528 0.0
C373 C 0.85127 0.79398 0.53922 0.0
C374 C 0.82906 0.77841 0.54208 0.0
C375 C 0.8049 0.78661 0.53407 0.0
H376 H 0.36838 0.60036 0.76573 0.0
H377 H 0.42819 0.54632 0.7814 0.0
H378 H 0.39338 0.63378 0.78786 0.0
H379 H 0.45335 0.57999 0.80331 0.0
H380 H 0.46866 0.63778 0.87012 0.0
H381 H 0.44828 0.60456 0.84356 0.0
H382 H 0.43376 0.65958 0.78578 0.0
H383 H 0.45392 0.69305 0.81249 0.0
C384 C 0.38698 0.59564 0.77366 0.0
C385 C 0.39618 0.57059 0.77196 0.0
C386 C 0.40139 0.61488 0.78619 0.0
C387 C 0.42529 0.6095 0.79739 0.0
C388 C 0.43485 0.58462 0.7951 0.0
C389 C 0.42049 0.56538 0.78245 0.0
C390 C 0.46129 0.64283 0.85169 0.0
C391 C 0.46277 0.66814 0.84352 0.0
C392 C 0.44978 0.62371 0.83639 0.0
C393 C 0.43938 0.62946 0.8126 0.0
C394 C 0.44137 0.65464 0.80415 0.0
C395 C 0.45301 0.67377 0.81941 0.0
H396 H 0.55191 0.21427 0.04912 0.0
H397 H 0.56924 0.18622 0.12361 0.0
H398 H 0.59173 0.19557 0.03258 0.0
H399 H 0.60888 0.16719 0.10686 0.0
H400 H 0.65748 0.11157 0.05441 0.0
H401 H 0.61865 0.13094 0.07263 0.0
H402 H 0.6414 0.20338 0.04154 0.0
H403 H 0.68039 0.18423 0.02363 0.0
C404 C 0.56419 0.20406 0.06191 0.0
C405 C 0.55754 0.20168 0.08763 0.0
C406 C 0.58698 0.1935 0.05248 0.0
C407 C 0.60325 0.18002 0.06851 0.0
C408 C 0.59653 0.17743 0.09416 0.0
C409 C 0.57396 0.18839 0.10371 0.0
C410 C 0.65423 0.13165 0.05159 0.0
C411 C 0.67188 0.14642 0.03761 0.0
C412 C 0.63213 0.14271 0.06208 0.0
C413 C 0.62713 0.16857 0.05836 0.0
C414 C 0.64482 0.18335 0.04448 0.0
C415 C 0.66713 0.17242 0.03438 0.0
H416 H 0.09938 0.59009 0.23341 0.0
H417 H 0.03339 0.54282 0.21135 0.0
H418 H 0.07721 0.62764 0.21885 0.0
H419 H 0.01107 0.58052 0.19701 0.0
H420 H 0.00345 0.64563 0.13866 0.0
H421 H 0.01861 0.60842 0.16056 0.0
H422 H 0.03999 0.65616 0.22547 0.0
H423 H 0.02497 0.69361 0.20337 0.0
C424 C 0.07996 0.58777 0.22584 0.0
C425 C 0.06824 0.56346 0.22328 0.0
C426 C 0.06718 0.60933 0.21765 0.0
C427 C 0.04245 0.60702 0.20663 0.0
C428 C 0.03025 0.58285 0.20514 0.0
C429 C 0.04299 0.56129 0.21346 0.0
C430 C 0.01109 0.64818 0.15772 0.0
C431 C 0.01322 0.67259 0.1692 0.0
C432 C 0.0196 0.62681 0.17036 0.0
C433 C 0.03057 0.62935 0.19472 0.0
C434 C 0.03185 0.65365 0.2066 0.0
C435 C 0.02315 0.67506 0.194 0.0
H436 H 0.57868 0.77864 0.36018 0.0
H437 H 0.53699 0.7988 0.4288 0.0
H438 H 0.61842 0.79695 0.37865 0.0
H439 H 0.57676 0.81723 0.44714 0.0
H440 H 0.64788 0.87099 0.45854 0.0
H441 H 0.60816 0.85441 0.43856 0.0
H442 H 0.64747 0.78553 0.41597 0.0
H443 H 0.68722 0.80198 0.43607 0.0
C444 C 0.57798 0.78711 0.37914 0.0
C445 C 0.55477 0.78723 0.39311 0.0
C446 C 0.60073 0.79745 0.38971 0.0
C447 C 0.6006 0.80842 0.4143 0.0
C448 C 0.5773 0.80903 0.42807 0.0
C449 C 0.55461 0.79839 0.41762 0.0
C450 C 0.64807 0.85234 0.44925 0.0
C451 C 0.67061 0.83772 0.4489 0.0
C452 C 0.62532 0.84285 0.43793 0.0
C453 C 0.62481 0.81873 0.42579 0.0
C454 C 0.64745 0.80428 0.42507 0.0
C455 C 0.67011 0.81363 0.43666 0.0
H456 H 0.45621 0.29444 0.68508 0.0
H457 H 0.48373 0.34927 0.63084 0.0
H458 H 0.43965 0.32931 0.71192 0.0
H459 H 0.46717 0.38377 0.6574 0.0
H460 H 0.44969 0.4433 0.71619 0.0
H461 H 0.47261 0.40649 0.69882 0.0
H462 H 0.40345 0.35983 0.70688 0.0
H463 H 0.3806 0.39649 0.72447 0.0
C464 C 0.45899 0.31389 0.67903 0.0
C465 C 0.47107 0.31908 0.65573 0.0
C466 C 0.44944 0.33381 0.69435 0.0
C467 C 0.45214 0.35926 0.68677 0.0
C468 C 0.46509 0.36441 0.66395 0.0
C469 C 0.47436 0.34458 0.64859 0.0
C470 C 0.43952 0.42509 0.71469 0.0
C471 C 0.41325 0.42287 0.72138 0.0
C472 C 0.45262 0.40404 0.70466 0.0
C473 C 0.43974 0.38035 0.70126 0.0
C474 C 0.41394 0.37778 0.70943 0.0
C475 C 0.40081 0.39884 0.71934 0.0
H476 H 0.9378 0.19652 0.95216 0.0
H477 H 0.90372 0.2236 0.88308 0.0
H478 H 0.89525 0.18251 0.96666 0.0
H479 H 0.86119 0.20898 0.89739 0.0
H480 H 0.78619 0.20424 0.94358 0.0
H481 H 0.82866 0.21889 0.92927 0.0
H482 H 0.86256 0.15015 0.95691 0.0
H483 H 0.82023 0.13574 0.97177 0.0
C484 C 0.92126 0.19939 0.94 0.0
C485 C 0.92418 0.21119 0.91644 0.0
C486 C 0.89688 0.19121 0.94826 0.0
C487 C 0.87485 0.19456 0.93315 0.0
C488 C 0.87774 0.20641 0.90962 0.0
C489 C 0.90214 0.21466 0.90136 0.0
C490 C 0.8027 0.19224 0.94663 0.0
C491 C 0.79981 0.16883 0.95886 0.0
C492 C 0.82702 0.20059 0.93829 0.0
C493 C 0.84898 0.18568 0.94193 0.0
C494 C 0.84608 0.16225 0.95412 0.0
C495 C 0.82178 0.15393 0.96253 0.0
H496 H 0.2504 0.09688 0.40126 0.0
H497 H 0.27159 0.03364 0.44754 0.0
H498 H 0.26533 0.07384 0.36347 0.0
H499 H 0.28652 0.01047 0.40951 0.0
H500 H 0.27857 0.02015 0.29716 0.0
H501 H 0.25677 0.0355 0.33565 0.0
H502 H 0.32395 0.01736 0.38004 0.0
H503 H 0.34568 0.00191 0.34168 0.0
C504 C 0.25796 0.07791 0.40332 0.0
C505 C 0.26 0.06714 0.42739 0.0
C506 C 0.26633 0.06464 0.38163 0.0
C507 C 0.27712 0.04036 0.38354 0.0
C508 C 0.27845 0.02923 0.40752 0.0
C509 C 0.26982 0.04244 0.42924 0.0
C510 C 0.28851 0.01906 0.31519 0.0
C511 C 0.31394 0.01006 0.31636 0.0
C512 C 0.27607 0.02795 0.33719 0.0
C513 C 0.28873 0.02779 0.36081 0.0
C514 C 0.31362 0.01753 0.36215 0.0
C515 C 0.32613 0.00883 0.34015 0.0
H516 H 0.10871 0.01047 0.63753 0.0
H517 H 0.17107 0.02464 0.69105 0.0
H518 H 0.13402 0.0311 0.60458 0.0
H519 H 0.1965 0.04502 0.65786 0.0
H520 H 0.21356 0.11124 0.60325 0.0
H521 H 0.19258 0.08543 0.63531 0.0
H522 H 0.17351 0.02774 0.5781 0.0
H523 H 0.19434 0.05375 0.54575 0.0
C524 C 0.12794 0.01771 0.64221 0.0
C525 C 0.13776 0.01612 0.66703 0.0
C526 C 0.14251 0.02938 0.62324 0.0
C527 C 0.16718 0.03981 0.62867 0.0
C528 C 0.17739 0.03744 0.65322 0.0
C529 C 0.16286 0.02566 0.67219 0.0
C530 C 0.20503 0.093 0.59745 0.0
C531 C 0.20549 0.08464 0.57188 0.0
C532 C 0.19318 0.07811 0.6159 0.0
C533 C 0.18142 0.05454 0.60923 0.0
C534 C 0.18224 0.04593 0.58375 0.0
C535 C 0.19425 0.06079 0.56526 0.0
H536 H 0.12902 0.98316 0.84114 0.0
H537 H 0.19239 0.96184 0.79182 0.0
H538 H 0.15275 0.96797 0.87759 0.0
H539 H 0.21622 0.94674 0.82844 0.0
H540 H 0.22416 0.8864 0.89239 0.0
H541 H 0.20867 0.90939 0.85592 0.0
H542 H 0.19185 0.97434 0.90478 0.0
H543 H 0.20726 0.95124 0.94142 0.0
C544 C 0.14821 0.97563 0.83814 0.0
C545 C 0.15873 0.97347 0.81358 0.0
C546 C 0.16188 0.96707 0.85906 0.0
C547 C 0.18629 0.95603 0.85585 0.0
C548 C 0.19732 0.95493 0.83144 0.0
C549 C 0.18372 0.96368 0.81051 0.0
C550 C 0.21754 0.90573 0.89532 0.0
C551 C 0.2167 0.91692 0.91981 0.0
C552 C 0.20882 0.91897 0.87438 0.0
C553 C 0.19892 0.94363 0.87751 0.0
C554 C 0.19914 0.95526 0.90185 0.0
C555 C 0.20806 0.94207 0.92279 0.0
H556 H 0.25333 0.87141 0.09649 0.0
H557 H 0.2678 0.93211 0.04389 0.0
H558 H 0.27294 0.89731 0.1305 0.0
H559 H 0.28702 0.9582 0.07815 0.0
H560 H 0.29501 0.95601 0.19113 0.0
H561 H 0.26871 0.93594 0.15736 0.0
H562 H 0.3272 0.95614 0.10228 0.0
H563 H 0.35314 0.97646 0.13569 0.0
C564 C 0.26042 0.89039 0.09222 0.0
C565 C 0.25925 0.89956 0.06737 0.0
C566 C 0.27146 0.90533 0.11181 0.0
C567 C 0.28161 0.92977 0.10701 0.0
C568 C 0.27965 0.9393 0.08236 0.0
C569 C 0.26857 0.92437 0.06275 0.0
C570 C 0.30206 0.95647 0.17176 0.0
C571 C 0.32628 0.96765 0.16615 0.0
C572 C 0.28707 0.94486 0.15246 0.0
C573 C 0.29594 0.94435 0.12718 0.0
C574 C 0.31966 0.95644 0.12149 0.0
C575 C 0.33464 0.96792 0.14073 0.0
H576 H 0.28625 0.27824 0.03626 0.0
H577 H 0.3224 0.34735 0.00896 0.0
H578 H 0.32851 0.26252 0.048 0.0
H579 H 0.36463 0.33189 0.02136 0.0
H580 H 0.43868 0.28679 0.02512 0.0
H581 H 0.39633 0.30013 0.01076 0.0
H582 H 0.36162 0.27123 0.07929 0.0
H583 H 0.40382 0.25726 0.09335 0.0
C584 C 0.3032 0.29013 0.03281 0.0
C585 C 0.30093 0.3141 0.02173 0.0
C586 C 0.32743 0.28115 0.03967 0.0
C587 C 0.34995 0.29598 0.03572 0.0
C588 C 0.34771 0.31983 0.02436 0.0
C589 C 0.32347 0.32877 0.01739 0.0
C590 C 0.422 0.28315 0.03707 0.0
C591 C 0.42466 0.27099 0.06041 0.0
C592 C 0.39774 0.29095 0.0289 0.0
C593 C 0.3756 0.28685 0.04391 0.0
C594 C 0.37822 0.27438 0.0671 0.0
C595 C 0.40246 0.26649 0.07522 0.0
H596 H 0.97862 0.84977 0.12778 0.0
H597 H 0.95385 0.79623 0.18445 0.0
H598 H 0.96188 0.88471 0.1537 0.0
H599 H 0.93714 0.8315 0.21057 0.0
H600 H 0.87833 0.89814 0.22486 0.0
H601 H 0.90043 0.86153 0.2062 0.0
H602 H 0.96882 0.90843 0.19458 0.0
H603 H 0.94664 0.94519 0.2131 0.0
C604 C 0.96976 0.84545 0.14587 0.0
C605 C 0.9674 0.82016 0.15394 0.0
C606 C 0.96039 0.86555 0.16084 0.0
C607 C 0.94826 0.86086 0.1842 0.0
C608 C 0.94629 0.83564 0.19257 0.0
C609 C 0.95591 0.81548 0.17765 0.0
C610 C 0.89822 0.90056 0.21869 0.0
C611 C 0.91066 0.92462 0.22019 0.0
C612 C 0.91092 0.87954 0.20813 0.0
C613 C 0.93627 0.88217 0.19873 0.0
C614 C 0.94915 0.90593 0.20138 0.0
C615 C 0.9365 0.92694 0.21209 0.0
H616 H 0.17751 0.68204 0.52582 0.0
H617 H 0.15651 0.60828 0.55524 0.0
H618 H 0.13803 0.69985 0.54413 0.0
H619 H 0.1172 0.62627 0.57381 0.0
H620 H 0.06709 0.67942 0.62642 0.0
H621 H 0.10662 0.66105 0.60872 0.0
H622 H 0.08865 0.69171 0.53559 0.0
H623 H 0.04894 0.7098 0.55311 0.0
C624 C 0.16455 0.66969 0.53634 0.0
C625 C 0.17001 0.64377 0.53911 0.0
C626 C 0.14195 0.67985 0.54665 0.0
C627 C 0.12466 0.66437 0.56026 0.0
C628 C 0.13034 0.63858 0.56347 0.0
C629 C 0.15273 0.6283 0.55279 0.0
C630 C 0.07156 0.68216 0.60655 0.0
C631 C 0.05499 0.69601 0.59111 0.0
C632 C 0.09408 0.67159 0.59645 0.0
C633 C 0.1006 0.67508 0.57086 0.0
C634 C 0.08407 0.68895 0.55543 0.0
C635 C 0.06134 0.69915 0.56542 0.0
H636 H 0.96435 0.68159 0.70068 0.0
H637 H 0.91839 0.66284 0.63404 0.0
H638 H 0.94321 0.64662 0.72317 0.0
H639 H 0.8974 0.62801 0.65646 0.0
H640 H 0.84882 0.5817 0.71082 0.0
H641 H 0.86767 0.62035 0.69309 0.0
H642 H 0.94335 0.59859 0.71873 0.0
H643 H 0.92451 0.55987 0.73659 0.0
C644 C 0.94958 0.67017 0.69093 0.0
C645 C 0.94307 0.67489 0.66558 0.0
C646 C 0.93761 0.6501 0.70375 0.0
C647 C 0.9187 0.63461 0.69155 0.0
C648 C 0.91171 0.63981 0.66644 0.0
C649 C 0.92384 0.65967 0.65356 0.0
C650 C 0.86945 0.58524 0.71289 0.0
C651 C 0.88523 0.56764 0.72492 0.0
C652 C 0.88023 0.60733 0.70265 0.0
C653 C 0.90698 0.61238 0.7044 0.0
C654 C 0.92263 0.59526 0.71727 0.0
C655 C 0.91188 0.57305 0.72736 0.0
H656 H 0.18685 0.15482 0.4377 0.0
H657 H 0.15406 0.18706 0.50646 0.0
H658 H 0.15259 0.17356 0.41289 0.0
H659 H 0.1188 0.20435 0.48213 0.0
H660 H 0.0715 0.25304 0.43236 0.0
H661 H 0.10825 0.236 0.4548 0.0
H662 H 0.10937 0.1717 0.4017 0.0
H663 H 0.07377 0.18992 0.37836 0.0
C664 C 0.17202 0.16559 0.44752 0.0
C665 C 0.17312 0.1696 0.47395 0.0
C666 C 0.15227 0.17626 0.43333 0.0
C667 C 0.13284 0.1907 0.44537 0.0
C668 C 0.13372 0.19404 0.47199 0.0
C669 C 0.1538 0.1839 0.48604 0.0
C670 C 0.07988 0.23542 0.42539 0.0
C671 C 0.06987 0.22278 0.40369 0.0
C672 C 0.10078 0.22544 0.43839 0.0
C673 C 0.1117 0.20217 0.4304 0.0
C674 C 0.10183 0.18979 0.40832 0.0
C675 C 0.08132 0.20016 0.39495 0.0
H676 H 0.5347 0.43644 0.2135 0.0
H677 H 0.602 0.39119 0.22778 0.0
H678 H 0.51419 0.39994 0.1911 0.0
H679 H 0.58107 0.35453 0.20596 0.0
H680 H 0.52004 0.29027 0.18264 0.0
H681 H 0.53513 0.32569 0.21053 0.0
H682 H 0.53321 0.37645 0.14732 0.0
H683 H 0.51893 0.34111 0.11931 0.0
C684 C 0.54486 0.41856 0.2123 0.0
C685 C 0.56998 0.41661 0.2222 0.0
C686 C 0.53315 0.39778 0.19948 0.0
C687 C 0.54612 0.37459 0.19696 0.0
C688 C 0.57069 0.37224 0.2079 0.0
C689 C 0.58266 0.39318 0.22021 0.0
C690 C 0.5226 0.30906 0.17482 0.0
C691 C 0.51846 0.313 0.14884 0.0
C692 C 0.53126 0.3292 0.19071 0.0
C693 C 0.53518 0.35363 0.18095 0.0
C694 C 0.53011 0.35776 0.15523 0.0
C695 C 0.5221 0.33756 0.13924 0.0
H696 H 0.29771 0.77665 -0.01105 0.0
H697 H 0.31339 0.84907 0.95404 0.0
H698 H 0.33802 0.76035 0.97213 0.0
H699 H 0.35447 0.83287 0.93774 0.0
H700 H 0.41454 0.78435 0.89316 0.0
H701 H 0.37373 0.80247 0.90789 0.0
H702 H 0.38315 0.76626 0.98009 0.0
H703 H 0.42321 0.74763 0.9652 0.0
C704 C 0.30985 0.78918 0.97777 0.0
C705 C 0.30242 0.81424 0.97301 0.0
C706 C 0.33308 0.77986 0.96824 0.0
C707 C 0.34969 0.79542 0.9539 0.0
C708 C 0.34205 0.82035 0.94861 0.0
C709 C 0.31858 0.82966 0.95803 0.0
C710 C 0.40788 0.78035 0.9122 0.0
C711 C 0.42197 0.76433 0.92791 0.0
C712 C 0.38457 0.79082 0.92067 0.0
C713 C 0.37502 0.78556 0.94505 0.0
C714 C 0.38959 0.77018 0.96096 0.0
C715 C 0.41267 0.7596 0.95246 0.0
H716 H 0.92505 0.40784 0.72444 0.0
H717 H 0.88902 0.42926 0.79562 0.0
H718 H 0.9375 0.36737 0.74204 0.0
H719 H 0.90289 0.38968 0.81394 0.0
H720 H 0.91372 0.30949 0.83748 0.0
H721 H 0.8969 0.34618 0.81581 0.0
H722 H 0.96598 0.34885 0.76923 0.0
H723 H 0.9817 0.31115 0.78977 0.0
C724 C 0.92008 0.40397 0.74399 0.0
C725 C 0.90612 0.42168 0.75869 0.0
C726 C 0.92733 0.3808 0.75418 0.0
C727 C 0.92132 0.37505 0.77953 0.0
C728 C 0.9074 0.39298 0.7942 0.0
C729 C 0.89964 0.41587 0.7838 0.0
C730 C 0.92503 0.31774 0.8223 0.0
C731 C 0.94899 0.30752 0.8153 0.0
C732 C 0.91556 0.33898 0.81003 0.0
C733 C 0.93017 0.35091 0.79091 0.0
C734 C 0.95389 0.34012 0.78352 0.0
C735 C 0.96303 0.31851 0.79539 0.0
H736 H 0.31299 0.1792 0.4951 0.0
H737 H 0.3198 0.12286 0.55298 0.0
H738 H 0.35094 0.20183 0.51192 0.0
H739 H 0.35677 0.14638 0.57114 0.0
H740 H 0.43685 0.18229 0.58422 0.0
H741 H 0.39994 0.15795 0.56714 0.0
H742 H 0.36466 0.22821 0.54482 0.0
H743 H 0.40243 0.25211 0.5603 0.0
C744 C 0.32259 0.1718 0.51159 0.0
C745 C 0.31356 0.14935 0.52276 0.0
C746 C 0.3442 0.18491 0.52146 0.0
C747 C 0.35688 0.17624 0.5432 0.0
C748 C 0.34785 0.15352 0.5542 0.0
C749 C 0.32658 0.14006 0.54389 0.0
C750 C 0.42109 0.19244 0.57573 0.0
C751 C 0.4225 0.21902 0.5734 0.0
C752 C 0.39983 0.17852 0.56602 0.0
C753 C 0.37925 0.19099 0.55431 0.0
C754 C 0.38039 0.21777 0.55295 0.0
C755 C 0.40192 0.23157 0.56206 0.0
H756 H 0.53667 0.65161 0.36908 0.0
H757 H 0.50217 0.68295 0.30216 0.0
H758 H 0.54896 0.61398 0.34448 0.0
H759 H 0.51516 0.64545 0.27731 0.0
H760 H 0.51861 0.5622 0.24814 0.0
H761 H 0.50571 0.60031 0.27198 0.0
H762 H 0.57884 0.60138 0.31185 0.0
H763 H 0.59143 0.56294 0.28859 0.0
C764 C 0.53183 0.65056 0.34907 0.0
C765 C 0.51845 0.67034 0.33759 0.0
C766 C 0.53903 0.62901 0.33491 0.0
C767 C 0.53319 0.62675 0.30888 0.0
C768 C 0.51971 0.64647 0.29739 0.0
C769 C 0.51237 0.66802 0.31161 0.0
C770 C 0.53195 0.57059 0.26197 0.0
C771 C 0.556 0.55943 0.26655 0.0
C772 C 0.52461 0.59253 0.27554 0.0
C773 C 0.54119 0.60385 0.2939 0.0
C774 C 0.5654 0.59289 0.29817 0.0
C775 C 0.57268 0.57091 0.28473 0.0
H776 H 0.05389 0.74943 0.04895 0.0
H777 H 0.08099 0.78905 0.11705 0.0
H778 H 0.0864 0.77208 0.02404 0.0
H779 H 0.1136 0.81169 0.09204 0.0
H780 H 0.14613 0.86809 0.03394 0.0
H781 H 0.11303 0.84493 0.05784 0.0
H782 H 0.13479 0.77465 0.01981 0.0
H783 H 0.16782 0.79771 -0.0041 0.0
C784 C 0.06695 0.76282 0.05862 0.0
C785 C 0.06489 0.76752 0.08493 0.0
C786 C 0.08556 0.77574 0.04436 0.0
C787 C 0.10234 0.79377 0.0561 0.0
C788 C 0.10063 0.79814 0.08249 0.0
C789 C 0.08216 0.78502 0.09681 0.0
C790 C 0.14363 0.84775 0.03048 0.0
C791 C 0.15958 0.83468 0.01311 0.0
C792 C 0.12488 0.83449 0.04432 0.0
C793 C 0.12156 0.80799 0.04083 0.0
C794 C 0.13689 0.79509 0.02282 0.0
C795 C 0.1558 0.80829 0.00917 0.0
H796 H 0.72801 0.92548 0.55687 0.0
H797 H 0.67499 0.86397 0.57562 0.0
H798 H 0.71044 0.95137 0.59199 0.0
H799 H 0.65773 0.88969 0.61041 0.0
H800 H 0.61225 0.95135 0.6502 0.0
H801 H 0.63145 0.92915 0.61389 0.0
H802 H 0.70786 0.95119 0.64054 0.0
H803 H 0.68862 0.97364 0.67705 0.0
C804 C 0.71273 0.91745 0.56848 0.0
C805 C 0.70285 0.89268 0.56336 0.0
C806 C 0.70276 0.93224 0.5886 0.0
C807 C 0.68256 0.92261 0.60373 0.0
C808 C 0.673 0.89777 0.5988 0.0
C809 C 0.68305 0.88297 0.57893 0.0
C810 C 0.63314 0.95167 0.64826 0.0
C811 C 0.64893 0.96404 0.66662 0.0
C812 C 0.64412 0.93886 0.62751 0.0
C813 C 0.67114 0.93821 0.62457 0.0
C814 C 0.68697 0.95146 0.64233 0.0
C815 C 0.67595 0.9642 0.66324 0.0
H816 H 0.77619 -0.00883 0.31677 0.0
H817 H 0.84946 0.95259 0.31486 0.0
H818 H 0.7654 0.97076 0.3566 0.0
H819 H 0.83888 0.93266 0.35494 0.0
H820 H 0.79536 0.878 0.40815 0.0
H821 H 0.80928 0.90039 0.37047 0.0
H822 H 0.77743 0.97017 0.40137 0.0
H823 H 0.76295 0.94754 0.439 0.0
C824 C 0.79005 0.97842 0.32487 0.0
C825 C 0.81363 0.97341 0.31252 0.0
C826 C 0.78396 0.9669 0.34784 0.0
C827 C 0.80131 0.95013 0.35899 0.0
C828 C 0.82496 0.94526 0.34671 0.0
C829 C 0.83104 0.95674 0.32375 0.0
C830 C 0.79156 0.89819 0.40707 0.0
C831 C 0.77794 0.91098 0.42651 0.0
C832 C 0.79965 0.91106 0.38548 0.0
C833 C 0.79433 0.93704 0.38283 0.0
C834 C 0.78147 0.95005 0.40267 0.0
C835 C 0.77337 0.93716 0.42432 0.0
H836 H 0.80608 0.10313 0.06745 0.0
H837 H 0.75895 0.03563 0.05201 0.0
H838 H 0.82559 0.08252 0.10344 0.0
H839 H 0.77875 0.01484 0.08809 0.0
H840 H 0.79502 0.00446 0.17472 0.0
H841 H 0.77763 0.02067 0.13521 0.0
H842 H 0.85412 0.04733 0.1141 0.0
H843 H 0.87144 0.03145 0.1536 0.0
C844 C 0.80011 0.08376 0.07156 0.0
C845 C 0.78092 0.07103 0.05694 0.0
C846 C 0.81139 0.07189 0.09212 0.0
C847 C 0.80367 0.04707 0.09864 0.0
C848 C 0.7849 0.03408 0.08366 0.0
C849 C 0.7737 0.04591 0.06293 0.0
C850 C 0.80812 0.01363 0.16156 0.0
C851 C 0.83454 0.01688 0.16738 0.0
C852 C 0.7982 0.02276 0.13886 0.0
C853 C 0.8145 0.03537 0.12161 0.0
C854 C 0.84103 0.03799 0.12717 0.0
C855 C 0.85094 0.02882 0.14977 0.0
H856 H 0.62994 0.03181 0.81403 0.0
H857 H 0.70376 -0.00574 0.81424 0.0
H858 H 0.64171 0.05499 0.85294 0.0
H859 H 0.71587 0.01813 0.85293 0.0
H860 H 0.71924 0.04952 0.93519 0.0
H861 H 0.70646 0.02346 0.89802 0.0
H862 H 0.6708 0.08899 0.86543 0.0
H863 H 0.68284 0.11469 0.90258 0.0
C864 C 0.64875 0.02856 0.82232 0.0
C865 C 0.66598 0.01129 0.81091 0.0
C866 C 0.65555 0.04196 0.8446 0.0
C867 C 0.67983 0.0386 0.85594 0.0
C868 C 0.69692 0.02099 0.84481 0.0
C869 C 0.69004 0.00743 0.82255 0.0
C870 C 0.70858 0.0583 0.92011 0.0
C871 C 0.70199 0.08417 0.92193 0.0
C872 C 0.70139 0.04341 0.89876 0.0
C873 C 0.6875 0.05411 0.87879 0.0
C874 C 0.68103 0.07999 0.88065 0.0
C875 C 0.6881 0.09479 0.90195 0.0
H876 H 0.55252 0.73384 0.94845 0.0
H877 H 0.5861 0.71053 0.87653 0.0
H878 H 0.58922 0.7165 0.97069 0.0
H879 H 0.62328 0.6936 0.89886 0.0
H880 H 0.66986 0.64093 0.94994 0.0
H881 H 0.63369 0.65859 0.92679 0.0
H882 H 0.63487 0.72463 0.97748 0.0
H883 H 0.67049 0.70682 0.00093 0.0
C884 C 0.56787 0.72521 0.93737 0.0
C885 C 0.56642 0.72353 0.91074 0.0
C886 C 0.58898 0.71537 0.95012 0.0
C887 C 0.60917 0.70368 0.93655 0.0
C888 C 0.60785 0.70221 0.90987 0.0
C889 C 0.58668 0.71205 0.89708 0.0
C890 C 0.66235 0.65918 0.95617 0.0
C891 C 0.67299 0.67239 0.97737 0.0
C892 C 0.64176 0.66939 0.94279 0.0
C893 C 0.63141 0.693 0.95031 0.0
C894 C 0.64215 0.70622 0.97142 0.0
C895 C 0.66266 0.69603 0.98481 0.0
H896 H 0.09512 0.06443 0.78584 0.0
H897 H 0.02129 0.06338 0.74718 0.0
H898 H 0.08355 0.10362 0.80833 0.0
H899 H 0.00941 0.1023 0.77029 0.0
H900 H 0.00617 0.18501 0.8001 0.0
H901 H 0.01909 0.1476 0.77498 0.0
H902 H 0.05452 0.11652 0.84151 0.0
H903 H 0.04232 0.15396 0.86632 0.0
C904 C 0.07637 0.0725 0.78219 0.0
C905 C 0.05907 0.06067 0.7648 0.0
C906 C 0.06969 0.09493 0.79519 0.0
C907 C 0.04547 0.10601 0.79126 0.0
C908 C 0.02833 0.09442 0.77356 0.0
C909 C 0.03508 0.07202 0.76043 0.0
C910 C 0.0168 0.17022 0.80931 0.0
C911 C 0.02326 0.17254 0.83521 0.0
C912 C 0.02408 0.14872 0.79495 0.0
C913 C 0.03791 0.12909 0.80621 0.0
C914 C 0.04431 0.13147 0.8321 0.0
C915 C 0.03715 0.15293 0.84639 0.0
H916 H 0.93001 0.25494 0.46436 0.0
H917 H 0.91738 0.28478 0.38965 0.0
H918 H 0.88941 0.27276 0.47881 0.0
H919 H 0.87612 0.3022 0.4041 0.0
H920 H 0.81413 0.3487 0.4487 0.0
H921 H 0.85595 0.33398 0.4328 0.0
H922 H 0.84426 0.26294 0.47143 0.0
H923 H 0.8031 0.27771 0.4877 0.0
C924 C 0.91856 0.2653 0.45098 0.0
C925 C 0.92683 0.26821 0.42577 0.0
C926 C 0.89517 0.27542 0.45925 0.0
C927 C 0.87933 0.28854 0.4425 0.0
C928 C 0.88795 0.29225 0.41748 0.0
C929 C 0.91152 0.2822 0.4092 0.0
C930 C 0.8205 0.32992 0.45372 0.0
C931 C 0.80538 0.31449 0.46967 0.0
C932 C 0.8444 0.32147 0.44453 0.0
C933 C 0.85357 0.29743 0.45111 0.0
C934 C 0.83807 0.28181 0.46649 0.0
C935 C 0.81435 0.29024 0.47571 0.0
H936 H 0.60908 0.88372 0.75691 0.0
H937 H 0.55244 0.93937 0.78003 0.0
H938 H 0.58256 0.85009 0.77519 0.0
H939 H 0.52571 0.90542 0.7983 0.0
H940 H 0.51129 0.84164 0.85881 0.0
H941 H 0.53045 0.87693 0.83549 0.0
H942 H 0.54047 0.82699 0.76992 0.0
H943 H 0.5215 0.79161 0.79328 0.0
C944 C 0.59085 0.88878 0.76572 0.0
C945 C 0.58297 0.91428 0.76715 0.0
C946 C 0.57554 0.86943 0.776 0.0
C947 C 0.55203 0.87511 0.78813 0.0
C948 C 0.54383 0.90053 0.78918 0.0
C949 C 0.55908 0.91992 0.77864 0.0
C950 C 0.51721 0.83828 0.83929 0.0
C951 C 0.51515 0.81378 0.82797 0.0
C952 C 0.52805 0.85854 0.82589 0.0
C953 C 0.53716 0.85465 0.80097 0.0
C954 C 0.53392 0.83045 0.78924 0.0
C955 C 0.52295 0.81023 0.80258 0.0
H956 H 0.97257 0.182 0.30944 0.0
H957 H 0.94527 0.14945 0.37943 0.0
H958 H 0.9504 0.14749 0.28523 0.0
H959 H 0.92265 0.11555 0.35512 0.0
H960 H 0.85806 0.08898 0.29456 0.0
H961 H 0.88299 0.12221 0.31746 0.0
H962 H 0.95391 0.09155 0.28729 0.0
H963 H 0.92905 0.05762 0.26477 0.0
C964 C 0.96188 0.16751 0.31961 0.0
C965 C 0.96061 0.1684 0.34631 0.0
C966 C 0.94936 0.14779 0.30579 0.0
C967 C 0.93495 0.12907 0.31845 0.0
C968 C 0.93372 0.12987 0.34506 0.0
C969 C 0.94668 0.1492 0.35889 0.0
C970 C 0.87896 0.08933 0.2927 0.0
C971 C 0.89164 0.0707 0.2779 0.0
C972 C 0.89315 0.10826 0.30586 0.0
C973 C 0.92022 0.10926 0.30402 0.0
C974 C 0.93299 0.09106 0.28885 0.0
C975 C 0.91881 0.0717 0.27611 0.0
H976 H 0.53571 0.04243 0.71035 0.0
H977 H 0.60416 0.08776 0.72867 0.0
H978 H 0.51446 0.0805 0.69532 0.0
H979 H 0.583 0.12565 0.71355 0.0
H980 H 0.50667 0.14501 0.63616 0.0
H981 H 0.52194 0.1076 0.65777 0.0
H982 H 0.54661 0.15535 0.72154 0.0
H983 H 0.53141 0.19295 0.69981 0.0
C984 C 0.54609 0.06055 0.71147 0.0
C985 C 0.57168 0.06207 0.72051 0.0
C986 C 0.53397 0.0823 0.70276 0.0
C987 C 0.54711 0.10602 0.70314 0.0
C988 C 0.57228 0.10771 0.71323 0.0
C989 C 0.58446 0.08595 0.72174 0.0
C990 C 0.5151 0.14752 0.65491 0.0
C991 C 0.51801 0.17195 0.66621 0.0
C992 C 0.52368 0.12605 0.66736 0.0
C993 C 0.53553 0.12855 0.69133 0.0
C994 C 0.53776 0.15289 0.70298 0.0
C995 C 0.52897 0.17438 0.69059 0.0
H996 H 0.15626 0.3775 0.93773 0.0
H997 H 0.17288 0.30299 0.96626 0.0
H998 H 0.11635 0.36036 0.91835 0.0
H999 H 0.13276 0.28604 0.94721 0.0
H1000 H 0.04396 0.27638 0.93412 0.0
H1001 H 0.08296 0.29489 0.95405 0.0
H1002 H 0.10664 0.32557 0.88213 0.0
H1003 H 0.06786 0.30674 0.86202 0.0
C1004 C 0.15131 0.35752 0.93994 0.0
C1005 C 0.16762 0.34153 0.95343 0.0
C1006 C 0.12859 0.34774 0.92879 0.0
C1007 C 0.1216 0.32196 0.93139 0.0
C1008 C 0.13772 0.30604 0.94513 0.0
C1009 C 0.16068 0.3157 0.95588 0.0
C1010 C 0.05743 0.28719 0.92261 0.0
C1011 C 0.05298 0.29011 0.89653 0.0
C1012 C 0.07973 0.29763 0.93397 0.0
C1013 C 0.09768 0.31155 0.91955 0.0
C1014 C 0.09296 0.315 0.89362 0.0
C1015 C 0.07089 0.30416 0.88214 0.0
H1016 H 0.43529 0.70001 0.45489 0.0
H1017 H 0.40156 0.72475 0.38472 0.0
H1018 H 0.39277 0.68583 0.46933 0.0
H1019 H 0.35906 0.71001 0.39901 0.0
H1020 H 0.28345 0.70423 0.44429 0.0
H1021 H 0.32576 0.71974 0.43035 0.0
H1022 H 0.36104 0.65241 0.4596 0.0
H1023 H 0.31888 0.63713 0.47404 0.0
C1024 C 0.41883 0.70238 0.4425 0.0
C1025 C 0.42186 0.71348 0.41861 0.0
C1026 C 0.39446 0.6941 0.45074 0.0
C1027 C 0.37255 0.69667 0.43528 0.0
C1028 C 0.37552 0.708 0.41149 0.0
C1029 C 0.3999 0.71634 0.40325 0.0
C1030 C 0.30023 0.69273 0.44778 0.0
C1031 C 0.29776 0.66945 0.46033 0.0
C1032 C 0.32446 0.70157 0.43965 0.0
C1033 C 0.34677 0.68732 0.44387 0.0
C1034 C 0.34429 0.66402 0.45638 0.0
C1035 C 0.32008 0.6552 0.46453 0.0
H1036 H 0.77259 0.51909 0.79715 0.0
H1037 H 0.8391 0.49996 0.84211 0.0
H1038 H 0.75078 0.53487 0.83552 0.0
H1039 H 0.8174 0.51579 0.88029 0.0
H1040 H 0.76607 0.53317 0.94764 0.0
H1041 H 0.77992 0.50949 0.90957 0.0
H1042 H 0.75969 0.57314 0.86346 0.0
H1043 H 0.74579 0.59672 0.90135 0.0
C1044 C 0.78237 0.51786 0.81525 0.0
C1045 C 0.80765 0.5085 0.8166 0.0
C1046 C 0.76994 0.527 0.83718 0.0
C1047 C 0.78245 0.5267 0.86087 0.0
C1048 C 0.80716 0.51607 0.86236 0.0
C1049 C 0.81966 0.50716 0.84045 0.0
C1050 C 0.76423 0.54194 0.92932 0.0
C1051 C 0.75506 0.56689 0.9275 0.0
C1052 C 0.77225 0.52842 0.90757 0.0
C1053 C 0.77098 0.5395 0.88356 0.0
C1054 C 0.76066 0.56398 0.88165 0.0
C1055 C 0.75287 0.57756 0.90339 0.0
H1056 H 0.60777 0.51249 0.13793 0.0
H1057 H 0.66936 0.52648 0.19234 0.0
H1058 H 0.63354 0.53328 0.1054 0.0
H1059 H 0.69524 0.54705 0.1596 0.0
H1060 H 0.71355 0.61294 0.10477 0.0
H1061 H 0.69191 0.58745 0.13672 0.0
H1062 H 0.67352 0.52942 0.07965 0.0
H1063 H 0.69499 0.55508 0.04744 0.0
C1064 C 0.62691 0.51975 0.14291 0.0
C1065 C 0.6364 0.518 0.16783 0.0
C1066 C 0.64175 0.53151 0.12419 0.0
C1067 C 0.66637 0.54188 0.12998 0.0
C1068 C 0.6762 0.53949 0.15467 0.0
C1069 C 0.66141 0.5276 0.17339 0.0
C1070 C 0.70504 0.59469 0.099 0.0
C1071 C 0.70587 0.58614 0.07349 0.0
C1072 C 0.69281 0.57999 0.11738 0.0
C1073 C 0.68101 0.55644 0.11069 0.0
C1074 C 0.68224 0.54762 0.0853 0.0
C1075 C 0.69463 0.56227 0.0669 0.0
H1076 H 0.7261 0.38669 0.38975 0.0
H1077 H 0.70861 0.45054 0.43987 0.0
H1078 H 0.70994 0.40999 0.35377 0.0
H1079 H 0.69252 0.47395 0.40371 0.0
H1080 H 0.6286 0.48225 0.34096 0.0
H1081 H 0.65315 0.46714 0.37692 0.0
H1082 H 0.71646 0.44787 0.32676 0.0
H1083 H 0.6918 0.46288 0.29064 0.0
C1084 C 0.71922 0.40588 0.39302 0.0
C1085 C 0.71839 0.41668 0.41767 0.0
C1086 C 0.71012 0.4193 0.37236 0.0
C1087 C 0.69983 0.44374 0.37595 0.0
C1088 C 0.70011 0.45503 0.40044 0.0
C1089 C 0.70942 0.44167 0.4211 0.0
C1090 C 0.64791 0.47516 0.33764 0.0
C1091 C 0.65816 0.47351 0.31293 0.0
C1092 C 0.66206 0.46667 0.35828 0.0
C1093 C 0.68668 0.45619 0.35463 0.0
C1094 C 0.69742 0.45562 0.33008 0.0
C1095 C 0.68334 0.4643 0.30944 0.0
H1096 H 0.79223 0.45207 0.69034 0.0
H1097 H 0.85178 0.47403 0.63693 0.0
H1098 H 0.76746 0.43175 0.65564 0.0
H1099 H 0.82733 0.45345 0.60258 0.0
H1100 H 0.76937 0.42988 0.54231 0.0
H1101 H 0.78782 0.45545 0.57737 0.0
H1102 H 0.77286 0.39359 0.62838 0.0
H1103 H 0.75403 0.36822 0.59358 0.0
C1104 C 0.79994 0.45275 0.67122 0.0
C1105 C 0.82408 0.46452 0.66646 0.0
C1106 C 0.78582 0.44101 0.65138 0.0
C1107 C 0.79548 0.44091 0.62639 0.0
C1108 C 0.81918 0.45343 0.62155 0.0
C1109 C 0.83331 0.46507 0.64133 0.0
C1110 C 0.76981 0.42181 0.56104 0.0
C1111 C 0.76042 0.39691 0.56507 0.0
C1112 C 0.78045 0.43644 0.58111 0.0
C1113 C 0.78189 0.4265 0.60562 0.0
C1114 C 0.77176 0.40192 0.6098 0.0
C1115 C 0.76116 0.38729 0.58976 0.0
H1116 H 0.43115 0.04914 0.21449 0.0
H1117 H 0.3613 0.09104 0.22952 0.0
H1118 H 0.45027 0.08655 0.19425 0.0
H1119 H 0.38073 0.1286 0.2097 0.0
H1120 H 0.44112 0.19564 0.19339 0.0
H1121 H 0.42265 0.15983 0.21699 0.0
H1122 H 0.43503 0.10964 0.15213 0.0
H1123 H 0.45287 0.14529 0.12837 0.0
C1124 C 0.42005 0.06646 0.21382 0.0
C1125 C 0.3947 0.06721 0.22345 0.0
C1126 C 0.43095 0.08775 0.20217 0.0
C1127 C 0.41688 0.1103 0.20041 0.0
C1128 C 0.39195 0.11142 0.21096 0.0
C1129 C 0.38084 0.08995 0.22217 0.0
C1130 C 0.43976 0.17697 0.18418 0.0
C1131 C 0.44835 0.17323 0.15905 0.0
C1132 C 0.4292 0.15658 0.19764 0.0
C1133 C 0.42766 0.13207 0.18635 0.0
C1134 C 0.43627 0.12835 0.16128 0.0
C1135 C 0.4463 0.14878 0.14767 0.0
H1136 H 0.02209 0.83767 0.6218 0.0
H1137 H 0.02091 0.789 0.68686 0.0
H1138 H 0.03632 0.8737 0.64896 0.0
H1139 H 0.03598 0.82509 0.7139 0.0
H1140 H 0.10342 0.89084 0.72989 0.0
H1141 H 0.08274 0.85361 0.70882 0.0
H1142 H 0.01594 0.89847 0.69216 0.0
H1143 H 0.03619 0.93556 0.71387 0.0
C1144 C 0.02479 0.83473 0.64191 0.0
C1145 C 0.02049 0.81058 0.65226 0.0
C1146 C 0.03276 0.85533 0.65741 0.0
C1147 C 0.03712 0.85201 0.68339 0.0
C1148 C 0.03264 0.82798 0.69387 0.0
C1149 C 0.02401 0.80746 0.67846 0.0
C1150 C 0.08414 0.89259 0.72211 0.0
C1151 C 0.0714 0.91602 0.7234 0.0
C1152 C 0.07232 0.87133 0.71022 0.0
C1153 C 0.04786 0.87337 0.69897 0.0
C1154 C 0.03482 0.89657 0.7008 0.0
C1155 C 0.04637 0.91768 0.71322 0.0
H1156 H 0.41484 0.81134 0.33857 0.0
H1157 H 0.48145 0.80902 0.28906 0.0
H1158 H 0.39885 0.84801 0.31629 0.0
H1159 H 0.4666 0.84671 0.26781 0.0
H1160 H 0.42639 0.90613 0.22259 0.0
H1161 H 0.43797 0.86568 0.24088 0.0
H1162 H 0.40667 0.89115 0.31327 0.0
H1163 H 0.39367 0.93071 0.29438 0.0
C1164 C 0.42603 0.81873 0.32286 0.0
C1165 C 0.44937 0.80741 0.31554 0.0
C1166 C 0.41705 0.83994 0.31023 0.0
C1167 C 0.43156 0.85077 0.29041 0.0
C1168 C 0.45461 0.83886 0.28269 0.0
C1169 C 0.46325 0.81726 0.29494 0.0
C1170 C 0.42195 0.90295 0.24239 0.0
C1171 C 0.40916 0.92154 0.25708 0.0
C1172 C 0.4287 0.8798 0.25297 0.0
C1173 C 0.42333 0.87493 0.27866 0.0
C1174 C 0.41062 0.89375 0.2933 0.0
C1175 C 0.40336 0.91662 0.28255 0.0
H1176 H 0.83335 0.6166 0.03209 0.0
H1177 H 0.79932 0.68839 0.01324 0.0
H1178 H 0.87162 0.63952 0.04878 0.0
H1179 H 0.83706 0.71115 0.0303 0.0
H1180 H 0.91934 0.74189 0.03626 0.0
H1181 H 0.88221 0.71778 0.01977 0.0
H1182 H 0.88473 0.66848 0.08425 0.0
H1183 H 0.92245 0.69235 0.10063 0.0
C1184 C 0.83404 0.63723 0.03153 0.0
C1185 C 0.8134 0.65069 0.02127 0.0
C1186 C 0.85584 0.65035 0.04124 0.0
C1187 C 0.85737 0.67714 0.0408 0.0
C1188 C 0.83666 0.6905 0.03056 0.0
C1189 C 0.81497 0.67744 0.02088 0.0
C1190 C 0.91201 0.72596 0.04702 0.0
C1191 C 0.92384 0.71912 0.06984 0.0
C1192 C 0.89063 0.71218 0.03758 0.0
C1193 C 0.88048 0.69128 0.05075 0.0
C1194 C 0.8923 0.68434 0.07354 0.0
C1195 C 0.91377 0.69814 0.08301 0.0
H1196 H 0.58271 0.2881 0.6127 0.0
H1197 H 0.55276 0.25064 0.54457 0.0
H1198 H 0.61526 0.31037 0.58737 0.0
H1199 H 0.5854 0.27289 0.51931 0.0
H1200 H 0.66828 0.29685 0.49126 0.0
H1201 H 0.63444 0.27417 0.51459 0.0
H1202 H 0.61423 0.34438 0.55363 0.0
H1203 H 0.64799 0.36714 0.53029 0.0
C1204 C 0.58321 0.28447 0.59237 0.0
C1205 C 0.56518 0.26768 0.5806 0.0
C1206 C 0.60168 0.29737 0.57787 0.0
C1207 C 0.60264 0.29348 0.55139 0.0
C1208 C 0.58508 0.27617 0.5397 0.0
C1209 C 0.56642 0.26349 0.55416 0.0
C1210 C 0.6564 0.30749 0.5046 0.0
C1211 C 0.66084 0.33373 0.50905 0.0
C1212 C 0.63704 0.29452 0.5179 0.0
C1213 C 0.62196 0.3075 0.53607 0.0
C1214 C 0.62587 0.33388 0.53997 0.0
C1215 C 0.64503 0.34691 0.52647 0.0
H1216 H 0.20798 0.43727 0.04296 0.0
H1217 H 0.20945 0.37318 0.09292 0.0
H1218 H 0.19265 0.46452 0.07825 0.0
H1219 H 0.1949 0.40053 0.12814 0.0
H1220 H 0.18993 0.46444 0.18925 0.0
H1221 H 0.21189 0.44358 0.15335 0.0
H1222 H 0.14704 0.45926 0.10491 0.0
H1223 H 0.12471 0.47957 0.14091 0.0
C1224 C 0.20553 0.42917 0.06156 0.0
C1225 C 0.20975 0.40313 0.06525 0.0
C1226 C 0.19671 0.4447 0.08164 0.0
C1227 C 0.19271 0.43453 0.10578 0.0
C1228 C 0.19806 0.4088 0.1097 0.0
C1229 C 0.20623 0.39317 0.08956 0.0
C1230 C 0.18054 0.46377 0.17085 0.0
C1231 C 0.15556 0.47344 0.16784 0.0
C1232 C 0.19308 0.45184 0.1504 0.0
C1233 C 0.1811 0.44993 0.1265 0.0
C1234 C 0.15671 0.46073 0.12316 0.0
C1235 C 0.14392 0.47217 0.14374 0.0
H1236 H 0.27885 0.49497 0.81549 0.0
H1237 H 0.34887 0.45104 0.81235 0.0
H1238 H 0.26674 0.47463 0.85504 0.0
H1239 H 0.337 0.43118 0.8521 0.0
H1240 H 0.26418 0.45055 0.93751 0.0
H1241 H 0.27922 0.47248 0.89968 0.0
H1242 H 0.30508 0.40082 0.86737 0.0
H1243 H 0.29058 0.37906 0.90526 0.0
C1244 C 0.29171 0.48107 0.82326 0.0
C1245 C 0.31476 0.47455 0.81065 0.0
C1246 C 0.28487 0.46956 0.84605 0.0
C1247 C 0.30092 0.4513 0.85674 0.0
C1248 C 0.32405 0.44493 0.84421 0.0
C1249 C 0.33088 0.4564 0.82144 0.0
C1250 C 0.27335 0.43956 0.92244 0.0
C1251 C 0.27616 0.41308 0.92435 0.0
C1252 C 0.28177 0.45208 0.90069 0.0
C1253 C 0.2932 0.43837 0.88045 0.0
C1254 C 0.29661 0.412 0.88271 0.0
C1255 C 0.28819 0.3995 0.90441 0.0
H1256 H 0.25914 0.53432 0.55136 0.0
H1257 H 0.306 0.60189 0.56737 0.0
H1258 H 0.27973 0.51297 0.58667 0.0
H1259 H 0.32634 0.58067 0.60257 0.0
H1260 H 0.37318 0.52877 0.65116 0.0
H1261 H 0.3553 0.5451 0.61205 0.0
H1262 H 0.27909 0.51839 0.634 0.0
H1263 H 0.297 0.50183 0.67311 0.0
C1264 C 0.27401 0.5445 0.56222 0.0
C1265 C 0.28089 0.56981 0.55665 0.0
C1266 C 0.28566 0.53234 0.58251 0.0
C1267 C 0.30459 0.54517 0.59742 0.0
C1268 C 0.31202 0.57018 0.59129 0.0
C1269 C 0.30026 0.58239 0.57119 0.0
C1270 C 0.35264 0.5262 0.64757 0.0
C1271 C 0.33645 0.5142 0.66532 0.0
C1272 C 0.3424 0.53563 0.62521 0.0
C1273 C 0.31579 0.53314 0.62003 0.0
C1274 C 0.29972 0.52039 0.63737 0.0
C1275 C 0.30995 0.51106 0.65983 0.0
H1276 H 0.12659 0.53079 0.31611 0.0
H1277 H 0.20035 0.49315 0.31632 0.0
H1278 H 0.13826 0.55367 0.35527 0.0
H1279 H 0.21236 0.51668 0.35518 0.0
H1280 H 0.21704 0.54875 0.43679 0.0
H1281 H 0.20346 0.52236 0.40013 0.0
H1282 H 0.16738 0.58767 0.36754 0.0
H1283 H 0.1802 0.6137 0.40422 0.0
C1284 C 0.14532 0.52741 0.32449 0.0
C1285 C 0.16262 0.51029 0.31297 0.0
C1286 C 0.15207 0.54063 0.3469 0.0
C1287 C 0.17636 0.53722 0.35824 0.0
C1288 C 0.19341 0.51959 0.34709 0.0
C1289 C 0.18658 0.5062 0.32472 0.0
C1290 C 0.20612 0.55741 0.42182 0.0
C1291 C 0.19966 0.58332 0.42349 0.0
C1292 C 0.19845 0.54232 0.40077 0.0
C1293 C 0.18423 0.55286 0.38094 0.0
C1294 C 0.17785 0.57878 0.38267 0.0
C1295 C 0.18539 0.59378 0.40368 0.0
loop_
_geom_bond_atom_site_label_1
_geom_bond_atom_site_label_2
_geom_bond_distance
_geom_bond_site_symmetry_2
_ccdc_geom_bond_type
C0 O1 1.306 . S
C0 O3 1.160 . S
O1 C0 1.306 . S
O1 Cd2 2.228 . S
Cd2 O1 2.228 . S
Cd2 O6 2.273 1_655 S
Cd2 O10 2.277 . S
O3 C0 1.160 . S
O3 Cd4 2.203 1_655 S
Cd4 O3 2.203 1_455 S
Cd4 O6 2.411 . S
Cd4 O7 2.333 . S
Cd4 O8 2.352 . S
Cd4 O12 2.277 1_455 S
Cd4 O13 2.356 . S
C5 O10 1.209 . S
C5 O12 1.226 . S
O6 Cd2 2.273 1_455 S
O6 Cd4 2.411 . S
O6 C9 1.320 . S
O7 Cd4 2.333 . S
O7 C9 1.214 . S
O8 Cd4 2.352 . S
O8 C11 1.258 . S
C9 O6 1.320 . S
C9 O7 1.214 . S
O10 Cd2 2.277 . S
O10 C5 1.209 . S
C11 O8 1.258 . S
C11 O13 1.282 . S
O12 Cd4 2.277 1_655 S
O12 C5 1.226 . S
O13 Cd4 2.356 . S
O13 C11 1.282 . S
C14 O15 1.306 . S
C14 O17 1.160 . S
O15 C14 1.306 . S
O15 Cd16 2.228 1_655 S
Cd16 O15 2.228 1_455 S
Cd16 O20 2.273 . S
Cd16 O24 2.277 . S
O17 C14 1.160 . S
O17 Cd18 2.202 . S
Cd18 O17 2.202 . S
Cd18 O20 2.412 1_655 S
Cd18 O21 2.334 1_655 S
Cd18 O22 2.351 . S
Cd18 O26 2.277 1_655 S
Cd18 O27 2.356 . S
C19 O24 1.209 . S
C19 O26 1.226 . S
O20 Cd16 2.273 . S
O20 Cd18 2.412 1_455 S
O20 C23 1.320 . S
O21 Cd18 2.334 1_455 S
O21 C23 1.214 . S
O22 Cd18 2.351 . S
O22 C25 1.258 . S
C23 O20 1.320 . S
C23 O21 1.214 . S
O24 Cd16 2.277 . S
O24 C19 1.209 . S
C25 O22 1.258 . S
C25 O27 1.282 . S
O26 Cd18 2.277 1_455 S
O26 C19 1.226 . S
O27 Cd18 2.356 . S
O27 C25 1.282 . S
C28 O29 1.306 . S
C28 O31 1.160 . S
O29 C28 1.306 . S
O29 Cd30 2.228 . S
Cd30 O29 2.228 . S
Cd30 O34 2.273 . S
Cd30 O38 2.277 . S
O31 C28 1.160 . S
O31 Cd32 2.203 . S
Cd32 O31 2.203 . S
Cd32 O34 2.411 . S
Cd32 O35 2.333 . S
Cd32 O36 2.352 . S
Cd32 O40 2.277 . S
Cd32 O41 2.356 . S
C33 O38 1.209 . S
C33 O40 1.226 . S
O34 Cd30 2.273 . S
O34 Cd32 2.411 . S
O34 C37 1.320 . S
O35 Cd32 2.333 . S
O35 C37 1.214 . S
O36 Cd32 2.352 . S
O36 C39 1.258 . S
C37 O34 1.320 . S
C37 O35 1.214 . S
O38 Cd30 2.277 . S
O38 C33 1.209 . S
C39 O36 1.258 . S
C39 O41 1.282 . S
O40 Cd32 2.277 . S
O40 C33 1.226 . S
O41 Cd32 2.356 . S
O41 C39 1.282 . S
C42 O43 1.306 . S
C42 O45 1.160 . S
O43 C42 1.306 . S
O43 Cd44 2.228 . S
Cd44 O43 2.228 . S
Cd44 O48 2.273 . S
Cd44 O52 2.277 . S
O45 C42 1.160 . S
O45 Cd46 2.203 . S
Cd46 O45 2.203 . S
Cd46 O48 2.411 . S
Cd46 O49 2.333 . S
Cd46 O50 2.352 . S
Cd46 O54 2.277 . S
Cd46 O55 2.356 . S
C47 O52 1.209 . S
C47 O54 1.226 . S
O48 Cd44 2.273 . S
O48 Cd46 2.411 . S
O48 C51 1.320 . S
O49 Cd46 2.333 . S
O49 C51 1.214 . S
O50 Cd46 2.352 . S
O50 C53 1.258 . S
C51 O48 1.320 . S
C51 O49 1.214 . S
O52 Cd44 2.277 . S
O52 C47 1.209 . S
C53 O50 1.258 . S
C53 O55 1.282 . S
O54 Cd46 2.277 . S
O54 C47 1.226 . S
O55 Cd46 2.356 . S
O55 C53 1.282 . S
C56 O57 1.306 . S
C56 O59 1.160 . S
O57 C56 1.306 . S
O57 Cd58 2.228 . S
Cd58 O57 2.228 . S
Cd58 O62 2.273 1_655 S
Cd58 O66 2.277 . S
O59 C56 1.160 . S
O59 Cd60 2.203 1_655 S
Cd60 O59 2.203 1_455 S
Cd60 O62 2.411 . S
Cd60 O63 2.333 . S
Cd60 O64 2.352 . S
Cd60 O68 2.277 1_455 S
Cd60 O69 2.356 . S
C61 O66 1.209 . S
C61 O68 1.226 . S
O62 Cd58 2.273 1_455 S
O62 Cd60 2.411 . S
O62 C65 1.320 . S
O63 Cd60 2.333 . S
O63 C65 1.214 . S
O64 Cd60 2.352 . S
O64 C67 1.258 . S
C65 O62 1.320 . S
C65 O63 1.214 . S
O66 Cd58 2.277 . S
O66 C61 1.209 . S
C67 O64 1.258 . S
C67 O69 1.282 . S
O68 Cd60 2.277 1_655 S
O68 C61 1.226 . S
O69 Cd60 2.356 . S
O69 C67 1.282 . S
C70 O71 1.306 . S
C70 O73 1.160 . S
O71 C70 1.306 . S
O71 Cd72 2.228 . S
Cd72 O71 2.228 . S
Cd72 O76 2.273 . S
Cd72 O80 2.277 . S
O73 C70 1.160 . S
O73 Cd74 2.203 . S
Cd74 O73 2.203 . S
Cd74 O76 2.411 . S
Cd74 O77 2.333 . S
Cd74 O78 2.352 . S
Cd74 O82 2.277 . S
Cd74 O83 2.356 . S
C75 O80 1.209 . S
C75 O82 1.226 . S
O76 Cd72 2.273 . S
O76 Cd74 2.411 . S
O76 C79 1.320 . S
O77 Cd74 2.333 . S
O77 C79 1.214 . S
O78 Cd74 2.352 . S
O78 C81 1.258 . S
C79 O76 1.320 . S
C79 O77 1.214 . S
O80 Cd72 2.277 . S
O80 C75 1.209 . S
C81 O78 1.258 . S
C81 O83 1.282 . S
O82 Cd74 2.277 . S
O82 C75 1.226 . S
O83 Cd74 2.356 . S
O83 C81 1.282 . S
C84 O85 1.306 . S
C84 O87 1.160 . S
O85 C84 1.306 . S
O85 Cd86 2.228 . S
Cd86 O85 2.228 . S
Cd86 O90 2.273 . S
Cd86 O94 2.277 . S
O87 C84 1.160 . S
O87 Cd88 2.203 . S
Cd88 O87 2.203 . S
Cd88 O90 2.411 . S
Cd88 O91 2.333 . S
Cd88 O92 2.352 . S
Cd88 O96 2.277 . S
Cd88 O97 2.356 . S
C89 O94 1.209 . S
C89 O96 1.226 . S
O90 Cd86 2.273 . S
O90 Cd88 2.411 . S
O90 C93 1.320 . S
O91 Cd88 2.333 . S
O91 C93 1.214 . S
O92 Cd88 2.352 . S
O92 C95 1.258 . S
C93 O90 1.320 . S
C93 O91 1.214 . S
O94 Cd86 2.277 . S
O94 C89 1.209 . S
C95 O92 1.258 . S
C95 O97 1.282 . S
O96 Cd88 2.277 . S
O96 C89 1.226 . S
O97 Cd88 2.356 . S
O97 C95 1.282 . S
C98 O99 1.306 . S
C98 O101 1.160 . S
O99 C98 1.306 . S
O99 Cd100 2.228 1_655 S
Cd100 O99 2.228 1_455 S
Cd100 O104 2.273 . S
Cd100 O108 2.277 . S
O101 C98 1.160 . S
O101 Cd102 2.204 1_655 S
Cd102 O101 2.204 1_455 S
Cd102 O104 2.410 . S
Cd102 O105 2.332 . S
Cd102 O106 2.352 1_455 S
Cd102 O110 2.276 . S
Cd102 O111 2.356 1_455 S
C103 O108 1.209 . S
C103 O110 1.226 . S
O104 Cd100 2.273 . S
O104 Cd102 2.410 . S
O104 C107 1.320 . S
O105 Cd102 2.332 . S
O105 C107 1.214 . S
O106 Cd102 2.352 1_655 S
O106 C109 1.258 . S
C107 O104 1.320 . S
C107 O105 1.214 . S
O108 Cd100 2.277 . S
O108 C103 1.209 . S
C109 O106 1.258 . S
C109 O111 1.282 . S
O110 Cd102 2.276 . S
O110 C103 1.226 . S
O111 Cd102 2.356 1_655 S
O111 C109 1.282 . S
C112 O113 1.306 . S
C112 O115 1.160 . S
O113 C112 1.306 . S
O113 Cd114 2.228 . S
Cd114 O113 2.228 . S
Cd114 O118 2.273 1_565 S
Cd114 O122 2.277 . S
O115 C112 1.160 . S
O115 Cd116 2.203 1_565 S
Cd116 O115 2.203 1_545 S
Cd116 O118 2.411 . S
Cd116 O119 2.333 . S
Cd116 O120 2.352 . S
Cd116 O124 2.277 1_545 S
Cd116 O125 2.356 . S
C117 O122 1.209 . S
C117 O124 1.226 . S
O118 Cd114 2.273 1_545 S
O118 Cd116 2.411 . S
O118 C121 1.320 . S
O119 Cd116 2.333 . S
O119 C121 1.214 . S
O120 Cd116 2.352 . S
O120 C123 1.258 . S
C121 O118 1.320 . S
C121 O119 1.214 . S
O122 Cd114 2.277 . S
O122 C117 1.209 . S
C123 O120 1.258 . S
C123 O125 1.282 . S
O124 Cd116 2.277 1_565 S
O124 C117 1.226 . S
O125 Cd116 2.356 . S
O125 C123 1.282 . S
C126 O127 1.306 . S
C126 O129 1.160 . S
O127 C126 1.306 . S
O127 Cd128 2.228 . S
Cd128 O127 2.228 . S
Cd128 O132 2.273 . S
Cd128 O136 2.277 . S
O129 C126 1.160 . S
O129 Cd130 2.203 . S
Cd130 O129 2.203 . S
Cd130 O132 2.411 . S
Cd130 O133 2.333 . S
Cd130 O134 2.352 . S
Cd130 O138 2.277 . S
Cd130 O139 2.356 . S
C131 O136 1.209 . S
C131 O138 1.226 . S
O132 Cd128 2.273 . S
O132 Cd130 2.411 . S
O132 C135 1.320 . S
O133 Cd130 2.333 . S
O133 C135 1.214 . S
O134 Cd130 2.352 . S
O134 C137 1.258 . S
C135 O132 1.320 . S
C135 O133 1.214 . S
O136 Cd128 2.277 . S
O136 C131 1.209 . S
C137 O134 1.258 . S
C137 O139 1.282 . S
O138 Cd130 2.277 . S
O138 C131 1.226 . S
O139 Cd130 2.356 . S
O139 C137 1.282 . S
C140 O141 1.306 . S
C140 O143 1.160 . S
O141 C140 1.306 . S
O141 Cd142 2.228 . S
Cd142 O141 2.228 . S
Cd142 O146 2.273 1_545 S
Cd142 O150 2.277 . S
O143 C140 1.160 . S
O143 Cd144 2.203 . S
Cd144 O143 2.203 . S
Cd144 O146 2.411 1_545 S
Cd144 O147 2.333 1_545 S
Cd144 O148 2.352 1_545 S
Cd144 O152 2.277 . S
Cd144 O153 2.356 1_545 S
C145 O150 1.209 . S
C145 O152 1.226 . S
O146 Cd142 2.273 1_565 S
O146 Cd144 2.411 1_565 S
O146 C149 1.320 . S
O147 Cd144 2.333 1_565 S
O147 C149 1.214 . S
O148 Cd144 2.352 1_565 S
O148 C151 1.258 . S
C149 O146 1.320 . S
C149 O147 1.214 . S
O150 Cd142 2.277 . S
O150 C145 1.209 . S
C151 O148 1.258 . S
C151 O153 1.282 . S
O152 Cd144 2.277 . S
O152 C145 1.226 . S
O153 Cd144 2.356 1_565 S
O153 C151 1.282 . S
C154 O155 1.306 1_556 S
C154 O157 1.160 . S
O155 C154 1.306 1_554 S
O155 Cd156 2.228 . S
Cd156 O155 2.228 . S
Cd156 O160 2.273 . S
Cd156 O164 2.277 . S
O157 C154 1.160 . S
O157 Cd158 2.203 1_556 S
Cd158 O157 2.203 1_554 S
Cd158 O160 2.411 . S
Cd158 O161 2.333 . S
Cd158 O162 2.352 1_554 S
Cd158 O166 2.277 . S
Cd158 O167 2.356 1_554 S
C159 O164 1.209 . S
C159 O166 1.226 . S
O160 Cd156 2.273 . S
O160 Cd158 2.411 . S
O160 C163 1.320 . S
O161 Cd158 2.333 . S
O161 C163 1.214 . S
O162 Cd158 2.352 1_556 S
O162 C165 1.258 . S
C163 O160 1.320 . S
C163 O161 1.214 . S
O164 Cd156 2.277 . S
O164 C159 1.209 . S
C165 O162 1.258 . S
C165 O167 1.282 . S
O166 Cd158 2.277 . S
O166 C159 1.226 . S
O167 Cd158 2.356 1_556 S
O167 C165 1.282 . S
C168 O169 1.306 . S
C168 O171 1.160 . S
O169 C168 1.306 . S
O169 Cd170 2.228 . S
Cd170 O169 2.228 . S
Cd170 O174 2.273 1_554 S
Cd170 O178 2.277 . S
O171 C168 1.160 . S
O171 Cd172 2.203 . S
Cd172 O171 2.203 . S
Cd172 O174 2.411 1_554 S
Cd172 O175 2.333 1_554 S
Cd172 O176 2.352 1_554 S
Cd172 O180 2.277 . S
Cd172 O181 2.356 1_554 S
C173 O178 1.209 . S
C173 O180 1.226 . S
O174 Cd170 2.273 1_556 S
O174 Cd172 2.411 1_556 S
O174 C177 1.320 . S
O175 Cd172 2.333 1_556 S
O175 C177 1.214 . S
O176 Cd172 2.352 1_556 S
O176 C179 1.258 . S
C177 O174 1.320 . S
C177 O175 1.214 . S
O178 Cd170 2.277 . S
O178 C173 1.209 . S
C179 O176 1.258 . S
C179 O181 1.282 . S
O180 Cd172 2.277 . S
O180 C173 1.226 . S
O181 Cd172 2.356 1_556 S
O181 C179 1.282 . S
C182 O183 1.306 . S
C182 O185 1.160 . S
O183 C182 1.306 . S
O183 Cd184 2.228 . S
Cd184 O183 2.228 . S
Cd184 O188 2.273 1_556 S
Cd184 O192 2.277 . S
O185 C182 1.160 . S
O185 Cd186 2.203 1_556 S
Cd186 O185 2.203 1_554 S
Cd186 O188 2.411 . S
Cd186 O189 2.333 . S
Cd186 O190 2.352 . S
Cd186 O194 2.277 1_554 S
Cd186 O195 2.356 . S
C187 O192 1.209 . S
C187 O194 1.226 . S
O188 Cd184 2.273 1_554 S
O188 Cd186 2.411 . S
O188 C191 1.320 . S
O189 Cd186 2.333 . S
O189 C191 1.214 . S
O190 Cd186 2.352 . S
O190 C193 1.258 . S
C191 O188 1.320 . S
C191 O189 1.214 . S
O192 Cd184 2.277 . S
O192 C187 1.209 . S
C193 O190 1.258 . S
C193 O195 1.282 . S
O194 Cd186 2.277 1_556 S
O194 C187 1.226 . S
O195 Cd186 2.356 . S
O195 C193 1.282 . S
C196 O197 1.306 . S
C196 O199 1.160 . S
O197 C196 1.306 . S
O197 Cd198 2.228 . S
Cd198 O197 2.228 . S
Cd198 O202 2.273 . S
Cd198 O206 2.277 . S
O199 C196 1.160 . S
O199 Cd200 2.203 . S
Cd200 O199 2.203 . S
Cd200 O202 2.411 . S
Cd200 O203 2.333 . S
Cd200 O204 2.352 . S
Cd200 O208 2.277 . S
Cd200 O209 2.356 . S
C201 O206 1.209 . S
C201 O208 1.226 . S
O202 Cd198 2.273 . S
O202 Cd200 2.411 . S
O202 C205 1.320 . S
O203 Cd200 2.333 . S
O203 C205 1.214 . S
O204 Cd200 2.352 . S
O204 C207 1.258 . S
C205 O202 1.320 . S
C205 O203 1.214 . S
O206 Cd198 2.277 . S
O206 C201 1.209 . S
C207 O204 1.258 . S
C207 O209 1.282 . S
O208 Cd200 2.277 . S
O208 C201 1.226 . S
O209 Cd200 2.356 . S
O209 C207 1.282 . S
C210 O211 1.306 . S
C210 O213 1.160 . S
O211 C210 1.306 . S
O211 Cd212 2.228 . S
Cd212 O211 2.228 . S
Cd212 O216 2.273 . S
Cd212 O220 2.277 . S
O213 C210 1.160 . S
O213 Cd214 2.203 . S
Cd214 O213 2.203 . S
Cd214 O216 2.411 . S
Cd214 O217 2.333 . S
Cd214 O218 2.352 . S
Cd214 O222 2.277 . S
Cd214 O223 2.356 . S
C215 O220 1.209 . S
C215 O222 1.226 . S
O216 Cd212 2.273 . S
O216 Cd214 2.411 . S
O216 C219 1.320 . S
O217 Cd214 2.333 . S
O217 C219 1.214 . S
O218 Cd214 2.352 . S
O218 C221 1.258 . S
C219 O216 1.320 . S
C219 O217 1.214 . S
O220 Cd212 2.277 . S
O220 C215 1.209 . S
C221 O218 1.258 . S
C221 O223 1.282 . S
O222 Cd214 2.277 . S
O222 C215 1.226 . S
O223 Cd214 2.356 . S
O223 C221 1.282 . S
C224 O225 1.306 1_565 S
C224 O227 1.160 . S
O225 C224 1.306 1_545 S
O225 Cd226 2.228 . S
Cd226 O225 2.228 . S
Cd226 O230 2.273 . S
Cd226 O234 2.277 . S
O227 C224 1.160 . S
O227 Cd228 2.190 1_565 S
Cd228 O227 2.190 1_545 S
Cd228 O230 2.423 . S
Cd228 O231 2.348 . S
Cd228 O232 2.322 1_545 S
Cd228 O236 2.299 . S
Cd228 O237 2.339 1_545 S
C229 O234 1.209 . S
C229 O236 1.226 . S
O230 Cd226 2.273 . S
O230 Cd228 2.423 . S
O230 C233 1.320 . S
O231 Cd228 2.348 . S
O231 C233 1.214 . S
O232 Cd228 2.322 1_565 S
O232 C235 1.258 . S
C233 O230 1.320 . S
C233 O231 1.214 . S
O234 Cd226 2.277 . S
O234 C229 1.209 . S
C235 O232 1.258 . S
C235 O237 1.282 . S
O236 Cd228 2.299 . S
O236 C229 1.226 . S
O237 Cd228 2.339 1_565 S
O237 C235 1.282 . S
C238 O239 1.306 . S
C238 O241 1.160 . S
O239 C238 1.306 . S
O239 Cd240 2.228 . S
Cd240 O239 2.228 . S
Cd240 O244 2.273 . S
Cd240 O248 2.277 . S
O241 C238 1.160 . S
O241 Cd242 2.203 . S
Cd242 O241 2.203 . S
Cd242 O244 2.411 . S
Cd242 O245 2.333 . S
Cd242 O246 2.352 . S
Cd242 O250 2.277 . S
Cd242 O251 2.356 . S
C243 O248 1.209 . S
C243 O250 1.226 . S
O244 Cd240 2.273 . S
O244 Cd242 2.411 . S
O244 C247 1.320 . S
O245 Cd242 2.333 . S
O245 C247 1.214 . S
O246 Cd242 2.352 . S
O246 C249 1.258 . S
C247 O244 1.320 . S
C247 O245 1.214 . S
O248 Cd240 2.277 . S
O248 C243 1.209 . S
C249 O246 1.258 . S
C249 O251 1.282 . S
O250 Cd242 2.277 . S
O250 C243 1.226 . S
O251 Cd242 2.356 . S
O251 C249 1.282 . S
C252 O253 1.306 . S
C252 O255 1.160 . S
O253 C252 1.306 . S
O253 Cd254 2.228 . S
Cd254 O253 2.228 . S
Cd254 O258 2.273 . S
Cd254 O262 2.277 . S
O255 C252 1.160 . S
O255 Cd256 2.203 . S
Cd256 O255 2.203 . S
Cd256 O258 2.411 . S
Cd256 O259 2.333 . S
Cd256 O260 2.352 . S
Cd256 O264 2.277 . S
Cd256 O265 2.356 . S
C257 O262 1.209 . S
C257 O264 1.226 . S
O258 Cd254 2.273 . S
O258 Cd256 2.411 . S
O258 C261 1.320 . S
O259 Cd256 2.333 . S
O259 C261 1.214 . S
O260 Cd256 2.352 . S
O260 C263 1.258 . S
C261 O258 1.320 . S
C261 O259 1.214 . S
O262 Cd254 2.277 . S
O262 C257 1.209 . S
C263 O260 1.258 . S
C263 O265 1.282 . S
O264 Cd256 2.277 . S
O264 C257 1.226 . S
O265 Cd256 2.356 . S
O265 C263 1.282 . S
C266 O267 1.306 . S
C266 O269 1.160 . S
O267 C266 1.306 . S
O267 Cd268 2.228 1_545 S
Cd268 O267 2.228 1_565 S
Cd268 O272 2.273 . S
Cd268 O276 2.277 . S
O269 C266 1.160 . S
O269 Cd270 2.203 . S
Cd270 O269 2.203 . S
Cd270 O272 2.411 1_545 S
Cd270 O273 2.333 1_545 S
Cd270 O274 2.352 . S
Cd270 O278 2.277 1_545 S
Cd270 O279 2.356 . S
C271 O276 1.209 . S
C271 O278 1.226 . S
O272 Cd268 2.273 . S
O272 Cd270 2.411 1_565 S
O272 C275 1.320 . S
O273 Cd270 2.333 1_565 S
O273 C275 1.214 . S
O274 Cd270 2.352 . S
O274 C277 1.258 . S
C275 O272 1.320 . S
C275 O273 1.214 . S
O276 Cd268 2.277 . S
O276 C271 1.209 . S
C277 O274 1.258 . S
C277 O279 1.282 . S
O278 Cd270 2.277 1_565 S
O278 C271 1.226 . S
O279 Cd270 2.356 . S
O279 C277 1.282 . S
C280 O281 1.306 1_556 S
C280 O283 1.160 . S
O281 C280 1.306 1_554 S
O281 Cd282 2.228 . S
Cd282 O281 2.228 . S
Cd282 O286 2.273 . S
Cd282 O290 2.277 . S
O283 C280 1.160 . S
O283 Cd284 2.203 1_556 S
Cd284 O283 2.203 1_554 S
Cd284 O286 2.411 . S
Cd284 O287 2.333 . S
Cd284 O288 2.352 1_554 S
Cd284 O292 2.277 . S
Cd284 O293 2.356 1_554 S
C285 O290 1.209 . S
C285 O292 1.226 . S
O286 Cd282 2.273 . S
O286 Cd284 2.411 . S
O286 C289 1.320 . S
O287 Cd284 2.333 . S
O287 C289 1.214 . S
O288 Cd284 2.352 1_556 S
O288 C291 1.258 . S
C289 O286 1.320 . S
C289 O287 1.214 . S
O290 Cd282 2.277 . S
O290 C285 1.209 . S
C291 O288 1.258 . S
C291 O293 1.282 . S
O292 Cd284 2.277 . S
O292 C285 1.226 . S
O293 Cd284 2.356 1_556 S
O293 C291 1.282 . S
C294 O295 1.306 . S
C294 O297 1.160 . S
O295 C294 1.306 . S
O295 Cd296 2.228 . S
Cd296 O295 2.228 . S
Cd296 O300 2.273 . S
Cd296 O304 2.277 . S
O297 C294 1.160 . S
O297 Cd298 2.203 . S
Cd298 O297 2.203 . S
Cd298 O300 2.411 . S
Cd298 O301 2.333 . S
Cd298 O302 2.352 . S
Cd298 O306 2.277 . S
Cd298 O307 2.356 . S
C299 O304 1.209 . S
C299 O306 1.226 . S
O300 Cd296 2.273 . S
O300 Cd298 2.411 . S
O300 C303 1.320 . S
O301 Cd298 2.333 . S
O301 C303 1.214 . S
O302 Cd298 2.352 . S
O302 C305 1.258 . S
C303 O300 1.320 . S
C303 O301 1.214 . S
O304 Cd296 2.277 . S
O304 C299 1.209 . S
C305 O302 1.258 . S
C305 O307 1.282 . S
O306 Cd298 2.277 . S
O306 C299 1.226 . S
O307 Cd298 2.356 . S
O307 C305 1.282 . S
C308 O309 1.306 . S
C308 O311 1.160 . S
O309 C308 1.306 . S
O309 Cd310 2.228 . S
Cd310 O309 2.228 . S
Cd310 O314 2.273 . S
Cd310 O318 2.277 . S
O311 C308 1.160 . S
O311 Cd312 2.203 . S
Cd312 O311 2.203 . S
Cd312 O314 2.411 . S
Cd312 O315 2.333 . S
Cd312 O316 2.352 . S
Cd312 O320 2.277 . S
Cd312 O321 2.356 . S
C313 O318 1.209 . S
C313 O320 1.226 . S
O314 Cd310 2.273 . S
O314 Cd312 2.411 . S
O314 C317 1.320 . S
O315 Cd312 2.333 . S
O315 C317 1.214 . S
O316 Cd312 2.352 . S
O316 C319 1.258 . S
C317 O314 1.320 . S
C317 O315 1.214 . S
O318 Cd310 2.277 . S
O318 C313 1.209 . S
C319 O316 1.258 . S
C319 O321 1.282 . S
O320 Cd312 2.277 . S
O320 C313 1.226 . S
O321 Cd312 2.356 . S
O321 C319 1.282 . S
C322 O323 1.306 . S
C322 O325 1.160 . S
O323 C322 1.306 . S
O323 Cd324 2.228 . S
Cd324 O323 2.228 . S
Cd324 O328 2.273 . S
Cd324 O332 2.277 . S
O325 C322 1.160 . S
O325 Cd326 2.203 . S
Cd326 O325 2.203 . S
Cd326 O328 2.411 . S
Cd326 O329 2.333 . S
Cd326 O330 2.352 . S
Cd326 O334 2.277 . S
Cd326 O335 2.356 . S
C327 O332 1.209 . S
C327 O334 1.226 . S
O328 Cd324 2.273 . S
O328 Cd326 2.411 . S
O328 C331 1.320 . S
O329 Cd326 2.333 . S
O329 C331 1.214 . S
O330 Cd326 2.352 . S
O330 C333 1.258 . S
C331 O328 1.320 . S
C331 O329 1.214 . S
O332 Cd324 2.277 . S
O332 C327 1.209 . S
C333 O330 1.258 . S
C333 O335 1.282 . S
O334 Cd326 2.277 . S
O334 C327 1.226 . S
O335 Cd326 2.356 . S
O335 C333 1.282 . S
H336 C344 0.950 . S
H337 C349 0.950 . S
H338 C346 0.950 . S
H339 C348 0.950 . S
H340 C350 0.950 . S
H341 C352 0.950 . S
H342 C354 0.950 . S
H343 C355 0.950 . S
C344 H336 0.950 . S
C344 C345 1.386 . S
C344 C346 1.391 . S
C345 C344 1.386 . S
C345 C349 1.393 . S
C346 H338 0.950 . S
C346 C344 1.391 . S
C346 C347 1.400 . S
C347 C346 1.400 . S
C347 C348 1.398 . S
C347 C353 1.491 . S
C348 H339 0.950 . S
C348 C347 1.398 . S
C348 C349 1.391 . S
C349 H337 0.950 . S
C349 C345 1.393 . S
C349 C348 1.391 . S
C350 H340 0.950 . S
C350 C351 1.386 . S
C350 C352 1.391 . S
C351 C350 1.386 . S
C351 C355 1.393 . S
C352 H341 0.950 . S
C352 C350 1.391 . S
C352 C353 1.400 . S
C353 C347 1.491 . S
C353 C352 1.400 . S
C353 C354 1.398 . S
C354 H342 0.950 . S
C354 C353 1.398 . S
C354 C355 1.391 . S
C355 H343 0.950 . S
C355 C351 1.393 . S
C355 C354 1.391 . S
H356 C364 0.950 . S
H357 C369 0.950 . S
H358 C366 0.950 . S
H359 C368 0.950 . S
H360 C370 0.950 . S
H361 C372 0.950 . S
H362 C374 0.950 . S
H363 C375 0.950 . S
C364 H356 0.950 . S
C364 C365 1.386 . S
C364 C366 1.391 . S
C365 C364 1.386 . S
C365 C369 1.393 . S
C366 H358 0.950 . S
C366 C364 1.391 . S
C366 C367 1.400 . S
C367 C366 1.400 . S
C367 C368 1.398 . S
C367 C373 1.491 . S
C368 H359 0.950 . S
C368 C367 1.398 . S
C368 C369 1.391 . S
C369 H357 0.950 . S
C369 C365 1.393 . S
C369 C368 1.391 . S
C370 H360 0.950 . S
C370 C371 1.386 . S
C370 C372 1.391 . S
C371 C370 1.386 . S
C371 C375 1.393 . S
C372 H361 0.950 . S
C372 C370 1.391 . S
C372 C373 1.400 . S
C373 C367 1.491 . S
C373 C372 1.400 . S
C373 C374 1.398 . S
C374 H362 0.950 . S
C374 C373 1.398 . S
C374 C375 1.391 . S
C375 H363 0.950 . S
C375 C371 1.393 . S
C375 C374 1.391 . S
H376 C384 0.950 . S
H377 C389 0.950 . S
H378 C386 0.950 . S
H379 C388 0.950 . S
H380 C390 0.950 . S
H381 C392 0.950 . S
H382 C394 0.950 . S
H383 C395 0.950 . S
C384 H376 0.950 . S
C384 C385 1.386 . S
C384 C386 1.391 . S
C385 C384 1.386 . S
C385 C389 1.393 . S
C386 H378 0.950 . S
C386 C384 1.391 . S
C386 C387 1.400 . S
C387 C386 1.400 . S
C387 C388 1.398 . S
C387 C393 1.491 . S
C388 H379 0.950 . S
C388 C387 1.398 . S
C388 C389 1.391 . S
C389 H377 0.950 . S
C389 C385 1.393 . S
C389 C388 1.391 . S
C390 H380 0.950 . S
C390 C391 1.386 . S
C390 C392 1.391 . S
C391 C390 1.386 . S
C391 C395 1.393 . S
C392 H381 0.950 . S
C392 C390 1.391 . S
C392 C393 1.400 . S
C393 C387 1.491 . S
C393 C392 1.400 . S
C393 C394 1.398 . S
C394 H382 0.950 . S
C394 C393 1.398 . S
C394 C395 1.391 . S
C395 H383 0.950 . S
C395 C391 1.393 . S
C395 C394 1.391 . S
H396 C404 0.950 . S
H397 C409 0.950 . S
H398 C406 0.950 . S
H399 C408 0.950 . S
H400 C410 0.950 . S
H401 C412 0.950 . S
H402 C414 0.950 . S
H403 C415 0.950 . S
C404 H396 0.950 . S
C404 C405 1.386 . S
C404 C406 1.391 . S
C405 C404 1.386 . S
C405 C409 1.393 . S
C406 H398 0.950 . S
C406 C404 1.391 . S
C406 C407 1.400 . S
C407 C406 1.400 . S
C407 C408 1.398 . S
C407 C413 1.491 . S
C408 H399 0.950 . S
C408 C407 1.398 . S
C408 C409 1.391 . S
C409 H397 0.950 . S
C409 C405 1.393 . S
C409 C408 1.391 . S
C410 H400 0.950 . S
C410 C411 1.386 . S
C410 C412 1.391 . S
C411 C410 1.386 . S
C411 C415 1.393 . S
C412 H401 0.950 . S
C412 C410 1.391 . S
C412 C413 1.400 . S
C413 C407 1.491 . S
C413 C412 1.400 . S
C413 C414 1.398 . S
C414 H402 0.950 . S
C414 C413 1.398 . S
C414 C415 1.391 . S
C415 H403 0.950 . S
C415 C411 1.393 . S
C415 C414 1.391 . S
H416 C424 0.950 . S
H417 C429 0.950 . S
H418 C426 0.950 . S
H419 C428 0.950 . S
H420 C430 0.950 . S
H421 C432 0.950 . S
H422 C434 0.950 . S
H423 C435 0.950 . S
C424 H416 0.950 . S
C424 C425 1.386 . S
C424 C426 1.391 . S
C425 C424 1.386 . S
C425 C429 1.393 . S
C426 H418 0.950 . S
C426 C424 1.391 . S
C426 C427 1.400 . S
C427 C426 1.400 . S
C427 C428 1.398 . S
C427 C433 1.491 . S
C428 H419 0.950 . S
C428 C427 1.398 . S
C428 C429 1.391 . S
C429 H417 0.950 . S
C429 C425 1.393 . S
C429 C428 1.391 . S
C430 H420 0.950 . S
C430 C431 1.386 . S
C430 C432 1.391 . S
C431 C430 1.386 . S
C431 C435 1.393 . S
C432 H421 0.950 . S
C432 C430 1.391 . S
C432 C433 1.400 . S
C433 C427 1.491 . S
C433 C432 1.400 . S
C433 C434 1.398 . S
C434 H422 0.950 . S
C434 C433 1.398 . S
C434 C435 1.391 . S
C435 H423 0.950 . S
C435 C431 1.393 . S
C435 C434 1.391 . S
H436 C444 0.950 . S
H437 C449 0.950 . S
H438 C446 0.950 . S
H439 C448 0.950 . S
H440 C450 0.950 . S
H441 C452 0.950 . S
H442 C454 0.950 . S
H443 C455 0.950 . S
C444 H436 0.950 . S
C444 C445 1.386 . S
C444 C446 1.391 . S
C445 C444 1.386 . S
C445 C449 1.393 . S
C446 H438 0.950 . S
C446 C444 1.391 . S
C446 C447 1.400 . S
C447 C446 1.400 . S
C447 C448 1.398 . S
C447 C453 1.491 . S
C448 H439 0.950 . S
C448 C447 1.398 . S
C448 C449 1.391 . S
C449 H437 0.950 . S
C449 C445 1.393 . S
C449 C448 1.391 . S
C450 H440 0.950 . S
C450 C451 1.386 . S
C450 C452 1.391 . S
C451 C450 1.386 . S
C451 C455 1.393 . S
C452 H441 0.950 . S
C452 C450 1.391 . S
C452 C453 1.400 . S
C453 C447 1.491 . S
C453 C452 1.400 . S
C453 C454 1.398 . S
C454 H442 0.950 . S
C454 C453 1.398 . S
C454 C455 1.391 . S
C455 H443 0.950 . S
C455 C451 1.393 . S
C455 C454 1.391 . S
H456 C464 0.950 . S
H457 C469 0.950 . S
H458 C466 0.950 . S
H459 C468 0.950 . S
H460 C470 0.950 . S
H461 C472 0.950 . S
H462 C474 0.950 . S
H463 C475 0.950 . S
C464 H456 0.950 . S
C464 C465 1.386 . S
C464 C466 1.391 . S
C465 C464 1.386 . S
C465 C469 1.393 . S
C466 H458 0.950 . S
C466 C464 1.391 . S
C466 C467 1.400 . S
C467 C466 1.400 . S
C467 C468 1.398 . S
C467 C473 1.491 . S
C468 H459 0.950 . S
C468 C467 1.398 . S
C468 C469 1.391 . S
C469 H457 0.950 . S
C469 C465 1.393 . S
C469 C468 1.391 . S
C470 H460 0.950 . S
C470 C471 1.386 . S
C470 C472 1.391 . S
C471 C470 1.386 . S
C471 C475 1.393 . S
C472 H461 0.950 . S
C472 C470 1.391 . S
C472 C473 1.400 . S
C473 C467 1.491 . S
C473 C472 1.400 . S
C473 C474 1.398 . S
C474 H462 0.950 . S
C474 C473 1.398 . S
C474 C475 1.391 . S
C475 H463 0.950 . S
C475 C471 1.393 . S
C475 C474 1.391 . S
H476 C484 0.950 . S
H477 C489 0.950 . S
H478 C486 0.950 . S
H479 C488 0.950 . S
H480 C490 0.950 . S
H481 C492 0.950 . S
H482 C494 0.950 . S
H483 C495 0.950 1_554 S
C484 H476 0.950 . S
C484 C485 1.386 . S
C484 C486 1.391 . S
C485 C484 1.386 . S
C485 C489 1.393 . S
C486 H478 0.950 . S
C486 C484 1.391 . S
C486 C487 1.400 . S
C487 C486 1.400 . S
C487 C488 1.398 . S
C487 C493 1.491 . S
C488 H479 0.950 . S
C488 C487 1.398 . S
C488 C489 1.391 . S
C489 H477 0.950 . S
C489 C485 1.393 . S
C489 C488 1.391 . S
C490 H480 0.950 . S
C490 C491 1.386 . S
C490 C492 1.391 . S
C491 C490 1.386 . S
C491 C495 1.393 . S
C492 H481 0.950 . S
C492 C490 1.391 . S
C492 C493 1.400 . S
C493 C487 1.491 . S
C493 C492 1.400 . S
C493 C494 1.398 . S
C494 H482 0.950 . S
C494 C493 1.398 . S
C494 C495 1.391 . S
C495 H483 0.950 1_556 S
C495 C491 1.393 . S
C495 C494 1.391 . S
H496 C504 0.950 . S
H497 C509 0.950 . S
H498 C506 0.950 . S
H499 C508 0.950 . S
H500 C510 0.950 . S
H501 C512 0.950 . S
H502 C514 0.950 . S
H503 C515 0.950 . S
C504 H496 0.950 . S
C504 C505 1.386 . S
C504 C506 1.391 . S
C505 C504 1.386 . S
C505 C509 1.393 . S
C506 H498 0.950 . S
C506 C504 1.391 . S
C506 C507 1.400 . S
C507 C506 1.400 . S
C507 C508 1.398 . S
C507 C513 1.491 . S
C508 H499 0.950 . S
C508 C507 1.398 . S
C508 C509 1.391 . S
C509 H497 0.950 . S
C509 C505 1.393 . S
C509 C508 1.391 . S
C510 H500 0.950 . S
C510 C511 1.386 . S
C510 C512 1.391 . S
C511 C510 1.386 . S
C511 C515 1.393 . S
C512 H501 0.950 . S
C512 C510 1.391 . S
C512 C513 1.400 . S
C513 C507 1.491 . S
C513 C512 1.400 . S
C513 C514 1.398 . S
C514 H502 0.950 . S
C514 C513 1.398 . S
C514 C515 1.391 . S
C515 H503 0.950 . S
C515 C511 1.393 . S
C515 C514 1.391 . S
H516 C524 0.950 . S
H517 C529 0.950 . S
H518 C526 0.950 . S
H519 C528 0.950 . S
H520 C530 0.950 . S
H521 C532 0.950 . S
H522 C534 0.950 . S
H523 C535 0.950 . S
C524 H516 0.950 . S
C524 C525 1.386 . S
C524 C526 1.391 . S
C525 C524 1.386 . S
C525 C529 1.393 . S
C526 H518 0.950 . S
C526 C524 1.391 . S
C526 C527 1.400 . S
C527 C526 1.400 . S
C527 C528 1.398 . S
C527 C533 1.491 . S
C528 H519 0.950 . S
C528 C527 1.398 . S
C528 C529 1.391 . S
C529 H517 0.950 . S
C529 C525 1.393 . S
C529 C528 1.391 . S
C530 H520 0.950 . S
C530 C531 1.386 . S
C530 C532 1.391 . S
C531 C530 1.386 . S
C531 C535 1.393 . S
C532 H521 0.950 . S
C532 C530 1.391 . S
C532 C533 1.400 . S
C533 C527 1.491 . S
C533 C532 1.400 . S
C533 C534 1.398 . S
C534 H522 0.950 . S
C534 C533 1.398 . S
C534 C535 1.391 . S
C535 H523 0.950 . S
C535 C531 1.393 . S
C535 C534 1.391 . S
H536 C544 0.950 . S
H537 C549 0.950 . S
H538 C546 0.950 . S
H539 C548 0.950 . S
H540 C550 0.950 . S
H541 C552 0.950 . S
H542 C554 0.950 . S
H543 C555 0.950 . S
C544 H536 0.950 . S
C544 C545 1.386 . S
C544 C546 1.391 . S
C545 C544 1.386 . S
C545 C549 1.393 . S
C546 H538 0.950 . S
C546 C544 1.391 . S
C546 C547 1.400 . S
C547 C546 1.400 . S
C547 C548 1.398 . S
C547 C553 1.491 . S
C548 H539 0.950 . S
C548 C547 1.398 . S
C548 C549 1.391 . S
C549 H537 0.950 . S
C549 C545 1.393 . S
C549 C548 1.391 . S
C550 H540 0.950 . S
C550 C551 1.386 . S
C550 C552 1.391 . S
C551 C550 1.386 . S
C551 C555 1.393 . S
C552 H541 0.950 . S
C552 C550 1.391 . S
C552 C553 1.400 . S
C553 C547 1.491 . S
C553 C552 1.400 . S
C553 C554 1.398 . S
C554 H542 0.950 . S
C554 C553 1.398 . S
C554 C555 1.391 . S
C555 H543 0.950 . S
C555 C551 1.393 . S
C555 C554 1.391 . S
H556 C564 0.950 . S
H557 C569 0.950 . S
H558 C566 0.950 . S
H559 C568 0.950 . S
H560 C570 0.950 . S
H561 C572 0.950 . S
H562 C574 0.950 . S
H563 C575 0.950 . S
C564 H556 0.950 . S
C564 C565 1.386 . S
C564 C566 1.391 . S
C565 C564 1.386 . S
C565 C569 1.393 . S
C566 H558 0.950 . S
C566 C564 1.391 . S
C566 C567 1.400 . S
C567 C566 1.400 . S
C567 C568 1.398 . S
C567 C573 1.491 . S
C568 H559 0.950 . S
C568 C567 1.398 . S
C568 C569 1.391 . S
C569 H557 0.950 . S
C569 C565 1.393 . S
C569 C568 1.391 . S
C570 H560 0.950 . S
C570 C571 1.386 . S
C570 C572 1.391 . S
C571 C570 1.386 . S
C571 C575 1.393 . S
C572 H561 0.950 . S
C572 C570 1.391 . S
C572 C573 1.400 . S
C573 C567 1.491 . S
C573 C572 1.400 . S
C573 C574 1.398 . S
C574 H562 0.950 . S
C574 C573 1.398 . S
C574 C575 1.391 . S
C575 H563 0.950 . S
C575 C571 1.393 . S
C575 C574 1.391 . S
H576 C584 0.950 . S
H577 C589 0.950 . S
H578 C586 0.950 . S
H579 C588 0.950 . S
H580 C590 0.950 . S
H581 C592 0.950 . S
H582 C594 0.950 . S
H583 C595 0.950 . S
C584 H576 0.950 . S
C584 C585 1.386 . S
C584 C586 1.391 . S
C585 C584 1.386 . S
C585 C589 1.393 . S
C586 H578 0.950 . S
C586 C584 1.391 . S
C586 C587 1.400 . S
C587 C586 1.400 . S
C587 C588 1.398 . S
C587 C593 1.491 . S
C588 H579 0.950 . S
C588 C587 1.398 . S
C588 C589 1.391 . S
C589 H577 0.950 . S
C589 C585 1.393 . S
C589 C588 1.391 . S
C590 H580 0.950 . S
C590 C591 1.386 . S
C590 C592 1.391 . S
C591 C590 1.386 . S
C591 C595 1.393 . S
C592 H581 0.950 . S
C592 C590 1.391 . S
C592 C593 1.400 . S
C593 C587 1.491 . S
C593 C592 1.400 . S
C593 C594 1.398 . S
C594 H582 0.950 . S
C594 C593 1.398 . S
C594 C595 1.391 . S
C595 H583 0.950 . S
C595 C591 1.393 . S
C595 C594 1.391 . S
H596 C604 0.950 . S
H597 C609 0.950 . S
H598 C606 0.950 . S
H599 C608 0.950 . S
H600 C610 0.950 . S
H601 C612 0.950 . S
H602 C614 0.950 . S
H603 C615 0.950 . S
C604 H596 0.950 . S
C604 C605 1.386 . S
C604 C606 1.391 . S
C605 C604 1.386 . S
C605 C609 1.393 . S
C606 H598 0.950 . S
C606 C604 1.391 . S
C606 C607 1.400 . S
C607 C606 1.400 . S
C607 C608 1.398 . S
C607 C613 1.491 . S
C608 H599 0.950 . S
C608 C607 1.398 . S
C608 C609 1.391 . S
C609 H597 0.950 . S
C609 C605 1.393 . S
C609 C608 1.391 . S
C610 H600 0.950 . S
C610 C611 1.386 . S
C610 C612 1.391 . S
C611 C610 1.386 . S
C611 C615 1.393 . S
C612 H601 0.950 . S
C612 C610 1.391 . S
C612 C613 1.400 . S
C613 C607 1.491 . S
C613 C612 1.400 . S
C613 C614 1.398 . S
C614 H602 0.950 . S
C614 C613 1.398 . S
C614 C615 1.391 . S
C615 H603 0.950 . S
C615 C611 1.393 . S
C615 C614 1.391 . S
H616 C624 0.950 . S
H617 C629 0.950 . S
H618 C626 0.950 . S
H619 C628 0.950 . S
H620 C630 0.950 . S
H621 C632 0.950 . S
H622 C634 0.950 . S
H623 C635 0.950 . S
C624 H616 0.950 . S
C624 C625 1.386 . S
C624 C626 1.391 . S
C625 C624 1.386 . S
C625 C629 1.393 . S
C626 H618 0.950 . S
C626 C624 1.391 . S
C626 C627 1.400 . S
C627 C626 1.400 . S
C627 C628 1.398 . S
C627 C633 1.491 . S
C628 H619 0.950 . S
C628 C627 1.398 . S
C628 C629 1.391 . S
C629 H617 0.950 . S
C629 C625 1.393 . S
C629 C628 1.391 . S
C630 H620 0.950 . S
C630 C631 1.386 . S
C630 C632 1.391 . S
C631 C630 1.386 . S
C631 C635 1.393 . S
C632 H621 0.950 . S
C632 C630 1.391 . S
C632 C633 1.400 . S
C633 C627 1.491 . S
C633 C632 1.400 . S
C633 C634 1.398 . S
C634 H622 0.950 . S
C634 C633 1.398 . S
C634 C635 1.391 . S
C635 H623 0.950 . S
C635 C631 1.393 . S
C635 C634 1.391 . S
H636 C644 0.950 . S
H637 C649 0.950 . S
H638 C646 0.950 . S
H639 C648 0.950 . S
H640 C650 0.950 . S
H641 C652 0.950 . S
H642 C654 0.950 . S
H643 C655 0.950 . S
C644 H636 0.950 . S
C644 C645 1.386 . S
C644 C646 1.391 . S
C645 C644 1.386 . S
C645 C649 1.393 . S
C646 H638 0.950 . S
C646 C644 1.391 . S
C646 C647 1.400 . S
C647 C646 1.400 . S
C647 C648 1.398 . S
C647 C653 1.491 . S
C648 H639 0.950 . S
C648 C647 1.398 . S
C648 C649 1.391 . S
C649 H637 0.950 . S
C649 C645 1.393 . S
C649 C648 1.391 . S
C650 H640 0.950 . S
C650 C651 1.386 . S
C650 C652 1.391 . S
C651 C650 1.386 . S
C651 C655 1.393 . S
C652 H641 0.950 . S
C652 C650 1.391 . S
C652 C653 1.400 . S
C653 C647 1.491 . S
C653 C652 1.400 . S
C653 C654 1.398 . S
C654 H642 0.950 . S
C654 C653 1.398 . S
C654 C655 1.391 . S
C655 H643 0.950 . S
C655 C651 1.393 . S
C655 C654 1.391 . S
H656 C664 0.950 . S
H657 C669 0.950 . S
H658 C666 0.950 . S
H659 C668 0.950 . S
H660 C670 0.950 . S
H661 C672 0.950 . S
H662 C674 0.950 . S
H663 C675 0.950 . S
C664 H656 0.950 . S
C664 C665 1.386 . S
C664 C666 1.391 . S
C665 C664 1.386 . S
C665 C669 1.393 . S
C666 H658 0.950 . S
C666 C664 1.391 . S
C666 C667 1.400 . S
C667 C666 1.400 . S
C667 C668 1.398 . S
C667 C673 1.491 . S
C668 H659 0.950 . S
C668 C667 1.398 . S
C668 C669 1.391 . S
C669 H657 0.950 . S
C669 C665 1.393 . S
C669 C668 1.391 . S
C670 H660 0.950 . S
C670 C671 1.386 . S
C670 C672 1.391 . S
C671 C670 1.386 . S
C671 C675 1.393 . S
C672 H661 0.950 . S
C672 C670 1.391 . S
C672 C673 1.400 . S
C673 C667 1.491 . S
C673 C672 1.400 . S
C673 C674 1.398 . S
C674 H662 0.950 . S
C674 C673 1.398 . S
C674 C675 1.391 . S
C675 H663 0.950 . S
C675 C671 1.393 . S
C675 C674 1.391 . S
H676 C684 0.950 . S
H677 C689 0.950 . S
H678 C686 0.950 . S
H679 C688 0.950 . S
H680 C690 0.950 . S
H681 C692 0.950 . S
H682 C694 0.950 . S
H683 C695 0.950 . S
C684 H676 0.950 . S
C684 C685 1.386 . S
C684 C686 1.391 . S
C685 C684 1.386 . S
C685 C689 1.393 . S
C686 H678 0.950 . S
C686 C684 1.391 . S
C686 C687 1.400 . S
C687 C686 1.400 . S
C687 C688 1.398 . S
C687 C693 1.491 . S
C688 H679 0.950 . S
C688 C687 1.398 . S
C688 C689 1.391 . S
C689 H677 0.950 . S
C689 C685 1.393 . S
C689 C688 1.391 . S
C690 H680 0.950 . S
C690 C691 1.386 . S
C690 C692 1.391 . S
C691 C690 1.386 . S
C691 C695 1.393 . S
C692 H681 0.950 . S
C692 C690 1.391 . S
C692 C693 1.400 . S
C693 C687 1.491 . S
C693 C692 1.400 . S
C693 C694 1.398 . S
C694 H682 0.950 . S
C694 C693 1.398 . S
C694 C695 1.391 . S
C695 H683 0.950 . S
C695 C691 1.393 . S
C695 C694 1.391 . S
H696 C704 0.950 1_554 S
H697 C709 0.950 . S
H698 C706 0.950 . S
H699 C708 0.950 . S
H700 C710 0.950 . S
H701 C712 0.950 . S
H702 C714 0.950 . S
H703 C715 0.950 . S
C704 H696 0.950 1_556 S
C704 C705 1.386 . S
C704 C706 1.391 . S
C705 C704 1.386 . S
C705 C709 1.393 . S
C706 H698 0.950 . S
C706 C704 1.391 . S
C706 C707 1.400 . S
C707 C706 1.400 . S
C707 C708 1.398 . S
C707 C713 1.491 . S
C708 H699 0.950 . S
C708 C707 1.398 . S
C708 C709 1.391 . S
C709 H697 0.950 . S
C709 C705 1.393 . S
C709 C708 1.391 . S
C710 H700 0.950 . S
C710 C711 1.386 . S
C710 C712 1.391 . S
C711 C710 1.386 . S
C711 C715 1.393 . S
C712 H701 0.950 . S
C712 C710 1.391 . S
C712 C713 1.400 . S
C713 C707 1.491 . S
C713 C712 1.400 . S
C713 C714 1.398 . S
C714 H702 0.950 . S
C714 C713 1.398 . S
C714 C715 1.391 . S
C715 H703 0.950 . S
C715 C711 1.393 . S
C715 C714 1.391 . S
H716 C724 0.950 . S
H717 C729 0.950 . S
H718 C726 0.950 . S
H719 C728 0.950 . S
H720 C730 0.950 . S
H721 C732 0.950 . S
H722 C734 0.950 . S
H723 C735 0.950 . S
C724 H716 0.950 . S
C724 C725 1.386 . S
C724 C726 1.391 . S
C725 C724 1.386 . S
C725 C729 1.393 . S
C726 H718 0.950 . S
C726 C724 1.391 . S
C726 C727 1.400 . S
C727 C726 1.400 . S
C727 C728 1.398 . S
C727 C733 1.491 . S
C728 H719 0.950 . S
C728 C727 1.398 . S
C728 C729 1.391 . S
C729 H717 0.950 . S
C729 C725 1.393 . S
C729 C728 1.391 . S
C730 H720 0.950 . S
C730 C731 1.386 . S
C730 C732 1.391 . S
C731 C730 1.386 . S
C731 C735 1.393 . S
C732 H721 0.950 . S
C732 C730 1.391 . S
C732 C733 1.400 . S
C733 C727 1.491 . S
C733 C732 1.400 . S
C733 C734 1.398 . S
C734 H722 0.950 . S
C734 C733 1.398 . S
C734 C735 1.391 . S
C735 H723 0.950 . S
C735 C731 1.393 . S
C735 C734 1.391 . S
H736 C744 0.950 . S
H737 C749 0.950 . S
H738 C746 0.950 . S
H739 C748 0.950 . S
H740 C750 0.950 . S
H741 C752 0.950 . S
H742 C754 0.950 . S
H743 C755 0.950 . S
C744 H736 0.950 . S
C744 C745 1.386 . S
C744 C746 1.391 . S
C745 C744 1.386 . S
C745 C749 1.393 . S
C746 H738 0.950 . S
C746 C744 1.391 . S
C746 C747 1.400 . S
C747 C746 1.400 . S
C747 C748 1.398 . S
C747 C753 1.491 . S
C748 H739 0.950 . S
C748 C747 1.398 . S
C748 C749 1.391 . S
C749 H737 0.950 . S
C749 C745 1.393 . S
C749 C748 1.391 . S
C750 H740 0.950 . S
C750 C751 1.386 . S
C750 C752 1.391 . S
C751 C750 1.386 . S
C751 C755 1.393 . S
C752 H741 0.950 . S
C752 C750 1.391 . S
C752 C753 1.400 . S
C753 C747 1.491 . S
C753 C752 1.400 . S
C753 C754 1.398 . S
C754 H742 0.950 . S
C754 C753 1.398 . S
C754 C755 1.391 . S
C755 H743 0.950 . S
C755 C751 1.393 . S
C755 C754 1.391 . S
H756 C764 0.950 . S
H757 C769 0.950 . S
H758 C766 0.950 . S
H759 C768 0.950 . S
H760 C770 0.950 . S
H761 C772 0.950 . S
H762 C774 0.950 . S
H763 C775 0.950 . S
C764 H756 0.950 . S
C764 C765 1.386 . S
C764 C766 1.391 . S
C765 C764 1.386 . S
C765 C769 1.393 . S
C766 H758 0.950 . S
C766 C764 1.391 . S
C766 C767 1.400 . S
C767 C766 1.400 . S
C767 C768 1.398 . S
C767 C773 1.491 . S
C768 H759 0.950 . S
C768 C767 1.398 . S
C768 C769 1.391 . S
C769 H757 0.950 . S
C769 C765 1.393 . S
C769 C768 1.391 . S
C770 H760 0.950 . S
C770 C771 1.386 . S
C770 C772 1.391 . S
C771 C770 1.386 . S
C771 C775 1.393 . S
C772 H761 0.950 . S
C772 C770 1.391 . S
C772 C773 1.400 . S
C773 C767 1.491 . S
C773 C772 1.400 . S
C773 C774 1.398 . S
C774 H762 0.950 . S
C774 C773 1.398 . S
C774 C775 1.391 . S
C775 H763 0.950 . S
C775 C771 1.393 . S
C775 C774 1.391 . S
H776 C784 0.950 . S
H777 C789 0.950 . S
H778 C786 0.950 . S
H779 C788 0.950 . S
H780 C790 0.950 . S
H781 C792 0.950 . S
H782 C794 0.950 . S
H783 C795 0.950 . S
C784 H776 0.950 . S
C784 C785 1.386 . S
C784 C786 1.391 . S
C785 C784 1.386 . S
C785 C789 1.393 . S
C786 H778 0.950 . S
C786 C784 1.391 . S
C786 C787 1.400 . S
C787 C786 1.400 . S
C787 C788 1.398 . S
C787 C793 1.491 . S
C788 H779 0.950 . S
C788 C787 1.398 . S
C788 C789 1.391 . S
C789 H777 0.950 . S
C789 C785 1.393 . S
C789 C788 1.391 . S
C790 H780 0.950 . S
C790 C791 1.386 . S
C790 C792 1.391 . S
C791 C790 1.386 . S
C791 C795 1.393 . S
C792 H781 0.950 . S
C792 C790 1.391 . S
C792 C793 1.400 . S
C793 C787 1.491 . S
C793 C792 1.400 . S
C793 C794 1.398 . S
C794 H782 0.950 . S
C794 C793 1.398 . S
C794 C795 1.391 . S
C795 H783 0.950 . S
C795 C791 1.393 . S
C795 C794 1.391 . S
H796 C804 0.950 . S
H797 C809 0.950 . S
H798 C806 0.950 . S
H799 C808 0.950 . S
H800 C810 0.950 . S
H801 C812 0.950 . S
H802 C814 0.950 . S
H803 C815 0.950 1_545 S
C804 H796 0.950 . S
C804 C805 1.386 . S
C804 C806 1.391 . S
C805 C804 1.386 . S
C805 C809 1.393 . S
C806 H798 0.950 . S
C806 C804 1.391 . S
C806 C807 1.400 . S
C807 C806 1.400 . S
C807 C808 1.398 . S
C807 C813 1.491 . S
C808 H799 0.950 . S
C808 C807 1.398 . S
C808 C809 1.391 . S
C809 H797 0.950 . S
C809 C805 1.393 . S
C809 C808 1.391 . S
C810 H800 0.950 . S
C810 C811 1.386 . S
C810 C812 1.391 . S
C811 C810 1.386 . S
C811 C815 1.393 . S
C812 H801 0.950 . S
C812 C810 1.391 . S
C812 C813 1.400 . S
C813 C807 1.491 . S
C813 C812 1.400 . S
C813 C814 1.398 . S
C814 H802 0.950 . S
C814 C813 1.398 . S
C814 C815 1.391 . S
C815 H803 0.950 1_565 S
C815 C811 1.393 . S
C815 C814 1.391 . S
H816 C824 0.950 . S
H817 C829 0.950 . S
H818 C826 0.950 . S
H819 C828 0.950 . S
H820 C830 0.950 . S
H821 C832 0.950 . S
H822 C834 0.950 . S
H823 C835 0.950 . S
C824 H816 0.950 . S
C824 C825 1.386 . S
C824 C826 1.391 . S
C825 C824 1.386 . S
C825 C829 1.393 . S
C826 H818 0.950 . S
C826 C824 1.391 . S
C826 C827 1.400 . S
C827 C826 1.400 . S
C827 C828 1.398 . S
C827 C833 1.491 . S
C828 H819 0.950 . S
C828 C827 1.398 . S
C828 C829 1.391 . S
C829 H817 0.950 . S
C829 C825 1.393 . S
C829 C828 1.391 . S
C830 H820 0.950 . S
C830 C831 1.386 . S
C830 C832 1.391 . S
C831 C830 1.386 . S
C831 C835 1.393 . S
C832 H821 0.950 . S
C832 C830 1.391 . S
C832 C833 1.400 . S
C833 C827 1.491 . S
C833 C832 1.400 . S
C833 C834 1.398 . S
C834 H822 0.950 . S
C834 C833 1.398 . S
C834 C835 1.391 . S
C835 H823 0.950 . S
C835 C831 1.393 . S
C835 C834 1.391 . S
H836 C844 0.950 . S
H837 C849 0.950 . S
H838 C846 0.950 . S
H839 C848 0.950 . S
H840 C850 0.950 . S
H841 C852 0.950 . S
H842 C854 0.950 . S
H843 C855 0.950 . S
C844 H836 0.950 . S
C844 C845 1.386 . S
C844 C846 1.391 . S
C845 C844 1.386 . S
C845 C849 1.393 . S
C846 H838 0.950 . S
C846 C844 1.391 . S
C846 C847 1.400 . S
C847 C846 1.400 . S
C847 C848 1.398 . S
C847 C853 1.491 . S
C848 H839 0.950 . S
C848 C847 1.398 . S
C848 C849 1.391 . S
C849 H837 0.950 . S
C849 C845 1.393 . S
C849 C848 1.391 . S
C850 H840 0.950 . S
C850 C851 1.386 . S
C850 C852 1.391 . S
C851 C850 1.386 . S
C851 C855 1.393 . S
C852 H841 0.950 . S
C852 C850 1.391 . S
C852 C853 1.400 . S
C853 C847 1.491 . S
C853 C852 1.400 . S
C853 C854 1.398 . S
C854 H842 0.950 . S
C854 C853 1.398 . S
C854 C855 1.391 . S
C855 H843 0.950 . S
C855 C851 1.393 . S
C855 C854 1.391 . S
H856 C864 0.950 . S
H857 C869 0.950 . S
H858 C866 0.950 . S
H859 C868 0.950 . S
H860 C870 0.950 . S
H861 C872 0.950 . S
H862 C874 0.950 . S
H863 C875 0.950 . S
C864 H856 0.950 . S
C864 C865 1.386 . S
C864 C866 1.391 . S
C865 C864 1.386 . S
C865 C869 1.393 . S
C866 H858 0.950 . S
C866 C864 1.391 . S
C866 C867 1.400 . S
C867 C866 1.400 . S
C867 C868 1.398 . S
C867 C873 1.491 . S
C868 H859 0.950 . S
C868 C867 1.398 . S
C868 C869 1.391 . S
C869 H857 0.950 . S
C869 C865 1.393 . S
C869 C868 1.391 . S
C870 H860 0.950 . S
C870 C871 1.386 . S
C870 C872 1.391 . S
C871 C870 1.386 . S
C871 C875 1.393 . S
C872 H861 0.950 . S
C872 C870 1.391 . S
C872 C873 1.400 . S
C873 C867 1.491 . S
C873 C872 1.400 . S
C873 C874 1.398 . S
C874 H862 0.950 . S
C874 C873 1.398 . S
C874 C875 1.391 . S
C875 H863 0.950 . S
C875 C871 1.393 . S
C875 C874 1.391 . S
H876 C884 0.950 . S
H877 C889 0.950 . S
H878 C886 0.950 . S
H879 C888 0.950 . S
H880 C890 0.950 . S
H881 C892 0.950 . S
H882 C894 0.950 . S
H883 C895 0.950 . S
C884 H876 0.950 . S
C884 C885 1.386 . S
C884 C886 1.391 . S
C885 C884 1.386 . S
C885 C889 1.393 . S
C886 H878 0.950 . S
C886 C884 1.391 . S
C886 C887 1.400 . S
C887 C886 1.400 . S
C887 C888 1.398 . S
C887 C893 1.491 . S
C888 H879 0.950 . S
C888 C887 1.398 . S
C888 C889 1.391 . S
C889 H877 0.950 . S
C889 C885 1.393 . S
C889 C888 1.391 . S
C890 H880 0.950 . S
C890 C891 1.386 . S
C890 C892 1.391 . S
C891 C890 1.386 . S
C891 C895 1.393 . S
C892 H881 0.950 . S
C892 C890 1.391 . S
C892 C893 1.400 . S
C893 C887 1.491 . S
C893 C892 1.400 . S
C893 C894 1.398 . S
C894 H882 0.950 . S
C894 C893 1.398 . S
C894 C895 1.391 . S
C895 H883 0.950 . S
C895 C891 1.393 . S
C895 C894 1.391 . S
H896 C904 0.950 . S
H897 C909 0.950 . S
H898 C906 0.950 . S
H899 C908 0.950 . S
H900 C910 0.950 1_655 S
H901 C912 0.950 . S
H902 C914 0.950 . S
H903 C915 0.950 . S
C904 H896 0.950 . S
C904 C905 1.386 . S
C904 C906 1.391 . S
C905 C904 1.386 . S
C905 C909 1.393 . S
C906 H898 0.950 . S
C906 C904 1.391 . S
C906 C907 1.400 . S
C907 C906 1.400 . S
C907 C908 1.398 . S
C907 C913 1.491 . S
C908 H899 0.950 . S
C908 C907 1.398 . S
C908 C909 1.391 . S
C909 H897 0.950 . S
C909 C905 1.393 . S
C909 C908 1.391 . S
C910 H900 0.950 1_455 S
C910 C911 1.386 . S
C910 C912 1.391 . S
C911 C910 1.386 . S
C911 C915 1.393 . S
C912 H901 0.950 . S
C912 C910 1.391 . S
C912 C913 1.400 . S
C913 C907 1.491 . S
C913 C912 1.400 . S
C913 C914 1.398 . S
C914 H902 0.950 . S
C914 C913 1.398 . S
C914 C915 1.391 . S
C915 H903 0.950 . S
C915 C911 1.393 . S
C915 C914 1.391 . S
H916 C924 0.950 . S
H917 C929 0.950 . S
H918 C926 0.950 . S
H919 C928 0.950 . S
H920 C930 0.950 . S
H921 C932 0.950 . S
H922 C934 0.950 . S
H923 C935 0.950 . S
C924 H916 0.950 . S
C924 C925 1.386 . S
C924 C926 1.391 . S
C925 C924 1.386 . S
C925 C929 1.393 . S
C926 H918 0.950 . S
C926 C924 1.391 . S
C926 C927 1.400 . S
C927 C926 1.400 . S
C927 C928 1.398 . S
C927 C933 1.491 . S
C928 H919 0.950 . S
C928 C927 1.398 . S
C928 C929 1.391 . S
C929 H917 0.950 . S
C929 C925 1.393 . S
C929 C928 1.391 . S
C930 H920 0.950 . S
C930 C931 1.386 . S
C930 C932 1.391 . S
C931 C930 1.386 . S
C931 C935 1.393 . S
C932 H921 0.950 . S
C932 C930 1.391 . S
C932 C933 1.400 . S
C933 C927 1.491 . S
C933 C932 1.400 . S
C933 C934 1.398 . S
C934 H922 0.950 . S
C934 C933 1.398 . S
C934 C935 1.391 . S
C935 H923 0.950 . S
C935 C931 1.393 . S
C935 C934 1.391 . S
H936 C944 0.950 . S
H937 C949 0.950 . S
H938 C946 0.950 . S
H939 C948 0.950 . S
H940 C950 0.950 . S
H941 C952 0.950 . S
H942 C954 0.950 . S
H943 C955 0.950 . S
C944 H936 0.950 . S
C944 C945 1.386 . S
C944 C946 1.391 . S
C945 C944 1.386 . S
C945 C949 1.393 . S
C946 H938 0.950 . S
C946 C944 1.391 . S
C946 C947 1.400 . S
C947 C946 1.400 . S
C947 C948 1.398 . S
C947 C953 1.491 . S
C948 H939 0.950 . S
C948 C947 1.398 . S
C948 C949 1.391 . S
C949 H937 0.950 . S
C949 C945 1.393 . S
C949 C948 1.391 . S
C950 H940 0.950 . S
C950 C951 1.386 . S
C950 C952 1.391 . S
C951 C950 1.386 . S
C951 C955 1.393 . S
C952 H941 0.950 . S
C952 C950 1.391 . S
C952 C953 1.400 . S
C953 C947 1.491 . S
C953 C952 1.400 . S
C953 C954 1.398 . S
C954 H942 0.950 . S
C954 C953 1.398 . S
C954 C955 1.391 . S
C955 H943 0.950 . S
C955 C951 1.393 . S
C955 C954 1.391 . S
H956 C964 0.950 . S
H957 C969 0.950 . S
H958 C966 0.950 . S
H959 C968 0.950 . S
H960 C970 0.950 . S
H961 C972 0.950 . S
H962 C974 0.950 . S
H963 C975 0.950 . S
C964 H956 0.950 . S
C964 C965 1.386 . S
C964 C966 1.391 . S
C965 C964 1.386 . S
C965 C969 1.393 . S
C966 H958 0.950 . S
C966 C964 1.391 . S
C966 C967 1.400 . S
C967 C966 1.400 . S
C967 C968 1.398 . S
C967 C973 1.491 . S
C968 H959 0.950 . S
C968 C967 1.398 . S
C968 C969 1.391 . S
C969 H957 0.950 . S
C969 C965 1.393 . S
C969 C968 1.391 . S
C970 H960 0.950 . S
C970 C971 1.386 . S
C970 C972 1.391 . S
C971 C970 1.386 . S
C971 C975 1.393 . S
C972 H961 0.950 . S
C972 C970 1.391 . S
C972 C973 1.400 . S
C973 C967 1.491 . S
C973 C972 1.400 . S
C973 C974 1.398 . S
C974 H962 0.950 . S
C974 C973 1.398 . S
C974 C975 1.391 . S
C975 H963 0.950 . S
C975 C971 1.393 . S
C975 C974 1.391 . S
H976 C984 0.950 . S
H977 C989 0.950 . S
H978 C986 0.950 . S
H979 C988 0.950 . S
H980 C990 0.950 . S
H981 C992 0.950 . S
H982 C994 0.950 . S
H983 C995 0.950 . S
C984 H976 0.950 . S
C984 C985 1.386 . S
C984 C986 1.391 . S
C985 C984 1.386 . S
C985 C989 1.393 . S
C986 H978 0.950 . S
C986 C984 1.391 . S
C986 C987 1.400 . S
C987 C986 1.400 . S
C987 C988 1.398 . S
C987 C993 1.491 . S
C988 H979 0.950 . S
C988 C987 1.398 . S
C988 C989 1.391 . S
C989 H977 0.950 . S
C989 C985 1.393 . S
C989 C988 1.391 . S
C990 H980 0.950 . S
C990 C991 1.386 . S
C990 C992 1.391 . S
C991 C990 1.386 . S
C991 C995 1.393 . S
C992 H981 0.950 . S
C992 C990 1.391 . S
C992 C993 1.400 . S
C993 C987 1.491 . S
C993 C992 1.400 . S
C993 C994 1.398 . S
C994 H982 0.950 . S
C994 C993 1.398 . S
C994 C995 1.391 . S
C995 H983 0.950 . S
C995 C991 1.393 . S
C995 C994 1.391 . S
H996 C1004 0.950 . S
H997 C1009 0.950 . S
H998 C1006 0.950 . S
H999 C1008 0.950 . S
H1000 C1010 0.950 . S
H1001 C1012 0.950 . S
H1002 C1014 0.950 . S
H1003 C1015 0.950 . S
C1004 H996 0.950 . S
C1004 C1005 1.386 . S
C1004 C1006 1.391 . S
C1005 C1004 1.386 . S
C1005 C1009 1.393 . S
C1006 H998 0.950 . S
C1006 C1004 1.391 . S
C1006 C1007 1.400 . S
C1007 C1006 1.400 . S
C1007 C1008 1.398 . S
C1007 C1013 1.491 . S
C1008 H999 0.950 . S
C1008 C1007 1.398 . S
C1008 C1009 1.391 . S
C1009 H997 0.950 . S
C1009 C1005 1.393 . S
C1009 C1008 1.391 . S
C1010 H1000 0.950 . S
C1010 C1011 1.386 . S
C1010 C1012 1.391 . S
C1011 C1010 1.386 . S
C1011 C1015 1.393 . S
C1012 H1001 0.950 . S
C1012 C1010 1.391 . S
C1012 C1013 1.400 . S
C1013 C1007 1.491 . S
C1013 C1012 1.400 . S
C1013 C1014 1.398 . S
C1014 H1002 0.950 . S
C1014 C1013 1.398 . S
C1014 C1015 1.391 . S
C1015 H1003 0.950 . S
C1015 C1011 1.393 . S
C1015 C1014 1.391 . S
H1016 C1024 0.950 . S
H1017 C1029 0.950 . S
H1018 C1026 0.950 . S
H1019 C1028 0.950 . S
H1020 C1030 0.950 . S
H1021 C1032 0.950 . S
H1022 C1034 0.950 . S
H1023 C1035 0.950 . S
C1024 H1016 0.950 . S
C1024 C1025 1.386 . S
C1024 C1026 1.391 . S
C1025 C1024 1.386 . S
C1025 C1029 1.393 . S
C1026 H1018 0.950 . S
C1026 C1024 1.391 . S
C1026 C1027 1.400 . S
C1027 C1026 1.400 . S
C1027 C1028 1.398 . S
C1027 C1033 1.491 . S
C1028 H1019 0.950 . S
C1028 C1027 1.398 . S
C1028 C1029 1.391 . S
C1029 H1017 0.950 . S
C1029 C1025 1.393 . S
C1029 C1028 1.391 . S
C1030 H1020 0.950 . S
C1030 C1031 1.386 . S
C1030 C1032 1.391 . S
C1031 C1030 1.386 . S
C1031 C1035 1.393 . S
C1032 H1021 0.950 . S
C1032 C1030 1.391 . S
C1032 C1033 1.400 . S
C1033 C1027 1.491 . S
C1033 C1032 1.400 . S
C1033 C1034 1.398 . S
C1034 H1022 0.950 . S
C1034 C1033 1.398 . S
C1034 C1035 1.391 . S
C1035 H1023 0.950 . S
C1035 C1031 1.393 . S
C1035 C1034 1.391 . S
H1036 C1044 0.950 . S
H1037 C1049 0.950 . S
H1038 C1046 0.950 . S
H1039 C1048 0.950 . S
H1040 C1050 0.950 . S
H1041 C1052 0.950 . S
H1042 C1054 0.950 . S
H1043 C1055 0.950 . S
C1044 H1036 0.950 . S
C1044 C1045 1.386 . S
C1044 C1046 1.391 . S
C1045 C1044 1.386 . S
C1045 C1049 1.393 . S
C1046 H1038 0.950 . S
C1046 C1044 1.391 . S
C1046 C1047 1.400 . S
C1047 C1046 1.400 . S
C1047 C1048 1.398 . S
C1047 C1053 1.491 . S
C1048 H1039 0.950 . S
C1048 C1047 1.398 . S
C1048 C1049 1.391 . S
C1049 H1037 0.950 . S
C1049 C1045 1.393 . S
C1049 C1048 1.391 . S
C1050 H1040 0.950 . S
C1050 C1051 1.386 . S
C1050 C1052 1.391 . S
C1051 C1050 1.386 . S
C1051 C1055 1.393 . S
C1052 H1041 0.950 . S
C1052 C1050 1.391 . S
C1052 C1053 1.400 . S
C1053 C1047 1.491 . S
C1053 C1052 1.400 . S
C1053 C1054 1.398 . S
C1054 H1042 0.950 . S
C1054 C1053 1.398 . S
C1054 C1055 1.391 . S
C1055 H1043 0.950 . S
C1055 C1051 1.393 . S
C1055 C1054 1.391 . S
H1056 C1064 0.950 . S
H1057 C1069 0.950 . S
H1058 C1066 0.950 . S
H1059 C1068 0.950 . S
H1060 C1070 0.950 . S
H1061 C1072 0.950 . S
H1062 C1074 0.950 . S
H1063 C1075 0.950 . S
C1064 H1056 0.950 . S
C1064 C1065 1.386 . S
C1064 C1066 1.391 . S
C1065 C1064 1.386 . S
C1065 C1069 1.393 . S
C1066 H1058 0.950 . S
C1066 C1064 1.391 . S
C1066 C1067 1.400 . S
C1067 C1066 1.400 . S
C1067 C1068 1.398 . S
C1067 C1073 1.491 . S
C1068 H1059 0.950 . S
C1068 C1067 1.398 . S
C1068 C1069 1.391 . S
C1069 H1057 0.950 . S
C1069 C1065 1.393 . S
C1069 C1068 1.391 . S
C1070 H1060 0.950 . S
C1070 C1071 1.386 . S
C1070 C1072 1.391 . S
C1071 C1070 1.386 . S
C1071 C1075 1.393 . S
C1072 H1061 0.950 . S
C1072 C1070 1.391 . S
C1072 C1073 1.400 . S
C1073 C1067 1.491 . S
C1073 C1072 1.400 . S
C1073 C1074 1.398 . S
C1074 H1062 0.950 . S
C1074 C1073 1.398 . S
C1074 C1075 1.391 . S
C1075 H1063 0.950 . S
C1075 C1071 1.393 . S
C1075 C1074 1.391 . S
H1076 C1084 0.950 . S
H1077 C1089 0.950 . S
H1078 C1086 0.950 . S
H1079 C1088 0.950 . S
H1080 C1090 0.950 . S
H1081 C1092 0.950 . S
H1082 C1094 0.950 . S
H1083 C1095 0.950 . S
C1084 H1076 0.950 . S
C1084 C1085 1.386 . S
C1084 C1086 1.391 . S
C1085 C1084 1.386 . S
C1085 C1089 1.393 . S
C1086 H1078 0.950 . S
C1086 C1084 1.391 . S
C1086 C1087 1.400 . S
C1087 C1086 1.400 . S
C1087 C1088 1.398 . S
C1087 C1093 1.491 . S
C1088 H1079 0.950 . S
C1088 C1087 1.398 . S
C1088 C1089 1.391 . S
C1089 H1077 0.950 . S
C1089 C1085 1.393 . S
C1089 C1088 1.391 . S
C1090 H1080 0.950 . S
C1090 C1091 1.386 . S
C1090 C1092 1.391 . S
C1091 C1090 1.386 . S
C1091 C1095 1.393 . S
C1092 H1081 0.950 . S
C1092 C1090 1.391 . S
C1092 C1093 1.400 . S
C1093 C1087 1.491 . S
C1093 C1092 1.400 . S
C1093 C1094 1.398 . S
C1094 H1082 0.950 . S
C1094 C1093 1.398 . S
C1094 C1095 1.391 . S
C1095 H1083 0.950 . S
C1095 C1091 1.393 . S
C1095 C1094 1.391 . S
H1096 C1104 0.950 . S
H1097 C1109 0.950 . S
H1098 C1106 0.950 . S
H1099 C1108 0.950 . S
H1100 C1110 0.950 . S
H1101 C1112 0.950 . S
H1102 C1114 0.950 . S
H1103 C1115 0.950 . S
C1104 H1096 0.950 . S
C1104 C1105 1.386 . S
C1104 C1106 1.391 . S
C1105 C1104 1.386 . S
C1105 C1109 1.393 . S
C1106 H1098 0.950 . S
C1106 C1104 1.391 . S
C1106 C1107 1.400 . S
C1107 C1106 1.400 . S
C1107 C1108 1.398 . S
C1107 C1113 1.491 . S
C1108 H1099 0.950 . S
C1108 C1107 1.398 . S
C1108 C1109 1.391 . S
C1109 H1097 0.950 . S
C1109 C1105 1.393 . S
C1109 C1108 1.391 . S
C1110 H1100 0.950 . S
C1110 C1111 1.386 . S
C1110 C1112 1.391 . S
C1111 C1110 1.386 . S
C1111 C1115 1.393 . S
C1112 H1101 0.950 . S
C1112 C1110 1.391 . S
C1112 C1113 1.400 . S
C1113 C1107 1.491 . S
C1113 C1112 1.400 . S
C1113 C1114 1.398 . S
C1114 H1102 0.950 . S
C1114 C1113 1.398 . S
C1114 C1115 1.391 . S
C1115 H1103 0.950 . S
C1115 C1111 1.393 . S
C1115 C1114 1.391 . S
H1116 C1124 0.950 . S
H1117 C1129 0.950 . S
H1118 C1126 0.950 . S
H1119 C1128 0.950 . S
H1120 C1130 0.950 . S
H1121 C1132 0.950 . S
H1122 C1134 0.950 . S
H1123 C1135 0.950 . S
C1124 H1116 0.950 . S
C1124 C1125 1.386 . S
C1124 C1126 1.391 . S
C1125 C1124 1.386 . S
C1125 C1129 1.393 . S
C1126 H1118 0.950 . S
C1126 C1124 1.391 . S
C1126 C1127 1.400 . S
C1127 C1126 1.400 . S
C1127 C1128 1.398 . S
C1127 C1133 1.491 . S
C1128 H1119 0.950 . S
C1128 C1127 1.398 . S
C1128 C1129 1.391 . S
C1129 H1117 0.950 . S
C1129 C1125 1.393 . S
C1129 C1128 1.391 . S
C1130 H1120 0.950 . S
C1130 C1131 1.386 . S
C1130 C1132 1.391 . S
C1131 C1130 1.386 . S
C1131 C1135 1.393 . S
C1132 H1121 0.950 . S
C1132 C1130 1.391 . S
C1132 C1133 1.400 . S
C1133 C1127 1.491 . S
C1133 C1132 1.400 . S
C1133 C1134 1.398 . S
C1134 H1122 0.950 . S
C1134 C1133 1.398 . S
C1134 C1135 1.391 . S
C1135 H1123 0.950 . S
C1135 C1131 1.393 . S
C1135 C1134 1.391 . S
H1136 C1144 0.950 . S
H1137 C1149 0.950 . S
H1138 C1146 0.950 . S
H1139 C1148 0.950 . S
H1140 C1150 0.950 . S
H1141 C1152 0.950 . S
H1142 C1154 0.950 . S
H1143 C1155 0.950 . S
C1144 H1136 0.950 . S
C1144 C1145 1.386 . S
C1144 C1146 1.391 . S
C1145 C1144 1.386 . S
C1145 C1149 1.393 . S
C1146 H1138 0.950 . S
C1146 C1144 1.391 . S
C1146 C1147 1.400 . S
C1147 C1146 1.400 . S
C1147 C1148 1.398 . S
C1147 C1153 1.491 . S
C1148 H1139 0.950 . S
C1148 C1147 1.398 . S
C1148 C1149 1.391 . S
C1149 H1137 0.950 . S
C1149 C1145 1.393 . S
C1149 C1148 1.391 . S
C1150 H1140 0.950 . S
C1150 C1151 1.386 . S
C1150 C1152 1.391 . S
C1151 C1150 1.386 . S
C1151 C1155 1.393 . S
C1152 H1141 0.950 . S
C1152 C1150 1.391 . S
C1152 C1153 1.400 . S
C1153 C1147 1.491 . S
C1153 C1152 1.400 . S
C1153 C1154 1.398 . S
C1154 H1142 0.950 . S
C1154 C1153 1.398 . S
C1154 C1155 1.391 . S
C1155 H1143 0.950 . S
C1155 C1151 1.393 . S
C1155 C1154 1.391 . S
H1156 C1164 0.950 . S
H1157 C1169 0.950 . S
H1158 C1166 0.950 . S
H1159 C1168 0.950 . S
H1160 C1170 0.950 . S
H1161 C1172 0.950 . S
H1162 C1174 0.950 . S
H1163 C1175 0.950 . S
C1164 H1156 0.950 . S
C1164 C1165 1.386 . S
C1164 C1166 1.391 . S
C1165 C1164 1.386 . S
C1165 C1169 1.393 . S
C1166 H1158 0.950 . S
C1166 C1164 1.391 . S
C1166 C1167 1.400 . S
C1167 C1166 1.400 . S
C1167 C1168 1.398 . S
C1167 C1173 1.491 . S
C1168 H1159 0.950 . S
C1168 C1167 1.398 . S
C1168 C1169 1.391 . S
C1169 H1157 0.950 . S
C1169 C1165 1.393 . S
C1169 C1168 1.391 . S
C1170 H1160 0.950 . S
C1170 C1171 1.386 . S
C1170 C1172 1.391 . S
C1171 C1170 1.386 . S
C1171 C1175 1.393 . S
C1172 H1161 0.950 . S
C1172 C1170 1.391 . S
C1172 C1173 1.400 . S
C1173 C1167 1.491 . S
C1173 C1172 1.400 . S
C1173 C1174 1.398 . S
C1174 H1162 0.950 . S
C1174 C1173 1.398 . S
C1174 C1175 1.391 . S
C1175 H1163 0.950 . S
C1175 C1171 1.393 . S
C1175 C1174 1.391 . S
H1176 C1184 0.950 . S
H1177 C1189 0.950 . S
H1178 C1186 0.950 . S
H1179 C1188 0.950 . S
H1180 C1190 0.950 . S
H1181 C1192 0.950 . S
H1182 C1194 0.950 . S
H1183 C1195 0.950 . S
C1184 H1176 0.950 . S
C1184 C1185 1.386 . S
C1184 C1186 1.391 . S
C1185 C1184 1.386 . S
C1185 C1189 1.393 . S
C1186 H1178 0.950 . S
C1186 C1184 1.391 . S
C1186 C1187 1.400 . S
C1187 C1186 1.400 . S
C1187 C1188 1.398 . S
C1187 C1193 1.491 . S
C1188 H1179 0.950 . S
C1188 C1187 1.398 . S
C1188 C1189 1.391 . S
C1189 H1177 0.950 . S
C1189 C1185 1.393 . S
C1189 C1188 1.391 . S
C1190 H1180 0.950 . S
C1190 C1191 1.386 . S
C1190 C1192 1.391 . S
C1191 C1190 1.386 . S
C1191 C1195 1.393 . S
C1192 H1181 0.950 . S
C1192 C1190 1.391 . S
C1192 C1193 1.400 . S
C1193 C1187 1.491 . S
C1193 C1192 1.400 . S
C1193 C1194 1.398 . S
C1194 H1182 0.950 . S
C1194 C1193 1.398 . S
C1194 C1195 1.391 . S
C1195 H1183 0.950 . S
C1195 C1191 1.393 . S
C1195 C1194 1.391 . S
H1196 C1204 0.950 . S
H1197 C1209 0.950 . S
H1198 C1206 0.950 . S
H1199 C1208 0.950 . S
H1200 C1210 0.950 . S
H1201 C1212 0.950 . S
H1202 C1214 0.950 . S
H1203 C1215 0.950 . S
C1204 H1196 0.950 . S
C1204 C1205 1.386 . S
C1204 C1206 1.391 . S
C1205 C1204 1.386 . S
C1205 C1209 1.393 . S
C1206 H1198 0.950 . S
C1206 C1204 1.391 . S
C1206 C1207 1.400 . S
C1207 C1206 1.400 . S
C1207 C1208 1.398 . S
C1207 C1213 1.491 . S
C1208 H1199 0.950 . S
C1208 C1207 1.398 . S
C1208 C1209 1.391 . S
C1209 H1197 0.950 . S
C1209 C1205 1.393 . S
C1209 C1208 1.391 . S
C1210 H1200 0.950 . S
C1210 C1211 1.386 . S
C1210 C1212 1.391 . S
C1211 C1210 1.386 . S
C1211 C1215 1.393 . S
C1212 H1201 0.950 . S
C1212 C1210 1.391 . S
C1212 C1213 1.400 . S
C1213 C1207 1.491 . S
C1213 C1212 1.400 . S
C1213 C1214 1.398 . S
C1214 H1202 0.950 . S
C1214 C1213 1.398 . S
C1214 C1215 1.391 . S
C1215 H1203 0.950 . S
C1215 C1211 1.393 . S
C1215 C1214 1.391 . S
H1216 C1224 0.950 . S
H1217 C1229 0.950 . S
H1218 C1226 0.950 . S
H1219 C1228 0.950 . S
H1220 C1230 0.950 . S
H1221 C1232 0.950 . S
H1222 C1234 0.950 . S
H1223 C1235 0.950 . S
C1224 H1216 0.950 . S
C1224 C1225 1.386 . S
C1224 C1226 1.391 . S
C1225 C1224 1.386 . S
C1225 C1229 1.393 . S
C1226 H1218 0.950 . S
C1226 C1224 1.391 . S
C1226 C1227 1.400 . S
C1227 C1226 1.400 . S
C1227 C1228 1.398 . S
C1227 C1233 1.491 . S
C1228 H1219 0.950 . S
C1228 C1227 1.398 . S
C1228 C1229 1.391 . S
C1229 H1217 0.950 . S
C1229 C1225 1.393 . S
C1229 C1228 1.391 . S
C1230 H1220 0.950 . S
C1230 C1231 1.386 . S
C1230 C1232 1.391 . S
C1231 C1230 1.386 . S
C1231 C1235 1.393 . S
C1232 H1221 0.950 . S
C1232 C1230 1.391 . S
C1232 C1233 1.400 . S
C1233 C1227 1.491 . S
C1233 C1232 1.400 . S
C1233 C1234 1.398 . S
C1234 H1222 0.950 . S
C1234 C1233 1.398 . S
C1234 C1235 1.391 . S
C1235 H1223 0.950 . S
C1235 C1231 1.393 . S
C1235 C1234 1.391 . S
H1236 C1244 0.950 . S
H1237 C1249 0.950 . S
H1238 C1246 0.950 . S
H1239 C1248 0.950 . S
H1240 C1250 0.950 . S
H1241 C1252 0.950 . S
H1242 C1254 0.950 . S
H1243 C1255 0.950 . S
C1244 H1236 0.950 . S
C1244 C1245 1.386 . S
C1244 C1246 1.391 . S
C1245 C1244 1.386 . S
C1245 C1249 1.393 . S
C1246 H1238 0.950 . S
C1246 C1244 1.391 . S
C1246 C1247 1.400 . S
C1247 C1246 1.400 . S
C1247 C1248 1.398 . S
C1247 C1253 1.491 . S
C1248 H1239 0.950 . S
C1248 C1247 1.398 . S
C1248 C1249 1.391 . S
C1249 H1237 0.950 . S
C1249 C1245 1.393 . S
C1249 C1248 1.391 . S
C1250 H1240 0.950 . S
C1250 C1251 1.386 . S
C1250 C1252 1.391 . S
C1251 C1250 1.386 . S
C1251 C1255 1.393 . S
C1252 H1241 0.950 . S
C1252 C1250 1.391 . S
C1252 C1253 1.400 . S
C1253 C1247 1.491 . S
C1253 C1252 1.400 . S
C1253 C1254 1.398 . S
C1254 H1242 0.950 . S
C1254 C1253 1.398 . S
C1254 C1255 1.391 . S
C1255 H1243 0.950 . S
C1255 C1251 1.393 . S
C1255 C1254 1.391 . S
H1256 C1264 0.950 . S
H1257 C1269 0.950 . S
H1258 C1266 0.950 . S
H1259 C1268 0.950 . S
H1260 C1270 0.950 . S
H1261 C1272 0.950 . S
H1262 C1274 0.950 . S
H1263 C1275 0.950 . S
C1264 H1256 0.950 . S
C1264 C1265 1.386 . S
C1264 C1266 1.391 . S
C1265 C1264 1.386 . S
C1265 C1269 1.393 . S
C1266 H1258 0.950 . S
C1266 C1264 1.391 . S
C1266 C1267 1.400 . S
C1267 C1266 1.400 . S
C1267 C1268 1.398 . S
C1267 C1273 1.491 . S
C1268 H1259 0.950 . S
C1268 C1267 1.398 . S
C1268 C1269 1.391 . S
C1269 H1257 0.950 . S
C1269 C1265 1.393 . S
C1269 C1268 1.391 . S
C1270 H1260 0.950 . S
C1270 C1271 1.386 . S
C1270 C1272 1.391 . S
C1271 C1270 1.386 . S
C1271 C1275 1.393 . S
C1272 H1261 0.950 . S
C1272 C1270 1.391 . S
C1272 C1273 1.400 . S
C1273 C1267 1.491 . S
C1273 C1272 1.400 . S
C1273 C1274 1.398 . S
C1274 H1262 0.950 . S
C1274 C1273 1.398 . S
C1274 C1275 1.391 . S
C1275 H1263 0.950 . S
C1275 C1271 1.393 . S
C1275 C1274 1.391 . S
H1276 C1284 0.950 . S
H1277 C1289 0.950 . S
H1278 C1286 0.950 . S
H1279 C1288 0.950 . S
H1280 C1290 0.950 . S
H1281 C1292 0.950 . S
H1282 C1294 0.950 . S
H1283 C1295 0.950 . S
C1284 H1276 0.950 . S
C1284 C1285 1.386 . S
C1284 C1286 1.391 . S
C1285 C1284 1.386 . S
C1285 C1289 1.393 . S
C1286 H1278 0.950 . S
C1286 C1284 1.391 . S
C1286 C1287 1.400 . S
C1287 C1286 1.400 . S
C1287 C1288 1.398 . S
C1287 C1293 1.491 . S
C1288 H1279 0.950 . S
C1288 C1287 1.398 . S
C1288 C1289 1.391 . S
C1289 H1277 0.950 . S
C1289 C1285 1.393 . S
C1289 C1288 1.391 . S
C1290 H1280 0.950 . S
C1290 C1291 1.386 . S
C1290 C1292 1.391 . S
C1291 C1290 1.386 . S
C1291 C1295 1.393 . S
C1292 H1281 0.950 . S
C1292 C1290 1.391 . S
C1292 C1293 1.400 . S
C1293 C1287 1.491 . S
C1293 C1292 1.400 . S
C1293 C1294 1.398 . S
C1294 H1282 0.950 . S
C1294 C1293 1.398 . S
C1294 C1295 1.391 . S
C1295 H1283 0.950 . S
C1295 C1291 1.393 . S
C1295 C1294 1.391 . S
C345 C201 1.495 . S
C351 C11 1.489 . S
C365 C14 1.529 . S
C371 C210 1.531 . S
C385 C257 1.497 . S
C391 C33 1.498 . S
C405 C51 1.588 . S
C411 C191 1.599 . S
C425 C207 1.444 . S
C431 C67 1.443 . S
C445 C79 1.573 . S
C451 C219 1.577 . S
C465 C89 1.447 . S
C471 C263 1.447 . S
C485 C98 1.510 . S
C491 C182 1.509 . S
C505 C137 1.390 . S
C511 C123 1.391 . S
C525 C145 1.548 . S
C531 C131 1.548 . S
C545 C151 1.458 . S
C551 C165 1.456 . S
C565 C159 1.479 . S
C571 C117 1.479 . S
C585 C168 1.532 . S
C591 C42 1.531 . S
C605 C61 1.446 . S
C611 C235 1.446 . S
C625 C247 1.596 . S
C631 C23 1.592 . S
C645 C25 1.474 . S
C651 C303 1.473 . S
C665 C126 1.430 . S
C671 C9 1.423 . S
C685 C331 1.514 . S
C691 C47 1.528 . S
C705 C154 1.423 . S
C711 C28 1.425 . S
C725 C294 1.440 . S
C731 C109 1.444 . S
C745 C135 1.449 . S
C751 C84 1.450 . S
C765 C75 1.492 . S
C771 C322 1.486 . S
C785 C65 1.459 . S
C791 C163 1.458 . S
C805 C215 1.533 . S
C811 C275 1.528 . S
C825 C224 1.437 . S
C831 C221 1.434 . S
C845 C193 1.486 . S
C851 C233 1.477 . S
C865 C266 1.479 . S
C871 C187 1.482 . S
C885 C37 1.430 . S
C891 C280 1.433 . S
C905 C140 1.486 . S
C911 C103 1.492 . S
C925 C0 1.425 . S
C931 C308 1.423 . S
C945 C271 1.495 . S
C951 C39 1.489 . S
C965 C5 1.497 . S
C971 C229 1.497 . S
C985 C277 1.445 . S
C991 C95 1.445 . S
C1005 C177 1.572 . S
C1011 C107 1.577 . S
C1025 C70 1.505 . S
C1031 C238 1.503 . S
C1045 C305 1.394 . S
C1051 C291 1.395 . S
C1065 C327 1.547 . S
C1071 C285 1.548 . S
C1085 C319 1.460 . S
C1091 C333 1.459 . S
C1105 C299 1.479 . S
C1111 C313 1.478 . S
C1125 C121 1.464 . S
C1131 C53 1.471 . S
C1145 C19 1.528 . S
C1151 C149 1.518 . S
C1165 C81 1.441 . S
C1171 C112 1.440 . S
C1185 C289 1.445 . S
C1191 C56 1.453 . S
C1205 C93 1.448 . S
C1211 C317 1.450 . S
C1225 C173 1.532 . S
C1231 C205 1.523 . S
C1245 C252 1.436 . S
C1251 C179 1.432 . S
C1265 C249 1.483 . S
C1271 C261 1.482 . S
C1285 C196 1.476 . S
C1291 C243 1.482 . S
