# Generated by pormake.
# Topology sml, (6)-cn, num edge types: 1
# Building blocks:
#     Node 0, Type 0, BuildingBlock: KUMBUR_clean_sbu_0, # of connection points: 6
#     Node 1, Type 0, BuildingBlock: KUMBUR_clean_sbu_0, # of connection points: 6
#     Node 2, Type 0, BuildingBlock: KUMBUR_clean_sbu_0, # of connection points: 6
#     Node 3, Type 0, BuildingBlock: KUMBUR_clean_sbu_0, # of connection points: 6
#     Node 4, Type 0, BuildingBlock: KUMBUR_clean_sbu_0, # of connection points: 6
#     Node 5, Type 0, BuildingBlock: KUMBUR_clean_sbu_0, # of connection points: 6
#     Edge 6, Type (0, 0), BuildingBlock: ZUJKAS_clean_linker_0, # of connection points: 2
#     Edge 7, Type (0, 0), BuildingBlock: ZUJKAS_clean_linker_0, # of connection points: 2
#     Edge 8, Type (0, 0), BuildingBlock: ZUJKAS_clean_linker_0, # of connection points: 2
#     Edge 9, Type (0, 0), BuildingBlock: ZUJKAS_clean_linker_0, # of connection points: 2
#     Edge 10, Type (0, 0), BuildingBlock: ZUJKAS_clean_linker_0, # of connection points: 2
#     Edge 11, Type (0, 0), BuildingBlock: ZUJKAS_clean_linker_0, # of connection points: 2
#     Edge 12, Type (0, 0), BuildingBlock: ZUJKAS_clean_linker_0, # of connection points: 2
#     Edge 13, Type (0, 0), BuildingBlock: ZUJKAS_clean_linker_0, # of connection points: 2
#     Edge 14, Type (0, 0), BuildingBlock: ZUJKAS_clean_linker_0, # of connection points: 2
#     Edge 15, Type (0, 0), BuildingBlock: ZUJKAS_clean_linker_0, # of connection points: 2
#     Edge 16, Type (0, 0), BuildingBlock: ZUJKAS_clean_linker_0, # of connection points: 2
#     Edge 17, Type (0, 0), BuildingBlock: ZUJKAS_clean_linker_0, # of connection points: 2
#     Edge 18, Type (0, 0), BuildingBlock: ZUJKAS_clean_linker_0, # of connection points: 2
#     Edge 19, Type (0, 0), BuildingBlock: ZUJKAS_clean_linker_0, # of connection points: 2
#     Edge 20, Type (0, 0), BuildingBlock: ZUJKAS_clean_linker_0, # of connection points: 2
#     Edge 21, Type (0, 0), BuildingBlock: ZUJKAS_clean_linker_0, # of connection points: 2
#     Edge 22, Type (0, 0), BuildingBlock: ZUJKAS_clean_linker_0, # of connection points: 2
#     Edge 23, Type (0, 0), BuildingBlock: ZUJKAS_clean_linker_0, # of connection points: 2
# Relax obj value: 0.025
# Max RMSD: 0.145
# Mean RMSD: 0.145
data_MOF--net-sml--node1-KUMBUR_clean_sbu_0--edge1-ZUJKAS_clean_linker_0
_symmetry_space_group_name_H-M    P1
_symmetry_Int_Tables_number       1
_symmetry_cell_setting            triclinic
loop_
_symmetry_equiv_pos_as_xyz
'x, y, z'
_cell_length_a     44.447162
_cell_length_b     44.47141
_cell_length_c     28.581248
_cell_angle_alpha  90.156769
_cell_angle_beta   89.884848
_cell_angle_gamma 120.03098
loop_
_atom_site_label
_atom_site_type_symbol
_atom_site_fract_x
_atom_site_fract_y
_atom_site_fract_z
_atom_type_partial_charge
Tb0 Tb 0.19343 0.4274 0.97521 0.0
C1 C 0.31326 0.41769 0.06347 0.0
C2 C 0.29463 0.35664 0.05695 0.0
C3 C 0.35624 0.39949 0.05524 0.0
C4 C 0.28693 0.38366 0.06132 0.0
C5 C 0.3483 0.42608 0.06184 0.0
C6 C 0.32941 0.36478 0.05269 0.0
C7 C 0.3647 0.4857 0.07808 0.0
N8 N 0.30441 0.44241 0.07025 0.0
C9 C 0.32951 0.47598 0.07959 0.0
C10 C 0.37417 0.46073 0.06846 0.0
Tb11 Tb 0.24622 0.42442 0.07029 0.0
N12 N 0.25379 0.37702 0.06576 0.0
C13 C 0.22713 0.34347 0.06967 0.0
C14 C 0.26723 0.3223 0.05819 0.0
C15 C 0.23339 0.31571 0.06537 0.0
H16 H 0.32238 0.49547 0.08667 0.0
H17 H 0.21204 0.28924 0.06726 0.0
H18 H 0.33585 0.34442 0.0487 0.0
H19 H 0.38447 0.51245 0.08425 0.0
H20 H 0.20074 0.33772 0.07468 0.0
H21 H 0.21661 0.55907 0.97574 0.0
H22 H 0.27199 0.30077 0.05474 0.0
H23 H 0.12093 0.35358 0.95333 0.0
H24 H 0.23295 0.51398 0.97151 0.0
H25 H 0.05786 0.33189 0.95233 0.0
H26 H 0.383 0.40539 0.05332 0.0
H27 H 0.15486 0.54265 0.98394 0.0
H28 H 0.09232 0.49552 0.98922 0.0
H29 H 0.40143 0.46828 0.0675 0.0
H30 H 0.04881 0.4333 0.98327 0.0
N31 N 0.18114 0.47178 0.97976 0.0
C32 C 0.20589 0.50611 0.97563 0.0
C33 C 0.16196 0.52264 0.9832 0.0
C34 C 0.13654 0.48753 0.98501 0.0
C35 C 0.19677 0.53196 0.97806 0.0
C36 C 0.14711 0.46249 0.98262 0.0
H37 H 0.03569 0.37201 0.96865 0.0
N38 N 0.13445 0.40523 0.97208 0.0
C39 C 0.07583 0.35894 0.96007 0.0
C40 C 0.12279 0.42783 0.97872 0.0
C41 C 0.11164 0.37136 0.9606 0.0
C42 C 0.06341 0.38162 0.96949 0.0
C43 C 0.08702 0.41674 0.97787 0.0
O44 O 0.18177 0.40242 0.90948 0.0
O45 O 0.22534 0.40742 1.00143 0.0
O46 O 0.28139 0.45124 1.01151 0.0
O47 O 0.24804 0.46932 0.97002 0.0
O48 O 0.18393 0.37451 0.96227 0.0
O49 O 0.21377 0.45788 0.91469 0.0
O50 O 0.26206 0.45164 0.13425 0.0
O51 O 0.21447 0.44493 0.04455 0.0
O52 O 0.15744 0.40078 0.03256 0.0
O53 O 0.19051 0.38548 0.08041 0.0
O54 O 0.25819 0.47799 0.08114 0.0
O55 O 0.22707 0.3964 0.13292 0.0
C56 C 0.21053 0.37742 0.98395 0.0
C57 C 0.18033 0.43556 0.84607 0.0
C58 C 0.17342 0.43648 0.76119 0.0
C59 C 0.19046 0.43261 0.80038 0.0
C60 C 0.14617 0.44344 0.7687 0.0
C61 C 0.15317 0.44256 0.85255 0.0
C62 C 0.1362 0.44644 0.81404 0.0
C63 C 0.27798 0.47068 0.97916 0.0
C64 C 0.19845 0.43143 0.88646 0.0
C65 C 0.07618 0.44128 0.98338 0.0
C66 C 0.10095 0.47669 0.9868 0.0
C67 C 0.2313 0.47543 0.06064 0.0
C68 C 0.26332 0.4195 0.19911 0.0
C69 C 0.25401 0.42303 0.24503 0.0
C70 C 0.27143 0.41923 0.2838 0.0
C71 C 0.29828 0.4118 0.27565 0.0
C72 C 0.29006 0.41197 0.19196 0.0
C73 C 0.30745 0.40821 0.23007 0.0
C74 C 0.16068 0.38316 0.06754 0.0
C75 C 0.24479 0.42365 0.15923 0.0
H76 H 0.21131 0.42695 0.79544 0.0
H77 H 0.13287 0.44711 0.73949 0.0
H78 H 0.14518 0.44518 0.88724 0.0
H79 H 0.11532 0.45196 0.81935 0.0
H80 H 0.23347 0.42908 0.25045 0.0
H81 H 0.31188 0.40819 0.30454 0.0
H82 H 0.29742 0.40888 0.15707 0.0
H83 H 0.32802 0.4023 0.22427 0.0
Tb84 Tb 0.77055 0.18882 0.30053 0.0
C85 C 0.89456 0.29584 0.38427 0.0
C86 C 0.93221 0.27118 0.38816 0.0
C87 C 0.95657 0.332 0.36858 0.0
C88 C 0.89876 0.26752 0.3914 0.0
C89 C 0.9237 0.32871 0.37426 0.0
C90 C 0.96084 0.30329 0.37565 0.0
C91 C 0.88713 0.35388 0.38337 0.0
N92 N 0.86248 0.29181 0.39052 0.0
C93 C 0.85929 0.32099 0.39388 0.0
C94 C 0.91933 0.35766 0.37235 0.0
Tb95 Tb 0.8175 0.23544 0.4034 0.0
N96 N 0.87041 0.23673 0.40303 0.0
C97 C 0.87489 0.20949 0.41599 0.0
C98 C 0.93612 0.24269 0.39854 0.0
C99 C 0.90741 0.21189 0.41316 0.0
H100 H 0.83514 0.31934 0.40439 0.0
H101 H 0.91033 0.18996 0.42278 0.0
H102 H 0.98656 0.30643 0.37255 0.0
H103 H 0.8838 0.37637 0.38448 0.0
H104 H 0.85408 0.18557 0.4293 0.0
H105 H 0.67565 0.23067 0.30397 0.0
H106 H 0.96132 0.24449 0.39679 0.0
H107 H 0.76159 0.11203 0.27538 0.0
H108 H 0.73455 0.23851 0.29963 0.0
H109 H 0.71373 0.05101 0.27004 0.0
H110 H 0.97907 0.3569 0.36032 0.0
H111 H 0.6245 0.17158 0.31023 0.0
H112 H 0.6006 0.10688 0.31066 0.0
H113 H 0.94102 0.38326 0.36476 0.0
H114 H 0.61103 0.05772 0.30191 0.0
N115 N 0.71719 0.18453 0.30427 0.0
C116 C 0.71256 0.21264 0.30234 0.0
C117 C 0.65034 0.17489 0.3083 0.0
C118 C 0.65519 0.14613 0.30786 0.0
C119 C 0.67913 0.20827 0.30465 0.0
C120 C 0.68936 0.15193 0.3054 0.0
H121 H 0.65317 0.03663 0.28567 0.0
N122 N 0.72843 0.13152 0.29575 0.0
C123 C 0.70819 0.07136 0.27927 0.0
C124 C 0.6952 0.12437 0.30123 0.0
C125 C 0.73518 0.10587 0.28225 0.0
C126 C 0.67405 0.06334 0.28828 0.0
C127 C 0.66709 0.09009 0.29837 0.0
O128 O 0.78403 0.17524 0.2362 0.0
O129 O 0.82085 0.22067 0.33233 0.0
O130 O 0.80189 0.26762 0.3626 0.0
O131 O 0.79669 0.24474 0.28833 0.0
O132 O 0.81323 0.17772 0.29612 0.0
O133 O 0.76055 0.20723 0.23807 0.0
O134 O 0.81286 0.26613 0.45617 0.0
O135 O 0.76803 0.2125 0.36597 0.0
O136 O 0.75996 0.14941 0.35379 0.0
O137 O 0.80258 0.18026 0.41026 0.0
O138 O 0.76718 0.20364 0.43643 0.0
O139 O 0.82596 0.22679 0.47302 0.0
C140 C 0.83626 0.20515 0.3176 0.0
C141 C 0.75132 0.17365 0.16991 0.0
C142 C 0.74442 0.17077 0.08471 0.0
C143 C 0.76429 0.18688 0.12509 0.0
C144 C 0.7115 0.14094 0.09009 0.0
C145 C 0.71832 0.14413 0.17428 0.0
C146 C 0.69864 0.12781 0.13455 0.0
C147 C 0.80255 0.27062 0.31645 0.0
C148 C 0.77228 0.19165 0.21145 0.0
C149 C 0.633 0.08392 0.30337 0.0
C150 C 0.62706 0.11192 0.30823 0.0
C151 C 0.74799 0.19726 0.4003 0.0
C152 C 0.84427 0.27298 0.52663 0.0
C153 C 0.83429 0.2636 0.57345 0.0
C154 C 0.85653 0.28289 0.61051 0.0
C155 C 0.88898 0.31198 0.59975 0.0
C156 C 0.8768 0.30188 0.5167 0.0
C157 C 0.89894 0.32134 0.55318 0.0
C158 C 0.77739 0.15088 0.39208 0.0
C159 C 0.82062 0.25109 0.48933 0.0
H160 H 0.78954 0.21011 0.12181 0.0
H161 H 0.69576 0.12752 0.05988 0.0
H162 H 0.70764 0.13375 0.20819 0.0
H163 H 0.67324 0.1049 0.13823 0.0
H164 H 0.80943 0.24074 0.58089 0.0
H165 H 0.90658 0.32769 0.6273 0.0
H166 H 0.88519 0.30931 0.48101 0.0
H167 H 0.92399 0.34372 0.54535 0.0
Tb168 Tb 0.57778 0.76228 0.63724 0.0
C169 C 0.58881 0.89297 0.72522 0.0
C170 C 0.64973 0.93544 0.71678 0.0
C171 C 0.60674 0.954 0.71634 0.0
C172 C 0.62282 0.90074 0.72201 0.0
C173 C 0.58031 0.91952 0.72377 0.0
C174 C 0.64144 0.96195 0.71274 0.0
C175 C 0.52094 0.87631 0.74155 0.0
N176 N 0.56423 0.85943 0.73266 0.0
C177 C 0.53077 0.85094 0.74279 0.0
C178 C 0.54573 0.91069 0.73131 0.0
Tb179 Tb 0.58235 0.81939 0.73211 0.0
N180 N 0.6296 0.87436 0.72634 0.0
C181 C 0.66324 0.88141 0.72941 0.0
C182 C 0.68412 0.94249 0.71704 0.0
C183 C 0.6909 0.91541 0.72419 0.0
H184 H 0.5114 0.82437 0.75035 0.0
H185 H 0.71743 0.92064 0.72537 0.0
H186 H 0.6617 0.98874 0.70811 0.0
H187 H 0.49426 0.86931 0.7484 0.0
H188 H 0.66911 0.86088 0.7344 0.0
H189 H 0.44491 0.6558 0.64389 0.0
H190 H 0.70557 0.96878 0.71291 0.0
H191 H 0.65007 0.76116 0.61323 0.0
H192 H 0.4909 0.71654 0.63467 0.0
H193 H 0.67037 0.71866 0.613 0.0
H194 H 0.60075 0.97478 0.71456 0.0
H195 H 0.46007 0.60994 0.65612 0.0
H196 H 0.50644 0.59322 0.65938 0.0
H197 H 0.53809 0.93032 0.73052 0.0
H198 H 0.56816 0.61035 0.6507 0.0
N199 N 0.53249 0.70606 0.64305 0.0
C200 C 0.49827 0.69709 0.63975 0.0
C201 C 0.48054 0.6367 0.65212 0.0
C202 C 0.51549 0.64563 0.65199 0.0
C203 C 0.47189 0.6625 0.64504 0.0
C204 C 0.54105 0.68089 0.64692 0.0
H205 H 0.62954 0.65711 0.63243 0.0
N206 N 0.59849 0.72431 0.63406 0.0
C207 C 0.6436 0.71037 0.62155 0.0
C208 C 0.57543 0.69038 0.64214 0.0
C209 C 0.63197 0.73437 0.6216 0.0
C210 C 0.62052 0.67568 0.63271 0.0
C211 C 0.58574 0.66514 0.64221 0.0
O212 O 0.60266 0.7755 0.57148 0.0
O213 O 0.59853 0.81443 0.6631 0.0
O214 O 0.55522 0.82754 0.67382 0.0
O215 O 0.53646 0.77582 0.63233 0.0
O216 O 0.63094 0.80496 0.62403 0.0
O217 O 0.54717 0.75175 0.57673 0.0
O218 O 0.55591 0.80795 0.79668 0.0
O219 O 0.56132 0.76698 0.70672 0.0
O220 O 0.60526 0.75367 0.69409 0.0
O221 O 0.62132 0.8027 0.74131 0.0
O222 O 0.52879 0.77803 0.74397 0.0
O223 O 0.6113 0.82923 0.7941 0.0
C224 C 0.62847 0.82907 0.64543 0.0
C225 C 0.56964 0.74087 0.50788 0.0
C226 C 0.56947 0.73337 0.4229 0.0
C227 C 0.57296 0.7541 0.46228 0.0
C228 C 0.5625 0.69916 0.43014 0.0
C229 C 0.56262 0.70671 0.51409 0.0
C230 C 0.55911 0.68603 0.47538 0.0
C231 C 0.53557 0.80466 0.64149 0.0
C232 C 0.57362 0.76303 0.54847 0.0
C233 C 0.56076 0.63015 0.64997 0.0
C234 C 0.52563 0.62041 0.65491 0.0
C235 C 0.53105 0.75349 0.72346 0.0
C236 C 0.5884 0.84176 0.86125 0.0
C237 C 0.58497 0.82881 0.90702 0.0
C238 C 0.58861 0.84984 0.94611 0.0
C239 C 0.59582 0.88408 0.93838 0.0
C240 C 0.59569 0.87596 0.85454 0.0
C241 C 0.59933 0.89695 0.89295 0.0
C242 C 0.62327 0.77492 0.72872 0.0
C243 C 0.58427 0.81923 0.82104 0.0
H244 H 0.57866 0.78062 0.45759 0.0
H245 H 0.55912 0.68231 0.40079 0.0
H246 H 0.55975 0.696 0.54875 0.0
H247 H 0.55359 0.65963 0.48045 0.0
H248 H 0.57907 0.80225 0.91209 0.0
H249 H 0.59932 0.90116 0.96749 0.0
H250 H 0.59867 0.88647 0.81974 0.0
H251 H 0.60506 0.92337 0.8875 0.0
Tb252 Tb 0.81227 0.58024 0.97435 0.0
C253 C 0.71045 0.60557 0.05789 0.0
C254 C 0.73768 0.66823 0.05766 0.0
C255 C 0.67613 0.63314 0.0409 0.0
C256 C 0.73983 0.63772 0.06281 0.0
C257 C 0.678 0.60296 0.04843 0.0
C258 C 0.70592 0.66573 0.04559 0.0
C259 C 0.65065 0.54144 0.06162 0.0
N260 N 0.71316 0.57695 0.06575 0.0
C261 C 0.68322 0.54541 0.07143 0.0
C262 C 0.6481 0.57024 0.0489 0.0
Tb263 Tb 0.76897 0.58632 0.0771 0.0
N264 N 0.77022 0.63916 0.07411 0.0
C265 C 0.79863 0.67078 0.0849 0.0
C266 C 0.7673 0.70037 0.0657 0.0
C267 C 0.79773 0.70157 0.08008 0.0
H268 H 0.68402 0.52271 0.08302 0.0
H269 H 0.82056 0.72629 0.08794 0.0
H270 H 0.70392 0.68885 0.04105 0.0
H271 H 0.62749 0.51617 0.0645 0.0
H272 H 0.8224 0.67332 0.09786 0.0
H273 H 0.76468 0.44271 0.98891 0.0
H274 H 0.76669 0.72432 0.06229 0.0
H275 H 0.88969 0.64446 0.9433 0.0
H276 H 0.75952 0.49513 0.98008 0.0
H277 H 0.94962 0.65459 0.93642 0.0
H278 H 0.65154 0.63157 0.03301 0.0
H279 H 0.8228 0.44821 0.99445 0.0
H280 H 0.88789 0.4867 0.99125 0.0
H281 H 0.62277 0.56718 0.04181 0.0
H282 H 0.93853 0.54474 0.97746 0.0
N283 N 0.81405 0.53004 0.98188 0.0
C284 C 0.78497 0.49788 0.98252 0.0
C285 C 0.82066 0.4713 0.99066 0.0
C286 C 0.85036 0.5042 0.98741 0.0
C287 C 0.78782 0.46809 0.98741 0.0
C288 C 0.84608 0.53338 0.98273 0.0
H289 H 0.96177 0.60748 0.95588 0.0
N290 N 0.86871 0.59273 0.9683 0.0
C291 C 0.92878 0.62963 0.948 0.0
C292 C 0.87449 0.56595 0.97584 0.0
C293 C 0.89489 0.62383 0.95188 0.0
C294 C 0.93556 0.603 0.95918 0.0
C295 C 0.9081 0.5704 0.97225 0.0
O296 O 0.82462 0.60491 0.90852 0.0
O297 O 0.78281 0.6017 1.00521 0.0
O298 O 0.73409 0.53806 0.0383 0.0
O299 O 0.75615 0.55272 0.96325 0.0
O300 O 0.82574 0.63457 0.96702 0.0
O301 O 0.79292 0.54952 0.91362 0.0
O302 O 0.73901 0.55204 0.13112 0.0
O303 O 0.78885 0.55645 0.04105 0.0
O304 O 0.85351 0.61058 0.02505 0.0
O305 O 0.8249 0.62511 0.08186 0.0
O306 O 0.80134 0.56865 0.11002 0.0
O307 O 0.77788 0.60513 0.14598 0.0
C308 C 0.79915 0.63207 0.9888 0.0
C309 C 0.82535 0.57182 0.84405 0.0
C310 C 0.82853 0.56831 0.75877 0.0
C311 C 0.81243 0.57204 0.79925 0.0
C312 C 0.85802 0.56464 0.76417 0.0
C313 C 0.85434 0.56749 0.84843 0.0
C314 C 0.87065 0.5641 0.80867 0.0
C315 C 0.73028 0.53464 0.9923 0.0
C316 C 0.80792 0.57589 0.88546 0.0
C317 C 0.91285 0.5418 0.97943 0.0
C318 C 0.884 0.50874 0.98715 0.0
C319 C 0.80485 0.55258 0.07513 0.0
C320 C 0.73243 0.57787 0.20063 0.0
C321 C 0.74007 0.57438 0.24729 0.0
C322 C 0.72185 0.5788 0.28461 0.0
C323 C 0.69519 0.58607 0.27406 0.0
C324 C 0.70601 0.58538 0.19096 0.0
C325 C 0.68732 0.58917 0.22759 0.0
C326 C 0.85353 0.6281 0.06264 0.0
C327 C 0.75412 0.57568 0.1634 0.0
H328 H 0.7895 0.57457 0.79612 0.0
H329 H 0.8716 0.56249 0.73401 0.0
H330 H 0.86437 0.56664 0.88236 0.0
H331 H 0.89323 0.56108 0.81235 0.0
H332 H 0.76046 0.5684 0.25437 0.0
H333 H 0.68092 0.5902 0.30166 0.0
H334 H 0.7001 0.58875 0.1554 0.0
H335 H 0.66702 0.59512 0.21997 0.0
Tb336 Tb 0.24544 0.81908 0.30378 0.0
C337 C 0.11514 0.70089 0.39667 0.0
C338 C 0.07262 0.71952 0.39277 0.0
C339 C 0.05357 0.65791 0.39518 0.0
C340 C 0.10748 0.7272 0.39367 0.0
C341 C 0.08833 0.66591 0.39846 0.0
C342 C 0.04572 0.68471 0.39262 0.0
C343 C 0.13199 0.64986 0.41276 0.0
N344 N 0.1489 0.70984 0.40161 0.0
C345 C 0.15755 0.68499 0.4116 0.0
C346 C 0.09723 0.64021 0.40558 0.0
Tb347 Tb 0.18915 0.76795 0.39933 0.0
N348 N 0.13421 0.76041 0.39497 0.0
C349 C 0.12762 0.78732 0.39756 0.0
C350 C 0.06588 0.74704 0.39383 0.0
C351 C 0.09351 0.78108 0.39638 0.0
H352 H 0.18435 0.69222 0.4173 0.0
H353 H 0.08857 0.80255 0.39777 0.0
H354 H 0.01877 0.67826 0.39169 0.0
H355 H 0.1391 0.63027 0.41942 0.0
H356 H 0.14848 0.81385 0.39985 0.0
H357 H 0.3534 0.79507 0.30604 0.0
H358 H 0.03948 0.74228 0.39375 0.0
H359 H 0.24386 0.89208 0.28715 0.0
H360 H 0.29208 0.7791 0.29999 0.0
H361 H 0.28563 0.95502 0.28612 0.0
H362 H 0.03257 0.63119 0.3962 0.0
H363 H 0.39891 0.85665 0.3155 0.0
H364 H 0.4147 0.91945 0.31802 0.0
H365 H 0.07743 0.61302 0.40708 0.0
H366 H 0.3963 0.96315 0.31182 0.0
N367 N 0.302 0.83102 0.30757 0.0
C368 C 0.31139 0.80612 0.30399 0.0
C369 C 0.3719 0.8498 0.31297 0.0
C370 C 0.36239 0.87539 0.3134 0.0
C371 C 0.3463 0.81505 0.30747 0.0
C372 C 0.32684 0.86501 0.3103 0.0
H373 H 0.34822 0.97666 0.299 0.0
N374 N 0.28226 0.87803 0.30147 0.0
C375 C 0.29469 0.93685 0.29213 0.0
C376 C 0.31663 0.88947 0.30674 0.0
C377 C 0.27109 0.90111 0.29262 0.0
C378 C 0.33 0.94898 0.29951 0.0
C379 C 0.34145 0.92518 0.30633 0.0
O380 O 0.23315 0.83162 0.23819 0.0
O381 O 0.19324 0.78762 0.32977 0.0
O382 O 0.18088 0.73163 0.34184 0.0
O383 O 0.23207 0.76424 0.299 0.0
O384 O 0.20242 0.82918 0.29084 0.0
O385 O 0.2555 0.79854 0.24326 0.0
O386 O 0.20083 0.75379 0.46422 0.0
O387 O 0.24128 0.79816 0.37291 0.0
O388 O 0.25728 0.85429 0.36294 0.0
O389 O 0.20613 0.82414 0.40615 0.0
O390 O 0.2303 0.7555 0.41177 0.0
O391 O 0.18092 0.78895 0.46082 0.0
C392 C 0.17836 0.80259 0.31213 0.0
C393 C 0.26783 0.83254 0.17498 0.0
C394 C 0.276 0.84001 0.09023 0.0
C395 C 0.25477 0.82308 0.12925 0.0
C396 C 0.31051 0.86654 0.0979 0.0
C397 C 0.3023 0.85899 0.18166 0.0
C398 C 0.32347 0.8759 0.1433 0.0
C399 C 0.20368 0.73442 0.30952 0.0
C400 C 0.24514 0.81455 0.21514 0.0
C401 C 0.37681 0.93582 0.3116 0.0
C402 C 0.38728 0.91094 0.31519 0.0
C403 C 0.25469 0.78144 0.38984 0.0
C404 C 0.16761 0.75417 0.52845 0.0
C405 C 0.18094 0.7633 0.5741 0.0
C406 C 0.15969 0.74672 0.61323 0.0
C407 C 0.12488 0.72085 0.60576 0.0
C408 C 0.13282 0.72844 0.52198 0.0
C409 C 0.11163 0.71185 0.56045 0.0
C410 C 0.23588 0.85291 0.39622 0.0
C411 C 0.19033 0.77175 0.48815 0.0
H412 H 0.22801 0.80282 0.12417 0.0
H413 H 0.32771 0.87973 0.06878 0.0
H414 H 0.31291 0.86651 0.21637 0.0
H415 H 0.3501 0.89623 0.14878 0.0
H416 H 0.20793 0.78304 0.57905 0.0
H417 H 0.10767 0.70794 0.63499 0.0
H418 H 0.12197 0.72126 0.48736 0.0
H419 H 0.08476 0.69207 0.55512 0.0
Tb420 Tb 0.43305 0.24073 0.64596 0.0
C421 C 0.41832 0.10876 0.73663 0.0
C422 C 0.35673 0.06745 0.73449 0.0
C423 C 0.39813 0.04687 0.73514 0.0
C424 C 0.38457 0.10199 0.73488 0.0
C425 C 0.42561 0.08134 0.73762 0.0
C426 C 0.36371 0.03993 0.73389 0.0
C427 C 0.48611 0.12394 0.74924 0.0
N428 N 0.4439 0.14228 0.74079 0.0
C429 C 0.47742 0.15013 0.749 0.0
C430 C 0.46013 0.08939 0.74301 0.0
Tb431 Tb 0.42747 0.18361 0.74014 0.0
N432 N 0.37902 0.1293 0.73644 0.0
C433 C 0.34583 0.12362 0.73956 0.0
C434 C 0.32279 0.06163 0.73629 0.0
C435 C 0.31734 0.08986 0.73892 0.0
H436 H 0.49766 0.17677 0.75403 0.0
H437 H 0.29119 0.08564 0.74077 0.0
H438 H 0.34269 0.01321 0.73342 0.0
H439 H 0.51279 0.13041 0.75452 0.0
H440 H 0.34085 0.14492 0.74189 0.0
H441 H 0.56543 0.34791 0.65207 0.0
H442 H 0.30067 0.0355 0.7366 0.0
H443 H 0.35869 0.23977 0.62937 0.0
H444 H 0.51976 0.28679 0.64459 0.0
H445 H 0.33798 0.28184 0.62843 0.0
H446 H 0.40315 0.02542 0.73564 0.0
H447 H 0.5497 0.39369 0.66093 0.0
H448 H 0.503 0.40993 0.66235 0.0
H449 H 0.46684 0.06909 0.74383 0.0
H450 H 0.44103 0.39202 0.65513 0.0
N451 N 0.47793 0.29708 0.65108 0.0
C452 C 0.51222 0.30622 0.64848 0.0
C453 C 0.52941 0.36676 0.6579 0.0
C454 C 0.49436 0.35753 0.65743 0.0
C455 C 0.53837 0.34101 0.65273 0.0
C456 C 0.46901 0.32207 0.65366 0.0
H457 H 0.3793 0.34431 0.64166 0.0
N458 N 0.41128 0.27784 0.64392 0.0
C459 C 0.36518 0.29071 0.63457 0.0
C460 C 0.43441 0.31213 0.64951 0.0
C461 C 0.37706 0.26692 0.63503 0.0
C462 C 0.38856 0.32594 0.64213 0.0
C463 C 0.42377 0.33713 0.64918 0.0
O464 O 0.40858 0.22896 0.58002 0.0
O465 O 0.41155 0.1883 0.67115 0.0
O466 O 0.45419 0.17489 0.68113 0.0
O467 O 0.47409 0.22697 0.64047 0.0
O468 O 0.37961 0.19818 0.63249 0.0
O469 O 0.464 0.25128 0.58572 0.0
O470 O 0.45413 0.19419 0.80439 0.0
O471 O 0.45004 0.2361 0.71494 0.0
O472 O 0.41015 0.25276 0.7054 0.0
O473 O 0.38914 0.20165 0.74854 0.0
O474 O 0.48159 0.22368 0.75159 0.0
O475 O 0.39941 0.17654 0.80246 0.0
C476 C 0.38166 0.1738 0.65351 0.0
C477 C 0.44268 0.26363 0.51707 0.0
C478 C 0.44359 0.2717 0.43223 0.0
C479 C 0.43907 0.25049 0.4713 0.0
C480 C 0.45187 0.30629 0.43995 0.0
C481 C 0.45098 0.29816 0.52375 0.0
C482 C 0.45551 0.31933 0.48536 0.0
C483 C 0.47442 0.19785 0.64917 0.0
C484 C 0.43777 0.24096 0.55728 0.0
C485 C 0.44867 0.37239 0.6549 0.0
C486 C 0.48394 0.38258 0.65907 0.0
C487 C 0.48036 0.24876 0.73128 0.0
C488 C 0.42071 0.1624 0.86956 0.0
C489 C 0.42478 0.17588 0.91519 0.0
C490 C 0.41977 0.15471 0.95448 0.0
C491 C 0.41053 0.11982 0.94714 0.0
C492 C 0.41142 0.12756 0.86326 0.0
C493 C 0.4064 0.10643 0.90187 0.0
C494 C 0.39038 0.23154 0.73891 0.0
C495 C 0.42625 0.18505 0.82909 0.0
H496 H 0.43237 0.22368 0.46622 0.0
H497 H 0.45608 0.32351 0.41084 0.0
H498 H 0.45409 0.30882 0.5585 0.0
H499 H 0.46203 0.34602 0.49082 0.0
H500 H 0.43222 0.20292 0.91999 0.0
H501 H 0.40593 0.10265 0.97645 0.0
H502 H 0.40795 0.11663 0.82865 0.0
H503 H 0.39913 0.07951 0.8967 0.0
H504 H 0.39178 0.29367 0.73578 0.0
H505 H 0.35851 0.31269 0.7823 0.0
H506 H 0.30991 0.21527 0.85624 0.0
H507 H 0.34277 0.19538 0.80866 0.0
H508 H 0.28175 0.27633 0.79094 0.0
H509 H 0.35181 0.2953 0.95951 0.0
H510 H 0.37085 0.29463 0.90387 0.0
H511 H 0.3372 0.25495 0.92862 0.0
C512 C 0.37373 0.2759 0.76134 0.0
C513 C 0.36968 0.24267 0.76775 0.0
C514 C 0.35486 0.28702 0.78824 0.0
C515 C 0.33185 0.26551 0.82287 0.0
C516 C 0.32776 0.2324 0.82988 0.0
H517 H 0.18105 0.309 0.96242 0.0
H518 H 0.20883 0.2788 0.92622 0.0
C519 C 0.34649 0.22104 0.80253 0.0
C520 C 0.31188 0.27795 0.85069 0.0
H521 H 0.30711 0.3092 0.95833 0.0
C522 C 0.28697 0.28312 0.82767 0.0
C523 C 0.31911 0.28722 0.89844 0.0
C524 C 0.34631 0.28302 0.92431 0.0
C525 C 0.26928 0.29756 0.85101 0.0
C526 C 0.2766 0.307 0.89869 0.0
C527 C 0.30135 0.30164 0.92188 0.0
C528 C 0.26013 0.32428 0.92399 0.0
C529 C 0.24369 0.30374 0.82414 0.0
C530 C 0.27981 0.3597 0.93517 0.0
C531 C 0.26396 0.37695 0.95548 0.0
C532 C 0.22829 0.35892 0.96621 0.0
C533 C 0.20869 0.32338 0.95528 0.0
C534 C 0.2245 0.30615 0.93461 0.0
H535 H 0.24481 0.29986 0.7859 0.0
H536 H 0.21696 0.28541 0.83653 0.0
H537 H 0.24874 0.33054 0.83038 0.0
H538 H 0.30726 0.37426 0.92686 0.0
H539 H 0.27961 0.4045 0.96177 0.0
H540 H 0.09812 0.33026 0.03837 0.0
H541 H 0.04457 0.29929 0.08412 0.0
H542 H 0.0994 0.35716 0.2071 0.0
H543 H 0.15327 0.38759 0.16122 0.0
H544 H 0.05555 0.29186 0.22963 0.0
H545 H 0.98499 0.33912 0.12087 0.0
H546 H 1.00016 0.31542 0.0869 0.0
H547 H 0.03099 0.35561 0.11463 0.0
C548 C 0.09861 0.33645 0.07505 0.0
C549 C 0.12951 0.36169 0.09613 0.0
C550 C 0.06801 0.3188 0.10123 0.0
C551 C 0.06756 0.32661 0.14884 0.0
C552 C 0.09892 0.35086 0.17037 0.0
H553 H 0.87302 0.27264 0.28913 0.0
H554 H 0.93053 0.30258 0.25317 0.0
C555 C 0.12968 0.36816 0.14425 0.0
C556 C 0.03441 0.30977 0.17593 0.0
H557 H 0.95085 0.29386 0.17465 0.0
C558 C 0.0327 0.29248 0.21778 0.0
C559 C 0.0047 0.31111 0.1611 0.0
C560 C 0.00535 0.33163 0.11871 0.0
C561 C 1.00207 0.27603 0.24469 0.0
C562 C 0.9718 0.27583 0.2286 0.0
C563 C 0.97376 0.29359 0.18704 0.0
C564 C 0.93793 0.25797 0.25425 0.0
C565 C 1.00296 0.25981 0.29056 0.0
C566 C 0.92257 0.22281 0.26725 0.0
C567 C 0.89004 0.20597 0.2894 0.0
C568 C 0.87204 0.2238 0.29852 0.0
C569 C 0.88687 0.25858 0.28423 0.0
C570 C 0.91963 0.27561 0.2631 0.0
H571 H 0.02966 0.27254 0.30531 0.0
H572 H 0.98545 0.26153 0.3167 0.0
H573 H 0.99454 0.23203 0.28473 0.0
H574 H 0.93528 0.20807 0.2593 0.0
H575 H 0.87865 0.17883 0.2987 0.0
H576 H 0.71895 0.08755 0.37793 0.0
H577 H 0.69777 0.03498 0.42445 0.0
H578 H 0.78601 0.08763 0.51629 0.0
H579 H 0.80762 0.14045 0.46976 0.0
H580 H 0.73058 0.99597 0.44618 0.0
H581 H 0.70134 0.04884 0.60543 0.0
H582 H 0.70886 0.06954 0.54896 0.0
H583 H 0.74482 0.07414 0.58306 0.0
C584 C 0.73442 0.08793 0.40724 0.0
C585 C 0.76557 0.11827 0.41909 0.0
C586 C 0.722 0.05782 0.43419 0.0
C587 C 0.74015 0.05743 0.47405 0.0
C588 C 0.77136 0.08746 0.48596 0.0
H589 H 0.69665 0.86727 0.62237 0.0
H590 H 0.72637 0.92414 0.5835 0.0
C591 C 0.78387 0.11761 0.45892 0.0
C592 C 0.72625 0.02548 0.50293 0.0
H593 H 0.69281 0.99202 0.61068 0.0
C594 C 0.7225 0.99514 0.48222 0.0
C595 C 0.71535 0.02438 0.54979 0.0
C596 C 0.71745 0.05583 0.57319 0.0
C597 C 0.70817 0.96373 0.50706 0.0
C598 C 0.69764 0.96273 0.55406 0.0
C599 C 0.70132 0.99302 0.57482 0.0
C600 C 0.68085 0.92988 0.58112 0.0
C601 C 0.70342 0.93159 0.48241 0.0
C602 C 0.64571 0.91471 0.59358 0.0
C603 C 0.62878 0.88234 0.6156 0.0
C604 C 0.64688 0.8649 0.62668 0.0
C605 C 0.68223 0.88041 0.61483 0.0
C606 C 0.69916 0.91276 0.59255 0.0
H607 H 0.70658 0.93521 0.4439 0.0
H608 H 0.72311 0.92526 0.49539 0.0
H609 H 0.6773 0.90905 0.48987 0.0
H610 H 0.63104 0.92738 0.58485 0.0
H611 H 0.60137 0.87075 0.62269 0.0
H612 H 0.67357 0.76122 0.6994 0.0
H613 H 0.70488 0.73988 0.74651 0.0
H614 H 0.65201 0.74533 0.8703 0.0
H615 H 0.62144 0.7677 0.82307 0.0
H616 H 0.71721 0.76601 0.89035 0.0
H617 H 0.66406 0.64259 0.79185 0.0
H618 H 0.68769 0.67947 0.75454 0.0
H619 H 0.64861 0.67268 0.78314 0.0
C620 C 0.66855 0.75765 0.73656 0.0
C621 C 0.64472 0.76544 0.75753 0.0
C622 C 0.68639 0.74541 0.76353 0.0
C623 C 0.68006 0.7399 0.81184 0.0
C624 C 0.65717 0.74904 0.83308 0.0
H625 H 0.73115 0.60245 0.9634 0.0
H626 H 0.70217 0.63001 0.92536 0.0
C627 C 0.63978 0.76187 0.80616 0.0
C628 C 0.69695 0.7243 0.84004 0.0
H629 H 0.71038 0.65519 0.84436 0.0
C630 C 0.71554 0.74165 0.88048 0.0
C631 C 0.69424 0.69214 0.82781 0.0
C632 C 0.67226 0.67047 0.78728 0.0
C633 C 0.7319 0.72807 0.90853 0.0
C634 C 0.73067 0.69679 0.89496 0.0
C635 C 0.71172 0.67931 0.85477 0.0
C636 C 0.74811 0.68111 0.92201 0.0
C637 C 0.74951 0.74708 0.95296 0.0
C638 C 0.78366 0.70045 0.93334 0.0
C639 C 0.80002 0.68483 0.95666 0.0
C640 C 0.78126 0.64952 0.96863 0.0
C641 C 0.74601 0.63001 0.95616 0.0
C642 C 0.7295 0.64572 0.93388 0.0
H643 H 0.73796 0.76254 0.96638 0.0
H644 H 0.74763 0.72888 0.98071 0.0
H645 H 0.77738 0.76537 0.94566 0.0
H646 H 0.79905 0.72742 0.92312 0.0
H647 H 0.82749 0.70015 0.96458 0.0
H648 H 0.14072 0.83244 0.28564 0.0
H649 H 0.08384 0.80473 0.2467 0.0
H650 H 0.07893 0.70559 0.25499 0.0
H651 H 0.13544 0.73307 0.29332 0.0
H652 H 0.06793 0.76852 0.16116 0.0
H653 H 0.98257 0.68211 0.30246 0.0
H654 H 0.02417 0.72013 0.31372 0.0
H655 H 0.02195 0.68101 0.29247 0.0
C656 C 0.12714 0.80462 0.27988 0.0
C657 C 0.14225 0.78486 0.29374 0.0
C658 C 0.09471 0.78884 0.25756 0.0
C659 C 0.07677 0.75295 0.24854 0.0
C660 C 0.09175 0.73314 0.26259 0.0
H661 H 0.9165 0.63271 0.04528 0.0
H662 H 0.97062 0.66539 0.08852 0.0
C663 C 0.12419 0.74893 0.28472 0.0
C664 C 0.04362 0.73662 0.22162 0.0
H665 H 0.95799 0.67352 0.22699 0.0
C666 C 0.04385 0.7479 0.17566 0.0
C667 C 0.01212 0.70977 0.24049 0.0
C668 C 0.00988 0.69756 0.29012 0.0
C669 C 0.01366 0.7326 0.14791 0.0
C670 C 0.98243 0.7052 0.1665 0.0
C671 C 0.982 0.6944 0.2127 0.0
C672 C 0.94998 0.68704 0.13844 0.0
C673 C 0.01532 0.74596 0.09898 0.0
C674 C 0.92013 0.68793 0.15233 0.0
C675 C 0.88907 0.6695 0.12719 0.0
C676 C 0.88711 0.64962 0.08763 0.0
C677 C 0.91712 0.64865 0.0742 0.0
C678 C 0.94819 0.66723 0.09918 0.0
H679 H 0.03863 0.77197 0.09376 0.0
H680 H 0.01658 0.72773 0.07354 0.0
H681 H 0.99173 0.74761 0.09107 0.0
H682 H 0.92081 0.70272 0.18289 0.0
H683 H 0.8665 0.6704 0.13945 0.0
H684 H 0.31404 0.13743 0.62654 0.0
H685 H 0.28362 0.0804 0.58784 0.0
H686 H 0.37616 0.0725 0.59759 0.0
H687 H 0.40652 0.12923 0.63524 0.0
H688 H 0.3048 0.06349 0.50204 0.0
H689 H 0.29985 0.97689 0.64538 0.0
H690 H 0.30427 0.01894 0.65589 0.0
H691 H 0.34107 0.01571 0.63665 0.0
C692 C 0.32765 0.12318 0.62113 0.0
C693 C 0.36247 0.13758 0.63523 0.0
C694 C 0.31028 0.09066 0.59897 0.0
C695 C 0.32737 0.0718 0.59046 0.0
C696 C 0.36208 0.08604 0.60476 0.0
H697 H 0.29754 0.9143 0.39234 0.0
H698 H 0.3159 0.96669 0.43849 0.0
C699 C 0.37948 0.11863 0.62657 0.0
C700 C 0.30993 0.03857 0.56356 0.0
H701 H 0.28547 0.95245 0.56936 0.0
C702 C 0.30027 0.03916 0.51694 0.0
C703 C 0.3039 0.00674 0.58289 0.0
C704 C 0.31255 0.00422 0.63308 0.0
C705 C 0.28581 0.00908 0.48887 0.0
C706 C 0.28078 0.97756 0.50788 0.0
C707 C 0.2894 0.97667 0.55484 0.0
C708 C 0.26846 0.94578 0.47878 0.0
C709 C 0.27631 0.0112 0.43884 0.0
C710 C 0.23568 0.91634 0.48629 0.0
C711 C 0.22471 0.88624 0.45918 0.0
C712 C 0.24654 0.88492 0.42443 0.0
C713 C 0.27955 0.91444 0.41771 0.0
C714 C 0.29027 0.94451 0.44432 0.0
H715 H 0.2752 0.03523 0.4322 0.0
H716 H 0.29613 0.01115 0.4152 0.0
H717 H 0.25078 0.98831 0.42985 0.0
H718 H 0.21857 0.9167 0.51305 0.0
H719 H 0.19926 0.86399 0.46568 0.0
H720 H 0.23944 0.46246 0.72606 0.0
H721 H 0.25637 0.45997 0.64508 0.0
H722 H 0.14842 0.40167 0.60539 0.0
H723 H 0.13129 0.40385 0.68606 0.0
H724 H 0.24042 0.40283 0.5872 0.0
H725 H 0.18821 0.48261 0.5129 0.0
H726 H 0.19432 0.48032 0.57494 0.0
H727 H 0.15708 0.44583 0.54602 0.0
C728 C 0.21929 0.44884 0.70019 0.0
C729 C 0.18398 0.43364 0.71254 0.0
C730 C 0.22902 0.4476 0.65386 0.0
C731 C 0.20368 0.43127 0.61896 0.0
C732 C 0.16845 0.41523 0.63144 0.0
H733 H 0.20595 0.39415 0.3203 0.0
H734 H 0.19006 0.39745 0.40151 0.0
C735 C 0.1587 0.41648 0.67764 0.0
C736 C 0.21399 0.43068 0.56957 0.0
H737 H 0.20687 0.45483 0.45853 0.0
C738 C 0.23328 0.41437 0.55909 0.0
C739 C 0.20458 0.44569 0.53288 0.0
C740 C 0.18518 0.46489 0.54215 0.0
C741 C 0.24276 0.412 0.51284 0.0
C742 C 0.23326 0.42693 0.47612 0.0
C743 C 0.21406 0.44333 0.48664 0.0
C744 C 0.24305 0.42585 0.4266 0.0
C745 C 0.26211 0.39276 0.50357 0.0
C746 C 0.27812 0.44144 0.41343 0.0
C747 C 0.28728 0.4397 0.36706 0.0
C748 C 0.26156 0.42254 0.33267 0.0
C749 C 0.22643 0.40778 0.34573 0.0
C750 C 0.21729 0.40948 0.39221 0.0
H751 H 0.25926 0.37521 0.53295 0.0
H752 H 0.25279 0.37715 0.47095 0.0
H753 H 0.29019 0.4118 0.49937 0.0
H754 H 0.29848 0.45502 0.43906 0.0
H755 H 0.31459 0.45198 0.35809 0.0
H756 H 0.8105 0.19659 0.04986 0.0
H757 H 0.83138 0.21831 0.97078 0.0
H758 H 0.72895 0.19746 0.93228 0.0
H759 H 0.70817 0.17677 1.01139 0.0
H760 H 0.80792 0.18236 0.88628 0.0
H761 H 0.79033 0.29731 0.88838 0.0
H762 H 0.78976 0.27471 0.94105 0.0
H763 H 0.75193 0.25761 0.90426 0.0
C764 C 0.79255 0.19715 0.02479 0.0
C765 C 0.75764 0.18494 0.03708 0.0
C766 C 0.80447 0.20936 0.97951 0.0
C767 C 0.78186 0.20994 0.94574 0.0
C768 C 0.74706 0.19786 0.95792 0.0
H769 H 0.79251 0.25963 0.65077 0.0
H770 H 0.77529 0.2416 0.73188 0.0
C771 C 0.73511 0.18564 1.00308 0.0
C772 C 0.7942 0.22191 0.89725 0.0
H773 H 0.80171 0.28049 0.81426 0.0
C774 C 0.80686 0.20401 0.87064 0.0
C775 C 0.79267 0.25007 0.87681 0.0
C776 C 0.78075 0.27128 0.90419 0.0
C777 C 0.8172 0.21293 0.82382 0.0
C778 C 0.8154 0.24092 0.80326 0.0
C779 C 0.80299 0.25899 0.82999 0.0
C780 C 0.82605 0.25173 0.75398 0.0
C781 C 0.829 0.19167 0.79634 0.0
C782 C 0.86042 0.26379 0.7395 0.0
C783 C 0.87031 0.27394 0.69307 0.0
C784 C 0.84607 0.27242 0.66013 0.0
C785 C 0.81174 0.26067 0.67495 0.0
C786 C 0.80189 0.25056 0.72141 0.0
H787 H 0.8206 0.16614 0.81308 0.0
H788 H 0.81872 0.18711 0.76006 0.0
H789 H 0.8578 0.20598 0.79444 0.0
H790 H 0.87967 0.26548 0.76417 0.0
H791 H 0.89688 0.28257 0.68287 0.0
H792 H 0.54382 0.77353 0.38755 0.0
H793 H 0.54693 0.79316 0.3067 0.0
H794 H 0.60556 0.74373 0.26755 0.0
H795 H 0.60272 0.72417 0.34809 0.0
H796 H 0.60412 0.83456 0.24964 0.0
H797 H 0.52563 0.70263 0.17365 0.0
H798 H 0.5275 0.7108 0.23577 0.0
H799 H 0.56235 0.70852 0.20708 0.0
C800 C 0.55764 0.76709 0.36184 0.0
C801 C 0.57273 0.74695 0.37432 0.0
C802 C 0.55924 0.77818 0.31556 0.0
C803 C 0.57583 0.76929 0.2808 0.0
C804 C 0.59179 0.75011 0.29343 0.0
H805 H 0.61384 0.80954 0.98212 0.0
H806 H 0.61054 0.7902 0.06314 0.0
C807 C 0.59016 0.73897 0.33958 0.0
C808 C 0.57675 0.7803 0.23141 0.0
H809 H 0.55343 0.74927 0.11987 0.0
C810 C 0.59287 0.81592 0.22129 0.0
C811 C 0.56214 0.75597 0.19437 0.0
C812 C 0.54314 0.71733 0.20315 0.0
C813 C 0.59541 0.82787 0.17513 0.0
C814 C 0.58083 0.80353 0.13808 0.0
C815 C 0.56467 0.76792 0.14821 0.0
C816 C 0.58195 0.81452 0.08862 0.0
C817 C 0.61444 0.86651 0.16635 0.0
C818 C 0.56626 0.8339 0.07568 0.0
C819 C 0.56801 0.84489 0.02942 0.0
C820 C 0.58529 0.83654 0.99487 0.0
C821 C 0.60014 0.81626 1.00768 0.0
C822 C 0.59843 0.80532 0.05405 0.0
H823 H 0.63192 0.8812 0.19589 0.0
H824 H 0.63012 0.87304 0.13377 0.0
H825 H 0.59525 0.87534 0.16236 0.0
H826 H 0.55257 0.8405 0.1014 0.0
H827 H 0.55564 0.85982 0.02066 0.0
H828 H 0.80076 0.60749 0.72644 0.0
H829 H 0.77881 0.60741 0.64807 0.0
H830 H 0.80521 0.5307 0.60376 0.0
H831 H 0.82528 0.52908 0.6825 0.0
H832 H 0.81212 0.6251 0.56664 0.0
H833 H 0.70762 0.48768 0.55587 0.0
H834 H 0.72923 0.50757 0.61009 0.0
H835 H 0.74893 0.49176 0.56905 0.0
C836 C 0.80125 0.59003 0.70036 0.0
C837 C 0.81474 0.56819 0.7111 0.0
C838 C 0.78894 0.59025 0.65537 0.0
C839 C 0.7898 0.56864 0.62008 0.0
C840 C 0.80345 0.54701 0.63056 0.0
H841 H 0.78686 0.60154 0.32141 0.0
H842 H 0.80228 0.59847 0.40233 0.0
C843 C 0.81548 0.54655 0.67558 0.0
C844 C 0.77784 0.56982 0.57183 0.0
H845 H 0.72468 0.51904 0.48369 0.0
C846 C 0.79279 0.60193 0.54866 0.0
C847 C 0.75222 0.53972 0.54849 0.0
C848 C 0.73331 0.50482 0.57234 0.0
C849 C 0.78348 0.60466 0.50257 0.0
C850 C 0.75923 0.57426 0.47836 0.0
C851 C 0.74363 0.54228 0.50192 0.0
C852 C 0.74964 0.57509 0.42868 0.0
C853 C 0.79938 0.64022 0.48064 0.0
C854 C 0.71471 0.56162 0.41594 0.0
C855 C 0.70563 0.56249 0.36929 0.0
C856 C 0.73131 0.5769 0.33423 0.0
C857 C 0.76625 0.5899 0.34713 0.0
C858 C 0.77524 0.58871 0.39368 0.0
H859 H 0.80829 0.66096 0.50765 0.0
H860 H 0.82238 0.64499 0.45965 0.0
H861 H 0.78063 0.64236 0.45724 0.0
H862 H 0.69442 0.55063 0.44221 0.0
H863 H 0.67842 0.55164 0.3607 0.0
H864 H 0.1482 0.70358 0.68767 0.0
H865 H 0.16775 0.71979 0.7685 0.0
H866 H 0.22244 0.82791 0.72955 0.0
H867 H 0.2022 0.812 0.64881 0.0
H868 H 0.23539 0.75707 0.80497 0.0
H869 H 0.16137 0.82502 0.83947 0.0
H870 H 0.15269 0.79676 0.78969 0.0
H871 H 0.18914 0.84025 0.78897 0.0
C872 C 0.16417 0.73085 0.69633 0.0
C873 C 0.17336 0.75651 0.66179 0.0
C874 C 0.17549 0.74004 0.7425 0.0
C875 C 0.19605 0.77507 0.75523 0.0
C876 C 0.20605 0.80074 0.72068 0.0
H877 H 0.28697 0.88285 1.01559 0.0
H878 H 0.26762 0.86635 0.93479 0.0
C879 C 0.19478 0.79157 0.67443 0.0
C880 C 0.20705 0.78463 0.80466 0.0
H881 H 0.20059 0.82891 0.89841 0.0
C882 C 0.2277 0.77268 0.82549 0.0
C883 C 0.19694 0.80495 0.83136 0.0
C884 C 0.17356 0.81728 0.81149 0.0
C885 C 0.23907 0.78106 0.87203 0.0
C886 C 0.22896 0.8014 0.89874 0.0
C887 C 0.20829 0.81332 0.87791 0.0
C888 C 0.24004 0.81107 0.94813 0.0
C889 C 0.26249 0.76876 0.89185 0.0
C890 C 0.23042 0.78549 0.98273 0.0
C891 C 0.24162 0.79483 0.02899 0.0
C892 C 0.26257 0.82997 0.04159 0.0
C893 C 0.27139 0.85553 1.00698 0.0
C894 C 0.26017 0.84617 0.96081 0.0
H895 H 0.27479 0.7612 0.86383 0.0
H896 H 0.28327 0.78923 0.91381 0.0
H897 H 0.24691 0.74567 0.91417 0.0
H898 H 0.21432 0.75827 0.97394 0.0
H899 H 0.23448 0.77448 0.05465 0.0
H900 H 0.46684 0.22951 0.39654 0.0
H901 H 0.46276 0.20935 0.31573 0.0
H902 H 0.4092 0.26382 0.27654 0.0
H903 H 0.41218 0.28316 0.35741 0.0
H904 H 0.37888 0.19717 0.23947 0.0
H905 H 0.52102 0.26909 0.20602 0.0
H906 H 0.5081 0.24102 0.25609 0.0
H907 H 0.50174 0.27789 0.25604 0.0
C908 C 0.45387 0.23691 0.37086 0.0
C909 C 0.44007 0.2582 0.3835 0.0
C910 C 0.45194 0.22571 0.32452 0.0
C911 C 0.43629 0.23565 0.28984 0.0
C912 C 0.42171 0.25611 0.30258 0.0
H913 H 0.3978 0.19804 0.98973 0.0
H914 H 0.40223 0.21851 0.07046 0.0
C915 C 0.42364 0.26733 0.34881 0.0
C916 C 0.43481 0.22456 0.24033 0.0
H917 H 0.48543 0.23007 0.14685 0.0
C918 C 0.40217 0.20446 0.21915 0.0
C919 C 0.46522 0.23414 0.21381 0.0
C920 C 0.50103 0.25698 0.2339 0.0
C921 C 0.3991 0.19315 0.17251 0.0
C922 C 0.42951 0.2027 0.14601 0.0
C923 C 0.46215 0.22279 0.16717 0.0
C924 C 0.42799 0.19156 0.09653 0.0
C925 C 0.36331 0.17036 0.15234 0.0
C926 C 0.44204 0.1706 0.08397 0.0
C927 C 0.43985 0.15914 0.03781 0.0
C928 C 0.42372 0.16856 1.00305 0.0
C929 C 0.41051 0.1904 1.0155 0.0
C930 C 0.41267 0.2018 0.06177 0.0
H931 H 0.34324 0.15847 0.18016 0.0
H932 H 0.35643 0.1863 0.12981 0.0
H933 H 0.36254 0.1493 0.1305 0.0
H934 H 0.45427 0.16264 0.11009 0.0
H935 H 0.45084 0.14287 0.02933 0.0
H936 H 0.1647 0.45609 0.089 0.0
H937 H 0.14589 0.49379 0.1271 0.0
H938 H 0.24844 0.58206 0.10754 0.0
H939 H 0.26722 0.5447 0.07012 0.0
H940 H 0.18505 0.53818 0.21209 0.0
H941 H 0.17977 0.61566 0.06311 0.0
H942 H 0.16719 0.57039 0.0579 0.0
H943 H 0.21233 0.60286 0.06057 0.0
C944 C 0.18283 0.4837 0.09176 0.0
C945 C 0.21725 0.49772 0.07595 0.0
C946 C 0.17216 0.50513 0.11375 0.0
C947 C 0.19571 0.54079 0.11972 0.0
C948 C 0.22972 0.55476 0.10268 0.0
H949 H 0.24831 0.72886 0.24914 0.0
H950 H 0.23934 0.67828 0.20496 0.0
C951 C 0.24043 0.53343 0.08137 0.0
C952 C 0.18655 0.56342 0.14731 0.0
H953 H 0.18425 0.63882 0.13903 0.0
C954 C 0.18396 0.55972 0.19617 0.0
C955 C 0.18533 0.59155 0.12644 0.0
C956 C 0.18611 0.59552 0.07406 0.0
C957 C 0.18251 0.58478 0.22486 0.0
C958 C 0.18332 0.61398 0.20398 0.0
C959 C 0.18386 0.61653 0.15499 0.0
C960 C 0.18779 0.64413 0.23205 0.0
C961 C 0.18244 0.58109 0.27731 0.0
C962 C 0.16164 0.64183 0.26207 0.0
C963 C 0.16664 0.67102 0.28761 0.0
C964 C 0.19793 0.70292 0.28362 0.0
C965 C 0.2239 0.70488 0.25339 0.0
C966 C 0.21883 0.67591 0.22792 0.0
H967 H 0.18595 0.55904 0.288 0.0
H968 H 0.20346 0.60534 0.29323 0.0
H969 H 0.15734 0.57669 0.29164 0.0
H970 H 0.13726 0.61766 0.26528 0.0
H971 H 0.14584 0.66867 0.30985 0.0
H972 H 0.72448 0.24266 0.40298 0.0
H973 H 0.66936 0.23208 0.4371 0.0
H974 H 0.63687 0.12359 0.45295 0.0
H975 H 0.69225 0.13434 0.41897 0.0
H976 H 0.59604 0.18429 0.4182 0.0
H977 H 0.64119 0.15994 0.58816 0.0
H978 H 0.67007 0.17931 0.539 0.0
H979 H 0.63944 0.13355 0.53931 0.0
C980 C 0.7049 0.21634 0.41198 0.0
C981 C 0.7119 0.18905 0.40693 0.0
C982 C 0.67359 0.21034 0.43178 0.0
C983 C 0.64917 0.17712 0.44799 0.0
C984 C 0.65545 0.14946 0.44097 0.0
H985 H 0.47784 0.13765 0.64228 0.0
H986 H 0.51651 0.12728 0.59156 0.0
C987 C 0.68683 0.1555 0.42114 0.0
C988 C 0.61913 0.17261 0.47633 0.0
H989 H 0.58912 0.16129 0.58886 0.0
C990 C 0.59425 0.17882 0.45539 0.0
C991 C 0.61678 0.16537 0.52487 0.0
C992 C 0.64334 0.15936 0.54947 0.0
C993 C 0.5676 0.17887 0.4819 0.0
C994 C 0.56625 0.17332 0.53084 0.0
C995 C 0.59019 0.16555 0.5514 0.0
C996 C 0.54254 0.17893 0.56177 0.0
C997 C 0.54136 0.18532 0.45727 0.0
C998 C 0.54501 0.2116 0.56291 0.0
C999 C 0.52328 0.21764 0.59184 0.0
C1000 C 0.49858 0.19121 0.62083 0.0
C1001 C 0.49663 0.15862 0.6206 0.0
C1002 C 0.51856 0.1526 0.59144 0.0
H1003 H 0.53868 0.17752 0.41986 0.0
H1004 H 0.51544 0.17095 0.47425 0.0
H1005 H 0.55021 0.21348 0.45858 0.0
H1006 H 0.56398 0.23264 0.54145 0.0
H1007 H 0.52592 0.24319 0.59125 0.0
H1008 H 0.28266 0.52021 0.91875 0.0
H1009 H 0.33178 0.55952 0.87062 0.0
H1010 H 0.39255 0.51711 0.92701 0.0
H1011 H 0.34294 0.47695 0.97559 0.0
H1012 H 0.42739 0.59158 0.92416 0.0
H1013 H 0.36827 0.53428 0.75317 0.0
H1014 H 0.33994 0.54234 0.78922 0.0
H1015 H 0.35206 0.51119 0.8077 0.0
C1016 C 0.30631 0.51895 0.92107 0.0
C1017 C 0.30874 0.49532 0.95128 0.0
C1018 C 0.33439 0.54141 0.89318 0.0
C1019 C 0.36559 0.54079 0.89449 0.0
C1020 C 0.36855 0.51777 0.92517 0.0
H1021 H 0.5517 0.70699 0.74958 0.0
H1022 H 0.51537 0.65031 0.78736 0.0
C1023 C 0.34025 0.49502 0.95313 0.0
C1024 C 0.39511 0.56534 0.86473 0.0
H1025 H 0.41429 0.59435 0.75208 0.0
C1026 C 0.42506 0.59175 0.88641 0.0
C1027 C 0.39207 0.56535 0.81545 0.0
C1028 C 0.36149 0.53654 0.78996 0.0
C1029 C 0.45067 0.61974 0.86045 0.0
C1030 C 0.44627 0.62102 0.8116 0.0
C1031 C 0.41753 0.59337 0.78956 0.0
C1032 C 0.46812 0.65302 0.78427 0.0
C1033 C 0.48098 0.64899 0.8858 0.0
C1034 C 0.45337 0.67269 0.76884 0.0
C1035 C 0.4739 0.70473 0.7473 0.0
C1036 C 0.50946 0.71747 0.7399 0.0
C1037 C 0.52418 0.69738 0.75402 0.0
C1038 C 0.50356 0.66522 0.77593 0.0
H1039 H 0.47882 0.64556 0.92438 0.0
H1040 H 0.50546 0.65029 0.87427 0.0
H1041 H 0.48287 0.6742 0.8771 0.0
H1042 H 0.42613 0.6638 0.77505 0.0
H1043 H 0.46212 0.71998 0.73722 0.0
H1044 H 0.78268 0.31664 0.34782 0.0
H1045 H 0.78508 0.36518 0.30343 0.0
H1046 H 0.83781 0.34572 0.19068 0.0
H1047 H 0.83448 0.29695 0.23394 0.0
H1048 H 0.83647 0.42515 0.26668 0.0
H1049 H 0.75585 0.33945 0.12256 0.0
H1050 H 0.76134 0.32266 0.17726 0.0
H1051 H 0.79408 0.33645 0.13237 0.0
C1052 C 0.79507 0.32308 0.31378 0.0
C1053 C 0.80794 0.30282 0.29398 0.0
C1054 C 0.79633 0.35066 0.28837 0.0
C1055 C 0.81067 0.35841 0.24304 0.0
C1056 C 0.82551 0.3395 0.22477 0.0
H1057 H 0.86325 0.55002 0.09344 0.0
H1058 H 0.86611 0.50179 0.13067 0.0
C1059 C 0.82381 0.31179 0.24971 0.0
C1060 C 0.80974 0.38578 0.21429 0.0
H1061 H 0.78405 0.40033 0.10811 0.0
C1062 C 0.8249 0.41971 0.23209 0.0
C1063 C 0.79413 0.37858 0.16938 0.0
C1064 C 0.77511 0.34224 0.14945 0.0
C1065 C 0.82538 0.44671 0.206 0.0
C1066 C 0.81118 0.43981 0.16023 0.0
C1067 C 0.79554 0.40577 0.14275 0.0
C1068 C 0.81037 0.46711 0.13118 0.0
C1069 C 0.84025 0.48212 0.22834 0.0
C1070 C 0.77836 0.46282 0.11615 0.0
C1071 C 0.77687 0.48995 0.09378 0.0
C1072 C 0.80739 0.52161 0.08541 0.0
C1073 C 0.83951 0.52545 0.09854 0.0
C1074 C 0.84106 0.49815 0.12043 0.0
H1075 H 0.84125 0.48072 0.26708 0.0
H1076 H 0.86719 0.49903 0.21558 0.0
H1077 H 0.82468 0.49449 0.21918 0.0
H1078 H 0.75435 0.43913 0.12393 0.0
H1079 H 0.75173 0.4869 0.0853 0.0
H1080 H 0.28725 0.74489 0.39999 0.0
H1081 H 0.34381 0.76388 0.43611 0.0
H1082 H 0.36003 0.86752 0.45083 0.0
H1083 H 0.30306 0.84842 0.41483 0.0
H1084 H 0.41419 0.82086 0.41403 0.0
H1085 H 0.36304 0.83349 0.58693 0.0
H1086 H 0.33442 0.80985 0.53903 0.0
H1087 H 0.35912 0.85638 0.53758 0.0
C1088 C 0.30324 0.77189 0.41007 0.0
C1089 C 0.29111 0.7953 0.40404 0.0
C1090 C 0.33549 0.78272 0.43063 0.0
C1091 C 0.35596 0.81701 0.44642 0.0
C1092 C 0.3445 0.84089 0.43906 0.0
H1093 H 0.53011 0.86374 0.63877 0.0
H1094 H 0.49078 0.8741 0.59 0.0
C1095 C 0.31215 0.83005 0.41813 0.0
C1096 C 0.38772 0.82623 0.4738 0.0
H1097 H 0.41662 0.83527 0.58647 0.0
C1098 C 0.41511 0.82475 0.4516 0.0
C1099 C 0.38888 0.83144 0.52279 0.0
C1100 C 0.35983 0.83279 0.54833 0.0
C1101 C 0.44281 0.82656 0.47744 0.0
C1102 C 0.4427 0.82923 0.52678 0.0
C1103 C 0.41654 0.83308 0.54867 0.0
C1104 C 0.46692 0.82373 0.55638 0.0
C1105 C 0.47142 0.82449 0.45179 0.0
C1106 C 0.4659 0.79173 0.55448 0.0
C1107 C 0.48788 0.78558 0.58253 0.0
C1108 C 0.51139 0.81126 0.61344 0.0
C1109 C 0.5121 0.84325 0.61578 0.0
C1110 C 0.48984 0.84933 0.5877 0.0
H1111 H 0.47394 0.83385 0.4152 0.0
H1112 H 0.49679 0.84 0.46979 0.0
H1113 H 0.46519 0.79702 0.45049 0.0
H1114 H 0.44783 0.7713 0.53141 0.0
H1115 H 0.48634 0.76056 0.57979 0.0
H1116 H 0.70011 0.54487 0.91712 0.0
H1117 H 0.65044 0.50145 0.87262 0.0
H1118 H 0.63731 0.42289 0.97211 0.0
H1119 H 0.68624 0.46707 1.01813 0.0
H1120 H 0.64886 0.45067 0.82825 0.0
H1121 H 0.53799 0.39435 0.95114 0.0
H1122 H 0.57791 0.43399 0.96393 0.0
H1123 H 0.57436 0.3924 0.97455 0.0
C1124 C 0.68596 0.51849 0.93019 0.0
C1125 C 0.69684 0.50922 0.97104 0.0
C1126 C 0.65764 0.49364 0.90464 0.0
C1127 C 0.63984 0.45877 0.91888 0.0
C1128 C 0.64993 0.4497 0.96084 0.0
H1129 H 0.54889 0.27928 0.74644 0.0
H1130 H 0.58596 0.33359 0.78774 0.0
C1131 C 0.67797 0.47487 0.98709 0.0
C1132 C 0.61365 0.43174 0.88702 0.0
H1133 H 0.53262 0.35979 0.88298 0.0
C1134 C 0.62326 0.43116 0.84023 0.0
C1135 C 0.57992 0.40649 0.90199 0.0
C1136 C 0.5668 0.40704 0.95051 0.0
C1137 C 0.60082 0.40539 0.80879 0.0
C1138 C 0.56818 0.37869 0.82475 0.0
C1139 C 0.55781 0.38005 0.87083 0.0
C1140 C 0.54603 0.34755 0.79563 0.0
C1141 C 0.61247 0.40691 0.75878 0.0
C1142 C 0.51108 0.33711 0.78633 0.0
C1143 C 0.48972 0.3058 0.76271 0.0
C1144 C 0.5031 0.28459 0.74811 0.0
C1145 C 0.53817 0.2955 0.7566 0.0
C1146 C 0.55939 0.3266 0.78006 0.0
H1147 H 0.63122 0.43402 0.74819 0.0
H1148 H 0.62579 0.39154 0.75538 0.0
H1149 H 0.5901 0.39608 0.73427 0.0
H1150 H 0.50014 0.35273 0.79835 0.0
H1151 H 0.46256 0.2976 0.75773 0.0
loop_
_geom_bond_atom_site_label_1
_geom_bond_atom_site_label_2
_geom_bond_distance
_geom_bond_site_symmetry_2
_ccdc_geom_bond_type
Tb0 N31 2.660 . S
Tb0 N38 2.600 . S
Tb0 O44 2.546 . S
Tb0 O45 2.610 . S
Tb0 O47 2.320 . S
Tb0 O48 2.552 . S
Tb0 O49 2.413 . S
Tb0 O51 2.362 1_556 S
Tb0 O52 2.417 1_556 S
Tb0 C64 2.833 . S
C1 C4 1.432 . S
C1 C5 1.414 . S
C1 N8 1.359 . S
C2 C4 1.417 . S
C2 C6 1.432 . S
C2 C14 1.410 . S
C3 C5 1.444 . S
C3 C6 1.317 . S
C3 H26 0.929 . S
C4 C1 1.432 . S
C4 C2 1.417 . S
C4 N12 1.360 . S
C5 C1 1.414 . S
C5 C3 1.444 . S
C5 C10 1.385 . S
C6 C2 1.432 . S
C6 C3 1.317 . S
C6 H18 0.930 . S
C7 C9 1.392 . S
C7 C10 1.370 . S
C7 H19 0.931 . S
N8 C1 1.359 . S
N8 C9 1.327 . S
N8 Tb11 2.600 . S
C9 C7 1.392 . S
C9 N8 1.327 . S
C9 H16 0.930 . S
C10 C5 1.385 . S
C10 C7 1.370 . S
C10 H29 0.930 . S
Tb11 N8 2.600 . S
Tb11 N12 2.660 . S
Tb11 O45 2.362 1_554 S
Tb11 O46 2.421 . S
Tb11 O50 2.546 . S
Tb11 O51 2.610 . S
Tb11 O53 2.320 . S
Tb11 O54 2.552 . S
Tb11 O55 2.413 . S
Tb11 C75 2.833 . S
N12 C4 1.360 . S
N12 Tb11 2.660 . S
N12 C13 1.305 . S
C13 N12 1.305 . S
C13 C15 1.407 . S
C13 H20 0.930 . S
C14 C2 1.410 . S
C14 C15 1.345 . S
C14 H22 0.930 . S
C15 C13 1.407 . S
C15 C14 1.345 . S
C15 H17 0.930 . S
H16 C9 0.930 . S
H17 C15 0.930 . S
H18 C6 0.930 . S
H19 C7 0.931 . S
H20 C13 0.930 . S
H21 C35 0.930 . S
H22 C14 0.930 . S
H23 C41 0.930 . S
H24 C32 0.930 . S
H25 C39 0.931 . S
H26 C3 0.929 . S
H27 C33 0.930 . S
H28 C66 0.930 . S
H29 C10 0.930 . S
H30 C65 0.929 . S
N31 Tb0 2.660 . S
N31 C32 1.305 . S
N31 C36 1.360 . S
C32 H24 0.930 . S
C32 N31 1.305 . S
C32 C35 1.407 . S
C33 H27 0.930 . S
C33 C34 1.410 . S
C33 C35 1.345 . S
C34 C33 1.410 . S
C34 C36 1.417 . S
C34 C66 1.432 . S
C35 H21 0.930 . S
C35 C32 1.407 . S
C35 C33 1.345 . S
C36 N31 1.360 . S
C36 C34 1.417 . S
C36 C40 1.432 . S
H37 C42 0.930 . S
N38 Tb0 2.600 . S
N38 C40 1.359 . S
N38 C41 1.327 . S
C39 H25 0.931 . S
C39 C41 1.392 . S
C39 C42 1.370 . S
C40 C36 1.432 . S
C40 N38 1.359 . S
C40 C43 1.414 . S
C41 H23 0.930 . S
C41 N38 1.327 . S
C41 C39 1.392 . S
C42 H37 0.930 . S
C42 C39 1.370 . S
C42 C43 1.385 . S
C43 C40 1.414 . S
C43 C42 1.385 . S
C43 C65 1.444 . S
O44 Tb0 2.546 . S
O44 C64 1.251 . S
O45 Tb0 2.610 . S
O45 Tb11 2.362 1_556 S
O45 C56 1.283 . S
O46 Tb11 2.421 . S
O46 C63 1.262 1_554 S
O47 Tb0 2.320 . S
O47 C63 1.260 . S
O48 Tb0 2.552 . S
O48 C56 1.243 . S
O49 Tb0 2.413 . S
O49 C64 1.256 . S
O50 Tb11 2.546 . S
O50 C75 1.251 . S
O51 Tb0 2.362 1_554 S
O51 Tb11 2.610 . S
O51 C67 1.283 . S
O52 Tb0 2.417 1_554 S
O52 C74 1.267 . S
O53 Tb11 2.320 . S
O53 C74 1.260 . S
O54 Tb11 2.552 . S
O54 C67 1.243 . S
O55 Tb11 2.413 . S
O55 C75 1.256 . S
C56 O45 1.283 . S
C56 O48 1.243 . S
C57 C59 1.382 . S
C57 C61 1.393 . S
C57 C64 1.500 . S
C58 C59 1.400 . S
C58 C60 1.384 . S
C59 C57 1.382 . S
C59 C58 1.400 . S
C59 H76 0.930 . S
C60 C58 1.384 . S
C60 C62 1.392 . S
C60 H77 0.931 . S
C61 C57 1.393 . S
C61 C62 1.401 . S
C61 H78 0.930 . S
C62 C60 1.392 . S
C62 C61 1.401 . S
C62 H79 0.930 . S
C63 O46 1.262 1_556 S
C63 O47 1.260 . S
C64 Tb0 2.833 . S
C64 O44 1.251 . S
C64 O49 1.256 . S
C64 C57 1.500 . S
C65 H30 0.929 . S
C65 C43 1.444 . S
C65 C66 1.317 . S
C66 H28 0.930 . S
C66 C34 1.432 . S
C66 C65 1.317 . S
C67 O51 1.283 . S
C67 O54 1.243 . S
C68 C69 1.382 . S
C68 C72 1.393 . S
C68 C75 1.500 . S
C69 C68 1.382 . S
C69 C70 1.400 . S
C69 H80 0.930 . S
C70 C69 1.400 . S
C70 C71 1.384 . S
C71 C70 1.384 . S
C71 C73 1.392 . S
C71 H81 0.931 . S
C72 C68 1.393 . S
C72 C73 1.401 . S
C72 H82 0.930 . S
C73 C71 1.392 . S
C73 C72 1.401 . S
C73 H83 0.930 . S
C74 O52 1.267 . S
C74 O53 1.260 . S
C75 Tb11 2.833 . S
C75 O50 1.251 . S
C75 O55 1.256 . S
C75 C68 1.500 . S
H76 C59 0.930 . S
H77 C60 0.931 . S
H78 C61 0.930 . S
H79 C62 0.930 . S
H80 C69 0.930 . S
H81 C71 0.931 . S
H82 C72 0.930 . S
H83 C73 0.930 . S
Tb84 N115 2.660 . S
Tb84 N122 2.600 . S
Tb84 O128 2.546 . S
Tb84 O129 2.610 . S
Tb84 O131 2.320 . S
Tb84 O132 2.552 . S
Tb84 O133 2.413 . S
Tb84 O135 2.362 . S
Tb84 O136 2.421 . S
Tb84 C148 2.833 . S
C85 C88 1.432 . S
C85 C89 1.414 . S
C85 N92 1.359 . S
C86 C88 1.417 . S
C86 C90 1.432 . S
C86 C98 1.410 . S
C87 C89 1.444 . S
C87 C90 1.317 . S
C87 H110 0.929 . S
C88 C85 1.432 . S
C88 C86 1.417 . S
C88 N96 1.360 . S
C89 C85 1.414 . S
C89 C87 1.444 . S
C89 C94 1.385 . S
C90 C86 1.432 . S
C90 C87 1.317 . S
C90 H102 0.930 . S
C91 C93 1.392 . S
C91 C94 1.370 . S
C91 H103 0.931 . S
N92 C85 1.359 . S
N92 C93 1.327 . S
N92 Tb95 2.600 . S
C93 C91 1.392 . S
C93 N92 1.327 . S
C93 H100 0.930 . S
C94 C89 1.385 . S
C94 C91 1.370 . S
C94 H113 0.930 . S
Tb95 N92 2.600 . S
Tb95 N96 2.660 . S
Tb95 O129 2.362 . S
Tb95 O130 2.421 . S
Tb95 O134 2.546 . S
Tb95 O135 2.610 . S
Tb95 O137 2.320 . S
Tb95 O138 2.552 . S
Tb95 O139 2.413 . S
Tb95 C159 2.833 . S
N96 C88 1.360 . S
N96 Tb95 2.660 . S
N96 C97 1.305 . S
C97 N96 1.305 . S
C97 C99 1.407 . S
C97 H104 0.930 . S
C98 C86 1.410 . S
C98 C99 1.345 . S
C98 H106 0.930 . S
C99 C97 1.407 . S
C99 C98 1.345 . S
C99 H101 0.930 . S
H100 C93 0.930 . S
H101 C99 0.930 . S
H102 C90 0.930 . S
H103 C91 0.931 . S
H104 C97 0.930 . S
H105 C119 0.930 . S
H106 C98 0.930 . S
H107 C125 0.930 . S
H108 C116 0.930 . S
H109 C123 0.931 . S
H110 C87 0.929 . S
H111 C117 0.930 . S
H112 C150 0.930 . S
H113 C94 0.930 . S
H114 C149 0.929 . S
N115 Tb84 2.660 . S
N115 C116 1.305 . S
N115 C120 1.360 . S
C116 H108 0.930 . S
C116 N115 1.305 . S
C116 C119 1.407 . S
C117 H111 0.930 . S
C117 C118 1.410 . S
C117 C119 1.345 . S
C118 C117 1.410 . S
C118 C120 1.417 . S
C118 C150 1.432 . S
C119 H105 0.930 . S
C119 C116 1.407 . S
C119 C117 1.345 . S
C120 N115 1.360 . S
C120 C118 1.417 . S
C120 C124 1.432 . S
H121 C126 0.930 . S
N122 Tb84 2.600 . S
N122 C124 1.359 . S
N122 C125 1.327 . S
C123 H109 0.931 . S
C123 C125 1.392 . S
C123 C126 1.370 . S
C124 C120 1.432 . S
C124 N122 1.359 . S
C124 C127 1.414 . S
C125 H107 0.930 . S
C125 N122 1.327 . S
C125 C123 1.392 . S
C126 H121 0.930 . S
C126 C123 1.370 . S
C126 C127 1.385 . S
C127 C124 1.414 . S
C127 C126 1.385 . S
C127 C149 1.444 . S
O128 Tb84 2.546 . S
O128 C148 1.251 . S
O129 Tb84 2.610 . S
O129 Tb95 2.362 . S
O129 C140 1.283 . S
O130 Tb95 2.421 . S
O130 C147 1.262 . S
O131 Tb84 2.320 . S
O131 C147 1.260 . S
O132 Tb84 2.552 . S
O132 C140 1.243 . S
O133 Tb84 2.413 . S
O133 C148 1.256 . S
O134 Tb95 2.546 . S
O134 C159 1.251 . S
O135 Tb84 2.362 . S
O135 Tb95 2.610 . S
O135 C151 1.283 . S
O136 Tb84 2.421 . S
O136 C158 1.262 . S
O137 Tb95 2.320 . S
O137 C158 1.260 . S
O138 Tb95 2.552 . S
O138 C151 1.243 . S
O139 Tb95 2.413 . S
O139 C159 1.256 . S
C140 O129 1.283 . S
C140 O132 1.243 . S
C141 C143 1.382 . S
C141 C145 1.393 . S
C141 C148 1.500 . S
C142 C143 1.400 . S
C142 C144 1.384 . S
C143 C141 1.382 . S
C143 C142 1.400 . S
C143 H160 0.930 . S
C144 C142 1.384 . S
C144 C146 1.392 . S
C144 H161 0.931 . S
C145 C141 1.393 . S
C145 C146 1.401 . S
C145 H162 0.930 . S
C146 C144 1.392 . S
C146 C145 1.401 . S
C146 H163 0.930 . S
C147 O130 1.262 . S
C147 O131 1.260 . S
C148 Tb84 2.833 . S
C148 O128 1.251 . S
C148 O133 1.256 . S
C148 C141 1.500 . S
C149 H114 0.929 . S
C149 C127 1.444 . S
C149 C150 1.317 . S
C150 H112 0.930 . S
C150 C118 1.432 . S
C150 C149 1.317 . S
C151 O135 1.283 . S
C151 O138 1.243 . S
C152 C153 1.382 . S
C152 C156 1.393 . S
C152 C159 1.500 . S
C153 C152 1.382 . S
C153 C154 1.400 . S
C153 H164 0.930 . S
C154 C153 1.400 . S
C154 C155 1.384 . S
C155 C154 1.384 . S
C155 C157 1.392 . S
C155 H165 0.931 . S
C156 C152 1.393 . S
C156 C157 1.401 . S
C156 H166 0.930 . S
C157 C155 1.392 . S
C157 C156 1.401 . S
C157 H167 0.930 . S
C158 O136 1.262 . S
C158 O137 1.260 . S
C159 Tb95 2.833 . S
C159 O134 1.251 . S
C159 O139 1.256 . S
C159 C152 1.500 . S
H160 C143 0.930 . S
H161 C144 0.931 . S
H162 C145 0.930 . S
H163 C146 0.930 . S
H164 C153 0.930 . S
H165 C155 0.931 . S
H166 C156 0.930 . S
H167 C157 0.930 . S
Tb168 N199 2.660 . S
Tb168 N206 2.600 . S
Tb168 O212 2.546 . S
Tb168 O213 2.610 . S
Tb168 O215 2.320 . S
Tb168 O216 2.552 . S
Tb168 O217 2.413 . S
Tb168 O219 2.362 . S
Tb168 O220 2.421 . S
Tb168 C232 2.833 . S
C169 C172 1.432 . S
C169 C173 1.414 . S
C169 N176 1.359 . S
C170 C172 1.417 . S
C170 C174 1.432 . S
C170 C182 1.410 . S
C171 C173 1.444 . S
C171 C174 1.317 . S
C171 H194 0.929 . S
C172 C169 1.432 . S
C172 C170 1.417 . S
C172 N180 1.360 . S
C173 C169 1.414 . S
C173 C171 1.444 . S
C173 C178 1.385 . S
C174 C170 1.432 . S
C174 C171 1.317 . S
C174 H186 0.930 . S
C175 C177 1.392 . S
C175 C178 1.370 . S
C175 H187 0.931 . S
N176 C169 1.359 . S
N176 C177 1.327 . S
N176 Tb179 2.600 . S
C177 C175 1.392 . S
C177 N176 1.327 . S
C177 H184 0.930 . S
C178 C173 1.385 . S
C178 C175 1.370 . S
C178 H197 0.930 . S
Tb179 N176 2.600 . S
Tb179 N180 2.660 . S
Tb179 O213 2.362 . S
Tb179 O214 2.421 . S
Tb179 O218 2.546 . S
Tb179 O219 2.610 . S
Tb179 O221 2.320 . S
Tb179 O222 2.552 . S
Tb179 O223 2.413 . S
Tb179 C243 2.833 . S
N180 C172 1.360 . S
N180 Tb179 2.660 . S
N180 C181 1.305 . S
C181 N180 1.305 . S
C181 C183 1.407 . S
C181 H188 0.930 . S
C182 C170 1.410 . S
C182 C183 1.345 . S
C182 H190 0.930 . S
C183 C181 1.407 . S
C183 C182 1.345 . S
C183 H185 0.930 . S
H184 C177 0.930 . S
H185 C183 0.930 . S
H186 C174 0.930 . S
H187 C175 0.931 . S
H188 C181 0.930 . S
H189 C203 0.930 . S
H190 C182 0.930 . S
H191 C209 0.930 . S
H192 C200 0.930 . S
H193 C207 0.931 . S
H194 C171 0.929 . S
H195 C201 0.930 . S
H196 C234 0.930 . S
H197 C178 0.930 . S
H198 C233 0.929 . S
N199 Tb168 2.660 . S
N199 C200 1.305 . S
N199 C204 1.360 . S
C200 H192 0.930 . S
C200 N199 1.305 . S
C200 C203 1.407 . S
C201 H195 0.930 . S
C201 C202 1.410 . S
C201 C203 1.345 . S
C202 C201 1.410 . S
C202 C204 1.417 . S
C202 C234 1.432 . S
C203 H189 0.930 . S
C203 C200 1.407 . S
C203 C201 1.345 . S
C204 N199 1.360 . S
C204 C202 1.417 . S
C204 C208 1.432 . S
H205 C210 0.930 . S
N206 Tb168 2.600 . S
N206 C208 1.359 . S
N206 C209 1.327 . S
C207 H193 0.931 . S
C207 C209 1.392 . S
C207 C210 1.370 . S
C208 C204 1.432 . S
C208 N206 1.359 . S
C208 C211 1.414 . S
C209 H191 0.930 . S
C209 N206 1.327 . S
C209 C207 1.392 . S
C210 H205 0.930 . S
C210 C207 1.370 . S
C210 C211 1.385 . S
C211 C208 1.414 . S
C211 C210 1.385 . S
C211 C233 1.444 . S
O212 Tb168 2.546 . S
O212 C232 1.251 . S
O213 Tb168 2.610 . S
O213 Tb179 2.362 . S
O213 C224 1.283 . S
O214 Tb179 2.421 . S
O214 C231 1.262 . S
O215 Tb168 2.320 . S
O215 C231 1.260 . S
O216 Tb168 2.552 . S
O216 C224 1.243 . S
O217 Tb168 2.413 . S
O217 C232 1.256 . S
O218 Tb179 2.546 . S
O218 C243 1.251 . S
O219 Tb168 2.362 . S
O219 Tb179 2.610 . S
O219 C235 1.283 . S
O220 Tb168 2.421 . S
O220 C242 1.262 . S
O221 Tb179 2.320 . S
O221 C242 1.260 . S
O222 Tb179 2.552 . S
O222 C235 1.243 . S
O223 Tb179 2.413 . S
O223 C243 1.256 . S
C224 O213 1.283 . S
C224 O216 1.243 . S
C225 C227 1.382 . S
C225 C229 1.393 . S
C225 C232 1.500 . S
C226 C227 1.400 . S
C226 C228 1.384 . S
C227 C225 1.382 . S
C227 C226 1.400 . S
C227 H244 0.930 . S
C228 C226 1.384 . S
C228 C230 1.392 . S
C228 H245 0.931 . S
C229 C225 1.393 . S
C229 C230 1.401 . S
C229 H246 0.930 . S
C230 C228 1.392 . S
C230 C229 1.401 . S
C230 H247 0.930 . S
C231 O214 1.262 . S
C231 O215 1.260 . S
C232 Tb168 2.833 . S
C232 O212 1.251 . S
C232 O217 1.256 . S
C232 C225 1.500 . S
C233 H198 0.929 . S
C233 C211 1.444 . S
C233 C234 1.317 . S
C234 H196 0.930 . S
C234 C202 1.432 . S
C234 C233 1.317 . S
C235 O219 1.283 . S
C235 O222 1.243 . S
C236 C237 1.382 . S
C236 C240 1.393 . S
C236 C243 1.500 . S
C237 C236 1.382 . S
C237 C238 1.400 . S
C237 H248 0.930 . S
C238 C237 1.400 . S
C238 C239 1.384 . S
C239 C238 1.384 . S
C239 C241 1.392 . S
C239 H249 0.931 . S
C240 C236 1.393 . S
C240 C241 1.401 . S
C240 H250 0.930 . S
C241 C239 1.392 . S
C241 C240 1.401 . S
C241 H251 0.930 . S
C242 O220 1.262 . S
C242 O221 1.260 . S
C243 Tb179 2.833 . S
C243 O218 1.251 . S
C243 O223 1.256 . S
C243 C236 1.500 . S
H244 C227 0.930 . S
H245 C228 0.931 . S
H246 C229 0.930 . S
H247 C230 0.930 . S
H248 C237 0.930 . S
H249 C239 0.931 . S
H250 C240 0.930 . S
H251 C241 0.930 . S
Tb252 N283 2.660 . S
Tb252 N290 2.600 . S
Tb252 O296 2.546 . S
Tb252 O297 2.610 . S
Tb252 O299 2.320 . S
Tb252 O300 2.552 . S
Tb252 O301 2.413 . S
Tb252 O303 2.362 1_556 S
Tb252 O304 2.417 1_556 S
Tb252 C316 2.833 . S
C253 C256 1.432 . S
C253 C257 1.414 . S
C253 N260 1.359 . S
C254 C256 1.417 . S
C254 C258 1.432 . S
C254 C266 1.410 . S
C255 C257 1.444 . S
C255 C258 1.317 . S
C255 H278 0.929 . S
C256 C253 1.432 . S
C256 C254 1.417 . S
C256 N264 1.360 . S
C257 C253 1.414 . S
C257 C255 1.444 . S
C257 C262 1.385 . S
C258 C254 1.432 . S
C258 C255 1.317 . S
C258 H270 0.930 . S
C259 C261 1.392 . S
C259 C262 1.370 . S
C259 H271 0.931 . S
N260 C253 1.359 . S
N260 C261 1.327 . S
N260 Tb263 2.600 . S
C261 C259 1.392 . S
C261 N260 1.327 . S
C261 H268 0.930 . S
C262 C257 1.385 . S
C262 C259 1.370 . S
C262 H281 0.930 . S
Tb263 N260 2.600 . S
Tb263 N264 2.660 . S
Tb263 O297 2.362 1_554 S
Tb263 O298 2.421 . S
Tb263 O302 2.546 . S
Tb263 O303 2.610 . S
Tb263 O305 2.320 . S
Tb263 O306 2.552 . S
Tb263 O307 2.413 . S
Tb263 C327 2.833 . S
N264 C256 1.360 . S
N264 Tb263 2.660 . S
N264 C265 1.305 . S
C265 N264 1.305 . S
C265 C267 1.407 . S
C265 H272 0.930 . S
C266 C254 1.410 . S
C266 C267 1.345 . S
C266 H274 0.930 . S
C267 C265 1.407 . S
C267 C266 1.345 . S
C267 H269 0.930 . S
H268 C261 0.930 . S
H269 C267 0.930 . S
H270 C258 0.930 . S
H271 C259 0.931 . S
H272 C265 0.930 . S
H273 C287 0.930 . S
H274 C266 0.930 . S
H275 C293 0.930 . S
H276 C284 0.930 . S
H277 C291 0.931 . S
H278 C255 0.929 . S
H279 C285 0.930 . S
H280 C318 0.930 . S
H281 C262 0.930 . S
H282 C317 0.929 . S
N283 Tb252 2.660 . S
N283 C284 1.305 . S
N283 C288 1.360 . S
C284 H276 0.930 . S
C284 N283 1.305 . S
C284 C287 1.407 . S
C285 H279 0.930 . S
C285 C286 1.410 . S
C285 C287 1.345 . S
C286 C285 1.410 . S
C286 C288 1.417 . S
C286 C318 1.432 . S
C287 H273 0.930 . S
C287 C284 1.407 . S
C287 C285 1.345 . S
C288 N283 1.360 . S
C288 C286 1.417 . S
C288 C292 1.432 . S
H289 C294 0.930 . S
N290 Tb252 2.600 . S
N290 C292 1.359 . S
N290 C293 1.327 . S
C291 H277 0.931 . S
C291 C293 1.392 . S
C291 C294 1.370 . S
C292 C288 1.432 . S
C292 N290 1.359 . S
C292 C295 1.414 . S
C293 H275 0.930 . S
C293 N290 1.327 . S
C293 C291 1.392 . S
C294 H289 0.930 . S
C294 C291 1.370 . S
C294 C295 1.385 . S
C295 C292 1.414 . S
C295 C294 1.385 . S
C295 C317 1.444 . S
O296 Tb252 2.546 . S
O296 C316 1.251 . S
O297 Tb252 2.610 . S
O297 Tb263 2.362 1_556 S
O297 C308 1.283 . S
O298 Tb263 2.421 . S
O298 C315 1.262 1_554 S
O299 Tb252 2.320 . S
O299 C315 1.260 . S
O300 Tb252 2.552 . S
O300 C308 1.243 . S
O301 Tb252 2.413 . S
O301 C316 1.256 . S
O302 Tb263 2.546 . S
O302 C327 1.251 . S
O303 Tb252 2.362 1_554 S
O303 Tb263 2.610 . S
O303 C319 1.283 . S
O304 Tb252 2.417 1_554 S
O304 C326 1.267 . S
O305 Tb263 2.320 . S
O305 C326 1.260 . S
O306 Tb263 2.552 . S
O306 C319 1.243 . S
O307 Tb263 2.413 . S
O307 C327 1.256 . S
C308 O297 1.283 . S
C308 O300 1.243 . S
C309 C311 1.382 . S
C309 C313 1.393 . S
C309 C316 1.500 . S
C310 C311 1.400 . S
C310 C312 1.384 . S
C311 C309 1.382 . S
C311 C310 1.400 . S
C311 H328 0.930 . S
C312 C310 1.384 . S
C312 C314 1.392 . S
C312 H329 0.931 . S
C313 C309 1.393 . S
C313 C314 1.401 . S
C313 H330 0.930 . S
C314 C312 1.392 . S
C314 C313 1.401 . S
C314 H331 0.930 . S
C315 O298 1.262 1_556 S
C315 O299 1.260 . S
C316 Tb252 2.833 . S
C316 O296 1.251 . S
C316 O301 1.256 . S
C316 C309 1.500 . S
C317 H282 0.929 . S
C317 C295 1.444 . S
C317 C318 1.317 . S
C318 H280 0.930 . S
C318 C286 1.432 . S
C318 C317 1.317 . S
C319 O303 1.283 . S
C319 O306 1.243 . S
C320 C321 1.382 . S
C320 C324 1.393 . S
C320 C327 1.500 . S
C321 C320 1.382 . S
C321 C322 1.400 . S
C321 H332 0.930 . S
C322 C321 1.400 . S
C322 C323 1.384 . S
C323 C322 1.384 . S
C323 C325 1.392 . S
C323 H333 0.931 . S
C324 C320 1.393 . S
C324 C325 1.401 . S
C324 H334 0.930 . S
C325 C323 1.392 . S
C325 C324 1.401 . S
C325 H335 0.930 . S
C326 O304 1.267 . S
C326 O305 1.260 . S
C327 Tb263 2.833 . S
C327 O302 1.251 . S
C327 O307 1.256 . S
C327 C320 1.500 . S
H328 C311 0.930 . S
H329 C312 0.931 . S
H330 C313 0.930 . S
H331 C314 0.930 . S
H332 C321 0.930 . S
H333 C323 0.931 . S
H334 C324 0.930 . S
H335 C325 0.930 . S
Tb336 N367 2.660 . S
Tb336 N374 2.600 . S
Tb336 O380 2.546 . S
Tb336 O381 2.610 . S
Tb336 O383 2.320 . S
Tb336 O384 2.552 . S
Tb336 O385 2.413 . S
Tb336 O387 2.362 . S
Tb336 O388 2.421 . S
Tb336 C400 2.833 . S
C337 C340 1.432 . S
C337 C341 1.414 . S
C337 N344 1.359 . S
C338 C340 1.417 . S
C338 C342 1.432 . S
C338 C350 1.410 . S
C339 C341 1.444 . S
C339 C342 1.317 . S
C339 H362 0.929 . S
C340 C337 1.432 . S
C340 C338 1.417 . S
C340 N348 1.360 . S
C341 C337 1.414 . S
C341 C339 1.444 . S
C341 C346 1.385 . S
C342 C338 1.432 . S
C342 C339 1.317 . S
C342 H354 0.930 . S
C343 C345 1.392 . S
C343 C346 1.370 . S
C343 H355 0.931 . S
N344 C337 1.359 . S
N344 C345 1.327 . S
N344 Tb347 2.600 . S
C345 C343 1.392 . S
C345 N344 1.327 . S
C345 H352 0.930 . S
C346 C341 1.385 . S
C346 C343 1.370 . S
C346 H365 0.930 . S
Tb347 N344 2.600 . S
Tb347 N348 2.660 . S
Tb347 O381 2.362 . S
Tb347 O382 2.421 . S
Tb347 O386 2.546 . S
Tb347 O387 2.610 . S
Tb347 O389 2.320 . S
Tb347 O390 2.552 . S
Tb347 O391 2.413 . S
Tb347 C411 2.833 . S
N348 C340 1.360 . S
N348 Tb347 2.660 . S
N348 C349 1.305 . S
C349 N348 1.305 . S
C349 C351 1.407 . S
C349 H356 0.930 . S
C350 C338 1.410 . S
C350 C351 1.345 . S
C350 H358 0.930 . S
C351 C349 1.407 . S
C351 C350 1.345 . S
C351 H353 0.930 . S
H352 C345 0.930 . S
H353 C351 0.930 . S
H354 C342 0.930 . S
H355 C343 0.931 . S
H356 C349 0.930 . S
H357 C371 0.930 . S
H358 C350 0.930 . S
H359 C377 0.930 . S
H360 C368 0.930 . S
H361 C375 0.931 . S
H362 C339 0.929 . S
H363 C369 0.930 . S
H364 C402 0.930 . S
H365 C346 0.930 . S
H366 C401 0.929 . S
N367 Tb336 2.660 . S
N367 C368 1.305 . S
N367 C372 1.360 . S
C368 H360 0.930 . S
C368 N367 1.305 . S
C368 C371 1.407 . S
C369 H363 0.930 . S
C369 C370 1.410 . S
C369 C371 1.345 . S
C370 C369 1.410 . S
C370 C372 1.417 . S
C370 C402 1.432 . S
C371 H357 0.930 . S
C371 C368 1.407 . S
C371 C369 1.345 . S
C372 N367 1.360 . S
C372 C370 1.417 . S
C372 C376 1.432 . S
H373 C378 0.930 . S
N374 Tb336 2.600 . S
N374 C376 1.359 . S
N374 C377 1.327 . S
C375 H361 0.931 . S
C375 C377 1.392 . S
C375 C378 1.370 . S
C376 C372 1.432 . S
C376 N374 1.359 . S
C376 C379 1.414 . S
C377 H359 0.930 . S
C377 N374 1.327 . S
C377 C375 1.392 . S
C378 H373 0.930 . S
C378 C375 1.370 . S
C378 C379 1.385 . S
C379 C376 1.414 . S
C379 C378 1.385 . S
C379 C401 1.444 . S
O380 Tb336 2.546 . S
O380 C400 1.251 . S
O381 Tb336 2.610 . S
O381 Tb347 2.362 . S
O381 C392 1.283 . S
O382 Tb347 2.421 . S
O382 C399 1.262 . S
O383 Tb336 2.320 . S
O383 C399 1.260 . S
O384 Tb336 2.552 . S
O384 C392 1.243 . S
O385 Tb336 2.413 . S
O385 C400 1.256 . S
O386 Tb347 2.546 . S
O386 C411 1.251 . S
O387 Tb336 2.362 . S
O387 Tb347 2.610 . S
O387 C403 1.283 . S
O388 Tb336 2.421 . S
O388 C410 1.262 . S
O389 Tb347 2.320 . S
O389 C410 1.260 . S
O390 Tb347 2.552 . S
O390 C403 1.243 . S
O391 Tb347 2.413 . S
O391 C411 1.256 . S
C392 O381 1.283 . S
C392 O384 1.243 . S
C393 C395 1.382 . S
C393 C397 1.393 . S
C393 C400 1.500 . S
C394 C395 1.400 . S
C394 C396 1.384 . S
C395 C393 1.382 . S
C395 C394 1.400 . S
C395 H412 0.930 . S
C396 C394 1.384 . S
C396 C398 1.392 . S
C396 H413 0.931 . S
C397 C393 1.393 . S
C397 C398 1.401 . S
C397 H414 0.930 . S
C398 C396 1.392 . S
C398 C397 1.401 . S
C398 H415 0.930 . S
C399 O382 1.262 . S
C399 O383 1.260 . S
C400 Tb336 2.833 . S
C400 O380 1.251 . S
C400 O385 1.256 . S
C400 C393 1.500 . S
C401 H366 0.929 . S
C401 C379 1.444 . S
C401 C402 1.317 . S
C402 H364 0.930 . S
C402 C370 1.432 . S
C402 C401 1.317 . S
C403 O387 1.283 . S
C403 O390 1.243 . S
C404 C405 1.382 . S
C404 C408 1.393 . S
C404 C411 1.500 . S
C405 C404 1.382 . S
C405 C406 1.400 . S
C405 H416 0.930 . S
C406 C405 1.400 . S
C406 C407 1.384 . S
C407 C406 1.384 . S
C407 C409 1.392 . S
C407 H417 0.931 . S
C408 C404 1.393 . S
C408 C409 1.401 . S
C408 H418 0.930 . S
C409 C407 1.392 . S
C409 C408 1.401 . S
C409 H419 0.930 . S
C410 O388 1.262 . S
C410 O389 1.260 . S
C411 Tb347 2.833 . S
C411 O386 1.251 . S
C411 O391 1.256 . S
C411 C404 1.500 . S
H412 C395 0.930 . S
H413 C396 0.931 . S
H414 C397 0.930 . S
H415 C398 0.930 . S
H416 C405 0.930 . S
H417 C407 0.931 . S
H418 C408 0.930 . S
H419 C409 0.930 . S
Tb420 N451 2.660 . S
Tb420 N458 2.600 . S
Tb420 O464 2.546 . S
Tb420 O465 2.610 . S
Tb420 O467 2.320 . S
Tb420 O468 2.552 . S
Tb420 O469 2.413 . S
Tb420 O471 2.362 . S
Tb420 O472 2.421 . S
Tb420 C484 2.833 . S
C421 C424 1.432 . S
C421 C425 1.414 . S
C421 N428 1.359 . S
C422 C424 1.417 . S
C422 C426 1.432 . S
C422 C434 1.410 . S
C423 C425 1.444 . S
C423 C426 1.317 . S
C423 H446 0.929 . S
C424 C421 1.432 . S
C424 C422 1.417 . S
C424 N432 1.360 . S
C425 C421 1.414 . S
C425 C423 1.444 . S
C425 C430 1.385 . S
C426 C422 1.432 . S
C426 C423 1.317 . S
C426 H438 0.930 . S
C427 C429 1.392 . S
C427 C430 1.370 . S
C427 H439 0.931 . S
N428 C421 1.359 . S
N428 C429 1.327 . S
N428 Tb431 2.600 . S
C429 C427 1.392 . S
C429 N428 1.327 . S
C429 H436 0.930 . S
C430 C425 1.385 . S
C430 C427 1.370 . S
C430 H449 0.930 . S
Tb431 N428 2.600 . S
Tb431 N432 2.660 . S
Tb431 O465 2.362 . S
Tb431 O466 2.421 . S
Tb431 O470 2.546 . S
Tb431 O471 2.610 . S
Tb431 O473 2.320 . S
Tb431 O474 2.552 . S
Tb431 O475 2.413 . S
Tb431 C495 2.833 . S
N432 C424 1.360 . S
N432 Tb431 2.660 . S
N432 C433 1.305 . S
C433 N432 1.305 . S
C433 C435 1.407 . S
C433 H440 0.930 . S
C434 C422 1.410 . S
C434 C435 1.345 . S
C434 H442 0.930 . S
C435 C433 1.407 . S
C435 C434 1.345 . S
C435 H437 0.930 . S
H436 C429 0.930 . S
H437 C435 0.930 . S
H438 C426 0.930 . S
H439 C427 0.931 . S
H440 C433 0.930 . S
H441 C455 0.930 . S
H442 C434 0.930 . S
H443 C461 0.930 . S
H444 C452 0.930 . S
H445 C459 0.931 . S
H446 C423 0.929 . S
H447 C453 0.930 . S
H448 C486 0.930 . S
H449 C430 0.930 . S
H450 C485 0.929 . S
N451 Tb420 2.660 . S
N451 C452 1.305 . S
N451 C456 1.360 . S
C452 H444 0.930 . S
C452 N451 1.305 . S
C452 C455 1.407 . S
C453 H447 0.930 . S
C453 C454 1.410 . S
C453 C455 1.345 . S
C454 C453 1.410 . S
C454 C456 1.417 . S
C454 C486 1.432 . S
C455 H441 0.930 . S
C455 C452 1.407 . S
C455 C453 1.345 . S
C456 N451 1.360 . S
C456 C454 1.417 . S
C456 C460 1.432 . S
H457 C462 0.930 . S
N458 Tb420 2.600 . S
N458 C460 1.359 . S
N458 C461 1.327 . S
C459 H445 0.931 . S
C459 C461 1.392 . S
C459 C462 1.370 . S
C460 C456 1.432 . S
C460 N458 1.359 . S
C460 C463 1.414 . S
C461 H443 0.930 . S
C461 N458 1.327 . S
C461 C459 1.392 . S
C462 H457 0.930 . S
C462 C459 1.370 . S
C462 C463 1.385 . S
C463 C460 1.414 . S
C463 C462 1.385 . S
C463 C485 1.444 . S
O464 Tb420 2.546 . S
O464 C484 1.251 . S
O465 Tb420 2.610 . S
O465 Tb431 2.362 . S
O465 C476 1.283 . S
O466 Tb431 2.421 . S
O466 C483 1.262 . S
O467 Tb420 2.320 . S
O467 C483 1.260 . S
O468 Tb420 2.552 . S
O468 C476 1.243 . S
O469 Tb420 2.413 . S
O469 C484 1.256 . S
O470 Tb431 2.546 . S
O470 C495 1.251 . S
O471 Tb420 2.362 . S
O471 Tb431 2.610 . S
O471 C487 1.283 . S
O472 Tb420 2.421 . S
O472 C494 1.262 . S
O473 Tb431 2.320 . S
O473 C494 1.260 . S
O474 Tb431 2.552 . S
O474 C487 1.243 . S
O475 Tb431 2.413 . S
O475 C495 1.256 . S
C476 O465 1.283 . S
C476 O468 1.243 . S
C477 C479 1.382 . S
C477 C481 1.393 . S
C477 C484 1.500 . S
C478 C479 1.400 . S
C478 C480 1.384 . S
C479 C477 1.382 . S
C479 C478 1.400 . S
C479 H496 0.930 . S
C480 C478 1.384 . S
C480 C482 1.392 . S
C480 H497 0.931 . S
C481 C477 1.393 . S
C481 C482 1.401 . S
C481 H498 0.930 . S
C482 C480 1.392 . S
C482 C481 1.401 . S
C482 H499 0.930 . S
C483 O466 1.262 . S
C483 O467 1.260 . S
C484 Tb420 2.833 . S
C484 O464 1.251 . S
C484 O469 1.256 . S
C484 C477 1.500 . S
C485 H450 0.929 . S
C485 C463 1.444 . S
C485 C486 1.317 . S
C486 H448 0.930 . S
C486 C454 1.432 . S
C486 C485 1.317 . S
C487 O471 1.283 . S
C487 O474 1.243 . S
C488 C489 1.382 . S
C488 C492 1.393 . S
C488 C495 1.500 . S
C489 C488 1.382 . S
C489 C490 1.400 . S
C489 H500 0.930 . S
C490 C489 1.400 . S
C490 C491 1.384 . S
C491 C490 1.384 . S
C491 C493 1.392 . S
C491 H501 0.931 . S
C492 C488 1.393 . S
C492 C493 1.401 . S
C492 H502 0.930 . S
C493 C491 1.392 . S
C493 C492 1.401 . S
C493 H503 0.930 . S
C494 O472 1.262 . S
C494 O473 1.260 . S
C495 Tb431 2.833 . S
C495 O470 1.251 . S
C495 O475 1.256 . S
C495 C488 1.500 . S
H496 C479 0.930 . S
H497 C480 0.931 . S
H498 C481 0.930 . S
H499 C482 0.930 . S
H500 C489 0.930 . S
H501 C491 0.931 . S
H502 C492 0.930 . S
H503 C493 0.930 . S
H504 C512 0.929 . S
H505 C514 0.930 . S
H506 C516 0.930 . S
H507 C519 0.929 . S
H508 C522 0.930 . S
H509 C524 0.960 . S
H510 C524 0.960 . S
H511 C524 0.960 . S
C512 H504 0.929 . S
C512 C513 1.377 . S
C512 C514 1.384 . S
C513 C512 1.377 . S
C513 C519 1.390 . S
C514 H505 0.930 . S
C514 C512 1.384 . S
C514 C515 1.372 . S
C515 C514 1.372 . S
C515 C516 1.400 . S
C515 C520 1.490 . S
C516 H506 0.930 . S
C516 C515 1.400 . S
C516 C519 1.386 . S
H517 C533 0.930 . S
H518 C534 0.931 . S
C519 H507 0.929 . S
C519 C513 1.390 . S
C519 C516 1.386 . S
C520 C515 1.490 . S
C520 C522 1.395 . S
C520 C523 1.403 . S
H521 C527 0.930 . S
C522 H508 0.930 . S
C522 C520 1.395 . S
C522 C525 1.403 . S
C523 C520 1.403 . S
C523 C524 1.524 . S
C523 C527 1.400 . S
C524 H509 0.960 . S
C524 H510 0.960 . S
C524 H511 0.960 . S
C524 C523 1.524 . S
C525 C522 1.403 . S
C525 C526 1.392 . S
C525 C529 1.495 . S
C526 C525 1.392 . S
C526 C527 1.385 . S
C526 C528 1.478 . S
C527 H521 0.930 . S
C527 C523 1.400 . S
C527 C526 1.385 . S
C528 C526 1.478 . S
C528 C530 1.381 . S
C528 C534 1.383 . S
C529 C525 1.495 . S
C529 H535 0.959 . S
C529 H536 0.961 . S
C529 H537 0.960 . S
C530 C528 1.381 . S
C530 C531 1.394 . S
C530 H538 0.930 . S
C531 C530 1.394 . S
C531 C532 1.383 . S
C531 H539 0.929 . S
C532 C531 1.383 . S
C532 C533 1.377 . S
C533 H517 0.930 . S
C533 C532 1.377 . S
C533 C534 1.379 . S
C534 H518 0.931 . S
C534 C528 1.383 . S
C534 C533 1.379 . S
H535 C529 0.959 . S
H536 C529 0.961 . S
H537 C529 0.960 . S
H538 C530 0.930 . S
H539 C531 0.929 . S
H540 C548 0.929 . S
H541 C550 0.930 . S
H542 C552 0.930 . S
H543 C555 0.929 . S
H544 C558 0.930 . S
H545 C560 0.960 1_655 S
H546 C560 0.960 . S
H547 C560 0.960 . S
C548 H540 0.929 . S
C548 C549 1.377 . S
C548 C550 1.384 . S
C549 C548 1.377 . S
C549 C555 1.390 . S
C550 H541 0.930 . S
C550 C548 1.384 . S
C550 C551 1.372 . S
C551 C550 1.372 . S
C551 C552 1.400 . S
C551 C556 1.490 . S
C552 H542 0.930 . S
C552 C551 1.400 . S
C552 C555 1.386 . S
H553 C569 0.930 . S
H554 C570 0.931 . S
C555 H543 0.929 . S
C555 C549 1.390 . S
C555 C552 1.386 . S
C556 C551 1.490 . S
C556 C558 1.395 . S
C556 C559 1.403 . S
H557 C563 0.930 . S
C558 H544 0.930 . S
C558 C556 1.395 . S
C558 C561 1.403 1_455 S
C559 C556 1.403 . S
C559 C560 1.524 . S
C559 C563 1.400 1_455 S
C560 H545 0.960 1_455 S
C560 H546 0.960 . S
C560 H547 0.960 . S
C560 C559 1.524 . S
C561 C558 1.403 1_655 S
C561 C562 1.392 . S
C561 C565 1.495 . S
C562 C561 1.392 . S
C562 C563 1.385 . S
C562 C564 1.478 . S
C563 H557 0.930 . S
C563 C559 1.400 1_655 S
C563 C562 1.385 . S
C564 C562 1.478 . S
C564 C566 1.381 . S
C564 C570 1.383 . S
C565 C561 1.495 . S
C565 H571 0.959 . S
C565 H572 0.961 . S
C565 H573 0.960 . S
C566 C564 1.381 . S
C566 C567 1.394 . S
C566 H574 0.930 . S
C567 C566 1.394 . S
C567 C568 1.383 . S
C567 H575 0.929 . S
C568 C567 1.383 . S
C568 C569 1.377 . S
C569 H553 0.930 . S
C569 C568 1.377 . S
C569 C570 1.379 . S
C570 H554 0.931 . S
C570 C564 1.383 . S
C570 C569 1.379 . S
H571 C565 0.959 . S
H572 C565 0.961 . S
H573 C565 0.960 . S
H574 C566 0.930 . S
H575 C567 0.929 . S
H576 C584 0.929 . S
H577 C586 0.930 . S
H578 C588 0.930 . S
H579 C591 0.929 . S
H580 C594 0.930 . S
H581 C596 0.960 . S
H582 C596 0.960 . S
H583 C596 0.960 . S
C584 H576 0.929 . S
C584 C585 1.377 . S
C584 C586 1.384 . S
C585 C584 1.377 . S
C585 C591 1.390 . S
C586 H577 0.930 . S
C586 C584 1.384 . S
C586 C587 1.372 . S
C587 C586 1.372 . S
C587 C588 1.400 . S
C587 C592 1.490 . S
C588 H578 0.930 . S
C588 C587 1.400 . S
C588 C591 1.386 . S
H589 C605 0.930 . S
H590 C606 0.931 . S
C591 H579 0.929 . S
C591 C585 1.390 . S
C591 C588 1.386 . S
C592 C587 1.490 . S
C592 C594 1.395 1_545 S
C592 C595 1.403 . S
H593 C599 0.930 . S
C594 H580 0.930 . S
C594 C592 1.395 1_565 S
C594 C597 1.403 . S
C595 C592 1.403 . S
C595 C596 1.524 . S
C595 C599 1.400 1_545 S
C596 H581 0.960 . S
C596 H582 0.960 . S
C596 H583 0.960 . S
C596 C595 1.524 . S
C597 C594 1.403 . S
C597 C598 1.392 . S
C597 C601 1.495 . S
C598 C597 1.392 . S
C598 C599 1.385 . S
C598 C600 1.478 . S
C599 H593 0.930 . S
C599 C595 1.400 1_565 S
C599 C598 1.385 . S
C600 C598 1.478 . S
C600 C602 1.381 . S
C600 C606 1.383 . S
C601 C597 1.495 . S
C601 H607 0.959 . S
C601 H608 0.961 . S
C601 H609 0.960 . S
C602 C600 1.381 . S
C602 C603 1.394 . S
C602 H610 0.930 . S
C603 C602 1.394 . S
C603 C604 1.383 . S
C603 H611 0.929 . S
C604 C603 1.383 . S
C604 C605 1.377 . S
C605 H589 0.930 . S
C605 C604 1.377 . S
C605 C606 1.379 . S
C606 H590 0.931 . S
C606 C600 1.383 . S
C606 C605 1.379 . S
H607 C601 0.959 . S
H608 C601 0.961 . S
H609 C601 0.960 . S
H610 C602 0.930 . S
H611 C603 0.929 . S
H612 C620 0.929 . S
H613 C622 0.930 . S
H614 C624 0.930 . S
H615 C627 0.929 . S
H616 C630 0.930 . S
H617 C632 0.960 . S
H618 C632 0.960 . S
H619 C632 0.960 . S
C620 H612 0.929 . S
C620 C621 1.377 . S
C620 C622 1.384 . S
C621 C620 1.377 . S
C621 C627 1.390 . S
C622 H613 0.930 . S
C622 C620 1.384 . S
C622 C623 1.372 . S
C623 C622 1.372 . S
C623 C624 1.400 . S
C623 C628 1.490 . S
C624 H614 0.930 . S
C624 C623 1.400 . S
C624 C627 1.386 . S
H625 C641 0.930 . S
H626 C642 0.931 . S
C627 H615 0.929 . S
C627 C621 1.390 . S
C627 C624 1.386 . S
C628 C623 1.490 . S
C628 C630 1.395 . S
C628 C631 1.403 . S
H629 C635 0.930 . S
C630 H616 0.930 . S
C630 C628 1.395 . S
C630 C633 1.403 . S
C631 C628 1.403 . S
C631 C632 1.524 . S
C631 C635 1.400 . S
C632 H617 0.960 . S
C632 H618 0.960 . S
C632 H619 0.960 . S
C632 C631 1.524 . S
C633 C630 1.403 . S
C633 C634 1.392 . S
C633 C637 1.495 . S
C634 C633 1.392 . S
C634 C635 1.385 . S
C634 C636 1.478 . S
C635 H629 0.930 . S
C635 C631 1.400 . S
C635 C634 1.385 . S
C636 C634 1.478 . S
C636 C638 1.381 . S
C636 C642 1.383 . S
C637 C633 1.495 . S
C637 H643 0.959 . S
C637 H644 0.961 . S
C637 H645 0.960 . S
C638 C636 1.381 . S
C638 C639 1.394 . S
C638 H646 0.930 . S
C639 C638 1.394 . S
C639 C640 1.383 . S
C639 H647 0.929 . S
C640 C639 1.383 . S
C640 C641 1.377 . S
C641 H625 0.930 . S
C641 C640 1.377 . S
C641 C642 1.379 . S
C642 H626 0.931 . S
C642 C636 1.383 . S
C642 C641 1.379 . S
H643 C637 0.959 . S
H644 C637 0.961 . S
H645 C637 0.960 . S
H646 C638 0.930 . S
H647 C639 0.929 . S
H648 C656 0.929 . S
H649 C658 0.930 . S
H650 C660 0.930 . S
H651 C663 0.929 . S
H652 C666 0.930 . S
H653 C668 0.960 . S
H654 C668 0.960 . S
H655 C668 0.960 . S
C656 H648 0.929 . S
C656 C657 1.377 . S
C656 C658 1.384 . S
C657 C656 1.377 . S
C657 C663 1.390 . S
C658 H649 0.930 . S
C658 C656 1.384 . S
C658 C659 1.372 . S
C659 C658 1.372 . S
C659 C660 1.400 . S
C659 C664 1.490 . S
C660 H650 0.930 . S
C660 C659 1.400 . S
C660 C663 1.386 . S
H661 C677 0.930 . S
H662 C678 0.931 . S
C663 H651 0.929 . S
C663 C657 1.390 . S
C663 C660 1.386 . S
C664 C659 1.490 . S
C664 C666 1.395 . S
C664 C667 1.403 . S
H665 C671 0.930 . S
C666 H652 0.930 . S
C666 C664 1.395 . S
C666 C669 1.403 1_455 S
C667 C664 1.403 . S
C667 C668 1.524 . S
C667 C671 1.400 1_455 S
C668 H653 0.960 . S
C668 H654 0.960 . S
C668 H655 0.960 . S
C668 C667 1.524 . S
C669 C666 1.403 1_655 S
C669 C670 1.392 . S
C669 C673 1.495 . S
C670 C669 1.392 . S
C670 C671 1.385 . S
C670 C672 1.478 . S
C671 H665 0.930 . S
C671 C667 1.400 1_655 S
C671 C670 1.385 . S
C672 C670 1.478 . S
C672 C674 1.381 . S
C672 C678 1.383 . S
C673 C669 1.495 . S
C673 H679 0.959 . S
C673 H680 0.961 . S
C673 H681 0.960 . S
C674 C672 1.381 . S
C674 C675 1.394 . S
C674 H682 0.930 . S
C675 C674 1.394 . S
C675 C676 1.383 . S
C675 H683 0.929 . S
C676 C675 1.383 . S
C676 C677 1.377 . S
C677 H661 0.930 . S
C677 C676 1.377 . S
C677 C678 1.379 . S
C678 H662 0.931 . S
C678 C672 1.383 . S
C678 C677 1.379 . S
H679 C673 0.959 . S
H680 C673 0.961 . S
H681 C673 0.960 . S
H682 C674 0.930 . S
H683 C675 0.929 . S
H684 C692 0.929 . S
H685 C694 0.930 . S
H686 C696 0.930 . S
H687 C699 0.929 . S
H688 C702 0.930 . S
H689 C704 0.960 1_565 S
H690 C704 0.960 . S
H691 C704 0.960 . S
C692 H684 0.929 . S
C692 C693 1.377 . S
C692 C694 1.384 . S
C693 C692 1.377 . S
C693 C699 1.390 . S
C694 H685 0.930 . S
C694 C692 1.384 . S
C694 C695 1.372 . S
C695 C694 1.372 . S
C695 C696 1.400 . S
C695 C700 1.490 . S
C696 H686 0.930 . S
C696 C695 1.400 . S
C696 C699 1.386 . S
H697 C713 0.930 . S
H698 C714 0.931 . S
C699 H687 0.929 . S
C699 C693 1.390 . S
C699 C696 1.386 . S
C700 C695 1.490 . S
C700 C702 1.395 . S
C700 C703 1.403 . S
H701 C707 0.930 . S
C702 H688 0.930 . S
C702 C700 1.395 . S
C702 C705 1.403 . S
C703 C700 1.403 . S
C703 C704 1.524 . S
C703 C707 1.400 1_545 S
C704 H689 0.960 1_545 S
C704 H690 0.960 . S
C704 H691 0.960 . S
C704 C703 1.524 . S
C705 C702 1.403 . S
C705 C706 1.392 1_545 S
C705 C709 1.495 . S
C706 C705 1.392 1_565 S
C706 C707 1.385 . S
C706 C708 1.478 . S
C707 H701 0.930 . S
C707 C703 1.400 1_565 S
C707 C706 1.385 . S
C708 C706 1.478 . S
C708 C710 1.381 . S
C708 C714 1.383 . S
C709 C705 1.495 . S
C709 H715 0.959 . S
C709 H716 0.961 1_545 S
C709 H717 0.960 1_545 S
C710 C708 1.381 . S
C710 C711 1.394 . S
C710 H718 0.930 . S
C711 C710 1.394 . S
C711 C712 1.383 . S
C711 H719 0.929 . S
C712 C711 1.383 . S
C712 C713 1.377 . S
C713 H697 0.930 . S
C713 C712 1.377 . S
C713 C714 1.379 . S
C714 H698 0.931 . S
C714 C708 1.383 . S
C714 C713 1.379 . S
H715 C709 0.959 . S
H716 C709 0.961 1_565 S
H717 C709 0.960 1_565 S
H718 C710 0.930 . S
H719 C711 0.929 . S
H720 C728 0.929 . S
H721 C730 0.930 . S
H722 C732 0.930 . S
H723 C735 0.929 . S
H724 C738 0.930 . S
H725 C740 0.960 . S
H726 C740 0.960 . S
H727 C740 0.960 . S
C728 H720 0.929 . S
C728 C729 1.377 . S
C728 C730 1.384 . S
C729 C728 1.377 . S
C729 C735 1.390 . S
C730 H721 0.930 . S
C730 C728 1.384 . S
C730 C731 1.372 . S
C731 C730 1.372 . S
C731 C732 1.400 . S
C731 C736 1.490 . S
C732 H722 0.930 . S
C732 C731 1.400 . S
C732 C735 1.386 . S
H733 C749 0.930 . S
H734 C750 0.931 . S
C735 H723 0.929 . S
C735 C729 1.390 . S
C735 C732 1.386 . S
C736 C731 1.490 . S
C736 C738 1.395 . S
C736 C739 1.403 . S
H737 C743 0.930 . S
C738 H724 0.930 . S
C738 C736 1.395 . S
C738 C741 1.403 . S
C739 C736 1.403 . S
C739 C740 1.524 . S
C739 C743 1.400 . S
C740 H725 0.960 . S
C740 H726 0.960 . S
C740 H727 0.960 . S
C740 C739 1.524 . S
C741 C738 1.403 . S
C741 C742 1.392 . S
C741 C745 1.495 . S
C742 C741 1.392 . S
C742 C743 1.385 . S
C742 C744 1.478 . S
C743 H737 0.930 . S
C743 C739 1.400 . S
C743 C742 1.385 . S
C744 C742 1.478 . S
C744 C746 1.381 . S
C744 C750 1.383 . S
C745 C741 1.495 . S
C745 H751 0.959 . S
C745 H752 0.961 . S
C745 H753 0.960 . S
C746 C744 1.381 . S
C746 C747 1.394 . S
C746 H754 0.930 . S
C747 C746 1.394 . S
C747 C748 1.383 . S
C747 H755 0.929 . S
C748 C747 1.383 . S
C748 C749 1.377 . S
C749 H733 0.930 . S
C749 C748 1.377 . S
C749 C750 1.379 . S
C750 H734 0.931 . S
C750 C744 1.383 . S
C750 C749 1.379 . S
H751 C745 0.959 . S
H752 C745 0.961 . S
H753 C745 0.960 . S
H754 C746 0.930 . S
H755 C747 0.929 . S
H756 C764 0.929 . S
H757 C766 0.930 . S
H758 C768 0.930 . S
H759 C771 0.929 1_554 S
H760 C774 0.930 . S
H761 C776 0.960 . S
H762 C776 0.960 . S
H763 C776 0.960 . S
C764 H756 0.929 . S
C764 C765 1.377 . S
C764 C766 1.384 1_554 S
C765 C764 1.377 . S
C765 C771 1.390 1_554 S
C766 H757 0.930 . S
C766 C764 1.384 1_556 S
C766 C767 1.372 . S
C767 C766 1.372 . S
C767 C768 1.400 . S
C767 C772 1.490 . S
C768 H758 0.930 . S
C768 C767 1.400 . S
C768 C771 1.386 . S
H769 C785 0.930 . S
H770 C786 0.931 . S
C771 H759 0.929 1_556 S
C771 C765 1.390 1_556 S
C771 C768 1.386 . S
C772 C767 1.490 . S
C772 C774 1.395 . S
C772 C775 1.403 . S
H773 C779 0.930 . S
C774 H760 0.930 . S
C774 C772 1.395 . S
C774 C777 1.403 . S
C775 C772 1.403 . S
C775 C776 1.524 . S
C775 C779 1.400 . S
C776 H761 0.960 . S
C776 H762 0.960 . S
C776 H763 0.960 . S
C776 C775 1.524 . S
C777 C774 1.403 . S
C777 C778 1.392 . S
C777 C781 1.495 . S
C778 C777 1.392 . S
C778 C779 1.385 . S
C778 C780 1.478 . S
C779 H773 0.930 . S
C779 C775 1.400 . S
C779 C778 1.385 . S
C780 C778 1.478 . S
C780 C782 1.381 . S
C780 C786 1.383 . S
C781 C777 1.495 . S
C781 H787 0.959 . S
C781 H788 0.961 . S
C781 H789 0.960 . S
C782 C780 1.381 . S
C782 C783 1.394 . S
C782 H790 0.930 . S
C783 C782 1.394 . S
C783 C784 1.383 . S
C783 H791 0.929 . S
C784 C783 1.383 . S
C784 C785 1.377 . S
C785 H769 0.930 . S
C785 C784 1.377 . S
C785 C786 1.379 . S
C786 H770 0.931 . S
C786 C780 1.383 . S
C786 C785 1.379 . S
H787 C781 0.959 . S
H788 C781 0.961 . S
H789 C781 0.960 . S
H790 C782 0.930 . S
H791 C783 0.929 . S
H792 C800 0.929 . S
H793 C802 0.930 . S
H794 C804 0.930 . S
H795 C807 0.929 . S
H796 C810 0.930 . S
H797 C812 0.960 . S
H798 C812 0.960 . S
H799 C812 0.960 . S
C800 H792 0.929 . S
C800 C801 1.377 . S
C800 C802 1.384 . S
C801 C800 1.377 . S
C801 C807 1.390 . S
C802 H793 0.930 . S
C802 C800 1.384 . S
C802 C803 1.372 . S
C803 C802 1.372 . S
C803 C804 1.400 . S
C803 C808 1.490 . S
C804 H794 0.930 . S
C804 C803 1.400 . S
C804 C807 1.386 . S
H805 C821 0.930 1_556 S
H806 C822 0.931 . S
C807 H795 0.929 . S
C807 C801 1.390 . S
C807 C804 1.386 . S
C808 C803 1.490 . S
C808 C810 1.395 . S
C808 C811 1.403 . S
H809 C815 0.930 . S
C810 H796 0.930 . S
C810 C808 1.395 . S
C810 C813 1.403 . S
C811 C808 1.403 . S
C811 C812 1.524 . S
C811 C815 1.400 . S
C812 H797 0.960 . S
C812 H798 0.960 . S
C812 H799 0.960 . S
C812 C811 1.524 . S
C813 C810 1.403 . S
C813 C814 1.392 . S
C813 C817 1.495 . S
C814 C813 1.392 . S
C814 C815 1.385 . S
C814 C816 1.478 . S
C815 H809 0.930 . S
C815 C811 1.400 . S
C815 C814 1.385 . S
C816 C814 1.478 . S
C816 C818 1.381 . S
C816 C822 1.383 . S
C817 C813 1.495 . S
C817 H823 0.959 . S
C817 H824 0.961 . S
C817 H825 0.960 . S
C818 C816 1.381 . S
C818 C819 1.394 . S
C818 H826 0.930 . S
C819 C818 1.394 . S
C819 C820 1.383 1_554 S
C819 H827 0.929 1_554 S
C820 C819 1.383 1_556 S
C820 C821 1.377 1_556 S
C821 H805 0.930 1_554 S
C821 C820 1.377 1_554 S
C821 C822 1.379 . S
C822 H806 0.931 . S
C822 C816 1.383 . S
C822 C821 1.379 . S
H823 C817 0.959 . S
H824 C817 0.961 . S
H825 C817 0.960 . S
H826 C818 0.930 . S
H827 C819 0.929 1_556 S
H828 C836 0.929 . S
H829 C838 0.930 . S
H830 C840 0.930 . S
H831 C843 0.929 . S
H832 C846 0.930 . S
H833 C848 0.960 . S
H834 C848 0.960 . S
H835 C848 0.960 . S
C836 H828 0.929 . S
C836 C837 1.377 . S
C836 C838 1.384 . S
C837 C836 1.377 . S
C837 C843 1.390 . S
C838 H829 0.930 . S
C838 C836 1.384 . S
C838 C839 1.372 . S
C839 C838 1.372 . S
C839 C840 1.400 . S
C839 C844 1.490 . S
C840 H830 0.930 . S
C840 C839 1.400 . S
C840 C843 1.386 . S
H841 C857 0.930 . S
H842 C858 0.931 . S
C843 H831 0.929 . S
C843 C837 1.390 . S
C843 C840 1.386 . S
C844 C839 1.490 . S
C844 C846 1.395 . S
C844 C847 1.403 . S
H845 C851 0.930 . S
C846 H832 0.930 . S
C846 C844 1.395 . S
C846 C849 1.403 . S
C847 C844 1.403 . S
C847 C848 1.524 . S
C847 C851 1.400 . S
C848 H833 0.960 . S
C848 H834 0.960 . S
C848 H835 0.960 . S
C848 C847 1.524 . S
C849 C846 1.403 . S
C849 C850 1.392 . S
C849 C853 1.495 . S
C850 C849 1.392 . S
C850 C851 1.385 . S
C850 C852 1.478 . S
C851 H845 0.930 . S
C851 C847 1.400 . S
C851 C850 1.385 . S
C852 C850 1.478 . S
C852 C854 1.381 . S
C852 C858 1.383 . S
C853 C849 1.495 . S
C853 H859 0.959 . S
C853 H860 0.961 . S
C853 H861 0.960 . S
C854 C852 1.381 . S
C854 C855 1.394 . S
C854 H862 0.930 . S
C855 C854 1.394 . S
C855 C856 1.383 . S
C855 H863 0.929 . S
C856 C855 1.383 . S
C856 C857 1.377 . S
C857 H841 0.930 . S
C857 C856 1.377 . S
C857 C858 1.379 . S
C858 H842 0.931 . S
C858 C852 1.383 . S
C858 C857 1.379 . S
H859 C853 0.959 . S
H860 C853 0.961 . S
H861 C853 0.960 . S
H862 C854 0.930 . S
H863 C855 0.929 . S
H864 C872 0.929 . S
H865 C874 0.930 . S
H866 C876 0.930 . S
H867 C879 0.929 . S
H868 C882 0.930 . S
H869 C884 0.960 . S
H870 C884 0.960 . S
H871 C884 0.960 . S
C872 H864 0.929 . S
C872 C873 1.377 . S
C872 C874 1.384 . S
C873 C872 1.377 . S
C873 C879 1.390 . S
C874 H865 0.930 . S
C874 C872 1.384 . S
C874 C875 1.372 . S
C875 C874 1.372 . S
C875 C876 1.400 . S
C875 C880 1.490 . S
C876 H866 0.930 . S
C876 C875 1.400 . S
C876 C879 1.386 . S
H877 C893 0.930 1_554 S
H878 C894 0.931 . S
C879 H867 0.929 . S
C879 C873 1.390 . S
C879 C876 1.386 . S
C880 C875 1.490 . S
C880 C882 1.395 . S
C880 C883 1.403 . S
H881 C887 0.930 . S
C882 H868 0.930 . S
C882 C880 1.395 . S
C882 C885 1.403 . S
C883 C880 1.403 . S
C883 C884 1.524 . S
C883 C887 1.400 . S
C884 H869 0.960 . S
C884 H870 0.960 . S
C884 H871 0.960 . S
C884 C883 1.524 . S
C885 C882 1.403 . S
C885 C886 1.392 . S
C885 C889 1.495 . S
C886 C885 1.392 . S
C886 C887 1.385 . S
C886 C888 1.478 . S
C887 H881 0.930 . S
C887 C883 1.400 . S
C887 C886 1.385 . S
C888 C886 1.478 . S
C888 C890 1.381 . S
C888 C894 1.383 . S
C889 C885 1.495 . S
C889 H895 0.959 . S
C889 H896 0.961 . S
C889 H897 0.960 . S
C890 C888 1.381 . S
C890 C891 1.394 1_556 S
C890 H898 0.930 . S
C891 C890 1.394 1_554 S
C891 C892 1.383 . S
C891 H899 0.929 . S
C892 C891 1.383 . S
C892 C893 1.377 1_554 S
C893 H877 0.930 1_556 S
C893 C892 1.377 1_556 S
C893 C894 1.379 . S
C894 H878 0.931 . S
C894 C888 1.383 . S
C894 C893 1.379 . S
H895 C889 0.959 . S
H896 C889 0.961 . S
H897 C889 0.960 . S
H898 C890 0.930 . S
H899 C891 0.929 . S
H900 C908 0.929 . S
H901 C910 0.930 . S
H902 C912 0.930 . S
H903 C915 0.929 . S
H904 C918 0.930 . S
H905 C920 0.960 . S
H906 C920 0.960 . S
H907 C920 0.960 . S
C908 H900 0.929 . S
C908 C909 1.377 . S
C908 C910 1.384 . S
C909 C908 1.377 . S
C909 C915 1.390 . S
C910 H901 0.930 . S
C910 C908 1.384 . S
C910 C911 1.372 . S
C911 C910 1.372 . S
C911 C912 1.400 . S
C911 C916 1.490 . S
C912 H902 0.930 . S
C912 C911 1.400 . S
C912 C915 1.386 . S
H913 C929 0.936 . S
H914 C930 0.931 . S
C915 H903 0.929 . S
C915 C909 1.390 . S
C915 C912 1.386 . S
C916 C911 1.490 . S
C916 C918 1.395 . S
C916 C919 1.403 . S
H917 C923 0.930 . S
C918 H904 0.930 . S
C918 C916 1.395 . S
C918 C921 1.403 . S
C919 C916 1.403 . S
C919 C920 1.524 . S
C919 C923 1.400 . S
C920 H905 0.960 . S
C920 H906 0.960 . S
C920 H907 0.960 . S
C920 C919 1.524 . S
C921 C918 1.403 . S
C921 C922 1.392 . S
C921 C925 1.495 . S
C922 C921 1.392 . S
C922 C923 1.385 . S
C922 C924 1.478 . S
C923 H917 0.930 . S
C923 C919 1.400 . S
C923 C922 1.385 . S
C924 C922 1.478 . S
C924 C926 1.381 . S
C924 C930 1.383 . S
C925 C921 1.495 . S
C925 H931 0.959 . S
C925 H932 0.961 . S
C925 H933 0.960 . S
C926 C924 1.381 . S
C926 C927 1.394 . S
C926 H934 0.930 . S
C927 C926 1.394 . S
C927 C928 1.383 1_554 S
C927 H935 0.929 1_554 S
C928 C927 1.383 1_556 S
C928 C929 1.382 . S
C929 H913 0.936 . S
C929 C928 1.382 . S
C929 C930 1.369 1_556 S
C930 H914 0.931 . S
C930 C924 1.383 . S
C930 C929 1.369 1_554 S
H931 C925 0.959 . S
H932 C925 0.961 . S
H933 C925 0.960 . S
H934 C926 0.930 . S
H935 C927 0.929 1_556 S
H936 C944 0.929 . S
H937 C946 0.930 . S
H938 C948 0.930 . S
H939 C951 0.929 . S
H940 C954 0.930 . S
H941 C956 0.960 . S
H942 C956 0.960 . S
H943 C956 0.960 . S
C944 H936 0.929 . S
C944 C945 1.377 . S
C944 C946 1.384 . S
C945 C944 1.377 . S
C945 C951 1.390 . S
C946 H937 0.930 . S
C946 C944 1.384 . S
C946 C947 1.372 . S
C947 C946 1.372 . S
C947 C948 1.400 . S
C947 C952 1.490 . S
C948 H938 0.930 . S
C948 C947 1.400 . S
C948 C951 1.386 . S
H949 C965 0.930 . S
H950 C966 0.931 . S
C951 H939 0.929 . S
C951 C945 1.390 . S
C951 C948 1.386 . S
C952 C947 1.490 . S
C952 C954 1.395 . S
C952 C955 1.403 . S
H953 C959 0.930 . S
C954 H940 0.930 . S
C954 C952 1.395 . S
C954 C957 1.403 . S
C955 C952 1.403 . S
C955 C956 1.524 . S
C955 C959 1.400 . S
C956 H941 0.960 . S
C956 H942 0.960 . S
C956 H943 0.960 . S
C956 C955 1.524 . S
C957 C954 1.403 . S
C957 C958 1.392 . S
C957 C961 1.495 . S
C958 C957 1.392 . S
C958 C959 1.385 . S
C958 C960 1.478 . S
C959 H953 0.930 . S
C959 C955 1.400 . S
C959 C958 1.385 . S
C960 C958 1.478 . S
C960 C962 1.381 . S
C960 C966 1.383 . S
C961 C957 1.495 . S
C961 H967 0.959 . S
C961 H968 0.961 . S
C961 H969 0.960 . S
C962 C960 1.381 . S
C962 C963 1.394 . S
C962 H970 0.930 . S
C963 C962 1.394 . S
C963 C964 1.383 . S
C963 H971 0.929 . S
C964 C963 1.383 . S
C964 C965 1.377 . S
C965 H949 0.930 . S
C965 C964 1.377 . S
C965 C966 1.379 . S
C966 H950 0.931 . S
C966 C960 1.383 . S
C966 C965 1.379 . S
H967 C961 0.959 . S
H968 C961 0.961 . S
H969 C961 0.960 . S
H970 C962 0.930 . S
H971 C963 0.929 . S
H972 C980 0.929 . S
H973 C982 0.930 . S
H974 C984 0.930 . S
H975 C987 0.929 . S
H976 C990 0.930 . S
H977 C992 0.960 . S
H978 C992 0.960 . S
H979 C992 0.960 . S
C980 H972 0.929 . S
C980 C981 1.377 . S
C980 C982 1.384 . S
C981 C980 1.377 . S
C981 C987 1.390 . S
C982 H973 0.930 . S
C982 C980 1.384 . S
C982 C983 1.372 . S
C983 C982 1.372 . S
C983 C984 1.400 . S
C983 C988 1.490 . S
C984 H974 0.930 . S
C984 C983 1.400 . S
C984 C987 1.386 . S
H985 C1001 0.930 . S
H986 C1002 0.931 . S
C987 H975 0.929 . S
C987 C981 1.390 . S
C987 C984 1.386 . S
C988 C983 1.490 . S
C988 C990 1.395 . S
C988 C991 1.403 . S
H989 C995 0.930 . S
C990 H976 0.930 . S
C990 C988 1.395 . S
C990 C993 1.403 . S
C991 C988 1.403 . S
C991 C992 1.524 . S
C991 C995 1.400 . S
C992 H977 0.960 . S
C992 H978 0.960 . S
C992 H979 0.960 . S
C992 C991 1.524 . S
C993 C990 1.403 . S
C993 C994 1.392 . S
C993 C997 1.495 . S
C994 C993 1.392 . S
C994 C995 1.385 . S
C994 C996 1.478 . S
C995 H989 0.930 . S
C995 C991 1.400 . S
C995 C994 1.385 . S
C996 C994 1.478 . S
C996 C998 1.381 . S
C996 C1002 1.383 . S
C997 C993 1.495 . S
C997 H1003 0.959 . S
C997 H1004 0.961 . S
C997 H1005 0.960 . S
C998 C996 1.381 . S
C998 C999 1.394 . S
C998 H1006 0.930 . S
C999 C998 1.394 . S
C999 C1000 1.383 . S
C999 H1007 0.929 . S
C1000 C999 1.383 . S
C1000 C1001 1.377 . S
C1001 H985 0.930 . S
C1001 C1000 1.377 . S
C1001 C1002 1.379 . S
C1002 H986 0.931 . S
C1002 C996 1.383 . S
C1002 C1001 1.379 . S
H1003 C997 0.959 . S
H1004 C997 0.961 . S
H1005 C997 0.960 . S
H1006 C998 0.930 . S
H1007 C999 0.929 . S
H1008 C1016 0.929 . S
H1009 C1018 0.930 . S
H1010 C1020 0.930 . S
H1011 C1023 0.929 . S
H1012 C1026 0.930 . S
H1013 C1028 0.960 . S
H1014 C1028 0.960 . S
H1015 C1028 0.960 . S
C1016 H1008 0.929 . S
C1016 C1017 1.377 . S
C1016 C1018 1.384 . S
C1017 C1016 1.377 . S
C1017 C1023 1.390 . S
C1018 H1009 0.930 . S
C1018 C1016 1.384 . S
C1018 C1019 1.372 . S
C1019 C1018 1.372 . S
C1019 C1020 1.400 . S
C1019 C1024 1.490 . S
C1020 H1010 0.930 . S
C1020 C1019 1.400 . S
C1020 C1023 1.386 . S
H1021 C1037 0.930 . S
H1022 C1038 0.931 . S
C1023 H1011 0.929 . S
C1023 C1017 1.390 . S
C1023 C1020 1.386 . S
C1024 C1019 1.490 . S
C1024 C1026 1.395 . S
C1024 C1027 1.403 . S
H1025 C1031 0.930 . S
C1026 H1012 0.930 . S
C1026 C1024 1.395 . S
C1026 C1029 1.403 . S
C1027 C1024 1.403 . S
C1027 C1028 1.524 . S
C1027 C1031 1.400 . S
C1028 H1013 0.960 . S
C1028 H1014 0.960 . S
C1028 H1015 0.960 . S
C1028 C1027 1.524 . S
C1029 C1026 1.403 . S
C1029 C1030 1.392 . S
C1029 C1033 1.495 . S
C1030 C1029 1.392 . S
C1030 C1031 1.385 . S
C1030 C1032 1.478 . S
C1031 H1025 0.930 . S
C1031 C1027 1.400 . S
C1031 C1030 1.385 . S
C1032 C1030 1.478 . S
C1032 C1034 1.381 . S
C1032 C1038 1.383 . S
C1033 C1029 1.495 . S
C1033 H1039 0.959 . S
C1033 H1040 0.961 . S
C1033 H1041 0.960 . S
C1034 C1032 1.381 . S
C1034 C1035 1.394 . S
C1034 H1042 0.930 . S
C1035 C1034 1.394 . S
C1035 C1036 1.383 . S
C1035 H1043 0.929 . S
C1036 C1035 1.383 . S
C1036 C1037 1.377 . S
C1037 H1021 0.930 . S
C1037 C1036 1.377 . S
C1037 C1038 1.379 . S
C1038 H1022 0.931 . S
C1038 C1032 1.383 . S
C1038 C1037 1.379 . S
H1039 C1033 0.959 . S
H1040 C1033 0.961 . S
H1041 C1033 0.960 . S
H1042 C1034 0.930 . S
H1043 C1035 0.929 . S
H1044 C1052 0.929 . S
H1045 C1054 0.930 . S
H1046 C1056 0.930 . S
H1047 C1059 0.929 . S
H1048 C1062 0.930 . S
H1049 C1064 0.960 . S
H1050 C1064 0.960 . S
H1051 C1064 0.960 . S
C1052 H1044 0.929 . S
C1052 C1053 1.377 . S
C1052 C1054 1.384 . S
C1053 C1052 1.377 . S
C1053 C1059 1.390 . S
C1054 H1045 0.930 . S
C1054 C1052 1.384 . S
C1054 C1055 1.372 . S
C1055 C1054 1.372 . S
C1055 C1056 1.400 . S
C1055 C1060 1.490 . S
C1056 H1046 0.930 . S
C1056 C1055 1.400 . S
C1056 C1059 1.386 . S
H1057 C1073 0.930 . S
H1058 C1074 0.931 . S
C1059 H1047 0.929 . S
C1059 C1053 1.390 . S
C1059 C1056 1.386 . S
C1060 C1055 1.490 . S
C1060 C1062 1.395 . S
C1060 C1063 1.403 . S
H1061 C1067 0.930 . S
C1062 H1048 0.930 . S
C1062 C1060 1.395 . S
C1062 C1065 1.403 . S
C1063 C1060 1.403 . S
C1063 C1064 1.524 . S
C1063 C1067 1.400 . S
C1064 H1049 0.960 . S
C1064 H1050 0.960 . S
C1064 H1051 0.960 . S
C1064 C1063 1.524 . S
C1065 C1062 1.403 . S
C1065 C1066 1.392 . S
C1065 C1069 1.495 . S
C1066 C1065 1.392 . S
C1066 C1067 1.385 . S
C1066 C1068 1.478 . S
C1067 H1061 0.930 . S
C1067 C1063 1.400 . S
C1067 C1066 1.385 . S
C1068 C1066 1.478 . S
C1068 C1070 1.381 . S
C1068 C1074 1.383 . S
C1069 C1065 1.495 . S
C1069 H1075 0.959 . S
C1069 H1076 0.961 . S
C1069 H1077 0.960 . S
C1070 C1068 1.381 . S
C1070 C1071 1.394 . S
C1070 H1078 0.930 . S
C1071 C1070 1.394 . S
C1071 C1072 1.383 . S
C1071 H1079 0.929 . S
C1072 C1071 1.383 . S
C1072 C1073 1.377 . S
C1073 H1057 0.930 . S
C1073 C1072 1.377 . S
C1073 C1074 1.379 . S
C1074 H1058 0.931 . S
C1074 C1068 1.383 . S
C1074 C1073 1.379 . S
H1075 C1069 0.959 . S
H1076 C1069 0.961 . S
H1077 C1069 0.960 . S
H1078 C1070 0.930 . S
H1079 C1071 0.929 . S
H1080 C1088 0.929 . S
H1081 C1090 0.930 . S
H1082 C1092 0.930 . S
H1083 C1095 0.929 . S
H1084 C1098 0.930 . S
H1085 C1100 0.960 . S
H1086 C1100 0.960 . S
H1087 C1100 0.960 . S
C1088 H1080 0.929 . S
C1088 C1089 1.377 . S
C1088 C1090 1.384 . S
C1089 C1088 1.377 . S
C1089 C1095 1.390 . S
C1090 H1081 0.930 . S
C1090 C1088 1.384 . S
C1090 C1091 1.372 . S
C1091 C1090 1.372 . S
C1091 C1092 1.400 . S
C1091 C1096 1.490 . S
C1092 H1082 0.930 . S
C1092 C1091 1.400 . S
C1092 C1095 1.386 . S
H1093 C1109 0.930 . S
H1094 C1110 0.931 . S
C1095 H1083 0.929 . S
C1095 C1089 1.390 . S
C1095 C1092 1.386 . S
C1096 C1091 1.490 . S
C1096 C1098 1.395 . S
C1096 C1099 1.403 . S
H1097 C1103 0.930 . S
C1098 H1084 0.930 . S
C1098 C1096 1.395 . S
C1098 C1101 1.403 . S
C1099 C1096 1.403 . S
C1099 C1100 1.524 . S
C1099 C1103 1.400 . S
C1100 H1085 0.960 . S
C1100 H1086 0.960 . S
C1100 H1087 0.960 . S
C1100 C1099 1.524 . S
C1101 C1098 1.403 . S
C1101 C1102 1.392 . S
C1101 C1105 1.495 . S
C1102 C1101 1.392 . S
C1102 C1103 1.385 . S
C1102 C1104 1.478 . S
C1103 H1097 0.930 . S
C1103 C1099 1.400 . S
C1103 C1102 1.385 . S
C1104 C1102 1.478 . S
C1104 C1106 1.381 . S
C1104 C1110 1.383 . S
C1105 C1101 1.495 . S
C1105 H1111 0.959 . S
C1105 H1112 0.961 . S
C1105 H1113 0.960 . S
C1106 C1104 1.381 . S
C1106 C1107 1.394 . S
C1106 H1114 0.930 . S
C1107 C1106 1.394 . S
C1107 C1108 1.383 . S
C1107 H1115 0.929 . S
C1108 C1107 1.383 . S
C1108 C1109 1.377 . S
C1109 H1093 0.930 . S
C1109 C1108 1.377 . S
C1109 C1110 1.379 . S
C1110 H1094 0.931 . S
C1110 C1104 1.383 . S
C1110 C1109 1.379 . S
H1111 C1105 0.959 . S
H1112 C1105 0.961 . S
H1113 C1105 0.960 . S
H1114 C1106 0.930 . S
H1115 C1107 0.929 . S
H1116 C1124 0.929 . S
H1117 C1126 0.930 . S
H1118 C1128 0.930 . S
H1119 C1131 0.929 . S
H1120 C1134 0.930 . S
H1121 C1136 0.960 . S
H1122 C1136 0.960 . S
H1123 C1136 0.960 . S
C1124 H1116 0.929 . S
C1124 C1125 1.377 . S
C1124 C1126 1.384 . S
C1125 C1124 1.377 . S
C1125 C1131 1.390 . S
C1126 H1117 0.930 . S
C1126 C1124 1.384 . S
C1126 C1127 1.372 . S
C1127 C1126 1.372 . S
C1127 C1128 1.400 . S
C1127 C1132 1.490 . S
C1128 H1118 0.930 . S
C1128 C1127 1.400 . S
C1128 C1131 1.386 . S
H1129 C1145 0.930 . S
H1130 C1146 0.931 . S
C1131 H1119 0.929 . S
C1131 C1125 1.390 . S
C1131 C1128 1.386 . S
C1132 C1127 1.490 . S
C1132 C1134 1.395 . S
C1132 C1135 1.403 . S
H1133 C1139 0.930 . S
C1134 H1120 0.930 . S
C1134 C1132 1.395 . S
C1134 C1137 1.403 . S
C1135 C1132 1.403 . S
C1135 C1136 1.524 . S
C1135 C1139 1.400 . S
C1136 H1121 0.960 . S
C1136 H1122 0.960 . S
C1136 H1123 0.960 . S
C1136 C1135 1.524 . S
C1137 C1134 1.403 . S
C1137 C1138 1.392 . S
C1137 C1141 1.495 . S
C1138 C1137 1.392 . S
C1138 C1139 1.385 . S
C1138 C1140 1.478 . S
C1139 H1133 0.930 . S
C1139 C1135 1.400 . S
C1139 C1138 1.385 . S
C1140 C1138 1.478 . S
C1140 C1142 1.381 . S
C1140 C1146 1.383 . S
C1141 C1137 1.495 . S
C1141 H1147 0.959 . S
C1141 H1148 0.961 . S
C1141 H1149 0.960 . S
C1142 C1140 1.381 . S
C1142 C1143 1.394 . S
C1142 H1150 0.930 . S
C1143 C1142 1.394 . S
C1143 C1144 1.383 . S
C1143 H1151 0.929 . S
C1144 C1143 1.383 . S
C1144 C1145 1.377 . S
C1145 H1129 0.930 . S
C1145 C1144 1.377 . S
C1145 C1146 1.379 . S
C1146 H1130 0.931 . S
C1146 C1140 1.383 . S
C1146 C1145 1.379 . S
H1147 C1141 0.959 . S
H1148 C1141 0.961 . S
H1149 C1141 0.960 . S
H1150 C1142 0.930 . S
H1151 C1143 0.929 . S
C513 C494 1.433 . S
C532 C56 1.368 . S
C549 C74 1.429 . S
C568 C140 1.395 . S
C585 C158 1.433 . S
C604 C224 1.365 . S
C621 C242 1.430 . S
C640 C308 1.391 . S
C657 C392 1.398 . S
C676 C326 1.426 . S
C693 C476 1.399 . S
C712 C410 1.417 . S
C729 C58 1.312 . S
C748 C70 1.271 . S
C765 C142 1.322 . S
C784 C154 1.311 . S
C801 C226 1.311 . S
C820 C238 1.270 . S
C837 C310 1.318 . S
C856 C322 1.288 . S
C873 C406 1.305 . S
C892 C394 1.301 . S
C909 C478 1.318 . S
C928 C490 1.287 . S
C945 C67 1.311 . S
C964 C399 1.313 . S
C981 C151 1.298 . S
C1000 C483 1.344 . S
C1017 C63 1.340 . S
C1036 C235 1.308 . S
C1053 C147 1.341 . S
C1072 C319 1.291 . S
C1089 C403 1.302 . S
C1108 C231 1.374 . S
C1125 C315 1.353 . S
C1144 C487 1.287 . S
