# Generated by pormake.
# Topology wfz, (7)-cn, num edge types: 1
# Building blocks:
#     Node 0, Type 0, BuildingBlock: HICVOG_clean_sbu_0, # of connection points: 7
#     Node 1, Type 0, BuildingBlock: HICVOG_clean_sbu_0, # of connection points: 7
#     Node 2, Type 0, BuildingBlock: HICVOG_clean_sbu_0, # of connection points: 7
#     Node 3, Type 0, BuildingBlock: HICVOG_clean_sbu_0, # of connection points: 7
#     Node 4, Type 0, BuildingBlock: HICVOG_clean_sbu_0, # of connection points: 7
#     Node 5, Type 0, BuildingBlock: HICVOG_clean_sbu_0, # of connection points: 7
#     Node 6, Type 0, BuildingBlock: HICVOG_clean_sbu_0, # of connection points: 7
#     Node 7, Type 0, BuildingBlock: HICVOG_clean_sbu_0, # of connection points: 7
#     Edge 8, Type (0, 0), BuildingBlock: CIFDUS_clean_linker_0, # of connection points: 2
#     Edge 9, Type (0, 0), BuildingBlock: CIFDUS_clean_linker_0, # of connection points: 2
#     Edge 10, Type (0, 0), BuildingBlock: CIFDUS_clean_linker_0, # of connection points: 2
#     Edge 11, Type (0, 0), BuildingBlock: CIFDUS_clean_linker_0, # of connection points: 2
#     Edge 12, Type (0, 0), BuildingBlock: CIFDUS_clean_linker_0, # of connection points: 2
#     Edge 13, Type (0, 0), BuildingBlock: CIFDUS_clean_linker_0, # of connection points: 2
#     Edge 14, Type (0, 0), BuildingBlock: CIFDUS_clean_linker_0, # of connection points: 2
#     Edge 15, Type (0, 0), BuildingBlock: CIFDUS_clean_linker_0, # of connection points: 2
#     Edge 16, Type (0, 0), BuildingBlock: CIFDUS_clean_linker_0, # of connection points: 2
#     Edge 17, Type (0, 0), BuildingBlock: CIFDUS_clean_linker_0, # of connection points: 2
#     Edge 18, Type (0, 0), BuildingBlock: CIFDUS_clean_linker_0, # of connection points: 2
#     Edge 19, Type (0, 0), BuildingBlock: CIFDUS_clean_linker_0, # of connection points: 2
#     Edge 20, Type (0, 0), BuildingBlock: CIFDUS_clean_linker_0, # of connection points: 2
#     Edge 21, Type (0, 0), BuildingBlock: CIFDUS_clean_linker_0, # of connection points: 2
#     Edge 22, Type (0, 0), BuildingBlock: CIFDUS_clean_linker_0, # of connection points: 2
#     Edge 23, Type (0, 0), BuildingBlock: CIFDUS_clean_linker_0, # of connection points: 2
#     Edge 24, Type (0, 0), BuildingBlock: CIFDUS_clean_linker_0, # of connection points: 2
#     Edge 25, Type (0, 0), BuildingBlock: CIFDUS_clean_linker_0, # of connection points: 2
#     Edge 26, Type (0, 0), BuildingBlock: CIFDUS_clean_linker_0, # of connection points: 2
#     Edge 27, Type (0, 0), BuildingBlock: CIFDUS_clean_linker_0, # of connection points: 2
#     Edge 28, Type (0, 0), BuildingBlock: CIFDUS_clean_linker_0, # of connection points: 2
#     Edge 29, Type (0, 0), BuildingBlock: CIFDUS_clean_linker_0, # of connection points: 2
#     Edge 30, Type (0, 0), BuildingBlock: CIFDUS_clean_linker_0, # of connection points: 2
#     Edge 31, Type (0, 0), BuildingBlock: CIFDUS_clean_linker_0, # of connection points: 2
#     Edge 32, Type (0, 0), BuildingBlock: CIFDUS_clean_linker_0, # of connection points: 2
#     Edge 33, Type (0, 0), BuildingBlock: CIFDUS_clean_linker_0, # of connection points: 2
#     Edge 34, Type (0, 0), BuildingBlock: CIFDUS_clean_linker_0, # of connection points: 2
#     Edge 35, Type (0, 0), BuildingBlock: CIFDUS_clean_linker_0, # of connection points: 2
# Relax obj value: 0.181
# Max RMSD: 0.261
# Mean RMSD: 0.261
data_MOF--net-wfz--node1-HICVOG_clean_sbu_0--edge1-CIFDUS_clean_linker_0
_symmetry_space_group_name_H-M    P1
_symmetry_Int_Tables_number       1
_symmetry_cell_setting            triclinic
loop_
_symmetry_equiv_pos_as_xyz
'x, y, z'
_cell_length_a     21.121842
_cell_length_b     21.222823
_cell_length_c     56.399434
_cell_angle_alpha  90.155762
_cell_angle_beta   90.491657
_cell_angle_gamma 89.976573
loop_
_atom_site_label
_atom_site_type_symbol
_atom_site_fract_x
_atom_site_fract_y
_atom_site_fract_z
_atom_type_partial_charge
Zn0 Zn 0.23898 0.50699 0.40052 0.0
C1 C 0.36215 0.46935 0.44912 0.0
N2 N 0.36542 0.41488 0.43708 0.0
C3 C 0.34004 0.4288 0.41587 0.0
N4 N 0.32097 0.48948 0.4151 0.0
N5 N 0.33696 0.51611 0.43561 0.0
C6 C 0.28288 0.66823 0.47641 0.0
O7 O 0.23993 0.6746 0.45962 0.0
O8 O 0.229 0.46085 0.36871 0.0
Zn9 Zn 0.35131 0.60833 0.4377 0.0
N10 N 0.17315 0.47473 0.42156 0.0
C11 C 0.13711 0.44951 0.46036 0.0
C12 C 0.18235 0.47594 0.44546 0.0
C13 C 0.11917 0.44974 0.41208 0.0
N14 N 0.08382 0.42359 0.45085 0.0
C15 C 0.07311 0.42356 0.42704 0.0
O16 O 0.29132 0.65894 0.41579 0.0
C17 C 0.24426 0.65347 0.40148 0.0
O18 O 0.22247 0.59979 0.39544 0.0
H19 H 0.22456 0.49682 0.45297 0.0
H20 H 0.11269 0.44896 0.39306 0.0
C21 C 0.46472 0.68239 0.42271 0.0
C22 C 0.52951 0.68794 0.41637 0.0
C23 C 0.54225 0.57805 0.42281 0.0
C24 C 0.47904 0.57298 0.42901 0.0
N25 N 0.44088 0.62467 0.42889 0.0
N26 N 0.56574 0.63491 0.41669 0.0
H27 H 0.43346 0.72273 0.4224 0.0
C28 C 0.18889 0.48098 0.35349 0.0
O29 O 0.15708 0.53262 0.35827 0.0
O30 O 0.33528 0.6416 0.4714 0.0
H31 H 0.46098 0.52753 0.43375 0.0
H32 H 0.14438 0.44953 0.47937 0.0
H33 H 0.57258 0.53696 0.42282 0.0
Zn34 Zn 0.9947 0.84959 0.68454 0.0
C35 C 0.17261 0.86426 0.66728 0.0
N36 N 0.17512 0.90089 0.6868 0.0
C37 C 0.12139 0.886 0.69805 0.0
N38 N 0.08687 0.84342 0.6856 0.0
N39 N 0.12012 0.82827 0.66664 0.0
C40 C 0.1306 0.77754 0.59942 0.0
O41 O 0.0765 0.80704 0.60235 0.0
O42 O 0.96178 0.83349 0.71825 0.0
Zn43 Zn 0.10953 0.75 0.64875 0.0
N44 N 0.97619 0.93043 0.66854 0.0
C45 C 1.01175 0.98585 0.63442 0.0
C46 C 1.01328 0.93341 0.64896 0.0
C47 C 0.93342 0.97739 0.67321 0.0
N48 N 0.97058 0.03274 0.63919 0.0
C49 C 0.93042 0.03044 0.65789 0.0
O50 O 1.01836 0.7251 0.64156 0.0
C51 C 0.96294 0.74069 0.64809 0.0
O52 O 0.95363 0.78422 0.66325 0.0
H53 H 0.04353 0.89459 0.64432 0.0
H54 H 0.90235 0.97345 0.68828 0.0
C55 C 0.16408 0.62801 0.65701 0.0
C56 C 0.19019 0.57889 0.67071 0.0
C57 C 0.17562 0.64073 0.70536 0.0
C58 C 0.14987 0.68915 0.69168 0.0
N59 N 0.14495 0.68212 0.66777 0.0
N60 N 0.19558 0.58706 0.6946 0.0
H61 H 0.16029 0.62417 0.63791 0.0
C62 C 0.97202 0.77557 0.723 0.0
O63 O 0.99637 0.73993 0.70631 0.0
O64 O 0.15659 0.75156 0.61732 0.0
H65 H 0.13422 0.73205 0.70006 0.0
H66 H 0.042 0.98871 0.61907 0.0
H67 H 0.18008 0.6459 0.72439 0.0
Zn68 Zn 0.75654 0.49461 0.93482 0.0
C69 C 0.75597 0.67677 0.91791 0.0
N70 N 0.71902 0.6829 0.93695 0.0
C71 C 0.72618 0.62766 0.94822 0.0
N72 N 0.76496 0.58789 0.9362 0.0
N73 N 0.78494 0.62022 0.91754 0.0
C74 C 0.89989 0.64073 0.85279 0.0
O75 O 0.936 0.59123 0.85647 0.0
O76 O 0.76486 0.45222 0.96785 0.0
Zn77 Zn 0.86349 0.60768 0.90028 0.0
N78 N 0.67592 0.47736 0.91784 0.0
C79 C 0.61683 0.51622 0.88478 0.0
C80 C 0.66982 0.51815 0.89942 0.0
C81 C 0.63173 0.43094 0.92123 0.0
N82 N 0.57262 0.47135 0.88832 0.0
C83 C 0.57812 0.42772 0.90585 0.0
O84 O 0.88521 0.51674 0.89295 0.0
C85 C 0.86771 0.46189 0.89913 0.0
O86 O 0.82301 0.45353 0.91384 0.0
H87 H 0.70672 0.55153 0.89578 0.0
H88 H 0.63824 0.39727 0.93541 0.0
C89 C 0.98704 0.66041 0.90998 0.0
C90 C 0.03615 0.68505 0.9243 0.0
C91 C 0.97306 0.66798 0.95827 0.0
C92 C 0.92475 0.64329 0.94399 0.0
N93 N 0.93231 0.64047 0.92009 0.0
N94 N 0.02732 0.68864 0.94814 0.0
H95 H 0.99163 0.65852 0.89093 0.0
C96 C 0.82003 0.43355 0.97415 0.0
O97 O 0.86705 0.44137 0.95936 0.0
O98 O 0.86219 0.65775 0.86911 0.0
H99 H 0.88145 0.62684 0.95193 0.0
H100 H 0.61144 0.54927 0.87033 0.0
H101 H 0.96735 0.67097 0.97728 0.0
Zn102 Zn 0.08754 0.2345 0.19353 0.0
C103 C 0.93105 0.18092 0.15887 0.0
N104 N 0.92703 0.14099 0.17731 0.0
C105 C 0.97115 0.16307 0.19237 0.0
N106 N 1.00179 0.21314 0.18323 0.0
N107 N 0.97474 0.2265 0.16251 0.0
C108 C 0.9717 0.30214 0.09535 0.0
O109 O 0.03094 0.28449 0.0981 0.0
O110 O 0.09005 0.27957 0.22555 0.0
Zn111 Zn 0.98035 0.30951 0.14707 0.0
N112 N 0.13384 0.15435 0.19828 0.0
C113 C 0.14654 0.06873 0.22517 0.0
C114 C 0.12186 0.12771 0.21966 0.0
C115 C 0.17282 0.12489 0.1824 0.0
N116 N 0.18421 0.03899 0.20936 0.0
C117 C 0.19904 0.06517 0.18812 0.0
O118 O 0.07161 0.33989 0.14411 0.0
C119 C 0.126 0.32928 0.15331 0.0
O120 O 0.13393 0.29056 0.17037 0.0
H121 H 0.09254 0.152 0.23235 0.0
H122 H 0.18254 0.14701 0.16555 0.0
C123 C 0.91506 0.42699 0.15614 0.0
C124 C 0.8808 0.47121 0.16977 0.0
C125 C 0.8878 0.40196 0.20271 0.0
C126 C 0.92129 0.35856 0.1891 0.0
N127 N 0.93452 0.37173 0.16612 0.0
N128 N 0.86813 0.45684 0.19276 0.0
H129 H 0.92491 0.43529 0.13762 0.0
C130 C 0.07866 0.33806 0.22797 0.0
O131 O 0.06066 0.37072 0.20935 0.0
O132 O 0.93887 0.31203 0.11381 0.0
H133 H 0.93637 0.31461 0.19677 0.0
H134 H 0.13615 0.04683 0.24199 0.0
H135 H 0.87709 0.39188 0.22104 0.0
Zn136 Zn 0.84784 0.02461 0.33404 0.0
C137 C 0.84263 0.20093 0.3617 0.0
N138 N 0.86598 0.21929 0.34094 0.0
C139 C 0.86375 0.16739 0.32737 0.0
N140 N 0.84058 0.11724 0.33977 0.0
N141 N 0.82527 0.13981 0.36104 0.0
C142 C 0.76541 0.12505 0.42916 0.0
O143 O 0.79101 0.0694 0.42567 0.0
O144 O 0.81636 1.00035 0.30058 0.0
Zn145 Zn 0.74965 0.1159 0.37838 0.0
N146 N 0.93849 1.00118 0.33925 0.0
C147 C 0.04432 0.04046 0.34008 0.0
C148 C 0.98003 0.04949 0.33631 0.0
C149 C 0.95988 0.94333 0.34666 0.0
N150 N 0.06536 0.98358 0.34737 0.0
C151 C 0.02567 0.93416 0.35107 0.0
O152 O 0.73624 0.02281 0.38212 0.0
C153 C 0.75263 0.97112 0.37256 0.0
O154 O 0.79236 0.96951 0.3556 0.0
H155 H 0.96385 0.09551 0.3314 0.0
H156 H 0.92611 0.906 0.3497 0.0
C157 C 0.64207 0.19622 0.36665 0.0
C158 C 0.58528 0.21045 0.35443 0.0
C159 C 0.60047 0.12038 0.3301 0.0
C160 C 0.656 0.10603 0.34248 0.0
N161 N 0.6758 0.14405 0.36048 0.0
N162 N 0.56614 0.17169 0.33649 0.0
H163 H 0.65794 0.22462 0.38152 0.0
C164 C 0.77472 0.03414 0.29023 0.0
O165 O 0.75465 0.08534 0.3009 0.0
O166 O 0.74607 0.1562 0.41126 0.0
H167 H 0.68254 0.06403 0.33816 0.0
H168 H 0.07736 0.07877 0.33758 0.0
H169 H 0.58412 0.0903 0.3158 0.0
Zn170 Zn 0.5931 0.33808 0.59125 0.0
C171 C 0.40845 0.34123 0.60649 0.0
N172 N 0.40203 0.37038 0.58561 0.0
C173 C 0.45879 0.36273 0.57548 0.0
N174 N 0.49949 0.33035 0.58975 0.0
N175 N 0.4667 0.31588 0.60896 0.0
C176 C 0.448 0.25452 0.67631 0.0
O177 O 0.50074 0.2873 0.67694 0.0
O178 O 0.6308 0.32436 0.55837 0.0
Zn179 Zn 0.48073 0.23988 0.62674 0.0
N180 N 0.61065 0.42413 0.60251 0.0
C181 C 0.56711 0.51675 0.61985 0.0
C182 C 0.55982 0.4561 0.61108 0.0
C183 C 0.6696 0.4508 0.60286 0.0
N184 N 0.62534 0.54314 0.62022 0.0
C185 C 0.67755 0.51246 0.61213 0.0
O186 O 0.56976 0.2246 0.63623 0.0
C187 C 0.62642 0.23748 0.63083 0.0
O188 O 0.63918 0.27702 0.61448 0.0
H189 H 0.51362 0.43486 0.61141 0.0
H190 H 0.70914 0.42425 0.59601 0.0
C191 C 0.40765 0.13441 0.61056 0.0
C192 C 0.39657 0.07949 0.59722 0.0
C193 C 0.48951 0.09948 0.57527 0.0
C194 C 0.5006 0.15384 0.58869 0.0
N195 N 0.45981 0.16977 0.60623 0.0
N196 N 0.43823 0.06308 0.58001 0.0
H197 H 0.3765 0.1476 0.62489 0.0
C198 C 0.65749 0.27227 0.55325 0.0
O199 O 0.66245 0.22889 0.56972 0.0
O200 O 0.42824 0.2324 0.6566 0.0
H201 H 0.54206 0.18241 0.58555 0.0
H202 H 0.5269 0.54255 0.62661 0.0
H203 H 0.52198 0.08579 0.56144 0.0
Zn204 Zn 0.26846 0.08751 0.84076 0.0
C205 C 0.26088 0.90447 0.859 0.0
N206 N 0.22124 0.89846 0.84064 0.0
C207 C 0.22581 0.95344 0.82914 0.0
N208 N 0.26731 0.99328 0.84044 0.0
N209 N 0.29004 0.96091 0.85884 0.0
C210 C 0.36618 0.94484 0.92472 0.0
O211 O 0.34549 1.00319 0.92551 0.0
O212 O 0.28974 0.1237 0.80806 0.0
Zn213 Zn 0.37024 0.97393 0.87504 0.0
N214 N 0.18402 0.11203 0.85276 0.0
C215 C 0.09708 0.07329 0.87512 0.0
C216 C 0.15598 0.06461 0.86506 0.0
C217 C 0.1555 0.16994 0.85114 0.0
N218 N 0.06879 0.13013 0.87342 0.0
C219 C 0.09575 0.17957 0.86197 0.0
O220 O 0.38956 0.06224 0.88439 0.0
C221 C 0.37593 0.11851 0.87886 0.0
O222 O 0.33372 0.1307 0.86317 0.0
H223 H 0.17931 0.02011 0.8676 0.0
H224 H 0.17907 0.20751 0.84178 0.0
C225 C 0.47603 0.90066 0.85903 0.0
C226 C 0.53152 0.89066 0.84596 0.0
C227 C 0.50803 0.98107 0.82295 0.0
C228 C 0.45348 0.99143 0.83624 0.0
N229 N 0.43876 0.95126 0.85408 0.0
N230 N 0.54629 0.93149 0.8283 0.0
H231 H 0.46428 0.87034 0.87375 0.0
C232 C 0.31894 0.09047 0.79281 0.0
O233 O 0.33399 0.03202 0.79794 0.0
O234 O 0.37813 0.92029 0.90466 0.0
H235 H 0.42418 0.03231 0.83292 0.0
H236 H 0.07445 0.0355 0.8847 0.0
H237 H 0.52066 1.01306 0.80886 0.0
Zn238 Zn 0.59293 0.82787 0.12778 0.0
C239 C 0.62593 0.71591 0.07678 0.0
N240 N 0.68163 0.70955 0.08808 0.0
C241 C 0.66968 0.72911 0.11019 0.0
N242 N 0.60886 0.74825 0.11223 0.0
N243 N 0.58019 0.73753 0.09157 0.0
C244 C 0.42623 0.81783 0.05635 0.0
O245 O 0.41408 0.84813 0.0761 0.0
O246 O 0.64417 0.83915 0.15833 0.0
Zn247 Zn 0.48613 0.73098 0.08928 0.0
N248 N 0.61653 0.89448 0.10606 0.0
C249 C 0.58679 0.96457 0.07499 0.0
C250 C 0.57387 0.91251 0.08924 0.0
C251 C 0.67244 0.92542 0.10881 0.0
N252 N 0.64176 0.99685 0.07824 0.0
C253 C 0.68534 0.97833 0.0947 0.0
O254 O 0.43637 0.78134 0.11478 0.0
C255 C 0.44604 0.82486 0.13011 0.0
O256 O 0.50148 0.84402 0.13529 0.0
H257 H 0.52964 0.88744 0.08731 0.0
H258 H 0.70527 0.9106 0.12254 0.0
C259 C 0.40738 0.61923 0.10066 0.0
C260 C 0.39661 0.55345 0.10196 0.0
C261 C 0.49646 0.53538 0.08421 0.0
C262 C 0.50699 0.59981 0.08314 0.0
N263 N 0.46289 0.64096 0.09135 0.0
N264 N 0.44198 0.51386 0.09361 0.0
H265 H 0.37303 0.65249 0.10737 0.0
C266 C 0.63593 0.89184 0.16874 0.0
O267 O 0.59605 0.93232 0.15925 0.0
O268 O 0.45549 0.7654 0.05739 0.0
H269 H 0.55054 0.61639 0.07594 0.0
H270 H 0.55286 0.97987 0.06172 0.0
H271 H 0.53154 0.50254 0.07774 0.0
H272 H 0.45231 0.45021 0.39697 0.0
H273 H 0.28957 0.32906 0.39137 0.0
H274 H 0.35171 0.25213 0.36868 0.0
H275 H 0.45694 0.21232 0.35676 0.0
H276 H 0.62181 0.32917 0.3677 0.0
H277 H 0.55491 0.41453 0.38233 0.0
C278 C 0.42993 0.40807 0.38986 0.0
C279 C 0.3663 0.39564 0.39526 0.0
C280 C 0.46719 0.36239 0.37861 0.0
C281 C 0.33806 0.34009 0.38684 0.0
C282 C 0.37398 0.29575 0.37429 0.0
C283 C 0.47802 0.25685 0.36203 0.0
C284 C 0.54436 0.26407 0.3615 0.0
C285 C 0.43932 0.30514 0.37108 0.0
C286 C 0.5711 0.32192 0.36842 0.0
C287 C 0.53281 0.3709 0.37662 0.0
H288 H 0.40027 0.95535 0.60816 0.0
H289 H 0.27288 0.11241 0.59925 0.0
H290 H 0.18588 0.05017 0.61526 0.0
H291 H 0.15216 0.95951 0.63832 0.0
H292 H 0.28141 0.80723 0.65227 0.0
H293 H 0.3615 0.85768 0.62724 0.0
C294 C 0.35298 0.97506 0.60922 0.0
C295 C 0.34265 0.03826 0.60281 0.0
C296 C 0.30389 0.93977 0.6194 0.0
C297 C 0.28164 0.06397 0.60435 0.0
C298 C 0.23207 0.02845 0.61348 0.0
C299 C 0.19693 0.93621 0.63496 0.0
C300 C 0.21105 0.87967 0.64663 0.0
C301 C 0.24336 0.9674 0.62194 0.0
C302 C 0.2696 0.85035 0.64299 0.0
C303 C 0.31547 0.87969 0.629 0.0
H304 H 0.65553 0.90007 0.85828 0.0
H305 H 0.50423 0.76619 0.84817 0.0
H306 H 0.57095 0.68214 0.86428 0.0
H307 H 0.6634 0.65219 0.88756 0.0
H308 H 0.80909 0.78766 0.90334 0.0
H309 H 0.75505 0.86566 0.87815 0.0
C310 C 0.63804 0.85209 0.85915 0.0
C311 C 0.57519 0.83898 0.85226 0.0
C312 C 0.67586 0.80462 0.86941 0.0
C313 C 0.55235 0.77709 0.8536 0.0
C314 C 0.59046 0.72918 0.86276 0.0
C315 C 0.68498 0.69765 0.88444 0.0
C316 C 0.74081 0.71383 0.89666 0.0
C317 C 0.65127 0.74296 0.87151 0.0
C318 C 0.76692 0.77392 0.89356 0.0
C319 C 0.73539 0.81867 0.8795 0.0
H320 H 0.94445 0.08345 0.13031 0.0
H321 H 0.83074 0.24884 0.14147 0.0
H322 H 0.74436 0.20202 0.11786 0.0
H323 H 0.69434 0.10444 0.1021 0.0
H324 H 0.80604 0.93505 0.0965 0.0
H325 H 0.90017 0.99228 0.10982 0.0
C326 C 0.90173 0.11027 0.12657 0.0
C327 C 0.89375 0.16945 0.13726 0.0
C328 C 0.85126 0.0811 0.11466 0.0
C329 C 0.83808 0.20365 0.13293 0.0
C330 C 0.78837 0.17625 0.11986 0.0
C331 C 0.73977 0.08075 0.10326 0.0
C332 C 0.74347 1.01561 0.09868 0.0
C333 C 0.79319 0.11353 0.11188 0.0
C334 C 0.8022 0.98498 0.1003 0.0
C335 C 0.85592 1.0177 0.10785 0.0
H336 H 1.0205 0.31069 0.4384 0.0
H337 H 0.99394 0.47343 0.39378 0.0
H338 H 0.90387 0.42263 0.37418 0.0
H339 H 0.84544 0.32644 0.3652 0.0
H340 H 0.88319 0.1575 0.40501 0.0
H341 H 0.95254 0.21665 0.432 0.0
C342 C 0.99413 0.33524 0.42466 0.0
C343 C 1.01439 0.39519 0.4172 0.0
C344 C 0.94367 0.30467 0.41285 0.0
C345 C 0.98 0.42673 0.39943 0.0
C346 C 0.92828 0.39786 0.38834 0.0
C347 C 0.86698 0.30314 0.38037 0.0
C348 C 0.85891 0.2378 0.38317 0.0
C349 C 0.91128 0.33605 0.3943 0.0
C350 C 0.88732 0.20798 0.40276 0.0
C351 C 0.92841 0.24158 0.41782 0.0
H352 H 0.29486 0.5132 0.68368 0.0
H353 H 0.14063 0.51298 0.63302 0.0
H354 H 0.18915 0.42516 0.61183 0.0
H355 H 0.28303 0.36073 0.60416 0.0
H356 H 0.44351 0.37225 0.65149 0.0
H357 H 0.38386 0.43971 0.67834 0.0
C358 C 0.27133 0.49311 0.66825 0.0
C359 C 0.21506 0.5206 0.6596 0.0
C360 C 0.30037 0.44361 0.6558 0.0
C361 C 0.18494 0.49395 0.63964 0.0
C362 C 0.2124 0.44338 0.62762 0.0
C363 C 0.30389 0.37605 0.62086 0.0
C364 C 0.36698 0.35992 0.62621 0.0
C365 C 0.27121 0.41944 0.63504 0.0
C366 C 0.39414 0.38122 0.64757 0.0
C367 C 0.36054 0.42154 0.66256 0.0
H368 H 0.25304 0.77893 0.85826 0.0
H369 H 0.23991 0.9395 0.9047 0.0
H370 H 0.17539 0.87882 0.9322 0.0
H371 H 0.10195 0.78949 0.93762 0.0
H372 H 0.10385 0.63542 0.88756 0.0
H373 H 0.19175 0.68408 0.86664 0.0
C374 C 0.23854 0.79947 0.87501 0.0
C375 C 0.25217 0.86317 0.87967 0.0
C376 C 0.1965 0.76622 0.88947 0.0
C377 C 0.23208 0.88994 0.90112 0.0
C378 C 0.19345 0.85569 0.91649 0.0
C379 C 0.12256 0.76601 0.92243 0.0
C380 C 0.0953 0.70981 0.91377 0.0
C381 C 0.17207 0.79527 0.91004 0.0
C382 C 0.12266 0.67967 0.89415 0.0
C383 C 0.1733 0.70722 0.88228 0.0
H384 H 0.77516 0.5363 0.18288 0.0
H385 H 0.93185 0.54352 0.13423 0.0
H386 H 0.88553 0.6355 0.1151 0.0
H387 H 0.79432 0.7043 0.10862 0.0
H388 H 0.63363 0.69345 0.15502 0.0
H389 H 0.68933 0.61539 0.17944 0.0
C390 C 0.79967 0.55844 0.16828 0.0
C391 C 0.85603 0.53132 0.15956 0.0
C392 C 0.77237 0.61143 0.15715 0.0
C393 C 0.88731 0.56138 0.1408 0.0
C394 C 0.86119 0.61466 0.13 0.0
C395 C 0.77219 0.68632 0.12453 0.0
C396 C 0.70958 0.70413 0.12981 0.0
C397 C 0.80284 0.63876 0.13752 0.0
C398 C 0.68179 0.68084 0.15056 0.0
C399 C 0.71326 0.63524 0.16427 0.0
H400 H 0.24029 0.71745 0.58617 0.0
H401 H 0.07809 0.81676 0.5578 0.0
H402 H 0.11228 0.79368 0.51763 0.0
H403 H 0.18412 0.74051 0.49041 0.0
H404 H 0.34848 0.64338 0.51773 0.0
H405 H 0.31763 0.67038 0.55831 0.0
C406 C 0.21275 0.73451 0.5712 0.0
C407 C 0.15625 0.76839 0.57514 0.0
C408 C 0.23276 0.72102 0.54789 0.0
C409 C 0.12152 0.79041 0.55545 0.0
C410 C 0.14095 0.77709 0.53238 0.0
C411 C 0.21351 0.72537 0.5052 0.0
C412 C 0.26801 0.68893 0.50098 0.0
C413 C 0.19583 0.74161 0.52839 0.0
C414 C 0.30588 0.67074 0.52043 0.0
C415 C 0.28825 0.68627 0.54366 0.0
H416 H 0.97932 0.61583 0.81675 0.0
H417 H 0.83309 0.7458 0.83781 0.0
H418 H 0.84376 0.80203 0.80001 0.0
H419 H 0.89396 0.81215 0.76003 0.0
H420 H 0.03851 0.67806 0.74053 0.0
H421 H 0.02943 0.62647 0.77857 0.0
C422 C 0.94958 0.65646 0.8132 0.0
C423 C 0.90527 0.67619 0.83013 0.0
C424 C 0.9558 0.68815 0.79156 0.0
C425 C 0.86752 0.72929 0.82509 0.0
C426 C 0.87367 0.76153 0.80346 0.0
C427 C 0.92354 0.7719 0.76425 0.0
C428 C 0.96634 0.74876 0.74723 0.0
C429 C 0.91757 0.74121 0.78642 0.0
C430 C 1.0044 0.69648 0.75301 0.0
C431 C 0.99947 0.66681 0.77487 0.0
H432 H 0.92344 0.36695 0.98748 0.0
H433 H 0.74771 0.43937 0.01474 0.0
H434 H 0.77709 0.40261 0.05463 0.0
H435 H 0.85656 0.35464 0.08225 0.0
H436 H 0.03111 0.28236 0.05348 0.0
H437 H 0.99805 0.31388 0.0139 0.0
C438 C 0.89119 0.37452 1.00208 0.0
C439 C 0.83362 0.40649 0.99807 0.0
C440 C 0.90837 0.35325 0.02485 0.0
C441 C 0.79232 0.41501 0.01725 0.0
C442 C 0.80928 0.39412 0.04011 0.0
C443 C 0.88703 0.34521 0.06728 0.0
C444 C 0.94669 0.3164 0.07107 0.0
C445 C 0.86771 0.36384 0.04422 0.0
C446 C 0.98528 0.30462 0.05134 0.0
C447 C 0.96644 0.32275 0.02857 0.0
H448 H 0.1509 0.29746 0.26544 0.0
H449 H 0.03297 0.45186 0.24217 0.0
H450 H 0.0564 0.509 0.27883 0.0
H451 H 0.11219 0.51668 0.31698 0.0
H452 H 0.23339 0.36461 0.34009 0.0
H453 H 0.20728 0.30538 0.30399 0.0
C454 C 0.12994 0.3434 0.26849 0.0
C455 C 0.09014 0.37029 0.25104 0.0
C456 C 0.14467 0.37672 0.2895 0.0
C457 C 0.06388 0.43011 0.25521 0.0
C458 C 0.07732 0.4629 0.27619 0.0
C459 C 0.13305 0.47059 0.31418 0.0
C460 C 0.17485 0.44531 0.33129 0.0
C461 C 0.11809 0.43697 0.29335 0.0
C462 C 0.20133 0.38546 0.32723 0.0
C463 C 0.18623 0.35143 0.3066 0.0
H464 H 0.62995 1.00219 0.19276 0.0
H465 H 0.7189 0.81923 0.19495 0.0
H466 H 0.77217 0.84761 0.23229 0.0
H467 H 0.79073 0.92406 0.26508 0.0
H468 H 0.69911 0.1059 0.26206 0.0
H469 H 0.65016 0.07825 0.22429 0.0
C470 C 0.66102 0.96832 0.20131 0.0
C471 C 0.67002 0.90848 0.19107 0.0
C472 C 0.69115 0.98483 0.22272 0.0
C473 C 0.71087 0.86556 0.20245 0.0
C474 C 0.74136 0.8818 0.22382 0.0
C475 C 0.76034 0.95769 0.25607 0.0
C476 C 0.74845 1.01691 0.26656 0.0
C477 C 0.73151 0.94124 0.23424 0.0
C478 C 0.70891 0.05988 0.25459 0.0
C479 C 0.68077 0.04414 0.23293 0.0
H480 H 0.72445 0.17065 0.53851 0.0
H481 H 0.63856 0.34204 0.51277 0.0
H482 H 0.66618 0.31318 0.47207 0.0
H483 H 0.71062 0.23614 0.44355 0.0
H484 H 0.79728 0.06585 0.47027 0.0
H485 H 0.77397 0.09781 0.51071 0.0
C486 C 0.71198 0.20201 0.52406 0.0
C487 C 0.67872 0.2581 0.52873 0.0
C488 C 0.72819 0.18524 0.50077 0.0
C489 C 0.66369 0.29833 0.50972 0.0
C490 C 0.67949 0.28181 0.48641 0.0
C491 C 0.72481 0.20627 0.45823 0.0
C492 C 0.75527 0.14833 0.45374 0.0
C493 C 0.71108 0.22491 0.48167 0.0
C494 C 0.77355 0.11048 0.47306 0.0
C495 C 0.76016 0.12866 0.49627 0.0
H496 H 0.35557 0.20906 0.781 0.0
H497 H 0.31287 0.02653 0.75123 0.0
H498 H 0.34179 0.06376 0.71179 0.0
H499 H 0.3871 0.14564 0.6863 0.0
H500 H 0.44065 0.32462 0.71667 0.0
H501 H 0.39933 0.29199 0.75519 0.0
C502 C 0.35201 0.17786 0.76578 0.0
C503 C 0.33231 0.11523 0.76893 0.0
C504 C 0.37096 0.19897 0.74328 0.0
C505 C 0.32847 0.07484 0.7492 0.0
C506 C 0.34488 0.09612 0.72666 0.0
C507 C 0.38871 0.1778 0.70128 0.0
C508 C 0.41655 0.2375 0.6987 0.0
C509 C 0.3673 0.15772 0.72355 0.0
C510 C 0.41944 0.27838 0.71831 0.0
C511 C 0.39595 0.25969 0.74032 0.0
H512 H 0.4443 0.77124 1.01141 0.0
H513 H 0.36784 0.93037 0.04961 0.0
H514 H 0.34094 0.98187 0.01249 0.0
H515 H 0.3413 0.984 0.96936 0.0
H516 H 0.41729 0.82662 0.93024 0.0
H517 H 0.44168 0.77223 0.96747 0.0
C518 C 0.42151 0.81703 1.01158 0.0
C519 C 0.40829 0.84677 0.03335 0.0
C520 C 0.40602 0.84686 0.99 0.0
C521 C 0.37868 0.90617 0.03321 0.0
C522 C 0.36321 0.93586 1.01194 0.0
C523 C 0.36294 0.93766 0.96889 0.0
C524 C 0.37767 0.90964 0.94702 0.0
C525 C 0.37699 0.90691 0.99027 0.0
C526 C 0.40548 0.84938 0.94683 0.0
C527 C 0.41956 0.81828 0.96812 0.0
H528 H 0.64498 0.96052 0.39895 0.0
H529 H 0.7839 0.84905 0.36186 0.0
H530 H 0.72569 0.75318 0.37153 0.0
H531 H 0.63556 0.70108 0.39003 0.0
H532 H 0.49604 0.8116 0.42726 0.0
H533 H 0.55375 0.90773 0.4175 0.0
C534 C 0.66297 0.91525 0.39312 0.0
C535 C 0.71932 0.91229 0.37977 0.0
C536 C 0.62865 0.86014 0.39847 0.0
C537 C 0.74105 0.85303 0.37218 0.0
C538 C 0.7076 0.79811 0.37766 0.0
C539 C 0.61739 0.74606 0.3961 0.0
C540 C 0.56086 0.74837 0.40933 0.0
C541 C 0.65127 0.80115 0.39068 0.0
C542 C 0.53845 0.80765 0.41674 0.0
C543 C 0.57195 0.86287 0.41135 0.0
H544 H 0.75502 0.25795 0.63143 0.0
H545 H 0.61196 0.12829 0.65549 0.0
H546 H 0.69323 0.0561 0.6695 0.0
H547 H 0.80506 0.02302 0.67042 0.0
H548 H 0.94834 0.15346 0.64741 0.0
H549 H 0.86751 0.2317 0.63814 0.0
C550 C 0.74166 0.21434 0.64003 0.0
C551 C 0.67727 0.19859 0.64199 0.0
C552 C 0.78891 0.17263 0.64832 0.0
C553 C 0.66103 0.14197 0.65352 0.0
C554 C 0.70759 0.10025 0.66157 0.0
C555 C 0.81879 0.06931 0.66421 0.0
C556 C 0.88277 0.08193 0.65946 0.0
C557 C 0.77176 0.11421 0.65853 0.0
C558 C 0.89937 0.14216 0.65107 0.0
C559 C 0.8531 0.18696 0.64558 0.0
H560 H 0.5916 0.30136 0.9163 0.0
H561 H 0.45356 0.44085 0.89538 0.0
H562 H 0.37711 0.35837 0.88615 0.0
H563 H 0.35296 0.24602 0.87964 0.0
H564 H 0.48988 0.10632 0.90151 0.0
H565 H 0.56202 0.18881 0.91476 0.0
C566 C 0.54421 0.31382 0.91046 0.0
C567 C 0.52881 0.37746 0.90642 0.0
C568 C 0.50015 0.2658 0.90485 0.0
C569 C 0.46712 0.3923 0.89849 0.0
C570 C 0.42324 0.34508 0.89306 0.0
C571 C 0.39825 0.23361 0.88755 0.0
C572 C 0.41585 0.16983 0.88924 0.0
C573 C 0.43987 0.28153 0.89538 0.0
C574 C 0.4747 0.15487 0.89984 0.0
C575 C 0.51636 0.20215 0.90743 0.0
H576 H 0.20255 0.93928 0.17921 0.0
H577 H 0.29936 0.11274 0.1633 0.0
H578 H 0.38423 0.05326 0.14412 0.0
H579 H 0.43456 0.9514 0.13428 0.0
H580 H 0.33467 0.77821 0.14755 0.0
H581 H 0.24746 0.83786 0.16545 0.0
C582 C 0.24176 0.96412 0.17119 0.0
C583 C 0.24444 0.03054 0.17269 0.0
C584 C 0.29025 0.9295 0.16006 0.0
C585 C 0.29551 0.06193 0.16215 0.0
C586 C 0.34445 0.02779 0.1514 0.0
C587 C 0.3936 0.92675 0.14111 0.0
C588 C 0.39158 0.86031 0.14007 0.0
C589 C 0.34295 0.96155 0.15069 0.0
C590 C 0.33758 0.82913 0.14837 0.0
C591 C 0.28777 0.8633 0.15857 0.0
H592 H 0.13616 0.92224 0.37525 0.0
H593 H 0.98204 0.81045 0.34702 0.0
H594 H 0.0365 0.71433 0.35983 0.0
H595 H 0.12958 0.66187 0.37828 0.0
H596 H 0.28291 0.77586 0.40593 0.0
H597 H 0.22723 0.87108 0.39363 0.0
C598 C 0.11406 0.87699 0.37177 0.0
C599 C 0.05463 0.87427 0.3601 0.0
C600 C 0.14597 0.82203 0.37889 0.0
C601 C 0.02706 0.81474 0.35618 0.0
C602 C 0.05861 0.75951 0.36333 0.0
C603 C 0.15112 0.7075 0.38149 0.0
C604 C 0.21091 0.71128 0.39295 0.0
C605 C 0.11838 0.76257 0.37454 0.0
C606 C 0.23734 0.7711 0.39714 0.0
C607 C 0.20538 0.82575 0.39015 0.0
H608 H 0.69611 0.63757 0.61722 0.0
H609 H 0.8002 0.46268 0.61269 0.0
H610 H 0.89863 0.51921 0.62108 0.0
H611 H 0.95415 0.61766 0.63334 0.0
H612 H 0.8458 0.7889 0.64097 0.0
H613 H 0.75025 0.73416 0.62798 0.0
C614 C 0.74014 0.61131 0.61795 0.0
C615 C 0.73988 0.54555 0.61432 0.0
C616 C 0.79613 0.64361 0.62362 0.0
C617 C 0.79814 0.51321 0.61508 0.0
C618 C 0.85472 0.54555 0.62014 0.0
C619 C 0.9097 0.64298 0.63185 0.0
C620 C 0.90703 0.70727 0.6382 0.0
C621 C 0.85411 0.61062 0.62493 0.0
C622 C 0.84904 0.73939 0.63639 0.0
C623 C 0.79436 0.70813 0.62893 0.0
H624 H 0.9706 0.19608 0.86853 0.0
H625 H 0.14263 0.30221 0.85842 0.0
H626 H 0.08539 0.39993 0.86698 0.0
H627 H 0.98832 0.45397 0.88146 0.0
H628 H 0.82082 0.34339 0.89479 0.0
H629 H 0.87493 0.24877 0.88124 0.0
C630 C 0.996 0.24047 0.86802 0.0
C631 C 0.06127 0.24109 0.86291 0.0
C632 C 0.9636 0.29588 0.87395 0.0
C633 C 0.09247 0.29965 0.86201 0.0
C634 C 0.05979 0.3557 0.86721 0.0
C635 C 0.96357 0.40922 0.88115 0.0
C636 C 0.90056 0.40581 0.88929 0.0
C637 C 0.99567 0.35419 0.87382 0.0
C638 C 0.86934 0.34739 0.88889 0.0
C639 C 0.90022 0.2932 0.88107 0.0
H640 H 0.39039 0.44391 0.12565 0.0
H641 H 0.27271 0.59667 0.10084 0.0
H642 H 0.17811 0.54011 0.11407 0.0
H643 H 0.12879 0.4446 0.13146 0.0
H644 H 0.2493 0.29394 0.15649 0.0
H645 H 0.34268 0.35195 0.14398 0.0
C646 C 0.34408 0.46516 0.12318 0.0
C647 C 0.33883 0.52451 0.11223 0.0
C648 C 0.29026 0.43225 0.1306 0.0
C649 C 0.2784 0.55148 0.10946 0.0
C650 C 0.22421 0.51879 0.11681 0.0
C651 C 0.17551 0.42438 0.13402 0.0
C652 C 0.18192 0.36465 0.14474 0.0
C653 C 0.22952 0.45868 0.12713 0.0
C654 C 0.24288 0.33964 0.14829 0.0
C655 C 0.29639 0.37284 0.14117 0.0
H656 H 0.40863 0.46954 0.55873 0.0
H657 H 0.52651 0.31311 0.53855 0.0
H658 H 0.51941 0.34554 0.49702 0.0
H659 H 0.46231 0.40499 0.46623 0.0
H660 H 0.3174 0.5363 0.48682 0.0
H661 H 0.35151 0.52813 0.52821 0.0
C662 C 0.43438 0.44359 0.54529 0.0
C663 C 0.47065 0.3905 0.55189 0.0
C664 C 0.42382 0.45814 0.52134 0.0
C665 C 0.50226 0.35649 0.53425 0.0
C666 C 0.49629 0.374 0.51038 0.0
C667 C 0.43937 0.4332 0.47974 0.0
C668 C 0.38964 0.4744 0.47329 0.0
C669 C 0.45497 0.42301 0.50369 0.0
C670 C 0.35902 0.50883 0.49101 0.0
C671 C 0.37742 0.50246 0.51478 0.0
H672 H 0.16323 0.86222 0.80581 0.0
H673 H 0.19788 0.06124 0.80169 0.0
H674 H 0.16583 0.06017 0.75952 0.0
H675 H 0.14019 0.99621 0.7228 0.0
H676 H 0.09654 0.7991 0.73097 0.0
H677 H 0.11544 0.80644 0.77328 0.0
C678 C 0.16367 0.90615 0.79603 0.0
C679 C 0.19071 0.96094 0.80615 0.0
C680 C 0.1413 0.90522 0.77266 0.0
C681 C 0.18581 1.01727 0.79337 0.0
C682 C 0.16518 1.01668 0.76953 0.0
C683 C 0.13272 0.95563 0.73408 0.0
C684 C 0.11518 0.8973 0.72379 0.0
C685 C 0.14549 0.95996 0.75867 0.0
C686 C 0.10682 0.84488 0.73847 0.0
C687 C 0.11921 0.84879 0.76267 0.0
H688 H 0.68524 0.61709 0.05762 0.0
H689 H 0.55978 0.76995 0.03974 0.0
H690 H 0.56678 0.74197 0.99769 0.0
H691 H 0.62377 0.68639 0.96606 0.0
H692 H 0.77341 0.55758 0.98479 0.0
H693 H 0.74172 0.56182 0.02624 0.0
C694 C 0.65828 0.64351 0.04453 0.0
C695 C 0.61945 0.6939 0.0519 0.0
C696 C 0.66767 0.63093 0.02041 0.0
C697 C 0.58603 0.72841 0.03476 0.0
C698 C 0.59175 0.71339 1.01064 0.0
C699 C 0.6483 0.65781 0.97915 0.0
C700 C 0.69886 0.61856 0.97208 0.0
C701 C 0.6342 0.66618 1.00326 0.0
C702 C 0.73133 0.5836 0.98934 0.0
C703 C 0.71443 0.58797 0.01321 0.0
H704 H 0.96459 0.24788 0.22724 0.0
H705 H 0.96257 0.04812 0.21435 0.0
H706 H 0.93291 0.02919 0.25586 0.0
H707 H 0.90217 0.07213 0.29547 0.0
H708 H 0.88546 0.27398 0.30335 0.0
H709 H 0.92972 0.28933 0.26473 0.0
C710 C 0.95925 0.20014 0.23361 0.0
C711 C 0.9672 0.14955 0.21798 0.0
C712 C 0.93801 0.19009 0.25672 0.0
C713 C 0.95788 0.08785 0.2263 0.0
C714 C 0.9403 0.07713 0.24993 0.0
C715 C 0.90547 0.11906 0.28846 0.0
C716 C 0.88831 0.17114 0.30258 0.0
C717 C 0.92844 0.1282 0.26521 0.0
C718 C 0.89769 0.2322 0.29331 0.0
C719 C 0.92319 0.24154 0.27102 0.0
loop_
_geom_bond_atom_site_label_1
_geom_bond_atom_site_label_2
_geom_bond_distance
_geom_bond_site_symmetry_2
_ccdc_geom_bond_type
Zn0 N4 2.020 . S
Zn0 O8 2.019 . S
Zn0 N10 2.119 . S
Zn0 O18 1.975 . S
C1 N2 1.334 . S
C1 N5 1.336 . S
N2 C1 1.334 . S
N2 C3 1.334 . S
C3 N2 1.334 . S
C3 N4 1.336 . S
N4 Zn0 2.020 . S
N4 C3 1.336 . S
N4 N5 1.354 . S
N5 C1 1.336 . S
N5 N4 1.354 . S
N5 Zn9 2.020 . S
C6 O7 1.244 . S
C6 O30 1.257 . S
O7 C6 1.244 . S
O8 Zn0 2.019 . S
O8 C28 1.257 . S
Zn9 N5 2.020 . S
Zn9 O16 1.975 . S
Zn9 N25 2.119 . S
Zn9 O30 2.019 . S
N10 Zn0 2.119 . S
N10 C12 1.334 . S
N10 C13 1.328 . S
C11 C12 1.391 . S
C11 N14 1.329 . S
C11 H32 0.930 . S
C12 N10 1.334 . S
C12 C11 1.391 . S
C12 H19 0.930 . S
C13 N10 1.328 . S
C13 C15 1.392 . S
C13 H20 0.930 . S
N14 C11 1.329 . S
N14 C15 1.331 . S
C15 C13 1.392 . S
C15 N14 1.331 . S
O16 Zn9 1.975 . S
O16 C17 1.252 . S
C17 O16 1.252 . S
C17 O18 1.252 . S
O18 Zn0 1.975 . S
O18 C17 1.252 . S
H19 C12 0.930 . S
H20 C13 0.930 . S
C21 C22 1.392 . S
C21 N25 1.328 . S
C21 H27 0.930 . S
C22 C21 1.392 . S
C22 N26 1.331 . S
C23 C24 1.391 . S
C23 N26 1.329 . S
C23 H33 0.930 . S
C24 C23 1.391 . S
C24 N25 1.334 . S
C24 H31 0.930 . S
N25 Zn9 2.119 . S
N25 C21 1.328 . S
N25 C24 1.334 . S
N26 C22 1.331 . S
N26 C23 1.329 . S
H27 C21 0.930 . S
C28 O8 1.257 . S
C28 O29 1.244 . S
O29 C28 1.244 . S
O30 C6 1.257 . S
O30 Zn9 2.019 . S
H31 C24 0.930 . S
H32 C11 0.930 . S
H33 C23 0.930 . S
Zn34 N38 2.020 1_655 S
Zn34 O42 2.019 . S
Zn34 N44 2.119 . S
Zn34 O52 1.975 . S
C35 N36 1.334 . S
C35 N39 1.336 . S
N36 C35 1.334 . S
N36 C37 1.334 . S
C37 N36 1.334 . S
C37 N38 1.336 . S
N38 Zn34 2.020 1_455 S
N38 C37 1.336 . S
N38 N39 1.354 . S
N39 C35 1.336 . S
N39 N38 1.354 . S
N39 Zn43 2.020 . S
C40 O41 1.244 . S
C40 O64 1.257 . S
O41 C40 1.244 . S
O42 Zn34 2.019 . S
O42 C62 1.257 . S
Zn43 N39 2.020 . S
Zn43 O50 1.975 1_455 S
Zn43 N59 2.119 . S
Zn43 O64 2.019 . S
N44 Zn34 2.119 . S
N44 C46 1.334 . S
N44 C47 1.328 . S
C45 C46 1.391 . S
C45 N48 1.329 . S
C45 H66 0.930 . S
C46 N44 1.334 . S
C46 C45 1.391 . S
C46 H53 0.930 . S
C47 N44 1.328 . S
C47 C49 1.392 . S
C47 H54 0.930 . S
N48 C45 1.329 . S
N48 C49 1.331 . S
C49 C47 1.392 . S
C49 N48 1.331 . S
O50 Zn43 1.975 1_655 S
O50 C51 1.252 . S
C51 O50 1.252 . S
C51 O52 1.252 . S
O52 Zn34 1.975 . S
O52 C51 1.252 . S
H53 C46 0.930 . S
H54 C47 0.930 . S
C55 C56 1.392 . S
C55 N59 1.328 . S
C55 H61 0.930 . S
C56 C55 1.392 . S
C56 N60 1.331 . S
C57 C58 1.391 . S
C57 N60 1.329 . S
C57 H67 0.930 . S
C58 C57 1.391 . S
C58 N59 1.334 . S
C58 H65 0.930 . S
N59 Zn43 2.119 . S
N59 C55 1.328 . S
N59 C58 1.334 . S
N60 C56 1.331 . S
N60 C57 1.329 . S
H61 C55 0.930 . S
C62 O42 1.257 . S
C62 O63 1.244 . S
O63 C62 1.244 . S
O64 C40 1.257 . S
O64 Zn43 2.019 . S
H65 C58 0.930 . S
H66 C45 0.930 . S
H67 C57 0.930 . S
Zn68 N72 2.020 . S
Zn68 O76 2.019 . S
Zn68 N78 2.119 . S
Zn68 O86 1.975 . S
C69 N70 1.334 . S
C69 N73 1.336 . S
N70 C69 1.334 . S
N70 C71 1.334 . S
C71 N70 1.334 . S
C71 N72 1.336 . S
N72 Zn68 2.020 . S
N72 C71 1.336 . S
N72 N73 1.354 . S
N73 C69 1.336 . S
N73 N72 1.354 . S
N73 Zn77 2.020 . S
C74 O75 1.244 . S
C74 O98 1.257 . S
O75 C74 1.244 . S
O76 Zn68 2.019 . S
O76 C96 1.257 . S
Zn77 N73 2.020 . S
Zn77 O84 1.975 . S
Zn77 N93 2.119 . S
Zn77 O98 2.019 . S
N78 Zn68 2.119 . S
N78 C80 1.334 . S
N78 C81 1.328 . S
C79 C80 1.391 . S
C79 N82 1.329 . S
C79 H100 0.930 . S
C80 N78 1.334 . S
C80 C79 1.391 . S
C80 H87 0.930 . S
C81 N78 1.328 . S
C81 C83 1.392 . S
C81 H88 0.930 . S
N82 C79 1.329 . S
N82 C83 1.331 . S
C83 C81 1.392 . S
C83 N82 1.331 . S
O84 Zn77 1.975 . S
O84 C85 1.252 . S
C85 O84 1.252 . S
C85 O86 1.252 . S
O86 Zn68 1.975 . S
O86 C85 1.252 . S
H87 C80 0.930 . S
H88 C81 0.930 . S
C89 C90 1.392 . S
C89 N93 1.328 . S
C89 H95 0.930 . S
C90 C89 1.392 . S
C90 N94 1.331 1_655 S
C91 C92 1.391 . S
C91 N94 1.329 1_655 S
C91 H101 0.930 . S
C92 C91 1.391 . S
C92 N93 1.334 . S
C92 H99 0.930 . S
N93 Zn77 2.119 . S
N93 C89 1.328 . S
N93 C92 1.334 . S
N94 C90 1.331 1_455 S
N94 C91 1.329 1_455 S
H95 C89 0.930 . S
C96 O76 1.257 . S
C96 O97 1.244 . S
O97 C96 1.244 . S
O98 C74 1.257 . S
O98 Zn77 2.019 . S
H99 C92 0.930 . S
H100 C79 0.930 . S
H101 C91 0.930 . S
Zn102 N106 2.020 . S
Zn102 O110 2.019 . S
Zn102 N112 2.119 . S
Zn102 O120 1.975 . S
C103 N104 1.334 . S
C103 N107 1.336 . S
N104 C103 1.334 . S
N104 C105 1.334 . S
C105 N104 1.334 . S
C105 N106 1.336 1_655 S
N106 Zn102 2.020 . S
N106 C105 1.336 1_455 S
N106 N107 1.354 1_455 S
N107 C103 1.336 . S
N107 N106 1.354 1_655 S
N107 Zn111 2.020 . S
C108 O109 1.244 . S
C108 O132 1.257 . S
O109 C108 1.244 . S
O110 Zn102 2.019 . S
O110 C130 1.257 . S
Zn111 N107 2.020 . S
Zn111 O118 1.975 1_655 S
Zn111 N127 2.119 . S
Zn111 O132 2.019 . S
N112 Zn102 2.119 . S
N112 C114 1.334 . S
N112 C115 1.328 . S
C113 C114 1.391 . S
C113 N116 1.329 . S
C113 H134 0.930 . S
C114 N112 1.334 . S
C114 C113 1.391 . S
C114 H121 0.930 . S
C115 N112 1.328 . S
C115 C117 1.392 . S
C115 H122 0.930 . S
N116 C113 1.329 . S
N116 C117 1.331 . S
C117 C115 1.392 . S
C117 N116 1.331 . S
O118 Zn111 1.975 1_455 S
O118 C119 1.252 . S
C119 O118 1.252 . S
C119 O120 1.252 . S
O120 Zn102 1.975 . S
O120 C119 1.252 . S
H121 C114 0.930 . S
H122 C115 0.930 . S
C123 C124 1.392 . S
C123 N127 1.328 . S
C123 H129 0.930 . S
C124 C123 1.392 . S
C124 N128 1.331 . S
C125 C126 1.391 . S
C125 N128 1.329 . S
C125 H135 0.930 . S
C126 C125 1.391 . S
C126 N127 1.334 . S
C126 H133 0.930 . S
N127 Zn111 2.119 . S
N127 C123 1.328 . S
N127 C126 1.334 . S
N128 C124 1.331 . S
N128 C125 1.329 . S
H129 C123 0.930 . S
C130 O110 1.257 . S
C130 O131 1.244 . S
O131 C130 1.244 . S
O132 C108 1.257 . S
O132 Zn111 2.019 . S
H133 C126 0.930 . S
H134 C113 0.930 . S
H135 C125 0.930 . S
Zn136 N140 2.020 1_565 S
Zn136 O144 2.019 . S
Zn136 N146 2.119 . S
Zn136 O154 1.975 . S
C137 N138 1.334 . S
C137 N141 1.336 . S
N138 C137 1.334 . S
N138 C139 1.334 . S
C139 N138 1.334 . S
C139 N140 1.336 . S
N140 Zn136 2.020 1_545 S
N140 C139 1.336 . S
N140 N141 1.354 . S
N141 C137 1.336 . S
N141 N140 1.354 . S
N141 Zn145 2.020 . S
C142 O143 1.244 . S
C142 O166 1.257 . S
O143 C142 1.244 . S
O144 Zn136 2.019 . S
O144 C164 1.257 . S
Zn145 N141 2.020 . S
Zn145 O152 1.975 1_545 S
Zn145 N161 2.119 . S
Zn145 O166 2.019 . S
N146 Zn136 2.119 . S
N146 C148 1.334 . S
N146 C149 1.328 . S
C147 C148 1.391 . S
C147 N150 1.329 . S
C147 H168 0.930 . S
C148 N146 1.334 . S
C148 C147 1.391 . S
C148 H155 0.930 . S
C149 N146 1.328 . S
C149 C151 1.392 . S
C149 H156 0.930 . S
N150 C147 1.329 . S
N150 C151 1.331 . S
C151 C149 1.392 . S
C151 N150 1.331 . S
O152 Zn145 1.975 1_565 S
O152 C153 1.252 . S
C153 O152 1.252 . S
C153 O154 1.252 . S
O154 Zn136 1.975 . S
O154 C153 1.252 . S
H155 C148 0.930 . S
H156 C149 0.930 . S
C157 C158 1.392 . S
C157 N161 1.328 . S
C157 H163 0.930 . S
C158 C157 1.392 . S
C158 N162 1.331 . S
C159 C160 1.391 . S
C159 N162 1.329 . S
C159 H169 0.930 . S
C160 C159 1.391 . S
C160 N161 1.334 . S
C160 H167 0.930 . S
N161 Zn145 2.119 . S
N161 C157 1.328 . S
N161 C160 1.334 . S
N162 C158 1.331 . S
N162 C159 1.329 . S
H163 C157 0.930 . S
C164 O144 1.257 . S
C164 O165 1.244 . S
O165 C164 1.244 . S
O166 C142 1.257 . S
O166 Zn145 2.019 . S
H167 C160 0.930 . S
H168 C147 0.930 . S
H169 C159 0.930 . S
Zn170 N174 2.020 . S
Zn170 O178 2.019 . S
Zn170 N180 2.119 . S
Zn170 O188 1.975 . S
C171 N172 1.334 . S
C171 N175 1.336 . S
N172 C171 1.334 . S
N172 C173 1.334 . S
C173 N172 1.334 . S
C173 N174 1.336 . S
N174 Zn170 2.020 . S
N174 C173 1.336 . S
N174 N175 1.354 . S
N175 C171 1.336 . S
N175 N174 1.354 . S
N175 Zn179 2.020 . S
C176 O177 1.244 . S
C176 O200 1.257 . S
O177 C176 1.244 . S
O178 Zn170 2.019 . S
O178 C198 1.257 . S
Zn179 N175 2.020 . S
Zn179 O186 1.975 . S
Zn179 N195 2.119 . S
Zn179 O200 2.019 . S
N180 Zn170 2.119 . S
N180 C182 1.334 . S
N180 C183 1.328 . S
C181 C182 1.391 . S
C181 N184 1.329 . S
C181 H202 0.930 . S
C182 N180 1.334 . S
C182 C181 1.391 . S
C182 H189 0.930 . S
C183 N180 1.328 . S
C183 C185 1.392 . S
C183 H190 0.930 . S
N184 C181 1.329 . S
N184 C185 1.331 . S
C185 C183 1.392 . S
C185 N184 1.331 . S
O186 Zn179 1.975 . S
O186 C187 1.252 . S
C187 O186 1.252 . S
C187 O188 1.252 . S
O188 Zn170 1.975 . S
O188 C187 1.252 . S
H189 C182 0.930 . S
H190 C183 0.930 . S
C191 C192 1.392 . S
C191 N195 1.328 . S
C191 H197 0.930 . S
C192 C191 1.392 . S
C192 N196 1.331 . S
C193 C194 1.391 . S
C193 N196 1.329 . S
C193 H203 0.930 . S
C194 C193 1.391 . S
C194 N195 1.334 . S
C194 H201 0.930 . S
N195 Zn179 2.119 . S
N195 C191 1.328 . S
N195 C194 1.334 . S
N196 C192 1.331 . S
N196 C193 1.329 . S
H197 C191 0.930 . S
C198 O178 1.257 . S
C198 O199 1.244 . S
O199 C198 1.244 . S
O200 C176 1.257 . S
O200 Zn179 2.019 . S
H201 C194 0.930 . S
H202 C181 0.930 . S
H203 C193 0.930 . S
Zn204 N208 2.020 . S
Zn204 O212 2.019 . S
Zn204 N214 2.119 . S
Zn204 O222 1.975 . S
C205 N206 1.334 . S
C205 N209 1.336 . S
N206 C205 1.334 . S
N206 C207 1.334 . S
C207 N206 1.334 . S
C207 N208 1.336 1_565 S
N208 Zn204 2.020 . S
N208 C207 1.336 1_545 S
N208 N209 1.354 1_545 S
N209 C205 1.336 . S
N209 N208 1.354 1_565 S
N209 Zn213 2.020 . S
C210 O211 1.244 . S
C210 O234 1.257 . S
O211 C210 1.244 . S
O212 Zn204 2.019 . S
O212 C232 1.257 . S
Zn213 N209 2.020 . S
Zn213 O220 1.975 1_565 S
Zn213 N229 2.119 . S
Zn213 O234 2.019 . S
N214 Zn204 2.119 . S
N214 C216 1.334 . S
N214 C217 1.328 . S
C215 C216 1.391 . S
C215 N218 1.329 . S
C215 H236 0.930 . S
C216 N214 1.334 . S
C216 C215 1.391 . S
C216 H223 0.930 . S
C217 N214 1.328 . S
C217 C219 1.392 . S
C217 H224 0.930 . S
N218 C215 1.329 . S
N218 C219 1.331 . S
C219 C217 1.392 . S
C219 N218 1.331 . S
O220 Zn213 1.975 1_545 S
O220 C221 1.252 . S
C221 O220 1.252 . S
C221 O222 1.252 . S
O222 Zn204 1.975 . S
O222 C221 1.252 . S
H223 C216 0.930 . S
H224 C217 0.930 . S
C225 C226 1.392 . S
C225 N229 1.328 . S
C225 H231 0.930 . S
C226 C225 1.392 . S
C226 N230 1.331 . S
C227 C228 1.391 . S
C227 N230 1.329 . S
C227 H237 0.930 . S
C228 C227 1.391 . S
C228 N229 1.334 . S
C228 H235 0.930 . S
N229 Zn213 2.119 . S
N229 C225 1.328 . S
N229 C228 1.334 . S
N230 C226 1.331 . S
N230 C227 1.329 . S
H231 C225 0.930 . S
C232 O212 1.257 . S
C232 O233 1.244 . S
O233 C232 1.244 . S
O234 C210 1.257 . S
O234 Zn213 2.019 . S
H235 C228 0.930 . S
H236 C215 0.930 . S
H237 C227 0.930 . S
Zn238 N242 2.020 . S
Zn238 O246 2.019 . S
Zn238 N248 2.119 . S
Zn238 O256 1.975 . S
C239 N240 1.334 . S
C239 N243 1.336 . S
N240 C239 1.334 . S
N240 C241 1.334 . S
C241 N240 1.334 . S
C241 N242 1.336 . S
N242 Zn238 2.020 . S
N242 C241 1.336 . S
N242 N243 1.354 . S
N243 C239 1.336 . S
N243 N242 1.354 . S
N243 Zn247 2.020 . S
C244 O245 1.244 . S
C244 O268 1.257 . S
O245 C244 1.244 . S
O246 Zn238 2.019 . S
O246 C266 1.257 . S
Zn247 N243 2.020 . S
Zn247 O254 1.975 . S
Zn247 N263 2.119 . S
Zn247 O268 2.019 . S
N248 Zn238 2.119 . S
N248 C250 1.334 . S
N248 C251 1.328 . S
C249 C250 1.391 . S
C249 N252 1.329 1_565 S
C249 H270 0.930 . S
C250 N248 1.334 . S
C250 C249 1.391 . S
C250 H257 0.930 . S
C251 N248 1.328 . S
C251 C253 1.392 . S
C251 H258 0.930 . S
N252 C249 1.329 1_545 S
N252 C253 1.331 1_545 S
C253 C251 1.392 . S
C253 N252 1.331 1_565 S
O254 Zn247 1.975 . S
O254 C255 1.252 . S
C255 O254 1.252 . S
C255 O256 1.252 . S
O256 Zn238 1.975 . S
O256 C255 1.252 . S
H257 C250 0.930 . S
H258 C251 0.930 . S
C259 C260 1.392 . S
C259 N263 1.328 . S
C259 H265 0.930 . S
C260 C259 1.392 . S
C260 N264 1.331 . S
C261 C262 1.391 . S
C261 N264 1.329 . S
C261 H271 0.930 . S
C262 C261 1.391 . S
C262 N263 1.334 . S
C262 H269 0.930 . S
N263 Zn247 2.119 . S
N263 C259 1.328 . S
N263 C262 1.334 . S
N264 C260 1.331 . S
N264 C261 1.329 . S
H265 C259 0.930 . S
C266 O246 1.257 . S
C266 O267 1.244 . S
O267 C266 1.244 . S
O268 C244 1.257 . S
O268 Zn247 2.019 . S
H269 C262 0.930 . S
H270 C249 0.930 . S
H271 C261 0.930 . S
H272 C278 0.930 . S
H273 C281 0.930 . S
H274 C282 0.930 . S
H275 C283 0.930 . S
H276 C286 0.930 . S
H277 C287 0.930 . S
C278 H272 0.930 . S
C278 C279 1.355 . S
C278 C280 1.415 . S
C279 C278 1.355 . S
C279 C281 1.419 . S
C280 C278 1.415 . S
C280 C285 1.425 . S
C280 C287 1.409 . S
C281 H273 0.930 . S
C281 C279 1.419 . S
C281 C282 1.362 . S
C282 H274 0.930 . S
C282 C281 1.362 . S
C282 C285 1.409 . S
C283 H275 0.930 . S
C283 C284 1.355 . S
C283 C285 1.415 . S
C284 C283 1.355 . S
C284 C286 1.419 . S
C285 C280 1.425 . S
C285 C282 1.409 . S
C285 C283 1.415 . S
C286 H276 0.930 . S
C286 C284 1.419 . S
C286 C287 1.362 . S
C287 H277 0.930 . S
C287 C280 1.409 . S
C287 C286 1.362 . S
H288 C294 0.930 . S
H289 C297 0.930 1_545 S
H290 C298 0.930 . S
H291 C299 0.930 . S
H292 C302 0.930 . S
H293 C303 0.930 . S
C294 H288 0.930 . S
C294 C295 1.355 . S
C294 C296 1.415 1_545 S
C295 C294 1.355 . S
C295 C297 1.419 1_545 S
C296 C294 1.415 1_565 S
C296 C301 1.425 . S
C296 C303 1.409 . S
C297 H289 0.930 1_565 S
C297 C295 1.419 1_565 S
C297 C298 1.362 . S
C298 H290 0.930 . S
C298 C297 1.362 . S
C298 C301 1.409 . S
C299 H291 0.930 . S
C299 C300 1.355 . S
C299 C301 1.415 . S
C300 C299 1.355 . S
C300 C302 1.419 . S
C301 C296 1.425 . S
C301 C298 1.409 . S
C301 C299 1.415 . S
C302 H292 0.930 . S
C302 C300 1.419 . S
C302 C303 1.362 . S
C303 H293 0.930 . S
C303 C296 1.409 . S
C303 C302 1.362 . S
H304 C310 0.930 . S
H305 C313 0.930 . S
H306 C314 0.930 . S
H307 C315 0.930 . S
H308 C318 0.930 . S
H309 C319 0.930 . S
C310 H304 0.930 . S
C310 C311 1.355 . S
C310 C312 1.415 . S
C311 C310 1.355 . S
C311 C313 1.419 . S
C312 C310 1.415 . S
C312 C317 1.425 . S
C312 C319 1.409 . S
C313 H305 0.930 . S
C313 C311 1.419 . S
C313 C314 1.362 . S
C314 H306 0.930 . S
C314 C313 1.362 . S
C314 C317 1.409 . S
C315 H307 0.930 . S
C315 C316 1.355 . S
C315 C317 1.415 . S
C316 C315 1.355 . S
C316 C318 1.419 . S
C317 C312 1.425 . S
C317 C314 1.409 . S
C317 C315 1.415 . S
C318 H308 0.930 . S
C318 C316 1.419 . S
C318 C319 1.362 . S
C319 H309 0.930 . S
C319 C312 1.409 . S
C319 C318 1.362 . S
H320 C326 0.930 . S
H321 C329 0.930 . S
H322 C330 0.930 . S
H323 C331 0.930 . S
H324 C334 0.930 1_565 S
H325 C335 0.930 . S
C326 H320 0.930 . S
C326 C327 1.355 . S
C326 C328 1.415 . S
C327 C326 1.355 . S
C327 C329 1.419 . S
C328 C326 1.415 . S
C328 C333 1.425 . S
C328 C335 1.409 . S
C329 H321 0.930 . S
C329 C327 1.419 . S
C329 C330 1.362 . S
C330 H322 0.930 . S
C330 C329 1.362 . S
C330 C333 1.409 . S
C331 H323 0.930 . S
C331 C332 1.355 . S
C331 C333 1.415 . S
C332 C331 1.355 . S
C332 C334 1.419 . S
C333 C328 1.425 . S
C333 C330 1.409 . S
C333 C331 1.415 . S
C334 H324 0.930 1_545 S
C334 C332 1.419 . S
C334 C335 1.362 . S
C335 H325 0.930 . S
C335 C328 1.409 . S
C335 C334 1.362 . S
H336 C342 0.930 . S
H337 C345 0.930 . S
H338 C346 0.930 . S
H339 C347 0.930 . S
H340 C350 0.930 . S
H341 C351 0.930 . S
C342 H336 0.930 . S
C342 C343 1.355 . S
C342 C344 1.415 1_455 S
C343 C342 1.355 . S
C343 C345 1.419 1_455 S
C344 C342 1.415 1_655 S
C344 C349 1.425 . S
C344 C351 1.409 . S
C345 H337 0.930 . S
C345 C343 1.419 1_655 S
C345 C346 1.362 . S
C346 H338 0.930 . S
C346 C345 1.362 . S
C346 C349 1.409 . S
C347 H339 0.930 . S
C347 C348 1.355 . S
C347 C349 1.415 . S
C348 C347 1.355 . S
C348 C350 1.419 . S
C349 C344 1.425 . S
C349 C346 1.409 . S
C349 C347 1.415 . S
C350 H340 0.930 . S
C350 C348 1.419 . S
C350 C351 1.362 . S
C351 H341 0.930 . S
C351 C344 1.409 . S
C351 C350 1.362 . S
H352 C358 0.930 . S
H353 C361 0.930 . S
H354 C362 0.930 . S
H355 C363 0.930 . S
H356 C366 0.930 . S
H357 C367 0.930 . S
C358 H352 0.930 . S
C358 C359 1.355 . S
C358 C360 1.415 . S
C359 C358 1.355 . S
C359 C361 1.419 . S
C360 C358 1.415 . S
C360 C365 1.425 . S
C360 C367 1.409 . S
C361 H353 0.930 . S
C361 C359 1.419 . S
C361 C362 1.362 . S
C362 H354 0.930 . S
C362 C361 1.362 . S
C362 C365 1.409 . S
C363 H355 0.930 . S
C363 C364 1.355 . S
C363 C365 1.415 . S
C364 C363 1.355 . S
C364 C366 1.419 . S
C365 C360 1.425 . S
C365 C362 1.409 . S
C365 C363 1.415 . S
C366 H356 0.930 . S
C366 C364 1.419 . S
C366 C367 1.362 . S
C367 H357 0.930 . S
C367 C360 1.409 . S
C367 C366 1.362 . S
H368 C374 0.930 . S
H369 C377 0.930 . S
H370 C378 0.930 . S
H371 C379 0.930 1_655 S
H372 C382 0.930 . S
H373 C383 0.930 . S
C374 H368 0.930 . S
C374 C375 1.355 . S
C374 C376 1.415 . S
C375 C374 1.355 . S
C375 C377 1.419 . S
C376 C374 1.415 . S
C376 C381 1.425 . S
C376 C383 1.409 . S
C377 H369 0.930 . S
C377 C375 1.419 . S
C377 C378 1.362 . S
C378 H370 0.930 . S
C378 C377 1.362 . S
C378 C381 1.409 . S
C379 H371 0.930 1_455 S
C379 C380 1.355 . S
C379 C381 1.415 . S
C380 C379 1.355 . S
C380 C382 1.419 . S
C381 C376 1.425 . S
C381 C378 1.409 . S
C381 C379 1.415 . S
C382 H372 0.930 . S
C382 C380 1.419 . S
C382 C383 1.362 . S
C383 H373 0.930 . S
C383 C376 1.409 . S
C383 C382 1.362 . S
H384 C390 0.930 . S
H385 C393 0.930 . S
H386 C394 0.930 . S
H387 C395 0.930 . S
H388 C398 0.930 . S
H389 C399 0.930 . S
C390 H384 0.930 . S
C390 C391 1.355 . S
C390 C392 1.415 . S
C391 C390 1.355 . S
C391 C393 1.419 . S
C392 C390 1.415 . S
C392 C397 1.425 . S
C392 C399 1.409 . S
C393 H385 0.930 . S
C393 C391 1.419 . S
C393 C394 1.362 . S
C394 H386 0.930 . S
C394 C393 1.362 . S
C394 C397 1.409 . S
C395 H387 0.930 . S
C395 C396 1.355 . S
C395 C397 1.415 . S
C396 C395 1.355 . S
C396 C398 1.419 . S
C397 C392 1.425 . S
C397 C394 1.409 . S
C397 C395 1.415 . S
C398 H388 0.930 . S
C398 C396 1.419 . S
C398 C399 1.362 . S
C399 H389 0.930 . S
C399 C392 1.409 . S
C399 C398 1.362 . S
H400 C406 0.930 . S
H401 C409 0.930 . S
H402 C410 0.930 . S
H403 C411 0.930 . S
H404 C414 0.930 . S
H405 C415 0.930 . S
C406 H400 0.930 . S
C406 C407 1.355 . S
C406 C408 1.415 . S
C407 C406 1.355 . S
C407 C409 1.419 . S
C408 C406 1.415 . S
C408 C413 1.425 . S
C408 C415 1.409 . S
C409 H401 0.930 . S
C409 C407 1.419 . S
C409 C410 1.362 . S
C410 H402 0.930 . S
C410 C409 1.362 . S
C410 C413 1.409 . S
C411 H403 0.930 . S
C411 C412 1.355 . S
C411 C413 1.415 . S
C412 C411 1.355 . S
C412 C414 1.419 . S
C413 C408 1.425 . S
C413 C410 1.409 . S
C413 C411 1.415 . S
C414 H404 0.930 . S
C414 C412 1.419 . S
C414 C415 1.362 . S
C415 H405 0.930 . S
C415 C408 1.409 . S
C415 C414 1.362 . S
H416 C422 0.930 . S
H417 C425 0.930 . S
H418 C426 0.930 . S
H419 C427 0.930 . S
H420 C430 0.930 . S
H421 C431 0.930 . S
C422 H416 0.930 . S
C422 C423 1.355 . S
C422 C424 1.415 . S
C423 C422 1.355 . S
C423 C425 1.419 . S
C424 C422 1.415 . S
C424 C429 1.425 . S
C424 C431 1.409 . S
C425 H417 0.930 . S
C425 C423 1.419 . S
C425 C426 1.362 . S
C426 H418 0.930 . S
C426 C425 1.362 . S
C426 C429 1.409 . S
C427 H419 0.930 . S
C427 C428 1.355 . S
C427 C429 1.415 . S
C428 C427 1.355 . S
C428 C430 1.419 . S
C429 C424 1.425 . S
C429 C426 1.409 . S
C429 C427 1.415 . S
C430 H420 0.930 . S
C430 C428 1.419 . S
C430 C431 1.362 . S
C431 H421 0.930 . S
C431 C424 1.409 . S
C431 C430 1.362 . S
H432 C438 0.930 . S
H433 C441 0.919 1_556 S
H434 C442 0.930 . S
H435 C443 0.930 . S
H436 C446 0.930 1_455 S
H437 C447 0.930 . S
C438 H432 0.930 . S
C438 C439 1.355 . S
C438 C440 1.415 1_556 S
C439 C438 1.355 . S
C439 C441 1.404 1_556 S
C440 C438 1.415 1_554 S
C440 C445 1.425 . S
C440 C447 1.409 . S
C441 H433 0.919 1_554 S
C441 C439 1.404 1_554 S
C441 C442 1.388 . S
C442 H434 0.930 . S
C442 C441 1.388 . S
C442 C445 1.409 . S
C443 H435 0.930 . S
C443 C444 1.355 . S
C443 C445 1.415 . S
C444 C443 1.355 . S
C444 C446 1.419 . S
C445 C440 1.425 . S
C445 C442 1.409 . S
C445 C443 1.415 . S
C446 H436 0.930 1_655 S
C446 C444 1.419 . S
C446 C447 1.362 . S
C447 H437 0.930 . S
C447 C440 1.409 . S
C447 C446 1.362 . S
H448 C454 0.930 . S
H449 C457 0.930 . S
H450 C458 0.930 . S
H451 C459 0.930 . S
H452 C462 0.930 . S
H453 C463 0.930 . S
C454 H448 0.930 . S
C454 C455 1.355 . S
C454 C456 1.415 . S
C455 C454 1.355 . S
C455 C457 1.419 . S
C456 C454 1.415 . S
C456 C461 1.425 . S
C456 C463 1.409 . S
C457 H449 0.930 . S
C457 C455 1.419 . S
C457 C458 1.362 . S
C458 H450 0.930 . S
C458 C457 1.362 . S
C458 C461 1.409 . S
C459 H451 0.930 . S
C459 C460 1.355 . S
C459 C461 1.415 . S
C460 C459 1.355 . S
C460 C462 1.419 . S
C461 C456 1.425 . S
C461 C458 1.409 . S
C461 C459 1.415 . S
C462 H452 0.930 . S
C462 C460 1.419 . S
C462 C463 1.362 . S
C463 H453 0.930 . S
C463 C456 1.409 . S
C463 C462 1.362 . S
H464 C470 0.930 . S
H465 C473 0.930 . S
H466 C474 0.930 . S
H467 C475 0.930 . S
H468 C478 0.930 . S
H469 C479 0.930 . S
C470 H464 0.930 . S
C470 C471 1.355 . S
C470 C472 1.415 . S
C471 C470 1.355 . S
C471 C473 1.419 . S
C472 C470 1.415 . S
C472 C477 1.425 . S
C472 C479 1.409 . S
C473 H465 0.930 . S
C473 C471 1.419 . S
C473 C474 1.362 . S
C474 H466 0.930 . S
C474 C473 1.362 . S
C474 C477 1.409 . S
C475 H467 0.930 . S
C475 C476 1.355 . S
C475 C477 1.415 . S
C476 C475 1.355 . S
C476 C478 1.419 . S
C477 C472 1.425 . S
C477 C474 1.409 . S
C477 C475 1.415 . S
C478 H468 0.930 . S
C478 C476 1.419 . S
C478 C479 1.362 . S
C479 H469 0.930 . S
C479 C472 1.409 . S
C479 C478 1.362 . S
H480 C486 0.930 . S
H481 C489 0.930 . S
H482 C490 0.930 . S
H483 C491 0.930 . S
H484 C494 0.930 . S
H485 C495 0.930 . S
C486 H480 0.930 . S
C486 C487 1.355 . S
C486 C488 1.415 . S
C487 C486 1.355 . S
C487 C489 1.419 . S
C488 C486 1.415 . S
C488 C493 1.425 . S
C488 C495 1.409 . S
C489 H481 0.930 . S
C489 C487 1.419 . S
C489 C490 1.362 . S
C490 H482 0.930 . S
C490 C489 1.362 . S
C490 C493 1.409 . S
C491 H483 0.930 . S
C491 C492 1.355 . S
C491 C493 1.415 . S
C492 C491 1.355 . S
C492 C494 1.419 . S
C493 C488 1.425 . S
C493 C490 1.409 . S
C493 C491 1.415 . S
C494 H484 0.930 . S
C494 C492 1.419 . S
C494 C495 1.362 . S
C495 H485 0.930 . S
C495 C488 1.409 . S
C495 C494 1.362 . S
H496 C502 0.930 . S
H497 C505 0.930 . S
H498 C506 0.930 . S
H499 C507 0.930 . S
H500 C510 0.930 . S
H501 C511 0.930 . S
C502 H496 0.930 . S
C502 C503 1.355 . S
C502 C504 1.415 . S
C503 C502 1.355 . S
C503 C505 1.419 . S
C504 C502 1.415 . S
C504 C509 1.425 . S
C504 C511 1.409 . S
C505 H497 0.930 . S
C505 C503 1.419 . S
C505 C506 1.362 . S
C506 H498 0.930 . S
C506 C505 1.362 . S
C506 C509 1.409 . S
C507 H499 0.930 . S
C507 C508 1.355 . S
C507 C509 1.415 . S
C508 C507 1.355 . S
C508 C510 1.419 . S
C509 C504 1.425 . S
C509 C506 1.409 . S
C509 C507 1.415 . S
C510 H500 0.930 . S
C510 C508 1.419 . S
C510 C511 1.362 . S
C511 H501 0.930 . S
C511 C504 1.409 . S
C511 C510 1.362 . S
H512 C518 0.930 . S
H513 C521 0.930 . S
H514 C522 0.930 . S
H515 C523 0.930 1_545 S
H516 C526 0.930 . S
H517 C527 0.930 . S
C518 H512 0.930 . S
C518 C519 1.355 1_556 S
C518 C520 1.415 . S
C519 C518 1.355 1_554 S
C519 C521 1.419 . S
C520 C518 1.415 . S
C520 C525 1.425 . S
C520 C527 1.409 . S
C521 H513 0.930 . S
C521 C519 1.419 . S
C521 C522 1.362 1_554 S
C522 H514 0.930 . S
C522 C521 1.362 1_556 S
C522 C525 1.409 . S
C523 H515 0.930 1_565 S
C523 C524 1.355 . S
C523 C525 1.415 . S
C524 C523 1.355 . S
C524 C526 1.419 . S
C525 C520 1.425 . S
C525 C522 1.409 . S
C525 C523 1.415 . S
C526 H516 0.930 . S
C526 C524 1.419 . S
C526 C527 1.362 . S
C527 H517 0.930 . S
C527 C520 1.409 . S
C527 C526 1.362 . S
H528 C534 0.930 . S
H529 C537 0.930 . S
H530 C538 0.930 . S
H531 C539 0.930 . S
H532 C542 0.930 . S
H533 C543 0.930 . S
C534 H528 0.930 . S
C534 C535 1.355 . S
C534 C536 1.415 . S
C535 C534 1.355 . S
C535 C537 1.419 . S
C536 C534 1.415 . S
C536 C541 1.425 . S
C536 C543 1.409 . S
C537 H529 0.930 . S
C537 C535 1.419 . S
C537 C538 1.362 . S
C538 H530 0.930 . S
C538 C537 1.362 . S
C538 C541 1.409 . S
C539 H531 0.930 . S
C539 C540 1.355 . S
C539 C541 1.415 . S
C540 C539 1.355 . S
C540 C542 1.419 . S
C541 C536 1.425 . S
C541 C538 1.409 . S
C541 C539 1.415 . S
C542 H532 0.930 . S
C542 C540 1.419 . S
C542 C543 1.362 . S
C543 H533 0.930 . S
C543 C536 1.409 . S
C543 C542 1.362 . S
H544 C550 0.930 . S
H545 C553 0.930 . S
H546 C554 0.930 . S
H547 C555 0.930 . S
H548 C558 0.930 . S
H549 C559 0.930 . S
C550 H544 0.930 . S
C550 C551 1.355 . S
C550 C552 1.415 . S
C551 C550 1.355 . S
C551 C553 1.419 . S
C552 C550 1.415 . S
C552 C557 1.425 . S
C552 C559 1.409 . S
C553 H545 0.930 . S
C553 C551 1.419 . S
C553 C554 1.362 . S
C554 H546 0.930 . S
C554 C553 1.362 . S
C554 C557 1.409 . S
C555 H547 0.930 . S
C555 C556 1.355 . S
C555 C557 1.415 1_565 S
C556 C555 1.355 . S
C556 C558 1.419 . S
C557 C552 1.425 . S
C557 C554 1.409 . S
C557 C555 1.415 1_545 S
C558 H548 0.930 . S
C558 C556 1.419 . S
C558 C559 1.362 1_565 S
C559 H549 0.930 . S
C559 C552 1.409 . S
C559 C558 1.362 1_545 S
H560 C566 0.930 . S
H561 C569 0.930 . S
H562 C570 0.930 . S
H563 C571 0.930 . S
H564 C574 0.930 . S
H565 C575 0.930 . S
C566 H560 0.930 . S
C566 C567 1.355 . S
C566 C568 1.415 . S
C567 C566 1.355 . S
C567 C569 1.419 . S
C568 C566 1.415 . S
C568 C573 1.425 . S
C568 C575 1.409 . S
C569 H561 0.930 . S
C569 C567 1.419 . S
C569 C570 1.362 . S
C570 H562 0.930 . S
C570 C569 1.362 . S
C570 C573 1.409 . S
C571 H563 0.930 . S
C571 C572 1.355 . S
C571 C573 1.415 . S
C572 C571 1.355 . S
C572 C574 1.419 . S
C573 C568 1.425 . S
C573 C570 1.409 . S
C573 C571 1.415 . S
C574 H564 0.930 . S
C574 C572 1.419 . S
C574 C575 1.362 . S
C575 H565 0.930 . S
C575 C568 1.409 . S
C575 C574 1.362 . S
H576 C582 0.930 . S
H577 C585 0.930 . S
H578 C586 0.930 . S
H579 C587 0.930 1_545 S
H580 C590 0.930 . S
H581 C591 0.930 . S
C582 H576 0.930 . S
C582 C583 1.355 . S
C582 C584 1.415 . S
C583 C582 1.355 . S
C583 C585 1.419 . S
C584 C582 1.415 . S
C584 C589 1.425 . S
C584 C591 1.409 1_545 S
C585 H577 0.930 . S
C585 C583 1.419 . S
C585 C586 1.362 . S
C586 H578 0.930 . S
C586 C585 1.362 . S
C586 C589 1.409 . S
C587 H579 0.930 1_565 S
C587 C588 1.355 . S
C587 C589 1.415 1_565 S
C588 C587 1.355 . S
C588 C590 1.419 . S
C589 C584 1.425 . S
C589 C586 1.409 . S
C589 C587 1.415 1_545 S
C590 H580 0.930 . S
C590 C588 1.419 . S
C590 C591 1.362 . S
C591 H581 0.930 . S
C591 C584 1.409 1_565 S
C591 C590 1.362 . S
H592 C598 0.930 . S
H593 C601 0.930 . S
H594 C602 0.930 . S
H595 C603 0.930 . S
H596 C606 0.930 . S
H597 C607 0.930 . S
C598 H592 0.930 . S
C598 C599 1.355 1_455 S
C598 C600 1.415 . S
C599 C598 1.355 1_655 S
C599 C601 1.419 . S
C600 C598 1.415 . S
C600 C605 1.425 . S
C600 C607 1.409 . S
C601 H593 0.930 . S
C601 C599 1.419 . S
C601 C602 1.362 . S
C602 H594 0.930 . S
C602 C601 1.362 . S
C602 C605 1.409 1_655 S
C603 H595 0.930 . S
C603 C604 1.355 . S
C603 C605 1.415 . S
C604 C603 1.355 . S
C604 C606 1.419 . S
C605 C600 1.425 . S
C605 C602 1.409 1_455 S
C605 C603 1.415 . S
C606 H596 0.930 . S
C606 C604 1.419 . S
C606 C607 1.362 . S
C607 H597 0.930 . S
C607 C600 1.409 . S
C607 C606 1.362 . S
H608 C614 0.930 . S
H609 C617 0.930 . S
H610 C618 0.930 . S
H611 C619 0.930 . S
H612 C622 0.930 . S
H613 C623 0.930 . S
C614 H608 0.930 . S
C614 C615 1.355 . S
C614 C616 1.415 . S
C615 C614 1.355 . S
C615 C617 1.419 . S
C616 C614 1.415 . S
C616 C621 1.425 . S
C616 C623 1.409 . S
C617 H609 0.930 . S
C617 C615 1.419 . S
C617 C618 1.362 . S
C618 H610 0.930 . S
C618 C617 1.362 . S
C618 C621 1.409 . S
C619 H611 0.930 . S
C619 C620 1.355 . S
C619 C621 1.415 . S
C620 C619 1.355 . S
C620 C622 1.419 . S
C621 C616 1.425 . S
C621 C618 1.409 . S
C621 C619 1.415 . S
C622 H612 0.930 . S
C622 C620 1.419 . S
C622 C623 1.362 . S
C623 H613 0.930 . S
C623 C616 1.409 . S
C623 C622 1.362 . S
H624 C630 0.930 . S
H625 C633 0.930 . S
H626 C634 0.930 . S
H627 C635 0.930 . S
H628 C638 0.930 . S
H629 C639 0.930 . S
C630 H624 0.930 . S
C630 C631 1.355 . S
C630 C632 1.415 . S
C631 C630 1.355 . S
C631 C633 1.419 . S
C632 C630 1.415 . S
C632 C637 1.425 . S
C632 C639 1.409 1_455 S
C633 H625 0.930 . S
C633 C631 1.419 . S
C633 C634 1.362 . S
C634 H626 0.930 . S
C634 C633 1.362 . S
C634 C637 1.409 . S
C635 H627 0.930 . S
C635 C636 1.355 . S
C635 C637 1.415 1_655 S
C636 C635 1.355 . S
C636 C638 1.419 . S
C637 C632 1.425 . S
C637 C634 1.409 . S
C637 C635 1.415 1_455 S
C638 H628 0.930 . S
C638 C636 1.419 . S
C638 C639 1.362 . S
C639 H629 0.930 . S
C639 C632 1.409 1_655 S
C639 C638 1.362 . S
H640 C646 0.930 . S
H641 C649 0.930 . S
H642 C650 0.930 . S
H643 C651 0.930 . S
H644 C654 0.930 . S
H645 C655 0.930 . S
C646 H640 0.930 . S
C646 C647 1.355 . S
C646 C648 1.415 . S
C647 C646 1.355 . S
C647 C649 1.419 . S
C648 C646 1.415 . S
C648 C653 1.425 . S
C648 C655 1.409 . S
C649 H641 0.930 . S
C649 C647 1.419 . S
C649 C650 1.362 . S
C650 H642 0.930 . S
C650 C649 1.362 . S
C650 C653 1.409 . S
C651 H643 0.930 . S
C651 C652 1.355 . S
C651 C653 1.415 . S
C652 C651 1.355 . S
C652 C654 1.419 . S
C653 C648 1.425 . S
C653 C650 1.409 . S
C653 C651 1.415 . S
C654 H644 0.930 . S
C654 C652 1.419 . S
C654 C655 1.362 . S
C655 H645 0.930 . S
C655 C648 1.409 . S
C655 C654 1.362 . S
H656 C662 0.930 . S
H657 C665 0.930 . S
H658 C666 0.930 . S
H659 C667 0.930 . S
H660 C670 0.930 . S
H661 C671 0.930 . S
C662 H656 0.930 . S
C662 C663 1.355 . S
C662 C664 1.415 . S
C663 C662 1.355 . S
C663 C665 1.419 . S
C664 C662 1.415 . S
C664 C669 1.425 . S
C664 C671 1.409 . S
C665 H657 0.930 . S
C665 C663 1.419 . S
C665 C666 1.362 . S
C666 H658 0.930 . S
C666 C665 1.362 . S
C666 C669 1.409 . S
C667 H659 0.930 . S
C667 C668 1.355 . S
C667 C669 1.415 . S
C668 C667 1.355 . S
C668 C670 1.419 . S
C669 C664 1.425 . S
C669 C666 1.409 . S
C669 C667 1.415 . S
C670 H660 0.930 . S
C670 C668 1.419 . S
C670 C671 1.362 . S
C671 H661 0.930 . S
C671 C664 1.409 . S
C671 C670 1.362 . S
H672 C678 0.930 . S
H673 C681 0.930 . S
H674 C682 0.930 . S
H675 C683 0.930 . S
H676 C686 0.930 . S
H677 C687 0.930 . S
C678 H672 0.930 . S
C678 C679 1.355 . S
C678 C680 1.415 . S
C679 C678 1.355 . S
C679 C681 1.419 . S
C680 C678 1.415 . S
C680 C685 1.425 . S
C680 C687 1.409 . S
C681 H673 0.930 . S
C681 C679 1.419 . S
C681 C682 1.362 . S
C682 H674 0.930 . S
C682 C681 1.362 . S
C682 C685 1.409 . S
C683 H675 0.930 . S
C683 C684 1.355 . S
C683 C685 1.415 . S
C684 C683 1.355 . S
C684 C686 1.419 . S
C685 C680 1.425 . S
C685 C682 1.409 . S
C685 C683 1.415 . S
C686 H676 0.930 . S
C686 C684 1.419 . S
C686 C687 1.362 . S
C687 H677 0.930 . S
C687 C680 1.409 . S
C687 C686 1.362 . S
H688 C694 0.930 . S
H689 C697 0.930 . S
H690 C698 0.930 1_556 S
H691 C699 0.930 . S
H692 C702 0.930 . S
H693 C703 0.930 1_554 S
C694 H688 0.930 . S
C694 C695 1.355 . S
C694 C696 1.415 . S
C695 C694 1.355 . S
C695 C697 1.419 . S
C696 C694 1.415 . S
C696 C701 1.425 1_554 S
C696 C703 1.409 1_554 S
C697 H689 0.930 . S
C697 C695 1.419 . S
C697 C698 1.362 . S
C698 H690 0.930 1_554 S
C698 C697 1.362 . S
C698 C701 1.409 1_554 S
C699 H691 0.930 . S
C699 C700 1.355 . S
C699 C701 1.415 . S
C700 C699 1.355 . S
C700 C702 1.419 . S
C701 C696 1.425 1_556 S
C701 C698 1.409 1_556 S
C701 C699 1.415 . S
C702 H692 0.930 . S
C702 C700 1.419 . S
C702 C703 1.362 . S
C703 H693 0.930 1_556 S
C703 C696 1.409 1_556 S
C703 C702 1.362 . S
H704 C710 0.930 . S
H705 C713 0.930 . S
H706 C714 0.930 . S
H707 C715 0.930 . S
H708 C718 0.930 . S
H709 C719 0.930 . S
C710 H704 0.930 . S
C710 C711 1.355 . S
C710 C712 1.415 . S
C711 C710 1.355 . S
C711 C713 1.419 . S
C712 C710 1.415 . S
C712 C717 1.425 . S
C712 C719 1.409 . S
C713 H705 0.930 . S
C713 C711 1.419 . S
C713 C714 1.362 . S
C714 H706 0.930 . S
C714 C713 1.362 . S
C714 C717 1.409 . S
C715 H707 0.930 . S
C715 C716 1.355 . S
C715 C717 1.415 . S
C716 C715 1.355 . S
C716 C718 1.419 . S
C717 C712 1.425 . S
C717 C714 1.409 . S
C717 C715 1.415 . S
C718 H708 0.930 . S
C718 C716 1.419 . S
C718 C719 1.362 . S
C719 H709 0.930 . S
C719 C712 1.409 . S
C719 C718 1.362 . S
C279 C3 1.339 . S
C284 C158 1.443 . S
C295 C192 1.378 . S
C300 C35 1.213 . S
C311 C226 1.423 . S
C316 C69 1.315 . S
C327 C103 1.300 . S
C332 C253 1.414 1_545 S
C343 C15 1.402 . S
C348 C137 1.240 . S
C359 C56 1.383 . S
C364 C171 1.210 . S
C375 C205 1.206 . S
C380 C90 1.378 1_455 S
C391 C124 1.385 . S
C396 C241 1.212 . S
C407 C40 1.431 . S
C412 C6 1.487 . S
C423 C74 1.414 . S
C428 C62 1.458 . S
C439 C96 1.489 . S
C444 C108 1.435 . S
C455 C130 1.456 . S
C460 C28 1.419 . S
C471 C266 1.439 . S
C476 C164 1.458 . S
C487 C198 1.493 . S
C492 C142 1.480 . S
C503 C232 1.495 . S
C508 C176 1.478 . S
C519 C244 1.461 . S
C524 C210 1.448 . S
C535 C153 1.895 . S
C540 C22 1.627 . S
C551 C187 1.890 . S
C556 C49 1.635 . S
C567 C83 1.617 . S
C572 C221 1.889 . S
C583 C117 1.655 . S
C588 C255 1.900 . S
C599 C151 1.662 . S
C604 C17 1.901 . S
C615 C185 1.699 . S
C620 C51 1.907 . S
C631 C219 1.638 . S
C636 C85 1.897 . S
C647 C260 1.715 . S
C652 C119 1.908 . S
C663 C173 2.098 . S
C668 C1 2.153 . S
C679 C207 2.128 . S
C684 C37 2.094 . S
C695 C239 2.155 . S
C700 C71 2.112 . S
C711 C105 2.136 . S
C716 C139 2.092 . S
