# Generated by pormake.
# Topology hbo, (4)-cn, num edge types: 1
# Building blocks:
#     Node 0, Type 0, BuildingBlock: KUFVIS_clean_sbu_0, # of connection points: 4
#     Node 1, Type 0, BuildingBlock: KUFVIS_clean_sbu_0, # of connection points: 4
#     Node 2, Type 0, BuildingBlock: KUFVIS_clean_sbu_0, # of connection points: 4
#     Node 3, Type 0, BuildingBlock: KUFVIS_clean_sbu_0, # of connection points: 4
#     Node 4, Type 0, BuildingBlock: KUFVIS_clean_sbu_0, # of connection points: 4
#     Node 5, Type 0, BuildingBlock: KUFVIS_clean_sbu_0, # of connection points: 4
#     Node 6, Type 0, BuildingBlock: KUFVIS_clean_sbu_0, # of connection points: 4
#     Node 7, Type 0, BuildingBlock: KUFVIS_clean_sbu_0, # of connection points: 4
#     Node 8, Type 0, BuildingBlock: KUFVIS_clean_sbu_0, # of connection points: 4
#     Node 9, Type 0, BuildingBlock: KUFVIS_clean_sbu_0, # of connection points: 4
#     Node 10, Type 0, BuildingBlock: KUFVIS_clean_sbu_0, # of connection points: 4
#     Node 11, Type 0, BuildingBlock: KUFVIS_clean_sbu_0, # of connection points: 4
#     Node 12, Type 0, BuildingBlock: KUFVIS_clean_sbu_0, # of connection points: 4
#     Node 13, Type 0, BuildingBlock: KUFVIS_clean_sbu_0, # of connection points: 4
#     Node 14, Type 0, BuildingBlock: KUFVIS_clean_sbu_0, # of connection points: 4
#     Node 15, Type 0, BuildingBlock: KUFVIS_clean_sbu_0, # of connection points: 4
#     Node 16, Type 0, BuildingBlock: KUFVIS_clean_sbu_0, # of connection points: 4
#     Node 17, Type 0, BuildingBlock: KUFVIS_clean_sbu_0, # of connection points: 4
#     Node 18, Type 0, BuildingBlock: KUFVIS_clean_sbu_0, # of connection points: 4
#     Node 19, Type 0, BuildingBlock: KUFVIS_clean_sbu_0, # of connection points: 4
#     Node 20, Type 0, BuildingBlock: KUFVIS_clean_sbu_0, # of connection points: 4
#     Node 21, Type 0, BuildingBlock: KUFVIS_clean_sbu_0, # of connection points: 4
#     Node 22, Type 0, BuildingBlock: KUFVIS_clean_sbu_0, # of connection points: 4
#     Node 23, Type 0, BuildingBlock: KUFVIS_clean_sbu_0, # of connection points: 4
#     Edge 24, Type (0, 0), BuildingBlock: XUDNAN_clean_linker_2, # of connection points: 2
#     Edge 25, Type (0, 0), BuildingBlock: XUDNAN_clean_linker_2, # of connection points: 2
#     Edge 26, Type (0, 0), BuildingBlock: XUDNAN_clean_linker_2, # of connection points: 2
#     Edge 27, Type (0, 0), BuildingBlock: XUDNAN_clean_linker_2, # of connection points: 2
#     Edge 28, Type (0, 0), BuildingBlock: XUDNAN_clean_linker_2, # of connection points: 2
#     Edge 29, Type (0, 0), BuildingBlock: XUDNAN_clean_linker_2, # of connection points: 2
#     Edge 30, Type (0, 0), BuildingBlock: XUDNAN_clean_linker_2, # of connection points: 2
#     Edge 31, Type (0, 0), BuildingBlock: XUDNAN_clean_linker_2, # of connection points: 2
#     Edge 32, Type (0, 0), BuildingBlock: XUDNAN_clean_linker_2, # of connection points: 2
#     Edge 33, Type (0, 0), BuildingBlock: XUDNAN_clean_linker_2, # of connection points: 2
#     Edge 34, Type (0, 0), BuildingBlock: XUDNAN_clean_linker_2, # of connection points: 2
#     Edge 35, Type (0, 0), BuildingBlock: XUDNAN_clean_linker_2, # of connection points: 2
#     Edge 36, Type (0, 0), BuildingBlock: XUDNAN_clean_linker_2, # of connection points: 2
#     Edge 37, Type (0, 0), BuildingBlock: XUDNAN_clean_linker_2, # of connection points: 2
#     Edge 38, Type (0, 0), BuildingBlock: XUDNAN_clean_linker_2, # of connection points: 2
#     Edge 39, Type (0, 0), BuildingBlock: XUDNAN_clean_linker_2, # of connection points: 2
#     Edge 40, Type (0, 0), BuildingBlock: XUDNAN_clean_linker_2, # of connection points: 2
#     Edge 41, Type (0, 0), BuildingBlock: XUDNAN_clean_linker_2, # of connection points: 2
#     Edge 42, Type (0, 0), BuildingBlock: XUDNAN_clean_linker_2, # of connection points: 2
#     Edge 43, Type (0, 0), BuildingBlock: XUDNAN_clean_linker_2, # of connection points: 2
#     Edge 44, Type (0, 0), BuildingBlock: XUDNAN_clean_linker_2, # of connection points: 2
#     Edge 45, Type (0, 0), BuildingBlock: XUDNAN_clean_linker_2, # of connection points: 2
#     Edge 46, Type (0, 0), BuildingBlock: XUDNAN_clean_linker_2, # of connection points: 2
#     Edge 47, Type (0, 0), BuildingBlock: XUDNAN_clean_linker_2, # of connection points: 2
#     Edge 48, Type (0, 0), BuildingBlock: XUDNAN_clean_linker_2, # of connection points: 2
#     Edge 49, Type (0, 0), BuildingBlock: XUDNAN_clean_linker_2, # of connection points: 2
#     Edge 50, Type (0, 0), BuildingBlock: XUDNAN_clean_linker_2, # of connection points: 2
#     Edge 51, Type (0, 0), BuildingBlock: XUDNAN_clean_linker_2, # of connection points: 2
#     Edge 52, Type (0, 0), BuildingBlock: XUDNAN_clean_linker_2, # of connection points: 2
#     Edge 53, Type (0, 0), BuildingBlock: XUDNAN_clean_linker_2, # of connection points: 2
#     Edge 54, Type (0, 0), BuildingBlock: XUDNAN_clean_linker_2, # of connection points: 2
#     Edge 55, Type (0, 0), BuildingBlock: XUDNAN_clean_linker_2, # of connection points: 2
#     Edge 56, Type (0, 0), BuildingBlock: XUDNAN_clean_linker_2, # of connection points: 2
#     Edge 57, Type (0, 0), BuildingBlock: XUDNAN_clean_linker_2, # of connection points: 2
#     Edge 58, Type (0, 0), BuildingBlock: XUDNAN_clean_linker_2, # of connection points: 2
#     Edge 59, Type (0, 0), BuildingBlock: XUDNAN_clean_linker_2, # of connection points: 2
#     Edge 60, Type (0, 0), BuildingBlock: XUDNAN_clean_linker_2, # of connection points: 2
#     Edge 61, Type (0, 0), BuildingBlock: XUDNAN_clean_linker_2, # of connection points: 2
#     Edge 62, Type (0, 0), BuildingBlock: XUDNAN_clean_linker_2, # of connection points: 2
#     Edge 63, Type (0, 0), BuildingBlock: XUDNAN_clean_linker_2, # of connection points: 2
#     Edge 64, Type (0, 0), BuildingBlock: XUDNAN_clean_linker_2, # of connection points: 2
#     Edge 65, Type (0, 0), BuildingBlock: XUDNAN_clean_linker_2, # of connection points: 2
#     Edge 66, Type (0, 0), BuildingBlock: XUDNAN_clean_linker_2, # of connection points: 2
#     Edge 67, Type (0, 0), BuildingBlock: XUDNAN_clean_linker_2, # of connection points: 2
#     Edge 68, Type (0, 0), BuildingBlock: XUDNAN_clean_linker_2, # of connection points: 2
#     Edge 69, Type (0, 0), BuildingBlock: XUDNAN_clean_linker_2, # of connection points: 2
#     Edge 70, Type (0, 0), BuildingBlock: XUDNAN_clean_linker_2, # of connection points: 2
#     Edge 71, Type (0, 0), BuildingBlock: XUDNAN_clean_linker_2, # of connection points: 2
# Relax obj value: 0.252
# Max RMSD: 0.307
# Mean RMSD: 0.266
data_MOF--net-hbo--node1-KUFVIS_clean_sbu_0--edge1-XUDNAN_clean_linker_2
_symmetry_space_group_name_H-M    P1
_symmetry_Int_Tables_number       1
_symmetry_cell_setting            triclinic
loop_
_symmetry_equiv_pos_as_xyz
'x, y, z'
_cell_length_a     50.903045
_cell_length_b     52.226633
_cell_length_c     52.220662
_cell_angle_alpha  91.586867
_cell_angle_beta   89.926692
_cell_angle_gamma 95.813055
loop_
_atom_site_label
_atom_site_type_symbol
_atom_site_fract_x
_atom_site_fract_y
_atom_site_fract_z
_atom_type_partial_charge
Mn0 Mn 0.17378 0.37176 0.26242 0.0
Mn1 Mn 0.17022 0.38133 0.19902 0.0
C2 C 0.20587 0.35918 0.23485 0.0
C3 C 0.16664 0.34555 0.29769 0.0
C4 C 0.18603 0.42416 0.23749 0.0
O5 O 0.13517 0.37798 0.25819 0.0
O6 O 0.13583 0.38537 0.2157 0.0
C7 C 0.13399 0.33499 0.18564 0.0
N8 N 0.15755 0.34938 0.18248 0.0
C9 C 0.17158 0.31894 0.1512 0.0
C10 C 0.14739 0.30385 0.154 0.0
C11 C 0.12854 0.31191 0.17131 0.0
C12 C 0.17582 0.34183 0.16587 0.0
H13 H 0.11952 0.34107 0.19903 0.0
C14 C 0.12432 0.38435 0.23755 0.0
O15 O 0.17119 0.37041 0.30057 0.0
O16 O 0.16437 0.33633 0.27442 0.0
N17 N 0.20234 0.37809 0.18071 0.0
C18 C 0.22511 0.39422 0.18123 0.0
C19 C 0.24621 0.38869 0.16534 0.0
C20 C 0.2436 0.36672 0.14903 0.0
C21 C 0.21994 0.35045 0.14879 0.0
C22 C 0.19949 0.35712 0.16482 0.0
H23 H 0.22716 0.4111 0.19378 0.0
O24 O 0.21132 0.36396 0.25884 0.0
O25 O 0.1821 0.36253 0.22772 0.0
O26 O 0.18376 0.41035 0.25733 0.0
O27 O 0.18344 0.4149 0.2146 0.0
C28 C 0.21597 0.32769 0.13357 0.0
C29 C 0.19182 0.31192 0.1348 0.0
H30 H 0.14317 0.28596 0.1431 0.0
H31 H 0.10988 0.30031 0.17367 0.0
H32 H 0.26446 0.40127 0.1657 0.0
H33 H 0.25992 0.36247 0.13685 0.0
H34 H 0.23147 0.32198 0.12107 0.0
H35 H 0.18912 0.29431 0.12324 0.0
Mn36 Mn 0.14096 0.60287 0.71458 0.0
Mn37 Mn 0.13256 0.58407 0.77516 0.0
C38 C 0.17743 0.59709 0.73928 0.0
C39 C 0.14557 0.63716 0.68682 0.0
C40 C 0.12119 0.54867 0.72824 0.0
O41 O 0.10302 0.60909 0.72267 0.0
O42 O 0.10258 0.60365 0.76544 0.0
C43 C 0.13613 0.63305 0.80549 0.0
N44 N 0.14522 0.60989 0.80007 0.0
C45 C 0.17457 0.61474 0.83635 0.0
C46 C 0.16464 0.63811 0.84295 0.0
C47 C 0.14568 0.64753 0.82718 0.0
C48 C 0.16405 0.60102 0.81469 0.0
H49 H 0.12168 0.64036 0.7934 0.0
C50 C 0.09239 0.61092 0.74471 0.0
O51 O 0.1375 0.61401 0.67844 0.0
O52 O 0.15037 0.6402 0.7111 0.0
N53 N 0.16099 0.56568 0.78638 0.0
C54 C 0.16899 0.54313 0.77696 0.0
C55 C 0.18983 0.53244 0.78896 0.0
C56 C 0.20203 0.54483 0.8107 0.0
C57 C 0.19339 0.56793 0.82012 0.0
C58 C 0.1728 0.57788 0.80712 0.0
H59 H 0.15962 0.53338 0.7604 0.0
O60 O 0.17908 0.59717 0.71448 0.0
O61 O 0.15454 0.60091 0.74877 0.0
O62 O 0.13084 0.56398 0.71129 0.0
O63 O 0.11916 0.55535 0.75181 0.0
C64 C 0.2044 0.58149 0.8419 0.0
C65 C 0.19474 0.60469 0.85021 0.0
H66 H 0.17204 0.64938 0.85963 0.0
H67 H 0.13841 0.66587 0.83177 0.0
H68 H 0.19638 0.5146 0.78156 0.0
H69 H 0.21801 0.53645 0.81999 0.0
H70 H 0.22028 0.57422 0.85241 0.0
H71 H 0.20335 0.61493 0.86699 0.0
Mn72 Mn 0.82593 0.65334 0.29929 0.0
Mn73 Mn 0.85836 0.64917 0.3547 0.0
C74 C 0.82712 0.68655 0.3293 0.0
C75 C 0.78837 0.64624 0.27405 0.0
C76 C 0.8854 0.65614 0.30307 0.0
O77 O 0.83021 0.61527 0.30178 0.0
O78 O 0.84646 0.61356 0.34201 0.0
C79 C 0.81541 0.62776 0.38848 0.0
N80 N 0.83437 0.64709 0.38291 0.0
C81 C 0.82277 0.67231 0.41971 0.0
C82 C 0.8032 0.65261 0.42591 0.0
C83 C 0.79953 0.63023 0.41024 0.0
C84 C 0.83826 0.6686 0.398 0.0
H85 H 0.81235 0.61065 0.37631 0.0
C86 C 0.83759 0.60284 0.32085 0.0
O87 O 0.81176 0.64915 0.26401 0.0
O88 O 0.78675 0.64639 0.29888 0.0
N89 N 0.87016 0.68281 0.36825 0.0
C90 C 0.88839 0.70081 0.35844 0.0
C91 C 0.89366 0.72478 0.37125 0.0
C92 C 0.88009 0.73002 0.39393 0.0
C93 C 0.86138 0.7112 0.40363 0.0
C94 C 0.85718 0.68755 0.39021 0.0
H95 H 0.89865 0.69699 0.34086 0.0
O96 O 0.82271 0.69082 0.30538 0.0
O97 O 0.83106 0.66309 0.33453 0.0
O98 O 0.86477 0.66035 0.2909 0.0
O99 O 0.88526 0.65128 0.32693 0.0
C100 C 0.84624 0.71524 0.42571 0.0
C101 C 0.82699 0.69579 0.43378 0.0
H102 H 0.79069 0.65458 0.4425 0.0
H103 H 0.78436 0.61501 0.41482 0.0
H104 H 0.90799 0.73927 0.36354 0.0
H105 H 0.88396 0.74865 0.40356 0.0
H106 H 0.84898 0.73337 0.43642 0.0
H107 H 0.81523 0.69925 0.45058 0.0
Mn108 Mn 0.84829 0.37647 0.72294 0.0
Mn109 Mn 0.88585 0.37552 0.66953 0.0
C110 C 0.84174 0.34231 0.69439 0.0
C111 C 0.81119 0.38771 0.74472 0.0
C112 C 0.90492 0.36277 0.72224 0.0
O113 O 0.86452 0.41325 0.72083 0.0
O114 O 0.88576 0.41166 0.68299 0.0
C115 C 0.85357 0.40382 0.63508 0.0
N116 N 0.86579 0.38247 0.64006 0.0
C117 C 0.8521 0.36273 0.5994 0.0
C118 C 0.83967 0.38466 0.59371 0.0
C119 C 0.84034 0.40525 0.61166 0.0
C120 C 0.86522 0.36252 0.62294 0.0
H121 H 0.85385 0.41961 0.6489 0.0
C122 C 0.87781 0.42397 0.70264 0.0
O123 O 0.83241 0.38318 0.75686 0.0
O124 O 0.81216 0.38731 0.71988 0.0
N125 N 0.88731 0.34195 0.65413 0.0
C126 C 0.89827 0.32134 0.66343 0.0
C127 C 0.89787 0.29857 0.64843 0.0
C128 C 0.88654 0.29732 0.62387 0.0
C129 C 0.87574 0.31889 0.61452 0.0
C130 C 0.87675 0.34109 0.63034 0.0
H131 H 0.90706 0.32218 0.68223 0.0
O132 O 0.8337 0.34017 0.71787 0.0
O133 O 0.85297 0.36473 0.68792 0.0
O134 O 0.8834 0.36478 0.73415 0.0
O135 O 0.9083 0.36729 0.6985 0.0
C136 C 0.86322 0.31893 0.59048 0.0
C137 C 0.8514 0.34084 0.58293 0.0
H138 H 0.82925 0.38575 0.57576 0.0
H139 H 0.8306 0.42214 0.6075 0.0
H140 H 0.90618 0.28199 0.65582 0.0
H141 H 0.88599 0.27961 0.61248 0.0
H142 H 0.86207 0.30203 0.57788 0.0
H143 H 0.84141 0.34046 0.56461 0.0
Mn144 Mn 0.26105 0.16838 0.37205 0.0
Mn145 Mn 0.31547 0.13959 0.38738 0.0
C146 C 0.29619 0.16946 0.34408 0.0
C147 C 0.2368 0.20392 0.37406 0.0
C148 C 0.26478 0.11034 0.36752 0.0
O149 O 0.25629 0.16233 0.41006 0.0
O150 O 0.29484 0.1466 0.41862 0.0
C151 C 0.34425 0.18289 0.41677 0.0
N152 N 0.34354 0.16496 0.39728 0.0
C153 C 0.38845 0.17851 0.38564 0.0
C154 C 0.38974 0.19702 0.4057 0.0
C155 C 0.36751 0.19926 0.42128 0.0
C156 C 0.36477 0.1627 0.38212 0.0
H157 H 0.32719 0.18468 0.42876 0.0
C158 C 0.27275 0.15431 0.42556 0.0
O159 O 0.22546 0.18086 0.36944 0.0
O160 O 0.26208 0.20628 0.37812 0.0
N161 N 0.33763 0.13161 0.35923 0.0
C162 C 0.33269 0.11373 0.33987 0.0
C163 C 0.35267 0.10959 0.32212 0.0
C164 C 0.37761 0.12361 0.32463 0.0
C165 C 0.38238 0.14159 0.34496 0.0
C166 C 0.36175 0.14479 0.36215 0.0
H167 H 0.31358 0.10287 0.33783 0.0
O168 O 0.27295 0.17377 0.33618 0.0
O169 O 0.29861 0.16553 0.36843 0.0
O170 O 0.25207 0.12983 0.36418 0.0
O171 O 0.28809 0.11194 0.37681 0.0
C172 C 0.40658 0.15694 0.34845 0.0
C173 C 0.40959 0.17543 0.36874 0.0
H174 H 0.40761 0.20974 0.40919 0.0
H175 H 0.36831 0.21357 0.43672 0.0
H176 H 0.34882 0.09566 0.3065 0.0
H177 H 0.39287 0.12057 0.31072 0.0
H178 H 0.42285 0.15498 0.33541 0.0
H179 H 0.42815 0.18738 0.371 0.0
Mn180 Mn 0.37034 0.7219 0.81697 0.0
Mn181 Mn 0.36877 0.66308 0.84279 0.0
C182 C 0.33562 0.69129 0.8081 0.0
C183 C 0.38138 0.75002 0.78383 0.0
C184 C 0.35693 0.7112 0.87292 0.0
O185 O 0.40807 0.72038 0.8286 0.0
O186 O 0.40573 0.67958 0.84255 0.0
C187 C 0.39843 0.63609 0.80343 0.0
N188 N 0.37618 0.63755 0.81767 0.0
C189 C 0.35628 0.59734 0.79957 0.0
C190 C 0.37906 0.59531 0.78481 0.0
C191 C 0.40019 0.6148 0.78671 0.0
C192 C 0.35576 0.61887 0.81606 0.0
H193 H 0.41468 0.65105 0.80486 0.0
C194 C 0.41848 0.70142 0.83793 0.0
O195 O 0.37725 0.75851 0.80695 0.0
O196 O 0.38097 0.72528 0.78047 0.0
N197 N 0.33418 0.64498 0.84419 0.0
C198 C 0.31278 0.65109 0.8579 0.0
C199 C 0.28941 0.63429 0.85701 0.0
C200 C 0.28838 0.61131 0.84226 0.0
C201 C 0.31075 0.60533 0.82851 0.0
C202 C 0.33351 0.62277 0.83019 0.0
H203 H 0.31345 0.66875 0.86924 0.0
O204 O 0.33292 0.71555 0.80573 0.0
O205 O 0.35853 0.68556 0.81582 0.0
O206 O 0.35915 0.72673 0.85445 0.0
O207 O 0.36045 0.68742 0.87036 0.0
C208 C 0.31109 0.58318 0.81253 0.0
C209 C 0.33384 0.57918 0.79808 0.0
H210 H 0.38042 0.57903 0.77174 0.0
H211 H 0.41777 0.61343 0.77528 0.0
H212 H 0.2722 0.6391 0.86759 0.0
H213 H 0.27021 0.59857 0.84137 0.0
H214 H 0.29376 0.56937 0.81079 0.0
H215 H 0.33367 0.56233 0.78549 0.0
Mn216 Mn 0.71874 0.86405 0.38207 0.0
Mn217 Mn 0.66414 0.89579 0.37861 0.0
C218 C 0.69541 0.86343 0.34422 0.0
C219 C 0.74006 0.82812 0.3914 0.0
C220 C 0.71958 0.922 0.37417 0.0
O221 O 0.71078 0.87115 0.41949 0.0
O222 O 0.67422 0.89136 0.41489 0.0
C223 C 0.62602 0.85618 0.40131 0.0
N224 N 0.63337 0.87191 0.38163 0.0
C225 C 0.59199 0.86053 0.35998 0.0
C226 C 0.58393 0.84423 0.38003 0.0
C227 C 0.60112 0.84188 0.40067 0.0
C228 C 0.61728 0.87379 0.36136 0.0
H229 H 0.63897 0.85472 0.41745 0.0
C230 C 0.6916 0.88224 0.42876 0.0
O231 O 0.75275 0.85091 0.39092 0.0
O232 O 0.71475 0.82626 0.38737 0.0
N233 N 0.65144 0.9016 0.34501 0.0
C234 C 0.66231 0.91793 0.32707 0.0
C235 C 0.64809 0.92157 0.30467 0.0
C236 C 0.62248 0.90916 0.30137 0.0
C237 C 0.61138 0.8931 0.32046 0.0
C238 C 0.62679 0.88961 0.34203 0.0
H239 H 0.68176 0.92797 0.32976 0.0
O240 O 0.71968 0.85797 0.34458 0.0
O241 O 0.68461 0.86788 0.36636 0.0
O242 O 0.73147 0.90196 0.37723 0.0
O243 O 0.69451 0.92186 0.37466 0.0
C244 C 0.58551 0.88066 0.31909 0.0
C245 C 0.57584 0.86433 0.3388 0.0
H246 H 0.56459 0.83344 0.37978 0.0
H247 H 0.59504 0.82935 0.41622 0.0
H248 H 0.65672 0.93418 0.29013 0.0
H249 H 0.61143 0.91228 0.28421 0.0
H250 H 0.57301 0.88324 0.30279 0.0
H251 H 0.55606 0.85457 0.33734 0.0
Mn252 Mn 0.63126 0.26568 0.82851 0.0
Mn253 Mn 0.61886 0.32428 0.8518 0.0
C254 C 0.65986 0.30151 0.82002 0.0
C255 C 0.62656 0.23349 0.79658 0.0
C256 C 0.64133 0.28423 0.88404 0.0
O257 O 0.59284 0.25978 0.8393 0.0
O258 O 0.5861 0.30009 0.85239 0.0
C259 C 0.58366 0.33781 0.8103 0.0
N260 N 0.60593 0.34337 0.82466 0.0
C261 C 0.61765 0.38233 0.80195 0.0
C262 C 0.59476 0.37711 0.78701 0.0
C263 C 0.57772 0.35473 0.79119 0.0
C264 C 0.62249 0.36481 0.82077 0.0
H265 H 0.57058 0.32057 0.81339 0.0
C266 C 0.57809 0.27628 0.84821 0.0
O267 O 0.63291 0.22845 0.81986 0.0
O268 O 0.62188 0.25691 0.79213 0.0
N269 N 0.64867 0.34974 0.8524 0.0
C270 C 0.67014 0.35172 0.86817 0.0
C271 C 0.68927 0.37292 0.8663 0.0
C272 C 0.68604 0.39194 0.84839 0.0
C273 C 0.66353 0.38974 0.83272 0.0
C274 C 0.64499 0.36833 0.83565 0.0
H275 H 0.67275 0.33714 0.88194 0.0
O276 O 0.66766 0.27867 0.81797 0.0
O277 O 0.63532 0.30276 0.8264 0.0
O278 O 0.64244 0.26713 0.86624 0.0
O279 O 0.63271 0.30606 0.88067 0.0
C280 C 0.65893 0.40778 0.81409 0.0
C281 C 0.63604 0.40405 0.79868 0.0
H282 H 0.59016 0.39006 0.77218 0.0
H283 H 0.56007 0.35052 0.77967 0.0
H284 H 0.70652 0.37455 0.87855 0.0
H285 H 0.70098 0.40813 0.84681 0.0
H286 H 0.67299 0.42447 0.81129 0.0
H287 H 0.63284 0.41792 0.78426 0.0
Mn288 Mn 0.26668 0.82177 0.61326 0.0
Mn289 Mn 0.20435 0.83722 0.607 0.0
C290 C 0.23208 0.78975 0.61295 0.0
C291 C 0.30217 0.81803 0.64042 0.0
C292 C 0.2426 0.835 0.5624 0.0
O293 O 0.27007 0.86033 0.6194 0.0
O294 O 0.22753 0.86852 0.61851 0.0
C295 C 0.19293 0.84831 0.66153 0.0
N296 N 0.18698 0.83455 0.63939 0.0
C297 C 0.14899 0.81154 0.65863 0.0
C298 C 0.15463 0.82553 0.68162 0.0
C299 C 0.17677 0.8439 0.6831 0.0
C300 C 0.16597 0.81655 0.63788 0.0
H301 H 0.20984 0.86256 0.66267 0.0
C302 C 0.2522 0.87565 0.62152 0.0
O303 O 0.30588 0.82132 0.61606 0.0
O304 O 0.27816 0.81677 0.64884 0.0
N305 N 0.17961 0.80903 0.59604 0.0
C306 C 0.17695 0.79717 0.57247 0.0
C307 C 0.15614 0.77778 0.568 0.0
C308 C 0.13804 0.77112 0.58763 0.0
C309 C 0.14081 0.78405 0.61152 0.0
C310 C 0.16201 0.8031 0.6149 0.0
H311 H 0.19069 0.80234 0.55726 0.0
O312 O 0.25599 0.78419 0.60867 0.0
O313 O 0.22933 0.8138 0.61836 0.0
O314 O 0.26175 0.82711 0.57479 0.0
O315 O 0.22079 0.83975 0.57283 0.0
C316 C 0.12325 0.77891 0.63204 0.0
C317 C 0.12726 0.79276 0.65553 0.0
H318 H 0.14215 0.82225 0.69827 0.0
H319 H 0.1813 0.85472 0.70079 0.0
H320 H 0.15403 0.76802 0.54945 0.0
H321 H 0.12201 0.75616 0.58411 0.0
H322 H 0.10664 0.76431 0.62999 0.0
H323 H 0.1137 0.78855 0.67122 0.0
Mn324 Mn 0.62228 0.74237 0.16715 0.0
Mn325 Mn 0.61205 0.79886 0.14087 0.0
C326 C 0.62343 0.77887 0.1928 0.0
C327 C 0.64958 0.7116 0.17873 0.0
C328 C 0.5682 0.75665 0.1509 0.0
O329 O 0.62818 0.73579 0.12951 0.0
O330 O 0.62352 0.77478 0.11351 0.0
C331 C 0.66645 0.81703 0.12495 0.0
N332 N 0.64429 0.82084 0.13859 0.0
C333 C 0.66328 0.86256 0.1538 0.0
C334 C 0.68624 0.85914 0.13978 0.0
C335 C 0.68783 0.83627 0.12532 0.0
C336 C 0.64243 0.8429 0.15236 0.0
H337 H 0.66781 0.79943 0.1139 0.0
C338 C 0.62888 0.75132 0.11105 0.0
O339 O 0.62449 0.70565 0.17499 0.0
O340 O 0.65896 0.73526 0.175 0.0
N341 N 0.6015 0.82373 0.16539 0.0
C342 C 0.57921 0.82277 0.17994 0.0
C343 C 0.57529 0.84345 0.19679 0.0
C344 C 0.59428 0.86492 0.19845 0.0
C345 C 0.61706 0.86547 0.18327 0.0
C346 C 0.61981 0.84437 0.16669 0.0
H347 H 0.56466 0.80623 0.1789 0.0
O348 O 0.61844 0.75623 0.20239 0.0
O349 O 0.62743 0.77953 0.16812 0.0
O350 O 0.58272 0.74139 0.16122 0.0
O351 O 0.57718 0.77844 0.14234 0.0
C352 C 0.63752 0.88576 0.18453 0.0
C353 C 0.66059 0.88433 0.16977 0.0
H354 H 0.7029 0.8738 0.14027 0.0
H355 H 0.70554 0.83343 0.11457 0.0
H356 H 0.55775 0.84281 0.20858 0.0
H357 H 0.59132 0.88071 0.21168 0.0
H358 H 0.63595 0.90233 0.19717 0.0
H359 H 0.67639 0.89984 0.17128 0.0
Mn360 Mn 0.73735 0.1454 0.62484 0.0
Mn361 Mn 0.80113 0.13894 0.61091 0.0
C362 C 0.76699 0.18142 0.6208 0.0
C363 C 0.70426 0.14775 0.65552 0.0
C364 C 0.75715 0.13323 0.57122 0.0
O365 O 0.7406 0.10777 0.63166 0.0
O366 O 0.78431 0.10664 0.62566 0.0
C367 C 0.82279 0.13371 0.66288 0.0
N368 N 0.82316 0.14622 0.64033 0.0
C369 C 0.86273 0.17288 0.6525 0.0
C370 C 0.86285 0.16021 0.67583 0.0
C371 C 0.84266 0.14069 0.68112 0.0
C372 C 0.84218 0.16539 0.63527 0.0
H373 H 0.80756 0.11839 0.66682 0.0
C374 C 0.76152 0.09626 0.63232 0.0
O375 O 0.69852 0.14138 0.63179 0.0
O376 O 0.72907 0.15189 0.66143 0.0
N377 N 0.81991 0.16893 0.59685 0.0
C378 C 0.8163 0.17999 0.57394 0.0
C379 C 0.83381 0.20098 0.56652 0.0
C380 C 0.85518 0.21001 0.58243 0.0
C381 C 0.85877 0.19803 0.60569 0.0
C382 C 0.84038 0.17752 0.61231 0.0
H383 H 0.8001 0.17295 0.56148 0.0
O384 O 0.7418 0.18299 0.6191 0.0
O385 O 0.7742 0.15893 0.62591 0.0
O386 O 0.73827 0.13852 0.58592 0.0
O387 O 0.78061 0.13171 0.57919 0.0
C388 C 0.87994 0.20555 0.6225 0.0
C389 C 0.88207 0.1928 0.64578 0.0
H390 H 0.87824 0.16543 0.68987 0.0
H391 H 0.84258 0.13087 0.6991 0.0
H392 H 0.83096 0.21004 0.54849 0.0
H393 H 0.86876 0.22609 0.57656 0.0
H394 H 0.89458 0.22124 0.61783 0.0
H395 H 0.89829 0.19892 0.65867 0.0
Mn396 Mn 0.37619 0.23195 0.16221 0.0
Mn397 Mn 0.40017 0.1753 0.1493 0.0
C398 C 0.3901 0.2085 0.19506 0.0
C399 C 0.34012 0.2548 0.16935 0.0
C400 C 0.43186 0.22694 0.14236 0.0
O401 O 0.36401 0.22335 0.12626 0.0
O402 O 0.37946 0.18482 0.11891 0.0
C403 C 0.34982 0.14152 0.14678 0.0
N404 N 0.37406 0.14782 0.15752 0.0
C405 C 0.36762 0.11253 0.18629 0.0
C406 C 0.34268 0.10554 0.17539 0.0
C407 C 0.33371 0.12015 0.1556 0.0
C408 C 0.38284 0.13395 0.17664 0.0
H409 H 0.34279 0.15274 0.13163 0.0
C410 C 0.36647 0.20342 0.1123 0.0
O411 O 0.3623 0.26623 0.16119 0.0
O412 O 0.33907 0.23038 0.17355 0.0
N413 N 0.41997 0.16387 0.17719 0.0
C414 C 0.44369 0.17421 0.18684 0.0
C415 C 0.45486 0.1626 0.20758 0.0
C416 C 0.44159 0.14046 0.21812 0.0
C417 C 0.41724 0.13013 0.20783 0.0
C418 C 0.40712 0.14248 0.1871 0.0
H419 H 0.45389 0.19133 0.17896 0.0
O420 O 0.38855 0.23307 0.19805 0.0
O421 O 0.38301 0.19832 0.17275 0.0
O422 O 0.41397 0.24077 0.14994 0.0
O423 O 0.42866 0.20235 0.14104 0.0
C424 C 0.40244 0.1083 0.21759 0.0
C425 C 0.37773 0.09942 0.20673 0.0
H426 H 0.33012 0.08918 0.18226 0.0
H427 H 0.31441 0.11498 0.14721 0.0
H428 H 0.47361 0.17075 0.21547 0.0
H429 H 0.45019 0.13165 0.23422 0.0
H430 H 0.40977 0.09834 0.2336 0.0
H431 H 0.36639 0.08278 0.21459 0.0
Mn432 Mn 0.86289 0.66391 0.72867 0.0
Mn433 Mn 0.87825 0.64134 0.78642 0.0
C434 C 0.83165 0.66003 0.76102 0.0
C435 C 0.85861 0.6971 0.70053 0.0
C436 C 0.86991 0.60783 0.73821 0.0
O437 O 0.90325 0.66806 0.72851 0.0
O438 O 0.91065 0.65638 0.76919 0.0
C439 C 0.89752 0.6897 0.81435 0.0
N440 N 0.88098 0.66754 0.81279 0.0
C441 C 0.86311 0.6757 0.8546 0.0
C442 C 0.88023 0.69845 0.85679 0.0
C443 C 0.89741 0.70553 0.83652 0.0
C444 C 0.86433 0.66054 0.83217 0.0
H445 H 0.91056 0.69526 0.79873 0.0
C446 C 0.91851 0.665 0.74742 0.0
O447 O 0.86045 0.67368 0.69231 0.0
O448 O 0.86109 0.7016 0.72504 0.0
N449 N 0.84826 0.62655 0.80495 0.0
C450 C 0.8307 0.60602 0.79826 0.0
C451 C 0.81058 0.59769 0.81544 0.0
C452 C 0.80888 0.61038 0.83937 0.0
C453 C 0.82723 0.63142 0.84584 0.0
C454 C 0.84685 0.63886 0.82794 0.0
H455 H 0.8319 0.59626 0.77986 0.0
O456 O 0.82428 0.66007 0.73724 0.0
O457 O 0.8569 0.66172 0.76514 0.0
O458 O 0.86331 0.62511 0.72352 0.0
O459 O 0.87604 0.61211 0.76168 0.0
C460 C 0.82623 0.6459 0.86893 0.0
C461 C 0.84421 0.66798 0.87334 0.0
H462 H 0.88 0.71086 0.87373 0.0
H463 H 0.91047 0.7232 0.83796 0.0
H464 H 0.79635 0.58157 0.81023 0.0
H465 H 0.79316 0.60407 0.85246 0.0
H466 H 0.81127 0.64062 0.88314 0.0
H467 H 0.8428 0.67932 0.89088 0.0
Mn468 Mn 0.88761 0.3773 0.25719 0.0
Mn469 Mn 0.8898 0.4152 0.20574 0.0
C470 C 0.85498 0.37111 0.2266 0.0
C471 C 0.89781 0.34045 0.27712 0.0
C472 C 0.87344 0.43257 0.25877 0.0
O473 O 0.92557 0.393 0.25707 0.0
O474 O 0.92583 0.41556 0.22078 0.0
C475 C 0.92236 0.38615 0.1706 0.0
N476 N 0.89954 0.39689 0.17558 0.0
C477 C 0.88237 0.38436 0.13366 0.0
C478 C 0.90576 0.37331 0.12802 0.0
C479 C 0.92581 0.37418 0.14659 0.0
C480 C 0.88017 0.39631 0.1578 0.0
H481 H 0.93778 0.3867 0.18484 0.0
C482 C 0.93742 0.40711 0.2402 0.0
O483 O 0.89204 0.36052 0.2904 0.0
O484 O 0.89899 0.34236 0.25243 0.0
N485 N 0.85626 0.41605 0.18936 0.0
C486 C 0.83394 0.42526 0.19874 0.0
C487 C 0.81143 0.42441 0.1831 0.0
C488 C 0.81214 0.41427 0.15794 0.0
C489 C 0.83536 0.40503 0.14866 0.0
C490 C 0.85722 0.40646 0.1651 0.0
H491 H 0.83321 0.43289 0.21812 0.0
O492 O 0.85059 0.36319 0.24969 0.0
O493 O 0.87833 0.38259 0.22207 0.0
O494 O 0.87529 0.41144 0.26989 0.0
O495 O 0.879 0.43594 0.23521 0.0
C496 C 0.83737 0.39365 0.12406 0.0
C497 C 0.86087 0.38336 0.11655 0.0
H498 H 0.90841 0.36384 0.10962 0.0
H499 H 0.94386 0.36556 0.14242 0.0
H500 H 0.79351 0.43139 0.19046 0.0
H501 H 0.79463 0.41333 0.14605 0.0
H502 H 0.82076 0.39221 0.11096 0.0
H503 H 0.862 0.37423 0.09776 0.0
Mn504 Mn 0.1257 0.3119 0.76297 0.0
Mn505 Mn 0.11916 0.34871 0.81628 0.0
C506 C 0.16166 0.32392 0.78894 0.0
C507 C 0.12491 0.27174 0.74212 0.0
C508 C 0.12217 0.37023 0.76322 0.0
O509 O 0.0861 0.30842 0.76829 0.0
O510 O 0.08378 0.33438 0.80335 0.0
C511 C 0.09851 0.30766 0.85106 0.0
N512 N 0.11711 0.32728 0.8454 0.0
C513 C 0.13889 0.3241 0.88588 0.0
C514 C 0.11993 0.30388 0.8922 0.0
C515 C 0.09975 0.29553 0.87464 0.0
C516 C 0.13686 0.33517 0.86196 0.0
H517 H 0.08279 0.30145 0.83774 0.0
C518 C 0.07313 0.31978 0.7853 0.0
O519 O 0.12184 0.29234 0.72954 0.0
O520 O 0.12737 0.27436 0.76679 0.0
N521 N 0.15168 0.36408 0.83075 0.0
C522 C 0.16881 0.38328 0.82135 0.0
C523 C 0.19091 0.39297 0.83601 0.0
C524 C 0.1948 0.38323 0.86038 0.0
C525 C 0.17658 0.36384 0.86984 0.0
C526 C 0.15519 0.35465 0.85419 0.0
H527 H 0.16572 0.39098 0.80273 0.0
O528 O 0.16483 0.31733 0.76507 0.0
O529 O 0.13742 0.32309 0.79706 0.0
O530 O 0.1241 0.34898 0.75103 0.0
O531 O 0.12124 0.37234 0.7876 0.0
C532 C 0.17873 0.35335 0.89421 0.0
C533 C 0.15979 0.33362 0.9023 0.0
H534 H 0.12073 0.29458 0.91043 0.0
H535 H 0.08508 0.27991 0.87936 0.0
H536 H 0.20481 0.40802 0.82861 0.0
H537 H 0.21179 0.39085 0.87169 0.0
H538 H 0.19499 0.36017 0.90682 0.0
H539 H 0.1618 0.32553 0.92099 0.0
Mn540 Mn 0.11113 0.6481 0.24252 0.0
Mn541 Mn 0.09694 0.6167 0.18639 0.0
C542 C 0.13898 0.65626 0.20834 0.0
C543 C 0.10472 0.68317 0.26909 0.0
C544 C 0.12087 0.59255 0.23226 0.0
O545 O 0.07337 0.63298 0.24682 0.0
O546 O 0.06367 0.61889 0.2065 0.0
C547 C 0.0646 0.65295 0.16143 0.0
N548 N 0.08576 0.63894 0.16101 0.0
C549 C 0.0979 0.65311 0.11876 0.0
C550 C 0.07602 0.66741 0.11861 0.0
C551 C 0.05936 0.66739 0.14008 0.0
C552 C 0.10193 0.6388 0.14044 0.0
H553 H 0.05188 0.65317 0.17797 0.0
C554 C 0.05694 0.62432 0.22957 0.0
O555 O 0.11254 0.66238 0.27843 0.0
O556 O 0.09988 0.68302 0.24476 0.0
N557 N 0.12719 0.61391 0.16495 0.0
C558 C 0.14929 0.60199 0.16948 0.0
C559 C 0.16896 0.60179 0.15063 0.0
C560 C 0.16573 0.61378 0.12727 0.0
C561 C 0.1429 0.62603 0.12305 0.0
C562 C 0.12388 0.6255 0.14251 0.0
H563 H 0.15216 0.59311 0.1875 0.0
O564 O 0.14675 0.66233 0.23154 0.0
O565 O 0.11461 0.64622 0.20566 0.0
O566 O 0.12433 0.61269 0.24674 0.0
O567 O 0.10906 0.59199 0.21063 0.0
C568 C 0.13881 0.63966 0.10074 0.0
C569 C 0.11631 0.65316 0.09858 0.0
H570 H 0.07207 0.67879 0.10229 0.0
H571 H 0.04259 0.67857 0.1402 0.0
H572 H 0.18668 0.59261 0.15418 0.0
H573 H 0.18113 0.61391 0.11292 0.0
H574 H 0.15318 0.64041 0.08538 0.0
H575 H 0.11369 0.66403 0.08156 0.0
Mn576 Mn 0.72683 0.86032 0.6613 0.0
Mn577 Mn 0.66601 0.88011 0.66872 0.0
C578 C 0.70314 0.85185 0.69837 0.0
C579 C 0.7553 0.83019 0.64886 0.0
C580 C 0.71639 0.91606 0.67276 0.0
O581 O 0.71643 0.86757 0.62464 0.0
O582 O 0.67512 0.87843 0.63179 0.0
C583 C 0.63385 0.8355 0.64465 0.0
N584 N 0.63961 0.85149 0.66536 0.0
C585 C 0.6047 0.82945 0.68993 0.0
C586 C 0.5983 0.81283 0.66882 0.0
C587 C 0.61297 0.81585 0.64609 0.0
C588 C 0.62553 0.84886 0.68727 0.0
H589 H 0.64515 0.83772 0.62719 0.0
C590 C 0.69436 0.87429 0.61684 0.0
O591 O 0.7635 0.85445 0.65148 0.0
O592 O 0.73029 0.82352 0.65216 0.0
N593 N 0.65501 0.88221 0.70371 0.0
C594 C 0.66524 0.89834 0.72295 0.0
C595 C 0.6537 0.89693 0.74738 0.0
C596 C 0.63171 0.87907 0.75172 0.0
C597 C 0.62148 0.86274 0.73158 0.0
C598 C 0.6337 0.86513 0.70761 0.0
H599 H 0.68222 0.912 0.71973 0.0
O600 O 0.72866 0.8523 0.69842 0.0
O601 O 0.6923 0.85656 0.67673 0.0
O602 O 0.73216 0.89883 0.66959 0.0
O603 O 0.69133 0.91117 0.67276 0.0
C604 C 0.6001 0.8437 0.73454 0.0
C605 C 0.5917 0.82709 0.71372 0.0
H606 H 0.58236 0.79749 0.66993 0.0
H607 H 0.60823 0.80301 0.62976 0.0
H608 H 0.66181 0.90948 0.76288 0.0
H609 H 0.62302 0.87787 0.77064 0.0
H610 H 0.59029 0.84137 0.75287 0.0
H611 H 0.57553 0.81225 0.71636 0.0
Mn612 Mn 0.67265 0.26085 0.12347 0.0
Mn613 Mn 0.66698 0.32289 0.10993 0.0
C614 C 0.70897 0.29092 0.12593 0.0
C615 C 0.67131 0.22785 0.15283 0.0
C616 C 0.66978 0.28081 0.06913 0.0
O617 O 0.63308 0.26262 0.12465 0.0
O618 O 0.63155 0.30471 0.11695 0.0
C619 C 0.6485 0.34158 0.16017 0.0
N620 N 0.66648 0.3433 0.1408 0.0
C621 C 0.68906 0.38195 0.15964 0.0
C622 C 0.67077 0.38063 0.17978 0.0
C623 C 0.65052 0.36024 0.18014 0.0
C624 C 0.68633 0.36255 0.14053 0.0
H625 H 0.63264 0.32619 0.16026 0.0
C626 C 0.62043 0.28223 0.12181 0.0
O627 O 0.6688 0.22286 0.12839 0.0
O628 O 0.67337 0.25188 0.16018 0.0
N629 N 0.69971 0.34281 0.10292 0.0
C630 C 0.71627 0.34075 0.0826 0.0
C631 C 0.73851 0.35877 0.08025 0.0
C632 C 0.74312 0.37906 0.09843 0.0
C633 C 0.72549 0.38108 0.11887 0.0
C634 C 0.70399 0.36223 0.12053 0.0
H635 H 0.71262 0.32538 0.0684 0.0
O636 O 0.71177 0.26658 0.12332 0.0
O637 O 0.68489 0.29706 0.12763 0.0
O638 O 0.6719 0.2623 0.0842 0.0
O639 O 0.66777 0.30389 0.07697 0.0
C640 C 0.7283 0.40112 0.13758 0.0
C641 C 0.70997 0.40167 0.15783 0.0
H642 H 0.67214 0.3951 0.19512 0.0
H643 H 0.63635 0.35908 0.19564 0.0
H644 H 0.75196 0.35714 0.06436 0.0
H645 H 0.7602 0.39303 0.09646 0.0
H646 H 0.74458 0.41613 0.13667 0.0
H647 H 0.7125 0.41704 0.17225 0.0
Mn648 Mn 0.24828 0.11002 0.66158 0.0
Mn649 Mn 0.31282 0.11465 0.64585 0.0
C650 C 0.28015 0.11199 0.69301 0.0
C651 C 0.21107 0.13101 0.67085 0.0
C652 C 0.27741 0.06432 0.64348 0.0
O653 O 0.24779 0.12026 0.62447 0.0
O654 O 0.29138 0.12348 0.61621 0.0
C655 C 0.3213 0.17094 0.63887 0.0
N656 N 0.32761 0.14953 0.65082 0.0
C657 C 0.36308 0.17387 0.67391 0.0
C658 C 0.35703 0.19618 0.66179 0.0
C659 C 0.33594 0.19472 0.64431 0.0
C660 C 0.34759 0.15079 0.66797 0.0
H661 H 0.30529 0.16987 0.62521 0.0
C662 C 0.26739 0.12504 0.60955 0.0
O663 O 0.20863 0.10705 0.66297 0.0
O664 O 0.23467 0.1426 0.67278 0.0
N665 N 0.33598 0.10695 0.67279 0.0
C666 C 0.33889 0.08378 0.68327 0.0
C667 C 0.35842 0.08216 0.70195 0.0
C668 C 0.37505 0.10423 0.70933 0.0
C669 C 0.372 0.12775 0.69793 0.0
C670 C 0.35201 0.12826 0.67962 0.0
H671 H 0.32624 0.06673 0.67759 0.0
O672 O 0.25607 0.10287 0.6979 0.0
O673 O 0.2847 0.12029 0.67007 0.0
O674 O 0.25599 0.07327 0.65062 0.0
O675 O 0.29932 0.07828 0.64094 0.0
C676 C 0.38809 0.15067 0.70394 0.0
C677 C 0.38377 0.17368 0.69178 0.0
H678 H 0.36836 0.21453 0.66585 0.0
H679 H 0.33111 0.21186 0.63492 0.0
H680 H 0.3607 0.06391 0.71059 0.0
H681 H 0.39015 0.10288 0.72369 0.0
H682 H 0.40379 0.15086 0.71795 0.0
H683 H 0.39616 0.19122 0.69668 0.0
Mn684 Mn 0.3279 0.75479 0.11266 0.0
Mn685 Mn 0.32954 0.6916 0.09807 0.0
C686 C 0.28925 0.72717 0.11164 0.0
C687 C 0.32923 0.78859 0.14313 0.0
C688 C 0.33402 0.7332 0.0583 0.0
O689 O 0.36685 0.74996 0.11725 0.0
O690 O 0.36489 0.70706 0.10974 0.0
C691 C 0.34077 0.6712 0.14879 0.0
N692 N 0.32508 0.67096 0.12767 0.0
C693 C 0.2993 0.63238 0.14073 0.0
C694 C 0.3153 0.63209 0.16256 0.0
C695 C 0.33593 0.65174 0.16674 0.0
C696 C 0.30475 0.65252 0.12381 0.0
H697 H 0.35699 0.68596 0.15177 0.0
C698 C 0.37748 0.72881 0.1161 0.0
O699 O 0.33411 0.79287 0.11912 0.0
O700 O 0.32478 0.76475 0.14952 0.0
N701 N 0.29649 0.67425 0.08686 0.0
C702 C 0.28211 0.67816 0.06558 0.0
C703 C 0.25937 0.66148 0.05981 0.0
C704 C 0.25204 0.64061 0.07561 0.0
C705 C 0.26737 0.63679 0.0972 0.0
C706 C 0.28941 0.65444 0.10235 0.0
H707 H 0.28792 0.69394 0.05318 0.0
O708 O 0.28873 0.75176 0.10927 0.0
O709 O 0.3124 0.71933 0.11498 0.0
O710 O 0.33176 0.75248 0.0734 0.0
O711 O 0.33392 0.71026 0.06603 0.0
C712 C 0.26176 0.61608 0.11373 0.0
C713 C 0.27792 0.61369 0.1353 0.0
H714 H 0.31175 0.61701 0.17634 0.0
H715 H 0.34829 0.65171 0.18358 0.0
H716 H 0.24769 0.66452 0.04307 0.0
H717 H 0.23466 0.6276 0.07093 0.0
H718 H 0.24498 0.60197 0.11013 0.0
H719 H 0.27327 0.59782 0.14801 0.0
Mn720 Mn 0.77579 0.15031 0.3297 0.0
Mn721 Mn 0.8349 0.14032 0.35468 0.0
C722 C 0.81012 0.18277 0.33012 0.0
C723 C 0.74726 0.14836 0.29469 0.0
C724 C 0.7863 0.14804 0.3869 0.0
O725 O 0.77382 0.11133 0.33195 0.0
O726 O 0.8156 0.10675 0.34428 0.0
C727 C 0.86078 0.1205 0.3085 0.0
N728 N 0.86056 0.13809 0.32821 0.0
C729 C 0.90209 0.15978 0.31489 0.0
C730 C 0.90284 0.1418 0.29453 0.0
C731 C 0.88207 0.1221 0.2913 0.0
C732 C 0.88046 0.15709 0.33153 0.0
H733 H 0.84479 0.1054 0.30593 0.0
C734 C 0.79232 0.09751 0.33731 0.0
O735 O 0.73836 0.14931 0.31798 0.0
O736 O 0.77248 0.14773 0.29176 0.0
N737 N 0.85551 0.17145 0.3654 0.0
C738 C 0.85086 0.18822 0.38494 0.0
C739 C 0.86932 0.20957 0.39019 0.0
C740 C 0.89239 0.21335 0.37541 0.0
C741 C 0.89679 0.19577 0.35547 0.0
C742 C 0.87782 0.17472 0.35128 0.0
H743 H 0.83315 0.1854 0.39634 0.0
O744 O 0.78593 0.18819 0.32782 0.0
O745 O 0.81343 0.15857 0.33178 0.0
O746 O 0.77119 0.15308 0.36864 0.0
O747 O 0.81002 0.14267 0.38347 0.0
C748 C 0.91899 0.19858 0.33926 0.0
C749 C 0.92162 0.18061 0.31898 0.0
H750 H 0.91914 0.14308 0.2811 0.0
H751 H 0.88245 0.10823 0.27555 0.0
H752 H 0.86573 0.22312 0.40554 0.0
H753 H 0.90651 0.22991 0.37942 0.0
H754 H 0.93394 0.21471 0.34199 0.0
H755 H 0.93857 0.1832 0.3064 0.0
Mn756 Mn 0.33601 0.2307 0.88101 0.0
Mn757 Mn 0.34842 0.29044 0.90708 0.0
C758 C 0.30525 0.25978 0.87714 0.0
C759 C 0.3394 0.20184 0.8471 0.0
C760 C 0.33314 0.24284 0.93793 0.0
O761 O 0.37532 0.23406 0.88692 0.0
O762 O 0.38266 0.2754 0.90101 0.0
C763 C 0.3765 0.31735 0.86431 0.0
N764 N 0.35605 0.31531 0.88123 0.0
C765 C 0.339 0.35301 0.86496 0.0
C766 C 0.36001 0.35564 0.84752 0.0
C767 C 0.37882 0.33771 0.84719 0.0
C768 C 0.33797 0.33259 0.88188 0.0
H769 H 0.39088 0.30351 0.86383 0.0
C770 C 0.39072 0.25376 0.89393 0.0
O771 O 0.33617 0.19394 0.87036 0.0
O772 O 0.34116 0.22647 0.84372 0.0
N773 N 0.31697 0.30697 0.91308 0.0
C774 C 0.29637 0.3 0.92895 0.0
C775 C 0.2749 0.31488 0.93025 0.0
C776 C 0.27483 0.33678 0.91526 0.0
C777 C 0.29623 0.34357 0.89905 0.0
C778 C 0.31716 0.32808 0.89865 0.0
H779 H 0.29616 0.28301 0.94023 0.0
O780 O 0.29818 0.23521 0.8751 0.0
O781 O 0.33017 0.26654 0.88169 0.0
O782 O 0.32982 0.22685 0.91918 0.0
O783 O 0.3404 0.26678 0.93566 0.0
C784 C 0.29718 0.36458 0.8826 0.0
C785 C 0.31859 0.36934 0.86563 0.0
H786 H 0.36168 0.37112 0.83405 0.0
H787 H 0.39499 0.33951 0.83367 0.0
H788 H 0.25834 0.30935 0.94263 0.0
H789 H 0.25807 0.34801 0.91607 0.0
H790 H 0.28128 0.37688 0.88248 0.0
H791 H 0.31885 0.38527 0.85274 0.0
Mn792 Mn 0.23051 0.87456 0.32335 0.0
Mn793 Mn 0.17184 0.88242 0.35151 0.0
C794 C 0.19688 0.84132 0.3225 0.0
C795 C 0.2581 0.87698 0.28761 0.0
C796 C 0.22131 0.87327 0.38104 0.0
O797 O 0.23179 0.91361 0.32851 0.0
O798 O 0.1904 0.91639 0.34329 0.0
C799 C 0.14445 0.90317 0.30786 0.0
N800 N 0.14518 0.88538 0.32635 0.0
C801 C 0.1027 0.86458 0.31354 0.0
C802 C 0.10132 0.88291 0.29459 0.0
C803 C 0.12234 0.90223 0.29168 0.0
C804 C 0.12514 0.86662 0.32923 0.0
H805 H 0.16067 0.91788 0.30542 0.0
C806 C 0.2129 0.92657 0.33562 0.0
O807 O 0.2676 0.87618 0.3106 0.0
O808 O 0.23282 0.87776 0.28547 0.0
N809 N 0.15161 0.85097 0.36029 0.0
C810 C 0.15699 0.83356 0.37803 0.0
C811 C 0.13853 0.8123 0.38243 0.0
C812 C 0.11464 0.80927 0.36873 0.0
C813 C 0.10942 0.82756 0.35075 0.0
C814 C 0.12848 0.84846 0.34731 0.0
H815 H 0.17531 0.83575 0.38862 0.0
O816 O 0.22114 0.83663 0.3188 0.0
O817 O 0.19287 0.86531 0.3261 0.0
O818 O 0.23625 0.87041 0.36177 0.0
O819 O 0.19754 0.87883 0.37909 0.0
C820 C 0.08636 0.8255 0.33563 0.0
C821 C 0.08302 0.84398 0.31702 0.0
H822 H 0.08439 0.88213 0.28194 0.0
H823 H 0.12153 0.91629 0.27694 0.0
H824 H 0.14274 0.79822 0.39627 0.0
H825 H 0.10057 0.79269 0.37198 0.0
H826 H 0.0713 0.80951 0.33781 0.0
H827 H 0.06543 0.84192 0.30517 0.0
Mn828 Mn 0.65801 0.72429 0.87702 0.0
Mn829 Mn 0.64671 0.66181 0.89174 0.0
C830 C 0.69115 0.69825 0.87161 0.0
C831 C 0.65316 0.75458 0.84619 0.0
C832 C 0.65866 0.70514 0.93148 0.0
O833 O 0.61896 0.71894 0.88127 0.0
O834 O 0.61194 0.67636 0.88742 0.0
C835 C 0.62212 0.64105 0.84316 0.0
N836 N 0.6415 0.64106 0.86112 0.0
C837 C 0.65961 0.60547 0.83968 0.0
C838 C 0.63975 0.60496 0.82103 0.0
C839 C 0.62101 0.62293 0.82271 0.0
C840 C 0.65982 0.62408 0.8595 0.0
H841 H 0.60758 0.65472 0.84448 0.0
C842 C 0.60375 0.69856 0.88462 0.0
O843 O 0.65599 0.76171 0.87019 0.0
O844 O 0.65359 0.7304 0.84043 0.0
N845 N 0.67815 0.64512 0.89611 0.0
C846 C 0.69704 0.6493 0.91464 0.0
C847 C 0.7181 0.63389 0.91485 0.0
C848 C 0.71933 0.61413 0.89622 0.0
C849 C 0.69959 0.61008 0.87744 0.0
C850 C 0.67924 0.62623 0.87803 0.0
H851 H 0.6963 0.66458 0.92886 0.0
O852 O 0.69615 0.72312 0.87235 0.0
O853 O 0.66634 0.6892 0.87268 0.0
O854 O 0.66215 0.72387 0.91614 0.0
O855 O 0.65252 0.68171 0.92421 0.0
C856 C 0.6994 0.59078 0.85803 0.0
C857 C 0.6793 0.58835 0.83928 0.0
H858 H 0.63879 0.59097 0.80527 0.0
H859 H 0.60568 0.62273 0.80835 0.0
H860 H 0.73334 0.63724 0.92933 0.0
H861 H 0.7356 0.60227 0.89645 0.0
H862 H 0.71478 0.57789 0.85717 0.0
H863 H 0.67954 0.57363 0.82428 0.0
H864 H 0.12823 0.55139 0.2009 0.0
H865 H 0.14236 0.58092 0.27874 0.0
H866 H 0.16546 0.54258 0.28812 0.0
H867 H 0.11639 0.48547 0.21447 0.0
H868 H 0.13285 0.47529 0.18595 0.0
H869 H 0.11765 0.5049 0.1864 0.0
H870 H 0.16237 0.52935 0.173 0.0
H871 H 0.17779 0.49978 0.17305 0.0
H872 H 0.19134 0.52713 0.1923 0.0
H873 H 0.18433 0.49861 0.28903 0.0
H874 H 0.19608 0.45412 0.28158 0.0
H875 H 0.17314 0.45765 0.20182 0.0
C876 C 0.13606 0.54997 0.22002 0.0
C877 C 0.13332 0.56919 0.23913 0.0
C878 C 0.14412 0.56641 0.26379 0.0
C879 C 0.1574 0.54479 0.26923 0.0
C880 C 0.16013 0.52648 0.24965 0.0
C881 C 0.14979 0.52907 0.22553 0.0
C882 C 0.15502 0.50698 0.20765 0.0
C883 C 0.12894 0.4923 0.19807 0.0
C884 C 0.17268 0.51638 0.18518 0.0
C885 C 0.16947 0.49107 0.22556 0.0
C886 C 0.17226 0.50244 0.24976 0.0
C887 C 0.18269 0.4898 0.27002 0.0
C888 C 0.18945 0.46457 0.26558 0.0
C889 C 0.18592 0.45241 0.24103 0.0
C890 C 0.17679 0.46643 0.22068 0.0
H891 H 0.94857 0.64564 0.70967 0.0
H892 H 0.95265 0.69207 0.77987 0.0
H893 H -4e-05 0.68718 0.78368 0.0
H894 H 0.98469 0.60072 0.72913 0.0
H895 H 0.00303 0.59531 0.70027 0.0
H896 H 0.97145 0.60772 0.69838 0.0
H897 H 0.99201 0.64744 0.67418 0.0
H898 H 0.02365 0.63478 0.67518 0.0
H899 H 0.02025 0.66682 0.68759 0.0
H900 H 0.04118 0.66765 0.78683 0.0
H901 H 0.07894 0.64208 0.78418 0.0
H902 H 0.0515 0.61026 0.71021 0.0
C903 C 0.95991 0.65603 0.7249 0.0
C904 C 0.94722 0.6695 0.74433 0.0
C905 C 0.96219 0.68192 0.7647 0.0
C906 C 0.98905 0.6792 0.76705 0.0
C907 C 0.00067 0.66423 0.74866 0.0
C908 C 0.98694 0.65349 0.72747 0.0
C909 C 0.00356 0.63594 0.7122 0.0
C910 C 0.98985 0.6083 0.70988 0.0
C911 C 0.01027 0.64691 0.68571 0.0
C912 C 0.02792 0.63726 0.72906 0.0
C913 C 0.02573 0.65374 0.74993 0.0
C914 C 0.04376 0.65555 0.77004 0.0
C915 C 0.06506 0.64071 0.76848 0.0
C916 C 0.06851 0.62463 0.74674 0.0
C917 C 0.04966 0.62291 0.72675 0.0
H918 H 0.85644 0.4762 0.23993 0.0
H919 H 0.87034 0.43875 0.31118 0.0
H920 H 0.85799 0.47707 0.33548 0.0
H921 H 0.88382 0.53734 0.25853 0.0
H922 H 0.86017 0.55415 0.24174 0.0
H923 H 0.86741 0.52284 0.23034 0.0
H924 H 0.8177 0.50628 0.23271 0.0
H925 H 0.81029 0.53763 0.24415 0.0
H926 H 0.80012 0.50956 0.26242 0.0
H927 H 0.84883 0.52143 0.35159 0.0
H928 H 0.84294 0.56755 0.35814 0.0
H929 H 0.83395 0.5746 0.27602 0.0
C930 C 0.85662 0.47583 0.26066 0.0
C931 C 0.86444 0.45451 0.27366 0.0
C932 C 0.86433 0.45486 0.3008 0.0
C933 C 0.85731 0.47651 0.31476 0.0
C934 C 0.8501 0.49738 0.30125 0.0
C935 C 0.8495 0.49706 0.27479 0.0
C936 C 0.84249 0.52233 0.26469 0.0
C937 C 0.8648 0.53489 0.24785 0.0
C938 C 0.81608 0.51872 0.25014 0.0
C939 C 0.84007 0.53729 0.28959 0.0
C940 C 0.84431 0.52258 0.3105 0.0
C941 C 0.84503 0.533 0.33539 0.0
C942 C 0.84175 0.55922 0.3389 0.0
C943 C 0.83781 0.57467 0.31761 0.0
C944 C 0.83643 0.56328 0.29275 0.0
H945 H 0.04581 0.36134 0.78637 0.0
H946 H 0.03711 0.27866 0.77312 0.0
H947 H 0.9904 0.28053 0.76047 0.0
H948 H 0.97736 0.36962 0.8077 0.0
H949 H 0.97672 0.39885 0.79024 0.0
H950 H 0.00744 0.39032 0.80302 0.0
H951 H 0.02837 0.3934 0.75781 0.0
H952 H -0.00222 0.40185 0.74491 0.0
H953 H 0.01267 0.37459 0.73157 0.0
H954 H 0.94609 0.29195 0.74626 0.0
H955 H 0.90869 0.31216 0.72785 0.0
H956 H 0.94825 0.38782 0.7461 0.0
C957 C 0.0337 0.34354 0.78176 0.0
C958 C 0.04457 0.31973 0.78142 0.0
C959 C 0.02877 0.29694 0.77398 0.0
C960 C 0.00232 0.29787 0.76683 0.0
C961 C 0.99231 0.3218 0.76681 0.0
C962 C 0.00761 0.34426 0.77388 0.0
C963 C 0.99353 0.36781 0.76881 0.0
C964 C 0.98846 0.38251 0.79395 0.0
C965 C 0.00901 0.38543 0.74963 0.0
C966 C 0.96805 0.35515 0.75729 0.0
C967 C 0.96749 0.32858 0.75688 0.0
C968 C 0.94626 0.3127 0.74659 0.0
C969 C 0.92523 0.32428 0.73613 0.0
C970 C 0.92594 0.35138 0.7356 0.0
C971 C 0.9474 0.36703 0.7465 0.0
H972 H 0.09445 0.40959 0.77779 0.0
H973 H 0.14395 0.38406 0.71653 0.0
H974 H 0.14227 0.42598 0.69554 0.0
H975 H 0.05373 0.44854 0.73777 0.0
H976 H 0.05236 0.47258 0.76305 0.0
H977 H 0.0542 0.43938 0.77078 0.0
H978 H 0.09592 0.45234 0.79849 0.0
H979 H 0.09401 0.48548 0.79126 0.0
H980 H 0.1239 0.4708 0.78445 0.0
H981 H 0.14088 0.47343 0.68558 0.0
H982 H 0.1408 0.52081 0.68826 0.0
H983 H 0.09042 0.51351 0.75521 0.0
C984 C 0.10461 0.41263 0.75972 0.0
C985 C 0.11952 0.39378 0.74884 0.0
C986 C 0.13237 0.39833 0.72511 0.0
C987 C 0.13142 0.42201 0.71306 0.0
C988 C 0.11701 0.44052 0.72472 0.0
C989 C 0.10357 0.43583 0.74741 0.0
C990 C 0.09145 0.45931 0.75749 0.0
C991 C 0.06114 0.45467 0.75724 0.0
C992 C 0.10197 0.46745 0.78449 0.0
C993 C 0.10135 0.47853 0.73773 0.0
C994 C 0.11567 0.46738 0.71867 0.0
C995 C 0.12918 0.48221 0.70005 0.0
C996 C 0.12892 0.50913 0.70163 0.0
C997 C 0.11551 0.52085 0.72189 0.0
C998 C 0.10063 0.50513 0.73934 0.0
H999 H 0.93573 0.65019 0.32039 0.0
H1000 H 0.88976 0.65502 0.2509 0.0
H1001 H 0.92759 0.64416 0.22504 0.0
H1002 H 0.99775 0.67874 0.29358 0.0
H1003 H 0.01744 0.65834 0.31108 0.0
H1004 H 0.98661 0.66673 0.32418 0.0
H1005 H 0.97084 0.61821 0.32814 0.0
H1006 H 0.00142 0.6097 0.31452 0.0
H1007 H 0.97042 0.59726 0.30009 0.0
H1008 H 0.96938 0.63043 0.20651 0.0
H1009 H 0.01506 0.62193 0.19624 0.0
H1010 H 0.03463 0.62753 0.2773 0.0
C1011 C 0.93371 0.64928 0.29974 0.0
C1012 C 0.90963 0.65341 0.28781 0.0
C1013 C 0.90793 0.65205 0.26065 0.0
C1014 C 0.92927 0.64566 0.2457 0.0
C1015 C 0.95237 0.64093 0.25808 0.0
C1016 C 0.95498 0.6432 0.28441 0.0
C1017 C 0.98237 0.63793 0.29274 0.0
C1018 C 0.9969 0.66186 0.30618 0.0
C1019 C 0.98118 0.61437 0.30989 0.0
C1020 C 0.99462 0.63233 0.26697 0.0
C1021 C 0.97685 0.63378 0.24727 0.0
C1022 C 0.98358 0.62939 0.22176 0.0
C1023 C 0.00955 0.62438 0.21612 0.0
C1024 C 0.02854 0.62418 0.23591 0.0
C1025 C 0.02064 0.62756 0.26169 0.0
H1026 H 0.86677 0.56307 0.76427 0.0
H1027 H 0.87772 0.59357 0.68807 0.0
H1028 H 0.88425 0.55001 0.67098 0.0
H1029 H 0.91448 0.51711 0.75972 0.0
H1030 H 0.89465 0.49302 0.77729 0.0
H1031 H 0.89148 0.52665 0.78358 0.0
H1032 H 0.84119 0.51908 0.77438 0.0
H1033 H 0.84415 0.48539 0.76843 0.0
H1034 H 0.82984 0.5039 0.74442 0.0
H1035 H 0.89045 0.50308 0.66258 0.0
H1036 H 0.89031 0.45578 0.66248 0.0
H1037 H 0.87384 0.45648 0.74411 0.0
C1038 C 0.87054 0.56062 0.74397 0.0
C1039 C 0.87183 0.58167 0.72749 0.0
C1040 C 0.8765 0.57763 0.701 0.0
C1041 C 0.88046 0.55304 0.69117 0.0
C1042 C 0.87944 0.53276 0.70807 0.0
C1043 C 0.87422 0.53626 0.73383 0.0
C1044 C 0.87294 0.5112 0.74778 0.0
C1045 C 0.89469 0.51206 0.7683 0.0
C1046 C 0.84539 0.5045 0.75943 0.0
C1047 C 0.87815 0.49297 0.72582 0.0
C1048 C 0.88224 0.50578 0.70313 0.0
C1049 C 0.88722 0.49284 0.68023 0.0
C1050 C 0.88724 0.46598 0.6804 0.0
C1051 C 0.88194 0.4524 0.70327 0.0
C1052 C 0.87789 0.46626 0.7263 0.0
H1053 H 0.97117 0.3815 0.26859 0.0
H1054 H 0.96939 0.44294 0.2144 0.0
H1055 H 0.01795 0.44668 0.21199 0.0
H1056 H 0.03474 0.40669 0.30099 0.0
H1057 H 0.04461 0.37471 0.30393 0.0
H1058 H 0.0101 0.37975 0.30483 0.0
H1059 H 0.00097 0.34625 0.26759 0.0
H1060 H 0.0354 0.34132 0.26632 0.0
H1061 H 0.01895 0.35062 0.238 0.0
H1062 H 0.06507 0.43983 0.21051 0.0
H1063 H 0.10887 0.42385 0.21111 0.0
H1064 H 0.08107 0.36684 0.26648 0.0
C1065 C 0.98101 0.39633 0.25685 0.0
C1066 C 0.96647 0.41205 0.24178 0.0
C1067 C 0.9801 0.43074 0.22616 0.0
C1068 C 0.00768 0.43307 0.22473 0.0
C1069 C 0.02133 0.41667 0.23914 0.0
C1070 C 0.00856 0.39882 0.2551 0.0
C1071 C 0.02774 0.38189 0.2666 0.0
C1072 C 0.0294 0.38602 0.29583 0.0
C1073 C 0.02031 0.35334 0.25917 0.0
C1074 C 0.05313 0.39238 0.25379 0.0
C1075 C 0.04893 0.41264 0.23827 0.0
C1076 C 0.06872 0.42428 0.22288 0.0
C1077 C 0.09343 0.41489 0.22318 0.0
C1078 C 0.0982 0.39406 0.23877 0.0
C1079 C 0.07794 0.38296 0.25464 0.0
H1080 H 0.30375 0.13363 0.57147 0.0
H1081 H 0.21986 0.13289 0.58729 0.0
H1082 H 0.21211 0.14342 0.5422 0.0
H1083 H 0.30862 0.18595 0.52647 0.0
H1084 H 0.33201 0.17102 0.50654 0.0
H1085 H 0.33095 0.16556 0.54046 0.0
H1086 H 0.32424 0.11626 0.53133 0.0
H1087 H 0.32525 0.12155 0.49745 0.0
H1088 H 0.29722 0.10296 0.51119 0.0
H1089 H 0.21362 0.15196 0.49444 0.0
H1090 H 0.22412 0.15627 0.44834 0.0
H1091 H 0.30681 0.15048 0.46512 0.0
C1092 C 0.28372 0.13594 0.56567 0.0
C1093 C 0.26243 0.13244 0.58298 0.0
C1094 C 0.23653 0.13548 0.57438 0.0
C1095 C 0.23194 0.14153 0.54884 0.0
C1096 C 0.25344 0.14454 0.53225 0.0
C1097 C 0.2788 0.14185 0.5404 0.0
C1098 C 0.2984 0.14463 0.51869 0.0
C1099 C 0.31869 0.1682 0.52332 0.0
C1100 C 0.31206 0.11988 0.51442 0.0
C1101 C 0.28006 0.14878 0.49686 0.0
C1102 C 0.25424 0.14901 0.50499 0.0
C1103 C 0.2338 0.15195 0.4879 0.0
C1104 C 0.23995 0.15441 0.46179 0.0
C1105 C 0.26625 0.15358 0.45312 0.0
C1106 C 0.28647 0.15105 0.47105 0.0
H1107 H 0.34421 0.68257 0.91481 0.0
H1108 H 0.35649 0.76168 0.89044 0.0
H1109 H 0.35011 0.77685 0.93524 0.0
H1110 H 0.2944 0.69187 0.963 0.0
H1111 H 0.30699 0.66925 0.9841 0.0
H1112 H 0.31055 0.66526 0.94994 0.0
H1113 H 0.36117 0.66512 0.95553 0.0
H1114 H 0.35781 0.66928 0.98964 0.0
H1115 H 0.37964 0.69183 0.97214 0.0
H1116 H 0.34479 0.78279 0.98436 0.0
H1117 H 0.34047 0.77862 0.03149 0.0
H1118 H 0.33245 0.69538 0.02128 0.0
C1119 C 0.34534 0.70314 0.91867 0.0
C1120 C 0.3509 0.72092 0.89903 0.0
C1121 C 0.35213 0.74765 0.90513 0.0
C1122 C 0.34858 0.75644 0.93053 0.0
C1123 C 0.34368 0.73825 0.94951 0.0
C1124 C 0.34191 0.71215 0.94368 0.0
C1125 C 0.33752 0.69629 0.96729 0.0
C1126 C 0.31077 0.6797 0.966 0.0
C1127 C 0.3604 0.67967 0.97138 0.0
C1128 C 0.33745 0.71746 0.98751 0.0
C1129 C 0.34086 0.7416 0.97711 0.0
C1130 C 0.34196 0.76393 0.99262 0.0
C1131 C 0.33952 0.7614 0.01936 0.0
C1132 C 0.33622 0.7367 0.03023 0.0
C1133 C 0.33506 0.71462 0.01384 0.0
H1134 H 0.72424 0.8663 0.46616 0.0
H1135 H 0.65182 0.90233 0.45536 0.0
H1136 H 0.64554 0.90455 0.50197 0.0
H1137 H 0.70128 0.82749 0.51865 0.0
H1138 H 0.73229 0.83139 0.53563 0.0
H1139 H 0.73183 0.8331 0.50123 0.0
H1140 H 0.75831 0.87814 0.50411 0.0
H1141 H 0.75891 0.87655 0.53853 0.0
H1142 H 0.74592 0.90331 0.52357 0.0
H1143 H 0.64597 0.90195 0.54903 0.0
H1144 H 0.65352 0.89556 0.59467 0.0
H1145 H 0.72595 0.86151 0.57611 0.0
C1146 C 0.70713 0.87478 0.47358 0.0
C1147 C 0.68856 0.88418 0.45696 0.0
C1148 C 0.66641 0.89506 0.46755 0.0
C1149 C 0.66261 0.8964 0.49406 0.0
C1150 C 0.68114 0.88687 0.5098 0.0
C1151 C 0.70302 0.87635 0.50009 0.0
C1152 C 0.71971 0.8673 0.52146 0.0
C1153 C 0.72136 0.83808 0.5191 0.0
C1154 C 0.74735 0.88222 0.52194 0.0
C1155 C 0.70364 0.87426 0.54464 0.0
C1156 C 0.6815 0.88551 0.53735 0.0
C1157 C 0.66329 0.89325 0.55504 0.0
C1158 C 0.66778 0.88944 0.58098 0.0
C1159 C 0.69038 0.87802 0.58913 0.0
C1160 C 0.70857 0.8704 0.57059 0.0
H1161 H 0.66598 0.31577 0.03175 0.0
H1162 H 0.67173 0.23439 0.0428 0.0
H1163 H 0.6683 0.22652 0.99589 0.0
H1164 H 0.61776 0.30802 0.98384 0.0
H1165 H 0.63106 0.33555 0.96621 0.0
H1166 H 0.63631 0.33482 0.00022 0.0
H1167 H 0.68692 0.34256 0.99329 0.0
H1168 H 0.68183 0.34334 0.9592 0.0
H1169 H 0.70293 0.32116 0.97212 0.0
H1170 H 0.66168 0.22764 0.94749 0.0
H1171 H 0.65138 0.23736 0.90272 0.0
H1172 H 0.64959 0.31792 0.9249 0.0
C1173 C 0.66681 0.29626 0.02445 0.0
C1174 C 0.66914 0.27569 0.04106 0.0
C1175 C 0.67001 0.25049 0.0305 0.0
C1176 C 0.66812 0.24584 0.00387 0.0
C1177 C 0.6655 0.26661 0.98815 0.0
C1178 C 0.6649 0.29131 -0.00186 0.0
C1179 C 0.66056 0.3102 0.97754 0.0
C1180 C 0.6349 0.32287 0.98224 0.0
C1181 C 0.68449 0.33051 0.97542 0.0
C1182 C 0.65827 0.29223 0.95434 0.0
C1183 C 0.66145 0.26721 0.96068 0.0
C1184 C 0.65935 0.2472 0.94232 0.0
C1185 C 0.65352 0.25292 0.91694 0.0
C1186 C 0.64961 0.2784 0.91025 0.0
C1187 C 0.65241 0.29823 0.92927 0.0
H1188 H 0.19358 0.87339 0.42587 0.0
H1189 H 0.27085 0.86136 0.39514 0.0
H1190 H 0.28536 0.85035 0.43836 0.0
H1191 H 0.21559 0.90159 0.48679 0.0
H1192 H 0.18787 0.88591 0.50376 0.0
H1193 H 0.18439 0.89377 0.47066 0.0
H1194 H 0.16842 0.846 0.45958 0.0
H1195 H 0.17202 0.83796 0.49261 0.0
H1196 H 0.18885 0.82123 0.4679 0.0
H1197 H 0.29064 0.83941 0.48553 0.0
H1198 H 0.28639 0.83063 0.5318 0.0
H1199 H 0.20525 0.84952 0.52979 0.0
C1200 C 0.21369 0.86874 0.4281 0.0
C1201 C 0.23109 0.86836 0.40702 0.0
C1202 C 0.25715 0.86188 0.41098 0.0
C1203 C 0.26556 0.85556 0.43545 0.0
C1204 C 0.24767 0.85578 0.4557 0.0
C1205 C 0.22231 0.86229 0.45219 0.0
C1206 C 0.20654 0.86057 0.4767 0.0
C1207 C 0.19811 0.88704 0.48496 0.0
C1208 C 0.18255 0.84023 0.47403 0.0
C1209 C 0.22696 0.85207 0.49468 0.0
C1210 C 0.25059 0.84937 0.48236 0.0
C1211 C 0.27222 0.84153 0.49534 0.0
C1212 C 0.2696 0.83654 0.52161 0.0
C1213 C 0.24551 0.8394 0.53455 0.0
C1214 C 0.22401 0.84717 0.52067 0.0
H1215 H 0.6284 0.77506 0.06435 0.0
H1216 H 0.6487 0.70559 0.1004 0.0
H1217 H 0.66276 0.68884 0.05882 0.0
H1218 H 0.60137 0.74414 0.00795 0.0
H1219 H 0.6139 0.76913 0.98671 0.0
H1220 H 0.60738 0.77699 0.01973 0.0
H1221 H 0.65558 0.7977 0.02514 0.0
H1222 H 0.66228 0.78976 0.99211 0.0
H1223 H 0.68249 0.77901 0.01718 0.0
H1224 H 0.67129 0.67777 0.01397 0.0
H1225 H 0.67278 0.67229 0.96721 0.0
H1226 H 0.64822 0.74887 0.95882 0.0
C1227 C 0.63603 0.75644 0.06353 0.0
C1228 C 0.63736 0.74168 0.08574 0.0
C1229 C 0.6473 0.71729 0.08375 0.0
C1230 C 0.65555 0.70762 0.06021 0.0
C1231 C 0.65387 0.72255 0.03877 0.0
C1232 C 0.64435 0.74639 0.04007 0.0
C1233 C 0.64324 0.75765 0.01365 0.0
C1234 C 0.61478 0.76223 0.0066 0.0
C1235 C 0.66202 0.78251 0.01193 0.0
C1236 C 0.65296 0.73604 0.99734 0.0
C1237 C 0.65922 0.71617 0.01239 0.0
C1238 C 0.66687 0.69332 0.00194 0.0
C1239 C 0.66766 0.69041 0.97531 0.0
C1240 C 0.66096 0.71028 0.95935 0.0
C1241 C 0.65404 0.73362 0.97056 0.0
H1242 H 0.7924 0.12028 0.535 0.0
H1243 H 0.71361 0.1444 0.5435 0.0
H1244 H 0.7113 0.14944 0.49654 0.0
H1245 H 0.81415 0.16552 0.4907 0.0
H1246 H 0.83413 0.14478 0.47278 0.0
H1247 H 0.82802 0.13959 0.50626 0.0
H1248 H 0.80893 0.09245 0.49612 0.0
H1249 H 0.81546 0.09729 0.4626 0.0
H1250 H 0.78262 0.08613 0.47302 0.0
H1251 H 0.71984 0.15536 0.44839 0.0
H1252 H 0.73741 0.1596 0.40429 0.0
H1253 H 0.81113 0.13334 0.4296 0.0
C1254 C 0.77432 0.12607 0.5271 0.0
C1255 C 0.75314 0.13185 0.54305 0.0
C1256 C 0.73002 0.1396 0.53171 0.0
C1257 C 0.72859 0.14265 0.50505 0.0
C1258 C 0.7504 0.13781 0.49009 0.0
C1259 C 0.7727 0.12944 0.50081 0.0
C1260 C 0.79424 0.12715 0.48123 0.0
C1261 C 0.81909 0.14534 0.48816 0.0
C1262 C 0.80068 0.09909 0.47806 0.0
C1263 C 0.78079 0.13581 0.45773 0.0
C1264 C 0.75547 0.14175 0.46301 0.0
C1265 C 0.73959 0.15058 0.44407 0.0
C1266 C 0.74979 0.15303 0.4191 0.0
C1267 C 0.77571 0.14687 0.41338 0.0
C1268 C 0.79127 0.1383 0.43316 0.0
H1269 H 0.38552 0.18856 0.06563 0.0
H1270 H 0.31795 0.21749 0.10297 0.0
H1271 H 0.29849 0.2246 0.06094 0.0
H1272 H 0.39316 0.23388 0.02069 0.0
H1273 H 0.40252 0.21373 0.99432 0.0
H1274 H 0.40851 0.20498 0.02667 0.0
H1275 H 0.38184 0.16056 0.01863 0.0
H1276 H 0.37605 0.16902 0.98602 0.0
H1277 H 0.34858 0.15899 0.00646 0.0
H1278 H 0.29076 0.23682 0.01667 0.0
H1279 H 0.29395 0.25069 0.97178 0.0
H1280 H 0.36581 0.21363 0.96207 0.0
C1281 C 0.36612 0.19529 0.06479 0.0
C1282 C 0.35306 0.20229 0.08735 0.0
C1283 C 0.32813 0.21194 0.08576 0.0
C1284 C 0.31688 0.21595 0.06201 0.0
C1285 C 0.33077 0.21009 0.04003 0.0
C1286 C 0.35467 0.19963 0.04109 0.0
C1287 C 0.36699 0.19815 0.01472 0.0
C1288 C 0.3944 0.21361 0.01408 0.0
C1289 C 0.36844 0.17 0.00594 0.0
C1290 C 0.34702 0.21066 -0.00093 0.0
C1291 C 0.32608 0.21706 0.014 0.0
C1292 C 0.30663 0.23129 0.00457 0.0
C1293 C 0.30867 0.23928 0.9792 0.0
C1294 C 0.32993 0.23289 0.96374 0.0
C1295 C 0.34908 0.21813 0.97359 0.0
H1296 H 0.58805 0.23714 0.12632 0.0
H1297 H 0.58672 0.31999 0.12186 0.0
H1298 H 0.53817 0.31462 0.12458 0.0
H1299 H 0.52948 0.21942 0.08837 0.0
H1300 H 0.51848 0.19226 0.10758 0.0
H1301 H 0.55323 0.20247 0.10489 0.0
H1302 H 0.55698 0.20702 0.15435 0.0
H1303 H 0.52229 0.19671 0.15719 0.0
H1304 H 0.53568 0.22697 0.17164 0.0
H1305 H 0.48993 0.30049 0.129 0.0
H1306 H 0.4453 0.27849 0.1355 0.0
H1307 H 0.47821 0.20492 0.13622 0.0
C1308 C 0.57761 0.25419 0.12591 0.0
C1309 C 0.59128 0.27898 0.12384 0.0
C1310 C 0.57676 0.30076 0.12335 0.0
C1311 C 0.54915 0.29793 0.12485 0.0
C1312 C 0.53634 0.27323 0.12674 0.0
C1313 C 0.55006 0.25174 0.12729 0.0
C1314 C 0.53154 0.22738 0.12983 0.0
C1315 C 0.53329 0.20932 0.10626 0.0
C1316 C 0.53695 0.21373 0.15473 0.0
C1317 C 0.50529 0.2386 0.13085 0.0
C1318 C 0.50847 0.26505 0.12899 0.0
C1319 C 0.48714 0.27975 0.13034 0.0
C1320 C 0.46188 0.26707 0.13405 0.0
C1321 C 0.45819 0.23996 0.13631 0.0
C1322 C 0.48025 0.22562 0.13432 0.0
H1323 H 0.56244 0.66249 0.87025 0.0
H1324 H 0.58094 0.74182 0.89688 0.0
H1325 H 0.53536 0.75054 0.88843 0.0
H1326 H 0.52199 0.67503 0.81946 0.0
H1327 H 0.49776 0.64774 0.82321 0.0
H1328 H 0.53119 0.64623 0.83385 0.0
H1329 H 0.51463 0.63497 0.8795 0.0
H1330 H 0.48108 0.63593 0.86888 0.0
H1331 H 0.49342 0.6556 0.89602 0.0
H1332 H 0.4906 0.75279 0.87191 0.0
H1333 H 0.44543 0.74644 0.85432 0.0
H1334 H 0.454 0.66536 0.84019 0.0
C1335 C 0.55663 0.68143 0.87499 0.0
C1336 C 0.57527 0.70151 0.88401 0.0
C1337 C 0.56705 0.72619 0.88969 0.0
C1338 C 0.5412 0.73138 0.88498 0.0
C1339 C 0.52364 0.71162 0.87492 0.0
C1340 C 0.53066 0.68698 0.87052 0.0
C1341 C 0.50785 0.66963 0.85884 0.0
C1342 C 0.51514 0.65904 0.83227 0.0
C1343 C 0.4987 0.64774 0.87689 0.0
C1344 C 0.48734 0.68862 0.85685 0.0
C1345 C 0.49702 0.71275 0.86611 0.0
C1346 C 0.48252 0.7339 0.865 0.0
C1347 C 0.45703 0.73017 0.85473 0.0
C1348 C 0.44629 0.70543 0.84601 0.0
C1349 C 0.46171 0.68444 0.84696 0.0
H1350 H 0.70163 0.96855 0.36444 0.0
H1351 H 0.77351 0.93059 0.36972 0.0
H1352 H 0.7996 0.97066 0.3572 0.0
H1353 H 0.72085 0.00656 0.30956 0.0
H1354 H 0.70549 0.0342 0.32129 0.0
H1355 H 0.69229 0.00231 0.33003 0.0
H1356 H 0.69678 0.01561 0.37818 0.0
H1357 H 0.70967 0.04757 0.36957 0.0
H1358 H 0.72835 0.02932 0.39048 0.0
H1359 H 0.81789 0.01494 0.34519 0.0
H1360 H 0.82751 0.06126 0.33739 0.0
H1361 H 0.74357 0.07004 0.33958 0.0
C1362 C 0.72286 0.96857 0.36303 0.0
C1363 C 0.73549 0.94635 0.3681 0.0
C1364 C 0.76334 0.94733 0.36599 0.0
C1365 C 0.77833 0.96996 0.35874 0.0
C1366 C 0.76517 0.99136 0.3536 0.0
C1367 C 0.7381 0.99091 0.35579 0.0
C1368 C 0.72885 0.01678 0.35003 0.0
C1369 C 0.71081 0.01483 0.32632 0.0
C1370 C 0.71511 0.02798 0.37346 0.0
C1371 C 0.75505 0.032 0.34463 0.0
C1372 C 0.77572 0.01691 0.34656 0.0
C1373 C 0.80188 0.02694 0.34349 0.0
C1374 C 0.80712 0.05327 0.33906 0.0
C1375 C 0.78628 0.06928 0.33783 0.0
C1376 C 0.7599 0.05828 0.34004 0.0
H1377 H 0.43069 0.29325 0.89226 0.0
H1378 H 0.41553 0.20985 0.88872 0.0
H1379 H 0.46216 0.2065 0.87785 0.0
H1380 H 0.47246 0.29849 0.83924 0.0
H1381 H 0.49467 0.32463 0.85236 0.0
H1382 H 0.46078 0.32068 0.86265 0.0
H1383 H 0.47579 0.31902 0.90994 0.0
H1384 H 0.50977 0.32335 0.89983 0.0
H1385 H 0.4982 0.29613 0.91875 0.0
H1386 H 0.50931 0.21216 0.86356 0.0
H1387 H 0.55472 0.22655 0.84987 0.0
H1388 H 0.53895 0.30617 0.86249 0.0
C1389 C 0.43728 0.27426 0.88982 0.0
C1390 C 0.4194 0.25183 0.89137 0.0
C1391 C 0.42882 0.22735 0.88761 0.0
C1392 C 0.45529 0.22521 0.88142 0.0
C1393 C 0.47215 0.2477 0.87913 0.0
C1394 C 0.46363 0.27175 0.8835 0.0
C1395 C 0.48547 0.29292 0.87856 0.0
C1396 C 0.47788 0.31019 0.85692 0.0
C1397 C 0.49274 0.30879 0.90324 0.0
C1398 C 0.50742 0.27699 0.87037 0.0
C1399 C 0.49937 0.25096 0.87087 0.0
C1400 C 0.51597 0.2325 0.86333 0.0
C1401 C 0.54168 0.24088 0.85544 0.0
C1402 C 0.55051 0.26749 0.85516 0.0
C1403 C 0.53296 0.28567 0.86262 0.0
H1404 H 0.259 0.95834 0.34264 0.0
H1405 H 0.17489 0.95893 0.32937 0.0
H1406 H 0.17955 0.00623 0.33336 0.0
H1407 H 0.26346 0.00656 0.39086 0.0
H1408 H 0.29553 0.02132 0.38173 0.0
H1409 H 0.28649 0.98766 0.37464 0.0
H1410 H 0.29645 0.99487 0.32654 0.0
H1411 H 0.30572 0.02857 0.33352 0.0
H1412 H 0.28053 0.01892 0.30997 0.0
H1413 H 0.19249 0.05308 0.34153 0.0
H1414 H 0.21306 0.0965 0.3539 0.0
H1415 H 0.28836 0.06542 0.36357 0.0
C1416 C 0.24172 0.9685 0.33997 0.0
C1417 C 0.21665 0.95498 0.33547 0.0
C1418 C 0.19434 0.96889 0.33274 0.0
C1419 C 0.19676 0.99578 0.33492 0.0
C1420 C 0.22161 0.00853 0.33997 0.0
C1421 C 0.24373 0.99542 0.34244 0.0
C1422 C 0.26772 0.01368 0.34978 0.0
C1423 C 0.27895 0.0069 0.3758 0.0
C1424 C 0.28885 0.01403 0.32869 0.0
C1425 C 0.25547 0.03892 0.35147 0.0
C1426 C 0.22894 0.03558 0.34543 0.0
C1427 C 0.21332 0.05602 0.34615 0.0
C1428 C 0.22517 0.0806 0.35325 0.0
C1429 C 0.25231 0.08444 0.35979 0.0
C1430 C 0.26755 0.06322 0.35877 0.0
H1431 H 0.52817 0.78583 0.13798 0.0
H1432 H 0.54356 0.70838 0.15759 0.0
H1433 H 0.49649 0.6936 0.15172 0.0
H1434 H 0.46426 0.78434 0.16975 0.0
H1435 H 0.44997 0.80253 0.14547 0.0
H1436 H 0.48494 0.80744 0.15176 0.0
H1437 H 0.49443 0.7976 0.10393 0.0
H1438 H 0.45951 0.79259 0.0975 0.0
H1439 H 0.48034 0.76769 0.08924 0.0
H1440 H 0.44888 0.68642 0.14166 0.0
H1441 H 0.40231 0.6875 0.12998 0.0
H1442 H 0.41643 0.76981 0.11815 0.0
C1443 C 0.52163 0.76578 0.14112 0.0
C1444 C 0.53965 0.74827 0.14821 0.0
C1445 C 0.53021 0.72222 0.15225 0.0
C1446 C 0.50349 0.71359 0.14892 0.0
C1447 C 0.48635 0.73126 0.14177 0.0
C1448 C 0.4949 0.75684 0.1381 0.0
C1449 C 0.47218 0.77169 0.13034 0.0
C1450 C 0.46757 0.79274 0.15054 0.0
C1451 C 0.47691 0.78305 0.10367 0.0
C1452 C 0.44966 0.75033 0.1299 0.0
C1453 C 0.4584 0.72719 0.13651 0.0
C1454 C 0.44169 0.70444 0.13665 0.0
C1455 C 0.41525 0.70528 0.12989 0.0
C1456 C 0.40561 0.72877 0.12322 0.0
C1457 C 0.42312 0.75162 0.12338 0.0
H1458 H 0.69026 0.95898 0.66724 0.0
H1459 H 0.76832 0.93468 0.67937 0.0
H1460 H 0.78799 0.97924 0.67369 0.0
H1461 H 0.70748 -0.00067 0.61784 0.0
H1462 H 0.68632 0.02376 0.62675 0.0
H1463 H 0.6777 0.99101 0.63578 0.0
H1464 H 0.67551 0.00556 0.68351 0.0
H1465 H 0.68373 0.0385 0.67461 0.0
H1466 H 0.70347 0.02443 0.69803 0.0
H1467 H 0.7996 0.02467 0.66122 0.0
H1468 H 0.80233 0.0688 0.64532 0.0
H1469 H 0.71669 0.06367 0.64118 0.0
C1470 C 0.71142 0.96312 0.6695 0.0
C1471 C 0.72772 0.9433 0.67382 0.0
C1472 C 0.75539 0.94952 0.6761 0.0
C1473 C 0.76677 0.97479 0.67294 0.0
C1474 C 0.75021 0.99364 0.66768 0.0
C1475 C 0.7231 0.98822 0.66629 0.0
C1476 C 0.70994 0.01153 0.6584 0.0
C1477 C 0.69446 0.00607 0.6332 0.0
C1478 C 0.69211 0.02054 0.67993 0.0
C1479 C 0.73395 0.03064 0.65477 0.0
C1480 C 0.75695 0.01999 0.66043 0.0
C1481 C 0.78172 0.03338 0.65711 0.0
C1482 C 0.78304 0.05839 0.64788 0.0
C1483 C 0.75971 0.06978 0.642 0.0
C1484 C 0.73488 0.05565 0.64569 0.0
H1485 H 0.23546 0.0259 0.64251 0.0
H1486 H 0.32089 0.03875 0.63512 0.0
H1487 H 0.32324 0.99229 0.63048 0.0
H1488 H 0.23374 0.96776 0.6784 0.0
H1489 H 0.205 0.95201 0.66224 0.0
H1490 H 0.20944 0.98662 0.66535 0.0
H1491 H 0.20553 0.99009 0.61613 0.0
H1492 H 0.20087 0.9555 0.6129 0.0
H1493 H 0.22696 0.97335 0.59552 0.0
H1494 H 0.3173 0.94502 0.62763 0.0
H1495 H 0.30277 0.89885 0.62298 0.0
H1496 H 0.22101 0.91532 0.63067 0.0
C1497 C 0.25463 0.01894 0.63985 0.0
C1498 C 0.27795 0.03617 0.6393 0.0
C1499 C 0.30265 0.02616 0.63564 0.0
C1500 C 0.30429 -0.0003 0.63307 0.0
C1501 C 0.28108 0.98332 0.63397 0.0
C1502 C 0.25667 0.99242 0.63698 0.0
C1503 C 0.23483 0.97035 0.63656 0.0
C1504 C 0.21987 0.96912 0.66217 0.0
C1505 C 0.21594 0.97245 0.61393 0.0
C1506 C 0.25091 0.94759 0.63284 0.0
C1507 C 0.27755 0.95563 0.63166 0.0
C1508 C 0.29648 0.9384 0.62842 0.0
C1509 C 0.28797 0.91216 0.62587 0.0
C1510 C 0.2607 0.90333 0.62635 0.0
C1511 C 0.24198 0.92138 0.63015 0.0
H1512 H 0.15261 0.29379 0.29786 0.0
H1513 H 0.18859 0.35753 0.34488 0.0
H1514 H 0.20466 0.32679 0.37478 0.0
H1515 H 0.13619 0.24764 0.3529 0.0
H1516 H 0.1438 0.22071 0.33288 0.0
H1517 H 0.12979 0.24748 0.31895 0.0
H1518 H 0.16895 0.25272 0.28718 0.0
H1519 H 0.18333 0.22641 0.30119 0.0
H1520 H 0.20223 0.25742 0.29947 0.0
H1521 H 0.22623 0.29012 0.39255 0.0
H1522 H 0.24695 0.25007 0.39985 0.0
H1523 H 0.19495 0.20971 0.34314 0.0
C1524 C 0.16283 0.30127 0.31508 0.0
C1525 C 0.16928 0.32803 0.31911 0.0
C1526 C 0.18313 0.33712 0.34157 0.0
C1527 C 0.19242 0.31977 0.35864 0.0
C1528 C 0.18714 0.29343 0.35326 0.0
C1529 C 0.172 0.2842 0.33238 0.0
C1530 C 0.17157 0.25523 0.32919 0.0
C1531 C 0.14368 0.24198 0.33376 0.0
C1532 C 0.18216 0.24752 0.30271 0.0
C1533 C 0.19022 0.24978 0.35047 0.0
C1534 C 0.19881 0.27202 0.36432 0.0
C1535 C 0.21894 0.27244 0.3825 0.0
C1536 C 0.2307 0.24967 0.38642 0.0
C1537 C 0.22212 0.22678 0.37243 0.0
C1538 C 0.20122 0.22676 0.35471 0.0
H1539 H 0.28287 0.69175 0.81334 0.0
H1540 H 0.34236 0.65003 0.77659 0.0
H1541 H 0.3076 0.61679 0.76052 0.0
H1542 H 0.23474 0.64033 0.83071 0.0
H1543 H 0.20827 0.65864 0.82098 0.0
H1544 H 0.23906 0.67501 0.83166 0.0
H1545 H 0.2399 0.6992 0.78833 0.0
H1546 H 0.20981 0.68069 0.77819 0.0
H1547 H 0.239 0.6807 0.75863 0.0
H1548 H 0.26619 0.58816 0.74926 0.0
H1549 H 0.22133 0.57196 0.73408 0.0
H1550 H 0.18924 0.63489 0.77512 0.0
C1551 C 0.2885 0.67529 0.80233 0.0
C1552 C 0.31518 0.67201 0.79791 0.0
C1553 C 0.32197 0.65154 0.78176 0.0
C1554 C 0.3024 0.6328 0.77241 0.0
C1555 C 0.2762 0.63558 0.77866 0.0
C1556 C 0.26924 0.65693 0.79226 0.0
C1557 C 0.23975 0.65757 0.79308 0.0
C1558 C 0.22988 0.65781 0.82081 0.0
C1559 C 0.23165 0.68091 0.77869 0.0
C1560 C 0.23094 0.63252 0.77888 0.0
C1561 C 0.25231 0.62003 0.77083 0.0
C1562 C 0.24927 0.5976 0.75559 0.0
C1563 C 0.2238 0.58844 0.74724 0.0
C1564 C 0.2019 0.60171 0.75421 0.0
C1565 C 0.20547 0.62362 0.7707 0.0
H1566 H 0.84119 0.73814 0.33591 0.0
H1567 H 0.78958 0.67438 0.36458 0.0
H1568 H 0.76646 0.70442 0.39152 0.0
H1569 H 0.84142 0.77982 0.39814 0.0
H1570 H 0.8419 0.80872 0.37996 0.0
H1571 H 0.85832 0.78186 0.36781 0.0
H1572 H 0.83126 0.78141 0.3258 0.0
H1573 H 0.81463 0.80797 0.33775 0.0
H1574 H 0.79568 0.77848 0.32739 0.0
H1575 H 0.74242 0.74092 0.40611 0.0
H1576 H 0.72136 0.78147 0.41009 0.0
H1577 H 0.78976 0.82236 0.37482 0.0
C1578 C 0.82576 0.73061 0.34875 0.0
C1579 C 0.81761 0.70404 0.34891 0.0
C1580 C 0.79664 0.69466 0.36498 0.0
C1581 C 0.78338 0.71159 0.38029 0.0
C1582 C 0.79143 0.73784 0.37938 0.0
C1583 C 0.81251 0.74731 0.36443 0.0
C1584 C 0.81523 0.77645 0.36463 0.0
C1585 C 0.84073 0.78736 0.37846 0.0
C1586 C 0.81411 0.78665 0.33728 0.0
C1587 C 0.79106 0.78177 0.38009 0.0
C1588 C 0.77787 0.75925 0.38884 0.0
C1589 C 0.75302 0.7588 0.40023 0.0
C1590 C 0.74113 0.78185 0.4023 0.0
C1591 C 0.75421 0.80499 0.39322 0.0
C1592 C 0.77978 0.80504 0.38271 0.0
H1593 H 0.79971 0.37104 0.79257 0.0
H1594 H 0.76496 0.40255 0.72618 0.0
H1595 H 0.72048 0.39096 0.74385 0.0
H1596 H 0.75994 0.31753 0.79268 0.0
H1597 H 0.7569 0.3139 0.82682 0.0
H1598 H 0.78559 0.33179 0.81393 0.0
H1599 H 0.77712 0.37142 0.84225 0.0
H1600 H 0.74822 0.35381 0.85559 0.0
H1601 H 0.74565 0.3843 0.8409 0.0
H1602 H 0.68082 0.36691 0.76277 0.0
H1603 H 0.64937 0.33384 0.78239 0.0
H1604 H 0.70988 0.31644 0.83542 0.0
C1605 C 0.7828 0.37674 0.78242 0.0
C1606 C 0.78573 0.38792 0.75817 0.0
C1607 C 0.76311 0.39422 0.74494 0.0
C1608 C 0.73777 0.38773 0.75487 0.0
C1609 C 0.73545 0.37505 0.77804 0.0
C1610 C 0.75743 0.36992 0.79185 0.0
C1611 C 0.7499 0.35222 0.81371 0.0
C1612 C 0.7639 0.32741 0.81162 0.0
C1613 C 0.75554 0.36628 0.83966 0.0
C1614 C 0.72056 0.34677 0.80901 0.0
C1615 C 0.71242 0.36068 0.78883 0.0
C1616 C 0.68676 0.35662 0.77915 0.0
C1617 C 0.66904 0.33786 0.79035 0.0
C1618 C 0.67713 0.32354 0.81096 0.0
C1619 C 0.70315 0.32796 0.82028 0.0
H1620 H 0.20689 0.77824 0.65732 0.0
H1621 H 0.21363 0.75246 0.5784 0.0
H1622 H 0.18506 0.71248 0.58744 0.0
H1623 H 0.2175 0.71988 0.68056 0.0
H1624 H 0.1966 0.72114 0.70835 0.0
H1625 H 0.21106 0.75049 0.69474 0.0
H1626 H 0.16445 0.76643 0.68876 0.0
H1627 H 0.15094 0.73759 0.70415 0.0
H1628 H 0.13884 0.74498 0.67319 0.0
H1629 H 0.1607 0.67305 0.60638 0.0
H1630 H 0.14581 0.63662 0.63406 0.0
H1631 H 0.15857 0.68722 0.70114 0.0
C1632 C 0.20119 0.76466 0.64177 0.0
C1633 C 0.21124 0.76872 0.61693 0.0
C1634 C 0.20519 0.74988 0.59732 0.0
C1635 C 0.18898 0.72722 0.60229 0.0
C1636 C 0.17972 0.72342 0.62719 0.0
C1637 C 0.18575 0.74161 0.64667 0.0
C1638 C 0.1779 0.73097 0.67256 0.0
C1639 C 0.20221 0.73059 0.69006 0.0
C1640 C 0.15678 0.74594 0.68539 0.0
C1641 C 0.16665 0.70403 0.66463 0.0
C1642 C 0.16741 0.70009 0.6384 0.0
C1643 C 0.15961 0.67606 0.62692 0.0
C1644 C 0.15117 0.65548 0.64276 0.0
C1645 C 0.15096 0.65911 0.66971 0.0
C1646 C 0.15831 0.68385 0.68058 0.0
H1647 H 0.7031 0.71239 0.1752 0.0
H1648 H 0.63371 0.66975 0.20702 0.0
H1649 H 0.66225 0.64335 0.23115 0.0
H1650 H 0.7442 0.65597 0.17095 0.0
H1651 H 0.77385 0.67643 0.1791 0.0
H1652 H 0.74786 0.68905 0.16141 0.0
H1653 H 0.74612 0.72561 0.19578 0.0
H1654 H 0.77186 0.71306 0.21361 0.0
H1655 H 0.74078 0.71746 0.22884 0.0
H1656 H 0.69808 0.62849 0.25843 0.0
H1657 H 0.7387 0.62279 0.28287 0.0
H1658 H 0.78466 0.67185 0.23018 0.0
C1659 C 0.69396 0.69697 0.18666 0.0
C1660 C 0.6663 0.69304 0.18932 0.0
C1661 C 0.65491 0.67287 0.20459 0.0
C1662 C 0.67096 0.65781 0.21838 0.0
C1663 C 0.69827 0.66274 0.21605 0.0
C1664 C 0.70967 0.6814 0.20005 0.0
C1665 C 0.73945 0.68408 0.20219 0.0
C1666 C 0.75208 0.67588 0.17691 0.0
C1667 C 0.75016 0.71167 0.21062 0.0
C1668 C 0.74296 0.66507 0.22294 0.0
C1669 C 0.71901 0.65286 0.23068 0.0
C1670 C 0.71704 0.63718 0.25196 0.0
C1671 C 0.74011 0.63413 0.26578 0.0
C1672 C 0.76473 0.64639 0.25795 0.0
C1673 C 0.76617 0.66152 0.23596 0.0
H1674 H 0.80181 0.19623 0.65885 0.0
H1675 H 0.7692 0.22091 0.58823 0.0
H1676 H 0.79001 0.26516 0.59686 0.0
H1677 H 0.7871 0.24832 0.69373 0.0
H1678 H 0.81558 0.25131 0.71446 0.0
H1679 H 0.80391 0.22046 0.70039 0.0
H1680 H 0.84977 0.2165 0.68112 0.0
H1681 H 0.86194 0.24733 0.69481 0.0
H1682 H 0.86491 0.24153 0.66088 0.0
H1683 H 0.80447 0.30754 0.61812 0.0
H1684 H 0.8187 0.34443 0.64748 0.0
H1685 H 0.84474 0.29211 0.70262 0.0
C1686 C 0.80044 0.21067 0.64456 0.0
C1687 C 0.78478 0.20525 0.62249 0.0
C1688 C 0.78174 0.22482 0.60492 0.0
C1689 C 0.79344 0.24991 0.60968 0.0
C1690 C 0.80791 0.255 0.63219 0.0
C1691 C 0.81194 0.23583 0.64915 0.0
C1692 C 0.82489 0.24701 0.67362 0.0
C1693 C 0.80678 0.24145 0.6969 0.0
C1694 C 0.85202 0.23748 0.67777 0.0
C1695 C 0.82759 0.27523 0.66771 0.0
C1696 C 0.81732 0.27958 0.64394 0.0
C1697 C 0.81394 0.30436 0.63613 0.0
C1698 C 0.82227 0.32517 0.65271 0.0
C1699 C 0.83467 0.32098 0.67619 0.0
C1700 C 0.83678 0.29574 0.68399 0.0
H1701 H 0.25932 0.36583 0.22678 0.0
H1702 H 0.18878 0.31398 0.21158 0.0
H1703 H 0.21539 0.2836 0.18892 0.0
H1704 H 0.29539 0.35188 0.16596 0.0
H1705 H 0.3264 0.35403 0.18274 0.0
H1706 H 0.3006 0.37277 0.19396 0.0
H1707 H 0.30452 0.3522 0.23864 0.0
H1708 H 0.32925 0.33278 0.22648 0.0
H1709 H 0.29965 0.31765 0.24088 0.0
H1710 H 0.24929 0.2571 0.17237 0.0
H1711 H 0.28921 0.23564 0.16226 0.0
H1712 H 0.33848 0.30452 0.1869 0.0
C1713 C 0.24958 0.34833 0.2181 0.0
C1714 C 0.22201 0.34255 0.21987 0.0
C1715 C 0.20982 0.31907 0.2094 0.0
C1716 C 0.22475 0.30171 0.19661 0.0
C1717 C 0.25188 0.30805 0.19476 0.0
C1718 C 0.26427 0.33077 0.20513 0.0
C1719 C 0.29399 0.33175 0.20227 0.0
C1720 C 0.3047 0.35394 0.18522 0.0
C1721 C 0.30764 0.3337 0.22863 0.0
C1722 C 0.2963 0.30584 0.18914 0.0
C1723 C 0.27171 0.29257 0.18495 0.0
C1724 C 0.26865 0.26743 0.17507 0.0
C1725 C 0.29138 0.25538 0.16951 0.0
C1726 C 0.31672 0.26861 0.17358 0.0
C1727 C 0.31924 0.29428 0.18311 0.0
H1728 H 0.35503 0.16833 0.20668 0.0
H1729 H 0.42175 0.21797 0.23649 0.0
H1730 H 0.40857 0.20657 0.2805 0.0
H1731 H 0.31161 0.18548 0.24479 0.0
H1732 H 0.29246 0.15525 0.25066 0.0
H1733 H 0.31135 0.15902 0.22179 0.0
H1734 H 0.33464 0.1198 0.23211 0.0
H1735 H 0.31766 0.11524 0.2621 0.0
H1736 H 0.35326 0.11876 0.26137 0.0
H1737 H 0.37983 0.20342 0.31856 0.0
H1738 H 0.34333 0.19856 0.34999 0.0
H1739 H 0.29708 0.14767 0.29669 0.0
C1740 C 0.36808 0.17498 0.22236 0.0
C1741 C 0.38974 0.19345 0.21835 0.0
C1742 C 0.40543 0.20333 0.23934 0.0
C1743 C 0.398 0.19703 0.26437 0.0
C1744 C 0.37516 0.18044 0.2679 0.0
C1745 C 0.36103 0.16855 0.24743 0.0
C1746 C 0.33514 0.15466 0.25623 0.0
C1747 C 0.31127 0.16421 0.24257 0.0
C1748 C 0.33524 0.12537 0.25277 0.0
C1749 C 0.33588 0.16256 0.28427 0.0
C1750 C 0.35916 0.1773 0.29071 0.0
C1751 C 0.36226 0.19059 0.31425 0.0
C1752 C 0.34152 0.18778 0.33196 0.0
C1753 C 0.31837 0.17143 0.32617 0.0
C1754 C 0.31532 0.15913 0.30191 0.0
H1755 H 0.37635 0.73565 0.73332 0.0
H1756 H 0.38427 0.80271 0.7846 0.0
H1757 H 0.37316 0.82985 0.74903 0.0
H1758 H 0.39831 0.77018 0.672 0.0
H1759 H 0.37392 0.75007 0.65361 0.0
H1760 H 0.38936 0.73735 0.68091 0.0
H1761 H 0.34323 0.72447 0.70036 0.0
H1762 H 0.32769 0.73733 0.67341 0.0
H1763 H 0.3208 0.74874 0.70538 0.0
H1764 H 0.35145 0.84742 0.71167 0.0
H1765 H 0.32223 0.8541 0.67512 0.0
H1766 H 0.32839 0.77607 0.64759 0.0
C1767 C 0.37697 0.75623 0.73679 0.0
C1768 C 0.38143 0.76711 0.76168 0.0
C1769 C 0.38119 0.794 0.76563 0.0
C1770 C 0.37493 0.80958 0.7455 0.0
C1771 C 0.36918 0.79802 0.72148 0.0
C1772 C 0.37052 0.77197 0.71694 0.0
C1773 C 0.35968 0.76353 0.69066 0.0
C1774 C 0.38163 0.75477 0.67327 0.0
C1775 C 0.33648 0.74229 0.6926 0.0
C1776 C 0.35053 0.78852 0.68175 0.0
C1777 C 0.35672 0.80834 0.69957 0.0
C1778 C 0.34732 0.83234 0.69718 0.0
C1779 C 0.33077 0.836 0.67642 0.0
C1780 C 0.32395 0.81583 0.65833 0.0
C1781 C 0.33437 0.79204 0.66069 0.0
H1782 H 0.64841 0.83567 0.33207 0.0
H1783 H 0.71295 0.88552 0.30071 0.0
H1784 H 0.69632 0.8748 0.257 0.0
H1785 H 0.65244 0.78753 0.28852 0.0
H1786 H 0.61771 0.77712 0.28553 0.0
H1787 H 0.63023 0.79317 0.31453 0.0
H1788 H 0.59738 0.82695 0.3099 0.0
H1789 H 0.5846 0.81132 0.28075 0.0
H1790 H 0.59671 0.84491 0.28073 0.0
H1791 H 0.68175 0.84913 0.21857 0.0
H1792 H 0.66472 0.81558 0.18709 0.0
H1793 H 0.60475 0.78699 0.24061 0.0
C1794 C 0.65803 0.84538 0.316 0.0
C1795 C 0.68144 0.86198 0.31957 0.0
C1796 C 0.69465 0.87318 0.29819 0.0
C1797 C 0.68533 0.86724 0.27335 0.0
C1798 C 0.66275 0.85003 0.27025 0.0
C1799 C 0.64885 0.83964 0.29097 0.0
C1800 C 0.62759 0.81879 0.28219 0.0
C1801 C 0.6323 0.79263 0.29335 0.0
C1802 C 0.59991 0.82601 0.28881 0.0
C1803 C 0.63207 0.81886 0.25355 0.0
C1804 C 0.65271 0.83675 0.24709 0.0
C1805 C 0.66425 0.83645 0.22288 0.0
C1806 C 0.65412 0.8177 0.20484 0.0
C1807 C 0.63164 0.80066 0.21043 0.0
C1808 C 0.62064 0.8012 0.2352 0.0
H1809 H 0.70913 0.14898 0.7075 0.0
H1810 H 0.654 0.1596 0.64644 0.0
H1811 H 0.62364 0.17692 0.678 0.0
H1812 H 0.65733 0.13256 0.75847 0.0
H1813 H 0.67794 0.14945 0.78283 0.0
H1814 H 0.69276 0.1336 0.75617 0.0
H1815 H 0.72033 0.17646 0.7456 0.0
H1816 H 0.70552 0.19244 0.77198 0.0
H1817 H 0.70364 0.20468 0.74016 0.0
H1818 H 0.60467 0.20176 0.71429 0.0
H1819 H 0.59653 0.22812 0.75309 0.0
H1820 H 0.66192 0.19816 0.79132 0.0
C1821 C 0.69025 0.15414 0.70091 0.0
C1822 C 0.68384 0.15293 0.67458 0.0
C1823 C 0.65914 0.16011 0.66658 0.0
C1824 C 0.6418 0.17001 0.68438 0.0
C1825 C 0.6492 0.17193 0.71014 0.0
C1826 C 0.67258 0.1636 0.71847 0.0
C1827 C 0.67705 0.16969 0.74675 0.0
C1828 C 0.67621 0.14484 0.76195 0.0
C1829 C 0.70317 0.18684 0.75137 0.0
C1830 C 0.65336 0.18412 0.75275 0.0
C1831 C 0.63739 0.18508 0.73143 0.0
C1832 C 0.61644 0.20037 0.73134 0.0
C1833 C 0.61199 0.21532 0.7534 0.0
C1834 C 0.62818 0.21457 0.7753 0.0
C1835 C 0.64863 0.19826 0.77514 0.0
H1836 H 0.79902 0.82812 0.6775 0.0
H1837 H 0.75224 0.78738 0.61722 0.0
H1838 H 0.78074 0.75163 0.61857 0.0
H1839 H 0.86454 0.80362 0.66265 0.0
H1840 H 0.87156 0.80047 0.69618 0.0
H1841 H 0.85208 0.82535 0.68605 0.0
H1842 H 0.81448 0.80852 0.71665 0.0
H1843 H 0.83377 0.78369 0.72682 0.0
H1844 H 0.80108 0.77525 0.71399 0.0
H1845 H 0.81106 0.71864 0.62977 0.0
H1846 H 0.83564 0.68857 0.65351 0.0
H1847 H 0.85936 0.7491 0.70979 0.0
C1848 C 0.79557 0.81211 0.66387 0.0
C1849 C 0.77411 0.81068 0.64666 0.0
C1850 C 0.76903 0.78892 0.63008 0.0
C1851 C 0.78517 0.76866 0.63069 0.0
C1852 C 0.80591 0.77033 0.64835 0.0
C1853 C 0.81091 0.79142 0.66488 0.0
C1854 C 0.83106 0.78664 0.68508 0.0
C1855 C 0.85631 0.80512 0.68231 0.0
C1856 C 0.81939 0.78863 0.71222 0.0
C1857 C 0.83597 0.75925 0.67793 0.0
C1858 C 0.82201 0.75053 0.65616 0.0
C1859 C 0.8223 0.72537 0.64666 0.0
C1860 C 0.8364 0.70843 0.66026 0.0
C1861 C 0.84944 0.71653 0.68349 0.0
C1862 C 0.8498 0.74247 0.69197 0.0
H1863 H 0.71467 0.32311 0.16769 0.0
H1864 H 0.75581 0.29594 0.10125 0.0
H1865 H 0.79794 0.31744 0.11828 0.0
H1866 H 0.75692 0.38594 0.18022 0.0
H1867 H 0.75575 0.38178 0.21426 0.0
H1868 H 0.72813 0.36897 0.19483 0.0
H1869 H 0.7312 0.32403 0.21296 0.0
H1870 H 0.75908 0.3365 0.23228 0.0
H1871 H 0.76186 0.30964 0.21038 0.0
H1872 H 0.83579 0.33304 0.1464 0.0
H1873 H 0.86688 0.34911 0.18094 0.0
H1874 H 0.80149 0.3686 0.22813 0.0
C1875 C 0.73237 0.32293 0.15618 0.0
C1876 C 0.73213 0.30871 0.13282 0.0
C1877 C 0.75576 0.30734 0.1189 0.0
C1878 C 0.77968 0.31942 0.12843 0.0
C1879 C 0.77952 0.3325 0.15203 0.0
C1880 C 0.75644 0.33477 0.16558 0.0
C1881 C 0.76221 0.34694 0.19192 0.0
C1882 C 0.74999 0.37245 0.19544 0.0
C1883 C 0.75305 0.32815 0.21312 0.0
C1884 C 0.79194 0.3514 0.19088 0.0
C1885 C 0.80158 0.3425 0.16792 0.0
C1886 C 0.82849 0.34134 0.1639 0.0
C1887 C 0.84598 0.3507 0.18344 0.0
C1888 C 0.83651 0.36189 0.20612 0.0
C1889 C 0.80916 0.3615 0.21023 0.0
H1890 H 0.15143 0.2334 0.75996 0.0
H1891 H 0.10825 0.25516 0.69387 0.0
H1892 H 0.11954 0.21591 0.67028 0.0
H1893 H 0.20433 0.21568 0.72573 0.0
H1894 H 0.21107 0.18966 0.74591 0.0
H1895 H 0.19495 0.21609 0.75903 0.0
H1896 H 0.15601 0.18427 0.7742 0.0
H1897 H 0.17204 0.15764 0.76101 0.0
H1898 H 0.13885 0.16205 0.75138 0.0
H1899 H 0.13984 0.17659 0.65248 0.0
H1900 H 0.17074 0.14422 0.64094 0.0
H1901 H 0.20275 0.15082 0.71782 0.0
C1902 C 0.14357 0.22945 0.74083 0.0
C1903 C 0.12855 0.24699 0.72886 0.0
C1904 C 0.11953 0.24174 0.70345 0.0
C1905 C 0.12575 0.21945 0.68999 0.0
C1906 C 0.14118 0.20278 0.70217 0.0
C1907 C 0.1501 0.20769 0.72702 0.0
C1908 C 0.16947 0.18912 0.73463 0.0
C1909 C 0.19654 0.2035 0.74172 0.0
C1910 C 0.15842 0.17227 0.75661 0.0
C1911 C 0.17076 0.17346 0.70997 0.0
C1912 C 0.15378 0.18105 0.69163 0.0
C1913 C 0.15286 0.17023 0.66682 0.0
C1914 C 0.1703 0.15178 0.66045 0.0
C1915 C 0.18858 0.14488 0.67871 0.0
C1916 C 0.18843 0.15546 0.70379 0.0
H1917 H 0.19116 0.65271 0.20711 0.0
H1918 H 0.12778 0.681 0.16467 0.0
H1919 H 0.15935 0.69546 0.13049 0.0
H1920 H 0.23382 0.7098 0.19499 0.0
H1921 H 0.26324 0.69333 0.19603 0.0
H1922 H 0.23464 0.68173 0.21419 0.0
H1923 H 0.23416 0.6368 0.19179 0.0
H1924 H 0.26306 0.64861 0.17441 0.0
H1925 H 0.23389 0.63432 0.15737 0.0
H1926 H 0.19864 0.70896 0.10264 0.0
H1927 H 0.24233 0.7273 0.08707 0.0
H1928 H 0.28015 0.69409 0.15063 0.0
C1929 C 0.18385 0.66121 0.19017 0.0
C1930 C 0.1568 0.66366 0.18713 0.0
C1931 C 0.14814 0.67688 0.16598 0.0
C1932 C 0.16599 0.68548 0.14677 0.0
C1933 C 0.19257 0.6818 0.14986 0.0
C1934 C 0.20149 0.67088 0.17158 0.0
C1935 C 0.23121 0.67324 0.17285 0.0
C1936 C 0.2413 0.69056 0.19587 0.0
C1937 C 0.2412 0.64661 0.17408 0.0
C1938 C 0.23792 0.68615 0.14775 0.0
C1939 C 0.21531 0.69094 0.13475 0.0
C1940 C 0.21646 0.70501 0.11242 0.0
C1941 C 0.24127 0.71527 0.10369 0.0
C1942 C 0.2645 0.7113 0.11721 0.0
C1943 C 0.26279 0.69622 0.13924 0.0
H1944 H 0.87457 0.32507 0.32177 0.0
H1945 H 0.9192 0.29846 0.25732 0.0
H1946 H 0.90773 0.25357 0.26983 0.0
H1947 H 0.88544 0.26981 0.36655 0.0
H1948 H 0.85199 0.26878 0.37815 0.0
H1949 H 0.86956 0.29903 0.36945 0.0
H1950 H 0.83246 0.30712 0.33808 0.0
H1951 H 0.81434 0.27724 0.34637 0.0
H1952 H 0.82257 0.28331 0.31336 0.0
H1953 H 0.88209 0.21313 0.28121 0.0
H1954 H 0.84764 0.1792 0.29398 0.0
H1955 H 0.81932 0.23101 0.35141 0.0
C1956 C 0.88312 0.30984 0.31118 0.0
C1957 C 0.89795 0.31513 0.28876 0.0
C1958 C 0.90799 0.29474 0.27471 0.0
C1959 C 0.9016 0.26919 0.2817 0.0
C1960 C 0.88529 0.26444 0.30285 0.0
C1961 C 0.87658 0.28421 0.31775 0.0
C1962 C 0.8559 0.27401 0.33684 0.0
C1963 C 0.86634 0.27814 0.36439 0.0
C1964 C 0.82979 0.28614 0.33343 0.0
C1965 C 0.85297 0.24575 0.32907 0.0
C1966 C 0.8705 0.24055 0.30979 0.0
C1967 C 0.8691 0.21666 0.29705 0.0
C1968 C 0.84952 0.19753 0.30439 0.0
C1969 C 0.83191 0.2023 0.32448 0.0
C1970 C 0.83345 0.22673 0.33676 0.0
H1971 H 0.16642 0.29673 0.83204 0.0
H1972 H 0.20895 0.35157 0.78246 0.0
H1973 H 0.25055 0.34578 0.80491 0.0
H1974 H 0.20885 0.30986 0.89204 0.0
H1975 H 0.20707 0.27611 0.89861 0.0
H1976 H 0.17965 0.28865 0.88331 0.0
H1977 H 0.18162 0.25571 0.84599 0.0
H1978 H 0.20905 0.24291 0.86097 0.0
H1979 H 0.21212 0.25417 0.82868 0.0
H1980 H 0.28768 0.32628 0.8244 0.0
H1981 H 0.31779 0.2983 0.84411 0.0
H1982 H 0.25212 0.25817 0.88393 0.0
C1983 C 0.1843 0.30854 0.82698 0.0
C1984 C 0.18455 0.32527 0.80619 0.0
C1985 C 0.20845 0.33919 0.7988 0.0
C1986 C 0.2321 0.33601 0.81144 0.0
C1987 C 0.23146 0.31865 0.83128 0.0
C1988 C 0.20812 0.30539 0.83935 0.0
C1989 C 0.21345 0.28498 0.85828 0.0
C1990 C 0.20152 0.2903 0.88463 0.0
C1991 C 0.20348 0.25786 0.84784 0.0
C1992 C 0.24327 0.2887 0.85936 0.0
C1993 C 0.25329 0.30807 0.8435 0.0
C1994 C 0.28016 0.31215 0.83806 0.0
C1995 C 0.29719 0.29643 0.84959 0.0
C1996 C 0.28751 0.27771 0.86722 0.0
C1997 C 0.26016 0.27354 0.87181 0.0
H1998 H 0.19214 0.79276 0.34075 0.0
H1999 H 0.15551 0.84337 0.29059 0.0
H2000 H 0.11986 0.8089 0.28067 0.0
H2001 H 0.18426 0.74073 0.29934 0.0
H2002 H 0.1787 0.71661 0.32334 0.0
H2003 H 0.1973 0.74682 0.33127 0.0
H2004 H 0.16494 0.75416 0.36875 0.0
H2005 H 0.14636 0.72376 0.36058 0.0
H2006 H 0.13003 0.7528 0.36232 0.0
H2007 H 0.09148 0.76894 0.27263 0.0
H2008 H 0.07843 0.72418 0.25848 0.0
H2009 H 0.13473 0.69765 0.31135 0.0
C2010 C 0.17605 0.79664 0.32835 0.0
C2011 C 0.17537 0.82101 0.31764 0.0
C2012 C 0.15527 0.82518 0.3001 0.0
C2013 C 0.135 0.80575 0.29443 0.0
C2014 C 0.13552 0.78213 0.30607 0.0
C2015 C 0.15585 0.77726 0.32221 0.0
C2016 C 0.15457 0.74895 0.32814 0.0
C2017 C 0.18021 0.73762 0.32001 0.0
C2018 C 0.14862 0.74468 0.35665 0.0
C2019 C 0.13131 0.73844 0.31156 0.0
C2020 C 0.11991 0.75813 0.29998 0.0
C2021 C 0.09993 0.75335 0.28181 0.0
C2022 C 0.09263 0.72786 0.27391 0.0
C2023 C 0.10563 0.70759 0.28387 0.0
C2024 C 0.1241 0.71279 0.30393 0.0
H2025 H 0.77943 0.64055 0.76542 0.0
H2026 H 0.84017 0.69396 0.80056 0.0
H2027 H 0.81193 0.699 0.83831 0.0
H2028 H 0.73065 0.68277 0.78384 0.0
H2029 H 0.70433 0.65718 0.78666 0.0
H2030 H 0.7312 0.6534 0.76495 0.0
H2031 H 0.74138 0.61135 0.78781 0.0
H2032 H 0.71327 0.61559 0.80771 0.0
H2033 H 0.74494 0.61233 0.82219 0.0
H2034 H 0.77987 0.695 0.87343 0.0
H2035 H 0.73827 0.70338 0.8945 0.0
H2036 H 0.69404 0.66214 0.83267 0.0
C2037 C 0.7869 0.65267 0.78149 0.0
C2038 C 0.81305 0.66458 0.78173 0.0
C2039 C 0.82123 0.68257 0.8015 0.0
C2040 C 0.80532 0.68559 0.82292 0.0
C2041 C 0.7807 0.67147 0.82353 0.0
C2042 C 0.77069 0.65697 0.80258 0.0
C2043 C 0.74124 0.64984 0.80544 0.0
C2044 C 0.72596 0.66151 0.78396 0.0
C2045 C 0.73487 0.62051 0.80587 0.0
C2046 C 0.73648 0.66244 0.83142 0.0
C2047 C 0.76 0.67339 0.84198 0.0
C2048 C 0.76122 0.68678 0.86538 0.0
C2049 C 0.73754 0.69124 0.87729 0.0
C2050 C 0.71312 0.68315 0.86531 0.0
C2051 C 0.71246 0.66762 0.84267 0.0
H2052 H 0.71032 0.85957 0.75014 0.0
H2053 H 0.66406 0.81334 0.69302 0.0
H2054 H 0.63908 0.79002 0.72703 0.0
H2055 H 0.71944 0.80846 0.78831 0.0
H2056 H 0.71834 0.82566 0.81864 0.0
H2057 H 0.72843 0.84276 0.79031 0.0
H2058 H 0.6918 0.8733 0.79808 0.0
H2059 H 0.68181 0.85614 0.82658 0.0
H2060 H 0.65804 0.8598 0.80174 0.0
H2061 H 0.62265 0.76882 0.76547 0.0
H2062 H 0.62084 0.74539 0.80572 0.0
H2063 H 0.67922 0.80267 0.83939 0.0
C2064 C 0.69432 0.84507 0.74502 0.0
C2065 C 0.68777 0.83927 0.71913 0.0
C2066 C 0.66809 0.81907 0.71283 0.0
C2067 C 0.65387 0.80571 0.73201 0.0
C2068 C 0.66009 0.81237 0.75743 0.0
C2069 C 0.68017 0.83121 0.76407 0.0
C2070 C 0.68581 0.83141 0.7926 0.0
C2071 C 0.71471 0.82678 0.79775 0.0
C2072 C 0.67896 0.85667 0.80551 0.0
C2073 C 0.66674 0.80884 0.80065 0.0
C2074 C 0.65146 0.79886 0.78011 0.0
C2075 C 0.63413 0.77664 0.78182 0.0
C2076 C 0.63326 0.76346 0.80473 0.0
C2077 C 0.64972 0.77245 0.82554 0.0
C2078 C 0.66593 0.79592 0.82391 0.0
H2079 H 0.71144 0.18289 0.28918 0.0
H2080 H 0.74676 0.12115 0.24942 0.0
H2081 H 0.72339 0.13023 0.20962 0.0
H2082 H 0.6474 0.17908 0.25223 0.0
H2083 H 0.6483 0.21366 0.25198 0.0
H2084 H 0.66227 0.19836 0.27857 0.0
H2085 H 0.70688 0.22596 0.27189 0.0
H2086 H 0.69311 0.24124 0.24535 0.0
H2087 H 0.72266 0.22531 0.24098 0.0
H2088 H 0.7007 0.1493 0.17318 0.0
H2089 H 0.68513 0.17941 0.14226 0.0
H2090 H 0.66793 0.23117 0.20505 0.0
C2091 C 0.71326 0.17063 0.27233 0.0
C2092 C 0.73016 0.15085 0.27237 0.0
C2093 C 0.73338 0.13603 0.24974 0.0
C2094 C 0.72013 0.14101 0.22714 0.0
C2095 C 0.7041 0.16117 0.22744 0.0
C2096 C 0.70079 0.17589 0.24944 0.0
C2097 C 0.6863 0.19906 0.24375 0.0
C2098 C 0.65947 0.19743 0.25744 0.0
C2099 C 0.70326 0.22437 0.25091 0.0
C2100 C 0.68283 0.19561 0.21502 0.0
C2101 C 0.69245 0.17321 0.20608 0.0
C2102 C 0.69279 0.16671 0.18 0.0
C2103 C 0.68384 0.1839 0.16257 0.0
C2104 C 0.67528 0.20758 0.17127 0.0
C2105 C 0.67415 0.2131 0.19787 0.0
H2106 H 0.3015 0.15985 0.70534 0.0
H2107 H 0.29588 0.08107 0.7299 0.0
H2108 H 0.31873 0.09546 0.77044 0.0
H2109 H 0.36442 0.18679 0.74012 0.0
H2110 H 0.3497 0.21587 0.74795 0.0
H2111 H 0.34068 0.19836 0.71858 0.0
H2112 H 0.29154 0.19692 0.7325 0.0
H2113 H 0.30099 0.21341 0.76221 0.0
H2114 H 0.28158 0.18258 0.76246 0.0
H2115 H 0.33489 0.11894 0.81063 0.0
H2116 H 0.3417 0.14958 0.84759 0.0
H2117 H 0.33441 0.21307 0.79709 0.0
C2118 C 0.30639 0.1456 0.71877 0.0
C2119 C 0.2981 0.11934 0.71437 0.0
C2120 C 0.30295 0.1012 0.73289 0.0
C2121 C 0.31594 0.10921 0.75581 0.0
C2122 C 0.3233 0.13545 0.76 0.0
C2123 C 0.31867 0.15341 0.74194 0.0
C2124 C 0.32339 0.18059 0.7529 0.0
C2125 C 0.34591 0.19629 0.739 0.0
C2126 C 0.29786 0.19415 0.7525 0.0
C2127 C 0.33129 0.17515 0.77988 0.0
C2128 C 0.3314 0.14908 0.78362 0.0
C2129 C 0.33549 0.13944 0.80778 0.0
C2130 C 0.33925 0.15694 0.82864 0.0
C2131 C 0.33883 0.18365 0.82507 0.0
C2132 C 0.33539 0.19279 0.8003 0.0
H2133 H 0.29227 0.84091 0.28076 0.0
H2134 H 0.25826 0.9022 0.24246 0.0
H2135 H 0.2801 0.89032 0.20199 0.0
H2136 H 0.35501 0.84059 0.24277 0.0
H2137 H 0.35282 0.80591 0.24214 0.0
H2138 H 0.33998 0.82297 0.26912 0.0
H2139 H 0.29442 0.79658 0.26281 0.0
H2140 H 0.30704 0.77956 0.23586 0.0
H2141 H 0.27814 0.79641 0.23215 0.0
H2142 H 0.30181 0.86885 0.16483 0.0
H2143 H 0.31649 0.83701 0.13339 0.0
H2144 H 0.33223 0.7871 0.19533 0.0
C2145 C 0.29042 0.85247 0.26408 0.0
C2146 C 0.27439 0.87298 0.26477 0.0
C2147 C 0.27104 0.88683 0.24232 0.0
C2148 C 0.28341 0.88022 0.21933 0.0
C2149 C 0.2986 0.8594 0.21905 0.0
C2150 C 0.30192 0.84558 0.24084 0.0
C2151 C 0.31537 0.82156 0.23466 0.0
C2152 C 0.3424 0.82285 0.24796 0.0
C2153 C 0.29768 0.7971 0.24178 0.0
C2154 C 0.31841 0.82358 0.20591 0.0
C2155 C 0.3094 0.84594 0.19736 0.0
C2156 C 0.30916 0.85142 0.17136 0.0
C2157 C 0.31762 0.83326 0.15364 0.0
C2158 C 0.32555 0.80964 0.16195 0.0
C2159 C 0.32646 0.80509 0.18846 0.0
loop_
_geom_bond_atom_site_label_1
_geom_bond_atom_site_label_2
_geom_bond_distance
_geom_bond_site_symmetry_2
_ccdc_geom_bond_type
Mn0 O5 2.095 . S
Mn0 O15 2.162 . S
Mn0 O16 2.297 . S
Mn0 O24 2.385 . S
Mn0 O25 2.209 . S
Mn0 O26 2.094 . S
Mn1 O6 2.121 . S
Mn1 N8 2.257 . S
Mn1 N17 2.282 . S
Mn1 O25 2.215 . S
Mn1 O27 2.117 . S
C2 O24 1.234 . S
C2 O25 1.283 . S
C3 O15 1.281 . S
C3 O16 1.236 . S
C4 O26 1.240 . S
C4 O27 1.264 . S
O5 Mn0 2.095 . S
O5 C14 1.250 . S
O6 Mn1 2.121 . S
O6 C14 1.258 . S
C7 N8 1.326 . S
C7 C11 1.460 . S
C7 H13 0.929 . S
N8 Mn1 2.257 . S
N8 C7 1.326 . S
N8 C12 1.362 . S
C9 C10 1.258 . S
C9 C12 1.431 . S
C9 C29 1.449 . S
C10 C9 1.258 . S
C10 C11 1.477 . S
C10 H30 0.931 . S
C11 C7 1.460 . S
C11 C10 1.477 . S
C11 H31 0.930 . S
C12 N8 1.362 . S
C12 C9 1.431 . S
C12 C22 1.476 . S
H13 C7 0.929 . S
C14 O5 1.250 . S
C14 O6 1.258 . S
O15 Mn0 2.162 . S
O15 C3 1.281 . S
O16 Mn0 2.297 . S
O16 C3 1.236 . S
N17 Mn1 2.282 . S
N17 C18 1.328 . S
N17 C22 1.318 . S
C18 N17 1.328 . S
C18 C19 1.457 . S
C18 H23 0.929 . S
C19 C18 1.457 . S
C19 C20 1.291 . S
C19 H32 0.931 . S
C20 C19 1.291 . S
C20 C21 1.373 . S
C20 H33 0.929 . S
C21 C20 1.373 . S
C21 C22 1.396 . S
C21 C28 1.403 . S
C22 C12 1.476 . S
C22 N17 1.318 . S
C22 C21 1.396 . S
H23 C18 0.929 . S
O24 Mn0 2.385 . S
O24 C2 1.234 . S
O25 Mn0 2.209 . S
O25 Mn1 2.215 . S
O25 C2 1.283 . S
O26 Mn0 2.094 . S
O26 C4 1.240 . S
O27 Mn1 2.117 . S
O27 C4 1.264 . S
C28 C21 1.403 . S
C28 C29 1.399 . S
C28 H34 0.929 . S
C29 C9 1.449 . S
C29 C28 1.399 . S
C29 H35 0.930 . S
H30 C10 0.931 . S
H31 C11 0.930 . S
H32 C19 0.931 . S
H33 C20 0.929 . S
H34 C28 0.929 . S
H35 C29 0.930 . S
Mn36 O41 2.095 . S
Mn36 O51 2.162 . S
Mn36 O52 2.297 . S
Mn36 O60 2.385 . S
Mn36 O61 2.209 . S
Mn36 O62 2.094 . S
Mn37 O42 2.121 . S
Mn37 N44 2.257 . S
Mn37 N53 2.282 . S
Mn37 O61 2.215 . S
Mn37 O63 2.117 . S
C38 O60 1.234 . S
C38 O61 1.283 . S
C39 O51 1.281 . S
C39 O52 1.236 . S
C40 O62 1.240 . S
C40 O63 1.264 . S
O41 Mn36 2.095 . S
O41 C50 1.250 . S
O42 Mn37 2.121 . S
O42 C50 1.258 . S
C43 N44 1.326 . S
C43 C47 1.460 . S
C43 H49 0.929 . S
N44 Mn37 2.257 . S
N44 C43 1.326 . S
N44 C48 1.362 . S
C45 C46 1.258 . S
C45 C48 1.431 . S
C45 C65 1.449 . S
C46 C45 1.258 . S
C46 C47 1.477 . S
C46 H66 0.931 . S
C47 C43 1.460 . S
C47 C46 1.477 . S
C47 H67 0.930 . S
C48 N44 1.362 . S
C48 C45 1.431 . S
C48 C58 1.476 . S
H49 C43 0.929 . S
C50 O41 1.250 . S
C50 O42 1.258 . S
O51 Mn36 2.162 . S
O51 C39 1.281 . S
O52 Mn36 2.297 . S
O52 C39 1.236 . S
N53 Mn37 2.282 . S
N53 C54 1.328 . S
N53 C58 1.318 . S
C54 N53 1.328 . S
C54 C55 1.457 . S
C54 H59 0.929 . S
C55 C54 1.457 . S
C55 C56 1.291 . S
C55 H68 0.931 . S
C56 C55 1.291 . S
C56 C57 1.373 . S
C56 H69 0.929 . S
C57 C56 1.373 . S
C57 C58 1.396 . S
C57 C64 1.403 . S
C58 C48 1.476 . S
C58 N53 1.318 . S
C58 C57 1.396 . S
H59 C54 0.929 . S
O60 Mn36 2.385 . S
O60 C38 1.234 . S
O61 Mn36 2.209 . S
O61 Mn37 2.215 . S
O61 C38 1.283 . S
O62 Mn36 2.094 . S
O62 C40 1.240 . S
O63 Mn37 2.117 . S
O63 C40 1.264 . S
C64 C57 1.403 . S
C64 C65 1.399 . S
C64 H70 0.929 . S
C65 C45 1.449 . S
C65 C64 1.399 . S
C65 H71 0.930 . S
H66 C46 0.931 . S
H67 C47 0.930 . S
H68 C55 0.931 . S
H69 C56 0.929 . S
H70 C64 0.929 . S
H71 C65 0.930 . S
Mn72 O77 2.095 . S
Mn72 O87 2.162 . S
Mn72 O88 2.297 . S
Mn72 O96 2.385 . S
Mn72 O97 2.209 . S
Mn72 O98 2.094 . S
Mn73 O78 2.121 . S
Mn73 N80 2.257 . S
Mn73 N89 2.282 . S
Mn73 O97 2.215 . S
Mn73 O99 2.117 . S
C74 O96 1.234 . S
C74 O97 1.283 . S
C75 O87 1.281 . S
C75 O88 1.236 . S
C76 O98 1.240 . S
C76 O99 1.264 . S
O77 Mn72 2.095 . S
O77 C86 1.250 . S
O78 Mn73 2.121 . S
O78 C86 1.258 . S
C79 N80 1.326 . S
C79 C83 1.460 . S
C79 H85 0.929 . S
N80 Mn73 2.257 . S
N80 C79 1.326 . S
N80 C84 1.362 . S
C81 C82 1.258 . S
C81 C84 1.431 . S
C81 C101 1.449 . S
C82 C81 1.258 . S
C82 C83 1.477 . S
C82 H102 0.931 . S
C83 C79 1.460 . S
C83 C82 1.477 . S
C83 H103 0.930 . S
C84 N80 1.362 . S
C84 C81 1.431 . S
C84 C94 1.476 . S
H85 C79 0.929 . S
C86 O77 1.250 . S
C86 O78 1.258 . S
O87 Mn72 2.162 . S
O87 C75 1.281 . S
O88 Mn72 2.297 . S
O88 C75 1.236 . S
N89 Mn73 2.282 . S
N89 C90 1.328 . S
N89 C94 1.318 . S
C90 N89 1.328 . S
C90 C91 1.457 . S
C90 H95 0.929 . S
C91 C90 1.457 . S
C91 C92 1.291 . S
C91 H104 0.931 . S
C92 C91 1.291 . S
C92 C93 1.373 . S
C92 H105 0.929 . S
C93 C92 1.373 . S
C93 C94 1.396 . S
C93 C100 1.403 . S
C94 C84 1.476 . S
C94 N89 1.318 . S
C94 C93 1.396 . S
H95 C90 0.929 . S
O96 Mn72 2.385 . S
O96 C74 1.234 . S
O97 Mn72 2.209 . S
O97 Mn73 2.215 . S
O97 C74 1.283 . S
O98 Mn72 2.094 . S
O98 C76 1.240 . S
O99 Mn73 2.117 . S
O99 C76 1.264 . S
C100 C93 1.403 . S
C100 C101 1.399 . S
C100 H106 0.929 . S
C101 C81 1.449 . S
C101 C100 1.399 . S
C101 H107 0.930 . S
H102 C82 0.931 . S
H103 C83 0.930 . S
H104 C91 0.931 . S
H105 C92 0.929 . S
H106 C100 0.929 . S
H107 C101 0.930 . S
Mn108 O113 2.095 . S
Mn108 O123 2.162 . S
Mn108 O124 2.297 . S
Mn108 O132 2.385 . S
Mn108 O133 2.209 . S
Mn108 O134 2.094 . S
Mn109 O114 2.121 . S
Mn109 N116 2.257 . S
Mn109 N125 2.282 . S
Mn109 O133 2.215 . S
Mn109 O135 2.117 . S
C110 O132 1.234 . S
C110 O133 1.283 . S
C111 O123 1.281 . S
C111 O124 1.236 . S
C112 O134 1.240 . S
C112 O135 1.264 . S
O113 Mn108 2.095 . S
O113 C122 1.250 . S
O114 Mn109 2.121 . S
O114 C122 1.258 . S
C115 N116 1.326 . S
C115 C119 1.460 . S
C115 H121 0.929 . S
N116 Mn109 2.257 . S
N116 C115 1.326 . S
N116 C120 1.362 . S
C117 C118 1.258 . S
C117 C120 1.431 . S
C117 C137 1.449 . S
C118 C117 1.258 . S
C118 C119 1.477 . S
C118 H138 0.931 . S
C119 C115 1.460 . S
C119 C118 1.477 . S
C119 H139 0.930 . S
C120 N116 1.362 . S
C120 C117 1.431 . S
C120 C130 1.476 . S
H121 C115 0.929 . S
C122 O113 1.250 . S
C122 O114 1.258 . S
O123 Mn108 2.162 . S
O123 C111 1.281 . S
O124 Mn108 2.297 . S
O124 C111 1.236 . S
N125 Mn109 2.282 . S
N125 C126 1.328 . S
N125 C130 1.318 . S
C126 N125 1.328 . S
C126 C127 1.457 . S
C126 H131 0.929 . S
C127 C126 1.457 . S
C127 C128 1.291 . S
C127 H140 0.931 . S
C128 C127 1.291 . S
C128 C129 1.373 . S
C128 H141 0.929 . S
C129 C128 1.373 . S
C129 C130 1.396 . S
C129 C136 1.403 . S
C130 C120 1.476 . S
C130 N125 1.318 . S
C130 C129 1.396 . S
H131 C126 0.929 . S
O132 Mn108 2.385 . S
O132 C110 1.234 . S
O133 Mn108 2.209 . S
O133 Mn109 2.215 . S
O133 C110 1.283 . S
O134 Mn108 2.094 . S
O134 C112 1.240 . S
O135 Mn109 2.117 . S
O135 C112 1.264 . S
C136 C129 1.403 . S
C136 C137 1.399 . S
C136 H142 0.929 . S
C137 C117 1.449 . S
C137 C136 1.399 . S
C137 H143 0.930 . S
H138 C118 0.931 . S
H139 C119 0.930 . S
H140 C127 0.931 . S
H141 C128 0.929 . S
H142 C136 0.929 . S
H143 C137 0.930 . S
Mn144 O149 2.095 . S
Mn144 O159 2.162 . S
Mn144 O160 2.297 . S
Mn144 O168 2.385 . S
Mn144 O169 2.209 . S
Mn144 O170 2.094 . S
Mn145 O150 2.121 . S
Mn145 N152 2.257 . S
Mn145 N161 2.282 . S
Mn145 O169 2.215 . S
Mn145 O171 2.117 . S
C146 O168 1.234 . S
C146 O169 1.283 . S
C147 O159 1.281 . S
C147 O160 1.236 . S
C148 O170 1.240 . S
C148 O171 1.264 . S
O149 Mn144 2.095 . S
O149 C158 1.250 . S
O150 Mn145 2.121 . S
O150 C158 1.258 . S
C151 N152 1.326 . S
C151 C155 1.460 . S
C151 H157 0.929 . S
N152 Mn145 2.257 . S
N152 C151 1.326 . S
N152 C156 1.362 . S
C153 C154 1.258 . S
C153 C156 1.431 . S
C153 C173 1.449 . S
C154 C153 1.258 . S
C154 C155 1.477 . S
C154 H174 0.931 . S
C155 C151 1.460 . S
C155 C154 1.477 . S
C155 H175 0.930 . S
C156 N152 1.362 . S
C156 C153 1.431 . S
C156 C166 1.476 . S
H157 C151 0.929 . S
C158 O149 1.250 . S
C158 O150 1.258 . S
O159 Mn144 2.162 . S
O159 C147 1.281 . S
O160 Mn144 2.297 . S
O160 C147 1.236 . S
N161 Mn145 2.282 . S
N161 C162 1.328 . S
N161 C166 1.318 . S
C162 N161 1.328 . S
C162 C163 1.457 . S
C162 H167 0.929 . S
C163 C162 1.457 . S
C163 C164 1.291 . S
C163 H176 0.931 . S
C164 C163 1.291 . S
C164 C165 1.373 . S
C164 H177 0.929 . S
C165 C164 1.373 . S
C165 C166 1.396 . S
C165 C172 1.403 . S
C166 C156 1.476 . S
C166 N161 1.318 . S
C166 C165 1.396 . S
H167 C162 0.929 . S
O168 Mn144 2.385 . S
O168 C146 1.234 . S
O169 Mn144 2.209 . S
O169 Mn145 2.215 . S
O169 C146 1.283 . S
O170 Mn144 2.094 . S
O170 C148 1.240 . S
O171 Mn145 2.117 . S
O171 C148 1.264 . S
C172 C165 1.403 . S
C172 C173 1.399 . S
C172 H178 0.929 . S
C173 C153 1.449 . S
C173 C172 1.399 . S
C173 H179 0.930 . S
H174 C154 0.931 . S
H175 C155 0.930 . S
H176 C163 0.931 . S
H177 C164 0.929 . S
H178 C172 0.929 . S
H179 C173 0.930 . S
Mn180 O185 2.095 . S
Mn180 O195 2.162 . S
Mn180 O196 2.297 . S
Mn180 O204 2.385 . S
Mn180 O205 2.209 . S
Mn180 O206 2.094 . S
Mn181 O186 2.121 . S
Mn181 N188 2.257 . S
Mn181 N197 2.282 . S
Mn181 O205 2.215 . S
Mn181 O207 2.117 . S
C182 O204 1.234 . S
C182 O205 1.283 . S
C183 O195 1.281 . S
C183 O196 1.236 . S
C184 O206 1.240 . S
C184 O207 1.264 . S
O185 Mn180 2.095 . S
O185 C194 1.250 . S
O186 Mn181 2.121 . S
O186 C194 1.258 . S
C187 N188 1.326 . S
C187 C191 1.460 . S
C187 H193 0.929 . S
N188 Mn181 2.257 . S
N188 C187 1.326 . S
N188 C192 1.362 . S
C189 C190 1.258 . S
C189 C192 1.431 . S
C189 C209 1.449 . S
C190 C189 1.258 . S
C190 C191 1.477 . S
C190 H210 0.931 . S
C191 C187 1.460 . S
C191 C190 1.477 . S
C191 H211 0.930 . S
C192 N188 1.362 . S
C192 C189 1.431 . S
C192 C202 1.476 . S
H193 C187 0.929 . S
C194 O185 1.250 . S
C194 O186 1.258 . S
O195 Mn180 2.162 . S
O195 C183 1.281 . S
O196 Mn180 2.297 . S
O196 C183 1.236 . S
N197 Mn181 2.282 . S
N197 C198 1.328 . S
N197 C202 1.318 . S
C198 N197 1.328 . S
C198 C199 1.457 . S
C198 H203 0.929 . S
C199 C198 1.457 . S
C199 C200 1.291 . S
C199 H212 0.931 . S
C200 C199 1.291 . S
C200 C201 1.373 . S
C200 H213 0.929 . S
C201 C200 1.373 . S
C201 C202 1.396 . S
C201 C208 1.403 . S
C202 C192 1.476 . S
C202 N197 1.318 . S
C202 C201 1.396 . S
H203 C198 0.929 . S
O204 Mn180 2.385 . S
O204 C182 1.234 . S
O205 Mn180 2.209 . S
O205 Mn181 2.215 . S
O205 C182 1.283 . S
O206 Mn180 2.094 . S
O206 C184 1.240 . S
O207 Mn181 2.117 . S
O207 C184 1.264 . S
C208 C201 1.403 . S
C208 C209 1.399 . S
C208 H214 0.929 . S
C209 C189 1.449 . S
C209 C208 1.399 . S
C209 H215 0.930 . S
H210 C190 0.931 . S
H211 C191 0.930 . S
H212 C199 0.931 . S
H213 C200 0.929 . S
H214 C208 0.929 . S
H215 C209 0.930 . S
Mn216 O221 2.095 . S
Mn216 O231 2.162 . S
Mn216 O232 2.297 . S
Mn216 O240 2.385 . S
Mn216 O241 2.209 . S
Mn216 O242 2.094 . S
Mn217 O222 2.121 . S
Mn217 N224 2.257 . S
Mn217 N233 2.282 . S
Mn217 O241 2.215 . S
Mn217 O243 2.117 . S
C218 O240 1.234 . S
C218 O241 1.283 . S
C219 O231 1.281 . S
C219 O232 1.236 . S
C220 O242 1.240 . S
C220 O243 1.264 . S
O221 Mn216 2.095 . S
O221 C230 1.250 . S
O222 Mn217 2.121 . S
O222 C230 1.258 . S
C223 N224 1.326 . S
C223 C227 1.460 . S
C223 H229 0.929 . S
N224 Mn217 2.257 . S
N224 C223 1.326 . S
N224 C228 1.362 . S
C225 C226 1.258 . S
C225 C228 1.431 . S
C225 C245 1.449 . S
C226 C225 1.258 . S
C226 C227 1.477 . S
C226 H246 0.931 . S
C227 C223 1.460 . S
C227 C226 1.477 . S
C227 H247 0.930 . S
C228 N224 1.362 . S
C228 C225 1.431 . S
C228 C238 1.476 . S
H229 C223 0.929 . S
C230 O221 1.250 . S
C230 O222 1.258 . S
O231 Mn216 2.162 . S
O231 C219 1.281 . S
O232 Mn216 2.297 . S
O232 C219 1.236 . S
N233 Mn217 2.282 . S
N233 C234 1.328 . S
N233 C238 1.318 . S
C234 N233 1.328 . S
C234 C235 1.457 . S
C234 H239 0.929 . S
C235 C234 1.457 . S
C235 C236 1.291 . S
C235 H248 0.931 . S
C236 C235 1.291 . S
C236 C237 1.373 . S
C236 H249 0.929 . S
C237 C236 1.373 . S
C237 C238 1.396 . S
C237 C244 1.403 . S
C238 C228 1.476 . S
C238 N233 1.318 . S
C238 C237 1.396 . S
H239 C234 0.929 . S
O240 Mn216 2.385 . S
O240 C218 1.234 . S
O241 Mn216 2.209 . S
O241 Mn217 2.215 . S
O241 C218 1.283 . S
O242 Mn216 2.094 . S
O242 C220 1.240 . S
O243 Mn217 2.117 . S
O243 C220 1.264 . S
C244 C237 1.403 . S
C244 C245 1.399 . S
C244 H250 0.929 . S
C245 C225 1.449 . S
C245 C244 1.399 . S
C245 H251 0.930 . S
H246 C226 0.931 . S
H247 C227 0.930 . S
H248 C235 0.931 . S
H249 C236 0.929 . S
H250 C244 0.929 . S
H251 C245 0.930 . S
Mn252 O257 2.095 . S
Mn252 O267 2.162 . S
Mn252 O268 2.297 . S
Mn252 O276 2.385 . S
Mn252 O277 2.209 . S
Mn252 O278 2.094 . S
Mn253 O258 2.121 . S
Mn253 N260 2.257 . S
Mn253 N269 2.282 . S
Mn253 O277 2.215 . S
Mn253 O279 2.117 . S
C254 O276 1.234 . S
C254 O277 1.283 . S
C255 O267 1.281 . S
C255 O268 1.236 . S
C256 O278 1.240 . S
C256 O279 1.264 . S
O257 Mn252 2.095 . S
O257 C266 1.250 . S
O258 Mn253 2.121 . S
O258 C266 1.258 . S
C259 N260 1.326 . S
C259 C263 1.460 . S
C259 H265 0.929 . S
N260 Mn253 2.257 . S
N260 C259 1.326 . S
N260 C264 1.362 . S
C261 C262 1.258 . S
C261 C264 1.431 . S
C261 C281 1.449 . S
C262 C261 1.258 . S
C262 C263 1.477 . S
C262 H282 0.931 . S
C263 C259 1.460 . S
C263 C262 1.477 . S
C263 H283 0.930 . S
C264 N260 1.362 . S
C264 C261 1.431 . S
C264 C274 1.476 . S
H265 C259 0.929 . S
C266 O257 1.250 . S
C266 O258 1.258 . S
O267 Mn252 2.162 . S
O267 C255 1.281 . S
O268 Mn252 2.297 . S
O268 C255 1.236 . S
N269 Mn253 2.282 . S
N269 C270 1.328 . S
N269 C274 1.318 . S
C270 N269 1.328 . S
C270 C271 1.457 . S
C270 H275 0.929 . S
C271 C270 1.457 . S
C271 C272 1.291 . S
C271 H284 0.931 . S
C272 C271 1.291 . S
C272 C273 1.373 . S
C272 H285 0.929 . S
C273 C272 1.373 . S
C273 C274 1.396 . S
C273 C280 1.403 . S
C274 C264 1.476 . S
C274 N269 1.318 . S
C274 C273 1.396 . S
H275 C270 0.929 . S
O276 Mn252 2.385 . S
O276 C254 1.234 . S
O277 Mn252 2.209 . S
O277 Mn253 2.215 . S
O277 C254 1.283 . S
O278 Mn252 2.094 . S
O278 C256 1.240 . S
O279 Mn253 2.117 . S
O279 C256 1.264 . S
C280 C273 1.403 . S
C280 C281 1.399 . S
C280 H286 0.929 . S
C281 C261 1.449 . S
C281 C280 1.399 . S
C281 H287 0.930 . S
H282 C262 0.931 . S
H283 C263 0.930 . S
H284 C271 0.931 . S
H285 C272 0.929 . S
H286 C280 0.929 . S
H287 C281 0.930 . S
Mn288 O293 2.095 . S
Mn288 O303 2.162 . S
Mn288 O304 2.297 . S
Mn288 O312 2.385 . S
Mn288 O313 2.209 . S
Mn288 O314 2.094 . S
Mn289 O294 2.121 . S
Mn289 N296 2.257 . S
Mn289 N305 2.282 . S
Mn289 O313 2.215 . S
Mn289 O315 2.117 . S
C290 O312 1.234 . S
C290 O313 1.283 . S
C291 O303 1.281 . S
C291 O304 1.236 . S
C292 O314 1.240 . S
C292 O315 1.264 . S
O293 Mn288 2.095 . S
O293 C302 1.250 . S
O294 Mn289 2.121 . S
O294 C302 1.258 . S
C295 N296 1.326 . S
C295 C299 1.460 . S
C295 H301 0.929 . S
N296 Mn289 2.257 . S
N296 C295 1.326 . S
N296 C300 1.362 . S
C297 C298 1.258 . S
C297 C300 1.431 . S
C297 C317 1.449 . S
C298 C297 1.258 . S
C298 C299 1.477 . S
C298 H318 0.931 . S
C299 C295 1.460 . S
C299 C298 1.477 . S
C299 H319 0.930 . S
C300 N296 1.362 . S
C300 C297 1.431 . S
C300 C310 1.476 . S
H301 C295 0.929 . S
C302 O293 1.250 . S
C302 O294 1.258 . S
O303 Mn288 2.162 . S
O303 C291 1.281 . S
O304 Mn288 2.297 . S
O304 C291 1.236 . S
N305 Mn289 2.282 . S
N305 C306 1.328 . S
N305 C310 1.318 . S
C306 N305 1.328 . S
C306 C307 1.457 . S
C306 H311 0.929 . S
C307 C306 1.457 . S
C307 C308 1.291 . S
C307 H320 0.931 . S
C308 C307 1.291 . S
C308 C309 1.373 . S
C308 H321 0.929 . S
C309 C308 1.373 . S
C309 C310 1.396 . S
C309 C316 1.403 . S
C310 C300 1.476 . S
C310 N305 1.318 . S
C310 C309 1.396 . S
H311 C306 0.929 . S
O312 Mn288 2.385 . S
O312 C290 1.234 . S
O313 Mn288 2.209 . S
O313 Mn289 2.215 . S
O313 C290 1.283 . S
O314 Mn288 2.094 . S
O314 C292 1.240 . S
O315 Mn289 2.117 . S
O315 C292 1.264 . S
C316 C309 1.403 . S
C316 C317 1.399 . S
C316 H322 0.929 . S
C317 C297 1.449 . S
C317 C316 1.399 . S
C317 H323 0.930 . S
H318 C298 0.931 . S
H319 C299 0.930 . S
H320 C307 0.931 . S
H321 C308 0.929 . S
H322 C316 0.929 . S
H323 C317 0.930 . S
Mn324 O329 2.095 . S
Mn324 O339 2.162 . S
Mn324 O340 2.297 . S
Mn324 O348 2.385 . S
Mn324 O349 2.209 . S
Mn324 O350 2.094 . S
Mn325 O330 2.121 . S
Mn325 N332 2.257 . S
Mn325 N341 2.282 . S
Mn325 O349 2.215 . S
Mn325 O351 2.117 . S
C326 O348 1.234 . S
C326 O349 1.283 . S
C327 O339 1.281 . S
C327 O340 1.236 . S
C328 O350 1.240 . S
C328 O351 1.264 . S
O329 Mn324 2.095 . S
O329 C338 1.250 . S
O330 Mn325 2.121 . S
O330 C338 1.258 . S
C331 N332 1.326 . S
C331 C335 1.460 . S
C331 H337 0.929 . S
N332 Mn325 2.257 . S
N332 C331 1.326 . S
N332 C336 1.362 . S
C333 C334 1.258 . S
C333 C336 1.431 . S
C333 C353 1.449 . S
C334 C333 1.258 . S
C334 C335 1.477 . S
C334 H354 0.931 . S
C335 C331 1.460 . S
C335 C334 1.477 . S
C335 H355 0.930 . S
C336 N332 1.362 . S
C336 C333 1.431 . S
C336 C346 1.476 . S
H337 C331 0.929 . S
C338 O329 1.250 . S
C338 O330 1.258 . S
O339 Mn324 2.162 . S
O339 C327 1.281 . S
O340 Mn324 2.297 . S
O340 C327 1.236 . S
N341 Mn325 2.282 . S
N341 C342 1.328 . S
N341 C346 1.318 . S
C342 N341 1.328 . S
C342 C343 1.457 . S
C342 H347 0.929 . S
C343 C342 1.457 . S
C343 C344 1.291 . S
C343 H356 0.931 . S
C344 C343 1.291 . S
C344 C345 1.373 . S
C344 H357 0.929 . S
C345 C344 1.373 . S
C345 C346 1.396 . S
C345 C352 1.403 . S
C346 C336 1.476 . S
C346 N341 1.318 . S
C346 C345 1.396 . S
H347 C342 0.929 . S
O348 Mn324 2.385 . S
O348 C326 1.234 . S
O349 Mn324 2.209 . S
O349 Mn325 2.215 . S
O349 C326 1.283 . S
O350 Mn324 2.094 . S
O350 C328 1.240 . S
O351 Mn325 2.117 . S
O351 C328 1.264 . S
C352 C345 1.403 . S
C352 C353 1.399 . S
C352 H358 0.929 . S
C353 C333 1.449 . S
C353 C352 1.399 . S
C353 H359 0.930 . S
H354 C334 0.931 . S
H355 C335 0.930 . S
H356 C343 0.931 . S
H357 C344 0.929 . S
H358 C352 0.929 . S
H359 C353 0.930 . S
Mn360 O365 2.095 . S
Mn360 O375 2.162 . S
Mn360 O376 2.297 . S
Mn360 O384 2.385 . S
Mn360 O385 2.209 . S
Mn360 O386 2.094 . S
Mn361 O366 2.121 . S
Mn361 N368 2.257 . S
Mn361 N377 2.282 . S
Mn361 O385 2.215 . S
Mn361 O387 2.117 . S
C362 O384 1.234 . S
C362 O385 1.283 . S
C363 O375 1.281 . S
C363 O376 1.236 . S
C364 O386 1.240 . S
C364 O387 1.264 . S
O365 Mn360 2.095 . S
O365 C374 1.250 . S
O366 Mn361 2.121 . S
O366 C374 1.258 . S
C367 N368 1.326 . S
C367 C371 1.460 . S
C367 H373 0.929 . S
N368 Mn361 2.257 . S
N368 C367 1.326 . S
N368 C372 1.362 . S
C369 C370 1.258 . S
C369 C372 1.431 . S
C369 C389 1.449 . S
C370 C369 1.258 . S
C370 C371 1.477 . S
C370 H390 0.931 . S
C371 C367 1.460 . S
C371 C370 1.477 . S
C371 H391 0.930 . S
C372 N368 1.362 . S
C372 C369 1.431 . S
C372 C382 1.476 . S
H373 C367 0.929 . S
C374 O365 1.250 . S
C374 O366 1.258 . S
O375 Mn360 2.162 . S
O375 C363 1.281 . S
O376 Mn360 2.297 . S
O376 C363 1.236 . S
N377 Mn361 2.282 . S
N377 C378 1.328 . S
N377 C382 1.318 . S
C378 N377 1.328 . S
C378 C379 1.457 . S
C378 H383 0.929 . S
C379 C378 1.457 . S
C379 C380 1.291 . S
C379 H392 0.931 . S
C380 C379 1.291 . S
C380 C381 1.373 . S
C380 H393 0.929 . S
C381 C380 1.373 . S
C381 C382 1.396 . S
C381 C388 1.403 . S
C382 C372 1.476 . S
C382 N377 1.318 . S
C382 C381 1.396 . S
H383 C378 0.929 . S
O384 Mn360 2.385 . S
O384 C362 1.234 . S
O385 Mn360 2.209 . S
O385 Mn361 2.215 . S
O385 C362 1.283 . S
O386 Mn360 2.094 . S
O386 C364 1.240 . S
O387 Mn361 2.117 . S
O387 C364 1.264 . S
C388 C381 1.403 . S
C388 C389 1.399 . S
C388 H394 0.929 . S
C389 C369 1.449 . S
C389 C388 1.399 . S
C389 H395 0.930 . S
H390 C370 0.931 . S
H391 C371 0.930 . S
H392 C379 0.931 . S
H393 C380 0.929 . S
H394 C388 0.929 . S
H395 C389 0.930 . S
Mn396 O401 2.095 . S
Mn396 O411 2.162 . S
Mn396 O412 2.297 . S
Mn396 O420 2.385 . S
Mn396 O421 2.209 . S
Mn396 O422 2.094 . S
Mn397 O402 2.121 . S
Mn397 N404 2.257 . S
Mn397 N413 2.282 . S
Mn397 O421 2.215 . S
Mn397 O423 2.117 . S
C398 O420 1.234 . S
C398 O421 1.283 . S
C399 O411 1.281 . S
C399 O412 1.236 . S
C400 O422 1.240 . S
C400 O423 1.264 . S
O401 Mn396 2.095 . S
O401 C410 1.250 . S
O402 Mn397 2.121 . S
O402 C410 1.258 . S
C403 N404 1.326 . S
C403 C407 1.460 . S
C403 H409 0.929 . S
N404 Mn397 2.257 . S
N404 C403 1.326 . S
N404 C408 1.362 . S
C405 C406 1.258 . S
C405 C408 1.431 . S
C405 C425 1.449 . S
C406 C405 1.258 . S
C406 C407 1.477 . S
C406 H426 0.931 . S
C407 C403 1.460 . S
C407 C406 1.477 . S
C407 H427 0.930 . S
C408 N404 1.362 . S
C408 C405 1.431 . S
C408 C418 1.476 . S
H409 C403 0.929 . S
C410 O401 1.250 . S
C410 O402 1.258 . S
O411 Mn396 2.162 . S
O411 C399 1.281 . S
O412 Mn396 2.297 . S
O412 C399 1.236 . S
N413 Mn397 2.282 . S
N413 C414 1.328 . S
N413 C418 1.318 . S
C414 N413 1.328 . S
C414 C415 1.457 . S
C414 H419 0.929 . S
C415 C414 1.457 . S
C415 C416 1.291 . S
C415 H428 0.931 . S
C416 C415 1.291 . S
C416 C417 1.373 . S
C416 H429 0.929 . S
C417 C416 1.373 . S
C417 C418 1.396 . S
C417 C424 1.403 . S
C418 C408 1.476 . S
C418 N413 1.318 . S
C418 C417 1.396 . S
H419 C414 0.929 . S
O420 Mn396 2.385 . S
O420 C398 1.234 . S
O421 Mn396 2.209 . S
O421 Mn397 2.215 . S
O421 C398 1.283 . S
O422 Mn396 2.094 . S
O422 C400 1.240 . S
O423 Mn397 2.117 . S
O423 C400 1.264 . S
C424 C417 1.403 . S
C424 C425 1.399 . S
C424 H430 0.929 . S
C425 C405 1.449 . S
C425 C424 1.399 . S
C425 H431 0.930 . S
H426 C406 0.931 . S
H427 C407 0.930 . S
H428 C415 0.931 . S
H429 C416 0.929 . S
H430 C424 0.929 . S
H431 C425 0.930 . S
Mn432 O437 2.095 . S
Mn432 O447 2.162 . S
Mn432 O448 2.297 . S
Mn432 O456 2.385 . S
Mn432 O457 2.209 . S
Mn432 O458 2.094 . S
Mn433 O438 2.121 . S
Mn433 N440 2.257 . S
Mn433 N449 2.282 . S
Mn433 O457 2.215 . S
Mn433 O459 2.117 . S
C434 O456 1.234 . S
C434 O457 1.283 . S
C435 O447 1.281 . S
C435 O448 1.236 . S
C436 O458 1.240 . S
C436 O459 1.264 . S
O437 Mn432 2.095 . S
O437 C446 1.250 . S
O438 Mn433 2.121 . S
O438 C446 1.258 . S
C439 N440 1.326 . S
C439 C443 1.460 . S
C439 H445 0.929 . S
N440 Mn433 2.257 . S
N440 C439 1.326 . S
N440 C444 1.362 . S
C441 C442 1.258 . S
C441 C444 1.431 . S
C441 C461 1.449 . S
C442 C441 1.258 . S
C442 C443 1.477 . S
C442 H462 0.931 . S
C443 C439 1.460 . S
C443 C442 1.477 . S
C443 H463 0.930 . S
C444 N440 1.362 . S
C444 C441 1.431 . S
C444 C454 1.476 . S
H445 C439 0.929 . S
C446 O437 1.250 . S
C446 O438 1.258 . S
O447 Mn432 2.162 . S
O447 C435 1.281 . S
O448 Mn432 2.297 . S
O448 C435 1.236 . S
N449 Mn433 2.282 . S
N449 C450 1.328 . S
N449 C454 1.318 . S
C450 N449 1.328 . S
C450 C451 1.457 . S
C450 H455 0.929 . S
C451 C450 1.457 . S
C451 C452 1.291 . S
C451 H464 0.931 . S
C452 C451 1.291 . S
C452 C453 1.373 . S
C452 H465 0.929 . S
C453 C452 1.373 . S
C453 C454 1.396 . S
C453 C460 1.403 . S
C454 C444 1.476 . S
C454 N449 1.318 . S
C454 C453 1.396 . S
H455 C450 0.929 . S
O456 Mn432 2.385 . S
O456 C434 1.234 . S
O457 Mn432 2.209 . S
O457 Mn433 2.215 . S
O457 C434 1.283 . S
O458 Mn432 2.094 . S
O458 C436 1.240 . S
O459 Mn433 2.117 . S
O459 C436 1.264 . S
C460 C453 1.403 . S
C460 C461 1.399 . S
C460 H466 0.929 . S
C461 C441 1.449 . S
C461 C460 1.399 . S
C461 H467 0.930 . S
H462 C442 0.931 . S
H463 C443 0.930 . S
H464 C451 0.931 . S
H465 C452 0.929 . S
H466 C460 0.929 . S
H467 C461 0.930 . S
Mn468 O473 2.095 . S
Mn468 O483 2.162 . S
Mn468 O484 2.297 . S
Mn468 O492 2.385 . S
Mn468 O493 2.209 . S
Mn468 O494 2.094 . S
Mn469 O474 2.121 . S
Mn469 N476 2.257 . S
Mn469 N485 2.282 . S
Mn469 O493 2.215 . S
Mn469 O495 2.117 . S
C470 O492 1.234 . S
C470 O493 1.283 . S
C471 O483 1.281 . S
C471 O484 1.236 . S
C472 O494 1.240 . S
C472 O495 1.264 . S
O473 Mn468 2.095 . S
O473 C482 1.250 . S
O474 Mn469 2.121 . S
O474 C482 1.258 . S
C475 N476 1.326 . S
C475 C479 1.460 . S
C475 H481 0.929 . S
N476 Mn469 2.257 . S
N476 C475 1.326 . S
N476 C480 1.362 . S
C477 C478 1.258 . S
C477 C480 1.431 . S
C477 C497 1.449 . S
C478 C477 1.258 . S
C478 C479 1.477 . S
C478 H498 0.931 . S
C479 C475 1.460 . S
C479 C478 1.477 . S
C479 H499 0.930 . S
C480 N476 1.362 . S
C480 C477 1.431 . S
C480 C490 1.476 . S
H481 C475 0.929 . S
C482 O473 1.250 . S
C482 O474 1.258 . S
O483 Mn468 2.162 . S
O483 C471 1.281 . S
O484 Mn468 2.297 . S
O484 C471 1.236 . S
N485 Mn469 2.282 . S
N485 C486 1.328 . S
N485 C490 1.318 . S
C486 N485 1.328 . S
C486 C487 1.457 . S
C486 H491 0.929 . S
C487 C486 1.457 . S
C487 C488 1.291 . S
C487 H500 0.931 . S
C488 C487 1.291 . S
C488 C489 1.373 . S
C488 H501 0.929 . S
C489 C488 1.373 . S
C489 C490 1.396 . S
C489 C496 1.403 . S
C490 C480 1.476 . S
C490 N485 1.318 . S
C490 C489 1.396 . S
H491 C486 0.929 . S
O492 Mn468 2.385 . S
O492 C470 1.234 . S
O493 Mn468 2.209 . S
O493 Mn469 2.215 . S
O493 C470 1.283 . S
O494 Mn468 2.094 . S
O494 C472 1.240 . S
O495 Mn469 2.117 . S
O495 C472 1.264 . S
C496 C489 1.403 . S
C496 C497 1.399 . S
C496 H502 0.929 . S
C497 C477 1.449 . S
C497 C496 1.399 . S
C497 H503 0.930 . S
H498 C478 0.931 . S
H499 C479 0.930 . S
H500 C487 0.931 . S
H501 C488 0.929 . S
H502 C496 0.929 . S
H503 C497 0.930 . S
Mn504 O509 2.095 . S
Mn504 O519 2.162 . S
Mn504 O520 2.297 . S
Mn504 O528 2.385 . S
Mn504 O529 2.209 . S
Mn504 O530 2.094 . S
Mn505 O510 2.121 . S
Mn505 N512 2.257 . S
Mn505 N521 2.282 . S
Mn505 O529 2.215 . S
Mn505 O531 2.117 . S
C506 O528 1.234 . S
C506 O529 1.283 . S
C507 O519 1.281 . S
C507 O520 1.236 . S
C508 O530 1.240 . S
C508 O531 1.264 . S
O509 Mn504 2.095 . S
O509 C518 1.250 . S
O510 Mn505 2.121 . S
O510 C518 1.258 . S
C511 N512 1.326 . S
C511 C515 1.460 . S
C511 H517 0.929 . S
N512 Mn505 2.257 . S
N512 C511 1.326 . S
N512 C516 1.362 . S
C513 C514 1.258 . S
C513 C516 1.431 . S
C513 C533 1.449 . S
C514 C513 1.258 . S
C514 C515 1.477 . S
C514 H534 0.931 . S
C515 C511 1.460 . S
C515 C514 1.477 . S
C515 H535 0.930 . S
C516 N512 1.362 . S
C516 C513 1.431 . S
C516 C526 1.476 . S
H517 C511 0.929 . S
C518 O509 1.250 . S
C518 O510 1.258 . S
O519 Mn504 2.162 . S
O519 C507 1.281 . S
O520 Mn504 2.297 . S
O520 C507 1.236 . S
N521 Mn505 2.282 . S
N521 C522 1.328 . S
N521 C526 1.318 . S
C522 N521 1.328 . S
C522 C523 1.457 . S
C522 H527 0.929 . S
C523 C522 1.457 . S
C523 C524 1.291 . S
C523 H536 0.931 . S
C524 C523 1.291 . S
C524 C525 1.373 . S
C524 H537 0.929 . S
C525 C524 1.373 . S
C525 C526 1.396 . S
C525 C532 1.403 . S
C526 C516 1.476 . S
C526 N521 1.318 . S
C526 C525 1.396 . S
H527 C522 0.929 . S
O528 Mn504 2.385 . S
O528 C506 1.234 . S
O529 Mn504 2.209 . S
O529 Mn505 2.215 . S
O529 C506 1.283 . S
O530 Mn504 2.094 . S
O530 C508 1.240 . S
O531 Mn505 2.117 . S
O531 C508 1.264 . S
C532 C525 1.403 . S
C532 C533 1.399 . S
C532 H538 0.929 . S
C533 C513 1.449 . S
C533 C532 1.399 . S
C533 H539 0.930 . S
H534 C514 0.931 . S
H535 C515 0.930 . S
H536 C523 0.931 . S
H537 C524 0.929 . S
H538 C532 0.929 . S
H539 C533 0.930 . S
Mn540 O545 2.095 . S
Mn540 O555 2.162 . S
Mn540 O556 2.297 . S
Mn540 O564 2.385 . S
Mn540 O565 2.209 . S
Mn540 O566 2.094 . S
Mn541 O546 2.121 . S
Mn541 N548 2.257 . S
Mn541 N557 2.282 . S
Mn541 O565 2.215 . S
Mn541 O567 2.117 . S
C542 O564 1.234 . S
C542 O565 1.283 . S
C543 O555 1.281 . S
C543 O556 1.236 . S
C544 O566 1.240 . S
C544 O567 1.264 . S
O545 Mn540 2.095 . S
O545 C554 1.250 . S
O546 Mn541 2.121 . S
O546 C554 1.258 . S
C547 N548 1.326 . S
C547 C551 1.460 . S
C547 H553 0.929 . S
N548 Mn541 2.257 . S
N548 C547 1.326 . S
N548 C552 1.362 . S
C549 C550 1.258 . S
C549 C552 1.431 . S
C549 C569 1.449 . S
C550 C549 1.258 . S
C550 C551 1.477 . S
C550 H570 0.931 . S
C551 C547 1.460 . S
C551 C550 1.477 . S
C551 H571 0.930 . S
C552 N548 1.362 . S
C552 C549 1.431 . S
C552 C562 1.476 . S
H553 C547 0.929 . S
C554 O545 1.250 . S
C554 O546 1.258 . S
O555 Mn540 2.162 . S
O555 C543 1.281 . S
O556 Mn540 2.297 . S
O556 C543 1.236 . S
N557 Mn541 2.282 . S
N557 C558 1.328 . S
N557 C562 1.318 . S
C558 N557 1.328 . S
C558 C559 1.457 . S
C558 H563 0.929 . S
C559 C558 1.457 . S
C559 C560 1.291 . S
C559 H572 0.931 . S
C560 C559 1.291 . S
C560 C561 1.373 . S
C560 H573 0.929 . S
C561 C560 1.373 . S
C561 C562 1.396 . S
C561 C568 1.403 . S
C562 C552 1.476 . S
C562 N557 1.318 . S
C562 C561 1.396 . S
H563 C558 0.929 . S
O564 Mn540 2.385 . S
O564 C542 1.234 . S
O565 Mn540 2.209 . S
O565 Mn541 2.215 . S
O565 C542 1.283 . S
O566 Mn540 2.094 . S
O566 C544 1.240 . S
O567 Mn541 2.117 . S
O567 C544 1.264 . S
C568 C561 1.403 . S
C568 C569 1.399 . S
C568 H574 0.929 . S
C569 C549 1.449 . S
C569 C568 1.399 . S
C569 H575 0.930 . S
H570 C550 0.931 . S
H571 C551 0.930 . S
H572 C559 0.931 . S
H573 C560 0.929 . S
H574 C568 0.929 . S
H575 C569 0.930 . S
Mn576 O581 2.095 . S
Mn576 O591 2.162 . S
Mn576 O592 2.297 . S
Mn576 O600 2.385 . S
Mn576 O601 2.209 . S
Mn576 O602 2.094 . S
Mn577 O582 2.121 . S
Mn577 N584 2.257 . S
Mn577 N593 2.282 . S
Mn577 O601 2.215 . S
Mn577 O603 2.117 . S
C578 O600 1.234 . S
C578 O601 1.283 . S
C579 O591 1.281 . S
C579 O592 1.236 . S
C580 O602 1.240 . S
C580 O603 1.264 . S
O581 Mn576 2.095 . S
O581 C590 1.250 . S
O582 Mn577 2.121 . S
O582 C590 1.258 . S
C583 N584 1.326 . S
C583 C587 1.460 . S
C583 H589 0.929 . S
N584 Mn577 2.257 . S
N584 C583 1.326 . S
N584 C588 1.362 . S
C585 C586 1.258 . S
C585 C588 1.431 . S
C585 C605 1.449 . S
C586 C585 1.258 . S
C586 C587 1.477 . S
C586 H606 0.931 . S
C587 C583 1.460 . S
C587 C586 1.477 . S
C587 H607 0.930 . S
C588 N584 1.362 . S
C588 C585 1.431 . S
C588 C598 1.476 . S
H589 C583 0.929 . S
C590 O581 1.250 . S
C590 O582 1.258 . S
O591 Mn576 2.162 . S
O591 C579 1.281 . S
O592 Mn576 2.297 . S
O592 C579 1.236 . S
N593 Mn577 2.282 . S
N593 C594 1.328 . S
N593 C598 1.318 . S
C594 N593 1.328 . S
C594 C595 1.457 . S
C594 H599 0.929 . S
C595 C594 1.457 . S
C595 C596 1.291 . S
C595 H608 0.931 . S
C596 C595 1.291 . S
C596 C597 1.373 . S
C596 H609 0.929 . S
C597 C596 1.373 . S
C597 C598 1.396 . S
C597 C604 1.403 . S
C598 C588 1.476 . S
C598 N593 1.318 . S
C598 C597 1.396 . S
H599 C594 0.929 . S
O600 Mn576 2.385 . S
O600 C578 1.234 . S
O601 Mn576 2.209 . S
O601 Mn577 2.215 . S
O601 C578 1.283 . S
O602 Mn576 2.094 . S
O602 C580 1.240 . S
O603 Mn577 2.117 . S
O603 C580 1.264 . S
C604 C597 1.403 . S
C604 C605 1.399 . S
C604 H610 0.929 . S
C605 C585 1.449 . S
C605 C604 1.399 . S
C605 H611 0.930 . S
H606 C586 0.931 . S
H607 C587 0.930 . S
H608 C595 0.931 . S
H609 C596 0.929 . S
H610 C604 0.929 . S
H611 C605 0.930 . S
Mn612 O617 2.095 . S
Mn612 O627 2.162 . S
Mn612 O628 2.297 . S
Mn612 O636 2.385 . S
Mn612 O637 2.209 . S
Mn612 O638 2.094 . S
Mn613 O618 2.121 . S
Mn613 N620 2.257 . S
Mn613 N629 2.282 . S
Mn613 O637 2.215 . S
Mn613 O639 2.117 . S
C614 O636 1.234 . S
C614 O637 1.283 . S
C615 O627 1.281 . S
C615 O628 1.236 . S
C616 O638 1.240 . S
C616 O639 1.264 . S
O617 Mn612 2.095 . S
O617 C626 1.250 . S
O618 Mn613 2.121 . S
O618 C626 1.258 . S
C619 N620 1.326 . S
C619 C623 1.460 . S
C619 H625 0.929 . S
N620 Mn613 2.257 . S
N620 C619 1.326 . S
N620 C624 1.362 . S
C621 C622 1.258 . S
C621 C624 1.431 . S
C621 C641 1.449 . S
C622 C621 1.258 . S
C622 C623 1.477 . S
C622 H642 0.931 . S
C623 C619 1.460 . S
C623 C622 1.477 . S
C623 H643 0.930 . S
C624 N620 1.362 . S
C624 C621 1.431 . S
C624 C634 1.476 . S
H625 C619 0.929 . S
C626 O617 1.250 . S
C626 O618 1.258 . S
O627 Mn612 2.162 . S
O627 C615 1.281 . S
O628 Mn612 2.297 . S
O628 C615 1.236 . S
N629 Mn613 2.282 . S
N629 C630 1.328 . S
N629 C634 1.318 . S
C630 N629 1.328 . S
C630 C631 1.457 . S
C630 H635 0.929 . S
C631 C630 1.457 . S
C631 C632 1.291 . S
C631 H644 0.931 . S
C632 C631 1.291 . S
C632 C633 1.373 . S
C632 H645 0.929 . S
C633 C632 1.373 . S
C633 C634 1.396 . S
C633 C640 1.403 . S
C634 C624 1.476 . S
C634 N629 1.318 . S
C634 C633 1.396 . S
H635 C630 0.929 . S
O636 Mn612 2.385 . S
O636 C614 1.234 . S
O637 Mn612 2.209 . S
O637 Mn613 2.215 . S
O637 C614 1.283 . S
O638 Mn612 2.094 . S
O638 C616 1.240 . S
O639 Mn613 2.117 . S
O639 C616 1.264 . S
C640 C633 1.403 . S
C640 C641 1.399 . S
C640 H646 0.929 . S
C641 C621 1.449 . S
C641 C640 1.399 . S
C641 H647 0.930 . S
H642 C622 0.931 . S
H643 C623 0.930 . S
H644 C631 0.931 . S
H645 C632 0.929 . S
H646 C640 0.929 . S
H647 C641 0.930 . S
Mn648 O653 2.095 . S
Mn648 O663 2.162 . S
Mn648 O664 2.297 . S
Mn648 O672 2.385 . S
Mn648 O673 2.209 . S
Mn648 O674 2.094 . S
Mn649 O654 2.121 . S
Mn649 N656 2.257 . S
Mn649 N665 2.282 . S
Mn649 O673 2.215 . S
Mn649 O675 2.117 . S
C650 O672 1.234 . S
C650 O673 1.283 . S
C651 O663 1.281 . S
C651 O664 1.236 . S
C652 O674 1.240 . S
C652 O675 1.264 . S
O653 Mn648 2.095 . S
O653 C662 1.250 . S
O654 Mn649 2.121 . S
O654 C662 1.258 . S
C655 N656 1.326 . S
C655 C659 1.460 . S
C655 H661 0.929 . S
N656 Mn649 2.257 . S
N656 C655 1.326 . S
N656 C660 1.362 . S
C657 C658 1.258 . S
C657 C660 1.431 . S
C657 C677 1.449 . S
C658 C657 1.258 . S
C658 C659 1.477 . S
C658 H678 0.931 . S
C659 C655 1.460 . S
C659 C658 1.477 . S
C659 H679 0.930 . S
C660 N656 1.362 . S
C660 C657 1.431 . S
C660 C670 1.476 . S
H661 C655 0.929 . S
C662 O653 1.250 . S
C662 O654 1.258 . S
O663 Mn648 2.162 . S
O663 C651 1.281 . S
O664 Mn648 2.297 . S
O664 C651 1.236 . S
N665 Mn649 2.282 . S
N665 C666 1.328 . S
N665 C670 1.318 . S
C666 N665 1.328 . S
C666 C667 1.457 . S
C666 H671 0.929 . S
C667 C666 1.457 . S
C667 C668 1.291 . S
C667 H680 0.931 . S
C668 C667 1.291 . S
C668 C669 1.373 . S
C668 H681 0.929 . S
C669 C668 1.373 . S
C669 C670 1.396 . S
C669 C676 1.403 . S
C670 C660 1.476 . S
C670 N665 1.318 . S
C670 C669 1.396 . S
H671 C666 0.929 . S
O672 Mn648 2.385 . S
O672 C650 1.234 . S
O673 Mn648 2.209 . S
O673 Mn649 2.215 . S
O673 C650 1.283 . S
O674 Mn648 2.094 . S
O674 C652 1.240 . S
O675 Mn649 2.117 . S
O675 C652 1.264 . S
C676 C669 1.403 . S
C676 C677 1.399 . S
C676 H682 0.929 . S
C677 C657 1.449 . S
C677 C676 1.399 . S
C677 H683 0.930 . S
H678 C658 0.931 . S
H679 C659 0.930 . S
H680 C667 0.931 . S
H681 C668 0.929 . S
H682 C676 0.929 . S
H683 C677 0.930 . S
Mn684 O689 2.095 . S
Mn684 O699 2.162 . S
Mn684 O700 2.297 . S
Mn684 O708 2.385 . S
Mn684 O709 2.209 . S
Mn684 O710 2.094 . S
Mn685 O690 2.121 . S
Mn685 N692 2.257 . S
Mn685 N701 2.282 . S
Mn685 O709 2.215 . S
Mn685 O711 2.117 . S
C686 O708 1.234 . S
C686 O709 1.283 . S
C687 O699 1.281 . S
C687 O700 1.236 . S
C688 O710 1.240 . S
C688 O711 1.264 . S
O689 Mn684 2.095 . S
O689 C698 1.250 . S
O690 Mn685 2.121 . S
O690 C698 1.258 . S
C691 N692 1.326 . S
C691 C695 1.460 . S
C691 H697 0.929 . S
N692 Mn685 2.257 . S
N692 C691 1.326 . S
N692 C696 1.362 . S
C693 C694 1.258 . S
C693 C696 1.431 . S
C693 C713 1.449 . S
C694 C693 1.258 . S
C694 C695 1.477 . S
C694 H714 0.931 . S
C695 C691 1.460 . S
C695 C694 1.477 . S
C695 H715 0.930 . S
C696 N692 1.362 . S
C696 C693 1.431 . S
C696 C706 1.476 . S
H697 C691 0.929 . S
C698 O689 1.250 . S
C698 O690 1.258 . S
O699 Mn684 2.162 . S
O699 C687 1.281 . S
O700 Mn684 2.297 . S
O700 C687 1.236 . S
N701 Mn685 2.282 . S
N701 C702 1.328 . S
N701 C706 1.318 . S
C702 N701 1.328 . S
C702 C703 1.457 . S
C702 H707 0.929 . S
C703 C702 1.457 . S
C703 C704 1.291 . S
C703 H716 0.931 . S
C704 C703 1.291 . S
C704 C705 1.373 . S
C704 H717 0.929 . S
C705 C704 1.373 . S
C705 C706 1.396 . S
C705 C712 1.403 . S
C706 C696 1.476 . S
C706 N701 1.318 . S
C706 C705 1.396 . S
H707 C702 0.929 . S
O708 Mn684 2.385 . S
O708 C686 1.234 . S
O709 Mn684 2.209 . S
O709 Mn685 2.215 . S
O709 C686 1.283 . S
O710 Mn684 2.094 . S
O710 C688 1.240 . S
O711 Mn685 2.117 . S
O711 C688 1.264 . S
C712 C705 1.403 . S
C712 C713 1.399 . S
C712 H718 0.929 . S
C713 C693 1.449 . S
C713 C712 1.399 . S
C713 H719 0.930 . S
H714 C694 0.931 . S
H715 C695 0.930 . S
H716 C703 0.931 . S
H717 C704 0.929 . S
H718 C712 0.929 . S
H719 C713 0.930 . S
Mn720 O725 2.095 . S
Mn720 O735 2.162 . S
Mn720 O736 2.297 . S
Mn720 O744 2.385 . S
Mn720 O745 2.209 . S
Mn720 O746 2.094 . S
Mn721 O726 2.121 . S
Mn721 N728 2.257 . S
Mn721 N737 2.282 . S
Mn721 O745 2.215 . S
Mn721 O747 2.117 . S
C722 O744 1.234 . S
C722 O745 1.283 . S
C723 O735 1.281 . S
C723 O736 1.236 . S
C724 O746 1.240 . S
C724 O747 1.264 . S
O725 Mn720 2.095 . S
O725 C734 1.250 . S
O726 Mn721 2.121 . S
O726 C734 1.258 . S
C727 N728 1.326 . S
C727 C731 1.460 . S
C727 H733 0.929 . S
N728 Mn721 2.257 . S
N728 C727 1.326 . S
N728 C732 1.362 . S
C729 C730 1.258 . S
C729 C732 1.431 . S
C729 C749 1.449 . S
C730 C729 1.258 . S
C730 C731 1.477 . S
C730 H750 0.931 . S
C731 C727 1.460 . S
C731 C730 1.477 . S
C731 H751 0.930 . S
C732 N728 1.362 . S
C732 C729 1.431 . S
C732 C742 1.476 . S
H733 C727 0.929 . S
C734 O725 1.250 . S
C734 O726 1.258 . S
O735 Mn720 2.162 . S
O735 C723 1.281 . S
O736 Mn720 2.297 . S
O736 C723 1.236 . S
N737 Mn721 2.282 . S
N737 C738 1.328 . S
N737 C742 1.318 . S
C738 N737 1.328 . S
C738 C739 1.457 . S
C738 H743 0.929 . S
C739 C738 1.457 . S
C739 C740 1.291 . S
C739 H752 0.931 . S
C740 C739 1.291 . S
C740 C741 1.373 . S
C740 H753 0.929 . S
C741 C740 1.373 . S
C741 C742 1.396 . S
C741 C748 1.403 . S
C742 C732 1.476 . S
C742 N737 1.318 . S
C742 C741 1.396 . S
H743 C738 0.929 . S
O744 Mn720 2.385 . S
O744 C722 1.234 . S
O745 Mn720 2.209 . S
O745 Mn721 2.215 . S
O745 C722 1.283 . S
O746 Mn720 2.094 . S
O746 C724 1.240 . S
O747 Mn721 2.117 . S
O747 C724 1.264 . S
C748 C741 1.403 . S
C748 C749 1.399 . S
C748 H754 0.929 . S
C749 C729 1.449 . S
C749 C748 1.399 . S
C749 H755 0.930 . S
H750 C730 0.931 . S
H751 C731 0.930 . S
H752 C739 0.931 . S
H753 C740 0.929 . S
H754 C748 0.929 . S
H755 C749 0.930 . S
Mn756 O761 2.095 . S
Mn756 O771 2.162 . S
Mn756 O772 2.297 . S
Mn756 O780 2.385 . S
Mn756 O781 2.209 . S
Mn756 O782 2.094 . S
Mn757 O762 2.121 . S
Mn757 N764 2.257 . S
Mn757 N773 2.282 . S
Mn757 O781 2.215 . S
Mn757 O783 2.117 . S
C758 O780 1.234 . S
C758 O781 1.283 . S
C759 O771 1.281 . S
C759 O772 1.236 . S
C760 O782 1.240 . S
C760 O783 1.264 . S
O761 Mn756 2.095 . S
O761 C770 1.250 . S
O762 Mn757 2.121 . S
O762 C770 1.258 . S
C763 N764 1.326 . S
C763 C767 1.460 . S
C763 H769 0.929 . S
N764 Mn757 2.257 . S
N764 C763 1.326 . S
N764 C768 1.362 . S
C765 C766 1.258 . S
C765 C768 1.431 . S
C765 C785 1.449 . S
C766 C765 1.258 . S
C766 C767 1.477 . S
C766 H786 0.931 . S
C767 C763 1.460 . S
C767 C766 1.477 . S
C767 H787 0.930 . S
C768 N764 1.362 . S
C768 C765 1.431 . S
C768 C778 1.476 . S
H769 C763 0.929 . S
C770 O761 1.250 . S
C770 O762 1.258 . S
O771 Mn756 2.162 . S
O771 C759 1.281 . S
O772 Mn756 2.297 . S
O772 C759 1.236 . S
N773 Mn757 2.282 . S
N773 C774 1.328 . S
N773 C778 1.318 . S
C774 N773 1.328 . S
C774 C775 1.457 . S
C774 H779 0.929 . S
C775 C774 1.457 . S
C775 C776 1.291 . S
C775 H788 0.931 . S
C776 C775 1.291 . S
C776 C777 1.373 . S
C776 H789 0.929 . S
C777 C776 1.373 . S
C777 C778 1.396 . S
C777 C784 1.403 . S
C778 C768 1.476 . S
C778 N773 1.318 . S
C778 C777 1.396 . S
H779 C774 0.929 . S
O780 Mn756 2.385 . S
O780 C758 1.234 . S
O781 Mn756 2.209 . S
O781 Mn757 2.215 . S
O781 C758 1.283 . S
O782 Mn756 2.094 . S
O782 C760 1.240 . S
O783 Mn757 2.117 . S
O783 C760 1.264 . S
C784 C777 1.403 . S
C784 C785 1.399 . S
C784 H790 0.929 . S
C785 C765 1.449 . S
C785 C784 1.399 . S
C785 H791 0.930 . S
H786 C766 0.931 . S
H787 C767 0.930 . S
H788 C775 0.931 . S
H789 C776 0.929 . S
H790 C784 0.929 . S
H791 C785 0.930 . S
Mn792 O797 2.095 . S
Mn792 O807 2.162 . S
Mn792 O808 2.297 . S
Mn792 O816 2.385 . S
Mn792 O817 2.209 . S
Mn792 O818 2.094 . S
Mn793 O798 2.121 . S
Mn793 N800 2.257 . S
Mn793 N809 2.282 . S
Mn793 O817 2.215 . S
Mn793 O819 2.117 . S
C794 O816 1.234 . S
C794 O817 1.283 . S
C795 O807 1.281 . S
C795 O808 1.236 . S
C796 O818 1.240 . S
C796 O819 1.264 . S
O797 Mn792 2.095 . S
O797 C806 1.250 . S
O798 Mn793 2.121 . S
O798 C806 1.258 . S
C799 N800 1.326 . S
C799 C803 1.460 . S
C799 H805 0.929 . S
N800 Mn793 2.257 . S
N800 C799 1.326 . S
N800 C804 1.362 . S
C801 C802 1.258 . S
C801 C804 1.431 . S
C801 C821 1.449 . S
C802 C801 1.258 . S
C802 C803 1.477 . S
C802 H822 0.931 . S
C803 C799 1.460 . S
C803 C802 1.477 . S
C803 H823 0.930 . S
C804 N800 1.362 . S
C804 C801 1.431 . S
C804 C814 1.476 . S
H805 C799 0.929 . S
C806 O797 1.250 . S
C806 O798 1.258 . S
O807 Mn792 2.162 . S
O807 C795 1.281 . S
O808 Mn792 2.297 . S
O808 C795 1.236 . S
N809 Mn793 2.282 . S
N809 C810 1.328 . S
N809 C814 1.318 . S
C810 N809 1.328 . S
C810 C811 1.457 . S
C810 H815 0.929 . S
C811 C810 1.457 . S
C811 C812 1.291 . S
C811 H824 0.931 . S
C812 C811 1.291 . S
C812 C813 1.373 . S
C812 H825 0.929 . S
C813 C812 1.373 . S
C813 C814 1.396 . S
C813 C820 1.403 . S
C814 C804 1.476 . S
C814 N809 1.318 . S
C814 C813 1.396 . S
H815 C810 0.929 . S
O816 Mn792 2.385 . S
O816 C794 1.234 . S
O817 Mn792 2.209 . S
O817 Mn793 2.215 . S
O817 C794 1.283 . S
O818 Mn792 2.094 . S
O818 C796 1.240 . S
O819 Mn793 2.117 . S
O819 C796 1.264 . S
C820 C813 1.403 . S
C820 C821 1.399 . S
C820 H826 0.929 . S
C821 C801 1.449 . S
C821 C820 1.399 . S
C821 H827 0.930 . S
H822 C802 0.931 . S
H823 C803 0.930 . S
H824 C811 0.931 . S
H825 C812 0.929 . S
H826 C820 0.929 . S
H827 C821 0.930 . S
Mn828 O833 2.095 . S
Mn828 O843 2.162 . S
Mn828 O844 2.297 . S
Mn828 O852 2.385 . S
Mn828 O853 2.209 . S
Mn828 O854 2.094 . S
Mn829 O834 2.121 . S
Mn829 N836 2.257 . S
Mn829 N845 2.282 . S
Mn829 O853 2.215 . S
Mn829 O855 2.117 . S
C830 O852 1.234 . S
C830 O853 1.283 . S
C831 O843 1.281 . S
C831 O844 1.236 . S
C832 O854 1.240 . S
C832 O855 1.264 . S
O833 Mn828 2.095 . S
O833 C842 1.250 . S
O834 Mn829 2.121 . S
O834 C842 1.258 . S
C835 N836 1.326 . S
C835 C839 1.460 . S
C835 H841 0.929 . S
N836 Mn829 2.257 . S
N836 C835 1.326 . S
N836 C840 1.362 . S
C837 C838 1.258 . S
C837 C840 1.431 . S
C837 C857 1.449 . S
C838 C837 1.258 . S
C838 C839 1.477 . S
C838 H858 0.931 . S
C839 C835 1.460 . S
C839 C838 1.477 . S
C839 H859 0.930 . S
C840 N836 1.362 . S
C840 C837 1.431 . S
C840 C850 1.476 . S
H841 C835 0.929 . S
C842 O833 1.250 . S
C842 O834 1.258 . S
O843 Mn828 2.162 . S
O843 C831 1.281 . S
O844 Mn828 2.297 . S
O844 C831 1.236 . S
N845 Mn829 2.282 . S
N845 C846 1.328 . S
N845 C850 1.318 . S
C846 N845 1.328 . S
C846 C847 1.457 . S
C846 H851 0.929 . S
C847 C846 1.457 . S
C847 C848 1.291 . S
C847 H860 0.931 . S
C848 C847 1.291 . S
C848 C849 1.373 . S
C848 H861 0.929 . S
C849 C848 1.373 . S
C849 C850 1.396 . S
C849 C856 1.403 . S
C850 C840 1.476 . S
C850 N845 1.318 . S
C850 C849 1.396 . S
H851 C846 0.929 . S
O852 Mn828 2.385 . S
O852 C830 1.234 . S
O853 Mn828 2.209 . S
O853 Mn829 2.215 . S
O853 C830 1.283 . S
O854 Mn828 2.094 . S
O854 C832 1.240 . S
O855 Mn829 2.117 . S
O855 C832 1.264 . S
C856 C849 1.403 . S
C856 C857 1.399 . S
C856 H862 0.929 . S
C857 C837 1.449 . S
C857 C856 1.399 . S
C857 H863 0.930 . S
H858 C838 0.931 . S
H859 C839 0.930 . S
H860 C847 0.931 . S
H861 C848 0.929 . S
H862 C856 0.929 . S
H863 C857 0.930 . S
H864 C876 0.930 . S
H865 C878 0.930 . S
H866 C879 0.930 . S
H867 C883 0.959 . S
H868 C883 0.959 . S
H869 C883 0.961 . S
H870 C884 0.960 . S
H871 C884 0.961 . S
H872 C884 0.959 . S
H873 C887 0.929 . S
H874 C888 0.931 . S
H875 C890 0.930 . S
C876 H864 0.930 . S
C876 C877 1.399 . S
C876 C881 1.399 . S
C877 C876 1.399 . S
C877 C878 1.376 . S
C878 H865 0.930 . S
C878 C877 1.376 . S
C878 C879 1.388 . S
C879 H866 0.930 . S
C879 C878 1.388 . S
C879 C880 1.390 . S
C880 C879 1.390 . S
C880 C881 1.394 . S
C880 C886 1.465 . S
C881 C876 1.399 . S
C881 C880 1.394 . S
C881 C882 1.516 . S
C882 C881 1.516 . S
C882 C883 1.502 . S
C882 C884 1.561 . S
C882 C885 1.526 . S
C883 H867 0.959 . S
C883 H868 0.959 . S
C883 H869 0.961 . S
C883 C882 1.502 . S
C884 H870 0.960 . S
C884 H871 0.961 . S
C884 H872 0.959 . S
C884 C882 1.561 . S
C885 C882 1.526 . S
C885 C886 1.396 . S
C885 C890 1.390 . S
C886 C880 1.465 . S
C886 C885 1.396 . S
C886 C887 1.399 . S
C887 H873 0.929 . S
C887 C886 1.399 . S
C887 C888 1.385 . S
C888 H874 0.931 . S
C888 C887 1.385 . S
C888 C889 1.389 . S
C889 C888 1.389 . S
C889 C890 1.387 . S
C890 H875 0.930 . S
C890 C885 1.390 . S
C890 C889 1.387 . S
H891 C903 0.930 . S
H892 C905 0.930 . S
H893 C906 0.930 . S
H894 C910 0.959 . S
H895 C910 0.959 . S
H896 C910 0.961 1_655 S
H897 C911 0.960 1_655 S
H898 C911 0.961 . S
H899 C911 0.959 . S
H900 C914 0.929 . S
H901 C915 0.931 . S
H902 C917 0.930 . S
C903 H891 0.930 . S
C903 C904 1.399 . S
C903 C908 1.399 . S
C904 C903 1.399 . S
C904 C905 1.376 . S
C905 H892 0.930 . S
C905 C904 1.376 . S
C905 C906 1.388 . S
C906 H893 0.930 . S
C906 C905 1.388 . S
C906 C907 1.390 . S
C907 C906 1.390 . S
C907 C908 1.394 . S
C907 C913 1.465 1_655 S
C908 C903 1.399 . S
C908 C907 1.394 . S
C908 C909 1.516 1_655 S
C909 C908 1.516 1_455 S
C909 C910 1.502 . S
C909 C911 1.561 . S
C909 C912 1.526 . S
C910 H894 0.959 . S
C910 H895 0.959 . S
C910 H896 0.961 1_455 S
C910 C909 1.502 . S
C911 H897 0.960 1_455 S
C911 H898 0.961 . S
C911 H899 0.959 . S
C911 C909 1.561 . S
C912 C909 1.526 . S
C912 C913 1.396 . S
C912 C917 1.390 . S
C913 C907 1.465 1_455 S
C913 C912 1.396 . S
C913 C914 1.399 . S
C914 H900 0.929 . S
C914 C913 1.399 . S
C914 C915 1.385 . S
C915 H901 0.931 . S
C915 C914 1.385 . S
C915 C916 1.389 . S
C916 C915 1.389 . S
C916 C917 1.387 . S
C917 H902 0.930 . S
C917 C912 1.390 . S
C917 C916 1.387 . S
H918 C930 0.930 . S
H919 C932 0.930 . S
H920 C933 0.930 . S
H921 C937 0.959 . S
H922 C937 0.959 . S
H923 C937 0.961 . S
H924 C938 0.960 . S
H925 C938 0.961 . S
H926 C938 0.959 . S
H927 C941 0.929 . S
H928 C942 0.931 . S
H929 C944 0.930 . S
C930 H918 0.930 . S
C930 C931 1.399 . S
C930 C935 1.399 . S
C931 C930 1.399 . S
C931 C932 1.376 . S
C932 H919 0.930 . S
C932 C931 1.376 . S
C932 C933 1.388 . S
C933 H920 0.930 . S
C933 C932 1.388 . S
C933 C934 1.390 . S
C934 C933 1.390 . S
C934 C935 1.394 . S
C934 C940 1.465 . S
C935 C930 1.399 . S
C935 C934 1.394 . S
C935 C936 1.516 . S
C936 C935 1.516 . S
C936 C937 1.502 . S
C936 C938 1.561 . S
C936 C939 1.526 . S
C937 H921 0.959 . S
C937 H922 0.959 . S
C937 H923 0.961 . S
C937 C936 1.502 . S
C938 H924 0.960 . S
C938 H925 0.961 . S
C938 H926 0.959 . S
C938 C936 1.561 . S
C939 C936 1.526 . S
C939 C940 1.396 . S
C939 C944 1.390 . S
C940 C934 1.465 . S
C940 C939 1.396 . S
C940 C941 1.399 . S
C941 H927 0.929 . S
C941 C940 1.399 . S
C941 C942 1.385 . S
C942 H928 0.931 . S
C942 C941 1.385 . S
C942 C943 1.389 . S
C943 C942 1.389 . S
C943 C944 1.387 . S
C944 H929 0.930 . S
C944 C939 1.390 . S
C944 C943 1.387 . S
H945 C957 0.930 . S
H946 C959 0.930 . S
H947 C960 0.930 . S
H948 C964 0.959 . S
H949 C964 0.959 . S
H950 C964 0.961 1_455 S
H951 C965 0.960 1_455 S
H952 C965 0.961 . S
H953 C965 0.959 . S
H954 C968 0.929 . S
H955 C969 0.931 . S
H956 C971 0.930 . S
C957 H945 0.930 . S
C957 C958 1.399 . S
C957 C962 1.399 . S
C958 C957 1.399 . S
C958 C959 1.376 . S
C959 H946 0.930 . S
C959 C958 1.376 . S
C959 C960 1.388 . S
C960 H947 0.930 . S
C960 C959 1.388 . S
C960 C961 1.390 . S
C961 C960 1.390 . S
C961 C962 1.394 . S
C961 C967 1.465 1_455 S
C962 C957 1.399 . S
C962 C961 1.394 . S
C962 C963 1.516 1_455 S
C963 C962 1.516 1_655 S
C963 C964 1.502 . S
C963 C965 1.561 . S
C963 C966 1.526 . S
C964 H948 0.959 . S
C964 H949 0.959 . S
C964 H950 0.961 1_655 S
C964 C963 1.502 . S
C965 H951 0.960 1_655 S
C965 H952 0.961 . S
C965 H953 0.959 . S
C965 C963 1.561 . S
C966 C963 1.526 . S
C966 C967 1.396 . S
C966 C971 1.390 . S
C967 C961 1.465 1_655 S
C967 C966 1.396 . S
C967 C968 1.399 . S
C968 H954 0.929 . S
C968 C967 1.399 . S
C968 C969 1.385 . S
C969 H955 0.931 . S
C969 C968 1.385 . S
C969 C970 1.389 . S
C970 C969 1.389 . S
C970 C971 1.387 . S
C971 H956 0.930 . S
C971 C966 1.390 . S
C971 C970 1.387 . S
H972 C984 0.930 . S
H973 C986 0.930 . S
H974 C987 0.930 . S
H975 C991 0.959 . S
H976 C991 0.959 . S
H977 C991 0.961 . S
H978 C992 0.960 . S
H979 C992 0.961 . S
H980 C992 0.959 . S
H981 C995 0.929 . S
H982 C996 0.931 . S
H983 C998 0.930 . S
C984 H972 0.930 . S
C984 C985 1.399 . S
C984 C989 1.399 . S
C985 C984 1.399 . S
C985 C986 1.376 . S
C986 H973 0.930 . S
C986 C985 1.376 . S
C986 C987 1.388 . S
C987 H974 0.930 . S
C987 C986 1.388 . S
C987 C988 1.390 . S
C988 C987 1.390 . S
C988 C989 1.394 . S
C988 C994 1.465 . S
C989 C984 1.399 . S
C989 C988 1.394 . S
C989 C990 1.516 . S
C990 C989 1.516 . S
C990 C991 1.502 . S
C990 C992 1.561 . S
C990 C993 1.526 . S
C991 H975 0.959 . S
C991 H976 0.959 . S
C991 H977 0.961 . S
C991 C990 1.502 . S
C992 H978 0.960 . S
C992 H979 0.961 . S
C992 H980 0.959 . S
C992 C990 1.561 . S
C993 C990 1.526 . S
C993 C994 1.396 . S
C993 C998 1.390 . S
C994 C988 1.465 . S
C994 C993 1.396 . S
C994 C995 1.399 . S
C995 H981 0.929 . S
C995 C994 1.399 . S
C995 C996 1.385 . S
C996 H982 0.931 . S
C996 C995 1.385 . S
C996 C997 1.389 . S
C997 C996 1.389 . S
C997 C998 1.387 . S
C998 H983 0.930 . S
C998 C993 1.390 . S
C998 C997 1.387 . S
H999 C1011 0.930 . S
H1000 C1013 0.930 . S
H1001 C1014 0.930 . S
H1002 C1018 0.959 . S
H1003 C1018 0.959 . S
H1004 C1018 0.961 1_655 S
H1005 C1019 0.960 1_655 S
H1006 C1019 0.961 . S
H1007 C1019 0.959 . S
H1008 C1022 0.929 . S
H1009 C1023 0.931 . S
H1010 C1025 0.930 . S
C1011 H999 0.930 . S
C1011 C1012 1.399 . S
C1011 C1016 1.399 . S
C1012 C1011 1.399 . S
C1012 C1013 1.376 . S
C1013 H1000 0.930 . S
C1013 C1012 1.376 . S
C1013 C1014 1.388 . S
C1014 H1001 0.930 . S
C1014 C1013 1.388 . S
C1014 C1015 1.390 1_655 S
C1015 C1014 1.390 1_455 S
C1015 C1016 1.394 1_455 S
C1015 C1021 1.465 . S
C1016 C1011 1.399 . S
C1016 C1015 1.394 1_655 S
C1016 C1017 1.516 1_655 S
C1017 C1016 1.516 1_455 S
C1017 C1018 1.502 . S
C1017 C1019 1.561 . S
C1017 C1020 1.526 . S
C1018 H1002 0.959 . S
C1018 H1003 0.959 . S
C1018 H1004 0.961 1_455 S
C1018 C1017 1.502 . S
C1019 H1005 0.960 1_455 S
C1019 H1006 0.961 . S
C1019 H1007 0.959 . S
C1019 C1017 1.561 . S
C1020 C1017 1.526 . S
C1020 C1021 1.396 . S
C1020 C1025 1.390 . S
C1021 C1015 1.465 . S
C1021 C1020 1.396 . S
C1021 C1022 1.399 . S
C1022 H1008 0.929 . S
C1022 C1021 1.399 . S
C1022 C1023 1.385 . S
C1023 H1009 0.931 . S
C1023 C1022 1.385 . S
C1023 C1024 1.389 . S
C1024 C1023 1.389 . S
C1024 C1025 1.387 . S
C1025 H1010 0.930 . S
C1025 C1020 1.390 . S
C1025 C1024 1.387 . S
H1026 C1038 0.930 . S
H1027 C1040 0.930 . S
H1028 C1041 0.930 . S
H1029 C1045 0.959 . S
H1030 C1045 0.959 . S
H1031 C1045 0.961 . S
H1032 C1046 0.960 . S
H1033 C1046 0.961 . S
H1034 C1046 0.959 . S
H1035 C1049 0.929 . S
H1036 C1050 0.931 . S
H1037 C1052 0.930 . S
C1038 H1026 0.930 . S
C1038 C1039 1.399 . S
C1038 C1043 1.399 . S
C1039 C1038 1.399 . S
C1039 C1040 1.376 . S
C1040 H1027 0.930 . S
C1040 C1039 1.376 . S
C1040 C1041 1.388 . S
C1041 H1028 0.930 . S
C1041 C1040 1.388 . S
C1041 C1042 1.390 . S
C1042 C1041 1.390 . S
C1042 C1043 1.394 . S
C1042 C1048 1.465 . S
C1043 C1038 1.399 . S
C1043 C1042 1.394 . S
C1043 C1044 1.516 . S
C1044 C1043 1.516 . S
C1044 C1045 1.502 . S
C1044 C1046 1.561 . S
C1044 C1047 1.526 . S
C1045 H1029 0.959 . S
C1045 H1030 0.959 . S
C1045 H1031 0.961 . S
C1045 C1044 1.502 . S
C1046 H1032 0.960 . S
C1046 H1033 0.961 . S
C1046 H1034 0.959 . S
C1046 C1044 1.561 . S
C1047 C1044 1.526 . S
C1047 C1048 1.396 . S
C1047 C1052 1.390 . S
C1048 C1042 1.465 . S
C1048 C1047 1.396 . S
C1048 C1049 1.399 . S
C1049 H1035 0.929 . S
C1049 C1048 1.399 . S
C1049 C1050 1.385 . S
C1050 H1036 0.931 . S
C1050 C1049 1.385 . S
C1050 C1051 1.389 . S
C1051 C1050 1.389 . S
C1051 C1052 1.387 . S
C1052 H1037 0.930 . S
C1052 C1047 1.390 . S
C1052 C1051 1.387 . S
H1053 C1065 0.930 . S
H1054 C1067 0.930 . S
H1055 C1068 0.930 . S
H1056 C1072 0.959 . S
H1057 C1072 0.959 1_455 S
H1058 C1072 0.961 . S
H1059 C1073 0.960 . S
H1060 C1073 0.961 1_455 S
H1061 C1073 0.959 . S
H1062 C1076 0.929 . S
H1063 C1077 0.931 . S
H1064 C1079 0.930 . S
C1065 H1053 0.930 . S
C1065 C1066 1.399 . S
C1065 C1070 1.399 . S
C1066 C1065 1.399 . S
C1066 C1067 1.376 . S
C1067 H1054 0.930 . S
C1067 C1066 1.376 . S
C1067 C1068 1.388 . S
C1068 H1055 0.930 . S
C1068 C1067 1.388 . S
C1068 C1069 1.390 . S
C1069 C1068 1.390 . S
C1069 C1070 1.394 . S
C1069 C1075 1.420 1_655 S
C1070 C1065 1.399 . S
C1070 C1069 1.394 . S
C1070 C1071 1.516 . S
C1071 C1070 1.516 . S
C1071 C1072 1.502 . S
C1071 C1073 1.561 . S
C1071 C1074 1.526 1_655 S
C1072 H1056 0.959 . S
C1072 H1057 0.959 1_655 S
C1072 H1058 0.961 . S
C1072 C1071 1.502 . S
C1073 H1059 0.960 . S
C1073 H1060 0.961 1_655 S
C1073 H1061 0.959 . S
C1073 C1071 1.561 . S
C1074 C1071 1.526 1_455 S
C1074 C1075 1.411 . S
C1074 C1079 1.390 . S
C1075 C1069 1.420 1_455 S
C1075 C1074 1.411 . S
C1075 C1076 1.429 . S
C1076 H1062 0.929 . S
C1076 C1075 1.429 . S
C1076 C1077 1.385 . S
C1077 H1063 0.931 . S
C1077 C1076 1.385 . S
C1077 C1078 1.389 . S
C1078 C1077 1.389 . S
C1078 C1079 1.387 . S
C1079 H1064 0.930 . S
C1079 C1074 1.390 . S
C1079 C1078 1.387 . S
H1080 C1092 0.930 . S
H1081 C1094 0.930 . S
H1082 C1095 0.930 . S
H1083 C1099 0.959 . S
H1084 C1099 0.959 . S
H1085 C1099 0.961 . S
H1086 C1100 0.960 . S
H1087 C1100 0.961 . S
H1088 C1100 0.959 . S
H1089 C1103 0.929 . S
H1090 C1104 0.931 . S
H1091 C1106 0.930 . S
C1092 H1080 0.930 . S
C1092 C1093 1.399 . S
C1092 C1097 1.399 . S
C1093 C1092 1.399 . S
C1093 C1094 1.376 . S
C1094 H1081 0.930 . S
C1094 C1093 1.376 . S
C1094 C1095 1.388 . S
C1095 H1082 0.930 . S
C1095 C1094 1.388 . S
C1095 C1096 1.390 . S
C1096 C1095 1.390 . S
C1096 C1097 1.394 . S
C1096 C1102 1.465 . S
C1097 C1092 1.399 . S
C1097 C1096 1.394 . S
C1097 C1098 1.516 . S
C1098 C1097 1.516 . S
C1098 C1099 1.502 . S
C1098 C1100 1.561 . S
C1098 C1101 1.526 . S
C1099 H1083 0.959 . S
C1099 H1084 0.959 . S
C1099 H1085 0.961 . S
C1099 C1098 1.502 . S
C1100 H1086 0.960 . S
C1100 H1087 0.961 . S
C1100 H1088 0.959 . S
C1100 C1098 1.561 . S
C1101 C1098 1.526 . S
C1101 C1102 1.396 . S
C1101 C1106 1.390 . S
C1102 C1096 1.465 . S
C1102 C1101 1.396 . S
C1102 C1103 1.399 . S
C1103 H1089 0.929 . S
C1103 C1102 1.399 . S
C1103 C1104 1.385 . S
C1104 H1090 0.931 . S
C1104 C1103 1.385 . S
C1104 C1105 1.389 . S
C1105 C1104 1.389 . S
C1105 C1106 1.387 . S
C1106 H1091 0.930 . S
C1106 C1101 1.390 . S
C1106 C1105 1.387 . S
H1107 C1119 0.930 . S
H1108 C1121 0.930 . S
H1109 C1122 0.930 . S
H1110 C1126 0.959 . S
H1111 C1126 0.959 1_554 S
H1112 C1126 0.961 . S
H1113 C1127 0.960 . S
H1114 C1127 0.961 1_554 S
H1115 C1127 0.959 . S
H1116 C1130 0.929 . S
H1117 C1131 0.931 . S
H1118 C1133 0.930 . S
C1119 H1107 0.930 . S
C1119 C1120 1.399 . S
C1119 C1124 1.399 . S
C1120 C1119 1.399 . S
C1120 C1121 1.376 . S
C1121 H1108 0.930 . S
C1121 C1120 1.376 . S
C1121 C1122 1.388 . S
C1122 H1109 0.930 . S
C1122 C1121 1.388 . S
C1122 C1123 1.390 . S
C1123 C1122 1.390 . S
C1123 C1124 1.394 . S
C1123 C1129 1.465 1_556 S
C1124 C1119 1.399 . S
C1124 C1123 1.394 . S
C1124 C1125 1.516 . S
C1125 C1124 1.516 . S
C1125 C1126 1.502 . S
C1125 C1127 1.561 . S
C1125 C1128 1.526 1_556 S
C1126 H1110 0.959 . S
C1126 H1111 0.959 1_556 S
C1126 H1112 0.961 . S
C1126 C1125 1.502 . S
C1127 H1113 0.960 . S
C1127 H1114 0.961 1_556 S
C1127 H1115 0.959 . S
C1127 C1125 1.561 . S
C1128 C1125 1.526 1_554 S
C1128 C1129 1.396 . S
C1128 C1133 1.390 . S
C1129 C1123 1.465 1_554 S
C1129 C1128 1.396 . S
C1129 C1130 1.399 . S
C1130 H1116 0.929 . S
C1130 C1129 1.399 . S
C1130 C1131 1.385 . S
C1131 H1117 0.931 . S
C1131 C1130 1.385 . S
C1131 C1132 1.389 . S
C1132 C1131 1.389 . S
C1132 C1133 1.387 . S
C1133 H1118 0.930 . S
C1133 C1128 1.390 . S
C1133 C1132 1.387 . S
H1134 C1146 0.930 . S
H1135 C1148 0.930 . S
H1136 C1149 0.930 . S
H1137 C1153 0.959 . S
H1138 C1153 0.959 . S
H1139 C1153 0.961 . S
H1140 C1154 0.960 . S
H1141 C1154 0.961 . S
H1142 C1154 0.959 . S
H1143 C1157 0.929 . S
H1144 C1158 0.931 . S
H1145 C1160 0.930 . S
C1146 H1134 0.930 . S
C1146 C1147 1.399 . S
C1146 C1151 1.399 . S
C1147 C1146 1.399 . S
C1147 C1148 1.376 . S
C1148 H1135 0.930 . S
C1148 C1147 1.376 . S
C1148 C1149 1.388 . S
C1149 H1136 0.930 . S
C1149 C1148 1.388 . S
C1149 C1150 1.390 . S
C1150 C1149 1.390 . S
C1150 C1151 1.394 . S
C1150 C1156 1.465 . S
C1151 C1146 1.399 . S
C1151 C1150 1.394 . S
C1151 C1152 1.516 . S
C1152 C1151 1.516 . S
C1152 C1153 1.502 . S
C1152 C1154 1.561 . S
C1152 C1155 1.526 . S
C1153 H1137 0.959 . S
C1153 H1138 0.959 . S
C1153 H1139 0.961 . S
C1153 C1152 1.502 . S
C1154 H1140 0.960 . S
C1154 H1141 0.961 . S
C1154 H1142 0.959 . S
C1154 C1152 1.561 . S
C1155 C1152 1.526 . S
C1155 C1156 1.396 . S
C1155 C1160 1.390 . S
C1156 C1150 1.465 . S
C1156 C1155 1.396 . S
C1156 C1157 1.399 . S
C1157 H1143 0.929 . S
C1157 C1156 1.399 . S
C1157 C1158 1.385 . S
C1158 H1144 0.931 . S
C1158 C1157 1.385 . S
C1158 C1159 1.389 . S
C1159 C1158 1.389 . S
C1159 C1160 1.387 . S
C1160 H1145 0.930 . S
C1160 C1155 1.390 . S
C1160 C1159 1.387 . S
H1161 C1173 0.930 . S
H1162 C1175 0.930 . S
H1163 C1176 0.930 . S
H1164 C1180 0.961 . S
H1165 C1180 0.959 1_556 S
H1166 C1180 0.961 . S
H1167 C1181 0.960 . S
H1168 C1181 0.961 1_556 S
H1169 C1181 0.959 . S
H1170 C1184 0.929 . S
H1171 C1185 0.931 . S
H1172 C1187 0.930 . S
C1173 H1161 0.930 . S
C1173 C1174 1.399 . S
C1173 C1178 1.399 . S
C1174 C1173 1.399 . S
C1174 C1175 1.376 . S
C1175 H1162 0.930 . S
C1175 C1174 1.376 . S
C1175 C1176 1.388 . S
C1176 H1163 0.930 . S
C1176 C1175 1.388 . S
C1176 C1177 1.390 . S
C1177 C1176 1.390 . S
C1177 C1178 1.394 . S
C1177 C1183 1.465 1_554 S
C1178 C1173 1.399 . S
C1178 C1177 1.394 . S
C1178 C1179 1.516 . S
C1179 C1178 1.516 . S
C1179 C1180 1.502 . S
C1179 C1181 1.561 . S
C1179 C1182 1.526 1_554 S
C1180 H1164 0.961 . S
C1180 H1165 0.959 1_554 S
C1180 H1166 0.961 . S
C1180 C1179 1.502 . S
C1181 H1167 0.960 . S
C1181 H1168 0.961 1_554 S
C1181 H1169 0.959 . S
C1181 C1179 1.561 . S
C1182 C1179 1.526 1_556 S
C1182 C1183 1.396 . S
C1182 C1187 1.390 . S
C1183 C1177 1.465 1_556 S
C1183 C1182 1.396 . S
C1183 C1184 1.399 . S
C1184 H1170 0.929 . S
C1184 C1183 1.399 . S
C1184 C1185 1.385 . S
C1185 H1171 0.931 . S
C1185 C1184 1.385 . S
C1185 C1186 1.389 . S
C1186 C1185 1.389 . S
C1186 C1187 1.387 . S
C1187 H1172 0.930 . S
C1187 C1182 1.390 . S
C1187 C1186 1.387 . S
H1188 C1200 0.930 . S
H1189 C1202 0.930 . S
H1190 C1203 0.930 . S
H1191 C1207 0.959 . S
H1192 C1207 0.959 . S
H1193 C1207 0.961 . S
H1194 C1208 0.960 . S
H1195 C1208 0.961 . S
H1196 C1208 0.959 . S
H1197 C1211 0.929 . S
H1198 C1212 0.931 . S
H1199 C1214 0.930 . S
C1200 H1188 0.930 . S
C1200 C1201 1.399 . S
C1200 C1205 1.399 . S
C1201 C1200 1.399 . S
C1201 C1202 1.376 . S
C1202 H1189 0.930 . S
C1202 C1201 1.376 . S
C1202 C1203 1.388 . S
C1203 H1190 0.930 . S
C1203 C1202 1.388 . S
C1203 C1204 1.390 . S
C1204 C1203 1.390 . S
C1204 C1205 1.394 . S
C1204 C1210 1.465 . S
C1205 C1200 1.399 . S
C1205 C1204 1.394 . S
C1205 C1206 1.516 . S
C1206 C1205 1.516 . S
C1206 C1207 1.502 . S
C1206 C1208 1.561 . S
C1206 C1209 1.526 . S
C1207 H1191 0.959 . S
C1207 H1192 0.959 . S
C1207 H1193 0.961 . S
C1207 C1206 1.502 . S
C1208 H1194 0.960 . S
C1208 H1195 0.961 . S
C1208 H1196 0.959 . S
C1208 C1206 1.561 . S
C1209 C1206 1.526 . S
C1209 C1210 1.396 . S
C1209 C1214 1.390 . S
C1210 C1204 1.465 . S
C1210 C1209 1.396 . S
C1210 C1211 1.399 . S
C1211 H1197 0.929 . S
C1211 C1210 1.399 . S
C1211 C1212 1.385 . S
C1212 H1198 0.931 . S
C1212 C1211 1.385 . S
C1212 C1213 1.389 . S
C1213 C1212 1.389 . S
C1213 C1214 1.387 . S
C1214 H1199 0.930 . S
C1214 C1209 1.390 . S
C1214 C1213 1.387 . S
H1215 C1227 0.930 . S
H1216 C1229 0.930 . S
H1217 C1230 0.930 . S
H1218 C1234 0.959 . S
H1219 C1234 0.959 . S
H1220 C1234 0.961 1_554 S
H1221 C1235 0.968 . S
H1222 C1235 0.954 1_556 S
H1223 C1235 0.958 1_556 S
H1224 C1238 0.929 . S
H1225 C1239 0.931 . S
H1226 C1241 0.930 . S
C1227 H1215 0.930 . S
C1227 C1228 1.399 . S
C1227 C1232 1.399 . S
C1228 C1227 1.399 . S
C1228 C1229 1.376 . S
C1229 H1216 0.930 . S
C1229 C1228 1.376 . S
C1229 C1230 1.388 . S
C1230 H1217 0.930 . S
C1230 C1229 1.388 . S
C1230 C1231 1.390 . S
C1231 C1230 1.390 . S
C1231 C1232 1.394 . S
C1231 C1237 1.465 1_554 S
C1232 C1227 1.399 . S
C1232 C1231 1.394 . S
C1232 C1233 1.516 1_554 S
C1233 C1232 1.516 1_556 S
C1233 C1234 1.502 . S
C1233 C1235 1.561 1_556 S
C1233 C1236 1.526 . S
C1234 H1218 0.959 . S
C1234 H1219 0.959 . S
C1234 H1220 0.961 1_556 S
C1234 C1233 1.502 . S
C1235 H1221 0.968 . S
C1235 H1222 0.954 1_554 S
C1235 H1223 0.958 1_554 S
C1235 C1233 1.561 1_554 S
C1236 C1233 1.526 . S
C1236 C1237 1.396 . S
C1236 C1241 1.390 . S
C1237 C1231 1.465 1_556 S
C1237 C1236 1.396 . S
C1237 C1238 1.399 . S
C1238 H1224 0.929 . S
C1238 C1237 1.399 . S
C1238 C1239 1.385 . S
C1239 H1225 0.931 . S
C1239 C1238 1.385 . S
C1239 C1240 1.389 . S
C1240 C1239 1.389 . S
C1240 C1241 1.387 . S
C1241 H1226 0.930 . S
C1241 C1236 1.390 . S
C1241 C1240 1.387 . S
H1242 C1254 0.930 . S
H1243 C1256 0.930 . S
H1244 C1257 0.930 . S
H1245 C1261 0.959 . S
H1246 C1261 0.959 . S
H1247 C1261 0.961 . S
H1248 C1262 0.960 . S
H1249 C1262 0.961 . S
H1250 C1262 0.959 . S
H1251 C1265 0.929 . S
H1252 C1266 0.931 . S
H1253 C1268 0.930 . S
C1254 H1242 0.930 . S
C1254 C1255 1.399 . S
C1254 C1259 1.399 . S
C1255 C1254 1.399 . S
C1255 C1256 1.376 . S
C1256 H1243 0.930 . S
C1256 C1255 1.376 . S
C1256 C1257 1.388 . S
C1257 H1244 0.930 . S
C1257 C1256 1.388 . S
C1257 C1258 1.390 . S
C1258 C1257 1.390 . S
C1258 C1259 1.394 . S
C1258 C1264 1.465 . S
C1259 C1254 1.399 . S
C1259 C1258 1.394 . S
C1259 C1260 1.516 . S
C1260 C1259 1.516 . S
C1260 C1261 1.502 . S
C1260 C1262 1.561 . S
C1260 C1263 1.526 . S
C1261 H1245 0.959 . S
C1261 H1246 0.959 . S
C1261 H1247 0.961 . S
C1261 C1260 1.502 . S
C1262 H1248 0.960 . S
C1262 H1249 0.961 . S
C1262 H1250 0.959 . S
C1262 C1260 1.561 . S
C1263 C1260 1.526 . S
C1263 C1264 1.396 . S
C1263 C1268 1.390 . S
C1264 C1258 1.465 . S
C1264 C1263 1.396 . S
C1264 C1265 1.399 . S
C1265 H1251 0.929 . S
C1265 C1264 1.399 . S
C1265 C1266 1.385 . S
C1266 H1252 0.931 . S
C1266 C1265 1.385 . S
C1266 C1267 1.389 . S
C1267 C1266 1.389 . S
C1267 C1268 1.387 . S
C1268 H1253 0.930 . S
C1268 C1263 1.390 . S
C1268 C1267 1.387 . S
H1269 C1281 0.930 . S
H1270 C1283 0.930 . S
H1271 C1284 0.930 . S
H1272 C1288 0.959 . S
H1273 C1288 0.959 1_556 S
H1274 C1288 0.961 . S
H1275 C1289 0.960 . S
H1276 C1289 0.961 1_556 S
H1277 C1289 0.959 . S
H1278 C1292 0.929 . S
H1279 C1293 0.931 . S
H1280 C1295 0.930 . S
C1281 H1269 0.930 . S
C1281 C1282 1.399 . S
C1281 C1286 1.399 . S
C1282 C1281 1.399 . S
C1282 C1283 1.376 . S
C1283 H1270 0.930 . S
C1283 C1282 1.376 . S
C1283 C1284 1.388 . S
C1284 H1271 0.930 . S
C1284 C1283 1.388 . S
C1284 C1285 1.390 . S
C1285 C1284 1.390 . S
C1285 C1286 1.394 . S
C1285 C1291 1.465 1_554 S
C1286 C1281 1.399 . S
C1286 C1285 1.394 . S
C1286 C1287 1.516 . S
C1287 C1286 1.516 . S
C1287 C1288 1.502 . S
C1287 C1289 1.561 . S
C1287 C1290 1.526 1_554 S
C1288 H1272 0.959 . S
C1288 H1273 0.959 1_554 S
C1288 H1274 0.961 . S
C1288 C1287 1.502 . S
C1289 H1275 0.960 . S
C1289 H1276 0.961 1_554 S
C1289 H1277 0.959 . S
C1289 C1287 1.561 . S
C1290 C1287 1.526 1_556 S
C1290 C1291 1.396 . S
C1290 C1295 1.390 . S
C1291 C1285 1.465 1_556 S
C1291 C1290 1.396 . S
C1291 C1292 1.399 . S
C1292 H1278 0.929 . S
C1292 C1291 1.399 . S
C1292 C1293 1.385 . S
C1293 H1279 0.931 . S
C1293 C1292 1.385 . S
C1293 C1294 1.389 . S
C1294 C1293 1.389 . S
C1294 C1295 1.387 . S
C1295 H1280 0.930 . S
C1295 C1290 1.390 . S
C1295 C1294 1.387 . S
H1296 C1308 0.930 . S
H1297 C1310 0.930 . S
H1298 C1311 0.930 . S
H1299 C1315 0.959 . S
H1300 C1315 0.959 . S
H1301 C1315 0.961 . S
H1302 C1316 0.960 . S
H1303 C1316 0.961 . S
H1304 C1316 0.959 . S
H1305 C1319 0.929 . S
H1306 C1320 0.931 . S
H1307 C1322 0.930 . S
C1308 H1296 0.930 . S
C1308 C1309 1.399 . S
C1308 C1313 1.399 . S
C1309 C1308 1.399 . S
C1309 C1310 1.376 . S
C1310 H1297 0.930 . S
C1310 C1309 1.376 . S
C1310 C1311 1.388 . S
C1311 H1298 0.930 . S
C1311 C1310 1.388 . S
C1311 C1312 1.390 . S
C1312 C1311 1.390 . S
C1312 C1313 1.394 . S
C1312 C1318 1.465 . S
C1313 C1308 1.399 . S
C1313 C1312 1.394 . S
C1313 C1314 1.516 . S
C1314 C1313 1.516 . S
C1314 C1315 1.502 . S
C1314 C1316 1.561 . S
C1314 C1317 1.526 . S
C1315 H1299 0.959 . S
C1315 H1300 0.959 . S
C1315 H1301 0.961 . S
C1315 C1314 1.502 . S
C1316 H1302 0.960 . S
C1316 H1303 0.961 . S
C1316 H1304 0.959 . S
C1316 C1314 1.561 . S
C1317 C1314 1.526 . S
C1317 C1318 1.396 . S
C1317 C1322 1.390 . S
C1318 C1312 1.465 . S
C1318 C1317 1.396 . S
C1318 C1319 1.399 . S
C1319 H1305 0.929 . S
C1319 C1318 1.399 . S
C1319 C1320 1.385 . S
C1320 H1306 0.931 . S
C1320 C1319 1.385 . S
C1320 C1321 1.389 . S
C1321 C1320 1.389 . S
C1321 C1322 1.387 . S
C1322 H1307 0.930 . S
C1322 C1317 1.390 . S
C1322 C1321 1.387 . S
H1323 C1335 0.930 . S
H1324 C1337 0.930 . S
H1325 C1338 0.930 . S
H1326 C1342 0.959 . S
H1327 C1342 0.959 . S
H1328 C1342 0.961 . S
H1329 C1343 0.960 . S
H1330 C1343 0.961 . S
H1331 C1343 0.959 . S
H1332 C1346 0.929 . S
H1333 C1347 0.931 . S
H1334 C1349 0.930 . S
C1335 H1323 0.930 . S
C1335 C1336 1.399 . S
C1335 C1340 1.399 . S
C1336 C1335 1.399 . S
C1336 C1337 1.376 . S
C1337 H1324 0.930 . S
C1337 C1336 1.376 . S
C1337 C1338 1.388 . S
C1338 H1325 0.930 . S
C1338 C1337 1.388 . S
C1338 C1339 1.390 . S
C1339 C1338 1.390 . S
C1339 C1340 1.394 . S
C1339 C1345 1.465 . S
C1340 C1335 1.399 . S
C1340 C1339 1.394 . S
C1340 C1341 1.516 . S
C1341 C1340 1.516 . S
C1341 C1342 1.502 . S
C1341 C1343 1.561 . S
C1341 C1344 1.526 . S
C1342 H1326 0.959 . S
C1342 H1327 0.959 . S
C1342 H1328 0.961 . S
C1342 C1341 1.502 . S
C1343 H1329 0.960 . S
C1343 H1330 0.961 . S
C1343 H1331 0.959 . S
C1343 C1341 1.561 . S
C1344 C1341 1.526 . S
C1344 C1345 1.396 . S
C1344 C1349 1.390 . S
C1345 C1339 1.465 . S
C1345 C1344 1.396 . S
C1345 C1346 1.399 . S
C1346 H1332 0.929 . S
C1346 C1345 1.399 . S
C1346 C1347 1.385 . S
C1347 H1333 0.931 . S
C1347 C1346 1.385 . S
C1347 C1348 1.389 . S
C1348 C1347 1.389 . S
C1348 C1349 1.387 . S
C1349 H1334 0.930 . S
C1349 C1344 1.390 . S
C1349 C1348 1.387 . S
H1350 C1362 0.930 . S
H1351 C1364 0.930 . S
H1352 C1365 0.930 . S
H1353 C1369 0.959 . S
H1354 C1369 0.959 . S
H1355 C1369 0.961 . S
H1356 C1370 0.960 . S
H1357 C1370 0.961 1_545 S
H1358 C1370 0.959 1_545 S
H1359 C1373 0.929 . S
H1360 C1374 0.931 . S
H1361 C1376 0.930 . S
C1362 H1350 0.930 . S
C1362 C1363 1.399 . S
C1362 C1367 1.399 . S
C1363 C1362 1.399 . S
C1363 C1364 1.376 . S
C1364 H1351 0.930 . S
C1364 C1363 1.376 . S
C1364 C1365 1.388 . S
C1365 H1352 0.930 . S
C1365 C1364 1.388 . S
C1365 C1366 1.390 . S
C1366 C1365 1.390 . S
C1366 C1367 1.394 . S
C1366 C1372 1.465 1_565 S
C1367 C1362 1.399 . S
C1367 C1366 1.394 . S
C1367 C1368 1.516 . S
C1368 C1367 1.516 . S
C1368 C1369 1.502 . S
C1368 C1370 1.561 . S
C1368 C1371 1.526 1_565 S
C1369 H1353 0.959 . S
C1369 H1354 0.959 . S
C1369 H1355 0.961 . S
C1369 C1368 1.502 . S
C1370 H1356 0.960 . S
C1370 H1357 0.961 1_565 S
C1370 H1358 0.959 1_565 S
C1370 C1368 1.561 . S
C1371 C1368 1.526 1_545 S
C1371 C1372 1.396 . S
C1371 C1376 1.390 . S
C1372 C1366 1.465 1_545 S
C1372 C1371 1.396 . S
C1372 C1373 1.399 . S
C1373 H1359 0.929 . S
C1373 C1372 1.399 . S
C1373 C1374 1.385 . S
C1374 H1360 0.931 . S
C1374 C1373 1.385 . S
C1374 C1375 1.389 . S
C1375 C1374 1.389 . S
C1375 C1376 1.387 . S
C1376 H1361 0.930 . S
C1376 C1371 1.390 . S
C1376 C1375 1.387 . S
H1377 C1389 0.930 . S
H1378 C1391 0.930 . S
H1379 C1392 0.930 . S
H1380 C1396 0.959 . S
H1381 C1396 0.959 . S
H1382 C1396 0.961 . S
H1383 C1397 0.960 . S
H1384 C1397 0.961 . S
H1385 C1397 0.959 . S
H1386 C1400 0.929 . S
H1387 C1401 0.931 . S
H1388 C1403 0.930 . S
C1389 H1377 0.930 . S
C1389 C1390 1.399 . S
C1389 C1394 1.399 . S
C1390 C1389 1.399 . S
C1390 C1391 1.376 . S
C1391 H1378 0.930 . S
C1391 C1390 1.376 . S
C1391 C1392 1.388 . S
C1392 H1379 0.930 . S
C1392 C1391 1.388 . S
C1392 C1393 1.390 . S
C1393 C1392 1.390 . S
C1393 C1394 1.394 . S
C1393 C1399 1.465 . S
C1394 C1389 1.399 . S
C1394 C1393 1.394 . S
C1394 C1395 1.516 . S
C1395 C1394 1.516 . S
C1395 C1396 1.502 . S
C1395 C1397 1.561 . S
C1395 C1398 1.526 . S
C1396 H1380 0.959 . S
C1396 H1381 0.959 . S
C1396 H1382 0.961 . S
C1396 C1395 1.502 . S
C1397 H1383 0.960 . S
C1397 H1384 0.961 . S
C1397 H1385 0.959 . S
C1397 C1395 1.561 . S
C1398 C1395 1.526 . S
C1398 C1399 1.396 . S
C1398 C1403 1.390 . S
C1399 C1393 1.465 . S
C1399 C1398 1.396 . S
C1399 C1400 1.399 . S
C1400 H1386 0.929 . S
C1400 C1399 1.399 . S
C1400 C1401 1.385 . S
C1401 H1387 0.931 . S
C1401 C1400 1.385 . S
C1401 C1402 1.389 . S
C1402 C1401 1.389 . S
C1402 C1403 1.387 . S
C1403 H1388 0.930 . S
C1403 C1398 1.390 . S
C1403 C1402 1.387 . S
H1404 C1416 0.930 . S
H1405 C1418 0.930 . S
H1406 C1419 0.930 . S
H1407 C1423 0.959 . S
H1408 C1423 0.959 . S
H1409 C1423 0.961 . S
H1410 C1424 0.960 1_565 S
H1411 C1424 0.961 . S
H1412 C1424 0.959 1_565 S
H1413 C1427 0.929 . S
H1414 C1428 0.931 . S
H1415 C1430 0.930 . S
C1416 H1404 0.930 . S
C1416 C1417 1.399 . S
C1416 C1421 1.399 . S
C1417 C1416 1.399 . S
C1417 C1418 1.376 . S
C1418 H1405 0.930 . S
C1418 C1417 1.376 . S
C1418 C1419 1.388 . S
C1419 H1406 0.930 . S
C1419 C1418 1.388 . S
C1419 C1420 1.390 . S
C1420 C1419 1.390 . S
C1420 C1421 1.394 . S
C1420 C1426 1.465 1_565 S
C1421 C1416 1.399 . S
C1421 C1420 1.394 . S
C1421 C1422 1.516 1_565 S
C1422 C1421 1.516 1_545 S
C1422 C1423 1.502 . S
C1422 C1424 1.561 . S
C1422 C1425 1.526 . S
C1423 H1407 0.959 . S
C1423 H1408 0.959 . S
C1423 H1409 0.961 . S
C1423 C1422 1.502 . S
C1424 H1410 0.960 1_545 S
C1424 H1411 0.961 . S
C1424 H1412 0.959 1_545 S
C1424 C1422 1.561 . S
C1425 C1422 1.526 . S
C1425 C1426 1.396 . S
C1425 C1430 1.390 . S
C1426 C1420 1.465 1_545 S
C1426 C1425 1.396 . S
C1426 C1427 1.399 . S
C1427 H1413 0.929 . S
C1427 C1426 1.399 . S
C1427 C1428 1.385 . S
C1428 H1414 0.931 . S
C1428 C1427 1.385 . S
C1428 C1429 1.389 . S
C1429 C1428 1.389 . S
C1429 C1430 1.387 . S
C1430 H1415 0.930 . S
C1430 C1425 1.390 . S
C1430 C1429 1.387 . S
H1431 C1443 0.930 . S
H1432 C1445 0.930 . S
H1433 C1446 0.930 . S
H1434 C1450 0.959 . S
H1435 C1450 0.959 . S
H1436 C1450 0.961 . S
H1437 C1451 0.960 . S
H1438 C1451 0.961 . S
H1439 C1451 0.959 . S
H1440 C1454 0.929 . S
H1441 C1455 0.931 . S
H1442 C1457 0.930 . S
C1443 H1431 0.930 . S
C1443 C1444 1.399 . S
C1443 C1448 1.399 . S
C1444 C1443 1.399 . S
C1444 C1445 1.376 . S
C1445 H1432 0.930 . S
C1445 C1444 1.376 . S
C1445 C1446 1.388 . S
C1446 H1433 0.930 . S
C1446 C1445 1.388 . S
C1446 C1447 1.390 . S
C1447 C1446 1.390 . S
C1447 C1448 1.394 . S
C1447 C1453 1.465 . S
C1448 C1443 1.399 . S
C1448 C1447 1.394 . S
C1448 C1449 1.516 . S
C1449 C1448 1.516 . S
C1449 C1450 1.502 . S
C1449 C1451 1.561 . S
C1449 C1452 1.526 . S
C1450 H1434 0.959 . S
C1450 H1435 0.959 . S
C1450 H1436 0.961 . S
C1450 C1449 1.502 . S
C1451 H1437 0.960 . S
C1451 H1438 0.961 . S
C1451 H1439 0.959 . S
C1451 C1449 1.561 . S
C1452 C1449 1.526 . S
C1452 C1453 1.396 . S
C1452 C1457 1.390 . S
C1453 C1447 1.465 . S
C1453 C1452 1.396 . S
C1453 C1454 1.399 . S
C1454 H1440 0.929 . S
C1454 C1453 1.399 . S
C1454 C1455 1.385 . S
C1455 H1441 0.931 . S
C1455 C1454 1.385 . S
C1455 C1456 1.389 . S
C1456 C1455 1.389 . S
C1456 C1457 1.387 . S
C1457 H1442 0.930 . S
C1457 C1452 1.390 . S
C1457 C1456 1.387 . S
H1458 C1470 0.930 . S
H1459 C1472 0.930 . S
H1460 C1473 0.930 . S
H1461 C1477 0.959 . S
H1462 C1477 0.959 . S
H1463 C1477 0.961 . S
H1464 C1478 0.960 . S
H1465 C1478 0.961 1_545 S
H1466 C1478 0.959 1_545 S
H1467 C1481 0.929 . S
H1468 C1482 0.931 . S
H1469 C1484 0.930 . S
C1470 H1458 0.930 . S
C1470 C1471 1.399 . S
C1470 C1475 1.399 . S
C1471 C1470 1.399 . S
C1471 C1472 1.376 . S
C1472 H1459 0.930 . S
C1472 C1471 1.376 . S
C1472 C1473 1.388 . S
C1473 H1460 0.930 . S
C1473 C1472 1.388 . S
C1473 C1474 1.390 . S
C1474 C1473 1.390 . S
C1474 C1475 1.394 . S
C1474 C1480 1.465 1_565 S
C1475 C1470 1.399 . S
C1475 C1474 1.394 . S
C1475 C1476 1.516 . S
C1476 C1475 1.516 . S
C1476 C1477 1.502 . S
C1476 C1478 1.561 . S
C1476 C1479 1.526 1_565 S
C1477 H1461 0.959 . S
C1477 H1462 0.959 . S
C1477 H1463 0.961 . S
C1477 C1476 1.502 . S
C1478 H1464 0.960 . S
C1478 H1465 0.961 1_565 S
C1478 H1466 0.959 1_565 S
C1478 C1476 1.561 . S
C1479 C1476 1.526 1_545 S
C1479 C1480 1.396 . S
C1479 C1484 1.390 . S
C1480 C1474 1.465 1_545 S
C1480 C1479 1.396 . S
C1480 C1481 1.399 . S
C1481 H1467 0.929 . S
C1481 C1480 1.399 . S
C1481 C1482 1.385 . S
C1482 H1468 0.931 . S
C1482 C1481 1.385 . S
C1482 C1483 1.389 . S
C1483 C1482 1.389 . S
C1483 C1484 1.387 . S
C1484 H1469 0.930 . S
C1484 C1479 1.390 . S
C1484 C1483 1.387 . S
H1485 C1497 0.930 . S
H1486 C1499 0.930 . S
H1487 C1500 0.930 . S
H1488 C1504 0.959 . S
H1489 C1504 0.959 . S
H1490 C1504 0.961 1_545 S
H1491 C1505 0.960 . S
H1492 C1505 0.978 . S
H1493 C1505 0.959 . S
H1494 C1508 0.929 . S
H1495 C1509 0.931 . S
H1496 C1511 0.930 . S
C1497 H1485 0.930 . S
C1497 C1498 1.399 . S
C1497 C1502 1.399 . S
C1498 C1497 1.399 . S
C1498 C1499 1.376 . S
C1499 H1486 0.930 . S
C1499 C1498 1.376 . S
C1499 C1500 1.388 . S
C1500 H1487 0.930 . S
C1500 C1499 1.388 . S
C1500 C1501 1.390 . S
C1501 C1500 1.390 . S
C1501 C1502 1.394 . S
C1501 C1507 1.465 1_545 S
C1502 C1497 1.399 . S
C1502 C1501 1.394 . S
C1502 C1503 1.516 . S
C1503 C1502 1.516 . S
C1503 C1504 1.502 1_545 S
C1503 C1505 1.561 . S
C1503 C1506 1.526 1_545 S
C1504 H1488 0.959 . S
C1504 H1489 0.959 . S
C1504 H1490 0.961 1_565 S
C1504 C1503 1.502 1_565 S
C1505 H1491 0.960 . S
C1505 H1492 0.978 . S
C1505 H1493 0.959 . S
C1505 C1503 1.561 . S
C1506 C1503 1.526 1_565 S
C1506 C1507 1.396 . S
C1506 C1511 1.390 . S
C1507 C1501 1.465 1_565 S
C1507 C1506 1.396 . S
C1507 C1508 1.399 . S
C1508 H1494 0.929 . S
C1508 C1507 1.399 . S
C1508 C1509 1.385 . S
C1509 H1495 0.931 . S
C1509 C1508 1.385 . S
C1509 C1510 1.389 . S
C1510 C1509 1.389 . S
C1510 C1511 1.387 . S
C1511 H1496 0.930 . S
C1511 C1506 1.390 . S
C1511 C1510 1.387 . S
H1512 C1524 0.930 . S
H1513 C1526 0.930 . S
H1514 C1527 0.930 . S
H1515 C1531 0.959 . S
H1516 C1531 0.959 . S
H1517 C1531 0.961 . S
H1518 C1532 0.960 . S
H1519 C1532 0.961 . S
H1520 C1532 0.959 . S
H1521 C1535 0.929 . S
H1522 C1536 0.931 . S
H1523 C1538 0.930 . S
C1524 H1512 0.930 . S
C1524 C1525 1.399 . S
C1524 C1529 1.399 . S
C1525 C1524 1.399 . S
C1525 C1526 1.376 . S
C1526 H1513 0.930 . S
C1526 C1525 1.376 . S
C1526 C1527 1.388 . S
C1527 H1514 0.930 . S
C1527 C1526 1.388 . S
C1527 C1528 1.390 . S
C1528 C1527 1.390 . S
C1528 C1529 1.394 . S
C1528 C1534 1.465 . S
C1529 C1524 1.399 . S
C1529 C1528 1.394 . S
C1529 C1530 1.516 . S
C1530 C1529 1.516 . S
C1530 C1531 1.502 . S
C1530 C1532 1.561 . S
C1530 C1533 1.526 . S
C1531 H1515 0.959 . S
C1531 H1516 0.959 . S
C1531 H1517 0.961 . S
C1531 C1530 1.502 . S
C1532 H1518 0.960 . S
C1532 H1519 0.961 . S
C1532 H1520 0.959 . S
C1532 C1530 1.561 . S
C1533 C1530 1.526 . S
C1533 C1534 1.396 . S
C1533 C1538 1.390 . S
C1534 C1528 1.465 . S
C1534 C1533 1.396 . S
C1534 C1535 1.399 . S
C1535 H1521 0.929 . S
C1535 C1534 1.399 . S
C1535 C1536 1.385 . S
C1536 H1522 0.931 . S
C1536 C1535 1.385 . S
C1536 C1537 1.389 . S
C1537 C1536 1.389 . S
C1537 C1538 1.387 . S
C1538 H1523 0.930 . S
C1538 C1533 1.390 . S
C1538 C1537 1.387 . S
H1539 C1551 0.930 . S
H1540 C1553 0.930 . S
H1541 C1554 0.930 . S
H1542 C1558 0.959 . S
H1543 C1558 0.959 . S
H1544 C1558 0.961 . S
H1545 C1559 0.960 . S
H1546 C1559 0.961 . S
H1547 C1559 0.959 . S
H1548 C1562 0.929 . S
H1549 C1563 0.931 . S
H1550 C1565 0.930 . S
C1551 H1539 0.930 . S
C1551 C1552 1.399 . S
C1551 C1556 1.399 . S
C1552 C1551 1.399 . S
C1552 C1553 1.376 . S
C1553 H1540 0.930 . S
C1553 C1552 1.376 . S
C1553 C1554 1.388 . S
C1554 H1541 0.930 . S
C1554 C1553 1.388 . S
C1554 C1555 1.390 . S
C1555 C1554 1.390 . S
C1555 C1556 1.394 . S
C1555 C1561 1.465 . S
C1556 C1551 1.399 . S
C1556 C1555 1.394 . S
C1556 C1557 1.516 . S
C1557 C1556 1.516 . S
C1557 C1558 1.502 . S
C1557 C1559 1.561 . S
C1557 C1560 1.526 . S
C1558 H1542 0.959 . S
C1558 H1543 0.959 . S
C1558 H1544 0.961 . S
C1558 C1557 1.502 . S
C1559 H1545 0.960 . S
C1559 H1546 0.961 . S
C1559 H1547 0.959 . S
C1559 C1557 1.561 . S
C1560 C1557 1.526 . S
C1560 C1561 1.396 . S
C1560 C1565 1.390 . S
C1561 C1555 1.465 . S
C1561 C1560 1.396 . S
C1561 C1562 1.399 . S
C1562 H1548 0.929 . S
C1562 C1561 1.399 . S
C1562 C1563 1.385 . S
C1563 H1549 0.931 . S
C1563 C1562 1.385 . S
C1563 C1564 1.389 . S
C1564 C1563 1.389 . S
C1564 C1565 1.387 . S
C1565 H1550 0.930 . S
C1565 C1560 1.390 . S
C1565 C1564 1.387 . S
H1566 C1578 0.930 . S
H1567 C1580 0.930 . S
H1568 C1581 0.930 . S
H1569 C1585 0.959 . S
H1570 C1585 0.959 . S
H1571 C1585 0.961 . S
H1572 C1586 0.960 . S
H1573 C1586 0.961 . S
H1574 C1586 0.959 . S
H1575 C1589 0.929 . S
H1576 C1590 0.931 . S
H1577 C1592 0.930 . S
C1578 H1566 0.930 . S
C1578 C1579 1.399 . S
C1578 C1583 1.399 . S
C1579 C1578 1.399 . S
C1579 C1580 1.376 . S
C1580 H1567 0.930 . S
C1580 C1579 1.376 . S
C1580 C1581 1.388 . S
C1581 H1568 0.930 . S
C1581 C1580 1.388 . S
C1581 C1582 1.390 . S
C1582 C1581 1.390 . S
C1582 C1583 1.394 . S
C1582 C1588 1.465 . S
C1583 C1578 1.399 . S
C1583 C1582 1.394 . S
C1583 C1584 1.516 . S
C1584 C1583 1.516 . S
C1584 C1585 1.502 . S
C1584 C1586 1.561 . S
C1584 C1587 1.526 . S
C1585 H1569 0.959 . S
C1585 H1570 0.959 . S
C1585 H1571 0.961 . S
C1585 C1584 1.502 . S
C1586 H1572 0.960 . S
C1586 H1573 0.961 . S
C1586 H1574 0.959 . S
C1586 C1584 1.561 . S
C1587 C1584 1.526 . S
C1587 C1588 1.396 . S
C1587 C1592 1.390 . S
C1588 C1582 1.465 . S
C1588 C1587 1.396 . S
C1588 C1589 1.399 . S
C1589 H1575 0.929 . S
C1589 C1588 1.399 . S
C1589 C1590 1.385 . S
C1590 H1576 0.931 . S
C1590 C1589 1.385 . S
C1590 C1591 1.389 . S
C1591 C1590 1.389 . S
C1591 C1592 1.387 . S
C1592 H1577 0.930 . S
C1592 C1587 1.390 . S
C1592 C1591 1.387 . S
H1593 C1605 0.930 . S
H1594 C1607 0.930 . S
H1595 C1608 0.930 . S
H1596 C1612 0.959 . S
H1597 C1612 0.959 . S
H1598 C1612 0.961 . S
H1599 C1613 0.960 . S
H1600 C1613 0.961 . S
H1601 C1613 0.959 . S
H1602 C1616 0.929 . S
H1603 C1617 0.931 . S
H1604 C1619 0.930 . S
C1605 H1593 0.930 . S
C1605 C1606 1.399 . S
C1605 C1610 1.399 . S
C1606 C1605 1.399 . S
C1606 C1607 1.376 . S
C1607 H1594 0.930 . S
C1607 C1606 1.376 . S
C1607 C1608 1.388 . S
C1608 H1595 0.930 . S
C1608 C1607 1.388 . S
C1608 C1609 1.390 . S
C1609 C1608 1.390 . S
C1609 C1610 1.394 . S
C1609 C1615 1.465 . S
C1610 C1605 1.399 . S
C1610 C1609 1.394 . S
C1610 C1611 1.516 . S
C1611 C1610 1.516 . S
C1611 C1612 1.502 . S
C1611 C1613 1.561 . S
C1611 C1614 1.526 . S
C1612 H1596 0.959 . S
C1612 H1597 0.959 . S
C1612 H1598 0.961 . S
C1612 C1611 1.502 . S
C1613 H1599 0.960 . S
C1613 H1600 0.961 . S
C1613 H1601 0.959 . S
C1613 C1611 1.561 . S
C1614 C1611 1.526 . S
C1614 C1615 1.396 . S
C1614 C1619 1.390 . S
C1615 C1609 1.465 . S
C1615 C1614 1.396 . S
C1615 C1616 1.399 . S
C1616 H1602 0.929 . S
C1616 C1615 1.399 . S
C1616 C1617 1.385 . S
C1617 H1603 0.931 . S
C1617 C1616 1.385 . S
C1617 C1618 1.389 . S
C1618 C1617 1.389 . S
C1618 C1619 1.387 . S
C1619 H1604 0.930 . S
C1619 C1614 1.390 . S
C1619 C1618 1.387 . S
H1620 C1632 0.930 . S
H1621 C1634 0.930 . S
H1622 C1635 0.930 . S
H1623 C1639 0.959 . S
H1624 C1639 0.959 . S
H1625 C1639 0.961 . S
H1626 C1640 0.960 . S
H1627 C1640 0.961 . S
H1628 C1640 0.959 . S
H1629 C1643 0.929 . S
H1630 C1644 0.931 . S
H1631 C1646 0.930 . S
C1632 H1620 0.930 . S
C1632 C1633 1.399 . S
C1632 C1637 1.399 . S
C1633 C1632 1.399 . S
C1633 C1634 1.376 . S
C1634 H1621 0.930 . S
C1634 C1633 1.376 . S
C1634 C1635 1.388 . S
C1635 H1622 0.930 . S
C1635 C1634 1.388 . S
C1635 C1636 1.390 . S
C1636 C1635 1.390 . S
C1636 C1637 1.394 . S
C1636 C1642 1.465 . S
C1637 C1632 1.399 . S
C1637 C1636 1.394 . S
C1637 C1638 1.516 . S
C1638 C1637 1.516 . S
C1638 C1639 1.502 . S
C1638 C1640 1.561 . S
C1638 C1641 1.526 . S
C1639 H1623 0.959 . S
C1639 H1624 0.959 . S
C1639 H1625 0.961 . S
C1639 C1638 1.502 . S
C1640 H1626 0.960 . S
C1640 H1627 0.961 . S
C1640 H1628 0.959 . S
C1640 C1638 1.561 . S
C1641 C1638 1.526 . S
C1641 C1642 1.396 . S
C1641 C1646 1.390 . S
C1642 C1636 1.465 . S
C1642 C1641 1.396 . S
C1642 C1643 1.399 . S
C1643 H1629 0.929 . S
C1643 C1642 1.399 . S
C1643 C1644 1.385 . S
C1644 H1630 0.931 . S
C1644 C1643 1.385 . S
C1644 C1645 1.389 . S
C1645 C1644 1.389 . S
C1645 C1646 1.387 . S
C1646 H1631 0.930 . S
C1646 C1641 1.390 . S
C1646 C1645 1.387 . S
H1647 C1659 0.930 . S
H1648 C1661 0.930 . S
H1649 C1662 0.930 . S
H1650 C1666 0.959 . S
H1651 C1666 0.959 . S
H1652 C1666 0.961 . S
H1653 C1667 0.960 . S
H1654 C1667 0.961 . S
H1655 C1667 0.959 . S
H1656 C1670 0.929 . S
H1657 C1671 0.931 . S
H1658 C1673 0.930 . S
C1659 H1647 0.930 . S
C1659 C1660 1.399 . S
C1659 C1664 1.399 . S
C1660 C1659 1.399 . S
C1660 C1661 1.376 . S
C1661 H1648 0.930 . S
C1661 C1660 1.376 . S
C1661 C1662 1.388 . S
C1662 H1649 0.930 . S
C1662 C1661 1.388 . S
C1662 C1663 1.390 . S
C1663 C1662 1.390 . S
C1663 C1664 1.394 . S
C1663 C1669 1.465 . S
C1664 C1659 1.399 . S
C1664 C1663 1.394 . S
C1664 C1665 1.516 . S
C1665 C1664 1.516 . S
C1665 C1666 1.502 . S
C1665 C1667 1.561 . S
C1665 C1668 1.526 . S
C1666 H1650 0.959 . S
C1666 H1651 0.959 . S
C1666 H1652 0.961 . S
C1666 C1665 1.502 . S
C1667 H1653 0.960 . S
C1667 H1654 0.961 . S
C1667 H1655 0.959 . S
C1667 C1665 1.561 . S
C1668 C1665 1.526 . S
C1668 C1669 1.396 . S
C1668 C1673 1.390 . S
C1669 C1663 1.465 . S
C1669 C1668 1.396 . S
C1669 C1670 1.399 . S
C1670 H1656 0.929 . S
C1670 C1669 1.399 . S
C1670 C1671 1.385 . S
C1671 H1657 0.931 . S
C1671 C1670 1.385 . S
C1671 C1672 1.389 . S
C1672 C1671 1.389 . S
C1672 C1673 1.387 . S
C1673 H1658 0.930 . S
C1673 C1668 1.390 . S
C1673 C1672 1.387 . S
H1674 C1686 0.930 . S
H1675 C1688 0.930 . S
H1676 C1689 0.930 . S
H1677 C1693 0.959 . S
H1678 C1693 0.959 . S
H1679 C1693 0.961 . S
H1680 C1694 0.960 . S
H1681 C1694 0.961 . S
H1682 C1694 0.959 . S
H1683 C1697 0.929 . S
H1684 C1698 0.931 . S
H1685 C1700 0.930 . S
C1686 H1674 0.930 . S
C1686 C1687 1.399 . S
C1686 C1691 1.399 . S
C1687 C1686 1.399 . S
C1687 C1688 1.376 . S
C1688 H1675 0.930 . S
C1688 C1687 1.376 . S
C1688 C1689 1.388 . S
C1689 H1676 0.930 . S
C1689 C1688 1.388 . S
C1689 C1690 1.390 . S
C1690 C1689 1.390 . S
C1690 C1691 1.394 . S
C1690 C1696 1.465 . S
C1691 C1686 1.399 . S
C1691 C1690 1.394 . S
C1691 C1692 1.516 . S
C1692 C1691 1.516 . S
C1692 C1693 1.502 . S
C1692 C1694 1.561 . S
C1692 C1695 1.526 . S
C1693 H1677 0.959 . S
C1693 H1678 0.959 . S
C1693 H1679 0.961 . S
C1693 C1692 1.502 . S
C1694 H1680 0.960 . S
C1694 H1681 0.961 . S
C1694 H1682 0.959 . S
C1694 C1692 1.561 . S
C1695 C1692 1.526 . S
C1695 C1696 1.396 . S
C1695 C1700 1.390 . S
C1696 C1690 1.465 . S
C1696 C1695 1.396 . S
C1696 C1697 1.399 . S
C1697 H1683 0.929 . S
C1697 C1696 1.399 . S
C1697 C1698 1.385 . S
C1698 H1684 0.931 . S
C1698 C1697 1.385 . S
C1698 C1699 1.389 . S
C1699 C1698 1.389 . S
C1699 C1700 1.387 . S
C1700 H1685 0.930 . S
C1700 C1695 1.390 . S
C1700 C1699 1.387 . S
H1701 C1713 0.930 . S
H1702 C1715 0.930 . S
H1703 C1716 0.930 . S
H1704 C1720 0.959 . S
H1705 C1720 0.959 . S
H1706 C1720 0.961 . S
H1707 C1721 0.960 . S
H1708 C1721 0.961 . S
H1709 C1721 0.959 . S
H1710 C1724 0.929 . S
H1711 C1725 0.931 . S
H1712 C1727 0.930 . S
C1713 H1701 0.930 . S
C1713 C1714 1.399 . S
C1713 C1718 1.399 . S
C1714 C1713 1.399 . S
C1714 C1715 1.376 . S
C1715 H1702 0.930 . S
C1715 C1714 1.376 . S
C1715 C1716 1.388 . S
C1716 H1703 0.930 . S
C1716 C1715 1.388 . S
C1716 C1717 1.390 . S
C1717 C1716 1.390 . S
C1717 C1718 1.394 . S
C1717 C1723 1.465 . S
C1718 C1713 1.399 . S
C1718 C1717 1.394 . S
C1718 C1719 1.516 . S
C1719 C1718 1.516 . S
C1719 C1720 1.502 . S
C1719 C1721 1.561 . S
C1719 C1722 1.526 . S
C1720 H1704 0.959 . S
C1720 H1705 0.959 . S
C1720 H1706 0.961 . S
C1720 C1719 1.502 . S
C1721 H1707 0.960 . S
C1721 H1708 0.961 . S
C1721 H1709 0.959 . S
C1721 C1719 1.561 . S
C1722 C1719 1.526 . S
C1722 C1723 1.396 . S
C1722 C1727 1.390 . S
C1723 C1717 1.465 . S
C1723 C1722 1.396 . S
C1723 C1724 1.399 . S
C1724 H1710 0.929 . S
C1724 C1723 1.399 . S
C1724 C1725 1.385 . S
C1725 H1711 0.931 . S
C1725 C1724 1.385 . S
C1725 C1726 1.389 . S
C1726 C1725 1.389 . S
C1726 C1727 1.387 . S
C1727 H1712 0.930 . S
C1727 C1722 1.390 . S
C1727 C1726 1.387 . S
H1728 C1740 0.930 . S
H1729 C1742 0.930 . S
H1730 C1743 0.930 . S
H1731 C1747 0.959 . S
H1732 C1747 0.959 . S
H1733 C1747 0.961 . S
H1734 C1748 0.960 . S
H1735 C1748 0.961 . S
H1736 C1748 0.959 . S
H1737 C1751 0.929 . S
H1738 C1752 0.931 . S
H1739 C1754 0.930 . S
C1740 H1728 0.930 . S
C1740 C1741 1.399 . S
C1740 C1745 1.399 . S
C1741 C1740 1.399 . S
C1741 C1742 1.376 . S
C1742 H1729 0.930 . S
C1742 C1741 1.376 . S
C1742 C1743 1.388 . S
C1743 H1730 0.930 . S
C1743 C1742 1.388 . S
C1743 C1744 1.390 . S
C1744 C1743 1.390 . S
C1744 C1745 1.394 . S
C1744 C1750 1.465 . S
C1745 C1740 1.399 . S
C1745 C1744 1.394 . S
C1745 C1746 1.516 . S
C1746 C1745 1.516 . S
C1746 C1747 1.502 . S
C1746 C1748 1.561 . S
C1746 C1749 1.526 . S
C1747 H1731 0.959 . S
C1747 H1732 0.959 . S
C1747 H1733 0.961 . S
C1747 C1746 1.502 . S
C1748 H1734 0.960 . S
C1748 H1735 0.961 . S
C1748 H1736 0.959 . S
C1748 C1746 1.561 . S
C1749 C1746 1.526 . S
C1749 C1750 1.396 . S
C1749 C1754 1.390 . S
C1750 C1744 1.465 . S
C1750 C1749 1.396 . S
C1750 C1751 1.399 . S
C1751 H1737 0.929 . S
C1751 C1750 1.399 . S
C1751 C1752 1.385 . S
C1752 H1738 0.931 . S
C1752 C1751 1.385 . S
C1752 C1753 1.389 . S
C1753 C1752 1.389 . S
C1753 C1754 1.387 . S
C1754 H1739 0.930 . S
C1754 C1749 1.390 . S
C1754 C1753 1.387 . S
H1755 C1767 0.930 . S
H1756 C1769 0.930 . S
H1757 C1770 0.930 . S
H1758 C1774 0.959 . S
H1759 C1774 0.959 . S
H1760 C1774 0.961 . S
H1761 C1775 0.960 . S
H1762 C1775 0.961 . S
H1763 C1775 0.959 . S
H1764 C1778 0.929 . S
H1765 C1779 0.931 . S
H1766 C1781 0.930 . S
C1767 H1755 0.930 . S
C1767 C1768 1.399 . S
C1767 C1772 1.399 . S
C1768 C1767 1.399 . S
C1768 C1769 1.376 . S
C1769 H1756 0.930 . S
C1769 C1768 1.376 . S
C1769 C1770 1.388 . S
C1770 H1757 0.930 . S
C1770 C1769 1.388 . S
C1770 C1771 1.390 . S
C1771 C1770 1.390 . S
C1771 C1772 1.394 . S
C1771 C1777 1.465 . S
C1772 C1767 1.399 . S
C1772 C1771 1.394 . S
C1772 C1773 1.516 . S
C1773 C1772 1.516 . S
C1773 C1774 1.502 . S
C1773 C1775 1.561 . S
C1773 C1776 1.526 . S
C1774 H1758 0.959 . S
C1774 H1759 0.959 . S
C1774 H1760 0.961 . S
C1774 C1773 1.502 . S
C1775 H1761 0.960 . S
C1775 H1762 0.961 . S
C1775 H1763 0.959 . S
C1775 C1773 1.561 . S
C1776 C1773 1.526 . S
C1776 C1777 1.396 . S
C1776 C1781 1.390 . S
C1777 C1771 1.465 . S
C1777 C1776 1.396 . S
C1777 C1778 1.399 . S
C1778 H1764 0.929 . S
C1778 C1777 1.399 . S
C1778 C1779 1.385 . S
C1779 H1765 0.931 . S
C1779 C1778 1.385 . S
C1779 C1780 1.389 . S
C1780 C1779 1.389 . S
C1780 C1781 1.387 . S
C1781 H1766 0.930 . S
C1781 C1776 1.390 . S
C1781 C1780 1.387 . S
H1782 C1794 0.930 . S
H1783 C1796 0.930 . S
H1784 C1797 0.930 . S
H1785 C1801 0.959 . S
H1786 C1801 0.959 . S
H1787 C1801 0.961 . S
H1788 C1802 0.960 . S
H1789 C1802 0.961 . S
H1790 C1802 0.959 . S
H1791 C1805 0.929 . S
H1792 C1806 0.931 . S
H1793 C1808 0.930 . S
C1794 H1782 0.930 . S
C1794 C1795 1.399 . S
C1794 C1799 1.399 . S
C1795 C1794 1.399 . S
C1795 C1796 1.376 . S
C1796 H1783 0.930 . S
C1796 C1795 1.376 . S
C1796 C1797 1.388 . S
C1797 H1784 0.930 . S
C1797 C1796 1.388 . S
C1797 C1798 1.390 . S
C1798 C1797 1.390 . S
C1798 C1799 1.394 . S
C1798 C1804 1.465 . S
C1799 C1794 1.399 . S
C1799 C1798 1.394 . S
C1799 C1800 1.516 . S
C1800 C1799 1.516 . S
C1800 C1801 1.502 . S
C1800 C1802 1.561 . S
C1800 C1803 1.526 . S
C1801 H1785 0.959 . S
C1801 H1786 0.959 . S
C1801 H1787 0.961 . S
C1801 C1800 1.502 . S
C1802 H1788 0.960 . S
C1802 H1789 0.961 . S
C1802 H1790 0.959 . S
C1802 C1800 1.561 . S
C1803 C1800 1.526 . S
C1803 C1804 1.396 . S
C1803 C1808 1.390 . S
C1804 C1798 1.465 . S
C1804 C1803 1.396 . S
C1804 C1805 1.399 . S
C1805 H1791 0.929 . S
C1805 C1804 1.399 . S
C1805 C1806 1.385 . S
C1806 H1792 0.931 . S
C1806 C1805 1.385 . S
C1806 C1807 1.389 . S
C1807 C1806 1.389 . S
C1807 C1808 1.387 . S
C1808 H1793 0.930 . S
C1808 C1803 1.390 . S
C1808 C1807 1.387 . S
H1809 C1821 0.930 . S
H1810 C1823 0.930 . S
H1811 C1824 0.930 . S
H1812 C1828 0.959 . S
H1813 C1828 0.959 . S
H1814 C1828 0.961 . S
H1815 C1829 0.960 . S
H1816 C1829 0.961 . S
H1817 C1829 0.959 . S
H1818 C1832 0.929 . S
H1819 C1833 0.931 . S
H1820 C1835 0.930 . S
C1821 H1809 0.930 . S
C1821 C1822 1.399 . S
C1821 C1826 1.399 . S
C1822 C1821 1.399 . S
C1822 C1823 1.376 . S
C1823 H1810 0.930 . S
C1823 C1822 1.376 . S
C1823 C1824 1.388 . S
C1824 H1811 0.930 . S
C1824 C1823 1.388 . S
C1824 C1825 1.390 . S
C1825 C1824 1.390 . S
C1825 C1826 1.394 . S
C1825 C1831 1.465 . S
C1826 C1821 1.399 . S
C1826 C1825 1.394 . S
C1826 C1827 1.516 . S
C1827 C1826 1.516 . S
C1827 C1828 1.502 . S
C1827 C1829 1.561 . S
C1827 C1830 1.526 . S
C1828 H1812 0.959 . S
C1828 H1813 0.959 . S
C1828 H1814 0.961 . S
C1828 C1827 1.502 . S
C1829 H1815 0.960 . S
C1829 H1816 0.961 . S
C1829 H1817 0.959 . S
C1829 C1827 1.561 . S
C1830 C1827 1.526 . S
C1830 C1831 1.396 . S
C1830 C1835 1.390 . S
C1831 C1825 1.465 . S
C1831 C1830 1.396 . S
C1831 C1832 1.399 . S
C1832 H1818 0.929 . S
C1832 C1831 1.399 . S
C1832 C1833 1.385 . S
C1833 H1819 0.931 . S
C1833 C1832 1.385 . S
C1833 C1834 1.389 . S
C1834 C1833 1.389 . S
C1834 C1835 1.387 . S
C1835 H1820 0.930 . S
C1835 C1830 1.390 . S
C1835 C1834 1.387 . S
H1836 C1848 0.930 . S
H1837 C1850 0.930 . S
H1838 C1851 0.930 . S
H1839 C1855 0.959 . S
H1840 C1855 0.959 . S
H1841 C1855 0.961 . S
H1842 C1856 0.960 . S
H1843 C1856 0.961 . S
H1844 C1856 0.959 . S
H1845 C1859 0.929 . S
H1846 C1860 0.931 . S
H1847 C1862 0.930 . S
C1848 H1836 0.930 . S
C1848 C1849 1.399 . S
C1848 C1853 1.399 . S
C1849 C1848 1.399 . S
C1849 C1850 1.376 . S
C1850 H1837 0.930 . S
C1850 C1849 1.376 . S
C1850 C1851 1.388 . S
C1851 H1838 0.930 . S
C1851 C1850 1.388 . S
C1851 C1852 1.390 . S
C1852 C1851 1.390 . S
C1852 C1853 1.394 . S
C1852 C1858 1.465 . S
C1853 C1848 1.399 . S
C1853 C1852 1.394 . S
C1853 C1854 1.516 . S
C1854 C1853 1.516 . S
C1854 C1855 1.502 . S
C1854 C1856 1.561 . S
C1854 C1857 1.526 . S
C1855 H1839 0.959 . S
C1855 H1840 0.959 . S
C1855 H1841 0.961 . S
C1855 C1854 1.502 . S
C1856 H1842 0.960 . S
C1856 H1843 0.961 . S
C1856 H1844 0.959 . S
C1856 C1854 1.561 . S
C1857 C1854 1.526 . S
C1857 C1858 1.396 . S
C1857 C1862 1.390 . S
C1858 C1852 1.465 . S
C1858 C1857 1.396 . S
C1858 C1859 1.399 . S
C1859 H1845 0.929 . S
C1859 C1858 1.399 . S
C1859 C1860 1.385 . S
C1860 H1846 0.931 . S
C1860 C1859 1.385 . S
C1860 C1861 1.389 . S
C1861 C1860 1.389 . S
C1861 C1862 1.387 . S
C1862 H1847 0.930 . S
C1862 C1857 1.390 . S
C1862 C1861 1.387 . S
H1863 C1875 0.930 . S
H1864 C1877 0.930 . S
H1865 C1878 0.930 . S
H1866 C1882 0.959 . S
H1867 C1882 0.959 . S
H1868 C1882 0.961 . S
H1869 C1883 0.960 . S
H1870 C1883 0.961 . S
H1871 C1883 0.959 . S
H1872 C1886 0.929 . S
H1873 C1887 0.931 . S
H1874 C1889 0.930 . S
C1875 H1863 0.930 . S
C1875 C1876 1.399 . S
C1875 C1880 1.399 . S
C1876 C1875 1.399 . S
C1876 C1877 1.376 . S
C1877 H1864 0.930 . S
C1877 C1876 1.376 . S
C1877 C1878 1.388 . S
C1878 H1865 0.930 . S
C1878 C1877 1.388 . S
C1878 C1879 1.390 . S
C1879 C1878 1.390 . S
C1879 C1880 1.394 . S
C1879 C1885 1.465 . S
C1880 C1875 1.399 . S
C1880 C1879 1.394 . S
C1880 C1881 1.516 . S
C1881 C1880 1.516 . S
C1881 C1882 1.502 . S
C1881 C1883 1.561 . S
C1881 C1884 1.526 . S
C1882 H1866 0.959 . S
C1882 H1867 0.959 . S
C1882 H1868 0.961 . S
C1882 C1881 1.502 . S
C1883 H1869 0.960 . S
C1883 H1870 0.961 . S
C1883 H1871 0.959 . S
C1883 C1881 1.561 . S
C1884 C1881 1.526 . S
C1884 C1885 1.396 . S
C1884 C1889 1.390 . S
C1885 C1879 1.465 . S
C1885 C1884 1.396 . S
C1885 C1886 1.399 . S
C1886 H1872 0.929 . S
C1886 C1885 1.399 . S
C1886 C1887 1.385 . S
C1887 H1873 0.931 . S
C1887 C1886 1.385 . S
C1887 C1888 1.389 . S
C1888 C1887 1.389 . S
C1888 C1889 1.387 . S
C1889 H1874 0.930 . S
C1889 C1884 1.390 . S
C1889 C1888 1.387 . S
H1890 C1902 0.930 . S
H1891 C1904 0.930 . S
H1892 C1905 0.930 . S
H1893 C1909 0.959 . S
H1894 C1909 0.959 . S
H1895 C1909 0.961 . S
H1896 C1910 0.960 . S
H1897 C1910 0.961 . S
H1898 C1910 0.959 . S
H1899 C1913 0.929 . S
H1900 C1914 0.931 . S
H1901 C1916 0.930 . S
C1902 H1890 0.930 . S
C1902 C1903 1.399 . S
C1902 C1907 1.399 . S
C1903 C1902 1.399 . S
C1903 C1904 1.376 . S
C1904 H1891 0.930 . S
C1904 C1903 1.376 . S
C1904 C1905 1.388 . S
C1905 H1892 0.930 . S
C1905 C1904 1.388 . S
C1905 C1906 1.390 . S
C1906 C1905 1.390 . S
C1906 C1907 1.394 . S
C1906 C1912 1.465 . S
C1907 C1902 1.399 . S
C1907 C1906 1.394 . S
C1907 C1908 1.516 . S
C1908 C1907 1.516 . S
C1908 C1909 1.502 . S
C1908 C1910 1.561 . S
C1908 C1911 1.526 . S
C1909 H1893 0.959 . S
C1909 H1894 0.959 . S
C1909 H1895 0.961 . S
C1909 C1908 1.502 . S
C1910 H1896 0.960 . S
C1910 H1897 0.961 . S
C1910 H1898 0.959 . S
C1910 C1908 1.561 . S
C1911 C1908 1.526 . S
C1911 C1912 1.396 . S
C1911 C1916 1.390 . S
C1912 C1906 1.465 . S
C1912 C1911 1.396 . S
C1912 C1913 1.399 . S
C1913 H1899 0.929 . S
C1913 C1912 1.399 . S
C1913 C1914 1.385 . S
C1914 H1900 0.931 . S
C1914 C1913 1.385 . S
C1914 C1915 1.389 . S
C1915 C1914 1.389 . S
C1915 C1916 1.387 . S
C1916 H1901 0.930 . S
C1916 C1911 1.390 . S
C1916 C1915 1.387 . S
H1917 C1929 0.930 . S
H1918 C1931 0.930 . S
H1919 C1932 0.930 . S
H1920 C1936 0.959 . S
H1921 C1936 0.959 . S
H1922 C1936 0.961 . S
H1923 C1937 0.960 . S
H1924 C1937 0.961 . S
H1925 C1937 0.959 . S
H1926 C1940 0.929 . S
H1927 C1941 0.931 . S
H1928 C1943 0.930 . S
C1929 H1917 0.930 . S
C1929 C1930 1.399 . S
C1929 C1934 1.399 . S
C1930 C1929 1.399 . S
C1930 C1931 1.376 . S
C1931 H1918 0.930 . S
C1931 C1930 1.376 . S
C1931 C1932 1.388 . S
C1932 H1919 0.930 . S
C1932 C1931 1.388 . S
C1932 C1933 1.390 . S
C1933 C1932 1.390 . S
C1933 C1934 1.394 . S
C1933 C1939 1.465 . S
C1934 C1929 1.399 . S
C1934 C1933 1.394 . S
C1934 C1935 1.516 . S
C1935 C1934 1.516 . S
C1935 C1936 1.502 . S
C1935 C1937 1.561 . S
C1935 C1938 1.526 . S
C1936 H1920 0.959 . S
C1936 H1921 0.959 . S
C1936 H1922 0.961 . S
C1936 C1935 1.502 . S
C1937 H1923 0.960 . S
C1937 H1924 0.961 . S
C1937 H1925 0.959 . S
C1937 C1935 1.561 . S
C1938 C1935 1.526 . S
C1938 C1939 1.396 . S
C1938 C1943 1.390 . S
C1939 C1933 1.465 . S
C1939 C1938 1.396 . S
C1939 C1940 1.399 . S
C1940 H1926 0.929 . S
C1940 C1939 1.399 . S
C1940 C1941 1.385 . S
C1941 H1927 0.931 . S
C1941 C1940 1.385 . S
C1941 C1942 1.389 . S
C1942 C1941 1.389 . S
C1942 C1943 1.387 . S
C1943 H1928 0.930 . S
C1943 C1938 1.390 . S
C1943 C1942 1.387 . S
H1944 C1956 0.930 . S
H1945 C1958 0.930 . S
H1946 C1959 0.930 . S
H1947 C1963 0.959 . S
H1948 C1963 0.959 . S
H1949 C1963 0.961 . S
H1950 C1964 0.960 . S
H1951 C1964 0.961 . S
H1952 C1964 0.959 . S
H1953 C1967 0.929 . S
H1954 C1968 0.931 . S
H1955 C1970 0.930 . S
C1956 H1944 0.930 . S
C1956 C1957 1.399 . S
C1956 C1961 1.399 . S
C1957 C1956 1.399 . S
C1957 C1958 1.376 . S
C1958 H1945 0.930 . S
C1958 C1957 1.376 . S
C1958 C1959 1.388 . S
C1959 H1946 0.930 . S
C1959 C1958 1.388 . S
C1959 C1960 1.390 . S
C1960 C1959 1.390 . S
C1960 C1961 1.394 . S
C1960 C1966 1.465 . S
C1961 C1956 1.399 . S
C1961 C1960 1.394 . S
C1961 C1962 1.516 . S
C1962 C1961 1.516 . S
C1962 C1963 1.502 . S
C1962 C1964 1.561 . S
C1962 C1965 1.526 . S
C1963 H1947 0.959 . S
C1963 H1948 0.959 . S
C1963 H1949 0.961 . S
C1963 C1962 1.502 . S
C1964 H1950 0.960 . S
C1964 H1951 0.961 . S
C1964 H1952 0.959 . S
C1964 C1962 1.561 . S
C1965 C1962 1.526 . S
C1965 C1966 1.396 . S
C1965 C1970 1.390 . S
C1966 C1960 1.465 . S
C1966 C1965 1.396 . S
C1966 C1967 1.399 . S
C1967 H1953 0.929 . S
C1967 C1966 1.399 . S
C1967 C1968 1.385 . S
C1968 H1954 0.931 . S
C1968 C1967 1.385 . S
C1968 C1969 1.389 . S
C1969 C1968 1.389 . S
C1969 C1970 1.387 . S
C1970 H1955 0.930 . S
C1970 C1965 1.390 . S
C1970 C1969 1.387 . S
H1971 C1983 0.930 . S
H1972 C1985 0.930 . S
H1973 C1986 0.930 . S
H1974 C1990 0.959 . S
H1975 C1990 0.959 . S
H1976 C1990 0.961 . S
H1977 C1991 0.960 . S
H1978 C1991 0.961 . S
H1979 C1991 0.959 . S
H1980 C1994 0.929 . S
H1981 C1995 0.931 . S
H1982 C1997 0.930 . S
C1983 H1971 0.930 . S
C1983 C1984 1.399 . S
C1983 C1988 1.399 . S
C1984 C1983 1.399 . S
C1984 C1985 1.376 . S
C1985 H1972 0.930 . S
C1985 C1984 1.376 . S
C1985 C1986 1.388 . S
C1986 H1973 0.930 . S
C1986 C1985 1.388 . S
C1986 C1987 1.390 . S
C1987 C1986 1.390 . S
C1987 C1988 1.394 . S
C1987 C1993 1.465 . S
C1988 C1983 1.399 . S
C1988 C1987 1.394 . S
C1988 C1989 1.516 . S
C1989 C1988 1.516 . S
C1989 C1990 1.502 . S
C1989 C1991 1.561 . S
C1989 C1992 1.526 . S
C1990 H1974 0.959 . S
C1990 H1975 0.959 . S
C1990 H1976 0.961 . S
C1990 C1989 1.502 . S
C1991 H1977 0.960 . S
C1991 H1978 0.961 . S
C1991 H1979 0.959 . S
C1991 C1989 1.561 . S
C1992 C1989 1.526 . S
C1992 C1993 1.396 . S
C1992 C1997 1.390 . S
C1993 C1987 1.465 . S
C1993 C1992 1.396 . S
C1993 C1994 1.399 . S
C1994 H1980 0.929 . S
C1994 C1993 1.399 . S
C1994 C1995 1.385 . S
C1995 H1981 0.931 . S
C1995 C1994 1.385 . S
C1995 C1996 1.389 . S
C1996 C1995 1.389 . S
C1996 C1997 1.387 . S
C1997 H1982 0.930 . S
C1997 C1992 1.390 . S
C1997 C1996 1.387 . S
H1998 C2010 0.930 . S
H1999 C2012 0.930 . S
H2000 C2013 0.930 . S
H2001 C2017 0.959 . S
H2002 C2017 0.959 . S
H2003 C2017 0.961 . S
H2004 C2018 0.960 . S
H2005 C2018 0.961 . S
H2006 C2018 0.959 . S
H2007 C2021 0.929 . S
H2008 C2022 0.931 . S
H2009 C2024 0.930 . S
C2010 H1998 0.930 . S
C2010 C2011 1.399 . S
C2010 C2015 1.399 . S
C2011 C2010 1.399 . S
C2011 C2012 1.376 . S
C2012 H1999 0.930 . S
C2012 C2011 1.376 . S
C2012 C2013 1.388 . S
C2013 H2000 0.930 . S
C2013 C2012 1.388 . S
C2013 C2014 1.390 . S
C2014 C2013 1.390 . S
C2014 C2015 1.394 . S
C2014 C2020 1.465 . S
C2015 C2010 1.399 . S
C2015 C2014 1.394 . S
C2015 C2016 1.516 . S
C2016 C2015 1.516 . S
C2016 C2017 1.502 . S
C2016 C2018 1.561 . S
C2016 C2019 1.526 . S
C2017 H2001 0.959 . S
C2017 H2002 0.959 . S
C2017 H2003 0.961 . S
C2017 C2016 1.502 . S
C2018 H2004 0.960 . S
C2018 H2005 0.961 . S
C2018 H2006 0.959 . S
C2018 C2016 1.561 . S
C2019 C2016 1.526 . S
C2019 C2020 1.396 . S
C2019 C2024 1.390 . S
C2020 C2014 1.465 . S
C2020 C2019 1.396 . S
C2020 C2021 1.399 . S
C2021 H2007 0.929 . S
C2021 C2020 1.399 . S
C2021 C2022 1.385 . S
C2022 H2008 0.931 . S
C2022 C2021 1.385 . S
C2022 C2023 1.389 . S
C2023 C2022 1.389 . S
C2023 C2024 1.387 . S
C2024 H2009 0.930 . S
C2024 C2019 1.390 . S
C2024 C2023 1.387 . S
H2025 C2037 0.930 . S
H2026 C2039 0.930 . S
H2027 C2040 0.930 . S
H2028 C2044 0.959 . S
H2029 C2044 0.959 . S
H2030 C2044 0.961 . S
H2031 C2045 0.960 . S
H2032 C2045 0.961 . S
H2033 C2045 0.959 . S
H2034 C2048 0.929 . S
H2035 C2049 0.931 . S
H2036 C2051 0.930 . S
C2037 H2025 0.930 . S
C2037 C2038 1.399 . S
C2037 C2042 1.399 . S
C2038 C2037 1.399 . S
C2038 C2039 1.376 . S
C2039 H2026 0.930 . S
C2039 C2038 1.376 . S
C2039 C2040 1.388 . S
C2040 H2027 0.930 . S
C2040 C2039 1.388 . S
C2040 C2041 1.390 . S
C2041 C2040 1.390 . S
C2041 C2042 1.394 . S
C2041 C2047 1.465 . S
C2042 C2037 1.399 . S
C2042 C2041 1.394 . S
C2042 C2043 1.516 . S
C2043 C2042 1.516 . S
C2043 C2044 1.502 . S
C2043 C2045 1.561 . S
C2043 C2046 1.526 . S
C2044 H2028 0.959 . S
C2044 H2029 0.959 . S
C2044 H2030 0.961 . S
C2044 C2043 1.502 . S
C2045 H2031 0.960 . S
C2045 H2032 0.961 . S
C2045 H2033 0.959 . S
C2045 C2043 1.561 . S
C2046 C2043 1.526 . S
C2046 C2047 1.396 . S
C2046 C2051 1.390 . S
C2047 C2041 1.465 . S
C2047 C2046 1.396 . S
C2047 C2048 1.399 . S
C2048 H2034 0.929 . S
C2048 C2047 1.399 . S
C2048 C2049 1.385 . S
C2049 H2035 0.931 . S
C2049 C2048 1.385 . S
C2049 C2050 1.389 . S
C2050 C2049 1.389 . S
C2050 C2051 1.387 . S
C2051 H2036 0.930 . S
C2051 C2046 1.390 . S
C2051 C2050 1.387 . S
H2052 C2064 0.930 . S
H2053 C2066 0.930 . S
H2054 C2067 0.930 . S
H2055 C2071 0.959 . S
H2056 C2071 0.959 . S
H2057 C2071 0.961 . S
H2058 C2072 0.960 . S
H2059 C2072 0.961 . S
H2060 C2072 0.959 . S
H2061 C2075 0.929 . S
H2062 C2076 0.931 . S
H2063 C2078 0.930 . S
C2064 H2052 0.930 . S
C2064 C2065 1.399 . S
C2064 C2069 1.399 . S
C2065 C2064 1.399 . S
C2065 C2066 1.376 . S
C2066 H2053 0.930 . S
C2066 C2065 1.376 . S
C2066 C2067 1.388 . S
C2067 H2054 0.930 . S
C2067 C2066 1.388 . S
C2067 C2068 1.390 . S
C2068 C2067 1.390 . S
C2068 C2069 1.394 . S
C2068 C2074 1.465 . S
C2069 C2064 1.399 . S
C2069 C2068 1.394 . S
C2069 C2070 1.516 . S
C2070 C2069 1.516 . S
C2070 C2071 1.502 . S
C2070 C2072 1.561 . S
C2070 C2073 1.526 . S
C2071 H2055 0.959 . S
C2071 H2056 0.959 . S
C2071 H2057 0.961 . S
C2071 C2070 1.502 . S
C2072 H2058 0.960 . S
C2072 H2059 0.961 . S
C2072 H2060 0.959 . S
C2072 C2070 1.561 . S
C2073 C2070 1.526 . S
C2073 C2074 1.396 . S
C2073 C2078 1.390 . S
C2074 C2068 1.465 . S
C2074 C2073 1.396 . S
C2074 C2075 1.399 . S
C2075 H2061 0.929 . S
C2075 C2074 1.399 . S
C2075 C2076 1.385 . S
C2076 H2062 0.931 . S
C2076 C2075 1.385 . S
C2076 C2077 1.389 . S
C2077 C2076 1.389 . S
C2077 C2078 1.387 . S
C2078 H2063 0.930 . S
C2078 C2073 1.390 . S
C2078 C2077 1.387 . S
H2079 C2091 0.930 . S
H2080 C2093 0.930 . S
H2081 C2094 0.930 . S
H2082 C2098 0.959 . S
H2083 C2098 0.959 . S
H2084 C2098 0.961 . S
H2085 C2099 0.960 . S
H2086 C2099 0.961 . S
H2087 C2099 0.959 . S
H2088 C2102 0.929 . S
H2089 C2103 0.931 . S
H2090 C2105 0.930 . S
C2091 H2079 0.930 . S
C2091 C2092 1.399 . S
C2091 C2096 1.399 . S
C2092 C2091 1.399 . S
C2092 C2093 1.376 . S
C2093 H2080 0.930 . S
C2093 C2092 1.376 . S
C2093 C2094 1.388 . S
C2094 H2081 0.930 . S
C2094 C2093 1.388 . S
C2094 C2095 1.390 . S
C2095 C2094 1.390 . S
C2095 C2096 1.394 . S
C2095 C2101 1.465 . S
C2096 C2091 1.399 . S
C2096 C2095 1.394 . S
C2096 C2097 1.516 . S
C2097 C2096 1.516 . S
C2097 C2098 1.502 . S
C2097 C2099 1.561 . S
C2097 C2100 1.526 . S
C2098 H2082 0.959 . S
C2098 H2083 0.959 . S
C2098 H2084 0.961 . S
C2098 C2097 1.502 . S
C2099 H2085 0.960 . S
C2099 H2086 0.961 . S
C2099 H2087 0.959 . S
C2099 C2097 1.561 . S
C2100 C2097 1.526 . S
C2100 C2101 1.396 . S
C2100 C2105 1.390 . S
C2101 C2095 1.465 . S
C2101 C2100 1.396 . S
C2101 C2102 1.399 . S
C2102 H2088 0.929 . S
C2102 C2101 1.399 . S
C2102 C2103 1.385 . S
C2103 H2089 0.931 . S
C2103 C2102 1.385 . S
C2103 C2104 1.389 . S
C2104 C2103 1.389 . S
C2104 C2105 1.387 . S
C2105 H2090 0.930 . S
C2105 C2100 1.390 . S
C2105 C2104 1.387 . S
H2106 C2118 0.930 . S
H2107 C2120 0.930 . S
H2108 C2121 0.930 . S
H2109 C2125 0.959 . S
H2110 C2125 0.959 . S
H2111 C2125 0.961 . S
H2112 C2126 0.960 . S
H2113 C2126 0.961 . S
H2114 C2126 0.959 . S
H2115 C2129 0.929 . S
H2116 C2130 0.931 . S
H2117 C2132 0.930 . S
C2118 H2106 0.930 . S
C2118 C2119 1.399 . S
C2118 C2123 1.399 . S
C2119 C2118 1.399 . S
C2119 C2120 1.376 . S
C2120 H2107 0.930 . S
C2120 C2119 1.376 . S
C2120 C2121 1.388 . S
C2121 H2108 0.930 . S
C2121 C2120 1.388 . S
C2121 C2122 1.390 . S
C2122 C2121 1.390 . S
C2122 C2123 1.394 . S
C2122 C2128 1.465 . S
C2123 C2118 1.399 . S
C2123 C2122 1.394 . S
C2123 C2124 1.516 . S
C2124 C2123 1.516 . S
C2124 C2125 1.502 . S
C2124 C2126 1.561 . S
C2124 C2127 1.526 . S
C2125 H2109 0.959 . S
C2125 H2110 0.959 . S
C2125 H2111 0.961 . S
C2125 C2124 1.502 . S
C2126 H2112 0.960 . S
C2126 H2113 0.961 . S
C2126 H2114 0.959 . S
C2126 C2124 1.561 . S
C2127 C2124 1.526 . S
C2127 C2128 1.396 . S
C2127 C2132 1.390 . S
C2128 C2122 1.465 . S
C2128 C2127 1.396 . S
C2128 C2129 1.399 . S
C2129 H2115 0.929 . S
C2129 C2128 1.399 . S
C2129 C2130 1.385 . S
C2130 H2116 0.931 . S
C2130 C2129 1.385 . S
C2130 C2131 1.389 . S
C2131 C2130 1.389 . S
C2131 C2132 1.387 . S
C2132 H2117 0.930 . S
C2132 C2127 1.390 . S
C2132 C2131 1.387 . S
H2133 C2145 0.930 . S
H2134 C2147 0.930 . S
H2135 C2148 0.930 . S
H2136 C2152 0.959 . S
H2137 C2152 0.959 . S
H2138 C2152 0.961 . S
H2139 C2153 0.960 . S
H2140 C2153 0.961 . S
H2141 C2153 0.959 . S
H2142 C2156 0.929 . S
H2143 C2157 0.931 . S
H2144 C2159 0.930 . S
C2145 H2133 0.930 . S
C2145 C2146 1.399 . S
C2145 C2150 1.399 . S
C2146 C2145 1.399 . S
C2146 C2147 1.376 . S
C2147 H2134 0.930 . S
C2147 C2146 1.376 . S
C2147 C2148 1.388 . S
C2148 H2135 0.930 . S
C2148 C2147 1.388 . S
C2148 C2149 1.390 . S
C2149 C2148 1.390 . S
C2149 C2150 1.394 . S
C2149 C2155 1.465 . S
C2150 C2145 1.399 . S
C2150 C2149 1.394 . S
C2150 C2151 1.516 . S
C2151 C2150 1.516 . S
C2151 C2152 1.502 . S
C2151 C2153 1.561 . S
C2151 C2154 1.526 . S
C2152 H2136 0.959 . S
C2152 H2137 0.959 . S
C2152 H2138 0.961 . S
C2152 C2151 1.502 . S
C2153 H2139 0.960 . S
C2153 H2140 0.961 . S
C2153 H2141 0.959 . S
C2153 C2151 1.561 . S
C2154 C2151 1.526 . S
C2154 C2155 1.396 . S
C2154 C2159 1.390 . S
C2155 C2149 1.465 . S
C2155 C2154 1.396 . S
C2155 C2156 1.399 . S
C2156 H2142 0.929 . S
C2156 C2155 1.399 . S
C2156 C2157 1.385 . S
C2157 H2143 0.931 . S
C2157 C2156 1.385 . S
C2157 C2158 1.389 . S
C2158 C2157 1.389 . S
C2158 C2159 1.387 . S
C2159 H2144 0.930 . S
C2159 C2154 1.390 . S
C2159 C2158 1.387 . S
C877 C544 1.252 . S
C889 C4 1.251 . S
C904 C446 1.340 . S
C916 C50 1.329 . S
C931 C472 1.331 . S
C943 C86 1.255 . S
C958 C518 1.291 . S
C970 C112 1.273 . S
C985 C508 1.234 . S
C997 C40 1.213 . S
C1012 C76 1.186 . S
C1024 C554 1.161 . S
C1039 C436 1.311 . S
C1051 C122 1.306 . S
C1066 C482 1.261 . S
C1078 C14 1.248 . S
C1093 C662 1.456 . S
C1105 C158 1.455 . S
C1120 C184 1.118 . S
C1132 C688 1.119 . S
C1147 C230 1.416 . S
C1159 C590 1.430 . S
C1174 C616 1.121 . S
C1186 C256 1.121 . S
C1201 C796 1.122 . S
C1213 C292 1.112 . S
C1228 C338 1.422 . S
C1240 C832 1.403 . S
C1255 C364 1.144 . S
C1267 C724 1.133 . S
C1282 C410 1.464 . S
C1294 C760 1.457 . S
C1309 C626 1.280 . S
C1321 C400 1.247 . S
C1336 C842 1.365 . S
C1348 C194 1.375 . S
C1363 C220 1.367 . S
C1375 C734 1.321 . S
C1390 C770 1.241 . S
C1402 C266 1.211 . S
C1417 C806 1.142 . S
C1429 C148 1.236 . S
C1444 C328 1.162 . S
C1456 C698 1.142 . S
C1471 C580 1.357 . S
C1483 C374 1.250 . S
C1498 C652 1.213 . S
C1510 C302 1.235 . S
C1525 C3 0.935 . S
C1537 C147 0.866 . S
C1552 C182 0.949 . S
C1564 C38 0.857 . S
C1579 C74 0.965 . S
C1591 C219 0.911 . S
C1606 C111 0.809 . S
C1618 C254 0.848 . S
C1633 C290 0.919 . S
C1645 C39 0.921 . S
C1660 C327 0.800 . S
C1672 C75 0.757 . S
C1687 C362 0.979 . S
C1699 C110 0.972 . S
C1714 C2 0.748 . S
C1726 C399 0.808 . S
C1741 C398 0.979 . S
C1753 C146 1.068 . S
C1768 C183 0.761 . S
C1780 C291 0.744 . S
C1795 C218 1.062 . S
C1807 C326 1.071 . S
C1822 C363 0.798 . S
C1834 C255 0.784 . S
C1849 C579 0.890 . S
C1861 C435 0.988 . S
C1876 C614 0.903 . S
C1888 C470 0.986 . S
C1903 C507 0.882 . S
C1915 C651 0.888 . S
C1930 C542 0.902 . S
C1942 C686 0.828 . S
C1957 C471 0.861 . S
C1969 C722 0.866 . S
C1984 C506 0.869 . S
C1996 C758 0.973 . S
C2011 C794 0.865 . S
C2023 C543 0.805 . S
C2038 C434 1.035 . S
C2050 C830 0.979 . S
C2065 C578 1.008 . S
C2077 C831 0.959 . S
C2092 C723 0.708 . S
C2104 C615 0.755 . S
C2119 C650 0.896 . S
C2131 C759 1.018 . S
C2146 C795 0.676 . S
C2158 C687 0.741 . S
