# Generated by pormake.
# Topology une, (4)-cn, num edge types: 1
# Building blocks:
#     Node 0, Type 0, BuildingBlock: KUFVIS_clean_sbu_0, # of connection points: 4
#     Node 1, Type 0, BuildingBlock: KUFVIS_clean_sbu_0, # of connection points: 4
#     Node 2, Type 0, BuildingBlock: KUFVIS_clean_sbu_0, # of connection points: 4
#     Node 3, Type 0, BuildingBlock: KUFVIS_clean_sbu_0, # of connection points: 4
#     Node 4, Type 0, BuildingBlock: KUFVIS_clean_sbu_0, # of connection points: 4
#     Node 5, Type 0, BuildingBlock: KUFVIS_clean_sbu_0, # of connection points: 4
#     Node 6, Type 0, BuildingBlock: KUFVIS_clean_sbu_0, # of connection points: 4
#     Node 7, Type 0, BuildingBlock: KUFVIS_clean_sbu_0, # of connection points: 4
#     Node 8, Type 0, BuildingBlock: KUFVIS_clean_sbu_0, # of connection points: 4
#     Node 9, Type 0, BuildingBlock: KUFVIS_clean_sbu_0, # of connection points: 4
#     Node 10, Type 0, BuildingBlock: KUFVIS_clean_sbu_0, # of connection points: 4
#     Node 11, Type 0, BuildingBlock: KUFVIS_clean_sbu_0, # of connection points: 4
#     Node 12, Type 0, BuildingBlock: KUFVIS_clean_sbu_0, # of connection points: 4
#     Node 13, Type 0, BuildingBlock: KUFVIS_clean_sbu_0, # of connection points: 4
#     Node 14, Type 0, BuildingBlock: KUFVIS_clean_sbu_0, # of connection points: 4
#     Node 15, Type 0, BuildingBlock: KUFVIS_clean_sbu_0, # of connection points: 4
#     Node 16, Type 0, BuildingBlock: KUFVIS_clean_sbu_0, # of connection points: 4
#     Node 17, Type 0, BuildingBlock: KUFVIS_clean_sbu_0, # of connection points: 4
#     Edge 18, Type (0, 0), BuildingBlock: XUDNAN_clean_linker_2, # of connection points: 2
#     Edge 19, Type (0, 0), BuildingBlock: XUDNAN_clean_linker_2, # of connection points: 2
#     Edge 20, Type (0, 0), BuildingBlock: XUDNAN_clean_linker_2, # of connection points: 2
#     Edge 21, Type (0, 0), BuildingBlock: XUDNAN_clean_linker_2, # of connection points: 2
#     Edge 22, Type (0, 0), BuildingBlock: XUDNAN_clean_linker_2, # of connection points: 2
#     Edge 23, Type (0, 0), BuildingBlock: XUDNAN_clean_linker_2, # of connection points: 2
#     Edge 24, Type (0, 0), BuildingBlock: XUDNAN_clean_linker_2, # of connection points: 2
#     Edge 25, Type (0, 0), BuildingBlock: XUDNAN_clean_linker_2, # of connection points: 2
#     Edge 26, Type (0, 0), BuildingBlock: XUDNAN_clean_linker_2, # of connection points: 2
#     Edge 27, Type (0, 0), BuildingBlock: XUDNAN_clean_linker_2, # of connection points: 2
#     Edge 28, Type (0, 0), BuildingBlock: XUDNAN_clean_linker_2, # of connection points: 2
#     Edge 29, Type (0, 0), BuildingBlock: XUDNAN_clean_linker_2, # of connection points: 2
#     Edge 30, Type (0, 0), BuildingBlock: XUDNAN_clean_linker_2, # of connection points: 2
#     Edge 31, Type (0, 0), BuildingBlock: XUDNAN_clean_linker_2, # of connection points: 2
#     Edge 32, Type (0, 0), BuildingBlock: XUDNAN_clean_linker_2, # of connection points: 2
#     Edge 33, Type (0, 0), BuildingBlock: XUDNAN_clean_linker_2, # of connection points: 2
#     Edge 34, Type (0, 0), BuildingBlock: XUDNAN_clean_linker_2, # of connection points: 2
#     Edge 35, Type (0, 0), BuildingBlock: XUDNAN_clean_linker_2, # of connection points: 2
#     Edge 36, Type (0, 0), BuildingBlock: XUDNAN_clean_linker_2, # of connection points: 2
#     Edge 37, Type (0, 0), BuildingBlock: XUDNAN_clean_linker_2, # of connection points: 2
#     Edge 38, Type (0, 0), BuildingBlock: XUDNAN_clean_linker_2, # of connection points: 2
#     Edge 39, Type (0, 0), BuildingBlock: XUDNAN_clean_linker_2, # of connection points: 2
#     Edge 40, Type (0, 0), BuildingBlock: XUDNAN_clean_linker_2, # of connection points: 2
#     Edge 41, Type (0, 0), BuildingBlock: XUDNAN_clean_linker_2, # of connection points: 2
#     Edge 42, Type (0, 0), BuildingBlock: XUDNAN_clean_linker_2, # of connection points: 2
#     Edge 43, Type (0, 0), BuildingBlock: XUDNAN_clean_linker_2, # of connection points: 2
#     Edge 44, Type (0, 0), BuildingBlock: XUDNAN_clean_linker_2, # of connection points: 2
#     Edge 45, Type (0, 0), BuildingBlock: XUDNAN_clean_linker_2, # of connection points: 2
#     Edge 46, Type (0, 0), BuildingBlock: XUDNAN_clean_linker_2, # of connection points: 2
#     Edge 47, Type (0, 0), BuildingBlock: XUDNAN_clean_linker_2, # of connection points: 2
#     Edge 48, Type (0, 0), BuildingBlock: XUDNAN_clean_linker_2, # of connection points: 2
#     Edge 49, Type (0, 0), BuildingBlock: XUDNAN_clean_linker_2, # of connection points: 2
#     Edge 50, Type (0, 0), BuildingBlock: XUDNAN_clean_linker_2, # of connection points: 2
#     Edge 51, Type (0, 0), BuildingBlock: XUDNAN_clean_linker_2, # of connection points: 2
#     Edge 52, Type (0, 0), BuildingBlock: XUDNAN_clean_linker_2, # of connection points: 2
#     Edge 53, Type (0, 0), BuildingBlock: XUDNAN_clean_linker_2, # of connection points: 2
# Relax obj value: 0.248
# Max RMSD: 0.168
# Mean RMSD: 0.159
data_MOF--net-une--node1-KUFVIS_clean_sbu_0--edge1-XUDNAN_clean_linker_2
_symmetry_space_group_name_H-M    P1
_symmetry_Int_Tables_number       1
_symmetry_cell_setting            triclinic
loop_
_symmetry_equiv_pos_as_xyz
'x, y, z'
_cell_length_a     37.609469
_cell_length_b     38.573373
_cell_length_c     52.504717
_cell_angle_alpha  89.546564
_cell_angle_beta   89.240737
_cell_angle_gamma 119.66291
loop_
_atom_site_label
_atom_site_type_symbol
_atom_site_fract_x
_atom_site_fract_y
_atom_site_fract_z
_atom_type_partial_charge
Mn0 Mn 0.37638 0.08498 0.09504 0.0
Mn1 Mn 0.44701 0.12057 0.04716 0.0
C2 C 0.37858 0.13347 0.06722 0.0
C3 C 0.35863 0.08917 0.13758 0.0
C4 C 0.36875 0.03996 0.04691 0.0
O5 O 0.41202 0.05815 0.10105 0.0
O6 O 0.46337 0.10356 0.0782 0.0
C7 C 0.51131 0.19177 0.07283 0.0
N8 N 0.48572 0.17543 0.05289 0.0
C9 C 0.50979 0.24007 0.03334 0.0
C10 C 0.53644 0.25756 0.05363 0.0
C11 C 0.53714 0.2333 0.07348 0.0
C12 C 0.48449 0.19856 0.03384 0.0
H13 H 0.51194 0.17329 0.08818 0.0
C14 C 0.44441 0.06838 0.0875 0.0
O15 O 0.33894 0.05654 0.12479 0.0
O16 O 0.39156 0.11752 0.12674 0.0
N17 N 0.43351 0.1394 0.01695 0.0
C18 C 0.40823 0.1177 0.99786 0.0
C19 C 0.40465 0.13747 0.97631 0.0
C20 C 0.42773 0.17925 0.97432 0.0
C21 C 0.45483 0.2008 0.99368 0.0
C22 C 0.45721 0.17946 0.01467 0.0
H23 H 0.39069 0.08556 0.99908 0.0
O24 O 0.34823 0.11466 0.0831 0.0
O25 O 0.4082 0.12581 0.06936 0.0
O26 O 0.35146 0.04554 0.06636 0.0
O27 O 0.40581 0.06406 0.0396 0.0
C28 C 0.48003 0.24258 0.99277 0.0
C29 C 0.50743 0.26221 0.01261 0.0
H30 H 0.55651 0.28957 0.05415 0.0
H31 H 0.55758 0.24658 0.08923 0.0
H32 H 0.38413 0.12054 0.96127 0.0
H33 H 0.42478 0.19441 0.95772 0.0
H34 H 0.47867 0.2599 0.97685 0.0
H35 H 0.52662 0.29436 1.01171 0.0
Mn36 Mn 0.91614 0.28462 0.04935 0.0
Mn37 Mn 0.90197 0.30037 0.98766 0.0
C38 C 0.87051 0.23277 0.02448 0.0
C39 C 0.89584 0.26988 0.0923 0.0
C40 C 0.97418 0.29363 1.00542 0.0
O41 O 0.94152 0.3462 0.0478 0.0
O42 O 0.93016 0.35148 1.00604 0.0
C43 C 0.84258 0.32851 0.99656 0.0
N44 N 0.85251 0.30267 0.98531 0.0
C45 C 0.78719 0.2684 0.96503 0.0
C46 C 0.77648 0.29498 0.97615 0.0
C47 C 0.80427 0.32511 0.99203 0.0
C48 C 0.82598 0.27353 0.97002 0.0
H49 H 0.86364 0.35138 1.00902 0.0
C50 C 0.94439 0.36691 0.02768 0.0
O51 O 0.93323 0.28143 0.08499 0.0
O52 O 0.87345 0.275 0.07573 0.0
N53 N 0.87478 0.25325 0.96773 0.0
C54 C 0.88873 0.22843 0.95992 0.0
C55 C 0.86384 0.1956 0.94481 0.0
C56 C 0.82508 0.18886 0.93769 0.0
C57 C 0.81163 0.21513 0.94567 0.0
C58 C 0.83787 0.24748 0.96059 0.0
H59 H 0.91839 0.23333 0.96549 0.0
O60 O 0.88705 0.22604 0.04391 0.0
O61 O 0.88147 0.26986 0.01964 0.0
O62 O 0.96484 0.28976 0.02903 0.0
O63 O 0.95303 0.29757 0.98802 0.0
C64 C 0.77276 0.20985 0.94001 0.0
C65 C 0.76055 0.23647 0.94968 0.0
H66 H 0.74682 0.29224 0.97289 0.0
H67 H 0.79609 0.34552 1.00086 0.0
H68 H 0.87437 0.17539 0.9388 0.0
H69 H 0.80577 0.16323 0.92629 0.0
H70 H 0.75175 0.18505 0.92858 0.0
H71 H 0.73035 0.23174 0.94551 0.0
Mn72 Mn 0.72434 0.62505 0.06814 0.0
Mn73 Mn 0.72223 0.61197 1.00476 0.0
C74 C 0.78414 0.65741 0.04354 0.0
C75 C 0.73938 0.62032 0.111 0.0
C76 C 0.70038 0.6683 0.02871 0.0
O77 O 0.66797 0.57426 0.06508 0.0
O78 O 0.66914 0.57678 0.02223 0.0
C79 C 0.7107 0.53025 1.00748 0.0
N80 N 0.73104 0.56824 0.99791 0.0
C81 C 0.76539 0.55034 0.96609 0.0
C82 C 0.745 0.51102 0.97565 0.0
C83 C 0.7179 0.50105 0.99664 0.0
C84 C 0.75834 0.57847 0.97841 0.0
H85 H 0.68881 0.52223 0.02302 0.0
C86 C 0.65042 0.56273 0.04351 0.0
O87 O 0.71547 0.63405 0.10445 0.0
O88 O 0.74878 0.60296 0.09313 0.0
N89 N 0.76982 0.64298 0.98396 0.0
C90 C 0.78686 0.68221 0.97714 0.0
C91 C 0.81368 0.69689 0.95598 0.0
C92 C 0.82199 0.67092 0.94173 0.0
C93 C 0.80418 0.63071 0.94914 0.0
C94 C 0.77821 0.61793 0.97063 0.0
H95 H 0.77898 0.70181 0.98728 0.0
O96 O 0.77912 0.67201 0.06447 0.0
O97 O 0.7532 0.62353 0.03657 0.0
O98 O 0.69921 0.65546 0.05123 0.0
O99 O 0.71312 0.65757 1.00941 0.0
C100 C 0.81043 0.60259 0.9357 0.0
C101 C 0.7916 0.56256 0.94445 0.0
H102 H 0.74966 0.48819 0.96692 0.0
H103 H 0.70188 0.47073 1.00406 0.0
H104 H 0.82691 0.72789 0.95021 0.0
H105 H 0.84168 0.68201 0.92495 0.0
H106 H 0.83027 0.61161 0.91894 0.0
H107 H 0.79722 0.54137 0.93427 0.0
Mn108 Mn 0.59088 0.8945 0.95804 0.0
Mn109 Mn 0.59591 0.89936 0.02231 0.0
C110 C 0.62201 0.86584 0.98103 0.0
C111 C 0.56827 0.86027 0.91968 0.0
C112 C 0.6489 0.96894 0.98747 0.0
O113 O 0.54472 0.90739 0.96698 0.0
O114 O 0.5541 0.91199 1.0098 0.0
C115 C 0.51413 0.83094 0.03519 0.0
N116 N 0.55561 0.84945 0.03696 0.0
C117 C 0.55135 0.7963 0.0635 0.0
C118 C 0.50856 0.7768 0.06208 0.0
C119 C 0.4899 0.7942 0.04785 0.0
C120 C 0.57389 0.83311 0.05075 0.0
H121 H 0.49968 0.84407 0.02415 0.0
C122 C 0.53647 0.91443 0.98968 0.0
O123 O 0.58952 0.89901 0.92 0.0
O124 O 0.55412 0.84251 0.94156 0.0
N125 N 0.63526 0.88718 0.03635 0.0
C126 C 0.67685 0.90819 0.03402 0.0
C127 C 0.70021 0.89385 0.04611 0.0
C128 C 0.6806 0.8582 0.06054 0.0
C129 C 0.63777 0.83718 0.06272 0.0
C130 C 0.6161 0.85308 0.0504 0.0
H131 H 0.69202 0.93543 0.02277 0.0
O132 O 0.63381 0.87819 0.95785 0.0
O133 O 0.59431 0.87282 0.9906 0.0
O134 O 0.63294 0.95189 0.96672 0.0
O135 O 0.63886 0.95178 1.0093 0.0
C136 C 0.6157 0.80054 0.07607 0.0
C137 C 0.57252 0.78014 0.07649 0.0
H138 H 0.48977 0.74826 0.0716 0.0
H139 H 0.45691 0.77923 0.04655 0.0
H140 H 0.73324 0.91009 0.0442 0.0
H141 H 0.6987 0.84704 0.06965 0.0
H142 H 0.63162 0.78746 0.08572 0.0
H143 H 0.5559 0.75169 0.08647 0.0
Mn144 Mn 0.10081 0.70956 0.95945 0.0
Mn145 Mn 0.07444 0.77952 0.94519 0.0
C146 C 0.0575 0.7202 0.98621 0.0
C147 C 0.08679 0.64296 0.9621 0.0
C148 C 0.15469 0.79941 0.96871 0.0
O149 O 0.11766 0.72075 0.92123 0.0
O150 O 0.10227 0.76998 0.91633 0.0
C151 C 0.01173 0.72967 0.908 0.0
N152 N 0.02226 0.75189 0.92948 0.0
C153 C 0.95416 0.74175 0.93479 0.0
C154 C 0.94262 0.71894 0.91264 0.0
C155 C 0.97147 0.71261 0.89931 0.0
C156 C 0.99436 0.75697 0.94295 0.0
H157 H 0.03387 0.72502 0.89758 0.0
C158 C 0.11739 0.74891 0.90815 0.0
O159 O 0.12362 0.67271 0.96483 0.0
O160 O 0.05971 0.65203 0.95453 0.0
N161 N 0.04718 0.79334 0.97084 0.0
C162 C 0.06466 0.821 0.98938 0.0
C163 C 0.04054 0.83235 1.00385 0.0
C164 C 0.99891 0.8163 0.99847 0.0
C165 C 0.9821 0.78975 0.97831 0.0
C166 C 0.0077 0.77947 0.9646 0.0
H167 H 0.09677 0.83436 0.99309 0.0
O168 O 0.07798 0.70405 0.99487 0.0
O169 O 0.06259 0.7296 0.96214 0.0
O170 O 0.15002 0.76429 0.96764 0.0
O171 O 0.12755 0.80839 0.96214 0.0
C172 C 0.94149 0.77461 0.97052 0.0
C173 C 0.92765 0.75078 0.94874 0.0
H174 H 0.91179 0.70633 0.90562 0.0
H175 H 0.9628 0.69497 0.88223 0.0
H176 H 0.05409 0.8537 0.01894 0.0
H177 H 0.9804 0.82526 1.00955 0.0
H178 H 0.92095 0.78197 0.98075 0.0
H179 H 0.89702 0.74073 0.94238 0.0
Mn180 Mn 0.30967 0.37139 0.94151 0.0
Mn181 Mn 0.30143 0.38374 1.00464 0.0
C182 C 0.24685 0.34018 0.96252 0.0
C183 C 0.30074 0.38122 0.8985 0.0
C184 C 0.32868 0.32805 0.98353 0.0
O185 O 0.36666 0.42068 0.94874 0.0
O186 O 0.35567 0.42378 0.99094 0.0
C187 C 0.30262 0.46086 1.00018 0.0
N188 N 0.28378 0.42216 1.00845 0.0
C189 C 0.22874 0.42799 0.02788 0.0
C190 C 0.24781 0.46807 0.01986 0.0
C191 C 0.28477 0.48448 1.00578 0.0
C192 C 0.24764 0.40577 0.02137 0.0
H193 H 0.33097 0.47352 0.98933 0.0
C194 C 0.37864 0.43574 0.97095 0.0
O195 O 0.3221 0.36467 0.90527 0.0
O196 O 0.29182 0.3988 0.91642 0.0
N197 N 0.25041 0.34685 0.02078 0.0
C198 C 0.23674 0.30817 0.02791 0.0
C199 C 0.19969 0.28712 0.04176 0.0
C200 C 0.17764 0.30633 0.04867 0.0
C201 C 0.19314 0.3466 0.04197 0.0
C202 C 0.23007 0.36595 0.02803 0.0
H203 H 0.25382 0.29341 0.02289 0.0
O204 O 0.25238 0.32607 0.94157 0.0
O205 O 0.27805 0.37236 0.97074 0.0
O206 O 0.32767 0.33638 0.96013 0.0
O207 O 0.31877 0.3432 1.00198 0.0
C208 C 0.17383 0.36851 0.04902 0.0
C209 C 0.19175 0.40924 0.04211 0.0
H210 H 0.23425 0.48645 0.02429 0.0
H211 H 0.29954 0.51531 0.99935 0.0
H212 H 0.18822 0.2562 0.04715 0.0
H213 H 0.14913 0.29003 0.05939 0.0
H214 H 0.14525 0.35436 0.05982 0.0
H215 H 0.17656 0.42575 0.04758 0.0
Mn216 Mn 0.01289 0.39817 0.41894 0.0
Mn217 Mn 0.0586 0.42264 0.36021 0.0
C218 C 0.01357 0.44883 0.39473 0.0
C219 C 0.0075 0.40683 0.46283 0.0
C220 C 0.97511 0.35159 0.37031 0.0
O221 O 0.04856 0.37072 0.41944 0.0
O222 O 0.07555 0.38961 0.37968 0.0
C223 C 0.14334 0.475 0.37722 0.0
N224 N 0.11106 0.46934 0.36287 0.0
C225 C 0.14907 0.53576 0.34498 0.0
C226 C 0.18282 0.54224 0.35946 0.0
C227 C 0.17989 0.51176 0.3757 0.0
C228 C 0.11347 0.49853 0.34729 0.0
H229 H 0.14117 0.45164 0.38972 0.0
C230 C 0.07106 0.37077 0.40069 0.0
O231 O 0.98348 0.3734 0.45186 0.0
O232 O 0.0385 0.43291 0.4492 0.0
N233 N 0.04511 0.45459 0.33879 0.0
C234 C 0.00963 0.4436 0.32631 0.0
C235 C 0.00742 0.47065 0.30927 0.0
C236 C 0.04168 0.50864 0.30515 0.0
C237 C 0.07814 0.51895 0.31778 0.0
C238 C 0.07871 0.49051 0.33425 0.0
H239 H 0.98324 0.41438 0.32931 0.0
O240 O 0.98578 0.43038 0.41226 0.0
O241 O 0.04048 0.43736 0.39157 0.0
O242 O 0.97459 0.35621 0.39426 0.0
O243 O 0.00469 0.37477 0.35544 0.0
C244 C 0.1138 0.55646 0.31489 0.0
C245 C 0.14919 0.56491 0.32855 0.0
H246 H 0.21105 0.57057 0.35838 0.0
H247 H 0.20576 0.51658 0.387 0.0
H248 H 0.97938 0.46213 0.29927 0.0
H249 H 0.03967 0.52959 0.29222 0.0
H250 H 0.11421 0.57915 0.3024 0.0
H251 H 0.17629 0.59399 0.32637 0.0
Mn252 Mn 0.57958 0.62685 0.39591 0.0
Mn253 Mn 0.54489 0.63206 0.3376 0.0
C254 C 0.52674 0.57093 0.3777 0.0
C255 C 0.57516 0.62038 0.44032 0.0
C256 C 0.62018 0.62571 0.34528 0.0
O257 O 0.6049 0.68812 0.391 0.0
O258 O 0.58205 0.68567 0.35116 0.0
C259 C 0.49442 0.6671 0.35493 0.0
N260 N 0.49756 0.63762 0.3428 0.0
C261 C 0.42572 0.60319 0.33355 0.0
C262 C 0.42176 0.63329 0.34585 0.0
C263 C 0.45626 0.66535 0.3566 0.0
C264 C 0.46452 0.60656 0.33248 0.0
H265 H 0.52081 0.69171 0.36331 0.0
C266 C 0.60326 0.70518 0.3702 0.0
O267 O 0.60908 0.62993 0.42804 0.0
O268 O 0.54698 0.62221 0.42732 0.0
N269 N 0.50862 0.58263 0.32189 0.0
C270 C 0.5179 0.55666 0.31013 0.0
C271 C 0.48688 0.52314 0.29812 0.0
C272 C 0.44674 0.51678 0.29817 0.0
C273 C 0.4382 0.54457 0.30974 0.0
C274 C 0.4705 0.57772 0.3211 0.0
H275 H 0.5487 0.56138 0.31002 0.0
O276 O 0.5492 0.56761 0.39485 0.0
O277 O 0.53535 0.60701 0.37146 0.0
O278 O 0.62017 0.62837 0.36941 0.0
O279 O 0.59286 0.62526 0.33092 0.0
C280 C 0.39891 0.54064 0.3105 0.0
C281 C 0.39265 0.56987 0.32247 0.0
H282 H 0.39237 0.63202 0.34721 0.0
H283 H 0.45343 0.68863 0.36618 0.0
H284 H 0.49395 0.5023 0.28881 0.0
H285 H 0.42281 0.49065 0.28912 0.0
H286 H 0.37327 0.51519 0.30201 0.0
H287 H 0.36227 0.56643 0.32303 0.0
Mn288 Mn 0.37755 0.93333 0.41462 0.0
Mn289 Mn 0.3641 0.91602 0.35104 0.0
C290 C 0.43161 0.94266 0.38843 0.0
C291 C 0.38899 0.92076 0.45655 0.0
C292 C 0.37286 0.99006 0.3756 0.0
O293 O 0.31406 0.89948 0.41252 0.0
O294 O 0.31141 0.89118 0.36985 0.0
C295 C 0.33205 0.82878 0.35329 0.0
N296 N 0.359 0.86546 0.34342 0.0
C297 C 0.38738 0.83735 0.31426 0.0
C298 C 0.35959 0.79917 0.3239 0.0
C299 C 0.33194 0.79491 0.34359 0.0
C300 C 0.38592 0.86995 0.32462 0.0
H301 H 0.31086 0.82548 0.36844 0.0
C302 C 0.29417 0.88606 0.39174 0.0
O303 O 0.37892 0.94766 0.45124 0.0
O304 O 0.38437 0.89623 0.43839 0.0
N305 N 0.41213 0.93814 0.32972 0.0
C306 C 0.43927 0.97719 0.32428 0.0
C307 C 0.47032 0.98678 0.30587 0.0
C308 C 0.47268 0.9562 0.29296 0.0
C309 C 0.44396 0.91626 0.29855 0.0
C310 C 0.41372 0.9085 0.31709 0.0
H311 H 0.43735 1.00076 0.33405 0.0
O312 O 0.43779 0.96152 0.40958 0.0
O313 O 0.39365 0.91887 0.38249 0.0
O314 O 0.3754 0.98026 0.39837 0.0
O315 O 0.3691 0.96878 0.3563 0.0
C316 C 0.44523 0.88385 0.28728 0.0
C317 C 0.41702 0.84442 0.29518 0.0
H318 H 0.35953 0.77299 0.31655 0.0
H319 H 0.31061 0.76558 0.35125 0.0
H320 H 0.49236 0.01765 0.30168 0.0
H321 H 0.49712 0.96358 0.27918 0.0
H322 H 0.46841 0.88896 0.27297 0.0
H323 H 0.41883 0.81978 0.28675 0.0
Mn324 Mn 0.27595 0.22386 0.31529 0.0
Mn325 Mn 0.27175 0.22003 0.37961 0.0
C326 C 0.31515 0.20402 0.3382 0.0
C327 C 0.25772 0.19111 0.27612 0.0
C328 C 0.31719 0.29692 0.34876 0.0
O329 O 0.2238 0.22748 0.32355 0.0
O330 O 0.22255 0.21976 0.3665 0.0
C331 C 0.20157 0.13832 0.38654 0.0
N332 N 0.24153 0.16545 0.39057 0.0
C333 C 0.25115 0.11738 0.4145 0.0
C334 C 0.21 0.08898 0.41079 0.0
C335 C 0.18517 0.09945 0.39664 0.0
C336 C 0.26584 0.15553 0.40383 0.0
H337 H 0.18243 0.1463 0.37566 0.0
C338 C 0.20785 0.22489 0.34585 0.0
O339 O 0.27506 0.22978 0.27719 0.0
O340 O 0.24584 0.17186 0.29766 0.0
N341 N 0.31788 0.22022 0.39469 0.0
C342 C 0.35693 0.25109 0.39644 0.0
C343 C 0.38588 0.2454 0.4097 0.0
C344 C 0.3743 0.2082 0.4212 0.0
C345 C 0.33375 0.17712 0.41952 0.0
C346 C 0.3062 0.18461 0.40617 0.0
H347 H 0.36596 0.27977 0.38769 0.0
O348 O 0.32537 0.21717 0.31504 0.0
O349 O 0.28222 0.20266 0.34718 0.0
O350 O 0.31048 0.28151 0.32671 0.0
O351 O 0.30406 0.27702 0.36964 0.0
C352 C 0.31956 0.13903 0.43061 0.0
C353 C 0.27825 0.10926 0.42821 0.0
H354 H 0.19725 0.05898 0.41855 0.0
H355 H 0.15345 0.07763 0.39356 0.0
H356 H 0.41707 0.2696 0.41101 0.0
H357 H 0.39676 0.20387 0.4313 0.0
H358 H 0.34015 0.13232 0.44102 0.0
H359 H 0.26771 0.08007 0.43679 0.0
Mn360 Mn 0.74263 0.02815 0.27578 0.0
Mn361 Mn 0.69903 0.07595 0.24716 0.0
C362 C 0.68217 0.02265 0.29133 0.0
C363 C 0.74425 0.96908 0.28511 0.0
C364 C 0.76688 0.11572 0.28433 0.0
O365 O 0.77426 0.04411 0.24133 0.0
O366 O 0.74628 0.08058 0.2274 0.0
C367 C 0.66721 0.0195 0.20442 0.0
N368 N 0.6604 0.03823 0.22421 0.0
C369 C 0.5882 0.00492 0.21612 0.0
C370 C 0.59449 0.98544 0.19558 0.0
C371 C 0.63416 0.99263 0.18979 0.0
C372 C 0.6222 0.03066 0.23038 0.0
H373 H 0.69757 0.02493 0.19986 0.0
C374 C 0.77242 0.06871 0.22552 0.0
O375 O 0.77434 0.00377 0.29131 0.0
O376 O 0.71738 0.96972 0.2703 0.0
N377 N 0.65274 0.07473 0.26357 0.0
C378 C 0.65289 0.1001 0.28152 0.0
C379 C 0.61625 0.09932 0.28815 0.0
C380 C 0.57983 0.07269 0.27615 0.0
C381 C 0.58063 0.04794 0.25704 0.0
C382 C 0.61824 0.05053 0.25093 0.0
H383 H 0.68096 0.12139 0.29032 0.0
O384 O 0.70552 0.0159 0.30587 0.0
O385 O 0.69412 0.03168 0.26772 0.0
O386 O 0.77463 0.087 0.28623 0.0
O387 O 0.73751 0.11439 0.27153 0.0
C388 C 0.54604 0.02242 0.24288 0.0
C389 C 0.54968 1.00042 0.22269 0.0
H390 H 0.56915 0.9651 0.18405 0.0
H391 H 0.63929 0.97767 0.174 0.0
H392 H 0.61621 0.11971 0.30217 0.0
H393 H 0.55175 0.07259 0.28112 0.0
H394 H 0.51658 0.0199 0.24714 0.0
H395 H 0.52287 0.9809 0.21193 0.0
Mn396 Mn 0.95597 0.70962 0.28789 0.0
Mn397 Mn 0.94622 0.71194 0.3518 0.0
C398 C 0.89304 0.67362 0.30851 0.0
C399 C 0.94449 0.72721 0.24702 0.0
C400 C 0.97689 0.66228 0.32556 0.0
O401 O 0.01169 0.75866 0.29696 0.0
O402 O 0.00033 0.75513 0.33966 0.0
C403 C 0.94559 0.78824 0.35457 0.0
N404 N 0.92715 0.74833 0.35961 0.0
C405 C 0.87125 0.74918 0.38182 0.0
C406 C 0.88977 0.79037 0.37702 0.0
C407 C 0.92698 0.80993 0.36319 0.0
C408 C 0.89094 0.72907 0.37244 0.0
H409 H 0.97429 0.80339 0.34409 0.0
C410 C 0.02316 0.7706 0.31982 0.0
O411 O 0.96587 0.70933 0.24987 0.0
O412 O 0.93696 0.74083 0.2676 0.0
N413 N 0.89519 0.67159 0.36615 0.0
C414 C 0.88134 0.63177 0.36912 0.0
C415 C 0.8437 0.60758 0.38174 0.0
C416 C 0.82116 0.62471 0.39165 0.0
C417 C 0.83658 0.66593 0.38894 0.0
C418 C 0.87403 0.68845 0.37592 0.0
H419 H 0.89874 0.61854 0.36173 0.0
O420 O 0.89954 0.66315 0.28646 0.0
O421 O 0.92345 0.70502 0.31808 0.0
O422 O 0.97646 0.6736 0.30271 0.0
O423 O 0.96497 0.67347 0.34512 0.0
C424 C 0.81649 0.68563 0.39887 0.0
C425 C 0.83397 0.72728 0.39547 0.0
H426 H 0.8756 0.80723 0.38376 0.0
H427 H 0.94138 0.84168 0.35932 0.0
H428 H 0.83217 0.57584 0.38392 0.0
H429 H 0.79222 0.60598 0.40147 0.0
H430 H 0.78755 0.66904 0.40912 0.0
H431 H 0.81812 0.74206 0.40308 0.0
Mn432 Mn 0.67934 0.7485 0.7416 0.0
Mn433 Mn 0.72885 0.78917 0.6859 0.0
C434 C 0.67275 0.79811 0.72122 0.0
C435 C 0.66909 0.75086 0.78565 0.0
C436 C 0.65348 0.70893 0.68942 0.0
O437 O 0.72238 0.72999 0.74086 0.0
O438 O 0.74931 0.75567 0.70182 0.0
C439 C 0.80931 0.84338 0.70809 0.0
N440 N 0.77702 0.83793 0.69383 0.0
C441 C 0.80694 0.90861 0.68628 0.0
C442 C 0.84061 0.91498 0.7008 0.0
C443 C 0.84179 0.88221 0.71175 0.0
C444 C 0.7756 0.86923 0.68318 0.0
H445 H 0.81021 0.81828 0.71664 0.0
C446 C 0.74567 0.73412 0.72148 0.0
O447 O 0.64961 0.71763 0.77334 0.0
O448 O 0.69887 0.78035 0.77329 0.0
N449 N 0.71178 0.82208 0.66853 0.0
C450 C 0.67696 0.81075 0.65525 0.0
C451 C 0.67101 0.83996 0.64304 0.0
C452 C 0.70093 0.88042 0.6446 0.0
C453 C 0.73671 0.89127 0.65815 0.0
C454 C 0.74121 0.86081 0.6696 0.0
H455 H 0.65385 0.77969 0.6541 0.0
O456 O 0.64407 0.77288 0.73636 0.0
O457 O 0.70407 0.79297 0.71779 0.0
O458 O 0.6505 0.70808 0.71368 0.0
O459 O 0.67938 0.73927 0.67631 0.0
C460 C 0.76796 0.93113 0.66089 0.0
C461 C 0.80303 0.9398 0.67498 0.0
H462 H 0.86564 0.9449 0.70377 0.0
H463 H 0.86762 0.8869 0.72305 0.0
H464 H 0.64337 0.83133 0.63255 0.0
H465 H 0.69612 0.9029 0.63532 0.0
H466 H 0.76524 0.95535 0.65236 0.0
H467 H 0.82673 0.97057 0.67709 0.0
Mn468 Mn 0.23411 0.96154 0.72546 0.0
Mn469 Mn 0.21322 0.9903 0.66975 0.0
C470 C 0.19606 0.91377 0.69543 0.0
C471 C 0.21316 0.93798 0.7673 0.0
C472 C 0.29638 1.00089 0.68361 0.0
O473 O 0.25533 0.0226 0.72896 0.0
O474 O 0.21688 0.02517 0.69806 0.0
C475 C 0.13041 0.97753 0.68186 0.0
N476 N 0.15561 0.96996 0.66694 0.0
C477 C 0.09917 0.92419 0.64161 0.0
C478 C 0.07268 0.93167 0.65663 0.0
C479 C 0.08837 0.95842 0.67686 0.0
C480 C 0.14078 0.94411 0.6475 0.0
H481 H 0.14225 0.99783 0.69757 0.0
C482 C 0.24697 0.04287 0.71293 0.0
O483 O 0.25139 0.95371 0.76022 0.0
O484 O 0.18945 0.94261 0.7516 0.0
N485 N 0.20753 0.95636 0.64181 0.0
C486 C 0.23704 0.95209 0.62924 0.0
C487 C 0.22634 0.92635 0.60845 0.0
C488 C 0.18548 0.90545 0.6007 0.0
C489 C 0.15576 0.91081 0.61364 0.0
C490 C 0.16833 0.93726 0.63402 0.0
H491 H 0.26853 0.9681 0.635 0.0
O492 O 0.21107 0.9046 0.71464 0.0
O493 O 0.20155 0.94955 0.6953 0.0
O494 O 0.28443 0.9781 0.70332 0.0
O495 O 0.27353 0.01083 0.67114 0.0
C496 C 0.1141 0.8907 0.60725 0.0
C497 C 0.08583 0.89736 0.62124 0.0
H498 H 0.04021 0.91684 0.65291 0.0
H499 H 0.06808 0.96419 0.68863 0.0
H500 H 0.2495 0.92251 0.59849 0.0
H501 H 0.17728 0.88532 0.58481 0.0
H502 H 0.10344 0.86988 0.59169 0.0
H503 H 0.05383 0.88154 0.61624 0.0
Mn504 Mn 0.05893 0.29917 0.73529 0.0
Mn505 Mn 0.04315 0.30601 0.67254 0.0
C506 C 0.11267 0.33808 0.70729 0.0
C507 C 0.08306 0.27944 0.77048 0.0
C508 C 0.02786 0.35221 0.71283 0.0
O509 O 0.00105 0.24972 0.73099 0.0
O510 O 0.99481 0.26164 0.68946 0.0
C511 C 0.03662 0.23002 0.65566 0.0
N512 N 0.05437 0.27043 0.65349 0.0
C513 C 0.08976 0.27143 0.61476 0.0
C514 C 0.07193 0.22981 0.61657 0.0
C515 C 0.04558 0.20907 0.63726 0.0
C516 C 0.08075 0.29078 0.6341 0.0
H517 H 0.01547 0.21391 0.67114 0.0
C518 C 0.98063 0.24178 0.71025 0.0
O519 O 0.06034 0.29582 0.7734 0.0
O520 O 0.08528 0.2681 0.74756 0.0
N521 N 0.08738 0.34771 0.65338 0.0
C522 C 0.10296 0.38789 0.65496 0.0
C523 C 0.13091 0.41317 0.63619 0.0
C524 C 0.14155 0.39681 0.61563 0.0
C525 C 0.12501 0.35533 0.61439 0.0
C526 C 0.09817 0.33173 0.63401 0.0
H527 H 0.09378 0.40046 0.67029 0.0
O528 O 0.11469 0.34594 0.7313 0.0
O529 O 0.07892 0.30763 0.69982 0.0
O530 O 0.03511 0.33646 0.73197 0.0
O531 O 0.03128 0.34407 0.68981 0.0
C532 C 0.13331 0.33637 0.59419 0.0
C533 C 0.1159 0.29448 0.59444 0.0
H534 H 0.07823 0.21348 0.60219 0.0
H535 H 0.03164 0.17694 0.63878 0.0
H536 H 0.14347 0.44513 0.63724 0.0
H537 H 0.16208 0.41642 0.6008 0.0
H538 H 0.15309 0.35367 0.57839 0.0
H539 H 0.12304 0.28033 0.579 0.0
Mn540 Mn 0.93655 0.57196 0.63017 0.0
Mn541 Mn 0.93506 0.58852 0.69342 0.0
C542 C 0.97267 0.55574 0.6588 0.0
C543 C 0.91782 0.53051 0.59446 0.0
C544 C 0.9852 0.65362 0.65459 0.0
O545 O 0.88627 0.5807 0.63395 0.0
O546 O 0.889 0.58936 0.67672 0.0
C547 C 0.85943 0.5134 0.70718 0.0
N548 N 0.90017 0.53861 0.71027 0.0
C549 C 0.90354 0.49525 0.74217 0.0
C550 C 0.86154 0.46894 0.73946 0.0
C551 C 0.83944 0.47798 0.72181 0.0
C552 C 0.92186 0.52987 0.7269 0.0
H553 H 0.84238 0.52024 0.69362 0.0
C554 C 0.87304 0.5875 0.65509 0.0
O555 O 0.93655 0.56912 0.59198 0.0
O556 O 0.90441 0.51626 0.61724 0.0
N557 N 0.97841 0.58852 0.71209 0.0
C558 C 0.01853 0.61742 0.71272 0.0
C559 C 0.04492 0.61296 0.72942 0.0
C560 C 0.02968 0.57915 0.74552 0.0
C561 C 0.98806 0.55032 0.74498 0.0
C562 C 0.96319 0.5565 0.72806 0.0
H563 H 0.03034 0.64359 0.70051 0.0
O564 O 0.98341 0.56184 0.63497 0.0
O565 O 0.94132 0.5593 0.66524 0.0
O566 O 0.9746 0.63141 0.63515 0.0
O567 O 0.97238 0.64097 0.6773 0.0
C568 C 0.97022 0.51584 0.76069 0.0
C569 C 0.92798 0.48839 0.75933 0.0
H570 H 0.84601 0.44163 0.75074 0.0
H571 H 0.80707 0.45773 0.71951 0.0
H572 H 0.07693 0.63551 0.72987 0.0
H573 H 0.05016 0.57572 0.75828 0.0
H574 H 0.9887 0.51017 0.77391 0.0
H575 H 0.91462 0.46196 0.77149 0.0
Mn576 Mn 0.41807 0.36739 0.61589 0.0
Mn577 Mn 0.38873 0.42611 0.58595 0.0
C578 C 0.36925 0.3801 0.63551 0.0
C579 C 0.4061 0.30218 0.62323 0.0
C580 C 0.47042 0.45612 0.61265 0.0
O581 O 0.44756 0.38018 0.58001 0.0
O582 O 0.40177 0.39296 0.56384 0.0
C583 C 0.31313 0.36385 0.56227 0.0
N584 N 0.33226 0.39651 0.57726 0.0
C585 C 0.26949 0.39743 0.58449 0.0
C586 C 0.24918 0.364 0.56899 0.0
C587 C 0.27107 0.34701 0.55796 0.0
C588 C 0.31133 0.41269 0.5883 0.0
H589 H 0.3298 0.3507 0.55365 0.0
C590 C 0.43675 0.39585 0.5622 0.0
O591 O 0.44125 0.33318 0.6281 0.0
O592 O 0.38062 0.30914 0.61087 0.0
N593 N 0.37302 0.45696 0.60691 0.0
C594 C 0.397 0.48941 0.6212 0.0
C595 C 0.37972 0.51 0.63338 0.0
C596 C 0.338 0.49732 0.63058 0.0
C597 C 0.314 0.4642 0.61553 0.0
C598 C 0.33298 0.44499 0.60371 0.0
H599 H 0.42901 0.49946 0.62351 0.0
O600 O 0.38581 0.36309 0.64817 0.0
O601 O 0.37953 0.38652 0.61176 0.0
O602 O 0.46132 0.42355 0.62442 0.0
O603 O 0.44747 0.4593 0.59587 0.0
C604 C 0.27194 0.44946 0.61186 0.0
C605 C 0.24978 0.41612 0.59636 0.0
H606 H 0.21677 0.35098 0.56556 0.0
H607 H 0.25557 0.32107 0.5461 0.0
H608 H 0.39852 0.53558 0.64493 0.0
H609 H 0.3247 0.51313 0.64012 0.0
H610 H 0.25632 0.46347 0.6209 0.0
H611 H 0.2176 0.40509 0.59364 0.0
Mn612 Mn 0.62426 0.04599 0.62359 0.0
Mn613 Mn 0.63715 0.10103 0.6762 0.0
C614 C 0.56975 0.04795 0.64254 0.0
C615 C 0.61256 0.03234 0.58016 0.0
C616 C 0.63397 0.02147 0.67745 0.0
O617 O 0.68746 0.08239 0.62409 0.0
O618 O 0.6905 0.11723 0.65932 0.0
C619 C 0.66423 0.17848 0.64993 0.0
N620 N 0.63753 0.14887 0.66602 0.0
C621 C 0.59893 0.18254 0.67303 0.0
C622 C 0.62614 0.21352 0.65662 0.0
C623 C 0.65891 0.21145 0.64501 0.0
C624 C 0.6059 0.15054 0.67728 0.0
H625 H 0.68932 0.17685 0.64089 0.0
C626 C 0.70759 0.10837 0.6412 0.0
O627 O 0.6238 0.01222 0.59472 0.0
O628 O 0.61573 0.06469 0.58971 0.0
N629 N 0.58782 0.08816 0.69461 0.0
C630 C 0.56422 0.05563 0.70974 0.0
C631 C 0.53009 0.05298 0.72276 0.0
C632 C 0.52066 0.0838 0.72015 0.0
C633 C 0.54585 0.11732 0.70484 0.0
C634 C 0.5798 0.11857 0.69264 0.0
H635 H 0.5713 0.03183 0.71173 0.0
O636 O 0.56395 0.0182 0.6286 0.0
O637 O 0.60743 0.07595 0.64525 0.0
O638 O 0.62917 0.01534 0.65365 0.0
O639 O 0.6368 0.05218 0.68839 0.0
C640 C 0.53842 0.14936 0.70102 0.0
C641 C 0.56489 0.18191 0.68508 0.0
H642 H 0.62203 0.23892 0.6527 0.0
H643 H 0.67994 0.23517 0.63226 0.0
H644 H 0.511 0.02716 0.7347 0.0
H645 H 0.49404 0.08144 0.73 0.0
H646 H 0.51227 0.14913 0.7101 0.0
H647 H 0.55868 0.20621 0.68213 0.0
H648 H 0.50759 0.08031 0.05527 0.0
H649 H 0.39439 0.98611 0.08887 0.0
H650 H 0.40034 0.93684 0.06179 0.0
H651 H 0.49053 0.04268 0.99155 0.0
H652 H 0.54346 0.0574 0.98541 0.0
H653 H 0.53038 0.08519 1.00738 0.0
H654 H 0.571 0.07417 0.04306 0.0
H655 H 0.58527 0.04764 0.02091 0.0
H656 H 0.56014 0.02418 0.0507 0.0
H657 H 0.42007 0.89747 0.03095 0.0
H658 H 0.45637 0.87133 1.00456 0.0
H659 H 0.55504 0.99162 0.99044 0.0
C660 C 0.48416 0.04925 0.05723 0.0
C661 C 0.45055 0.03726 0.07444 0.0
C662 C 0.42069 0.9962 0.07616 0.0
C663 C 0.42358 0.96801 0.06058 0.0
C664 C 0.45646 0.98121 0.04325 0.0
C665 C 0.4865 0.02087 0.04182 0.0
C666 C 0.51953 0.02749 0.02233 0.0
C667 C 0.52105 0.05481 1.00037 0.0
C668 C 0.56145 0.04434 0.03501 0.0
C669 C 0.50402 0.98521 0.01333 0.0
C670 C 0.46722 0.95895 0.02528 0.0
C671 C 0.44851 0.91792 0.02123 0.0
C672 C 0.46901 0.9033 1.00583 0.0
C673 C 0.50774 0.92951 0.99453 0.0
C674 C 0.52457 0.97105 0.99772 0.0
H675 H 0.92544 0.41844 1.00383 0.0
H676 H 0.02033 0.41497 0.04773 0.0
H677 H 0.06831 0.48547 0.03518 0.0
H678 H 0.98535 0.47227 0.95232 0.0
H679 H 0.96081 0.50158 0.94679 0.0
H680 H 0.93257 0.45308 0.96183 0.0
H681 H 0.91518 0.48331 1.00068 0.0
H682 H 0.94228 0.5318 0.98543 0.0
H683 H 0.95587 0.52448 0.01701 0.0
H684 H 0.10818 0.55456 0.01285 0.0
H685 H 0.13286 0.61829 0.98904 0.0
H686 H 0.0108 0.57572 0.96028 0.0
C687 C 0.95585 0.43295 1.01164 0.0
C688 C 0.96888 0.4113 0.02719 0.0
C689 C 0.00929 0.43117 0.03643 0.0
C690 C 0.0369 0.47108 0.02905 0.0
C691 C 0.0235 0.49089 0.01266 0.0
C692 C 0.98349 0.47268 1.00466 0.0
C693 C 0.97668 0.49967 0.98657 0.0
C694 C 0.96306 0.48049 0.96033 0.0
C695 C 0.94568 0.51046 0.99812 0.0
C696 C 0.01932 0.53569 0.98506 0.0
C697 C 0.04602 0.53013 1.00013 0.0
C698 C 0.0873 0.55921 1.00124 0.0
C699 C 0.10119 0.59525 0.98738 0.0
C700 C 0.07396 0.60219 0.97256 0.0
C701 C 0.03261 0.57148 0.9712 0.0
H702 H 0.44849 0.42971 0.9643 0.0
H703 H 0.4046 0.50682 0.99337 0.0
H704 H 0.46654 0.54234 0.01896 0.0
H705 H 0.49124 0.4194 0.02014 0.0
H706 H 0.53644 0.42196 1.00603 0.0
H707 H 0.4907 0.40431 0.98769 0.0
H708 H 0.53018 0.45808 0.95264 0.0
H709 H 0.57639 0.47473 0.97035 0.0
H710 H 0.5599 0.5097 0.96141 0.0
H711 H 0.52822 0.56306 0.04648 0.0
H712 H 0.59594 0.58173 0.06406 0.0
H713 H 0.60431 0.49615 0.01506 0.0
C714 C 0.45303 0.4555 0.97492 0.0
C715 C 0.4218 0.46594 0.9763 0.0
C716 C 0.42829 0.49876 0.99148 0.0
C717 C 0.46315 0.51872 1.0065 0.0
C718 C 0.49199 0.50606 1.00603 0.0
C719 C 0.48829 0.47635 0.98985 0.0
C720 C 0.52432 0.46909 0.99292 0.0
C721 C 0.50978 0.42614 1.00224 0.0
C722 C 0.54918 0.47848 0.96785 0.0
C723 C 0.54845 0.49908 0.0134 0.0
C724 C 0.5286 0.51929 0.02116 0.0
C725 C 0.54424 0.54767 0.04034 0.0
C726 C 0.58242 0.55755 0.05066 0.0
C727 C 0.60515 0.53987 0.04144 0.0
C728 C 0.58721 0.50941 0.02303 0.0
H729 H 0.14011 0.3845 0.37494 0.0
H730 H 0.04231 0.29631 0.42336 0.0
H731 H 0.0633 0.24666 0.41156 0.0
H732 H 0.12723 0.32075 0.32478 0.0
H733 H 0.18088 0.34276 0.31668 0.0
H734 H 0.16176 0.37257 0.33126 0.0
H735 H 0.21286 0.39101 0.36838 0.0
H736 H 0.23346 0.36337 0.35265 0.0
H737 H 0.21583 0.35173 0.38535 0.0
H738 H 0.09345 0.20565 0.39179 0.0
H739 H 0.13532 0.18012 0.37117 0.0
H740 H 0.21003 0.2947 0.33367 0.0
C741 C 0.12373 0.35506 0.38373 0.0
C742 C 0.08972 0.3445 0.40038 0.0
C743 C 0.06893 0.30546 0.41108 0.0
C744 C 0.08029 0.2769 0.4041 0.0
C745 C 0.11244 0.28786 0.38639 0.0
C746 C 0.13429 0.32633 0.37676 0.0
C747 C 0.16673 0.33069 0.35747 0.0
C748 C 0.15864 0.34238 0.33099 0.0
C749 C 0.20976 0.36096 0.36653 0.0
C750 C 0.16007 0.2886 0.35768 0.0
C751 C 0.12848 0.26422 0.37438 0.0
C752 C 0.11791 0.22447 0.37855 0.0
C753 C 0.14145 0.20999 0.36642 0.0
C754 C 0.17493 0.23489 0.35001 0.0
C755 C 0.18346 0.27437 0.34509 0.0
H756 H 0.58826 0.75076 0.33711 0.0
H757 H 0.67843 0.75879 0.39085 0.0
H758 H 0.72648 0.82754 0.37467 0.0
H759 H 0.65576 0.79611 0.28586 0.0
H760 H 0.62994 0.8213 0.2735 0.0
H761 H 0.60156 0.77547 0.2915 0.0
H762 H 0.57606 0.80996 0.32322 0.0
H763 H 0.6035 0.85568 0.30494 0.0
H764 H 0.61275 0.85508 0.33849 0.0
H765 H 0.76626 0.89619 0.34944 0.0
H766 H 0.79002 0.95582 0.32109 0.0
H767 H 0.67381 0.8974 0.28272 0.0
C768 C 0.61778 0.76712 0.34599 0.0
C769 C 0.62928 0.74921 0.36551 0.0
C770 C 0.66845 0.77193 0.37628 0.0
C771 C 0.69613 0.8109 0.36694 0.0
C772 C 0.68423 0.82678 0.3468 0.0
C773 C 0.6456 0.80545 0.33677 0.0
C774 C 0.64005 0.82758 0.3146 0.0
C775 C 0.63132 0.80368 0.28992 0.0
C776 C 0.60609 0.83768 0.32068 0.0
C777 C 0.68171 0.86476 0.31333 0.0
C778 C 0.70694 0.86426 0.33208 0.0
C779 C 0.74657 0.89651 0.3347 0.0
C780 C 0.76004 0.93021 0.31832 0.0
C781 C 0.73422 0.93135 0.29926 0.0
C782 C 0.69487 0.89758 0.29665 0.0
H783 H 0.08992 0.76062 0.31533 0.0
H784 H 0.05103 0.84283 0.34171 0.0
H785 H 0.11398 0.87819 0.36682 0.0
H786 H 0.12804 0.74992 0.37259 0.0
H787 H 0.17195 0.74823 0.35995 0.0
H788 H 0.1273 0.73217 0.34083 0.0
H789 H 0.16936 0.78228 0.30475 0.0
H790 H 0.21482 0.79697 0.32287 0.0
H791 H 0.20228 0.83406 0.31214 0.0
H792 H 0.17924 0.90097 0.39252 0.0
H793 H 0.24662 0.91649 0.40967 0.0
H794 H 0.24157 0.81825 0.36744 0.0
C795 C 0.0958 0.78741 0.32525 0.0
C796 C 0.0662 0.79991 0.32572 0.0
C797 C 0.07391 0.83363 0.34029 0.0
C798 C 0.10931 0.85347 0.355 0.0
C799 C 0.13684 0.83912 0.3552 0.0
C800 C 0.13097 0.80742 0.34019 0.0
C801 C 0.16452 0.79705 0.34439 0.0
C802 C 0.14686 0.75431 0.35508 0.0
C803 C 0.18922 0.80297 0.31957 0.0
C804 C 0.18998 0.82762 0.36411 0.0
C805 C 0.17342 0.85145 0.37034 0.0
C806 C 0.19235 0.88234 0.38779 0.0
C807 C 0.23027 0.89049 0.39793 0.0
C808 C 0.24897 0.86796 0.39054 0.0
C809 C 0.22758 0.8353 0.37409 0.0
H810 H 0.88132 0.6605 0.64613 0.0
H811 H 0.79478 0.54058 0.67186 0.0
H812 H 0.7542 0.56587 0.69431 0.0
H813 H 0.88445 0.70714 0.70154 0.0
H814 H 0.88753 0.75162 0.68794 0.0
H815 H 0.90613 0.72406 0.67002 0.0
H816 H 0.8584 0.71605 0.63273 0.0
H817 H 0.84103 0.74524 0.65 0.0
H818 H 0.80449 0.69636 0.63902 0.0
H819 H 0.72933 0.60634 0.71985 0.0
H820 H 0.71306 0.65621 0.73775 0.0
H821 H 0.81546 0.74973 0.69492 0.0
C822 C 0.85233 0.63927 0.65502 0.0
C823 C 0.84037 0.59824 0.65634 0.0
C824 C 0.80363 0.57179 0.66968 0.0
C825 C 0.78085 0.58609 0.68296 0.0
C826 C 0.79505 0.62707 0.68272 0.0
C827 C 0.82923 0.65315 0.66837 0.0
C828 C 0.83916 0.69601 0.67219 0.0
C829 C 0.88184 0.72116 0.68359 0.0
C830 C 0.83553 0.7145 0.64699 0.0
C831 C 0.80567 0.69005 0.69118 0.0
C832 C 0.78079 0.65014 0.69728 0.0
C833 C 0.74839 0.63762 0.71492 0.0
C834 C 0.73978 0.6663 0.72541 0.0
C835 C 0.76305 0.70703 0.71797 0.0
C836 C 0.79723 0.71892 0.70123 0.0
H837 H 0.32805 0.23846 0.62574 0.0
H838 H 0.4508 0.27741 0.65195 0.0
H839 H 0.42384 0.21681 0.67955 0.0
H840 H 0.27803 0.20252 0.68521 0.0
H841 H 0.2331 0.16079 0.67247 0.0
H842 H 0.26252 0.20517 0.65325 0.0
H843 H 0.27174 0.16359 0.61788 0.0
H844 H 0.24152 0.11898 0.63674 0.0
H845 H 0.29219 0.13143 0.62588 0.0
H846 H 0.38119 0.15111 0.70594 0.0
H847 H 0.32897 0.08657 0.72534 0.0
H848 H 0.23482 0.09433 0.68303 0.0
C849 C 0.34957 0.23394 0.63678 0.0
C850 C 0.3918 0.2627 0.63629 0.0
C851 C 0.41847 0.25571 0.65163 0.0
C852 C 0.40332 0.22144 0.66756 0.0
C853 C 0.36128 0.19439 0.66817 0.0
C854 C 0.33493 0.20026 0.65295 0.0
C855 C 0.29095 0.16771 0.65749 0.0
C856 C 0.26462 0.1851 0.66771 0.0
C857 C 0.27306 0.14402 0.63305 0.0
C858 C 0.29642 0.14249 0.67766 0.0
C859 C 0.33712 0.15811 0.68366 0.0
C860 C 0.34924 0.13891 0.70142 0.0
C861 C 0.31925 0.1024 0.71264 0.0
C862 C 0.27747 0.08532 0.70613 0.0
C863 C 0.26626 0.1065 0.6888 0.0
H864 H 0.76253 0.18129 0.65931 0.0
H865 H 0.75249 0.07037 0.63367 0.0
H866 H 0.81936 0.08915 0.65307 0.0
H867 H 0.87472 0.24382 0.65123 0.0
H868 H 0.87808 0.27193 0.67924 0.0
H869 H 0.83239 0.25072 0.66065 0.0
H870 H 0.79009 0.21494 0.70148 0.0
H871 H 0.83591 0.23458 0.7199 0.0
H872 H 0.80171 0.18147 0.71896 0.0
H873 H 0.88669 0.11952 0.67858 0.0
H874 H 0.95165 0.16289 0.70054 0.0
H875 H 0.91449 0.25157 0.7109 0.0
C876 C 0.77507 0.16154 0.65691 0.0
C877 C 0.75241 0.12459 0.64447 0.0
C878 C 0.76963 0.09929 0.64238 0.0
C879 C 0.80731 0.10944 0.65382 0.0
C880 C 0.82753 0.14507 0.66728 0.0
C881 C 0.8123 0.17111 0.66828 0.0
C882 C 0.83906 0.20718 0.6842 0.0
C883 C 0.85715 0.24568 0.66786 0.0
C884 C 0.81525 0.20966 0.70751 0.0
C885 C 0.87184 0.19755 0.69218 0.0
C886 C 0.86471 0.16151 0.68242 0.0
C887 C 0.89215 0.14753 0.68648 0.0
C888 C 0.92867 0.17197 0.6995 0.0
C889 C 0.9374 0.20984 0.70853 0.0
C890 C 0.9078 0.22194 0.70542 0.0
H891 H 0.37988 0.16105 0.16024 0.0
H892 H 0.2933 0.03423 0.16642 0.0
H893 H 0.25541 0.04719 0.20038 0.0
H894 H 0.38085 0.18276 0.22796 0.0
H895 H 0.38444 0.23049 0.222 0.0
H896 H 0.40553 0.21063 0.19917 0.0
H897 H 0.36172 0.21784 0.16411 0.0
H898 H 0.33981 0.23688 0.18698 0.0
H899 H 0.30695 0.19382 0.16853 0.0
H900 H 0.22604 0.07414 0.23337 0.0
H901 H 0.2109 0.11222 0.26514 0.0
H902 H 0.31478 0.22203 0.23671 0.0
C903 C 0.35345 0.13588 0.16909 0.0
C904 C 0.33991 0.09644 0.16076 0.0
C905 C 0.3046 0.06459 0.17256 0.0
C906 C 0.28267 0.07172 0.19178 0.0
C907 C 0.29613 0.11099 0.19899 0.0
C908 C 0.33095 0.14253 0.18819 0.0
C909 C 0.33861 0.18193 0.19925 0.0
C910 C 0.3798 0.20267 0.21291 0.0
C911 C 0.33665 0.20922 0.17847 0.0
C912 C 0.30279 0.16766 0.21804 0.0
C913 C 0.2786 0.1266 0.21751 0.0
C914 C 0.24465 0.10631 0.2338 0.0
C915 C 0.23606 0.12826 0.25168 0.0
C916 C 0.26101 0.17025 0.25316 0.0
C917 C 0.29429 0.19017 0.23561 0.0
H918 H 0.91193 0.26413 0.14394 0.0
H919 H 0.83324 0.1974 0.08192 0.0
H920 H 0.80484 0.13579 0.10766 0.0
H921 H 0.92904 0.18657 0.17126 0.0
H922 H 0.92303 0.19712 0.20392 0.0
H923 H 0.94167 0.23641 0.18007 0.0
H924 H 0.88343 0.25131 0.19176 0.0
H925 H 0.86573 0.21299 0.21613 0.0
H926 H 0.83114 0.21116 0.19204 0.0
H927 H 0.78571 0.08051 0.13897 0.0
H928 H 0.76091 0.03886 0.17808 0.0
H929 H 0.8429 0.14046 0.22273 0.0
C930 C 0.88856 0.23654 0.13595 0.0
C931 C 0.87527 0.23568 0.11069 0.0
C932 C 0.84418 0.19902 0.10108 0.0
C933 C 0.82809 0.16359 0.11549 0.0
C934 C 0.84233 0.16505 0.13998 0.0
C935 C 0.87051 0.20074 0.15064 0.0
C936 C 0.87588 0.19426 0.17868 0.0
C937 C 0.92004 0.20419 0.18377 0.0
C938 C 0.86327 0.21887 0.19565 0.0
C939 C 0.84626 0.1496 0.1819 0.0
C940 C 0.82851 0.13324 0.15901 0.0
C941 C 0.79941 0.09292 0.15704 0.0
C942 C 0.78591 0.06922 0.17933 0.0
C943 C 0.80068 0.086 0.20337 0.0
C944 C 0.83236 0.12639 0.20449 0.0
H945 H 0.92859 0.67677 0.20539 0.0
H946 H 0.89875 0.76252 0.23809 0.0
H947 H 0.84144 0.7409 0.20885 0.0
H948 H 0.90216 0.69022 0.13848 0.0
H949 H 0.88212 0.63831 0.13123 0.0
H950 H 0.92268 0.66207 0.15377 0.0
H951 H 0.87838 0.60753 0.18731 0.0
H952 H 0.83726 0.58422 0.16511 0.0
H953 H 0.82818 0.59946 0.19575 0.0
H954 H 0.78197 0.7046 0.18058 0.0
H955 H 0.73315 0.66737 0.14713 0.0
H956 H 0.80254 0.60813 0.12841 0.0
C957 C 0.91093 0.69199 0.20577 0.0
C958 C 0.91857 0.72156 0.22427 0.0
C959 C 0.89396 0.74 0.22425 0.0
C960 C 0.86091 0.72763 0.2078 0.0
C961 C 0.8529 0.69717 0.19084 0.0
C962 C 0.87792 0.68047 0.18895 0.0
C963 C 0.86234 0.64867 0.16844 0.0
C964 C 0.89422 0.66053 0.14669 0.0
C965 C 0.85087 0.60753 0.17984 0.0
C966 C 0.82439 0.64975 0.15957 0.0
C967 C 0.81936 0.67755 0.1732 0.0
C968 C 0.78601 0.68326 0.16945 0.0
C969 C 0.75808 0.66153 0.15046 0.0
C970 C 0.76366 0.63465 0.13487 0.0
C971 C 0.79701 0.62815 0.13998 0.0
H972 H 0.62454 0.88793 0.87987 0.0
H973 H 0.52202 0.77992 0.91146 0.0
H974 H 0.5377 0.73966 0.88172 0.0
H975 H 0.61606 0.85407 0.81328 0.0
H976 H 0.67081 0.87891 0.80863 0.0
H977 H 0.6484 0.89885 0.83046 0.0
H978 H 0.69411 0.89664 0.8662 0.0
H979 H 0.71587 0.87572 0.84466 0.0
H980 H 0.69181 0.85001 0.87415 0.0
H981 H 0.56768 0.71061 0.84978 0.0
H982 H 0.60542 0.69629 0.81628 0.0
H983 H 0.69019 0.82314 0.80716 0.0
C984 C 0.60444 0.85591 0.87995 0.0
C985 C 0.57142 0.83725 0.89781 0.0
C986 C 0.54697 0.79507 0.89775 0.0
C987 C 0.55591 0.77188 0.88104 0.0
C988 C 0.58967 0.79112 0.86444 0.0
C989 C 0.61325 0.83227 0.86357 0.0
C990 C 0.6489 0.84558 0.84477 0.0
C991 C 0.64584 0.87084 0.82299 0.0
C992 C 0.6901 0.86833 0.85826 0.0
C993 C 0.64187 0.80558 0.83529 0.0
C994 C 0.60753 0.77448 0.84682 0.0
C995 C 0.59463 0.73484 0.84069 0.0
C996 C 0.61652 0.72691 0.82177 0.0
C997 C 0.65126 0.75838 0.80921 0.0
C998 C 0.66433 0.79817 0.81662 0.0
H999 H 0.19194 0.81074 0.89457 0.0
H1000 H 0.07907 0.71731 0.86401 0.0
H1001 H 0.09326 0.75591 0.82377 0.0
H1002 H 0.18552 0.88903 0.87223 0.0
H1003 H 0.23853 0.92176 0.86362 0.0
H1004 H 0.22509 0.88407 0.88802 0.0
H1005 H 0.26363 0.85422 0.86371 0.0
H1006 H 0.27871 0.89278 0.83961 0.0
H1007 H 0.2524 0.84105 0.83076 0.0
H1008 H 0.11103 0.81071 0.79184 0.0
H1009 H 0.13956 0.87099 0.76465 0.0
H1010 H 0.2452 0.92888 0.81319 0.0
C1011 C 0.1718 0.79719 0.8787 0.0
C1012 C 0.13505 0.76024 0.8821 0.0
C1013 C 0.10805 0.74464 0.8615 0.0
C1014 C 0.1156 0.7668 0.83871 0.0
C1015 C 0.1507 0.8043 0.83663 0.0
C1016 C 0.17929 0.8188 0.85563 0.0
C1017 C 0.21319 0.86112 0.84912 0.0
C1018 C 0.2157 0.89072 0.86947 0.0
C1019 C 0.25443 0.86236 0.84558 0.0
C1020 C 0.19834 0.86873 0.824 0.0
C1021 C 0.16194 0.8356 0.81741 0.0
C1022 C 0.14005 0.83636 0.79646 0.0
C1023 C 0.15634 0.87116 0.78131 0.0
C1024 C 0.1947 0.90495 0.78671 0.0
C1025 C 0.21594 0.90361 0.80847 0.0
H1026 H 0.23406 0.38939 0.88607 0.0
H1027 H 0.30991 0.34181 0.85781 0.0
H1028 H 0.26051 0.30762 0.82364 0.0
H1029 H 0.13892 0.30312 0.87646 0.0
H1030 H 0.11255 0.32914 0.86661 0.0
H1031 H 0.15534 0.35278 0.88758 0.0
H1032 H 0.19219 0.41286 0.85625 0.0
H1033 H 0.1491 0.38986 0.83545 0.0
H1034 H 0.19973 0.40423 0.82342 0.0
H1035 H 0.19996 0.27453 0.79404 0.0
H1036 H 0.13846 0.25285 0.76806 0.0
H1037 H 0.10117 0.32126 0.81557 0.0
C1038 C 0.24104 0.37282 0.87225 0.0
C1039 C 0.27649 0.36889 0.87459 0.0
C1040 C 0.28351 0.34589 0.85636 0.0
C1041 C 0.2553 0.32596 0.83698 0.0
C1042 C 0.21992 0.32912 0.83591 0.0
C1043 C 0.21305 0.35257 0.8528 0.0
C1044 C 0.17224 0.35043 0.84777 0.0
C1045 C 0.14305 0.33282 0.87098 0.0
C1046 C 0.17871 0.3918 0.84027 0.0
C1047 C 0.15717 0.3221 0.82542 0.0
C1048 C 0.18504 0.30994 0.81901 0.0
C1049 C 0.17807 0.28402 0.79889 0.0
C1050 C 0.1427 0.2715 0.78433 0.0
C1051 C 0.11441 0.28484 0.78975 0.0
C1052 C 0.12157 0.30982 0.81105 0.0
H1053 H 0.02935 0.48228 0.47973 0.0
H1054 H 0.95189 0.35681 0.49881 0.0
H1055 H 0.9187 0.37457 0.53331 0.0
H1056 H 0.04129 0.52 0.54521 0.0
H1057 H 0.03941 0.56391 0.53532 0.0
H1058 H 0.05921 0.54116 0.51377 0.0
H1059 H 0.00691 0.53561 0.4802 0.0
H1060 H 0.9863 0.55749 0.50186 0.0
H1061 H 0.95307 0.50944 0.48838 0.0
H1062 H 0.89148 0.40609 0.56478 0.0
H1063 H 0.87644 0.44882 0.59261 0.0
H1064 H 0.96946 0.55389 0.55213 0.0
C1065 C 0.00629 0.45857 0.49166 0.0
C1066 C 0.99382 0.41803 0.48674 0.0
C1067 C 0.96248 0.38802 0.50235 0.0
C1068 C 0.94319 0.39785 0.52191 0.0
C1069 C 0.95519 0.43794 0.52566 0.0
C1070 C 0.98634 0.46788 0.51113 0.0
C1071 C 0.99246 0.50853 0.5185 0.0
C1072 C 0.03565 0.53496 0.52882 0.0
C1073 C 0.98419 0.52896 0.49588 0.0
C1074 C 0.95992 0.49684 0.5394 0.0
C1075 C 0.93875 0.45594 0.54322 0.0
C1076 C 0.90785 0.43812 0.56186 0.0
C1077 C 0.89925 0.46268 0.57749 0.0
C1078 C 0.92115 0.50479 0.57443 0.0
C1079 C 0.95139 0.52183 0.5547 0.0
H1080 H 0.49828 0.56886 0.45879 0.0
H1081 H 0.62625 0.61198 0.47414 0.0
H1082 H 0.6061 0.55868 0.50708 0.0
H1083 H 0.45712 0.53572 0.52389 0.0
H1084 H 0.41206 0.49269 0.51242 0.0
H1085 H 0.43731 0.53755 0.49312 0.0
H1086 H 0.44348 0.49659 0.4561 0.0
H1087 H 0.41927 0.45186 0.47552 0.0
H1088 H 0.46905 0.46815 0.46129 0.0
H1089 H 0.56982 0.49608 0.53755 0.0
H1090 H 0.52215 0.43497 0.56247 0.0
H1091 H 0.41994 0.43161 0.52298 0.0
C1092 C 0.5222 0.56817 0.46966 0.0
C1093 C 0.56395 0.59541 0.46415 0.0
C1094 C 0.59407 0.5921 0.4783 0.0
C1095 C 0.58285 0.56162 0.49693 0.0
C1096 C 0.54135 0.53419 0.50104 0.0
C1097 C 0.51159 0.53754 0.48781 0.0
C1098 C 0.46932 0.50309 0.49415 0.0
C1099 C 0.44237 0.51817 0.50664 0.0
C1100 C 0.44912 0.47849 0.47035 0.0
C1101 C 0.47968 0.47964 0.51298 0.0
C1102 C 0.52124 0.49791 0.51703 0.0
C1103 C 0.53725 0.48158 0.53433 0.0
C1104 C 0.50998 0.44651 0.54823 0.0
C1105 C 0.46716 0.42789 0.5446 0.0
C1106 C 0.45242 0.44458 0.52622 0.0
H1107 H 0.56199 0.05436 0.55582 0.0
H1108 H 0.59884 0.96411 0.55583 0.0
H1109 H 0.54295 0.92373 0.5264 0.0
H1110 H 0.45549 0.98787 0.55668 0.0
H1111 H 0.44304 0.01769 0.536 0.0
H1112 H 0.48788 0.04132 0.55534 0.0
H1113 H 0.53361 0.07467 0.51527 0.0
H1114 H 0.48876 0.05202 0.4959 0.0
H1115 H 0.53125 0.04419 0.48878 0.0
H1116 H 0.47976 0.89102 0.49858 0.0
H1117 H 0.42082 0.87307 0.47074 0.0
H1118 H 0.42406 0.98388 0.48962 0.0
C1119 C 0.55918 0.02669 0.54906 0.0
C1120 C 0.58549 0.01283 0.55801 0.0
C1121 C 0.57969 0.9758 0.54909 0.0
C1122 C 0.54766 0.9524 0.53252 0.0
C1123 C 0.52133 0.96619 0.52495 0.0
C1124 C 0.52716 0.00281 0.53263 0.0
C1125 C 0.49413 0.01047 0.52214 0.0
C1126 C 0.46864 0.01458 0.54384 0.0
C1127 C 0.51307 0.04753 0.50447 0.0
C1128 C 0.46879 0.97252 0.50733 0.0
C1129 C 0.48484 0.94723 0.50931 0.0
C1130 C 0.46705 0.91069 0.49692 0.0
C1131 C 0.43318 0.90051 0.4813 0.0
C1132 C 0.41714 0.92666 0.47806 0.0
C1133 C 0.43481 0.9627 0.49192 0.0
H1134 H 0.28603 0.99599 0.04589 0.0
H1135 H 0.39633 0.00138 0.01508 0.0
H1136 H 0.35387 0.93806 0.99251 0.0
H1137 H 0.22761 0.89053 0.05579 0.0
H1138 H 0.18029 0.88771 0.04649 0.0
H1139 H 0.21976 0.93253 0.06049 0.0
H1140 H 0.21974 0.97395 0.02131 0.0
H1141 H 0.18016 0.92928 1.00726 0.0
H1142 H 0.22735 0.96007 0.98985 0.0
H1143 H 0.29738 0.87226 0.97407 0.0
H1144 H 0.23307 0.81457 0.95888 0.0
H1145 H 0.16265 0.8566 1.0013 0.0
C1146 C 0.30141 0.98386 0.03451 0.0
C1147 C 0.34441 0.00324 0.03245 0.0
C1148 C 0.36331 0.9868 0.01696 0.0
C1149 C 0.33948 0.95085 1.00417 0.0
C1150 C 0.29697 0.93229 1.00687 0.0
C1151 C 0.27828 0.94864 0.02147 0.0
C1152 C 0.23229 0.92416 0.02079 0.0
C1153 C 0.21393 0.90776 0.04748 0.0
C1154 C 0.21382 0.94831 1.0091 0.0
C1155 C 0.22774 0.89133 1.00347 0.0
C1156 C 0.26517 0.896 0.99577 0.0
C1157 C 0.26796 0.86851 0.97992 0.0
C1158 C 0.23144 0.83585 0.9715 0.0
C1159 C 0.19308 0.83162 0.97871 0.0
C1160 C 0.19147 0.85951 0.99506 0.0
H1161 H 0.04214 0.35028 0.98006 0.0
H1162 H 0.9882 0.23289 0.01558 0.0
H1163 H 0.05201 0.23086 1.00704 0.0
H1164 H 0.10696 0.33508 0.93135 0.0
H1165 H 0.14831 0.3855 0.93461 0.0
H1166 H 0.09612 0.37427 0.93942 0.0
H1167 H 0.11671 0.40767 0.98233 0.0
H1168 H 0.16793 0.41512 0.98122 0.0
H1169 H 0.13298 0.38645 1.00693 0.0
H1170 H 0.12047 0.24088 0.99328 0.0
H1171 H 0.1931 0.26621 0.98077 0.0
H1172 H 0.20601 0.38131 0.96157 0.0
C1173 C 0.04365 0.32384 0.98535 0.0
C1174 C 0.01056 0.29143 0.99803 0.0
C1175 C 0.0135 0.25772 1.00559 0.0
C1176 C 0.04939 0.25627 1.00075 0.0
C1177 C 0.082 0.28906 0.98868 0.0
C1178 C 0.0796 0.32229 0.98114 0.0
C1179 C 0.12041 0.35502 0.97086 0.0
C1180 C 0.11778 0.36292 0.94237 0.0
C1181 C 0.13552 0.39337 0.98624 0.0
C1182 C 0.14642 0.33559 0.97487 0.0
C1183 C 0.12321 0.29691 0.98408 0.0
C1184 C 0.1393 0.27142 0.98668 0.0
C1185 C 0.18039 0.28598 0.97971 0.0
C1186 C 0.20508 0.3261 0.97173 0.0
C1187 C 0.18793 0.35112 0.96905 0.0
H1188 H 0.7369 0.74197 1.00567 0.0
H1189 H 0.62477 0.6525 0.04298 0.0
H1190 H 0.59306 0.69444 0.03538 0.0
H1191 H 0.7319 0.82682 0.03225 0.0
H1192 H 0.75286 0.85777 1.00406 0.0
H1193 H 0.76734 0.82089 1.01183 0.0
H1194 H 0.744 0.7887 0.96775 0.0
H1195 H 0.72995 0.82565 0.95946 0.0
H1196 H 0.69274 0.77335 0.95766 0.0
H1197 H 0.57151 0.7415 0.01961 0.0
H1198 H 0.56372 0.79684 1.00233 0.0
H1199 H 0.69212 0.86062 0.98007 0.0
C1200 C 0.70572 0.73149 0.0122 0.0
C1201 C 0.68286 0.69418 0.02466 0.0
C1202 C 0.64244 0.68117 0.03337 0.0
C1203 C 0.62427 0.70466 0.02912 0.0
C1204 C 0.64744 0.74131 0.01667 0.0
C1205 C 0.6875 0.75514 1.00877 0.0
C1206 C 0.70574 0.79627 0.99653 0.0
C1207 C 0.74158 0.82728 0.0121 0.0
C1208 C 0.71887 0.79595 0.9687 0.0
C1209 C 0.66927 0.80278 0.99817 0.0
C1210 C 0.63592 0.77043 1.00964 0.0
C1211 C 0.59772 0.76766 1.01145 0.0
C1212 C 0.5937 0.79933 1.00182 0.0
C1213 C 0.62796 0.83381 0.99147 0.0
C1214 C 0.66599 0.83521 0.989 0.0
H1215 H 0.73168 0.00506 0.99111 0.0
H1216 H 0.63078 0.02817 0.98337 0.0
H1217 H 0.67832 0.10058 0.98796 0.0
H1218 H 0.78309 0.0731 0.03777 0.0
H1219 H 0.83409 0.08926 0.02568 0.0
H1220 H 0.79317 0.04013 0.0187 0.0
H1221 H 0.80858 0.05505 0.97032 0.0
H1222 H 0.84967 0.10439 0.97712 0.0
H1223 H 0.80923 0.09823 0.95638 0.0
H1224 H 0.73432 0.16784 1.00045 0.0
H1225 H 0.79675 0.22694 0.01561 0.0
H1226 H 0.86253 0.16142 1.01158 0.0
C1227 C 0.72006 0.02568 0.9897 0.0
C1228 C 0.67803 0.01171 0.98669 0.0
C1229 C 0.66319 0.03888 0.98538 0.0
C1230 C 0.68989 0.07987 0.98796 0.0
C1231 C 0.73128 0.09293 0.99137 0.0
C1232 C 0.74647 0.06676 0.99175 0.0
C1233 C 0.79184 0.08827 0.99694 0.0
C1234 C 0.80106 0.0717 0.02121 0.0
C1235 C 0.81627 0.08636 0.97381 0.0
C1236 C 0.79936 0.13018 1.00062 0.0
C1237 C 0.7641 0.13232 0.9972 0.0
C1238 C 0.7625 0.16696 1.0022 0.0
C1239 C 0.79805 0.20041 1.01059 0.0
C1240 C 0.83474 0.19914 0.01322 0.0
C1241 C 0.8352 0.16347 1.00853 0.0
H1242 H 0.81849 0.62007 0.01551 0.0
H1243 H 0.84671 0.73168 0.0513 0.0
H1244 H 0.92027 0.75546 0.04562 0.0
H1245 H 0.9056 0.61381 0.03738 0.0
H1246 H 0.91453 0.59587 1.00772 0.0
H1247 H 0.86352 0.58491 0.01668 0.0
H1248 H 0.85916 0.6142 0.97483 0.0
H1249 H 0.91052 0.62926 0.96477 0.0
H1250 H 0.89387 0.66579 0.96615 0.0
H1251 H 0.9905 0.76086 0.04344 0.0
H1252 H 0.05384 0.76432 0.02565 0.0
H1253 H 0.9804 0.66007 0.98071 0.0
C1254 C 0.83994 0.65012 0.02111 0.0
C1255 C 0.82662 0.67398 0.03374 0.0
C1256 C 0.8561 0.71267 0.0417 0.0
C1257 C 0.89799 0.72632 0.0389 0.0
C1258 C 0.91008 0.70147 0.02738 0.0
C1259 C 0.88211 0.66516 0.01736 0.0
C1260 C 0.90386 0.6465 1.00343 0.0
C1261 C 0.89643 0.60799 0.01713 0.0
C1262 C 0.89121 0.63868 0.97555 0.0
C1263 C 0.94785 0.6791 1.00591 0.0
C1264 C 0.95088 0.70886 0.02162 0.0
C1265 C 0.98859 0.73904 0.02988 0.0
C1266 C 0.0242 0.74097 0.01967 0.0
C1267 C 0.02125 0.71461 1.00032 0.0
C1268 C 0.98287 0.6821 0.99431 0.0
H1269 H 0.37645 0.32731 0.02205 0.0
H1270 H 0.30401 0.25916 0.95835 0.0
H1271 H 0.31606 0.20378 0.97015 0.0
H1272 H 0.45205 0.29383 0.01626 0.0
H1273 H 0.45807 0.2905 0.05008 0.0
H1274 H 0.44619 0.32712 0.03742 0.0
H1275 H 0.38149 0.3016 0.06543 0.0
H1276 H 0.39322 0.2663 0.08015 0.0
H1277 H 0.34401 0.24921 0.06597 0.0
H1278 H 0.32307 0.15205 0.99395 0.0
H1279 H 0.33517 0.10989 0.02437 0.0
H1280 H 0.41225 0.21379 0.06871 0.0
C1281 C 0.36375 0.3009 1.01044 0.0
C1282 C 0.33924 0.29711 0.98942 0.0
C1283 C 0.32309 0.26245 0.97446 0.0
C1284 C 0.32974 0.23094 0.981 0.0
C1285 C 0.35355 0.23524 1.00208 0.0
C1286 C 0.37109 0.26962 0.01627 0.0
C1287 C 0.39453 0.26603 0.03839 0.0
C1288 C 0.44045 0.29612 0.03537 0.0
C1289 C 0.37726 0.27107 0.06399 0.0
C1290 C 0.38576 0.22357 0.03509 0.0
C1291 C 0.36166 0.20628 0.01414 0.0
C1292 C 0.34357 0.16555 1.00965 0.0
C1293 C 0.35055 0.1419 0.02691 0.0
C1294 C 0.37663 0.15936 0.04765 0.0
C1295 C 0.39439 0.20055 0.05191 0.0
H1296 H 0.97237 0.3027 0.33194 0.0
H1297 H 0.89608 0.3253 0.38418 0.0
H1298 H 0.83426 0.26875 0.36645 0.0
H1299 H 0.9038 0.27048 0.27809 0.0
H1300 H 0.91488 0.23167 0.26936 0.0
H1301 H 0.95315 0.27579 0.28474 0.0
H1302 H 0.95913 0.23186 0.32016 0.0
H1303 H 0.92091 0.18763 0.30491 0.0
H1304 H 0.91386 0.19656 0.33775 0.0
H1305 H 0.78117 0.21086 0.34308 0.0
H1306 H 0.73963 0.1506 0.31783 0.0
H1307 H 0.85013 0.1617 0.28316 0.0
C1308 C 0.94256 0.29588 0.33937 0.0
C1309 C 0.93869 0.31829 0.35923 0.0
C1310 C 0.89944 0.30827 0.36896 0.0
C1311 C 0.86426 0.27642 0.35895 0.0
C1312 C 0.86902 0.25464 0.33951 0.0
C1313 C 0.90711 0.26356 0.32999 0.0
C1314 C 0.90365 0.23368 0.31022 0.0
C1315 C 0.91983 0.25413 0.28406 0.0
C1316 C 0.92569 0.2111 0.31878 0.0
C1317 C 0.8577 0.20657 0.31025 0.0
C1318 C 0.83832 0.21967 0.32697 0.0
C1319 C 0.79592 0.20018 0.32997 0.0
C1320 C 0.77262 0.1662 0.31554 0.0
C1321 C 0.79192 0.15185 0.29877 0.0
C1322 C 0.83492 0.17214 0.29611 0.0
H1323 H 0.85513 0.7167 0.31535 0.0
H1324 H 0.83574 0.59629 0.31739 0.0
H1325 H 0.76125 0.56968 0.32407 0.0
H1326 H 0.77369 0.70539 0.36024 0.0
H1327 H 0.76364 0.73757 0.34041 0.0
H1328 H 0.81417 0.74347 0.34046 0.0
H1329 H 0.80719 0.736 0.29072 0.0
H1330 H 0.75493 0.72562 0.29246 0.0
H1331 H 0.76689 0.6903 0.27803 0.0
H1332 H 0.68971 0.55694 0.3313 0.0
H1333 H 0.62586 0.55911 0.33983 0.0
H1334 H 0.69161 0.68725 0.32821 0.0
C1335 C 0.83518 0.68485 0.31805 0.0
C1336 C 0.85073 0.65836 0.31697 0.0
C1337 C 0.82398 0.61678 0.31901 0.0
C1338 C 0.78185 0.60153 0.32257 0.0
C1339 C 0.76719 0.62838 0.32298 0.0
C1340 C 0.793 0.66915 0.32073 0.0
C1341 C 0.76925 0.69131 0.31978 0.0
C1342 C 0.781 0.72123 0.34153 0.0
C1343 C 0.77491 0.71202 0.29369 0.0
C1344 C 0.72622 0.65684 0.32337 0.0
C1345 C 0.72561 0.62071 0.32482 0.0
C1346 C 0.68964 0.5849 0.32979 0.0
C1347 C 0.65362 0.58631 0.33442 0.0
C1348 C 0.65423 0.62319 0.33388 0.0
C1349 C 0.69055 0.65867 0.32776 0.0
H1350 H 0.27345 0.12441 0.34391 0.0
H1351 H 0.39311 0.22799 0.35284 0.0
H1352 H 0.42064 0.18409 0.36615 0.0
H1353 H 0.27544 0.05536 0.39262 0.0
H1354 H 0.25092 0.01446 0.37117 0.0
H1355 H 0.24143 0.05579 0.36882 0.0
H1356 H 0.2638 0.06186 0.32073 0.0
H1357 H 0.2762 0.02268 0.3247 0.0
H1358 H 0.31457 0.07108 0.31282 0.0
H1359 H 0.43422 0.12826 0.37853 0.0
H1360 H 0.4354 0.06479 0.38376 0.0
H1361 H 0.30971 0.99864 0.35944 0.0
C1362 C 0.30509 0.1377 0.34955 0.0
C1363 C 0.33092 0.17935 0.34884 0.0
C1364 C 0.37278 0.19606 0.35444 0.0
C1365 C 0.38854 0.17141 0.3619 0.0
C1366 C 0.36225 0.13023 0.36238 0.0
C1367 C 0.32159 0.11348 0.35585 0.0
C1368 C 0.30146 0.06861 0.35388 0.0
C1369 C 0.26515 0.04737 0.37275 0.0
C1370 C 0.28825 0.0553 0.3264 0.0
C1371 C 0.3367 0.06255 0.36123 0.0
C1372 C 0.37137 0.09837 0.36637 0.0
C1373 C 0.40741 0.10009 0.37433 0.0
C1374 C 0.40787 0.06415 0.37722 0.0
C1375 C 0.37285 0.0275 0.37158 0.0
C1376 C 0.337 0.02664 0.36338 0.0
H1377 H 0.52255 0.50321 0.36046 0.0
H1378 H 0.44836 0.55681 0.37965 0.0
H1379 H 0.38552 0.49284 0.3711 0.0
H1380 H 0.45618 0.43597 0.3094 0.0
H1381 H 0.46794 0.39807 0.31924 0.0
H1382 H 0.50492 0.44997 0.32345 0.0
H1383 H 0.50633 0.43265 0.37166 0.0
H1384 H 0.46729 0.38173 0.36697 0.0
H1385 H 0.45945 0.41142 0.39031 0.0
H1386 H 0.33119 0.42139 0.36449 0.0
H1387 H 0.28949 0.34808 0.3592 0.0
H1388 H 0.39949 0.34205 0.3433 0.0
C1389 C 0.493 0.50155 0.3622 0.0
C1390 C 0.48991 0.53493 0.3697 0.0
C1391 C 0.45102 0.53169 0.37293 0.0
C1392 C 0.41534 0.49554 0.36826 0.0
C1393 C 0.41937 0.4631 0.36058 0.0
C1394 C 0.45727 0.46586 0.35742 0.0
C1395 C 0.45332 0.42606 0.35071 0.0
C1396 C 0.47172 0.42767 0.32412 0.0
C1397 C 0.47274 0.41216 0.37113 0.0
C1398 C 0.40729 0.40027 0.35094 0.0
C1399 C 0.38819 0.42214 0.35664 0.0
C1400 C 0.34578 0.40415 0.35954 0.0
C1401 C 0.3224 0.36273 0.35653 0.0
C1402 C 0.34159 0.34025 0.35043 0.0
C1403 C 0.38437 0.35913 0.34744 0.0
H1404 H 0.65542 0.05585 0.32677 0.0
H1405 H 0.6161 0.95488 0.27694 0.0
H1406 H 0.54938 0.91985 0.30017 0.0
H1407 H 0.60546 0.00188 0.38342 0.0
H1408 H 0.59006 0.0367 0.39445 0.0
H1409 H 0.63543 0.05399 0.37469 0.0
H1410 H 0.60705 0.0844 0.34242 0.0
H1411 H 0.56218 0.06813 0.36226 0.0
H1412 H 0.55672 0.05348 0.32948 0.0
H1413 H 0.49369 0.89178 0.33488 0.0
H1414 H 0.43756 0.88319 0.36431 0.0
H1415 H 0.50716 0.0077 0.38406 0.0
C1416 C 0.63208 0.02701 0.32024 0.0
C1417 C 0.64009 0.00807 0.29995 0.0
C1418 C 0.60972 0.96992 0.29218 0.0
C1419 C 0.57225 0.94964 0.3055 0.0
C1420 C 0.56574 0.96855 0.32605 0.0
C1421 C 0.59385 0.0072 0.33251 0.0
C1422 C 0.57793 0.02168 0.35419 0.0
C1423 C 0.60376 0.02898 0.3781 0.0
C1424 C 0.57584 0.05913 0.34655 0.0
C1425 C 0.53583 0.98586 0.35797 0.0
C1426 C 0.5306 0.95457 0.34291 0.0
C1427 C 0.49628 0.9168 0.34553 0.0
C1428 C 0.46448 0.91229 0.3619 0.0
C1429 C 0.46672 0.94581 0.37404 0.0
C1430 C 0.50379 0.98232 0.37343 0.0
H1431 H 0.93097 0.58273 0.33261 0.0
H1432 H 0.05568 0.68072 0.33082 0.0
H1433 H 0.07991 0.63554 0.34707 0.0
H1434 H 0.93692 0.53908 0.38972 0.0
H1435 H 0.90494 0.48827 0.37994 0.0
H1436 H 0.89842 0.52756 0.36612 0.0
H1437 H 0.90756 0.50582 0.32175 0.0
H1438 H 0.91713 0.46761 0.33425 0.0
H1439 H 0.95413 0.50614 0.31316 0.0
H1440 H 0.08811 0.58234 0.36966 0.0
H1441 H 0.08193 0.52152 0.39025 0.0
H1442 H 0.95242 0.45738 0.37442 0.0
C1443 C 0.96346 0.59413 0.33494 0.0
C1444 C 0.99184 0.63456 0.33018 0.0
C1445 C 0.03397 0.64937 0.334 0.0
C1446 C 0.0478 0.62408 0.34334 0.0
C1447 C 0.01888 0.58432 0.34853 0.0
C1448 C 0.97769 0.56927 0.34404 0.0
C1449 C 0.95271 0.52587 0.35199 0.0
C1450 C 0.92141 0.51987 0.3732 0.0
C1451 C 0.93165 0.49976 0.32893 0.0
C1452 C 0.98619 0.51889 0.36194 0.0
C1453 C 0.02405 0.55312 0.36014 0.0
C1454 C 0.05893 0.55499 0.37037 0.0
C1455 C 0.05523 0.52044 0.38188 0.0
C1456 C 0.01723 0.48464 0.38247 0.0
C1457 C 0.98212 0.48415 0.37311 0.0
H1458 H 0.49415 0.53499 0.60195 0.0
H1459 H 0.53221 0.45909 0.64073 0.0
H1460 H 0.58821 0.51793 0.66033 0.0
H1461 H 0.59999 0.62492 0.5936 0.0
H1462 H 0.58102 0.65883 0.59978 0.0
H1463 H 0.54886 0.61197 0.58456 0.0
H1464 H 0.49304 0.59449 0.61952 0.0
H1465 H 0.52513 0.64084 0.6351 0.0
H1466 H 0.50569 0.59429 0.65249 0.0
H1467 H 0.63012 0.58029 0.68201 0.0
H1468 H 0.66189 0.64629 0.70175 0.0
H1469 H 0.59988 0.6848 0.64918 0.0
C1470 C 0.51489 0.53086 0.61404 0.0
C1471 C 0.50831 0.49227 0.6201 0.0
C1472 C 0.53623 0.48821 0.63599 0.0
C1473 C 0.56832 0.52151 0.64717 0.0
C1474 C 0.57242 0.55875 0.64208 0.0
C1475 C 0.54705 0.56392 0.62559 0.0
C1476 C 0.55587 0.60684 0.62551 0.0
C1477 C 0.57243 0.62683 0.5993 0.0
C1478 C 0.51766 0.60923 0.63364 0.0
C1479 C 0.58875 0.62433 0.64546 0.0
C1480 C 0.59789 0.59591 0.65451 0.0
C1481 C 0.62407 0.60314 0.67469 0.0
C1482 C 0.64162 0.64049 0.68592 0.0
C1483 C 0.63326 0.67026 0.67685 0.0
C1484 C 0.60697 0.66246 0.65614 0.0
H1485 H 0.50143 0.99268 0.66694 0.0
H1486 H 0.55754 0.11043 0.63195 0.0
H1487 H 0.49345 0.11278 0.63935 0.0
H1488 H 0.40535 0.95743 0.6399 0.0
H1489 H 0.37649 0.92815 0.66734 0.0
H1490 H 0.42778 0.93748 0.66155 0.0
H1491 H 0.45001 0.96904 0.70646 0.0
H1492 H 0.39783 0.9571 0.71229 0.0
H1493 H 0.4387 0.00754 0.7158 0.0
H1494 H 0.42086 0.0993 0.64813 0.0
H1495 H 0.34756 0.07271 0.6597 0.0
H1496 H 0.34111 0.96404 0.68863 0.0
C1497 C 0.50036 0.01928 0.66144 0.0
C1498 C 0.53441 0.05201 0.64985 0.0
C1499 C 0.5319 0.08579 0.64182 0.0
C1500 C 0.49566 0.08719 0.64575 0.0
C1501 C 0.46243 0.05432 0.65742 0.0
C1502 C 0.46467 0.02115 0.66532 0.0
C1503 C 0.42432 0.98887 0.67616 0.0
C1504 C 0.40751 0.95075 0.66028 0.0
C1505 C 0.42799 0.98016 0.70435 0.0
C1506 C 0.39892 0.00893 0.67315 0.0
C1507 C 0.42114 0.04657 0.66221 0.0
C1508 C 0.40327 0.07 0.6569 0.0
C1509 C 0.36171 0.05463 0.66335 0.0
C1510 C 0.33903 0.01651 0.67514 0.0
C1511 C 0.35794 0.9935 0.6799 0.0
H1512 H 0.95885 0.35614 0.70466 0.0
H1513 H 0.08517 0.42516 0.72711 0.0
H1514 H 0.08245 0.48747 0.72133 0.0
H1515 H 0.96254 0.41582 0.65679 0.0
H1516 H 0.91289 0.41121 0.66196 0.0
H1517 H 0.92212 0.37202 0.67253 0.0
H1518 H 0.89853 0.37712 0.71752 0.0
H1519 H 0.89071 0.41808 0.70859 0.0
H1520 H 0.92425 0.42327 0.73433 0.0
H1521 H 0.07223 0.53971 0.70029 0.0
H1522 H 0.04958 0.58033 0.67584 0.0
H1523 H 0.92676 0.47948 0.67422 0.0
C1524 C 0.98507 0.38435 0.70962 0.0
C1525 C 0.02192 0.38635 0.7168 0.0
C1526 C 0.05643 0.42346 0.72225 0.0
C1527 C 0.05521 0.45886 0.71886 0.0
C1528 C 0.01888 0.45623 0.71068 0.0
C1529 C 0.98394 0.41987 0.70701 0.0
C1530 C 0.94989 0.42535 0.6963 0.0
C1531 C 0.9361 0.40491 0.67037 0.0
C1532 C 0.91368 0.41011 0.71532 0.0
C1533 C 0.97178 0.47032 0.69336 0.0
C1534 C 0.01181 0.48755 0.7013 0.0
C1535 C 0.04041 0.5272 0.69536 0.0
C1536 C 0.02749 0.54996 0.68142 0.0
C1537 C 0.98613 0.53338 0.67469 0.0
C1538 C 0.95801 0.49321 0.68069 0.0
H1539 H 0.11407 0.87646 0.69839 0.0
H1540 H 0.21571 0.87758 0.65824 0.0
H1541 H 0.16775 0.81632 0.6357 0.0
H1542 H 0.0705 0.77939 0.71389 0.0
H1543 H 0.01777 0.76745 0.71253 0.0
H1544 H 0.05688 0.8176 0.71883 0.0
H1545 H 0.03448 0.84431 0.68011 0.0
H1546 H 0.99431 0.79396 0.67458 0.0
H1547 H 0.0302 0.82226 0.64934 0.0
H1548 H 0.111 0.7513 0.62224 0.0
H1549 H 0.05246 0.68258 0.6237 0.0
H1550 H 0.98938 0.71856 0.67789 0.0
C1551 C 0.12568 0.86468 0.68383 0.0
C1552 C 0.16796 0.88248 0.67872 0.0
C1553 C 0.18306 0.86506 0.66126 0.0
C1554 C 0.15605 0.83042 0.64843 0.0
C1555 C 0.11429 0.81295 0.65412 0.0
C1556 C 0.0992 0.82919 0.67174 0.0
C1557 C 0.05498 0.8002 0.67892 0.0
C1558 C 0.04978 0.7906 0.70774 0.0
C1559 C 0.02684 0.81616 0.67021 0.0
C1560 C 0.04819 0.76451 0.66355 0.0
C1561 C 0.08215 0.77313 0.64852 0.0
C1562 C 0.08403 0.74433 0.63364 0.0
C1563 C 0.05072 0.70545 0.63459 0.0
C1564 C 0.01673 0.69561 0.65094 0.0
C1565 C 0.01512 0.7256 0.66522 0.0
H1566 H 0.13738 0.30018 0.67397 0.0
H1567 H 0.17518 0.41416 0.70917 0.0
H1568 H 0.24594 0.43898 0.6931 0.0
H1569 H 0.22488 0.29607 0.68956 0.0
H1570 H 0.22739 0.27217 0.66076 0.0
H1571 H 0.17886 0.26466 0.6725 0.0
H1572 H 0.16758 0.28692 0.62952 0.0
H1573 H 0.21699 0.29914 0.61667 0.0
H1574 H 0.2016 0.33657 0.6173 0.0
H1575 H 0.31399 0.44493 0.68205 0.0
H1576 H 0.37299 0.43919 0.66541 0.0
H1577 H 0.28962 0.32566 0.6323 0.0
C1578 C 0.16006 0.33102 0.67709 0.0
C1579 C 0.15088 0.35572 0.6922 0.0
C1580 C 0.18178 0.39517 0.69723 0.0
C1581 C 0.22196 0.40937 0.68836 0.0
C1582 C 0.23047 0.38368 0.67444 0.0
C1583 C 0.20023 0.34571 0.66821 0.0
C1584 C 0.218 0.32329 0.65441 0.0
C1585 C 0.21192 0.28692 0.67026 0.0
C1586 C 0.20001 0.31083 0.62784 0.0
C1587 C 0.26257 0.35504 0.65308 0.0
C1588 C 0.26946 0.38896 0.66579 0.0
C1589 C 0.30891 0.41947 0.67089 0.0
C1590 C 0.3421 0.41609 0.66142 0.0
C1591 C 0.33519 0.38335 0.64631 0.0
C1592 C 0.29517 0.35205 0.64261 0.0
H1593 H 0.61331 0.80971 0.70095 0.0
H1594 H 0.73516 0.8716 0.73188 0.0
H1595 H 0.73535 0.93571 0.72825 0.0
H1596 H 0.62711 0.88651 0.65467 0.0
H1597 H 0.5753 0.87602 0.65955 0.0
H1598 H 0.58784 0.83715 0.66457 0.0
H1599 H 0.55506 0.82731 0.71021 0.0
H1600 H 0.54607 0.86858 0.70511 0.0
H1601 H 0.57577 0.86862 0.73178 0.0
H1602 H 0.72153 0.99252 0.72193 0.0
H1603 H 0.69926 0.03969 0.70696 0.0
H1604 H 0.58759 0.94081 0.6788 0.0
C1605 C 0.64012 0.83695 0.70661 0.0
C1606 C 0.67466 0.83632 0.716 0.0
C1607 C 0.70897 0.87204 0.72388 0.0
C1608 C 0.7091 0.90836 0.72222 0.0
C1609 C 0.67446 0.90809 0.71289 0.0
C1610 C 0.64088 0.87344 0.70481 0.0
C1611 C 0.60807 0.88146 0.69481 0.0
C1612 C 0.5991 0.86956 0.66674 0.0
C1613 C 0.56893 0.86023 0.71148 0.0
C1614 C 0.62896 0.92619 0.69782 0.0
C1615 C 0.66674 0.94085 0.70895 0.0
C1616 C 0.69196 0.98142 0.71329 0.0
C1617 C 0.67894 0.0079 0.70501 0.0
C1618 C 0.64161 0.99352 0.69213 0.0
C1619 C 0.61596 0.95222 0.68901 0.0
loop_
_geom_bond_atom_site_label_1
_geom_bond_atom_site_label_2
_geom_bond_distance
_geom_bond_site_symmetry_2
_ccdc_geom_bond_type
Mn0 O5 2.095 . S
Mn0 O15 2.162 . S
Mn0 O16 2.297 . S
Mn0 O24 2.385 . S
Mn0 O25 2.209 . S
Mn0 O26 2.094 1_545 S
Mn1 O6 2.106 1_556 S
Mn1 N8 2.277 . S
Mn1 N17 2.301 . S
Mn1 O25 2.192 1_556 S
Mn1 O27 2.105 1_546 S
C2 O24 1.234 . S
C2 O25 1.283 . S
C3 O15 1.281 . S
C3 O16 1.236 . S
C4 O26 1.240 . S
C4 O27 1.264 . S
O5 Mn0 2.095 . S
O5 C14 1.250 . S
O6 Mn1 2.106 1_554 S
O6 C14 1.258 . S
C7 N8 1.326 . S
C7 C11 1.460 . S
C7 H13 0.929 . S
N8 Mn1 2.277 . S
N8 C7 1.326 . S
N8 C12 1.362 . S
C9 C10 1.258 . S
C9 C12 1.431 . S
C9 C29 1.449 . S
C10 C9 1.258 . S
C10 C11 1.477 . S
C10 H30 0.931 . S
C11 C7 1.460 . S
C11 C10 1.477 . S
C11 H31 0.930 . S
C12 N8 1.362 . S
C12 C9 1.431 . S
C12 C22 1.476 . S
H13 C7 0.929 . S
C14 O5 1.250 . S
C14 O6 1.258 . S
O15 Mn0 2.162 . S
O15 C3 1.281 . S
O16 Mn0 2.297 . S
O16 C3 1.236 . S
N17 Mn1 2.301 . S
N17 C18 1.328 . S
N17 C22 1.318 . S
C18 N17 1.328 . S
C18 C19 1.457 . S
C18 H23 0.929 . S
C19 C18 1.457 . S
C19 C20 1.291 . S
C19 H32 0.931 . S
C20 C19 1.291 . S
C20 C21 1.373 . S
C20 H33 0.929 . S
C21 C20 1.373 . S
C21 C22 1.396 . S
C21 C28 1.403 . S
C22 C12 1.476 . S
C22 N17 1.318 . S
C22 C21 1.396 . S
H23 C18 0.929 . S
O24 Mn0 2.385 . S
O24 C2 1.234 . S
O25 Mn0 2.209 . S
O25 Mn1 2.192 1_554 S
O25 C2 1.283 . S
O26 Mn0 2.094 1_565 S
O26 C4 1.240 . S
O27 Mn1 2.105 1_564 S
O27 C4 1.264 . S
C28 C21 1.403 . S
C28 C29 1.399 . S
C28 H34 0.929 . S
C29 C9 1.449 . S
C29 C28 1.399 . S
C29 H35 0.930 . S
H30 C10 0.931 . S
H31 C11 0.930 . S
H32 C19 0.931 . S
H33 C20 0.929 . S
H34 C28 0.929 . S
H35 C29 0.930 . S
Mn36 O41 2.095 . S
Mn36 O51 2.162 . S
Mn36 O52 2.297 . S
Mn36 O60 2.385 . S
Mn36 O61 2.209 . S
Mn36 O62 2.094 1_655 S
Mn37 O42 2.102 1_556 S
Mn37 N44 2.282 . S
Mn37 N53 2.306 . S
Mn37 O61 2.187 1_556 S
Mn37 O63 2.102 1_656 S
C38 O60 1.234 . S
C38 O61 1.283 . S
C39 O51 1.281 . S
C39 O52 1.236 . S
C40 O62 1.240 . S
C40 O63 1.264 . S
O41 Mn36 2.095 . S
O41 C50 1.250 . S
O42 Mn37 2.102 1_554 S
O42 C50 1.258 . S
C43 N44 1.326 . S
C43 C47 1.460 . S
C43 H49 0.929 . S
N44 Mn37 2.282 . S
N44 C43 1.326 . S
N44 C48 1.362 . S
C45 C46 1.258 . S
C45 C48 1.431 . S
C45 C65 1.449 . S
C46 C45 1.258 . S
C46 C47 1.477 . S
C46 H66 0.931 . S
C47 C43 1.460 . S
C47 C46 1.477 . S
C47 H67 0.930 . S
C48 N44 1.362 . S
C48 C45 1.431 . S
C48 C58 1.476 . S
H49 C43 0.929 . S
C50 O41 1.250 . S
C50 O42 1.258 . S
O51 Mn36 2.162 . S
O51 C39 1.281 . S
O52 Mn36 2.297 . S
O52 C39 1.236 . S
N53 Mn37 2.306 . S
N53 C54 1.328 . S
N53 C58 1.318 . S
C54 N53 1.328 . S
C54 C55 1.457 . S
C54 H59 0.929 . S
C55 C54 1.457 . S
C55 C56 1.291 . S
C55 H68 0.931 . S
C56 C55 1.291 . S
C56 C57 1.373 . S
C56 H69 0.929 . S
C57 C56 1.373 . S
C57 C58 1.396 . S
C57 C64 1.403 . S
C58 C48 1.476 . S
C58 N53 1.318 . S
C58 C57 1.396 . S
H59 C54 0.929 . S
O60 Mn36 2.385 . S
O60 C38 1.234 . S
O61 Mn36 2.209 . S
O61 Mn37 2.187 1_554 S
O61 C38 1.283 . S
O62 Mn36 2.094 1_455 S
O62 C40 1.240 . S
O63 Mn37 2.102 1_454 S
O63 C40 1.264 . S
C64 C57 1.403 . S
C64 C65 1.399 . S
C64 H70 0.929 . S
C65 C45 1.449 . S
C65 C64 1.399 . S
C65 H71 0.930 . S
H66 C46 0.931 . S
H67 C47 0.930 . S
H68 C55 0.931 . S
H69 C56 0.929 . S
H70 C64 0.929 . S
H71 C65 0.930 . S
Mn72 O77 2.095 . S
Mn72 O87 2.162 . S
Mn72 O88 2.297 . S
Mn72 O96 2.385 . S
Mn72 O97 2.209 . S
Mn72 O98 2.094 . S
Mn73 O78 2.121 1_556 S
Mn73 N80 2.257 . S
Mn73 N89 2.282 . S
Mn73 O97 2.215 1_556 S
Mn73 O99 2.117 1_556 S
C74 O96 1.234 . S
C74 O97 1.283 . S
C75 O87 1.281 . S
C75 O88 1.236 . S
C76 O98 1.240 . S
C76 O99 1.264 . S
O77 Mn72 2.095 . S
O77 C86 1.250 . S
O78 Mn73 2.121 1_554 S
O78 C86 1.258 . S
C79 N80 1.326 . S
C79 C83 1.460 . S
C79 H85 0.929 . S
N80 Mn73 2.257 . S
N80 C79 1.326 . S
N80 C84 1.362 . S
C81 C82 1.258 . S
C81 C84 1.431 . S
C81 C101 1.449 . S
C82 C81 1.258 . S
C82 C83 1.477 . S
C82 H102 0.931 . S
C83 C79 1.460 . S
C83 C82 1.477 . S
C83 H103 0.930 . S
C84 N80 1.362 . S
C84 C81 1.431 . S
C84 C94 1.476 . S
H85 C79 0.929 . S
C86 O77 1.250 . S
C86 O78 1.258 . S
O87 Mn72 2.162 . S
O87 C75 1.281 . S
O88 Mn72 2.297 . S
O88 C75 1.236 . S
N89 Mn73 2.282 . S
N89 C90 1.328 . S
N89 C94 1.318 . S
C90 N89 1.328 . S
C90 C91 1.457 . S
C90 H95 0.929 . S
C91 C90 1.457 . S
C91 C92 1.291 . S
C91 H104 0.931 . S
C92 C91 1.291 . S
C92 C93 1.373 . S
C92 H105 0.929 . S
C93 C92 1.373 . S
C93 C94 1.396 . S
C93 C100 1.403 . S
C94 C84 1.476 . S
C94 N89 1.318 . S
C94 C93 1.396 . S
H95 C90 0.929 . S
O96 Mn72 2.385 . S
O96 C74 1.234 . S
O97 Mn72 2.209 . S
O97 Mn73 2.215 1_554 S
O97 C74 1.283 . S
O98 Mn72 2.094 . S
O98 C76 1.240 . S
O99 Mn73 2.117 1_554 S
O99 C76 1.264 . S
C100 C93 1.403 . S
C100 C101 1.399 . S
C100 H106 0.929 . S
C101 C81 1.449 . S
C101 C100 1.399 . S
C101 H107 0.930 . S
H102 C82 0.931 . S
H103 C83 0.930 . S
H104 C91 0.931 . S
H105 C92 0.929 . S
H106 C100 0.929 . S
H107 C101 0.930 . S
Mn108 O113 2.095 . S
Mn108 O123 2.162 . S
Mn108 O124 2.297 . S
Mn108 O132 2.385 . S
Mn108 O133 2.209 . S
Mn108 O134 2.094 1_565 S
Mn109 O114 2.121 1_554 S
Mn109 N116 2.257 . S
Mn109 N125 2.282 . S
Mn109 O133 2.215 1_554 S
Mn109 O135 2.117 1_564 S
C110 O132 1.234 . S
C110 O133 1.283 . S
C111 O123 1.281 . S
C111 O124 1.236 . S
C112 O134 1.240 . S
C112 O135 1.264 . S
O113 Mn108 2.095 . S
O113 C122 1.250 . S
O114 Mn109 2.121 1_556 S
O114 C122 1.258 . S
C115 N116 1.326 . S
C115 C119 1.460 . S
C115 H121 0.929 . S
N116 Mn109 2.257 . S
N116 C115 1.326 . S
N116 C120 1.362 . S
C117 C118 1.258 . S
C117 C120 1.431 . S
C117 C137 1.449 . S
C118 C117 1.258 . S
C118 C119 1.477 . S
C118 H138 0.931 . S
C119 C115 1.460 . S
C119 C118 1.477 . S
C119 H139 0.930 . S
C120 N116 1.362 . S
C120 C117 1.431 . S
C120 C130 1.476 . S
H121 C115 0.929 . S
C122 O113 1.250 . S
C122 O114 1.258 . S
O123 Mn108 2.162 . S
O123 C111 1.281 . S
O124 Mn108 2.297 . S
O124 C111 1.236 . S
N125 Mn109 2.282 . S
N125 C126 1.328 . S
N125 C130 1.318 . S
C126 N125 1.328 . S
C126 C127 1.457 . S
C126 H131 0.929 . S
C127 C126 1.457 . S
C127 C128 1.291 . S
C127 H140 0.931 . S
C128 C127 1.291 . S
C128 C129 1.373 . S
C128 H141 0.929 . S
C129 C128 1.373 . S
C129 C130 1.396 . S
C129 C136 1.403 . S
C130 C120 1.476 . S
C130 N125 1.318 . S
C130 C129 1.396 . S
H131 C126 0.929 . S
O132 Mn108 2.385 . S
O132 C110 1.234 . S
O133 Mn108 2.209 . S
O133 Mn109 2.215 1_556 S
O133 C110 1.283 . S
O134 Mn108 2.094 1_545 S
O134 C112 1.240 . S
O135 Mn109 2.117 1_546 S
O135 C112 1.264 . S
C136 C129 1.403 . S
C136 C137 1.399 . S
C136 H142 0.929 . S
C137 C117 1.449 . S
C137 C136 1.399 . S
C137 H143 0.930 . S
H138 C118 0.931 . S
H139 C119 0.930 . S
H140 C127 0.931 . S
H141 C128 0.929 . S
H142 C136 0.929 . S
H143 C137 0.930 . S
Mn144 O149 2.095 . S
Mn144 O159 2.162 . S
Mn144 O160 2.297 1_455 S
Mn144 O168 2.385 1_455 S
Mn144 O169 2.209 1_455 S
Mn144 O170 2.094 . S
Mn145 O150 2.121 . S
Mn145 N152 2.257 1_455 S
Mn145 N161 2.282 1_455 S
Mn145 O169 2.215 1_455 S
Mn145 O171 2.117 . S
C146 O168 1.234 . S
C146 O169 1.283 . S
C147 O159 1.281 . S
C147 O160 1.236 1_455 S
C148 O170 1.240 . S
C148 O171 1.264 . S
O149 Mn144 2.095 . S
O149 C158 1.250 . S
O150 Mn145 2.121 . S
O150 C158 1.258 . S
C151 N152 1.326 . S
C151 C155 1.460 . S
C151 H157 0.929 . S
N152 Mn145 2.257 1_655 S
N152 C151 1.326 . S
N152 C156 1.362 . S
C153 C154 1.258 . S
C153 C156 1.431 . S
C153 C173 1.449 . S
C154 C153 1.258 . S
C154 C155 1.477 . S
C154 H174 0.931 . S
C155 C151 1.460 . S
C155 C154 1.477 . S
C155 H175 0.930 . S
C156 N152 1.362 . S
C156 C153 1.431 . S
C156 C166 1.476 . S
H157 C151 0.929 . S
C158 O149 1.250 . S
C158 O150 1.258 . S
O159 Mn144 2.162 . S
O159 C147 1.281 . S
O160 Mn144 2.297 1_655 S
O160 C147 1.236 1_655 S
N161 Mn145 2.282 1_655 S
N161 C162 1.328 . S
N161 C166 1.318 . S
C162 N161 1.328 . S
C162 C163 1.437 1_556 S
C162 H167 0.929 1_655 S
C163 C162 1.437 1_554 S
C163 C164 1.277 1_554 S
C163 H176 0.966 . S
C164 C163 1.277 1_556 S
C164 C165 1.373 . S
C164 H177 0.929 1_556 S
C165 C164 1.373 . S
C165 C166 1.396 . S
C165 C172 1.403 . S
C166 C156 1.476 . S
C166 N161 1.318 . S
C166 C165 1.396 . S
H167 C162 0.929 1_455 S
O168 Mn144 2.385 1_655 S
O168 C146 1.234 . S
O169 Mn144 2.209 1_655 S
O169 Mn145 2.215 1_655 S
O169 C146 1.283 . S
O170 Mn144 2.094 . S
O170 C148 1.240 . S
O171 Mn145 2.117 . S
O171 C148 1.264 . S
C172 C165 1.403 . S
C172 C173 1.399 . S
C172 H178 0.929 . S
C173 C153 1.449 . S
C173 C172 1.399 . S
C173 H179 0.930 . S
H174 C154 0.931 . S
H175 C155 0.930 . S
H176 C163 0.966 . S
H177 C164 0.929 1_554 S
H178 C172 0.929 . S
H179 C173 0.930 . S
Mn180 O185 2.095 . S
Mn180 O195 2.162 . S
Mn180 O196 2.297 . S
Mn180 O204 2.385 . S
Mn180 O205 2.209 . S
Mn180 O206 2.094 . S
Mn181 O186 2.140 . S
Mn181 N188 2.233 1_556 S
Mn181 N197 2.260 1_556 S
Mn181 O205 2.244 . S
Mn181 O207 2.133 . S
C182 O204 1.234 . S
C182 O205 1.283 . S
C183 O195 1.281 . S
C183 O196 1.236 . S
C184 O206 1.240 . S
C184 O207 1.264 . S
O185 Mn180 2.095 . S
O185 C194 1.250 . S
O186 Mn181 2.140 . S
O186 C194 1.258 . S
C187 N188 1.326 . S
C187 C191 1.460 . S
C187 H193 0.929 . S
N188 Mn181 2.233 1_554 S
N188 C187 1.326 . S
N188 C192 1.362 . S
C189 C190 1.258 . S
C189 C192 1.431 . S
C189 C209 1.449 . S
C190 C189 1.258 . S
C190 C191 1.477 . S
C190 H210 0.931 . S
C191 C187 1.460 . S
C191 C190 1.477 . S
C191 H211 0.930 . S
C192 N188 1.362 . S
C192 C189 1.431 . S
C192 C202 1.476 . S
H193 C187 0.929 . S
C194 O185 1.250 . S
C194 O186 1.258 . S
O195 Mn180 2.162 . S
O195 C183 1.281 . S
O196 Mn180 2.297 . S
O196 C183 1.236 . S
N197 Mn181 2.260 1_554 S
N197 C198 1.328 . S
N197 C202 1.318 . S
C198 N197 1.328 . S
C198 C199 1.457 . S
C198 H203 0.929 . S
C199 C198 1.457 . S
C199 C200 1.291 . S
C199 H212 0.931 . S
C200 C199 1.291 . S
C200 C201 1.373 . S
C200 H213 0.929 . S
C201 C200 1.373 . S
C201 C202 1.396 . S
C201 C208 1.403 . S
C202 C192 1.476 . S
C202 N197 1.318 . S
C202 C201 1.396 . S
H203 C198 0.929 . S
O204 Mn180 2.385 . S
O204 C182 1.234 . S
O205 Mn180 2.209 . S
O205 Mn181 2.244 . S
O205 C182 1.283 . S
O206 Mn180 2.094 . S
O206 C184 1.240 . S
O207 Mn181 2.133 . S
O207 C184 1.264 . S
C208 C201 1.403 . S
C208 C209 1.399 . S
C208 H214 0.929 . S
C209 C189 1.449 . S
C209 C208 1.399 . S
C209 H215 0.930 . S
H210 C190 0.931 . S
H211 C191 0.930 . S
H212 C199 0.931 . S
H213 C200 0.929 . S
H214 C208 0.929 . S
H215 C209 0.930 . S
Mn216 O221 2.095 1_655 S
Mn216 O231 2.162 . S
Mn216 O232 2.297 1_655 S
Mn216 O240 2.385 . S
Mn216 O241 2.209 1_655 S
Mn216 O242 2.094 . S
Mn217 O222 2.121 . S
Mn217 N224 2.257 . S
Mn217 N233 2.282 1_455 S
Mn217 O241 2.215 . S
Mn217 O243 2.117 1_455 S
C218 O240 1.234 . S
C218 O241 1.283 1_655 S
C219 O231 1.281 1_455 S
C219 O232 1.236 . S
C220 O242 1.240 . S
C220 O243 1.264 . S
O221 Mn216 2.095 1_455 S
O221 C230 1.250 . S
O222 Mn217 2.121 . S
O222 C230 1.258 . S
C223 N224 1.326 . S
C223 C227 1.460 . S
C223 H229 0.929 . S
N224 Mn217 2.257 . S
N224 C223 1.326 . S
N224 C228 1.362 . S
C225 C226 1.258 . S
C225 C228 1.431 . S
C225 C245 1.449 . S
C226 C225 1.258 . S
C226 C227 1.477 . S
C226 H246 0.931 . S
C227 C223 1.460 . S
C227 C226 1.477 . S
C227 H247 0.930 . S
C228 N224 1.362 . S
C228 C225 1.431 . S
C228 C238 1.476 1_455 S
H229 C223 0.929 . S
C230 O221 1.250 . S
C230 O222 1.258 . S
O231 Mn216 2.162 . S
O231 C219 1.281 1_655 S
O232 Mn216 2.297 1_455 S
O232 C219 1.236 . S
N233 Mn217 2.282 1_655 S
N233 C234 1.328 . S
N233 C238 1.318 . S
C234 N233 1.328 . S
C234 C235 1.457 . S
C234 H239 0.929 . S
C235 C234 1.457 . S
C235 C236 1.291 . S
C235 H248 0.931 . S
C236 C235 1.291 . S
C236 C237 1.373 . S
C236 H249 0.929 . S
C237 C236 1.373 . S
C237 C238 1.396 . S
C237 C244 1.403 . S
C238 C228 1.476 1_655 S
C238 N233 1.318 . S
C238 C237 1.396 . S
H239 C234 0.929 . S
O240 Mn216 2.385 . S
O240 C218 1.234 . S
O241 Mn216 2.209 1_455 S
O241 Mn217 2.215 . S
O241 C218 1.283 1_455 S
O242 Mn216 2.094 . S
O242 C220 1.240 . S
O243 Mn217 2.117 1_655 S
O243 C220 1.264 . S
C244 C237 1.403 . S
C244 C245 1.399 1_655 S
C244 H250 0.929 . S
C245 C225 1.449 . S
C245 C244 1.399 1_455 S
C245 H251 0.930 . S
H246 C226 0.931 . S
H247 C227 0.930 . S
H248 C235 0.931 . S
H249 C236 0.929 . S
H250 C244 0.929 . S
H251 C245 0.930 . S
Mn252 O257 2.095 . S
Mn252 O267 2.162 . S
Mn252 O268 2.297 . S
Mn252 O276 2.385 . S
Mn252 O277 2.209 . S
Mn252 O278 2.094 . S
Mn253 O258 2.121 . S
Mn253 N260 2.257 . S
Mn253 N269 2.282 . S
Mn253 O277 2.215 . S
Mn253 O279 2.117 . S
C254 O276 1.234 . S
C254 O277 1.283 . S
C255 O267 1.281 . S
C255 O268 1.236 . S
C256 O278 1.240 . S
C256 O279 1.264 . S
O257 Mn252 2.095 . S
O257 C266 1.250 . S
O258 Mn253 2.121 . S
O258 C266 1.258 . S
C259 N260 1.326 . S
C259 C263 1.460 . S
C259 H265 0.929 . S
N260 Mn253 2.257 . S
N260 C259 1.326 . S
N260 C264 1.362 . S
C261 C262 1.258 . S
C261 C264 1.431 . S
C261 C281 1.449 . S
C262 C261 1.258 . S
C262 C263 1.477 . S
C262 H282 0.931 . S
C263 C259 1.460 . S
C263 C262 1.477 . S
C263 H283 0.930 . S
C264 N260 1.362 . S
C264 C261 1.431 . S
C264 C274 1.476 . S
H265 C259 0.929 . S
C266 O257 1.250 . S
C266 O258 1.258 . S
O267 Mn252 2.162 . S
O267 C255 1.281 . S
O268 Mn252 2.297 . S
O268 C255 1.236 . S
N269 Mn253 2.282 . S
N269 C270 1.328 . S
N269 C274 1.318 . S
C270 N269 1.328 . S
C270 C271 1.457 . S
C270 H275 0.929 . S
C271 C270 1.457 . S
C271 C272 1.291 . S
C271 H284 0.931 . S
C272 C271 1.291 . S
C272 C273 1.373 . S
C272 H285 0.929 . S
C273 C272 1.373 . S
C273 C274 1.396 . S
C273 C280 1.403 . S
C274 C264 1.476 . S
C274 N269 1.318 . S
C274 C273 1.396 . S
H275 C270 0.929 . S
O276 Mn252 2.385 . S
O276 C254 1.234 . S
O277 Mn252 2.209 . S
O277 Mn253 2.215 . S
O277 C254 1.283 . S
O278 Mn252 2.094 . S
O278 C256 1.240 . S
O279 Mn253 2.117 . S
O279 C256 1.264 . S
C280 C273 1.403 . S
C280 C281 1.399 . S
C280 H286 0.929 . S
C281 C261 1.449 . S
C281 C280 1.399 . S
C281 H287 0.930 . S
H282 C262 0.931 . S
H283 C263 0.930 . S
H284 C271 0.931 . S
H285 C272 0.929 . S
H286 C280 0.929 . S
H287 C281 0.930 . S
Mn288 O293 2.095 1_545 S
Mn288 O303 2.162 . S
Mn288 O304 2.297 1_545 S
Mn288 O312 2.385 . S
Mn288 O313 2.209 1_545 S
Mn288 O314 2.094 . S
Mn289 O294 2.121 . S
Mn289 N296 2.257 . S
Mn289 N305 2.282 1_565 S
Mn289 O313 2.215 . S
Mn289 O315 2.117 1_565 S
C290 O312 1.234 . S
C290 O313 1.283 1_545 S
C291 O303 1.281 1_565 S
C291 O304 1.236 . S
C292 O314 1.240 . S
C292 O315 1.264 . S
O293 Mn288 2.095 1_565 S
O293 C302 1.250 . S
O294 Mn289 2.121 . S
O294 C302 1.258 . S
C295 N296 1.326 . S
C295 C299 1.460 . S
C295 H301 0.929 . S
N296 Mn289 2.257 . S
N296 C295 1.326 . S
N296 C300 1.362 . S
C297 C298 1.258 . S
C297 C300 1.431 . S
C297 C317 1.449 . S
C298 C297 1.258 . S
C298 C299 1.477 . S
C298 H318 0.931 . S
C299 C295 1.460 . S
C299 C298 1.477 . S
C299 H319 0.930 . S
C300 N296 1.362 . S
C300 C297 1.431 . S
C300 C310 1.476 1_565 S
H301 C295 0.929 . S
C302 O293 1.250 . S
C302 O294 1.258 . S
O303 Mn288 2.162 . S
O303 C291 1.281 1_545 S
O304 Mn288 2.297 1_565 S
O304 C291 1.236 . S
N305 Mn289 2.282 1_545 S
N305 C306 1.328 . S
N305 C310 1.318 . S
C306 N305 1.328 . S
C306 C307 1.457 . S
C306 H311 0.929 . S
C307 C306 1.457 . S
C307 C308 1.291 . S
C307 H320 0.931 . S
C308 C307 1.291 . S
C308 C309 1.373 . S
C308 H321 0.929 . S
C309 C308 1.373 . S
C309 C310 1.396 . S
C309 C316 1.403 . S
C310 C300 1.476 1_545 S
C310 N305 1.318 . S
C310 C309 1.396 . S
H311 C306 0.929 . S
O312 Mn288 2.385 . S
O312 C290 1.234 . S
O313 Mn288 2.209 1_565 S
O313 Mn289 2.215 . S
O313 C290 1.283 1_565 S
O314 Mn288 2.094 . S
O314 C292 1.240 . S
O315 Mn289 2.117 1_545 S
O315 C292 1.264 . S
C316 C309 1.403 . S
C316 C317 1.399 1_545 S
C316 H322 0.929 . S
C317 C297 1.449 . S
C317 C316 1.399 1_565 S
C317 H323 0.930 . S
H318 C298 0.931 . S
H319 C299 0.930 . S
H320 C307 0.931 . S
H321 C308 0.929 . S
H322 C316 0.929 . S
H323 C317 0.930 . S
Mn324 O329 2.095 . S
Mn324 O339 2.162 . S
Mn324 O340 2.297 . S
Mn324 O348 2.385 . S
Mn324 O349 2.209 . S
Mn324 O350 2.094 . S
Mn325 O330 2.121 . S
Mn325 N332 2.257 . S
Mn325 N341 2.282 . S
Mn325 O349 2.215 . S
Mn325 O351 2.117 . S
C326 O348 1.234 . S
C326 O349 1.283 . S
C327 O339 1.281 . S
C327 O340 1.236 . S
C328 O350 1.240 . S
C328 O351 1.264 . S
O329 Mn324 2.095 . S
O329 C338 1.250 . S
O330 Mn325 2.121 . S
O330 C338 1.258 . S
C331 N332 1.326 . S
C331 C335 1.460 . S
C331 H337 0.929 . S
N332 Mn325 2.257 . S
N332 C331 1.326 . S
N332 C336 1.362 . S
C333 C334 1.258 . S
C333 C336 1.431 . S
C333 C353 1.449 . S
C334 C333 1.258 . S
C334 C335 1.477 . S
C334 H354 0.931 . S
C335 C331 1.460 . S
C335 C334 1.477 . S
C335 H355 0.930 . S
C336 N332 1.362 . S
C336 C333 1.431 . S
C336 C346 1.476 . S
H337 C331 0.929 . S
C338 O329 1.250 . S
C338 O330 1.258 . S
O339 Mn324 2.162 . S
O339 C327 1.281 . S
O340 Mn324 2.297 . S
O340 C327 1.236 . S
N341 Mn325 2.282 . S
N341 C342 1.328 . S
N341 C346 1.318 . S
C342 N341 1.328 . S
C342 C343 1.457 . S
C342 H347 0.929 . S
C343 C342 1.457 . S
C343 C344 1.291 . S
C343 H356 0.931 . S
C344 C343 1.291 . S
C344 C345 1.373 . S
C344 H357 0.929 . S
C345 C344 1.373 . S
C345 C346 1.396 . S
C345 C352 1.403 . S
C346 C336 1.476 . S
C346 N341 1.318 . S
C346 C345 1.396 . S
H347 C342 0.929 . S
O348 Mn324 2.385 . S
O348 C326 1.234 . S
O349 Mn324 2.209 . S
O349 Mn325 2.215 . S
O349 C326 1.283 . S
O350 Mn324 2.094 . S
O350 C328 1.240 . S
O351 Mn325 2.117 . S
O351 C328 1.264 . S
C352 C345 1.403 . S
C352 C353 1.399 . S
C352 H358 0.929 . S
C353 C333 1.449 . S
C353 C352 1.399 . S
C353 H359 0.930 . S
H354 C334 0.931 . S
H355 C335 0.930 . S
H356 C343 0.931 . S
H357 C344 0.929 . S
H358 C352 0.929 . S
H359 C353 0.930 . S
Mn360 O365 2.095 . S
Mn360 O375 2.162 1_545 S
Mn360 O376 2.297 1_545 S
Mn360 O384 2.385 . S
Mn360 O385 2.209 . S
Mn360 O386 2.094 . S
Mn361 O366 2.121 . S
Mn361 N368 2.257 . S
Mn361 N377 2.282 . S
Mn361 O385 2.215 . S
Mn361 O387 2.117 . S
C362 O384 1.234 . S
C362 O385 1.283 . S
C363 O375 1.281 . S
C363 O376 1.236 . S
C364 O386 1.240 . S
C364 O387 1.264 . S
O365 Mn360 2.095 . S
O365 C374 1.250 . S
O366 Mn361 2.121 . S
O366 C374 1.258 . S
C367 N368 1.326 . S
C367 C371 1.460 . S
C367 H373 0.929 . S
N368 Mn361 2.257 . S
N368 C367 1.326 . S
N368 C372 1.362 . S
C369 C370 1.258 . S
C369 C372 1.431 . S
C369 C389 1.449 . S
C370 C369 1.258 . S
C370 C371 1.477 . S
C370 H390 0.931 . S
C371 C367 1.460 . S
C371 C370 1.477 . S
C371 H391 0.930 . S
C372 N368 1.362 . S
C372 C369 1.431 . S
C372 C382 1.476 . S
H373 C367 0.929 . S
C374 O365 1.250 . S
C374 O366 1.258 . S
O375 Mn360 2.162 1_565 S
O375 C363 1.281 . S
O376 Mn360 2.297 1_565 S
O376 C363 1.236 . S
N377 Mn361 2.282 . S
N377 C378 1.328 . S
N377 C382 1.318 . S
C378 N377 1.328 . S
C378 C379 1.457 . S
C378 H383 0.929 . S
C379 C378 1.457 . S
C379 C380 1.291 . S
C379 H392 0.931 . S
C380 C379 1.291 . S
C380 C381 1.373 . S
C380 H393 0.929 . S
C381 C380 1.373 . S
C381 C382 1.396 . S
C381 C388 1.403 . S
C382 C372 1.476 . S
C382 N377 1.318 . S
C382 C381 1.396 . S
H383 C378 0.929 . S
O384 Mn360 2.385 . S
O384 C362 1.234 . S
O385 Mn360 2.209 . S
O385 Mn361 2.215 . S
O385 C362 1.283 . S
O386 Mn360 2.094 . S
O386 C364 1.240 . S
O387 Mn361 2.117 . S
O387 C364 1.264 . S
C388 C381 1.403 . S
C388 C389 1.399 . S
C388 H394 0.929 . S
C389 C369 1.449 . S
C389 C388 1.399 . S
C389 H395 0.930 . S
H390 C370 0.931 . S
H391 C371 0.930 . S
H392 C379 0.931 . S
H393 C380 0.929 . S
H394 C388 0.929 . S
H395 C389 0.930 . S
Mn396 O401 2.095 1_655 S
Mn396 O411 2.162 . S
Mn396 O412 2.297 . S
Mn396 O420 2.385 . S
Mn396 O421 2.209 . S
Mn396 O422 2.094 . S
Mn397 O402 2.121 1_655 S
Mn397 N404 2.257 . S
Mn397 N413 2.282 . S
Mn397 O421 2.215 . S
Mn397 O423 2.117 . S
C398 O420 1.234 . S
C398 O421 1.283 . S
C399 O411 1.281 . S
C399 O412 1.236 . S
C400 O422 1.240 . S
C400 O423 1.264 . S
O401 Mn396 2.095 1_455 S
O401 C410 1.250 . S
O402 Mn397 2.121 1_455 S
O402 C410 1.258 . S
C403 N404 1.326 . S
C403 C407 1.460 . S
C403 H409 0.914 1_655 S
N404 Mn397 2.257 . S
N404 C403 1.326 . S
N404 C408 1.362 . S
C405 C406 1.258 . S
C405 C408 1.431 . S
C405 C425 1.449 . S
C406 C405 1.258 . S
C406 C407 1.477 . S
C406 H426 0.931 . S
C407 C403 1.460 . S
C407 C406 1.477 . S
C407 H427 0.930 . S
C408 N404 1.362 . S
C408 C405 1.431 . S
C408 C418 1.476 . S
H409 C403 0.914 1_455 S
C410 O401 1.250 . S
C410 O402 1.258 . S
O411 Mn396 2.162 . S
O411 C399 1.281 . S
O412 Mn396 2.297 . S
O412 C399 1.236 . S
N413 Mn397 2.282 . S
N413 C414 1.328 . S
N413 C418 1.318 . S
C414 N413 1.328 . S
C414 C415 1.457 . S
C414 H419 0.929 . S
C415 C414 1.457 . S
C415 C416 1.291 . S
C415 H428 0.931 . S
C416 C415 1.291 . S
C416 C417 1.373 . S
C416 H429 0.929 . S
C417 C416 1.373 . S
C417 C418 1.396 . S
C417 C424 1.403 . S
C418 C408 1.476 . S
C418 N413 1.318 . S
C418 C417 1.396 . S
H419 C414 0.929 . S
O420 Mn396 2.385 . S
O420 C398 1.234 . S
O421 Mn396 2.209 . S
O421 Mn397 2.215 . S
O421 C398 1.283 . S
O422 Mn396 2.094 . S
O422 C400 1.240 . S
O423 Mn397 2.117 . S
O423 C400 1.264 . S
C424 C417 1.403 . S
C424 C425 1.399 . S
C424 H430 0.929 . S
C425 C405 1.449 . S
C425 C424 1.399 . S
C425 H431 0.930 . S
H426 C406 0.931 . S
H427 C407 0.930 . S
H428 C415 0.931 . S
H429 C416 0.929 . S
H430 C424 0.929 . S
H431 C425 0.930 . S
Mn432 O437 2.095 . S
Mn432 O447 2.162 . S
Mn432 O448 2.297 . S
Mn432 O456 2.385 . S
Mn432 O457 2.209 . S
Mn432 O458 2.094 . S
Mn433 O438 2.121 . S
Mn433 N440 2.257 . S
Mn433 N449 2.282 . S
Mn433 O457 2.215 . S
Mn433 O459 2.117 . S
C434 O456 1.234 . S
C434 O457 1.283 . S
C435 O447 1.281 . S
C435 O448 1.236 . S
C436 O458 1.240 . S
C436 O459 1.264 . S
O437 Mn432 2.095 . S
O437 C446 1.250 . S
O438 Mn433 2.121 . S
O438 C446 1.258 . S
C439 N440 1.326 . S
C439 C443 1.460 . S
C439 H445 0.929 . S
N440 Mn433 2.257 . S
N440 C439 1.326 . S
N440 C444 1.362 . S
C441 C442 1.258 . S
C441 C444 1.431 . S
C441 C461 1.449 . S
C442 C441 1.258 . S
C442 C443 1.477 . S
C442 H462 0.931 . S
C443 C439 1.460 . S
C443 C442 1.477 . S
C443 H463 0.930 . S
C444 N440 1.362 . S
C444 C441 1.431 . S
C444 C454 1.476 . S
H445 C439 0.929 . S
C446 O437 1.250 . S
C446 O438 1.258 . S
O447 Mn432 2.162 . S
O447 C435 1.281 . S
O448 Mn432 2.297 . S
O448 C435 1.236 . S
N449 Mn433 2.282 . S
N449 C450 1.328 . S
N449 C454 1.318 . S
C450 N449 1.328 . S
C450 C451 1.457 . S
C450 H455 0.929 . S
C451 C450 1.457 . S
C451 C452 1.291 . S
C451 H464 0.931 . S
C452 C451 1.291 . S
C452 C453 1.373 . S
C452 H465 0.929 . S
C453 C452 1.373 . S
C453 C454 1.396 . S
C453 C460 1.403 . S
C454 C444 1.476 . S
C454 N449 1.318 . S
C454 C453 1.396 . S
H455 C450 0.929 . S
O456 Mn432 2.385 . S
O456 C434 1.234 . S
O457 Mn432 2.209 . S
O457 Mn433 2.215 . S
O457 C434 1.283 . S
O458 Mn432 2.094 . S
O458 C436 1.240 . S
O459 Mn433 2.117 . S
O459 C436 1.264 . S
C460 C453 1.403 . S
C460 C461 1.399 . S
C460 H466 0.929 . S
C461 C441 1.449 . S
C461 C460 1.399 . S
C461 H467 0.930 . S
H462 C442 0.931 . S
H463 C443 0.930 . S
H464 C451 0.931 . S
H465 C452 0.929 . S
H466 C460 0.929 . S
H467 C461 0.930 . S
Mn468 O473 2.095 1_565 S
Mn468 O483 2.162 . S
Mn468 O484 2.297 . S
Mn468 O492 2.385 . S
Mn468 O493 2.209 . S
Mn468 O494 2.094 . S
Mn469 O474 2.121 1_565 S
Mn469 N476 2.257 . S
Mn469 N485 2.282 . S
Mn469 O493 2.215 . S
Mn469 O495 2.117 . S
C470 O492 1.234 . S
C470 O493 1.283 . S
C471 O483 1.281 . S
C471 O484 1.236 . S
C472 O494 1.240 . S
C472 O495 1.264 . S
O473 Mn468 2.095 1_545 S
O473 C482 1.250 . S
O474 Mn469 2.121 1_545 S
O474 C482 1.258 . S
C475 N476 1.326 . S
C475 C479 1.460 . S
C475 H481 0.929 . S
N476 Mn469 2.257 . S
N476 C475 1.326 . S
N476 C480 1.362 . S
C477 C478 1.258 . S
C477 C480 1.431 . S
C477 C497 1.449 . S
C478 C477 1.258 . S
C478 C479 1.477 . S
C478 H498 0.931 . S
C479 C475 1.460 . S
C479 C478 1.477 . S
C479 H499 0.930 . S
C480 N476 1.362 . S
C480 C477 1.431 . S
C480 C490 1.476 . S
H481 C475 0.929 . S
C482 O473 1.250 . S
C482 O474 1.258 . S
O483 Mn468 2.162 . S
O483 C471 1.281 . S
O484 Mn468 2.297 . S
O484 C471 1.236 . S
N485 Mn469 2.282 . S
N485 C486 1.328 . S
N485 C490 1.318 . S
C486 N485 1.328 . S
C486 C487 1.457 . S
C486 H491 0.929 . S
C487 C486 1.457 . S
C487 C488 1.291 . S
C487 H500 0.931 . S
C488 C487 1.291 . S
C488 C489 1.373 . S
C488 H501 0.929 . S
C489 C488 1.373 . S
C489 C490 1.396 . S
C489 C496 1.403 . S
C490 C480 1.476 . S
C490 N485 1.318 . S
C490 C489 1.396 . S
H491 C486 0.929 . S
O492 Mn468 2.385 . S
O492 C470 1.234 . S
O493 Mn468 2.209 . S
O493 Mn469 2.215 . S
O493 C470 1.283 . S
O494 Mn468 2.094 . S
O494 C472 1.240 . S
O495 Mn469 2.117 . S
O495 C472 1.264 . S
C496 C489 1.403 . S
C496 C497 1.399 . S
C496 H502 0.929 . S
C497 C477 1.449 . S
C497 C496 1.399 . S
C497 H503 0.930 . S
H498 C478 0.931 . S
H499 C479 0.930 . S
H500 C487 0.931 . S
H501 C488 0.929 . S
H502 C496 0.929 . S
H503 C497 0.930 . S
Mn504 O509 2.095 1_455 S
Mn504 O519 2.162 . S
Mn504 O520 2.297 . S
Mn504 O528 2.385 . S
Mn504 O529 2.209 . S
Mn504 O530 2.094 . S
Mn505 O510 2.121 1_455 S
Mn505 N512 2.257 . S
Mn505 N521 2.282 . S
Mn505 O529 2.215 . S
Mn505 O531 2.117 . S
C506 O528 1.234 . S
C506 O529 1.283 . S
C507 O519 1.281 . S
C507 O520 1.236 . S
C508 O530 1.240 . S
C508 O531 1.264 . S
O509 Mn504 2.095 1_655 S
O509 C518 1.250 . S
O510 Mn505 2.121 1_655 S
O510 C518 1.258 . S
C511 N512 1.326 . S
C511 C515 1.460 . S
C511 H517 0.929 1_455 S
N512 Mn505 2.257 . S
N512 C511 1.326 . S
N512 C516 1.362 . S
C513 C514 1.258 . S
C513 C516 1.431 . S
C513 C533 1.449 . S
C514 C513 1.258 . S
C514 C515 1.477 . S
C514 H534 0.931 . S
C515 C511 1.460 . S
C515 C514 1.477 . S
C515 H535 0.930 . S
C516 N512 1.362 . S
C516 C513 1.431 . S
C516 C526 1.476 . S
H517 C511 0.929 1_655 S
C518 O509 1.250 . S
C518 O510 1.258 . S
O519 Mn504 2.162 . S
O519 C507 1.281 . S
O520 Mn504 2.297 . S
O520 C507 1.236 . S
N521 Mn505 2.282 . S
N521 C522 1.328 . S
N521 C526 1.318 . S
C522 N521 1.328 . S
C522 C523 1.457 . S
C522 H527 0.929 . S
C523 C522 1.457 . S
C523 C524 1.291 . S
C523 H536 0.931 . S
C524 C523 1.291 . S
C524 C525 1.373 . S
C524 H537 0.929 . S
C525 C524 1.373 . S
C525 C526 1.396 . S
C525 C532 1.403 . S
C526 C516 1.476 . S
C526 N521 1.318 . S
C526 C525 1.396 . S
H527 C522 0.929 . S
O528 Mn504 2.385 . S
O528 C506 1.234 . S
O529 Mn504 2.209 . S
O529 Mn505 2.215 . S
O529 C506 1.283 . S
O530 Mn504 2.094 . S
O530 C508 1.240 . S
O531 Mn505 2.117 . S
O531 C508 1.264 . S
C532 C525 1.403 . S
C532 C533 1.399 . S
C532 H538 0.929 . S
C533 C513 1.449 . S
C533 C532 1.399 . S
C533 H539 0.930 . S
H534 C514 0.931 . S
H535 C515 0.930 . S
H536 C523 0.931 . S
H537 C524 0.929 . S
H538 C532 0.929 . S
H539 C533 0.930 . S
Mn540 O545 2.095 1_455 S
Mn540 O555 2.162 . S
Mn540 O556 2.297 1_455 S
Mn540 O564 2.385 . S
Mn540 O565 2.209 1_455 S
Mn540 O566 2.094 . S
Mn541 O546 2.121 . S
Mn541 N548 2.257 . S
Mn541 N557 2.282 1_655 S
Mn541 O565 2.215 . S
Mn541 O567 2.117 1_655 S
C542 O564 1.234 . S
C542 O565 1.283 1_455 S
C543 O555 1.281 1_655 S
C543 O556 1.236 . S
C544 O566 1.240 . S
C544 O567 1.264 . S
O545 Mn540 2.095 1_655 S
O545 C554 1.250 . S
O546 Mn541 2.121 . S
O546 C554 1.258 . S
C547 N548 1.326 . S
C547 C551 1.460 . S
C547 H553 0.929 . S
N548 Mn541 2.257 . S
N548 C547 1.326 . S
N548 C552 1.362 . S
C549 C550 1.258 . S
C549 C552 1.431 . S
C549 C569 1.449 . S
C550 C549 1.258 . S
C550 C551 1.477 . S
C550 H570 0.931 . S
C551 C547 1.460 . S
C551 C550 1.477 . S
C551 H571 0.930 . S
C552 N548 1.362 . S
C552 C549 1.431 . S
C552 C562 1.476 1_655 S
H553 C547 0.929 . S
C554 O545 1.250 . S
C554 O546 1.258 . S
O555 Mn540 2.162 . S
O555 C543 1.281 1_455 S
O556 Mn540 2.297 1_655 S
O556 C543 1.236 . S
N557 Mn541 2.282 1_455 S
N557 C558 1.328 . S
N557 C562 1.318 . S
C558 N557 1.328 . S
C558 C559 1.457 . S
C558 H563 0.929 . S
C559 C558 1.457 . S
C559 C560 1.291 . S
C559 H572 0.931 . S
C560 C559 1.291 . S
C560 C561 1.373 . S
C560 H573 0.929 . S
C561 C560 1.373 . S
C561 C562 1.396 . S
C561 C568 1.403 . S
C562 C552 1.476 1_455 S
C562 N557 1.318 . S
C562 C561 1.396 . S
H563 C558 0.929 . S
O564 Mn540 2.385 . S
O564 C542 1.234 . S
O565 Mn540 2.209 1_655 S
O565 Mn541 2.215 . S
O565 C542 1.283 1_655 S
O566 Mn540 2.094 . S
O566 C544 1.240 . S
O567 Mn541 2.117 1_455 S
O567 C544 1.264 . S
C568 C561 1.403 . S
C568 C569 1.399 1_455 S
C568 H574 0.929 . S
C569 C549 1.449 . S
C569 C568 1.399 1_655 S
C569 H575 0.930 . S
H570 C550 0.931 . S
H571 C551 0.930 . S
H572 C559 0.931 . S
H573 C560 0.929 . S
H574 C568 0.929 . S
H575 C569 0.930 . S
Mn576 O581 2.095 . S
Mn576 O591 2.162 . S
Mn576 O592 2.297 . S
Mn576 O600 2.385 . S
Mn576 O601 2.209 . S
Mn576 O602 2.094 . S
Mn577 O582 2.121 . S
Mn577 N584 2.257 . S
Mn577 N593 2.282 . S
Mn577 O601 2.215 . S
Mn577 O603 2.117 . S
C578 O600 1.234 . S
C578 O601 1.283 . S
C579 O591 1.281 . S
C579 O592 1.236 . S
C580 O602 1.240 . S
C580 O603 1.264 . S
O581 Mn576 2.095 . S
O581 C590 1.250 . S
O582 Mn577 2.121 . S
O582 C590 1.258 . S
C583 N584 1.326 . S
C583 C587 1.460 . S
C583 H589 0.929 . S
N584 Mn577 2.257 . S
N584 C583 1.326 . S
N584 C588 1.362 . S
C585 C586 1.258 . S
C585 C588 1.431 . S
C585 C605 1.449 . S
C586 C585 1.258 . S
C586 C587 1.477 . S
C586 H606 0.931 . S
C587 C583 1.460 . S
C587 C586 1.477 . S
C587 H607 0.930 . S
C588 N584 1.362 . S
C588 C585 1.431 . S
C588 C598 1.476 . S
H589 C583 0.929 . S
C590 O581 1.250 . S
C590 O582 1.258 . S
O591 Mn576 2.162 . S
O591 C579 1.281 . S
O592 Mn576 2.297 . S
O592 C579 1.236 . S
N593 Mn577 2.282 . S
N593 C594 1.328 . S
N593 C598 1.318 . S
C594 N593 1.328 . S
C594 C595 1.457 . S
C594 H599 0.929 . S
C595 C594 1.457 . S
C595 C596 1.291 . S
C595 H608 0.931 . S
C596 C595 1.291 . S
C596 C597 1.373 . S
C596 H609 0.929 . S
C597 C596 1.373 . S
C597 C598 1.396 . S
C597 C604 1.403 . S
C598 C588 1.476 . S
C598 N593 1.318 . S
C598 C597 1.396 . S
H599 C594 0.929 . S
O600 Mn576 2.385 . S
O600 C578 1.234 . S
O601 Mn576 2.209 . S
O601 Mn577 2.215 . S
O601 C578 1.283 . S
O602 Mn576 2.094 . S
O602 C580 1.240 . S
O603 Mn577 2.117 . S
O603 C580 1.264 . S
C604 C597 1.403 . S
C604 C605 1.399 . S
C604 H610 0.929 . S
C605 C585 1.449 . S
C605 C604 1.399 . S
C605 H611 0.930 . S
H606 C586 0.931 . S
H607 C587 0.930 . S
H608 C595 0.931 . S
H609 C596 0.929 . S
H610 C604 0.929 . S
H611 C605 0.930 . S
Mn612 O617 2.095 1_565 S
Mn612 O627 2.162 . S
Mn612 O628 2.297 1_565 S
Mn612 O636 2.385 . S
Mn612 O637 2.209 1_565 S
Mn612 O638 2.094 . S
Mn613 O618 2.121 . S
Mn613 N620 2.257 . S
Mn613 N629 2.282 1_545 S
Mn613 O637 2.215 . S
Mn613 O639 2.117 1_545 S
C614 O636 1.234 . S
C614 O637 1.283 1_565 S
C615 O627 1.281 1_545 S
C615 O628 1.236 . S
C616 O638 1.240 . S
C616 O639 1.264 . S
O617 Mn612 2.095 1_545 S
O617 C626 1.250 . S
O618 Mn613 2.121 . S
O618 C626 1.258 . S
C619 N620 1.326 . S
C619 C623 1.460 . S
C619 H625 0.929 . S
N620 Mn613 2.257 . S
N620 C619 1.326 . S
N620 C624 1.362 . S
C621 C622 1.258 . S
C621 C624 1.431 . S
C621 C641 1.449 . S
C622 C621 1.258 . S
C622 C623 1.477 . S
C622 H642 0.931 . S
C623 C619 1.460 . S
C623 C622 1.477 . S
C623 H643 0.930 . S
C624 N620 1.362 . S
C624 C621 1.431 . S
C624 C634 1.476 1_545 S
H625 C619 0.929 . S
C626 O617 1.250 . S
C626 O618 1.258 . S
O627 Mn612 2.162 . S
O627 C615 1.281 1_565 S
O628 Mn612 2.297 1_545 S
O628 C615 1.236 . S
N629 Mn613 2.282 1_565 S
N629 C630 1.328 . S
N629 C634 1.318 . S
C630 N629 1.328 . S
C630 C631 1.457 . S
C630 H635 0.929 . S
C631 C630 1.457 . S
C631 C632 1.291 . S
C631 H644 0.931 . S
C632 C631 1.291 . S
C632 C633 1.373 . S
C632 H645 0.929 . S
C633 C632 1.373 . S
C633 C634 1.396 . S
C633 C640 1.403 . S
C634 C624 1.476 1_565 S
C634 N629 1.318 . S
C634 C633 1.396 . S
H635 C630 0.929 . S
O636 Mn612 2.385 . S
O636 C614 1.234 . S
O637 Mn612 2.209 1_545 S
O637 Mn613 2.215 . S
O637 C614 1.283 1_545 S
O638 Mn612 2.094 . S
O638 C616 1.240 . S
O639 Mn613 2.117 1_565 S
O639 C616 1.264 . S
C640 C633 1.403 . S
C640 C641 1.399 1_565 S
C640 H646 0.929 . S
C641 C621 1.449 . S
C641 C640 1.399 1_545 S
C641 H647 0.930 . S
H642 C622 0.931 . S
H643 C623 0.930 . S
H644 C631 0.931 . S
H645 C632 0.929 . S
H646 C640 0.929 . S
H647 C641 0.930 . S
H648 C660 0.930 . S
H649 C662 0.930 . S
H650 C663 0.930 . S
H651 C667 0.959 . S
H652 C667 0.959 . S
H653 C667 0.961 . S
H654 C668 0.960 . S
H655 C668 0.961 . S
H656 C668 0.959 . S
H657 C671 0.929 . S
H658 C672 0.931 . S
H659 C674 0.930 . S
C660 H648 0.930 . S
C660 C661 1.399 . S
C660 C665 1.399 . S
C661 C660 1.399 . S
C661 C662 1.376 1_545 S
C662 H649 0.930 . S
C662 C661 1.376 1_565 S
C662 C663 1.388 . S
C663 H650 0.930 . S
C663 C662 1.388 . S
C663 C664 1.390 . S
C664 C663 1.390 . S
C664 C665 1.394 1_565 S
C664 C670 1.465 1_554 S
C665 C660 1.399 . S
C665 C664 1.394 1_545 S
C665 C666 1.503 1_554 S
C666 C665 1.503 1_556 S
C666 C667 1.525 . S
C666 C668 1.538 1_556 S
C666 C669 1.537 . S
C667 H651 0.959 . S
C667 H652 0.959 . S
C667 H653 0.961 . S
C667 C666 1.525 . S
C668 H654 0.960 . S
C668 H655 0.961 . S
C668 H656 0.959 . S
C668 C666 1.538 1_554 S
C669 C666 1.537 . S
C669 C670 1.396 1_545 S
C669 C674 1.390 . S
C670 C664 1.465 1_556 S
C670 C669 1.396 1_565 S
C670 C671 1.399 . S
C671 H657 0.929 . S
C671 C670 1.399 . S
C671 C672 1.385 . S
C672 H658 0.931 . S
C672 C671 1.385 . S
C672 C673 1.389 . S
C673 C672 1.389 . S
C673 C674 1.387 1_565 S
C674 H659 0.930 . S
C674 C669 1.390 . S
C674 C673 1.387 1_545 S
H675 C687 0.930 . S
H676 C689 0.938 . S
H677 C690 0.930 . S
H678 C694 0.959 . S
H679 C694 0.959 . S
H680 C694 0.961 . S
H681 C695 0.960 . S
H682 C695 0.961 . S
H683 C695 0.959 . S
H684 C698 0.929 . S
H685 C699 0.931 . S
H686 C701 0.930 1_554 S
C687 H675 0.930 . S
C687 C688 1.399 . S
C687 C692 1.399 . S
C688 C687 1.399 . S
C688 C689 1.376 . S
C689 H676 0.938 . S
C689 C688 1.376 . S
C689 C690 1.388 1_554 S
C690 H677 0.930 . S
C690 C689 1.388 1_556 S
C690 C691 1.390 . S
C691 C690 1.390 . S
C691 C692 1.394 1_556 S
C691 C697 1.465 . S
C692 C687 1.399 . S
C692 C691 1.394 1_554 S
C692 C693 1.516 . S
C693 C692 1.516 . S
C693 C694 1.502 . S
C693 C695 1.561 1_655 S
C693 C696 1.526 . S
C694 H678 0.959 . S
C694 H679 0.959 . S
C694 H680 0.961 . S
C694 C693 1.502 . S
C695 H681 0.960 . S
C695 H682 0.961 . S
C695 H683 0.959 . S
C695 C693 1.561 1_455 S
C696 C693 1.526 . S
C696 C697 1.396 1_554 S
C696 C701 1.390 1_654 S
C697 C691 1.465 . S
C697 C696 1.396 1_556 S
C697 C698 1.399 . S
C698 H684 0.929 . S
C698 C697 1.399 . S
C698 C699 1.385 1_655 S
C699 H685 0.931 . S
C699 C698 1.385 1_455 S
C699 C700 1.389 . S
C700 C699 1.389 . S
C700 C701 1.387 . S
C701 H686 0.930 1_556 S
C701 C696 1.390 1_456 S
C701 C700 1.387 . S
H702 C714 0.930 . S
H703 C716 0.930 . S
H704 C717 0.930 1_554 S
H705 C721 0.959 1_554 S
H706 C721 0.959 . S
H707 C721 0.961 . S
H708 C722 0.960 . S
H709 C722 0.961 . S
H710 C722 0.959 . S
H711 C725 0.929 . S
H712 C726 0.931 . S
H713 C728 0.930 . S
C714 H702 0.930 . S
C714 C715 1.399 . S
C714 C719 1.399 . S
C715 C714 1.399 . S
C715 C716 1.376 . S
C716 H703 0.930 . S
C716 C715 1.376 . S
C716 C717 1.388 . S
C717 H704 0.930 1_556 S
C717 C716 1.388 . S
C717 C718 1.390 . S
C718 C717 1.390 . S
C718 C719 1.394 . S
C718 C724 1.465 1_556 S
C719 C714 1.399 . S
C719 C718 1.394 . S
C719 C720 1.516 . S
C720 C719 1.516 . S
C720 C721 1.502 . S
C720 C722 1.561 . S
C720 C723 1.526 1_556 S
C721 H705 0.959 1_556 S
C721 H706 0.959 . S
C721 H707 0.961 . S
C721 C720 1.502 . S
C722 H708 0.960 . S
C722 H709 0.961 . S
C722 H710 0.959 . S
C722 C720 1.561 . S
C723 C720 1.526 1_554 S
C723 C724 1.396 . S
C723 C728 1.390 . S
C724 C718 1.465 1_554 S
C724 C723 1.396 . S
C724 C725 1.399 . S
C725 H711 0.929 . S
C725 C724 1.399 . S
C725 C726 1.385 . S
C726 H712 0.931 . S
C726 C725 1.385 . S
C726 C727 1.389 . S
C727 C726 1.389 . S
C727 C728 1.387 . S
C728 H713 0.930 . S
C728 C723 1.390 . S
C728 C727 1.387 . S
H729 C741 0.930 . S
H730 C743 0.930 . S
H731 C744 0.930 . S
H732 C748 0.959 . S
H733 C748 0.959 . S
H734 C748 0.961 . S
H735 C749 0.960 . S
H736 C749 0.961 . S
H737 C749 0.959 . S
H738 C752 0.929 . S
H739 C753 0.931 . S
H740 C755 0.930 . S
C741 H729 0.930 . S
C741 C742 1.399 . S
C741 C746 1.399 . S
C742 C741 1.399 . S
C742 C743 1.376 . S
C743 H730 0.930 . S
C743 C742 1.376 . S
C743 C744 1.388 . S
C744 H731 0.930 . S
C744 C743 1.388 . S
C744 C745 1.390 . S
C745 C744 1.390 . S
C745 C746 1.394 . S
C745 C751 1.465 . S
C746 C741 1.399 . S
C746 C745 1.394 . S
C746 C747 1.516 . S
C747 C746 1.516 . S
C747 C748 1.502 . S
C747 C749 1.561 . S
C747 C750 1.526 . S
C748 H732 0.959 . S
C748 H733 0.959 . S
C748 H734 0.961 . S
C748 C747 1.502 . S
C749 H735 0.960 . S
C749 H736 0.961 . S
C749 H737 0.959 . S
C749 C747 1.561 . S
C750 C747 1.526 . S
C750 C751 1.396 . S
C750 C755 1.390 . S
C751 C745 1.465 . S
C751 C750 1.396 . S
C751 C752 1.399 . S
C752 H738 0.929 . S
C752 C751 1.399 . S
C752 C753 1.385 . S
C753 H739 0.931 . S
C753 C752 1.385 . S
C753 C754 1.389 . S
C754 C753 1.389 . S
C754 C755 1.387 . S
C755 H740 0.930 . S
C755 C750 1.390 . S
C755 C754 1.387 . S
H756 C768 0.930 . S
H757 C770 0.930 . S
H758 C771 0.930 . S
H759 C775 0.959 . S
H760 C775 0.959 . S
H761 C775 0.961 . S
H762 C776 0.960 . S
H763 C776 0.961 . S
H764 C776 0.959 . S
H765 C779 0.929 . S
H766 C780 0.931 . S
H767 C782 0.930 . S
C768 H756 0.930 . S
C768 C769 1.399 . S
C768 C773 1.399 . S
C769 C768 1.399 . S
C769 C770 1.376 . S
C770 H757 0.930 . S
C770 C769 1.376 . S
C770 C771 1.388 . S
C771 H758 0.930 . S
C771 C770 1.388 . S
C771 C772 1.390 . S
C772 C771 1.390 . S
C772 C773 1.394 . S
C772 C778 1.465 . S
C773 C768 1.399 . S
C773 C772 1.394 . S
C773 C774 1.516 . S
C774 C773 1.516 . S
C774 C775 1.502 . S
C774 C776 1.561 . S
C774 C777 1.526 . S
C775 H759 0.959 . S
C775 H760 0.959 . S
C775 H761 0.961 . S
C775 C774 1.502 . S
C776 H762 0.960 . S
C776 H763 0.961 . S
C776 H764 0.959 . S
C776 C774 1.561 . S
C777 C774 1.526 . S
C777 C778 1.396 . S
C777 C782 1.390 . S
C778 C772 1.465 . S
C778 C777 1.396 . S
C778 C779 1.399 . S
C779 H765 0.929 . S
C779 C778 1.399 . S
C779 C780 1.385 . S
C780 H766 0.931 . S
C780 C779 1.385 . S
C780 C781 1.389 . S
C781 C780 1.389 . S
C781 C782 1.387 . S
C782 H767 0.930 . S
C782 C777 1.390 . S
C782 C781 1.387 . S
H783 C795 0.930 . S
H784 C797 0.930 . S
H785 C798 0.930 . S
H786 C802 0.959 . S
H787 C802 0.959 . S
H788 C802 0.961 . S
H789 C803 0.960 . S
H790 C803 0.961 . S
H791 C803 0.959 . S
H792 C806 0.929 . S
H793 C807 0.931 . S
H794 C809 0.930 . S
C795 H783 0.930 . S
C795 C796 1.399 . S
C795 C800 1.399 . S
C796 C795 1.399 . S
C796 C797 1.376 . S
C797 H784 0.930 . S
C797 C796 1.376 . S
C797 C798 1.388 . S
C798 H785 0.930 . S
C798 C797 1.388 . S
C798 C799 1.390 . S
C799 C798 1.390 . S
C799 C800 1.394 . S
C799 C805 1.465 . S
C800 C795 1.399 . S
C800 C799 1.394 . S
C800 C801 1.516 . S
C801 C800 1.516 . S
C801 C802 1.502 . S
C801 C803 1.561 . S
C801 C804 1.526 . S
C802 H786 0.959 . S
C802 H787 0.959 . S
C802 H788 0.961 . S
C802 C801 1.502 . S
C803 H789 0.960 . S
C803 H790 0.961 . S
C803 H791 0.959 . S
C803 C801 1.561 . S
C804 C801 1.526 . S
C804 C805 1.396 . S
C804 C809 1.390 . S
C805 C799 1.465 . S
C805 C804 1.396 . S
C805 C806 1.399 . S
C806 H792 0.929 . S
C806 C805 1.399 . S
C806 C807 1.385 . S
C807 H793 0.931 . S
C807 C806 1.385 . S
C807 C808 1.389 . S
C808 C807 1.389 . S
C808 C809 1.387 . S
C809 H794 0.930 . S
C809 C804 1.390 . S
C809 C808 1.387 . S
H810 C822 0.930 . S
H811 C824 0.930 . S
H812 C825 0.930 . S
H813 C829 0.959 . S
H814 C829 0.959 . S
H815 C829 0.961 . S
H816 C830 0.960 . S
H817 C830 0.961 . S
H818 C830 0.959 . S
H819 C833 0.929 . S
H820 C834 0.931 . S
H821 C836 0.930 . S
C822 H810 0.930 . S
C822 C823 1.399 . S
C822 C827 1.399 . S
C823 C822 1.399 . S
C823 C824 1.376 . S
C824 H811 0.930 . S
C824 C823 1.376 . S
C824 C825 1.388 . S
C825 H812 0.930 . S
C825 C824 1.388 . S
C825 C826 1.390 . S
C826 C825 1.390 . S
C826 C827 1.394 . S
C826 C832 1.465 . S
C827 C822 1.399 . S
C827 C826 1.394 . S
C827 C828 1.516 . S
C828 C827 1.516 . S
C828 C829 1.502 . S
C828 C830 1.561 . S
C828 C831 1.526 . S
C829 H813 0.959 . S
C829 H814 0.959 . S
C829 H815 0.961 . S
C829 C828 1.502 . S
C830 H816 0.960 . S
C830 H817 0.961 . S
C830 H818 0.959 . S
C830 C828 1.561 . S
C831 C828 1.526 . S
C831 C832 1.396 . S
C831 C836 1.390 . S
C832 C826 1.465 . S
C832 C831 1.396 . S
C832 C833 1.399 . S
C833 H819 0.929 . S
C833 C832 1.399 . S
C833 C834 1.385 . S
C834 H820 0.931 . S
C834 C833 1.385 . S
C834 C835 1.389 . S
C835 C834 1.389 . S
C835 C836 1.387 . S
C836 H821 0.930 . S
C836 C831 1.390 . S
C836 C835 1.387 . S
H837 C849 0.930 . S
H838 C851 0.930 . S
H839 C852 0.930 . S
H840 C856 0.959 . S
H841 C856 0.959 . S
H842 C856 0.961 . S
H843 C857 0.960 . S
H844 C857 0.961 . S
H845 C857 0.959 . S
H846 C860 0.929 . S
H847 C861 0.931 . S
H848 C863 0.930 . S
C849 H837 0.930 . S
C849 C850 1.399 . S
C849 C854 1.399 . S
C850 C849 1.399 . S
C850 C851 1.376 . S
C851 H838 0.930 . S
C851 C850 1.376 . S
C851 C852 1.388 . S
C852 H839 0.930 . S
C852 C851 1.388 . S
C852 C853 1.390 . S
C853 C852 1.390 . S
C853 C854 1.394 . S
C853 C859 1.465 . S
C854 C849 1.399 . S
C854 C853 1.394 . S
C854 C855 1.516 . S
C855 C854 1.516 . S
C855 C856 1.502 . S
C855 C857 1.561 . S
C855 C858 1.526 . S
C856 H840 0.959 . S
C856 H841 0.959 . S
C856 H842 0.961 . S
C856 C855 1.502 . S
C857 H843 0.960 . S
C857 H844 0.961 . S
C857 H845 0.959 . S
C857 C855 1.561 . S
C858 C855 1.526 . S
C858 C859 1.396 . S
C858 C863 1.390 . S
C859 C853 1.465 . S
C859 C858 1.396 . S
C859 C860 1.399 . S
C860 H846 0.929 . S
C860 C859 1.399 . S
C860 C861 1.385 . S
C861 H847 0.931 . S
C861 C860 1.385 . S
C861 C862 1.389 . S
C862 C861 1.389 . S
C862 C863 1.387 . S
C863 H848 0.930 . S
C863 C858 1.390 . S
C863 C862 1.387 . S
H864 C876 0.930 . S
H865 C878 0.930 . S
H866 C879 0.930 . S
H867 C883 0.959 . S
H868 C883 0.959 . S
H869 C883 0.961 . S
H870 C884 0.960 . S
H871 C884 0.961 . S
H872 C884 0.959 . S
H873 C887 0.929 . S
H874 C888 0.931 . S
H875 C890 0.930 . S
C876 H864 0.930 . S
C876 C877 1.399 . S
C876 C881 1.399 . S
C877 C876 1.399 . S
C877 C878 1.376 . S
C878 H865 0.930 . S
C878 C877 1.376 . S
C878 C879 1.388 . S
C879 H866 0.930 . S
C879 C878 1.388 . S
C879 C880 1.390 . S
C880 C879 1.390 . S
C880 C881 1.394 . S
C880 C886 1.465 . S
C881 C876 1.399 . S
C881 C880 1.394 . S
C881 C882 1.516 . S
C882 C881 1.516 . S
C882 C883 1.502 . S
C882 C884 1.561 . S
C882 C885 1.526 . S
C883 H867 0.959 . S
C883 H868 0.959 . S
C883 H869 0.961 . S
C883 C882 1.502 . S
C884 H870 0.960 . S
C884 H871 0.961 . S
C884 H872 0.959 . S
C884 C882 1.561 . S
C885 C882 1.526 . S
C885 C886 1.396 . S
C885 C890 1.390 . S
C886 C880 1.465 . S
C886 C885 1.396 . S
C886 C887 1.399 . S
C887 H873 0.929 . S
C887 C886 1.399 . S
C887 C888 1.385 . S
C888 H874 0.931 . S
C888 C887 1.385 . S
C888 C889 1.389 . S
C889 C888 1.389 . S
C889 C890 1.387 . S
C890 H875 0.930 . S
C890 C885 1.390 . S
C890 C889 1.387 . S
H891 C903 0.930 . S
H892 C905 0.930 . S
H893 C906 0.930 . S
H894 C910 0.959 . S
H895 C910 0.959 . S
H896 C910 0.961 . S
H897 C911 0.960 . S
H898 C911 0.961 . S
H899 C911 0.959 . S
H900 C914 0.929 . S
H901 C915 0.931 . S
H902 C917 0.930 . S
C903 H891 0.930 . S
C903 C904 1.399 . S
C903 C908 1.399 . S
C904 C903 1.399 . S
C904 C905 1.376 . S
C905 H892 0.930 . S
C905 C904 1.376 . S
C905 C906 1.388 . S
C906 H893 0.930 . S
C906 C905 1.388 . S
C906 C907 1.390 . S
C907 C906 1.390 . S
C907 C908 1.394 . S
C907 C913 1.465 . S
C908 C903 1.399 . S
C908 C907 1.394 . S
C908 C909 1.516 . S
C909 C908 1.516 . S
C909 C910 1.502 . S
C909 C911 1.561 . S
C909 C912 1.526 . S
C910 H894 0.959 . S
C910 H895 0.959 . S
C910 H896 0.961 . S
C910 C909 1.502 . S
C911 H897 0.960 . S
C911 H898 0.961 . S
C911 H899 0.959 . S
C911 C909 1.561 . S
C912 C909 1.526 . S
C912 C913 1.396 . S
C912 C917 1.390 . S
C913 C907 1.465 . S
C913 C912 1.396 . S
C913 C914 1.399 . S
C914 H900 0.929 . S
C914 C913 1.399 . S
C914 C915 1.385 . S
C915 H901 0.931 . S
C915 C914 1.385 . S
C915 C916 1.389 . S
C916 C915 1.389 . S
C916 C917 1.387 . S
C917 H902 0.930 . S
C917 C912 1.390 . S
C917 C916 1.387 . S
H918 C930 0.930 . S
H919 C932 0.930 . S
H920 C933 0.930 . S
H921 C937 0.959 . S
H922 C937 0.959 . S
H923 C937 0.961 . S
H924 C938 0.960 . S
H925 C938 0.961 . S
H926 C938 0.959 . S
H927 C941 0.929 . S
H928 C942 0.931 . S
H929 C944 0.930 . S
C930 H918 0.930 . S
C930 C931 1.399 . S
C930 C935 1.399 . S
C931 C930 1.399 . S
C931 C932 1.376 . S
C932 H919 0.930 . S
C932 C931 1.376 . S
C932 C933 1.388 . S
C933 H920 0.930 . S
C933 C932 1.388 . S
C933 C934 1.390 . S
C934 C933 1.390 . S
C934 C935 1.394 . S
C934 C940 1.465 . S
C935 C930 1.399 . S
C935 C934 1.394 . S
C935 C936 1.516 . S
C936 C935 1.516 . S
C936 C937 1.502 . S
C936 C938 1.561 . S
C936 C939 1.526 . S
C937 H921 0.959 . S
C937 H922 0.959 . S
C937 H923 0.961 . S
C937 C936 1.502 . S
C938 H924 0.960 . S
C938 H925 0.961 . S
C938 H926 0.959 . S
C938 C936 1.561 . S
C939 C936 1.526 . S
C939 C940 1.396 . S
C939 C944 1.390 . S
C940 C934 1.465 . S
C940 C939 1.396 . S
C940 C941 1.399 . S
C941 H927 0.929 . S
C941 C940 1.399 . S
C941 C942 1.385 . S
C942 H928 0.931 . S
C942 C941 1.385 . S
C942 C943 1.389 . S
C943 C942 1.389 . S
C943 C944 1.387 . S
C944 H929 0.930 . S
C944 C939 1.390 . S
C944 C943 1.387 . S
H945 C957 0.930 . S
H946 C959 0.930 . S
H947 C960 0.930 . S
H948 C964 0.959 . S
H949 C964 0.959 . S
H950 C964 0.961 . S
H951 C965 0.960 . S
H952 C965 0.961 . S
H953 C965 0.959 . S
H954 C968 0.929 . S
H955 C969 0.931 . S
H956 C971 0.930 . S
C957 H945 0.930 . S
C957 C958 1.399 . S
C957 C962 1.399 . S
C958 C957 1.399 . S
C958 C959 1.376 . S
C959 H946 0.930 . S
C959 C958 1.376 . S
C959 C960 1.388 . S
C960 H947 0.930 . S
C960 C959 1.388 . S
C960 C961 1.390 . S
C961 C960 1.390 . S
C961 C962 1.394 . S
C961 C967 1.465 . S
C962 C957 1.399 . S
C962 C961 1.394 . S
C962 C963 1.516 . S
C963 C962 1.516 . S
C963 C964 1.502 . S
C963 C965 1.561 . S
C963 C966 1.526 . S
C964 H948 0.959 . S
C964 H949 0.959 . S
C964 H950 0.961 . S
C964 C963 1.502 . S
C965 H951 0.960 . S
C965 H952 0.961 . S
C965 H953 0.959 . S
C965 C963 1.561 . S
C966 C963 1.526 . S
C966 C967 1.396 . S
C966 C971 1.390 . S
C967 C961 1.465 . S
C967 C966 1.396 . S
C967 C968 1.399 . S
C968 H954 0.929 . S
C968 C967 1.399 . S
C968 C969 1.385 . S
C969 H955 0.931 . S
C969 C968 1.385 . S
C969 C970 1.389 . S
C970 C969 1.389 . S
C970 C971 1.387 . S
C971 H956 0.930 . S
C971 C966 1.390 . S
C971 C970 1.387 . S
H972 C984 0.930 . S
H973 C986 0.930 . S
H974 C987 0.930 . S
H975 C991 0.959 . S
H976 C991 0.959 . S
H977 C991 0.961 . S
H978 C992 0.960 . S
H979 C992 0.961 . S
H980 C992 0.959 . S
H981 C995 0.929 . S
H982 C996 0.931 . S
H983 C998 0.930 . S
C984 H972 0.930 . S
C984 C985 1.399 . S
C984 C989 1.399 . S
C985 C984 1.399 . S
C985 C986 1.376 . S
C986 H973 0.930 . S
C986 C985 1.376 . S
C986 C987 1.388 . S
C987 H974 0.930 . S
C987 C986 1.388 . S
C987 C988 1.390 . S
C988 C987 1.390 . S
C988 C989 1.394 . S
C988 C994 1.465 . S
C989 C984 1.399 . S
C989 C988 1.394 . S
C989 C990 1.516 . S
C990 C989 1.516 . S
C990 C991 1.502 . S
C990 C992 1.561 . S
C990 C993 1.526 . S
C991 H975 0.959 . S
C991 H976 0.959 . S
C991 H977 0.961 . S
C991 C990 1.502 . S
C992 H978 0.960 . S
C992 H979 0.961 . S
C992 H980 0.959 . S
C992 C990 1.561 . S
C993 C990 1.526 . S
C993 C994 1.396 . S
C993 C998 1.390 . S
C994 C988 1.465 . S
C994 C993 1.396 . S
C994 C995 1.399 . S
C995 H981 0.929 . S
C995 C994 1.399 . S
C995 C996 1.385 . S
C996 H982 0.931 . S
C996 C995 1.385 . S
C996 C997 1.389 . S
C997 C996 1.389 . S
C997 C998 1.387 . S
C998 H983 0.930 . S
C998 C993 1.390 . S
C998 C997 1.387 . S
H999 C1011 0.930 . S
H1000 C1013 0.930 . S
H1001 C1014 0.930 . S
H1002 C1018 0.959 . S
H1003 C1018 0.959 . S
H1004 C1018 0.961 . S
H1005 C1019 0.960 . S
H1006 C1019 0.961 . S
H1007 C1019 0.959 . S
H1008 C1022 0.929 . S
H1009 C1023 0.931 . S
H1010 C1025 0.930 . S
C1011 H999 0.930 . S
C1011 C1012 1.399 . S
C1011 C1016 1.399 . S
C1012 C1011 1.399 . S
C1012 C1013 1.376 . S
C1013 H1000 0.930 . S
C1013 C1012 1.376 . S
C1013 C1014 1.388 . S
C1014 H1001 0.930 . S
C1014 C1013 1.388 . S
C1014 C1015 1.390 . S
C1015 C1014 1.390 . S
C1015 C1016 1.394 . S
C1015 C1021 1.465 . S
C1016 C1011 1.399 . S
C1016 C1015 1.394 . S
C1016 C1017 1.516 . S
C1017 C1016 1.516 . S
C1017 C1018 1.502 . S
C1017 C1019 1.561 . S
C1017 C1020 1.526 . S
C1018 H1002 0.959 . S
C1018 H1003 0.959 . S
C1018 H1004 0.961 . S
C1018 C1017 1.502 . S
C1019 H1005 0.960 . S
C1019 H1006 0.961 . S
C1019 H1007 0.959 . S
C1019 C1017 1.561 . S
C1020 C1017 1.526 . S
C1020 C1021 1.396 . S
C1020 C1025 1.390 . S
C1021 C1015 1.465 . S
C1021 C1020 1.396 . S
C1021 C1022 1.399 . S
C1022 H1008 0.929 . S
C1022 C1021 1.399 . S
C1022 C1023 1.385 . S
C1023 H1009 0.931 . S
C1023 C1022 1.385 . S
C1023 C1024 1.389 . S
C1024 C1023 1.389 . S
C1024 C1025 1.387 . S
C1025 H1010 0.930 . S
C1025 C1020 1.390 . S
C1025 C1024 1.387 . S
H1026 C1038 0.930 . S
H1027 C1040 0.930 . S
H1028 C1041 0.930 . S
H1029 C1045 0.959 . S
H1030 C1045 0.959 . S
H1031 C1045 0.961 . S
H1032 C1046 0.960 . S
H1033 C1046 0.961 . S
H1034 C1046 0.959 . S
H1035 C1049 0.929 . S
H1036 C1050 0.931 . S
H1037 C1052 0.930 . S
C1038 H1026 0.930 . S
C1038 C1039 1.399 . S
C1038 C1043 1.399 . S
C1039 C1038 1.399 . S
C1039 C1040 1.376 . S
C1040 H1027 0.930 . S
C1040 C1039 1.376 . S
C1040 C1041 1.388 . S
C1041 H1028 0.930 . S
C1041 C1040 1.388 . S
C1041 C1042 1.390 . S
C1042 C1041 1.390 . S
C1042 C1043 1.394 . S
C1042 C1048 1.465 . S
C1043 C1038 1.399 . S
C1043 C1042 1.394 . S
C1043 C1044 1.516 . S
C1044 C1043 1.516 . S
C1044 C1045 1.502 . S
C1044 C1046 1.561 . S
C1044 C1047 1.526 . S
C1045 H1029 0.959 . S
C1045 H1030 0.959 . S
C1045 H1031 0.961 . S
C1045 C1044 1.502 . S
C1046 H1032 0.960 . S
C1046 H1033 0.961 . S
C1046 H1034 0.959 . S
C1046 C1044 1.561 . S
C1047 C1044 1.526 . S
C1047 C1048 1.396 . S
C1047 C1052 1.390 . S
C1048 C1042 1.465 . S
C1048 C1047 1.396 . S
C1048 C1049 1.399 . S
C1049 H1035 0.929 . S
C1049 C1048 1.399 . S
C1049 C1050 1.385 . S
C1050 H1036 0.931 . S
C1050 C1049 1.385 . S
C1050 C1051 1.389 . S
C1051 C1050 1.389 . S
C1051 C1052 1.387 . S
C1052 H1037 0.930 . S
C1052 C1047 1.390 . S
C1052 C1051 1.387 . S
H1053 C1065 0.930 . S
H1054 C1067 0.930 . S
H1055 C1068 0.930 . S
H1056 C1072 0.959 . S
H1057 C1072 0.959 . S
H1058 C1072 0.961 . S
H1059 C1073 0.960 . S
H1060 C1073 0.961 . S
H1061 C1073 0.959 . S
H1062 C1076 0.929 . S
H1063 C1077 0.931 . S
H1064 C1079 0.930 . S
C1065 H1053 0.930 . S
C1065 C1066 1.399 . S
C1065 C1070 1.399 . S
C1066 C1065 1.399 . S
C1066 C1067 1.376 . S
C1067 H1054 0.930 . S
C1067 C1066 1.376 . S
C1067 C1068 1.388 1_455 S
C1068 H1055 0.930 . S
C1068 C1067 1.388 1_655 S
C1068 C1069 1.390 . S
C1069 C1068 1.390 . S
C1069 C1070 1.394 1_655 S
C1069 C1075 1.465 . S
C1070 C1065 1.399 . S
C1070 C1069 1.394 1_455 S
C1070 C1071 1.516 1_455 S
C1071 C1070 1.516 1_655 S
C1071 C1072 1.502 1_655 S
C1071 C1073 1.561 . S
C1071 C1074 1.526 . S
C1072 H1056 0.959 . S
C1072 H1057 0.959 . S
C1072 H1058 0.961 . S
C1072 C1071 1.502 1_455 S
C1073 H1059 0.960 . S
C1073 H1060 0.961 . S
C1073 H1061 0.959 . S
C1073 C1071 1.561 . S
C1074 C1071 1.526 . S
C1074 C1075 1.396 . S
C1074 C1079 1.390 . S
C1075 C1069 1.465 . S
C1075 C1074 1.396 . S
C1075 C1076 1.399 . S
C1076 H1062 0.929 . S
C1076 C1075 1.399 . S
C1076 C1077 1.385 . S
C1077 H1063 0.931 . S
C1077 C1076 1.385 . S
C1077 C1078 1.389 . S
C1078 C1077 1.389 . S
C1078 C1079 1.387 . S
C1079 H1064 0.930 . S
C1079 C1074 1.390 . S
C1079 C1078 1.387 . S
H1080 C1092 0.930 . S
H1081 C1094 0.930 . S
H1082 C1095 0.930 . S
H1083 C1099 0.959 . S
H1084 C1099 0.959 . S
H1085 C1099 0.961 . S
H1086 C1100 0.960 . S
H1087 C1100 0.961 . S
H1088 C1100 0.959 . S
H1089 C1103 0.929 . S
H1090 C1104 0.931 . S
H1091 C1106 0.930 . S
C1092 H1080 0.930 . S
C1092 C1093 1.399 . S
C1092 C1097 1.399 . S
C1093 C1092 1.399 . S
C1093 C1094 1.376 . S
C1094 H1081 0.930 . S
C1094 C1093 1.376 . S
C1094 C1095 1.388 . S
C1095 H1082 0.930 . S
C1095 C1094 1.388 . S
C1095 C1096 1.390 . S
C1096 C1095 1.390 . S
C1096 C1097 1.394 . S
C1096 C1102 1.465 . S
C1097 C1092 1.399 . S
C1097 C1096 1.394 . S
C1097 C1098 1.516 . S
C1098 C1097 1.516 . S
C1098 C1099 1.502 . S
C1098 C1100 1.561 . S
C1098 C1101 1.526 . S
C1099 H1083 0.959 . S
C1099 H1084 0.959 . S
C1099 H1085 0.961 . S
C1099 C1098 1.502 . S
C1100 H1086 0.960 . S
C1100 H1087 0.961 . S
C1100 H1088 0.959 . S
C1100 C1098 1.561 . S
C1101 C1098 1.526 . S
C1101 C1102 1.396 . S
C1101 C1106 1.390 . S
C1102 C1096 1.465 . S
C1102 C1101 1.396 . S
C1102 C1103 1.399 . S
C1103 H1089 0.929 . S
C1103 C1102 1.399 . S
C1103 C1104 1.385 . S
C1104 H1090 0.931 . S
C1104 C1103 1.385 . S
C1104 C1105 1.389 . S
C1105 C1104 1.389 . S
C1105 C1106 1.387 . S
C1106 H1091 0.930 . S
C1106 C1101 1.390 . S
C1106 C1105 1.387 . S
H1107 C1119 0.930 . S
H1108 C1121 0.930 . S
H1109 C1122 0.930 . S
H1110 C1126 0.959 . S
H1111 C1126 0.959 . S
H1112 C1126 0.961 . S
H1113 C1127 0.960 . S
H1114 C1127 0.961 . S
H1115 C1127 0.959 . S
H1116 C1130 0.929 . S
H1117 C1131 0.931 . S
H1118 C1133 0.930 . S
C1119 H1107 0.930 . S
C1119 C1120 1.399 . S
C1119 C1124 1.399 . S
C1120 C1119 1.399 . S
C1120 C1121 1.376 1_545 S
C1121 H1108 0.930 . S
C1121 C1120 1.376 1_565 S
C1121 C1122 1.388 . S
C1122 H1109 0.930 . S
C1122 C1121 1.388 . S
C1122 C1123 1.390 . S
C1123 C1122 1.390 . S
C1123 C1124 1.394 1_565 S
C1123 C1129 1.465 . S
C1124 C1119 1.399 . S
C1124 C1123 1.394 1_545 S
C1124 C1125 1.516 . S
C1125 C1124 1.516 . S
C1125 C1126 1.502 . S
C1125 C1127 1.561 . S
C1125 C1128 1.526 . S
C1126 H1110 0.959 . S
C1126 H1111 0.959 . S
C1126 H1112 0.961 . S
C1126 C1125 1.502 . S
C1127 H1113 0.960 . S
C1127 H1114 0.961 . S
C1127 H1115 0.959 . S
C1127 C1125 1.561 . S
C1128 C1125 1.526 . S
C1128 C1129 1.396 1_545 S
C1128 C1133 1.390 . S
C1129 C1123 1.465 . S
C1129 C1128 1.396 1_565 S
C1129 C1130 1.399 . S
C1130 H1116 0.929 . S
C1130 C1129 1.399 . S
C1130 C1131 1.385 . S
C1131 H1117 0.931 . S
C1131 C1130 1.385 . S
C1131 C1132 1.389 . S
C1132 C1131 1.389 . S
C1132 C1133 1.387 1_565 S
C1133 H1118 0.930 . S
C1133 C1128 1.390 . S
C1133 C1132 1.387 1_545 S
H1134 C1146 0.930 . S
H1135 C1148 0.930 . S
H1136 C1149 0.930 . S
H1137 C1153 0.959 . S
H1138 C1153 0.959 . S
H1139 C1153 0.961 . S
H1140 C1154 0.960 . S
H1141 C1154 0.961 . S
H1142 C1154 0.959 . S
H1143 C1157 0.929 . S
H1144 C1158 0.931 . S
H1145 C1160 0.930 . S
C1146 H1134 0.930 . S
C1146 C1147 1.399 . S
C1146 C1151 1.399 . S
C1147 C1146 1.399 . S
C1147 C1148 1.376 . S
C1148 H1135 0.930 . S
C1148 C1147 1.376 . S
C1148 C1149 1.388 1_554 S
C1149 H1136 0.930 . S
C1149 C1148 1.388 1_556 S
C1149 C1150 1.390 1_556 S
C1150 C1149 1.390 1_554 S
C1150 C1151 1.394 . S
C1150 C1156 1.465 1_554 S
C1151 C1146 1.399 . S
C1151 C1150 1.394 . S
C1151 C1152 1.516 . S
C1152 C1151 1.516 . S
C1152 C1153 1.502 . S
C1152 C1154 1.561 . S
C1152 C1155 1.526 . S
C1153 H1137 0.959 . S
C1153 H1138 0.959 . S
C1153 H1139 0.961 . S
C1153 C1152 1.502 . S
C1154 H1140 0.960 . S
C1154 H1141 0.961 . S
C1154 H1142 0.959 . S
C1154 C1152 1.561 . S
C1155 C1152 1.526 . S
C1155 C1156 1.396 1_554 S
C1155 C1160 1.390 . S
C1156 C1150 1.465 1_556 S
C1156 C1155 1.396 1_556 S
C1156 C1157 1.399 . S
C1157 H1143 0.929 . S
C1157 C1156 1.399 . S
C1157 C1158 1.385 . S
C1158 H1144 0.931 . S
C1158 C1157 1.385 . S
C1158 C1159 1.389 . S
C1159 C1158 1.389 . S
C1159 C1160 1.387 1_556 S
C1160 H1145 0.930 . S
C1160 C1155 1.390 . S
C1160 C1159 1.387 1_554 S
H1161 C1173 0.930 . S
H1162 C1175 0.930 . S
H1163 C1176 0.930 . S
H1164 C1180 0.959 . S
H1165 C1180 0.959 . S
H1166 C1180 0.961 . S
H1167 C1181 0.960 . S
H1168 C1181 0.961 . S
H1169 C1181 0.959 . S
H1170 C1184 0.917 1_554 S
H1171 C1185 0.931 . S
H1172 C1187 0.930 . S
C1173 H1161 0.930 . S
C1173 C1174 1.399 . S
C1173 C1178 1.399 . S
C1174 C1173 1.399 . S
C1174 C1175 1.376 . S
C1175 H1162 0.930 . S
C1175 C1174 1.376 . S
C1175 C1176 1.388 . S
C1176 H1163 0.930 . S
C1176 C1175 1.388 . S
C1176 C1177 1.390 . S
C1177 C1176 1.390 . S
C1177 C1178 1.394 . S
C1177 C1183 1.461 1_554 S
C1178 C1173 1.399 . S
C1178 C1177 1.394 . S
C1178 C1179 1.512 1_554 S
C1179 C1178 1.512 1_556 S
C1179 C1180 1.510 . S
C1179 C1181 1.554 1_556 S
C1179 C1182 1.529 . S
C1180 H1164 0.959 . S
C1180 H1165 0.959 . S
C1180 H1166 0.961 . S
C1180 C1179 1.510 . S
C1181 H1167 0.960 . S
C1181 H1168 0.961 . S
C1181 H1169 0.959 . S
C1181 C1179 1.554 1_554 S
C1182 C1179 1.529 . S
C1182 C1183 1.399 . S
C1182 C1187 1.390 . S
C1183 C1177 1.461 1_556 S
C1183 C1182 1.399 . S
C1183 C1184 1.401 . S
C1184 H1170 0.917 1_556 S
C1184 C1183 1.401 . S
C1184 C1185 1.385 . S
C1185 H1171 0.931 . S
C1185 C1184 1.385 . S
C1185 C1186 1.389 . S
C1186 C1185 1.389 . S
C1186 C1187 1.387 . S
C1187 H1172 0.930 . S
C1187 C1182 1.390 . S
C1187 C1186 1.387 . S
H1188 C1200 0.930 . S
H1189 C1202 0.930 . S
H1190 C1203 0.930 . S
H1191 C1207 0.959 . S
H1192 C1207 0.959 . S
H1193 C1207 0.961 . S
H1194 C1208 0.960 . S
H1195 C1208 0.961 . S
H1196 C1208 0.959 1_556 S
H1197 C1211 0.929 . S
H1198 C1212 0.931 . S
H1199 C1214 0.936 . S
C1200 H1188 0.930 . S
C1200 C1201 1.399 . S
C1200 C1205 1.399 . S
C1201 C1200 1.399 . S
C1201 C1202 1.376 . S
C1202 H1189 0.930 . S
C1202 C1201 1.376 . S
C1202 C1203 1.388 1_554 S
C1203 H1190 0.930 . S
C1203 C1202 1.388 1_556 S
C1203 C1204 1.390 . S
C1204 C1203 1.390 . S
C1204 C1205 1.394 1_556 S
C1204 C1210 1.465 . S
C1205 C1200 1.399 . S
C1205 C1204 1.394 1_554 S
C1205 C1206 1.516 . S
C1206 C1205 1.516 . S
C1206 C1207 1.502 . S
C1206 C1208 1.561 . S
C1206 C1209 1.526 1_554 S
C1207 H1191 0.959 . S
C1207 H1192 0.959 . S
C1207 H1193 0.961 . S
C1207 C1206 1.502 . S
C1208 H1194 0.960 . S
C1208 H1195 0.961 . S
C1208 H1196 0.959 1_554 S
C1208 C1206 1.561 . S
C1209 C1206 1.526 1_556 S
C1209 C1210 1.396 . S
C1209 C1214 1.390 . S
C1210 C1204 1.465 . S
C1210 C1209 1.396 . S
C1210 C1211 1.399 . S
C1211 H1197 0.929 . S
C1211 C1210 1.399 . S
C1211 C1212 1.385 . S
C1212 H1198 0.931 . S
C1212 C1211 1.385 . S
C1212 C1213 1.389 . S
C1213 C1212 1.389 . S
C1213 C1214 1.387 . S
C1214 H1199 0.936 . S
C1214 C1209 1.390 . S
C1214 C1213 1.387 . S
H1215 C1227 0.930 . S
H1216 C1229 0.930 . S
H1217 C1230 0.930 . S
H1218 C1234 0.959 . S
H1219 C1234 0.959 . S
H1220 C1234 0.961 . S
H1221 C1235 0.960 . S
H1222 C1235 0.961 . S
H1223 C1235 0.959 . S
H1224 C1238 0.929 . S
H1225 C1239 0.931 . S
H1226 C1241 0.930 . S
C1227 H1215 0.930 . S
C1227 C1228 1.399 . S
C1227 C1232 1.399 . S
C1228 C1227 1.399 . S
C1228 C1229 1.376 . S
C1229 H1216 0.930 . S
C1229 C1228 1.376 . S
C1229 C1230 1.388 . S
C1230 H1217 0.930 . S
C1230 C1229 1.388 . S
C1230 C1231 1.390 . S
C1231 C1230 1.390 . S
C1231 C1232 1.394 . S
C1231 C1237 1.465 1_556 S
C1232 C1227 1.399 . S
C1232 C1231 1.394 . S
C1232 C1233 1.516 . S
C1233 C1232 1.516 . S
C1233 C1234 1.502 1_556 S
C1233 C1235 1.561 . S
C1233 C1236 1.526 1_556 S
C1234 H1218 0.959 . S
C1234 H1219 0.959 . S
C1234 H1220 0.961 . S
C1234 C1233 1.502 1_554 S
C1235 H1221 0.960 . S
C1235 H1222 0.961 . S
C1235 H1223 0.959 . S
C1235 C1233 1.561 . S
C1236 C1233 1.526 1_554 S
C1236 C1237 1.396 . S
C1236 C1241 1.390 . S
C1237 C1231 1.465 1_554 S
C1237 C1236 1.396 . S
C1237 C1238 1.399 . S
C1238 H1224 0.929 . S
C1238 C1237 1.399 . S
C1238 C1239 1.385 . S
C1239 H1225 0.931 . S
C1239 C1238 1.385 . S
C1239 C1240 1.389 . S
C1240 C1239 1.389 . S
C1240 C1241 1.387 . S
C1241 H1226 0.930 . S
C1241 C1236 1.390 . S
C1241 C1240 1.387 . S
H1242 C1254 0.925 1_556 S
H1243 C1256 0.930 . S
H1244 C1257 0.930 . S
H1245 C1261 0.959 . S
H1246 C1261 0.959 . S
H1247 C1261 0.961 . S
H1248 C1262 0.960 . S
H1249 C1262 0.961 . S
H1250 C1262 0.959 . S
H1251 C1265 0.929 . S
H1252 C1266 0.931 1_554 S
H1253 C1268 0.930 . S
C1254 H1242 0.925 1_554 S
C1254 C1255 1.406 . S
C1254 C1259 1.397 1_554 S
C1255 C1254 1.406 . S
C1255 C1256 1.376 . S
C1256 H1243 0.930 . S
C1256 C1255 1.376 . S
C1256 C1257 1.388 . S
C1257 H1244 0.930 . S
C1257 C1256 1.388 . S
C1257 C1258 1.390 . S
C1258 C1257 1.390 . S
C1258 C1259 1.394 1_554 S
C1258 C1264 1.474 . S
C1259 C1254 1.397 1_556 S
C1259 C1258 1.394 1_556 S
C1259 C1260 1.516 . S
C1260 C1259 1.516 . S
C1260 C1261 1.502 . S
C1260 C1262 1.561 . S
C1260 C1263 1.526 . S
C1261 H1245 0.959 . S
C1261 H1246 0.959 . S
C1261 H1247 0.961 . S
C1261 C1260 1.502 . S
C1262 H1248 0.960 . S
C1262 H1249 0.961 . S
C1262 H1250 0.959 . S
C1262 C1260 1.561 . S
C1263 C1260 1.526 . S
C1263 C1264 1.375 1_556 S
C1263 C1268 1.390 . S
C1264 C1258 1.474 . S
C1264 C1263 1.375 1_554 S
C1264 C1265 1.407 . S
C1265 H1251 0.929 . S
C1265 C1264 1.407 . S
C1265 C1266 1.385 1_554 S
C1266 H1252 0.931 1_556 S
C1266 C1265 1.385 1_556 S
C1266 C1267 1.389 . S
C1267 C1266 1.389 . S
C1267 C1268 1.387 . S
C1268 H1253 0.930 . S
C1268 C1263 1.390 . S
C1268 C1267 1.387 . S
H1269 C1281 0.930 . S
H1270 C1283 0.930 . S
H1271 C1284 0.930 . S
H1272 C1288 0.959 . S
H1273 C1288 0.959 . S
H1274 C1288 0.961 . S
H1275 C1289 0.960 . S
H1276 C1289 0.961 . S
H1277 C1289 0.959 . S
H1278 C1292 0.929 . S
H1279 C1293 0.931 1_556 S
H1280 C1295 0.930 . S
C1281 H1269 0.930 . S
C1281 C1282 1.399 . S
C1281 C1286 1.399 . S
C1282 C1281 1.399 . S
C1282 C1283 1.376 . S
C1283 H1270 0.930 . S
C1283 C1282 1.376 . S
C1283 C1284 1.388 . S
C1284 H1271 0.930 . S
C1284 C1283 1.388 . S
C1284 C1285 1.390 . S
C1285 C1284 1.390 . S
C1285 C1286 1.394 . S
C1285 C1291 1.465 . S
C1286 C1281 1.399 . S
C1286 C1285 1.394 . S
C1286 C1287 1.516 1_556 S
C1287 C1286 1.516 1_554 S
C1287 C1288 1.502 . S
C1287 C1289 1.561 . S
C1287 C1290 1.526 . S
C1288 H1272 0.959 . S
C1288 H1273 0.959 . S
C1288 H1274 0.961 . S
C1288 C1287 1.502 . S
C1289 H1275 0.960 . S
C1289 H1276 0.961 . S
C1289 H1277 0.959 . S
C1289 C1287 1.561 . S
C1290 C1287 1.526 . S
C1290 C1291 1.396 1_554 S
C1290 C1295 1.390 . S
C1291 C1285 1.465 . S
C1291 C1290 1.396 1_556 S
C1291 C1292 1.399 . S
C1292 H1278 0.929 . S
C1292 C1291 1.399 . S
C1292 C1293 1.385 1_556 S
C1293 H1279 0.931 1_554 S
C1293 C1292 1.385 1_554 S
C1293 C1294 1.389 . S
C1294 C1293 1.389 . S
C1294 C1295 1.387 . S
C1295 H1280 0.930 . S
C1295 C1290 1.390 . S
C1295 C1294 1.387 . S
H1296 C1308 0.930 . S
H1297 C1310 0.930 . S
H1298 C1311 0.930 . S
H1299 C1315 0.959 . S
H1300 C1315 0.959 . S
H1301 C1315 0.961 . S
H1302 C1316 0.960 . S
H1303 C1316 0.961 . S
H1304 C1316 0.959 . S
H1305 C1319 0.929 . S
H1306 C1320 0.931 . S
H1307 C1322 0.930 . S
C1308 H1296 0.930 . S
C1308 C1309 1.399 . S
C1308 C1313 1.399 . S
C1309 C1308 1.399 . S
C1309 C1310 1.376 . S
C1310 H1297 0.930 . S
C1310 C1309 1.376 . S
C1310 C1311 1.388 . S
C1311 H1298 0.930 . S
C1311 C1310 1.388 . S
C1311 C1312 1.390 . S
C1312 C1311 1.390 . S
C1312 C1313 1.394 . S
C1312 C1318 1.465 . S
C1313 C1308 1.399 . S
C1313 C1312 1.394 . S
C1313 C1314 1.516 . S
C1314 C1313 1.516 . S
C1314 C1315 1.502 . S
C1314 C1316 1.561 . S
C1314 C1317 1.526 . S
C1315 H1299 0.959 . S
C1315 H1300 0.959 . S
C1315 H1301 0.961 . S
C1315 C1314 1.502 . S
C1316 H1302 0.960 . S
C1316 H1303 0.961 . S
C1316 H1304 0.959 . S
C1316 C1314 1.561 . S
C1317 C1314 1.526 . S
C1317 C1318 1.396 . S
C1317 C1322 1.390 . S
C1318 C1312 1.465 . S
C1318 C1317 1.396 . S
C1318 C1319 1.399 . S
C1319 H1305 0.929 . S
C1319 C1318 1.399 . S
C1319 C1320 1.385 . S
C1320 H1306 0.931 . S
C1320 C1319 1.385 . S
C1320 C1321 1.389 . S
C1321 C1320 1.389 . S
C1321 C1322 1.387 . S
C1322 H1307 0.930 . S
C1322 C1317 1.390 . S
C1322 C1321 1.387 . S
H1323 C1335 0.930 . S
H1324 C1337 0.930 . S
H1325 C1338 0.930 . S
H1326 C1342 0.959 . S
H1327 C1342 0.959 . S
H1328 C1342 0.961 . S
H1329 C1343 0.960 . S
H1330 C1343 0.961 . S
H1331 C1343 0.959 . S
H1332 C1346 0.929 . S
H1333 C1347 0.931 . S
H1334 C1349 0.930 . S
C1335 H1323 0.930 . S
C1335 C1336 1.399 . S
C1335 C1340 1.399 . S
C1336 C1335 1.399 . S
C1336 C1337 1.376 . S
C1337 H1324 0.930 . S
C1337 C1336 1.376 . S
C1337 C1338 1.388 . S
C1338 H1325 0.930 . S
C1338 C1337 1.388 . S
C1338 C1339 1.390 . S
C1339 C1338 1.390 . S
C1339 C1340 1.394 . S
C1339 C1345 1.465 . S
C1340 C1335 1.399 . S
C1340 C1339 1.394 . S
C1340 C1341 1.516 . S
C1341 C1340 1.516 . S
C1341 C1342 1.502 . S
C1341 C1343 1.561 . S
C1341 C1344 1.526 . S
C1342 H1326 0.959 . S
C1342 H1327 0.959 . S
C1342 H1328 0.961 . S
C1342 C1341 1.502 . S
C1343 H1329 0.960 . S
C1343 H1330 0.961 . S
C1343 H1331 0.959 . S
C1343 C1341 1.561 . S
C1344 C1341 1.526 . S
C1344 C1345 1.396 . S
C1344 C1349 1.390 . S
C1345 C1339 1.465 . S
C1345 C1344 1.396 . S
C1345 C1346 1.399 . S
C1346 H1332 0.929 . S
C1346 C1345 1.399 . S
C1346 C1347 1.385 . S
C1347 H1333 0.931 . S
C1347 C1346 1.385 . S
C1347 C1348 1.389 . S
C1348 C1347 1.389 . S
C1348 C1349 1.387 . S
C1349 H1334 0.930 . S
C1349 C1344 1.390 . S
C1349 C1348 1.387 . S
H1350 C1362 0.930 . S
H1351 C1364 0.930 . S
H1352 C1365 0.930 . S
H1353 C1369 0.959 . S
H1354 C1369 0.959 . S
H1355 C1369 0.961 . S
H1356 C1370 0.960 . S
H1357 C1370 0.961 . S
H1358 C1370 0.959 . S
H1359 C1373 0.929 . S
H1360 C1374 0.931 . S
H1361 C1376 0.930 . S
C1362 H1350 0.930 . S
C1362 C1363 1.399 . S
C1362 C1367 1.399 . S
C1363 C1362 1.399 . S
C1363 C1364 1.376 . S
C1364 H1351 0.930 . S
C1364 C1363 1.376 . S
C1364 C1365 1.388 . S
C1365 H1352 0.930 . S
C1365 C1364 1.388 . S
C1365 C1366 1.390 . S
C1366 C1365 1.390 . S
C1366 C1367 1.394 . S
C1366 C1372 1.465 . S
C1367 C1362 1.399 . S
C1367 C1366 1.394 . S
C1367 C1368 1.516 . S
C1368 C1367 1.516 . S
C1368 C1369 1.502 . S
C1368 C1370 1.561 . S
C1368 C1371 1.526 . S
C1369 H1353 0.959 . S
C1369 H1354 0.959 . S
C1369 H1355 0.961 . S
C1369 C1368 1.502 . S
C1370 H1356 0.960 . S
C1370 H1357 0.961 . S
C1370 H1358 0.959 . S
C1370 C1368 1.561 . S
C1371 C1368 1.526 . S
C1371 C1372 1.396 . S
C1371 C1376 1.390 . S
C1372 C1366 1.465 . S
C1372 C1371 1.396 . S
C1372 C1373 1.399 . S
C1373 H1359 0.929 . S
C1373 C1372 1.399 . S
C1373 C1374 1.385 . S
C1374 H1360 0.931 . S
C1374 C1373 1.385 . S
C1374 C1375 1.389 . S
C1375 C1374 1.389 . S
C1375 C1376 1.387 . S
C1376 H1361 0.930 . S
C1376 C1371 1.390 . S
C1376 C1375 1.387 . S
H1377 C1389 0.930 . S
H1378 C1391 0.930 . S
H1379 C1392 0.930 . S
H1380 C1396 0.959 . S
H1381 C1396 0.959 . S
H1382 C1396 0.961 . S
H1383 C1397 0.960 . S
H1384 C1397 0.961 . S
H1385 C1397 0.959 . S
H1386 C1400 0.929 . S
H1387 C1401 0.931 . S
H1388 C1403 0.930 . S
C1389 H1377 0.930 . S
C1389 C1390 1.399 . S
C1389 C1394 1.399 . S
C1390 C1389 1.399 . S
C1390 C1391 1.376 . S
C1391 H1378 0.930 . S
C1391 C1390 1.376 . S
C1391 C1392 1.388 . S
C1392 H1379 0.930 . S
C1392 C1391 1.388 . S
C1392 C1393 1.390 . S
C1393 C1392 1.390 . S
C1393 C1394 1.394 . S
C1393 C1399 1.465 . S
C1394 C1389 1.399 . S
C1394 C1393 1.394 . S
C1394 C1395 1.516 . S
C1395 C1394 1.516 . S
C1395 C1396 1.502 . S
C1395 C1397 1.561 . S
C1395 C1398 1.526 . S
C1396 H1380 0.959 . S
C1396 H1381 0.959 . S
C1396 H1382 0.961 . S
C1396 C1395 1.502 . S
C1397 H1383 0.960 . S
C1397 H1384 0.961 . S
C1397 H1385 0.959 . S
C1397 C1395 1.561 . S
C1398 C1395 1.526 . S
C1398 C1399 1.396 . S
C1398 C1403 1.390 . S
C1399 C1393 1.465 . S
C1399 C1398 1.396 . S
C1399 C1400 1.399 . S
C1400 H1386 0.929 . S
C1400 C1399 1.399 . S
C1400 C1401 1.385 . S
C1401 H1387 0.931 . S
C1401 C1400 1.385 . S
C1401 C1402 1.389 . S
C1402 C1401 1.389 . S
C1402 C1403 1.387 . S
C1403 H1388 0.930 . S
C1403 C1398 1.390 . S
C1403 C1402 1.387 . S
H1404 C1416 0.930 . S
H1405 C1418 0.928 1_565 S
H1406 C1419 0.930 1_565 S
H1407 C1423 0.959 . S
H1408 C1423 0.959 . S
H1409 C1423 0.961 . S
H1410 C1424 0.960 . S
H1411 C1424 0.961 . S
H1412 C1424 0.959 . S
H1413 C1427 0.929 . S
H1414 C1428 0.931 . S
H1415 C1430 0.930 . S
C1416 H1404 0.930 . S
C1416 C1417 1.399 . S
C1416 C1421 1.399 . S
C1417 C1416 1.399 . S
C1417 C1418 1.376 . S
C1418 H1405 0.928 1_545 S
C1418 C1417 1.376 . S
C1418 C1419 1.388 . S
C1419 H1406 0.930 1_545 S
C1419 C1418 1.388 . S
C1419 C1420 1.390 . S
C1420 C1419 1.390 . S
C1420 C1421 1.394 . S
C1420 C1426 1.465 . S
C1421 C1416 1.399 . S
C1421 C1420 1.394 . S
C1421 C1422 1.516 . S
C1422 C1421 1.516 . S
C1422 C1423 1.502 . S
C1422 C1424 1.561 . S
C1422 C1425 1.526 . S
C1423 H1407 0.959 . S
C1423 H1408 0.959 . S
C1423 H1409 0.961 . S
C1423 C1422 1.502 . S
C1424 H1410 0.960 . S
C1424 H1411 0.961 . S
C1424 H1412 0.959 . S
C1424 C1422 1.561 . S
C1425 C1422 1.526 . S
C1425 C1426 1.396 . S
C1425 C1430 1.390 . S
C1426 C1420 1.465 . S
C1426 C1425 1.396 . S
C1426 C1427 1.399 1_545 S
C1427 H1413 0.929 . S
C1427 C1426 1.399 1_565 S
C1427 C1428 1.385 . S
C1428 H1414 0.931 . S
C1428 C1427 1.385 . S
C1428 C1429 1.389 1_565 S
C1429 C1428 1.389 1_545 S
C1429 C1430 1.387 . S
C1430 H1415 0.930 . S
C1430 C1425 1.390 . S
C1430 C1429 1.387 . S
H1431 C1443 0.930 . S
H1432 C1445 0.930 . S
H1433 C1446 0.930 . S
H1434 C1450 0.959 . S
H1435 C1450 0.959 . S
H1436 C1450 0.961 . S
H1437 C1451 0.960 . S
H1438 C1451 0.961 . S
H1439 C1451 0.959 . S
H1440 C1454 0.929 . S
H1441 C1455 0.931 . S
H1442 C1457 0.930 . S
C1443 H1431 0.930 . S
C1443 C1444 1.399 . S
C1443 C1448 1.399 . S
C1444 C1443 1.399 . S
C1444 C1445 1.376 . S
C1445 H1432 0.930 . S
C1445 C1444 1.376 . S
C1445 C1446 1.388 . S
C1446 H1433 0.930 . S
C1446 C1445 1.388 . S
C1446 C1447 1.390 . S
C1447 C1446 1.390 . S
C1447 C1448 1.394 . S
C1447 C1453 1.465 . S
C1448 C1443 1.399 . S
C1448 C1447 1.394 . S
C1448 C1449 1.516 . S
C1449 C1448 1.516 . S
C1449 C1450 1.502 1_655 S
C1449 C1451 1.561 . S
C1449 C1452 1.526 . S
C1450 H1434 0.959 . S
C1450 H1435 0.959 . S
C1450 H1436 0.961 . S
C1450 C1449 1.502 1_455 S
C1451 H1437 0.960 . S
C1451 H1438 0.961 . S
C1451 H1439 0.959 . S
C1451 C1449 1.561 . S
C1452 C1449 1.526 . S
C1452 C1453 1.396 . S
C1452 C1457 1.390 . S
C1453 C1447 1.465 . S
C1453 C1452 1.396 . S
C1453 C1454 1.399 . S
C1454 H1440 0.929 . S
C1454 C1453 1.399 . S
C1454 C1455 1.385 . S
C1455 H1441 0.931 . S
C1455 C1454 1.385 . S
C1455 C1456 1.389 . S
C1456 C1455 1.389 . S
C1456 C1457 1.387 . S
C1457 H1442 0.930 . S
C1457 C1452 1.390 . S
C1457 C1456 1.387 . S
H1458 C1470 0.930 . S
H1459 C1472 0.930 . S
H1460 C1473 0.930 . S
H1461 C1477 0.959 . S
H1462 C1477 0.959 . S
H1463 C1477 0.961 . S
H1464 C1478 0.960 . S
H1465 C1478 0.961 . S
H1466 C1478 0.959 . S
H1467 C1481 0.929 . S
H1468 C1482 0.931 . S
H1469 C1484 0.930 . S
C1470 H1458 0.930 . S
C1470 C1471 1.399 . S
C1470 C1475 1.399 . S
C1471 C1470 1.399 . S
C1471 C1472 1.376 . S
C1472 H1459 0.930 . S
C1472 C1471 1.376 . S
C1472 C1473 1.388 . S
C1473 H1460 0.930 . S
C1473 C1472 1.388 . S
C1473 C1474 1.390 . S
C1474 C1473 1.390 . S
C1474 C1475 1.394 . S
C1474 C1480 1.465 . S
C1475 C1470 1.399 . S
C1475 C1474 1.394 . S
C1475 C1476 1.516 . S
C1476 C1475 1.516 . S
C1476 C1477 1.502 . S
C1476 C1478 1.561 . S
C1476 C1479 1.526 . S
C1477 H1461 0.959 . S
C1477 H1462 0.959 . S
C1477 H1463 0.961 . S
C1477 C1476 1.502 . S
C1478 H1464 0.960 . S
C1478 H1465 0.961 . S
C1478 H1466 0.959 . S
C1478 C1476 1.561 . S
C1479 C1476 1.526 . S
C1479 C1480 1.396 . S
C1479 C1484 1.390 . S
C1480 C1474 1.465 . S
C1480 C1479 1.396 . S
C1480 C1481 1.399 . S
C1481 H1467 0.929 . S
C1481 C1480 1.399 . S
C1481 C1482 1.385 . S
C1482 H1468 0.931 . S
C1482 C1481 1.385 . S
C1482 C1483 1.389 . S
C1483 C1482 1.389 . S
C1483 C1484 1.387 . S
C1484 H1469 0.930 . S
C1484 C1479 1.390 . S
C1484 C1483 1.387 . S
H1485 C1497 0.930 . S
H1486 C1499 0.930 . S
H1487 C1500 0.930 . S
H1488 C1504 0.959 . S
H1489 C1504 0.959 . S
H1490 C1504 0.961 . S
H1491 C1505 0.960 . S
H1492 C1505 0.961 . S
H1493 C1505 0.959 . S
H1494 C1508 0.929 1_545 S
H1495 C1509 0.931 . S
H1496 C1511 0.930 . S
C1497 H1485 0.930 . S
C1497 C1498 1.399 . S
C1497 C1502 1.399 . S
C1498 C1497 1.399 . S
C1498 C1499 1.376 1_565 S
C1499 H1486 0.930 . S
C1499 C1498 1.376 1_545 S
C1499 C1500 1.388 . S
C1500 H1487 0.930 . S
C1500 C1499 1.388 . S
C1500 C1501 1.390 1_545 S
C1501 C1500 1.390 1_565 S
C1501 C1502 1.394 . S
C1501 C1507 1.465 . S
C1502 C1497 1.399 . S
C1502 C1501 1.394 . S
C1502 C1503 1.516 . S
C1503 C1502 1.516 . S
C1503 C1504 1.502 . S
C1503 C1505 1.561 . S
C1503 C1506 1.526 . S
C1504 H1488 0.959 . S
C1504 H1489 0.959 . S
C1504 H1490 0.961 . S
C1504 C1503 1.502 . S
C1505 H1491 0.960 . S
C1505 H1492 0.961 . S
C1505 H1493 0.959 . S
C1505 C1503 1.561 . S
C1506 C1503 1.526 . S
C1506 C1507 1.396 . S
C1506 C1511 1.390 . S
C1507 C1501 1.465 . S
C1507 C1506 1.396 . S
C1507 C1508 1.399 . S
C1508 H1494 0.929 1_565 S
C1508 C1507 1.399 . S
C1508 C1509 1.385 . S
C1509 H1495 0.931 . S
C1509 C1508 1.385 . S
C1509 C1510 1.389 . S
C1510 C1509 1.389 . S
C1510 C1511 1.387 . S
C1511 H1496 0.930 . S
C1511 C1506 1.390 . S
C1511 C1510 1.387 . S
H1512 C1524 0.930 1_655 S
H1513 C1526 0.930 . S
H1514 C1527 0.930 . S
H1515 C1531 0.959 . S
H1516 C1531 0.959 . S
H1517 C1531 0.961 . S
H1518 C1532 0.960 . S
H1519 C1532 0.961 . S
H1520 C1532 0.959 1_455 S
H1521 C1535 0.929 . S
H1522 C1536 0.931 . S
H1523 C1538 0.930 . S
C1524 H1512 0.930 1_455 S
C1524 C1525 1.399 . S
C1524 C1529 1.399 . S
C1525 C1524 1.399 . S
C1525 C1526 1.376 . S
C1526 H1513 0.930 . S
C1526 C1525 1.376 . S
C1526 C1527 1.388 . S
C1527 H1514 0.930 . S
C1527 C1526 1.388 . S
C1527 C1528 1.390 . S
C1528 C1527 1.390 . S
C1528 C1529 1.394 . S
C1528 C1534 1.465 . S
C1529 C1524 1.399 . S
C1529 C1528 1.394 . S
C1529 C1530 1.516 1_455 S
C1530 C1529 1.516 1_655 S
C1530 C1531 1.502 . S
C1530 C1532 1.561 . S
C1530 C1533 1.526 1_655 S
C1531 H1515 0.959 . S
C1531 H1516 0.959 . S
C1531 H1517 0.961 . S
C1531 C1530 1.502 . S
C1532 H1518 0.960 . S
C1532 H1519 0.961 . S
C1532 H1520 0.959 1_655 S
C1532 C1530 1.561 . S
C1533 C1530 1.526 1_455 S
C1533 C1534 1.396 . S
C1533 C1538 1.390 1_455 S
C1534 C1528 1.465 . S
C1534 C1533 1.396 . S
C1534 C1535 1.399 . S
C1535 H1521 0.929 . S
C1535 C1534 1.399 . S
C1535 C1536 1.385 . S
C1536 H1522 0.931 . S
C1536 C1535 1.385 . S
C1536 C1537 1.389 . S
C1537 C1536 1.389 . S
C1537 C1538 1.387 1_455 S
C1538 H1523 0.930 . S
C1538 C1533 1.390 1_655 S
C1538 C1537 1.387 1_655 S
H1539 C1551 0.930 . S
H1540 C1553 0.930 . S
H1541 C1554 0.930 . S
H1542 C1558 0.959 . S
H1543 C1558 0.959 . S
H1544 C1558 0.961 . S
H1545 C1559 0.960 . S
H1546 C1559 0.961 . S
H1547 C1559 0.959 . S
H1548 C1562 0.929 . S
H1549 C1563 0.931 . S
H1550 C1565 0.930 . S
C1551 H1539 0.930 . S
C1551 C1552 1.399 . S
C1551 C1556 1.399 . S
C1552 C1551 1.399 . S
C1552 C1553 1.376 . S
C1553 H1540 0.930 . S
C1553 C1552 1.376 . S
C1553 C1554 1.388 . S
C1554 H1541 0.930 . S
C1554 C1553 1.388 . S
C1554 C1555 1.390 . S
C1555 C1554 1.390 . S
C1555 C1556 1.394 . S
C1555 C1561 1.465 . S
C1556 C1551 1.399 . S
C1556 C1555 1.394 . S
C1556 C1557 1.516 . S
C1557 C1556 1.516 . S
C1557 C1558 1.502 . S
C1557 C1559 1.561 . S
C1557 C1560 1.526 . S
C1558 H1542 0.959 . S
C1558 H1543 0.959 . S
C1558 H1544 0.961 . S
C1558 C1557 1.502 . S
C1559 H1545 0.960 . S
C1559 H1546 0.961 . S
C1559 H1547 0.959 . S
C1559 C1557 1.561 . S
C1560 C1557 1.526 . S
C1560 C1561 1.396 . S
C1560 C1565 1.390 . S
C1561 C1555 1.465 . S
C1561 C1560 1.396 . S
C1561 C1562 1.399 . S
C1562 H1548 0.929 . S
C1562 C1561 1.399 . S
C1562 C1563 1.385 . S
C1563 H1549 0.931 . S
C1563 C1562 1.385 . S
C1563 C1564 1.389 . S
C1564 C1563 1.389 . S
C1564 C1565 1.387 . S
C1565 H1550 0.930 . S
C1565 C1560 1.390 . S
C1565 C1564 1.387 . S
H1566 C1578 0.930 . S
H1567 C1580 0.930 . S
H1568 C1581 0.930 . S
H1569 C1585 0.959 . S
H1570 C1585 0.959 . S
H1571 C1585 0.961 . S
H1572 C1586 0.960 . S
H1573 C1586 0.961 . S
H1574 C1586 0.959 . S
H1575 C1589 0.929 . S
H1576 C1590 0.931 . S
H1577 C1592 0.930 . S
C1578 H1566 0.930 . S
C1578 C1579 1.399 . S
C1578 C1583 1.399 . S
C1579 C1578 1.399 . S
C1579 C1580 1.376 . S
C1580 H1567 0.930 . S
C1580 C1579 1.376 . S
C1580 C1581 1.388 . S
C1581 H1568 0.930 . S
C1581 C1580 1.388 . S
C1581 C1582 1.390 . S
C1582 C1581 1.390 . S
C1582 C1583 1.394 . S
C1582 C1588 1.465 . S
C1583 C1578 1.399 . S
C1583 C1582 1.394 . S
C1583 C1584 1.516 . S
C1584 C1583 1.516 . S
C1584 C1585 1.502 . S
C1584 C1586 1.561 . S
C1584 C1587 1.526 . S
C1585 H1569 0.959 . S
C1585 H1570 0.959 . S
C1585 H1571 0.961 . S
C1585 C1584 1.502 . S
C1586 H1572 0.960 . S
C1586 H1573 0.961 . S
C1586 H1574 0.959 . S
C1586 C1584 1.561 . S
C1587 C1584 1.526 . S
C1587 C1588 1.396 . S
C1587 C1592 1.390 . S
C1588 C1582 1.465 . S
C1588 C1587 1.396 . S
C1588 C1589 1.399 . S
C1589 H1575 0.929 . S
C1589 C1588 1.399 . S
C1589 C1590 1.385 . S
C1590 H1576 0.931 . S
C1590 C1589 1.385 . S
C1590 C1591 1.389 . S
C1591 C1590 1.389 . S
C1591 C1592 1.387 . S
C1592 H1577 0.930 . S
C1592 C1587 1.390 . S
C1592 C1591 1.387 . S
H1593 C1605 0.930 . S
H1594 C1607 0.930 . S
H1595 C1608 0.930 . S
H1596 C1612 0.959 . S
H1597 C1612 0.959 . S
H1598 C1612 0.961 . S
H1599 C1613 0.960 . S
H1600 C1613 0.961 . S
H1601 C1613 0.959 . S
H1602 C1616 0.929 . S
H1603 C1617 0.931 . S
H1604 C1619 0.930 . S
C1605 H1593 0.930 . S
C1605 C1606 1.399 . S
C1605 C1610 1.399 . S
C1606 C1605 1.399 . S
C1606 C1607 1.376 . S
C1607 H1594 0.930 . S
C1607 C1606 1.376 . S
C1607 C1608 1.388 . S
C1608 H1595 0.930 . S
C1608 C1607 1.388 . S
C1608 C1609 1.390 . S
C1609 C1608 1.390 . S
C1609 C1610 1.394 . S
C1609 C1615 1.465 . S
C1610 C1605 1.399 . S
C1610 C1609 1.394 . S
C1610 C1611 1.516 . S
C1611 C1610 1.516 . S
C1611 C1612 1.502 . S
C1611 C1613 1.561 . S
C1611 C1614 1.526 . S
C1612 H1596 0.959 . S
C1612 H1597 0.959 . S
C1612 H1598 0.961 . S
C1612 C1611 1.502 . S
C1613 H1599 0.960 . S
C1613 H1600 0.961 . S
C1613 H1601 0.959 . S
C1613 C1611 1.561 . S
C1614 C1611 1.526 . S
C1614 C1615 1.396 . S
C1614 C1619 1.390 . S
C1615 C1609 1.465 . S
C1615 C1614 1.396 . S
C1615 C1616 1.399 . S
C1616 H1602 0.929 . S
C1616 C1615 1.399 . S
C1616 C1617 1.385 . S
C1617 H1603 0.931 . S
C1617 C1616 1.385 . S
C1617 C1618 1.389 . S
C1618 C1617 1.389 . S
C1618 C1619 1.387 . S
C1619 H1604 0.930 . S
C1619 C1614 1.390 . S
C1619 C1618 1.387 . S
C661 C14 1.793 . S
C673 C122 1.786 . S
C688 C50 1.813 . S
C700 C147 2.025 . S
C715 C194 1.908 . S
C727 C86 1.910 . S
C742 C230 1.805 . S
C754 C338 1.740 . S
C769 C266 1.899 . S
C781 C363 1.980 . S
C796 C410 1.923 . S
C808 C302 1.836 . S
C823 C554 1.789 . S
C835 C446 1.759 . S
C850 C579 1.991 . S
C862 C482 1.864 . S
C877 C626 1.904 . S
C889 C518 1.843 . S
C904 C3 1.658 . S
C916 C327 1.640 . S
C931 C39 1.685 . S
C943 C374 1.604 . S
C958 C399 1.775 . S
C970 C75 1.726 . S
C985 C111 1.622 . S
C997 C435 1.683 . S
C1012 C158 1.526 . S
C1024 C471 1.727 . S
C1039 C183 1.764 . S
C1051 C507 1.753 . S
C1066 C219 1.696 . S
C1078 C543 1.655 . S
C1093 C255 1.737 . S
C1105 C590 1.497 . S
C1120 C615 1.725 . S
C1132 C291 1.766 . S
C1147 C4 0.481 . S
C1159 C148 0.515 . S
C1174 C40 0.590 . S
C1186 C182 0.537 . S
C1201 C76 0.513 . S
C1213 C110 0.540 . S
C1228 C112 0.507 . S
C1240 C38 0.491 . S
C1255 C74 0.444 . S
C1267 C146 0.429 . S
C1282 C184 0.549 . S
C1294 C2 0.521 . S
C1309 C220 0.563 . S
C1321 C364 0.540 . S
C1336 C398 0.519 . S
C1348 C256 0.507 . S
C1363 C326 0.560 . S
C1375 C292 0.588 . S
C1390 C254 0.502 . S
C1402 C328 0.545 . S
C1417 C362 0.587 . S
C1429 C290 0.544 . S
C1444 C400 0.564 . S
C1456 C218 0.522 . S
C1471 C580 0.537 . S
C1483 C436 0.591 . S
C1498 C614 0.602 . S
C1510 C472 0.616 . S
C1525 C508 0.530 . S
C1537 C542 0.502 . S
C1552 C470 0.498 . S
C1564 C544 0.548 . S
C1579 C506 0.492 . S
C1591 C578 0.518 . S
C1606 C434 0.497 . S
C1618 C616 0.493 . S
