# Generated by pormake.
# Topology ilc, (8)-cn, num edge types: 1
# Building blocks:
#     Node 0, Type 0, BuildingBlock: TAGTUT_clean_sbu_1, # of connection points: 8
#     Node 1, Type 0, BuildingBlock: TAGTUT_clean_sbu_1, # of connection points: 8
#     Node 2, Type 0, BuildingBlock: TAGTUT_clean_sbu_1, # of connection points: 8
#     Edge 3, Type (0, 0), BuildingBlock: UVAHIK_clean_linker_0, # of connection points: 2
#     Edge 4, Type (0, 0), BuildingBlock: UVAHIK_clean_linker_0, # of connection points: 2
#     Edge 5, Type (0, 0), BuildingBlock: UVAHIK_clean_linker_0, # of connection points: 2
#     Edge 6, Type (0, 0), BuildingBlock: UVAHIK_clean_linker_0, # of connection points: 2
#     Edge 7, Type (0, 0), BuildingBlock: UVAHIK_clean_linker_0, # of connection points: 2
#     Edge 8, Type (0, 0), BuildingBlock: UVAHIK_clean_linker_0, # of connection points: 2
#     Edge 9, Type (0, 0), BuildingBlock: UVAHIK_clean_linker_0, # of connection points: 2
#     Edge 10, Type (0, 0), BuildingBlock: UVAHIK_clean_linker_0, # of connection points: 2
#     Edge 11, Type (0, 0), BuildingBlock: UVAHIK_clean_linker_0, # of connection points: 2
#     Edge 12, Type (0, 0), BuildingBlock: UVAHIK_clean_linker_0, # of connection points: 2
#     Edge 13, Type (0, 0), BuildingBlock: UVAHIK_clean_linker_0, # of connection points: 2
#     Edge 14, Type (0, 0), BuildingBlock: UVAHIK_clean_linker_0, # of connection points: 2
# Relax obj value: 0.128
# Max RMSD: 0.139
# Mean RMSD: 0.139
data_MOF--net-ilc--node1-TAGTUT_clean_sbu_1--edge1-UVAHIK_clean_linker_0
_symmetry_space_group_name_H-M    P1
_symmetry_Int_Tables_number       1
_symmetry_cell_setting            triclinic
loop_
_symmetry_equiv_pos_as_xyz
'x, y, z'
_cell_length_a     31.421214
_cell_length_b     34.918877
_cell_length_c     19.065123
_cell_angle_alpha  98.262174
_cell_angle_beta   86.846714
_cell_angle_gamma 133.10878
loop_
_atom_site_label
_atom_site_type_symbol
_atom_site_fract_x
_atom_site_fract_y
_atom_site_fract_z
_atom_type_partial_charge
C0 C 0.11934 0.95239 0.1143 0.0
C1 C 0.10646 0.06361 0.18651 0.0
C2 C 0.90862 0.94114 0.01887 0.0
Mg3 Mg 0.15263 0.04744 0.05407 0.0
O4 O 0.07665 0.99464 0.01264 0.0
Mg5 Mg 1.01154 0.94748 0.07487 0.0
Mg6 Mg 1.04174 0.01507 0.96358 0.0
O7 O 1.00643 0.0351 0.91346 0.0
Mg8 Mg 0.93185 0.97932 0.86757 0.0
Mg9 Mg 0.07349 0.0824 0.85247 0.0
C10 C 0.17655 0.08922 0.9079 0.0
C11 C 0.10875 0.1385 0.01706 0.0
O12 O 0.06563 0.93005 0.11282 0.0
O13 O 0.15983 0.99676 0.09162 0.0
O14 O 0.05784 0.01589 0.16812 0.0
O15 O 0.1485 0.08743 0.14534 0.0
O16 O 0.19725 0.08859 0.96348 0.0
O17 O 0.12193 0.06309 0.89906 0.0
C18 C 0.97194 0.89035 0.91124 0.0
O19 O 0.99413 0.93464 0.89306 0.0
O20 O 0.97286 0.88498 -0.02386 0.0
O21 O 1.01734 0.09595 0.80721 0.0
O22 O 0.92274 0.02681 0.82346 0.0
O23 O 1.03593 1.01254 0.76614 0.0
C24 C 0.96301 0.07165 0.80181 0.0
O25 O 0.94404 0.9402 0.78402 0.0
O26 O 0.88827 0.93996 0.96095 0.0
C27 C 0.99068 0.96314 0.75125 0.0
O28 O 0.96346 0.96885 0.03047 0.0
O29 O 0.08779 0.09425 0.03389 0.0
O30 O 0.10851 0.14469 0.95212 0.0
C31 C 0.78597 0.28563 0.44674 0.0
C32 C 0.77866 0.40263 0.5154 0.0
C33 C 0.57632 0.27715 0.35464 0.0
Mg34 Mg 0.81999 0.3793 0.38261 0.0
O35 O 0.74286 0.32838 0.34556 0.0
Mg36 Mg 0.67947 0.28389 0.41107 0.0
Mg37 Mg 0.70827 0.34902 0.29625 0.0
O38 O 0.67248 0.36837 0.24528 0.0
Mg39 Mg 0.59716 0.31197 0.20097 0.0
Mg40 Mg 0.73796 0.41329 0.18142 0.0
C41 C 0.84109 0.41968 0.23594 0.0
C42 C 0.77881 0.47434 0.34326 0.0
O43 O 0.73317 0.26562 0.44893 0.0
O44 O 0.82619 0.32814 0.42005 0.0
O45 O 0.72831 0.3554 0.50137 0.0
O46 O 0.81987 0.42169 0.4734 0.0
O47 O 0.86245 0.41898 0.29069 0.0
O48 O 0.78653 0.39407 0.22832 0.0
C49 C 0.63576 0.22311 0.24895 0.0
O50 O 0.65785 0.26694 0.2291 0.0
O51 O 0.63812 0.21912 0.31423 0.0
O52 O 0.68204 0.42696 0.13675 0.0
O53 O 0.58765 0.35895 0.1554 0.0
O54 O 0.69768 0.34183 0.09741 0.0
C55 C 0.6279 0.40327 0.13243 0.0
O56 O 0.60623 0.27006 0.11757 0.0
O57 O 0.55549 0.27486 0.2962 0.0
C58 C 0.65216 0.29243 0.08349 0.0
O59 O 0.63131 0.30522 0.36613 0.0
O60 O 0.75862 0.43106 0.36315 0.0
O61 O 0.77539 0.47784 0.27793 0.0
C62 C 0.45941 0.6305 0.79451 0.0
C63 C 0.43299 0.73983 0.84483 0.0
C64 C 0.24549 0.61275 0.69094 0.0
Mg65 Mg 0.49031 0.72269 0.7279 0.0
O66 O 0.41535 0.66632 0.6829 0.0
Mg67 Mg 0.34888 0.61965 0.74492 0.0
Mg68 Mg 0.37927 0.68527 0.6319 0.0
O69 O 0.34349 0.70462 0.58209 0.0
Mg70 Mg 0.26675 0.6514 0.5435 0.0
Mg71 Mg 0.40692 0.74906 0.51674 0.0
C72 C 0.51146 0.75812 0.57468 0.0
C73 C 0.44916 0.81027 0.67904 0.0
O74 O 0.40513 0.60629 0.78934 0.0
O75 O 0.49969 0.67534 0.77278 0.0
O76 O 0.388 0.6903 0.83009 0.0
O77 O 0.47937 0.76312 0.8114 0.0
O78 O 0.53247 0.76051 0.63303 0.0
O79 O 0.45645 0.72982 0.56325 0.0
C80 C 0.31157 0.56125 0.58166 0.0
O81 O 0.33252 0.60521 0.56379 0.0
O82 O 0.31228 0.55588 0.64687 0.0
O83 O 0.35193 0.76514 0.47678 0.0
O84 O 0.25845 0.70021 0.50221 0.0
O85 O 0.35912 0.67703 0.42704 0.0
C86 C 0.29842 0.74335 0.47662 0.0
O87 O 0.26906 0.60819 0.45609 0.0
O88 O 0.22385 0.6127 0.63578 0.0
C89 C 0.31009 0.62878 0.41358 0.0
O90 O 0.30013 0.63864 0.69842 0.0
O91 O 0.42776 0.76676 0.69932 0.0
O92 O 0.44692 0.81399 0.61353 0.0
C93 C 1.04558 0.93847 0.70992 0.0
C94 C 0.99696 0.93209 0.70032 0.0
C95 C 0.06869 0.93075 0.65138 0.0
C96 C 0.06272 0.92588 0.45495 0.0
H97 H 0.18607 0.07836 0.51024 0.0
C98 C 0.07444 0.05575 0.30836 0.0
C99 C 0.12092 0.08139 0.26332 0.0
C100 C 0.07777 0.03877 0.36775 0.0
C101 C 0.15291 0.03588 0.49371 0.0
H102 H 0.92643 0.9015 0.62751 0.0
H103 H 0.96717 0.88939 0.52475 0.0
H104 H 0.15213 0.01947 0.59704 0.0
H105 H 0.21288 0.12373 0.25623 0.0
H106 H 0.2186 0.09456 0.36102 0.0
H107 H 0.06017 0.94342 0.35316 0.0
C108 C 0.98821 0.90039 0.57647 0.0
C109 C 0.13369 1.00177 0.54302 0.0
C110 C 0.9648 0.90775 0.6352 0.0
C111 C 0.17552 0.10225 0.28871 0.0
C112 C 0.17882 0.085 0.34811 0.0
C113 C 0.08192 0.95998 0.40574 0.0
C114 C 1.04444 0.9189 0.58315 0.0
C115 C 0.08417 0.94691 0.526 0.0
C116 C 0.12821 0.04911 0.38342 0.0
C117 C 0.12351 0.01512 0.42696 0.0
H118 H 0.06988 0.95586 0.76093 0.0
H119 H 0.11088 0.94333 0.6583 0.0
H120 H 1.02565 0.8838 0.43994 0.0
H121 H 1.03243 0.04066 0.29116 0.0
H122 H 1.03883 1.01249 0.39648 0.0
C123 C 0.85101 0.45447 0.6173 0.0
C124 C 0.79476 0.42816 0.58981 0.0
C125 C 0.85829 0.44951 0.68585 0.0
C126 C 0.80726 0.40435 0.85069 0.0
H127 H 0.74199 0.26302 0.77295 0.0
C128 C 0.62928 0.24553 0.96236 0.0
C129 C 0.65698 0.26167 0.0294 0.0
C130 C 0.65912 0.25028 0.90215 0.0
C131 C 0.76235 0.3029 0.79548 0.0
H132 H 0.70699 0.39035 0.61732 0.0
H133 H 0.72079 0.38467 0.73849 0.0
H134 H 0.78463 0.32995 0.69426 0.0
H135 H 0.72814 0.28103 0.08767 0.0
H136 H 0.78152 0.29239 -0.01692 0.0
H137 H 0.78064 0.37617 0.95077 0.0
C138 C 0.75821 0.40633 0.70609 0.0
C139 C 0.78656 0.34106 0.75091 0.0
C140 C 0.75031 0.40965 0.6368 0.0
C141 C 0.7069 0.26954 0.03582 0.0
C142 C 0.73737 0.27566 -0.02409 0.0
C143 C 0.78441 0.36671 0.89545 0.0
C144 C 0.81022 0.4211 0.72777 0.0
C145 C 0.80604 0.3908 0.77788 0.0
C146 C 0.71689 0.27288 0.91027 0.0
C147 C 0.75911 0.31499 0.8675 0.0
H148 H 0.88674 0.47048 0.58274 0.0
H149 H 0.89886 0.46151 0.70226 0.0
H150 H 0.82111 0.44213 0.87189 0.0
H151 H 0.5903 0.23862 0.95651 0.0
H152 H 0.64217 0.24701 0.85139 0.0
C153 C 0.45521 0.7861 -0.03371 0.0
C154 C 0.42711 0.76958 0.89943 0.0
C155 C 0.42524 0.78056 0.02674 0.0
C156 C 0.32244 0.72646 0.13404 0.0
H157 H 0.26656 0.58836 0.05733 0.0
C158 C 0.23774 0.57571 0.31187 0.0
C159 C 0.29435 0.60309 0.33932 0.0
C160 C 0.22991 0.58028 0.24334 0.0
C161 C 0.27961 0.62578 0.07863 0.0
H162 H 0.35479 0.74867 0.84178 0.0
H163 H 0.30123 0.73593 0.94676 0.0
H164 H 0.30509 0.6539 -0.02153 0.0
H165 H 0.3826 0.64264 0.31188 0.0
H166 H 0.36795 0.6477 0.19069 0.0
H167 H 0.30134 0.69956 0.23529 0.0
C168 C 0.34577 0.75355 0.95361 0.0
C169 C 0.30133 0.66318 0.03388 0.0
C170 C 0.37635 0.76045 0.89348 0.0
C171 C 0.33897 0.62245 0.29235 0.0
C172 C 0.33058 0.62543 0.22309 0.0
C173 C 0.29935 0.68853 0.1786 0.0
C174 C 0.36701 0.75685 0.01901 0.0
C175 C 0.32563 0.71457 0.06192 0.0
C176 C 0.27789 0.60946 0.20144 0.0
C177 C 0.28094 0.63923 0.1515 0.0
H178 H 0.49483 0.79397 -0.02823 0.0
H179 H 0.44273 0.78422 0.07731 0.0
H180 H 0.34204 0.76611 0.15661 0.0
H181 H 0.20194 0.55914 0.34649 0.0
H182 H 0.18885 0.56739 0.22697 0.0
C183 C 0.32185 0.81102 0.40674 0.0
C184 C 0.28142 0.76732 0.443 0.0
C185 C 0.30451 0.83133 0.37152 0.0
C186 C 0.18906 0.83373 0.36233 0.0
H187 H 0.24243 0.87005 0.17411 0.0
C188 C 0.0953 0.8839 0.18277 0.0
C189 C 0.13594 0.92777 0.14685 0.0
C190 C 0.1124 0.86331 0.21775 0.0
C191 C 0.22757 0.86054 0.22688 0.0
H192 H 0.19114 0.71136 0.47154 0.0
H193 H 0.16112 0.74659 0.40997 0.0
H194 H 0.27499 0.83811 0.23956 0.0
H195 H 0.22626 0.98368 0.11855 0.0
H196 H 0.25587 0.94791 0.17961 0.0
H197 H 0.14166 0.85618 0.34966 0.0
C198 C 0.20632 0.76546 0.40925 0.0
C199 C 0.24633 0.84237 0.26444 0.0
C200 C 0.22356 0.74509 0.44428 0.0
C201 C 0.19371 0.94981 0.14554 0.0
C202 C 0.2107 0.92914 0.18029 0.0
C203 C 0.17029 0.85191 0.32477 0.0
C204 C 0.24644 0.80852 0.37197 0.0
C205 C 0.22731 0.82876 0.33261 0.0
C206 C 0.17042 0.88598 0.21735 0.0
C207 C 0.18936 0.86555 0.25662 0.0
H208 H 0.36675 0.82914 0.40463 0.0
H209 H 0.33664 0.86499 0.344 0.0
H210 H 0.17421 0.82423 0.41512 0.0
H211 H 0.05049 0.86597 0.18501 0.0
H212 H 0.08016 0.8296 0.24514 0.0
C213 C 0.30171 0.52589 0.45395 0.0
C214 C 0.28839 0.51654 0.52467 0.0
C215 C 0.28101 0.48449 0.39966 0.0
C216 C 0.22942 0.3519 0.36621 0.0
H217 H 0.16973 0.34291 0.18575 0.0
C218 C 0.11952 0.17284 0.14569 0.0
C219 C 0.13135 0.18259 0.07493 0.0
C220 C 0.13901 0.21358 0.20057 0.0
C221 C 0.18698 0.34525 0.23548 0.0
H222 H 0.24332 0.4562 0.59389 0.0
H223 H 0.20719 0.38354 0.49869 0.0
H224 H 0.20113 0.41296 0.28219 0.0
H225 H 0.17325 0.2431 0.00647 0.0
H226 H 0.20791 0.31459 0.1026 0.0
H227 H 0.21572 0.28448 0.31943 0.0
C228 C 0.23376 0.42317 0.4855 0.0
C229 C 0.20479 0.38528 0.29081 0.0
C230 C 0.25428 0.46472 0.53996 0.0
C231 C 0.16331 0.23422 0.06035 0.0
C232 C 0.18291 0.27511 0.11541 0.0
C233 C 0.21177 0.31195 0.3108 0.0
C234 C 0.24691 0.43267 0.41475 0.0
C235 C 0.2263 0.38911 0.35675 0.0
C236 C 0.1708 0.26519 0.18615 0.0
C237 C 0.19037 0.30817 0.24475 0.0
H238 H 0.32938 0.56552 0.44053 0.0
H239 H 0.29293 0.49335 0.34599 0.0
H240 H 0.24666 0.35431 0.416 0.0
H241 H 0.09399 0.13338 0.15878 0.0
H242 H 0.12797 0.20429 0.25419 0.0
C243 C 0.6124 0.82088 0.53256 0.0
C244 C 0.55173 0.78469 0.51736 0.0
C245 C 0.65068 0.83911 0.4779 0.0
C246 C 0.65393 0.79784 0.29116 0.0
H247 H 0.80686 0.94062 0.30445 0.0
C248 C 0.80729 0.87806 0.05976 0.0
C249 C 0.86786 0.91396 0.07555 0.0
C250 C 0.76862 0.85954 0.11404 0.0
C251 C 0.76465 0.90036 0.3005 0.0
H252 H 0.48396 0.74174 0.43272 0.0
H253 H 0.55113 0.77426 0.33696 0.0
H254 H 0.73879 0.91815 0.39626 0.0
H255 H 0.93503 0.95603 0.16075 0.0
H256 H 0.86721 0.9231 0.25579 0.0
H257 H 0.67979 0.7801 0.19531 0.0
C258 C 0.56886 0.78774 0.39138 0.0
C259 C 0.72551 0.88758 0.35288 0.0
C260 C 0.53043 0.76958 0.44626 0.0
C261 C 0.88865 0.92842 0.14677 0.0
C262 C 0.84986 0.91003 0.20123 0.0
C263 C 0.69306 0.81064 0.23873 0.0
C264 C 0.62929 0.82161 0.40662 0.0
C265 C 0.66972 0.83615 0.3489 0.0
C266 C 0.78956 0.87654 0.18545 0.0
C267 C 0.7489 0.86203 0.24284 0.0
H268 H 0.63034 0.83356 0.58678 0.0
H269 H 0.69688 0.86493 0.49157 0.0
H270 H 0.61173 0.75758 0.28722 0.0
H271 H 0.78975 0.86588 0.00543 0.0
H272 H 0.72252 0.834 0.1 0.0
C273 C 0.86011 0.28304 0.47923 0.0
C274 C 0.8021 0.26048 0.47899 0.0
C275 C 0.87664 0.26165 0.51302 0.0
C276 C 0.83237 0.17847 0.6515 0.0
H277 H 0.94375 0.17257 0.56907 0.0
C278 C 0.88684 0.07062 0.7648 0.0
C279 C 0.9456 0.09516 0.76766 0.0
C280 C 0.86955 0.09117 0.73033 0.0
C281 C 0.91313 0.17453 0.59317 0.0
H282 H 0.71573 0.19688 0.51327 0.0
H283 H 0.7445 0.15903 0.57143 0.0
H284 H 0.9115 0.2054 0.50528 0.0
H285 H 1.03236 0.16116 0.73697 0.0
H286 H 1.00206 0.19716 0.67701 0.0
H287 H 0.83387 0.14734 0.73925 0.0
C288 C 0.77737 0.19387 0.54627 0.0
C289 C 0.89456 0.19327 0.55658 0.0
C290 C 0.76079 0.21534 0.51245 0.0
C291 C 0.98676 0.14119 0.73579 0.0
C292 C 0.96935 0.16164 0.701 0.0
C293 C 0.85082 0.15957 0.68799 0.0
C294 C 0.83562 0.21703 0.54738 0.0
C295 C 0.85406 0.1956 0.58537 0.0
C296 C 0.91049 0.1367 0.69763 0.0
C297 C 0.89149 0.15747 0.6593 0.0
H298 H 0.89328 0.31793 0.45429 0.0
H299 H 0.92201 0.28096 0.51365 0.0
H300 H 0.80193 0.18058 0.67581 0.0
H301 H 0.85384 0.03509 0.78864 0.0
H302 H 0.82378 0.07066 0.72801 0.0
C303 C 0.79721 0.55555 0.39036 0.0
C304 C 0.80422 0.52068 0.39789 0.0
C305 C 0.81686 0.59667 0.44505 0.0
C306 C 0.8571 0.63617 0.63868 0.0
H307 H 0.9192 0.77222 0.6012 0.0
C308 C 0.96584 0.81732 0.85704 0.0
C309 C 0.94895 0.84544 0.85541 0.0
C310 C 0.94818 0.77757 0.80125 0.0
C311 C 0.90153 0.73423 0.61231 0.0
H312 H 0.84104 0.50397 0.46591 0.0
H313 H 0.87623 0.57576 0.56064 0.0
H314 H 0.89111 0.70472 0.50206 0.0
H315 H 0.89593 0.85061 0.79812 0.0
H316 H 0.8672 0.78299 0.69885 0.0
H317 H 0.86855 0.66621 0.749 0.0
C318 C 0.85359 0.57039 0.51395 0.0
C319 C 0.88529 0.6955 0.5556 0.0
C320 C 0.8334 0.52909 0.45966 0.0
C321 C 0.91221 0.83169 0.79864 0.0
C322 C 0.89519 0.79251 0.74236 0.0
C323 C 0.8739 0.67506 0.69528 0.0
C324 C 0.84461 0.60414 0.50802 0.0
C325 C 0.86276 0.6459 0.56806 0.0
C326 C 0.91345 0.7654 0.74283 0.0
C327 C 0.89609 0.72437 0.68267 0.0
H328 H 0.77467 0.5499 0.3433 0.0
H329 H 0.80867 0.62152 0.43877 0.0
H330 H 0.83877 0.59812 0.65042 0.0
H331 H 0.99405 0.82711 0.9005 0.0
H332 H 0.96289 0.75726 0.80294 0.0
C333 C 0.47497 0.21395 0.39525 0.0
C334 C 0.53553 0.2503 0.41148 0.0
C335 C 0.43599 0.19546 0.44914 0.0
C336 C 0.43073 0.23577 0.6358 0.0
H337 H 0.27726 0.09321 0.61972 0.0
C338 C 0.2774 0.15356 0.8664 0.0
C339 C 0.21674 0.11724 0.85108 0.0
C340 C 0.31585 0.17275 0.8119 0.0
C341 C 0.31961 0.13342 0.62446 0.0
H342 H 0.60239 0.29315 0.49721 0.0
H343 H 0.53397 0.26003 0.59174 0.0
H344 H 0.34604 0.11629 0.52871 0.0
H345 H 0.14924 0.07502 0.76643 0.0
H346 H 0.21668 0.10958 0.67095 0.0
H347 H 0.40435 0.25284 0.73171 0.0
C348 C 0.51687 0.24673 0.53705 0.0
C349 C 0.35918 0.14657 0.5725 0.0
C350 C 0.55603 0.26523 0.48291 0.0
C351 C 0.19562 0.10306 0.78009 0.0
C352 C 0.23422 0.12227 0.72534 0.0
C353 C 0.39119 0.22262 0.6878 0.0
C354 C 0.45652 0.21276 0.52074 0.0
C355 C 0.41528 0.19788 0.57762 0.0
C356 C 0.29464 0.15611 0.74061 0.0
C357 C 0.33524 0.17125 0.68289 0.0
H358 H 0.45759 0.20135 0.34076 0.0
H359 H 0.38993 0.16961 0.43456 0.0
H360 H 0.47305 0.27599 0.64057 0.0
H361 H 0.2952 0.16551 0.92056 0.0
H362 H 0.36203 0.19851 0.82562 0.0
C363 C 0.65347 0.4758 0.0723 0.0
C364 C 0.61108 0.42744 0.09884 0.0
C365 C 0.6372 0.49784 0.03947 0.0
C366 C 0.51068 0.46237 0.9499 0.0
H367 H 0.60295 0.61364 -0.01214 0.0
C368 C 0.43403 0.55779 0.85392 0.0
C369 C 0.47637 0.6063 0.82773 0.0
C370 C 0.45039 0.53575 0.88654 0.0
C371 C 0.57707 0.5714 -0.02394 0.0
H372 H 0.5182 0.36468 0.11202 0.0
H373 H 0.49014 0.40337 0.05548 0.0
H374 H 0.63195 0.57601 0.0459 0.0
H375 H 0.56924 0.66934 0.81488 0.0
H376 H 0.59748 0.63064 0.87099 0.0
H377 H 0.45581 0.45774 0.88005 0.0
C378 C 0.53588 0.42389 0.0592 0.0
C379 C 0.59371 0.54984 0.00933 0.0
C380 C 0.5521 0.40188 0.09207 0.0
C381 C 0.53539 0.63201 0.83458 0.0
C382 C 0.55171 0.61 0.86721 0.0
C383 C 0.49405 0.48393 0.9166 0.0
C384 C 0.57818 0.47203 0.0323 0.0
C385 C 0.56069 0.49506 -0.00331 0.0
C386 C 0.50946 0.56171 0.89381 0.0
C387 C 0.52705 0.5387 0.92927 0.0
H388 H 0.69927 0.49656 0.07639 0.0
H389 H 0.67082 0.53471 0.01863 0.0
H390 H 0.48478 0.42012 0.93813 0.0
H391 H 0.3882 0.53692 0.84978 0.0
H392 H 0.41681 0.49879 0.90717 0.0
C393 C 0.51097 0.87115 0.78944 0.0
C394 C 0.47301 0.85619 0.73344 0.0
C395 C 0.5287 0.91109 0.84488 0.0
C396 C 0.54083 0.02477 0.89426 0.0
H397 H 0.5418 1.00094 0.08649 0.0
C398 C 0.5727 0.16195 0.13923 0.0
C399 C 0.61151 0.17722 0.19429 0.0
C400 C 0.55464 0.12202 0.08353 0.0
C401 C 0.54229 1.00843 0.03312 0.0
H402 H 0.42585 0.87269 0.68917 0.0
H403 H 0.45693 0.94285 0.78592 0.0
H404 H 0.51445 0.9343 -0.0133 0.0
H405 H 0.65979 0.16128 0.23673 0.0
H406 H 0.62794 0.09102 0.13973 0.0
H407 H 0.56861 0.0989 0.94079 0.0
C408 C 0.473 0.92368 0.7873 0.0
C409 C 0.52672 0.97028 -0.0241 0.0
C410 C 0.4552 0.88358 0.73192 0.0
C411 C 0.62979 0.15015 0.19471 0.0
C412 C 0.61157 0.11001 0.13919 0.0
C413 C 0.55635 0.0629 0.95151 0.0
C414 C 0.50922 0.9373 0.84505 0.0
C415 C 0.52592 0.97804 0.90576 0.0
C416 C 0.57452 0.09608 0.08235 0.0
C417 C 0.5573 0.05519 0.02161 0.0
H418 H 0.52747 0.8524 0.79007 0.0
H419 H 0.5579 0.92158 0.8875 0.0
H420 H 0.54142 0.03231 0.8409 0.0
H421 H 0.55579 0.18041 0.13956 0.0
H422 H 0.52487 0.11129 0.04154 0.0
C423 C 0.22678 0.60372 0.8197 0.0
C424 C 0.20604 0.58503 0.74817 0.0
C425 C 0.18743 0.58461 0.8736 0.0
C426 C 1.03133 0.47799 0.91043 0.0
H427 H 0.06599 0.5863 0.05786 0.0
C428 C 0.8602 0.42972 0.10749 0.0
C429 C 0.88077 0.44782 0.17908 0.0
C430 C 0.8997 0.44916 0.05374 0.0
C431 C 0.05582 0.55554 0.01729 0.0
H432 H 0.12826 0.52915 0.67703 0.0
H433 H 0.06006 0.49592 0.77057 0.0
H434 H 0.13691 0.61066 -0.03059 0.0
H435 H 0.95838 0.50306 0.25056 0.0
H436 H 1.02686 0.53688 0.15723 0.0
H437 H 0.95023 0.4229 0.95827 0.0
C438 C 0.10639 0.52521 0.78544 0.0
C439 C 0.09663 0.56942 -0.03311 0.0
C440 C 0.14555 0.54444 0.73175 0.0
C441 C 0.94124 0.48821 0.19578 0.0
C442 C 0.98055 0.50777 0.14224 0.0
C443 C 0.99051 0.46413 0.96079 0.0
C444 C 0.1268 0.54625 0.85689 0.0
C445 C 0.08484 0.53081 0.91284 0.0
C446 C 0.96028 0.48724 0.07069 0.0
C447 C 1.0023 0.50274 0.01482 0.0
H448 H 0.27308 0.63528 0.83395 0.0
H449 H 0.2043 0.60098 0.92827 0.0
H450 H 1.02116 0.44721 0.86993 0.0
H451 H 0.8139 0.39834 0.09303 0.0
H452 H 0.88299 0.43324 -0.00103 0.0
loop_
_geom_bond_atom_site_label_1
_geom_bond_atom_site_label_2
_geom_bond_distance
_geom_bond_site_symmetry_2
_ccdc_geom_bond_type
C0 O12 1.241 . S
C0 O13 1.280 . S
C1 O14 1.277 1_445 S
C1 O15 1.245 . S
C2 O26 1.247 1_554 S
C2 O28 1.289 . S
Mg3 O4 1.926 1_545 S
Mg3 O13 1.984 1_545 S
Mg3 O15 1.988 . S
Mg3 O16 2.061 . S
O4 Mg3 1.926 1_565 S
O4 Mg5 1.986 1_455 S
O4 Mg6 1.917 1_565 S
Mg5 O4 1.986 1_655 S
Mg5 O12 2.042 1_655 S
Mg5 O14 2.041 . S
Mg5 O20 2.038 . S
Mg5 O28 2.238 . S
Mg6 O4 1.917 1_545 S
Mg6 O7 1.917 1_454 S
Mg6 O17 2.106 1_554 S
Mg6 O19 2.079 1_444 S
Mg6 O28 2.106 1_445 S
Mg6 O29 2.079 . S
O7 Mg6 1.917 1_656 S
O7 Mg8 1.926 1_545 S
O7 Mg9 1.986 1_655 S
Mg8 O7 1.926 1_565 S
Mg8 O22 1.984 1_565 S
Mg8 O25 1.988 . S
Mg8 O26 2.061 . S
Mg9 O7 1.986 1_455 S
Mg9 O17 2.238 . S
Mg9 O21 2.042 1_455 S
Mg9 O23 2.041 . S
Mg9 O30 2.038 . S
C10 O16 1.247 1_556 S
C10 O17 1.289 . S
C11 O29 1.245 . S
C11 O30 1.274 1_554 S
O12 C0 1.241 . S
O12 Mg5 2.042 1_455 S
O13 C0 1.280 . S
O13 Mg3 1.984 1_565 S
O14 C1 1.277 1_665 S
O14 Mg5 2.041 . S
O15 C1 1.245 . S
O15 Mg3 1.988 . S
O16 Mg3 2.061 . S
O16 C10 1.247 1_554 S
O17 Mg6 2.106 1_556 S
O17 Mg9 2.238 . S
O17 C10 1.289 . S
C18 O19 1.245 . S
C18 O20 1.274 1_556 S
O19 Mg6 2.079 1_666 S
O19 C18 1.245 . S
O20 Mg5 2.038 . S
O20 C18 1.274 1_554 S
O21 Mg9 2.042 1_655 S
O21 C24 1.241 . S
O22 Mg8 1.984 1_545 S
O22 C24 1.280 . S
O23 Mg9 2.041 . S
O23 C27 1.277 1_445 S
C24 O21 1.241 . S
C24 O22 1.280 . S
O25 Mg8 1.988 . S
O25 C27 1.245 . S
O26 C2 1.247 1_556 S
O26 Mg8 2.061 . S
C27 O23 1.277 1_665 S
C27 O25 1.245 . S
O28 C2 1.289 . S
O28 Mg5 2.238 . S
O28 Mg6 2.106 1_665 S
O29 Mg6 2.079 . S
O29 C11 1.245 . S
O30 Mg9 2.038 . S
O30 C11 1.274 1_556 S
C31 O43 1.241 . S
C31 O44 1.280 . S
C32 O45 1.277 . S
C32 O46 1.245 . S
C33 O57 1.247 . S
C33 O59 1.289 . S
Mg34 O35 1.926 . S
Mg34 O44 1.984 . S
Mg34 O46 1.988 . S
Mg34 O47 2.061 . S
O35 Mg34 1.926 . S
O35 Mg36 1.986 . S
O35 Mg37 1.917 . S
Mg36 O35 1.986 . S
Mg36 O43 2.042 . S
Mg36 O45 2.041 . S
Mg36 O51 2.038 . S
Mg36 O59 2.238 . S
Mg37 O35 1.917 . S
Mg37 O38 1.917 . S
Mg37 O48 2.106 . S
Mg37 O50 2.079 . S
Mg37 O59 2.106 . S
Mg37 O60 2.079 . S
O38 Mg37 1.917 . S
O38 Mg39 1.926 . S
O38 Mg40 1.986 . S
Mg39 O38 1.926 . S
Mg39 O53 1.984 . S
Mg39 O56 1.988 . S
Mg39 O57 2.061 . S
Mg40 O38 1.986 . S
Mg40 O48 2.238 . S
Mg40 O52 2.042 . S
Mg40 O54 2.041 . S
Mg40 O61 2.038 . S
C41 O47 1.247 . S
C41 O48 1.289 . S
C42 O60 1.245 . S
C42 O61 1.274 . S
O43 C31 1.241 . S
O43 Mg36 2.042 . S
O44 C31 1.280 . S
O44 Mg34 1.984 . S
O45 C32 1.277 . S
O45 Mg36 2.041 . S
O46 C32 1.245 . S
O46 Mg34 1.988 . S
O47 Mg34 2.061 . S
O47 C41 1.247 . S
O48 Mg37 2.106 . S
O48 Mg40 2.238 . S
O48 C41 1.289 . S
C49 O50 1.245 . S
C49 O51 1.274 . S
O50 Mg37 2.079 . S
O50 C49 1.245 . S
O51 Mg36 2.038 . S
O51 C49 1.274 . S
O52 Mg40 2.042 . S
O52 C55 1.241 . S
O53 Mg39 1.984 . S
O53 C55 1.280 . S
O54 Mg40 2.041 . S
O54 C58 1.277 . S
C55 O52 1.241 . S
C55 O53 1.280 . S
O56 Mg39 1.988 . S
O56 C58 1.245 . S
O57 C33 1.247 . S
O57 Mg39 2.061 . S
C58 O54 1.277 . S
C58 O56 1.245 . S
O59 C33 1.289 . S
O59 Mg36 2.238 . S
O59 Mg37 2.106 . S
O60 Mg37 2.079 . S
O60 C42 1.245 . S
O61 Mg40 2.038 . S
O61 C42 1.274 . S
C62 O74 1.241 . S
C62 O75 1.280 . S
C63 O76 1.277 . S
C63 O77 1.245 . S
C64 O88 1.247 . S
C64 O90 1.289 . S
Mg65 O66 1.926 . S
Mg65 O75 1.984 . S
Mg65 O77 1.988 . S
Mg65 O78 2.061 . S
O66 Mg65 1.926 . S
O66 Mg67 1.986 . S
O66 Mg68 1.917 . S
Mg67 O66 1.986 . S
Mg67 O74 2.042 . S
Mg67 O76 2.041 . S
Mg67 O82 2.038 . S
Mg67 O90 2.238 . S
Mg68 O66 1.917 . S
Mg68 O69 1.917 . S
Mg68 O79 2.106 . S
Mg68 O81 2.079 . S
Mg68 O90 2.106 . S
Mg68 O91 2.079 . S
O69 Mg68 1.917 . S
O69 Mg70 1.926 . S
O69 Mg71 1.986 . S
Mg70 O69 1.926 . S
Mg70 O84 1.984 . S
Mg70 O87 1.988 . S
Mg70 O88 2.061 . S
Mg71 O69 1.986 . S
Mg71 O79 2.238 . S
Mg71 O83 2.042 . S
Mg71 O85 2.041 . S
Mg71 O92 2.038 . S
C72 O78 1.247 . S
C72 O79 1.289 . S
C73 O91 1.245 . S
C73 O92 1.274 . S
O74 C62 1.241 . S
O74 Mg67 2.042 . S
O75 C62 1.280 . S
O75 Mg65 1.984 . S
O76 C63 1.277 . S
O76 Mg67 2.041 . S
O77 C63 1.245 . S
O77 Mg65 1.988 . S
O78 Mg65 2.061 . S
O78 C72 1.247 . S
O79 Mg68 2.106 . S
O79 Mg71 2.238 . S
O79 C72 1.289 . S
C80 O81 1.245 . S
C80 O82 1.274 . S
O81 Mg68 2.079 . S
O81 C80 1.245 . S
O82 Mg67 2.038 . S
O82 C80 1.274 . S
O83 Mg71 2.042 . S
O83 C86 1.241 . S
O84 Mg70 1.984 . S
O84 C86 1.280 . S
O85 Mg71 2.041 . S
O85 C89 1.277 . S
C86 O83 1.241 . S
C86 O84 1.280 . S
O87 Mg70 1.988 . S
O87 C89 1.245 . S
O88 C64 1.247 . S
O88 Mg70 2.061 . S
C89 O85 1.277 . S
C89 O87 1.245 . S
O90 C64 1.289 . S
O90 Mg67 2.238 . S
O90 Mg68 2.106 . S
O91 Mg68 2.079 . S
O91 C73 1.245 . S
O92 Mg71 2.038 . S
O92 C73 1.274 . S
C93 C94 1.349 1_445 S
C93 C95 1.327 . S
C93 H118 0.950 . S
C94 C93 1.349 1_665 S
C94 C110 1.349 . S
C95 C93 1.327 . S
C95 C114 1.429 1_445 S
C95 H119 0.950 . S
C96 C113 1.574 . S
C96 C115 1.368 . S
C96 H120 0.949 . S
H97 C101 0.949 . S
C98 C99 1.349 1_665 S
C98 C100 1.327 . S
C98 H121 0.950 . S
C99 C98 1.349 1_445 S
C99 C111 1.349 . S
C100 C98 1.327 . S
C100 C116 1.429 1_665 S
C100 H122 0.950 . S
C101 H97 0.949 . S
C101 C109 1.574 . S
C101 C117 1.368 . S
H102 C110 0.950 . S
H103 C108 0.950 . S
H104 C109 0.949 . S
H105 C111 0.950 . S
H106 C112 0.950 . S
H107 C113 0.949 . S
C108 H103 0.950 . S
C108 C110 1.327 . S
C108 C114 1.429 . S
C109 C101 1.574 . S
C109 H104 0.949 . S
C109 C115 1.368 1_445 S
C110 C94 1.349 . S
C110 H102 0.950 . S
C110 C108 1.327 . S
C111 C99 1.349 . S
C111 H105 0.950 . S
C111 C112 1.327 . S
C112 H106 0.950 . S
C112 C111 1.327 . S
C112 C116 1.429 . S
C113 C96 1.574 . S
C113 H107 0.949 . S
C113 C117 1.368 1_665 S
C114 C95 1.429 1_665 S
C114 C108 1.429 . S
C114 C115 1.523 . S
C115 C96 1.368 . S
C115 C109 1.368 1_665 S
C115 C114 1.523 . S
C116 C100 1.429 1_445 S
C116 C112 1.429 . S
C116 C117 1.523 . S
C117 C101 1.368 . S
C117 C113 1.368 1_445 S
C117 C116 1.523 . S
H118 C93 0.950 . S
H119 C95 0.950 . S
H120 C96 0.949 . S
H121 C98 0.950 . S
H122 C100 0.950 . S
C123 C124 1.349 . S
C123 C125 1.327 . S
C123 H148 0.950 . S
C124 C123 1.349 . S
C124 C140 1.349 . S
C125 C123 1.327 . S
C125 C144 1.429 . S
C125 H149 0.950 . S
C126 C143 1.574 . S
C126 C145 1.368 . S
C126 H150 0.949 . S
H127 C131 0.949 . S
C128 C129 1.349 . S
C128 C130 1.327 . S
C128 H151 0.950 . S
C129 C128 1.349 . S
C129 C141 1.349 . S
C130 C128 1.327 . S
C130 C146 1.429 1_554 S
C130 H152 0.950 . S
C131 H127 0.949 . S
C131 C139 1.574 . S
C131 C147 1.368 . S
H132 C140 0.950 . S
H133 C138 0.950 . S
H134 C139 0.949 . S
H135 C141 0.950 . S
H136 C142 0.950 . S
H137 C143 0.949 . S
C138 H133 0.950 . S
C138 C140 1.327 . S
C138 C144 1.429 . S
C139 C131 1.574 . S
C139 H134 0.949 . S
C139 C145 1.368 . S
C140 C124 1.349 . S
C140 H132 0.950 . S
C140 C138 1.327 . S
C141 C129 1.349 . S
C141 H135 0.950 . S
C141 C142 1.327 . S
C142 H136 0.950 . S
C142 C141 1.327 . S
C142 C146 1.429 1_554 S
C143 C126 1.574 . S
C143 H137 0.949 . S
C143 C147 1.368 . S
C144 C125 1.429 . S
C144 C138 1.429 . S
C144 C145 1.523 . S
C145 C126 1.368 . S
C145 C139 1.368 . S
C145 C144 1.523 . S
C146 C130 1.429 1_556 S
C146 C142 1.429 1_556 S
C146 C147 1.523 . S
C147 C131 1.368 . S
C147 C143 1.368 . S
C147 C146 1.523 . S
H148 C123 0.950 . S
H149 C125 0.950 . S
H150 C126 0.949 . S
H151 C128 0.950 . S
H152 C130 0.950 . S
C153 C154 1.349 . S
C153 C155 1.327 . S
C153 H178 0.950 . S
C154 C153 1.349 . S
C154 C170 1.349 . S
C155 C153 1.327 . S
C155 C174 1.429 1_556 S
C155 H179 0.950 . S
C156 C173 1.574 . S
C156 C175 1.368 . S
C156 H180 0.949 . S
H157 C161 0.949 . S
C158 C159 1.349 . S
C158 C160 1.327 . S
C158 H181 0.950 . S
C159 C158 1.349 . S
C159 C171 1.349 . S
C160 C158 1.327 . S
C160 C176 1.429 . S
C160 H182 0.950 . S
C161 H157 0.949 . S
C161 C169 1.574 . S
C161 C177 1.368 . S
H162 C170 0.950 . S
H163 C168 0.950 . S
H164 C169 0.949 . S
H165 C171 0.950 . S
H166 C172 0.950 . S
H167 C173 0.949 . S
C168 H163 0.950 . S
C168 C170 1.327 . S
C168 C174 1.429 1_556 S
C169 C161 1.574 . S
C169 H164 0.949 . S
C169 C175 1.368 . S
C170 C154 1.349 . S
C170 H162 0.950 . S
C170 C168 1.327 . S
C171 C159 1.349 . S
C171 H165 0.950 . S
C171 C172 1.327 . S
C172 H166 0.950 . S
C172 C171 1.327 . S
C172 C176 1.429 . S
C173 C156 1.574 . S
C173 H167 0.949 . S
C173 C177 1.368 . S
C174 C155 1.429 1_554 S
C174 C168 1.429 1_554 S
C174 C175 1.523 . S
C175 C156 1.368 . S
C175 C169 1.368 . S
C175 C174 1.523 . S
C176 C160 1.429 . S
C176 C172 1.429 . S
C176 C177 1.523 . S
C177 C161 1.368 . S
C177 C173 1.368 . S
C177 C176 1.523 . S
H178 C153 0.950 . S
H179 C155 0.950 . S
H180 C156 0.949 . S
H181 C158 0.950 . S
H182 C160 0.950 . S
C183 C184 1.349 . S
C183 C185 1.327 . S
C183 H208 0.950 . S
C184 C183 1.349 . S
C184 C200 1.349 . S
C185 C183 1.327 . S
C185 C204 1.429 . S
C185 H209 0.950 . S
C186 C203 1.574 . S
C186 C205 1.368 . S
C186 H210 0.949 . S
H187 C191 0.949 . S
C188 C189 1.349 . S
C188 C190 1.327 . S
C188 H211 0.950 . S
C189 C188 1.349 . S
C189 C201 1.349 . S
C190 C188 1.327 . S
C190 C206 1.429 . S
C190 H212 0.950 . S
C191 H187 0.949 . S
C191 C199 1.574 . S
C191 C207 1.368 . S
H192 C200 0.950 . S
H193 C198 0.950 . S
H194 C199 0.949 . S
H195 C201 0.950 . S
H196 C202 0.950 . S
H197 C203 0.949 . S
C198 H193 0.950 . S
C198 C200 1.327 . S
C198 C204 1.429 . S
C199 C191 1.574 . S
C199 H194 0.949 . S
C199 C205 1.368 . S
C200 C184 1.349 . S
C200 H192 0.950 . S
C200 C198 1.327 . S
C201 C189 1.349 . S
C201 H195 0.950 . S
C201 C202 1.327 . S
C202 H196 0.950 . S
C202 C201 1.327 . S
C202 C206 1.429 . S
C203 C186 1.574 . S
C203 H197 0.949 . S
C203 C207 1.368 . S
C204 C185 1.429 . S
C204 C198 1.429 . S
C204 C205 1.523 . S
C205 C186 1.368 . S
C205 C199 1.368 . S
C205 C204 1.523 . S
C206 C190 1.429 . S
C206 C202 1.429 . S
C206 C207 1.523 . S
C207 C191 1.368 . S
C207 C203 1.368 . S
C207 C206 1.523 . S
H208 C183 0.950 . S
H209 C185 0.950 . S
H210 C186 0.949 . S
H211 C188 0.950 . S
H212 C190 0.950 . S
C213 C214 1.349 . S
C213 C215 1.327 . S
C213 H238 0.950 . S
C214 C213 1.349 . S
C214 C230 1.349 . S
C215 C213 1.327 . S
C215 C234 1.429 . S
C215 H239 0.950 . S
C216 C233 1.574 . S
C216 C235 1.368 . S
C216 H240 0.949 . S
H217 C221 0.949 . S
C218 C219 1.349 . S
C218 C220 1.327 . S
C218 H241 0.950 . S
C219 C218 1.349 . S
C219 C231 1.349 . S
C220 C218 1.327 . S
C220 C236 1.429 . S
C220 H242 0.950 . S
C221 H217 0.949 . S
C221 C229 1.574 . S
C221 C237 1.368 . S
H222 C230 0.950 . S
H223 C228 0.950 . S
H224 C229 0.949 . S
H225 C231 0.950 . S
H226 C232 0.950 . S
H227 C233 0.949 . S
C228 H223 0.950 . S
C228 C230 1.327 . S
C228 C234 1.429 . S
C229 C221 1.574 . S
C229 H224 0.949 . S
C229 C235 1.368 . S
C230 C214 1.349 . S
C230 H222 0.950 . S
C230 C228 1.327 . S
C231 C219 1.349 . S
C231 H225 0.950 . S
C231 C232 1.327 . S
C232 H226 0.950 . S
C232 C231 1.327 . S
C232 C236 1.429 . S
C233 C216 1.574 . S
C233 H227 0.949 . S
C233 C237 1.368 . S
C234 C215 1.429 . S
C234 C228 1.429 . S
C234 C235 1.523 . S
C235 C216 1.368 . S
C235 C229 1.368 . S
C235 C234 1.523 . S
C236 C220 1.429 . S
C236 C232 1.429 . S
C236 C237 1.523 . S
C237 C221 1.368 . S
C237 C233 1.368 . S
C237 C236 1.523 . S
H238 C213 0.950 . S
H239 C215 0.950 . S
H240 C216 0.949 . S
H241 C218 0.950 . S
H242 C220 0.950 . S
C243 C244 1.349 . S
C243 C245 1.327 . S
C243 H268 0.950 . S
C244 C243 1.349 . S
C244 C260 1.349 . S
C245 C243 1.327 . S
C245 C264 1.429 . S
C245 H269 0.950 . S
C246 C263 1.574 . S
C246 C265 1.368 . S
C246 H270 0.949 . S
H247 C251 0.949 . S
C248 C249 1.349 . S
C248 C250 1.327 . S
C248 H271 0.950 . S
C249 C248 1.349 . S
C249 C261 1.349 . S
C250 C248 1.327 . S
C250 C266 1.429 . S
C250 H272 0.950 . S
C251 H247 0.949 . S
C251 C259 1.574 . S
C251 C267 1.368 . S
H252 C260 0.950 . S
H253 C258 0.950 . S
H254 C259 0.949 . S
H255 C261 0.950 . S
H256 C262 0.950 . S
H257 C263 0.949 . S
C258 H253 0.950 . S
C258 C260 1.327 . S
C258 C264 1.429 . S
C259 C251 1.574 . S
C259 H254 0.949 . S
C259 C265 1.368 . S
C260 C244 1.349 . S
C260 H252 0.950 . S
C260 C258 1.327 . S
C261 C249 1.349 . S
C261 H255 0.950 . S
C261 C262 1.327 . S
C262 H256 0.950 . S
C262 C261 1.327 . S
C262 C266 1.429 . S
C263 C246 1.574 . S
C263 H257 0.949 . S
C263 C267 1.368 . S
C264 C245 1.429 . S
C264 C258 1.429 . S
C264 C265 1.523 . S
C265 C246 1.368 . S
C265 C259 1.368 . S
C265 C264 1.523 . S
C266 C250 1.429 . S
C266 C262 1.429 . S
C266 C267 1.523 . S
C267 C251 1.368 . S
C267 C263 1.368 . S
C267 C266 1.523 . S
H268 C243 0.950 . S
H269 C245 0.950 . S
H270 C246 0.949 . S
H271 C248 0.950 . S
H272 C250 0.950 . S
C273 C274 1.349 . S
C273 C275 1.327 . S
C273 H298 0.950 . S
C274 C273 1.349 . S
C274 C290 1.349 . S
C275 C273 1.327 . S
C275 C294 1.429 . S
C275 H299 0.950 . S
C276 C293 1.574 . S
C276 C295 1.368 . S
C276 H300 0.949 . S
H277 C281 0.949 . S
C278 C279 1.349 . S
C278 C280 1.327 . S
C278 H301 0.950 . S
C279 C278 1.349 . S
C279 C291 1.349 . S
C280 C278 1.327 . S
C280 C296 1.429 . S
C280 H302 0.950 . S
C281 H277 0.949 . S
C281 C289 1.574 . S
C281 C297 1.368 . S
H282 C290 0.950 . S
H283 C288 0.950 . S
H284 C289 0.949 . S
H285 C291 0.950 . S
H286 C292 0.950 . S
H287 C293 0.949 . S
C288 H283 0.950 . S
C288 C290 1.327 . S
C288 C294 1.429 . S
C289 C281 1.574 . S
C289 H284 0.949 . S
C289 C295 1.368 . S
C290 C274 1.349 . S
C290 H282 0.950 . S
C290 C288 1.327 . S
C291 C279 1.349 . S
C291 H285 0.950 . S
C291 C292 1.327 . S
C292 H286 0.950 . S
C292 C291 1.327 . S
C292 C296 1.429 . S
C293 C276 1.574 . S
C293 H287 0.949 . S
C293 C297 1.368 . S
C294 C275 1.429 . S
C294 C288 1.429 . S
C294 C295 1.523 . S
C295 C276 1.368 . S
C295 C289 1.368 . S
C295 C294 1.523 . S
C296 C280 1.429 . S
C296 C292 1.429 . S
C296 C297 1.523 . S
C297 C281 1.368 . S
C297 C293 1.368 . S
C297 C296 1.523 . S
H298 C273 0.950 . S
H299 C275 0.950 . S
H300 C276 0.949 . S
H301 C278 0.950 . S
H302 C280 0.950 . S
C303 C304 1.349 . S
C303 C305 1.327 . S
C303 H328 0.950 . S
C304 C303 1.349 . S
C304 C320 1.349 . S
C305 C303 1.327 . S
C305 C324 1.429 . S
C305 H329 0.950 . S
C306 C323 1.574 . S
C306 C325 1.368 . S
C306 H330 0.949 . S
H307 C311 0.949 . S
C308 C309 1.349 . S
C308 C310 1.327 . S
C308 H331 0.950 . S
C309 C308 1.349 . S
C309 C321 1.349 . S
C310 C308 1.327 . S
C310 C326 1.429 . S
C310 H332 0.950 . S
C311 H307 0.949 . S
C311 C319 1.574 . S
C311 C327 1.368 . S
H312 C320 0.950 . S
H313 C318 0.950 . S
H314 C319 0.949 . S
H315 C321 0.950 . S
H316 C322 0.950 . S
H317 C323 0.949 . S
C318 H313 0.950 . S
C318 C320 1.327 . S
C318 C324 1.429 . S
C319 C311 1.574 . S
C319 H314 0.949 . S
C319 C325 1.368 . S
C320 C304 1.349 . S
C320 H312 0.950 . S
C320 C318 1.327 . S
C321 C309 1.349 . S
C321 H315 0.950 . S
C321 C322 1.327 . S
C322 H316 0.950 . S
C322 C321 1.327 . S
C322 C326 1.429 . S
C323 C306 1.574 . S
C323 H317 0.949 . S
C323 C327 1.368 . S
C324 C305 1.429 . S
C324 C318 1.429 . S
C324 C325 1.523 . S
C325 C306 1.368 . S
C325 C319 1.368 . S
C325 C324 1.523 . S
C326 C310 1.429 . S
C326 C322 1.429 . S
C326 C327 1.523 . S
C327 C311 1.368 . S
C327 C323 1.368 . S
C327 C326 1.523 . S
H328 C303 0.950 . S
H329 C305 0.950 . S
H330 C306 0.949 . S
H331 C308 0.950 . S
H332 C310 0.950 . S
C333 C334 1.349 . S
C333 C335 1.327 . S
C333 H358 0.950 . S
C334 C333 1.349 . S
C334 C350 1.349 . S
C335 C333 1.327 . S
C335 C354 1.429 . S
C335 H359 0.950 . S
C336 C353 1.574 . S
C336 C355 1.368 . S
C336 H360 0.949 . S
H337 C341 0.949 . S
C338 C339 1.349 . S
C338 C340 1.327 . S
C338 H361 0.950 . S
C339 C338 1.349 . S
C339 C351 1.349 . S
C340 C338 1.327 . S
C340 C356 1.429 . S
C340 H362 0.950 . S
C341 H337 0.949 . S
C341 C349 1.574 . S
C341 C357 1.368 . S
H342 C350 0.950 . S
H343 C348 0.950 . S
H344 C349 0.949 . S
H345 C351 0.950 . S
H346 C352 0.950 . S
H347 C353 0.949 . S
C348 H343 0.950 . S
C348 C350 1.327 . S
C348 C354 1.429 . S
C349 C341 1.574 . S
C349 H344 0.949 . S
C349 C355 1.368 . S
C350 C334 1.349 . S
C350 H342 0.950 . S
C350 C348 1.327 . S
C351 C339 1.349 . S
C351 H345 0.950 . S
C351 C352 1.327 . S
C352 H346 0.950 . S
C352 C351 1.327 . S
C352 C356 1.429 . S
C353 C336 1.574 . S
C353 H347 0.949 . S
C353 C357 1.368 . S
C354 C335 1.429 . S
C354 C348 1.429 . S
C354 C355 1.523 . S
C355 C336 1.368 . S
C355 C349 1.368 . S
C355 C354 1.523 . S
C356 C340 1.429 . S
C356 C352 1.429 . S
C356 C357 1.523 . S
C357 C341 1.368 . S
C357 C353 1.368 . S
C357 C356 1.523 . S
H358 C333 0.950 . S
H359 C335 0.950 . S
H360 C336 0.949 . S
H361 C338 0.950 . S
H362 C340 0.950 . S
C363 C364 1.349 . S
C363 C365 1.327 . S
C363 H388 0.950 . S
C364 C363 1.349 . S
C364 C380 1.349 . S
C365 C363 1.327 . S
C365 C384 1.429 . S
C365 H389 0.950 . S
C366 C383 1.574 . S
C366 C385 1.368 1_556 S
C366 H390 0.949 . S
H367 C371 0.949 . S
C368 C369 1.349 . S
C368 C370 1.327 . S
C368 H391 0.950 . S
C369 C368 1.349 . S
C369 C381 1.349 . S
C370 C368 1.327 . S
C370 C386 1.429 . S
C370 H392 0.950 . S
C371 H367 0.949 . S
C371 C379 1.574 . S
C371 C387 1.368 1_554 S
H372 C380 0.950 . S
H373 C378 0.950 . S
H374 C379 0.949 . S
H375 C381 0.950 . S
H376 C382 0.950 . S
H377 C383 0.949 . S
C378 H373 0.950 . S
C378 C380 1.327 . S
C378 C384 1.429 . S
C379 C371 1.574 . S
C379 H374 0.949 . S
C379 C385 1.368 . S
C380 C364 1.349 . S
C380 H372 0.950 . S
C380 C378 1.327 . S
C381 C369 1.349 . S
C381 H375 0.950 . S
C381 C382 1.327 . S
C382 H376 0.950 . S
C382 C381 1.327 . S
C382 C386 1.429 . S
C383 C366 1.574 . S
C383 H377 0.949 . S
C383 C387 1.368 . S
C384 C365 1.429 . S
C384 C378 1.429 . S
C384 C385 1.523 . S
C385 C366 1.368 1_554 S
C385 C379 1.368 . S
C385 C384 1.523 . S
C386 C370 1.429 . S
C386 C382 1.429 . S
C386 C387 1.523 . S
C387 C371 1.368 1_556 S
C387 C383 1.368 . S
C387 C386 1.523 . S
H388 C363 0.950 . S
H389 C365 0.950 . S
H390 C366 0.949 . S
H391 C368 0.950 . S
H392 C370 0.950 . S
C393 C394 1.349 . S
C393 C395 1.327 . S
C393 H418 0.950 . S
C394 C393 1.349 . S
C394 C410 1.349 . S
C395 C393 1.327 . S
C395 C414 1.429 . S
C395 H419 0.950 . S
C396 C413 1.574 1_565 S
C396 C415 1.368 . S
C396 H420 0.949 . S
H397 C401 0.949 . S
C398 C399 1.349 . S
C398 C400 1.327 . S
C398 H421 0.950 . S
C399 C398 1.349 . S
C399 C411 1.349 . S
C400 C398 1.327 . S
C400 C416 1.429 . S
C400 H422 0.950 . S
C401 H397 0.949 . S
C401 C409 1.574 1_545 S
C401 C417 1.368 . S
H402 C410 0.950 . S
H403 C408 0.950 . S
H404 C409 0.949 . S
H405 C411 0.950 . S
H406 C412 0.950 . S
H407 C413 0.949 . S
C408 H403 0.950 . S
C408 C410 1.327 . S
C408 C414 1.429 . S
C409 C401 1.574 1_565 S
C409 H404 0.949 . S
C409 C415 1.368 1_554 S
C410 C394 1.349 . S
C410 H402 0.950 . S
C410 C408 1.327 . S
C411 C399 1.349 . S
C411 H405 0.950 . S
C411 C412 1.327 . S
C412 H406 0.950 . S
C412 C411 1.327 . S
C412 C416 1.429 . S
C413 C396 1.574 1_545 S
C413 H407 0.949 . S
C413 C417 1.368 1_556 S
C414 C395 1.429 . S
C414 C408 1.429 . S
C414 C415 1.523 . S
C415 C396 1.368 . S
C415 C409 1.368 1_556 S
C415 C414 1.523 . S
C416 C400 1.429 . S
C416 C412 1.429 . S
C416 C417 1.523 . S
C417 C401 1.368 . S
C417 C413 1.368 1_554 S
C417 C416 1.523 . S
H418 C393 0.950 . S
H419 C395 0.950 . S
H420 C396 0.949 . S
H421 C398 0.950 . S
H422 C400 0.950 . S
C423 C424 1.349 . S
C423 C425 1.327 . S
C423 H448 0.950 . S
C424 C423 1.349 . S
C424 C440 1.349 . S
C425 C423 1.327 . S
C425 C444 1.429 . S
C425 H449 0.950 . S
C426 C443 1.574 1_456 S
C426 C445 1.368 . S
C426 H450 0.949 . S
H427 C431 0.949 . S
C428 C429 1.349 . S
C428 C430 1.327 . S
C428 H451 0.950 . S
C429 C428 1.349 . S
C429 C441 1.349 . S
C430 C428 1.327 . S
C430 C446 1.429 . S
C430 H452 0.950 . S
C431 H427 0.949 . S
C431 C439 1.574 1_654 S
C431 C447 1.368 . S
H432 C440 0.950 . S
H433 C438 0.950 . S
H434 C439 0.949 . S
H435 C441 0.950 . S
H436 C442 0.950 . S
H437 C443 0.949 . S
C438 H433 0.950 . S
C438 C440 1.327 . S
C438 C444 1.429 . S
C439 C431 1.574 1_456 S
C439 H434 0.949 . S
C439 C445 1.368 . S
C440 C424 1.349 . S
C440 H432 0.950 . S
C440 C438 1.327 . S
C441 C429 1.349 . S
C441 H435 0.950 . S
C441 C442 1.327 . S
C442 H436 0.950 . S
C442 C441 1.327 . S
C442 C446 1.429 . S
C443 C426 1.574 1_654 S
C443 H437 0.949 . S
C443 C447 1.368 . S
C444 C425 1.429 . S
C444 C438 1.429 . S
C444 C445 1.523 . S
C445 C426 1.368 . S
C445 C439 1.368 . S
C445 C444 1.523 . S
C446 C430 1.429 . S
C446 C442 1.429 . S
C446 C447 1.523 . S
C447 C431 1.368 . S
C447 C443 1.368 . S
C447 C446 1.523 . S
H448 C423 0.950 . S
H449 C425 0.950 . S
H450 C426 0.949 . S
H451 C428 0.950 . S
H452 C430 0.950 . S
C94 C27 1.041 . S
C99 C1 1.041 . S
C124 C32 1.041 . S
C129 C58 1.041 . S
C154 C63 1.041 . S
C159 C89 1.041 . S
C184 C86 2.162 . S
C189 C0 2.161 . S
C214 C80 2.109 . S
C219 C11 2.106 . S
C244 C72 1.678 . S
C249 C2 1.678 . S
C274 C31 2.162 . S
C279 C24 2.162 . S
C304 C42 2.109 . S
C309 C18 2.111 . S
C334 C33 1.678 . S
C339 C10 1.678 . S
C364 C55 2.162 . S
C369 C62 2.162 . S
C394 C73 2.109 . S
C399 C49 2.109 . S
C424 C64 1.678 . S
C429 C41 1.678 . S
