# Generated by pormake.
# Topology rkf, (6)-cn, num edge types: 1
# Building blocks:
#     Node 0, Type 0, BuildingBlock: CUWYAW_clean_sbu_0, # of connection points: 6
#     Node 1, Type 0, BuildingBlock: CUWYAW_clean_sbu_0, # of connection points: 6
#     Node 2, Type 0, BuildingBlock: CUWYAW_clean_sbu_0, # of connection points: 6
#     Node 3, Type 0, BuildingBlock: CUWYAW_clean_sbu_0, # of connection points: 6
#     Node 4, Type 0, BuildingBlock: CUWYAW_clean_sbu_0, # of connection points: 6
#     Node 5, Type 0, BuildingBlock: CUWYAW_clean_sbu_0, # of connection points: 6
#     Edge 6, Type (0, 0), BuildingBlock: MIFKUJ_clean_linker_0, # of connection points: 2
#     Edge 7, Type (0, 0), BuildingBlock: MIFKUJ_clean_linker_0, # of connection points: 2
#     Edge 8, Type (0, 0), BuildingBlock: MIFKUJ_clean_linker_0, # of connection points: 2
#     Edge 9, Type (0, 0), BuildingBlock: MIFKUJ_clean_linker_0, # of connection points: 2
#     Edge 10, Type (0, 0), BuildingBlock: MIFKUJ_clean_linker_0, # of connection points: 2
#     Edge 11, Type (0, 0), BuildingBlock: MIFKUJ_clean_linker_0, # of connection points: 2
#     Edge 12, Type (0, 0), BuildingBlock: MIFKUJ_clean_linker_0, # of connection points: 2
#     Edge 13, Type (0, 0), BuildingBlock: MIFKUJ_clean_linker_0, # of connection points: 2
#     Edge 14, Type (0, 0), BuildingBlock: MIFKUJ_clean_linker_0, # of connection points: 2
#     Edge 15, Type (0, 0), BuildingBlock: MIFKUJ_clean_linker_0, # of connection points: 2
#     Edge 16, Type (0, 0), BuildingBlock: MIFKUJ_clean_linker_0, # of connection points: 2
#     Edge 17, Type (0, 0), BuildingBlock: MIFKUJ_clean_linker_0, # of connection points: 2
#     Edge 18, Type (0, 0), BuildingBlock: MIFKUJ_clean_linker_0, # of connection points: 2
#     Edge 19, Type (0, 0), BuildingBlock: MIFKUJ_clean_linker_0, # of connection points: 2
#     Edge 20, Type (0, 0), BuildingBlock: MIFKUJ_clean_linker_0, # of connection points: 2
#     Edge 21, Type (0, 0), BuildingBlock: MIFKUJ_clean_linker_0, # of connection points: 2
#     Edge 22, Type (0, 0), BuildingBlock: MIFKUJ_clean_linker_0, # of connection points: 2
#     Edge 23, Type (0, 0), BuildingBlock: MIFKUJ_clean_linker_0, # of connection points: 2
# Relax obj value: 0.563
# Max RMSD: 0.261
# Mean RMSD: 0.261
data_MOF--net-rkf--node1-CUWYAW_clean_sbu_0--edge1-MIFKUJ_clean_linker_0
_symmetry_space_group_name_H-M    P1
_symmetry_Int_Tables_number       1
_symmetry_cell_setting            triclinic
loop_
_symmetry_equiv_pos_as_xyz
'x, y, z'
_cell_length_a     31.37844
_cell_length_b     31.507476
_cell_length_c     59.1502
_cell_angle_alpha  89.641317
_cell_angle_beta   89.835722
_cell_angle_gamma 119.92052
loop_
_atom_site_label
_atom_site_type_symbol
_atom_site_fract_x
_atom_site_fract_y
_atom_site_fract_z
_atom_type_partial_charge
C0 C 0.41913 0.3094 0.10085 0.0
Eu1 Eu 0.36556 0.21507 0.10705 0.0
C2 C 0.42141 0.34404 1.08367 0.0
C3 C 0.44369 0.39401 0.08864 0.0
C4 C 0.44215 0.42662 1.07298 0.0
C5 C 0.41836 0.40949 1.05217 0.0
C6 C 0.39673 0.35936 1.0472 0.0
C7 C 0.39823 0.32692 1.06284 0.0
C8 C 0.40382 0.15571 0.11419 0.0
C9 C 0.31254 0.14177 1.06458 0.0
C10 C 0.24283 0.02207 0.12489 0.0
Eu11 Eu 0.29121 0.11677 0.11952 0.0
C12 C 0.23954 0.98519 0.14134 0.0
C13 C 0.19589 0.9574 0.15366 0.0
C14 C 0.1923 0.92301 0.16963 0.0
C15 C 0.23216 0.91526 0.17343 0.0
C16 C 0.27548 0.94227 0.16066 0.0
C17 C 0.2792 0.97696 0.14479 0.0
C18 C 0.25547 0.17818 0.11017 0.0
C19 C 0.32906 0.18987 0.16139 0.0
O20 O 0.37877 0.28874 0.11295 0.0
O21 O 0.43261 0.27825 0.09435 0.0
O22 O 0.41587 0.18658 0.09762 0.0
O23 O 0.37185 0.15725 0.12675 0.0
O24 O 0.33553 0.18859 1.07079 0.0
O25 O 0.29705 0.10767 1.08074 0.0
O26 O 0.28372 0.04561 0.11323 0.0
O27 O 0.22583 0.05048 0.1314 0.0
O28 O 0.2363 0.14363 0.12535 0.0
O29 O 0.28807 0.17456 0.09972 0.0
O30 O 0.30767 0.14303 0.15596 0.0
O31 O 0.35092 0.22362 0.14515 0.0
H32 H 0.46138 0.4076 0.10478 0.0
H33 H 0.45913 0.46506 1.07719 0.0
H34 H 0.37718 0.34489 1.03153 0.0
H35 H 0.38028 0.28829 1.05888 0.0
H36 H 0.16473 0.96285 0.15119 0.0
H37 H 0.15871 0.90358 0.17948 0.0
H38 H 0.30665 0.93685 0.16304 0.0
H39 H 0.31329 -0.00248 0.1354 0.0
C40 C 0.2229 0.42725 0.42554 0.0
Eu41 Eu 0.26571 0.3799 0.44043 0.0
C42 C 0.18873 0.4255 0.40812 0.0
C43 C 0.20377 0.46559 0.39344 0.0
C44 C 0.17149 0.46575 0.37733 0.0
C45 C 0.12335 0.42589 0.37575 0.0
C46 C 0.10813 0.38597 0.39068 0.0
C47 C 0.14051 0.38574 0.40673 0.0
C48 C 0.35894 0.42642 0.45667 0.0
C49 C 0.29938 0.32834 0.39946 0.0
C50 C 0.35063 0.27577 0.47277 0.0
Eu51 Eu 0.30246 0.31244 0.45294 0.0
C52 C 0.36603 0.27837 0.49648 0.0
C53 C 0.33305 0.27042 0.51429 0.0
C54 C 0.34924 0.27845 0.53661 0.0
C55 C 0.3988 0.29488 0.54164 0.0
C56 C 0.43156 0.3019 0.52382 0.0
C57 C 0.41528 0.29374 0.50144 0.0
C58 C 0.20791 0.26657 0.43841 0.0
C59 C 0.2548 0.34792 0.4933 0.0
O60 O 0.20463 0.39363 0.44134 0.0
O61 O 0.2668 0.43725 0.41896 0.0
O62 O 0.32605 0.43825 0.46151 0.0
O63 O 0.34158 0.39116 0.443 0.0
O64 O 0.27395 0.35031 0.40531 0.0
O65 O 0.31993 0.31477 0.41536 0.0
O66 O 0.37227 0.31744 0.46168 0.0
O67 O 0.30334 0.2504 0.46889 0.0
O68 O 0.23824 0.25059 0.4346 0.0
O69 O 0.2278 0.30353 0.4508 0.0
O70 O 0.28599 0.33261 0.48806 0.0
O71 O 0.2369 0.36357 0.47703 0.0
H72 H 0.24065 0.4968 0.39436 0.0
H73 H 0.18471 0.49655 0.36573 0.0
H74 H 0.07122 0.35483 0.38992 0.0
H75 H 0.12767 0.35447 0.41801 0.0
H76 H 0.29487 0.25893 0.51101 0.0
H77 H 0.32281 0.27182 0.54992 0.0
H78 H 0.47005 0.31489 0.5271 0.0
H79 H 0.44143 0.30068 0.48794 0.0
C80 C 0.91666 0.21019 0.75765 0.0
Eu81 Eu 0.00582 0.26611 0.77207 0.0
C82 C 0.88855 0.17843 0.73904 0.0
C83 C 0.83727 0.15142 0.74096 0.0
C84 C 0.80919 0.12106 0.72344 0.0
C85 C 0.8321 0.11724 0.70374 0.0
C86 C 0.88379 0.14407 0.70202 0.0
C87 C 0.91185 0.17463 0.71956 0.0
C88 C 0.03654 0.35749 0.78862 0.0
C89 C 0.08992 0.31352 0.73112 0.0
C90 C 0.19745 0.39131 0.80055 0.0
Eu91 Eu 0.11355 0.3233 0.78517 0.0
C92 C 0.21518 0.42118 0.82091 0.0
C93 C 0.1876 0.40623 0.84099 0.0
C94 C 0.20561 0.43425 0.86047 0.0
C95 C 0.25137 0.47789 0.86013 0.0
C96 C 0.2779 0.49363 0.83967 0.0
C97 C 0.2599 0.4654 0.8202 0.0
C98 C 0.08846 0.23659 0.76585 0.0
C99 C 0.03071 0.25854 0.82489 0.0
O100 O 0.93982 0.19451 0.77053 0.0
O101 O 0.94245 0.25713 0.7532 0.0
O102 O -0.00576 0.31961 0.79317 0.0
O103 O 0.05983 0.34555 0.77519 0.0
O104 O 0.04329 0.28237 0.73683 0.0
O105 O 0.12336 0.33758 0.74692 0.0
O106 O 0.16901 0.40024 0.78765 0.0
O107 O 0.18166 0.3444 0.80308 0.0
O108 O 0.1331 0.27342 0.76661 0.0
O109 O 0.06142 0.24491 0.77889 0.0
O110 O 0.07611 0.29445 0.82011 0.0
O111 O -0.00233 0.23881 0.80861 0.0
H112 H 0.81889 0.15413 0.75596 0.0
H113 H 0.76951 0.10132 0.72515 0.0
H114 H 0.90252 0.1413 0.68718 0.0
H115 H 0.95153 0.19536 0.71792 0.0
H116 H 0.15269 0.37239 0.84174 0.0
H117 H 0.1846 0.42057 0.876 0.0
H118 H 0.31299 0.52727 0.83881 0.0
H119 H 0.28123 0.47773 0.80468 0.0
C120 C 0.78478 0.90603 0.09926 0.0
Eu121 Eu 0.83577 0.00082 0.10416 0.0
C122 C 0.79151 0.8694 0.08716 0.0
C123 C 0.75083 0.82367 1.08227 0.0
C124 C 0.75734 0.78854 1.07088 0.0
C125 C 0.8047 0.79877 1.06439 0.0
C126 C 0.84536 0.84461 1.06955 0.0
C127 C 0.8388 0.87961 1.08084 0.0
C128 C 0.79454 0.057 0.11236 0.0
C129 C 0.88641 0.07709 1.06149 0.0
C130 C 0.95494 0.19365 0.12084 0.0
Eu131 Eu 0.90907 0.099 0.11584 0.0
C132 C 0.95713 0.22911 0.1373 0.0
C133 C 0.94094 0.2147 0.15958 0.0
C134 C 0.94316 0.24893 0.17508 0.0
C135 C 0.96121 0.29807 0.1685 0.0
C136 C 0.97626 0.31192 0.14593 0.0
C137 C 0.97424 0.27764 0.13046 0.0
C138 C 0.948 0.04125 0.10263 0.0
C139 C 0.87765 0.02483 0.15744 0.0
O140 O 0.81554 0.92765 0.11573 0.0
O141 O 0.77814 0.93669 0.08688 0.0
O142 O 0.78142 0.02486 0.09658 0.0
O143 O 0.82833 0.05729 0.12422 0.0
O144 O 0.86464 0.02997 1.06766 0.0
O145 O 0.90151 0.11033 1.07767 0.0
O146 O 0.91312 0.16918 0.11029 0.0
O147 O 0.97336 0.16617 0.12699 0.0
O148 O 0.96713 0.07486 0.118 0.0
O149 O 0.91219 0.04299 0.0947 0.0
O150 O 0.89787 0.07175 0.15219 0.0
O151 O 0.85504 -0.00834 0.14138 0.0
H152 H 0.71411 0.81524 0.08717 0.0
H153 H 0.72541 0.75353 1.06705 0.0
H154 H 0.88216 0.85401 1.06428 0.0
H155 H 0.87062 0.91474 1.08457 0.0
H156 H 0.92716 0.17716 0.16504 0.0
H157 H 0.93219 0.23712 0.1924 0.0
H158 H -0.01008 0.34929 0.14028 0.0
H159 H -0.01375 0.28905 0.11318 0.0
C160 C 0.01493 0.80674 0.43257 0.0
Eu161 Eu 0.96347 0.85059 0.43698 0.0
C162 C 0.03384 0.78924 0.41439 0.0
C163 C 0.06643 0.77235 0.41949 0.0
C164 C 0.08611 0.75717 0.40219 0.0
C165 C 0.07329 0.75857 0.37956 0.0
C166 C 0.03956 0.77447 0.37466 0.0
C167 C 0.02004 0.78974 0.39194 0.0
C168 C 0.86491 0.80077 0.44248 0.0
C169 C 0.9261 0.88679 0.39316 0.0
C170 C 0.8647 0.95018 0.45065 0.0
Eu171 Eu 0.92323 0.91423 0.44694 0.0
C172 C 0.82725 0.94487 0.46695 0.0
C173 C 0.80269 0.97133 0.46402 0.0
C174 C 0.76842 0.96782 0.48015 0.0
C175 C 0.75838 0.93775 0.4994 0.0
C176 C 0.78191 0.90987 0.50172 0.0
C177 C 0.81606 0.91342 0.48562 0.0
C178 C 0.02108 0.96332 0.43467 0.0
C179 C 0.96636 0.8872 0.49029 0.0
O180 O 0.03456 0.85425 0.43416 0.0
O181 O 0.96721 0.7836 0.43508 0.0
O182 O 0.88851 0.79223 0.42681 0.0
O183 O 0.89436 0.83549 0.4551 0.0
O184 O 0.95615 0.87056 0.39976 0.0
O185 O 0.90497 0.90041 0.40878 0.0
O186 O 0.85387 0.91068 0.43927 0.0
O187 O 0.91005 0.97263 0.45792 0.0
O188 O 0.00212 0.97898 0.44974 0.0
O189 O -0.01305 0.92506 0.42658 0.0
O190 O 0.93401 0.90011 0.48389 0.0
O191 O -0.01371 0.87198 0.47465 0.0
H192 H 0.0772 0.77158 0.43681 0.0
H193 H 0.11189 0.74503 0.40648 0.0
H194 H 0.02972 0.777 0.35737 0.0
H195 H -0.00507 0.80279 0.38776 0.0
H196 H 0.81071 -0.00462 0.44951 0.0
H197 H 0.75069 -0.0105 0.47786 0.0
H198 H 0.77581 0.88711 0.51653 0.0
H199 H 0.8347 0.8926 0.48801 0.0
C200 C 0.27793 -0.00315 0.75748 0.0
Eu201 Eu 0.18937 0.95304 0.77479 0.0
C202 C 0.3215 0.04539 0.75497 0.0
C203 C 0.35228 0.05386 0.73636 0.0
C204 C 0.38997 0.10099 0.73131 0.0
C205 C 0.39799 0.14089 0.74491 0.0
C206 C 0.36887 0.13153 0.76452 0.0
C207 C 0.33057 0.0841 0.76942 0.0
C208 C 0.14594 0.85836 0.78973 0.0
C209 C 0.10505 0.91347 0.73356 0.0
C210 C -0.00054 0.85164 0.8049 0.0
Eu211 Eu 0.08525 0.91153 0.78756 0.0
C212 C -0.01717 0.8217 0.82558 0.0
C213 C 0.0123 0.83606 0.84492 0.0
C214 C -0.00273 0.80654 0.86425 0.0
C215 C 0.95258 0.76187 0.86456 0.0
C216 C 0.9236 0.74709 0.84495 0.0
C217 C 0.9387 0.77683 0.82559 0.0
C218 C 0.12197 0.00156 0.76951 0.0
C219 C 0.16906 0.97098 0.82672 0.0
O220 O 0.26751 0.97709 0.77764 0.0
O221 O 0.23905 -0.00985 0.74654 0.0
O222 O 0.19018 0.89153 0.79466 0.0
O223 O 0.12749 0.87633 0.77666 0.0
O224 O 0.15196 0.93177 0.73946 0.0
O225 O 0.0708 0.90071 0.74946 0.0
O226 O 0.02189 0.83829 0.79036 0.0
O227 O 0.02144 0.89926 0.80742 0.0
O228 O 0.07595 0.96787 0.76876 0.0
O229 O 0.14615 -0.01115 0.78231 0.0
O230 O 0.12367 0.93509 0.82244 0.0
O231 O 0.2008 -0.00987 0.80959 0.0
H232 H 0.34552 0.02432 0.72499 0.0
H233 H 0.41029 0.10626 0.71575 0.0
H234 H 0.37418 0.1611 0.77551 0.0
H235 H 0.30696 0.07801 0.78392 0.0
H236 H 0.04679 0.87025 0.84518 0.0
H237 H 0.02004 0.81954 0.87916 0.0
H238 H 0.88919 0.71272 0.84463 0.0
H239 H 0.91598 0.76479 0.81062 0.0
H240 H 0.91903 -0.0082 1.06283 0.0
H241 H 0.97303 0.01763 1.02994 0.0
H242 H 0.09867 0.08433 1.07393 0.0
H243 H 0.04478 0.06507 0.10656 0.0
H244 H 0.02017 0.12453 1.0338 0.0
H245 H 0.17814 0.08215 1.0506 0.0
H246 H 0.19032 0.01204 1.0433 0.0
H247 H 0.09073 0.96916 0.98745 0.0
H248 H 0.07673 0.0383 0.99475 0.0
H249 H 0.16151 0.15985 0.11774 0.0
H250 H 0.11157 0.16734 0.08841 0.0
H251 H 0.24125 0.25239 1.04733 0.0
H252 H 0.2916 0.24756 1.07728 0.0
H253 H 0.19182 0.15974 1.03358 0.0
H254 H 0.15351 0.27782 1.04692 0.0
H255 H 0.13182 0.33674 1.06207 0.0
H256 H -0.01524 0.22092 1.07533 0.0
H257 H 0.0059 0.1605 1.06207 0.0
C258 C 0.95829 0.0108 1.0656 0.0
C259 C 0.97788 0.03001 0.08704 0.0
C260 C -0.01092 0.02467 1.04665 0.0
C261 C 0.03972 0.05498 1.04935 0.0
C262 C 0.0594 0.06226 1.07135 0.0
C263 C 0.02858 0.05122 0.09018 0.0
C264 C 0.06783 0.09427 1.03251 0.0
C265 C 0.05813 0.13313 1.03416 0.0
C266 C 0.11642 0.10582 1.02805 0.0
C267 C 0.12706 0.066 1.02295 0.0
C268 C 0.15936 0.05829 1.03653 0.0
C269 C 0.16626 0.01844 1.03251 0.0
C270 C 0.14192 -0.01336 1.01471 0.0
C271 C 0.10994 -0.00587 1.00109 0.0
C272 C 0.10217 0.03338 1.00528 0.0
C273 C 0.17968 0.18281 0.10312 0.0
C274 C 0.2298 0.20086 0.09912 0.0
C275 C 0.15116 0.18744 0.08628 0.0
C276 C 0.17253 0.20849 1.06519 0.0
C277 C 0.22387 0.23526 1.06326 0.0
C278 C 0.25251 0.23177 1.08032 0.0
C279 C 0.14283 0.18535 1.04484 0.0
C280 C 0.15431 0.15277 1.03368 0.0
C281 C 0.09463 0.17809 1.04302 0.0
C282 C 0.08145 0.21399 1.05269 0.0
C283 C 0.1167 0.26431 1.0534 0.0
C284 C 0.10447 0.29821 1.06186 0.0
C285 C 0.05689 0.28259 1.06966 0.0
C286 C 0.02166 0.23295 1.06932 0.0
C287 C 0.03385 0.19874 1.06126 0.0
H288 H 0.04734 0.30894 1.076 0.0
H289 H 0.14754 0.95597 1.01157 0.0
H290 H 0.0475 0.94103 0.39454 0.0
H291 H 0.08968 -9e-05 0.36402 0.0
H292 H 0.13883 0.11772 0.41172 0.0
H293 H 0.09123 0.05948 0.44171 0.0
H294 H 0.04123 0.05721 0.36102 0.0
H295 H 0.23334 0.20604 0.39417 0.0
H296 H 0.3137 0.2126 0.40129 0.0
H297 H 0.28139 0.09944 0.353 0.0
H298 H 0.20045 0.09177 0.34578 0.0
H299 H 0.12474 0.17862 0.43986 0.0
H300 H 0.07365 0.14097 0.40719 0.0
H301 H 0.14543 0.27986 0.37189 0.0
H302 H 0.18826 0.31933 0.40671 0.0
H303 H 0.18952 0.22094 0.36401 0.0
H304 H 0.04064 0.19365 0.33975 0.0
H305 H 0.95878 0.18659 0.34012 0.0
H306 H 0.90395 0.06051 0.38377 0.0
H307 H -0.01495 0.0666 0.38371 0.0
C308 C 0.068 0.97953 0.39865 0.0
C309 C 0.0635 -0.00394 0.42016 0.0
C310 C 0.09289 0.01299 0.38117 0.0
C311 C 0.11589 0.06319 0.38541 0.0
C312 C 0.12009 0.07903 0.40795 0.0
C313 C 0.0929 0.04577 0.42518 0.0
C314 C 0.11907 0.09745 0.36739 0.0
C315 C 0.07382 0.0932 0.36131 0.0
C316 C 0.16202 0.14349 0.36516 0.0
C317 C 0.21104 0.14876 0.36922 0.0
C318 C 0.24351 0.18287 0.3849 0.0
C319 C 0.28905 0.18655 0.38907 0.0
C320 C 0.3028 0.1567 0.37749 0.0
C321 C 0.27077 0.12268 0.3619 0.0
C322 C 0.22494 0.11845 0.35786 0.0
C323 C 0.12677 0.20177 0.42579 0.0
C324 C 0.16322 0.25106 0.425 0.0
C325 C 0.09746 0.18035 0.40694 0.0
C326 C 0.10852 0.20692 0.38642 0.0
C327 C 0.13748 0.25811 0.38721 0.0
C328 C 0.16353 0.28035 0.4069 0.0
C329 C 0.11042 0.18055 0.36611 0.0
C330 C 0.15697 0.18513 0.36276 0.0
C331 C 0.06861 0.13503 0.36128 0.0
C332 C 0.01903 0.13017 0.36134 0.0
C333 C 0.01107 0.16426 0.34935 0.0
C334 C 0.9647 0.16038 0.3495 0.0
C335 C 0.92604 0.12284 0.36178 0.0
C336 C 0.93371 0.08918 0.374 0.0
C337 C 0.97986 0.09263 0.37377 0.0
H338 H 0.8902 0.11998 0.36193 0.0
H339 H 0.33819 0.1598 0.38066 0.0
H340 H 0.17887 0.01542 0.73139 0.0
H341 H 0.15066 0.03255 0.69605 0.0
H342 H 0.08521 0.10283 0.73358 0.0
H343 H 0.10596 0.07767 0.76882 0.0
H344 H 0.01579 0.00694 0.7054 0.0
H345 H 0.17806 0.20102 0.67168 0.0
H346 H 0.25886 0.23031 0.65394 0.0
H347 H 0.22268 0.08228 0.64077 0.0
H348 H 0.14072 0.05188 0.65786 0.0
H349 H 0.14276 0.24774 0.72877 0.0
H350 H 0.119 0.20517 0.6942 0.0
H351 H 0.97116 0.11363 0.72063 0.0
H352 H -0.00404 0.15977 0.75556 0.0
H353 H 0.0912 0.16059 0.66141 0.0
H354 H 0.94105 0.07485 0.66533 0.0
H355 H 0.85155 0.03525 0.67065 0.0
H356 H 0.86078 0.96406 0.73098 0.0
H357 H 0.95035 0.00257 0.72598 0.0
C358 C 0.15883 0.03477 0.7321 0.0
C359 C 0.14139 0.04183 0.75286 0.0
C360 C 0.14327 0.04529 0.7117 0.0
C361 C 0.11411 0.06737 0.71212 0.0
C362 C 0.10654 0.08441 0.73285 0.0
C363 C 0.11951 0.07114 0.7531 0.0
C364 C 0.08423 0.06634 0.69259 0.0
C365 C 0.03311 0.04164 0.69638 0.0
C366 C 0.10378 0.10536 0.67677 0.0
C367 C 0.15328 0.12398 0.66656 0.0
C368 C 0.18695 0.17453 0.66496 0.0
C369 C 0.23299 0.19141 0.65486 0.0
C370 C 0.24601 0.1582 0.64628 0.0
C371 C 0.21273 0.10799 0.64757 0.0
C372 C 0.16647 0.0909 0.65751 0.0
C373 C 0.1051 0.21822 0.72737 0.0
C374 C 0.07166 0.20612 0.74531 0.0
C375 C 0.09086 0.19341 0.70707 0.0
C376 C 0.04332 0.15264 0.70427 0.0
C377 C 0.00883 0.14254 0.72194 0.0
C378 C 0.0229 0.16898 0.74222 0.0
C379 C 0.0346 0.11617 0.68576 0.0
C380 C 0.07549 0.12764 0.67174 0.0
C381 C 0.00685 0.06611 0.69187 0.0
C382 C 0.95274 0.04153 0.69512 0.0
C383 C 0.92414 0.05084 0.67978 0.0
C384 C 0.87331 0.02871 0.68281 0.0
C385 C 0.85052 -0.0023 0.70131 0.0
C386 C 0.8785 -0.01186 0.71666 0.0
C387 C 0.92935 0.00974 0.71359 0.0
H388 H 0.81114 0.98074 0.70365 0.0
H389 H 0.28188 0.17139 0.63865 0.0
H390 H 0.39336 0.47932 1.06149 0.0
H391 H 0.36982 0.52265 1.03408 0.0
H392 H 0.40603 0.4562 0.97938 0.0
H393 H 0.43069 0.41384 1.00649 0.0
H394 H 0.42445 0.57951 0.98402 0.0
H395 H 0.2852 0.38622 0.96044 0.0
H396 H 0.24034 0.30386 0.97785 0.0
H397 H 0.23422 0.36683 1.04108 0.0
H398 H 0.27824 0.44953 1.02391 0.0
H399 H 0.34657 0.51636 0.87349 0.0
H400 H 0.37799 0.53915 0.91157 0.0
H401 H 0.23769 0.51799 0.93401 0.0
H402 H 0.20593 0.49567 0.89558 0.0
H403 H 0.26101 0.45706 0.95453 0.0
H404 H 0.34189 0.62843 0.9429 0.0
H405 H 0.39264 0.70699 0.92296 0.0
H406 H 0.51812 0.68702 0.92706 0.0
H407 H 0.46804 0.608 0.94671 0.0
C408 C 0.39792 0.47534 1.04362 0.0
C409 C 0.41314 0.44268 1.03607 0.0
C410 C 0.38449 0.50008 1.02805 0.0
C411 C 0.38605 0.49219 1.00486 0.0
C412 C 0.40469 0.46257 0.99729 0.0
C413 C 0.41827 0.4381 1.01276 0.0
C414 C 0.36135 0.50782 0.98848 0.0
C415 C 0.38831 0.55347 0.97772 0.0
C416 C 0.31401 0.47368 0.98069 0.0
C417 C 0.28537 0.42404 0.99094 0.0
C418 C 0.27393 0.38245 0.97801 0.0
C419 C 0.24875 0.33574 0.98784 0.0
C420 C 0.23478 0.33018 1.01058 0.0
C421 C 0.24538 0.37125 1.02349 0.0
C422 C 0.27044 0.41806 1.01372 0.0
C423 C 0.32293 0.51862 0.88623 0.0
C424 C 0.27345 0.50334 0.8816 0.0
C425 C 0.34109 0.5319 0.90807 0.0
C426 C 0.31018 0.53027 0.92565 0.0
C427 C 0.26213 0.5195 0.92065 0.0
C428 C 0.24394 0.50631 0.89876 0.0
C429 C 0.32456 0.52862 0.94929 0.0
C430 C 0.29595 0.48475 0.96133 0.0
C431 C 0.37048 0.56439 0.95803 0.0
C432 C 0.40107 0.61215 0.94632 0.0
C433 C 0.38024 0.64063 0.93946 0.0
C434 C 0.40892 0.68529 0.9282 0.0
C435 C 0.45857 0.70199 0.92375 0.0
C436 C 0.47967 0.67409 0.93056 0.0
C437 C 0.45116 0.62939 0.94182 0.0
H438 H 0.4807 0.73657 0.91503 0.0
H439 H 0.21564 0.294 1.01815 0.0
H440 H 0.06447 0.34793 0.34942 0.0
H441 H 0.02634 0.34975 0.31397 0.0
H442 H 0.07195 0.50192 0.32406 0.0
H443 H 0.10964 0.50032 0.35998 0.0
H444 H 0.97687 0.43995 0.2974 0.0
H445 H 0.15033 0.49423 0.29814 0.0
H446 H 0.22143 0.4877 0.31124 0.0
H447 H 0.16014 0.34503 0.28175 0.0
H448 H 0.08819 0.35033 0.26888 0.0
H449 H 0.03877 0.39137 0.17241 0.0
H450 H 0.05954 0.44394 0.20533 0.0
H451 H 0.92229 0.33984 0.23712 0.0
H452 H 0.90007 0.28851 0.20375 0.0
H453 H 0.07699 0.4107 0.2412 0.0
H454 H 0.89331 0.38388 0.28143 0.0
H455 H 0.82201 0.39118 0.26954 0.0
H456 H 0.90706 0.48729 0.21509 0.0
H457 H 0.97914 0.48121 0.22682 0.0
C458 C 0.06479 0.38133 0.34462 0.0
C459 C 0.09104 0.42432 0.35722 0.0
C460 C 0.04292 0.38227 0.32434 0.0
C461 C 0.04737 0.42625 0.31625 0.0
C462 C 0.06873 0.46786 0.32991 0.0
C463 C 0.09066 0.46696 0.35029 0.0
C464 C 0.03932 0.43036 0.292 0.0
C465 C -0.00126 0.43408 0.28492 0.0
C466 C 0.06952 0.42502 0.27585 0.0
C467 C 0.11386 0.42266 0.2826 0.0
C468 C 0.15199 0.46144 0.2945 0.0
C469 C 0.1924 0.45792 0.30191 0.0
C470 C 0.1953 0.41597 0.29733 0.0
C471 C 0.15787 0.37752 0.28526 0.0
C472 C 0.1173 0.38079 0.27788 0.0
C473 C 0.01194 0.38068 0.18594 0.0
C474 C 0.96827 0.33508 0.18571 0.0
C475 C 0.02397 0.41083 0.20481 0.0
C476 C -0.00722 0.39573 0.22382 0.0
C477 C 0.94688 0.35269 0.22264 0.0
C478 C 0.93458 0.32281 0.20368 0.0
C479 C 0.01239 0.4174 0.24623 0.0
C480 C 0.05558 0.4184 0.25321 0.0
C481 C -0.01505 0.42794 0.26202 0.0
C482 C 0.94167 0.4319 0.25498 0.0
C483 C 0.89697 0.40686 0.26701 0.0
C484 C 0.85636 0.41071 0.26027 0.0
C485 C 0.85998 0.43962 0.24155 0.0
C486 C 0.90425 0.46479 0.22954 0.0
C487 C 0.94498 0.46106 0.23621 0.0
H488 H 0.82849 0.44254 0.23636 0.0
H489 H 0.22656 0.41326 0.30313 0.0
H490 H 0.75082 0.02554 0.70623 0.0
H491 H 0.70242 0.97395 0.67471 0.0
H492 H 0.79796 0.08634 0.62743 0.0
H493 H 0.84541 0.13874 0.65869 0.0
H494 H 0.68204 0.03384 0.62264 0.0
H495 H 0.82752 0.98544 0.61282 0.0
H496 H 0.87889 0.9597 0.63383 0.0
H497 H 0.76016 0.87792 0.68055 0.0
H498 H 0.70802 0.90285 0.65966 0.0
H499 H 0.76126 0.01917 0.51639 0.0
H500 H 0.73272 0.0271 0.55337 0.0
H501 H 0.66237 0.87067 0.56351 0.0
H502 H 0.69087 0.8624 0.52611 0.0
H503 H 0.73097 0.91698 0.59354 0.0
H504 H 0.59506 0.93023 0.56994 0.0
H505 H 0.54705 0.95602 0.54649 0.0
H506 H 0.64423 0.10603 0.56413 0.0
H507 H 0.69334 0.08137 0.58741 0.0
C508 C 0.76104 0.03951 0.68912 0.0
C509 C 0.80208 0.08611 0.68489 0.0
C510 C 0.73362 0.00985 0.67119 0.0
C511 C 0.74701 0.02641 0.64888 0.0
C512 C 0.78726 0.07311 0.64463 0.0
C513 C 0.81454 0.10277 0.66247 0.0
C514 C 0.72089 -0.00488 0.62956 0.0
C515 C 0.69159 0.00741 0.6163 0.0
C516 C 0.73261 0.95996 0.62179 0.0
C517 C 0.7642 0.9464 0.63489 0.0
C518 C 0.81251 0.96206 0.62761 0.0
C519 C 0.84165 0.94744 0.63941 0.0
C520 C 0.82274 0.91705 0.65845 0.0
C521 C 0.77472 0.90139 0.66578 0.0
C522 C 0.74543 0.9159 0.65403 0.0
C523 C 0.73777 0.98611 0.52596 0.0
C524 C 0.72912 0.94025 0.51851 0.0
C525 C 0.72121 -0.00932 0.54718 0.0
C526 C 0.69547 0.94946 0.56129 0.0
C527 C 0.68226 0.90294 0.55291 0.0
C528 C 0.69887 0.89834 0.53163 0.0
C529 C 0.69331 0.95691 0.58585 0.0
C530 C 0.71839 0.94098 0.60008 0.0
C531 C 0.67734 -0.01149 0.59444 0.0
C532 C 0.64792 0.00383 0.58049 0.0
C533 C 0.6064 0.96876 0.56875 0.0
C534 C 0.57895 0.9832 0.55548 0.0
C535 C 0.59256 0.03262 0.55383 0.0
C536 C 0.63365 0.06774 0.56546 0.0
C537 C 0.66124 0.05352 0.57876 0.0
H538 H 0.57127 0.04372 0.54354 0.0
H539 H 0.84541 0.90591 0.66761 0.0
H540 H 0.87494 0.77216 1.06906 0.0
H541 H 0.89915 0.73223 1.04047 0.0
H542 H 0.77563 0.70826 0.99953 0.0
H543 H 0.75132 0.74796 1.02792 0.0
H544 H 0.80024 0.63648 0.99299 0.0
H545 H 0.87946 0.81435 0.99613 0.0
H546 H 0.92794 0.8949 1.01418 0.0
H547 H 0.0491 0.86908 1.02225 0.0
H548 H 0.00082 0.78779 1.00469 0.0
H549 H 0.85938 0.71765 0.8818 0.0
H550 H 0.83435 0.68904 0.92039 0.0
H551 H 0.98003 0.7148 0.93489 0.0
H552 H 0.00544 0.74358 0.89606 0.0
H553 H 0.95654 0.76879 0.96035 0.0
H554 H 0.87968 0.60024 0.94369 0.0
H555 H 0.82834 0.52437 0.92259 0.0
H556 H 0.70038 0.53644 0.93629 0.0
H557 H 0.75097 0.61278 0.95717 0.0
C558 C 0.85224 0.75712 1.05423 0.0
C559 C 0.81191 0.76407 1.05042 0.0
C560 C 0.8659 0.73406 1.03802 0.0
C561 C 0.83968 0.7182 1.01775 0.0
C562 C 0.79632 0.72025 1.01509 0.0
C563 C 0.78253 0.7431 1.03131 0.0
C564 C 0.86187 0.70886 0.99771 0.0
C565 C 0.83463 0.66503 0.98584 0.0
C566 C 0.9073 0.74596 0.98875 0.0
C567 C 0.93622 0.79464 0.99949 0.0
C568 C 0.91622 0.8256 1.002 0.0
C569 C 0.94368 0.87141 1.01211 0.0
C570 C -0.00851 0.88699 1.01946 0.0
C571 C 0.01196 0.85683 1.01666 0.0
C572 C -0.01547 0.81085 1.00668 0.0
C573 C 0.88559 0.71533 0.89286 0.0
C574 C 0.93462 0.7336 0.88598 0.0
C575 C 0.87113 0.6987 0.91498 0.0
C576 C 0.90533 0.69975 0.93055 0.0
C577 C 0.95308 0.71369 0.92313 0.0
C578 C 0.96761 0.73043 0.901 0.0
C579 C 0.89411 0.69692 0.95501 0.0
C580 C 0.92333 0.73893 0.96778 0.0
C581 C 0.85012 0.65857 0.96447 0.0
C582 C 0.81926 0.6124 0.95202 0.0
C583 C 0.84064 0.58691 0.94211 0.0
C584 C 0.81164 0.54376 0.93019 0.0
C585 C 0.76113 0.52559 0.9281 0.0
C586 C 0.7395 0.55051 0.93795 0.0
C587 C 0.76832 0.59368 0.94988 0.0
H588 H 0.73875 0.4922 0.91886 0.0
H589 H 0.01271 0.9225 1.02724 0.0
H590 H 0.03317 0.70743 0.3407 0.0
H591 H 0.07783 0.71179 0.3061 0.0
H592 H 0.21536 0.79199 0.34138 0.0
H593 H 0.17106 0.78882 0.37586 0.0
H594 H 0.20273 0.8452 0.30923 0.0
H595 H 0.19058 0.68833 0.31284 0.0
H596 H 0.15412 0.59871 0.31618 0.0
H597 H 0.06148 0.57856 0.25927 0.0
H598 H 0.09676 0.66787 0.25574 0.0
H599 H 0.30419 0.9291 0.2034 0.0
H600 H 0.29445 0.88246 0.23797 0.0
H601 H 0.14381 0.78112 0.22056 0.0
H602 H 0.154 0.82602 0.18533 0.0
H603 H 0.18192 0.73566 0.24527 0.0
H604 H 0.1705 0.88254 0.24931 0.0
H605 H 0.1998 0.97056 0.24388 0.0
H606 H 0.32398 0.00643 0.28626 0.0
H607 H 0.29568 0.91849 0.29167 0.0
C608 C 0.07288 0.72472 0.34124 0.0
C609 C 0.09866 0.74881 0.36082 0.0
C610 C 0.09836 0.72652 0.32153 0.0
C611 C 0.14996 0.75238 0.32115 0.0
C612 C 0.17552 0.77165 0.34136 0.0
C613 C 0.15009 0.76986 0.36107 0.0
C614 C 0.17591 0.77038 0.29924 0.0
C615 C 0.19964 0.82117 0.29548 0.0
C616 C 0.16993 0.73894 0.28105 0.0
C617 C 0.14638 0.685 0.28406 0.0
C618 C 0.16197 0.66482 0.30123 0.0
C619 C 0.14162 0.61403 0.3031 0.0
C620 C 0.10567 0.58305 0.28788 0.0
C621 C 0.08947 0.60266 0.27098 0.0
C622 C 0.10968 0.65335 0.26903 0.0
C623 C 0.26956 0.89583 0.20644 0.0
C624 C 0.22945 0.88189 0.19187 0.0
C625 C 0.26402 0.86932 0.22628 0.0
C626 C 0.2181 0.82907 0.23204 0.0
C627 C 0.17948 0.81229 0.2165 0.0
C628 C 0.18515 0.83844 0.19653 0.0
C629 C 0.2076 0.80988 0.25549 0.0
C630 C 0.18647 0.75935 0.25938 0.0
C631 C 0.21427 0.84116 0.27382 0.0
C632 C 0.23141 0.89404 0.27061 0.0
C633 C 0.20427 0.90923 0.25731 0.0
C634 C 0.22066 0.95908 0.25426 0.0
C635 C 0.26384 -0.00592 0.26465 0.0
C636 C 0.29063 0.97927 0.27816 0.0
C637 C 0.27446 0.92944 0.28122 0.0
H638 H 0.27645 0.03266 0.26229 0.0
H639 H 0.0905 0.54386 0.28904 0.0
H640 H 0.38419 0.2202 0.7491 0.0
H641 H 0.4121 0.28633 0.72167 0.0
H642 H 0.50774 0.24094 0.69128 0.0
H643 H 0.48423 0.17787 0.72026 0.0
H644 H 0.53253 0.33335 0.67706 0.0
H645 H 0.38314 0.16953 0.67674 0.0
H646 H 0.31035 0.10471 0.69685 0.0
H647 H 0.26025 0.20648 0.71029 0.0
H648 H 0.33262 0.27175 0.69004 0.0
H649 H 0.4634 0.27272 0.56228 0.0
H650 H 0.48469 0.28032 0.6023 0.0
H651 H 0.39316 0.34398 0.61505 0.0
H652 H 0.37242 0.33754 0.57495 0.0
H653 H 0.3688 0.26079 0.6407 0.0
H654 H 0.51306 0.41296 0.62277 0.0
H655 H 0.58871 0.46822 0.60154 0.0
H656 H 0.65243 0.38057 0.62101 0.0
H657 H 0.57689 0.32432 0.64209 0.0
C658 C 0.41358 0.22594 0.73764 0.0
C659 C 0.42971 0.1916 0.73601 0.0
C660 C 0.42933 0.26389 0.72177 0.0
C661 C 0.45954 0.26643 0.70366 0.0
C662 C 0.48314 0.23866 0.70473 0.0
C663 C 0.4689 0.20193 0.72113 0.0
C664 C 0.45466 0.28518 0.68137 0.0
C665 C 0.49682 0.31813 0.66911 0.0
C666 C 0.40799 0.26486 0.67096 0.0
C667 C 0.36303 0.2253 0.68191 0.0
C668 C 0.3563 0.17785 0.68383 0.0
C669 C 0.31524 0.14112 0.69527 0.0
C670 C 0.28076 0.15152 0.70486 0.0
C671 C 0.2871 0.19856 0.70291 0.0
C672 C 0.32793 0.23535 0.69133 0.0
C673 C 0.44883 0.28957 0.57345 0.0
C674 C 0.4158 0.30403 0.56544 0.0
C675 C 0.46114 0.29399 0.59633 0.0
C676 C 0.44073 0.313 0.61158 0.0
C677 C 0.40944 0.32941 0.6035 0.0
C678 C 0.39726 0.3252 0.58063 0.0
C679 C 0.4467 0.30932 0.63618 0.0
C680 C 0.40448 0.27809 0.64878 0.0
C681 C 0.49346 0.33036 0.64652 0.0
C682 C 0.53913 0.36425 0.63394 0.0
C683 C 0.54305 0.40524 0.6224 0.0
C684 C 0.58595 0.43679 0.61041 0.0
C685 C 0.62533 0.42789 0.6099 0.0
C686 C 0.62191 0.38744 0.62142 0.0
C687 C 0.57907 0.35575 0.63343 0.0
H688 H 0.65851 0.45236 0.60061 0.0
H689 H 0.24916 0.12316 0.71381 0.0
H690 H 0.43375 0.14482 0.15663 0.0
H691 H 0.49916 0.12534 0.16507 0.0
H692 H 0.51173 0.10296 0.09406 0.0
H693 H 0.44783 0.12328 1.08564 0.0
H694 H 0.51523 0.0322 0.1218 0.0
H695 H 0.58761 0.2095 0.11622 0.0
H696 H 0.59746 0.28882 0.12804 0.0
H697 H 0.63652 0.26679 0.19485 0.0
H698 H 0.62618 0.18692 0.18347 0.0
H699 H 0.73901 0.07515 1.08407 0.0
H700 H 0.67215 0.09022 0.09335 0.0
H701 H 0.70672 0.09627 0.16416 0.0
H702 H 0.77482 0.08102 0.1548 0.0
H703 H 0.67601 0.16791 0.14749 0.0
H704 H 0.6184 -0.00338 0.15036 0.0
H705 H 0.61059 0.91888 0.13736 0.0
H706 H 0.54346 0.92898 1.07594 0.0
H707 H 0.55164 0.00725 0.08839 0.0
C708 C 0.44982 0.13463 0.14296 0.0
C709 C 0.43574 0.13539 0.12048 0.0
C710 C 0.48739 0.12391 0.14776 0.0
C711 C 0.51063 0.113 0.13016 0.0
C712 C 0.49443 0.11119 0.10792 0.0
C713 C 0.45785 0.12276 0.10312 0.0
C714 C 0.55361 0.10598 0.13421 0.0
C715 C 0.55024 0.06174 0.1276 0.0
C716 C 0.59914 0.14404 0.14231 0.0
C717 C 0.60544 0.19199 0.1491 0.0
C718 C 0.59783 0.22136 0.13349 0.0
C719 C 0.60359 0.26645 0.14009 0.0
C720 C 0.61742 0.28275 0.16221 0.0
C721 C 0.62567 0.25405 0.17774 0.0
C722 C 0.61986 0.20888 0.17123 0.0
C723 C 0.73316 0.08065 0.10163 0.0
C724 C 0.76188 0.07649 0.11872 0.0
C725 C 0.69479 0.08917 0.10691 0.0
C726 C 0.68378 0.09348 0.12946 0.0
C727 C 0.71447 0.09282 0.14663 0.0
C728 C 0.75341 0.0843 0.14129 0.0
C729 C 0.63776 0.09459 0.13446 0.0
C730 C 0.6406 0.13773 0.14252 0.0
C731 C 0.59152 0.05541 0.12777 0.0
C732 C 0.58585 0.00797 0.12029 0.0
C733 C 0.60226 0.98244 0.13402 0.0
C734 C 0.59774 0.93825 0.12675 0.0
C735 C 0.57659 0.91902 0.10583 0.0
C736 C 0.55982 0.94391 0.09215 0.0
C737 C 0.56433 -0.01183 0.09932 0.0
H738 H 0.57313 0.88481 0.10023 0.0
H739 H 0.6219 0.31768 0.16729 0.0
H740 H 0.40021 0.49916 0.48753 0.0
H741 H 0.48658 0.56271 0.49052 0.0
H742 H 0.52362 0.49658 0.43585 0.0
H743 H 0.4373 0.43178 0.43343 0.0
H744 H 0.59364 0.52923 0.46572 0.0
H745 H 0.50506 0.59825 0.42857 0.0
H746 H 0.44028 0.62044 0.425 0.0
H747 H 0.49326 0.70875 0.48452 0.0
H748 H 0.558 0.68655 0.4886 0.0
H749 H 0.80366 0.72289 0.41739 0.0
H750 H 0.71888 0.66111 0.42537 0.0
H751 H 0.72062 0.73726 0.48599 0.0
H752 H 0.8069 0.80007 0.47806 0.0
H753 H 0.63272 0.70215 0.4591 0.0
H754 H 0.72855 0.6394 0.49275 0.0
H755 H 0.79451 0.61854 0.49407 0.0
H756 H 0.72847 0.5192 0.4389 0.0
H757 H 0.66249 0.54 0.43701 0.0
C758 C 0.42693 0.49784 0.47635 0.0
C759 C 0.412 0.46081 0.4601 0.0
C760 C 0.47628 0.53442 0.47796 0.0
C761 C 0.51165 0.53539 0.46301 0.0
C762 C 0.4971 0.49696 0.44749 0.0
C763 C 0.44775 0.45989 0.4461 0.0
C764 C 0.56333 0.57713 0.46299 0.0
C765 C 0.60203 0.56695 0.46413 0.0
C766 C 0.57469 0.62672 0.46155 0.0
C767 C 0.53599 0.6403 0.45904 0.0
C768 C 0.50267 0.62213 0.44098 0.0
C769 C 0.466 0.63474 0.43886 0.0
C770 C 0.46256 0.66586 0.45456 0.0
C771 C 0.4959 0.68457 0.47239 0.0
C772 C 0.5326 0.67201 0.47461 0.0
C773 C 0.78621 0.7268 0.43245 0.0
C774 C 0.81222 0.76614 0.44725 0.0
C775 C 0.73764 0.69126 0.43699 0.0
C776 C 0.71363 0.694 0.45646 0.0
C777 C 0.73865 0.73426 0.47094 0.0
C778 C 0.78782 0.77004 0.46643 0.0
C779 C 0.66264 0.65397 0.46138 0.0
C780 C 0.62415 0.66444 0.46109 0.0
C781 C 0.65141 0.60462 0.4634 0.0
C782 C 0.6907 0.59149 0.46466 0.0
C783 C 0.72825 0.61334 0.4808 0.0
C784 C 0.76563 0.60149 0.48166 0.0
C785 C 0.76572 0.56762 0.46656 0.0
C786 C 0.72835 0.54543 0.45059 0.0
C787 C 0.69091 0.55718 0.44964 0.0
H788 H 0.7947 0.55852 0.46725 0.0
H789 H 0.43414 0.67559 0.45289 0.0
H790 H 0.98003 0.38848 0.81022 0.0
H791 H -0.00619 0.47203 0.81205 0.0
H792 H 0.13209 0.5256 0.77682 0.0
H793 H 0.11741 0.44197 0.77412 0.0
H794 H 0.05777 0.55506 0.82972 0.0
H795 H 0.15413 0.61942 0.74228 0.0
H796 H 0.15529 0.58388 0.70539 0.0
H797 H 0.00904 0.46465 0.7175 0.0
H798 H 0.00674 0.49981 0.75432 0.0
H799 H 0.18348 0.81449 0.8165 0.0
H800 H 0.15849 0.72745 0.81835 0.0
H801 H 0.04306 0.69524 0.77046 0.0
H802 H 0.06782 0.7824 0.76864 0.0
H803 H 0.09682 0.65245 0.75869 0.0
H804 H 0.01283 0.661 0.82362 0.0
H805 H 0.00203 0.69299 0.85977 0.0
H806 H 0.10601 0.66083 0.89122 0.0
H807 H 0.11804 0.6293 0.85511 0.0
C808 C 0.01352 0.41814 0.80299 0.0
C809 C 0.04753 0.40858 0.79193 0.0
C810 C 0.02143 0.46595 0.8041 0.0
C811 C 0.06359 0.50522 0.79423 0.0
C812 C 0.09873 0.49593 0.78414 0.0
C813 C 0.09056 0.44809 0.7828 0.0
C814 C 0.07003 0.55549 0.79383 0.0
C815 C 0.0664 0.57633 0.81419 0.0
C816 C 0.07988 0.58299 0.77349 0.0
C817 C 0.08049 0.56205 0.75115 0.0
C818 C 0.12213 0.58576 0.73702 0.0
C819 C 0.12301 0.56565 0.71613 0.0
C820 C 0.08233 0.52195 0.70913 0.0
C821 C 0.04059 0.4984 0.72297 0.0
C822 C 0.0395 0.51839 0.74386 0.0
C823 C 0.15242 0.78876 0.80656 0.0
C824 C 0.1277 0.80524 0.79238 0.0
C825 C 0.13811 0.73902 0.80767 0.0
C826 C 0.09887 0.70474 0.79455 0.0
C827 C 0.07351 0.72102 0.78068 0.0
C828 C 0.08753 0.77077 0.77974 0.0
C829 C 0.08588 0.65235 0.79465 0.0
C830 C 0.08823 0.63115 0.77422 0.0
C831 C 0.07362 0.62413 0.81481 0.0
C832 C 0.06668 0.64318 0.83658 0.0
C833 C 0.03376 0.66116 0.83818 0.0
C834 C 0.02734 0.67914 0.85869 0.0
C835 C 0.05339 0.67904 0.87779 0.0
C836 C 0.08589 0.66092 0.87641 0.0
C837 C 0.09249 0.64294 0.85592 0.0
H838 H 0.04834 0.69287 0.89367 0.0
H839 H 0.08312 0.5064 0.69298 0.0
H840 H 0.28114 0.13073 0.19879 0.0
H841 H 0.27577 0.1539 0.23772 0.0
H842 H 0.36616 0.30609 0.21959 0.0
H843 H 0.3719 0.28293 0.18059 0.0
H844 H 0.39372 0.29598 0.25977 0.0
H845 H 0.2336 0.24348 0.22948 0.0
H846 H 0.15408 0.18734 0.2118 0.0
H847 H 0.11985 0.08386 0.26606 0.0
H848 H 0.19947 0.13895 0.28384 0.0
H849 H 0.36001 0.29756 0.38016 0.0
H850 H 0.36398 0.27449 0.34111 0.0
H851 H 0.25136 0.30791 0.32243 0.0
H852 H 0.24671 0.3303 0.36177 0.0
H853 H 0.23402 0.22837 0.30012 0.0
H854 H 0.44029 0.28944 0.2967 0.0
H855 H 0.51821 0.35064 0.31409 0.0
H856 H 0.45817 0.44482 0.3259 0.0
H857 H 0.38013 0.38446 0.30834 0.0
C858 C 0.30009 0.16927 0.20293 0.0
C859 C 0.32704 0.20463 0.18594 0.0
C860 C 0.29664 0.1827 0.22549 0.0
C861 C 0.31986 0.23225 0.23229 0.0
C862 C 0.3475 0.26758 0.2154 0.0
C863 C 0.35076 0.25416 0.19279 0.0
C864 C 0.31581 0.24716 0.25671 0.0
C865 C 0.35857 0.28074 0.26843 0.0
C866 C 0.27033 0.22863 0.26874 0.0
C867 C 0.22278 0.19513 0.25785 0.0
C868 C 0.20933 0.20852 0.23751 0.0
C869 C 0.16418 0.17691 0.22749 0.0
C870 C 0.13196 0.13198 0.23775 0.0
C871 C 0.14483 0.11858 0.25807 0.0
C872 C 0.18998 0.14998 0.26813 0.0
C873 C 0.33602 0.30029 0.36784 0.0
C874 C 0.30312 0.31631 0.37466 0.0
C875 C 0.33854 0.28715 0.34516 0.0
C876 C 0.30857 0.2897 0.328 0.0
C877 C 0.27535 0.30538 0.33482 0.0
C878 C 0.27294 0.31872 0.35755 0.0
C879 C 0.312 0.27627 0.30326 0.0
C880 C 0.26915 0.24318 0.29147 0.0
C881 C 0.35732 0.29539 0.29112 0.0
C882 C 0.40426 0.33222 0.3014 0.0
C883 C 0.44381 0.3233 0.30293 0.0
C884 C 0.48797 0.35782 0.31283 0.0
C885 C 0.49308 0.40152 0.32116 0.0
C886 C 0.4541 0.41088 0.31952 0.0
C887 C 0.40989 0.37651 0.30961 0.0
H888 H 0.52727 0.42817 0.32884 0.0
H889 H 0.09696 0.10763 0.23 0.0
H890 H 0.30272 0.34832 0.53259 0.0
H891 H 0.2764 0.34389 0.57185 0.0
H892 H 0.14103 0.33375 0.54928 0.0
H893 H 0.16933 0.34199 0.51001 0.0
H894 H 0.15686 0.37903 0.58411 0.0
H895 H 0.15744 0.22858 0.57509 0.0
H896 H 0.1916 0.17584 0.56446 0.0
H897 H 0.30932 0.25075 0.61149 0.0
H898 H 0.27607 0.30416 0.62237 0.0
H899 H 0.03318 0.28295 0.69218 0.0
H900 H 0.0602 0.28802 0.65268 0.0
H901 H 0.21077 0.35597 0.67431 0.0
H902 H 0.1842 0.35233 0.71369 0.0
H903 H 0.18525 0.27926 0.64075 0.0
H904 H 0.17299 0.42544 0.65069 0.0
H905 H 0.12908 0.46934 0.66091 0.0
H906 H 0.02032 0.39006 0.61046 0.0
H907 H 0.06321 0.34514 0.60017 0.0
C908 C 0.26732 0.34523 0.53592 0.0
C909 C 0.23838 0.34548 0.51775 0.0
C910 C 0.25169 0.34197 0.55867 0.0
C911 C 0.20544 0.33683 0.56434 0.0
C912 C 0.17675 0.33752 0.54607 0.0
C913 C 0.19302 0.34216 0.52332 0.0
C914 C 0.18741 0.33164 0.58899 0.0
C915 C 0.16269 0.35645 0.59619 0.0
C916 C 0.1945 0.30274 0.60562 0.0
C917 C 0.21444 0.27051 0.59942 0.0
C918 C 0.19072 0.23388 0.58311 0.0
C919 C 0.20992 0.2039 0.57706 0.0
C920 C 0.25274 0.2101 0.58726 0.0
C921 C 0.27636 0.24624 0.60355 0.0
C922 C 0.25724 0.27622 0.60975 0.0
C923 C 0.07214 0.29949 0.68861 0.0
C924 C 0.10628 0.31793 0.7065 0.0
C925 C 0.08767 0.30222 0.66584 0.0
C926 C 0.13788 0.32256 0.66006 0.0
C927 C 0.17189 0.34009 0.67794 0.0
C928 C 0.1565 0.33833 0.70063 0.0
C929 C 0.15499 0.32656 0.63553 0.0
C930 C 0.17949 0.30159 0.62847 0.0
C931 C 0.14638 0.35407 0.61888 0.0
C932 C 0.12106 0.38162 0.62481 0.0
C933 C 0.13953 0.41713 0.64188 0.0
C934 C 0.11485 0.44223 0.64767 0.0
C935 C 0.07187 0.43241 0.63637 0.0
C936 C 0.05358 0.39758 0.61921 0.0
C937 C 0.07808 0.37232 0.61338 0.0
H938 H 0.05281 0.45186 0.64089 0.0
H939 H 0.26762 0.18692 0.58256 0.0
H940 H 0.93763 0.20074 0.84344 0.0
H941 H 0.91409 0.16997 0.88216 0.0
H942 H 0.0671 0.23901 0.90042 0.0
H943 H 0.09047 0.27215 0.86196 0.0
H944 H 0.02904 0.24788 0.93413 0.0
H945 H 0.83753 0.0779 0.91706 0.0
H946 H 0.79619 0.0159 0.88747 0.0
H947 H 0.93603 0.04054 0.86338 0.0
H948 H 0.97813 0.10227 0.89296 0.0
H949 H 0.91718 0.16853 1.04273 0.0
H950 H 0.94198 0.19743 1.00399 0.0
H951 H 0.9171 0.05487 0.98523 0.0
H952 H 0.88964 0.02525 1.02397 0.0
H953 H 0.8936 0.08025 0.95137 0.0
H954 H 0.05758 0.18348 0.98219 0.0
H955 H 0.12698 0.24583 1.00417 0.0
H956 H 0.06885 0.34321 0.99826 0.0
H957 H 0.00051 0.28228 0.97509 0.0
C958 C 0.96651 0.20953 0.85565 0.0
C959 C 0.01628 0.23927 0.84911 0.0
C960 C 0.95283 0.1912 0.87805 0.0
C961 C -0.01168 0.20059 0.89491 0.0
C962 C 0.03816 0.23056 0.88832 0.0
C963 C 0.05181 0.24968 0.86602 0.0
C964 C 0.97389 0.18072 0.91928 0.0
C965 C -0.00081 0.21111 0.93764 0.0
C966 C 0.93602 0.13219 0.92484 0.0
C967 C 0.91095 0.09509 0.90705 0.0
C968 C 0.85941 0.06999 0.90547 0.0
C969 C 0.83586 0.03492 0.8887 0.0
C970 C 0.86347 0.02443 0.8735 0.0
C971 C 0.9147 0.04885 0.87509 0.0
C972 C 0.93843 0.08393 0.89184 0.0
C973 C 0.91675 0.143 1.03041 0.0
C974 C 0.90067 0.09404 1.03693 0.0
C975 C 0.932 0.16008 1.00796 0.0
C976 C 0.93308 0.12938 0.99087 0.0
C977 C 0.91696 0.08025 0.99745 0.0
C978 C 0.90099 0.06294 1.0199 0.0
C979 C 0.94867 0.14768 0.9663 0.0
C980 C 0.92333 0.11704 0.94786 0.0
C981 C -0.01177 0.19519 0.96055 0.0
C982 C 0.02348 0.22802 0.97746 0.0
C983 C 0.05911 0.2178 0.986 0.0
C984 C 0.09866 0.25319 0.99834 0.0
C985 C 0.10214 0.29835 1.00276 0.0
C986 C 0.06602 0.30819 0.99488 0.0
C987 C 0.02712 0.27343 0.98198 0.0
H988 H 0.13299 0.32586 1.01219 0.0
H989 H 0.84516 -0.00273 0.86052 0.0
H990 H 0.94563 0.07837 0.1905 0.0
H991 H 0.9538 0.05348 0.22901 0.0
H992 H 0.8267 0.91175 0.21868 0.0
H993 H 0.81951 0.93577 0.17975 0.0
H994 H 0.83499 0.97101 0.26408 0.0
H995 H 0.91726 0.90562 0.21817 0.0
H996 H 0.97915 0.91238 0.19042 0.0
H997 H 0.09479 0.01727 0.23234 0.0
H998 H 0.03342 0.01198 0.26014 0.0
H999 H 0.8412 0.86102 0.36921 0.0
H1000 H 0.8318 0.87985 0.33002 0.0
H1001 H -0.01038 0.96012 0.32201 0.0
H1002 H -0.00188 0.93584 0.36038 0.0
H1003 H 0.96585 0.93376 0.28463 0.0
H1004 H 0.89317 0.00884 0.32884 0.0
H1005 H 0.83695 0.01419 0.35651 0.0
H1006 H 0.71238 0.90806 0.31932 0.0
H1007 H 0.76762 0.90166 0.29152 0.0
C1008 C 0.91926 0.04179 0.19629 0.0
C1009 C 0.88176 0.00935 0.18156 0.0
C1010 C 0.92409 0.02747 0.21852 0.0
C1011 C 0.89095 0.98047 0.22726 0.0
C1012 C 0.85299 0.94823 0.21273 0.0
C1013 C 0.84892 0.96209 0.19026 0.0
C1014 C 0.89592 0.96521 0.25135 0.0
C1015 C 0.86329 0.96228 0.26849 0.0
C1016 C 0.93391 0.95562 0.25783 0.0
C1017 C 0.9707 0.9589 0.24109 0.0
C1018 C 0.95583 0.93064 0.22134 0.0
C1019 C -0.00917 0.93412 0.20562 0.0
C1020 C 0.04086 0.96542 0.20957 0.0
C1021 C 0.05601 -0.00679 0.22927 0.0
C1022 C 0.02113 -0.01 0.245 0.0
C1023 C 0.87395 0.88215 0.359 0.0
C1024 C 0.92049 0.89641 0.36831 0.0
C1025 C 0.86867 0.89412 0.33638 0.0
C1026 C 0.90985 0.92363 0.32229 0.0
C1027 C 0.95649 0.93751 0.33173 0.0
C1028 C 0.96159 0.92363 0.35404 0.0
C1029 C 0.90463 0.9392 0.29798 0.0
C1030 C 0.93741 0.94247 0.28061 0.0
C1031 C 0.86768 0.95081 0.29144 0.0
C1032 C 0.83452 0.95438 0.30824 0.0
C1033 C 0.85378 -0.01357 0.32664 0.0
C1034 C 0.82213 -0.01031 0.34233 0.0
C1035 C 0.77124 0.96141 0.33972 0.0
C1036 C 0.75182 0.92988 0.32136 0.0
C1037 C 0.78325 0.92644 0.30561 0.0
H1038 H 0.74685 0.96403 0.35189 0.0
H1039 H 0.06791 0.96799 0.1974 0.0
H1040 H 0.92397 0.90377 0.52824 0.0
H1041 H 0.94641 0.90846 0.5681 0.0
H1042 H 0.06588 0.88461 0.54997 0.0
H1043 H 0.04192 0.8777 0.51014 0.0
H1044 H 0.03741 0.84111 0.5864 0.0
H1045 H 0.07251 0.00399 0.56971 0.0
H1046 H 0.05845 0.07095 0.55746 0.0
H1047 H 0.94542 0.02841 0.60793 0.0
H1048 H 0.9584 0.96078 0.62032 0.0
H1049 H 0.15828 0.91662 0.69506 0.0
H1050 H 0.13608 0.91314 0.655 0.0
H1051 H -0.00132 0.9024 0.67433 0.0
H1052 H 0.02037 0.905 0.71436 0.0
H1053 H 0.03755 0.96456 0.63792 0.0
H1054 H 0.00576 0.80172 0.65437 0.0
H1055 H 0.02645 0.73984 0.66759 0.0
H1056 H 0.14113 0.78887 0.61753 0.0
H1057 H 0.12153 0.85152 0.6042 0.0
C1058 C 0.95515 0.89954 0.53259 0.0
C1059 C 0.98086 0.89038 0.51534 0.0
C1060 C 0.96855 0.9028 0.55576 0.0
C1061 C 0.00912 0.89815 0.56296 0.0
C1062 C 0.03454 0.8886 0.54566 0.0
C1063 C 0.02074 0.88473 0.52252 0.0
C1064 C 0.02426 0.90193 0.58816 0.0
C1065 C 0.03798 0.86887 0.59733 0.0
C1066 C 0.02478 0.93712 0.60352 0.0
C1067 C 0.01595 0.97686 0.59571 0.0
C1068 C 0.04427 0.00856 0.57803 0.0
C1069 C 0.03658 0.04671 0.5711 0.0
C1070 C 0.00091 0.05377 0.58184 0.0
C1071 C 0.9729 0.02276 0.59957 0.0
C1072 C 0.98041 0.98452 0.60655 0.0
C1073 C 0.12305 0.91303 0.69092 0.0
C1074 C 0.09103 0.91019 0.70851 0.0
C1075 C 0.1102 0.911 0.66773 0.0
C1076 C 0.06501 0.90682 0.66094 0.0
C1077 C 0.03358 0.90526 0.67851 0.0
C1078 C 0.04603 0.9064 0.70169 0.0
C1079 C 0.05052 0.90391 0.63585 0.0
C1080 C 0.03692 0.93701 0.6268 0.0
C1081 C 0.05078 0.86932 0.62053 0.0
C1082 C 0.0625 0.83162 0.62845 0.0
C1083 C 0.03563 0.79955 0.6463 0.0
C1084 C 0.04712 0.76429 0.65379 0.0
C1085 C 0.08516 0.76051 0.64345 0.0
C1086 C 0.11171 0.79189 0.62555 0.0
C1087 C 0.10041 0.82726 0.61801 0.0
H1088 H 0.094 0.73319 0.64927 0.0
H1089 H -0.00492 0.08339 0.57648 0.0
H1090 H 0.11093 0.94813 0.86567 0.0
H1091 H 0.13434 0.97764 0.90443 0.0
H1092 H 0.28496 0.06681 0.8829 0.0
H1093 H 0.26158 0.03728 0.84404 0.0
H1094 H 0.28748 0.03048 0.92233 0.0
H1095 H 0.20289 0.11318 0.89744 0.0
H1096 H 0.13462 0.12233 0.88243 0.0
H1097 H 0.04204 0.03583 0.93757 0.0
H1098 H 0.1095 0.02547 0.95266 0.0
H1099 H 0.29612 0.05636 1.04371 0.0
H1100 H 0.27264 0.02953 1.00463 0.0
H1101 H 0.2739 0.16388 0.9893 0.0
H1102 H 0.29797 0.19104 1.02852 0.0
H1103 H 0.19741 0.09238 0.96786 0.0
H1104 H 0.29715 0.98179 0.95781 0.0
H1105 H 0.37045 0.98104 0.97231 0.0
H1106 H 0.44008 0.13529 0.98523 0.0
H1107 H 0.36748 0.13705 0.97055 0.0
C1108 C 0.14915 0.97414 0.86899 0.0
C1109 C 0.18397 -0.01007 0.85106 0.0
C1110 C 0.16268 -0.0085 0.89149 0.0
C1111 C 0.21184 0.02552 0.89738 0.0
C1112 C 0.24674 0.04087 0.8795 0.0
C1113 C 0.23315 0.02385 0.85694 0.0
C1114 C 0.22693 0.04434 0.92186 0.0
C1115 C 0.2673 0.04372 0.93212 0.0
C1116 C 0.20204 0.06279 0.93539 0.0
C1117 C 0.16112 0.06813 0.92607 0.0
C1118 C 0.16782 0.09568 0.90624 0.0
C1119 C 0.12928 0.10116 0.89773 0.0
C1120 C 0.08397 0.07957 0.909 0.0
C1121 C 0.07711 0.05246 0.92882 0.0
C1122 C 0.11549 0.04678 0.93736 0.0
C1123 C 0.29197 0.08067 1.03206 0.0
C1124 C 0.29983 0.12646 1.03975 0.0
C1125 C 0.27851 0.06518 1.00937 0.0
C1126 C 0.2716 0.09438 0.99313 0.0
C1127 C 0.27878 0.13996 1.0009 0.0
C1128 C 0.2931 0.15587 1.02356 0.0
C1129 C 0.25729 0.07756 0.96838 0.0
C1130 C 0.21722 0.07868 0.95808 0.0
C1131 C 0.28263 0.0599 0.95472 0.0
C1132 C 0.32669 0.05941 0.96329 0.0
C1133 C 0.32819 0.01556 0.96367 0.0
C1134 C 0.36959 0.01496 0.97193 0.0
C1135 C 0.40983 0.05806 0.97975 0.0
C1136 C 0.40883 0.1019 0.97924 0.0
C1137 C 0.36754 0.10271 0.97097 0.0
H1138 H 0.44182 0.0575 0.98616 0.0
H1139 H 0.05422 0.08395 0.90242 0.0
loop_
_geom_bond_atom_site_label_1
_geom_bond_atom_site_label_2
_geom_bond_distance
_geom_bond_site_symmetry_2
_ccdc_geom_bond_type
C0 Eu1 2.835 1_556 S
C0 C2 1.500 . S
C0 O20 1.257 . S
C0 O21 1.260 . S
Eu1 C0 2.835 1_554 S
Eu1 O20 2.473 1_554 S
Eu1 O21 2.480 1_554 S
Eu1 O22 2.430 . S
Eu1 O23 2.670 . S
Eu1 O24 2.394 1_554 S
Eu1 O29 2.355 . S
Eu1 O31 2.374 . S
C2 C0 1.500 . S
C2 C3 1.377 . S
C2 C7 1.377 . S
C3 C2 1.377 . S
C3 C4 1.395 . S
C3 H32 0.931 . S
C4 C3 1.395 . S
C4 C5 1.383 . S
C4 H33 0.931 . S
C5 C4 1.383 . S
C5 C6 1.394 . S
C6 C5 1.394 . S
C6 C7 1.378 . S
C6 H34 0.931 . S
C7 C2 1.377 . S
C7 C6 1.378 . S
C7 H35 0.931 . S
C8 O22 1.259 . S
C8 O23 1.270 . S
C9 O24 1.251 . S
C9 O25 1.251 1_556 S
C10 Eu11 2.835 . S
C10 C12 1.500 . S
C10 O26 1.257 . S
C10 O27 1.260 . S
Eu11 C10 2.835 . S
Eu11 O23 2.355 . S
Eu11 O25 2.374 . S
Eu11 O26 2.473 . S
Eu11 O27 2.480 . S
Eu11 O28 2.430 . S
Eu11 O29 2.670 . S
Eu11 O30 2.394 . S
C12 C10 1.500 . S
C12 C13 1.377 . S
C12 C17 1.377 . S
C13 C12 1.377 . S
C13 C14 1.395 . S
C13 H36 0.931 . S
C14 C13 1.395 . S
C14 C15 1.383 . S
C14 H37 0.931 . S
C15 C14 1.383 . S
C15 C16 1.394 . S
C16 C15 1.394 . S
C16 C17 1.378 . S
C16 H38 0.931 . S
C17 C12 1.377 . S
C17 C16 1.378 . S
C17 H39 0.931 . S
C18 O28 1.259 . S
C18 O29 1.270 . S
C19 O30 1.251 . S
C19 O31 1.251 . S
O20 C0 1.257 . S
O20 Eu1 2.473 1_556 S
O21 C0 1.260 . S
O21 Eu1 2.480 1_556 S
O22 Eu1 2.430 . S
O22 C8 1.259 . S
O23 Eu1 2.670 . S
O23 C8 1.270 . S
O23 Eu11 2.355 . S
O24 Eu1 2.394 1_556 S
O24 C9 1.251 . S
O25 C9 1.251 1_554 S
O25 Eu11 2.374 . S
O26 C10 1.257 . S
O26 Eu11 2.473 . S
O27 C10 1.260 . S
O27 Eu11 2.480 . S
O28 Eu11 2.430 . S
O28 C18 1.259 . S
O29 Eu1 2.355 . S
O29 Eu11 2.670 . S
O29 C18 1.270 . S
O30 Eu11 2.394 . S
O30 C19 1.251 . S
O31 Eu1 2.374 . S
O31 C19 1.251 . S
H32 C3 0.931 . S
H33 C4 0.931 . S
H34 C6 0.931 . S
H35 C7 0.931 . S
H36 C13 0.931 . S
H37 C14 0.931 . S
H38 C16 0.931 . S
H39 C17 0.931 . S
C40 Eu41 2.835 . S
C40 C42 1.500 . S
C40 O60 1.257 . S
C40 O61 1.260 . S
Eu41 C40 2.835 . S
Eu41 O60 2.473 . S
Eu41 O61 2.480 . S
Eu41 O62 2.430 . S
Eu41 O63 2.670 . S
Eu41 O64 2.394 . S
Eu41 O69 2.355 . S
Eu41 O71 2.374 . S
C42 C40 1.500 . S
C42 C43 1.377 . S
C42 C47 1.377 . S
C43 C42 1.377 . S
C43 C44 1.395 . S
C43 H72 0.931 . S
C44 C43 1.395 . S
C44 C45 1.383 . S
C44 H73 0.931 . S
C45 C44 1.383 . S
C45 C46 1.394 . S
C46 C45 1.394 . S
C46 C47 1.378 . S
C46 H74 0.931 . S
C47 C42 1.377 . S
C47 C46 1.378 . S
C47 H75 0.931 . S
C48 O62 1.259 . S
C48 O63 1.270 . S
C49 O64 1.251 . S
C49 O65 1.251 . S
C50 Eu51 2.835 . S
C50 C52 1.500 . S
C50 O66 1.257 . S
C50 O67 1.260 . S
Eu51 C50 2.835 . S
Eu51 O63 2.355 . S
Eu51 O65 2.374 . S
Eu51 O66 2.473 . S
Eu51 O67 2.480 . S
Eu51 O68 2.430 . S
Eu51 O69 2.670 . S
Eu51 O70 2.394 . S
C52 C50 1.500 . S
C52 C53 1.377 . S
C52 C57 1.377 . S
C53 C52 1.377 . S
C53 C54 1.395 . S
C53 H76 0.931 . S
C54 C53 1.395 . S
C54 C55 1.383 . S
C54 H77 0.931 . S
C55 C54 1.383 . S
C55 C56 1.394 . S
C56 C55 1.394 . S
C56 C57 1.378 . S
C56 H78 0.931 . S
C57 C52 1.377 . S
C57 C56 1.378 . S
C57 H79 0.931 . S
C58 O68 1.259 . S
C58 O69 1.270 . S
C59 O70 1.251 . S
C59 O71 1.251 . S
O60 C40 1.257 . S
O60 Eu41 2.473 . S
O61 C40 1.260 . S
O61 Eu41 2.480 . S
O62 Eu41 2.430 . S
O62 C48 1.259 . S
O63 Eu41 2.670 . S
O63 C48 1.270 . S
O63 Eu51 2.355 . S
O64 Eu41 2.394 . S
O64 C49 1.251 . S
O65 C49 1.251 . S
O65 Eu51 2.374 . S
O66 C50 1.257 . S
O66 Eu51 2.473 . S
O67 C50 1.260 . S
O67 Eu51 2.480 . S
O68 Eu51 2.430 . S
O68 C58 1.259 . S
O69 Eu41 2.355 . S
O69 Eu51 2.670 . S
O69 C58 1.270 . S
O70 Eu51 2.394 . S
O70 C59 1.251 . S
O71 Eu41 2.374 . S
O71 C59 1.251 . S
H72 C43 0.931 . S
H73 C44 0.931 . S
H74 C46 0.931 . S
H75 C47 0.931 . S
H76 C53 0.931 . S
H77 C54 0.931 . S
H78 C56 0.931 . S
H79 C57 0.931 . S
C80 Eu81 2.835 . S
C80 C82 1.500 . S
C80 O100 1.257 . S
C80 O101 1.260 . S
Eu81 C80 2.835 . S
Eu81 O100 2.473 . S
Eu81 O101 2.480 . S
Eu81 O102 2.430 . S
Eu81 O103 2.670 . S
Eu81 O104 2.394 1_655 S
Eu81 O109 2.355 1_655 S
Eu81 O111 2.374 . S
C82 C80 1.500 . S
C82 C83 1.377 . S
C82 C87 1.377 . S
C83 C82 1.377 . S
C83 C84 1.395 . S
C83 H112 0.931 . S
C84 C83 1.395 . S
C84 C85 1.383 . S
C84 H113 0.931 . S
C85 C84 1.383 . S
C85 C86 1.394 . S
C86 C85 1.394 . S
C86 C87 1.378 . S
C86 H114 0.931 . S
C87 C82 1.377 . S
C87 C86 1.378 . S
C87 H115 0.931 . S
C88 O102 1.259 . S
C88 O103 1.270 . S
C89 O104 1.251 . S
C89 O105 1.251 . S
C90 Eu91 2.835 . S
C90 C92 1.500 . S
C90 O106 1.257 . S
C90 O107 1.260 . S
Eu91 C90 2.835 . S
Eu91 O103 2.355 1_455 S
Eu91 O105 2.374 . S
Eu91 O106 2.473 . S
Eu91 O107 2.480 . S
Eu91 O108 2.430 . S
Eu91 O109 2.670 . S
Eu91 O110 2.394 1_455 S
C92 C90 1.500 . S
C92 C93 1.377 . S
C92 C97 1.377 . S
C93 C92 1.377 . S
C93 C94 1.395 . S
C93 H116 0.931 . S
C94 C93 1.395 . S
C94 C95 1.383 . S
C94 H117 0.931 . S
C95 C94 1.383 . S
C95 C96 1.394 . S
C96 C95 1.394 . S
C96 C97 1.378 . S
C96 H118 0.931 . S
C97 C92 1.377 . S
C97 C96 1.378 . S
C97 H119 0.931 . S
C98 O108 1.259 . S
C98 O109 1.270 . S
C99 O110 1.251 . S
C99 O111 1.251 . S
O100 C80 1.257 . S
O100 Eu81 2.473 . S
O101 C80 1.260 . S
O101 Eu81 2.480 . S
O102 Eu81 2.430 . S
O102 C88 1.259 . S
O103 Eu81 2.670 . S
O103 C88 1.270 . S
O103 Eu91 2.355 1_655 S
O104 Eu81 2.394 1_455 S
O104 C89 1.251 . S
O105 C89 1.251 . S
O105 Eu91 2.374 . S
O106 C90 1.257 . S
O106 Eu91 2.473 . S
O107 C90 1.260 . S
O107 Eu91 2.480 . S
O108 Eu91 2.430 . S
O108 C98 1.259 . S
O109 Eu81 2.355 1_455 S
O109 Eu91 2.670 . S
O109 C98 1.270 . S
O110 Eu91 2.394 1_655 S
O110 C99 1.251 . S
O111 Eu81 2.374 . S
O111 C99 1.251 . S
H112 C83 0.931 . S
H113 C84 0.931 . S
H114 C86 0.931 . S
H115 C87 0.931 . S
H116 C93 0.931 . S
H117 C94 0.931 . S
H118 C96 0.931 . S
H119 C97 0.931 . S
C120 Eu121 2.835 1_556 S
C120 C122 1.500 . S
C120 O140 1.257 . S
C120 O141 1.260 . S
Eu121 C120 2.835 1_554 S
Eu121 O140 2.473 1_554 S
Eu121 O141 2.480 1_554 S
Eu121 O142 2.430 . S
Eu121 O143 2.670 1_565 S
Eu121 O144 2.394 1_564 S
Eu121 O149 2.355 1_565 S
Eu121 O151 2.374 . S
C122 C120 1.500 . S
C122 C123 1.377 . S
C122 C127 1.377 . S
C123 C122 1.377 . S
C123 C124 1.395 . S
C123 H152 0.931 . S
C124 C123 1.395 . S
C124 C125 1.383 . S
C124 H153 0.931 . S
C125 C124 1.383 . S
C125 C126 1.394 . S
C126 C125 1.394 . S
C126 C127 1.378 . S
C126 H154 0.931 . S
C127 C122 1.377 . S
C127 C126 1.378 . S
C127 H155 0.931 . S
C128 O142 1.259 . S
C128 O143 1.270 1_565 S
C129 O144 1.251 . S
C129 O145 1.251 1_556 S
C130 Eu131 2.835 . S
C130 C132 1.500 . S
C130 O146 1.257 . S
C130 O147 1.260 . S
Eu131 C130 2.835 . S
Eu131 O143 2.355 . S
Eu131 O145 2.374 . S
Eu131 O146 2.473 . S
Eu131 O147 2.480 . S
Eu131 O148 2.430 . S
Eu131 O149 2.670 . S
Eu131 O150 2.394 . S
C132 C130 1.500 . S
C132 C133 1.377 . S
C132 C137 1.377 . S
C133 C132 1.377 . S
C133 C134 1.395 . S
C133 H156 0.931 . S
C134 C133 1.395 . S
C134 C135 1.383 . S
C134 H157 0.931 . S
C135 C134 1.383 . S
C135 C136 1.394 . S
C136 C135 1.394 . S
C136 C137 1.378 . S
C136 H158 0.931 . S
C137 C132 1.377 . S
C137 C136 1.378 . S
C137 H159 0.931 . S
C138 O148 1.259 . S
C138 O149 1.270 . S
C139 O150 1.251 1_565 S
C139 O151 1.251 . S
O140 C120 1.257 . S
O140 Eu121 2.473 1_556 S
O141 C120 1.260 . S
O141 Eu121 2.480 1_556 S
O142 Eu121 2.430 . S
O142 C128 1.259 . S
O143 Eu121 2.670 1_545 S
O143 C128 1.270 1_545 S
O143 Eu131 2.355 . S
O144 Eu121 2.394 1_546 S
O144 C129 1.251 . S
O145 C129 1.251 1_554 S
O145 Eu131 2.374 . S
O146 C130 1.257 . S
O146 Eu131 2.473 . S
O147 C130 1.260 . S
O147 Eu131 2.480 . S
O148 Eu131 2.430 . S
O148 C138 1.259 . S
O149 Eu121 2.355 1_545 S
O149 Eu131 2.670 . S
O149 C138 1.270 . S
O150 Eu131 2.394 . S
O150 C139 1.251 1_545 S
O151 Eu121 2.374 . S
O151 C139 1.251 . S
H152 C123 0.931 . S
H153 C124 0.931 . S
H154 C126 0.931 . S
H155 C127 0.931 . S
H156 C133 0.931 . S
H157 C134 0.931 . S
H158 C136 0.931 . S
H159 C137 0.931 . S
C160 Eu161 2.835 1_455 S
C160 C162 1.500 . S
C160 O180 1.257 . S
C160 O181 1.260 1_455 S
Eu161 C160 2.835 1_655 S
Eu161 O180 2.473 1_655 S
Eu161 O181 2.480 . S
Eu161 O182 2.430 . S
Eu161 O183 2.670 . S
Eu161 O184 2.394 . S
Eu161 O189 2.355 1_655 S
Eu161 O191 2.374 1_655 S
C162 C160 1.500 . S
C162 C163 1.377 . S
C162 C167 1.377 . S
C163 C162 1.377 . S
C163 C164 1.395 . S
C163 H192 0.931 1_455 S
C164 C163 1.395 . S
C164 C165 1.383 . S
C164 H193 0.931 . S
C165 C164 1.383 . S
C165 C166 1.394 . S
C166 C165 1.394 . S
C166 C167 1.378 . S
C166 H194 0.931 . S
C167 C162 1.377 . S
C167 C166 1.378 . S
C167 H195 0.931 . S
C168 O182 1.259 . S
C168 O183 1.270 . S
C169 O184 1.251 . S
C169 O185 1.251 . S
C170 Eu171 2.835 . S
C170 C172 1.500 . S
C170 O186 1.257 . S
C170 O187 1.260 . S
Eu171 C170 2.835 . S
Eu171 O183 2.355 . S
Eu171 O185 2.374 . S
Eu171 O186 2.473 . S
Eu171 O187 2.480 . S
Eu171 O188 2.430 1_655 S
Eu171 O189 2.670 1_655 S
Eu171 O190 2.394 . S
C172 C170 1.500 . S
C172 C173 1.377 . S
C172 C177 1.377 . S
C173 C172 1.377 . S
C173 C174 1.395 . S
C173 H196 0.931 . S
C174 C173 1.395 . S
C174 C175 1.383 . S
C174 H197 0.931 . S
C175 C174 1.383 . S
C175 C176 1.394 . S
C176 C175 1.394 . S
C176 C177 1.378 . S
C176 H198 0.931 . S
C177 C172 1.377 . S
C177 C176 1.378 . S
C177 H199 0.931 . S
C178 O188 1.259 . S
C178 O189 1.270 . S
C179 O190 1.251 . S
C179 O191 1.251 1_655 S
O180 C160 1.257 . S
O180 Eu161 2.473 1_455 S
O181 C160 1.260 1_655 S
O181 Eu161 2.480 . S
O182 Eu161 2.430 . S
O182 C168 1.259 . S
O183 Eu161 2.670 . S
O183 C168 1.270 . S
O183 Eu171 2.355 . S
O184 Eu161 2.394 . S
O184 C169 1.251 . S
O185 C169 1.251 . S
O185 Eu171 2.374 . S
O186 C170 1.257 . S
O186 Eu171 2.473 . S
O187 C170 1.260 . S
O187 Eu171 2.480 . S
O188 Eu171 2.430 1_455 S
O188 C178 1.259 . S
O189 Eu161 2.355 1_455 S
O189 Eu171 2.670 1_455 S
O189 C178 1.270 . S
O190 Eu171 2.394 . S
O190 C179 1.251 . S
O191 Eu161 2.374 1_455 S
O191 C179 1.251 1_455 S
H192 C163 0.931 1_655 S
H193 C164 0.931 . S
H194 C166 0.931 . S
H195 C167 0.931 . S
H196 C173 0.931 . S
H197 C174 0.931 . S
H198 C176 0.931 . S
H199 C177 0.931 . S
C200 Eu201 2.835 1_545 S
C200 C202 1.500 . S
C200 O220 1.257 . S
C200 O221 1.260 1_545 S
Eu201 C200 2.835 1_565 S
Eu201 O220 2.473 1_565 S
Eu201 O221 2.480 . S
Eu201 O222 2.430 . S
Eu201 O223 2.670 . S
Eu201 O224 2.394 . S
Eu201 O229 2.355 1_565 S
Eu201 O231 2.374 1_565 S
C202 C200 1.500 . S
C202 C203 1.377 . S
C202 C207 1.377 . S
C203 C202 1.377 . S
C203 C204 1.395 . S
C203 H232 0.931 . S
C204 C203 1.395 . S
C204 C205 1.383 . S
C204 H233 0.931 . S
C205 C204 1.383 . S
C205 C206 1.394 . S
C206 C205 1.394 . S
C206 C207 1.378 . S
C206 H234 0.931 . S
C207 C202 1.377 . S
C207 C206 1.378 . S
C207 H235 0.931 . S
C208 O222 1.259 . S
C208 O223 1.270 . S
C209 O224 1.251 . S
C209 O225 1.251 . S
C210 Eu211 2.835 . S
C210 C212 1.500 . S
C210 O226 1.257 . S
C210 O227 1.260 . S
Eu211 C210 2.835 . S
Eu211 O223 2.355 . S
Eu211 O225 2.374 . S
Eu211 O226 2.473 . S
Eu211 O227 2.480 . S
Eu211 O228 2.430 1_565 S
Eu211 O229 2.670 1_565 S
Eu211 O230 2.394 . S
C212 C210 1.500 . S
C212 C213 1.377 . S
C212 C217 1.377 . S
C213 C212 1.377 . S
C213 C214 1.395 . S
C213 H236 0.931 . S
C214 C213 1.395 . S
C214 C215 1.383 . S
C214 H237 0.931 . S
C215 C214 1.383 . S
C215 C216 1.394 . S
C216 C215 1.394 . S
C216 C217 1.378 . S
C216 H238 0.931 . S
C217 C212 1.377 . S
C217 C216 1.378 . S
C217 H239 0.931 . S
C218 O228 1.259 . S
C218 O229 1.270 . S
C219 O230 1.251 1_545 S
C219 O231 1.251 . S
O220 C200 1.257 . S
O220 Eu201 2.473 1_545 S
O221 C200 1.260 1_565 S
O221 Eu201 2.480 . S
O222 Eu201 2.430 . S
O222 C208 1.259 . S
O223 Eu201 2.670 . S
O223 C208 1.270 . S
O223 Eu211 2.355 . S
O224 Eu201 2.394 . S
O224 C209 1.251 . S
O225 C209 1.251 . S
O225 Eu211 2.374 . S
O226 C210 1.257 . S
O226 Eu211 2.473 . S
O227 C210 1.260 . S
O227 Eu211 2.480 . S
O228 Eu211 2.430 1_545 S
O228 C218 1.259 . S
O229 Eu201 2.355 1_545 S
O229 Eu211 2.670 1_545 S
O229 C218 1.270 . S
O230 Eu211 2.394 . S
O230 C219 1.251 1_565 S
O231 Eu201 2.374 1_545 S
O231 C219 1.251 . S
H232 C203 0.931 . S
H233 C204 0.931 . S
H234 C206 0.931 . S
H235 C207 0.931 . S
H236 C213 0.931 . S
H237 C214 0.931 . S
H238 C216 0.931 . S
H239 C217 0.931 . S
H240 C258 0.951 1_556 S
H241 C260 0.949 1_456 S
H242 C262 0.950 1_455 S
H243 C263 0.950 1_565 S
H244 C265 0.950 . S
H245 C268 0.991 . S
H246 C269 0.950 . S
H247 C271 0.950 . S
H248 C272 0.950 . S
H249 C273 0.951 . S
H250 C275 0.951 . S
H251 C277 0.950 1_556 S
H252 C278 0.950 1_556 S
H253 C280 0.950 1_556 S
H254 C283 0.950 . S
H255 C284 0.950 . S
H256 C286 0.950 . S
H257 C287 0.950 . S
C258 H240 0.951 1_554 S
C258 C259 1.366 1_545 S
C258 C260 1.388 . S
C259 C258 1.366 1_565 S
C259 C263 1.385 1_565 S
C260 H241 0.949 1_654 S
C260 C258 1.388 . S
C260 C261 1.366 1_655 S
C261 C260 1.366 1_455 S
C261 C262 1.414 1_455 S
C261 C264 1.499 . S
C262 H242 0.950 1_655 S
C262 C261 1.414 1_655 S
C262 C263 1.374 . S
C263 H243 0.950 1_545 S
C263 C259 1.385 1_545 S
C263 C262 1.374 . S
C264 C261 1.499 . S
C264 C265 1.373 . S
C264 C266 1.389 . S
C265 H244 0.950 . S
C265 C264 1.373 . S
C265 C281 1.377 . S
C266 C264 1.389 . S
C266 C267 1.524 1_554 S
C266 C280 1.377 . S
C267 C266 1.524 1_556 S
C267 C268 1.381 1_546 S
C267 C272 1.363 . S
C268 H245 0.991 . S
C268 C267 1.381 1_564 S
C268 C269 1.310 1_554 S
C269 H246 0.950 . S
C269 C268 1.310 1_556 S
C269 C270 1.287 . S
C270 C269 1.287 . S
C270 C271 1.524 1_565 S
C270 H289 0.913 . S
C271 H247 0.950 . S
C271 C270 1.524 1_545 S
C271 C272 1.415 . S
C272 H248 0.950 . S
C272 C267 1.363 . S
C272 C271 1.415 . S
C273 H249 0.951 . S
C273 C274 1.366 . S
C273 C275 1.388 . S
C274 C273 1.366 . S
C274 C278 1.385 . S
C275 H250 0.951 . S
C275 C273 1.388 . S
C275 C276 1.366 . S
C276 C275 1.366 . S
C276 C277 1.414 . S
C276 C279 1.499 . S
C277 H251 0.950 1_554 S
C277 C276 1.414 . S
C277 C278 1.374 . S
C278 H252 0.950 1_554 S
C278 C274 1.385 . S
C278 C277 1.374 . S
C279 C276 1.499 . S
C279 C280 1.373 . S
C279 C281 1.389 . S
C280 H253 0.950 1_554 S
C280 C266 1.377 . S
C280 C279 1.373 . S
C281 C265 1.377 . S
C281 C279 1.389 . S
C281 C282 1.524 . S
C282 C281 1.524 . S
C282 C283 1.397 . S
C282 C287 1.363 . S
C283 H254 0.950 . S
C283 C282 1.397 . S
C283 C284 1.334 . S
C284 H255 0.950 . S
C284 C283 1.334 . S
C284 C285 1.287 . S
C285 C284 1.287 . S
C285 C286 1.524 . S
C285 H288 0.999 . S
C286 H256 0.950 . S
C286 C285 1.524 . S
C286 C287 1.415 . S
C287 H257 0.950 . S
C287 C282 1.363 . S
C287 C286 1.415 . S
H288 C285 0.999 . S
H289 C270 0.913 . S
H290 C308 0.951 . S
H291 C310 0.951 1_545 S
H292 C312 0.950 1_545 S
H293 C313 0.950 1_655 S
H294 C315 0.950 . S
H295 C318 0.950 . S
H296 C319 0.950 . S
H297 C321 0.950 . S
H298 C322 0.950 . S
H299 C323 0.951 . S
H300 C325 0.951 . S
H301 C327 0.950 . S
H302 C328 0.950 . S
H303 C330 0.950 . S
H304 C333 0.950 . S
H305 C334 0.950 . S
H306 C336 0.950 . S
H307 C337 0.950 1_655 S
C308 H290 0.951 . S
C308 C309 1.366 . S
C308 C310 1.388 . S
C309 C308 1.366 . S
C309 C313 1.385 . S
C310 H291 0.951 1_565 S
C310 C308 1.388 . S
C310 C311 1.366 1_565 S
C311 C310 1.366 1_545 S
C311 C312 1.414 1_545 S
C311 C314 1.499 . S
C312 H292 0.950 1_565 S
C312 C311 1.414 1_565 S
C312 C313 1.374 . S
C313 H293 0.950 1_455 S
C313 C309 1.385 . S
C313 C312 1.374 . S
C314 C311 1.499 . S
C314 C315 1.373 . S
C314 C316 1.389 . S
C315 H294 0.950 . S
C315 C314 1.373 . S
C315 C331 1.377 . S
C316 C314 1.389 . S
C316 C317 1.524 . S
C316 C330 1.377 . S
C317 C316 1.524 . S
C317 C318 1.397 . S
C317 C322 1.363 . S
C318 H295 0.950 . S
C318 C317 1.397 . S
C318 C319 1.334 . S
C319 H296 0.950 . S
C319 C318 1.334 . S
C319 C320 1.287 . S
C320 C319 1.287 . S
C320 C321 1.524 . S
C320 H339 0.913 . S
C321 H297 0.950 . S
C321 C320 1.524 . S
C321 C322 1.415 . S
C322 H298 0.950 . S
C322 C317 1.363 . S
C322 C321 1.415 . S
C323 H299 0.951 . S
C323 C324 1.366 . S
C323 C325 1.388 . S
C324 C323 1.366 . S
C324 C328 1.385 . S
C325 H300 0.951 . S
C325 C323 1.388 . S
C325 C326 1.366 . S
C326 C325 1.366 . S
C326 C327 1.414 . S
C326 C329 1.499 . S
C327 H301 0.950 . S
C327 C326 1.414 . S
C327 C328 1.374 . S
C328 H302 0.950 . S
C328 C324 1.385 . S
C328 C327 1.374 . S
C329 C326 1.499 . S
C329 C330 1.373 . S
C329 C331 1.389 . S
C330 H303 0.950 . S
C330 C316 1.377 . S
C330 C329 1.373 . S
C331 C315 1.377 . S
C331 C329 1.389 . S
C331 C332 1.524 . S
C332 C331 1.524 . S
C332 C333 1.397 . S
C332 C337 1.363 . S
C333 H304 0.950 . S
C333 C332 1.397 . S
C333 C334 1.334 . S
C334 H305 0.950 . S
C334 C333 1.334 . S
C334 C335 1.287 1_455 S
C335 C334 1.287 1_655 S
C335 C336 1.524 . S
C335 H338 0.999 . S
C336 H306 0.950 . S
C336 C335 1.524 . S
C336 C337 1.415 1_655 S
C337 H307 0.950 1_455 S
C337 C332 1.363 . S
C337 C336 1.415 1_455 S
H338 C335 0.999 . S
H339 C320 0.913 . S
H340 C358 0.951 1_565 S
H341 C360 0.951 . S
H342 C362 0.950 . S
H343 C363 0.950 . S
H344 C365 0.950 . S
H345 C368 0.950 . S
H346 C369 0.950 . S
H347 C371 0.950 . S
H348 C372 0.950 . S
H349 C373 0.951 . S
H350 C375 0.951 . S
H351 C377 0.950 . S
H352 C378 0.950 . S
H353 C380 0.950 . S
H354 C383 0.950 . S
H355 C384 0.950 . S
H356 C386 0.950 . S
H357 C387 0.950 . S
C358 H340 0.951 1_545 S
C358 C359 1.366 . S
C358 C360 1.388 . S
C359 C358 1.366 . S
C359 C363 1.385 . S
C360 H341 0.951 . S
C360 C358 1.388 . S
C360 C361 1.366 . S
C361 C360 1.366 . S
C361 C362 1.414 . S
C361 C364 1.499 . S
C362 H342 0.950 . S
C362 C361 1.414 . S
C362 C363 1.374 . S
C363 H343 0.950 . S
C363 C359 1.385 . S
C363 C362 1.374 . S
C364 C361 1.499 . S
C364 C365 1.373 . S
C364 C366 1.389 . S
C365 H344 0.950 . S
C365 C364 1.373 . S
C365 C381 1.377 . S
C366 C364 1.389 . S
C366 C367 1.524 . S
C366 C380 1.377 . S
C367 C366 1.524 . S
C367 C368 1.397 . S
C367 C372 1.363 . S
C368 H345 0.950 . S
C368 C367 1.397 . S
C368 C369 1.334 . S
C369 H346 0.950 . S
C369 C368 1.334 . S
C369 C370 1.287 . S
C370 C369 1.287 . S
C370 C371 1.524 1_545 S
C370 H389 0.913 1_545 S
C371 H347 0.950 . S
C371 C370 1.524 1_565 S
C371 C372 1.415 1_565 S
C372 H348 0.950 . S
C372 C367 1.363 . S
C372 C371 1.415 1_545 S
C373 H349 0.951 . S
C373 C374 1.366 1_455 S
C373 C375 1.388 . S
C374 C373 1.366 1_655 S
C374 C378 1.385 . S
C375 H350 0.951 . S
C375 C373 1.388 . S
C375 C376 1.366 . S
C376 C375 1.366 . S
C376 C377 1.414 1_455 S
C376 C379 1.499 . S
C377 H351 0.950 . S
C377 C376 1.414 1_655 S
C377 C378 1.374 . S
C378 H352 0.950 . S
C378 C374 1.385 . S
C378 C377 1.374 . S
C379 C376 1.499 . S
C379 C380 1.373 . S
C379 C381 1.389 . S
C380 H353 0.950 . S
C380 C366 1.377 . S
C380 C379 1.373 . S
C381 C365 1.377 . S
C381 C379 1.389 . S
C381 C382 1.524 . S
C382 C381 1.524 . S
C382 C383 1.397 . S
C382 C387 1.363 . S
C383 H354 0.950 . S
C383 C382 1.397 . S
C383 C384 1.334 . S
C384 H355 0.950 . S
C384 C383 1.334 . S
C384 C385 1.287 . S
C385 C384 1.287 . S
C385 C386 1.524 . S
C385 H388 0.999 . S
C386 H356 0.950 . S
C386 C385 1.524 . S
C386 C387 1.415 . S
C387 H357 0.950 . S
C387 C382 1.363 . S
C387 C386 1.415 . S
H388 C385 0.999 . S
H389 C370 0.913 1_565 S
H390 C408 0.951 . S
H391 C410 0.951 . S
H392 C412 0.950 . S
H393 C413 0.950 . S
H394 C415 0.950 . S
H395 C418 0.950 . S
H396 C419 0.950 . S
H397 C421 0.950 . S
H398 C422 0.950 . S
H399 C423 0.951 . S
H400 C425 0.951 . S
H401 C427 0.950 . S
H402 C428 0.950 . S
H403 C430 0.950 . S
H404 C433 0.950 . S
H405 C434 0.950 . S
H406 C436 0.950 . S
H407 C437 0.950 . S
C408 H390 0.951 . S
C408 C409 1.366 . S
C408 C410 1.388 . S
C409 C408 1.366 . S
C409 C413 1.385 . S
C410 H391 0.951 . S
C410 C408 1.388 . S
C410 C411 1.366 . S
C411 C410 1.366 . S
C411 C412 1.414 . S
C411 C414 1.499 . S
C412 H392 0.950 . S
C412 C411 1.414 . S
C412 C413 1.374 . S
C413 H393 0.950 . S
C413 C409 1.385 . S
C413 C412 1.374 . S
C414 C411 1.499 . S
C414 C415 1.373 . S
C414 C416 1.389 . S
C415 H394 0.950 . S
C415 C414 1.373 . S
C415 C431 1.377 . S
C416 C414 1.389 . S
C416 C417 1.524 . S
C416 C430 1.377 . S
C417 C416 1.524 . S
C417 C418 1.397 . S
C417 C422 1.363 . S
C418 H395 0.950 . S
C418 C417 1.397 . S
C418 C419 1.334 . S
C419 H396 0.950 . S
C419 C418 1.334 . S
C419 C420 1.287 . S
C420 C419 1.287 . S
C420 C421 1.524 . S
C420 H439 0.913 . S
C421 H397 0.950 . S
C421 C420 1.524 . S
C421 C422 1.415 . S
C422 H398 0.950 . S
C422 C417 1.363 . S
C422 C421 1.415 . S
C423 H399 0.951 . S
C423 C424 1.366 . S
C423 C425 1.388 . S
C424 C423 1.366 . S
C424 C428 1.385 . S
C425 H400 0.951 . S
C425 C423 1.388 . S
C425 C426 1.366 . S
C426 C425 1.366 . S
C426 C427 1.414 . S
C426 C429 1.499 . S
C427 H401 0.950 . S
C427 C426 1.414 . S
C427 C428 1.374 . S
C428 H402 0.950 . S
C428 C424 1.385 . S
C428 C427 1.374 . S
C429 C426 1.499 . S
C429 C430 1.373 . S
C429 C431 1.389 . S
C430 H403 0.950 . S
C430 C416 1.377 . S
C430 C429 1.373 . S
C431 C415 1.377 . S
C431 C429 1.389 . S
C431 C432 1.524 . S
C432 C431 1.524 . S
C432 C433 1.397 . S
C432 C437 1.363 . S
C433 H404 0.950 . S
C433 C432 1.397 . S
C433 C434 1.334 . S
C434 H405 0.950 . S
C434 C433 1.334 . S
C434 C435 1.287 . S
C435 C434 1.287 . S
C435 C436 1.524 . S
C435 H438 0.999 . S
C436 H406 0.950 . S
C436 C435 1.524 . S
C436 C437 1.415 . S
C437 H407 0.950 . S
C437 C432 1.363 . S
C437 C436 1.415 . S
H438 C435 0.999 . S
H439 C420 0.913 . S
H440 C458 0.951 . S
H441 C460 0.951 . S
H442 C462 0.950 . S
H443 C463 0.950 . S
H444 C465 0.950 1_655 S
H445 C468 0.950 . S
H446 C469 0.950 . S
H447 C471 0.950 . S
H448 C472 0.950 . S
H449 C473 0.951 . S
H450 C475 0.951 . S
H451 C477 0.950 . S
H452 C478 0.950 . S
H453 C480 0.950 . S
H454 C483 0.950 . S
H455 C484 0.950 . S
H456 C486 0.950 . S
H457 C487 0.950 . S
C458 H440 0.951 . S
C458 C459 1.366 . S
C458 C460 1.388 . S
C459 C458 1.366 . S
C459 C463 1.385 . S
C460 H441 0.951 . S
C460 C458 1.388 . S
C460 C461 1.366 . S
C461 C460 1.366 . S
C461 C462 1.414 . S
C461 C464 1.499 . S
C462 H442 0.950 . S
C462 C461 1.414 . S
C462 C463 1.374 . S
C463 H443 0.950 . S
C463 C459 1.385 . S
C463 C462 1.374 . S
C464 C461 1.499 . S
C464 C465 1.373 . S
C464 C466 1.389 . S
C465 H444 0.950 1_455 S
C465 C464 1.373 . S
C465 C481 1.377 1_455 S
C466 C464 1.389 . S
C466 C467 1.524 . S
C466 C480 1.377 . S
C467 C466 1.524 . S
C467 C468 1.397 . S
C467 C472 1.363 . S
C468 H445 0.950 . S
C468 C467 1.397 . S
C468 C469 1.334 . S
C469 H446 0.950 . S
C469 C468 1.334 . S
C469 C470 1.287 . S
C470 C469 1.287 . S
C470 C471 1.524 . S
C470 H489 0.913 . S
C471 H447 0.950 . S
C471 C470 1.524 . S
C471 C472 1.415 . S
C472 H448 0.950 . S
C472 C467 1.363 . S
C472 C471 1.415 . S
C473 H449 0.951 . S
C473 C474 1.366 . S
C473 C475 1.388 . S
C474 C473 1.366 . S
C474 C478 1.385 . S
C475 H450 0.951 . S
C475 C473 1.388 . S
C475 C476 1.366 . S
C476 C475 1.366 . S
C476 C477 1.414 . S
C476 C479 1.499 . S
C477 H451 0.950 . S
C477 C476 1.414 . S
C477 C478 1.374 . S
C478 H452 0.950 . S
C478 C474 1.385 . S
C478 C477 1.374 . S
C479 C476 1.499 . S
C479 C480 1.373 1_655 S
C479 C481 1.389 . S
C480 H453 0.950 . S
C480 C466 1.377 . S
C480 C479 1.373 1_455 S
C481 C465 1.377 1_655 S
C481 C479 1.389 . S
C481 C482 1.524 . S
C482 C481 1.524 . S
C482 C483 1.397 . S
C482 C487 1.363 . S
C483 H454 0.950 . S
C483 C482 1.397 . S
C483 C484 1.334 . S
C484 H455 0.950 . S
C484 C483 1.334 . S
C484 C485 1.287 . S
C485 C484 1.287 . S
C485 C486 1.524 . S
C485 H488 0.999 . S
C486 H456 0.950 . S
C486 C485 1.524 . S
C486 C487 1.415 . S
C487 H457 0.950 . S
C487 C482 1.363 . S
C487 C486 1.415 . S
H488 C485 0.999 . S
H489 C470 0.913 . S
H490 C508 0.951 . S
H491 C510 0.951 . S
H492 C512 0.950 . S
H493 C513 0.950 . S
H494 C515 0.950 . S
H495 C518 0.950 . S
H496 C519 0.950 . S
H497 C521 0.950 . S
H498 C522 0.950 . S
H499 C523 0.951 . S
H500 C525 0.951 . S
H501 C527 0.950 . S
H502 C528 0.950 . S
H503 C530 0.950 . S
H504 C533 0.950 1_565 S
H505 C534 0.950 . S
H506 C536 0.950 . S
H507 C537 0.950 . S
C508 H490 0.951 . S
C508 C509 1.366 . S
C508 C510 1.388 . S
C509 C508 1.366 . S
C509 C513 1.385 . S
C510 H491 0.951 . S
C510 C508 1.388 . S
C510 C511 1.366 . S
C511 C510 1.366 . S
C511 C512 1.414 . S
C511 C514 1.499 . S
C512 H492 0.950 . S
C512 C511 1.414 . S
C512 C513 1.374 . S
C513 H493 0.950 . S
C513 C509 1.385 . S
C513 C512 1.374 . S
C514 C511 1.499 . S
C514 C515 1.373 . S
C514 C516 1.389 . S
C515 H494 0.950 . S
C515 C514 1.373 . S
C515 C531 1.377 . S
C516 C514 1.389 . S
C516 C517 1.523 1_545 S
C516 C530 1.377 1_545 S
C517 C516 1.523 1_565 S
C517 C518 1.395 1_565 S
C517 C522 1.366 . S
C518 H495 0.950 . S
C518 C517 1.395 1_545 S
C518 C519 1.334 . S
C519 H496 0.950 . S
C519 C518 1.334 . S
C519 C520 1.287 1_545 S
C520 C519 1.287 1_565 S
C520 C521 1.524 . S
C520 H539 0.913 . S
C521 H497 0.950 . S
C521 C520 1.524 . S
C521 C522 1.415 . S
C522 H498 0.950 . S
C522 C517 1.366 . S
C522 C521 1.415 . S
C523 H499 0.951 . S
C523 C524 1.366 . S
C523 C525 1.388 . S
C524 C523 1.366 . S
C524 C528 1.385 . S
C525 H500 0.951 . S
C525 C523 1.388 . S
C525 C526 1.366 . S
C526 C525 1.366 . S
C526 C527 1.414 . S
C526 C529 1.499 . S
C527 H501 0.950 . S
C527 C526 1.414 . S
C527 C528 1.374 . S
C528 H502 0.950 . S
C528 C524 1.385 . S
C528 C527 1.374 . S
C529 C526 1.499 . S
C529 C530 1.373 . S
C529 C531 1.389 1_565 S
C530 H503 0.950 . S
C530 C516 1.377 1_565 S
C530 C529 1.373 . S
C531 C515 1.377 . S
C531 C529 1.389 1_545 S
C531 C532 1.524 . S
C532 C531 1.524 . S
C532 C533 1.397 . S
C532 C537 1.363 . S
C533 H504 0.950 1_545 S
C533 C532 1.397 . S
C533 C534 1.334 . S
C534 H505 0.950 . S
C534 C533 1.334 . S
C534 C535 1.287 . S
C535 C534 1.287 . S
C535 C536 1.524 . S
C535 H538 0.999 . S
C536 H506 0.950 . S
C536 C535 1.524 . S
C536 C537 1.415 . S
C537 H507 0.950 . S
C537 C532 1.363 . S
C537 C536 1.415 . S
H538 C535 0.999 . S
H539 C520 0.913 . S
H540 C558 0.951 . S
H541 C560 0.951 . S
H542 C562 0.950 . S
H543 C563 0.950 . S
H544 C565 0.950 . S
H545 C568 0.950 . S
H546 C569 0.950 . S
H547 C571 0.950 . S
H548 C572 0.950 . S
H549 C573 0.951 . S
H550 C575 0.951 . S
H551 C577 0.950 . S
H552 C578 0.950 . S
H553 C580 0.950 1_455 S
H554 C583 0.950 . S
H555 C584 0.950 . S
H556 C586 0.950 . S
H557 C587 0.950 . S
C558 H540 0.951 . S
C558 C559 1.366 . S
C558 C560 1.388 . S
C559 C558 1.366 . S
C559 C563 1.385 . S
C560 H541 0.951 . S
C560 C558 1.388 . S
C560 C561 1.366 . S
C561 C560 1.366 . S
C561 C562 1.414 . S
C561 C564 1.499 . S
C562 H542 0.950 . S
C562 C561 1.414 . S
C562 C563 1.374 . S
C563 H543 0.950 . S
C563 C559 1.385 . S
C563 C562 1.374 . S
C564 C561 1.499 . S
C564 C565 1.373 . S
C564 C566 1.389 . S
C565 H544 0.950 . S
C565 C564 1.373 . S
C565 C581 1.377 . S
C566 C564 1.389 . S
C566 C567 1.524 . S
C566 C580 1.377 . S
C567 C566 1.524 . S
C567 C568 1.397 . S
C567 C572 1.363 1_655 S
C568 H545 0.950 . S
C568 C567 1.397 . S
C568 C569 1.334 1_565 S
C569 H546 0.950 . S
C569 C568 1.334 1_545 S
C569 C570 1.287 . S
C570 C569 1.287 . S
C570 C571 1.524 1_655 S
C570 H589 0.913 . S
C571 H547 0.950 . S
C571 C570 1.524 1_455 S
C571 C572 1.415 1_545 S
C572 H548 0.950 . S
C572 C567 1.363 1_455 S
C572 C571 1.415 1_565 S
C573 H549 0.951 . S
C573 C574 1.366 . S
C573 C575 1.388 1_455 S
C574 C573 1.366 . S
C574 C578 1.385 . S
C575 H550 0.951 . S
C575 C573 1.388 1_655 S
C575 C576 1.366 1_655 S
C576 C575 1.366 1_455 S
C576 C577 1.414 . S
C576 C579 1.499 1_455 S
C577 H551 0.950 . S
C577 C576 1.414 . S
C577 C578 1.374 . S
C578 H552 0.950 . S
C578 C574 1.385 . S
C578 C577 1.374 . S
C579 C576 1.499 1_655 S
C579 C580 1.373 . S
C579 C581 1.389 . S
C580 H553 0.950 1_655 S
C580 C566 1.377 . S
C580 C579 1.373 . S
C581 C565 1.377 . S
C581 C579 1.389 . S
C581 C582 1.524 . S
C582 C581 1.524 . S
C582 C583 1.397 . S
C582 C587 1.363 . S
C583 H554 0.950 . S
C583 C582 1.397 . S
C583 C584 1.334 . S
C584 H555 0.950 . S
C584 C583 1.334 . S
C584 C585 1.287 . S
C585 C584 1.287 . S
C585 C586 1.524 . S
C585 H588 0.999 . S
C586 H556 0.950 . S
C586 C585 1.524 . S
C586 C587 1.415 . S
C587 H557 0.950 . S
C587 C582 1.363 . S
C587 C586 1.415 . S
H588 C585 0.999 . S
H589 C570 0.913 . S
H590 C608 0.951 . S
H591 C610 0.951 . S
H592 C612 0.950 . S
H593 C613 0.950 . S
H594 C615 0.950 . S
H595 C618 0.950 . S
H596 C619 0.950 . S
H597 C621 0.950 . S
H598 C622 0.950 . S
H599 C623 0.951 . S
H600 C625 0.951 . S
H601 C627 0.950 . S
H602 C628 0.950 . S
H603 C630 0.950 . S
H604 C633 0.950 . S
H605 C634 0.950 . S
H606 C636 0.950 . S
H607 C637 0.950 . S
C608 H590 0.951 . S
C608 C609 1.366 . S
C608 C610 1.388 . S
C609 C608 1.366 . S
C609 C613 1.385 . S
C610 H591 0.951 . S
C610 C608 1.388 . S
C610 C611 1.366 . S
C611 C610 1.366 . S
C611 C612 1.414 . S
C611 C614 1.499 . S
C612 H592 0.950 . S
C612 C611 1.414 . S
C612 C613 1.374 . S
C613 H593 0.950 . S
C613 C609 1.385 . S
C613 C612 1.374 . S
C614 C611 1.499 . S
C614 C615 1.373 . S
C614 C616 1.389 . S
C615 H594 0.950 . S
C615 C614 1.373 . S
C615 C631 1.377 . S
C616 C614 1.389 . S
C616 C617 1.524 . S
C616 C630 1.377 . S
C617 C616 1.524 . S
C617 C618 1.397 . S
C617 C622 1.363 . S
C618 H595 0.950 . S
C618 C617 1.397 . S
C618 C619 1.334 . S
C619 H596 0.950 . S
C619 C618 1.334 . S
C619 C620 1.287 . S
C620 C619 1.287 . S
C620 C621 1.524 . S
C620 H639 0.913 . S
C621 H597 0.950 . S
C621 C620 1.524 . S
C621 C622 1.415 . S
C622 H598 0.950 . S
C622 C617 1.363 . S
C622 C621 1.415 . S
C623 H599 0.951 . S
C623 C624 1.366 . S
C623 C625 1.388 . S
C624 C623 1.366 . S
C624 C628 1.385 . S
C625 H600 0.951 . S
C625 C623 1.388 . S
C625 C626 1.366 . S
C626 C625 1.366 . S
C626 C627 1.414 . S
C626 C629 1.499 1_545 S
C627 H601 0.950 . S
C627 C626 1.414 . S
C627 C628 1.374 . S
C628 H602 0.950 . S
C628 C624 1.385 . S
C628 C627 1.374 . S
C629 C626 1.499 1_565 S
C629 C630 1.373 . S
C629 C631 1.389 . S
C630 H603 0.950 . S
C630 C616 1.377 . S
C630 C629 1.373 . S
C631 C615 1.377 . S
C631 C629 1.389 . S
C631 C632 1.524 1_565 S
C632 C631 1.524 1_545 S
C632 C633 1.397 . S
C632 C637 1.363 . S
C633 H604 0.950 . S
C633 C632 1.397 . S
C633 C634 1.334 . S
C634 H605 0.950 . S
C634 C633 1.334 . S
C634 C635 1.287 . S
C635 C634 1.287 . S
C635 C636 1.524 . S
C635 H638 0.999 . S
C636 H606 0.950 . S
C636 C635 1.524 . S
C636 C637 1.415 . S
C637 H607 0.950 . S
C637 C632 1.363 . S
C637 C636 1.415 . S
H638 C635 0.999 . S
H639 C620 0.913 . S
H640 C658 0.951 . S
H641 C660 0.951 . S
H642 C662 0.950 . S
H643 C663 0.950 . S
H644 C665 0.950 . S
H645 C668 0.950 . S
H646 C669 0.950 . S
H647 C671 0.950 . S
H648 C672 0.950 . S
H649 C673 0.951 . S
H650 C675 0.951 . S
H651 C677 0.950 . S
H652 C678 0.950 . S
H653 C680 0.950 . S
H654 C683 0.950 . S
H655 C684 0.950 . S
H656 C686 0.950 . S
H657 C687 0.950 . S
C658 H640 0.951 . S
C658 C659 1.366 . S
C658 C660 1.388 . S
C659 C658 1.366 . S
C659 C663 1.385 . S
C660 H641 0.951 . S
C660 C658 1.388 . S
C660 C661 1.366 . S
C661 C660 1.366 . S
C661 C662 1.414 . S
C661 C664 1.499 . S
C662 H642 0.950 . S
C662 C661 1.414 . S
C662 C663 1.374 . S
C663 H643 0.950 . S
C663 C659 1.385 . S
C663 C662 1.374 . S
C664 C661 1.499 . S
C664 C665 1.373 . S
C664 C666 1.389 . S
C665 H644 0.950 . S
C665 C664 1.373 . S
C665 C681 1.377 . S
C666 C664 1.389 . S
C666 C667 1.524 . S
C666 C680 1.377 . S
C667 C666 1.524 . S
C667 C668 1.397 . S
C667 C672 1.363 . S
C668 H645 0.950 . S
C668 C667 1.397 . S
C668 C669 1.334 . S
C669 H646 0.950 . S
C669 C668 1.334 . S
C669 C670 1.287 . S
C670 C669 1.287 . S
C670 C671 1.524 . S
C670 H689 0.913 . S
C671 H647 0.950 . S
C671 C670 1.524 . S
C671 C672 1.415 . S
C672 H648 0.950 . S
C672 C667 1.363 . S
C672 C671 1.415 . S
C673 H649 0.951 . S
C673 C674 1.366 . S
C673 C675 1.388 . S
C674 C673 1.366 . S
C674 C678 1.385 . S
C675 H650 0.951 . S
C675 C673 1.388 . S
C675 C676 1.366 . S
C676 C675 1.366 . S
C676 C677 1.414 . S
C676 C679 1.499 . S
C677 H651 0.950 . S
C677 C676 1.414 . S
C677 C678 1.374 . S
C678 H652 0.950 . S
C678 C674 1.385 . S
C678 C677 1.374 . S
C679 C676 1.499 . S
C679 C680 1.373 . S
C679 C681 1.389 . S
C680 H653 0.950 . S
C680 C666 1.377 . S
C680 C679 1.373 . S
C681 C665 1.377 . S
C681 C679 1.389 . S
C681 C682 1.524 . S
C682 C681 1.524 . S
C682 C683 1.397 . S
C682 C687 1.363 . S
C683 H654 0.950 . S
C683 C682 1.397 . S
C683 C684 1.334 . S
C684 H655 0.950 . S
C684 C683 1.334 . S
C684 C685 1.287 . S
C685 C684 1.287 . S
C685 C686 1.524 . S
C685 H688 0.999 . S
C686 H656 0.950 . S
C686 C685 1.524 . S
C686 C687 1.415 . S
C687 H657 0.950 . S
C687 C682 1.363 . S
C687 C686 1.415 . S
H688 C685 0.999 . S
H689 C670 0.913 . S
H690 C708 0.951 . S
H691 C710 0.951 . S
H692 C712 0.950 . S
H693 C713 0.950 . S
H694 C715 0.950 . S
H695 C718 0.950 . S
H696 C719 0.950 . S
H697 C721 0.950 . S
H698 C722 0.950 . S
H699 C723 0.951 . S
H700 C725 0.951 . S
H701 C727 0.950 . S
H702 C728 0.950 . S
H703 C730 0.950 . S
H704 C733 0.950 . S
H705 C734 0.950 . S
H706 C736 0.950 . S
H707 C737 0.950 1_545 S
C708 H690 0.951 . S
C708 C709 1.366 . S
C708 C710 1.388 . S
C709 C708 1.366 . S
C709 C713 1.385 . S
C710 H691 0.951 . S
C710 C708 1.388 . S
C710 C711 1.366 . S
C711 C710 1.366 . S
C711 C712 1.414 . S
C711 C714 1.499 . S
C712 H692 0.950 . S
C712 C711 1.414 . S
C712 C713 1.374 . S
C713 H693 0.950 . S
C713 C709 1.385 . S
C713 C712 1.374 . S
C714 C711 1.499 . S
C714 C715 1.373 . S
C714 C716 1.389 . S
C715 H694 0.950 . S
C715 C714 1.373 . S
C715 C731 1.377 . S
C716 C714 1.389 . S
C716 C717 1.524 . S
C716 C730 1.377 . S
C717 C716 1.524 . S
C717 C718 1.397 1_554 S
C717 C722 1.363 . S
C718 H695 0.950 . S
C718 C717 1.397 1_556 S
C718 C719 1.334 . S
C719 H696 0.950 . S
C719 C718 1.334 . S
C719 C720 1.287 . S
C720 C719 1.287 . S
C720 C721 1.524 1_556 S
C720 H739 0.913 . S
C721 H697 0.950 . S
C721 C720 1.524 1_554 S
C721 C722 1.415 . S
C722 H698 0.950 . S
C722 C717 1.363 . S
C722 C721 1.415 . S
C723 H699 0.951 . S
C723 C724 1.366 1_565 S
C723 C725 1.388 1_565 S
C724 C723 1.366 1_545 S
C724 C728 1.385 . S
C725 H700 0.951 . S
C725 C723 1.388 1_545 S
C725 C726 1.366 . S
C726 C725 1.366 . S
C726 C727 1.414 . S
C726 C729 1.499 . S
C727 H701 0.950 . S
C727 C726 1.414 . S
C727 C728 1.374 . S
C728 H702 0.950 . S
C728 C724 1.385 . S
C728 C727 1.374 . S
C729 C726 1.499 . S
C729 C730 1.373 . S
C729 C731 1.389 . S
C730 H703 0.950 . S
C730 C716 1.377 . S
C730 C729 1.373 . S
C731 C715 1.377 . S
C731 C729 1.389 . S
C731 C732 1.524 . S
C732 C731 1.524 . S
C732 C733 1.397 . S
C732 C737 1.363 1_545 S
C733 H704 0.950 . S
C733 C732 1.397 . S
C733 C734 1.334 1_545 S
C734 H705 0.950 . S
C734 C733 1.334 1_565 S
C734 C735 1.287 . S
C735 C734 1.287 . S
C735 C736 1.524 . S
C735 H738 0.999 . S
C736 H706 0.950 . S
C736 C735 1.524 . S
C736 C737 1.415 . S
C737 H707 0.950 1_565 S
C737 C732 1.363 1_565 S
C737 C736 1.415 . S
H738 C735 0.999 . S
H739 C720 0.913 . S
H740 C758 0.951 . S
H741 C760 0.951 . S
H742 C762 0.950 . S
H743 C763 0.950 . S
H744 C765 0.950 . S
H745 C768 0.950 . S
H746 C769 0.950 . S
H747 C771 0.950 . S
H748 C772 0.950 . S
H749 C773 0.951 . S
H750 C775 0.951 . S
H751 C777 0.950 . S
H752 C778 0.950 . S
H753 C780 0.950 . S
H754 C783 0.950 . S
H755 C784 0.950 . S
H756 C786 0.950 . S
H757 C787 0.950 . S
C758 H740 0.951 . S
C758 C759 1.366 . S
C758 C760 1.388 . S
C759 C758 1.366 . S
C759 C763 1.385 . S
C760 H741 0.951 . S
C760 C758 1.388 . S
C760 C761 1.366 . S
C761 C760 1.366 . S
C761 C762 1.414 . S
C761 C764 1.499 . S
C762 H742 0.950 . S
C762 C761 1.414 . S
C762 C763 1.374 . S
C763 H743 0.950 . S
C763 C759 1.385 . S
C763 C762 1.374 . S
C764 C761 1.499 . S
C764 C765 1.373 . S
C764 C766 1.389 . S
C765 H744 0.950 . S
C765 C764 1.373 . S
C765 C781 1.377 . S
C766 C764 1.389 . S
C766 C767 1.524 . S
C766 C780 1.377 . S
C767 C766 1.524 . S
C767 C768 1.397 . S
C767 C772 1.363 . S
C768 H745 0.950 . S
C768 C767 1.397 . S
C768 C769 1.334 . S
C769 H746 0.950 . S
C769 C768 1.334 . S
C769 C770 1.287 . S
C770 C769 1.287 . S
C770 C771 1.524 . S
C770 H789 0.913 . S
C771 H747 0.950 . S
C771 C770 1.524 . S
C771 C772 1.415 . S
C772 H748 0.950 . S
C772 C767 1.363 . S
C772 C771 1.415 . S
C773 H749 0.951 . S
C773 C774 1.366 . S
C773 C775 1.388 . S
C774 C773 1.366 . S
C774 C778 1.385 . S
C775 H750 0.951 . S
C775 C773 1.388 . S
C775 C776 1.366 . S
C776 C775 1.366 . S
C776 C777 1.414 . S
C776 C779 1.499 . S
C777 H751 0.950 . S
C777 C776 1.414 . S
C777 C778 1.374 . S
C778 H752 0.950 . S
C778 C774 1.385 . S
C778 C777 1.374 . S
C779 C776 1.499 . S
C779 C780 1.373 . S
C779 C781 1.389 . S
C780 H753 0.950 . S
C780 C766 1.377 . S
C780 C779 1.373 . S
C781 C765 1.377 . S
C781 C779 1.389 . S
C781 C782 1.524 . S
C782 C781 1.524 . S
C782 C783 1.397 . S
C782 C787 1.363 . S
C783 H754 0.950 . S
C783 C782 1.397 . S
C783 C784 1.334 . S
C784 H755 0.950 . S
C784 C783 1.334 . S
C784 C785 1.287 . S
C785 C784 1.287 . S
C785 C786 1.524 . S
C785 H788 0.999 . S
C786 H756 0.950 . S
C786 C785 1.524 . S
C786 C787 1.415 . S
C787 H757 0.950 . S
C787 C782 1.363 . S
C787 C786 1.415 . S
H788 C785 0.999 . S
H789 C770 0.913 . S
H790 C808 0.951 . S
H791 C810 0.951 . S
H792 C812 0.950 . S
H793 C813 0.950 . S
H794 C815 0.950 . S
H795 C818 0.950 . S
H796 C819 0.950 . S
H797 C821 0.950 . S
H798 C822 0.950 . S
H799 C823 0.951 . S
H800 C825 0.951 . S
H801 C827 0.950 . S
H802 C828 0.950 . S
H803 C830 0.950 . S
H804 C833 0.950 . S
H805 C834 0.950 . S
H806 C836 0.950 . S
H807 C837 0.950 . S
C808 H790 0.951 . S
C808 C809 1.366 1_655 S
C808 C810 1.388 1_655 S
C809 C808 1.366 1_455 S
C809 C813 1.385 . S
C810 H791 0.951 . S
C810 C808 1.388 1_455 S
C810 C811 1.366 . S
C811 C810 1.366 . S
C811 C812 1.414 . S
C811 C814 1.499 . S
C812 H792 0.950 . S
C812 C811 1.414 . S
C812 C813 1.374 . S
C813 H793 0.950 . S
C813 C809 1.385 . S
C813 C812 1.374 . S
C814 C811 1.499 . S
C814 C815 1.373 . S
C814 C816 1.389 . S
C815 H794 0.950 . S
C815 C814 1.373 . S
C815 C831 1.377 . S
C816 C814 1.389 . S
C816 C817 1.524 . S
C816 C830 1.377 . S
C817 C816 1.524 . S
C817 C818 1.397 . S
C817 C822 1.363 . S
C818 H795 0.950 . S
C818 C817 1.397 . S
C818 C819 1.334 . S
C819 H796 0.950 . S
C819 C818 1.334 . S
C819 C820 1.287 . S
C820 C819 1.287 . S
C820 C821 1.524 . S
C820 H839 0.913 . S
C821 H797 0.950 . S
C821 C820 1.524 . S
C821 C822 1.415 . S
C822 H798 0.950 . S
C822 C817 1.363 . S
C822 C821 1.415 . S
C823 H799 0.951 . S
C823 C824 1.366 . S
C823 C825 1.388 . S
C824 C823 1.366 . S
C824 C828 1.385 . S
C825 H800 0.951 . S
C825 C823 1.388 . S
C825 C826 1.366 . S
C826 C825 1.366 . S
C826 C827 1.414 . S
C826 C829 1.499 . S
C827 H801 0.950 . S
C827 C826 1.414 . S
C827 C828 1.374 . S
C828 H802 0.950 . S
C828 C824 1.385 . S
C828 C827 1.374 . S
C829 C826 1.499 . S
C829 C830 1.373 . S
C829 C831 1.389 . S
C830 H803 0.950 . S
C830 C816 1.377 . S
C830 C829 1.373 . S
C831 C815 1.377 . S
C831 C829 1.389 . S
C831 C832 1.524 . S
C832 C831 1.524 . S
C832 C833 1.397 . S
C832 C837 1.363 . S
C833 H804 0.950 . S
C833 C832 1.397 . S
C833 C834 1.334 . S
C834 H805 0.950 . S
C834 C833 1.334 . S
C834 C835 1.287 . S
C835 C834 1.287 . S
C835 C836 1.524 . S
C835 H838 0.999 . S
C836 H806 0.950 . S
C836 C835 1.524 . S
C836 C837 1.415 . S
C837 H807 0.950 . S
C837 C832 1.363 . S
C837 C836 1.415 . S
H838 C835 0.999 . S
H839 C820 0.913 . S
H840 C858 0.951 . S
H841 C860 0.951 . S
H842 C862 0.950 . S
H843 C863 0.950 . S
H844 C865 0.950 . S
H845 C868 0.950 . S
H846 C869 0.950 . S
H847 C871 0.950 . S
H848 C872 0.950 . S
H849 C873 0.951 . S
H850 C875 0.951 . S
H851 C877 0.950 . S
H852 C878 0.950 . S
H853 C880 0.950 . S
H854 C883 0.950 . S
H855 C884 0.950 . S
H856 C886 0.950 . S
H857 C887 0.950 . S
C858 H840 0.951 . S
C858 C859 1.366 . S
C858 C860 1.388 . S
C859 C858 1.366 . S
C859 C863 1.385 . S
C860 H841 0.951 . S
C860 C858 1.388 . S
C860 C861 1.366 . S
C861 C860 1.366 . S
C861 C862 1.414 . S
C861 C864 1.499 . S
C862 H842 0.950 . S
C862 C861 1.414 . S
C862 C863 1.374 . S
C863 H843 0.950 . S
C863 C859 1.385 . S
C863 C862 1.374 . S
C864 C861 1.499 . S
C864 C865 1.373 . S
C864 C866 1.389 . S
C865 H844 0.950 . S
C865 C864 1.373 . S
C865 C881 1.377 . S
C866 C864 1.389 . S
C866 C867 1.524 . S
C866 C880 1.377 . S
C867 C866 1.524 . S
C867 C868 1.397 . S
C867 C872 1.363 . S
C868 H845 0.950 . S
C868 C867 1.397 . S
C868 C869 1.334 . S
C869 H846 0.950 . S
C869 C868 1.334 . S
C869 C870 1.287 . S
C870 C869 1.287 . S
C870 C871 1.524 . S
C870 H889 0.913 . S
C871 H847 0.950 . S
C871 C870 1.524 . S
C871 C872 1.415 . S
C872 H848 0.950 . S
C872 C867 1.363 . S
C872 C871 1.415 . S
C873 H849 0.951 . S
C873 C874 1.366 . S
C873 C875 1.388 . S
C874 C873 1.366 . S
C874 C878 1.385 . S
C875 H850 0.951 . S
C875 C873 1.388 . S
C875 C876 1.366 . S
C876 C875 1.366 . S
C876 C877 1.414 . S
C876 C879 1.499 . S
C877 H851 0.950 . S
C877 C876 1.414 . S
C877 C878 1.374 . S
C878 H852 0.950 . S
C878 C874 1.385 . S
C878 C877 1.374 . S
C879 C876 1.499 . S
C879 C880 1.373 . S
C879 C881 1.389 . S
C880 H853 0.950 . S
C880 C866 1.377 . S
C880 C879 1.373 . S
C881 C865 1.377 . S
C881 C879 1.389 . S
C881 C882 1.524 . S
C882 C881 1.524 . S
C882 C883 1.397 . S
C882 C887 1.363 . S
C883 H854 0.950 . S
C883 C882 1.397 . S
C883 C884 1.334 . S
C884 H855 0.950 . S
C884 C883 1.334 . S
C884 C885 1.287 . S
C885 C884 1.287 . S
C885 C886 1.524 . S
C885 H888 0.999 . S
C886 H856 0.950 . S
C886 C885 1.524 . S
C886 C887 1.415 . S
C887 H857 0.950 . S
C887 C882 1.363 . S
C887 C886 1.415 . S
H888 C885 0.999 . S
H889 C870 0.913 . S
H890 C908 0.951 . S
H891 C910 0.951 . S
H892 C912 0.950 . S
H893 C913 0.950 . S
H894 C915 0.950 . S
H895 C918 0.950 . S
H896 C919 0.950 . S
H897 C921 0.950 . S
H898 C922 0.950 . S
H899 C923 0.951 . S
H900 C925 0.951 . S
H901 C927 0.950 . S
H902 C928 0.950 . S
H903 C930 0.950 . S
H904 C933 0.950 . S
H905 C934 0.950 . S
H906 C936 0.950 1_655 S
H907 C937 0.950 . S
C908 H890 0.951 . S
C908 C909 1.366 . S
C908 C910 1.388 . S
C909 C908 1.366 . S
C909 C913 1.385 . S
C910 H891 0.951 . S
C910 C908 1.388 . S
C910 C911 1.366 . S
C911 C910 1.366 . S
C911 C912 1.414 . S
C911 C914 1.499 . S
C912 H892 0.950 . S
C912 C911 1.414 . S
C912 C913 1.374 . S
C913 H893 0.950 . S
C913 C909 1.385 . S
C913 C912 1.374 . S
C914 C911 1.499 . S
C914 C915 1.373 . S
C914 C916 1.389 . S
C915 H894 0.950 . S
C915 C914 1.373 . S
C915 C931 1.377 . S
C916 C914 1.389 . S
C916 C917 1.524 . S
C916 C930 1.377 . S
C917 C916 1.524 . S
C917 C918 1.397 . S
C917 C922 1.363 . S
C918 H895 0.950 . S
C918 C917 1.397 . S
C918 C919 1.334 . S
C919 H896 0.950 . S
C919 C918 1.334 . S
C919 C920 1.287 . S
C920 C919 1.287 . S
C920 C921 1.524 . S
C920 H939 0.913 . S
C921 H897 0.950 . S
C921 C920 1.524 . S
C921 C922 1.415 . S
C922 H898 0.950 . S
C922 C917 1.363 . S
C922 C921 1.415 . S
C923 H899 0.951 . S
C923 C924 1.366 . S
C923 C925 1.388 . S
C924 C923 1.366 . S
C924 C928 1.385 . S
C925 H900 0.951 . S
C925 C923 1.388 . S
C925 C926 1.366 . S
C926 C925 1.366 . S
C926 C927 1.414 . S
C926 C929 1.499 . S
C927 H901 0.950 . S
C927 C926 1.414 . S
C927 C928 1.374 . S
C928 H902 0.950 . S
C928 C924 1.385 . S
C928 C927 1.374 . S
C929 C926 1.499 . S
C929 C930 1.373 . S
C929 C931 1.389 . S
C930 H903 0.950 . S
C930 C916 1.377 . S
C930 C929 1.373 . S
C931 C915 1.377 . S
C931 C929 1.389 . S
C931 C932 1.524 . S
C932 C931 1.524 . S
C932 C933 1.397 . S
C932 C937 1.363 . S
C933 H904 0.950 . S
C933 C932 1.397 . S
C933 C934 1.334 . S
C934 H905 0.950 . S
C934 C933 1.334 . S
C934 C935 1.287 . S
C935 C934 1.287 . S
C935 C936 1.524 . S
C935 H938 0.999 . S
C936 H906 0.950 1_455 S
C936 C935 1.524 . S
C936 C937 1.415 . S
C937 H907 0.950 . S
C937 C932 1.363 . S
C937 C936 1.415 . S
H938 C935 0.999 . S
H939 C920 0.913 . S
H940 C958 0.951 . S
H941 C960 0.951 . S
H942 C962 0.950 . S
H943 C963 0.950 . S
H944 C965 0.950 . S
H945 C968 0.950 . S
H946 C969 0.950 . S
H947 C971 0.950 . S
H948 C972 0.950 . S
H949 C973 0.951 . S
H950 C975 0.951 . S
H951 C977 0.950 . S
H952 C978 0.950 . S
H953 C980 0.950 . S
H954 C983 0.950 . S
H955 C984 0.950 . S
H956 C986 0.950 . S
H957 C987 0.950 . S
C958 H940 0.951 . S
C958 C959 1.366 . S
C958 C960 1.388 . S
C959 C958 1.366 . S
C959 C963 1.385 . S
C960 H941 0.951 . S
C960 C958 1.388 . S
C960 C961 1.366 . S
C961 C960 1.366 . S
C961 C962 1.414 . S
C961 C964 1.499 . S
C962 H942 0.950 . S
C962 C961 1.414 . S
C962 C963 1.374 . S
C963 H943 0.950 . S
C963 C959 1.385 . S
C963 C962 1.374 . S
C964 C961 1.499 . S
C964 C965 1.373 . S
C964 C966 1.389 . S
C965 H944 0.950 . S
C965 C964 1.373 . S
C965 C981 1.377 . S
C966 C964 1.389 . S
C966 C967 1.524 . S
C966 C980 1.377 . S
C967 C966 1.524 . S
C967 C968 1.397 . S
C967 C972 1.363 . S
C968 H945 0.950 . S
C968 C967 1.397 . S
C968 C969 1.334 . S
C969 H946 0.950 . S
C969 C968 1.334 . S
C969 C970 1.287 . S
C970 C969 1.287 . S
C970 C971 1.524 1_545 S
C970 H989 0.913 1_545 S
C971 H947 0.950 . S
C971 C970 1.524 1_565 S
C971 C972 1.415 1_565 S
C972 H948 0.950 . S
C972 C967 1.363 . S
C972 C971 1.415 1_545 S
C973 H949 0.951 . S
C973 C974 1.366 . S
C973 C975 1.388 . S
C974 C973 1.366 . S
C974 C978 1.385 . S
C975 H950 0.951 . S
C975 C973 1.388 . S
C975 C976 1.366 . S
C976 C975 1.366 . S
C976 C977 1.414 . S
C976 C979 1.499 . S
C977 H951 0.950 . S
C977 C976 1.414 . S
C977 C978 1.374 . S
C978 H952 0.950 . S
C978 C974 1.385 . S
C978 C977 1.374 . S
C979 C976 1.499 . S
C979 C980 1.373 . S
C979 C981 1.389 . S
C980 H953 0.950 . S
C980 C966 1.377 . S
C980 C979 1.373 . S
C981 C965 1.377 . S
C981 C979 1.389 . S
C981 C982 1.524 . S
C982 C981 1.524 . S
C982 C983 1.397 . S
C982 C987 1.363 . S
C983 H954 0.950 . S
C983 C982 1.397 . S
C983 C984 1.334 1_655 S
C984 H955 0.950 . S
C984 C983 1.334 1_455 S
C984 C985 1.287 . S
C985 C984 1.287 . S
C985 C986 1.524 1_455 S
C985 H988 0.999 . S
C986 H956 0.950 . S
C986 C985 1.524 1_655 S
C986 C987 1.415 . S
C987 H957 0.950 . S
C987 C982 1.363 . S
C987 C986 1.415 . S
H988 C985 0.999 . S
H989 C970 0.913 1_565 S
H990 C1008 0.951 . S
H991 C1010 0.951 . S
H992 C1012 0.950 . S
H993 C1013 0.950 . S
H994 C1015 0.950 . S
H995 C1018 0.950 . S
H996 C1019 0.950 . S
H997 C1021 0.950 . S
H998 C1022 0.951 . S
H999 C1023 0.951 . S
H1000 C1025 0.951 . S
H1001 C1027 0.950 . S
H1002 C1028 0.950 . S
H1003 C1030 0.950 . S
H1004 C1033 0.950 . S
H1005 C1034 0.950 . S
H1006 C1036 0.950 . S
H1007 C1037 0.950 . S
C1008 H990 0.951 . S
C1008 C1009 1.366 . S
C1008 C1010 1.388 . S
C1009 C1008 1.366 . S
C1009 C1013 1.385 . S
C1010 H991 0.951 . S
C1010 C1008 1.388 . S
C1010 C1011 1.366 . S
C1011 C1010 1.366 . S
C1011 C1012 1.414 . S
C1011 C1014 1.499 . S
C1012 H992 0.950 . S
C1012 C1011 1.414 . S
C1012 C1013 1.374 . S
C1013 H993 0.950 . S
C1013 C1009 1.385 . S
C1013 C1012 1.374 . S
C1014 C1011 1.499 . S
C1014 C1015 1.373 . S
C1014 C1016 1.389 . S
C1015 H994 0.950 . S
C1015 C1014 1.373 . S
C1015 C1031 1.377 . S
C1016 C1014 1.389 . S
C1016 C1017 1.524 . S
C1016 C1030 1.377 . S
C1017 C1016 1.524 . S
C1017 C1018 1.397 . S
C1017 C1022 1.363 . S
C1018 H995 0.950 . S
C1018 C1017 1.397 . S
C1018 C1019 1.334 . S
C1019 H996 0.950 . S
C1019 C1018 1.334 . S
C1019 C1020 1.287 . S
C1020 C1019 1.287 . S
C1020 C1021 1.524 1_655 S
C1020 H1039 0.913 1_655 S
C1021 H997 0.950 . S
C1021 C1020 1.524 1_455 S
C1021 C1022 1.415 1_455 S
C1022 H998 0.951 . S
C1022 C1017 1.363 . S
C1022 C1021 1.415 1_655 S
C1023 H999 0.951 . S
C1023 C1024 1.366 . S
C1023 C1025 1.388 . S
C1024 C1023 1.366 . S
C1024 C1028 1.385 . S
C1025 H1000 0.951 . S
C1025 C1023 1.388 . S
C1025 C1026 1.366 . S
C1026 C1025 1.366 . S
C1026 C1027 1.414 . S
C1026 C1029 1.499 . S
C1027 H1001 0.950 . S
C1027 C1026 1.414 . S
C1027 C1028 1.374 . S
C1028 H1002 0.950 . S
C1028 C1024 1.385 . S
C1028 C1027 1.374 . S
C1029 C1026 1.499 . S
C1029 C1030 1.373 . S
C1029 C1031 1.389 . S
C1030 H1003 0.950 . S
C1030 C1016 1.377 . S
C1030 C1029 1.373 . S
C1031 C1015 1.377 . S
C1031 C1029 1.389 . S
C1031 C1032 1.524 . S
C1032 C1031 1.524 . S
C1032 C1033 1.397 . S
C1032 C1037 1.363 . S
C1033 H1004 0.950 . S
C1033 C1032 1.397 . S
C1033 C1034 1.334 . S
C1034 H1005 0.950 . S
C1034 C1033 1.334 . S
C1034 C1035 1.287 . S
C1035 C1034 1.287 . S
C1035 C1036 1.524 . S
C1035 H1038 0.999 . S
C1036 H1006 0.950 . S
C1036 C1035 1.524 . S
C1036 C1037 1.415 . S
C1037 H1007 0.950 . S
C1037 C1032 1.363 . S
C1037 C1036 1.415 . S
H1038 C1035 0.999 . S
H1039 C1020 0.913 1_455 S
H1040 C1058 0.951 . S
H1041 C1060 0.951 . S
H1042 C1062 0.950 . S
H1043 C1063 0.950 . S
H1044 C1065 0.950 . S
H1045 C1068 0.950 . S
H1046 C1069 0.950 . S
H1047 C1071 0.950 . S
H1048 C1072 0.956 1_565 S
H1049 C1073 0.951 . S
H1050 C1075 0.951 . S
H1051 C1077 0.950 . S
H1052 C1078 0.950 . S
H1053 C1080 0.950 . S
H1054 C1083 0.950 . S
H1055 C1084 0.957 . S
H1056 C1086 0.950 . S
H1057 C1087 0.950 . S
C1058 H1040 0.951 . S
C1058 C1059 1.366 . S
C1058 C1060 1.388 . S
C1059 C1058 1.366 . S
C1059 C1063 1.385 . S
C1060 H1041 0.951 . S
C1060 C1058 1.388 . S
C1060 C1061 1.366 . S
C1061 C1060 1.366 . S
C1061 C1062 1.414 . S
C1061 C1064 1.499 . S
C1062 H1042 0.950 . S
C1062 C1061 1.414 . S
C1062 C1063 1.374 . S
C1063 H1043 0.950 . S
C1063 C1059 1.385 . S
C1063 C1062 1.374 . S
C1064 C1061 1.499 . S
C1064 C1065 1.373 . S
C1064 C1066 1.389 . S
C1065 H1044 0.950 . S
C1065 C1064 1.373 . S
C1065 C1081 1.377 . S
C1066 C1064 1.389 . S
C1066 C1067 1.524 . S
C1066 C1080 1.377 . S
C1067 C1066 1.524 . S
C1067 C1068 1.397 . S
C1067 C1072 1.363 1_565 S
C1068 H1045 0.950 . S
C1068 C1067 1.397 . S
C1068 C1069 1.334 1_565 S
C1069 H1046 0.950 . S
C1069 C1068 1.334 1_545 S
C1069 C1070 1.287 . S
C1070 C1069 1.287 . S
C1070 C1071 1.524 . S
C1070 H1089 0.913 . S
C1071 H1047 0.950 . S
C1071 C1070 1.524 . S
C1071 C1072 1.415 . S
C1072 H1048 0.956 1_545 S
C1072 C1067 1.363 1_545 S
C1072 C1071 1.415 . S
C1073 H1049 0.951 . S
C1073 C1074 1.366 . S
C1073 C1075 1.388 . S
C1074 C1073 1.366 . S
C1074 C1078 1.385 . S
C1075 H1050 0.951 . S
C1075 C1073 1.388 . S
C1075 C1076 1.366 . S
C1076 C1075 1.366 . S
C1076 C1077 1.414 . S
C1076 C1079 1.499 . S
C1077 H1051 0.950 . S
C1077 C1076 1.414 . S
C1077 C1078 1.374 . S
C1078 H1052 0.950 . S
C1078 C1074 1.385 . S
C1078 C1077 1.374 . S
C1079 C1076 1.499 . S
C1079 C1080 1.373 . S
C1079 C1081 1.389 . S
C1080 H1053 0.950 . S
C1080 C1066 1.377 . S
C1080 C1079 1.373 . S
C1081 C1065 1.377 . S
C1081 C1079 1.389 . S
C1081 C1082 1.524 . S
C1082 C1081 1.524 . S
C1082 C1083 1.397 . S
C1082 C1087 1.363 . S
C1083 H1054 0.950 . S
C1083 C1082 1.397 . S
C1083 C1084 1.334 1_455 S
C1084 H1055 0.957 . S
C1084 C1083 1.334 1_655 S
C1084 C1085 1.280 1_655 S
C1085 C1084 1.280 1_455 S
C1085 C1086 1.524 . S
C1085 H1088 0.999 1_455 S
C1086 H1056 0.950 . S
C1086 C1085 1.524 . S
C1086 C1087 1.415 . S
C1087 H1057 0.950 . S
C1087 C1082 1.363 . S
C1087 C1086 1.415 . S
H1088 C1085 0.999 1_655 S
H1089 C1070 0.913 . S
H1090 C1108 0.951 . S
H1091 C1110 0.951 . S
H1092 C1112 0.950 . S
H1093 C1113 0.950 . S
H1094 C1115 0.950 . S
H1095 C1118 0.950 . S
H1096 C1119 0.950 . S
H1097 C1121 0.950 . S
H1098 C1122 0.950 . S
H1099 C1123 0.951 . S
H1100 C1125 0.951 . S
H1101 C1127 0.950 . S
H1102 C1128 0.950 . S
H1103 C1130 0.950 . S
H1104 C1133 0.950 . S
H1105 C1134 0.950 1_565 S
H1106 C1136 0.950 . S
H1107 C1137 0.950 . S
C1108 H1090 0.951 . S
C1108 C1109 1.366 . S
C1108 C1110 1.388 . S
C1109 C1108 1.366 . S
C1109 C1113 1.385 . S
C1110 H1091 0.951 . S
C1110 C1108 1.388 . S
C1110 C1111 1.366 . S
C1111 C1110 1.366 . S
C1111 C1112 1.414 . S
C1111 C1114 1.499 . S
C1112 H1092 0.950 . S
C1112 C1111 1.414 . S
C1112 C1113 1.374 . S
C1113 H1093 0.950 . S
C1113 C1109 1.385 . S
C1113 C1112 1.374 . S
C1114 C1111 1.499 . S
C1114 C1115 1.373 . S
C1114 C1116 1.389 . S
C1115 H1094 0.950 . S
C1115 C1114 1.373 . S
C1115 C1131 1.377 . S
C1116 C1114 1.389 . S
C1116 C1117 1.524 . S
C1116 C1130 1.377 . S
C1117 C1116 1.524 . S
C1117 C1118 1.397 . S
C1117 C1122 1.363 . S
C1118 H1095 0.950 . S
C1118 C1117 1.397 . S
C1118 C1119 1.334 . S
C1119 H1096 0.950 . S
C1119 C1118 1.334 . S
C1119 C1120 1.287 . S
C1120 C1119 1.287 . S
C1120 C1121 1.524 . S
C1120 H1139 0.913 . S
C1121 H1097 0.950 . S
C1121 C1120 1.524 . S
C1121 C1122 1.415 . S
C1122 H1098 0.950 . S
C1122 C1117 1.363 . S
C1122 C1121 1.415 . S
C1123 H1099 0.951 . S
C1123 C1124 1.366 . S
C1123 C1125 1.388 . S
C1124 C1123 1.366 . S
C1124 C1128 1.385 . S
C1125 H1100 0.951 . S
C1125 C1123 1.388 . S
C1125 C1126 1.366 . S
C1126 C1125 1.366 . S
C1126 C1127 1.414 . S
C1126 C1129 1.499 . S
C1127 H1101 0.950 . S
C1127 C1126 1.414 . S
C1127 C1128 1.374 . S
C1128 H1102 0.950 . S
C1128 C1124 1.385 . S
C1128 C1127 1.374 . S
C1129 C1126 1.499 . S
C1129 C1130 1.373 . S
C1129 C1131 1.389 . S
C1130 H1103 0.950 . S
C1130 C1116 1.377 . S
C1130 C1129 1.373 . S
C1131 C1115 1.377 . S
C1131 C1129 1.389 . S
C1131 C1132 1.524 . S
C1132 C1131 1.524 . S
C1132 C1133 1.397 . S
C1132 C1137 1.363 . S
C1133 H1104 0.950 . S
C1133 C1132 1.397 . S
C1133 C1134 1.334 . S
C1134 H1105 0.950 1_545 S
C1134 C1133 1.334 . S
C1134 C1135 1.287 . S
C1135 C1134 1.287 . S
C1135 C1136 1.524 . S
C1135 H1138 0.999 . S
C1136 H1106 0.950 . S
C1136 C1135 1.524 . S
C1136 C1137 1.415 . S
C1137 H1107 0.950 . S
C1137 C1132 1.363 . S
C1137 C1136 1.415 . S
H1138 C1135 0.999 . S
H1139 C1120 0.913 . S
C259 C138 0.949 1_565 S
C274 C18 0.950 . S
C309 C178 0.951 . S
C324 C58 0.950 . S
C359 C218 0.951 . S
C374 C98 0.952 1_655 S
C409 C5 0.599 . S
C424 C95 0.578 . S
C459 C45 0.596 . S
C474 C135 0.577 . S
C509 C85 0.599 . S
C524 C175 0.580 . S
C559 C125 0.598 . S
C574 C215 0.577 . S
C609 C165 0.595 . S
C624 C15 0.579 . S
C659 C205 0.597 . S
C674 C55 0.577 . S
C709 C8 1.439 . S
C724 C128 1.439 1_545 S
C759 C48 1.438 . S
C774 C168 1.438 . S
C809 C88 1.441 1_455 S
C824 C208 1.441 . S
C859 C19 3.836 . S
C874 C49 3.890 . S
C909 C59 3.836 . S
C924 C89 3.890 . S
C959 C99 3.836 . S
C974 C129 3.890 . S
C1009 C139 3.836 . S
C1024 C169 3.890 . S
C1059 C179 3.837 1_455 S
C1074 C209 3.891 . S
C1109 C219 3.836 . S
C1124 C9 3.890 . S
