# Generated by pormake.
# Topology uka, (4)-cn, num edge types: 1
# Building blocks:
#     Node 0, Type 0, BuildingBlock: NAHDIM_clean_sbu_0, # of connection points: 4
#     Node 1, Type 0, BuildingBlock: NAHDIM_clean_sbu_0, # of connection points: 4
#     Node 2, Type 0, BuildingBlock: NAHDIM_clean_sbu_0, # of connection points: 4
#     Node 3, Type 0, BuildingBlock: NAHDIM_clean_sbu_0, # of connection points: 4
#     Node 4, Type 0, BuildingBlock: NAHDIM_clean_sbu_0, # of connection points: 4
#     Node 5, Type 0, BuildingBlock: NAHDIM_clean_sbu_0, # of connection points: 4
#     Node 6, Type 0, BuildingBlock: NAHDIM_clean_sbu_0, # of connection points: 4
#     Node 7, Type 0, BuildingBlock: NAHDIM_clean_sbu_0, # of connection points: 4
#     Node 8, Type 0, BuildingBlock: NAHDIM_clean_sbu_0, # of connection points: 4
#     Node 9, Type 0, BuildingBlock: NAHDIM_clean_sbu_0, # of connection points: 4
#     Node 10, Type 0, BuildingBlock: NAHDIM_clean_sbu_0, # of connection points: 4
#     Node 11, Type 0, BuildingBlock: NAHDIM_clean_sbu_0, # of connection points: 4
#     Node 12, Type 0, BuildingBlock: NAHDIM_clean_sbu_0, # of connection points: 4
#     Node 13, Type 0, BuildingBlock: NAHDIM_clean_sbu_0, # of connection points: 4
#     Node 14, Type 0, BuildingBlock: NAHDIM_clean_sbu_0, # of connection points: 4
#     Node 15, Type 0, BuildingBlock: NAHDIM_clean_sbu_0, # of connection points: 4
#     Node 16, Type 0, BuildingBlock: NAHDIM_clean_sbu_0, # of connection points: 4
#     Node 17, Type 0, BuildingBlock: NAHDIM_clean_sbu_0, # of connection points: 4
#     Node 18, Type 0, BuildingBlock: NAHDIM_clean_sbu_0, # of connection points: 4
#     Node 19, Type 0, BuildingBlock: NAHDIM_clean_sbu_0, # of connection points: 4
#     Node 20, Type 0, BuildingBlock: NAHDIM_clean_sbu_0, # of connection points: 4
#     Node 21, Type 0, BuildingBlock: NAHDIM_clean_sbu_0, # of connection points: 4
#     Node 22, Type 0, BuildingBlock: NAHDIM_clean_sbu_0, # of connection points: 4
#     Node 23, Type 0, BuildingBlock: NAHDIM_clean_sbu_0, # of connection points: 4
#     Node 24, Type 0, BuildingBlock: NAHDIM_clean_sbu_0, # of connection points: 4
#     Node 25, Type 0, BuildingBlock: NAHDIM_clean_sbu_0, # of connection points: 4
#     Node 26, Type 0, BuildingBlock: NAHDIM_clean_sbu_0, # of connection points: 4
#     Node 27, Type 0, BuildingBlock: NAHDIM_clean_sbu_0, # of connection points: 4
#     Node 28, Type 0, BuildingBlock: NAHDIM_clean_sbu_0, # of connection points: 4
#     Node 29, Type 0, BuildingBlock: NAHDIM_clean_sbu_0, # of connection points: 4
#     Node 30, Type 0, BuildingBlock: NAHDIM_clean_sbu_0, # of connection points: 4
#     Node 31, Type 0, BuildingBlock: NAHDIM_clean_sbu_0, # of connection points: 4
#     Edge 32, Type (0, 0), BuildingBlock: ZUJKAS_clean_linker_0, # of connection points: 2
#     Edge 33, Type (0, 0), BuildingBlock: ZUJKAS_clean_linker_0, # of connection points: 2
#     Edge 34, Type (0, 0), BuildingBlock: ZUJKAS_clean_linker_0, # of connection points: 2
#     Edge 35, Type (0, 0), BuildingBlock: ZUJKAS_clean_linker_0, # of connection points: 2
#     Edge 36, Type (0, 0), BuildingBlock: ZUJKAS_clean_linker_0, # of connection points: 2
#     Edge 37, Type (0, 0), BuildingBlock: ZUJKAS_clean_linker_0, # of connection points: 2
#     Edge 38, Type (0, 0), BuildingBlock: ZUJKAS_clean_linker_0, # of connection points: 2
#     Edge 39, Type (0, 0), BuildingBlock: ZUJKAS_clean_linker_0, # of connection points: 2
#     Edge 40, Type (0, 0), BuildingBlock: ZUJKAS_clean_linker_0, # of connection points: 2
#     Edge 41, Type (0, 0), BuildingBlock: ZUJKAS_clean_linker_0, # of connection points: 2
#     Edge 42, Type (0, 0), BuildingBlock: ZUJKAS_clean_linker_0, # of connection points: 2
#     Edge 43, Type (0, 0), BuildingBlock: ZUJKAS_clean_linker_0, # of connection points: 2
#     Edge 44, Type (0, 0), BuildingBlock: ZUJKAS_clean_linker_0, # of connection points: 2
#     Edge 45, Type (0, 0), BuildingBlock: ZUJKAS_clean_linker_0, # of connection points: 2
#     Edge 46, Type (0, 0), BuildingBlock: ZUJKAS_clean_linker_0, # of connection points: 2
#     Edge 47, Type (0, 0), BuildingBlock: ZUJKAS_clean_linker_0, # of connection points: 2
#     Edge 48, Type (0, 0), BuildingBlock: ZUJKAS_clean_linker_0, # of connection points: 2
#     Edge 49, Type (0, 0), BuildingBlock: ZUJKAS_clean_linker_0, # of connection points: 2
#     Edge 50, Type (0, 0), BuildingBlock: ZUJKAS_clean_linker_0, # of connection points: 2
#     Edge 51, Type (0, 0), BuildingBlock: ZUJKAS_clean_linker_0, # of connection points: 2
#     Edge 52, Type (0, 0), BuildingBlock: ZUJKAS_clean_linker_0, # of connection points: 2
#     Edge 53, Type (0, 0), BuildingBlock: ZUJKAS_clean_linker_0, # of connection points: 2
#     Edge 54, Type (0, 0), BuildingBlock: ZUJKAS_clean_linker_0, # of connection points: 2
#     Edge 55, Type (0, 0), BuildingBlock: ZUJKAS_clean_linker_0, # of connection points: 2
#     Edge 56, Type (0, 0), BuildingBlock: ZUJKAS_clean_linker_0, # of connection points: 2
#     Edge 57, Type (0, 0), BuildingBlock: ZUJKAS_clean_linker_0, # of connection points: 2
#     Edge 58, Type (0, 0), BuildingBlock: ZUJKAS_clean_linker_0, # of connection points: 2
#     Edge 59, Type (0, 0), BuildingBlock: ZUJKAS_clean_linker_0, # of connection points: 2
#     Edge 60, Type (0, 0), BuildingBlock: ZUJKAS_clean_linker_0, # of connection points: 2
#     Edge 61, Type (0, 0), BuildingBlock: ZUJKAS_clean_linker_0, # of connection points: 2
#     Edge 62, Type (0, 0), BuildingBlock: ZUJKAS_clean_linker_0, # of connection points: 2
#     Edge 63, Type (0, 0), BuildingBlock: ZUJKAS_clean_linker_0, # of connection points: 2
#     Edge 64, Type (0, 0), BuildingBlock: ZUJKAS_clean_linker_0, # of connection points: 2
#     Edge 65, Type (0, 0), BuildingBlock: ZUJKAS_clean_linker_0, # of connection points: 2
#     Edge 66, Type (0, 0), BuildingBlock: ZUJKAS_clean_linker_0, # of connection points: 2
#     Edge 67, Type (0, 0), BuildingBlock: ZUJKAS_clean_linker_0, # of connection points: 2
#     Edge 68, Type (0, 0), BuildingBlock: ZUJKAS_clean_linker_0, # of connection points: 2
#     Edge 69, Type (0, 0), BuildingBlock: ZUJKAS_clean_linker_0, # of connection points: 2
#     Edge 70, Type (0, 0), BuildingBlock: ZUJKAS_clean_linker_0, # of connection points: 2
#     Edge 71, Type (0, 0), BuildingBlock: ZUJKAS_clean_linker_0, # of connection points: 2
#     Edge 72, Type (0, 0), BuildingBlock: ZUJKAS_clean_linker_0, # of connection points: 2
#     Edge 73, Type (0, 0), BuildingBlock: ZUJKAS_clean_linker_0, # of connection points: 2
#     Edge 74, Type (0, 0), BuildingBlock: ZUJKAS_clean_linker_0, # of connection points: 2
#     Edge 75, Type (0, 0), BuildingBlock: ZUJKAS_clean_linker_0, # of connection points: 2
#     Edge 76, Type (0, 0), BuildingBlock: ZUJKAS_clean_linker_0, # of connection points: 2
#     Edge 77, Type (0, 0), BuildingBlock: ZUJKAS_clean_linker_0, # of connection points: 2
#     Edge 78, Type (0, 0), BuildingBlock: ZUJKAS_clean_linker_0, # of connection points: 2
#     Edge 79, Type (0, 0), BuildingBlock: ZUJKAS_clean_linker_0, # of connection points: 2
#     Edge 80, Type (0, 0), BuildingBlock: ZUJKAS_clean_linker_0, # of connection points: 2
#     Edge 81, Type (0, 0), BuildingBlock: ZUJKAS_clean_linker_0, # of connection points: 2
#     Edge 82, Type (0, 0), BuildingBlock: ZUJKAS_clean_linker_0, # of connection points: 2
#     Edge 83, Type (0, 0), BuildingBlock: ZUJKAS_clean_linker_0, # of connection points: 2
#     Edge 84, Type (0, 0), BuildingBlock: ZUJKAS_clean_linker_0, # of connection points: 2
#     Edge 85, Type (0, 0), BuildingBlock: ZUJKAS_clean_linker_0, # of connection points: 2
#     Edge 86, Type (0, 0), BuildingBlock: ZUJKAS_clean_linker_0, # of connection points: 2
#     Edge 87, Type (0, 0), BuildingBlock: ZUJKAS_clean_linker_0, # of connection points: 2
#     Edge 88, Type (0, 0), BuildingBlock: ZUJKAS_clean_linker_0, # of connection points: 2
#     Edge 89, Type (0, 0), BuildingBlock: ZUJKAS_clean_linker_0, # of connection points: 2
#     Edge 90, Type (0, 0), BuildingBlock: ZUJKAS_clean_linker_0, # of connection points: 2
#     Edge 91, Type (0, 0), BuildingBlock: ZUJKAS_clean_linker_0, # of connection points: 2
#     Edge 92, Type (0, 0), BuildingBlock: ZUJKAS_clean_linker_0, # of connection points: 2
#     Edge 93, Type (0, 0), BuildingBlock: ZUJKAS_clean_linker_0, # of connection points: 2
#     Edge 94, Type (0, 0), BuildingBlock: ZUJKAS_clean_linker_0, # of connection points: 2
#     Edge 95, Type (0, 0), BuildingBlock: ZUJKAS_clean_linker_0, # of connection points: 2
# Relax obj value: 0.248
# Max RMSD: 0.250
# Mean RMSD: 0.250
data_MOF--net-uka--node1-NAHDIM_clean_sbu_0--edge1-ZUJKAS_clean_linker_0
_symmetry_space_group_name_H-M    P1
_symmetry_Int_Tables_number       1
_symmetry_cell_setting            triclinic
loop_
_symmetry_equiv_pos_as_xyz
'x, y, z'
_cell_length_a     77.347678
_cell_length_b     77.361575
_cell_length_c     53.325431
_cell_angle_alpha  90.00113
_cell_angle_beta   89.989464
_cell_angle_gamma 90.002345
loop_
_atom_site_label
_atom_site_type_symbol
_atom_site_fract_x
_atom_site_fract_y
_atom_site_fract_z
_atom_type_partial_charge
C0 C 0.1667 0.27906 0.29105 0.0
O1 O 0.15807 0.27052 0.30828 0.0
O2 O 0.12245 0.27199 0.29154 0.0
Zn3 Zn 0.1336 0.29456 0.28255 0.0
O4 O 0.12385 0.30236 0.24969 0.0
C5 C 0.1346 0.31241 0.33076 0.0
O6 O 0.14705 0.30151 0.33628 0.0
O7 O 0.15904 0.29074 0.27852 0.0
C8 C 0.1078 0.30055 0.24538 0.0
O9 O 0.09783 0.29392 0.26287 0.0
C10 C 0.12444 0.25872 0.27778 0.0
O11 O 0.1339 0.25991 0.25739 0.0
O12 O 0.1278 0.31198 0.30908 0.0
C13 C 0.96291 0.92471 0.54951 0.0
O14 O 0.97064 0.91534 0.5667 0.0
O15 O 0.97562 0.88291 0.54085 0.0
Zn16 Zn 0.95163 0.89145 0.53388 0.0
O17 O 0.94436 0.88341 0.49968 0.0
C18 C 0.94067 0.88037 0.58284 0.0
O19 O 0.95605 0.8861 0.58912 0.0
O20 O 0.95291 0.91733 0.53392 0.0
C21 C 0.93506 0.87005 0.49662 0.0
O22 O 0.92985 0.86131 0.51636 0.0
C23 C 0.98212 0.86896 0.5326 0.0
O24 O 0.97279 0.85881 0.51822 0.0
O25 O 0.93562 0.88196 0.56028 0.0
C26 C 0.32591 0.70332 0.76272 0.0
O27 O 0.33529 0.70266 0.74221 0.0
O28 O 0.37002 0.71758 0.7943 0.0
Zn29 Zn 0.35846 0.69541 0.7847 0.0
O30 O 0.36715 0.68793 0.75105 0.0
C31 C 0.36319 0.6815 0.83368 0.0
O32 O 0.35523 0.69587 0.83993 0.0
O33 O 0.33293 0.69985 0.78366 0.0
C34 C 0.38314 0.68546 0.74711 0.0
O35 O 0.39415 0.6875 0.76564 0.0
C36 C 0.36887 0.73139 0.78152 0.0
O37 O 0.36004 0.73133 0.76049 0.0
O38 O 0.36509 0.67792 0.81059 0.0
C39 C 0.52669 0.07606 0.03851 0.0
O40 O 0.51813 0.08387 0.05651 0.0
O41 O 0.51716 0.11995 0.0398 0.0
Zn42 Zn 0.54048 0.11002 0.03175 0.0
O43 O 0.54936 0.1212 0.00037 0.0
C44 C 0.55241 0.11364 0.08284 0.0
O45 O 0.53731 0.10683 0.0882 0.0
O46 O 0.53776 0.08455 0.02593 0.0
C47 C 0.54612 0.13703 0.99617 0.0
O48 O 0.53703 0.14584 0.0126 0.0
C49 C 0.50409 0.11696 0.02602 0.0
O50 O 0.50592 0.10731 0.00591 0.0
O51 O 0.55672 0.11551 0.06 0.0
C52 C 0.16224 0.70902 0.23761 0.0
O53 O 0.15195 0.70816 0.25716 0.0
O54 O 0.12129 0.72873 0.20187 0.0
Zn55 Zn 0.13029 0.70522 0.21092 0.0
O56 O 0.1188 0.69689 0.24256 0.0
C57 C 0.11751 0.67482 0.18534 0.0
O58 O 0.11468 0.66927 0.20826 0.0
O59 O 0.1559 0.70731 0.21577 0.0
C60 C 0.10498 0.70363 0.25097 0.0
O61 O 0.09774 0.71642 0.23864 0.0
C62 C 0.12641 0.7426 0.21227 0.0
O63 O 0.13804 0.74184 0.23018 0.0
O64 O 0.12467 0.68943 0.18214 0.0
C65 C 0.53162 0.9074 0.48975 0.0
O66 O 0.53272 0.89845 0.51062 0.0
O67 O 0.51347 0.86317 0.4623 0.0
Zn68 Zn 0.53671 0.87403 0.46783 0.0
O69 O 0.54685 0.86553 0.50014 0.0
C70 C 0.5474 0.8713 0.41681 0.0
O71 O 0.53359 0.88092 0.41344 0.0
O72 O 0.53351 0.89972 0.46887 0.0
C73 C 0.54454 0.85009 0.50749 0.0
O74 O 0.5357 0.83938 0.49331 0.0
C75 C 0.50019 0.86681 0.47529 0.0
O76 O 0.50152 0.87792 0.49382 0.0
O77 O 0.55176 0.86716 0.43898 0.0
C78 C 0.33836 0.27444 0.74573 0.0
O79 O 0.3471 0.27521 0.76682 0.0
O80 O 0.38189 0.25484 0.71547 0.0
Zn81 Zn 0.37222 0.27811 0.72429 0.0
O82 O 0.38112 0.28562 0.75791 0.0
C83 C 0.37491 0.29273 0.67505 0.0
O84 O 0.36436 0.27998 0.66953 0.0
O85 O 0.34637 0.27601 0.72504 0.0
C86 C 0.39456 0.29486 0.76061 0.0
O87 O 0.40333 0.29968 0.7407 0.0
C88 C 0.37599 0.24097 0.72494 0.0
O89 O 0.36366 0.24184 0.74183 0.0
O90 O 0.37964 0.29481 0.69767 0.0
C91 C 0.96222 0.08356 0.99439 0.0
O92 O 0.96189 0.09545 0.01197 0.0
O93 O 0.98038 0.12278 0.95288 0.0
Zn94 Zn 0.95733 0.11318 0.9633 0.0
O95 O 0.94877 0.12585 0.99366 0.0
C96 C 0.94526 0.11769 0.91272 0.0
O97 O 0.96168 0.11528 0.90745 0.0
O98 O 0.96015 0.08803 0.97164 0.0
C99 C 0.95319 0.14119 -0.0008 0.0
O100 O 0.96358 0.14972 0.98415 0.0
C101 C 0.99433 0.11951 0.96454 0.0
O102 O 0.99388 0.10962 0.98454 0.0
O103 O 0.94029 0.11669 0.93539 0.0
C104 C 0.83475 0.70248 0.73385 0.0
O105 O 0.84451 0.70094 0.75387 0.0
O106 O 0.87636 0.72156 0.6978 0.0
Zn107 Zn 0.86731 0.69855 0.70894 0.0
O108 O 0.87805 0.69226 0.74195 0.0
C109 C 0.8688 0.68203 0.66058 0.0
O110 O 0.8577 0.69416 0.6544 0.0
O111 O 0.84159 0.70092 0.7123 0.0
C112 C 0.89318 0.6971 0.74799 0.0
O113 O 0.90236 0.70616 0.73196 0.0
C114 C 0.8728 0.73529 0.70983 0.0
O115 O 0.86331 0.73428 0.73021 0.0
O116 O 0.87403 0.68106 0.68312 0.0
C117 C 0.03852 0.08597 0.47992 0.0
O118 O 0.04815 0.09496 0.49547 0.0
O119 O 0.00889 0.12705 0.4473 0.0
Zn120 Zn 0.03256 0.11919 0.45725 0.0
O121 O 0.03853 0.13007 0.49022 0.0
C122 C 0.04678 0.12315 0.40782 0.0
O123 O 0.03302 0.11421 0.40145 0.0
O124 O 0.03155 0.09353 0.46136 0.0
C125 C 0.04708 0.14401 0.49216 0.0
O126 O 0.05227 0.152 0.47175 0.0
C127 C 0.99568 0.12053 0.45788 0.0
O128 O -0.00217 0.10891 0.47558 0.0
O129 O 0.04954 0.1263 0.43085 0.0
C130 C 0.66338 0.2782 0.19499 0.0
O131 O 0.65553 0.27054 0.17617 0.0
O132 O 0.62029 0.26475 0.19807 0.0
Zn133 Zn 0.62891 0.28846 0.20651 0.0
O134 O 0.61857 0.29543 0.23945 0.0
C135 C 0.61592 0.31968 0.18353 0.0
O136 O 0.6161 0.32549 0.20668 0.0
O137 O 0.65458 0.28742 0.20999 0.0
C138 C 0.60285 0.29203 0.24425 0.0
O139 O 0.59339 0.28427 0.22716 0.0
C140 C 0.62394 0.25168 0.21148 0.0
O141 O 0.63368 0.25368 0.23145 0.0
O142 O 0.62146 0.30454 0.17906 0.0
C143 C 0.46853 0.91029 0.95488 0.0
O144 O 0.47678 0.90209 0.93694 0.0
O145 O 0.48149 0.86663 0.96104 0.0
Zn146 Zn 0.45773 0.87589 0.96805 0.0
O147 O 0.44979 0.86687 0.00129 0.0
C148 C 0.44657 0.86719 0.91825 0.0
O149 O 0.46178 0.87355 0.91238 0.0
O150 O 0.45891 0.90177 0.96973 0.0
C151 C 0.45158 0.85097 0.00661 0.0
O152 O 0.45851 0.84056 0.98994 0.0
C153 C 0.49507 0.87293 0.97085 0.0
O154 O 0.49375 0.8858 0.98681 0.0
O155 O 0.44173 0.8674 0.94103 0.0
C156 C 0.83198 0.29169 0.75238 0.0
O157 O 0.84207 0.29835 0.73509 0.0
O158 O 0.8719 0.26408 0.78911 0.0
Zn159 Zn 0.86396 0.28788 0.77974 0.0
O160 O 0.87663 0.29587 0.74905 0.0
C161 C 0.86586 0.29911 0.83071 0.0
O162 O 0.85709 0.28479 0.83437 0.0
O163 O 0.83845 0.28701 0.7732 0.0
C164 C 0.89105 0.28955 0.74227 0.0
O165 O 0.89829 0.27742 0.75593 0.0
C166 C 0.86498 0.2503 0.78093 0.0
O167 O 0.85203 0.25133 0.76506 0.0
O168 O 0.86963 0.30356 0.80843 0.0
C169 C 0.46415 0.07975 0.49933 0.0
O170 O 0.46502 0.08983 0.47955 0.0
O171 O 0.47701 0.12242 0.53737 0.0
Zn172 Zn 0.45551 0.11162 0.52356 0.0
O173 O 0.44982 0.12197 0.49012 0.0
C174 C 0.43802 0.11071 0.5705 0.0
O175 O 0.45089 0.10026 0.57586 0.0
O176 O 0.45973 0.08616 0.5203 0.0
C177 C 0.44207 0.13635 0.48787 0.0
O178 O 0.43754 0.14492 0.50811 0.0
C179 C 0.4921 0.11958 0.52892 0.0
O180 O 0.49407 0.10954 0.50925 0.0
O181 O 0.43669 0.11659 0.54833 0.0
C182 C 0.66013 0.71593 0.25136 0.0
O183 O 0.64957 0.72122 0.23364 0.0
O184 O 0.61964 0.73079 0.27971 0.0
Zn185 Zn 0.62816 0.70693 0.27193 0.0
O186 O 0.61902 0.69867 0.2389 0.0
C187 C 0.62333 0.69539 0.32223 0.0
O188 O 0.63273 0.70917 0.32692 0.0
O189 O 0.6539 0.70838 0.27047 0.0
C190 C 0.60354 0.69354 0.23621 0.0
O191 O 0.59308 0.69362 0.25563 0.0
C192 C 0.61266 0.74132 0.26451 0.0
O193 O 0.61003 0.73667 0.24113 0.0
O194 O 0.62023 0.69134 0.29959 0.0
C195 C 0.01589 0.90984 0.04336 0.0
O196 O 0.00753 0.89972 0.059 0.0
O197 O 0.00708 0.86643 0.03459 0.0
Zn198 Zn 0.02995 0.87756 0.02736 0.0
O199 O 0.03766 0.8703 0.99314 0.0
C200 C 0.04985 0.87583 0.07409 0.0
O201 O 0.04113 0.88964 0.0808 0.0
O202 O 0.02685 0.90327 0.02838 0.0
C203 C 0.03653 0.85443 0.98729 0.0
O204 O 0.03039 0.84343 0.00382 0.0
C205 C 0.99371 0.8702 0.02187 0.0
O206 O 0.99503 0.88131 0.00333 0.0
O207 O 0.04728 0.86921 0.0526 0.0
C208 C 0.67248 0.78964 0.75676 0.0
O209 O 0.66227 0.79099 0.73717 0.0
O210 O 0.63043 0.77346 0.79243 0.0
Zn211 Zn 0.64088 0.79625 0.78278 0.0
O212 O 0.63006 0.80421 0.75064 0.0
C213 C 0.63591 0.80793 0.83281 0.0
O214 O 0.64129 0.79215 0.83756 0.0
O215 O 0.66632 0.79234 0.77851 0.0
C216 C 0.6139 0.8025 0.74726 0.0
O217 O 0.60437 0.79598 0.76534 0.0
C218 C 0.63203 0.75996 0.77908 0.0
O219 O 0.64048 0.76086 0.75775 0.0
O220 O 0.63556 0.81314 0.81022 0.0
C221 C 0.454 0.42465 0.04712 0.0
O222 O 0.46202 0.41704 0.06581 0.0
O223 O 0.46367 0.38114 0.05059 0.0
Zn224 Zn 0.44081 0.39048 0.03928 0.0
O225 O 0.43479 0.37967 0.00632 0.0
C226 C 0.42655 0.38519 0.08825 0.0
O227 O 0.4408 0.39316 0.09502 0.0
O228 O 0.44321 0.41605 0.0342 0.0
C229 C 0.43616 0.36345 0.00322 0.0
O230 O 0.44135 0.35379 0.02204 0.0
C231 C 0.47756 0.38331 0.0383 0.0
O232 O 0.47709 0.39164 0.01683 0.0
O233 O 0.42317 0.38365 0.06504 0.0
C234 C 0.82819 0.21843 0.27978 0.0
O235 O 0.83619 0.22666 0.29794 0.0
O236 O 0.87256 0.22471 0.28616 0.0
Zn237 Zn 0.86167 0.20315 0.27255 0.0
O238 O 0.87259 0.19746 0.23955 0.0
C239 C 0.85995 0.18378 0.31883 0.0
O240 O 0.84901 0.19594 0.32541 0.0
O241 O 0.83639 0.20723 0.26704 0.0
C242 C 0.88877 0.19913 0.23626 0.0
O243 O 0.89845 0.20449 0.25495 0.0
C244 C 0.87262 0.23883 0.27401 0.0
O245 O 0.86542 0.2394 0.2517 0.0
O246 O 0.86626 0.18392 0.29684 0.0
C247 C 0.03816 0.58011 0.50023 0.0
O248 O 0.03626 0.5904 0.48083 0.0
O249 O 0.01825 0.61932 0.53441 0.0
Zn250 Zn 0.04237 0.61235 0.52504 0.0
O251 O 0.04957 0.62359 0.4928 0.0
C252 C 0.05504 0.61613 0.5753 0.0
O253 O 0.04171 0.6062 0.58042 0.0
O254 O 0.04195 0.5866 0.52141 0.0
C255 C 0.0452 0.63896 0.48733 0.0
O256 O 0.03584 0.6479 0.50329 0.0
C257 C 0.00571 0.61985 0.51902 0.0
O258 O 0.00847 0.61647 0.49522 0.0
O259 O 0.05824 0.61993 0.55259 0.0
C260 C 0.66151 0.22809 0.7064 0.0
O261 O 0.65219 0.23211 0.68664 0.0
O262 O 0.61809 0.24069 0.71689 0.0
Zn263 Zn 0.62865 0.21752 0.7241 0.0
O264 O 0.62038 0.20843 0.75733 0.0
C265 C 0.61458 0.1871 0.69976 0.0
O266 O 0.61225 0.18168 0.72287 0.0
O267 O 0.65424 0.22077 0.72492 0.0
C268 C 0.60702 0.21444 0.76809 0.0
O269 O 0.59838 0.22707 0.75741 0.0
C270 C 0.62392 0.25465 0.72619 0.0
O271 O 0.63698 0.25402 0.74191 0.0
O272 O 0.6218 0.20162 0.69602 0.0
C273 C 0.02693 0.4097 0.98892 0.0
O274 O 0.02777 0.40038 0.00947 0.0
O275 O 0.01318 0.36519 0.95868 0.0
Zn276 Zn 0.0355 0.37734 0.96631 0.0
O277 O 0.04473 0.36881 -0.00087 0.0
C278 C 0.04727 0.37055 0.91652 0.0
O279 O 0.03095 0.37367 0.91138 0.0
O280 O 0.03047 0.40271 0.96798 0.0
C281 C 0.04375 0.35288 0.0047 0.0
O282 O 0.03694 0.34206 0.98849 0.0
C283 C 0.0 0.36644 0.97281 0.0
O284 O 0.00103 0.37557 0.99351 0.0
O285 O 0.05248 0.37194 0.93902 0.0
C286 C 0.83306 0.78153 0.24311 0.0
O287 O 0.84308 0.78137 0.26299 0.0
O288 O 0.87618 0.7676 0.20884 0.0
Zn289 Zn 0.86486 0.78992 0.21853 0.0
O290 O 0.8746 0.79845 0.25109 0.0
C291 C 0.8638 0.80414 0.16901 0.0
O292 O 0.8539 0.79062 0.165 0.0
O293 O 0.83947 0.78548 0.22193 0.0
C294 C 0.88698 0.8092 0.2523 0.0
O295 O 0.89393 0.81504 0.23148 0.0
C296 C 0.87473 0.75383 0.22167 0.0
O297 O 0.86601 0.75417 0.2428 0.0
O298 O 0.86948 0.8069 0.191 0.0
C299 C 0.46458 0.57989 0.48563 0.0
O300 O 0.46546 0.58929 0.5061 0.0
O301 O 0.47666 0.62461 0.45571 0.0
Zn302 Zn 0.45474 0.61232 0.4648 0.0
O303 O 0.44652 0.62029 0.49844 0.0
C304 C 0.44012 0.61451 0.41576 0.0
O305 O 0.45401 0.60554 0.4101 0.0
O306 O 0.45965 0.58691 0.46532 0.0
C307 C 0.44099 0.63557 0.50168 0.0
O308 O 0.44057 0.64626 0.48254 0.0
C309 C 0.49014 0.62466 0.46931 0.0
O310 O 0.48992 0.6167 0.49106 0.0
O311 O 0.43724 0.6183 0.43856 0.0
C312 C 0.32722 0.21368 0.19794 0.0
O313 O 0.33555 0.22296 0.18121 0.0
O314 O 0.37089 0.22326 0.19871 0.0
Zn315 Zn 0.36108 0.19995 0.20694 0.0
O316 O 0.37053 0.19218 0.23998 0.0
C317 C 0.36505 0.18613 0.15706 0.0
O318 O 0.35621 0.19996 0.15081 0.0
O319 O 0.33539 0.20226 0.21029 0.0
C320 C 0.38664 0.19263 0.24449 0.0
O321 O 0.39728 0.19807 0.22697 0.0
C322 C 0.36815 0.23616 0.21293 0.0
O323 O 0.35925 0.23397 0.23368 0.0
O324 O 0.36808 0.18318 0.18009 0.0
C325 C 0.53126 0.5755 0.94209 0.0
O326 O 0.52291 0.5843 0.92485 0.0
O327 O 0.52181 0.61905 0.94528 0.0
Zn328 Zn 0.54491 0.60895 0.95388 0.0
O329 O 0.5516 0.61749 0.98792 0.0
C330 C 0.55853 0.61681 0.90515 0.0
O331 O 0.54392 0.60975 0.89788 0.0
O332 O 0.54236 0.58321 0.95563 0.0
C333 C 0.55395 0.6335 0.99191 0.0
O334 O 0.55233 0.64445 0.97322 0.0
C335 C 0.50878 0.6166 0.95934 0.0
O336 O 0.51065 0.60768 0.98013 0.0
O337 O 0.56219 0.61706 0.92838 0.0
C338 C 0.16028 0.78364 0.74132 0.0
O339 O 0.14993 0.7852 0.76072 0.0
O340 O 0.11822 0.76494 0.70677 0.0
Zn341 Zn 0.12855 0.78811 0.71465 0.0
O342 O 0.11771 0.79749 0.74591 0.0
C343 C 0.12263 0.79837 0.66382 0.0
O344 O 0.12711 0.78226 0.65948 0.0
O345 O 0.15408 0.78508 0.71935 0.0
C346 C 0.1017 0.79547 0.75031 0.0
O347 O 0.09208 0.78725 0.73388 0.0
C348 C 0.12194 0.75123 0.71873 0.0
O349 O 0.13278 0.75203 0.73766 0.0
O350 O 0.12313 0.80407 0.68616 0.0
C351 C 0.96409 0.41109 0.49251 0.0
O352 O 0.96385 0.40189 0.51322 0.0
O353 O 0.98579 0.36961 0.46191 0.0
Zn354 Zn 0.96177 0.37759 0.47003 0.0
O355 O 0.95411 0.36748 0.50285 0.0
C356 C 0.95012 0.37087 0.41994 0.0
O357 O 0.96435 0.37924 0.41417 0.0
O358 O 0.96241 0.40347 0.47155 0.0
C359 C 0.9604 0.35339 0.511 0.0
O360 O 0.97211 0.34524 0.49763 0.0
C361 C -0.00096 0.37493 0.47371 0.0
O362 O -0.0029 0.38578 0.49245 0.0
O363 O 0.94601 0.36916 0.44288 0.0
C364 C 0.33143 0.78237 0.25988 0.0
O365 O 0.3409 0.7836 0.23951 0.0
O366 O 0.37439 0.76389 0.2916 0.0
Zn367 Zn 0.36427 0.78712 0.28366 0.0
O368 O 0.3742 0.79567 0.25122 0.0
C369 C 0.36633 0.79985 0.33394 0.0
O370 O 0.35661 0.78626 0.33838 0.0
O371 O 0.33858 0.78422 0.28116 0.0
C372 C 0.39006 0.79326 0.24619 0.0
O373 O 0.39994 0.78546 0.26275 0.0
C374 C 0.37078 0.75046 0.2789 0.0
O375 O 0.36032 0.75176 0.25959 0.0
O376 O 0.37071 0.80321 0.3115 0.0
C377 C 0.95524 0.57981 0.00023 0.0
O378 O 0.95901 0.59066 0.98209 0.0
O379 O 0.97499 0.61718 0.03708 0.0
Zn380 Zn 0.95096 0.6114 0.0259 0.0
O381 O 0.9453 0.6233 0.99357 0.0
C382 C 0.93803 0.61599 0.07558 0.0
O383 O 0.95124 0.60598 0.08093 0.0
O384 O 0.95035 0.58575 0.02128 0.0
C385 C 0.94735 0.63942 0.99021 0.0
O386 O 0.95329 0.64898 0.00867 0.0
C387 C 0.98777 0.62039 0.02285 0.0
O388 O 0.98558 0.62073 -0.00157 0.0
O389 O 0.93477 0.61943 0.05276 0.0
C390 C 0.1657 0.20808 0.74933 0.0
O391 O 0.1564 0.20812 0.72872 0.0
O392 O 0.12256 0.22638 0.78203 0.0
Zn393 Zn 0.13247 0.20343 0.77204 0.0
O394 O 0.12274 0.19637 0.73883 0.0
C395 C 0.12885 0.18922 0.82113 0.0
O396 O 0.1382 0.20283 0.82693 0.0
O397 O 0.15827 0.20566 0.77028 0.0
C398 C 0.10664 0.1976 0.73455 0.0
O399 O 0.09638 0.20338 0.75231 0.0
C400 C 0.12899 0.24079 0.7754 0.0
O401 O 0.14258 0.24102 0.76064 0.0
O402 O 0.12533 0.18633 0.79824 0.0
C403 C 0.52954 0.40674 0.4948 0.0
O404 O 0.52668 0.39571 0.47653 0.0
O405 O 0.51515 0.36653 0.53309 0.0
Zn406 Zn 0.53783 0.3757 0.52072 0.0
O407 O 0.5445 0.36446 0.48829 0.0
C408 C 0.55449 0.37753 0.56855 0.0
O409 O 0.54218 0.38887 0.57282 0.0
O410 O 0.53506 0.40117 0.51573 0.0
C411 C 0.54299 0.34833 0.48447 0.0
O412 O 0.53705 0.33839 0.5025 0.0
C413 C 0.50205 0.36375 0.51929 0.0
O414 O 0.50315 0.36645 0.49502 0.0
O415 O 0.55559 0.3706 0.54701 0.0
H416 H 0.0424 0.12251 0.35685 0.0
H417 H 0.0577 0.14006 0.32575 0.0
H418 H 0.0903 0.16078 0.38408 0.0
H419 H 0.07538 0.14316 0.41508 0.0
H420 H 0.05715 0.17479 0.32667 0.0
H421 H 0.1251 0.15314 0.32881 0.0
H422 H 0.10768 0.14021 0.34138 0.0
H423 H 0.11731 0.15714 0.35994 0.0
C424 C 0.05311 0.13048 0.36295 0.0
C425 C 0.05759 0.13154 0.38846 0.0
C426 C 0.06184 0.14049 0.34514 0.0
C427 C 0.07527 0.15158 0.35254 0.0
C428 C 0.08027 0.15201 0.37782 0.0
H429 H 0.10243 0.25273 0.31673 0.0
H430 H 0.09016 0.22517 0.32992 0.0
C431 C 0.07159 0.14203 0.39559 0.0
C432 C 0.08243 0.16448 0.33486 0.0
H433 H 0.12036 0.18316 0.31657 0.0
C434 C 0.07096 0.17636 0.32395 0.0
C435 C 0.10042 0.16643 0.33099 0.0
C436 C 0.1133 0.15341 0.3407 0.0
C437 C 0.07706 0.19087 0.31095 0.0
C438 C 0.09507 0.19367 0.30919 0.0
C439 C 0.10654 0.18111 0.31833 0.0
C440 C 0.10217 0.21031 0.30027 0.0
C441 C 0.06417 0.20339 0.29996 0.0
C442 C 0.11325 0.21101 0.27949 0.0
C443 C 0.12035 0.2268 0.27188 0.0
C444 C 0.11661 0.24206 0.28517 0.0
C445 C 0.10553 0.24124 0.30603 0.0
C446 C 0.09841 0.22551 0.31351 0.0
H447 H 0.05165 0.19693 0.29585 0.0
H448 H 0.06165 0.21387 0.3137 0.0
H449 H 0.06917 0.20932 0.28244 0.0
H450 H 0.11641 0.19935 0.26919 0.0
H451 H 0.1289 0.227 0.2558 0.0
H452 H -0.00108 0.8384 0.52346 0.0
H453 H 0.02682 0.82913 0.54064 0.0
H454 H 0.03289 0.87867 0.57661 0.0
H455 H 0.00507 0.88801 0.55982 0.0
H456 H 0.06218 0.8449 0.5392 0.0
H457 H 0.03216 0.84169 0.63396 0.0
H458 H 0.01949 0.84258 0.60557 0.0
H459 H 0.02956 0.8618 0.61753 0.0
C460 C 0.00629 0.84739 0.53478 0.0
C461 C -0.00033 0.86384 0.54059 0.0
C462 C 0.02223 0.8421 0.54447 0.0
C463 C 0.03174 0.85318 0.56005 0.0
C464 C 0.02561 0.8699 0.5648 0.0
H465 H 0.11391 0.83254 0.66549 0.0
H466 H 0.09451 0.84781 0.63694 0.0
C467 C 0.0097 0.87518 0.55522 0.0
C468 C 0.04727 0.8468 0.57319 0.0
H469 H 0.06192 0.83593 0.63133 0.0
C470 C 0.06221 0.84296 0.55935 0.0
C471 C 0.04716 0.8443 0.59943 0.0
C472 C 0.03122 0.84766 0.61506 0.0
C473 C 0.07721 0.83678 0.57123 0.0
C474 C 0.07703 0.83415 0.59748 0.0
C475 C 0.06208 0.83812 0.61123 0.0
C476 C 0.09169 0.82634 0.61125 0.0
C477 C 0.09311 0.8333 0.55567 0.0
C478 C 0.09701 0.80941 0.60577 0.0
C479 C 0.10819 0.80068 0.62199 0.0
C480 C 0.11399 0.80866 0.64414 0.0
C481 C 0.10955 0.826 0.64868 0.0
C482 C 0.09849 0.83475 0.63237 0.0
H483 H 0.09297 0.84085 0.53795 0.0
H484 H 0.10508 0.83646 0.56622 0.0
H485 H 0.0935 0.81938 0.55067 0.0
H486 H 0.09166 0.80255 0.58987 0.0
H487 H 0.11135 0.78733 0.61798 0.0
H488 H 0.41756 0.84771 0.92578 0.0
H489 H 0.4036 0.82844 0.89572 0.0
H490 H 0.43826 0.846 0.83771 0.0
H491 H 0.45261 0.86508 0.86781 0.0
H492 H 0.38746 0.83234 0.84913 0.0
H493 H 0.44831 0.7942 0.84207 0.0
H494 H 0.44517 0.81066 0.86558 0.0
H495 H 0.45002 0.81664 0.83379 0.0
C496 C 0.42208 0.84767 0.90655 0.0
C497 C 0.43639 0.8577 0.89927 0.0
C498 C 0.41405 0.83668 0.88938 0.0
C499 C 0.42014 0.83556 0.86465 0.0
C500 C 0.43362 0.84642 0.85686 0.0
H501 H 0.36863 0.76357 0.75985 0.0
H502 H 0.38127 0.79023 0.77668 0.0
C503 C 0.44175 0.85735 0.87407 0.0
C504 C 0.41326 0.82196 0.84788 0.0
H505 H 0.42428 0.78385 0.8199 0.0
C506 C 0.39551 0.82183 0.84243 0.0
C507 C 0.42383 0.80821 0.83943 0.0
C508 C 0.44286 0.80727 0.84563 0.0
C509 C 0.38793 0.80801 0.82936 0.0
C510 C 0.39847 0.79415 0.82131 0.0
C511 C 0.4163 0.79458 0.82601 0.0
C512 C 0.39108 0.7782 0.81043 0.0
C513 C 0.36862 0.80792 0.8254 0.0
C514 C 0.39279 0.76259 0.82356 0.0
C515 C 0.38574 0.7474 0.81398 0.0
C516 C 0.37683 0.74748 0.791 0.0
C517 C 0.37535 0.7631 0.77765 0.0
C518 C 0.38247 0.77835 0.78728 0.0
H519 H 0.36202 0.81812 0.83651 0.0
H520 H 0.36579 0.81021 0.80527 0.0
H521 H 0.36307 0.79517 0.83059 0.0
H522 H 0.39943 0.76221 0.84145 0.0
H523 H 0.38715 0.73561 0.82475 0.0
H524 H 0.36351 0.19024 0.10611 0.0
H525 H 0.38147 0.17582 0.07466 0.0
H526 H 0.40449 0.14444 0.1326 0.0
H527 H 0.38642 0.15845 0.16395 0.0
H528 H 0.41582 0.17849 0.07468 0.0
H529 H 0.39892 0.10928 0.07763 0.0
H530 H 0.38501 0.12577 0.09063 0.0
H531 H 0.4028 0.11727 0.10867 0.0
C532 C 0.37208 0.17995 0.11206 0.0
C533 C 0.37365 0.1756 0.13756 0.0
C534 C 0.38231 0.17172 0.09405 0.0
C535 C 0.39419 0.15893 0.10122 0.0
C536 C 0.39513 0.15396 0.1265 0.0
H537 H 0.49665 0.13899 0.06438 0.0
H538 H 0.46831 0.14936 0.07752 0.0
C539 C 0.38488 0.16213 0.14447 0.0
C540 C 0.40739 0.15259 0.08331 0.0
H541 H 0.42855 0.116 0.06504 0.0
C542 C 0.41833 0.16482 0.07206 0.0
C543 C 0.41056 0.13477 0.07955 0.0
C544 C 0.39855 0.12105 0.08956 0.0
C545 C 0.43312 0.1597 0.05884 0.0
C546 C 0.43719 0.14193 0.05722 0.0
C547 C 0.42554 0.12965 0.06668 0.0
C548 C 0.45427 0.13601 0.04825 0.0
C549 C 0.44459 0.17339 0.04747 0.0
C550 C 0.45571 0.1248 0.02769 0.0
C551 C 0.47195 0.11878 0.02012 0.0
C552 C 0.48694 0.12374 0.03322 0.0
C553 C 0.48538 0.13496 0.05382 0.0
C554 C 0.4692 0.141 0.06127 0.0
H555 H 0.43718 0.18534 0.0432 0.0
H556 H 0.4549 0.17682 0.06105 0.0
H557 H 0.45081 0.1687 0.02998 0.0
H558 H 0.44428 0.12069 0.01757 0.0
H559 H 0.47273 0.11008 0.00425 0.0
H560 H 0.10091 0.74817 0.17801 0.0
H561 H 0.09056 0.7758 0.16199 0.0
H562 H 0.12591 0.80281 0.21071 0.0
H563 H 0.13654 0.77507 0.22687 0.0
H564 H 0.07605 0.80458 0.18933 0.0
H565 H 0.13693 0.8207 0.13843 0.0
H566 H 0.13228 0.79905 0.14911 0.0
H567 H 0.13835 0.8154 0.17125 0.0
C568 C 0.10649 0.75996 0.18542 0.0
C569 C 0.11964 0.75943 0.20359 0.0
C570 C 0.10051 0.77573 0.17629 0.0
C571 C 0.10758 0.79128 0.18504 0.0
C572 C 0.12044 0.7909 0.20356 0.0
H573 H 0.05507 0.88346 0.12378 0.0
H574 H 0.07118 0.86622 0.15449 0.0
C575 C 0.12644 0.77506 0.2128 0.0
C576 C 0.10157 0.80772 0.17398 0.0
H577 H 0.11284 0.83837 0.13097 0.0
C578 C 0.08414 0.81224 0.17697 0.0
C579 C 0.11223 0.81755 0.15785 0.0
C580 C 0.13098 0.81298 0.15374 0.0
C581 C 0.07678 0.82577 0.16312 0.0
C582 C 0.08725 0.83512 0.14611 0.0
C583 C 0.10492 0.83121 0.14417 0.0
C584 C 0.07956 0.84705 0.12757 0.0
C585 C 0.05763 0.82917 0.1655 0.0
C586 C 0.07956 0.84232 0.1022 0.0
C587 C 0.07046 0.8521 0.08467 0.0
C588 C 0.06119 0.86684 0.0922 0.0
C589 C 0.06198 0.8721 0.11743 0.0
C590 C 0.07112 0.86226 0.13501 0.0
H591 H 0.05098 0.81918 0.17695 0.0
H592 H 0.05558 0.84191 0.17458 0.0
H593 H 0.05148 0.82959 0.14669 0.0
H594 H 0.08603 0.83062 0.0961 0.0
H595 H 0.07025 0.84776 0.06536 0.0
H596 H 0.3623 0.79432 0.38436 0.0
H597 H 0.37878 0.80771 0.41841 0.0
H598 H 0.40503 0.84018 0.36478 0.0
H599 H 0.38845 0.82723 0.33089 0.0
H600 H 0.41288 0.80489 0.42266 0.0
H601 H 0.39673 0.87421 0.42028 0.0
H602 H 0.38348 0.85811 0.40503 0.0
H603 H 0.40219 0.86691 0.3894 0.0
C604 C 0.37127 0.80462 0.37991 0.0
C605 C 0.37416 0.80963 0.35489 0.0
C606 C 0.38066 0.81226 0.3994 0.0
C607 C 0.39298 0.82509 0.3942 0.0
C608 C 0.39528 0.83064 0.36937 0.0
H609 H 0.49357 0.84283 0.43915 0.0
H610 H 0.46553 0.83214 0.42543 0.0
C611 C 0.3859 0.82307 0.34993 0.0
C612 C 0.40519 0.831 0.41383 0.0
H613 H 0.42591 0.8671 0.43489 0.0
C614 C 0.41542 0.81851 0.42586 0.0
C615 C 0.40834 0.84872 0.41844 0.0
C616 C 0.39694 0.86272 0.40779 0.0
C617 C 0.42965 0.82329 0.44056 0.0
C618 C 0.43392 0.84098 0.44285 0.0
C619 C 0.4228 0.85351 0.43273 0.0
C620 C 0.45084 0.84662 0.45288 0.0
C621 C 0.44035 0.80931 0.45273 0.0
C622 C 0.45189 0.85855 0.47263 0.0
C623 C 0.46798 0.86482 0.48047 0.0
C624 C 0.48323 0.85938 0.46844 0.0
C625 C 0.48209 0.84726 0.44888 0.0
C626 C 0.46607 0.84101 0.44113 0.0
H627 H 0.43237 0.79771 0.45689 0.0
H628 H 0.45077 0.8053 0.43967 0.0
H629 H 0.44638 0.81391 0.47041 0.0
H630 H 0.44025 0.86316 0.48176 0.0
H631 H 0.46842 0.87419 0.49554 0.0
H632 H 0.36424 0.20875 0.73788 0.0
H633 H 0.37298 0.18098 0.71975 0.0
H634 H 0.4096 0.20727 0.67214 0.0
H635 H 0.40117 0.23492 0.69024 0.0
H636 H 0.37037 0.17132 0.67012 0.0
H637 H 0.43847 0.16807 0.70081 0.0
H638 H 0.423 0.18259 0.71497 0.0
H639 H 0.43377 0.18842 0.68623 0.0
C640 C 0.37433 0.20858 0.72381 0.0
C641 C 0.38204 0.22404 0.71553 0.0
C642 C 0.37928 0.19271 0.71347 0.0
C643 C 0.39212 0.19205 0.69491 0.0
C644 C 0.39996 0.20744 0.68688 0.0
H645 H 0.413 0.13544 0.56642 0.0
H646 H 0.39937 0.15138 0.60041 0.0
C647 C 0.39503 0.22326 0.69714 0.0
C648 C 0.39657 0.17557 0.6824 0.0
H649 H 0.43128 0.15187 0.66336 0.0
C650 C 0.38362 0.1668 0.66906 0.0
C651 C 0.41378 0.16945 0.68148 0.0
C652 C 0.428 0.17753 0.69689 0.0
C653 C 0.38769 0.1529 0.65321 0.0
C654 C 0.40517 0.14792 0.65035 0.0
C655 C 0.41789 0.1558 0.66527 0.0
C656 C 0.41094 0.13616 0.63008 0.0
C657 C 0.37327 0.14401 0.63921 0.0
C658 C 0.42193 0.12219 0.63536 0.0
C659 C 0.42997 0.11315 0.61588 0.0
C660 C 0.42721 0.11801 0.59078 0.0
C661 C 0.4154 0.13134 0.58552 0.0
C662 C 0.40745 0.1404 0.60499 0.0
H663 H 0.36101 0.14449 0.65006 0.0
H664 H 0.37102 0.1508 0.62118 0.0
H665 H 0.37645 0.13029 0.63517 0.0
H666 H 0.42487 0.11876 0.65459 0.0
H667 H 0.43895 0.10291 0.62055 0.0
H668 H 0.13111 0.19367 0.87196 0.0
H669 H 0.11357 0.17952 0.90417 0.0
H670 H 0.08942 0.148 0.84738 0.0
H671 H 0.10704 0.16178 0.81525 0.0
H672 H 0.07899 0.18202 0.90544 0.0
H673 H 0.09675 0.11295 0.90237 0.0
H674 H 0.11018 0.1296 0.88875 0.0
H675 H 0.09209 0.12094 0.87155 0.0
C676 C 0.12237 0.18342 0.86641 0.0
C677 C 0.12038 0.17893 0.84102 0.0
C678 C 0.11236 0.17535 0.88485 0.0
C679 C 0.10032 0.16258 0.87822 0.0
C680 C 0.09891 0.15752 0.85303 0.0
H681 H -0.00073 0.1412 0.92489 0.0
H682 H 0.02662 0.1519 0.90832 0.0
C683 C 0.10891 0.16554 0.83462 0.0
C684 C 0.08758 0.15619 0.89678 0.0
H685 H 0.06772 0.11943 0.91732 0.0
C686 C 0.07678 0.16833 0.90849 0.0
C687 C 0.08483 0.13835 0.90106 0.0
C688 C 0.09672 0.12474 0.89046 0.0
C689 C 0.06256 0.1631 0.92289 0.0
C690 C 0.05891 0.14528 0.92526 0.0
C691 C 0.07041 0.13311 0.91512 0.0
C692 C 0.04245 0.13911 0.93616 0.0
C693 C 0.05129 0.17672 0.93484 0.0
C694 C 0.04233 0.12807 0.95703 0.0
C695 C 0.02667 0.12185 0.96654 0.0
C696 C 0.01092 0.12644 0.95514 0.0
C697 C 0.01115 0.13747 0.9342 0.0
C698 C 0.02677 0.1437 0.92478 0.0
H699 H 0.05859 0.18888 0.93813 0.0
H700 H 0.04036 0.17974 0.92209 0.0
H701 H 0.0459 0.17215 0.95298 0.0
H702 H 0.05434 0.12428 0.96591 0.0
H703 H 0.02692 0.11332 0.98264 0.0
H704 H 0.91217 0.86056 0.57324 0.0
H705 H 0.89864 0.83965 0.60127 0.0
H706 H 0.9327 0.85547 0.66108 0.0
H707 H 0.94663 0.87615 0.63293 0.0
H708 H 0.93401 0.82156 0.65386 0.0
H709 H 0.86541 0.84114 0.6593 0.0
H710 H 0.8725 0.83941 0.62738 0.0
H711 H 0.88206 0.85541 0.64764 0.0
C712 C 0.91652 0.85989 0.59252 0.0
C713 C 0.93056 0.86992 0.60082 0.0
C714 C 0.90868 0.848 0.6086 0.0
C715 C 0.91452 0.84612 0.63337 0.0
C716 C 0.92795 0.85675 0.64206 0.0
H717 H 0.86762 0.76722 0.73076 0.0
H718 H 0.87805 0.79513 0.71511 0.0
C719 C 0.93589 0.86855 0.62594 0.0
C720 C 0.90821 0.83159 0.64898 0.0
H721 H 0.87157 0.81116 0.66886 0.0
C722 C 0.92037 0.81946 0.65752 0.0
C723 C 0.89045 0.82893 0.65403 0.0
C724 C 0.87689 0.84203 0.64683 0.0
C725 C 0.91519 0.80433 0.66981 0.0
C726 C 0.89736 0.80107 0.67318 0.0
C727 C 0.88523 0.81359 0.6659 0.0
C728 C 0.89108 0.78429 0.68285 0.0
C729 C 0.92886 0.79185 0.67876 0.0
C730 C 0.89479 0.76904 0.66967 0.0
C731 C 0.88892 0.75314 0.67854 0.0
C732 C 0.8791 0.75218 0.70068 0.0
C733 C 0.87522 0.76751 0.71371 0.0
C734 C 0.88113 0.78346 0.7048 0.0
H735 H 0.94144 0.79846 0.68182 0.0
H736 H 0.92491 0.78544 0.6965 0.0
H737 H 0.93084 0.78172 0.66431 0.0
H738 H 0.90214 0.76946 0.65239 0.0
H739 H 0.89203 0.7416 0.66795 0.0
H740 H 0.987 0.14504 0.4234 0.0
H741 H 0.95818 0.15259 0.40856 0.0
H742 H 0.93574 0.11496 0.45859 0.0
H743 H 0.9647 0.10717 0.47355 0.0
H744 H 0.92329 0.11294 0.40917 0.0
H745 H 0.92023 0.17998 0.44464 0.0
H746 H 0.93993 0.17599 0.42785 0.0
H747 H 0.93556 0.16434 0.4564 0.0
C748 C 0.97596 0.13844 0.43144 0.0
C749 C 0.97814 0.12554 0.4497 0.0
C750 C 0.95948 0.14286 0.42305 0.0
C751 C 0.94484 0.13454 0.43282 0.0
C752 C 0.9469 0.12163 0.45103 0.0
H753 H 0.85277 0.18262 0.36913 0.0
H754 H 0.86909 0.16709 0.40134 0.0
C755 C 0.96344 0.11723 0.45953 0.0
C756 C 0.92758 0.13884 0.42272 0.0
H757 H 0.90228 0.17352 0.40865 0.0
C758 C 0.91843 0.12609 0.40951 0.0
C759 C 0.92103 0.15587 0.42373 0.0
C760 C 0.92961 0.16978 0.43917 0.0
C761 C 0.90371 0.13033 0.3954 0.0
C762 C 0.89829 0.14777 0.39421 0.0
C763 C 0.90654 0.16016 0.40927 0.0
C764 C 0.88591 0.15401 0.37504 0.0
C765 C 0.8945 0.11619 0.38125 0.0
C766 C 0.88962 0.15142 0.34956 0.0
C767 C 0.88033 0.16022 0.33115 0.0
C768 C 0.86727 0.17197 0.33788 0.0
C769 C 0.86281 0.17371 0.36333 0.0
C770 C 0.8721 0.16484 0.38177 0.0
H771 H 0.89548 0.10368 0.3914 0.0
H772 H 0.88063 0.11931 0.37835 0.0
H773 H 0.90072 0.11447 0.36267 0.0
H774 H 0.90047 0.14348 0.34388 0.0
H775 H 0.88408 0.15854 0.31173 0.0
H776 H 0.58199 0.13248 0.07731 0.0
H777 H 0.59624 0.15007 0.10894 0.0
H778 H 0.56126 0.13064 0.16532 0.0
H779 H 0.54655 0.11326 0.13348 0.0
H780 H 0.56088 0.16458 0.16433 0.0
H781 H 0.62906 0.14413 0.16623 0.0
H782 H 0.62249 0.14794 0.1345 0.0
H783 H 0.61233 0.13094 0.15236 0.0
C784 C 0.57756 0.13159 0.09654 0.0
C785 C 0.563 0.12162 0.10282 0.0
C786 C 0.58586 0.14155 0.11471 0.0
C787 C 0.57997 0.14153 0.13961 0.0
C788 C 0.56608 0.13078 0.14624 0.0
H789 H 0.63017 0.22057 0.23452 0.0
H790 H 0.61909 0.19208 0.22217 0.0
C791 C 0.55768 0.12087 0.12801 0.0
C792 C 0.58653 0.15472 0.15738 0.0
H793 H 0.62368 0.1746 0.17636 0.0
C794 C 0.5746 0.16649 0.16751 0.0
C795 C 0.60439 0.15712 0.16194 0.0
C796 C 0.61775 0.14421 0.15339 0.0
C797 C 0.58013 0.18133 0.18022 0.0
C798 C 0.59803 0.18465 0.1824 0.0
C799 C 0.60994 0.17219 0.17422 0.0
C800 C 0.60452 0.20173 0.19051 0.0
C801 C 0.56673 0.19366 0.19039 0.0
C802 C 0.60019 0.21646 0.17655 0.0
C803 C 0.60646 0.23265 0.18347 0.0
C804 C 0.61731 0.23443 0.20444 0.0
C805 C 0.62177 0.21962 0.21833 0.0
C806 C 0.61548 0.20336 0.21133 0.0
H807 H 0.55446 0.18683 0.19479 0.0
H808 H 0.57141 0.20027 0.20759 0.0
H809 H 0.56385 0.20362 0.17601 0.0
H810 H 0.59206 0.2154 0.16007 0.0
H811 H 0.60283 0.24375 0.17227 0.0
H812 H 0.50238 0.84325 0.94566 0.0
H813 H 0.53001 0.8346 0.92753 0.0
H814 H 0.55392 0.8806 0.95735 0.0
H815 H 0.52633 0.88914 0.9762 0.0
H816 H 0.54662 0.85313 0.89203 0.0
H817 H 0.58951 0.84362 0.97447 0.0
H818 H 0.56627 0.84489 0.97718 0.0
H819 H 0.57883 0.86423 0.97314 0.0
C820 C 0.51357 0.85139 0.94872 0.0
C821 C 0.51218 0.8669 0.96227 0.0
C822 C 0.52935 0.84643 0.93836 0.0
C823 C 0.54404 0.8569 0.94121 0.0
C824 C 0.54284 0.87216 0.95534 0.0
H825 H 0.62639 0.84195 0.83122 0.0
H826 H 0.60659 0.8567 0.85992 0.0
C827 C 0.52704 0.87706 0.96598 0.0
C828 C 0.56003 0.85247 0.92738 0.0
H829 H 0.60253 0.8415 0.93435 0.0
C830 C 0.55887 0.85065 0.90127 0.0
C831 C 0.57596 0.84923 0.93954 0.0
C832 C 0.57777 0.85043 0.96765 0.0
C833 C 0.57303 0.8452 0.88698 0.0
C834 C 0.58902 0.84203 0.89905 0.0
C835 C 0.59032 0.84417 0.92514 0.0
C836 C 0.60392 0.83489 0.88504 0.0
C837 C 0.57045 0.84212 0.85925 0.0
C838 C 0.60996 0.81825 0.89074 0.0
C839 C 0.6215 0.80991 0.87463 0.0
C840 C 0.62704 0.81805 0.85247 0.0
C841 C 0.62212 0.83526 0.84795 0.0
C842 C 0.61077 0.84368 0.86427 0.0
H843 H 0.55654 0.84133 0.85418 0.0
H844 H 0.57622 0.85298 0.84855 0.0
H845 H 0.57686 0.82996 0.85322 0.0
H846 H 0.60492 0.81129 0.90678 0.0
H847 H 0.62513 0.79669 0.87873 0.0
H848 H 0.85105 0.21826 0.77184 0.0
H849 H 0.86004 0.19062 0.79034 0.0
H850 H 0.90137 0.21652 0.82948 0.0
H851 H 0.89248 0.24405 0.81146 0.0
H852 H 0.89264 0.17272 0.78944 0.0
H853 H 0.8735 0.19226 0.88532 0.0
H854 H 0.86621 0.20359 0.85766 0.0
H855 H 0.88728 0.20791 0.87055 0.0
C856 C 0.8621 0.21803 0.7843 0.0
C857 C 0.87093 0.23337 0.79042 0.0
C858 C 0.86721 0.20225 0.79481 0.0
C859 C 0.88114 0.20165 0.81161 0.0
C860 C 0.89035 0.21681 0.81695 0.0
H861 H 0.95365 0.13163 0.86736 0.0
H862 H 0.93482 0.14833 0.83996 0.0
C863 C 0.88527 0.23253 0.80656 0.0
C864 C 0.88609 0.18536 0.82415 0.0
H865 H 0.89386 0.16894 0.88228 0.0
C866 C 0.89263 0.17168 0.80972 0.0
C867 C 0.88563 0.18387 0.85055 0.0
C868 C 0.8776 0.19762 0.86692 0.0
C869 C 0.89992 0.15704 0.82118 0.0
C870 C 0.90096 0.15633 0.84767 0.0
C871 C 0.89325 0.16948 0.86197 0.0
C872 C 0.91146 0.14324 0.86114 0.0
C873 C 0.90668 0.14267 0.80478 0.0
C874 C 0.90464 0.13465 0.88213 0.0
C875 C 0.9155 0.12542 0.89822 0.0
C876 C 0.93335 0.12452 0.89348 0.0
C877 C 0.93994 0.13203 0.87148 0.0
C878 C 0.92913 0.14147 0.85561 0.0
H879 H 0.89912 0.14174 0.78712 0.0
H880 H 0.92028 0.14548 0.79959 0.0
H881 H 0.90621 0.12999 0.81451 0.0
H882 H 0.89106 0.13586 0.88681 0.0
H883 H 0.91003 0.11965 0.91494 0.0
H884 H 0.61878 0.19339 0.64965 0.0
H885 H 0.6025 0.18053 0.61502 0.0
H886 H 0.576 0.14715 0.66716 0.0
H887 H 0.59249 0.15959 0.70179 0.0
H888 H 0.58384 0.13081 0.6222 0.0
H889 H 0.55203 0.1944 0.6064 0.0
H890 H 0.57517 0.19444 0.60368 0.0
H891 H 0.56526 0.19011 0.63352 0.0
C892 C 0.60967 0.18312 0.6537 0.0
C893 C 0.60671 0.17769 0.67851 0.0
C894 C 0.60035 0.17585 0.6339 0.0
C895 C 0.58778 0.16319 0.63863 0.0
C896 C 0.58559 0.15698 0.66315 0.0
H897 H 0.49212 0.13871 0.57179 0.0
H898 H 0.51699 0.14904 0.5954 0.0
C899 C 0.595 0.16413 0.68293 0.0
C900 C 0.5759 0.15735 0.6186 0.0
H901 H 0.54298 0.17131 0.5811 0.0
C902 C 0.57502 0.13965 0.61296 0.0
C903 C 0.56431 0.16896 0.60683 0.0
C904 C 0.56407 0.18801 0.61299 0.0
C905 C 0.56251 0.13316 0.59637 0.0
C906 C 0.55081 0.14475 0.58486 0.0
C907 C 0.55207 0.1625 0.58987 0.0
C908 C 0.536 0.13865 0.56971 0.0
C909 C 0.56136 0.11389 0.59229 0.0
C910 C 0.53844 0.12957 0.5472 0.0
C911 C 0.52417 0.12353 0.53363 0.0
C912 C 0.50727 0.12662 0.54231 0.0
C913 C 0.50494 0.13608 0.56456 0.0
C914 C 0.51915 0.14202 0.5781 0.0
H915 H 0.56917 0.10656 0.60617 0.0
H916 H 0.54773 0.10945 0.59349 0.0
H917 H 0.56626 0.11072 0.57328 0.0
H918 H 0.55135 0.12712 0.54018 0.0
H919 H 0.52639 0.11636 0.51649 0.0
H920 H 0.59291 0.76564 0.24027 0.0
H921 H 0.58343 0.79373 0.25677 0.0
H922 H 0.61131 0.784 0.32536 0.0
H923 H 0.62081 0.75616 0.3092 0.0
H924 H 0.56382 0.7978 0.30091 0.0
H925 H 0.6254 0.8337 0.30795 0.0
H926 H 0.6228 0.81494 0.28809 0.0
H927 H 0.62697 0.81241 0.3211 0.0
C928 C 0.59718 0.76961 0.25874 0.0
C929 C 0.60756 0.75867 0.27347 0.0
C930 C 0.59179 0.78565 0.26808 0.0
C931 C 0.59695 0.79105 0.29207 0.0
C932 C 0.60754 0.78026 0.30656 0.0
H933 H 0.57503 0.84938 0.41766 0.0
H934 H 0.58715 0.83324 0.38254 0.0
C935 C 0.6128 0.76425 0.29737 0.0
C936 C 0.59 0.80705 0.30338 0.0
H937 H 0.60261 0.84265 0.33638 0.0
C938 C 0.57219 0.80791 0.3081 0.0
C939 C 0.60099 0.82017 0.31265 0.0
C940 C 0.62009 0.82037 0.30696 0.0
C941 C 0.56526 0.82075 0.32372 0.0
C942 C 0.57646 0.8332 0.33443 0.0
C943 C 0.59408 0.83304 0.32823 0.0
C944 C 0.57053 0.84489 0.35462 0.0
C945 C 0.54625 0.8201 0.33013 0.0
C946 C 0.55756 0.85722 0.3504 0.0
C947 C 0.5505 0.86643 0.37052 0.0
C948 C 0.55638 0.86348 0.39512 0.0
C949 C 0.57011 0.85188 0.39899 0.0
C950 C 0.5771 0.84267 0.37892 0.0
H951 H 0.53999 0.80804 0.32336 0.0
H952 H 0.54434 0.82103 0.35073 0.0
H953 H 0.53957 0.83123 0.32129 0.0
H954 H 0.55254 0.85933 0.33169 0.0
H955 H 0.54005 0.87541 0.36688 0.0
H956 H 0.88603 0.83147 0.17094 0.0
H957 H 0.90118 0.84484 0.13603 0.0
H958 H 0.87223 0.81354 0.08388 0.0
H959 H 0.85718 0.79973 0.11894 0.0
H960 H 0.90592 0.81006 0.07671 0.0
H961 H 0.89176 0.87969 0.08212 0.0
H962 H 0.89815 0.87196 0.1124 0.0
H963 H 0.87868 0.86376 0.09807 0.0
C964 C 0.88255 0.82769 0.15205 0.0
C965 C 0.87053 0.8144 0.14774 0.0
C966 C 0.89112 0.8355 0.13203 0.0
C967 C 0.88769 0.83036 0.10728 0.0
C968 C 0.87499 0.81778 0.10282 0.0
H969 H 0.96182 0.87869 0.00311 0.0
H970 H 0.93361 0.86831 0.0178 0.0
C971 C 0.86642 0.80989 0.12289 0.0
C972 C 0.89928 0.83623 0.08685 0.0
H973 H 0.92042 0.87204 0.06562 0.0
C974 C 0.90875 0.82364 0.07376 0.0
C975 C 0.90279 0.85393 0.08255 0.0
C976 C 0.89213 0.86807 0.09436 0.0
C977 C 0.92268 0.82824 0.05835 0.0
C978 C 0.92742 0.84583 0.0564 0.0
C979 C 0.91696 0.85851 0.06753 0.0
C980 C 0.94428 0.8511 0.04577 0.0
C981 C 0.93262 0.81416 0.04512 0.0
C982 C 0.95956 0.8449 0.05672 0.0
C983 C 0.97561 0.85079 0.04847 0.0
C984 C 0.97671 0.86312 0.02919 0.0
C985 C 0.96139 0.86914 0.01794 0.0
C986 C 0.94528 0.86324 0.0263 0.0
H987 H 0.92419 0.80287 0.04105 0.0
H988 H 0.93831 0.81887 0.02727 0.0
H989 H 0.94326 0.80964 0.05745 0.0
H990 H 0.95907 0.83584 0.0722 0.0
H991 H 0.98713 0.84592 0.05759 0.0
H992 H 0.58692 0.63664 0.91533 0.0
H993 H 0.60075 0.65751 0.88748 0.0
H994 H 0.5679 0.64103 0.82669 0.0
H995 H 0.55371 0.62028 0.85456 0.0
H996 H 0.61776 0.65623 0.8407 0.0
H997 H 0.55552 0.69225 0.83627 0.0
H998 H 0.5592 0.67497 0.85832 0.0
H999 H 0.55474 0.67014 0.82601 0.0
C1000 C 0.5828 0.63722 0.89593 0.0
C1001 C 0.56899 0.62702 0.88727 0.0
C1002 C 0.59076 0.64914 0.88003 0.0
C1003 C 0.58509 0.65103 0.85521 0.0
C1004 C 0.57221 0.63997 0.84595 0.0
H1005 H 0.63353 0.72833 0.75594 0.0
H1006 H 0.62219 0.70079 0.77164 0.0
C1007 C 0.56417 0.62809 0.86188 0.0
C1008 C 0.59158 0.66564 0.83999 0.0
H1009 H 0.57925 0.70446 0.81538 0.0
C1010 C 0.60935 0.6667 0.83485 0.0
C1011 C 0.58054 0.67935 0.83273 0.0
C1012 C 0.56146 0.67929 0.83874 0.0
C1013 C 0.61645 0.68132 0.82311 0.0
C1014 C 0.60542 0.69508 0.81612 0.0
C1015 C 0.58761 0.69381 0.82066 0.0
C1016 C 0.61221 0.71157 0.80616 0.0
C1017 C 0.63576 0.68229 0.81931 0.0
C1018 C 0.60999 0.72677 0.82013 0.0
C1019 C 0.61631 0.74248 0.81121 0.0
C1020 C 0.62496 0.74332 0.78805 0.0
C1021 C 0.62699 0.7281 0.7739 0.0
C1022 C 0.62062 0.71234 0.78288 0.0
H1023 H 0.64271 0.67201 0.8298 0.0
H1024 H 0.63873 0.68074 0.79908 0.0
H1025 H 0.64078 0.69506 0.82538 0.0
H1026 H 0.60348 0.72643 0.83812 0.0
H1027 H 0.61451 0.75394 0.82257 0.0
H1028 H 0.59526 0.34807 0.18894 0.0
H1029 H 0.57584 0.36037 0.15755 0.0
H1030 H 0.59643 0.32566 0.10175 0.0
H1031 H 0.61561 0.31294 0.13321 0.0
H1032 H 0.57881 0.3756 0.11023 0.0
H1033 H 0.5456 0.31183 0.10584 0.0
H1034 H 0.56159 0.3168 0.12935 0.0
H1035 H 0.56816 0.31158 0.09791 0.0
C1036 C 0.59589 0.34325 0.1699 0.0
C1037 C 0.60671 0.3293 0.16366 0.0
C1038 C 0.58481 0.35032 0.15196 0.0
C1039 C 0.58444 0.34364 0.1275 0.0
C1040 C 0.59625 0.33071 0.12069 0.0
H1041 H 0.51001 0.38608 0.01783 0.0
H1042 H 0.5374 0.37652 0.03641 0.0
C1043 C 0.60723 0.3235 0.13867 0.0
C1044 C 0.57054 0.34904 0.11014 0.0
H1045 H 0.53381 0.33429 0.08186 0.0
C1046 C 0.56906 0.36657 0.10372 0.0
C1047 C 0.55776 0.3372 0.10198 0.0
C1048 C 0.5582 0.31833 0.10924 0.0
C1049 C 0.55486 0.37268 0.08991 0.0
C1050 C 0.542 0.36086 0.08209 0.0
C1051 C 0.54378 0.34326 0.0878 0.0
C1052 C 0.52567 0.36662 0.07034 0.0
C1053 C 0.55328 0.3918 0.08486 0.0
C1054 C 0.51004 0.36386 0.08303 0.0
C1055 C 0.49445 0.36914 0.07246 0.0
C1056 C 0.49415 0.37729 0.0489 0.0
C1057 C 0.50983 0.37989 0.03604 0.0
C1058 C 0.52548 0.37454 0.04667 0.0
H1059 H 0.56274 0.39948 0.09588 0.0
H1060 H 0.55565 0.39429 0.06466 0.0
H1061 H 0.54004 0.39642 0.08937 0.0
H1062 H 0.50993 0.35772 0.1013 0.0
H1063 H 0.48263 0.36693 0.08289 0.0
H1064 H 0.88838 0.24159 0.31953 0.0
H1065 H 0.90083 0.26738 0.33861 0.0
H1066 H 0.88715 0.29726 0.27329 0.0
H1067 H 0.87444 0.27144 0.254 0.0
H1068 H 0.9278 0.28837 0.31943 0.0
H1069 H 0.86643 0.32483 0.33295 0.0
H1070 H 0.86681 0.3019 0.32669 0.0
H1071 H 0.87085 0.317 0.30183 0.0
C1072 C 0.88797 0.25362 0.30917 0.0
C1073 C 0.88037 0.25448 0.28526 0.0
C1074 C 0.89512 0.26835 0.32011 0.0
C1075 C 0.89475 0.28422 0.30744 0.0
C1076 C 0.88732 0.28515 0.28349 0.0
H1077 H 0.95698 0.3691 0.3696 0.0
H1078 H 0.94296 0.35035 0.33869 0.0
C1079 C 0.88015 0.27038 0.27247 0.0
C1080 C 0.90238 0.29963 0.31953 0.0
H1081 H 0.89199 0.33791 0.34758 0.0
C1082 C 0.92006 0.29933 0.32533 0.0
C1083 C 0.89213 0.31379 0.32728 0.0
C1084 C 0.87297 0.31447 0.32208 0.0
C1085 C 0.92771 0.31257 0.33941 0.0
C1086 C 0.91742 0.32662 0.34752 0.0
C1087 C 0.89984 0.32718 0.3411 0.0
C1088 C 0.92434 0.33984 0.36486 0.0
C1089 C 0.94653 0.31096 0.34658 0.0
C1090 C 0.91797 0.34069 0.38944 0.0
C1091 C 0.92586 0.35142 0.40708 0.0
C1092 C 0.94028 0.3615 0.40043 0.0
C1093 C 0.94599 0.36138 0.37538 0.0
C1094 C 0.93805 0.35064 0.35771 0.0
H1095 H 0.95171 0.29783 0.34275 0.0
H1096 H 0.95424 0.32039 0.3356 0.0
H1097 H 0.94837 0.31389 0.36679 0.0
H1098 H 0.90736 0.33248 0.39527 0.0
H1099 H 0.92105 0.3513 0.42616 0.0
H1100 H 0.89451 0.65836 0.66698 0.0
H1101 H 0.91183 0.6446 0.63454 0.0
H1102 H 0.87961 0.66744 0.57744 0.0
H1103 H 0.86239 0.68177 0.60995 0.0
H1104 H 0.90583 0.62236 0.59534 0.0
H1105 H 0.92695 0.68705 0.5608 0.0
H1106 H 0.91497 0.68447 0.58956 0.0
H1107 H 0.90415 0.68268 0.55987 0.0
C1108 C 0.89092 0.66032 0.64756 0.0
C1109 C 0.87727 0.67143 0.64104 0.0
C1110 C 0.90082 0.65238 0.62901 0.0
C1111 C 0.89724 0.6553 0.60358 0.0
C1112 C 0.88284 0.66536 0.59697 0.0
H1113 H 0.97698 0.62816 0.49141 0.0
H1114 H 0.94799 0.63511 0.50737 0.0
C1115 C 0.87296 0.67345 0.61557 0.0
C1116 C 0.9096 0.64892 0.58451 0.0
H1117 H 0.94143 0.6629 0.54501 0.0
C1118 C 0.91339 0.63118 0.58393 0.0
C1119 C 0.91944 0.66047 0.56962 0.0
C1120 C 0.91632 0.67974 0.57 0.0
C1121 C 0.92739 0.62481 0.57002 0.0
C1122 C 0.93782 0.6365 0.55644 0.0
C1123 C 0.93332 0.65403 0.5555 0.0
C1124 C 0.9548 0.6313 0.54631 0.0
C1125 C 0.93142 0.60575 0.5708 0.0
C1126 C 0.96815 0.62713 0.56301 0.0
C1127 C 0.98466 0.62342 0.55407 0.0
C1128 C 0.98812 0.62375 0.5282 0.0
C1129 C 0.97467 0.62778 0.51143 0.0
C1130 C 0.95813 0.6317 0.52047 0.0
H1131 H 0.91987 0.59802 0.57611 0.0
H1132 H 0.93627 0.60117 0.55235 0.0
H1133 H 0.94164 0.60338 0.58499 0.0
H1134 H 0.96585 0.62706 0.58306 0.0
H1135 H 0.99471 0.62032 0.56747 0.0
H1136 H 0.55403 0.38767 0.61779 0.0
H1137 H 0.5691 0.37396 0.65293 0.0
H1138 H 0.59391 0.33874 0.60155 0.0
H1139 H 0.57931 0.35253 0.56648 0.0
H1140 H 0.56411 0.34143 0.66667 0.0
H1141 H 0.63353 0.34972 0.64728 0.0
H1142 H 0.61721 0.36259 0.63183 0.0
H1143 H 0.62291 0.34153 0.6199 0.0
C1144 C 0.56302 0.37728 0.61393 0.0
C1145 C 0.56539 0.37111 0.58935 0.0
C1146 C 0.57163 0.36947 0.63404 0.0
C1147 C 0.58281 0.35547 0.62987 0.0
C1148 C 0.58573 0.34982 0.60522 0.0
H1149 H 0.59636 0.26005 0.69539 0.0
H1150 H 0.58648 0.28734 0.67784 0.0
C1151 C 0.57721 0.35762 0.58515 0.0
C1152 C 0.58959 0.34517 0.65112 0.0
H1153 H 0.62559 0.32339 0.6702 0.0
C1154 C 0.57764 0.33785 0.66787 0.0
C1155 C 0.60727 0.34073 0.65315 0.0
C1156 C 0.62096 0.34924 0.63722 0.0
C1157 C 0.58266 0.32506 0.685 0.0
C1158 C 0.59997 0.31921 0.68495 0.0
C1159 C 0.61223 0.32765 0.66989 0.0
C1160 C 0.60512 0.30305 0.6978 0.0
C1161 C 0.56922 0.31748 0.7023 0.0
C1162 C 0.61906 0.30276 0.71463 0.0
C1163 C 0.62487 0.28707 0.72461 0.0
C1164 C 0.61692 0.27142 0.71766 0.0
C1165 C 0.60275 0.27185 0.70119 0.0
C1166 C 0.59697 0.28748 0.6913 0.0
H1167 H 0.55902 0.32712 0.70674 0.0
H1168 H 0.56288 0.30637 0.69288 0.0
H1169 H 0.57507 0.31287 0.7201 0.0
H1170 H 0.62563 0.31463 0.71968 0.0
H1171 H 0.63586 0.28716 0.73719 0.0
H1172 H 0.96841 0.36931 0.99573 0.0
H1173 H 0.94077 0.35745 0.98121 0.0
H1174 H 0.96656 0.3342 0.91793 0.0
H1175 H 0.99412 0.34579 0.93229 0.0
H1176 H 0.92478 0.36438 0.93549 0.0
H1177 H 0.93743 0.29442 0.94538 0.0
H1178 H 0.95033 0.31062 0.96105 0.0
H1179 H 0.95455 0.30512 0.92881 0.0
C1180 C 0.96822 0.36148 0.9789 0.0
C1181 C 0.98346 0.35847 0.96516 0.0
C1182 C 0.95243 0.35474 0.97065 0.0
C1183 C 0.95169 0.34474 0.94874 0.0
C1184 C 0.96691 0.34156 0.9352 0.0
H1185 H 0.88567 0.32827 0.82921 0.0
H1186 H 0.90279 0.34047 0.86315 0.0
C1187 C 0.98265 0.3483 0.94336 0.0
C1188 C 0.93497 0.33855 0.93874 0.0
H1189 H 0.9158 0.30253 0.91474 0.0
C1190 C 0.92259 0.35082 0.93144 0.0
C1191 C 0.93196 0.32084 0.93398 0.0
C1192 C 0.9442 0.30698 0.94297 0.0
C1193 C 0.90794 0.34594 0.91763 0.0
C1194 C 0.90585 0.32842 0.91067 0.0
C1195 C 0.9175 0.31601 0.9198 0.0
C1196 C 0.89312 0.32292 0.89152 0.0
C1197 C 0.89514 0.35967 0.90999 0.0
C1198 C 0.8819 0.30902 0.89616 0.0
C1199 C 0.87219 0.30187 0.87663 0.0
C1200 C 0.87368 0.30841 0.85211 0.0
C1201 C 0.88422 0.32291 0.84785 0.0
C1202 C 0.89392 0.33003 0.86734 0.0
H1203 H 0.8948 0.37035 0.92392 0.0
H1204 H 0.89915 0.36527 0.89174 0.0
H1205 H 0.88191 0.35428 0.90795 0.0
H1206 H 0.88119 0.30328 0.91466 0.0
H1207 H 0.86417 0.29072 0.88054 0.0
H1208 H 0.91165 0.63918 0.07049 0.0
H1209 H 0.9001 0.6584 0.10265 0.0
H1210 H 0.93196 0.63359 0.15839 0.0
H1211 H 0.94387 0.61441 0.12619 0.0
H1212 H 0.88348 0.65379 0.1494 0.0
H1213 H 0.94846 0.6842 0.15858 0.0
H1214 H 0.9432 0.66959 0.13336 0.0
H1215 H 0.94735 0.66133 0.16425 0.0
C1216 C 0.91603 0.6376 0.08964 0.0
C1217 C 0.9289 0.62546 0.09571 0.0
C1218 C 0.90938 0.64857 0.10802 0.0
C1219 C 0.91543 0.6476 0.13276 0.0
C1220 C 0.92737 0.63472 0.13927 0.0
H1221 H 0.87236 0.72152 0.24255 0.0
H1222 H 0.88268 0.6942 0.22468 0.0
C1223 C 0.93409 0.62373 0.12087 0.0
C1224 C 0.9103 0.66112 0.1509 0.0
H1225 H 0.92573 0.69683 0.18109 0.0
C1226 C 0.89271 0.66307 0.1567 0.0
C1227 C 0.92242 0.67326 0.1601 0.0
C1228 C 0.9414 0.67216 0.15368 0.0
C1229 C 0.88682 0.67723 0.17078 0.0
C1230 C 0.89891 0.68957 0.17947 0.0
C1231 C 0.91655 0.68725 0.17447 0.0
C1232 C 0.89337 0.70595 0.19128 0.0
C1233 C 0.86766 0.67939 0.17509 0.0
C1234 C 0.89643 0.72158 0.17874 0.0
C1235 C 0.89067 0.73715 0.18889 0.0
C1236 C 0.88177 0.7374 0.21187 0.0
C1237 C 0.87911 0.72175 0.22476 0.0
C1238 C 0.8849 0.70613 0.21454 0.0
H1239 H 0.85989 0.67022 0.16367 0.0
H1240 H 0.86471 0.67702 0.19516 0.0
H1241 H 0.86356 0.69278 0.17053 0.0
H1242 H 0.90298 0.72169 0.16078 0.0
H1243 H 0.89298 0.74896 0.1785 0.0
H1244 H 0.60155 0.66775 0.31845 0.0
H1245 H 0.58337 0.65556 0.35136 0.0
H1246 H 0.60657 0.68984 0.40553 0.0
H1247 H 0.6247 0.70238 0.37256 0.0
H1248 H 0.58976 0.63998 0.39852 0.0
H1249 H 0.5549 0.70277 0.40663 0.0
H1250 H 0.56953 0.69819 0.38114 0.0
H1251 H 0.57787 0.70326 0.41168 0.0
C1252 C 0.60299 0.67257 0.33741 0.0
C1253 C 0.61438 0.68623 0.34281 0.0
C1254 C 0.59262 0.66553 0.35622 0.0
C1255 C 0.59344 0.67202 0.38075 0.0
C1256 C 0.60556 0.68488 0.38659 0.0
H1257 H 0.5222 0.62509 0.49136 0.0
H1258 H 0.54895 0.63725 0.47403 0.0
C1259 C 0.61594 0.69197 0.36775 0.0
C1260 C 0.58052 0.66621 0.39937 0.0
H1261 H 0.54386 0.67938 0.42944 0.0
C1262 C 0.57988 0.64861 0.40569 0.0
C1263 C 0.56759 0.67754 0.40844 0.0
C1264 C 0.56733 0.69648 0.40157 0.0
C1265 C 0.56622 0.64189 0.42002 0.0
C1266 C 0.55302 0.65315 0.42841 0.0
C1267 C 0.55408 0.67086 0.42304 0.0
C1268 C 0.53696 0.64654 0.43995 0.0
C1269 C 0.56545 0.62269 0.42485 0.0
C1270 C 0.52135 0.64816 0.42679 0.0
C1271 C 0.50612 0.64133 0.4366 0.0
C1272 C 0.50617 0.63277 0.45985 0.0
C1273 C 0.52176 0.63155 0.47335 0.0
C1274 C 0.53705 0.63841 0.46346 0.0
H1275 H 0.57537 0.61548 0.414 0.0
H1276 H 0.56765 0.62019 0.44509 0.0
H1277 H 0.55248 0.61753 0.41993 0.0
H1278 H 0.52103 0.65443 0.40862 0.0
H1279 H 0.49435 0.64256 0.42575 0.0
H1280 H 0.43125 0.38393 0.13911 0.0
H1281 H 0.41911 0.36261 0.16808 0.0
H1282 H 0.388 0.34161 0.10831 0.0
H1283 H 0.39972 0.36303 0.07938 0.0
H1284 H 0.3712 0.34137 0.15492 0.0
H1285 H 0.43737 0.31321 0.16012 0.0
H1286 H 0.43539 0.33533 0.16995 0.0
H1287 H 0.43168 0.32969 0.13771 0.0
C1288 C 0.42153 0.37503 0.13226 0.0
C1289 C 0.4167 0.37495 0.10682 0.0
C1290 C 0.41467 0.36282 0.14882 0.0
C1291 C 0.403 0.35029 0.14015 0.0
C1292 C 0.39709 0.35111 0.11532 0.0
H1293 H 0.38591 0.2449 0.17062 0.0
H1294 H 0.39407 0.27376 0.15657 0.0
C1295 C 0.40384 0.36335 0.09879 0.0
C1296 C 0.39833 0.33521 0.15583 0.0
H1297 H 0.41519 0.29816 0.18052 0.0
C1298 C 0.38081 0.33202 0.16088 0.0
C1299 C 0.41093 0.32296 0.16325 0.0
C1300 C 0.42989 0.32532 0.15737 0.0
C1301 C 0.37549 0.31662 0.17251 0.0
C1302 C 0.38808 0.30426 0.17949 0.0
C1303 C 0.40562 0.30774 0.17523 0.0
C1304 C 0.38329 0.28691 0.1888 0.0
C1305 C 0.35642 0.31328 0.17605 0.0
C1306 C 0.37473 0.28474 0.21179 0.0
C1307 C 0.37001 0.2682 0.2199 0.0
C1308 C 0.37385 0.2536 0.20517 0.0
C1309 C 0.38273 0.25585 0.18241 0.0
C1310 C 0.38742 0.27234 0.17435 0.0
H1311 H 0.34832 0.32278 0.16575 0.0
H1312 H 0.35301 0.30007 0.16957 0.0
H1313 H 0.3532 0.31418 0.19628 0.0
H1314 H 0.3717 0.29581 0.2234 0.0
H1315 H 0.36323 0.26688 0.23757 0.0
H1316 H 0.47803 0.61366 0.9846 0.0
H1317 H 0.44949 0.6236 0.97073 0.0
H1318 H 0.47213 0.64351 0.90269 0.0
H1319 H 0.50061 0.63391 0.91644 0.0
H1320 H 0.4495 0.66651 0.9264 0.0
H1321 H 0.42032 0.60119 0.9147 0.0
H1322 H 0.42953 0.60606 0.94485 0.0
H1323 H 0.44333 0.6044 0.91789 0.0
C1324 C 0.47692 0.62019 0.96671 0.0
C1325 C 0.49157 0.62296 0.95159 0.0
C1326 C 0.4606 0.62576 0.95878 0.0
C1327 C 0.45871 0.63409 0.93557 0.0
C1328 C 0.47334 0.63707 0.92066 0.0
H1329 H 0.38379 0.65331 0.82613 0.0
H1330 H 0.40437 0.64089 0.85568 0.0
C1331 C 0.48961 0.63156 0.92855 0.0
C1332 C 0.44159 0.63985 0.9265 0.0
H1333 H 0.40328 0.62505 0.90305 0.0
C1334 C 0.43926 0.65751 0.92162 0.0
C1335 C 0.42837 0.628 0.92021 0.0
C1336 C 0.43045 0.60883 0.92447 0.0
C1337 C 0.42435 0.66359 0.9096 0.0
C1338 C 0.41126 0.6517 0.90278 0.0
C1339 C 0.41328 0.63412 0.90855 0.0
C1340 C 0.39655 0.65703 0.88682 0.0
C1341 C 0.42323 0.68254 0.90295 0.0
C1342 C 0.38477 0.66965 0.8949 0.0
C1343 C 0.37304 0.6769 0.87795 0.0
C1344 C 0.37287 0.67154 0.85274 0.0
C1345 C 0.38369 0.65786 0.84534 0.0
C1346 C 0.39544 0.65069 0.86224 0.0
H1347 H 0.43579 0.68929 0.9055 0.0
H1348 H 0.41903 0.68423 0.88319 0.0
H1349 H 0.41355 0.68891 0.91522 0.0
H1350 H 0.38521 0.67446 0.91396 0.0
H1351 H 0.36474 0.68729 0.88432 0.0
H1352 H 0.09882 0.74558 0.68106 0.0
H1353 H 0.08826 0.71793 0.6655 0.0
H1354 H 0.1182 0.69117 0.7216 0.0
H1355 H 0.12907 0.71893 0.73726 0.0
H1356 H 0.1225 0.67777 0.67382 0.0
H1357 H 0.05301 0.68473 0.69552 0.0
H1358 H 0.06113 0.70323 0.67903 0.0
H1359 H 0.06936 0.6982 0.70977 0.0
C1360 C 0.10305 0.73386 0.69032 0.0
C1361 C 0.11477 0.73446 0.71043 0.0
C1362 C 0.09689 0.71805 0.6815 0.0
C1363 C 0.10221 0.70253 0.69269 0.0
C1364 C 0.11382 0.70304 0.71288 0.0
H1365 H 0.04988 0.61326 0.62596 0.0
H1366 H 0.06326 0.63069 0.659 0.0
C1367 C 0.12 0.7189 0.72179 0.0
C1368 C 0.09643 0.68588 0.68194 0.0
H1369 H 0.06019 0.66504 0.6618 0.0
C1370 C 0.10888 0.67475 0.67164 0.0
C1371 C 0.0787 0.68176 0.67959 0.0
C1372 C 0.0648 0.69253 0.69182 0.0
C1373 C 0.104 0.66033 0.65733 0.0
C1374 C 0.08624 0.6572 0.65292 0.0
C1375 C 0.07382 0.66755 0.6649 0.0
C1376 C 0.0802 0.64466 0.63384 0.0
C1377 C 0.11792 0.64887 0.64657 0.0
C1378 C 0.08547 0.64654 0.60881 0.0
C1379 C 0.07791 0.6366 0.58994 0.0
C1380 C 0.06474 0.62472 0.59569 0.0
C1381 C 0.05997 0.62232 0.62091 0.0
C1382 C 0.0676 0.63226 0.63981 0.0
H1383 H 0.12959 0.64886 0.65871 0.0
H1384 H 0.11333 0.63535 0.64431 0.0
H1385 H 0.1218 0.65389 0.62791 0.0
H1386 H 0.09484 0.65632 0.60363 0.0
H1387 H 0.08187 0.6388 0.57072 0.0
H1388 H 0.03042 0.38544 0.49227 0.0
H1389 H 0.05919 0.37732 0.47685 0.0
H1390 H 0.0357 0.34438 0.42121 0.0
H1391 H 0.00708 0.3522 0.43652 0.0
H1392 H 0.06396 0.32928 0.44772 0.0
H1393 H 0.07926 0.39442 0.40886 0.0
H1394 H 0.07306 0.39293 0.44132 0.0
H1395 H 0.05752 0.38826 0.4173 0.0
C1396 C 0.03141 0.37639 0.47684 0.0
C1397 C 0.01647 0.36953 0.46551 0.0
C1398 C 0.04783 0.37184 0.46802 0.0
C1399 C 0.04951 0.3604 0.44777 0.0
C1400 C 0.03464 0.35324 0.43687 0.0
H1401 H 0.10819 0.33541 0.32539 0.0
H1402 H 0.09146 0.34903 0.3586 0.0
C1403 C 0.01829 0.35777 0.44562 0.0
C1404 C 0.06658 0.35597 0.43712 0.0
H1405 H 0.09789 0.37168 0.39825 0.0
C1406 C 0.07166 0.33858 0.43735 0.0
C1407 C 0.07647 0.3682 0.42364 0.0
C1408 C 0.07136 0.38701 0.42254 0.0
C1409 C 0.08571 0.33282 0.423 0.0
C1410 C 0.09509 0.34491 0.40843 0.0
C1411 C 0.09071 0.36251 0.40957 0.0
C1412 C 0.10732 0.33914 0.38881 0.0
C1413 C 0.08951 0.31369 0.42203 0.0
C1414 C 0.12223 0.32965 0.39474 0.0
C1415 C 0.13179 0.32166 0.3757 0.0
C1416 C 0.12659 0.32317 0.35051 0.0
C1417 C 0.11244 0.33382 0.34461 0.0
C1418 C 0.1029 0.3417 0.36358 0.0
H1419 H 0.0794 0.3059 0.43158 0.0
H1420 H 0.09055 0.30923 0.40229 0.0
H1421 H 0.10205 0.3111 0.43142 0.0
H1422 H 0.12602 0.32781 0.4141 0.0
H1423 H 0.14274 0.31369 0.38083 0.0
H1424 H 0.41228 0.63583 0.42134 0.0
H1425 H 0.39838 0.65313 0.38903 0.0
H1426 H 0.43009 0.6289 0.33251 0.0
H1427 H 0.44441 0.61171 0.36494 0.0
H1428 H 0.4327 0.66317 0.33081 0.0
H1429 H 0.36348 0.64637 0.33408 0.0
H1430 H 0.3713 0.65095 0.36501 0.0
H1431 H 0.37991 0.63278 0.34791 0.0
C1432 C 0.41605 0.63385 0.40199 0.0
C1433 C 0.42958 0.62252 0.39575 0.0
C1434 C 0.40794 0.64366 0.38346 0.0
C1435 C 0.41304 0.64218 0.35829 0.0
C1436 C 0.42589 0.63017 0.35181 0.0
H1437 H 0.36361 0.71865 0.25874 0.0
H1438 H 0.37443 0.69051 0.27296 0.0
C1439 C 0.43406 0.62037 0.37037 0.0
C1440 C 0.40676 0.65496 0.33972 0.0
H1441 H 0.37023 0.67578 0.32039 0.0
C1442 C 0.41903 0.66565 0.32803 0.0
C1443 C 0.38895 0.65807 0.33572 0.0
C1444 C 0.37519 0.64628 0.34615 0.0
C1445 C 0.41396 0.68015 0.31413 0.0
C1446 C 0.39619 0.68423 0.3123 0.0
C1447 C 0.38388 0.67278 0.32221 0.0
C1448 C 0.39029 0.70113 0.3026 0.0
C1449 C 0.4277 0.69131 0.30226 0.0
C1450 C 0.39553 0.71634 0.31472 0.0
C1451 C 0.38939 0.73236 0.30673 0.0
C1452 C 0.37778 0.73348 0.28653 0.0
C1453 C 0.37259 0.71822 0.2743 0.0
C1454 C 0.37874 0.70214 0.28238 0.0
H1455 H 0.43954 0.68371 0.29807 0.0
H1456 H 0.42299 0.69734 0.28463 0.0
H1457 H 0.43134 0.70177 0.3155 0.0
H1458 H 0.40412 0.7158 0.33074 0.0
H1459 H 0.39359 0.74384 0.31664 0.0
H1460 H 0.01645 0.63449 0.0005 0.0
H1461 H 0.04438 0.6409 0.02041 0.0
H1462 H 0.02564 0.61973 0.0901 0.0
H1463 H -0.00215 0.61343 0.07062 0.0
H1464 H 0.04719 0.66275 0.06491 0.0
H1465 H 0.07432 0.59731 0.08018 0.0
H1466 H 0.05809 0.60184 0.05667 0.0
H1467 H 0.05199 0.59935 0.08901 0.0
C1468 C 0.01838 0.63104 0.01999 0.0
C1469 C 0.00494 0.62354 0.03404 0.0
C1470 C 0.03432 0.63466 0.03127 0.0
C1471 C 0.0371 0.63051 0.05656 0.0
C1472 C 0.02383 0.62271 0.07042 0.0
H1473 H 0.09439 0.64819 0.18617 0.0
H1474 H 0.07808 0.63663 0.15079 0.0
C1475 C 0.0079 0.61928 0.0593 0.0
C1476 C 0.05311 0.63579 0.06954 0.0
H1477 H 0.0854 0.61997 0.10655 0.0
C1478 C 0.05586 0.65347 0.07355 0.0
C1479 C 0.06425 0.62358 0.08079 0.0
C1480 C 0.06214 0.60445 0.07629 0.0
C1481 C 0.06869 0.65927 0.09012 0.0
C1482 C 0.07933 0.647 0.10239 0.0
C1483 C 0.07723 0.62934 0.09714 0.0
C1484 C 0.09121 0.65213 0.12286 0.0
C1485 C 0.06984 0.67838 0.09567 0.0
C1486 C 0.10452 0.66413 0.11875 0.0
C1487 C 0.11372 0.67095 0.13902 0.0
C1488 C 0.10994 0.66564 0.16366 0.0
C1489 C 0.09755 0.65262 0.16746 0.0
C1490 C 0.08823 0.64597 0.14723 0.0
H1491 H 0.05843 0.68559 0.08854 0.0
H1492 H 0.07092 0.6807 0.11616 0.0
H1493 H 0.08152 0.68379 0.0865 0.0
H1494 H 0.10733 0.66871 0.1 0.0
H1495 H 0.12337 0.68079 0.13547 0.0
H1496 H 0.14201 0.27359 0.77058 0.0
H1497 H 0.13156 0.2999 0.79131 0.0
H1498 H 0.08966 0.27097 0.82423 0.0
H1499 H 0.10004 0.24468 0.80398 0.0
H1500 H 0.0989 0.31721 0.79027 0.0
H1501 H 0.11506 0.29225 0.88474 0.0
H1502 H 0.12331 0.28258 0.85634 0.0
H1503 H 0.10181 0.27761 0.86706 0.0
C1504 C 0.13051 0.27287 0.78211 0.0
C1505 C 0.12197 0.25701 0.7859 0.0
C1506 C 0.12457 0.2879 0.79389 0.0
C1507 C 0.11006 0.28725 0.80964 0.0
C1508 C 0.1011 0.27162 0.81254 0.0
H1509 H 0.03815 0.35757 0.87082 0.0
H1510 H 0.0561 0.34042 0.84269 0.0
C1511 C 0.10702 0.25663 0.80088 0.0
C1512 C 0.10442 0.30268 0.82377 0.0
H1513 H 0.09557 0.31623 0.88316 0.0
C1514 C 0.09838 0.31717 0.81059 0.0
C1515 C 0.10418 0.30273 0.85027 0.0
C1516 C 0.11161 0.28803 0.86546 0.0
C1517 C 0.0911 0.33132 0.82329 0.0
C1518 C 0.08959 0.33074 0.84973 0.0
C1519 C 0.09658 0.31665 0.86288 0.0
C1520 C 0.07962 0.3437 0.86421 0.0
C1521 C 0.08499 0.34665 0.80823 0.0
C1522 C 0.08684 0.35134 0.88568 0.0
C1523 C 0.0765 0.36087 0.90211 0.0
C1524 C 0.05875 0.36298 0.89729 0.0
C1525 C 0.05179 0.35623 0.87501 0.0
C1526 C 0.06209 0.34654 0.85875 0.0
H1527 H 0.09256 0.34802 0.79063 0.0
H1528 H 0.07126 0.34468 0.80292 0.0
H1529 H 0.08602 0.35884 0.81911 0.0
H1530 H 0.10032 0.34929 0.8903 0.0
H1531 H 0.08226 0.36601 0.91905 0.0
H1532 H 0.49479 0.36083 0.56908 0.0
H1533 H 0.46794 0.35103 0.5884 0.0
H1534 H 0.4453 0.34363 0.51532 0.0
H1535 H 0.47225 0.35353 0.4956 0.0
H1536 H 0.43167 0.36547 0.57842 0.0
H1537 H 0.44183 0.29579 0.55574 0.0
H1538 H 0.45972 0.31077 0.55693 0.0
H1539 H 0.44458 0.31183 0.53154 0.0
C1540 C 0.48413 0.35714 0.55703 0.0
C1541 C 0.48568 0.35789 0.53078 0.0
C1542 C 0.46879 0.35162 0.56813 0.0
C1543 C 0.45474 0.34661 0.55325 0.0
C1544 C 0.45609 0.34742 0.52705 0.0
H1545 H 0.36939 0.29049 0.6244 0.0
H1546 H 0.38523 0.30556 0.59119 0.0
C1547 C 0.47146 0.35307 0.51587 0.0
C1548 C 0.43895 0.34011 0.56558 0.0
H1549 H 0.41947 0.30262 0.58366 0.0
C1550 C 0.42875 0.35177 0.57924 0.0
C1551 C 0.43515 0.32227 0.56634 0.0
C1552 C 0.44585 0.30933 0.55195 0.0
C1553 C 0.41527 0.34592 0.59465 0.0
C1554 C 0.41228 0.32795 0.5969 0.0
C1555 C 0.42181 0.3164 0.58199 0.0
C1556 C 0.40092 0.32068 0.61663 0.0
C1557 C 0.40463 0.35904 0.60879 0.0
C1558 C 0.40438 0.32431 0.64192 0.0
C1559 C 0.39536 0.31578 0.66089 0.0
C1560 C 0.38283 0.30326 0.65495 0.0
C1561 C 0.37897 0.30005 0.6296 0.0
C1562 C 0.388 0.30864 0.61059 0.0
H1563 H 0.40397 0.37148 0.59842 0.0
H1564 H 0.39127 0.35432 0.61214 0.0
H1565 H 0.41081 0.36164 0.62718 0.0
H1566 H 0.4146 0.33319 0.64707 0.0
H1567 H 0.39869 0.31853 0.68021 0.0
H1568 H 0.30724 0.23962 0.1788 0.0
H1569 H 0.27954 0.24995 0.19502 0.0
H1570 H 0.27925 0.20889 0.24971 0.0
H1571 H 0.30703 0.19853 0.23384 0.0
H1572 H 0.24698 0.23312 0.20141 0.0
H1573 H 0.27623 0.25369 0.29189 0.0
H1574 H 0.28907 0.24846 0.26465 0.0
H1575 H 0.27988 0.2315 0.28342 0.0
C1576 C 0.3012 0.23265 0.19408 0.0
C1577 C 0.30942 0.21838 0.20523 0.0
C1578 C 0.2854 0.23858 0.20332 0.0
C1579 C 0.27761 0.23038 0.22385 0.0
C1580 C 0.28529 0.21559 0.23416 0.0
H1581 H 0.18553 0.25239 0.31059 0.0
H1582 H 0.21279 0.24076 0.29458 0.0
C1583 C 0.3011 0.20964 0.22496 0.0
C1584 C 0.26174 0.23767 0.23497 0.0
H1585 H 0.24591 0.25658 0.28805 0.0
C1586 C 0.24671 0.23827 0.22032 0.0
C1587 C 0.26154 0.24438 0.25965 0.0
C1588 C 0.27756 0.24465 0.27581 0.0
C1589 C 0.23134 0.24525 0.22985 0.0
C1590 C 0.23116 0.25205 0.25447 0.0
C1591 C 0.24616 0.25136 0.26917 0.0
C1592 C 0.21546 0.25991 0.26527 0.0
C1593 C 0.21533 0.24504 0.21366 0.0
C1594 C 0.20835 0.27486 0.25459 0.0
C1595 C 0.19282 0.28155 0.26368 0.0
C1596 C 0.18419 0.2734 0.28367 0.0
C1597 C 0.19182 0.25891 0.29511 0.0
C1598 C 0.20737 0.25224 0.28598 0.0
H1599 H 0.21654 0.23576 0.19786 0.0
H1600 H 0.20374 0.2416 0.22488 0.0
H1601 H 0.21327 0.25812 0.20564 0.0
H1602 H 0.21465 0.28115 0.23891 0.0
H1603 H 0.18735 0.2928 0.25457 0.0
H1604 H 0.95354 0.94628 0.51119 0.0
H1605 H 0.96654 0.97416 0.50069 0.0
H1606 H -0.00214 0.97174 0.56746 0.0
H1607 H 0.98491 0.94389 0.57827 0.0
H1608 H 0.9827 0.00546 0.55566 0.0
H1609 H 0.01797 0.97517 0.47608 0.0
H1610 H 0.99499 0.97169 0.47654 0.0
H1611 H 0.00822 0.96266 0.50093 0.0
C1612 C 0.96297 0.9518 0.52389 0.0
C1613 C 0.96837 0.94277 0.5454 0.0
C1614 C 0.97044 0.96767 0.51777 0.0
C1615 C 0.98337 0.97473 0.53306 0.0
C1616 C 0.98798 0.96635 0.55536 0.0
H1617 H 0.04747 0.0671 0.52134 0.0
H1618 H 0.03523 0.03939 0.53457 0.0
C1619 C 0.98056 0.95046 0.56148 0.0
C1620 C 0.99278 0.99037 0.52509 0.0
H1621 H 0.02036 0.00553 0.48025 0.0
C1622 C 0.991 0.00551 0.53926 0.0
C1623 C 0.00364 0.99024 0.50376 0.0
C1624 C 0.00649 0.97405 0.4885 0.0
C1625 C -0.00054 0.02079 0.53219 0.0
C1626 C 0.01022 0.0207 0.51073 0.0
C1627 C 0.01213 0.00548 0.49673 0.0
C1628 C 0.01896 0.03651 0.50182 0.0
C1629 C -0.00359 0.03701 0.54729 0.0
C1630 C 0.01449 0.04354 0.4785 0.0
C1631 C 0.02154 0.05924 0.47078 0.0
C1632 C 0.03323 0.06817 0.48629 0.0
C1633 C 0.03842 0.0606 0.50905 0.0
C1634 C 0.03135 0.04485 0.51674 0.0
H1635 H 0.98493 0.03582 0.55969 0.0
H1636 H 0.00786 0.03953 0.55929 0.0
H1637 H 0.99458 0.04834 0.53478 0.0
H1638 H 0.00506 0.03717 0.46665 0.0
H1639 H 0.01734 0.06467 0.45308 0.0
H1640 H 0.30422 0.71017 0.80204 0.0
H1641 H 0.27599 0.72436 0.80026 0.0
H1642 H 0.27918 0.7262 0.71956 0.0
H1643 H 0.30747 0.71222 0.7211 0.0
H1644 H 0.27138 0.75816 0.74244 0.0
H1645 H 0.22891 0.70534 0.77725 0.0
H1646 H 0.2472 0.71026 0.79675 0.0
H1647 H 0.25058 0.70147 0.76597 0.0
C1648 C 0.2988 0.71336 0.78389 0.0
C1649 C 0.30808 0.71009 0.7617 0.0
C1650 C 0.28266 0.72142 0.78292 0.0
C1651 C 0.27551 0.7262 0.75978 0.0
C1652 C 0.28453 0.72258 0.7376 0.0
H1653 H 0.18451 0.77732 0.70517 0.0
H1654 H 0.21323 0.76485 0.71097 0.0
C1655 C 0.30066 0.71455 0.73853 0.0
C1656 C 0.25905 0.73582 0.75865 0.0
H1657 H 0.21592 0.73268 0.77106 0.0
C1658 C 0.25923 0.75261 0.74868 0.0
C1659 C 0.24332 0.72854 0.76698 0.0
C1660 C 0.24237 0.71036 0.77717 0.0
C1661 C 0.24402 0.76235 0.74677 0.0
C1662 C 0.22824 0.75496 0.75471 0.0
C1663 C 0.2281 0.73828 0.76506 0.0
C1664 C 0.21157 0.76398 0.75146 0.0
C1665 C 0.24497 0.78049 0.73648 0.0
C1666 C 0.20116 0.76758 0.77233 0.0
C1667 C 0.18471 0.77465 0.7691 0.0
C1668 C 0.17836 0.77807 0.74489 0.0
C1669 C 0.18904 0.77488 0.72406 0.0
C1670 C 0.20549 0.76783 0.72733 0.0
H1671 H 0.25826 0.78586 0.73785 0.0
H1672 H 0.24125 0.78034 0.71639 0.0
H1673 H 0.23595 0.78923 0.74657 0.0
H1674 H 0.20565 0.76462 0.79109 0.0
H1675 H 0.1768 0.77695 0.78552 0.0
H1676 H 0.53987 0.05715 -0.00038 0.0
H1677 H 0.52951 0.02923 0.9842 0.0
H1678 H 0.49226 0.02712 0.0443 0.0
H1679 H 0.50236 0.05509 0.05974 0.0
H1680 H 0.52723 -0.00322 0.0085 0.0
H1681 H 0.46272 0.02175 0.98042 0.0
H1682 H 0.4807 0.0358 0.98752 0.0
H1683 H 0.46852 0.026 0.01245 0.0
C1684 C 0.52956 0.05069 0.00968 0.0
C1685 C 0.52182 0.0584 0.03078 0.0
C1686 C 0.52365 0.03477 0.00082 0.0
C1687 C 0.5099 0.02636 0.01283 0.0
C1688 C 0.50263 0.03364 0.03447 0.0
H1689 H 0.45536 0.93048 0.99235 0.0
H1690 H 0.4652 0.95923 0.0049 0.0
C1691 C 0.50851 0.04956 0.04335 0.0
C1692 C 0.50308 0.00999 0.00261 0.0
H1693 H 0.46678 0.99136 0.97823 0.0
C1694 C 0.51406 0.99559 0.00173 0.0
C1695 C 0.48589 0.00858 0.99378 0.0
C1696 C 0.47379 0.02388 0.99334 0.0
C1697 C 0.50815 0.97961 0.99279 0.0
C1698 C 0.49093 0.97816 0.98413 0.0
C1699 C 0.47998 0.99259 0.98486 0.0
C1700 C 0.48393 0.96158 0.97497 0.0
C1701 C 0.52024 0.96429 0.99329 0.0
C1702 C 0.4908 0.95374 0.95347 0.0
C1703 C 0.48522 0.93732 0.94622 0.0
C1704 C 0.47263 0.92854 0.96036 0.0
C1705 C 0.46513 0.93686 0.98114 0.0
C1706 C 0.47073 0.95327 0.98835 0.0
H1707 H 0.53164 0.96663 0.0055 0.0
H1708 H 0.51343 0.95253 2e-05 0.0
H1709 H 0.52498 0.96171 0.97401 0.0
H1710 H 0.50078 0.96014 0.94266 0.0
H1711 H 0.49117 0.93131 0.93004 0.0
H1712 H 0.17925 0.71631 0.28127 0.0
H1713 H 0.20813 0.72884 0.28577 0.0
H1714 H 0.21514 0.72673 0.20561 0.0
H1715 H 0.18627 0.71434 0.20083 0.0
H1716 H 0.24137 0.71662 0.26929 0.0
H1717 H 0.2221 0.77838 0.22397 0.0
H1718 H 0.20654 0.76282 0.23528 0.0
H1719 H 0.21749 0.75927 0.20602 0.0
C1720 C 0.18699 0.71834 0.26461 0.0
C1721 C 0.18041 0.7145 0.24067 0.0
C1722 C 0.20347 0.72551 0.26723 0.0
C1723 C 0.21354 0.72899 0.24598 0.0
C1724 C 0.20736 0.72443 0.22217 0.0
H1725 H 0.31298 0.77494 0.21758 0.0
H1726 H 0.28402 0.76242 0.21515 0.0
C1727 C 0.19091 0.71726 0.21952 0.0
C1728 C 0.23036 0.73781 0.24862 0.0
H1729 H 0.25189 0.77479 0.23306 0.0
C1730 C 0.24369 0.72937 0.26151 0.0
C1731 C 0.23322 0.75445 0.23846 0.0
C1732 C 0.21906 0.76437 0.22533 0.0
C1733 C 0.26006 0.73698 0.26397 0.0
C1734 C 0.26296 0.75357 0.25364 0.0
C1735 C 0.24957 0.76206 0.24093 0.0
C1736 C 0.27998 0.76214 0.25529 0.0
C1737 C 0.27424 0.72702 0.27699 0.0
C1738 C 0.287 0.76659 0.27864 0.0
C1739 C 0.30354 0.77375 0.28013 0.0
C1740 C 0.31326 0.77663 0.25823 0.0
C1741 C 0.30586 0.77282 0.2348 0.0
C1742 C 0.28933 0.76565 0.23336 0.0
H1743 H 0.27107 0.71305 0.27865 0.0
H1744 H 0.28668 0.72836 0.26678 0.0
H1745 H 0.27603 0.73225 0.29619 0.0
H1746 H 0.27979 0.7643 0.29574 0.0
H1747 H 0.30883 0.77664 0.29845 0.0
H1748 H 0.52335 0.92674 0.53087 0.0
H1749 H 0.51207 0.95625 0.53156 0.0
H1750 H 0.51689 0.95913 0.45109 0.0
H1751 H 0.52793 0.92952 0.45012 0.0
H1752 H 0.52638 0.98731 0.51438 0.0
H1753 H 0.4659 0.97089 0.46341 0.0
H1754 H 0.47995 0.95463 0.4766 0.0
H1755 H 0.48543 0.96487 0.44742 0.0
C1756 C 0.52211 0.93367 0.51332 0.0
C1757 C 0.52638 0.92574 0.49042 0.0
C1758 C 0.51566 0.95051 0.51376 0.0
C1759 C 0.51335 0.95968 0.49133 0.0
C1760 C 0.51823 0.95209 0.46854 0.0
H1761 H 0.47451 0.06209 0.45759 0.0
H1762 H 0.48636 0.0328 0.45567 0.0
C1763 C 0.52463 0.93522 0.46805 0.0
C1764 C 0.50564 0.97714 0.49185 0.0
H1765 H 0.47089 0.00055 0.47177 0.0
C1766 C 0.51423 0.99022 0.50513 0.0
C1767 C 0.48977 0.98082 0.47977 0.0
C1768 C 0.47961 0.96705 0.46617 0.0
C1769 C 0.50747 0.007 0.50639 0.0
C1770 C 0.49161 0.01066 0.49434 0.0
C1771 C 0.48305 -0.00237 0.48096 0.0
C1772 C 0.48371 0.02799 0.49544 0.0
C1773 C 0.51745 0.02077 0.52028 0.0
C1774 C 0.47791 0.03472 0.51836 0.0
C1775 C 0.4711 0.0514 0.51953 0.0
C1776 C 0.46996 0.0616 0.49777 0.0
C1777 C 0.47528 0.05458 0.4747 0.0
C1778 C 0.48205 0.03788 0.47355 0.0
H1779 H 0.53108 0.01688 0.52361 0.0
H1780 H 0.51733 0.03314 0.50971 0.0
H1781 H 0.51127 0.02307 0.53876 0.0
H1782 H 0.47883 0.02712 0.53537 0.0
H1783 H 0.46704 0.0564 0.53757 0.0
H1784 H 0.18519 0.2154 0.70794 0.0
H1785 H 0.21492 0.22612 0.70694 0.0
H1786 H 0.21743 0.22307 0.78761 0.0
H1787 H 0.18783 0.21213 0.78884 0.0
H1788 H 0.2263 0.25653 0.72997 0.0
H1789 H 0.26223 0.19944 0.76547 0.0
H1790 H 0.24031 0.19804 0.75399 0.0
H1791 H 0.24453 0.206 0.78507 0.0
C1792 C 0.19215 0.21676 0.72546 0.0
C1793 C 0.18416 0.21292 0.74847 0.0
C1794 C 0.20911 0.22292 0.72483 0.0
C1795 C 0.21838 0.22523 0.74717 0.0
C1796 C 0.21058 0.22107 0.77014 0.0
H1797 H 0.31805 0.26776 0.78647 0.0
H1798 H 0.28835 0.25694 0.78655 0.0
C1799 C 0.19364 0.21489 0.77079 0.0
C1800 C 0.23581 0.233 0.7466 0.0
H1801 H 0.27784 0.22585 0.76289 0.0
C1802 C 0.23761 0.2498 0.737 0.0
C1803 C 0.25047 0.22418 0.75589 0.0
C1804 C 0.24938 0.20586 0.76549 0.0
C1805 C 0.25368 0.25817 0.73688 0.0
C1806 C 0.26831 0.24938 0.74631 0.0
C1807 C 0.26653 0.23256 0.75581 0.0
C1808 C 0.28569 0.25726 0.74618 0.0
C1809 C 0.25483 0.27646 0.72718 0.0
C1810 C 0.2939 0.26115 0.72342 0.0
C1811 C 0.31085 0.26734 0.72329 0.0
C1812 C 0.31989 0.26964 0.74593 0.0
C1813 C 0.31144 0.26614 0.76872 0.0
C1814 C 0.2945 0.25993 0.76882 0.0
H1815 H 0.24194 0.28277 0.72644 0.0
H1816 H 0.26353 0.28438 0.73911 0.0
H1817 H 0.26022 0.27629 0.7079 0.0
H1818 H 0.28738 0.2589 0.70574 0.0
H1819 H 0.31701 0.26986 0.70542 0.0
H1820 H 0.96853 0.07025 0.04089 0.0
H1821 H 0.97734 0.04078 0.05131 0.0
H1822 H 0.9744 0.02661 0.97322 0.0
H1823 H 0.96544 0.05603 0.96255 0.0
H1824 H 0.95907 0.00246 0.00716 0.0
H1825 H 0.02586 0.02109 0.03467 0.0
H1826 H 0.00885 0.03284 0.05007 0.0
H1827 H 0.01188 0.03518 0.01684 0.0
C1828 C 0.96967 0.06086 0.02591 0.0
C1829 C 0.96641 0.0655 0.00085 0.0
C1830 C 0.97478 0.04407 0.03191 0.0
C1831 C 0.97677 0.03168 0.01296 0.0
C1832 C 0.97302 0.03608 0.98805 0.0
H1833 H 0.03 0.93407 0.01219 0.0
H1834 H 0.02043 0.9639 0.00624 0.0
C1835 C 0.96791 0.05288 0.98201 0.0
C1836 C 0.98295 0.01414 0.01906 0.0
H1837 H 0.01788 0.99189 0.04109 0.0
C1838 C 0.9719 0.00011 0.01463 0.0
C1839 C -0.00023 0.01122 0.02853 0.0
C1840 C 0.01238 0.02583 0.03264 0.0
C1841 C 0.97722 0.98313 0.01956 0.0
C1842 C 0.99393 0.98023 0.02944 0.0
C1843 C 0.00502 0.99425 0.03374 0.0
C1844 C 0.00037 0.96262 0.03444 0.0
C1845 C 0.96509 0.9684 0.01362 0.0
C1846 C 0.99253 0.95226 0.05276 0.0
C1847 C -0.00205 0.93522 0.05623 0.0
C1848 C 0.01133 0.92831 0.04145 0.0
C1849 C 0.0196 0.93898 0.02379 0.0
C1850 C 0.01418 0.95601 0.02037 0.0
H1851 H 0.9543 0.97254 0.00124 0.0
H1852 H 0.97213 0.95763 0.00437 0.0
H1853 H 0.95945 0.9634 0.03132 0.0
H1854 H 0.98204 0.95728 0.06409 0.0
H1855 H 0.99138 0.92736 0.07009 0.0
H1856 H 0.81192 0.70991 0.69618 0.0
H1857 H 0.78395 0.72439 0.70021 0.0
H1858 H 0.78909 0.72403 0.78072 0.0
H1859 H 0.81711 0.70966 0.77696 0.0
H1860 H 0.75305 0.71531 0.72778 0.0
H1861 H 0.78394 0.7759 0.76159 0.0
H1862 H 0.796 0.75882 0.74653 0.0
H1863 H 0.78953 0.75669 0.77874 0.0
C1864 C 0.80701 0.7127 0.71477 0.0
C1865 C 0.81683 0.70883 0.73626 0.0
C1866 C 0.79105 0.72098 0.71701 0.0
C1867 C 0.78471 0.72555 0.74072 0.0
C1868 C 0.79399 0.72087 0.76224 0.0
H1869 H 0.69576 0.78212 0.79376 0.0
H1870 H 0.72328 0.7669 0.7892 0.0
C1871 C 0.80994 0.71258 0.76005 0.0
C1872 C 0.7687 0.73581 0.74289 0.0
H1873 H 0.75335 0.77513 0.76148 0.0
C1874 C 0.75308 0.7284 0.73506 0.0
C1875 C 0.7689 0.75288 0.75236 0.0
C1876 C 0.78549 0.76165 0.76011 0.0
C1877 C 0.73748 0.73755 0.73693 0.0
C1878 C 0.73767 0.75463 0.74642 0.0
C1879 C 0.75332 0.76204 0.75419 0.0
C1880 C 0.72168 0.76491 0.7488 0.0
C1881 C 0.72089 0.72873 0.7293 0.0
C1882 C 0.71204 0.76932 0.72749 0.0
C1883 C 0.69633 0.77802 0.72999 0.0
C1884 C 0.69006 0.78251 0.75388 0.0
C1885 C 0.70019 0.77879 0.7751 0.0
C1886 C 0.71589 0.77008 0.77256 0.0
H1887 H 0.72243 0.71447 0.72817 0.0
H1888 H 0.71033 0.73172 0.74274 0.0
H1889 H 0.71693 0.73347 0.71052 0.0
H1890 H 0.71653 0.76576 0.70895 0.0
H1891 H 0.68889 0.7808 0.71326 0.0
H1892 H 0.68312 0.29159 0.23271 0.0
H1893 H 0.71183 0.28209 0.24585 0.0
H1894 H 0.71324 0.24568 0.18464 0.0
H1895 H 0.68461 0.25523 0.17112 0.0
H1896 H 0.71919 0.2482 0.2604 0.0
H1897 H 0.76087 0.26877 0.181 0.0
H1898 H 0.73946 0.27742 0.18599 0.0
H1899 H 0.74219 0.25646 0.172 0.0
C1900 C 0.68965 0.28178 0.22175 0.0
C1901 C 0.68157 0.27412 0.20091 0.0
C1902 C 0.70603 0.27636 0.22932 0.0
C1903 C 0.71466 0.26327 0.21612 0.0
C1904 C 0.7069 0.256 0.19482 0.0
H1905 H 0.80887 0.20547 0.24123 0.0
H1906 H 0.7807 0.21572 0.22673 0.0
C1907 C 0.69051 0.26144 0.18718 0.0
C1908 C 0.73112 0.25631 0.22584 0.0
H1909 H 0.77358 0.25008 0.21117 0.0
C1910 C 0.73112 0.24869 0.24973 0.0
C1911 C 0.74657 0.2569 0.21174 0.0
C1912 C 0.74739 0.26546 0.18634 0.0
C1913 C 0.74618 0.24143 0.25983 0.0
C1914 C 0.76164 0.24205 0.24576 0.0
C1915 C 0.76164 0.24962 0.22184 0.0
C1916 C 0.77807 0.23515 0.25564 0.0
C1917 C 0.74537 0.23288 0.28523 0.0
C1918 C 0.78578 0.24263 0.27681 0.0
C1919 C 0.80186 0.23681 0.28519 0.0
C1920 C 0.8105 0.22347 0.27241 0.0
C1921 C 0.80254 0.21576 0.25151 0.0
C1922 C 0.78648 0.22161 0.24314 0.0
H1923 H 0.73188 0.2297 0.2907 0.0
H1924 H 0.75317 0.22083 0.2855 0.0
H1925 H 0.75075 0.2418 0.29953 0.0
H1926 H 0.77958 0.25328 0.28646 0.0
H1927 H 0.80768 0.24306 0.30128 0.0
H1928 H 0.6833 0.22419 0.74626 0.0
H1929 H 0.7121 0.23661 0.7514 0.0
H1930 H 0.70946 0.25801 0.67685 0.0
H1931 H 0.68057 0.24558 0.6714 0.0
H1932 H 0.74195 0.24111 0.69058 0.0
H1933 H 0.71984 0.28972 0.76022 0.0
H1934 H 0.71356 0.26785 0.76699 0.0
H1935 H 0.70514 0.27844 0.73961 0.0
C1936 C 0.68887 0.23141 0.73084 0.0
C1937 C 0.6796 0.23403 0.70848 0.0
C1938 C 0.70527 0.23857 0.73389 0.0
C1939 C 0.71268 0.24846 0.71467 0.0
C1940 C 0.70383 0.25052 0.69194 0.0
H1941 H 0.8144 0.2981 0.70882 0.0
H1942 H 0.78496 0.28906 0.69828 0.0
C1943 C 0.68736 0.24339 0.68888 0.0
C1944 C 0.72959 0.25684 0.7186 0.0
H1945 H 0.75022 0.2864 0.75543 0.0
C1946 C 0.74379 0.25115 0.70454 0.0
C1947 C 0.7318 0.26995 0.73679 0.0
C1948 C 0.71676 0.277 0.75165 0.0
C1949 C 0.76041 0.25774 0.70896 0.0
C1950 C 0.76269 0.27056 0.72759 0.0
C1951 C 0.74838 0.27656 0.74118 0.0
C1952 C 0.77999 0.27717 0.73429 0.0
C1953 C 0.77547 0.25044 0.69441 0.0
C1954 C 0.78661 0.27406 0.75833 0.0
C1955 C 0.80333 0.27929 0.76449 0.0
C1956 C 0.81371 0.28778 0.74668 0.0
C1957 C 0.80678 0.29149 0.7229 0.0
C1958 C 0.79002 0.28625 0.71678 0.0
H1959 H 0.77204 0.23823 0.68463 0.0
H1960 H 0.77963 0.25996 0.68006 0.0
H1961 H 0.78662 0.24792 0.707 0.0
H1962 H 0.779 0.26715 0.77214 0.0
H1963 H 0.80826 0.27629 0.783 0.0
H1964 H 0.81661 0.76821 0.28412 0.0
H1965 H 0.78754 0.75585 0.28591 0.0
H1966 H 0.7796 0.76886 0.20811 0.0
H1967 H 0.80874 0.78098 0.20597 0.0
H1968 H 0.75556 0.77069 0.27653 0.0
H1969 H 0.76887 0.71719 0.20994 0.0
H1970 H 0.78584 0.73002 0.22386 0.0
H1971 H 0.77376 0.73822 0.19762 0.0
C1972 C 0.80866 0.76851 0.2674 0.0
C1973 C 0.81502 0.77543 0.24483 0.0
C1974 C 0.79208 0.76142 0.26847 0.0
C1975 C 0.78162 0.76112 0.247 0.0
C1976 C 0.78767 0.76859 0.2247 0.0
H1977 H 0.67749 0.73099 0.21257 0.0
H1978 H 0.70747 0.74098 0.21225 0.0
C1979 C 0.80427 0.77562 0.22358 0.0
C1980 C 0.76432 0.75308 0.24796 0.0
H1981 H 0.73945 0.72153 0.22147 0.0
C1982 C 0.75206 0.75986 0.26466 0.0
C1983 C 0.75987 0.7389 0.23248 0.0
C1984 C 0.77282 0.73053 0.21513 0.0
C1985 C 0.73525 0.75314 0.26578 0.0
C1986 C 0.73074 0.73918 0.24999 0.0
C1987 C 0.74303 0.73226 0.2335 0.0
C1988 C 0.71309 0.73199 0.24977 0.0
C1989 C 0.72229 0.76129 0.28332 0.0
C1990 C 0.70658 0.72323 0.27075 0.0
C1991 C 0.68948 0.71745 0.271 0.0
C1992 C 0.67866 0.72039 0.25023 0.0
C1993 C 0.68547 0.72861 0.2289 0.0
C1994 C 0.70257 0.73432 0.22865 0.0
H1995 H 0.72687 0.77391 0.29073 0.0
H1996 H 0.70973 0.7633 0.27367 0.0
H1997 H 0.72002 0.75252 0.29945 0.0
H1998 H 0.71465 0.72113 0.28708 0.0
H1999 H 0.68463 0.7111 0.28768 0.0
H2000 H 0.47976 0.44471 0.06661 0.0
H2001 H 0.49245 0.47061 0.04791 0.0
H2002 H 0.45482 0.46879 0.98833 0.0
H2003 H 0.44191 0.44299 0.00695 0.0
H2004 H 0.50657 0.47093 -0.0012 0.0
H2005 H 0.45455 0.51986 0.01009 0.0
H2006 H 0.45526 0.50018 0.02827 0.0
H2007 H 0.44778 0.49976 0.99639 0.0
C2008 C 0.47394 0.45001 0.04982 0.0
C2009 C 0.45986 0.44175 0.03821 0.0
C2010 C 0.48125 0.46477 0.03913 0.0
C2011 C 0.47452 0.4716 0.01683 0.0
C2012 C 0.46004 0.46383 0.00575 0.0
H2013 H 0.50536 0.55658 0.92059 0.0
H2014 H 0.49255 0.5299 0.93667 0.0
C2015 C 0.45272 0.44906 0.01639 0.0
C2016 C 0.48346 0.48602 0.00414 0.0
H2017 H 0.47829 0.5276 0.98437 0.0
C2018 C 0.50044 0.48336 0.9957 0.0
C2019 C 0.47532 0.50211 -2e-05 0.0
C2020 C 0.45727 0.50577 0.00932 0.0
C2021 C 0.50951 0.49638 0.983 0.0
C2022 C 0.50143 0.51254 0.97905 0.0
C2023 C 0.4844 0.51515 0.98733 0.0
C2024 C 0.51062 0.52723 0.96739 0.0
C2025 C 0.52753 0.49266 0.97362 0.0
C2026 C 0.52524 0.53431 0.97905 0.0
C2027 C 0.53264 0.5495 0.96987 0.0
C2028 C 0.52541 0.55796 0.94902 0.0
C2029 C 0.51124 0.55039 0.9367 0.0
C2030 C 0.50386 0.53518 0.94589 0.0
H2031 H 0.52985 0.47855 0.97164 0.0
H2032 H 0.5299 0.49898 0.95524 0.0
H2033 H 0.53706 0.4978 0.98728 0.0
H2034 H 0.53047 0.52853 0.99592 0.0
H2035 H 0.54353 0.55501 0.97984 0.0
H2036 H 0.97254 0.43029 0.53369 0.0
H2037 H 0.98475 0.45943 0.5343 0.0
H2038 H 0.97991 0.46242 0.45386 0.0
H2039 H 0.96758 0.43335 0.45301 0.0
H2040 H 0.01573 0.46829 0.50796 0.0
H2041 H 0.95987 0.50887 0.47903 0.0
H2042 H 0.95733 0.48722 0.49114 0.0
H2043 H 0.96419 0.49053 0.45933 0.0
C2044 C 0.97376 0.43725 0.51616 0.0
C2045 C 0.96914 0.42949 0.49329 0.0
C2046 C 0.98079 0.45387 0.51656 0.0
C2047 C 0.98314 0.46304 0.49415 0.0
C2048 C 0.97796 0.45561 0.47138 0.0
H2049 H 0.0285 0.56242 0.45819 0.0
H2050 H 0.01667 0.53316 0.45604 0.0
C2051 C 0.97097 0.43898 0.47094 0.0
C2052 C 0.99218 0.47984 0.4944 0.0
H2053 H 0.98718 0.52265 0.48116 0.0
C2054 C 0.0095 0.48021 0.50221 0.0
C2055 C 0.98401 0.49526 0.48666 0.0
C2056 C 0.96528 0.49557 0.47874 0.0
C2057 C 0.01897 0.49566 0.50227 0.0
C2058 C 0.01075 0.51113 0.49475 0.0
C2059 C 0.99345 0.51073 0.48682 0.0
C2060 C 0.01964 0.52802 0.49569 0.0
C2061 C 0.03774 0.49523 0.50995 0.0
C2062 C 0.02547 0.53468 0.51864 0.0
C2063 C 0.03233 0.55135 0.51993 0.0
C2064 C 0.03327 0.5617 0.4983 0.0
C2065 C 0.02794 0.55477 0.47519 0.0
C2066 C 0.02114 0.53808 0.47392 0.0
H2067 H 0.04329 0.48204 0.50814 0.0
H2068 H 0.04557 0.50429 0.49845 0.0
H2069 H 0.03885 0.4992 0.52988 0.0
H2070 H 0.02413 0.52724 0.53573 0.0
H2071 H 0.03624 0.55633 0.53804 0.0
H2072 H 0.01487 0.42719 0.02981 0.0
H2073 H 0.00141 0.45578 0.0306 0.0
H2074 H 0.0098 0.46097 0.95102 0.0
H2075 H 0.02335 0.43241 0.94997 0.0
H2076 H 0.01915 0.49055 0.98117 0.0
H2077 H 0.95277 0.46653 0.00087 0.0
H2078 H 0.96936 0.4587 0.02157 0.0
H2079 H 0.96975 0.45271 0.98904 0.0
C2080 C 0.01395 0.43444 0.01249 0.0
C2081 C 0.02009 0.4275 0.9898 0.0
C2082 C 0.00616 0.4507 0.01296 0.0
C2083 C 0.00436 0.46026 0.99079 0.0
C2084 C 0.01096 0.45366 0.96827 0.0
H2085 H 0.9652 0.56297 0.95766 0.0
H2086 H 0.97593 0.53335 0.9543 0.0
C2087 C 0.01871 0.43737 0.96773 0.0
C2088 C 0.99571 0.47725 0.99114 0.0
H2089 H 0.95695 0.49688 0.0022 0.0
C2090 C 0.00554 0.49198 0.98561 0.0
C2091 C 0.97797 0.47893 0.997 0.0
C2092 C 0.96676 0.46339 0.00227 0.0
C2093 C -0.00185 0.5085 0.98635 0.0
C2094 C 0.98039 0.51022 0.99222 0.0
C2095 C 0.97054 0.49546 -0.00237 0.0
C2096 C 0.97198 0.52732 0.9935 0.0
C2097 C 0.00953 0.52401 0.98155 0.0
C2098 C 0.96536 0.53335 0.01636 0.0
C2099 C 0.95905 0.55021 0.01832 0.0
C2100 C 0.9593 0.56127 0.99739 0.0
C2101 C 0.96502 0.55483 0.97418 0.0
C2102 C 0.97124 0.53795 0.97224 0.0
H2103 H 0.02347 0.52078 0.98338 0.0
H2104 H 0.00729 0.52875 0.96218 0.0
H2105 H 0.00645 0.53467 0.99476 0.0
H2106 H 0.96571 0.52525 0.03293 0.0
H2107 H 0.95467 0.55477 0.03644 0.0
H2108 H 0.53091 0.43223 0.53022 0.0
H2109 H 0.52035 0.46188 0.52638 0.0
H2110 H 0.50698 0.45253 0.44905 0.0
H2111 H 0.51726 0.42275 0.45276 0.0
H2112 H 0.52986 0.48875 0.49355 0.0
H2113 H 0.46133 0.46895 0.48046 0.0
H2114 H 0.47776 0.45421 0.49145 0.0
H2115 H 0.47635 0.45952 0.45871 0.0
C2116 C 0.52583 0.43649 0.51233 0.0
C2117 C 0.52475 0.4251 0.49185 0.0
C2118 C 0.51981 0.45343 0.51019 0.0
C2119 C 0.51261 0.45923 0.48758 0.0
C2120 C 0.51216 0.44814 0.46681 0.0
H2121 H 0.46499 0.55702 0.4465 0.0
H2122 H 0.4769 0.52771 0.44632 0.0
C2123 C 0.51813 0.43117 0.46894 0.0
C2124 C 0.50526 0.47681 0.486 0.0
H2125 H 0.46747 0.4988 0.47736 0.0
C2126 C 0.51623 0.49098 0.49 0.0
C2127 C 0.48746 0.47959 0.48138 0.0
C2128 C 0.47497 0.46478 0.47796 0.0
C2129 C 0.50987 0.50793 0.48939 0.0
C2130 C 0.49206 0.5107 0.48502 0.0
C2131 C 0.48112 0.49656 0.4807 0.0
C2132 C 0.48447 0.52818 0.48536 0.0
C2133 C 0.52226 0.52277 0.49318 0.0
C2134 C 0.48445 0.5379 0.50754 0.0
C2135 C 0.47763 0.55459 0.50776 0.0
C2136 C 0.47068 0.56181 0.48578 0.0
C2137 C 0.47031 0.55184 0.46372 0.0
C2138 C 0.47711 0.53512 0.46356 0.0
H2139 H 0.5359 0.51876 0.49022 0.0
H2140 H 0.51924 0.5336 0.48023 0.0
H2141 H 0.52103 0.52763 0.51268 0.0
H2142 H 0.4898 0.53259 0.52467 0.0
H2143 H 0.47804 0.5619 0.52507 0.0
H2144 H 0.04249 0.31997 0.02335 0.0
H2145 H 0.05207 0.31006 0.06467 0.0
H2146 H 0.06855 0.36181 0.08292 0.0
H2147 H 0.05882 0.3719 0.0419 0.0
H2148 H 0.08489 0.31146 0.0857 0.0
H2149 H 0.03781 0.34881 0.14242 0.0
H2150 H 0.03541 0.34574 0.10904 0.0
H2151 H 0.04997 0.3619 0.12094 0.0
C2152 C 0.04811 0.32925 0.03618 0.0
C2153 C 0.04982 0.34674 0.02941 0.0
C2154 C 0.05357 0.32357 0.05975 0.0
C2155 C 0.06073 0.33527 0.07695 0.0
C2156 C 0.06269 0.35266 0.0701 0.0
H2157 H 0.12469 0.31544 0.2059 0.0
H2158 H 0.11276 0.32305 0.16495 0.0
C2159 C 0.05722 0.35837 0.04659 0.0
C2160 C 0.06658 0.32924 0.10184 0.0
H2161 H 0.06131 0.33597 0.16461 0.0
C2162 C 0.07966 0.31671 0.10298 0.0
C2163 C 0.05954 0.33595 0.1243 0.0
C2164 C 0.04479 0.34872 0.12421 0.0
C2165 C 0.08628 0.31107 0.12604 0.0
C2166 C 0.07981 0.31839 0.14846 0.0
C2167 C 0.06637 0.33053 0.14735 0.0
C2168 C 0.08698 0.3138 0.17328 0.0
C2169 C 0.10004 0.29724 0.12621 0.0
C2170 C 0.0763 0.30655 0.19175 0.0
C2171 C 0.08303 0.30233 0.21527 0.0
C2172 C 0.10056 0.30536 0.22071 0.0
C2173 C 0.11116 0.31284 0.20225 0.0
C2174 C 0.1044 0.31709 0.17878 0.0
H2175 H 0.10003 0.28967 0.1085 0.0
H2176 H 0.11292 0.30342 0.12815 0.0
H2177 H 0.09822 0.28822 0.14219 0.0
H2178 H 0.06278 0.30403 0.18788 0.0
H2179 H 0.07452 0.2966 0.22909 0.0
H2180 H 0.91127 0.83407 0.26198 0.0
H2181 H 0.9209 0.84443 0.3031 0.0
H2182 H 0.88624 0.80861 0.33934 0.0
H2183 H 0.87659 0.79813 0.29849 0.0
H2184 H 0.89905 0.85886 0.34171 0.0
H2185 H 0.93372 0.79987 0.37326 0.0
H2186 H 0.92855 0.8039 0.34075 0.0
H2187 H 0.91217 0.79619 0.36187 0.0
C2188 C 0.90578 0.82832 0.2787 0.0
C2189 C 0.8932 0.81525 0.27698 0.0
C2190 C 0.91128 0.83426 0.30214 0.0
C2191 C 0.90442 0.82711 0.32416 0.0
C2192 C 0.89189 0.81407 0.32252 0.0
H2193 H 0.91387 0.84327 0.48345 0.0
H2194 H 0.90662 0.83349 0.44113 0.0
C2195 C 0.88634 0.80817 0.29915 0.0
C2196 C 0.90981 0.8337 0.34894 0.0
H2197 H 0.9287 0.82154 0.40398 0.0
C2198 C 0.90566 0.85079 0.3553 0.0
C2199 C 0.91836 0.82305 0.36653 0.0
C2200 C 0.92362 0.80477 0.36027 0.0
C2201 C 0.90941 0.8574 0.37918 0.0
C2202 C 0.91784 0.84671 0.39688 0.0
C2203 C 0.92219 0.82967 0.39037 0.0
C2204 C 0.92213 0.85286 0.42239 0.0
C2205 C 0.90382 0.87558 0.38548 0.0
C2206 C 0.93337 0.86688 0.42582 0.0
C2207 C 0.93747 0.87256 0.44995 0.0
C2208 C 0.93053 0.86418 0.47108 0.0
C2209 C 0.9194 0.85002 0.46757 0.0
C2210 C 0.91526 0.8444 0.44342 0.0
H2211 H 0.8937 0.88035 0.37242 0.0
H2212 H 0.89877 0.87635 0.40495 0.0
H2213 H 0.91512 0.88436 0.38399 0.0
H2214 H 0.93911 0.87334 0.40983 0.0
H2215 H 0.9462 0.88341 0.45201 0.0
H2216 H 0.41602 0.67705 0.73259 0.0
H2217 H 0.42587 0.66918 0.69049 0.0
H2218 H 0.37398 0.6755 0.6623 0.0
H2219 H 0.36396 0.68305 0.7043 0.0
H2220 H 0.38911 0.64551 0.64628 0.0
H2221 H 0.4329 0.70131 0.63074 0.0
H2222 H 0.43744 0.6894 0.65888 0.0
H2223 H 0.41726 0.70075 0.65586 0.0
C2224 C 0.40672 0.67681 0.71741 0.0
C2225 C 0.38922 0.6807 0.72177 0.0
C2226 C 0.41239 0.67242 0.69335 0.0
C2227 C 0.4007 0.67204 0.67324 0.0
C2228 C 0.38322 0.67581 0.67757 0.0
H2229 H 0.4263 0.66648 0.51468 0.0
H2230 H 0.41609 0.67535 0.5562 0.0
C2231 C 0.37753 0.68011 0.70159 0.0
C2232 C 0.40652 0.66721 0.64776 0.0
H2233 H 0.43428 0.67855 0.6008 0.0
C2234 C 0.39894 0.65276 0.63628 0.0
C2235 C 0.41916 0.67686 0.63467 0.0
C2236 C 0.42706 0.69304 0.64553 0.0
C2237 C 0.40387 0.6475 0.61216 0.0
C2238 C 0.41698 0.65676 0.59945 0.0
C2239 C 0.42435 0.67139 0.61073 0.0
C2240 C 0.42325 0.65141 0.57443 0.0
C2241 C 0.39482 0.63224 0.60038 0.0
C2242 C 0.43087 0.63513 0.57109 0.0
C2243 C 0.43663 0.63 0.54744 0.0
C2244 C 0.43503 0.64115 0.52673 0.0
C2245 C 0.42767 0.65759 0.53024 0.0
C2246 C 0.42185 0.66268 0.55392 0.0
H2247 H 0.38212 0.62969 0.60939 0.0
H2248 H 0.39272 0.63435 0.58001 0.0
H2249 H 0.40294 0.62053 0.60273 0.0
H2250 H 0.43242 0.6264 0.58681 0.0
H2251 H 0.44238 0.61731 0.54543 0.0
H2252 H 0.58137 0.22652 0.79867 0.0
H2253 H 0.57152 0.21417 0.83841 0.0
H2254 H 0.60897 0.17315 0.83123 0.0
H2255 H 0.61916 0.18561 0.79183 0.0
H2256 H 0.55754 0.18246 0.84731 0.0
H2257 H 0.61812 0.1901 0.90178 0.0
H2258 H 0.61463 0.20079 0.87213 0.0
H2259 H 0.62111 0.17846 0.87301 0.0
C2260 C 0.58759 0.21494 0.80563 0.0
C2261 C 0.60112 0.2071 0.79219 0.0
C2262 C 0.58194 0.2079 0.82833 0.0
C2263 C 0.58972 0.19293 0.83797 0.0
C2264 C 0.6031 0.18497 0.82446 0.0
H2265 H 0.56824 0.12372 0.96116 0.0
H2266 H 0.57855 0.13767 0.92276 0.0
C2267 C 0.60883 0.19205 0.80186 0.0
C2268 C 0.58341 0.18527 0.8617 0.0
H2269 H 0.59627 0.17234 0.92002 0.0
C2270 C 0.56596 0.18038 0.86328 0.0
C2271 C 0.59445 0.18258 0.88251 0.0
C2272 C 0.61307 0.18841 0.88243 0.0
C2273 C 0.55934 0.17253 0.88496 0.0
C2274 C 0.57045 0.1696 0.90553 0.0
C2275 C 0.58785 0.17456 0.90407 0.0
C2276 C 0.56423 0.16132 0.92875 0.0
C2277 C 0.54062 0.16708 0.8856 0.0
C2278 C 0.55292 0.17013 0.94481 0.0
C2279 C 0.54707 0.16226 0.96681 0.0
C2280 C 0.55243 0.14542 0.97302 0.0
C2281 C 0.56384 0.13668 0.95686 0.0
C2282 C 0.56976 0.14461 0.93497 0.0
H2283 H 0.53452 0.16763 0.86675 0.0
H2284 H 0.53939 0.15373 0.89305 0.0
H2285 H 0.53335 0.17582 0.8983 0.0
H2286 H 0.54867 0.18312 0.94036 0.0
H2287 H 0.53831 0.16935 0.97886 0.0
H2288 H 0.06714 0.62514 0.45264 0.0
H2289 H 0.07565 0.63747 0.41236 0.0
H2290 H 0.04317 0.68178 0.4262 0.0
H2291 H 0.03486 0.66973 0.4669 0.0
H2292 H 0.05532 0.64568 0.37205 0.0
H2293 H 0.089 0.70413 0.40794 0.0
H2294 H 0.08304 0.68632 0.42801 0.0
H2295 H 0.06706 0.70185 0.41843 0.0
C2296 C 0.06186 0.63756 0.44721 0.0
C2297 C 0.0504 0.64652 0.46303 0.0
C2298 C 0.06672 0.64457 0.42417 0.0
C2299 C 0.06022 0.66064 0.41647 0.0
C2300 C 0.04863 0.66954 0.43205 0.0
H2301 H 0.07824 0.71777 0.27754 0.0
H2302 H 0.0661 0.70747 0.31727 0.0
C2303 C 0.04384 0.66259 0.45523 0.0
C2304 C 0.06538 0.66778 0.39184 0.0
H2305 H 0.08611 0.70167 0.36391 0.0
C2306 C 0.06203 0.65793 0.37027 0.0
C2307 C 0.0741 0.68379 0.3896 0.0
C2308 C 0.07867 0.69459 0.41222 0.0
C2309 C 0.06728 0.66361 0.3465 0.0
C2310 C 0.07619 0.67947 0.34434 0.0
C2311 C 0.07922 0.68952 0.36576 0.0
C2312 C 0.0832 0.68545 0.32011 0.0
C2313 C 0.0633 0.65262 0.32384 0.0
C2314 C 0.09689 0.6765 0.3088 0.0
C2315 C 0.10392 0.68237 0.28625 0.0
C2316 C 0.09733 0.69729 0.27462 0.0
C2317 C 0.08355 0.7062 0.28599 0.0
C2318 C 0.07661 0.70037 0.30867 0.0
H2319 H 0.05312 0.64287 0.32787 0.0
H2320 H 0.05902 0.66079 0.30788 0.0
H2321 H 0.07518 0.64567 0.318 0.0
H2322 H 0.10226 0.66507 0.31758 0.0
H2323 H 0.11453 0.67522 0.27799 0.0
H2324 H 0.57993 0.79993 0.73347 0.0
H2325 H 0.56725 0.80681 0.69263 0.0
H2326 H 0.61731 0.82262 0.66534 0.0
H2327 H 0.63015 0.8156 0.70593 0.0
H2328 H 0.56697 0.83842 0.66702 0.0
H2329 H 0.60092 0.78765 0.61247 0.0
H2330 H 0.59986 0.78746 0.64629 0.0
H2331 H 0.6151 0.80121 0.63047 0.0
C2332 C 0.58825 0.80485 0.71878 0.0
C2333 C 0.60606 0.80714 0.7229 0.0
C2334 C 0.58098 0.80877 0.69548 0.0
C2335 C 0.59141 0.81493 0.6759 0.0
C2336 C 0.60912 0.81752 0.68007 0.0
H2337 H 0.56275 0.8693 0.54139 0.0
H2338 H 0.57337 0.86022 0.58244 0.0
C2339 C 0.6164 0.81361 0.70334 0.0
C2340 C 0.58372 0.81904 0.65123 0.0
H2341 H 0.58614 0.80926 0.58892 0.0
C2342 C 0.57106 0.83199 0.64995 0.0
C2343 C 0.58894 0.81043 0.62909 0.0
C2344 C 0.60183 0.79579 0.62958 0.0
C2345 C 0.56381 0.83692 0.62693 0.0
C2346 C 0.5696 0.82885 0.60467 0.0
C2347 C 0.58188 0.81554 0.60603 0.0
C2348 C 0.56325 0.83422 0.57971 0.0
C2349 C 0.54997 0.85067 0.62666 0.0
C2350 C 0.55447 0.82243 0.56432 0.0
C2351 C 0.54846 0.82753 0.54073 0.0
C2352 C 0.55125 0.84449 0.53213 0.0
C2353 C 0.56031 0.85617 0.54749 0.0
C2354 C 0.5663 0.85105 0.57103 0.0
H2355 H 0.54377 0.85213 0.64533 0.0
H2356 H 0.55588 0.86326 0.62156 0.0
H2357 H 0.53982 0.84763 0.6126 0.0
H2358 H 0.55212 0.80934 0.57066 0.0
H2359 H 0.54157 0.81822 0.52933 0.0
H2360 H 0.42079 0.317 0.77311 0.0
H2361 H 0.4285 0.32734 0.815 0.0
H2362 H 0.38813 0.29591 0.84717 0.0
H2363 H 0.38013 0.28573 0.80542 0.0
H2364 H 0.38749 0.32933 0.8641 0.0
H2365 H 0.45367 0.30216 0.87145 0.0
H2366 H 0.45025 0.31501 0.84385 0.0
H2367 H 0.43843 0.29518 0.84789 0.0
C2368 C 0.41365 0.31217 0.78912 0.0
C2369 C 0.39985 0.30054 0.78594 0.0
C2370 C 0.41814 0.31802 0.81305 0.0
C2371 C 0.40903 0.3122 0.83419 0.0
C2372 C 0.39536 0.30049 0.83108 0.0
H2373 H 0.43708 0.32922 0.99034 0.0
H2374 H 0.43015 0.31643 0.94956 0.0
C2375 C 0.39082 0.2947 0.8072 0.0
C2376 C 0.41313 0.31897 0.85945 0.0
H2377 H 0.44544 0.32256 0.90273 0.0
C2378 C 0.40013 0.32778 0.87261 0.0
C2379 C 0.42957 0.31673 0.87059 0.0
C2380 C 0.44375 0.30661 0.85785 0.0
C2381 C 0.40321 0.33472 0.89647 0.0
C2382 C 0.41984 0.33306 0.90721 0.0
C2383 C 0.43275 0.32394 0.8943 0.0
C2384 C 0.4241 0.34082 0.93178 0.0
C2385 C 0.38859 0.34361 0.91008 0.0
C2386 C 0.42319 0.35878 0.93512 0.0
C2387 C 0.42707 0.36612 0.95835 0.0
C2388 C 0.43207 0.35563 0.97863 0.0
C2389 C 0.43321 0.33765 0.97512 0.0
C2390 C 0.42929 0.33032 0.95185 0.0
H2391 H 0.37579 0.33973 0.90248 0.0
H2392 H 0.3889 0.34063 0.93045 0.0
H2393 H 0.38989 0.3578 0.90776 0.0
H2394 H 0.41954 0.36713 0.9197 0.0
H2395 H 0.4262 0.38002 0.96037 0.0
H2396 H 0.87223 0.1878 0.19414 0.0
H2397 H 0.88511 0.18021 0.15381 0.0
H2398 H 0.93559 0.19365 0.18207 0.0
H2399 H 0.92285 0.20112 0.22269 0.0
H2400 H 0.90521 0.20077 0.12069 0.0
H2401 H 0.94114 0.14353 0.15648 0.0
H2402 H 0.92404 0.15377 0.17409 0.0
H2403 H 0.94507 0.16355 0.17262 0.0
C2404 C 0.88608 0.18915 0.19183 0.0
C2405 C 0.89655 0.19494 0.21169 0.0
C2406 C 0.8934 0.18486 0.16875 0.0
C2407 C 0.91129 0.18621 0.16511 0.0
C2408 C 0.92177 0.19229 0.18468 0.0
H2409 H 0.96068 0.17332 0.01799 0.0
H2410 H 0.95134 0.18551 0.0582 0.0
C2411 C 0.91446 0.19659 0.20783 0.0
C2412 C 0.91889 0.18093 0.14087 0.0
H2413 H 0.94447 0.15029 0.11368 0.0
C2414 C 0.9139 0.18982 0.1191 0.0
C2415 C 0.93008 0.16655 0.13899 0.0
C2416 C 0.93534 0.15617 0.16171 0.0
C2417 C 0.91964 0.18454 0.09535 0.0
C2418 C 0.9308 0.17013 0.09348 0.0
C2419 C 0.93599 0.16141 0.11528 0.0
C2420 C 0.93631 0.16312 0.06899 0.0
C2421 C 0.91326 0.19399 0.0724 0.0
C2422 C 0.93109 0.14646 0.06197 0.0
C2423 C 0.93642 0.13946 0.03916 0.0
C2424 C 0.94716 0.14897 0.02296 0.0
C2425 C 0.95235 0.1657 0.03001 0.0
C2426 C 0.94699 0.17271 0.0529 0.0
H2427 H 0.90222 0.20267 0.07675 0.0
H2428 H 0.92391 0.20198 0.06464 0.0
H2429 H 0.90919 0.1847 0.05767 0.0
H2430 H 0.92287 0.13886 0.07418 0.0
H2431 H 0.93221 0.12652 0.03434 0.0
H2432 H 0.95009 0.67339 0.97605 0.0
H2433 H 0.94305 0.68589 0.93505 0.0
H2434 H 0.92825 0.63549 0.90796 0.0
H2435 H 0.9354 0.62288 0.94856 0.0
H2436 H 0.94989 0.6542 0.87497 0.0
H2437 H 0.89352 0.69288 0.90765 0.0
H2438 H 0.91353 0.69628 0.92408 0.0
H2439 H 0.90284 0.67573 0.92621 0.0
C2440 C 0.94532 0.66498 0.96136 0.0
C2441 C 0.94322 0.64716 0.9656 0.0
C2442 C 0.94126 0.67215 0.93801 0.0
C2443 C 0.93498 0.66162 0.91864 0.0
C2444 C 0.93307 0.64382 0.92273 0.0
H2445 H 0.87721 0.67903 0.78534 0.0
H2446 H 0.88869 0.67182 0.82666 0.0
C2447 C 0.93711 0.63666 0.94598 0.0
C2448 C 0.93026 0.66895 0.89398 0.0
H2449 H 0.90048 0.69447 0.86472 0.0
C2450 C 0.9392 0.66314 0.87268 0.0
C2451 C 0.91621 0.68047 0.89119 0.0
C2452 C 0.90584 0.68666 0.91342 0.0
C2453 C 0.93422 0.66828 0.84852 0.0
C2454 C 0.92008 0.67969 0.84571 0.0
C2455 C 0.91137 0.68579 0.86704 0.0
C2456 C 0.91331 0.68445 0.82074 0.0
C2457 C 0.94365 0.66091 0.82617 0.0
C2458 C 0.92335 0.69406 0.80383 0.0
C2459 C 0.91685 0.69816 0.7801 0.0
C2460 C 0.90018 0.69278 0.773 0.0
C2461 C 0.89012 0.68332 0.79016 0.0
C2462 C 0.89663 0.67923 0.81381 0.0
H2463 H 0.95199 0.64978 0.83138 0.0
H2464 H 0.93435 0.65662 0.81157 0.0
H2465 H 0.952 0.67106 0.81784 0.0
H2466 H 0.93617 0.69841 0.80901 0.0
H2467 H 0.92487 0.70556 0.76737 0.0
H2468 H 0.07282 0.19756 0.7195 0.0
H2469 H 0.06136 0.18884 0.6786 0.0
H2470 H 0.11308 0.17804 0.65278 0.0
H2471 H 0.12464 0.18648 0.69358 0.0
H2472 H 0.06867 0.2022 0.63072 0.0
H2473 H 0.0869 0.13303 0.63832 0.0
H2474 H 0.08671 0.1474 0.66498 0.0
H2475 H 0.10457 0.14767 0.6434 0.0
C2476 C 0.08175 0.19328 0.70514 0.0
C2477 C 0.09962 0.19258 0.70983 0.0
C2478 C 0.07518 0.18834 0.6818 0.0
C2479 C 0.08637 0.18256 0.66287 0.0
C2480 C 0.10422 0.18214 0.66735 0.0
H2481 H 0.06797 0.17148 0.50353 0.0
H2482 H 0.07653 0.18149 0.54525 0.0
C2483 C 0.1108 0.18704 0.69064 0.0
C2484 C 0.07942 0.17707 0.63832 0.0
H2485 H 0.07761 0.14277 0.59824 0.0
C2486 C 0.07051 0.18919 0.62362 0.0
C2487 C 0.08168 0.16002 0.62934 0.0
C2488 C 0.09034 0.14622 0.64491 0.0
C2489 C 0.06412 0.18481 0.59983 0.0
C2490 C 0.06699 0.16795 0.59045 0.0
C2491 C 0.07557 0.15574 0.60541 0.0
C2492 C 0.06116 0.16258 0.56522 0.0
C2493 C 0.0542 0.19817 0.5851 0.0
C2494 C 0.04991 0.14848 0.56265 0.0
C2495 C 0.04515 0.14263 0.5389 0.0
C2496 C 0.05159 0.15076 0.51724 0.0
C2497 C 0.06271 0.16501 0.51985 0.0
C2498 C 0.06753 0.17082 0.54367 0.0
H2499 H 0.0491 0.20858 0.59742 0.0
H2500 H 0.06294 0.20422 0.57113 0.0
H2501 H 0.04322 0.19219 0.57487 0.0
H2502 H 0.04491 0.14191 0.57907 0.0
H2503 H 0.03654 0.13162 0.53755 0.0
H2504 H 0.55527 0.36562 0.44361 0.0
H2505 H 0.56314 0.35365 0.40289 0.0
H2506 H 0.54915 0.30263 0.42838 0.0
H2507 H 0.5414 0.31448 0.4695 0.0
H2508 H 0.5811 0.30395 0.40424 0.0
H2509 H 0.53059 0.33653 0.34775 0.0
H2510 H 0.5428 0.35126 0.3668 0.0
H2511 H 0.52954 0.33506 0.38152 0.0
C2512 C 0.55379 0.35185 0.4406 0.0
C2513 C 0.54766 0.341 0.45979 0.0
C2514 C 0.55818 0.34507 0.41723 0.0
C2515 C 0.55642 0.32733 0.41251 0.0
C2516 C 0.55045 0.31639 0.43164 0.0
H2517 H 0.5701 0.28558 0.26127 0.0
H2518 H 0.55814 0.29247 0.30258 0.0
C2519 C 0.54604 0.32318 0.45509 0.0
C2520 C 0.56152 0.32021 0.38787 0.0
H2521 H 0.55451 0.32459 0.32502 0.0
C2522 C 0.57517 0.30829 0.38691 0.0
C2523 C 0.55357 0.32571 0.36536 0.0
C2524 C 0.53819 0.33771 0.36535 0.0
C2525 C 0.5816 0.30229 0.36391 0.0
C2526 C 0.57434 0.30862 0.34137 0.0
C2527 C 0.56019 0.31994 0.34235 0.0
C2528 C 0.58165 0.30416 0.31657 0.0
C2529 C 0.59615 0.2893 0.36396 0.0
C2530 C 0.59872 0.30871 0.31068 0.0
C2531 C 0.60559 0.30481 0.28716 0.0
C2532 C 0.59545 0.29639 0.26901 0.0
C2533 C 0.57826 0.29204 0.27485 0.0
C2534 C 0.5714 0.29595 0.29843 0.0
H2535 H 0.59673 0.28207 0.38195 0.0
H2536 H 0.59473 0.27991 0.34835 0.0
H2537 H 0.60862 0.29619 0.36155 0.0
H2538 H 0.60671 0.31543 0.32423 0.0
H2539 H 0.61884 0.30843 0.28321 0.0
H2540 H 0.43679 0.86914 0.04495 0.0
H2541 H 0.42771 0.85822 0.08584 0.0
H2542 H 0.44483 0.80708 0.0654 0.0
H2543 H 0.4538 0.81783 0.02423 0.0
H2544 H 0.4119 0.80783 0.08687 0.0
H2545 H 0.45911 0.84439 0.14446 0.0
H2546 H 0.44675 0.85772 0.12353 0.0
H2547 H 0.46138 0.84186 0.11096 0.0
C2548 C 0.43869 0.85558 0.04914 0.0
C2549 C 0.44608 0.84436 0.03137 0.0
C2550 C 0.43358 0.84939 0.07258 0.0
C2551 C 0.43588 0.83192 0.07875 0.0
C2552 C 0.44308 0.82064 0.06101 0.0
H2553 H 0.42318 0.78948 0.22906 0.0
H2554 H 0.43465 0.79796 0.18809 0.0
C2555 C 0.44819 0.82681 0.03752 0.0
C2556 C 0.43024 0.82536 0.10348 0.0
H2557 H 0.43593 0.83082 0.16644 0.0
C2558 C 0.41722 0.81275 0.10428 0.0
C2559 C 0.4374 0.83165 0.12611 0.0
C2560 C 0.45205 0.84453 0.12632 0.0
C2561 C 0.41078 0.80662 0.1272 0.0
C2562 C 0.41739 0.8135 0.14983 0.0
C2563 C 0.43078 0.82572 0.14903 0.0
C2564 C 0.41042 0.80834 0.17454 0.0
C2565 C 0.39704 0.79277 0.127 0.0
C2566 C 0.39307 0.81163 0.18055 0.0
C2567 C 0.38648 0.8068 0.20389 0.0
C2568 C 0.39716 0.7987 0.2217 0.0
C2569 C 0.41461 0.79566 0.21574 0.0
C2570 C 0.42119 0.80049 0.19236 0.0
H2571 H 0.39682 0.78565 0.10891 0.0
H2572 H 0.39909 0.78336 0.14244 0.0
H2573 H 0.38419 0.79887 0.12965 0.0
H2574 H 0.38465 0.81801 0.16723 0.0
H2575 H 0.37301 0.8094 0.20793 0.0
H2576 H 0.93455 0.3656 0.54103 0.0
H2577 H 0.92433 0.35338 0.58062 0.0
H2578 H 0.96228 0.31274 0.57519 0.0
H2579 H 0.97265 0.32483 0.53549 0.0
H2580 H 0.91198 0.3175 0.5871 0.0
H2581 H 0.9684 0.33458 0.64711 0.0
H2582 H 0.96387 0.34557 0.61795 0.0
H2583 H 0.97282 0.32419 0.61759 0.0
C2584 C 0.94079 0.3541 0.54827 0.0
C2585 C 0.95442 0.34618 0.53513 0.0
C2586 C 0.93492 0.34715 0.57086 0.0
C2587 C 0.94267 0.33229 0.58081 0.0
C2588 C 0.9563 0.32435 0.56787 0.0
H2589 H 0.92049 0.2772 0.72008 0.0
H2590 H 0.93334 0.28661 0.68037 0.0
C2591 C 0.96214 0.33124 0.54517 0.0
C2592 C 0.93603 0.32483 0.60437 0.0
H2593 H 0.94575 0.31899 0.66619 0.0
C2594 C 0.91935 0.31777 0.6044 0.0
C2595 C 0.9458 0.32511 0.62675 0.0
C2596 C 0.96369 0.33284 0.62759 0.0
C2597 C 0.91207 0.31103 0.62638 0.0
C2598 C 0.92161 0.31178 0.64899 0.0
C2599 C 0.93847 0.3185 0.64883 0.0
C2600 C 0.91405 0.30624 0.67313 0.0
C2601 C 0.89428 0.30304 0.62515 0.0
C2602 C 0.89917 0.31441 0.68238 0.0
C2603 C 0.89178 0.30905 0.70492 0.0
C2604 C 0.89925 0.29552 0.71879 0.0
C2605 C 0.91441 0.28762 0.70979 0.0
C2606 C 0.92176 0.29297 0.68714 0.0
H2607 H 0.89101 0.29886 0.60579 0.0
H2608 H 0.89326 0.29171 0.63784 0.0
H2609 H 0.88455 0.31276 0.63105 0.0
H2610 H 0.89327 0.32496 0.67213 0.0
H2611 H 0.88019 0.3155 0.71143 0.0
H2612 H 0.42034 0.1906 0.25991 0.0
H2613 H 0.43107 0.18115 0.30089 0.0
H2614 H 0.37867 0.17324 0.32607 0.0
H2615 H 0.36784 0.18239 0.28519 0.0
H2616 H 0.42449 0.1948 0.34849 0.0
H2617 H 0.40192 0.12692 0.34119 0.0
H2618 H 0.40299 0.1412 0.31447 0.0
H2619 H 0.38516 0.14257 0.33604 0.0
C2620 C 0.4111 0.18679 0.27414 0.0
C2621 C 0.39324 0.18712 0.26923 0.0
C2622 C 0.41725 0.18143 0.29753 0.0
C2623 C 0.40566 0.17625 0.31632 0.0
C2624 C 0.38784 0.17685 0.31162 0.0
H2625 H 0.42284 0.1649 0.47596 0.0
H2626 H 0.41494 0.17508 0.43406 0.0
C2627 C 0.38168 0.18215 0.28827 0.0
C2628 C 0.41214 0.17039 0.34097 0.0
H2629 H 0.41151 0.13623 0.38138 0.0
C2630 C 0.42176 0.18197 0.35567 0.0
C2631 C 0.40874 0.15357 0.35008 0.0
C2632 C 0.39928 0.14028 0.33454 0.0
C2633 C 0.42774 0.17728 0.37957 0.0
C2634 C 0.42371 0.16069 0.38908 0.0
C2635 C 0.41443 0.149 0.37413 0.0
C2636 C 0.42907 0.15507 0.41443 0.0
C2637 C 0.43846 0.19003 0.39427 0.0
C2638 C 0.43936 0.14028 0.41727 0.0
C2639 C 0.44374 0.13433 0.44114 0.0
C2640 C 0.43785 0.14305 0.46265 0.0
C2641 C 0.42765 0.15796 0.45976 0.0
C2642 C 0.42322 0.16386 0.43584 0.0
H2643 H 0.44431 0.2 0.3819 0.0
H2644 H 0.43007 0.19673 0.40807 0.0
H2645 H 0.44896 0.18338 0.4047 0.0
H2646 H 0.44394 0.13327 0.40097 0.0
H2647 H 0.45164 0.12282 0.44269 0.0
H2648 H 0.55483 0.61461 0.03514 0.0
H2649 H 0.56164 0.62479 0.07734 0.0
H2650 H 0.56978 0.67629 0.04864 0.0
H2651 H 0.56263 0.6663 0.00637 0.0
H2652 H 0.59154 0.63901 0.09433 0.0
H2653 H 0.5372 0.68493 0.10716 0.0
H2654 H 0.53765 0.66916 0.08221 0.0
H2655 H 0.54967 0.68897 0.07937 0.0
C2656 C 0.55799 0.62813 0.03779 0.0
C2657 C 0.55815 0.63967 0.01741 0.0
C2658 C 0.56187 0.63392 0.06193 0.0
C2659 C 0.56594 0.65134 0.06617 0.0
C2660 C 0.56626 0.66287 0.04586 0.0
H2661 H 0.62152 0.69345 0.19219 0.0
H2662 H 0.61188 0.68289 0.15141 0.0
C2663 C 0.5623 0.65712 0.0217 0.0
C2664 C 0.57056 0.65723 0.09171 0.0
H2665 H 0.55991 0.68627 0.13737 0.0
C2666 C 0.58457 0.64928 0.1038 0.0
C2667 C 0.56127 0.67044 0.10416 0.0
C2668 C 0.5455 0.67877 0.09268 0.0
C2669 C 0.58981 0.65446 0.12782 0.0
C2670 C 0.58101 0.66819 0.13979 0.0
C2671 C 0.56673 0.67587 0.12799 0.0
C2672 C 0.58661 0.67492 0.16444 0.0
C2673 C 0.60461 0.64505 0.14024 0.0
C2674 C 0.57538 0.67441 0.18509 0.0
C2675 C 0.58081 0.68056 0.20846 0.0
C2676 C 0.59753 0.68737 0.21146 0.0
C2677 C 0.60861 0.68814 0.19057 0.0
C2678 C 0.60316 0.68204 0.16727 0.0
H2679 H 0.60665 0.63205 0.13191 0.0
H2680 H 0.61667 0.6526 0.13761 0.0
H2681 H 0.60232 0.64355 0.16068 0.0
H2682 H 0.56251 0.66906 0.1832 0.0
H2683 H 0.57195 0.67985 0.22416 0.0
H2684 H 0.06841 0.79193 0.76695 0.0
H2685 H 0.05634 0.8021 0.80674 0.0
H2686 H 0.10577 0.82392 0.82673 0.0
H2687 H 0.11802 0.81361 0.78727 0.0
H2688 H 0.09111 0.80417 0.86455 0.0
H2689 H 0.04417 0.85184 0.82665 0.0
H2690 H 0.04223 0.83046 0.81382 0.0
H2691 H 0.06145 0.84286 0.80798 0.0
C2692 C 0.07669 0.79898 0.77975 0.0
C2693 C 0.09416 0.802 0.77394 0.0
C2694 C 0.06974 0.80485 0.8024 0.0
C2695 C 0.08012 0.81394 0.81948 0.0
C2696 C 0.09755 0.81698 0.81372 0.0
H2697 H 0.05068 0.87364 0.94948 0.0
H2698 H 0.06096 0.86339 0.90874 0.0
C2699 C 0.10451 0.81109 0.79115 0.0
C2700 C 0.07306 0.8198 0.84379 0.0
H2701 H 0.04287 0.84625 0.87035 0.0
C2702 C 0.08056 0.81337 0.86585 0.0
C2703 C 0.05943 0.83193 0.84534 0.0
C2704 C 0.05142 0.83982 0.82221 0.0
C2705 C 0.07474 0.8187 0.88951 0.0
C2706 C 0.06085 0.83053 0.89107 0.0
C2707 C 0.05341 0.83705 0.86902 0.0
C2708 C 0.05419 0.83666 0.91547 0.0
C2709 C 0.08374 0.81191 0.91261 0.0
C2710 C 0.04676 0.82503 0.93252 0.0
C2711 C 0.04092 0.83082 0.95584 0.0
C2712 C 0.04233 0.84837 0.9624 0.0
C2713 C 0.04947 0.86004 0.94503 0.0
C2714 C 0.05532 0.85422 0.92174 0.0
H2715 H 0.09662 0.80635 0.90811 0.0
H2716 H 0.08545 0.82231 0.92675 0.0
H2717 H 0.07575 0.80155 0.92115 0.0
H2718 H 0.04549 0.81147 0.9278 0.0
H2719 H 0.03537 0.82153 0.96872 0.0
loop_
_geom_bond_atom_site_label_1
_geom_bond_atom_site_label_2
_geom_bond_distance
_geom_bond_site_symmetry_2
_ccdc_geom_bond_type
C0 O1 1.160 . S
C0 O7 1.185 . S
O1 C0 1.160 . S
O2 Zn3 1.899 . S
O2 C10 1.284 . S
Zn3 O2 1.899 . S
Zn3 O4 2.032 . S
Zn3 O7 2.086 . S
Zn3 O12 1.977 . S
O4 Zn3 2.032 . S
O4 C8 1.278 . S
C5 O6 1.203 . S
C5 O12 1.267 . S
O6 C5 1.203 . S
O7 C0 1.185 . S
O7 Zn3 2.086 . S
C8 O4 1.278 . S
C8 O9 1.211 . S
O9 C8 1.211 . S
C10 O2 1.284 . S
C10 O11 1.273 . S
O11 C10 1.273 . S
O12 Zn3 1.977 . S
O12 C5 1.267 . S
C13 O14 1.160 . S
C13 O20 1.185 . S
O14 C13 1.160 . S
O15 Zn16 1.899 . S
O15 C23 1.284 1_655 S
Zn16 O15 1.899 . S
Zn16 O17 2.032 . S
Zn16 O20 2.086 . S
Zn16 O25 1.977 . S
O17 Zn16 2.032 . S
O17 C21 1.278 . S
C18 O19 1.203 . S
C18 O25 1.267 . S
O19 C18 1.203 . S
O20 C13 1.185 . S
O20 Zn16 2.086 . S
C21 O17 1.278 . S
C21 O22 1.211 . S
O22 C21 1.211 . S
C23 O15 1.284 1_455 S
C23 O24 1.273 1_455 S
O24 C23 1.273 1_655 S
O25 Zn16 1.977 . S
O25 C18 1.267 . S
C26 O27 1.160 . S
C26 O33 1.185 . S
O27 C26 1.160 . S
O28 Zn29 1.899 . S
O28 C36 1.284 . S
Zn29 O28 1.899 . S
Zn29 O30 2.032 . S
Zn29 O33 2.086 . S
Zn29 O38 1.977 . S
O30 Zn29 2.032 . S
O30 C34 1.278 . S
C31 O32 1.203 . S
C31 O38 1.267 . S
O32 C31 1.203 . S
O33 C26 1.185 . S
O33 Zn29 2.086 . S
C34 O30 1.278 . S
C34 O35 1.211 . S
O35 C34 1.211 . S
C36 O28 1.284 . S
C36 O37 1.273 . S
O37 C36 1.273 . S
O38 Zn29 1.977 . S
O38 C31 1.267 . S
C39 O40 1.160 . S
C39 O46 1.185 . S
O40 C39 1.160 . S
O41 Zn42 1.899 . S
O41 C49 1.284 . S
Zn42 O41 1.899 . S
Zn42 O43 2.032 1_554 S
Zn42 O46 2.086 . S
Zn42 O51 1.977 . S
O43 Zn42 2.032 1_556 S
O43 C47 1.278 . S
C44 O45 1.203 . S
C44 O51 1.267 . S
O45 C44 1.203 . S
O46 C39 1.185 . S
O46 Zn42 2.086 . S
C47 O43 1.278 . S
C47 O48 1.211 . S
O48 C47 1.211 . S
C49 O41 1.284 . S
C49 O50 1.273 . S
O50 C49 1.273 . S
O51 Zn42 1.977 . S
O51 C44 1.267 . S
C52 O53 1.160 . S
C52 O59 1.185 . S
O53 C52 1.160 . S
O54 Zn55 1.899 . S
O54 C62 1.284 . S
Zn55 O54 1.899 . S
Zn55 O56 2.032 . S
Zn55 O59 2.086 . S
Zn55 O64 1.977 . S
O56 Zn55 2.032 . S
O56 C60 1.278 . S
C57 O58 1.203 . S
C57 O64 1.267 . S
O58 C57 1.203 . S
O59 C52 1.185 . S
O59 Zn55 2.086 . S
C60 O56 1.278 . S
C60 O61 1.211 . S
O61 C60 1.211 . S
C62 O54 1.284 . S
C62 O63 1.273 . S
O63 C62 1.273 . S
O64 Zn55 1.977 . S
O64 C57 1.267 . S
C65 O66 1.160 . S
C65 O72 1.185 . S
O66 C65 1.160 . S
O67 Zn68 1.899 . S
O67 C75 1.284 . S
Zn68 O67 1.899 . S
Zn68 O69 2.032 . S
Zn68 O72 2.086 . S
Zn68 O77 1.977 . S
O69 Zn68 2.032 . S
O69 C73 1.278 . S
C70 O71 1.203 . S
C70 O77 1.267 . S
O71 C70 1.203 . S
O72 C65 1.185 . S
O72 Zn68 2.086 . S
C73 O69 1.278 . S
C73 O74 1.211 . S
O74 C73 1.211 . S
C75 O67 1.284 . S
C75 O76 1.273 . S
O76 C75 1.273 . S
O77 Zn68 1.977 . S
O77 C70 1.267 . S
C78 O79 1.160 . S
C78 O85 1.185 . S
O79 C78 1.160 . S
O80 Zn81 1.899 . S
O80 C88 1.284 . S
Zn81 O80 1.899 . S
Zn81 O82 2.032 . S
Zn81 O85 2.086 . S
Zn81 O90 1.977 . S
O82 Zn81 2.032 . S
O82 C86 1.278 . S
C83 O84 1.203 . S
C83 O90 1.267 . S
O84 C83 1.203 . S
O85 C78 1.185 . S
O85 Zn81 2.086 . S
C86 O82 1.278 . S
C86 O87 1.211 . S
O87 C86 1.211 . S
C88 O80 1.284 . S
C88 O89 1.273 . S
O89 C88 1.273 . S
O90 Zn81 1.977 . S
O90 C83 1.267 . S
C91 O92 1.160 . S
C91 O98 1.185 . S
O92 C91 1.160 . S
O93 Zn94 1.899 . S
O93 C101 1.284 1_655 S
Zn94 O93 1.899 . S
Zn94 O95 2.032 1_556 S
Zn94 O98 2.086 . S
Zn94 O103 1.977 . S
O95 Zn94 2.032 1_554 S
O95 C99 1.278 . S
C96 O97 1.203 . S
C96 O103 1.267 . S
O97 C96 1.203 . S
O98 C91 1.185 . S
O98 Zn94 2.086 . S
C99 O95 1.278 . S
C99 O100 1.211 . S
O100 C99 1.211 . S
C101 O93 1.284 1_455 S
C101 O102 1.273 1_455 S
O102 C101 1.273 1_655 S
O103 Zn94 1.977 . S
O103 C96 1.267 . S
C104 O105 1.160 . S
C104 O111 1.185 . S
O105 C104 1.160 . S
O106 Zn107 1.899 . S
O106 C114 1.284 . S
Zn107 O106 1.899 . S
Zn107 O108 2.032 . S
Zn107 O111 2.086 . S
Zn107 O116 1.977 . S
O108 Zn107 2.032 . S
O108 C112 1.278 . S
C109 O110 1.203 . S
C109 O116 1.267 . S
O110 C109 1.203 . S
O111 C104 1.185 . S
O111 Zn107 2.086 . S
C112 O108 1.278 . S
C112 O113 1.211 . S
O113 C112 1.211 . S
C114 O106 1.284 . S
C114 O115 1.273 . S
O115 C114 1.273 . S
O116 Zn107 1.977 . S
O116 C109 1.267 . S
C117 O118 1.160 . S
C117 O124 1.185 . S
O118 C117 1.160 . S
O119 Zn120 1.899 . S
O119 C127 1.284 1_455 S
Zn120 O119 1.899 . S
Zn120 O121 2.032 . S
Zn120 O124 2.086 . S
Zn120 O129 1.977 . S
O121 Zn120 2.032 . S
O121 C125 1.278 . S
C122 O123 1.203 . S
C122 O129 1.267 . S
O123 C122 1.203 . S
O124 C117 1.185 . S
O124 Zn120 2.086 . S
C125 O121 1.278 . S
C125 O126 1.211 . S
O126 C125 1.211 . S
C127 O119 1.284 1_655 S
C127 O128 1.273 1_655 S
O128 C127 1.273 1_455 S
O129 Zn120 1.977 . S
O129 C122 1.267 . S
C130 O131 1.160 . S
C130 O137 1.185 . S
O131 C130 1.160 . S
O132 Zn133 1.899 . S
O132 C140 1.284 . S
Zn133 O132 1.899 . S
Zn133 O134 2.032 . S
Zn133 O137 2.086 . S
Zn133 O142 1.977 . S
O134 Zn133 2.032 . S
O134 C138 1.278 . S
C135 O136 1.203 . S
C135 O142 1.267 . S
O136 C135 1.203 . S
O137 C130 1.185 . S
O137 Zn133 2.086 . S
C138 O134 1.278 . S
C138 O139 1.211 . S
O139 C138 1.211 . S
C140 O132 1.284 . S
C140 O141 1.273 . S
O141 C140 1.273 . S
O142 Zn133 1.977 . S
O142 C135 1.267 . S
C143 O144 1.160 . S
C143 O150 1.185 . S
O144 C143 1.160 . S
O145 Zn146 1.899 . S
O145 C153 1.284 . S
Zn146 O145 1.899 . S
Zn146 O147 2.032 1_556 S
Zn146 O150 2.086 . S
Zn146 O155 1.977 . S
O147 Zn146 2.032 1_554 S
O147 C151 1.278 . S
C148 O149 1.203 . S
C148 O155 1.267 . S
O149 C148 1.203 . S
O150 C143 1.185 . S
O150 Zn146 2.086 . S
C151 O147 1.278 . S
C151 O152 1.211 . S
O152 C151 1.211 . S
C153 O145 1.284 . S
C153 O154 1.273 . S
O154 C153 1.273 . S
O155 Zn146 1.977 . S
O155 C148 1.267 . S
C156 O157 1.160 . S
C156 O163 1.185 . S
O157 C156 1.160 . S
O158 Zn159 1.899 . S
O158 C166 1.284 . S
Zn159 O158 1.899 . S
Zn159 O160 2.032 . S
Zn159 O163 2.086 . S
Zn159 O168 1.977 . S
O160 Zn159 2.032 . S
O160 C164 1.278 . S
C161 O162 1.203 . S
C161 O168 1.267 . S
O162 C161 1.203 . S
O163 C156 1.185 . S
O163 Zn159 2.086 . S
C164 O160 1.278 . S
C164 O165 1.211 . S
O165 C164 1.211 . S
C166 O158 1.284 . S
C166 O167 1.273 . S
O167 C166 1.273 . S
O168 Zn159 1.977 . S
O168 C161 1.267 . S
C169 O170 1.160 . S
C169 O176 1.185 . S
O170 C169 1.160 . S
O171 Zn172 1.899 . S
O171 C179 1.284 . S
Zn172 O171 1.899 . S
Zn172 O173 2.032 . S
Zn172 O176 2.086 . S
Zn172 O181 1.977 . S
O173 Zn172 2.032 . S
O173 C177 1.278 . S
C174 O175 1.203 . S
C174 O181 1.267 . S
O175 C174 1.203 . S
O176 C169 1.185 . S
O176 Zn172 2.086 . S
C177 O173 1.278 . S
C177 O178 1.211 . S
O178 C177 1.211 . S
C179 O171 1.284 . S
C179 O180 1.273 . S
O180 C179 1.273 . S
O181 Zn172 1.977 . S
O181 C174 1.267 . S
C182 O183 1.160 . S
C182 O189 1.185 . S
O183 C182 1.160 . S
O184 Zn185 1.899 . S
O184 C192 1.284 . S
Zn185 O184 1.899 . S
Zn185 O186 2.032 . S
Zn185 O189 2.086 . S
Zn185 O194 1.977 . S
O186 Zn185 2.032 . S
O186 C190 1.278 . S
C187 O188 1.203 . S
C187 O194 1.267 . S
O188 C187 1.203 . S
O189 C182 1.185 . S
O189 Zn185 2.086 . S
C190 O186 1.278 . S
C190 O191 1.211 . S
O191 C190 1.211 . S
C192 O184 1.284 . S
C192 O193 1.273 . S
O193 C192 1.273 . S
O194 Zn185 1.977 . S
O194 C187 1.267 . S
C195 O196 1.160 . S
C195 O202 1.185 . S
O196 C195 1.160 . S
O197 Zn198 1.899 . S
O197 C205 1.284 1_455 S
Zn198 O197 1.899 . S
Zn198 O199 2.032 1_554 S
Zn198 O202 2.086 . S
Zn198 O207 1.977 . S
O199 Zn198 2.032 1_556 S
O199 C203 1.278 . S
C200 O201 1.203 . S
C200 O207 1.267 . S
O201 C200 1.203 . S
O202 C195 1.185 . S
O202 Zn198 2.086 . S
C203 O199 1.278 . S
C203 O204 1.211 . S
O204 C203 1.211 . S
C205 O197 1.284 1_655 S
C205 O206 1.273 1_655 S
O206 C205 1.273 1_455 S
O207 Zn198 1.977 . S
O207 C200 1.267 . S
C208 O209 1.160 . S
C208 O215 1.185 . S
O209 C208 1.160 . S
O210 Zn211 1.899 . S
O210 C218 1.284 . S
Zn211 O210 1.899 . S
Zn211 O212 2.032 . S
Zn211 O215 2.086 . S
Zn211 O220 1.977 . S
O212 Zn211 2.032 . S
O212 C216 1.278 . S
C213 O214 1.203 . S
C213 O220 1.267 . S
O214 C213 1.203 . S
O215 C208 1.185 . S
O215 Zn211 2.086 . S
C216 O212 1.278 . S
C216 O217 1.211 . S
O217 C216 1.211 . S
C218 O210 1.284 . S
C218 O219 1.273 . S
O219 C218 1.273 . S
O220 Zn211 1.977 . S
O220 C213 1.267 . S
C221 O222 1.160 . S
C221 O228 1.185 . S
O222 C221 1.160 . S
O223 Zn224 1.899 . S
O223 C231 1.284 . S
Zn224 O223 1.899 . S
Zn224 O225 2.032 1_554 S
Zn224 O228 2.086 . S
Zn224 O233 1.977 . S
O225 Zn224 2.032 1_556 S
O225 C229 1.278 . S
C226 O227 1.203 . S
C226 O233 1.267 . S
O227 C226 1.203 . S
O228 C221 1.185 . S
O228 Zn224 2.086 . S
C229 O225 1.278 . S
C229 O230 1.211 . S
O230 C229 1.211 . S
C231 O223 1.284 . S
C231 O232 1.273 . S
O232 C231 1.273 . S
O233 Zn224 1.977 . S
O233 C226 1.267 . S
C234 O235 1.160 . S
C234 O241 1.185 . S
O235 C234 1.160 . S
O236 Zn237 1.899 . S
O236 C244 1.284 . S
Zn237 O236 1.899 . S
Zn237 O238 2.032 . S
Zn237 O241 2.086 . S
Zn237 O246 1.977 . S
O238 Zn237 2.032 . S
O238 C242 1.278 . S
C239 O240 1.203 . S
C239 O246 1.267 . S
O240 C239 1.203 . S
O241 C234 1.185 . S
O241 Zn237 2.086 . S
C242 O238 1.278 . S
C242 O243 1.211 . S
O243 C242 1.211 . S
C244 O236 1.284 . S
C244 O245 1.273 . S
O245 C244 1.273 . S
O246 Zn237 1.977 . S
O246 C239 1.267 . S
C247 O248 1.160 . S
C247 O254 1.185 . S
O248 C247 1.160 . S
O249 Zn250 1.899 . S
O249 C257 1.284 1_455 S
Zn250 O249 1.899 . S
Zn250 O251 2.032 . S
Zn250 O254 2.086 . S
Zn250 O259 1.977 . S
O251 Zn250 2.032 . S
O251 C255 1.278 . S
C252 O253 1.203 . S
C252 O259 1.267 . S
O253 C252 1.203 . S
O254 C247 1.185 . S
O254 Zn250 2.086 . S
C255 O251 1.278 . S
C255 O256 1.211 . S
O256 C255 1.211 . S
C257 O249 1.284 1_655 S
C257 O258 1.273 1_655 S
O258 C257 1.273 1_455 S
O259 Zn250 1.977 . S
O259 C252 1.267 . S
C260 O261 1.160 . S
C260 O267 1.185 . S
O261 C260 1.160 . S
O262 Zn263 1.899 . S
O262 C270 1.284 . S
Zn263 O262 1.899 . S
Zn263 O264 2.032 . S
Zn263 O267 2.086 . S
Zn263 O272 1.977 . S
O264 Zn263 2.032 . S
O264 C268 1.278 . S
C265 O266 1.203 . S
C265 O272 1.267 . S
O266 C265 1.203 . S
O267 C260 1.185 . S
O267 Zn263 2.086 . S
C268 O264 1.278 . S
C268 O269 1.211 . S
O269 C268 1.211 . S
C270 O262 1.284 . S
C270 O271 1.273 . S
O271 C270 1.273 . S
O272 Zn263 1.977 . S
O272 C265 1.267 . S
C273 O274 1.160 . S
C273 O280 1.185 . S
O274 C273 1.160 . S
O275 Zn276 1.899 . S
O275 C283 1.284 1_455 S
Zn276 O275 1.899 . S
Zn276 O277 2.032 1_556 S
Zn276 O280 2.086 . S
Zn276 O285 1.977 . S
O277 Zn276 2.032 1_554 S
O277 C281 1.278 . S
C278 O279 1.203 . S
C278 O285 1.267 . S
O279 C278 1.203 . S
O280 C273 1.185 . S
O280 Zn276 2.086 . S
C281 O277 1.278 . S
C281 O282 1.211 . S
O282 C281 1.211 . S
C283 O275 1.284 1_655 S
C283 O284 1.273 1_655 S
O284 C283 1.273 1_455 S
O285 Zn276 1.977 . S
O285 C278 1.267 . S
C286 O287 1.160 . S
C286 O293 1.185 . S
O287 C286 1.160 . S
O288 Zn289 1.899 . S
O288 C296 1.284 . S
Zn289 O288 1.899 . S
Zn289 O290 2.032 . S
Zn289 O293 2.086 . S
Zn289 O298 1.977 . S
O290 Zn289 2.032 . S
O290 C294 1.278 . S
C291 O292 1.203 . S
C291 O298 1.267 . S
O292 C291 1.203 . S
O293 C286 1.185 . S
O293 Zn289 2.086 . S
C294 O290 1.278 . S
C294 O295 1.211 . S
O295 C294 1.211 . S
C296 O288 1.284 . S
C296 O297 1.273 . S
O297 C296 1.273 . S
O298 Zn289 1.977 . S
O298 C291 1.267 . S
C299 O300 1.160 . S
C299 O306 1.185 . S
O300 C299 1.160 . S
O301 Zn302 1.899 . S
O301 C309 1.284 . S
Zn302 O301 1.899 . S
Zn302 O303 2.032 . S
Zn302 O306 2.086 . S
Zn302 O311 1.977 . S
O303 Zn302 2.032 . S
O303 C307 1.278 . S
C304 O305 1.203 . S
C304 O311 1.267 . S
O305 C304 1.203 . S
O306 C299 1.185 . S
O306 Zn302 2.086 . S
C307 O303 1.278 . S
C307 O308 1.211 . S
O308 C307 1.211 . S
C309 O301 1.284 . S
C309 O310 1.273 . S
O310 C309 1.273 . S
O311 Zn302 1.977 . S
O311 C304 1.267 . S
C312 O313 1.160 . S
C312 O319 1.185 . S
O313 C312 1.160 . S
O314 Zn315 1.899 . S
O314 C322 1.284 . S
Zn315 O314 1.899 . S
Zn315 O316 2.032 . S
Zn315 O319 2.086 . S
Zn315 O324 1.977 . S
O316 Zn315 2.032 . S
O316 C320 1.278 . S
C317 O318 1.203 . S
C317 O324 1.267 . S
O318 C317 1.203 . S
O319 C312 1.185 . S
O319 Zn315 2.086 . S
C320 O316 1.278 . S
C320 O321 1.211 . S
O321 C320 1.211 . S
C322 O314 1.284 . S
C322 O323 1.273 . S
O323 C322 1.273 . S
O324 Zn315 1.977 . S
O324 C317 1.267 . S
C325 O326 1.160 . S
C325 O332 1.185 . S
O326 C325 1.160 . S
O327 Zn328 1.899 . S
O327 C335 1.284 . S
Zn328 O327 1.899 . S
Zn328 O329 2.032 1_556 S
Zn328 O332 2.086 . S
Zn328 O337 1.977 . S
O329 Zn328 2.032 1_554 S
O329 C333 1.278 . S
C330 O331 1.203 . S
C330 O337 1.267 . S
O331 C330 1.203 . S
O332 C325 1.185 . S
O332 Zn328 2.086 . S
C333 O329 1.278 . S
C333 O334 1.211 . S
O334 C333 1.211 . S
C335 O327 1.284 . S
C335 O336 1.273 . S
O336 C335 1.273 . S
O337 Zn328 1.977 . S
O337 C330 1.267 . S
C338 O339 1.160 . S
C338 O345 1.185 . S
O339 C338 1.160 . S
O340 Zn341 1.899 . S
O340 C348 1.284 . S
Zn341 O340 1.899 . S
Zn341 O342 2.032 . S
Zn341 O345 2.086 . S
Zn341 O350 1.977 . S
O342 Zn341 2.032 . S
O342 C346 1.278 . S
C343 O344 1.203 . S
C343 O350 1.267 . S
O344 C343 1.203 . S
O345 C338 1.185 . S
O345 Zn341 2.086 . S
C346 O342 1.278 . S
C346 O347 1.211 . S
O347 C346 1.211 . S
C348 O340 1.284 . S
C348 O349 1.273 . S
O349 C348 1.273 . S
O350 Zn341 1.977 . S
O350 C343 1.267 . S
C351 O352 1.160 . S
C351 O358 1.185 . S
O352 C351 1.160 . S
O353 Zn354 1.899 . S
O353 C361 1.284 1_655 S
Zn354 O353 1.899 . S
Zn354 O355 2.032 . S
Zn354 O358 2.086 . S
Zn354 O363 1.977 . S
O355 Zn354 2.032 . S
O355 C359 1.278 . S
C356 O357 1.203 . S
C356 O363 1.267 . S
O357 C356 1.203 . S
O358 C351 1.185 . S
O358 Zn354 2.086 . S
C359 O355 1.278 . S
C359 O360 1.211 . S
O360 C359 1.211 . S
C361 O353 1.284 1_455 S
C361 O362 1.273 1_455 S
O362 C361 1.273 1_655 S
O363 Zn354 1.977 . S
O363 C356 1.267 . S
C364 O365 1.160 . S
C364 O371 1.185 . S
O365 C364 1.160 . S
O366 Zn367 1.899 . S
O366 C374 1.284 . S
Zn367 O366 1.899 . S
Zn367 O368 2.032 . S
Zn367 O371 2.086 . S
Zn367 O376 1.977 . S
O368 Zn367 2.032 . S
O368 C372 1.278 . S
C369 O370 1.203 . S
C369 O376 1.267 . S
O370 C369 1.203 . S
O371 C364 1.185 . S
O371 Zn367 2.086 . S
C372 O368 1.278 . S
C372 O373 1.211 . S
O373 C372 1.211 . S
C374 O366 1.284 . S
C374 O375 1.273 . S
O375 C374 1.273 . S
O376 Zn367 1.977 . S
O376 C369 1.267 . S
C377 O378 1.160 . S
C377 O384 1.185 . S
O378 C377 1.160 . S
O379 Zn380 1.899 . S
O379 C387 1.284 1_655 S
Zn380 O379 1.899 . S
Zn380 O381 2.032 1_554 S
Zn380 O384 2.086 . S
Zn380 O389 1.977 . S
O381 Zn380 2.032 1_556 S
O381 C385 1.278 . S
C382 O383 1.203 . S
C382 O389 1.267 . S
O383 C382 1.203 . S
O384 C377 1.185 . S
O384 Zn380 2.086 . S
C385 O381 1.278 . S
C385 O386 1.211 . S
O386 C385 1.211 . S
C387 O379 1.284 1_455 S
C387 O388 1.273 1_455 S
O388 C387 1.273 1_655 S
O389 Zn380 1.977 . S
O389 C382 1.267 . S
C390 O391 1.160 . S
C390 O397 1.185 . S
O391 C390 1.160 . S
O392 Zn393 1.899 . S
O392 C400 1.284 . S
Zn393 O392 1.899 . S
Zn393 O394 2.032 . S
Zn393 O397 2.086 . S
Zn393 O402 1.977 . S
O394 Zn393 2.032 . S
O394 C398 1.278 . S
C395 O396 1.203 . S
C395 O402 1.267 . S
O396 C395 1.203 . S
O397 C390 1.185 . S
O397 Zn393 2.086 . S
C398 O394 1.278 . S
C398 O399 1.211 . S
O399 C398 1.211 . S
C400 O392 1.284 . S
C400 O401 1.273 . S
O401 C400 1.273 . S
O402 Zn393 1.977 . S
O402 C395 1.267 . S
C403 O404 1.160 . S
C403 O410 1.185 . S
O404 C403 1.160 . S
O405 Zn406 1.899 . S
O405 C413 1.284 . S
Zn406 O405 1.899 . S
Zn406 O407 2.032 . S
Zn406 O410 2.086 . S
Zn406 O415 1.977 . S
O407 Zn406 2.032 . S
O407 C411 1.278 . S
C408 O409 1.203 . S
C408 O415 1.267 . S
O409 C408 1.203 . S
O410 C403 1.185 . S
O410 Zn406 2.086 . S
C411 O407 1.278 . S
C411 O412 1.211 . S
O412 C411 1.211 . S
C413 O405 1.284 . S
C413 O414 1.273 . S
O414 C413 1.273 . S
O415 Zn406 1.977 . S
O415 C408 1.267 . S
H416 C424 0.929 . S
H417 C426 0.930 . S
H418 C428 0.930 . S
H419 C431 0.929 . S
H420 C434 0.930 . S
H421 C436 0.960 . S
H422 C436 0.960 . S
H423 C436 0.960 . S
C424 H416 0.929 . S
C424 C425 1.377 . S
C424 C426 1.384 . S
C425 C424 1.377 . S
C425 C431 1.390 . S
C426 H417 0.930 . S
C426 C424 1.384 . S
C426 C427 1.372 . S
C427 C426 1.372 . S
C427 C428 1.400 . S
C427 C432 1.490 . S
C428 H418 0.930 . S
C428 C427 1.400 . S
C428 C431 1.386 . S
H429 C445 0.930 . S
H430 C446 0.931 . S
C431 H419 0.929 . S
C431 C425 1.390 . S
C431 C428 1.386 . S
C432 C427 1.490 . S
C432 C434 1.395 . S
C432 C435 1.403 . S
H433 C439 0.930 . S
C434 H420 0.930 . S
C434 C432 1.395 . S
C434 C437 1.403 . S
C435 C432 1.403 . S
C435 C436 1.524 . S
C435 C439 1.400 . S
C436 H421 0.960 . S
C436 H422 0.960 . S
C436 H423 0.960 . S
C436 C435 1.524 . S
C437 C434 1.403 . S
C437 C438 1.392 . S
C437 C441 1.495 . S
C438 C437 1.392 . S
C438 C439 1.385 . S
C438 C440 1.478 . S
C439 H433 0.930 . S
C439 C435 1.400 . S
C439 C438 1.385 . S
C440 C438 1.478 . S
C440 C442 1.381 . S
C440 C446 1.383 . S
C441 C437 1.495 . S
C441 H447 0.959 . S
C441 H448 0.961 . S
C441 H449 0.960 . S
C442 C440 1.381 . S
C442 C443 1.394 . S
C442 H450 0.930 . S
C443 C442 1.394 . S
C443 C444 1.383 . S
C443 H451 0.929 . S
C444 C443 1.383 . S
C444 C445 1.377 . S
C445 H429 0.930 . S
C445 C444 1.377 . S
C445 C446 1.379 . S
C446 H430 0.931 . S
C446 C440 1.383 . S
C446 C445 1.379 . S
H447 C441 0.959 . S
H448 C441 0.961 . S
H449 C441 0.960 . S
H450 C442 0.930 . S
H451 C443 0.929 . S
H452 C460 0.929 . S
H453 C462 0.930 . S
H454 C464 0.930 . S
H455 C467 0.929 . S
H456 C470 0.930 . S
H457 C472 0.960 . S
H458 C472 0.960 . S
H459 C472 0.960 . S
C460 H452 0.929 . S
C460 C461 1.377 . S
C460 C462 1.384 . S
C461 C460 1.377 . S
C461 C467 1.390 . S
C462 H453 0.930 . S
C462 C460 1.384 . S
C462 C463 1.372 . S
C463 C462 1.372 . S
C463 C464 1.400 . S
C463 C468 1.490 . S
C464 H454 0.930 . S
C464 C463 1.400 . S
C464 C467 1.386 . S
H465 C481 0.930 . S
H466 C482 0.931 . S
C467 H455 0.929 . S
C467 C461 1.390 . S
C467 C464 1.386 . S
C468 C463 1.490 . S
C468 C470 1.395 . S
C468 C471 1.403 . S
H469 C475 0.930 . S
C470 H456 0.930 . S
C470 C468 1.395 . S
C470 C473 1.403 . S
C471 C468 1.403 . S
C471 C472 1.524 . S
C471 C475 1.400 . S
C472 H457 0.960 . S
C472 H458 0.960 . S
C472 H459 0.960 . S
C472 C471 1.524 . S
C473 C470 1.403 . S
C473 C474 1.392 . S
C473 C477 1.495 . S
C474 C473 1.392 . S
C474 C475 1.385 . S
C474 C476 1.478 . S
C475 H469 0.930 . S
C475 C471 1.400 . S
C475 C474 1.385 . S
C476 C474 1.478 . S
C476 C478 1.381 . S
C476 C482 1.383 . S
C477 C473 1.495 . S
C477 H483 0.959 . S
C477 H484 0.961 . S
C477 H485 0.960 . S
C478 C476 1.381 . S
C478 C479 1.394 . S
C478 H486 0.930 . S
C479 C478 1.394 . S
C479 C480 1.383 . S
C479 H487 0.929 . S
C480 C479 1.383 . S
C480 C481 1.377 . S
C481 H465 0.930 . S
C481 C480 1.377 . S
C481 C482 1.379 . S
C482 H466 0.931 . S
C482 C476 1.383 . S
C482 C481 1.379 . S
H483 C477 0.959 . S
H484 C477 0.961 . S
H485 C477 0.960 . S
H486 C478 0.930 . S
H487 C479 0.929 . S
H488 C496 0.929 . S
H489 C498 0.930 . S
H490 C500 0.930 . S
H491 C503 0.929 . S
H492 C506 0.930 . S
H493 C508 0.960 . S
H494 C508 0.960 . S
H495 C508 0.960 . S
C496 H488 0.929 . S
C496 C497 1.377 . S
C496 C498 1.384 . S
C497 C496 1.377 . S
C497 C503 1.390 . S
C498 H489 0.930 . S
C498 C496 1.384 . S
C498 C499 1.372 . S
C499 C498 1.372 . S
C499 C500 1.400 . S
C499 C504 1.490 . S
C500 H490 0.930 . S
C500 C499 1.400 . S
C500 C503 1.386 . S
H501 C517 0.930 . S
H502 C518 0.931 . S
C503 H491 0.929 . S
C503 C497 1.390 . S
C503 C500 1.386 . S
C504 C499 1.490 . S
C504 C506 1.395 . S
C504 C507 1.403 . S
H505 C511 0.930 . S
C506 H492 0.930 . S
C506 C504 1.395 . S
C506 C509 1.403 . S
C507 C504 1.403 . S
C507 C508 1.524 . S
C507 C511 1.400 . S
C508 H493 0.960 . S
C508 H494 0.960 . S
C508 H495 0.960 . S
C508 C507 1.524 . S
C509 C506 1.403 . S
C509 C510 1.392 . S
C509 C513 1.495 . S
C510 C509 1.392 . S
C510 C511 1.385 . S
C510 C512 1.478 . S
C511 H505 0.930 . S
C511 C507 1.400 . S
C511 C510 1.385 . S
C512 C510 1.478 . S
C512 C514 1.381 . S
C512 C518 1.383 . S
C513 C509 1.495 . S
C513 H519 0.959 . S
C513 H520 0.961 . S
C513 H521 0.960 . S
C514 C512 1.381 . S
C514 C515 1.394 . S
C514 H522 0.930 . S
C515 C514 1.394 . S
C515 C516 1.383 . S
C515 H523 0.929 . S
C516 C515 1.383 . S
C516 C517 1.377 . S
C517 H501 0.930 . S
C517 C516 1.377 . S
C517 C518 1.379 . S
C518 H502 0.931 . S
C518 C512 1.383 . S
C518 C517 1.379 . S
H519 C513 0.959 . S
H520 C513 0.961 . S
H521 C513 0.960 . S
H522 C514 0.930 . S
H523 C515 0.929 . S
H524 C532 0.929 . S
H525 C534 0.930 . S
H526 C536 0.930 . S
H527 C539 0.929 . S
H528 C542 0.930 . S
H529 C544 0.960 . S
H530 C544 0.960 . S
H531 C544 0.960 . S
C532 H524 0.929 . S
C532 C533 1.377 . S
C532 C534 1.384 . S
C533 C532 1.377 . S
C533 C539 1.390 . S
C534 H525 0.930 . S
C534 C532 1.384 . S
C534 C535 1.372 . S
C535 C534 1.372 . S
C535 C536 1.400 . S
C535 C540 1.490 . S
C536 H526 0.930 . S
C536 C535 1.400 . S
C536 C539 1.386 . S
H537 C553 0.930 . S
H538 C554 0.931 . S
C539 H527 0.929 . S
C539 C533 1.390 . S
C539 C536 1.386 . S
C540 C535 1.490 . S
C540 C542 1.395 . S
C540 C543 1.403 . S
H541 C547 0.930 . S
C542 H528 0.930 . S
C542 C540 1.395 . S
C542 C545 1.403 . S
C543 C540 1.403 . S
C543 C544 1.524 . S
C543 C547 1.400 . S
C544 H529 0.960 . S
C544 H530 0.960 . S
C544 H531 0.960 . S
C544 C543 1.524 . S
C545 C542 1.403 . S
C545 C546 1.392 . S
C545 C549 1.495 . S
C546 C545 1.392 . S
C546 C547 1.385 . S
C546 C548 1.478 . S
C547 H541 0.930 . S
C547 C543 1.400 . S
C547 C546 1.385 . S
C548 C546 1.478 . S
C548 C550 1.381 . S
C548 C554 1.383 . S
C549 C545 1.495 . S
C549 H555 0.959 . S
C549 H556 0.961 . S
C549 H557 0.960 . S
C550 C548 1.381 . S
C550 C551 1.394 . S
C550 H558 0.930 . S
C551 C550 1.394 . S
C551 C552 1.383 . S
C551 H559 0.929 . S
C552 C551 1.383 . S
C552 C553 1.377 . S
C553 H537 0.930 . S
C553 C552 1.377 . S
C553 C554 1.379 . S
C554 H538 0.931 . S
C554 C548 1.383 . S
C554 C553 1.379 . S
H555 C549 0.959 . S
H556 C549 0.961 . S
H557 C549 0.960 . S
H558 C550 0.930 . S
H559 C551 0.929 . S
H560 C568 0.929 . S
H561 C570 0.930 . S
H562 C572 0.930 . S
H563 C575 0.929 . S
H564 C578 0.930 . S
H565 C580 0.960 . S
H566 C580 0.960 . S
H567 C580 0.960 . S
C568 H560 0.929 . S
C568 C569 1.377 . S
C568 C570 1.384 . S
C569 C568 1.377 . S
C569 C575 1.390 . S
C570 H561 0.930 . S
C570 C568 1.384 . S
C570 C571 1.372 . S
C571 C570 1.372 . S
C571 C572 1.400 . S
C571 C576 1.490 . S
C572 H562 0.930 . S
C572 C571 1.400 . S
C572 C575 1.386 . S
H573 C589 0.930 . S
H574 C590 0.931 . S
C575 H563 0.929 . S
C575 C569 1.390 . S
C575 C572 1.386 . S
C576 C571 1.490 . S
C576 C578 1.395 . S
C576 C579 1.403 . S
H577 C583 0.930 . S
C578 H564 0.930 . S
C578 C576 1.395 . S
C578 C581 1.403 . S
C579 C576 1.403 . S
C579 C580 1.524 . S
C579 C583 1.400 . S
C580 H565 0.960 . S
C580 H566 0.960 . S
C580 H567 0.960 . S
C580 C579 1.524 . S
C581 C578 1.403 . S
C581 C582 1.392 . S
C581 C585 1.495 . S
C582 C581 1.392 . S
C582 C583 1.385 . S
C582 C584 1.478 . S
C583 H577 0.930 . S
C583 C579 1.400 . S
C583 C582 1.385 . S
C584 C582 1.478 . S
C584 C586 1.381 . S
C584 C590 1.383 . S
C585 C581 1.495 . S
C585 H591 0.959 . S
C585 H592 0.961 . S
C585 H593 0.960 . S
C586 C584 1.381 . S
C586 C587 1.394 . S
C586 H594 0.930 . S
C587 C586 1.394 . S
C587 C588 1.383 . S
C587 H595 0.929 . S
C588 C587 1.383 . S
C588 C589 1.377 . S
C589 H573 0.930 . S
C589 C588 1.377 . S
C589 C590 1.379 . S
C590 H574 0.931 . S
C590 C584 1.383 . S
C590 C589 1.379 . S
H591 C585 0.959 . S
H592 C585 0.961 . S
H593 C585 0.960 . S
H594 C586 0.930 . S
H595 C587 0.929 . S
H596 C604 0.929 . S
H597 C606 0.930 . S
H598 C608 0.930 . S
H599 C611 0.929 . S
H600 C614 0.930 . S
H601 C616 0.960 . S
H602 C616 0.960 . S
H603 C616 0.960 . S
C604 H596 0.929 . S
C604 C605 1.377 . S
C604 C606 1.384 . S
C605 C604 1.377 . S
C605 C611 1.390 . S
C606 H597 0.930 . S
C606 C604 1.384 . S
C606 C607 1.372 . S
C607 C606 1.372 . S
C607 C608 1.400 . S
C607 C612 1.490 . S
C608 H598 0.930 . S
C608 C607 1.400 . S
C608 C611 1.386 . S
H609 C625 0.930 . S
H610 C626 0.931 . S
C611 H599 0.929 . S
C611 C605 1.390 . S
C611 C608 1.386 . S
C612 C607 1.490 . S
C612 C614 1.395 . S
C612 C615 1.403 . S
H613 C619 0.930 . S
C614 H600 0.930 . S
C614 C612 1.395 . S
C614 C617 1.403 . S
C615 C612 1.403 . S
C615 C616 1.524 . S
C615 C619 1.400 . S
C616 H601 0.960 . S
C616 H602 0.960 . S
C616 H603 0.960 . S
C616 C615 1.524 . S
C617 C614 1.403 . S
C617 C618 1.392 . S
C617 C621 1.495 . S
C618 C617 1.392 . S
C618 C619 1.385 . S
C618 C620 1.478 . S
C619 H613 0.930 . S
C619 C615 1.400 . S
C619 C618 1.385 . S
C620 C618 1.478 . S
C620 C622 1.381 . S
C620 C626 1.383 . S
C621 C617 1.495 . S
C621 H627 0.959 . S
C621 H628 0.961 . S
C621 H629 0.960 . S
C622 C620 1.381 . S
C622 C623 1.394 . S
C622 H630 0.930 . S
C623 C622 1.394 . S
C623 C624 1.383 . S
C623 H631 0.929 . S
C624 C623 1.383 . S
C624 C625 1.377 . S
C625 H609 0.930 . S
C625 C624 1.377 . S
C625 C626 1.379 . S
C626 H610 0.931 . S
C626 C620 1.383 . S
C626 C625 1.379 . S
H627 C621 0.959 . S
H628 C621 0.961 . S
H629 C621 0.960 . S
H630 C622 0.930 . S
H631 C623 0.929 . S
H632 C640 0.929 . S
H633 C642 0.930 . S
H634 C644 0.930 . S
H635 C647 0.929 . S
H636 C650 0.930 . S
H637 C652 0.960 . S
H638 C652 0.960 . S
H639 C652 0.960 . S
C640 H632 0.929 . S
C640 C641 1.377 . S
C640 C642 1.384 . S
C641 C640 1.377 . S
C641 C647 1.390 . S
C642 H633 0.930 . S
C642 C640 1.384 . S
C642 C643 1.372 . S
C643 C642 1.372 . S
C643 C644 1.400 . S
C643 C648 1.490 . S
C644 H634 0.930 . S
C644 C643 1.400 . S
C644 C647 1.386 . S
H645 C661 0.930 . S
H646 C662 0.931 . S
C647 H635 0.929 . S
C647 C641 1.390 . S
C647 C644 1.386 . S
C648 C643 1.490 . S
C648 C650 1.395 . S
C648 C651 1.403 . S
H649 C655 0.930 . S
C650 H636 0.930 . S
C650 C648 1.395 . S
C650 C653 1.403 . S
C651 C648 1.403 . S
C651 C652 1.524 . S
C651 C655 1.400 . S
C652 H637 0.960 . S
C652 H638 0.960 . S
C652 H639 0.960 . S
C652 C651 1.524 . S
C653 C650 1.403 . S
C653 C654 1.392 . S
C653 C657 1.495 . S
C654 C653 1.392 . S
C654 C655 1.385 . S
C654 C656 1.478 . S
C655 H649 0.930 . S
C655 C651 1.400 . S
C655 C654 1.385 . S
C656 C654 1.478 . S
C656 C658 1.381 . S
C656 C662 1.383 . S
C657 C653 1.495 . S
C657 H663 0.959 . S
C657 H664 0.961 . S
C657 H665 0.960 . S
C658 C656 1.381 . S
C658 C659 1.394 . S
C658 H666 0.930 . S
C659 C658 1.394 . S
C659 C660 1.383 . S
C659 H667 0.929 . S
C660 C659 1.383 . S
C660 C661 1.377 . S
C661 H645 0.930 . S
C661 C660 1.377 . S
C661 C662 1.379 . S
C662 H646 0.931 . S
C662 C656 1.383 . S
C662 C661 1.379 . S
H663 C657 0.959 . S
H664 C657 0.961 . S
H665 C657 0.960 . S
H666 C658 0.930 . S
H667 C659 0.929 . S
H668 C676 0.929 . S
H669 C678 0.930 . S
H670 C680 0.930 . S
H671 C683 0.929 . S
H672 C686 0.930 . S
H673 C688 0.960 . S
H674 C688 0.960 . S
H675 C688 0.960 . S
C676 H668 0.929 . S
C676 C677 1.377 . S
C676 C678 1.384 . S
C677 C676 1.377 . S
C677 C683 1.390 . S
C678 H669 0.930 . S
C678 C676 1.384 . S
C678 C679 1.372 . S
C679 C678 1.372 . S
C679 C680 1.400 . S
C679 C684 1.490 . S
C680 H670 0.930 . S
C680 C679 1.400 . S
C680 C683 1.386 . S
H681 C697 0.971 . S
H682 C698 0.931 . S
C683 H671 0.929 . S
C683 C677 1.390 . S
C683 C680 1.386 . S
C684 C679 1.490 . S
C684 C686 1.395 . S
C684 C687 1.403 . S
H685 C691 0.930 . S
C686 H672 0.930 . S
C686 C684 1.395 . S
C686 C689 1.403 . S
C687 C684 1.403 . S
C687 C688 1.524 . S
C687 C691 1.400 . S
C688 H673 0.960 . S
C688 H674 0.960 . S
C688 H675 0.960 . S
C688 C687 1.524 . S
C689 C686 1.403 . S
C689 C690 1.392 . S
C689 C693 1.495 . S
C690 C689 1.392 . S
C690 C691 1.385 . S
C690 C692 1.478 . S
C691 H685 0.930 . S
C691 C687 1.400 . S
C691 C690 1.385 . S
C692 C690 1.478 . S
C692 C694 1.381 . S
C692 C698 1.383 . S
C693 C689 1.495 . S
C693 H699 0.959 . S
C693 H700 0.961 . S
C693 H701 0.960 . S
C694 C692 1.381 . S
C694 C695 1.394 . S
C694 H702 0.930 . S
C695 C694 1.394 . S
C695 C696 1.383 . S
C695 H703 0.929 . S
C696 C695 1.383 . S
C696 C697 1.377 . S
C697 H681 0.971 . S
C697 C696 1.377 . S
C697 C698 1.379 . S
C698 H682 0.931 . S
C698 C692 1.383 . S
C698 C697 1.379 . S
H699 C693 0.959 . S
H700 C693 0.961 . S
H701 C693 0.960 . S
H702 C694 0.930 . S
H703 C695 0.929 . S
H704 C712 0.929 . S
H705 C714 0.930 . S
H706 C716 0.930 . S
H707 C719 0.929 . S
H708 C722 0.930 . S
H709 C724 0.960 . S
H710 C724 0.960 . S
H711 C724 0.960 . S
C712 H704 0.929 . S
C712 C713 1.377 . S
C712 C714 1.384 . S
C713 C712 1.377 . S
C713 C719 1.390 . S
C714 H705 0.930 . S
C714 C712 1.384 . S
C714 C715 1.372 . S
C715 C714 1.372 . S
C715 C716 1.400 . S
C715 C720 1.490 . S
C716 H706 0.930 . S
C716 C715 1.400 . S
C716 C719 1.386 . S
H717 C733 0.930 . S
H718 C734 0.931 . S
C719 H707 0.929 . S
C719 C713 1.390 . S
C719 C716 1.386 . S
C720 C715 1.490 . S
C720 C722 1.395 . S
C720 C723 1.403 . S
H721 C727 0.930 . S
C722 H708 0.930 . S
C722 C720 1.395 . S
C722 C725 1.403 . S
C723 C720 1.403 . S
C723 C724 1.524 . S
C723 C727 1.400 . S
C724 H709 0.960 . S
C724 H710 0.960 . S
C724 H711 0.960 . S
C724 C723 1.524 . S
C725 C722 1.403 . S
C725 C726 1.392 . S
C725 C729 1.495 . S
C726 C725 1.392 . S
C726 C727 1.385 . S
C726 C728 1.478 . S
C727 H721 0.930 . S
C727 C723 1.400 . S
C727 C726 1.385 . S
C728 C726 1.478 . S
C728 C730 1.381 . S
C728 C734 1.383 . S
C729 C725 1.495 . S
C729 H735 0.959 . S
C729 H736 0.961 . S
C729 H737 0.960 . S
C730 C728 1.381 . S
C730 C731 1.394 . S
C730 H738 0.930 . S
C731 C730 1.394 . S
C731 C732 1.383 . S
C731 H739 0.929 . S
C732 C731 1.383 . S
C732 C733 1.377 . S
C733 H717 0.930 . S
C733 C732 1.377 . S
C733 C734 1.379 . S
C734 H718 0.931 . S
C734 C728 1.383 . S
C734 C733 1.379 . S
H735 C729 0.959 . S
H736 C729 0.961 . S
H737 C729 0.960 . S
H738 C730 0.930 . S
H739 C731 0.929 . S
H740 C748 0.929 1_455 S
H741 C750 0.930 . S
H742 C752 0.930 . S
H743 C755 0.929 . S
H744 C758 0.930 . S
H745 C760 0.960 . S
H746 C760 0.960 . S
H747 C760 0.960 . S
C748 H740 0.929 1_655 S
C748 C749 1.377 . S
C748 C750 1.384 . S
C749 C748 1.377 . S
C749 C755 1.390 . S
C750 H741 0.930 . S
C750 C748 1.384 . S
C750 C751 1.372 . S
C751 C750 1.372 . S
C751 C752 1.400 . S
C751 C756 1.490 . S
C752 H742 0.930 . S
C752 C751 1.400 . S
C752 C755 1.386 . S
H753 C769 0.930 . S
H754 C770 0.931 . S
C755 H743 0.929 . S
C755 C749 1.390 . S
C755 C752 1.386 . S
C756 C751 1.490 . S
C756 C758 1.395 . S
C756 C759 1.403 . S
H757 C763 0.930 . S
C758 H744 0.930 . S
C758 C756 1.395 . S
C758 C761 1.403 . S
C759 C756 1.403 . S
C759 C760 1.524 . S
C759 C763 1.400 . S
C760 H745 0.960 . S
C760 H746 0.960 . S
C760 H747 0.960 . S
C760 C759 1.524 . S
C761 C758 1.403 . S
C761 C762 1.392 . S
C761 C765 1.495 . S
C762 C761 1.392 . S
C762 C763 1.385 . S
C762 C764 1.478 . S
C763 H757 0.930 . S
C763 C759 1.400 . S
C763 C762 1.385 . S
C764 C762 1.478 . S
C764 C766 1.381 . S
C764 C770 1.383 . S
C765 C761 1.495 . S
C765 H771 0.959 . S
C765 H772 0.961 . S
C765 H773 0.960 . S
C766 C764 1.381 . S
C766 C767 1.394 . S
C766 H774 0.930 . S
C767 C766 1.394 . S
C767 C768 1.383 . S
C767 H775 0.929 . S
C768 C767 1.383 . S
C768 C769 1.377 . S
C769 H753 0.930 . S
C769 C768 1.377 . S
C769 C770 1.379 . S
C770 H754 0.931 . S
C770 C764 1.383 . S
C770 C769 1.379 . S
H771 C765 0.959 . S
H772 C765 0.961 . S
H773 C765 0.960 . S
H774 C766 0.930 . S
H775 C767 0.929 . S
H776 C784 0.929 . S
H777 C786 0.930 . S
H778 C788 0.930 . S
H779 C791 0.929 . S
H780 C794 0.930 . S
H781 C796 0.960 . S
H782 C796 0.960 . S
H783 C796 0.960 . S
C784 H776 0.929 . S
C784 C785 1.377 . S
C784 C786 1.384 . S
C785 C784 1.377 . S
C785 C791 1.390 . S
C786 H777 0.930 . S
C786 C784 1.384 . S
C786 C787 1.372 . S
C787 C786 1.372 . S
C787 C788 1.400 . S
C787 C792 1.490 . S
C788 H778 0.930 . S
C788 C787 1.400 . S
C788 C791 1.386 . S
H789 C805 0.930 . S
H790 C806 0.931 . S
C791 H779 0.929 . S
C791 C785 1.390 . S
C791 C788 1.386 . S
C792 C787 1.490 . S
C792 C794 1.395 . S
C792 C795 1.403 . S
H793 C799 0.930 . S
C794 H780 0.930 . S
C794 C792 1.395 . S
C794 C797 1.403 . S
C795 C792 1.403 . S
C795 C796 1.524 . S
C795 C799 1.400 . S
C796 H781 0.960 . S
C796 H782 0.960 . S
C796 H783 0.960 . S
C796 C795 1.524 . S
C797 C794 1.403 . S
C797 C798 1.392 . S
C797 C801 1.495 . S
C798 C797 1.392 . S
C798 C799 1.385 . S
C798 C800 1.478 . S
C799 H793 0.930 . S
C799 C795 1.400 . S
C799 C798 1.385 . S
C800 C798 1.478 . S
C800 C802 1.381 . S
C800 C806 1.383 . S
C801 C797 1.495 . S
C801 H807 0.959 . S
C801 H808 0.961 . S
C801 H809 0.960 . S
C802 C800 1.381 . S
C802 C803 1.394 . S
C802 H810 0.930 . S
C803 C802 1.394 . S
C803 C804 1.383 . S
C803 H811 0.929 . S
C804 C803 1.383 . S
C804 C805 1.377 . S
C805 H789 0.930 . S
C805 C804 1.377 . S
C805 C806 1.379 . S
C806 H790 0.931 . S
C806 C800 1.383 . S
C806 C805 1.379 . S
H807 C801 0.959 . S
H808 C801 0.961 . S
H809 C801 0.960 . S
H810 C802 0.930 . S
H811 C803 0.929 . S
H812 C820 0.929 . S
H813 C822 0.930 . S
H814 C824 0.930 . S
H815 C827 0.929 . S
H816 C830 0.930 . S
H817 C832 0.960 . S
H818 C832 0.960 . S
H819 C832 0.960 . S
C820 H812 0.929 . S
C820 C821 1.377 . S
C820 C822 1.384 . S
C821 C820 1.377 . S
C821 C827 1.390 . S
C822 H813 0.930 . S
C822 C820 1.384 . S
C822 C823 1.372 . S
C823 C822 1.372 . S
C823 C824 1.400 . S
C823 C828 1.490 . S
C824 H814 0.930 . S
C824 C823 1.400 . S
C824 C827 1.386 . S
H825 C841 0.930 . S
H826 C842 0.931 . S
C827 H815 0.929 . S
C827 C821 1.390 . S
C827 C824 1.386 . S
C828 C823 1.490 . S
C828 C830 1.395 . S
C828 C831 1.403 . S
H829 C835 0.930 . S
C830 H816 0.930 . S
C830 C828 1.395 . S
C830 C833 1.403 . S
C831 C828 1.403 . S
C831 C832 1.524 . S
C831 C835 1.400 . S
C832 H817 0.960 . S
C832 H818 0.960 . S
C832 H819 0.960 . S
C832 C831 1.524 . S
C833 C830 1.403 . S
C833 C834 1.392 . S
C833 C837 1.495 . S
C834 C833 1.392 . S
C834 C835 1.385 . S
C834 C836 1.478 . S
C835 H829 0.930 . S
C835 C831 1.400 . S
C835 C834 1.385 . S
C836 C834 1.478 . S
C836 C838 1.381 . S
C836 C842 1.383 . S
C837 C833 1.495 . S
C837 H843 0.959 . S
C837 H844 0.961 . S
C837 H845 0.960 . S
C838 C836 1.381 . S
C838 C839 1.394 . S
C838 H846 0.930 . S
C839 C838 1.394 . S
C839 C840 1.383 . S
C839 H847 0.929 . S
C840 C839 1.383 . S
C840 C841 1.377 . S
C841 H825 0.930 . S
C841 C840 1.377 . S
C841 C842 1.379 . S
C842 H826 0.931 . S
C842 C836 1.383 . S
C842 C841 1.379 . S
H843 C837 0.959 . S
H844 C837 0.961 . S
H845 C837 0.960 . S
H846 C838 0.930 . S
H847 C839 0.929 . S
H848 C856 0.929 . S
H849 C858 0.930 . S
H850 C860 0.930 . S
H851 C863 0.929 . S
H852 C866 0.930 . S
H853 C868 0.960 . S
H854 C868 0.960 . S
H855 C868 0.960 . S
C856 H848 0.929 . S
C856 C857 1.377 . S
C856 C858 1.384 . S
C857 C856 1.377 . S
C857 C863 1.390 . S
C858 H849 0.930 . S
C858 C856 1.384 . S
C858 C859 1.372 . S
C859 C858 1.372 . S
C859 C860 1.400 . S
C859 C864 1.490 . S
C860 H850 0.930 . S
C860 C859 1.400 . S
C860 C863 1.386 . S
H861 C877 0.930 . S
H862 C878 0.931 . S
C863 H851 0.929 . S
C863 C857 1.390 . S
C863 C860 1.386 . S
C864 C859 1.490 . S
C864 C866 1.395 . S
C864 C867 1.403 . S
H865 C871 0.930 . S
C866 H852 0.930 . S
C866 C864 1.395 . S
C866 C869 1.403 . S
C867 C864 1.403 . S
C867 C868 1.524 . S
C867 C871 1.400 . S
C868 H853 0.960 . S
C868 H854 0.960 . S
C868 H855 0.960 . S
C868 C867 1.524 . S
C869 C866 1.403 . S
C869 C870 1.392 . S
C869 C873 1.495 . S
C870 C869 1.392 . S
C870 C871 1.385 . S
C870 C872 1.478 . S
C871 H865 0.930 . S
C871 C867 1.400 . S
C871 C870 1.385 . S
C872 C870 1.478 . S
C872 C874 1.381 . S
C872 C878 1.383 . S
C873 C869 1.495 . S
C873 H879 0.959 . S
C873 H880 0.961 . S
C873 H881 0.960 . S
C874 C872 1.381 . S
C874 C875 1.394 . S
C874 H882 0.930 . S
C875 C874 1.394 . S
C875 C876 1.383 . S
C875 H883 0.929 . S
C876 C875 1.383 . S
C876 C877 1.377 . S
C877 H861 0.930 . S
C877 C876 1.377 . S
C877 C878 1.379 . S
C878 H862 0.931 . S
C878 C872 1.383 . S
C878 C877 1.379 . S
H879 C873 0.959 . S
H880 C873 0.961 . S
H881 C873 0.960 . S
H882 C874 0.930 . S
H883 C875 0.929 . S
H884 C892 0.929 . S
H885 C894 0.930 . S
H886 C896 0.930 . S
H887 C899 0.929 . S
H888 C902 0.930 . S
H889 C904 0.960 . S
H890 C904 0.960 . S
H891 C904 0.960 . S
C892 H884 0.929 . S
C892 C893 1.377 . S
C892 C894 1.384 . S
C893 C892 1.377 . S
C893 C899 1.390 . S
C894 H885 0.930 . S
C894 C892 1.384 . S
C894 C895 1.372 . S
C895 C894 1.372 . S
C895 C896 1.400 . S
C895 C900 1.490 . S
C896 H886 0.930 . S
C896 C895 1.400 . S
C896 C899 1.386 . S
H897 C913 0.930 . S
H898 C914 0.931 . S
C899 H887 0.929 . S
C899 C893 1.390 . S
C899 C896 1.386 . S
C900 C895 1.490 . S
C900 C902 1.395 . S
C900 C903 1.403 . S
H901 C907 0.930 . S
C902 H888 0.930 . S
C902 C900 1.395 . S
C902 C905 1.403 . S
C903 C900 1.403 . S
C903 C904 1.524 . S
C903 C907 1.400 . S
C904 H889 0.960 . S
C904 H890 0.960 . S
C904 H891 0.960 . S
C904 C903 1.524 . S
C905 C902 1.403 . S
C905 C906 1.392 . S
C905 C909 1.495 . S
C906 C905 1.392 . S
C906 C907 1.385 . S
C906 C908 1.478 . S
C907 H901 0.930 . S
C907 C903 1.400 . S
C907 C906 1.385 . S
C908 C906 1.478 . S
C908 C910 1.381 . S
C908 C914 1.383 . S
C909 C905 1.495 . S
C909 H915 0.959 . S
C909 H916 0.961 . S
C909 H917 0.960 . S
C910 C908 1.381 . S
C910 C911 1.394 . S
C910 H918 0.930 . S
C911 C910 1.394 . S
C911 C912 1.383 . S
C911 H919 0.929 . S
C912 C911 1.383 . S
C912 C913 1.377 . S
C913 H897 0.930 . S
C913 C912 1.377 . S
C913 C914 1.379 . S
C914 H898 0.931 . S
C914 C908 1.383 . S
C914 C913 1.379 . S
H915 C909 0.959 . S
H916 C909 0.961 . S
H917 C909 0.960 . S
H918 C910 0.930 . S
H919 C911 0.929 . S
H920 C928 0.929 . S
H921 C930 0.930 . S
H922 C932 0.930 . S
H923 C935 0.929 . S
H924 C938 0.930 . S
H925 C940 0.960 . S
H926 C940 0.960 . S
H927 C940 0.960 . S
C928 H920 0.929 . S
C928 C929 1.377 . S
C928 C930 1.384 . S
C929 C928 1.377 . S
C929 C935 1.390 . S
C930 H921 0.930 . S
C930 C928 1.384 . S
C930 C931 1.372 . S
C931 C930 1.372 . S
C931 C932 1.400 . S
C931 C936 1.490 . S
C932 H922 0.930 . S
C932 C931 1.400 . S
C932 C935 1.386 . S
H933 C949 0.930 . S
H934 C950 0.931 . S
C935 H923 0.929 . S
C935 C929 1.390 . S
C935 C932 1.386 . S
C936 C931 1.490 . S
C936 C938 1.395 . S
C936 C939 1.403 . S
H937 C943 0.930 . S
C938 H924 0.930 . S
C938 C936 1.395 . S
C938 C941 1.403 . S
C939 C936 1.403 . S
C939 C940 1.524 . S
C939 C943 1.400 . S
C940 H925 0.960 . S
C940 H926 0.960 . S
C940 H927 0.960 . S
C940 C939 1.524 . S
C941 C938 1.403 . S
C941 C942 1.392 . S
C941 C945 1.495 . S
C942 C941 1.392 . S
C942 C943 1.385 . S
C942 C944 1.478 . S
C943 H937 0.930 . S
C943 C939 1.400 . S
C943 C942 1.385 . S
C944 C942 1.478 . S
C944 C946 1.381 . S
C944 C950 1.383 . S
C945 C941 1.495 . S
C945 H951 0.959 . S
C945 H952 0.961 . S
C945 H953 0.960 . S
C946 C944 1.381 . S
C946 C947 1.394 . S
C946 H954 0.930 . S
C947 C946 1.394 . S
C947 C948 1.383 . S
C947 H955 0.929 . S
C948 C947 1.383 . S
C948 C949 1.377 . S
C949 H933 0.930 . S
C949 C948 1.377 . S
C949 C950 1.379 . S
C950 H934 0.931 . S
C950 C944 1.383 . S
C950 C949 1.379 . S
H951 C945 0.959 . S
H952 C945 0.961 . S
H953 C945 0.960 . S
H954 C946 0.930 . S
H955 C947 0.929 . S
H956 C964 0.929 . S
H957 C966 0.930 . S
H958 C968 0.930 . S
H959 C971 0.929 . S
H960 C974 0.930 . S
H961 C976 0.960 . S
H962 C976 0.960 . S
H963 C976 0.960 . S
C964 H956 0.929 . S
C964 C965 1.377 . S
C964 C966 1.384 . S
C965 C964 1.377 . S
C965 C971 1.390 . S
C966 H957 0.930 . S
C966 C964 1.384 . S
C966 C967 1.372 . S
C967 C966 1.372 . S
C967 C968 1.400 . S
C967 C972 1.490 . S
C968 H958 0.930 . S
C968 C967 1.400 . S
C968 C971 1.386 . S
H969 C985 0.930 . S
H970 C986 0.931 . S
C971 H959 0.929 . S
C971 C965 1.390 . S
C971 C968 1.386 . S
C972 C967 1.490 . S
C972 C974 1.395 . S
C972 C975 1.403 . S
H973 C979 0.930 . S
C974 H960 0.930 . S
C974 C972 1.395 . S
C974 C977 1.403 . S
C975 C972 1.403 . S
C975 C976 1.524 . S
C975 C979 1.400 . S
C976 H961 0.960 . S
C976 H962 0.960 . S
C976 H963 0.960 . S
C976 C975 1.524 . S
C977 C974 1.403 . S
C977 C978 1.392 . S
C977 C981 1.495 . S
C978 C977 1.392 . S
C978 C979 1.385 . S
C978 C980 1.478 . S
C979 H973 0.930 . S
C979 C975 1.400 . S
C979 C978 1.385 . S
C980 C978 1.478 . S
C980 C982 1.381 . S
C980 C986 1.383 . S
C981 C977 1.495 . S
C981 H987 0.959 . S
C981 H988 0.961 . S
C981 H989 0.960 . S
C982 C980 1.381 . S
C982 C983 1.394 . S
C982 H990 0.930 . S
C983 C982 1.394 . S
C983 C984 1.383 . S
C983 H991 0.929 1_655 S
C984 C983 1.383 . S
C984 C985 1.377 . S
C985 H969 0.930 . S
C985 C984 1.377 . S
C985 C986 1.379 . S
C986 H970 0.931 . S
C986 C980 1.383 . S
C986 C985 1.379 . S
H987 C981 0.959 . S
H988 C981 0.961 . S
H989 C981 0.960 . S
H990 C982 0.930 . S
H991 C983 0.929 1_455 S
H992 C1000 0.929 . S
H993 C1002 0.930 . S
H994 C1004 0.930 . S
H995 C1007 0.929 . S
H996 C1010 0.930 . S
H997 C1012 0.960 . S
H998 C1012 0.960 . S
H999 C1012 0.960 . S
C1000 H992 0.929 . S
C1000 C1001 1.377 . S
C1000 C1002 1.384 . S
C1001 C1000 1.377 . S
C1001 C1007 1.390 . S
C1002 H993 0.930 . S
C1002 C1000 1.384 . S
C1002 C1003 1.372 . S
C1003 C1002 1.372 . S
C1003 C1004 1.400 . S
C1003 C1008 1.490 . S
C1004 H994 0.930 . S
C1004 C1003 1.400 . S
C1004 C1007 1.386 . S
H1005 C1021 0.930 . S
H1006 C1022 0.931 . S
C1007 H995 0.929 . S
C1007 C1001 1.390 . S
C1007 C1004 1.386 . S
C1008 C1003 1.490 . S
C1008 C1010 1.395 . S
C1008 C1011 1.403 . S
H1009 C1015 0.930 . S
C1010 H996 0.930 . S
C1010 C1008 1.395 . S
C1010 C1013 1.403 . S
C1011 C1008 1.403 . S
C1011 C1012 1.524 . S
C1011 C1015 1.400 . S
C1012 H997 0.960 . S
C1012 H998 0.960 . S
C1012 H999 0.960 . S
C1012 C1011 1.524 . S
C1013 C1010 1.403 . S
C1013 C1014 1.392 . S
C1013 C1017 1.495 . S
C1014 C1013 1.392 . S
C1014 C1015 1.385 . S
C1014 C1016 1.478 . S
C1015 H1009 0.930 . S
C1015 C1011 1.400 . S
C1015 C1014 1.385 . S
C1016 C1014 1.478 . S
C1016 C1018 1.381 . S
C1016 C1022 1.383 . S
C1017 C1013 1.495 . S
C1017 H1023 0.959 . S
C1017 H1024 0.961 . S
C1017 H1025 0.960 . S
C1018 C1016 1.381 . S
C1018 C1019 1.394 . S
C1018 H1026 0.930 . S
C1019 C1018 1.394 . S
C1019 C1020 1.383 . S
C1019 H1027 0.929 . S
C1020 C1019 1.383 . S
C1020 C1021 1.377 . S
C1021 H1005 0.930 . S
C1021 C1020 1.377 . S
C1021 C1022 1.379 . S
C1022 H1006 0.931 . S
C1022 C1016 1.383 . S
C1022 C1021 1.379 . S
H1023 C1017 0.959 . S
H1024 C1017 0.961 . S
H1025 C1017 0.960 . S
H1026 C1018 0.930 . S
H1027 C1019 0.929 . S
H1028 C1036 0.929 . S
H1029 C1038 0.930 . S
H1030 C1040 0.930 . S
H1031 C1043 0.929 . S
H1032 C1046 0.930 . S
H1033 C1048 0.960 . S
H1034 C1048 0.960 . S
H1035 C1048 0.960 . S
C1036 H1028 0.929 . S
C1036 C1037 1.377 . S
C1036 C1038 1.384 . S
C1037 C1036 1.377 . S
C1037 C1043 1.390 . S
C1038 H1029 0.930 . S
C1038 C1036 1.384 . S
C1038 C1039 1.372 . S
C1039 C1038 1.372 . S
C1039 C1040 1.400 . S
C1039 C1044 1.490 . S
C1040 H1030 0.930 . S
C1040 C1039 1.400 . S
C1040 C1043 1.386 . S
H1041 C1057 0.930 . S
H1042 C1058 0.931 . S
C1043 H1031 0.929 . S
C1043 C1037 1.390 . S
C1043 C1040 1.386 . S
C1044 C1039 1.490 . S
C1044 C1046 1.395 . S
C1044 C1047 1.403 . S
H1045 C1051 0.930 . S
C1046 H1032 0.930 . S
C1046 C1044 1.395 . S
C1046 C1049 1.403 . S
C1047 C1044 1.403 . S
C1047 C1048 1.524 . S
C1047 C1051 1.400 . S
C1048 H1033 0.960 . S
C1048 H1034 0.960 . S
C1048 H1035 0.960 . S
C1048 C1047 1.524 . S
C1049 C1046 1.403 . S
C1049 C1050 1.392 . S
C1049 C1053 1.495 . S
C1050 C1049 1.392 . S
C1050 C1051 1.385 . S
C1050 C1052 1.478 . S
C1051 H1045 0.930 . S
C1051 C1047 1.400 . S
C1051 C1050 1.385 . S
C1052 C1050 1.478 . S
C1052 C1054 1.381 . S
C1052 C1058 1.383 . S
C1053 C1049 1.495 . S
C1053 H1059 0.959 . S
C1053 H1060 0.961 . S
C1053 H1061 0.960 . S
C1054 C1052 1.381 . S
C1054 C1055 1.394 . S
C1054 H1062 0.930 . S
C1055 C1054 1.394 . S
C1055 C1056 1.383 . S
C1055 H1063 0.929 . S
C1056 C1055 1.383 . S
C1056 C1057 1.377 . S
C1057 H1041 0.930 . S
C1057 C1056 1.377 . S
C1057 C1058 1.379 . S
C1058 H1042 0.931 . S
C1058 C1052 1.383 . S
C1058 C1057 1.379 . S
H1059 C1053 0.959 . S
H1060 C1053 0.961 . S
H1061 C1053 0.960 . S
H1062 C1054 0.930 . S
H1063 C1055 0.929 . S
H1064 C1072 0.929 . S
H1065 C1074 0.930 . S
H1066 C1076 0.930 . S
H1067 C1079 0.929 . S
H1068 C1082 0.930 . S
H1069 C1084 0.960 . S
H1070 C1084 0.960 . S
H1071 C1084 0.960 . S
C1072 H1064 0.929 . S
C1072 C1073 1.377 . S
C1072 C1074 1.384 . S
C1073 C1072 1.377 . S
C1073 C1079 1.390 . S
C1074 H1065 0.930 . S
C1074 C1072 1.384 . S
C1074 C1075 1.372 . S
C1075 C1074 1.372 . S
C1075 C1076 1.400 . S
C1075 C1080 1.490 . S
C1076 H1066 0.930 . S
C1076 C1075 1.400 . S
C1076 C1079 1.386 . S
H1077 C1093 0.930 . S
H1078 C1094 0.931 . S
C1079 H1067 0.929 . S
C1079 C1073 1.390 . S
C1079 C1076 1.386 . S
C1080 C1075 1.490 . S
C1080 C1082 1.395 . S
C1080 C1083 1.403 . S
H1081 C1087 0.930 . S
C1082 H1068 0.930 . S
C1082 C1080 1.395 . S
C1082 C1085 1.403 . S
C1083 C1080 1.403 . S
C1083 C1084 1.524 . S
C1083 C1087 1.400 . S
C1084 H1069 0.960 . S
C1084 H1070 0.960 . S
C1084 H1071 0.960 . S
C1084 C1083 1.524 . S
C1085 C1082 1.403 . S
C1085 C1086 1.392 . S
C1085 C1089 1.495 . S
C1086 C1085 1.392 . S
C1086 C1087 1.385 . S
C1086 C1088 1.478 . S
C1087 H1081 0.930 . S
C1087 C1083 1.400 . S
C1087 C1086 1.385 . S
C1088 C1086 1.478 . S
C1088 C1090 1.381 . S
C1088 C1094 1.383 . S
C1089 C1085 1.495 . S
C1089 H1095 0.959 . S
C1089 H1096 0.961 . S
C1089 H1097 0.960 . S
C1090 C1088 1.381 . S
C1090 C1091 1.394 . S
C1090 H1098 0.930 . S
C1091 C1090 1.394 . S
C1091 C1092 1.383 . S
C1091 H1099 0.929 . S
C1092 C1091 1.383 . S
C1092 C1093 1.377 . S
C1093 H1077 0.930 . S
C1093 C1092 1.377 . S
C1093 C1094 1.379 . S
C1094 H1078 0.931 . S
C1094 C1088 1.383 . S
C1094 C1093 1.379 . S
H1095 C1089 0.959 . S
H1096 C1089 0.961 . S
H1097 C1089 0.960 . S
H1098 C1090 0.930 . S
H1099 C1091 0.929 . S
H1100 C1108 0.929 . S
H1101 C1110 0.930 . S
H1102 C1112 0.930 . S
H1103 C1115 0.929 . S
H1104 C1118 0.930 . S
H1105 C1120 0.960 . S
H1106 C1120 0.960 . S
H1107 C1120 0.960 . S
C1108 H1100 0.929 . S
C1108 C1109 1.377 . S
C1108 C1110 1.384 . S
C1109 C1108 1.377 . S
C1109 C1115 1.390 . S
C1110 H1101 0.930 . S
C1110 C1108 1.384 . S
C1110 C1111 1.372 . S
C1111 C1110 1.372 . S
C1111 C1112 1.400 . S
C1111 C1116 1.490 . S
C1112 H1102 0.930 . S
C1112 C1111 1.400 . S
C1112 C1115 1.386 . S
H1113 C1129 0.930 . S
H1114 C1130 0.931 . S
C1115 H1103 0.929 . S
C1115 C1109 1.390 . S
C1115 C1112 1.386 . S
C1116 C1111 1.490 . S
C1116 C1118 1.395 . S
C1116 C1119 1.403 . S
H1117 C1123 0.930 . S
C1118 H1104 0.930 . S
C1118 C1116 1.395 . S
C1118 C1121 1.403 . S
C1119 C1116 1.403 . S
C1119 C1120 1.524 . S
C1119 C1123 1.400 . S
C1120 H1105 0.960 . S
C1120 H1106 0.960 . S
C1120 H1107 0.960 . S
C1120 C1119 1.524 . S
C1121 C1118 1.403 . S
C1121 C1122 1.392 . S
C1121 C1125 1.495 . S
C1122 C1121 1.392 . S
C1122 C1123 1.385 . S
C1122 C1124 1.478 . S
C1123 H1117 0.930 . S
C1123 C1119 1.400 . S
C1123 C1122 1.385 . S
C1124 C1122 1.478 . S
C1124 C1126 1.381 . S
C1124 C1130 1.383 . S
C1125 C1121 1.495 . S
C1125 H1131 0.959 . S
C1125 H1132 0.961 . S
C1125 H1133 0.960 . S
C1126 C1124 1.381 . S
C1126 C1127 1.394 . S
C1126 H1134 0.930 . S
C1127 C1126 1.394 . S
C1127 C1128 1.383 . S
C1127 H1135 0.929 1_655 S
C1128 C1127 1.383 . S
C1128 C1129 1.377 . S
C1129 H1113 0.930 . S
C1129 C1128 1.377 . S
C1129 C1130 1.379 . S
C1130 H1114 0.931 . S
C1130 C1124 1.383 . S
C1130 C1129 1.379 . S
H1131 C1125 0.959 . S
H1132 C1125 0.961 . S
H1133 C1125 0.960 . S
H1134 C1126 0.930 . S
H1135 C1127 0.929 1_455 S
H1136 C1144 0.929 . S
H1137 C1146 0.930 . S
H1138 C1148 0.930 . S
H1139 C1151 0.929 . S
H1140 C1154 0.930 . S
H1141 C1156 0.960 . S
H1142 C1156 0.960 . S
H1143 C1156 0.960 . S
C1144 H1136 0.929 . S
C1144 C1145 1.377 . S
C1144 C1146 1.384 . S
C1145 C1144 1.377 . S
C1145 C1151 1.390 . S
C1146 H1137 0.930 . S
C1146 C1144 1.384 . S
C1146 C1147 1.372 . S
C1147 C1146 1.372 . S
C1147 C1148 1.400 . S
C1147 C1152 1.490 . S
C1148 H1138 0.930 . S
C1148 C1147 1.400 . S
C1148 C1151 1.386 . S
H1149 C1165 0.930 . S
H1150 C1166 0.931 . S
C1151 H1139 0.929 . S
C1151 C1145 1.390 . S
C1151 C1148 1.386 . S
C1152 C1147 1.490 . S
C1152 C1154 1.395 . S
C1152 C1155 1.403 . S
H1153 C1159 0.930 . S
C1154 H1140 0.930 . S
C1154 C1152 1.395 . S
C1154 C1157 1.403 . S
C1155 C1152 1.403 . S
C1155 C1156 1.524 . S
C1155 C1159 1.400 . S
C1156 H1141 0.960 . S
C1156 H1142 0.960 . S
C1156 H1143 0.960 . S
C1156 C1155 1.524 . S
C1157 C1154 1.403 . S
C1157 C1158 1.392 . S
C1157 C1161 1.495 . S
C1158 C1157 1.392 . S
C1158 C1159 1.385 . S
C1158 C1160 1.478 . S
C1159 H1153 0.930 . S
C1159 C1155 1.400 . S
C1159 C1158 1.385 . S
C1160 C1158 1.478 . S
C1160 C1162 1.381 . S
C1160 C1166 1.383 . S
C1161 C1157 1.495 . S
C1161 H1167 0.959 . S
C1161 H1168 0.961 . S
C1161 H1169 0.960 . S
C1162 C1160 1.381 . S
C1162 C1163 1.394 . S
C1162 H1170 0.930 . S
C1163 C1162 1.394 . S
C1163 C1164 1.383 . S
C1163 H1171 0.929 . S
C1164 C1163 1.383 . S
C1164 C1165 1.377 . S
C1165 H1149 0.930 . S
C1165 C1164 1.377 . S
C1165 C1166 1.379 . S
C1166 H1150 0.931 . S
C1166 C1160 1.383 . S
C1166 C1165 1.379 . S
H1167 C1161 0.959 . S
H1168 C1161 0.961 . S
H1169 C1161 0.960 . S
H1170 C1162 0.930 . S
H1171 C1163 0.929 . S
H1172 C1180 0.929 . S
H1173 C1182 0.930 . S
H1174 C1184 0.930 . S
H1175 C1187 0.929 . S
H1176 C1190 0.930 . S
H1177 C1192 0.960 . S
H1178 C1192 0.960 . S
H1179 C1192 0.960 . S
C1180 H1172 0.929 . S
C1180 C1181 1.377 . S
C1180 C1182 1.384 . S
C1181 C1180 1.377 . S
C1181 C1187 1.390 . S
C1182 H1173 0.930 . S
C1182 C1180 1.384 . S
C1182 C1183 1.372 . S
C1183 C1182 1.372 . S
C1183 C1184 1.400 . S
C1183 C1188 1.490 . S
C1184 H1174 0.930 . S
C1184 C1183 1.400 . S
C1184 C1187 1.386 . S
H1185 C1201 0.930 . S
H1186 C1202 0.931 . S
C1187 H1175 0.929 . S
C1187 C1181 1.390 . S
C1187 C1184 1.386 . S
C1188 C1183 1.490 . S
C1188 C1190 1.395 . S
C1188 C1191 1.403 . S
H1189 C1195 0.930 . S
C1190 H1176 0.930 . S
C1190 C1188 1.395 . S
C1190 C1193 1.403 . S
C1191 C1188 1.403 . S
C1191 C1192 1.524 . S
C1191 C1195 1.400 . S
C1192 H1177 0.960 . S
C1192 H1178 0.960 . S
C1192 H1179 0.960 . S
C1192 C1191 1.524 . S
C1193 C1190 1.403 . S
C1193 C1194 1.392 . S
C1193 C1197 1.495 . S
C1194 C1193 1.392 . S
C1194 C1195 1.385 . S
C1194 C1196 1.478 . S
C1195 H1189 0.930 . S
C1195 C1191 1.400 . S
C1195 C1194 1.385 . S
C1196 C1194 1.478 . S
C1196 C1198 1.381 . S
C1196 C1202 1.383 . S
C1197 C1193 1.495 . S
C1197 H1203 0.959 . S
C1197 H1204 0.961 . S
C1197 H1205 0.960 . S
C1198 C1196 1.381 . S
C1198 C1199 1.394 . S
C1198 H1206 0.930 . S
C1199 C1198 1.394 . S
C1199 C1200 1.383 . S
C1199 H1207 0.929 . S
C1200 C1199 1.383 . S
C1200 C1201 1.377 . S
C1201 H1185 0.930 . S
C1201 C1200 1.377 . S
C1201 C1202 1.379 . S
C1202 H1186 0.931 . S
C1202 C1196 1.383 . S
C1202 C1201 1.379 . S
H1203 C1197 0.959 . S
H1204 C1197 0.961 . S
H1205 C1197 0.960 . S
H1206 C1198 0.930 . S
H1207 C1199 0.929 . S
H1208 C1216 0.929 . S
H1209 C1218 0.930 . S
H1210 C1220 0.930 . S
H1211 C1223 0.929 . S
H1212 C1226 0.930 . S
H1213 C1228 0.960 . S
H1214 C1228 0.960 . S
H1215 C1228 0.960 . S
C1216 H1208 0.929 . S
C1216 C1217 1.377 . S
C1216 C1218 1.384 . S
C1217 C1216 1.377 . S
C1217 C1223 1.390 . S
C1218 H1209 0.930 . S
C1218 C1216 1.384 . S
C1218 C1219 1.372 . S
C1219 C1218 1.372 . S
C1219 C1220 1.400 . S
C1219 C1224 1.490 . S
C1220 H1210 0.930 . S
C1220 C1219 1.400 . S
C1220 C1223 1.386 . S
H1221 C1237 0.930 . S
H1222 C1238 0.931 . S
C1223 H1211 0.929 . S
C1223 C1217 1.390 . S
C1223 C1220 1.386 . S
C1224 C1219 1.490 . S
C1224 C1226 1.395 . S
C1224 C1227 1.403 . S
H1225 C1231 0.930 . S
C1226 H1212 0.930 . S
C1226 C1224 1.395 . S
C1226 C1229 1.403 . S
C1227 C1224 1.403 . S
C1227 C1228 1.524 . S
C1227 C1231 1.400 . S
C1228 H1213 0.960 . S
C1228 H1214 0.960 . S
C1228 H1215 0.960 . S
C1228 C1227 1.524 . S
C1229 C1226 1.403 . S
C1229 C1230 1.392 . S
C1229 C1233 1.495 . S
C1230 C1229 1.392 . S
C1230 C1231 1.385 . S
C1230 C1232 1.478 . S
C1231 H1225 0.930 . S
C1231 C1227 1.400 . S
C1231 C1230 1.385 . S
C1232 C1230 1.478 . S
C1232 C1234 1.381 . S
C1232 C1238 1.383 . S
C1233 C1229 1.495 . S
C1233 H1239 0.959 . S
C1233 H1240 0.961 . S
C1233 H1241 0.960 . S
C1234 C1232 1.381 . S
C1234 C1235 1.394 . S
C1234 H1242 0.930 . S
C1235 C1234 1.394 . S
C1235 C1236 1.383 . S
C1235 H1243 0.929 . S
C1236 C1235 1.383 . S
C1236 C1237 1.377 . S
C1237 H1221 0.930 . S
C1237 C1236 1.377 . S
C1237 C1238 1.379 . S
C1238 H1222 0.931 . S
C1238 C1232 1.383 . S
C1238 C1237 1.379 . S
H1239 C1233 0.959 . S
H1240 C1233 0.961 . S
H1241 C1233 0.960 . S
H1242 C1234 0.930 . S
H1243 C1235 0.929 . S
H1244 C1252 0.929 . S
H1245 C1254 0.930 . S
H1246 C1256 0.930 . S
H1247 C1259 0.929 . S
H1248 C1262 0.930 . S
H1249 C1264 0.960 . S
H1250 C1264 0.960 . S
H1251 C1264 0.960 . S
C1252 H1244 0.929 . S
C1252 C1253 1.377 . S
C1252 C1254 1.384 . S
C1253 C1252 1.377 . S
C1253 C1259 1.390 . S
C1254 H1245 0.930 . S
C1254 C1252 1.384 . S
C1254 C1255 1.372 . S
C1255 C1254 1.372 . S
C1255 C1256 1.400 . S
C1255 C1260 1.490 . S
C1256 H1246 0.930 . S
C1256 C1255 1.400 . S
C1256 C1259 1.386 . S
H1257 C1273 0.930 . S
H1258 C1274 0.931 . S
C1259 H1247 0.929 . S
C1259 C1253 1.390 . S
C1259 C1256 1.386 . S
C1260 C1255 1.490 . S
C1260 C1262 1.395 . S
C1260 C1263 1.403 . S
H1261 C1267 0.930 . S
C1262 H1248 0.930 . S
C1262 C1260 1.395 . S
C1262 C1265 1.403 . S
C1263 C1260 1.403 . S
C1263 C1264 1.524 . S
C1263 C1267 1.400 . S
C1264 H1249 0.960 . S
C1264 H1250 0.960 . S
C1264 H1251 0.960 . S
C1264 C1263 1.524 . S
C1265 C1262 1.403 . S
C1265 C1266 1.392 . S
C1265 C1269 1.495 . S
C1266 C1265 1.392 . S
C1266 C1267 1.385 . S
C1266 C1268 1.478 . S
C1267 H1261 0.930 . S
C1267 C1263 1.400 . S
C1267 C1266 1.385 . S
C1268 C1266 1.478 . S
C1268 C1270 1.381 . S
C1268 C1274 1.383 . S
C1269 C1265 1.495 . S
C1269 H1275 0.959 . S
C1269 H1276 0.961 . S
C1269 H1277 0.960 . S
C1270 C1268 1.381 . S
C1270 C1271 1.394 . S
C1270 H1278 0.930 . S
C1271 C1270 1.394 . S
C1271 C1272 1.383 . S
C1271 H1279 0.929 . S
C1272 C1271 1.383 . S
C1272 C1273 1.377 . S
C1273 H1257 0.930 . S
C1273 C1272 1.377 . S
C1273 C1274 1.379 . S
C1274 H1258 0.931 . S
C1274 C1268 1.383 . S
C1274 C1273 1.379 . S
H1275 C1269 0.959 . S
H1276 C1269 0.961 . S
H1277 C1269 0.960 . S
H1278 C1270 0.930 . S
H1279 C1271 0.929 . S
H1280 C1288 0.929 . S
H1281 C1290 0.930 . S
H1282 C1292 0.930 . S
H1283 C1295 0.929 . S
H1284 C1298 0.930 . S
H1285 C1300 0.960 . S
H1286 C1300 0.960 . S
H1287 C1300 0.960 . S
C1288 H1280 0.929 . S
C1288 C1289 1.377 . S
C1288 C1290 1.384 . S
C1289 C1288 1.377 . S
C1289 C1295 1.390 . S
C1290 H1281 0.930 . S
C1290 C1288 1.384 . S
C1290 C1291 1.372 . S
C1291 C1290 1.372 . S
C1291 C1292 1.400 . S
C1291 C1296 1.490 . S
C1292 H1282 0.930 . S
C1292 C1291 1.400 . S
C1292 C1295 1.386 . S
H1293 C1309 0.930 . S
H1294 C1310 0.931 . S
C1295 H1283 0.929 . S
C1295 C1289 1.390 . S
C1295 C1292 1.386 . S
C1296 C1291 1.490 . S
C1296 C1298 1.395 . S
C1296 C1299 1.403 . S
H1297 C1303 0.930 . S
C1298 H1284 0.930 . S
C1298 C1296 1.395 . S
C1298 C1301 1.403 . S
C1299 C1296 1.403 . S
C1299 C1300 1.524 . S
C1299 C1303 1.400 . S
C1300 H1285 0.960 . S
C1300 H1286 0.960 . S
C1300 H1287 0.960 . S
C1300 C1299 1.524 . S
C1301 C1298 1.403 . S
C1301 C1302 1.392 . S
C1301 C1305 1.495 . S
C1302 C1301 1.392 . S
C1302 C1303 1.385 . S
C1302 C1304 1.478 . S
C1303 H1297 0.930 . S
C1303 C1299 1.400 . S
C1303 C1302 1.385 . S
C1304 C1302 1.478 . S
C1304 C1306 1.381 . S
C1304 C1310 1.383 . S
C1305 C1301 1.495 . S
C1305 H1311 0.959 . S
C1305 H1312 0.961 . S
C1305 H1313 0.960 . S
C1306 C1304 1.381 . S
C1306 C1307 1.394 . S
C1306 H1314 0.930 . S
C1307 C1306 1.394 . S
C1307 C1308 1.383 . S
C1307 H1315 0.929 . S
C1308 C1307 1.383 . S
C1308 C1309 1.377 . S
C1309 H1293 0.930 . S
C1309 C1308 1.377 . S
C1309 C1310 1.379 . S
C1310 H1294 0.931 . S
C1310 C1304 1.383 . S
C1310 C1309 1.379 . S
H1311 C1305 0.959 . S
H1312 C1305 0.961 . S
H1313 C1305 0.960 . S
H1314 C1306 0.930 . S
H1315 C1307 0.929 . S
H1316 C1324 0.929 . S
H1317 C1326 0.930 . S
H1318 C1328 0.930 . S
H1319 C1331 0.929 . S
H1320 C1334 0.930 . S
H1321 C1336 0.960 . S
H1322 C1336 0.960 . S
H1323 C1336 0.960 . S
C1324 H1316 0.929 . S
C1324 C1325 1.377 . S
C1324 C1326 1.384 . S
C1325 C1324 1.377 . S
C1325 C1331 1.390 . S
C1326 H1317 0.930 . S
C1326 C1324 1.384 . S
C1326 C1327 1.372 . S
C1327 C1326 1.372 . S
C1327 C1328 1.400 . S
C1327 C1332 1.490 . S
C1328 H1318 0.930 . S
C1328 C1327 1.400 . S
C1328 C1331 1.386 . S
H1329 C1345 0.930 . S
H1330 C1346 0.931 . S
C1331 H1319 0.929 . S
C1331 C1325 1.390 . S
C1331 C1328 1.386 . S
C1332 C1327 1.490 . S
C1332 C1334 1.395 . S
C1332 C1335 1.403 . S
H1333 C1339 0.930 . S
C1334 H1320 0.930 . S
C1334 C1332 1.395 . S
C1334 C1337 1.403 . S
C1335 C1332 1.403 . S
C1335 C1336 1.524 . S
C1335 C1339 1.400 . S
C1336 H1321 0.960 . S
C1336 H1322 0.960 . S
C1336 H1323 0.960 . S
C1336 C1335 1.524 . S
C1337 C1334 1.403 . S
C1337 C1338 1.392 . S
C1337 C1341 1.495 . S
C1338 C1337 1.392 . S
C1338 C1339 1.385 . S
C1338 C1340 1.478 . S
C1339 H1333 0.930 . S
C1339 C1335 1.400 . S
C1339 C1338 1.385 . S
C1340 C1338 1.478 . S
C1340 C1342 1.381 . S
C1340 C1346 1.383 . S
C1341 C1337 1.495 . S
C1341 H1347 0.959 . S
C1341 H1348 0.961 . S
C1341 H1349 0.960 . S
C1342 C1340 1.381 . S
C1342 C1343 1.394 . S
C1342 H1350 0.930 . S
C1343 C1342 1.394 . S
C1343 C1344 1.383 . S
C1343 H1351 0.929 . S
C1344 C1343 1.383 . S
C1344 C1345 1.377 . S
C1345 H1329 0.930 . S
C1345 C1344 1.377 . S
C1345 C1346 1.379 . S
C1346 H1330 0.931 . S
C1346 C1340 1.383 . S
C1346 C1345 1.379 . S
H1347 C1341 0.959 . S
H1348 C1341 0.961 . S
H1349 C1341 0.960 . S
H1350 C1342 0.930 . S
H1351 C1343 0.929 . S
H1352 C1360 0.929 . S
H1353 C1362 0.930 . S
H1354 C1364 0.930 . S
H1355 C1367 0.929 . S
H1356 C1370 0.930 . S
H1357 C1372 0.960 . S
H1358 C1372 0.960 . S
H1359 C1372 0.960 . S
C1360 H1352 0.929 . S
C1360 C1361 1.377 . S
C1360 C1362 1.384 . S
C1361 C1360 1.377 . S
C1361 C1367 1.390 . S
C1362 H1353 0.930 . S
C1362 C1360 1.384 . S
C1362 C1363 1.372 . S
C1363 C1362 1.372 . S
C1363 C1364 1.400 . S
C1363 C1368 1.490 . S
C1364 H1354 0.930 . S
C1364 C1363 1.400 . S
C1364 C1367 1.386 . S
H1365 C1381 0.930 . S
H1366 C1382 0.931 . S
C1367 H1355 0.929 . S
C1367 C1361 1.390 . S
C1367 C1364 1.386 . S
C1368 C1363 1.490 . S
C1368 C1370 1.395 . S
C1368 C1371 1.403 . S
H1369 C1375 0.930 . S
C1370 H1356 0.930 . S
C1370 C1368 1.395 . S
C1370 C1373 1.403 . S
C1371 C1368 1.403 . S
C1371 C1372 1.524 . S
C1371 C1375 1.400 . S
C1372 H1357 0.960 . S
C1372 H1358 0.960 . S
C1372 H1359 0.960 . S
C1372 C1371 1.524 . S
C1373 C1370 1.403 . S
C1373 C1374 1.392 . S
C1373 C1377 1.495 . S
C1374 C1373 1.392 . S
C1374 C1375 1.385 . S
C1374 C1376 1.478 . S
C1375 H1369 0.930 . S
C1375 C1371 1.400 . S
C1375 C1374 1.385 . S
C1376 C1374 1.478 . S
C1376 C1378 1.381 . S
C1376 C1382 1.383 . S
C1377 C1373 1.495 . S
C1377 H1383 0.959 . S
C1377 H1384 0.961 . S
C1377 H1385 0.960 . S
C1378 C1376 1.381 . S
C1378 C1379 1.394 . S
C1378 H1386 0.930 . S
C1379 C1378 1.394 . S
C1379 C1380 1.383 . S
C1379 H1387 0.929 . S
C1380 C1379 1.383 . S
C1380 C1381 1.377 . S
C1381 H1365 0.930 . S
C1381 C1380 1.377 . S
C1381 C1382 1.379 . S
C1382 H1366 0.931 . S
C1382 C1376 1.383 . S
C1382 C1381 1.379 . S
H1383 C1377 0.959 . S
H1384 C1377 0.961 . S
H1385 C1377 0.960 . S
H1386 C1378 0.930 . S
H1387 C1379 0.929 . S
H1388 C1396 0.929 . S
H1389 C1398 0.930 . S
H1390 C1400 0.930 . S
H1391 C1403 0.929 1_655 S
H1392 C1406 0.930 . S
H1393 C1408 0.960 . S
H1394 C1408 0.960 . S
H1395 C1408 0.960 . S
C1396 H1388 0.929 . S
C1396 C1397 1.377 . S
C1396 C1398 1.384 . S
C1397 C1396 1.377 . S
C1397 C1403 1.390 . S
C1398 H1389 0.930 . S
C1398 C1396 1.384 . S
C1398 C1399 1.372 . S
C1399 C1398 1.372 . S
C1399 C1400 1.400 . S
C1399 C1404 1.490 . S
C1400 H1390 0.930 . S
C1400 C1399 1.400 . S
C1400 C1403 1.386 . S
H1401 C1417 0.930 . S
H1402 C1418 0.931 . S
C1403 H1391 0.929 1_455 S
C1403 C1397 1.390 . S
C1403 C1400 1.386 . S
C1404 C1399 1.490 . S
C1404 C1406 1.395 . S
C1404 C1407 1.403 . S
H1405 C1411 0.930 . S
C1406 H1392 0.930 . S
C1406 C1404 1.395 . S
C1406 C1409 1.403 . S
C1407 C1404 1.403 . S
C1407 C1408 1.524 . S
C1407 C1411 1.400 . S
C1408 H1393 0.960 . S
C1408 H1394 0.960 . S
C1408 H1395 0.960 . S
C1408 C1407 1.524 . S
C1409 C1406 1.403 . S
C1409 C1410 1.392 . S
C1409 C1413 1.495 . S
C1410 C1409 1.392 . S
C1410 C1411 1.385 . S
C1410 C1412 1.478 . S
C1411 H1405 0.930 . S
C1411 C1407 1.400 . S
C1411 C1410 1.385 . S
C1412 C1410 1.478 . S
C1412 C1414 1.381 . S
C1412 C1418 1.383 . S
C1413 C1409 1.495 . S
C1413 H1419 0.959 . S
C1413 H1420 0.961 . S
C1413 H1421 0.960 . S
C1414 C1412 1.381 . S
C1414 C1415 1.394 . S
C1414 H1422 0.930 . S
C1415 C1414 1.394 . S
C1415 C1416 1.383 . S
C1415 H1423 0.929 . S
C1416 C1415 1.383 . S
C1416 C1417 1.377 . S
C1417 H1401 0.930 . S
C1417 C1416 1.377 . S
C1417 C1418 1.379 . S
C1418 H1402 0.931 . S
C1418 C1412 1.383 . S
C1418 C1417 1.379 . S
H1419 C1413 0.959 . S
H1420 C1413 0.961 . S
H1421 C1413 0.960 . S
H1422 C1414 0.930 . S
H1423 C1415 0.929 . S
H1424 C1432 0.929 . S
H1425 C1434 0.930 . S
H1426 C1436 0.930 . S
H1427 C1439 0.929 . S
H1428 C1442 0.930 . S
H1429 C1444 0.960 . S
H1430 C1444 0.960 . S
H1431 C1444 0.960 . S
C1432 H1424 0.929 . S
C1432 C1433 1.377 . S
C1432 C1434 1.384 . S
C1433 C1432 1.377 . S
C1433 C1439 1.390 . S
C1434 H1425 0.930 . S
C1434 C1432 1.384 . S
C1434 C1435 1.372 . S
C1435 C1434 1.372 . S
C1435 C1436 1.400 . S
C1435 C1440 1.490 . S
C1436 H1426 0.930 . S
C1436 C1435 1.400 . S
C1436 C1439 1.386 . S
H1437 C1453 0.930 . S
H1438 C1454 0.931 . S
C1439 H1427 0.929 . S
C1439 C1433 1.390 . S
C1439 C1436 1.386 . S
C1440 C1435 1.490 . S
C1440 C1442 1.395 . S
C1440 C1443 1.403 . S
H1441 C1447 0.930 . S
C1442 H1428 0.930 . S
C1442 C1440 1.395 . S
C1442 C1445 1.403 . S
C1443 C1440 1.403 . S
C1443 C1444 1.524 . S
C1443 C1447 1.400 . S
C1444 H1429 0.960 . S
C1444 H1430 0.960 . S
C1444 H1431 0.960 . S
C1444 C1443 1.524 . S
C1445 C1442 1.403 . S
C1445 C1446 1.392 . S
C1445 C1449 1.495 . S
C1446 C1445 1.392 . S
C1446 C1447 1.385 . S
C1446 C1448 1.478 . S
C1447 H1441 0.930 . S
C1447 C1443 1.400 . S
C1447 C1446 1.385 . S
C1448 C1446 1.478 . S
C1448 C1450 1.381 . S
C1448 C1454 1.383 . S
C1449 C1445 1.495 . S
C1449 H1455 0.959 . S
C1449 H1456 0.961 . S
C1449 H1457 0.960 . S
C1450 C1448 1.381 . S
C1450 C1451 1.394 . S
C1450 H1458 0.930 . S
C1451 C1450 1.394 . S
C1451 C1452 1.383 . S
C1451 H1459 0.929 . S
C1452 C1451 1.383 . S
C1452 C1453 1.377 . S
C1453 H1437 0.930 . S
C1453 C1452 1.377 . S
C1453 C1454 1.379 . S
C1454 H1438 0.931 . S
C1454 C1448 1.383 . S
C1454 C1453 1.379 . S
H1455 C1449 0.959 . S
H1456 C1449 0.961 . S
H1457 C1449 0.960 . S
H1458 C1450 0.930 . S
H1459 C1451 0.929 . S
H1460 C1468 0.929 . S
H1461 C1470 0.930 . S
H1462 C1472 0.930 . S
H1463 C1475 0.929 1_655 S
H1464 C1478 0.930 . S
H1465 C1480 0.960 . S
H1466 C1480 0.960 . S
H1467 C1480 0.960 . S
C1468 H1460 0.929 . S
C1468 C1469 1.377 . S
C1468 C1470 1.384 . S
C1469 C1468 1.377 . S
C1469 C1475 1.390 . S
C1470 H1461 0.930 . S
C1470 C1468 1.384 . S
C1470 C1471 1.372 . S
C1471 C1470 1.372 . S
C1471 C1472 1.400 . S
C1471 C1476 1.490 . S
C1472 H1462 0.930 . S
C1472 C1471 1.400 . S
C1472 C1475 1.386 . S
H1473 C1489 0.930 . S
H1474 C1490 0.931 . S
C1475 H1463 0.929 1_455 S
C1475 C1469 1.390 . S
C1475 C1472 1.386 . S
C1476 C1471 1.490 . S
C1476 C1478 1.395 . S
C1476 C1479 1.403 . S
H1477 C1483 0.930 . S
C1478 H1464 0.930 . S
C1478 C1476 1.395 . S
C1478 C1481 1.403 . S
C1479 C1476 1.403 . S
C1479 C1480 1.524 . S
C1479 C1483 1.400 . S
C1480 H1465 0.960 . S
C1480 H1466 0.960 . S
C1480 H1467 0.960 . S
C1480 C1479 1.524 . S
C1481 C1478 1.403 . S
C1481 C1482 1.392 . S
C1481 C1485 1.495 . S
C1482 C1481 1.392 . S
C1482 C1483 1.385 . S
C1482 C1484 1.478 . S
C1483 H1477 0.930 . S
C1483 C1479 1.400 . S
C1483 C1482 1.385 . S
C1484 C1482 1.478 . S
C1484 C1486 1.381 . S
C1484 C1490 1.383 . S
C1485 C1481 1.495 . S
C1485 H1491 0.959 . S
C1485 H1492 0.961 . S
C1485 H1493 0.960 . S
C1486 C1484 1.381 . S
C1486 C1487 1.394 . S
C1486 H1494 0.930 . S
C1487 C1486 1.394 . S
C1487 C1488 1.383 . S
C1487 H1495 0.929 . S
C1488 C1487 1.383 . S
C1488 C1489 1.377 . S
C1489 H1473 0.930 . S
C1489 C1488 1.377 . S
C1489 C1490 1.379 . S
C1490 H1474 0.931 . S
C1490 C1484 1.383 . S
C1490 C1489 1.379 . S
H1491 C1485 0.959 . S
H1492 C1485 0.961 . S
H1493 C1485 0.960 . S
H1494 C1486 0.930 . S
H1495 C1487 0.929 . S
H1496 C1504 0.929 . S
H1497 C1506 0.930 . S
H1498 C1508 0.930 . S
H1499 C1511 0.929 . S
H1500 C1514 0.930 . S
H1501 C1516 0.960 . S
H1502 C1516 0.960 . S
H1503 C1516 0.960 . S
C1504 H1496 0.929 . S
C1504 C1505 1.377 . S
C1504 C1506 1.384 . S
C1505 C1504 1.377 . S
C1505 C1511 1.390 . S
C1506 H1497 0.930 . S
C1506 C1504 1.384 . S
C1506 C1507 1.372 . S
C1507 C1506 1.372 . S
C1507 C1508 1.400 . S
C1507 C1512 1.490 . S
C1508 H1498 0.930 . S
C1508 C1507 1.400 . S
C1508 C1511 1.386 . S
H1509 C1525 0.930 . S
H1510 C1526 0.931 . S
C1511 H1499 0.929 . S
C1511 C1505 1.390 . S
C1511 C1508 1.386 . S
C1512 C1507 1.490 . S
C1512 C1514 1.395 . S
C1512 C1515 1.403 . S
H1513 C1519 0.930 . S
C1514 H1500 0.930 . S
C1514 C1512 1.395 . S
C1514 C1517 1.403 . S
C1515 C1512 1.403 . S
C1515 C1516 1.524 . S
C1515 C1519 1.400 . S
C1516 H1501 0.960 . S
C1516 H1502 0.960 . S
C1516 H1503 0.960 . S
C1516 C1515 1.524 . S
C1517 C1514 1.403 . S
C1517 C1518 1.392 . S
C1517 C1521 1.495 . S
C1518 C1517 1.392 . S
C1518 C1519 1.385 . S
C1518 C1520 1.478 . S
C1519 H1513 0.930 . S
C1519 C1515 1.400 . S
C1519 C1518 1.385 . S
C1520 C1518 1.478 . S
C1520 C1522 1.381 . S
C1520 C1526 1.383 . S
C1521 C1517 1.495 . S
C1521 H1527 0.959 . S
C1521 H1528 0.961 . S
C1521 H1529 0.960 . S
C1522 C1520 1.381 . S
C1522 C1523 1.394 . S
C1522 H1530 0.930 . S
C1523 C1522 1.394 . S
C1523 C1524 1.383 . S
C1523 H1531 0.929 . S
C1524 C1523 1.383 . S
C1524 C1525 1.377 . S
C1525 H1509 0.930 . S
C1525 C1524 1.377 . S
C1525 C1526 1.379 . S
C1526 H1510 0.931 . S
C1526 C1520 1.383 . S
C1526 C1525 1.379 . S
H1527 C1521 0.959 . S
H1528 C1521 0.961 . S
H1529 C1521 0.960 . S
H1530 C1522 0.930 . S
H1531 C1523 0.929 . S
H1532 C1540 0.929 . S
H1533 C1542 0.930 . S
H1534 C1544 0.930 . S
H1535 C1547 0.929 . S
H1536 C1550 0.930 . S
H1537 C1552 0.960 . S
H1538 C1552 0.960 . S
H1539 C1552 0.960 . S
C1540 H1532 0.929 . S
C1540 C1541 1.377 . S
C1540 C1542 1.384 . S
C1541 C1540 1.377 . S
C1541 C1547 1.390 . S
C1542 H1533 0.930 . S
C1542 C1540 1.384 . S
C1542 C1543 1.372 . S
C1543 C1542 1.372 . S
C1543 C1544 1.400 . S
C1543 C1548 1.490 . S
C1544 H1534 0.930 . S
C1544 C1543 1.400 . S
C1544 C1547 1.386 . S
H1545 C1561 0.930 . S
H1546 C1562 0.931 . S
C1547 H1535 0.929 . S
C1547 C1541 1.390 . S
C1547 C1544 1.386 . S
C1548 C1543 1.490 . S
C1548 C1550 1.395 . S
C1548 C1551 1.403 . S
H1549 C1555 0.930 . S
C1550 H1536 0.930 . S
C1550 C1548 1.395 . S
C1550 C1553 1.403 . S
C1551 C1548 1.403 . S
C1551 C1552 1.524 . S
C1551 C1555 1.400 . S
C1552 H1537 0.960 . S
C1552 H1538 0.960 . S
C1552 H1539 0.960 . S
C1552 C1551 1.524 . S
C1553 C1550 1.403 . S
C1553 C1554 1.392 . S
C1553 C1557 1.495 . S
C1554 C1553 1.392 . S
C1554 C1555 1.385 . S
C1554 C1556 1.478 . S
C1555 H1549 0.930 . S
C1555 C1551 1.400 . S
C1555 C1554 1.385 . S
C1556 C1554 1.478 . S
C1556 C1558 1.381 . S
C1556 C1562 1.383 . S
C1557 C1553 1.495 . S
C1557 H1563 0.959 . S
C1557 H1564 0.961 . S
C1557 H1565 0.960 . S
C1558 C1556 1.381 . S
C1558 C1559 1.394 . S
C1558 H1566 0.930 . S
C1559 C1558 1.394 . S
C1559 C1560 1.383 . S
C1559 H1567 0.929 . S
C1560 C1559 1.383 . S
C1560 C1561 1.377 . S
C1561 H1545 0.930 . S
C1561 C1560 1.377 . S
C1561 C1562 1.379 . S
C1562 H1546 0.931 . S
C1562 C1556 1.383 . S
C1562 C1561 1.379 . S
H1563 C1557 0.959 . S
H1564 C1557 0.961 . S
H1565 C1557 0.960 . S
H1566 C1558 0.930 . S
H1567 C1559 0.929 . S
H1568 C1576 0.929 . S
H1569 C1578 0.930 . S
H1570 C1580 0.930 . S
H1571 C1583 0.929 . S
H1572 C1586 0.930 . S
H1573 C1588 0.960 . S
H1574 C1588 0.960 . S
H1575 C1588 0.960 . S
C1576 H1568 0.929 . S
C1576 C1577 1.377 . S
C1576 C1578 1.384 . S
C1577 C1576 1.377 . S
C1577 C1583 1.390 . S
C1578 H1569 0.930 . S
C1578 C1576 1.384 . S
C1578 C1579 1.372 . S
C1579 C1578 1.372 . S
C1579 C1580 1.400 . S
C1579 C1584 1.490 . S
C1580 H1570 0.930 . S
C1580 C1579 1.400 . S
C1580 C1583 1.386 . S
H1581 C1597 0.930 . S
H1582 C1598 0.931 . S
C1583 H1571 0.929 . S
C1583 C1577 1.390 . S
C1583 C1580 1.386 . S
C1584 C1579 1.490 . S
C1584 C1586 1.395 . S
C1584 C1587 1.403 . S
H1585 C1591 0.930 . S
C1586 H1572 0.930 . S
C1586 C1584 1.395 . S
C1586 C1589 1.403 . S
C1587 C1584 1.403 . S
C1587 C1588 1.524 . S
C1587 C1591 1.400 . S
C1588 H1573 0.960 . S
C1588 H1574 0.960 . S
C1588 H1575 0.960 . S
C1588 C1587 1.524 . S
C1589 C1586 1.403 . S
C1589 C1590 1.392 . S
C1589 C1593 1.495 . S
C1590 C1589 1.392 . S
C1590 C1591 1.385 . S
C1590 C1592 1.478 . S
C1591 H1585 0.930 . S
C1591 C1587 1.400 . S
C1591 C1590 1.385 . S
C1592 C1590 1.478 . S
C1592 C1594 1.381 . S
C1592 C1598 1.383 . S
C1593 C1589 1.495 . S
C1593 H1599 0.959 . S
C1593 H1600 0.961 . S
C1593 H1601 0.960 . S
C1594 C1592 1.381 . S
C1594 C1595 1.394 . S
C1594 H1602 0.930 . S
C1595 C1594 1.394 . S
C1595 C1596 1.383 . S
C1595 H1603 0.929 . S
C1596 C1595 1.383 . S
C1596 C1597 1.377 . S
C1597 H1581 0.930 . S
C1597 C1596 1.377 . S
C1597 C1598 1.379 . S
C1598 H1582 0.931 . S
C1598 C1592 1.383 . S
C1598 C1597 1.379 . S
H1599 C1593 0.959 . S
H1600 C1593 0.961 . S
H1601 C1593 0.960 . S
H1602 C1594 0.930 . S
H1603 C1595 0.929 . S
H1604 C1612 0.929 . S
H1605 C1614 0.930 . S
H1606 C1616 0.930 1_455 S
H1607 C1619 0.929 . S
H1608 C1622 0.930 . S
H1609 C1624 0.960 . S
H1610 C1624 0.960 . S
H1611 C1624 0.960 . S
C1612 H1604 0.929 . S
C1612 C1613 1.377 . S
C1612 C1614 1.384 . S
C1613 C1612 1.377 . S
C1613 C1619 1.390 . S
C1614 H1605 0.930 . S
C1614 C1612 1.384 . S
C1614 C1615 1.372 . S
C1615 C1614 1.372 . S
C1615 C1616 1.400 . S
C1615 C1620 1.490 . S
C1616 H1606 0.930 1_655 S
C1616 C1615 1.400 . S
C1616 C1619 1.386 . S
H1617 C1633 0.930 . S
H1618 C1634 0.931 . S
C1619 H1607 0.929 . S
C1619 C1613 1.390 . S
C1619 C1616 1.386 . S
C1620 C1615 1.490 . S
C1620 C1622 1.395 . S
C1620 C1623 1.403 1_655 S
H1621 C1627 0.930 . S
C1622 H1608 0.930 . S
C1622 C1620 1.395 . S
C1622 C1625 1.403 1_565 S
C1623 C1620 1.403 1_455 S
C1623 C1624 1.524 . S
C1623 C1627 1.400 1_565 S
C1624 H1609 0.960 . S
C1624 H1610 0.960 . S
C1624 H1611 0.960 . S
C1624 C1623 1.524 . S
C1625 C1622 1.403 1_545 S
C1625 C1626 1.392 1_655 S
C1625 C1629 1.495 . S
C1626 C1625 1.392 1_455 S
C1626 C1627 1.385 . S
C1626 C1628 1.478 . S
C1627 H1621 0.930 . S
C1627 C1623 1.400 1_545 S
C1627 C1626 1.385 . S
C1628 C1626 1.478 . S
C1628 C1630 1.381 . S
C1628 C1634 1.383 . S
C1629 C1625 1.495 . S
C1629 H1635 0.959 . S
C1629 H1636 0.961 . S
C1629 H1637 0.960 . S
C1630 C1628 1.381 . S
C1630 C1631 1.394 . S
C1630 H1638 0.930 1_455 S
C1631 C1630 1.394 . S
C1631 C1632 1.383 . S
C1631 H1639 0.929 . S
C1632 C1631 1.383 . S
C1632 C1633 1.377 . S
C1633 H1617 0.930 . S
C1633 C1632 1.377 . S
C1633 C1634 1.379 . S
C1634 H1618 0.931 . S
C1634 C1628 1.383 . S
C1634 C1633 1.379 . S
H1635 C1629 0.959 . S
H1636 C1629 0.961 . S
H1637 C1629 0.960 . S
H1638 C1630 0.930 1_655 S
H1639 C1631 0.929 . S
H1640 C1648 0.929 . S
H1641 C1650 0.930 . S
H1642 C1652 0.930 . S
H1643 C1655 0.929 . S
H1644 C1658 0.930 . S
H1645 C1660 0.960 . S
H1646 C1660 0.960 . S
H1647 C1660 0.960 . S
C1648 H1640 0.929 . S
C1648 C1649 1.377 . S
C1648 C1650 1.384 . S
C1649 C1648 1.377 . S
C1649 C1655 1.390 . S
C1650 H1641 0.930 . S
C1650 C1648 1.384 . S
C1650 C1651 1.372 . S
C1651 C1650 1.372 . S
C1651 C1652 1.400 . S
C1651 C1656 1.490 . S
C1652 H1642 0.930 . S
C1652 C1651 1.400 . S
C1652 C1655 1.386 . S
H1653 C1669 0.930 . S
H1654 C1670 0.931 . S
C1655 H1643 0.929 . S
C1655 C1649 1.390 . S
C1655 C1652 1.386 . S
C1656 C1651 1.490 . S
C1656 C1658 1.395 . S
C1656 C1659 1.403 . S
H1657 C1663 0.930 . S
C1658 H1644 0.930 . S
C1658 C1656 1.395 . S
C1658 C1661 1.403 . S
C1659 C1656 1.403 . S
C1659 C1660 1.524 . S
C1659 C1663 1.400 . S
C1660 H1645 0.960 . S
C1660 H1646 0.960 . S
C1660 H1647 0.960 . S
C1660 C1659 1.524 . S
C1661 C1658 1.403 . S
C1661 C1662 1.392 . S
C1661 C1665 1.495 . S
C1662 C1661 1.392 . S
C1662 C1663 1.385 . S
C1662 C1664 1.478 . S
C1663 H1657 0.930 . S
C1663 C1659 1.400 . S
C1663 C1662 1.385 . S
C1664 C1662 1.478 . S
C1664 C1666 1.381 . S
C1664 C1670 1.383 . S
C1665 C1661 1.495 . S
C1665 H1671 0.959 . S
C1665 H1672 0.961 . S
C1665 H1673 0.960 . S
C1666 C1664 1.381 . S
C1666 C1667 1.394 . S
C1666 H1674 0.930 . S
C1667 C1666 1.394 . S
C1667 C1668 1.383 . S
C1667 H1675 0.929 . S
C1668 C1667 1.383 . S
C1668 C1669 1.377 . S
C1669 H1653 0.930 . S
C1669 C1668 1.377 . S
C1669 C1670 1.379 . S
C1670 H1654 0.931 . S
C1670 C1664 1.383 . S
C1670 C1669 1.379 . S
H1671 C1665 0.959 . S
H1672 C1665 0.961 . S
H1673 C1665 0.960 . S
H1674 C1666 0.930 . S
H1675 C1667 0.929 . S
H1676 C1684 0.929 . S
H1677 C1686 0.929 . S
H1678 C1688 0.930 . S
H1679 C1691 0.929 . S
H1680 C1694 0.930 . S
H1681 C1696 0.960 . S
H1682 C1696 0.960 . S
H1683 C1696 0.960 . S
C1684 H1676 0.929 . S
C1684 C1685 1.377 . S
C1684 C1686 1.384 . S
C1685 C1684 1.377 . S
C1685 C1691 1.390 . S
C1686 H1677 0.929 . S
C1686 C1684 1.384 . S
C1686 C1687 1.372 . S
C1687 C1686 1.372 . S
C1687 C1688 1.400 . S
C1687 C1692 1.490 . S
C1688 H1678 0.930 . S
C1688 C1687 1.400 . S
C1688 C1691 1.386 . S
H1689 C1705 0.930 . S
H1690 C1706 0.931 1_554 S
C1691 H1679 0.929 . S
C1691 C1685 1.390 . S
C1691 C1688 1.386 . S
C1692 C1687 1.490 . S
C1692 C1694 1.395 . S
C1692 C1695 1.403 1_554 S
H1693 C1699 0.930 . S
C1694 H1680 0.930 . S
C1694 C1692 1.395 . S
C1694 C1697 1.403 1_545 S
C1695 C1692 1.403 1_556 S
C1695 C1696 1.524 . S
C1695 C1699 1.400 1_545 S
C1696 H1681 0.960 . S
C1696 H1682 0.960 . S
C1696 H1683 0.960 . S
C1696 C1695 1.524 . S
C1697 C1694 1.403 1_565 S
C1697 C1698 1.392 1_554 S
C1697 C1701 1.495 . S
C1698 C1697 1.392 1_556 S
C1698 C1699 1.385 . S
C1698 C1700 1.478 . S
C1699 H1693 0.930 . S
C1699 C1695 1.400 1_565 S
C1699 C1698 1.385 . S
C1700 C1698 1.478 . S
C1700 C1702 1.381 . S
C1700 C1706 1.383 . S
C1701 C1697 1.495 . S
C1701 H1707 0.959 . S
C1701 H1708 0.961 . S
C1701 H1709 0.960 . S
C1702 C1700 1.381 . S
C1702 C1703 1.394 . S
C1702 H1710 0.930 . S
C1703 C1702 1.394 . S
C1703 C1704 1.383 . S
C1703 H1711 0.929 . S
C1704 C1703 1.383 . S
C1704 C1705 1.377 . S
C1705 H1689 0.930 . S
C1705 C1704 1.377 . S
C1705 C1706 1.379 . S
C1706 H1690 0.931 1_556 S
C1706 C1700 1.383 . S
C1706 C1705 1.379 . S
H1707 C1701 0.959 . S
H1708 C1701 0.961 . S
H1709 C1701 0.960 . S
H1710 C1702 0.930 . S
H1711 C1703 0.929 . S
H1712 C1720 0.929 . S
H1713 C1722 0.930 . S
H1714 C1724 0.930 . S
H1715 C1727 0.929 . S
H1716 C1730 0.930 . S
H1717 C1732 0.960 . S
H1718 C1732 0.960 . S
H1719 C1732 0.960 . S
C1720 H1712 0.929 . S
C1720 C1721 1.377 . S
C1720 C1722 1.384 . S
C1721 C1720 1.377 . S
C1721 C1727 1.390 . S
C1722 H1713 0.930 . S
C1722 C1720 1.384 . S
C1722 C1723 1.372 . S
C1723 C1722 1.372 . S
C1723 C1724 1.400 . S
C1723 C1728 1.490 . S
C1724 H1714 0.930 . S
C1724 C1723 1.400 . S
C1724 C1727 1.386 . S
H1725 C1741 0.930 . S
H1726 C1742 0.931 . S
C1727 H1715 0.929 . S
C1727 C1721 1.390 . S
C1727 C1724 1.386 . S
C1728 C1723 1.490 . S
C1728 C1730 1.395 . S
C1728 C1731 1.403 . S
H1729 C1735 0.930 . S
C1730 H1716 0.930 . S
C1730 C1728 1.395 . S
C1730 C1733 1.403 . S
C1731 C1728 1.403 . S
C1731 C1732 1.524 . S
C1731 C1735 1.400 . S
C1732 H1717 0.960 . S
C1732 H1718 0.960 . S
C1732 H1719 0.960 . S
C1732 C1731 1.524 . S
C1733 C1730 1.403 . S
C1733 C1734 1.392 . S
C1733 C1737 1.495 . S
C1734 C1733 1.392 . S
C1734 C1735 1.385 . S
C1734 C1736 1.478 . S
C1735 H1729 0.930 . S
C1735 C1731 1.400 . S
C1735 C1734 1.385 . S
C1736 C1734 1.478 . S
C1736 C1738 1.381 . S
C1736 C1742 1.383 . S
C1737 C1733 1.495 . S
C1737 H1743 0.959 . S
C1737 H1744 0.961 . S
C1737 H1745 0.960 . S
C1738 C1736 1.381 . S
C1738 C1739 1.394 . S
C1738 H1746 0.930 . S
C1739 C1738 1.394 . S
C1739 C1740 1.383 . S
C1739 H1747 0.929 . S
C1740 C1739 1.383 . S
C1740 C1741 1.377 . S
C1741 H1725 0.930 . S
C1741 C1740 1.377 . S
C1741 C1742 1.379 . S
C1742 H1726 0.931 . S
C1742 C1736 1.383 . S
C1742 C1741 1.379 . S
H1743 C1737 0.959 . S
H1744 C1737 0.961 . S
H1745 C1737 0.960 . S
H1746 C1738 0.930 . S
H1747 C1739 0.929 . S
H1748 C1756 0.929 . S
H1749 C1758 0.930 . S
H1750 C1760 0.930 . S
H1751 C1763 0.929 . S
H1752 C1766 0.930 . S
H1753 C1768 0.960 . S
H1754 C1768 0.960 . S
H1755 C1768 0.960 . S
C1756 H1748 0.929 . S
C1756 C1757 1.377 . S
C1756 C1758 1.384 . S
C1757 C1756 1.377 . S
C1757 C1763 1.390 . S
C1758 H1749 0.930 . S
C1758 C1756 1.384 . S
C1758 C1759 1.372 . S
C1759 C1758 1.372 . S
C1759 C1760 1.400 . S
C1759 C1764 1.490 . S
C1760 H1750 0.930 . S
C1760 C1759 1.400 . S
C1760 C1763 1.386 . S
H1761 C1777 0.930 . S
H1762 C1778 0.931 . S
C1763 H1751 0.929 . S
C1763 C1757 1.390 . S
C1763 C1760 1.386 . S
C1764 C1759 1.490 . S
C1764 C1766 1.395 . S
C1764 C1767 1.403 . S
H1765 C1771 0.930 . S
C1766 H1752 0.930 . S
C1766 C1764 1.395 . S
C1766 C1769 1.403 1_565 S
C1767 C1764 1.403 . S
C1767 C1768 1.524 . S
C1767 C1771 1.400 1_565 S
C1768 H1753 0.960 . S
C1768 H1754 0.960 . S
C1768 H1755 0.960 . S
C1768 C1767 1.524 . S
C1769 C1766 1.403 1_545 S
C1769 C1770 1.392 . S
C1769 C1773 1.495 . S
C1770 C1769 1.392 . S
C1770 C1771 1.385 . S
C1770 C1772 1.478 . S
C1771 H1765 0.930 . S
C1771 C1767 1.400 1_545 S
C1771 C1770 1.385 . S
C1772 C1770 1.478 . S
C1772 C1774 1.381 . S
C1772 C1778 1.383 . S
C1773 C1769 1.495 . S
C1773 H1779 0.959 . S
C1773 H1780 0.961 . S
C1773 H1781 0.960 . S
C1774 C1772 1.381 . S
C1774 C1775 1.394 . S
C1774 H1782 0.930 . S
C1775 C1774 1.394 . S
C1775 C1776 1.383 . S
C1775 H1783 0.929 . S
C1776 C1775 1.383 . S
C1776 C1777 1.377 . S
C1777 H1761 0.930 . S
C1777 C1776 1.377 . S
C1777 C1778 1.379 . S
C1778 H1762 0.931 . S
C1778 C1772 1.383 . S
C1778 C1777 1.379 . S
H1779 C1773 0.959 . S
H1780 C1773 0.961 . S
H1781 C1773 0.960 . S
H1782 C1774 0.930 . S
H1783 C1775 0.929 . S
H1784 C1792 0.929 . S
H1785 C1794 0.930 . S
H1786 C1796 0.930 . S
H1787 C1799 0.929 . S
H1788 C1802 0.930 . S
H1789 C1804 0.960 . S
H1790 C1804 0.960 . S
H1791 C1804 0.960 . S
C1792 H1784 0.929 . S
C1792 C1793 1.377 . S
C1792 C1794 1.384 . S
C1793 C1792 1.377 . S
C1793 C1799 1.390 . S
C1794 H1785 0.930 . S
C1794 C1792 1.384 . S
C1794 C1795 1.372 . S
C1795 C1794 1.372 . S
C1795 C1796 1.400 . S
C1795 C1800 1.490 . S
C1796 H1786 0.930 . S
C1796 C1795 1.400 . S
C1796 C1799 1.386 . S
H1797 C1813 0.930 . S
H1798 C1814 0.931 . S
C1799 H1787 0.929 . S
C1799 C1793 1.390 . S
C1799 C1796 1.386 . S
C1800 C1795 1.490 . S
C1800 C1802 1.395 . S
C1800 C1803 1.403 . S
H1801 C1807 0.930 . S
C1802 H1788 0.930 . S
C1802 C1800 1.395 . S
C1802 C1805 1.403 . S
C1803 C1800 1.403 . S
C1803 C1804 1.524 . S
C1803 C1807 1.400 . S
C1804 H1789 0.960 . S
C1804 H1790 0.960 . S
C1804 H1791 0.960 . S
C1804 C1803 1.524 . S
C1805 C1802 1.403 . S
C1805 C1806 1.392 . S
C1805 C1809 1.495 . S
C1806 C1805 1.392 . S
C1806 C1807 1.385 . S
C1806 C1808 1.478 . S
C1807 H1801 0.930 . S
C1807 C1803 1.400 . S
C1807 C1806 1.385 . S
C1808 C1806 1.478 . S
C1808 C1810 1.381 . S
C1808 C1814 1.383 . S
C1809 C1805 1.495 . S
C1809 H1815 0.959 . S
C1809 H1816 0.961 . S
C1809 H1817 0.960 . S
C1810 C1808 1.381 . S
C1810 C1811 1.394 . S
C1810 H1818 0.930 . S
C1811 C1810 1.394 . S
C1811 C1812 1.383 . S
C1811 H1819 0.929 . S
C1812 C1811 1.383 . S
C1812 C1813 1.377 . S
C1813 H1797 0.930 . S
C1813 C1812 1.377 . S
C1813 C1814 1.379 . S
C1814 H1798 0.931 . S
C1814 C1808 1.383 . S
C1814 C1813 1.379 . S
H1815 C1809 0.959 . S
H1816 C1809 0.961 . S
H1817 C1809 0.960 . S
H1818 C1810 0.930 . S
H1819 C1811 0.929 . S
H1820 C1828 0.929 . S
H1821 C1830 0.930 1_554 S
H1822 C1832 0.930 1_455 S
H1823 C1835 0.913 1_455 S
H1824 C1838 0.930 . S
H1825 C1840 0.960 . S
H1826 C1840 0.960 . S
H1827 C1840 0.960 . S
C1828 H1820 0.929 . S
C1828 C1829 1.377 . S
C1828 C1830 1.384 . S
C1829 C1828 1.377 . S
C1829 C1835 1.390 . S
C1830 H1821 0.930 1_556 S
C1830 C1828 1.384 . S
C1830 C1831 1.372 . S
C1831 C1830 1.372 . S
C1831 C1832 1.400 . S
C1831 C1836 1.490 . S
C1832 H1822 0.930 1_655 S
C1832 C1831 1.400 . S
C1832 C1835 1.386 . S
H1833 C1849 0.930 1_556 S
H1834 C1850 0.931 . S
C1835 H1823 0.913 1_655 S
C1835 C1829 1.390 . S
C1835 C1832 1.386 . S
C1836 C1831 1.490 . S
C1836 C1838 1.395 . S
C1836 C1839 1.403 1_656 S
H1837 C1843 0.930 . S
C1838 H1824 0.930 . S
C1838 C1836 1.395 . S
C1838 C1841 1.403 1_545 S
C1839 C1836 1.403 1_454 S
C1839 C1840 1.524 . S
C1839 C1843 1.400 1_545 S
C1840 H1825 0.960 . S
C1840 H1826 0.960 . S
C1840 H1827 0.960 . S
C1840 C1839 1.524 . S
C1841 C1838 1.403 1_565 S
C1841 C1842 1.392 1_656 S
C1841 C1845 1.495 . S
C1842 C1841 1.392 1_454 S
C1842 C1843 1.385 . S
C1842 C1844 1.478 . S
C1843 H1837 0.930 . S
C1843 C1839 1.400 1_565 S
C1843 C1842 1.385 . S
C1844 C1842 1.478 . S
C1844 C1846 1.378 1_455 S
C1844 C1850 1.383 1_554 S
C1845 C1841 1.495 . S
C1845 H1851 0.959 . S
C1845 H1852 0.961 . S
C1845 H1853 0.960 . S
C1846 C1844 1.378 1_655 S
C1846 C1847 1.392 1_655 S
C1846 H1854 0.935 . S
C1847 C1846 1.392 1_455 S
C1847 C1848 1.383 . S
C1847 H1855 0.934 . S
C1848 C1847 1.383 . S
C1848 C1849 1.377 . S
C1849 H1833 0.930 1_554 S
C1849 C1848 1.377 . S
C1849 C1850 1.379 1_554 S
C1850 H1834 0.931 . S
C1850 C1844 1.383 1_556 S
C1850 C1849 1.379 1_556 S
H1851 C1845 0.959 . S
H1852 C1845 0.961 . S
H1853 C1845 0.960 . S
H1854 C1846 0.935 . S
H1855 C1847 0.934 . S
H1856 C1864 0.929 . S
H1857 C1866 0.930 . S
H1858 C1868 0.930 . S
H1859 C1871 0.929 . S
H1860 C1874 0.930 . S
H1861 C1876 0.960 . S
H1862 C1876 0.960 . S
H1863 C1876 0.960 . S
C1864 H1856 0.929 . S
C1864 C1865 1.377 . S
C1864 C1866 1.384 . S
C1865 C1864 1.377 . S
C1865 C1871 1.390 . S
C1866 H1857 0.930 . S
C1866 C1864 1.384 . S
C1866 C1867 1.372 . S
C1867 C1866 1.372 . S
C1867 C1868 1.400 . S
C1867 C1872 1.490 . S
C1868 H1858 0.930 . S
C1868 C1867 1.400 . S
C1868 C1871 1.386 . S
H1869 C1885 0.930 . S
H1870 C1886 0.931 . S
C1871 H1859 0.929 . S
C1871 C1865 1.390 . S
C1871 C1868 1.386 . S
C1872 C1867 1.490 . S
C1872 C1874 1.395 . S
C1872 C1875 1.403 . S
H1873 C1879 0.930 . S
C1874 H1860 0.930 . S
C1874 C1872 1.395 . S
C1874 C1877 1.403 . S
C1875 C1872 1.403 . S
C1875 C1876 1.524 . S
C1875 C1879 1.400 . S
C1876 H1861 0.960 . S
C1876 H1862 0.960 . S
C1876 H1863 0.960 . S
C1876 C1875 1.524 . S
C1877 C1874 1.403 . S
C1877 C1878 1.392 . S
C1877 C1881 1.495 . S
C1878 C1877 1.392 . S
C1878 C1879 1.385 . S
C1878 C1880 1.478 . S
C1879 H1873 0.930 . S
C1879 C1875 1.400 . S
C1879 C1878 1.385 . S
C1880 C1878 1.478 . S
C1880 C1882 1.381 . S
C1880 C1886 1.383 . S
C1881 C1877 1.495 . S
C1881 H1887 0.959 . S
C1881 H1888 0.961 . S
C1881 H1889 0.960 . S
C1882 C1880 1.381 . S
C1882 C1883 1.394 . S
C1882 H1890 0.930 . S
C1883 C1882 1.394 . S
C1883 C1884 1.383 . S
C1883 H1891 0.929 . S
C1884 C1883 1.383 . S
C1884 C1885 1.377 . S
C1885 H1869 0.930 . S
C1885 C1884 1.377 . S
C1885 C1886 1.379 . S
C1886 H1870 0.931 . S
C1886 C1880 1.383 . S
C1886 C1885 1.379 . S
H1887 C1881 0.959 . S
H1888 C1881 0.961 . S
H1889 C1881 0.960 . S
H1890 C1882 0.930 . S
H1891 C1883 0.929 . S
H1892 C1900 0.929 . S
H1893 C1902 0.930 . S
H1894 C1904 0.930 . S
H1895 C1907 0.929 . S
H1896 C1910 0.930 . S
H1897 C1912 0.960 . S
H1898 C1912 0.960 . S
H1899 C1912 0.960 . S
C1900 H1892 0.929 . S
C1900 C1901 1.377 . S
C1900 C1902 1.384 . S
C1901 C1900 1.377 . S
C1901 C1907 1.390 . S
C1902 H1893 0.930 . S
C1902 C1900 1.384 . S
C1902 C1903 1.372 . S
C1903 C1902 1.372 . S
C1903 C1904 1.400 . S
C1903 C1908 1.490 . S
C1904 H1894 0.930 . S
C1904 C1903 1.400 . S
C1904 C1907 1.386 . S
H1905 C1921 0.930 . S
H1906 C1922 0.931 . S
C1907 H1895 0.929 . S
C1907 C1901 1.390 . S
C1907 C1904 1.386 . S
C1908 C1903 1.490 . S
C1908 C1910 1.395 . S
C1908 C1911 1.403 . S
H1909 C1915 0.930 . S
C1910 H1896 0.930 . S
C1910 C1908 1.395 . S
C1910 C1913 1.403 . S
C1911 C1908 1.403 . S
C1911 C1912 1.524 . S
C1911 C1915 1.400 . S
C1912 H1897 0.960 . S
C1912 H1898 0.960 . S
C1912 H1899 0.960 . S
C1912 C1911 1.524 . S
C1913 C1910 1.403 . S
C1913 C1914 1.392 . S
C1913 C1917 1.495 . S
C1914 C1913 1.392 . S
C1914 C1915 1.385 . S
C1914 C1916 1.478 . S
C1915 H1909 0.930 . S
C1915 C1911 1.400 . S
C1915 C1914 1.385 . S
C1916 C1914 1.478 . S
C1916 C1918 1.381 . S
C1916 C1922 1.383 . S
C1917 C1913 1.495 . S
C1917 H1923 0.959 . S
C1917 H1924 0.961 . S
C1917 H1925 0.960 . S
C1918 C1916 1.381 . S
C1918 C1919 1.394 . S
C1918 H1926 0.930 . S
C1919 C1918 1.394 . S
C1919 C1920 1.383 . S
C1919 H1927 0.929 . S
C1920 C1919 1.383 . S
C1920 C1921 1.377 . S
C1921 H1905 0.930 . S
C1921 C1920 1.377 . S
C1921 C1922 1.379 . S
C1922 H1906 0.931 . S
C1922 C1916 1.383 . S
C1922 C1921 1.379 . S
H1923 C1917 0.959 . S
H1924 C1917 0.961 . S
H1925 C1917 0.960 . S
H1926 C1918 0.930 . S
H1927 C1919 0.929 . S
H1928 C1936 0.929 . S
H1929 C1938 0.930 . S
H1930 C1940 0.930 . S
H1931 C1943 0.929 . S
H1932 C1946 0.930 . S
H1933 C1948 0.960 . S
H1934 C1948 0.960 . S
H1935 C1948 0.960 . S
C1936 H1928 0.929 . S
C1936 C1937 1.377 . S
C1936 C1938 1.384 . S
C1937 C1936 1.377 . S
C1937 C1943 1.390 . S
C1938 H1929 0.930 . S
C1938 C1936 1.384 . S
C1938 C1939 1.372 . S
C1939 C1938 1.372 . S
C1939 C1940 1.400 . S
C1939 C1944 1.490 . S
C1940 H1930 0.930 . S
C1940 C1939 1.400 . S
C1940 C1943 1.386 . S
H1941 C1957 0.930 . S
H1942 C1958 0.931 . S
C1943 H1931 0.929 . S
C1943 C1937 1.390 . S
C1943 C1940 1.386 . S
C1944 C1939 1.490 . S
C1944 C1946 1.395 . S
C1944 C1947 1.403 . S
H1945 C1951 0.930 . S
C1946 H1932 0.930 . S
C1946 C1944 1.395 . S
C1946 C1949 1.403 . S
C1947 C1944 1.403 . S
C1947 C1948 1.524 . S
C1947 C1951 1.400 . S
C1948 H1933 0.960 . S
C1948 H1934 0.960 . S
C1948 H1935 0.960 . S
C1948 C1947 1.524 . S
C1949 C1946 1.403 . S
C1949 C1950 1.392 . S
C1949 C1953 1.495 . S
C1950 C1949 1.392 . S
C1950 C1951 1.385 . S
C1950 C1952 1.478 . S
C1951 H1945 0.930 . S
C1951 C1947 1.400 . S
C1951 C1950 1.385 . S
C1952 C1950 1.478 . S
C1952 C1954 1.381 . S
C1952 C1958 1.383 . S
C1953 C1949 1.495 . S
C1953 H1959 0.959 . S
C1953 H1960 0.961 . S
C1953 H1961 0.960 . S
C1954 C1952 1.381 . S
C1954 C1955 1.394 . S
C1954 H1962 0.930 . S
C1955 C1954 1.394 . S
C1955 C1956 1.383 . S
C1955 H1963 0.929 . S
C1956 C1955 1.383 . S
C1956 C1957 1.377 . S
C1957 H1941 0.930 . S
C1957 C1956 1.377 . S
C1957 C1958 1.379 . S
C1958 H1942 0.931 . S
C1958 C1952 1.383 . S
C1958 C1957 1.379 . S
H1959 C1953 0.959 . S
H1960 C1953 0.961 . S
H1961 C1953 0.960 . S
H1962 C1954 0.930 . S
H1963 C1955 0.929 . S
H1964 C1972 0.929 . S
H1965 C1974 0.930 . S
H1966 C1976 0.930 . S
H1967 C1979 0.929 . S
H1968 C1982 0.930 . S
H1969 C1984 0.960 . S
H1970 C1984 0.960 . S
H1971 C1984 0.960 . S
C1972 H1964 0.929 . S
C1972 C1973 1.377 . S
C1972 C1974 1.384 . S
C1973 C1972 1.377 . S
C1973 C1979 1.390 . S
C1974 H1965 0.930 . S
C1974 C1972 1.384 . S
C1974 C1975 1.372 . S
C1975 C1974 1.372 . S
C1975 C1976 1.400 . S
C1975 C1980 1.490 . S
C1976 H1966 0.930 . S
C1976 C1975 1.400 . S
C1976 C1979 1.386 . S
H1977 C1993 0.930 . S
H1978 C1994 0.931 . S
C1979 H1967 0.929 . S
C1979 C1973 1.390 . S
C1979 C1976 1.386 . S
C1980 C1975 1.490 . S
C1980 C1982 1.395 . S
C1980 C1983 1.403 . S
H1981 C1987 0.930 . S
C1982 H1968 0.930 . S
C1982 C1980 1.395 . S
C1982 C1985 1.403 . S
C1983 C1980 1.403 . S
C1983 C1984 1.524 . S
C1983 C1987 1.400 . S
C1984 H1969 0.960 . S
C1984 H1970 0.960 . S
C1984 H1971 0.960 . S
C1984 C1983 1.524 . S
C1985 C1982 1.403 . S
C1985 C1986 1.392 . S
C1985 C1989 1.495 . S
C1986 C1985 1.392 . S
C1986 C1987 1.385 . S
C1986 C1988 1.478 . S
C1987 H1981 0.930 . S
C1987 C1983 1.400 . S
C1987 C1986 1.385 . S
C1988 C1986 1.478 . S
C1988 C1990 1.381 . S
C1988 C1994 1.383 . S
C1989 C1985 1.495 . S
C1989 H1995 0.959 . S
C1989 H1996 0.961 . S
C1989 H1997 0.960 . S
C1990 C1988 1.381 . S
C1990 C1991 1.394 . S
C1990 H1998 0.930 . S
C1991 C1990 1.394 . S
C1991 C1992 1.383 . S
C1991 H1999 0.929 . S
C1992 C1991 1.383 . S
C1992 C1993 1.377 . S
C1993 H1977 0.930 . S
C1993 C1992 1.377 . S
C1993 C1994 1.379 . S
C1994 H1978 0.931 . S
C1994 C1988 1.383 . S
C1994 C1993 1.379 . S
H1995 C1989 0.959 . S
H1996 C1989 0.961 . S
H1997 C1989 0.960 . S
H1998 C1990 0.930 . S
H1999 C1991 0.929 . S
H2000 C2008 0.929 . S
H2001 C2010 0.930 . S
H2002 C2012 0.956 . S
H2003 C2015 0.929 1_556 S
H2004 C2018 0.930 . S
H2005 C2020 0.960 . S
H2006 C2020 0.960 . S
H2007 C2020 0.960 . S
C2008 H2000 0.929 . S
C2008 C2009 1.377 . S
C2008 C2010 1.384 . S
C2009 C2008 1.377 . S
C2009 C2015 1.390 . S
C2010 H2001 0.930 . S
C2010 C2008 1.384 . S
C2010 C2011 1.372 . S
C2011 C2010 1.372 . S
C2011 C2012 1.381 1_554 S
C2011 C2016 1.490 . S
C2012 H2002 0.956 . S
C2012 C2011 1.381 1_556 S
C2012 C2015 1.379 1_556 S
H2013 C2029 0.930 . S
H2014 C2030 0.931 . S
C2015 H2003 0.929 1_554 S
C2015 C2009 1.390 . S
C2015 C2012 1.379 1_554 S
C2016 C2011 1.490 . S
C2016 C2018 1.395 1_554 S
C2016 C2019 1.403 . S
H2017 C2023 0.930 . S
C2018 H2004 0.930 . S
C2018 C2016 1.395 1_556 S
C2018 C2021 1.403 . S
C2019 C2016 1.403 . S
C2019 C2020 1.524 . S
C2019 C2023 1.400 . S
C2020 H2005 0.960 . S
C2020 H2006 0.960 . S
C2020 H2007 0.960 . S
C2020 C2019 1.524 . S
C2021 C2018 1.403 . S
C2021 C2022 1.392 . S
C2021 C2025 1.495 . S
C2022 C2021 1.392 . S
C2022 C2023 1.385 1_556 S
C2022 C2024 1.478 . S
C2023 H2017 0.930 . S
C2023 C2019 1.400 . S
C2023 C2022 1.385 1_554 S
C2024 C2022 1.478 . S
C2024 C2026 1.381 1_556 S
C2024 C2030 1.383 . S
C2025 C2021 1.495 . S
C2025 H2031 0.959 . S
C2025 H2032 0.961 . S
C2025 H2033 0.960 . S
C2026 C2024 1.381 1_554 S
C2026 C2027 1.394 1_554 S
C2026 H2034 0.930 . S
C2027 C2026 1.394 1_556 S
C2027 C2028 1.383 . S
C2027 H2035 0.929 1_556 S
C2028 C2027 1.383 . S
C2028 C2029 1.377 . S
C2029 H2013 0.930 . S
C2029 C2028 1.377 . S
C2029 C2030 1.379 . S
C2030 H2014 0.931 . S
C2030 C2024 1.383 . S
C2030 C2029 1.379 . S
H2031 C2025 0.959 . S
H2032 C2025 0.961 . S
H2033 C2025 0.960 . S
H2034 C2026 0.930 . S
H2035 C2027 0.929 1_554 S
H2036 C2044 0.929 . S
H2037 C2046 0.931 1_455 S
H2038 C2048 0.930 . S
H2039 C2051 0.929 . S
H2040 C2054 0.930 . S
H2041 C2056 0.960 . S
H2042 C2056 0.960 . S
H2043 C2056 0.960 . S
C2044 H2036 0.929 . S
C2044 C2045 1.377 . S
C2044 C2046 1.384 . S
C2045 C2044 1.377 . S
C2045 C2051 1.390 . S
C2046 H2037 0.931 1_655 S
C2046 C2044 1.384 . S
C2046 C2047 1.372 . S
C2047 C2046 1.372 . S
C2047 C2048 1.400 . S
C2047 C2052 1.490 . S
C2048 H2038 0.930 . S
C2048 C2047 1.400 . S
C2048 C2051 1.386 . S
H2049 C2065 0.930 . S
H2050 C2066 0.931 . S
C2051 H2039 0.929 . S
C2051 C2045 1.390 . S
C2051 C2048 1.386 . S
C2052 C2047 1.490 . S
C2052 C2054 1.395 1_655 S
C2052 C2055 1.403 . S
H2053 C2059 0.930 . S
C2054 H2040 0.930 . S
C2054 C2052 1.395 1_455 S
C2054 C2057 1.403 . S
C2055 C2052 1.403 . S
C2055 C2056 1.524 . S
C2055 C2059 1.400 . S
C2056 H2041 0.960 . S
C2056 H2042 0.960 . S
C2056 H2043 0.960 . S
C2056 C2055 1.524 . S
C2057 C2054 1.403 . S
C2057 C2058 1.392 . S
C2057 C2061 1.495 . S
C2058 C2057 1.392 . S
C2058 C2059 1.385 1_455 S
C2058 C2060 1.478 . S
C2059 H2053 0.930 . S
C2059 C2055 1.400 . S
C2059 C2058 1.385 1_655 S
C2060 C2058 1.478 . S
C2060 C2062 1.381 . S
C2060 C2066 1.383 . S
C2061 C2057 1.495 . S
C2061 H2067 0.959 . S
C2061 H2068 0.961 . S
C2061 H2069 0.960 . S
C2062 C2060 1.381 . S
C2062 C2063 1.394 . S
C2062 H2070 0.930 . S
C2063 C2062 1.394 . S
C2063 C2064 1.383 . S
C2063 H2071 0.929 . S
C2064 C2063 1.383 . S
C2064 C2065 1.377 . S
C2065 H2049 0.930 . S
C2065 C2064 1.377 . S
C2065 C2066 1.379 . S
C2066 H2050 0.931 . S
C2066 C2060 1.383 . S
C2066 C2065 1.379 . S
H2067 C2061 0.959 . S
H2068 C2061 0.961 . S
H2069 C2061 0.960 . S
H2070 C2062 0.930 . S
H2071 C2063 0.929 . S
H2072 C2080 0.929 1_554 S
H2073 C2082 0.930 . S
H2074 C2084 0.930 1_655 S
H2075 C2087 0.929 . S
H2076 C2090 0.930 . S
H2077 C2092 0.960 . S
H2078 C2092 0.960 . S
H2079 C2092 0.955 1_556 S
C2080 H2072 0.929 1_556 S
C2080 C2081 1.377 . S
C2080 C2082 1.384 1_556 S
C2081 C2080 1.377 . S
C2081 C2087 1.390 . S
C2082 H2073 0.930 . S
C2082 C2080 1.384 1_554 S
C2082 C2083 1.372 1_554 S
C2083 C2082 1.372 1_556 S
C2083 C2084 1.400 . S
C2083 C2088 1.490 . S
C2084 H2074 0.930 1_455 S
C2084 C2083 1.400 . S
C2084 C2087 1.386 . S
H2085 C2101 0.930 1_556 S
H2086 C2102 0.931 . S
C2087 H2075 0.929 . S
C2087 C2081 1.390 . S
C2087 C2084 1.386 . S
C2088 C2083 1.490 . S
C2088 C2090 1.395 . S
C2088 C2091 1.403 1_456 S
H2089 C2095 0.930 . S
C2090 H2076 0.930 . S
C2090 C2088 1.395 . S
C2090 C2093 1.403 . S
C2091 C2088 1.403 1_654 S
C2091 C2092 1.524 . S
C2091 C2095 1.400 . S
C2092 H2077 0.960 . S
C2092 H2078 0.960 . S
C2092 H2079 0.955 1_554 S
C2092 C2091 1.524 . S
C2093 C2090 1.403 . S
C2093 C2094 1.392 1_456 S
C2093 C2097 1.495 . S
C2094 C2093 1.392 1_654 S
C2094 C2095 1.385 . S
C2094 C2096 1.478 . S
C2095 H2089 0.930 . S
C2095 C2091 1.400 . S
C2095 C2094 1.385 . S
C2096 C2094 1.478 . S
C2096 C2098 1.381 . S
C2096 C2102 1.383 1_554 S
C2097 C2093 1.495 . S
C2097 H2103 0.959 . S
C2097 H2104 0.961 . S
C2097 H2105 0.960 1_556 S
C2098 C2096 1.381 . S
C2098 C2099 1.394 . S
C2098 H2106 0.930 1_655 S
C2099 C2098 1.394 . S
C2099 C2100 1.383 . S
C2099 H2107 0.929 . S
C2100 C2099 1.383 . S
C2100 C2101 1.377 . S
C2101 H2085 0.930 1_554 S
C2101 C2100 1.377 . S
C2101 C2102 1.379 1_554 S
C2102 H2086 0.931 . S
C2102 C2096 1.383 1_556 S
C2102 C2101 1.379 1_556 S
H2103 C2097 0.959 . S
H2104 C2097 0.961 . S
H2105 C2097 0.960 1_554 S
H2106 C2098 0.930 1_455 S
H2107 C2099 0.929 . S
H2108 C2116 0.929 . S
H2109 C2118 0.930 . S
H2110 C2120 0.930 . S
H2111 C2123 0.929 . S
H2112 C2126 0.930 . S
H2113 C2128 0.960 . S
H2114 C2128 0.960 . S
H2115 C2128 0.960 . S
C2116 H2108 0.929 . S
C2116 C2117 1.377 . S
C2116 C2118 1.384 . S
C2117 C2116 1.377 . S
C2117 C2123 1.390 . S
C2118 H2109 0.930 . S
C2118 C2116 1.384 . S
C2118 C2119 1.372 . S
C2119 C2118 1.372 . S
C2119 C2120 1.400 . S
C2119 C2124 1.490 . S
C2120 H2110 0.930 . S
C2120 C2119 1.400 . S
C2120 C2123 1.386 . S
H2121 C2137 0.930 . S
H2122 C2138 0.931 . S
C2123 H2111 0.929 . S
C2123 C2117 1.390 . S
C2123 C2120 1.386 . S
C2124 C2119 1.490 . S
C2124 C2126 1.395 . S
C2124 C2127 1.403 . S
H2125 C2131 0.930 . S
C2126 H2112 0.930 . S
C2126 C2124 1.395 . S
C2126 C2129 1.403 . S
C2127 C2124 1.403 . S
C2127 C2128 1.524 . S
C2127 C2131 1.400 . S
C2128 H2113 0.960 . S
C2128 H2114 0.960 . S
C2128 H2115 0.960 . S
C2128 C2127 1.524 . S
C2129 C2126 1.403 . S
C2129 C2130 1.392 . S
C2129 C2133 1.495 . S
C2130 C2129 1.392 . S
C2130 C2131 1.385 . S
C2130 C2132 1.478 . S
C2131 H2125 0.930 . S
C2131 C2127 1.400 . S
C2131 C2130 1.385 . S
C2132 C2130 1.478 . S
C2132 C2134 1.381 . S
C2132 C2138 1.383 . S
C2133 C2129 1.495 . S
C2133 H2139 0.959 . S
C2133 H2140 0.961 . S
C2133 H2141 0.960 . S
C2134 C2132 1.381 . S
C2134 C2135 1.394 . S
C2134 H2142 0.930 . S
C2135 C2134 1.394 . S
C2135 C2136 1.383 . S
C2135 H2143 0.929 . S
C2136 C2135 1.383 . S
C2136 C2137 1.377 . S
C2137 H2121 0.930 . S
C2137 C2136 1.377 . S
C2137 C2138 1.379 . S
C2138 H2122 0.931 . S
C2138 C2132 1.383 . S
C2138 C2137 1.379 . S
H2139 C2133 0.959 . S
H2140 C2133 0.961 . S
H2141 C2133 0.960 . S
H2142 C2134 0.930 . S
H2143 C2135 0.929 . S
H2144 C2152 0.929 . S
H2145 C2154 0.930 . S
H2146 C2156 0.930 . S
H2147 C2159 0.929 . S
H2148 C2162 0.930 . S
H2149 C2164 0.960 . S
H2150 C2164 0.960 . S
H2151 C2164 0.960 . S
C2152 H2144 0.929 . S
C2152 C2153 1.377 . S
C2152 C2154 1.384 . S
C2153 C2152 1.377 . S
C2153 C2159 1.390 . S
C2154 H2145 0.930 . S
C2154 C2152 1.384 . S
C2154 C2155 1.372 . S
C2155 C2154 1.372 . S
C2155 C2156 1.400 . S
C2155 C2160 1.490 . S
C2156 H2146 0.930 . S
C2156 C2155 1.400 . S
C2156 C2159 1.386 . S
H2157 C2173 0.930 . S
H2158 C2174 0.931 . S
C2159 H2147 0.929 . S
C2159 C2153 1.390 . S
C2159 C2156 1.386 . S
C2160 C2155 1.490 . S
C2160 C2162 1.395 . S
C2160 C2163 1.403 . S
H2161 C2167 0.930 . S
C2162 H2148 0.930 . S
C2162 C2160 1.395 . S
C2162 C2165 1.403 . S
C2163 C2160 1.403 . S
C2163 C2164 1.524 . S
C2163 C2167 1.400 . S
C2164 H2149 0.960 . S
C2164 H2150 0.960 . S
C2164 H2151 0.960 . S
C2164 C2163 1.524 . S
C2165 C2162 1.403 . S
C2165 C2166 1.392 . S
C2165 C2169 1.495 . S
C2166 C2165 1.392 . S
C2166 C2167 1.385 . S
C2166 C2168 1.478 . S
C2167 H2161 0.930 . S
C2167 C2163 1.400 . S
C2167 C2166 1.385 . S
C2168 C2166 1.478 . S
C2168 C2170 1.381 . S
C2168 C2174 1.383 . S
C2169 C2165 1.495 . S
C2169 H2175 0.959 . S
C2169 H2176 0.961 . S
C2169 H2177 0.960 . S
C2170 C2168 1.381 . S
C2170 C2171 1.394 . S
C2170 H2178 0.930 . S
C2171 C2170 1.394 . S
C2171 C2172 1.383 . S
C2171 H2179 0.929 . S
C2172 C2171 1.383 . S
C2172 C2173 1.377 . S
C2173 H2157 0.930 . S
C2173 C2172 1.377 . S
C2173 C2174 1.379 . S
C2174 H2158 0.931 . S
C2174 C2168 1.383 . S
C2174 C2173 1.379 . S
H2175 C2169 0.959 . S
H2176 C2169 0.961 . S
H2177 C2169 0.960 . S
H2178 C2170 0.930 . S
H2179 C2171 0.929 . S
H2180 C2188 0.929 . S
H2181 C2190 0.930 . S
H2182 C2192 0.930 . S
H2183 C2195 0.929 . S
H2184 C2198 0.930 . S
H2185 C2200 0.960 . S
H2186 C2200 0.960 . S
H2187 C2200 0.960 . S
C2188 H2180 0.929 . S
C2188 C2189 1.377 . S
C2188 C2190 1.384 . S
C2189 C2188 1.377 . S
C2189 C2195 1.390 . S
C2190 H2181 0.930 . S
C2190 C2188 1.384 . S
C2190 C2191 1.372 . S
C2191 C2190 1.372 . S
C2191 C2192 1.400 . S
C2191 C2196 1.490 . S
C2192 H2182 0.930 . S
C2192 C2191 1.400 . S
C2192 C2195 1.386 . S
H2193 C2209 0.930 . S
H2194 C2210 0.931 . S
C2195 H2183 0.929 . S
C2195 C2189 1.390 . S
C2195 C2192 1.386 . S
C2196 C2191 1.490 . S
C2196 C2198 1.395 . S
C2196 C2199 1.403 . S
H2197 C2203 0.930 . S
C2198 H2184 0.930 . S
C2198 C2196 1.395 . S
C2198 C2201 1.403 . S
C2199 C2196 1.403 . S
C2199 C2200 1.524 . S
C2199 C2203 1.400 . S
C2200 H2185 0.960 . S
C2200 H2186 0.960 . S
C2200 H2187 0.960 . S
C2200 C2199 1.524 . S
C2201 C2198 1.403 . S
C2201 C2202 1.392 . S
C2201 C2205 1.495 . S
C2202 C2201 1.392 . S
C2202 C2203 1.385 . S
C2202 C2204 1.478 . S
C2203 H2197 0.930 . S
C2203 C2199 1.400 . S
C2203 C2202 1.385 . S
C2204 C2202 1.478 . S
C2204 C2206 1.381 . S
C2204 C2210 1.383 . S
C2205 C2201 1.495 . S
C2205 H2211 0.959 . S
C2205 H2212 0.961 . S
C2205 H2213 0.960 . S
C2206 C2204 1.381 . S
C2206 C2207 1.394 . S
C2206 H2214 0.930 . S
C2207 C2206 1.394 . S
C2207 C2208 1.383 . S
C2207 H2215 0.929 . S
C2208 C2207 1.383 . S
C2208 C2209 1.377 . S
C2209 H2193 0.930 . S
C2209 C2208 1.377 . S
C2209 C2210 1.379 . S
C2210 H2194 0.931 . S
C2210 C2204 1.383 . S
C2210 C2209 1.379 . S
H2211 C2205 0.959 . S
H2212 C2205 0.961 . S
H2213 C2205 0.960 . S
H2214 C2206 0.930 . S
H2215 C2207 0.929 . S
H2216 C2224 0.929 . S
H2217 C2226 0.930 . S
H2218 C2228 0.930 . S
H2219 C2231 0.929 . S
H2220 C2234 0.930 . S
H2221 C2236 0.960 . S
H2222 C2236 0.960 . S
H2223 C2236 0.960 . S
C2224 H2216 0.929 . S
C2224 C2225 1.377 . S
C2224 C2226 1.384 . S
C2225 C2224 1.377 . S
C2225 C2231 1.390 . S
C2226 H2217 0.930 . S
C2226 C2224 1.384 . S
C2226 C2227 1.372 . S
C2227 C2226 1.372 . S
C2227 C2228 1.400 . S
C2227 C2232 1.490 . S
C2228 H2218 0.930 . S
C2228 C2227 1.400 . S
C2228 C2231 1.386 . S
H2229 C2245 0.930 . S
H2230 C2246 0.931 . S
C2231 H2219 0.929 . S
C2231 C2225 1.390 . S
C2231 C2228 1.386 . S
C2232 C2227 1.490 . S
C2232 C2234 1.395 . S
C2232 C2235 1.403 . S
H2233 C2239 0.930 . S
C2234 H2220 0.930 . S
C2234 C2232 1.395 . S
C2234 C2237 1.403 . S
C2235 C2232 1.403 . S
C2235 C2236 1.524 . S
C2235 C2239 1.400 . S
C2236 H2221 0.960 . S
C2236 H2222 0.960 . S
C2236 H2223 0.960 . S
C2236 C2235 1.524 . S
C2237 C2234 1.403 . S
C2237 C2238 1.392 . S
C2237 C2241 1.495 . S
C2238 C2237 1.392 . S
C2238 C2239 1.385 . S
C2238 C2240 1.478 . S
C2239 H2233 0.930 . S
C2239 C2235 1.400 . S
C2239 C2238 1.385 . S
C2240 C2238 1.478 . S
C2240 C2242 1.381 . S
C2240 C2246 1.383 . S
C2241 C2237 1.495 . S
C2241 H2247 0.959 . S
C2241 H2248 0.961 . S
C2241 H2249 0.960 . S
C2242 C2240 1.381 . S
C2242 C2243 1.394 . S
C2242 H2250 0.930 . S
C2243 C2242 1.394 . S
C2243 C2244 1.383 . S
C2243 H2251 0.929 . S
C2244 C2243 1.383 . S
C2244 C2245 1.377 . S
C2245 H2229 0.930 . S
C2245 C2244 1.377 . S
C2245 C2246 1.379 . S
C2246 H2230 0.931 . S
C2246 C2240 1.383 . S
C2246 C2245 1.379 . S
H2247 C2241 0.959 . S
H2248 C2241 0.961 . S
H2249 C2241 0.960 . S
H2250 C2242 0.930 . S
H2251 C2243 0.929 . S
H2252 C2260 0.929 . S
H2253 C2262 0.930 . S
H2254 C2264 0.930 . S
H2255 C2267 0.929 . S
H2256 C2270 0.930 . S
H2257 C2272 0.960 . S
H2258 C2272 0.960 . S
H2259 C2272 0.960 . S
C2260 H2252 0.929 . S
C2260 C2261 1.377 . S
C2260 C2262 1.384 . S
C2261 C2260 1.377 . S
C2261 C2267 1.390 . S
C2262 H2253 0.930 . S
C2262 C2260 1.384 . S
C2262 C2263 1.372 . S
C2263 C2262 1.372 . S
C2263 C2264 1.400 . S
C2263 C2268 1.490 . S
C2264 H2254 0.930 . S
C2264 C2263 1.400 . S
C2264 C2267 1.386 . S
H2265 C2281 0.930 . S
H2266 C2282 0.931 . S
C2267 H2255 0.929 . S
C2267 C2261 1.390 . S
C2267 C2264 1.386 . S
C2268 C2263 1.490 . S
C2268 C2270 1.395 . S
C2268 C2271 1.403 . S
H2269 C2275 0.930 . S
C2270 H2256 0.930 . S
C2270 C2268 1.395 . S
C2270 C2273 1.403 . S
C2271 C2268 1.403 . S
C2271 C2272 1.524 . S
C2271 C2275 1.400 . S
C2272 H2257 0.960 . S
C2272 H2258 0.960 . S
C2272 H2259 0.960 . S
C2272 C2271 1.524 . S
C2273 C2270 1.403 . S
C2273 C2274 1.392 . S
C2273 C2277 1.495 . S
C2274 C2273 1.392 . S
C2274 C2275 1.385 . S
C2274 C2276 1.478 . S
C2275 H2269 0.930 . S
C2275 C2271 1.400 . S
C2275 C2274 1.385 . S
C2276 C2274 1.478 . S
C2276 C2278 1.381 . S
C2276 C2282 1.383 . S
C2277 C2273 1.495 . S
C2277 H2283 0.959 . S
C2277 H2284 0.961 . S
C2277 H2285 0.960 . S
C2278 C2276 1.381 . S
C2278 C2279 1.394 . S
C2278 H2286 0.930 . S
C2279 C2278 1.394 . S
C2279 C2280 1.383 . S
C2279 H2287 0.929 . S
C2280 C2279 1.383 . S
C2280 C2281 1.377 . S
C2281 H2265 0.930 . S
C2281 C2280 1.377 . S
C2281 C2282 1.379 . S
C2282 H2266 0.931 . S
C2282 C2276 1.383 . S
C2282 C2281 1.379 . S
H2283 C2277 0.959 . S
H2284 C2277 0.961 . S
H2285 C2277 0.960 . S
H2286 C2278 0.930 . S
H2287 C2279 0.929 . S
H2288 C2296 0.929 . S
H2289 C2298 0.930 . S
H2290 C2300 0.930 . S
H2291 C2303 0.929 . S
H2292 C2306 0.930 . S
H2293 C2308 0.960 . S
H2294 C2308 0.960 . S
H2295 C2308 0.960 . S
C2296 H2288 0.929 . S
C2296 C2297 1.377 . S
C2296 C2298 1.384 . S
C2297 C2296 1.377 . S
C2297 C2303 1.390 . S
C2298 H2289 0.930 . S
C2298 C2296 1.384 . S
C2298 C2299 1.372 . S
C2299 C2298 1.372 . S
C2299 C2300 1.400 . S
C2299 C2304 1.490 . S
C2300 H2290 0.930 . S
C2300 C2299 1.400 . S
C2300 C2303 1.386 . S
H2301 C2317 0.930 . S
H2302 C2318 0.931 . S
C2303 H2291 0.929 . S
C2303 C2297 1.390 . S
C2303 C2300 1.386 . S
C2304 C2299 1.490 . S
C2304 C2306 1.395 . S
C2304 C2307 1.403 . S
H2305 C2311 0.930 . S
C2306 H2292 0.930 . S
C2306 C2304 1.395 . S
C2306 C2309 1.403 . S
C2307 C2304 1.403 . S
C2307 C2308 1.524 . S
C2307 C2311 1.400 . S
C2308 H2293 0.960 . S
C2308 H2294 0.960 . S
C2308 H2295 0.960 . S
C2308 C2307 1.524 . S
C2309 C2306 1.403 . S
C2309 C2310 1.392 . S
C2309 C2313 1.495 . S
C2310 C2309 1.392 . S
C2310 C2311 1.385 . S
C2310 C2312 1.478 . S
C2311 H2305 0.930 . S
C2311 C2307 1.400 . S
C2311 C2310 1.385 . S
C2312 C2310 1.478 . S
C2312 C2314 1.381 . S
C2312 C2318 1.383 . S
C2313 C2309 1.495 . S
C2313 H2319 0.959 . S
C2313 H2320 0.961 . S
C2313 H2321 0.960 . S
C2314 C2312 1.381 . S
C2314 C2315 1.394 . S
C2314 H2322 0.930 . S
C2315 C2314 1.394 . S
C2315 C2316 1.383 . S
C2315 H2323 0.929 . S
C2316 C2315 1.383 . S
C2316 C2317 1.377 . S
C2317 H2301 0.930 . S
C2317 C2316 1.377 . S
C2317 C2318 1.379 . S
C2318 H2302 0.931 . S
C2318 C2312 1.383 . S
C2318 C2317 1.379 . S
H2319 C2313 0.959 . S
H2320 C2313 0.961 . S
H2321 C2313 0.960 . S
H2322 C2314 0.930 . S
H2323 C2315 0.929 . S
H2324 C2332 0.929 . S
H2325 C2334 0.930 . S
H2326 C2336 0.930 . S
H2327 C2339 0.929 . S
H2328 C2342 0.930 . S
H2329 C2344 0.960 . S
H2330 C2344 0.960 . S
H2331 C2344 0.960 . S
C2332 H2324 0.929 . S
C2332 C2333 1.377 . S
C2332 C2334 1.384 . S
C2333 C2332 1.377 . S
C2333 C2339 1.390 . S
C2334 H2325 0.930 . S
C2334 C2332 1.384 . S
C2334 C2335 1.372 . S
C2335 C2334 1.372 . S
C2335 C2336 1.400 . S
C2335 C2340 1.490 . S
C2336 H2326 0.930 . S
C2336 C2335 1.400 . S
C2336 C2339 1.386 . S
H2337 C2353 0.930 . S
H2338 C2354 0.931 . S
C2339 H2327 0.929 . S
C2339 C2333 1.390 . S
C2339 C2336 1.386 . S
C2340 C2335 1.490 . S
C2340 C2342 1.395 . S
C2340 C2343 1.403 . S
H2341 C2347 0.930 . S
C2342 H2328 0.930 . S
C2342 C2340 1.395 . S
C2342 C2345 1.403 . S
C2343 C2340 1.403 . S
C2343 C2344 1.524 . S
C2343 C2347 1.400 . S
C2344 H2329 0.960 . S
C2344 H2330 0.960 . S
C2344 H2331 0.960 . S
C2344 C2343 1.524 . S
C2345 C2342 1.403 . S
C2345 C2346 1.392 . S
C2345 C2349 1.495 . S
C2346 C2345 1.392 . S
C2346 C2347 1.385 . S
C2346 C2348 1.478 . S
C2347 H2341 0.930 . S
C2347 C2343 1.400 . S
C2347 C2346 1.385 . S
C2348 C2346 1.478 . S
C2348 C2350 1.381 . S
C2348 C2354 1.383 . S
C2349 C2345 1.495 . S
C2349 H2355 0.959 . S
C2349 H2356 0.961 . S
C2349 H2357 0.960 . S
C2350 C2348 1.381 . S
C2350 C2351 1.394 . S
C2350 H2358 0.930 . S
C2351 C2350 1.394 . S
C2351 C2352 1.383 . S
C2351 H2359 0.929 . S
C2352 C2351 1.383 . S
C2352 C2353 1.377 . S
C2353 H2337 0.930 . S
C2353 C2352 1.377 . S
C2353 C2354 1.379 . S
C2354 H2338 0.931 . S
C2354 C2348 1.383 . S
C2354 C2353 1.379 . S
H2355 C2349 0.959 . S
H2356 C2349 0.961 . S
H2357 C2349 0.960 . S
H2358 C2350 0.930 . S
H2359 C2351 0.929 . S
H2360 C2368 0.929 . S
H2361 C2370 0.930 . S
H2362 C2372 0.930 . S
H2363 C2375 0.929 . S
H2364 C2378 0.930 . S
H2365 C2380 0.960 . S
H2366 C2380 0.960 . S
H2367 C2380 0.960 . S
C2368 H2360 0.929 . S
C2368 C2369 1.377 . S
C2368 C2370 1.384 . S
C2369 C2368 1.377 . S
C2369 C2375 1.390 . S
C2370 H2361 0.930 . S
C2370 C2368 1.384 . S
C2370 C2371 1.372 . S
C2371 C2370 1.372 . S
C2371 C2372 1.400 . S
C2371 C2376 1.490 . S
C2372 H2362 0.930 . S
C2372 C2371 1.400 . S
C2372 C2375 1.386 . S
H2373 C2389 0.930 . S
H2374 C2390 0.931 . S
C2375 H2363 0.929 . S
C2375 C2369 1.390 . S
C2375 C2372 1.386 . S
C2376 C2371 1.490 . S
C2376 C2378 1.395 . S
C2376 C2379 1.403 . S
H2377 C2383 0.930 . S
C2378 H2364 0.930 . S
C2378 C2376 1.395 . S
C2378 C2381 1.403 . S
C2379 C2376 1.403 . S
C2379 C2380 1.524 . S
C2379 C2383 1.400 . S
C2380 H2365 0.960 . S
C2380 H2366 0.960 . S
C2380 H2367 0.960 . S
C2380 C2379 1.524 . S
C2381 C2378 1.403 . S
C2381 C2382 1.392 . S
C2381 C2385 1.495 . S
C2382 C2381 1.392 . S
C2382 C2383 1.385 . S
C2382 C2384 1.478 . S
C2383 H2377 0.930 . S
C2383 C2379 1.400 . S
C2383 C2382 1.385 . S
C2384 C2382 1.478 . S
C2384 C2386 1.381 . S
C2384 C2390 1.383 . S
C2385 C2381 1.495 . S
C2385 H2391 0.959 . S
C2385 H2392 0.961 . S
C2385 H2393 0.960 . S
C2386 C2384 1.381 . S
C2386 C2387 1.394 . S
C2386 H2394 0.930 . S
C2387 C2386 1.394 . S
C2387 C2388 1.383 . S
C2387 H2395 0.929 . S
C2388 C2387 1.383 . S
C2388 C2389 1.377 . S
C2389 H2373 0.930 . S
C2389 C2388 1.377 . S
C2389 C2390 1.379 . S
C2390 H2374 0.931 . S
C2390 C2384 1.383 . S
C2390 C2389 1.379 . S
H2391 C2385 0.959 . S
H2392 C2385 0.961 . S
H2393 C2385 0.960 . S
H2394 C2386 0.930 . S
H2395 C2387 0.929 . S
H2396 C2404 0.929 . S
H2397 C2406 0.930 . S
H2398 C2408 0.930 . S
H2399 C2411 0.929 . S
H2400 C2414 0.930 . S
H2401 C2416 0.960 . S
H2402 C2416 0.960 . S
H2403 C2416 0.960 . S
C2404 H2396 0.929 . S
C2404 C2405 1.377 . S
C2404 C2406 1.384 . S
C2405 C2404 1.377 . S
C2405 C2411 1.390 . S
C2406 H2397 0.930 . S
C2406 C2404 1.384 . S
C2406 C2407 1.372 . S
C2407 C2406 1.372 . S
C2407 C2408 1.400 . S
C2407 C2412 1.490 . S
C2408 H2398 0.930 . S
C2408 C2407 1.400 . S
C2408 C2411 1.386 . S
H2409 C2425 0.930 . S
H2410 C2426 0.931 . S
C2411 H2399 0.929 . S
C2411 C2405 1.390 . S
C2411 C2408 1.386 . S
C2412 C2407 1.490 . S
C2412 C2414 1.395 . S
C2412 C2415 1.403 . S
H2413 C2419 0.930 . S
C2414 H2400 0.930 . S
C2414 C2412 1.395 . S
C2414 C2417 1.403 . S
C2415 C2412 1.403 . S
C2415 C2416 1.524 . S
C2415 C2419 1.400 . S
C2416 H2401 0.960 . S
C2416 H2402 0.960 . S
C2416 H2403 0.960 . S
C2416 C2415 1.524 . S
C2417 C2414 1.403 . S
C2417 C2418 1.392 . S
C2417 C2421 1.495 . S
C2418 C2417 1.392 . S
C2418 C2419 1.385 . S
C2418 C2420 1.478 . S
C2419 H2413 0.930 . S
C2419 C2415 1.400 . S
C2419 C2418 1.385 . S
C2420 C2418 1.478 . S
C2420 C2422 1.381 . S
C2420 C2426 1.383 . S
C2421 C2417 1.495 . S
C2421 H2427 0.959 . S
C2421 H2428 0.961 . S
C2421 H2429 0.960 . S
C2422 C2420 1.381 . S
C2422 C2423 1.394 . S
C2422 H2430 0.930 . S
C2423 C2422 1.394 . S
C2423 C2424 1.383 . S
C2423 H2431 0.929 . S
C2424 C2423 1.383 . S
C2424 C2425 1.377 . S
C2425 H2409 0.930 . S
C2425 C2424 1.377 . S
C2425 C2426 1.379 . S
C2426 H2410 0.931 . S
C2426 C2420 1.383 . S
C2426 C2425 1.379 . S
H2427 C2421 0.959 . S
H2428 C2421 0.961 . S
H2429 C2421 0.960 . S
H2430 C2422 0.930 . S
H2431 C2423 0.929 . S
H2432 C2440 0.929 . S
H2433 C2442 0.930 . S
H2434 C2444 0.930 . S
H2435 C2447 0.929 . S
H2436 C2450 0.930 . S
H2437 C2452 0.960 . S
H2438 C2452 0.960 . S
H2439 C2452 0.960 . S
C2440 H2432 0.929 . S
C2440 C2441 1.377 . S
C2440 C2442 1.384 . S
C2441 C2440 1.377 . S
C2441 C2447 1.390 . S
C2442 H2433 0.930 . S
C2442 C2440 1.384 . S
C2442 C2443 1.372 . S
C2443 C2442 1.372 . S
C2443 C2444 1.400 . S
C2443 C2448 1.490 . S
C2444 H2434 0.930 . S
C2444 C2443 1.400 . S
C2444 C2447 1.386 . S
H2445 C2461 0.930 . S
H2446 C2462 0.931 . S
C2447 H2435 0.929 . S
C2447 C2441 1.390 . S
C2447 C2444 1.386 . S
C2448 C2443 1.490 . S
C2448 C2450 1.395 . S
C2448 C2451 1.403 . S
H2449 C2455 0.930 . S
C2450 H2436 0.930 . S
C2450 C2448 1.395 . S
C2450 C2453 1.403 . S
C2451 C2448 1.403 . S
C2451 C2452 1.524 . S
C2451 C2455 1.400 . S
C2452 H2437 0.960 . S
C2452 H2438 0.960 . S
C2452 H2439 0.960 . S
C2452 C2451 1.524 . S
C2453 C2450 1.403 . S
C2453 C2454 1.392 . S
C2453 C2457 1.495 . S
C2454 C2453 1.392 . S
C2454 C2455 1.385 . S
C2454 C2456 1.478 . S
C2455 H2449 0.930 . S
C2455 C2451 1.400 . S
C2455 C2454 1.385 . S
C2456 C2454 1.478 . S
C2456 C2458 1.381 . S
C2456 C2462 1.383 . S
C2457 C2453 1.495 . S
C2457 H2463 0.959 . S
C2457 H2464 0.961 . S
C2457 H2465 0.960 . S
C2458 C2456 1.381 . S
C2458 C2459 1.394 . S
C2458 H2466 0.930 . S
C2459 C2458 1.394 . S
C2459 C2460 1.383 . S
C2459 H2467 0.929 . S
C2460 C2459 1.383 . S
C2460 C2461 1.377 . S
C2461 H2445 0.930 . S
C2461 C2460 1.377 . S
C2461 C2462 1.379 . S
C2462 H2446 0.931 . S
C2462 C2456 1.383 . S
C2462 C2461 1.379 . S
H2463 C2457 0.959 . S
H2464 C2457 0.961 . S
H2465 C2457 0.960 . S
H2466 C2458 0.930 . S
H2467 C2459 0.929 . S
H2468 C2476 0.929 . S
H2469 C2478 0.930 . S
H2470 C2480 0.930 . S
H2471 C2483 0.929 . S
H2472 C2486 0.930 . S
H2473 C2488 0.960 . S
H2474 C2488 0.960 . S
H2475 C2488 0.960 . S
C2476 H2468 0.929 . S
C2476 C2477 1.377 . S
C2476 C2478 1.384 . S
C2477 C2476 1.377 . S
C2477 C2483 1.390 . S
C2478 H2469 0.930 . S
C2478 C2476 1.384 . S
C2478 C2479 1.372 . S
C2479 C2478 1.372 . S
C2479 C2480 1.400 . S
C2479 C2484 1.490 . S
C2480 H2470 0.930 . S
C2480 C2479 1.400 . S
C2480 C2483 1.386 . S
H2481 C2497 0.930 . S
H2482 C2498 0.931 . S
C2483 H2471 0.929 . S
C2483 C2477 1.390 . S
C2483 C2480 1.386 . S
C2484 C2479 1.490 . S
C2484 C2486 1.395 . S
C2484 C2487 1.403 . S
H2485 C2491 0.930 . S
C2486 H2472 0.930 . S
C2486 C2484 1.395 . S
C2486 C2489 1.403 . S
C2487 C2484 1.403 . S
C2487 C2488 1.524 . S
C2487 C2491 1.400 . S
C2488 H2473 0.960 . S
C2488 H2474 0.960 . S
C2488 H2475 0.960 . S
C2488 C2487 1.524 . S
C2489 C2486 1.403 . S
C2489 C2490 1.392 . S
C2489 C2493 1.495 . S
C2490 C2489 1.392 . S
C2490 C2491 1.385 . S
C2490 C2492 1.478 . S
C2491 H2485 0.930 . S
C2491 C2487 1.400 . S
C2491 C2490 1.385 . S
C2492 C2490 1.478 . S
C2492 C2494 1.381 . S
C2492 C2498 1.383 . S
C2493 C2489 1.495 . S
C2493 H2499 0.959 . S
C2493 H2500 0.961 . S
C2493 H2501 0.960 . S
C2494 C2492 1.381 . S
C2494 C2495 1.394 . S
C2494 H2502 0.930 . S
C2495 C2494 1.394 . S
C2495 C2496 1.383 . S
C2495 H2503 0.929 . S
C2496 C2495 1.383 . S
C2496 C2497 1.377 . S
C2497 H2481 0.930 . S
C2497 C2496 1.377 . S
C2497 C2498 1.379 . S
C2498 H2482 0.931 . S
C2498 C2492 1.383 . S
C2498 C2497 1.379 . S
H2499 C2493 0.959 . S
H2500 C2493 0.961 . S
H2501 C2493 0.960 . S
H2502 C2494 0.930 . S
H2503 C2495 0.929 . S
H2504 C2512 0.929 . S
H2505 C2514 0.930 . S
H2506 C2516 0.930 . S
H2507 C2519 0.929 . S
H2508 C2522 0.930 . S
H2509 C2524 0.960 . S
H2510 C2524 0.960 . S
H2511 C2524 0.960 . S
C2512 H2504 0.929 . S
C2512 C2513 1.377 . S
C2512 C2514 1.384 . S
C2513 C2512 1.377 . S
C2513 C2519 1.390 . S
C2514 H2505 0.930 . S
C2514 C2512 1.384 . S
C2514 C2515 1.372 . S
C2515 C2514 1.372 . S
C2515 C2516 1.400 . S
C2515 C2520 1.490 . S
C2516 H2506 0.930 . S
C2516 C2515 1.400 . S
C2516 C2519 1.386 . S
H2517 C2533 0.930 . S
H2518 C2534 0.931 . S
C2519 H2507 0.929 . S
C2519 C2513 1.390 . S
C2519 C2516 1.386 . S
C2520 C2515 1.490 . S
C2520 C2522 1.395 . S
C2520 C2523 1.403 . S
H2521 C2527 0.930 . S
C2522 H2508 0.930 . S
C2522 C2520 1.395 . S
C2522 C2525 1.403 . S
C2523 C2520 1.403 . S
C2523 C2524 1.524 . S
C2523 C2527 1.400 . S
C2524 H2509 0.960 . S
C2524 H2510 0.960 . S
C2524 H2511 0.960 . S
C2524 C2523 1.524 . S
C2525 C2522 1.403 . S
C2525 C2526 1.392 . S
C2525 C2529 1.495 . S
C2526 C2525 1.392 . S
C2526 C2527 1.385 . S
C2526 C2528 1.478 . S
C2527 H2521 0.930 . S
C2527 C2523 1.400 . S
C2527 C2526 1.385 . S
C2528 C2526 1.478 . S
C2528 C2530 1.381 . S
C2528 C2534 1.383 . S
C2529 C2525 1.495 . S
C2529 H2535 0.959 . S
C2529 H2536 0.961 . S
C2529 H2537 0.960 . S
C2530 C2528 1.381 . S
C2530 C2531 1.394 . S
C2530 H2538 0.930 . S
C2531 C2530 1.394 . S
C2531 C2532 1.383 . S
C2531 H2539 0.929 . S
C2532 C2531 1.383 . S
C2532 C2533 1.377 . S
C2533 H2517 0.930 . S
C2533 C2532 1.377 . S
C2533 C2534 1.379 . S
C2534 H2518 0.931 . S
C2534 C2528 1.383 . S
C2534 C2533 1.379 . S
H2535 C2529 0.959 . S
H2536 C2529 0.961 . S
H2537 C2529 0.960 . S
H2538 C2530 0.930 . S
H2539 C2531 0.929 . S
H2540 C2548 0.929 . S
H2541 C2550 0.930 . S
H2542 C2552 0.930 . S
H2543 C2555 0.929 . S
H2544 C2558 0.930 . S
H2545 C2560 0.960 . S
H2546 C2560 0.960 . S
H2547 C2560 0.960 . S
C2548 H2540 0.929 . S
C2548 C2549 1.377 . S
C2548 C2550 1.384 . S
C2549 C2548 1.377 . S
C2549 C2555 1.390 . S
C2550 H2541 0.930 . S
C2550 C2548 1.384 . S
C2550 C2551 1.372 . S
C2551 C2550 1.372 . S
C2551 C2552 1.400 . S
C2551 C2556 1.490 . S
C2552 H2542 0.930 . S
C2552 C2551 1.400 . S
C2552 C2555 1.386 . S
H2553 C2569 0.930 . S
H2554 C2570 0.931 . S
C2555 H2543 0.929 . S
C2555 C2549 1.390 . S
C2555 C2552 1.386 . S
C2556 C2551 1.490 . S
C2556 C2558 1.395 . S
C2556 C2559 1.403 . S
H2557 C2563 0.930 . S
C2558 H2544 0.930 . S
C2558 C2556 1.395 . S
C2558 C2561 1.403 . S
C2559 C2556 1.403 . S
C2559 C2560 1.524 . S
C2559 C2563 1.400 . S
C2560 H2545 0.960 . S
C2560 H2546 0.960 . S
C2560 H2547 0.960 . S
C2560 C2559 1.524 . S
C2561 C2558 1.403 . S
C2561 C2562 1.392 . S
C2561 C2565 1.495 . S
C2562 C2561 1.392 . S
C2562 C2563 1.385 . S
C2562 C2564 1.478 . S
C2563 H2557 0.930 . S
C2563 C2559 1.400 . S
C2563 C2562 1.385 . S
C2564 C2562 1.478 . S
C2564 C2566 1.381 . S
C2564 C2570 1.383 . S
C2565 C2561 1.495 . S
C2565 H2571 0.959 . S
C2565 H2572 0.961 . S
C2565 H2573 0.960 . S
C2566 C2564 1.381 . S
C2566 C2567 1.394 . S
C2566 H2574 0.930 . S
C2567 C2566 1.394 . S
C2567 C2568 1.383 . S
C2567 H2575 0.929 . S
C2568 C2567 1.383 . S
C2568 C2569 1.377 . S
C2569 H2553 0.930 . S
C2569 C2568 1.377 . S
C2569 C2570 1.379 . S
C2570 H2554 0.931 . S
C2570 C2564 1.383 . S
C2570 C2569 1.379 . S
H2571 C2565 0.959 . S
H2572 C2565 0.961 . S
H2573 C2565 0.960 . S
H2574 C2566 0.930 . S
H2575 C2567 0.929 . S
H2576 C2584 0.929 . S
H2577 C2586 0.930 . S
H2578 C2588 0.930 . S
H2579 C2591 0.929 . S
H2580 C2594 0.930 . S
H2581 C2596 0.960 . S
H2582 C2596 0.960 . S
H2583 C2596 0.960 . S
C2584 H2576 0.929 . S
C2584 C2585 1.377 . S
C2584 C2586 1.384 . S
C2585 C2584 1.377 . S
C2585 C2591 1.390 . S
C2586 H2577 0.930 . S
C2586 C2584 1.384 . S
C2586 C2587 1.372 . S
C2587 C2586 1.372 . S
C2587 C2588 1.400 . S
C2587 C2592 1.490 . S
C2588 H2578 0.930 . S
C2588 C2587 1.400 . S
C2588 C2591 1.386 . S
H2589 C2605 0.930 . S
H2590 C2606 0.931 . S
C2591 H2579 0.929 . S
C2591 C2585 1.390 . S
C2591 C2588 1.386 . S
C2592 C2587 1.490 . S
C2592 C2594 1.395 . S
C2592 C2595 1.403 . S
H2593 C2599 0.930 . S
C2594 H2580 0.930 . S
C2594 C2592 1.395 . S
C2594 C2597 1.403 . S
C2595 C2592 1.403 . S
C2595 C2596 1.524 . S
C2595 C2599 1.400 . S
C2596 H2581 0.960 . S
C2596 H2582 0.960 . S
C2596 H2583 0.960 . S
C2596 C2595 1.524 . S
C2597 C2594 1.403 . S
C2597 C2598 1.392 . S
C2597 C2601 1.495 . S
C2598 C2597 1.392 . S
C2598 C2599 1.385 . S
C2598 C2600 1.478 . S
C2599 H2593 0.930 . S
C2599 C2595 1.400 . S
C2599 C2598 1.385 . S
C2600 C2598 1.478 . S
C2600 C2602 1.381 . S
C2600 C2606 1.383 . S
C2601 C2597 1.495 . S
C2601 H2607 0.959 . S
C2601 H2608 0.961 . S
C2601 H2609 0.960 . S
C2602 C2600 1.381 . S
C2602 C2603 1.394 . S
C2602 H2610 0.930 . S
C2603 C2602 1.394 . S
C2603 C2604 1.383 . S
C2603 H2611 0.929 . S
C2604 C2603 1.383 . S
C2604 C2605 1.377 . S
C2605 H2589 0.930 . S
C2605 C2604 1.377 . S
C2605 C2606 1.379 . S
C2606 H2590 0.931 . S
C2606 C2600 1.383 . S
C2606 C2605 1.379 . S
H2607 C2601 0.959 . S
H2608 C2601 0.961 . S
H2609 C2601 0.960 . S
H2610 C2602 0.930 . S
H2611 C2603 0.929 . S
H2612 C2620 0.929 . S
H2613 C2622 0.930 . S
H2614 C2624 0.930 . S
H2615 C2627 0.929 . S
H2616 C2630 0.930 . S
H2617 C2632 0.960 . S
H2618 C2632 0.960 . S
H2619 C2632 0.960 . S
C2620 H2612 0.929 . S
C2620 C2621 1.377 . S
C2620 C2622 1.384 . S
C2621 C2620 1.377 . S
C2621 C2627 1.390 . S
C2622 H2613 0.930 . S
C2622 C2620 1.384 . S
C2622 C2623 1.372 . S
C2623 C2622 1.372 . S
C2623 C2624 1.400 . S
C2623 C2628 1.490 . S
C2624 H2614 0.930 . S
C2624 C2623 1.400 . S
C2624 C2627 1.386 . S
H2625 C2641 0.930 . S
H2626 C2642 0.931 . S
C2627 H2615 0.929 . S
C2627 C2621 1.390 . S
C2627 C2624 1.386 . S
C2628 C2623 1.490 . S
C2628 C2630 1.395 . S
C2628 C2631 1.403 . S
H2629 C2635 0.930 . S
C2630 H2616 0.930 . S
C2630 C2628 1.395 . S
C2630 C2633 1.403 . S
C2631 C2628 1.403 . S
C2631 C2632 1.524 . S
C2631 C2635 1.400 . S
C2632 H2617 0.960 . S
C2632 H2618 0.960 . S
C2632 H2619 0.960 . S
C2632 C2631 1.524 . S
C2633 C2630 1.403 . S
C2633 C2634 1.392 . S
C2633 C2637 1.495 . S
C2634 C2633 1.392 . S
C2634 C2635 1.385 . S
C2634 C2636 1.478 . S
C2635 H2629 0.930 . S
C2635 C2631 1.400 . S
C2635 C2634 1.385 . S
C2636 C2634 1.478 . S
C2636 C2638 1.381 . S
C2636 C2642 1.383 . S
C2637 C2633 1.495 . S
C2637 H2643 0.959 . S
C2637 H2644 0.961 . S
C2637 H2645 0.960 . S
C2638 C2636 1.381 . S
C2638 C2639 1.394 . S
C2638 H2646 0.930 . S
C2639 C2638 1.394 . S
C2639 C2640 1.383 . S
C2639 H2647 0.929 . S
C2640 C2639 1.383 . S
C2640 C2641 1.377 . S
C2641 H2625 0.930 . S
C2641 C2640 1.377 . S
C2641 C2642 1.379 . S
C2642 H2626 0.931 . S
C2642 C2636 1.383 . S
C2642 C2641 1.379 . S
H2643 C2637 0.959 . S
H2644 C2637 0.961 . S
H2645 C2637 0.960 . S
H2646 C2638 0.930 . S
H2647 C2639 0.929 . S
H2648 C2656 0.929 . S
H2649 C2658 0.930 . S
H2650 C2660 0.930 . S
H2651 C2663 0.929 . S
H2652 C2666 0.930 . S
H2653 C2668 0.960 . S
H2654 C2668 0.960 . S
H2655 C2668 0.960 . S
C2656 H2648 0.929 . S
C2656 C2657 1.377 . S
C2656 C2658 1.384 . S
C2657 C2656 1.377 . S
C2657 C2663 1.390 . S
C2658 H2649 0.930 . S
C2658 C2656 1.384 . S
C2658 C2659 1.372 . S
C2659 C2658 1.372 . S
C2659 C2660 1.400 . S
C2659 C2664 1.490 . S
C2660 H2650 0.930 . S
C2660 C2659 1.400 . S
C2660 C2663 1.386 . S
H2661 C2677 0.930 . S
H2662 C2678 0.931 . S
C2663 H2651 0.929 . S
C2663 C2657 1.390 . S
C2663 C2660 1.386 . S
C2664 C2659 1.490 . S
C2664 C2666 1.395 . S
C2664 C2667 1.403 . S
H2665 C2671 0.930 . S
C2666 H2652 0.930 . S
C2666 C2664 1.395 . S
C2666 C2669 1.403 . S
C2667 C2664 1.403 . S
C2667 C2668 1.524 . S
C2667 C2671 1.400 . S
C2668 H2653 0.960 . S
C2668 H2654 0.960 . S
C2668 H2655 0.960 . S
C2668 C2667 1.524 . S
C2669 C2666 1.403 . S
C2669 C2670 1.392 . S
C2669 C2673 1.495 . S
C2670 C2669 1.392 . S
C2670 C2671 1.385 . S
C2670 C2672 1.478 . S
C2671 H2665 0.930 . S
C2671 C2667 1.400 . S
C2671 C2670 1.385 . S
C2672 C2670 1.478 . S
C2672 C2674 1.381 . S
C2672 C2678 1.383 . S
C2673 C2669 1.495 . S
C2673 H2679 0.959 . S
C2673 H2680 0.961 . S
C2673 H2681 0.960 . S
C2674 C2672 1.381 . S
C2674 C2675 1.394 . S
C2674 H2682 0.930 . S
C2675 C2674 1.394 . S
C2675 C2676 1.383 . S
C2675 H2683 0.929 . S
C2676 C2675 1.383 . S
C2676 C2677 1.377 . S
C2677 H2661 0.930 . S
C2677 C2676 1.377 . S
C2677 C2678 1.379 . S
C2678 H2662 0.931 . S
C2678 C2672 1.383 . S
C2678 C2677 1.379 . S
H2679 C2673 0.959 . S
H2680 C2673 0.961 . S
H2681 C2673 0.960 . S
H2682 C2674 0.930 . S
H2683 C2675 0.929 . S
H2684 C2692 0.929 . S
H2685 C2694 0.930 . S
H2686 C2696 0.930 . S
H2687 C2699 0.929 . S
H2688 C2702 0.930 . S
H2689 C2704 0.960 . S
H2690 C2704 0.960 . S
H2691 C2704 0.960 . S
C2692 H2684 0.929 . S
C2692 C2693 1.377 . S
C2692 C2694 1.384 . S
C2693 C2692 1.377 . S
C2693 C2699 1.390 . S
C2694 H2685 0.930 . S
C2694 C2692 1.384 . S
C2694 C2695 1.372 . S
C2695 C2694 1.372 . S
C2695 C2696 1.400 . S
C2695 C2700 1.490 . S
C2696 H2686 0.930 . S
C2696 C2695 1.400 . S
C2696 C2699 1.386 . S
H2697 C2713 0.930 . S
H2698 C2714 0.931 . S
C2699 H2687 0.929 . S
C2699 C2693 1.390 . S
C2699 C2696 1.386 . S
C2700 C2695 1.490 . S
C2700 C2702 1.395 . S
C2700 C2703 1.403 . S
H2701 C2707 0.930 . S
C2702 H2688 0.930 . S
C2702 C2700 1.395 . S
C2702 C2705 1.403 . S
C2703 C2700 1.403 . S
C2703 C2704 1.524 . S
C2703 C2707 1.400 . S
C2704 H2689 0.960 . S
C2704 H2690 0.960 . S
C2704 H2691 0.960 . S
C2704 C2703 1.524 . S
C2705 C2702 1.403 . S
C2705 C2706 1.392 . S
C2705 C2709 1.495 . S
C2706 C2705 1.392 . S
C2706 C2707 1.385 . S
C2706 C2708 1.478 . S
C2707 H2701 0.930 . S
C2707 C2703 1.400 . S
C2707 C2706 1.385 . S
C2708 C2706 1.478 . S
C2708 C2710 1.381 . S
C2708 C2714 1.383 . S
C2709 C2705 1.495 . S
C2709 H2715 0.959 . S
C2709 H2716 0.961 . S
C2709 H2717 0.960 . S
C2710 C2708 1.381 . S
C2710 C2711 1.394 . S
C2710 H2718 0.930 . S
C2711 C2710 1.394 . S
C2711 C2712 1.383 . S
C2711 H2719 0.929 . S
C2712 C2711 1.383 . S
C2712 C2713 1.377 . S
C2713 H2697 0.930 . S
C2713 C2712 1.377 . S
C2713 C2714 1.379 . S
C2714 H2698 0.931 . S
C2714 C2708 1.383 . S
C2714 C2713 1.379 . S
H2715 C2709 0.959 . S
H2716 C2709 0.961 . S
H2717 C2709 0.960 . S
H2718 C2710 0.930 . S
H2719 C2711 0.929 . S
C425 C122 0.657 . S
C444 C10 0.586 . S
C461 C23 0.603 . S
C480 C343 0.700 . S
C497 C148 0.659 . S
C516 C36 0.634 . S
C533 C317 0.677 . S
C552 C49 0.607 . S
C569 C62 0.609 . S
C588 C200 0.574 . S
C605 C369 0.655 . S
C624 C75 0.588 . S
C641 C88 0.606 . S
C660 C174 0.738 . S
C677 C395 0.670 . S
C696 C101 0.587 . S
C713 C18 0.671 . S
C732 C114 0.584 . S
C749 C127 0.603 . S
C768 C239 0.728 . S
C785 C44 0.673 . S
C804 C140 0.585 . S
C821 C153 0.605 . S
C840 C213 0.648 . S
C857 C166 0.611 . S
C876 C96 0.681 . S
C893 C265 0.643 . S
C912 C179 0.632 . S
C929 C192 0.611 . S
C948 C70 0.577 . S
C965 C291 0.672 . S
C984 C205 0.584 . S
C1001 C330 0.654 . S
C1020 C218 0.634 . S
C1037 C135 0.650 . S
C1056 C231 0.633 . S
C1073 C244 0.613 . S
C1092 C356 0.622 . S
C1109 C109 0.646 . S
C1128 C257 0.599 . S
C1145 C408 0.677 . S
C1164 C270 0.606 . S
C1181 C283 0.603 . S
C1200 C161 0.699 . S
C1217 C382 0.663 . S
C1236 C296 0.633 . S
C1253 C187 0.665 . S
C1272 C309 0.631 . S
C1289 C226 0.647 . S
C1308 C322 0.635 . S
C1325 C335 0.606 . S
C1344 C31 0.642 . S
C1361 C348 0.603 . S
C1380 C252 0.710 . S
C1397 C361 0.614 . S
C1416 C5 0.593 . S
C1433 C304 0.676 . S
C1452 C374 0.588 . S
C1469 C387 0.614 . S
C1488 C57 0.611 . S
C1505 C400 0.611 . S
C1524 C278 0.687 . S
C1541 C413 0.605 . S
C1560 C83 0.741 . S
C1577 C312 1.136 . S
C1596 C0 1.122 . S
C1613 C13 1.144 . S
C1632 C117 1.106 . S
C1649 C26 1.148 . S
C1668 C338 1.180 . S
C1685 C39 1.148 . S
C1704 C143 1.120 . S
C1721 C52 1.137 . S
C1740 C364 1.117 . S
C1757 C65 1.138 . S
C1776 C169 1.108 . S
C1793 C390 1.144 . S
C1812 C78 1.175 . S
C1829 C91 1.146 . S
C1848 C195 1.114 . S
C1865 C104 1.141 . S
C1884 C208 1.104 . S
C1901 C130 1.152 . S
C1920 C234 1.147 . S
C1937 C260 1.147 . S
C1956 C156 1.115 . S
C1973 C286 1.138 . S
C1992 C182 1.109 . S
C2009 C221 1.145 . S
C2028 C325 1.176 . S
C2045 C351 1.148 . S
C2064 C247 1.180 . S
C2081 C273 1.145 . S
C2100 C377 1.109 . S
C2117 C403 1.147 . S
C2136 C299 1.118 . S
C2153 C281 1.644 . S
C2172 C8 1.664 . S
C2189 C294 1.638 . S
C2208 C21 1.646 . S
C2225 C34 1.636 . S
C2244 C307 1.635 . S
C2261 C268 1.647 . S
C2280 C47 1.657 . S
C2297 C255 1.636 . S
C2316 C60 1.610 . S
C2333 C216 1.647 . S
C2352 C73 1.664 . S
C2369 C86 1.635 . S
C2388 C229 1.621 . S
C2405 C242 1.636 . S
C2424 C99 1.610 . S
C2441 C385 1.637 . S
C2460 C112 1.614 . S
C2477 C398 1.635 . S
C2496 C125 1.640 . S
C2513 C411 1.646 . S
C2532 C138 1.659 . S
C2549 C151 1.647 . S
C2568 C372 1.648 . S
C2585 C359 1.644 . S
C2604 C164 1.665 . S
C2621 C320 1.636 . S
C2640 C177 1.646 . S
C2657 C333 1.645 . S
C2676 C190 1.622 . S
C2693 C346 1.637 . S
C2712 C203 1.614 . S
