# Generated by pormake.
# Topology wnr, (7)-cn, num edge types: 1
# Building blocks:
#     Node 0, Type 0, BuildingBlock: NUHQUE_clean_sbu_2, # of connection points: 7
#     Node 1, Type 0, BuildingBlock: NUHQUE_clean_sbu_2, # of connection points: 7
#     Node 2, Type 0, BuildingBlock: NUHQUE_clean_sbu_2, # of connection points: 7
#     Node 3, Type 0, BuildingBlock: NUHQUE_clean_sbu_2, # of connection points: 7
#     Node 4, Type 0, BuildingBlock: NUHQUE_clean_sbu_2, # of connection points: 7
#     Node 5, Type 0, BuildingBlock: NUHQUE_clean_sbu_2, # of connection points: 7
#     Edge 6, Type (0, 0), BuildingBlock: KIFKEQ_clean_linker_1, # of connection points: 2
#     Edge 7, Type (0, 0), BuildingBlock: KIFKEQ_clean_linker_1, # of connection points: 2
#     Edge 8, Type (0, 0), BuildingBlock: KIFKEQ_clean_linker_1, # of connection points: 2
#     Edge 9, Type (0, 0), BuildingBlock: KIFKEQ_clean_linker_1, # of connection points: 2
#     Edge 10, Type (0, 0), BuildingBlock: KIFKEQ_clean_linker_1, # of connection points: 2
#     Edge 11, Type (0, 0), BuildingBlock: KIFKEQ_clean_linker_1, # of connection points: 2
#     Edge 12, Type (0, 0), BuildingBlock: KIFKEQ_clean_linker_1, # of connection points: 2
#     Edge 13, Type (0, 0), BuildingBlock: KIFKEQ_clean_linker_1, # of connection points: 2
#     Edge 14, Type (0, 0), BuildingBlock: KIFKEQ_clean_linker_1, # of connection points: 2
#     Edge 15, Type (0, 0), BuildingBlock: KIFKEQ_clean_linker_1, # of connection points: 2
#     Edge 16, Type (0, 0), BuildingBlock: KIFKEQ_clean_linker_1, # of connection points: 2
#     Edge 17, Type (0, 0), BuildingBlock: KIFKEQ_clean_linker_1, # of connection points: 2
#     Edge 18, Type (0, 0), BuildingBlock: KIFKEQ_clean_linker_1, # of connection points: 2
#     Edge 19, Type (0, 0), BuildingBlock: KIFKEQ_clean_linker_1, # of connection points: 2
#     Edge 20, Type (0, 0), BuildingBlock: KIFKEQ_clean_linker_1, # of connection points: 2
#     Edge 21, Type (0, 0), BuildingBlock: KIFKEQ_clean_linker_1, # of connection points: 2
#     Edge 22, Type (0, 0), BuildingBlock: KIFKEQ_clean_linker_1, # of connection points: 2
#     Edge 23, Type (0, 0), BuildingBlock: KIFKEQ_clean_linker_1, # of connection points: 2
#     Edge 24, Type (0, 0), BuildingBlock: KIFKEQ_clean_linker_1, # of connection points: 2
#     Edge 25, Type (0, 0), BuildingBlock: KIFKEQ_clean_linker_1, # of connection points: 2
#     Edge 26, Type (0, 0), BuildingBlock: KIFKEQ_clean_linker_1, # of connection points: 2
# Relax obj value: 0.187
# Max RMSD: 0.215
# Mean RMSD: 0.215
data_MOF--net-wnr--node1-NUHQUE_clean_sbu_2--edge1-KIFKEQ_clean_linker_1
_symmetry_space_group_name_H-M    P1
_symmetry_Int_Tables_number       1
_symmetry_cell_setting            triclinic
loop_
_symmetry_equiv_pos_as_xyz
'x, y, z'
_cell_length_a     46.551347
_cell_length_b     46.635291
_cell_length_c     18.374775
_cell_angle_alpha  90.110638
_cell_angle_beta   89.670483
_cell_angle_gamma 120.04481
loop_
_atom_site_label
_atom_site_type_symbol
_atom_site_fract_x
_atom_site_fract_y
_atom_site_fract_z
_atom_type_partial_charge
O0 O 0.26886 0.45389 0.88776 0.0
Tb1 Tb 0.29577 0.47988 0.98555 0.0
Eu2 Eu 0.25349 0.4294 0.14186 0.0
C3 C 0.2783 0.43568 0.8511 0.0
O4 O 0.30047 0.42971 0.88015 0.0
C5 C 0.3146 0.42729 0.05925 0.0
O6 O 0.24775 0.42195 0.26359 0.0
C7 C 0.1957 0.39583 0.08146 0.0
C8 C 0.27328 0.42758 0.30397 0.0
O9 O 0.30189 0.43664 0.272 0.0
C10 C 0.26339 0.49964 0.10891 0.0
C11 C 0.16274 0.39326 0.07944 0.0
C12 C 0.14697 0.38825 0.01175 0.0
C13 C 0.1149 0.38375 0.00768 0.0
C14 C 0.09883 0.38467 0.07124 0.0
C15 C 0.11334 0.38815 0.13943 0.0
C16 C 0.14552 0.39261 0.14366 0.0
O17 O 0.32111 0.45291 0.01739 0.0
O18 O 0.28998 0.41388 0.1067 0.0
O19 O 0.325 0.51444 0.89874 0.0
O20 O 0.33708 0.52986 0.00838 0.0
C21 C 0.34485 0.53868 0.9407 0.0
O22 O 0.26979 0.48311 0.1575 0.0
O23 O 0.26075 0.49133 0.03976 0.0
O24 O 0.20385 0.38668 0.14192 0.0
O25 O 0.22063 0.42195 0.05049 0.0
H26 H 0.15918 0.38681 0.96258 0.0
H27 H 0.07337 0.37943 0.06808 0.0
H28 H 0.15661 0.39466 0.19651 0.0
O29 O 0.56217 0.79847 0.53582 0.0
Tb30 Tb 0.54985 0.81441 0.63636 0.0
Eu31 Eu 0.59518 0.82681 0.7954 0.0
C32 C 0.59126 0.81559 0.50374 0.0
O33 O 0.61559 0.84053 0.53825 0.0
C34 C 0.60216 0.88609 0.6975 0.0
O35 O 0.60378 0.82732 0.91575 0.0
C36 C 0.63438 0.80977 0.73226 0.0
C37 C 0.58129 0.82564 0.96175 0.0
O38 O 0.55483 0.82536 0.9363 0.0
C39 C 0.52738 0.76171 0.7621 0.0
C40 C 0.64317 0.78363 0.74318 0.0
C41 C 0.65061 0.76997 0.68227 0.0
C42 C 0.66075 0.74644 0.69208 0.0
C43 C 0.66151 0.73541 0.76225 0.0
C44 C 0.65568 0.74957 0.82319 0.0
C45 C 0.64641 0.77372 0.81404 0.0
O46 O 0.59161 0.86546 0.64194 0.0
O47 O 0.59979 0.87553 0.76466 0.0
O48 O 0.51489 0.81483 0.55858 0.0
O49 O 0.50528 0.81596 0.67132 0.0
C50 C 0.49435 0.81543 0.60578 0.0
O51 O 0.5435 0.78455 0.81122 0.0
O52 O 0.53464 0.76746 0.6923 0.0
O53 O 0.64414 0.83255 0.78324 0.0
O54 O 0.60432 0.80023 0.7083 0.0
H55 H 0.64994 0.77867 0.62799 0.0
H56 H 0.66906 0.71705 0.77003 0.0
H57 H 0.64244 0.78512 0.86158 0.0
O58 O 0.20975 0.75567 0.21871 0.0
Tb59 Tb 0.21684 0.73522 0.31953 0.0
Eu60 Eu 0.2098 0.78546 0.47013 0.0
C61 C 0.18428 0.73628 0.17715 0.0
O62 O 0.16222 0.70704 0.20256 0.0
C63 C 0.14828 0.7254 0.38184 0.0
O64 O 0.20069 0.78381 0.59186 0.0
C65 C 0.24052 0.84702 0.42892 0.0
C66 C 0.1898 0.75604 0.62868 0.0
O67 O 0.18259 0.72883 0.59293 0.0
C68 C 0.26834 0.77133 0.44227 0.0
C69 C 0.27006 0.87912 0.44731 0.0
C70 C 0.28761 0.90177 0.39089 0.0
C71 C 0.31396 0.9336 0.40719 0.0
C72 C 0.324 0.94161 0.47942 0.0
C73 C 0.30574 0.92041 0.5363 0.0
C74 C 0.27872 0.88897 0.52046 0.0
O75 O 0.1663 0.71179 0.36387 0.0
O76 O 0.16101 0.75495 0.412 0.0
O77 O 0.23103 0.71036 0.23766 0.0
O78 O 0.217 0.68907 0.34271 0.0
C79 C 0.22678 0.68579 0.2783 0.0
O80 O 0.24554 0.76718 0.49012 0.0
O81 O 0.26289 0.77149 0.37207 0.0
O82 O 0.21623 0.83471 0.47701 0.0
O83 O 0.24559 0.82443 0.39797 0.0
H84 H 0.27947 0.89534 0.33505 0.0
H85 H 0.34442 0.96613 0.49214 0.0
H86 H 0.26401 0.87285 0.56467 0.0
O87 O 0.47302 0.26131 0.14628 0.0
Tb88 Tb 0.49615 0.2883 0.04596 0.0
Eu89 Eu 0.44493 0.24641 0.89044 0.0
C90 C 0.44993 0.26497 0.17967 0.0
O91 O 0.43718 0.28081 0.14616 0.0
C92 C 0.44181 0.30613 0.97618 0.0
O93 O 0.43766 0.23951 0.76896 0.0
C94 C 0.41144 0.18905 0.95333 0.0
C95 C 0.44107 0.26393 0.72732 0.0
O96 O 0.44764 0.29206 0.75787 0.0
C97 C 0.51571 0.25683 0.91996 0.0
C98 C 0.40734 0.15541 0.95402 0.0
C99 C 0.40988 0.1421 0.02088 0.0
C100 C 0.40334 0.10931 0.02497 0.0
C101 C 0.39423 0.08989 0.96221 0.0
C102 C 0.39002 0.10199 0.89626 0.0
C103 C 0.39714 0.13499 0.89141 0.0
O104 O 0.46612 0.31125 0.02087 0.0
O105 O 0.43021 0.28348 0.92456 0.0
O106 O 0.53244 0.31844 0.1287 0.0
O107 O 0.54465 0.3311 0.0176 0.0
C108 C 0.55515 0.33904 0.08416 0.0
O109 O 0.49876 0.26336 0.87285 0.0
O110 O 0.50807 0.25407 0.98967 0.0
O111 O 0.40107 0.19767 0.89539 0.0
O112 O 0.43889 0.21346 0.981 0.0
H113 H 0.41573 0.1568 0.07011 0.0
H114 H 0.38766 0.06407 0.96586 0.0
H115 H 0.39329 0.14406 0.84026 0.0
O116 O 0.7676 0.19968 0.77793 0.0
Tb117 Tb 0.74461 0.20524 0.67983 0.0
Eu118 Eu 0.7909 0.19751 0.52631 0.0
C119 C 0.74994 0.17362 0.81969 0.0
O120 O 0.72097 0.15036 0.79597 0.0
C121 C 0.7289 0.13472 0.60978 0.0
O122 O 0.79326 0.19227 0.40437 0.0
C123 C 0.85022 0.22291 0.57951 0.0
C124 C 0.7657 0.17739 0.36644 0.0
O125 O 0.73718 0.16483 0.40119 0.0
C126 C 0.77914 0.2573 0.55606 0.0
C127 C 0.88405 0.25185 0.57434 0.0
C128 C 0.90405 0.26149 0.63695 0.0
C129 C 0.93748 0.2863 0.63241 0.0
C130 C 0.95035 0.30258 0.5665 0.0
C131 C 0.93117 0.29323 0.50352 0.0
C132 C 0.8979 0.26754 0.50704 0.0
O133 O 0.71906 0.15351 0.64316 0.0
O134 O 0.75614 0.14645 0.56994 0.0
O135 O 0.72134 0.21931 0.7658 0.0
O136 O 0.69872 0.20675 0.66203 0.0
C137 C 0.69649 0.21604 0.72768 0.0
O138 O 0.7748 0.23492 0.50736 0.0
O139 O 0.78012 0.25148 0.62581 0.0
O140 O 0.83981 0.20276 0.52337 0.0
O141 O 0.82695 0.2272 0.60991 0.0
H142 H 0.89413 0.24856 0.68804 0.0
H143 H 0.97636 0.32158 0.56333 0.0
H144 H 0.88325 0.25938 0.45779 0.0
O145 O 0.8372 0.5692 0.45421 0.0
Tb146 Tb 0.8339 0.54329 0.35245 0.0
Eu147 Eu 0.83701 0.60076 0.20343 0.0
C148 C 0.86424 0.5805 0.49399 0.0
O149 O 0.88991 0.5797 0.46621 0.0
C150 C 0.90012 0.60168 0.28268 0.0
O151 O 0.84427 0.60705 0.08099 0.0
C152 C 0.80944 0.63406 0.24962 0.0
C153 C 0.85746 0.59227 0.04385 0.0
O154 O 0.86788 0.57481 0.07943 0.0
C155 C 0.77889 0.52817 0.23952 0.0
C156 C 0.78002 0.63841 0.24537 0.0
C157 C 0.76445 0.63889 0.31095 0.0
C158 C 0.73893 0.64661 0.31105 0.0
C159 C 0.72854 0.65322 0.24536 0.0
C160 C 0.74485 0.65484 0.18024 0.0
C161 C 0.77038 0.64699 0.17967 0.0
O162 O 0.88235 0.56978 0.2981 0.0
O163 O 0.88699 0.61877 0.25602 0.0
O164 O 0.8345 0.50902 0.43307 0.0
O165 O 0.81977 0.49185 0.32563 0.0
C166 C 0.8244 0.48364 0.39031 0.0
O167 O 0.79982 0.54674 0.18853 0.0
O168 O 0.78652 0.53419 0.30892 0.0
O169 O 0.8295 0.6429 0.19301 0.0
O170 O 0.80621 0.60775 0.28368 0.0
H171 H 0.77334 0.63499 0.36234 0.0
H172 H 0.70991 0.66074 0.24583 0.0
H173 H 0.78362 0.64921 0.1294 0.0
H174 H 0.08153 0.41065 0.94294 0.0
H175 H 0.10176 0.33015 0.9257 0.0
H176 H 0.03701 0.38365 0.85414 0.0
H177 H 0.05678 0.30261 0.83811 0.0
H178 H 0.99221 0.28048 0.63252 0.0
H179 H 0.03799 0.30521 0.71825 0.0
H180 H 0.98156 0.33525 0.85417 0.0
H181 H 0.93598 0.31117 0.76625 0.0
C182 C 0.0769 0.38755 0.91855 0.0
C183 C 0.0951 0.37252 0.9405 0.0
C184 C 0.05107 0.37178 0.8689 0.0
C185 C 0.04283 0.3406 0.84052 0.0
C186 C 0.0625 0.32662 0.85898 0.0
C187 C 0.08848 0.34251 0.90847 0.0
C188 C 0.98942 0.29179 0.68163 0.0
C189 C 0.9608 0.29412 0.69309 0.0
C190 C 1.01561 0.30597 0.73065 0.0
C191 C 1.01367 0.32271 0.79233 0.0
C192 C 0.98407 0.32317 0.80614 0.0
C193 C 0.95778 0.30896 0.75676 0.0
H194 H 0.77745 0.69387 0.40718 0.0
H195 H 0.67556 0.62168 0.36132 0.0
H196 H 0.75934 0.72041 0.49532 0.0
H197 H 0.65697 0.64701 0.45298 0.0
H198 H 0.63288 0.72089 0.55858 0.0
H199 H 0.65215 0.69479 0.46969 0.0
H200 H 0.73622 0.71799 0.60716 0.0
H201 H 0.71841 0.74583 0.69145 0.0
C202 C 0.75114 0.6828 0.41863 0.0
C203 C 0.72789 0.65551 0.37846 0.0
C204 C 0.74063 0.69814 0.46882 0.0
C205 C 0.70657 0.68615 0.48096 0.0
C206 C 0.68334 0.65747 0.4438 0.0
C207 C 0.69392 0.64248 0.39256 0.0
C208 C 0.65587 0.72102 0.56832 0.0
C209 C 0.67395 0.73501 0.63209 0.0
C210 C 0.66664 0.70557 0.51832 0.0
C211 C 0.69554 0.70375 0.53164 0.0
C212 C 0.7141 0.71903 0.59427 0.0
C213 C 0.7037 0.73481 0.64312 0.0
H214 H 0.33575 0.9325 0.26785 0.0
H215 H 0.32436 0.99585 0.42308 0.0
H216 H 0.36208 0.97911 0.18232 0.0
H217 H 0.3522 0.04235 0.34078 0.0
H218 H 0.36338 0.10446 0.13733 0.0
H219 H 0.34259 0.0622 0.23171 0.0
H220 H 0.41216 0.03166 0.16245 0.0
H221 H 0.43218 0.07355 0.06635 0.0
C222 C 0.33896 0.95632 0.28366 0.0
C223 C 0.32844 0.96061 0.35242 0.0
C224 C 0.35446 0.98313 0.23534 0.0
C225 C 0.35961 1.01462 0.25508 0.0
C226 C 0.34853 1.01854 0.32347 0.0
C227 C 0.33287 0.99186 0.37104 0.0
C228 C 0.3751 0.08959 0.14425 0.0
C229 C 0.39942 0.09228 0.09501 0.0
C230 C 0.36301 0.06511 0.19792 0.0
C231 C 0.37529 0.04307 0.2038 0.0
C232 C 0.40159 0.04765 0.15817 0.0
C233 C 0.41349 0.07199 0.10414 0.0
H234 H 0.27178 0.52608 0.24527 0.0
H235 H 0.24165 0.53444 0.02808 0.0
H236 H 0.26297 0.57076 0.28578 0.0
H237 H 0.23175 0.57853 0.06921 0.0
H238 H 0.25116 0.67971 0.14795 0.0
H239 H 0.25987 0.63486 0.10703 0.0
H240 H 0.22125 0.58443 0.31217 0.0
H241 H 0.21367 0.63004 0.35369 0.0
C242 C 0.26301 0.53728 0.20617 0.0
C243 C 0.25745 0.52663 0.13331 0.0
C244 C 0.25773 0.56283 0.22962 0.0
C245 C 0.24655 0.57835 0.18097 0.0
C246 C 0.24083 0.56756 0.10808 0.0
C247 C 0.24632 0.5421 0.0845 0.0
C248 C 0.24462 0.65904 0.18428 0.0
C249 C 0.23184 0.65838 0.25406 0.0
C250 C 0.24935 0.63316 0.16064 0.0
C251 C 0.24122 0.60584 0.20609 0.0
C252 C 0.22828 0.60523 0.27598 0.0
C253 C 0.22375 0.63127 0.29976 0.0
H254 H 0.37142 0.55428 0.80464 0.0
H255 H 0.37909 0.59586 0.01834 0.0
H256 H 0.41632 0.60727 0.76111 0.0
H257 H 0.42274 0.64958 0.97434 0.0
H258 H 0.52083 0.73406 0.89616 0.0
H259 H 0.47781 0.68003 0.93853 0.0
H260 H 0.43091 0.6608 0.72759 0.0
H261 H 0.47519 0.71427 0.68433 0.0
C262 C 0.3826 0.57496 0.84212 0.0
C263 C 0.37191 0.57102 0.91485 0.0
C264 C 0.4082 0.60549 0.81707 0.0
C265 C 0.42337 0.63304 0.86389 0.0
C266 C 0.4123 0.62894 0.93679 0.0
C267 C 0.38708 0.59821 0.96209 0.0
C268 C 0.50139 0.71819 0.85874 0.0
C269 C 0.50144 0.72841 0.78682 0.0
C270 C 0.47647 0.68722 0.88324 0.0
C271 C 0.4505 0.66582 0.83691 0.0
C272 C 0.45068 0.67615 0.76474 0.0
C273 C 0.476 0.70694 0.73985 0.0
H274 H 0.43939 0.79614 0.69214 0.0
H275 H 0.47685 0.82788 0.47443 0.0
H276 H 0.38469 0.78562 0.65403 0.0
H277 H 0.42312 0.81928 0.43688 0.0
H278 H 0.31599 0.76595 0.36625 0.0
H279 H 0.3702 0.77751 0.40828 0.0
H280 H 0.35074 0.80668 0.6181 0.0
H281 H 0.2958 0.79342 0.57675 0.0
C282 C 0.43604 0.80149 0.63651 0.0
C283 C 0.46227 0.81268 0.58618 0.0
C284 C 0.4047 0.79557 0.6145 0.0
C285 C 0.39906 0.80118 0.54185 0.0
C286 C 0.42595 0.81369 0.49262 0.0
C287 C 0.45698 0.81902 0.51433 0.0
C288 C 0.32332 0.77485 0.42134 0.0
C289 C 0.30156 0.77877 0.46802 0.0
C290 C 0.35461 0.78176 0.4455 0.0
C291 C 0.36532 0.79338 0.51673 0.0
C292 C 0.34342 0.79735 0.56334 0.0
C293 C 0.31189 0.78991 0.53947 0.0
H294 H 0.55062 0.23369 0.99612 0.0
H295 H 0.54089 0.2659 0.78201 0.0
H296 H 0.59347 0.22277 0.94975 0.0
H297 H 0.58427 0.25608 0.73636 0.0
H298 H 0.64009 0.20484 0.65805 0.0
H299 H 0.59588 0.21349 0.70555 0.0
H300 H 0.64941 0.2496 0.90749 0.0
H301 H 0.69286 0.2398 0.8606 0.0
C302 C 0.55774 0.23863 0.93931 0.0
C303 C 0.5422 0.25058 0.89285 0.0
C304 C 0.58247 0.23254 0.91271 0.0
C305 C 0.59241 0.23846 0.83909 0.0
C306 C 0.57693 0.2506 0.79294 0.0
C307 C 0.55212 0.25647 0.81936 0.0
C308 C 0.64229 0.21459 0.71258 0.0
C309 C 0.66987 0.22167 0.7556 0.0
C310 C 0.61707 0.21974 0.73979 0.0
C311 C 0.61898 0.23233 0.81051 0.0
C312 C 0.64673 0.2394 0.85333 0.0
C313 C 0.6718 0.23403 0.82626 0.0
H314 H 0.79452 0.28333 0.41843 0.0
H315 H 0.77891 0.30637 0.6377 0.0
H316 H 0.80616 0.33781 0.37809 0.0
H317 H 0.78921 0.36041 0.59698 0.0
H318 H 0.84099 0.46711 0.51882 0.0
H319 H 0.83081 0.41292 0.558 0.0
H320 H 0.78244 0.37096 0.3533 0.0
H321 H 0.79405 0.42571 0.31331 0.0
C322 C 0.79331 0.29994 0.45802 0.0
C323 C 0.78588 0.29046 0.53144 0.0
C324 C 0.79978 0.33121 0.43473 0.0
C325 C 0.79866 0.35378 0.48404 0.0
C326 C 0.79097 0.34411 0.55746 0.0
C327 C 0.78485 0.31296 0.58089 0.0
C328 C 0.8283 0.44629 0.48214 0.0
C329 C 0.81837 0.45062 0.41297 0.0
C330 C 0.82218 0.41508 0.50481 0.0
C331 C 0.8056 0.38724 0.45917 0.0
C332 C 0.79571 0.39175 0.38971 0.0
C333 C 0.80218 0.42311 0.36678 0.0
H334 H 0.57405 0.36445 0.22008 0.0
H335 H 0.60956 0.37632 0.99872 0.0
H336 H 0.62731 0.41056 0.25796 0.0
H337 H 0.66364 0.42137 0.03669 0.0
H338 H 0.74683 0.52112 0.11111 0.0
H339 H 0.69277 0.47627 0.07428 0.0
H340 H 0.68264 0.42747 0.28059 0.0
H341 H 0.7361 0.47337 0.31854 0.0
C342 C 0.59345 0.37683 0.17961 0.0
C343 C 0.58769 0.36692 0.10646 0.0
C344 C 0.62416 0.40314 0.20138 0.0
C345 C 0.65013 0.4199 0.15066 0.0
C346 C 0.64423 0.40965 0.07731 0.0
C347 C 0.61329 0.38365 0.05542 0.0
C348 C 0.73299 0.50084 0.1487 0.0
C349 C 0.74573 0.50085 0.21786 0.0
C350 C 0.70199 0.47489 0.12734 0.0
C351 C 0.68308 0.4479 0.17409 0.0
C352 C 0.696 0.44798 0.24337 0.0
C353 C 0.7268 0.47425 0.26517 0.0
H354 H 0.94315 0.26187 0.39321 0.0
H355 H 0.96222 0.35796 0.46422 0.0
H356 H 0.98956 0.28828 0.30723 0.0
H357 H 1.009 0.38454 0.3798 0.0
H358 H 0.07781 0.41795 0.17617 0.0
H359 H 1.02921 0.39511 0.2559 0.0
H360 H 0.04972 0.31867 0.32502 0.0
H361 H 0.09788 0.34118 0.24356 0.0
C362 C 0.95639 0.28861 0.38804 0.0
C363 C 0.94899 0.30791 0.43464 0.0
C364 C 0.98348 0.30379 0.34025 0.0
C365 C 1.0036 0.33854 0.33823 0.0
C366 C 0.99416 0.35777 0.38006 0.0
C367 C 0.96713 0.34258 0.42781 0.0
C368 C 0.07244 0.39687 0.21021 0.0
C369 C 0.09162 0.38137 0.20394 0.0
C370 C 0.04446 0.38361 0.25541 0.0
C371 C 0.03505 0.35453 0.29535 0.0
C372 C 0.05576 0.34055 0.2933 0.0
C373 C 0.0838 0.35386 0.24806 0.0
H374 H 0.76805 0.71994 0.16331 0.0
H375 H 0.70392 0.62524 0.06444 0.0
H376 H 0.74433 0.74552 0.08781 0.0
H377 H 0.68113 0.65095 0.98488 0.0
H378 H 0.62064 0.69395 0.90469 0.0
H379 H 0.64475 0.67193 0.99029 0.0
H380 H 0.73858 0.76355 0.97481 0.0
H381 H 0.7136 0.78572 0.89289 0.0
C382 C 0.74986 0.70496 0.12269 0.0
C383 C 0.73824 0.67082 0.1184 0.0
C384 C 0.736 0.71953 0.07969 0.0
C385 C 0.71032 0.70034 0.03068 0.0
C386 C 0.70019 0.66643 0.02334 0.0
C387 C 0.71378 0.65175 0.06739 0.0
C388 C 0.64588 0.70984 0.92295 0.0
C389 C 0.66507 0.74177 0.89381 0.0
C390 C 0.66007 0.69696 0.97027 0.0
C391 C 0.69399 0.71553 0.9882 0.0
C392 C 0.71241 0.74843 0.96294 0.0
C393 C 0.69802 0.76142 0.91659 0.0
H394 H 0.32612 0.05356 0.89123 0.0
H395 H 0.41874 0.09408 0.77384 0.0
H396 H 0.30273 1.00394 0.81578 0.0
H397 H 0.39518 0.04488 0.69584 0.0
H398 H 0.26526 0.93554 0.61183 0.0
H399 H 0.28405 0.98108 0.69822 0.0
H400 H 0.37995 0.98766 0.70726 0.0
H401 H 0.36117 0.94276 0.61876 0.0
C402 C 0.34098 0.05224 0.84715 0.0
C403 C 0.37398 0.07769 0.83726 0.0
C404 C 0.32773 0.02373 0.80431 0.0
C405 C 0.34722 0.02006 0.75055 0.0
C406 C 0.37973 0.0465 0.73804 0.0
C407 C 0.39305 0.07501 0.78135 0.0
C408 C 0.28977 0.94567 0.63517 0.0
C409 C 0.3117 0.93553 0.60927 0.0
C410 C 0.30078 0.97214 0.68391 0.0
C411 C 0.33389 0.98876 0.708 0.0
C412 C 0.35465 0.97615 0.68793 0.0
C413 C 0.34369 0.94986 0.63882 0.0
H414 H 0.32048 0.38375 0.15031 0.0
H415 H 0.35679 0.43579 0.94608 0.0
H416 H 0.35291 0.35627 0.1301 0.0
H417 H 0.38854 0.40784 0.92572 0.0
H418 H 0.40228 0.31613 0.88115 0.0
H419 H 0.37334 0.34704 0.90261 0.0
H420 H 0.41479 0.37226 0.11828 0.0
H421 H 0.44418 0.34191 0.09685 0.0
C422 C 0.33539 0.38944 0.10129 0.0
C423 C 0.33583 0.41196 0.04979 0.0
C424 C 0.35405 0.37376 0.08987 0.0
C425 C 0.37311 0.37976 0.02611 0.0
C426 C 0.37384 0.40247 0.97501 0.0
C427 C 0.35571 0.41861 0.98701 0.0
C428 C 0.40543 0.32842 0.933 0.0
C429 C 0.4256 0.32643 0.98722 0.0
C430 C 0.38892 0.34622 0.94517 0.0
C431 C 0.39169 0.36195 0.01226 0.0
C432 C 0.41197 0.36017 0.06629 0.0
C433 C 0.42896 0.3429 0.0537 0.0
H434 H 0.62018 0.9182 0.56573 0.0
H435 H 0.62337 0.93668 0.79688 0.0
H436 H 0.64907 0.97771 0.54255 0.0
H437 H 0.65247 0.99619 0.77353 0.0
H438 H 0.67531 0.09955 0.70073 0.0
H439 H 0.64387 0.03982 0.72048 0.0
H440 H 0.70431 0.02666 0.55986 0.0
H441 H 0.73571 0.08631 0.53966 0.0
C442 C 0.62699 0.93489 0.6117 0.0
C443 C 0.61942 0.92247 0.68328 0.0
C444 C 0.64374 0.96909 0.59834 0.0
C445 C 0.65316 0.99184 0.65612 0.0
C446 C 0.64529 0.97943 0.72763 0.0
C447 C 0.62876 0.94523 0.74105 0.0
C448 C 0.68186 0.084 0.6692 0.0
C449 C 0.70826 0.09802 0.61867 0.0
C450 C 0.66391 0.04968 0.68095 0.0
C451 C 0.6716 0.02835 0.64203 0.0
C452 C 0.69748 0.04226 0.59039 0.0
C453 C 0.71563 0.07659 0.57906 0.0
H454 H 0.93788 0.57577 0.33363 0.0
H455 H 0.94575 0.6672 0.25843 0.0
H456 H 0.99735 0.60493 0.35793 0.0
H457 H 1.00515 0.69612 0.28185 0.0
H458 H 0.10233 0.74466 0.40884 0.0
H459 H 0.04306 0.71439 0.38401 0.0
H460 H 0.05176 0.63276 0.29845 0.0
H461 H 0.11111 0.66285 0.32417 0.0
C462 C 0.95225 0.60201 0.32162 0.0
C463 C 0.93679 0.61902 0.29394 0.0
C464 C 0.98646 0.61873 0.33538 0.0
C465 C 1.00617 0.65297 0.32222 0.0
C466 C 0.99076 0.66988 0.29376 0.0
C467 C 0.95661 0.65316 0.27977 0.0
C468 C 0.09171 0.72021 0.385 0.0
C469 C 0.11174 0.7063 0.36871 0.0
C470 C 0.05763 0.70291 0.37021 0.0
C471 C 0.0425 0.67113 0.33883 0.0
C472 C 0.06243 0.65703 0.32326 0.0
C473 C 0.09658 0.67439 0.33782 0.0
H474 H 0.21999 0.4163 0.38947 0.0
H475 H 0.31997 0.43319 0.40106 0.0
H476 H 0.21622 0.41377 0.5225 0.0
H477 H 0.31629 0.43096 0.53321 0.0
H478 H 0.29261 0.39714 0.76381 0.0
H479 H 0.28774 0.39167 0.63214 0.0
H480 H 0.24077 0.4514 0.62873 0.0
H481 H 0.24532 0.45664 0.76128 0.0
C482 C 0.2411 0.41933 0.42028 0.0
C483 C 0.27029 0.42492 0.38452 0.0
C484 C 0.23897 0.41804 0.49651 0.0
C485 C 0.26587 0.42199 0.53857 0.0
C486 C 0.29488 0.42726 0.50258 0.0
C487 C 0.29708 0.42876 0.42666 0.0
C488 C 0.28073 0.4087 0.7353 0.0
C489 C 0.26967 0.42763 0.77317 0.0
C490 C 0.27816 0.40574 0.65963 0.0
C491 C 0.26443 0.42159 0.61968 0.0
C492 C 0.25144 0.43882 0.65785 0.0
C493 C 0.25406 0.44184 0.73386 0.0
H494 H 0.5446 0.7683 0.41541 0.0
H495 H 0.64351 0.85364 0.41254 0.0
H496 H 0.54405 0.76813 0.28296 0.0
H497 H 0.64273 0.85354 0.27968 0.0
H498 H 0.63445 0.82937 0.03389 0.0
H499 H 0.63927 0.82276 0.1646 0.0
H500 H 0.54074 0.8077 0.19815 0.0
H501 H 0.53581 0.8141 0.0683 0.0
C502 C 0.56648 0.78667 0.38661 0.0
C503 C 0.59391 0.81131 0.42461 0.0
C504 C 0.56605 0.78667 0.31069 0.0
C505 C 0.59307 0.81122 0.27106 0.0
C506 C 0.62153 0.83432 0.3088 0.0
C507 C 0.62195 0.83438 0.38494 0.0
C508 C 0.61384 0.82464 0.06926 0.0
C509 C 0.58476 0.82232 0.04078 0.0
C510 C 0.61664 0.82089 0.14401 0.0
C511 C 0.59028 0.8144 0.19146 0.0
C512 C 0.56125 0.81207 0.1628 0.0
C513 C 0.55855 0.81606 0.08841 0.0
H514 H 0.21077 0.80868 0.72308 0.0
H515 H 0.16333 0.70196 0.718 0.0
H516 H 0.20812 0.80706 0.85638 0.0
H517 H 0.16101 0.70039 0.85022 0.0
H518 H 0.13325 0.70274 0.08258 0.0
H519 H 0.13322 0.70981 0.95151 0.0
H520 H 0.23252 0.79392 0.96199 0.0
H521 H 0.23241 0.78707 0.09419 0.0
C522 C 0.19963 0.78488 0.75025 0.0
C523 C 0.18718 0.75544 0.70961 0.0
C524 C 0.19831 0.78398 0.82672 0.0
C525 C 0.18422 0.75359 0.86431 0.0
C526 C 0.17155 0.72423 0.82337 0.0
C527 C 0.17306 0.72514 0.74728 0.0
C528 C 0.15499 0.72305 0.0573 0.0
C529 C 0.18296 0.74416 0.09912 0.0
C530 C 0.15504 0.72696 0.98184 0.0
C531 C 0.18307 0.75209 0.94572 0.0
C532 C 0.21046 0.77435 0.98791 0.0
C533 C 0.21041 0.77041 0.06378 0.0
H534 H 0.44142 0.30749 0.62777 0.0
H535 H 0.43604 0.21252 0.6446 0.0
H536 H 0.44 0.30304 0.49568 0.0
H537 H 0.43443 0.20802 0.51174 0.0
H538 H 0.47753 0.23949 0.27302 0.0
H539 H 0.47242 0.23593 0.40573 0.0
H540 H 0.40182 0.27017 0.39722 0.0
H541 H 0.40696 0.27391 0.26528 0.0
C542 C 0.43971 0.28554 0.60335 0.0
C543 C 0.43884 0.26037 0.6469 0.0
C544 C 0.43868 0.28289 0.5275 0.0
C545 C 0.43695 0.25509 0.49309 0.0
C546 C 0.43596 0.22982 0.53656 0.0
C547 C 0.43671 0.23235 0.61267 0.0
C548 C 0.46047 0.24567 0.29936 0.0
C549 C 0.44291 0.25728 0.25841 0.0
C550 C 0.45751 0.24359 0.37545 0.0
C551 C 0.43708 0.25324 0.41212 0.0
C552 C 0.41825 0.26315 0.37077 0.0
C553 C 0.42105 0.26507 0.29496 0.0
H554 H 0.81995 0.20603 0.27479 0.0
H555 H 0.7131 0.14519 0.27489 0.0
H556 H 0.82031 0.20417 0.14152 0.0
H557 H 0.71344 0.14372 0.14276 0.0
H558 H 0.72251 0.12081 0.91174 0.0
H559 H 0.72946 0.12077 0.04278 0.0
H560 H 0.80335 0.22472 0.03527 0.0
H561 H 0.79675 0.22461 0.9031 0.0
C562 C 0.79657 0.19217 0.24651 0.0
C563 C 0.76649 0.17569 0.28567 0.0
C564 C 0.79678 0.19126 0.17011 0.0
C565 C 0.76694 0.17363 0.13124 0.0
C566 C 0.73697 0.15704 0.17071 0.0
C567 C 0.73675 0.15808 0.24672 0.0
C568 C 0.74065 0.14359 0.9377 0.0
C569 C 0.75883 0.1728 0.8969 0.0
C570 C 0.74446 0.14361 0.01307 0.0
C571 C 0.76648 0.17289 0.04995 0.0
C572 C 0.7862 0.20171 0.00867 0.0
C573 C 0.78242 0.20166 0.93286 0.0
H574 H 0.8124 0.57469 0.57856 0.0
H575 H 0.91614 0.60372 0.58853 0.0
H576 H 0.81139 0.58036 0.71101 0.0
H577 H 0.91517 0.60959 0.71994 0.0
H578 H 0.88907 0.57014 0.95361 0.0
H579 H 0.89104 0.57091 0.82125 0.0
H580 H 0.83231 0.61896 0.8167 0.0
H581 H 0.83014 0.61801 0.95004 0.0
C582 C 0.83511 0.58283 0.60868 0.0
C583 C 0.86426 0.58847 0.57267 0.0
C584 C 0.83455 0.58612 0.6847 0.0
C585 C 0.86309 0.59498 0.72649 0.0
C586 C 0.89254 0.60206 0.68988 0.0
C587 C 0.89313 0.59889 0.6142 0.0
C588 C 0.87667 0.58104 0.92465 0.0
C589 C 0.8595 0.59406 0.9628 0.0
C590 C 0.87797 0.58166 0.84849 0.0
C591 C 0.86197 0.59515 0.80797 0.0
C592 C 0.84475 0.6082 0.84603 0.0
C593 C 0.84368 0.60783 0.92253 0.0
loop_
_geom_bond_atom_site_label_1
_geom_bond_atom_site_label_2
_geom_bond_distance
_geom_bond_site_symmetry_2
_ccdc_geom_bond_type
O0 Tb1 2.292 . S
O0 C3 1.255 . S
Tb1 O0 2.292 . S
Tb1 O17 2.326 1_556 S
Tb1 O19 2.500 . S
Tb1 O20 2.473 1_556 S
Tb1 O23 2.324 1_556 S
Eu2 O6 2.292 . S
Eu2 C7 2.852 . S
Eu2 O18 2.324 . S
Eu2 O22 2.326 . S
Eu2 O24 2.500 . S
Eu2 O25 2.473 . S
C3 O0 1.255 . S
C3 O4 1.247 . S
O4 C3 1.247 . S
C5 O17 1.242 . S
C5 O18 1.258 . S
O6 Eu2 2.292 . S
O6 C8 1.255 . S
C7 Eu2 2.852 . S
C7 C11 1.503 . S
C7 O24 1.273 . S
C7 O25 1.257 . S
C8 O6 1.255 . S
C8 O9 1.247 . S
O9 C8 1.247 . S
C10 O22 1.242 . S
C10 O23 1.258 . S
C11 C7 1.503 . S
C11 C12 1.379 . S
C11 C16 1.392 . S
C12 C11 1.379 . S
C12 C13 1.404 . S
C12 H26 0.929 . S
C13 C12 1.404 . S
C13 C14 1.389 . S
C14 C13 1.389 . S
C14 C15 1.399 . S
C14 H27 0.931 . S
C15 C14 1.399 . S
C15 C16 1.390 . S
C16 C11 1.392 . S
C16 C15 1.390 . S
C16 H28 0.929 . S
O17 Tb1 2.326 1_554 S
O17 C5 1.242 . S
O18 Eu2 2.324 . S
O18 C5 1.258 . S
O19 Tb1 2.500 . S
O19 C21 1.273 1_556 S
O20 Tb1 2.473 1_554 S
O20 C21 1.257 . S
C21 O19 1.273 1_554 S
C21 O20 1.257 . S
O22 Eu2 2.326 . S
O22 C10 1.242 . S
O23 Tb1 2.324 1_554 S
O23 C10 1.258 . S
O24 Eu2 2.500 . S
O24 C7 1.273 . S
O25 Eu2 2.473 . S
O25 C7 1.257 . S
H26 C12 0.929 . S
H27 C14 0.931 . S
H28 C16 0.929 . S
O29 Tb30 2.292 . S
O29 C32 1.255 . S
Tb30 O29 2.292 . S
Tb30 O46 2.326 . S
Tb30 O48 2.500 . S
Tb30 O49 2.473 . S
Tb30 O52 2.324 . S
Eu31 O35 2.292 . S
Eu31 C36 2.852 . S
Eu31 O47 2.324 . S
Eu31 O51 2.326 . S
Eu31 O53 2.500 . S
Eu31 O54 2.473 . S
C32 O29 1.255 . S
C32 O33 1.247 . S
O33 C32 1.247 . S
C34 O46 1.242 . S
C34 O47 1.258 . S
O35 Eu31 2.292 . S
O35 C37 1.255 1_556 S
C36 Eu31 2.852 . S
C36 C40 1.503 . S
C36 O53 1.273 . S
C36 O54 1.257 . S
C37 O35 1.255 1_554 S
C37 O38 1.247 1_554 S
O38 C37 1.247 1_556 S
C39 O51 1.242 . S
C39 O52 1.258 . S
C40 C36 1.503 . S
C40 C41 1.379 . S
C40 C45 1.392 . S
C41 C40 1.379 . S
C41 C42 1.404 . S
C41 H55 0.929 . S
C42 C41 1.404 . S
C42 C43 1.389 . S
C43 C42 1.389 . S
C43 C44 1.399 . S
C43 H56 0.931 . S
C44 C43 1.399 . S
C44 C45 1.390 . S
C45 C40 1.392 . S
C45 C44 1.390 . S
C45 H57 0.929 . S
O46 Tb30 2.326 . S
O46 C34 1.242 . S
O47 Eu31 2.324 . S
O47 C34 1.258 . S
O48 Tb30 2.500 . S
O48 C50 1.273 . S
O49 Tb30 2.473 . S
O49 C50 1.257 . S
C50 O48 1.273 . S
C50 O49 1.257 . S
O51 Eu31 2.326 . S
O51 C39 1.242 . S
O52 Tb30 2.324 . S
O52 C39 1.258 . S
O53 Eu31 2.500 . S
O53 C36 1.273 . S
O54 Eu31 2.473 . S
O54 C36 1.257 . S
H55 C41 0.929 . S
H56 C43 0.931 . S
H57 C45 0.929 . S
O58 Tb59 2.292 . S
O58 C61 1.255 . S
Tb59 O58 2.292 . S
Tb59 O75 2.326 . S
Tb59 O77 2.500 . S
Tb59 O78 2.473 . S
Tb59 O81 2.324 . S
Eu60 O64 2.292 . S
Eu60 C65 2.852 . S
Eu60 O76 2.324 . S
Eu60 O80 2.326 . S
Eu60 O82 2.500 . S
Eu60 O83 2.473 . S
C61 O58 1.255 . S
C61 O62 1.247 . S
O62 C61 1.247 . S
C63 O75 1.242 . S
C63 O76 1.258 . S
O64 Eu60 2.292 . S
O64 C66 1.255 . S
C65 Eu60 2.852 . S
C65 C69 1.503 . S
C65 O82 1.273 . S
C65 O83 1.257 . S
C66 O64 1.255 . S
C66 O67 1.247 . S
O67 C66 1.247 . S
C68 O80 1.242 . S
C68 O81 1.258 . S
C69 C65 1.503 . S
C69 C70 1.379 . S
C69 C74 1.392 . S
C70 C69 1.379 . S
C70 C71 1.404 . S
C70 H84 0.929 . S
C71 C70 1.404 . S
C71 C72 1.389 . S
C72 C71 1.389 . S
C72 C73 1.399 . S
C72 H85 0.931 . S
C73 C72 1.399 . S
C73 C74 1.390 . S
C74 C69 1.392 . S
C74 C73 1.390 . S
C74 H86 0.929 . S
O75 Tb59 2.326 . S
O75 C63 1.242 . S
O76 Eu60 2.324 . S
O76 C63 1.258 . S
O77 Tb59 2.500 . S
O77 C79 1.273 . S
O78 Tb59 2.473 . S
O78 C79 1.257 . S
C79 O77 1.273 . S
C79 O78 1.257 . S
O80 Eu60 2.326 . S
O80 C68 1.242 . S
O81 Tb59 2.324 . S
O81 C68 1.258 . S
O82 Eu60 2.500 . S
O82 C65 1.273 . S
O83 Eu60 2.473 . S
O83 C65 1.257 . S
H84 C70 0.929 . S
H85 C72 0.931 . S
H86 C74 0.929 . S
O87 Tb88 2.292 . S
O87 C90 1.255 . S
Tb88 O87 2.292 . S
Tb88 O104 2.326 1_554 S
Tb88 O106 2.500 . S
Tb88 O107 2.473 1_554 S
Tb88 O110 2.324 1_554 S
Eu89 O93 2.292 . S
Eu89 C94 2.852 . S
Eu89 O105 2.324 . S
Eu89 O109 2.326 . S
Eu89 O111 2.500 . S
Eu89 O112 2.473 . S
C90 O87 1.255 . S
C90 O91 1.247 . S
O91 C90 1.247 . S
C92 O104 1.242 . S
C92 O105 1.258 . S
O93 Eu89 2.292 . S
O93 C95 1.255 . S
C94 Eu89 2.852 . S
C94 C98 1.503 . S
C94 O111 1.273 . S
C94 O112 1.257 . S
C95 O93 1.255 . S
C95 O96 1.247 . S
O96 C95 1.247 . S
C97 O109 1.242 . S
C97 O110 1.258 . S
C98 C94 1.503 . S
C98 C99 1.379 . S
C98 C103 1.392 . S
C99 C98 1.379 . S
C99 C100 1.404 . S
C99 H113 0.929 . S
C100 C99 1.404 . S
C100 C101 1.389 . S
C101 C100 1.389 . S
C101 C102 1.399 . S
C101 H114 0.931 . S
C102 C101 1.399 . S
C102 C103 1.390 . S
C103 C98 1.392 . S
C103 C102 1.390 . S
C103 H115 0.929 . S
O104 Tb88 2.326 1_556 S
O104 C92 1.242 . S
O105 Eu89 2.324 . S
O105 C92 1.258 . S
O106 Tb88 2.500 . S
O106 C108 1.273 1_554 S
O107 Tb88 2.473 1_556 S
O107 C108 1.257 . S
C108 O106 1.273 1_556 S
C108 O107 1.257 . S
O109 Eu89 2.326 . S
O109 C97 1.242 . S
O110 Tb88 2.324 1_556 S
O110 C97 1.258 . S
O111 Eu89 2.500 . S
O111 C94 1.273 . S
O112 Eu89 2.473 . S
O112 C94 1.257 . S
H113 C99 0.929 . S
H114 C101 0.931 . S
H115 C103 0.929 . S
O116 Tb117 2.292 . S
O116 C119 1.255 . S
Tb117 O116 2.292 . S
Tb117 O133 2.326 . S
Tb117 O135 2.500 . S
Tb117 O136 2.473 . S
Tb117 O139 2.324 . S
Eu118 O122 2.292 . S
Eu118 C123 2.852 . S
Eu118 O134 2.324 . S
Eu118 O138 2.326 . S
Eu118 O140 2.500 . S
Eu118 O141 2.473 . S
C119 O116 1.255 . S
C119 O120 1.247 . S
O120 C119 1.247 . S
C121 O133 1.242 . S
C121 O134 1.258 . S
O122 Eu118 2.292 . S
O122 C124 1.255 . S
C123 Eu118 2.852 . S
C123 C127 1.503 . S
C123 O140 1.273 . S
C123 O141 1.257 . S
C124 O122 1.255 . S
C124 O125 1.247 . S
O125 C124 1.247 . S
C126 O138 1.242 . S
C126 O139 1.258 . S
C127 C123 1.503 . S
C127 C128 1.379 . S
C127 C132 1.392 . S
C128 C127 1.379 . S
C128 C129 1.404 . S
C128 H142 0.929 . S
C129 C128 1.404 . S
C129 C130 1.389 . S
C130 C129 1.389 . S
C130 C131 1.399 . S
C130 H143 0.931 . S
C131 C130 1.399 . S
C131 C132 1.390 . S
C132 C127 1.392 . S
C132 C131 1.390 . S
C132 H144 0.929 . S
O133 Tb117 2.326 . S
O133 C121 1.242 . S
O134 Eu118 2.324 . S
O134 C121 1.258 . S
O135 Tb117 2.500 . S
O135 C137 1.273 . S
O136 Tb117 2.473 . S
O136 C137 1.257 . S
C137 O135 1.273 . S
C137 O136 1.257 . S
O138 Eu118 2.326 . S
O138 C126 1.242 . S
O139 Tb117 2.324 . S
O139 C126 1.258 . S
O140 Eu118 2.500 . S
O140 C123 1.273 . S
O141 Eu118 2.473 . S
O141 C123 1.257 . S
H142 C128 0.929 . S
H143 C130 0.931 . S
H144 C132 0.929 . S
O145 Tb146 2.292 . S
O145 C148 1.255 . S
Tb146 O145 2.292 . S
Tb146 O162 2.326 . S
Tb146 O164 2.500 . S
Tb146 O165 2.473 . S
Tb146 O168 2.324 . S
Eu147 O151 2.292 . S
Eu147 C152 2.852 . S
Eu147 O163 2.324 . S
Eu147 O167 2.326 . S
Eu147 O169 2.500 . S
Eu147 O170 2.473 . S
C148 O145 1.255 . S
C148 O149 1.247 . S
O149 C148 1.247 . S
C150 O162 1.242 . S
C150 O163 1.258 . S
O151 Eu147 2.292 . S
O151 C153 1.255 1_554 S
C152 Eu147 2.852 . S
C152 C156 1.503 . S
C152 O169 1.273 . S
C152 O170 1.257 . S
C153 O151 1.255 1_556 S
C153 O154 1.247 1_556 S
O154 C153 1.247 1_554 S
C155 O167 1.242 . S
C155 O168 1.258 . S
C156 C152 1.503 . S
C156 C157 1.379 . S
C156 C161 1.392 . S
C157 C156 1.379 . S
C157 C158 1.404 . S
C157 H171 0.929 . S
C158 C157 1.404 . S
C158 C159 1.389 . S
C159 C158 1.389 . S
C159 C160 1.399 . S
C159 H172 0.931 . S
C160 C159 1.399 . S
C160 C161 1.390 . S
C161 C156 1.392 . S
C161 C160 1.390 . S
C161 H173 0.929 . S
O162 Tb146 2.326 . S
O162 C150 1.242 . S
O163 Eu147 2.324 . S
O163 C150 1.258 . S
O164 Tb146 2.500 . S
O164 C166 1.273 . S
O165 Tb146 2.473 . S
O165 C166 1.257 . S
C166 O164 1.273 . S
C166 O165 1.257 . S
O167 Eu147 2.326 . S
O167 C155 1.242 . S
O168 Tb146 2.324 . S
O168 C155 1.258 . S
O169 Eu147 2.500 . S
O169 C152 1.273 . S
O170 Eu147 2.473 . S
O170 C152 1.257 . S
H171 C157 0.929 . S
H172 C159 0.931 . S
H173 C161 0.929 . S
H174 C182 0.950 . S
H175 C187 0.950 . S
H176 C184 0.914 1_655 S
H177 C186 0.950 . S
H178 C188 0.950 . S
H179 C190 0.950 . S
H180 C192 0.950 . S
H181 C193 0.950 . S
C182 H174 0.950 . S
C182 C183 1.386 . S
C182 C184 1.391 . S
C183 C182 1.386 . S
C183 C187 1.393 . S
C184 H176 0.914 1_455 S
C184 C182 1.391 . S
C184 C185 1.400 . S
C185 C184 1.400 . S
C185 C186 1.398 . S
C185 C191 1.491 1_455 S
C186 H177 0.950 . S
C186 C185 1.398 . S
C186 C187 1.391 . S
C187 H175 0.950 . S
C187 C183 1.393 . S
C187 C186 1.391 . S
C188 H178 0.950 . S
C188 C189 1.386 . S
C188 C190 1.391 . S
C189 C188 1.386 . S
C189 C193 1.393 . S
C190 H179 0.950 . S
C190 C188 1.391 . S
C190 C191 1.400 . S
C191 C185 1.491 1_655 S
C191 C190 1.400 . S
C191 C192 1.398 . S
C192 H180 0.950 . S
C192 C191 1.398 . S
C192 C193 1.391 . S
C193 H181 0.950 . S
C193 C189 1.393 . S
C193 C192 1.391 . S
H194 C202 0.950 . S
H195 C207 0.950 . S
H196 C204 0.950 . S
H197 C206 0.950 . S
H198 C208 0.950 . S
H199 C210 0.950 . S
H200 C212 0.950 . S
H201 C213 0.950 . S
C202 H194 0.950 . S
C202 C203 1.386 . S
C202 C204 1.391 . S
C203 C202 1.386 . S
C203 C207 1.393 . S
C204 H196 0.950 . S
C204 C202 1.391 . S
C204 C205 1.400 . S
C205 C204 1.400 . S
C205 C206 1.398 . S
C205 C211 1.491 . S
C206 H197 0.950 . S
C206 C205 1.398 . S
C206 C207 1.391 . S
C207 H195 0.950 . S
C207 C203 1.393 . S
C207 C206 1.391 . S
C208 H198 0.950 . S
C208 C209 1.386 . S
C208 C210 1.391 . S
C209 C208 1.386 . S
C209 C213 1.393 . S
C210 H199 0.950 . S
C210 C208 1.391 . S
C210 C211 1.400 . S
C211 C205 1.491 . S
C211 C210 1.400 . S
C211 C212 1.398 . S
C212 H200 0.950 . S
C212 C211 1.398 . S
C212 C213 1.391 . S
C213 H201 0.950 . S
C213 C209 1.393 . S
C213 C212 1.391 . S
H214 C222 0.950 . S
H215 C227 0.950 . S
H216 C224 0.950 . S
H217 C226 0.950 . S
H218 C228 0.950 . S
H219 C230 0.950 . S
H220 C232 0.950 . S
H221 C233 0.950 . S
C222 H214 0.950 . S
C222 C223 1.386 . S
C222 C224 1.391 . S
C223 C222 1.386 . S
C223 C227 1.393 . S
C224 H216 0.950 . S
C224 C222 1.391 . S
C224 C225 1.400 . S
C225 C224 1.400 . S
C225 C226 1.398 . S
C225 C231 1.491 1_565 S
C226 H217 0.950 . S
C226 C225 1.398 . S
C226 C227 1.391 . S
C227 H215 0.950 . S
C227 C223 1.393 . S
C227 C226 1.391 . S
C228 H218 0.950 . S
C228 C229 1.386 . S
C228 C230 1.391 . S
C229 C228 1.386 . S
C229 C233 1.393 . S
C230 H219 0.950 . S
C230 C228 1.391 . S
C230 C231 1.400 . S
C231 C225 1.491 1_545 S
C231 C230 1.400 . S
C231 C232 1.398 . S
C232 H220 0.950 . S
C232 C231 1.398 . S
C232 C233 1.391 . S
C233 H221 0.950 . S
C233 C229 1.393 . S
C233 C232 1.391 . S
H234 C242 0.950 . S
H235 C247 0.950 . S
H236 C244 0.950 . S
H237 C246 0.950 . S
H238 C248 0.950 . S
H239 C250 0.950 . S
H240 C252 0.950 . S
H241 C253 0.950 . S
C242 H234 0.950 . S
C242 C243 1.386 . S
C242 C244 1.391 . S
C243 C242 1.386 . S
C243 C247 1.393 . S
C244 H236 0.950 . S
C244 C242 1.391 . S
C244 C245 1.400 . S
C245 C244 1.400 . S
C245 C246 1.398 . S
C245 C251 1.491 . S
C246 H237 0.950 . S
C246 C245 1.398 . S
C246 C247 1.391 . S
C247 H235 0.950 . S
C247 C243 1.393 . S
C247 C246 1.391 . S
C248 H238 0.950 . S
C248 C249 1.386 . S
C248 C250 1.391 . S
C249 C248 1.386 . S
C249 C253 1.393 . S
C250 H239 0.950 . S
C250 C248 1.391 . S
C250 C251 1.400 . S
C251 C245 1.491 . S
C251 C250 1.400 . S
C251 C252 1.398 . S
C252 H240 0.950 . S
C252 C251 1.398 . S
C252 C253 1.391 . S
C253 H241 0.950 . S
C253 C249 1.393 . S
C253 C252 1.391 . S
H254 C262 0.950 . S
H255 C267 0.950 . S
H256 C264 0.950 . S
H257 C266 0.950 1_554 S
H258 C268 0.950 . S
H259 C270 0.950 . S
H260 C272 0.950 . S
H261 C273 0.950 . S
C262 H254 0.950 . S
C262 C263 1.386 . S
C262 C264 1.391 . S
C263 C262 1.386 . S
C263 C267 1.393 1_556 S
C264 H256 0.950 . S
C264 C262 1.391 . S
C264 C265 1.400 . S
C265 C264 1.400 . S
C265 C266 1.398 . S
C265 C271 1.491 . S
C266 H257 0.950 1_556 S
C266 C265 1.398 . S
C266 C267 1.391 1_556 S
C267 H255 0.950 . S
C267 C263 1.393 1_554 S
C267 C266 1.391 1_554 S
C268 H258 0.950 . S
C268 C269 1.386 . S
C268 C270 1.391 . S
C269 C268 1.386 . S
C269 C273 1.393 . S
C270 H259 0.950 . S
C270 C268 1.391 . S
C270 C271 1.400 . S
C271 C265 1.491 . S
C271 C270 1.400 . S
C271 C272 1.398 . S
C272 H260 0.950 . S
C272 C271 1.398 . S
C272 C273 1.391 . S
C273 H261 0.950 . S
C273 C269 1.393 . S
C273 C272 1.391 . S
H274 C282 0.950 . S
H275 C287 0.950 . S
H276 C284 0.950 . S
H277 C286 0.950 . S
H278 C288 0.950 . S
H279 C290 0.950 . S
H280 C292 0.950 . S
H281 C293 0.950 . S
C282 H274 0.950 . S
C282 C283 1.386 . S
C282 C284 1.391 . S
C283 C282 1.386 . S
C283 C287 1.393 . S
C284 H276 0.950 . S
C284 C282 1.391 . S
C284 C285 1.400 . S
C285 C284 1.400 . S
C285 C286 1.398 . S
C285 C291 1.491 . S
C286 H277 0.950 . S
C286 C285 1.398 . S
C286 C287 1.391 . S
C287 H275 0.950 . S
C287 C283 1.393 . S
C287 C286 1.391 . S
C288 H278 0.950 . S
C288 C289 1.386 . S
C288 C290 1.391 . S
C289 C288 1.386 . S
C289 C293 1.393 . S
C290 H279 0.950 . S
C290 C288 1.391 . S
C290 C291 1.400 . S
C291 C285 1.491 . S
C291 C290 1.400 . S
C291 C292 1.398 . S
C292 H280 0.950 . S
C292 C291 1.398 . S
C292 C293 1.391 . S
C293 H281 0.950 . S
C293 C289 1.393 . S
C293 C292 1.391 . S
H294 C302 0.950 . S
H295 C307 0.950 . S
H296 C304 0.950 . S
H297 C306 0.950 . S
H298 C308 0.950 . S
H299 C310 0.950 . S
H300 C312 0.950 . S
H301 C313 0.950 . S
C302 H294 0.950 . S
C302 C303 1.386 . S
C302 C304 1.391 . S
C303 C302 1.386 . S
C303 C307 1.393 . S
C304 H296 0.950 . S
C304 C302 1.391 . S
C304 C305 1.400 . S
C305 C304 1.400 . S
C305 C306 1.398 . S
C305 C311 1.491 . S
C306 H297 0.950 . S
C306 C305 1.398 . S
C306 C307 1.391 . S
C307 H295 0.950 . S
C307 C303 1.393 . S
C307 C306 1.391 . S
C308 H298 0.950 . S
C308 C309 1.386 . S
C308 C310 1.391 . S
C309 C308 1.386 . S
C309 C313 1.393 . S
C310 H299 0.950 . S
C310 C308 1.391 . S
C310 C311 1.400 . S
C311 C305 1.491 . S
C311 C310 1.400 . S
C311 C312 1.398 . S
C312 H300 0.950 . S
C312 C311 1.398 . S
C312 C313 1.391 . S
C313 H301 0.950 . S
C313 C309 1.393 . S
C313 C312 1.391 . S
H314 C322 0.950 . S
H315 C327 0.950 . S
H316 C324 0.950 . S
H317 C326 0.950 . S
H318 C328 0.950 . S
H319 C330 0.950 . S
H320 C332 0.950 . S
H321 C333 0.950 . S
C322 H314 0.950 . S
C322 C323 1.386 . S
C322 C324 1.391 . S
C323 C322 1.386 . S
C323 C327 1.393 . S
C324 H316 0.950 . S
C324 C322 1.391 . S
C324 C325 1.400 . S
C325 C324 1.400 . S
C325 C326 1.398 . S
C325 C331 1.491 . S
C326 H317 0.950 . S
C326 C325 1.398 . S
C326 C327 1.391 . S
C327 H315 0.950 . S
C327 C323 1.393 . S
C327 C326 1.391 . S
C328 H318 0.950 . S
C328 C329 1.386 . S
C328 C330 1.391 . S
C329 C328 1.386 . S
C329 C333 1.393 . S
C330 H319 0.950 . S
C330 C328 1.391 . S
C330 C331 1.400 . S
C331 C325 1.491 . S
C331 C330 1.400 . S
C331 C332 1.398 . S
C332 H320 0.950 . S
C332 C331 1.398 . S
C332 C333 1.391 . S
C333 H321 0.950 . S
C333 C329 1.393 . S
C333 C332 1.391 . S
H334 C342 0.950 . S
H335 C347 0.950 . S
H336 C344 0.950 . S
H337 C346 0.950 1_556 S
H338 C348 0.950 . S
H339 C350 0.950 . S
H340 C352 0.950 . S
H341 C353 0.950 . S
C342 H334 0.950 . S
C342 C343 1.386 . S
C342 C344 1.391 . S
C343 C342 1.386 . S
C343 C347 1.393 1_554 S
C344 H336 0.950 . S
C344 C342 1.391 . S
C344 C345 1.400 . S
C345 C344 1.400 . S
C345 C346 1.398 . S
C345 C351 1.491 . S
C346 H337 0.950 1_554 S
C346 C345 1.398 . S
C346 C347 1.391 1_554 S
C347 H335 0.950 . S
C347 C343 1.393 1_556 S
C347 C346 1.391 1_556 S
C348 H338 0.950 . S
C348 C349 1.386 . S
C348 C350 1.391 . S
C349 C348 1.386 . S
C349 C353 1.393 . S
C350 H339 0.950 . S
C350 C348 1.391 . S
C350 C351 1.400 . S
C351 C345 1.491 . S
C351 C350 1.400 . S
C351 C352 1.398 . S
C352 H340 0.950 . S
C352 C351 1.398 . S
C352 C353 1.391 . S
C353 H341 0.950 . S
C353 C349 1.393 . S
C353 C352 1.391 . S
H354 C362 0.950 . S
H355 C367 0.950 . S
H356 C364 0.950 . S
H357 C366 0.950 . S
H358 C368 0.950 . S
H359 C370 0.962 . S
H360 C372 0.950 . S
H361 C373 0.950 . S
C362 H354 0.950 . S
C362 C363 1.386 . S
C362 C364 1.391 . S
C363 C362 1.386 . S
C363 C367 1.393 . S
C364 H356 0.950 . S
C364 C362 1.391 . S
C364 C365 1.400 . S
C365 C364 1.400 . S
C365 C366 1.398 . S
C365 C371 1.491 1_655 S
C366 H357 0.950 . S
C366 C365 1.398 . S
C366 C367 1.391 . S
C367 H355 0.950 . S
C367 C363 1.393 . S
C367 C366 1.391 . S
C368 H358 0.950 . S
C368 C369 1.386 . S
C368 C370 1.391 . S
C369 C368 1.386 . S
C369 C373 1.393 . S
C370 H359 0.962 . S
C370 C368 1.391 . S
C370 C371 1.400 . S
C371 C365 1.491 1_455 S
C371 C370 1.400 . S
C371 C372 1.398 . S
C372 H360 0.950 . S
C372 C371 1.398 . S
C372 C373 1.391 . S
C373 H361 0.950 . S
C373 C369 1.393 . S
C373 C372 1.391 . S
H374 C382 0.950 . S
H375 C387 0.950 . S
H376 C384 0.950 . S
H377 C386 0.950 . S
H378 C388 0.950 . S
H379 C390 0.950 . S
H380 C392 0.950 . S
H381 C393 0.950 . S
C382 H374 0.950 . S
C382 C383 1.386 . S
C382 C384 1.391 . S
C383 C382 1.386 . S
C383 C387 1.393 . S
C384 H376 0.950 . S
C384 C382 1.391 . S
C384 C385 1.400 . S
C385 C384 1.400 . S
C385 C386 1.398 1_554 S
C385 C391 1.491 1_554 S
C386 H377 0.950 . S
C386 C385 1.398 1_556 S
C386 C387 1.391 1_556 S
C387 H375 0.950 . S
C387 C383 1.393 . S
C387 C386 1.391 1_554 S
C388 H378 0.950 . S
C388 C389 1.386 . S
C388 C390 1.391 . S
C389 C388 1.386 . S
C389 C393 1.393 . S
C390 H379 0.950 . S
C390 C388 1.391 . S
C390 C391 1.400 . S
C391 C385 1.491 1_556 S
C391 C390 1.400 . S
C391 C392 1.398 1_556 S
C392 H380 0.950 . S
C392 C391 1.398 1_554 S
C392 C393 1.391 1_554 S
C393 H381 0.950 . S
C393 C389 1.393 . S
C393 C392 1.391 1_556 S
H394 C402 0.950 . S
H395 C407 0.950 . S
H396 C404 0.950 1_565 S
H397 C406 0.950 . S
H398 C408 0.950 . S
H399 C410 0.950 1_545 S
H400 C412 0.950 . S
H401 C413 0.950 . S
C402 H394 0.950 . S
C402 C403 1.386 . S
C402 C404 1.391 . S
C403 C402 1.386 . S
C403 C407 1.393 . S
C404 H396 0.950 1_545 S
C404 C402 1.391 . S
C404 C405 1.400 . S
C405 C404 1.400 . S
C405 C406 1.398 . S
C405 C411 1.491 1_545 S
C406 H397 0.950 . S
C406 C405 1.398 . S
C406 C407 1.391 . S
C407 H395 0.950 . S
C407 C403 1.393 . S
C407 C406 1.391 . S
C408 H398 0.950 . S
C408 C409 1.386 . S
C408 C410 1.391 . S
C409 C408 1.386 . S
C409 C413 1.393 . S
C410 H399 0.950 1_565 S
C410 C408 1.391 . S
C410 C411 1.400 . S
C411 C405 1.491 1_565 S
C411 C410 1.400 . S
C411 C412 1.398 . S
C412 H400 0.950 . S
C412 C411 1.398 . S
C412 C413 1.391 . S
C413 H401 0.950 . S
C413 C409 1.393 . S
C413 C412 1.391 . S
H414 C422 0.950 . S
H415 C427 0.950 . S
H416 C424 0.950 . S
H417 C426 0.950 . S
H418 C428 0.950 . S
H419 C430 0.950 . S
H420 C432 0.950 . S
H421 C433 0.950 . S
C422 H414 0.950 . S
C422 C423 1.386 . S
C422 C424 1.391 . S
C423 C422 1.386 . S
C423 C427 1.393 1_554 S
C424 H416 0.950 . S
C424 C422 1.391 . S
C424 C425 1.404 . S
C425 C424 1.404 . S
C425 C426 1.395 1_554 S
C425 C431 1.491 1_554 S
C426 H417 0.950 . S
C426 C425 1.395 1_556 S
C426 C427 1.391 . S
C427 H415 0.950 . S
C427 C423 1.393 1_556 S
C427 C426 1.391 . S
C428 H418 0.950 . S
C428 C429 1.386 . S
C428 C430 1.391 . S
C429 C428 1.386 . S
C429 C433 1.393 1_556 S
C430 H419 0.950 . S
C430 C428 1.391 . S
C430 C431 1.404 . S
C431 C425 1.491 1_556 S
C431 C430 1.404 . S
C431 C432 1.395 1_556 S
C432 H420 0.950 . S
C432 C431 1.395 1_554 S
C432 C433 1.391 . S
C433 H421 0.950 . S
C433 C429 1.393 1_554 S
C433 C432 1.391 . S
H434 C442 0.950 . S
H435 C447 0.950 . S
H436 C444 0.950 . S
H437 C446 0.950 . S
H438 C448 0.950 . S
H439 C450 0.950 . S
H440 C452 0.950 . S
H441 C453 0.950 . S
C442 H434 0.950 . S
C442 C443 1.386 . S
C442 C444 1.391 . S
C443 C442 1.386 . S
C443 C447 1.393 . S
C444 H436 0.950 . S
C444 C442 1.391 . S
C444 C445 1.400 . S
C445 C444 1.400 . S
C445 C446 1.398 . S
C445 C451 1.491 1_565 S
C446 H437 0.950 . S
C446 C445 1.398 . S
C446 C447 1.391 . S
C447 H435 0.950 . S
C447 C443 1.393 . S
C447 C446 1.391 . S
C448 H438 0.950 . S
C448 C449 1.386 . S
C448 C450 1.391 . S
C449 C448 1.386 . S
C449 C453 1.393 . S
C450 H439 0.950 . S
C450 C448 1.391 . S
C450 C451 1.400 . S
C451 C445 1.491 1_545 S
C451 C450 1.400 . S
C451 C452 1.398 . S
C452 H440 0.950 . S
C452 C451 1.398 . S
C452 C453 1.391 . S
C453 H441 0.950 . S
C453 C449 1.393 . S
C453 C452 1.391 . S
H454 C462 0.950 . S
H455 C467 0.950 . S
H456 C464 0.950 . S
H457 C466 0.950 . S
H458 C468 0.950 . S
H459 C470 0.950 . S
H460 C472 0.950 . S
H461 C473 0.950 . S
C462 H454 0.950 . S
C462 C463 1.386 . S
C462 C464 1.391 . S
C463 C462 1.386 . S
C463 C467 1.393 . S
C464 H456 0.950 . S
C464 C462 1.391 . S
C464 C465 1.400 . S
C465 C464 1.400 . S
C465 C466 1.398 . S
C465 C471 1.491 1_655 S
C466 H457 0.950 . S
C466 C465 1.398 . S
C466 C467 1.391 . S
C467 H455 0.950 . S
C467 C463 1.393 . S
C467 C466 1.391 . S
C468 H458 0.950 . S
C468 C469 1.386 . S
C468 C470 1.391 . S
C469 C468 1.386 . S
C469 C473 1.393 . S
C470 H459 0.950 . S
C470 C468 1.391 . S
C470 C471 1.400 . S
C471 C465 1.491 1_455 S
C471 C470 1.400 . S
C471 C472 1.398 . S
C472 H460 0.950 . S
C472 C471 1.398 . S
C472 C473 1.391 . S
C473 H461 0.950 . S
C473 C469 1.393 . S
C473 C472 1.391 . S
H474 C482 0.950 . S
H475 C487 0.950 . S
H476 C484 0.950 . S
H477 C486 0.950 . S
H478 C488 0.950 . S
H479 C490 0.950 . S
H480 C492 0.950 . S
H481 C493 0.950 . S
C482 H474 0.950 . S
C482 C483 1.386 . S
C482 C484 1.391 . S
C483 C482 1.386 . S
C483 C487 1.393 . S
C484 H476 0.950 . S
C484 C482 1.391 . S
C484 C485 1.400 . S
C485 C484 1.400 . S
C485 C486 1.398 . S
C485 C491 1.491 . S
C486 H477 0.950 . S
C486 C485 1.398 . S
C486 C487 1.391 . S
C487 H475 0.950 . S
C487 C483 1.393 . S
C487 C486 1.391 . S
C488 H478 0.950 . S
C488 C489 1.386 . S
C488 C490 1.391 . S
C489 C488 1.386 . S
C489 C493 1.393 . S
C490 H479 0.950 . S
C490 C488 1.391 . S
C490 C491 1.400 . S
C491 C485 1.491 . S
C491 C490 1.400 . S
C491 C492 1.398 . S
C492 H480 0.950 . S
C492 C491 1.398 . S
C492 C493 1.391 . S
C493 H481 0.950 . S
C493 C489 1.393 . S
C493 C492 1.391 . S
H494 C502 0.950 . S
H495 C507 0.950 . S
H496 C504 0.950 . S
H497 C506 0.950 . S
H498 C508 0.950 . S
H499 C510 0.950 . S
H500 C512 0.950 . S
H501 C513 0.950 . S
C502 H494 0.950 . S
C502 C503 1.386 . S
C502 C504 1.391 . S
C503 C502 1.386 . S
C503 C507 1.393 . S
C504 H496 0.950 . S
C504 C502 1.391 . S
C504 C505 1.400 . S
C505 C504 1.400 . S
C505 C506 1.398 . S
C505 C511 1.491 . S
C506 H497 0.950 . S
C506 C505 1.398 . S
C506 C507 1.391 . S
C507 H495 0.950 . S
C507 C503 1.393 . S
C507 C506 1.391 . S
C508 H498 0.950 . S
C508 C509 1.386 . S
C508 C510 1.391 . S
C509 C508 1.386 . S
C509 C513 1.393 . S
C510 H499 0.950 . S
C510 C508 1.391 . S
C510 C511 1.400 . S
C511 C505 1.491 . S
C511 C510 1.400 . S
C511 C512 1.398 . S
C512 H500 0.950 . S
C512 C511 1.398 . S
C512 C513 1.391 . S
C513 H501 0.950 . S
C513 C509 1.393 . S
C513 C512 1.391 . S
H514 C522 0.950 . S
H515 C527 0.950 . S
H516 C524 0.950 . S
H517 C526 0.950 . S
H518 C528 0.950 . S
H519 C530 0.950 . S
H520 C532 0.950 . S
H521 C533 0.950 . S
C522 H514 0.950 . S
C522 C523 1.386 . S
C522 C524 1.391 . S
C523 C522 1.386 . S
C523 C527 1.393 . S
C524 H516 0.950 . S
C524 C522 1.391 . S
C524 C525 1.400 . S
C525 C524 1.400 . S
C525 C526 1.398 . S
C525 C531 1.491 . S
C526 H517 0.950 . S
C526 C525 1.398 . S
C526 C527 1.391 . S
C527 H515 0.950 . S
C527 C523 1.393 . S
C527 C526 1.391 . S
C528 H518 0.950 . S
C528 C529 1.386 . S
C528 C530 1.391 1_554 S
C529 C528 1.386 . S
C529 C533 1.393 . S
C530 H519 0.950 . S
C530 C528 1.391 1_556 S
C530 C531 1.400 . S
C531 C525 1.491 . S
C531 C530 1.400 . S
C531 C532 1.398 . S
C532 H520 0.950 . S
C532 C531 1.398 . S
C532 C533 1.391 1_556 S
C533 H521 0.950 . S
C533 C529 1.393 . S
C533 C532 1.391 1_554 S
H534 C542 0.950 . S
H535 C547 0.950 . S
H536 C544 0.950 . S
H537 C546 0.950 . S
H538 C548 0.950 . S
H539 C550 0.950 . S
H540 C552 0.950 . S
H541 C553 0.950 . S
C542 H534 0.950 . S
C542 C543 1.386 . S
C542 C544 1.391 . S
C543 C542 1.386 . S
C543 C547 1.393 . S
C544 H536 0.950 . S
C544 C542 1.391 . S
C544 C545 1.400 . S
C545 C544 1.400 . S
C545 C546 1.398 . S
C545 C551 1.491 . S
C546 H537 0.950 . S
C546 C545 1.398 . S
C546 C547 1.391 . S
C547 H535 0.950 . S
C547 C543 1.393 . S
C547 C546 1.391 . S
C548 H538 0.950 . S
C548 C549 1.386 . S
C548 C550 1.391 . S
C549 C548 1.386 . S
C549 C553 1.393 . S
C550 H539 0.950 . S
C550 C548 1.391 . S
C550 C551 1.400 . S
C551 C545 1.491 . S
C551 C550 1.400 . S
C551 C552 1.398 . S
C552 H540 0.950 . S
C552 C551 1.398 . S
C552 C553 1.391 . S
C553 H541 0.950 . S
C553 C549 1.393 . S
C553 C552 1.391 . S
H554 C562 0.950 . S
H555 C567 0.950 . S
H556 C564 0.950 . S
H557 C566 0.950 . S
H558 C568 0.950 . S
H559 C570 0.950 . S
H560 C572 0.950 . S
H561 C573 0.950 . S
C562 H554 0.950 . S
C562 C563 1.386 . S
C562 C564 1.391 . S
C563 C562 1.386 . S
C563 C567 1.393 . S
C564 H556 0.950 . S
C564 C562 1.391 . S
C564 C565 1.400 . S
C565 C564 1.400 . S
C565 C566 1.398 . S
C565 C571 1.491 . S
C566 H557 0.950 . S
C566 C565 1.398 . S
C566 C567 1.391 . S
C567 H555 0.950 . S
C567 C563 1.393 . S
C567 C566 1.391 . S
C568 H558 0.950 . S
C568 C569 1.386 . S
C568 C570 1.391 1_556 S
C569 C568 1.386 . S
C569 C573 1.393 . S
C570 H559 0.950 . S
C570 C568 1.391 1_554 S
C570 C571 1.400 . S
C571 C565 1.491 . S
C571 C570 1.400 . S
C571 C572 1.398 . S
C572 H560 0.950 . S
C572 C571 1.398 . S
C572 C573 1.391 1_554 S
C573 H561 0.950 . S
C573 C569 1.393 . S
C573 C572 1.391 1_556 S
H574 C582 0.950 . S
H575 C587 0.950 . S
H576 C584 0.950 . S
H577 C586 0.950 . S
H578 C588 0.950 . S
H579 C590 0.950 . S
H580 C592 0.950 . S
H581 C593 0.950 . S
C582 H574 0.950 . S
C582 C583 1.386 . S
C582 C584 1.391 . S
C583 C582 1.386 . S
C583 C587 1.393 . S
C584 H576 0.950 . S
C584 C582 1.391 . S
C584 C585 1.400 . S
C585 C584 1.400 . S
C585 C586 1.398 . S
C585 C591 1.491 . S
C586 H577 0.950 . S
C586 C585 1.398 . S
C586 C587 1.391 . S
C587 H575 0.950 . S
C587 C583 1.393 . S
C587 C586 1.391 . S
C588 H578 0.950 . S
C588 C589 1.386 . S
C588 C590 1.391 . S
C589 C588 1.386 . S
C589 C593 1.393 . S
C590 H579 0.950 . S
C590 C588 1.391 . S
C590 C591 1.400 . S
C591 C585 1.491 . S
C591 C590 1.400 . S
C591 C592 1.398 . S
C592 H580 0.950 . S
C592 C591 1.398 . S
C592 C593 1.391 . S
C593 H581 0.950 . S
C593 C589 1.393 . S
C593 C592 1.391 . S
C183 C13 2.403 1_556 S
C189 C129 2.403 . S
C203 C158 2.385 . S
C209 C42 2.385 . S
C223 C71 2.403 . S
C229 C100 2.403 1_554 S
C243 C10 1.917 . S
C249 C79 1.641 . S
C263 C21 1.614 1_556 S
C269 C39 1.920 . S
C283 C50 1.643 . S
C289 C68 1.916 . S
C303 C97 1.915 . S
C309 C137 1.623 . S
C323 C126 1.915 . S
C329 C166 1.648 . S
C343 C108 1.614 1_554 S
C349 C155 1.920 . S
C363 C131 1.386 . S
C369 C15 1.391 . S
C383 C160 1.380 . S
C389 C44 1.394 . S
C403 C102 1.377 . S
C409 C73 1.392 . S
C423 C5 2.716 . S
C429 C92 2.716 . S
C443 C34 2.703 . S
C449 C121 2.704 . S
C463 C150 2.702 . S
C469 C63 2.703 . S
C483 C8 1.085 . S
C489 C3 1.085 . S
C503 C32 1.108 . S
C509 C37 1.108 . S
C523 C66 1.085 . S
C529 C61 1.085 . S
C543 C95 1.104 . S
C549 C90 1.104 . S
C563 C124 1.084 . S
C569 C119 1.084 . S
C583 C148 1.092 . S
C589 C153 1.092 . S
