# Generated by pormake.
# Topology zfw, (5)-cn, num edge types: 1
# Building blocks:
#     Node 0, Type 0, BuildingBlock: BEQFEK_clean_sbu_0, # of connection points: 5
#     Node 1, Type 0, BuildingBlock: BEQFEK_clean_sbu_0, # of connection points: 5
#     Node 2, Type 0, BuildingBlock: BEQFEK_clean_sbu_0, # of connection points: 5
#     Node 3, Type 0, BuildingBlock: BEQFEK_clean_sbu_0, # of connection points: 5
#     Node 4, Type 0, BuildingBlock: BEQFEK_clean_sbu_0, # of connection points: 5
#     Node 5, Type 0, BuildingBlock: BEQFEK_clean_sbu_0, # of connection points: 5
#     Node 6, Type 0, BuildingBlock: BEQFEK_clean_sbu_0, # of connection points: 5
#     Node 7, Type 0, BuildingBlock: BEQFEK_clean_sbu_0, # of connection points: 5
#     Node 8, Type 0, BuildingBlock: BEQFEK_clean_sbu_0, # of connection points: 5
#     Node 9, Type 0, BuildingBlock: BEQFEK_clean_sbu_0, # of connection points: 5
#     Node 10, Type 0, BuildingBlock: BEQFEK_clean_sbu_0, # of connection points: 5
#     Node 11, Type 0, BuildingBlock: BEQFEK_clean_sbu_0, # of connection points: 5
#     Node 12, Type 0, BuildingBlock: BEQFEK_clean_sbu_0, # of connection points: 5
#     Node 13, Type 0, BuildingBlock: BEQFEK_clean_sbu_0, # of connection points: 5
#     Node 14, Type 0, BuildingBlock: BEQFEK_clean_sbu_0, # of connection points: 5
#     Node 15, Type 0, BuildingBlock: BEQFEK_clean_sbu_0, # of connection points: 5
#     Edge 16, Type (0, 0), BuildingBlock: AJUNOK_clean_linker_0, # of connection points: 2
#     Edge 17, Type (0, 0), BuildingBlock: AJUNOK_clean_linker_0, # of connection points: 2
#     Edge 18, Type (0, 0), BuildingBlock: AJUNOK_clean_linker_0, # of connection points: 2
#     Edge 19, Type (0, 0), BuildingBlock: AJUNOK_clean_linker_0, # of connection points: 2
#     Edge 20, Type (0, 0), BuildingBlock: AJUNOK_clean_linker_0, # of connection points: 2
#     Edge 21, Type (0, 0), BuildingBlock: AJUNOK_clean_linker_0, # of connection points: 2
#     Edge 22, Type (0, 0), BuildingBlock: AJUNOK_clean_linker_0, # of connection points: 2
#     Edge 23, Type (0, 0), BuildingBlock: AJUNOK_clean_linker_0, # of connection points: 2
#     Edge 24, Type (0, 0), BuildingBlock: AJUNOK_clean_linker_0, # of connection points: 2
#     Edge 25, Type (0, 0), BuildingBlock: AJUNOK_clean_linker_0, # of connection points: 2
#     Edge 26, Type (0, 0), BuildingBlock: AJUNOK_clean_linker_0, # of connection points: 2
#     Edge 27, Type (0, 0), BuildingBlock: AJUNOK_clean_linker_0, # of connection points: 2
#     Edge 28, Type (0, 0), BuildingBlock: AJUNOK_clean_linker_0, # of connection points: 2
#     Edge 29, Type (0, 0), BuildingBlock: AJUNOK_clean_linker_0, # of connection points: 2
#     Edge 30, Type (0, 0), BuildingBlock: AJUNOK_clean_linker_0, # of connection points: 2
#     Edge 31, Type (0, 0), BuildingBlock: AJUNOK_clean_linker_0, # of connection points: 2
#     Edge 32, Type (0, 0), BuildingBlock: AJUNOK_clean_linker_0, # of connection points: 2
#     Edge 33, Type (0, 0), BuildingBlock: AJUNOK_clean_linker_0, # of connection points: 2
#     Edge 34, Type (0, 0), BuildingBlock: AJUNOK_clean_linker_0, # of connection points: 2
#     Edge 35, Type (0, 0), BuildingBlock: AJUNOK_clean_linker_0, # of connection points: 2
#     Edge 36, Type (0, 0), BuildingBlock: AJUNOK_clean_linker_0, # of connection points: 2
#     Edge 37, Type (0, 0), BuildingBlock: AJUNOK_clean_linker_0, # of connection points: 2
#     Edge 38, Type (0, 0), BuildingBlock: AJUNOK_clean_linker_0, # of connection points: 2
#     Edge 39, Type (0, 0), BuildingBlock: AJUNOK_clean_linker_0, # of connection points: 2
#     Edge 40, Type (0, 0), BuildingBlock: AJUNOK_clean_linker_0, # of connection points: 2
#     Edge 41, Type (0, 0), BuildingBlock: AJUNOK_clean_linker_0, # of connection points: 2
#     Edge 42, Type (0, 0), BuildingBlock: AJUNOK_clean_linker_0, # of connection points: 2
#     Edge 43, Type (0, 0), BuildingBlock: AJUNOK_clean_linker_0, # of connection points: 2
#     Edge 44, Type (0, 0), BuildingBlock: AJUNOK_clean_linker_0, # of connection points: 2
#     Edge 45, Type (0, 0), BuildingBlock: AJUNOK_clean_linker_0, # of connection points: 2
#     Edge 46, Type (0, 0), BuildingBlock: AJUNOK_clean_linker_0, # of connection points: 2
#     Edge 47, Type (0, 0), BuildingBlock: AJUNOK_clean_linker_0, # of connection points: 2
#     Edge 48, Type (0, 0), BuildingBlock: AJUNOK_clean_linker_0, # of connection points: 2
#     Edge 49, Type (0, 0), BuildingBlock: AJUNOK_clean_linker_0, # of connection points: 2
#     Edge 50, Type (0, 0), BuildingBlock: AJUNOK_clean_linker_0, # of connection points: 2
#     Edge 51, Type (0, 0), BuildingBlock: AJUNOK_clean_linker_0, # of connection points: 2
#     Edge 52, Type (0, 0), BuildingBlock: AJUNOK_clean_linker_0, # of connection points: 2
#     Edge 53, Type (0, 0), BuildingBlock: AJUNOK_clean_linker_0, # of connection points: 2
#     Edge 54, Type (0, 0), BuildingBlock: AJUNOK_clean_linker_0, # of connection points: 2
#     Edge 55, Type (0, 0), BuildingBlock: AJUNOK_clean_linker_0, # of connection points: 2
# Relax obj value: 0.428
# Max RMSD: 0.239
# Mean RMSD: 0.239
data_MOF--net-zfw--node1-BEQFEK_clean_sbu_0--edge1-AJUNOK_clean_linker_0
_symmetry_space_group_name_H-M    P1
_symmetry_Int_Tables_number       1
_symmetry_cell_setting            triclinic
loop_
_symmetry_equiv_pos_as_xyz
'x, y, z'
_cell_length_a     51.322033
_cell_length_b     51.363166
_cell_length_c     14.113052
_cell_angle_alpha  90.038457
_cell_angle_beta   90.001
_cell_angle_gamma 90.010838
loop_
_atom_site_label
_atom_site_type_symbol
_atom_site_fract_x
_atom_site_fract_y
_atom_site_fract_z
_atom_type_partial_charge
Co0 Co 0.00574 0.09391 0.35535 0.0
Co1 Co 0.00371 0.12328 0.16175 0.0
C2 C 0.96303 0.13245 0.30657 0.0
O3 O 0.97459 0.11628 0.35998 0.0
O4 O 0.97129 0.13693 0.22284 0.0
C5 C 0.98524 0.07604 0.52516 0.0
O6 O 0.96233 0.07581 0.48373 0.0
C7 C 0.98865 0.13416 0.96475 0.0
C8 C 0.02775 0.13418 0.90024 0.0
C9 C 0.00146 0.13222 0.87748 0.0
N10 N 0.00672 0.13468 0.03385 0.0
N11 N 0.02997 0.13602 0.99457 0.0
C12 C 0.96008 0.13666 0.98425 0.0
H13 H 0.95698 0.15185 0.0391 0.0
H14 H 0.9524 0.1182 0.01389 0.0
H15 H 0.94921 0.14221 0.91933 0.0
C16 C 0.00977 0.04757 0.22922 0.0
N17 N 0.0073 0.0734 0.24469 0.0
N18 N 0.0057 0.08561 0.16294 0.0
C19 C 0.00677 0.06765 0.09299 0.0
C20 C 0.00987 0.04315 0.1321 0.0
C21 C 0.01223 0.02775 0.3062 0.0
H22 H 0.02571 0.03502 0.36174 0.0
H23 H 0.99287 0.02482 0.33952 0.0
H24 H 0.01937 0.00886 0.27812 0.0
O25 O 0.03573 0.11755 0.36495 0.0
O26 O 0.03406 0.13931 0.22932 0.0
H27 H 0.01823 0.08391 0.96051 0.0
H28 H 0.99846 0.05518 0.94874 0.0
C29 C 0.0016 0.0731 0.99097 0.0
H30 H 0.9836 0.0846 0.98638 0.0
H31 H 0.04744 0.13547 0.03233 0.0
O32 O 0.00551 0.07393 0.47398 0.0
C33 C 0.04434 0.13516 0.31003 0.0
Co34 Co 0.15878 0.74778 0.60835 0.0
Co35 Co 0.12956 0.75082 0.41488 0.0
C36 C 0.11989 0.70749 0.55462 0.0
O37 O 0.13635 0.71684 0.61226 0.0
O38 O 0.11583 0.71835 0.47489 0.0
C39 C 0.17666 0.72675 0.77792 0.0
O40 O 0.17504 0.70434 0.73349 0.0
C41 C 0.12678 0.73369 0.22065 0.0
C42 C 0.10933 0.76774 0.14961 0.0
C43 C 0.12209 0.7444 0.13204 0.0
N44 N 0.11816 0.75041 0.2868 0.0
N45 N 0.10677 0.77024 0.24407 0.0
C46 C 0.14297 0.71019 0.24304 0.0
H47 H 0.14979 0.71069 0.31757 0.0
H48 H 0.15987 0.70866 0.19431 0.0
H49 H 0.13083 0.69251 0.23358 0.0
C50 C 0.20528 0.75015 0.47926 0.0
N51 N 0.17939 0.74952 0.49647 0.0
N52 N 0.1668 0.75382 0.41671 0.0
C53 C 0.18431 0.75918 0.34803 0.0
C54 C 0.20913 0.75639 0.38445 0.0
C55 C 0.22574 0.74604 0.55308 0.0
H56 H 0.22676 0.76356 0.59897 0.0
H57 H 0.2203 0.72927 0.59857 0.0
H58 H 0.24513 0.74268 0.52043 0.0
O59 O 0.13528 0.77866 0.61847 0.0
O60 O 0.11422 0.78083 0.48119 0.0
H61 H 0.15879 0.77879 0.25034 0.0
H62 H 0.19272 0.78281 0.22521 0.0
C63 C 0.17787 0.76882 0.25066 0.0
H64 H 0.17792 0.75229 0.20031 0.0
H65 H 0.09958 0.78662 0.27916 0.0
O66 O 0.17845 0.74739 0.72854 0.0
C67 C 0.11863 0.7895 0.56422 0.0
Co68 Co 0.50231 0.90269 0.8268 0.0
Co69 Co 0.50025 0.87227 0.63466 0.0
C70 C 0.54337 0.86424 0.77712 0.0
O71 O 0.53354 0.88091 0.83277 0.0
O72 O 0.53284 0.85938 0.69728 0.0
C73 C 0.52267 0.92106 0.99721 0.0
O74 O 0.54517 0.92018 0.95302 0.0
C75 C 0.51781 0.87039 0.44029 0.0
C76 C 0.48457 0.85162 0.36841 0.0
C77 C 0.50733 0.86548 0.3513 0.0
N78 N 0.50145 0.86087 0.50612 0.0
N79 N 0.48216 0.84871 0.46278 0.0
C80 C 0.54054 0.88762 0.46336 0.0
H81 H 0.5402 0.89353 0.53893 0.0
H82 H 0.54074 0.90511 0.41723 0.0
H83 H 0.55883 0.87668 0.45058 0.0
C84 C 0.50065 0.94835 0.69273 0.0
N85 N 0.5007 0.92265 0.71336 0.0
N86 N 0.49668 0.9094 0.63483 0.0
C87 C 0.49213 0.92626 0.56354 0.0
C88 C 0.49553 0.95135 0.59638 0.0
C89 C 0.5058 0.96939 0.76344 0.0
H90 H 0.51746 0.96173 0.82347 0.0
H91 H 0.51612 0.98596 0.72959 0.0
H92 H 0.48693 0.97662 0.79139 0.0
O93 O 0.47189 0.87866 0.83597 0.0
O94 O 0.4702 0.85663 0.70057 0.0
H95 H 0.46577 0.93428 0.44888 0.0
H96 H 0.49554 0.91928 0.41432 0.0
C97 C 0.4803 0.91933 0.46981 0.0
H98 H 0.47037 0.90024 0.47328 0.0
H99 H 0.46607 0.84075 0.49744 0.0
O100 O 0.50202 0.92237 0.94745 0.0
C101 C 0.46137 0.86147 0.78311 0.0
Co102 Co 0.3473 0.25323 0.10281 0.0
Co103 Co 0.37796 0.25166 0.91231 0.0
C104 C 0.38578 0.2943 0.05948 0.0
O105 O 0.36826 0.28477 0.11229 0.0
O106 O 0.39112 0.28383 0.97974 0.0
C107 C 0.32592 0.27172 0.27138 0.0
O108 O 0.3249 0.29446 0.22914 0.0
C109 C 0.37778 0.27099 0.72085 0.0
C110 C 0.39437 0.23801 0.64122 0.0
C111 C 0.38045 0.26102 0.62942 0.0
N112 N 0.38808 0.25389 0.78247 0.0
N113 N 0.39884 0.23467 0.73435 0.0
C114 C 0.36608 0.29631 0.75159 0.0
H115 H 0.3781 0.30489 0.809 0.0
H116 H 0.3464 0.29285 0.78159 0.0
H117 H 0.36501 0.3103 0.6918 0.0
C118 C 0.30181 0.25031 0.96986 0.0
N119 N 0.32748 0.25174 0.9902 0.0
N120 N 0.34092 0.24709 0.91277 0.0
C121 C 0.32431 0.24013 0.84323 0.0
C122 C 0.29906 0.24287 0.87562 0.0
C123 C 0.28058 0.2544 0.04075 0.0
H124 H 0.28164 0.23886 0.09522 0.0
H125 H 0.28358 0.27329 0.07736 0.0
H126 H 0.26109 0.25398 0.00669 0.0
O127 O 0.3721 0.22329 0.11031 0.0
O128 O 0.39402 0.22138 0.97464 0.0
H129 H 0.35139 0.21769 0.76059 0.0
H130 H 0.31785 0.21181 0.73269 0.0
C131 C 0.3321 0.22702 0.75286 0.0
H132 H 0.33241 0.24131 0.69477 0.0
H133 H 0.40698 0.2181 0.76526 0.0
O134 O 0.32697 0.25133 0.2206 0.0
C135 C 0.38939 0.21282 0.05774 0.0
Co136 Co 0.00151 0.90232 0.66688 0.0
Co137 Co 0.00145 0.87102 0.85781 0.0
C138 C 0.96185 0.86105 0.70622 0.0
O139 O 0.97238 0.8783 0.65507 0.0
O140 O 0.96999 0.85658 0.78995 0.0
C141 C 0.98062 0.92001 0.49728 0.0
O142 O 0.95831 0.91869 0.54263 0.0
C143 C 0.98346 0.86913 0.05218 0.0
C144 C 0.01637 0.84981 0.12394 0.0
C145 C 0.99391 0.86413 0.14135 0.0
N146 N 0.99968 0.85934 0.98625 0.0
N147 N 0.01874 0.84686 0.02958 0.0
C148 C 0.96081 0.88639 0.02868 0.0
H149 H 0.96112 0.89207 0.95292 0.0
H150 H 0.96064 0.904 0.07427 0.0
H151 H 0.94248 0.87552 0.04153 0.0
C152 C 0.00149 0.94749 0.80088 0.0
N153 N 0.00074 0.9218 0.78072 0.0
N154 N 0.00381 0.90846 0.85961 0.0
C155 C 0.00831 0.92534 0.9312 0.0
C156 C 0.00595 0.95044 0.8975 0.0
C157 C 0.99889 0.96855 0.7285 0.0
H158 H 0.98489 0.96253 0.67271 0.0
H159 H 0.99246 0.98706 0.76175 0.0
H160 H 0.0181 0.97174 0.69435 0.0
O161 O 0.03306 0.88031 0.66256 0.0
O162 O 0.03293 0.85658 0.79416 0.0
H163 H 0.03504 0.93308 0.04518 0.0
H164 H 0.005 0.91886 0.08077 0.0
C165 C 0.02013 0.91842 0.02493 0.0
H166 H 0.02968 0.89914 0.02189 0.0
H167 H 0.03471 0.83865 0.99492 0.0
O168 O 0.00139 0.92196 0.54617 0.0
C169 C 0.043 0.86262 0.71441 0.0
Co170 Co 0.34583 0.74693 0.904 0.0
Co171 Co 0.37711 0.74977 0.09326 0.0
C172 C 0.38493 0.70666 0.94725 0.0
O173 O 0.36698 0.71564 0.89518 0.0
O174 O 0.39051 0.71753 0.02613 0.0
C175 C 0.32503 0.72843 0.73416 0.0
O176 O 0.32462 0.7055 0.77514 0.0
C177 C 0.37719 0.73071 0.28505 0.0
C178 C 0.3932 0.76403 0.36441 0.0
C179 C 0.37958 0.74084 0.37638 0.0
N180 N 0.38734 0.74787 0.22326 0.0
N181 N 0.39776 0.76731 0.27128 0.0
C182 C 0.36592 0.70517 0.25458 0.0
H183 H 0.37816 0.69668 0.19762 0.0
H184 H 0.34624 0.70829 0.22406 0.0
H185 H 0.36495 0.69126 0.31462 0.0
C186 C 0.30075 0.74924 0.03863 0.0
N187 N 0.32637 0.74851 0.01714 0.0
N188 N 0.33995 0.75386 0.09366 0.0
C189 C 0.32336 0.76063 0.1636 0.0
C190 C 0.2981 0.75701 0.1325 0.0
C191 C 0.27936 0.74423 0.96919 0.0
H192 H 0.28557 0.7293 0.91697 0.0
H193 H 0.26132 0.73789 0.00598 0.0
H194 H 0.27513 0.76251 0.93023 0.0
O195 O 0.37036 0.77694 0.8952 0.0
O196 O 0.39286 0.78008 0.02912 0.0
H197 H 0.31666 0.78941 0.27221 0.0
H198 H 0.33152 0.76028 0.31213 0.0
C199 C 0.33107 0.77426 0.25304 0.0
H200 H 0.35026 0.78377 0.24458 0.0
H201 H 0.40569 0.78396 0.24023 0.0
O202 O 0.32547 0.74864 0.78608 0.0
C203 C 0.38775 0.78802 0.94556 0.0
Co204 Co 0.50147 0.09568 0.14876 0.0
Co205 Co 0.50509 0.12424 0.34317 0.0
C206 C 0.54502 0.13387 0.19859 0.0
O207 O 0.5326 0.11848 0.14446 0.0
O208 O 0.53756 0.13776 0.28363 0.0
C209 C 0.52234 0.07856 0.97966 0.0
O210 O 0.54504 0.07784 0.02254 0.0
C211 C 0.5196 0.1359 0.54103 0.0
C212 C 0.48044 0.13464 0.60514 0.0
C213 C 0.50675 0.13413 0.62815 0.0
N214 N 0.50163 0.13523 0.4716 0.0
N215 N 0.47829 0.13573 0.51059 0.0
C216 C 0.54814 0.13917 0.52231 0.0
H217 H 0.55095 0.15484 0.46918 0.0
H218 H 0.55626 0.12113 0.49076 0.0
H219 H 0.55884 0.14438 0.588 0.0
C220 C 0.49697 0.04898 0.27346 0.0
N221 N 0.50035 0.07472 0.25837 0.0
N222 N 0.5032 0.08666 0.34019 0.0
C223 C 0.5025 0.06863 0.40967 0.0
C224 C 0.49807 0.04429 0.37051 0.0
C225 C 0.49156 0.02973 0.19642 0.0
H226 H 0.47911 0.03878 0.14124 0.0
H227 H 0.51024 0.02406 0.16263 0.0
H228 H 0.4819 0.01205 0.22482 0.0
O229 O 0.47095 0.11838 0.14139 0.0
O230 O 0.47473 0.14031 0.27579 0.0
H231 H 0.49253 0.08353 0.54606 0.0
H232 H 0.51418 0.05593 0.55014 0.0
C233 C 0.50917 0.07388 0.51064 0.0
H234 H 0.52644 0.08653 0.51178 0.0
H235 H 0.4609 0.13427 0.47263 0.0
O236 O 0.5018 0.07629 0.02918 0.0
C237 C 0.46313 0.13608 0.19743 0.0
Co238 Co 0.16065 0.25165 0.3969 0.0
Co239 Co 0.13233 0.25155 0.59113 0.0
C240 C 0.12377 0.29388 0.44583 0.0
O241 O 0.13967 0.28356 0.38831 0.0
O242 O 0.1198 0.28381 0.52695 0.0
C243 C 0.18262 0.27169 0.23293 0.0
O244 O 0.18395 0.29359 0.28065 0.0
C245 C 0.13334 0.27165 0.78134 0.0
C246 C 0.11573 0.23965 0.86338 0.0
C247 C 0.12993 0.26255 0.87334 0.0
N248 N 0.123 0.25422 0.72101 0.0
N249 N 0.11171 0.23556 0.77039 0.0
C250 C 0.14604 0.29634 0.74916 0.0
H251 H 0.13439 0.30512 0.69124 0.0
H252 H 0.16559 0.29196 0.71962 0.0
H253 H 0.14768 0.31056 0.8081 0.0
C254 C 0.2075 0.24872 0.52555 0.0
N255 N 0.18168 0.25026 0.50759 0.0
N256 N 0.16889 0.24605 0.58671 0.0
C257 C 0.18591 0.23915 0.65484 0.0
C258 C 0.21091 0.24152 0.61985 0.0
C259 C 0.22827 0.25279 0.45286 0.0
H260 H 0.22754 0.23663 0.40072 0.0
H261 H 0.22445 0.27115 0.41384 0.0
H262 H 0.24791 0.25343 0.48579 0.0
O263 O 0.1355 0.22149 0.39159 0.0
O264 O 0.11504 0.22216 0.53019 0.0
H265 H 0.15921 0.21738 0.74133 0.0
H266 H 0.19292 0.21195 0.76867 0.0
C267 C 0.17851 0.22685 0.7471 0.0
H268 H 0.17814 0.24169 0.8033 0.0
H269 H 0.10325 0.21898 0.74065 0.0
O270 O 0.18059 0.25047 0.27852 0.0
C271 C 0.11833 0.21237 0.44815 0.0
Co272 Co 0.85084 0.24814 0.41082 0.0
Co273 Co 0.87978 0.2495 0.60385 0.0
C274 C 0.88863 0.20685 0.45886 0.0
O275 O 0.87216 0.21678 0.40274 0.0
O276 O 0.89311 0.21718 0.53939 0.0
C277 C 0.8295 0.22794 0.24592 0.0
O278 O 0.82878 0.20585 0.29252 0.0
C279 C 0.87881 0.22971 0.79432 0.0
C280 C 0.8957 0.26216 0.87619 0.0
C281 C 0.88189 0.23903 0.88623 0.0
N282 N 0.889 0.24719 0.73391 0.0
N283 N 0.89983 0.26615 0.78322 0.0
C284 C 0.86664 0.20472 0.7623 0.0
H285 H 0.87846 0.19615 0.70441 0.0
H286 H 0.84699 0.20864 0.73282 0.0
H287 H 0.86531 0.19053 0.82136 0.0
C288 C 0.80433 0.2497 0.53937 0.0
N289 N 0.83015 0.24907 0.5213 0.0
N290 N 0.8429 0.25396 0.59998 0.0
C291 C 0.82568 0.26039 0.66811 0.0
C292 C 0.80075 0.25695 0.63344 0.0
C293 C 0.78369 0.24472 0.46689 0.0
H294 H 0.78743 0.22574 0.43187 0.0
H295 H 0.76396 0.24474 0.49918 0.0
H296 H 0.78472 0.26001 0.41149 0.0
O297 O 0.87524 0.27865 0.40573 0.0
O298 O 0.89633 0.27966 0.54323 0.0
H299 H 0.85183 0.28318 0.7536 0.0
H300 H 0.81789 0.28861 0.77751 0.0
C301 C 0.83258 0.27361 0.75923 0.0
H302 H 0.83273 0.25934 0.81739 0.0
H303 H 0.90803 0.28283 0.75337 0.0
O304 O 0.83086 0.24905 0.29254 0.0
C305 C 0.89214 0.28887 0.46084 0.0
Co306 Co 0.66074 0.75243 0.88376 0.0
Co307 Co 0.62964 0.75081 0.07362 0.0
C308 C 0.62094 0.79258 0.92567 0.0
O309 O 0.63857 0.78311 0.87318 0.0
O310 O 0.61594 0.78263 0.00642 0.0
C311 C 0.67978 0.77051 0.71098 0.0
O312 O 0.67806 0.79384 0.74864 0.0
C313 C 0.62896 0.76747 0.26859 0.0
C314 C 0.6071 0.73567 0.33716 0.0
C315 C 0.62344 0.75659 0.35652 0.0
N316 N 0.6179 0.75259 0.2013 0.0
N317 N 0.60392 0.73428 0.2427 0.0
C318 C 0.64737 0.78935 0.24708 0.0
H319 H 0.65118 0.79072 0.16988 0.0
H320 H 0.66599 0.78695 0.28602 0.0
H321 H 0.63846 0.80794 0.27059 0.0
C322 C 0.70588 0.75082 0.01819 0.0
N323 N 0.68019 0.7516 0.99778 0.0
N324 N 0.66682 0.74719 0.07568 0.0
C325 C 0.68364 0.74122 0.14599 0.0
C326 C 0.70874 0.74425 0.11306 0.0
C327 C 0.72708 0.7549 0.94723 0.0
H328 H 0.73024 0.73648 0.90771 0.0
H329 H 0.7212 0.77009 0.89558 0.0
H330 H 0.74559 0.76047 0.98263 0.0
O331 O 0.63694 0.72173 0.875 0.0
O332 O 0.61484 0.72 0.01049 0.0
H333 H 0.65655 0.72063 0.23586 0.0
H334 H 0.6902 0.71252 0.25396 0.0
C335 C 0.67653 0.72869 0.23827 0.0
H336 H 0.67858 0.74292 0.29677 0.0
H337 H 0.59439 0.71933 0.20651 0.0
O338 O 0.68154 0.75108 0.7664 0.0
C339 C 0.61998 0.71106 0.92838 0.0
Co340 Co 0.66132 0.24539 0.10424 0.0
Co341 Co 0.63178 0.25009 0.91277 0.0
C342 C 0.6226 0.20574 0.05178 0.0
O343 O 0.63991 0.21412 0.10798 0.0
O344 O 0.61783 0.21752 0.97419 0.0
C345 C 0.68156 0.22482 0.27072 0.0
O346 O 0.68071 0.2024 0.22618 0.0
C347 C 0.63262 0.23107 0.72164 0.0
C348 C 0.61644 0.2639 0.64007 0.0
C349 C 0.62987 0.24056 0.62998 0.0
N350 N 0.62258 0.24859 0.78228 0.0
N351 N 0.6122 0.26782 0.73313 0.0
C352 C 0.64447 0.20588 0.75305 0.0
H353 H 0.63225 0.1971 0.80936 0.0
H354 H 0.66395 0.20957 0.78432 0.0
H355 H 0.64612 0.19193 0.69325 0.0
C356 C 0.70742 0.24812 0.97423 0.0
N357 N 0.68166 0.2477 0.99335 0.0
N358 N 0.66874 0.25395 0.91636 0.0
C359 C 0.68586 0.26102 0.84871 0.0
C360 C 0.71085 0.25662 0.88148 0.0
C361 C 0.72816 0.24173 0.04478 0.0
H362 H 0.72729 0.25593 0.10396 0.0
H363 H 0.72439 0.22214 0.07501 0.0
H364 H 0.74783 0.24228 0.01214 0.0
O365 O 0.63683 0.2756 0.11499 0.0
O366 O 0.61578 0.27987 0.97815 0.0
H367 H 0.65967 0.28506 0.76825 0.0
H368 H 0.69355 0.29047 0.74363 0.0
C369 C 0.6788 0.27538 0.76011 0.0
H370 H 0.67827 0.26185 0.69959 0.0
H371 H 0.60423 0.2846 0.76318 0.0
O372 O 0.68148 0.24563 0.22224 0.0
C373 C 0.62002 0.28712 0.06321 0.0
Co374 Co 0.84937 0.74751 0.58267 0.0
Co375 Co 0.87856 0.7463 0.38961 0.0
C376 C 0.8887 0.7878 0.53722 0.0
O377 O 0.87141 0.77845 0.59129 0.0
O378 O 0.89311 0.77757 0.45655 0.0
C379 C 0.83028 0.76758 0.75181 0.0
O380 O 0.82944 0.79007 0.70782 0.0
C381 C 0.88036 0.76567 0.19757 0.0
C382 C 0.89899 0.73313 0.12147 0.0
C383 C 0.88544 0.75622 0.10701 0.0
N384 N 0.88934 0.74839 0.2611 0.0
N385 N 0.90126 0.7294 0.21539 0.0
C386 C 0.86647 0.79019 0.22496 0.0
H387 H 0.87502 0.79818 0.29107 0.0
H388 H 0.84568 0.78592 0.23948 0.0
H389 H 0.86783 0.80494 0.16773 0.0
C390 C 0.80286 0.74668 0.45455 0.0
N391 N 0.82873 0.74716 0.47165 0.0
N392 N 0.84132 0.74321 0.39175 0.0
C393 C 0.82381 0.73785 0.3231 0.0
C394 C 0.79894 0.74073 0.35943 0.0
C395 C 0.78251 0.75058 0.52894 0.0
H396 H 0.78448 0.73515 0.58348 0.0
H397 H 0.78578 0.76955 0.56466 0.0
H398 H 0.76258 0.74996 0.49838 0.0
O399 O 0.87284 0.7164 0.58686 0.0
O400 O 0.89384 0.71537 0.4494 0.0
H401 H 0.84996 0.71879 0.22602 0.0
H402 H 0.81623 0.71283 0.2034 0.0
C403 C 0.83041 0.72779 0.22648 0.0
H404 H 0.82938 0.74389 0.1748 0.0
H405 H 0.90901 0.71288 0.24788 0.0
O406 O 0.82982 0.74684 0.70263 0.0
C407 C 0.88941 0.70593 0.53121 0.0
Co408 Co 0.50365 0.59684 0.83498 0.0
Co409 Co 0.50318 0.6269 0.64313 0.0
C410 C 0.46204 0.63552 0.79186 0.0
O411 O 0.47285 0.6191 0.84591 0.0
O412 O 0.47117 0.64021 0.70962 0.0
C413 C 0.48414 0.57805 0.00507 0.0
O414 O 0.46146 0.57701 0.96225 0.0
C415 C 0.48432 0.62931 0.44976 0.0
C416 C 0.51764 0.64729 0.37608 0.0
C417 C 0.49441 0.6341 0.35977 0.0
N418 N 0.50143 0.63803 0.51462 0.0
N419 N 0.52086 0.64961 0.47024 0.0
C420 C 0.45943 0.61582 0.4754 0.0
H421 H 0.45134 0.62435 0.54134 0.0
H422 H 0.46324 0.59493 0.48941 0.0
H423 H 0.44492 0.61761 0.41745 0.0
C424 C 0.50409 0.55086 0.70362 0.0
N425 N 0.50344 0.57663 0.72268 0.0
N426 N 0.50622 0.58967 0.64303 0.0
C427 C 0.51047 0.57258 0.57211 0.0
C428 C 0.50822 0.54757 0.60694 0.0
C429 C 0.50126 0.53 0.77661 0.0
H430 H 0.48848 0.53678 0.83504 0.0
H431 H 0.49323 0.51194 0.74464 0.0
H432 H 0.52074 0.52555 0.80662 0.0
O433 O 0.53484 0.61971 0.83819 0.0
O434 O 0.53432 0.6423 0.70441 0.0
H435 H 0.53179 0.59823 0.47954 0.0
H436 H 0.5356 0.56414 0.454 0.0
C437 C 0.52154 0.5793 0.47714 0.0
H438 H 0.50577 0.5797 0.42408 0.0
H439 H 0.53738 0.65703 0.5039 0.0
O440 O 0.5047 0.5773 0.9549 0.0
C441 C 0.54465 0.63699 0.78425 0.0
Co442 Co 0.00638 0.40624 0.35093 0.0
Co443 Co 0.00439 0.37536 0.1607 0.0
C444 C 0.04782 0.36826 0.30403 0.0
O445 O 0.038 0.38537 0.35787 0.0
O446 O 0.03744 0.36289 0.22422 0.0
C447 C 0.02432 0.42624 0.52359 0.0
O448 O 0.04753 0.42447 0.48486 0.0
C449 C 0.02071 0.37574 0.96569 0.0
C450 C 0.98838 0.35507 0.89519 0.0
C451 C 0.00967 0.37104 0.87759 0.0
N452 N 0.00578 0.36434 0.03202 0.0
N453 N 0.98711 0.35108 0.98934 0.0
C454 C 0.04247 0.39421 0.98818 0.0
H455 H 0.04395 0.39759 0.06564 0.0
H456 H 0.03972 0.413 0.95077 0.0
H457 H 0.06109 0.3857 0.96305 0.0
C458 C 0.00341 0.45148 0.2181 0.0
N459 N 0.00427 0.42581 0.23814 0.0
N460 N 0.99934 0.41247 0.16061 0.0
C461 C 0.99277 0.42932 0.09124 0.0
C462 C 0.99601 0.45442 0.12404 0.0
C463 C 0.00841 0.47258 0.28871 0.0
H464 H 0.99064 0.47543 0.33225 0.0
H465 H 0.02447 0.46674 0.33689 0.0
H466 H 0.01322 0.49121 0.25291 0.0
O467 O 0.97663 0.38135 0.36046 0.0
O468 O 0.97474 0.35884 0.22626 0.0
H469 H 0.97284 0.40207 0.00036 0.0
H470 H 0.96404 0.43545 0.98287 0.0
C471 C 0.98051 0.42217 0.99859 0.0
H472 H 0.99484 0.42469 0.94066 0.0
H473 H 0.97199 0.34161 0.02473 0.0
O474 O 0.00457 0.42663 0.46927 0.0
C475 C 0.96628 0.36368 0.30932 0.0
Co476 Co 0.50664 0.40231 0.1647 0.0
Co477 Co 0.50438 0.37378 0.35962 0.0
C478 C 0.46349 0.36459 0.21571 0.0
O479 O 0.47561 0.37977 0.16022 0.0
O480 O 0.47156 0.36061 0.29994 0.0
C481 C 0.48543 0.41933 0.99615 0.0
O482 O 0.46287 0.42032 0.03994 0.0
C483 C 0.48845 0.36282 0.55593 0.0
C484 C 0.5271 0.36179 0.62392 0.0
C485 C 0.50068 0.36379 0.64433 0.0
N486 N 0.50694 0.36254 0.48827 0.0
N487 N 0.52991 0.36066 0.52951 0.0
C488 C 0.45994 0.36149 0.53424 0.0
H489 H 0.45652 0.34594 0.48111 0.0
H490 H 0.45341 0.38004 0.50171 0.0
H491 H 0.44836 0.35707 0.59867 0.0
C492 C 0.51011 0.44923 0.28851 0.0
N493 N 0.50779 0.42334 0.27432 0.0
N494 N 0.50676 0.41139 0.35672 0.0
C495 C 0.50833 0.42953 0.42587 0.0
C496 C 0.5107 0.45399 0.38547 0.0
C497 C 0.51246 0.46873 0.2104 0.0
H498 H 0.5257 0.46117 0.15467 0.0
H499 H 0.49301 0.47168 0.17773 0.0
H500 H 0.51984 0.48768 0.2372 0.0
O501 O 0.53722 0.37956 0.15742 0.0
O502 O 0.53466 0.3576 0.2921 0.0
H503 H 0.52176 0.41292 0.55543 0.0
H504 H 0.50246 0.44188 0.572 0.0
C505 C 0.50483 0.42405 0.52875 0.0
H506 H 0.4869 0.41261 0.53656 0.0
H507 H 0.54763 0.36114 0.49329 0.0
O508 O 0.50616 0.42145 0.04473 0.0
C509 C 0.54568 0.36199 0.21276 0.0
Co510 Co 0.00567 0.59102 0.64208 0.0
Co511 Co 0.00213 0.62174 0.8324 0.0
C512 C 0.04545 0.63064 0.69006 0.0
O513 O 0.03649 0.61317 0.6357 0.0
O514 O 0.03467 0.63548 0.76958 0.0
C515 C 0.02443 0.57209 0.4692 0.0
O516 O 0.04757 0.57483 0.50777 0.0
C517 C 0.01835 0.62232 0.02746 0.0
C518 C 0.98523 0.64182 0.09752 0.0
C519 C 0.00717 0.62678 0.11547 0.0
N520 N 0.00295 0.63295 0.96089 0.0
N521 N 0.98377 0.64553 0.00326 0.0
C522 C 0.04082 0.6047 0.0054 0.0
H523 H 0.0424 0.6012 0.92804 0.0
H524 H 0.03883 0.5859 0.04339 0.0
H525 H 0.0591 0.61401 0.03016 0.0
C526 C 0.00353 0.54564 0.77446 0.0
N527 N 0.00395 0.57135 0.75488 0.0
N528 N 0.99854 0.58449 0.83245 0.0
C529 C 0.99221 0.56743 0.90145 0.0
C530 C 0.99601 0.54242 0.8683 0.0
C531 C 0.00886 0.52476 0.70332 0.0
H532 H 0.99169 0.52276 0.65609 0.0
H533 H 0.02577 0.53037 0.65871 0.0
H534 H 0.0126 0.50578 0.73839 0.0
O535 O 0.97505 0.61471 0.63179 0.0
O536 O 0.97197 0.63701 0.7662 0.0
H537 H 0.97156 0.59415 0.99222 0.0
H538 H 0.9638 0.56059 0.01067 0.0
C539 C 0.97986 0.57431 0.99424 0.0
H540 H 0.99435 0.57237 0.05191 0.0
H541 H 0.96828 0.65433 0.96765 0.0
O542 O 0.00477 0.57059 0.52371 0.0
C543 C 0.9639 0.63189 0.68287 0.0
C544 C 0.10272 0.1807 0.3237 0.0
C545 C 0.10052 0.19124 0.4158 0.0
C546 C 0.08471 0.16229 0.28955 0.0
C547 C 0.06414 0.15345 0.34682 0.0
H548 H 0.11816 0.18707 0.27678 0.0
H549 H 0.08684 0.15499 0.21794 0.0
S550 S 0.04829 0.17603 0.58962 0.0
N551 N 0.0751 0.19191 0.56165 0.0
N552 N 0.04164 0.15749 0.49729 0.0
C553 C 0.0617 0.16371 0.43863 0.0
C554 C 0.07979 0.18251 0.47318 0.0
C555 C 0.09754 0.81275 0.69991 0.0
C556 C 0.10222 0.81089 0.6018 0.0
C557 C 0.0791 0.83027 0.73629 0.0
C558 C 0.06491 0.84689 0.67616 0.0
H559 H 0.10726 0.79973 0.74882 0.0
H560 H 0.07545 0.83023 0.81189 0.0
S561 S 0.07206 0.8516 0.41433 0.0
N562 N 0.09271 0.82855 0.44582 0.0
N563 N 0.05836 0.86164 0.5136 0.0
C564 C 0.07055 0.84626 0.57827 0.0
C565 C 0.08909 0.8282 0.54127 0.0
C566 C 0.43766 0.84225 0.92124 0.0
C567 C 0.44014 0.84511 0.82238 0.0
C568 C 0.42005 0.82441 0.96056 0.0
C569 C 0.40392 0.80896 0.90274 0.0
H570 H 0.45018 0.85307 0.9689 0.0
H571 H 0.41955 0.82231 0.03692 0.0
S572 S 0.40099 0.81095 0.63943 0.0
N573 N 0.4237 0.83235 0.66761 0.0
N574 N 0.39036 0.79912 0.74101 0.0
C575 C 0.40525 0.81263 0.80374 0.0
C576 C 0.42343 0.83059 0.76374 0.0
C577 C 0.43671 0.15619 0.06808 0.0
C578 C 0.44199 0.15374 0.16565 0.0
C579 C 0.41913 0.17483 0.03413 0.0
C580 C 0.40576 0.19152 0.09635 0.0
H581 H 0.44698 0.14431 0.01678 0.0
H582 H 0.41636 0.17646 0.95825 0.0
S583 S 0.41104 0.19176 0.35904 0.0
N584 N 0.43136 0.1687 0.32456 0.0
N585 N 0.39801 0.2035 0.26103 0.0
C586 C 0.40996 0.18853 0.19449 0.0
C587 C 0.42816 0.16974 0.22902 0.0
C588 C 0.90314 0.81697 0.67029 0.0
C589 C 0.90597 0.80867 0.57522 0.0
C590 C 0.92109 0.83403 0.71267 0.0
C591 C 0.94228 0.84385 0.66117 0.0
H592 H 0.88734 0.80967 0.7137 0.0
H593 H 0.91842 0.83947 0.78621 0.0
S594 S 0.95945 0.82766 0.4122 0.0
N595 N 0.93226 0.81143 0.43212 0.0
N596 N 0.96566 0.84362 0.51113 0.0
C597 C 0.94518 0.83611 0.56585 0.0
C598 C 0.92711 0.81855 0.52302 0.0
C599 C 0.90704 0.18058 0.32514 0.0
C600 C 0.90506 0.18508 0.4236 0.0
C601 C 0.92512 0.16285 0.28788 0.0
C602 C 0.94169 0.14852 0.3475 0.0
H603 H 0.89533 0.19167 0.27569 0.0
H604 H 0.92654 0.16086 0.21162 0.0
S605 S 0.94258 0.15122 0.6112 0.0
N606 N 0.92 0.17243 0.5802 0.0
N607 N 0.95373 0.13889 0.5111 0.0
C608 C 0.93894 0.1518 0.44651 0.0
C609 C 0.92072 0.17012 0.48427 0.0
C610 C 0.58429 0.16237 0.21897 0.0
C611 C 0.56691 0.14933 0.1584 0.0
C612 C 0.60322 0.17938 0.18303 0.0
C613 C 0.60531 0.18443 0.08502 0.0
H614 H 0.58289 0.15994 0.29506 0.0
H615 H 0.61551 0.18956 0.23329 0.0
S616 S 0.56599 0.15369 0.89508 0.0
N617 N 0.55428 0.14132 0.99424 0.0
N618 N 0.58961 0.17358 0.92757 0.0
C619 C 0.58883 0.17071 0.02328 0.0
C620 C 0.56973 0.15309 0.05969 0.0
C621 C 0.57071 0.84676 0.90979 0.0
C622 C 0.56557 0.84829 0.81165 0.0
C623 C 0.58925 0.82936 0.94621 0.0
C624 C 0.60373 0.8131 0.88591 0.0
H625 H 0.55955 0.85828 0.95961 0.0
H626 H 0.59184 0.82825 0.0223 0.0
S627 S 0.59858 0.81044 0.62309 0.0
N628 N 0.5772 0.83276 0.65481 0.0
N629 N 0.61216 0.80024 0.72234 0.0
C630 C 0.59953 0.8152 0.78724 0.0
C631 C 0.58043 0.83271 0.75041 0.0
C632 C 0.59631 0.68991 0.79462 0.0
C633 C 0.60397 0.68957 0.89027 0.0
C634 C 0.57796 0.67209 0.75984 0.0
C635 C 0.5669 0.65295 0.81898 0.0
H636 H 0.60351 0.70489 0.74734 0.0
H637 H 0.5718 0.67395 0.68674 0.0
S638 S 0.58428 0.64121 0.07136 0.0
N639 N 0.60148 0.66706 0.0411 0.0
N640 N 0.56787 0.63278 0.9755 0.0
C641 C 0.57604 0.65122 0.91316 0.0
C642 C 0.5943 0.66976 0.94891 0.0
C643 C 0.57245 0.34339 0.08124 0.0
C644 C 0.56699 0.34477 0.17899 0.0
C645 C 0.59022 0.32528 0.04493 0.0
C646 C 0.60361 0.308 0.10485 0.0
H647 H 0.5622 0.35573 0.03143 0.0
H648 H 0.59309 0.3245 0.96892 0.0
S649 S 0.59802 0.30495 0.36725 0.0
N650 N 0.57758 0.32821 0.3358 0.0
N651 N 0.61124 0.29434 0.26783 0.0
C652 C 0.59927 0.30992 0.2033 0.0
C653 C 0.58089 0.32821 0.24024 0.0
C654 C 0.92939 0.33217 0.28991 0.0
C655 C 0.94541 0.34706 0.35004 0.0
C656 C 0.91135 0.31432 0.32657 0.0
C657 C 0.90884 0.31033 0.4249 0.0
H658 H 0.93113 0.33392 0.21367 0.0
H659 H 0.90003 0.30283 0.27702 0.0
S660 S 0.94519 0.34542 0.61337 0.0
N661 N 0.95667 0.35751 0.51343 0.0
N662 N 0.92296 0.32385 0.58201 0.0
C663 C 0.9241 0.32575 0.48601 0.0
C664 C 0.9423 0.34413 0.44871 0.0
C665 C 0.90742 0.67928 0.66447 0.0
C666 C 0.90578 0.68414 0.56641 0.0
C667 C 0.92565 0.66168 0.70132 0.0
C668 C 0.94264 0.64782 0.64156 0.0
H669 H 0.89531 0.68995 0.71386 0.0
H670 H 0.92682 0.6594 0.77752 0.0
S671 S 0.94443 0.6513 0.37858 0.0
N672 N 0.92144 0.67208 0.40957 0.0
N673 N 0.9554 0.63877 0.47855 0.0
C674 C 0.94018 0.65131 0.5429 0.0
C675 C 0.92183 0.6695 0.50544 0.0
C676 C 0.42185 0.32692 0.04055 0.0
C677 C 0.40268 0.31541 0.09813 0.0
C678 C 0.44067 0.34371 0.07883 0.0
C679 C 0.44138 0.34937 0.17661 0.0
H680 H 0.42291 0.32229 0.96574 0.0
H681 H 0.45548 0.35137 0.03176 0.0
S682 S 0.39387 0.3271 0.35678 0.0
N683 N 0.38413 0.31325 0.25733 0.0
N684 N 0.41994 0.34422 0.32857 0.0
C685 C 0.42166 0.33912 0.23427 0.0
C686 C 0.40218 0.32236 0.1952 0.0
C687 C 0.42049 0.67348 0.96657 0.0
C688 C 0.40189 0.68564 0.9084 0.0
C689 C 0.43908 0.6564 0.92854 0.0
C690 C 0.44023 0.65121 0.83047 0.0
H691 H 0.42118 0.67768 0.04177 0.0
H692 H 0.45334 0.64805 0.97617 0.0
S693 S 0.39448 0.67566 0.64818 0.0
N694 N 0.38443 0.68915 0.74787 0.0
N695 N 0.41998 0.65779 0.67716 0.0
C696 C 0.42118 0.6623 0.77199 0.0
C697 C 0.40186 0.67926 0.81076 0.0
C698 C 0.10071 0.67995 0.6837 0.0
C699 C 0.10321 0.68549 0.58614 0.0
C700 C 0.08258 0.66163 0.71696 0.0
C701 C 0.06654 0.64779 0.65391 0.0
H702 H 0.11204 0.69064 0.73544 0.0
H703 H 0.08077 0.65869 0.79269 0.0
S704 S 0.06615 0.65428 0.39136 0.0
N705 N 0.08871 0.67495 0.42692 0.0
N706 N 0.05483 0.64047 0.48856 0.0
C707 C 0.06955 0.65243 0.55587 0.0
C708 C 0.0878 0.67128 0.52225 0.0
C709 C 0.10496 0.3211 0.31474 0.0
C710 C 0.10713 0.31576 0.41259 0.0
C711 C 0.08632 0.3387 0.2799 0.0
C712 C 0.06945 0.35202 0.34158 0.0
H713 H 0.11694 0.31077 0.26395 0.0
H714 H 0.08474 0.34145 0.20401 0.0
S715 S 0.06798 0.34593 0.60419 0.0
N716 N 0.09146 0.32611 0.57057 0.0
N717 N 0.05669 0.35917 0.50595 0.0
C718 C 0.0722 0.3477 0.43989 0.0
C719 C 0.09096 0.32961 0.47512 0.0
C720 C 0.99244 0.99881 0.09452 0.0
C721 C 0.01112 0.01829 0.0787 0.0
C722 C 0.99082 0.97707 0.03452 0.0
C723 C 0.00756 0.97429 0.95606 0.0
H724 H 0.97848 0.0008 0.15165 0.0
H725 H 0.97609 0.96246 0.04869 0.0
S726 S 0.06148 0.01852 0.89007 0.0
N727 N 0.04811 0.03234 0.98398 0.0
N728 N 0.04456 0.99171 0.87009 0.0
C729 C 0.02679 0.99318 0.94121 0.0
C730 C 0.02874 0.01508 0.00308 0.0
C731 C 0.26485 0.73394 0.22953 0.0
C732 C 0.27462 0.75745 0.19306 0.0
C733 C 0.24445 0.73381 0.29586 0.0
C734 C 0.23344 0.7572 0.32843 0.0
H735 H 0.27321 0.71556 0.20725 0.0
H736 H 0.23688 0.71531 0.32041 0.0
S737 S 0.25228 0.82383 0.25537 0.0
N738 N 0.27181 0.80461 0.19389 0.0
N739 N 0.23384 0.80439 0.32021 0.0
C740 C 0.24326 0.7808 0.29335 0.0
C741 C 0.26379 0.78092 0.22513 0.0
C742 C 0.48022 0.01844 0.50489 0.0
C743 C 0.49546 0.01951 0.42392 0.0
C744 C 0.48109 0.99646 0.56121 0.0
C745 C 0.49647 0.97492 0.53617 0.0
H746 H 0.46819 0.03477 0.52596 0.0
H747 H 0.46927 0.99592 0.62476 0.0
S748 S 0.54361 0.96721 0.30421 0.0
N749 N 0.5268 0.99444 0.32716 0.0
N750 N 0.52225 0.98542 0.37169 0.0
C751 C 0.51231 0.97271 0.45348 0.0
C752 C 0.51162 0.9956 0.39961 0.0
C753 C 0.26524 0.26515 0.77895 0.0
C754 C 0.27546 0.24188 0.81577 0.0
C755 C 0.24511 0.26479 0.71159 0.0
C756 C 0.23483 0.24116 0.67814 0.0
H757 H 0.27311 0.28372 0.80155 0.0
H758 H 0.23722 0.28312 0.68671 0.0
S759 S 0.2551 0.17499 0.75161 0.0
N760 N 0.27383 0.19467 0.81446 0.0
N761 N 0.2364 0.19399 0.68601 0.0
C762 C 0.24503 0.2178 0.71384 0.0
C763 C 0.26527 0.21816 0.78319 0.0
C764 C 0.74519 0.28013 0.78909 0.0
C765 C 0.73467 0.25661 0.82268 0.0
C766 C 0.76603 0.2802 0.72457 0.0
C767 C 0.77677 0.25676 0.69124 0.0
H768 H 0.73718 0.29854 0.8126 0.0
H769 H 0.77396 0.29867 0.70127 0.0
S770 S 0.75615 0.19013 0.75759 0.0
N771 N 0.73635 0.20941 0.81769 0.0
N772 N 0.77569 0.20956 0.69714 0.0
C773 C 0.76642 0.23319 0.7243 0.0
C774 C 0.74532 0.23311 0.79008 0.0
C775 C 0.74478 0.71987 0.19258 0.0
C776 C 0.73242 0.74361 0.17227 0.0
C777 C 0.76564 0.71877 0.25695 0.0
C778 C 0.77463 0.74134 0.30312 0.0
H779 H 0.73812 0.70209 0.15915 0.0
H780 H 0.77494 0.7002 0.27014 0.0
S781 S 0.74772 0.80786 0.27753 0.0
N782 N 0.72967 0.78983 0.20609 0.0
N783 N 0.76914 0.78786 0.32587 0.0
C784 C 0.76201 0.76503 0.28471 0.0
C785 C 0.74084 0.76614 0.21937 0.0
C786 C 0.52698 0.50444 0.56782 0.0
C787 C 0.50818 0.52362 0.54897 0.0
C788 C 0.52917 0.48254 0.5114 0.0
C789 C 0.51183 0.4791 0.43726 0.0
H790 H 0.54047 0.50689 0.62623 0.0
H791 H 0.54381 0.46799 0.52746 0.0
S792 S 0.4526 0.52299 0.3414 0.0
N793 N 0.47873 0.50864 0.39803 0.0
N794 N 0.47401 0.49874 0.35609 0.0
C795 C 0.49171 0.50034 0.42044 0.0
C796 C 0.48966 0.52329 0.47371 0.0
C797 C 0.97259 0.50864 0.96326 0.0
C798 C 0.99608 0.51874 0.92754 0.0
C799 C 0.97261 0.4884 0.03014 0.0
C800 C 0.99613 0.47794 0.06402 0.0
H801 H 0.95413 0.51661 0.93993 0.0
H802 H 0.95417 0.48074 0.05498 0.0
S803 S 0.06268 0.49754 0.99224 0.0
N804 N 0.04331 0.51687 0.9307 0.0
N805 N 0.04334 0.47868 0.05585 0.0
C806 C 0.01966 0.48783 0.02864 0.0
C807 C 0.01964 0.50827 0.96036 0.0
C808 C 0.00991 0.12397 0.70745 0.0
C809 C 0.993 0.12068 0.78507 0.0
C810 C 0.00757 0.10908 0.62518 0.0
C811 C 0.98775 0.09046 0.61526 0.0
H812 H 0.02609 0.13739 0.71208 0.0
H813 H 0.0215 0.11223 0.56879 0.0
S814 S 0.93706 0.07433 0.792 0.0
N815 N 0.95493 0.09696 0.84359 0.0
N816 N 0.94997 0.07007 0.68608 0.0
C817 C 0.96984 0.08755 0.68934 0.0
C818 C 0.97251 0.1024 0.77477 0.0
C819 C 0.15164 0.75838 0.00218 0.0
C820 C 0.13667 0.7386 0.04423 0.0
C821 C 0.16599 0.75379 0.91962 0.0
C822 C 0.16585 0.72925 0.8752 0.0
H823 H 0.15226 0.77767 0.03331 0.0
H824 H 0.17664 0.76991 0.88878 0.0
S825 S 0.13035 0.67058 0.96038 0.0
N826 N 0.12298 0.69346 0.03811 0.0
N827 N 0.15016 0.68443 0.88317 0.0
C828 C 0.15166 0.70896 0.91893 0.0
C829 C 0.13696 0.71376 0.00316 0.0
C830 C 0.49583 0.90858 0.13774 0.0
C831 C 0.5205 0.91007 0.09446 0.0
C832 C 0.49191 0.894 0.22026 0.0
C833 C 0.5125 0.88042 0.26357 0.0
H834 H 0.47913 0.91809 0.10605 0.0
H835 H 0.4725 0.89336 0.25038 0.0
S836 S 0.58112 0.87862 0.18272 0.0
N837 N 0.56625 0.89745 0.10487 0.0
N838 N 0.5585 0.86974 0.25931 0.0
C839 C 0.53742 0.88235 0.22351 0.0
C840 C 0.54153 0.89731 0.13939 0.0
C841 C 0.36487 0.26121 0.36773 0.0
C842 C 0.33922 0.27063 0.36351 0.0
C843 C 0.37837 0.25999 0.45366 0.0
C844 C 0.36671 0.26779 0.53944 0.0
H845 H 0.37464 0.25478 0.30379 0.0
H846 H 0.39798 0.25219 0.45308 0.0
S847 S 0.29898 0.29339 0.56399 0.0
N848 N 0.3025 0.28829 0.44928 0.0
N849 N 0.32697 0.28492 0.61255 0.0
C850 C 0.34091 0.27763 0.53532 0.0
C851 C 0.32739 0.27928 0.44685 0.0
C852 C 0.00733 0.90548 0.35863 0.0
C853 C 0.9826 0.90884 0.40001 0.0
C854 C 0.01058 0.89092 0.2756 0.0
C855 C 0.98926 0.8792 0.22957 0.0
H856 H 0.02456 0.91347 0.39209 0.0
H857 H 0.03009 0.88884 0.24724 0.0
S858 S 0.92023 0.88246 0.30577 0.0
N859 N 0.93609 0.8998 0.38567 0.0
N860 N 0.94252 0.87212 0.23031 0.0
C861 C 0.96432 0.88296 0.26801 0.0
C862 C 0.96092 0.89789 0.35282 0.0
C863 C 0.3637 0.74026 0.6381 0.0
C864 C 0.33827 0.73025 0.64199 0.0
C865 C 0.37722 0.74191 0.55225 0.0
C866 C 0.3658 0.73395 0.46624 0.0
H867 H 0.37333 0.74672 0.70229 0.0
H868 H 0.39669 0.75008 0.55313 0.0
S869 S 0.29861 0.707 0.44071 0.0
N870 N 0.30199 0.71196 0.55556 0.0
N871 N 0.32642 0.71619 0.39249 0.0
C872 C 0.34018 0.72362 0.46998 0.0
C873 C 0.32667 0.72153 0.55835 0.0
C874 C 0.49971 0.12838 0.80046 0.0
C875 C 0.51569 0.12363 0.72116 0.0
C876 C 0.50185 0.11354 0.88306 0.0
C877 C 0.52045 0.09359 0.89093 0.0
H878 H 0.48442 0.14289 0.79706 0.0
H879 H 0.4887 0.11774 0.94113 0.0
S880 S 0.56924 0.07465 0.71093 0.0
N881 N 0.55228 0.09812 0.66037 0.0
N882 N 0.55671 0.07117 0.81779 0.0
C883 C 0.53777 0.08966 0.81577 0.0
C884 C 0.53538 0.10449 0.73044 0.0
C885 C 0.13011 0.26466 0.04863 0.0
C886 C 0.14311 0.27013 0.96317 0.0
C887 C 0.14307 0.26577 0.13558 0.0
C888 C 0.16953 0.27252 0.14068 0.0
H889 H 0.10993 0.25844 0.04808 0.0
H890 H 0.13242 0.26072 0.19931 0.0
S891 S 0.21277 0.29005 0.94154 0.0
N892 N 0.18442 0.28358 0.89154 0.0
N893 N 0.20821 0.28614 0.05641 0.0
C894 C 0.18262 0.27933 0.05765 0.0
C895 C 0.16953 0.27805 0.96834 0.0
C896 C 0.86882 0.23537 0.14858 0.0
C897 C 0.84257 0.2278 0.1536 0.0
C898 C 0.88171 0.23698 0.06161 0.0
C899 C 0.86886 0.23122 0.97606 0.0
H900 H 0.87933 0.24061 0.21243 0.0
H901 H 0.90172 0.24374 0.06115 0.0
S902 S 0.79977 0.20956 0.95423 0.0
N903 N 0.80426 0.21332 0.06916 0.0
N904 N 0.82789 0.21688 0.90419 0.0
C905 C 0.84266 0.22262 0.9811 0.0
C906 C 0.82966 0.22081 0.07043 0.0
C907 C 0.66113 0.78786 0.55943 0.0
C908 C 0.66887 0.76632 0.61447 0.0
C909 C 0.6463 0.7847 0.47668 0.0
C910 C 0.63877 0.75987 0.4451 0.0
H911 H 0.6656 0.80749 0.58235 0.0
H912 H 0.64003 0.80194 0.4391 0.0
S913 S 0.65642 0.69678 0.5568 0.0
N914 N 0.66949 0.719 0.62656 0.0
N915 N 0.64198 0.71313 0.4711 0.0
C916 C 0.64731 0.73807 0.49707 0.0
C917 C 0.66241 0.74126 0.58121 0.0
C918 C 0.62985 0.23708 0.45463 0.0
C919 C 0.64284 0.23232 0.54064 0.0
C920 C 0.64252 0.23407 0.36762 0.0
C921 C 0.6687 0.22621 0.36327 0.0
H922 H 0.60987 0.24391 0.4546 0.0
H923 H 0.6319 0.2384 0.30314 0.0
S924 S 0.712 0.21115 0.5646 0.0
N925 N 0.68399 0.2192 0.614 0.0
N926 N 0.70724 0.21314 0.44923 0.0
C927 C 0.68184 0.22057 0.44727 0.0
C928 C 0.66905 0.22373 0.53646 0.0
C929 C 0.84743 0.77347 0.01177 0.0
C930 C 0.87303 0.76335 0.01535 0.0
C931 C 0.83372 0.77527 0.92599 0.0
C932 C 0.84495 0.76663 0.84125 0.0
H933 H 0.83717 0.77894 0.07534 0.0
H934 H 0.81393 0.78261 0.92647 0.0
S935 S 0.91241 0.7423 0.80857 0.0
N936 N 0.90987 0.74752 0.92363 0.0
N937 N 0.88384 0.75022 0.76334 0.0
C938 C 0.87084 0.75775 0.84262 0.0
C939 C 0.88492 0.75629 0.9294 0.0
C940 C 0.47671 0.59637 0.26354 0.0
C941 C 0.48782 0.62155 0.2676 0.0
C942 C 0.47529 0.58242 0.17815 0.0
C943 C 0.48537 0.59288 0.09427 0.0
H944 H 0.47007 0.58657 0.32651 0.0
H945 H 0.467 0.56302 0.17827 0.0
S946 S 0.5124 0.65928 0.06202 0.0
N947 N 0.50592 0.65738 0.17635 0.0
N948 N 0.50409 0.63078 0.01709 0.0
C949 C 0.49532 0.61837 0.09586 0.0
C950 C 0.49631 0.63276 0.18214 0.0
C951 C 0.03843 0.39162 0.7551 0.0
C952 C 0.01337 0.38694 0.79109 0.0
C953 C 0.04204 0.40627 0.67226 0.0
C954 C 0.02069 0.4167 0.62212 0.0
H955 H 0.05531 0.38314 0.78919 0.0
H956 H 0.06166 0.40824 0.64494 0.0
S957 S 0.9515 0.41447 0.69882 0.0
N958 N 0.96719 0.397 0.77858 0.0
N959 N 0.9739 0.42451 0.62334 0.0
C960 C 0.99569 0.4138 0.6618 0.0
C961 C 0.99203 0.39879 0.74573 0.0
C962 C 0.5064 0.3685 0.81786 0.0
C963 C 0.4915 0.37448 0.73689 0.0
C964 C 0.5043 0.38311 0.9011 0.0
C965 C 0.48687 0.40413 0.9077 0.0
H966 H 0.52088 0.35317 0.8154 0.0
H967 H 0.51666 0.37803 0.9605 0.0
S968 S 0.44107 0.42663 0.72302 0.0
N969 N 0.45704 0.40233 0.67325 0.0
N970 N 0.45274 0.42894 0.8316 0.0
C971 C 0.4705 0.40931 0.83084 0.0
C972 C 0.47283 0.39467 0.74498 0.0
C973 C 0.04111 0.59321 0.32105 0.0
C974 C 0.02027 0.58176 0.37111 0.0
C975 C 0.03681 0.60773 0.23834 0.0
C976 C 0.01157 0.61124 0.20236 0.0
H977 H 0.06081 0.59208 0.34818 0.0
H978 H 0.05329 0.61695 0.20417 0.0
S979 S 0.95097 0.58114 0.29525 0.0
N980 N 0.97384 0.57202 0.37042 0.0
N981 N 0.96586 0.59925 0.21532 0.0
C982 C 0.99078 0.5985 0.2479 0.0
C983 C 0.99513 0.58364 0.33175 0.0
loop_
_geom_bond_atom_site_label_1
_geom_bond_atom_site_label_2
_geom_bond_distance
_geom_bond_site_symmetry_2
_ccdc_geom_bond_type
Co0 O3 1.970 1_455 S
Co0 N17 1.989 . S
Co0 O25 1.967 . S
Co0 O32 1.920 . S
Co1 O4 1.966 1_455 S
Co1 N10 2.031 . S
Co1 N18 1.993 . S
Co1 O26 1.941 . S
C2 O3 1.258 . S
C2 O4 1.263 . S
O3 Co0 1.970 1_655 S
O3 C2 1.258 . S
O4 Co1 1.966 1_655 S
O4 C2 1.263 . S
C5 O6 1.235 . S
C5 O32 1.289 1_655 S
O6 C5 1.235 . S
C7 C9 1.400 . S
C7 N10 1.346 1_656 S
C7 C12 1.501 . S
C8 C9 1.387 1_455 S
C8 N11 1.341 . S
C9 C7 1.400 . S
C9 C8 1.387 1_655 S
N10 Co1 2.031 . S
N10 C7 1.346 1_454 S
N10 N11 1.360 1_554 S
N11 C8 1.341 . S
N11 N10 1.360 1_556 S
N11 H31 0.862 . S
C12 C7 1.501 . S
C12 H13 0.961 1_556 S
C12 H14 0.961 . S
C12 H15 0.960 . S
H13 C12 0.961 1_554 S
H14 C12 0.961 . S
H15 C12 0.960 . S
C16 N17 1.342 . S
C16 C20 1.401 . S
C16 C21 1.499 . S
N17 Co0 1.989 . S
N17 C16 1.342 . S
N17 N18 1.388 . S
N18 Co1 1.993 . S
N18 N17 1.388 . S
N18 C19 1.346 . S
C19 N18 1.346 . S
C19 C20 1.396 . S
C19 C29 1.510 . S
C20 C16 1.401 . S
C20 C19 1.396 . S
C21 C16 1.499 . S
C21 H22 0.959 . S
C21 H23 0.960 . S
C21 H24 0.961 . S
H22 C21 0.959 . S
H23 C21 0.960 . S
H24 C21 0.961 . S
O25 Co0 1.967 . S
O25 C33 1.258 . S
O26 Co1 1.941 . S
O26 C33 1.266 . S
H27 C29 0.959 1_556 S
H28 C29 0.961 1_656 S
C29 C19 1.510 . S
C29 H27 0.959 1_554 S
C29 H28 0.961 1_454 S
C29 H30 0.960 1_554 S
H30 C29 0.960 1_556 S
H31 N11 0.862 . S
O32 Co0 1.920 . S
O32 C5 1.289 1_455 S
C33 O25 1.258 . S
C33 O26 1.266 . S
Co34 O37 1.970 . S
Co34 N51 1.989 . S
Co34 O59 1.967 . S
Co34 O66 1.920 . S
Co35 O38 1.966 . S
Co35 N44 2.022 . S
Co35 N52 1.993 . S
Co35 O60 1.941 . S
C36 O37 1.258 . S
C36 O38 1.263 . S
O37 Co34 1.970 . S
O37 C36 1.258 . S
O38 Co35 1.966 . S
O38 C36 1.263 . S
C39 O40 1.235 . S
C39 O66 1.289 . S
O40 C39 1.235 . S
C41 C43 1.400 . S
C41 N44 1.351 . S
C41 C46 1.501 . S
C42 C43 1.387 . S
C42 N45 1.341 . S
C43 C41 1.400 . S
C43 C42 1.387 . S
N44 Co35 2.022 . S
N44 C41 1.351 . S
N44 N45 1.365 . S
N45 C42 1.341 . S
N45 N44 1.365 . S
N45 H65 0.862 . S
C46 C41 1.501 . S
C46 H47 0.961 . S
C46 H48 0.961 . S
C46 H49 0.960 . S
H47 C46 0.961 . S
H48 C46 0.961 . S
H49 C46 0.960 . S
C50 N51 1.342 . S
C50 C54 1.401 . S
C50 C55 1.499 . S
N51 Co34 1.989 . S
N51 C50 1.342 . S
N51 N52 1.388 . S
N52 Co35 1.993 . S
N52 N51 1.388 . S
N52 C53 1.346 . S
C53 N52 1.346 . S
C53 C54 1.396 . S
C53 C63 1.510 . S
C54 C50 1.401 . S
C54 C53 1.396 . S
C55 C50 1.499 . S
C55 H56 0.959 . S
C55 H57 0.960 . S
C55 H58 0.961 . S
H56 C55 0.959 . S
H57 C55 0.960 . S
H58 C55 0.961 . S
O59 Co34 1.967 . S
O59 C67 1.258 . S
O60 Co35 1.941 . S
O60 C67 1.266 . S
H61 C63 0.959 . S
H62 C63 0.961 . S
C63 C53 1.510 . S
C63 H61 0.959 . S
C63 H62 0.961 . S
C63 H64 0.960 . S
H64 C63 0.960 . S
H65 N45 0.862 . S
O66 Co34 1.920 . S
O66 C39 1.289 . S
C67 O59 1.258 . S
C67 O60 1.266 . S
Co68 O71 1.970 . S
Co68 N85 1.989 . S
Co68 O93 1.967 . S
Co68 O100 1.920 . S
Co69 O72 1.966 . S
Co69 N78 2.022 . S
Co69 N86 1.993 . S
Co69 O94 1.941 . S
C70 O71 1.258 . S
C70 O72 1.263 . S
O71 Co68 1.970 . S
O71 C70 1.258 . S
O72 Co69 1.966 . S
O72 C70 1.263 . S
C73 O74 1.235 1_554 S
C73 O100 1.289 1_554 S
O74 C73 1.235 1_556 S
C75 C77 1.400 . S
C75 N78 1.351 . S
C75 C80 1.501 . S
C76 C77 1.387 . S
C76 N79 1.341 . S
C77 C75 1.400 . S
C77 C76 1.387 . S
N78 Co69 2.022 . S
N78 C75 1.351 . S
N78 N79 1.365 . S
N79 C76 1.341 . S
N79 N78 1.365 . S
N79 H99 0.862 . S
C80 C75 1.501 . S
C80 H81 0.961 . S
C80 H82 0.961 . S
C80 H83 0.960 . S
H81 C80 0.961 . S
H82 C80 0.961 . S
H83 C80 0.960 . S
C84 N85 1.342 . S
C84 C88 1.401 . S
C84 C89 1.499 . S
N85 Co68 1.989 . S
N85 C84 1.342 . S
N85 N86 1.388 . S
N86 Co69 1.993 . S
N86 N85 1.388 . S
N86 C87 1.346 . S
C87 N86 1.346 . S
C87 C88 1.396 . S
C87 C97 1.510 . S
C88 C84 1.401 . S
C88 C87 1.396 . S
C89 C84 1.499 . S
C89 H90 0.959 . S
C89 H91 0.960 . S
C89 H92 0.961 . S
H90 C89 0.959 . S
H91 C89 0.960 . S
H92 C89 0.961 . S
O93 Co68 1.967 . S
O93 C101 1.258 . S
O94 Co69 1.941 . S
O94 C101 1.266 . S
H95 C97 0.959 . S
H96 C97 0.961 . S
C97 C87 1.510 . S
C97 H95 0.959 . S
C97 H96 0.961 . S
C97 H98 0.960 . S
H98 C97 0.960 . S
H99 N79 0.862 . S
O100 Co68 1.920 . S
O100 C73 1.289 1_556 S
C101 O93 1.258 . S
C101 O94 1.266 . S
Co102 O105 1.970 . S
Co102 N119 1.989 . S
Co102 O127 1.967 . S
Co102 O134 1.920 . S
Co103 O106 1.966 . S
Co103 N112 2.022 . S
Co103 N120 1.993 . S
Co103 O128 1.941 . S
C104 O105 1.258 . S
C104 O106 1.263 1_554 S
O105 Co102 1.970 . S
O105 C104 1.258 . S
O106 Co103 1.966 . S
O106 C104 1.263 1_556 S
C107 O108 1.235 . S
C107 O134 1.289 . S
O108 C107 1.235 . S
C109 C111 1.400 . S
C109 N112 1.351 . S
C109 C114 1.501 . S
C110 C111 1.387 . S
C110 N113 1.341 . S
C111 C109 1.400 . S
C111 C110 1.387 . S
N112 Co103 2.022 . S
N112 C109 1.351 . S
N112 N113 1.365 . S
N113 C110 1.341 . S
N113 N112 1.365 . S
N113 H133 0.862 . S
C114 C109 1.501 . S
C114 H115 0.961 . S
C114 H116 0.961 . S
C114 H117 0.960 . S
H115 C114 0.961 . S
H116 C114 0.961 . S
H117 C114 0.960 . S
C118 N119 1.342 . S
C118 C122 1.401 1_554 S
C118 C123 1.499 . S
N119 Co102 1.989 . S
N119 C118 1.342 . S
N119 N120 1.388 1_554 S
N120 Co103 1.993 . S
N120 N119 1.388 1_556 S
N120 C121 1.346 . S
C121 N120 1.346 . S
C121 C122 1.396 . S
C121 C131 1.510 . S
C122 C118 1.401 1_556 S
C122 C121 1.396 . S
C123 C118 1.499 . S
C123 H124 0.959 . S
C123 H125 0.960 . S
C123 H126 0.961 . S
H124 C123 0.959 . S
H125 C123 0.960 . S
H126 C123 0.961 . S
O127 Co102 1.967 . S
O127 C135 1.258 . S
O128 Co103 1.941 . S
O128 C135 1.266 1_556 S
H129 C131 0.959 . S
H130 C131 0.961 . S
C131 C121 1.510 . S
C131 H129 0.959 . S
C131 H130 0.961 . S
C131 H132 0.960 . S
H132 C131 0.960 . S
H133 N113 0.862 . S
O134 Co102 1.920 . S
O134 C107 1.289 . S
C135 O127 1.258 . S
C135 O128 1.266 1_554 S
Co136 O139 1.970 1_455 S
Co136 N153 1.989 . S
Co136 O161 1.967 . S
Co136 O168 1.920 . S
Co137 O140 1.966 1_455 S
Co137 N146 2.031 . S
Co137 N154 1.993 . S
Co137 O162 1.941 . S
C138 O139 1.258 . S
C138 O140 1.263 . S
O139 Co136 1.970 1_655 S
O139 C138 1.258 . S
O140 Co137 1.966 1_655 S
O140 C138 1.263 . S
C141 O142 1.235 . S
C141 O168 1.289 1_655 S
O142 C141 1.235 . S
C143 C145 1.400 . S
C143 N146 1.346 1_654 S
C143 C148 1.501 . S
C144 C145 1.387 1_455 S
C144 N147 1.341 . S
C145 C143 1.400 . S
C145 C144 1.387 1_655 S
N146 Co137 2.031 . S
N146 C143 1.346 1_456 S
N146 N147 1.360 1_556 S
N147 C144 1.341 . S
N147 N146 1.360 1_554 S
N147 H167 0.862 . S
C148 C143 1.501 . S
C148 H149 0.961 1_554 S
C148 H150 0.961 . S
C148 H151 0.960 . S
H149 C148 0.961 1_556 S
H150 C148 0.961 . S
H151 C148 0.960 . S
C152 N153 1.342 . S
C152 C156 1.401 . S
C152 C157 1.499 . S
N153 Co136 1.989 . S
N153 C152 1.342 . S
N153 N154 1.388 . S
N154 Co137 1.993 . S
N154 N153 1.388 . S
N154 C155 1.346 . S
C155 N154 1.346 . S
C155 C156 1.396 . S
C155 C165 1.510 . S
C156 C152 1.401 . S
C156 C155 1.396 . S
C157 C152 1.499 . S
C157 H158 0.959 . S
C157 H159 0.960 . S
C157 H160 0.961 . S
H158 C157 0.959 . S
H159 C157 0.960 . S
H160 C157 0.961 . S
O161 Co136 1.967 . S
O161 C169 1.258 . S
O162 Co137 1.941 . S
O162 C169 1.266 . S
H163 C165 0.959 1_554 S
H164 C165 0.961 1_654 S
C165 C155 1.510 . S
C165 H163 0.959 1_556 S
C165 H164 0.961 1_456 S
C165 H166 0.960 1_556 S
H166 C165 0.960 1_554 S
H167 N147 0.862 . S
O168 Co136 1.920 . S
O168 C141 1.289 1_455 S
C169 O161 1.258 . S
C169 O162 1.266 . S
Co170 O173 1.970 . S
Co170 N187 1.989 . S
Co170 O195 1.967 . S
Co170 O202 1.920 . S
Co171 O174 1.966 . S
Co171 N180 2.022 . S
Co171 N188 1.993 . S
Co171 O196 1.941 . S
C172 O173 1.258 . S
C172 O174 1.263 1_556 S
O173 Co170 1.970 . S
O173 C172 1.258 . S
O174 Co171 1.966 . S
O174 C172 1.263 1_554 S
C175 O176 1.235 . S
C175 O202 1.289 . S
O176 C175 1.235 . S
C177 C179 1.400 . S
C177 N180 1.351 . S
C177 C182 1.501 . S
C178 C179 1.387 . S
C178 N181 1.341 . S
C179 C177 1.400 . S
C179 C178 1.387 . S
N180 Co171 2.022 . S
N180 C177 1.351 . S
N180 N181 1.365 . S
N181 C178 1.341 . S
N181 N180 1.365 . S
N181 H201 0.862 . S
C182 C177 1.501 . S
C182 H183 0.961 . S
C182 H184 0.961 . S
C182 H185 0.960 . S
H183 C182 0.961 . S
H184 C182 0.961 . S
H185 C182 0.960 . S
C186 N187 1.342 . S
C186 C190 1.401 1_556 S
C186 C191 1.499 . S
N187 Co170 1.989 . S
N187 C186 1.342 . S
N187 N188 1.388 1_556 S
N188 Co171 1.993 . S
N188 N187 1.388 1_554 S
N188 C189 1.346 . S
C189 N188 1.346 . S
C189 C190 1.396 . S
C189 C199 1.510 . S
C190 C186 1.401 1_554 S
C190 C189 1.396 . S
C191 C186 1.499 . S
C191 H192 0.959 . S
C191 H193 0.960 . S
C191 H194 0.961 . S
H192 C191 0.959 . S
H193 C191 0.960 . S
H194 C191 0.961 . S
O195 Co170 1.967 . S
O195 C203 1.258 . S
O196 Co171 1.941 . S
O196 C203 1.266 1_554 S
H197 C199 0.959 . S
H198 C199 0.961 . S
C199 C189 1.510 . S
C199 H197 0.959 . S
C199 H198 0.961 . S
C199 H200 0.960 . S
H200 C199 0.960 . S
H201 N181 0.862 . S
O202 Co170 1.920 . S
O202 C175 1.289 . S
C203 O195 1.258 . S
C203 O196 1.266 1_556 S
Co204 O207 1.970 . S
Co204 N221 1.989 . S
Co204 O229 1.967 . S
Co204 O236 1.920 . S
Co205 O208 1.966 . S
Co205 N214 2.022 . S
Co205 N222 1.993 . S
Co205 O230 1.941 . S
C206 O207 1.258 . S
C206 O208 1.263 . S
O207 Co204 1.970 . S
O207 C206 1.258 . S
O208 Co205 1.966 . S
O208 C206 1.263 . S
C209 O210 1.235 1_556 S
C209 O236 1.289 1_556 S
O210 C209 1.235 1_554 S
C211 C213 1.400 . S
C211 N214 1.351 . S
C211 C216 1.501 . S
C212 C213 1.387 . S
C212 N215 1.341 . S
C213 C211 1.400 . S
C213 C212 1.387 . S
N214 Co205 2.022 . S
N214 C211 1.351 . S
N214 N215 1.365 . S
N215 C212 1.341 . S
N215 N214 1.365 . S
N215 H235 0.862 . S
C216 C211 1.501 . S
C216 H217 0.961 . S
C216 H218 0.961 . S
C216 H219 0.960 . S
H217 C216 0.961 . S
H218 C216 0.961 . S
H219 C216 0.960 . S
C220 N221 1.342 . S
C220 C224 1.401 . S
C220 C225 1.499 . S
N221 Co204 1.989 . S
N221 C220 1.342 . S
N221 N222 1.388 . S
N222 Co205 1.993 . S
N222 N221 1.388 . S
N222 C223 1.346 . S
C223 N222 1.346 . S
C223 C224 1.396 . S
C223 C233 1.510 . S
C224 C220 1.401 . S
C224 C223 1.396 . S
C225 C220 1.499 . S
C225 H226 0.959 . S
C225 H227 0.960 . S
C225 H228 0.961 . S
H226 C225 0.959 . S
H227 C225 0.960 . S
H228 C225 0.961 . S
O229 Co204 1.967 . S
O229 C237 1.258 . S
O230 Co205 1.941 . S
O230 C237 1.266 . S
H231 C233 0.959 . S
H232 C233 0.961 . S
C233 C223 1.510 . S
C233 H231 0.959 . S
C233 H232 0.961 . S
C233 H234 0.960 . S
H234 C233 0.960 . S
H235 N215 0.862 . S
O236 Co204 1.920 . S
O236 C209 1.289 1_554 S
C237 O229 1.258 . S
C237 O230 1.266 . S
Co238 O241 1.970 . S
Co238 N255 1.989 . S
Co238 O263 1.967 . S
Co238 O270 1.920 . S
Co239 O242 1.966 . S
Co239 N248 2.022 . S
Co239 N256 1.993 . S
Co239 O264 1.941 . S
C240 O241 1.258 . S
C240 O242 1.263 . S
O241 Co238 1.970 . S
O241 C240 1.258 . S
O242 Co239 1.966 . S
O242 C240 1.263 . S
C243 O244 1.235 . S
C243 O270 1.289 . S
O244 C243 1.235 . S
C245 C247 1.400 . S
C245 N248 1.351 . S
C245 C250 1.501 . S
C246 C247 1.387 . S
C246 N249 1.341 . S
C247 C245 1.400 . S
C247 C246 1.387 . S
N248 Co239 2.022 . S
N248 C245 1.351 . S
N248 N249 1.365 . S
N249 C246 1.341 . S
N249 N248 1.365 . S
N249 H269 0.862 . S
C250 C245 1.501 . S
C250 H251 0.961 . S
C250 H252 0.961 . S
C250 H253 0.960 . S
H251 C250 0.961 . S
H252 C250 0.961 . S
H253 C250 0.960 . S
C254 N255 1.342 . S
C254 C258 1.401 . S
C254 C259 1.499 . S
N255 Co238 1.989 . S
N255 C254 1.342 . S
N255 N256 1.388 . S
N256 Co239 1.993 . S
N256 N255 1.388 . S
N256 C257 1.346 . S
C257 N256 1.346 . S
C257 C258 1.396 . S
C257 C267 1.510 . S
C258 C254 1.401 . S
C258 C257 1.396 . S
C259 C254 1.499 . S
C259 H260 0.959 . S
C259 H261 0.960 . S
C259 H262 0.961 . S
H260 C259 0.959 . S
H261 C259 0.960 . S
H262 C259 0.961 . S
O263 Co238 1.967 . S
O263 C271 1.258 . S
O264 Co239 1.941 . S
O264 C271 1.266 . S
H265 C267 0.959 . S
H266 C267 0.961 . S
C267 C257 1.510 . S
C267 H265 0.959 . S
C267 H266 0.961 . S
C267 H268 0.960 . S
H268 C267 0.960 . S
H269 N249 0.862 . S
O270 Co238 1.920 . S
O270 C243 1.289 . S
C271 O263 1.258 . S
C271 O264 1.266 . S
Co272 O275 1.970 . S
Co272 N289 1.989 . S
Co272 O297 1.967 . S
Co272 O304 1.920 . S
Co273 O276 1.966 . S
Co273 N282 2.022 . S
Co273 N290 1.993 . S
Co273 O298 1.941 . S
C274 O275 1.258 . S
C274 O276 1.263 . S
O275 Co272 1.970 . S
O275 C274 1.258 . S
O276 Co273 1.966 . S
O276 C274 1.263 . S
C277 O278 1.235 . S
C277 O304 1.289 . S
O278 C277 1.235 . S
C279 C281 1.400 . S
C279 N282 1.351 . S
C279 C284 1.501 . S
C280 C281 1.387 . S
C280 N283 1.341 . S
C281 C279 1.400 . S
C281 C280 1.387 . S
N282 Co273 2.022 . S
N282 C279 1.351 . S
N282 N283 1.365 . S
N283 C280 1.341 . S
N283 N282 1.365 . S
N283 H303 0.862 . S
C284 C279 1.501 . S
C284 H285 0.961 . S
C284 H286 0.961 . S
C284 H287 0.960 . S
H285 C284 0.961 . S
H286 C284 0.961 . S
H287 C284 0.960 . S
C288 N289 1.342 . S
C288 C292 1.401 . S
C288 C293 1.499 . S
N289 Co272 1.989 . S
N289 C288 1.342 . S
N289 N290 1.388 . S
N290 Co273 1.993 . S
N290 N289 1.388 . S
N290 C291 1.346 . S
C291 N290 1.346 . S
C291 C292 1.396 . S
C291 C301 1.510 . S
C292 C288 1.401 . S
C292 C291 1.396 . S
C293 C288 1.499 . S
C293 H294 0.959 . S
C293 H295 0.960 . S
C293 H296 0.961 . S
H294 C293 0.959 . S
H295 C293 0.960 . S
H296 C293 0.961 . S
O297 Co272 1.967 . S
O297 C305 1.258 . S
O298 Co273 1.941 . S
O298 C305 1.266 . S
H299 C301 0.959 . S
H300 C301 0.961 . S
C301 C291 1.510 . S
C301 H299 0.959 . S
C301 H300 0.961 . S
C301 H302 0.960 . S
H302 C301 0.960 . S
H303 N283 0.862 . S
O304 Co272 1.920 . S
O304 C277 1.289 . S
C305 O297 1.258 . S
C305 O298 1.266 . S
Co306 O309 1.970 . S
Co306 N323 1.989 . S
Co306 O331 1.967 . S
Co306 O338 1.920 . S
Co307 O310 1.966 . S
Co307 N316 2.022 . S
Co307 N324 1.993 . S
Co307 O332 1.941 . S
C308 O309 1.258 . S
C308 O310 1.263 1_556 S
O309 Co306 1.970 . S
O309 C308 1.258 . S
O310 Co307 1.966 . S
O310 C308 1.263 1_554 S
C311 O312 1.235 . S
C311 O338 1.289 . S
O312 C311 1.235 . S
C313 C315 1.400 . S
C313 N316 1.351 . S
C313 C318 1.501 . S
C314 C315 1.387 . S
C314 N317 1.341 . S
C315 C313 1.400 . S
C315 C314 1.387 . S
N316 Co307 2.022 . S
N316 C313 1.351 . S
N316 N317 1.365 . S
N317 C314 1.341 . S
N317 N316 1.365 . S
N317 H337 0.862 . S
C318 C313 1.501 . S
C318 H319 0.961 . S
C318 H320 0.961 . S
C318 H321 0.960 . S
H319 C318 0.961 . S
H320 C318 0.961 . S
H321 C318 0.960 . S
C322 N323 1.342 . S
C322 C326 1.401 1_556 S
C322 C327 1.499 . S
N323 Co306 1.989 . S
N323 C322 1.342 . S
N323 N324 1.388 1_556 S
N324 Co307 1.993 . S
N324 N323 1.388 1_554 S
N324 C325 1.346 . S
C325 N324 1.346 . S
C325 C326 1.396 . S
C325 C335 1.510 . S
C326 C322 1.401 1_554 S
C326 C325 1.396 . S
C327 C322 1.499 . S
C327 H328 0.959 . S
C327 H329 0.960 . S
C327 H330 0.961 . S
H328 C327 0.959 . S
H329 C327 0.960 . S
H330 C327 0.961 . S
O331 Co306 1.967 . S
O331 C339 1.258 . S
O332 Co307 1.941 . S
O332 C339 1.266 1_554 S
H333 C335 0.959 . S
H334 C335 0.961 . S
C335 C325 1.510 . S
C335 H333 0.959 . S
C335 H334 0.961 . S
C335 H336 0.960 . S
H336 C335 0.960 . S
H337 N317 0.862 . S
O338 Co306 1.920 . S
O338 C311 1.289 . S
C339 O331 1.258 . S
C339 O332 1.266 1_556 S
Co340 O343 1.970 . S
Co340 N357 1.989 . S
Co340 O365 1.967 . S
Co340 O372 1.920 . S
Co341 O344 1.966 . S
Co341 N350 2.022 . S
Co341 N358 1.993 . S
Co341 O366 1.941 . S
C342 O343 1.258 . S
C342 O344 1.263 1_554 S
O343 Co340 1.970 . S
O343 C342 1.258 . S
O344 Co341 1.966 . S
O344 C342 1.263 1_556 S
C345 O346 1.235 . S
C345 O372 1.289 . S
O346 C345 1.235 . S
C347 C349 1.400 . S
C347 N350 1.351 . S
C347 C352 1.501 . S
C348 C349 1.387 . S
C348 N351 1.341 . S
C349 C347 1.400 . S
C349 C348 1.387 . S
N350 Co341 2.022 . S
N350 C347 1.351 . S
N350 N351 1.365 . S
N351 C348 1.341 . S
N351 N350 1.365 . S
N351 H371 0.862 . S
C352 C347 1.501 . S
C352 H353 0.961 . S
C352 H354 0.961 . S
C352 H355 0.960 . S
H353 C352 0.961 . S
H354 C352 0.961 . S
H355 C352 0.960 . S
C356 N357 1.342 . S
C356 C360 1.401 1_554 S
C356 C361 1.499 . S
N357 Co340 1.989 . S
N357 C356 1.342 . S
N357 N358 1.388 1_554 S
N358 Co341 1.993 . S
N358 N357 1.388 1_556 S
N358 C359 1.346 . S
C359 N358 1.346 . S
C359 C360 1.396 . S
C359 C369 1.510 . S
C360 C356 1.401 1_556 S
C360 C359 1.396 . S
C361 C356 1.499 . S
C361 H362 0.959 . S
C361 H363 0.960 . S
C361 H364 0.961 . S
H362 C361 0.959 . S
H363 C361 0.960 . S
H364 C361 0.961 . S
O365 Co340 1.967 . S
O365 C373 1.258 . S
O366 Co341 1.941 . S
O366 C373 1.266 1_556 S
H367 C369 0.959 . S
H368 C369 0.961 . S
C369 C359 1.510 . S
C369 H367 0.959 . S
C369 H368 0.961 . S
C369 H370 0.960 . S
H370 C369 0.960 . S
H371 N351 0.862 . S
O372 Co340 1.920 . S
O372 C345 1.289 . S
C373 O365 1.258 . S
C373 O366 1.266 1_554 S
Co374 O377 1.970 . S
Co374 N391 1.989 . S
Co374 O399 1.967 . S
Co374 O406 1.920 . S
Co375 O378 1.966 . S
Co375 N384 2.022 . S
Co375 N392 1.993 . S
Co375 O400 1.941 . S
C376 O377 1.258 . S
C376 O378 1.263 . S
O377 Co374 1.970 . S
O377 C376 1.258 . S
O378 Co375 1.966 . S
O378 C376 1.263 . S
C379 O380 1.235 . S
C379 O406 1.289 . S
O380 C379 1.235 . S
C381 C383 1.400 . S
C381 N384 1.351 . S
C381 C386 1.501 . S
C382 C383 1.387 . S
C382 N385 1.341 . S
C383 C381 1.400 . S
C383 C382 1.387 . S
N384 Co375 2.022 . S
N384 C381 1.351 . S
N384 N385 1.365 . S
N385 C382 1.341 . S
N385 N384 1.365 . S
N385 H405 0.862 . S
C386 C381 1.501 . S
C386 H387 0.961 . S
C386 H388 0.961 . S
C386 H389 0.960 . S
H387 C386 0.961 . S
H388 C386 0.961 . S
H389 C386 0.960 . S
C390 N391 1.342 . S
C390 C394 1.401 . S
C390 C395 1.499 . S
N391 Co374 1.989 . S
N391 C390 1.342 . S
N391 N392 1.388 . S
N392 Co375 1.993 . S
N392 N391 1.388 . S
N392 C393 1.346 . S
C393 N392 1.346 . S
C393 C394 1.396 . S
C393 C403 1.510 . S
C394 C390 1.401 . S
C394 C393 1.396 . S
C395 C390 1.499 . S
C395 H396 0.959 . S
C395 H397 0.960 . S
C395 H398 0.961 . S
H396 C395 0.959 . S
H397 C395 0.960 . S
H398 C395 0.961 . S
O399 Co374 1.967 . S
O399 C407 1.258 . S
O400 Co375 1.941 . S
O400 C407 1.266 . S
H401 C403 0.959 . S
H402 C403 0.961 . S
C403 C393 1.510 . S
C403 H401 0.959 . S
C403 H402 0.961 . S
C403 H404 0.960 . S
H404 C403 0.960 . S
H405 N385 0.862 . S
O406 Co374 1.920 . S
O406 C379 1.289 . S
C407 O399 1.258 . S
C407 O400 1.266 . S
Co408 O411 1.970 . S
Co408 N425 1.989 . S
Co408 O433 1.967 . S
Co408 O440 1.920 . S
Co409 O412 1.966 . S
Co409 N418 2.022 . S
Co409 N426 1.993 . S
Co409 O434 1.941 . S
C410 O411 1.258 . S
C410 O412 1.263 . S
O411 Co408 1.970 . S
O411 C410 1.258 . S
O412 Co409 1.966 . S
O412 C410 1.263 . S
C413 O414 1.235 1_554 S
C413 O440 1.289 1_554 S
O414 C413 1.235 1_556 S
C415 C417 1.400 . S
C415 N418 1.351 . S
C415 C420 1.501 . S
C416 C417 1.387 . S
C416 N419 1.341 . S
C417 C415 1.400 . S
C417 C416 1.387 . S
N418 Co409 2.022 . S
N418 C415 1.351 . S
N418 N419 1.365 . S
N419 C416 1.341 . S
N419 N418 1.365 . S
N419 H439 0.862 . S
C420 C415 1.501 . S
C420 H421 0.961 . S
C420 H422 0.961 . S
C420 H423 0.960 . S
H421 C420 0.961 . S
H422 C420 0.961 . S
H423 C420 0.960 . S
C424 N425 1.342 . S
C424 C428 1.401 . S
C424 C429 1.499 . S
N425 Co408 1.989 . S
N425 C424 1.342 . S
N425 N426 1.388 . S
N426 Co409 1.993 . S
N426 N425 1.388 . S
N426 C427 1.346 . S
C427 N426 1.346 . S
C427 C428 1.396 . S
C427 C437 1.510 . S
C428 C424 1.401 . S
C428 C427 1.396 . S
C429 C424 1.499 . S
C429 H430 0.959 . S
C429 H431 0.960 . S
C429 H432 0.961 . S
H430 C429 0.959 . S
H431 C429 0.960 . S
H432 C429 0.961 . S
O433 Co408 1.967 . S
O433 C441 1.258 . S
O434 Co409 1.941 . S
O434 C441 1.266 . S
H435 C437 0.959 . S
H436 C437 0.961 . S
C437 C427 1.510 . S
C437 H435 0.959 . S
C437 H436 0.961 . S
C437 H438 0.960 . S
H438 C437 0.960 . S
H439 N419 0.862 . S
O440 Co408 1.920 . S
O440 C413 1.289 1_556 S
C441 O433 1.258 . S
C441 O434 1.266 . S
Co442 O445 2.002 . S
Co442 N459 1.986 1_455 S
Co442 O467 1.938 1_455 S
Co442 O474 1.916 1_455 S
Co443 O446 1.966 1_655 S
Co443 N452 2.031 . S
Co443 N460 1.993 . S
Co443 O468 1.941 . S
C444 O445 1.258 . S
C444 O446 1.263 . S
O445 Co442 2.002 . S
O445 C444 1.258 . S
O446 Co443 1.966 1_455 S
O446 C444 1.263 . S
C447 O448 1.235 . S
C447 O474 1.289 1_455 S
O448 C447 1.235 . S
C449 C451 1.400 . S
C449 N452 1.346 1_456 S
C449 C454 1.501 . S
C450 C451 1.387 1_655 S
C450 N453 1.341 . S
C451 C449 1.400 . S
C451 C450 1.387 1_455 S
N452 Co443 2.031 . S
N452 C449 1.346 1_654 S
N452 N453 1.360 1_554 S
N453 C450 1.341 . S
N453 N452 1.360 1_556 S
N453 H473 0.862 . S
C454 C449 1.501 . S
C454 H455 0.961 1_556 S
C454 H456 0.961 . S
C454 H457 0.960 . S
H455 C454 0.961 1_554 S
H456 C454 0.961 . S
H457 C454 0.960 . S
C458 N459 1.342 . S
C458 C462 1.401 . S
C458 C463 1.499 . S
N459 Co442 1.986 1_655 S
N459 C458 1.342 . S
N459 N460 1.388 . S
N460 Co443 1.993 . S
N460 N459 1.388 . S
N460 C461 1.346 . S
C461 N460 1.346 . S
C461 C462 1.396 . S
C461 C471 1.510 . S
C462 C458 1.401 . S
C462 C461 1.396 . S
C463 C458 1.499 . S
C463 H464 0.959 . S
C463 H465 0.960 1_655 S
C463 H466 0.961 . S
H464 C463 0.959 . S
H465 C463 0.960 1_455 S
H466 C463 0.961 . S
O467 Co442 1.938 1_655 S
O467 C475 1.258 . S
O468 Co443 1.941 . S
O468 C475 1.266 . S
H469 C471 0.959 1_556 S
H470 C471 0.961 1_456 S
C471 C461 1.510 . S
C471 H469 0.959 1_554 S
C471 H470 0.961 1_654 S
C471 H472 0.961 1_554 S
H472 C471 0.961 1_556 S
H473 N453 0.862 . S
O474 Co442 1.916 1_655 S
O474 C447 1.289 1_655 S
C475 O467 1.258 . S
C475 O468 1.266 . S
Co476 O479 1.970 . S
Co476 N493 1.989 . S
Co476 O501 1.967 . S
Co476 O508 1.920 . S
Co477 O480 1.966 . S
Co477 N486 2.022 . S
Co477 N494 1.993 . S
Co477 O502 1.941 . S
C478 O479 1.258 . S
C478 O480 1.263 . S
O479 Co476 1.970 . S
O479 C478 1.258 . S
O480 Co477 1.966 . S
O480 C478 1.263 . S
C481 O482 1.235 1_556 S
C481 O508 1.289 1_556 S
O482 C481 1.235 1_554 S
C483 C485 1.400 . S
C483 N486 1.351 . S
C483 C488 1.501 . S
C484 C485 1.387 . S
C484 N487 1.341 . S
C485 C483 1.400 . S
C485 C484 1.387 . S
N486 Co477 2.022 . S
N486 C483 1.351 . S
N486 N487 1.365 . S
N487 C484 1.341 . S
N487 N486 1.365 . S
N487 H507 0.862 . S
C488 C483 1.501 . S
C488 H489 0.961 . S
C488 H490 0.961 . S
C488 H491 0.960 . S
H489 C488 0.961 . S
H490 C488 0.961 . S
H491 C488 0.960 . S
C492 N493 1.342 . S
C492 C496 1.401 . S
C492 C497 1.499 . S
N493 Co476 1.989 . S
N493 C492 1.342 . S
N493 N494 1.388 . S
N494 Co477 1.993 . S
N494 N493 1.388 . S
N494 C495 1.346 . S
C495 N494 1.346 . S
C495 C496 1.396 . S
C495 C505 1.510 . S
C496 C492 1.401 . S
C496 C495 1.396 . S
C497 C492 1.499 . S
C497 H498 0.959 . S
C497 H499 0.960 . S
C497 H500 0.961 . S
H498 C497 0.959 . S
H499 C497 0.960 . S
H500 C497 0.961 . S
O501 Co476 1.967 . S
O501 C509 1.258 . S
O502 Co477 1.941 . S
O502 C509 1.266 . S
H503 C505 0.959 . S
H504 C505 0.961 . S
C505 C495 1.510 . S
C505 H503 0.959 . S
C505 H504 0.961 . S
C505 H506 0.960 . S
H506 C505 0.960 . S
H507 N487 0.862 . S
O508 Co476 1.920 . S
O508 C481 1.289 1_554 S
C509 O501 1.258 . S
C509 O502 1.266 . S
Co510 O513 2.002 . S
Co510 N527 1.986 1_455 S
Co510 O535 1.938 1_455 S
Co510 O542 1.916 1_455 S
Co511 O514 1.966 1_655 S
Co511 N520 2.031 . S
Co511 N528 1.993 . S
Co511 O536 1.941 . S
C512 O513 1.258 . S
C512 O514 1.263 . S
O513 Co510 2.002 . S
O513 C512 1.258 . S
O514 Co511 1.966 1_455 S
O514 C512 1.263 . S
C515 O516 1.235 . S
C515 O542 1.289 1_455 S
O516 C515 1.235 . S
C517 C519 1.400 . S
C517 N520 1.346 1_454 S
C517 C522 1.501 . S
C518 C519 1.387 1_655 S
C518 N521 1.341 . S
C519 C517 1.400 . S
C519 C518 1.387 1_455 S
N520 Co511 2.031 . S
N520 C517 1.346 1_656 S
N520 N521 1.360 1_556 S
N521 C518 1.341 . S
N521 N520 1.360 1_554 S
N521 H541 0.862 . S
C522 C517 1.501 . S
C522 H523 0.961 1_554 S
C522 H524 0.961 . S
C522 H525 0.960 . S
H523 C522 0.961 1_556 S
H524 C522 0.961 . S
H525 C522 0.960 . S
C526 N527 1.342 . S
C526 C530 1.401 . S
C526 C531 1.499 . S
N527 Co510 1.986 1_655 S
N527 C526 1.342 . S
N527 N528 1.388 . S
N528 Co511 1.993 . S
N528 N527 1.388 . S
N528 C529 1.346 . S
C529 N528 1.346 . S
C529 C530 1.396 . S
C529 C539 1.510 . S
C530 C526 1.401 . S
C530 C529 1.396 . S
C531 C526 1.499 . S
C531 H532 0.959 . S
C531 H533 0.960 1_655 S
C531 H534 0.961 . S
H532 C531 0.959 . S
H533 C531 0.960 1_455 S
H534 C531 0.961 . S
O535 Co510 1.938 1_655 S
O535 C543 1.258 . S
O536 Co511 1.941 . S
O536 C543 1.266 . S
H537 C539 0.959 1_554 S
H538 C539 0.961 1_454 S
C539 C529 1.510 . S
C539 H537 0.959 1_556 S
C539 H538 0.961 1_656 S
C539 H540 0.961 1_556 S
H540 C539 0.961 1_554 S
H541 N521 0.862 . S
O542 Co510 1.916 1_655 S
O542 C515 1.289 1_655 S
C543 O535 1.258 . S
C543 O536 1.266 . S
C544 C545 1.369 . S
C544 C546 1.419 . S
C544 H548 0.930 . S
C545 C544 1.369 . S
C545 C554 1.429 . S
C546 C544 1.419 . S
C546 C547 1.363 . S
C546 H549 0.929 . S
C547 C546 1.363 . S
C547 C553 1.428 . S
H548 C544 0.930 . S
H549 C546 0.929 . S
S550 N551 1.613 . S
S550 N552 1.610 . S
N551 S550 1.613 . S
N551 C554 1.350 . S
N552 S550 1.610 . S
N552 C553 1.351 . S
C553 C547 1.428 . S
C553 N552 1.351 . S
C553 C554 1.434 . S
C554 C545 1.429 . S
C554 N551 1.350 . S
C554 C553 1.434 . S
C555 C556 1.369 . S
C555 C557 1.419 . S
C555 H559 0.930 . S
C556 C555 1.369 . S
C556 C565 1.429 . S
C557 C555 1.419 . S
C557 C558 1.363 . S
C557 H560 0.929 . S
C558 C557 1.363 . S
C558 C564 1.428 . S
H559 C555 0.930 . S
H560 C557 0.929 . S
S561 N562 1.613 . S
S561 N563 1.610 . S
N562 S561 1.613 . S
N562 C565 1.350 . S
N563 S561 1.610 . S
N563 C564 1.351 . S
C564 C558 1.428 . S
C564 N563 1.351 . S
C564 C565 1.434 . S
C565 C556 1.429 . S
C565 N562 1.350 . S
C565 C564 1.434 . S
C566 C567 1.369 . S
C566 C568 1.419 . S
C566 H570 0.930 . S
C567 C566 1.369 . S
C567 C576 1.429 . S
C568 C566 1.419 . S
C568 C569 1.363 . S
C568 H571 0.929 1_556 S
C569 C568 1.363 . S
C569 C575 1.428 . S
H570 C566 0.930 . S
H571 C568 0.929 1_554 S
S572 N573 1.613 . S
S572 N574 1.610 . S
N573 S572 1.613 . S
N573 C576 1.350 . S
N574 S572 1.610 . S
N574 C575 1.351 . S
C575 C569 1.428 . S
C575 N574 1.351 . S
C575 C576 1.434 . S
C576 C567 1.429 . S
C576 N573 1.350 . S
C576 C575 1.434 . S
C577 C578 1.369 . S
C577 C579 1.419 . S
C577 H581 0.930 . S
C578 C577 1.369 . S
C578 C587 1.429 . S
C579 C577 1.419 . S
C579 C580 1.363 . S
C579 H582 0.929 1_554 S
C580 C579 1.363 . S
C580 C586 1.428 . S
H581 C577 0.930 . S
H582 C579 0.929 1_556 S
S583 N584 1.613 . S
S583 N585 1.610 . S
N584 S583 1.613 . S
N584 C587 1.350 . S
N585 S583 1.610 . S
N585 C586 1.351 . S
C586 C580 1.428 . S
C586 N585 1.351 . S
C586 C587 1.434 . S
C587 C578 1.429 . S
C587 N584 1.350 . S
C587 C586 1.434 . S
C588 C589 1.369 . S
C588 C590 1.419 . S
C588 H592 0.930 . S
C589 C588 1.369 . S
C589 C598 1.429 . S
C590 C588 1.419 . S
C590 C591 1.363 . S
C590 H593 0.929 . S
C591 C590 1.363 . S
C591 C597 1.428 . S
H592 C588 0.930 . S
H593 C590 0.929 . S
S594 N595 1.613 . S
S594 N596 1.610 . S
N595 S594 1.613 . S
N595 C598 1.350 . S
N596 S594 1.610 . S
N596 C597 1.351 . S
C597 C591 1.428 . S
C597 N596 1.351 . S
C597 C598 1.434 . S
C598 C589 1.429 . S
C598 N595 1.350 . S
C598 C597 1.434 . S
C599 C600 1.369 . S
C599 C601 1.419 . S
C599 H603 0.930 . S
C600 C599 1.369 . S
C600 C609 1.429 . S
C601 C599 1.419 . S
C601 C602 1.363 . S
C601 H604 0.929 . S
C602 C601 1.363 . S
C602 C608 1.428 . S
H603 C599 0.930 . S
H604 C601 0.929 . S
S605 N606 1.613 . S
S605 N607 1.610 . S
N606 S605 1.613 . S
N606 C609 1.350 . S
N607 S605 1.610 . S
N607 C608 1.351 . S
C608 C602 1.428 . S
C608 N607 1.351 . S
C608 C609 1.434 . S
C609 C600 1.429 . S
C609 N606 1.350 . S
C609 C608 1.434 . S
C610 C611 1.369 . S
C610 C612 1.419 . S
C610 H614 0.930 . S
C611 C610 1.369 . S
C611 C620 1.429 . S
C612 C610 1.419 . S
C612 C613 1.363 . S
C612 H615 0.929 . S
C613 C612 1.363 . S
C613 C619 1.428 . S
H614 C610 0.930 . S
H615 C612 0.929 . S
S616 N617 1.613 1_556 S
S616 N618 1.610 . S
N617 S616 1.613 1_554 S
N617 C620 1.350 . S
N618 S616 1.610 . S
N618 C619 1.351 1_556 S
C619 C613 1.428 . S
C619 N618 1.351 1_554 S
C619 C620 1.434 . S
C620 C611 1.429 . S
C620 N617 1.350 . S
C620 C619 1.434 . S
C621 C622 1.369 . S
C621 C623 1.419 . S
C621 H625 0.930 . S
C622 C621 1.369 . S
C622 C631 1.429 . S
C623 C621 1.419 . S
C623 C624 1.363 . S
C623 H626 0.929 . S
C624 C623 1.363 . S
C624 C630 1.428 . S
H625 C621 0.930 . S
H626 C623 0.929 . S
S627 N628 1.613 . S
S627 N629 1.610 . S
N628 S627 1.613 . S
N628 C631 1.350 . S
N629 S627 1.610 . S
N629 C630 1.351 . S
C630 C624 1.428 . S
C630 N629 1.351 . S
C630 C631 1.434 . S
C631 C622 1.429 . S
C631 N628 1.350 . S
C631 C630 1.434 . S
C632 C633 1.369 . S
C632 C634 1.419 . S
C632 H636 0.930 . S
C633 C632 1.369 . S
C633 C642 1.429 . S
C634 C632 1.419 . S
C634 C635 1.363 . S
C634 H637 0.929 . S
C635 C634 1.363 . S
C635 C641 1.428 . S
H636 C632 0.930 . S
H637 C634 0.929 . S
S638 N639 1.613 . S
S638 N640 1.610 . S
N639 S638 1.613 . S
N639 C642 1.350 . S
N640 S638 1.610 . S
N640 C641 1.351 . S
C641 C635 1.428 . S
C641 N640 1.351 . S
C641 C642 1.434 . S
C642 C633 1.429 . S
C642 N639 1.350 . S
C642 C641 1.434 . S
C643 C644 1.369 . S
C643 C645 1.419 . S
C643 H647 0.930 . S
C644 C643 1.369 . S
C644 C653 1.429 . S
C645 C643 1.419 . S
C645 C646 1.363 . S
C645 H648 0.929 1_554 S
C646 C645 1.363 . S
C646 C652 1.428 . S
H647 C643 0.930 . S
H648 C645 0.929 1_556 S
S649 N650 1.613 . S
S649 N651 1.610 . S
N650 S649 1.613 . S
N650 C653 1.350 . S
N651 S649 1.610 . S
N651 C652 1.351 . S
C652 C646 1.428 . S
C652 N651 1.351 . S
C652 C653 1.434 . S
C653 C644 1.429 . S
C653 N650 1.350 . S
C653 C652 1.434 . S
C654 C655 1.369 . S
C654 C656 1.419 . S
C654 H658 0.930 . S
C655 C654 1.369 . S
C655 C664 1.429 . S
C656 C654 1.419 . S
C656 C657 1.363 . S
C656 H659 0.929 . S
C657 C656 1.363 . S
C657 C663 1.428 . S
H658 C654 0.930 . S
H659 C656 0.929 . S
S660 N661 1.613 . S
S660 N662 1.610 . S
N661 S660 1.613 . S
N661 C664 1.350 . S
N662 S660 1.610 . S
N662 C663 1.351 . S
C663 C657 1.428 . S
C663 N662 1.351 . S
C663 C664 1.434 . S
C664 C655 1.429 . S
C664 N661 1.350 . S
C664 C663 1.434 . S
C665 C666 1.369 . S
C665 C667 1.419 . S
C665 H669 0.930 . S
C666 C665 1.369 . S
C666 C675 1.429 . S
C667 C665 1.419 . S
C667 C668 1.363 . S
C667 H670 0.929 . S
C668 C667 1.363 . S
C668 C674 1.428 . S
H669 C665 0.930 . S
H670 C667 0.929 . S
S671 N672 1.613 . S
S671 N673 1.610 . S
N672 S671 1.613 . S
N672 C675 1.350 . S
N673 S671 1.610 . S
N673 C674 1.351 . S
C674 C668 1.428 . S
C674 N673 1.351 . S
C674 C675 1.434 . S
C675 C666 1.429 . S
C675 N672 1.350 . S
C675 C674 1.434 . S
C676 C677 1.369 . S
C676 C678 1.419 . S
C676 H680 0.930 . S
C677 C676 1.369 . S
C677 C686 1.429 . S
C678 C676 1.419 . S
C678 C679 1.363 . S
C678 H681 0.929 . S
C679 C678 1.363 . S
C679 C685 1.428 . S
H680 C676 0.930 . S
H681 C678 0.929 . S
S682 N683 1.613 . S
S682 N684 1.610 . S
N683 S682 1.613 . S
N683 C686 1.350 . S
N684 S682 1.610 . S
N684 C685 1.351 . S
C685 C679 1.428 . S
C685 N684 1.351 . S
C685 C686 1.434 . S
C686 C677 1.429 . S
C686 N683 1.350 . S
C686 C685 1.434 . S
C687 C688 1.369 . S
C687 C689 1.419 . S
C687 H691 0.930 . S
C688 C687 1.369 . S
C688 C697 1.429 . S
C689 C687 1.419 . S
C689 C690 1.363 . S
C689 H692 0.929 . S
C690 C689 1.363 . S
C690 C696 1.428 . S
H691 C687 0.930 . S
H692 C689 0.929 . S
S693 N694 1.613 . S
S693 N695 1.610 . S
N694 S693 1.613 . S
N694 C697 1.350 . S
N695 S693 1.610 . S
N695 C696 1.351 . S
C696 C690 1.428 . S
C696 N695 1.351 . S
C696 C697 1.434 . S
C697 C688 1.429 . S
C697 N694 1.350 . S
C697 C696 1.434 . S
C698 C699 1.369 . S
C698 C700 1.419 . S
C698 H702 0.930 . S
C699 C698 1.369 . S
C699 C708 1.429 . S
C700 C698 1.419 . S
C700 C701 1.363 . S
C700 H703 0.929 . S
C701 C700 1.363 . S
C701 C707 1.428 . S
H702 C698 0.930 . S
H703 C700 0.929 . S
S704 N705 1.613 . S
S704 N706 1.610 . S
N705 S704 1.613 . S
N705 C708 1.350 . S
N706 S704 1.610 . S
N706 C707 1.351 . S
C707 C701 1.428 . S
C707 N706 1.351 . S
C707 C708 1.434 . S
C708 C699 1.429 . S
C708 N705 1.350 . S
C708 C707 1.434 . S
C709 C710 1.369 . S
C709 C711 1.419 . S
C709 H713 0.930 . S
C710 C709 1.369 . S
C710 C719 1.429 . S
C711 C709 1.419 . S
C711 C712 1.363 . S
C711 H714 0.929 . S
C712 C711 1.363 . S
C712 C718 1.428 . S
H713 C709 0.930 . S
H714 C711 0.929 . S
S715 N716 1.613 . S
S715 N717 1.610 . S
N716 S715 1.613 . S
N716 C719 1.350 . S
N717 S715 1.610 . S
N717 C718 1.351 . S
C718 C712 1.428 . S
C718 N717 1.351 . S
C718 C719 1.434 . S
C719 C710 1.429 . S
C719 N716 1.350 . S
C719 C718 1.434 . S
C720 C721 1.369 1_565 S
C720 C722 1.419 1_554 S
C720 H724 0.930 1_455 S
C721 C720 1.369 1_545 S
C721 C730 1.429 . S
C722 C720 1.419 1_556 S
C722 C723 1.363 . S
C722 H725 0.929 1_455 S
C723 C722 1.363 . S
C723 C729 1.428 1_565 S
H724 C720 0.930 1_655 S
H725 C722 0.929 1_655 S
S726 N727 1.613 1_556 S
S726 N728 1.610 . S
N727 S726 1.613 1_554 S
N727 C730 1.350 . S
N728 S726 1.610 . S
N728 C729 1.351 . S
C729 C723 1.428 1_545 S
C729 N728 1.351 . S
C729 C730 1.434 1_556 S
C730 C721 1.429 . S
C730 N727 1.350 . S
C730 C729 1.434 1_554 S
C731 C732 1.369 . S
C731 C733 1.419 . S
C731 H735 0.930 . S
C732 C731 1.369 . S
C732 C741 1.429 . S
C733 C731 1.419 . S
C733 C734 1.363 . S
C733 H736 0.929 . S
C734 C733 1.363 . S
C734 C740 1.428 . S
H735 C731 0.930 . S
H736 C733 0.929 . S
S737 N738 1.613 . S
S737 N739 1.610 . S
N738 S737 1.613 . S
N738 C741 1.350 . S
N739 S737 1.610 . S
N739 C740 1.351 . S
C740 C734 1.428 . S
C740 N739 1.351 . S
C740 C741 1.434 . S
C741 C732 1.429 . S
C741 N738 1.350 . S
C741 C740 1.434 . S
C742 C743 1.369 . S
C742 C744 1.419 . S
C742 H746 0.930 . S
C743 C742 1.369 . S
C743 C752 1.429 1_545 S
C744 C742 1.419 . S
C744 C745 1.363 1_545 S
C744 H747 0.929 . S
C745 C744 1.363 1_565 S
C745 C751 1.428 . S
H746 C742 0.930 . S
H747 C744 0.929 . S
S748 N749 1.613 . S
S748 N750 1.610 . S
N749 S748 1.613 . S
N749 C752 1.350 . S
N750 S748 1.610 . S
N750 C751 1.351 . S
C751 C745 1.428 . S
C751 N750 1.351 . S
C751 C752 1.434 . S
C752 C743 1.429 1_565 S
C752 N749 1.350 . S
C752 C751 1.434 . S
C753 C754 1.369 . S
C753 C755 1.419 . S
C753 H757 0.930 . S
C754 C753 1.369 . S
C754 C763 1.429 . S
C755 C753 1.419 . S
C755 C756 1.363 . S
C755 H758 0.929 . S
C756 C755 1.363 . S
C756 C762 1.428 . S
H757 C753 0.930 . S
H758 C755 0.929 . S
S759 N760 1.613 . S
S759 N761 1.610 . S
N760 S759 1.613 . S
N760 C763 1.350 . S
N761 S759 1.610 . S
N761 C762 1.351 . S
C762 C756 1.428 . S
C762 N761 1.351 . S
C762 C763 1.434 . S
C763 C754 1.429 . S
C763 N760 1.350 . S
C763 C762 1.434 . S
C764 C765 1.369 . S
C764 C766 1.419 . S
C764 H768 0.930 . S
C765 C764 1.369 . S
C765 C774 1.429 . S
C766 C764 1.419 . S
C766 C767 1.363 . S
C766 H769 0.929 . S
C767 C766 1.363 . S
C767 C773 1.428 . S
H768 C764 0.930 . S
H769 C766 0.929 . S
S770 N771 1.613 . S
S770 N772 1.610 . S
N771 S770 1.613 . S
N771 C774 1.350 . S
N772 S770 1.610 . S
N772 C773 1.351 . S
C773 C767 1.428 . S
C773 N772 1.351 . S
C773 C774 1.434 . S
C774 C765 1.429 . S
C774 N771 1.350 . S
C774 C773 1.434 . S
C775 C776 1.369 . S
C775 C777 1.419 . S
C775 H779 0.930 . S
C776 C775 1.369 . S
C776 C785 1.429 . S
C777 C775 1.419 . S
C777 C778 1.363 . S
C777 H780 0.929 . S
C778 C777 1.363 . S
C778 C784 1.428 . S
H779 C775 0.930 . S
H780 C777 0.929 . S
S781 N782 1.613 . S
S781 N783 1.610 . S
N782 S781 1.613 . S
N782 C785 1.350 . S
N783 S781 1.610 . S
N783 C784 1.351 . S
C784 C778 1.428 . S
C784 N783 1.351 . S
C784 C785 1.434 . S
C785 C776 1.429 . S
C785 N782 1.350 . S
C785 C784 1.434 . S
C786 C787 1.369 . S
C786 C788 1.419 . S
C786 H790 0.930 . S
C787 C786 1.369 . S
C787 C796 1.429 . S
C788 C786 1.419 . S
C788 C789 1.363 . S
C788 H791 0.929 . S
C789 C788 1.363 . S
C789 C795 1.428 . S
H790 C786 0.930 . S
H791 C788 0.929 . S
S792 N793 1.613 . S
S792 N794 1.610 . S
N793 S792 1.613 . S
N793 C796 1.350 . S
N794 S792 1.610 . S
N794 C795 1.351 . S
C795 C789 1.428 . S
C795 N794 1.351 . S
C795 C796 1.434 . S
C796 C787 1.429 . S
C796 N793 1.350 . S
C796 C795 1.434 . S
C797 C798 1.369 . S
C797 C799 1.419 1_556 S
C797 H801 0.930 . S
C798 C797 1.369 . S
C798 C807 1.429 1_655 S
C799 C797 1.419 1_554 S
C799 C800 1.363 . S
C799 H802 0.929 . S
C800 C799 1.363 . S
C800 C806 1.428 1_655 S
H801 C797 0.930 . S
H802 C799 0.929 . S
S803 N804 1.613 . S
S803 N805 1.610 1_556 S
N804 S803 1.613 . S
N804 C807 1.350 . S
N805 S803 1.610 1_554 S
N805 C806 1.351 . S
C806 C800 1.428 1_455 S
C806 N805 1.351 . S
C806 C807 1.434 1_554 S
C807 C798 1.429 1_455 S
C807 N804 1.350 . S
C807 C806 1.434 1_556 S
C808 C809 1.369 1_455 S
C808 C810 1.419 . S
C808 H812 0.930 . S
C809 C808 1.369 1_655 S
C809 C818 1.429 . S
C810 C808 1.419 . S
C810 C811 1.363 1_455 S
C810 H813 0.929 . S
C811 C810 1.363 1_655 S
C811 C817 1.428 . S
H812 C808 0.930 . S
H813 C810 0.929 . S
S814 N815 1.613 . S
S814 N816 1.610 . S
N815 S814 1.613 . S
N815 C818 1.350 . S
N816 S814 1.610 . S
N816 C817 1.351 . S
C817 C811 1.428 . S
C817 N816 1.351 . S
C817 C818 1.434 . S
C818 C809 1.429 . S
C818 N815 1.350 . S
C818 C817 1.434 . S
C819 C820 1.369 . S
C819 C821 1.419 1_554 S
C819 H823 0.930 . S
C820 C819 1.369 . S
C820 C829 1.429 1_554 S
C821 C819 1.419 1_556 S
C821 C822 1.363 . S
C821 H824 0.929 . S
C822 C821 1.363 . S
C822 C828 1.428 . S
H823 C819 0.930 . S
H824 C821 0.929 . S
S825 N826 1.613 . S
S825 N827 1.610 . S
N826 S825 1.613 . S
N826 C829 1.350 . S
N827 S825 1.610 . S
N827 C828 1.351 . S
C828 C822 1.428 . S
C828 N827 1.351 . S
C828 C829 1.434 . S
C829 C820 1.429 1_556 S
C829 N826 1.350 . S
C829 C828 1.434 . S
C830 C831 1.369 . S
C830 C832 1.419 . S
C830 H834 0.930 . S
C831 C830 1.369 . S
C831 C840 1.429 . S
C832 C830 1.419 . S
C832 C833 1.363 . S
C832 H835 0.929 . S
C833 C832 1.363 . S
C833 C839 1.428 . S
H834 C830 0.930 . S
H835 C832 0.929 . S
S836 N837 1.613 . S
S836 N838 1.610 . S
N837 S836 1.613 . S
N837 C840 1.350 . S
N838 S836 1.610 . S
N838 C839 1.351 . S
C839 C833 1.428 . S
C839 N838 1.351 . S
C839 C840 1.434 . S
C840 C831 1.429 . S
C840 N837 1.350 . S
C840 C839 1.434 . S
C841 C842 1.369 . S
C841 C843 1.419 . S
C841 H845 0.930 . S
C842 C841 1.369 . S
C842 C851 1.429 . S
C843 C841 1.419 . S
C843 C844 1.363 . S
C843 H846 0.929 . S
C844 C843 1.363 . S
C844 C850 1.428 . S
H845 C841 0.930 . S
H846 C843 0.929 . S
S847 N848 1.613 . S
S847 N849 1.610 . S
N848 S847 1.613 . S
N848 C851 1.350 . S
N849 S847 1.610 . S
N849 C850 1.351 . S
C850 C844 1.428 . S
C850 N849 1.351 . S
C850 C851 1.434 . S
C851 C842 1.429 . S
C851 N848 1.350 . S
C851 C850 1.434 . S
C852 C853 1.376 . S
C852 C854 1.422 . S
C852 H856 0.920 1_655 S
C853 C852 1.376 . S
C853 C862 1.429 . S
C854 C852 1.422 . S
C854 C855 1.363 . S
C854 H857 0.922 1_655 S
C855 C854 1.363 . S
C855 C861 1.428 . S
H856 C852 0.920 1_455 S
H857 C854 0.922 1_455 S
S858 N859 1.613 . S
S858 N860 1.610 . S
N859 S858 1.613 . S
N859 C862 1.350 . S
N860 S858 1.610 . S
N860 C861 1.351 . S
C861 C855 1.428 . S
C861 N860 1.351 . S
C861 C862 1.434 . S
C862 C853 1.429 . S
C862 N859 1.350 . S
C862 C861 1.434 . S
C863 C864 1.369 . S
C863 C865 1.419 . S
C863 H867 0.930 . S
C864 C863 1.369 . S
C864 C873 1.429 . S
C865 C863 1.419 . S
C865 C866 1.363 . S
C865 H868 0.929 . S
C866 C865 1.363 . S
C866 C872 1.428 . S
H867 C863 0.930 . S
H868 C865 0.929 . S
S869 N870 1.613 . S
S869 N871 1.610 . S
N870 S869 1.613 . S
N870 C873 1.350 . S
N871 S869 1.610 . S
N871 C872 1.351 . S
C872 C866 1.428 . S
C872 N871 1.351 . S
C872 C873 1.434 . S
C873 C864 1.429 . S
C873 N870 1.350 . S
C873 C872 1.434 . S
C874 C875 1.369 . S
C874 C876 1.419 . S
C874 H878 0.930 . S
C875 C874 1.369 . S
C875 C884 1.429 . S
C876 C874 1.419 . S
C876 C877 1.363 . S
C876 H879 0.929 . S
C877 C876 1.363 . S
C877 C883 1.428 . S
H878 C874 0.930 . S
H879 C876 0.929 . S
S880 N881 1.613 . S
S880 N882 1.610 . S
N881 S880 1.613 . S
N881 C884 1.350 . S
N882 S880 1.610 . S
N882 C883 1.351 . S
C883 C877 1.428 . S
C883 N882 1.351 . S
C883 C884 1.434 . S
C884 C875 1.429 . S
C884 N881 1.350 . S
C884 C883 1.434 . S
C885 C886 1.369 1_554 S
C885 C887 1.419 . S
C885 H889 0.930 . S
C886 C885 1.369 1_556 S
C886 C895 1.429 . S
C887 C885 1.419 . S
C887 C888 1.363 . S
C887 H890 0.929 . S
C888 C887 1.363 . S
C888 C894 1.428 . S
H889 C885 0.930 . S
H890 C887 0.929 . S
S891 N892 1.613 . S
S891 N893 1.610 1_556 S
N892 S891 1.613 . S
N892 C895 1.350 . S
N893 S891 1.610 1_554 S
N893 C894 1.351 . S
C894 C888 1.428 . S
C894 N893 1.351 . S
C894 C895 1.434 1_554 S
C895 C886 1.429 . S
C895 N892 1.350 . S
C895 C894 1.434 1_556 S
C896 C897 1.369 . S
C896 C898 1.419 . S
C896 H900 0.930 . S
C897 C896 1.369 . S
C897 C906 1.429 . S
C898 C896 1.419 . S
C898 C899 1.363 1_554 S
C898 H901 0.929 . S
C899 C898 1.363 1_556 S
C899 C905 1.428 . S
H900 C896 0.930 . S
H901 C898 0.929 . S
S902 N903 1.613 1_556 S
S902 N904 1.610 . S
N903 S902 1.613 1_554 S
N903 C906 1.350 . S
N904 S902 1.610 . S
N904 C905 1.351 . S
C905 C899 1.428 . S
C905 N904 1.351 . S
C905 C906 1.434 1_556 S
C906 C897 1.429 . S
C906 N903 1.350 . S
C906 C905 1.434 1_554 S
C907 C908 1.369 . S
C907 C909 1.419 . S
C907 H911 0.930 . S
C908 C907 1.369 . S
C908 C917 1.429 . S
C909 C907 1.419 . S
C909 C910 1.363 . S
C909 H912 0.929 . S
C910 C909 1.363 . S
C910 C916 1.428 . S
H911 C907 0.930 . S
H912 C909 0.929 . S
S913 N914 1.613 . S
S913 N915 1.610 . S
N914 S913 1.613 . S
N914 C917 1.350 . S
N915 S913 1.610 . S
N915 C916 1.351 . S
C916 C910 1.428 . S
C916 N915 1.351 . S
C916 C917 1.434 . S
C917 C908 1.429 . S
C917 N914 1.350 . S
C917 C916 1.434 . S
C918 C919 1.369 . S
C918 C920 1.419 . S
C918 H922 0.930 . S
C919 C918 1.369 . S
C919 C928 1.429 . S
C920 C918 1.419 . S
C920 C921 1.363 . S
C920 H923 0.929 . S
C921 C920 1.363 . S
C921 C927 1.428 . S
H922 C918 0.930 . S
H923 C920 0.929 . S
S924 N925 1.613 . S
S924 N926 1.610 . S
N925 S924 1.613 . S
N925 C928 1.350 . S
N926 S924 1.610 . S
N926 C927 1.351 . S
C927 C921 1.428 . S
C927 N926 1.351 . S
C927 C928 1.434 . S
C928 C919 1.429 . S
C928 N925 1.350 . S
C928 C927 1.434 . S
C929 C930 1.369 . S
C929 C931 1.419 1_554 S
C929 H933 0.930 . S
C930 C929 1.369 . S
C930 C939 1.429 1_554 S
C931 C929 1.419 1_556 S
C931 C932 1.363 . S
C931 H934 0.929 . S
C932 C931 1.363 . S
C932 C938 1.428 . S
H933 C929 0.930 . S
H934 C931 0.929 . S
S935 N936 1.613 . S
S935 N937 1.610 . S
N936 S935 1.613 . S
N936 C939 1.350 . S
N937 S935 1.610 . S
N937 C938 1.351 . S
C938 C932 1.428 . S
C938 N937 1.351 . S
C938 C939 1.434 . S
C939 C930 1.429 1_556 S
C939 N936 1.350 . S
C939 C938 1.434 . S
C940 C941 1.369 . S
C940 C942 1.419 . S
C940 H944 0.930 . S
C941 C940 1.369 . S
C941 C950 1.429 . S
C942 C940 1.419 . S
C942 C943 1.363 . S
C942 H945 0.929 . S
C943 C942 1.363 . S
C943 C949 1.428 . S
H944 C940 0.930 . S
H945 C942 0.929 . S
S946 N947 1.613 . S
S946 N948 1.610 . S
N947 S946 1.613 . S
N947 C950 1.350 . S
N948 S946 1.610 . S
N948 C949 1.351 . S
C949 C943 1.428 . S
C949 N948 1.351 . S
C949 C950 1.434 . S
C950 C941 1.429 . S
C950 N947 1.350 . S
C950 C949 1.434 . S
C951 C952 1.369 . S
C951 C953 1.419 . S
C951 H955 0.930 . S
C952 C951 1.369 . S
C952 C961 1.429 . S
C953 C951 1.419 . S
C953 C954 1.363 . S
C953 H956 0.929 . S
C954 C953 1.363 . S
C954 C960 1.428 1_455 S
H955 C951 0.930 . S
H956 C953 0.929 . S
S957 N958 1.613 . S
S957 N959 1.610 . S
N958 S957 1.613 . S
N958 C961 1.350 1_655 S
N959 S957 1.610 . S
N959 C960 1.351 . S
C960 C954 1.428 1_655 S
C960 N959 1.351 . S
C960 C961 1.434 1_655 S
C961 C952 1.429 . S
C961 N958 1.350 1_455 S
C961 C960 1.434 1_455 S
C962 C963 1.369 . S
C962 C964 1.419 . S
C962 H966 0.930 . S
C963 C962 1.369 . S
C963 C972 1.429 . S
C964 C962 1.419 . S
C964 C965 1.363 . S
C964 H967 0.929 . S
C965 C964 1.363 . S
C965 C971 1.428 . S
H966 C962 0.930 . S
H967 C964 0.929 . S
S968 N969 1.613 . S
S968 N970 1.610 . S
N969 S968 1.613 . S
N969 C972 1.350 . S
N970 S968 1.610 . S
N970 C971 1.351 . S
C971 C965 1.428 . S
C971 N970 1.351 . S
C971 C972 1.434 . S
C972 C963 1.429 . S
C972 N969 1.350 . S
C972 C971 1.434 . S
C973 C974 1.369 . S
C973 C975 1.419 . S
C973 H977 0.930 . S
C974 C973 1.369 . S
C974 C983 1.429 . S
C975 C973 1.419 . S
C975 C976 1.363 . S
C975 H978 0.929 . S
C976 C975 1.363 . S
C976 C982 1.428 . S
H977 C973 0.930 . S
H978 C975 0.929 . S
S979 N980 1.613 . S
S979 N981 1.610 . S
N980 S979 1.613 . S
N980 C983 1.350 1_655 S
N981 S979 1.610 . S
N981 C982 1.351 1_655 S
C982 C976 1.428 . S
C982 N981 1.351 1_455 S
C982 C983 1.434 . S
C983 C974 1.429 . S
C983 N980 1.350 1_455 S
C983 C982 1.434 . S
C545 C271 1.315 . S
C547 C33 1.311 . S
C556 C67 1.314 . S
C558 C169 1.316 . S
C567 C101 1.317 . S
C569 C203 1.312 . S
C578 C237 1.316 . S
C580 C135 1.311 . S
C589 C376 1.640 . S
C591 C138 1.638 . S
C600 C274 1.642 . S
C602 C2 1.637 . S
C611 C206 1.637 . S
C613 C342 1.641 . S
C622 C70 1.639 . S
C624 C308 1.639 . S
C633 C339 1.316 . S
C635 C441 1.315 . S
C644 C509 1.317 . S
C646 C373 1.314 . S
C655 C475 1.310 . S
C657 C305 1.314 . S
C666 C407 1.317 . S
C668 C543 1.313 . S
C677 C104 1.640 . S
C679 C478 1.639 . S
C688 C172 1.641 . S
C690 C410 1.638 . S
C699 C36 1.642 . S
C701 C512 1.637 . S
C710 C240 1.640 . S
C712 C444 1.638 . S
C721 C20 1.810 . S
C723 C156 1.817 . S
C732 C190 1.817 . S
C734 C54 1.814 . S
C743 C224 1.818 . S
C745 C88 1.810 . S
C754 C122 1.814 . S
C756 C258 1.816 . S
C765 C360 1.817 . S
C767 C292 1.810 . S
C776 C326 1.813 . S
C778 C394 1.812 . S
C787 C428 1.809 . S
C789 C496 1.816 . S
C798 C530 1.816 . S
C800 C462 1.810 . S
C809 C9 1.160 . S
C811 C5 1.193 . S
C820 C43 1.163 . S
C822 C39 1.190 . S
C831 C73 1.183 . S
C833 C77 1.162 . S
C842 C107 1.187 . S
C844 C111 1.163 . S
C853 C141 1.184 . S
C855 C145 1.161 . S
C864 C175 1.193 . S
C866 C179 1.159 . S
C875 C213 1.147 . S
C877 C209 1.199 . S
C886 C247 1.150 . S
C888 C243 1.198 . S
C897 C277 1.195 . S
C899 C281 1.157 . S
C908 C311 1.193 . S
C910 C315 1.151 . S
C919 C349 1.147 . S
C921 C345 1.199 . S
C930 C383 1.164 . S
C932 C379 1.185 . S
C941 C417 1.162 . S
C943 C413 1.186 . S
C952 C451 1.159 . S
C954 C447 1.187 . S
C963 C485 1.154 . S
C965 C481 1.197 . S
C974 C515 1.201 . S
C976 C519 1.150 . S
