# Generated by pormake.
# Topology sod, (4)-cn, num edge types: 1
# Building blocks:
#     Node 0, Type 0, BuildingBlock: ICAMEG_clean_sbu_1, # of connection points: 4
#     Node 1, Type 0, BuildingBlock: ICAMEG_clean_sbu_1, # of connection points: 4
#     Node 2, Type 0, BuildingBlock: ICAMEG_clean_sbu_1, # of connection points: 4
#     Node 3, Type 0, BuildingBlock: ICAMEG_clean_sbu_1, # of connection points: 4
#     Node 4, Type 0, BuildingBlock: ICAMEG_clean_sbu_1, # of connection points: 4
#     Node 5, Type 0, BuildingBlock: ICAMEG_clean_sbu_1, # of connection points: 4
#     Node 6, Type 0, BuildingBlock: ICAMEG_clean_sbu_1, # of connection points: 4
#     Node 7, Type 0, BuildingBlock: ICAMEG_clean_sbu_1, # of connection points: 4
#     Node 8, Type 0, BuildingBlock: ICAMEG_clean_sbu_1, # of connection points: 4
#     Node 9, Type 0, BuildingBlock: ICAMEG_clean_sbu_1, # of connection points: 4
#     Node 10, Type 0, BuildingBlock: ICAMEG_clean_sbu_1, # of connection points: 4
#     Node 11, Type 0, BuildingBlock: ICAMEG_clean_sbu_1, # of connection points: 4
#     Edge 12, Type (0, 0), BuildingBlock: OJICUG_clean_linker_0, # of connection points: 2
#     Edge 13, Type (0, 0), BuildingBlock: OJICUG_clean_linker_0, # of connection points: 2
#     Edge 14, Type (0, 0), BuildingBlock: OJICUG_clean_linker_0, # of connection points: 2
#     Edge 15, Type (0, 0), BuildingBlock: OJICUG_clean_linker_0, # of connection points: 2
#     Edge 16, Type (0, 0), BuildingBlock: OJICUG_clean_linker_0, # of connection points: 2
#     Edge 17, Type (0, 0), BuildingBlock: OJICUG_clean_linker_0, # of connection points: 2
#     Edge 18, Type (0, 0), BuildingBlock: OJICUG_clean_linker_0, # of connection points: 2
#     Edge 19, Type (0, 0), BuildingBlock: OJICUG_clean_linker_0, # of connection points: 2
#     Edge 20, Type (0, 0), BuildingBlock: OJICUG_clean_linker_0, # of connection points: 2
#     Edge 21, Type (0, 0), BuildingBlock: OJICUG_clean_linker_0, # of connection points: 2
#     Edge 22, Type (0, 0), BuildingBlock: OJICUG_clean_linker_0, # of connection points: 2
#     Edge 23, Type (0, 0), BuildingBlock: OJICUG_clean_linker_0, # of connection points: 2
#     Edge 24, Type (0, 0), BuildingBlock: OJICUG_clean_linker_0, # of connection points: 2
#     Edge 25, Type (0, 0), BuildingBlock: OJICUG_clean_linker_0, # of connection points: 2
#     Edge 26, Type (0, 0), BuildingBlock: OJICUG_clean_linker_0, # of connection points: 2
#     Edge 27, Type (0, 0), BuildingBlock: OJICUG_clean_linker_0, # of connection points: 2
#     Edge 28, Type (0, 0), BuildingBlock: OJICUG_clean_linker_0, # of connection points: 2
#     Edge 29, Type (0, 0), BuildingBlock: OJICUG_clean_linker_0, # of connection points: 2
#     Edge 30, Type (0, 0), BuildingBlock: OJICUG_clean_linker_0, # of connection points: 2
#     Edge 31, Type (0, 0), BuildingBlock: OJICUG_clean_linker_0, # of connection points: 2
#     Edge 32, Type (0, 0), BuildingBlock: OJICUG_clean_linker_0, # of connection points: 2
#     Edge 33, Type (0, 0), BuildingBlock: OJICUG_clean_linker_0, # of connection points: 2
#     Edge 34, Type (0, 0), BuildingBlock: OJICUG_clean_linker_0, # of connection points: 2
#     Edge 35, Type (0, 0), BuildingBlock: OJICUG_clean_linker_0, # of connection points: 2
# Relax obj value: 0.210
# Max RMSD: 0.236
# Mean RMSD: 0.235
data_MOF--net-sod--node1-ICAMEG_clean_sbu_1--edge1-OJICUG_clean_linker_0
_symmetry_space_group_name_H-M    P1
_symmetry_Int_Tables_number       1
_symmetry_cell_setting            triclinic
loop_
_symmetry_equiv_pos_as_xyz
'x, y, z'
_cell_length_a     31.374367
_cell_length_b     34.583582
_cell_length_c     33.019725
_cell_angle_alpha  90.096467
_cell_angle_beta   90.100264
_cell_angle_gamma 90.072765
loop_
_atom_site_label
_atom_site_type_symbol
_atom_site_fract_x
_atom_site_fract_y
_atom_site_fract_z
_atom_type_partial_charge
Co0 Co 1.0026 0.23476 0.55486 0.0
Co1 Co 0.00805 0.23526 0.45281 0.0
O2 O 0.00576 0.26431 0.50407 0.0
C3 C 0.96754 0.31435 0.57218 0.0
O4 O 0.96248 0.32163 0.53354 0.0
C5 C 0.04537 0.31422 0.43663 0.0
O6 O 0.05027 0.32115 0.4754 0.0
O7 O 0.06304 0.21196 0.47282 0.0
O8 O 0.03371 0.1901 0.52989 0.0
H9 H 0.03658 0.11505 0.37161 0.0
H10 H 0.04691 0.31183 0.55116 0.0
O11 O 0.97415 0.27963 0.58394 0.0
H12 H 0.14927 0.22422 0.61677 0.0
H13 H 0.00609 0.2126 0.70593 0.0
H14 H 0.97847 0.15363 0.57242 0.0
H15 H 0.07899 0.20033 0.5952 0.0
H16 H 0.01527 0.25046 0.64342 0.0
O17 O 0.03823 0.27967 0.42448 0.0
H18 H 0.02901 0.1537 0.43393 0.0
H19 H 0.9967 0.25261 0.36453 0.0
H20 H 0.96952 0.11445 0.63405 0.0
H21 H 0.11632 0.33701 0.5729 0.0
H22 H 0.98325 0.14392 0.70147 0.0
H23 H 0.16835 0.29315 0.60599 0.0
O24 O 0.9469 0.21315 0.53467 0.0
H25 H 0.89791 0.34063 0.43596 0.0
H26 H 0.93063 0.20326 0.41183 0.0
H27 H 0.8614 0.22923 0.39015 0.0
H28 H 0.84465 0.29852 0.40182 0.0
H29 H 0.96621 0.3134 0.45777 0.0
H30 H 0.00456 0.21526 0.30138 0.0
H31 H 0.02443 0.14583 0.30468 0.0
O32 O 0.97503 0.19122 0.47696 0.0
C33 C 0.0642 0.19036 0.50441 0.0
C34 C 0.02803 0.1453 0.36976 0.0
C35 C 0.01018 0.20156 0.33034 0.0
N36 N 0.01287 0.20559 0.40294 0.0
C37 C 0.02371 0.16738 0.40497 0.0
C38 C 0.00618 0.22271 0.36619 0.0
C39 C 0.02124 0.1626 0.33222 0.0
C40 C 0.06863 0.29254 0.56607 0.0
N41 N 0.0579 0.25477 0.57263 0.0
C42 C 0.10827 0.30699 0.57812 0.0
C43 C 0.13747 0.28238 0.59661 0.0
C44 C 0.12677 0.24375 0.60269 0.0
C45 C 0.08677 0.2304 0.59039 0.0
C46 C 0.99973 0.19948 0.67675 0.0
C47 C 0.98443 0.16677 0.60159 0.0
C48 C 0.00445 0.22096 0.64126 0.0
N49 N 0.99685 0.20459 0.60425 0.0
C50 C 0.97934 0.14438 0.63641 0.0
C51 C 0.98701 0.16094 0.67423 0.0
C52 C 0.94492 0.19176 0.5029 0.0
C53 C 0.90496 0.31048 0.4303 0.0
C54 C 0.9239 0.23349 0.417 0.0
C55 C 0.88447 0.24801 0.40465 0.0
C56 C 0.87508 0.28684 0.41123 0.0
N57 N 0.95351 0.25693 0.43521 0.0
C58 C 0.944 0.29487 0.44236 0.0
Co59 Co 0.71978 0.06568 0.51082 0.0
Co60 Co 0.71781 0.96797 0.5046 0.0
O61 O 0.75167 0.01647 0.50623 0.0
C62 C 0.80397 0.08631 0.47221 0.0
O63 O 0.81313 0.05001 0.4647 0.0
C64 C 0.80499 0.94579 0.53598 0.0
O65 O 0.81381 0.98172 0.54557 0.0
O66 O 0.69763 0.98125 0.5604 0.0
O67 O 0.67334 0.03949 0.54265 0.0
H68 H 0.58431 0.89187 0.53145 0.0
H69 H 0.80736 0.05511 0.54493 0.0
O70 O 0.76641 0.09592 0.48296 0.0
H71 H 0.72523 0.11619 0.6545 0.0
H72 H 0.69542 0.20956 0.5268 0.0
H73 H 0.62856 0.08323 0.49901 0.0
H74 H 0.69147 0.10201 0.58901 0.0
H75 H 0.7384 0.15017 0.52606 0.0
O76 O 0.7673 0.93633 0.52544 0.0
H77 H 0.62898 0.95039 0.52858 0.0
H78 H 0.73242 0.88463 0.48277 0.0
H79 H 0.58412 0.14185 0.50005 0.0
H80 H 0.84257 0.0693 0.60962 0.0
H81 H 0.61751 0.20566 0.51401 0.0
H82 H 0.80153 0.10008 0.66522 0.0
O83 O 0.69209 0.05183 0.45769 0.0
H84 H 0.82593 0.96203 0.39211 0.0
H85 H 0.67622 0.9376 0.42909 0.0
H86 H 0.69999 0.92462 0.35944 0.0
H87 H 0.77541 0.93673 0.34047 0.0
H88 H 0.80077 0.97495 0.46125 0.0
H89 H 0.68909 0.8253 0.48562 0.0
H90 H 0.6143 0.82869 0.5099 0.0
O91 O 0.66774 0.99575 0.48082 0.0
C92 C 0.67575 0.01171 0.568 0.0
C93 C 0.61685 0.89 0.52081 0.0
C94 C 0.67568 0.85263 0.4952 0.0
N95 N 0.68348 0.92106 0.50563 0.0
C96 C 0.64235 0.92309 0.51907 0.0
C97 C 0.70024 0.88632 0.49394 0.0
C98 C 0.63371 0.85456 0.50876 0.0
C99 C 0.78909 0.06862 0.56854 0.0
N100 N 0.7472 0.07781 0.56255 0.0
C101 C 0.80932 0.07656 0.60534 0.0
C102 C 0.7863 0.09379 0.63651 0.0
C103 C 0.74353 0.10282 0.63051 0.0
C104 C 0.72447 0.09455 0.59324 0.0
C105 C 0.68049 0.18193 0.52065 0.0
C106 C 0.64342 0.1108 0.50529 0.0
C107 C 0.70484 0.14816 0.51991 0.0
N108 N 0.68626 0.11306 0.51259 0.0
C109 C 0.61804 0.14395 0.50575 0.0
C110 C 0.63678 0.17973 0.51352 0.0
C111 C 0.66879 0.02168 0.45361 0.0
C112 C 0.79303 0.95648 0.40002 0.0
C113 C 0.70916 0.94284 0.4213 0.0
C114 C 0.72241 0.93545 0.38169 0.0
C115 C 0.76468 0.9423 0.37107 0.0
N116 N 0.73713 0.95674 0.44968 0.0
C117 C 0.77858 0.96365 0.4393 0.0
Co118 Co 0.00605 0.79614 0.45929 0.0
Co119 Co 1.00325 0.7957 0.5613 0.0
O120 O 0.00468 0.76653 0.51012 0.0
C121 C 0.97197 0.71663 0.43914 0.0
O122 O 0.96377 0.70927 0.47726 0.0
C123 C 0.03767 0.71629 0.58056 0.0
O124 O 0.04572 0.7092 0.54233 0.0
O125 O 0.06022 0.81823 0.54561 0.0
O126 O 0.03553 0.84054 0.48663 0.0
H127 H 0.027 0.91598 0.644 0.0
H128 H 0.04922 0.71878 0.46631 0.0
O129 O 0.97968 0.75138 0.42801 0.0
H130 H 0.15781 0.8062 0.4101 0.0
H131 H 0.02318 0.81849 0.30914 0.0
H132 H 0.98451 0.87749 0.43998 0.0
H133 H 0.08609 0.83037 0.42582 0.0
H134 H 0.02624 0.78048 0.37209 0.0
O135 O 0.02994 0.75093 0.59206 0.0
H136 H 0.02434 0.87704 0.58152 0.0
H137 H 0.98344 0.77919 0.64836 0.0
H138 H 0.98169 0.91686 0.37795 0.0
H139 H 0.12009 0.69336 0.45033 0.0
H140 H 1.00099 0.88737 0.31185 0.0
H141 H 0.17526 0.73712 0.42201 0.0
O142 O 0.94899 0.81823 0.47514 0.0
H143 H 0.8898 0.69207 0.56928 0.0
H144 H 0.92312 0.8291 0.59538 0.0
H145 H 0.8516 0.8043 0.61106 0.0
H146 H 0.8345 0.7352 0.59835 0.0
H147 H 0.96046 0.71812 0.55337 0.0
H148 H 0.98635 0.81678 0.71174 0.0
H149 H 0.00804 0.88585 0.70979 0.0
O150 O 0.97339 0.84007 0.53452 0.0
C151 C 0.0638 0.84011 0.51441 0.0
C152 C 0.01769 0.88586 0.64529 0.0
C153 C 0.99499 0.83018 0.68332 0.0
N154 N 0.00437 0.82557 0.61127 0.0
C155 C 0.01616 0.86361 0.60997 0.0
C156 C 0.99387 0.80884 0.64738 0.0
C157 C 0.00707 0.86894 0.68219 0.0
C158 C 0.0723 0.738 0.45327 0.0
N159 N 0.06249 0.77584 0.44597 0.0
C160 C 0.11277 0.72343 0.44456 0.0
C161 C 0.14372 0.74799 0.42875 0.0
C162 C 0.13394 0.7867 0.42202 0.0
C163 C 0.09308 0.80018 0.43093 0.0
C164 C 0.01437 0.83162 0.3377 0.0
C165 C 0.99282 0.86433 0.41138 0.0
C166 C 0.01557 0.81003 0.37339 0.0
N167 N 0.00487 0.82639 0.40966 0.0
C168 C 0.99121 0.88683 0.37633 0.0
C169 C 1.00202 0.87027 0.33925 0.0
C170 C 0.94523 0.83985 0.50661 0.0
C171 C 0.89697 0.72214 0.5754 0.0
C172 C 0.91628 0.79891 0.5899 0.0
C173 C 0.87554 0.78507 0.5988 0.0
C174 C 0.86595 0.74635 0.59163 0.0
N175 N 0.94695 0.77491 0.57448 0.0
C176 C 0.93732 0.73707 0.56673 0.0
Co177 Co 0.29071 0.96816 0.51258 0.0
Co178 Co 0.28991 0.06582 0.50618 0.0
O179 O 0.2574 0.01684 0.51026 0.0
C180 C 0.20328 0.94598 0.48163 0.0
O181 O 0.19416 0.98212 0.47348 0.0
C182 C 0.20475 0.08688 0.54206 0.0
O183 O 0.19551 0.05067 0.54992 0.0
O184 O 0.31627 0.05202 0.55991 0.0
O185 O 0.34061 0.99581 0.53706 0.0
H186 H 0.42629 0.14086 0.51987 0.0
H187 H 0.20727 0.97619 0.55523 0.0
O188 O 0.2413 0.93649 0.491 0.0
H189 H 0.30632 0.92567 0.65811 0.0
H190 H 0.31833 0.82566 0.53323 0.0
H191 H 0.37954 0.94997 0.4892 0.0
H192 H 0.33101 0.93806 0.58869 0.0
H193 H 0.27553 0.88526 0.53553 0.0
O194 O 0.24277 0.09653 0.5328 0.0
H195 H 0.38108 0.08264 0.51981 0.0
H196 H 0.27282 0.15047 0.49058 0.0
H197 H 0.42375 0.89122 0.48696 0.0
H198 H 0.1812 0.96382 0.62408 0.0
H199 H 0.39318 0.82842 0.50901 0.0
H200 H 0.23084 0.93841 0.67628 0.0
O201 O 0.31181 0.98114 0.45701 0.0
H202 H 0.17007 0.06917 0.4041 0.0
H203 H 0.32061 0.1019 0.42878 0.0
H204 H 0.28881 0.11603 0.36249 0.0
H205 H 0.2128 0.09992 0.34971 0.0
H206 H 0.20331 0.05504 0.46965 0.0
H207 H 0.31656 0.20948 0.49091 0.0
H208 H 0.3941 0.20494 0.50537 0.0
O209 O 0.33672 0.03906 0.47545 0.0
C210 C 0.33937 0.02184 0.56426 0.0
C211 C 0.39255 0.14324 0.51346 0.0
C212 C 0.33098 0.18174 0.49732 0.0
N213 N 0.32409 0.11293 0.5051 0.0
C214 C 0.36673 0.11031 0.51329 0.0
C215 C 0.30616 0.14818 0.49746 0.0
C216 C 0.37448 0.17917 0.50538 0.0
C217 C 0.22907 0.96473 0.57734 0.0
N218 N 0.27051 0.95737 0.56734 0.0
C219 C 0.21411 0.95792 0.6165 0.0
C220 C 0.24196 0.9437 0.64577 0.0
C221 C 0.28426 0.93649 0.63559 0.0
C222 C 0.29802 0.94353 0.59609 0.0
C223 C 0.33197 0.8528 0.52335 0.0
C224 C 0.36591 0.92282 0.49886 0.0
C225 C 0.30768 0.88661 0.52422 0.0
N226 N 0.32471 0.92111 0.51216 0.0
C227 C 0.39115 0.88961 0.49751 0.0
C228 C 0.37397 0.85439 0.50984 0.0
C229 C 0.334 1.01153 0.44974 0.0
C230 C 0.20319 0.07648 0.4093 0.0
C231 C 0.28768 0.09453 0.42372 0.0
C232 C 0.26975 0.10273 0.38596 0.0
C233 C 0.22716 0.09369 0.3788 0.0
N234 N 0.26399 0.07786 0.45377 0.0
C235 C 0.22229 0.06859 0.44662 0.0
Co236 Co 0.49776 0.95912 0.26313 0.0
Co237 Co 0.51552 0.05695 0.26716 0.0
O238 O 0.5077 1.00888 0.23509 0.0
C239 C 0.52923 0.93428 0.18104 0.0
O240 O 0.53232 0.96961 0.16691 0.0
C241 C 0.48962 0.08506 0.18364 0.0
O242 O 0.48623 0.04987 0.1692 0.0
O243 O 0.45729 0.04869 0.29119 0.0
O244 O 0.46557 0.98599 0.30716 0.0
H245 H 0.50745 0.13514 0.3956 0.0
H246 H 0.46034 0.98354 0.18229 0.0
O247 O 0.52758 0.92849 0.21921 0.0
H248 H 0.34477 0.91382 0.25068 0.0
H249 H 0.47004 0.81564 0.2767 0.0
H250 H 0.50345 0.93649 0.34938 0.0
H251 H 0.41362 0.92231 0.28421 0.0
H252 H 0.47549 0.87732 0.23994 0.0
O253 O 0.49238 0.09061 0.22184 0.0
H254 H 0.50212 0.07624 0.35392 0.0
H255 H 0.54341 0.13846 0.25046 0.0
H256 H 0.49702 0.87573 0.38769 0.0
H257 H 0.39249 0.97499 0.14747 0.0
H258 H 0.48044 0.81461 0.3513 0.0
H259 H 0.33362 0.93977 0.18143 0.0
O260 O 0.55319 0.96701 0.29305 0.0
H261 H 0.63134 0.04928 0.16068 0.0
H262 H 0.59845 0.08377 0.3019 0.0
H263 H 0.67095 0.0936 0.27613 0.0
H264 H 0.68794 0.07665 0.20488 0.0
H265 H 0.55957 0.03984 0.18753 0.0
H266 H 0.54843 0.19824 0.29079 0.0
H267 H 0.53058 0.19683 0.36404 0.0
O268 O 0.54074 0.0277 0.31309 0.0
C269 C 0.44608 0.01819 0.31067 0.0
C270 C 0.51498 0.13623 0.36364 0.0
C271 C 0.53783 0.17166 0.30482 0.0
N272 N 0.52121 0.10397 0.2994 0.0
C273 C 0.51186 0.10294 0.3398 0.0
C274 C 0.53431 0.13779 0.28194 0.0
C275 C 0.52794 0.17082 0.34592 0.0
C276 C 0.43608 0.96742 0.19737 0.0
N277 N 0.44282 0.95216 0.23503 0.0
C278 C 0.39708 0.96298 0.17742 0.0
C279 C 0.36405 0.94335 0.19648 0.0
C280 C 0.37032 0.92879 0.23524 0.0
C281 C 0.40981 0.93373 0.25415 0.0
C282 C 0.47767 0.842 0.29289 0.0
C283 C 0.49619 0.91013 0.3333 0.0
C284 C 0.48151 0.87694 0.27207 0.0
N285 N 0.49065 0.91052 0.29225 0.0
C286 C 0.49261 0.87574 0.35517 0.0
C287 C 0.48336 0.84146 0.33474 0.0
C288 C 0.56174 0.99645 0.31516 0.0
C289 C 0.62415 0.05762 0.19153 0.0
C290 C 0.60491 0.07716 0.27053 0.0
C291 C 0.64637 0.08248 0.25623 0.0
C292 C 0.65592 0.07285 0.21634 0.0
N293 N 0.57328 0.06349 0.24567 0.0
C294 C 0.58303 0.05279 0.20689 0.0
Co295 Co 1.00101 0.56734 0.25343 0.0
Co296 Co 0.017 0.46957 0.24824 0.0
O297 O 0.01034 0.51728 0.28101 0.0
C298 C 0.03234 0.59126 0.33599 0.0
O299 O 0.03506 0.5558 0.34985 0.0
C300 C 0.99196 0.44072 0.33161 0.0
O301 O 0.98912 0.4758 0.34645 0.0
O302 O 0.95859 0.47885 0.2249 0.0
O303 O 0.96873 0.54123 0.20881 0.0
H304 H 0.00472 0.39317 0.1189 0.0
H305 H 0.96305 0.54242 0.33377 0.0
O306 O 0.03101 0.59735 0.29787 0.0
H307 H 0.84822 0.61292 0.26506 0.0
H308 H 0.97447 0.71105 0.24133 0.0
H309 H 0.00771 0.59092 0.16752 0.0
H310 H 0.91718 0.60451 0.23201 0.0
H311 H 0.9792 0.64893 0.27739 0.0
O312 O 0.99402 0.43554 0.29332 0.0
H313 H 1.00099 0.45152 0.16154 0.0
H314 H 0.04421 0.38762 0.26326 0.0
H315 H 1.00203 0.65214 0.12991 0.0
H316 H 0.89511 0.55097 0.36817 0.0
H317 H 0.98553 0.71289 0.16688 0.0
H318 H 0.83662 0.58658 0.33404 0.0
O319 O 0.05645 0.55919 0.2238 0.0
H320 H 0.13444 0.4748 0.35365 0.0
H321 H 0.09901 0.44229 0.21234 0.0
H322 H 0.17171 0.43135 0.23731 0.0
H323 H 0.18996 0.44729 0.3086 0.0
H324 H 0.06245 0.48536 0.3276 0.0
H325 H 0.0476 0.32837 0.22194 0.0
H326 H 0.02799 0.33092 0.14908 0.0
O327 O 0.0421 0.4992 0.20253 0.0
C328 C 0.94821 0.50952 0.20532 0.0
C329 C 0.01309 0.39161 0.15068 0.0
C330 C 0.037 0.35523 0.20851 0.0
N331 N 0.0214 0.42296 0.21522 0.0
C332 C 0.01096 0.42459 0.17505 0.0
C333 C 0.03445 0.3888 0.23195 0.0
C334 C 0.02612 0.3567 0.16762 0.0
C335 C 0.93899 0.55879 0.31868 0.0
N336 N 0.94601 0.57434 0.2812 0.0
C337 C 0.89992 0.56319 0.33837 0.0
C338 C 0.8671 0.58303 0.31921 0.0
C339 C 0.87362 0.59781 0.28059 0.0
C340 C 0.91317 0.5929 0.26194 0.0
C341 C 0.98204 0.68485 0.2249 0.0
C342 C 1.00047 0.61712 0.18384 0.0
C343 C 0.98545 0.64965 0.24532 0.0
N344 N 0.99453 0.61628 0.22482 0.0
C345 C 0.99731 0.65177 0.16237 0.0
C346 C 0.98811 0.68584 0.18313 0.0
C347 C 0.06425 0.52989 0.20126 0.0
C348 C 0.12667 0.46687 0.32278 0.0
C349 C 0.10601 0.44844 0.24374 0.0
C350 C 0.14758 0.4425 0.25758 0.0
C351 C 0.15784 0.45157 0.29749 0.0
N352 N 0.07495 0.46213 0.26908 0.0
C353 C 0.08542 0.47232 0.30788 0.0
Co354 Co 0.49403 0.05743 0.75024 0.0
Co355 Co 0.51033 0.95952 0.75444 0.0
O356 O 0.50111 1.00948 0.78242 0.0
C357 C 0.52009 0.08574 0.83369 0.0
O358 O 0.52292 0.0506 0.84822 0.0
C359 C 0.47897 0.93523 0.83674 0.0
O360 O 0.47655 0.97062 0.85093 0.0
O361 O 0.45485 0.96774 0.72476 0.0
O362 O 0.46827 0.02814 0.70442 0.0
H363 H 0.50946 0.87529 0.63018 0.0
H364 H 0.44958 0.04095 0.8298 0.0
O365 O 0.51771 0.09111 0.79546 0.0
H366 H 0.33924 0.09588 0.74118 0.0
H367 H 0.46355 0.19894 0.72612 0.0
H368 H 0.50816 0.07607 0.6635 0.0
H369 H 0.41158 0.08511 0.71545 0.0
H370 H 0.46757 0.13938 0.76668 0.0
O371 O 0.48036 0.92934 0.79856 0.0
H372 H 0.50387 0.93635 0.66829 0.0
H373 H 0.53178 0.87774 0.77784 0.0
H374 H 0.50379 0.13475 0.62162 0.0
H375 H 0.37797 0.05135 0.85661 0.0
H376 H 0.48151 0.19686 0.65291 0.0
H377 H 0.3219 0.07931 0.8124 0.0
O378 O 0.55211 0.0484 0.72625 0.0
H379 H 0.61644 0.97526 0.86951 0.0
H380 H 0.594 0.92218 0.73294 0.0
H381 H 0.66298 0.91348 0.76608 0.0
H382 H 0.67478 0.93961 0.83525 0.0
H383 H 0.54847 0.98406 0.83505 0.0
H384 H 0.53642 0.81578 0.74127 0.0
H385 H 0.52562 0.81432 0.66673 0.0
O386 O 0.54256 0.98585 0.71013 0.0
C387 C 0.44663 0.99717 0.70263 0.0
C388 C 0.51406 0.8755 0.66268 0.0
C389 C 0.52899 0.84209 0.72501 0.0
N390 N 0.51673 0.91069 0.72545 0.0
C391 C 0.51094 0.91005 0.68443 0.0
C392 C 0.52562 0.87719 0.74572 0.0
C393 C 0.52306 0.8413 0.6832 0.0
C394 C 0.42638 0.05419 0.81045 0.0
N395 N 0.43637 0.06472 0.7717 0.0
C396 C 0.38534 0.05954 0.82578 0.0
C397 C 0.35387 0.07511 0.80096 0.0
C398 C 0.36361 0.08453 0.7611 0.0
C399 C 0.40499 0.07868 0.74682 0.0
C400 C 0.47371 0.17215 0.7122 0.0
C401 C 0.49866 0.10294 0.67749 0.0
C402 C 0.47662 0.13839 0.73519 0.0
N403 N 0.48915 0.10431 0.71785 0.0
C404 C 0.49615 0.13611 0.65355 0.0
C405 C 0.48367 0.17094 0.67112 0.0
C406 C 0.56265 0.01778 0.70659 0.0
C407 C 0.61156 0.96315 0.83961 0.0
C408 C 0.59809 0.9337 0.76296 0.0
C409 C 0.63766 0.92863 0.78165 0.0
C410 C 0.64429 0.94329 0.82037 0.0
N411 N 0.56536 0.95233 0.78227 0.0
C412 C 0.57247 0.96771 0.81988 0.0
Co413 Co 0.9928 0.46472 0.76272 0.0
Co414 Co 0.01051 0.56334 0.76296 0.0
O415 O 1.00058 0.51422 0.73322 0.0
C416 C 0.02136 0.43954 0.67909 0.0
O417 O 0.02384 0.475 0.66533 0.0
C418 C 0.97717 0.58995 0.68213 0.0
O419 O 0.97345 0.55492 0.66725 0.0
O420 O 0.95586 0.55443 0.79373 0.0
O421 O 0.96448 0.49168 0.80864 0.0
H422 H 0.01539 0.64326 0.89027 0.0
H423 H 0.95111 0.48507 0.68252 0.0
O424 O 0.01901 0.43335 0.71716 0.0
H425 H 0.83863 0.42278 0.76266 0.0
H426 H 0.96378 0.32178 0.7786 0.0
H427 H 1.00296 0.44251 0.84894 0.0
H428 H 0.90954 0.43336 0.79203 0.0
H429 H 0.96807 0.38323 0.74127 0.0
O430 O 0.97963 0.59499 0.7204 0.0
H431 H 0.00846 0.5835 0.85011 0.0
H432 H 0.03094 0.64598 0.74194 0.0
H433 H 0.99819 0.38189 0.88772 0.0
H434 H 0.88104 0.47488 0.6521 0.0
H435 H 0.9787 0.32084 0.8525 0.0
H436 H 0.82386 0.44322 0.69198 0.0
O437 O 0.04995 0.47271 0.78943 0.0
H438 H 0.11332 0.55267 0.64495 0.0
H439 H 0.09482 0.59936 0.78455 0.0
H440 H 0.16278 0.60999 0.7502 0.0
H441 H 0.17258 0.58704 0.67956 0.0
H442 H 0.04634 0.5421 0.68047 0.0
H443 H 0.03698 0.70669 0.78056 0.0
H444 H 0.02952 0.70557 0.85544 0.0
O445 O 0.04356 0.53559 0.80559 0.0
C446 C 0.94593 0.52396 0.81365 0.0
C447 C 0.01834 0.64422 0.85763 0.0
C448 C 0.03029 0.67982 0.79608 0.0
N449 N 0.018 0.61122 0.79351 0.0
C450 C 0.01431 0.61042 0.83472 0.0
C451 C 0.02605 0.64542 0.77421 0.0
C452 C 0.02625 0.67916 0.83808 0.0
C453 C 0.9275 0.47034 0.70003 0.0
N454 N 0.93615 0.45777 0.73842 0.0
C455 C 0.88729 0.46506 0.68264 0.0
C456 C 0.8552 0.44742 0.70503 0.0
C457 C 0.86351 0.43586 0.74459 0.0
C458 C 0.90412 0.44165 0.76093 0.0
C459 C 0.97282 0.34809 0.79423 0.0
C460 C 0.9948 0.4161 0.83329 0.0
C461 C 0.97597 0.3829 0.77307 0.0
N462 N 0.98711 0.41638 0.79255 0.0
C463 C 0.99199 0.38183 0.85547 0.0
C464 C 0.98106 0.3476 0.8357 0.0
C465 C 0.06184 0.50288 0.80913 0.0
C466 C 0.1093 0.5634 0.67552 0.0
C467 C 0.09803 0.58939 0.75379 0.0
C468 C 0.13702 0.59547 0.73447 0.0
C469 C 0.14254 0.58256 0.69494 0.0
N470 N 0.06479 0.57147 0.73435 0.0
C471 C 0.07081 0.55778 0.69589 0.0
Co472 Co 0.2178 0.55691 0.00965 0.0
Co473 Co 0.21903 0.45926 1.00476 0.0
O474 O 0.25141 0.50839 0.00803 0.0
C475 C 0.30475 0.57882 0.97773 0.0
O476 O 0.31386 0.54262 0.96974 0.0
C477 C 0.30443 0.43892 0.04126 0.0
O478 O 0.31354 0.47527 0.04866 0.0
O479 O 0.19334 0.4737 0.05855 0.0
O480 O 0.16841 0.52945 0.03506 0.0
H481 H 0.08369 0.38319 0.02075 0.0
H482 H 0.30168 0.55008 0.05195 0.0
O483 O 0.2668 0.58836 0.98725 0.0
H484 H 0.20345 0.60235 0.15442 0.0
H485 H 0.18908 0.69966 0.0276 0.0
H486 H 0.12858 0.57393 0.98658 0.0
H487 H 0.1781 0.58841 0.08541 0.0
H488 H 0.23247 0.64046 0.03077 0.0
O489 O 0.26664 0.42907 0.03128 0.0
H490 H 0.12829 0.44183 0.01995 0.0
H491 H 0.23663 0.37487 0.98884 0.0
H492 H 0.08377 0.63227 0.98346 0.0
H493 H 0.3284 0.564 0.12038 0.0
H494 H 0.11398 0.69577 1.004 0.0
H495 H 0.27918 0.5903 0.17237 0.0
O496 O 0.19634 0.54276 0.95437 0.0
H497 H 0.33774 0.45381 0.90204 0.0
H498 H 0.18669 0.42385 0.92755 0.0
H499 H 0.21759 0.409 0.86102 0.0
H500 H 0.2938 0.42373 0.84785 0.0
H501 H 0.30543 0.46867 0.96784 0.0
H502 H 0.19348 0.31546 0.98982 0.0
H503 H 0.11624 0.31937 1.00563 0.0
O504 O 0.17158 0.48541 0.97431 0.0
C505 C 0.17022 0.50391 0.06268 0.0
C506 C 0.11731 0.38109 0.01378 0.0
C507 C 0.17892 0.34309 0.99653 0.0
N508 N 0.18525 0.41196 1.00434 0.0
C509 C 0.14278 0.41424 0.01322 0.0
C510 C 0.20338 0.37686 0.99631 0.0
C511 C 0.13559 0.3453 1.00534 0.0
C512 C 0.28006 0.56192 0.07396 0.0
N513 N 0.23848 0.56893 0.06407 0.0
C514 C 0.29539 0.56962 0.11289 0.0
C515 C 0.26777 0.58434 0.14205 0.0
C516 C 0.22533 0.59116 0.13198 0.0
C517 C 0.21119 0.58324 0.09271 0.0
C518 C 0.17559 0.67219 0.01838 0.0
C519 C 0.14206 0.60139 0.99558 0.0
C520 C 0.20022 0.63861 0.01975 0.0
N521 N 0.1834 0.60371 0.00853 0.0
C522 C 0.11648 0.63437 0.99374 0.0
C523 C 0.13344 0.66999 1.00522 0.0
C524 C 0.17416 0.51218 0.94785 0.0
C525 C 0.30454 0.44705 0.90744 0.0
C526 C 0.21981 0.43047 0.92231 0.0
C527 C 0.23717 0.42193 0.88443 0.0
C528 C 0.27989 0.43022 0.87705 0.0
N529 N 0.2442 0.44672 0.95225 0.0
C530 C 0.286 0.4553 0.94489 0.0
Co531 Co 0.50348 0.291 0.95816 0.0
Co532 Co 0.50692 0.28985 0.06026 0.0
O533 O 0.50515 0.26113 0.00884 0.0
C534 C 0.46744 0.21188 0.93973 0.0
O535 O 0.46153 0.2046 0.97825 0.0
C536 C 0.5426 0.2104 0.07705 0.0
O537 O 0.54713 0.20316 0.03832 0.0
O538 O 0.56269 0.31247 0.04152 0.0
O539 O 0.53472 0.33531 0.98408 0.0
H540 H 0.53569 0.40943 0.14261 0.0
H541 H 0.54656 0.21346 0.96219 0.0
O542 O 0.47505 0.24649 0.9282 0.0
H543 H 0.65188 0.30083 0.90052 0.0
H544 H 0.51021 0.31314 0.80729 0.0
H545 H 0.48148 0.37254 0.94028 0.0
H546 H 0.58137 0.32516 0.92041 0.0
H547 H 0.51714 0.27502 0.86992 0.0
O548 O 0.53587 0.24506 0.089 0.0
H549 H 0.5288 0.37111 0.07997 0.0
H550 H 0.49353 0.27226 0.14818 0.0
H551 H 0.47476 0.41192 0.8785 0.0
H552 H 0.61623 0.18789 0.94214 0.0
H553 H 0.48908 0.38223 0.81135 0.0
H554 H 0.66974 0.23163 0.91104 0.0
O555 O 0.44763 0.31306 0.97725 0.0
H556 H 0.39465 0.18576 0.07441 0.0
H557 H 0.42924 0.32268 0.0996 0.0
H558 H 0.3591 0.29752 0.11959 0.0
H559 H 0.34138 0.22846 0.10736 0.0
H560 H 0.4639 0.21217 0.05427 0.0
H561 H 0.50069 0.30927 0.21167 0.0
H562 H 0.5217 0.3785 0.20912 0.0
O563 O 0.47513 0.33438 0.03561 0.0
C564 C 0.56458 0.33443 0.0103 0.0
C565 C 0.52665 0.37925 0.14414 0.0
C566 C 0.50712 0.32303 0.1829 0.0
N567 N 0.51125 0.31926 0.11036 0.0
C568 C 0.52271 0.35737 0.10874 0.0
C569 C 0.50354 0.30206 0.14686 0.0
C570 C 0.51882 0.36188 0.18144 0.0
C571 C 0.56893 0.23268 0.94805 0.0
N572 N 0.55888 0.27061 0.94158 0.0
C573 C 0.60871 0.21802 0.93699 0.0
C574 C 0.63873 0.24257 0.91962 0.0
C575 C 0.62871 0.28135 0.91365 0.0
C576 C 0.58854 0.29492 0.92494 0.0
C577 C 0.50367 0.32637 0.83635 0.0
C578 C 0.48774 0.35934 0.91122 0.0
C579 C 0.50716 0.30479 0.8719 0.0
N580 N 0.49929 0.32131 0.90877 0.0
C581 C 0.48389 0.38182 0.87631 0.0
C582 C 0.49189 0.36515 0.83865 0.0
C583 C 0.4454 0.33424 0.00916 0.0
C584 C 0.40211 0.21581 0.0803 0.0
C585 C 0.42211 0.29254 0.09422 0.0
C586 C 0.38215 0.27848 0.1056 0.0
C587 C 0.37222 0.23978 0.09871 0.0
N588 N 0.45169 0.26878 0.07662 0.0
C589 C 0.44168 0.23095 0.06919 0.0
Co590 Co 0.787 0.46039 0.0116 0.0
Co591 Co 0.79104 0.558 1.00391 0.0
O592 O 0.75641 0.51009 1.00596 0.0
C593 C 0.70251 0.44027 0.97302 0.0
O594 O 0.69346 0.47684 0.96691 0.0
C595 C 0.70497 0.58143 0.03658 0.0
O596 O 0.69671 0.54601 0.04825 0.0
O597 O 0.81142 0.5453 0.05983 0.0
O598 O 0.83398 0.48607 0.04336 0.0
H599 H 0.92576 0.63304 0.02928 0.0
H600 H 0.69883 0.47246 0.04442 0.0
O601 O 0.74024 0.43048 0.9831 0.0
H602 H 0.77969 0.41469 0.15677 0.0
H603 H 0.80598 0.31697 0.03394 0.0
H604 H 0.87736 0.43951 0.9991 0.0
H605 H 0.81408 0.42658 0.09125 0.0
H606 H 0.76556 0.37798 0.03181 0.0
O607 O 0.74215 0.59044 0.02438 0.0
H608 H 0.88032 0.57495 0.02734 0.0
H609 H 0.77723 0.64119 0.98137 0.0
H610 H 0.91929 0.37935 1.00167 0.0
H611 H 0.66292 0.46022 0.10893 0.0
H612 H 0.88357 0.31745 0.01908 0.0
H613 H 0.70331 0.4312 0.166 0.0
O614 O 0.81572 0.47275 0.95861 0.0
H615 H 0.68198 0.56408 0.89201 0.0
H616 H 0.83247 0.58677 0.92787 0.0
H617 H 0.80833 0.59882 0.8581 0.0
H618 H 0.7325 0.58763 0.83972 0.0
H619 H 0.70759 0.55188 0.96122 0.0
H620 H 0.82136 0.70009 0.98329 0.0
H621 H 0.89635 0.69624 1.00718 0.0
O622 O 0.84058 0.52921 0.98052 0.0
C623 C 0.83277 0.51464 0.06789 0.0
C624 C 0.89314 0.63511 0.01879 0.0
C625 C 0.83454 0.67274 0.99308 0.0
N626 N 0.826 0.60454 1.0043 0.0
C627 C 0.86722 0.60226 0.01757 0.0
C628 C 0.80955 0.63929 0.99232 0.0
C629 C 0.87661 0.67055 1.00643 0.0
C630 C 0.71678 0.45938 0.06847 0.0
N631 N 0.75872 0.44995 0.06328 0.0
C632 C 0.69618 0.45269 0.10528 0.0
C633 C 0.71884 0.4365 0.13729 0.0
C634 C 0.76165 0.42726 0.13213 0.0
C635 C 0.7811 0.43429 0.09485 0.0
C636 C 0.82188 0.34371 0.02606 0.0
C637 C 0.86154 0.41273 1.00668 0.0
C638 C 0.79899 0.37828 0.02434 0.0
N639 N 0.81885 0.41226 0.01481 0.0
C640 C 0.88547 0.37873 0.00809 0.0
C641 C 0.86541 0.34401 0.01782 0.0
C642 C 0.83934 0.50263 0.95389 0.0
C643 C 0.71509 0.56914 0.89964 0.0
C644 C 0.79944 0.5817 0.92025 0.0
C645 C 0.78595 0.58865 0.88061 0.0
C646 C 0.74344 0.58234 0.87032 0.0
N647 N 0.7715 0.56868 0.94895 0.0
C648 C 0.7298 0.56235 0.93893 0.0
Co649 Co 0.50379 0.72916 0.05951 0.0
Co650 Co 0.50321 0.72906 0.95747 0.0
O651 O 0.50336 0.75851 0.00853 0.0
C652 C 0.46865 0.80839 0.07837 0.0
O653 O 0.46101 0.81545 0.04006 0.0
C654 C 0.53766 0.80868 0.93889 0.0
O655 O 0.54553 0.81564 0.97721 0.0
O656 O 0.56003 0.70723 0.97447 0.0
O657 O 0.53451 0.68502 0.03309 0.0
H658 H 0.53003 0.6087 0.87595 0.0
H659 H 0.54647 0.80688 0.05311 0.0
O660 O 0.47617 0.77373 0.08988 0.0
H661 H 0.65407 0.72102 0.11345 0.0
H662 H 0.51695 0.70737 0.21019 0.0
H663 H 0.48245 0.64768 0.07848 0.0
H664 H 0.58316 0.69596 0.09554 0.0
H665 H 0.52157 0.7452 0.14722 0.0
O666 O 0.52999 0.77406 0.92717 0.0
H667 H 0.52561 0.64789 0.93814 0.0
H668 H 0.48498 0.74492 0.86989 0.0
H669 H 0.47812 0.60847 0.14053 0.0
H670 H 0.6165 0.83319 0.07123 0.0
H671 H 0.49529 0.63831 0.20707 0.0
H672 H 0.67116 0.79022 0.10167 0.0
O673 O 0.44732 0.70654 0.0423 0.0
H674 H 0.38904 0.8315 0.94645 0.0
H675 H 0.42408 0.69465 0.92189 0.0
H676 H 0.35264 0.71866 0.90463 0.0
H677 H 0.33467 0.78765 0.91656 0.0
H678 H 0.45964 0.80624 0.96392 0.0
H679 H 0.48965 0.70709 0.80679 0.0
H680 H 0.5121 0.6383 0.80959 0.0
O681 O 0.47333 0.68441 0.9838 0.0
C682 C 0.56337 0.68563 1.00592 0.0
C683 C 0.52039 0.6387 0.87429 0.0
C684 C 0.49786 0.69393 0.83547 0.0
N685 N 0.50566 0.69898 0.90768 0.0
C686 C 0.51786 0.66109 0.90944 0.0
C687 C 0.49573 0.71541 0.87127 0.0
C688 C 0.51035 0.65532 0.83708 0.0
C689 C 0.56932 0.78799 0.06701 0.0
N690 N 0.55966 0.7501 0.07426 0.0
C691 C 0.60932 0.80307 0.07695 0.0
C692 C 0.63999 0.77896 0.09394 0.0
C693 C 0.6304 0.74018 0.10059 0.0
C694 C 0.59001 0.72619 0.09042 0.0
C695 C 0.50905 0.69409 0.18143 0.0
C696 C 0.48986 0.66099 0.10726 0.0
C697 C 0.51113 0.71558 0.14571 0.0
N698 N 0.50159 0.69903 0.10919 0.0
C699 C 0.48739 0.63858 0.14233 0.0
C700 C 0.49701 0.65534 0.17965 0.0
C701 C 0.44444 0.68472 0.01092 0.0
C702 C 0.39659 0.80146 0.94068 0.0
C703 C 0.41685 0.7248 0.92705 0.0
C704 C 0.37616 0.73819 0.91725 0.0
C705 C 0.36609 0.77685 0.924 0.0
N706 N 0.44699 0.74918 0.94298 0.0
C707 C 0.4369 0.78698 0.95026 0.0
C708 C 0.02357 0.34031 0.36826 0.0
C709 C 0.03476 0.34707 0.40896 0.0
H710 H 0.99873 0.36342 0.31298 0.0
C711 C 0.03032 0.38491 0.42424 0.0
H712 H 0.02665 0.31181 0.35517 0.0
C713 C 0.01501 0.41492 0.39962 0.0
C714 C 1.00344 0.40799 0.35902 0.0
H715 H 0.03806 0.39136 0.45551 0.0
H716 H 0.01277 0.44371 0.41239 0.0
C717 C 0.00763 0.37013 0.34387 0.0
C718 C 0.60216 0.99655 0.42181 0.0
C719 C 0.64168 0.01536 0.41747 0.0
H720 H 0.54599 0.97518 0.3924 0.0
C721 C 0.65706 0.02268 0.37833 0.0
H722 H 0.5898 0.98997 0.45164 0.0
C723 C 0.63288 0.01202 0.34428 0.0
C724 C 0.59262 0.99462 0.34875 0.0
H725 H 0.68804 0.03592 0.37408 0.0
H726 H 0.64496 0.01867 0.31443 0.0
C727 C 0.5776 0.98694 0.38788 0.0
C728 C 0.02025 0.66189 0.35016 0.0
C729 C 0.0197 0.62338 0.36372 0.0
H730 H 1.00287 0.7205 0.36135 0.0
C731 C 1.00206 0.61565 0.40204 0.0
H732 H 0.03405 0.66914 0.32112 0.0
C733 C 0.98515 0.6456 0.42589 0.0
C734 C 0.98498 0.68409 0.41191 0.0
H735 H 1.00055 0.58631 0.41339 0.0
H736 H 0.97248 0.63856 0.45547 0.0
C737 C 1.00244 0.69158 0.37348 0.0
C738 C 0.36197 0.98386 0.38458 0.0
C739 C 0.3605 0.01432 0.4125 0.0
H740 H 0.38961 0.96163 0.33077 0.0
C741 C 0.38472 0.04793 0.40442 0.0
H742 H 0.34384 0.95763 0.38956 0.0
C743 C 0.40968 0.0509 0.36939 0.0
C744 C 0.41274 0.0196 0.34258 0.0
H745 H 0.38524 0.07186 0.42556 0.0
H746 H 0.42815 0.07688 0.36456 0.0
C747 C 0.3881 0.98635 0.35047 0.0
C748 C 0.00693 0.61514 0.61632 0.0
C749 C 0.99 0.62246 0.65505 0.0
H750 H 0.03597 0.6385 0.56293 0.0
C751 C 0.99025 0.66076 0.66938 0.0
H752 H 0.00783 0.58597 0.60436 0.0
C753 C 0.00804 0.69065 0.64632 0.0
C754 C 0.02476 0.68354 0.60748 0.0
H755 H 0.977 0.66769 0.69875 0.0
H756 H 0.00819 0.71943 0.65896 0.0
C757 C 0.02389 0.64526 0.59281 0.0
C758 C 0.37554 0.01308 0.67362 0.0
C759 C 0.41563 0.99542 0.66912 0.0
H760 H 0.32043 0.03691 0.64383 0.0
C761 C 0.43046 0.98736 0.63 0.0
H762 H 0.36364 0.02005 0.70346 0.0
C763 C 0.40587 0.9968 0.5961 0.0
C764 C 0.36648 0.01577 0.60043 0.0
H765 H 0.46195 0.97541 0.62544 0.0
H766 H 0.41811 0.98993 0.56628 0.0
C767 C 0.35129 0.0235 0.63957 0.0
C768 C 0.99198 0.33941 0.64017 0.0
C769 C 0.9786 0.34687 0.60024 0.0
H770 H 0.01893 0.36173 0.69497 0.0
C771 C 0.9812 0.38517 0.58598 0.0
H772 H 0.99042 0.31058 0.65251 0.0
C773 C 0.99661 0.415 0.61096 0.0
C774 C 0.01025 0.40733 0.6508 0.0
H775 H 0.97172 0.39216 0.5553 0.0
H776 H 0.99717 0.4442 0.59917 0.0
C777 C 0.00823 0.36899 0.66476 0.0
C778 C 0.61868 0.98481 0.6652 0.0
C779 C 0.59589 0.01878 0.67454 0.0
H780 H 0.66197 0.95588 0.62529 0.0
C781 C 0.60098 0.05096 0.64928 0.0
H782 H 0.6153 0.95928 0.68344 0.0
C783 C 0.62629 0.04836 0.61443 0.0
C784 C 0.64896 0.01418 0.6051 0.0
H785 H 0.58379 0.07746 0.65516 0.0
H786 H 0.62721 0.07303 0.5944 0.0
C787 C 0.64531 0.98267 0.6314 0.0
C788 C 0.37037 0.35722 0.99564 0.0
C789 C 0.40933 0.36142 0.01601 0.0
H790 H 0.30702 0.37819 0.98761 0.0
C791 C 0.41315 0.39098 0.04539 0.0
H792 H 0.36626 0.33489 0.97292 0.0
C793 C 0.37896 0.41555 0.05421 0.0
C794 C 0.33977 0.41097 0.03437 0.0
H795 H 0.44274 0.39528 0.06174 0.0
H796 H 0.38323 0.43817 0.0766 0.0
C797 C 0.33603 0.38163 1.00479 0.0
C798 C 0.38174 0.59821 0.97282 0.0
C799 C 0.34003 0.60696 0.98501 0.0
H800 H 0.44717 0.61552 0.97202 0.0
C801 C 0.33328 0.64107 1.00768 0.0
H802 H 0.38838 0.57214 0.95575 0.0
C803 C 0.36729 0.66564 0.01798 0.0
C804 C 0.40878 0.65696 1.00528 0.0
H805 H 0.30184 0.6487 0.01807 0.0
H806 H 0.36093 0.6919 0.03483 0.0
C807 C 0.41553 0.62299 0.98253 0.0
C808 C 0.59148 0.3993 0.98975 0.0
C809 C 0.60023 0.36182 1.00401 0.0
H810 H 0.61647 0.45322 0.9686 0.0
C811 C 0.64267 0.34938 1.0056 0.0
H812 H 0.55887 0.40933 0.98732 0.0
C813 C 0.67572 0.37404 0.99321 0.0
C814 C 0.6672 0.41209 0.98008 0.0
H815 H 0.65015 0.32013 0.01489 0.0
H816 H 0.70794 0.36316 0.99397 0.0
C817 C 0.6245 0.42425 0.97836 0.0
C818 C 0.62924 0.60241 0.04691 0.0
C819 C 0.66933 0.60906 0.0296 0.0
H820 H 0.56464 0.62085 0.05258 0.0
C821 C 0.67397 0.64053 1.00274 0.0
H822 H 0.62428 0.57831 0.06729 0.0
C823 C 0.63941 0.6648 0.99362 0.0
C824 C 0.59953 0.65835 0.01147 0.0
H825 H 0.70411 0.64613 0.9881 0.0
H826 H 0.64414 0.68897 0.97329 0.0
C827 C 0.59494 0.62679 0.03816 0.0
C828 C 0.50761 0.83443 0.87336 0.0
C829 C 0.52504 0.84152 0.91197 0.0
H830 H 0.47647 0.85748 0.82102 0.0
C831 C 0.5252 0.8799 0.92638 0.0
H832 H 0.50685 0.80558 0.86094 0.0
C833 C 0.50868 0.91016 0.90275 0.0
C834 C 0.49113 0.90283 0.86421 0.0
H835 H 0.53784 0.88664 0.95611 0.0
H836 H 0.51045 0.9394 0.91441 0.0
C837 C 0.49022 0.86442 0.85024 0.0
C838 C 0.14973 0.53585 0.87971 0.0
C839 C 0.14775 0.5082 0.91057 0.0
H840 H 0.12555 0.55465 0.8229 0.0
C841 C 0.12058 0.47594 0.9052 0.0
H842 H 0.17062 0.56069 0.88235 0.0
C843 C 0.09528 0.47208 0.87038 0.0
C844 C 0.09561 0.50091 0.84064 0.0
H845 H 0.11805 0.4539 0.92832 0.0
H846 H 0.07398 0.44761 0.86793 0.0
C847 C 0.1239 0.53225 0.84538 0.0
C848 C 0.50569 0.15645 0.84674 0.0
C849 C 0.50891 0.11838 0.86139 0.0
H850 H 0.48791 0.21501 0.85875 0.0
C851 C 0.49667 0.1112 0.9017 0.0
H852 H 0.51507 0.1633 0.81607 0.0
C853 C 0.48156 0.14116 0.92651 0.0
C854 C 0.47808 0.17923 0.91176 0.0
H855 H 0.49815 0.08224 0.91405 0.0
H856 H 0.47318 0.13449 0.95753 0.0
C857 C 0.49009 0.18629 0.87138 0.0
C858 C 0.92598 0.54092 0.88454 0.0
C859 C 0.91459 0.52492 0.84705 0.0
H860 H 0.91184 0.54561 0.9477 0.0
C861 C 0.87812 0.50121 0.84495 0.0
H862 H 0.95448 0.55824 0.88761 0.0
C863 C 0.85432 0.49266 0.87973 0.0
C864 C 0.8663 0.50803 0.91739 0.0
H865 H 0.86839 0.48867 0.81645 0.0
H866 H 0.82631 0.47449 0.87704 0.0
C867 C 0.90201 0.5328 0.9192 0.0
C868 C 0.50546 0.15546 0.17054 0.0
C869 C 0.50092 0.11748 0.15579 0.0
H870 H 0.52473 0.21361 0.15855 0.0
C871 C 0.51201 0.11014 0.11519 0.0
H872 H 0.49692 0.16249 0.2014 0.0
C873 C 0.52722 0.13987 0.09018 0.0
C874 C 0.53205 0.17783 0.10506 0.0
H875 H 0.50947 0.08123 0.10274 0.0
H876 H 0.5346 0.13312 0.05893 0.0
C877 C 0.52133 0.18501 0.14576 0.0
C878 C 0.89347 0.54322 0.16286 0.0
C879 C 0.91477 0.50873 0.17332 0.0
H880 H 0.85058 0.57218 0.12254 0.0
C881 C 0.90775 0.47585 0.14938 0.0
H882 H 0.8986 0.56938 0.17985 0.0
C883 C 0.8818 0.47807 0.11485 0.0
C884 C 0.86033 0.51264 0.10461 0.0
H885 H 0.92388 0.44897 0.15603 0.0
H886 H 0.87944 0.45273 0.09578 0.0
C887 C 0.86611 0.54502 0.1295 0.0
C888 C 0.48236 0.87946 0.09108 0.0
C889 C 0.48157 0.84112 0.10547 0.0
H890 H 0.49834 0.93874 0.10318 0.0
C891 C 0.49846 0.83388 0.14422 0.0
H892 H 0.47014 0.8863 0.06125 0.0
C893 C 0.51643 0.86364 0.16744 0.0
C894 C 0.5165 0.902 0.15348 0.0
H895 H 0.49834 0.80509 0.15669 0.0
H896 H 0.52987 0.85654 0.19671 0.0
C897 C 0.49936 0.90951 0.11485 0.0
C898 C 0.15936 0.50377 0.13812 0.0
C899 C 0.14354 0.51048 0.09897 0.0
H900 H 0.14772 0.50833 0.20205 0.0
C901 C 0.10386 0.52892 0.0946 0.0
H902 H 0.19045 0.49079 0.14237 0.0
C903 C 0.07957 0.53877 0.1285 0.0
C904 C 0.09498 0.53167 0.16766 0.0
H905 H 0.09113 0.53502 0.06475 0.0
H906 H 0.04783 0.55022 0.12399 0.0
C907 C 0.1354 0.51463 0.17217 0.0
C908 C 0.88091 0.92494 0.54542 0.0
C909 C 0.84036 0.91783 0.52914 0.0
H910 H 0.94556 0.90637 0.55056 0.0
C911 C 0.83498 0.88553 0.50338 0.0
H912 H 0.88646 0.94968 0.5649 0.0
C913 C 0.86923 0.86084 0.49442 0.0
C914 C 0.90952 0.8677 0.51137 0.0
H915 H 0.8045 0.87955 0.4895 0.0
H916 H 0.86392 0.83598 0.47507 0.0
C917 C 0.91489 0.90013 0.53688 0.0
C918 C 0.87068 0.16762 0.51782 0.0
C919 C 0.90875 0.16461 0.49593 0.0
H920 H 0.80825 0.14526 0.52772 0.0
C921 C 0.9117 0.13595 0.4655 0.0
H922 H 0.86728 0.18911 0.54149 0.0
C923 C 0.87752 0.11109 0.45717 0.0
C924 C 0.83923 0.11449 0.47862 0.0
H925 H 0.94061 0.13253 0.44798 0.0
H926 H 0.88109 0.08916 0.43396 0.0
C927 C 0.83639 0.14289 0.50923 0.0
C928 C 0.09219 0.90285 0.48879 0.0
C929 C 0.09943 0.86797 0.5097 0.0
H930 H 0.11883 0.95431 0.46324 0.0
C931 C 0.14131 0.85836 0.52046 0.0
H932 H 0.06023 0.91096 0.47969 0.0
C933 C 0.17523 0.88292 0.50999 0.0
C934 C 0.16798 0.91793 0.48912 0.0
H935 H 0.148 0.83131 0.53569 0.0
H936 H 0.20705 0.87445 0.51859 0.0
C937 C 0.12588 0.92758 0.47891 0.0
C938 C 0.13971 0.16755 0.49328 0.0
C939 C 0.10011 0.16327 0.51231 0.0
H940 H 0.20337 0.1469 0.48754 0.0
C941 C 0.09552 0.13392 0.54172 0.0
H942 H 0.14442 0.18969 0.47055 0.0
C943 C 0.12962 0.10981 0.55205 0.0
C944 C 0.16947 0.11453 0.53362 0.0
H945 H 0.06541 0.12953 0.55705 0.0
H946 H 0.12476 0.08743 0.57449 0.0
C947 C 0.17392 0.14349 0.50383 0.0
loop_
_geom_bond_atom_site_label_1
_geom_bond_atom_site_label_2
_geom_bond_distance
_geom_bond_site_symmetry_2
_ccdc_geom_bond_type
Co0 O2 2.143 . S
Co0 O8 2.074 . S
Co0 O11 2.093 1_455 S
Co0 O24 2.097 1_455 S
Co0 N41 2.151 . S
Co0 N49 2.214 . S
Co1 O2 2.160 1_655 S
Co1 O7 2.058 1_655 S
Co1 O17 2.057 1_655 S
Co1 O32 2.037 . S
Co1 N36 2.145 . S
Co1 N57 2.257 . S
O2 Co0 2.143 . S
O2 Co1 2.160 1_455 S
C3 O4 1.278 . S
C3 O11 1.224 . S
O4 C3 1.278 . S
C5 O6 1.245 . S
C5 O17 1.232 . S
O6 C5 1.245 . S
O7 Co1 2.058 1_455 S
O7 C33 1.269 . S
O8 Co0 2.074 . S
O8 C33 1.257 . S
H9 C34 0.930 . S
H10 C40 0.930 . S
O11 Co0 2.093 1_655 S
O11 C3 1.224 . S
H12 C44 0.929 . S
H13 C46 0.930 . S
H14 C47 0.930 . S
H15 C45 0.929 . S
H16 C48 0.928 . S
O17 Co1 2.057 1_455 S
O17 C5 1.232 . S
H18 C37 0.929 . S
H19 C38 0.929 . S
H20 C50 0.931 . S
H21 C42 0.929 . S
H22 C51 0.930 . S
H23 C43 0.931 . S
O24 Co0 2.097 1_655 S
O24 C52 1.214 . S
H25 C53 0.929 . S
H26 C54 0.929 . S
H27 C55 0.930 . S
H28 C56 0.929 . S
H29 C58 0.930 . S
H30 C35 0.930 . S
H31 C39 0.930 . S
O32 Co1 2.037 . S
O32 C52 1.234 . S
C33 O7 1.269 . S
C33 O8 1.257 . S
C34 H9 0.930 . S
C34 C37 1.388 . S
C34 C39 1.418 . S
C35 H30 0.930 . S
C35 C38 1.404 . S
C35 C39 1.353 . S
N36 Co1 2.145 . S
N36 C37 1.397 . S
N36 C38 1.334 . S
C37 H18 0.929 . S
C37 C34 1.388 . S
C37 N36 1.397 . S
C38 H19 0.929 . S
C38 C35 1.404 . S
C38 N36 1.334 . S
C39 H31 0.930 . S
C39 C34 1.418 . S
C39 C35 1.353 . S
C40 H10 0.930 . S
C40 N41 1.330 . S
C40 C42 1.446 . S
N41 Co0 2.151 . S
N41 C40 1.330 . S
N41 C45 1.418 . S
C42 H21 0.929 . S
C42 C40 1.446 . S
C42 C43 1.332 . S
C43 H23 0.931 . S
C43 C42 1.332 . S
C43 C44 1.267 . S
C44 H12 0.929 . S
C44 C43 1.267 . S
C44 C45 1.251 . S
C45 H15 0.929 . S
C45 N41 1.418 . S
C45 C44 1.251 . S
C46 H13 0.930 . S
C46 C48 1.406 . S
C46 C51 1.261 . S
C47 H14 0.930 . S
C47 N49 1.325 . S
C47 C50 1.357 . S
C48 H16 0.928 . S
C48 C46 1.406 . S
C48 N49 1.261 . S
N49 Co0 2.214 . S
N49 C47 1.325 . S
N49 C48 1.261 . S
C50 H20 0.931 . S
C50 C47 1.357 . S
C50 C51 1.312 . S
C51 H22 0.930 . S
C51 C46 1.261 . S
C51 C50 1.312 . S
C52 O24 1.214 . S
C52 O32 1.234 . S
C53 H25 0.929 . S
C53 C56 1.391 . S
C53 C58 1.391 . S
C54 H26 0.929 . S
C54 C55 1.390 . S
C54 N57 1.391 . S
C55 H27 0.930 . S
C55 C54 1.390 . S
C55 C56 1.392 . S
C56 H28 0.929 . S
C56 C53 1.391 . S
C56 C55 1.392 . S
N57 Co1 2.257 . S
N57 C54 1.391 . S
N57 C58 1.388 . S
C58 H29 0.930 . S
C58 C53 1.391 . S
C58 N57 1.388 . S
Co59 O61 2.143 . S
Co59 O67 2.074 . S
Co59 O70 2.093 . S
Co59 O83 2.097 . S
Co59 N100 2.151 . S
Co59 N108 2.214 . S
Co60 O61 2.160 1_565 S
Co60 O66 2.058 . S
Co60 O76 2.057 . S
Co60 O91 2.037 . S
Co60 N95 2.145 . S
Co60 N116 2.257 . S
O61 Co59 2.143 . S
O61 Co60 2.160 1_545 S
C62 O63 1.278 . S
C62 O70 1.224 . S
O63 C62 1.278 . S
C64 O65 1.245 . S
C64 O76 1.232 . S
O65 C64 1.245 . S
O66 Co60 2.058 . S
O66 C92 1.269 . S
O67 Co59 2.074 . S
O67 C92 1.257 1_545 S
H68 C93 0.930 . S
H69 C99 0.930 . S
O70 Co59 2.093 . S
O70 C62 1.224 . S
H71 C103 0.929 . S
H72 C105 0.930 . S
H73 C106 0.930 . S
H74 C104 0.929 . S
H75 C107 0.928 . S
O76 Co60 2.057 . S
O76 C64 1.232 . S
H77 C96 0.929 . S
H78 C97 0.929 . S
H79 C109 0.931 . S
H80 C101 0.929 . S
H81 C110 0.930 . S
H82 C102 0.931 . S
O83 Co59 2.097 . S
O83 C111 1.214 . S
H84 C112 0.929 . S
H85 C113 0.929 . S
H86 C114 0.930 . S
H87 C115 0.929 . S
H88 C117 0.930 . S
H89 C94 0.930 . S
H90 C98 0.930 . S
O91 Co60 2.037 . S
O91 C111 1.234 1_565 S
C92 O66 1.269 . S
C92 O67 1.257 1_565 S
C93 H68 0.930 . S
C93 C96 1.388 . S
C93 C98 1.418 . S
C94 H89 0.930 . S
C94 C97 1.404 . S
C94 C98 1.353 . S
N95 Co60 2.145 . S
N95 C96 1.397 . S
N95 C97 1.334 . S
C96 H77 0.929 . S
C96 C93 1.388 . S
C96 N95 1.397 . S
C97 H78 0.929 . S
C97 C94 1.404 . S
C97 N95 1.334 . S
C98 H90 0.930 . S
C98 C93 1.418 . S
C98 C94 1.353 . S
C99 H69 0.930 . S
C99 N100 1.330 . S
C99 C101 1.446 . S
N100 Co59 2.151 . S
N100 C99 1.330 . S
N100 C104 1.418 . S
C101 H80 0.929 . S
C101 C99 1.446 . S
C101 C102 1.332 . S
C102 H82 0.931 . S
C102 C101 1.332 . S
C102 C103 1.267 . S
C103 H71 0.929 . S
C103 C102 1.267 . S
C103 C104 1.251 . S
C104 H74 0.929 . S
C104 N100 1.418 . S
C104 C103 1.251 . S
C105 H72 0.930 . S
C105 C107 1.406 . S
C105 C110 1.261 . S
C106 H73 0.930 . S
C106 N108 1.325 . S
C106 C109 1.357 . S
C107 H75 0.928 . S
C107 C105 1.406 . S
C107 N108 1.261 . S
N108 Co59 2.214 . S
N108 C106 1.325 . S
N108 C107 1.261 . S
C109 H79 0.931 . S
C109 C106 1.357 . S
C109 C110 1.312 . S
C110 H81 0.930 . S
C110 C105 1.261 . S
C110 C109 1.312 . S
C111 O83 1.214 . S
C111 O91 1.234 1_545 S
C112 H84 0.929 . S
C112 C115 1.391 . S
C112 C117 1.391 . S
C113 H85 0.929 . S
C113 C114 1.390 . S
C113 N116 1.391 . S
C114 H86 0.930 . S
C114 C113 1.390 . S
C114 C115 1.392 . S
C115 H87 0.929 . S
C115 C112 1.391 . S
C115 C114 1.392 . S
N116 Co60 2.257 . S
N116 C113 1.391 . S
N116 C117 1.388 . S
C117 H88 0.930 . S
C117 C112 1.391 . S
C117 N116 1.388 . S
Co118 O120 2.143 . S
Co118 O126 2.074 . S
Co118 O129 2.093 1_455 S
Co118 O142 2.097 1_455 S
Co118 N159 2.151 . S
Co118 N167 2.214 . S
Co119 O120 2.160 1_655 S
Co119 O125 2.058 1_655 S
Co119 O135 2.057 1_655 S
Co119 O150 2.037 . S
Co119 N154 2.145 . S
Co119 N175 2.257 . S
O120 Co118 2.143 . S
O120 Co119 2.160 1_455 S
C121 O122 1.278 . S
C121 O129 1.224 . S
O122 C121 1.278 . S
C123 O124 1.245 . S
C123 O135 1.232 . S
O124 C123 1.245 . S
O125 Co119 2.058 1_455 S
O125 C151 1.269 . S
O126 Co118 2.074 . S
O126 C151 1.257 . S
H127 C152 0.930 . S
H128 C158 0.930 . S
O129 Co118 2.093 1_655 S
O129 C121 1.224 . S
H130 C162 0.929 . S
H131 C164 0.930 . S
H132 C165 0.930 . S
H133 C163 0.929 . S
H134 C166 0.928 . S
O135 Co119 2.057 1_455 S
O135 C123 1.232 . S
H136 C155 0.929 . S
H137 C156 0.929 . S
H138 C168 0.931 . S
H139 C160 0.929 . S
H140 C169 0.930 . S
H141 C161 0.931 . S
O142 Co118 2.097 1_655 S
O142 C170 1.214 . S
H143 C171 0.929 . S
H144 C172 0.929 . S
H145 C173 0.930 . S
H146 C174 0.929 . S
H147 C176 0.930 . S
H148 C153 0.930 . S
H149 C157 0.930 . S
O150 Co119 2.037 . S
O150 C170 1.234 . S
C151 O125 1.269 . S
C151 O126 1.257 . S
C152 H127 0.930 . S
C152 C155 1.388 . S
C152 C157 1.418 . S
C153 H148 0.930 . S
C153 C156 1.404 . S
C153 C157 1.353 . S
N154 Co119 2.145 . S
N154 C155 1.397 . S
N154 C156 1.334 . S
C155 H136 0.929 . S
C155 C152 1.388 . S
C155 N154 1.397 . S
C156 H137 0.929 . S
C156 C153 1.404 . S
C156 N154 1.334 . S
C157 H149 0.930 . S
C157 C152 1.418 . S
C157 C153 1.353 . S
C158 H128 0.930 . S
C158 N159 1.330 . S
C158 C160 1.446 . S
N159 Co118 2.151 . S
N159 C158 1.330 . S
N159 C163 1.418 . S
C160 H139 0.929 . S
C160 C158 1.446 . S
C160 C161 1.332 . S
C161 H141 0.931 . S
C161 C160 1.332 . S
C161 C162 1.267 . S
C162 H130 0.929 . S
C162 C161 1.267 . S
C162 C163 1.251 . S
C163 H133 0.929 . S
C163 N159 1.418 . S
C163 C162 1.251 . S
C164 H131 0.930 . S
C164 C166 1.406 . S
C164 C169 1.261 . S
C165 H132 0.930 . S
C165 N167 1.325 . S
C165 C168 1.357 . S
C166 H134 0.928 . S
C166 C164 1.406 . S
C166 N167 1.261 . S
N167 Co118 2.214 . S
N167 C165 1.325 . S
N167 C166 1.261 . S
C168 H138 0.931 . S
C168 C165 1.357 . S
C168 C169 1.312 . S
C169 H140 0.930 . S
C169 C164 1.261 . S
C169 C168 1.312 . S
C170 O142 1.214 . S
C170 O150 1.234 . S
C171 H143 0.929 . S
C171 C174 1.391 . S
C171 C176 1.391 . S
C172 H144 0.929 . S
C172 C173 1.390 . S
C172 N175 1.391 . S
C173 H145 0.930 . S
C173 C172 1.390 . S
C173 C174 1.392 . S
C174 H146 0.929 . S
C174 C171 1.391 . S
C174 C173 1.392 . S
N175 Co119 2.257 . S
N175 C172 1.391 . S
N175 C176 1.388 . S
C176 H147 0.930 . S
C176 C171 1.391 . S
C176 N175 1.388 . S
Co177 O179 2.143 . S
Co177 O185 2.074 . S
Co177 O188 2.093 . S
Co177 O201 2.097 . S
Co177 N218 2.151 . S
Co177 N226 2.214 . S
Co178 O179 2.160 1_545 S
Co178 O184 2.058 . S
Co178 O194 2.057 . S
Co178 O209 2.037 . S
Co178 N213 2.145 . S
Co178 N234 2.257 . S
O179 Co177 2.143 . S
O179 Co178 2.160 1_565 S
C180 O181 1.278 . S
C180 O188 1.224 . S
O181 C180 1.278 . S
C182 O183 1.245 . S
C182 O194 1.232 . S
O183 C182 1.245 . S
O184 Co178 2.058 . S
O184 C210 1.269 . S
O185 Co177 2.074 . S
O185 C210 1.257 1_565 S
H186 C211 0.930 . S
H187 C217 0.930 . S
O188 Co177 2.093 . S
O188 C180 1.224 . S
H189 C221 0.929 . S
H190 C223 0.930 . S
H191 C224 0.930 . S
H192 C222 0.929 . S
H193 C225 0.928 . S
O194 Co178 2.057 . S
O194 C182 1.232 . S
H195 C214 0.929 . S
H196 C215 0.929 . S
H197 C227 0.931 . S
H198 C219 0.929 . S
H199 C228 0.930 . S
H200 C220 0.931 . S
O201 Co177 2.097 . S
O201 C229 1.214 . S
H202 C230 0.929 . S
H203 C231 0.929 . S
H204 C232 0.930 . S
H205 C233 0.929 . S
H206 C235 0.930 . S
H207 C212 0.930 . S
H208 C216 0.930 . S
O209 Co178 2.037 . S
O209 C229 1.234 1_545 S
C210 O184 1.269 . S
C210 O185 1.257 1_545 S
C211 H186 0.930 . S
C211 C214 1.388 . S
C211 C216 1.418 . S
C212 H207 0.930 . S
C212 C215 1.404 . S
C212 C216 1.353 . S
N213 Co178 2.145 . S
N213 C214 1.397 . S
N213 C215 1.334 . S
C214 H195 0.929 . S
C214 C211 1.388 . S
C214 N213 1.397 . S
C215 H196 0.929 . S
C215 C212 1.404 . S
C215 N213 1.334 . S
C216 H208 0.930 . S
C216 C211 1.418 . S
C216 C212 1.353 . S
C217 H187 0.930 . S
C217 N218 1.330 . S
C217 C219 1.446 . S
N218 Co177 2.151 . S
N218 C217 1.330 . S
N218 C222 1.418 . S
C219 H198 0.929 . S
C219 C217 1.446 . S
C219 C220 1.332 . S
C220 H200 0.931 . S
C220 C219 1.332 . S
C220 C221 1.267 . S
C221 H189 0.929 . S
C221 C220 1.267 . S
C221 C222 1.251 . S
C222 H192 0.929 . S
C222 N218 1.418 . S
C222 C221 1.251 . S
C223 H190 0.930 . S
C223 C225 1.406 . S
C223 C228 1.261 . S
C224 H191 0.930 . S
C224 N226 1.325 . S
C224 C227 1.357 . S
C225 H193 0.928 . S
C225 C223 1.406 . S
C225 N226 1.261 . S
N226 Co177 2.214 . S
N226 C224 1.325 . S
N226 C225 1.261 . S
C227 H197 0.931 . S
C227 C224 1.357 . S
C227 C228 1.312 . S
C228 H199 0.930 . S
C228 C223 1.261 . S
C228 C227 1.312 . S
C229 O201 1.214 . S
C229 O209 1.234 1_565 S
C230 H202 0.929 . S
C230 C233 1.391 . S
C230 C235 1.391 . S
C231 H203 0.929 . S
C231 C232 1.390 . S
C231 N234 1.391 . S
C232 H204 0.930 . S
C232 C231 1.390 . S
C232 C233 1.392 . S
C233 H205 0.929 . S
C233 C230 1.391 . S
C233 C232 1.392 . S
N234 Co178 2.257 . S
N234 C231 1.391 . S
N234 C235 1.388 . S
C235 H206 0.930 . S
C235 C230 1.391 . S
C235 N234 1.388 . S
Co236 O238 2.143 . S
Co236 O244 2.074 . S
Co236 O247 2.093 . S
Co236 O260 2.097 . S
Co236 N277 2.151 . S
Co236 N285 2.214 . S
Co237 O238 2.160 1_545 S
Co237 O243 2.058 . S
Co237 O253 2.057 . S
Co237 O268 2.037 . S
Co237 N272 2.145 . S
Co237 N293 2.257 . S
O238 Co236 2.143 . S
O238 Co237 2.160 1_565 S
C239 O240 1.278 . S
C239 O247 1.224 . S
O240 C239 1.278 . S
C241 O242 1.245 . S
C241 O253 1.232 . S
O242 C241 1.245 . S
O243 Co237 2.058 . S
O243 C269 1.269 . S
O244 Co236 2.074 . S
O244 C269 1.257 1_565 S
H245 C270 0.930 . S
H246 C276 0.930 . S
O247 Co236 2.093 . S
O247 C239 1.224 . S
H248 C280 0.929 . S
H249 C282 0.930 . S
H250 C283 0.930 . S
H251 C281 0.929 . S
H252 C284 0.928 . S
O253 Co237 2.057 . S
O253 C241 1.232 . S
H254 C273 0.929 . S
H255 C274 0.929 . S
H256 C286 0.931 . S
H257 C278 0.929 . S
H258 C287 0.930 . S
H259 C279 0.931 . S
O260 Co236 2.097 . S
O260 C288 1.214 . S
H261 C289 0.929 . S
H262 C290 0.929 . S
H263 C291 0.930 . S
H264 C292 0.929 . S
H265 C294 0.930 . S
H266 C271 0.930 . S
H267 C275 0.930 . S
O268 Co237 2.037 . S
O268 C288 1.234 1_545 S
C269 O243 1.269 . S
C269 O244 1.257 1_545 S
C270 H245 0.930 . S
C270 C273 1.388 . S
C270 C275 1.418 . S
C271 H266 0.930 . S
C271 C274 1.404 . S
C271 C275 1.353 . S
N272 Co237 2.145 . S
N272 C273 1.397 . S
N272 C274 1.334 . S
C273 H254 0.929 . S
C273 C270 1.388 . S
C273 N272 1.397 . S
C274 H255 0.929 . S
C274 C271 1.404 . S
C274 N272 1.334 . S
C275 H267 0.930 . S
C275 C270 1.418 . S
C275 C271 1.353 . S
C276 H246 0.930 . S
C276 N277 1.330 . S
C276 C278 1.446 . S
N277 Co236 2.151 . S
N277 C276 1.330 . S
N277 C281 1.418 . S
C278 H257 0.929 . S
C278 C276 1.446 . S
C278 C279 1.332 . S
C279 H259 0.931 . S
C279 C278 1.332 . S
C279 C280 1.267 . S
C280 H248 0.929 . S
C280 C279 1.267 . S
C280 C281 1.251 . S
C281 H251 0.929 . S
C281 N277 1.418 . S
C281 C280 1.251 . S
C282 H249 0.930 . S
C282 C284 1.406 . S
C282 C287 1.261 . S
C283 H250 0.930 . S
C283 N285 1.325 . S
C283 C286 1.357 . S
C284 H252 0.928 . S
C284 C282 1.406 . S
C284 N285 1.261 . S
N285 Co236 2.214 . S
N285 C283 1.325 . S
N285 C284 1.261 . S
C286 H256 0.931 . S
C286 C283 1.357 . S
C286 C287 1.312 . S
C287 H258 0.930 . S
C287 C282 1.261 . S
C287 C286 1.312 . S
C288 O260 1.214 . S
C288 O268 1.234 1_565 S
C289 H261 0.929 . S
C289 C292 1.391 . S
C289 C294 1.391 . S
C290 H262 0.929 . S
C290 C291 1.390 . S
C290 N293 1.391 . S
C291 H263 0.930 . S
C291 C290 1.390 . S
C291 C292 1.392 . S
C292 H264 0.929 . S
C292 C289 1.391 . S
C292 C291 1.392 . S
N293 Co237 2.257 . S
N293 C290 1.391 . S
N293 C294 1.388 . S
C294 H265 0.930 . S
C294 C289 1.391 . S
C294 N293 1.388 . S
Co295 O297 2.143 . S
Co295 O303 2.074 . S
Co295 O306 2.093 1_655 S
Co295 O319 2.097 1_655 S
Co295 N336 2.151 . S
Co295 N344 2.214 . S
Co296 O297 2.160 1_455 S
Co296 O302 2.058 1_455 S
Co296 O312 2.057 1_455 S
Co296 O327 2.037 . S
Co296 N331 2.145 . S
Co296 N352 2.257 . S
O297 Co295 2.143 . S
O297 Co296 2.160 1_655 S
C298 O299 1.278 . S
C298 O306 1.224 . S
O299 C298 1.278 . S
C300 O301 1.245 . S
C300 O312 1.232 . S
O301 C300 1.245 . S
O302 Co296 2.058 1_655 S
O302 C328 1.269 . S
O303 Co295 2.074 . S
O303 C328 1.257 . S
H304 C329 0.930 . S
H305 C335 0.930 . S
O306 Co295 2.093 1_455 S
O306 C298 1.224 . S
H307 C339 0.929 . S
H308 C341 0.930 . S
H309 C342 0.930 . S
H310 C340 0.929 . S
H311 C343 0.928 . S
O312 Co296 2.057 1_655 S
O312 C300 1.232 . S
H313 C332 0.929 . S
H314 C333 0.929 . S
H315 C345 0.931 . S
H316 C337 0.929 . S
H317 C346 0.930 . S
H318 C338 0.931 . S
O319 Co295 2.097 1_455 S
O319 C347 1.214 . S
H320 C348 0.929 . S
H321 C349 0.929 . S
H322 C350 0.930 . S
H323 C351 0.929 . S
H324 C353 0.930 . S
H325 C330 0.930 . S
H326 C334 0.930 . S
O327 Co296 2.037 . S
O327 C347 1.234 . S
C328 O302 1.269 . S
C328 O303 1.257 . S
C329 H304 0.930 . S
C329 C332 1.388 . S
C329 C334 1.418 . S
C330 H325 0.930 . S
C330 C333 1.404 . S
C330 C334 1.353 . S
N331 Co296 2.145 . S
N331 C332 1.397 . S
N331 C333 1.334 . S
C332 H313 0.929 . S
C332 C329 1.388 . S
C332 N331 1.397 . S
C333 H314 0.929 . S
C333 C330 1.404 . S
C333 N331 1.334 . S
C334 H326 0.930 . S
C334 C329 1.418 . S
C334 C330 1.353 . S
C335 H305 0.930 . S
C335 N336 1.330 . S
C335 C337 1.446 . S
N336 Co295 2.151 . S
N336 C335 1.330 . S
N336 C340 1.418 . S
C337 H316 0.929 . S
C337 C335 1.446 . S
C337 C338 1.332 . S
C338 H318 0.931 . S
C338 C337 1.332 . S
C338 C339 1.267 . S
C339 H307 0.929 . S
C339 C338 1.267 . S
C339 C340 1.251 . S
C340 H310 0.929 . S
C340 N336 1.418 . S
C340 C339 1.251 . S
C341 H308 0.930 . S
C341 C343 1.406 . S
C341 C346 1.261 . S
C342 H309 0.930 . S
C342 N344 1.325 . S
C342 C345 1.357 . S
C343 H311 0.928 . S
C343 C341 1.406 . S
C343 N344 1.261 . S
N344 Co295 2.214 . S
N344 C342 1.325 . S
N344 C343 1.261 . S
C345 H315 0.931 . S
C345 C342 1.357 . S
C345 C346 1.312 . S
C346 H317 0.930 . S
C346 C341 1.261 . S
C346 C345 1.312 . S
C347 O319 1.214 . S
C347 O327 1.234 . S
C348 H320 0.929 . S
C348 C351 1.391 . S
C348 C353 1.391 . S
C349 H321 0.929 . S
C349 C350 1.390 . S
C349 N352 1.391 . S
C350 H322 0.930 . S
C350 C349 1.390 . S
C350 C351 1.392 . S
C351 H323 0.929 . S
C351 C348 1.391 . S
C351 C350 1.392 . S
N352 Co296 2.257 . S
N352 C349 1.391 . S
N352 C353 1.388 . S
C353 H324 0.930 . S
C353 C348 1.391 . S
C353 N352 1.388 . S
Co354 O356 2.143 . S
Co354 O362 2.074 . S
Co354 O365 2.093 . S
Co354 O378 2.097 . S
Co354 N395 2.151 . S
Co354 N403 2.214 . S
Co355 O356 2.160 1_565 S
Co355 O361 2.058 . S
Co355 O371 2.057 . S
Co355 O386 2.037 . S
Co355 N390 2.145 . S
Co355 N411 2.257 . S
O356 Co354 2.143 . S
O356 Co355 2.160 1_545 S
C357 O358 1.278 . S
C357 O365 1.224 . S
O358 C357 1.278 . S
C359 O360 1.245 . S
C359 O371 1.232 . S
O360 C359 1.245 . S
O361 Co355 2.058 . S
O361 C387 1.269 . S
O362 Co354 2.074 . S
O362 C387 1.257 1_545 S
H363 C388 0.930 . S
H364 C394 0.930 . S
O365 Co354 2.093 . S
O365 C357 1.224 . S
H366 C398 0.929 . S
H367 C400 0.930 . S
H368 C401 0.930 . S
H369 C399 0.929 . S
H370 C402 0.928 . S
O371 Co355 2.057 . S
O371 C359 1.232 . S
H372 C391 0.929 . S
H373 C392 0.929 . S
H374 C404 0.931 . S
H375 C396 0.929 . S
H376 C405 0.930 . S
H377 C397 0.931 . S
O378 Co354 2.097 . S
O378 C406 1.214 . S
H379 C407 0.929 . S
H380 C408 0.929 . S
H381 C409 0.930 . S
H382 C410 0.929 . S
H383 C412 0.930 . S
H384 C389 0.930 . S
H385 C393 0.930 . S
O386 Co355 2.037 . S
O386 C406 1.234 1_565 S
C387 O361 1.269 . S
C387 O362 1.257 1_565 S
C388 H363 0.930 . S
C388 C391 1.388 . S
C388 C393 1.418 . S
C389 H384 0.930 . S
C389 C392 1.404 . S
C389 C393 1.353 . S
N390 Co355 2.145 . S
N390 C391 1.397 . S
N390 C392 1.334 . S
C391 H372 0.929 . S
C391 C388 1.388 . S
C391 N390 1.397 . S
C392 H373 0.929 . S
C392 C389 1.404 . S
C392 N390 1.334 . S
C393 H385 0.930 . S
C393 C388 1.418 . S
C393 C389 1.353 . S
C394 H364 0.930 . S
C394 N395 1.330 . S
C394 C396 1.446 . S
N395 Co354 2.151 . S
N395 C394 1.330 . S
N395 C399 1.418 . S
C396 H375 0.929 . S
C396 C394 1.446 . S
C396 C397 1.332 . S
C397 H377 0.931 . S
C397 C396 1.332 . S
C397 C398 1.267 . S
C398 H366 0.929 . S
C398 C397 1.267 . S
C398 C399 1.251 . S
C399 H369 0.929 . S
C399 N395 1.418 . S
C399 C398 1.251 . S
C400 H367 0.930 . S
C400 C402 1.406 . S
C400 C405 1.261 . S
C401 H368 0.930 . S
C401 N403 1.325 . S
C401 C404 1.357 . S
C402 H370 0.928 . S
C402 C400 1.406 . S
C402 N403 1.261 . S
N403 Co354 2.214 . S
N403 C401 1.325 . S
N403 C402 1.261 . S
C404 H374 0.931 . S
C404 C401 1.357 . S
C404 C405 1.312 . S
C405 H376 0.930 . S
C405 C400 1.261 . S
C405 C404 1.312 . S
C406 O378 1.214 . S
C406 O386 1.234 1_545 S
C407 H379 0.929 . S
C407 C410 1.391 . S
C407 C412 1.391 . S
C408 H380 0.929 . S
C408 C409 1.390 . S
C408 N411 1.391 . S
C409 H381 0.930 . S
C409 C408 1.390 . S
C409 C410 1.392 . S
C410 H382 0.929 . S
C410 C407 1.391 . S
C410 C409 1.392 . S
N411 Co355 2.257 . S
N411 C408 1.391 . S
N411 C412 1.388 . S
C412 H383 0.930 . S
C412 C407 1.391 . S
C412 N411 1.388 . S
Co413 O415 2.143 . S
Co413 O421 2.074 . S
Co413 O424 2.093 1_655 S
Co413 O437 2.097 1_655 S
Co413 N454 2.151 . S
Co413 N462 2.214 . S
Co414 O415 2.160 1_455 S
Co414 O420 2.058 1_455 S
Co414 O430 2.049 1_455 S
Co414 O445 2.037 . S
Co414 N449 2.145 . S
Co414 N470 2.257 . S
O415 Co413 2.143 . S
O415 Co414 2.160 1_655 S
C416 O417 1.278 . S
C416 O424 1.224 . S
O417 C416 1.278 . S
C418 O419 1.245 . S
C418 O430 1.249 . S
O419 C418 1.245 . S
O420 Co414 2.058 1_655 S
O420 C446 1.269 . S
O421 Co413 2.074 . S
O421 C446 1.257 . S
H422 C447 0.930 . S
H423 C453 0.930 . S
O424 Co413 2.093 1_455 S
O424 C416 1.224 . S
H425 C457 0.929 . S
H426 C459 0.930 . S
H427 C460 0.930 . S
H428 C458 0.929 . S
H429 C461 0.928 . S
O430 Co414 2.049 1_655 S
O430 C418 1.249 . S
H431 C450 0.929 . S
H432 C451 0.929 . S
H433 C463 0.931 . S
H434 C455 0.929 . S
H435 C464 0.930 . S
H436 C456 0.931 . S
O437 Co413 2.097 1_455 S
O437 C465 1.214 . S
H438 C466 0.929 . S
H439 C467 0.929 . S
H440 C468 0.930 . S
H441 C469 0.929 . S
H442 C471 0.930 . S
H443 C448 0.930 . S
H444 C452 0.930 . S
O445 Co414 2.037 . S
O445 C465 1.234 . S
C446 O420 1.269 . S
C446 O421 1.257 . S
C447 H422 0.930 . S
C447 C450 1.388 . S
C447 C452 1.418 . S
C448 H443 0.930 . S
C448 C451 1.404 . S
C448 C452 1.353 . S
N449 Co414 2.145 . S
N449 C450 1.397 . S
N449 C451 1.334 . S
C450 H431 0.929 . S
C450 C447 1.388 . S
C450 N449 1.397 . S
C451 H432 0.929 . S
C451 C448 1.404 . S
C451 N449 1.334 . S
C452 H444 0.930 . S
C452 C447 1.418 . S
C452 C448 1.353 . S
C453 H423 0.930 . S
C453 N454 1.330 . S
C453 C455 1.446 . S
N454 Co413 2.151 . S
N454 C453 1.330 . S
N454 C458 1.418 . S
C455 H434 0.929 . S
C455 C453 1.446 . S
C455 C456 1.332 . S
C456 H436 0.931 . S
C456 C455 1.332 . S
C456 C457 1.267 . S
C457 H425 0.929 . S
C457 C456 1.267 . S
C457 C458 1.251 . S
C458 H428 0.929 . S
C458 N454 1.418 . S
C458 C457 1.251 . S
C459 H426 0.930 . S
C459 C461 1.406 . S
C459 C464 1.261 . S
C460 H427 0.930 . S
C460 N462 1.325 . S
C460 C463 1.357 . S
C461 H429 0.928 . S
C461 C459 1.406 . S
C461 N462 1.261 . S
N462 Co413 2.214 . S
N462 C460 1.325 . S
N462 C461 1.261 . S
C463 H433 0.931 . S
C463 C460 1.357 . S
C463 C464 1.312 . S
C464 H435 0.930 . S
C464 C459 1.261 . S
C464 C463 1.312 . S
C465 O437 1.214 . S
C465 O445 1.234 . S
C466 H438 0.929 . S
C466 C469 1.391 . S
C466 C471 1.391 . S
C467 H439 0.929 . S
C467 C468 1.390 . S
C467 N470 1.391 . S
C468 H440 0.930 . S
C468 C467 1.390 . S
C468 C469 1.392 . S
C469 H441 0.929 . S
C469 C466 1.391 . S
C469 C468 1.392 . S
N470 Co414 2.257 . S
N470 C467 1.391 . S
N470 C471 1.388 . S
C471 H442 0.930 . S
C471 C466 1.391 . S
C471 N470 1.388 . S
Co472 O474 2.143 . S
Co472 O480 2.074 . S
Co472 O483 2.093 1_554 S
Co472 O496 2.097 1_554 S
Co472 N513 2.151 . S
Co472 N521 2.214 . S
Co473 O474 2.160 1_556 S
Co473 O479 2.058 1_556 S
Co473 O489 2.057 1_556 S
Co473 O504 2.037 . S
Co473 N508 2.145 . S
Co473 N529 2.257 . S
O474 Co472 2.143 . S
O474 Co473 2.160 1_554 S
C475 O476 1.278 . S
C475 O483 1.224 . S
O476 C475 1.278 . S
C477 O478 1.245 . S
C477 O489 1.232 . S
O478 C477 1.245 . S
O479 Co473 2.058 1_554 S
O479 C505 1.269 . S
O480 Co472 2.074 . S
O480 C505 1.257 . S
H481 C506 0.930 . S
H482 C512 0.930 . S
O483 Co472 2.093 1_556 S
O483 C475 1.224 . S
H484 C516 0.929 . S
H485 C518 0.930 . S
H486 C519 0.930 . S
H487 C517 0.929 . S
H488 C520 0.928 . S
O489 Co473 2.057 1_554 S
O489 C477 1.232 . S
H490 C509 0.929 . S
H491 C510 0.929 . S
H492 C522 0.931 . S
H493 C514 0.929 . S
H494 C523 0.930 . S
H495 C515 0.931 . S
O496 Co472 2.097 1_556 S
O496 C524 1.214 . S
H497 C525 0.929 . S
H498 C526 0.929 . S
H499 C527 0.930 . S
H500 C528 0.929 . S
H501 C530 0.930 . S
H502 C507 0.930 . S
H503 C511 0.930 . S
O504 Co473 2.037 . S
O504 C524 1.234 . S
C505 O479 1.269 . S
C505 O480 1.257 . S
C506 H481 0.930 . S
C506 C509 1.388 . S
C506 C511 1.418 . S
C507 H502 0.930 . S
C507 C510 1.404 . S
C507 C511 1.353 . S
N508 Co473 2.145 . S
N508 C509 1.397 . S
N508 C510 1.334 . S
C509 H490 0.929 . S
C509 C506 1.388 . S
C509 N508 1.397 . S
C510 H491 0.929 . S
C510 C507 1.404 . S
C510 N508 1.334 . S
C511 H503 0.930 . S
C511 C506 1.418 . S
C511 C507 1.353 . S
C512 H482 0.930 . S
C512 N513 1.330 . S
C512 C514 1.446 . S
N513 Co472 2.151 . S
N513 C512 1.330 . S
N513 C517 1.418 . S
C514 H493 0.929 . S
C514 C512 1.446 . S
C514 C515 1.332 . S
C515 H495 0.931 . S
C515 C514 1.332 . S
C515 C516 1.267 . S
C516 H484 0.929 . S
C516 C515 1.267 . S
C516 C517 1.251 . S
C517 H487 0.929 . S
C517 N513 1.418 . S
C517 C516 1.251 . S
C518 H485 0.930 . S
C518 C520 1.406 . S
C518 C523 1.261 . S
C519 H486 0.930 . S
C519 N521 1.325 . S
C519 C522 1.357 . S
C520 H488 0.928 . S
C520 C518 1.406 . S
C520 N521 1.261 . S
N521 Co472 2.214 . S
N521 C519 1.325 . S
N521 C520 1.261 . S
C522 H492 0.931 . S
C522 C519 1.357 . S
C522 C523 1.312 . S
C523 H494 0.930 . S
C523 C518 1.261 . S
C523 C522 1.312 . S
C524 O496 1.214 . S
C524 O504 1.234 . S
C525 H497 0.929 . S
C525 C528 1.391 . S
C525 C530 1.391 . S
C526 H498 0.929 . S
C526 C527 1.390 . S
C526 N529 1.391 . S
C527 H499 0.930 . S
C527 C526 1.390 . S
C527 C528 1.392 . S
C528 H500 0.929 . S
C528 C525 1.391 . S
C528 C527 1.392 . S
N529 Co473 2.257 . S
N529 C526 1.391 . S
N529 C530 1.388 . S
C530 H501 0.930 . S
C530 C525 1.391 . S
C530 N529 1.388 . S
Co531 O533 2.143 . S
Co531 O539 2.074 . S
Co531 O542 2.093 . S
Co531 O555 2.097 . S
Co531 N572 2.151 . S
Co531 N580 2.214 . S
Co532 O533 2.160 1_554 S
Co532 O538 2.058 . S
Co532 O548 2.057 . S
Co532 O563 2.037 . S
Co532 N567 2.145 . S
Co532 N588 2.257 . S
O533 Co531 2.143 . S
O533 Co532 2.160 1_556 S
C534 O535 1.278 . S
C534 O542 1.224 . S
O535 C534 1.278 . S
C536 O537 1.245 . S
C536 O548 1.232 . S
O537 C536 1.245 . S
O538 Co532 2.058 . S
O538 C564 1.269 . S
O539 Co531 2.074 . S
O539 C564 1.257 1_556 S
H540 C565 0.930 . S
H541 C571 0.930 . S
O542 Co531 2.093 . S
O542 C534 1.224 . S
H543 C575 0.929 . S
H544 C577 0.930 . S
H545 C578 0.930 . S
H546 C576 0.929 . S
H547 C579 0.928 . S
O548 Co532 2.057 . S
O548 C536 1.232 . S
H549 C568 0.929 . S
H550 C569 0.929 . S
H551 C581 0.931 . S
H552 C573 0.929 . S
H553 C582 0.930 . S
H554 C574 0.931 . S
O555 Co531 2.097 . S
O555 C583 1.214 . S
H556 C584 0.929 . S
H557 C585 0.929 . S
H558 C586 0.930 . S
H559 C587 0.929 . S
H560 C589 0.930 . S
H561 C566 0.930 . S
H562 C570 0.930 . S
O563 Co532 2.037 . S
O563 C583 1.234 1_554 S
C564 O538 1.269 . S
C564 O539 1.257 1_554 S
C565 H540 0.930 . S
C565 C568 1.388 . S
C565 C570 1.418 . S
C566 H561 0.930 . S
C566 C569 1.404 . S
C566 C570 1.353 . S
N567 Co532 2.145 . S
N567 C568 1.397 . S
N567 C569 1.334 . S
C568 H549 0.929 . S
C568 C565 1.388 . S
C568 N567 1.397 . S
C569 H550 0.929 . S
C569 C566 1.404 . S
C569 N567 1.334 . S
C570 H562 0.930 . S
C570 C565 1.418 . S
C570 C566 1.353 . S
C571 H541 0.930 . S
C571 N572 1.330 . S
C571 C573 1.446 . S
N572 Co531 2.151 . S
N572 C571 1.330 . S
N572 C576 1.418 . S
C573 H552 0.929 . S
C573 C571 1.446 . S
C573 C574 1.332 . S
C574 H554 0.931 . S
C574 C573 1.332 . S
C574 C575 1.267 . S
C575 H543 0.929 . S
C575 C574 1.267 . S
C575 C576 1.251 . S
C576 H546 0.929 . S
C576 N572 1.418 . S
C576 C575 1.251 . S
C577 H544 0.930 . S
C577 C579 1.406 . S
C577 C582 1.261 . S
C578 H545 0.930 . S
C578 N580 1.325 . S
C578 C581 1.357 . S
C579 H547 0.928 . S
C579 C577 1.406 . S
C579 N580 1.261 . S
N580 Co531 2.214 . S
N580 C578 1.325 . S
N580 C579 1.261 . S
C581 H551 0.931 . S
C581 C578 1.357 . S
C581 C582 1.312 . S
C582 H553 0.930 . S
C582 C577 1.261 . S
C582 C581 1.312 . S
C583 O555 1.214 . S
C583 O563 1.234 1_556 S
C584 H556 0.929 . S
C584 C587 1.391 . S
C584 C589 1.391 . S
C585 H557 0.929 . S
C585 C586 1.390 . S
C585 N588 1.391 . S
C586 H558 0.930 . S
C586 C585 1.390 . S
C586 C587 1.392 . S
C587 H559 0.929 . S
C587 C584 1.391 . S
C587 C586 1.392 . S
N588 Co532 2.257 . S
N588 C585 1.391 . S
N588 C589 1.388 . S
C589 H560 0.930 . S
C589 C584 1.391 . S
C589 N588 1.388 . S
Co590 O592 2.143 . S
Co590 O598 2.074 . S
Co590 O601 2.093 1_554 S
Co590 O614 2.097 1_554 S
Co590 N631 2.151 . S
Co590 N639 2.214 . S
Co591 O592 2.160 1_556 S
Co591 O597 2.058 1_556 S
Co591 O607 2.057 1_556 S
Co591 O622 2.037 . S
Co591 N626 2.145 . S
Co591 N647 2.257 . S
O592 Co590 2.143 . S
O592 Co591 2.160 1_554 S
C593 O594 1.278 . S
C593 O601 1.224 . S
O594 C593 1.278 . S
C595 O596 1.245 . S
C595 O607 1.232 . S
O596 C595 1.245 . S
O597 Co591 2.058 1_554 S
O597 C623 1.269 . S
O598 Co590 2.074 . S
O598 C623 1.257 . S
H599 C624 0.930 . S
H600 C630 0.930 . S
O601 Co590 2.093 1_556 S
O601 C593 1.224 . S
H602 C634 0.929 . S
H603 C636 0.930 . S
H604 C637 0.930 . S
H605 C635 0.929 . S
H606 C638 0.928 . S
O607 Co591 2.057 1_554 S
O607 C595 1.232 . S
H608 C627 0.929 . S
H609 C628 0.929 . S
H610 C640 0.931 . S
H611 C632 0.929 . S
H612 C641 0.930 . S
H613 C633 0.931 . S
O614 Co590 2.097 1_556 S
O614 C642 1.214 . S
H615 C643 0.929 . S
H616 C644 0.929 . S
H617 C645 0.930 . S
H618 C646 0.929 . S
H619 C648 0.930 . S
H620 C625 0.930 . S
H621 C629 0.930 . S
O622 Co591 2.037 . S
O622 C642 1.234 . S
C623 O597 1.269 . S
C623 O598 1.257 . S
C624 H599 0.930 . S
C624 C627 1.388 . S
C624 C629 1.418 . S
C625 H620 0.930 . S
C625 C628 1.404 . S
C625 C629 1.353 . S
N626 Co591 2.145 . S
N626 C627 1.397 . S
N626 C628 1.334 . S
C627 H608 0.929 . S
C627 C624 1.388 . S
C627 N626 1.397 . S
C628 H609 0.929 . S
C628 C625 1.404 . S
C628 N626 1.334 . S
C629 H621 0.930 . S
C629 C624 1.418 . S
C629 C625 1.353 . S
C630 H600 0.930 . S
C630 N631 1.330 . S
C630 C632 1.446 . S
N631 Co590 2.151 . S
N631 C630 1.330 . S
N631 C635 1.418 . S
C632 H611 0.929 . S
C632 C630 1.446 . S
C632 C633 1.332 . S
C633 H613 0.931 . S
C633 C632 1.332 . S
C633 C634 1.267 . S
C634 H602 0.929 . S
C634 C633 1.267 . S
C634 C635 1.251 . S
C635 H605 0.929 . S
C635 N631 1.418 . S
C635 C634 1.251 . S
C636 H603 0.930 . S
C636 C638 1.406 . S
C636 C641 1.261 . S
C637 H604 0.930 . S
C637 N639 1.325 . S
C637 C640 1.357 . S
C638 H606 0.928 . S
C638 C636 1.406 . S
C638 N639 1.261 . S
N639 Co590 2.214 . S
N639 C637 1.325 . S
N639 C638 1.261 . S
C640 H610 0.931 . S
C640 C637 1.357 . S
C640 C641 1.312 . S
C641 H612 0.930 . S
C641 C636 1.261 . S
C641 C640 1.312 . S
C642 O614 1.214 . S
C642 O622 1.234 . S
C643 H615 0.929 . S
C643 C646 1.391 . S
C643 C648 1.391 . S
C644 H616 0.929 . S
C644 C645 1.390 . S
C644 N647 1.391 . S
C645 H617 0.930 . S
C645 C644 1.390 . S
C645 C646 1.392 . S
C646 H618 0.929 . S
C646 C643 1.391 . S
C646 C645 1.392 . S
N647 Co591 2.257 . S
N647 C644 1.391 . S
N647 C648 1.388 . S
C648 H619 0.930 . S
C648 C643 1.391 . S
C648 N647 1.388 . S
Co649 O651 2.143 . S
Co649 O657 2.074 . S
Co649 O660 2.093 . S
Co649 O673 2.097 . S
Co649 N690 2.151 . S
Co649 N698 2.214 . S
Co650 O651 2.160 1_556 S
Co650 O656 2.058 . S
Co650 O666 2.057 . S
Co650 O681 2.037 . S
Co650 N685 2.145 . S
Co650 N706 2.257 . S
O651 Co649 2.143 . S
O651 Co650 2.160 1_554 S
C652 O653 1.278 . S
C652 O660 1.224 . S
O653 C652 1.278 . S
C654 O655 1.245 . S
C654 O666 1.232 . S
O655 C654 1.245 . S
O656 Co650 2.058 . S
O656 C682 1.269 . S
O657 Co649 2.074 . S
O657 C682 1.257 1_554 S
H658 C683 0.930 . S
H659 C689 0.930 . S
O660 Co649 2.093 . S
O660 C652 1.224 . S
H661 C693 0.929 . S
H662 C695 0.930 . S
H663 C696 0.930 . S
H664 C694 0.929 . S
H665 C697 0.928 . S
O666 Co650 2.057 . S
O666 C654 1.232 . S
H667 C686 0.929 . S
H668 C687 0.929 . S
H669 C699 0.931 . S
H670 C691 0.929 . S
H671 C700 0.930 . S
H672 C692 0.931 . S
O673 Co649 2.097 . S
O673 C701 1.214 . S
H674 C702 0.929 . S
H675 C703 0.929 . S
H676 C704 0.930 . S
H677 C705 0.929 . S
H678 C707 0.930 . S
H679 C684 0.930 . S
H680 C688 0.930 . S
O681 Co650 2.037 . S
O681 C701 1.234 1_556 S
C682 O656 1.269 . S
C682 O657 1.257 1_556 S
C683 H658 0.930 . S
C683 C686 1.388 . S
C683 C688 1.418 . S
C684 H679 0.930 . S
C684 C687 1.404 . S
C684 C688 1.353 . S
N685 Co650 2.145 . S
N685 C686 1.397 . S
N685 C687 1.334 . S
C686 H667 0.929 . S
C686 C683 1.388 . S
C686 N685 1.397 . S
C687 H668 0.929 . S
C687 C684 1.404 . S
C687 N685 1.334 . S
C688 H680 0.930 . S
C688 C683 1.418 . S
C688 C684 1.353 . S
C689 H659 0.930 . S
C689 N690 1.330 . S
C689 C691 1.446 . S
N690 Co649 2.151 . S
N690 C689 1.330 . S
N690 C694 1.418 . S
C691 H670 0.929 . S
C691 C689 1.446 . S
C691 C692 1.332 . S
C692 H672 0.931 . S
C692 C691 1.332 . S
C692 C693 1.267 . S
C693 H661 0.929 . S
C693 C692 1.267 . S
C693 C694 1.251 . S
C694 H664 0.929 . S
C694 N690 1.418 . S
C694 C693 1.251 . S
C695 H662 0.930 . S
C695 C697 1.406 . S
C695 C700 1.261 . S
C696 H663 0.930 . S
C696 N698 1.325 . S
C696 C699 1.357 . S
C697 H665 0.928 . S
C697 C695 1.406 . S
C697 N698 1.261 . S
N698 Co649 2.214 . S
N698 C696 1.325 . S
N698 C697 1.261 . S
C699 H669 0.931 . S
C699 C696 1.357 . S
C699 C700 1.312 . S
C700 H671 0.930 . S
C700 C695 1.261 . S
C700 C699 1.312 . S
C701 O673 1.214 . S
C701 O681 1.234 1_554 S
C702 H674 0.929 . S
C702 C705 1.391 . S
C702 C707 1.391 . S
C703 H675 0.929 . S
C703 C704 1.390 . S
C703 N706 1.391 . S
C704 H676 0.930 . S
C704 C703 1.390 . S
C704 C705 1.392 . S
C705 H677 0.929 . S
C705 C702 1.391 . S
C705 C704 1.392 . S
N706 Co650 2.257 . S
N706 C703 1.391 . S
N706 C707 1.388 . S
C707 H678 0.930 . S
C707 C702 1.391 . S
C707 N706 1.388 . S
C708 C709 1.387 . S
C708 H712 0.950 . S
C708 C717 1.390 . S
C709 C708 1.387 . S
C709 C711 1.387 1_455 S
H710 C717 0.950 . S
C711 C709 1.387 1_655 S
C711 C713 1.390 . S
C711 H715 0.950 . S
H712 C708 0.950 . S
C713 C711 1.390 . S
C713 C714 1.387 . S
C713 H716 0.950 . S
C714 C713 1.387 . S
C714 C717 1.387 1_655 S
H715 C711 0.950 . S
H716 C713 0.950 . S
C717 C708 1.390 . S
C717 H710 0.950 . S
C717 C714 1.387 1_455 S
C718 C719 1.387 1_565 S
C718 H722 0.950 . S
C718 C727 1.390 . S
C719 C718 1.387 1_545 S
C719 C721 1.387 . S
H720 C727 0.950 . S
C721 C719 1.387 . S
C721 C723 1.390 . S
C721 H725 0.950 . S
H722 C718 0.950 . S
C723 C721 1.390 . S
C723 C724 1.387 1_545 S
C723 H726 0.950 . S
C724 C723 1.387 1_565 S
C724 C727 1.387 . S
H725 C721 0.950 . S
H726 C723 0.950 . S
C727 C718 1.390 . S
C727 H720 0.950 . S
C727 C724 1.387 . S
C728 C729 1.387 . S
C728 H732 0.950 . S
C728 C737 1.390 1_455 S
C729 C728 1.387 . S
C729 C731 1.387 . S
H730 C737 0.950 . S
C731 C729 1.387 . S
C731 C733 1.390 1_455 S
C731 H735 0.950 . S
H732 C728 0.950 . S
C733 C731 1.390 1_655 S
C733 C734 1.387 . S
C733 H736 0.950 . S
C734 C733 1.387 . S
C734 C737 1.387 . S
H735 C731 0.950 . S
H736 C733 0.950 . S
C737 C728 1.390 1_655 S
C737 H730 0.950 . S
C737 C734 1.387 . S
C738 C739 1.387 . S
C738 H742 0.950 . S
C738 C747 1.390 . S
C739 C738 1.387 . S
C739 C741 1.387 1_565 S
H740 C747 0.950 . S
C741 C739 1.387 1_545 S
C741 C743 1.390 . S
C741 H745 0.950 . S
H742 C738 0.950 . S
C743 C741 1.390 . S
C743 C744 1.387 . S
C743 H746 0.950 . S
C744 C743 1.387 . S
C744 C747 1.387 1_545 S
H745 C741 0.950 . S
H746 C743 0.950 . S
C747 C738 1.390 . S
C747 H740 0.950 . S
C747 C744 1.387 1_565 S
C748 C749 1.387 . S
C748 H752 0.950 . S
C748 C757 1.390 . S
C749 C748 1.387 . S
C749 C751 1.387 1_655 S
H750 C757 0.950 . S
C751 C749 1.387 1_455 S
C751 C753 1.390 . S
C751 H755 0.950 . S
H752 C748 0.950 . S
C753 C751 1.390 . S
C753 C754 1.387 . S
C753 H756 0.950 . S
C754 C753 1.387 . S
C754 C757 1.387 1_455 S
H755 C751 0.950 . S
H756 C753 0.950 . S
C757 C748 1.390 . S
C757 H750 0.950 . S
C757 C754 1.387 1_655 S
C758 C759 1.387 1_545 S
C758 H762 0.950 . S
C758 C767 1.390 . S
C759 C758 1.387 1_565 S
C759 C761 1.387 . S
H760 C767 0.950 . S
C761 C759 1.387 . S
C761 C763 1.390 . S
C761 H765 0.950 . S
H762 C758 0.950 . S
C763 C761 1.390 . S
C763 C764 1.387 1_565 S
C763 H766 0.950 . S
C764 C763 1.387 1_545 S
C764 C767 1.387 . S
H765 C761 0.950 . S
H766 C763 0.950 . S
C767 C758 1.390 . S
C767 H760 0.950 . S
C767 C764 1.387 . S
C768 C769 1.387 . S
C768 H772 0.950 . S
C768 C777 1.390 1_655 S
C769 C768 1.387 . S
C769 C771 1.387 . S
H770 C777 0.950 . S
C771 C769 1.387 . S
C771 C773 1.390 1_655 S
C771 H775 0.950 . S
H772 C768 0.950 . S
C773 C771 1.390 1_455 S
C773 C774 1.387 . S
C773 H776 0.950 . S
C774 C773 1.387 . S
C774 C777 1.387 . S
H775 C771 0.950 . S
H776 C773 0.950 . S
C777 C768 1.390 1_455 S
C777 H770 0.950 . S
C777 C774 1.387 . S
C778 C779 1.387 1_565 S
C778 H782 0.950 . S
C778 C787 1.390 . S
C779 C778 1.387 1_545 S
C779 C781 1.387 . S
H780 C787 0.950 . S
C781 C779 1.387 . S
C781 C783 1.390 . S
C781 H785 0.950 . S
H782 C778 0.950 . S
C783 C781 1.390 . S
C783 C784 1.387 1_545 S
C783 H786 0.950 . S
C784 C783 1.387 1_565 S
C784 C787 1.387 . S
H785 C781 0.950 . S
H786 C783 0.950 . S
C787 C778 1.390 . S
C787 H780 0.950 . S
C787 C784 1.387 . S
C788 C789 1.387 . S
C788 H792 0.950 . S
C788 C797 1.390 . S
C789 C788 1.387 . S
C789 C791 1.387 1_556 S
H790 C797 0.950 . S
C791 C789 1.387 1_554 S
C791 C793 1.390 . S
C791 H795 0.950 . S
H792 C788 0.950 . S
C793 C791 1.390 . S
C793 C794 1.387 . S
C793 H796 0.950 . S
C794 C793 1.387 . S
C794 C797 1.387 1_554 S
H795 C791 0.950 . S
H796 C793 0.950 . S
C797 C788 1.390 . S
C797 H790 0.950 . S
C797 C794 1.387 1_556 S
C798 C799 1.387 1_554 S
C798 H802 0.950 . S
C798 C807 1.390 . S
C799 C798 1.387 1_556 S
C799 C801 1.387 . S
H800 C807 0.950 . S
C801 C799 1.387 . S
C801 C803 1.390 . S
C801 H805 0.950 . S
H802 C798 0.950 . S
C803 C801 1.390 . S
C803 C804 1.387 1_556 S
C803 H806 0.950 . S
C804 C803 1.387 1_554 S
C804 C807 1.387 . S
H805 C801 0.950 . S
H806 C803 0.950 . S
C807 C798 1.390 . S
C807 H800 0.950 . S
C807 C804 1.387 . S
C808 C809 1.387 . S
C808 H812 0.950 . S
C808 C817 1.390 . S
C809 C808 1.387 . S
C809 C811 1.387 1_554 S
H810 C817 0.950 . S
C811 C809 1.387 1_556 S
C811 C813 1.390 . S
C811 H815 0.950 . S
H812 C808 0.950 . S
C813 C811 1.390 . S
C813 C814 1.387 . S
C813 H816 0.950 . S
C814 C813 1.387 . S
C814 C817 1.387 1_556 S
H815 C811 0.950 . S
H816 C813 0.950 . S
C817 C808 1.390 . S
C817 H810 0.950 . S
C817 C814 1.387 1_554 S
C818 C819 1.387 . S
C818 H822 0.950 . S
C818 C827 1.390 . S
C819 C818 1.387 . S
C819 C821 1.387 1_554 S
H820 C827 0.950 . S
C821 C819 1.387 1_556 S
C821 C823 1.390 . S
C821 H825 0.950 . S
H822 C818 0.950 . S
C823 C821 1.390 . S
C823 C824 1.387 . S
C823 H826 0.950 . S
C824 C823 1.387 . S
C824 C827 1.387 1_556 S
H825 C821 0.950 . S
H826 C823 0.950 . S
C827 C818 1.390 . S
C827 H820 0.950 . S
C827 C824 1.387 1_554 S
C828 C829 1.387 . S
C828 H832 0.950 . S
C828 C837 1.390 . S
C829 C828 1.387 . S
C829 C831 1.387 . S
H830 C837 0.950 . S
C831 C829 1.387 . S
C831 C833 1.390 . S
C831 H835 0.950 . S
H832 C828 0.950 . S
C833 C831 1.390 . S
C833 C834 1.387 . S
C833 H836 0.950 . S
C834 C833 1.387 . S
C834 C837 1.387 . S
H835 C831 0.950 . S
H836 C833 0.950 . S
C837 C828 1.390 . S
C837 H830 0.950 . S
C837 C834 1.387 . S
C838 C839 1.387 . S
C838 H842 0.950 . S
C838 C847 1.390 . S
C839 C838 1.387 . S
C839 C841 1.387 . S
H840 C847 0.950 . S
C841 C839 1.387 . S
C841 C843 1.390 . S
C841 H845 0.950 . S
H842 C838 0.950 . S
C843 C841 1.390 . S
C843 C844 1.387 . S
C843 H846 0.950 . S
C844 C843 1.387 . S
C844 C847 1.387 . S
H845 C841 0.950 . S
H846 C843 0.950 . S
C847 C838 1.390 . S
C847 H840 0.950 . S
C847 C844 1.387 . S
C848 C849 1.387 . S
C848 H852 0.950 . S
C848 C857 1.390 . S
C849 C848 1.387 . S
C849 C851 1.387 . S
H850 C857 0.950 . S
C851 C849 1.387 . S
C851 C853 1.390 . S
C851 H855 0.950 . S
H852 C848 0.950 . S
C853 C851 1.390 . S
C853 C854 1.387 . S
C853 H856 0.950 . S
C854 C853 1.387 . S
C854 C857 1.387 . S
H855 C851 0.950 . S
H856 C853 0.950 . S
C857 C848 1.390 . S
C857 H850 0.950 . S
C857 C854 1.387 . S
C858 C859 1.387 . S
C858 H862 0.950 . S
C858 C867 1.390 . S
C859 C858 1.387 . S
C859 C861 1.387 . S
H860 C867 0.950 . S
C861 C859 1.387 . S
C861 C863 1.390 . S
C861 H865 0.950 . S
H862 C858 0.950 . S
C863 C861 1.390 . S
C863 C864 1.387 . S
C863 H866 0.950 . S
C864 C863 1.387 . S
C864 C867 1.387 . S
H865 C861 0.950 . S
H866 C863 0.950 . S
C867 C858 1.390 . S
C867 H860 0.950 . S
C867 C864 1.387 . S
C868 C869 1.387 . S
C868 H872 0.950 . S
C868 C877 1.390 . S
C869 C868 1.387 . S
C869 C871 1.387 . S
H870 C877 0.950 . S
C871 C869 1.387 . S
C871 C873 1.390 . S
C871 H875 0.950 . S
H872 C868 0.950 . S
C873 C871 1.390 . S
C873 C874 1.387 . S
C873 H876 0.950 . S
C874 C873 1.387 . S
C874 C877 1.387 . S
H875 C871 0.950 . S
H876 C873 0.950 . S
C877 C868 1.390 . S
C877 H870 0.950 . S
C877 C874 1.387 . S
C878 C879 1.387 . S
C878 H882 0.950 . S
C878 C887 1.390 . S
C879 C878 1.387 . S
C879 C881 1.387 . S
H880 C887 0.950 . S
C881 C879 1.387 . S
C881 C883 1.390 . S
C881 H885 0.950 . S
H882 C878 0.950 . S
C883 C881 1.390 . S
C883 C884 1.387 . S
C883 H886 0.950 . S
C884 C883 1.387 . S
C884 C887 1.387 . S
H885 C881 0.950 . S
H886 C883 0.950 . S
C887 C878 1.390 . S
C887 H880 0.950 . S
C887 C884 1.387 . S
C888 C889 1.387 . S
C888 H892 0.950 . S
C888 C897 1.390 . S
C889 C888 1.387 . S
C889 C891 1.387 . S
H890 C897 0.950 . S
C891 C889 1.387 . S
C891 C893 1.390 . S
C891 H895 0.950 . S
H892 C888 0.950 . S
C893 C891 1.390 . S
C893 C894 1.387 . S
C893 H896 0.950 . S
C894 C893 1.387 . S
C894 C897 1.387 . S
H895 C891 0.950 . S
H896 C893 0.950 . S
C897 C888 1.390 . S
C897 H890 0.950 . S
C897 C894 1.387 . S
C898 C899 1.387 . S
C898 H902 0.950 . S
C898 C907 1.390 . S
C899 C898 1.387 . S
C899 C901 1.387 . S
H900 C907 0.950 . S
C901 C899 1.387 . S
C901 C903 1.390 . S
C901 H905 0.950 . S
H902 C898 0.950 . S
C903 C901 1.390 . S
C903 C904 1.387 . S
C903 H906 0.950 . S
C904 C903 1.387 . S
C904 C907 1.387 . S
H905 C901 0.950 . S
H906 C903 0.950 . S
C907 C898 1.390 . S
C907 H900 0.950 . S
C907 C904 1.387 . S
C908 C909 1.387 . S
C908 H912 0.950 . S
C908 C917 1.390 . S
C909 C908 1.387 . S
C909 C911 1.387 . S
H910 C917 0.950 . S
C911 C909 1.387 . S
C911 C913 1.390 . S
C911 H915 0.950 . S
H912 C908 0.950 . S
C913 C911 1.390 . S
C913 C914 1.387 . S
C913 H916 0.950 . S
C914 C913 1.387 . S
C914 C917 1.387 . S
H915 C911 0.950 . S
H916 C913 0.950 . S
C917 C908 1.390 . S
C917 H910 0.950 . S
C917 C914 1.387 . S
C918 C919 1.387 . S
C918 H922 0.950 . S
C918 C927 1.390 . S
C919 C918 1.387 . S
C919 C921 1.387 . S
H920 C927 0.950 . S
C921 C919 1.387 . S
C921 C923 1.390 . S
C921 H925 0.950 . S
H922 C918 0.950 . S
C923 C921 1.390 . S
C923 C924 1.387 . S
C923 H926 0.950 . S
C924 C923 1.387 . S
C924 C927 1.387 . S
H925 C921 0.950 . S
H926 C923 0.950 . S
C927 C918 1.390 . S
C927 H920 0.950 . S
C927 C924 1.387 . S
C928 C929 1.387 . S
C928 H932 0.950 . S
C928 C937 1.390 . S
C929 C928 1.387 . S
C929 C931 1.387 . S
H930 C937 0.950 . S
C931 C929 1.387 . S
C931 C933 1.390 . S
C931 H935 0.950 . S
H932 C928 0.950 . S
C933 C931 1.390 . S
C933 C934 1.387 . S
C933 H936 0.950 . S
C934 C933 1.387 . S
C934 C937 1.387 . S
H935 C931 0.950 . S
H936 C933 0.950 . S
C937 C928 1.390 . S
C937 H930 0.950 . S
C937 C934 1.387 . S
C938 C939 1.387 . S
C938 H942 0.950 . S
C938 C947 1.390 . S
C939 C938 1.387 . S
C939 C941 1.387 . S
H940 C947 0.950 . S
C941 C939 1.387 . S
C941 C943 1.390 . S
C941 H945 0.950 . S
H942 C938 0.950 . S
C943 C941 1.390 . S
C943 C944 1.387 . S
C943 H946 0.950 . S
C944 C943 1.387 . S
C944 C947 1.387 . S
H945 C941 0.950 . S
H946 C943 0.950 . S
C947 C938 1.390 . S
C947 H940 0.950 . S
C947 C944 1.387 . S
C709 C5 1.676 . S
C714 C300 1.674 . S
C719 C111 1.644 . S
C724 C288 1.643 . S
C729 C298 1.684 . S
C734 C121 1.683 . S
C739 C229 1.647 . S
C744 C269 1.648 . S
C749 C418 1.672 . S
C754 C123 1.673 . S
C759 C387 1.650 . S
C764 C210 1.649 . S
C769 C3 1.682 . S
C774 C416 1.684 . S
C779 C406 1.644 . S
C784 C92 1.647 . S
C789 C583 1.641 . S
C794 C477 1.655 . S
C799 C475 1.661 . S
C804 C701 1.638 . S
C809 C564 1.639 . S
C814 C593 1.663 . S
C819 C595 1.656 . S
C824 C682 1.642 . S
C829 C654 1.675 . S
C834 C359 1.673 . S
C839 C524 1.645 . S
C844 C465 1.643 . S
C849 C357 1.683 . S
C854 C534 1.682 . S
C859 C446 1.648 . S
C864 C642 1.646 . S
C869 C241 1.674 . S
C874 C536 1.675 . S
C879 C328 1.649 . S
C884 C623 1.648 . S
C889 C652 1.680 . S
C894 C239 1.682 . S
C899 C505 1.647 . S
C904 C347 1.645 . S
C909 C64 1.655 . S
C914 C170 1.641 . S
C919 C52 1.639 . S
C924 C62 1.662 . S
C929 C151 1.639 . S
C934 C180 1.663 . S
C939 C33 1.642 . S
C944 C182 1.656 . S
