# Generated by pormake.
# Topology dia, (4)-cn, num edge types: 1
# Building blocks:
#     Node 0, Type 0, BuildingBlock: GALJAG_clean_sbu_0, # of connection points: 4
#     Node 1, Type 0, BuildingBlock: GALJAG_clean_sbu_0, # of connection points: 4
#     Node 2, Type 0, BuildingBlock: GALJAG_clean_sbu_0, # of connection points: 4
#     Node 3, Type 0, BuildingBlock: GALJAG_clean_sbu_0, # of connection points: 4
#     Node 4, Type 0, BuildingBlock: GALJAG_clean_sbu_0, # of connection points: 4
#     Node 5, Type 0, BuildingBlock: GALJAG_clean_sbu_0, # of connection points: 4
#     Node 6, Type 0, BuildingBlock: GALJAG_clean_sbu_0, # of connection points: 4
#     Node 7, Type 0, BuildingBlock: GALJAG_clean_sbu_0, # of connection points: 4
#     Edge 8, Type (0, 0), BuildingBlock: FUNLAD_clean_linker_1, # of connection points: 2
#     Edge 9, Type (0, 0), BuildingBlock: FUNLAD_clean_linker_1, # of connection points: 2
#     Edge 10, Type (0, 0), BuildingBlock: FUNLAD_clean_linker_1, # of connection points: 2
#     Edge 11, Type (0, 0), BuildingBlock: FUNLAD_clean_linker_1, # of connection points: 2
#     Edge 12, Type (0, 0), BuildingBlock: FUNLAD_clean_linker_1, # of connection points: 2
#     Edge 13, Type (0, 0), BuildingBlock: FUNLAD_clean_linker_1, # of connection points: 2
#     Edge 14, Type (0, 0), BuildingBlock: FUNLAD_clean_linker_1, # of connection points: 2
#     Edge 15, Type (0, 0), BuildingBlock: FUNLAD_clean_linker_1, # of connection points: 2
#     Edge 16, Type (0, 0), BuildingBlock: FUNLAD_clean_linker_1, # of connection points: 2
#     Edge 17, Type (0, 0), BuildingBlock: FUNLAD_clean_linker_1, # of connection points: 2
#     Edge 18, Type (0, 0), BuildingBlock: FUNLAD_clean_linker_1, # of connection points: 2
#     Edge 19, Type (0, 0), BuildingBlock: FUNLAD_clean_linker_1, # of connection points: 2
#     Edge 20, Type (0, 0), BuildingBlock: FUNLAD_clean_linker_1, # of connection points: 2
#     Edge 21, Type (0, 0), BuildingBlock: FUNLAD_clean_linker_1, # of connection points: 2
#     Edge 22, Type (0, 0), BuildingBlock: FUNLAD_clean_linker_1, # of connection points: 2
#     Edge 23, Type (0, 0), BuildingBlock: FUNLAD_clean_linker_1, # of connection points: 2
# Relax obj value: 0.058
# Max RMSD: 0.096
# Mean RMSD: 0.096
data_MOF--net-dia--node1-GALJAG_clean_sbu_0--edge1-FUNLAD_clean_linker_1
_symmetry_space_group_name_H-M    P1
_symmetry_Int_Tables_number       1
_symmetry_cell_setting            triclinic
loop_
_symmetry_equiv_pos_as_xyz
'x, y, z'
_cell_length_a     23.975996
_cell_length_b     40.718947
_cell_length_c     41.181539
_cell_angle_alpha  89.385873
_cell_angle_beta   90.257414
_cell_angle_gamma 90.433412
loop_
_atom_site_label
_atom_site_type_symbol
_atom_site_fract_x
_atom_site_fract_y
_atom_site_fract_z
_atom_type_partial_charge
In0 In 0.1075 0.13375 0.6231 0.0
O1 O 0.17863 0.16608 0.60301 0.0
O2 O 0.097 0.17108 0.58263 0.0
C3 C 0.14695 0.09359 0.66993 0.0
C4 C 0.04733 0.17302 0.66125 0.0
C5 C 0.08468 0.08757 0.57878 0.0
O6 O 0.1791 0.11265 0.65407 0.0
O7 O 0.09614 0.09502 0.66215 0.0
O8 O 0.04637 0.10252 0.59355 0.0
O9 O 0.13374 0.09595 0.58636 0.0
C10 C 0.1473 0.18033 0.58245 0.0
O11 O 0.02436 0.15303 0.64193 0.0
O12 O 0.10001 0.17317 0.66106 0.0
In13 In 0.88125 0.38196 0.87983 0.0
O14 O 0.95808 0.35899 0.85653 0.0
O15 O 0.87814 0.3425 0.84096 0.0
C16 C 0.93274 0.42226 0.9223 0.0
C17 C 0.83442 0.42436 0.83712 0.0
C18 C 0.82636 0.34173 0.92147 0.0
O19 O 0.95917 0.40236 0.90498 0.0
O20 O 0.88054 0.42181 0.91834 0.0
O21 O 0.80204 0.36361 0.90494 0.0
O22 O 0.8783 0.34009 0.91714 0.0
C23 C 0.93032 0.34028 0.83826 0.0
O24 O 0.80681 0.40205 0.85131 0.0
O25 O 0.88555 0.42538 0.84437 0.0
In26 In 0.60237 0.13669 0.12849 0.0
O27 O 0.52759 0.16523 0.14668 0.0
O28 O 0.60736 0.17647 0.16678 0.0
C29 C 0.55012 0.09995 0.08365 0.0
C30 C 0.67078 0.17304 0.09041 0.0
C31 C 0.62862 0.09136 0.17414 0.0
O32 O 0.52596 0.12269 0.09845 0.0
O33 O 0.60064 0.09583 0.09124 0.0
O34 O 0.66537 0.10817 0.1595 0.0
O35 O 0.57912 0.09736 0.16581 0.0
C36 C 0.55575 0.18229 0.16625 0.0
O37 O 0.68885 0.15075 0.10909 0.0
O38 O 0.61868 0.17691 0.09095 0.0
In39 In 0.86186 0.88305 0.37414 0.0
O40 O 0.78878 0.90838 0.34832 0.0
O41 O 0.871 0.92759 0.34133 0.0
C42 C 0.81656 0.83518 0.41111 0.0
C43 C 0.90429 0.84546 0.3274 0.0
C44 C 0.90577 0.92027 0.42153 0.0
O45 O 0.78892 0.86014 0.40239 0.0
O46 O 0.86599 0.8343 0.40095 0.0
O47 O 0.93649 0.90604 0.40115 0.0
O48 O 0.85421 0.91537 0.41803 0.0
C49 C 0.81977 0.92974 0.33475 0.0
O50 O 0.93536 0.85924 0.34831 0.0
O51 O 0.85278 0.85088 0.33012 0.0
In52 In 0.12317 0.63175 0.13397 0.0
O53 O 0.20324 0.6489 0.10837 0.0
O54 O 0.12602 0.66983 0.09336 0.0
C55 C 0.15521 0.58569 0.1776 0.0
C56 C 0.09549 0.67949 0.1755 0.0
C57 C 0.06201 0.59362 0.09412 0.0
O58 O 0.1893 0.59868 0.15779 0.0
O59 O 0.10581 0.59581 0.17522 0.0
O60 O 0.04009 0.61529 0.1116 0.0
O61 O 0.11431 0.5913 0.09676 0.0
C62 C 0.1782 0.66886 0.08974 0.0
O63 O 0.05923 0.66455 0.15868 0.0
O64 O 0.14506 0.67045 0.17127 0.0
In65 In 0.39492 0.38752 0.38574 0.0
O66 O 0.47284 0.36753 0.36182 0.0
O67 O 0.39361 0.35176 0.34382 0.0
C68 C 0.44524 0.42613 0.42958 0.0
C69 C 0.34902 0.43189 0.34461 0.0
C70 C 0.3504 0.34193 0.42629 0.0
O71 O 0.47231 0.40863 0.41018 0.0
O72 O 0.39283 0.42404 0.42706 0.0
O73 O 0.3216 0.36527 0.41482 0.0
O74 O 0.40035 0.3416 0.41711 0.0
C75 C 0.44606 0.35018 0.3418 0.0
O76 O 0.32089 0.40817 0.35626 0.0
O77 O 0.39898 0.43328 0.35401 0.0
In78 In 0.36099 0.88572 0.87793 0.0
O79 O 0.435 0.85852 0.85718 0.0
O80 O 0.35412 0.84686 0.83878 0.0
C81 C 0.41395 0.92331 0.92167 0.0
C82 C 0.3315 0.93209 0.83391 0.0
C83 C 0.30112 0.84605 0.91782 0.0
O84 O 0.43863 0.90147 0.90584 0.0
O85 O 0.3625 0.9261 0.91567 0.0
O86 O 0.35364 0.8461 0.9169 0.0
O87 O 0.27801 0.8662 0.89857 0.0
C88 C 0.40591 0.84167 0.83787 0.0
O89 O 0.29548 0.91602 0.85002 0.0
O90 O 0.38139 0.92479 0.84006 0.0
In91 In 0.62619 0.63968 0.6381 0.0
O92 O 0.55606 0.64149 0.67554 0.0
O93 O 0.58837 0.6867 0.65724 0.0
C94 C 0.5705 0.59757 0.60006 0.0
C95 C 0.67742 0.68122 0.59584 0.0
C96 C 0.69427 0.60543 0.6786 0.0
O97 O 0.54578 0.61738 0.61837 0.0
O98 O 0.62319 0.59909 0.60085 0.0
O99 O 0.66788 0.59234 0.65559 0.0
O100 O 0.68766 0.63593 0.68087 0.0
C101 C 0.55459 0.67238 0.67608 0.0
O102 O 0.69835 0.67389 0.62306 0.0
O103 O 0.6315 0.66737 0.58978 0.0
H104 H 0.35656 0.29637 0.45507 0.0
C105 C 0.32899 0.31661 0.4489 0.0
H106 H 0.25128 0.33866 0.4582 0.0
H107 H 0.22155 0.18203 0.50629 0.0
H108 H 0.22273 0.16971 0.44882 0.0
H109 H 0.23986 0.21343 0.40806 0.0
H110 H 0.25664 0.26966 0.42458 0.0
C111 C 0.27856 0.31791 0.46276 0.0
C112 C 0.26139 0.29228 0.48692 0.0
C113 C 0.24979 0.25973 0.4768 0.0
C114 C 0.23781 0.23476 0.50023 0.0
C115 C 0.22894 0.20219 0.4895 0.0
C116 C 0.22985 0.19472 0.45658 0.0
C117 C 0.23967 0.21931 0.43364 0.0
C118 C 0.24955 0.25147 0.44347 0.0
H119 H 0.13621 0.21504 0.54179 0.0
C120 C 0.1666 0.20559 0.55914 0.0
H121 H 0.24985 0.20887 0.5759 0.0
H122 H 0.2809 0.35216 0.51444 0.0
H123 H 0.27726 0.3648 0.57185 0.0
H124 H 0.25406 0.32183 0.61236 0.0
H125 H 0.2347 0.26585 0.59577 0.0
C126 C 0.21917 0.21704 0.55814 0.0
C127 C 0.23542 0.24261 0.5337 0.0
C128 C 0.24649 0.27521 0.54377 0.0
C129 C 0.25937 0.30007 0.52037 0.0
C130 C 0.27059 0.33237 0.53116 0.0
C131 C 0.26864 0.33997 0.56404 0.0
C132 C 0.2556 0.31576 0.58685 0.0
C133 C 0.24459 0.28373 0.577 0.0
H134 H 0.74807 0.59958 0.72188 0.0
C135 C 0.72706 0.58644 0.70246 0.0
H136 H 0.70804 0.5401 0.68244 0.0
H137 H 0.90131 0.46278 0.75308 0.0
H138 H 0.93809 0.46622 0.69841 0.0
H139 H 0.89291 0.501 0.65669 0.0
H140 H 0.81033 0.5324 0.66937 0.0
C141 C 0.72811 0.55348 0.70203 0.0
C142 C 0.75689 0.53413 0.72786 0.0
C143 C 0.80548 0.51626 0.7202 0.0
C144 C 0.83199 0.4966 0.7444 0.0
C145 C 0.87984 0.47847 0.73582 0.0
C146 C 0.90138 0.48016 0.70448 0.0
C147 C 0.87591 0.49971 0.68098 0.0
C148 C 0.82849 0.51757 0.68858 0.0
H149 H 0.76516 0.44287 0.80689 0.0
C150 C 0.80843 0.44719 0.81371 0.0
H151 H 0.87993 0.47705 0.80716 0.0
H152 H 0.66141 0.56296 0.75011 0.0
H153 H 0.62752 0.56201 0.80542 0.0
H154 H 0.67836 0.53201 0.84853 0.0
H155 H 0.76264 0.50215 0.83634 0.0
C156 C 0.83633 0.47296 0.80096 0.0
C157 C 0.81002 0.49503 0.77631 0.0
C158 C 0.76255 0.5139 0.78429 0.0
C159 C 0.73502 0.53271 0.75982 0.0
C160 C 0.68545 0.54942 0.76796 0.0
C161 C 0.66528 0.54893 0.79962 0.0
C162 C 0.69376 0.53193 0.82386 0.0
C163 C 0.74187 0.51464 0.81645 0.0
H164 H 0.47719 0.08473 0.05461 0.0
C165 C 0.5207 0.07944 0.05987 0.0
H166 H 0.58849 0.04789 0.05128 0.0
H167 H 0.42877 0.93057 0.01011 0.0
H168 H 0.461 0.91131 0.06282 0.0
H169 H 0.51792 0.94711 0.09802 0.0
H170 H 0.54277 1.00243 0.08076 0.0
C171 C 0.54566 0.0542 0.04532 0.0
C172 C 0.51389 0.03232 0.02324 0.0
C173 C 0.50071 0.99985 0.03348 0.0
C174 C 0.46848 0.9791 0.01306 0.0
C175 C 0.45425 0.94714 0.02433 0.0
C176 C 0.47219 0.93582 0.05463 0.0
C177 C 0.50419 0.95599 0.07446 0.0
C178 C 0.51825 0.98768 0.06421 0.0
H179 H 0.4877 0.93952 0.94946 0.0
C180 C 0.44371 0.94416 0.94502 0.0
H181 H 0.37508 0.97462 0.95511 0.0
H182 H 0.53615 0.09232 0.99512 0.0
H183 H 0.50392 0.11156 0.94241 0.0
H184 H 0.4465 0.07586 0.90737 0.0
H185 H 0.42127 0.02062 0.92478 0.0
C186 C 0.41844 0.96887 0.96024 0.0
C187 C 0.45035 0.99075 0.98224 0.0
C188 C 0.46357 0.02319 0.97197 0.0
C189 C 0.49591 0.04393 0.99237 0.0
C190 C 0.51042 0.07581 0.98099 0.0
C191 C 0.4925 0.0871 0.95067 0.0
C192 C 0.46024 0.06699 0.93093 0.0
C193 C 0.44598 0.03535 0.94126 0.0
H194 H 0.89434 0.81297 0.28554 0.0
C195 C 0.92498 0.82361 0.30199 0.0
H196 H 0.00977 0.82482 0.31602 0.0
H197 H 0.04695 0.68249 0.25771 0.0
H198 H 0.05778 0.67195 0.3154 0.0
H199 H 0.04063 0.71555 0.35518 0.0
H200 H 0.01237 0.76994 0.33748 0.0
C201 C 0.97882 0.8155 0.29904 0.0
C202 C -0.00425 0.79068 0.27472 0.0
C203 C 0.01369 0.75928 0.28544 0.0
C204 C 0.02434 0.73426 0.26246 0.0
C205 C 0.03978 0.70268 0.27397 0.0
C206 C 0.04577 0.69621 0.30708 0.0
C207 C 0.03605 0.72074 0.32947 0.0
C208 C 0.01992 0.75189 0.31895 0.0
H209 H 0.11626 0.7161 0.21267 0.0
C210 C 0.08204 0.7052 0.199 0.0
H211 H -0.00488 0.70516 0.19043 0.0
H212 H 0.96886 0.8494 0.24583 0.0
H213 H 0.95879 0.86013 0.18805 0.0
H214 H 0.97562 0.81649 0.14825 0.0
H215 H 0.00288 0.76188 0.16599 0.0
C216 C 0.0297 0.71503 0.20451 0.0
C217 C 0.01811 0.74094 0.22874 0.0
C218 C 0.00125 0.77254 0.218 0.0
C219 C 0.99065 0.79755 0.24098 0.0
C220 C 0.9758 0.82922 0.22949 0.0
C221 C 0.9703 0.83579 0.19637 0.0
C222 C 0.97986 0.81123 0.17396 0.0
C223 C -0.00463 0.77997 0.18449 0.0
H224 H 0.3524 0.96971 0.79716 0.0
C225 C 0.31785 0.95737 0.80935 0.0
H226 H 0.23031 0.95398 0.81375 0.0
H227 H 0.19189 0.09723 0.75584 0.0
H228 H 0.16846 0.10524 0.81244 0.0
H229 H 0.18411 0.0613 0.8531 0.0
H230 H 0.22332 1.00908 0.83743 0.0
C231 C 0.26539 0.96529 0.80118 0.0
C232 C 0.25422 0.99126 0.77622 0.0
C233 C 0.23059 0.02147 0.78571 0.0
C234 C 0.22103 0.0467 0.7622 0.0
C235 C 0.19879 0.07696 0.77254 0.0
C236 C 0.18551 0.08197 0.805 0.0
C237 C 0.19437 0.05724 0.8279 0.0
C238 C 0.21681 0.02735 0.81854 0.0
H239 H 0.13361 0.05669 0.70839 0.0
C240 C 0.16561 0.07089 0.69577 0.0
H241 H 0.25223 0.07934 0.69083 0.0
H242 H 0.2958 0.93531 0.74913 0.0
H243 H 0.31996 0.92763 0.69267 0.0
H244 H 0.30582 0.972 0.65228 0.0
H245 H 0.26705 0.02427 0.66813 0.0
C246 C 0.21927 0.06648 0.70391 0.0
C247 C 0.23436 0.04151 0.72913 0.0
C248 C 0.25872 0.0115 0.7197 0.0
C249 C 0.26795 0.98616 0.74315 0.0
C250 C 0.28962 0.95581 0.73264 0.0
C251 C 0.30326 0.95096 0.70021 0.0
C252 C 0.29521 0.97592 0.67746 0.0
C253 C 0.27296 1.00582 0.6869 0.0
H254 H 0.0064 0.44339 0.94696 0.0
C255 C 0.96122 0.44456 0.94505 0.0
H256 H 0.88784 0.467 0.96195 0.0
H257 H 0.00018 0.51175 0.09419 0.0
H258 H 0.93819 0.46845 0.1132 0.0
H259 H 0.88635 0.43385 0.07441 0.0
H260 H 0.89646 0.44226 0.01634 0.0
C261 C 0.93312 0.46626 0.96296 0.0
C262 C 0.96244 0.48835 0.98614 0.0
C263 C 0.95506 0.48363 0.02002 0.0
C264 C 0.98442 0.50387 0.0424 0.0
C265 C 0.97796 0.49768 0.07609 0.0
C266 C 0.94271 0.47275 0.08736 0.0
C267 C 0.91356 0.45325 0.06552 0.0
C268 C 0.91966 0.45841 0.03223 0.0
H269 H 0.98399 0.57595 0.07112 0.0
C270 C 0.02889 0.57261 0.07224 0.0
H271 H 0.09811 0.54692 0.05412 0.0
H272 H 0.98105 0.50654 0.92278 0.0
H273 H 0.04264 0.55004 0.90375 0.0
H274 H 0.09492 0.58443 0.94253 0.0
H275 H 0.08555 0.57566 1.0006 0.0
C276 C 0.05306 0.54968 0.05387 0.0
C277 C 0.02041 0.52916 0.0308 0.0
C278 C 0.02711 0.5342 0.99692 0.0
C279 C -0.00233 0.51402 0.97455 0.0
C280 C 0.0036 0.52046 0.94086 0.0
C281 C 0.03854 0.54554 0.92959 0.0
C282 C 0.06793 0.56492 0.95142 0.0
C283 C 0.06229 0.55954 0.9847 0.0
H284 H 0.51971 0.32842 0.3188 0.0
C285 C 0.47438 0.329 0.31853 0.0
H286 H 0.40053 0.31093 0.29663 0.0
H287 H 0.52926 0.27115 0.16846 0.0
H288 H 0.48115 0.3199 0.14936 0.0
H289 H 0.42945 0.35465 0.18742 0.0
H290 H 0.42591 0.34096 0.24488 0.0
C291 C 0.44578 0.30998 0.29781 0.0
C292 C 0.47512 0.28826 0.27492 0.0
C293 C 0.47575 0.29626 0.24136 0.0
C294 C 0.50471 0.27593 0.21936 0.0
C295 C 0.50654 0.28519 0.18613 0.0
C296 C 0.47943 0.31326 0.17486 0.0
C297 C 0.45039 0.33285 0.19629 0.0
C298 C 0.44861 0.32466 0.2292 0.0
H299 H 0.4846 0.20934 0.18609 0.0
C300 C 0.52964 0.20664 0.18726 0.0
H301 H 0.60448 0.22159 0.21019 0.0
H302 H 0.47843 0.26463 0.33753 0.0
H303 H 0.52625 0.21583 0.35662 0.0
H304 H 0.5774 0.18084 0.31852 0.0
H305 H 0.5808 0.19441 0.2611 0.0
C306 C 0.55966 0.22484 0.20803 0.0
C307 C 0.53187 0.24726 0.23096 0.0
C308 C 0.53142 0.23932 0.26455 0.0
C309 C 0.50256 0.2597 0.28655 0.0
C310 C 0.5009 0.25051 0.31983 0.0
C311 C 0.52789 0.22242 0.3311 0.0
C312 C 0.55663 0.2027 0.30965 0.0
C313 C 0.55833 0.21084 0.27674 0.0
H314 H 0.81084 0.7844 0.42929 0.0
C315 C 0.79431 0.80897 0.43221 0.0
H316 H 0.74429 0.83994 0.46031 0.0
H317 H 0.59277 0.73216 0.52653 0.0
H318 H 0.52542 0.76605 0.49827 0.0
H319 H 0.55593 0.81006 0.46063 0.0
H320 H 0.65409 0.82082 0.45152 0.0
C321 C 0.75995 0.81522 0.45699 0.0
C322 C 0.74195 0.78873 0.48012 0.0
C323 C 0.6843 0.78214 0.48448 0.0
C324 C 0.66673 0.756 0.50535 0.0
C325 C 0.60876 0.75097 0.51027 0.0
C326 C 0.56948 0.77037 0.49428 0.0
C327 C 0.58665 0.79519 0.47315 0.0
C328 C 0.64326 0.80112 0.46821 0.0
H329 H 0.73331 0.72278 0.58384 0.0
C330 C 0.7027 0.70581 0.57387 0.0
H331 H 0.65654 0.69112 0.53289 0.0
H332 H 0.85501 0.79973 0.48467 0.0
H333 H 0.92298 0.7634 0.50938 0.0
H334 H 0.89322 0.71214 0.53695 0.0
H335 H 0.79527 0.69787 0.54129 0.0
C336 C 0.68744 0.70817 0.54248 0.0
C337 C 0.70684 0.73561 0.52091 0.0
C338 C 0.76457 0.74181 0.51597 0.0
C339 C 0.782 0.76955 0.49723 0.0
C340 C 0.83962 0.77754 0.49627 0.0
C341 C 0.8791 0.75709 0.51071 0.0
C342 C 0.86233 0.72838 0.52643 0.0
C343 C 0.80583 0.72068 0.52907 0.0
H344 H 0.13842 0.55256 0.219 0.0
C345 C 0.17078 0.56109 0.20246 0.0
H346 H 0.25527 0.5568 0.18892 0.0
H347 H 0.25297 0.50305 0.34229 0.0
H348 H 0.2359 0.5599 0.35594 0.0
H349 H 0.22046 0.60158 0.31297 0.0
H350 H 0.22127 0.5866 0.25617 0.0
C351 C 0.2227 0.54943 0.20581 0.0
C352 C 0.23607 0.52489 0.23178 0.0
C353 C 0.2371 0.5343 0.26487 0.0
C354 C 0.24811 0.51052 0.28961 0.0
C355 C 0.24669 0.52032 0.32249 0.0
C356 C 0.23661 0.55284 0.33067 0.0
C357 C 0.22775 0.57628 0.30649 0.0
C358 C 0.228 0.56728 0.27395 0.0
H359 H 0.35409 0.47686 0.31483 0.0
C360 C 0.32707 0.45625 0.32125 0.0
H361 H 0.2506 0.43215 0.31147 0.0
H362 H 0.23684 0.4987 0.1709 0.0
H363 H 0.25623 0.44209 0.15723 0.0
H364 H 0.27786 0.40121 0.20001 0.0
H365 H 0.27986 0.41659 0.25677 0.0
C366 C 0.27713 0.45339 0.30669 0.0
C367 C 0.26007 0.47763 0.28119 0.0
C368 C 0.25889 0.46822 0.24814 0.0
C369 C 0.24697 0.49189 0.22342 0.0
C370 C 0.24603 0.48178 0.19062 0.0
C371 C 0.25706 0.44937 0.18243 0.0
C372 C 0.2692 0.42635 0.20653 0.0
C373 C 0.2702 0.43551 0.23902 0.0
H374 H 0.75081 0.32258 0.94563 0.0
C375 C 0.79573 0.31971 0.94378 0.0
H376 H 0.86646 0.29387 0.96067 0.0
H377 H 0.74345 0.25185 0.09149 0.0
H378 H 0.81004 0.29192 0.11155 0.0
H379 H 0.86827 0.32446 0.07367 0.0
H380 H 0.85998 0.31722 0.01545 0.0
C381 C 0.8214 0.29638 0.96149 0.0
C382 C 0.7894 0.27479 0.98418 0.0
C383 C 0.79586 0.27868 0.01815 0.0
C384 C 0.76286 0.25956 0.04001 0.0
C385 C 0.7684 0.26504 0.07378 0.0
C386 C 0.80626 0.28814 0.08565 0.0
C387 C 0.83901 0.30649 0.06432 0.0
C388 C 0.83389 0.30203 0.03095 0.0
H389 H 0.75228 0.18785 0.06979 0.0
C390 C 0.70784 0.19295 0.06948 0.0
H391 H 0.64315 0.22146 0.04904 0.0
H392 H 0.77158 0.25846 0.92056 0.0
H393 H 0.70571 0.21797 0.90042 0.0
H394 H 0.64755 0.18531 0.93825 0.0
H395 H 0.65517 0.19283 0.99644 0.0
C396 C 0.68774 0.21693 0.05019 0.0
C397 C 0.72424 0.23613 0.02777 0.0
C398 C 0.71871 0.23175 0.9938 0.0
C399 C 0.75167 0.25088 0.97198 0.0
C400 C 0.74653 0.24524 0.93821 0.0
C401 C 0.70914 0.22189 0.92631 0.0
C402 C 0.67644 0.20349 0.94761 0.0
C403 C 0.68112 0.20815 0.98097 0.0
H404 H 0.8301 0.97131 0.30089 0.0
C405 C 0.79937 0.95484 0.3118 0.0
H406 H 0.71385 0.9419 0.3141 0.0
H407 H 0.6573 0.08696 0.26091 0.0
H408 H 0.63088 0.09212 0.31736 0.0
H409 H 0.64838 0.04717 0.35666 0.0
H410 H 0.69279 0.99681 0.33971 0.0
C411 C 0.74565 0.95749 0.30308 0.0
C412 C 0.72882 0.98267 0.27858 0.0
C413 C 0.70133 0.01147 0.28865 0.0
C414 C 0.69031 0.03711 0.26584 0.0
C415 C 0.66521 0.06629 0.27693 0.0
C416 C 0.65017 0.06968 0.30935 0.0
C417 C 0.66012 0.04439 0.33149 0.0
C418 C 0.6856 0.01563 0.32144 0.0
H419 H 0.607 0.05284 0.20997 0.0
C420 C 0.64154 0.0664 0.1991 0.0
H421 H 0.72897 0.07254 0.19723 0.0
H422 H 0.777 0.92916 0.25072 0.0
H423 H 0.80257 0.92358 0.19414 0.0
H424 H 0.78401 0.96814 0.15458 0.0
H425 H 0.73969 0.01852 0.17135 0.0
C426 C 0.69392 0.05995 0.20862 0.0
C427 C 0.70567 0.03349 0.23282 0.0
C428 C 0.7322 1.00438 0.22266 0.0
C429 C 0.7434 0.97883 0.2455 0.0
C430 C 0.76866 0.94966 0.23453 0.0
C431 C 0.78323 0.94604 0.20207 0.0
C432 C 0.77273 0.97111 0.1798 0.0
C433 C 0.74737 0.99994 0.18979 0.0
H434 H 0.89591 0.95238 0.46345 0.0
C435 C 0.92666 0.942 0.44724 0.0
H436 H 0.01161 0.94161 0.43394 0.0
H437 H 0.04418 0.08443 0.49369 0.0
H438 H 0.05833 0.09517 0.4363 0.0
H439 H 0.04473 0.0513 0.39612 0.0
H440 H 0.01681 0.99641 0.41311 0.0
C441 C 0.98046 0.95054 0.45071 0.0
C442 C -0.00323 0.97539 0.47538 0.0
C443 C 0.0145 1.00711 0.46511 0.0
C444 C 0.02293 0.03233 0.48833 0.0
C445 C 0.03841 0.06415 0.47724 0.0
C446 C 0.04635 0.07072 0.44431 0.0
C447 C 0.03863 0.04603 0.42169 0.0
C448 C 0.02264 0.01461 0.43179 0.0
H449 H 0.11005 0.0517 0.54218 0.0
C450 C 0.07419 0.06224 0.5542 0.0
H451 H 0.98651 0.06122 0.55882 0.0
H452 H 0.97098 0.91605 0.50362 0.0
H453 H 0.95802 0.90504 0.56113 0.0
H454 H 0.97054 0.94906 0.60129 0.0
H455 H -0.00359 1.0043 0.58418 0.0
C456 C 0.02276 0.05185 0.54628 0.0
C457 C 0.01445 0.02559 0.52183 0.0
C458 C -0.00161 0.99361 0.53218 0.0
C459 C 0.99021 0.96838 0.50899 0.0
C460 C 0.97606 0.93637 0.52012 0.0
C461 C 0.96893 0.92965 0.55308 0.0
C462 C 0.97606 0.95442 0.57569 0.0
C463 C 0.99081 0.98604 0.56553 0.0
H464 H 0.00244 0.31728 0.81462 0.0
C465 C 0.95715 0.31765 0.81553 0.0
H466 H 0.88195 0.29871 0.79614 0.0
H467 H 0.99376 0.25668 0.66391 0.0
H468 H 0.93783 0.30282 0.64604 0.0
H469 H 0.88869 0.33708 0.68564 0.0
H470 H 0.89552 0.3255 0.74339 0.0
C471 C 0.92724 0.29779 0.79613 0.0
C472 C 0.9547 0.27589 0.7724 0.0
C473 C 0.94914 0.28249 0.73866 0.0
C474 C 0.97685 0.26244 0.71578 0.0
C475 C 0.97252 0.27051 0.68232 0.0
C476 C 0.94078 0.29709 0.67172 0.0
C477 C 0.91316 0.3164 0.69401 0.0
C478 C 0.91733 0.3094 0.72711 0.0
H479 H 0.9698 0.19269 0.68231 0.0
C480 C 0.01506 0.19432 0.68285 0.0
H481 H 0.08595 0.2161 0.70462 0.0
H482 H 0.96882 0.25414 0.83511 0.0
H483 H 0.02426 0.20777 0.85301 0.0
H484 H 0.07353 0.17353 0.81344 0.0
H485 H 0.06728 0.18534 0.75571 0.0
C486 C 0.04067 0.21519 0.70327 0.0
C487 C 0.00926 0.23545 0.72672 0.0
C488 C 0.01403 0.22853 0.76044 0.0
C489 C 0.98631 0.24857 0.78329 0.0
C490 C 0.99025 0.24034 0.81674 0.0
C491 C 0.02163 0.21362 0.82735 0.0
C492 C 0.04932 0.19433 0.80507 0.0
C493 C 0.04553 0.20148 0.77199 0.0
H494 H 0.48651 0.67646 0.71166 0.0
C495 C 0.51798 0.69022 0.69819 0.0
H496 H 0.55628 0.73633 0.68978 0.0
H497 H 0.36954 0.82755 0.74206 0.0
H498 H 0.36605 0.83987 0.68436 0.0
H499 H 0.41837 0.8065 0.64538 0.0
H500 H 0.47493 0.76081 0.66392 0.0
C501 C 0.52526 0.72243 0.70348 0.0
C502 C 0.49055 0.74059 0.72698 0.0
C503 C 0.45663 0.76671 0.71562 0.0
C504 C 0.42569 0.78557 0.738 0.0
C505 C 0.39341 0.81215 0.7261 0.0
C506 C 0.39103 0.81952 0.69302 0.0
C507 C 0.42053 0.80076 0.67109 0.0
C508 C 0.45297 0.77464 0.68209 0.0
H509 H 0.47648 0.81603 0.81585 0.0
C510 C 0.4313 0.81818 0.81566 0.0
H511 H 0.35567 0.80258 0.794 0.0
H512 H 0.55614 0.69444 0.75778 0.0
H513 H 0.55493 0.68013 0.81494 0.0
H514 H 0.49351 0.70919 0.85281 0.0
H515 H 0.43407 0.75337 0.83369 0.0
C516 C 0.40072 0.79994 0.79516 0.0
C517 C 0.42831 0.77802 0.77163 0.0
C518 C 0.46004 0.7509 0.78285 0.0
C519 C 0.49274 0.73283 0.76068 0.0
C520 C 0.52796 0.70781 0.77308 0.0
C521 C 0.52811 0.69953 0.80598 0.0
C522 C 0.49375 0.71597 0.82733 0.0
C523 C 0.46012 0.74142 0.81605 0.0
H524 H 0.2531 0.68925 0.06537 0.0
C525 C 0.20783 0.69008 0.06608 0.0
H526 H 0.1349 0.71214 0.04737 0.0
H527 H 0.25071 0.84354 1.00062 0.0
H528 H 0.1959 0.86237 0.04592 0.0
H529 H 0.14654 0.82292 0.08165 0.0
H530 H 0.15207 0.76437 0.0724 0.0
C531 C 0.18007 0.71062 0.04605 0.0
C532 C 0.20941 0.73413 0.02386 0.0
C533 C 0.20484 0.76838 0.02917 0.0
C534 C 0.23264 0.79119 0.00826 0.0
C535 C 0.22923 0.82515 0.01508 0.0
C536 C 0.19818 0.83632 0.04119 0.0
C537 C 0.17044 0.81411 0.06132 0.0
C538 C 0.17382 0.78053 0.05563 0.0
H539 H 0.22396 0.8247 0.9389 0.0
C540 C 0.26925 0.82397 0.93966 0.0
H541 H 0.34048 0.80173 0.96037 0.0
H542 H 0.22203 0.67036 0.00457 0.0
H543 H 0.27666 0.65154 0.95916 0.0
H544 H 0.32634 0.69099 0.92357 0.0
H545 H 0.32123 0.74954 0.93303 0.0
C546 C 0.29523 0.80318 0.96026 0.0
C547 C 0.26419 0.77972 0.98167 0.0
C548 C 0.26844 0.74548 0.97622 0.0
C549 C 0.24057 0.72267 0.9971 0.0
C550 C 0.2437 0.68874 0.99017 0.0
C551 C 0.2746 0.67758 0.964 0.0
C552 C 0.30252 0.69979 0.94394 0.0
C553 C 0.2994 0.73335 0.94974 0.0
H554 H 0.51869 0.44826 0.45332 0.0
C555 C 0.47335 0.44804 0.45265 0.0
H556 H 0.39947 0.46774 0.47206 0.0
H557 H 0.52312 0.512 0.6014 0.0
H558 H 0.4661 0.46687 0.62163 0.0
H559 H 0.41197 0.43216 0.58398 0.0
H560 H 0.41481 0.4423 0.52585 0.0
C561 C 0.44479 0.46823 0.47189 0.0
C562 C 0.47433 0.49064 0.49449 0.0
C563 C 0.4712 0.4848 0.52841 0.0
C564 C 0.50175 0.5051 0.55013 0.0
C565 C 0.49964 0.49792 0.58384 0.0
C566 C 0.46734 0.47193 0.59578 0.0
C567 C 0.43692 0.45236 0.57458 0.0
C568 C 0.43885 0.4585 0.54127 0.0
H569 H 0.49436 0.5754 0.57922 0.0
C570 C 0.53968 0.57462 0.57919 0.0
H571 H 0.61133 0.55289 0.55923 0.0
H572 H 0.48406 0.51094 0.431 0.0
H573 H 0.54049 0.55629 0.41079 0.0
H574 H 0.59508 0.59081 0.44839 0.0
H575 H 0.5932 0.58027 0.50644 0.0
C576 C 0.56605 0.5532 0.56021 0.0
C577 C 0.53448 0.53155 0.53781 0.0
C578 C 0.53707 0.53763 0.50391 0.0
C579 C 0.50642 0.51739 0.48222 0.0
C580 C 0.50788 0.52486 0.44854 0.0
C581 C 0.53978 0.55101 0.43661 0.0
C582 C 0.57044 0.57047 0.45777 0.0
C583 C 0.56909 0.56408 0.49105 0.0
loop_
_geom_bond_atom_site_label_1
_geom_bond_atom_site_label_2
_geom_bond_distance
_geom_bond_site_symmetry_2
_ccdc_geom_bond_type
In0 O1 2.294 . S
In0 O2 2.326 . S
In0 O6 2.266 . S
In0 O7 2.326 . S
In0 O8 2.266 . S
In0 O9 2.326 . S
In0 O11 2.294 . S
In0 O12 2.326 . S
O1 In0 2.294 . S
O1 C10 1.240 . S
O2 In0 2.326 . S
O2 C10 1.252 . S
C3 O6 1.252 . S
C3 O7 1.260 . S
C4 O11 1.240 . S
C4 O12 1.252 . S
C5 O8 1.252 . S
C5 O9 1.260 . S
O6 In0 2.266 . S
O6 C3 1.252 . S
O7 In0 2.326 . S
O7 C3 1.260 . S
O8 In0 2.266 . S
O8 C5 1.252 . S
O9 In0 2.326 . S
O9 C5 1.260 . S
C10 O1 1.240 . S
C10 O2 1.252 . S
O11 In0 2.294 . S
O11 C4 1.240 . S
O12 In0 2.326 . S
O12 C4 1.252 . S
In13 O14 2.294 . S
In13 O15 2.326 . S
In13 O19 2.266 . S
In13 O20 2.326 . S
In13 O21 2.266 . S
In13 O22 2.326 . S
In13 O24 2.294 . S
In13 O25 2.326 . S
O14 In13 2.294 . S
O14 C23 1.240 . S
O15 In13 2.326 . S
O15 C23 1.252 . S
C16 O19 1.252 . S
C16 O20 1.260 . S
C17 O24 1.240 . S
C17 O25 1.252 . S
C18 O21 1.252 . S
C18 O22 1.260 . S
O19 In13 2.266 . S
O19 C16 1.252 . S
O20 In13 2.326 . S
O20 C16 1.260 . S
O21 In13 2.266 . S
O21 C18 1.252 . S
O22 In13 2.326 . S
O22 C18 1.260 . S
C23 O14 1.240 . S
C23 O15 1.252 . S
O24 In13 2.294 . S
O24 C17 1.240 . S
O25 In13 2.326 . S
O25 C17 1.252 . S
In26 O27 2.294 . S
In26 O28 2.326 . S
In26 O32 2.266 . S
In26 O33 2.326 . S
In26 O34 2.266 . S
In26 O35 2.326 . S
In26 O37 2.294 . S
In26 O38 2.326 . S
O27 In26 2.294 . S
O27 C36 1.240 . S
O28 In26 2.326 . S
O28 C36 1.252 . S
C29 O32 1.252 . S
C29 O33 1.260 . S
C30 O37 1.240 . S
C30 O38 1.252 . S
C31 O34 1.252 . S
C31 O35 1.260 . S
O32 In26 2.266 . S
O32 C29 1.252 . S
O33 In26 2.326 . S
O33 C29 1.260 . S
O34 In26 2.266 . S
O34 C31 1.252 . S
O35 In26 2.326 . S
O35 C31 1.260 . S
C36 O27 1.240 . S
C36 O28 1.252 . S
O37 In26 2.294 . S
O37 C30 1.240 . S
O38 In26 2.326 . S
O38 C30 1.252 . S
In39 O40 2.294 . S
In39 O41 2.326 . S
In39 O45 2.266 . S
In39 O46 2.326 . S
In39 O47 2.266 . S
In39 O48 2.326 . S
In39 O50 2.294 . S
In39 O51 2.326 . S
O40 In39 2.294 . S
O40 C49 1.240 . S
O41 In39 2.326 . S
O41 C49 1.252 . S
C42 O45 1.252 . S
C42 O46 1.260 . S
C43 O50 1.240 . S
C43 O51 1.252 . S
C44 O47 1.252 . S
C44 O48 1.260 . S
O45 In39 2.266 . S
O45 C42 1.252 . S
O46 In39 2.326 . S
O46 C42 1.260 . S
O47 In39 2.266 . S
O47 C44 1.252 . S
O48 In39 2.326 . S
O48 C44 1.260 . S
C49 O40 1.240 . S
C49 O41 1.252 . S
O50 In39 2.294 . S
O50 C43 1.240 . S
O51 In39 2.326 . S
O51 C43 1.252 . S
In52 O53 2.294 . S
In52 O54 2.326 . S
In52 O58 2.266 . S
In52 O59 2.326 . S
In52 O60 2.266 . S
In52 O61 2.326 . S
In52 O63 2.294 . S
In52 O64 2.326 . S
O53 In52 2.294 . S
O53 C62 1.240 . S
O54 In52 2.326 . S
O54 C62 1.252 . S
C55 O58 1.252 . S
C55 O59 1.260 . S
C56 O63 1.240 . S
C56 O64 1.252 . S
C57 O60 1.252 . S
C57 O61 1.260 . S
O58 In52 2.266 . S
O58 C55 1.252 . S
O59 In52 2.326 . S
O59 C55 1.260 . S
O60 In52 2.266 . S
O60 C57 1.252 . S
O61 In52 2.326 . S
O61 C57 1.260 . S
C62 O53 1.240 . S
C62 O54 1.252 . S
O63 In52 2.294 . S
O63 C56 1.240 . S
O64 In52 2.326 . S
O64 C56 1.252 . S
In65 O66 2.294 . S
In65 O67 2.326 . S
In65 O71 2.266 . S
In65 O72 2.326 . S
In65 O73 2.266 . S
In65 O74 2.326 . S
In65 O76 2.294 . S
In65 O77 2.326 . S
O66 In65 2.294 . S
O66 C75 1.240 . S
O67 In65 2.326 . S
O67 C75 1.252 . S
C68 O71 1.252 . S
C68 O72 1.260 . S
C69 O76 1.240 . S
C69 O77 1.252 . S
C70 O73 1.252 . S
C70 O74 1.260 . S
O71 In65 2.266 . S
O71 C68 1.252 . S
O72 In65 2.326 . S
O72 C68 1.260 . S
O73 In65 2.266 . S
O73 C70 1.252 . S
O74 In65 2.326 . S
O74 C70 1.260 . S
C75 O66 1.240 . S
C75 O67 1.252 . S
O76 In65 2.294 . S
O76 C69 1.240 . S
O77 In65 2.326 . S
O77 C69 1.252 . S
In78 O79 2.294 . S
In78 O80 2.326 . S
In78 O84 2.266 . S
In78 O85 2.326 . S
In78 O86 2.266 . S
In78 O87 2.326 . S
In78 O89 2.294 . S
In78 O90 2.326 . S
O79 In78 2.294 . S
O79 C88 1.240 . S
O80 In78 2.326 . S
O80 C88 1.252 . S
C81 O84 1.252 . S
C81 O85 1.260 . S
C82 O89 1.240 . S
C82 O90 1.252 . S
C83 O86 1.252 . S
C83 O87 1.260 . S
O84 In78 2.266 . S
O84 C81 1.252 . S
O85 In78 2.326 . S
O85 C81 1.260 . S
O86 In78 2.266 . S
O86 C83 1.252 . S
O87 In78 2.326 . S
O87 C83 1.260 . S
C88 O79 1.240 . S
C88 O80 1.252 . S
O89 In78 2.294 . S
O89 C82 1.240 . S
O90 In78 2.326 . S
O90 C82 1.252 . S
In91 O92 2.294 . S
In91 O93 2.326 . S
In91 O97 2.266 . S
In91 O98 2.326 . S
In91 O99 2.266 . S
In91 O100 2.326 . S
In91 O102 2.294 . S
In91 O103 2.326 . S
O92 In91 2.294 . S
O92 C101 1.240 . S
O93 In91 2.326 . S
O93 C101 1.252 . S
C94 O97 1.252 . S
C94 O98 1.260 . S
C95 O102 1.240 . S
C95 O103 1.252 . S
C96 O99 1.252 . S
C96 O100 1.260 . S
O97 In91 2.266 . S
O97 C94 1.252 . S
O98 In91 2.326 . S
O98 C94 1.260 . S
O99 In91 2.266 . S
O99 C96 1.252 . S
O100 In91 2.326 . S
O100 C96 1.260 . S
C101 O92 1.240 . S
C101 O93 1.252 . S
O102 In91 2.294 . S
O102 C95 1.240 . S
O103 In91 2.326 . S
O103 C95 1.252 . S
H104 C105 0.951 . S
C105 H104 0.951 . S
C105 C111 1.265 . S
H106 C111 0.950 . S
H107 C115 0.949 . S
H108 C116 0.950 . S
H109 C117 0.951 . S
H110 C118 0.951 . S
C111 C105 1.265 . S
C111 H106 0.950 . S
C111 C112 1.478 . S
C112 C111 1.478 . S
C112 C113 1.397 . S
C112 C129 1.394 . S
C113 C112 1.397 . S
C113 C114 1.438 . S
C113 C118 1.429 . S
C114 C113 1.438 . S
C114 C115 1.428 . S
C114 C127 1.394 . S
C115 H107 0.949 . S
C115 C114 1.428 . S
C115 C116 1.345 . S
C116 H108 0.950 . S
C116 C115 1.345 . S
C116 C117 1.424 . S
C117 H109 0.951 . S
C117 C116 1.424 . S
C117 C118 1.347 . S
C118 H110 0.951 . S
C118 C113 1.429 . S
C118 C117 1.347 . S
H119 C120 0.951 . S
C120 H119 0.951 . S
C120 C126 1.265 . S
H121 C126 0.950 . S
H122 C130 0.949 . S
H123 C131 0.950 . S
H124 C132 0.951 . S
H125 C133 0.951 . S
C126 C120 1.265 . S
C126 H121 0.950 . S
C126 C127 1.478 . S
C127 C114 1.394 . S
C127 C126 1.478 . S
C127 C128 1.397 . S
C128 C127 1.397 . S
C128 C129 1.438 . S
C128 C133 1.429 . S
C129 C112 1.394 . S
C129 C128 1.438 . S
C129 C130 1.428 . S
C130 H122 0.949 . S
C130 C129 1.428 . S
C130 C131 1.345 . S
C131 H123 0.950 . S
C131 C130 1.345 . S
C131 C132 1.424 . S
C132 H124 0.951 . S
C132 C131 1.424 . S
C132 C133 1.347 . S
C133 H125 0.951 . S
C133 C128 1.429 . S
C133 C132 1.347 . S
H134 C135 0.951 . S
C135 H134 0.951 . S
C135 C141 1.265 . S
H136 C141 0.950 . S
H137 C145 0.949 . S
H138 C146 0.950 . S
H139 C147 0.951 . S
H140 C148 0.951 . S
C141 C135 1.265 . S
C141 H136 0.950 . S
C141 C142 1.478 . S
C142 C141 1.478 . S
C142 C143 1.397 . S
C142 C159 1.394 . S
C143 C142 1.397 . S
C143 C144 1.438 . S
C143 C148 1.429 . S
C144 C143 1.438 . S
C144 C145 1.428 . S
C144 C157 1.394 . S
C145 H137 0.949 . S
C145 C144 1.428 . S
C145 C146 1.345 . S
C146 H138 0.950 . S
C146 C145 1.345 . S
C146 C147 1.424 . S
C147 H139 0.951 . S
C147 C146 1.424 . S
C147 C148 1.347 . S
C148 H140 0.951 . S
C148 C143 1.429 . S
C148 C147 1.347 . S
H149 C150 0.951 . S
C150 H149 0.951 . S
C150 C156 1.265 . S
H151 C156 0.950 . S
H152 C160 0.949 . S
H153 C161 0.950 . S
H154 C162 0.951 . S
H155 C163 0.951 . S
C156 C150 1.265 . S
C156 H151 0.950 . S
C156 C157 1.478 . S
C157 C144 1.394 . S
C157 C156 1.478 . S
C157 C158 1.397 . S
C158 C157 1.397 . S
C158 C159 1.438 . S
C158 C163 1.429 . S
C159 C142 1.394 . S
C159 C158 1.438 . S
C159 C160 1.428 . S
C160 H152 0.949 . S
C160 C159 1.428 . S
C160 C161 1.345 . S
C161 H153 0.950 . S
C161 C160 1.345 . S
C161 C162 1.424 . S
C162 H154 0.951 . S
C162 C161 1.424 . S
C162 C163 1.347 . S
C163 H155 0.951 . S
C163 C158 1.429 . S
C163 C162 1.347 . S
H164 C165 0.951 . S
C165 H164 0.951 . S
C165 C171 1.265 . S
H166 C171 0.950 . S
H167 C175 0.949 . S
H168 C176 0.950 . S
H169 C177 0.951 . S
H170 C178 0.951 . S
C171 C165 1.265 . S
C171 H166 0.950 . S
C171 C172 1.478 . S
C172 C171 1.478 . S
C172 C173 1.397 1_545 S
C172 C189 1.394 1_554 S
C173 C172 1.397 1_565 S
C173 C174 1.438 . S
C173 C178 1.429 . S
C174 C173 1.438 . S
C174 C175 1.428 . S
C174 C187 1.394 1_554 S
C175 H167 0.949 . S
C175 C174 1.428 . S
C175 C176 1.345 . S
C176 H168 0.950 . S
C176 C175 1.345 . S
C176 C177 1.424 . S
C177 H169 0.951 . S
C177 C176 1.424 . S
C177 C178 1.347 . S
C178 H170 0.951 . S
C178 C173 1.429 . S
C178 C177 1.347 . S
H179 C180 0.951 . S
C180 H179 0.951 . S
C180 C186 1.265 . S
H181 C186 0.950 . S
H182 C190 0.949 1_554 S
H183 C191 0.950 . S
H184 C192 0.951 . S
H185 C193 0.951 . S
C186 C180 1.265 . S
C186 H181 0.950 . S
C186 C187 1.478 . S
C187 C174 1.394 1_556 S
C187 C186 1.478 . S
C187 C188 1.397 1_565 S
C188 C187 1.397 1_545 S
C188 C189 1.438 . S
C188 C193 1.429 . S
C189 C172 1.394 1_556 S
C189 C188 1.438 . S
C189 C190 1.428 . S
C190 H182 0.949 1_556 S
C190 C189 1.428 . S
C190 C191 1.345 . S
C191 H183 0.950 . S
C191 C190 1.345 . S
C191 C192 1.424 . S
C192 H184 0.951 . S
C192 C191 1.424 . S
C192 C193 1.347 . S
C193 H185 0.951 . S
C193 C188 1.429 . S
C193 C192 1.347 . S
H194 C195 0.951 . S
C195 H194 0.951 . S
C195 C201 1.265 . S
H196 C201 0.950 . S
H197 C205 0.949 . S
H198 C206 0.950 . S
H199 C207 0.951 . S
H200 C208 0.951 . S
C201 C195 1.265 . S
C201 H196 0.950 . S
C201 C202 1.478 . S
C202 C201 1.478 . S
C202 C203 1.397 1_655 S
C202 C219 1.394 . S
C203 C202 1.397 1_455 S
C203 C204 1.438 . S
C203 C208 1.429 . S
C204 C203 1.438 . S
C204 C205 1.428 . S
C204 C217 1.394 . S
C205 H197 0.949 . S
C205 C204 1.428 . S
C205 C206 1.345 . S
C206 H198 0.950 . S
C206 C205 1.345 . S
C206 C207 1.424 . S
C207 H199 0.951 . S
C207 C206 1.424 . S
C207 C208 1.347 . S
C208 H200 0.951 . S
C208 C203 1.429 . S
C208 C207 1.347 . S
H209 C210 0.951 . S
C210 H209 0.951 . S
C210 C216 1.265 . S
H211 C216 0.950 . S
H212 C220 0.949 . S
H213 C221 0.950 . S
H214 C222 0.951 . S
H215 C223 0.951 . S
C216 C210 1.265 . S
C216 H211 0.950 . S
C216 C217 1.478 . S
C217 C204 1.394 . S
C217 C216 1.478 . S
C217 C218 1.397 1_455 S
C218 C217 1.397 1_655 S
C218 C219 1.438 . S
C218 C223 1.429 . S
C219 C202 1.394 . S
C219 C218 1.438 . S
C219 C220 1.428 . S
C220 H212 0.949 . S
C220 C219 1.428 . S
C220 C221 1.345 . S
C221 H213 0.950 . S
C221 C220 1.345 . S
C221 C222 1.424 . S
C222 H214 0.951 . S
C222 C221 1.424 . S
C222 C223 1.347 . S
C223 H215 0.951 . S
C223 C218 1.429 . S
C223 C222 1.347 . S
H224 C225 0.951 . S
C225 H224 0.951 . S
C225 C231 1.265 . S
H226 C231 0.950 . S
H227 C235 0.949 . S
H228 C236 0.950 . S
H229 C237 0.951 . S
H230 C238 0.951 . S
C231 C225 1.265 . S
C231 H226 0.950 . S
C231 C232 1.478 . S
C232 C231 1.478 . S
C232 C233 1.397 . S
C232 C249 1.394 . S
C233 C232 1.397 . S
C233 C234 1.438 1_565 S
C233 C238 1.429 . S
C234 C233 1.438 1_545 S
C234 C235 1.428 . S
C234 C247 1.394 . S
C235 H227 0.949 . S
C235 C234 1.428 . S
C235 C236 1.345 . S
C236 H228 0.950 . S
C236 C235 1.345 . S
C236 C237 1.424 . S
C237 H229 0.951 . S
C237 C236 1.424 . S
C237 C238 1.347 1_545 S
C238 H230 0.951 . S
C238 C233 1.429 . S
C238 C237 1.347 1_565 S
H239 C240 0.951 . S
C240 H239 0.951 . S
C240 C246 1.265 . S
H241 C246 0.950 . S
H242 C250 0.949 . S
H243 C251 0.950 . S
H244 C252 0.951 . S
H245 C253 0.951 1_545 S
C246 C240 1.265 . S
C246 H241 0.950 . S
C246 C247 1.478 . S
C247 C234 1.394 . S
C247 C246 1.478 . S
C247 C248 1.397 1_545 S
C248 C247 1.397 1_565 S
C248 C249 1.438 . S
C248 C253 1.429 . S
C249 C232 1.394 . S
C249 C248 1.438 . S
C249 C250 1.428 . S
C250 H242 0.949 . S
C250 C249 1.428 . S
C250 C251 1.345 . S
C251 H243 0.950 . S
C251 C250 1.345 . S
C251 C252 1.424 . S
C252 H244 0.951 . S
C252 C251 1.424 . S
C252 C253 1.347 . S
C253 H245 0.951 1_565 S
C253 C248 1.429 . S
C253 C252 1.347 . S
H254 C255 0.951 . S
C255 H254 0.951 . S
C255 C261 1.265 . S
H256 C261 0.950 . S
H257 C265 0.949 1_455 S
H258 C266 0.950 . S
H259 C267 0.951 . S
H260 C268 0.951 . S
C261 C255 1.265 . S
C261 H256 0.950 . S
C261 C262 1.478 . S
C262 C261 1.478 . S
C262 C263 1.397 1_556 S
C262 C279 1.394 1_655 S
C263 C262 1.397 1_554 S
C263 C264 1.438 . S
C263 C268 1.429 . S
C264 C263 1.438 . S
C264 C265 1.428 . S
C264 C277 1.394 1_655 S
C265 H257 0.949 1_655 S
C265 C264 1.428 . S
C265 C266 1.345 . S
C266 H258 0.950 . S
C266 C265 1.345 . S
C266 C267 1.424 . S
C267 H259 0.951 . S
C267 C266 1.424 . S
C267 C268 1.347 . S
C268 H260 0.951 . S
C268 C263 1.429 . S
C268 C267 1.347 . S
H269 C270 0.951 . S
C270 H269 0.951 . S
C270 C276 1.265 . S
H271 C276 0.950 . S
H272 C280 0.949 1_655 S
H273 C281 0.950 . S
H274 C282 0.951 . S
H275 C283 0.951 . S
C276 C270 1.265 . S
C276 H271 0.950 . S
C276 C277 1.478 . S
C277 C264 1.394 1_455 S
C277 C276 1.478 . S
C277 C278 1.397 1_554 S
C278 C277 1.397 1_556 S
C278 C279 1.438 . S
C278 C283 1.429 . S
C279 C262 1.394 1_455 S
C279 C278 1.438 . S
C279 C280 1.428 . S
C280 H272 0.949 1_455 S
C280 C279 1.428 . S
C280 C281 1.345 . S
C281 H273 0.950 . S
C281 C280 1.345 . S
C281 C282 1.424 . S
C282 H274 0.951 . S
C282 C281 1.424 . S
C282 C283 1.347 . S
C283 H275 0.951 . S
C283 C278 1.429 . S
C283 C282 1.347 . S
H284 C285 0.951 . S
C285 H284 0.951 . S
C285 C291 1.265 . S
H286 C291 0.950 . S
H287 C295 0.949 . S
H288 C296 0.950 . S
H289 C297 0.951 . S
H290 C298 0.951 . S
C291 C285 1.265 . S
C291 H286 0.950 . S
C291 C292 1.478 . S
C292 C291 1.478 . S
C292 C293 1.397 . S
C292 C309 1.394 . S
C293 C292 1.397 . S
C293 C294 1.438 . S
C293 C298 1.429 . S
C294 C293 1.438 . S
C294 C295 1.428 . S
C294 C307 1.394 . S
C295 H287 0.949 . S
C295 C294 1.428 . S
C295 C296 1.345 . S
C296 H288 0.950 . S
C296 C295 1.345 . S
C296 C297 1.424 . S
C297 H289 0.951 . S
C297 C296 1.424 . S
C297 C298 1.347 . S
C298 H290 0.951 . S
C298 C293 1.429 . S
C298 C297 1.347 . S
H299 C300 0.951 . S
C300 H299 0.951 . S
C300 C306 1.265 . S
H301 C306 0.950 . S
H302 C310 0.949 . S
H303 C311 0.950 . S
H304 C312 0.951 . S
H305 C313 0.951 . S
C306 C300 1.265 . S
C306 H301 0.950 . S
C306 C307 1.478 . S
C307 C294 1.394 . S
C307 C306 1.478 . S
C307 C308 1.397 . S
C308 C307 1.397 . S
C308 C309 1.438 . S
C308 C313 1.429 . S
C309 C292 1.394 . S
C309 C308 1.438 . S
C309 C310 1.428 . S
C310 H302 0.949 . S
C310 C309 1.428 . S
C310 C311 1.345 . S
C311 H303 0.950 . S
C311 C310 1.345 . S
C311 C312 1.424 . S
C312 H304 0.951 . S
C312 C311 1.424 . S
C312 C313 1.347 . S
C313 H305 0.951 . S
C313 C308 1.429 . S
C313 C312 1.347 . S
H314 C315 0.951 . S
C315 H314 0.951 . S
C315 C321 1.265 . S
H316 C321 0.950 . S
H317 C325 0.949 . S
H318 C326 0.950 . S
H319 C327 0.951 . S
H320 C328 0.951 . S
C321 C315 1.265 . S
C321 H316 0.950 . S
C321 C322 1.478 . S
C322 C321 1.478 . S
C322 C323 1.397 . S
C322 C339 1.394 . S
C323 C322 1.397 . S
C323 C324 1.438 . S
C323 C328 1.429 . S
C324 C323 1.438 . S
C324 C325 1.428 . S
C324 C337 1.394 . S
C325 H317 0.949 . S
C325 C324 1.428 . S
C325 C326 1.345 . S
C326 H318 0.950 . S
C326 C325 1.345 . S
C326 C327 1.424 . S
C327 H319 0.951 . S
C327 C326 1.424 . S
C327 C328 1.347 . S
C328 H320 0.951 . S
C328 C323 1.429 . S
C328 C327 1.347 . S
H329 C330 0.951 . S
C330 H329 0.951 . S
C330 C336 1.265 . S
H331 C336 0.950 . S
H332 C340 0.949 . S
H333 C341 0.950 . S
H334 C342 0.951 . S
H335 C343 0.951 . S
C336 C330 1.265 . S
C336 H331 0.950 . S
C336 C337 1.478 . S
C337 C324 1.394 . S
C337 C336 1.478 . S
C337 C338 1.397 . S
C338 C337 1.397 . S
C338 C339 1.438 . S
C338 C343 1.429 . S
C339 C322 1.394 . S
C339 C338 1.438 . S
C339 C340 1.428 . S
C340 H332 0.949 . S
C340 C339 1.428 . S
C340 C341 1.345 . S
C341 H333 0.950 . S
C341 C340 1.345 . S
C341 C342 1.424 . S
C342 H334 0.951 . S
C342 C341 1.424 . S
C342 C343 1.347 . S
C343 H335 0.951 . S
C343 C338 1.429 . S
C343 C342 1.347 . S
H344 C345 0.951 . S
C345 H344 0.951 . S
C345 C351 1.265 . S
H346 C351 0.950 . S
H347 C355 0.949 . S
H348 C356 0.950 . S
H349 C357 0.951 . S
H350 C358 0.951 . S
C351 C345 1.265 . S
C351 H346 0.950 . S
C351 C352 1.478 . S
C352 C351 1.478 . S
C352 C353 1.397 . S
C352 C369 1.394 . S
C353 C352 1.397 . S
C353 C354 1.438 . S
C353 C358 1.429 . S
C354 C353 1.438 . S
C354 C355 1.428 . S
C354 C367 1.394 . S
C355 H347 0.949 . S
C355 C354 1.428 . S
C355 C356 1.345 . S
C356 H348 0.950 . S
C356 C355 1.345 . S
C356 C357 1.424 . S
C357 H349 0.951 . S
C357 C356 1.424 . S
C357 C358 1.347 . S
C358 H350 0.951 . S
C358 C353 1.429 . S
C358 C357 1.347 . S
H359 C360 0.951 . S
C360 H359 0.951 . S
C360 C366 1.265 . S
H361 C366 0.950 . S
H362 C370 0.949 . S
H363 C371 0.950 . S
H364 C372 0.951 . S
H365 C373 0.951 . S
C366 C360 1.265 . S
C366 H361 0.950 . S
C366 C367 1.478 . S
C367 C354 1.394 . S
C367 C366 1.478 . S
C367 C368 1.397 . S
C368 C367 1.397 . S
C368 C369 1.438 . S
C368 C373 1.429 . S
C369 C352 1.394 . S
C369 C368 1.438 . S
C369 C370 1.428 . S
C370 H362 0.949 . S
C370 C369 1.428 . S
C370 C371 1.345 . S
C371 H363 0.950 . S
C371 C370 1.345 . S
C371 C372 1.424 . S
C372 H364 0.951 . S
C372 C371 1.424 . S
C372 C373 1.347 . S
C373 H365 0.951 . S
C373 C368 1.429 . S
C373 C372 1.347 . S
H374 C375 0.951 . S
C375 H374 0.951 . S
C375 C381 1.265 . S
H376 C381 0.950 . S
H377 C385 0.949 . S
H378 C386 0.950 . S
H379 C387 0.951 . S
H380 C388 0.971 . S
C381 C375 1.265 . S
C381 H376 0.950 . S
C381 C382 1.478 . S
C382 C381 1.478 . S
C382 C383 1.397 1_556 S
C382 C399 1.394 . S
C383 C382 1.397 1_554 S
C383 C384 1.438 . S
C383 C388 1.427 1_554 S
C384 C383 1.438 . S
C384 C385 1.428 . S
C384 C397 1.394 . S
C385 H377 0.949 . S
C385 C384 1.428 . S
C385 C386 1.345 . S
C386 H378 0.950 . S
C386 C385 1.345 . S
C386 C387 1.424 . S
C387 H379 0.951 . S
C387 C386 1.424 . S
C387 C388 1.330 1_554 S
C388 H380 0.971 . S
C388 C383 1.427 1_556 S
C388 C387 1.330 1_556 S
H389 C390 0.951 . S
C390 H389 0.951 . S
C390 C396 1.265 . S
H391 C396 0.950 . S
H392 C400 0.949 . S
H393 C401 0.950 . S
H394 C402 0.951 . S
H395 C403 0.951 . S
C396 C390 1.265 . S
C396 H391 0.950 . S
C396 C397 1.478 . S
C397 C384 1.394 . S
C397 C396 1.478 . S
C397 C398 1.397 . S
C398 C397 1.397 . S
C398 C399 1.438 1_554 S
C398 C403 1.429 . S
C399 C382 1.394 . S
C399 C398 1.438 1_556 S
C399 C400 1.428 . S
C400 H392 0.949 . S
C400 C399 1.428 . S
C400 C401 1.345 . S
C401 H393 0.950 . S
C401 C400 1.345 . S
C401 C402 1.424 . S
C402 H394 0.951 . S
C402 C401 1.424 . S
C402 C403 1.347 1_556 S
C403 H395 0.951 . S
C403 C398 1.429 . S
C403 C402 1.347 1_554 S
H404 C405 0.951 . S
C405 H404 0.951 . S
C405 C411 1.265 . S
H406 C411 0.950 . S
H407 C415 0.949 . S
H408 C416 0.950 . S
H409 C417 0.951 . S
H410 C418 0.951 . S
C411 C405 1.265 . S
C411 H406 0.950 . S
C411 C412 1.478 . S
C412 C411 1.478 . S
C412 C413 1.397 . S
C412 C429 1.394 . S
C413 C412 1.397 . S
C413 C414 1.438 1_565 S
C413 C418 1.429 . S
C414 C413 1.438 1_545 S
C414 C415 1.428 . S
C414 C427 1.394 . S
C415 H407 0.949 . S
C415 C414 1.428 . S
C415 C416 1.345 . S
C416 H408 0.950 . S
C416 C415 1.345 . S
C416 C417 1.424 . S
C417 H409 0.951 . S
C417 C416 1.424 . S
C417 C418 1.347 1_545 S
C418 H410 0.951 . S
C418 C413 1.429 . S
C418 C417 1.347 1_565 S
H419 C420 0.951 . S
C420 H419 0.951 . S
C420 C426 1.265 . S
H421 C426 0.950 . S
H422 C430 0.949 . S
H423 C431 0.950 . S
H424 C432 0.951 . S
H425 C433 0.951 1_545 S
C426 C420 1.265 . S
C426 H421 0.950 . S
C426 C427 1.478 . S
C427 C414 1.394 . S
C427 C426 1.478 . S
C427 C428 1.397 1_545 S
C428 C427 1.397 1_565 S
C428 C429 1.438 . S
C428 C433 1.429 . S
C429 C412 1.394 . S
C429 C428 1.438 . S
C429 C430 1.428 . S
C430 H422 0.949 . S
C430 C429 1.428 . S
C430 C431 1.345 . S
C431 H423 0.950 . S
C431 C430 1.345 . S
C431 C432 1.424 . S
C432 H424 0.951 . S
C432 C431 1.424 . S
C432 C433 1.347 . S
C433 H425 0.951 1_565 S
C433 C428 1.429 . S
C433 C432 1.347 . S
H434 C435 0.951 . S
C435 H434 0.951 . S
C435 C441 1.265 . S
H436 C441 0.950 1_455 S
H437 C445 0.949 . S
H438 C446 0.950 . S
H439 C447 0.951 . S
H440 C448 0.950 1_565 S
C441 C435 1.265 . S
C441 H436 0.950 1_655 S
C441 C442 1.478 . S
C442 C441 1.478 . S
C442 C443 1.397 1_665 S
C442 C459 1.394 . S
C443 C442 1.397 1_445 S
C443 C444 1.438 . S
C443 C448 1.429 . S
C444 C443 1.438 . S
C444 C445 1.428 . S
C444 C457 1.394 . S
C445 H437 0.949 . S
C445 C444 1.428 . S
C445 C446 1.345 . S
C446 H438 0.950 . S
C446 C445 1.345 . S
C446 C447 1.424 . S
C447 H439 0.951 . S
C447 C446 1.424 . S
C447 C448 1.347 . S
C448 H440 0.950 1_545 S
C448 C443 1.429 . S
C448 C447 1.347 . S
H449 C450 0.951 . S
C450 H449 0.951 . S
C450 C456 1.265 . S
H451 C456 0.950 1_655 S
H452 C460 0.949 . S
H453 C461 0.950 . S
H454 C462 0.951 . S
H455 C463 0.951 . S
C456 C450 1.265 . S
C456 H451 0.950 1_455 S
C456 C457 1.478 . S
C457 C444 1.394 . S
C457 C456 1.478 . S
C457 C458 1.397 1_445 S
C458 C457 1.397 1_665 S
C458 C459 1.438 . S
C458 C463 1.429 . S
C459 C442 1.394 . S
C459 C458 1.438 . S
C459 C460 1.428 . S
C460 H452 0.949 . S
C460 C459 1.428 . S
C460 C461 1.345 . S
C461 H453 0.950 . S
C461 C460 1.345 . S
C461 C462 1.424 . S
C462 H454 0.951 . S
C462 C461 1.424 . S
C462 C463 1.347 . S
C463 H455 0.951 . S
C463 C458 1.429 . S
C463 C462 1.347 . S
H464 C465 0.951 . S
C465 H464 0.951 . S
C465 C471 1.265 . S
H466 C471 0.950 . S
H467 C475 0.949 . S
H468 C476 0.950 . S
H469 C477 0.951 . S
H470 C478 0.951 . S
C471 C465 1.265 . S
C471 H466 0.950 . S
C471 C472 1.478 . S
C472 C471 1.478 . S
C472 C473 1.397 . S
C472 C489 1.394 1_655 S
C473 C472 1.397 . S
C473 C474 1.438 . S
C473 C478 1.429 . S
C474 C473 1.438 . S
C474 C475 1.428 . S
C474 C487 1.394 1_655 S
C475 H467 0.949 . S
C475 C474 1.428 . S
C475 C476 1.345 . S
C476 H468 0.950 . S
C476 C475 1.345 . S
C476 C477 1.424 . S
C477 H469 0.951 . S
C477 C476 1.424 . S
C477 C478 1.347 . S
C478 H470 0.951 . S
C478 C473 1.429 . S
C478 C477 1.347 . S
H479 C480 0.951 . S
C480 H479 0.951 . S
C480 C486 1.265 . S
H481 C486 0.950 . S
H482 C490 0.949 . S
H483 C491 0.950 . S
H484 C492 0.951 . S
H485 C493 0.951 . S
C486 C480 1.265 . S
C486 H481 0.950 . S
C486 C487 1.478 . S
C487 C474 1.394 1_455 S
C487 C486 1.478 . S
C487 C488 1.397 . S
C488 C487 1.397 . S
C488 C489 1.438 . S
C488 C493 1.429 . S
C489 C472 1.394 1_455 S
C489 C488 1.438 . S
C489 C490 1.428 . S
C490 H482 0.949 . S
C490 C489 1.428 . S
C490 C491 1.345 . S
C491 H483 0.950 . S
C491 C490 1.345 . S
C491 C492 1.424 . S
C492 H484 0.951 . S
C492 C491 1.424 . S
C492 C493 1.347 . S
C493 H485 0.951 . S
C493 C488 1.429 . S
C493 C492 1.347 . S
H494 C495 0.951 . S
C495 H494 0.951 . S
C495 C501 1.265 . S
H496 C501 0.950 . S
H497 C505 0.949 . S
H498 C506 0.950 . S
H499 C507 0.951 . S
H500 C508 0.951 . S
C501 C495 1.265 . S
C501 H496 0.950 . S
C501 C502 1.478 . S
C502 C501 1.478 . S
C502 C503 1.397 . S
C502 C519 1.394 . S
C503 C502 1.397 . S
C503 C504 1.438 . S
C503 C508 1.429 . S
C504 C503 1.438 . S
C504 C505 1.428 . S
C504 C517 1.394 . S
C505 H497 0.949 . S
C505 C504 1.428 . S
C505 C506 1.345 . S
C506 H498 0.950 . S
C506 C505 1.345 . S
C506 C507 1.424 . S
C507 H499 0.951 . S
C507 C506 1.424 . S
C507 C508 1.347 . S
C508 H500 0.951 . S
C508 C503 1.429 . S
C508 C507 1.347 . S
H509 C510 0.951 . S
C510 H509 0.951 . S
C510 C516 1.265 . S
H511 C516 0.950 . S
H512 C520 0.949 . S
H513 C521 0.950 . S
H514 C522 0.951 . S
H515 C523 0.951 . S
C516 C510 1.265 . S
C516 H511 0.950 . S
C516 C517 1.478 . S
C517 C504 1.394 . S
C517 C516 1.478 . S
C517 C518 1.397 . S
C518 C517 1.397 . S
C518 C519 1.438 . S
C518 C523 1.429 . S
C519 C502 1.394 . S
C519 C518 1.438 . S
C519 C520 1.428 . S
C520 H512 0.949 . S
C520 C519 1.428 . S
C520 C521 1.345 . S
C521 H513 0.950 . S
C521 C520 1.345 . S
C521 C522 1.424 . S
C522 H514 0.951 . S
C522 C521 1.424 . S
C522 C523 1.347 . S
C523 H515 0.951 . S
C523 C518 1.429 . S
C523 C522 1.347 . S
H524 C525 0.951 . S
C525 H524 0.951 . S
C525 C531 1.265 . S
H526 C531 0.950 . S
H527 C535 0.949 . S
H528 C536 0.950 . S
H529 C537 0.951 . S
H530 C538 0.951 . S
C531 C525 1.265 . S
C531 H526 0.950 . S
C531 C532 1.478 . S
C532 C531 1.478 . S
C532 C533 1.397 1_554 S
C532 C549 1.394 . S
C533 C532 1.397 1_556 S
C533 C534 1.438 . S
C533 C538 1.429 . S
C534 C533 1.438 . S
C534 C535 1.428 . S
C534 C547 1.394 . S
C535 H527 0.949 . S
C535 C534 1.428 . S
C535 C536 1.345 . S
C536 H528 0.950 . S
C536 C535 1.345 . S
C536 C537 1.424 . S
C537 H529 0.951 . S
C537 C536 1.424 . S
C537 C538 1.347 . S
C538 H530 0.951 . S
C538 C533 1.429 . S
C538 C537 1.347 . S
H539 C540 0.951 . S
C540 H539 0.951 . S
C540 C546 1.265 . S
H541 C546 0.950 . S
H542 C550 0.949 . S
H543 C551 0.950 . S
H544 C552 0.951 . S
H545 C553 0.951 . S
C546 C540 1.265 . S
C546 H541 0.950 . S
C546 C547 1.478 . S
C547 C534 1.394 . S
C547 C546 1.478 . S
C547 C548 1.397 1_556 S
C548 C547 1.397 1_554 S
C548 C549 1.438 . S
C548 C553 1.429 . S
C549 C532 1.394 . S
C549 C548 1.438 . S
C549 C550 1.428 . S
C550 H542 0.949 . S
C550 C549 1.428 . S
C550 C551 1.345 . S
C551 H543 0.950 . S
C551 C550 1.345 . S
C551 C552 1.424 . S
C552 H544 0.951 . S
C552 C551 1.424 . S
C552 C553 1.347 . S
C553 H545 0.951 . S
C553 C548 1.429 . S
C553 C552 1.347 . S
H554 C555 0.951 . S
C555 H554 0.951 . S
C555 C561 1.265 . S
H556 C561 0.950 . S
H557 C565 0.949 . S
H558 C566 0.950 . S
H559 C567 0.951 . S
H560 C568 0.951 . S
C561 C555 1.265 . S
C561 H556 0.950 . S
C561 C562 1.478 . S
C562 C561 1.478 . S
C562 C563 1.397 . S
C562 C579 1.394 . S
C563 C562 1.397 . S
C563 C564 1.438 . S
C563 C568 1.429 . S
C564 C563 1.438 . S
C564 C565 1.428 . S
C564 C577 1.394 . S
C565 H557 0.949 . S
C565 C564 1.428 . S
C565 C566 1.345 . S
C566 H558 0.950 . S
C566 C565 1.345 . S
C566 C567 1.424 . S
C567 H559 0.951 . S
C567 C566 1.424 . S
C567 C568 1.347 . S
C568 H560 0.951 . S
C568 C563 1.429 . S
C568 C567 1.347 . S
H569 C570 0.951 . S
C570 H569 0.951 . S
C570 C576 1.265 . S
H571 C576 0.950 . S
H572 C580 0.949 . S
H573 C581 0.950 . S
H574 C582 0.951 . S
H575 C583 0.951 . S
C576 C570 1.265 . S
C576 H571 0.950 . S
C576 C577 1.478 . S
C577 C564 1.394 . S
C577 C576 1.478 . S
C577 C578 1.397 . S
C578 C577 1.397 . S
C578 C579 1.438 . S
C578 C583 1.429 . S
C579 C562 1.394 . S
C579 C578 1.438 . S
C579 C580 1.428 . S
C580 H572 0.949 . S
C580 C579 1.428 . S
C580 C581 1.345 . S
C581 H573 0.950 . S
C581 C580 1.345 . S
C581 C582 1.424 . S
C582 H574 0.951 . S
C582 C581 1.424 . S
C582 C583 1.347 . S
C583 H575 0.951 . S
C583 C578 1.429 . S
C583 C582 1.347 . S
C105 C70 1.503 . S
C120 C10 1.501 . S
C135 C96 1.496 . S
C150 C17 1.508 . S
C165 C29 1.502 . S
C180 C81 1.512 . S
C195 C43 1.500 . S
C210 C56 1.506 . S
C225 C82 1.501 . S
C240 C3 1.503 . S
C255 C16 1.509 . S
C270 C57 1.507 . S
C285 C75 1.505 . S
C300 C36 1.506 . S
C315 C42 1.496 . S
C330 C95 1.507 . S
C345 C55 1.501 . S
C360 C69 1.502 . S
C375 C18 1.511 . S
C390 C30 1.502 . S
C405 C49 1.502 . S
C420 C31 1.501 . S
C435 C44 1.502 . S
C450 C5 1.499 . S
C465 C23 1.507 . S
C480 C4 1.501 . S
C495 C101 1.503 . S
C510 C88 1.507 . S
C525 C62 1.508 . S
C540 C83 1.497 . S
C555 C68 1.512 . S
C570 C94 1.498 . S
