# Generated by pormake.
# Topology son, (6)-cn, num edge types: 1
# Building blocks:
#     Node 0, Type 0, BuildingBlock: CIFDUS_clean_sbu_1, # of connection points: 6
#     Node 1, Type 0, BuildingBlock: CIFDUS_clean_sbu_1, # of connection points: 6
#     Node 2, Type 0, BuildingBlock: CIFDUS_clean_sbu_1, # of connection points: 6
#     Node 3, Type 0, BuildingBlock: CIFDUS_clean_sbu_1, # of connection points: 6
#     Node 4, Type 0, BuildingBlock: CIFDUS_clean_sbu_1, # of connection points: 6
#     Node 5, Type 0, BuildingBlock: CIFDUS_clean_sbu_1, # of connection points: 6
#     Node 6, Type 0, BuildingBlock: CIFDUS_clean_sbu_1, # of connection points: 6
#     Node 7, Type 0, BuildingBlock: CIFDUS_clean_sbu_1, # of connection points: 6
#     Node 8, Type 0, BuildingBlock: CIFDUS_clean_sbu_1, # of connection points: 6
#     Node 9, Type 0, BuildingBlock: CIFDUS_clean_sbu_1, # of connection points: 6
#     Node 10, Type 0, BuildingBlock: CIFDUS_clean_sbu_1, # of connection points: 6
#     Node 11, Type 0, BuildingBlock: CIFDUS_clean_sbu_1, # of connection points: 6
#     Node 12, Type 0, BuildingBlock: CIFDUS_clean_sbu_1, # of connection points: 6
#     Node 13, Type 0, BuildingBlock: CIFDUS_clean_sbu_1, # of connection points: 6
#     Node 14, Type 0, BuildingBlock: CIFDUS_clean_sbu_1, # of connection points: 6
#     Node 15, Type 0, BuildingBlock: CIFDUS_clean_sbu_1, # of connection points: 6
#     Node 16, Type 0, BuildingBlock: CIFDUS_clean_sbu_1, # of connection points: 6
#     Node 17, Type 0, BuildingBlock: CIFDUS_clean_sbu_1, # of connection points: 6
#     Node 18, Type 0, BuildingBlock: CIFDUS_clean_sbu_1, # of connection points: 6
#     Node 19, Type 0, BuildingBlock: CIFDUS_clean_sbu_1, # of connection points: 6
#     Node 20, Type 0, BuildingBlock: CIFDUS_clean_sbu_1, # of connection points: 6
#     Node 21, Type 0, BuildingBlock: CIFDUS_clean_sbu_1, # of connection points: 6
#     Node 22, Type 0, BuildingBlock: CIFDUS_clean_sbu_1, # of connection points: 6
#     Node 23, Type 0, BuildingBlock: CIFDUS_clean_sbu_1, # of connection points: 6
#     Node 24, Type 0, BuildingBlock: CIFDUS_clean_sbu_1, # of connection points: 6
#     Node 25, Type 0, BuildingBlock: CIFDUS_clean_sbu_1, # of connection points: 6
#     Node 26, Type 0, BuildingBlock: CIFDUS_clean_sbu_1, # of connection points: 6
#     Node 27, Type 0, BuildingBlock: CIFDUS_clean_sbu_1, # of connection points: 6
#     Node 28, Type 0, BuildingBlock: CIFDUS_clean_sbu_1, # of connection points: 6
#     Node 29, Type 0, BuildingBlock: CIFDUS_clean_sbu_1, # of connection points: 6
#     Node 30, Type 0, BuildingBlock: CIFDUS_clean_sbu_1, # of connection points: 6
#     Node 31, Type 0, BuildingBlock: CIFDUS_clean_sbu_1, # of connection points: 6
#     Edge 32, Type (0, 0), None
#     Edge 33, Type (0, 0), None
#     Edge 34, Type (0, 0), None
#     Edge 35, Type (0, 0), None
#     Edge 36, Type (0, 0), None
#     Edge 37, Type (0, 0), None
#     Edge 38, Type (0, 0), None
#     Edge 39, Type (0, 0), None
#     Edge 40, Type (0, 0), None
#     Edge 41, Type (0, 0), None
#     Edge 42, Type (0, 0), None
#     Edge 43, Type (0, 0), None
#     Edge 44, Type (0, 0), None
#     Edge 45, Type (0, 0), None
#     Edge 46, Type (0, 0), None
#     Edge 47, Type (0, 0), None
#     Edge 48, Type (0, 0), None
#     Edge 49, Type (0, 0), None
#     Edge 50, Type (0, 0), None
#     Edge 51, Type (0, 0), None
#     Edge 52, Type (0, 0), None
#     Edge 53, Type (0, 0), None
#     Edge 54, Type (0, 0), None
#     Edge 55, Type (0, 0), None
#     Edge 56, Type (0, 0), None
#     Edge 57, Type (0, 0), None
#     Edge 58, Type (0, 0), None
#     Edge 59, Type (0, 0), None
#     Edge 60, Type (0, 0), None
#     Edge 61, Type (0, 0), None
#     Edge 62, Type (0, 0), None
#     Edge 63, Type (0, 0), None
#     Edge 64, Type (0, 0), None
#     Edge 65, Type (0, 0), None
#     Edge 66, Type (0, 0), None
#     Edge 67, Type (0, 0), None
#     Edge 68, Type (0, 0), None
#     Edge 69, Type (0, 0), None
#     Edge 70, Type (0, 0), None
#     Edge 71, Type (0, 0), None
#     Edge 72, Type (0, 0), None
#     Edge 73, Type (0, 0), None
#     Edge 74, Type (0, 0), None
#     Edge 75, Type (0, 0), None
#     Edge 76, Type (0, 0), None
#     Edge 77, Type (0, 0), None
#     Edge 78, Type (0, 0), None
#     Edge 79, Type (0, 0), None
#     Edge 80, Type (0, 0), None
#     Edge 81, Type (0, 0), None
#     Edge 82, Type (0, 0), None
#     Edge 83, Type (0, 0), None
#     Edge 84, Type (0, 0), None
#     Edge 85, Type (0, 0), None
#     Edge 86, Type (0, 0), None
#     Edge 87, Type (0, 0), None
#     Edge 88, Type (0, 0), None
#     Edge 89, Type (0, 0), None
#     Edge 90, Type (0, 0), None
#     Edge 91, Type (0, 0), None
#     Edge 92, Type (0, 0), None
#     Edge 93, Type (0, 0), None
#     Edge 94, Type (0, 0), None
#     Edge 95, Type (0, 0), None
#     Edge 96, Type (0, 0), None
#     Edge 97, Type (0, 0), None
#     Edge 98, Type (0, 0), None
#     Edge 99, Type (0, 0), None
#     Edge 100, Type (0, 0), None
#     Edge 101, Type (0, 0), None
#     Edge 102, Type (0, 0), None
#     Edge 103, Type (0, 0), None
#     Edge 104, Type (0, 0), None
#     Edge 105, Type (0, 0), None
#     Edge 106, Type (0, 0), None
#     Edge 107, Type (0, 0), None
#     Edge 108, Type (0, 0), None
#     Edge 109, Type (0, 0), None
#     Edge 110, Type (0, 0), None
#     Edge 111, Type (0, 0), None
#     Edge 112, Type (0, 0), None
#     Edge 113, Type (0, 0), None
#     Edge 114, Type (0, 0), None
#     Edge 115, Type (0, 0), None
#     Edge 116, Type (0, 0), None
#     Edge 117, Type (0, 0), None
#     Edge 118, Type (0, 0), None
#     Edge 119, Type (0, 0), None
#     Edge 120, Type (0, 0), None
#     Edge 121, Type (0, 0), None
#     Edge 122, Type (0, 0), None
#     Edge 123, Type (0, 0), None
#     Edge 124, Type (0, 0), None
#     Edge 125, Type (0, 0), None
#     Edge 126, Type (0, 0), None
#     Edge 127, Type (0, 0), None
# Relax obj value: 0.054
# Max RMSD: 0.098
# Mean RMSD: 0.098
data_MOF--net-son--node1-CIFDUS_clean_sbu_1--edge1-none
_symmetry_space_group_name_H-M    P1
_symmetry_Int_Tables_number       1
_symmetry_cell_setting            triclinic
loop_
_symmetry_equiv_pos_as_xyz
'x, y, z'
_cell_length_a     55.225781
_cell_length_b     27.371315
_cell_length_c     7.4566472
_cell_angle_alpha  89.999461
_cell_angle_beta   90.000936
_cell_angle_gamma 90.003251
loop_
_atom_site_label
_atom_site_type_symbol
_atom_site_fract_x
_atom_site_fract_y
_atom_site_fract_z
_atom_type_partial_charge
O0 O 0.28905 0.25619 0.16086 0.0
Mn1 Mn 0.32647 0.26252 0.22041 0.0
O2 O 0.28079 0.31585 0.9608 0.0
Mn3 Mn 0.30905 0.35201 -0.01094 0.0
O4 O 0.36457 0.26433 0.26438 0.0
O5 O 0.32763 0.18941 0.25173 0.0
Mn6 Mn 0.34019 0.1738 0.46085 0.0
O7 O 0.32428 0.27746 0.49275 0.0
O8 O 0.37082 0.20065 0.45415 0.0
O9 O 0.32942 0.24982 0.94965 0.0
O10 O 0.32988 0.32355 0.82236 0.0
O11 O 0.3345 0.11602 0.33453 0.0
O12 O 0.32243 0.20623 0.63259 0.0
C13 C 0.31872 0.37802 0.26406 0.0
C14 C 0.27665 0.2738 0.02704 0.0
C15 C 0.37825 0.23843 0.37001 0.0
C16 C 0.32773 0.14379 0.20538 0.0
C17 C 0.32454 0.25241 0.63653 0.0
C18 C 0.32899 0.27691 0.81066 0.0
O19 O 0.32395 0.33594 0.19278 0.0
O20 O 0.30785 0.40521 0.14965 0.0
O21 O 0.99381 0.01302 0.16084 0.0
Mn22 Mn 0.95639 1.00668 0.22041 0.0
O23 O 1.00208 0.95335 0.96085 0.0
Mn24 Mn 0.97382 0.91718 -0.01092 0.0
O25 O 0.91829 1.00487 0.26438 0.0
O26 O 0.95523 0.07979 0.25173 0.0
Mn27 Mn 0.94267 0.0954 0.46087 0.0
O28 O 0.95859 0.99175 0.49275 0.0
O29 O 0.91204 0.06853 0.45424 0.0
O30 O 0.95345 0.01939 0.94964 0.0
O31 O 0.953 0.94565 0.82236 0.0
O32 O 0.94836 0.15317 0.33452 0.0
O33 O 0.96045 0.06298 0.63259 0.0
C34 C 0.96414 0.89118 0.26406 0.0
C35 C 1.00622 0.99541 0.02705 0.0
C36 C 0.90462 0.03076 0.37007 0.0
C37 C 0.95512 0.1254 0.20536 0.0
C38 C 0.95834 0.01679 0.63653 0.0
C39 C 0.95388 0.99229 0.81065 0.0
O40 O 0.95892 0.93326 0.19276 0.0
O41 O 0.97501 0.86398 0.14969 0.0
O42 O 0.28903 0.01298 0.06306 0.0
Mn43 Mn 0.32645 1.00664 0.00352 0.0
O44 O 0.28075 0.95333 0.26311 0.0
Mn45 Mn 0.30901 0.91715 0.23485 0.0
O46 O 0.36455 1.00484 0.95954 0.0
O47 O 0.32762 0.07975 0.97221 0.0
Mn48 Mn 0.34016 0.09537 0.76305 0.0
O49 O 0.32425 0.99171 0.73118 0.0
O50 O 0.37079 0.0685 0.76965 0.0
O51 O 0.32939 0.01935 0.27429 0.0
O52 O 0.32984 0.94561 0.40158 0.0
O53 O 0.33449 0.15314 0.88941 0.0
O54 O 0.32239 0.06294 0.59134 0.0
C55 C 0.31867 0.89116 0.95982 0.0
C56 C 0.27662 0.99538 0.19687 0.0
C57 C 0.37822 0.03073 0.85383 0.0
C58 C 0.32775 0.12536 0.01858 0.0
C59 C 0.3245 0.01675 0.5874 0.0
C60 C 0.32896 0.99225 0.41328 0.0
O61 O 0.32392 0.93322 0.03118 0.0
O62 O 0.30779 0.86397 0.07415 0.0
O63 O 0.99383 0.25621 0.06308 0.0
Mn64 Mn 0.95642 0.26256 0.00351 0.0
O65 O 1.00212 0.31589 0.26303 0.0
Mn66 Mn 0.97385 0.35205 0.23483 0.0
O67 O 0.91831 0.26438 0.95952 0.0
O68 O 0.95523 0.18945 0.97219 0.0
Mn69 Mn 0.94268 0.17384 0.76305 0.0
O70 O 0.95861 0.27748 0.73117 0.0
O71 O 0.91206 0.20072 0.76965 0.0
O72 O 0.95347 0.24985 0.27427 0.0
O73 O 0.95303 0.32358 0.40156 0.0
O74 O 0.94835 0.11605 0.8894 0.0
O75 O 0.96046 0.20625 0.59134 0.0
C76 C 0.96416 0.37805 0.95986 0.0
C77 C 1.00625 0.27383 0.19683 0.0
C78 C 0.90463 0.23849 0.85383 0.0
C79 C 0.9551 0.14384 0.01857 0.0
C80 C 0.95836 0.25244 0.58739 0.0
C81 C 0.95391 0.27694 0.41326 0.0
O82 O 0.95895 0.33597 0.03115 0.0
O83 O 0.97504 0.40525 0.07424 0.0
O84 O 0.74378 0.76305 0.81303 0.0
Mn85 Mn 0.70636 0.75672 0.75348 0.0
O86 O 0.75204 0.70339 0.0131 0.0
Mn87 Mn 0.72378 0.66723 0.98484 0.0
O88 O 0.66826 0.75491 0.70952 0.0
O89 O 0.7052 0.82984 0.72216 0.0
Mn90 Mn 0.69264 0.84545 0.51305 0.0
O91 O 0.70855 0.74179 0.48114 0.0
O92 O 0.66201 0.81859 0.51974 0.0
O93 O 0.70341 0.76943 0.02425 0.0
O94 O 0.70296 0.69569 0.15154 0.0
O95 O 0.69833 0.90322 0.63936 0.0
O96 O 0.71041 0.81302 0.34131 0.0
C97 C 0.71411 0.64122 0.70983 0.0
C98 C 0.75618 0.74544 0.94686 0.0
C99 C 0.65458 0.78082 0.60389 0.0
C100 C 0.7051 0.87545 0.76852 0.0
C101 C 0.7083 0.76683 0.33737 0.0
C102 C 0.70384 0.74233 0.16324 0.0
O103 O 0.70888 0.6833 0.78111 0.0
O104 O 0.72498 0.61403 0.82424 0.0
O105 O 0.03902 1.00622 0.81306 0.0
Mn106 Mn 0.07644 0.01256 0.75349 0.0
O107 O 0.03075 0.06589 0.01305 0.0
Mn108 Mn 0.05901 0.10206 0.98482 0.0
O109 O 0.11454 0.01438 0.70951 0.0
O110 O 0.0776 0.93945 0.72216 0.0
Mn111 Mn 0.09016 0.92384 0.51303 0.0
O112 O 0.07425 0.02749 0.48115 0.0
O113 O 0.12079 0.95071 0.51966 0.0
O114 O 0.07939 0.99985 0.02426 0.0
O115 O 0.07984 0.07359 0.15154 0.0
O116 O 0.08448 0.86607 0.63937 0.0
O117 O 0.07239 0.95626 0.34131 0.0
C118 C 0.0687 0.12806 0.70984 0.0
C119 C 0.02662 0.02383 0.94686 0.0
C120 C 0.12822 0.98848 0.60383 0.0
C121 C 0.07771 0.89384 0.76853 0.0
C122 C 0.07449 1.00245 0.33737 0.0
C123 C 0.07896 0.02695 0.16324 0.0
O124 O 0.07392 0.08598 0.78114 0.0
O125 O 0.05783 0.15526 0.82421 0.0
O126 O 0.7438 1.00626 0.91084 0.0
Mn127 Mn 0.70639 0.0126 0.97037 0.0
O128 O 0.75208 0.06592 0.71079 0.0
Mn129 Mn 0.72382 0.10209 0.73905 0.0
O130 O 0.66828 0.01441 0.01436 0.0
O131 O 0.70521 0.93949 0.00169 0.0
Mn132 Mn 0.69267 0.92388 0.21084 0.0
O133 O 0.70858 0.02753 0.24271 0.0
O134 O 0.66204 0.95074 0.20425 0.0
O135 O 0.70344 0.99989 0.69961 0.0
O136 O 0.703 0.07363 0.57232 0.0
O137 O 0.69834 0.8661 0.08449 0.0
O138 O 0.71044 0.9563 0.38256 0.0
C139 C 0.71416 0.12808 0.01408 0.0
C140 C 0.75621 0.02386 0.77703 0.0
C141 C 0.65461 0.98851 0.12006 0.0
C142 C 0.70509 0.89388 0.95531 0.0
C143 C 0.70833 1.00249 0.38649 0.0
C144 C 0.70387 0.02699 0.56062 0.0
O145 O 0.70891 0.08602 0.94272 0.0
O146 O 0.72504 0.15527 0.89974 0.0
O147 O 0.039 0.76304 0.91082 0.0
Mn148 Mn 0.07642 0.75669 0.97039 0.0
O149 O 0.03072 0.70335 0.71087 0.0
Mn150 Mn 0.05898 0.66719 0.73906 0.0
O151 O 0.11452 0.75486 0.01437 0.0
O152 O 0.0776 0.8298 0.0017 0.0
Mn153 Mn 0.09015 0.84541 0.21084 0.0
O154 O 0.07422 0.74176 0.24273 0.0
O155 O 0.12078 0.81852 0.20424 0.0
O156 O 0.07937 0.7694 0.69962 0.0
O157 O 0.0798 0.69566 0.57233 0.0
O158 O 0.08448 0.90319 0.08449 0.0
O159 O 0.07237 0.81299 0.38256 0.0
C160 C 0.06867 0.64119 0.01403 0.0
C161 C 0.02659 0.74541 0.77707 0.0
C162 C 0.1282 0.78075 0.12006 0.0
C163 C 0.07773 0.8754 0.95533 0.0
C164 C 0.07447 0.7668 0.3865 0.0
C165 C 0.07893 0.7423 0.56063 0.0
O166 O 0.07388 0.68327 0.94275 0.0
O167 O 0.0578 0.61399 0.89966 0.0
O168 O 0.28901 0.75625 0.66081 0.0
Mn169 Mn 0.32643 0.76256 0.72032 0.0
O170 O 0.28075 0.81589 0.46067 0.0
Mn171 Mn 0.30901 0.85207 0.48898 0.0
O172 O 0.36453 0.76434 0.76429 0.0
O173 O 0.32757 0.68945 0.75165 0.0
Mn174 Mn 0.34012 0.67384 0.96081 0.0
O175 O 0.32424 0.7775 -0.00734 0.0
O176 O 0.37076 0.70068 0.95421 0.0
O177 O 0.32937 0.74985 0.44955 0.0
O178 O 0.32984 0.82359 0.32229 0.0
O179 O 0.33444 0.61607 0.83444 0.0
O180 O 0.32235 0.70627 0.13251 0.0
C181 C 0.31865 0.87801 0.76406 0.0
C182 C 0.27661 0.77385 0.52696 0.0
C183 C 0.37819 0.73844 0.87001 0.0
C184 C 0.32768 0.64384 0.70526 0.0
C185 C 0.32448 0.75246 0.13644 0.0
C186 C 0.32894 0.77695 0.31057 0.0
O187 O 0.32393 0.83598 0.69261 0.0
O188 O 0.30778 0.90523 0.64975 0.0
O189 O 0.99381 0.51301 0.66085 0.0
Mn190 Mn 0.95639 0.50668 0.72039 0.0
O191 O 1.00207 0.45336 0.46075 0.0
Mn192 Mn 0.97382 0.41718 0.48905 0.0
O193 O 0.91829 0.50488 0.76436 0.0
O194 O 0.95523 0.57979 0.75172 0.0
Mn195 Mn 0.94268 0.5954 0.96087 0.0
O196 O 0.95858 0.49174 -0.00726 0.0
O197 O 0.91205 0.56854 0.95427 0.0
O198 O 0.95344 0.51939 0.44963 0.0
O199 O 0.95299 0.44565 0.32236 0.0
O200 O 0.94836 0.65317 0.83451 0.0
O201 O 0.96045 0.56297 0.13258 0.0
C202 C 0.96419 0.39123 0.76412 0.0
C203 C 1.00622 0.49541 0.52702 0.0
C204 C 0.90462 0.53077 0.87007 0.0
C205 C 0.95512 0.6254 0.70534 0.0
C206 C 0.95834 0.51679 0.13652 0.0
C207 C 0.95387 0.49229 0.31064 0.0
O208 O 0.9589 0.43326 0.69271 0.0
O209 O 0.97505 0.36401 0.64978 0.0
O210 O 0.28903 0.513 0.56301 0.0
Mn211 Mn 0.32645 0.50668 0.50346 0.0
O212 O 0.28077 0.45334 0.76307 0.0
Mn213 Mn 0.30904 0.41718 0.73481 0.0
O214 O 0.36455 0.50489 0.45947 0.0
O215 O 0.32761 0.5798 0.47212 0.0
Mn216 Mn 0.34017 0.59542 0.26301 0.0
O217 O 0.32426 0.49175 0.23111 0.0
O218 O 0.3708 0.56858 0.2697 0.0
O219 O 0.3294 0.5194 0.77422 0.0
O220 O 0.32986 0.44566 0.90149 0.0
O221 O 0.33447 0.6532 0.38932 0.0
O222 O 0.3224 0.56298 0.09128 0.0
C223 C 0.31869 0.39121 0.4598 0.0
C224 C 0.27663 0.49539 0.69683 0.0
C225 C 0.37823 0.5308 0.35383 0.0
C226 C 0.32772 0.62541 0.51847 0.0
C227 C 0.32451 0.51679 0.08734 0.0
C228 C 0.32897 0.4923 0.9132 0.0
O229 O 0.32394 0.43326 0.53114 0.0
O230 O 0.30784 0.36398 0.57418 0.0
O231 O 0.99378 0.75623 0.5631 0.0
Mn232 Mn 0.95636 0.76256 0.50353 0.0
O233 O 1.00204 0.81588 0.76318 0.0
Mn234 Mn 0.97379 0.85206 0.73488 0.0
O235 O 0.91826 0.76436 0.45954 0.0
O236 O 0.95519 0.68945 0.47219 0.0
Mn237 Mn 0.94263 0.67382 0.26309 0.0
O238 O 0.95855 0.77749 0.23119 0.0
O239 O 0.912 0.70067 0.26978 0.0
O240 O 0.95341 0.74985 0.7743 0.0
O241 O 0.95296 0.82359 0.90157 0.0
O242 O 0.94833 0.61604 0.3894 0.0
O243 O 0.9604 0.70626 0.09135 0.0
C244 C 0.96416 0.87801 0.4598 0.0
C245 C 1.00618 0.77383 0.69692 0.0
C246 C 0.90458 0.73845 0.35391 0.0
C247 C 0.95508 0.64384 0.51855 0.0
C248 C 0.95829 0.75245 0.08742 0.0
C249 C 0.95384 0.77695 0.91328 0.0
O250 O 0.95887 0.83598 0.53121 0.0
O251 O 0.97502 0.90523 0.57415 0.0
O252 O 0.74383 0.26299 0.31309 0.0
Mn253 Mn 0.70641 0.25668 0.25358 0.0
O254 O 0.75208 0.20335 0.51323 0.0
Mn255 Mn 0.72382 0.16717 0.48492 0.0
O256 O 0.66831 0.2549 0.20961 0.0
O257 O 0.70526 0.32979 0.22224 0.0
Mn258 Mn 0.69271 0.34541 0.01309 0.0
O259 O 0.70859 0.24175 0.98124 0.0
O260 O 0.66208 0.31856 0.01969 0.0
O261 O 0.70346 0.26939 0.52434 0.0
O262 O 0.703 0.19565 0.65161 0.0
O263 O 0.6984 0.40317 0.13945 0.0
O264 O 0.71048 0.31297 0.84139 0.0
C265 C 0.71419 0.14124 0.20984 0.0
C266 C 0.75623 0.24539 0.44694 0.0
C267 C 0.65464 0.2808 0.10388 0.0
C268 C 0.70515 0.3754 0.26863 0.0
C269 C 0.70836 0.26679 0.83745 0.0
C270 C 0.70389 0.24229 0.66332 0.0
O271 O 0.70891 0.18326 0.28128 0.0
O272 O 0.72506 0.11401 0.32414 0.0
O273 O 0.03902 0.50623 0.31305 0.0
Mn274 Mn 0.07644 0.51256 0.25351 0.0
O275 O 0.03076 0.56588 0.51315 0.0
Mn276 Mn 0.05902 0.60206 0.48484 0.0
O277 O 0.11455 0.51436 0.20953 0.0
O278 O 0.0776 0.43945 0.22217 0.0
Mn279 Mn 0.09015 0.42385 0.01302 0.0
O280 O 0.07425 0.5275 0.98116 0.0
O281 O 0.12079 0.45071 0.01963 0.0
O282 O 0.07939 0.49986 0.52427 0.0
O283 O 0.07984 0.5736 0.65154 0.0
O284 O 0.08448 0.36607 0.13938 0.0
O285 O 0.07238 0.45627 0.84131 0.0
C286 C 0.06865 0.62801 0.20978 0.0
C287 C 0.02662 0.52383 0.44688 0.0
C288 C 0.12822 0.48847 0.10383 0.0
C289 C 0.07772 0.39384 0.26856 0.0
C290 C 0.0745 0.50246 0.83738 0.0
C291 C 0.07896 0.52696 0.66325 0.0
O292 O 0.07393 0.58598 0.28119 0.0
O293 O 0.05778 0.65523 0.32412 0.0
O294 O 0.7438 0.50624 0.41088 0.0
Mn295 Mn 0.70638 0.51256 0.47044 0.0
O296 O 0.75206 0.5659 0.21083 0.0
Mn297 Mn 0.7238 0.60206 0.23908 0.0
O298 O 0.66828 0.51435 0.51442 0.0
O299 O 0.70522 0.43945 0.50178 0.0
Mn300 Mn 0.69267 0.42382 0.71089 0.0
O301 O 0.70857 0.52749 0.74278 0.0
O302 O 0.66203 0.45067 0.7042 0.0
O303 O 0.70343 0.49985 0.19968 0.0
O304 O 0.70297 0.57358 0.07241 0.0
O305 O 0.69836 0.36604 0.58457 0.0
O306 O 0.71043 0.45626 0.88261 0.0
C307 C 0.71414 0.62804 0.5141 0.0
C308 C 0.7562 0.52385 0.27707 0.0
C309 C 0.65461 0.48844 0.62006 0.0
C310 C 0.70511 0.39384 0.45542 0.0
C311 C 0.70832 0.50245 0.88655 0.0
C312 C 0.70386 0.52695 0.06069 0.0
O313 O 0.70889 0.58598 0.44276 0.0
O314 O 0.725 0.65527 0.39972 0.0
O315 O 0.03906 0.26302 0.4108 0.0
Mn316 Mn 0.07647 0.25668 0.47036 0.0
O317 O 0.03079 0.20336 0.21071 0.0
Mn318 Mn 0.05905 0.16719 0.23902 0.0
O319 O 0.11458 0.25488 0.51435 0.0
O320 O 0.07764 0.3298 0.5017 0.0
Mn321 Mn 0.0902 0.34542 0.7108 0.0
O322 O 0.07428 0.24175 0.74271 0.0
O323 O 0.12083 0.31857 0.70412 0.0
O324 O 0.07943 0.26939 0.1996 0.0
O325 O 0.07988 0.19565 0.07233 0.0
O326 O 0.08451 0.4032 0.5845 0.0
O327 O 0.07244 0.31298 0.88254 0.0
C328 C 0.06868 0.14123 0.51409 0.0
C329 C 0.02665 0.24541 0.27697 0.0
C330 C 0.12825 0.28079 0.61999 0.0
C331 C 0.07776 0.37541 0.45535 0.0
C332 C 0.07454 0.26679 0.88648 0.0
C333 C 0.079 0.24229 0.06062 0.0
O334 O 0.07396 0.18327 0.44268 0.0
O335 O 0.05781 0.11401 0.39974 0.0
O336 O 0.78903 0.25622 0.66091 0.0
Mn337 Mn 0.82645 0.26257 0.72044 0.0
O338 O 0.78076 0.31588 0.46086 0.0
Mn339 Mn 0.80902 0.35205 0.4891 0.0
O340 O 0.86455 0.26438 0.76443 0.0
O341 O 0.82761 0.18945 0.75177 0.0
Mn342 Mn 0.84016 0.17384 0.96095 0.0
O343 O 0.82426 0.2775 -0.00722 0.0
O344 O 0.87079 0.20073 0.95442 0.0
O345 O 0.82939 0.24986 0.44967 0.0
O346 O 0.82984 0.3236 0.32238 0.0
O347 O 0.83449 0.11607 0.83457 0.0
O348 O 0.82238 0.20627 0.13261 0.0
C349 C 0.81868 0.37805 0.76411 0.0
C350 C 0.77662 0.27382 0.52709 0.0
C351 C 0.87821 0.23851 0.87032 0.0
C352 C 0.82772 0.14384 0.70539 0.0
C353 C 0.82449 0.25246 0.13655 0.0
C354 C 0.82896 0.27696 0.31068 0.0
O355 O 0.82392 0.33599 0.6928 0.0
O356 O 0.80781 0.40524 0.64973 0.0
O357 O 0.49382 0.013 0.66086 0.0
Mn358 Mn 0.4564 1.00666 0.72038 0.0
O359 O 0.50209 0.95334 0.46082 0.0
Mn360 Mn 0.47383 0.91717 0.48905 0.0
O361 O 0.4183 1.00486 0.76438 0.0
O362 O 0.45524 0.07978 0.75173 0.0
Mn363 Mn 0.4427 0.09539 0.9609 0.0
O364 O 0.45859 0.99173 -0.00728 0.0
O365 O 0.41207 0.06851 0.95437 0.0
O366 O 0.45345 0.01937 0.44961 0.0
O367 O 0.453 0.94563 0.32233 0.0
O368 O 0.44838 0.15316 0.83452 0.0
O369 O 0.46048 0.06296 0.13254 0.0
C370 C 0.46415 0.89117 0.76403 0.0
C371 C 0.50622 0.9954 0.52704 0.0
C372 C 0.40464 0.03072 0.87028 0.0
C373 C 0.45514 0.12539 0.70535 0.0
C374 C 0.45836 0.01677 0.1365 0.0
C375 C 0.45389 0.99227 0.31062 0.0
O376 O 0.45892 0.93324 0.69272 0.0
O377 O 0.47502 0.86398 0.64968 0.0
O378 O 0.78902 0.01304 0.56308 0.0
Mn379 Mn 0.82643 1.00669 0.50352 0.0
O380 O 0.78073 0.95337 0.76308 0.0
Mn381 Mn 0.80899 0.9172 0.73485 0.0
O382 O 0.86453 1.00487 0.4595 0.0
O383 O 0.82761 0.0798 0.4722 0.0
Mn384 Mn 0.84015 0.09542 0.26301 0.0
O385 O 0.82424 0.99176 0.23118 0.0
O386 O 0.87077 0.06852 0.26949 0.0
O387 O 0.82938 0.0194 0.77429 0.0
O388 O 0.82982 0.94566 0.90158 0.0
O389 O 0.83449 0.15319 0.3894 0.0
O390 O 0.82236 0.06299 0.09135 0.0
C391 C 0.81866 0.8912 0.45985 0.0
C392 C 0.77661 0.99543 0.69687 0.0
C393 C 0.87819 0.03074 0.3536 0.0
C394 C 0.82774 0.12541 0.51859 0.0
C395 C 0.82448 0.0168 0.08741 0.0
C396 C 0.82894 0.9923 0.91328 0.0
O397 O 0.8239 0.93327 0.53116 0.0
O398 O 0.80778 0.86401 0.57422 0.0
O399 O 0.49384 0.25621 0.56301 0.0
Mn400 Mn 0.45643 0.26254 0.50347 0.0
O401 O 0.50212 0.31589 0.76301 0.0
Mn402 Mn 0.47385 0.35204 0.73481 0.0
O403 O 0.41833 0.26433 0.45945 0.0
O404 O 0.45526 0.18943 0.47216 0.0
Mn405 Mn 0.44273 0.17381 0.26295 0.0
O406 O 0.45862 0.27747 0.23113 0.0
O407 O 0.4121 0.20068 0.26942 0.0
O408 O 0.45348 0.24982 0.77424 0.0
O409 O 0.45303 0.32356 0.90152 0.0
O410 O 0.44839 0.11603 0.38936 0.0
O411 O 0.46051 0.20624 0.09131 0.0
C412 C 0.46416 0.37804 0.45984 0.0
C413 C 0.50625 0.27383 0.6968 0.0
C414 C 0.40467 0.23846 0.35355 0.0
C415 C 0.45513 0.14382 0.51855 0.0
C416 C 0.45839 0.25242 0.08735 0.0
C417 C 0.45392 0.27692 0.91323 0.0
O418 O 0.45895 0.33596 0.53111 0.0
O419 O 0.47503 0.40524 0.57422 0.0
O420 O 0.2438 0.76302 0.31299 0.0
Mn421 Mn 0.20639 0.75668 0.25345 0.0
O422 O 0.25208 0.70337 0.51304 0.0
Mn423 Mn 0.22382 0.66719 0.48479 0.0
O424 O 0.16828 0.75487 0.20946 0.0
O425 O 0.20522 0.82979 0.22213 0.0
Mn426 Mn 0.19267 0.8454 0.01295 0.0
O427 O 0.20858 0.74174 0.98112 0.0
O428 O 0.16205 0.81852 0.01947 0.0
O429 O 0.20344 0.76938 0.52423 0.0
O430 O 0.20299 0.69565 0.65152 0.0
O431 O 0.19835 0.90317 0.13933 0.0
O432 O 0.21046 0.81297 0.84129 0.0
C433 C 0.21415 0.64119 0.20979 0.0
C434 C 0.25621 0.74542 0.4468 0.0
C435 C 0.15462 0.78073 0.10358 0.0
C436 C 0.20511 0.8754 0.26851 0.0
C437 C 0.20834 0.76679 0.83734 0.0
C438 C 0.20387 0.74229 0.66322 0.0
O439 O 0.20891 0.68326 0.2811 0.0
O440 O 0.22503 0.614 0.32417 0.0
O441 O 0.53902 1.00624 0.31304 0.0
Mn442 Mn 0.57643 0.01258 0.25351 0.0
O443 O 0.53074 0.0659 0.51308 0.0
Mn444 Mn 0.55901 0.10207 0.48485 0.0
O445 O 0.61453 0.01439 0.20951 0.0
O446 O 0.57759 0.93947 0.22217 0.0
Mn447 Mn 0.59014 0.92386 0.013 0.0
O448 O 0.57424 0.02751 0.98118 0.0
O449 O 0.62076 0.95073 0.01953 0.0
O450 O 0.57938 0.99987 0.52429 0.0
O451 O 0.57983 0.07361 0.65156 0.0
O452 O 0.58446 0.86608 0.13937 0.0
O453 O 0.57235 0.95629 0.84135 0.0
C454 C 0.56869 0.12807 0.20986 0.0
C455 C 0.52661 0.02384 0.44686 0.0
C456 C 0.62819 0.98852 0.10362 0.0
C457 C 0.57769 0.89386 0.26854 0.0
C458 C 0.57448 1.00247 0.8374 0.0
C459 C 0.57895 0.02697 0.66327 0.0
O460 O 0.57391 0.086 0.28118 0.0
O461 O 0.55781 0.15527 0.32422 0.0
O462 O 0.24382 1.0062 0.41082 0.0
Mn463 Mn 0.2064 0.01255 0.47038 0.0
O464 O 0.2521 0.06587 0.21082 0.0
Mn465 Mn 0.22384 0.10204 0.23905 0.0
O466 O 0.1683 0.01437 0.5144 0.0
O467 O 0.20522 0.93944 0.50169 0.0
Mn468 Mn 0.19269 0.92383 0.71089 0.0
O469 O 0.2086 0.02748 0.74271 0.0
O470 O 0.16206 0.95072 0.70441 0.0
O471 O 0.20345 0.99984 0.1996 0.0
O472 O 0.20302 0.07358 0.07232 0.0
O473 O 0.19835 0.86605 0.58449 0.0
O474 O 0.21047 0.95625 0.88254 0.0
C475 C 0.21417 0.12804 0.51405 0.0
C476 C 0.25623 0.02381 0.27703 0.0
C477 C 0.15464 0.9885 0.6203 0.0
C478 C 0.20509 0.89384 0.45531 0.0
C479 C 0.20836 1.00244 0.88649 0.0
C480 C 0.20389 0.02694 0.06062 0.0
O481 O 0.20893 0.08597 0.44273 0.0
O482 O 0.22505 0.15523 0.39968 0.0
O483 O 0.53899 0.76303 0.41089 0.0
Mn484 Mn 0.57641 0.75671 0.47043 0.0
O485 O 0.53072 0.70336 0.21089 0.0
Mn486 Mn 0.55898 0.66721 0.23909 0.0
O487 O 0.61451 0.75491 0.51444 0.0
O488 O 0.57757 0.82981 0.50174 0.0
Mn489 Mn 0.59011 0.84544 0.71094 0.0
O490 O 0.57421 0.74178 0.74277 0.0
O491 O 0.62073 0.81856 0.70447 0.0
O492 O 0.57935 0.76942 0.19966 0.0
O493 O 0.5798 0.69568 0.07237 0.0
O494 O 0.58444 0.90321 0.58454 0.0
O495 O 0.57232 0.81301 0.88258 0.0
C496 C 0.56867 0.6412 0.51406 0.0
C497 C 0.52658 0.74541 0.2771 0.0
C498 C 0.62816 0.78079 0.62035 0.0
C499 C 0.57771 0.87542 0.45534 0.0
C500 C 0.57444 0.76682 0.88654 0.0
C501 C 0.57891 0.74232 0.06067 0.0
O502 O 0.57388 0.68328 0.44279 0.0
O503 O 0.5578 0.614 0.39967 0.0
O504 O 0.78899 0.75626 0.16086 0.0
Mn505 Mn 0.8264 0.76257 0.2204 0.0
O506 O 0.78072 0.81592 0.96079 0.0
Mn507 Mn 0.80899 0.85208 -0.01094 0.0
O508 O 0.8645 0.76435 0.26441 0.0
O509 O 0.82756 0.68946 0.25174 0.0
Mn510 Mn 0.84009 0.67384 0.46095 0.0
O511 O 0.82421 0.7775 0.49274 0.0
O512 O 0.87072 0.70071 0.45449 0.0
O513 O 0.82935 0.74985 0.94963 0.0
O514 O 0.82981 0.82359 0.82237 0.0
O515 O 0.83442 0.61608 0.33453 0.0
O516 O 0.82231 0.70628 0.63258 0.0
C517 C 0.81863 0.87803 0.26411 0.0
C518 C 0.77658 0.77387 0.02703 0.0
C519 C 0.87816 0.73848 0.37035 0.0
C520 C 0.82767 0.64385 0.20534 0.0
C521 C 0.82444 0.75246 0.63653 0.0
C522 C 0.82892 0.77696 0.81065 0.0
O523 O 0.8239 0.83599 0.19271 0.0
O524 O 0.80777 0.90526 0.14977 0.0
O525 O 0.49382 0.513 0.16089 0.0
Mn526 Mn 0.4564 0.50668 0.22039 0.0
O527 O 0.50208 0.45336 0.96075 0.0
Mn528 Mn 0.47382 0.41718 -0.01096 0.0
O529 O 0.4183 0.5049 0.26438 0.0
O530 O 0.45525 0.57979 0.25173 0.0
Mn531 Mn 0.44271 0.59541 0.46092 0.0
O532 O 0.45859 0.49174 0.49273 0.0
O533 O 0.41208 0.56855 0.45441 0.0
O534 O 0.45346 0.51939 0.94962 0.0
O535 O 0.45299 0.44565 0.82236 0.0
O536 O 0.44839 0.65317 0.33452 0.0
O537 O 0.46049 0.56297 0.63256 0.0
C538 C 0.46419 0.39122 0.2641 0.0
C539 C 0.50622 0.4954 0.02703 0.0
C540 C 0.40465 0.53077 0.37028 0.0
C541 C 0.45514 0.6254 0.20533 0.0
C542 C 0.45836 0.51679 0.63651 0.0
C543 C 0.45389 0.49229 0.81064 0.0
O544 O 0.45891 0.43326 0.1927 0.0
O545 O 0.47505 0.364 0.14974 0.0
O546 O 0.78901 0.51304 0.0631 0.0
Mn547 Mn 0.82643 0.5067 0.00353 0.0
O548 O 0.78074 0.45337 0.26311 0.0
Mn549 Mn 0.809 0.4172 0.23487 0.0
O550 O 0.86453 0.50489 0.95949 0.0
O551 O 0.8276 0.57981 0.97217 0.0
Mn552 Mn 0.84014 0.59543 0.76301 0.0
O553 O 0.82423 0.49176 0.73119 0.0
O554 O 0.87077 0.56856 0.76955 0.0
O555 O 0.82938 0.51941 0.27429 0.0
O556 O 0.82982 0.44567 0.40157 0.0
O557 O 0.83446 0.65321 0.88937 0.0
O558 O 0.82236 0.56299 0.59136 0.0
C559 C 0.81865 0.39123 0.95985 0.0
C560 C 0.77661 0.49543 0.1969 0.0
C561 C 0.87819 0.53077 0.85362 0.0
C562 C 0.82772 0.62542 0.01854 0.0
C563 C 0.82448 0.51681 0.58741 0.0
C564 C 0.82894 0.49231 0.41328 0.0
O565 O 0.82391 0.43328 0.03122 0.0
O566 O 0.80779 0.36401 0.0742 0.0
O567 O 0.49379 0.75624 0.06306 0.0
Mn568 Mn 0.45637 0.76256 0.00351 0.0
O569 O 0.50205 0.81588 0.26319 0.0
Mn570 Mn 0.47379 0.85206 0.23487 0.0
O571 O 0.41827 0.76434 0.95948 0.0
O572 O 0.45521 0.68945 0.97217 0.0
Mn573 Mn 0.44268 0.67381 0.763 0.0
O574 O 0.45856 0.77749 0.73118 0.0
O575 O 0.41204 0.70066 0.76955 0.0
O576 O 0.45342 0.74985 0.27429 0.0
O577 O 0.45296 0.82359 0.40155 0.0
O578 O 0.44836 0.61604 0.88936 0.0
O579 O 0.46045 0.70627 0.59135 0.0
C580 C 0.46417 0.878 0.95978 0.0
C581 C 0.50618 0.77384 0.19693 0.0
C582 C 0.40462 0.73845 0.85361 0.0
C583 C 0.4551 0.64384 0.01854 0.0
C584 C 0.45832 0.75245 0.5874 0.0
C585 C 0.45385 0.77695 0.41327 0.0
O586 O 0.45888 0.83598 0.03121 0.0
O587 O 0.47503 0.90522 0.07411 0.0
O588 O 0.24385 0.26299 0.81304 0.0
Mn589 Mn 0.20643 0.25667 0.7535 0.0
O590 O 0.25211 0.20333 0.01311 0.0
Mn591 Mn 0.22384 0.16716 0.98484 0.0
O592 O 0.16833 0.25489 0.70949 0.0
O593 O 0.20528 0.32978 0.72216 0.0
Mn594 Mn 0.19274 0.3454 0.51295 0.0
O595 O 0.20862 0.24174 0.48115 0.0
O596 O 0.16211 0.31853 0.51941 0.0
O597 O 0.20349 0.26939 0.02426 0.0
O598 O 0.20302 0.19565 0.15153 0.0
O599 O 0.19841 0.40316 0.63936 0.0
O600 O 0.21053 0.31297 0.34132 0.0
C601 C 0.2142 0.14121 0.70979 0.0
C602 C 0.25625 0.24538 0.94687 0.0
C603 C 0.15468 0.28076 0.60355 0.0
C604 C 0.20516 0.37539 0.76856 0.0
C605 C 0.20839 0.26678 0.33737 0.0
C606 C 0.20392 0.24229 0.16324 0.0
O607 O 0.20893 0.18325 0.78119 0.0
O608 O 0.22506 0.11398 0.82413 0.0
O609 O 0.53901 0.50624 0.81301 0.0
Mn610 Mn 0.57643 0.51256 0.75351 0.0
O611 O 0.53076 0.56588 0.01315 0.0
Mn612 Mn 0.55901 0.60206 0.98485 0.0
O613 O 0.61453 0.51434 0.70952 0.0
O614 O 0.57758 0.43945 0.72217 0.0
Mn615 Mn 0.59012 0.42383 0.51298 0.0
O616 O 0.57424 0.5275 0.48116 0.0
O617 O 0.62075 0.4507 0.51949 0.0
O618 O 0.57937 0.49985 0.02428 0.0
O619 O 0.57984 0.57359 0.15154 0.0
O620 O 0.58444 0.36607 0.63937 0.0
O621 O 0.57234 0.45627 0.34133 0.0
C622 C 0.56865 0.62802 0.7098 0.0
C623 C 0.52662 0.52384 0.94687 0.0
C624 C 0.62818 0.48847 0.60362 0.0
C625 C 0.57769 0.39384 0.76856 0.0
C626 C 0.57447 0.50246 0.33738 0.0
C627 C 0.57895 0.52695 0.16326 0.0
O628 O 0.57393 0.58598 0.78119 0.0
O629 O 0.55779 0.65524 0.82415 0.0
O630 O 0.24382 0.5062 0.9108 0.0
Mn631 Mn 0.2064 0.51254 0.97037 0.0
O632 O 0.25209 0.56587 0.71078 0.0
Mn633 Mn 0.22383 0.60204 0.73903 0.0
O634 O 0.1683 0.51435 0.0144 0.0
O635 O 0.20524 0.43943 0.00173 0.0
Mn636 Mn 0.19269 0.42381 0.21088 0.0
O637 O 0.2086 0.52748 0.24271 0.0
O638 O 0.16206 0.45069 0.20435 0.0
O639 O 0.20345 0.49983 0.6996 0.0
O640 O 0.20301 0.57357 0.57233 0.0
O641 O 0.19837 0.36603 0.08452 0.0
O642 O 0.21047 0.45625 0.38253 0.0
C643 C 0.21418 0.62801 0.01404 0.0
C644 C 0.25623 0.52381 0.77699 0.0
C645 C 0.15464 0.48848 0.12028 0.0
C646 C 0.20512 0.39382 0.95536 0.0
C647 C 0.20836 0.50243 0.38648 0.0
C648 C 0.20389 0.52693 0.56062 0.0
O649 O 0.20892 0.58596 0.94268 0.0
O650 O 0.22504 0.65524 0.89969 0.0
O651 O 0.53905 0.263 0.91083 0.0
Mn652 Mn 0.57646 0.25669 0.97038 0.0
O653 O 0.53079 0.20336 0.71071 0.0
Mn654 Mn 0.55904 0.16718 0.73903 0.0
O655 O 0.61456 0.25491 0.01442 0.0
O656 O 0.57762 0.3298 0.00173 0.0
Mn657 Mn 0.59016 0.34543 0.21089 0.0
O658 O 0.57427 0.24175 0.24272 0.0
O659 O 0.62079 0.31858 0.20434 0.0
O660 O 0.57941 0.2694 0.69961 0.0
O661 O 0.57987 0.19565 0.57234 0.0
O662 O 0.58447 0.4032 0.08453 0.0
O663 O 0.57239 0.31298 0.38255 0.0
C664 C 0.56867 0.14124 0.01412 0.0
C665 C 0.52665 0.24541 0.77697 0.0
C666 C 0.62822 0.28079 0.12028 0.0
C667 C 0.57773 0.37541 0.95536 0.0
C668 C 0.57451 0.26679 0.38649 0.0
C669 C 0.57898 0.2423 0.56063 0.0
O670 O 0.57396 0.18326 0.94269 0.0
O671 O 0.5578 0.11402 0.89978 0.0
loop_
_geom_bond_atom_site_label_1
_geom_bond_atom_site_label_2
_geom_bond_distance
_geom_bond_site_symmetry_2
_ccdc_geom_bond_type
O0 Mn1 2.163 . S
O0 C14 1.244 . S
Mn1 O0 2.163 . S
Mn1 O4 2.160 . S
Mn1 O5 2.221 . S
Mn1 O7 2.163 . S
Mn1 O9 2.160 1_554 S
Mn1 O19 2.221 . S
O2 Mn3 2.087 1_554 S
O2 C14 1.256 . S
Mn3 O2 2.087 1_556 S
Mn3 O10 2.089 . S
Mn3 O19 2.290 1_556 S
Mn3 O20 2.251 1_556 S
O4 Mn1 2.160 . S
O4 C15 1.239 . S
O5 Mn1 2.221 . S
O5 Mn6 2.290 . S
O5 C16 1.278 . S
Mn6 O5 2.290 . S
Mn6 O8 2.089 . S
Mn6 O11 2.251 . S
Mn6 O12 2.087 . S
O7 Mn1 2.163 . S
O7 C17 1.244 . S
O8 Mn6 2.089 . S
O8 C15 1.256 . S
O9 Mn1 2.160 1_556 S
O9 C18 1.239 . S
O10 Mn3 2.089 . S
O10 C18 1.256 . S
O11 Mn6 2.251 . S
O11 C16 1.241 . S
O12 Mn6 2.087 . S
O12 C17 1.256 . S
C13 O19 1.278 . S
C13 O20 1.241 . S
C14 O0 1.244 . S
C14 O2 1.256 . S
C15 O4 1.239 . S
C15 O8 1.256 . S
C16 O5 1.278 . S
C16 O11 1.241 . S
C17 O7 1.244 . S
C17 O12 1.256 . S
C18 O9 1.239 . S
C18 O10 1.256 . S
O19 Mn1 2.221 . S
O19 Mn3 2.290 1_554 S
O19 C13 1.278 . S
O20 Mn3 2.251 1_554 S
O20 C13 1.241 . S
O21 Mn22 2.163 1_545 S
O21 C35 1.244 1_545 S
Mn22 O21 2.163 1_565 S
Mn22 O25 2.160 . S
Mn22 O26 2.221 1_565 S
Mn22 O28 2.163 . S
Mn22 O30 2.160 1_554 S
Mn22 O40 2.221 . S
O23 Mn24 2.087 1_554 S
O23 C35 1.256 . S
Mn24 O23 2.087 1_556 S
Mn24 O31 2.089 . S
Mn24 O40 2.290 1_556 S
Mn24 O41 2.251 1_556 S
O25 Mn22 2.160 . S
O25 C36 1.239 1_565 S
O26 Mn22 2.221 1_545 S
O26 Mn27 2.290 . S
O26 C37 1.278 . S
Mn27 O26 2.290 . S
Mn27 O29 2.089 . S
Mn27 O32 2.251 . S
Mn27 O33 2.087 . S
O28 Mn22 2.163 . S
O28 C38 1.244 1_565 S
O29 Mn27 2.089 . S
O29 C36 1.256 . S
O30 Mn22 2.160 1_556 S
O30 C39 1.239 . S
O31 Mn24 2.089 . S
O31 C39 1.256 . S
O32 Mn27 2.251 . S
O32 C37 1.241 . S
O33 Mn27 2.087 . S
O33 C38 1.256 . S
C34 O40 1.278 . S
C34 O41 1.241 . S
C35 O21 1.244 1_565 S
C35 O23 1.256 . S
C36 O25 1.239 1_545 S
C36 O29 1.256 . S
C37 O26 1.278 . S
C37 O32 1.241 . S
C38 O28 1.244 1_545 S
C38 O33 1.256 . S
C39 O30 1.239 . S
C39 O31 1.256 . S
O40 Mn22 2.221 . S
O40 Mn24 2.290 1_554 S
O40 C34 1.278 . S
O41 Mn24 2.251 1_554 S
O41 C34 1.241 . S
O42 Mn43 2.163 1_545 S
O42 C56 1.244 1_545 S
Mn43 O42 2.163 1_565 S
Mn43 O46 2.160 . S
Mn43 O47 2.221 1_565 S
Mn43 O49 2.163 1_554 S
Mn43 O51 2.160 . S
Mn43 O61 2.221 . S
O44 Mn45 2.087 . S
O44 C56 1.256 . S
Mn45 O44 2.087 . S
Mn45 O52 2.089 . S
Mn45 O61 2.290 . S
Mn45 O62 2.251 . S
O46 Mn43 2.160 . S
O46 C57 1.239 1_564 S
O47 Mn43 2.221 1_545 S
O47 Mn48 2.290 1_554 S
O47 C58 1.278 . S
Mn48 O47 2.290 1_556 S
Mn48 O50 2.089 . S
Mn48 O53 2.251 . S
Mn48 O54 2.087 . S
O49 Mn43 2.163 1_556 S
O49 C59 1.244 1_565 S
O50 Mn48 2.089 . S
O50 C57 1.256 . S
O51 Mn43 2.160 . S
O51 C60 1.239 . S
O52 Mn45 2.089 . S
O52 C60 1.256 . S
O53 Mn48 2.251 . S
O53 C58 1.241 1_556 S
O54 Mn48 2.087 . S
O54 C59 1.256 . S
C55 O61 1.278 1_556 S
C55 O62 1.241 1_556 S
C56 O42 1.244 1_565 S
C56 O44 1.256 . S
C57 O46 1.239 1_546 S
C57 O50 1.256 . S
C58 O47 1.278 . S
C58 O53 1.241 1_554 S
C59 O49 1.244 1_545 S
C59 O54 1.256 . S
C60 O51 1.239 . S
C60 O52 1.256 . S
O61 Mn43 2.221 . S
O61 Mn45 2.290 . S
O61 C55 1.278 1_554 S
O62 Mn45 2.251 . S
O62 C55 1.241 1_554 S
O63 Mn64 2.163 . S
O63 C77 1.244 . S
Mn64 O63 2.163 . S
Mn64 O67 2.160 . S
Mn64 O68 2.221 . S
Mn64 O70 2.163 1_554 S
Mn64 O72 2.160 . S
Mn64 O82 2.221 . S
O65 Mn66 2.087 . S
O65 C77 1.256 . S
Mn66 O65 2.087 . S
Mn66 O73 2.089 . S
Mn66 O82 2.290 . S
Mn66 O83 2.251 . S
O67 Mn64 2.160 . S
O67 C78 1.239 1_554 S
O68 Mn64 2.221 . S
O68 Mn69 2.290 1_554 S
O68 C79 1.278 . S
Mn69 O68 2.290 1_556 S
Mn69 O71 2.089 . S
Mn69 O74 2.251 . S
Mn69 O75 2.087 . S
O70 Mn64 2.163 1_556 S
O70 C80 1.244 . S
O71 Mn69 2.089 . S
O71 C78 1.256 . S
O72 Mn64 2.160 . S
O72 C81 1.239 . S
O73 Mn66 2.089 . S
O73 C81 1.256 . S
O74 Mn69 2.251 . S
O74 C79 1.241 1_556 S
O75 Mn69 2.087 . S
O75 C80 1.256 . S
C76 O82 1.278 1_556 S
C76 O83 1.241 1_556 S
C77 O63 1.244 . S
C77 O65 1.256 . S
C78 O67 1.239 1_556 S
C78 O71 1.256 . S
C79 O68 1.278 . S
C79 O74 1.241 1_554 S
C80 O70 1.244 . S
C80 O75 1.256 . S
C81 O72 1.239 . S
C81 O73 1.256 . S
O82 Mn64 2.221 . S
O82 Mn66 2.290 . S
O82 C76 1.278 1_554 S
O83 Mn66 2.251 . S
O83 C76 1.241 1_554 S
O84 Mn85 2.163 . S
O84 C98 1.244 . S
Mn85 O84 2.163 . S
Mn85 O88 2.160 . S
Mn85 O89 2.221 . S
Mn85 O91 2.163 . S
Mn85 O93 2.160 1_556 S
Mn85 O103 2.221 . S
O86 Mn87 2.087 1_556 S
O86 C98 1.256 . S
Mn87 O86 2.087 1_554 S
Mn87 O94 2.089 . S
Mn87 O103 2.290 1_554 S
Mn87 O104 2.251 1_554 S
O88 Mn85 2.160 . S
O88 C99 1.239 . S
O89 Mn85 2.221 . S
O89 Mn90 2.290 . S
O89 C100 1.278 . S
Mn90 O89 2.290 . S
Mn90 O92 2.089 . S
Mn90 O95 2.251 . S
Mn90 O96 2.087 . S
O91 Mn85 2.163 . S
O91 C101 1.244 . S
O92 Mn90 2.089 . S
O92 C99 1.256 . S
O93 Mn85 2.160 1_554 S
O93 C102 1.239 . S
O94 Mn87 2.089 . S
O94 C102 1.256 . S
O95 Mn90 2.251 . S
O95 C100 1.241 . S
O96 Mn90 2.087 . S
O96 C101 1.256 . S
C97 O103 1.278 . S
C97 O104 1.241 . S
C98 O84 1.244 . S
C98 O86 1.256 . S
C99 O88 1.239 . S
C99 O92 1.256 . S
C100 O89 1.278 . S
C100 O95 1.241 . S
C101 O91 1.244 . S
C101 O96 1.256 . S
C102 O93 1.239 . S
C102 O94 1.256 . S
O103 Mn85 2.221 . S
O103 Mn87 2.290 1_556 S
O103 C97 1.278 . S
O104 Mn87 2.251 1_556 S
O104 C97 1.241 . S
O105 Mn106 2.163 1_565 S
O105 C119 1.244 1_565 S
Mn106 O105 2.163 1_545 S
Mn106 O109 2.160 . S
Mn106 O110 2.221 1_545 S
Mn106 O112 2.163 . S
Mn106 O114 2.160 1_556 S
Mn106 O124 2.221 . S
O107 Mn108 2.087 1_556 S
O107 C119 1.256 . S
Mn108 O107 2.087 1_554 S
Mn108 O115 2.089 . S
Mn108 O124 2.290 1_554 S
Mn108 O125 2.251 1_554 S
O109 Mn106 2.160 . S
O109 C120 1.239 1_545 S
O110 Mn106 2.221 1_565 S
O110 Mn111 2.290 . S
O110 C121 1.278 . S
Mn111 O110 2.290 . S
Mn111 O113 2.089 . S
Mn111 O116 2.251 . S
Mn111 O117 2.087 . S
O112 Mn106 2.163 . S
O112 C122 1.244 1_545 S
O113 Mn111 2.089 . S
O113 C120 1.256 . S
O114 Mn106 2.160 1_554 S
O114 C123 1.239 . S
O115 Mn108 2.089 . S
O115 C123 1.256 . S
O116 Mn111 2.251 . S
O116 C121 1.241 . S
O117 Mn111 2.087 . S
O117 C122 1.256 . S
C118 O124 1.278 . S
C118 O125 1.241 . S
C119 O105 1.244 1_545 S
C119 O107 1.256 . S
C120 O109 1.239 1_565 S
C120 O113 1.256 . S
C121 O110 1.278 . S
C121 O116 1.241 . S
C122 O112 1.244 1_565 S
C122 O117 1.256 . S
C123 O114 1.239 . S
C123 O115 1.256 . S
O124 Mn106 2.221 . S
O124 Mn108 2.290 1_556 S
O124 C118 1.278 . S
O125 Mn108 2.251 1_556 S
O125 C118 1.241 . S
O126 Mn127 2.163 1_565 S
O126 C140 1.244 1_565 S
Mn127 O126 2.163 1_545 S
Mn127 O130 2.160 . S
Mn127 O131 2.221 1_545 S
Mn127 O133 2.163 1_556 S
Mn127 O135 2.160 . S
Mn127 O145 2.221 . S
O128 Mn129 2.087 . S
O128 C140 1.256 . S
Mn129 O128 2.087 . S
Mn129 O136 2.089 . S
Mn129 O145 2.290 . S
Mn129 O146 2.251 . S
O130 Mn127 2.160 . S
O130 C141 1.239 1_546 S
O131 Mn127 2.221 1_565 S
O131 Mn132 2.290 1_556 S
O131 C142 1.278 . S
Mn132 O131 2.290 1_554 S
Mn132 O134 2.089 . S
Mn132 O137 2.251 . S
Mn132 O138 2.087 . S
O133 Mn127 2.163 1_554 S
O133 C143 1.244 1_545 S
O134 Mn132 2.089 . S
O134 C141 1.256 . S
O135 Mn127 2.160 . S
O135 C144 1.239 . S
O136 Mn129 2.089 . S
O136 C144 1.256 . S
O137 Mn132 2.251 . S
O137 C142 1.241 1_554 S
O138 Mn132 2.087 . S
O138 C143 1.256 . S
C139 O145 1.278 1_554 S
C139 O146 1.241 1_554 S
C140 O126 1.244 1_545 S
C140 O128 1.256 . S
C141 O130 1.239 1_564 S
C141 O134 1.256 . S
C142 O131 1.278 . S
C142 O137 1.241 1_556 S
C143 O133 1.244 1_565 S
C143 O138 1.256 . S
C144 O135 1.239 . S
C144 O136 1.256 . S
O145 Mn127 2.221 . S
O145 Mn129 2.290 . S
O145 C139 1.278 1_556 S
O146 Mn129 2.251 . S
O146 C139 1.241 1_556 S
O147 Mn148 2.163 . S
O147 C161 1.244 . S
Mn148 O147 2.163 . S
Mn148 O151 2.160 . S
Mn148 O152 2.221 . S
Mn148 O154 2.163 1_556 S
Mn148 O156 2.160 . S
Mn148 O166 2.221 . S
O149 Mn150 2.087 . S
O149 C161 1.256 . S
Mn150 O149 2.087 . S
Mn150 O157 2.089 . S
Mn150 O166 2.290 . S
Mn150 O167 2.251 . S
O151 Mn148 2.160 . S
O151 C162 1.239 1_556 S
O152 Mn148 2.221 . S
O152 Mn153 2.290 1_556 S
O152 C163 1.278 . S
Mn153 O152 2.290 1_554 S
Mn153 O155 2.089 . S
Mn153 O158 2.251 . S
Mn153 O159 2.087 . S
O154 Mn148 2.163 1_554 S
O154 C164 1.244 . S
O155 Mn153 2.089 . S
O155 C162 1.256 . S
O156 Mn148 2.160 . S
O156 C165 1.239 . S
O157 Mn150 2.089 . S
O157 C165 1.256 . S
O158 Mn153 2.251 . S
O158 C163 1.241 1_554 S
O159 Mn153 2.087 . S
O159 C164 1.256 . S
C160 O166 1.278 1_554 S
C160 O167 1.241 1_554 S
C161 O147 1.244 . S
C161 O149 1.256 . S
C162 O151 1.239 1_554 S
C162 O155 1.256 . S
C163 O152 1.278 . S
C163 O158 1.241 1_556 S
C164 O154 1.244 . S
C164 O159 1.256 . S
C165 O156 1.239 . S
C165 O157 1.256 . S
O166 Mn148 2.221 . S
O166 Mn150 2.290 . S
O166 C160 1.278 1_556 S
O167 Mn150 2.251 . S
O167 C160 1.241 1_556 S
O168 Mn169 2.163 . S
O168 C182 1.244 . S
Mn169 O168 2.163 . S
Mn169 O172 2.160 . S
Mn169 O173 2.221 . S
Mn169 O175 2.163 . S
Mn169 O177 2.160 . S
Mn169 O187 2.221 . S
O170 Mn171 2.087 . S
O170 C182 1.256 . S
Mn171 O170 2.087 . S
Mn171 O178 2.089 . S
Mn171 O187 2.290 . S
Mn171 O188 2.251 . S
O172 Mn169 2.160 . S
O172 C183 1.239 . S
O173 Mn169 2.221 . S
O173 Mn174 2.290 . S
O173 C184 1.278 . S
Mn174 O173 2.290 . S
Mn174 O176 2.089 . S
Mn174 O179 2.251 . S
Mn174 O180 2.087 1_556 S
O175 Mn169 2.163 . S
O175 C185 1.244 1_556 S
O176 Mn174 2.089 . S
O176 C183 1.256 . S
O177 Mn169 2.160 . S
O177 C186 1.239 . S
O178 Mn171 2.089 . S
O178 C186 1.256 . S
O179 Mn174 2.251 . S
O179 C184 1.241 . S
O180 Mn174 2.087 1_554 S
O180 C185 1.256 . S
C181 O187 1.278 . S
C181 O188 1.241 . S
C182 O168 1.244 . S
C182 O170 1.256 . S
C183 O172 1.239 . S
C183 O176 1.256 . S
C184 O173 1.278 . S
C184 O179 1.241 . S
C185 O175 1.244 1_554 S
C185 O180 1.256 . S
C186 O177 1.239 . S
C186 O178 1.256 . S
O187 Mn169 2.221 . S
O187 Mn171 2.290 . S
O187 C181 1.278 . S
O188 Mn171 2.251 . S
O188 C181 1.241 . S
O189 Mn190 2.163 . S
O189 C203 1.244 . S
Mn190 O189 2.163 . S
Mn190 O193 2.160 . S
Mn190 O194 2.221 . S
Mn190 O196 2.163 . S
Mn190 O198 2.160 . S
Mn190 O208 2.221 . S
O191 Mn192 2.087 . S
O191 C203 1.256 . S
Mn192 O191 2.087 . S
Mn192 O199 2.089 . S
Mn192 O208 2.290 . S
Mn192 O209 2.251 . S
O193 Mn190 2.160 . S
O193 C204 1.239 . S
O194 Mn190 2.221 . S
O194 Mn195 2.290 . S
O194 C205 1.278 . S
Mn195 O194 2.290 . S
Mn195 O197 2.089 . S
Mn195 O200 2.251 . S
Mn195 O201 2.087 1_556 S
O196 Mn190 2.163 . S
O196 C206 1.244 1_556 S
O197 Mn195 2.089 . S
O197 C204 1.256 . S
O198 Mn190 2.160 . S
O198 C207 1.239 . S
O199 Mn192 2.089 . S
O199 C207 1.256 . S
O200 Mn195 2.251 . S
O200 C205 1.241 . S
O201 Mn195 2.087 1_554 S
O201 C206 1.256 . S
C202 O208 1.278 . S
C202 O209 1.241 . S
C203 O189 1.244 . S
C203 O191 1.256 . S
C204 O193 1.239 . S
C204 O197 1.256 . S
C205 O194 1.278 . S
C205 O200 1.241 . S
C206 O196 1.244 1_554 S
C206 O201 1.256 . S
C207 O198 1.239 . S
C207 O199 1.256 . S
O208 Mn190 2.221 . S
O208 Mn192 2.290 . S
O208 C202 1.278 . S
O209 Mn192 2.251 . S
O209 C202 1.241 . S
O210 Mn211 2.163 . S
O210 C224 1.244 . S
Mn211 O210 2.163 . S
Mn211 O214 2.160 . S
Mn211 O215 2.221 . S
Mn211 O217 2.163 . S
Mn211 O219 2.160 . S
Mn211 O229 2.221 . S
O212 Mn213 2.087 . S
O212 C224 1.256 . S
Mn213 O212 2.087 . S
Mn213 O220 2.089 . S
Mn213 O229 2.290 . S
Mn213 O230 2.251 . S
O214 Mn211 2.160 . S
O214 C225 1.239 . S
O215 Mn211 2.221 . S
O215 Mn216 2.290 . S
O215 C226 1.278 . S
Mn216 O215 2.290 . S
Mn216 O218 2.089 . S
Mn216 O221 2.251 . S
Mn216 O222 2.087 . S
O217 Mn211 2.163 . S
O217 C227 1.244 . S
O218 Mn216 2.089 . S
O218 C225 1.256 . S
O219 Mn211 2.160 . S
O219 C228 1.239 . S
O220 Mn213 2.089 . S
O220 C228 1.256 . S
O221 Mn216 2.251 . S
O221 C226 1.241 . S
O222 Mn216 2.087 . S
O222 C227 1.256 . S
C223 O229 1.278 . S
C223 O230 1.241 . S
C224 O210 1.244 . S
C224 O212 1.256 . S
C225 O214 1.239 . S
C225 O218 1.256 . S
C226 O215 1.278 . S
C226 O221 1.241 . S
C227 O217 1.244 . S
C227 O222 1.256 . S
C228 O219 1.239 . S
C228 O220 1.256 . S
O229 Mn211 2.221 . S
O229 Mn213 2.290 . S
O229 C223 1.278 . S
O230 Mn213 2.251 . S
O230 C223 1.241 . S
O231 Mn232 2.163 . S
O231 C245 1.244 . S
Mn232 O231 2.163 . S
Mn232 O235 2.160 . S
Mn232 O236 2.221 . S
Mn232 O238 2.163 . S
Mn232 O240 2.160 . S
Mn232 O250 2.221 . S
O233 Mn234 2.087 . S
O233 C245 1.256 . S
Mn234 O233 2.087 . S
Mn234 O241 2.089 . S
Mn234 O250 2.290 . S
Mn234 O251 2.251 . S
O235 Mn232 2.160 . S
O235 C246 1.239 . S
O236 Mn232 2.221 . S
O236 Mn237 2.290 . S
O236 C247 1.278 . S
Mn237 O236 2.290 . S
Mn237 O239 2.089 . S
Mn237 O242 2.251 . S
Mn237 O243 2.087 . S
O238 Mn232 2.163 . S
O238 C248 1.244 . S
O239 Mn237 2.089 . S
O239 C246 1.256 . S
O240 Mn232 2.160 . S
O240 C249 1.239 . S
O241 Mn234 2.089 . S
O241 C249 1.256 . S
O242 Mn237 2.251 . S
O242 C247 1.241 . S
O243 Mn237 2.087 . S
O243 C248 1.256 . S
C244 O250 1.278 . S
C244 O251 1.241 . S
C245 O231 1.244 . S
C245 O233 1.256 . S
C246 O235 1.239 . S
C246 O239 1.256 . S
C247 O236 1.278 . S
C247 O242 1.241 . S
C248 O238 1.244 . S
C248 O243 1.256 . S
C249 O240 1.239 . S
C249 O241 1.256 . S
O250 Mn232 2.221 . S
O250 Mn234 2.290 . S
O250 C244 1.278 . S
O251 Mn234 2.251 . S
O251 C244 1.241 . S
O252 Mn253 2.163 . S
O252 C266 1.244 . S
Mn253 O252 2.163 . S
Mn253 O256 2.160 . S
Mn253 O257 2.221 . S
Mn253 O259 2.163 . S
Mn253 O261 2.160 . S
Mn253 O271 2.221 . S
O254 Mn255 2.087 . S
O254 C266 1.256 . S
Mn255 O254 2.087 . S
Mn255 O262 2.089 . S
Mn255 O271 2.290 . S
Mn255 O272 2.251 . S
O256 Mn253 2.160 . S
O256 C267 1.239 . S
O257 Mn253 2.221 . S
O257 Mn258 2.290 . S
O257 C268 1.278 . S
Mn258 O257 2.290 . S
Mn258 O260 2.089 . S
Mn258 O263 2.251 . S
Mn258 O264 2.087 1_554 S
O259 Mn253 2.163 . S
O259 C269 1.244 1_554 S
O260 Mn258 2.089 . S
O260 C267 1.256 . S
O261 Mn253 2.160 . S
O261 C270 1.239 . S
O262 Mn255 2.089 . S
O262 C270 1.256 . S
O263 Mn258 2.251 . S
O263 C268 1.241 . S
O264 Mn258 2.087 1_556 S
O264 C269 1.256 . S
C265 O271 1.278 . S
C265 O272 1.241 . S
C266 O252 1.244 . S
C266 O254 1.256 . S
C267 O256 1.239 . S
C267 O260 1.256 . S
C268 O257 1.278 . S
C268 O263 1.241 . S
C269 O259 1.244 1_556 S
C269 O264 1.256 . S
C270 O261 1.239 . S
C270 O262 1.256 . S
O271 Mn253 2.221 . S
O271 Mn255 2.290 . S
O271 C265 1.278 . S
O272 Mn255 2.251 . S
O272 C265 1.241 . S
O273 Mn274 2.163 . S
O273 C287 1.244 . S
Mn274 O273 2.163 . S
Mn274 O277 2.160 . S
Mn274 O278 2.221 . S
Mn274 O280 2.163 . S
Mn274 O282 2.160 . S
Mn274 O292 2.221 . S
O275 Mn276 2.087 . S
O275 C287 1.256 . S
Mn276 O275 2.087 . S
Mn276 O283 2.089 . S
Mn276 O292 2.290 . S
Mn276 O293 2.251 . S
O277 Mn274 2.160 . S
O277 C288 1.239 . S
O278 Mn274 2.221 . S
O278 Mn279 2.290 . S
O278 C289 1.278 . S
Mn279 O278 2.290 . S
Mn279 O281 2.089 . S
Mn279 O284 2.251 . S
Mn279 O285 2.087 1_554 S
O280 Mn274 2.163 . S
O280 C290 1.244 1_554 S
O281 Mn279 2.089 . S
O281 C288 1.256 . S
O282 Mn274 2.160 . S
O282 C291 1.239 . S
O283 Mn276 2.089 . S
O283 C291 1.256 . S
O284 Mn279 2.251 . S
O284 C289 1.241 . S
O285 Mn279 2.087 1_556 S
O285 C290 1.256 . S
C286 O292 1.278 . S
C286 O293 1.241 . S
C287 O273 1.244 . S
C287 O275 1.256 . S
C288 O277 1.239 . S
C288 O281 1.256 . S
C289 O278 1.278 . S
C289 O284 1.241 . S
C290 O280 1.244 1_556 S
C290 O285 1.256 . S
C291 O282 1.239 . S
C291 O283 1.256 . S
O292 Mn274 2.221 . S
O292 Mn276 2.290 . S
O292 C286 1.278 . S
O293 Mn276 2.251 . S
O293 C286 1.241 . S
O294 Mn295 2.163 . S
O294 C308 1.244 . S
Mn295 O294 2.163 . S
Mn295 O298 2.160 . S
Mn295 O299 2.221 . S
Mn295 O301 2.163 . S
Mn295 O303 2.160 . S
Mn295 O313 2.221 . S
O296 Mn297 2.087 . S
O296 C308 1.256 . S
Mn297 O296 2.087 . S
Mn297 O304 2.089 . S
Mn297 O313 2.290 . S
Mn297 O314 2.251 . S
O298 Mn295 2.160 . S
O298 C309 1.239 . S
O299 Mn295 2.221 . S
O299 Mn300 2.290 . S
O299 C310 1.278 . S
Mn300 O299 2.290 . S
Mn300 O302 2.089 . S
Mn300 O305 2.251 . S
Mn300 O306 2.087 . S
O301 Mn295 2.163 . S
O301 C311 1.244 . S
O302 Mn300 2.089 . S
O302 C309 1.256 . S
O303 Mn295 2.160 . S
O303 C312 1.239 . S
O304 Mn297 2.089 . S
O304 C312 1.256 . S
O305 Mn300 2.251 . S
O305 C310 1.241 . S
O306 Mn300 2.087 . S
O306 C311 1.256 . S
C307 O313 1.278 . S
C307 O314 1.241 . S
C308 O294 1.244 . S
C308 O296 1.256 . S
C309 O298 1.239 . S
C309 O302 1.256 . S
C310 O299 1.278 . S
C310 O305 1.241 . S
C311 O301 1.244 . S
C311 O306 1.256 . S
C312 O303 1.239 . S
C312 O304 1.256 . S
O313 Mn295 2.221 . S
O313 Mn297 2.290 . S
O313 C307 1.278 . S
O314 Mn297 2.251 . S
O314 C307 1.241 . S
O315 Mn316 2.163 . S
O315 C329 1.244 . S
Mn316 O315 2.163 . S
Mn316 O319 2.160 . S
Mn316 O320 2.221 . S
Mn316 O322 2.163 . S
Mn316 O324 2.160 . S
Mn316 O334 2.221 . S
O317 Mn318 2.087 . S
O317 C329 1.256 . S
Mn318 O317 2.087 . S
Mn318 O325 2.089 . S
Mn318 O334 2.290 . S
Mn318 O335 2.251 . S
O319 Mn316 2.160 . S
O319 C330 1.239 . S
O320 Mn316 2.221 . S
O320 Mn321 2.290 . S
O320 C331 1.278 . S
Mn321 O320 2.290 . S
Mn321 O323 2.089 . S
Mn321 O326 2.251 . S
Mn321 O327 2.087 . S
O322 Mn316 2.163 . S
O322 C332 1.244 . S
O323 Mn321 2.089 . S
O323 C330 1.256 . S
O324 Mn316 2.160 . S
O324 C333 1.239 . S
O325 Mn318 2.089 . S
O325 C333 1.256 . S
O326 Mn321 2.251 . S
O326 C331 1.241 . S
O327 Mn321 2.087 . S
O327 C332 1.256 . S
C328 O334 1.278 . S
C328 O335 1.241 . S
C329 O315 1.244 . S
C329 O317 1.256 . S
C330 O319 1.239 . S
C330 O323 1.256 . S
C331 O320 1.278 . S
C331 O326 1.241 . S
C332 O322 1.244 . S
C332 O327 1.256 . S
C333 O324 1.239 . S
C333 O325 1.256 . S
O334 Mn316 2.221 . S
O334 Mn318 2.290 . S
O334 C328 1.278 . S
O335 Mn318 2.251 . S
O335 C328 1.241 . S
O336 Mn337 2.163 . S
O336 C350 1.244 . S
Mn337 O336 2.163 . S
Mn337 O340 2.160 . S
Mn337 O341 2.221 . S
Mn337 O343 2.163 . S
Mn337 O345 2.160 . S
Mn337 O355 2.221 . S
O338 Mn339 2.087 . S
O338 C350 1.256 . S
Mn339 O338 2.087 . S
Mn339 O346 2.089 . S
Mn339 O355 2.290 . S
Mn339 O356 2.251 . S
O340 Mn337 2.160 . S
O340 C351 1.239 . S
O341 Mn337 2.221 . S
O341 Mn342 2.290 . S
O341 C352 1.278 . S
Mn342 O341 2.290 . S
Mn342 O344 2.089 . S
Mn342 O347 2.251 . S
Mn342 O348 2.087 1_556 S
O343 Mn337 2.163 . S
O343 C353 1.244 1_556 S
O344 Mn342 2.089 . S
O344 C351 1.256 . S
O345 Mn337 2.160 . S
O345 C354 1.239 . S
O346 Mn339 2.089 . S
O346 C354 1.256 . S
O347 Mn342 2.251 . S
O347 C352 1.241 . S
O348 Mn342 2.087 1_554 S
O348 C353 1.256 . S
C349 O355 1.278 . S
C349 O356 1.241 . S
C350 O336 1.244 . S
C350 O338 1.256 . S
C351 O340 1.239 . S
C351 O344 1.256 . S
C352 O341 1.278 . S
C352 O347 1.241 . S
C353 O343 1.244 1_554 S
C353 O348 1.256 . S
C354 O345 1.239 . S
C354 O346 1.256 . S
O355 Mn337 2.221 . S
O355 Mn339 2.290 . S
O355 C349 1.278 . S
O356 Mn339 2.251 . S
O356 C349 1.241 . S
O357 Mn358 2.163 1_545 S
O357 C371 1.244 1_545 S
Mn358 O357 2.163 1_565 S
Mn358 O361 2.160 . S
Mn358 O362 2.221 1_565 S
Mn358 O364 2.163 . S
Mn358 O366 2.160 . S
Mn358 O376 2.221 . S
O359 Mn360 2.087 . S
O359 C371 1.256 . S
Mn360 O359 2.087 . S
Mn360 O367 2.089 . S
Mn360 O376 2.290 . S
Mn360 O377 2.251 . S
O361 Mn358 2.160 . S
O361 C372 1.239 1_565 S
O362 Mn358 2.221 1_545 S
O362 Mn363 2.290 . S
O362 C373 1.278 . S
Mn363 O362 2.290 . S
Mn363 O365 2.089 . S
Mn363 O368 2.251 . S
Mn363 O369 2.087 1_556 S
O364 Mn358 2.163 . S
O364 C374 1.244 1_566 S
O365 Mn363 2.089 . S
O365 C372 1.256 . S
O366 Mn358 2.160 . S
O366 C375 1.239 . S
O367 Mn360 2.089 . S
O367 C375 1.256 . S
O368 Mn363 2.251 . S
O368 C373 1.241 . S
O369 Mn363 2.087 1_554 S
O369 C374 1.256 . S
C370 O376 1.278 . S
C370 O377 1.241 . S
C371 O357 1.244 1_565 S
C371 O359 1.256 . S
C372 O361 1.239 1_545 S
C372 O365 1.256 . S
C373 O362 1.278 . S
C373 O368 1.241 . S
C374 O364 1.244 1_544 S
C374 O369 1.256 . S
C375 O366 1.239 . S
C375 O367 1.256 . S
O376 Mn358 2.221 . S
O376 Mn360 2.290 . S
O376 C370 1.278 . S
O377 Mn360 2.251 . S
O377 C370 1.241 . S
O378 Mn379 2.163 1_545 S
O378 C392 1.244 1_545 S
Mn379 O378 2.163 1_565 S
Mn379 O382 2.160 . S
Mn379 O383 2.221 1_565 S
Mn379 O385 2.163 . S
Mn379 O387 2.160 . S
Mn379 O397 2.221 . S
O380 Mn381 2.087 . S
O380 C392 1.256 . S
Mn381 O380 2.087 . S
Mn381 O388 2.089 . S
Mn381 O397 2.290 . S
Mn381 O398 2.251 . S
O382 Mn379 2.160 . S
O382 C393 1.239 1_565 S
O383 Mn379 2.221 1_545 S
O383 Mn384 2.290 . S
O383 C394 1.278 . S
Mn384 O383 2.290 . S
Mn384 O386 2.089 . S
Mn384 O389 2.251 . S
Mn384 O390 2.087 . S
O385 Mn379 2.163 . S
O385 C395 1.244 1_565 S
O386 Mn384 2.089 . S
O386 C393 1.256 . S
O387 Mn379 2.160 . S
O387 C396 1.239 . S
O388 Mn381 2.089 . S
O388 C396 1.256 . S
O389 Mn384 2.251 . S
O389 C394 1.241 . S
O390 Mn384 2.087 . S
O390 C395 1.256 . S
C391 O397 1.278 . S
C391 O398 1.241 . S
C392 O378 1.244 1_565 S
C392 O380 1.256 . S
C393 O382 1.239 1_545 S
C393 O386 1.256 . S
C394 O383 1.278 . S
C394 O389 1.241 . S
C395 O385 1.244 1_545 S
C395 O390 1.256 . S
C396 O387 1.239 . S
C396 O388 1.256 . S
O397 Mn379 2.221 . S
O397 Mn381 2.290 . S
O397 C391 1.278 . S
O398 Mn381 2.251 . S
O398 C391 1.241 . S
O399 Mn400 2.163 . S
O399 C413 1.244 . S
Mn400 O399 2.163 . S
Mn400 O403 2.160 . S
Mn400 O404 2.221 . S
Mn400 O406 2.163 . S
Mn400 O408 2.160 . S
Mn400 O418 2.221 . S
O401 Mn402 2.087 . S
O401 C413 1.256 . S
Mn402 O401 2.087 . S
Mn402 O409 2.089 . S
Mn402 O418 2.290 . S
Mn402 O419 2.251 . S
O403 Mn400 2.160 . S
O403 C414 1.239 . S
O404 Mn400 2.221 . S
O404 Mn405 2.290 . S
O404 C415 1.278 . S
Mn405 O404 2.290 . S
Mn405 O407 2.089 . S
Mn405 O410 2.251 . S
Mn405 O411 2.087 . S
O406 Mn400 2.163 . S
O406 C416 1.244 . S
O407 Mn405 2.089 . S
O407 C414 1.256 . S
O408 Mn400 2.160 . S
O408 C417 1.239 . S
O409 Mn402 2.089 . S
O409 C417 1.256 . S
O410 Mn405 2.251 . S
O410 C415 1.241 . S
O411 Mn405 2.087 . S
O411 C416 1.256 . S
C412 O418 1.278 . S
C412 O419 1.241 . S
C413 O399 1.244 . S
C413 O401 1.256 . S
C414 O403 1.239 . S
C414 O407 1.256 . S
C415 O404 1.278 . S
C415 O410 1.241 . S
C416 O406 1.244 . S
C416 O411 1.256 . S
C417 O408 1.239 . S
C417 O409 1.256 . S
O418 Mn400 2.221 . S
O418 Mn402 2.290 . S
O418 C412 1.278 . S
O419 Mn402 2.251 . S
O419 C412 1.241 . S
O420 Mn421 2.163 . S
O420 C434 1.244 . S
Mn421 O420 2.163 . S
Mn421 O424 2.160 . S
Mn421 O425 2.221 . S
Mn421 O427 2.163 . S
Mn421 O429 2.160 . S
Mn421 O439 2.221 . S
O422 Mn423 2.087 . S
O422 C434 1.256 . S
Mn423 O422 2.087 . S
Mn423 O430 2.089 . S
Mn423 O439 2.290 . S
Mn423 O440 2.251 . S
O424 Mn421 2.160 . S
O424 C435 1.239 . S
O425 Mn421 2.221 . S
O425 Mn426 2.290 . S
O425 C436 1.278 . S
Mn426 O425 2.290 . S
Mn426 O428 2.089 . S
Mn426 O431 2.251 . S
Mn426 O432 2.087 1_554 S
O427 Mn421 2.163 . S
O427 C437 1.244 1_554 S
O428 Mn426 2.089 . S
O428 C435 1.256 . S
O429 Mn421 2.160 . S
O429 C438 1.239 . S
O430 Mn423 2.089 . S
O430 C438 1.256 . S
O431 Mn426 2.251 . S
O431 C436 1.241 . S
O432 Mn426 2.087 1_556 S
O432 C437 1.256 . S
C433 O439 1.278 . S
C433 O440 1.241 . S
C434 O420 1.244 . S
C434 O422 1.256 . S
C435 O424 1.239 . S
C435 O428 1.256 . S
C436 O425 1.278 . S
C436 O431 1.241 . S
C437 O427 1.244 1_556 S
C437 O432 1.256 . S
C438 O429 1.239 . S
C438 O430 1.256 . S
O439 Mn421 2.221 . S
O439 Mn423 2.290 . S
O439 C433 1.278 . S
O440 Mn423 2.251 . S
O440 C433 1.241 . S
O441 Mn442 2.163 1_565 S
O441 C455 1.244 1_565 S
Mn442 O441 2.163 1_545 S
Mn442 O445 2.160 . S
Mn442 O446 2.221 1_545 S
Mn442 O448 2.163 . S
Mn442 O450 2.160 . S
Mn442 O460 2.221 . S
O443 Mn444 2.087 . S
O443 C455 1.256 . S
Mn444 O443 2.087 . S
Mn444 O451 2.089 . S
Mn444 O460 2.290 . S
Mn444 O461 2.251 . S
O445 Mn442 2.160 . S
O445 C456 1.239 1_545 S
O446 Mn442 2.221 1_565 S
O446 Mn447 2.290 . S
O446 C457 1.278 . S
Mn447 O446 2.290 . S
Mn447 O449 2.089 . S
Mn447 O452 2.251 . S
Mn447 O453 2.087 1_554 S
O448 Mn442 2.163 . S
O448 C458 1.244 1_544 S
O449 Mn447 2.089 . S
O449 C456 1.256 . S
O450 Mn442 2.160 . S
O450 C459 1.239 . S
O451 Mn444 2.089 . S
O451 C459 1.256 . S
O452 Mn447 2.251 . S
O452 C457 1.241 . S
O453 Mn447 2.087 1_556 S
O453 C458 1.256 . S
C454 O460 1.278 . S
C454 O461 1.241 . S
C455 O441 1.244 1_545 S
C455 O443 1.256 . S
C456 O445 1.239 1_565 S
C456 O449 1.256 . S
C457 O446 1.278 . S
C457 O452 1.241 . S
C458 O448 1.244 1_566 S
C458 O453 1.256 . S
C459 O450 1.239 . S
C459 O451 1.256 . S
O460 Mn442 2.221 . S
O460 Mn444 2.290 . S
O460 C454 1.278 . S
O461 Mn444 2.251 . S
O461 C454 1.241 . S
O462 Mn463 2.163 1_565 S
O462 C476 1.244 1_565 S
Mn463 O462 2.163 1_545 S
Mn463 O466 2.160 . S
Mn463 O467 2.221 1_545 S
Mn463 O469 2.163 . S
Mn463 O471 2.160 . S
Mn463 O481 2.221 . S
O464 Mn465 2.087 . S
O464 C476 1.256 . S
Mn465 O464 2.087 . S
Mn465 O472 2.089 . S
Mn465 O481 2.290 . S
Mn465 O482 2.251 . S
O466 Mn463 2.160 . S
O466 C477 1.239 1_545 S
O467 Mn463 2.221 1_565 S
O467 Mn468 2.290 . S
O467 C478 1.278 . S
Mn468 O467 2.290 . S
Mn468 O470 2.089 . S
Mn468 O473 2.251 . S
Mn468 O474 2.087 . S
O469 Mn463 2.163 . S
O469 C479 1.244 1_545 S
O470 Mn468 2.089 . S
O470 C477 1.256 . S
O471 Mn463 2.160 . S
O471 C480 1.239 . S
O472 Mn465 2.089 . S
O472 C480 1.256 . S
O473 Mn468 2.251 . S
O473 C478 1.241 . S
O474 Mn468 2.087 . S
O474 C479 1.256 . S
C475 O481 1.278 . S
C475 O482 1.241 . S
C476 O462 1.244 1_545 S
C476 O464 1.256 . S
C477 O466 1.239 1_565 S
C477 O470 1.256 . S
C478 O467 1.278 . S
C478 O473 1.241 . S
C479 O469 1.244 1_565 S
C479 O474 1.256 . S
C480 O471 1.239 . S
C480 O472 1.256 . S
O481 Mn463 2.221 . S
O481 Mn465 2.290 . S
O481 C475 1.278 . S
O482 Mn465 2.251 . S
O482 C475 1.241 . S
O483 Mn484 2.163 . S
O483 C497 1.244 . S
Mn484 O483 2.163 . S
Mn484 O487 2.160 . S
Mn484 O488 2.221 . S
Mn484 O490 2.163 . S
Mn484 O492 2.160 . S
Mn484 O502 2.221 . S
O485 Mn486 2.087 . S
O485 C497 1.256 . S
Mn486 O485 2.087 . S
Mn486 O493 2.089 . S
Mn486 O502 2.290 . S
Mn486 O503 2.251 . S
O487 Mn484 2.160 . S
O487 C498 1.239 . S
O488 Mn484 2.221 . S
O488 Mn489 2.290 . S
O488 C499 1.278 . S
Mn489 O488 2.290 . S
Mn489 O491 2.089 . S
Mn489 O494 2.251 . S
Mn489 O495 2.087 . S
O490 Mn484 2.163 . S
O490 C500 1.244 . S
O491 Mn489 2.089 . S
O491 C498 1.256 . S
O492 Mn484 2.160 . S
O492 C501 1.239 . S
O493 Mn486 2.089 . S
O493 C501 1.256 . S
O494 Mn489 2.251 . S
O494 C499 1.241 . S
O495 Mn489 2.087 . S
O495 C500 1.256 . S
C496 O502 1.278 . S
C496 O503 1.241 . S
C497 O483 1.244 . S
C497 O485 1.256 . S
C498 O487 1.239 . S
C498 O491 1.256 . S
C499 O488 1.278 . S
C499 O494 1.241 . S
C500 O490 1.244 . S
C500 O495 1.256 . S
C501 O492 1.239 . S
C501 O493 1.256 . S
O502 Mn484 2.221 . S
O502 Mn486 2.290 . S
O502 C496 1.278 . S
O503 Mn486 2.251 . S
O503 C496 1.241 . S
O504 Mn505 2.163 . S
O504 C518 1.244 . S
Mn505 O504 2.163 . S
Mn505 O508 2.160 . S
Mn505 O509 2.221 . S
Mn505 O511 2.163 . S
Mn505 O513 2.160 1_554 S
Mn505 O523 2.221 . S
O506 Mn507 2.087 1_554 S
O506 C518 1.256 . S
Mn507 O506 2.087 1_556 S
Mn507 O514 2.089 . S
Mn507 O523 2.290 1_556 S
Mn507 O524 2.251 1_556 S
O508 Mn505 2.160 . S
O508 C519 1.239 . S
O509 Mn505 2.221 . S
O509 Mn510 2.290 . S
O509 C520 1.278 . S
Mn510 O509 2.290 . S
Mn510 O512 2.089 . S
Mn510 O515 2.251 . S
Mn510 O516 2.087 . S
O511 Mn505 2.163 . S
O511 C521 1.244 . S
O512 Mn510 2.089 . S
O512 C519 1.256 . S
O513 Mn505 2.160 1_556 S
O513 C522 1.239 . S
O514 Mn507 2.089 . S
O514 C522 1.256 . S
O515 Mn510 2.251 . S
O515 C520 1.241 . S
O516 Mn510 2.087 . S
O516 C521 1.256 . S
C517 O523 1.278 . S
C517 O524 1.241 . S
C518 O504 1.244 . S
C518 O506 1.256 . S
C519 O508 1.239 . S
C519 O512 1.256 . S
C520 O509 1.278 . S
C520 O515 1.241 . S
C521 O511 1.244 . S
C521 O516 1.256 . S
C522 O513 1.239 . S
C522 O514 1.256 . S
O523 Mn505 2.221 . S
O523 Mn507 2.290 1_554 S
O523 C517 1.278 . S
O524 Mn507 2.251 1_554 S
O524 C517 1.241 . S
O525 Mn526 2.163 . S
O525 C539 1.244 . S
Mn526 O525 2.163 . S
Mn526 O529 2.160 . S
Mn526 O530 2.221 . S
Mn526 O532 2.163 . S
Mn526 O534 2.160 1_554 S
Mn526 O544 2.221 . S
O527 Mn528 2.087 1_554 S
O527 C539 1.256 . S
Mn528 O527 2.087 1_556 S
Mn528 O535 2.089 . S
Mn528 O544 2.290 1_556 S
Mn528 O545 2.251 1_556 S
O529 Mn526 2.160 . S
O529 C540 1.239 . S
O530 Mn526 2.221 . S
O530 Mn531 2.290 . S
O530 C541 1.278 . S
Mn531 O530 2.290 . S
Mn531 O533 2.089 . S
Mn531 O536 2.251 . S
Mn531 O537 2.087 . S
O532 Mn526 2.163 . S
O532 C542 1.244 . S
O533 Mn531 2.089 . S
O533 C540 1.256 . S
O534 Mn526 2.160 1_556 S
O534 C543 1.239 . S
O535 Mn528 2.089 . S
O535 C543 1.256 . S
O536 Mn531 2.251 . S
O536 C541 1.241 . S
O537 Mn531 2.087 . S
O537 C542 1.256 . S
C538 O544 1.278 . S
C538 O545 1.241 . S
C539 O525 1.244 . S
C539 O527 1.256 . S
C540 O529 1.239 . S
C540 O533 1.256 . S
C541 O530 1.278 . S
C541 O536 1.241 . S
C542 O532 1.244 . S
C542 O537 1.256 . S
C543 O534 1.239 . S
C543 O535 1.256 . S
O544 Mn526 2.221 . S
O544 Mn528 2.290 1_554 S
O544 C538 1.278 . S
O545 Mn528 2.251 1_554 S
O545 C538 1.241 . S
O546 Mn547 2.163 . S
O546 C560 1.244 . S
Mn547 O546 2.163 . S
Mn547 O550 2.160 . S
Mn547 O551 2.221 . S
Mn547 O553 2.163 1_554 S
Mn547 O555 2.160 . S
Mn547 O565 2.221 . S
O548 Mn549 2.087 . S
O548 C560 1.256 . S
Mn549 O548 2.087 . S
Mn549 O556 2.089 . S
Mn549 O565 2.290 . S
Mn549 O566 2.251 . S
O550 Mn547 2.160 . S
O550 C561 1.239 1_554 S
O551 Mn547 2.221 . S
O551 Mn552 2.290 1_554 S
O551 C562 1.278 . S
Mn552 O551 2.290 1_556 S
Mn552 O554 2.089 . S
Mn552 O557 2.251 . S
Mn552 O558 2.087 . S
O553 Mn547 2.163 1_556 S
O553 C563 1.244 . S
O554 Mn552 2.089 . S
O554 C561 1.256 . S
O555 Mn547 2.160 . S
O555 C564 1.239 . S
O556 Mn549 2.089 . S
O556 C564 1.256 . S
O557 Mn552 2.251 . S
O557 C562 1.241 1_556 S
O558 Mn552 2.087 . S
O558 C563 1.256 . S
C559 O565 1.278 1_556 S
C559 O566 1.241 1_556 S
C560 O546 1.244 . S
C560 O548 1.256 . S
C561 O550 1.239 1_556 S
C561 O554 1.256 . S
C562 O551 1.278 . S
C562 O557 1.241 1_554 S
C563 O553 1.244 . S
C563 O558 1.256 . S
C564 O555 1.239 . S
C564 O556 1.256 . S
O565 Mn547 2.221 . S
O565 Mn549 2.290 . S
O565 C559 1.278 1_554 S
O566 Mn549 2.251 . S
O566 C559 1.241 1_554 S
O567 Mn568 2.163 . S
O567 C581 1.244 . S
Mn568 O567 2.163 . S
Mn568 O571 2.160 . S
Mn568 O572 2.221 . S
Mn568 O574 2.163 1_554 S
Mn568 O576 2.160 . S
Mn568 O586 2.221 . S
O569 Mn570 2.087 . S
O569 C581 1.256 . S
Mn570 O569 2.087 . S
Mn570 O577 2.089 . S
Mn570 O586 2.290 . S
Mn570 O587 2.251 . S
O571 Mn568 2.160 . S
O571 C582 1.239 1_554 S
O572 Mn568 2.221 . S
O572 Mn573 2.290 1_554 S
O572 C583 1.278 . S
Mn573 O572 2.290 1_556 S
Mn573 O575 2.089 . S
Mn573 O578 2.251 . S
Mn573 O579 2.087 . S
O574 Mn568 2.163 1_556 S
O574 C584 1.244 . S
O575 Mn573 2.089 . S
O575 C582 1.256 . S
O576 Mn568 2.160 . S
O576 C585 1.239 . S
O577 Mn570 2.089 . S
O577 C585 1.256 . S
O578 Mn573 2.251 . S
O578 C583 1.241 1_556 S
O579 Mn573 2.087 . S
O579 C584 1.256 . S
C580 O586 1.278 1_556 S
C580 O587 1.241 1_556 S
C581 O567 1.244 . S
C581 O569 1.256 . S
C582 O571 1.239 1_556 S
C582 O575 1.256 . S
C583 O572 1.278 . S
C583 O578 1.241 1_554 S
C584 O574 1.244 . S
C584 O579 1.256 . S
C585 O576 1.239 . S
C585 O577 1.256 . S
O586 Mn568 2.221 . S
O586 Mn570 2.290 . S
O586 C580 1.278 1_554 S
O587 Mn570 2.251 . S
O587 C580 1.241 1_554 S
O588 Mn589 2.163 . S
O588 C602 1.244 . S
Mn589 O588 2.163 . S
Mn589 O592 2.160 . S
Mn589 O593 2.221 . S
Mn589 O595 2.163 . S
Mn589 O597 2.160 1_556 S
Mn589 O607 2.221 . S
O590 Mn591 2.087 1_556 S
O590 C602 1.256 . S
Mn591 O590 2.087 1_554 S
Mn591 O598 2.089 . S
Mn591 O607 2.290 1_554 S
Mn591 O608 2.251 1_554 S
O592 Mn589 2.160 . S
O592 C603 1.239 . S
O593 Mn589 2.221 . S
O593 Mn594 2.290 . S
O593 C604 1.278 . S
Mn594 O593 2.290 . S
Mn594 O596 2.089 . S
Mn594 O599 2.251 . S
Mn594 O600 2.087 . S
O595 Mn589 2.163 . S
O595 C605 1.244 . S
O596 Mn594 2.089 . S
O596 C603 1.256 . S
O597 Mn589 2.160 1_554 S
O597 C606 1.239 . S
O598 Mn591 2.089 . S
O598 C606 1.256 . S
O599 Mn594 2.251 . S
O599 C604 1.241 . S
O600 Mn594 2.087 . S
O600 C605 1.256 . S
C601 O607 1.278 . S
C601 O608 1.241 . S
C602 O588 1.244 . S
C602 O590 1.256 . S
C603 O592 1.239 . S
C603 O596 1.256 . S
C604 O593 1.278 . S
C604 O599 1.241 . S
C605 O595 1.244 . S
C605 O600 1.256 . S
C606 O597 1.239 . S
C606 O598 1.256 . S
O607 Mn589 2.221 . S
O607 Mn591 2.290 1_556 S
O607 C601 1.278 . S
O608 Mn591 2.251 1_556 S
O608 C601 1.241 . S
O609 Mn610 2.163 . S
O609 C623 1.244 . S
Mn610 O609 2.163 . S
Mn610 O613 2.160 . S
Mn610 O614 2.221 . S
Mn610 O616 2.163 . S
Mn610 O618 2.160 1_556 S
Mn610 O628 2.221 . S
O611 Mn612 2.087 1_556 S
O611 C623 1.256 . S
Mn612 O611 2.087 1_554 S
Mn612 O619 2.089 . S
Mn612 O628 2.290 1_554 S
Mn612 O629 2.251 1_554 S
O613 Mn610 2.160 . S
O613 C624 1.239 . S
O614 Mn610 2.221 . S
O614 Mn615 2.290 . S
O614 C625 1.278 . S
Mn615 O614 2.290 . S
Mn615 O617 2.089 . S
Mn615 O620 2.251 . S
Mn615 O621 2.087 . S
O616 Mn610 2.163 . S
O616 C626 1.244 . S
O617 Mn615 2.089 . S
O617 C624 1.256 . S
O618 Mn610 2.160 1_554 S
O618 C627 1.239 . S
O619 Mn612 2.089 . S
O619 C627 1.256 . S
O620 Mn615 2.251 . S
O620 C625 1.241 . S
O621 Mn615 2.087 . S
O621 C626 1.256 . S
C622 O628 1.278 . S
C622 O629 1.241 . S
C623 O609 1.244 . S
C623 O611 1.256 . S
C624 O613 1.239 . S
C624 O617 1.256 . S
C625 O614 1.278 . S
C625 O620 1.241 . S
C626 O616 1.244 . S
C626 O621 1.256 . S
C627 O618 1.239 . S
C627 O619 1.256 . S
O628 Mn610 2.221 . S
O628 Mn612 2.290 1_556 S
O628 C622 1.278 . S
O629 Mn612 2.251 1_556 S
O629 C622 1.241 . S
O630 Mn631 2.163 . S
O630 C644 1.244 . S
Mn631 O630 2.163 . S
Mn631 O634 2.160 . S
Mn631 O635 2.221 . S
Mn631 O637 2.163 1_556 S
Mn631 O639 2.160 . S
Mn631 O649 2.221 . S
O632 Mn633 2.087 . S
O632 C644 1.256 . S
Mn633 O632 2.087 . S
Mn633 O640 2.089 . S
Mn633 O649 2.290 . S
Mn633 O650 2.251 . S
O634 Mn631 2.160 . S
O634 C645 1.239 1_556 S
O635 Mn631 2.221 . S
O635 Mn636 2.290 1_556 S
O635 C646 1.278 . S
Mn636 O635 2.290 1_554 S
Mn636 O638 2.089 . S
Mn636 O641 2.251 . S
Mn636 O642 2.087 . S
O637 Mn631 2.163 1_554 S
O637 C647 1.244 . S
O638 Mn636 2.089 . S
O638 C645 1.256 . S
O639 Mn631 2.160 . S
O639 C648 1.239 . S
O640 Mn633 2.089 . S
O640 C648 1.256 . S
O641 Mn636 2.251 . S
O641 C646 1.241 1_554 S
O642 Mn636 2.087 . S
O642 C647 1.256 . S
C643 O649 1.278 1_554 S
C643 O650 1.241 1_554 S
C644 O630 1.244 . S
C644 O632 1.256 . S
C645 O634 1.239 1_554 S
C645 O638 1.256 . S
C646 O635 1.278 . S
C646 O641 1.241 1_556 S
C647 O637 1.244 . S
C647 O642 1.256 . S
C648 O639 1.239 . S
C648 O640 1.256 . S
O649 Mn631 2.221 . S
O649 Mn633 2.290 . S
O649 C643 1.278 1_556 S
O650 Mn633 2.251 . S
O650 C643 1.241 1_556 S
O651 Mn652 2.163 . S
O651 C665 1.244 . S
Mn652 O651 2.163 . S
Mn652 O655 2.160 . S
Mn652 O656 2.221 . S
Mn652 O658 2.163 1_556 S
Mn652 O660 2.160 . S
Mn652 O670 2.221 . S
O653 Mn654 2.087 . S
O653 C665 1.256 . S
Mn654 O653 2.087 . S
Mn654 O661 2.089 . S
Mn654 O670 2.290 . S
Mn654 O671 2.251 . S
O655 Mn652 2.160 . S
O655 C666 1.239 1_556 S
O656 Mn652 2.221 . S
O656 Mn657 2.290 1_556 S
O656 C667 1.278 . S
Mn657 O656 2.290 1_554 S
Mn657 O659 2.089 . S
Mn657 O662 2.251 . S
Mn657 O663 2.087 . S
O658 Mn652 2.163 1_554 S
O658 C668 1.244 . S
O659 Mn657 2.089 . S
O659 C666 1.256 . S
O660 Mn652 2.160 . S
O660 C669 1.239 . S
O661 Mn654 2.089 . S
O661 C669 1.256 . S
O662 Mn657 2.251 . S
O662 C667 1.241 1_554 S
O663 Mn657 2.087 . S
O663 C668 1.256 . S
C664 O670 1.278 1_554 S
C664 O671 1.241 1_554 S
C665 O651 1.244 . S
C665 O653 1.256 . S
C666 O655 1.239 1_554 S
C666 O659 1.256 . S
C667 O656 1.278 . S
C667 O662 1.241 1_556 S
C668 O658 1.244 . S
C668 O663 1.256 . S
C669 O660 1.239 . S
C669 O661 1.256 . S
O670 Mn652 2.221 . S
O670 Mn654 2.290 . S
O670 C664 1.278 1_556 S
O671 Mn654 2.251 . S
O671 C664 1.241 1_556 S
C602 C14 1.544 1_556 S
C119 C35 1.543 1_446 S
C476 C56 1.544 1_545 S
C329 C77 1.544 1_455 S
C98 C518 1.544 1_556 S
C392 C140 1.544 1_565 S
C245 C161 1.544 1_655 S
C434 C182 1.544 . S
C203 C287 1.544 1_655 S
C224 C644 1.544 . S
C350 C266 1.544 . S
C308 C560 1.544 . S
C371 C455 1.544 1_565 S
C413 C665 1.543 . S
C581 C497 1.543 . S
C623 C539 1.544 1_556 S
C414 C15 1.296 . S
C393 C36 1.296 . S
C372 C57 1.296 . S
C351 C78 1.296 . S
C498 C99 1.296 . S
C120 C477 1.296 . S
C141 C456 1.296 . S
C162 C435 1.296 . S
C183 C582 1.296 . S
C204 C561 1.296 . S
C225 C540 1.296 . S
C519 C246 1.296 . S
C267 C666 1.296 . S
C288 C645 1.296 . S
C309 C624 1.296 . S
C603 C330 1.296 . S
C17 C18 1.399 . S
C38 C39 1.399 1_545 S
C60 C59 1.399 1_565 S
C81 C80 1.399 . S
C102 C101 1.399 . S
C123 C122 1.399 1_545 S
C144 C143 1.399 1_545 S
C164 C165 1.399 . S
C185 C186 1.399 . S
C207 C206 1.399 . S
C228 C227 1.399 1_556 S
C249 C248 1.399 1_556 S
C270 C269 1.399 . S
C290 C291 1.399 . S
C312 C311 1.399 1_554 S
C332 C333 1.399 1_556 S
C353 C354 1.399 . S
C375 C374 1.399 1_565 S
C396 C395 1.399 1_566 S
C417 C416 1.399 1_556 S
C437 C438 1.399 . S
C459 C458 1.399 1_545 S
C479 C480 1.399 1_566 S
C500 C501 1.399 1_556 S
C521 C522 1.399 . S
C543 C542 1.399 . S
C564 C563 1.399 . S
C584 C585 1.399 . S
C606 C605 1.399 . S
C626 C627 1.399 . S
C647 C648 1.399 . S
C668 C669 1.399 . S
C223 C13 1.618 . S
C244 C34 1.618 . S
C55 C181 1.618 . S
C202 C76 1.618 . S
C97 C307 1.618 . S
C118 C328 1.618 . S
C139 C265 1.618 . S
C160 C286 1.618 . S
C559 C349 1.618 . S
C370 C580 1.618 . S
C517 C391 1.618 . S
C412 C538 1.618 . S
C643 C433 1.618 . S
C454 C664 1.618 . S
C475 C601 1.618 . S
C622 C496 1.618 . S
C16 C58 1.407 . S
C79 C37 1.407 . S
C142 C100 1.407 . S
C121 C163 1.407 . S
C184 C226 1.407 . S
C247 C205 1.407 . S
C310 C268 1.407 . S
C331 C289 1.407 . S
C394 C352 1.407 . S
C415 C373 1.407 . S
C478 C436 1.407 . S
C499 C457 1.407 . S
C520 C562 1.407 . S
C541 C583 1.407 . S
C604 C646 1.407 . S
C667 C625 1.407 . S
