# Generated by pormake.
# Topology ukf, (4)-cn, num edge types: 1
# Building blocks:
#     Node 0, Type 0, BuildingBlock: ESEHIV_clean_sbu_0, # of connection points: 4
#     Node 1, Type 0, BuildingBlock: ESEHIV_clean_sbu_0, # of connection points: 4
#     Node 2, Type 0, BuildingBlock: ESEHIV_clean_sbu_0, # of connection points: 4
#     Node 3, Type 0, BuildingBlock: ESEHIV_clean_sbu_0, # of connection points: 4
#     Node 4, Type 0, BuildingBlock: ESEHIV_clean_sbu_0, # of connection points: 4
#     Node 5, Type 0, BuildingBlock: ESEHIV_clean_sbu_0, # of connection points: 4
#     Node 6, Type 0, BuildingBlock: ESEHIV_clean_sbu_0, # of connection points: 4
#     Node 7, Type 0, BuildingBlock: ESEHIV_clean_sbu_0, # of connection points: 4
#     Node 8, Type 0, BuildingBlock: ESEHIV_clean_sbu_0, # of connection points: 4
#     Node 9, Type 0, BuildingBlock: ESEHIV_clean_sbu_0, # of connection points: 4
#     Node 10, Type 0, BuildingBlock: ESEHIV_clean_sbu_0, # of connection points: 4
#     Node 11, Type 0, BuildingBlock: ESEHIV_clean_sbu_0, # of connection points: 4
#     Edge 12, Type (0, 0), BuildingBlock: EZIPEK_clean_linker_0, # of connection points: 2
#     Edge 13, Type (0, 0), BuildingBlock: EZIPEK_clean_linker_0, # of connection points: 2
#     Edge 14, Type (0, 0), BuildingBlock: EZIPEK_clean_linker_0, # of connection points: 2
#     Edge 15, Type (0, 0), BuildingBlock: EZIPEK_clean_linker_0, # of connection points: 2
#     Edge 16, Type (0, 0), BuildingBlock: EZIPEK_clean_linker_0, # of connection points: 2
#     Edge 17, Type (0, 0), BuildingBlock: EZIPEK_clean_linker_0, # of connection points: 2
#     Edge 18, Type (0, 0), BuildingBlock: EZIPEK_clean_linker_0, # of connection points: 2
#     Edge 19, Type (0, 0), BuildingBlock: EZIPEK_clean_linker_0, # of connection points: 2
#     Edge 20, Type (0, 0), BuildingBlock: EZIPEK_clean_linker_0, # of connection points: 2
#     Edge 21, Type (0, 0), BuildingBlock: EZIPEK_clean_linker_0, # of connection points: 2
#     Edge 22, Type (0, 0), BuildingBlock: EZIPEK_clean_linker_0, # of connection points: 2
#     Edge 23, Type (0, 0), BuildingBlock: EZIPEK_clean_linker_0, # of connection points: 2
#     Edge 24, Type (0, 0), BuildingBlock: EZIPEK_clean_linker_0, # of connection points: 2
#     Edge 25, Type (0, 0), BuildingBlock: EZIPEK_clean_linker_0, # of connection points: 2
#     Edge 26, Type (0, 0), BuildingBlock: EZIPEK_clean_linker_0, # of connection points: 2
#     Edge 27, Type (0, 0), BuildingBlock: EZIPEK_clean_linker_0, # of connection points: 2
#     Edge 28, Type (0, 0), BuildingBlock: EZIPEK_clean_linker_0, # of connection points: 2
#     Edge 29, Type (0, 0), BuildingBlock: EZIPEK_clean_linker_0, # of connection points: 2
#     Edge 30, Type (0, 0), BuildingBlock: EZIPEK_clean_linker_0, # of connection points: 2
#     Edge 31, Type (0, 0), BuildingBlock: EZIPEK_clean_linker_0, # of connection points: 2
#     Edge 32, Type (0, 0), BuildingBlock: EZIPEK_clean_linker_0, # of connection points: 2
#     Edge 33, Type (0, 0), BuildingBlock: EZIPEK_clean_linker_0, # of connection points: 2
#     Edge 34, Type (0, 0), BuildingBlock: EZIPEK_clean_linker_0, # of connection points: 2
#     Edge 35, Type (0, 0), BuildingBlock: EZIPEK_clean_linker_0, # of connection points: 2
# Relax obj value: 0.082
# Max RMSD: 0.295
# Mean RMSD: 0.294
data_MOF--net-ukf--node1-ESEHIV_clean_sbu_0--edge1-EZIPEK_clean_linker_0
_symmetry_space_group_name_H-M    P1
_symmetry_Int_Tables_number       1
_symmetry_cell_setting            triclinic
loop_
_symmetry_equiv_pos_as_xyz
'x, y, z'
_cell_length_a     27.952636
_cell_length_b     28.147211
_cell_length_c     51.03786
_cell_angle_alpha  90.166236
_cell_angle_beta   89.474584
_cell_angle_gamma 119.87156
loop_
_atom_site_label
_atom_site_type_symbol
_atom_site_fract_x
_atom_site_fract_y
_atom_site_fract_z
_atom_type_partial_charge
Cu0 Cu 0.50593 0.27693 0.0827 0.0
N1 N 0.44468 0.21086 0.0723 0.0
N2 N 0.39014 0.13053 0.05304 0.0
C3 C 0.44231 0.17235 0.05568 0.0
C4 C 0.35856 0.14298 0.06845 0.0
C5 C 0.39232 0.19254 0.0803 0.0
O6 O 0.57311 0.28674 0.06628 0.0
C7 C 0.49459 0.2375 0.13513 0.0
O8 O 0.47286 0.18873 0.1244 0.0
H9 H 0.47773 0.17486 0.04562 0.0
H10 H 0.37968 0.21399 0.0938 0.0
N11 N 0.49598 0.33487 0.07224 0.0
N12 N 0.5099 0.41944 0.06693 0.0
C13 C 0.53047 0.38866 0.07642 0.0
C14 C 0.4524 0.33175 0.05961 0.0
C15 C 0.46085 0.38402 0.05634 0.0
C16 C 0.58889 0.25158 0.06777 0.0
O17 O 0.55962 0.20655 0.08146 0.0
H18 H 0.56951 0.40492 0.08642 0.0
H19 H 0.41681 0.2941 0.05333 0.0
O20 O 0.51208 0.27984 0.12071 0.0
H21 H 0.31432 0.11783 0.07095 0.0
H22 H 0.43328 0.39529 0.04703 0.0
Cu23 Cu 0.24824 0.47752 0.41964 0.0
N24 N 0.17878 0.46605 0.41071 0.0
N25 N 0.10691 0.47908 0.40588 0.0
C26 C 0.1522 0.49154 0.42009 0.0
C27 C 0.10462 0.44423 0.38713 0.0
C28 C 0.14904 0.43631 0.39015 0.0
O29 O 0.25557 0.48086 0.45757 0.0
C30 C 0.35236 0.56271 0.39954 0.0
O31 O 0.37549 0.53933 0.41252 0.0
H32 H 0.16709 0.52065 0.43606 0.0
H33 H 0.16037 0.41253 0.3775 0.0
N34 N 0.25299 0.41694 0.40791 0.0
N35 N 0.27768 0.36189 0.38774 0.0
C36 C 0.28993 0.41422 0.39165 0.0
C37 C 0.21668 0.3647 0.41442 0.0
C38 C 0.23179 0.33062 0.402 0.0
C39 C 0.26457 0.52141 0.47197 0.0
O40 O 0.27234 0.56707 0.4612 0.0
H41 H 0.32476 0.44937 0.38275 0.0
H42 H 0.1814 0.35236 0.42724 0.0
O43 O 0.30064 0.54379 0.40125 0.0
H44 H 0.07399 0.42728 0.37185 0.0
H45 H 0.21088 0.28636 0.40329 0.0
Cu46 Cu 0.79463 0.24975 0.75372 0.0
N47 N 0.84043 0.23287 0.73337 0.0
N48 N 0.91515 0.24767 0.71038 0.0
C49 C 0.89269 0.26973 0.72634 0.0
C50 C 0.87591 0.19484 0.70732 0.0
C51 C 0.8298 0.18576 0.72157 0.0
O52 O 0.80698 0.32025 0.74169 0.0
C53 C 0.79851 0.27711 0.80702 0.0
O54 O 0.77761 0.30691 0.7986 0.0
H55 H 0.91345 0.31226 0.73229 0.0
H56 H 0.79116 0.1477 0.72283 0.0
N57 N 0.71834 0.20205 0.75062 0.0
N58 N 0.63236 0.13223 0.74593 0.0
C59 C 0.68679 0.1491 0.74333 0.0
C60 C 0.68233 0.21832 0.75793 0.0
C61 C 0.62954 0.17562 0.75507 0.0
C62 C 0.79713 0.32382 0.7177 0.0
O63 O 0.78135 0.28122 0.70229 0.0
H64 H 0.70281 0.12329 0.73656 0.0
H65 H 0.69388 0.25888 0.76494 0.0
O66 O 0.81168 0.25133 0.79063 0.0
H67 H 0.88009 0.16533 0.6953 0.0
H68 H 0.5918 0.17626 0.7592 0.0
Cu69 Cu 0.59463 0.78677 0.08754 0.0
N70 N 0.65634 0.85611 0.08234 0.0
N71 N 0.71546 0.93725 0.06473 0.0
C72 C 0.67045 0.88777 0.06071 0.0
C73 C 0.7308 0.93653 0.0896 0.0
C74 C 0.69444 0.8862 0.10036 0.0
O75 O 0.53406 0.77842 0.06564 0.0
C76 C 0.56646 0.80688 0.13925 0.0
O77 O 0.56194 0.84682 0.12858 0.0
H78 H 0.64778 0.87526 0.04257 0.0
H79 H 0.69524 0.8726 0.12005 0.0
N80 N 0.61202 0.73341 0.07757 0.0
N81 N 0.60393 0.65143 0.07099 0.0
C82 C 0.57756 0.67884 0.07773 0.0
C83 C 0.66173 0.74064 0.07046 0.0
C84 C 0.65685 0.68991 0.06639 0.0
C85 C 0.52119 0.81557 0.06274 0.0
O86 O 0.54723 0.86118 0.0762 0.0
H87 H 0.53437 0.65955 0.08321 0.0
H88 H 0.69906 0.78 0.06885 0.0
O89 O 0.57707 0.77613 0.12492 0.0
H90 H 0.76537 0.97025 0.0993 0.0
H91 H 0.68953 0.68172 0.06085 0.0
Cu92 Cu 0.8174 0.5621 0.42187 0.0
N93 N 0.88509 0.57337 0.40952 0.0
N94 N 0.95741 0.56114 0.40375 0.0
C95 C 0.91629 0.55438 0.42014 0.0
C96 C 0.95229 0.58578 0.3822 0.0
C97 C 0.90756 0.59328 0.38582 0.0
O98 O 0.81425 0.55358 0.45971 0.0
C99 C 0.71348 0.48686 0.39911 0.0
O100 O 0.69869 0.52318 0.40494 0.0
H101 H 0.90706 0.53299 0.43872 0.0
H102 H 0.89074 0.60936 0.37164 0.0
N103 N 0.80928 0.62241 0.41359 0.0
N104 N 0.78938 0.68015 0.39291 0.0
C105 C 0.79551 0.63562 0.39056 0.0
C106 C 0.81276 0.66032 0.43079 0.0
C107 C 0.80026 0.69585 0.41813 0.0
C108 C 0.76987 0.53902 0.47259 0.0
O109 O 0.72462 0.52786 0.46009 0.0
H110 H 0.78833 0.61219 0.37273 0.0
H111 H 0.82274 0.66136 0.45128 0.0
O112 O 0.76112 0.49554 0.40531 0.0
H113 H 0.9777 0.59546 0.36472 0.0
H114 H 0.79838 0.73005 0.42679 0.0
Cu115 Cu 0.28172 0.80804 0.75036 0.0
N116 N 0.22135 0.81726 0.74373 0.0
N117 N 0.14026 0.79858 0.72697 0.0
C118 C 0.188 0.79846 0.72277 0.0
C119 C 0.14389 0.81859 0.75136 0.0
C120 C 0.19398 0.8301 0.76164 0.0
O121 O 0.26495 0.73978 0.73346 0.0
C122 C 0.27319 0.76513 0.80205 0.0
O123 O 0.25494 0.71768 0.79037 0.0
H124 H 0.19655 0.78103 0.70564 0.0
H125 H 0.20772 0.84303 0.78147 0.0
N126 N 0.34614 0.86305 0.73456 0.0
N127 N 0.43068 0.93424 0.7279 0.0
C128 C 0.38871 0.90792 0.74527 0.0
C129 C 0.36185 0.86125 0.70973 0.0
C130 C 0.41404 0.90498 0.70559 0.0
C131 C 0.29734 0.72036 0.73265 0.0
O132 O 0.34339 0.74401 0.74603 0.0
H133 H 0.38958 0.9203 0.76544 0.0
H134 H 0.33745 0.82935 0.69583 0.0
O135 O 0.28928 0.80824 0.78835 0.0
H136 H 0.11142 0.8219 0.76143 0.0
H137 H 0.43819 0.91452 0.68768 0.0
Cu138 Cu 0.80235 0.58652 0.63602 0.0
N139 N 0.7407 0.58852 0.64924 0.0
N140 N 0.65305 0.56747 0.65563 0.0
C141 C 0.68877 0.56124 0.63997 0.0
C142 C 0.68365 0.60012 0.67537 0.0
C143 C 0.73773 0.61323 0.67132 0.0
O144 O 0.79725 0.58053 0.59817 0.0
C145 C 0.79945 0.51501 0.67527 0.0
O146 O 0.79252 0.54797 0.69109 0.0
H147 H 0.677 0.53588 0.6226 0.0
H148 H 0.77226 0.6378 0.68396 0.0
N149 N 0.86828 0.65052 0.64383 0.0
N150 N 0.95018 0.70785 0.66139 0.0
C151 C 0.90144 0.6611 0.66468 0.0
C152 C 0.89698 0.69218 0.627 0.0
C153 C 0.94755 0.72754 0.63774 0.0
C154 C 0.77214 0.53508 0.58613 0.0
O155 O 0.74753 0.489 0.59944 0.0
H156 H 0.8915 0.63394 0.68131 0.0
H157 H 0.88304 0.69519 0.6077 0.0
O158 O 0.80433 0.52402 0.65072 0.0
H159 H 0.66775 0.61286 0.69171 0.0
H160 H 0.98058 0.76395 0.62862 0.0
Cu161 Cu 0.26002 0.78453 0.96868 0.0
N162 N 0.26488 0.85238 0.97515 0.0
N163 N 0.29274 0.93515 0.99225 0.0
C164 C 0.30262 0.89297 0.99025 0.0
C165 C 0.24753 0.921 0.97781 0.0
C166 C 0.23046 0.86996 0.96724 0.0
O167 O 0.31175 0.77963 0.99205 0.0
C168 C 0.2457 0.77965 0.91413 0.0
O169 O 0.20191 0.78279 0.92085 0.0
H170 H 0.33573 0.8911 1.00014 0.0
H171 H 0.19453 0.84678 0.95522 0.0
N172 N 0.18901 0.72709 0.97653 0.0
N173 N 0.11756 0.64268 0.98227 0.0
C174 C 0.17129 0.67294 0.97538 0.0
C175 C 0.14494 0.7309 0.98449 0.0
C176 C 0.10071 0.67881 0.98797 0.0
C177 C 0.36066 0.79328 0.98503 0.0
O178 O 0.37638 0.80802 0.96064 0.0
H179 H 0.19714 0.65604 0.96964 0.0
H180 H 0.14491 0.76884 0.98771 0.0
O181 O 0.27712 0.77937 0.93196 0.0
H182 H 0.22782 0.94549 0.97551 0.0
H183 H 0.0595 0.66814 0.99435 0.0
Cu184 Cu 0.49306 0.23147 0.30088 0.0
N185 N 0.42905 0.23415 0.30871 0.0
N186 N 0.37305 0.26105 0.32621 0.0
C187 C 0.42573 0.27269 0.32306 0.0
C188 C 0.34199 0.21387 0.31319 0.0
C189 C 0.37676 0.1974 0.30231 0.0
O190 O 0.55338 0.29307 0.31848 0.0
C191 C 0.48909 0.25969 0.24785 0.0
O192 O 0.46551 0.28631 0.25754 0.0
H193 H 0.46097 0.30799 0.33143 0.0
H194 H 0.3648 0.16069 0.29098 0.0
N195 N 0.48544 0.16548 0.31314 0.0
N196 N 0.50113 0.09635 0.32051 0.0
C197 C 0.52073 0.14639 0.30963 0.0
C198 C 0.44243 0.12626 0.32678 0.0
C199 C 0.45198 0.08345 0.33131 0.0
C200 C 0.56037 0.29064 0.34295 0.0
O201 O 0.52932 0.2447 0.3557 0.0
H202 H 0.55962 0.16836 0.29915 0.0
H203 H 0.40652 0.12855 0.33292 0.0
O204 O 0.50495 0.23474 0.26314 0.0
H205 H 0.29743 0.19255 0.31207 0.0
H206 H 0.42506 0.04575 0.34166 0.0
Cu207 Cu 0.27568 0.46785 0.63514 0.0
N208 N 0.33267 0.45571 0.64552 0.0
N209 N 0.41836 0.47156 0.65224 0.0
C210 C 0.38554 0.48226 0.63698 0.0
C211 C 0.38483 0.43665 0.67086 0.0
C212 C 0.33204 0.42696 0.66667 0.0
O213 O 0.28457 0.48628 0.59786 0.0
C214 C 0.24602 0.54122 0.66092 0.0
O215 O 0.19773 0.51386 0.64962 0.0
H216 H 0.40031 0.51143 0.62098 0.0
H217 H 0.29627 0.4031 0.67902 0.0
N218 N 0.20688 0.40476 0.64088 0.0
N219 N 0.12252 0.34698 0.65655 0.0
C220 C 0.1706 0.39367 0.66077 0.0
C221 C 0.18096 0.36309 0.62387 0.0
C222 C 0.12879 0.32752 0.63342 0.0
C223 C 0.24784 0.49015 0.58497 0.0
O224 O 0.2032 0.48326 0.5971 0.0
H225 H 0.17844 0.41996 0.67752 0.0
H226 H 0.19821 0.35992 0.60533 0.0
O227 O 0.28306 0.52842 0.65654 0.0
H228 H 0.39813 0.42114 0.68695 0.0
H229 H 0.09721 0.2912 0.62379 0.0
Cu230 Cu 0.84389 0.26849 0.97061 0.0
N231 N 0.83993 0.20116 0.97652 0.0
N232 N 0.81419 0.1196 0.99449 0.0
C233 C 0.81776 0.16888 0.99774 0.0
C234 C 0.83522 0.12098 0.97045 0.0
C235 C 0.85134 0.17152 0.95944 0.0
O236 O 0.78199 0.26677 0.98916 0.0
C237 C 0.80326 0.24212 0.91874 0.0
O238 O 0.76676 0.19488 0.929 0.0
H239 H 0.80225 0.18024 1.01473 0.0
H240 H 0.86804 0.18488 0.93994 0.0
N241 N 0.91117 0.32585 0.9822 0.0
N242 N 0.98245 0.41011 0.9877 0.0
C243 C 0.93109 0.37978 0.97811 0.0
C244 C 0.95129 0.32209 0.99479 0.0
C245 C 0.99548 0.3742 0.99822 0.0
C246 C 0.78596 0.28696 1.01191 0.0
O247 O 0.83436 0.31325 1.02321 0.0
H248 H 0.90887 0.39641 0.96793 0.0
H249 H 0.94884 0.28404 1.00066 0.0
O250 O 0.83908 0.2792 0.93336 0.0
H251 H 0.83738 0.08732 0.96132 0.0
H252 H 1.03432 0.38499 1.00742 0.0
Cu253 Cu 0.59026 0.81461 0.30474 0.0
N254 N 0.65434 0.80985 0.30739 0.0
N255 N 0.71203 0.78324 0.32241 0.0
C256 C 0.66521 0.78473 0.32694 0.0
C257 C 0.7317 0.80857 0.29919 0.0
C258 C 0.69614 0.82539 0.29003 0.0
O259 O 0.53619 0.75837 0.32767 0.0
C260 C 0.57466 0.77855 0.2514 0.0
O261 O 0.59462 0.74714 0.25857 0.0
H262 H 0.63838 0.76623 0.34376 0.0
H263 H 0.69954 0.84585 0.27164 0.0
N264 N 0.60446 0.88349 0.31593 0.0
N265 N 0.59514 0.95707 0.32161 0.0
C266 C 0.56988 0.90377 0.31468 0.0
C267 C 0.65305 0.92533 0.32395 0.0
C268 C 0.64741 0.97094 0.32747 0.0
C269 C 0.48425 0.73742 0.32616 0.0
O270 O 0.46289 0.75378 0.30789 0.0
H271 H 0.52773 0.88061 0.30796 0.0
H272 H 0.69039 0.92325 0.32624 0.0
O273 O 0.56642 0.8068 0.26847 0.0
H274 H 0.76846 0.81355 0.28942 0.0
H275 H 0.67934 1.0114 0.33327 0.0
C276 C 0.31973 0.9813 0.03537 0.0
C277 C 0.32223 0.98431 1.00764 0.0
C278 C 0.37128 0.08467 1.00981 0.0
C279 C 0.37115 0.08161 0.03752 0.0
N280 N 0.35651 0.02842 0.07652 0.0
N281 N 0.35958 0.03751 0.96841 0.0
C282 C 0.34884 0.03019 0.05024 0.0
C283 C 0.35097 0.03575 0.99485 0.0
N284 N 0.28718 0.9321 0.04744 0.0
N285 N 0.3883 0.13401 0.99793 0.0
H286 H 0.34566 1.0021 0.95716 0.0
H287 H 0.38452 0.07356 0.9581 0.0
H288 H 0.40258 0.17036 1.00842 0.0
H289 H 0.3842 0.1383 0.97795 0.0
H290 H 0.27921 0.92801 0.06752 0.0
H291 H 0.26422 0.89577 0.03708 0.0
H292 H 0.34571 0.99236 0.08666 0.0
H293 H 0.37854 0.06382 0.08769 0.0
C294 C 0.30339 0.34172 0.3443 0.0
C295 C 0.30721 0.34225 0.37197 0.0
C296 C 0.35532 0.28958 0.36939 0.0
C297 C 0.35333 0.29078 0.34168 0.0
N298 N 0.33546 0.326 0.30249 0.0
N299 N 0.34576 0.32715 0.41073 0.0
C300 C 0.33037 0.31943 0.32905 0.0
C301 C 0.33613 0.31941 0.38446 0.0
N302 N 0.27191 0.36033 0.33278 0.0
N303 N 0.37304 0.25773 0.38123 0.0
H304 H 0.33236 0.3493 0.42204 0.0
H305 H 0.37095 0.31603 0.42078 0.0
H306 H 0.38627 0.23455 0.37067 0.0
H307 H 0.3706 0.2508 0.40134 0.0
H308 H 0.26272 0.3561 0.3129 0.0
H309 H 0.25166 0.37673 0.34352 0.0
H310 H 0.32418 0.35067 0.29213 0.0
H311 H 0.35536 0.31019 0.29103 0.0
C312 C 1.0106 0.26442 0.70616 0.0
C313 C 0.96883 0.27546 0.69788 0.0
C314 C 1.03229 0.34046 0.66504 0.0
C315 C 0.07211 0.32548 0.67167 0.0
N316 N 0.09956 0.27156 0.69695 0.0
N317 N 0.93685 0.31935 0.66808 0.0
C318 C 0.0614 0.28709 0.69191 0.0
C319 C 0.97902 0.31267 0.67706 0.0
N320 N 1.00183 0.23337 0.72809 0.0
N321 N 0.04595 0.38163 0.64732 0.0
H322 H 0.89732 0.29895 0.67628 0.0
H323 H 0.93962 0.34184 0.65141 0.0
H324 H 0.08431 0.40169 0.63791 0.0
H325 H 1.02115 0.39859 0.6433 0.0
H326 H 1.03195 0.2273 0.73672 0.0
H327 H 0.96509 0.21682 0.73886 0.0
H328 H 0.09266 0.2398 0.7096 0.0
H329 H 0.13753 0.28886 0.68719 0.0
C330 C 0.79478 1.00253 0.03755 0.0
C331 C 0.74021 0.98295 0.04681 0.0
C332 C 0.73272 0.04998 1.01926 0.0
C333 C 0.78916 0.0734 1.01216 0.0
N334 N 0.8768 0.07841 1.01827 0.0
N335 N 0.6615 0.99559 0.05109 0.0
C336 C 0.82106 0.05137 1.02232 0.0
C337 C 0.71028 1.0088 0.03894 0.0
N338 N 0.82074 0.97343 0.04269 0.0
N339 N 0.70001 0.06545 1.00643 0.0
H340 H 0.64506 0.96697 0.06625 0.0
H341 H 0.64025 1.01668 0.04787 0.0
H342 H 0.71463 0.09376 0.99111 0.0
H343 H 0.65739 0.04606 1.00912 0.0
H344 H 0.85863 0.98272 0.03441 0.0
H345 H 0.80193 0.93696 0.05337 0.0
H346 H 0.90307 0.06719 1.02722 0.0
H347 H 0.89737 0.11522 1.00792 0.0
C348 C 0.70145 0.69933 0.34316 0.0
C349 C 0.73382 0.75635 0.33839 0.0
C350 C 0.80715 0.7598 0.36568 0.0
C351 C 0.77163 0.70467 0.37328 0.0
N352 N 0.68104 0.62478 0.37296 0.0
N353 N 0.81427 0.84295 0.34799 0.0
C354 C 0.71772 0.67496 0.3629 0.0
C355 C 0.78609 0.78722 0.3503 0.0
N356 N 0.65584 0.66835 0.32835 0.0
N357 N 0.86127 0.78544 0.37281 0.0
H358 H 0.79916 0.86432 0.33749 0.0
H359 H 0.85007 0.86817 0.35835 0.0
H360 H 0.87781 0.76571 0.38362 0.0
H361 H 0.89057 0.82405 0.36594 0.0
H362 H 0.63328 0.62572 0.32935 0.0
H363 H 0.64407 0.68493 0.31314 0.0
H364 H 0.63952 0.60344 0.36787 0.0
H365 H 0.69081 0.6071 0.38838 0.0
C366 C 1.0231 0.699 0.68449 0.0
C367 C 0.9975 0.73016 0.67838 0.0
C368 C 0.07022 0.80853 0.70199 0.0
C369 C 0.09214 0.77542 0.71048 0.0
N370 N 0.08093 0.68516 0.71493 0.0
N371 N 0.99032 0.81089 0.68557 0.0
C372 C 0.06616 0.71941 0.70318 0.0
C373 C 1.0193 0.784 0.68836 0.0
N374 N 1.00807 0.65114 0.67156 0.0
N375 N 0.09911 0.86374 0.70614 0.0
H376 H 0.95203 0.79315 0.67645 0.0
H377 H 1.00159 0.84829 0.69452 0.0
H378 H 0.13737 0.88305 0.71531 0.0
H379 H 0.08775 0.89076 0.69826 0.0
H380 H 1.02877 0.62917 0.6736 0.0
H381 H 0.97885 0.6366 0.6567 0.0
H382 H 0.05986 0.6429 0.71202 0.0
H383 H 0.11019 0.69805 0.72974 0.0
C384 C 0.72509 0.25703 0.05217 0.0
C385 C 0.73562 0.27824 1.02622 0.0
C386 C 0.64627 0.27489 1.02645 0.0
C387 C 0.63936 0.26076 0.05347 0.0
N388 N 0.67897 0.2504 0.09344 0.0
N389 N 0.71105 0.31832 0.99069 0.0
C390 C 0.68069 0.25521 0.06676 0.0
C391 C 0.69756 0.29029 1.01389 0.0
N392 N 0.75561 0.23608 0.06256 0.0
N393 N 0.6032 0.27127 1.01237 0.0
H394 H 0.74897 0.33217 0.98126 0.0
H395 H 0.68695 0.33283 0.98225 0.0
H396 H 0.56411 0.25782 1.02043 0.0
H397 H 0.60459 0.27586 0.99208 0.0
H398 H 0.74584 0.21522 0.08039 0.0
H399 H 0.78684 0.23402 0.05221 0.0
H400 H 0.71112 0.25175 0.10421 0.0
H401 H 0.64838 0.25099 0.10505 0.0
C402 C 0.37759 0.59781 0.35338 0.0
C403 C 0.38535 0.6078 0.38077 0.0
C404 C 0.45235 0.70453 0.3721 0.0
C405 C 0.44825 0.69334 0.3448 0.0
N406 N 0.41396 0.62788 0.30949 0.0
N407 N 0.43339 0.66874 0.41654 0.0
C408 C 0.41244 0.63967 0.33541 0.0
C409 C 0.4239 0.66061 0.39023 0.0
N410 N 0.33688 0.54829 0.34445 0.0
N411 N 0.48161 0.75755 0.38061 0.0
H412 H 0.41125 0.63842 0.43049 0.0
H413 H 0.46546 0.70438 0.4245 0.0
H414 H 0.50219 0.7908 0.3679 0.0
H415 H 0.48169 0.76926 0.39998 0.0
H416 H 0.32465 0.54093 0.32496 0.0
H417 H 0.31249 0.51526 0.35671 0.0
H418 H 0.39386 0.58828 0.30195 0.0
H419 H 0.43918 0.65715 0.29569 0.0
C420 C 0.74739 0.37206 0.7028 0.0
C421 C 0.79808 0.37346 0.70757 0.0
C422 C 0.84961 0.46644 0.68933 0.0
C423 C 0.79908 0.46613 0.68603 0.0
N424 N 0.70047 0.4223 0.69193 0.0
N425 N 0.89747 0.42234 0.70789 0.0
C426 C 0.74811 0.41997 0.69347 0.0
C427 C 0.84928 0.42088 0.7016 0.0
N428 N 0.69853 0.3245 0.70671 0.0
N429 N 0.89769 0.51 0.68032 0.0
H430 H 0.8987 0.38895 0.71592 0.0
H431 H 0.93616 0.45733 0.70665 0.0
H432 H 0.89954 0.54468 0.672 0.0
H433 H 0.9353 0.51082 0.67955 0.0
H434 H 0.66048 0.31856 0.70068 0.0
H435 H 0.69602 0.28925 0.71463 0.0
H436 H 0.66289 0.39289 0.69991 0.0
H437 H 0.69892 0.4556 0.68397 0.0
C438 C 0.39037 0.75338 1.02139 0.0
C439 C 0.40138 0.79837 1.00494 0.0
C440 C 0.49302 0.85164 1.02426 0.0
C441 C 0.47978 0.80919 0.04281 0.0
N442 N 0.41081 0.72381 0.06223 0.0
N443 N 0.45787 0.89511 0.99563 0.0
C444 C 0.42702 0.76107 0.04227 0.0
C445 C 0.45118 0.8489 1.00776 0.0
N446 N 0.34599 0.70285 1.0166 0.0
N447 N 0.54612 0.89345 1.02138 0.0
H448 H 0.42752 0.89571 0.98415 0.0
H449 H 0.49111 0.93401 0.99933 0.0
H450 H 0.57876 0.89575 0.032 0.0
H451 H 0.55871 0.92238 1.00637 0.0
H452 H 0.33926 0.66746 1.02627 0.0
H453 H 0.31875 0.6953 1.00125 0.0
H454 H 0.3708 0.69089 0.06415 0.0
H455 H 0.43553 0.72874 0.07834 0.0
C456 C 0.65581 0.3712 0.34898 0.0
C457 C 0.59999 0.34051 0.35746 0.0
C458 C 0.62097 0.40183 0.39514 0.0
C459 C 0.67486 0.43608 0.38496 0.0
N460 N 0.74004 0.45904 0.3492 0.0
N461 N 0.52672 0.33394 0.38558 0.0
C462 C 0.69144 0.42234 0.36105 0.0
C463 C 0.58175 0.35776 0.37973 0.0
N464 N 0.67546 0.35068 0.33009 0.0
N465 N 0.60767 0.40997 0.41996 0.0
H466 H 0.49614 0.30262 0.37448 0.0
H467 H 0.511 0.34908 0.39988 0.0
H468 H 0.63564 0.44082 0.43223 0.0
H469 H 0.57078 0.38267 0.42932 0.0
H470 H 0.71714 0.36872 0.32512 0.0
H471 H 0.65111 0.31274 0.32121 0.0
H472 H 0.75129 0.45336 0.33043 0.0
H473 H 0.76666 0.49767 0.35689 0.0
C474 C 0.30369 0.63992 0.67375 0.0
C475 C 0.25789 0.58724 0.67898 0.0
C476 C 0.236 0.62269 0.71863 0.0
C477 C 0.2848 0.67397 0.71474 0.0
N478 N 0.36812 0.73065 0.68975 0.0
N479 N 0.18484 0.52601 0.70829 0.0
C480 C 0.31977 0.6822 0.69275 0.0
C481 C 0.22495 0.57801 0.70183 0.0
N482 N 0.32991 0.65044 0.64992 0.0
N483 N 0.19992 0.61654 0.73836 0.0
H484 H 0.17501 0.49208 0.69661 0.0
H485 H 0.16419 0.51555 0.72626 0.0
H486 H 0.2081 0.64651 0.75239 0.0
H487 H 0.16026 0.58294 0.73994 0.0
H488 H 0.3596 0.68939 0.64368 0.0
H489 H 0.31832 0.62109 0.63517 0.0
H490 H 0.39864 0.73637 0.67622 0.0
H491 H 0.37965 0.76455 0.70177 0.0
C492 C 0.54389 0.26935 0.17811 0.0
C493 C 0.49367 0.24279 0.16403 0.0
C494 C 0.4411 0.22248 0.20522 0.0
C495 C 0.49112 0.25331 0.21907 0.0
N496 N 0.5899 0.31182 0.21881 0.0
N497 N 0.39459 0.20204 0.16345 0.0
C498 C 0.54256 0.27822 0.20555 0.0
C499 C 0.44226 0.22139 0.17739 0.0
N500 N 0.59266 0.28445 0.16538 0.0
N501 N 0.39259 0.19256 0.21873 0.0
H502 H 0.39356 0.20073 0.14303 0.0
H503 H 0.35664 0.19177 0.17196 0.0
H504 H 0.38997 0.19201 0.23913 0.0
H505 H 0.35579 0.16444 0.20987 0.0
H506 H 0.63008 0.29861 0.17493 0.0
H507 H 0.59515 0.27874 0.14531 0.0
H508 H 0.62794 0.33601 0.20966 0.0
H509 H 0.59049 0.31877 0.23892 0.0
C510 C 0.21168 0.47188 0.51245 0.0
C511 C 0.26062 0.51474 0.50097 0.0
C512 C 0.29962 0.54495 0.5449 0.0
C513 C 0.25317 0.49844 0.55604 0.0
N514 N 0.17036 0.41129 0.54955 0.0
N515 N 0.3549 0.58709 0.50589 0.0
C516 C 0.21065 0.46014 0.53957 0.0
C517 C 0.30567 0.55004 0.5171 0.0
N518 N 0.16519 0.44375 0.49772 0.0
N519 N 0.33683 0.5854 0.56082 0.0
H520 H 0.36107 0.59176 0.48566 0.0
H521 H 0.39091 0.60977 0.51656 0.0
H522 H 0.33345 0.58366 0.5812 0.0
H523 H 0.36818 0.62289 0.5538 0.0
H524 H 0.12681 0.41612 0.50572 0.0
H525 H 0.16343 0.45211 0.47797 0.0
H526 H 0.1419 0.37949 0.53787 0.0
H527 H 0.16867 0.40018 0.56914 0.0
C528 C 0.75352 0.24418 0.8784 0.0
C529 C 0.80272 0.25202 0.89018 0.0
C530 C 0.8509 0.28168 0.84773 0.0
C531 C 0.80029 0.26829 0.83558 0.0
N532 N 0.70097 0.22499 0.83853 0.0
N533 N 0.89579 0.26839 0.88509 0.0
C534 C 0.75086 0.24627 0.85068 0.0
C535 C 0.85087 0.26822 0.8746 0.0
N536 N 0.70996 0.23696 0.89368 0.0
N537 N 0.89926 0.30887 0.83387 0.0
H538 H 0.8972 0.25764 0.90447 0.0
H539 H 0.92967 0.27412 0.87395 0.0
H540 H 0.90097 0.31967 0.81421 0.0
H541 H 0.93793 0.32502 0.84245 0.0
H542 H 0.67533 0.23678 0.88618 0.0
H543 H 0.71073 0.23686 0.91411 0.0
H544 H 0.66341 0.20324 0.84846 0.0
H545 H 0.69684 0.22395 0.81822 0.0
C546 C 0.52648 0.75082 0.18026 0.0
C547 C 0.5653 0.80109 0.16827 0.0
C548 C 0.60455 0.83889 0.21141 0.0
C549 C 0.56926 0.7869 0.22305 0.0
N550 N 0.49882 0.69215 0.21875 0.0
N551 N 0.64612 0.89085 0.17179 0.0
C552 C 0.5309 0.74246 0.20748 0.0
C553 C 0.60517 0.84482 0.18371 0.0
N554 N 0.48403 0.71195 0.16576 0.0
N555 N 0.6382 0.88278 0.22674 0.0
H556 H 0.64832 0.89768 0.15168 0.0
H557 H 0.68069 0.92073 0.1815 0.0
H558 H 0.64379 0.87993 0.24669 0.0
H559 H 0.65842 0.92306 0.21999 0.0
H560 H 0.45107 0.67669 0.17369 0.0
H561 H 0.4791 0.71712 0.14592 0.0
H562 H 0.47509 0.65648 0.20811 0.0
H563 H 0.49799 0.68535 0.23887 0.0
C564 C 0.79222 0.5068 0.54243 0.0
C565 C 0.77014 0.53451 0.55708 0.0
C566 C 0.75248 0.56898 0.51635 0.0
C567 C 0.76972 0.53714 0.50165 0.0
N568 N 0.79598 0.46742 0.5007 0.0
N569 N 0.71895 0.58274 0.55796 0.0
C570 C 0.78685 0.5037 0.51469 0.0
C571 C 0.74734 0.56301 0.54403 0.0
N572 N 0.82042 0.48543 0.55485 0.0
N573 N 0.74335 0.60682 0.50407 0.0
H574 H 0.71344 0.57851 0.57822 0.0
H575 H 0.69628 0.5985 0.54919 0.0
H576 H 0.74747 0.61337 0.48389 0.0
H577 H 0.73685 0.6354 0.51412 0.0
H578 H 0.8426 0.47016 0.54491 0.0
H579 H 0.826 0.48747 0.57508 0.0
H580 H 0.8028 0.43793 0.50943 0.0
H581 H 0.79157 0.46318 0.48042 0.0
C582 C 0.3066 0.81015 0.87347 0.0
C583 C 0.25572 0.7733 0.88596 0.0
C584 C 0.2158 0.73425 0.84327 0.0
C585 C 0.26789 0.76742 0.831 0.0
N586 N 0.36566 0.82945 0.83519 0.0
N587 N 0.16714 0.69073 0.88335 0.0
C588 C 0.3142 0.8032 0.84634 0.0
C589 C 0.21193 0.73243 0.87102 0.0
N590 N 0.34664 0.85339 0.88706 0.0
N591 N 0.16923 0.70678 0.82854 0.0
H592 H 0.16381 0.68677 0.90369 0.0
H593 H 0.1365 0.65698 0.87345 0.0
H594 H 0.16935 0.70901 0.80815 0.0
H595 H 0.12965 0.68667 0.83668 0.0
H596 H 0.38195 0.88481 0.87822 0.0
H597 H 0.34251 0.86062 0.90677 0.0
H598 H 0.40162 0.85156 0.84596 0.0
H599 H 0.37287 0.82491 0.81549 0.0
C600 C 0.57371 0.56662 0.04551 0.0
C601 C 0.58083 0.59291 0.07002 0.0
C602 C 0.5379 0.50397 0.09236 0.0
C603 C 0.5347 0.47814 0.06807 0.0
N604 N 0.55696 0.4845 1.02218 0.0
N605 N 0.57858 0.58883 0.11707 0.0
C606 C 0.5547 0.50944 0.04478 0.0
C607 C 0.56535 0.56214 0.09358 0.0
N608 N 0.58342 0.59621 1.02298 0.0
N609 N 0.51289 0.47264 0.11401 0.0
H610 H 0.59936 0.63146 0.11845 0.0
H611 H 0.57326 0.56916 0.13499 0.0
H612 H 0.49193 0.42993 0.11354 0.0
H613 H 0.50894 0.48866 0.13179 0.0
H614 H 0.57399 0.5787 1.00441 0.0
H615 H 0.59685 0.63807 1.02305 0.0
H616 H 0.57586 0.50571 1.00501 0.0
H617 H 0.54389 0.44276 1.02128 0.0
C618 C 0.05282 0.57811 0.40624 0.0
C619 C 0.99532 0.54087 0.40691 0.0
C620 C 1.01333 0.46488 0.41281 0.0
C621 C 0.07027 0.5011 0.40835 0.0
N622 N 0.14352 0.59122 0.3964 0.0
N623 N 0.92043 0.44746 0.40602 0.0
C624 C 0.09006 0.55767 0.40407 0.0
C625 C 0.9753 0.48378 0.40911 0.0
N626 N 0.07167 0.633 0.40807 0.0
N627 N 0.99589 0.41254 0.42088 0.0
H628 H 0.8917 0.45963 0.40185 0.0
H629 H 0.90433 0.40524 0.40493 0.0
H630 H 1.02326 0.39817 0.42422 0.0
H631 H 0.95542 0.38549 0.42673 0.0
H632 H 0.11326 0.66208 0.41008 0.0
H633 H 0.04512 0.64883 0.41017 0.0
H634 H 0.15873 0.63167 0.3905 0.0
H635 H 0.17138 0.57725 0.39351 0.0
C636 C 0.54998 0.07759 0.71922 0.0
C637 C 0.58529 0.08001 0.7395 0.0
C638 C 0.52126 0.98352 0.75001 0.0
C639 C 0.48291 0.98343 0.73198 0.0
N640 N 0.45696 0.03269 0.70225 0.0
N641 N 0.60218 0.03803 0.77656 0.0
C642 C 0.49639 0.03109 0.71721 0.0
C643 C 0.57049 0.03355 0.75548 0.0
N644 N 0.56835 0.11978 0.7017 0.0
N645 N 0.51131 0.93543 0.76122 0.0
H646 H 0.63827 0.07419 0.78106 0.0
H647 H 0.59055 1.00735 0.7906 0.0
H648 H 0.47619 0.89809 0.75711 0.0
H649 H 0.54 0.93181 0.77266 0.0
H650 H 0.54663 0.11863 0.68501 0.0
H651 H 0.60795 0.15381 0.70258 0.0
H652 H 0.46259 0.06802 0.69294 0.0
H653 H 0.41668 0.99996 0.70119 0.0
C654 C 0.5703 0.5773 0.65123 0.0
C655 C 0.59402 0.54313 0.65271 0.0
C656 C 0.50181 0.4624 0.64877 0.0
C657 C 0.47777 0.49626 0.65103 0.0
N658 N 0.48955 0.5857 0.65979 0.0
N659 N 0.58132 0.45243 0.65769 0.0
C660 C 0.51212 0.5538 0.65359 0.0
C661 C 0.55952 0.48534 0.65264 0.0
N662 N 0.60342 0.63215 0.64697 0.0
N663 N 0.4695 0.40849 0.64237 0.0
H664 H 0.6229 0.46787 0.66183 0.0
H665 H 0.55728 0.41022 0.66038 0.0
H666 H 0.42741 0.39107 0.63874 0.0
H667 H 0.48539 0.38277 0.63812 0.0
H668 H 0.58806 0.65847 0.64336 0.0
H669 H 0.64598 0.65015 0.64432 0.0
H670 H 0.51318 0.62718 0.66431 0.0
H671 H 0.44747 0.56966 0.66317 0.0
C672 C 0.06686 0.55772 1.00833 0.0
C673 C 0.08463 0.58381 0.98363 0.0
C674 C 0.039 0.4944 0.96185 0.0
C675 C 1.01707 0.46879 0.98632 0.0
N676 N 1.00264 0.47575 0.03231 0.0
N677 N 0.0809 0.5788 0.93665 0.0
C678 C 1.02905 0.50042 1.00947 0.0
C679 C 0.06894 0.55258 0.96027 0.0
N680 N 0.08758 0.58769 0.03065 0.0
N681 N 1.03253 0.46288 0.94033 0.0
H682 H 0.10168 0.62138 0.93509 0.0
H683 H 0.06622 0.55869 0.91887 0.0
H684 H 1.01142 0.42017 0.94107 0.0
H685 H 0.05193 0.47886 0.92239 0.0
H686 H 0.08042 0.57042 0.04929 0.0
H687 H 0.116 0.62957 0.03028 0.0
H688 H 1.00534 0.49723 0.0494 0.0
H689 H 0.97418 0.43395 0.03353 0.0
C690 C 0.56403 1.01393 0.34504 0.0
C691 C 0.57221 0.99295 0.32121 0.0
C692 C 0.53099 0.03849 0.29694 0.0
C693 C 0.52674 0.06282 0.32053 0.0
N694 N 0.54753 0.08184 0.36622 0.0
N695 N 0.57329 0.99284 0.2741 0.0
C696 C 0.54569 0.05282 0.3444 0.0
C697 C 0.55841 1.00737 0.297 0.0
N698 N 0.57196 0.99501 0.36827 0.0
N699 N 0.50691 0.04347 0.27476 0.0
H700 H 0.59445 0.97104 0.2736 0.0
H701 H 0.56916 1.00649 0.25577 0.0
H702 H 0.4859 0.0654 0.27427 0.0
H703 H 0.5037 1.02221 0.25753 0.0
H704 H 0.56167 1.00459 0.38642 0.0
H705 H 0.58454 0.96584 0.36924 0.0
H706 H 0.56568 0.08037 0.38369 0.0
H707 H 0.53516 0.11123 0.36608 0.0
loop_
_geom_bond_atom_site_label_1
_geom_bond_atom_site_label_2
_geom_bond_distance
_geom_bond_site_symmetry_2
_ccdc_geom_bond_type
Cu0 N1 1.999 . S
Cu0 O6 1.974 . S
Cu0 N11 1.985 . S
Cu0 O20 1.959 . S
N1 Cu0 1.999 . S
N1 C3 1.263 . S
N1 C5 1.389 . S
N2 C3 1.358 . S
N2 C4 1.400 . S
C3 N1 1.263 . S
C3 N2 1.358 . S
C3 H9 0.930 . S
C4 N2 1.400 . S
C4 C5 1.351 . S
C4 H21 0.930 . S
C5 N1 1.389 . S
C5 C4 1.351 . S
C5 H10 0.930 . S
O6 Cu0 1.974 . S
O6 C16 1.282 . S
C7 O8 1.261 . S
C7 O20 1.251 . S
O8 C7 1.261 . S
H9 C3 0.930 . S
H10 C5 0.930 . S
N11 Cu0 1.985 . S
N11 C13 1.335 . S
N11 C14 1.390 . S
N12 C13 1.345 . S
N12 C15 1.336 . S
C13 N11 1.335 . S
C13 N12 1.345 . S
C13 H18 0.930 . S
C14 N11 1.390 . S
C14 C15 1.346 . S
C14 H19 0.930 . S
C15 N12 1.336 . S
C15 C14 1.346 . S
C15 H22 0.929 . S
C16 O6 1.282 . S
C16 O17 1.216 . S
O17 C16 1.216 . S
H18 C13 0.930 . S
H19 C14 0.930 . S
O20 Cu0 1.959 . S
O20 C7 1.251 . S
H21 C4 0.930 . S
H22 C15 0.929 . S
Cu23 N24 1.999 . S
Cu23 O29 1.974 . S
Cu23 N34 1.985 . S
Cu23 O43 1.959 . S
N24 Cu23 1.999 . S
N24 C26 1.263 . S
N24 C28 1.389 . S
N25 C26 1.358 . S
N25 C27 1.400 . S
C26 N24 1.263 . S
C26 N25 1.358 . S
C26 H32 0.930 . S
C27 N25 1.400 . S
C27 C28 1.351 . S
C27 H44 0.930 . S
C28 N24 1.389 . S
C28 C27 1.351 . S
C28 H33 0.930 . S
O29 Cu23 1.974 . S
O29 C39 1.282 . S
C30 O31 1.261 . S
C30 O43 1.251 . S
O31 C30 1.261 . S
H32 C26 0.930 . S
H33 C28 0.930 . S
N34 Cu23 1.985 . S
N34 C36 1.335 . S
N34 C37 1.390 . S
N35 C36 1.345 . S
N35 C38 1.336 . S
C36 N34 1.335 . S
C36 N35 1.345 . S
C36 H41 0.930 . S
C37 N34 1.390 . S
C37 C38 1.346 . S
C37 H42 0.930 . S
C38 N35 1.336 . S
C38 C37 1.346 . S
C38 H45 0.929 . S
C39 O29 1.282 . S
C39 O40 1.216 . S
O40 C39 1.216 . S
H41 C36 0.930 . S
H42 C37 0.930 . S
O43 Cu23 1.959 . S
O43 C30 1.251 . S
H44 C27 0.930 . S
H45 C38 0.929 . S
Cu46 N47 1.999 . S
Cu46 O52 1.974 . S
Cu46 N57 1.985 . S
Cu46 O66 1.959 . S
N47 Cu46 1.999 . S
N47 C49 1.263 . S
N47 C51 1.389 . S
N48 C49 1.358 . S
N48 C50 1.400 . S
C49 N47 1.263 . S
C49 N48 1.358 . S
C49 H55 0.930 . S
C50 N48 1.400 . S
C50 C51 1.351 . S
C50 H67 0.930 . S
C51 N47 1.389 . S
C51 C50 1.351 . S
C51 H56 0.930 . S
O52 Cu46 1.974 . S
O52 C62 1.282 . S
C53 O54 1.261 . S
C53 O66 1.251 . S
O54 C53 1.261 . S
H55 C49 0.930 . S
H56 C51 0.930 . S
N57 Cu46 1.985 . S
N57 C59 1.335 . S
N57 C60 1.390 . S
N58 C59 1.345 . S
N58 C61 1.336 . S
C59 N57 1.335 . S
C59 N58 1.345 . S
C59 H64 0.930 . S
C60 N57 1.390 . S
C60 C61 1.346 . S
C60 H65 0.930 . S
C61 N58 1.336 . S
C61 C60 1.346 . S
C61 H68 0.929 . S
C62 O52 1.282 . S
C62 O63 1.216 . S
O63 C62 1.216 . S
H64 C59 0.930 . S
H65 C60 0.930 . S
O66 Cu46 1.959 . S
O66 C53 1.251 . S
H67 C50 0.930 . S
H68 C61 0.929 . S
Cu69 N70 1.999 . S
Cu69 O75 1.974 . S
Cu69 N80 1.985 . S
Cu69 O89 1.959 . S
N70 Cu69 1.999 . S
N70 C72 1.263 . S
N70 C74 1.389 . S
N71 C72 1.358 . S
N71 C73 1.400 . S
C72 N70 1.263 . S
C72 N71 1.358 . S
C72 H78 0.930 . S
C73 N71 1.400 . S
C73 C74 1.351 . S
C73 H90 0.930 . S
C74 N70 1.389 . S
C74 C73 1.351 . S
C74 H79 0.930 . S
O75 Cu69 1.974 . S
O75 C85 1.282 . S
C76 O77 1.261 . S
C76 O89 1.251 . S
O77 C76 1.261 . S
H78 C72 0.930 . S
H79 C74 0.930 . S
N80 Cu69 1.985 . S
N80 C82 1.335 . S
N80 C83 1.390 . S
N81 C82 1.345 . S
N81 C84 1.336 . S
C82 N80 1.335 . S
C82 N81 1.345 . S
C82 H87 0.930 . S
C83 N80 1.390 . S
C83 C84 1.346 . S
C83 H88 0.930 . S
C84 N81 1.336 . S
C84 C83 1.346 . S
C84 H91 0.929 . S
C85 O75 1.282 . S
C85 O86 1.216 . S
O86 C85 1.216 . S
H87 C82 0.930 . S
H88 C83 0.930 . S
O89 Cu69 1.959 . S
O89 C76 1.251 . S
H90 C73 0.930 . S
H91 C84 0.929 . S
Cu92 N93 1.999 . S
Cu92 O98 1.974 . S
Cu92 N103 1.985 . S
Cu92 O112 1.959 . S
N93 Cu92 1.999 . S
N93 C95 1.263 . S
N93 C97 1.389 . S
N94 C95 1.358 . S
N94 C96 1.400 . S
C95 N93 1.263 . S
C95 N94 1.358 . S
C95 H101 0.930 . S
C96 N94 1.400 . S
C96 C97 1.351 . S
C96 H113 0.930 . S
C97 N93 1.389 . S
C97 C96 1.351 . S
C97 H102 0.930 . S
O98 Cu92 1.974 . S
O98 C108 1.282 . S
C99 O100 1.261 . S
C99 O112 1.251 . S
O100 C99 1.261 . S
H101 C95 0.930 . S
H102 C97 0.930 . S
N103 Cu92 1.985 . S
N103 C105 1.335 . S
N103 C106 1.390 . S
N104 C105 1.345 . S
N104 C107 1.336 . S
C105 N103 1.335 . S
C105 N104 1.345 . S
C105 H110 0.930 . S
C106 N103 1.390 . S
C106 C107 1.346 . S
C106 H111 0.930 . S
C107 N104 1.336 . S
C107 C106 1.346 . S
C107 H114 0.929 . S
C108 O98 1.282 . S
C108 O109 1.216 . S
O109 C108 1.216 . S
H110 C105 0.930 . S
H111 C106 0.930 . S
O112 Cu92 1.959 . S
O112 C99 1.251 . S
H113 C96 0.930 . S
H114 C107 0.929 . S
Cu115 N116 1.999 . S
Cu115 O121 1.974 . S
Cu115 N126 1.985 . S
Cu115 O135 1.959 . S
N116 Cu115 1.999 . S
N116 C118 1.263 . S
N116 C120 1.389 . S
N117 C118 1.358 . S
N117 C119 1.400 . S
C118 N116 1.263 . S
C118 N117 1.358 . S
C118 H124 0.930 . S
C119 N117 1.400 . S
C119 C120 1.351 . S
C119 H136 0.930 . S
C120 N116 1.389 . S
C120 C119 1.351 . S
C120 H125 0.930 . S
O121 Cu115 1.974 . S
O121 C131 1.282 . S
C122 O123 1.261 . S
C122 O135 1.251 . S
O123 C122 1.261 . S
H124 C118 0.930 . S
H125 C120 0.930 . S
N126 Cu115 1.985 . S
N126 C128 1.335 . S
N126 C129 1.390 . S
N127 C128 1.345 . S
N127 C130 1.336 . S
C128 N126 1.335 . S
C128 N127 1.345 . S
C128 H133 0.930 . S
C129 N126 1.390 . S
C129 C130 1.346 . S
C129 H134 0.930 . S
C130 N127 1.336 . S
C130 C129 1.346 . S
C130 H137 0.929 . S
C131 O121 1.282 . S
C131 O132 1.216 . S
O132 C131 1.216 . S
H133 C128 0.930 . S
H134 C129 0.930 . S
O135 Cu115 1.959 . S
O135 C122 1.251 . S
H136 C119 0.930 . S
H137 C130 0.929 . S
Cu138 N139 1.999 . S
Cu138 O144 1.974 . S
Cu138 N149 1.985 . S
Cu138 O158 1.959 . S
N139 Cu138 1.999 . S
N139 C141 1.263 . S
N139 C143 1.389 . S
N140 C141 1.358 . S
N140 C142 1.400 . S
C141 N139 1.263 . S
C141 N140 1.358 . S
C141 H147 0.930 . S
C142 N140 1.400 . S
C142 C143 1.351 . S
C142 H159 0.930 . S
C143 N139 1.389 . S
C143 C142 1.351 . S
C143 H148 0.930 . S
O144 Cu138 1.974 . S
O144 C154 1.282 . S
C145 O146 1.261 . S
C145 O158 1.251 . S
O146 C145 1.261 . S
H147 C141 0.930 . S
H148 C143 0.930 . S
N149 Cu138 1.985 . S
N149 C151 1.335 . S
N149 C152 1.390 . S
N150 C151 1.345 . S
N150 C153 1.336 . S
C151 N149 1.335 . S
C151 N150 1.345 . S
C151 H156 0.930 . S
C152 N149 1.390 . S
C152 C153 1.346 . S
C152 H157 0.930 . S
C153 N150 1.336 . S
C153 C152 1.346 . S
C153 H160 0.929 . S
C154 O144 1.282 . S
C154 O155 1.216 . S
O155 C154 1.216 . S
H156 C151 0.930 . S
H157 C152 0.930 . S
O158 Cu138 1.959 . S
O158 C145 1.251 . S
H159 C142 0.930 . S
H160 C153 0.929 . S
Cu161 N162 1.999 . S
Cu161 O167 1.974 . S
Cu161 N172 1.985 . S
Cu161 O181 1.959 . S
N162 Cu161 1.999 . S
N162 C164 1.263 . S
N162 C166 1.389 . S
N163 C164 1.358 . S
N163 C165 1.400 . S
C164 N162 1.263 . S
C164 N163 1.358 . S
C164 H170 0.930 . S
C165 N163 1.400 . S
C165 C166 1.351 . S
C165 H182 0.930 . S
C166 N162 1.389 . S
C166 C165 1.351 . S
C166 H171 0.930 . S
O167 Cu161 1.974 . S
O167 C177 1.282 . S
C168 O169 1.261 . S
C168 O181 1.251 . S
O169 C168 1.261 . S
H170 C164 0.930 . S
H171 C166 0.930 . S
N172 Cu161 1.985 . S
N172 C174 1.335 . S
N172 C175 1.390 . S
N173 C174 1.345 . S
N173 C176 1.336 . S
C174 N172 1.335 . S
C174 N173 1.345 . S
C174 H179 0.930 . S
C175 N172 1.390 . S
C175 C176 1.346 . S
C175 H180 0.930 . S
C176 N173 1.336 . S
C176 C175 1.346 . S
C176 H183 0.929 . S
C177 O167 1.282 . S
C177 O178 1.216 . S
O178 C177 1.216 . S
H179 C174 0.930 . S
H180 C175 0.930 . S
O181 Cu161 1.959 . S
O181 C168 1.251 . S
H182 C165 0.930 . S
H183 C176 0.929 . S
Cu184 N185 1.999 . S
Cu184 O190 1.974 . S
Cu184 N195 1.985 . S
Cu184 O204 1.959 . S
N185 Cu184 1.999 . S
N185 C187 1.263 . S
N185 C189 1.389 . S
N186 C187 1.358 . S
N186 C188 1.400 . S
C187 N185 1.263 . S
C187 N186 1.358 . S
C187 H193 0.930 . S
C188 N186 1.400 . S
C188 C189 1.351 . S
C188 H205 0.930 . S
C189 N185 1.389 . S
C189 C188 1.351 . S
C189 H194 0.930 . S
O190 Cu184 1.974 . S
O190 C200 1.282 . S
C191 O192 1.261 . S
C191 O204 1.251 . S
O192 C191 1.261 . S
H193 C187 0.930 . S
H194 C189 0.930 . S
N195 Cu184 1.985 . S
N195 C197 1.335 . S
N195 C198 1.390 . S
N196 C197 1.345 . S
N196 C199 1.336 . S
C197 N195 1.335 . S
C197 N196 1.345 . S
C197 H202 0.930 . S
C198 N195 1.390 . S
C198 C199 1.346 . S
C198 H203 0.930 . S
C199 N196 1.336 . S
C199 C198 1.346 . S
C199 H206 0.929 . S
C200 O190 1.282 . S
C200 O201 1.216 . S
O201 C200 1.216 . S
H202 C197 0.930 . S
H203 C198 0.930 . S
O204 Cu184 1.959 . S
O204 C191 1.251 . S
H205 C188 0.930 . S
H206 C199 0.929 . S
Cu207 N208 1.999 . S
Cu207 O213 1.974 . S
Cu207 N218 1.985 . S
Cu207 O227 1.959 . S
N208 Cu207 1.999 . S
N208 C210 1.263 . S
N208 C212 1.389 . S
N209 C210 1.358 . S
N209 C211 1.400 . S
C210 N208 1.263 . S
C210 N209 1.358 . S
C210 H216 0.930 . S
C211 N209 1.400 . S
C211 C212 1.351 . S
C211 H228 0.930 . S
C212 N208 1.389 . S
C212 C211 1.351 . S
C212 H217 0.930 . S
O213 Cu207 1.974 . S
O213 C223 1.282 . S
C214 O215 1.261 . S
C214 O227 1.251 . S
O215 C214 1.261 . S
H216 C210 0.930 . S
H217 C212 0.930 . S
N218 Cu207 1.985 . S
N218 C220 1.335 . S
N218 C221 1.390 . S
N219 C220 1.345 . S
N219 C222 1.336 . S
C220 N218 1.335 . S
C220 N219 1.345 . S
C220 H225 0.930 . S
C221 N218 1.390 . S
C221 C222 1.346 . S
C221 H226 0.930 . S
C222 N219 1.336 . S
C222 C221 1.346 . S
C222 H229 0.929 . S
C223 O213 1.282 . S
C223 O224 1.216 . S
O224 C223 1.216 . S
H225 C220 0.930 . S
H226 C221 0.930 . S
O227 Cu207 1.959 . S
O227 C214 1.251 . S
H228 C211 0.930 . S
H229 C222 0.929 . S
Cu230 N231 1.999 . S
Cu230 O236 1.974 . S
Cu230 N241 1.985 . S
Cu230 O250 1.959 . S
N231 Cu230 1.999 . S
N231 C233 1.263 . S
N231 C235 1.389 . S
N232 C233 1.358 . S
N232 C234 1.400 . S
C233 N231 1.263 . S
C233 N232 1.358 . S
C233 H239 0.930 . S
C234 N232 1.400 . S
C234 C235 1.351 . S
C234 H251 0.930 . S
C235 N231 1.389 . S
C235 C234 1.351 . S
C235 H240 0.930 . S
O236 Cu230 1.974 . S
O236 C246 1.282 . S
C237 O238 1.261 . S
C237 O250 1.251 . S
O238 C237 1.261 . S
H239 C233 0.930 . S
H240 C235 0.930 . S
N241 Cu230 1.985 . S
N241 C243 1.335 . S
N241 C244 1.390 . S
N242 C243 1.345 . S
N242 C245 1.336 . S
C243 N241 1.335 . S
C243 N242 1.345 . S
C243 H248 0.930 . S
C244 N241 1.390 . S
C244 C245 1.346 . S
C244 H249 0.930 . S
C245 N242 1.336 . S
C245 C244 1.346 . S
C245 H252 0.929 . S
C246 O236 1.282 . S
C246 O247 1.216 . S
O247 C246 1.216 . S
H248 C243 0.930 . S
H249 C244 0.930 . S
O250 Cu230 1.959 . S
O250 C237 1.251 . S
H251 C234 0.930 . S
H252 C245 0.929 . S
Cu253 N254 1.999 . S
Cu253 O259 1.974 . S
Cu253 N264 1.985 . S
Cu253 O273 1.959 . S
N254 Cu253 1.999 . S
N254 C256 1.263 . S
N254 C258 1.389 . S
N255 C256 1.358 . S
N255 C257 1.400 . S
C256 N254 1.263 . S
C256 N255 1.358 . S
C256 H262 0.930 . S
C257 N255 1.400 . S
C257 C258 1.351 . S
C257 H274 0.930 . S
C258 N254 1.389 . S
C258 C257 1.351 . S
C258 H263 0.930 . S
O259 Cu253 1.974 . S
O259 C269 1.282 . S
C260 O261 1.261 . S
C260 O273 1.251 . S
O261 C260 1.261 . S
H262 C256 0.930 . S
H263 C258 0.930 . S
N264 Cu253 1.985 . S
N264 C266 1.335 . S
N264 C267 1.390 . S
N265 C266 1.345 . S
N265 C268 1.336 . S
C266 N264 1.335 . S
C266 N265 1.345 . S
C266 H271 0.930 . S
C267 N264 1.390 . S
C267 C268 1.346 . S
C267 H272 0.930 . S
C268 N265 1.336 . S
C268 C267 1.346 . S
C268 H275 0.929 . S
C269 O259 1.282 . S
C269 O270 1.216 . S
O270 C269 1.216 . S
H271 C266 0.930 . S
H272 C267 0.930 . S
O273 Cu253 1.959 . S
O273 C260 1.251 . S
H274 C257 0.930 . S
H275 C268 0.929 . S
C276 C277 1.363 . S
C276 C282 1.379 1_556 S
C276 N284 1.356 . S
C277 C276 1.363 . S
C277 C283 1.363 1_565 S
C278 C279 1.363 . S
C278 C283 1.379 1_554 S
C278 N285 1.356 . S
C279 C278 1.363 . S
C279 C282 1.363 1_545 S
N280 C282 1.356 . S
N280 H292 0.984 . S
N280 H293 0.985 1_565 S
N281 C283 1.356 . S
N281 H286 0.984 1_545 S
N281 H287 0.985 . S
C282 C276 1.379 1_554 S
C282 C279 1.363 1_565 S
C282 N280 1.356 . S
C283 C277 1.363 1_545 S
C283 C278 1.379 1_556 S
C283 N281 1.356 . S
N284 C276 1.356 . S
N284 H290 1.009 . S
N284 H291 0.984 . S
N285 C278 1.356 . S
N285 H288 0.984 . S
N285 H289 1.009 . S
H286 N281 0.984 1_565 S
H287 N281 0.985 . S
H288 N285 0.984 . S
H289 N285 1.009 . S
H290 N284 1.009 . S
H291 N284 0.984 . S
H292 N280 0.984 . S
H293 N280 0.985 1_545 S
C294 C295 1.363 . S
C294 C300 1.379 . S
C294 N302 1.356 . S
C295 C294 1.363 . S
C295 C301 1.363 . S
C296 C297 1.363 . S
C296 C301 1.379 . S
C296 N303 1.356 . S
C297 C296 1.363 . S
C297 C300 1.363 . S
N298 C300 1.356 . S
N298 H310 0.984 . S
N298 H311 0.985 . S
N299 C301 1.356 . S
N299 H304 0.984 . S
N299 H305 0.985 . S
C300 C294 1.379 . S
C300 C297 1.363 . S
C300 N298 1.356 . S
C301 C295 1.363 . S
C301 C296 1.379 . S
C301 N299 1.356 . S
N302 C294 1.356 . S
N302 H308 0.984 . S
N302 H309 0.984 . S
N303 C296 1.356 . S
N303 H306 0.984 . S
N303 H307 0.985 . S
H304 N299 0.984 . S
H305 N299 0.985 . S
H306 N303 0.984 . S
H307 N303 0.985 . S
H308 N302 0.984 . S
H309 N302 0.984 . S
H310 N298 0.984 . S
H311 N298 0.985 . S
C312 C313 1.363 . S
C312 C318 1.379 1_655 S
C312 N320 1.356 . S
C313 C312 1.363 . S
C313 C319 1.363 . S
C314 C315 1.371 . S
C314 C319 1.374 1_455 S
C314 N321 1.355 . S
C315 C314 1.371 . S
C315 C318 1.363 . S
N316 C318 1.356 . S
N316 H328 0.984 . S
N316 H329 0.985 . S
N317 C319 1.356 . S
N317 H322 0.984 . S
N317 H323 0.985 . S
C318 C312 1.379 1_455 S
C318 C315 1.363 . S
C318 N316 1.356 . S
C319 C313 1.363 . S
C319 C314 1.374 1_655 S
C319 N317 1.356 . S
N320 C312 1.356 . S
N320 H326 0.984 1_655 S
N320 H327 0.984 . S
N321 C314 1.355 . S
N321 H324 0.984 . S
N321 H325 0.985 1_455 S
H322 N317 0.984 . S
H323 N317 0.985 . S
H324 N321 0.984 . S
H325 N321 0.985 1_655 S
H326 N320 0.984 1_455 S
H327 N320 0.984 . S
H328 N316 0.984 . S
H329 N316 0.985 . S
C330 C331 1.363 . S
C330 C336 1.379 1_564 S
C330 N338 1.356 . S
C331 C330 1.363 . S
C331 C337 1.363 . S
C332 C333 1.363 . S
C332 C337 1.379 1_546 S
C332 N339 1.356 . S
C333 C332 1.363 . S
C333 C336 1.363 . S
N334 C336 1.356 . S
N334 H346 0.984 . S
N334 H347 0.985 . S
N335 C337 1.356 . S
N335 H340 0.984 . S
N335 H341 0.985 . S
C336 C330 1.379 1_546 S
C336 C333 1.363 . S
C336 N334 1.356 . S
C337 C331 1.363 . S
C337 C332 1.379 1_564 S
C337 N335 1.356 . S
N338 C330 1.356 . S
N338 H344 0.984 . S
N338 H345 0.984 . S
N339 C332 1.356 . S
N339 H342 0.984 . S
N339 H343 0.985 . S
H340 N335 0.984 . S
H341 N335 0.985 . S
H342 N339 0.984 . S
H343 N339 0.985 . S
H344 N338 0.984 . S
H345 N338 0.984 . S
H346 N334 0.984 . S
H347 N334 0.985 . S
C348 C349 1.363 . S
C348 C354 1.379 . S
C348 N356 1.356 . S
C349 C348 1.363 . S
C349 C355 1.363 . S
C350 C351 1.363 . S
C350 C355 1.379 . S
C350 N357 1.356 . S
C351 C350 1.363 . S
C351 C354 1.363 . S
N352 C354 1.356 . S
N352 H364 0.984 . S
N352 H365 0.985 . S
N353 C355 1.356 . S
N353 H358 0.984 . S
N353 H359 0.985 . S
C354 C348 1.379 . S
C354 C351 1.363 . S
C354 N352 1.356 . S
C355 C349 1.363 . S
C355 C350 1.379 . S
C355 N353 1.356 . S
N356 C348 1.356 . S
N356 H362 0.984 . S
N356 H363 0.984 . S
N357 C350 1.356 . S
N357 H360 0.984 . S
N357 H361 0.985 . S
H358 N353 0.984 . S
H359 N353 0.985 . S
H360 N357 0.984 . S
H361 N357 0.985 . S
H362 N356 0.984 . S
H363 N356 0.984 . S
H364 N352 0.984 . S
H365 N352 0.985 . S
C366 C367 1.363 . S
C366 C372 1.379 . S
C366 N374 1.356 . S
C367 C366 1.363 . S
C367 C373 1.363 1_655 S
C368 C369 1.363 . S
C368 C373 1.379 . S
C368 N375 1.356 . S
C369 C368 1.363 . S
C369 C372 1.363 1_455 S
N370 C372 1.356 . S
N370 H382 0.984 . S
N370 H383 0.985 1_655 S
N371 C373 1.356 . S
N371 H376 0.984 1_455 S
N371 H377 0.985 . S
C372 C366 1.379 . S
C372 C369 1.363 1_655 S
C372 N370 1.356 . S
C373 C367 1.363 1_455 S
C373 C368 1.379 . S
C373 N371 1.356 . S
N374 C366 1.356 . S
N374 H380 0.984 . S
N374 H381 0.984 . S
N375 C368 1.356 . S
N375 H378 0.984 . S
N375 H379 0.985 . S
H376 N371 0.984 1_655 S
H377 N371 0.985 . S
H378 N375 0.984 . S
H379 N375 0.985 . S
H380 N374 0.984 . S
H381 N374 0.984 . S
H382 N370 0.984 . S
H383 N370 0.985 1_455 S
C384 C385 1.363 1_554 S
C384 C390 1.379 . S
C384 N392 1.356 . S
C385 C384 1.363 1_556 S
C385 C391 1.363 . S
C386 C387 1.363 1_556 S
C386 C391 1.379 . S
C386 N393 1.356 . S
C387 C386 1.363 1_554 S
C387 C390 1.363 . S
N388 C390 1.356 . S
N388 H400 0.984 . S
N388 H401 0.985 . S
N389 C391 1.356 . S
N389 H394 0.984 . S
N389 H395 0.985 . S
C390 C384 1.379 . S
C390 C387 1.363 . S
C390 N388 1.356 . S
C391 C385 1.363 . S
C391 C386 1.379 . S
C391 N389 1.356 . S
N392 C384 1.356 . S
N392 H398 0.984 . S
N392 H399 0.984 . S
N393 C386 1.356 . S
N393 H396 0.984 . S
N393 H397 0.985 . S
H394 N389 0.984 . S
H395 N389 0.985 . S
H396 N393 0.984 . S
H397 N393 0.985 . S
H398 N392 0.984 . S
H399 N392 0.984 . S
H400 N388 0.984 . S
H401 N388 0.985 . S
C402 C403 1.363 . S
C402 C408 1.379 . S
C402 N410 1.356 . S
C403 C402 1.363 . S
C403 C409 1.363 . S
C404 C405 1.363 . S
C404 C409 1.379 . S
C404 N411 1.356 . S
C405 C404 1.363 . S
C405 C408 1.363 . S
N406 C408 1.356 . S
N406 H418 0.984 . S
N406 H419 0.985 . S
N407 C409 1.356 . S
N407 H412 0.984 . S
N407 H413 0.985 . S
C408 C402 1.379 . S
C408 C405 1.363 . S
C408 N406 1.356 . S
C409 C403 1.363 . S
C409 C404 1.379 . S
C409 N407 1.356 . S
N410 C402 1.356 . S
N410 H416 0.984 . S
N410 H417 0.984 . S
N411 C404 1.356 . S
N411 H414 0.984 . S
N411 H415 0.985 . S
H412 N407 0.984 . S
H413 N407 0.985 . S
H414 N411 0.984 . S
H415 N411 0.985 . S
H416 N410 0.984 . S
H417 N410 0.984 . S
H418 N406 0.984 . S
H419 N406 0.985 . S
C420 C421 1.363 . S
C420 C426 1.379 . S
C420 N428 1.356 . S
C421 C420 1.363 . S
C421 C427 1.363 . S
C422 C423 1.363 . S
C422 C427 1.379 . S
C422 N429 1.356 . S
C423 C422 1.363 . S
C423 C426 1.363 . S
N424 C426 1.356 . S
N424 H436 0.984 . S
N424 H437 0.985 . S
N425 C427 1.356 . S
N425 H430 0.984 . S
N425 H431 0.985 . S
C426 C420 1.379 . S
C426 C423 1.363 . S
C426 N424 1.356 . S
C427 C421 1.363 . S
C427 C422 1.379 . S
C427 N425 1.356 . S
N428 C420 1.356 . S
N428 H434 0.984 . S
N428 H435 0.984 . S
N429 C422 1.356 . S
N429 H432 0.984 . S
N429 H433 0.985 . S
H430 N425 0.984 . S
H431 N425 0.985 . S
H432 N429 0.984 . S
H433 N429 0.985 . S
H434 N428 0.984 . S
H435 N428 0.984 . S
H436 N424 0.984 . S
H437 N424 0.985 . S
C438 C439 1.363 1_554 S
C438 C444 1.379 . S
C438 N446 1.356 . S
C439 C438 1.363 1_556 S
C439 C445 1.363 . S
C440 C441 1.363 1_556 S
C440 C445 1.379 . S
C440 N447 1.356 . S
C441 C440 1.363 1_554 S
C441 C444 1.363 . S
N442 C444 1.356 . S
N442 H454 0.984 . S
N442 H455 0.985 . S
N443 C445 1.356 . S
N443 H448 0.984 . S
N443 H449 0.985 . S
C444 C438 1.379 . S
C444 C441 1.363 . S
C444 N442 1.356 . S
C445 C439 1.363 . S
C445 C440 1.379 . S
C445 N443 1.356 . S
N446 C438 1.356 . S
N446 H452 0.984 . S
N446 H453 0.984 . S
N447 C440 1.356 . S
N447 H450 0.984 . S
N447 H451 0.985 . S
H448 N443 0.984 . S
H449 N443 0.985 . S
H450 N447 0.984 . S
H451 N447 0.985 . S
H452 N446 0.984 . S
H453 N446 0.984 . S
H454 N442 0.984 . S
H455 N442 0.985 . S
C456 C457 1.363 . S
C456 C462 1.379 . S
C456 N464 1.356 . S
C457 C456 1.363 . S
C457 C463 1.363 . S
C458 C459 1.363 . S
C458 C463 1.379 . S
C458 N465 1.356 . S
C459 C458 1.363 . S
C459 C462 1.363 . S
N460 C462 1.356 . S
N460 H472 0.984 . S
N460 H473 0.985 . S
N461 C463 1.356 . S
N461 H466 0.984 . S
N461 H467 0.985 . S
C462 C456 1.379 . S
C462 C459 1.363 . S
C462 N460 1.356 . S
C463 C457 1.363 . S
C463 C458 1.379 . S
C463 N461 1.356 . S
N464 C456 1.356 . S
N464 H470 0.984 . S
N464 H471 0.984 . S
N465 C458 1.356 . S
N465 H468 0.984 . S
N465 H469 0.985 . S
H466 N461 0.984 . S
H467 N461 0.985 . S
H468 N465 0.984 . S
H469 N465 0.985 . S
H470 N464 0.984 . S
H471 N464 0.984 . S
H472 N460 0.984 . S
H473 N460 0.985 . S
C474 C475 1.363 . S
C474 C480 1.379 . S
C474 N482 1.356 . S
C475 C474 1.363 . S
C475 C481 1.363 . S
C476 C477 1.363 . S
C476 C481 1.379 . S
C476 N483 1.356 . S
C477 C476 1.363 . S
C477 C480 1.363 . S
N478 C480 1.356 . S
N478 H490 0.984 . S
N478 H491 0.985 . S
N479 C481 1.356 . S
N479 H484 0.984 . S
N479 H485 0.985 . S
C480 C474 1.379 . S
C480 C477 1.363 . S
C480 N478 1.356 . S
C481 C475 1.363 . S
C481 C476 1.379 . S
C481 N479 1.356 . S
N482 C474 1.356 . S
N482 H488 0.984 . S
N482 H489 0.984 . S
N483 C476 1.356 . S
N483 H486 0.984 . S
N483 H487 0.985 . S
H484 N479 0.984 . S
H485 N479 0.985 . S
H486 N483 0.984 . S
H487 N483 0.985 . S
H488 N482 0.984 . S
H489 N482 0.984 . S
H490 N478 0.984 . S
H491 N478 0.985 . S
C492 C493 1.363 . S
C492 C498 1.379 . S
C492 N500 1.356 . S
C493 C492 1.363 . S
C493 C499 1.363 . S
C494 C495 1.363 . S
C494 C499 1.379 . S
C494 N501 1.356 . S
C495 C494 1.363 . S
C495 C498 1.363 . S
N496 C498 1.356 . S
N496 H508 0.984 . S
N496 H509 0.985 . S
N497 C499 1.356 . S
N497 H502 0.984 . S
N497 H503 0.985 . S
C498 C492 1.379 . S
C498 C495 1.363 . S
C498 N496 1.356 . S
C499 C493 1.363 . S
C499 C494 1.379 . S
C499 N497 1.356 . S
N500 C492 1.356 . S
N500 H506 0.984 . S
N500 H507 0.984 . S
N501 C494 1.356 . S
N501 H504 0.984 . S
N501 H505 0.985 . S
H502 N497 0.984 . S
H503 N497 0.985 . S
H504 N501 0.984 . S
H505 N501 0.985 . S
H506 N500 0.984 . S
H507 N500 0.984 . S
H508 N496 0.984 . S
H509 N496 0.985 . S
C510 C511 1.363 . S
C510 C516 1.379 . S
C510 N518 1.356 . S
C511 C510 1.363 . S
C511 C517 1.363 . S
C512 C513 1.363 . S
C512 C517 1.379 . S
C512 N519 1.356 . S
C513 C512 1.363 . S
C513 C516 1.363 . S
N514 C516 1.356 . S
N514 H526 0.984 . S
N514 H527 0.985 . S
N515 C517 1.356 . S
N515 H520 0.984 . S
N515 H521 0.985 . S
C516 C510 1.379 . S
C516 C513 1.363 . S
C516 N514 1.356 . S
C517 C511 1.363 . S
C517 C512 1.379 . S
C517 N515 1.356 . S
N518 C510 1.356 . S
N518 H524 0.984 . S
N518 H525 0.984 . S
N519 C512 1.356 . S
N519 H522 0.984 . S
N519 H523 0.985 . S
H520 N515 0.984 . S
H521 N515 0.985 . S
H522 N519 0.984 . S
H523 N519 0.985 . S
H524 N518 0.984 . S
H525 N518 0.984 . S
H526 N514 0.984 . S
H527 N514 0.985 . S
C528 C529 1.363 . S
C528 C534 1.379 . S
C528 N536 1.356 . S
C529 C528 1.363 . S
C529 C535 1.363 . S
C530 C531 1.363 . S
C530 C535 1.379 . S
C530 N537 1.356 . S
C531 C530 1.363 . S
C531 C534 1.363 . S
N532 C534 1.356 . S
N532 H544 0.984 . S
N532 H545 0.985 . S
N533 C535 1.356 . S
N533 H538 0.984 . S
N533 H539 0.985 . S
C534 C528 1.379 . S
C534 C531 1.363 . S
C534 N532 1.356 . S
C535 C529 1.363 . S
C535 C530 1.379 . S
C535 N533 1.356 . S
N536 C528 1.356 . S
N536 H542 0.984 . S
N536 H543 0.984 . S
N537 C530 1.356 . S
N537 H540 0.984 . S
N537 H541 0.985 . S
H538 N533 0.984 . S
H539 N533 0.985 . S
H540 N537 0.984 . S
H541 N537 0.985 . S
H542 N536 0.984 . S
H543 N536 0.984 . S
H544 N532 0.984 . S
H545 N532 0.985 . S
C546 C547 1.363 . S
C546 C552 1.379 . S
C546 N554 1.356 . S
C547 C546 1.363 . S
C547 C553 1.363 . S
C548 C549 1.363 . S
C548 C553 1.379 . S
C548 N555 1.356 . S
C549 C548 1.363 . S
C549 C552 1.363 . S
N550 C552 1.356 . S
N550 H562 0.984 . S
N550 H563 0.985 . S
N551 C553 1.356 . S
N551 H556 0.984 . S
N551 H557 0.985 . S
C552 C546 1.379 . S
C552 C549 1.363 . S
C552 N550 1.356 . S
C553 C547 1.363 . S
C553 C548 1.379 . S
C553 N551 1.356 . S
N554 C546 1.356 . S
N554 H560 0.984 . S
N554 H561 0.984 . S
N555 C548 1.356 . S
N555 H558 0.984 . S
N555 H559 0.985 . S
H556 N551 0.984 . S
H557 N551 0.985 . S
H558 N555 0.984 . S
H559 N555 0.985 . S
H560 N554 0.984 . S
H561 N554 0.984 . S
H562 N550 0.984 . S
H563 N550 0.985 . S
C564 C565 1.363 . S
C564 C570 1.379 . S
C564 N572 1.356 . S
C565 C564 1.363 . S
C565 C571 1.363 . S
C566 C567 1.363 . S
C566 C571 1.379 . S
C566 N573 1.356 . S
C567 C566 1.363 . S
C567 C570 1.363 . S
N568 C570 1.356 . S
N568 H580 0.984 . S
N568 H581 0.985 . S
N569 C571 1.356 . S
N569 H574 0.984 . S
N569 H575 0.985 . S
C570 C564 1.379 . S
C570 C567 1.363 . S
C570 N568 1.356 . S
C571 C565 1.363 . S
C571 C566 1.379 . S
C571 N569 1.356 . S
N572 C564 1.356 . S
N572 H578 0.984 . S
N572 H579 0.984 . S
N573 C566 1.356 . S
N573 H576 0.984 . S
N573 H577 0.985 . S
H574 N569 0.984 . S
H575 N569 0.985 . S
H576 N573 0.984 . S
H577 N573 0.985 . S
H578 N572 0.984 . S
H579 N572 0.984 . S
H580 N568 0.984 . S
H581 N568 0.985 . S
C582 C583 1.363 . S
C582 C588 1.379 . S
C582 N590 1.356 . S
C583 C582 1.363 . S
C583 C589 1.363 . S
C584 C585 1.363 . S
C584 C589 1.379 . S
C584 N591 1.356 . S
C585 C584 1.363 . S
C585 C588 1.363 . S
N586 C588 1.356 . S
N586 H598 0.984 . S
N586 H599 0.985 . S
N587 C589 1.356 . S
N587 H592 0.984 . S
N587 H593 0.985 . S
C588 C582 1.379 . S
C588 C585 1.363 . S
C588 N586 1.356 . S
C589 C583 1.363 . S
C589 C584 1.379 . S
C589 N587 1.356 . S
N590 C582 1.356 . S
N590 H596 0.984 . S
N590 H597 0.984 . S
N591 C584 1.356 . S
N591 H594 0.984 . S
N591 H595 0.985 . S
H592 N587 0.984 . S
H593 N587 0.985 . S
H594 N591 0.984 . S
H595 N591 0.985 . S
H596 N590 0.984 . S
H597 N590 0.984 . S
H598 N586 0.984 . S
H599 N586 0.985 . S
C600 C601 1.363 . S
C600 C606 1.379 . S
C600 N608 1.356 . S
C601 C600 1.363 . S
C601 C607 1.363 . S
C602 C603 1.363 . S
C602 C607 1.379 . S
C602 N609 1.356 . S
C603 C602 1.363 . S
C603 C606 1.363 . S
N604 C606 1.356 . S
N604 H616 0.984 . S
N604 H617 0.985 . S
N605 C607 1.356 . S
N605 H610 0.984 . S
N605 H611 0.985 . S
C606 C600 1.379 . S
C606 C603 1.363 . S
C606 N604 1.356 . S
C607 C601 1.363 . S
C607 C602 1.379 . S
C607 N605 1.356 . S
N608 C600 1.356 . S
N608 H614 0.984 . S
N608 H615 0.984 . S
N609 C602 1.356 . S
N609 H612 0.984 . S
N609 H613 0.985 . S
H610 N605 0.984 . S
H611 N605 0.985 . S
H612 N609 0.984 . S
H613 N609 0.985 . S
H614 N608 0.984 . S
H615 N608 0.984 . S
H616 N604 0.984 . S
H617 N604 0.985 . S
C618 C619 1.363 . S
C618 C624 1.379 1_655 S
C618 N626 1.356 . S
C619 C618 1.363 . S
C619 C625 1.363 . S
C620 C621 1.363 . S
C620 C625 1.379 1_455 S
C620 N627 1.356 . S
C621 C620 1.363 . S
C621 C624 1.363 . S
N622 C624 1.356 . S
N622 H634 0.984 . S
N622 H635 0.985 . S
N623 C625 1.356 . S
N623 H628 0.984 . S
N623 H629 0.985 . S
C624 C618 1.379 1_455 S
C624 C621 1.363 . S
C624 N622 1.356 . S
C625 C619 1.363 . S
C625 C620 1.379 1_655 S
C625 N623 1.356 . S
N626 C618 1.356 . S
N626 H632 0.984 . S
N626 H633 0.984 . S
N627 C620 1.356 . S
N627 H630 0.984 . S
N627 H631 0.985 . S
H628 N623 0.984 . S
H629 N623 0.985 . S
H630 N627 0.984 . S
H631 N627 0.985 . S
H632 N626 0.984 . S
H633 N626 0.984 . S
H634 N622 0.984 . S
H635 N622 0.985 . S
C636 C637 1.363 . S
C636 C642 1.379 1_545 S
C636 N644 1.356 . S
C637 C636 1.363 . S
C637 C643 1.363 . S
C638 C639 1.363 . S
C638 C643 1.379 1_565 S
C638 N645 1.356 . S
C639 C638 1.363 . S
C639 C642 1.363 . S
N640 C642 1.356 . S
N640 H652 0.984 . S
N640 H653 0.985 . S
N641 C643 1.356 . S
N641 H646 0.984 . S
N641 H647 0.985 . S
C642 C636 1.379 1_565 S
C642 C639 1.363 . S
C642 N640 1.356 . S
C643 C637 1.363 . S
C643 C638 1.379 1_545 S
C643 N641 1.356 . S
N644 C636 1.356 . S
N644 H650 0.984 . S
N644 H651 0.984 . S
N645 C638 1.356 . S
N645 H648 0.984 . S
N645 H649 0.985 . S
H646 N641 0.984 . S
H647 N641 0.985 . S
H648 N645 0.984 . S
H649 N645 0.985 . S
H650 N644 0.984 . S
H651 N644 0.984 . S
H652 N640 0.984 . S
H653 N640 0.985 . S
C654 C655 1.363 . S
C654 C660 1.379 . S
C654 N662 1.356 . S
C655 C654 1.363 . S
C655 C661 1.363 . S
C656 C657 1.363 . S
C656 C661 1.379 . S
C656 N663 1.356 . S
C657 C656 1.363 . S
C657 C660 1.363 . S
N658 C660 1.356 . S
N658 H670 0.984 . S
N658 H671 0.985 . S
N659 C661 1.356 . S
N659 H664 0.984 . S
N659 H665 0.985 . S
C660 C654 1.379 . S
C660 C657 1.363 . S
C660 N658 1.356 . S
C661 C655 1.363 . S
C661 C656 1.379 . S
C661 N659 1.356 . S
N662 C654 1.356 . S
N662 H668 0.984 . S
N662 H669 0.984 . S
N663 C656 1.356 . S
N663 H666 0.984 . S
N663 H667 0.985 . S
H664 N659 0.984 . S
H665 N659 0.985 . S
H666 N663 0.984 . S
H667 N663 0.985 . S
H668 N662 0.984 . S
H669 N662 0.984 . S
H670 N658 0.984 . S
H671 N658 0.985 . S
C672 C673 1.363 . S
C672 C678 1.379 1_455 S
C672 N680 1.356 . S
C673 C672 1.363 . S
C673 C679 1.363 . S
C674 C675 1.363 . S
C674 C679 1.379 1_655 S
C674 N681 1.356 . S
C675 C674 1.363 . S
C675 C678 1.363 . S
N676 C678 1.356 . S
N676 H688 0.984 . S
N676 H689 0.985 . S
N677 C679 1.356 . S
N677 H682 0.984 . S
N677 H683 0.985 . S
C678 C672 1.379 1_655 S
C678 C675 1.363 . S
C678 N676 1.356 . S
C679 C673 1.363 . S
C679 C674 1.379 1_455 S
C679 N677 1.356 . S
N680 C672 1.356 . S
N680 H686 0.984 . S
N680 H687 0.984 . S
N681 C674 1.356 . S
N681 H684 0.984 . S
N681 H685 0.985 . S
H682 N677 0.984 . S
H683 N677 0.985 . S
H684 N681 0.984 . S
H685 N681 0.985 . S
H686 N680 0.984 . S
H687 N680 0.984 . S
H688 N676 0.984 . S
H689 N676 0.985 . S
C690 C691 1.363 . S
C690 C696 1.379 1_565 S
C690 N698 1.356 . S
C691 C690 1.363 . S
C691 C697 1.363 . S
C692 C693 1.363 . S
C692 C697 1.379 1_545 S
C692 N699 1.356 . S
C693 C692 1.363 . S
C693 C696 1.363 . S
N694 C696 1.356 . S
N694 H706 0.984 . S
N694 H707 0.985 . S
N695 C697 1.356 . S
N695 H700 0.984 . S
N695 H701 0.985 . S
C696 C690 1.379 1_545 S
C696 C693 1.363 . S
C696 N694 1.356 . S
C697 C691 1.363 . S
C697 C692 1.379 1_565 S
C697 N695 1.356 . S
N698 C690 1.356 . S
N698 H704 0.984 . S
N698 H705 0.984 . S
N699 C692 1.356 . S
N699 H702 0.984 . S
N699 H703 0.985 . S
H700 N695 0.984 . S
H701 N695 0.985 . S
H702 N699 0.984 . S
H703 N699 0.985 . S
H704 N698 0.984 . S
H705 N698 0.984 . S
H706 N694 0.984 . S
H707 N694 0.985 . S
C277 N163 1.839 . S
C279 N2 1.839 . S
C295 N35 1.921 . S
C297 N186 1.802 . S
C313 N48 1.802 . S
C315 N219 1.921 . S
C331 N71 1.839 . S
C333 N232 1.839 . S
C349 N255 1.802 . S
C351 N104 1.921 . S
C367 N150 1.921 . S
C369 N117 1.802 . S
C385 C246 1.657 . S
C387 C16 1.657 . S
C403 C30 1.747 . S
C405 C269 1.675 . S
C421 C62 1.675 . S
C423 C145 1.747 . S
C439 C177 1.657 . S
C441 C85 1.657 . S
C457 C200 1.675 . S
C459 C99 1.747 . S
C475 C214 1.747 . S
C477 C131 1.675 . S
C493 C7 1.803 . S
C495 C191 1.810 . S
C511 C39 1.778 . S
C513 C223 1.778 . S
C529 C237 1.803 . S
C531 C53 1.810 . S
C547 C76 1.803 . S
C549 C260 1.810 . S
C565 C154 1.778 . S
C567 C108 1.778 . S
C583 C168 1.803 . S
C585 C122 1.810 . S
C601 N81 1.952 . S
C603 N12 1.952 . S
C619 N94 1.864 . S
C621 N25 1.864 . S
C637 N58 1.962 . S
C639 N127 1.962 . S
C655 N140 1.864 . S
C657 N209 1.864 . S
C673 N173 1.952 . S
C675 N242 1.952 . S
C691 N265 1.963 . S
C693 N196 1.963 . S
