# Generated by pormake.
# Topology vbn, (6)-cn, num edge types: 1
# Building blocks:
#     Node 0, Type 0, BuildingBlock: OJICUG_clean_sbu_0, # of connection points: 6
#     Node 1, Type 0, BuildingBlock: OJICUG_clean_sbu_0, # of connection points: 6
#     Node 2, Type 0, BuildingBlock: OJICUG_clean_sbu_0, # of connection points: 6
#     Node 3, Type 0, BuildingBlock: OJICUG_clean_sbu_0, # of connection points: 6
#     Node 4, Type 0, BuildingBlock: OJICUG_clean_sbu_0, # of connection points: 6
#     Node 5, Type 0, BuildingBlock: OJICUG_clean_sbu_0, # of connection points: 6
#     Node 6, Type 0, BuildingBlock: OJICUG_clean_sbu_0, # of connection points: 6
#     Node 7, Type 0, BuildingBlock: OJICUG_clean_sbu_0, # of connection points: 6
#     Edge 8, Type (0, 0), BuildingBlock: ZUJKAS_clean_linker_0, # of connection points: 2
#     Edge 9, Type (0, 0), BuildingBlock: ZUJKAS_clean_linker_0, # of connection points: 2
#     Edge 10, Type (0, 0), BuildingBlock: ZUJKAS_clean_linker_0, # of connection points: 2
#     Edge 11, Type (0, 0), BuildingBlock: ZUJKAS_clean_linker_0, # of connection points: 2
#     Edge 12, Type (0, 0), BuildingBlock: ZUJKAS_clean_linker_0, # of connection points: 2
#     Edge 13, Type (0, 0), BuildingBlock: ZUJKAS_clean_linker_0, # of connection points: 2
#     Edge 14, Type (0, 0), BuildingBlock: ZUJKAS_clean_linker_0, # of connection points: 2
#     Edge 15, Type (0, 0), BuildingBlock: ZUJKAS_clean_linker_0, # of connection points: 2
#     Edge 16, Type (0, 0), BuildingBlock: ZUJKAS_clean_linker_0, # of connection points: 2
#     Edge 17, Type (0, 0), BuildingBlock: ZUJKAS_clean_linker_0, # of connection points: 2
#     Edge 18, Type (0, 0), BuildingBlock: ZUJKAS_clean_linker_0, # of connection points: 2
#     Edge 19, Type (0, 0), BuildingBlock: ZUJKAS_clean_linker_0, # of connection points: 2
#     Edge 20, Type (0, 0), BuildingBlock: ZUJKAS_clean_linker_0, # of connection points: 2
#     Edge 21, Type (0, 0), BuildingBlock: ZUJKAS_clean_linker_0, # of connection points: 2
#     Edge 22, Type (0, 0), BuildingBlock: ZUJKAS_clean_linker_0, # of connection points: 2
#     Edge 23, Type (0, 0), BuildingBlock: ZUJKAS_clean_linker_0, # of connection points: 2
#     Edge 24, Type (0, 0), BuildingBlock: ZUJKAS_clean_linker_0, # of connection points: 2
#     Edge 25, Type (0, 0), BuildingBlock: ZUJKAS_clean_linker_0, # of connection points: 2
#     Edge 26, Type (0, 0), BuildingBlock: ZUJKAS_clean_linker_0, # of connection points: 2
#     Edge 27, Type (0, 0), BuildingBlock: ZUJKAS_clean_linker_0, # of connection points: 2
#     Edge 28, Type (0, 0), BuildingBlock: ZUJKAS_clean_linker_0, # of connection points: 2
#     Edge 29, Type (0, 0), BuildingBlock: ZUJKAS_clean_linker_0, # of connection points: 2
#     Edge 30, Type (0, 0), BuildingBlock: ZUJKAS_clean_linker_0, # of connection points: 2
#     Edge 31, Type (0, 0), BuildingBlock: ZUJKAS_clean_linker_0, # of connection points: 2
# Relax obj value: 0.292
# Max RMSD: 0.267
# Mean RMSD: 0.267
data_MOF--net-vbn--node1-OJICUG_clean_sbu_0--edge1-ZUJKAS_clean_linker_0
_symmetry_space_group_name_H-M    P1
_symmetry_Int_Tables_number       1
_symmetry_cell_setting            triclinic
loop_
_symmetry_equiv_pos_as_xyz
'x, y, z'
_cell_length_a     33.256091
_cell_length_b     37.347193
_cell_length_c     60.374082
_cell_angle_alpha  89.98095
_cell_angle_beta   90.022584
_cell_angle_gamma 90.147913
loop_
_atom_site_label
_atom_site_type_symbol
_atom_site_fract_x
_atom_site_fract_y
_atom_site_fract_z
_atom_type_partial_charge
Sc0 Sc 0.33057 0.28532 0.37883 0.0
Sc1 Sc 0.38187 0.26921 0.42889 0.0
Sc2 Sc 0.42269 0.32835 0.38976 0.0
O3 O 0.37841 0.2941 0.39911 0.0
C4 C 0.40531 0.28659 0.3452 0.0
C5 C 0.34456 0.20744 0.39788 0.0
C6 C 0.47211 0.26551 0.41365 0.0
C7 C 0.28994 0.29026 0.42697 0.0
C8 C 0.3435 0.36894 0.37334 0.0
C9 C 0.41376 0.34844 0.44005 0.0
O10 O 0.3687 0.27948 0.34973 0.0
O11 O 0.3606 0.21815 0.41589 0.0
O12 O 0.47051 0.29428 0.40233 0.0
O13 O 0.28746 0.28946 0.40588 0.0
O14 O 0.38101 0.3678 0.37733 0.0
O15 O 0.40329 0.31711 0.44622 0.0
O16 O 0.32134 0.34128 0.37346 0.0
O17 O 0.3225 0.28483 0.43735 0.0
O18 O 0.41982 0.35672 0.42002 0.0
O19 O 0.33412 0.22871 0.38257 0.0
O20 O 0.42856 0.30315 0.35836 0.0
O21 O 0.44158 0.25153 0.4228 0.0
Sc22 Sc 0.17185 0.21275 0.88196 0.0
Sc23 Sc 0.11312 0.22838 0.92905 0.0
Sc24 Sc 0.08089 0.1674 0.88952 0.0
O25 O 0.12212 0.20294 0.90011 0.0
C26 C 0.10076 0.2097 0.84598 0.0
C27 C 0.15341 0.29007 0.8992 0.0
C28 C 0.02627 0.22905 0.91135 0.0
C29 C 0.20448 0.20912 0.93204 0.0
C30 C 0.1634 0.12954 0.87583 0.0
C31 C 0.0816 0.14864 0.93935 0.0
O32 O 0.1378 0.21403 0.85099 0.0
O33 O 0.13851 0.27893 0.9174 0.0
O34 O 0.03047 0.19833 0.90242 0.0
O35 O 0.21053 0.21312 0.91127 0.0
O36 O 0.12515 0.13039 0.87644 0.0
O37 O 0.08584 0.1814 0.94496 0.0
O38 O 0.18495 0.15712 0.87891 0.0
O39 O 0.16992 0.21084 0.94087 0.0
O40 O 0.08479 0.13811 0.91949 0.0
O41 O 0.16341 0.26909 0.88368 0.0
O42 O 0.07548 0.19521 0.85897 0.0
O43 O 0.05588 0.24708 0.91852 0.0
Sc44 Sc 0.82539 0.2129 0.61065 0.0
Sc45 Sc 0.86802 0.22393 0.55834 0.0
Sc46 Sc 0.91438 0.16936 0.59686 0.0
O47 O 0.86931 0.20225 0.58873 0.0
C48 C 0.9054 0.2139 0.64028 0.0
C49 C 0.83606 0.2878 0.58921 0.0
C50 C 0.95857 0.23078 0.56827 0.0
C51 C 0.77853 0.20299 0.56462 0.0
C52 C 0.83742 0.13058 0.61778 0.0
C53 C 0.89962 0.14468 0.5487 0.0
O54 O 0.86716 0.21562 0.63859 0.0
O55 O 0.84264 0.27438 0.57012 0.0
O56 O 0.95885 0.20094 0.57863 0.0
O57 O 0.7785 0.21189 0.58506 0.0
O58 O 0.87534 0.13272 0.61489 0.0
O59 O 0.89319 0.17658 0.54208 0.0
O60 O 0.81418 0.15723 0.61554 0.0
O61 O 0.81015 0.20184 0.55294 0.0
O62 O 0.9029 0.13658 0.56896 0.0
O63 O 0.83414 0.269 0.60667 0.0
O64 O 0.92761 0.20055 0.62537 0.0
O65 O 0.92626 0.24634 0.56268 0.0
Sc66 Sc 0.57802 0.3287 0.09902 0.0
Sc67 Sc 0.6058 0.26369 0.06087 0.0
Sc68 Sc 0.66753 0.28144 0.10665 0.0
O69 O 0.61732 0.29117 0.08892 0.0
C70 C 0.66212 0.3654 0.11111 0.0
C71 C 0.57729 0.34347 0.04866 0.0
C72 C 0.69783 0.2805 0.05592 0.0
C73 C 0.52001 0.26688 0.08006 0.0
C74 C 0.59823 0.2889 0.14345 0.0
C75 C 0.64575 0.20333 0.09155 0.0
O76 O 0.62392 0.36538 0.1104 0.0
O77 O 0.57961 0.31021 0.04394 0.0
O78 O 0.70466 0.27931 0.07677 0.0
O79 O 0.52583 0.29823 0.08781 0.0
O80 O 0.63435 0.28167 0.13785 0.0
O81 O 0.63004 0.21338 0.07335 0.0
O82 O 0.57323 0.30414 0.13065 0.0
O83 O 0.5484 0.24749 0.0729 0.0
O84 O 0.65757 0.22509 0.10627 0.0
O85 O 0.58178 0.35533 0.06814 0.0
O86 O 0.68271 0.33713 0.10875 0.0
O87 O 0.66277 0.27813 0.04769 0.0
Sc88 Sc 0.57538 0.66834 0.60682 0.0
Sc89 Sc 0.60431 0.72758 0.56515 0.0
Sc90 Sc 0.66614 0.71536 0.61155 0.0
O91 O 0.61538 0.70386 0.59455 0.0
C92 C 0.59839 0.71198 0.64941 0.0
C93 C 0.51846 0.72845 0.58539 0.0
C94 C 0.64478 0.79141 0.59312 0.0
C95 C 0.57393 0.64677 0.55709 0.0
C96 C 0.65948 0.63209 0.61912 0.0
C97 C 0.69625 0.71105 0.56084 0.0
O98 O 0.57258 0.6961 0.63743 0.0
O99 O 0.5469 0.74538 0.57608 0.0
O100 O 0.65631 0.77145 0.60884 0.0
O101 O 0.57643 0.638 0.57728 0.0
O102 O 0.6805 0.6599 0.61558 0.0
O103 O 0.66113 0.71159 0.55262 0.0
O104 O 0.62124 0.63239 0.61888 0.0
O105 O 0.57834 0.67897 0.55038 0.0
O106 O 0.70305 0.71485 0.58155 0.0
O107 O 0.52354 0.69859 0.59523 0.0
O108 O 0.63435 0.71831 0.64311 0.0
O109 O 0.62897 0.77924 0.5754 0.0
Sc110 Sc 0.82801 0.78355 0.11535 0.0
Sc111 Sc 0.87327 0.77895 0.06357 0.0
Sc112 Sc 0.91429 0.83303 0.10408 0.0
O113 O 0.87187 0.79841 0.09441 0.0
C114 C 0.83387 0.86574 0.12454 0.0
C115 C 0.78236 0.7921 0.06874 0.0
C116 C 0.90082 0.8605 0.05653 0.0
C117 C 0.84407 0.7112 0.09229 0.0
C118 C 0.90642 0.78501 0.14602 0.0
C119 C 0.96352 0.77638 0.07476 0.0
O120 O 0.81229 0.83827 0.12086 0.0
O121 O 0.81419 0.79818 0.05778 0.0
O122 O 0.90177 0.86746 0.07704 0.0
O123 O 0.84161 0.72839 0.11037 0.0
O124 O 0.9285 0.79999 0.13161 0.0
O125 O 0.93257 0.75923 0.06847 0.0
O126 O 0.86831 0.78229 0.14398 0.0
O127 O 0.85 0.72657 0.07368 0.0
O128 O 0.96145 0.80582 0.08544 0.0
O129 O 0.78276 0.78191 0.08895 0.0
O130 O 0.8721 0.86543 0.12286 0.0
O131 O 0.89662 0.82871 0.0491 0.0
Sc132 Sc 0.08172 0.82555 0.39314 0.0
Sc133 Sc 0.11323 0.76923 0.43515 0.0
Sc134 Sc 0.17096 0.77834 0.38742 0.0
O135 O 0.12206 0.79097 0.40518 0.0
C136 C 0.10036 0.77967 0.35129 0.0
C137 C 0.02655 0.76667 0.41768 0.0
C138 C 0.15065 0.70408 0.4075 0.0
C139 C 0.08303 0.85 0.4418 0.0
C140 C 0.16551 0.86059 0.37852 0.0
C141 C 0.20437 0.78621 0.43716 0.0
O142 O 0.07485 0.79406 0.3641 0.0
O143 O 0.0561 0.74915 0.4253 0.0
O144 O 0.15819 0.72281 0.3905 0.0
O145 O 0.08732 0.85831 0.42161 0.0
O146 O 0.18638 0.83337 0.38347 0.0
O147 O 0.16986 0.78877 0.44595 0.0
O148 O 0.12717 0.85984 0.378 0.0
O149 O 0.08565 0.8178 0.44875 0.0
O150 O 0.20965 0.77781 0.41683 0.0
O151 O 0.03093 0.79669 0.40779 0.0
O152 O 0.13758 0.77681 0.35623 0.0
O153 O 0.13952 0.71769 0.42588 0.0
Sc154 Sc 0.41198 0.66439 0.8903 0.0
Sc155 Sc 0.37773 0.7213 0.9313 0.0
Sc156 Sc 0.32781 0.7174 0.8808 0.0
O157 O 0.37251 0.7012 0.90068 0.0
C158 C 0.40402 0.71268 0.84832 0.0
C159 C 0.46671 0.71955 0.91807 0.0
C160 C 0.34877 0.78956 0.90324 0.0
C161 C 0.40099 0.6388 0.93833 0.0
C162 C 0.3288 0.63486 0.8714 0.0
C163 C 0.28573 0.70944 0.92847 0.0
O164 O 0.42597 0.69563 0.8619 0.0
O165 O 0.43734 0.73864 0.92433 0.0
O166 O 0.34344 0.77209 0.8855 0.0
O167 O 0.39904 0.6313 0.91793 0.0
O168 O 0.30935 0.66334 0.8753 0.0
O169 O 0.31835 0.70439 0.93892 0.0
O170 O 0.36702 0.63338 0.87255 0.0
O171 O 0.40002 0.67095 0.9455 0.0
O172 O 0.28453 0.71892 0.90812 0.0
O173 O 0.462 0.68982 0.90792 0.0
O174 O 0.36674 0.71878 0.8517 0.0
O175 O 0.35612 0.77444 0.92176 0.0
H176 H 0.13293 0.92709 0.37106 0.0
H177 H 0.16814 0.98469 0.3717 0.0
H178 H 0.281 0.93019 0.38125 0.0
H179 H 0.24654 0.87273 0.38005 0.0
H180 H 0.20978 0.01078 0.40678 0.0
H181 H 0.31082 0.00184 0.33406 0.0
H182 H 0.26905 0.97161 0.33815 0.0
H183 H 0.31575 0.96448 0.35253 0.0
C184 C 0.16535 0.92729 0.37276 0.0
C185 C 0.18682 0.89519 0.37551 0.0
C186 C 0.18541 0.96025 0.37323 0.0
C187 C 0.22724 0.96172 0.37635 0.0
C188 C 0.24886 0.92973 0.37836 0.0
H189 H 0.34975 0.15249 0.42827 0.0
H190 H 0.32529 0.0909 0.42367 0.0
C191 C 0.22895 0.89683 0.37778 0.0
C192 C 0.24785 0.99662 0.37932 0.0
H193 H 0.32472 0.04857 0.35988 0.0
C194 C 0.2348 0.01915 0.39646 0.0
C195 C 0.28045 0.00745 0.36583 0.0
C196 C 0.29462 0.98524 0.34648 0.0
C197 C 0.25338 0.05228 0.40048 0.0
C198 C 0.28661 0.06274 0.38733 0.0
C199 C 0.29967 0.04021 0.37018 0.0
C200 C 0.30575 0.09841 0.38977 0.0
C201 C 0.23643 0.07621 0.41831 0.0
C202 C 0.30475 0.12235 0.37193 0.0
C203 C 0.31906 0.1572 0.37439 0.0
C204 C 0.33468 0.16901 0.39482 0.0
C205 C 0.33764 0.14439 0.41238 0.0
C206 C 0.32338 0.10929 0.40984 0.0
H207 H 0.20564 0.06788 0.4233 0.0
H208 H 0.25599 0.07483 0.43318 0.0
H209 H 0.23537 0.10449 0.41267 0.0
H210 H 0.29155 0.11446 0.35625 0.0
H211 H 0.31668 0.17519 0.36038 0.0
H212 H 0.14778 0.34494 0.92958 0.0
H213 H 0.16779 0.40765 0.92419 0.0
H214 H 0.19899 0.38464 0.85634 0.0
H215 H 0.17841 0.32284 0.86129 0.0
H216 H 0.24245 0.43089 0.91386 0.0
H217 H 0.13712 0.47624 0.849 0.0
H218 H 0.12892 0.43576 0.86474 0.0
H219 H 0.16171 0.43561 0.84099 0.0
C220 C 0.15818 0.35344 0.91341 0.0
C221 C 0.16159 0.32876 0.89592 0.0
C222 C 0.16964 0.38923 0.91036 0.0
C223 C 0.1843 0.40093 0.88975 0.0
C224 C 0.18681 0.37652 0.87221 0.0
H225 H 0.35806 0.56704 0.86464 0.0
H226 H 0.32076 0.51087 0.86816 0.0
C227 C 0.17537 0.34097 0.87519 0.0
C228 C 0.2007 0.43756 0.8869 0.0
H229 H 0.19915 0.50974 0.85218 0.0
C230 C 0.23259 0.44837 0.90058 0.0
C231 C 0.18755 0.46052 0.86972 0.0
C232 C 0.15165 0.45158 0.85545 0.0
C233 C 0.25281 0.48084 0.89698 0.0
C234 C 0.24149 0.50259 0.87881 0.0
C235 C 0.20842 0.49259 0.86575 0.0
C236 C 0.26312 0.53622 0.87352 0.0
C237 C 0.286 0.49157 0.91273 0.0
C238 C 0.24259 0.56893 0.87382 0.0
C239 C 0.26366 0.60107 0.87144 0.0
C240 C 0.30576 0.60109 0.86879 0.0
C241 C 0.32577 0.56809 0.86686 0.0
C242 C 0.30456 0.53594 0.8691 0.0
H243 H 0.28319 0.47758 0.92891 0.0
H244 H 0.31546 0.48421 0.90544 0.0
H245 H 0.28592 0.5209 0.91575 0.0
H246 H 0.21052 0.5697 0.87694 0.0
H247 H 0.24714 0.62591 0.8729 0.0
H248 H 0.73984 0.61987 0.62567 0.0
H249 H 0.77506 0.56273 0.62241 0.0
H250 H 0.66192 0.5086 0.61193 0.0
H251 H 0.62637 0.56526 0.61573 0.0
H252 H 0.71115 0.47052 0.63832 0.0
H253 H 0.79322 0.51484 0.56304 0.0
H254 H 0.80187 0.54257 0.58686 0.0
H255 H 0.75242 0.54017 0.57487 0.0
C256 C 0.72238 0.59573 0.62299 0.0
C257 C 0.68029 0.59721 0.62078 0.0
C258 C 0.74261 0.56317 0.62093 0.0
C259 C 0.72119 0.53164 0.6163 0.0
C260 C 0.67906 0.53271 0.6153 0.0
H261 H 0.80187 0.33238 0.55852 0.0
H262 H 0.77673 0.39318 0.56506 0.0
C263 C 0.65877 0.56515 0.61757 0.0
C264 C 0.74243 0.49757 0.61195 0.0
H265 H 0.80998 0.45765 0.57728 0.0
C266 C 0.73283 0.46771 0.62501 0.0
C267 C 0.77014 0.49387 0.59429 0.0
C268 C 0.7798 0.52444 0.57881 0.0
C269 C 0.7502 0.4342 0.62095 0.0
C270 C 0.77887 0.43074 0.60375 0.0
C271 C 0.78838 0.46054 0.59061 0.0
C272 C 0.79834 0.39604 0.59885 0.0
C273 C 0.73668 0.40262 0.63472 0.0
C274 C 0.82033 0.37829 0.61532 0.0
C275 C 0.83422 0.3436 0.61173 0.0
C276 C 0.8271 0.3263 0.59142 0.0
C277 C 0.80777 0.3451 0.57432 0.0
C278 C 0.79333 0.37974 0.57806 0.0
H279 H 0.70713 0.40759 0.64271 0.0
H280 H 0.73425 0.37801 0.62449 0.0
H281 H 0.759 0.39773 0.64804 0.0
H282 H 0.82559 0.39083 0.63124 0.0
H283 H 0.84961 0.32993 0.62509 0.0
H284 H 0.64261 0.1683 0.13086 0.0
H285 H 0.66797 0.10839 0.13904 0.0
H286 H 0.69528 0.09289 0.06986 0.0
H287 H 0.66829 0.15248 0.06144 0.0
H288 H 0.66898 0.0317 0.08875 0.0
H289 H 0.78739 0.09258 0.14143 0.0
H290 H 0.73753 0.10287 0.1507 0.0
H291 H 0.7546 0.119 0.1242 0.0
C292 C 0.65333 0.15181 0.11734 0.0
C293 C 0.65392 0.16507 0.09555 0.0
C294 C 0.66812 0.11774 0.12206 0.0
C295 C 0.6848 0.09669 0.10519 0.0
C296 C 0.68294 0.10888 0.08317 0.0
H297 H 0.86443 0.93267 0.11738 0.0
H298 H 0.82664 0.98835 0.11439 0.0
C299 C 0.66739 0.14282 0.07836 0.0
C300 C 0.70611 0.06297 0.11066 0.0
H301 H 0.78351 0.02929 0.14144 0.0
C302 C 0.69399 0.03112 0.10028 0.0
C303 C 0.73925 0.0624 0.12542 0.0
C304 C 0.75577 0.09609 0.13591 0.0
C305 C 0.71403 -0.00131 0.10429 0.0
C306 C 0.7463 0.99794 0.11962 0.0
C307 C 0.7584 0.0298 0.12997 0.0
C308 C 0.76966 0.96488 0.12401 0.0
C309 C 0.7013 0.96589 0.09143 0.0
C310 C 0.75062 0.93353 0.13145 0.0
C311 C 0.77212 0.90151 0.13301 0.0
C312 C 0.81324 0.90046 0.12757 0.0
C313 C 0.83287 0.93253 0.1218 0.0
C314 C 0.81122 0.96439 0.11996 0.0
H315 H 0.68383 0.97305 0.07638 0.0
H316 H 0.72777 0.94986 0.0863 0.0
H317 H 0.68184 0.94888 0.10204 0.0
H318 H 0.71885 0.93354 0.13537 0.0
H319 H 0.7562 0.87733 0.13769 0.0
H320 H 0.86941 0.06523 0.60759 0.0
H321 H 0.83302 0.0085 0.60443 0.0
H322 H 0.72637 0.05839 0.63067 0.0
H323 H 0.7622 0.11541 0.63343 0.0
H324 H 0.79304 0.96481 0.63291 0.0
H325 H 0.68714 0.02138 0.57122 0.0
H326 H 0.73193 0.04471 0.58005 0.0
H327 H 0.68749 0.0452 0.59703 0.0
C328 C 0.83848 0.06398 0.61316 0.0
C329 C 0.8186 0.09492 0.62059 0.0
C330 C 0.81763 0.03158 0.61119 0.0
C331 C 0.77667 0.02954 0.61668 0.0
C332 C 0.75762 0.05968 0.62568 0.0
H333 H 0.64521 0.83076 0.63083 0.0
H334 H 0.67391 0.89042 0.636 0.0
C335 C 0.77829 0.09214 0.62747 0.0
C336 C 0.75367 0.99621 0.61239 0.0
H337 H 0.67262 0.9627 0.58431 0.0
C338 C 0.76674 0.96433 0.62228 0.0
C339 C 0.71984 0.99553 0.59812 0.0
C340 C 0.70595 0.02844 0.5858 0.0
C341 C 0.74652 0.93187 0.61861 0.0
C342 C 0.71162 0.93148 0.60514 0.0
C343 C 0.69898 0.96321 0.59489 0.0
C344 C 0.68836 0.89814 0.60138 0.0
C345 C 0.76328 0.89817 0.62885 0.0
C346 C 0.68424 0.88387 0.57996 0.0
C347 C 0.66702 0.84996 0.57688 0.0
C348 C 0.65401 0.82992 0.59524 0.0
C349 C 0.65549 0.84548 0.61642 0.0
C350 C 0.67215 0.87942 0.61943 0.0
H351 H 0.79555 0.90127 0.63325 0.0
H352 H 0.74653 0.89205 0.64429 0.0
H353 H 0.76012 0.87501 0.61745 0.0
H354 H 0.69621 0.89813 0.56578 0.0
H355 H 0.66636 0.83852 0.5604 0.0
H356 H 0.81258 0.66901 0.05947 0.0
H357 H 0.78678 0.60779 0.06347 0.0
H358 H 0.8304 0.60462 0.13073 0.0
H359 H 0.85518 0.66595 0.12707 0.0
H360 H 0.81839 0.54201 0.07459 0.0
H361 H 0.71067 0.58786 0.13867 0.0
H362 H 0.73959 0.61858 0.12197 0.0
H363 H 0.76218 0.59699 0.14552 0.0
C364 C 0.81729 0.655 0.07496 0.0
C365 C 0.83534 0.67241 0.09306 0.0
C366 C 0.80245 0.62009 0.07725 0.0
C367 C 0.80572 0.60209 0.09761 0.0
C368 C 0.82652 0.61844 0.11511 0.0
H369 H 0.74259 0.37713 0.11799 0.0
H370 H 0.77862 0.43415 0.11576 0.0
C371 C 0.84086 0.65339 0.11294 0.0
C372 C 0.7854 0.56716 0.10097 0.0
H373 H 0.71409 0.52536 0.13247 0.0
C374 C 0.7956 0.53829 0.08723 0.0
C375 C 0.75514 0.56262 0.11724 0.0
C376 C 0.7409 0.59323 0.13155 0.0
C377 C 0.77658 0.50486 0.08945 0.0
C378 C 0.74727 0.50004 0.10621 0.0
C379 C 0.73693 0.52899 0.11984 0.0
C380 C 0.72545 0.46572 0.1092 0.0
C381 C 0.78723 0.47539 0.07341 0.0
C382 C 0.68339 0.46482 0.10743 0.0
C383 C 0.6626 0.4324 0.10909 0.0
C384 C 0.68352 0.40017 0.11249 0.0
C385 C 0.72555 0.40139 0.11518 0.0
C386 C 0.74627 0.43391 0.1137 0.0
H387 H 0.80192 0.48608 0.05825 0.0
H388 H 0.80856 0.45668 0.08148 0.0
H389 H 0.76009 0.45999 0.06842 0.0
H390 H 0.66668 0.48912 0.10413 0.0
H391 H 0.63028 0.43252 0.10688 0.0
H392 H 0.37536 0.4346 0.38349 0.0
H393 H 0.33843 0.49032 0.38895 0.0
H394 H 0.22957 0.43928 0.36619 0.0
H395 H 0.266 0.38322 0.36095 0.0
H396 H 0.29296 0.53358 0.36172 0.0
H397 H 0.19927 0.47389 0.42833 0.0
H398 H 0.24348 0.45214 0.41748 0.0
H399 H 0.19684 0.45025 0.40246 0.0
C400 C 0.34375 0.43533 0.37919 0.0
C401 C 0.32357 0.40428 0.372 0.0
C402 C 0.32264 0.46718 0.38247 0.0
C403 C 0.28109 0.46854 0.37858 0.0
C404 C 0.26143 0.43842 0.36989 0.0
H405 H 0.14132 0.66201 0.37137 0.0
H406 H 0.16969 0.60256 0.36548 0.0
C407 C 0.28242 0.40651 0.3667 0.0
C408 C 0.25821 0.50123 0.38419 0.0
H409 H 0.18196 0.53268 0.4167 0.0
C410 C 0.26872 0.53341 0.37373 0.0
C411 C 0.22712 0.50098 0.40022 0.0
C412 C 0.21618 0.46756 0.41296 0.0
C413 C 0.24845 0.56531 0.37855 0.0
C414 C 0.21627 0.5648 0.3939 0.0
C415 C 0.20627 0.5328 0.40473 0.0
C416 C 0.19294 0.59749 0.39879 0.0
C417 C 0.26208 0.59943 0.36738 0.0
C418 C 0.1942 0.61312 0.41995 0.0
C419 C 0.17738 0.64699 0.42348 0.0
C420 C 0.15942 0.66552 0.40582 0.0
C421 C 0.15546 0.64845 0.38519 0.0
C422 C 0.17181 0.61462 0.38176 0.0
H423 H 0.29315 0.59708 0.36078 0.0
H424 H 0.24176 0.60535 0.35327 0.0
H425 H 0.26104 0.6224 0.37903 0.0
H426 H 0.21013 0.60006 0.43334 0.0
H427 H 0.18094 0.65964 0.43951 0.0
H428 H 0.24302 0.11751 0.86765 0.0
H429 H 0.27904 0.06089 0.87076 0.0
H430 H 0.16742 0.00605 0.88426 0.0
H431 H 0.13093 0.06251 0.88086 0.0
H432 H 0.28256 0.01957 0.90837 0.0
H433 H 0.21954 0.94155 0.83828 0.0
H434 H 0.2137 0.98945 0.84054 0.0
H435 H 0.18188 0.95988 0.85626 0.0
C436 C 0.22594 0.09332 0.87084 0.0
C437 C 0.18403 0.09457 0.874 0.0
C438 C 0.24665 0.061 0.8727 0.0
C439 C 0.22591 0.02928 0.87766 0.0
C440 C 0.18393 0.03014 0.88004 0.0
H441 H 0.3178 0.83316 0.93544 0.0
H442 H 0.292 0.89402 0.93015 0.0
C443 C 0.16311 0.06246 0.87808 0.0
C444 C 0.24854 0.99583 0.88174 0.0
H445 H 0.2575 0.90909 0.86496 0.0
C446 C 0.27733 0.99544 0.89879 0.0
C447 C 0.24188 0.96455 0.8691 0.0
C448 C 0.21286 0.96384 0.84988 0.0
C449 C 0.29923 0.96436 0.90377 0.0
C450 C 0.29158 0.93276 0.8916 0.0
C451 C 0.26318 0.93333 0.87436 0.0
C452 C 0.31256 0.89862 0.89622 0.0
C453 C 0.33067 0.96579 0.92176 0.0
C454 C 0.33328 0.88132 0.87909 0.0
C455 C 0.34758 0.84661 0.88201 0.0
C456 C 0.34157 0.8285 0.90216 0.0
C457 C 0.32323 0.84665 0.91984 0.0
C458 C 0.30848 0.88141 0.91682 0.0
H459 H 0.34059 0.9937 0.92511 0.0
H460 H 0.31778 0.95478 0.93729 0.0
H461 H 0.35737 0.94954 0.91728 0.0
H462 H 0.33689 0.89416 0.86311 0.0
H463 H 0.36182 0.83332 0.86813 0.0
H464 H 0.39376 0.41789 0.43559 0.0
H465 H 0.4194 0.46826 0.45709 0.0
H466 H 0.47714 0.39498 0.50219 0.0
H467 H 0.45152 0.34399 0.48043 0.0
H468 H 0.41574 0.48951 0.50222 0.0
H469 H 0.57033 0.45445 0.47456 0.0
H470 H 0.52595 0.43487 0.46227 0.0
H471 H 0.5431 0.41986 0.4889 0.0
C472 C 0.41114 0.41246 0.45041 0.0
C473 C 0.421 0.37713 0.45631 0.0
C474 C 0.42575 0.44126 0.46265 0.0
C475 C 0.4508 0.43532 0.48091 0.0
C476 C 0.4583 0.40002 0.48789 0.0
H477 H 0.59253 0.57668 0.56097 0.0
H478 H 0.56327 0.52665 0.54075 0.0
C479 C 0.44335 0.37097 0.47566 0.0
C480 C 0.4714 0.46626 0.49124 0.0
H481 H 0.5636 0.50555 0.49709 0.0
C482 C 0.44807 0.49304 0.50119 0.0
C483 C 0.51351 0.47092 0.48952 0.0
C484 C 0.53981 0.44372 0.47809 0.0
C485 C 0.46586 0.52411 0.50993 0.0
C486 C 0.50799 0.52879 0.50818 0.0
C487 C 0.53128 0.50201 0.49819 0.0
C488 C 0.52886 0.55979 0.51833 0.0
C489 C 0.43956 0.55119 0.52146 0.0
C490 C 0.52062 0.59518 0.51177 0.0
C491 C 0.53749 0.6241 0.52335 0.0
C492 C 0.56267 0.61782 0.54162 0.0
C493 C 0.57286 0.58236 0.54709 0.0
C494 C 0.55619 0.55369 0.53555 0.0
H495 H 0.40942 0.54004 0.52548 0.0
H496 H 0.45387 0.56066 0.53702 0.0
H497 H 0.43527 0.57467 0.51046 0.0
H498 H 0.50022 0.60039 0.49817 0.0
H499 H 0.5291 0.65114 0.51883 0.0
H500 H 0.883 0.93044 0.06306 0.0
H501 H 0.90955 0.98174 0.04271 0.0
H502 H 0.96707 0.91032 -0.00356 0.0
H503 H 0.93986 0.85865 0.0166 0.0
H504 H 0.99008 0.99428 0.0391 0.0
H505 H 0.92041 0.98651 0.95576 0.0
H506 H 0.90083 0.96223 0.97928 0.0
H507 H 0.94367 0.94549 0.9644 0.0
C508 C 0.90045 0.92566 0.0482 0.0
C509 C 0.90951 0.89057 0.04141 0.0
C510 C 0.91567 0.955 0.03664 0.0
C511 C 0.94026 0.94987 0.01809 0.0
C512 C 0.94759 0.91489 0.01052 0.0
H513 H 0.09658 0.07748 0.93823 0.0
H514 H 0.06311 0.03077 0.95963 0.0
C515 C 0.93202 0.88538 0.02201 0.0
C516 C 0.96136 0.98092 0.00815 0.0
H517 H 0.97682 0.02563 0.95964 0.0
C518 C 0.98689 0.00139 0.02177 0.0
C519 C 0.95709 0.99009 0.98558 0.0
C520 C 0.92873 0.97016 0.97043 0.0
C521 C 0.00919 0.0302 0.01323 0.0
C522 C 0.00555 0.03883 0.99058 0.0
C523 C 0.97956 0.01877 0.97704 0.0
C524 C 0.02968 0.06755 0.98019 0.0
C525 C 0.0374 0.05049 0.02828 0.0
C526 C 0.02297 0.10377 0.98525 0.0
C527 C 0.04234 0.13072 0.97309 0.0
C528 C 0.06825 0.12161 0.9556 0.0
C529 C 0.07656 0.0853 0.95153 0.0
C530 C 0.05741 0.05856 0.96368 0.0
H531 H 0.04188 0.03661 0.04437 0.0
H532 H 0.0671 0.05422 0.02019 0.0
H533 H 0.02478 0.07742 0.03165 0.0
H534 H 0.00133 0.11117 -0.00216 0.0
H535 H 0.03506 0.15846 0.97639 0.0
H536 H 0.94389 0.14812 0.5106 0.0
H537 H 0.97257 0.0967 0.49088 0.0
H538 H 0.904 0.02473 0.5322 0.0
H539 H 0.87605 0.07576 0.55213 0.0
H540 H 0.98563 0.01274 0.53395 0.0
H541 H 0.93317 0.02108 0.44676 0.0
H542 H 0.95445 0.06183 0.45743 0.0
H543 H 0.9086 0.04461 0.46909 0.0
C544 C 0.93384 0.12136 0.51483 0.0
C545 C 0.90792 0.11576 0.53285 0.0
C546 C 0.95028 0.09202 0.50363 0.0
C547 C 0.94041 0.05693 0.51014 0.0
C548 C 0.91208 0.05157 0.52699 0.0
H549 H 0.03328 0.84528 0.47787 0.0
H550 H 4e-05 0.89554 0.49654 0.0
C551 C 0.89603 0.08071 0.53827 0.0
C552 C 0.96302 0.0259 0.50148 0.0
H553 H 0.98586 0.97998 0.45439 0.0
C554 C 0.98549 0.00538 0.51656 0.0
C555 C 0.96287 0.01657 0.47883 0.0
C556 C 0.93822 0.03695 0.46208 0.0
C557 C 0.00839 0.97605 0.50952 0.0
C558 C 0.00837 0.96682 0.48686 0.0
C559 C 0.9858 0.98724 0.47179 0.0
C560 C 0.0321 0.93649 0.4782 0.0
C561 C 0.03316 0.95574 0.52626 0.0
C562 C 0.06166 0.94296 0.46218 0.0
C563 C 0.08045 0.91449 0.45155 0.0
C564 C 0.06998 0.87896 0.45671 0.0
C565 C 0.04223 0.87239 0.47378 0.0
C566 C 0.02317 0.90106 0.48438 0.0
H567 H 0.03714 0.9711 0.54187 0.0
H568 H 0.01773 0.9302 0.53033 0.0
H569 H 0.06327 0.94921 0.51944 0.0
H570 H 0.06909 0.97011 0.45729 0.0
H571 H 0.1019 0.92032 0.43852 0.0
H572 H 0.37456 0.5705 0.93435 0.0
H573 H 0.4005 0.51785 0.95353 0.0
H574 H 0.47517 0.58582 0.99424 0.0
H575 H 0.44854 0.63883 0.97534 0.0
H576 H 0.47905 0.49903 0.95156 0.0
H577 H 0.43237 0.51459 0.03915 0.0
H578 H 0.40977 0.53991 0.01694 0.0
H579 H 0.45748 0.5534 0.0283 0.0
C580 C 0.39565 0.57428 0.94785 0.0
C581 C 0.40959 0.60871 0.9534 0.0
C582 C 0.41055 0.54417 0.95871 0.0
C583 C 0.43975 0.54787 0.9753 0.0
C584 C 0.45211 0.58237 0.98175 0.0
H585 H 0.60146 0.41236 0.04575 0.0
H586 H 0.56861 0.46031 0.02519 0.0
C587 C 0.43685 0.61266 0.97099 0.0
C588 C 0.46005 0.51559 0.98412 0.0
H589 H 0.4838 0.47165 0.03186 0.0
C590 C 0.47974 0.4928 0.96911 0.0
C591 C 0.46086 0.50754 0.00698 0.0
C592 C 0.43866 0.52994 0.02377 0.0
C593 C 0.50126 0.46275 0.97643 0.0
C594 C 0.50286 0.45528 -0.00069 0.0
C595 C 0.4826 0.47765 0.01429 0.0
C596 C 0.5267 0.42529 0.00838 0.0
C597 C 0.52317 0.43986 0.9598 0.0
C598 C 0.51504 0.38951 0.00496 0.0
C599 C 0.5341 0.36184 0.0166 0.0
C600 C 0.56462 0.36987 0.03192 0.0
C601 C 0.57791 0.40546 0.03407 0.0
C602 C 0.5591 0.43289 0.02243 0.0
H603 H 0.5244 0.45259 0.94318 0.0
H604 H 0.55433 0.43447 0.96549 0.0
H605 H 0.50747 0.41373 0.95819 0.0
H606 H 0.4898 0.3832 0.9943 0.0
H607 H 0.52296 0.3347 0.01489 0.0
H608 H 0.62018 0.23072 0.16858 0.0
H609 H 0.58674 0.2093 0.20251 0.0
H610 H 0.5092 0.30175 0.20135 0.0
H611 H 0.54145 0.32258 0.1676 0.0
H612 H 0.57774 0.23757 0.24319 0.0
H613 H 0.4276 0.22248 0.20642 0.0
H614 H 0.47228 0.22738 0.18966 0.0
H615 H 0.44621 0.26629 0.19996 0.0
C616 C 0.59624 0.24652 0.17578 0.0
C617 C 0.5831 0.27812 0.16541 0.0
C618 C 0.57695 0.23412 0.19497 0.0
C619 C 0.54444 0.25323 0.20392 0.0
C620 C 0.53302 0.28575 0.1942 0.0
H621 H 0.4683 0.31676 0.32386 0.0
H622 H 0.50141 0.29633 0.29044 0.0
C623 C 0.55184 0.29788 0.17506 0.0
C624 C 0.52314 0.24099 0.22407 0.0
H625 H 0.4286 0.24027 0.24586 0.0
C626 C 0.54514 0.23703 0.24372 0.0
C627 C 0.48065 0.23873 0.22474 0.0
C628 C 0.45545 0.2385 0.20396 0.0
C629 C 0.52559 0.23552 0.26426 0.0
C630 C 0.48324 0.23929 0.26508 0.0
C631 C 0.46114 0.23849 0.24531 0.0
C632 C 0.46251 0.25037 0.28565 0.0
C633 C 0.55069 0.23184 0.28495 0.0
C634 C 0.42795 0.23259 0.29341 0.0
C635 C 0.40818 0.24482 0.31247 0.0
C636 C 0.42282 0.27493 0.32393 0.0
C637 C 0.45664 0.29313 0.31565 0.0
C638 C 0.47597 0.28119 0.29666 0.0
H639 H 0.57729 0.21463 0.2818 0.0
H640 H 0.56202 0.25862 0.28996 0.0
H641 H 0.53309 0.22022 0.29884 0.0
H642 H 0.41658 0.20917 0.28486 0.0
H643 H 0.3822 0.23027 0.31853 0.0
H644 H 0.14374 0.22648 0.80832 0.0
H645 H 0.11607 0.24192 0.77178 0.0
H646 H -0.0041 0.23538 0.79833 0.0
H647 H 0.02282 0.22054 0.8345 0.0
H648 H 0.0655 0.19666 0.74852 0.0
H649 H 0.98986 0.32646 0.76182 0.0
H650 H 0.02759 0.30932 0.78055 0.0
H651 H 0.97623 0.29428 0.78257 0.0
C652 C 0.11149 0.22897 0.8064 0.0
C653 C 0.08551 0.22191 0.82424 0.0
C654 C 0.09576 0.23786 0.78558 0.0
C655 C 0.05397 0.24039 0.78248 0.0
C656 C 0.02823 0.23447 0.80045 0.0
H657 H 0.87479 0.2188 0.68246 0.0
H658 H 0.91309 0.23106 0.71647 0.0
C659 C 0.04377 0.22546 0.82109 0.0
C660 C 0.03647 0.24454 0.76012 0.0
H661 H 0.96486 0.29059 0.73131 0.0
C662 C 0.04419 0.21764 0.74453 0.0
C663 C 0.00838 0.27177 0.75511 0.0
C664 C 0.00033 0.30228 0.77084 0.0
C665 C 0.02295 0.21607 0.72452 0.0
C666 C 0.99377 0.24253 0.71986 0.0
C667 C 0.98707 0.27024 0.73506 0.0
C668 C 0.96933 0.24091 0.69946 0.0
C669 C 0.03055 0.18511 0.70899 0.0
C670 C 0.98802 0.24389 0.67878 0.0
C671 C 0.96649 0.23661 0.65952 0.0
C672 C 0.9257 0.22661 0.66056 0.0
C673 C 0.9062 0.22628 0.68119 0.0
C674 C 0.92799 0.23328 0.70057 0.0
H675 H 0.04755 0.16318 0.71715 0.0
H676 H 0.00178 0.17404 0.70259 0.0
H677 H 0.04846 0.19464 0.69464 0.0
H678 H 0.01971 0.25042 0.67761 0.0
H679 H 0.98216 0.23779 0.6438 0.0
H680 H 0.47147 0.68684 0.82903 0.0
H681 H 0.50621 0.70952 0.79664 0.0
H682 H 0.41713 0.79252 0.78932 0.0
H683 H 0.38105 0.76898 0.82178 0.0
H684 H 0.43158 0.76337 0.75117 0.0
H685 H 0.57904 0.79259 0.78741 0.0
H686 H 0.56578 0.74798 0.79545 0.0
H687 H 0.53516 0.78513 0.80446 0.0
C688 C 0.45928 0.71009 0.82068 0.0
C689 C 0.42356 0.72619 0.828 0.0
C690 C 0.47958 0.7234 0.8023 0.0
C691 C 0.46523 0.75361 0.79103 0.0
C692 C 0.42918 0.76959 0.79805 0.0
H693 H 0.6206 0.77236 0.67259 0.0
H694 H 0.58842 0.79534 0.70654 0.0
C695 C 0.40843 0.75594 0.81643 0.0
C696 C 0.48604 0.76531 0.77056 0.0
H697 H 0.58068 0.76824 0.74884 0.0
C698 C 0.46409 0.76572 0.75073 0.0
C699 C 0.52834 0.76985 0.76982 0.0
C700 C 0.55323 0.77432 0.79053 0.0
C701 C 0.48375 0.76555 0.73023 0.0
C702 C 0.52624 0.76375 0.72967 0.0
C703 C 0.54807 0.76838 0.74931 0.0
C704 C 0.54746 0.75049 0.7098 0.0
C705 C 0.45875 0.76488 0.70937 0.0
C706 C 0.53647 0.71702 0.7012 0.0
C707 C 0.55454 0.70403 0.68212 0.0
C708 C 0.5846 0.72393 0.67136 0.0
C709 C 0.59754 0.7565 0.68066 0.0
C710 C 0.579 0.76975 0.69985 0.0
H711 H 0.43059 0.78041 0.71162 0.0
H712 H 0.47554 0.77601 0.69503 0.0
H713 H 0.45008 0.73683 0.70557 0.0
H714 H 0.51335 0.70103 0.70913 0.0
H715 H 0.54439 0.67859 0.67551 0.0
H716 H 0.87531 0.77643 0.18788 0.0
H717 H 0.91327 0.7619 0.22166 0.0
H718 H 0.0207 0.74739 0.18274 0.0
H719 H 0.98351 0.76236 0.14921 0.0
H720 H 0.96566 0.70199 0.23491 0.0
H721 H 0.04674 0.83162 0.22502 0.0
H722 H 0.00137 0.82123 0.20992 0.0
H723 H 0.04849 0.80211 0.20156 0.0
C724 C 0.90685 0.76958 0.18655 0.0
C725 C 0.92667 0.77128 0.16603 0.0
C726 C 0.92844 0.76125 0.20578 0.0
C727 C 0.96988 0.75428 0.20463 0.0
C728 C 0.98891 0.75337 0.18397 0.0
H729 H 0.14363 0.76488 0.31352 0.0
H730 H 0.11621 0.75011 0.27683 0.0
C731 C 0.9676 0.76201 0.16487 0.0
C732 C 0.99407 0.75134 0.22504 0.0
H733 H 0.06513 0.79571 0.25522 0.0
C734 C 0.98761 0.7223 0.23934 0.0
C735 C 0.0229 0.77778 0.23059 0.0
C736 C 0.03021 0.81012 0.2161 0.0
C737 C 0.00887 0.71936 0.25935 0.0
C738 C 0.03665 0.74649 0.26525 0.0
C739 C 0.04408 0.77479 0.25055 0.0
C740 C 0.05418 0.74903 0.28771 0.0
C741 C 0.00111 0.68745 0.27408 0.0
C742 C 0.02844 0.75297 0.30588 0.0
C743 C 0.04386 0.76156 0.32663 0.0
C744 C 0.08544 0.76668 0.32967 0.0
C745 C 0.1115 0.76116 0.31167 0.0
C746 C 0.0959 0.75267 0.29077 0.0
H747 H 0.99119 0.66388 0.26425 0.0
H748 H 0.02834 0.68008 0.28368 0.0
H749 H 0.9767 0.69404 0.2859 0.0
H750 H -0.00387 0.75118 0.30382 0.0
H751 H 0.02293 0.76525 0.34017 0.0
H752 H 0.54235 0.30171 0.42036 0.0
H753 H 0.59804 0.2809 0.4434 0.0
H754 H 0.54531 0.17531 0.44569 0.0
H755 H 0.48928 0.19609 0.42297 0.0
H756 H 0.55323 0.20631 0.48672 0.0
H757 H 0.69649 0.21613 0.44018 0.0
H758 H 0.66643 0.2559 0.43848 0.0
H759 H 0.64808 0.21484 0.42661 0.0
C760 C 0.54361 0.27367 0.4249 0.0
C761 C 0.51136 0.25058 0.4201 0.0
C762 C 0.57541 0.2618 0.43813 0.0
C763 C 0.57559 0.22662 0.44635 0.0
C764 C 0.54556 0.2026 0.4396 0.0
H765 H 0.76439 0.1528 0.53349 0.0
H766 H 0.71048 0.15337 0.50604 0.0
C767 C 0.5137 0.21447 0.42654 0.0
C768 C 0.60292 0.21666 0.46465 0.0
H769 H 0.70153 0.21316 0.47971 0.0
C770 C 0.5857 0.20732 0.48512 0.0
C771 C 0.64514 0.21797 0.46249 0.0
C772 C 0.66519 0.22643 0.4407 0.0
C773 C 0.60966 0.20013 0.5037 0.0
C774 C 0.65182 0.20286 0.50177 0.0
C775 C 0.66908 0.21127 0.48115 0.0
C776 C 0.67894 0.19786 0.52091 0.0
C777 C 0.58969 0.18969 0.52519 0.0
C778 C 0.6779 0.22161 0.53897 0.0
C779 C 0.70851 0.22103 0.55489 0.0
C780 C 0.74063 0.19703 0.55265 0.0
C781 C 0.73987 0.17157 0.53552 0.0
C782 C 0.70926 0.17197 0.51979 0.0
H783 H 0.55868 0.17946 0.52245 0.0
H784 H 0.60735 0.16888 0.53399 0.0
H785 H 0.58776 0.21357 0.53607 0.0
H786 H 0.65502 0.24213 0.53993 0.0
H787 H 0.70884 0.24123 0.56777 0.0
H788 H 0.00537 0.29511 0.92675 0.0
H789 H 0.94572 0.30921 0.94834 0.0
H790 H 0.89521 0.20588 0.93249 0.0
H791 H 0.95562 0.19088 0.91137 0.0
H792 H 0.86442 0.31221 0.94408 0.0
H793 H 0.90984 0.20059 -0.00058 0.0
H794 H 0.94127 0.21653 0.97717 0.0
H795 H 0.89975 0.18697 0.97146 0.0
C796 C 0.98123 0.2756 0.92739 0.0
C797 C 0.98576 0.24143 0.91786 0.0
C798 C 0.9471 0.28378 0.93974 0.0
C799 C 0.9168 0.25809 0.94264 0.0
C800 C 0.91895 0.22563 0.93097 0.0
H801 H 0.69321 0.28284 0.01089 0.0
H802 H 0.74773 0.28116 0.98436 0.0
C803 C 0.9533 0.21727 0.9187 0.0
C804 C 0.88557 0.26394 0.95967 0.0
H805 H 0.84923 0.23026 0.00827 0.0
C806 C 0.86101 0.29431 0.95811 0.0
C807 C 0.88221 0.24119 0.97836 0.0
C808 C 0.90991 0.2097 0.9819 0.0
C809 C 0.83236 0.30204 0.97447 0.0
C810 C 0.8276 0.27825 0.99254 0.0
C811 C 0.85283 0.24837 0.99435 0.0
C812 C 0.79497 0.28238 0.00899 0.0
C813 C 0.80791 0.33585 0.97235 0.0
C814 C 0.80334 0.28296 0.03181 0.0
C815 C 0.77194 0.28335 0.04727 0.0
C816 C 0.73173 0.28298 0.04007 0.0
C817 C 0.72373 0.2832 0.01715 0.0
C818 C 0.75495 0.28261 0.00184 0.0
H819 H 0.8242 0.35652 0.96259 0.0
H820 H 0.77945 0.32971 0.96352 0.0
H821 H 0.80041 0.3472 0.98883 0.0
H822 H 0.83414 0.28251 0.03765 0.0
H823 H 0.77917 0.28315 0.06476 0.0
H824 H 0.96981 0.29573 0.54849 0.0
H825 H 0.02621 0.3135 0.52527 0.0
H826 H 0.08998 0.21777 0.54404 0.0
H827 H 0.0329 0.19897 0.56687 0.0
H828 H 0.10602 0.326 0.52963 0.0
H829 H 0.07819 0.20638 0.47732 0.0
H830 H 0.04419 0.22006 0.49897 0.0
H831 H 0.08911 0.19556 0.50565 0.0
C832 C -0.00396 0.27861 0.54801 0.0
C833 C -0.00357 0.24543 0.55912 0.0
C834 C 0.0283 0.28891 0.53473 0.0
C835 C 0.06161 0.26638 0.5324 0.0
C836 C 0.0639 0.23499 0.54515 0.0
H837 H 0.28691 0.30339 0.47121 0.0
H838 H 0.22836 0.30309 0.495 0.0
C839 C 0.03145 0.22447 0.55837 0.0
C840 C 0.09224 0.27453 0.51538 0.0
H841 H 0.13645 0.24065 0.46898 0.0
C842 C 0.11262 0.30743 0.51631 0.0
C843 C 0.09969 0.25082 0.49758 0.0
C844 C 0.07636 0.21641 0.49461 0.0
C845 C 0.14154 0.31662 0.50037 0.0
C846 C 0.15089 0.29184 0.48342 0.0
C847 C 0.12938 0.25957 0.48203 0.0
C848 C 0.18543 0.297 0.46831 0.0
C849 C 0.16164 0.35281 0.50185 0.0
C850 C 0.1809 0.29345 0.44526 0.0
C851 C 0.21471 0.29297 0.43144 0.0
C852 C 0.25348 0.29573 0.44057 0.0
C853 C 0.25756 0.30093 0.46356 0.0
C854 C 0.22398 0.30124 0.47726 0.0
H855 H 0.14152 0.37277 0.50976 0.0
H856 H 0.18901 0.3506 0.51227 0.0
H857 H 0.17054 0.36291 0.48526 0.0
H858 H 0.15132 0.28989 0.43806 0.0
H859 H 0.21056 0.28894 0.41383 0.0
H860 H 0.45523 0.30874 0.07072 0.0
H861 H 0.39579 0.28992 0.05009 0.0
H862 H 0.43268 0.17961 0.05572 0.0
H863 H 0.49284 0.19839 0.07588 0.0
H864 H 0.42513 0.19951 0.01348 0.0
H865 H 0.28911 0.24116 0.05924 0.0
H866 H 0.32435 0.2773 0.05648 0.0
H867 H 0.33787 0.23823 0.07229 0.0
C868 C 0.44981 0.28036 0.06842 0.0
C869 C 0.47882 0.25504 0.0747 0.0
C870 C 0.41575 0.2696 0.05659 0.0
C871 C 0.40985 0.23334 0.05132 0.0
C872 C 0.43678 0.20773 0.05954 0.0
H873 H 0.2044 0.17258 0.97076 0.0
H874 H 0.25627 0.17295 -0.00068 0.0
C875 C 0.47103 0.21848 0.07112 0.0
C876 C 0.37974 0.223 0.03442 0.0
H877 H 0.28135 0.23254 0.01988 0.0
C878 C 0.39352 0.20618 0.01504 0.0
C879 C 0.33857 0.23155 0.03649 0.0
C880 C 0.32154 0.24772 0.05736 0.0
C881 C 0.36749 0.19878 -0.00264 0.0
C882 C 0.32682 0.20923 -0.00108 0.0
C883 C 0.31271 0.22489 0.01861 0.0
C884 C 0.2983 0.20483 0.98031 0.0
C885 C 0.38383 0.17986 0.97721 0.0
C886 C 0.30525 0.22174 0.95984 0.0
C887 C 0.27575 0.22118 0.94331 0.0
C888 C 0.23869 0.20429 0.94725 0.0
C889 C 0.23263 0.18605 0.96736 0.0
C890 C 0.26217 0.18627 0.9837 0.0
H891 H 0.4112 0.16418 0.98127 0.0
H892 H 0.36106 0.16154 0.96991 0.0
H893 H 0.39221 0.20005 0.96453 0.0
H894 H 0.33265 0.2368 0.95704 0.0
H895 H 0.28097 0.23574 0.92805 0.0
H896 H 0.49407 0.79721 0.57964 0.0
H897 H 0.43408 0.8161 0.55947 0.0
H898 H 0.39208 0.70672 0.558 0.0
H899 H 0.45145 0.68787 0.57867 0.0
H900 H 0.42584 0.79173 0.518 0.0
H901 H 0.28768 0.76025 0.56523 0.0
H902 H 0.33654 0.76301 0.57819 0.0
H903 H 0.3213 0.72283 0.56397 0.0
C904 C 0.47114 0.77746 0.57585 0.0
C905 C 0.47748 0.74105 0.58052 0.0
C906 C 0.43699 0.78826 0.56426 0.0
C907 C 0.40876 0.76281 0.55712 0.0
C908 C 0.41313 0.72692 0.56364 0.0
H909 H 0.27818 0.7541 0.43433 0.0
H910 H 0.32984 0.75267 0.46332 0.0
C911 C 0.44712 0.71615 0.57549 0.0
C912 C 0.37918 0.7725 0.53983 0.0
H913 H 0.28023 0.76603 0.5257 0.0
C914 C 0.39388 0.78665 0.51982 0.0
C915 C 0.33758 0.76594 0.54222 0.0
C916 C 0.31979 0.75251 0.56366 0.0
C917 C 0.36824 0.79343 0.50189 0.0
C918 C 0.32698 0.7851 0.50389 0.0
C919 C 0.31203 0.77204 0.52413 0.0
C920 C 0.29866 0.78926 0.48519 0.0
C921 C 0.38559 0.80943 0.48101 0.0
C922 C 0.26441 0.81057 0.48779 0.0
C923 C 0.23491 0.81116 0.47142 0.0
C924 C 0.2391 0.79043 0.45212 0.0
C925 C 0.27443 0.7706 0.44894 0.0
C926 C 0.30389 0.76978 0.46548 0.0
H927 H 0.41429 0.82375 0.48434 0.0
H928 H 0.3919 0.78767 0.46901 0.0
H929 H 0.36418 0.82841 0.47321 0.0
H930 H 0.2599 0.82589 0.50282 0.0
H931 H 0.20807 0.82691 0.47425 0.0
H932 H 0.98396 0.70853 0.06304 0.0
H933 H 0.04175 0.69063 0.04075 0.0
H934 H 0.08775 0.79867 0.04341 0.0
H935 H 0.0304 0.81661 0.06612 0.0
H936 H 0.0537 0.71884 -0.0001 0.0
H937 H 0.18906 0.74009 0.05189 0.0
H938 H 0.13902 0.73774 0.06341 0.0
H939 H 0.15682 0.77851 0.05086 0.0
C940 C 0.00701 0.72823 0.05942 0.0
C941 C 0.0026 0.76402 0.06619 0.0
C942 C 0.03992 0.71798 0.04665 0.0
C943 C 0.06895 0.74331 0.04041 0.0
C944 C 0.06602 0.77855 0.04835 0.0
H945 H 0.21603 0.74709 0.92252 0.0
H946 H 0.1605 0.75204 0.94904 0.0
C947 C 0.03322 0.78878 0.06133 0.0
C948 C 0.09933 0.73391 0.02354 0.0
H949 H 0.19994 0.73399 0.01293 0.0
C950 C 0.08573 0.72178 0.00281 0.0
C951 C 0.141 0.73762 0.02743 0.0
C952 C 0.15741 0.74887 0.04967 0.0
C953 C 0.11272 0.71386 0.98569 0.0
C954 C 0.15429 0.71891 0.9893 0.0
C955 C 0.16795 0.73039 0.01016 0.0
C956 C 0.18443 0.71256 0.97176 0.0
C957 C 0.09653 0.69987 0.96399 0.0
C958 C 0.21578 0.68838 0.97561 0.0
C959 C 0.2475 0.68577 0.96066 0.0
C960 C 0.24842 0.70729 0.94155 0.0
C961 C 0.21582 0.72995 0.937 0.0
C962 C 0.18414 0.73279 0.95213 0.0
H963 H 0.06599 0.68817 0.96596 0.0
H964 H 0.09442 0.72231 0.952 0.0
H965 H 0.11671 0.6792 0.9569 0.0
H966 H 0.21645 0.67245 0.99061 0.0
H967 H 0.27214 0.66789 0.9645 0.0
H968 H 0.00594 0.70211 0.43548 0.0
H969 H 0.94468 0.68807 0.4555 0.0
H970 H 0.89322 0.78872 0.43505 0.0
H971 H 0.95547 0.80378 0.41553 0.0
H972 H 0.8922 0.78217 0.47863 0.0
H973 H 0.83236 0.65688 0.44285 0.0
H974 H 0.88439 0.65213 0.44993 0.0
H975 H 0.86975 0.68367 0.42884 0.0
C976 C 0.98128 0.72096 0.43469 0.0
C977 C 0.98589 0.75437 0.42418 0.0
C978 C 0.946 0.71268 0.44604 0.0
C979 C 0.91426 0.73726 0.44674 0.0
C980 C 0.91743 0.76937 0.43472 0.0
H981 H 0.69164 0.701 0.51621 0.0
H982 H 0.74525 0.70603 0.48919 0.0
C983 C 0.95295 0.77785 0.42346 0.0
C984 C 0.88077 0.73164 0.46254 0.0
H985 H 0.81205 0.67006 0.48035 0.0
C986 C 0.87428 0.75785 0.47881 0.0
C987 C 0.8574 0.69994 0.46278 0.0
C988 C 0.86107 0.67177 0.445 0.0
C989 C 0.84557 0.75303 0.49554 0.0
C990 C 0.82366 0.72054 0.49645 0.0
C991 C 0.82954 0.69461 0.47992 0.0
C992 C 0.79232 0.71416 0.51342 0.0
C993 C 0.83851 0.78311 0.51177 0.0
C994 C 0.80114 0.71581 0.53618 0.0
C995 C 0.77024 0.71339 0.55187 0.0
C996 C 0.73016 0.70885 0.54499 0.0
C997 C 0.72203 0.70494 0.5222 0.0
C998 C 0.75272 0.70769 0.50664 0.0
H999 H 0.84983 0.80913 0.50532 0.0
H1000 H 0.80602 0.78595 0.51561 0.0
H1001 H 0.85474 0.77727 0.52741 0.0
H1002 H 0.83176 0.71982 0.54178 0.0
H1003 H 0.77761 0.71615 0.56926 0.0
H1004 H 0.71601 0.7498 0.07504 0.0
H1005 H 0.66194 0.73956 0.04806 0.0
H1006 H 0.71014 0.82329 0.00657 0.0
H1007 H 0.76425 0.83341 0.03319 0.0
H1008 H 0.60295 0.7838 0.02701 0.0
H1009 H 0.71666 0.7319 0.96794 0.0
H1010 H 0.72727 0.73877 -0.00304 0.0
H1011 H 0.72718 0.7761 0.97816 0.0
C1012 C 0.71433 0.7667 0.06049 0.0
C1013 C 0.74451 0.79209 0.05605 0.0
C1014 C 0.68368 0.76065 0.04504 0.0
C1015 C 0.68292 0.78 0.0251 0.0
C1016 C 0.71092 0.80749 0.02161 0.0
H1017 H 0.49392 0.78642 0.92774 0.0
H1018 H 0.55021 0.80119 0.95212 0.0
C1019 C 0.74158 0.81339 0.03691 0.0
C1020 C 0.65453 0.77018 0.00729 0.0
H1021 H 0.65047 0.73991 0.95393 0.0
C1022 C 0.61324 0.77413 0.01105 0.0
C1023 C 0.66821 0.75696 0.98664 0.0
C1024 C 0.71222 0.75031 0.98217 0.0
C1025 C 0.58517 0.76608 0.99445 0.0
C1026 C 0.59896 0.75436 0.97348 0.0
C1027 C 0.64017 0.74947 0.96991 0.0
C1028 C 0.5706 0.74649 0.9553 0.0
C1029 C 0.54094 0.76978 -0.00043 0.0
C1030 C 0.56553 0.71124 0.94772 0.0
C1031 C 0.53369 0.70276 0.93351 0.0
C1032 C 0.50654 0.72947 0.92687 0.0
C1033 C 0.51416 0.76525 0.93281 0.0
C1034 C 0.54608 0.7737 0.94684 0.0
H1035 H 0.53521 0.77055 0.01769 0.0
H1036 H 0.52964 0.79513 0.9923 0.0
H1037 H 0.52348 0.7473 0.99228 0.0
H1038 H 0.58452 0.68996 0.95395 0.0
H1039 H 0.52844 0.67495 0.92928 0.0
loop_
_geom_bond_atom_site_label_1
_geom_bond_atom_site_label_2
_geom_bond_distance
_geom_bond_site_symmetry_2
_ccdc_geom_bond_type
Sc0 O3 2.025 . S
Sc0 O10 2.105 . S
Sc0 O13 2.105 . S
Sc0 O16 2.105 . S
Sc0 O19 2.105 . S
Sc1 O3 2.025 . S
Sc1 O11 2.105 . S
Sc1 O15 2.105 . S
Sc1 O17 2.105 . S
Sc1 O21 2.105 . S
Sc2 O3 2.025 . S
Sc2 O12 2.105 . S
Sc2 O14 2.105 . S
Sc2 O18 2.105 . S
Sc2 O20 2.105 . S
O3 Sc0 2.025 . S
O3 Sc1 2.025 . S
O3 Sc2 2.025 . S
C4 O10 1.268 . S
C4 O20 1.268 . S
C5 O11 1.268 . S
C5 O19 1.268 . S
C6 O12 1.268 . S
C6 O21 1.268 . S
C7 O13 1.268 . S
C7 O17 1.268 . S
C8 O14 1.268 . S
C8 O16 1.268 . S
C9 O15 1.268 . S
C9 O18 1.268 . S
O10 Sc0 2.105 . S
O10 C4 1.268 . S
O11 Sc1 2.105 . S
O11 C5 1.268 . S
O12 Sc2 2.105 . S
O12 C6 1.268 . S
O13 Sc0 2.105 . S
O13 C7 1.268 . S
O14 Sc2 2.105 . S
O14 C8 1.268 . S
O15 Sc1 2.105 . S
O15 C9 1.268 . S
O16 Sc0 2.105 . S
O16 C8 1.268 . S
O17 Sc1 2.105 . S
O17 C7 1.268 . S
O18 Sc2 2.105 . S
O18 C9 1.268 . S
O19 Sc0 2.105 . S
O19 C5 1.268 . S
O20 Sc2 2.105 . S
O20 C4 1.268 . S
O21 Sc1 2.105 . S
O21 C6 1.268 . S
Sc22 O25 2.025 . S
Sc22 O32 2.105 . S
Sc22 O35 2.105 . S
Sc22 O38 2.105 . S
Sc22 O41 2.105 . S
Sc23 O25 2.025 . S
Sc23 O33 2.105 . S
Sc23 O37 2.105 . S
Sc23 O39 2.105 . S
Sc23 O43 2.105 . S
Sc24 O25 2.025 . S
Sc24 O34 2.105 . S
Sc24 O36 2.105 . S
Sc24 O40 2.105 . S
Sc24 O42 2.105 . S
O25 Sc22 2.025 . S
O25 Sc23 2.025 . S
O25 Sc24 2.025 . S
C26 O32 1.268 . S
C26 O42 1.268 . S
C27 O33 1.268 . S
C27 O41 1.268 . S
C28 O34 1.268 . S
C28 O43 1.268 . S
C29 O35 1.268 . S
C29 O39 1.268 . S
C30 O36 1.268 . S
C30 O38 1.268 . S
C31 O37 1.268 . S
C31 O40 1.268 . S
O32 Sc22 2.105 . S
O32 C26 1.268 . S
O33 Sc23 2.105 . S
O33 C27 1.268 . S
O34 Sc24 2.105 . S
O34 C28 1.268 . S
O35 Sc22 2.105 . S
O35 C29 1.268 . S
O36 Sc24 2.105 . S
O36 C30 1.268 . S
O37 Sc23 2.105 . S
O37 C31 1.268 . S
O38 Sc22 2.105 . S
O38 C30 1.268 . S
O39 Sc23 2.105 . S
O39 C29 1.268 . S
O40 Sc24 2.105 . S
O40 C31 1.268 . S
O41 Sc22 2.105 . S
O41 C27 1.268 . S
O42 Sc24 2.105 . S
O42 C26 1.268 . S
O43 Sc23 2.105 . S
O43 C28 1.268 . S
Sc44 O47 2.025 . S
Sc44 O54 2.105 . S
Sc44 O57 2.105 . S
Sc44 O60 2.105 . S
Sc44 O63 2.105 . S
Sc45 O47 2.025 . S
Sc45 O55 2.105 . S
Sc45 O59 2.105 . S
Sc45 O61 2.105 . S
Sc45 O65 2.105 . S
Sc46 O47 2.025 . S
Sc46 O56 2.105 . S
Sc46 O58 2.105 . S
Sc46 O62 2.105 . S
Sc46 O64 2.105 . S
O47 Sc44 2.025 . S
O47 Sc45 2.025 . S
O47 Sc46 2.025 . S
C48 O54 1.268 . S
C48 O64 1.268 . S
C49 O55 1.268 . S
C49 O63 1.268 . S
C50 O56 1.268 . S
C50 O65 1.268 . S
C51 O57 1.268 . S
C51 O61 1.268 . S
C52 O58 1.268 . S
C52 O60 1.268 . S
C53 O59 1.268 . S
C53 O62 1.268 . S
O54 Sc44 2.105 . S
O54 C48 1.268 . S
O55 Sc45 2.105 . S
O55 C49 1.268 . S
O56 Sc46 2.105 . S
O56 C50 1.268 . S
O57 Sc44 2.105 . S
O57 C51 1.268 . S
O58 Sc46 2.105 . S
O58 C52 1.268 . S
O59 Sc45 2.105 . S
O59 C53 1.268 . S
O60 Sc44 2.105 . S
O60 C52 1.268 . S
O61 Sc45 2.105 . S
O61 C51 1.268 . S
O62 Sc46 2.105 . S
O62 C53 1.268 . S
O63 Sc44 2.105 . S
O63 C49 1.268 . S
O64 Sc46 2.105 . S
O64 C48 1.268 . S
O65 Sc45 2.105 . S
O65 C50 1.268 . S
Sc66 O69 2.025 . S
Sc66 O76 2.105 . S
Sc66 O79 2.105 . S
Sc66 O82 2.105 . S
Sc66 O85 2.105 . S
Sc67 O69 2.025 . S
Sc67 O77 2.105 . S
Sc67 O81 2.105 . S
Sc67 O83 2.105 . S
Sc67 O87 2.105 . S
Sc68 O69 2.025 . S
Sc68 O78 2.105 . S
Sc68 O80 2.105 . S
Sc68 O84 2.105 . S
Sc68 O86 2.105 . S
O69 Sc66 2.025 . S
O69 Sc67 2.025 . S
O69 Sc68 2.025 . S
C70 O76 1.268 . S
C70 O86 1.268 . S
C71 O77 1.268 . S
C71 O85 1.268 . S
C72 O78 1.268 . S
C72 O87 1.268 . S
C73 O79 1.268 . S
C73 O83 1.268 . S
C74 O80 1.268 . S
C74 O82 1.268 . S
C75 O81 1.268 . S
C75 O84 1.268 . S
O76 Sc66 2.105 . S
O76 C70 1.268 . S
O77 Sc67 2.105 . S
O77 C71 1.268 . S
O78 Sc68 2.105 . S
O78 C72 1.268 . S
O79 Sc66 2.105 . S
O79 C73 1.268 . S
O80 Sc68 2.105 . S
O80 C74 1.268 . S
O81 Sc67 2.105 . S
O81 C75 1.268 . S
O82 Sc66 2.105 . S
O82 C74 1.268 . S
O83 Sc67 2.105 . S
O83 C73 1.268 . S
O84 Sc68 2.105 . S
O84 C75 1.268 . S
O85 Sc66 2.105 . S
O85 C71 1.268 . S
O86 Sc68 2.105 . S
O86 C70 1.268 . S
O87 Sc67 2.105 . S
O87 C72 1.268 . S
Sc88 O91 2.025 . S
Sc88 O98 2.105 . S
Sc88 O101 2.105 . S
Sc88 O104 2.105 . S
Sc88 O107 2.105 . S
Sc89 O91 2.025 . S
Sc89 O99 2.105 . S
Sc89 O103 2.105 . S
Sc89 O105 2.105 . S
Sc89 O109 2.105 . S
Sc90 O91 2.025 . S
Sc90 O100 2.105 . S
Sc90 O102 2.105 . S
Sc90 O106 2.105 . S
Sc90 O108 2.105 . S
O91 Sc88 2.025 . S
O91 Sc89 2.025 . S
O91 Sc90 2.025 . S
C92 O98 1.268 . S
C92 O108 1.268 . S
C93 O99 1.268 . S
C93 O107 1.268 . S
C94 O100 1.268 . S
C94 O109 1.268 . S
C95 O101 1.268 . S
C95 O105 1.268 . S
C96 O102 1.268 . S
C96 O104 1.268 . S
C97 O103 1.268 . S
C97 O106 1.268 . S
O98 Sc88 2.105 . S
O98 C92 1.268 . S
O99 Sc89 2.105 . S
O99 C93 1.268 . S
O100 Sc90 2.105 . S
O100 C94 1.268 . S
O101 Sc88 2.105 . S
O101 C95 1.268 . S
O102 Sc90 2.105 . S
O102 C96 1.268 . S
O103 Sc89 2.105 . S
O103 C97 1.268 . S
O104 Sc88 2.105 . S
O104 C96 1.268 . S
O105 Sc89 2.105 . S
O105 C95 1.268 . S
O106 Sc90 2.105 . S
O106 C97 1.268 . S
O107 Sc88 2.105 . S
O107 C93 1.268 . S
O108 Sc90 2.105 . S
O108 C92 1.268 . S
O109 Sc89 2.105 . S
O109 C94 1.268 . S
Sc110 O113 2.025 . S
Sc110 O120 2.105 . S
Sc110 O123 2.105 . S
Sc110 O126 2.105 . S
Sc110 O129 2.105 . S
Sc111 O113 2.025 . S
Sc111 O121 2.105 . S
Sc111 O125 2.105 . S
Sc111 O127 2.105 . S
Sc111 O131 2.105 . S
Sc112 O113 2.025 . S
Sc112 O122 2.105 . S
Sc112 O124 2.105 . S
Sc112 O128 2.105 . S
Sc112 O130 2.105 . S
O113 Sc110 2.025 . S
O113 Sc111 2.025 . S
O113 Sc112 2.025 . S
C114 O120 1.268 . S
C114 O130 1.268 . S
C115 O121 1.268 . S
C115 O129 1.268 . S
C116 O122 1.268 . S
C116 O131 1.268 . S
C117 O123 1.268 . S
C117 O127 1.268 . S
C118 O124 1.268 . S
C118 O126 1.268 . S
C119 O125 1.268 . S
C119 O128 1.268 . S
O120 Sc110 2.105 . S
O120 C114 1.268 . S
O121 Sc111 2.105 . S
O121 C115 1.268 . S
O122 Sc112 2.105 . S
O122 C116 1.268 . S
O123 Sc110 2.105 . S
O123 C117 1.268 . S
O124 Sc112 2.105 . S
O124 C118 1.268 . S
O125 Sc111 2.105 . S
O125 C119 1.268 . S
O126 Sc110 2.105 . S
O126 C118 1.268 . S
O127 Sc111 2.105 . S
O127 C117 1.268 . S
O128 Sc112 2.105 . S
O128 C119 1.268 . S
O129 Sc110 2.105 . S
O129 C115 1.268 . S
O130 Sc112 2.105 . S
O130 C114 1.268 . S
O131 Sc111 2.105 . S
O131 C116 1.268 . S
Sc132 O135 2.025 . S
Sc132 O142 2.105 . S
Sc132 O145 2.105 . S
Sc132 O148 2.105 . S
Sc132 O151 2.105 . S
Sc133 O135 2.025 . S
Sc133 O143 2.105 . S
Sc133 O147 2.105 . S
Sc133 O149 2.105 . S
Sc133 O153 2.105 . S
Sc134 O135 2.025 . S
Sc134 O144 2.105 . S
Sc134 O146 2.105 . S
Sc134 O150 2.105 . S
Sc134 O152 2.105 . S
O135 Sc132 2.025 . S
O135 Sc133 2.025 . S
O135 Sc134 2.025 . S
C136 O142 1.268 . S
C136 O152 1.268 . S
C137 O143 1.268 . S
C137 O151 1.268 . S
C138 O144 1.268 . S
C138 O153 1.268 . S
C139 O145 1.268 . S
C139 O149 1.268 . S
C140 O146 1.268 . S
C140 O148 1.268 . S
C141 O147 1.268 . S
C141 O150 1.268 . S
O142 Sc132 2.105 . S
O142 C136 1.268 . S
O143 Sc133 2.105 . S
O143 C137 1.268 . S
O144 Sc134 2.105 . S
O144 C138 1.268 . S
O145 Sc132 2.105 . S
O145 C139 1.268 . S
O146 Sc134 2.105 . S
O146 C140 1.268 . S
O147 Sc133 2.105 . S
O147 C141 1.268 . S
O148 Sc132 2.105 . S
O148 C140 1.268 . S
O149 Sc133 2.105 . S
O149 C139 1.268 . S
O150 Sc134 2.105 . S
O150 C141 1.268 . S
O151 Sc132 2.105 . S
O151 C137 1.268 . S
O152 Sc134 2.105 . S
O152 C136 1.268 . S
O153 Sc133 2.105 . S
O153 C138 1.268 . S
Sc154 O157 2.025 . S
Sc154 O164 2.105 . S
Sc154 O167 2.105 . S
Sc154 O170 2.105 . S
Sc154 O173 2.105 . S
Sc155 O157 2.025 . S
Sc155 O165 2.105 . S
Sc155 O169 2.105 . S
Sc155 O171 2.105 . S
Sc155 O175 2.105 . S
Sc156 O157 2.025 . S
Sc156 O166 2.105 . S
Sc156 O168 2.105 . S
Sc156 O172 2.105 . S
Sc156 O174 2.105 . S
O157 Sc154 2.025 . S
O157 Sc155 2.025 . S
O157 Sc156 2.025 . S
C158 O164 1.268 . S
C158 O174 1.268 . S
C159 O165 1.268 . S
C159 O173 1.268 . S
C160 O166 1.268 . S
C160 O175 1.268 . S
C161 O167 1.268 . S
C161 O171 1.268 . S
C162 O168 1.268 . S
C162 O170 1.268 . S
C163 O169 1.268 . S
C163 O172 1.268 . S
O164 Sc154 2.105 . S
O164 C158 1.268 . S
O165 Sc155 2.105 . S
O165 C159 1.268 . S
O166 Sc156 2.105 . S
O166 C160 1.268 . S
O167 Sc154 2.105 . S
O167 C161 1.268 . S
O168 Sc156 2.105 . S
O168 C162 1.268 . S
O169 Sc155 2.105 . S
O169 C163 1.268 . S
O170 Sc154 2.105 . S
O170 C162 1.268 . S
O171 Sc155 2.105 . S
O171 C161 1.268 . S
O172 Sc156 2.105 . S
O172 C163 1.268 . S
O173 Sc154 2.105 . S
O173 C159 1.268 . S
O174 Sc156 2.105 . S
O174 C158 1.268 . S
O175 Sc155 2.105 . S
O175 C160 1.268 . S
H176 C184 0.929 . S
H177 C186 0.930 . S
H178 C188 0.930 . S
H179 C191 0.929 . S
H180 C194 0.930 . S
H181 C196 0.966 . S
H182 C196 0.960 . S
H183 C196 0.960 . S
C184 H176 0.929 . S
C184 C185 1.377 . S
C184 C186 1.384 . S
C185 C184 1.377 . S
C185 C191 1.390 . S
C186 H177 0.930 . S
C186 C184 1.384 . S
C186 C187 1.372 . S
C187 C186 1.372 . S
C187 C188 1.400 . S
C187 C192 1.490 1_565 S
C188 H178 0.930 . S
C188 C187 1.400 . S
C188 C191 1.386 . S
H189 C205 0.930 . S
H190 C206 0.931 . S
C191 H179 0.929 . S
C191 C185 1.390 . S
C191 C188 1.386 . S
C192 C187 1.490 1_545 S
C192 C194 1.395 . S
C192 C195 1.403 . S
H193 C199 0.930 . S
C194 H180 0.930 . S
C194 C192 1.395 . S
C194 C197 1.403 . S
C195 C192 1.403 . S
C195 C196 1.524 1_545 S
C195 C199 1.400 . S
C196 H181 0.966 . S
C196 H182 0.960 . S
C196 H183 0.960 . S
C196 C195 1.524 1_565 S
C197 C194 1.403 . S
C197 C198 1.392 . S
C197 C201 1.495 . S
C198 C197 1.392 . S
C198 C199 1.385 . S
C198 C200 1.478 . S
C199 H193 0.930 . S
C199 C195 1.400 . S
C199 C198 1.385 . S
C200 C198 1.478 . S
C200 C202 1.381 . S
C200 C206 1.383 . S
C201 C197 1.495 . S
C201 H207 0.959 . S
C201 H208 0.961 . S
C201 H209 0.960 . S
C202 C200 1.381 . S
C202 C203 1.394 . S
C202 H210 0.930 . S
C203 C202 1.394 . S
C203 C204 1.383 . S
C203 H211 0.929 . S
C204 C203 1.383 . S
C204 C205 1.377 . S
C205 H189 0.930 . S
C205 C204 1.377 . S
C205 C206 1.379 . S
C206 H190 0.931 . S
C206 C200 1.383 . S
C206 C205 1.379 . S
H207 C201 0.959 . S
H208 C201 0.961 . S
H209 C201 0.960 . S
H210 C202 0.930 . S
H211 C203 0.929 . S
H212 C220 0.929 . S
H213 C222 0.930 . S
H214 C224 0.930 . S
H215 C227 0.929 . S
H216 C230 0.930 . S
H217 C232 0.960 . S
H218 C232 0.960 . S
H219 C232 0.960 . S
C220 H212 0.929 . S
C220 C221 1.377 . S
C220 C222 1.384 . S
C221 C220 1.377 . S
C221 C227 1.390 . S
C222 H213 0.930 . S
C222 C220 1.384 . S
C222 C223 1.372 . S
C223 C222 1.372 . S
C223 C224 1.400 . S
C223 C228 1.490 . S
C224 H214 0.930 . S
C224 C223 1.400 . S
C224 C227 1.386 . S
H225 C241 0.930 . S
H226 C242 0.931 . S
C227 H215 0.929 . S
C227 C221 1.390 . S
C227 C224 1.386 . S
C228 C223 1.490 . S
C228 C230 1.395 . S
C228 C231 1.403 . S
H229 C235 0.930 . S
C230 H216 0.930 . S
C230 C228 1.395 . S
C230 C233 1.403 . S
C231 C228 1.403 . S
C231 C232 1.524 . S
C231 C235 1.400 . S
C232 H217 0.960 . S
C232 H218 0.960 . S
C232 H219 0.960 . S
C232 C231 1.524 . S
C233 C230 1.403 . S
C233 C234 1.392 . S
C233 C237 1.495 . S
C234 C233 1.392 . S
C234 C235 1.385 . S
C234 C236 1.478 . S
C235 H229 0.930 . S
C235 C231 1.400 . S
C235 C234 1.385 . S
C236 C234 1.478 . S
C236 C238 1.381 . S
C236 C242 1.383 . S
C237 C233 1.495 . S
C237 H243 0.959 . S
C237 H244 0.961 . S
C237 H245 0.960 . S
C238 C236 1.381 . S
C238 C239 1.394 . S
C238 H246 0.930 . S
C239 C238 1.394 . S
C239 C240 1.383 . S
C239 H247 0.929 . S
C240 C239 1.383 . S
C240 C241 1.377 . S
C241 H225 0.930 . S
C241 C240 1.377 . S
C241 C242 1.379 . S
C242 H226 0.931 . S
C242 C236 1.383 . S
C242 C241 1.379 . S
H243 C237 0.959 . S
H244 C237 0.961 . S
H245 C237 0.960 . S
H246 C238 0.930 . S
H247 C239 0.929 . S
H248 C256 0.929 . S
H249 C258 0.930 . S
H250 C260 0.930 . S
H251 C263 0.929 . S
H252 C266 0.930 . S
H253 C268 0.960 . S
H254 C268 0.960 . S
H255 C268 0.960 . S
C256 H248 0.929 . S
C256 C257 1.377 . S
C256 C258 1.384 . S
C257 C256 1.377 . S
C257 C263 1.390 . S
C258 H249 0.930 . S
C258 C256 1.384 . S
C258 C259 1.372 . S
C259 C258 1.372 . S
C259 C260 1.400 . S
C259 C264 1.490 . S
C260 H250 0.930 . S
C260 C259 1.400 . S
C260 C263 1.386 . S
H261 C277 0.930 . S
H262 C278 0.931 . S
C263 H251 0.929 . S
C263 C257 1.390 . S
C263 C260 1.386 . S
C264 C259 1.490 . S
C264 C266 1.395 . S
C264 C267 1.403 . S
H265 C271 0.930 . S
C266 H252 0.930 . S
C266 C264 1.395 . S
C266 C269 1.403 . S
C267 C264 1.403 . S
C267 C268 1.524 . S
C267 C271 1.400 . S
C268 H253 0.960 . S
C268 H254 0.960 . S
C268 H255 0.960 . S
C268 C267 1.524 . S
C269 C266 1.403 . S
C269 C270 1.392 . S
C269 C273 1.495 . S
C270 C269 1.392 . S
C270 C271 1.385 . S
C270 C272 1.478 . S
C271 H265 0.930 . S
C271 C267 1.400 . S
C271 C270 1.385 . S
C272 C270 1.478 . S
C272 C274 1.381 . S
C272 C278 1.383 . S
C273 C269 1.495 . S
C273 H279 0.959 . S
C273 H280 0.961 . S
C273 H281 0.960 . S
C274 C272 1.381 . S
C274 C275 1.394 . S
C274 H282 0.930 . S
C275 C274 1.394 . S
C275 C276 1.383 . S
C275 H283 0.929 . S
C276 C275 1.383 . S
C276 C277 1.377 . S
C277 H261 0.930 . S
C277 C276 1.377 . S
C277 C278 1.379 . S
C278 H262 0.931 . S
C278 C272 1.383 . S
C278 C277 1.379 . S
H279 C273 0.959 . S
H280 C273 0.961 . S
H281 C273 0.960 . S
H282 C274 0.930 . S
H283 C275 0.929 . S
H284 C292 0.929 . S
H285 C294 0.930 . S
H286 C296 0.930 . S
H287 C299 0.929 . S
H288 C302 0.930 . S
H289 C304 0.960 . S
H290 C304 0.960 . S
H291 C304 0.960 . S
C292 H284 0.929 . S
C292 C293 1.377 . S
C292 C294 1.384 . S
C293 C292 1.377 . S
C293 C299 1.390 . S
C294 H285 0.930 . S
C294 C292 1.384 . S
C294 C295 1.372 . S
C295 C294 1.372 . S
C295 C296 1.400 . S
C295 C300 1.490 . S
C296 H286 0.930 . S
C296 C295 1.400 . S
C296 C299 1.386 . S
H297 C313 0.930 . S
H298 C314 0.931 . S
C299 H287 0.929 . S
C299 C293 1.390 . S
C299 C296 1.386 . S
C300 C295 1.490 . S
C300 C302 1.395 . S
C300 C303 1.403 . S
H301 C307 0.930 . S
C302 H288 0.930 . S
C302 C300 1.395 . S
C302 C305 1.403 . S
C303 C300 1.403 . S
C303 C304 1.524 . S
C303 C307 1.400 . S
C304 H289 0.960 . S
C304 H290 0.960 . S
C304 H291 0.960 . S
C304 C303 1.524 . S
C305 C302 1.403 . S
C305 C306 1.392 . S
C305 C309 1.495 1_545 S
C306 C305 1.392 . S
C306 C307 1.385 . S
C306 C308 1.478 1_545 S
C307 H301 0.930 . S
C307 C303 1.400 . S
C307 C306 1.385 . S
C308 C306 1.478 1_565 S
C308 C310 1.381 . S
C308 C314 1.383 . S
C309 C305 1.495 1_565 S
C309 H315 0.959 . S
C309 H316 0.961 . S
C309 H317 0.960 . S
C310 C308 1.381 . S
C310 C311 1.394 . S
C310 H318 0.930 . S
C311 C310 1.394 . S
C311 C312 1.383 . S
C311 H319 0.929 . S
C312 C311 1.383 . S
C312 C313 1.377 . S
C313 H297 0.930 . S
C313 C312 1.377 . S
C313 C314 1.379 . S
C314 H298 0.931 . S
C314 C308 1.383 . S
C314 C313 1.379 . S
H315 C309 0.959 . S
H316 C309 0.961 . S
H317 C309 0.960 . S
H318 C310 0.930 . S
H319 C311 0.929 . S
H320 C328 0.929 . S
H321 C330 0.930 . S
H322 C332 0.930 . S
H323 C335 0.929 . S
H324 C338 0.930 . S
H325 C340 0.967 . S
H326 C340 0.960 . S
H327 C340 0.960 . S
C328 H320 0.929 . S
C328 C329 1.377 . S
C328 C330 1.384 . S
C329 C328 1.377 . S
C329 C335 1.390 . S
C330 H321 0.930 . S
C330 C328 1.384 . S
C330 C331 1.372 . S
C331 C330 1.372 . S
C331 C332 1.400 . S
C331 C336 1.490 1_545 S
C332 H322 0.930 . S
C332 C331 1.400 . S
C332 C335 1.386 . S
H333 C349 0.930 . S
H334 C350 0.931 . S
C335 H323 0.929 . S
C335 C329 1.390 . S
C335 C332 1.386 . S
C336 C331 1.490 1_565 S
C336 C338 1.395 . S
C336 C339 1.403 . S
H337 C343 0.930 . S
C338 H324 0.930 . S
C338 C336 1.395 . S
C338 C341 1.403 . S
C339 C336 1.403 . S
C339 C340 1.524 1_565 S
C339 C343 1.400 . S
C340 H325 0.967 . S
C340 H326 0.960 . S
C340 H327 0.960 . S
C340 C339 1.524 1_545 S
C341 C338 1.403 . S
C341 C342 1.392 . S
C341 C345 1.495 . S
C342 C341 1.392 . S
C342 C343 1.385 . S
C342 C344 1.478 . S
C343 H337 0.930 . S
C343 C339 1.400 . S
C343 C342 1.385 . S
C344 C342 1.478 . S
C344 C346 1.381 . S
C344 C350 1.383 . S
C345 C341 1.495 . S
C345 H351 0.959 . S
C345 H352 0.961 . S
C345 H353 0.960 . S
C346 C344 1.381 . S
C346 C347 1.394 . S
C346 H354 0.930 . S
C347 C346 1.394 . S
C347 C348 1.383 . S
C347 H355 0.929 . S
C348 C347 1.383 . S
C348 C349 1.377 . S
C349 H333 0.930 . S
C349 C348 1.377 . S
C349 C350 1.379 . S
C350 H334 0.931 . S
C350 C344 1.383 . S
C350 C349 1.379 . S
H351 C345 0.959 . S
H352 C345 0.961 . S
H353 C345 0.960 . S
H354 C346 0.930 . S
H355 C347 0.929 . S
H356 C364 0.929 . S
H357 C366 0.930 . S
H358 C368 0.930 . S
H359 C371 0.929 . S
H360 C374 0.930 . S
H361 C376 0.960 . S
H362 C376 0.960 . S
H363 C376 0.960 . S
C364 H356 0.929 . S
C364 C365 1.377 . S
C364 C366 1.384 . S
C365 C364 1.377 . S
C365 C371 1.390 . S
C366 H357 0.930 . S
C366 C364 1.384 . S
C366 C367 1.372 . S
C367 C366 1.372 . S
C367 C368 1.400 . S
C367 C372 1.490 . S
C368 H358 0.930 . S
C368 C367 1.400 . S
C368 C371 1.386 . S
H369 C385 0.930 . S
H370 C386 0.931 . S
C371 H359 0.929 . S
C371 C365 1.390 . S
C371 C368 1.386 . S
C372 C367 1.490 . S
C372 C374 1.395 . S
C372 C375 1.403 . S
H373 C379 0.930 . S
C374 H360 0.930 . S
C374 C372 1.395 . S
C374 C377 1.403 . S
C375 C372 1.403 . S
C375 C376 1.524 . S
C375 C379 1.400 . S
C376 H361 0.960 . S
C376 H362 0.960 . S
C376 H363 0.960 . S
C376 C375 1.524 . S
C377 C374 1.403 . S
C377 C378 1.392 . S
C377 C381 1.495 . S
C378 C377 1.392 . S
C378 C379 1.385 . S
C378 C380 1.478 . S
C379 H373 0.930 . S
C379 C375 1.400 . S
C379 C378 1.385 . S
C380 C378 1.478 . S
C380 C382 1.381 . S
C380 C386 1.383 . S
C381 C377 1.495 . S
C381 H387 0.959 . S
C381 H388 0.961 . S
C381 H389 0.960 . S
C382 C380 1.381 . S
C382 C383 1.394 . S
C382 H390 0.930 . S
C383 C382 1.394 . S
C383 C384 1.383 . S
C383 H391 0.929 . S
C384 C383 1.383 . S
C384 C385 1.377 . S
C385 H369 0.930 . S
C385 C384 1.377 . S
C385 C386 1.379 . S
C386 H370 0.931 . S
C386 C380 1.383 . S
C386 C385 1.379 . S
H387 C381 0.959 . S
H388 C381 0.961 . S
H389 C381 0.960 . S
H390 C382 0.930 . S
H391 C383 0.929 . S
H392 C400 0.929 . S
H393 C402 0.930 . S
H394 C404 0.930 . S
H395 C407 0.929 . S
H396 C410 0.930 . S
H397 C412 0.960 . S
H398 C412 0.960 . S
H399 C412 0.960 . S
C400 H392 0.929 . S
C400 C401 1.377 . S
C400 C402 1.384 . S
C401 C400 1.377 . S
C401 C407 1.390 . S
C402 H393 0.930 . S
C402 C400 1.384 . S
C402 C403 1.372 . S
C403 C402 1.372 . S
C403 C404 1.400 . S
C403 C408 1.490 . S
C404 H394 0.930 . S
C404 C403 1.400 . S
C404 C407 1.386 . S
H405 C421 0.930 . S
H406 C422 0.931 . S
C407 H395 0.929 . S
C407 C401 1.390 . S
C407 C404 1.386 . S
C408 C403 1.490 . S
C408 C410 1.395 . S
C408 C411 1.403 . S
H409 C415 0.930 . S
C410 H396 0.930 . S
C410 C408 1.395 . S
C410 C413 1.403 . S
C411 C408 1.403 . S
C411 C412 1.524 . S
C411 C415 1.400 . S
C412 H397 0.960 . S
C412 H398 0.960 . S
C412 H399 0.960 . S
C412 C411 1.524 . S
C413 C410 1.403 . S
C413 C414 1.392 . S
C413 C417 1.495 . S
C414 C413 1.392 . S
C414 C415 1.385 . S
C414 C416 1.478 . S
C415 H409 0.930 . S
C415 C411 1.400 . S
C415 C414 1.385 . S
C416 C414 1.478 . S
C416 C418 1.381 . S
C416 C422 1.383 . S
C417 C413 1.495 . S
C417 H423 0.959 . S
C417 H424 0.961 . S
C417 H425 0.960 . S
C418 C416 1.381 . S
C418 C419 1.394 . S
C418 H426 0.930 . S
C419 C418 1.394 . S
C419 C420 1.383 . S
C419 H427 0.929 . S
C420 C419 1.383 . S
C420 C421 1.377 . S
C421 H405 0.930 . S
C421 C420 1.377 . S
C421 C422 1.379 . S
C422 H406 0.931 . S
C422 C416 1.383 . S
C422 C421 1.379 . S
H423 C417 0.959 . S
H424 C417 0.961 . S
H425 C417 0.960 . S
H426 C418 0.930 . S
H427 C419 0.929 . S
H428 C436 0.929 . S
H429 C438 0.930 . S
H430 C440 0.930 1_565 S
H431 C443 0.929 . S
H432 C446 0.930 1_545 S
H433 C448 0.960 . S
H434 C448 0.960 . S
H435 C448 0.960 . S
C436 H428 0.929 . S
C436 C437 1.377 . S
C436 C438 1.384 . S
C437 C436 1.377 . S
C437 C443 1.390 . S
C438 H429 0.930 . S
C438 C436 1.384 . S
C438 C439 1.372 . S
C439 C438 1.372 . S
C439 C440 1.400 . S
C439 C444 1.490 1_545 S
C440 H430 0.930 1_545 S
C440 C439 1.400 . S
C440 C443 1.386 . S
H441 C457 0.930 . S
H442 C458 0.931 . S
C443 H431 0.929 . S
C443 C437 1.390 . S
C443 C440 1.386 . S
C444 C439 1.490 1_565 S
C444 C446 1.395 . S
C444 C447 1.403 . S
H445 C451 0.930 . S
C446 H432 0.930 1_565 S
C446 C444 1.395 . S
C446 C449 1.403 . S
C447 C444 1.403 . S
C447 C448 1.524 . S
C447 C451 1.400 . S
C448 H433 0.960 . S
C448 H434 0.960 . S
C448 H435 0.960 . S
C448 C447 1.524 . S
C449 C446 1.403 . S
C449 C450 1.392 . S
C449 C453 1.495 . S
C450 C449 1.392 . S
C450 C451 1.385 . S
C450 C452 1.478 . S
C451 H445 0.930 . S
C451 C447 1.400 . S
C451 C450 1.385 . S
C452 C450 1.478 . S
C452 C454 1.381 . S
C452 C458 1.383 . S
C453 C449 1.495 . S
C453 H459 0.959 . S
C453 H460 0.961 . S
C453 H461 0.960 . S
C454 C452 1.381 . S
C454 C455 1.394 . S
C454 H462 0.930 . S
C455 C454 1.394 . S
C455 C456 1.383 . S
C455 H463 0.929 . S
C456 C455 1.383 . S
C456 C457 1.377 . S
C457 H441 0.930 . S
C457 C456 1.377 . S
C457 C458 1.379 . S
C458 H442 0.931 . S
C458 C452 1.383 . S
C458 C457 1.379 . S
H459 C453 0.959 . S
H460 C453 0.961 . S
H461 C453 0.960 . S
H462 C454 0.930 . S
H463 C455 0.929 . S
H464 C472 0.929 . S
H465 C474 0.930 . S
H466 C476 0.930 . S
H467 C479 0.929 . S
H468 C482 0.930 . S
H469 C484 0.960 . S
H470 C484 0.960 . S
H471 C484 0.960 . S
C472 H464 0.929 . S
C472 C473 1.377 . S
C472 C474 1.384 . S
C473 C472 1.377 . S
C473 C479 1.390 . S
C474 H465 0.930 . S
C474 C472 1.384 . S
C474 C475 1.372 . S
C475 C474 1.372 . S
C475 C476 1.400 . S
C475 C480 1.490 . S
C476 H466 0.930 . S
C476 C475 1.400 . S
C476 C479 1.386 . S
H477 C493 0.930 . S
H478 C494 0.931 . S
C479 H467 0.929 . S
C479 C473 1.390 . S
C479 C476 1.386 . S
C480 C475 1.490 . S
C480 C482 1.395 . S
C480 C483 1.403 . S
H481 C487 0.930 . S
C482 H468 0.930 . S
C482 C480 1.395 . S
C482 C485 1.403 . S
C483 C480 1.403 . S
C483 C484 1.524 . S
C483 C487 1.400 . S
C484 H469 0.960 . S
C484 H470 0.960 . S
C484 H471 0.960 . S
C484 C483 1.524 . S
C485 C482 1.403 . S
C485 C486 1.392 . S
C485 C489 1.495 . S
C486 C485 1.392 . S
C486 C487 1.385 . S
C486 C488 1.478 . S
C487 H481 0.930 . S
C487 C483 1.400 . S
C487 C486 1.385 . S
C488 C486 1.478 . S
C488 C490 1.381 . S
C488 C494 1.383 . S
C489 C485 1.495 . S
C489 H495 0.959 . S
C489 H496 0.961 . S
C489 H497 0.960 . S
C490 C488 1.381 . S
C490 C491 1.394 . S
C490 H498 0.930 . S
C491 C490 1.394 . S
C491 C492 1.383 . S
C491 H499 0.929 . S
C492 C491 1.383 . S
C492 C493 1.377 . S
C493 H477 0.930 . S
C493 C492 1.377 . S
C493 C494 1.379 . S
C494 H478 0.931 . S
C494 C488 1.383 . S
C494 C493 1.379 . S
H495 C489 0.959 . S
H496 C489 0.961 . S
H497 C489 0.960 . S
H498 C490 0.930 . S
H499 C491 0.929 . S
H500 C508 0.929 . S
H501 C510 0.930 . S
H502 C512 0.930 1_556 S
H503 C515 0.929 . S
H504 C518 0.930 . S
H505 C520 0.960 . S
H506 C520 0.960 . S
H507 C520 0.960 . S
C508 H500 0.929 . S
C508 C509 1.377 . S
C508 C510 1.384 . S
C509 C508 1.377 . S
C509 C515 1.390 . S
C510 H501 0.930 . S
C510 C508 1.384 . S
C510 C511 1.372 . S
C511 C510 1.372 . S
C511 C512 1.400 . S
C511 C516 1.490 . S
C512 H502 0.930 1_554 S
C512 C511 1.400 . S
C512 C515 1.386 . S
H513 C529 0.930 . S
H514 C530 0.931 . S
C515 H503 0.929 . S
C515 C509 1.390 . S
C515 C512 1.386 . S
C516 C511 1.490 . S
C516 C518 1.395 1_655 S
C516 C519 1.403 1_554 S
H517 C523 0.930 . S
C518 H504 0.930 . S
C518 C516 1.395 1_455 S
C518 C521 1.403 1_565 S
C519 C516 1.403 1_556 S
C519 C520 1.524 . S
C519 C523 1.400 1_565 S
C520 H505 0.960 . S
C520 H506 0.960 . S
C520 H507 0.960 . S
C520 C519 1.524 . S
C521 C518 1.403 1_545 S
C521 C522 1.392 1_554 S
C521 C525 1.495 . S
C522 C521 1.392 1_556 S
C522 C523 1.385 1_455 S
C522 C524 1.478 . S
C523 H517 0.930 . S
C523 C519 1.400 1_545 S
C523 C522 1.385 1_655 S
C524 C522 1.478 . S
C524 C526 1.381 . S
C524 C530 1.383 . S
C525 C521 1.495 . S
C525 H531 0.959 . S
C525 H532 0.961 . S
C525 H533 0.960 . S
C526 C524 1.381 . S
C526 C527 1.394 . S
C526 H534 0.930 1_556 S
C527 C526 1.394 . S
C527 C528 1.383 . S
C527 H535 0.929 . S
C528 C527 1.383 . S
C528 C529 1.377 . S
C529 H513 0.930 . S
C529 C528 1.377 . S
C529 C530 1.379 . S
C530 H514 0.931 . S
C530 C524 1.383 . S
C530 C529 1.379 . S
H531 C525 0.959 . S
H532 C525 0.961 . S
H533 C525 0.960 . S
H534 C526 0.930 1_554 S
H535 C527 0.929 . S
H536 C544 0.929 . S
H537 C546 0.930 1_455 S
H538 C548 0.930 . S
H539 C551 0.929 . S
H540 C554 0.930 . S
H541 C556 0.960 . S
H542 C556 0.960 . S
H543 C556 0.960 . S
C544 H536 0.929 . S
C544 C545 1.377 . S
C544 C546 1.384 . S
C545 C544 1.377 . S
C545 C551 1.390 . S
C546 H537 0.930 1_655 S
C546 C544 1.384 . S
C546 C547 1.372 . S
C547 C546 1.372 . S
C547 C548 1.400 . S
C547 C552 1.490 . S
C548 H538 0.930 . S
C548 C547 1.400 . S
C548 C551 1.386 . S
H549 C565 0.930 . S
H550 C566 0.931 1_655 S
C551 H539 0.929 . S
C551 C545 1.390 . S
C551 C548 1.386 . S
C552 C547 1.490 . S
C552 C554 1.395 . S
C552 C555 1.403 . S
H553 C559 0.930 . S
C554 H540 0.930 . S
C554 C552 1.395 . S
C554 C557 1.403 1_645 S
C555 C552 1.403 . S
C555 C556 1.524 . S
C555 C559 1.400 1_645 S
C556 H541 0.960 . S
C556 H542 0.960 . S
C556 H543 0.960 . S
C556 C555 1.524 . S
C557 C554 1.403 1_465 S
C557 C558 1.392 . S
C557 C561 1.495 . S
C558 C557 1.392 . S
C558 C559 1.385 . S
C558 C560 1.478 . S
C559 H553 0.930 . S
C559 C555 1.400 1_465 S
C559 C558 1.385 . S
C560 C558 1.478 . S
C560 C562 1.381 . S
C560 C566 1.383 . S
C561 C557 1.495 . S
C561 H567 0.959 . S
C561 H568 0.961 . S
C561 H569 0.960 . S
C562 C560 1.381 . S
C562 C563 1.394 . S
C562 H570 0.930 . S
C563 C562 1.394 . S
C563 C564 1.383 . S
C563 H571 0.929 . S
C564 C563 1.383 . S
C564 C565 1.377 . S
C565 H549 0.930 . S
C565 C564 1.377 . S
C565 C566 1.379 . S
C566 H550 0.931 1_455 S
C566 C560 1.383 . S
C566 C565 1.379 . S
H567 C561 0.959 . S
H568 C561 0.961 . S
H569 C561 0.960 . S
H570 C562 0.930 . S
H571 C563 0.929 . S
H572 C580 0.929 . S
H573 C582 0.930 . S
H574 C584 0.930 . S
H575 C587 0.929 . S
H576 C590 0.930 . S
H577 C592 0.960 . S
H578 C592 0.960 . S
H579 C592 0.998 . S
C580 H572 0.929 . S
C580 C581 1.377 . S
C580 C582 1.384 . S
C581 C580 1.377 . S
C581 C587 1.390 . S
C582 H573 0.930 . S
C582 C580 1.384 . S
C582 C583 1.372 . S
C583 C582 1.372 . S
C583 C584 1.400 . S
C583 C588 1.490 . S
C584 H574 0.930 . S
C584 C583 1.400 . S
C584 C587 1.386 . S
H585 C601 0.930 . S
H586 C602 0.931 1_556 S
C587 H575 0.929 . S
C587 C581 1.390 . S
C587 C584 1.386 . S
C588 C583 1.490 . S
C588 C590 1.395 . S
C588 C591 1.403 1_556 S
H589 C595 0.930 . S
C590 H576 0.930 . S
C590 C588 1.395 . S
C590 C593 1.403 . S
C591 C588 1.403 1_554 S
C591 C592 1.524 . S
C591 C595 1.400 . S
C592 H577 0.960 . S
C592 H578 0.960 . S
C592 H579 0.998 . S
C592 C591 1.524 . S
C593 C590 1.403 . S
C593 C594 1.392 1_556 S
C593 C597 1.495 . S
C594 C593 1.392 1_554 S
C594 C595 1.385 . S
C594 C596 1.478 . S
C595 H589 0.930 . S
C595 C591 1.400 . S
C595 C594 1.385 . S
C596 C594 1.478 . S
C596 C598 1.381 . S
C596 C602 1.383 . S
C597 C593 1.495 . S
C597 H603 0.959 . S
C597 H604 0.961 . S
C597 H605 0.958 . S
C598 C596 1.381 . S
C598 C599 1.394 . S
C598 H606 0.930 . S
C599 C598 1.394 . S
C599 C600 1.383 . S
C599 H607 0.929 . S
C600 C599 1.383 . S
C600 C601 1.377 . S
C601 H585 0.930 . S
C601 C600 1.377 . S
C601 C602 1.379 . S
C602 H586 0.931 1_554 S
C602 C596 1.383 . S
C602 C601 1.379 . S
H603 C597 0.959 . S
H604 C597 0.961 . S
H605 C597 0.958 . S
H606 C598 0.930 . S
H607 C599 0.929 . S
H608 C616 0.929 . S
H609 C618 0.930 . S
H610 C620 0.930 . S
H611 C623 0.929 . S
H612 C626 0.930 . S
H613 C628 0.960 . S
H614 C628 0.960 . S
H615 C628 0.960 . S
C616 H608 0.929 . S
C616 C617 1.377 . S
C616 C618 1.384 . S
C617 C616 1.377 . S
C617 C623 1.390 . S
C618 H609 0.930 . S
C618 C616 1.384 . S
C618 C619 1.372 . S
C619 C618 1.372 . S
C619 C620 1.400 . S
C619 C624 1.490 . S
C620 H610 0.930 . S
C620 C619 1.400 . S
C620 C623 1.386 . S
H621 C637 0.930 . S
H622 C638 0.931 . S
C623 H611 0.929 . S
C623 C617 1.390 . S
C623 C620 1.386 . S
C624 C619 1.490 . S
C624 C626 1.395 . S
C624 C627 1.403 . S
H625 C631 0.930 . S
C626 H612 0.930 . S
C626 C624 1.395 . S
C626 C629 1.403 . S
C627 C624 1.403 . S
C627 C628 1.524 . S
C627 C631 1.400 . S
C628 H613 0.960 . S
C628 H614 0.960 . S
C628 H615 0.960 . S
C628 C627 1.524 . S
C629 C626 1.403 . S
C629 C630 1.392 . S
C629 C633 1.495 . S
C630 C629 1.392 . S
C630 C631 1.385 . S
C630 C632 1.478 . S
C631 H625 0.930 . S
C631 C627 1.400 . S
C631 C630 1.385 . S
C632 C630 1.478 . S
C632 C634 1.381 . S
C632 C638 1.383 . S
C633 C629 1.495 . S
C633 H639 0.959 . S
C633 H640 0.961 . S
C633 H641 0.960 . S
C634 C632 1.381 . S
C634 C635 1.394 . S
C634 H642 0.930 . S
C635 C634 1.394 . S
C635 C636 1.383 . S
C635 H643 0.929 . S
C636 C635 1.383 . S
C636 C637 1.377 . S
C637 H621 0.930 . S
C637 C636 1.377 . S
C637 C638 1.379 . S
C638 H622 0.931 . S
C638 C632 1.383 . S
C638 C637 1.379 . S
H639 C633 0.959 . S
H640 C633 0.961 . S
H641 C633 0.960 . S
H642 C634 0.930 . S
H643 C635 0.929 . S
H644 C652 0.929 . S
H645 C654 0.930 . S
H646 C656 0.930 1_655 S
H647 C659 0.929 . S
H648 C662 0.930 . S
H649 C664 0.960 . S
H650 C664 0.960 1_455 S
H651 C664 0.960 . S
C652 H644 0.929 . S
C652 C653 1.377 . S
C652 C654 1.384 . S
C653 C652 1.377 . S
C653 C659 1.390 . S
C654 H645 0.930 . S
C654 C652 1.384 . S
C654 C655 1.372 . S
C655 C654 1.372 . S
C655 C656 1.400 . S
C655 C660 1.490 . S
C656 H646 0.930 1_455 S
C656 C655 1.400 . S
C656 C659 1.386 . S
H657 C673 0.930 . S
H658 C674 0.931 . S
C659 H647 0.929 . S
C659 C653 1.390 . S
C659 C656 1.386 . S
C660 C655 1.490 . S
C660 C662 1.395 . S
C660 C663 1.403 1_455 S
H661 C667 0.930 . S
C662 H648 0.930 . S
C662 C660 1.395 . S
C662 C665 1.403 . S
C663 C660 1.403 1_655 S
C663 C664 1.524 . S
C663 C667 1.400 . S
C664 H649 0.960 . S
C664 H650 0.960 1_655 S
C664 H651 0.960 . S
C664 C663 1.524 . S
C665 C662 1.403 . S
C665 C666 1.392 1_455 S
C665 C669 1.495 . S
C666 C665 1.392 1_655 S
C666 C667 1.385 . S
C666 C668 1.478 . S
C667 H661 0.930 . S
C667 C663 1.400 . S
C667 C666 1.385 . S
C668 C666 1.478 . S
C668 C670 1.381 . S
C668 C674 1.383 . S
C669 C665 1.495 . S
C669 H675 0.959 . S
C669 H676 0.961 1_455 S
C669 H677 0.960 . S
C670 C668 1.381 . S
C670 C671 1.394 . S
C670 H678 0.930 1_655 S
C671 C670 1.394 . S
C671 C672 1.383 . S
C671 H679 0.929 . S
C672 C671 1.383 . S
C672 C673 1.377 . S
C673 H657 0.930 . S
C673 C672 1.377 . S
C673 C674 1.379 . S
C674 H658 0.931 . S
C674 C668 1.383 . S
C674 C673 1.379 . S
H675 C669 0.959 . S
H676 C669 0.961 1_655 S
H677 C669 0.960 . S
H678 C670 0.930 1_455 S
H679 C671 0.929 . S
H680 C688 0.929 . S
H681 C690 0.930 . S
H682 C692 0.930 . S
H683 C695 0.929 . S
H684 C698 0.930 . S
H685 C700 0.960 . S
H686 C700 0.960 . S
H687 C700 0.960 . S
C688 H680 0.929 . S
C688 C689 1.377 . S
C688 C690 1.384 . S
C689 C688 1.377 . S
C689 C695 1.390 . S
C690 H681 0.930 . S
C690 C688 1.384 . S
C690 C691 1.372 . S
C691 C690 1.372 . S
C691 C692 1.400 . S
C691 C696 1.490 . S
C692 H682 0.930 . S
C692 C691 1.400 . S
C692 C695 1.386 . S
H693 C709 0.930 . S
H694 C710 0.931 . S
C695 H683 0.929 . S
C695 C689 1.390 . S
C695 C692 1.386 . S
C696 C691 1.490 . S
C696 C698 1.395 . S
C696 C699 1.403 . S
H697 C703 0.930 . S
C698 H684 0.930 . S
C698 C696 1.395 . S
C698 C701 1.403 . S
C699 C696 1.403 . S
C699 C700 1.524 . S
C699 C703 1.400 . S
C700 H685 0.960 . S
C700 H686 0.960 . S
C700 H687 0.960 . S
C700 C699 1.524 . S
C701 C698 1.403 . S
C701 C702 1.392 . S
C701 C705 1.495 . S
C702 C701 1.392 . S
C702 C703 1.385 . S
C702 C704 1.478 . S
C703 H697 0.930 . S
C703 C699 1.400 . S
C703 C702 1.385 . S
C704 C702 1.478 . S
C704 C706 1.381 . S
C704 C710 1.383 . S
C705 C701 1.495 . S
C705 H711 0.959 . S
C705 H712 0.961 . S
C705 H713 0.960 . S
C706 C704 1.381 . S
C706 C707 1.394 . S
C706 H714 0.930 . S
C707 C706 1.394 . S
C707 C708 1.383 . S
C707 H715 0.929 . S
C708 C707 1.383 . S
C708 C709 1.377 . S
C709 H693 0.930 . S
C709 C708 1.377 . S
C709 C710 1.379 . S
C710 H694 0.931 . S
C710 C704 1.383 . S
C710 C709 1.379 . S
H711 C705 0.959 . S
H712 C705 0.961 . S
H713 C705 0.960 . S
H714 C706 0.930 . S
H715 C707 0.929 . S
H716 C724 0.929 . S
H717 C726 0.930 . S
H718 C728 0.930 1_455 S
H719 C731 0.929 . S
H720 C734 0.930 . S
H721 C736 0.960 . S
H722 C736 0.960 . S
H723 C736 0.960 . S
C724 H716 0.929 . S
C724 C725 1.377 . S
C724 C726 1.384 . S
C725 C724 1.377 . S
C725 C731 1.390 . S
C726 H717 0.930 . S
C726 C724 1.384 . S
C726 C727 1.372 . S
C727 C726 1.372 . S
C727 C728 1.400 . S
C727 C732 1.490 . S
C728 H718 0.930 1_655 S
C728 C727 1.400 . S
C728 C731 1.386 . S
H729 C745 0.930 . S
H730 C746 0.931 . S
C731 H719 0.929 . S
C731 C725 1.390 . S
C731 C728 1.386 . S
C732 C727 1.490 . S
C732 C734 1.395 . S
C732 C735 1.403 1_655 S
H733 C739 0.930 . S
C734 H720 0.930 . S
C734 C732 1.395 . S
C734 C737 1.403 . S
C735 C732 1.403 1_455 S
C735 C736 1.524 . S
C735 C739 1.400 . S
C736 H721 0.960 . S
C736 H722 0.960 . S
C736 H723 0.960 . S
C736 C735 1.524 . S
C737 C734 1.403 . S
C737 C738 1.392 1_655 S
C737 C741 1.495 . S
C738 C737 1.392 1_455 S
C738 C739 1.385 . S
C738 C740 1.478 . S
C739 H733 0.930 . S
C739 C735 1.400 . S
C739 C738 1.385 . S
C740 C738 1.478 . S
C740 C742 1.381 . S
C740 C746 1.383 . S
C741 C737 1.495 . S
C741 H747 0.959 . S
C741 H748 0.961 . S
C741 H749 0.960 . S
C742 C740 1.381 . S
C742 C743 1.394 . S
C742 H750 0.930 1_455 S
C743 C742 1.394 . S
C743 C744 1.383 . S
C743 H751 0.929 . S
C744 C743 1.383 . S
C744 C745 1.377 . S
C745 H729 0.930 . S
C745 C744 1.377 . S
C745 C746 1.379 . S
C746 H730 0.931 . S
C746 C740 1.383 . S
C746 C745 1.379 . S
H747 C741 0.959 . S
H748 C741 0.961 . S
H749 C741 0.960 . S
H750 C742 0.930 1_655 S
H751 C743 0.929 . S
H752 C760 0.929 . S
H753 C762 0.930 . S
H754 C764 0.930 . S
H755 C767 0.929 . S
H756 C770 0.930 . S
H757 C772 0.960 . S
H758 C772 0.960 . S
H759 C772 0.960 . S
C760 H752 0.929 . S
C760 C761 1.377 . S
C760 C762 1.384 . S
C761 C760 1.377 . S
C761 C767 1.390 . S
C762 H753 0.930 . S
C762 C760 1.384 . S
C762 C763 1.372 . S
C763 C762 1.372 . S
C763 C764 1.400 . S
C763 C768 1.490 . S
C764 H754 0.930 . S
C764 C763 1.400 . S
C764 C767 1.386 . S
H765 C781 0.930 . S
H766 C782 0.931 . S
C767 H755 0.929 . S
C767 C761 1.390 . S
C767 C764 1.386 . S
C768 C763 1.490 . S
C768 C770 1.395 . S
C768 C771 1.403 . S
H769 C775 0.930 . S
C770 H756 0.930 . S
C770 C768 1.395 . S
C770 C773 1.403 . S
C771 C768 1.403 . S
C771 C772 1.524 . S
C771 C775 1.400 . S
C772 H757 0.960 . S
C772 H758 0.960 . S
C772 H759 0.960 . S
C772 C771 1.524 . S
C773 C770 1.403 . S
C773 C774 1.392 . S
C773 C777 1.495 . S
C774 C773 1.392 . S
C774 C775 1.385 . S
C774 C776 1.478 . S
C775 H769 0.930 . S
C775 C771 1.400 . S
C775 C774 1.385 . S
C776 C774 1.478 . S
C776 C778 1.381 . S
C776 C782 1.383 . S
C777 C773 1.495 . S
C777 H783 0.959 . S
C777 H784 0.961 . S
C777 H785 0.960 . S
C778 C776 1.381 . S
C778 C779 1.394 . S
C778 H786 0.930 . S
C779 C778 1.394 . S
C779 C780 1.383 . S
C779 H787 0.929 . S
C780 C779 1.383 . S
C780 C781 1.377 . S
C781 H765 0.930 . S
C781 C780 1.377 . S
C781 C782 1.379 . S
C782 H766 0.931 . S
C782 C776 1.383 . S
C782 C781 1.379 . S
H783 C777 0.959 . S
H784 C777 0.961 . S
H785 C777 0.960 . S
H786 C778 0.930 . S
H787 C779 0.929 . S
H788 C796 0.929 . S
H789 C798 0.930 . S
H790 C800 0.930 . S
H791 C803 0.929 . S
H792 C806 0.930 . S
H793 C808 0.960 . S
H794 C808 0.960 . S
H795 C808 0.941 1_556 S
C796 H788 0.929 . S
C796 C797 1.377 . S
C796 C798 1.384 . S
C797 C796 1.377 . S
C797 C803 1.390 . S
C798 H789 0.930 . S
C798 C796 1.384 . S
C798 C799 1.372 . S
C799 C798 1.372 . S
C799 C800 1.400 . S
C799 C804 1.490 . S
C800 H790 0.930 . S
C800 C799 1.400 . S
C800 C803 1.386 . S
H801 C817 0.930 . S
H802 C818 0.931 . S
C803 H791 0.929 . S
C803 C797 1.390 . S
C803 C800 1.386 . S
C804 C799 1.490 . S
C804 C806 1.395 . S
C804 C807 1.403 . S
H805 C811 0.930 . S
C806 H792 0.930 . S
C806 C804 1.395 . S
C806 C809 1.403 . S
C807 C804 1.403 . S
C807 C808 1.524 1_556 S
C807 C811 1.400 1_556 S
C808 H793 0.960 . S
C808 H794 0.960 . S
C808 H795 0.941 1_554 S
C808 C807 1.524 1_554 S
C809 C806 1.403 . S
C809 C810 1.392 1_556 S
C809 C813 1.495 . S
C810 C809 1.392 1_554 S
C810 C811 1.385 . S
C810 C812 1.478 . S
C811 H805 0.930 . S
C811 C807 1.400 1_554 S
C811 C810 1.385 . S
C812 C810 1.478 . S
C812 C814 1.381 . S
C812 C818 1.383 . S
C813 C809 1.495 . S
C813 H819 0.959 . S
C813 H820 0.961 . S
C813 H821 0.960 . S
C814 C812 1.381 . S
C814 C815 1.394 . S
C814 H822 0.930 . S
C815 C814 1.394 . S
C815 C816 1.383 . S
C815 H823 0.929 . S
C816 C815 1.383 . S
C816 C817 1.377 . S
C817 H801 0.930 . S
C817 C816 1.377 . S
C817 C818 1.379 . S
C818 H802 0.931 . S
C818 C812 1.383 . S
C818 C817 1.379 . S
H819 C813 0.959 . S
H820 C813 0.961 . S
H821 C813 0.960 . S
H822 C814 0.930 . S
H823 C815 0.929 . S
H824 C832 0.929 . S
H825 C834 0.930 . S
H826 C836 0.930 . S
H827 C839 0.929 . S
H828 C842 0.930 . S
H829 C844 0.960 . S
H830 C844 0.960 . S
H831 C844 0.960 . S
C832 H824 0.929 . S
C832 C833 1.377 . S
C832 C834 1.384 . S
C833 C832 1.377 . S
C833 C839 1.390 . S
C834 H825 0.930 . S
C834 C832 1.384 . S
C834 C835 1.372 . S
C835 C834 1.372 . S
C835 C836 1.400 . S
C835 C840 1.490 . S
C836 H826 0.930 . S
C836 C835 1.400 . S
C836 C839 1.386 . S
H837 C853 0.930 . S
H838 C854 0.931 . S
C839 H827 0.929 . S
C839 C833 1.390 . S
C839 C836 1.386 . S
C840 C835 1.490 . S
C840 C842 1.395 . S
C840 C843 1.403 . S
H841 C847 0.930 . S
C842 H828 0.930 . S
C842 C840 1.395 . S
C842 C845 1.403 . S
C843 C840 1.403 . S
C843 C844 1.524 . S
C843 C847 1.400 . S
C844 H829 0.960 . S
C844 H830 0.960 . S
C844 H831 0.960 . S
C844 C843 1.524 . S
C845 C842 1.403 . S
C845 C846 1.392 . S
C845 C849 1.495 . S
C846 C845 1.392 . S
C846 C847 1.385 . S
C846 C848 1.478 . S
C847 H841 0.930 . S
C847 C843 1.400 . S
C847 C846 1.385 . S
C848 C846 1.478 . S
C848 C850 1.381 . S
C848 C854 1.383 . S
C849 C845 1.495 . S
C849 H855 0.959 . S
C849 H856 0.961 . S
C849 H857 0.960 . S
C850 C848 1.381 . S
C850 C851 1.394 . S
C850 H858 0.930 . S
C851 C850 1.394 . S
C851 C852 1.383 . S
C851 H859 0.929 . S
C852 C851 1.383 . S
C852 C853 1.377 . S
C853 H837 0.930 . S
C853 C852 1.377 . S
C853 C854 1.379 . S
C854 H838 0.931 . S
C854 C848 1.383 . S
C854 C853 1.379 . S
H855 C849 0.959 . S
H856 C849 0.961 . S
H857 C849 0.960 . S
H858 C850 0.930 . S
H859 C851 0.929 . S
H860 C868 0.929 . S
H861 C870 0.930 . S
H862 C872 0.930 . S
H863 C875 0.929 . S
H864 C878 0.930 1_556 S
H865 C880 0.960 . S
H866 C880 0.960 . S
H867 C880 0.960 . S
C868 H860 0.929 . S
C868 C869 1.377 . S
C868 C870 1.384 . S
C869 C868 1.377 . S
C869 C875 1.390 . S
C870 H861 0.930 . S
C870 C868 1.384 . S
C870 C871 1.372 . S
C871 C870 1.372 . S
C871 C872 1.400 . S
C871 C876 1.490 . S
C872 H862 0.930 . S
C872 C871 1.400 . S
C872 C875 1.386 . S
H873 C889 0.930 . S
H874 C890 0.931 . S
C875 H863 0.929 . S
C875 C869 1.390 . S
C875 C872 1.386 . S
C876 C871 1.490 . S
C876 C878 1.395 . S
C876 C879 1.403 . S
H877 C883 0.930 . S
C878 H864 0.930 1_554 S
C878 C876 1.395 . S
C878 C881 1.403 1_554 S
C879 C876 1.403 . S
C879 C880 1.524 . S
C879 C883 1.400 . S
C880 H865 0.960 . S
C880 H866 0.960 . S
C880 H867 0.960 . S
C880 C879 1.524 . S
C881 C878 1.403 1_556 S
C881 C882 1.392 . S
C881 C885 1.495 . S
C882 C881 1.392 . S
C882 C883 1.385 1_556 S
C882 C884 1.478 . S
C883 H877 0.930 . S
C883 C879 1.400 . S
C883 C882 1.385 1_554 S
C884 C882 1.478 . S
C884 C886 1.381 . S
C884 C890 1.383 . S
C885 C881 1.495 . S
C885 H891 0.959 . S
C885 H892 0.961 . S
C885 H893 0.960 . S
C886 C884 1.381 . S
C886 C887 1.394 . S
C886 H894 0.930 . S
C887 C886 1.394 . S
C887 C888 1.383 . S
C887 H895 0.929 . S
C888 C887 1.383 . S
C888 C889 1.377 . S
C889 H873 0.930 . S
C889 C888 1.377 . S
C889 C890 1.379 . S
C890 H874 0.931 . S
C890 C884 1.383 . S
C890 C889 1.379 . S
H891 C885 0.959 . S
H892 C885 0.961 . S
H893 C885 0.960 . S
H894 C886 0.930 . S
H895 C887 0.929 . S
H896 C904 0.929 . S
H897 C906 0.930 . S
H898 C908 0.930 . S
H899 C911 0.929 . S
H900 C914 0.930 . S
H901 C916 0.960 . S
H902 C916 0.960 . S
H903 C916 0.960 . S
C904 H896 0.929 . S
C904 C905 1.377 . S
C904 C906 1.384 . S
C905 C904 1.377 . S
C905 C911 1.390 . S
C906 H897 0.930 . S
C906 C904 1.384 . S
C906 C907 1.372 . S
C907 C906 1.372 . S
C907 C908 1.400 . S
C907 C912 1.490 . S
C908 H898 0.930 . S
C908 C907 1.400 . S
C908 C911 1.386 . S
H909 C925 0.930 . S
H910 C926 0.931 . S
C911 H899 0.929 . S
C911 C905 1.390 . S
C911 C908 1.386 . S
C912 C907 1.490 . S
C912 C914 1.395 . S
C912 C915 1.403 . S
H913 C919 0.930 . S
C914 H900 0.930 . S
C914 C912 1.395 . S
C914 C917 1.403 . S
C915 C912 1.403 . S
C915 C916 1.524 . S
C915 C919 1.400 . S
C916 H901 0.960 . S
C916 H902 0.960 . S
C916 H903 0.960 . S
C916 C915 1.524 . S
C917 C914 1.403 . S
C917 C918 1.392 . S
C917 C921 1.495 . S
C918 C917 1.392 . S
C918 C919 1.385 . S
C918 C920 1.478 . S
C919 H913 0.930 . S
C919 C915 1.400 . S
C919 C918 1.385 . S
C920 C918 1.478 . S
C920 C922 1.381 . S
C920 C926 1.383 . S
C921 C917 1.495 . S
C921 H927 0.959 . S
C921 H928 0.961 . S
C921 H929 0.960 . S
C922 C920 1.381 . S
C922 C923 1.394 . S
C922 H930 0.930 . S
C923 C922 1.394 . S
C923 C924 1.383 . S
C923 H931 0.929 . S
C924 C923 1.383 . S
C924 C925 1.377 . S
C925 H909 0.930 . S
C925 C924 1.377 . S
C925 C926 1.379 . S
C926 H910 0.931 . S
C926 C920 1.383 . S
C926 C925 1.379 . S
H927 C921 0.959 . S
H928 C921 0.961 . S
H929 C921 0.960 . S
H930 C922 0.930 . S
H931 C923 0.929 . S
H932 C940 0.929 . S
H933 C942 0.930 . S
H934 C944 0.930 . S
H935 C947 0.929 . S
H936 C950 0.930 . S
H937 C952 0.960 . S
H938 C952 0.960 . S
H939 C952 0.960 . S
C940 H932 0.929 . S
C940 C941 1.377 . S
C940 C942 1.384 . S
C941 C940 1.377 . S
C941 C947 1.390 . S
C942 H933 0.930 . S
C942 C940 1.384 . S
C942 C943 1.372 . S
C943 C942 1.372 . S
C943 C944 1.400 . S
C943 C948 1.490 . S
C944 H934 0.930 . S
C944 C943 1.400 . S
C944 C947 1.386 . S
H945 C961 0.930 . S
H946 C962 0.931 . S
C947 H935 0.929 . S
C947 C941 1.390 . S
C947 C944 1.386 . S
C948 C943 1.490 . S
C948 C950 1.395 . S
C948 C951 1.403 . S
H949 C955 0.930 . S
C950 H936 0.930 . S
C950 C948 1.395 . S
C950 C953 1.385 1_554 S
C951 C948 1.403 . S
C951 C952 1.524 . S
C951 C955 1.400 . S
C952 H937 0.960 . S
C952 H938 0.960 . S
C952 H939 0.960 . S
C952 C951 1.524 . S
C953 C950 1.385 1_556 S
C953 C954 1.397 . S
C953 C957 1.510 . S
C954 C953 1.397 . S
C954 C955 1.385 1_556 S
C954 C956 1.478 . S
C955 H949 0.930 . S
C955 C951 1.400 . S
C955 C954 1.385 1_554 S
C956 C954 1.478 . S
C956 C958 1.381 . S
C956 C962 1.383 . S
C957 C953 1.510 . S
C957 H963 0.959 . S
C957 H964 0.961 . S
C957 H965 0.960 . S
C958 C956 1.381 . S
C958 C959 1.394 . S
C958 H966 0.930 . S
C959 C958 1.394 . S
C959 C960 1.383 . S
C959 H967 0.929 . S
C960 C959 1.383 . S
C960 C961 1.377 . S
C961 H945 0.930 . S
C961 C960 1.377 . S
C961 C962 1.379 . S
C962 H946 0.931 . S
C962 C956 1.383 . S
C962 C961 1.379 . S
H963 C957 0.959 . S
H964 C957 0.961 . S
H965 C957 0.960 . S
H966 C958 0.930 . S
H967 C959 0.929 . S
H968 C976 0.929 1_455 S
H969 C978 0.930 . S
H970 C980 0.930 . S
H971 C983 0.929 . S
H972 C986 0.930 . S
H973 C988 0.960 . S
H974 C988 0.960 . S
H975 C988 0.960 . S
C976 H968 0.929 1_655 S
C976 C977 1.377 . S
C976 C978 1.384 . S
C977 C976 1.377 . S
C977 C983 1.390 . S
C978 H969 0.930 . S
C978 C976 1.384 . S
C978 C979 1.372 . S
C979 C978 1.372 . S
C979 C980 1.400 . S
C979 C984 1.490 . S
C980 H970 0.930 . S
C980 C979 1.400 . S
C980 C983 1.386 . S
H981 C997 0.930 . S
H982 C998 0.931 . S
C983 H971 0.929 . S
C983 C977 1.390 . S
C983 C980 1.386 . S
C984 C979 1.490 . S
C984 C986 1.395 . S
C984 C987 1.403 . S
H985 C991 0.930 . S
C986 H972 0.930 . S
C986 C984 1.395 . S
C986 C989 1.403 . S
C987 C984 1.403 . S
C987 C988 1.524 . S
C987 C991 1.400 . S
C988 H973 0.960 . S
C988 H974 0.960 . S
C988 H975 0.960 . S
C988 C987 1.524 . S
C989 C986 1.403 . S
C989 C990 1.392 . S
C989 C993 1.495 . S
C990 C989 1.392 . S
C990 C991 1.385 . S
C990 C992 1.478 . S
C991 H985 0.930 . S
C991 C987 1.400 . S
C991 C990 1.385 . S
C992 C990 1.478 . S
C992 C994 1.381 . S
C992 C998 1.383 . S
C993 C989 1.495 . S
C993 H999 0.959 . S
C993 H1000 0.961 . S
C993 H1001 0.960 . S
C994 C992 1.381 . S
C994 C995 1.394 . S
C994 H1002 0.930 . S
C995 C994 1.394 . S
C995 C996 1.383 . S
C995 H1003 0.929 . S
C996 C995 1.383 . S
C996 C997 1.377 . S
C997 H981 0.930 . S
C997 C996 1.377 . S
C997 C998 1.379 . S
C998 H982 0.931 . S
C998 C992 1.383 . S
C998 C997 1.379 . S
H999 C993 0.959 . S
H1000 C993 0.961 . S
H1001 C993 0.960 . S
H1002 C994 0.930 . S
H1003 C995 0.929 . S
H1004 C1012 0.929 . S
H1005 C1014 0.930 . S
H1006 C1016 0.930 1_556 S
H1007 C1019 0.929 . S
H1008 C1022 0.930 . S
H1009 C1024 0.960 . S
H1010 C1024 0.960 . S
H1011 C1024 0.960 . S
C1012 H1004 0.929 . S
C1012 C1013 1.377 . S
C1012 C1014 1.384 . S
C1013 C1012 1.377 . S
C1013 C1019 1.390 . S
C1014 H1005 0.930 . S
C1014 C1012 1.384 . S
C1014 C1015 1.372 . S
C1015 C1014 1.372 . S
C1015 C1016 1.400 . S
C1015 C1020 1.490 . S
C1016 H1006 0.930 1_554 S
C1016 C1015 1.400 . S
C1016 C1019 1.386 . S
H1017 C1033 0.930 . S
H1018 C1034 0.931 . S
C1019 H1007 0.929 . S
C1019 C1013 1.390 . S
C1019 C1016 1.386 . S
C1020 C1015 1.490 . S
C1020 C1022 1.395 . S
C1020 C1023 1.403 1_554 S
H1021 C1027 0.930 . S
C1022 H1008 0.930 . S
C1022 C1020 1.395 . S
C1022 C1025 1.403 1_554 S
C1023 C1020 1.403 1_556 S
C1023 C1024 1.524 . S
C1023 C1027 1.400 . S
C1024 H1009 0.960 . S
C1024 H1010 0.960 . S
C1024 H1011 0.960 . S
C1024 C1023 1.524 . S
C1025 C1022 1.403 1_556 S
C1025 C1026 1.392 . S
C1025 C1029 1.495 1_556 S
C1026 C1025 1.392 . S
C1026 C1027 1.385 . S
C1026 C1028 1.478 . S
C1027 H1021 0.930 . S
C1027 C1023 1.400 . S
C1027 C1026 1.385 . S
C1028 C1026 1.478 . S
C1028 C1030 1.381 . S
C1028 C1034 1.383 . S
C1029 C1025 1.495 1_554 S
C1029 H1035 0.959 . S
C1029 H1036 0.961 1_554 S
C1029 H1037 0.960 . S
C1030 C1028 1.381 . S
C1030 C1031 1.394 . S
C1030 H1038 0.930 . S
C1031 C1030 1.394 . S
C1031 C1032 1.383 . S
C1031 H1039 0.929 . S
C1032 C1031 1.383 . S
C1032 C1033 1.377 . S
C1033 H1017 0.930 . S
C1033 C1032 1.377 . S
C1033 C1034 1.379 . S
C1034 H1018 0.931 . S
C1034 C1028 1.383 . S
C1034 C1033 1.379 . S
H1035 C1029 0.959 . S
H1036 C1029 0.961 1_556 S
H1037 C1029 0.960 . S
H1038 C1030 0.930 . S
H1039 C1031 0.929 . S
C185 C140 1.586 . S
C204 C5 1.472 . S
C221 C27 1.510 . S
C240 C162 1.578 . S
C257 C96 1.586 . S
C276 C49 1.485 . S
C293 C75 1.506 . S
C312 C114 1.579 . S
C329 C52 1.585 . S
C348 C94 1.476 . S
C365 C117 1.498 . S
C384 C70 1.579 . S
C401 C8 1.585 . S
C420 C138 1.472 . S
C437 C30 1.587 . S
C456 C160 1.517 . S
C473 C9 0.888 . S
C492 C95 0.875 . S
C509 C116 0.907 . S
C528 C31 0.946 . S
C545 C53 0.895 . S
C564 C139 0.931 . S
C581 C161 0.907 . S
C600 C71 0.891 . S
C617 C74 1.530 . S
C636 C4 1.518 . S
C653 C26 1.529 . S
C672 C48 1.506 . S
C689 C158 1.524 . S
C708 C92 1.519 . S
C725 C118 1.523 . S
C744 C136 1.539 . S
C761 C6 1.237 . S
C780 C51 1.296 . S
C797 C28 1.234 1_655 S
C816 C72 1.300 . S
C833 C50 1.235 1_455 S
C852 C7 1.295 . S
C869 C73 1.238 . S
C888 C29 1.293 . S
C905 C93 1.245 . S
C924 C141 1.301 . S
C941 C119 1.245 1_455 S
C960 C163 1.321 . S
C977 C137 1.242 1_655 S
C996 C97 1.285 . S
C1013 C115 1.289 . S
C1032 C159 1.218 . S
