# Generated by pormake.
# Topology ukk, (4)-cn, num edge types: 1
# Building blocks:
#     Node 0, Type 0, BuildingBlock: QUQFOY_clean_sbu_3, # of connection points: 4
#     Node 1, Type 0, BuildingBlock: QUQFOY_clean_sbu_3, # of connection points: 4
#     Node 2, Type 0, BuildingBlock: QUQFOY_clean_sbu_3, # of connection points: 4
#     Node 3, Type 0, BuildingBlock: QUQFOY_clean_sbu_3, # of connection points: 4
#     Node 4, Type 0, BuildingBlock: QUQFOY_clean_sbu_3, # of connection points: 4
#     Node 5, Type 0, BuildingBlock: QUQFOY_clean_sbu_3, # of connection points: 4
#     Node 6, Type 0, BuildingBlock: QUQFOY_clean_sbu_3, # of connection points: 4
#     Node 7, Type 0, BuildingBlock: QUQFOY_clean_sbu_3, # of connection points: 4
#     Node 8, Type 0, BuildingBlock: QUQFOY_clean_sbu_3, # of connection points: 4
#     Node 9, Type 0, BuildingBlock: QUQFOY_clean_sbu_3, # of connection points: 4
#     Node 10, Type 0, BuildingBlock: QUQFOY_clean_sbu_3, # of connection points: 4
#     Node 11, Type 0, BuildingBlock: QUQFOY_clean_sbu_3, # of connection points: 4
#     Node 12, Type 0, BuildingBlock: QUQFOY_clean_sbu_3, # of connection points: 4
#     Node 13, Type 0, BuildingBlock: QUQFOY_clean_sbu_3, # of connection points: 4
#     Node 14, Type 0, BuildingBlock: QUQFOY_clean_sbu_3, # of connection points: 4
#     Node 15, Type 0, BuildingBlock: QUQFOY_clean_sbu_3, # of connection points: 4
#     Edge 16, Type (0, 0), BuildingBlock: XIVTED_clean_linker_0, # of connection points: 2
#     Edge 17, Type (0, 0), BuildingBlock: XIVTED_clean_linker_0, # of connection points: 2
#     Edge 18, Type (0, 0), BuildingBlock: XIVTED_clean_linker_0, # of connection points: 2
#     Edge 19, Type (0, 0), BuildingBlock: XIVTED_clean_linker_0, # of connection points: 2
#     Edge 20, Type (0, 0), BuildingBlock: XIVTED_clean_linker_0, # of connection points: 2
#     Edge 21, Type (0, 0), BuildingBlock: XIVTED_clean_linker_0, # of connection points: 2
#     Edge 22, Type (0, 0), BuildingBlock: XIVTED_clean_linker_0, # of connection points: 2
#     Edge 23, Type (0, 0), BuildingBlock: XIVTED_clean_linker_0, # of connection points: 2
#     Edge 24, Type (0, 0), BuildingBlock: XIVTED_clean_linker_0, # of connection points: 2
#     Edge 25, Type (0, 0), BuildingBlock: XIVTED_clean_linker_0, # of connection points: 2
#     Edge 26, Type (0, 0), BuildingBlock: XIVTED_clean_linker_0, # of connection points: 2
#     Edge 27, Type (0, 0), BuildingBlock: XIVTED_clean_linker_0, # of connection points: 2
#     Edge 28, Type (0, 0), BuildingBlock: XIVTED_clean_linker_0, # of connection points: 2
#     Edge 29, Type (0, 0), BuildingBlock: XIVTED_clean_linker_0, # of connection points: 2
#     Edge 30, Type (0, 0), BuildingBlock: XIVTED_clean_linker_0, # of connection points: 2
#     Edge 31, Type (0, 0), BuildingBlock: XIVTED_clean_linker_0, # of connection points: 2
#     Edge 32, Type (0, 0), BuildingBlock: XIVTED_clean_linker_0, # of connection points: 2
#     Edge 33, Type (0, 0), BuildingBlock: XIVTED_clean_linker_0, # of connection points: 2
#     Edge 34, Type (0, 0), BuildingBlock: XIVTED_clean_linker_0, # of connection points: 2
#     Edge 35, Type (0, 0), BuildingBlock: XIVTED_clean_linker_0, # of connection points: 2
#     Edge 36, Type (0, 0), BuildingBlock: XIVTED_clean_linker_0, # of connection points: 2
#     Edge 37, Type (0, 0), BuildingBlock: XIVTED_clean_linker_0, # of connection points: 2
#     Edge 38, Type (0, 0), BuildingBlock: XIVTED_clean_linker_0, # of connection points: 2
#     Edge 39, Type (0, 0), BuildingBlock: XIVTED_clean_linker_0, # of connection points: 2
#     Edge 40, Type (0, 0), BuildingBlock: XIVTED_clean_linker_0, # of connection points: 2
#     Edge 41, Type (0, 0), BuildingBlock: XIVTED_clean_linker_0, # of connection points: 2
#     Edge 42, Type (0, 0), BuildingBlock: XIVTED_clean_linker_0, # of connection points: 2
#     Edge 43, Type (0, 0), BuildingBlock: XIVTED_clean_linker_0, # of connection points: 2
#     Edge 44, Type (0, 0), BuildingBlock: XIVTED_clean_linker_0, # of connection points: 2
#     Edge 45, Type (0, 0), BuildingBlock: XIVTED_clean_linker_0, # of connection points: 2
#     Edge 46, Type (0, 0), BuildingBlock: XIVTED_clean_linker_0, # of connection points: 2
#     Edge 47, Type (0, 0), BuildingBlock: XIVTED_clean_linker_0, # of connection points: 2
# Relax obj value: 0.124
# Max RMSD: 0.294
# Mean RMSD: 0.294
data_MOF--net-ukk--node1-QUQFOY_clean_sbu_3--edge1-XIVTED_clean_linker_0
_symmetry_space_group_name_H-M    P1
_symmetry_Int_Tables_number       1
_symmetry_cell_setting            triclinic
loop_
_symmetry_equiv_pos_as_xyz
'x, y, z'
_cell_length_a     56.375071
_cell_length_b     56.247552
_cell_length_c     17.536543
_cell_angle_alpha  89.884333
_cell_angle_beta   90.550133
_cell_angle_gamma 91.052617
loop_
_atom_site_label
_atom_site_type_symbol
_atom_site_fract_x
_atom_site_fract_y
_atom_site_fract_z
_atom_type_partial_charge
C0 C 0.34222 0.06319 0.31718 0.0
O1 O 0.35177 0.08146 0.34782 0.0
Cd2 Cd 0.3554 0.11857 0.27669 0.0
O3 O 0.33495 0.06381 0.24841 0.0
Cd4 Cd 0.33303 0.09049 0.1384 0.0
C5 C 0.39243 0.09918 0.13809 0.0
O6 O 0.32112 0.1276 0.20014 0.0
O7 O 0.3333 0.12972 0.08352 0.0
O8 O 0.29342 0.07424 0.11667 0.0
C9 C 0.32431 0.14002 0.14026 0.0
O10 O 0.38875 0.11349 0.19265 0.0
C11 C 0.29635 0.06899 0.04713 0.0
O12 O 0.3758 0.08592 0.11097 0.0
O13 O 0.31693 0.07282 0.02001 0.0
C14 C 0.06478 0.6135 0.70132 0.0
O15 O 0.08361 0.60715 0.66861 0.0
Cd16 Cd 0.12113 0.607 0.73872 0.0
O17 O 0.06511 0.6196 0.77104 0.0
Cd18 Cd 0.09112 0.6244 0.88252 0.0
C19 C 0.10571 0.56654 0.87867 0.0
O20 O 0.12683 0.64071 0.82064 0.0
O21 O 0.12993 0.6296 0.93859 0.0
O22 O 0.07102 0.66161 0.89668 0.0
C23 C 0.13963 0.63885 0.88049 0.0
O24 O 0.11836 0.5729 0.82218 0.0
C25 C 0.06609 0.65919 0.96668 0.0
O26 O 0.09135 0.58087 0.90964 0.0
O27 O 0.07195 0.63973 0.99832 0.0
C28 C 0.62037 0.89783 0.29516 0.0
O29 O 0.61391 0.87935 0.33158 0.0
Cd30 Cd 0.61009 0.84158 0.26503 0.0
O31 O 0.62455 0.89682 0.22418 0.0
Cd32 Cd 0.62502 0.86944 0.11598 0.0
C33 C 0.56693 0.85574 0.13279 0.0
O34 O 0.64206 0.83438 0.17901 0.0
O35 O 0.62719 0.82987 0.06549 0.0
O36 O 0.66243 0.88917 0.09028 0.0
C37 C 0.63842 0.82104 0.12138 0.0
O38 O 0.57406 0.84364 0.18972 0.0
C39 C 0.65882 0.89266 0.01973 0.0
O40 O 0.58115 0.86957 0.09672 0.0
O41 O 0.63854 0.88643 0.99327 0.0
C42 C 0.89453 0.34887 0.68727 0.0
O43 O 0.87544 0.34836 0.64838 0.0
Cd44 Cd 0.83771 0.34848 0.71423 0.0
O45 O 0.89424 0.34537 0.75891 0.0
Cd46 Cd 0.86661 0.33358 0.86073 0.0
C47 C 0.84997 0.39006 0.85669 0.0
O48 O 0.83165 0.31525 0.79637 0.0
O49 O 0.82743 0.32855 0.91128 0.0
O50 O 0.88728 0.29664 0.87798 0.0
C51 C 0.81844 0.31776 0.85424 0.0
O52 O 0.83884 0.38334 0.79664 0.0
C53 C 0.89138 0.29924 0.9488 0.0
O54 O 0.86386 0.3761 0.8922 0.0
O55 O 0.88515 0.31875 0.97861 0.0
C56 C 0.34638 0.39406 0.94661 0.0
O57 O 0.35444 0.37588 0.91373 0.0
Cd58 Cd 0.35665 0.33809 0.98179 0.0
O59 O 0.33989 0.39299 0.01572 0.0
Cd60 Cd 0.3372 0.3658 0.12419 0.0
C61 C 0.39591 0.35494 0.12235 0.0
O62 O 0.32283 0.3293 0.05996 0.0
O63 O 0.33503 0.3265 0.17713 0.0
O64 O 0.29885 0.38321 0.14391 0.0
C65 C 0.32561 0.31653 0.1193 0.0
O66 O 0.39075 0.34154 0.06599 0.0
C67 C 0.30185 0.38789 0.21408 0.0
O68 O 0.38053 0.36851 0.15156 0.0
O69 O 0.32202 0.38317 0.24302 0.0
C70 C 0.39454 0.6182 0.05183 0.0
O71 O 0.37667 0.61081 0.089 0.0
Cd72 Cd 0.33846 0.60662 0.02367 0.0
O73 O 0.3926 0.62305 0.98133 0.0
Cd74 Cd 0.36406 0.62377 0.87588 0.0
C75 C 0.35178 0.56529 0.88733 0.0
O76 O 0.32873 0.63922 0.94063 0.0
O77 O 0.32434 0.62496 0.82652 0.0
O78 O 0.38199 0.66212 0.84955 0.0
C79 C 0.31535 0.63551 0.88279 0.0
O80 O 0.33995 0.57139 0.94534 0.0
C81 C 0.38588 0.65853 0.77948 0.0
O82 O 0.36516 0.58024 0.8526 0.0
O83 O 0.38047 0.63799 0.75358 0.0
C84 C 0.60907 0.56579 0.98069 0.0
O85 O 0.6106 0.58291 0.9337 0.0
Cd86 Cd 0.61067 0.62259 0.99088 0.0
O87 O 0.6119 0.56953 0.05155 0.0
Cd88 Cd 0.62231 0.59874 0.14816 0.0
C89 C 0.56622 0.61494 0.12559 0.0
O90 O 0.64228 0.63169 0.07948 0.0
O91 O 0.62754 0.63854 0.19126 0.0
O92 O 0.65798 0.57682 0.17008 0.0
C93 C 0.63924 0.6461 0.13449 0.0
O94 O 0.57425 0.62408 0.06424 0.0
C95 C 0.65522 0.57395 0.24125 0.0
O96 O 0.57932 0.60231 0.16877 0.0
O97 O 0.6362 0.5818 0.26983 0.0
C98 C 0.56467 0.3391 0.05144 0.0
O99 O 0.58233 0.33269 0.09123 0.0
Cd100 Cd 0.61942 0.34151 0.02821 0.0
O101 O 0.56673 0.34219 0.97993 0.0
Cd102 Cd 0.59491 0.33444 0.876 0.0
C103 C 0.6032 0.3906 0.91754 0.0
O104 O 0.63025 0.31476 0.92913 0.0
O105 O 0.63447 0.33607 0.82657 0.0
O106 O 0.57372 0.29762 0.8523 0.0
C107 C 0.64346 0.32193 0.87484 0.0
O108 O 0.61259 0.38106 0.9762 0.0
C109 C 0.56988 0.30118 0.78181 0.0
O110 O 0.59435 0.37784 0.86407 0.0
O111 O 0.5768 0.32113 0.75462 0.0
C112 C 0.84499 0.56181 0.81933 0.0
O113 O 0.85327 0.57977 0.85498 0.0
Cd114 Cd 0.85658 0.61785 0.78858 0.0
O115 O 0.83884 0.56354 0.74975 0.0
Cd116 Cd 0.83643 0.59147 0.64385 0.0
C117 C 0.89497 0.60321 0.64576 0.0
O118 O 0.8231 0.62773 0.70922 0.0
O119 O 0.83526 0.63083 0.5926 0.0
O120 O 0.79732 0.57438 0.62481 0.0
C121 C 0.8262 0.64061 0.65017 0.0
O122 O 0.89007 0.61543 0.70435 0.0
C123 C 0.79961 0.5695 0.55477 0.0
O124 O 0.87937 0.58973 0.6138 0.0
O125 O 0.81976 0.57403 0.52538 0.0
C126 C 0.56213 0.10918 0.21127 0.0
O127 O 0.58038 0.11181 0.17007 0.0
Cd128 Cd 0.61916 0.11239 0.23207 0.0
O129 O 0.5636 0.11155 0.28324 0.0
Cd130 Cd 0.59191 0.12411 0.3834 0.0
C131 C 0.61011 0.06846 0.37007 0.0
O132 O 0.6255 0.14427 0.31916 0.0
O133 O 0.63133 0.1299 0.43254 0.0
O134 O 0.569 0.15953 0.39895 0.0
C135 C 0.63945 0.14138 0.37593 0.0
O136 O 0.61993 0.07652 0.3099 0.0
C137 C 0.5664 0.15756 0.47051 0.0
O138 O 0.59642 0.08133 0.40948 0.0
O139 O 0.57456 0.13894 0.50202 0.0
C140 C 0.1122 0.3968 0.80083 0.0
O141 O 0.10292 0.37834 0.83072 0.0
Cd142 Cd 0.10024 0.34104 0.76082 0.0
O143 O 0.11988 0.39631 0.73292 0.0
Cd144 Cd 0.12275 0.3692 0.6241 0.0
C145 C 0.06345 0.35956 0.61796 0.0
O146 O 0.13511 0.33255 0.68897 0.0
O147 O 0.12334 0.32966 0.57142 0.0
O148 O 0.16213 0.3862 0.60636 0.0
C149 C 0.13239 0.31979 0.62957 0.0
O150 O 0.06718 0.34533 0.67308 0.0
C151 C 0.15972 0.39071 0.53584 0.0
O152 O 0.07997 0.3731 0.59234 0.0
O153 O 0.13945 0.38625 0.5061 0.0
C154 C 0.39439 0.8463 0.18691 0.0
O155 O 0.37668 0.8542 0.15027 0.0
Cd156 Cd 0.3379 0.85488 0.21127 0.0
O157 O 0.39214 0.83928 0.25536 0.0
Cd158 Cd 0.36281 0.83531 0.3564 0.0
C159 C 0.3498 0.89336 0.35808 0.0
O160 O 0.32727 0.82027 0.28561 0.0
O161 O 0.32318 0.83174 0.40267 0.0
O162 O 0.37981 0.79682 0.37954 0.0
C163 C 0.31399 0.82234 0.34356 0.0
O164 O 0.33816 0.88819 0.29766 0.0
C165 C 0.38427 0.79998 0.44982 0.0
O166 O 0.36335 0.87826 0.38989 0.0
O167 O 0.37949 0.82025 0.47726 0.0
C168 C 0.8472 0.89309 0.44009 0.0
O169 O 0.85607 0.87482 0.41002 0.0
Cd170 Cd 0.85945 0.83822 0.48392 0.0
O171 O 0.84051 0.89265 0.50905 0.0
Cd172 Cd 0.83855 0.86674 0.6209 0.0
C173 C 0.89778 0.85878 0.62178 0.0
O174 O 0.82552 0.82908 0.56147 0.0
O175 O 0.83784 0.82789 0.67879 0.0
O176 O 0.79941 0.88273 0.63652 0.0
C177 C 0.82859 0.81706 0.62225 0.0
O178 O 0.89336 0.84426 0.56773 0.0
C179 C 0.80204 0.88885 0.70567 0.0
O180 O 0.88166 0.87198 0.64848 0.0
O181 O 0.82232 0.88548 0.73599 0.0
C182 C 0.8909 0.1132 0.53796 0.0
O183 O 0.87239 0.10587 0.57191 0.0
Cd184 Cd 0.83466 0.10399 0.50329 0.0
O185 O 0.89003 0.11913 0.46805 0.0
Cd186 Cd 0.86278 0.12173 0.35892 0.0
C187 C 0.84872 0.0633 0.36594 0.0
O188 O 0.82781 0.13789 0.42283 0.0
O189 O 0.82326 0.12525 0.30697 0.0
O190 O 0.88287 0.15936 0.33687 0.0
C191 C 0.81448 0.13545 0.36428 0.0
O192 O 0.83621 0.0693 0.42254 0.0
C193 C 0.88702 0.15613 0.26677 0.0
O194 O 0.86283 0.07819 0.33397 0.0
O195 O 0.8807 0.1361 0.23885 0.0
C196 C 0.113 0.06619 0.44886 0.0
O197 O 0.10657 0.0845 0.41229 0.0
Cd198 Cd 0.10367 0.12236 0.47826 0.0
O199 O 0.11771 0.0674 0.51977 0.0
Cd200 Cd 0.1196 0.09449 0.62858 0.0
C201 C 0.06167 0.10696 0.61259 0.0
O202 O 0.13614 0.13012 0.56462 0.0
O203 O 0.12312 0.13396 0.67962 0.0
O204 O 0.15623 0.07408 0.65257 0.0
C205 C 0.13314 0.14337 0.62237 0.0
O206 O 0.06847 0.11922 0.55545 0.0
C207 C 0.15329 0.07099 0.7235 0.0
O208 O 0.07594 0.09339 0.64825 0.0
O209 O 0.13384 0.07802 0.75116 0.0
C210 C 0.06532 0.8507 0.53301 0.0
O211 O 0.08456 0.84827 0.57005 0.0
Cd212 Cd 0.12132 0.85017 0.49892 0.0
O213 O 0.06494 0.84918 0.4607 0.0
Cd214 Cd 0.09087 0.83848 0.35435 0.0
C215 C 0.10834 0.89491 0.36802 0.0
O216 O 0.12609 0.81901 0.40898 0.0
O217 O 0.12929 0.8356 0.2977 0.0
O218 O 0.06841 0.80182 0.34099 0.0
C219 C 0.13862 0.82324 0.35019 0.0
O220 O 0.11984 0.88687 0.4252 0.0
C221 C 0.06386 0.80403 0.27034 0.0
O222 O 0.09387 0.88161 0.33038 0.0
O223 O 0.07065 0.82336 0.23858 0.0
H224 H 0.30919 0.91747 0.37058 0.0
H225 H 0.37601 0.04297 0.40906 0.0
H226 H 0.38446 0.92424 0.41269 0.0
H227 H 0.30602 0.031 0.31402 0.0
H228 H 0.37676 0.00095 0.44887 0.0
H229 H 0.30529 0.95999 0.39133 0.0
C230 C 0.32486 0.92794 0.38576 0.0
C231 C 0.34722 0.91752 0.38881 0.0
C232 C 0.36104 0.00773 0.42098 0.0
C233 C 0.34304 0.96638 0.41048 0.0
C234 C 0.36054 0.03168 0.3988 0.0
C235 C 0.341 0.04025 0.35769 0.0
C236 C 0.34173 -0.00741 0.40258 0.0
C237 C 0.32151 0.02496 0.34498 0.0
C238 C 0.32265 0.95223 0.39738 0.0
C239 C 0.36693 0.93174 0.40953 0.0
N240 N 0.32245 0.00186 0.36676 0.0
N241 N 0.36448 0.95567 0.41797 0.0
H242 H 0.0445 0.57818 0.6131 0.0
H243 H 0.92024 0.64368 0.62519 0.0
H244 H 0.03274 0.64848 0.7006 0.0
H245 H 0.92519 0.56762 0.60405 0.0
H246 H 0.96301 0.64752 0.60939 0.0
H247 H 0.00266 0.57602 0.57047 0.0
C248 C 0.03328 0.59339 0.62117 0.0
C249 C 0.04185 0.6135 0.66059 0.0
C250 C 0.95479 0.62997 0.6068 0.0
C251 C -0.00549 0.61122 0.61231 0.0
C252 C 0.93038 0.6278 0.61549 0.0
C253 C 0.91935 0.60529 0.61688 0.0
C254 C 0.96844 0.60945 0.60109 0.0
C255 C 0.93317 0.58527 0.60347 0.0
C256 C 0.00947 0.59209 0.5974 0.0
C257 C 0.02669 0.63263 0.67075 0.0
N258 N 0.95721 0.58775 0.59774 0.0
N259 N 0.00376 0.63096 0.64717 0.0
H260 H 0.655 0.93084 0.27423 0.0
H261 H 0.57967 0.03596 0.43792 0.0
H262 H 0.59074 0.91776 0.39994 0.0
H263 H 0.65007 0.0439 0.34607 0.0
H264 H 0.58501 -0.00737 0.44311 0.0
H265 H 0.65559 0.97185 0.31782 0.0
C266 C 0.64118 0.93662 0.31216 0.0
C267 C 0.62271 0.92108 0.33314 0.0
C268 C 0.59945 0.00395 0.42343 0.0
C269 C 0.62276 0.96831 0.38174 0.0
C270 C 0.59643 0.02864 0.42076 0.0
C271 C 0.61429 0.04338 0.39011 0.0
C272 C 0.62045 -0.00579 0.39531 0.0
C273 C 0.63566 0.03309 0.36859 0.0
C274 C 0.64148 0.96006 0.33714 0.0
C275 C 0.60529 0.92932 0.38266 0.0
N276 N 0.63801 0.00918 0.37071 0.0
N277 N 0.60543 0.95261 0.40411 0.0
H278 H 0.03703 0.39955 0.61035 0.0
H279 H 0.91445 0.32678 0.56502 0.0
H280 H 0.03377 0.324 0.57039 0.0
H281 H 0.92658 0.38282 0.72881 0.0
H282 H 0.95552 0.33253 0.52007 0.0
H283 H -0.00656 0.40036 0.6042 0.0
C284 C 0.02716 0.38336 0.59707 0.0
C285 C 0.03881 0.36168 0.59094 0.0
C286 C 0.9489 0.34389 0.56459 0.0
C287 C -0.01061 0.36244 0.58407 0.0
C288 C 0.92559 0.34065 0.59002 0.0
C289 C 0.91742 0.35423 0.65095 0.0
C290 C 0.96368 0.36122 0.5992 0.0
C291 C 0.93244 0.37188 0.68209 0.0
C292 C 0.00237 0.38378 0.59429 0.0
C293 C 0.02529 0.34104 0.57541 0.0
N294 N 0.95489 0.37486 0.65598 0.0
N295 N 0.00122 0.34187 0.57311 0.0
H296 H 0.37948 0.41549 0.85361 0.0
H297 H 0.31173 0.53848 0.88271 0.0
H298 H 0.31079 0.4254 0.95337 0.0
H299 H 0.38667 0.53527 0.83819 0.0
H300 H 0.30854 0.49548 0.86985 0.0
H301 H 0.3798 0.45747 0.81247 0.0
C302 C 0.36422 0.42633 0.86486 0.0
C303 C 0.34514 0.41718 0.90732 0.0
C304 C 0.32567 0.5041 0.86177 0.0
C305 C 0.34535 0.46473 0.86077 0.0
C306 C 0.32748 0.52866 0.86892 0.0
C307 C 0.34955 0.5403 0.8627 0.0
C308 C 0.34619 0.4909 0.84984 0.0
C309 C 0.36935 0.52684 0.84374 0.0
C310 C 0.36448 0.45024 0.84191 0.0
C311 C 0.32591 0.43189 0.9213 0.0
N312 N 0.36732 0.50266 0.83951 0.0
N313 N 0.32658 0.45491 0.89851 0.0
H314 H 0.41506 0.59035 0.16294 0.0
H315 H 0.54086 0.65411 0.09439 0.0
H316 H 0.42777 0.65197 0.02144 0.0
H317 H 0.53425 0.58429 0.19483 0.0
H318 H 0.49803 0.658 0.09924 0.0
H319 H 0.45704 0.592 0.20392 0.0
C320 C 0.42654 0.60451 0.14199 0.0
C321 C 0.41813 0.6209 0.08816 0.0
C322 C 0.50585 0.64189 0.12113 0.0
C323 C 0.4657 0.62296 0.1346 0.0
C324 C 0.53033 0.63969 0.11848 0.0
C325 C 0.54102 0.61869 0.14305 0.0
C326 C 0.49176 0.62278 0.14725 0.0
C327 C 0.52661 0.60071 0.17493 0.0
C328 C 0.45045 0.60537 0.16499 0.0
C329 C 0.43366 0.63881 0.06229 0.0
N330 N 0.50256 0.60296 0.17479 0.0
N331 N 0.45665 0.63927 0.08538 0.0
H332 H 0.59703 0.41823 0.04016 0.0
H333 H 0.62015 0.5431 0.84532 0.0
H334 H 0.60395 0.42217 0.79561 0.0
H335 H 0.58548 0.53246 0.06133 0.0
H336 H 0.61554 0.49999 0.82006 0.0
H337 H 0.59491 0.46106 0.04556 0.0
C338 C 0.59811 0.4282 0.98733 0.0
C339 C 0.60085 0.41667 0.91741 0.0
C340 C 0.60864 0.50732 0.87223 0.0
C341 C 0.59846 0.46617 0.92305 0.0
C342 C 0.61123 0.53181 0.88659 0.0
C343 C 0.60365 0.54118 0.95625 0.0
C344 C 0.59844 0.49246 0.92814 0.0
C345 C 0.59213 0.52591 0.00773 0.0
C346 C 0.59673 0.45274 0.99034 0.0
C347 C 0.60183 0.43051 0.85064 0.0
N348 N 0.59012 0.50239 0.99296 0.0
N349 N 0.60095 0.45473 0.85509 0.0
H350 H 0.42574 0.39349 0.13466 0.0
H351 H 0.54173 0.31378 0.16384 0.0
H352 H 0.42264 0.3174 0.16308 0.0
H353 H 0.53546 0.37542 0.01897 0.0
H354 H 0.50099 0.32012 0.20872 0.0
H355 H 0.46933 0.3921 0.14007 0.0
C356 C 0.43424 0.37666 0.14512 0.0
C357 C 0.42079 0.35552 0.1483 0.0
C358 C 0.50882 0.33246 0.16822 0.0
C359 C 0.47018 0.35376 0.15412 0.0
C360 C 0.53194 0.32886 0.14275 0.0
C361 C 0.54166 0.3439 0.0869 0.0
C362 C 0.49578 0.35156 0.13896 0.0
C363 C 0.52836 0.36322 0.0612 0.0
C364 C 0.45902 0.37583 0.14746 0.0
C365 C 0.43255 0.33405 0.16033 0.0
N366 N 0.50607 0.36647 0.08728 0.0
N367 N 0.45663 0.33366 0.16217 0.0
H368 H 0.80991 0.41555 0.84706 0.0
H369 H 0.87671 0.54 0.91566 0.0
H370 H 0.88283 0.42078 0.92257 0.0
H371 H 0.80901 0.52993 0.80286 0.0
H372 H 0.87611 0.49751 0.95059 0.0
H373 H 0.8061 0.45815 0.86508 0.0
C374 C 0.82507 0.42571 0.86848 0.0
C375 C 0.84683 0.41477 0.88208 0.0
C376 C 0.86119 0.50478 0.91967 0.0
C377 C 0.8428 0.46379 0.90122 0.0
C378 C 0.86145 0.52899 0.90026 0.0
C379 C 0.84298 0.53827 0.85578 0.0
C380 C 0.84218 0.49009 0.89499 0.0
C381 C 0.82371 0.52334 0.83651 0.0
C382 C 0.82291 0.45006 0.87871 0.0
C383 C 0.86579 0.42865 0.911 0.0
N384 N 0.82391 0.50001 0.8557 0.0
N385 N 0.8635 0.45264 0.91817 0.0
H386 H 0.5306 0.07609 0.26152 0.0
H387 H 0.42152 0.13415 0.08477 0.0
H388 H 0.54072 0.12874 0.08533 0.0
H389 H 0.41937 0.05954 0.14059 0.0
H390 H 0.4649 0.13285 0.07895 0.0
H391 H 0.48982 0.06942 0.21661 0.0
C392 C 0.52425 0.086 0.21259 0.0
C393 C 0.53885 0.10308 0.17721 0.0
C394 C 0.45493 0.11659 0.09004 0.0
C395 C 0.49219 0.09591 0.12661 0.0
C396 C 0.43023 0.11732 0.09319 0.0
C397 C 0.41704 0.09689 0.11273 0.0
C398 C 0.46643 0.09549 0.10954 0.0
C399 C 0.42902 0.07558 0.12454 0.0
C400 C 0.50108 0.08208 0.18669 0.0
C401 C 0.52991 0.11541 0.11393 0.0
N402 N 0.45315 0.07556 0.12477 0.0
N403 N 0.50688 0.11201 0.09165 0.0
H404 H 0.14588 0.54163 0.89283 0.0
H405 H 0.07876 0.4154 0.89559 0.0
H406 H 0.07011 0.53476 0.91885 0.0
H407 H 0.1472 0.43036 0.79699 0.0
H408 H 0.07786 0.45666 0.9426 0.0
H409 H 0.14901 0.49856 0.90063 0.0
C410 C 0.12993 0.53099 0.902 0.0
C411 C 0.10767 0.54165 0.90414 0.0
C412 C 0.09324 0.45068 0.91202 0.0
C413 C 0.11104 0.49225 0.91105 0.0
C414 C 0.09383 0.42719 0.88565 0.0
C415 C 0.11302 0.41965 0.84193 0.0
C416 C 0.11218 0.46639 0.89558 0.0
C417 C 0.132 0.43557 0.82988 0.0
C418 C 0.13171 0.50641 0.90607 0.0
C419 C 0.08758 0.52714 0.91677 0.0
N420 N 0.13104 0.45818 0.85622 0.0
N421 N 0.08966 0.50301 0.91816 0.0
H422 H 0.42561 0.81077 0.19972 0.0
H423 H 0.53671 0.88994 0.07643 0.0
H424 H 0.41721 0.88006 0.09877 0.0
H425 H 0.53941 0.81617 0.14277 0.0
H426 H 0.49309 0.88625 0.0678 0.0
H427 H 0.4671 0.81152 0.16325 0.0
C428 C 0.43253 0.82603 0.16869 0.0
C429 C 0.4181 0.8454 0.15247 0.0
C430 C 0.50333 0.87079 0.08273 0.0
C431 C 0.46596 0.84684 0.11223 0.0
C432 C 0.52817 0.87288 0.08732 0.0
C433 C 0.54157 0.85343 0.11159 0.0
C434 C 0.49208 0.8491 0.10239 0.0
C435 C 0.52972 0.83174 0.12526 0.0
C436 C 0.45626 0.82651 0.14784 0.0
C437 C 0.42786 0.86474 0.112 0.0
N438 N 0.50574 0.83025 0.12126 0.0
N439 N 0.45139 0.8652 0.09447 0.0
H440 H 0.88 0.9143 0.34564 0.0
H441 H 0.8091 0.03574 0.35879 0.0
H442 H 0.81068 0.92348 0.44173 0.0
H443 H 0.88445 0.03382 0.32029 0.0
H444 H 0.80694 -0.00741 0.34904 0.0
H445 H 0.87937 0.95577 0.29972 0.0
C446 C 0.8644 0.92484 0.35504 0.0
C447 C 0.84541 0.91567 0.39786 0.0
C448 C 0.82393 0.00153 0.34147 0.0
C449 C 0.84455 0.96265 0.34588 0.0
C450 C 0.82515 0.02618 0.34676 0.0
C451 C 0.84704 0.03825 0.34149 0.0
C452 C 0.84483 -0.0113 0.33229 0.0
C453 C 0.86726 0.02508 0.32499 0.0
C454 C 0.86412 0.94847 0.32937 0.0
C455 C 0.82574 0.93 0.40943 0.0
N456 N 0.86577 0.00085 0.32256 0.0
N457 N 0.82589 0.95277 0.38404 0.0
H458 H 0.92247 0.14972 0.53364 0.0
H459 H 0.03082 0.07161 0.66236 0.0
H460 H 0.912 0.0797 0.62905 0.0
H461 H 0.03538 0.14647 0.61007 0.0
H462 H -0.0127 0.0746 0.66833 0.0
H463 H 0.96345 0.1498 0.57825 0.0
C464 C 0.92881 0.1345 0.56531 0.0
C465 C 0.91401 0.11466 0.57757 0.0
C466 C -0.00208 0.09045 0.65733 0.0
C467 C 0.96124 0.11416 0.62688 0.0
C468 C 0.02271 0.08875 0.65428 0.0
C469 C 0.03656 0.10875 0.63439 0.0
C470 C -0.0128 0.11228 0.64038 0.0
C471 C 0.02527 0.13053 0.62416 0.0
C472 C 0.95224 0.13449 0.59082 0.0
C473 C 0.92298 0.09536 0.61887 0.0
N474 N 0.00132 0.13164 0.62633 0.0
N475 N 0.94626 0.09535 0.64079 0.0
H476 H 0.14837 0.92154 0.38589 0.0
H477 H 0.08366 0.04601 0.33946 0.0
H478 H 0.0756 0.92622 0.31001 0.0
H479 H 0.14656 0.03346 0.47432 0.0
H480 H 0.08434 0.00437 0.29555 0.0
H481 H 0.15202 0.96468 0.38191 0.0
C482 C 0.13322 0.93171 0.36725 0.0
C483 C 0.11152 0.92037 0.34962 0.0
C484 C 0.09819 0.01095 0.33363 0.0
C485 C 0.11543 0.96991 0.34639 0.0
C486 C 0.09788 0.03465 0.35828 0.0
C487 C 0.11497 0.04297 0.41102 0.0
C488 C 0.11596 -0.00415 0.36109 0.0
C489 C 0.13292 0.02762 0.43427 0.0
C490 C 0.1353 0.95635 0.36513 0.0
C491 C 0.0926 0.93436 0.32453 0.0
N492 N 0.13288 0.00483 0.40944 0.0
N493 N 0.09482 0.95854 0.32506 0.0
H494 H 0.92499 0.8993 0.6251 0.0
H495 H 0.04626 0.82805 0.65748 0.0
H496 H 0.92717 0.82395 0.66857 0.0
H497 H 0.03375 0.88457 0.49654 0.0
H498 H 0.00596 0.83331 0.70773 0.0
H499 H 0.96864 0.90085 0.62685 0.0
C500 C 0.93467 0.88332 0.63823 0.0
C501 C 0.92267 0.86146 0.64656 0.0
C502 C 0.01235 0.84487 0.66262 0.0
C503 C 0.97214 0.86306 0.64832 0.0
C504 C 0.03523 0.84191 0.63416 0.0
C505 C 0.04303 0.85573 0.57241 0.0
C506 C -0.00235 0.86217 0.6302 0.0
C507 C 0.02816 0.8734 0.54368 0.0
C508 C 0.95948 0.88415 0.6385 0.0
C509 C 0.93593 0.84111 0.66185 0.0
N510 N 0.00613 0.87609 0.57265 0.0
N511 N 0.96002 0.84233 0.66157 0.0
H512 H 0.3165 0.28686 0.9979 0.0
H513 H 0.31379 0.16967 0.25883 0.0
H514 H 0.32259 0.28761 0.24343 0.0
H515 H 0.32421 0.16889 0.01531 0.0
H516 H 0.30951 0.2129 0.25295 0.0
H517 H 0.31177 0.24344 0.00227 0.0
C518 C 0.31655 0.27792 0.05267 0.0
C519 C 0.32021 0.29077 0.12031 0.0
C520 C 0.31256 0.20321 0.20077 0.0
C521 C 0.31483 0.24133 0.1258 0.0
C522 C 0.31495 0.17856 0.20411 0.0
C523 C 0.31963 0.16574 0.13762 0.0
C524 C 0.31473 0.21504 0.1304 0.0
C525 C 0.32088 0.17813 0.06812 0.0
C526 C 0.31394 0.25318 0.05516 0.0
C527 C 0.3201 0.27834 0.18981 0.0
N528 N 0.31857 0.2021 0.06637 0.0
N529 N 0.31759 0.25431 0.19075 0.0
H530 H 0.16887 0.64313 0.00438 0.0
H531 H 0.28609 0.63777 0.75891 0.0
H532 H 0.16888 0.64699 0.75859 0.0
H533 H 0.28693 0.6471 0.00312 0.0
H534 H 0.2434 0.64384 0.75736 0.0
H535 H 0.21201 0.64741 0.00522 0.0
C536 C 0.17796 0.64512 0.95053 0.0
C537 C 0.16532 0.64443 0.8812 0.0
C538 C 0.2529 0.64483 0.81125 0.0
C539 C 0.21476 0.64913 0.88178 0.0
C540 C 0.27729 0.64129 0.81225 0.0
C541 C 0.29001 0.64167 0.88143 0.0
C542 C 0.24103 0.64846 0.88007 0.0
C543 C 0.27776 0.64656 0.94862 0.0
C544 C 0.2026 0.64762 0.95111 0.0
C545 C 0.17796 0.64733 0.81327 0.0
N546 N 0.25385 0.64946 0.9464 0.0
N547 N 0.20204 0.64923 0.81521 0.0
H548 H 0.63931 0.79135 0.99896 0.0
H549 H 0.64722 0.67574 0.25414 0.0
H550 H 0.65274 0.7933 0.24158 0.0
H551 H 0.64808 0.67377 0.0083 0.0
H552 H 0.65321 0.71872 0.24985 0.0
H553 H 0.64609 0.74865 -0.00028 0.0
C554 C 0.6439 0.78281 0.05237 0.0
C555 C 0.64513 0.79581 0.12058 0.0
C556 C 0.65246 0.70893 0.19676 0.0
C557 C 0.65279 0.74688 0.12185 0.0
C558 C 0.649 0.68438 0.19916 0.0
C559 C 0.64685 0.67128 0.13139 0.0
C560 C 0.65335 0.72057 0.126 0.0
C561 C 0.64955 0.68327 0.06181 0.0
C562 C 0.64787 0.75843 0.05267 0.0
C563 C 0.65144 0.7839 0.18785 0.0
N564 N 0.65225 0.70736 0.06084 0.0
N565 N 0.6547 0.76002 0.18698 0.0
H566 H 0.67189 0.30231 0.98526 0.0
H567 H 0.78897 0.31121 0.73017 0.0
H568 H 0.67225 0.32646 0.75153 0.0
H569 H 0.78982 0.31044 0.9762 0.0
H570 H 0.74555 0.30685 0.73213 0.0
H571 H 0.71465 0.29547 0.9773 0.0
C572 C 0.6809 0.30587 0.93205 0.0
C573 C 0.66861 0.31526 0.8693 0.0
C574 C 0.75533 0.30732 0.78558 0.0
C575 C 0.71731 0.30738 0.85966 0.0
C576 C 0.78006 0.30967 0.78446 0.0
C577 C 0.79291 0.31147 0.85312 0.0
C578 C 0.74351 0.30649 0.85583 0.0
C579 C 0.78052 0.30944 0.92196 0.0
C580 C 0.70527 0.30203 0.92758 0.0
C581 C 0.68113 0.31951 0.80162 0.0
N582 N 0.75651 0.3072 0.9216 0.0
N583 N 0.70481 0.31566 0.79869 0.0
H584 H 0.81867 0.67053 0.771 0.0
H585 H 0.81652 0.7867 0.50537 0.0
H586 H 0.82254 0.66906 0.52538 0.0
H587 H 0.82875 0.78874 0.74865 0.0
H588 H 0.81124 0.74346 0.51334 0.0
H589 H 0.81484 0.71391 0.76526 0.0
C590 C 0.81841 0.6793 0.71594 0.0
C591 C 0.8212 0.66627 0.64866 0.0
C592 C 0.81491 0.75342 0.56503 0.0
C593 C 0.81685 0.71564 0.64158 0.0
C594 C 0.81787 0.77808 0.56049 0.0
C595 C 0.82335 0.79127 0.62627 0.0
C596 C 0.81732 0.74192 0.6359 0.0
C597 C 0.82482 0.77921 0.69634 0.0
C598 C 0.81632 0.70402 0.71266 0.0
C599 C 0.82073 0.67847 0.57875 0.0
N600 N 0.82195 0.75521 0.69926 0.0
N601 N 0.81874 0.70246 0.57705 0.0
H602 H 0.78444 0.13785 0.24185 0.0
H603 H 0.66961 0.14724 0.49642 0.0
H604 H 0.78718 0.14861 0.48538 0.0
H605 H 0.66732 0.14957 0.25057 0.0
H606 H 0.71271 0.15133 0.49297 0.0
H607 H 0.74195 0.14531 0.24281 0.0
C608 C 0.77612 0.14197 0.29553 0.0
C609 C 0.78931 0.14231 0.36386 0.0
C610 C 0.70283 0.1513 0.43971 0.0
C611 C 0.74058 0.15076 0.36534 0.0
C612 C 0.6782 0.14894 0.44163 0.0
C613 C 0.66493 0.1478 0.3736 0.0
C614 C 0.71436 0.15213 0.36918 0.0
C615 C 0.67692 0.15031 0.3043 0.0
C616 C 0.75185 0.14632 0.29595 0.0
C617 C 0.77766 0.14801 0.43151 0.0
N618 N 0.70103 0.15197 0.3038 0.0
N619 N 0.75388 0.15171 0.43069 0.0
H620 H 0.14345 0.29107 0.75095 0.0
H621 H 0.14243 0.17223 0.49926 0.0
H622 H 0.13309 0.29018 0.50676 0.0
H623 H 0.13627 0.17305 0.74435 0.0
H624 H 0.14684 0.21571 0.5004 0.0
H625 H 0.14855 0.24793 0.74867 0.0
C626 C 0.14247 0.28184 0.69684 0.0
C627 C 0.13755 0.29415 0.6291 0.0
C628 C 0.14475 0.20631 0.55393 0.0
C629 C 0.14339 0.24493 0.62598 0.0
C630 C 0.14234 0.18152 0.55329 0.0
C631 C 0.13871 0.1691 0.62169 0.0
C632 C 0.14369 0.21862 0.62351 0.0
C633 C 0.13874 0.18199 0.69018 0.0
C634 C 0.14533 0.25723 0.69554 0.0
C635 C 0.13657 0.28132 0.56048 0.0
N636 N 0.14104 0.20603 0.68931 0.0
N637 N 0.13933 0.2574 0.56071 0.0
H638 H 0.16661 0.8238 0.22442 0.0
H639 H 0.28563 0.81405 0.46541 0.0
H640 H 0.16806 0.80801 0.46529 0.0
H641 H 0.2843 0.81618 0.21948 0.0
H642 H 0.24266 0.80859 0.46522 0.0
H643 H 0.20934 0.81792 0.21966 0.0
C644 C 0.17591 0.81884 0.27624 0.0
C645 C 0.16382 0.81668 0.34562 0.0
C646 C 0.25172 0.80994 0.41117 0.0
C647 C 0.21283 0.8101 0.34063 0.0
C648 C 0.27627 0.81312 0.41121 0.0
C649 C 0.28849 0.81586 0.34231 0.0
C650 C 0.23916 0.80986 0.34172 0.0
C651 C 0.27553 0.81424 0.27384 0.0
C652 C 0.20031 0.81543 0.2734 0.0
C653 C 0.1767 0.80998 0.41073 0.0
N654 N 0.25147 0.81171 0.27529 0.0
N655 N 0.20059 0.80726 0.40685 0.0
H656 H 0.19322 0.04863 0.67754 0.0
H657 H 0.29576 0.06026 0.89345 0.0
H658 H 0.15821 0.07353 0.87911 0.0
H659 H 0.25046 0.06079 0.09035 0.0
H660 H 0.26099 0.05422 0.81232 0.0
H661 H 0.22848 0.04068 0.75386 0.0
C662 C 0.19294 0.05231 0.73814 0.0
C663 C 0.1729 0.06219 0.77178 0.0
C664 C 0.25852 0.05489 0.8733 0.0
C665 C 0.21371 0.05414 0.85938 0.0
C666 C 0.27851 0.05851 0.91976 0.0
C667 C 0.27603 0.06123 0.9987 0.0
C668 C 0.23581 0.05395 0.90612 0.0
C669 C 0.25321 0.05894 0.02966 0.0
C670 C 0.21326 0.04805 0.78169 0.0
C671 C 0.17335 0.06613 0.8507 0.0
N672 N 0.23399 0.05578 0.98322 0.0
N673 N 0.19356 0.06241 0.89163 0.0
H674 H 0.04947 0.76059 0.32445 0.0
H675 H 0.05192 0.70207 0.9112 0.0
H676 H 0.05715 0.80051 0.11539 0.0
H677 H 0.05889 0.66249 0.12111 0.0
H678 H 0.04338 0.73763 0.98466 0.0
H679 H 0.04232 0.72452 0.24997 0.0
C680 C 0.04918 0.76189 0.26281 0.0
C681 C 0.05433 0.78357 0.22605 0.0
C682 C 0.04643 0.7211 0.01466 0.0
C683 C 0.04634 0.74222 0.14055 0.0
C684 C 0.05126 0.70074 0.97278 0.0
C685 C 0.05653 0.67934 0.01017 0.0
C686 C 0.04688 0.72012 0.09459 0.0
C687 C 0.05517 0.67866 0.08998 0.0
C688 C 0.04518 0.74123 0.22037 0.0
C689 C 0.0535 0.78416 0.1461 0.0
N690 N 0.05079 0.69885 0.12962 0.0
N691 N 0.04995 0.76371 0.10599 0.0
H692 H 0.65948 0.89576 0.86335 0.0
H693 H 0.80061 0.90068 0.85743 0.0
H694 H 0.70329 0.90727 0.06356 0.0
H695 H 0.7568 0.89586 0.65464 0.0
H696 H 0.76518 0.90864 0.93201 0.0
H697 H 0.69459 0.9015 0.78388 0.0
C698 C 0.67638 0.89996 0.89052 0.0
C699 C 0.67852 0.90069 0.97022 0.0
C700 C 0.76336 0.90617 0.871 0.0
C701 C 0.71881 0.9069 0.87989 0.0
C702 C 0.78361 0.90165 0.82842 0.0
C703 C 0.78163 0.89728 0.74991 0.0
C704 C 0.74096 0.90611 0.83487 0.0
C705 C 0.75914 0.89887 0.71523 0.0
C706 C 0.69645 0.90314 0.84516 0.0
C707 C 0.70086 0.90624 0.00234 0.0
N708 N 0.73966 0.90283 0.75806 0.0
N709 N 0.72017 0.90878 0.95718 0.0
H710 H 0.89377 0.15695 0.11178 0.0
H711 H 0.89981 0.29797 0.10312 0.0
H712 H 0.90106 0.2005 0.31331 0.0
H713 H 0.90183 0.25447 0.90089 0.0
H714 H 0.90613 0.2625 0.1809 0.0
H715 H 0.9024 0.19203 0.03333 0.0
C716 C 0.8976 0.17378 0.13958 0.0
C717 C 0.89632 0.17587 0.21911 0.0
C718 C 0.90559 0.26075 0.11942 0.0
C719 C 0.9059 0.21613 0.12984 0.0
C720 C 0.90204 0.28104 0.07499 0.0
C721 C 0.89992 0.27914 0.99548 0.0
C722 C 0.90675 0.23838 0.08411 0.0
C723 C 0.90307 0.25674 0.96209 0.0
C724 C 0.90249 0.19384 0.09479 0.0
C725 C 0.90154 0.19811 0.25211 0.0
N726 N 0.90592 0.23719 0.0066 0.0
N727 N 0.90575 0.21742 0.20733 0.0
H728 H 0.20489 0.40069 0.58559 0.0
H729 H 0.25754 0.39985 0.1649 0.0
H730 H 0.16184 0.39738 0.38089 0.0
H731 H 0.30035 0.39421 0.36927 0.0
H732 H 0.22288 0.40703 0.24324 0.0
H733 H 0.24014 0.40641 0.50744 0.0
C734 C 0.20279 0.40153 0.52418 0.0
C735 C 0.18039 0.39823 0.48966 0.0
C736 C 0.23989 0.40452 0.271 0.0
C737 C 0.22078 0.4046 0.39981 0.0
C738 C 0.25974 0.40047 0.2263 0.0
C739 C 0.28184 0.3961 0.26065 0.0
C740 C 0.2421 0.40414 0.35078 0.0
C741 C 0.28363 0.3973 0.34041 0.0
C742 C 0.22296 0.40474 0.4796 0.0
C743 C 0.17876 0.39966 0.4099 0.0
N744 N 0.26395 0.40093 0.38283 0.0
N745 N 0.19873 0.40246 0.36764 0.0
H746 H 0.39286 0.79981 0.60416 0.0
H747 H 0.39137 0.65852 0.62401 0.0
H748 H 0.39376 0.75468 0.40544 0.0
H749 H 0.39799 0.70382 0.82174 0.0
H750 H 0.39768 0.69335 0.54238 0.0
H751 H 0.40011 0.76501 0.68434 0.0
C752 C 0.39494 0.78265 0.57731 0.0
C753 C 0.39236 0.78009 0.49814 0.0
C754 C 0.39811 0.69562 0.60368 0.0
C755 C 0.40037 0.74015 0.58944 0.0
C756 C 0.39456 0.67571 0.65028 0.0
C757 C 0.39379 0.67832 0.72971 0.0
C758 C 0.40071 0.71828 0.63685 0.0
C759 C 0.39813 0.70101 0.7607 0.0
C760 C 0.39906 0.76277 0.62309 0.0
C761 C 0.39535 0.75745 0.46636 0.0
N762 N 0.40106 0.72015 0.71422 0.0
N763 N 0.39886 0.73832 0.51216 0.0
H764 H 0.65678 0.56843 0.39683 0.0
H765 H 0.79709 0.56117 0.40057 0.0
H766 H 0.69827 0.5585 0.19414 0.0
H767 H 0.75473 0.55991 0.60435 0.0
H768 H 0.76095 0.55483 0.32436 0.0
H769 H 0.69188 0.55995 0.47454 0.0
C770 C 0.67314 0.56405 0.36868 0.0
C771 C 0.67469 0.56456 0.28895 0.0
C772 C 0.75961 0.55555 0.38586 0.0
C773 C 0.71501 0.55519 0.37732 0.0
C774 C 0.78025 0.55914 0.42936 0.0
C775 C 0.77888 0.56146 0.50878 0.0
C776 C 0.73745 0.55452 0.42209 0.0
C777 C 0.7566 0.55856 0.54313 0.0
C778 C 0.69321 0.55924 0.41304 0.0
C779 C 0.69633 0.55862 0.25549 0.0
N780 N 0.73674 0.55562 0.49954 0.0
N781 N 0.71572 0.55457 0.2998 0.0
H782 H 0.54616 0.19818 0.41698 0.0
H783 H 0.56418 0.30079 0.62618 0.0
H784 H 0.56643 0.163 0.62594 0.0
H785 H 0.55476 0.25696 0.82626 0.0
H786 H 0.55601 0.26612 0.54651 0.0
H787 H 0.53904 0.23436 0.48881 0.0
C788 C 0.5489 0.198 0.47821 0.0
C789 C 0.55739 0.17767 0.51534 0.0
C790 C 0.55493 0.26411 0.60771 0.0
C791 C 0.55015 0.21939 0.5977 0.0
C792 C 0.55976 0.28399 0.65333 0.0
C793 C 0.56041 0.28174 0.73294 0.0
C794 C 0.55076 0.24179 0.64213 0.0
C795 C 0.55466 0.25949 0.76505 0.0
C796 C 0.54512 0.21882 0.51913 0.0
C797 C 0.56018 0.17834 0.59484 0.0
N798 N 0.5505 0.24033 0.71957 0.0
N799 N 0.55688 0.19898 0.63323 0.0
loop_
_geom_bond_atom_site_label_1
_geom_bond_atom_site_label_2
_geom_bond_distance
_geom_bond_site_symmetry_2
_ccdc_geom_bond_type
C0 O1 1.306 . S
C0 O3 1.160 . S
O1 C0 1.306 . S
O1 Cd2 2.228 . S
Cd2 O1 2.228 . S
Cd2 O6 2.273 . S
Cd2 O10 2.277 . S
O3 C0 1.160 . S
O3 Cd4 2.203 . S
Cd4 O3 2.203 . S
Cd4 O6 2.411 . S
Cd4 O7 2.333 . S
Cd4 O8 2.352 . S
Cd4 O12 2.277 . S
Cd4 O13 2.356 1_554 S
C5 O10 1.209 . S
C5 O12 1.226 . S
O6 Cd2 2.273 . S
O6 Cd4 2.411 . S
O6 C9 1.320 . S
O7 Cd4 2.333 . S
O7 C9 1.214 . S
O8 Cd4 2.352 . S
O8 C11 1.258 . S
C9 O6 1.320 . S
C9 O7 1.214 . S
O10 Cd2 2.277 . S
O10 C5 1.209 . S
C11 O8 1.258 . S
C11 O13 1.282 1_554 S
O12 Cd4 2.277 . S
O12 C5 1.226 . S
O13 Cd4 2.356 1_556 S
O13 C11 1.282 1_556 S
C14 O15 1.306 . S
C14 O17 1.160 . S
O15 C14 1.306 . S
O15 Cd16 2.228 . S
Cd16 O15 2.228 . S
Cd16 O20 2.273 . S
Cd16 O24 2.277 . S
O17 C14 1.160 . S
O17 Cd18 2.203 . S
Cd18 O17 2.203 . S
Cd18 O20 2.411 . S
Cd18 O21 2.333 . S
Cd18 O22 2.352 . S
Cd18 O26 2.277 . S
Cd18 O27 2.356 1_556 S
C19 O24 1.209 . S
C19 O26 1.226 . S
O20 Cd16 2.273 . S
O20 Cd18 2.411 . S
O20 C23 1.320 . S
O21 Cd18 2.333 . S
O21 C23 1.214 . S
O22 Cd18 2.352 . S
O22 C25 1.258 . S
C23 O20 1.320 . S
C23 O21 1.214 . S
O24 Cd16 2.277 . S
O24 C19 1.209 . S
C25 O22 1.258 . S
C25 O27 1.282 1_556 S
O26 Cd18 2.277 . S
O26 C19 1.226 . S
O27 Cd18 2.356 1_554 S
O27 C25 1.282 1_554 S
C28 O29 1.306 . S
C28 O31 1.160 . S
O29 C28 1.306 . S
O29 Cd30 2.228 . S
Cd30 O29 2.228 . S
Cd30 O34 2.273 . S
Cd30 O38 2.277 . S
O31 C28 1.160 . S
O31 Cd32 2.203 . S
Cd32 O31 2.203 . S
Cd32 O34 2.411 . S
Cd32 O35 2.333 . S
Cd32 O36 2.352 . S
Cd32 O40 2.277 . S
Cd32 O41 2.356 1_554 S
C33 O38 1.209 . S
C33 O40 1.226 . S
O34 Cd30 2.273 . S
O34 Cd32 2.411 . S
O34 C37 1.320 . S
O35 Cd32 2.333 . S
O35 C37 1.214 . S
O36 Cd32 2.352 . S
O36 C39 1.258 . S
C37 O34 1.320 . S
C37 O35 1.214 . S
O38 Cd30 2.277 . S
O38 C33 1.209 . S
C39 O36 1.258 . S
C39 O41 1.282 1_554 S
O40 Cd32 2.277 . S
O40 C33 1.226 . S
O41 Cd32 2.356 1_556 S
O41 C39 1.282 1_556 S
C42 O43 1.306 . S
C42 O45 1.160 . S
O43 C42 1.306 . S
O43 Cd44 2.228 . S
Cd44 O43 2.228 . S
Cd44 O48 2.273 . S
Cd44 O52 2.277 . S
O45 C42 1.160 . S
O45 Cd46 2.203 . S
Cd46 O45 2.203 . S
Cd46 O48 2.411 . S
Cd46 O49 2.333 . S
Cd46 O50 2.352 . S
Cd46 O54 2.277 . S
Cd46 O55 2.356 1_556 S
C47 O52 1.209 . S
C47 O54 1.226 . S
O48 Cd44 2.273 . S
O48 Cd46 2.411 . S
O48 C51 1.320 . S
O49 Cd46 2.333 . S
O49 C51 1.214 . S
O50 Cd46 2.352 . S
O50 C53 1.258 . S
C51 O48 1.320 . S
C51 O49 1.214 . S
O52 Cd44 2.277 . S
O52 C47 1.209 . S
C53 O50 1.258 . S
C53 O55 1.282 1_556 S
O54 Cd46 2.277 . S
O54 C47 1.226 . S
O55 Cd46 2.356 1_554 S
O55 C53 1.282 1_554 S
C56 O57 1.306 1_554 S
C56 O59 1.160 . S
O57 C56 1.306 1_556 S
O57 Cd58 2.228 . S
Cd58 O57 2.228 . S
Cd58 O62 2.273 1_556 S
Cd58 O66 2.277 1_556 S
O59 C56 1.160 . S
O59 Cd60 2.203 . S
Cd60 O59 2.203 . S
Cd60 O62 2.411 . S
Cd60 O63 2.333 . S
Cd60 O64 2.352 . S
Cd60 O68 2.277 . S
Cd60 O69 2.356 . S
C61 O66 1.209 . S
C61 O68 1.226 . S
O62 Cd58 2.273 1_554 S
O62 Cd60 2.411 . S
O62 C65 1.320 . S
O63 Cd60 2.333 . S
O63 C65 1.214 . S
O64 Cd60 2.352 . S
O64 C67 1.258 . S
C65 O62 1.320 . S
C65 O63 1.214 . S
O66 Cd58 2.277 1_554 S
O66 C61 1.209 . S
C67 O64 1.258 . S
C67 O69 1.282 . S
O68 Cd60 2.277 . S
O68 C61 1.226 . S
O69 Cd60 2.356 . S
O69 C67 1.282 . S
C70 O71 1.306 1_556 S
C70 O73 1.160 . S
O71 C70 1.306 1_554 S
O71 Cd72 2.228 . S
Cd72 O71 2.228 . S
Cd72 O76 2.273 1_554 S
Cd72 O80 2.277 1_554 S
O73 C70 1.160 . S
O73 Cd74 2.203 . S
Cd74 O73 2.203 . S
Cd74 O76 2.411 . S
Cd74 O77 2.333 . S
Cd74 O78 2.352 . S
Cd74 O82 2.277 . S
Cd74 O83 2.356 . S
C75 O80 1.209 . S
C75 O82 1.226 . S
O76 Cd72 2.273 1_556 S
O76 Cd74 2.411 . S
O76 C79 1.320 . S
O77 Cd74 2.333 . S
O77 C79 1.214 . S
O78 Cd74 2.352 . S
O78 C81 1.258 . S
C79 O76 1.320 . S
C79 O77 1.214 . S
O80 Cd72 2.277 1_556 S
O80 C75 1.209 . S
C81 O78 1.258 . S
C81 O83 1.282 . S
O82 Cd74 2.277 . S
O82 C75 1.226 . S
O83 Cd74 2.356 . S
O83 C81 1.282 . S
C84 O85 1.306 1_554 S
C84 O87 1.160 . S
O85 C84 1.306 1_556 S
O85 Cd86 2.228 . S
Cd86 O85 2.228 . S
Cd86 O90 2.273 1_556 S
Cd86 O94 2.277 1_556 S
O87 C84 1.160 . S
O87 Cd88 2.203 . S
Cd88 O87 2.203 . S
Cd88 O90 2.411 . S
Cd88 O91 2.333 . S
Cd88 O92 2.352 . S
Cd88 O96 2.277 . S
Cd88 O97 2.356 . S
C89 O94 1.209 . S
C89 O96 1.226 . S
O90 Cd86 2.273 1_554 S
O90 Cd88 2.411 . S
O90 C93 1.320 . S
O91 Cd88 2.333 . S
O91 C93 1.214 . S
O92 Cd88 2.352 . S
O92 C95 1.258 . S
C93 O90 1.320 . S
C93 O91 1.214 . S
O94 Cd86 2.277 1_554 S
O94 C89 1.209 . S
C95 O92 1.258 . S
C95 O97 1.282 . S
O96 Cd88 2.277 . S
O96 C89 1.226 . S
O97 Cd88 2.356 . S
O97 C95 1.282 . S
C98 O99 1.306 1_556 S
C98 O101 1.160 . S
O99 C98 1.306 1_554 S
O99 Cd100 2.228 . S
Cd100 O99 2.228 . S
Cd100 O104 2.273 1_554 S
Cd100 O108 2.277 1_554 S
O101 C98 1.160 . S
O101 Cd102 2.203 . S
Cd102 O101 2.203 . S
Cd102 O104 2.411 . S
Cd102 O105 2.333 . S
Cd102 O106 2.352 . S
Cd102 O110 2.277 . S
Cd102 O111 2.356 . S
C103 O108 1.209 . S
C103 O110 1.226 . S
O104 Cd100 2.273 1_556 S
O104 Cd102 2.411 . S
O104 C107 1.320 . S
O105 Cd102 2.333 . S
O105 C107 1.214 . S
O106 Cd102 2.352 . S
O106 C109 1.258 . S
C107 O104 1.320 . S
C107 O105 1.214 . S
O108 Cd100 2.277 1_556 S
O108 C103 1.209 . S
C109 O106 1.258 . S
C109 O111 1.282 . S
O110 Cd102 2.277 . S
O110 C103 1.226 . S
O111 Cd102 2.356 . S
O111 C109 1.282 . S
C112 O113 1.306 . S
C112 O115 1.160 . S
O113 C112 1.306 . S
O113 Cd114 2.228 . S
Cd114 O113 2.228 . S
Cd114 O118 2.273 . S
Cd114 O122 2.277 . S
O115 C112 1.160 . S
O115 Cd116 2.203 . S
Cd116 O115 2.203 . S
Cd116 O118 2.411 . S
Cd116 O119 2.333 . S
Cd116 O120 2.352 . S
Cd116 O124 2.277 . S
Cd116 O125 2.356 . S
C117 O122 1.209 . S
C117 O124 1.226 . S
O118 Cd114 2.273 . S
O118 Cd116 2.411 . S
O118 C121 1.320 . S
O119 Cd116 2.333 . S
O119 C121 1.214 . S
O120 Cd116 2.352 . S
O120 C123 1.258 . S
C121 O118 1.320 . S
C121 O119 1.214 . S
O122 Cd114 2.277 . S
O122 C117 1.209 . S
C123 O120 1.258 . S
C123 O125 1.282 . S
O124 Cd116 2.277 . S
O124 C117 1.226 . S
O125 Cd116 2.356 . S
O125 C123 1.282 . S
C126 O127 1.306 . S
C126 O129 1.160 . S
O127 C126 1.306 . S
O127 Cd128 2.228 . S
Cd128 O127 2.228 . S
Cd128 O132 2.273 . S
Cd128 O136 2.277 . S
O129 C126 1.160 . S
O129 Cd130 2.203 . S
Cd130 O129 2.203 . S
Cd130 O132 2.411 . S
Cd130 O133 2.333 . S
Cd130 O134 2.352 . S
Cd130 O138 2.277 . S
Cd130 O139 2.356 . S
C131 O136 1.209 . S
C131 O138 1.226 . S
O132 Cd128 2.273 . S
O132 Cd130 2.411 . S
O132 C135 1.320 . S
O133 Cd130 2.333 . S
O133 C135 1.214 . S
O134 Cd130 2.352 . S
O134 C137 1.258 . S
C135 O132 1.320 . S
C135 O133 1.214 . S
O136 Cd128 2.277 . S
O136 C131 1.209 . S
C137 O134 1.258 . S
C137 O139 1.282 . S
O138 Cd130 2.277 . S
O138 C131 1.226 . S
O139 Cd130 2.356 . S
O139 C137 1.282 . S
C140 O141 1.306 . S
C140 O143 1.160 . S
O141 C140 1.306 . S
O141 Cd142 2.228 . S
Cd142 O141 2.228 . S
Cd142 O146 2.273 . S
Cd142 O150 2.277 . S
O143 C140 1.160 . S
O143 Cd144 2.203 . S
Cd144 O143 2.203 . S
Cd144 O146 2.411 . S
Cd144 O147 2.333 . S
Cd144 O148 2.352 . S
Cd144 O152 2.277 . S
Cd144 O153 2.356 . S
C145 O150 1.209 . S
C145 O152 1.226 . S
O146 Cd142 2.273 . S
O146 Cd144 2.411 . S
O146 C149 1.320 . S
O147 Cd144 2.333 . S
O147 C149 1.214 . S
O148 Cd144 2.352 . S
O148 C151 1.258 . S
C149 O146 1.320 . S
C149 O147 1.214 . S
O150 Cd142 2.277 . S
O150 C145 1.209 . S
C151 O148 1.258 . S
C151 O153 1.282 . S
O152 Cd144 2.277 . S
O152 C145 1.226 . S
O153 Cd144 2.356 . S
O153 C151 1.282 . S
C154 O155 1.306 . S
C154 O157 1.160 . S
O155 C154 1.306 . S
O155 Cd156 2.228 . S
Cd156 O155 2.228 . S
Cd156 O160 2.273 . S
Cd156 O164 2.277 . S
O157 C154 1.160 . S
O157 Cd158 2.203 . S
Cd158 O157 2.203 . S
Cd158 O160 2.411 . S
Cd158 O161 2.333 . S
Cd158 O162 2.352 . S
Cd158 O166 2.277 . S
Cd158 O167 2.356 . S
C159 O164 1.209 . S
C159 O166 1.226 . S
O160 Cd156 2.273 . S
O160 Cd158 2.411 . S
O160 C163 1.320 . S
O161 Cd158 2.333 . S
O161 C163 1.214 . S
O162 Cd158 2.352 . S
O162 C165 1.258 . S
C163 O160 1.320 . S
C163 O161 1.214 . S
O164 Cd156 2.277 . S
O164 C159 1.209 . S
C165 O162 1.258 . S
C165 O167 1.282 . S
O166 Cd158 2.277 . S
O166 C159 1.226 . S
O167 Cd158 2.356 . S
O167 C165 1.282 . S
C168 O169 1.306 . S
C168 O171 1.160 . S
O169 C168 1.306 . S
O169 Cd170 2.228 . S
Cd170 O169 2.228 . S
Cd170 O174 2.273 . S
Cd170 O178 2.277 . S
O171 C168 1.160 . S
O171 Cd172 2.203 . S
Cd172 O171 2.203 . S
Cd172 O174 2.411 . S
Cd172 O175 2.333 . S
Cd172 O176 2.352 . S
Cd172 O180 2.277 . S
Cd172 O181 2.356 . S
C173 O178 1.209 . S
C173 O180 1.226 . S
O174 Cd170 2.273 . S
O174 Cd172 2.411 . S
O174 C177 1.320 . S
O175 Cd172 2.333 . S
O175 C177 1.214 . S
O176 Cd172 2.352 . S
O176 C179 1.258 . S
C177 O174 1.320 . S
C177 O175 1.214 . S
O178 Cd170 2.277 . S
O178 C173 1.209 . S
C179 O176 1.258 . S
C179 O181 1.282 . S
O180 Cd172 2.277 . S
O180 C173 1.226 . S
O181 Cd172 2.356 . S
O181 C179 1.282 . S
C182 O183 1.306 . S
C182 O185 1.160 . S
O183 C182 1.306 . S
O183 Cd184 2.228 . S
Cd184 O183 2.228 . S
Cd184 O188 2.273 . S
Cd184 O192 2.277 . S
O185 C182 1.160 . S
O185 Cd186 2.203 . S
Cd186 O185 2.203 . S
Cd186 O188 2.411 . S
Cd186 O189 2.333 . S
Cd186 O190 2.352 . S
Cd186 O194 2.277 . S
Cd186 O195 2.356 . S
C187 O192 1.209 . S
C187 O194 1.226 . S
O188 Cd184 2.273 . S
O188 Cd186 2.411 . S
O188 C191 1.320 . S
O189 Cd186 2.333 . S
O189 C191 1.214 . S
O190 Cd186 2.352 . S
O190 C193 1.258 . S
C191 O188 1.320 . S
C191 O189 1.214 . S
O192 Cd184 2.277 . S
O192 C187 1.209 . S
C193 O190 1.258 . S
C193 O195 1.282 . S
O194 Cd186 2.277 . S
O194 C187 1.226 . S
O195 Cd186 2.356 . S
O195 C193 1.282 . S
C196 O197 1.306 . S
C196 O199 1.160 . S
O197 C196 1.306 . S
O197 Cd198 2.228 . S
Cd198 O197 2.228 . S
Cd198 O202 2.273 . S
Cd198 O206 2.277 . S
O199 C196 1.160 . S
O199 Cd200 2.203 . S
Cd200 O199 2.203 . S
Cd200 O202 2.411 . S
Cd200 O203 2.333 . S
Cd200 O204 2.352 . S
Cd200 O208 2.277 . S
Cd200 O209 2.356 . S
C201 O206 1.209 . S
C201 O208 1.226 . S
O202 Cd198 2.273 . S
O202 Cd200 2.411 . S
O202 C205 1.320 . S
O203 Cd200 2.333 . S
O203 C205 1.214 . S
O204 Cd200 2.352 . S
O204 C207 1.258 . S
C205 O202 1.320 . S
C205 O203 1.214 . S
O206 Cd198 2.277 . S
O206 C201 1.209 . S
C207 O204 1.258 . S
C207 O209 1.282 . S
O208 Cd200 2.277 . S
O208 C201 1.226 . S
O209 Cd200 2.356 . S
O209 C207 1.282 . S
C210 O211 1.306 . S
C210 O213 1.160 . S
O211 C210 1.306 . S
O211 Cd212 2.228 . S
Cd212 O211 2.228 . S
Cd212 O216 2.273 . S
Cd212 O220 2.277 . S
O213 C210 1.160 . S
O213 Cd214 2.203 . S
Cd214 O213 2.203 . S
Cd214 O216 2.411 . S
Cd214 O217 2.333 . S
Cd214 O218 2.352 . S
Cd214 O222 2.277 . S
Cd214 O223 2.356 . S
C215 O220 1.209 . S
C215 O222 1.226 . S
O216 Cd212 2.273 . S
O216 Cd214 2.411 . S
O216 C219 1.320 . S
O217 Cd214 2.333 . S
O217 C219 1.214 . S
O218 Cd214 2.352 . S
O218 C221 1.258 . S
C219 O216 1.320 . S
C219 O217 1.214 . S
O220 Cd212 2.277 . S
O220 C215 1.209 . S
C221 O218 1.258 . S
C221 O223 1.282 . S
O222 Cd214 2.277 . S
O222 C215 1.226 . S
O223 Cd214 2.356 . S
O223 C221 1.282 . S
H224 C230 0.930 . S
H225 C234 0.930 . S
H226 C239 0.929 . S
H227 C237 0.929 . S
H228 C232 0.929 . S
H229 C238 0.929 . S
C230 H224 0.930 . S
C230 C231 1.367 . S
C230 C238 1.378 . S
C231 C230 1.367 . S
C231 C239 1.433 . S
C232 H228 0.929 . S
C232 C234 1.378 . S
C232 C236 1.350 . S
C233 C236 1.463 1_565 S
C233 C238 1.350 . S
C233 N241 1.427 . S
C234 H225 0.930 . S
C234 C232 1.378 . S
C234 C235 1.367 . S
C235 C234 1.367 . S
C235 C237 1.433 . S
C236 C232 1.350 . S
C236 C233 1.463 1_545 S
C236 N240 1.427 . S
C237 H227 0.929 . S
C237 C235 1.433 . S
C237 N240 1.384 . S
C238 H229 0.929 . S
C238 C230 1.378 . S
C238 C233 1.350 . S
C239 H226 0.929 . S
C239 C231 1.433 . S
C239 N241 1.384 . S
N240 C236 1.427 . S
N240 C237 1.384 . S
N241 C233 1.427 . S
N241 C239 1.384 . S
H242 C248 0.930 . S
H243 C252 0.930 . S
H244 C257 0.929 . S
H245 C255 0.929 . S
H246 C250 0.929 . S
H247 C256 0.929 . S
C248 H242 0.930 . S
C248 C249 1.367 . S
C248 C256 1.378 . S
C249 C248 1.367 . S
C249 C257 1.433 . S
C250 H246 0.929 . S
C250 C252 1.378 . S
C250 C254 1.350 . S
C251 C254 1.463 1_455 S
C251 C256 1.350 . S
C251 N259 1.427 . S
C252 H243 0.930 . S
C252 C250 1.378 . S
C252 C253 1.367 . S
C253 C252 1.367 . S
C253 C255 1.433 . S
C254 C250 1.350 . S
C254 C251 1.463 1_655 S
C254 N258 1.427 . S
C255 H245 0.929 . S
C255 C253 1.433 . S
C255 N258 1.384 . S
C256 H247 0.929 . S
C256 C248 1.378 . S
C256 C251 1.350 . S
C257 H244 0.929 . S
C257 C249 1.433 . S
C257 N259 1.384 . S
N258 C254 1.427 . S
N258 C255 1.384 . S
N259 C251 1.427 . S
N259 C257 1.384 . S
H260 C266 0.930 . S
H261 C270 0.930 . S
H262 C275 0.929 . S
H263 C273 0.929 . S
H264 C268 0.929 . S
H265 C274 0.929 . S
C266 H260 0.930 . S
C266 C267 1.367 . S
C266 C274 1.378 . S
C267 C266 1.367 . S
C267 C275 1.433 . S
C268 H264 0.929 . S
C268 C270 1.378 . S
C268 C272 1.350 . S
C269 C272 1.463 1_565 S
C269 C274 1.350 . S
C269 N277 1.427 . S
C270 H261 0.930 . S
C270 C268 1.378 . S
C270 C271 1.367 . S
C271 C270 1.367 . S
C271 C273 1.433 . S
C272 C268 1.350 . S
C272 C269 1.463 1_545 S
C272 N276 1.427 . S
C273 H263 0.929 . S
C273 C271 1.433 . S
C273 N276 1.384 . S
C274 H265 0.929 . S
C274 C266 1.378 . S
C274 C269 1.350 . S
C275 H262 0.929 . S
C275 C267 1.433 . S
C275 N277 1.384 . S
N276 C272 1.427 . S
N276 C273 1.384 . S
N277 C269 1.427 . S
N277 C275 1.384 . S
H278 C284 0.930 . S
H279 C288 0.930 . S
H280 C293 0.929 . S
H281 C291 0.929 . S
H282 C286 0.929 . S
H283 C292 0.929 . S
C284 H278 0.930 . S
C284 C285 1.367 . S
C284 C292 1.378 . S
C285 C284 1.367 . S
C285 C293 1.433 . S
C286 H282 0.929 . S
C286 C288 1.378 . S
C286 C290 1.350 . S
C287 C290 1.463 1_455 S
C287 C292 1.350 . S
C287 N295 1.427 . S
C288 H279 0.930 . S
C288 C286 1.378 . S
C288 C289 1.367 . S
C289 C288 1.367 . S
C289 C291 1.433 . S
C290 C286 1.350 . S
C290 C287 1.463 1_655 S
C290 N294 1.427 . S
C291 H281 0.929 . S
C291 C289 1.433 . S
C291 N294 1.384 . S
C292 H283 0.929 . S
C292 C284 1.378 . S
C292 C287 1.350 . S
C293 H280 0.929 . S
C293 C285 1.433 . S
C293 N295 1.384 . S
N294 C290 1.427 . S
N294 C291 1.384 . S
N295 C287 1.427 . S
N295 C293 1.384 . S
H296 C302 0.930 . S
H297 C306 0.930 . S
H298 C311 0.929 . S
H299 C309 0.929 . S
H300 C304 0.929 1_554 S
H301 C310 0.929 . S
C302 H296 0.930 . S
C302 C303 1.367 . S
C302 C310 1.378 . S
C303 C302 1.367 . S
C303 C311 1.433 1_556 S
C304 H300 0.929 1_556 S
C304 C306 1.378 . S
C304 C308 1.350 . S
C305 C308 1.463 . S
C305 C310 1.350 . S
C305 N313 1.427 1_556 S
C306 H297 0.930 . S
C306 C304 1.378 . S
C306 C307 1.367 . S
C307 C306 1.367 . S
C307 C309 1.433 . S
C308 C304 1.350 . S
C308 C305 1.463 . S
C308 N312 1.427 . S
C309 H299 0.929 . S
C309 C307 1.433 . S
C309 N312 1.384 . S
C310 H301 0.929 . S
C310 C302 1.378 . S
C310 C305 1.350 . S
C311 H298 0.929 . S
C311 C303 1.433 1_554 S
C311 N313 1.384 . S
N312 C308 1.427 . S
N312 C309 1.384 . S
N313 C305 1.427 1_554 S
N313 C311 1.384 . S
H314 C320 0.930 . S
H315 C324 0.930 1_556 S
H316 C329 0.929 . S
H317 C327 0.929 . S
H318 C322 0.929 1_556 S
H319 C328 0.929 . S
C320 H314 0.930 . S
C320 C321 1.367 . S
C320 C328 1.378 . S
C321 C320 1.367 . S
C321 C329 1.433 1_554 S
C322 H318 0.929 1_554 S
C322 C324 1.378 . S
C322 C326 1.350 . S
C323 C326 1.463 . S
C323 C328 1.350 . S
C323 N331 1.427 1_554 S
C324 H315 0.930 1_554 S
C324 C322 1.378 . S
C324 C325 1.367 . S
C325 C324 1.367 . S
C325 C327 1.433 . S
C326 C322 1.350 . S
C326 C323 1.463 . S
C326 N330 1.427 . S
C327 H317 0.929 . S
C327 C325 1.433 . S
C327 N330 1.384 . S
C328 H319 0.929 . S
C328 C320 1.378 . S
C328 C323 1.350 . S
C329 H316 0.929 . S
C329 C321 1.433 1_556 S
C329 N331 1.384 . S
N330 C326 1.427 . S
N330 C327 1.384 . S
N331 C323 1.427 1_556 S
N331 C329 1.384 . S
H332 C338 0.930 . S
H333 C342 0.930 . S
H334 C347 0.929 . S
H335 C345 0.929 . S
H336 C340 0.929 . S
H337 C346 0.929 1_554 S
C338 H332 0.930 . S
C338 C339 1.367 . S
C338 C346 1.378 . S
C339 C338 1.367 . S
C339 C347 1.433 . S
C340 H336 0.929 . S
C340 C342 1.378 . S
C340 C344 1.350 . S
C341 C344 1.463 . S
C341 C346 1.350 . S
C341 N349 1.427 . S
C342 H333 0.930 . S
C342 C340 1.378 . S
C342 C343 1.367 . S
C343 C342 1.367 . S
C343 C345 1.433 1_556 S
C344 C340 1.350 . S
C344 C341 1.463 . S
C344 N348 1.427 1_556 S
C345 H335 0.929 . S
C345 C343 1.433 1_554 S
C345 N348 1.384 . S
C346 H337 0.929 1_556 S
C346 C338 1.378 . S
C346 C341 1.350 . S
C347 H334 0.929 . S
C347 C339 1.433 . S
C347 N349 1.384 . S
N348 C344 1.427 1_554 S
N348 C345 1.384 . S
N349 C341 1.427 . S
N349 C347 1.384 . S
H350 C356 0.930 . S
H351 C360 0.930 . S
H352 C365 0.929 . S
H353 C363 0.929 . S
H354 C358 0.929 . S
H355 C364 0.929 . S
C356 H350 0.930 . S
C356 C357 1.367 . S
C356 C364 1.378 . S
C357 C356 1.367 . S
C357 C365 1.433 . S
C358 H354 0.929 . S
C358 C360 1.378 . S
C358 C362 1.350 . S
C359 C362 1.463 . S
C359 C364 1.350 . S
C359 N367 1.427 . S
C360 H351 0.930 . S
C360 C358 1.378 . S
C360 C361 1.367 . S
C361 C360 1.367 . S
C361 C363 1.433 1_554 S
C362 C358 1.350 . S
C362 C359 1.463 . S
C362 N366 1.427 . S
C363 H353 0.929 . S
C363 C361 1.433 1_556 S
C363 N366 1.384 1_556 S
C364 H355 0.929 . S
C364 C356 1.378 . S
C364 C359 1.350 . S
C365 H352 0.929 . S
C365 C357 1.433 . S
C365 N367 1.384 . S
N366 C362 1.427 . S
N366 C363 1.384 1_554 S
N367 C359 1.427 . S
N367 C365 1.384 . S
H368 C374 0.930 . S
H369 C378 0.930 . S
H370 C383 0.929 . S
H371 C381 0.929 . S
H372 C376 0.929 . S
H373 C382 0.929 . S
C374 H368 0.930 . S
C374 C375 1.367 . S
C374 C382 1.378 . S
C375 C374 1.367 . S
C375 C383 1.433 . S
C376 H372 0.929 . S
C376 C378 1.378 . S
C376 C380 1.350 . S
C377 C380 1.463 . S
C377 C382 1.350 . S
C377 N385 1.427 . S
C378 H369 0.930 . S
C378 C376 1.378 . S
C378 C379 1.367 . S
C379 C378 1.367 . S
C379 C381 1.433 . S
C380 C376 1.350 . S
C380 C377 1.463 . S
C380 N384 1.427 . S
C381 H371 0.929 . S
C381 C379 1.433 . S
C381 N384 1.384 . S
C382 H373 0.929 . S
C382 C374 1.378 . S
C382 C377 1.350 . S
C383 H370 0.929 . S
C383 C375 1.433 . S
C383 N385 1.384 . S
N384 C380 1.427 . S
N384 C381 1.384 . S
N385 C377 1.427 . S
N385 C383 1.384 . S
H386 C392 0.930 . S
H387 C396 0.930 . S
H388 C401 0.929 . S
H389 C399 0.929 . S
H390 C394 0.929 . S
H391 C400 0.929 . S
C392 H386 0.930 . S
C392 C393 1.367 . S
C392 C400 1.378 . S
C393 C392 1.367 . S
C393 C401 1.433 . S
C394 H390 0.929 . S
C394 C396 1.378 . S
C394 C398 1.350 . S
C395 C398 1.463 . S
C395 C400 1.350 . S
C395 N403 1.427 . S
C396 H387 0.930 . S
C396 C394 1.378 . S
C396 C397 1.367 . S
C397 C396 1.367 . S
C397 C399 1.433 . S
C398 C394 1.350 . S
C398 C395 1.463 . S
C398 N402 1.427 . S
C399 H389 0.929 . S
C399 C397 1.433 . S
C399 N402 1.384 . S
C400 H391 0.929 . S
C400 C392 1.378 . S
C400 C395 1.350 . S
C401 H388 0.929 . S
C401 C393 1.433 . S
C401 N403 1.384 . S
N402 C398 1.427 . S
N402 C399 1.384 . S
N403 C395 1.427 . S
N403 C401 1.384 . S
H404 C410 0.930 . S
H405 C414 0.930 . S
H406 C419 0.929 . S
H407 C417 0.929 . S
H408 C412 0.929 . S
H409 C418 0.929 . S
C410 H404 0.930 . S
C410 C411 1.367 . S
C410 C418 1.378 . S
C411 C410 1.367 . S
C411 C419 1.433 . S
C412 H408 0.929 . S
C412 C414 1.378 . S
C412 C416 1.350 . S
C413 C416 1.463 . S
C413 C418 1.350 . S
C413 N421 1.427 . S
C414 H405 0.930 . S
C414 C412 1.378 . S
C414 C415 1.367 . S
C415 C414 1.367 . S
C415 C417 1.433 . S
C416 C412 1.350 . S
C416 C413 1.463 . S
C416 N420 1.427 . S
C417 H407 0.929 . S
C417 C415 1.433 . S
C417 N420 1.384 . S
C418 H409 0.929 . S
C418 C410 1.378 . S
C418 C413 1.350 . S
C419 H406 0.929 . S
C419 C411 1.433 . S
C419 N421 1.384 . S
N420 C416 1.427 . S
N420 C417 1.384 . S
N421 C413 1.427 . S
N421 C419 1.384 . S
H422 C428 0.930 . S
H423 C432 0.930 . S
H424 C437 0.929 . S
H425 C435 0.929 . S
H426 C430 0.929 . S
H427 C436 0.929 . S
C428 H422 0.930 . S
C428 C429 1.367 . S
C428 C436 1.378 . S
C429 C428 1.367 . S
C429 C437 1.433 . S
C430 H426 0.929 . S
C430 C432 1.378 . S
C430 C434 1.350 . S
C431 C434 1.463 . S
C431 C436 1.350 . S
C431 N439 1.427 . S
C432 H423 0.930 . S
C432 C430 1.378 . S
C432 C433 1.367 . S
C433 C432 1.367 . S
C433 C435 1.433 . S
C434 C430 1.350 . S
C434 C431 1.463 . S
C434 N438 1.427 . S
C435 H425 0.929 . S
C435 C433 1.433 . S
C435 N438 1.384 . S
C436 H427 0.929 . S
C436 C428 1.378 . S
C436 C431 1.350 . S
C437 H424 0.929 . S
C437 C429 1.433 . S
C437 N439 1.384 . S
N438 C434 1.427 . S
N438 C435 1.384 . S
N439 C431 1.427 . S
N439 C437 1.384 . S
H440 C446 0.930 . S
H441 C450 0.930 . S
H442 C455 0.929 . S
H443 C453 0.929 . S
H444 C448 0.929 . S
H445 C454 0.929 . S
C446 H440 0.930 . S
C446 C447 1.367 . S
C446 C454 1.378 . S
C447 C446 1.367 . S
C447 C455 1.433 . S
C448 H444 0.929 . S
C448 C450 1.378 . S
C448 C452 1.350 . S
C449 C452 1.463 1_565 S
C449 C454 1.350 . S
C449 N457 1.427 . S
C450 H441 0.930 . S
C450 C448 1.378 . S
C450 C451 1.367 . S
C451 C450 1.367 . S
C451 C453 1.433 . S
C452 C448 1.350 . S
C452 C449 1.463 1_545 S
C452 N456 1.427 . S
C453 H443 0.929 . S
C453 C451 1.433 . S
C453 N456 1.384 . S
C454 H445 0.929 . S
C454 C446 1.378 . S
C454 C449 1.350 . S
C455 H442 0.929 . S
C455 C447 1.433 . S
C455 N457 1.384 . S
N456 C452 1.427 . S
N456 C453 1.384 . S
N457 C449 1.427 . S
N457 C455 1.384 . S
H458 C464 0.930 . S
H459 C468 0.930 . S
H460 C473 0.929 . S
H461 C471 0.929 . S
H462 C466 0.929 . S
H463 C472 0.929 . S
C464 H458 0.930 . S
C464 C465 1.367 . S
C464 C472 1.378 . S
C465 C464 1.367 . S
C465 C473 1.433 . S
C466 H462 0.929 . S
C466 C468 1.378 . S
C466 C470 1.350 . S
C467 C470 1.463 1_655 S
C467 C472 1.350 . S
C467 N475 1.427 . S
C468 H459 0.930 . S
C468 C466 1.378 . S
C468 C469 1.367 . S
C469 C468 1.367 . S
C469 C471 1.433 . S
C470 C466 1.350 . S
C470 C467 1.463 1_455 S
C470 N474 1.427 . S
C471 H461 0.929 . S
C471 C469 1.433 . S
C471 N474 1.384 . S
C472 H463 0.929 . S
C472 C464 1.378 . S
C472 C467 1.350 . S
C473 H460 0.929 . S
C473 C465 1.433 . S
C473 N475 1.384 . S
N474 C470 1.427 . S
N474 C471 1.384 . S
N475 C467 1.427 . S
N475 C473 1.384 . S
H476 C482 0.930 . S
H477 C486 0.930 . S
H478 C491 0.929 . S
H479 C489 0.929 . S
H480 C484 0.929 . S
H481 C490 0.929 . S
C482 H476 0.930 . S
C482 C483 1.367 . S
C482 C490 1.378 . S
C483 C482 1.367 . S
C483 C491 1.433 . S
C484 H480 0.929 . S
C484 C486 1.378 . S
C484 C488 1.350 . S
C485 C488 1.463 1_565 S
C485 C490 1.350 . S
C485 N493 1.427 . S
C486 H477 0.930 . S
C486 C484 1.378 . S
C486 C487 1.367 . S
C487 C486 1.367 . S
C487 C489 1.433 . S
C488 C484 1.350 . S
C488 C485 1.463 1_545 S
C488 N492 1.427 . S
C489 H479 0.929 . S
C489 C487 1.433 . S
C489 N492 1.384 . S
C490 H481 0.929 . S
C490 C482 1.378 . S
C490 C485 1.350 . S
C491 H478 0.929 . S
C491 C483 1.433 . S
C491 N493 1.384 . S
N492 C488 1.427 . S
N492 C489 1.384 . S
N493 C485 1.427 . S
N493 C491 1.384 . S
H494 C500 0.930 . S
H495 C504 0.930 . S
H496 C509 0.929 . S
H497 C507 0.929 . S
H498 C502 0.929 . S
H499 C508 0.929 . S
C500 H494 0.930 . S
C500 C501 1.367 . S
C500 C508 1.378 . S
C501 C500 1.367 . S
C501 C509 1.433 . S
C502 H498 0.929 . S
C502 C504 1.378 . S
C502 C506 1.350 . S
C503 C506 1.463 1_655 S
C503 C508 1.350 . S
C503 N511 1.427 . S
C504 H495 0.930 . S
C504 C502 1.378 . S
C504 C505 1.367 . S
C505 C504 1.367 . S
C505 C507 1.433 . S
C506 C502 1.350 . S
C506 C503 1.463 1_455 S
C506 N510 1.427 . S
C507 H497 0.929 . S
C507 C505 1.433 . S
C507 N510 1.384 . S
C508 H499 0.929 . S
C508 C500 1.378 . S
C508 C503 1.350 . S
C509 H496 0.929 . S
C509 C501 1.433 . S
C509 N511 1.384 . S
N510 C506 1.427 . S
N510 C507 1.384 . S
N511 C503 1.427 . S
N511 C509 1.384 . S
H512 C518 0.930 . S
H513 C522 0.930 . S
H514 C527 0.929 . S
H515 C525 0.929 . S
H516 C520 0.929 . S
H517 C526 0.929 . S
C518 H512 0.930 . S
C518 C519 1.367 . S
C518 C526 1.378 . S
C519 C518 1.367 . S
C519 C527 1.433 . S
C520 H516 0.929 . S
C520 C522 1.378 . S
C520 C524 1.350 . S
C521 C524 1.463 . S
C521 C526 1.350 . S
C521 N529 1.427 . S
C522 H513 0.930 . S
C522 C520 1.378 . S
C522 C523 1.367 . S
C523 C522 1.367 . S
C523 C525 1.433 . S
C524 C520 1.350 . S
C524 C521 1.463 . S
C524 N528 1.427 . S
C525 H515 0.929 . S
C525 C523 1.433 . S
C525 N528 1.384 . S
C526 H517 0.929 . S
C526 C518 1.378 . S
C526 C521 1.350 . S
C527 H514 0.929 . S
C527 C519 1.433 . S
C527 N529 1.384 . S
N528 C524 1.427 . S
N528 C525 1.384 . S
N529 C521 1.427 . S
N529 C527 1.384 . S
H530 C536 0.930 . S
H531 C540 0.930 . S
H532 C545 0.929 . S
H533 C543 0.929 . S
H534 C538 0.929 . S
H535 C544 0.929 . S
C536 H530 0.930 . S
C536 C537 1.367 . S
C536 C544 1.378 . S
C537 C536 1.367 . S
C537 C545 1.433 . S
C538 H534 0.929 . S
C538 C540 1.378 . S
C538 C542 1.350 . S
C539 C542 1.463 . S
C539 C544 1.350 . S
C539 N547 1.427 . S
C540 H531 0.930 . S
C540 C538 1.378 . S
C540 C541 1.367 . S
C541 C540 1.367 . S
C541 C543 1.433 . S
C542 C538 1.350 . S
C542 C539 1.463 . S
C542 N546 1.427 . S
C543 H533 0.929 . S
C543 C541 1.433 . S
C543 N546 1.384 . S
C544 H535 0.929 . S
C544 C536 1.378 . S
C544 C539 1.350 . S
C545 H532 0.929 . S
C545 C537 1.433 . S
C545 N547 1.384 . S
N546 C542 1.427 . S
N546 C543 1.384 . S
N547 C539 1.427 . S
N547 C545 1.384 . S
H548 C554 0.930 . S
H549 C558 0.930 . S
H550 C563 0.929 . S
H551 C561 0.929 1_556 S
H552 C556 0.929 . S
H553 C562 0.929 . S
C554 H548 0.930 . S
C554 C555 1.367 . S
C554 C562 1.378 . S
C555 C554 1.367 . S
C555 C563 1.433 . S
C556 H552 0.929 . S
C556 C558 1.378 . S
C556 C560 1.350 . S
C557 C560 1.463 . S
C557 C562 1.350 . S
C557 N565 1.427 . S
C558 H549 0.930 . S
C558 C556 1.378 . S
C558 C559 1.367 . S
C559 C558 1.367 . S
C559 C561 1.433 . S
C560 C556 1.350 . S
C560 C557 1.463 . S
C560 N564 1.427 . S
C561 H551 0.929 1_554 S
C561 C559 1.433 . S
C561 N564 1.384 . S
C562 H553 0.929 . S
C562 C554 1.378 . S
C562 C557 1.350 . S
C563 H550 0.929 . S
C563 C555 1.433 . S
C563 N565 1.384 . S
N564 C560 1.427 . S
N564 C561 1.384 . S
N565 C557 1.427 . S
N565 C563 1.384 . S
H566 C572 0.930 . S
H567 C576 0.930 . S
H568 C581 0.929 . S
H569 C579 0.929 . S
H570 C574 0.929 . S
H571 C580 0.929 . S
C572 H566 0.930 . S
C572 C573 1.367 . S
C572 C580 1.378 . S
C573 C572 1.367 . S
C573 C581 1.433 . S
C574 H570 0.929 . S
C574 C576 1.378 . S
C574 C578 1.350 . S
C575 C578 1.463 . S
C575 C580 1.350 . S
C575 N583 1.427 . S
C576 H567 0.930 . S
C576 C574 1.378 . S
C576 C577 1.367 . S
C577 C576 1.367 . S
C577 C579 1.433 . S
C578 C574 1.350 . S
C578 C575 1.463 . S
C578 N582 1.427 . S
C579 H569 0.929 . S
C579 C577 1.433 . S
C579 N582 1.384 . S
C580 H571 0.929 . S
C580 C572 1.378 . S
C580 C575 1.350 . S
C581 H568 0.929 . S
C581 C573 1.433 . S
C581 N583 1.384 . S
N582 C578 1.427 . S
N582 C579 1.384 . S
N583 C575 1.427 . S
N583 C581 1.384 . S
H584 C590 0.930 . S
H585 C594 0.930 . S
H586 C599 0.929 . S
H587 C597 0.929 . S
H588 C592 0.929 . S
H589 C598 0.929 . S
C590 H584 0.930 . S
C590 C591 1.367 . S
C590 C598 1.378 . S
C591 C590 1.367 . S
C591 C599 1.433 . S
C592 H588 0.929 . S
C592 C594 1.378 . S
C592 C596 1.350 . S
C593 C596 1.463 . S
C593 C598 1.350 . S
C593 N601 1.427 . S
C594 H585 0.930 . S
C594 C592 1.378 . S
C594 C595 1.367 . S
C595 C594 1.367 . S
C595 C597 1.433 . S
C596 C592 1.350 . S
C596 C593 1.463 . S
C596 N600 1.427 . S
C597 H587 0.929 . S
C597 C595 1.433 . S
C597 N600 1.384 . S
C598 H589 0.929 . S
C598 C590 1.378 . S
C598 C593 1.350 . S
C599 H586 0.929 . S
C599 C591 1.433 . S
C599 N601 1.384 . S
N600 C596 1.427 . S
N600 C597 1.384 . S
N601 C593 1.427 . S
N601 C599 1.384 . S
H602 C608 0.930 . S
H603 C612 0.930 . S
H604 C617 0.929 . S
H605 C615 0.929 . S
H606 C610 0.929 . S
H607 C616 0.929 . S
C608 H602 0.930 . S
C608 C609 1.367 . S
C608 C616 1.378 . S
C609 C608 1.367 . S
C609 C617 1.433 . S
C610 H606 0.929 . S
C610 C612 1.378 . S
C610 C614 1.350 . S
C611 C614 1.463 . S
C611 C616 1.350 . S
C611 N619 1.427 . S
C612 H603 0.930 . S
C612 C610 1.378 . S
C612 C613 1.367 . S
C613 C612 1.367 . S
C613 C615 1.433 . S
C614 C610 1.350 . S
C614 C611 1.463 . S
C614 N618 1.427 . S
C615 H605 0.929 . S
C615 C613 1.433 . S
C615 N618 1.384 . S
C616 H607 0.929 . S
C616 C608 1.378 . S
C616 C611 1.350 . S
C617 H604 0.929 . S
C617 C609 1.433 . S
C617 N619 1.384 . S
N618 C614 1.427 . S
N618 C615 1.384 . S
N619 C611 1.427 . S
N619 C617 1.384 . S
H620 C626 0.930 . S
H621 C630 0.930 . S
H622 C635 0.929 . S
H623 C633 0.929 . S
H624 C628 0.929 . S
H625 C634 0.929 . S
C626 H620 0.930 . S
C626 C627 1.367 . S
C626 C634 1.378 . S
C627 C626 1.367 . S
C627 C635 1.433 . S
C628 H624 0.929 . S
C628 C630 1.378 . S
C628 C632 1.350 . S
C629 C632 1.463 . S
C629 C634 1.350 . S
C629 N637 1.427 . S
C630 H621 0.930 . S
C630 C628 1.378 . S
C630 C631 1.367 . S
C631 C630 1.367 . S
C631 C633 1.433 . S
C632 C628 1.350 . S
C632 C629 1.463 . S
C632 N636 1.427 . S
C633 H623 0.929 . S
C633 C631 1.433 . S
C633 N636 1.384 . S
C634 H625 0.929 . S
C634 C626 1.378 . S
C634 C629 1.350 . S
C635 H622 0.929 . S
C635 C627 1.433 . S
C635 N637 1.384 . S
N636 C632 1.427 . S
N636 C633 1.384 . S
N637 C629 1.427 . S
N637 C635 1.384 . S
H638 C644 0.930 . S
H639 C648 0.930 . S
H640 C653 0.929 . S
H641 C651 0.929 . S
H642 C646 0.929 . S
H643 C652 0.929 . S
C644 H638 0.930 . S
C644 C645 1.367 . S
C644 C652 1.378 . S
C645 C644 1.367 . S
C645 C653 1.433 . S
C646 H642 0.929 . S
C646 C648 1.378 . S
C646 C650 1.350 . S
C647 C650 1.463 . S
C647 C652 1.350 . S
C647 N655 1.427 . S
C648 H639 0.930 . S
C648 C646 1.378 . S
C648 C649 1.367 . S
C649 C648 1.367 . S
C649 C651 1.433 . S
C650 C646 1.350 . S
C650 C647 1.463 . S
C650 N654 1.427 . S
C651 H641 0.929 . S
C651 C649 1.433 . S
C651 N654 1.384 . S
C652 H643 0.929 . S
C652 C644 1.378 . S
C652 C647 1.350 . S
C653 H640 0.929 . S
C653 C645 1.433 . S
C653 N655 1.384 . S
N654 C650 1.427 . S
N654 C651 1.384 . S
N655 C647 1.427 . S
N655 C653 1.384 . S
H656 C662 0.930 . S
H657 C666 0.930 . S
H658 C671 0.929 . S
H659 C669 0.929 . S
H660 C664 0.929 . S
H661 C670 0.929 . S
C662 H656 0.930 . S
C662 C663 1.367 . S
C662 C670 1.378 . S
C663 C662 1.367 . S
C663 C671 1.433 . S
C664 H660 0.929 . S
C664 C666 1.378 . S
C664 C668 1.350 . S
C665 C668 1.463 . S
C665 C670 1.350 . S
C665 N673 1.427 . S
C666 H657 0.930 . S
C666 C664 1.378 . S
C666 C667 1.367 . S
C667 C666 1.367 . S
C667 C669 1.433 . S
C668 C664 1.350 . S
C668 C665 1.463 . S
C668 N672 1.427 . S
C669 H659 0.929 . S
C669 C667 1.433 . S
C669 N672 1.384 . S
C670 H661 0.929 . S
C670 C662 1.378 . S
C670 C665 1.350 . S
C671 H658 0.929 . S
C671 C663 1.433 . S
C671 N673 1.384 . S
N672 C668 1.427 . S
N672 C669 1.384 . S
N673 C665 1.427 . S
N673 C671 1.384 . S
H674 C680 0.930 . S
H675 C684 0.930 . S
H676 C689 0.929 . S
H677 C687 0.929 . S
H678 C682 0.929 . S
H679 C688 0.929 . S
C680 H674 0.930 . S
C680 C681 1.367 . S
C680 C688 1.378 . S
C681 C680 1.367 . S
C681 C689 1.433 . S
C682 H678 0.929 . S
C682 C684 1.378 1_554 S
C682 C686 1.350 . S
C683 C686 1.463 . S
C683 C688 1.350 . S
C683 N691 1.427 . S
C684 H675 0.930 . S
C684 C682 1.378 1_556 S
C684 C685 1.367 1_556 S
C685 C684 1.367 1_554 S
C685 C687 1.433 . S
C686 C682 1.350 . S
C686 C683 1.463 . S
C686 N690 1.427 . S
C687 H677 0.929 . S
C687 C685 1.433 . S
C687 N690 1.384 . S
C688 H679 0.929 . S
C688 C680 1.378 . S
C688 C683 1.350 . S
C689 H676 0.929 . S
C689 C681 1.433 . S
C689 N691 1.384 . S
N690 C686 1.427 . S
N690 C687 1.384 . S
N691 C683 1.427 . S
N691 C689 1.384 . S
H692 C698 0.930 . S
H693 C702 0.930 . S
H694 C707 0.929 . S
H695 C705 0.929 . S
H696 C700 0.929 . S
H697 C706 0.929 . S
C698 H692 0.930 . S
C698 C699 1.367 . S
C698 C706 1.378 . S
C699 C698 1.367 . S
C699 C707 1.433 1_556 S
C700 H696 0.929 . S
C700 C702 1.378 . S
C700 C704 1.350 . S
C701 C704 1.463 . S
C701 C706 1.350 . S
C701 N709 1.427 . S
C702 H693 0.930 . S
C702 C700 1.378 . S
C702 C703 1.367 . S
C703 C702 1.367 . S
C703 C705 1.433 . S
C704 C700 1.350 . S
C704 C701 1.463 . S
C704 N708 1.427 . S
C705 H695 0.929 . S
C705 C703 1.433 . S
C705 N708 1.384 . S
C706 H697 0.929 . S
C706 C698 1.378 . S
C706 C701 1.350 . S
C707 H694 0.929 . S
C707 C699 1.433 1_554 S
C707 N709 1.384 1_554 S
N708 C704 1.427 . S
N708 C705 1.384 . S
N709 C701 1.427 . S
N709 C707 1.384 1_556 S
H710 C716 0.930 . S
H711 C720 0.930 . S
H712 C725 0.929 . S
H713 C723 0.929 . S
H714 C718 0.929 . S
H715 C724 0.929 . S
C716 H710 0.930 . S
C716 C717 1.367 . S
C716 C724 1.378 . S
C717 C716 1.367 . S
C717 C725 1.433 . S
C718 H714 0.929 . S
C718 C720 1.378 . S
C718 C722 1.350 . S
C719 C722 1.463 . S
C719 C724 1.350 . S
C719 N727 1.427 . S
C720 H711 0.930 . S
C720 C718 1.378 . S
C720 C721 1.367 . S
C721 C720 1.367 . S
C721 C723 1.433 1_554 S
C722 C718 1.350 . S
C722 C719 1.463 . S
C722 N726 1.427 . S
C723 H713 0.929 . S
C723 C721 1.433 1_556 S
C723 N726 1.384 1_556 S
C724 H715 0.929 . S
C724 C716 1.378 . S
C724 C719 1.350 . S
C725 H712 0.929 . S
C725 C717 1.433 . S
C725 N727 1.384 . S
N726 C722 1.427 . S
N726 C723 1.384 1_554 S
N727 C719 1.427 . S
N727 C725 1.384 . S
H728 C734 0.930 . S
H729 C738 0.930 . S
H730 C743 0.929 . S
H731 C741 0.929 . S
H732 C736 0.929 . S
H733 C742 0.929 . S
C734 H728 0.930 . S
C734 C735 1.367 . S
C734 C742 1.378 . S
C735 C734 1.367 . S
C735 C743 1.433 . S
C736 H732 0.929 . S
C736 C738 1.378 . S
C736 C740 1.350 . S
C737 C740 1.463 . S
C737 C742 1.350 . S
C737 N745 1.427 . S
C738 H729 0.930 . S
C738 C736 1.378 . S
C738 C739 1.367 . S
C739 C738 1.367 . S
C739 C741 1.433 . S
C740 C736 1.350 . S
C740 C737 1.463 . S
C740 N744 1.427 . S
C741 H731 0.929 . S
C741 C739 1.433 . S
C741 N744 1.384 . S
C742 H733 0.929 . S
C742 C734 1.378 . S
C742 C737 1.350 . S
C743 H730 0.929 . S
C743 C735 1.433 . S
C743 N745 1.384 . S
N744 C740 1.427 . S
N744 C741 1.384 . S
N745 C737 1.427 . S
N745 C743 1.384 . S
H746 C752 0.930 . S
H747 C756 0.930 . S
H748 C761 0.929 . S
H749 C759 0.929 . S
H750 C754 0.929 . S
H751 C760 0.929 . S
C752 H746 0.930 . S
C752 C753 1.367 . S
C752 C760 1.378 . S
C753 C752 1.367 . S
C753 C761 1.433 . S
C754 H750 0.929 . S
C754 C756 1.378 . S
C754 C758 1.350 . S
C755 C758 1.463 . S
C755 C760 1.350 . S
C755 N763 1.427 . S
C756 H747 0.930 . S
C756 C754 1.378 . S
C756 C757 1.367 . S
C757 C756 1.367 . S
C757 C759 1.433 . S
C758 C754 1.350 . S
C758 C755 1.463 . S
C758 N762 1.427 . S
C759 H749 0.929 . S
C759 C757 1.433 . S
C759 N762 1.384 . S
C760 H751 0.929 . S
C760 C752 1.378 . S
C760 C755 1.350 . S
C761 H748 0.929 . S
C761 C753 1.433 . S
C761 N763 1.384 . S
N762 C758 1.427 . S
N762 C759 1.384 . S
N763 C755 1.427 . S
N763 C761 1.384 . S
H764 C770 0.930 . S
H765 C774 0.930 . S
H766 C779 0.929 . S
H767 C777 0.929 . S
H768 C772 0.929 . S
H769 C778 0.929 . S
C770 H764 0.930 . S
C770 C771 1.367 . S
C770 C778 1.378 . S
C771 C770 1.367 . S
C771 C779 1.433 . S
C772 H768 0.929 . S
C772 C774 1.378 . S
C772 C776 1.350 . S
C773 C776 1.463 . S
C773 C778 1.350 . S
C773 N781 1.427 . S
C774 H765 0.930 . S
C774 C772 1.378 . S
C774 C775 1.367 . S
C775 C774 1.367 . S
C775 C777 1.433 . S
C776 C772 1.350 . S
C776 C773 1.463 . S
C776 N780 1.427 . S
C777 H767 0.929 . S
C777 C775 1.433 . S
C777 N780 1.384 . S
C778 H769 0.929 . S
C778 C770 1.378 . S
C778 C773 1.350 . S
C779 H766 0.929 . S
C779 C771 1.433 . S
C779 N781 1.384 . S
N780 C776 1.427 . S
N780 C777 1.384 . S
N781 C773 1.427 . S
N781 C779 1.384 . S
H782 C788 0.930 . S
H783 C792 0.930 . S
H784 C797 0.929 . S
H785 C795 0.929 . S
H786 C790 0.929 . S
H787 C796 0.929 . S
C788 H782 0.930 . S
C788 C789 1.367 . S
C788 C796 1.378 . S
C789 C788 1.367 . S
C789 C797 1.433 . S
C790 H786 0.929 . S
C790 C792 1.378 . S
C790 C794 1.350 . S
C791 C794 1.463 . S
C791 C796 1.350 . S
C791 N799 1.427 . S
C792 H783 0.930 . S
C792 C790 1.378 . S
C792 C793 1.367 . S
C793 C792 1.367 . S
C793 C795 1.433 . S
C794 C790 1.350 . S
C794 C791 1.463 . S
C794 N798 1.427 . S
C795 H785 0.929 . S
C795 C793 1.433 . S
C795 N798 1.384 . S
C796 H787 0.929 . S
C796 C788 1.378 . S
C796 C791 1.350 . S
C797 H784 0.929 . S
C797 C789 1.433 . S
C797 N799 1.384 . S
N798 C794 1.427 . S
N798 C795 1.384 . S
N799 C791 1.427 . S
N799 C797 1.384 . S
C231 C159 1.285 . S
C235 C0 1.270 . S
C249 C14 1.278 . S
C253 C117 1.287 . S
C267 C28 1.267 . S
C271 C131 1.292 . S
C285 C145 1.291 . S
C289 C42 1.280 . S
C303 C56 1.280 1_556 S
C307 C75 1.289 . S
C321 C70 1.278 1_554 S
C325 C89 1.288 . S
C339 C103 1.289 . S
C343 C84 1.280 1_556 S
C357 C61 1.292 . S
C361 C98 1.280 1_554 S
C375 C47 1.285 . S
C379 C112 1.274 . S
C393 C126 1.266 . S
C397 C5 1.291 . S
C411 C19 1.287 . S
C415 C140 1.278 . S
C429 C154 1.271 . S
C433 C33 1.294 . S
C447 C168 1.279 . S
C451 C187 1.288 . S
C465 C182 1.267 . S
C469 C201 1.292 . S
C483 C215 1.285 . S
C487 C196 1.273 . S
C501 C173 1.292 . S
C505 C210 1.280 . S
C519 C65 1.194 . S
C523 C9 1.190 . S
C537 C23 1.189 . S
C541 C79 1.193 . S
C555 C37 1.178 . S
C559 C93 1.175 . S
C573 C107 1.187 . S
C577 C51 1.182 . S
C591 C121 1.191 . S
C595 C177 1.195 . S
C609 C191 1.185 . S
C613 C135 1.190 . S
C627 C149 1.200 . S
C631 C205 1.199 . S
C645 C219 1.175 . S
C649 C163 1.175 . S
C663 C207 1.382 . S
C667 C11 1.378 1_556 S
C681 C221 1.376 . S
C685 C25 1.374 1_554 S
C699 C39 1.382 1_556 S
C703 C179 1.383 . S
C717 C193 1.381 . S
C721 C53 1.383 1_554 S
C735 C151 1.376 . S
C739 C67 1.374 . S
C753 C165 1.382 . S
C757 C81 1.378 . S
C771 C95 1.382 . S
C775 C123 1.382 . S
C789 C137 1.380 . S
C793 C109 1.376 . S
