# Generated by pormake.
# Topology lhb, (8)-cn, num edge types: 1
# Building blocks:
#     Node 0, Type 0, BuildingBlock: EBIMEJ_clean_sbu_0, # of connection points: 8
#     Node 1, Type 0, BuildingBlock: EBIMEJ_clean_sbu_0, # of connection points: 8
#     Node 2, Type 0, BuildingBlock: EBIMEJ_clean_sbu_0, # of connection points: 8
#     Node 3, Type 0, BuildingBlock: EBIMEJ_clean_sbu_0, # of connection points: 8
#     Node 4, Type 0, BuildingBlock: EBIMEJ_clean_sbu_0, # of connection points: 8
#     Node 5, Type 0, BuildingBlock: EBIMEJ_clean_sbu_0, # of connection points: 8
#     Node 6, Type 0, BuildingBlock: EBIMEJ_clean_sbu_0, # of connection points: 8
#     Node 7, Type 0, BuildingBlock: EBIMEJ_clean_sbu_0, # of connection points: 8
#     Edge 8, Type (0, 0), BuildingBlock: OJICUG_clean_linker_0, # of connection points: 2
#     Edge 9, Type (0, 0), BuildingBlock: OJICUG_clean_linker_0, # of connection points: 2
#     Edge 10, Type (0, 0), BuildingBlock: OJICUG_clean_linker_0, # of connection points: 2
#     Edge 11, Type (0, 0), BuildingBlock: OJICUG_clean_linker_0, # of connection points: 2
#     Edge 12, Type (0, 0), BuildingBlock: OJICUG_clean_linker_0, # of connection points: 2
#     Edge 13, Type (0, 0), BuildingBlock: OJICUG_clean_linker_0, # of connection points: 2
#     Edge 14, Type (0, 0), BuildingBlock: OJICUG_clean_linker_0, # of connection points: 2
#     Edge 15, Type (0, 0), BuildingBlock: OJICUG_clean_linker_0, # of connection points: 2
#     Edge 16, Type (0, 0), BuildingBlock: OJICUG_clean_linker_0, # of connection points: 2
#     Edge 17, Type (0, 0), BuildingBlock: OJICUG_clean_linker_0, # of connection points: 2
#     Edge 18, Type (0, 0), BuildingBlock: OJICUG_clean_linker_0, # of connection points: 2
#     Edge 19, Type (0, 0), BuildingBlock: OJICUG_clean_linker_0, # of connection points: 2
#     Edge 20, Type (0, 0), BuildingBlock: OJICUG_clean_linker_0, # of connection points: 2
#     Edge 21, Type (0, 0), BuildingBlock: OJICUG_clean_linker_0, # of connection points: 2
#     Edge 22, Type (0, 0), BuildingBlock: OJICUG_clean_linker_0, # of connection points: 2
#     Edge 23, Type (0, 0), BuildingBlock: OJICUG_clean_linker_0, # of connection points: 2
#     Edge 24, Type (0, 0), BuildingBlock: OJICUG_clean_linker_0, # of connection points: 2
#     Edge 25, Type (0, 0), BuildingBlock: OJICUG_clean_linker_0, # of connection points: 2
#     Edge 26, Type (0, 0), BuildingBlock: OJICUG_clean_linker_0, # of connection points: 2
#     Edge 27, Type (0, 0), BuildingBlock: OJICUG_clean_linker_0, # of connection points: 2
#     Edge 28, Type (0, 0), BuildingBlock: OJICUG_clean_linker_0, # of connection points: 2
#     Edge 29, Type (0, 0), BuildingBlock: OJICUG_clean_linker_0, # of connection points: 2
#     Edge 30, Type (0, 0), BuildingBlock: OJICUG_clean_linker_0, # of connection points: 2
#     Edge 31, Type (0, 0), BuildingBlock: OJICUG_clean_linker_0, # of connection points: 2
#     Edge 32, Type (0, 0), BuildingBlock: OJICUG_clean_linker_0, # of connection points: 2
#     Edge 33, Type (0, 0), BuildingBlock: OJICUG_clean_linker_0, # of connection points: 2
#     Edge 34, Type (0, 0), BuildingBlock: OJICUG_clean_linker_0, # of connection points: 2
#     Edge 35, Type (0, 0), BuildingBlock: OJICUG_clean_linker_0, # of connection points: 2
#     Edge 36, Type (0, 0), BuildingBlock: OJICUG_clean_linker_0, # of connection points: 2
#     Edge 37, Type (0, 0), BuildingBlock: OJICUG_clean_linker_0, # of connection points: 2
#     Edge 38, Type (0, 0), BuildingBlock: OJICUG_clean_linker_0, # of connection points: 2
#     Edge 39, Type (0, 0), BuildingBlock: OJICUG_clean_linker_0, # of connection points: 2
# Relax obj value: 0.066
# Max RMSD: 0.169
# Mean RMSD: 0.169
data_MOF--net-lhb--node1-EBIMEJ_clean_sbu_0--edge1-OJICUG_clean_linker_0
_symmetry_space_group_name_H-M    P1
_symmetry_Int_Tables_number       1
_symmetry_cell_setting            triclinic
loop_
_symmetry_equiv_pos_as_xyz
'x, y, z'
_cell_length_a     24.327925
_cell_length_b     11.829158
_cell_length_c     52.536923
_cell_angle_alpha  82.151057
_cell_angle_beta   90.06244
_cell_angle_gamma 90.028897
loop_
_atom_site_label
_atom_site_type_symbol
_atom_site_fract_x
_atom_site_fract_y
_atom_site_fract_z
_atom_type_partial_charge
Co0 Co 0.96712 0.90782 0.98111 0.0
Co1 Co 0.07177 0.00863 1.01159 0.0
Co2 Co 0.97166 0.91841 0.04096 0.0
H3 H 0.97778 0.94212 1.01098 0.0
O4 O 0.99183 0.0077 1.00574 0.0
H5 H 0.06207 0.00391 0.04205 0.0
O6 O 0.05043 0.93686 0.04798 0.0
Co7 Co 0.06482 0.05315 0.07125 0.0
O8 O 0.13992 0.10455 0.0561 0.0
O9 O 0.15072 0.02279 1.02013 0.0
O10 O 0.01238 0.96673 0.09794 0.0
O11 O 0.9571 0.85692 0.07719 0.0
O12 O 0.95136 0.90707 0.94276 0.0
O13 O 0.90736 0.01512 0.96317 0.0
O14 O 0.01736 0.16813 0.05023 0.0
O15 O 0.06322 0.17591 1.01355 0.0
C16 C 0.87318 0.83398 1.01626 0.0
C17 C 0.07875 0.96463 0.95801 0.0
C18 C 0.09763 0.1109 0.11325 0.0
C19 C 1.00478 0.70993 1.0157 0.0
C20 C 0.16921 0.08084 0.03722 0.0
C21 C 0.9744 0.89154 0.09776 0.0
C22 C 0.91439 -0.01868 0.94175 0.0
C23 C 0.03424 0.22346 0.02934 0.0
O24 O 0.89941 0.82336 0.99574 0.0
O25 O 0.89241 0.89153 0.03322 0.0
O26 O 0.08986 0.03808 0.97336 0.0
O27 O 0.0381 0.89621 0.96177 0.0
O28 O 0.08136 0.17974 0.09442 0.0
O29 O 0.09545 0.0103 0.10809 0.0
O30 O 1.00406 0.76038 0.99283 0.0
O31 O 0.99009 0.75872 0.03488 0.0
Co32 Co 0.20951 0.30655 0.32107 0.0
Co33 Co 0.30248 0.16915 0.29149 0.0
Co34 Co 0.20294 0.25922 0.26156 0.0
H35 H 0.21227 0.2555 0.29206 0.0
O36 O 0.22365 0.18848 0.29817 0.0
H37 H 0.29693 0.19234 0.26148 0.0
O38 O 0.283 0.25787 0.25609 0.0
Co39 Co 0.30816 0.15749 0.23172 0.0
O40 O 0.37565 0.07347 0.24665 0.0
O41 O 0.38193 0.14132 0.2842 0.0
O42 O 0.23746 0.14511 0.21223 0.0
O43 O 0.18543 0.28749 0.22322 0.0
O44 O 0.22333 0.36504 0.35637 0.0
O45 O 0.14438 0.3553 0.34253 0.0
O46 O 0.27079 0.01055 0.24339 0.0
O47 O 0.28399 0.00915 0.28549 0.0
C48 C 0.10501 0.33182 0.28668 0.0
C49 C 0.29867 0.14369 0.34826 0.0
C50 C 0.36141 0.22829 0.19241 0.0
C51 C 0.24138 0.47337 0.27909 0.0
C52 C 0.4015 0.08396 0.2673 0.0
C53 C 0.19672 0.21304 0.20815 0.0
C54 C 0.1734 0.38227 0.36055 0.0
C55 C 0.26966 0.96021 0.26626 0.0
O56 O 0.13409 0.35531 0.30569 0.0
O57 O 0.12377 0.27406 0.26962 0.0
O58 O 0.31617 0.10873 0.32778 0.0
O59 O 0.26083 0.2194 0.34829 0.0
O60 O 0.32607 0.15056 0.19382 0.0
O61 O 0.3665 0.26708 0.21339 0.0
O62 O 0.25879 0.417 0.29978 0.0
O63 O 0.21164 0.42655 0.26342 0.0
Co64 Co 0.70833 0.79985 0.32154 0.0
Co65 Co 0.80185 0.6655 0.29154 0.0
Co66 Co 0.70194 0.7558 0.26181 0.0
H67 H 0.71132 0.75084 0.29232 0.0
O68 O 0.72291 0.68375 0.29827 0.0
H69 H 0.79605 0.68916 0.26154 0.0
O70 O 0.78201 0.75468 0.25624 0.0
Co71 Co 0.80711 0.65486 0.23171 0.0
O72 O 0.87501 0.57168 0.2465 0.0
O73 O 0.88128 0.63914 0.2841 0.0
O74 O 0.73624 0.6428 0.21233 0.0
O75 O 0.68429 0.78503 0.22348 0.0
O76 O 0.68686 0.92813 0.34344 0.0
O77 O 0.68385 0.75892 0.35942 0.0
O78 O 0.7705 0.50697 0.24331 0.0
O79 O 0.78377 0.50569 0.2854 0.0
C80 C 0.60433 0.82903 0.28711 0.0
C81 C 0.79773 0.63616 0.3484 0.0
C82 C 0.85928 0.72719 0.19216 0.0
C83 C 0.7396 0.97029 0.27971 0.0
C84 C 0.90094 0.58233 0.26713 0.0
C85 C 0.69563 0.71107 0.20829 0.0
C86 C 0.67652 0.86021 0.3634 0.0
C87 C 0.76953 0.45665 0.26618 0.0
O88 O 0.63351 0.85207 0.30612 0.0
O89 O 0.62282 0.77081 0.27006 0.0
O90 O 0.81604 0.6037 0.32779 0.0
O91 O 0.75937 0.71049 0.34853 0.0
O92 O 0.82196 0.65361 0.1933 0.0
O93 O 0.86698 0.76094 0.21354 0.0
O94 O 0.75608 0.91485 0.30069 0.0
O95 O 0.71073 0.92298 0.26381 0.0
Co96 Co 0.96697 0.40209 0.48204 0.0
Co97 Co 0.07346 0.50429 0.51152 0.0
Co98 Co 0.97464 0.41249 0.5419 0.0
H99 H 0.9794 0.43608 0.51184 0.0
O100 O 0.99322 0.50175 0.50644 0.0
H101 H 0.06474 0.49958 0.54209 0.0
O102 O 0.05367 0.43235 0.5482 0.0
Co103 Co 0.06766 0.55077 0.57113 0.0
O104 O 0.14322 0.59812 0.55579 0.0
O105 O 0.15271 0.51952 0.51933 0.0
O106 O 0.01825 0.46028 0.59862 0.0
O107 O 0.96184 0.35094 0.57825 0.0
O108 O 0.90696 0.50818 0.46391 0.0
O109 O 0.94766 0.39204 0.44438 0.0
O110 O 0.01786 0.66124 0.55018 0.0
O111 O 0.0646 0.67114 0.51377 0.0
C112 C 0.87537 0.32586 0.51824 0.0
C113 C 0.07398 0.47908 0.45545 0.0
C114 C 0.10075 0.633 0.61043 0.0
C115 C 1.00661 0.20438 0.51642 0.0
C116 C 0.17189 0.57575 0.53658 0.0
C117 C 0.98041 0.38445 0.59871 0.0
C118 C 0.91173 0.46862 0.44301 0.0
C119 C 0.03489 0.71765 0.52944 0.0
O120 O 0.90107 0.31471 0.49762 0.0
O121 O 0.895 0.38432 0.53494 0.0
O122 O 0.09039 0.53751 0.47311 0.0
O123 O 0.03217 0.41349 0.45825 0.0
O124 O 0.12921 0.62449 0.59086 0.0
O125 O 0.05342 0.59369 0.60785 0.0
O126 O 1.0046 0.25495 0.49357 0.0
O127 O 0.99305 0.25304 0.53576 0.0
Co128 Co 0.2073 0.79957 0.82129 0.0
Co129 Co 0.30056 0.66597 0.79099 0.0
Co130 Co 0.20011 0.75624 0.76155 0.0
H131 H 0.20993 0.75049 0.79204 0.0
O132 O 0.22167 0.68348 0.79793 0.0
H133 H 0.29434 0.68935 0.76099 0.0
O134 O 0.2801 0.75476 0.75572 0.0
Co135 Co 0.30573 0.65551 0.73111 0.0
O136 O 0.37225 0.5681 0.74632 0.0
O137 O 0.37994 0.64006 0.7833 0.0
O138 O 0.24048 0.67133 0.70718 0.0
O139 O 0.18149 0.79024 0.72335 0.0
O140 O 0.18717 0.92774 0.84346 0.0
O141 O 0.18179 0.75831 0.85904 0.0
O142 O 0.26826 0.50829 0.74296 0.0
O143 O 0.28254 0.50609 0.78499 0.0
C144 C 0.10273 0.8278 0.78732 0.0
C145 C 0.29799 0.6389 0.84784 0.0
C146 C 0.36061 0.7233 0.69214 0.0
C147 C 0.23816 0.97064 0.77964 0.0
C148 C 0.39887 0.58061 0.76666 0.0
C149 C 0.19793 0.73491 0.70518 0.0
C150 C 0.17571 0.85966 0.86324 0.0
C151 C 0.26773 0.45746 0.76581 0.0
O152 O 0.13207 0.85097 0.80625 0.0
O153 O 0.1212 0.77037 0.77013 0.0
O154 O 0.31545 0.60484 0.82725 0.0
O155 O 0.25966 0.71317 0.84802 0.0
O156 O 0.32449 0.64704 0.69334 0.0
O157 O 0.36566 0.76186 0.71315 0.0
O158 O 0.25484 0.91534 0.80059 0.0
O159 O 0.20901 0.92323 0.76386 0.0
Co160 Co 0.70805 0.30501 0.82023 0.0
Co161 Co 0.80101 0.1686 0.7909 0.0
Co162 Co 0.70176 0.25956 0.76066 0.0
H163 H 0.71085 0.25456 0.79116 0.0
O164 O 0.72209 0.18743 0.79725 0.0
H165 H 0.79573 0.19138 0.76092 0.0
O166 O 0.7819 0.25692 0.7554 0.0
Co167 Co 0.80768 0.15586 0.73129 0.0
O168 O 0.8734 0.06795 0.74699 0.0
O169 O 0.88056 0.14115 0.78383 0.0
O170 O 0.74228 0.16761 0.70759 0.0
O171 O 0.68448 0.29263 0.72232 0.0
O172 O 0.71501 0.40157 0.85065 0.0
O173 O 0.64729 0.29879 0.8478 0.0
O174 O 0.76803 0.01126 0.74304 0.0
O175 O 0.78291 0.00854 0.78502 0.0
C176 C 0.60381 0.33248 0.78578 0.0
C177 C 0.79775 0.14522 0.84764 0.0
C178 C 0.8644 0.22033 0.69273 0.0
C179 C 0.74045 0.47316 0.77865 0.0
C180 C 0.89961 0.08069 0.76741 0.0
C181 C 0.70066 0.23365 0.70475 0.0
C182 C 0.66999 0.36796 0.86066 0.0
C183 C 0.76758 0.96028 0.76586 0.0
O184 O 0.63291 0.35569 0.8048 0.0
O185 O 0.62258 0.27505 0.76866 0.0
O186 O 0.81445 0.10833 0.82725 0.0
O187 O 0.76038 0.22186 0.84753 0.0
O188 O 0.83112 0.13864 0.6945 0.0
O189 O 0.86561 0.26613 0.71294 0.0
O190 O 0.75738 0.41695 0.79944 0.0
O191 O 0.71088 0.42643 0.76291 0.0
Co192 Co 0.46811 0.90483 0.48153 0.0
Co193 Co 0.57268 0.00648 0.51177 0.0
Co194 Co 0.47313 0.91564 0.54139 0.0
H195 H 0.47892 0.93919 0.51138 0.0
O196 O 0.49275 0.00493 0.50611 0.0
H197 H 0.56318 0.00204 0.54222 0.0
O198 O 0.55186 0.93494 0.54829 0.0
Co199 Co 0.56561 0.05316 0.57119 0.0
O200 O 0.64149 0.10088 0.55625 0.0
O201 O 0.65178 0.02093 0.52002 0.0
O202 O 0.51464 0.96469 0.5983 0.0
O203 O 0.45916 0.85458 0.57764 0.0
O204 O 0.45206 0.90374 0.44323 0.0
O205 O 0.40843 0.01235 0.46365 0.0
O206 O 0.51629 0.16372 0.54997 0.0
O207 O 0.56396 0.1735 0.51381 0.0
C208 C 0.37461 0.83036 0.51689 0.0
C209 C 0.57921 0.96355 0.45813 0.0
C210 C 0.60127 0.13181 0.61036 0.0
C211 C 0.50583 0.70681 0.51614 0.0
C212 C 0.67062 0.0776 0.53727 0.0
C213 C 0.4768 0.88895 0.59819 0.0
C214 C 0.41521 -0.02174 0.44226 0.0
C215 C 0.53385 0.22011 0.52933 0.0
O216 O 0.40066 0.82001 0.4963 0.0
O217 O 0.39389 0.88794 0.53383 0.0
O218 O 0.59027 0.03669 0.47354 0.0
O219 O 0.53887 0.89439 0.46193 0.0
O220 O 0.55146 0.11255 0.60632 0.0
O221 O 0.63042 0.10514 0.59239 0.0
O222 O 0.50466 0.75705 0.49325 0.0
O223 O 0.49171 0.75589 0.53535 0.0
Co224 Co 0.4658 0.40396 0.98192 0.0
Co225 Co 0.57203 0.50601 1.01101 0.0
Co226 Co 0.47337 0.41456 0.04153 0.0
H227 H 0.47795 0.43878 1.01157 0.0
O228 O 0.49171 0.50441 1.00611 0.0
H229 H 0.56368 0.50157 0.04161 0.0
O230 O 0.55253 0.43425 0.04767 0.0
Co231 Co 0.56693 0.55104 0.07081 0.0
O232 O 0.6416 0.60166 0.05499 0.0
O233 O 0.6514 0.52184 1.01867 0.0
O234 O 0.51472 0.46661 0.09797 0.0
O235 O 0.46066 0.35249 0.07782 0.0
O236 O 0.44848 0.39874 0.9439 0.0
O237 O 0.40753 0.51397 0.96348 0.0
O238 O 0.51833 0.66407 0.04989 0.0
O239 O 0.56337 0.67308 1.01297 0.0
C240 C 0.37289 0.33196 1.01762 0.0
C241 C 0.57478 0.45694 0.9582 0.0
C242 C 0.59954 0.60962 0.11279 0.0
C243 C 0.50444 0.20568 1.01585 0.0
C244 C 0.67033 0.5792 0.03581 0.0
C245 C 0.47756 0.38952 0.09816 0.0
C246 C 0.4132 0.47632 0.94241 0.0
C247 C 0.53467 0.71996 0.02896 0.0
O248 O 0.39774 0.32279 0.99668 0.0
O249 O 0.39361 0.38682 0.03473 0.0
O250 O 0.58762 0.53399 0.97241 0.0
O251 O 0.53937 0.3805 0.96585 0.0
O252 O 0.58422 0.67828 0.09374 0.0
O253 O 0.59663 0.50878 0.10784 0.0
O254 O 0.50198 0.25556 0.99298 0.0
O255 O 0.4916 0.25501 0.03521 0.0
C256 C 0.12108 0.25589 0.1435 0.0
C257 C 0.11671 0.14175 0.13852 0.0
H258 H 0.1488 0.36982 0.1698 0.0
C259 C 0.13225 0.05446 0.15799 0.0
H260 H 0.109 0.3253 0.12896 0.0
C261 C 0.15416 0.07975 0.18115 0.0
C262 C 0.16141 0.19334 0.18584 0.0
H263 H 0.12903 0.96577 0.15508 0.0
H264 H 0.16765 0.00939 0.19517 0.0
C265 C 0.14323 0.28154 0.16699 0.0
C266 C 0.96124 0.88631 0.14556 0.0
C267 C 0.94721 0.84588 0.12239 0.0
H268 H 0.94429 0.88088 0.18583 0.0
C269 C 0.90484 0.76461 0.1227 0.0
H270 H 0.99356 0.94898 0.14609 0.0
C271 C 0.87676 0.72608 0.1454 0.0
C272 C 0.89018 0.76771 0.1684 0.0
H273 H 0.89273 0.73141 0.1053 0.0
H274 H 0.84408 0.66419 0.14485 0.0
C275 C 0.93294 0.84765 0.16834 0.0
C276 C 0.16005 0.46942 0.42818 0.0
C277 C 0.10269 0.48141 0.43019 0.0
H278 H 0.22779 0.42792 0.40459 0.0
C279 C 0.07043 0.47128 0.4083 0.0
H280 H 0.18607 0.47488 0.44471 0.0
C281 C 0.09386 0.44293 0.38571 0.0
C282 C 0.15061 0.42406 0.38404 0.0
H283 H 0.02616 0.47991 0.40903 0.0
H284 H 0.06697 0.43183 0.36979 0.0
C285 C 0.1838 0.44106 0.40529 0.0
C286 C 0.86625 0.50695 0.37349 0.0
C287 C 0.8242 0.58889 0.37313 0.0
H288 H 0.92647 0.4052 0.39574 0.0
C289 C 0.80997 0.62859 0.39634 0.0
H290 H 0.87854 0.47428 0.35608 0.0
C291 C 0.83796 0.58903 0.41919 0.0
C292 C 0.88049 0.50862 0.41929 0.0
H293 H 0.77786 0.69166 0.39684 0.0
H294 H 0.8266 0.62201 0.43669 0.0
C295 C 0.89389 0.46724 0.39627 0.0
C296 C 0.0896 0.67484 0.65643 0.0
C297 C 0.12183 0.67721 0.63402 0.0
H298 H 0.08778 0.69481 0.69667 0.0
C299 C 0.17615 0.71715 0.63469 0.0
H300 H 0.04753 0.64484 0.65659 0.0
C301 C 0.19878 0.74663 0.65744 0.0
C302 C 0.16784 0.73814 0.68028 0.0
H303 H 0.20214 0.72111 0.61786 0.0
H304 H 0.24181 0.77034 0.65752 0.0
C305 C 0.11237 0.70506 0.67934 0.0
C306 C 0.88851 0.20742 0.64708 0.0
C307 C 0.89669 0.25898 0.66932 0.0
H308 H 0.90862 0.20551 0.60758 0.0
C309 C 0.93489 0.34845 0.66868 0.0
H310 H 0.85941 0.13811 0.64699 0.0
C311 C 0.96358 0.38707 0.64602 0.0
C312 C 0.9543 0.33742 0.6235 0.0
H313 H 0.94211 0.38957 0.68558 0.0
H314 H 0.99193 0.45764 0.64602 0.0
C315 C 0.91683 0.24622 0.62446 0.0
C316 C 0.14831 0.0069 0.89219 0.0
C317 C 0.1576 0.89237 0.88847 0.0
H318 H 0.11713 0.12158 0.91751 0.0
C319 C 0.14785 0.80654 0.90919 0.0
H320 H 0.15575 0.07529 0.87666 0.0
C321 C 0.12659 0.83307 0.93238 0.0
C322 C 0.11451 0.94643 0.93584 0.0
H323 H 0.15495 0.71772 0.90724 0.0
H324 H 0.11712 0.7635 0.94739 0.0
C325 C 0.12691 0.03375 0.91568 0.0
C326 C 0.867 0.01772 0.87257 0.0
C327 C 0.82521 0.10021 0.87227 0.0
H328 H 0.92768 0.9165 0.89459 0.0
C329 C 0.81221 0.1421 0.89537 0.0
H330 H 0.8784 -0.01665 0.85524 0.0
C331 C 0.8409 0.10344 0.91808 0.0
C332 C 0.88306 0.02219 0.91812 0.0
H333 H 0.78039 0.20577 0.89588 0.0
H334 H 0.83034 0.13764 0.93554 0.0
C335 C 0.89549 -0.02066 0.89517 0.0
C336 C 0.70401 0.22558 0.65768 0.0
C337 C 0.6718 0.23557 0.67955 0.0
H338 H 0.70741 0.18488 0.61929 0.0
C339 C 0.6145 0.22204 0.67766 0.0
H340 H 0.74828 0.23492 0.65839 0.0
C341 C 0.59076 0.19225 0.65488 0.0
C342 C 0.62392 0.17541 0.63366 0.0
H343 H 0.58859 0.22716 0.69421 0.0
H344 H 0.54685 0.17776 0.65428 0.0
C345 C 0.68057 0.19594 0.6352 0.0
C346 C 0.46216 0.88549 0.64586 0.0
C347 C 0.4498 0.84246 0.6228 0.0
H348 H 0.44347 0.88188 0.68591 0.0
C349 C 0.40889 0.758 0.62314 0.0
H350 H 0.49322 0.95078 0.64634 0.0
C351 C 0.38054 0.71899 0.64573 0.0
C352 C 0.39222 0.76332 0.66859 0.0
H353 H 0.39804 0.72272 0.60583 0.0
H354 H 0.34888 0.65491 0.64517 0.0
C355 C 0.43356 0.84638 0.66852 0.0
C356 C 0.64983 0.49888 0.92342 0.0
C357 C 0.6002 0.44658 0.93249 0.0
H358 H 0.71162 0.51501 0.89352 0.0
C359 C 0.57411 0.37376 0.91698 0.0
H360 H 0.67133 0.55502 0.9347 0.0
C361 C 0.59665 0.35142 0.89384 0.0
C362 C 0.64664 0.40019 0.885 0.0
H363 H 0.53598 0.33089 0.92281 0.0
H364 H 0.57494 0.29357 0.88304 0.0
C365 C 0.67295 0.47551 0.89988 0.0
C366 C 0.39667 0.47654 0.89554 0.0
C367 C 0.38247 0.51685 0.9186 0.0
H368 H 0.38137 0.48263 0.85535 0.0
C369 C 0.33906 0.59515 0.91851 0.0
H370 H 0.43003 0.41624 0.895 0.0
C371 C 0.31069 0.63312 0.89569 0.0
C372 C 0.32539 0.59386 0.87248 0.0
H373 H 0.3271 0.62722 0.93604 0.0
H374 H 0.27773 0.69427 0.89622 0.0
C375 C 0.3686 0.5146 0.87278 0.0
C376 C 0.63113 0.55348 0.15804 0.0
C377 C 0.61773 0.64076 0.13817 0.0
H378 H 0.66413 0.5083 0.19572 0.0
C379 C 0.62321 0.75503 0.14291 0.0
H380 H 0.62698 0.46472 0.15533 0.0
C381 C 0.64447 0.78064 0.16658 0.0
C382 C 0.66053 0.69227 0.18586 0.0
H383 H 0.61279 0.82446 0.12806 0.0
H384 H 0.65114 0.86883 0.1692 0.0
C385 C 0.6521 0.57874 0.18139 0.0
C386 C 0.3826 0.21959 0.14629 0.0
C387 C 0.39291 0.2679 0.16879 0.0
H388 H 0.40123 0.2189 0.10663 0.0
C389 C 0.43304 0.35367 0.16831 0.0
H390 H 0.35206 0.15305 0.14607 0.0
C391 C 0.4617 0.39156 0.14558 0.0
C392 C 0.45059 0.34456 0.12288 0.0
H393 H 0.44196 0.39216 0.18542 0.0
H394 H 0.49181 0.45898 0.14573 0.0
C395 C 0.41099 0.25739 0.12364 0.0
C396 C 0.62573 0.0337 0.41552 0.0
C397 C 0.61495 0.94644 0.43591 0.0
H398 H 0.65339 0.07532 0.37632 0.0
C399 C 0.62865 0.83362 0.4327 0.0
H400 H 0.61459 0.12102 0.41717 0.0
C401 C 0.65006 0.80738 0.40951 0.0
C402 C 0.65825 0.89297 0.38858 0.0
H403 H 0.62036 0.76414 0.4479 0.0
H404 H 0.65848 0.71886 0.40775 0.0
C405 C 0.64724 0.00714 0.39203 0.0
C406 C 0.39604 -0.02366 0.39571 0.0
C407 C 0.38381 0.01922 0.41867 0.0
H408 H 0.37881 -0.01928 0.35577 0.0
C409 C 0.34178 0.10071 0.41869 0.0
H410 H 0.42813 0.91331 0.39508 0.0
C411 C 0.31305 0.13964 0.39602 0.0
C412 C 0.3259 0.09784 0.37288 0.0
H413 H 0.33137 0.13495 0.43617 0.0
H414 H 0.28139 0.20361 0.39657 0.0
C415 C 0.36753 0.01503 0.37313 0.0
C416 C 0.03622 0.5322 0.99933 0.0
C417 C 0.01617 0.5867 1.01963 0.0
H418 H 0.05713 0.3739 0.98634 0.0
C419 C 1.00231 0.52088 0.04299 0.0
H420 H 0.04721 0.58084 0.98105 0.0
C421 C 1.00721 0.40277 0.04583 0.0
C422 C 0.02659 0.34794 1.02546 0.0
H423 H 0.98642 0.56013 0.05893 0.0
H424 H 0.99605 0.35465 0.06413 0.0
C425 C 0.04157 0.41376 1.00225 0.0
C426 C 0.26767 0.65233 0.29603 0.0
C427 C 0.24869 0.59796 0.2755 0.0
H428 H 0.28786 0.80955 0.30944 0.0
C429 C 0.23367 0.66429 0.25235 0.0
H430 H 0.27878 0.60373 0.3143 0.0
C431 C 0.23863 0.78275 0.24964 0.0
C432 C 0.25836 0.83688 0.27009 0.0
H433 H 0.2184 0.62478 0.23631 0.0
H434 H 0.22768 0.83172 0.23138 0.0
C435 C 0.27221 0.77057 0.2934 0.0
C436 C 0.73169 0.16091 0.25281 0.0
C437 C 0.74765 0.09469 0.27583 0.0
H438 H 0.72529 0.32831 0.23181 0.0
C439 C 0.76829 0.14912 0.29604 0.0
H440 H 0.71515 0.12142 0.23701 0.0
C441 C 0.77329 0.26722 0.29325 0.0
C442 C 0.75829 0.3334 0.2701 0.0
H443 H 0.78033 0.10071 0.31419 0.0
H444 H 0.79015 0.3062 0.30905 0.0
C445 C 0.73715 0.27932 0.24993 0.0
C446 C 0.01026 0.897 0.54654 0.0
C447 C 0.0275 0.84214 0.52581 0.0
H448 H 0.99151 0.05463 0.56004 0.0
C449 C 0.04077 0.90788 0.50236 0.0
H450 H 1.00059 0.84881 0.56504 0.0
C451 C 0.03579 0.02634 0.49954 0.0
C452 C 0.01785 0.08103 0.5202 0.0
H453 H 0.05463 0.86788 0.48615 0.0
H454 H 0.04531 0.07482 0.48106 0.0
C455 C 1.00575 0.01524 0.5438 0.0
C456 C 0.23104 0.16081 0.75246 0.0
C457 C 0.2461 0.09511 0.77569 0.0
H458 H 0.22534 0.32779 0.73119 0.0
C459 C 0.26578 0.15013 0.79599 0.0
H460 H 0.2153 0.12082 0.73657 0.0
C461 C 0.27071 0.26829 0.79309 0.0
C462 C 0.2566 0.33403 0.76973 0.0
H463 H 0.27708 0.10215 0.8143 0.0
H464 H 0.28676 0.30767 0.809 0.0
C465 C 0.23644 0.27929 0.74947 0.0
C466 C 0.76778 0.65204 0.79537 0.0
C467 C 0.74777 0.59775 0.77502 0.0
H468 H 0.78836 0.80921 0.80867 0.0
C469 C 0.7315 0.66422 0.75208 0.0
H470 H 0.77997 0.60337 0.81347 0.0
C471 C 0.73608 0.78275 0.7494 0.0
C472 C 0.75667 0.8368 0.76968 0.0
H473 H 0.71542 0.6248 0.73618 0.0
H474 H 0.72411 0.83185 0.73131 0.0
C475 C 0.77191 0.77031 0.79277 0.0
C476 C 0.53574 0.52878 0.4995 0.0
C477 C 0.51696 0.58345 0.52002 0.0
H478 H 0.55514 0.37037 0.48623 0.0
C479 C 0.50397 0.51768 0.54351 0.0
H480 H 0.546 0.57729 0.48111 0.0
C481 C 0.50844 0.39943 0.54626 0.0
C482 C 0.5265 0.34459 0.52567 0.0
H483 H 0.48909 0.5571 0.55962 0.0
H484 H 0.49809 0.35121 0.56467 0.0
C485 C 0.54064 0.41034 0.50234 0.0
C486 C 0.50875 0.89872 0.04592 0.0
C487 C 0.52684 0.84424 1.02527 0.0
H488 H 0.48879 0.0559 0.05934 0.0
C489 C 0.5404 0.9102 1.00189 0.0
H490 H 0.49875 0.85039 0.06436 0.0
C491 C 0.53488 0.0285 0.99907 0.0
C492 C 0.51608 0.08269 1.01966 0.0
H493 H 0.55495 0.87055 0.98575 0.0
H494 H 0.54472 0.07727 0.98066 0.0
C495 C 0.50369 0.01678 0.04319 0.0
C496 C 0.29905 0.20351 1.00459 0.0
C497 C 0.32046 0.26875 1.02282 0.0
H498 H 0.23568 0.09146 0.99496 0.0
C499 C 0.29325 0.26615 0.04647 0.0
H500 H 0.31911 0.20232 0.98623 0.0
C501 C 0.24533 0.20146 0.05156 0.0
C502 C 0.22359 0.13744 0.03315 0.0
H503 H 0.30894 0.31391 0.0611 0.0
H504 H 0.22492 0.20307 0.06982 0.0
C505 C 0.25139 0.13856 1.00971 0.0
C506 C 0.79982 0.70439 1.00301 0.0
C507 C 0.82102 0.76952 1.02131 0.0
H508 H 0.73661 0.59179 0.99331 0.0
C509 C 0.79386 0.76583 0.045 0.0
H510 H 0.81987 0.70413 0.98462 0.0
C511 C 0.74626 0.70024 0.05008 0.0
C512 C 0.72458 0.63647 0.03162 0.0
H513 H 0.80939 0.81335 0.05971 0.0
H514 H 0.726 0.70106 0.06841 0.0
C515 C 0.75229 0.63867 1.0081 0.0
C516 C 0.02904 0.45303 0.30083 0.0
C517 C 0.05049 0.38805 0.28257 0.0
H518 H 0.96578 0.56601 0.3103 0.0
C519 C 0.02221 0.38797 0.25923 0.0
H520 H 0.04972 0.45582 0.31899 0.0
C521 C 0.97437 0.45262 0.25412 0.0
C522 C 0.95338 0.51888 0.27223 0.0
H523 H 0.03765 0.34011 0.24459 0.0
H524 H 0.95391 0.45057 0.23587 0.0
C525 C 0.98109 0.51746 0.29575 0.0
C526 C 0.29599 0.76056 0.54587 0.0
C527 C 0.3226 0.76554 0.52203 0.0
H528 H 0.22867 0.69476 0.56944 0.0
C529 C 0.30103 0.70137 0.50363 0.0
H530 H 0.31186 0.80723 0.56066 0.0
C531 C 0.25357 0.63553 0.50877 0.0
C532 C 0.22631 0.63226 0.53243 0.0
H533 H 0.32068 0.7021 0.48512 0.0
H534 H 0.23753 0.58959 0.49389 0.0
C535 C 0.24847 0.69482 0.551 0.0
C536 C 0.79524 0.26105 0.54686 0.0
C537 C 0.82305 0.26212 0.52341 0.0
H538 H 0.72615 0.20045 0.56987 0.0
C539 C 0.80199 0.19603 0.50526 0.0
H540 H 0.81061 0.30954 0.56143 0.0
C541 C 0.75393 0.13211 0.51022 0.0
C542 C 0.72544 0.13275 0.53344 0.0
H543 H 0.82248 0.19379 0.48704 0.0
H544 H 0.73844 0.08454 0.49552 0.0
C545 C 0.747 0.19731 0.55179 0.0
C546 C 0.97949 0.01556 0.79624 0.0
C547 C 0.95159 0.01602 0.7728 0.0
H548 H 0.04832 0.95405 0.81948 0.0
C549 C 0.97209 0.94816 0.7549 0.0
H550 H 0.96449 0.06535 0.81062 0.0
C551 C 0.01971 0.88312 0.76009 0.0
C552 C 0.04831 0.88433 0.78329 0.0
H553 H 0.95148 0.94537 0.73671 0.0
H554 H 0.03478 0.83414 0.74557 0.0
C555 C 0.02731 0.95062 0.80141 0.0
C556 C 0.52058 0.38759 0.75853 0.0
C557 C 0.5491 0.38809 0.78179 0.0
H558 H 0.45184 0.44913 0.73534 0.0
C559 C 0.52755 0.45244 0.80015 0.0
H560 H 0.53608 0.34009 0.74383 0.0
C561 C 0.47929 0.5161 0.79519 0.0
C562 C 0.45136 0.5172 0.77172 0.0
H563 H 0.5484 0.45522 0.81828 0.0
H564 H 0.46391 0.56432 0.80978 0.0
C565 C 0.47243 0.45134 0.75356 0.0
C566 C 0.52226 0.88829 0.25943 0.0
C567 C 0.55013 0.88656 0.28291 0.0
H568 H 0.45467 0.95332 0.23589 0.0
C569 C 0.52864 0.95091 0.30129 0.0
H570 H 0.53779 0.84101 0.2447 0.0
C571 C 0.481 0.01645 0.29616 0.0
C572 C 0.4537 0.0196 0.27249 0.0
H573 H 0.54906 0.95213 0.31959 0.0
H574 H 0.46557 0.0644 0.31079 0.0
C575 C 0.47478 0.95402 0.25427 0.0
loop_
_geom_bond_atom_site_label_1
_geom_bond_atom_site_label_2
_geom_bond_distance
_geom_bond_site_symmetry_2
_ccdc_geom_bond_type
Co0 H3 2.400 1_565 S
Co0 O4 2.009 1_565 S
Co0 O12 2.115 . S
Co0 O13 2.315 1_565 S
Co0 O24 2.053 . S
Co0 O27 2.094 1_655 S
Co0 O30 2.122 . S
Co1 O4 2.126 1_455 S
Co1 H5 2.388 1_546 S
Co1 O6 2.053 1_546 S
Co1 O9 2.047 . S
Co1 O15 2.113 . S
Co1 O26 2.063 . S
Co2 H3 2.388 1_564 S
Co2 O4 2.053 1_564 S
Co2 O6 2.126 1_655 S
Co2 O11 2.063 . S
Co2 O25 2.047 . S
Co2 O31 2.113 . S
H3 Co0 2.400 1_545 S
H3 Co2 2.388 1_546 S
H3 O4 0.760 . S
O4 Co0 2.009 1_545 S
O4 Co1 2.126 1_655 S
O4 Co2 2.053 1_546 S
O4 H3 0.760 . S
H5 Co1 2.388 1_564 S
H5 O6 0.760 . S
H5 Co7 2.400 1_565 S
O6 Co1 2.053 1_564 S
O6 Co2 2.126 1_455 S
O6 H5 0.760 . S
O6 Co7 2.009 1_565 S
Co7 H5 2.400 1_545 S
Co7 O6 2.009 1_545 S
Co7 O8 2.053 . S
Co7 O10 2.094 1_455 S
Co7 O14 2.122 . S
Co7 O28 2.115 . S
Co7 O29 2.315 1_545 S
O8 Co7 2.053 . S
O8 C20 1.259 . S
O9 Co1 2.047 . S
O9 C20 1.257 1_556 S
O10 Co7 2.094 1_655 S
O10 C21 1.253 1_545 S
O11 Co2 2.063 . S
O11 C21 1.268 . S
O12 Co0 2.115 . S
O12 C22 1.281 . S
O13 Co0 2.315 1_545 S
O13 C22 1.252 1_545 S
O14 Co7 2.122 . S
O14 C23 1.272 . S
O15 Co1 2.113 . S
O15 C23 1.245 1_556 S
C16 O24 1.259 . S
C16 O25 1.257 1_556 S
C17 O26 1.268 . S
C17 O27 1.253 1_545 S
C18 O28 1.281 . S
C18 O29 1.252 1_545 S
C19 O30 1.272 . S
C19 O31 1.245 1_556 S
C20 O8 1.259 . S
C20 O9 1.257 1_554 S
C21 O10 1.253 1_565 S
C21 O11 1.268 . S
C22 O12 1.281 . S
C22 O13 1.252 1_565 S
C23 O14 1.272 . S
C23 O15 1.245 1_554 S
O24 Co0 2.053 . S
O24 C16 1.259 . S
O25 Co2 2.047 . S
O25 C16 1.257 1_554 S
O26 Co1 2.063 . S
O26 C17 1.268 . S
O27 Co0 2.094 1_455 S
O27 C17 1.253 1_565 S
O28 Co7 2.115 . S
O28 C18 1.281 . S
O29 Co7 2.315 1_565 S
O29 C18 1.252 1_565 S
O30 Co0 2.122 . S
O30 C19 1.272 . S
O31 Co2 2.113 . S
O31 C19 1.245 1_554 S
Co32 H35 2.400 . S
Co32 O36 2.009 . S
Co32 O44 2.115 . S
Co32 O45 2.315 . S
Co32 O56 2.053 . S
Co32 O59 2.094 . S
Co32 O62 2.122 . S
Co33 O36 2.126 . S
Co33 H37 2.388 . S
Co33 O38 2.053 . S
Co33 O41 2.047 . S
Co33 O47 2.113 . S
Co33 O58 2.063 . S
Co34 H35 2.388 . S
Co34 O36 2.053 . S
Co34 O38 2.126 . S
Co34 O43 2.063 . S
Co34 O57 2.047 . S
Co34 O63 2.113 . S
H35 Co32 2.400 . S
H35 Co34 2.388 . S
H35 O36 0.760 . S
O36 Co32 2.009 . S
O36 Co33 2.126 . S
O36 Co34 2.053 . S
O36 H35 0.760 . S
H37 Co33 2.388 . S
H37 O38 0.760 . S
H37 Co39 2.400 . S
O38 Co33 2.053 . S
O38 Co34 2.126 . S
O38 H37 0.760 . S
O38 Co39 2.009 . S
Co39 H37 2.400 . S
Co39 O38 2.009 . S
Co39 O40 2.053 . S
Co39 O42 2.094 . S
Co39 O46 2.122 1_545 S
Co39 O60 2.115 . S
Co39 O61 2.315 . S
O40 Co39 2.053 . S
O40 C52 1.259 . S
O41 Co33 2.047 . S
O41 C52 1.257 . S
O42 Co39 2.094 . S
O42 C53 1.253 . S
O43 Co34 2.063 . S
O43 C53 1.268 . S
O44 Co32 2.115 . S
O44 C54 1.281 . S
O45 Co32 2.315 . S
O45 C54 1.252 . S
O46 Co39 2.122 1_565 S
O46 C55 1.272 . S
O47 Co33 2.113 . S
O47 C55 1.245 1_545 S
C48 O56 1.259 . S
C48 O57 1.257 . S
C49 O58 1.268 . S
C49 O59 1.253 . S
C50 O60 1.281 . S
C50 O61 1.252 . S
C51 O62 1.272 . S
C51 O63 1.245 . S
C52 O40 1.259 . S
C52 O41 1.257 . S
C53 O42 1.253 . S
C53 O43 1.268 . S
C54 O44 1.281 . S
C54 O45 1.252 . S
C55 O46 1.272 . S
C55 O47 1.245 1_565 S
O56 Co32 2.053 . S
O56 C48 1.259 . S
O57 Co34 2.047 . S
O57 C48 1.257 . S
O58 Co33 2.063 . S
O58 C49 1.268 . S
O59 Co32 2.094 . S
O59 C49 1.253 . S
O60 Co39 2.115 . S
O60 C50 1.281 . S
O61 Co39 2.315 . S
O61 C50 1.252 . S
O62 Co32 2.122 . S
O62 C51 1.272 . S
O63 Co34 2.113 . S
O63 C51 1.245 . S
Co64 H67 2.400 . S
Co64 O68 2.009 . S
Co64 O76 2.115 . S
Co64 O77 2.315 . S
Co64 O88 2.053 . S
Co64 O91 2.094 . S
Co64 O94 2.122 1_565 S
Co65 O68 2.126 . S
Co65 H69 2.388 . S
Co65 O70 2.053 . S
Co65 O73 2.047 . S
Co65 O79 2.113 . S
Co65 O90 2.063 . S
Co66 H67 2.388 . S
Co66 O68 2.053 . S
Co66 O70 2.126 . S
Co66 O75 2.063 . S
Co66 O89 2.047 . S
Co66 O95 2.113 . S
H67 Co64 2.400 . S
H67 Co66 2.388 . S
H67 O68 0.760 . S
O68 Co64 2.009 . S
O68 Co65 2.126 . S
O68 Co66 2.053 . S
O68 H67 0.760 . S
H69 Co65 2.388 . S
H69 O70 0.760 . S
H69 Co71 2.400 . S
O70 Co65 2.053 . S
O70 Co66 2.126 . S
O70 H69 0.760 . S
O70 Co71 2.009 . S
Co71 H69 2.400 . S
Co71 O70 2.009 . S
Co71 O72 2.053 . S
Co71 O74 2.094 . S
Co71 O78 2.122 . S
Co71 O92 2.115 . S
Co71 O93 2.315 . S
O72 Co71 2.053 . S
O72 C84 1.259 . S
O73 Co65 2.047 . S
O73 C84 1.257 . S
O74 Co71 2.094 . S
O74 C85 1.253 . S
O75 Co66 2.063 . S
O75 C85 1.268 . S
O76 Co64 2.115 . S
O76 C86 1.281 . S
O77 Co64 2.315 . S
O77 C86 1.252 . S
O78 Co71 2.122 . S
O78 C87 1.272 . S
O79 Co65 2.113 . S
O79 C87 1.245 . S
C80 O88 1.259 . S
C80 O89 1.257 . S
C81 O90 1.268 . S
C81 O91 1.253 . S
C82 O92 1.281 . S
C82 O93 1.252 . S
C83 O94 1.272 . S
C83 O95 1.245 1_545 S
C84 O72 1.259 . S
C84 O73 1.257 . S
C85 O74 1.253 . S
C85 O75 1.268 . S
C86 O76 1.281 . S
C86 O77 1.252 . S
C87 O78 1.272 . S
C87 O79 1.245 . S
O88 Co64 2.053 . S
O88 C80 1.259 . S
O89 Co66 2.047 . S
O89 C80 1.257 . S
O90 Co65 2.063 . S
O90 C81 1.268 . S
O91 Co64 2.094 . S
O91 C81 1.253 . S
O92 Co71 2.115 . S
O92 C82 1.281 . S
O93 Co71 2.315 . S
O93 C82 1.252 . S
O94 Co64 2.122 1_545 S
O94 C83 1.272 . S
O95 Co66 2.113 . S
O95 C83 1.245 1_565 S
Co96 H99 2.400 . S
Co96 O100 2.009 . S
Co96 O108 2.115 . S
Co96 O109 2.315 . S
Co96 O120 2.053 . S
Co96 O123 2.094 1_655 S
Co96 O126 2.122 . S
Co97 O100 2.126 1_455 S
Co97 H101 2.388 . S
Co97 O102 2.053 . S
Co97 O105 2.047 . S
Co97 O111 2.113 . S
Co97 O122 2.063 . S
Co98 H99 2.388 . S
Co98 O100 2.053 . S
Co98 O102 2.126 1_655 S
Co98 O107 2.063 . S
Co98 O121 2.047 . S
Co98 O127 2.113 . S
H99 Co96 2.400 . S
H99 Co98 2.388 . S
H99 O100 0.760 . S
O100 Co96 2.009 . S
O100 Co97 2.126 1_655 S
O100 Co98 2.053 . S
O100 H99 0.760 . S
H101 Co97 2.388 . S
H101 O102 0.760 . S
H101 Co103 2.400 . S
O102 Co97 2.053 . S
O102 Co98 2.126 1_455 S
O102 H101 0.760 . S
O102 Co103 2.009 . S
Co103 H101 2.400 . S
Co103 O102 2.009 . S
Co103 O104 2.053 . S
Co103 O106 2.094 1_455 S
Co103 O110 2.122 . S
Co103 O124 2.115 . S
Co103 O125 2.315 . S
O104 Co103 2.053 . S
O104 C116 1.259 . S
O105 Co97 2.047 . S
O105 C116 1.257 . S
O106 Co103 2.094 1_655 S
O106 C117 1.253 . S
O107 Co98 2.063 . S
O107 C117 1.268 . S
O108 Co96 2.115 . S
O108 C118 1.281 . S
O109 Co96 2.315 . S
O109 C118 1.252 . S
O110 Co103 2.122 . S
O110 C119 1.272 . S
O111 Co97 2.113 . S
O111 C119 1.245 . S
C112 O120 1.259 . S
C112 O121 1.257 . S
C113 O122 1.268 . S
C113 O123 1.253 . S
C114 O124 1.281 . S
C114 O125 1.252 . S
C115 O126 1.272 . S
C115 O127 1.245 . S
C116 O104 1.259 . S
C116 O105 1.257 . S
C117 O106 1.253 . S
C117 O107 1.268 . S
C118 O108 1.281 . S
C118 O109 1.252 . S
C119 O110 1.272 . S
C119 O111 1.245 . S
O120 Co96 2.053 . S
O120 C112 1.259 . S
O121 Co98 2.047 . S
O121 C112 1.257 . S
O122 Co97 2.063 . S
O122 C113 1.268 . S
O123 Co96 2.094 1_455 S
O123 C113 1.253 . S
O124 Co103 2.115 . S
O124 C114 1.281 . S
O125 Co103 2.315 . S
O125 C114 1.252 . S
O126 Co96 2.122 . S
O126 C115 1.272 . S
O127 Co98 2.113 . S
O127 C115 1.245 . S
Co128 H131 2.400 . S
Co128 O132 2.009 . S
Co128 O140 2.115 . S
Co128 O141 2.315 . S
Co128 O152 2.053 . S
Co128 O155 2.094 . S
Co128 O158 2.122 1_565 S
Co129 O132 2.126 . S
Co129 H133 2.388 . S
Co129 O134 2.053 . S
Co129 O137 2.047 . S
Co129 O143 2.113 . S
Co129 O154 2.063 . S
Co130 H131 2.388 . S
Co130 O132 2.053 . S
Co130 O134 2.126 . S
Co130 O139 2.063 . S
Co130 O153 2.047 . S
Co130 O159 2.113 . S
H131 Co128 2.400 . S
H131 Co130 2.388 . S
H131 O132 0.760 . S
O132 Co128 2.009 . S
O132 Co129 2.126 . S
O132 Co130 2.053 . S
O132 H131 0.760 . S
H133 Co129 2.388 . S
H133 O134 0.760 . S
H133 Co135 2.400 . S
O134 Co129 2.053 . S
O134 Co130 2.126 . S
O134 H133 0.760 . S
O134 Co135 2.009 . S
Co135 H133 2.400 . S
Co135 O134 2.009 . S
Co135 O136 2.053 . S
Co135 O138 2.094 . S
Co135 O142 2.122 . S
Co135 O156 2.115 . S
Co135 O157 2.315 . S
O136 Co135 2.053 . S
O136 C148 1.259 . S
O137 Co129 2.047 . S
O137 C148 1.257 . S
O138 Co135 2.094 . S
O138 C149 1.253 . S
O139 Co130 2.063 . S
O139 C149 1.268 . S
O140 Co128 2.115 . S
O140 C150 1.281 . S
O141 Co128 2.315 . S
O141 C150 1.252 . S
O142 Co135 2.122 . S
O142 C151 1.272 . S
O143 Co129 2.113 . S
O143 C151 1.245 . S
C144 O152 1.259 . S
C144 O153 1.257 . S
C145 O154 1.268 . S
C145 O155 1.253 . S
C146 O156 1.281 . S
C146 O157 1.252 . S
C147 O158 1.272 . S
C147 O159 1.245 1_545 S
C148 O136 1.259 . S
C148 O137 1.257 . S
C149 O138 1.253 . S
C149 O139 1.268 . S
C150 O140 1.281 . S
C150 O141 1.252 . S
C151 O142 1.272 . S
C151 O143 1.245 . S
O152 Co128 2.053 . S
O152 C144 1.259 . S
O153 Co130 2.047 . S
O153 C144 1.257 . S
O154 Co129 2.063 . S
O154 C145 1.268 . S
O155 Co128 2.094 . S
O155 C145 1.253 . S
O156 Co135 2.115 . S
O156 C146 1.281 . S
O157 Co135 2.315 . S
O157 C146 1.252 . S
O158 Co128 2.122 1_545 S
O158 C147 1.272 . S
O159 Co130 2.113 . S
O159 C147 1.245 1_565 S
Co160 H163 2.400 . S
Co160 O164 2.009 . S
Co160 O172 2.115 . S
Co160 O173 2.315 . S
Co160 O184 2.053 . S
Co160 O187 2.094 . S
Co160 O190 2.122 . S
Co161 O164 2.126 . S
Co161 H165 2.388 . S
Co161 O166 2.053 . S
Co161 O169 2.047 . S
Co161 O175 2.113 . S
Co161 O186 2.063 . S
Co162 H163 2.388 . S
Co162 O164 2.053 . S
Co162 O166 2.126 . S
Co162 O171 2.063 . S
Co162 O185 2.047 . S
Co162 O191 2.113 . S
H163 Co160 2.400 . S
H163 Co162 2.388 . S
H163 O164 0.760 . S
O164 Co160 2.009 . S
O164 Co161 2.126 . S
O164 Co162 2.053 . S
O164 H163 0.760 . S
H165 Co161 2.388 . S
H165 O166 0.760 . S
H165 Co167 2.400 . S
O166 Co161 2.053 . S
O166 Co162 2.126 . S
O166 H165 0.760 . S
O166 Co167 2.009 . S
Co167 H165 2.400 . S
Co167 O166 2.009 . S
Co167 O168 2.053 . S
Co167 O170 2.094 . S
Co167 O174 2.122 1_545 S
Co167 O188 2.115 . S
Co167 O189 2.315 . S
O168 Co167 2.053 . S
O168 C180 1.259 . S
O169 Co161 2.047 . S
O169 C180 1.257 . S
O170 Co167 2.094 . S
O170 C181 1.253 . S
O171 Co162 2.063 . S
O171 C181 1.268 . S
O172 Co160 2.115 . S
O172 C182 1.281 . S
O173 Co160 2.315 . S
O173 C182 1.252 . S
O174 Co167 2.122 1_565 S
O174 C183 1.272 . S
O175 Co161 2.113 . S
O175 C183 1.245 1_545 S
C176 O184 1.259 . S
C176 O185 1.257 . S
C177 O186 1.268 . S
C177 O187 1.253 . S
C178 O188 1.281 . S
C178 O189 1.252 . S
C179 O190 1.272 . S
C179 O191 1.245 . S
C180 O168 1.259 . S
C180 O169 1.257 . S
C181 O170 1.253 . S
C181 O171 1.268 . S
C182 O172 1.281 . S
C182 O173 1.252 . S
C183 O174 1.272 . S
C183 O175 1.245 1_565 S
O184 Co160 2.053 . S
O184 C176 1.259 . S
O185 Co162 2.047 . S
O185 C176 1.257 . S
O186 Co161 2.063 . S
O186 C177 1.268 . S
O187 Co160 2.094 . S
O187 C177 1.253 . S
O188 Co167 2.115 . S
O188 C178 1.281 . S
O189 Co167 2.315 . S
O189 C178 1.252 . S
O190 Co160 2.122 . S
O190 C179 1.272 . S
O191 Co162 2.113 . S
O191 C179 1.245 . S
Co192 H195 2.400 1_565 S
Co192 O196 2.009 1_565 S
Co192 O204 2.115 . S
Co192 O205 2.315 1_565 S
Co192 O216 2.053 . S
Co192 O219 2.094 . S
Co192 O222 2.122 . S
Co193 O196 2.126 . S
Co193 H197 2.388 1_545 S
Co193 O198 2.053 1_545 S
Co193 O201 2.047 . S
Co193 O207 2.113 . S
Co193 O218 2.063 . S
Co194 H195 2.388 1_565 S
Co194 O196 2.053 1_565 S
Co194 O198 2.126 . S
Co194 O203 2.063 . S
Co194 O217 2.047 . S
Co194 O223 2.113 . S
H195 Co192 2.400 1_545 S
H195 Co194 2.388 1_545 S
H195 O196 0.760 . S
O196 Co192 2.009 1_545 S
O196 Co193 2.126 . S
O196 Co194 2.053 1_545 S
O196 H195 0.760 . S
H197 Co193 2.388 1_565 S
H197 O198 0.760 . S
H197 Co199 2.400 1_565 S
O198 Co193 2.053 1_565 S
O198 Co194 2.126 . S
O198 H197 0.760 . S
O198 Co199 2.009 1_565 S
Co199 H197 2.400 1_545 S
Co199 O198 2.009 1_545 S
Co199 O200 2.053 . S
Co199 O202 2.094 . S
Co199 O206 2.122 . S
Co199 O220 2.115 . S
Co199 O221 2.315 1_545 S
O200 Co199 2.053 . S
O200 C212 1.259 . S
O201 Co193 2.047 . S
O201 C212 1.257 . S
O202 Co199 2.094 . S
O202 C213 1.253 1_545 S
O203 Co194 2.063 . S
O203 C213 1.268 . S
O204 Co192 2.115 . S
O204 C214 1.281 . S
O205 Co192 2.315 1_545 S
O205 C214 1.252 1_545 S
O206 Co199 2.122 . S
O206 C215 1.272 . S
O207 Co193 2.113 . S
O207 C215 1.245 . S
C208 O216 1.259 . S
C208 O217 1.257 . S
C209 O218 1.268 . S
C209 O219 1.253 1_545 S
C210 O220 1.281 . S
C210 O221 1.252 1_545 S
C211 O222 1.272 . S
C211 O223 1.245 . S
C212 O200 1.259 . S
C212 O201 1.257 . S
C213 O202 1.253 1_565 S
C213 O203 1.268 . S
C214 O204 1.281 . S
C214 O205 1.252 1_565 S
C215 O206 1.272 . S
C215 O207 1.245 . S
O216 Co192 2.053 . S
O216 C208 1.259 . S
O217 Co194 2.047 . S
O217 C208 1.257 . S
O218 Co193 2.063 . S
O218 C209 1.268 . S
O219 Co192 2.094 . S
O219 C209 1.253 1_565 S
O220 Co199 2.115 . S
O220 C210 1.281 . S
O221 Co199 2.315 1_565 S
O221 C210 1.252 1_565 S
O222 Co192 2.122 . S
O222 C211 1.272 . S
O223 Co194 2.113 . S
O223 C211 1.245 . S
Co224 H227 2.400 . S
Co224 O228 2.009 . S
Co224 O236 2.115 . S
Co224 O237 2.315 . S
Co224 O248 2.053 . S
Co224 O251 2.094 . S
Co224 O254 2.122 . S
Co225 O228 2.126 . S
Co225 H229 2.388 1_556 S
Co225 O230 2.053 1_556 S
Co225 O233 2.047 . S
Co225 O239 2.113 . S
Co225 O250 2.063 . S
Co226 H227 2.388 1_554 S
Co226 O228 2.053 1_554 S
Co226 O230 2.126 . S
Co226 O235 2.063 . S
Co226 O249 2.047 . S
Co226 O255 2.113 . S
H227 Co224 2.400 . S
H227 Co226 2.388 1_556 S
H227 O228 0.760 . S
O228 Co224 2.009 . S
O228 Co225 2.126 . S
O228 Co226 2.053 1_556 S
O228 H227 0.760 . S
H229 Co225 2.388 1_554 S
H229 O230 0.760 . S
H229 Co231 2.400 . S
O230 Co225 2.053 1_554 S
O230 Co226 2.126 . S
O230 H229 0.760 . S
O230 Co231 2.009 . S
Co231 H229 2.400 . S
Co231 O230 2.009 . S
Co231 O232 2.053 . S
Co231 O234 2.094 . S
Co231 O238 2.122 . S
Co231 O252 2.115 . S
Co231 O253 2.315 . S
O232 Co231 2.053 . S
O232 C244 1.259 . S
O233 Co225 2.047 . S
O233 C244 1.257 1_556 S
O234 Co231 2.094 . S
O234 C245 1.253 . S
O235 Co226 2.063 . S
O235 C245 1.268 . S
O236 Co224 2.115 . S
O236 C246 1.281 . S
O237 Co224 2.315 . S
O237 C246 1.252 . S
O238 Co231 2.122 . S
O238 C247 1.272 . S
O239 Co225 2.113 . S
O239 C247 1.245 1_556 S
C240 O248 1.259 . S
C240 O249 1.257 1_556 S
C241 O250 1.268 . S
C241 O251 1.253 . S
C242 O252 1.281 . S
C242 O253 1.252 . S
C243 O254 1.272 . S
C243 O255 1.245 1_556 S
C244 O232 1.259 . S
C244 O233 1.257 1_554 S
C245 O234 1.253 . S
C245 O235 1.268 . S
C246 O236 1.281 . S
C246 O237 1.252 . S
C247 O238 1.272 . S
C247 O239 1.245 1_554 S
O248 Co224 2.053 . S
O248 C240 1.259 . S
O249 Co226 2.047 . S
O249 C240 1.257 1_554 S
O250 Co225 2.063 . S
O250 C241 1.268 . S
O251 Co224 2.094 . S
O251 C241 1.253 . S
O252 Co231 2.115 . S
O252 C242 1.281 . S
O253 Co231 2.315 . S
O253 C242 1.252 . S
O254 Co224 2.122 . S
O254 C243 1.272 . S
O255 Co226 2.113 . S
O255 C243 1.245 1_554 S
C256 C257 1.387 . S
C256 H260 0.950 . S
C256 C265 1.390 . S
C257 C256 1.387 . S
C257 C259 1.387 . S
H258 C265 0.950 . S
C259 C257 1.387 . S
C259 C261 1.390 . S
C259 H263 0.950 1_545 S
H260 C256 0.950 . S
C261 C259 1.390 . S
C261 C262 1.387 . S
C261 H264 0.950 . S
C262 C261 1.387 . S
C262 C265 1.387 . S
H263 C259 0.950 1_565 S
H264 C261 0.950 . S
C265 C256 1.390 . S
C265 H258 0.950 . S
C265 C262 1.387 . S
C266 C267 1.387 . S
C266 H270 0.950 1_565 S
C266 C275 1.390 . S
C267 C266 1.387 . S
C267 C269 1.387 . S
H268 C275 0.950 . S
C269 C267 1.387 . S
C269 C271 1.390 . S
C269 H273 0.950 . S
H270 C266 0.950 1_545 S
C271 C269 1.390 . S
C271 C272 1.387 . S
C271 H274 0.950 . S
C272 C271 1.387 . S
C272 C275 1.387 . S
H273 C269 0.950 . S
H274 C271 0.950 . S
C275 C266 1.390 . S
C275 H268 0.950 . S
C275 C272 1.387 . S
C276 C277 1.387 . S
C276 H280 0.950 . S
C276 C285 1.390 . S
C277 C276 1.387 . S
C277 C279 1.387 . S
H278 C285 0.950 . S
C279 C277 1.387 . S
C279 C281 1.390 . S
C279 H283 0.950 . S
H280 C276 0.950 . S
C281 C279 1.390 . S
C281 C282 1.387 . S
C281 H284 0.950 . S
C282 C281 1.387 . S
C282 C285 1.387 . S
H283 C279 0.950 . S
H284 C281 0.950 . S
C285 C276 1.390 . S
C285 H278 0.950 . S
C285 C282 1.387 . S
C286 C287 1.387 . S
C286 H290 0.950 . S
C286 C295 1.390 . S
C287 C286 1.387 . S
C287 C289 1.387 . S
H288 C295 0.950 . S
C289 C287 1.387 . S
C289 C291 1.390 . S
C289 H293 0.950 . S
H290 C286 0.950 . S
C291 C289 1.390 . S
C291 C292 1.387 . S
C291 H294 0.950 . S
C292 C291 1.387 . S
C292 C295 1.387 . S
H293 C289 0.950 . S
H294 C291 0.950 . S
C295 C286 1.390 . S
C295 H288 0.950 . S
C295 C292 1.387 . S
C296 C297 1.387 . S
C296 H300 0.950 . S
C296 C305 1.390 . S
C297 C296 1.387 . S
C297 C299 1.387 . S
H298 C305 0.950 . S
C299 C297 1.387 . S
C299 C301 1.390 . S
C299 H303 0.950 . S
H300 C296 0.950 . S
C301 C299 1.390 . S
C301 C302 1.387 . S
C301 H304 0.950 . S
C302 C301 1.387 . S
C302 C305 1.387 . S
H303 C299 0.950 . S
H304 C301 0.950 . S
C305 C296 1.390 . S
C305 H298 0.950 . S
C305 C302 1.387 . S
C306 C307 1.387 . S
C306 H310 0.950 . S
C306 C315 1.390 . S
C307 C306 1.387 . S
C307 C309 1.387 . S
H308 C315 0.950 . S
C309 C307 1.387 . S
C309 C311 1.390 . S
C309 H313 0.950 . S
H310 C306 0.950 . S
C311 C309 1.390 . S
C311 C312 1.387 . S
C311 H314 0.950 . S
C312 C311 1.387 . S
C312 C315 1.387 . S
H313 C309 0.950 . S
H314 C311 0.950 . S
C315 C306 1.390 . S
C315 H308 0.950 . S
C315 C312 1.387 . S
C316 C317 1.387 . S
C316 H320 0.950 1_565 S
C316 C325 1.390 1_565 S
C317 C316 1.387 . S
C317 C319 1.387 . S
H318 C325 0.950 . S
C319 C317 1.387 . S
C319 C321 1.390 . S
C319 H323 0.950 . S
H320 C316 0.950 1_545 S
C321 C319 1.390 . S
C321 C322 1.387 . S
C321 H324 0.950 . S
C322 C321 1.387 . S
C322 C325 1.387 1_565 S
H323 C319 0.950 . S
H324 C321 0.950 . S
C325 C316 1.390 1_545 S
C325 H318 0.950 . S
C325 C322 1.387 1_545 S
C326 C327 1.387 . S
C326 H330 0.950 . S
C326 C335 1.390 1_545 S
C327 C326 1.387 . S
C327 C329 1.387 . S
H328 C335 0.950 . S
C329 C327 1.387 . S
C329 C331 1.390 . S
C329 H333 0.950 . S
H330 C326 0.950 . S
C331 C329 1.390 . S
C331 C332 1.387 . S
C331 H334 0.950 . S
C332 C331 1.387 . S
C332 C335 1.387 1_545 S
H333 C329 0.950 . S
H334 C331 0.950 . S
C335 C326 1.390 1_565 S
C335 H328 0.950 . S
C335 C332 1.387 1_565 S
C336 C337 1.387 . S
C336 H340 0.950 . S
C336 C345 1.390 . S
C337 C336 1.387 . S
C337 C339 1.387 . S
H338 C345 0.950 . S
C339 C337 1.387 . S
C339 C341 1.390 . S
C339 H343 0.950 . S
H340 C336 0.950 . S
C341 C339 1.390 . S
C341 C342 1.387 . S
C341 H344 0.950 . S
C342 C341 1.387 . S
C342 C345 1.387 . S
H343 C339 0.950 . S
H344 C341 0.950 . S
C345 C336 1.390 . S
C345 H338 0.950 . S
C345 C342 1.387 . S
C346 C347 1.387 . S
C346 H350 0.950 1_565 S
C346 C355 1.390 . S
C347 C346 1.387 . S
C347 C349 1.387 . S
H348 C355 0.950 . S
C349 C347 1.387 . S
C349 C351 1.390 . S
C349 H353 0.950 . S
H350 C346 0.950 1_545 S
C351 C349 1.390 . S
C351 C352 1.387 . S
C351 H354 0.950 . S
C352 C351 1.387 . S
C352 C355 1.387 . S
H353 C349 0.950 . S
H354 C351 0.950 . S
C355 C346 1.390 . S
C355 H348 0.950 . S
C355 C352 1.387 . S
C356 C357 1.387 . S
C356 H360 0.950 . S
C356 C365 1.390 . S
C357 C356 1.387 . S
C357 C359 1.387 . S
H358 C365 0.950 . S
C359 C357 1.387 . S
C359 C361 1.390 . S
C359 H363 0.950 . S
H360 C356 0.950 . S
C361 C359 1.390 . S
C361 C362 1.387 . S
C361 H364 0.950 . S
C362 C361 1.387 . S
C362 C365 1.387 . S
H363 C359 0.950 . S
H364 C361 0.950 . S
C365 C356 1.390 . S
C365 H358 0.950 . S
C365 C362 1.387 . S
C366 C367 1.387 . S
C366 H370 0.950 . S
C366 C375 1.390 . S
C367 C366 1.387 . S
C367 C369 1.387 . S
H368 C375 0.950 . S
C369 C367 1.387 . S
C369 C371 1.390 . S
C369 H373 0.950 . S
H370 C366 0.950 . S
C371 C369 1.390 . S
C371 C372 1.387 . S
C371 H374 0.950 . S
C372 C371 1.387 . S
C372 C375 1.387 . S
H373 C369 0.950 . S
H374 C371 0.950 . S
C375 C366 1.390 . S
C375 H368 0.950 . S
C375 C372 1.387 . S
C376 C377 1.387 . S
C376 H380 0.950 . S
C376 C385 1.390 . S
C377 C376 1.387 . S
C377 C379 1.387 . S
H378 C385 0.950 . S
C379 C377 1.387 . S
C379 C381 1.390 . S
C379 H383 0.950 . S
H380 C376 0.950 . S
C381 C379 1.390 . S
C381 C382 1.387 . S
C381 H384 0.950 . S
C382 C381 1.387 . S
C382 C385 1.387 . S
H383 C379 0.950 . S
H384 C381 0.950 . S
C385 C376 1.390 . S
C385 H378 0.950 . S
C385 C382 1.387 . S
C386 C387 1.387 . S
C386 H390 0.950 . S
C386 C395 1.390 . S
C387 C386 1.387 . S
C387 C389 1.387 . S
H388 C395 0.950 . S
C389 C387 1.387 . S
C389 C391 1.390 . S
C389 H393 0.950 . S
H390 C386 0.950 . S
C391 C389 1.390 . S
C391 C392 1.387 . S
C391 H394 0.950 . S
C392 C391 1.387 . S
C392 C395 1.387 . S
H393 C389 0.950 . S
H394 C391 0.950 . S
C395 C386 1.390 . S
C395 H388 0.950 . S
C395 C392 1.387 . S
C396 C397 1.387 1_545 S
C396 H400 0.950 . S
C396 C405 1.390 1_545 S
C397 C396 1.387 1_565 S
C397 C399 1.387 . S
H398 C405 0.950 1_545 S
C399 C397 1.387 . S
C399 C401 1.390 . S
C399 H403 0.950 . S
H400 C396 0.950 . S
C401 C399 1.390 . S
C401 C402 1.387 . S
C401 H404 0.950 . S
C402 C401 1.387 . S
C402 C405 1.387 . S
H403 C399 0.950 . S
H404 C401 0.950 . S
C405 C396 1.390 1_565 S
C405 H398 0.950 1_565 S
C405 C402 1.387 . S
C406 C407 1.387 1_565 S
C406 H410 0.950 . S
C406 C415 1.390 1_565 S
C407 C406 1.387 1_545 S
C407 C409 1.387 . S
H408 C415 0.950 . S
C409 C407 1.387 . S
C409 C411 1.390 . S
C409 H413 0.950 . S
H410 C406 0.950 . S
C411 C409 1.390 . S
C411 C412 1.387 . S
C411 H414 0.950 . S
C412 C411 1.387 . S
C412 C415 1.387 . S
H413 C409 0.950 . S
H414 C411 0.950 . S
C415 C406 1.390 1_545 S
C415 H408 0.950 . S
C415 C412 1.387 . S
C416 C417 1.387 1_556 S
C416 H420 0.950 . S
C416 C425 1.390 . S
C417 C416 1.387 1_554 S
C417 C419 1.387 1_655 S
H418 C425 0.950 . S
C419 C417 1.387 1_455 S
C419 C421 1.390 . S
C419 H423 0.950 . S
H420 C416 0.950 . S
C421 C419 1.390 . S
C421 C422 1.387 1_554 S
C421 H424 0.950 . S
C422 C421 1.387 1_556 S
C422 C425 1.387 1_455 S
H423 C419 0.950 . S
H424 C421 0.950 . S
C425 C416 1.390 . S
C425 H418 0.950 . S
C425 C422 1.387 1_655 S
C426 C427 1.387 . S
C426 H430 0.950 . S
C426 C435 1.390 . S
C427 C426 1.387 . S
C427 C429 1.387 . S
H428 C435 0.950 . S
C429 C427 1.387 . S
C429 C431 1.390 . S
C429 H433 0.950 . S
H430 C426 0.950 . S
C431 C429 1.390 . S
C431 C432 1.387 . S
C431 H434 0.950 . S
C432 C431 1.387 . S
C432 C435 1.387 . S
H433 C429 0.950 . S
H434 C431 0.950 . S
C435 C426 1.390 . S
C435 H428 0.950 . S
C435 C432 1.387 . S
C436 C437 1.387 . S
C436 H440 0.950 . S
C436 C445 1.390 . S
C437 C436 1.387 . S
C437 C439 1.387 . S
H438 C445 0.950 . S
C439 C437 1.387 . S
C439 C441 1.390 . S
C439 H443 0.950 . S
H440 C436 0.950 . S
C441 C439 1.390 . S
C441 C442 1.387 . S
C441 H444 0.950 . S
C442 C441 1.387 . S
C442 C445 1.387 . S
H443 C439 0.950 . S
H444 C441 0.950 . S
C445 C436 1.390 . S
C445 H438 0.950 . S
C445 C442 1.387 . S
C446 C447 1.387 . S
C446 H450 0.950 . S
C446 C455 1.390 1_565 S
C447 C446 1.387 . S
C447 C449 1.387 1_455 S
H448 C455 0.950 . S
C449 C447 1.387 1_655 S
C449 C451 1.390 1_565 S
C449 H453 0.950 . S
H450 C446 0.950 . S
C451 C449 1.390 1_545 S
C451 C452 1.387 . S
C451 H454 0.950 . S
C452 C451 1.387 . S
C452 C455 1.387 1_655 S
H453 C449 0.950 . S
H454 C451 0.950 . S
C455 C446 1.390 1_545 S
C455 H448 0.950 . S
C455 C452 1.387 1_455 S
C456 C457 1.387 . S
C456 H460 0.950 . S
C456 C465 1.390 . S
C457 C456 1.387 . S
C457 C459 1.387 . S
H458 C465 0.950 . S
C459 C457 1.387 . S
C459 C461 1.390 . S
C459 H463 0.950 . S
H460 C456 0.950 . S
C461 C459 1.390 . S
C461 C462 1.387 . S
C461 H464 0.950 . S
C462 C461 1.387 . S
C462 C465 1.387 . S
H463 C459 0.950 . S
H464 C461 0.950 . S
C465 C456 1.390 . S
C465 H458 0.950 . S
C465 C462 1.387 . S
C466 C467 1.387 . S
C466 H470 0.950 . S
C466 C475 1.390 . S
C467 C466 1.387 . S
C467 C469 1.387 . S
H468 C475 0.950 . S
C469 C467 1.387 . S
C469 C471 1.390 . S
C469 H473 0.950 . S
H470 C466 0.950 . S
C471 C469 1.390 . S
C471 C472 1.387 . S
C471 H474 0.950 . S
C472 C471 1.387 . S
C472 C475 1.387 . S
H473 C469 0.950 . S
H474 C471 0.950 . S
C475 C466 1.390 . S
C475 H468 0.950 . S
C475 C472 1.387 . S
C476 C477 1.387 . S
C476 H480 0.950 . S
C476 C485 1.390 . S
C477 C476 1.387 . S
C477 C479 1.387 . S
H478 C485 0.950 . S
C479 C477 1.387 . S
C479 C481 1.390 . S
C479 H483 0.950 . S
H480 C476 0.950 . S
C481 C479 1.390 . S
C481 C482 1.387 . S
C481 H484 0.950 . S
C482 C481 1.387 . S
C482 C485 1.387 . S
H483 C479 0.950 . S
H484 C481 0.950 . S
C485 C476 1.390 . S
C485 H478 0.950 . S
C485 C482 1.387 . S
C486 C487 1.387 1_554 S
C486 H490 0.950 . S
C486 C495 1.390 1_565 S
C487 C486 1.387 1_556 S
C487 C489 1.387 . S
H488 C495 0.950 . S
C489 C487 1.387 . S
C489 C491 1.390 1_565 S
C489 H493 0.950 . S
H490 C486 0.950 . S
C491 C489 1.390 1_545 S
C491 C492 1.387 1_556 S
C491 H494 0.950 . S
C492 C491 1.387 1_554 S
C492 C495 1.387 . S
H493 C489 0.950 . S
H494 C491 0.950 . S
C495 C486 1.390 1_545 S
C495 H488 0.950 . S
C495 C492 1.387 . S
C496 C497 1.387 . S
C496 H500 0.950 . S
C496 C505 1.390 . S
C497 C496 1.387 . S
C497 C499 1.387 1_556 S
H498 C505 0.950 . S
C499 C497 1.387 1_554 S
C499 C501 1.390 . S
C499 H503 0.950 . S
H500 C496 0.950 . S
C501 C499 1.390 . S
C501 C502 1.387 . S
C501 H504 0.950 . S
C502 C501 1.387 . S
C502 C505 1.387 1_554 S
H503 C499 0.950 . S
H504 C501 0.950 . S
C505 C496 1.390 . S
C505 H498 0.950 . S
C505 C502 1.387 1_556 S
C506 C507 1.387 . S
C506 H510 0.950 . S
C506 C515 1.390 . S
C507 C506 1.387 . S
C507 C509 1.387 1_556 S
H508 C515 0.950 . S
C509 C507 1.387 1_554 S
C509 C511 1.390 . S
C509 H513 0.950 . S
H510 C506 0.950 . S
C511 C509 1.390 . S
C511 C512 1.387 . S
C511 H514 0.950 . S
C512 C511 1.387 . S
C512 C515 1.387 1_554 S
H513 C509 0.950 . S
H514 C511 0.950 . S
C515 C506 1.390 . S
C515 H508 0.950 . S
C515 C512 1.387 1_556 S
C516 C517 1.387 . S
C516 H520 0.950 . S
C516 C525 1.390 1_455 S
C517 C516 1.387 . S
C517 C519 1.387 . S
H518 C525 0.950 . S
C519 C517 1.387 . S
C519 C521 1.390 1_455 S
C519 H523 0.950 . S
H520 C516 0.950 . S
C521 C519 1.390 1_655 S
C521 C522 1.387 . S
C521 H524 0.950 . S
C522 C521 1.387 . S
C522 C525 1.387 . S
H523 C519 0.950 . S
H524 C521 0.950 . S
C525 C516 1.390 1_655 S
C525 H518 0.950 . S
C525 C522 1.387 . S
C526 C527 1.387 . S
C526 H530 0.950 . S
C526 C535 1.390 . S
C527 C526 1.387 . S
C527 C529 1.387 . S
H528 C535 0.950 . S
C529 C527 1.387 . S
C529 C531 1.390 . S
C529 H533 0.950 . S
H530 C526 0.950 . S
C531 C529 1.390 . S
C531 C532 1.387 . S
C531 H534 0.950 . S
C532 C531 1.387 . S
C532 C535 1.387 . S
H533 C529 0.950 . S
H534 C531 0.950 . S
C535 C526 1.390 . S
C535 H528 0.950 . S
C535 C532 1.387 . S
C536 C537 1.387 . S
C536 H540 0.950 . S
C536 C545 1.390 . S
C537 C536 1.387 . S
C537 C539 1.387 . S
H538 C545 0.950 . S
C539 C537 1.387 . S
C539 C541 1.390 . S
C539 H543 0.950 . S
H540 C536 0.950 . S
C541 C539 1.390 . S
C541 C542 1.387 . S
C541 H544 0.950 . S
C542 C541 1.387 . S
C542 C545 1.387 . S
H543 C539 0.950 . S
H544 C541 0.950 . S
C545 C536 1.390 . S
C545 H538 0.950 . S
C545 C542 1.387 . S
C546 C547 1.387 . S
C546 H550 0.950 . S
C546 C555 1.390 1_655 S
C547 C546 1.387 . S
C547 C549 1.387 1_545 S
H548 C555 0.950 . S
C549 C547 1.387 1_565 S
C549 C551 1.390 1_655 S
C549 H553 0.950 . S
H550 C546 0.950 . S
C551 C549 1.390 1_455 S
C551 C552 1.387 . S
C551 H554 0.950 . S
C552 C551 1.387 . S
C552 C555 1.387 1_565 S
H553 C549 0.950 . S
H554 C551 0.950 . S
C555 C546 1.390 1_455 S
C555 H548 0.950 . S
C555 C552 1.387 1_545 S
C556 C557 1.387 . S
C556 H560 0.950 . S
C556 C565 1.390 . S
C557 C556 1.387 . S
C557 C559 1.387 . S
H558 C565 0.950 . S
C559 C557 1.387 . S
C559 C561 1.390 . S
C559 H563 0.950 . S
H560 C556 0.950 . S
C561 C559 1.390 . S
C561 C562 1.387 . S
C561 H564 0.950 . S
C562 C561 1.387 . S
C562 C565 1.387 . S
H563 C559 0.950 . S
H564 C561 0.950 . S
C565 C556 1.390 . S
C565 H558 0.950 . S
C565 C562 1.387 . S
C566 C567 1.387 . S
C566 H570 0.950 . S
C566 C575 1.390 1_565 S
C567 C566 1.387 . S
C567 C569 1.387 . S
H568 C575 0.950 . S
C569 C567 1.387 . S
C569 C571 1.390 1_565 S
C569 H573 0.950 . S
H570 C566 0.950 . S
C571 C569 1.390 1_545 S
C571 C572 1.387 . S
C571 H574 0.950 . S
C572 C571 1.387 . S
C572 C575 1.387 . S
H573 C569 0.950 . S
H574 C571 0.950 . S
C575 C566 1.390 1_545 S
C575 H568 0.950 . S
C575 C572 1.387 . S
C257 C18 2.051 . S
C262 C53 2.016 . S
C267 C21 1.884 . S
C272 C82 1.828 . S
C277 C113 2.018 . S
C282 C54 2.053 . S
C287 C81 1.883 . S
C292 C118 1.826 . S
C297 C114 2.051 . S
C302 C149 2.016 . S
C307 C178 1.827 . S
C312 C117 1.884 . S
C317 C150 2.052 . S
C322 C17 2.016 1_565 S
C327 C177 1.884 . S
C332 C22 1.827 1_545 S
C337 C181 2.018 . S
C342 C210 2.053 . S
C347 C213 1.884 . S
C352 C146 1.828 . S
C357 C241 2.018 . S
C362 C182 2.053 . S
C367 C246 1.827 . S
C372 C145 1.883 . S
C377 C242 2.053 . S
C382 C85 2.017 . S
C387 C50 1.827 . S
C392 C245 1.884 . S
C397 C209 2.016 1_565 S
C402 C86 2.052 . S
C407 C214 1.828 1_545 S
C412 C49 1.884 . S
C417 C19 1.119 1_554 S
C422 C23 1.119 1_556 S
C427 C51 1.119 . S
C432 C55 1.119 . S
C437 C83 1.119 . S
C442 C87 1.119 . S
C447 C119 1.118 . S
C452 C115 1.118 . S
C457 C147 1.118 . S
C462 C151 1.118 . S
C467 C179 1.118 . S
C472 C183 1.118 . S
C477 C211 1.119 . S
C482 C215 1.119 . S
C487 C247 1.117 1_556 S
C492 C243 1.117 1_554 S
C497 C240 1.438 . S
C502 C20 1.438 . S
C507 C16 1.438 . S
C512 C244 1.438 . S
C517 C48 1.438 . S
C522 C84 1.438 . S
C527 C208 1.437 . S
C532 C116 1.437 . S
C537 C112 1.437 . S
C542 C212 1.437 . S
C547 C180 1.438 . S
C552 C144 1.438 . S
C557 C176 1.437 . S
C562 C148 1.437 . S
C567 C80 1.437 . S
C572 C52 1.437 . S
