# Generated by pormake.
# Topology wjh, (4)-cn, num edge types: 1
# Building blocks:
#     Node 0, Type 0, BuildingBlock: GALJAG_clean_sbu_0, # of connection points: 4
#     Node 1, Type 0, BuildingBlock: GALJAG_clean_sbu_0, # of connection points: 4
#     Node 2, Type 0, BuildingBlock: GALJAG_clean_sbu_0, # of connection points: 4
#     Node 3, Type 0, BuildingBlock: GALJAG_clean_sbu_0, # of connection points: 4
#     Node 4, Type 0, BuildingBlock: GALJAG_clean_sbu_0, # of connection points: 4
#     Node 5, Type 0, BuildingBlock: GALJAG_clean_sbu_0, # of connection points: 4
#     Node 6, Type 0, BuildingBlock: GALJAG_clean_sbu_0, # of connection points: 4
#     Node 7, Type 0, BuildingBlock: GALJAG_clean_sbu_0, # of connection points: 4
#     Node 8, Type 0, BuildingBlock: GALJAG_clean_sbu_0, # of connection points: 4
#     Node 9, Type 0, BuildingBlock: GALJAG_clean_sbu_0, # of connection points: 4
#     Node 10, Type 0, BuildingBlock: GALJAG_clean_sbu_0, # of connection points: 4
#     Node 11, Type 0, BuildingBlock: GALJAG_clean_sbu_0, # of connection points: 4
#     Edge 12, Type (0, 0), BuildingBlock: KIFKEQ_clean_linker_1, # of connection points: 2
#     Edge 13, Type (0, 0), BuildingBlock: KIFKEQ_clean_linker_1, # of connection points: 2
#     Edge 14, Type (0, 0), BuildingBlock: KIFKEQ_clean_linker_1, # of connection points: 2
#     Edge 15, Type (0, 0), BuildingBlock: KIFKEQ_clean_linker_1, # of connection points: 2
#     Edge 16, Type (0, 0), BuildingBlock: KIFKEQ_clean_linker_1, # of connection points: 2
#     Edge 17, Type (0, 0), BuildingBlock: KIFKEQ_clean_linker_1, # of connection points: 2
#     Edge 18, Type (0, 0), BuildingBlock: KIFKEQ_clean_linker_1, # of connection points: 2
#     Edge 19, Type (0, 0), BuildingBlock: KIFKEQ_clean_linker_1, # of connection points: 2
#     Edge 20, Type (0, 0), BuildingBlock: KIFKEQ_clean_linker_1, # of connection points: 2
#     Edge 21, Type (0, 0), BuildingBlock: KIFKEQ_clean_linker_1, # of connection points: 2
#     Edge 22, Type (0, 0), BuildingBlock: KIFKEQ_clean_linker_1, # of connection points: 2
#     Edge 23, Type (0, 0), BuildingBlock: KIFKEQ_clean_linker_1, # of connection points: 2
#     Edge 24, Type (0, 0), BuildingBlock: KIFKEQ_clean_linker_1, # of connection points: 2
#     Edge 25, Type (0, 0), BuildingBlock: KIFKEQ_clean_linker_1, # of connection points: 2
#     Edge 26, Type (0, 0), BuildingBlock: KIFKEQ_clean_linker_1, # of connection points: 2
#     Edge 27, Type (0, 0), BuildingBlock: KIFKEQ_clean_linker_1, # of connection points: 2
#     Edge 28, Type (0, 0), BuildingBlock: KIFKEQ_clean_linker_1, # of connection points: 2
#     Edge 29, Type (0, 0), BuildingBlock: KIFKEQ_clean_linker_1, # of connection points: 2
#     Edge 30, Type (0, 0), BuildingBlock: KIFKEQ_clean_linker_1, # of connection points: 2
#     Edge 31, Type (0, 0), BuildingBlock: KIFKEQ_clean_linker_1, # of connection points: 2
#     Edge 32, Type (0, 0), BuildingBlock: KIFKEQ_clean_linker_1, # of connection points: 2
#     Edge 33, Type (0, 0), BuildingBlock: KIFKEQ_clean_linker_1, # of connection points: 2
#     Edge 34, Type (0, 0), BuildingBlock: KIFKEQ_clean_linker_1, # of connection points: 2
#     Edge 35, Type (0, 0), BuildingBlock: KIFKEQ_clean_linker_1, # of connection points: 2
# Relax obj value: 0.053
# Max RMSD: 0.092
# Mean RMSD: 0.092
data_MOF--net-wjh--node1-GALJAG_clean_sbu_0--edge1-KIFKEQ_clean_linker_1
_symmetry_space_group_name_H-M    P1
_symmetry_Int_Tables_number       1
_symmetry_cell_setting            triclinic
loop_
_symmetry_equiv_pos_as_xyz
'x, y, z'
_cell_length_a     61.250968
_cell_length_b     61.210196
_cell_length_c     28.287347
_cell_angle_alpha  90.062843
_cell_angle_beta   89.983211
_cell_angle_gamma 119.97084
loop_
_atom_site_label
_atom_site_type_symbol
_atom_site_fract_x
_atom_site_fract_y
_atom_site_fract_z
_atom_type_partial_charge
In0 In 0.51774 0.14342 0.05367 0.0
O1 O 0.55051 0.15252 1.00348 0.0
O2 O 0.51499 0.14293 0.97338 0.0
C3 C 0.53743 0.14747 0.1403 0.0
C4 C 0.48586 0.0934 0.05543 0.0
C5 C 0.51216 0.18397 0.06335 0.0
O6 O 0.54956 0.14871 0.10318 0.0
O7 O 0.51562 0.14416 0.13341 0.0
O8 O 0.4933 0.16188 0.06206 0.0
O9 O 0.53321 0.18529 0.05737 0.0
C10 C 0.53766 0.14891 0.96633 0.0
O11 O 0.47806 0.10867 0.04718 0.0
O12 O 0.50927 0.10349 0.06207 0.0
In13 In 0.37177 0.5262 0.20754 0.0
O14 O 0.39415 0.56024 0.15909 0.0
O15 O 0.36781 0.52525 0.12749 0.0
C16 C 0.38661 0.54382 0.29632 0.0
C17 C 0.39221 0.49638 0.20074 0.0
C18 C 0.32372 0.51506 0.21849 0.0
O19 O 0.39378 0.55843 0.26096 0.0
O20 O 0.3726 0.52085 0.28642 0.0
O21 O 0.32966 0.49807 0.21613 0.0
O22 O 0.3418 0.53725 0.21315 0.0
C23 C 0.38414 0.54817 0.12145 0.0
O24 O 0.3686 0.48746 0.20128 0.0
O25 O 0.40518 0.52013 0.20281 0.0
In26 In 0.84448 0.37593 0.38683 0.0
O27 O 0.83331 0.39845 0.33779 0.0
O28 O 0.84421 0.37374 0.30648 0.0
C29 C 0.83928 0.39119 0.47331 0.0
C30 C 0.89487 0.39667 0.38605 0.0
C31 C 0.80782 0.32776 0.39837 0.0
O32 O 0.83411 0.39917 0.43608 0.0
O33 O 0.847 0.37583 0.4665 0.0
O34 O 0.83089 0.33418 0.39967 0.0
O35 O 0.8035 0.34536 0.38874 0.0
C36 C 0.83711 0.38966 0.30021 0.0
O37 O 0.88041 0.37358 0.3768 0.0
O38 O 0.88384 0.40897 0.39468 0.0
In39 In 0.46924 0.85237 0.5432 0.0
O40 O 0.4392 0.8528 0.495 0.0
O41 O 0.46221 0.83919 0.4664 0.0
C42 C 0.43876 0.84529 0.61826 0.0
C43 C 0.50881 0.90001 0.53912 0.0
C44 C 0.48759 0.82115 0.55939 0.0
O45 O 0.44879 0.86526 0.59413 0.0
O46 O 0.4427 0.82827 0.60266 0.0
O47 O 0.49896 0.84388 0.57257 0.0
O48 O 0.46737 0.8144 0.53709 0.0
C49 C 0.44484 0.84419 0.45931 0.0
O50 O 0.49826 0.8872 0.50267 0.0
O51 O 0.49985 0.88859 0.57747 0.0
In52 In 0.61783 0.48291 0.70425 0.0
O53 O 0.5966 0.44891 0.65551 0.0
O54 O 0.62236 0.48426 0.62434 0.0
C55 C 0.5995 0.46516 0.79109 0.0
C56 C 0.5986 0.51363 0.69502 0.0
C57 C 0.66463 0.49128 0.72026 0.0
O58 O 0.59205 0.45108 0.75495 0.0
O59 O 0.61583 0.48778 0.783 0.0
O60 O 0.66002 0.5092 0.71737 0.0
O61 O 0.64598 0.46966 0.71278 0.0
C62 C 0.60649 0.4612 0.61808 0.0
O63 O 0.62214 0.52219 0.69703 0.0
O64 O 0.58527 0.48992 0.69674 0.0
In65 In 0.13572 0.61876 0.87413 0.0
O66 O 0.1453 0.5956 0.82397 0.0
O67 O 0.14015 0.62472 0.79447 0.0
C68 C 0.13633 0.59812 0.95814 0.0
C69 C 0.08611 0.60069 0.86333 0.0
C70 C 0.17267 0.66633 0.89153 0.0
O71 O 0.14993 0.59883 0.92397 0.0
O72 O 0.1224 0.60729 0.94953 0.0
O73 O 0.14971 0.66029 0.89244 0.0
O74 O 0.17666 0.64875 0.88009 0.0
C75 C 0.14484 0.6071 0.78722 0.0
O76 O 0.1012 0.62384 0.87119 0.0
O77 O 0.09621 0.58711 0.86015 0.0
In78 In 0.84698 0.47783 0.88729 0.0
O79 O 0.88283 0.51657 0.89035 0.0
O80 O 0.88638 0.48367 0.89006 0.0
C81 C 0.81011 0.48904 0.87525 0.0
C82 C 0.83864 0.45735 0.97445 0.0
C83 C 0.84251 0.45683 0.80134 0.0
O84 O 0.83313 0.50582 0.87413 0.0
O85 O 0.80595 0.46718 0.88481 0.0
O86 O 0.83623 0.4438 0.83874 0.0
O87 O 0.85114 0.48008 0.8077 0.0
C88 C 0.89735 0.50744 0.89061 0.0
O89 O 0.83534 0.44459 0.93725 0.0
O90 O 0.84579 0.48036 0.96758 0.0
In91 In 0.36995 0.8537 0.04137 0.0
O92 O 0.36684 0.88925 0.05137 0.0
O93 O 0.40286 0.89326 0.03746 0.0
C94 C 0.3223 0.8159 0.03204 0.0
C95 C 0.38332 0.84629 0.12845 0.0
C96 C 0.38337 0.84899 0.95257 0.0
O97 O 0.32781 0.83876 0.03098 0.0
O98 O 0.34064 0.8124 0.03967 0.0
O99 O 0.39144 0.84269 0.98831 0.0
O100 O 0.36904 0.85766 0.96211 0.0
C101 C 0.39016 0.90399 0.04491 0.0
O102 O 0.3947 0.84577 0.09146 0.0
O103 O 0.36521 0.85019 0.12122 0.0
In104 In 0.51871 0.38434 0.20657 0.0
O105 O 0.4787 0.37857 0.2078 0.0
O106 O 0.50974 0.41489 0.22408 0.0
C107 C 0.51324 0.3393 0.18352 0.0
C108 C 0.54089 0.3943 0.29235 0.0
C109 C 0.53626 0.40575 0.1217 0.0
O110 O 0.49494 0.34111 0.19974 0.0
O111 O 0.53391 0.35973 0.18162 0.0
O112 O 0.5504 0.41171 0.15768 0.0
O113 O 0.51346 0.38965 0.12916 0.0
C114 C 0.48624 0.40131 0.21866 0.0
O115 O 0.5524 0.40618 0.25556 0.0
O116 O 0.51841 0.377 0.28558 0.0
In117 In 0.13474 0.5187 0.37467 0.0
O118 O 0.09877 0.48073 0.38634 0.0
O119 O 0.09578 0.51358 0.37448 0.0
C120 C 0.1716 0.50754 0.36247 0.0
C121 C 0.14307 0.54028 0.46072 0.0
C122 C 0.1374 0.53741 0.28747 0.0
O123 O 0.14862 0.49087 0.35888 0.0
O124 O 0.17556 0.5291 0.37409 0.0
O125 O 0.14755 0.55173 0.32272 0.0
O126 O 0.12613 0.51417 0.29658 0.0
C127 C 0.08454 0.49009 0.38171 0.0
O128 O 0.14591 0.55259 0.4231 0.0
O129 O 0.13637 0.51732 0.45467 0.0
In130 In 0.61574 0.13726 0.55251 0.0
O131 O 0.59385 0.14901 0.60222 0.0
O132 O 0.6152 0.13397 0.63281 0.0
C133 C 0.59931 0.14478 0.46903 0.0
C134 C 0.59996 0.0876 0.5461 0.0
C135 C 0.66348 0.17537 0.54415 0.0
O136 O 0.58636 0.14004 0.5064 0.0
O137 O 0.62021 0.14576 0.47412 0.0
O138 O 0.65748 0.1527 0.53654 0.0
O139 O 0.64565 0.17846 0.5583 0.0
C140 C 0.60077 0.14285 0.6395 0.0
O141 O 0.62154 0.10321 0.56182 0.0
O142 O 0.58659 0.09704 0.53445 0.0
In143 In 0.47067 0.62407 0.70831 0.0
O144 O 0.5105 0.62958 0.70224 0.0
O145 O 0.481 0.59461 0.72802 0.0
C146 C 0.49182 0.6734 0.68647 0.0
C147 C 0.44882 0.61445 0.79473 0.0
C148 C 0.44157 0.60095 0.63148 0.0
O149 O 0.49668 0.65849 0.66411 0.0
O150 O 0.47702 0.66364 0.72099 0.0
O151 O 0.44165 0.61939 0.65152 0.0
O152 O 0.45483 0.59337 0.6518 0.0
C153 C 0.50394 0.6077 0.7171 0.0
O154 O 0.43612 0.60559 0.75726 0.0
O155 O 0.47217 0.62859 0.78824 0.0
H156 H 0.51934 0.15547 0.22231 0.0
H157 H 0.57802 0.14323 0.16677 0.0
H158 H 0.53489 0.15722 0.30218 0.0
H159 H 0.59296 0.14372 0.24684 0.0
H160 H 0.62787 0.16638 0.39112 0.0
H161 H 0.6137 0.16923 0.31224 0.0
H162 H 0.53658 0.13147 0.36181 0.0
H163 H 0.5511 0.12983 0.44136 0.0
C164 C 0.53553 0.15303 0.22729 0.0
C165 C 0.54749 0.1492 0.18839 0.0
C166 C 0.54435 0.15385 0.27314 0.0
C167 C 0.56514 0.15049 0.28124 0.0
C168 C 0.57718 0.14682 0.24207 0.0
C169 C 0.56856 0.14637 0.19612 0.0
C170 C 0.60791 0.1589 0.38516 0.0
C171 C 0.59055 0.14783 0.42225 0.0
C172 C 0.59974 0.16033 0.33982 0.0
C173 C 0.57394 0.15034 0.33029 0.0
C174 C 0.55663 0.13968 0.36782 0.0
C175 C 0.56488 0.13862 0.41342 0.0
H176 H 0.41442 0.59236 0.32978 0.0
H177 H 0.37393 0.51459 0.3749 0.0
H178 H 0.42548 0.60572 0.41227 0.0
H179 H 0.38463 0.52785 0.4567 0.0
H180 H 0.43679 0.55966 0.58593 0.0
H181 H 0.42269 0.54627 0.50519 0.0
H182 H 0.40637 0.60687 0.48979 0.0
H183 H 0.4208 0.62048 0.57092 0.0
C184 C 0.40785 0.57817 0.35725 0.0
C185 C 0.39346 0.55244 0.34581 0.0
C186 C 0.414 0.5858 0.40447 0.0
C187 C 0.40597 0.56782 0.44103 0.0
C188 C 0.39138 0.54215 0.4294 0.0
C189 C 0.38519 0.53457 0.38245 0.0
C190 C 0.42986 0.56992 0.5656 0.0
C191 C 0.42982 0.59106 0.58483 0.0
C192 C 0.42174 0.56223 0.5193 0.0
C193 C 0.41349 0.57556 0.49097 0.0
C194 C 0.4129 0.5964 0.51055 0.0
C195 C 0.42088 0.60401 0.55714 0.0
H196 H 0.82394 0.40734 0.77673 0.0
H197 H 0.85538 0.48218 0.71794 0.0
H198 H 0.82041 0.39017 0.69716 0.0
H199 H 0.85238 0.46521 0.63892 0.0
H200 H 0.82421 0.42484 0.4987 0.0
H201 H 0.82245 0.43933 0.57847 0.0
H202 H 0.84843 0.39088 0.63571 0.0
H203 H 0.84964 0.37608 0.55646 0.0
C204 C 0.83011 0.42009 0.74685 0.0
C205 C 0.84002 0.44608 0.75355 0.0
C206 C 0.82817 0.4103 0.70132 0.0
C207 C 0.83609 0.42633 0.66167 0.0
C208 C 0.84573 0.45229 0.66854 0.0
C209 C 0.84766 0.46204 0.71392 0.0
C210 C 0.82936 0.4172 0.52841 0.0
C211 C 0.83717 0.39943 0.52134 0.0
C212 C 0.82847 0.42556 0.57405 0.0
C213 C 0.83537 0.4163 0.61347 0.0
C214 C 0.84267 0.39815 0.60628 0.0
C215 C 0.84356 0.38982 0.56076 0.0
H216 H 0.42192 0.8068 0.6823 0.0
H217 H 0.4291 0.87987 0.65959 0.0
H218 H 0.40714 0.80621 0.76282 0.0
H219 H 0.41466 0.87944 0.74006 0.0
H220 H 0.36737 0.86147 0.87286 0.0
H221 H 0.37804 0.85849 0.7912 0.0
H222 H 0.42496 0.82851 0.83806 0.0
H223 H 0.41388 0.83114 0.92028 0.0
C224 C 0.42001 0.82258 0.69428 0.0
C225 C 0.42662 0.84337 0.66455 0.0
C226 C 0.4118 0.82236 0.74058 0.0
C227 C 0.40988 0.84285 0.75805 0.0
C228 C 0.41569 0.86324 0.72767 0.0
C229 C 0.424 0.86351 0.68151 0.0
C230 C 0.37994 0.85418 0.86584 0.0
C231 C 0.3899 0.84665 0.9031 0.0
C232 C 0.38613 0.85258 0.81896 0.0
C233 C 0.40244 0.84338 0.80801 0.0
C234 C 0.41213 0.83546 0.84524 0.0
C235 C 0.40594 0.83711 0.89234 0.0
H236 H 0.50885 0.39478 0.04067 0.0
H237 H 0.58479 0.43831 0.09446 0.0
H238 H 0.52416 0.40901 0.96078 0.0
H239 H 0.60023 0.45226 0.0142 0.0
H240 H 0.61372 0.49282 0.87198 0.0
H241 H 0.59849 0.47884 0.9519 0.0
H242 H 0.54926 0.40338 0.8998 0.0
H243 H 0.56426 0.41755 0.81932 0.0
C244 C 0.52883 0.40744 0.03541 0.0
C245 C 0.54564 0.4155 0.07382 0.0
C246 C 0.53762 0.41541 0.98957 0.0
C247 C 0.56341 0.43164 0.98109 0.0
C248 C 0.5802 0.43993 0.01963 0.0
C249 C 0.5714 0.43192 0.06556 0.0
C250 C 0.59964 0.47323 0.87753 0.0
C251 C 0.59014 0.45626 0.83938 0.0
C252 C 0.59104 0.4652 0.92341 0.0
C253 C 0.57271 0.44001 0.93224 0.0
C254 C 0.5632 0.423 0.89405 0.0
C255 C 0.57185 0.43105 0.84803 0.0
H256 H 0.17079 0.58362 0.25026 0.0
H257 H 0.10563 0.51186 0.21556 0.0
H258 H 0.17171 0.59799 0.16871 0.0
H259 H 0.10625 0.52645 0.13502 0.0
H260 H 0.09955 0.58063 0.02444 0.0
H261 H 0.10084 0.56608 0.10425 0.0
H262 H 0.17615 0.57983 0.07909 0.0
H263 H 0.17467 0.59384 0.99827 0.0
C264 C 0.15667 0.57103 0.22531 0.0
C265 C 0.13812 0.54668 0.2391 0.0
C266 C 0.15731 0.57915 0.1788 0.0
C267 C 0.13906 0.56323 0.14593 0.0
C268 C 0.12048 0.53901 0.15986 0.0
C269 C 0.12017 0.53071 0.20586 0.0
C270 C 0.11632 0.58038 0.0358 0.0
C271 C 0.13698 0.58822 0.00525 0.0
C272 C 0.11703 0.57209 0.08136 0.0
C273 C 0.13862 0.57201 0.09757 0.0
C274 C 0.15937 0.57991 0.06723 0.0
C275 C 0.15844 0.58769 0.0211 0.0
H276 H 0.4768 0.29016 0.20176 0.0
H277 H 0.544 0.3358 0.11984 0.0
H278 H 0.47487 0.2519 0.16987 0.0
H279 H 0.54142 0.29823 0.08628 0.0
H280 H 0.55101 0.23045 0.08292 0.0
H281 H 0.5494 0.26677 0.11161 0.0
H282 H 0.46806 0.22535 0.10176 0.0
H283 H 0.46974 0.1881 0.07485 0.0
C284 C 0.49098 0.29196 0.1767 0.0
C285 C 0.51083 0.31586 0.164 0.0
C286 C 0.48979 0.27013 0.15811 0.0
C287 C 0.50823 0.27194 0.126 0.0
C288 C 0.52735 0.296 0.112 0.0
C289 C 0.5288 0.31761 0.13116 0.0
C290 C 0.53274 0.22906 0.08637 0.0
C291 C 0.5105 0.20646 0.07629 0.0
C292 C 0.5318 0.25002 0.10269 0.0
C293 C 0.5086 0.24918 0.1086 0.0
C294 C 0.48624 0.2266 0.098 0.0
C295 C 0.48719 0.20536 0.08214 0.0
H296 H 0.30687 0.5484 0.21956 0.0
H297 H 0.28401 0.47084 0.25126 0.0
H298 H 0.26867 0.54308 0.25642 0.0
H299 H 0.24554 0.46557 0.28881 0.0
H300 H 0.16911 0.46822 0.31137 0.0
H301 H 0.20461 0.46708 0.2735 0.0
H302 H 0.2564 0.53727 0.34203 0.0
H303 H 0.22128 0.53855 0.37919 0.0
C304 C 0.29349 0.53009 0.23383 0.0
C305 C 0.29853 0.51011 0.233 0.0
C306 C 0.27171 0.5271 0.25527 0.0
C307 C 0.25448 0.50409 0.27644 0.0
C308 C 0.25861 0.48354 0.27294 0.0
C309 C 0.28056 0.48655 0.25141 0.0
C310 C 0.18814 0.48305 0.3191 0.0
C311 C 0.19248 0.50364 0.34771 0.0
C312 C 0.20839 0.48243 0.29736 0.0
C313 C 0.23314 0.50241 0.30397 0.0
C314 C 0.23745 0.52196 0.33534 0.0
C315 C 0.21735 0.52259 0.35691 0.0
H316 H 0.6799 0.22514 0.55749 0.0
H317 H 0.70187 0.17419 0.49673 0.0
H318 H 0.71607 0.26065 0.52049 0.0
H319 H 0.73816 0.20995 0.45918 0.0
H320 H 0.81238 0.28894 0.43586 0.0
H321 H 0.77914 0.25101 0.47448 0.0
H322 H 0.72456 0.27286 0.43551 0.0
H323 H 0.75753 0.31058 0.39747 0.0
C324 C 0.6927 0.22157 0.53687 0.0
C325 C 0.68794 0.19688 0.52965 0.0
C326 C 0.71329 0.24188 0.51533 0.0
C327 C 0.72957 0.23796 0.4861 0.0
C328 C 0.72584 0.21347 0.48141 0.0
C329 C 0.70513 0.19305 0.50297 0.0
C330 C 0.79318 0.28534 0.43484 0.0
C331 C 0.78756 0.3028 0.41402 0.0
C332 C 0.77421 0.2637 0.45702 0.0
C333 C 0.74942 0.25933 0.45887 0.0
C334 C 0.74364 0.27609 0.43567 0.0
C335 C 0.76249 0.29757 0.41348 0.0
H336 H 0.51954 0.82597 0.63094 0.0
H337 H 0.47321 0.77534 0.52027 0.0
H338 H 0.52736 0.79314 0.66195 0.0
H339 H 0.48138 0.7428 0.55073 0.0
H340 H 0.51189 0.69361 0.60065 0.0
H341 H 0.51728 0.73283 0.56719 0.0
H342 H 0.49474 0.75015 0.70018 0.0
H343 H 0.489 0.71081 0.73353 0.0
C344 C 0.51155 0.80806 0.6126 0.0
C345 C 0.49565 0.80308 0.5734 0.0
C346 C 0.51596 0.7893 0.63044 0.0
C347 C 0.50496 0.7655 0.60871 0.0
C348 C 0.49029 0.76108 0.56785 0.0
C349 C 0.4855 0.77963 0.55059 0.0
C350 C 0.50867 0.70608 0.62307 0.0
C351 C 0.4998 0.69909 0.66955 0.0
C352 C 0.51167 0.72844 0.60385 0.0
C353 C 0.50629 0.74437 0.63106 0.0
C354 C 0.49919 0.73827 0.67858 0.0
C355 C 0.4958 0.71572 0.69757 0.0
H356 H 0.70416 0.53333 0.76012 0.0
H357 H 0.67928 0.45621 0.72049 0.0
H358 H 0.74047 0.53553 0.80118 0.0
H359 H 0.71546 0.45852 0.76058 0.0
H360 H 0.75983 0.45711 0.88363 0.0
H361 H 0.72615 0.46037 0.84487 0.0
H362 H 0.78039 0.53365 0.79032 0.0
H363 H 0.81429 0.53055 0.83005 0.0
C364 C 0.70675 0.51707 0.75932 0.0
C365 C 0.6888 0.49452 0.73752 0.0
C366 C 0.72746 0.51832 0.78289 0.0
C367 C 0.73045 0.49701 0.785 0.0
C368 C 0.71327 0.47503 0.7607 0.0
C369 C 0.69267 0.47378 0.73733 0.0
C370 C 0.76455 0.47413 0.86411 0.0
C371 C 0.78969 0.49347 0.85948 0.0
C372 C 0.74529 0.4759 0.84153 0.0
C373 C 0.75073 0.49699 0.81359 0.0
C374 C 0.77567 0.51714 0.81149 0.0
C375 C 0.79504 0.51538 0.83429 0.0
H376 H 0.2227 0.6835 0.88448 0.0
H377 H 0.16924 0.70431 0.93648 0.0
H378 H 0.25685 0.72058 0.92183 0.0
H379 H 0.20378 0.74169 0.97461 0.0
H380 H 0.28259 0.81827 0.99283 0.0
H381 H 0.2446 0.78317 0.95774 0.0
H382 H 0.26797 0.73117 0.0066 0.0
H383 H 0.30578 0.76597 0.04088 0.0
C384 C 0.21828 0.69618 0.9035 0.0
C385 C 0.1933 0.69091 0.90794 0.0
C386 C 0.23782 0.71731 0.92523 0.0
C387 C 0.23287 0.73367 0.95203 0.0
C388 C 0.20807 0.72928 0.95432 0.0
C389 C 0.18837 0.70798 0.93246 0.0
C390 C 0.27928 0.79925 0.99684 0.0
C391 C 0.29726 0.79484 0.01902 0.0
C392 C 0.25759 0.77922 0.97674 0.0
C393 C 0.25368 0.75457 0.97855 0.0
C394 C 0.27084 0.75008 1.00363 0.0
C395 C 0.2924 0.76998 0.02356 0.0
H396 H 0.57093 0.16268 0.66338 0.0
H397 H 0.61196 0.12901 0.72358 0.0
H398 H 0.55688 0.16639 0.74229 0.0
H399 H 0.59748 0.13213 0.80219 0.0
H400 H 0.58569 0.16133 0.94181 0.0
H401 H 0.60193 0.16187 0.8627 0.0
H402 H 0.52873 0.13974 0.80347 0.0
H403 H 0.51274 0.1398 0.88232 0.0
C404 C 0.57691 0.15605 0.69347 0.0
C405 C 0.59251 0.14552 0.68727 0.0
C406 C 0.56877 0.15805 0.73867 0.0
C407 C 0.57602 0.14954 0.77867 0.0
C408 C 0.59183 0.13923 0.77234 0.0
C409 C 0.59999 0.13727 0.72721 0.0
C410 C 0.57315 0.15677 0.91182 0.0
C411 C 0.54793 0.15047 0.9183 0.0
C412 C 0.5824 0.15691 0.8665 0.0
C413 C 0.56662 0.15073 0.82666 0.0
C414 C 0.54151 0.1449 0.8332 0.0
C415 C 0.53229 0.14479 0.87848 0.0
H416 H 0.39925 0.58388 0.819 0.0
H417 H 0.47354 0.62887 0.87897 0.0
H418 H 0.38194 0.56972 0.89817 0.0
H419 H 0.45652 0.61424 0.95764 0.0
H420 H 0.4172 0.59739 0.09877 0.0
H421 H 0.43098 0.61542 0.02003 0.0
H422 H 0.38229 0.54227 0.95783 0.0
H423 H 0.36802 0.52455 0.0363 0.0
C424 C 0.41184 0.59086 0.84911 0.0
C425 C 0.43776 0.60743 0.84271 0.0
C426 C 0.40197 0.58261 0.89448 0.0
C427 C 0.41783 0.59069 0.93445 0.0
C428 C 0.44364 0.60785 0.92794 0.0
C429 C 0.45346 0.61615 0.88269 0.0
C430 C 0.4093 0.58525 0.06821 0.0
C431 C 0.3916 0.55954 0.07377 0.0
C432 C 0.41729 0.59554 0.02305 0.0
C433 C 0.40786 0.58031 0.9824 0.0
C434 C 0.38972 0.55469 0.98812 0.0
C435 C 0.38165 0.54446 0.03322 0.0
H436 H 0.84887 0.48201 0.05908 0.0
H437 H 0.82149 0.40815 0.99801 0.0
H438 H 0.84651 0.46468 0.13769 0.0
H439 H 0.81841 0.39061 0.07675 0.0
H440 H 0.82098 0.42269 0.27714 0.0
H441 H 0.81866 0.43787 0.1985 0.0
H442 H 0.84608 0.39138 0.13728 0.0
H443 H 0.84769 0.37577 0.21554 0.0
C444 C 0.84204 0.46199 0.06253 0.0
C445 C 0.83549 0.44646 0.02235 0.0
C446 C 0.84053 0.45201 0.10766 0.0
C447 C 0.83235 0.42623 0.11367 0.0
C448 C 0.8252 0.41061 0.07343 0.0
C449 C 0.82681 0.42062 0.02829 0.0
C450 C 0.82631 0.41559 0.24678 0.0
C451 C 0.83454 0.39806 0.25253 0.0
C452 C 0.82513 0.4244 0.20173 0.0
C453 C 0.83225 0.41592 0.16144 0.0
C454 C 0.84009 0.39806 0.16732 0.0
C455 C 0.84118 0.38921 0.21228 0.0
H456 H 0.44959 0.82049 0.38158 0.0
H457 H 0.41474 0.86275 0.42989 0.0
H458 H 0.43332 0.81876 0.30225 0.0
H459 H 0.39928 0.86201 0.35016 0.0
H460 H 0.3577 0.84017 0.21071 0.0
H461 H 0.37069 0.83726 0.2907 0.0
H462 H 0.43986 0.84445 0.23571 0.0
H463 H 0.42624 0.8463 0.15551 0.0
C464 C 0.43841 0.8294 0.37521 0.0
C465 C 0.43344 0.84175 0.412 0.0
C466 C 0.42924 0.82862 0.32956 0.0
C467 C 0.41508 0.84041 0.31936 0.0
C468 C 0.40977 0.85239 0.35656 0.0
C469 C 0.41873 0.85293 0.40235 0.0
C470 C 0.3756 0.84095 0.21572 0.0
C471 C 0.39095 0.84348 0.17678 0.0
C472 C 0.38317 0.83947 0.2617 0.0
C473 C 0.40645 0.84077 0.27005 0.0
C474 C 0.42165 0.84299 0.23085 0.0
C475 C 0.41393 0.84421 0.18477 0.0
H476 H 0.62026 0.4854 0.53328 0.0
H477 H 0.57586 0.41152 0.59519 0.0
H478 H 0.60566 0.46759 0.455 0.0
H479 H 0.5619 0.39339 0.51654 0.0
H480 H 0.5173 0.37715 0.37719 0.0
H481 H 0.53461 0.39208 0.45574 0.0
H482 H 0.6075 0.44206 0.39406 0.0
H483 H 0.5898 0.42774 0.31534 0.0
C484 C 0.60766 0.46526 0.53006 0.0
C485 C 0.59911 0.44988 0.5704 0.0
C486 C 0.5994 0.45497 0.48506 0.0
C487 C 0.58253 0.42899 0.47923 0.0
C488 C 0.57454 0.41352 0.51965 0.0
C489 C 0.58267 0.42387 0.56474 0.0
C490 C 0.53708 0.39115 0.38047 0.0
C491 C 0.55215 0.4014 0.34009 0.0
C492 C 0.54708 0.39964 0.42559 0.0
C493 C 0.57247 0.41844 0.43144 0.0
C494 C 0.58776 0.42795 0.39096 0.0
C495 C 0.57768 0.41962 0.34581 0.0
H496 H 0.16114 0.58983 0.48382 0.0
H497 H 0.13211 0.51588 0.54525 0.0
H498 H 0.16484 0.60773 0.56262 0.0
H499 H 0.13487 0.53344 0.62358 0.0
H500 H 0.15983 0.5734 0.76314 0.0
H501 H 0.16258 0.55901 0.68412 0.0
H502 H 0.13877 0.60866 0.62403 0.0
H503 H 0.137 0.62368 0.70293 0.0
C504 C 0.15556 0.57741 0.51418 0.0
C505 C 0.14631 0.55146 0.50837 0.0
C506 C 0.15752 0.58762 0.55933 0.0
C507 C 0.15011 0.57205 0.59962 0.0
C508 C 0.14118 0.54612 0.59361 0.0
C509 C 0.13941 0.53598 0.54858 0.0
C510 C 0.15544 0.5814 0.73296 0.0
C511 C 0.1481 0.59958 0.73922 0.0
C512 C 0.15684 0.57303 0.68765 0.0
C513 C 0.15069 0.58248 0.64755 0.0
C514 C 0.14396 0.60117 0.65391 0.0
C515 C 0.14279 0.60969 0.69921 0.0
H516 H 0.49831 0.05967 0.08823 0.0
H517 H 0.43651 0.06479 0.02654 0.0
H518 H 0.4733 0.01407 0.08678 0.0
H519 H 0.41135 0.01851 0.02396 0.0
H520 H 0.43821 0.93761 0.0209 0.0
H521 H 0.45919 0.98324 0.02371 0.0
H522 H 0.3906 0.9792 0.07371 0.0
H523 H 0.36917 0.93296 0.06975 0.0
C524 C 0.47932 0.051 0.07427 0.0
C525 C 0.46945 0.06577 0.05694 0.0
C526 C 0.46501 0.02483 0.07326 0.0
C527 C 0.44053 0.01268 0.05444 0.0
C528 C 0.43018 0.02739 0.03869 0.0
C529 C 0.44456 0.0538 0.03999 0.0
C530 C 0.42752 0.94637 0.03246 0.0
C531 C 0.40213 0.93173 0.04561 0.0
C532 C 0.43959 0.97256 0.03426 0.0
C533 C 0.42666 0.98482 0.04968 0.0
C534 C 0.40101 0.97025 0.06162 0.0
C535 C 0.38881 0.94385 0.05959 0.0
H536 H 0.43837 0.38189 0.18337 0.0
H537 H 0.49679 0.44557 0.25916 0.0
H538 H 0.4139 0.40353 0.17799 0.0
H539 H 0.47225 0.46674 0.25519 0.0
H540 H 0.44161 0.51177 0.18719 0.0
H541 H 0.46226 0.4868 0.19288 0.0
H542 H 0.39052 0.42019 0.22127 0.0
H543 H 0.36963 0.44529 0.21413 0.0
C544 C 0.4457 0.40026 0.19967 0.0
C545 C 0.46957 0.4122 0.22119 0.0
C546 C 0.43172 0.41264 0.19664 0.0
C547 C 0.44137 0.43708 0.21532 0.0
C548 C 0.4646 0.44825 0.2392 0.0
C549 C 0.47858 0.43604 0.24184 0.0
C550 C 0.43019 0.49176 0.19433 0.0
C551 C 0.40405 0.4805 0.20055 0.0
C552 C 0.44205 0.47747 0.19799 0.0
C553 C 0.42811 0.45158 0.20846 0.0
C554 C 0.40178 0.44008 0.21312 0.0
C555 C 0.38984 0.45443 0.20912 0.0
H556 H 0.05178 0.50631 0.36189 0.0
H557 H 0.05466 0.43996 0.40394 0.0
H558 H 0.00615 0.48239 0.36319 0.0
H559 H 0.00846 0.4159 0.40667 0.0
H560 H 0.92449 0.37732 0.35651 0.0
H561 H 0.97067 0.39883 0.35631 0.0
H562 H 0.97336 0.4642 0.42075 0.0
H563 H 0.9277 0.44319 0.4195 0.0
C564 C 0.04262 0.4866 0.37183 0.0
C565 C 0.05678 0.47504 0.38316 0.0
C566 C 0.01642 0.47289 0.37281 0.0
C567 C 0.00364 0.4473 0.38561 0.0
C568 C 0.01777 0.43556 0.39643 0.0
C569 C 0.04416 0.44933 0.39516 0.0
C570 C 0.93506 0.39627 0.37063 0.0
C571 C 0.92257 0.40872 0.38745 0.0
C572 C 0.96144 0.40852 0.37079 0.0
C573 C 0.97569 0.43334 0.388 0.0
C574 C 0.96301 0.44533 0.40619 0.0
C575 C 0.93681 0.43323 0.40565 0.0
H576 H 0.53478 0.93086 0.61287 0.0
H577 H 0.52586 0.93017 0.46128 0.0
H578 H 0.56115 0.97674 0.6113 0.0
H579 H 0.5523 0.97604 0.45978 0.0
H580 H 0.55933 0.05363 0.49624 0.0
H581 H 0.54202 0.00826 0.4914 0.0
H582 H 0.6019 0.0143 0.58095 0.0
H583 H 0.61946 0.06013 0.58567 0.0
C584 C 0.53889 0.94047 0.57913 0.0
C585 C 0.52804 0.92701 0.53726 0.0
C586 C 0.55409 0.96671 0.57822 0.0
C587 C 0.55854 0.97993 0.53548 0.0
C588 C 0.54891 0.9663 0.49328 0.0
C589 C 0.53386 0.94007 0.49413 0.0
C590 C 0.56895 0.04534 0.51461 0.0
C591 C 0.59066 0.06035 0.54155 0.0
C592 C 0.55916 0.01938 0.51148 0.0
C593 C 0.57069 0.00778 0.53561 0.0
C594 C 0.59264 0.0228 0.56207 0.0
C595 C 0.60269 0.04895 0.56468 0.0
H596 H 0.62146 0.56486 0.70823 0.0
H597 H 0.54944 0.49857 0.68017 0.0
H598 H 0.60056 0.59003 0.71559 0.0
H599 H 0.52884 0.52354 0.68658 0.0
H600 H 0.49498 0.56416 0.7586 0.0
H601 H 0.51998 0.54352 0.75271 0.0
H602 H 0.57593 0.60604 0.67081 0.0
H603 H 0.55093 0.62712 0.67762 0.0
C604 C 0.60128 0.55579 0.70297 0.0
C605 C 0.58703 0.52974 0.69412 0.0
C606 C 0.58934 0.57016 0.70714 0.0
C607 C 0.56301 0.55864 0.70255 0.0
C608 C 0.54906 0.53283 0.69155 0.0
C609 C 0.5609 0.51855 0.68753 0.0
C610 C 0.51275 0.57367 0.73977 0.0
C611 C 0.5209 0.5971 0.71813 0.0
C612 C 0.527 0.56177 0.73612 0.0
C613 C 0.54965 0.57293 0.71044 0.0
C614 C 0.55852 0.597 0.69078 0.0
C615 C 0.54423 0.60902 0.69463 0.0
H616 H 0.05807 0.62134 0.89475 0.0
H617 H 0.05194 0.55476 0.82916 0.0
H618 H 0.01214 0.60005 0.90203 0.0
H619 H 0.00631 0.53389 0.83475 0.0
H620 H 0.93113 0.49192 0.90582 0.0
H621 H 0.97662 0.51616 0.89749 0.0
H622 H 0.97186 0.58225 0.86124 0.0
H623 H 0.92603 0.55793 0.87126 0.0
C624 C 0.04686 0.60236 0.88105 0.0
C625 C 0.05851 0.58957 0.86187 0.0
C626 C 0.02058 0.59018 0.88515 0.0
C627 C 0.00556 0.56509 0.86978 0.0
C628 C 0.01731 0.55294 0.84822 0.0
C629 C 0.04347 0.56497 0.84463 0.0
C630 C 0.93978 0.51167 0.89639 0.0
C631 C 0.92506 0.52301 0.88893 0.0
C632 C 0.96587 0.52553 0.89118 0.0
C633 C 0.97788 0.55105 0.87779 0.0
C634 C 0.96321 0.56266 0.87169 0.0
C635 C 0.93699 0.54875 0.87734 0.0
loop_
_geom_bond_atom_site_label_1
_geom_bond_atom_site_label_2
_geom_bond_distance
_geom_bond_site_symmetry_2
_ccdc_geom_bond_type
In0 O1 2.294 1_554 S
In0 O2 2.326 1_554 S
In0 O6 2.266 . S
In0 O7 2.326 . S
In0 O8 2.266 . S
In0 O9 2.326 . S
In0 O11 2.294 . S
In0 O12 2.326 . S
O1 In0 2.294 1_556 S
O1 C10 1.240 . S
O2 In0 2.326 1_556 S
O2 C10 1.252 . S
C3 O6 1.252 . S
C3 O7 1.260 . S
C4 O11 1.240 . S
C4 O12 1.252 . S
C5 O8 1.252 . S
C5 O9 1.260 . S
O6 In0 2.266 . S
O6 C3 1.252 . S
O7 In0 2.326 . S
O7 C3 1.260 . S
O8 In0 2.266 . S
O8 C5 1.252 . S
O9 In0 2.326 . S
O9 C5 1.260 . S
C10 O1 1.240 . S
C10 O2 1.252 . S
O11 In0 2.294 . S
O11 C4 1.240 . S
O12 In0 2.326 . S
O12 C4 1.252 . S
In13 O14 2.294 . S
In13 O15 2.326 . S
In13 O19 2.266 . S
In13 O20 2.326 . S
In13 O21 2.266 . S
In13 O22 2.326 . S
In13 O24 2.294 . S
In13 O25 2.326 . S
O14 In13 2.294 . S
O14 C23 1.240 . S
O15 In13 2.326 . S
O15 C23 1.252 . S
C16 O19 1.252 . S
C16 O20 1.260 . S
C17 O24 1.240 . S
C17 O25 1.252 . S
C18 O21 1.252 . S
C18 O22 1.260 . S
O19 In13 2.266 . S
O19 C16 1.252 . S
O20 In13 2.326 . S
O20 C16 1.260 . S
O21 In13 2.266 . S
O21 C18 1.252 . S
O22 In13 2.326 . S
O22 C18 1.260 . S
C23 O14 1.240 . S
C23 O15 1.252 . S
O24 In13 2.294 . S
O24 C17 1.240 . S
O25 In13 2.326 . S
O25 C17 1.252 . S
In26 O27 2.294 . S
In26 O28 2.326 . S
In26 O32 2.266 . S
In26 O33 2.326 . S
In26 O34 2.266 . S
In26 O35 2.326 . S
In26 O37 2.294 . S
In26 O38 2.326 . S
O27 In26 2.294 . S
O27 C36 1.240 . S
O28 In26 2.326 . S
O28 C36 1.252 . S
C29 O32 1.252 . S
C29 O33 1.260 . S
C30 O37 1.240 . S
C30 O38 1.252 . S
C31 O34 1.252 . S
C31 O35 1.260 . S
O32 In26 2.266 . S
O32 C29 1.252 . S
O33 In26 2.326 . S
O33 C29 1.260 . S
O34 In26 2.266 . S
O34 C31 1.252 . S
O35 In26 2.326 . S
O35 C31 1.260 . S
C36 O27 1.240 . S
C36 O28 1.252 . S
O37 In26 2.294 . S
O37 C30 1.240 . S
O38 In26 2.326 . S
O38 C30 1.252 . S
In39 O40 2.294 . S
In39 O41 2.326 . S
In39 O45 2.266 . S
In39 O46 2.326 . S
In39 O47 2.266 . S
In39 O48 2.326 . S
In39 O50 2.294 . S
In39 O51 2.326 . S
O40 In39 2.294 . S
O40 C49 1.240 . S
O41 In39 2.326 . S
O41 C49 1.252 . S
C42 O45 1.252 . S
C42 O46 1.260 . S
C43 O50 1.240 . S
C43 O51 1.252 . S
C44 O47 1.252 . S
C44 O48 1.260 . S
O45 In39 2.266 . S
O45 C42 1.252 . S
O46 In39 2.326 . S
O46 C42 1.260 . S
O47 In39 2.266 . S
O47 C44 1.252 . S
O48 In39 2.326 . S
O48 C44 1.260 . S
C49 O40 1.240 . S
C49 O41 1.252 . S
O50 In39 2.294 . S
O50 C43 1.240 . S
O51 In39 2.326 . S
O51 C43 1.252 . S
In52 O53 2.294 . S
In52 O54 2.326 . S
In52 O58 2.266 . S
In52 O59 2.326 . S
In52 O60 2.266 . S
In52 O61 2.326 . S
In52 O63 2.294 . S
In52 O64 2.326 . S
O53 In52 2.294 . S
O53 C62 1.240 . S
O54 In52 2.326 . S
O54 C62 1.252 . S
C55 O58 1.252 . S
C55 O59 1.260 . S
C56 O63 1.240 . S
C56 O64 1.252 . S
C57 O60 1.252 . S
C57 O61 1.260 . S
O58 In52 2.266 . S
O58 C55 1.252 . S
O59 In52 2.326 . S
O59 C55 1.260 . S
O60 In52 2.266 . S
O60 C57 1.252 . S
O61 In52 2.326 . S
O61 C57 1.260 . S
C62 O53 1.240 . S
C62 O54 1.252 . S
O63 In52 2.294 . S
O63 C56 1.240 . S
O64 In52 2.326 . S
O64 C56 1.252 . S
In65 O66 2.294 . S
In65 O67 2.326 . S
In65 O71 2.266 . S
In65 O72 2.326 . S
In65 O73 2.266 . S
In65 O74 2.326 . S
In65 O76 2.294 . S
In65 O77 2.326 . S
O66 In65 2.294 . S
O66 C75 1.240 . S
O67 In65 2.326 . S
O67 C75 1.252 . S
C68 O71 1.252 . S
C68 O72 1.260 . S
C69 O76 1.240 . S
C69 O77 1.252 . S
C70 O73 1.252 . S
C70 O74 1.260 . S
O71 In65 2.266 . S
O71 C68 1.252 . S
O72 In65 2.326 . S
O72 C68 1.260 . S
O73 In65 2.266 . S
O73 C70 1.252 . S
O74 In65 2.326 . S
O74 C70 1.260 . S
C75 O66 1.240 . S
C75 O67 1.252 . S
O76 In65 2.294 . S
O76 C69 1.240 . S
O77 In65 2.326 . S
O77 C69 1.252 . S
In78 O79 2.294 . S
In78 O80 2.326 . S
In78 O84 2.266 . S
In78 O85 2.326 . S
In78 O86 2.266 . S
In78 O87 2.326 . S
In78 O89 2.294 . S
In78 O90 2.326 . S
O79 In78 2.294 . S
O79 C88 1.240 . S
O80 In78 2.326 . S
O80 C88 1.252 . S
C81 O84 1.252 . S
C81 O85 1.260 . S
C82 O89 1.240 . S
C82 O90 1.252 . S
C83 O86 1.252 . S
C83 O87 1.260 . S
O84 In78 2.266 . S
O84 C81 1.252 . S
O85 In78 2.326 . S
O85 C81 1.260 . S
O86 In78 2.266 . S
O86 C83 1.252 . S
O87 In78 2.326 . S
O87 C83 1.260 . S
C88 O79 1.240 . S
C88 O80 1.252 . S
O89 In78 2.294 . S
O89 C82 1.240 . S
O90 In78 2.326 . S
O90 C82 1.252 . S
In91 O92 2.294 . S
In91 O93 2.326 . S
In91 O97 2.266 . S
In91 O98 2.326 . S
In91 O99 2.266 1_554 S
In91 O100 2.326 1_554 S
In91 O102 2.294 . S
In91 O103 2.326 . S
O92 In91 2.294 . S
O92 C101 1.240 . S
O93 In91 2.326 . S
O93 C101 1.252 . S
C94 O97 1.252 . S
C94 O98 1.260 . S
C95 O102 1.240 . S
C95 O103 1.252 . S
C96 O99 1.252 . S
C96 O100 1.260 . S
O97 In91 2.266 . S
O97 C94 1.252 . S
O98 In91 2.326 . S
O98 C94 1.260 . S
O99 In91 2.266 1_556 S
O99 C96 1.252 . S
O100 In91 2.326 1_556 S
O100 C96 1.260 . S
C101 O92 1.240 . S
C101 O93 1.252 . S
O102 In91 2.294 . S
O102 C95 1.240 . S
O103 In91 2.326 . S
O103 C95 1.252 . S
In104 O105 2.294 . S
In104 O106 2.326 . S
In104 O110 2.266 . S
In104 O111 2.326 . S
In104 O112 2.266 . S
In104 O113 2.326 . S
In104 O115 2.294 . S
In104 O116 2.326 . S
O105 In104 2.294 . S
O105 C114 1.240 . S
O106 In104 2.326 . S
O106 C114 1.252 . S
C107 O110 1.252 . S
C107 O111 1.260 . S
C108 O115 1.240 . S
C108 O116 1.252 . S
C109 O112 1.252 . S
C109 O113 1.260 . S
O110 In104 2.266 . S
O110 C107 1.252 . S
O111 In104 2.326 . S
O111 C107 1.260 . S
O112 In104 2.266 . S
O112 C109 1.252 . S
O113 In104 2.326 . S
O113 C109 1.260 . S
C114 O105 1.240 . S
C114 O106 1.252 . S
O115 In104 2.294 . S
O115 C108 1.240 . S
O116 In104 2.326 . S
O116 C108 1.252 . S
In117 O118 2.294 . S
In117 O119 2.326 . S
In117 O123 2.266 . S
In117 O124 2.326 . S
In117 O125 2.266 . S
In117 O126 2.326 . S
In117 O128 2.294 . S
In117 O129 2.326 . S
O118 In117 2.294 . S
O118 C127 1.240 . S
O119 In117 2.326 . S
O119 C127 1.252 . S
C120 O123 1.252 . S
C120 O124 1.260 . S
C121 O128 1.240 . S
C121 O129 1.252 . S
C122 O125 1.252 . S
C122 O126 1.260 . S
O123 In117 2.266 . S
O123 C120 1.252 . S
O124 In117 2.326 . S
O124 C120 1.260 . S
O125 In117 2.266 . S
O125 C122 1.252 . S
O126 In117 2.326 . S
O126 C122 1.260 . S
C127 O118 1.240 . S
C127 O119 1.252 . S
O128 In117 2.294 . S
O128 C121 1.240 . S
O129 In117 2.326 . S
O129 C121 1.252 . S
In130 O131 2.294 . S
In130 O132 2.326 . S
In130 O136 2.266 . S
In130 O137 2.326 . S
In130 O138 2.266 . S
In130 O139 2.326 . S
In130 O141 2.294 . S
In130 O142 2.326 . S
O131 In130 2.294 . S
O131 C140 1.240 . S
O132 In130 2.326 . S
O132 C140 1.252 . S
C133 O136 1.252 . S
C133 O137 1.260 . S
C134 O141 1.240 . S
C134 O142 1.252 . S
C135 O138 1.252 . S
C135 O139 1.260 . S
O136 In130 2.266 . S
O136 C133 1.252 . S
O137 In130 2.326 . S
O137 C133 1.260 . S
O138 In130 2.266 . S
O138 C135 1.252 . S
O139 In130 2.326 . S
O139 C135 1.260 . S
C140 O131 1.240 . S
C140 O132 1.252 . S
O141 In130 2.294 . S
O141 C134 1.240 . S
O142 In130 2.326 . S
O142 C134 1.252 . S
In143 O144 2.294 . S
In143 O145 2.326 . S
In143 O149 2.266 . S
In143 O150 2.326 . S
In143 O151 2.266 . S
In143 O152 2.326 . S
In143 O154 2.294 . S
In143 O155 2.326 . S
O144 In143 2.294 . S
O144 C153 1.240 . S
O145 In143 2.326 . S
O145 C153 1.252 . S
C146 O149 1.252 . S
C146 O150 1.260 . S
C147 O154 1.240 . S
C147 O155 1.252 . S
C148 O151 1.252 . S
C148 O152 1.260 . S
O149 In143 2.266 . S
O149 C146 1.252 . S
O150 In143 2.326 . S
O150 C146 1.260 . S
O151 In143 2.266 . S
O151 C148 1.252 . S
O152 In143 2.326 . S
O152 C148 1.260 . S
C153 O144 1.240 . S
C153 O145 1.252 . S
O154 In143 2.294 . S
O154 C147 1.240 . S
O155 In143 2.326 . S
O155 C147 1.252 . S
H156 C164 0.950 . S
H157 C169 0.950 . S
H158 C166 0.950 . S
H159 C168 0.950 . S
H160 C170 0.950 . S
H161 C172 0.950 . S
H162 C174 0.950 . S
H163 C175 0.950 . S
C164 H156 0.950 . S
C164 C165 1.386 . S
C164 C166 1.391 . S
C165 C164 1.386 . S
C165 C169 1.393 . S
C166 H158 0.950 . S
C166 C164 1.391 . S
C166 C167 1.400 . S
C167 C166 1.400 . S
C167 C168 1.398 . S
C167 C173 1.491 . S
C168 H159 0.950 . S
C168 C167 1.398 . S
C168 C169 1.391 . S
C169 H157 0.950 . S
C169 C165 1.393 . S
C169 C168 1.391 . S
C170 H160 0.950 . S
C170 C171 1.386 . S
C170 C172 1.391 . S
C171 C170 1.386 . S
C171 C175 1.393 . S
C172 H161 0.950 . S
C172 C170 1.391 . S
C172 C173 1.400 . S
C173 C167 1.491 . S
C173 C172 1.400 . S
C173 C174 1.398 . S
C174 H162 0.950 . S
C174 C173 1.398 . S
C174 C175 1.391 . S
C175 H163 0.950 . S
C175 C171 1.393 . S
C175 C174 1.391 . S
H176 C184 0.950 . S
H177 C189 0.950 . S
H178 C186 0.950 . S
H179 C188 0.950 . S
H180 C190 0.950 . S
H181 C192 0.950 . S
H182 C194 0.950 . S
H183 C195 0.950 . S
C184 H176 0.950 . S
C184 C185 1.386 . S
C184 C186 1.391 . S
C185 C184 1.386 . S
C185 C189 1.393 . S
C186 H178 0.950 . S
C186 C184 1.391 . S
C186 C187 1.400 . S
C187 C186 1.400 . S
C187 C188 1.398 . S
C187 C193 1.491 . S
C188 H179 0.950 . S
C188 C187 1.398 . S
C188 C189 1.391 . S
C189 H177 0.950 . S
C189 C185 1.393 . S
C189 C188 1.391 . S
C190 H180 0.950 . S
C190 C191 1.386 . S
C190 C192 1.391 . S
C191 C190 1.386 . S
C191 C195 1.393 . S
C192 H181 0.950 . S
C192 C190 1.391 . S
C192 C193 1.400 . S
C193 C187 1.491 . S
C193 C192 1.400 . S
C193 C194 1.398 . S
C194 H182 0.950 . S
C194 C193 1.398 . S
C194 C195 1.391 . S
C195 H183 0.950 . S
C195 C191 1.393 . S
C195 C194 1.391 . S
H196 C204 0.950 . S
H197 C209 0.950 . S
H198 C206 0.950 . S
H199 C208 0.950 . S
H200 C210 0.950 . S
H201 C212 0.950 . S
H202 C214 0.950 . S
H203 C215 0.950 . S
C204 H196 0.950 . S
C204 C205 1.386 . S
C204 C206 1.391 . S
C205 C204 1.386 . S
C205 C209 1.393 . S
C206 H198 0.950 . S
C206 C204 1.391 . S
C206 C207 1.400 . S
C207 C206 1.400 . S
C207 C208 1.398 . S
C207 C213 1.491 . S
C208 H199 0.950 . S
C208 C207 1.398 . S
C208 C209 1.391 . S
C209 H197 0.950 . S
C209 C205 1.393 . S
C209 C208 1.391 . S
C210 H200 0.950 . S
C210 C211 1.386 . S
C210 C212 1.391 . S
C211 C210 1.386 . S
C211 C215 1.393 . S
C212 H201 0.950 . S
C212 C210 1.391 . S
C212 C213 1.400 . S
C213 C207 1.491 . S
C213 C212 1.400 . S
C213 C214 1.398 . S
C214 H202 0.950 . S
C214 C213 1.398 . S
C214 C215 1.391 . S
C215 H203 0.950 . S
C215 C211 1.393 . S
C215 C214 1.391 . S
H216 C224 0.950 . S
H217 C229 0.950 . S
H218 C226 0.950 . S
H219 C228 0.950 . S
H220 C230 0.950 . S
H221 C232 0.950 . S
H222 C234 0.950 . S
H223 C235 0.950 . S
C224 H216 0.950 . S
C224 C225 1.386 . S
C224 C226 1.391 . S
C225 C224 1.386 . S
C225 C229 1.393 . S
C226 H218 0.950 . S
C226 C224 1.391 . S
C226 C227 1.400 . S
C227 C226 1.400 . S
C227 C228 1.398 . S
C227 C233 1.491 . S
C228 H219 0.950 . S
C228 C227 1.398 . S
C228 C229 1.391 . S
C229 H217 0.950 . S
C229 C225 1.393 . S
C229 C228 1.391 . S
C230 H220 0.950 . S
C230 C231 1.386 . S
C230 C232 1.391 . S
C231 C230 1.386 . S
C231 C235 1.393 . S
C232 H221 0.950 . S
C232 C230 1.391 . S
C232 C233 1.400 . S
C233 C227 1.491 . S
C233 C232 1.400 . S
C233 C234 1.398 . S
C234 H222 0.950 . S
C234 C233 1.398 . S
C234 C235 1.391 . S
C235 H223 0.950 . S
C235 C231 1.393 . S
C235 C234 1.391 . S
H236 C244 0.950 . S
H237 C249 0.950 . S
H238 C246 0.950 . S
H239 C248 0.950 . S
H240 C250 0.950 . S
H241 C252 0.950 . S
H242 C254 0.950 . S
H243 C255 0.950 . S
C244 H236 0.950 . S
C244 C245 1.386 . S
C244 C246 1.391 1_554 S
C245 C244 1.386 . S
C245 C249 1.393 . S
C246 H238 0.950 . S
C246 C244 1.391 1_556 S
C246 C247 1.400 . S
C247 C246 1.400 . S
C247 C248 1.398 1_556 S
C247 C253 1.491 . S
C248 H239 0.950 . S
C248 C247 1.398 1_554 S
C248 C249 1.391 . S
C249 H237 0.950 . S
C249 C245 1.393 . S
C249 C248 1.391 . S
C250 H240 0.950 . S
C250 C251 1.386 . S
C250 C252 1.391 . S
C251 C250 1.386 . S
C251 C255 1.393 . S
C252 H241 0.950 . S
C252 C250 1.391 . S
C252 C253 1.400 . S
C253 C247 1.491 . S
C253 C252 1.400 . S
C253 C254 1.398 . S
C254 H242 0.950 . S
C254 C253 1.398 . S
C254 C255 1.391 . S
C255 H243 0.950 . S
C255 C251 1.393 . S
C255 C254 1.391 . S
H256 C264 0.950 . S
H257 C269 0.950 . S
H258 C266 0.950 . S
H259 C268 0.950 . S
H260 C270 0.950 . S
H261 C272 0.950 . S
H262 C274 0.950 . S
H263 C275 0.950 . S
C264 H256 0.950 . S
C264 C265 1.386 . S
C264 C266 1.391 . S
C265 C264 1.386 . S
C265 C269 1.393 . S
C266 H258 0.950 . S
C266 C264 1.391 . S
C266 C267 1.400 . S
C267 C266 1.400 . S
C267 C268 1.398 . S
C267 C273 1.491 . S
C268 H259 0.950 . S
C268 C267 1.398 . S
C268 C269 1.391 . S
C269 H257 0.950 . S
C269 C265 1.393 . S
C269 C268 1.391 . S
C270 H260 0.950 . S
C270 C271 1.386 . S
C270 C272 1.391 . S
C271 C270 1.386 . S
C271 C275 1.393 . S
C272 H261 0.950 . S
C272 C270 1.391 . S
C272 C273 1.400 . S
C273 C267 1.491 . S
C273 C272 1.400 . S
C273 C274 1.398 . S
C274 H262 0.950 . S
C274 C273 1.398 . S
C274 C275 1.391 . S
C275 H263 0.950 . S
C275 C271 1.393 . S
C275 C274 1.391 . S
H276 C284 0.950 . S
H277 C289 0.950 . S
H278 C286 0.950 . S
H279 C288 0.950 . S
H280 C290 0.950 . S
H281 C292 0.950 . S
H282 C294 0.950 . S
H283 C295 0.950 . S
C284 H276 0.950 . S
C284 C285 1.386 . S
C284 C286 1.391 . S
C285 C284 1.386 . S
C285 C289 1.393 . S
C286 H278 0.950 . S
C286 C284 1.391 . S
C286 C287 1.400 . S
C287 C286 1.400 . S
C287 C288 1.398 . S
C287 C293 1.491 . S
C288 H279 0.950 . S
C288 C287 1.398 . S
C288 C289 1.391 . S
C289 H277 0.950 . S
C289 C285 1.393 . S
C289 C288 1.391 . S
C290 H280 0.950 . S
C290 C291 1.386 . S
C290 C292 1.391 . S
C291 C290 1.386 . S
C291 C295 1.393 . S
C292 H281 0.950 . S
C292 C290 1.391 . S
C292 C293 1.400 . S
C293 C287 1.491 . S
C293 C292 1.400 . S
C293 C294 1.398 . S
C294 H282 0.950 . S
C294 C293 1.398 . S
C294 C295 1.391 . S
C295 H283 0.950 . S
C295 C291 1.393 . S
C295 C294 1.391 . S
H296 C304 0.950 . S
H297 C309 0.950 . S
H298 C306 0.950 . S
H299 C308 0.950 . S
H300 C310 0.950 . S
H301 C312 0.950 . S
H302 C314 0.950 . S
H303 C315 0.950 . S
C304 H296 0.950 . S
C304 C305 1.386 . S
C304 C306 1.391 . S
C305 C304 1.386 . S
C305 C309 1.393 . S
C306 H298 0.950 . S
C306 C304 1.391 . S
C306 C307 1.400 . S
C307 C306 1.400 . S
C307 C308 1.398 . S
C307 C313 1.491 . S
C308 H299 0.950 . S
C308 C307 1.398 . S
C308 C309 1.391 . S
C309 H297 0.950 . S
C309 C305 1.393 . S
C309 C308 1.391 . S
C310 H300 0.950 . S
C310 C311 1.386 . S
C310 C312 1.391 . S
C311 C310 1.386 . S
C311 C315 1.393 . S
C312 H301 0.950 . S
C312 C310 1.391 . S
C312 C313 1.400 . S
C313 C307 1.491 . S
C313 C312 1.400 . S
C313 C314 1.398 . S
C314 H302 0.950 . S
C314 C313 1.398 . S
C314 C315 1.391 . S
C315 H303 0.950 . S
C315 C311 1.393 . S
C315 C314 1.391 . S
H316 C324 0.950 . S
H317 C329 0.950 . S
H318 C326 0.950 . S
H319 C328 0.950 . S
H320 C330 0.950 . S
H321 C332 0.950 . S
H322 C334 0.950 . S
H323 C335 0.950 . S
C324 H316 0.950 . S
C324 C325 1.386 . S
C324 C326 1.391 . S
C325 C324 1.386 . S
C325 C329 1.393 . S
C326 H318 0.950 . S
C326 C324 1.391 . S
C326 C327 1.400 . S
C327 C326 1.400 . S
C327 C328 1.398 . S
C327 C333 1.491 . S
C328 H319 0.950 . S
C328 C327 1.398 . S
C328 C329 1.391 . S
C329 H317 0.950 . S
C329 C325 1.393 . S
C329 C328 1.391 . S
C330 H320 0.950 . S
C330 C331 1.386 . S
C330 C332 1.391 . S
C331 C330 1.386 . S
C331 C335 1.393 . S
C332 H321 0.950 . S
C332 C330 1.391 . S
C332 C333 1.400 . S
C333 C327 1.491 . S
C333 C332 1.400 . S
C333 C334 1.398 . S
C334 H322 0.950 . S
C334 C333 1.398 . S
C334 C335 1.391 . S
C335 H323 0.950 . S
C335 C331 1.393 . S
C335 C334 1.391 . S
H336 C344 0.950 . S
H337 C349 0.950 . S
H338 C346 0.950 . S
H339 C348 0.950 . S
H340 C350 0.950 . S
H341 C352 0.950 . S
H342 C354 0.950 . S
H343 C355 0.950 . S
C344 H336 0.950 . S
C344 C345 1.386 . S
C344 C346 1.391 . S
C345 C344 1.386 . S
C345 C349 1.393 . S
C346 H338 0.950 . S
C346 C344 1.391 . S
C346 C347 1.400 . S
C347 C346 1.400 . S
C347 C348 1.398 . S
C347 C353 1.491 . S
C348 H339 0.950 . S
C348 C347 1.398 . S
C348 C349 1.391 . S
C349 H337 0.950 . S
C349 C345 1.393 . S
C349 C348 1.391 . S
C350 H340 0.950 . S
C350 C351 1.386 . S
C350 C352 1.391 . S
C351 C350 1.386 . S
C351 C355 1.393 . S
C352 H341 0.950 . S
C352 C350 1.391 . S
C352 C353 1.400 . S
C353 C347 1.491 . S
C353 C352 1.400 . S
C353 C354 1.398 . S
C354 H342 0.950 . S
C354 C353 1.398 . S
C354 C355 1.391 . S
C355 H343 0.950 . S
C355 C351 1.393 . S
C355 C354 1.391 . S
H356 C364 0.950 . S
H357 C369 0.950 . S
H358 C366 0.950 . S
H359 C368 0.950 . S
H360 C370 0.950 . S
H361 C372 0.950 . S
H362 C374 0.950 . S
H363 C375 0.950 . S
C364 H356 0.950 . S
C364 C365 1.386 . S
C364 C366 1.391 . S
C365 C364 1.386 . S
C365 C369 1.393 . S
C366 H358 0.950 . S
C366 C364 1.391 . S
C366 C367 1.400 . S
C367 C366 1.400 . S
C367 C368 1.398 . S
C367 C373 1.491 . S
C368 H359 0.950 . S
C368 C367 1.398 . S
C368 C369 1.391 . S
C369 H357 0.950 . S
C369 C365 1.393 . S
C369 C368 1.391 . S
C370 H360 0.950 . S
C370 C371 1.386 . S
C370 C372 1.391 . S
C371 C370 1.386 . S
C371 C375 1.393 . S
C372 H361 0.950 . S
C372 C370 1.391 . S
C372 C373 1.400 . S
C373 C367 1.491 . S
C373 C372 1.400 . S
C373 C374 1.398 . S
C374 H362 0.950 . S
C374 C373 1.398 . S
C374 C375 1.391 . S
C375 H363 0.950 . S
C375 C371 1.393 . S
C375 C374 1.391 . S
H376 C384 0.950 . S
H377 C389 0.950 . S
H378 C386 0.950 . S
H379 C388 0.950 . S
H380 C390 0.950 . S
H381 C392 0.950 . S
H382 C394 0.950 1_554 S
H383 C395 0.950 . S
C384 H376 0.950 . S
C384 C385 1.386 . S
C384 C386 1.391 . S
C385 C384 1.386 . S
C385 C389 1.393 . S
C386 H378 0.950 . S
C386 C384 1.391 . S
C386 C387 1.400 . S
C387 C386 1.400 . S
C387 C388 1.398 . S
C387 C393 1.491 . S
C388 H379 0.950 . S
C388 C387 1.398 . S
C388 C389 1.391 . S
C389 H377 0.950 . S
C389 C385 1.393 . S
C389 C388 1.391 . S
C390 H380 0.950 . S
C390 C391 1.375 1_556 S
C390 C392 1.391 . S
C391 C390 1.375 1_554 S
C391 C395 1.398 . S
C392 H381 0.950 . S
C392 C390 1.391 . S
C392 C393 1.400 . S
C393 C387 1.491 . S
C393 C392 1.400 . S
C393 C394 1.398 . S
C394 H382 0.950 1_556 S
C394 C393 1.398 . S
C394 C395 1.391 1_556 S
C395 H383 0.950 . S
C395 C391 1.398 . S
C395 C394 1.391 1_554 S
H396 C404 0.950 . S
H397 C409 0.950 . S
H398 C406 0.950 . S
H399 C408 0.950 . S
H400 C410 0.950 . S
H401 C412 0.950 . S
H402 C414 0.950 . S
H403 C415 0.950 . S
C404 H396 0.950 . S
C404 C405 1.386 . S
C404 C406 1.391 . S
C405 C404 1.386 . S
C405 C409 1.393 . S
C406 H398 0.950 . S
C406 C404 1.391 . S
C406 C407 1.400 . S
C407 C406 1.400 . S
C407 C408 1.398 . S
C407 C413 1.491 . S
C408 H399 0.950 . S
C408 C407 1.398 . S
C408 C409 1.391 . S
C409 H397 0.950 . S
C409 C405 1.393 . S
C409 C408 1.391 . S
C410 H400 0.950 . S
C410 C411 1.386 . S
C410 C412 1.391 . S
C411 C410 1.386 . S
C411 C415 1.393 . S
C412 H401 0.950 . S
C412 C410 1.391 . S
C412 C413 1.400 . S
C413 C407 1.491 . S
C413 C412 1.400 . S
C413 C414 1.398 . S
C414 H402 0.950 . S
C414 C413 1.398 . S
C414 C415 1.391 . S
C415 H403 0.950 . S
C415 C411 1.393 . S
C415 C414 1.391 . S
H416 C424 0.950 . S
H417 C429 0.950 . S
H418 C426 0.950 . S
H419 C428 0.950 . S
H420 C430 0.950 . S
H421 C432 0.950 . S
H422 C434 0.950 . S
H423 C435 0.950 . S
C424 H416 0.950 . S
C424 C425 1.386 . S
C424 C426 1.391 . S
C425 C424 1.386 . S
C425 C429 1.393 . S
C426 H418 0.950 . S
C426 C424 1.391 . S
C426 C427 1.400 . S
C427 C426 1.400 . S
C427 C428 1.398 . S
C427 C433 1.491 . S
C428 H419 0.950 . S
C428 C427 1.398 . S
C428 C429 1.391 . S
C429 H417 0.950 . S
C429 C425 1.393 . S
C429 C428 1.391 . S
C430 H420 0.950 . S
C430 C431 1.386 . S
C430 C432 1.391 . S
C431 C430 1.386 . S
C431 C435 1.393 . S
C432 H421 0.950 . S
C432 C430 1.391 . S
C432 C433 1.400 1_554 S
C433 C427 1.491 . S
C433 C432 1.400 1_556 S
C433 C434 1.398 . S
C434 H422 0.950 . S
C434 C433 1.398 . S
C434 C435 1.391 1_556 S
C435 H423 0.950 . S
C435 C431 1.393 . S
C435 C434 1.391 1_554 S
H436 C444 0.950 . S
H437 C449 0.950 . S
H438 C446 0.950 . S
H439 C448 0.950 . S
H440 C450 0.950 . S
H441 C452 0.950 . S
H442 C454 0.950 . S
H443 C455 0.950 . S
C444 H436 0.950 . S
C444 C445 1.386 . S
C444 C446 1.391 . S
C445 C444 1.386 . S
C445 C449 1.393 . S
C446 H438 0.950 . S
C446 C444 1.391 . S
C446 C447 1.400 . S
C447 C446 1.400 . S
C447 C448 1.398 . S
C447 C453 1.491 . S
C448 H439 0.950 . S
C448 C447 1.398 . S
C448 C449 1.391 . S
C449 H437 0.950 . S
C449 C445 1.393 . S
C449 C448 1.391 . S
C450 H440 0.950 . S
C450 C451 1.386 . S
C450 C452 1.391 . S
C451 C450 1.386 . S
C451 C455 1.393 . S
C452 H441 0.950 . S
C452 C450 1.391 . S
C452 C453 1.400 . S
C453 C447 1.491 . S
C453 C452 1.400 . S
C453 C454 1.398 . S
C454 H442 0.950 . S
C454 C453 1.398 . S
C454 C455 1.391 . S
C455 H443 0.950 . S
C455 C451 1.393 . S
C455 C454 1.391 . S
H456 C464 0.950 . S
H457 C469 0.950 . S
H458 C466 0.950 . S
H459 C468 0.950 . S
H460 C470 0.950 . S
H461 C472 0.950 . S
H462 C474 0.950 . S
H463 C475 0.950 . S
C464 H456 0.950 . S
C464 C465 1.386 . S
C464 C466 1.391 . S
C465 C464 1.386 . S
C465 C469 1.393 . S
C466 H458 0.950 . S
C466 C464 1.391 . S
C466 C467 1.400 . S
C467 C466 1.400 . S
C467 C468 1.398 . S
C467 C473 1.491 . S
C468 H459 0.950 . S
C468 C467 1.398 . S
C468 C469 1.391 . S
C469 H457 0.950 . S
C469 C465 1.393 . S
C469 C468 1.391 . S
C470 H460 0.950 . S
C470 C471 1.386 . S
C470 C472 1.391 . S
C471 C470 1.386 . S
C471 C475 1.393 . S
C472 H461 0.950 . S
C472 C470 1.391 . S
C472 C473 1.400 . S
C473 C467 1.491 . S
C473 C472 1.400 . S
C473 C474 1.398 . S
C474 H462 0.950 . S
C474 C473 1.398 . S
C474 C475 1.391 . S
C475 H463 0.950 . S
C475 C471 1.393 . S
C475 C474 1.391 . S
H476 C484 0.950 . S
H477 C489 0.950 . S
H478 C486 0.950 . S
H479 C488 0.950 . S
H480 C490 0.950 . S
H481 C492 0.950 . S
H482 C494 0.950 . S
H483 C495 0.950 . S
C484 H476 0.950 . S
C484 C485 1.386 . S
C484 C486 1.391 . S
C485 C484 1.386 . S
C485 C489 1.393 . S
C486 H478 0.950 . S
C486 C484 1.391 . S
C486 C487 1.400 . S
C487 C486 1.400 . S
C487 C488 1.398 . S
C487 C493 1.491 . S
C488 H479 0.950 . S
C488 C487 1.398 . S
C488 C489 1.391 . S
C489 H477 0.950 . S
C489 C485 1.393 . S
C489 C488 1.391 . S
C490 H480 0.950 . S
C490 C491 1.386 . S
C490 C492 1.391 . S
C491 C490 1.386 . S
C491 C495 1.393 . S
C492 H481 0.950 . S
C492 C490 1.391 . S
C492 C493 1.400 . S
C493 C487 1.491 . S
C493 C492 1.400 . S
C493 C494 1.398 . S
C494 H482 0.950 . S
C494 C493 1.398 . S
C494 C495 1.391 . S
C495 H483 0.950 . S
C495 C491 1.393 . S
C495 C494 1.391 . S
H496 C504 0.950 . S
H497 C509 0.950 . S
H498 C506 0.950 . S
H499 C508 0.950 . S
H500 C510 0.950 . S
H501 C512 0.950 . S
H502 C514 0.950 . S
H503 C515 0.950 . S
C504 H496 0.950 . S
C504 C505 1.386 . S
C504 C506 1.391 . S
C505 C504 1.386 . S
C505 C509 1.393 . S
C506 H498 0.950 . S
C506 C504 1.391 . S
C506 C507 1.400 . S
C507 C506 1.400 . S
C507 C508 1.398 . S
C507 C513 1.491 . S
C508 H499 0.950 . S
C508 C507 1.398 . S
C508 C509 1.391 . S
C509 H497 0.950 . S
C509 C505 1.393 . S
C509 C508 1.391 . S
C510 H500 0.950 . S
C510 C511 1.386 . S
C510 C512 1.391 . S
C511 C510 1.386 . S
C511 C515 1.393 . S
C512 H501 0.950 . S
C512 C510 1.391 . S
C512 C513 1.400 . S
C513 C507 1.491 . S
C513 C512 1.400 . S
C513 C514 1.398 . S
C514 H502 0.950 . S
C514 C513 1.398 . S
C514 C515 1.391 . S
C515 H503 0.950 . S
C515 C511 1.393 . S
C515 C514 1.391 . S
H516 C524 0.950 . S
H517 C529 0.950 . S
H518 C526 0.950 . S
H519 C528 0.950 . S
H520 C530 0.950 1_556 S
H521 C532 0.950 1_556 S
H522 C534 0.950 . S
H523 C535 0.950 . S
C524 H516 0.950 . S
C524 C525 1.386 . S
C524 C526 1.391 . S
C525 C524 1.386 . S
C525 C529 1.393 1_554 S
C526 H518 0.950 . S
C526 C524 1.391 . S
C526 C527 1.400 . S
C527 C526 1.400 . S
C527 C528 1.398 1_554 S
C527 C533 1.491 1_545 S
C528 H519 0.950 . S
C528 C527 1.398 1_556 S
C528 C529 1.391 . S
C529 H517 0.950 . S
C529 C525 1.393 1_556 S
C529 C528 1.391 . S
C530 H520 0.950 1_554 S
C530 C531 1.386 . S
C530 C532 1.391 . S
C531 C530 1.386 . S
C531 C535 1.393 . S
C532 H521 0.950 1_554 S
C532 C530 1.391 . S
C532 C533 1.400 . S
C533 C527 1.491 1_565 S
C533 C532 1.400 . S
C533 C534 1.398 . S
C534 H522 0.950 . S
C534 C533 1.398 . S
C534 C535 1.391 . S
C535 H523 0.950 . S
C535 C531 1.393 . S
C535 C534 1.391 . S
H536 C544 0.950 . S
H537 C549 0.950 . S
H538 C546 0.950 . S
H539 C548 0.950 . S
H540 C550 0.950 . S
H541 C552 0.950 . S
H542 C554 0.950 . S
H543 C555 0.950 . S
C544 H536 0.950 . S
C544 C545 1.386 . S
C544 C546 1.391 . S
C545 C544 1.386 . S
C545 C549 1.393 . S
C546 H538 0.950 . S
C546 C544 1.391 . S
C546 C547 1.400 . S
C547 C546 1.400 . S
C547 C548 1.398 . S
C547 C553 1.491 . S
C548 H539 0.950 . S
C548 C547 1.398 . S
C548 C549 1.391 . S
C549 H537 0.950 . S
C549 C545 1.393 . S
C549 C548 1.391 . S
C550 H540 0.950 . S
C550 C551 1.386 . S
C550 C552 1.391 . S
C551 C550 1.386 . S
C551 C555 1.393 . S
C552 H541 0.950 . S
C552 C550 1.391 . S
C552 C553 1.400 . S
C553 C547 1.491 . S
C553 C552 1.400 . S
C553 C554 1.398 . S
C554 H542 0.950 . S
C554 C553 1.398 . S
C554 C555 1.391 . S
C555 H543 0.950 . S
C555 C551 1.393 . S
C555 C554 1.391 . S
H556 C564 0.950 . S
H557 C569 0.950 . S
H558 C566 0.950 . S
H559 C568 0.950 . S
H560 C570 0.950 . S
H561 C572 0.950 . S
H562 C574 0.950 . S
H563 C575 0.950 . S
C564 H556 0.950 . S
C564 C565 1.386 . S
C564 C566 1.391 . S
C565 C564 1.386 . S
C565 C569 1.393 . S
C566 H558 0.950 . S
C566 C564 1.391 . S
C566 C567 1.400 . S
C567 C566 1.400 . S
C567 C568 1.398 . S
C567 C573 1.491 1_455 S
C568 H559 0.950 . S
C568 C567 1.398 . S
C568 C569 1.391 . S
C569 H557 0.950 . S
C569 C565 1.393 . S
C569 C568 1.391 . S
C570 H560 0.950 . S
C570 C571 1.386 . S
C570 C572 1.391 . S
C571 C570 1.386 . S
C571 C575 1.393 . S
C572 H561 0.950 . S
C572 C570 1.391 . S
C572 C573 1.400 . S
C573 C567 1.491 1_655 S
C573 C572 1.400 . S
C573 C574 1.398 . S
C574 H562 0.950 . S
C574 C573 1.398 . S
C574 C575 1.391 . S
C575 H563 0.950 . S
C575 C571 1.393 . S
C575 C574 1.391 . S
H576 C584 0.950 . S
H577 C589 0.950 . S
H578 C586 0.950 . S
H579 C588 0.950 . S
H580 C590 0.950 . S
H581 C592 0.950 . S
H582 C594 0.950 . S
H583 C595 0.950 . S
C584 H576 0.950 . S
C584 C585 1.386 . S
C584 C586 1.391 . S
C585 C584 1.386 . S
C585 C589 1.393 . S
C586 H578 0.950 . S
C586 C584 1.391 . S
C586 C587 1.400 . S
C587 C586 1.400 . S
C587 C588 1.398 . S
C587 C593 1.491 1_565 S
C588 H579 0.950 . S
C588 C587 1.398 . S
C588 C589 1.391 . S
C589 H577 0.950 . S
C589 C585 1.393 . S
C589 C588 1.391 . S
C590 H580 0.950 . S
C590 C591 1.386 . S
C590 C592 1.391 . S
C591 C590 1.386 . S
C591 C595 1.393 . S
C592 H581 0.950 . S
C592 C590 1.391 . S
C592 C593 1.400 . S
C593 C587 1.491 1_545 S
C593 C592 1.400 . S
C593 C594 1.398 . S
C594 H582 0.950 . S
C594 C593 1.398 . S
C594 C595 1.391 . S
C595 H583 0.950 . S
C595 C591 1.393 . S
C595 C594 1.391 . S
H596 C604 0.950 . S
H597 C609 0.950 . S
H598 C606 0.950 . S
H599 C608 0.950 . S
H600 C610 0.950 . S
H601 C612 0.950 . S
H602 C614 0.950 . S
H603 C615 0.950 . S
C604 H596 0.950 . S
C604 C605 1.386 . S
C604 C606 1.391 . S
C605 C604 1.386 . S
C605 C609 1.393 . S
C606 H598 0.950 . S
C606 C604 1.391 . S
C606 C607 1.400 . S
C607 C606 1.400 . S
C607 C608 1.398 . S
C607 C613 1.491 . S
C608 H599 0.950 . S
C608 C607 1.398 . S
C608 C609 1.391 . S
C609 H597 0.950 . S
C609 C605 1.393 . S
C609 C608 1.391 . S
C610 H600 0.950 . S
C610 C611 1.386 . S
C610 C612 1.391 . S
C611 C610 1.386 . S
C611 C615 1.393 . S
C612 H601 0.950 . S
C612 C610 1.391 . S
C612 C613 1.400 . S
C613 C607 1.491 . S
C613 C612 1.400 . S
C613 C614 1.398 . S
C614 H602 0.950 . S
C614 C613 1.398 . S
C614 C615 1.391 . S
C615 H603 0.950 . S
C615 C611 1.393 . S
C615 C614 1.391 . S
H616 C624 0.950 . S
H617 C629 0.950 . S
H618 C626 0.950 . S
H619 C628 0.950 . S
H620 C630 0.950 . S
H621 C632 0.950 . S
H622 C634 0.950 . S
H623 C635 0.950 . S
C624 H616 0.950 . S
C624 C625 1.386 . S
C624 C626 1.391 . S
C625 C624 1.386 . S
C625 C629 1.393 . S
C626 H618 0.950 . S
C626 C624 1.391 . S
C626 C627 1.400 . S
C627 C626 1.400 . S
C627 C628 1.398 . S
C627 C633 1.491 1_455 S
C628 H619 0.950 . S
C628 C627 1.398 . S
C628 C629 1.391 . S
C629 H617 0.950 . S
C629 C625 1.393 . S
C629 C628 1.391 . S
C630 H620 0.950 . S
C630 C631 1.386 . S
C630 C632 1.391 . S
C631 C630 1.386 . S
C631 C635 1.393 . S
C632 H621 0.950 . S
C632 C630 1.391 . S
C632 C633 1.400 . S
C633 C627 1.491 1_655 S
C633 C632 1.400 . S
C633 C634 1.398 . S
C634 H622 0.950 . S
C634 C633 1.398 . S
C634 C635 1.391 . S
C635 H623 0.950 . S
C635 C631 1.393 . S
C635 C634 1.391 . S
C165 C3 1.129 . S
C171 C133 1.131 . S
C185 C16 1.122 . S
C191 C148 1.126 . S
C205 C83 1.126 . S
C211 C29 1.122 . S
C225 C42 1.122 . S
C231 C96 1.127 . S
C245 C109 1.128 . S
C251 C55 1.132 . S
C265 C122 1.123 . S
C271 C68 1.124 1_554 S
C285 C107 1.338 . S
C291 C5 1.345 . S
C305 C18 1.343 . S
C311 C120 1.349 . S
C325 C135 1.348 . S
C331 C31 1.343 . S
C345 C44 1.338 . S
C351 C146 1.346 . S
C365 C57 1.343 . S
C371 C81 1.337 . S
C385 C70 1.345 . S
C391 C94 1.353 . S
C405 C140 1.710 . S
C411 C10 1.714 . S
C425 C147 1.711 . S
C431 C23 1.714 . S
C445 C82 1.712 1_554 S
C451 C36 1.712 . S
C465 C49 1.712 . S
C471 C95 1.711 . S
C485 C62 1.715 . S
C491 C108 1.710 . S
C505 C121 1.710 . S
C511 C75 1.715 . S
C525 C4 1.428 . S
C531 C101 1.419 . S
C545 C114 1.430 . S
C551 C17 1.424 . S
C565 C127 1.419 . S
C571 C30 1.422 . S
C585 C43 1.429 . S
C591 C134 1.420 . S
C605 C56 1.429 . S
C611 C153 1.422 . S
C625 C69 1.424 . S
C631 C88 1.430 . S
