# Generated by pormake.
# Topology qtz-e, (6)-cn, num edge types: 1
# Building blocks:
#     Node 0, Type 0, BuildingBlock: CUKXOW_clean_sbu_0, # of connection points: 6
#     Node 1, Type 0, BuildingBlock: CUKXOW_clean_sbu_0, # of connection points: 6
#     Node 2, Type 0, BuildingBlock: CUKXOW_clean_sbu_0, # of connection points: 6
#     Node 3, Type 0, BuildingBlock: CUKXOW_clean_sbu_0, # of connection points: 6
#     Node 4, Type 0, BuildingBlock: CUKXOW_clean_sbu_0, # of connection points: 6
#     Node 5, Type 0, BuildingBlock: CUKXOW_clean_sbu_0, # of connection points: 6
#     Edge 6, Type (0, 0), BuildingBlock: XUDNAN_clean_linker_2, # of connection points: 2
#     Edge 7, Type (0, 0), BuildingBlock: XUDNAN_clean_linker_2, # of connection points: 2
#     Edge 8, Type (0, 0), BuildingBlock: XUDNAN_clean_linker_2, # of connection points: 2
#     Edge 9, Type (0, 0), BuildingBlock: XUDNAN_clean_linker_2, # of connection points: 2
#     Edge 10, Type (0, 0), BuildingBlock: XUDNAN_clean_linker_2, # of connection points: 2
#     Edge 11, Type (0, 0), BuildingBlock: XUDNAN_clean_linker_2, # of connection points: 2
#     Edge 12, Type (0, 0), BuildingBlock: XUDNAN_clean_linker_2, # of connection points: 2
#     Edge 13, Type (0, 0), BuildingBlock: XUDNAN_clean_linker_2, # of connection points: 2
#     Edge 14, Type (0, 0), BuildingBlock: XUDNAN_clean_linker_2, # of connection points: 2
#     Edge 15, Type (0, 0), BuildingBlock: XUDNAN_clean_linker_2, # of connection points: 2
#     Edge 16, Type (0, 0), BuildingBlock: XUDNAN_clean_linker_2, # of connection points: 2
#     Edge 17, Type (0, 0), BuildingBlock: XUDNAN_clean_linker_2, # of connection points: 2
#     Edge 18, Type (0, 0), BuildingBlock: XUDNAN_clean_linker_2, # of connection points: 2
#     Edge 19, Type (0, 0), BuildingBlock: XUDNAN_clean_linker_2, # of connection points: 2
#     Edge 20, Type (0, 0), BuildingBlock: XUDNAN_clean_linker_2, # of connection points: 2
#     Edge 21, Type (0, 0), BuildingBlock: XUDNAN_clean_linker_2, # of connection points: 2
#     Edge 22, Type (0, 0), BuildingBlock: XUDNAN_clean_linker_2, # of connection points: 2
#     Edge 23, Type (0, 0), BuildingBlock: XUDNAN_clean_linker_2, # of connection points: 2
# Relax obj value: 0.116
# Max RMSD: 0.164
# Mean RMSD: 0.164
data_MOF--net-qtz-e--node1-CUKXOW_clean_sbu_0--edge1-XUDNAN_clean_linker_2
_symmetry_space_group_name_H-M    P1
_symmetry_Int_Tables_number       1
_symmetry_cell_setting            triclinic
loop_
_symmetry_equiv_pos_as_xyz
'x, y, z'
_cell_length_a     26.689413
_cell_length_b     26.388615
_cell_length_c     37.023981
_cell_angle_alpha  89.951955
_cell_angle_beta   89.924783
_cell_angle_gamma 120.32351
loop_
_atom_site_label
_atom_site_type_symbol
_atom_site_fract_x
_atom_site_fract_y
_atom_site_fract_z
_atom_type_partial_charge
Tb0 Tb 0.15961 0.37366 0.06373 0.0
C1 C 0.29273 0.43924 0.04988 0.0
Tb2 Tb 0.20793 0.44174 0.99115 0.0
O3 O 0.17536 0.30315 0.04665 0.0
O4 O 0.16142 0.35372 1.00878 0.0
O5 O 0.25202 0.42049 0.07532 0.0
C6 C 0.26058 0.48264 0.92753 0.0
O7 O 0.28062 0.43775 1.01494 0.0
C8 C 0.18986 0.49717 0.04353 0.0
C9 C 0.07525 0.38089 1.0044 0.0
O10 O 0.27423 0.51232 0.95741 0.0
O11 O 0.21732 0.43006 0.9335 0.0
O12 O 0.18575 0.50761 1.00966 0.0
O13 O 0.20739 0.46137 0.04588 0.0
O14 O 0.11673 0.4024 0.97955 0.0
O15 O 0.08346 0.3692 0.03816 0.0
C16 C 0.10825 0.35308 0.12851 0.0
O17 O 0.11398 0.31454 0.10977 0.0
O18 O 0.13198 0.40217 0.11097 0.0
C19 C 0.17749 0.31668 1.01256 0.0
Tb20 Tb 0.78276 0.17742 0.39753 0.0
C21 C 0.85098 0.31279 0.41914 0.0
Tb22 Tb 0.7704 0.26835 0.35143 0.0
O23 O 0.83903 0.17103 0.35619 0.0
O24 O 0.83532 0.24735 0.3622 0.0
O25 O 0.8317 0.25782 0.4297 0.0
C26 C 0.76944 0.33749 0.29882 0.0
O27 O 0.84034 0.32704 0.38678 0.0
C28 C 0.70219 0.22645 0.40771 0.0
C29 C 0.69772 0.13326 0.3308 0.0
O30 O 0.74714 0.33138 0.33078 0.0
O31 O 0.79315 0.30504 0.29647 0.0
O32 O 0.71943 0.27814 0.39432 0.0
O33 O 0.71823 0.19922 0.38742 0.0
O34 O 0.72108 0.18843 0.31956 0.0
O35 O 0.71045 0.11949 0.36276 0.0
C36 C 0.77247 0.10835 0.45348 0.0
O37 O 0.79293 0.1071 0.4218 0.0
O38 O 0.75838 0.14869 0.45361 0.0
C39 C 0.85438 0.22226 0.34245 0.0
Tb40 Tb 0.6157 0.79427 0.72841 0.0
C41 C 0.53141 0.84292 0.72316 0.0
Tb42 Tb 0.54198 0.76465 0.66111 0.0
O43 O 0.6735 0.88314 0.70578 0.0
O44 O 0.63097 0.8108 0.67242 0.0
O45 O 0.56036 0.82812 0.74582 0.0
C46 C 0.49808 0.77682 0.5992 0.0
O47 O 0.52508 0.82804 0.68847 0.0
C48 C 0.49327 0.68796 0.71346 0.0
C49 C 0.6113 0.70208 0.67086 0.0
O50 O 0.54144 0.81876 0.61647 0.0
O51 O 0.47981 0.72782 0.61656 0.0
O52 O 0.48223 0.67585 0.67938 0.0
O53 O 0.52533 0.74286 0.71698 0.0
O54 O 0.59279 0.72508 0.64616 0.0
O55 O 0.62129 0.72127 0.70475 0.0
C56 C 0.66616 0.78763 0.78944 0.0
O57 O 0.62159 0.74433 0.77405 0.0
O58 O 0.68231 0.83487 0.77055 0.0
C59 C 0.66213 0.86539 0.67258 0.0
Tb60 Tb 0.8089 0.6332 0.06619 0.0
C61 C 0.69408 0.63527 0.05405 0.0
Tb62 Tb 0.71941 0.54892 1.00966 0.0
O63 O 0.83022 0.71254 0.03559 0.0
O64 O 0.7975 0.63155 1.00951 0.0
O65 O 0.73512 0.64429 0.07768 0.0
C66 C 0.64455 0.48894 0.95671 0.0
O67 O 0.68714 0.60753 1.02288 0.0
C68 C 0.72173 0.50448 0.07314 0.0
C69 C 0.83473 0.55036 1.01667 0.0
O70 O 0.63084 0.48963 0.9903 0.0
O71 O 0.70018 0.52284 0.95289 0.0
O72 O 0.70785 0.47419 0.04357 0.0
O73 O 0.72917 0.55405 0.06612 0.0
O74 O 0.79427 0.54439 0.99377 0.0
O75 O 0.84334 0.5769 0.04855 0.0
C76 C 0.86557 0.66882 0.12881 0.0
O77 O 0.88981 0.68455 0.09708 0.0
O78 O 0.81034 0.63377 0.12492 0.0
C79 C 0.80927 0.68403 1.00549 0.0
Tb80 Tb 0.20402 0.82952 0.38867 0.0
C81 C 0.12398 0.69493 0.40277 0.0
Tb82 Tb 0.19886 0.73853 0.33251 0.0
O83 O 0.11566 0.80744 0.37356 0.0
O84 O 0.1695 0.79932 0.33638 0.0
O85 O 0.15591 0.74701 0.41798 0.0
C86 C 0.17634 0.67195 0.27387 0.0
O87 O 0.12635 0.68491 0.3679 0.0
C88 C 0.26017 0.75282 0.39116 0.0
C89 C 0.29381 0.87162 0.32276 0.0
O90 O 0.22505 0.69641 0.29159 0.0
O91 O 0.1406 0.68525 0.28914 0.0
O92 O 0.23673 0.70467 0.37228 0.0
O93 O 0.25283 0.79002 0.37476 0.0
O94 O 0.26487 0.81924 0.30723 0.0
O95 O 0.28031 0.884 0.35501 0.0
C96 C 0.23112 0.90728 0.44184 0.0
O97 O 0.22156 0.91531 0.4084 0.0
O98 O 0.22601 0.85586 0.44511 0.0
C99 C 0.11886 0.78926 0.34157 0.0
Tb100 Tb 0.32986 0.17289 0.73326 0.0
C101 C 0.36094 0.0744 0.73571 0.0
Tb102 Tb 0.42639 0.18307 0.68336 0.0
O103 O 0.26294 0.10508 0.69748 0.0
O104 O 0.34208 0.16912 0.67717 0.0
O105 O 0.34432 0.10493 0.75574 0.0
C106 C 0.48695 0.16824 0.63126 0.0
O107 O 0.38835 0.09418 0.70445 0.0
C108 C 0.46165 0.23612 0.74626 0.0
C109 C 0.39773 0.28212 0.68041 0.0
O110 O 0.43567 0.12858 0.64215 0.0
O111 O 0.50404 0.21584 0.64979 0.0
O112 O 0.49434 0.25091 0.71775 0.0
O113 O 0.41535 0.18909 0.73971 0.0
O114 O 0.41157 0.24956 0.6603 0.0
O115 O 0.36969 0.26295 0.71172 0.0
C116 C 0.27381 0.19084 0.78722 0.0
O117 O 0.25452 0.14224 0.76932 0.0
O118 O 0.32353 0.22959 0.7739 0.0
C119 C 0.29689 0.12246 0.66946 0.0
H120 H 0.24591 0.63752 0.24011 0.0
H121 H 0.0803 0.62953 0.23189 0.0
H122 H 0.06601 0.58612 0.1708 0.0
H123 H 0.29182 0.67093 0.15001 0.0
H124 H 0.32139 0.62293 0.14696 0.0
H125 H 0.31846 0.65316 0.18995 0.0
H126 H 0.26064 0.54864 0.21697 0.0
H127 H 0.26306 0.51758 0.17413 0.0
H128 H 0.1943 0.49457 0.19574 0.0
H129 H 0.07652 0.55491 0.10786 0.0
H130 H 0.10039 0.51821 0.05227 0.0
H131 H 0.2524 0.53447 0.10526 0.0
C132 C 0.20646 0.62612 0.22552 0.0
C133 C 0.16502 0.63884 0.23986 0.0
C134 C 0.11337 0.62212 0.2205 0.0
C135 C 0.10479 0.59711 0.18601 0.0
C136 C 0.1475 0.58716 0.17193 0.0
C137 C 0.19639 0.59931 0.19157 0.0
C138 C 0.23444 0.58201 0.17088 0.0
C139 C 0.29511 0.63546 0.16405 0.0
C140 C 0.23831 0.53276 0.19059 0.0
C141 C 0.20032 0.56008 0.13613 0.0
C142 C 0.15069 0.5641 0.13702 0.0
C143 C 0.11442 0.55012 0.10704 0.0
C144 C 0.12853 0.53007 0.0756 0.0
C145 C 0.1778 0.52344 0.07488 0.0
C146 C 0.21412 0.53878 0.10544 0.0
H147 H 0.57537 0.25709 0.5945 0.0
H148 H 0.46766 0.06748 0.59757 0.0
H149 H 0.5174 0.06044 0.54271 0.0
H150 H 0.56777 0.27001 0.50123 0.0
H151 H 0.64086 0.33074 0.49632 0.0
H152 H 0.60263 0.31997 0.53825 0.0
H153 H 0.68596 0.3176 0.57272 0.0
H154 H 0.72463 0.32858 0.53083 0.0
H155 H 0.70836 0.26644 0.55908 0.0
H156 H 0.57685 0.07568 0.4855 0.0
H157 H 0.63488 0.11184 0.42911 0.0
H158 H 0.69722 0.29126 0.46264 0.0
C159 C 0.5631 0.21403 0.58404 0.0
C160 C 0.51842 0.16276 0.6003 0.0
C161 C 0.50228 0.1072 0.58545 0.0
C162 C 0.53036 0.10285 0.55446 0.0
C163 C 0.57384 0.15455 0.53865 0.0
C164 C 0.58979 0.20908 0.5529 0.0
C165 C 0.63365 0.25822 0.52923 0.0
C166 C 0.60977 0.29698 0.51544 0.0
C167 C 0.69158 0.29485 0.54916 0.0
C168 C 0.63929 0.22304 0.49902 0.0
C169 C 0.60546 0.16331 0.50515 0.0
C170 C 0.6035 0.12235 0.48051 0.0
C171 C 0.63646 0.14316 0.44865 0.0
C172 C 0.66992 0.20417 0.44171 0.0
C173 C 0.67158 0.24436 0.46731 0.0
H174 H 0.36449 0.58356 0.9133 0.0
H175 H 0.22101 0.43181 0.86226 0.0
H176 H 0.26921 0.46504 0.80304 0.0
H177 H 0.38597 0.68567 0.84304 0.0
H178 H 0.464 0.72642 0.84651 0.0
H179 H 0.42051 0.68901 0.88551 0.0
H180 H 0.47629 0.63281 0.89287 0.0
H181 H 0.51981 0.66992 0.85375 0.0
H182 H 0.47965 0.59087 0.8555 0.0
H183 H 0.33061 0.51411 0.7498 0.0
H184 H 0.39879 0.58045 0.70384 0.0
H185 H 0.50232 0.70433 0.78756 0.0
C186 C 0.34346 0.55744 0.88959 0.0
C187 C 0.28944 0.50458 0.89228 0.0
C188 C 0.26282 0.47181 0.86077 0.0
C189 C 0.28988 0.49032 0.82706 0.0
C190 C 0.34336 0.54211 0.82526 0.0
C191 C 0.36985 0.57561 0.85552 0.0
C192 C 0.4262 0.63096 0.84549 0.0
C193 C 0.424 0.68628 0.85574 0.0
C194 C 0.47857 0.63113 0.86294 0.0
C195 C 0.42624 0.62385 0.80479 0.0
C196 C 0.37847 0.57168 0.79397 0.0
C197 C 0.36819 0.55509 0.75788 0.0
C198 C 0.40724 0.59315 0.73197 0.0
C199 C 0.45583 0.6475 0.74212 0.0
C200 C 0.46568 0.66289 0.77908 0.0
H201 H 0.79739 0.33978 0.22701 0.0
H202 H 0.72698 0.41144 0.30403 0.0
H203 H 0.70965 0.46365 0.25467 0.0
H204 H 0.86766 0.47116 0.17139 0.0
H205 H 0.85267 0.43499 0.12852 0.0
H206 H 0.86284 0.40067 0.16778 0.0
H207 H 0.76383 0.30735 0.16163 0.0
H208 H 0.75202 0.33549 0.12019 0.0
H209 H 0.69945 0.31254 0.15619 0.0
H210 H 0.69779 0.50608 0.19732 0.0
H211 H 0.68992 0.53457 0.13495 0.0
H212 H 0.76312 0.43199 0.09387 0.0
C213 C 0.77889 0.36697 0.23343 0.0
C214 C 0.76356 0.37176 0.2693 0.0
C215 C 0.73912 0.40736 0.27673 0.0
C216 C 0.72911 0.43715 0.24889 0.0
C217 C 0.74367 0.43077 0.21372 0.0
C218 C 0.76813 0.39673 0.20584 0.0
C219 C 0.77887 0.39685 0.16559 0.0
C220 C 0.84439 0.42761 0.15789 0.0
C221 C 0.74662 0.33434 0.14999 0.0
C222 C 0.75355 0.43338 0.15189 0.0
C223 C 0.73502 0.45382 0.18031 0.0
C224 C 0.71184 0.49009 0.17484 0.0
C225 C 0.70744 0.50591 0.13938 0.0
C226 C 0.72513 0.4847 0.10981 0.0
C227 C 0.74829 0.44778 0.11608 0.0
H228 H 0.41229 0.6912 0.55778 0.0
H229 H 0.52168 0.88005 0.56821 0.0
H230 H 0.472 0.89405 0.51615 0.0
H231 H 0.409 0.68854 0.45967 0.0
H232 H 0.33452 0.62982 0.45747 0.0
H233 H 0.37899 0.63473 0.49538 0.0
H234 H 0.30313 0.63494 0.53907 0.0
H235 H 0.25864 0.63041 0.50127 0.0
H236 H 0.28174 0.68926 0.53344 0.0
H237 H 0.40763 0.88763 0.4654 0.0
H238 H 0.33761 0.86155 0.41563 0.0
H239 H 0.27242 0.67654 0.43578 0.0
C240 C 0.42594 0.73543 0.54888 0.0
C241 C 0.47069 0.78465 0.56686 0.0
C242 C 0.48757 0.84187 0.55461 0.0
C243 C 0.4595 0.85021 0.5252 0.0
C244 C 0.41508 0.8008 0.50824 0.0
C245 C 0.39874 0.7445 0.51933 0.0
C246 C 0.34999 0.69899 0.49613 0.0
C247 C 0.3693 0.66078 0.47596 0.0
C248 C 0.29514 0.66118 0.51884 0.0
C249 C 0.34131 0.73852 0.47038 0.0
C250 C 0.37902 0.79707 0.47812 0.0
C251 C 0.37823 0.84199 0.45889 0.0
C252 C 0.3382 0.8267 0.43076 0.0
C253 C 0.30006 0.76707 0.42184 0.0
C254 C 0.30156 0.72244 0.44193 0.0
H255 H 0.67185 0.47992 0.88697 0.0
H256 H 0.52876 0.40836 0.96322 0.0
H257 H 0.4653 0.33607 0.91737 0.0
H258 H 0.59028 0.46844 0.8096 0.0
H259 H 0.62831 0.44625 0.77872 0.0
H260 H 0.66533 0.49167 0.8171 0.0
H261 H 0.69365 0.41887 0.84135 0.0
H262 H 0.66065 0.37319 0.80241 0.0
H263 H 0.63894 0.34277 0.84715 0.0
H264 H 0.42069 0.26562 0.86469 0.0
H265 H 0.39556 0.20945 0.8076 0.0
H266 H 0.565 0.33338 0.76401 0.0
C267 C 0.62695 0.44949 0.89387 0.0
C268 C 0.60503 0.44965 0.92853 0.0
C269 C 0.54622 0.40899 0.93669 0.0
C270 C 0.50998 0.36772 0.91088 0.0
C271 C 0.53324 0.36805 0.87705 0.0
C272 C 0.59029 0.40819 0.86848 0.0
C273 C 0.60495 0.39944 0.83035 0.0
C274 C 0.62324 0.45468 0.8075 0.0
C275 C 0.65234 0.38256 0.83034 0.0
C276 C 0.54702 0.34834 0.8185 0.0
C277 C 0.50653 0.33008 0.84609 0.0
C278 C 0.45156 0.28042 0.84262 0.0
C279 C 0.43749 0.24897 0.81003 0.0
C280 C 0.4775 0.26821 0.78099 0.0
C281 C 0.53302 0.31842 0.78547 0.0
H282 H 0.38216 0.5103 1.00585 0.0
H283 H 0.34122 0.45323 0.11749 0.0
H284 H 0.443 0.52394 0.13439 0.0
H285 H 0.51469 0.52119 1.00187 0.0
H286 H 0.54622 0.5846 0.97268 0.0
H287 H 0.46947 0.53496 0.97206 0.0
H288 H 0.45401 0.62277 0.98543 0.0
H289 H 0.53137 0.67214 0.98753 0.0
H290 H 0.48602 0.6669 1.02516 0.0
H291 H 0.55074 0.58907 0.13674 0.0
H292 H 0.65408 0.62858 0.12275 0.0
H293 H 0.62213 0.65114 1.01091 0.0
C294 C 0.39416 0.51244 0.03397 0.0
C295 C 0.35394 0.47582 0.06034 0.0
C296 C 0.37163 0.4806 0.0968 0.0
C297 C 0.42895 0.5213 0.1067 0.0
C298 C 0.46716 0.55767 0.07995 0.0
C299 C 0.45029 0.55329 0.04431 0.0
C300 C 0.50027 0.5923 1.01981 0.0
C301 C 0.50813 0.55608 0.98992 0.0
C302 C 0.49242 0.64145 1.00355 0.0
C303 C 0.54919 0.61643 0.04684 0.0
C304 C 0.52917 0.59743 0.08164 0.0
C305 C 0.56696 0.60561 0.10992 0.0
C306 C 0.62585 0.62872 0.1018 0.0
C307 C 0.64539 0.64222 0.06565 0.0
C308 C 0.60788 0.64149 0.03877 0.0
H309 H 0.13063 0.59747 0.40441 0.0
H310 H 0.03867 0.67762 0.45079 0.0
H311 H 0.96778 0.58236 0.47862 0.0
H312 H 0.02102 0.48029 0.37398 0.0
H313 H 0.04477 0.42862 0.38327 0.0
H314 H 0.09723 0.50479 0.37838 0.0
H315 H 0.13875 0.50498 0.44172 0.0
H316 H 0.08573 0.42807 0.4468 0.0
H317 H 0.09124 0.47996 0.48045 0.0
H318 H 0.8939 0.4776 0.48377 0.0
H319 H 0.82525 0.37545 0.4655 0.0
H320 H 0.96608 0.36169 0.41869 0.0
C321 C 0.09677 0.59507 0.42176 0.0
C322 C 0.08931 0.6438 0.42566 0.0
C323 C 0.04483 0.64026 0.44798 0.0
C324 C 0.0048 0.58651 0.46398 0.0
C325 C 0.01131 0.53779 0.45804 0.0
C326 C 0.05718 0.54209 0.43803 0.0
C327 C 0.04952 0.48247 0.42997 0.0
C328 C 0.05326 0.47358 0.38902 0.0
C329 C 0.09395 0.47334 0.451 0.0
C330 C -0.01102 0.44359 0.44466 0.0
C331 C 0.96849 0.47608 0.46215 0.0
C332 C 0.91011 0.45132 0.4717 0.0
C333 C 0.87137 0.39331 0.46134 0.0
C334 C 0.89149 0.36116 0.44186 0.0
C335 C 0.95097 0.38528 0.43512 0.0
H336 H 0.3314 0.9759 0.69956 0.0
H337 H 0.39404 0.06072 0.80287 0.0
H338 H 0.42982 -0.00711 0.81692 0.0
H339 H 0.30315 0.82089 0.72738 0.0
H340 H 0.32914 0.81426 0.68368 0.0
H341 H 0.28959 0.8527 0.68815 0.0
H342 H 0.37468 0.94315 0.65705 0.0
H343 H 0.41552 0.90651 0.6536 0.0
H344 H 0.44627 0.97612 0.67651 0.0
H345 H 0.48338 0.93813 0.81139 0.0
H346 H 0.54047 0.89385 0.78956 0.0
H347 H 0.445 0.84867 0.68867 0.0
C348 C 0.34933 0.97738 0.72605 0.0
C349 C 0.3597 0.02245 0.75034 0.0
C350 C 0.38474 0.02524 0.78438 0.0
C351 C 0.40546 0.98712 0.79241 0.0
C352 C 0.3996 0.94635 0.76628 0.0
C353 C 0.37051 0.94015 0.73411 0.0
C354 C 0.37909 0.90168 0.70766 0.0
C355 C 0.32183 0.84394 0.70137 0.0
C356 C 0.40548 0.93384 0.67165 0.0
C357 C 0.42149 0.89139 0.72863 0.0
C358 C 0.43173 0.91587 0.76273 0.0
C359 C 0.47437 0.91723 0.78519 0.0
C360 C 0.50701 0.89263 0.77245 0.0
C361 C 0.49743 0.86834 0.73735 0.0
C362 C 0.45355 0.86709 0.71561 0.0
H363 H 0.58789 0.61864 0.72083 0.0
H364 H 0.60537 0.65085 0.60527 0.0
H365 H 0.55168 0.54373 0.59436 0.0
H366 H 0.58826 0.47807 0.72177 0.0
H367 H 0.53274 0.44807 0.75609 0.0
H368 H 0.58428 0.5259 0.75499 0.0
H369 H 0.49928 0.54746 0.7524 0.0
H370 H 0.44846 0.46983 0.75414 0.0
H371 H 0.44528 0.51297 0.7175 0.0
H372 H 0.48519 0.43338 0.59673 0.0
H373 H 0.42025 0.32862 0.61239 0.0
H374 H 0.43804 0.37388 0.72605 0.0
C375 C 0.58324 0.6035 0.69319 0.0
C376 C 0.60131 0.64296 0.66385 0.0
C377 C 0.59249 0.62113 0.6281 0.0
C378 C 0.56153 0.56047 0.62168 0.0
C379 C 0.5396 0.52288 0.65135 0.0
C380 C 0.55082 0.54365 0.68639 0.0
C381 C 0.517 0.4955 0.71352 0.0
C382 C 0.5581 0.4864 0.73804 0.0
C383 C 0.4751 0.50725 0.73572 0.0
C384 C 0.4843 0.44441 0.68838 0.0
C385 C 0.49822 0.46068 0.65263 0.0
C386 C 0.47407 0.42019 0.62464 0.0
C387 C 0.43683 0.36112 0.63372 0.0
C388 C 0.42356 0.34386 0.67034 0.0
C389 C 0.44621 0.38626 0.69781 0.0
H390 H -0.00507 0.3738 0.05247 0.0
H391 H 0.03703 0.39312 0.93814 0.0
H392 H 0.96834 0.42799 0.92785 0.0
H393 H 0.83848 0.33647 0.04045 0.0
H394 H 0.84034 0.37845 0.07898 0.0
H395 H 0.88098 0.34079 0.07938 0.0
H396 H 0.97773 0.43519 0.09218 0.0
H397 H 0.94049 0.47582 0.09464 0.0
H398 H -0.00015 0.49856 0.06363 0.0
H399 H 0.91493 0.48186 0.93215 0.0
H400 H 0.87029 0.54051 0.94977 0.0
H401 H 0.86734 0.49064 0.06172 0.0
C402 C -0.01246 0.38237 1.02497 0.0
C403 C 0.02145 0.38103 0.99614 0.0
C404 C 0.01141 0.39383 0.96064 0.0
C405 C 0.97249 0.41371 0.95452 0.0
C406 C 0.94357 0.4196 0.98411 0.0
C407 C 0.94943 0.40289 1.01852 0.0
C408 C 0.91964 0.42063 0.04633 0.0
C409 C 0.86681 0.36588 0.06228 0.0
C410 C 0.96193 0.45974 0.07596 0.0
C411 C 0.90108 0.45484 1.02272 0.0
C412 C 0.9136 0.45212 0.98676 0.0
C413 C 0.90377 0.48327 0.9601 0.0
C414 C 0.87925 0.51702 0.97039 0.0
C415 C 0.86642 0.52045 1.00709 0.0
C416 C 0.87768 0.48925 0.03356 0.0
H417 H 0.38542 0.8725 0.35043 0.0
H418 H 0.33449 0.95377 0.26793 0.0
H419 H 0.43835 0.01839 0.2509 0.0
H420 H 0.50133 -0.00345 0.38197 0.0
H421 H 0.54574 0.96449 0.39116 0.0
H422 H 0.46821 0.91907 0.39121 0.0
H423 H 0.47568 0.85138 0.34338 0.0
H424 H 0.55362 0.89742 0.3428 0.0
H425 H 0.5131 0.8822 0.30138 0.0
H426 H 0.54709 0.08281 0.25022 0.0
H427 H 0.64864 0.14665 0.26898 0.0
H428 H 0.62693 0.01958 0.3511 0.0
C429 C 0.39639 0.90333 0.32833 0.0
C430 C 0.35322 0.90913 0.31044 0.0
C431 C 0.36786 0.94944 0.28178 0.0
C432 C 0.42637 0.98557 0.27182 0.0
C433 C 0.46856 0.97938 0.29046 0.0
C434 C 0.45396 0.93894 0.31807 0.0
C435 C 0.50678 0.94515 0.33701 0.0
C436 C 0.50542 0.95708 0.3777 0.0
C437 C 0.51263 0.8908 0.33074 0.0
C438 C 0.55373 -0.00199 0.31734 0.0
C439 C 0.53115 0.0162 0.28991 0.0
C440 C 0.56541 0.0683 0.27107 0.0
C441 C 0.62319 0.10429 0.28195 0.0
C442 C 0.6456 0.08826 0.31176 0.0
C443 C 0.61133 0.03284 0.32804 0.0
H444 H 0.31954 0.28731 0.83054 0.0
H445 H 0.17238 0.1108 0.82012 0.0
H446 H 0.13403 0.12171 0.8788 0.0
H447 H 0.33718 0.28187 0.92711 0.0
H448 H 0.35706 0.35737 0.93401 0.0
H449 H 0.37328 0.33509 0.89168 0.0
H450 H 0.31757 0.37641 0.85702 0.0
H451 H 0.30209 0.39947 0.8992 0.0
H452 H 0.24344 0.35222 0.86932 0.0
H453 H 0.11295 0.15202 0.93933 0.0
H454 H 0.10606 0.20265 0.99398 0.0
H455 H 0.26481 0.36027 0.96292 0.0
C456 C 0.27902 0.25111 0.8405 0.0
C457 C 0.24858 0.19833 0.82083 0.0
C458 C 0.19606 0.15171 0.8348 0.0
C459 C 0.17423 0.1574 0.86816 0.0
C460 C 0.20566 0.2099 0.88714 0.0
C461 C 0.25677 0.25602 0.87368 0.0
C462 C 0.28167 0.30825 0.89886 0.0
C463 C 0.34078 0.32138 0.91381 0.0
C464 C 0.28643 0.36231 0.87995 0.0
C465 C 0.23563 0.28513 0.92811 0.0
C466 C 0.19282 0.2278 0.92131 0.0
C467 C 0.14613 0.19691 0.94486 0.0
C468 C 0.14262 0.22576 0.9758 0.0
C469 C 0.18487 0.285 0.98234 0.0
C470 C 0.232 0.31489 0.95836 0.0
H471 H 0.8963 0.17354 0.29359 0.0
H472 H 0.90546 0.33701 0.32353 0.0
H473 H 0.97355 0.38764 0.27347 0.0
H474 H 0.04795 0.23787 0.26696 0.0
H475 H 0.0326 0.18888 0.22934 0.0
H476 H -0.01467 0.16495 0.26818 0.0
H477 H 0.89741 0.1398 0.227 0.0
H478 H 0.94436 0.16352 0.18804 0.0
H479 H 0.89998 0.19552 0.19755 0.0
H480 H 0.03847 0.42066 0.22029 0.0
H481 H 0.09572 0.43423 0.16532 0.0
H482 H 0.0467 0.25038 0.16816 0.0
C483 C 0.91295 0.22001 0.28959 0.0
C484 C 0.89554 0.25139 0.31236 0.0
C485 C 0.91794 0.31207 0.3063 0.0
C486 C 0.95683 0.3413 0.27801 0.0
C487 C 0.97306 0.30929 0.25597 0.0
C488 C 0.95193 0.25003 0.26125 0.0
C489 C 0.97575 0.22615 0.23286 0.0
C490 C 0.0126 0.2031 0.25039 0.0
C491 C 0.92643 0.17843 0.21001 0.0
C492 C 0.01315 0.2812 0.21076 0.0
C493 C 0.011 0.32857 0.22485 0.0
C494 C 0.04078 0.38401 0.2091 0.0
C495 C 0.07332 0.39128 0.1779 0.0
C496 C 0.07603 0.34349 0.16269 0.0
C497 C 0.04576 0.28774 0.17945 0.0
H498 H 0.67158 0.97026 0.6518 0.0
H499 H 0.70974 0.83596 0.61834 0.0
H500 H 0.74675 0.88648 0.5599 0.0
H501 H 0.61784 0.98171 0.56541 0.0
H502 H 0.6458 0.05963 0.56816 0.0
H503 H 0.62755 0.01631 0.60883 0.0
H504 H 0.73185 0.08417 0.63302 0.0
H505 H 0.75015 0.12748 0.59231 0.0
H506 H 0.79315 0.09576 0.60613 0.0
H507 H 0.77665 0.9489 0.50458 0.0
H508 H 0.79381 0.01769 0.45438 0.0
H509 H 0.73129 0.10919 0.52133 0.0
C510 C 0.68917 0.95262 0.63241 0.0
C511 C 0.68934 0.90015 0.63971 0.0
C512 C 0.71027 0.87669 0.61331 0.0
C513 C 0.73127 0.905 0.58007 0.0
C514 C 0.73 0.95624 0.57333 0.0
C515 C 0.70909 0.97973 0.59854 0.0
C516 C 0.70851 0.0328 0.58311 0.0
C517 C 0.64623 0.02194 0.58128 0.0
C518 C 0.7483 0.08835 0.60494 0.0
C519 C 0.7328 0.03556 0.54556 0.0
C520 C 0.74517 0.99114 0.54063 0.0
C521 C 0.7673 0.98401 0.50811 0.0
C522 C 0.77693 0.02324 0.47976 0.0
C523 C 0.76407 0.06871 0.48404 0.0
C524 C 0.74181 0.07493 0.51741 0.0
H525 H 0.64077 0.68842 0.82778 0.0
H526 H 0.75658 0.87717 0.82516 0.0
H527 H 0.8065 0.87062 0.87964 0.0
H528 H 0.6281 0.67334 0.92546 0.0
H529 H 0.62729 0.60462 0.92572 0.0
H530 H 0.5998 0.62468 0.88722 0.0
H531 H 0.67043 0.6107 0.84594 0.0
H532 H 0.69864 0.59177 0.88456 0.0
H533 H 0.74719 0.65114 0.85533 0.0
H534 H 0.84241 0.84417 0.93489 0.0
H535 H 0.86367 0.79902 0.98676 0.0
H536 H 0.72763 0.62729 0.95244 0.0
C537 C 0.67657 0.72832 0.83879 0.0
C538 C 0.69495 0.78341 0.82239 0.0
C539 C 0.74193 0.83464 0.83739 0.0
C540 C 0.7705 0.83132 0.86829 0.0
C541 C 0.75167 0.77638 0.88372 0.0
C542 C 0.70584 0.72571 0.86953 0.0
C543 C 0.69474 0.67215 0.89123 0.0
C544 C 0.63388 0.64196 0.90842 0.0
C545 C 0.70329 0.62892 0.86786 0.0
C546 C 0.74178 0.70073 0.91966 0.0
C547 C 0.77373 0.76089 0.91498 0.0
C548 C 0.81804 0.79705 0.93864 0.0
C549 C 0.82982 0.77106 0.96798 0.0
C550 C 0.79803 0.70952 0.97313 0.0
C551 C 0.75367 0.67405 0.94853 0.0
H552 H 0.13097 0.79584 0.26791 0.0
H553 H 0.00285 0.73373 0.35384 0.0
H554 H 0.92431 0.69752 0.30844 0.0
H555 H 0.05594 0.84851 0.21206 0.0
H556 H 0.07603 0.82955 0.16988 0.0
H557 H 0.12291 0.84765 0.20856 0.0
H558 H 0.11803 0.74474 0.20577 0.0
H559 H 0.07802 0.73439 0.16461 0.0
H560 H 0.04718 0.68029 0.19974 0.0
H561 H 0.86021 0.66463 0.25429 0.0
H562 H 0.81364 0.64182 0.19442 0.0
H563 H -0.01702 0.73209 0.14293 0.0
C564 C 0.08627 0.7741 0.27702 0.0
C565 C 0.07253 0.76688 0.31425 0.0
C566 C 0.01392 0.73942 0.32539 0.0
C567 C 0.96918 0.71872 0.29984 0.0
C568 C -0.01598 0.7269 0.26332 0.0
C569 C 0.04109 0.75433 0.25182 0.0
C570 C 0.04504 0.76038 0.21095 0.0
C571 C 0.07686 0.82539 0.19971 0.0
C572 C 0.07395 0.72811 0.19438 0.0
C573 C -0.01879 0.73017 0.20129 0.0
C574 C 0.94689 0.71119 0.23196 0.0
C575 C 0.88659 0.67977 0.23009 0.0
C576 C 0.86058 0.66696 0.19597 0.0
C577 C 0.89479 0.68564 0.16416 0.0
C578 C 0.95588 0.71798 0.16687 0.0
H579 H 0.25581 0.00841 0.64838 0.0
H580 H 0.3118 0.18319 0.60791 0.0
H581 H 0.29924 0.14678 0.54518 0.0
H582 H 0.33303 0.97669 0.58168 0.0
H583 H 0.2791 0.9 0.57761 0.0
H584 H 0.28674 0.93791 0.61949 0.0
H585 H 0.17824 0.9077 0.61764 0.0
H586 H 0.16981 0.869 0.57597 0.0
H587 H 0.1498 0.92475 0.57826 0.0
H588 H 0.28059 0.09179 0.48702 0.0
H589 H 0.26216 0.02258 0.43689 0.0
H590 H 0.2263 0.885 0.51447 0.0
C591 C 0.2639 0.03839 0.62619 0.0
C592 C 0.28314 0.09815 0.63269 0.0
C593 C 0.29595 0.137 0.60324 0.0
C594 C 0.28909 0.11677 0.5676 0.0
C595 C 0.27064 0.05776 0.56189 0.0
C596 C 0.25873 0.01915 0.59029 0.0
C597 C 0.24365 0.95893 0.57654 0.0
C598 C 0.2883 0.94244 0.5896 0.0
C599 C 0.18168 0.91235 0.58777 0.0
C600 C 0.2481 0.9696 0.53604 0.0
C601 C 0.26333 0.02683 0.52823 0.0
C602 C 0.26889 0.04692 0.49277 0.0
C603 C 0.25835 0.00739 0.46449 0.0
C604 C 0.24317 0.94875 0.47185 0.0
C605 C 0.23833 0.92981 0.5081 0.0
loop_
_geom_bond_atom_site_label_1
_geom_bond_atom_site_label_2
_geom_bond_distance
_geom_bond_site_symmetry_2
_ccdc_geom_bond_type
Tb0 O3 2.453 1_554 S
Tb0 O4 2.596 1_554 S
Tb0 O5 2.374 . S
Tb0 O13 2.343 . S
Tb0 O15 2.353 1_554 S
Tb0 O17 2.427 . S
Tb0 O18 2.513 . S
C1 O5 1.251 . S
C1 O7 1.263 . S
Tb2 O4 2.343 . S
Tb2 O7 2.353 1_556 S
Tb2 O10 2.427 . S
Tb2 O11 2.513 . S
Tb2 O12 2.453 1_556 S
Tb2 O13 2.596 1_556 S
Tb2 O14 2.374 . S
O3 Tb0 2.453 1_556 S
O3 C19 1.245 . S
O4 Tb0 2.596 1_556 S
O4 Tb2 2.343 . S
O4 C19 1.259 . S
O5 Tb0 2.374 . S
O5 C1 1.251 . S
C6 O10 1.275 . S
C6 O11 1.246 . S
O7 C1 1.263 . S
O7 Tb2 2.353 1_554 S
C8 O12 1.245 . S
C8 O13 1.259 . S
C9 O14 1.250 . S
C9 O15 1.263 . S
O10 Tb2 2.427 . S
O10 C6 1.275 . S
O11 Tb2 2.513 . S
O11 C6 1.246 . S
O12 Tb2 2.453 1_554 S
O12 C8 1.245 . S
O13 Tb0 2.343 . S
O13 Tb2 2.596 1_554 S
O13 C8 1.259 . S
O14 Tb2 2.374 . S
O14 C9 1.250 . S
O15 Tb0 2.353 1_556 S
O15 C9 1.263 . S
C16 O17 1.275 . S
C16 O18 1.246 . S
O17 Tb0 2.427 . S
O17 C16 1.275 . S
O18 Tb0 2.513 . S
O18 C16 1.246 . S
C19 O3 1.245 . S
C19 O4 1.259 . S
Tb20 O23 2.453 . S
Tb20 O24 2.596 . S
Tb20 O25 2.374 . S
Tb20 O33 2.343 . S
Tb20 O35 2.353 . S
Tb20 O37 2.427 . S
Tb20 O38 2.513 . S
C21 O25 1.251 . S
C21 O27 1.263 . S
Tb22 O24 2.343 . S
Tb22 O27 2.353 . S
Tb22 O30 2.427 . S
Tb22 O31 2.513 . S
Tb22 O32 2.453 . S
Tb22 O33 2.596 . S
Tb22 O34 2.374 . S
O23 Tb20 2.453 . S
O23 C39 1.245 . S
O24 Tb20 2.596 . S
O24 Tb22 2.343 . S
O24 C39 1.259 . S
O25 Tb20 2.374 . S
O25 C21 1.251 . S
C26 O30 1.275 . S
C26 O31 1.246 . S
O27 C21 1.263 . S
O27 Tb22 2.353 . S
C28 O32 1.245 . S
C28 O33 1.259 . S
C29 O34 1.250 . S
C29 O35 1.263 . S
O30 Tb22 2.427 . S
O30 C26 1.275 . S
O31 Tb22 2.513 . S
O31 C26 1.246 . S
O32 Tb22 2.453 . S
O32 C28 1.245 . S
O33 Tb20 2.343 . S
O33 Tb22 2.596 . S
O33 C28 1.259 . S
O34 Tb22 2.374 . S
O34 C29 1.250 . S
O35 Tb20 2.353 . S
O35 C29 1.263 . S
C36 O37 1.275 . S
C36 O38 1.246 . S
O37 Tb20 2.427 . S
O37 C36 1.275 . S
O38 Tb20 2.513 . S
O38 C36 1.246 . S
C39 O23 1.245 . S
C39 O24 1.259 . S
Tb40 O43 2.453 . S
Tb40 O44 2.596 . S
Tb40 O45 2.374 . S
Tb40 O53 2.343 . S
Tb40 O55 2.353 . S
Tb40 O57 2.427 . S
Tb40 O58 2.513 . S
C41 O45 1.251 . S
C41 O47 1.263 . S
Tb42 O44 2.343 . S
Tb42 O47 2.353 . S
Tb42 O50 2.427 . S
Tb42 O51 2.513 . S
Tb42 O52 2.453 . S
Tb42 O53 2.596 . S
Tb42 O54 2.374 . S
O43 Tb40 2.453 . S
O43 C59 1.245 . S
O44 Tb40 2.596 . S
O44 Tb42 2.343 . S
O44 C59 1.259 . S
O45 Tb40 2.374 . S
O45 C41 1.251 . S
C46 O50 1.275 . S
C46 O51 1.246 . S
O47 C41 1.263 . S
O47 Tb42 2.353 . S
C48 O52 1.245 . S
C48 O53 1.259 . S
C49 O54 1.250 . S
C49 O55 1.263 . S
O50 Tb42 2.427 . S
O50 C46 1.275 . S
O51 Tb42 2.513 . S
O51 C46 1.246 . S
O52 Tb42 2.453 . S
O52 C48 1.245 . S
O53 Tb40 2.343 . S
O53 Tb42 2.596 . S
O53 C48 1.259 . S
O54 Tb42 2.374 . S
O54 C49 1.250 . S
O55 Tb40 2.353 . S
O55 C49 1.263 . S
C56 O57 1.275 . S
C56 O58 1.246 . S
O57 Tb40 2.427 . S
O57 C56 1.275 . S
O58 Tb40 2.513 . S
O58 C56 1.246 . S
C59 O43 1.245 . S
C59 O44 1.259 . S
Tb60 O63 2.453 1_554 S
Tb60 O64 2.596 1_554 S
Tb60 O65 2.374 . S
Tb60 O73 2.343 . S
Tb60 O75 2.353 1_554 S
Tb60 O77 2.427 . S
Tb60 O78 2.513 . S
C61 O65 1.251 . S
C61 O67 1.263 . S
Tb62 O64 2.343 . S
Tb62 O67 2.353 1_556 S
Tb62 O70 2.427 . S
Tb62 O71 2.513 . S
Tb62 O72 2.453 1_556 S
Tb62 O73 2.596 1_556 S
Tb62 O74 2.374 . S
O63 Tb60 2.453 1_556 S
O63 C79 1.245 . S
O64 Tb60 2.596 1_556 S
O64 Tb62 2.343 . S
O64 C79 1.259 . S
O65 Tb60 2.374 . S
O65 C61 1.251 . S
C66 O70 1.275 . S
C66 O71 1.246 . S
O67 C61 1.263 . S
O67 Tb62 2.353 1_554 S
C68 O72 1.245 . S
C68 O73 1.259 . S
C69 O74 1.250 . S
C69 O75 1.263 . S
O70 Tb62 2.427 . S
O70 C66 1.275 . S
O71 Tb62 2.513 . S
O71 C66 1.246 . S
O72 Tb62 2.453 1_554 S
O72 C68 1.245 . S
O73 Tb60 2.343 . S
O73 Tb62 2.596 1_554 S
O73 C68 1.259 . S
O74 Tb62 2.374 . S
O74 C69 1.250 . S
O75 Tb60 2.353 1_556 S
O75 C69 1.263 . S
C76 O77 1.275 . S
C76 O78 1.246 . S
O77 Tb60 2.427 . S
O77 C76 1.275 . S
O78 Tb60 2.513 . S
O78 C76 1.246 . S
C79 O63 1.245 . S
C79 O64 1.259 . S
Tb80 O83 2.453 . S
Tb80 O84 2.596 . S
Tb80 O85 2.374 . S
Tb80 O93 2.343 . S
Tb80 O95 2.353 . S
Tb80 O97 2.427 . S
Tb80 O98 2.513 . S
C81 O85 1.251 . S
C81 O87 1.263 . S
Tb82 O84 2.343 . S
Tb82 O87 2.353 . S
Tb82 O90 2.427 . S
Tb82 O91 2.513 . S
Tb82 O92 2.453 . S
Tb82 O93 2.596 . S
Tb82 O94 2.374 . S
O83 Tb80 2.453 . S
O83 C99 1.245 . S
O84 Tb80 2.596 . S
O84 Tb82 2.343 . S
O84 C99 1.259 . S
O85 Tb80 2.374 . S
O85 C81 1.251 . S
C86 O90 1.275 . S
C86 O91 1.246 . S
O87 C81 1.263 . S
O87 Tb82 2.353 . S
C88 O92 1.245 . S
C88 O93 1.259 . S
C89 O94 1.250 . S
C89 O95 1.263 . S
O90 Tb82 2.427 . S
O90 C86 1.275 . S
O91 Tb82 2.513 . S
O91 C86 1.246 . S
O92 Tb82 2.453 . S
O92 C88 1.245 . S
O93 Tb80 2.343 . S
O93 Tb82 2.596 . S
O93 C88 1.259 . S
O94 Tb82 2.374 . S
O94 C89 1.250 . S
O95 Tb80 2.353 . S
O95 C89 1.263 . S
C96 O97 1.275 . S
C96 O98 1.246 . S
O97 Tb80 2.427 . S
O97 C96 1.275 . S
O98 Tb80 2.513 . S
O98 C96 1.246 . S
C99 O83 1.245 . S
C99 O84 1.259 . S
Tb100 O103 2.453 . S
Tb100 O104 2.596 . S
Tb100 O105 2.374 . S
Tb100 O113 2.343 . S
Tb100 O115 2.353 . S
Tb100 O117 2.427 . S
Tb100 O118 2.513 . S
C101 O105 1.251 . S
C101 O107 1.263 . S
Tb102 O104 2.343 . S
Tb102 O107 2.353 . S
Tb102 O110 2.427 . S
Tb102 O111 2.513 . S
Tb102 O112 2.453 . S
Tb102 O113 2.596 . S
Tb102 O114 2.374 . S
O103 Tb100 2.453 . S
O103 C119 1.245 . S
O104 Tb100 2.596 . S
O104 Tb102 2.343 . S
O104 C119 1.259 . S
O105 Tb100 2.374 . S
O105 C101 1.251 . S
C106 O110 1.275 . S
C106 O111 1.246 . S
O107 C101 1.263 . S
O107 Tb102 2.353 . S
C108 O112 1.245 . S
C108 O113 1.259 . S
C109 O114 1.250 . S
C109 O115 1.263 . S
O110 Tb102 2.427 . S
O110 C106 1.275 . S
O111 Tb102 2.513 . S
O111 C106 1.246 . S
O112 Tb102 2.453 . S
O112 C108 1.245 . S
O113 Tb100 2.343 . S
O113 Tb102 2.596 . S
O113 C108 1.259 . S
O114 Tb102 2.374 . S
O114 C109 1.250 . S
O115 Tb100 2.353 . S
O115 C109 1.263 . S
C116 O117 1.275 . S
C116 O118 1.246 . S
O117 Tb100 2.427 . S
O117 C116 1.275 . S
O118 Tb100 2.513 . S
O118 C116 1.246 . S
C119 O103 1.245 . S
C119 O104 1.259 . S
H120 C132 0.930 . S
H121 C134 0.930 . S
H122 C135 0.930 . S
H123 C139 0.959 . S
H124 C139 0.959 . S
H125 C139 0.961 . S
H126 C140 0.960 . S
H127 C140 0.961 . S
H128 C140 0.959 . S
H129 C143 0.929 . S
H130 C144 0.931 . S
H131 C146 0.930 . S
C132 H120 0.930 . S
C132 C133 1.399 . S
C132 C137 1.399 . S
C133 C132 1.399 . S
C133 C134 1.376 . S
C134 H121 0.930 . S
C134 C133 1.376 . S
C134 C135 1.388 . S
C135 H122 0.930 . S
C135 C134 1.388 . S
C135 C136 1.390 . S
C136 C135 1.390 . S
C136 C137 1.394 . S
C136 C142 1.465 . S
C137 C132 1.399 . S
C137 C136 1.394 . S
C137 C138 1.516 . S
C138 C137 1.516 . S
C138 C139 1.502 . S
C138 C140 1.561 . S
C138 C141 1.526 . S
C139 H123 0.959 . S
C139 H124 0.959 . S
C139 H125 0.961 . S
C139 C138 1.502 . S
C140 H126 0.960 . S
C140 H127 0.961 . S
C140 H128 0.959 . S
C140 C138 1.561 . S
C141 C138 1.526 . S
C141 C142 1.396 . S
C141 C146 1.390 . S
C142 C136 1.465 . S
C142 C141 1.396 . S
C142 C143 1.399 . S
C143 H129 0.929 . S
C143 C142 1.399 . S
C143 C144 1.385 . S
C144 H130 0.931 . S
C144 C143 1.385 . S
C144 C145 1.389 . S
C145 C144 1.389 . S
C145 C146 1.387 . S
C146 H131 0.930 . S
C146 C141 1.390 . S
C146 C145 1.387 . S
H147 C159 0.930 . S
H148 C161 0.930 . S
H149 C162 0.930 . S
H150 C166 0.959 . S
H151 C166 0.959 . S
H152 C166 0.961 . S
H153 C167 0.960 . S
H154 C167 0.961 . S
H155 C167 0.959 . S
H156 C170 0.929 . S
H157 C171 0.931 . S
H158 C173 0.930 . S
C159 H147 0.930 . S
C159 C160 1.399 . S
C159 C164 1.399 . S
C160 C159 1.399 . S
C160 C161 1.376 . S
C161 H148 0.930 . S
C161 C160 1.376 . S
C161 C162 1.388 . S
C162 H149 0.930 . S
C162 C161 1.388 . S
C162 C163 1.390 . S
C163 C162 1.390 . S
C163 C164 1.394 . S
C163 C169 1.465 . S
C164 C159 1.399 . S
C164 C163 1.394 . S
C164 C165 1.516 . S
C165 C164 1.516 . S
C165 C166 1.502 . S
C165 C167 1.561 . S
C165 C168 1.526 . S
C166 H150 0.959 . S
C166 H151 0.959 . S
C166 H152 0.961 . S
C166 C165 1.502 . S
C167 H153 0.960 . S
C167 H154 0.961 . S
C167 H155 0.959 . S
C167 C165 1.561 . S
C168 C165 1.526 . S
C168 C169 1.396 . S
C168 C173 1.390 . S
C169 C163 1.465 . S
C169 C168 1.396 . S
C169 C170 1.399 . S
C170 H156 0.929 . S
C170 C169 1.399 . S
C170 C171 1.385 . S
C171 H157 0.931 . S
C171 C170 1.385 . S
C171 C172 1.389 . S
C172 C171 1.389 . S
C172 C173 1.387 . S
C173 H158 0.930 . S
C173 C168 1.390 . S
C173 C172 1.387 . S
H174 C186 0.930 . S
H175 C188 0.930 . S
H176 C189 0.930 . S
H177 C193 0.959 . S
H178 C193 0.959 . S
H179 C193 0.961 . S
H180 C194 0.960 . S
H181 C194 0.961 . S
H182 C194 0.959 . S
H183 C197 0.929 . S
H184 C198 0.931 . S
H185 C200 0.930 . S
C186 H174 0.930 . S
C186 C187 1.399 . S
C186 C191 1.399 . S
C187 C186 1.399 . S
C187 C188 1.376 . S
C188 H175 0.930 . S
C188 C187 1.376 . S
C188 C189 1.388 . S
C189 H176 0.930 . S
C189 C188 1.388 . S
C189 C190 1.390 . S
C190 C189 1.390 . S
C190 C191 1.394 . S
C190 C196 1.465 . S
C191 C186 1.399 . S
C191 C190 1.394 . S
C191 C192 1.516 . S
C192 C191 1.516 . S
C192 C193 1.502 . S
C192 C194 1.561 . S
C192 C195 1.526 . S
C193 H177 0.959 . S
C193 H178 0.959 . S
C193 H179 0.961 . S
C193 C192 1.502 . S
C194 H180 0.960 . S
C194 H181 0.961 . S
C194 H182 0.959 . S
C194 C192 1.561 . S
C195 C192 1.526 . S
C195 C196 1.396 . S
C195 C200 1.390 . S
C196 C190 1.465 . S
C196 C195 1.396 . S
C196 C197 1.399 . S
C197 H183 0.929 . S
C197 C196 1.399 . S
C197 C198 1.385 . S
C198 H184 0.931 . S
C198 C197 1.385 . S
C198 C199 1.389 . S
C199 C198 1.389 . S
C199 C200 1.387 . S
C200 H185 0.930 . S
C200 C195 1.390 . S
C200 C199 1.387 . S
H201 C213 0.930 . S
H202 C215 0.930 . S
H203 C216 0.930 . S
H204 C220 0.959 . S
H205 C220 0.959 . S
H206 C220 0.961 . S
H207 C221 0.960 . S
H208 C221 0.961 . S
H209 C221 0.959 . S
H210 C224 0.929 . S
H211 C225 0.931 . S
H212 C227 0.930 . S
C213 H201 0.930 . S
C213 C214 1.399 . S
C213 C218 1.399 . S
C214 C213 1.399 . S
C214 C215 1.376 . S
C215 H202 0.930 . S
C215 C214 1.376 . S
C215 C216 1.388 . S
C216 H203 0.930 . S
C216 C215 1.388 . S
C216 C217 1.390 . S
C217 C216 1.390 . S
C217 C218 1.394 . S
C217 C223 1.465 . S
C218 C213 1.399 . S
C218 C217 1.394 . S
C218 C219 1.516 . S
C219 C218 1.516 . S
C219 C220 1.502 . S
C219 C221 1.561 . S
C219 C222 1.526 . S
C220 H204 0.959 . S
C220 H205 0.959 . S
C220 H206 0.961 . S
C220 C219 1.502 . S
C221 H207 0.960 . S
C221 H208 0.961 . S
C221 H209 0.959 . S
C221 C219 1.561 . S
C222 C219 1.526 . S
C222 C223 1.396 . S
C222 C227 1.390 . S
C223 C217 1.465 . S
C223 C222 1.396 . S
C223 C224 1.399 . S
C224 H210 0.929 . S
C224 C223 1.399 . S
C224 C225 1.385 . S
C225 H211 0.931 . S
C225 C224 1.385 . S
C225 C226 1.389 . S
C226 C225 1.389 . S
C226 C227 1.387 . S
C227 H212 0.930 . S
C227 C222 1.390 . S
C227 C226 1.387 . S
H228 C240 0.930 . S
H229 C242 0.930 . S
H230 C243 0.930 . S
H231 C247 0.959 . S
H232 C247 0.959 . S
H233 C247 0.961 . S
H234 C248 0.960 . S
H235 C248 0.961 . S
H236 C248 0.959 . S
H237 C251 0.929 . S
H238 C252 0.931 . S
H239 C254 0.930 . S
C240 H228 0.930 . S
C240 C241 1.399 . S
C240 C245 1.399 . S
C241 C240 1.399 . S
C241 C242 1.376 . S
C242 H229 0.930 . S
C242 C241 1.376 . S
C242 C243 1.388 . S
C243 H230 0.930 . S
C243 C242 1.388 . S
C243 C244 1.390 . S
C244 C243 1.390 . S
C244 C245 1.394 . S
C244 C250 1.465 . S
C245 C240 1.399 . S
C245 C244 1.394 . S
C245 C246 1.516 . S
C246 C245 1.516 . S
C246 C247 1.502 . S
C246 C248 1.561 . S
C246 C249 1.526 . S
C247 H231 0.959 . S
C247 H232 0.959 . S
C247 H233 0.961 . S
C247 C246 1.502 . S
C248 H234 0.960 . S
C248 H235 0.961 . S
C248 H236 0.959 . S
C248 C246 1.561 . S
C249 C246 1.526 . S
C249 C250 1.396 . S
C249 C254 1.390 . S
C250 C244 1.465 . S
C250 C249 1.396 . S
C250 C251 1.399 . S
C251 H237 0.929 . S
C251 C250 1.399 . S
C251 C252 1.385 . S
C252 H238 0.931 . S
C252 C251 1.385 . S
C252 C253 1.389 . S
C253 C252 1.389 . S
C253 C254 1.387 . S
C254 H239 0.930 . S
C254 C249 1.390 . S
C254 C253 1.387 . S
H255 C267 0.930 . S
H256 C269 0.930 . S
H257 C270 0.930 . S
H258 C274 0.959 . S
H259 C274 0.959 . S
H260 C274 0.961 . S
H261 C275 0.960 . S
H262 C275 0.961 . S
H263 C275 0.959 . S
H264 C278 0.929 . S
H265 C279 0.931 . S
H266 C281 0.930 . S
C267 H255 0.930 . S
C267 C268 1.399 . S
C267 C272 1.399 . S
C268 C267 1.399 . S
C268 C269 1.376 . S
C269 H256 0.930 . S
C269 C268 1.376 . S
C269 C270 1.388 . S
C270 H257 0.930 . S
C270 C269 1.388 . S
C270 C271 1.390 . S
C271 C270 1.390 . S
C271 C272 1.394 . S
C271 C277 1.465 . S
C272 C267 1.399 . S
C272 C271 1.394 . S
C272 C273 1.516 . S
C273 C272 1.516 . S
C273 C274 1.502 . S
C273 C275 1.561 . S
C273 C276 1.526 . S
C274 H258 0.959 . S
C274 H259 0.959 . S
C274 H260 0.961 . S
C274 C273 1.502 . S
C275 H261 0.960 . S
C275 H262 0.961 . S
C275 H263 0.959 . S
C275 C273 1.561 . S
C276 C273 1.526 . S
C276 C277 1.396 . S
C276 C281 1.390 . S
C277 C271 1.465 . S
C277 C276 1.396 . S
C277 C278 1.399 . S
C278 H264 0.929 . S
C278 C277 1.399 . S
C278 C279 1.385 . S
C279 H265 0.931 . S
C279 C278 1.385 . S
C279 C280 1.389 . S
C280 C279 1.389 . S
C280 C281 1.387 . S
C281 H266 0.930 . S
C281 C276 1.390 . S
C281 C280 1.387 . S
H282 C294 0.930 1_556 S
H283 C296 0.930 . S
H284 C297 0.930 . S
H285 C301 0.959 1_554 S
H286 C301 0.959 . S
H287 C301 0.961 . S
H288 C302 0.960 . S
H289 C302 0.961 . S
H290 C302 0.959 . S
H291 C305 0.929 . S
H292 C306 0.931 . S
H293 C308 0.930 1_556 S
C294 H282 0.930 1_554 S
C294 C295 1.399 . S
C294 C299 1.399 . S
C295 C294 1.399 . S
C295 C296 1.376 . S
C296 H283 0.930 . S
C296 C295 1.376 . S
C296 C297 1.388 . S
C297 H284 0.930 . S
C297 C296 1.388 . S
C297 C298 1.390 . S
C298 C297 1.390 . S
C298 C299 1.394 . S
C298 C304 1.465 . S
C299 C294 1.399 . S
C299 C298 1.394 . S
C299 C300 1.516 1_554 S
C300 C299 1.516 1_556 S
C300 C301 1.502 . S
C300 C302 1.561 . S
C300 C303 1.526 1_556 S
C301 H285 0.959 1_556 S
C301 H286 0.959 . S
C301 H287 0.961 . S
C301 C300 1.502 . S
C302 H288 0.960 . S
C302 H289 0.961 . S
C302 H290 0.959 . S
C302 C300 1.561 . S
C303 C300 1.526 1_554 S
C303 C304 1.396 . S
C303 C308 1.390 . S
C304 C298 1.465 . S
C304 C303 1.396 . S
C304 C305 1.399 . S
C305 H291 0.929 . S
C305 C304 1.399 . S
C305 C306 1.385 . S
C306 H292 0.931 . S
C306 C305 1.385 . S
C306 C307 1.389 . S
C307 C306 1.389 . S
C307 C308 1.387 . S
C308 H293 0.930 1_554 S
C308 C303 1.390 . S
C308 C307 1.387 . S
H309 C321 0.930 . S
H310 C323 0.930 . S
H311 C324 0.930 . S
H312 C328 0.959 . S
H313 C328 0.959 . S
H314 C328 0.961 . S
H315 C329 0.960 . S
H316 C329 0.961 . S
H317 C329 0.959 . S
H318 C332 0.929 . S
H319 C333 0.931 . S
H320 C335 0.930 . S
C321 H309 0.930 . S
C321 C322 1.399 . S
C321 C326 1.399 . S
C322 C321 1.399 . S
C322 C323 1.376 . S
C323 H310 0.930 . S
C323 C322 1.376 . S
C323 C324 1.388 . S
C324 H311 0.930 . S
C324 C323 1.388 . S
C324 C325 1.390 . S
C325 C324 1.390 . S
C325 C326 1.394 . S
C325 C331 1.465 1_455 S
C326 C321 1.399 . S
C326 C325 1.394 . S
C326 C327 1.516 . S
C327 C326 1.516 . S
C327 C328 1.502 1_455 S
C327 C329 1.561 . S
C327 C330 1.526 1_455 S
C328 H312 0.959 . S
C328 H313 0.959 . S
C328 H314 0.961 . S
C328 C327 1.502 1_655 S
C329 H315 0.960 . S
C329 H316 0.961 . S
C329 H317 0.959 . S
C329 C327 1.561 . S
C330 C327 1.526 1_655 S
C330 C331 1.396 . S
C330 C335 1.390 . S
C331 C325 1.465 1_655 S
C331 C330 1.396 . S
C331 C332 1.399 . S
C332 H318 0.929 . S
C332 C331 1.399 . S
C332 C333 1.385 . S
C333 H319 0.931 . S
C333 C332 1.385 . S
C333 C334 1.389 . S
C334 C333 1.389 . S
C334 C335 1.387 . S
C335 H320 0.930 . S
C335 C330 1.390 . S
C335 C334 1.387 . S
H336 C348 0.930 . S
H337 C350 0.930 . S
H338 C351 0.930 . S
H339 C355 0.959 . S
H340 C355 0.959 . S
H341 C355 0.961 . S
H342 C356 0.960 . S
H343 C356 0.961 . S
H344 C356 0.959 . S
H345 C359 0.929 1_545 S
H346 C360 0.931 . S
H347 C362 0.930 . S
C348 H336 0.930 . S
C348 C349 1.399 . S
C348 C353 1.399 . S
C349 C348 1.399 . S
C349 C350 1.376 . S
C350 H337 0.930 . S
C350 C349 1.376 . S
C350 C351 1.388 . S
C351 H338 0.930 . S
C351 C350 1.388 . S
C351 C352 1.390 . S
C352 C351 1.390 . S
C352 C353 1.394 . S
C352 C358 1.465 1_545 S
C353 C348 1.399 . S
C353 C352 1.394 . S
C353 C354 1.516 1_545 S
C354 C353 1.516 1_565 S
C354 C355 1.502 . S
C354 C356 1.561 1_565 S
C354 C357 1.526 . S
C355 H339 0.959 . S
C355 H340 0.959 . S
C355 H341 0.961 . S
C355 C354 1.502 . S
C356 H342 0.960 . S
C356 H343 0.961 . S
C356 H344 0.959 . S
C356 C354 1.561 1_545 S
C357 C354 1.526 . S
C357 C358 1.396 . S
C357 C362 1.390 . S
C358 C352 1.465 1_565 S
C358 C357 1.396 . S
C358 C359 1.399 . S
C359 H345 0.929 1_565 S
C359 C358 1.399 . S
C359 C360 1.385 . S
C360 H346 0.931 . S
C360 C359 1.385 . S
C360 C361 1.389 . S
C361 C360 1.389 . S
C361 C362 1.387 . S
C362 H347 0.930 . S
C362 C357 1.390 . S
C362 C361 1.387 . S
H363 C375 0.930 . S
H364 C377 0.930 . S
H365 C378 0.930 . S
H366 C382 0.959 . S
H367 C382 0.959 . S
H368 C382 0.961 . S
H369 C383 0.960 . S
H370 C383 0.961 . S
H371 C383 0.959 . S
H372 C386 0.929 . S
H373 C387 0.931 . S
H374 C389 0.930 . S
C375 H363 0.930 . S
C375 C376 1.399 . S
C375 C380 1.399 . S
C376 C375 1.399 . S
C376 C377 1.376 . S
C377 H364 0.930 . S
C377 C376 1.376 . S
C377 C378 1.388 . S
C378 H365 0.930 . S
C378 C377 1.388 . S
C378 C379 1.390 . S
C379 C378 1.390 . S
C379 C380 1.394 . S
C379 C385 1.465 . S
C380 C375 1.399 . S
C380 C379 1.394 . S
C380 C381 1.516 . S
C381 C380 1.516 . S
C381 C382 1.502 . S
C381 C383 1.561 . S
C381 C384 1.526 . S
C382 H366 0.959 . S
C382 H367 0.959 . S
C382 H368 0.961 . S
C382 C381 1.502 . S
C383 H369 0.960 . S
C383 H370 0.961 . S
C383 H371 0.959 . S
C383 C381 1.561 . S
C384 C381 1.526 . S
C384 C385 1.396 . S
C384 C389 1.390 . S
C385 C379 1.465 . S
C385 C384 1.396 . S
C385 C386 1.399 . S
C386 H372 0.929 . S
C386 C385 1.399 . S
C386 C387 1.385 . S
C387 H373 0.931 . S
C387 C386 1.385 . S
C387 C388 1.389 . S
C388 C387 1.389 . S
C388 C389 1.387 . S
C389 H374 0.930 . S
C389 C384 1.390 . S
C389 C388 1.387 . S
H390 C402 0.930 . S
H391 C404 0.930 . S
H392 C405 0.930 . S
H393 C409 0.959 . S
H394 C409 0.959 . S
H395 C409 0.961 . S
H396 C410 0.960 . S
H397 C410 0.961 . S
H398 C410 0.959 . S
H399 C413 0.929 1_455 S
H400 C414 0.931 . S
H401 C416 0.930 . S
C402 H390 0.930 . S
C402 C403 1.399 1_554 S
C402 C407 1.399 . S
C403 C402 1.399 1_556 S
C403 C404 1.376 . S
C404 H391 0.930 . S
C404 C403 1.376 . S
C404 C405 1.388 . S
C405 H392 0.930 . S
C405 C404 1.388 . S
C405 C406 1.390 . S
C406 C405 1.390 . S
C406 C407 1.394 1_556 S
C406 C412 1.465 1_455 S
C407 C402 1.399 . S
C407 C406 1.394 1_554 S
C407 C408 1.516 1_455 S
C408 C407 1.516 1_655 S
C408 C409 1.502 . S
C408 C410 1.561 1_655 S
C408 C411 1.526 . S
C409 H393 0.959 . S
C409 H394 0.959 . S
C409 H395 0.961 . S
C409 C408 1.502 . S
C410 H396 0.960 . S
C410 H397 0.961 . S
C410 H398 0.959 . S
C410 C408 1.561 1_455 S
C411 C408 1.526 . S
C411 C412 1.396 1_554 S
C411 C416 1.390 . S
C412 C406 1.465 1_655 S
C412 C411 1.396 1_556 S
C412 C413 1.399 . S
C413 H399 0.929 1_655 S
C413 C412 1.399 . S
C413 C414 1.385 . S
C414 H400 0.931 . S
C414 C413 1.385 . S
C414 C415 1.389 . S
C415 C414 1.389 . S
C415 C416 1.387 1_556 S
C416 H401 0.930 . S
C416 C411 1.390 . S
C416 C415 1.387 1_554 S
H417 C429 0.930 . S
H418 C431 0.930 . S
H419 C432 0.930 . S
H420 C436 0.959 . S
H421 C436 0.959 . S
H422 C436 0.961 . S
H423 C437 0.960 . S
H424 C437 0.961 . S
H425 C437 0.959 . S
H426 C440 0.929 . S
H427 C441 0.931 . S
H428 C443 0.930 . S
C429 H417 0.930 . S
C429 C430 1.399 . S
C429 C434 1.399 . S
C430 C429 1.399 . S
C430 C431 1.376 . S
C431 H418 0.930 . S
C431 C430 1.376 . S
C431 C432 1.388 . S
C432 H419 0.930 . S
C432 C431 1.388 . S
C432 C433 1.390 . S
C433 C432 1.390 . S
C433 C434 1.394 . S
C433 C439 1.465 1_565 S
C434 C429 1.399 . S
C434 C433 1.394 . S
C434 C435 1.516 . S
C435 C434 1.516 . S
C435 C436 1.502 1_565 S
C435 C437 1.561 . S
C435 C438 1.526 1_565 S
C436 H420 0.959 . S
C436 H421 0.959 . S
C436 H422 0.961 . S
C436 C435 1.502 1_545 S
C437 H423 0.960 . S
C437 H424 0.961 . S
C437 H425 0.959 . S
C437 C435 1.561 . S
C438 C435 1.526 1_545 S
C438 C439 1.396 . S
C438 C443 1.390 . S
C439 C433 1.465 1_545 S
C439 C438 1.396 . S
C439 C440 1.399 . S
C440 H426 0.929 . S
C440 C439 1.399 . S
C440 C441 1.385 . S
C441 H427 0.931 . S
C441 C440 1.385 . S
C441 C442 1.389 . S
C442 C441 1.389 . S
C442 C443 1.387 . S
C443 H428 0.930 . S
C443 C438 1.390 . S
C443 C442 1.387 . S
H444 C456 0.930 . S
H445 C458 0.930 . S
H446 C459 0.930 . S
H447 C463 0.959 . S
H448 C463 0.959 . S
H449 C463 0.961 . S
H450 C464 0.960 . S
H451 C464 0.961 . S
H452 C464 0.959 . S
H453 C467 0.929 . S
H454 C468 0.931 . S
H455 C470 0.930 . S
C456 H444 0.930 . S
C456 C457 1.399 . S
C456 C461 1.399 . S
C457 C456 1.399 . S
C457 C458 1.376 . S
C458 H445 0.930 . S
C458 C457 1.376 . S
C458 C459 1.388 . S
C459 H446 0.930 . S
C459 C458 1.388 . S
C459 C460 1.390 . S
C460 C459 1.390 . S
C460 C461 1.394 . S
C460 C466 1.465 . S
C461 C456 1.399 . S
C461 C460 1.394 . S
C461 C462 1.516 . S
C462 C461 1.516 . S
C462 C463 1.502 . S
C462 C464 1.561 . S
C462 C465 1.526 . S
C463 H447 0.959 . S
C463 H448 0.959 . S
C463 H449 0.961 . S
C463 C462 1.502 . S
C464 H450 0.960 . S
C464 H451 0.961 . S
C464 H452 0.959 . S
C464 C462 1.561 . S
C465 C462 1.526 . S
C465 C466 1.396 . S
C465 C470 1.390 . S
C466 C460 1.465 . S
C466 C465 1.396 . S
C466 C467 1.399 . S
C467 H453 0.929 . S
C467 C466 1.399 . S
C467 C468 1.385 . S
C468 H454 0.931 . S
C468 C467 1.385 . S
C468 C469 1.389 . S
C469 C468 1.389 . S
C469 C470 1.387 . S
C470 H455 0.930 . S
C470 C465 1.390 . S
C470 C469 1.387 . S
H471 C483 0.930 . S
H472 C485 0.930 . S
H473 C486 0.930 . S
H474 C490 0.959 . S
H475 C490 0.959 . S
H476 C490 0.961 1_655 S
H477 C491 0.960 . S
H478 C491 0.961 . S
H479 C491 0.959 . S
H480 C494 0.929 . S
H481 C495 0.931 . S
H482 C497 0.930 . S
C483 H471 0.930 . S
C483 C484 1.399 . S
C483 C488 1.399 . S
C484 C483 1.399 . S
C484 C485 1.376 . S
C485 H472 0.930 . S
C485 C484 1.376 . S
C485 C486 1.388 . S
C486 H473 0.930 . S
C486 C485 1.388 . S
C486 C487 1.390 . S
C487 C486 1.390 . S
C487 C488 1.394 . S
C487 C493 1.465 1_655 S
C488 C483 1.399 . S
C488 C487 1.394 . S
C488 C489 1.516 . S
C489 C488 1.516 . S
C489 C490 1.502 1_655 S
C489 C491 1.561 . S
C489 C492 1.526 1_655 S
C490 H474 0.959 . S
C490 H475 0.959 . S
C490 H476 0.961 1_455 S
C490 C489 1.502 1_455 S
C491 H477 0.960 . S
C491 H478 0.961 . S
C491 H479 0.959 . S
C491 C489 1.561 . S
C492 C489 1.526 1_455 S
C492 C493 1.396 . S
C492 C497 1.390 . S
C493 C487 1.465 1_455 S
C493 C492 1.396 . S
C493 C494 1.399 . S
C494 H480 0.929 . S
C494 C493 1.399 . S
C494 C495 1.385 . S
C495 H481 0.931 . S
C495 C494 1.385 . S
C495 C496 1.389 . S
C496 C495 1.389 . S
C496 C497 1.387 . S
C497 H482 0.930 . S
C497 C492 1.390 . S
C497 C496 1.387 . S
H498 C510 0.930 . S
H499 C512 0.930 . S
H500 C513 0.930 . S
H501 C517 0.959 . S
H502 C517 0.959 . S
H503 C517 0.961 . S
H504 C518 0.960 . S
H505 C518 0.961 . S
H506 C518 0.959 . S
H507 C521 0.929 . S
H508 C522 0.931 . S
H509 C524 0.930 . S
C510 H498 0.930 . S
C510 C511 1.399 . S
C510 C515 1.399 . S
C511 C510 1.399 . S
C511 C512 1.376 . S
C512 H499 0.930 . S
C512 C511 1.376 . S
C512 C513 1.388 . S
C513 H500 0.930 . S
C513 C512 1.388 . S
C513 C514 1.390 . S
C514 C513 1.390 . S
C514 C515 1.394 . S
C514 C520 1.465 . S
C515 C510 1.399 . S
C515 C514 1.394 . S
C515 C516 1.516 1_565 S
C516 C515 1.516 1_545 S
C516 C517 1.502 . S
C516 C518 1.561 . S
C516 C519 1.526 . S
C517 H501 0.959 . S
C517 H502 0.959 . S
C517 H503 0.961 . S
C517 C516 1.502 . S
C518 H504 0.960 . S
C518 H505 0.961 . S
C518 H506 0.959 . S
C518 C516 1.561 . S
C519 C516 1.526 . S
C519 C520 1.396 1_545 S
C519 C524 1.390 . S
C520 C514 1.465 . S
C520 C519 1.396 1_565 S
C520 C521 1.399 . S
C521 H507 0.929 . S
C521 C520 1.399 . S
C521 C522 1.385 1_565 S
C522 H508 0.931 . S
C522 C521 1.385 1_545 S
C522 C523 1.389 . S
C523 C522 1.389 . S
C523 C524 1.387 . S
C524 H509 0.930 . S
C524 C519 1.390 . S
C524 C523 1.387 . S
H525 C537 0.930 . S
H526 C539 0.930 . S
H527 C540 0.930 . S
H528 C544 0.959 . S
H529 C544 0.959 . S
H530 C544 0.961 . S
H531 C545 0.960 . S
H532 C545 0.961 . S
H533 C545 0.959 . S
H534 C548 0.929 . S
H535 C549 0.931 . S
H536 C551 0.930 . S
C537 H525 0.930 . S
C537 C538 1.399 . S
C537 C542 1.399 . S
C538 C537 1.399 . S
C538 C539 1.376 . S
C539 H526 0.930 . S
C539 C538 1.376 . S
C539 C540 1.388 . S
C540 H527 0.930 . S
C540 C539 1.388 . S
C540 C541 1.390 . S
C541 C540 1.390 . S
C541 C542 1.394 . S
C541 C547 1.465 . S
C542 C537 1.399 . S
C542 C541 1.394 . S
C542 C543 1.516 . S
C543 C542 1.516 . S
C543 C544 1.502 . S
C543 C545 1.561 . S
C543 C546 1.526 . S
C544 H528 0.959 . S
C544 H529 0.959 . S
C544 H530 0.961 . S
C544 C543 1.502 . S
C545 H531 0.960 . S
C545 H532 0.961 . S
C545 H533 0.959 . S
C545 C543 1.561 . S
C546 C543 1.526 . S
C546 C547 1.396 . S
C546 C551 1.390 . S
C547 C541 1.465 . S
C547 C546 1.396 . S
C547 C548 1.399 . S
C548 H534 0.929 . S
C548 C547 1.399 . S
C548 C549 1.385 . S
C549 H535 0.931 . S
C549 C548 1.385 . S
C549 C550 1.389 . S
C550 C549 1.389 . S
C550 C551 1.387 . S
C551 H536 0.930 . S
C551 C546 1.390 . S
C551 C550 1.387 . S
H552 C564 0.930 . S
H553 C566 0.930 . S
H554 C567 0.930 1_655 S
H555 C571 0.959 . S
H556 C571 0.959 . S
H557 C571 0.961 . S
H558 C572 0.960 . S
H559 C572 0.961 . S
H560 C572 0.959 . S
H561 C575 0.929 . S
H562 C576 0.931 . S
H563 C578 0.930 . S
C564 H552 0.930 . S
C564 C565 1.399 . S
C564 C569 1.399 . S
C565 C564 1.399 . S
C565 C566 1.376 . S
C566 H553 0.930 . S
C566 C565 1.376 . S
C566 C567 1.388 . S
C567 H554 0.930 1_455 S
C567 C566 1.388 . S
C567 C568 1.390 . S
C568 C567 1.390 . S
C568 C569 1.394 . S
C568 C574 1.465 1_455 S
C569 C564 1.399 . S
C569 C568 1.394 . S
C569 C570 1.516 . S
C570 C569 1.516 . S
C570 C571 1.502 . S
C570 C572 1.561 . S
C570 C573 1.526 1_455 S
C571 H555 0.959 . S
C571 H556 0.959 . S
C571 H557 0.961 . S
C571 C570 1.502 . S
C572 H558 0.960 . S
C572 H559 0.961 . S
C572 H560 0.959 . S
C572 C570 1.561 . S
C573 C570 1.526 1_655 S
C573 C574 1.396 . S
C573 C578 1.390 . S
C574 C568 1.465 1_655 S
C574 C573 1.396 . S
C574 C575 1.399 . S
C575 H561 0.929 . S
C575 C574 1.399 . S
C575 C576 1.385 . S
C576 H562 0.931 . S
C576 C575 1.385 . S
C576 C577 1.389 . S
C577 C576 1.389 . S
C577 C578 1.387 . S
C578 H563 0.930 . S
C578 C573 1.390 . S
C578 C577 1.387 . S
H579 C591 0.930 . S
H580 C593 0.930 . S
H581 C594 0.930 . S
H582 C598 0.959 . S
H583 C598 0.959 . S
H584 C598 0.961 . S
H585 C599 0.960 . S
H586 C599 0.961 . S
H587 C599 0.959 . S
H588 C602 0.929 . S
H589 C603 0.931 . S
H590 C605 0.930 . S
C591 H579 0.930 . S
C591 C592 1.399 . S
C591 C596 1.399 . S
C592 C591 1.399 . S
C592 C593 1.376 . S
C593 H580 0.930 . S
C593 C592 1.376 . S
C593 C594 1.388 . S
C594 H581 0.930 . S
C594 C593 1.388 . S
C594 C595 1.390 . S
C595 C594 1.390 . S
C595 C596 1.394 . S
C595 C601 1.465 . S
C596 C591 1.399 . S
C596 C595 1.394 . S
C596 C597 1.516 1_545 S
C597 C596 1.516 1_565 S
C597 C598 1.502 . S
C597 C599 1.561 . S
C597 C600 1.526 . S
C598 H582 0.959 . S
C598 H583 0.959 . S
C598 H584 0.961 . S
C598 C597 1.502 . S
C599 H585 0.960 . S
C599 H586 0.961 . S
C599 H587 0.959 . S
C599 C597 1.561 . S
C600 C597 1.526 . S
C600 C601 1.396 1_565 S
C600 C605 1.390 . S
C601 C595 1.465 . S
C601 C600 1.396 1_545 S
C601 C602 1.399 . S
C602 H588 0.929 . S
C602 C601 1.399 . S
C602 C603 1.385 1_545 S
C603 H589 0.931 . S
C603 C602 1.385 1_565 S
C603 C604 1.389 . S
C604 C603 1.389 . S
C604 C605 1.387 . S
C605 H590 0.930 . S
C605 C600 1.390 . S
C605 C604 1.387 . S
C133 C86 1.394 . S
C145 C8 1.327 . S
C160 C106 1.358 . S
C172 C28 1.368 . S
C187 C6 1.397 . S
C199 C48 1.313 . S
C214 C26 1.334 . S
C226 C68 1.349 . S
C241 C46 1.356 . S
C253 C88 1.369 . S
C268 C66 1.340 . S
C280 C108 1.305 . S
C295 C1 0.729 . S
C307 C61 0.882 . S
C322 C81 0.769 . S
C334 C21 0.820 . S
C349 C101 0.752 . S
C361 C41 0.840 . S
C376 C49 0.805 . S
C388 C109 0.821 . S
C403 C9 0.793 . S
C415 C69 0.839 . S
C430 C89 0.805 . S
C442 C29 0.823 . S
C457 C116 1.523 . S
C469 C19 1.488 . S
C484 C39 1.545 . S
C496 C16 1.531 . S
C511 C59 1.501 . S
C523 C36 1.514 . S
C538 C56 1.541 . S
C550 C79 1.480 . S
C565 C99 1.537 . S
C577 C76 1.545 . S
C592 C119 1.496 . S
C604 C96 1.517 . S
