# Generated by pormake.
# Topology smk, (6)-cn, num edge types: 1
# Building blocks:
#     Node 0, Type 0, BuildingBlock: FUNLAD_clean_sbu_0, # of connection points: 6
#     Node 1, Type 0, BuildingBlock: FUNLAD_clean_sbu_0, # of connection points: 6
#     Node 2, Type 0, BuildingBlock: FUNLAD_clean_sbu_0, # of connection points: 6
#     Node 3, Type 0, BuildingBlock: FUNLAD_clean_sbu_0, # of connection points: 6
#     Node 4, Type 0, BuildingBlock: FUNLAD_clean_sbu_0, # of connection points: 6
#     Node 5, Type 0, BuildingBlock: FUNLAD_clean_sbu_0, # of connection points: 6
#     Edge 6, Type (0, 0), BuildingBlock: FUNLAD_clean_linker_0, # of connection points: 2
#     Edge 7, Type (0, 0), BuildingBlock: FUNLAD_clean_linker_0, # of connection points: 2
#     Edge 8, Type (0, 0), BuildingBlock: FUNLAD_clean_linker_0, # of connection points: 2
#     Edge 9, Type (0, 0), BuildingBlock: FUNLAD_clean_linker_0, # of connection points: 2
#     Edge 10, Type (0, 0), BuildingBlock: FUNLAD_clean_linker_0, # of connection points: 2
#     Edge 11, Type (0, 0), BuildingBlock: FUNLAD_clean_linker_0, # of connection points: 2
#     Edge 12, Type (0, 0), BuildingBlock: FUNLAD_clean_linker_0, # of connection points: 2
#     Edge 13, Type (0, 0), BuildingBlock: FUNLAD_clean_linker_0, # of connection points: 2
#     Edge 14, Type (0, 0), BuildingBlock: FUNLAD_clean_linker_0, # of connection points: 2
#     Edge 15, Type (0, 0), BuildingBlock: FUNLAD_clean_linker_0, # of connection points: 2
#     Edge 16, Type (0, 0), BuildingBlock: FUNLAD_clean_linker_0, # of connection points: 2
#     Edge 17, Type (0, 0), BuildingBlock: FUNLAD_clean_linker_0, # of connection points: 2
#     Edge 18, Type (0, 0), BuildingBlock: FUNLAD_clean_linker_0, # of connection points: 2
#     Edge 19, Type (0, 0), BuildingBlock: FUNLAD_clean_linker_0, # of connection points: 2
#     Edge 20, Type (0, 0), BuildingBlock: FUNLAD_clean_linker_0, # of connection points: 2
#     Edge 21, Type (0, 0), BuildingBlock: FUNLAD_clean_linker_0, # of connection points: 2
#     Edge 22, Type (0, 0), BuildingBlock: FUNLAD_clean_linker_0, # of connection points: 2
#     Edge 23, Type (0, 0), BuildingBlock: FUNLAD_clean_linker_0, # of connection points: 2
# Relax obj value: 0.397
# Max RMSD: 0.246
# Mean RMSD: 0.246
data_MOF--net-smk--node1-FUNLAD_clean_sbu_0--edge1-FUNLAD_clean_linker_0
_symmetry_space_group_name_H-M    P1
_symmetry_Int_Tables_number       1
_symmetry_cell_setting            triclinic
loop_
_symmetry_equiv_pos_as_xyz
'x, y, z'
_cell_length_a     54.480106
_cell_length_b     54.435286
_cell_length_c     17.292625
_cell_angle_alpha  90.072806
_cell_angle_beta   90.15055
_cell_angle_gamma 120.06705
loop_
_atom_site_label
_atom_site_type_symbol
_atom_site_fract_x
_atom_site_fract_y
_atom_site_fract_z
_atom_type_partial_charge
C0 C 0.48814 0.27903 0.47638 0.0
N1 N 0.53375 0.34318 0.63295 0.0
C2 C 0.55744 0.3436 0.60607 0.0
C3 C 0.58265 0.36908 0.59654 0.0
C4 C 0.58367 0.39477 0.61267 0.0
C5 C 0.55907 0.3941 0.64004 0.0
C6 C 0.53418 0.36782 0.65058 0.0
Zn7 Zn 0.49745 0.30367 0.63205 0.0
C8 C 0.44528 0.30643 0.59537 0.0
N9 N 0.42438 0.21971 0.61551 0.0
C10 C 0.43072 0.20116 0.58048 0.0
C11 C 0.39717 0.21146 0.63607 0.0
C12 C 0.37525 0.18348 0.62172 0.0
C13 C 0.38169 0.164 0.58716 0.0
C14 C 0.40981 0.17325 0.56647 0.0
Zn15 Zn 0.45874 0.26032 0.62698 0.0
O16 O 0.5052 0.30064 0.51538 0.0
C17 C 0.51116 0.25853 0.67211 0.0
O18 O 0.46667 0.25901 0.50911 0.0
H19 H 0.39242 0.22656 0.66285 0.0
H20 H 0.55671 0.32417 0.5889 0.0
H21 H 0.45211 0.20806 0.56195 0.0
O22 O 0.52177 0.28511 0.66522 0.0
O23 O 0.48498 0.24241 0.65733 0.0
H24 H 0.51509 0.3672 0.67063 0.0
O25 O 0.45155 0.26271 0.74417 0.0
O26 O 0.48891 0.30591 0.7488 0.0
O27 O 0.43339 0.27949 0.60129 0.0
O28 O 0.47211 0.32147 0.60214 0.0
C29 C 0.468 0.28512 0.78214 0.0
H30 H 0.60095 0.36871 0.57357 0.0
H31 H 0.55907 0.4136 0.65254 0.0
H32 H 0.35369 0.17707 0.63808 0.0
H33 H 0.41555 0.15906 0.53826 0.0
C34 C 0.28276 0.47465 0.79728 0.0
N35 N 0.35146 0.52329 0.6566 0.0
C36 C 0.35215 0.54618 0.69073 0.0
C37 C 0.37774 0.57109 0.70318 0.0
C38 C 0.40324 0.57258 0.68207 0.0
C39 C 0.40229 0.54864 0.64821 0.0
C40 C 0.37592 0.52406 0.63522 0.0
Zn41 Zn 0.31162 0.4878 0.64697 0.0
C42 C 0.31156 0.43351 0.67437 0.0
N43 N 0.22672 0.41598 0.64052 0.0
C44 C 0.20718 0.42185 0.67091 0.0
C45 C 0.21917 0.38908 0.61788 0.0
C46 C 0.19095 0.36695 0.62569 0.0
C47 C 0.17057 0.37292 0.65575 0.0
C48 C 0.17897 0.40073 0.6781 0.0
Zn49 Zn 0.26776 0.44991 0.64066 0.0
O50 O 0.30593 0.49157 0.76452 0.0
C51 C 0.26839 0.50418 0.60533 0.0
O52 O 0.26291 0.45499 0.75831 0.0
H53 H 0.23502 0.38467 0.59495 0.0
H54 H 0.33278 0.54511 0.70986 0.0
H55 H 0.21347 0.44294 0.69146 0.0
O56 O 0.29461 0.5144 0.61923 0.0
O57 O 0.25192 0.47757 0.61056 0.0
H58 H 0.37503 0.50558 0.60901 0.0
O59 O 0.27351 0.44556 0.52363 0.0
O60 O 0.31649 0.48317 0.52934 0.0
O61 O 0.28486 0.42303 0.66681 0.0
O62 O 0.32778 0.46033 0.67129 0.0
C63 C 0.29667 0.46303 0.49078 0.0
H64 H 0.37764 0.58893 0.73078 0.0
H65 H 0.42164 0.54904 0.6315 0.0
H66 H 0.18509 0.34558 0.60823 0.0
H67 H 0.16387 0.40597 0.70264 0.0
C68 C 0.80305 0.22226 0.7843 0.0
N69 N 0.74725 0.22016 0.94692 0.0
C70 C 0.74384 0.23828 0.89986 0.0
C71 C 0.71798 0.23749 0.8955 0.0
C72 C 0.69495 0.21744 0.9385 0.0
C73 C 0.69848 0.19841 -0.01444 0.0
C74 C 0.72517 0.2003 -0.01055 0.0
Zn75 Zn 0.78715 0.22457 0.94285 0.0
C76 C 0.78661 0.1695 0.949 0.0
N77 N 0.87164 0.23787 0.92144 0.0
C78 C 0.88682 0.2571 0.86558 0.0
C79 C 0.88318 0.22482 0.96273 0.0
C80 C 0.91121 0.23131 0.94862 0.0
C81 C 0.92737 0.25152 0.89195 0.0
C82 C 0.91459 0.26416 0.84985 0.0
Zn83 Zn 0.83108 0.23096 0.93564 0.0
O84 O 0.78309 0.22124 0.82385 0.0
C85 C 0.8315 0.28617 0.93749 0.0
O86 O 0.82587 0.22716 0.81702 0.0
H87 H 0.87076 0.20953 0.00676 0.0
H88 H 0.76116 0.25336 0.86449 0.0
H89 H 0.87738 0.26714 0.83269 0.0
O90 O 0.80496 0.26918 0.93967 0.0
O91 O 0.848 0.27607 0.93258 0.0
H92 H 0.72816 0.18585 0.02583 0.0
O93 O 0.83499 0.23366 0.05399 0.0
O94 O 0.79172 0.22729 0.06188 0.0
O95 O 0.81335 0.18589 0.94262 0.0
O96 O 0.77041 0.18012 0.94934 0.0
C97 C 0.8144 0.23115 0.09425 0.0
H98 H 0.71588 0.25223 0.85784 0.0
H99 H 0.68099 0.18259 0.01933 0.0
H100 H 0.92028 0.22107 -0.01754 0.0
H101 H 0.92592 0.27934 0.80444 0.0
C102 C 0.61243 0.83902 0.16603 0.0
N103 N 0.56533 0.85772 0.01676 0.0
C104 C 0.54276 0.83513 0.05049 0.0
C105 C 0.51917 0.83674 0.07314 0.0
C106 C 0.51856 0.86189 0.06184 0.0
C107 C 0.54119 0.88441 0.02257 0.0
C108 C 0.56469 0.88191 0.00069 0.0
Zn109 Zn 0.60144 0.85446 0.01137 0.0
C110 C 0.65395 0.90944 0.04755 0.0
N111 N 0.67469 0.84415 0.0198 0.0
C112 C 0.66955 0.81986 0.05606 0.0
C113 C 0.70121 0.86319 -0.00548 0.0
C114 C 0.72379 0.85801 0.00594 0.0
C115 C 0.71881 0.83293 0.04309 0.0
C116 C 0.69122 0.81384 0.06815 0.0
Zn117 Zn 0.64013 0.84997 0.01406 0.0
O118 O 0.59525 0.8436 0.12814 0.0
C119 C 0.58728 0.79555 -0.02921 0.0
O120 O 0.63375 0.84058 0.13224 0.0
H121 H 0.70496 0.88251 0.96648 0.0
H122 H 0.54362 0.81627 0.06469 0.0
H123 H 0.6486 0.80521 0.07747 0.0
O124 O 0.57669 0.81149 -0.0213 0.0
O125 O 0.6136 0.80574 -0.01602 0.0
H126 H 0.58293 0.89979 -0.02521 0.0
O127 O 0.64589 0.85975 0.89684 0.0
O128 O 0.60839 0.86528 0.8944 0.0
O129 O 0.66574 0.89441 0.04019 0.0
O130 O 0.62712 0.89768 0.04133 0.0
C131 C 0.62921 0.8656 0.86 0.0
H132 H 0.50199 0.8188 0.10243 0.0
H133 H 0.54142 0.90417 0.01293 0.0
H134 H 0.74479 0.87332 -0.0142 0.0
H135 H 0.68644 0.79461 0.0988 0.0
C136 C 0.84773 0.60843 0.11995 0.0
N137 N 0.86822 0.55878 0.25487 0.0
C138 C 0.84524 0.53612 0.22221 0.0
C139 C 0.84561 0.51138 0.20475 0.0
C140 C 0.87008 0.50981 0.21904 0.0
C141 C 0.89382 0.53347 0.25171 0.0
C142 C 0.89234 0.55789 0.26997 0.0
Zn143 Zn 0.86417 0.59434 0.26912 0.0
C144 C 0.91786 0.64891 0.24268 0.0
N145 N 0.85053 0.66567 0.2816 0.0
C146 C 0.82541 0.66029 0.24985 0.0
C147 C 0.86952 0.6921 0.30849 0.0
C148 C 0.86335 0.71425 0.30374 0.0
C149 C 0.83725 0.70875 0.2724 0.0
C150 C 0.81824 0.68139 0.24553 0.0
Zn151 Zn 0.8576 0.63179 0.27757 0.0
O152 O 0.85317 0.59087 0.15251 0.0
C153 C 0.80448 0.57745 0.31287 0.0
O154 O 0.84842 0.62843 0.15919 0.0
H155 H 0.88955 0.69613 0.33256 0.0
H156 H 0.82659 0.53732 0.20749 0.0
H157 H 0.8109 0.63961 0.22611 0.0
O158 O 0.82096 0.56767 0.3011 0.0
O159 O 0.81398 0.60384 0.30444 0.0
H160 H 0.91058 0.57621 0.29478 0.0
O161 O 0.86709 0.63447 0.39489 0.0
O162 O 0.87509 0.59859 0.38624 0.0
O163 O 0.90153 0.65893 0.25514 0.0
O164 O 0.90762 0.62212 0.24091 0.0
C165 C 0.87412 0.61773 0.42632 0.0
H166 H 0.82707 0.49382 0.17814 0.0
H167 H 0.91314 0.53302 0.26315 0.0
H168 H 0.87858 0.73525 0.32461 0.0
H169 H 0.79814 0.6765 0.21966 0.0
C170 C 0.24451 0.81488 0.47573 0.0
N171 N 0.22626 0.74484 0.34316 0.0
C172 C 0.24829 0.74607 0.38382 0.0
C173 C 0.24758 0.72146 0.4085 0.0
C174 C 0.22393 0.69494 0.39195 0.0
C175 C 0.20187 0.69388 0.34693 0.0
C176 C 0.20339 0.71935 0.32334 0.0
Zn177 Zn 0.2295 0.784 0.32696 0.0
C178 C 0.17503 0.78344 0.34993 0.0
N179 N 0.24167 0.86855 0.3128 0.0
C180 C 0.26647 0.88837 0.34605 0.0
C181 C 0.22243 0.87573 0.2869 0.0
C182 C 0.22789 0.90377 0.29497 0.0
C183 C 0.25349 0.92447 0.32906 0.0
C184 C 0.27285 0.91634 0.35421 0.0
Zn185 Zn 0.23518 0.82771 0.317 0.0
O186 O 0.23921 0.7918 0.44391 0.0
C187 C 0.2891 0.82745 0.28611 0.0
O188 O 0.244 0.83405 0.43563 0.0
H189 H 0.20261 0.85965 0.26178 0.0
H190 H 0.26621 0.76629 0.40021 0.0
H191 H 0.28116 0.88239 0.36916 0.0
O192 O 0.27292 0.80123 0.29939 0.0
O193 O 0.2791 0.84402 0.29087 0.0
H194 H 0.18596 0.71874 0.29159 0.0
O195 O 0.22602 0.82043 0.19994 0.0
O196 O 0.21973 0.77713 0.20916 0.0
O197 O 0.19092 0.80998 0.33833 0.0
O198 O 0.18583 0.76742 0.35178 0.0
C199 C 0.21995 0.79682 0.16882 0.0
H200 H 0.26526 0.72323 0.44192 0.0
H201 H 0.18325 0.67375 0.33293 0.0
H202 H 0.21231 0.90916 0.27519 0.0
H203 H 0.29247 0.93131 0.38277 0.0
C204 C 0.47046 0.25626 0.3481 0.0
C205 C 0.4914 0.27863 0.3923 0.0
C206 C 0.47065 0.25823 0.26794 0.0
C207 C 0.49179 0.28263 0.23096 0.0
C208 C 0.51407 0.3038 0.2745 0.0
C209 C 0.51383 0.30193 0.35484 0.0
C210 C 0.49038 0.28705 0.14764 0.0
C211 C 0.46554 0.27825 0.11109 0.0
C212 C 0.46412 0.28242 0.02764 0.0
C213 C 0.44197 0.261 -0.01564 0.0
C214 C 0.44231 0.26255 0.90396 0.0
C215 C 0.46467 0.28579 0.86615 0.0
H216 H 0.50189 0.32415 0.02275 0.0
C217 C 0.48546 0.30841 0.91003 0.0
C218 C 0.48519 0.30675 -0.00973 0.0
H219 H 0.50269 0.32683 0.88248 0.0
H220 H 0.4532 0.23779 0.3754 0.0
H221 H 0.45387 0.24099 0.23525 0.0
H222 H 0.53084 0.32251 0.24668 0.0
H223 H 0.53047 0.31931 0.38755 0.0
H224 H 0.51028 0.2989 0.11673 0.0
H225 H 0.44563 0.26641 0.14199 0.0
H226 H 0.42526 0.24233 0.01246 0.0
H227 H 0.42577 0.24499 0.87153 0.0
C228 C 0.27613 0.44207 0.36265 0.0
C229 C 0.29946 0.4616 0.40688 0.0
C230 C 0.27701 0.44387 0.28248 0.0
C231 C 0.30123 0.46526 0.24558 0.0
C232 C 0.32541 0.48311 0.28921 0.0
C233 C 0.3245 0.48144 0.36956 0.0
C234 C 0.30128 0.4703 0.16226 0.0
C235 C 0.27814 0.46731 0.12576 0.0
C236 C 0.2782 0.47237 0.04244 0.0
C237 C 0.25401 0.45456 -0.0012 0.0
C238 C 0.25491 0.45624 0.91845 0.0
C239 C 0.27998 0.47605 0.88116 0.0
H240 H 0.32098 0.50856 0.03838 0.0
C241 C 0.30332 0.49555 0.92538 0.0
C242 C 0.30244 0.49374 0.00556 0.0
H243 H 0.32273 0.51141 0.89815 0.0
H244 H 0.25673 0.4262 0.38986 0.0
H245 H 0.25847 0.42904 0.24966 0.0
H246 H 0.34445 0.49938 0.2614 0.0
H247 H 0.34297 0.49647 0.40232 0.0
H248 H 0.32115 0.47796 0.1314 0.0
H249 H 0.25828 0.45965 0.15663 0.0
H250 H 0.23496 0.43831 0.0266 0.0
H251 H 0.23644 0.44123 0.88565 0.0
C252 C 0.79323 0.22783 0.22277 0.0
C253 C 0.81591 0.23053 0.17828 0.0
C254 C 0.79314 0.22411 0.302 0.0
C255 C 0.81565 0.2228 0.33756 0.0
C256 C 0.839 0.22701 0.29389 0.0
C257 C 0.83912 0.23073 0.21444 0.0
C258 C 0.8157 0.21814 0.42065 0.0
C259 C 0.79168 0.20258 0.46031 0.0
C260 C 0.79227 0.20308 0.54466 0.0
C261 C 0.77203 0.20691 0.58408 0.0
C262 C 0.7754 0.21312 0.66271 0.0
C263 C 0.799 0.21539 0.70217 0.0
H264 H 0.83009 0.19957 0.55596 0.0
C265 C 0.81821 0.20973 0.66337 0.0
C266 C 0.81472 0.20335 0.58519 0.0
H267 H 0.83609 0.21045 0.69313 0.0
H268 H 0.7753 0.22809 0.19637 0.0
H269 H 0.77549 0.22236 0.33504 0.0
H270 H 0.8568 0.22666 0.32096 0.0
H271 H 0.85698 0.23299 0.18132 0.0
H272 H 0.83613 0.22863 0.45003 0.0
H273 H 0.77117 0.19225 0.43146 0.0
H274 H 0.75452 0.2066 0.55332 0.0
H275 H 0.76001 0.21686 0.692 0.0
C276 C 0.63128 0.83596 0.29444 0.0
C277 C 0.60928 0.83511 0.24999 0.0
C278 C 0.63068 0.83751 0.37463 0.0
C279 C 0.60806 0.83821 0.41128 0.0
C280 C 0.58493 0.83481 0.36742 0.0
C281 C 0.58559 0.83346 0.28712 0.0
C282 C 0.60871 0.84381 0.49457 0.0
C283 C 0.63292 0.86187 0.53128 0.0
C284 C 0.6336 0.86729 0.61468 0.0
C285 C 0.65669 0.87045 0.65827 0.0
C286 C 0.65601 0.87148 0.73862 0.0
C287 C 0.63236 0.86978 0.77609 0.0
H288 H 0.59346 0.86669 0.61894 0.0
C289 C 0.61042 0.8692 0.73197 0.0
C290 C 0.61102 0.86794 0.65171 0.0
H291 H 0.59213 0.86832 0.75934 0.0
H292 H 0.64958 0.83678 0.26733 0.0
H293 H 0.64826 0.8389 0.40763 0.0
H294 H 0.56706 0.83477 0.39497 0.0
H295 H 0.56813 0.83237 0.25416 0.0
H296 H 0.58864 0.83387 0.52527 0.0
H297 H 0.65299 0.87182 0.50057 0.0
H298 H 0.67453 0.87051 0.63043 0.0
H299 H 0.67344 0.87239 0.77132 0.0
C300 C 0.87623 0.63937 0.55436 0.0
C301 C 0.87819 0.61874 0.51035 0.0
C302 C 0.87494 0.63748 0.6345 0.0
C303 C 0.87549 0.61486 0.6717 0.0
C304 C 0.88001 0.59574 0.6284 0.0
C305 C 0.88122 0.59755 0.54801 0.0
C306 C 0.87008 0.61002 0.75501 0.0
C307 C 0.85148 0.61544 0.79115 0.0
C308 C 0.84618 0.61079 0.87452 0.0
C309 C 0.84182 0.63008 0.91751 0.0
C310 C 0.84073 0.62846 -0.00208 0.0
C311 C 0.84368 0.60729 0.03592 0.0
H312 H 0.84883 0.57232 0.87984 0.0
C313 C 0.84551 0.58651 -0.00773 0.0
C314 C 0.84673 0.58822 0.91209 0.0
H315 H 0.84723 0.56959 0.02001 0.0
H316 H 0.87449 0.65632 0.52693 0.0
H317 H 0.87277 0.6533 0.66699 0.0
H318 H 0.88104 0.57848 0.65643 0.0
H319 H 0.88312 0.58158 0.51546 0.0
H320 H 0.88069 0.60065 0.78622 0.0
H321 H 0.84086 0.62481 0.75992 0.0
H322 H 0.84081 0.6473 0.8892 0.0
H323 H 0.8389 0.64453 0.03022 0.0
C324 C 0.21555 0.81507 0.04131 0.0
C325 C 0.21573 0.79344 0.08494 0.0
C326 C 0.21649 0.81446 0.96116 0.0
C327 C 0.21777 0.79227 0.92358 0.0
C328 C 0.21537 0.76939 0.96658 0.0
C329 C 0.21448 0.77 0.04703 0.0
C330 C 0.2231 0.79329 0.84021 0.0
C331 C 0.24047 0.81785 0.8043 0.0
C332 C 0.24589 0.81892 0.72096 0.0
C333 C 0.2485 0.84191 0.6781 0.0
C334 C 0.24963 0.84145 0.59768 0.0
C335 C 0.24843 0.81806 0.55968 0.0
H336 H 0.24646 0.77934 0.7155 0.0
C337 C 0.24836 0.79628 0.6032 0.0
C338 C 0.24716 0.79673 0.68333 0.0
H339 H 0.24808 0.77829 0.57539 0.0
H340 H 0.21583 0.83308 0.06902 0.0
H341 H 0.21701 0.83176 0.92889 0.0
H342 H 0.21578 0.75184 0.93823 0.0
H343 H 0.21424 0.75285 0.07935 0.0
H344 H 0.21361 0.77329 0.80881 0.0
H345 H 0.24996 0.83785 0.83573 0.0
H346 H 0.2481 0.85946 0.70651 0.0
H347 H 0.25007 0.85871 0.56541 0.0
C348 C 0.33643 0.1272 0.52314 0.0
C349 C 0.35989 0.13405 0.57108 0.0
C350 C 0.31957 0.09939 0.49478 0.0
C351 C 0.32594 0.07808 0.51454 0.0
C352 C 0.34827 0.08476 0.56656 0.0
C353 C 0.36499 0.11233 0.59451 0.0
C354 C 0.31245 0.0497 0.47645 0.0
C355 C 0.28757 0.03723 0.4377 0.0
C356 C 0.27736 1.00934 0.39875 0.0
C357 C 0.24898 0.98758 0.40556 0.0
C358 C 0.24045 0.96011 0.37827 0.0
C359 C 0.26018 0.95418 0.34302 0.0
H360 H 0.31817 0.02047 0.34928 0.0
C361 C 0.28789 0.97667 0.3303 0.0
C362 C 0.29639 1.00387 0.3579 0.0
H363 H 0.30341 0.97294 0.30173 0.0
H364 H 0.33225 0.14367 0.50364 0.0
H365 H 0.30275 0.09518 0.45419 0.0
H366 H 0.35364 0.06882 0.58316 0.0
H367 H 0.38287 0.11701 0.63169 0.0
H368 H 0.32397 0.0382 0.48087 0.0
H369 H 0.27403 0.04657 0.43775 0.0
H370 H 0.23383 0.99139 0.43589 0.0
H371 H 0.21896 0.94323 0.38891 0.0
C372 C 0.39918 0.30641 0.60752 0.0
C373 C 0.42826 0.32079 0.58964 0.0
C374 C 0.38433 0.32125 0.61333 0.0
C375 C 0.39831 0.35082 0.60104 0.0
C376 C 0.42699 0.36475 0.57935 0.0
C377 C 0.44181 0.35003 0.57417 0.0
C378 C 0.38438 0.36829 0.61064 0.0
C379 C 0.36005 0.36015 0.64972 0.0
C380 C 0.34804 0.37923 0.66122 0.0
C381 C 0.31856 0.36745 0.66806 0.0
C382 C 0.30664 0.38496 0.67535 0.0
C383 C 0.32403 0.41469 0.67719 0.0
H384 H 0.38835 0.4188 0.66482 0.0
C385 C 0.35362 0.42638 0.6744 0.0
C386 C 0.36549 0.40891 0.66661 0.0
H387 H 0.36771 0.44916 0.67622 0.0
H388 H 0.3881 0.28388 0.61978 0.0
H389 H 0.36208 0.30945 0.62798 0.0
H390 H 0.43831 0.3874 0.56859 0.0
H391 H 0.46416 0.36179 0.55994 0.0
H392 H 0.39542 0.38946 0.58596 0.0
H393 H 0.3482 0.33888 0.67325 0.0
H394 H 0.30463 0.34466 0.6654 0.0
H395 H 0.28377 0.3752 0.67753 0.0
C396 C 0.97729 0.28863 0.86148 0.0
C397 C 0.95741 0.25996 0.87562 0.0
C398 C 1.0046 0.29669 0.83654 0.0
C399 C 1.01288 0.2763 0.82507 0.0
C400 C 0.99374 0.24788 0.84401 0.0
C401 C 0.96614 0.23971 0.86868 0.0
C402 C 0.04145 0.28473 0.79363 0.0
C403 C 0.05337 0.3049 0.73865 0.0
C404 C 0.08303 0.31777 0.70966 0.0
C405 C 0.0911 0.33753 0.64916 0.0
C406 C 0.11947 0.35397 0.62776 0.0
C407 C 0.1405 0.35086 0.66573 0.0
H408 H 0.09885 0.29866 0.79187 0.0
C409 C 0.1325 0.32986 0.72265 0.0
C410 C 0.10397 0.31345 0.74477 0.0
H411 H 0.14849 0.32743 0.75347 0.0
H412 H 0.97157 0.30491 0.86858 0.0
H413 H 1.0192 0.31898 0.82582 0.0
H414 H 0.99978 0.23184 0.83698 0.0
H415 H 0.95135 0.21747 0.87934 0.0
H416 H 0.05221 0.27391 0.81515 0.0
H417 H 0.04069 0.31338 0.71443 0.0
H418 H 0.07556 0.34135 0.62078 0.0
H419 H 0.12521 0.3702 0.58409 0.0
C420 C 0.70019 0.95557 0.03777 0.0
C421 C 0.67107 0.94079 0.05519 0.0
C422 C 0.71522 0.98534 0.0344 0.0
C423 C 0.70139 1.00091 0.04873 0.0
C424 C 0.67269 0.98607 0.0701 0.0
C425 C 0.65768 0.95645 0.0728 0.0
C426 C 0.71552 0.03241 0.04105 0.0
C427 C 0.73915 0.04846 -0.00084 0.0
C428 C 0.75095 0.0795 -0.01353 0.0
C429 C 0.78001 0.09687 -0.02899 0.0
C430 C 0.79166 0.12604 0.95819 0.0
C431 C 0.77437 0.13844 0.95944 0.0
H432 H 0.71093 0.07912 -0.00518 0.0
C433 C 0.74517 0.12091 -0.02696 0.0
C434 C 0.73359 0.09184 -0.01379 0.0
H435 H 0.73115 0.12965 -0.02613 0.0
H436 H 0.71116 0.94414 0.02406 0.0
H437 H 0.73751 0.99589 0.02004 0.0
H438 H 0.6615 0.9974 0.08235 0.0
H439 H 0.63531 0.94579 0.08684 0.0
H440 H 0.70501 0.04256 0.06859 0.0
H441 H 0.75029 0.03883 -0.02753 0.0
H442 H 0.79383 0.08791 -0.03026 0.0
H443 H 0.81422 0.13888 0.94763 0.0
C444 C 0.84427 0.75435 0.21642 0.0
C445 C 0.82917 0.73087 0.26517 0.0
C446 C 0.83257 0.77119 0.19468 0.0
C447 C 0.80564 0.76478 0.222 0.0
C448 C 0.79173 0.74255 0.27517 0.0
C449 C 0.8033 0.72576 0.29638 0.0
C450 C 0.78947 0.77787 0.19 0.0
C451 C 0.80034 0.80186 0.1478 0.0
C452 C 0.78123 0.81085 0.11205 0.0
C453 C 0.78792 0.83933 0.1148 0.0
C454 C 0.76828 0.84705 0.08873 0.0
C455 C 0.74183 0.8264 0.05863 0.0
H456 H 0.75039 0.76874 0.07141 0.0
C457 C 0.73629 0.79837 0.05045 0.0
C458 C 0.75568 0.79068 0.07698 0.0
H459 H 0.71649 0.7821 0.02548 0.0
H460 H 0.8641 0.75843 0.19087 0.0
H461 H 0.84384 0.78792 0.153 0.0
H462 H 0.77105 0.73713 0.29742 0.0
H463 H 0.79125 0.70774 0.33396 0.0
H464 H 0.76674 0.76649 0.20074 0.0
H465 H 0.82309 0.81536 0.1412 0.0
H466 H 0.80769 0.85533 0.14055 0.0
H467 H 0.77319 0.86883 0.09573 0.0
C468 C 0.96147 0.69296 0.28616 0.0
C469 C 0.94896 0.66813 0.24077 0.0
C470 C 0.99099 0.70944 0.29294 0.0
C471 C 1.00857 0.70184 0.25278 0.0
C472 C 0.99615 0.67778 0.20463 0.0
C473 C 0.96658 0.66073 0.19985 0.0
C474 C 0.03989 0.71886 0.26035 0.0
C475 C 0.05284 0.72666 0.32978 0.0
C476 C 0.08417 0.74225 0.33766 0.0
C477 C 0.09725 0.7325 0.38952 0.0
C478 C 0.12688 0.74623 0.395 0.0
C479 C 0.14385 0.77064 0.35104 0.0
H480 H 0.09144 0.77496 0.25471 0.0
C481 C 0.13066 0.78113 0.30179 0.0
C482 C 0.10109 0.76683 0.29432 0.0
H483 H 0.14326 0.79973 0.26659 0.0
H484 H 0.94842 0.69904 0.31894 0.0
H485 H 1.00008 0.72813 0.32957 0.0
H486 H 1.00934 0.67165 0.17274 0.0
H487 H 0.95748 0.64167 0.16468 0.0
H488 H 0.05257 0.72323 0.20834 0.0
H489 H 0.04023 0.71957 0.38223 0.0
H490 H 0.08457 0.71369 0.42387 0.0
H491 H 0.13653 0.73765 0.4331 0.0
C492 C 0.61011 0.44153 0.54423 0.0
C493 C 0.61016 0.42167 0.59589 0.0
C494 C 0.63572 0.46378 0.51572 0.0
C495 C 0.66188 0.46665 0.53912 0.0
C496 C 0.66169 0.44777 0.59479 0.0
C497 C 0.6362 0.42552 0.62257 0.0
C498 C 0.68968 0.48715 0.50361 0.0
C499 C 0.69372 0.50646 0.44888 0.0
C500 C 0.72174 0.52413 0.41112 0.0
C501 C 0.72994 0.55182 0.38712 0.0
C502 C 0.75658 0.56903 0.35356 0.0
C503 C 0.77534 0.55867 0.34208 0.0
H504 H 0.7341 0.49188 0.41219 0.0
C505 C 0.76658 0.53054 0.36309 0.0
C506 C 0.74013 0.51347 0.39718 0.0
H507 H 0.78038 0.52178 0.35456 0.0
H508 H 0.59027 0.43885 0.52227 0.0
H509 H 0.63463 0.47774 0.47325 0.0
H510 H 0.68137 0.44945 0.61456 0.0
H511 H 0.63681 0.41054 0.66263 0.0
H512 H 0.70793 0.4857 0.52271 0.0
H513 H 0.67663 0.51009 0.43198 0.0
H514 H 0.71601 0.56039 0.39605 0.0
H515 H 0.76261 0.59057 0.33765 0.0
C516 C 0.27516 0.55262 0.58237 0.0
C517 C 0.25753 0.52298 0.57971 0.0
C518 C 0.26558 0.57047 0.55468 0.0
C519 C 0.23808 0.55911 0.52353 0.0
C520 C 0.22051 0.52949 0.52047 0.0
C521 C 0.23 0.5116 0.54893 0.0
C522 C 0.22787 0.57774 0.49098 0.0
C523 C 0.23637 0.60381 0.51979 0.0
C524 C 0.22872 0.62439 0.48697 0.0
C525 C 0.23298 0.6473 0.53363 0.0
C526 C 0.22984 0.6693 0.5034 0.0
C527 C 0.22255 0.66913 0.42533 0.0
H528 H 0.21685 0.60631 0.37133 0.0
C529 C 0.21677 0.64555 0.37918 0.0
C530 C 0.21994 0.62337 0.4096 0.0
H531 H 0.21128 0.64499 0.31871 0.0
H532 H 0.29655 0.56211 0.60511 0.0
H533 H 0.28008 0.59315 0.55593 0.0
H534 H 0.19935 0.52017 0.49614 0.0
H535 H 0.21596 0.48884 0.54542 0.0
H536 H 0.21252 0.5694 0.4441 0.0
H537 H 0.24965 0.61059 0.5713 0.0
H538 H 0.23962 0.64867 0.59337 0.0
H539 H 0.23403 0.687 0.54071 0.0
C540 C 0.64436 0.19502 0.89446 0.0
C541 C 0.66777 0.21721 0.93259 0.0
C542 C 0.621 0.19793 0.8738 0.0
C543 C 0.62078 0.22314 0.89138 0.0
C544 C 0.64348 0.24434 0.93429 0.0
C545 C 0.6668 0.24154 0.95403 0.0
C546 C 0.59871 0.22949 0.86265 0.0
C547 C 0.58003 0.21542 0.80514 0.0
C548 C 0.56241 0.22639 0.77008 0.0
C549 C 0.53505 0.20747 0.74198 0.0
C550 C 0.51833 0.2177 0.70907 0.0
C551 C 0.52894 0.24709 0.70228 0.0
H552 H 0.59458 0.27094 0.77951 0.0
C553 C 0.5567 0.2659 0.72797 0.0
C554 C 0.5732 0.25572 0.76139 0.0
H555 H 0.56571 0.28866 0.72318 0.0
H556 H 0.64481 0.17614 0.87691 0.0
H557 H 0.60373 0.18075 0.84246 0.0
H558 H 0.6439 0.26388 0.94932 0.0
H559 H 0.68471 0.25897 -0.01686 0.0
H560 H 0.59931 0.24824 0.88671 0.0
H561 H 0.5779 0.196 0.78139 0.0
H562 H 0.52642 0.18477 0.74677 0.0
H563 H 0.49707 0.20264 0.68953 0.0
C564 C 0.5408 0.75646 0.92182 0.0
C565 C 0.56928 0.76616 0.94143 0.0
C566 C 0.52405 0.72975 0.88843 0.0
C567 C 0.53532 0.71195 0.87346 0.0
C568 C 0.5634 0.72105 0.89594 0.0
C569 C 0.58034 0.74801 0.92904 0.0
C570 C 0.51768 0.68364 0.83637 0.0
C571 C 0.49795 0.67925 0.78234 0.0
C572 C 0.47657 0.6512 0.7492 0.0
C573 C 0.45635 0.65074 0.69768 0.0
C574 C 0.43344 0.62512 0.67248 0.0
C575 C 0.43027 0.59918 0.69744 0.0
H576 H 0.48931 0.62431 0.81007 0.0
C577 C 0.45131 0.59935 0.74492 0.0
C578 C 0.47425 0.62514 0.77098 0.0
H579 H 0.4492 0.57957 0.76528 0.0
H580 H 0.53142 0.76968 0.93124 0.0
H581 H 0.50217 0.72304 0.8748 0.0
H582 H 0.57245 0.70756 0.88625 0.0
H583 H 0.60215 0.75477 0.94387 0.0
H584 H 0.52127 0.6666 0.85406 0.0
H585 H 0.49653 0.69749 0.76283 0.0
H586 H 0.45755 0.67034 0.67925 0.0
H587 H 0.41756 0.62555 0.63557 0.0
C588 C 0.89007 0.4841 0.14467 0.0
C589 C 0.87018 0.48349 0.19734 0.0
C590 C 0.88663 0.45876 0.11314 0.0
C591 C 0.8633 0.43235 0.13456 0.0
C592 C 0.8445 0.43197 0.19067 0.0
C593 C 0.84782 0.45715 0.22144 0.0
C594 C 0.85613 0.40484 0.09698 0.0
C595 C 0.87229 0.40076 0.04531 0.0
C596 C 0.86226 0.3725 0.00855 0.0
C597 C 0.88151 0.36309 -0.00679 0.0
C598 C 0.87185 0.33545 0.96578 0.0
C599 C 0.84275 0.31686 0.95223 0.0
H600 H 0.81818 0.36152 -0.00202 0.0
C601 C 0.82385 0.32711 0.96224 0.0
C602 C 0.83347 0.35456 -0.01007 0.0
H603 H 0.80135 0.31355 0.95148 0.0
H604 H 0.90734 0.5042 0.12462 0.0
H605 H 0.90161 0.4602 0.07003 0.0
H606 H 0.82644 0.41207 0.20887 0.0
H607 H 0.83223 0.45609 0.26216 0.0
H608 H 0.8359 0.38662 0.11302 0.0
H609 H 0.89355 0.41768 0.03208 0.0
H610 H 0.90387 0.37667 0.00577 0.0
H611 H 0.887 0.32828 0.95841 0.0
C612 C 0.4787 0.87273 0.05378 0.0
C613 C 0.49532 0.86468 0.0973 0.0
C614 C 0.45444 0.87135 0.08634 0.0
C615 C 0.4467 0.86217 0.16332 0.0
C616 C 0.4643 0.85562 0.20739 0.0
C617 C 0.48828 0.85689 0.17495 0.0
C618 C 0.41933 0.85632 0.19821 0.0
C619 C 0.40233 0.86563 0.17043 0.0
C620 C 0.37384 0.85625 0.20402 0.0
C621 C 0.36243 0.87434 0.20144 0.0
C622 C 0.33522 0.86542 0.23032 0.0
C623 C 0.31871 0.838 0.26108 0.0
H624 H 0.36498 0.81398 0.23611 0.0
C625 C 0.33017 0.81993 0.26356 0.0
C626 C 0.35734 0.8289 0.23533 0.0
H627 H 0.31796 0.79859 0.28624 0.0
H628 H 0.48367 0.87872 -0.00632 0.0
H629 H 0.44128 0.87621 0.04994 0.0
H630 H 0.45902 0.8486 0.26674 0.0
H631 H 0.50096 0.85096 0.21019 0.0
H632 H 0.4128 0.84334 0.25007 0.0
H633 H 0.40937 0.88069 0.12311 0.0
H634 H 0.37456 0.8954 0.17693 0.0
H635 H 0.32691 0.87977 0.22694 0.0
loop_
_geom_bond_atom_site_label_1
_geom_bond_atom_site_label_2
_geom_bond_distance
_geom_bond_site_symmetry_2
_ccdc_geom_bond_type
C0 O16 1.251 . S
C0 O18 1.254 . S
N1 C2 1.333 . S
N1 C6 1.307 . S
N1 Zn7 2.020 . S
C2 N1 1.333 . S
C2 C3 1.379 . S
C2 H20 0.952 . S
C3 C2 1.379 . S
C3 C4 1.390 . S
C3 H30 0.949 . S
C4 C3 1.390 . S
C4 C5 1.357 . S
C5 C4 1.357 . S
C5 C6 1.370 . S
C5 H31 0.950 . S
C6 N1 1.307 . S
C6 C5 1.370 . S
C6 H24 0.948 . S
Zn7 N1 2.020 . S
Zn7 O16 2.039 . S
Zn7 O22 2.034 . S
Zn7 O26 2.025 . S
Zn7 O28 2.024 . S
C8 O27 1.246 . S
C8 O28 1.249 . S
N9 C10 1.307 . S
N9 C11 1.333 . S
N9 Zn15 2.020 . S
C10 N9 1.307 . S
C10 C14 1.370 . S
C10 H21 0.948 . S
C11 N9 1.333 . S
C11 C12 1.379 . S
C11 H19 0.952 . S
C12 C11 1.379 . S
C12 C13 1.390 . S
C12 H32 0.949 . S
C13 C12 1.390 . S
C13 C14 1.357 . S
C14 C10 1.370 . S
C14 C13 1.357 . S
C14 H33 0.950 . S
Zn15 N9 2.020 . S
Zn15 O18 2.025 . S
Zn15 O23 2.024 . S
Zn15 O25 2.039 . S
Zn15 O27 2.034 . S
O16 C0 1.251 . S
O16 Zn7 2.039 . S
C17 O22 1.246 . S
C17 O23 1.249 . S
O18 C0 1.254 . S
O18 Zn15 2.025 . S
H19 C11 0.952 . S
H20 C2 0.952 . S
H21 C10 0.948 . S
O22 Zn7 2.034 . S
O22 C17 1.246 . S
O23 Zn15 2.024 . S
O23 C17 1.249 . S
H24 C6 0.948 . S
O25 Zn15 2.039 . S
O25 C29 1.251 . S
O26 Zn7 2.025 . S
O26 C29 1.254 . S
O27 C8 1.246 . S
O27 Zn15 2.034 . S
O28 Zn7 2.024 . S
O28 C8 1.249 . S
C29 O25 1.251 . S
C29 O26 1.254 . S
H30 C3 0.949 . S
H31 C5 0.950 . S
H32 C12 0.949 . S
H33 C14 0.950 . S
C34 O50 1.251 . S
C34 O52 1.254 . S
N35 C36 1.333 . S
N35 C40 1.307 . S
N35 Zn41 2.020 . S
C36 N35 1.333 . S
C36 C37 1.379 . S
C36 H54 0.952 . S
C37 C36 1.379 . S
C37 C38 1.390 . S
C37 H64 0.949 . S
C38 C37 1.390 . S
C38 C39 1.357 . S
C39 C38 1.357 . S
C39 C40 1.370 . S
C39 H65 0.950 . S
C40 N35 1.307 . S
C40 C39 1.370 . S
C40 H58 0.948 . S
Zn41 N35 2.020 . S
Zn41 O50 2.039 . S
Zn41 O56 2.034 . S
Zn41 O60 2.025 . S
Zn41 O62 2.024 . S
C42 O61 1.246 . S
C42 O62 1.249 . S
N43 C44 1.307 . S
N43 C45 1.333 . S
N43 Zn49 2.020 . S
C44 N43 1.307 . S
C44 C48 1.370 . S
C44 H55 0.948 . S
C45 N43 1.333 . S
C45 C46 1.379 . S
C45 H53 0.952 . S
C46 C45 1.379 . S
C46 C47 1.390 . S
C46 H66 0.949 . S
C47 C46 1.390 . S
C47 C48 1.357 . S
C48 C44 1.370 . S
C48 C47 1.357 . S
C48 H67 0.950 . S
Zn49 N43 2.020 . S
Zn49 O52 2.025 . S
Zn49 O57 2.024 . S
Zn49 O59 2.039 . S
Zn49 O61 2.034 . S
O50 C34 1.251 . S
O50 Zn41 2.039 . S
C51 O56 1.246 . S
C51 O57 1.249 . S
O52 C34 1.254 . S
O52 Zn49 2.025 . S
H53 C45 0.952 . S
H54 C36 0.952 . S
H55 C44 0.948 . S
O56 Zn41 2.034 . S
O56 C51 1.246 . S
O57 Zn49 2.024 . S
O57 C51 1.249 . S
H58 C40 0.948 . S
O59 Zn49 2.039 . S
O59 C63 1.251 . S
O60 Zn41 2.025 . S
O60 C63 1.254 . S
O61 C42 1.246 . S
O61 Zn49 2.034 . S
O62 Zn41 2.024 . S
O62 C42 1.249 . S
C63 O59 1.251 . S
C63 O60 1.254 . S
H64 C37 0.949 . S
H65 C39 0.950 . S
H66 C46 0.949 . S
H67 C48 0.950 . S
C68 O84 1.251 . S
C68 O86 1.254 . S
N69 C70 1.333 . S
N69 C74 1.307 . S
N69 Zn75 2.020 . S
C70 N69 1.333 . S
C70 C71 1.379 . S
C70 H88 0.952 . S
C71 C70 1.379 . S
C71 C72 1.390 . S
C71 H98 0.949 . S
C72 C71 1.390 . S
C72 C73 1.357 . S
C73 C72 1.357 . S
C73 C74 1.370 . S
C73 H99 0.950 1_556 S
C74 N69 1.307 . S
C74 C73 1.370 . S
C74 H92 0.948 1_556 S
Zn75 N69 2.020 . S
Zn75 O84 2.039 . S
Zn75 O90 2.034 . S
Zn75 O94 2.025 1_556 S
Zn75 O96 2.024 . S
C76 O95 1.246 . S
C76 O96 1.249 . S
N77 C78 1.307 . S
N77 C79 1.333 1_556 S
N77 Zn83 2.020 . S
C78 N77 1.307 . S
C78 C82 1.370 . S
C78 H89 0.948 . S
C79 N77 1.333 1_554 S
C79 C80 1.379 . S
C79 H87 0.952 . S
C80 C79 1.379 . S
C80 C81 1.390 1_554 S
C80 H100 0.949 . S
C81 C80 1.390 1_556 S
C81 C82 1.357 . S
C82 C78 1.370 . S
C82 C81 1.357 . S
C82 H101 0.950 . S
Zn83 N77 2.020 . S
Zn83 O86 2.025 . S
Zn83 O91 2.024 . S
Zn83 O93 2.039 1_556 S
Zn83 O95 2.034 . S
O84 C68 1.251 . S
O84 Zn75 2.039 . S
C85 O90 1.246 . S
C85 O91 1.249 . S
O86 C68 1.254 . S
O86 Zn83 2.025 . S
H87 C79 0.952 . S
H88 C70 0.952 . S
H89 C78 0.948 . S
O90 Zn75 2.034 . S
O90 C85 1.246 . S
O91 Zn83 2.024 . S
O91 C85 1.249 . S
H92 C74 0.948 1_554 S
O93 Zn83 2.039 1_554 S
O93 C97 1.251 . S
O94 Zn75 2.025 1_554 S
O94 C97 1.254 . S
O95 C76 1.246 . S
O95 Zn83 2.034 . S
O96 Zn75 2.024 . S
O96 C76 1.249 . S
C97 O93 1.251 . S
C97 O94 1.254 . S
H98 C71 0.949 . S
H99 C73 0.950 1_554 S
H100 C80 0.949 . S
H101 C82 0.950 . S
C102 O118 1.251 . S
C102 O120 1.254 . S
N103 C104 1.333 . S
N103 C108 1.307 . S
N103 Zn109 2.020 . S
C104 N103 1.333 . S
C104 C105 1.379 . S
C104 H122 0.952 . S
C105 C104 1.379 . S
C105 C106 1.390 . S
C105 H132 0.949 . S
C106 C105 1.390 . S
C106 C107 1.357 . S
C107 C106 1.357 . S
C107 C108 1.370 . S
C107 H133 0.950 1_554 S
C108 N103 1.307 . S
C108 C107 1.370 . S
C108 H126 0.948 1_554 S
Zn109 N103 2.020 . S
Zn109 O118 2.039 . S
Zn109 O124 2.034 . S
Zn109 O128 2.025 1_554 S
Zn109 O130 2.024 . S
C110 O129 1.246 . S
C110 O130 1.249 . S
N111 C112 1.307 . S
N111 C113 1.333 1_554 S
N111 Zn117 2.020 . S
C112 N111 1.307 . S
C112 C116 1.370 . S
C112 H123 0.948 . S
C113 N111 1.333 1_556 S
C113 C114 1.379 . S
C113 H121 0.952 . S
C114 C113 1.379 . S
C114 C115 1.390 1_556 S
C114 H134 0.949 . S
C115 C114 1.390 1_554 S
C115 C116 1.357 . S
C116 C112 1.370 . S
C116 C115 1.357 . S
C116 H135 0.950 . S
Zn117 N111 2.020 . S
Zn117 O120 2.025 . S
Zn117 O125 2.024 . S
Zn117 O127 2.039 1_554 S
Zn117 O129 2.034 . S
O118 C102 1.251 . S
O118 Zn109 2.039 . S
C119 O124 1.246 . S
C119 O125 1.249 . S
O120 C102 1.254 . S
O120 Zn117 2.025 . S
H121 C113 0.952 . S
H122 C104 0.952 . S
H123 C112 0.948 . S
O124 Zn109 2.034 . S
O124 C119 1.246 . S
O125 Zn117 2.024 . S
O125 C119 1.249 . S
H126 C108 0.948 1_556 S
O127 Zn117 2.039 1_556 S
O127 C131 1.251 . S
O128 Zn109 2.025 1_556 S
O128 C131 1.254 . S
O129 C110 1.246 . S
O129 Zn117 2.034 . S
O130 Zn109 2.024 . S
O130 C110 1.249 . S
C131 O127 1.251 . S
C131 O128 1.254 . S
H132 C105 0.949 . S
H133 C107 0.950 1_556 S
H134 C114 0.949 . S
H135 C116 0.950 . S
C136 O152 1.251 . S
C136 O154 1.254 . S
N137 C138 1.333 . S
N137 C142 1.307 . S
N137 Zn143 2.020 . S
C138 N137 1.333 . S
C138 C139 1.379 . S
C138 H156 0.952 . S
C139 C138 1.379 . S
C139 C140 1.390 . S
C139 H166 0.949 . S
C140 C139 1.390 . S
C140 C141 1.357 . S
C141 C140 1.357 . S
C141 C142 1.370 . S
C141 H167 0.950 . S
C142 N137 1.307 . S
C142 C141 1.370 . S
C142 H160 0.948 . S
Zn143 N137 2.020 . S
Zn143 O152 2.039 . S
Zn143 O158 2.034 . S
Zn143 O162 2.025 . S
Zn143 O164 2.024 . S
C144 O163 1.246 . S
C144 O164 1.249 . S
N145 C146 1.307 . S
N145 C147 1.333 . S
N145 Zn151 2.020 . S
C146 N145 1.307 . S
C146 C150 1.370 . S
C146 H157 0.948 . S
C147 N145 1.333 . S
C147 C148 1.379 . S
C147 H155 0.952 . S
C148 C147 1.379 . S
C148 C149 1.390 . S
C148 H168 0.949 . S
C149 C148 1.390 . S
C149 C150 1.357 . S
C150 C146 1.370 . S
C150 C149 1.357 . S
C150 H169 0.950 . S
Zn151 N145 2.020 . S
Zn151 O154 2.025 . S
Zn151 O159 2.024 . S
Zn151 O161 2.039 . S
Zn151 O163 2.034 . S
O152 C136 1.251 . S
O152 Zn143 2.039 . S
C153 O158 1.246 . S
C153 O159 1.249 . S
O154 C136 1.254 . S
O154 Zn151 2.025 . S
H155 C147 0.952 . S
H156 C138 0.952 . S
H157 C146 0.948 . S
O158 Zn143 2.034 . S
O158 C153 1.246 . S
O159 Zn151 2.024 . S
O159 C153 1.249 . S
H160 C142 0.948 . S
O161 Zn151 2.039 . S
O161 C165 1.251 . S
O162 Zn143 2.025 . S
O162 C165 1.254 . S
O163 C144 1.246 . S
O163 Zn151 2.034 . S
O164 Zn143 2.024 . S
O164 C144 1.249 . S
C165 O161 1.251 . S
C165 O162 1.254 . S
H166 C139 0.949 . S
H167 C141 0.950 . S
H168 C148 0.949 . S
H169 C150 0.950 . S
C170 O186 1.251 . S
C170 O188 1.254 . S
N171 C172 1.333 . S
N171 C176 1.307 . S
N171 Zn177 2.020 . S
C172 N171 1.333 . S
C172 C173 1.379 . S
C172 H190 0.952 . S
C173 C172 1.379 . S
C173 C174 1.390 . S
C173 H200 0.949 . S
C174 C173 1.390 . S
C174 C175 1.357 . S
C175 C174 1.357 . S
C175 C176 1.370 . S
C175 H201 0.950 . S
C176 N171 1.307 . S
C176 C175 1.370 . S
C176 H194 0.948 . S
Zn177 N171 2.020 . S
Zn177 O186 2.039 . S
Zn177 O192 2.034 . S
Zn177 O196 2.025 . S
Zn177 O198 2.024 . S
C178 O197 1.246 . S
C178 O198 1.249 . S
N179 C180 1.307 . S
N179 C181 1.333 . S
N179 Zn185 2.020 . S
C180 N179 1.307 . S
C180 C184 1.370 . S
C180 H191 0.948 . S
C181 N179 1.333 . S
C181 C182 1.379 . S
C181 H189 0.952 . S
C182 C181 1.379 . S
C182 C183 1.390 . S
C182 H202 0.949 . S
C183 C182 1.390 . S
C183 C184 1.357 . S
C184 C180 1.370 . S
C184 C183 1.357 . S
C184 H203 0.950 . S
Zn185 N179 2.020 . S
Zn185 O188 2.025 . S
Zn185 O193 2.024 . S
Zn185 O195 2.039 . S
Zn185 O197 2.034 . S
O186 C170 1.251 . S
O186 Zn177 2.039 . S
C187 O192 1.246 . S
C187 O193 1.249 . S
O188 C170 1.254 . S
O188 Zn185 2.025 . S
H189 C181 0.952 . S
H190 C172 0.952 . S
H191 C180 0.948 . S
O192 Zn177 2.034 . S
O192 C187 1.246 . S
O193 Zn185 2.024 . S
O193 C187 1.249 . S
H194 C176 0.948 . S
O195 Zn185 2.039 . S
O195 C199 1.251 . S
O196 Zn177 2.025 . S
O196 C199 1.254 . S
O197 C178 1.246 . S
O197 Zn185 2.034 . S
O198 Zn177 2.024 . S
O198 C178 1.249 . S
C199 O195 1.251 . S
C199 O196 1.254 . S
H200 C173 0.949 . S
H201 C175 0.950 . S
H202 C182 0.949 . S
H203 C184 0.950 . S
C204 C205 1.386 . S
C204 C206 1.383 . S
C204 H220 0.951 . S
C205 C204 1.386 . S
C205 C209 1.383 . S
C206 C204 1.383 . S
C206 C207 1.402 . S
C206 H221 0.951 . S
C207 C206 1.402 . S
C207 C208 1.375 . S
C207 C210 1.481 . S
C208 C207 1.375 . S
C208 C209 1.367 . S
C208 H222 0.951 . S
C209 C205 1.383 . S
C209 C208 1.367 . S
C209 H223 0.950 . S
C210 C207 1.481 . S
C210 C211 1.297 . S
C210 H224 0.950 . S
C211 C210 1.297 . S
C211 C212 1.479 1_554 S
C211 H225 0.950 . S
C212 C211 1.479 1_556 S
C212 C213 1.375 . S
C212 C218 1.404 . S
C213 C212 1.375 . S
C213 C214 1.369 . S
C213 H226 0.950 . S
C214 C213 1.369 . S
C214 C215 1.392 . S
C214 H227 0.951 . S
C215 C214 1.392 . S
C215 C217 1.384 . S
H216 C218 0.949 . S
C217 C215 1.384 . S
C217 C218 1.385 . S
C217 H219 0.950 . S
C218 C212 1.404 . S
C218 H216 0.949 . S
C218 C217 1.385 . S
H219 C217 0.950 . S
H220 C204 0.951 . S
H221 C206 0.951 . S
H222 C208 0.951 . S
H223 C209 0.950 . S
H224 C210 0.950 . S
H225 C211 0.950 . S
H226 C213 0.950 . S
H227 C214 0.951 . S
C228 C229 1.386 . S
C228 C230 1.383 . S
C228 H244 0.951 . S
C229 C228 1.386 . S
C229 C233 1.383 . S
C230 C228 1.383 . S
C230 C231 1.402 . S
C230 H245 0.951 . S
C231 C230 1.402 . S
C231 C232 1.375 . S
C231 C234 1.481 . S
C232 C231 1.375 . S
C232 C233 1.367 . S
C232 H246 0.951 . S
C233 C229 1.383 . S
C233 C232 1.367 . S
C233 H247 0.950 . S
C234 C231 1.481 . S
C234 C235 1.297 . S
C234 H248 0.950 . S
C235 C234 1.297 . S
C235 C236 1.479 . S
C235 H249 0.950 . S
C236 C235 1.479 . S
C236 C237 1.375 . S
C236 C242 1.404 . S
C237 C236 1.375 . S
C237 C238 1.369 1_554 S
C237 H250 0.950 . S
C238 C237 1.369 1_556 S
C238 C239 1.392 . S
C238 H251 0.951 . S
C239 C238 1.392 . S
C239 C241 1.384 . S
H240 C242 0.949 . S
C241 C239 1.384 . S
C241 C242 1.385 1_556 S
C241 H243 0.950 . S
C242 C236 1.404 . S
C242 H240 0.949 . S
C242 C241 1.385 1_554 S
H243 C241 0.950 . S
H244 C228 0.951 . S
H245 C230 0.951 . S
H246 C232 0.951 . S
H247 C233 0.950 . S
H248 C234 0.950 . S
H249 C235 0.950 . S
H250 C237 0.950 . S
H251 C238 0.951 . S
C252 C253 1.386 . S
C252 C254 1.383 . S
C252 H268 0.951 . S
C253 C252 1.386 . S
C253 C257 1.383 . S
C254 C252 1.383 . S
C254 C255 1.402 . S
C254 H269 0.951 . S
C255 C254 1.402 . S
C255 C256 1.375 . S
C255 C258 1.481 . S
C256 C255 1.375 . S
C256 C257 1.367 . S
C256 H270 0.951 . S
C257 C253 1.383 . S
C257 C256 1.367 . S
C257 H271 0.950 . S
C258 C255 1.481 . S
C258 C259 1.297 . S
C258 H272 0.950 . S
C259 C258 1.297 . S
C259 C260 1.479 . S
C259 H273 0.950 . S
C260 C259 1.479 . S
C260 C261 1.375 . S
C260 C266 1.404 . S
C261 C260 1.375 . S
C261 C262 1.369 . S
C261 H274 0.950 . S
C262 C261 1.369 . S
C262 C263 1.392 . S
C262 H275 0.951 . S
C263 C262 1.392 . S
C263 C265 1.384 . S
H264 C266 0.949 . S
C265 C263 1.384 . S
C265 C266 1.385 . S
C265 H267 0.950 . S
C266 C260 1.404 . S
C266 H264 0.949 . S
C266 C265 1.385 . S
H267 C265 0.950 . S
H268 C252 0.951 . S
H269 C254 0.951 . S
H270 C256 0.951 . S
H271 C257 0.950 . S
H272 C258 0.950 . S
H273 C259 0.950 . S
H274 C261 0.950 . S
H275 C262 0.951 . S
C276 C277 1.386 . S
C276 C278 1.383 . S
C276 H292 0.951 . S
C277 C276 1.386 . S
C277 C281 1.383 . S
C278 C276 1.383 . S
C278 C279 1.402 . S
C278 H293 0.951 . S
C279 C278 1.402 . S
C279 C280 1.375 . S
C279 C282 1.481 . S
C280 C279 1.375 . S
C280 C281 1.367 . S
C280 H294 0.951 . S
C281 C277 1.383 . S
C281 C280 1.367 . S
C281 H295 0.950 . S
C282 C279 1.481 . S
C282 C283 1.297 . S
C282 H296 0.950 . S
C283 C282 1.297 . S
C283 C284 1.479 . S
C283 H297 0.950 . S
C284 C283 1.479 . S
C284 C285 1.375 . S
C284 C290 1.404 . S
C285 C284 1.375 . S
C285 C286 1.369 . S
C285 H298 0.950 . S
C286 C285 1.369 . S
C286 C287 1.392 . S
C286 H299 0.951 . S
C287 C286 1.392 . S
C287 C289 1.384 . S
H288 C290 0.949 . S
C289 C287 1.384 . S
C289 C290 1.385 . S
C289 H291 0.950 . S
C290 C284 1.404 . S
C290 H288 0.949 . S
C290 C289 1.385 . S
H291 C289 0.950 . S
H292 C276 0.951 . S
H293 C278 0.951 . S
H294 C280 0.951 . S
H295 C281 0.950 . S
H296 C282 0.950 . S
H297 C283 0.950 . S
H298 C285 0.950 . S
H299 C286 0.951 . S
C300 C301 1.386 . S
C300 C302 1.383 . S
C300 H316 0.951 . S
C301 C300 1.386 . S
C301 C305 1.383 . S
C302 C300 1.383 . S
C302 C303 1.402 . S
C302 H317 0.951 . S
C303 C302 1.402 . S
C303 C304 1.375 . S
C303 C306 1.481 . S
C304 C303 1.375 . S
C304 C305 1.367 . S
C304 H318 0.951 . S
C305 C301 1.383 . S
C305 C304 1.367 . S
C305 H319 0.950 . S
C306 C303 1.481 . S
C306 C307 1.297 . S
C306 H320 0.950 . S
C307 C306 1.297 . S
C307 C308 1.479 . S
C307 H321 0.950 . S
C308 C307 1.479 . S
C308 C309 1.375 . S
C308 C314 1.404 . S
C309 C308 1.375 . S
C309 C310 1.369 1_556 S
C309 H322 0.950 . S
C310 C309 1.369 1_554 S
C310 C311 1.392 . S
C310 H323 0.951 . S
C311 C310 1.392 . S
C311 C313 1.384 . S
H312 C314 0.949 . S
C313 C311 1.384 . S
C313 C314 1.385 1_554 S
C313 H315 0.950 . S
C314 C308 1.404 . S
C314 H312 0.949 . S
C314 C313 1.385 1_556 S
H315 C313 0.950 . S
H316 C300 0.951 . S
H317 C302 0.951 . S
H318 C304 0.951 . S
H319 C305 0.950 . S
H320 C306 0.950 . S
H321 C307 0.950 . S
H322 C309 0.950 . S
H323 C310 0.951 . S
C324 C325 1.386 . S
C324 C326 1.383 . S
C324 H340 0.951 . S
C325 C324 1.386 . S
C325 C329 1.383 . S
C326 C324 1.383 . S
C326 C327 1.402 . S
C326 H341 0.951 . S
C327 C326 1.402 . S
C327 C328 1.375 . S
C327 C330 1.481 1_554 S
C328 C327 1.375 . S
C328 C329 1.367 . S
C328 H342 0.951 . S
C329 C325 1.383 . S
C329 C328 1.367 . S
C329 H343 0.950 . S
C330 C327 1.481 1_556 S
C330 C331 1.297 . S
C330 H344 0.950 . S
C331 C330 1.297 . S
C331 C332 1.479 . S
C331 H345 0.950 . S
C332 C331 1.479 . S
C332 C333 1.375 . S
C332 C338 1.404 . S
C333 C332 1.375 . S
C333 C334 1.369 . S
C333 H346 0.950 . S
C334 C333 1.369 . S
C334 C335 1.392 . S
C334 H347 0.951 . S
C335 C334 1.392 . S
C335 C337 1.384 . S
H336 C338 0.949 . S
C337 C335 1.384 . S
C337 C338 1.385 . S
C337 H339 0.950 . S
C338 C332 1.404 . S
C338 H336 0.949 . S
C338 C337 1.385 . S
H339 C337 0.950 . S
H340 C324 0.951 . S
H341 C326 0.951 . S
H342 C328 0.951 . S
H343 C329 0.950 . S
H344 C330 0.950 . S
H345 C331 0.950 . S
H346 C333 0.950 . S
H347 C334 0.951 . S
C348 C349 1.386 . S
C348 C350 1.383 . S
C348 H364 0.951 . S
C349 C348 1.386 . S
C349 C353 1.383 . S
C350 C348 1.383 . S
C350 C351 1.402 . S
C350 H365 0.951 . S
C351 C350 1.402 . S
C351 C352 1.375 . S
C351 C354 1.481 . S
C352 C351 1.375 . S
C352 C353 1.367 . S
C352 H366 0.951 . S
C353 C349 1.383 . S
C353 C352 1.367 . S
C353 H367 0.950 . S
C354 C351 1.481 . S
C354 C355 1.297 . S
C354 H368 0.950 . S
C355 C354 1.297 . S
C355 C356 1.479 1_545 S
C355 H369 0.950 . S
C356 C355 1.479 1_565 S
C356 C357 1.375 . S
C356 C362 1.404 . S
C357 C356 1.375 . S
C357 C358 1.369 . S
C357 H370 0.950 . S
C358 C357 1.369 . S
C358 C359 1.392 . S
C358 H371 0.951 . S
C359 C358 1.392 . S
C359 C361 1.384 . S
H360 C362 0.949 . S
C361 C359 1.384 . S
C361 C362 1.385 . S
C361 H363 0.950 . S
C362 C356 1.404 . S
C362 H360 0.949 . S
C362 C361 1.385 . S
H363 C361 0.950 . S
H364 C348 0.951 . S
H365 C350 0.951 . S
H366 C352 0.951 . S
H367 C353 0.950 . S
H368 C354 0.950 . S
H369 C355 0.950 . S
H370 C357 0.950 . S
H371 C358 0.951 . S
C372 C373 1.386 . S
C372 C374 1.383 . S
C372 H388 0.951 . S
C373 C372 1.386 . S
C373 C377 1.383 . S
C374 C372 1.383 . S
C374 C375 1.402 . S
C374 H389 0.951 . S
C375 C374 1.402 . S
C375 C376 1.375 . S
C375 C378 1.481 . S
C376 C375 1.375 . S
C376 C377 1.367 . S
C376 H390 0.951 . S
C377 C373 1.383 . S
C377 C376 1.367 . S
C377 H391 0.950 . S
C378 C375 1.481 . S
C378 C379 1.297 . S
C378 H392 0.950 . S
C379 C378 1.297 . S
C379 C380 1.479 . S
C379 H393 0.950 . S
C380 C379 1.479 . S
C380 C381 1.375 . S
C380 C386 1.404 . S
C381 C380 1.375 . S
C381 C382 1.369 . S
C381 H394 0.950 . S
C382 C381 1.369 . S
C382 C383 1.392 . S
C382 H395 0.951 . S
C383 C382 1.392 . S
C383 C385 1.384 . S
H384 C386 0.949 . S
C385 C383 1.384 . S
C385 C386 1.385 . S
C385 H387 0.950 . S
C386 C380 1.404 . S
C386 H384 0.949 . S
C386 C385 1.385 . S
H387 C385 0.950 . S
H388 C372 0.951 . S
H389 C374 0.951 . S
H390 C376 0.951 . S
H391 C377 0.950 . S
H392 C378 0.950 . S
H393 C379 0.950 . S
H394 C381 0.950 . S
H395 C382 0.951 . S
C396 C397 1.386 . S
C396 C398 1.383 . S
C396 H412 0.951 . S
C397 C396 1.386 . S
C397 C401 1.383 . S
C398 C396 1.383 . S
C398 C399 1.402 . S
C398 H413 0.951 . S
C399 C398 1.402 . S
C399 C400 1.375 . S
C399 C402 1.481 1_655 S
C400 C399 1.375 . S
C400 C401 1.367 . S
C400 H414 0.951 . S
C401 C397 1.383 . S
C401 C400 1.367 . S
C401 H415 0.950 . S
C402 C399 1.481 1_455 S
C402 C403 1.297 . S
C402 H416 0.950 . S
C403 C402 1.297 . S
C403 C404 1.479 . S
C403 H417 0.950 . S
C404 C403 1.479 . S
C404 C405 1.375 . S
C404 C410 1.404 . S
C405 C404 1.375 . S
C405 C406 1.369 . S
C405 H418 0.950 . S
C406 C405 1.369 . S
C406 C407 1.392 . S
C406 H419 0.951 . S
C407 C406 1.392 . S
C407 C409 1.384 . S
H408 C410 0.949 . S
C409 C407 1.384 . S
C409 C410 1.385 . S
C409 H411 0.950 . S
C410 C404 1.404 . S
C410 H408 0.949 . S
C410 C409 1.385 . S
H411 C409 0.950 . S
H412 C396 0.951 . S
H413 C398 0.951 . S
H414 C400 0.951 . S
H415 C401 0.950 . S
H416 C402 0.950 . S
H417 C403 0.950 . S
H418 C405 0.950 . S
H419 C406 0.951 . S
C420 C421 1.386 1_556 S
C420 C422 1.383 . S
C420 H436 0.951 . S
C421 C420 1.386 1_554 S
C421 C425 1.383 . S
C422 C420 1.383 . S
C422 C423 1.402 1_556 S
C422 H437 0.951 . S
C423 C422 1.402 1_554 S
C423 C424 1.375 . S
C423 C426 1.481 1_565 S
C424 C423 1.375 . S
C424 C425 1.367 . S
C424 H438 0.951 . S
C425 C421 1.383 . S
C425 C424 1.367 . S
C425 H439 0.950 . S
C426 C423 1.481 1_545 S
C426 C427 1.297 1_554 S
C426 H440 0.950 . S
C427 C426 1.297 1_556 S
C427 C428 1.479 . S
C427 H441 0.950 . S
C428 C427 1.479 . S
C428 C429 1.375 . S
C428 C434 1.404 1_556 S
C429 C428 1.375 . S
C429 C430 1.369 . S
C429 H442 0.950 . S
C430 C429 1.369 . S
C430 C431 1.392 . S
C430 H443 0.951 . S
C431 C430 1.392 . S
C431 C433 1.384 1_556 S
H432 C434 0.949 . S
C433 C431 1.384 1_554 S
C433 C434 1.385 . S
C433 H435 0.950 . S
C434 C428 1.404 1_554 S
C434 H432 0.949 . S
C434 C433 1.385 . S
H435 C433 0.950 . S
H436 C420 0.951 . S
H437 C422 0.951 . S
H438 C424 0.951 . S
H439 C425 0.950 . S
H440 C426 0.950 . S
H441 C427 0.950 . S
H442 C429 0.950 . S
H443 C430 0.951 . S
C444 C445 1.386 . S
C444 C446 1.383 . S
C444 H460 0.951 . S
C445 C444 1.386 . S
C445 C449 1.383 . S
C446 C444 1.383 . S
C446 C447 1.402 . S
C446 H461 0.951 . S
C447 C446 1.402 . S
C447 C448 1.375 . S
C447 C450 1.481 . S
C448 C447 1.375 . S
C448 C449 1.367 . S
C448 H462 0.951 . S
C449 C445 1.383 . S
C449 C448 1.367 . S
C449 H463 0.950 . S
C450 C447 1.481 . S
C450 C451 1.297 . S
C450 H464 0.950 . S
C451 C450 1.297 . S
C451 C452 1.479 . S
C451 H465 0.950 . S
C452 C451 1.479 . S
C452 C453 1.375 . S
C452 C458 1.404 . S
C453 C452 1.375 . S
C453 C454 1.369 . S
C453 H466 0.950 . S
C454 C453 1.369 . S
C454 C455 1.392 . S
C454 H467 0.951 . S
C455 C454 1.392 . S
C455 C457 1.384 . S
H456 C458 0.949 . S
C457 C455 1.384 . S
C457 C458 1.385 . S
C457 H459 0.950 1_554 S
C458 C452 1.404 . S
C458 H456 0.949 . S
C458 C457 1.385 . S
H459 C457 0.950 1_556 S
H460 C444 0.951 . S
H461 C446 0.951 . S
H462 C448 0.951 . S
H463 C449 0.950 . S
H464 C450 0.950 . S
H465 C451 0.950 . S
H466 C453 0.950 . S
H467 C454 0.951 . S
C468 C469 1.386 . S
C468 C470 1.383 . S
C468 H484 0.951 . S
C469 C468 1.386 . S
C469 C473 1.383 . S
C470 C468 1.383 . S
C470 C471 1.402 . S
C470 H485 0.951 . S
C471 C470 1.402 . S
C471 C472 1.375 . S
C471 C474 1.481 1_655 S
C472 C471 1.375 . S
C472 C473 1.367 . S
C472 H486 0.951 . S
C473 C469 1.383 . S
C473 C472 1.367 . S
C473 H487 0.950 . S
C474 C471 1.481 1_455 S
C474 C475 1.297 . S
C474 H488 0.950 . S
C475 C474 1.297 . S
C475 C476 1.479 . S
C475 H489 0.950 . S
C476 C475 1.479 . S
C476 C477 1.375 . S
C476 C482 1.404 . S
C477 C476 1.375 . S
C477 C478 1.369 . S
C477 H490 0.950 . S
C478 C477 1.369 . S
C478 C479 1.392 . S
C478 H491 0.951 . S
C479 C478 1.392 . S
C479 C481 1.384 . S
H480 C482 0.949 . S
C481 C479 1.384 . S
C481 C482 1.385 . S
C481 H483 0.950 . S
C482 C476 1.404 . S
C482 H480 0.949 . S
C482 C481 1.385 . S
H483 C481 0.950 . S
H484 C468 0.951 . S
H485 C470 0.951 . S
H486 C472 0.951 . S
H487 C473 0.950 . S
H488 C474 0.950 . S
H489 C475 0.950 . S
H490 C477 0.950 . S
H491 C478 0.951 . S
C492 C493 1.386 . S
C492 C494 1.383 . S
C492 H508 0.951 . S
C493 C492 1.386 . S
C493 C497 1.383 . S
C494 C492 1.383 . S
C494 C495 1.402 . S
C494 H509 0.951 . S
C495 C494 1.402 . S
C495 C496 1.375 . S
C495 C498 1.481 . S
C496 C495 1.375 . S
C496 C497 1.367 . S
C496 H510 0.951 . S
C497 C493 1.383 . S
C497 C496 1.367 . S
C497 H511 0.950 . S
C498 C495 1.481 . S
C498 C499 1.297 . S
C498 H512 0.950 . S
C499 C498 1.297 . S
C499 C500 1.479 . S
C499 H513 0.950 . S
C500 C499 1.479 . S
C500 C501 1.375 . S
C500 C506 1.404 . S
C501 C500 1.375 . S
C501 C502 1.369 . S
C501 H514 0.950 . S
C502 C501 1.369 . S
C502 C503 1.392 . S
C502 H515 0.951 . S
C503 C502 1.392 . S
C503 C505 1.384 . S
H504 C506 0.949 . S
C505 C503 1.384 . S
C505 C506 1.385 . S
C505 H507 0.950 . S
C506 C500 1.404 . S
C506 H504 0.949 . S
C506 C505 1.385 . S
H507 C505 0.950 . S
H508 C492 0.951 . S
H509 C494 0.951 . S
H510 C496 0.951 . S
H511 C497 0.950 . S
H512 C498 0.950 . S
H513 C499 0.950 . S
H514 C501 0.950 . S
H515 C502 0.951 . S
C516 C517 1.386 . S
C516 C518 1.383 . S
C516 H532 0.951 . S
C517 C516 1.386 . S
C517 C521 1.383 . S
C518 C516 1.383 . S
C518 C519 1.402 . S
C518 H533 0.951 . S
C519 C518 1.402 . S
C519 C520 1.375 . S
C519 C522 1.481 . S
C520 C519 1.375 . S
C520 C521 1.367 . S
C520 H534 0.951 . S
C521 C517 1.383 . S
C521 C520 1.367 . S
C521 H535 0.950 . S
C522 C519 1.481 . S
C522 C523 1.297 . S
C522 H536 0.950 . S
C523 C522 1.297 . S
C523 C524 1.479 . S
C523 H537 0.950 . S
C524 C523 1.479 . S
C524 C525 1.375 . S
C524 C530 1.404 . S
C525 C524 1.375 . S
C525 C526 1.369 . S
C525 H538 0.950 . S
C526 C525 1.369 . S
C526 C527 1.392 . S
C526 H539 0.951 . S
C527 C526 1.392 . S
C527 C529 1.384 . S
H528 C530 0.949 . S
C529 C527 1.384 . S
C529 C530 1.385 . S
C529 H531 0.950 . S
C530 C524 1.404 . S
C530 H528 0.949 . S
C530 C529 1.385 . S
H531 C529 0.950 . S
H532 C516 0.951 . S
H533 C518 0.951 . S
H534 C520 0.951 . S
H535 C521 0.950 . S
H536 C522 0.950 . S
H537 C523 0.950 . S
H538 C525 0.950 . S
H539 C526 0.951 . S
C540 C541 1.386 . S
C540 C542 1.383 . S
C540 H556 0.951 . S
C541 C540 1.386 . S
C541 C545 1.383 . S
C542 C540 1.383 . S
C542 C543 1.402 . S
C542 H557 0.951 . S
C543 C542 1.402 . S
C543 C544 1.375 . S
C543 C546 1.481 . S
C544 C543 1.375 . S
C544 C545 1.367 . S
C544 H558 0.951 . S
C545 C541 1.383 . S
C545 C544 1.367 . S
C545 H559 0.950 . S
C546 C543 1.481 . S
C546 C547 1.297 . S
C546 H560 0.950 . S
C547 C546 1.297 . S
C547 C548 1.479 . S
C547 H561 0.950 . S
C548 C547 1.479 . S
C548 C549 1.375 . S
C548 C554 1.404 . S
C549 C548 1.375 . S
C549 C550 1.369 . S
C549 H562 0.950 . S
C550 C549 1.369 . S
C550 C551 1.392 . S
C550 H563 0.951 . S
C551 C550 1.392 . S
C551 C553 1.384 . S
H552 C554 0.949 . S
C553 C551 1.384 . S
C553 C554 1.385 . S
C553 H555 0.950 . S
C554 C548 1.404 . S
C554 H552 0.949 . S
C554 C553 1.385 . S
H555 C553 0.950 . S
H556 C540 0.951 . S
H557 C542 0.951 . S
H558 C544 0.951 . S
H559 C545 0.950 . S
H560 C546 0.950 . S
H561 C547 0.950 . S
H562 C549 0.950 . S
H563 C550 0.951 . S
C564 C565 1.386 1_556 S
C564 C566 1.383 . S
C564 H580 0.951 . S
C565 C564 1.386 1_554 S
C565 C569 1.383 . S
C566 C564 1.383 . S
C566 C567 1.402 . S
C566 H581 0.951 . S
C567 C566 1.402 . S
C567 C568 1.375 . S
C567 C570 1.481 . S
C568 C567 1.375 . S
C568 C569 1.367 1_556 S
C568 H582 0.951 1_556 S
C569 C565 1.383 . S
C569 C568 1.367 1_554 S
C569 H583 0.950 . S
C570 C567 1.481 . S
C570 C571 1.297 . S
C570 H584 0.950 . S
C571 C570 1.297 . S
C571 C572 1.479 . S
C571 H585 0.950 . S
C572 C571 1.479 . S
C572 C573 1.375 . S
C572 C578 1.404 . S
C573 C572 1.375 . S
C573 C574 1.369 . S
C573 H586 0.950 . S
C574 C573 1.369 . S
C574 C575 1.392 . S
C574 H587 0.951 . S
C575 C574 1.392 . S
C575 C577 1.384 . S
H576 C578 0.949 . S
C577 C575 1.384 . S
C577 C578 1.385 . S
C577 H579 0.950 . S
C578 C572 1.404 . S
C578 H576 0.949 . S
C578 C577 1.385 . S
H579 C577 0.950 . S
H580 C564 0.951 . S
H581 C566 0.951 . S
H582 C568 0.951 1_554 S
H583 C569 0.950 . S
H584 C570 0.950 . S
H585 C571 0.950 . S
H586 C573 0.950 . S
H587 C574 0.951 . S
C588 C589 1.386 . S
C588 C590 1.383 . S
C588 H604 0.951 . S
C589 C588 1.386 . S
C589 C593 1.383 . S
C590 C588 1.383 . S
C590 C591 1.402 . S
C590 H605 0.951 . S
C591 C590 1.402 . S
C591 C592 1.375 . S
C591 C594 1.481 . S
C592 C591 1.375 . S
C592 C593 1.367 . S
C592 H606 0.951 . S
C593 C589 1.383 . S
C593 C592 1.367 . S
C593 H607 0.950 . S
C594 C591 1.481 . S
C594 C595 1.297 . S
C594 H608 0.950 . S
C595 C594 1.297 . S
C595 C596 1.479 . S
C595 H609 0.950 . S
C596 C595 1.479 . S
C596 C597 1.375 . S
C596 C602 1.404 . S
C597 C596 1.375 . S
C597 C598 1.369 1_554 S
C597 H610 0.950 . S
C598 C597 1.369 1_556 S
C598 C599 1.392 . S
C598 H611 0.951 . S
C599 C598 1.392 . S
C599 C601 1.384 1_556 S
H600 C602 0.949 . S
C601 C599 1.384 1_554 S
C601 C602 1.385 . S
C601 H603 0.950 . S
C602 C596 1.404 . S
C602 H600 0.949 . S
C602 C601 1.385 . S
H603 C601 0.950 . S
H604 C588 0.951 . S
H605 C590 0.951 . S
H606 C592 0.951 . S
H607 C593 0.950 . S
H608 C594 0.950 . S
H609 C595 0.950 . S
H610 C597 0.950 . S
H611 C598 0.951 . S
C612 C613 1.386 . S
C612 C614 1.383 . S
C612 H628 0.951 . S
C613 C612 1.386 . S
C613 C617 1.383 . S
C614 C612 1.383 . S
C614 C615 1.402 . S
C614 H629 0.951 . S
C615 C614 1.402 . S
C615 C616 1.375 . S
C615 C618 1.481 . S
C616 C615 1.375 . S
C616 C617 1.367 . S
C616 H630 0.951 . S
C617 C613 1.383 . S
C617 C616 1.367 . S
C617 H631 0.950 . S
C618 C615 1.481 . S
C618 C619 1.297 . S
C618 H632 0.950 . S
C619 C618 1.297 . S
C619 C620 1.479 . S
C619 H633 0.950 . S
C620 C619 1.479 . S
C620 C621 1.375 . S
C620 C626 1.404 . S
C621 C620 1.375 . S
C621 C622 1.369 . S
C621 H634 0.950 . S
C622 C621 1.369 . S
C622 C623 1.392 . S
C622 H635 0.951 . S
C623 C622 1.392 . S
C623 C625 1.384 . S
H624 C626 0.949 . S
C625 C623 1.384 . S
C625 C626 1.385 . S
C625 H627 0.950 . S
C626 C620 1.404 . S
C626 H624 0.949 . S
C626 C625 1.385 . S
H627 C625 0.950 . S
H628 C612 0.951 . S
H629 C614 0.951 . S
H630 C616 0.951 . S
H631 C617 0.950 . S
H632 C618 0.950 . S
H633 C619 0.950 . S
H634 C621 0.950 . S
H635 C622 0.951 . S
C205 C0 0.883 . S
C215 C29 0.875 . S
C229 C63 0.880 . S
C239 C34 0.876 . S
C253 C97 0.879 . S
C263 C68 0.881 . S
C277 C102 0.882 . S
C287 C131 0.875 . S
C301 C165 0.882 . S
C311 C136 0.875 . S
C325 C199 0.879 . S
C335 C170 0.879 . S
C349 C13 1.657 . S
C359 C183 1.727 . S
C373 C8 1.759 . S
C383 C42 1.780 . S
C397 C81 1.715 . S
C407 C47 1.628 . S
C421 C110 1.775 . S
C431 C76 1.747 . S
C445 C149 1.658 . S
C455 C115 1.727 . S
C469 C144 1.779 . S
C479 C178 1.741 . S
C493 C4 1.933 . S
C503 C153 1.962 . S
C517 C51 1.973 . S
C527 C174 1.888 . S
C541 C72 1.922 . S
C551 C17 1.958 . S
C565 C119 1.977 . S
C575 C38 1.938 . S
C589 C140 1.924 . S
C599 C85 1.959 . S
C613 C106 1.903 . S
C623 C187 1.973 . S
