# Generated by pormake.
# Topology zfw, (5)-cn, num edge types: 1
# Building blocks:
#     Node 0, Type 0, BuildingBlock: BEQFEK_clean_sbu_0, # of connection points: 5
#     Node 1, Type 0, BuildingBlock: BEQFEK_clean_sbu_0, # of connection points: 5
#     Node 2, Type 0, BuildingBlock: BEQFEK_clean_sbu_0, # of connection points: 5
#     Node 3, Type 0, BuildingBlock: BEQFEK_clean_sbu_0, # of connection points: 5
#     Node 4, Type 0, BuildingBlock: BEQFEK_clean_sbu_0, # of connection points: 5
#     Node 5, Type 0, BuildingBlock: BEQFEK_clean_sbu_0, # of connection points: 5
#     Node 6, Type 0, BuildingBlock: BEQFEK_clean_sbu_0, # of connection points: 5
#     Node 7, Type 0, BuildingBlock: BEQFEK_clean_sbu_0, # of connection points: 5
#     Node 8, Type 0, BuildingBlock: BEQFEK_clean_sbu_0, # of connection points: 5
#     Node 9, Type 0, BuildingBlock: BEQFEK_clean_sbu_0, # of connection points: 5
#     Node 10, Type 0, BuildingBlock: BEQFEK_clean_sbu_0, # of connection points: 5
#     Node 11, Type 0, BuildingBlock: BEQFEK_clean_sbu_0, # of connection points: 5
#     Node 12, Type 0, BuildingBlock: BEQFEK_clean_sbu_0, # of connection points: 5
#     Node 13, Type 0, BuildingBlock: BEQFEK_clean_sbu_0, # of connection points: 5
#     Node 14, Type 0, BuildingBlock: BEQFEK_clean_sbu_0, # of connection points: 5
#     Node 15, Type 0, BuildingBlock: BEQFEK_clean_sbu_0, # of connection points: 5
#     Edge 16, Type (0, 0), BuildingBlock: CIFDUS_clean_linker_0, # of connection points: 2
#     Edge 17, Type (0, 0), BuildingBlock: CIFDUS_clean_linker_0, # of connection points: 2
#     Edge 18, Type (0, 0), BuildingBlock: CIFDUS_clean_linker_0, # of connection points: 2
#     Edge 19, Type (0, 0), BuildingBlock: CIFDUS_clean_linker_0, # of connection points: 2
#     Edge 20, Type (0, 0), BuildingBlock: CIFDUS_clean_linker_0, # of connection points: 2
#     Edge 21, Type (0, 0), BuildingBlock: CIFDUS_clean_linker_0, # of connection points: 2
#     Edge 22, Type (0, 0), BuildingBlock: CIFDUS_clean_linker_0, # of connection points: 2
#     Edge 23, Type (0, 0), BuildingBlock: CIFDUS_clean_linker_0, # of connection points: 2
#     Edge 24, Type (0, 0), BuildingBlock: CIFDUS_clean_linker_0, # of connection points: 2
#     Edge 25, Type (0, 0), BuildingBlock: CIFDUS_clean_linker_0, # of connection points: 2
#     Edge 26, Type (0, 0), BuildingBlock: CIFDUS_clean_linker_0, # of connection points: 2
#     Edge 27, Type (0, 0), BuildingBlock: CIFDUS_clean_linker_0, # of connection points: 2
#     Edge 28, Type (0, 0), BuildingBlock: CIFDUS_clean_linker_0, # of connection points: 2
#     Edge 29, Type (0, 0), BuildingBlock: CIFDUS_clean_linker_0, # of connection points: 2
#     Edge 30, Type (0, 0), BuildingBlock: CIFDUS_clean_linker_0, # of connection points: 2
#     Edge 31, Type (0, 0), BuildingBlock: CIFDUS_clean_linker_0, # of connection points: 2
#     Edge 32, Type (0, 0), BuildingBlock: CIFDUS_clean_linker_0, # of connection points: 2
#     Edge 33, Type (0, 0), BuildingBlock: CIFDUS_clean_linker_0, # of connection points: 2
#     Edge 34, Type (0, 0), BuildingBlock: CIFDUS_clean_linker_0, # of connection points: 2
#     Edge 35, Type (0, 0), BuildingBlock: CIFDUS_clean_linker_0, # of connection points: 2
#     Edge 36, Type (0, 0), BuildingBlock: CIFDUS_clean_linker_0, # of connection points: 2
#     Edge 37, Type (0, 0), BuildingBlock: CIFDUS_clean_linker_0, # of connection points: 2
#     Edge 38, Type (0, 0), BuildingBlock: CIFDUS_clean_linker_0, # of connection points: 2
#     Edge 39, Type (0, 0), BuildingBlock: CIFDUS_clean_linker_0, # of connection points: 2
#     Edge 40, Type (0, 0), BuildingBlock: CIFDUS_clean_linker_0, # of connection points: 2
#     Edge 41, Type (0, 0), BuildingBlock: CIFDUS_clean_linker_0, # of connection points: 2
#     Edge 42, Type (0, 0), BuildingBlock: CIFDUS_clean_linker_0, # of connection points: 2
#     Edge 43, Type (0, 0), BuildingBlock: CIFDUS_clean_linker_0, # of connection points: 2
#     Edge 44, Type (0, 0), BuildingBlock: CIFDUS_clean_linker_0, # of connection points: 2
#     Edge 45, Type (0, 0), BuildingBlock: CIFDUS_clean_linker_0, # of connection points: 2
#     Edge 46, Type (0, 0), BuildingBlock: CIFDUS_clean_linker_0, # of connection points: 2
#     Edge 47, Type (0, 0), BuildingBlock: CIFDUS_clean_linker_0, # of connection points: 2
#     Edge 48, Type (0, 0), BuildingBlock: CIFDUS_clean_linker_0, # of connection points: 2
#     Edge 49, Type (0, 0), BuildingBlock: CIFDUS_clean_linker_0, # of connection points: 2
#     Edge 50, Type (0, 0), BuildingBlock: CIFDUS_clean_linker_0, # of connection points: 2
#     Edge 51, Type (0, 0), BuildingBlock: CIFDUS_clean_linker_0, # of connection points: 2
#     Edge 52, Type (0, 0), BuildingBlock: CIFDUS_clean_linker_0, # of connection points: 2
#     Edge 53, Type (0, 0), BuildingBlock: CIFDUS_clean_linker_0, # of connection points: 2
#     Edge 54, Type (0, 0), BuildingBlock: CIFDUS_clean_linker_0, # of connection points: 2
#     Edge 55, Type (0, 0), BuildingBlock: CIFDUS_clean_linker_0, # of connection points: 2
# Relax obj value: 0.401
# Max RMSD: 0.232
# Mean RMSD: 0.232
data_MOF--net-zfw--node1-BEQFEK_clean_sbu_0--edge1-CIFDUS_clean_linker_0
_symmetry_space_group_name_H-M    P1
_symmetry_Int_Tables_number       1
_symmetry_cell_setting            triclinic
loop_
_symmetry_equiv_pos_as_xyz
'x, y, z'
_cell_length_a     60.862874
_cell_length_b     60.881227
_cell_length_c     16.133101
_cell_angle_alpha  90.045656
_cell_angle_beta   90.069344
_cell_angle_gamma 90.013836
loop_
_atom_site_label
_atom_site_type_symbol
_atom_site_fract_x
_atom_site_fract_y
_atom_site_fract_z
_atom_type_partial_charge
Co0 Co 0.00665 0.09935 0.30447 0.0
Co1 Co 0.00323 0.12448 0.13633 0.0
C2 C 0.97099 0.13232 0.2719 0.0
O3 O 0.98135 0.11885 0.31727 0.0
O4 O 0.97697 0.13594 0.19748 0.0
C5 C 0.98991 0.08005 0.44886 0.0
O6 O 0.97105 0.08328 0.41111 0.0
C7 C 0.98667 0.12994 0.9684 0.0
C8 C 0.01594 0.1434 0.90582 0.0
C9 C 0.99532 0.13454 0.89087 0.0
N10 N 0.00184 0.13505 0.02583 0.0
N11 N 0.01894 0.14394 0.98834 0.0
C12 C 0.96572 0.11803 0.98716 0.0
H13 H 0.96649 0.11031 0.04939 0.0
H14 H 0.96211 0.10546 0.9392 0.0
H15 H 0.95202 0.13004 0.98677 0.0
C16 C 0.00495 0.06065 0.19322 0.0
N17 N 0.00475 0.08248 0.20686 0.0
N18 N 0.00487 0.09292 0.13534 0.0
C19 C 0.00612 0.07785 0.07398 0.0
C20 C 0.00564 0.05711 0.10852 0.0
C21 C 0.00475 0.04372 0.26024 0.0
H22 H 0.01944 0.04596 0.30022 0.0
H23 H 0.99004 0.04616 0.29971 0.0
H24 H 0.00467 0.02682 0.23434 0.0
O25 O 0.03327 0.11803 0.30433 0.0
O26 O 0.03024 0.13685 0.18709 0.0
H27 H 0.02022 0.06911 0.95599 0.0
H28 H 0.99493 0.0838 0.95026 0.0
C29 C 0.01063 0.08264 0.98462 0.0
H30 H 0.02011 0.09804 0.97826 0.0
H31 H 0.03344 0.14846 0.01835 0.0
O32 O 0.00758 0.08197 0.4075 0.0
C33 C 0.04036 0.13256 0.25428 0.0
Co34 Co 0.16902 0.74473 0.63276 0.0
Co35 Co 0.14319 0.74516 0.46634 0.0
C36 C 0.13497 0.71046 0.59122 0.0
O37 O 0.14902 0.7191 0.63971 0.0
O38 O 0.13122 0.71846 0.5197 0.0
C39 C 0.18449 0.72816 0.78085 0.0
O40 O 0.18333 0.70814 0.75071 0.0
C41 C 0.12972 0.73224 0.29939 0.0
C42 C 0.13018 0.76458 0.23797 0.0
C43 C 0.12946 0.74218 0.22157 0.0
N44 N 0.13219 0.74798 0.35704 0.0
N45 N 0.13143 0.76731 0.32033 0.0
C46 C 0.12778 0.70835 0.32009 0.0
H47 H 0.11722 0.70635 0.37549 0.0
H48 H 0.14419 0.70154 0.33543 0.0
H49 H 0.12034 0.69899 0.26808 0.0
C50 C 0.20715 0.74548 0.51918 0.0
N51 N 0.18537 0.7451 0.53377 0.0
N52 N 0.1747 0.74467 0.46288 0.0
C53 C 0.1895 0.74437 0.40054 0.0
C54 C 0.21054 0.74507 0.43407 0.0
C55 C 0.22418 0.74708 0.58589 0.0
H56 H 0.21881 0.75906 0.63358 0.0
H57 H 0.22593 0.73083 0.61628 0.0
H58 H 0.24033 0.75225 0.56073 0.0
O59 O 0.15098 0.77135 0.64468 0.0
O60 O 0.13216 0.77132 0.52711 0.0
H61 H 0.17512 0.75632 0.28835 0.0
H62 H 0.19837 0.73849 0.27171 0.0
C63 C 0.18376 0.74148 0.31096 0.0
H64 H 0.17288 0.72708 0.30421 0.0
H65 H 0.13378 0.78226 0.35076 0.0
O66 O 0.18786 0.74394 0.73119 0.0
C67 C 0.13658 0.77978 0.59734 0.0
Co68 Co 0.50685 0.89956 0.81875 0.0
Co69 Co 0.50985 0.87831 0.64452 0.0
C70 C 0.54473 0.8699 0.76415 0.0
O71 O 0.53436 0.88166 0.81637 0.0
O72 O 0.53749 0.86716 0.69093 0.0
C73 C 0.52614 0.91899 0.95921 0.0
O74 O 0.54394 0.91948 0.9134 0.0
C75 C 0.52175 0.86878 0.47066 0.0
C76 C 0.48864 0.86427 0.41701 0.0
C77 C 0.51068 0.86544 0.39667 0.0
N78 N 0.50682 0.86996 0.53187 0.0
N79 N 0.48713 0.86673 0.49954 0.0
C80 C 0.5461 0.87043 0.48283 0.0
H81 H 0.55323 0.85367 0.48075 0.0
H82 H 0.55009 0.87788 0.54372 0.0
H83 H 0.55382 0.88009 0.43243 0.0
C84 C 0.49851 0.93947 0.71716 0.0
N85 N 0.5038 0.91814 0.72611 0.0
N86 N 0.50806 0.90962 0.65328 0.0
C87 C 0.50766 0.9257 0.59605 0.0
C88 C 0.50081 0.9453 0.63352 0.0
C89 C 0.48968 0.95298 0.78715 0.0
H90 H 0.4828 0.94217 0.836 0.0
H91 H 0.50324 0.96271 0.81498 0.0
H92 H 0.47662 0.96426 0.76505 0.0
O93 O 0.48208 0.87946 0.82522 0.0
O94 O 0.48453 0.86353 0.70213 0.0
H95 H 0.50425 0.91622 0.46868 0.0
H96 H 0.5238 0.93834 0.48612 0.0
C97 C 0.51705 0.92279 0.51104 0.0
H98 H 0.53081 0.91106 0.51386 0.0
H99 H 0.47254 0.86729 0.53333 0.0
O100 O 0.50774 0.91518 0.92487 0.0
C101 C 0.47529 0.86551 0.77262 0.0
Co102 Co 0.35108 0.24917 0.10603 0.0
Co103 Co 0.37481 0.25568 0.93665 0.0
C104 C 0.38143 0.28722 0.07542 0.0
O105 O 0.36892 0.27574 0.12083 0.0
O106 O 0.38484 0.282 9e-05 0.0
C107 C 0.33005 0.26424 0.24909 0.0
O108 O 0.33147 0.28312 0.2101 0.0
C109 C 0.37799 0.27329 0.76953 0.0
C110 C 0.39497 0.24615 0.70542 0.0
C111 C 0.38367 0.26558 0.69165 0.0
N112 N 0.38491 0.25866 0.82613 0.0
N113 N 0.39585 0.24294 0.78775 0.0
C114 C 0.36361 0.29256 0.78916 0.0
H115 H 0.35662 0.29107 0.85241 0.0
H116 H 0.35026 0.29425 0.74271 0.0
H117 H 0.3737 0.30772 0.78641 0.0
C118 C 0.3119 0.24668 -0.00325 0.0
N119 N 0.33354 0.2501 0.00933 0.0
N120 N 0.34358 0.25155 0.93726 0.0
C121 C 0.32863 0.24825 0.87654 0.0
C122 C 0.30811 0.24566 0.91206 0.0
C123 C 0.29552 0.24372 0.06479 0.0
H124 H 0.29728 0.25726 0.11037 0.0
H125 H 0.27845 0.24343 0.04056 0.0
H126 H 0.29899 0.22809 0.0976 0.0
O127 O 0.37171 0.22394 0.10274 0.0
O128 O 0.38903 0.22923 0.98319 0.0
H129 H 0.32179 0.232 0.76032 0.0
H130 H 0.33321 0.25888 0.7513 0.0
C131 C 0.33396 0.2435 0.78767 0.0
H132 H 0.35044 0.23598 0.78231 0.0
H133 H 0.40214 0.22901 0.81697 0.0
O134 O 0.33406 0.24665 0.20932 0.0
C135 C 0.38615 0.21834 0.04963 0.0
Co136 Co 0.01082 0.90356 0.66146 0.0
Co137 Co 0.01326 0.87919 0.83049 0.0
C138 C 0.97561 0.87253 0.71261 0.0
O139 O 0.98387 0.88571 0.66035 0.0
O140 O 0.98505 0.86877 0.78155 0.0
C141 C 0.99351 0.92249 0.51593 0.0
O142 O 0.97452 0.91813 0.55089 0.0
C143 C 0.99847 0.87377 -0.00149 0.0
C144 C 0.02811 0.86099 0.06098 0.0
C145 C 0.00718 0.86911 0.07568 0.0
N146 N 0.0137 0.86911 0.94113 0.0
N147 N 0.03112 0.86072 0.97837 0.0
C148 C 0.97748 0.8857 0.9803 0.0
H149 H 0.97814 0.89357 0.91837 0.0
H150 H 0.97407 0.89828 0.02843 0.0
H151 H 0.96374 0.87372 0.98082 0.0
C152 C 0.01492 0.94259 0.77077 0.0
N153 N 0.0134 0.92076 0.75835 0.0
N154 N 0.01605 0.9105 0.82943 0.0
C155 C 0.02034 0.92554 0.88885 0.0
C156 C 0.01949 0.9463 0.85386 0.0
C157 C 0.01292 0.95933 0.70346 0.0
H158 H 0.02614 0.95663 0.65729 0.0
H159 H 0.99698 0.95712 0.67102 0.0
H160 H 0.01411 0.97631 0.72818 0.0
O161 O 0.03621 0.8833 0.65021 0.0
O162 O 0.03817 0.86581 0.77068 0.0
H163 H 0.03528 0.9051 0.98147 0.0
H164 H 0.03478 0.93374 0.00791 0.0
C165 C 0.02546 0.92034 0.97752 0.0
H166 H 0.00992 0.91827 0.01224 0.0
H167 H 0.04568 0.8566 0.94813 0.0
O168 O 0.01092 0.92107 0.55908 0.0
C169 C 0.04526 0.86924 0.69762 0.0
Co170 Co 0.35752 0.74807 0.94136 0.0
Co171 Co 0.38149 0.74844 0.11156 0.0
C172 C 0.38872 0.7124 0.98855 0.0
O173 O 0.37569 0.72138 0.93732 0.0
O174 O 0.39225 0.72085 0.05948 0.0
C175 C 0.33793 0.73087 0.79714 0.0
O176 O 0.34168 0.71198 0.83379 0.0
C177 C 0.38631 0.73291 0.27926 0.0
C178 C 0.39969 0.76211 0.34288 0.0
C179 C 0.39104 0.74137 0.35678 0.0
N180 N 0.39142 0.74815 0.22243 0.0
N181 N 0.40018 0.76527 0.2604 0.0
C182 C 0.37399 0.71221 0.26022 0.0
H183 H 0.36696 0.71274 0.19678 0.0
H184 H 0.36072 0.70944 0.30618 0.0
H185 H 0.38551 0.69812 0.26431 0.0
C186 C 0.31815 0.75011 0.05028 0.0
N187 N 0.34003 0.74923 0.03797 0.0
N188 N 0.35019 0.7508 0.1098 0.0
C189 C 0.33502 0.75361 0.16982 0.0
C190 C 0.31428 0.75273 0.13453 0.0
C191 C 0.30147 0.74797 0.9826 0.0
H192 H 0.30649 0.73479 0.9391 0.0
H193 H 0.28492 0.74424 0.00768 0.0
H194 H 0.30078 0.7636 0.94735 0.0
O195 O 0.37767 0.77374 0.93399 0.0
O196 O 0.39482 0.77392 0.05549 0.0
H197 H 0.3265 0.77002 0.28398 0.0
H198 H 0.34148 0.74494 0.29609 0.0
C199 C 0.33998 0.75992 0.25763 0.0
H200 H 0.35539 0.76952 0.26089 0.0
H201 H 0.40469 0.7798 0.2307 0.0
O202 O 0.3402 0.7485 0.83845 0.0
C203 C 0.39168 0.782 0.98374 0.0
Co204 Co 0.5037 0.09749 0.15721 0.0
Co205 Co 0.51061 0.11774 0.33178 0.0
C206 C 0.5431 0.12638 0.2044 0.0
O207 O 0.53131 0.11524 0.15447 0.0
O208 O 0.53764 0.12866 0.27997 0.0
C209 C 0.52183 0.07672 0.01858 0.0
O210 O 0.53907 0.07471 0.06692 0.0
C211 C 0.52418 0.12643 0.50589 0.0
C212 C 0.49156 0.13254 0.56104 0.0
C213 C 0.51359 0.13043 0.58028 0.0
N214 N 0.50897 0.12586 0.44532 0.0
N215 N 0.4896 0.13004 0.4787 0.0
C216 C 0.54839 0.12366 0.49314 0.0
H217 H 0.55208 0.11888 0.42832 0.0
H218 H 0.55502 0.11116 0.53646 0.0
H219 H 0.55675 0.13941 0.50743 0.0
C220 C 0.49642 0.05727 0.25878 0.0
N221 N 0.50213 0.07849 0.24939 0.0
N222 N 0.50807 0.08659 0.3213 0.0
C223 C 0.5083 0.07034 0.37771 0.0
C224 C 0.50012 0.05109 0.34139 0.0
C225 C 0.48597 0.04423 0.19068 0.0
H226 H 0.47881 0.05537 0.14342 0.0
H227 H 0.49865 0.03397 0.16001 0.0
H228 H 0.47283 0.03346 0.21551 0.0
O229 O 0.47894 0.11775 0.15741 0.0
O230 O 0.48464 0.13292 0.28044 0.0
H231 H 0.50777 0.07957 0.50585 0.0
H232 H 0.52614 0.05685 0.48246 0.0
C233 C 0.51945 0.07269 0.45991 0.0
H234 H 0.5335 0.08398 0.45335 0.0
H235 H 0.47484 0.13015 0.44573 0.0
O236 O 0.50356 0.08222 0.05035 0.0
C237 C 0.47372 0.1315 0.21319 0.0
Co238 Co 0.15795 0.24921 0.43204 0.0
Co239 Co 0.13468 0.24622 0.60257 0.0
C240 C 0.12583 0.28338 0.48629 0.0
O241 O 0.13886 0.27499 0.43391 0.0
O242 O 0.12291 0.27446 0.55676 0.0
C243 C 0.17601 0.26997 0.29177 0.0
O244 O 0.17326 0.28802 0.33525 0.0
C245 C 0.13107 0.25641 0.77756 0.0
C246 C 0.11462 0.22656 0.82426 0.0
C247 C 0.12578 0.24527 0.84993 0.0
N248 N 0.12445 0.24416 0.71296 0.0
N249 N 0.11378 0.22684 0.7411 0.0
C250 C 0.14493 0.27662 0.7687 0.0
H251 H 0.15071 0.27852 0.70389 0.0
H252 H 0.15918 0.27621 0.81155 0.0
H253 H 0.13487 0.29118 0.78514 0.0
C254 C 0.19783 0.24716 0.53735 0.0
N255 N 0.17588 0.24736 0.52723 0.0
N256 N 0.16628 0.24384 0.59902 0.0
C257 C 0.18202 0.23971 0.65618 0.0
C258 C 0.20256 0.24244 0.61973 0.0
C259 C 0.21385 0.25063 0.46833 0.0
H260 H 0.20967 0.23959 0.41593 0.0
H261 H 0.21245 0.26779 0.44575 0.0
H262 H 0.23098 0.24738 0.48843 0.0
O263 O 0.13895 0.22275 0.42013 0.0
O264 O 0.1218 0.22134 0.54133 0.0
H265 H 0.1608 0.22559 0.74864 0.0
H266 H 0.18861 0.21805 0.75893 0.0
C267 C 0.1777 0.23187 0.74265 0.0
H268 H 0.18095 0.24527 0.78753 0.0
H269 H 0.10767 0.21424 0.70372 0.0
O270 O 0.17452 0.25152 0.32819 0.0
C271 C 0.12518 0.21378 0.46894 0.0
Co272 Co 0.85181 0.25833 0.38504 0.0
Co273 Co 0.87579 0.25253 0.55455 0.0
C274 C 0.88274 0.2208 0.41679 0.0
O275 O 0.87005 0.23206 0.37124 0.0
O276 O 0.88618 0.22617 0.49202 0.0
C277 C 0.8312 0.24267 0.24166 0.0
O278 O 0.83309 0.22382 0.28061 0.0
C279 C 0.87963 0.23516 0.72186 0.0
C280 C 0.89549 0.263 0.78594 0.0
C281 C 0.88498 0.24313 0.79977 0.0
N282 N 0.88597 0.25002 0.66523 0.0
N283 N 0.89626 0.2662 0.70361 0.0
C284 C 0.86607 0.2153 0.70214 0.0
H285 H 0.85866 0.2167 0.63947 0.0
H286 H 0.85307 0.21277 0.74936 0.0
H287 H 0.87688 0.20063 0.70317 0.0
C288 C 0.81262 0.25955 0.49362 0.0
N289 N 0.83438 0.25715 0.48148 0.0
N290 N 0.84444 0.25602 0.5537 0.0
C291 C 0.8293 0.25852 0.61415 0.0
C292 C 0.80873 0.26027 0.57819 0.0
C293 C 0.79613 0.26148 0.42526 0.0
H294 H 0.79814 0.24751 0.38175 0.0
H295 H 0.77907 0.26167 0.44941 0.0
H296 H 0.79929 0.27681 0.39005 0.0
O297 O 0.87197 0.28388 0.38792 0.0
O298 O 0.88969 0.27906 0.50697 0.0
H299 H 0.82154 0.27361 0.73156 0.0
H300 H 0.83408 0.24719 0.73841 0.0
C301 C 0.83426 0.26285 0.70364 0.0
H302 H 0.85039 0.27101 0.7104 0.0
H303 H 0.90199 0.28035 0.67434 0.0
O304 O 0.83475 0.26035 0.28153 0.0
C305 C 0.88648 0.2898 0.44035 0.0
Co306 Co 0.66047 0.75292 0.91574 0.0
Co307 Co 0.63532 0.74748 0.08247 0.0
C308 C 0.62795 0.78635 0.9711 0.0
O309 O 0.64213 0.7795 0.91954 0.0
O310 O 0.62377 0.77563 0.03692 0.0
C311 C 0.67756 0.77081 0.76803 0.0
O312 O 0.67158 0.78962 0.80094 0.0
C313 C 0.6289 0.76091 0.25133 0.0
C314 C 0.61779 0.73034 0.31166 0.0
C315 C 0.6247 0.75163 0.32784 0.0
N316 N 0.6251 0.74571 0.19283 0.0
N317 N 0.61772 0.72768 0.22881 0.0
C318 C 0.63984 0.78252 0.23479 0.0
H319 H 0.64777 0.78254 0.17294 0.0
H320 H 0.65226 0.78628 0.2832 0.0
H321 H 0.62724 0.79568 0.23627 0.0
C322 C 0.69913 0.74841 0.02626 0.0
N323 N 0.67731 0.74944 0.01274 0.0
N324 N 0.66681 0.74627 0.08305 0.0
C325 C 0.68179 0.74262 0.14333 0.0
C326 C 0.70259 0.74418 0.10957 0.0
C327 C 0.71612 0.75126 0.96035 0.0
H328 H 0.71499 0.73734 0.91608 0.0
H329 H 0.71273 0.76656 0.92524 0.0
H330 H 0.73293 0.75188 0.98703 0.0
O331 O 0.64065 0.72753 0.89883 0.0
O332 O 0.62291 0.72271 0.01747 0.0
H333 H 0.66204 0.72525 0.23189 0.0
H334 H 0.6907 0.72699 0.25876 0.0
C335 C 0.6767 0.73597 0.23052 0.0
H336 H 0.67372 0.75084 0.26846 0.0
H337 H 0.61445 0.71303 0.19751 0.0
O338 O 0.67818 0.75383 0.81368 0.0
C339 C 0.62671 0.71718 0.94266 0.0
Co340 Co 0.6562 0.24255 0.04045 0.0
Co341 Co 0.63339 0.24676 0.86943 0.0
C342 C 0.62462 0.2085 0.98045 0.0
O343 O 0.63762 0.21642 0.03416 0.0
O344 O 0.62157 0.21819 0.91152 0.0
C345 C 0.67405 0.22145 0.18106 0.0
O346 O 0.67096 0.20339 0.13796 0.0
C347 C 0.63003 0.23716 0.69448 0.0
C348 C 0.61488 0.26767 0.64734 0.0
C349 C 0.62538 0.24856 0.62205 0.0
N350 N 0.62363 0.24957 0.75885 0.0
N351 N 0.61376 0.26734 0.73045 0.0
C352 C 0.64303 0.2164 0.70392 0.0
H353 H 0.64902 0.21456 0.76853 0.0
H354 H 0.65709 0.21596 0.66034 0.0
H355 H 0.63224 0.20224 0.68914 0.0
C356 C 0.69633 0.2468 0.93858 0.0
N357 N 0.67437 0.24566 0.94686 0.0
N358 N 0.66496 0.24927 0.87468 0.0
C359 C 0.68081 0.2541 0.81886 0.0
C360 C 0.70125 0.25212 0.857 0.0
C361 C 0.71213 0.24376 0.00876 0.0
H362 H 0.70742 0.2547 0.06079 0.0
H363 H 0.71108 0.22658 0.03133 0.0
H364 H 0.72926 0.24748 0.98999 0.0
O365 O 0.63679 0.26859 0.05456 0.0
O366 O 0.62017 0.27114 0.93245 0.0
H367 H 0.66018 0.26882 0.72598 0.0
H368 H 0.68859 0.27364 0.71054 0.0
C369 C 0.67659 0.26125 0.73141 0.0
H370 H 0.6781 0.247 0.68919 0.0
H371 H 0.60802 0.28011 0.76773 0.0
O372 O 0.6726 0.23989 0.14455 0.0
C373 C 0.62319 0.27798 0.00611 0.0
Co374 Co 0.85348 0.76031 0.58246 0.0
Co375 Co 0.87655 0.75292 0.41328 0.0
C376 C 0.88669 0.79206 0.51959 0.0
O377 O 0.87318 0.78562 0.57415 0.0
O378 O 0.88937 0.78133 0.45262 0.0
C379 C 0.83757 0.78197 0.72522 0.0
O380 O 0.84224 0.80003 0.68435 0.0
C381 C 0.88046 0.7617 0.23822 0.0
C382 C 0.89443 0.73055 0.19189 0.0
C383 C 0.88482 0.75007 0.16599 0.0
N384 N 0.88624 0.74913 0.30295 0.0
N385 N 0.89537 0.73091 0.27509 0.0
C386 C 0.86824 0.78295 0.24718 0.0
H387 H 0.86243 0.78519 0.31179 0.0
H388 H 0.85409 0.78373 0.20394 0.0
H389 H 0.87948 0.79669 0.23173 0.0
C390 C 0.81349 0.75708 0.47807 0.0
N391 N 0.83545 0.75698 0.48816 0.0
N392 N 0.84494 0.75189 0.4175 0.0
C393 C 0.82911 0.74728 0.3612 0.0
C394 C 0.80866 0.751 0.39705 0.0
C395 C 0.79758 0.7621 0.54608 0.0
H396 H 0.80113 0.75141 0.60012 0.0
H397 H 0.79984 0.77938 0.56632 0.0
H398 H 0.78032 0.75951 0.52608 0.0
O399 O 0.87198 0.73381 0.60043 0.0
O400 O 0.88878 0.72869 0.47999 0.0
H401 H 0.82089 0.72676 0.25581 0.0
H402 H 0.83261 0.75264 0.2306 0.0
C403 C 0.83335 0.73888 0.27531 0.0
H404 H 0.84942 0.73055 0.27222 0.0
H405 H 0.90051 0.71796 0.31274 0.0
O406 O 0.83701 0.76385 0.68611 0.0
C407 C 0.88531 0.72314 0.55488 0.0
Co408 Co 0.50297 0.59457 0.82751 0.0
Co409 Co 0.50788 0.61978 0.66037 0.0
C410 C 0.46997 0.62792 0.77503 0.0
O411 O 0.47707 0.61374 0.82602 0.0
O412 O 0.48008 0.6318 0.70756 0.0
C413 C 0.48472 0.57771 0.97476 0.0
O414 O 0.46602 0.58378 0.94112 0.0
C415 C 0.49431 0.62683 0.49151 0.0
C416 C 0.52521 0.63702 0.43123 0.0
C417 C 0.50372 0.63075 0.41493 0.0
N418 N 0.50964 0.63012 0.55003 0.0
N419 N 0.52788 0.63699 0.51407 0.0
C420 C 0.47231 0.61669 0.50816 0.0
H421 H 0.47219 0.60841 0.56936 0.0
H422 H 0.46785 0.60475 0.45892 0.0
H423 H 0.4597 0.62984 0.50853 0.0
C424 C 0.50473 0.55599 0.71571 0.0
N425 N 0.50524 0.57779 0.72994 0.0
N426 N 0.50845 0.58825 0.65954 0.0
C427 C 0.51077 0.5732 0.5986 0.0
C428 C 0.50817 0.55246 0.63194 0.0
C429 C 0.5006 0.53911 0.78106 0.0
H430 H 0.51434 0.5394 0.82634 0.0
H431 H 0.48535 0.54333 0.81518 0.0
H432 H 0.49914 0.5224 0.75403 0.0
O433 O 0.52895 0.61367 0.84279 0.0
O434 O 0.53301 0.63179 0.72457 0.0
H435 H 0.52496 0.56373 0.4814 0.0
H436 H 0.5015 0.5813 0.4745 0.0
C437 C 0.51665 0.57803 0.51044 0.0
H438 H 0.52777 0.59237 0.50717 0.0
H439 H 0.54263 0.63978 0.54534 0.0
O440 O 0.50179 0.57688 0.92964 0.0
C441 C 0.53907 0.6277 0.79858 0.0
Co442 Co 0.01175 0.40126 0.30578 0.0
Co443 Co 0.01276 0.37856 0.13338 0.0
C444 C 0.04621 0.36781 0.26048 0.0
O445 O 0.03684 0.38076 0.311 0.0
O446 O 0.03914 0.3656 0.18673 0.0
C447 C 0.03126 0.4197 0.44753 0.0
O448 O 0.04948 0.41518 0.40749 0.0
C449 C 0.02778 0.37066 0.96502 0.0
C450 C 0.99639 0.36327 0.90228 0.0
C451 C 0.01838 0.36777 0.88757 0.0
N452 N 0.01189 0.36881 0.02222 0.0
N453 N 0.99335 0.36347 0.98471 0.0
C454 C 0.05073 0.37804 0.98388 0.0
H455 H 0.05135 0.3867 0.04442 0.0
H456 H 0.05716 0.38886 0.93416 0.0
H457 H 0.06151 0.36338 0.98755 0.0
C458 C 0.01099 0.44138 0.20204 0.0
N459 N 0.01234 0.41943 0.21099 0.0
N460 N 0.01249 0.41006 0.13745 0.0
C461 C 0.01102 0.4259 0.07902 0.0
C462 C 0.01005 0.44626 0.11803 0.0
C463 C 0.00912 0.45708 0.27306 0.0
H464 H 0.99712 0.45069 0.31876 0.0
H465 H 0.0253 0.45835 0.30452 0.0
H466 H 0.00388 0.47364 0.25222 0.0
O467 O 0.98447 0.38366 0.30871 0.0
O468 O 0.98585 0.36689 0.18666 0.0
H469 H 0.99861 0.40912 0.97201 0.0
H470 H 0.00808 0.43651 0.95007 0.0
C471 C 0.01115 0.42165 0.98753 0.0
H472 H 0.02753 0.41557 0.96938 0.0
H473 H 0.97825 0.36189 0.01471 0.0
O474 O 0.01299 0.41795 0.4099 0.0
C475 C 0.97643 0.37037 0.25585 0.0
Co476 Co 0.51275 0.39961 0.18314 0.0
Co477 Co 0.50807 0.37461 0.35087 0.0
C478 C 0.47384 0.37114 0.21801 0.0
O479 O 0.48509 0.38365 0.17189 0.0
O480 O 0.48027 0.36646 0.2911 0.0
C481 C 0.49856 0.42063 0.0378 0.0
O482 O 0.4793 0.41949 0.07422 0.0
C483 C 0.49118 0.37134 0.51847 0.0
C484 C 0.5183 0.35401 0.5815 0.0
C485 C 0.49903 0.36554 0.59607 0.0
N486 N 0.50555 0.36424 0.46129 0.0
N487 N 0.52127 0.35312 0.499 0.0
C488 C 0.47217 0.38613 0.49954 0.0
H489 H 0.47377 0.39328 0.43658 0.0
H490 H 0.47076 0.3994 0.54643 0.0
H491 H 0.45681 0.37633 0.50194 0.0
C492 C 0.51692 0.43791 0.29513 0.0
N493 N 0.51382 0.41632 0.28119 0.0
N494 N 0.51395 0.4057 0.35225 0.0
C495 C 0.51851 0.4202 0.41338 0.0
C496 C 0.52008 0.44105 0.3794 0.0
C497 C 0.51789 0.45487 0.22828 0.0
H498 H 0.53144 0.45078 0.18502 0.0
H499 H 0.50235 0.45449 0.19225 0.0
H500 H 0.52054 0.47157 0.25402 0.0
O501 O 0.53677 0.37763 0.18093 0.0
O502 O 0.53307 0.35909 0.29854 0.0
H503 H 0.52955 0.39767 0.50709 0.0
H504 H 0.53412 0.42597 0.53201 0.0
C505 C 0.52253 0.41437 0.50227 0.0
H506 H 0.5069 0.41535 0.53708 0.0
H507 H 0.53505 0.3467 0.46919 0.0
O508 O 0.51573 0.41688 0.08043 0.0
C509 C 0.54281 0.36235 0.22981 0.0
Co510 Co 0.00388 0.59372 0.63575 0.0
Co511 Co 0.00338 0.6189 0.80382 0.0
C512 C 0.04015 0.62433 0.68214 0.0
O513 O 0.03108 0.61099 0.63225 0.0
O514 O 0.03147 0.62877 0.75193 0.0
C515 C 0.02014 0.57426 0.48969 0.0
O516 O 0.03932 0.57779 0.5247 0.0
C517 C 0.01865 0.62374 0.97199 0.0
C518 C 0.98953 0.63766 0.03427 0.0
C519 C 0.01004 0.62855 0.04922 0.0
N520 N 0.00369 0.62919 0.91442 0.0
N521 N 0.98664 0.63828 0.95162 0.0
C522 C 0.03913 0.61097 0.95379 0.0
H523 H 0.03855 0.60392 0.89041 0.0
H524 H 0.04154 0.59768 -7e-05 0.0
H525 H 0.05345 0.62219 0.95815 0.0
C526 C 0.00043 0.55517 0.74723 0.0
N527 N 0.00181 0.57694 0.73338 0.0
N528 N 0.00021 0.58754 0.80426 0.0
C529 C 0.99692 0.57273 0.86526 0.0
C530 C 0.99745 0.55182 0.83151 0.0
C531 C 0.00246 0.5381 0.68098 0.0
H532 H 0.98688 0.53741 0.64531 0.0
H533 H 0.01578 0.54271 0.63748 0.0
H534 H 0.00589 0.52165 0.70759 0.0
O535 O 0.97895 0.61448 0.62626 0.0
O536 O 0.97838 0.63279 0.74516 0.0
H537 H 0.98143 0.59374 0.95503 0.0
H538 H 0.98032 0.56495 0.97959 0.0
C539 C 0.9907 0.57813 0.95269 0.0
H540 H 0.0057 0.5794 0.99127 0.0
H541 H 0.97227 0.64305 0.92126 0.0
O542 O 0.00286 0.57615 0.53321 0.0
C543 C 0.97068 0.62915 0.67302 0.0
H544 H 0.11488 0.20301 0.30985 0.0
H545 H 0.10507 0.18274 0.56344 0.0
H546 H 0.0797 0.15413 0.51784 0.0
H547 H 0.05793 0.13708 0.40787 0.0
H548 H 0.0655 0.15896 0.15507 0.0
H549 H 0.09426 0.18457 0.19832 0.0
C550 C 0.10744 0.1921 0.35494 0.0
C551 C 0.11179 0.19503 0.43989 0.0
C552 C 0.09235 0.17607 0.3285 0.0
C553 C 0.10187 0.18091 0.49772 0.0
C554 C 0.08736 0.16455 0.47172 0.0
C555 C 0.06609 0.14719 0.36192 0.0
C556 C 0.05951 0.14614 0.2784 0.0
C557 C 0.08212 0.16231 0.38752 0.0
C558 C 0.07016 0.15952 0.21986 0.0
C559 C 0.08659 0.1742 0.24455 0.0
H560 H 0.1111 0.80755 0.50674 0.0
H561 H 0.13183 0.79357 0.75725 0.0
H562 H 0.10614 0.82088 0.81029 0.0
H563 H 0.07573 0.84662 0.78643 0.0
H564 H 0.0556 0.86133 0.5359 0.0
H565 H 0.08319 0.83596 0.48214 0.0
C566 C 0.11015 0.81065 0.57287 0.0
C567 C 0.12321 0.79838 0.62789 0.0
C568 C 0.09535 0.82641 0.60309 0.0
C569 C 0.12199 0.80277 0.71339 0.0
C570 C 0.1072 0.81832 0.74392 0.0
C571 C 0.0775 0.84439 0.72005 0.0
C572 C 0.06347 0.85564 0.66534 0.0
C573 C 0.09348 0.82988 0.68947 0.0
C574 C 0.06617 0.85284 0.57942 0.0
C575 C 0.0819 0.83828 0.54857 0.0
H576 H 0.45952 0.85842 0.92715 0.0
H577 H 0.45077 0.83854 0.67229 0.0
H578 H 0.42263 0.81213 0.71473 0.0
H579 H 0.40212 0.79325 0.82543 0.0
H580 H 0.41295 0.81185 0.08049 0.0
H581 H 0.43859 0.84037 0.03652 0.0
C582 C 0.45133 0.8485 0.88056 0.0
C583 C 0.45726 0.85047 0.79661 0.0
C584 C 0.43558 0.83307 0.90553 0.0
C585 C 0.44658 0.83731 0.73735 0.0
C586 C 0.43048 0.82221 0.76158 0.0
C587 C 0.40987 0.80375 0.87124 0.0
C588 C 0.40563 0.80047 0.9561 0.0
C589 C 0.42507 0.81975 0.84566 0.0
C590 C 0.41601 0.81401 0.01484 0.0
C591 C 0.43068 0.8303 0.98977 0.0
H592 H 0.45625 0.14252 0.06453 0.0
H593 H 0.45019 0.15515 0.32679 0.0
H594 H 0.42105 0.18187 0.29952 0.0
H595 H 0.39871 0.20303 0.20042 0.0
H596 H 0.40699 0.19216 0.93797 0.0
H597 H 0.43374 0.16319 0.96608 0.0
C598 C 0.44841 0.15095 0.11586 0.0
C599 C 0.45534 0.14683 0.19757 0.0
C600 C 0.4321 0.16663 0.09961 0.0
C601 C 0.4452 0.15809 0.26329 0.0
C602 C 0.42853 0.17334 0.24775 0.0
C603 C 0.40617 0.1941 0.14951 0.0
C604 C 0.40085 0.19964 0.06728 0.0
C605 C 0.42203 0.17793 0.16608 0.0
C606 C 0.41086 0.1882 0.00179 0.0
C607 C 0.42616 0.17166 0.0178 0.0
H608 H 0.89505 0.80883 0.6717 0.0
H609 H 0.91179 0.8167 0.41343 0.0
H610 H 0.93934 0.84434 0.45065 0.0
H611 H 0.96083 0.8636 0.5575 0.0
H612 H 0.9461 0.85292 0.81605 0.0
H613 H 0.91541 0.82906 0.77763 0.0
C614 C 0.90446 0.81682 0.62323 0.0
C615 C 0.90138 0.8107 0.5398 0.0
C616 C 0.92074 0.83203 0.6453 0.0
C617 C 0.91389 0.82107 0.47806 0.0
C618 C 0.92967 0.83683 0.49936 0.0
C619 C 0.9507 0.85629 0.60544 0.0
C620 C 0.95574 0.85997 0.68957 0.0
C621 C 0.93357 0.84204 0.58293 0.0
C622 C 0.94262 0.85023 0.75095 0.0
C623 C 0.92509 0.8366 0.729 0.0
H624 H 0.90798 0.18973 0.49315 0.0
H625 H 0.88599 0.21133 0.25198 0.0
H626 H 0.91041 0.18509 0.18536 0.0
H627 H 0.94037 0.15809 0.19491 0.0
H628 H 0.96141 0.13568 0.43626 0.0
H629 H 0.93501 0.15991 0.50262 0.0
C630 C 0.90835 0.18853 0.42608 0.0
C631 C 0.89538 0.20272 0.37796 0.0
C632 C 0.92243 0.17332 0.38775 0.0
C633 C 0.89587 0.20072 0.29093 0.0
C634 C 0.90992 0.18575 0.25248 0.0
C635 C 0.93902 0.15837 0.26194 0.0
C636 C 0.95309 0.14529 0.31022 0.0
C637 C 0.92365 0.17231 0.3002 0.0
C638 C 0.9509 0.14564 0.39719 0.0
C639 C 0.93582 0.15956 0.43551 0.0
H640 H 0.55184 0.13694 0.044 0.0
H641 H 0.57741 0.14327 0.29271 0.0
H642 H 0.60674 0.16708 0.24211 0.0
H643 H 0.62265 0.1889 0.13094 0.0
H644 H 0.59561 0.18515 0.88366 0.0
H645 H 0.56945 0.15719 0.93 0.0
C646 C 0.56403 0.14325 0.08695 0.0
C647 C 0.56236 0.13845 0.17216 0.0
C648 C 0.58047 0.15747 0.05782 0.0
C649 C 0.57822 0.14685 0.22701 0.0
C650 C 0.59499 0.16047 0.19813 0.0
C651 C 0.61128 0.1818 0.08655 0.0
C652 C 0.611 0.18929 0.00394 0.0
C653 C 0.5959 0.16633 0.11413 0.0
C654 C 0.59612 0.1798 0.94764 0.0
C655 C 0.58111 0.16386 0.97419 0.0
H656 H 0.55641 0.85979 0.92208 0.0
H657 H 0.57667 0.85169 0.66748 0.0
H658 H 0.60617 0.82708 0.71131 0.0
H659 H 0.62358 0.80504 0.81957 0.0
H660 H 0.60149 0.81075 0.07292 0.0
H661 H 0.57543 0.83934 0.03195 0.0
C662 C 0.56751 0.85294 0.87629 0.0
C663 C 0.56429 0.85747 0.79157 0.0
C664 C 0.58397 0.83825 0.90164 0.0
C665 C 0.57872 0.84834 0.73299 0.0
C666 C 0.59556 0.83425 0.75799 0.0
C667 C 0.61335 0.81278 0.86624 0.0
C668 C 0.61441 0.80568 0.94918 0.0
C669 C 0.59796 0.82865 0.84185 0.0
C670 C 0.6009 0.81581 0.00859 0.0
C671 C 0.58598 0.83213 0.98518 0.0
H672 H 0.60188 0.68588 0.01882 0.0
H673 H 0.62192 0.70895 0.77745 0.0
H674 H 0.59757 0.68243 0.7112 0.0
H675 H 0.56865 0.65443 0.72161 0.0
H676 H 0.54926 0.63075 0.96294 0.0
H677 H 0.57539 0.65555 0.02885 0.0
C678 C 0.60105 0.68499 0.95174 0.0
C679 C 0.61356 0.69954 0.90337 0.0
C680 C 0.58706 0.66961 0.91378 0.0
C681 C 0.61247 0.69798 0.8164 0.0
C682 C 0.59847 0.68285 0.77829 0.0
C683 C 0.57028 0.65454 0.78857 0.0
C684 C 0.55683 0.64088 0.83708 0.0
C685 C 0.5854 0.66885 0.82635 0.0
C686 C 0.55936 0.64109 0.92384 0.0
C687 C 0.57425 0.65535 0.9618 0.0
H688 H 0.55865 0.35666 0.07431 0.0
H689 H 0.5663 0.3336 0.32566 0.0
H690 H 0.59331 0.30652 0.27935 0.0
H691 H 0.61298 0.2879 0.16601 0.0
H692 H 0.60323 0.30965 0.91404 0.0
H693 H 0.57891 0.33884 0.96222 0.0
C694 C 0.5664 0.3459 0.11924 0.0
C695 C 0.56045 0.34716 0.20332 0.0
C696 C 0.58146 0.33005 0.09197 0.0
C697 C 0.57052 0.33293 0.2605 0.0
C698 C 0.58596 0.31743 0.23407 0.0
C699 C 0.60573 0.2992 0.12181 0.0
C700 C 0.60988 0.2966 0.03658 0.0
C701 C 0.5913 0.31562 0.14975 0.0
C702 C 0.60019 0.31123 0.97994 0.0
C703 C 0.58629 0.32792 0.00741 0.0
H704 H 0.96065 0.36134 0.40941 0.0
H705 H 0.94787 0.35042 0.14941 0.0
H706 H 0.91714 0.32633 0.18416 0.0
H707 H 0.896 0.30598 0.28805 0.0
H708 H 0.91064 0.31465 0.54783 0.0
H709 H 0.93841 0.34218 0.51357 0.0
C710 C 0.95094 0.35394 0.36036 0.0
C711 C 0.95656 0.3576 0.27699 0.0
C712 C 0.9337 0.33961 0.38078 0.0
C713 C 0.94395 0.34773 0.21411 0.0
C714 C 0.92638 0.33396 0.23391 0.0
C715 C 0.905 0.31416 0.33725 0.0
C716 C 0.90129 0.30828 0.42032 0.0
C717 C 0.92141 0.32943 0.31699 0.0
C718 C 0.91328 0.31883 0.48334 0.0
C719 C 0.92917 0.33455 0.46381 0.0
H720 H 0.90675 0.69071 0.47248 0.0
H721 H 0.89266 0.71454 0.7188 0.0
H722 H 0.91695 0.6867 0.77792 0.0
H723 H 0.94422 0.65729 0.75878 0.0
H724 H 0.9575 0.63309 0.51213 0.0
H725 H 0.93137 0.65924 0.45439 0.0
C726 C 0.90886 0.68971 0.53916 0.0
C727 C 0.89811 0.70483 0.59102 0.0
C728 C 0.92277 0.67364 0.57277 0.0
C729 C 0.90077 0.70312 0.67739 0.0
C730 C 0.91473 0.68726 0.71128 0.0
C731 C 0.94126 0.65761 0.69248 0.0
C732 C 0.953 0.64338 0.63992 0.0
C733 C 0.92613 0.67269 0.65944 0.0
C734 C 0.94875 0.64385 0.55419 0.0
C735 C 0.93385 0.65887 0.52092 0.0
H736 H 0.40613 0.31872 -0.00052 0.0
H737 H 0.38562 0.29589 0.24068 0.0
H738 H 0.41121 0.3211 0.30716 0.0
H739 H 0.44231 0.34682 0.29667 0.0
H740 H 0.46189 0.37039 0.05528 0.0
H741 H 0.43374 0.34797 0.98992 0.0
C742 C 0.40704 0.31948 0.06657 0.0
C743 C 0.39423 0.30514 0.11466 0.0
C744 C 0.42181 0.33406 0.1048 0.0
C745 C 0.39539 0.3066 0.20175 0.0
C746 C 0.41011 0.32097 0.2401 0.0
C747 C 0.44022 0.34727 0.22992 0.0
C748 C 0.45448 0.36001 0.18121 0.0
C749 C 0.42387 0.33433 0.1922 0.0
C750 C 0.4513 0.36063 0.09468 0.0
C751 C 0.43521 0.34773 0.05689 0.0
H752 H 0.39662 0.69917 0.83089 0.0
H753 H 0.4099 0.68245 0.08614 0.0
H754 H 0.43436 0.65292 0.04111 0.0
H755 H 0.45441 0.6343 0.93022 0.0
H756 H 0.44366 0.65312 0.6754 0.0
H757 H 0.41549 0.67933 0.71937 0.0
C758 C 0.40461 0.68886 0.87674 0.0
C759 C 0.40152 0.69303 0.96181 0.0
C760 C 0.41917 0.67243 0.85045 0.0
C761 C 0.41212 0.67965 0.02036 0.0
C762 C 0.42611 0.66279 0.99464 0.0
C763 C 0.44568 0.64387 0.88403 0.0
C764 C 0.45114 0.6418 0.7996 0.0
C765 C 0.43012 0.65938 0.90996 0.0
C766 C 0.43981 0.65449 0.74075 0.0
C767 C 0.42375 0.66949 0.76589 0.0
H768 H 0.11198 0.68069 0.50036 0.0
H769 H 0.12666 0.6997 0.75218 0.0
H770 H 0.09952 0.67355 0.80373 0.0
H771 H 0.06911 0.64782 0.77638 0.0
H772 H 0.05543 0.62813 0.52427 0.0
H773 H 0.08475 0.65183 0.47417 0.0
C774 C 0.10941 0.67893 0.56653 0.0
C775 C 0.12108 0.69233 0.62215 0.0
C776 C 0.09383 0.66383 0.59584 0.0
C777 C 0.11784 0.68961 0.70789 0.0
C778 C 0.10223 0.67474 0.7375 0.0
C779 C 0.07272 0.64854 0.71061 0.0
C780 C 0.05987 0.63646 0.65425 0.0
C781 C 0.08973 0.66216 0.68192 0.0
C782 C 0.06497 0.63732 0.56921 0.0
C783 C 0.08171 0.65094 0.54027 0.0
H784 H 0.12119 0.29927 0.33057 0.0
H785 H 0.09978 0.31 0.58252 0.0
H786 H 0.07466 0.33879 0.53484 0.0
H787 H 0.05677 0.35859 0.42041 0.0
H788 H 0.07647 0.34553 0.16802 0.0
H789 H 0.10447 0.31993 0.21747 0.0
C790 C 0.11125 0.30804 0.37551 0.0
C791 C 0.11233 0.30241 0.46014 0.0
C792 C 0.09645 0.32401 0.34743 0.0
C793 C 0.09922 0.31394 0.51708 0.0
C794 C 0.08483 0.33036 0.4898 0.0
C795 C 0.06736 0.35034 0.37619 0.0
C796 C 0.06448 0.3539 0.29051 0.0
C797 C 0.08299 0.33519 0.40492 0.0
C798 C 0.07825 0.34298 0.23414 0.0
C799 C 0.09425 0.32834 0.26239 0.0
H800 H 0.03859 0.02807 0.08301 0.0
H801 H 0.97059 0.0408 0.02748 0.0
H802 H 0.96904 0.00808 0.93906 0.0
H803 H 0.98717 0.97573 0.87805 0.0
H804 H 0.05545 0.96342 0.93004 0.0
H805 H 0.05707 0.99619 0.01838 0.0
C806 C 0.02344 0.02338 0.0522 0.0
C807 C 0.00458 0.03629 0.06248 0.0
C808 C 0.02288 0.00488 0.00013 0.0
C809 C 0.98512 0.03066 0.02109 0.0
C810 C 0.9843 0.01213 0.97023 0.0
C811 C 0.00242 0.98049 0.90803 0.0
C812 C 0.02116 0.9674 0.89818 0.0
C813 C 0.0031 0.99917 0.95901 0.0
C814 C 0.04086 0.97343 0.93729 0.0
C815 C 0.04174 0.99203 0.98796 0.0
H816 H 0.30265 0.72852 0.26676 0.0
H817 H 0.27898 0.77919 0.10319 0.0
H818 H 0.245 0.78201 0.18424 0.0
H819 H 0.22248 0.77037 0.3034 0.0
H820 H 0.24571 0.71854 0.46291 0.0
H821 H 0.27992 0.7164 0.3838 0.0
C822 C 0.29001 0.74018 0.24909 0.0
C823 C 0.29315 0.75363 0.1794 0.0
C824 C 0.27071 0.7417 0.29599 0.0
C825 C 0.2767 0.76853 0.15622 0.0
C826 C 0.25742 0.77025 0.20287 0.0
C827 C 0.23502 0.75854 0.32034 0.0
C828 C 0.23165 0.7446 0.38863 0.0
C829 C 0.2543 0.75697 0.27306 0.0
C830 C 0.24809 0.72957 0.41103 0.0
C831 C 0.26752 0.72821 0.36541 0.0
H832 H 0.49158 0.04312 0.50603 0.0
H833 H 0.49915 0.00922 0.27215 0.0
H834 H 0.49349 0.97443 0.34183 0.0
H835 H 0.48966 0.95353 0.47095 0.0
H836 H 0.50288 0.98717 0.70193 0.0
H837 H 0.49714 0.02211 0.6337 0.0
C838 C 0.49326 0.02832 0.46964 0.0
C839 C 0.49617 0.02941 0.38296 0.0
C840 C 0.49356 0.0081 0.51108 0.0
C841 C 0.49628 0.00955 0.33805 0.0
C842 C 0.49349 0.9894 0.37831 0.0
C843 C 0.49253 0.96827 0.50669 0.0
C844 C 0.49698 0.96708 0.59248 0.0
C845 C 0.49278 0.98848 0.4651 0.0
C846 C 0.49871 0.98693 0.637 0.0
C847 C 0.49589 0.00716 0.59744 0.0
H848 H 0.29008 0.27197 0.7974 0.0
H849 H 0.28055 0.21046 0.92393 0.0
H850 H 0.24801 0.20285 0.83839 0.0
H851 H 0.22304 0.21355 0.72506 0.0
H852 H 0.23032 0.27707 0.61024 0.0
H853 H 0.26385 0.28358 0.69004 0.0
C854 C 0.28067 0.25702 0.80652 0.0
C855 C 0.28737 0.24185 0.86691 0.0
C856 C 0.26199 0.25296 0.75797 0.0
C857 C 0.27535 0.22246 0.87841 0.0
C858 C 0.25693 0.21806 0.82911 0.0
C859 C 0.23152 0.22909 0.71933 0.0
C860 C 0.22391 0.245 0.66305 0.0
C861 C 0.25012 0.2332 0.76861 0.0
C862 C 0.23594 0.26449 0.65274 0.0
C863 C 0.25496 0.26834 0.69901 0.0
H864 H 0.72056 0.28392 0.76199 0.0
H865 H 0.73105 0.2192 0.86264 0.0
H866 H 0.76565 0.21622 0.78654 0.0
H867 H 0.79189 0.23125 0.6856 0.0
H868 H 0.77928 0.29395 0.57185 0.0
H869 H 0.74577 0.29814 0.65512 0.0
C870 C 0.73008 0.26892 0.76534 0.0
C871 C 0.72302 0.25158 0.81622 0.0
C872 C 0.74932 0.26687 0.71802 0.0
C873 C 0.73621 0.23278 0.82391 0.0
C874 C 0.75585 0.23098 0.77985 0.0
C875 C 0.78163 0.24572 0.67885 0.0
C876 C 0.78771 0.26221 0.62273 0.0
C877 C 0.76236 0.24776 0.72572 0.0
C878 C 0.77457 0.28098 0.61417 0.0
C879 C 0.75559 0.28341 0.66212 0.0
H880 H 0.7206 0.77437 0.21019 0.0
H881 H 0.73024 0.70926 0.11271 0.0
H882 H 0.76293 0.70458 0.20037 0.0
H883 H 0.78813 0.71899 0.30693 0.0
H884 H 0.78084 0.78569 0.39232 0.0
H885 H 0.74711 0.78953 0.3109 0.0
C886 C 0.73013 0.75932 0.20767 0.0
C887 C 0.72346 0.74225 0.15496 0.0
C888 C 0.74892 0.75694 0.25733 0.0
C889 C 0.73549 0.72265 0.15229 0.0
C890 C 0.75398 0.71996 0.20276 0.0
C891 C 0.7795 0.73455 0.30588 0.0
C892 C 0.7872 0.7522 0.35396 0.0
C893 C 0.76082 0.73699 0.2556 0.0
C894 C 0.77515 0.77185 0.35586 0.0
C895 C 0.75602 0.77413 0.3087 0.0
H896 H 0.53963 0.52142 0.61528 0.0
H897 H 0.47391 0.53846 0.54034 0.0
H898 H 0.47211 0.50588 0.45123 0.0
H899 H 0.48934 0.47243 0.3952 0.0
H900 H 0.55543 0.45578 0.46668 0.0
H901 H 0.55729 0.48836 0.55594 0.0
C902 C 0.5249 0.51771 0.58003 0.0
C903 C 0.50675 0.53181 0.58493 0.0
C904 C 0.52421 0.49924 0.52782 0.0
C905 C 0.48786 0.52742 0.538 0.0
C906 C 0.48691 0.50896 0.4868 0.0
C907 C 0.50418 0.47618 0.42972 0.0
C908 C 0.52219 0.4619 0.42516 0.0
C909 C 0.50501 0.4948 0.48099 0.0
C910 C 0.54137 0.46665 0.47004 0.0
C911 C 0.54239 0.48518 0.5211 0.0
H912 H 0.02297 0.53997 0.95997 0.0
H913 H 0.96955 0.51737 0.80665 0.0
H914 H 0.96726 0.48337 0.88788 0.0
H915 H 0.98086 0.46011 0.00191 0.0
H916 H 0.03655 0.48138 0.14636 0.0
H917 H 0.03698 0.51646 0.07212 0.0
C918 C 0.01084 0.52755 0.94467 0.0
C919 C 0.99647 0.53095 0.87774 0.0
C920 C 0.00987 0.50808 0.99082 0.0
C921 C 0.98087 0.51485 0.85762 0.0
C922 C 0.9795 0.49556 0.9043 0.0
C923 C 0.99321 0.47238 0.01639 0.0
C924 C 0.00889 0.46813 0.07834 0.0
C925 C 0.99397 0.49199 0.97082 0.0
C926 C 0.02435 0.48436 0.09874 0.0
C927 C 0.02471 0.50428 0.05587 0.0
H928 H 0.01987 0.10603 0.80524 0.0
H929 H 0.95681 0.13814 0.80438 0.0
H930 H 0.94787 0.12075 0.67087 0.0
H931 H 0.95983 0.09938 0.54939 0.0
H932 H 0.02357 0.06826 0.55055 0.0
H933 H 0.03021 0.08173 0.69101 0.0
C934 C 0.00417 0.1092 0.7756 0.0
C935 C 0.98917 0.12368 0.81272 0.0
C936 C 0.99923 0.0991 0.69995 0.0
C937 C 0.96865 0.12726 0.77565 0.0
C938 C 0.96357 0.11727 0.69982 0.0
C939 C 0.97491 0.095 0.58121 0.0
C940 C 0.99127 0.08293 0.53953 0.0
C941 C 0.97893 0.10348 0.66072 0.0
C942 C 0.01079 0.07756 0.58137 0.0
C943 C 0.01466 0.08543 0.66126 0.0
H944 H 0.1253 0.76176 0.07318 0.0
H945 H 0.15099 0.7028 0.1866 0.0
H946 H 0.16847 0.69263 0.05814 0.0
H947 H 0.18051 0.7025 0.91731 0.0
H948 H 0.15992 0.76451 0.81351 0.0
H949 H 0.13739 0.77177 0.93472 0.0
C950 C 0.13442 0.74647 0.0697 0.0
C951 C 0.13613 0.73296 0.14006 0.0
C952 C 0.14618 0.74159 -0.00247 0.0
C953 C 0.14825 0.71329 0.1339 0.0
C954 C 0.15889 0.70763 0.06031 0.0
C955 C 0.17112 0.7176 0.92163 0.0
C956 C 0.17208 0.73299 0.85705 0.0
C957 C 0.15858 0.722 0.99268 0.0
C958 C 0.15979 0.75251 0.86297 0.0
C959 C 0.14671 0.75661 0.93197 0.0
H960 H 0.51725 0.87905 0.01538 0.0
H961 H 0.54033 0.94268 0.09348 0.0
H962 H 0.54081 0.9302 0.23862 0.0
H963 H 0.53054 0.90231 0.34255 0.0
H964 H 0.50605 0.83932 0.26248 0.0
H965 H 0.51057 0.8502 0.11745 0.0
C966 C 0.5225 0.89009 0.06445 0.0
C967 C 0.5283 0.9118 0.04529 0.0
C968 C 0.52263 0.88282 0.14649 0.0
C969 C 0.53555 0.92598 0.10795 0.0
C970 C 0.53583 0.91882 0.19041 0.0
C971 C 0.52702 0.89072 0.29321 0.0
C972 C 0.51842 0.8699 0.31234 0.0
C973 C 0.52894 0.89741 0.21042 0.0
C974 C 0.51303 0.85527 0.24844 0.0
C975 C 0.51542 0.86156 0.16591 0.0
H976 H 0.34594 0.2965 0.34852 0.0
H977 H 0.3206 0.23027 0.35238 0.0
H978 H 0.33401 0.22556 0.49399 0.0
H979 H 0.3572 0.23845 0.60799 0.0
H980 H 0.38372 0.30404 0.60426 0.0
H981 H 0.36573 0.3109 0.47014 0.0
C982 C 0.34276 0.28126 0.38119 0.0
C983 C 0.33241 0.26367 0.33999 0.0
C984 C 0.35127 0.27841 0.46132 0.0
C985 C 0.32858 0.24398 0.38287 0.0
C986 C 0.33642 0.24123 0.46342 0.0
C987 C 0.35896 0.25426 0.57765 0.0
C988 C 0.37211 0.27059 0.61393 0.0
C989 C 0.34858 0.25798 0.50162 0.0
C990 C 0.3739 0.29121 0.57606 0.0
C991 C 0.36358 0.2951 0.4999 0.0
H992 H 0.96593 0.90123 0.41117 0.0
H993 H 0.027 0.93724 0.41953 0.0
H994 H 0.03627 0.9241 0.2808 0.0
H995 H 0.02913 0.8988 0.16572 0.0
H996 H 0.96866 0.86211 0.15739 0.0
H997 H 0.95704 0.87882 0.28894 0.0
C998 C 0.98095 0.90675 0.38167 0.0
C999 C 0.99585 0.92009 0.42555 0.0
C1000 C 0.98655 0.89844 0.30342 0.0
C1001 C 0.01533 0.92695 0.38682 0.0
C1002 C 0.02074 0.91925 0.30804 0.0
C1003 C 0.01346 0.89445 0.19319 0.0
C1004 C -5e-05 0.8789 0.15417 0.0
C1005 C 0.0069 0.90429 0.26749 0.0
C1006 C 0.97938 0.87379 0.18799 0.0
C1007 C 0.97274 0.88342 0.26254 0.0
H1008 H 0.35827 0.70219 0.69441 0.0
H1009 H 0.32321 0.76381 0.69806 0.0
H1010 H 0.33605 0.77194 0.55799 0.0
H1011 H 0.36124 0.76387 0.44374 0.0
H1012 H 0.39718 0.70294 0.44029 0.0
H1013 H 0.38026 0.69219 0.57246 0.0
C1014 C 0.35286 0.71707 0.66358 0.0
C1015 C 0.33992 0.73248 0.70646 0.0
C1016 C 0.36105 0.72203 0.58461 0.0
C1017 C 0.3332 0.75177 0.66609 0.0
C1018 C 0.34073 0.75652 0.58654 0.0
C1019 C 0.36533 0.74825 0.47229 0.0
C1020 C 0.38078 0.7344 0.43465 0.0
C1021 C 0.35542 0.74223 0.547 0.0
C1022 C 0.38558 0.71393 0.46985 0.0
C1023 C 0.37583 0.70779 0.54476 0.0
H1024 H 0.53019 0.09216 0.63559 0.0
H1025 H 0.51226 0.15752 0.7127 0.0
H1026 H 0.51543 0.14664 0.85826 0.0
H1027 H 0.51813 0.11736 0.96129 0.0
H1028 H 0.53407 0.05138 0.88603 0.0
H1029 H 0.53687 0.0635 0.74085 0.0
C1030 C 0.52783 0.10416 0.68446 0.0
C1031 C 0.52138 0.12568 0.66436 0.0
C1032 C 0.52873 0.09748 0.76755 0.0
C1033 C 0.51756 0.14099 0.72754 0.0
C1034 C 0.51914 0.1347 0.81038 0.0
C1035 C 0.52239 0.10572 0.91286 0.0
C1036 C 0.52546 0.08351 0.93275 0.0
C1037 C 0.52383 0.11281 0.83075 0.0
C1038 C 0.5314 0.0685 0.87095 0.0
C1039 C 0.53301 0.07546 0.78847 0.0
H1040 H 0.1344 0.28249 0.93986 0.0
H1041 H 0.14306 0.2121 0.93967 0.0
H1042 H 0.16305 0.21416 0.06981 0.0
H1043 H 0.17604 0.23532 0.18726 0.0
H1044 H 0.16626 0.30553 0.19379 0.0
H1045 H 0.14995 0.30431 0.05533 0.0
C1046 C 0.14085 0.26768 0.96809 0.0
C1047 C 0.13708 0.24719 0.93057 0.0
C1048 C 0.1525 0.26896 0.0432 0.0
C1049 C 0.14534 0.22806 0.96812 0.0
C1050 C 0.15703 0.22921 0.04206 0.0
C1051 C 0.17073 0.25046 0.15799 0.0
C1052 C 0.1721 0.27041 0.20137 0.0
C1053 C 0.16048 0.24952 0.08051 0.0
C1054 C 0.16536 0.28989 0.16191 0.0
C1055 C 0.15576 0.28918 0.08313 0.0
H1056 H 0.84825 0.21097 0.14255 0.0
H1057 H 0.82067 0.2763 0.13822 0.0
H1058 H 0.83396 0.28144 -0.00323 0.0
H1059 H 0.85757 0.26933 0.88307 0.0
H1060 H 0.88636 0.20472 0.88734 0.0
H1061 H 0.86858 0.19726 0.02126 0.0
C1062 C 0.84456 0.22609 0.1098 0.0
C1063 C 0.8336 0.24332 0.15081 0.0
C1064 C 0.853 0.22923 0.02979 0.0
C1065 C 0.82913 0.26286 0.10786 0.0
C1066 C 0.8369 0.26588 0.02741 0.0
C1067 C 0.85988 0.2536 0.91348 0.0
C1068 C 0.87359 0.23774 0.87739 0.0
C1069 C 0.84962 0.24954 0.9894 0.0
C1070 C 0.87609 0.2172 0.91537 0.0
C1071 C 0.86589 0.21297 0.99142 0.0
H1072 H 0.65447 0.79621 0.66093 0.0
H1073 H 0.69319 0.73692 0.67509 0.0
H1074 H 0.68011 0.72585 0.53808 0.0
H1075 H 0.65465 0.73112 0.4218 0.0
H1076 H 0.61555 0.78996 0.40763 0.0
H1077 H 0.63149 0.80306 0.53856 0.0
C1078 C 0.66054 0.78116 0.63317 0.0
C1079 C 0.6747 0.76732 0.67822 0.0
C1080 C 0.65234 0.77454 0.55583 0.0
C1081 C 0.68226 0.7478 0.64156 0.0
C1082 C 0.67461 0.74136 0.56373 0.0
C1083 C 0.64956 0.74673 0.44799 0.0
C1084 C 0.63362 0.75939 0.40723 0.0
C1085 C 0.65903 0.75419 0.52192 0.0
C1086 C 0.62755 0.77988 0.43949 0.0
C1087 C 0.63676 0.78738 0.51367 0.0
H1088 H 0.63241 0.21096 0.53283 0.0
H1089 H 0.64416 0.2809 0.53242 0.0
H1090 H 0.6641 0.27787 0.40256 0.0
H1091 H 0.67606 0.25606 0.28531 0.0
H1092 H 0.66317 0.18634 0.27955 0.0
H1093 H 0.6471 0.18837 0.41811 0.0
C1094 C 0.63954 0.22544 0.50456 0.0
C1095 C 0.63666 0.24611 0.54174 0.0
C1096 C 0.65116 0.22359 0.42972 0.0
C1097 C 0.64577 0.26483 0.50416 0.0
C1098 C 0.65742 0.26311 0.43043 0.0
C1099 C 0.67012 0.24119 0.31482 0.0
C1100 C 0.67051 0.22117 0.27158 0.0
C1101 C 0.65999 0.24264 0.39227 0.0
C1102 C 0.66303 0.20202 0.31132 0.0
C1103 C 0.65355 0.20321 0.39012 0.0
H1104 H 0.87918 0.78841 0.07963 0.0
H1105 H 0.86671 0.71863 0.0693 0.0
H1106 H 0.84763 0.72302 0.93795 0.0
H1107 H 0.83599 0.74609 0.82362 0.0
H1108 H 0.84914 0.81577 0.82915 0.0
H1109 H 0.86514 0.81217 0.9675 0.0
C1110 C 0.87203 0.77424 0.04911 0.0
C1111 C 0.87438 0.75325 0.08422 0.0
C1112 C 0.8608 0.77689 0.97367 0.0
C1113 C 0.86544 0.73496 0.04305 0.0
C1114 C 0.85427 0.73745 0.96839 0.0
C1115 C 0.84198 0.76061 0.85545 0.0
C1116 C 0.8416 0.78111 0.81552 0.0
C1117 C 0.85198 0.75829 0.93299 0.0
C1118 C 0.84926 0.79975 0.85829 0.0
C1119 C 0.85868 0.79767 0.93701 0.0
H1120 H 0.52377 0.60019 0.32254 0.0
H1121 H 0.46573 0.64055 0.33341 0.0
H1122 H 0.45273 0.62478 0.202 0.0
H1123 H 0.45951 0.60155 0.08017 0.0
H1124 H 0.51806 0.56163 0.06943 0.0
H1125 H 0.52894 0.5746 0.20682 0.0
C1126 C 0.50835 0.60559 0.29559 0.0
C1127 C 0.4959 0.62182 0.33558 0.0
C1128 C 0.50095 0.59623 0.22137 0.0
C1129 C 0.47565 0.6283 0.30224 0.0
C1130 C 0.4682 0.6192 0.22775 0.0
C1131 C 0.47434 0.5952 0.10877 0.0
C1132 C 0.48803 0.5807 0.06462 0.0
C1133 C 0.48086 0.60332 0.18636 0.0
C1134 C 0.50729 0.5728 0.10228 0.0
C1135 C 0.51362 0.58038 0.18034 0.0
H1136 H 0.00056 0.40168 0.80732 0.0
H1137 H 0.05452 0.35599 0.79741 0.0
H1138 H 0.06614 0.3715 0.66371 0.0
H1139 H 0.05795 0.39511 0.54377 0.0
H1140 H 0.0026 0.43932 0.55274 0.0
H1141 H 0.99487 0.42796 0.69504 0.0
C1142 C 0.0149 0.39519 0.77577 0.0
C1143 C 0.02643 0.37744 0.81007 0.0
C1144 C 0.02132 0.40416 0.69994 0.0
C1145 C 0.0453 0.36945 0.77064 0.0
C1146 C 0.05193 0.37837 0.69477 0.0
C1147 C 0.04467 0.4028 0.57793 0.0
C1148 C 0.03081 0.41803 0.53829 0.0
C1149 C 0.03973 0.3954 0.65804 0.0
C1150 C 0.01345 0.42762 0.58249 0.0
C1151 C 0.00891 0.42094 0.66327 0.0
H1152 H 0.52679 0.39039 0.68431 0.0
H1153 H 0.46005 0.36684 0.67991 0.0
H1154 H 0.4528 0.3853 0.8127 0.0
H1155 H 0.46677 0.40513 0.93491 0.0
H1156 H 0.53398 0.42784 0.93877 0.0
H1157 H 0.53959 0.41332 0.79926 0.0
C1158 C 0.51067 0.3893 0.71272 0.0
C1159 C 0.49408 0.37691 0.67431 0.0
C1160 C 0.50669 0.40005 0.78788 0.0
C1161 C 0.47308 0.37606 0.7097 0.0
C1162 C 0.46896 0.38667 0.7851 0.0
C1163 C 0.48246 0.40746 0.90439 0.0
C1164 C 0.50001 0.41743 0.94729 0.0
C1165 C 0.48579 0.39839 0.82539 0.0
C1166 C 0.52027 0.42018 0.90705 0.0
C1167 C 0.52354 0.4117 0.82769 0.0
H1168 H 0.04909 0.59347 0.38462 0.0
H1169 H 0.98546 0.56221 0.39331 0.0
H1170 H 0.97708 0.57598 0.25468 0.0
H1171 H 0.98601 0.60058 0.1395 0.0
H1172 H 0.04913 0.63252 0.13067 0.0
H1173 H 0.05956 0.61504 0.26217 0.0
C1174 C 0.03365 0.58912 0.35529 0.0
C1175 C 0.01782 0.57697 0.39931 0.0
C1176 C 0.02864 0.59778 0.27698 0.0
C1177 C 0.99784 0.5716 0.36063 0.0
C1178 C 0.99296 0.57965 0.28185 0.0
C1179 C 0.00201 0.60374 0.16681 0.0
C1180 C 0.01664 0.61819 0.12758 0.0
C1181 C 0.00786 0.59348 0.24116 0.0
C1182 C 0.03757 0.62171 0.16131 0.0
C1183 C 0.04352 0.61164 0.23588 0.0
loop_
_geom_bond_atom_site_label_1
_geom_bond_atom_site_label_2
_geom_bond_distance
_geom_bond_site_symmetry_2
_ccdc_geom_bond_type
Co0 O3 1.970 1_455 S
Co0 N17 1.989 . S
Co0 O25 1.967 . S
Co0 O32 1.920 . S
Co1 O4 1.966 1_455 S
Co1 N10 2.022 . S
Co1 N18 1.993 . S
Co1 O26 1.941 . S
C2 O3 1.258 . S
C2 O4 1.263 . S
O3 Co0 1.970 1_655 S
O3 C2 1.258 . S
O4 Co1 1.966 1_655 S
O4 C2 1.263 . S
C5 O6 1.272 . S
C5 O32 1.257 1_655 S
O6 C5 1.272 . S
C7 C9 1.400 1_655 S
C7 N10 1.351 1_656 S
C7 C12 1.501 1_556 S
C8 C9 1.387 . S
C8 N11 1.341 . S
C9 C7 1.400 1_455 S
C9 C8 1.387 . S
N10 Co1 2.022 . S
N10 C7 1.351 1_454 S
N10 N11 1.365 1_554 S
N11 C8 1.341 . S
N11 N10 1.365 1_556 S
N11 H31 0.862 . S
C12 C7 1.501 1_554 S
C12 H13 0.961 . S
C12 H14 0.961 1_554 S
C12 H15 0.960 1_554 S
H13 C12 0.961 . S
H14 C12 0.961 1_556 S
H15 C12 0.960 1_556 S
C16 N17 1.342 . S
C16 C20 1.401 . S
C16 C21 1.499 . S
N17 Co0 1.989 . S
N17 C16 1.342 . S
N17 N18 1.388 . S
N18 Co1 1.993 . S
N18 N17 1.388 . S
N18 C19 1.346 . S
C19 N18 1.346 . S
C19 C20 1.396 . S
C19 C29 1.510 . S
C20 C16 1.401 . S
C20 C19 1.396 . S
C21 C16 1.499 . S
C21 H22 0.959 . S
C21 H23 0.960 . S
C21 H24 0.961 . S
H22 C21 0.959 . S
H23 C21 0.960 . S
H24 C21 0.961 . S
O25 Co0 1.967 . S
O25 C33 1.258 . S
O26 Co1 1.941 . S
O26 C33 1.266 . S
H27 C29 0.959 . S
H28 C29 0.961 . S
C29 C19 1.510 . S
C29 H27 0.959 . S
C29 H28 0.961 . S
C29 H30 0.960 . S
H30 C29 0.960 . S
H31 N11 0.862 . S
O32 Co0 1.920 . S
O32 C5 1.257 1_455 S
C33 O25 1.258 . S
C33 O26 1.266 . S
Co34 O37 1.970 . S
Co34 N51 1.989 . S
Co34 O59 1.967 . S
Co34 O66 1.920 . S
Co35 O38 1.966 . S
Co35 N44 2.022 . S
Co35 N52 1.993 . S
Co35 O60 1.941 . S
C36 O37 1.258 . S
C36 O38 1.263 . S
O37 Co34 1.970 . S
O37 C36 1.258 . S
O38 Co35 1.966 . S
O38 C36 1.263 . S
C39 O40 1.235 . S
C39 O66 1.289 . S
O40 C39 1.235 . S
C41 C43 1.400 . S
C41 N44 1.351 . S
C41 C46 1.501 . S
C42 C43 1.387 . S
C42 N45 1.341 . S
C43 C41 1.400 . S
C43 C42 1.387 . S
N44 Co35 2.022 . S
N44 C41 1.351 . S
N44 N45 1.365 . S
N45 C42 1.341 . S
N45 N44 1.365 . S
N45 H65 0.862 . S
C46 C41 1.501 . S
C46 H47 0.961 . S
C46 H48 0.961 . S
C46 H49 0.960 . S
H47 C46 0.961 . S
H48 C46 0.961 . S
H49 C46 0.960 . S
C50 N51 1.342 . S
C50 C54 1.401 . S
C50 C55 1.499 . S
N51 Co34 1.989 . S
N51 C50 1.342 . S
N51 N52 1.388 . S
N52 Co35 1.993 . S
N52 N51 1.388 . S
N52 C53 1.346 . S
C53 N52 1.346 . S
C53 C54 1.396 . S
C53 C63 1.510 . S
C54 C50 1.401 . S
C54 C53 1.396 . S
C55 C50 1.499 . S
C55 H56 0.959 . S
C55 H57 0.960 . S
C55 H58 0.961 . S
H56 C55 0.959 . S
H57 C55 0.960 . S
H58 C55 0.961 . S
O59 Co34 1.967 . S
O59 C67 1.258 . S
O60 Co35 1.941 . S
O60 C67 1.266 . S
H61 C63 0.959 . S
H62 C63 0.961 . S
C63 C53 1.510 . S
C63 H61 0.959 . S
C63 H62 0.961 . S
C63 H64 0.960 . S
H64 C63 0.960 . S
H65 N45 0.862 . S
O66 Co34 1.920 . S
O66 C39 1.289 . S
C67 O59 1.258 . S
C67 O60 1.266 . S
Co68 O71 1.970 . S
Co68 N85 1.989 . S
Co68 O93 1.967 . S
Co68 O100 1.920 . S
Co69 O72 1.966 . S
Co69 N78 2.022 . S
Co69 N86 1.993 . S
Co69 O94 1.941 . S
C70 O71 1.258 . S
C70 O72 1.263 . S
O71 Co68 1.970 . S
O71 C70 1.258 . S
O72 Co69 1.966 . S
O72 C70 1.263 . S
C73 O74 1.235 . S
C73 O100 1.289 . S
O74 C73 1.235 . S
C75 C77 1.400 . S
C75 N78 1.351 . S
C75 C80 1.501 . S
C76 C77 1.387 . S
C76 N79 1.341 . S
C77 C75 1.400 . S
C77 C76 1.387 . S
N78 Co69 2.022 . S
N78 C75 1.351 . S
N78 N79 1.365 . S
N79 C76 1.341 . S
N79 N78 1.365 . S
N79 H99 0.862 . S
C80 C75 1.501 . S
C80 H81 0.961 . S
C80 H82 0.961 . S
C80 H83 0.960 . S
H81 C80 0.961 . S
H82 C80 0.961 . S
H83 C80 0.960 . S
C84 N85 1.342 . S
C84 C88 1.401 . S
C84 C89 1.499 . S
N85 Co68 1.989 . S
N85 C84 1.342 . S
N85 N86 1.388 . S
N86 Co69 1.993 . S
N86 N85 1.388 . S
N86 C87 1.346 . S
C87 N86 1.346 . S
C87 C88 1.396 . S
C87 C97 1.510 . S
C88 C84 1.401 . S
C88 C87 1.396 . S
C89 C84 1.499 . S
C89 H90 0.959 . S
C89 H91 0.960 . S
C89 H92 0.961 . S
H90 C89 0.959 . S
H91 C89 0.960 . S
H92 C89 0.961 . S
O93 Co68 1.967 . S
O93 C101 1.258 . S
O94 Co69 1.941 . S
O94 C101 1.266 . S
H95 C97 0.959 . S
H96 C97 0.961 . S
C97 C87 1.510 . S
C97 H95 0.959 . S
C97 H96 0.961 . S
C97 H98 0.960 . S
H98 C97 0.960 . S
H99 N79 0.862 . S
O100 Co68 1.920 . S
O100 C73 1.289 . S
C101 O93 1.258 . S
C101 O94 1.266 . S
Co102 O105 1.970 . S
Co102 N119 1.989 . S
Co102 O127 1.967 . S
Co102 O134 1.920 . S
Co103 O106 1.966 . S
Co103 N112 2.022 . S
Co103 N120 1.993 . S
Co103 O128 1.941 . S
C104 O105 1.258 . S
C104 O106 1.263 1_554 S
O105 Co102 1.970 . S
O105 C104 1.258 . S
O106 Co103 1.966 . S
O106 C104 1.263 1_556 S
C107 O108 1.235 . S
C107 O134 1.289 . S
O108 C107 1.235 . S
C109 C111 1.400 . S
C109 N112 1.351 . S
C109 C114 1.501 . S
C110 C111 1.387 . S
C110 N113 1.341 . S
C111 C109 1.400 . S
C111 C110 1.387 . S
N112 Co103 2.022 . S
N112 C109 1.351 . S
N112 N113 1.365 . S
N113 C110 1.341 . S
N113 N112 1.365 . S
N113 H133 0.862 . S
C114 C109 1.501 . S
C114 H115 0.961 . S
C114 H116 0.961 . S
C114 H117 0.960 . S
H115 C114 0.961 . S
H116 C114 0.961 . S
H117 C114 0.960 . S
C118 N119 1.342 . S
C118 C122 1.401 1_554 S
C118 C123 1.499 . S
N119 Co102 1.989 . S
N119 C118 1.342 . S
N119 N120 1.388 1_554 S
N120 Co103 1.993 . S
N120 N119 1.388 1_556 S
N120 C121 1.346 . S
C121 N120 1.346 . S
C121 C122 1.396 . S
C121 C131 1.510 . S
C122 C118 1.401 1_556 S
C122 C121 1.396 . S
C123 C118 1.499 . S
C123 H124 0.959 . S
C123 H125 0.960 . S
C123 H126 0.961 . S
H124 C123 0.959 . S
H125 C123 0.960 . S
H126 C123 0.961 . S
O127 Co102 1.967 . S
O127 C135 1.258 . S
O128 Co103 1.941 . S
O128 C135 1.266 1_556 S
H129 C131 0.959 . S
H130 C131 0.961 . S
C131 C121 1.510 . S
C131 H129 0.959 . S
C131 H130 0.961 . S
C131 H132 0.960 . S
H132 C131 0.960 . S
H133 N113 0.862 . S
O134 Co102 1.920 . S
O134 C107 1.289 . S
C135 O127 1.258 . S
C135 O128 1.266 1_554 S
Co136 O139 1.970 1_455 S
Co136 N153 1.989 . S
Co136 O161 1.967 . S
Co136 O168 1.920 . S
Co137 O140 1.966 1_455 S
Co137 N146 2.022 . S
Co137 N154 1.993 . S
Co137 O162 1.941 . S
C138 O139 1.258 . S
C138 O140 1.263 . S
O139 Co136 1.970 1_655 S
O139 C138 1.258 . S
O140 Co137 1.966 1_655 S
O140 C138 1.263 . S
C141 O142 1.272 . S
C141 O168 1.257 1_655 S
O142 C141 1.272 . S
C143 C145 1.400 1_655 S
C143 N146 1.351 1_654 S
C143 C148 1.501 1_554 S
C144 C145 1.387 . S
C144 N147 1.341 . S
C145 C143 1.400 1_455 S
C145 C144 1.387 . S
N146 Co137 2.022 . S
N146 C143 1.351 1_456 S
N146 N147 1.365 1_556 S
N147 C144 1.341 . S
N147 N146 1.365 1_554 S
N147 H167 0.862 . S
C148 C143 1.501 1_556 S
C148 H149 0.961 . S
C148 H150 0.961 1_556 S
C148 H151 0.960 1_556 S
H149 C148 0.961 . S
H150 C148 0.961 1_554 S
H151 C148 0.960 1_554 S
C152 N153 1.342 . S
C152 C156 1.401 . S
C152 C157 1.499 . S
N153 Co136 1.989 . S
N153 C152 1.342 . S
N153 N154 1.388 . S
N154 Co137 1.993 . S
N154 N153 1.388 . S
N154 C155 1.346 . S
C155 N154 1.346 . S
C155 C156 1.396 . S
C155 C165 1.510 . S
C156 C152 1.401 . S
C156 C155 1.396 . S
C157 C152 1.499 . S
C157 H158 0.959 . S
C157 H159 0.960 . S
C157 H160 0.961 . S
H158 C157 0.959 . S
H159 C157 0.960 . S
H160 C157 0.961 . S
O161 Co136 1.967 . S
O161 C169 1.258 . S
O162 Co137 1.941 . S
O162 C169 1.266 . S
H163 C165 0.959 . S
H164 C165 0.961 . S
C165 C155 1.510 . S
C165 H163 0.959 . S
C165 H164 0.961 . S
C165 H166 0.960 . S
H166 C165 0.960 . S
H167 N147 0.862 . S
O168 Co136 1.920 . S
O168 C141 1.257 1_455 S
C169 O161 1.258 . S
C169 O162 1.266 . S
Co170 O173 1.970 . S
Co170 N187 1.989 . S
Co170 O195 1.967 . S
Co170 O202 1.920 . S
Co171 O174 1.966 . S
Co171 N180 2.022 . S
Co171 N188 1.993 . S
Co171 O196 1.941 . S
C172 O173 1.258 . S
C172 O174 1.263 1_556 S
O173 Co170 1.970 . S
O173 C172 1.258 . S
O174 Co171 1.966 . S
O174 C172 1.263 1_554 S
C175 O176 1.235 . S
C175 O202 1.289 . S
O176 C175 1.235 . S
C177 C179 1.400 . S
C177 N180 1.351 . S
C177 C182 1.501 . S
C178 C179 1.387 . S
C178 N181 1.341 . S
C179 C177 1.400 . S
C179 C178 1.387 . S
N180 Co171 2.022 . S
N180 C177 1.351 . S
N180 N181 1.365 . S
N181 C178 1.341 . S
N181 N180 1.365 . S
N181 H201 0.862 . S
C182 C177 1.501 . S
C182 H183 0.961 . S
C182 H184 0.961 . S
C182 H185 0.960 . S
H183 C182 0.961 . S
H184 C182 0.961 . S
H185 C182 0.960 . S
C186 N187 1.342 . S
C186 C190 1.401 1_556 S
C186 C191 1.499 . S
N187 Co170 1.989 . S
N187 C186 1.342 . S
N187 N188 1.388 1_556 S
N188 Co171 1.993 . S
N188 N187 1.388 1_554 S
N188 C189 1.346 . S
C189 N188 1.346 . S
C189 C190 1.396 . S
C189 C199 1.510 . S
C190 C186 1.401 1_554 S
C190 C189 1.396 . S
C191 C186 1.499 . S
C191 H192 0.959 . S
C191 H193 0.960 . S
C191 H194 0.961 . S
H192 C191 0.959 . S
H193 C191 0.960 . S
H194 C191 0.961 . S
O195 Co170 1.967 . S
O195 C203 1.258 . S
O196 Co171 1.941 . S
O196 C203 1.266 1_554 S
H197 C199 0.959 . S
H198 C199 0.961 . S
C199 C189 1.510 . S
C199 H197 0.959 . S
C199 H198 0.961 . S
C199 H200 0.960 . S
H200 C199 0.960 . S
H201 N181 0.862 . S
O202 Co170 1.920 . S
O202 C175 1.289 . S
C203 O195 1.258 . S
C203 O196 1.266 1_556 S
Co204 O207 1.970 . S
Co204 N221 1.989 . S
Co204 O229 1.967 . S
Co204 O236 1.920 . S
Co205 O208 1.966 . S
Co205 N214 2.022 . S
Co205 N222 1.993 . S
Co205 O230 1.941 . S
C206 O207 1.258 . S
C206 O208 1.263 . S
O207 Co204 1.970 . S
O207 C206 1.258 . S
O208 Co205 1.966 . S
O208 C206 1.263 . S
C209 O210 1.235 . S
C209 O236 1.289 . S
O210 C209 1.235 . S
C211 C213 1.400 . S
C211 N214 1.351 . S
C211 C216 1.501 . S
C212 C213 1.387 . S
C212 N215 1.341 . S
C213 C211 1.400 . S
C213 C212 1.387 . S
N214 Co205 2.022 . S
N214 C211 1.351 . S
N214 N215 1.365 . S
N215 C212 1.341 . S
N215 N214 1.365 . S
N215 H235 0.862 . S
C216 C211 1.501 . S
C216 H217 0.961 . S
C216 H218 0.961 . S
C216 H219 0.960 . S
H217 C216 0.961 . S
H218 C216 0.961 . S
H219 C216 0.960 . S
C220 N221 1.342 . S
C220 C224 1.401 . S
C220 C225 1.499 . S
N221 Co204 1.989 . S
N221 C220 1.342 . S
N221 N222 1.388 . S
N222 Co205 1.993 . S
N222 N221 1.388 . S
N222 C223 1.346 . S
C223 N222 1.346 . S
C223 C224 1.396 . S
C223 C233 1.510 . S
C224 C220 1.401 . S
C224 C223 1.396 . S
C225 C220 1.499 . S
C225 H226 0.959 . S
C225 H227 0.960 . S
C225 H228 0.961 . S
H226 C225 0.959 . S
H227 C225 0.960 . S
H228 C225 0.961 . S
O229 Co204 1.967 . S
O229 C237 1.258 . S
O230 Co205 1.941 . S
O230 C237 1.266 . S
H231 C233 0.959 . S
H232 C233 0.961 . S
C233 C223 1.510 . S
C233 H231 0.959 . S
C233 H232 0.961 . S
C233 H234 0.960 . S
H234 C233 0.960 . S
H235 N215 0.862 . S
O236 Co204 1.920 . S
O236 C209 1.289 . S
C237 O229 1.258 . S
C237 O230 1.266 . S
Co238 O241 1.970 . S
Co238 N255 1.989 . S
Co238 O263 1.967 . S
Co238 O270 1.920 . S
Co239 O242 1.966 . S
Co239 N248 2.022 . S
Co239 N256 1.993 . S
Co239 O264 1.941 . S
C240 O241 1.258 . S
C240 O242 1.263 . S
O241 Co238 1.970 . S
O241 C240 1.258 . S
O242 Co239 1.966 . S
O242 C240 1.263 . S
C243 O244 1.235 . S
C243 O270 1.289 . S
O244 C243 1.235 . S
C245 C247 1.400 . S
C245 N248 1.351 . S
C245 C250 1.501 . S
C246 C247 1.387 . S
C246 N249 1.341 . S
C247 C245 1.400 . S
C247 C246 1.387 . S
N248 Co239 2.022 . S
N248 C245 1.351 . S
N248 N249 1.365 . S
N249 C246 1.341 . S
N249 N248 1.365 . S
N249 H269 0.862 . S
C250 C245 1.501 . S
C250 H251 0.961 . S
C250 H252 0.961 . S
C250 H253 0.960 . S
H251 C250 0.961 . S
H252 C250 0.961 . S
H253 C250 0.960 . S
C254 N255 1.342 . S
C254 C258 1.401 . S
C254 C259 1.499 . S
N255 Co238 1.989 . S
N255 C254 1.342 . S
N255 N256 1.388 . S
N256 Co239 1.993 . S
N256 N255 1.388 . S
N256 C257 1.346 . S
C257 N256 1.346 . S
C257 C258 1.396 . S
C257 C267 1.510 . S
C258 C254 1.401 . S
C258 C257 1.396 . S
C259 C254 1.499 . S
C259 H260 0.959 . S
C259 H261 0.960 . S
C259 H262 0.961 . S
H260 C259 0.959 . S
H261 C259 0.960 . S
H262 C259 0.961 . S
O263 Co238 1.967 . S
O263 C271 1.258 . S
O264 Co239 1.941 . S
O264 C271 1.266 . S
H265 C267 0.959 . S
H266 C267 0.961 . S
C267 C257 1.510 . S
C267 H265 0.959 . S
C267 H266 0.961 . S
C267 H268 0.960 . S
H268 C267 0.960 . S
H269 N249 0.862 . S
O270 Co238 1.920 . S
O270 C243 1.289 . S
C271 O263 1.258 . S
C271 O264 1.266 . S
Co272 O275 1.970 . S
Co272 N289 1.989 . S
Co272 O297 1.967 . S
Co272 O304 1.920 . S
Co273 O276 1.966 . S
Co273 N282 2.022 . S
Co273 N290 1.993 . S
Co273 O298 1.941 . S
C274 O275 1.258 . S
C274 O276 1.263 . S
O275 Co272 1.970 . S
O275 C274 1.258 . S
O276 Co273 1.966 . S
O276 C274 1.263 . S
C277 O278 1.235 . S
C277 O304 1.289 . S
O278 C277 1.235 . S
C279 C281 1.400 . S
C279 N282 1.351 . S
C279 C284 1.501 . S
C280 C281 1.387 . S
C280 N283 1.341 . S
C281 C279 1.400 . S
C281 C280 1.387 . S
N282 Co273 2.022 . S
N282 C279 1.351 . S
N282 N283 1.365 . S
N283 C280 1.341 . S
N283 N282 1.365 . S
N283 H303 0.862 . S
C284 C279 1.501 . S
C284 H285 0.961 . S
C284 H286 0.961 . S
C284 H287 0.960 . S
H285 C284 0.961 . S
H286 C284 0.961 . S
H287 C284 0.960 . S
C288 N289 1.342 . S
C288 C292 1.401 . S
C288 C293 1.499 . S
N289 Co272 1.989 . S
N289 C288 1.342 . S
N289 N290 1.388 . S
N290 Co273 1.993 . S
N290 N289 1.388 . S
N290 C291 1.346 . S
C291 N290 1.346 . S
C291 C292 1.396 . S
C291 C301 1.510 . S
C292 C288 1.401 . S
C292 C291 1.396 . S
C293 C288 1.499 . S
C293 H294 0.959 . S
C293 H295 0.960 . S
C293 H296 0.961 . S
H294 C293 0.959 . S
H295 C293 0.960 . S
H296 C293 0.961 . S
O297 Co272 1.967 . S
O297 C305 1.258 . S
O298 Co273 1.941 . S
O298 C305 1.266 . S
H299 C301 0.959 . S
H300 C301 0.961 . S
C301 C291 1.510 . S
C301 H299 0.959 . S
C301 H300 0.961 . S
C301 H302 0.960 . S
H302 C301 0.960 . S
H303 N283 0.862 . S
O304 Co272 1.920 . S
O304 C277 1.289 . S
C305 O297 1.258 . S
C305 O298 1.266 . S
Co306 O309 1.970 . S
Co306 N323 1.989 . S
Co306 O331 1.967 . S
Co306 O338 1.920 . S
Co307 O310 1.966 . S
Co307 N316 2.022 . S
Co307 N324 1.993 . S
Co307 O332 1.941 . S
C308 O309 1.258 . S
C308 O310 1.263 1_556 S
O309 Co306 1.970 . S
O309 C308 1.258 . S
O310 Co307 1.966 . S
O310 C308 1.263 1_554 S
C311 O312 1.235 . S
C311 O338 1.289 . S
O312 C311 1.235 . S
C313 C315 1.400 . S
C313 N316 1.351 . S
C313 C318 1.501 . S
C314 C315 1.387 . S
C314 N317 1.341 . S
C315 C313 1.400 . S
C315 C314 1.387 . S
N316 Co307 2.022 . S
N316 C313 1.351 . S
N316 N317 1.365 . S
N317 C314 1.341 . S
N317 N316 1.365 . S
N317 H337 0.862 . S
C318 C313 1.501 . S
C318 H319 0.961 . S
C318 H320 0.961 . S
C318 H321 0.960 . S
H319 C318 0.961 . S
H320 C318 0.961 . S
H321 C318 0.960 . S
C322 N323 1.342 . S
C322 C326 1.401 1_556 S
C322 C327 1.499 . S
N323 Co306 1.989 . S
N323 C322 1.342 . S
N323 N324 1.388 1_556 S
N324 Co307 1.993 . S
N324 N323 1.388 1_554 S
N324 C325 1.346 . S
C325 N324 1.346 . S
C325 C326 1.396 . S
C325 C335 1.510 . S
C326 C322 1.401 1_554 S
C326 C325 1.396 . S
C327 C322 1.499 . S
C327 H328 0.959 . S
C327 H329 0.960 . S
C327 H330 0.961 . S
H328 C327 0.959 . S
H329 C327 0.960 . S
H330 C327 0.961 . S
O331 Co306 1.967 . S
O331 C339 1.258 . S
O332 Co307 1.941 . S
O332 C339 1.266 1_554 S
H333 C335 0.959 . S
H334 C335 0.961 . S
C335 C325 1.510 . S
C335 H333 0.959 . S
C335 H334 0.961 . S
C335 H336 0.960 . S
H336 C335 0.960 . S
H337 N317 0.862 . S
O338 Co306 1.920 . S
O338 C311 1.289 . S
C339 O331 1.258 . S
C339 O332 1.266 1_556 S
Co340 O343 1.970 . S
Co340 N357 1.989 . S
Co340 O365 1.967 . S
Co340 O372 1.920 . S
Co341 O344 1.966 . S
Co341 N350 2.022 . S
Co341 N358 1.993 . S
Co341 O366 1.941 . S
C342 O343 1.258 . S
C342 O344 1.263 1_554 S
O343 Co340 1.970 . S
O343 C342 1.258 . S
O344 Co341 1.966 . S
O344 C342 1.263 1_556 S
C345 O346 1.235 . S
C345 O372 1.289 . S
O346 C345 1.235 . S
C347 C349 1.400 . S
C347 N350 1.351 . S
C347 C352 1.501 . S
C348 C349 1.387 . S
C348 N351 1.341 . S
C349 C347 1.400 . S
C349 C348 1.387 . S
N350 Co341 2.022 . S
N350 C347 1.351 . S
N350 N351 1.365 . S
N351 C348 1.341 . S
N351 N350 1.365 . S
N351 H371 0.862 . S
C352 C347 1.501 . S
C352 H353 0.961 . S
C352 H354 0.961 . S
C352 H355 0.960 . S
H353 C352 0.961 . S
H354 C352 0.961 . S
H355 C352 0.960 . S
C356 N357 1.342 . S
C356 C360 1.401 1_554 S
C356 C361 1.499 . S
N357 Co340 1.989 . S
N357 C356 1.342 . S
N357 N358 1.388 1_554 S
N358 Co341 1.993 . S
N358 N357 1.388 1_556 S
N358 C359 1.346 . S
C359 N358 1.346 . S
C359 C360 1.396 . S
C359 C369 1.510 . S
C360 C356 1.401 1_556 S
C360 C359 1.396 . S
C361 C356 1.499 . S
C361 H362 0.959 . S
C361 H363 0.960 . S
C361 H364 0.961 . S
H362 C361 0.959 . S
H363 C361 0.960 . S
H364 C361 0.961 . S
O365 Co340 1.967 . S
O365 C373 1.258 . S
O366 Co341 1.941 . S
O366 C373 1.266 1_556 S
H367 C369 0.959 . S
H368 C369 0.961 . S
C369 C359 1.510 . S
C369 H367 0.959 . S
C369 H368 0.961 . S
C369 H370 0.960 . S
H370 C369 0.960 . S
H371 N351 0.862 . S
O372 Co340 1.920 . S
O372 C345 1.289 . S
C373 O365 1.258 . S
C373 O366 1.266 1_554 S
Co374 O377 1.970 . S
Co374 N391 1.989 . S
Co374 O399 1.967 . S
Co374 O406 1.920 . S
Co375 O378 1.966 . S
Co375 N384 2.022 . S
Co375 N392 1.993 . S
Co375 O400 1.941 . S
C376 O377 1.258 . S
C376 O378 1.263 . S
O377 Co374 1.970 . S
O377 C376 1.258 . S
O378 Co375 1.966 . S
O378 C376 1.263 . S
C379 O380 1.235 . S
C379 O406 1.289 . S
O380 C379 1.235 . S
C381 C383 1.400 . S
C381 N384 1.351 . S
C381 C386 1.501 . S
C382 C383 1.387 . S
C382 N385 1.341 . S
C383 C381 1.400 . S
C383 C382 1.387 . S
N384 Co375 2.022 . S
N384 C381 1.351 . S
N384 N385 1.365 . S
N385 C382 1.341 . S
N385 N384 1.365 . S
N385 H405 0.862 . S
C386 C381 1.501 . S
C386 H387 0.961 . S
C386 H388 0.961 . S
C386 H389 0.960 . S
H387 C386 0.961 . S
H388 C386 0.961 . S
H389 C386 0.960 . S
C390 N391 1.342 . S
C390 C394 1.401 . S
C390 C395 1.499 . S
N391 Co374 1.989 . S
N391 C390 1.342 . S
N391 N392 1.388 . S
N392 Co375 1.993 . S
N392 N391 1.388 . S
N392 C393 1.346 . S
C393 N392 1.346 . S
C393 C394 1.396 . S
C393 C403 1.510 . S
C394 C390 1.401 . S
C394 C393 1.396 . S
C395 C390 1.499 . S
C395 H396 0.959 . S
C395 H397 0.960 . S
C395 H398 0.961 . S
H396 C395 0.959 . S
H397 C395 0.960 . S
H398 C395 0.961 . S
O399 Co374 1.967 . S
O399 C407 1.258 . S
O400 Co375 1.941 . S
O400 C407 1.266 . S
H401 C403 0.959 . S
H402 C403 0.961 . S
C403 C393 1.510 . S
C403 H401 0.959 . S
C403 H402 0.961 . S
C403 H404 0.960 . S
H404 C403 0.960 . S
H405 N385 0.862 . S
O406 Co374 1.920 . S
O406 C379 1.289 . S
C407 O399 1.258 . S
C407 O400 1.266 . S
Co408 O411 1.970 . S
Co408 N425 1.989 . S
Co408 O433 1.967 . S
Co408 O440 1.920 . S
Co409 O412 1.966 . S
Co409 N418 2.022 . S
Co409 N426 1.993 . S
Co409 O434 1.941 . S
C410 O411 1.258 . S
C410 O412 1.263 . S
O411 Co408 1.970 . S
O411 C410 1.258 . S
O412 Co409 1.966 . S
O412 C410 1.263 . S
C413 O414 1.235 . S
C413 O440 1.289 . S
O414 C413 1.235 . S
C415 C417 1.400 . S
C415 N418 1.351 . S
C415 C420 1.501 . S
C416 C417 1.387 . S
C416 N419 1.341 . S
C417 C415 1.400 . S
C417 C416 1.387 . S
N418 Co409 2.022 . S
N418 C415 1.351 . S
N418 N419 1.365 . S
N419 C416 1.341 . S
N419 N418 1.365 . S
N419 H439 0.862 . S
C420 C415 1.501 . S
C420 H421 0.961 . S
C420 H422 0.961 . S
C420 H423 0.960 . S
H421 C420 0.961 . S
H422 C420 0.961 . S
H423 C420 0.960 . S
C424 N425 1.342 . S
C424 C428 1.401 . S
C424 C429 1.499 . S
N425 Co408 1.989 . S
N425 C424 1.342 . S
N425 N426 1.388 . S
N426 Co409 1.993 . S
N426 N425 1.388 . S
N426 C427 1.346 . S
C427 N426 1.346 . S
C427 C428 1.396 . S
C427 C437 1.510 . S
C428 C424 1.401 . S
C428 C427 1.396 . S
C429 C424 1.499 . S
C429 H430 0.959 . S
C429 H431 0.960 . S
C429 H432 0.961 . S
H430 C429 0.959 . S
H431 C429 0.960 . S
H432 C429 0.961 . S
O433 Co408 1.967 . S
O433 C441 1.258 . S
O434 Co409 1.941 . S
O434 C441 1.266 . S
H435 C437 0.959 . S
H436 C437 0.961 . S
C437 C427 1.510 . S
C437 H435 0.959 . S
C437 H436 0.961 . S
C437 H438 0.960 . S
H438 C437 0.960 . S
H439 N419 0.862 . S
O440 Co408 1.920 . S
O440 C413 1.289 . S
C441 O433 1.258 . S
C441 O434 1.266 . S
Co442 O445 1.970 . S
Co442 N459 1.989 . S
Co442 O467 1.967 1_455 S
Co442 O474 1.926 . S
Co443 O446 1.983 . S
Co443 N452 2.023 . S
Co443 N460 1.995 . S
Co443 O468 1.924 1_455 S
C444 O445 1.258 . S
C444 O446 1.263 . S
O445 Co442 1.970 . S
O445 C444 1.258 . S
O446 Co443 1.983 . S
O446 C444 1.263 . S
C447 O448 1.235 . S
C447 O474 1.318 . S
O448 C447 1.235 . S
C449 C451 1.400 . S
C449 N452 1.351 1_556 S
C449 C454 1.501 1_556 S
C450 C451 1.387 1_655 S
C450 N453 1.341 . S
C451 C449 1.400 . S
C451 C450 1.387 1_455 S
N452 Co443 2.023 . S
N452 C449 1.351 1_554 S
N452 N453 1.365 1_454 S
N453 C450 1.341 . S
N453 N452 1.365 1_656 S
N453 H473 0.862 . S
C454 C449 1.501 1_554 S
C454 H455 0.961 . S
C454 H456 0.961 1_554 S
C454 H457 0.960 1_554 S
H455 C454 0.961 . S
H456 C454 0.961 1_556 S
H457 C454 0.960 1_556 S
C458 N459 1.342 1_655 S
C458 C462 1.401 . S
C458 C463 1.499 . S
N459 Co442 1.989 . S
N459 C458 1.342 1_455 S
N459 N460 1.388 . S
N460 Co443 1.995 . S
N460 N459 1.388 . S
N460 C461 1.348 . S
C461 N460 1.348 . S
C461 C462 1.393 1_455 S
C461 C471 1.511 . S
C462 C458 1.401 . S
C462 C461 1.393 1_655 S
C463 C458 1.499 . S
C463 H464 0.959 . S
C463 H465 0.960 1_655 S
C463 H466 0.961 . S
H464 C463 0.959 . S
H465 C463 0.960 1_455 S
H466 C463 0.961 . S
O467 Co442 1.967 1_655 S
O467 C475 1.258 . S
O468 Co443 1.924 1_655 S
O468 C475 1.266 . S
H469 C471 0.959 1_655 S
H470 C471 0.961 . S
C471 C461 1.511 . S
C471 H469 0.959 1_455 S
C471 H470 0.961 . S
C471 H472 0.960 . S
H472 C471 0.960 . S
H473 N453 0.862 . S
O474 Co442 1.926 . S
O474 C447 1.318 . S
C475 O467 1.258 . S
C475 O468 1.266 . S
Co476 O479 1.970 . S
Co476 N493 1.989 . S
Co476 O501 1.967 . S
Co476 O508 1.920 . S
Co477 O480 1.966 . S
Co477 N486 2.022 . S
Co477 N494 1.993 . S
Co477 O502 1.941 . S
C478 O479 1.258 . S
C478 O480 1.263 . S
O479 Co476 1.970 . S
O479 C478 1.258 . S
O480 Co477 1.966 . S
O480 C478 1.263 . S
C481 O482 1.235 . S
C481 O508 1.289 . S
O482 C481 1.235 . S
C483 C485 1.400 . S
C483 N486 1.351 . S
C483 C488 1.501 . S
C484 C485 1.387 . S
C484 N487 1.341 . S
C485 C483 1.400 . S
C485 C484 1.387 . S
N486 Co477 2.022 . S
N486 C483 1.351 . S
N486 N487 1.365 . S
N487 C484 1.341 . S
N487 N486 1.365 . S
N487 H507 0.862 . S
C488 C483 1.501 . S
C488 H489 0.961 . S
C488 H490 0.961 . S
C488 H491 0.960 . S
H489 C488 0.961 . S
H490 C488 0.961 . S
H491 C488 0.960 . S
C492 N493 1.342 . S
C492 C496 1.401 . S
C492 C497 1.499 . S
N493 Co476 1.989 . S
N493 C492 1.342 . S
N493 N494 1.388 . S
N494 Co477 1.993 . S
N494 N493 1.388 . S
N494 C495 1.346 . S
C495 N494 1.346 . S
C495 C496 1.396 . S
C495 C505 1.510 . S
C496 C492 1.401 . S
C496 C495 1.396 . S
C497 C492 1.499 . S
C497 H498 0.959 . S
C497 H499 0.960 . S
C497 H500 0.961 . S
H498 C497 0.959 . S
H499 C497 0.960 . S
H500 C497 0.961 . S
O501 Co476 1.967 . S
O501 C509 1.258 . S
O502 Co477 1.941 . S
O502 C509 1.266 . S
H503 C505 0.959 . S
H504 C505 0.961 . S
C505 C495 1.510 . S
C505 H503 0.959 . S
C505 H504 0.961 . S
C505 H506 0.960 . S
H506 C505 0.960 . S
H507 N487 0.862 . S
O508 Co476 1.920 . S
O508 C481 1.289 . S
C509 O501 1.258 . S
C509 O502 1.266 . S
Co510 O513 1.970 . S
Co510 N527 1.989 . S
Co510 O535 1.967 1_455 S
Co510 O542 1.926 . S
Co511 O514 1.983 . S
Co511 N520 2.023 . S
Co511 N528 1.995 . S
Co511 O536 1.924 1_455 S
C512 O513 1.258 . S
C512 O514 1.263 . S
O513 Co510 1.970 . S
O513 C512 1.258 . S
O514 Co511 1.983 . S
O514 C512 1.263 . S
C515 O516 1.235 . S
C515 O542 1.318 . S
O516 C515 1.235 . S
C517 C519 1.400 . S
C517 N520 1.351 1_554 S
C517 C522 1.501 1_554 S
C518 C519 1.387 1_655 S
C518 N521 1.341 . S
C519 C517 1.400 . S
C519 C518 1.387 1_455 S
N520 Co511 2.023 . S
N520 C517 1.351 1_556 S
N520 N521 1.365 1_456 S
N521 C518 1.341 . S
N521 N520 1.365 1_654 S
N521 H541 0.862 . S
C522 C517 1.501 1_556 S
C522 H523 0.961 . S
C522 H524 0.961 1_556 S
C522 H525 0.960 1_556 S
H523 C522 0.961 . S
H524 C522 0.961 1_554 S
H525 C522 0.960 1_554 S
C526 N527 1.342 1_655 S
C526 C530 1.401 . S
C526 C531 1.499 . S
N527 Co510 1.989 . S
N527 C526 1.342 1_455 S
N527 N528 1.388 . S
N528 Co511 1.995 . S
N528 N527 1.388 . S
N528 C529 1.348 . S
C529 N528 1.348 . S
C529 C530 1.393 1_455 S
C529 C539 1.511 . S
C530 C526 1.401 . S
C530 C529 1.393 1_655 S
C531 C526 1.499 . S
C531 H532 0.959 . S
C531 H533 0.960 1_655 S
C531 H534 0.961 . S
H532 C531 0.959 . S
H533 C531 0.960 1_455 S
H534 C531 0.961 . S
O535 Co510 1.967 1_655 S
O535 C543 1.258 . S
O536 Co511 1.924 1_655 S
O536 C543 1.266 . S
H537 C539 0.959 1_655 S
H538 C539 0.961 . S
C539 C529 1.511 . S
C539 H537 0.959 1_455 S
C539 H538 0.961 . S
C539 H540 0.960 . S
H540 C539 0.960 . S
H541 N521 0.862 . S
O542 Co510 1.926 . S
O542 C515 1.318 . S
C543 O535 1.258 . S
C543 O536 1.266 . S
H544 C550 0.930 . S
H545 C553 0.930 . S
H546 C554 0.930 . S
H547 C555 0.930 . S
H548 C558 0.930 . S
H549 C559 0.930 . S
C550 H544 0.930 . S
C550 C551 1.355 . S
C550 C552 1.415 . S
C551 C550 1.355 . S
C551 C553 1.419 . S
C552 C550 1.415 . S
C552 C557 1.425 . S
C552 C559 1.409 . S
C553 H545 0.930 . S
C553 C551 1.419 . S
C553 C554 1.362 . S
C554 H546 0.930 . S
C554 C553 1.362 . S
C554 C557 1.409 . S
C555 H547 0.930 . S
C555 C556 1.355 . S
C555 C557 1.415 . S
C556 C555 1.355 . S
C556 C558 1.419 . S
C557 C552 1.425 . S
C557 C554 1.409 . S
C557 C555 1.415 . S
C558 H548 0.930 . S
C558 C556 1.419 . S
C558 C559 1.362 . S
C559 H549 0.930 . S
C559 C552 1.409 . S
C559 C558 1.362 . S
H560 C566 0.930 . S
H561 C569 0.930 . S
H562 C570 0.930 . S
H563 C571 0.930 . S
H564 C574 0.930 . S
H565 C575 0.930 . S
C566 H560 0.930 . S
C566 C567 1.355 . S
C566 C568 1.415 . S
C567 C566 1.355 . S
C567 C569 1.419 . S
C568 C566 1.415 . S
C568 C573 1.425 . S
C568 C575 1.409 . S
C569 H561 0.930 . S
C569 C567 1.419 . S
C569 C570 1.362 . S
C570 H562 0.930 . S
C570 C569 1.362 . S
C570 C573 1.409 . S
C571 H563 0.930 . S
C571 C572 1.355 . S
C571 C573 1.415 . S
C572 C571 1.355 . S
C572 C574 1.419 . S
C573 C568 1.425 . S
C573 C570 1.409 . S
C573 C571 1.415 . S
C574 H564 0.930 . S
C574 C572 1.419 . S
C574 C575 1.362 . S
C575 H565 0.930 . S
C575 C568 1.409 . S
C575 C574 1.362 . S
H576 C582 0.930 . S
H577 C585 0.930 . S
H578 C586 0.930 . S
H579 C587 0.930 . S
H580 C590 0.930 1_554 S
H581 C591 0.930 . S
C582 H576 0.930 . S
C582 C583 1.355 . S
C582 C584 1.415 . S
C583 C582 1.355 . S
C583 C585 1.419 . S
C584 C582 1.415 . S
C584 C589 1.425 . S
C584 C591 1.409 . S
C585 H577 0.930 . S
C585 C583 1.419 . S
C585 C586 1.362 . S
C586 H578 0.930 . S
C586 C585 1.362 . S
C586 C589 1.409 . S
C587 H579 0.930 . S
C587 C588 1.355 . S
C587 C589 1.415 . S
C588 C587 1.355 . S
C588 C590 1.419 . S
C589 C584 1.425 . S
C589 C586 1.409 . S
C589 C587 1.415 . S
C590 H580 0.930 1_556 S
C590 C588 1.419 . S
C590 C591 1.362 . S
C591 H581 0.930 . S
C591 C584 1.409 . S
C591 C590 1.362 . S
H592 C598 0.930 . S
H593 C601 0.930 . S
H594 C602 0.930 . S
H595 C603 0.930 . S
H596 C606 0.930 . S
H597 C607 0.930 . S
C598 H592 0.930 . S
C598 C599 1.355 . S
C598 C600 1.415 . S
C599 C598 1.355 . S
C599 C601 1.419 . S
C600 C598 1.415 . S
C600 C605 1.425 . S
C600 C607 1.409 . S
C601 H593 0.930 . S
C601 C599 1.419 . S
C601 C602 1.362 . S
C602 H594 0.930 . S
C602 C601 1.362 . S
C602 C605 1.409 . S
C603 H595 0.930 . S
C603 C604 1.355 . S
C603 C605 1.415 . S
C604 C603 1.355 . S
C604 C606 1.419 . S
C605 C600 1.425 . S
C605 C602 1.409 . S
C605 C603 1.415 . S
C606 H596 0.930 . S
C606 C604 1.419 . S
C606 C607 1.362 . S
C607 H597 0.930 . S
C607 C600 1.409 . S
C607 C606 1.362 . S
H608 C614 0.930 . S
H609 C617 0.930 . S
H610 C618 0.930 . S
H611 C619 0.930 . S
H612 C622 0.930 . S
H613 C623 0.930 . S
C614 H608 0.930 . S
C614 C615 1.355 . S
C614 C616 1.415 . S
C615 C614 1.355 . S
C615 C617 1.419 . S
C616 C614 1.415 . S
C616 C621 1.425 . S
C616 C623 1.409 . S
C617 H609 0.930 . S
C617 C615 1.419 . S
C617 C618 1.362 . S
C618 H610 0.930 . S
C618 C617 1.362 . S
C618 C621 1.409 . S
C619 H611 0.930 . S
C619 C620 1.355 . S
C619 C621 1.415 . S
C620 C619 1.355 . S
C620 C622 1.419 . S
C621 C616 1.425 . S
C621 C618 1.409 . S
C621 C619 1.415 . S
C622 H612 0.930 . S
C622 C620 1.419 . S
C622 C623 1.362 . S
C623 H613 0.930 . S
C623 C616 1.409 . S
C623 C622 1.362 . S
H624 C630 0.930 . S
H625 C633 0.930 . S
H626 C634 0.930 . S
H627 C635 0.930 . S
H628 C638 0.930 . S
H629 C639 0.930 . S
C630 H624 0.930 . S
C630 C631 1.355 . S
C630 C632 1.415 . S
C631 C630 1.355 . S
C631 C633 1.419 . S
C632 C630 1.415 . S
C632 C637 1.425 . S
C632 C639 1.409 . S
C633 H625 0.930 . S
C633 C631 1.419 . S
C633 C634 1.362 . S
C634 H626 0.930 . S
C634 C633 1.362 . S
C634 C637 1.409 . S
C635 H627 0.930 . S
C635 C636 1.355 . S
C635 C637 1.415 . S
C636 C635 1.355 . S
C636 C638 1.419 . S
C637 C632 1.425 . S
C637 C634 1.409 . S
C637 C635 1.415 . S
C638 H628 0.930 . S
C638 C636 1.419 . S
C638 C639 1.362 . S
C639 H629 0.930 . S
C639 C632 1.409 . S
C639 C638 1.362 . S
H640 C646 0.930 . S
H641 C649 0.930 . S
H642 C650 0.930 . S
H643 C651 0.930 . S
H644 C654 0.930 . S
H645 C655 0.930 . S
C646 H640 0.930 . S
C646 C647 1.355 . S
C646 C648 1.415 . S
C647 C646 1.355 . S
C647 C649 1.419 . S
C648 C646 1.415 . S
C648 C653 1.425 . S
C648 C655 1.409 . S
C649 H641 0.930 . S
C649 C647 1.419 . S
C649 C650 1.362 . S
C650 H642 0.930 . S
C650 C649 1.362 . S
C650 C653 1.409 . S
C651 H643 0.930 . S
C651 C652 1.355 . S
C651 C653 1.415 . S
C652 C651 1.355 . S
C652 C654 1.419 . S
C653 C648 1.425 . S
C653 C650 1.409 . S
C653 C651 1.415 . S
C654 H644 0.930 . S
C654 C652 1.419 . S
C654 C655 1.362 . S
C655 H645 0.930 . S
C655 C648 1.409 . S
C655 C654 1.362 . S
H656 C662 0.930 . S
H657 C665 0.930 . S
H658 C666 0.930 . S
H659 C667 0.930 . S
H660 C670 0.930 1_554 S
H661 C671 0.930 . S
C662 H656 0.930 . S
C662 C663 1.355 . S
C662 C664 1.415 . S
C663 C662 1.355 . S
C663 C665 1.419 . S
C664 C662 1.415 . S
C664 C669 1.425 . S
C664 C671 1.409 . S
C665 H657 0.930 . S
C665 C663 1.419 . S
C665 C666 1.362 . S
C666 H658 0.930 . S
C666 C665 1.362 . S
C666 C669 1.409 . S
C667 H659 0.930 . S
C667 C668 1.355 . S
C667 C669 1.415 . S
C668 C667 1.355 . S
C668 C670 1.419 . S
C669 C664 1.425 . S
C669 C666 1.409 . S
C669 C667 1.415 . S
C670 H660 0.930 1_556 S
C670 C668 1.419 . S
C670 C671 1.362 . S
C671 H661 0.930 . S
C671 C664 1.409 . S
C671 C670 1.362 . S
H672 C678 0.930 . S
H673 C681 0.930 . S
H674 C682 0.930 . S
H675 C683 0.930 . S
H676 C686 0.930 . S
H677 C687 0.930 . S
C678 H672 0.930 . S
C678 C679 1.355 . S
C678 C680 1.415 . S
C679 C678 1.355 . S
C679 C681 1.419 . S
C680 C678 1.415 . S
C680 C685 1.425 . S
C680 C687 1.409 . S
C681 H673 0.930 . S
C681 C679 1.419 . S
C681 C682 1.362 . S
C682 H674 0.930 . S
C682 C681 1.362 . S
C682 C685 1.409 . S
C683 H675 0.930 . S
C683 C684 1.355 . S
C683 C685 1.415 . S
C684 C683 1.355 . S
C684 C686 1.419 . S
C685 C680 1.425 . S
C685 C682 1.409 . S
C685 C683 1.415 . S
C686 H676 0.930 . S
C686 C684 1.419 . S
C686 C687 1.362 . S
C687 H677 0.930 . S
C687 C680 1.409 . S
C687 C686 1.362 . S
H688 C694 0.930 . S
H689 C697 0.930 . S
H690 C698 0.930 . S
H691 C699 0.930 . S
H692 C702 0.930 . S
H693 C703 0.930 . S
C694 H688 0.930 . S
C694 C695 1.355 . S
C694 C696 1.415 . S
C695 C694 1.355 . S
C695 C697 1.419 . S
C696 C694 1.415 . S
C696 C701 1.425 . S
C696 C703 1.409 . S
C697 H689 0.930 . S
C697 C695 1.419 . S
C697 C698 1.362 . S
C698 H690 0.930 . S
C698 C697 1.362 . S
C698 C701 1.409 . S
C699 H691 0.930 . S
C699 C700 1.355 . S
C699 C701 1.415 . S
C700 C699 1.355 . S
C700 C702 1.419 . S
C701 C696 1.425 . S
C701 C698 1.409 . S
C701 C699 1.415 . S
C702 H692 0.930 . S
C702 C700 1.419 . S
C702 C703 1.362 . S
C703 H693 0.930 . S
C703 C696 1.409 . S
C703 C702 1.362 . S
H704 C710 0.930 . S
H705 C713 0.930 . S
H706 C714 0.930 . S
H707 C715 0.930 . S
H708 C718 0.930 . S
H709 C719 0.930 . S
C710 H704 0.930 . S
C710 C711 1.355 . S
C710 C712 1.415 . S
C711 C710 1.355 . S
C711 C713 1.419 . S
C712 C710 1.415 . S
C712 C717 1.425 . S
C712 C719 1.409 . S
C713 H705 0.930 . S
C713 C711 1.419 . S
C713 C714 1.362 . S
C714 H706 0.930 . S
C714 C713 1.362 . S
C714 C717 1.409 . S
C715 H707 0.930 . S
C715 C716 1.355 . S
C715 C717 1.415 . S
C716 C715 1.355 . S
C716 C718 1.419 . S
C717 C712 1.425 . S
C717 C714 1.409 . S
C717 C715 1.415 . S
C718 H708 0.930 . S
C718 C716 1.419 . S
C718 C719 1.362 . S
C719 H709 0.930 . S
C719 C712 1.409 . S
C719 C718 1.362 . S
H720 C726 0.930 . S
H721 C729 0.930 . S
H722 C730 0.930 . S
H723 C731 0.930 . S
H724 C734 0.930 . S
H725 C735 0.930 . S
C726 H720 0.930 . S
C726 C727 1.355 . S
C726 C728 1.415 . S
C727 C726 1.355 . S
C727 C729 1.419 . S
C728 C726 1.415 . S
C728 C733 1.425 . S
C728 C735 1.409 . S
C729 H721 0.930 . S
C729 C727 1.419 . S
C729 C730 1.362 . S
C730 H722 0.930 . S
C730 C729 1.362 . S
C730 C733 1.409 . S
C731 H723 0.930 . S
C731 C732 1.355 . S
C731 C733 1.415 . S
C732 C731 1.355 . S
C732 C734 1.419 . S
C733 C728 1.425 . S
C733 C730 1.409 . S
C733 C731 1.415 . S
C734 H724 0.930 . S
C734 C732 1.419 . S
C734 C735 1.362 . S
C735 H725 0.930 . S
C735 C728 1.409 . S
C735 C734 1.362 . S
H736 C742 0.930 1_556 S
H737 C745 0.930 . S
H738 C746 0.930 . S
H739 C747 0.930 . S
H740 C750 0.930 . S
H741 C751 0.930 1_556 S
C742 H736 0.930 1_554 S
C742 C743 1.355 . S
C742 C744 1.415 . S
C743 C742 1.355 . S
C743 C745 1.419 . S
C744 C742 1.415 . S
C744 C749 1.425 . S
C744 C751 1.409 . S
C745 H737 0.930 . S
C745 C743 1.419 . S
C745 C746 1.362 . S
C746 H738 0.930 . S
C746 C745 1.362 . S
C746 C749 1.409 . S
C747 H739 0.930 . S
C747 C748 1.355 . S
C747 C749 1.415 . S
C748 C747 1.355 . S
C748 C750 1.419 . S
C749 C744 1.425 . S
C749 C746 1.409 . S
C749 C747 1.415 . S
C750 H740 0.930 . S
C750 C748 1.419 . S
C750 C751 1.362 . S
C751 H741 0.930 1_554 S
C751 C744 1.409 . S
C751 C750 1.362 . S
H752 C758 0.930 . S
H753 C761 0.930 1_554 S
H754 C762 0.930 . S
H755 C763 0.930 . S
H756 C766 0.930 . S
H757 C767 0.930 . S
C758 H752 0.930 . S
C758 C759 1.355 . S
C758 C760 1.415 . S
C759 C758 1.355 . S
C759 C761 1.419 . S
C760 C758 1.415 . S
C760 C765 1.425 . S
C760 C767 1.409 . S
C761 H753 0.930 1_556 S
C761 C759 1.419 . S
C761 C762 1.362 . S
C762 H754 0.930 . S
C762 C761 1.362 . S
C762 C765 1.409 . S
C763 H755 0.930 . S
C763 C764 1.355 . S
C763 C765 1.415 . S
C764 C763 1.355 . S
C764 C766 1.419 . S
C765 C760 1.425 . S
C765 C762 1.409 . S
C765 C763 1.415 . S
C766 H756 0.930 . S
C766 C764 1.419 . S
C766 C767 1.362 . S
C767 H757 0.930 . S
C767 C760 1.409 . S
C767 C766 1.362 . S
H768 C774 0.930 . S
H769 C777 0.930 . S
H770 C778 0.930 . S
H771 C779 0.930 . S
H772 C782 0.930 . S
H773 C783 0.930 . S
C774 H768 0.930 . S
C774 C775 1.355 . S
C774 C776 1.415 . S
C775 C774 1.355 . S
C775 C777 1.419 . S
C776 C774 1.415 . S
C776 C781 1.425 . S
C776 C783 1.409 . S
C777 H769 0.930 . S
C777 C775 1.419 . S
C777 C778 1.362 . S
C778 H770 0.930 . S
C778 C777 1.362 . S
C778 C781 1.409 . S
C779 H771 0.930 . S
C779 C780 1.355 . S
C779 C781 1.415 . S
C780 C779 1.355 . S
C780 C782 1.419 . S
C781 C776 1.425 . S
C781 C778 1.409 . S
C781 C779 1.415 . S
C782 H772 0.930 . S
C782 C780 1.419 . S
C782 C783 1.362 . S
C783 H773 0.930 . S
C783 C776 1.409 . S
C783 C782 1.362 . S
H784 C790 0.930 . S
H785 C793 0.930 . S
H786 C794 0.930 . S
H787 C795 0.930 . S
H788 C798 0.930 . S
H789 C799 0.930 . S
C790 H784 0.930 . S
C790 C791 1.355 . S
C790 C792 1.415 . S
C791 C790 1.355 . S
C791 C793 1.419 . S
C792 C790 1.415 . S
C792 C797 1.425 . S
C792 C799 1.409 . S
C793 H785 0.930 . S
C793 C791 1.419 . S
C793 C794 1.362 . S
C794 H786 0.930 . S
C794 C793 1.362 . S
C794 C797 1.409 . S
C795 H787 0.930 . S
C795 C796 1.355 . S
C795 C797 1.415 . S
C796 C795 1.355 . S
C796 C798 1.419 . S
C797 C792 1.425 . S
C797 C794 1.409 . S
C797 C795 1.415 . S
C798 H788 0.930 . S
C798 C796 1.419 . S
C798 C799 1.362 . S
C799 H789 0.930 . S
C799 C792 1.409 . S
C799 C798 1.362 . S
H800 C806 0.930 . S
H801 C809 0.930 1_655 S
H802 C810 0.930 1_655 S
H803 C811 0.930 . S
H804 C814 0.930 . S
H805 C815 0.930 . S
C806 H800 0.930 . S
C806 C807 1.355 . S
C806 C808 1.415 1_545 S
C807 C806 1.355 . S
C807 C809 1.419 . S
C808 C806 1.415 1_565 S
C808 C813 1.425 1_564 S
C808 C815 1.409 . S
C809 H801 0.930 1_455 S
C809 C807 1.419 . S
C809 C810 1.362 1_554 S
C810 H802 0.930 1_455 S
C810 C809 1.362 1_556 S
C810 C813 1.409 . S
C811 H803 0.930 . S
C811 C812 1.355 . S
C811 C813 1.415 1_565 S
C812 C811 1.355 . S
C812 C814 1.419 . S
C813 C808 1.425 1_546 S
C813 C810 1.409 . S
C813 C811 1.415 1_545 S
C814 H804 0.930 . S
C814 C812 1.419 . S
C814 C815 1.362 1_556 S
C815 H805 0.930 . S
C815 C808 1.409 . S
C815 C814 1.362 1_554 S
H816 C822 0.930 . S
H817 C825 0.930 . S
H818 C826 0.930 . S
H819 C827 0.930 . S
H820 C830 0.930 . S
H821 C831 0.930 . S
C822 H816 0.930 . S
C822 C823 1.355 . S
C822 C824 1.415 . S
C823 C822 1.355 . S
C823 C825 1.419 . S
C824 C822 1.415 . S
C824 C829 1.425 . S
C824 C831 1.409 . S
C825 H817 0.930 . S
C825 C823 1.419 . S
C825 C826 1.362 . S
C826 H818 0.930 . S
C826 C825 1.362 . S
C826 C829 1.409 . S
C827 H819 0.930 . S
C827 C828 1.355 . S
C827 C829 1.415 . S
C828 C827 1.355 . S
C828 C830 1.419 . S
C829 C824 1.425 . S
C829 C826 1.409 . S
C829 C827 1.415 . S
C830 H820 0.930 . S
C830 C828 1.419 . S
C830 C831 1.362 . S
C831 H821 0.930 . S
C831 C824 1.409 . S
C831 C830 1.362 . S
H832 C838 0.930 . S
H833 C841 0.930 . S
H834 C842 0.930 . S
H835 C843 0.930 . S
H836 C846 0.930 . S
H837 C847 0.930 . S
C838 H832 0.930 . S
C838 C839 1.355 . S
C838 C840 1.415 . S
C839 C838 1.355 . S
C839 C841 1.419 . S
C840 C838 1.415 . S
C840 C845 1.425 1_545 S
C840 C847 1.409 . S
C841 H833 0.930 . S
C841 C839 1.419 . S
C841 C842 1.362 1_545 S
C842 H834 0.930 . S
C842 C841 1.362 1_565 S
C842 C845 1.409 . S
C843 H835 0.930 . S
C843 C844 1.355 . S
C843 C845 1.415 . S
C844 C843 1.355 . S
C844 C846 1.419 . S
C845 C840 1.425 1_565 S
C845 C842 1.409 . S
C845 C843 1.415 . S
C846 H836 0.930 . S
C846 C844 1.419 . S
C846 C847 1.362 1_565 S
C847 H837 0.930 . S
C847 C840 1.409 . S
C847 C846 1.362 1_545 S
H848 C854 0.930 . S
H849 C857 0.930 . S
H850 C858 0.930 . S
H851 C859 0.930 . S
H852 C862 0.930 . S
H853 C863 0.930 . S
C854 H848 0.930 . S
C854 C855 1.355 . S
C854 C856 1.415 . S
C855 C854 1.355 . S
C855 C857 1.419 . S
C856 C854 1.415 . S
C856 C861 1.425 . S
C856 C863 1.409 . S
C857 H849 0.930 . S
C857 C855 1.419 . S
C857 C858 1.362 . S
C858 H850 0.930 . S
C858 C857 1.362 . S
C858 C861 1.409 . S
C859 H851 0.930 . S
C859 C860 1.355 . S
C859 C861 1.415 . S
C860 C859 1.355 . S
C860 C862 1.419 . S
C861 C856 1.425 . S
C861 C858 1.409 . S
C861 C859 1.415 . S
C862 H852 0.930 . S
C862 C860 1.419 . S
C862 C863 1.362 . S
C863 H853 0.930 . S
C863 C856 1.409 . S
C863 C862 1.362 . S
H864 C870 0.930 . S
H865 C873 0.930 . S
H866 C874 0.930 . S
H867 C875 0.930 . S
H868 C878 0.930 . S
H869 C879 0.930 . S
C870 H864 0.930 . S
C870 C871 1.355 . S
C870 C872 1.415 . S
C871 C870 1.355 . S
C871 C873 1.419 . S
C872 C870 1.415 . S
C872 C877 1.425 . S
C872 C879 1.409 . S
C873 H865 0.930 . S
C873 C871 1.419 . S
C873 C874 1.362 . S
C874 H866 0.930 . S
C874 C873 1.362 . S
C874 C877 1.409 . S
C875 H867 0.930 . S
C875 C876 1.355 . S
C875 C877 1.415 . S
C876 C875 1.355 . S
C876 C878 1.419 . S
C877 C872 1.425 . S
C877 C874 1.409 . S
C877 C875 1.415 . S
C878 H868 0.930 . S
C878 C876 1.419 . S
C878 C879 1.362 . S
C879 H869 0.930 . S
C879 C872 1.409 . S
C879 C878 1.362 . S
H880 C886 0.930 . S
H881 C889 0.930 . S
H882 C890 0.930 . S
H883 C891 0.930 . S
H884 C894 0.930 . S
H885 C895 0.930 . S
C886 H880 0.930 . S
C886 C887 1.355 . S
C886 C888 1.415 . S
C887 C886 1.355 . S
C887 C889 1.419 . S
C888 C886 1.415 . S
C888 C893 1.425 . S
C888 C895 1.409 . S
C889 H881 0.930 . S
C889 C887 1.419 . S
C889 C890 1.362 . S
C890 H882 0.930 . S
C890 C889 1.362 . S
C890 C893 1.409 . S
C891 H883 0.930 . S
C891 C892 1.355 . S
C891 C893 1.415 . S
C892 C891 1.355 . S
C892 C894 1.419 . S
C893 C888 1.425 . S
C893 C890 1.409 . S
C893 C891 1.415 . S
C894 H884 0.930 . S
C894 C892 1.419 . S
C894 C895 1.362 . S
C895 H885 0.930 . S
C895 C888 1.409 . S
C895 C894 1.362 . S
H896 C902 0.930 . S
H897 C905 0.930 . S
H898 C906 0.930 . S
H899 C907 0.930 . S
H900 C910 0.930 . S
H901 C911 0.930 . S
C902 H896 0.930 . S
C902 C903 1.355 . S
C902 C904 1.415 . S
C903 C902 1.355 . S
C903 C905 1.419 . S
C904 C902 1.415 . S
C904 C909 1.425 . S
C904 C911 1.409 . S
C905 H897 0.930 . S
C905 C903 1.419 . S
C905 C906 1.362 . S
C906 H898 0.930 . S
C906 C905 1.362 . S
C906 C909 1.409 . S
C907 H899 0.930 . S
C907 C908 1.355 . S
C907 C909 1.415 . S
C908 C907 1.355 . S
C908 C910 1.419 . S
C909 C904 1.425 . S
C909 C906 1.409 . S
C909 C907 1.415 . S
C910 H900 0.930 . S
C910 C908 1.419 . S
C910 C911 1.362 . S
C911 H901 0.930 . S
C911 C904 1.409 . S
C911 C910 1.362 . S
H912 C918 0.930 . S
H913 C921 0.930 . S
H914 C922 0.930 . S
H915 C923 0.930 . S
H916 C926 0.930 . S
H917 C927 0.930 . S
C918 H912 0.930 . S
C918 C919 1.355 1_455 S
C918 C920 1.415 . S
C919 C918 1.355 1_655 S
C919 C921 1.419 . S
C920 C918 1.415 . S
C920 C925 1.425 1_456 S
C920 C927 1.409 1_556 S
C921 H913 0.930 . S
C921 C919 1.419 . S
C921 C922 1.362 . S
C922 H914 0.930 . S
C922 C921 1.362 . S
C922 C925 1.409 1_556 S
C923 H915 0.930 . S
C923 C924 1.355 . S
C923 C925 1.415 . S
C924 C923 1.355 . S
C924 C926 1.419 1_655 S
C925 C920 1.425 1_654 S
C925 C922 1.409 1_554 S
C925 C923 1.415 . S
C926 H916 0.930 . S
C926 C924 1.419 1_455 S
C926 C927 1.362 . S
C927 H917 0.930 . S
C927 C920 1.409 1_554 S
C927 C926 1.362 . S
H928 C934 0.930 . S
H929 C937 0.930 . S
H930 C938 0.930 . S
H931 C939 0.930 . S
H932 C942 0.930 . S
H933 C943 0.930 . S
C934 H928 0.930 . S
C934 C935 1.355 1_455 S
C934 C936 1.415 . S
C935 C934 1.355 1_655 S
C935 C937 1.419 . S
C936 C934 1.415 . S
C936 C941 1.425 1_455 S
C936 C943 1.409 . S
C937 H929 0.930 . S
C937 C935 1.419 . S
C937 C938 1.362 . S
C938 H930 0.930 . S
C938 C937 1.362 . S
C938 C941 1.409 . S
C939 H931 0.930 . S
C939 C940 1.355 1_655 S
C939 C941 1.415 . S
C940 C939 1.355 1_455 S
C940 C942 1.419 . S
C941 C936 1.425 1_655 S
C941 C938 1.409 . S
C941 C939 1.415 . S
C942 H932 0.930 . S
C942 C940 1.419 . S
C942 C943 1.362 . S
C943 H933 0.930 . S
C943 C936 1.409 . S
C943 C942 1.362 . S
H944 C950 0.930 . S
H945 C953 0.930 . S
H946 C954 0.930 . S
H947 C955 0.930 . S
H948 C958 0.930 . S
H949 C959 0.930 . S
C950 H944 0.930 . S
C950 C951 1.355 . S
C950 C952 1.415 1_554 S
C951 C950 1.355 . S
C951 C953 1.419 . S
C952 C950 1.415 1_556 S
C952 C957 1.425 . S
C952 C959 1.409 . S
C953 H945 0.930 . S
C953 C951 1.419 . S
C953 C954 1.362 . S
C954 H946 0.930 . S
C954 C953 1.362 . S
C954 C957 1.409 1_554 S
C955 H947 0.930 . S
C955 C956 1.355 . S
C955 C957 1.415 . S
C956 C955 1.355 . S
C956 C958 1.419 . S
C957 C952 1.425 . S
C957 C954 1.409 1_556 S
C957 C955 1.415 . S
C958 H948 0.930 . S
C958 C956 1.419 . S
C958 C959 1.362 . S
C959 H949 0.930 . S
C959 C952 1.409 . S
C959 C958 1.362 . S
H960 C966 0.930 . S
H961 C969 0.930 . S
H962 C970 0.930 . S
H963 C971 0.930 . S
H964 C974 0.930 . S
H965 C975 0.930 . S
C966 H960 0.930 . S
C966 C967 1.355 . S
C966 C968 1.415 . S
C967 C966 1.355 . S
C967 C969 1.419 . S
C968 C966 1.415 . S
C968 C973 1.425 . S
C968 C975 1.409 . S
C969 H961 0.930 . S
C969 C967 1.419 . S
C969 C970 1.362 . S
C970 H962 0.930 . S
C970 C969 1.362 . S
C970 C973 1.409 . S
C971 H963 0.930 . S
C971 C972 1.355 . S
C971 C973 1.415 . S
C972 C971 1.355 . S
C972 C974 1.419 . S
C973 C968 1.425 . S
C973 C970 1.409 . S
C973 C971 1.415 . S
C974 H964 0.930 . S
C974 C972 1.419 . S
C974 C975 1.362 . S
C975 H965 0.930 . S
C975 C968 1.409 . S
C975 C974 1.362 . S
H976 C982 0.930 . S
H977 C985 0.930 . S
H978 C986 0.930 . S
H979 C987 0.930 . S
H980 C990 0.930 . S
H981 C991 0.930 . S
C982 H976 0.930 . S
C982 C983 1.355 . S
C982 C984 1.415 . S
C983 C982 1.355 . S
C983 C985 1.419 . S
C984 C982 1.415 . S
C984 C989 1.425 . S
C984 C991 1.409 . S
C985 H977 0.930 . S
C985 C983 1.419 . S
C985 C986 1.362 . S
C986 H978 0.930 . S
C986 C985 1.362 . S
C986 C989 1.409 . S
C987 H979 0.930 . S
C987 C988 1.355 . S
C987 C989 1.415 . S
C988 C987 1.355 . S
C988 C990 1.419 . S
C989 C984 1.425 . S
C989 C986 1.409 . S
C989 C987 1.415 . S
C990 H980 0.930 . S
C990 C988 1.419 . S
C990 C991 1.362 . S
C991 H981 0.930 . S
C991 C984 1.409 . S
C991 C990 1.362 . S
H992 C998 0.930 . S
H993 C1001 0.930 . S
H994 C1002 0.930 . S
H995 C1003 0.930 . S
H996 C1006 0.930 . S
H997 C1007 0.930 . S
C998 H992 0.930 . S
C998 C999 1.355 1_655 S
C998 C1000 1.415 . S
C999 C998 1.355 1_455 S
C999 C1001 1.419 . S
C1000 C998 1.415 . S
C1000 C1005 1.425 1_655 S
C1000 C1007 1.409 . S
C1001 H993 0.930 . S
C1001 C999 1.419 . S
C1001 C1002 1.362 . S
C1002 H994 0.930 . S
C1002 C1001 1.362 . S
C1002 C1005 1.409 . S
C1003 H995 0.930 . S
C1003 C1004 1.355 1_455 S
C1003 C1005 1.415 . S
C1004 C1003 1.355 1_655 S
C1004 C1006 1.419 . S
C1005 C1000 1.425 1_455 S
C1005 C1002 1.409 . S
C1005 C1003 1.415 . S
C1006 H996 0.930 . S
C1006 C1004 1.419 . S
C1006 C1007 1.362 . S
C1007 H997 0.930 . S
C1007 C1000 1.409 . S
C1007 C1006 1.362 . S
H1008 C1014 0.930 . S
H1009 C1017 0.930 . S
H1010 C1018 0.930 . S
H1011 C1019 0.930 . S
H1012 C1022 0.930 . S
H1013 C1023 0.930 . S
C1014 H1008 0.930 . S
C1014 C1015 1.355 . S
C1014 C1016 1.415 . S
C1015 C1014 1.355 . S
C1015 C1017 1.419 . S
C1016 C1014 1.415 . S
C1016 C1021 1.425 . S
C1016 C1023 1.409 . S
C1017 H1009 0.930 . S
C1017 C1015 1.419 . S
C1017 C1018 1.362 . S
C1018 H1010 0.930 . S
C1018 C1017 1.362 . S
C1018 C1021 1.409 . S
C1019 H1011 0.930 . S
C1019 C1020 1.355 . S
C1019 C1021 1.415 . S
C1020 C1019 1.355 . S
C1020 C1022 1.419 . S
C1021 C1016 1.425 . S
C1021 C1018 1.409 . S
C1021 C1019 1.415 . S
C1022 H1012 0.930 . S
C1022 C1020 1.419 . S
C1022 C1023 1.362 . S
C1023 H1013 0.930 . S
C1023 C1016 1.409 . S
C1023 C1022 1.362 . S
H1024 C1030 0.930 . S
H1025 C1033 0.930 . S
H1026 C1034 0.930 . S
H1027 C1035 0.930 . S
H1028 C1038 0.930 . S
H1029 C1039 0.930 . S
C1030 H1024 0.930 . S
C1030 C1031 1.355 . S
C1030 C1032 1.415 . S
C1031 C1030 1.355 . S
C1031 C1033 1.419 . S
C1032 C1030 1.415 . S
C1032 C1037 1.425 . S
C1032 C1039 1.409 . S
C1033 H1025 0.930 . S
C1033 C1031 1.419 . S
C1033 C1034 1.362 . S
C1034 H1026 0.930 . S
C1034 C1033 1.362 . S
C1034 C1037 1.409 . S
C1035 H1027 0.930 . S
C1035 C1036 1.355 . S
C1035 C1037 1.415 . S
C1036 C1035 1.355 . S
C1036 C1038 1.419 . S
C1037 C1032 1.425 . S
C1037 C1034 1.409 . S
C1037 C1035 1.415 . S
C1038 H1028 0.930 . S
C1038 C1036 1.419 . S
C1038 C1039 1.362 . S
C1039 H1029 0.930 . S
C1039 C1032 1.409 . S
C1039 C1038 1.362 . S
H1040 C1046 0.930 . S
H1041 C1049 0.930 . S
H1042 C1050 0.930 . S
H1043 C1051 0.930 . S
H1044 C1054 0.930 . S
H1045 C1055 0.930 . S
C1046 H1040 0.930 . S
C1046 C1047 1.355 . S
C1046 C1048 1.415 1_556 S
C1047 C1046 1.355 . S
C1047 C1049 1.419 . S
C1048 C1046 1.415 1_554 S
C1048 C1053 1.425 . S
C1048 C1055 1.409 . S
C1049 H1041 0.930 . S
C1049 C1047 1.419 . S
C1049 C1050 1.362 . S
C1050 H1042 0.930 . S
C1050 C1049 1.362 . S
C1050 C1053 1.409 1_556 S
C1051 H1043 0.930 . S
C1051 C1052 1.355 . S
C1051 C1053 1.415 . S
C1052 C1051 1.355 . S
C1052 C1054 1.419 . S
C1053 C1048 1.425 . S
C1053 C1050 1.409 1_554 S
C1053 C1051 1.415 . S
C1054 H1044 0.930 . S
C1054 C1052 1.419 . S
C1054 C1055 1.362 . S
C1055 H1045 0.930 . S
C1055 C1048 1.409 . S
C1055 C1054 1.362 . S
H1056 C1062 0.930 . S
H1057 C1065 0.930 . S
H1058 C1066 0.930 . S
H1059 C1067 0.930 . S
H1060 C1070 0.930 . S
H1061 C1071 0.930 . S
C1062 H1056 0.930 . S
C1062 C1063 1.355 . S
C1062 C1064 1.415 . S
C1063 C1062 1.355 . S
C1063 C1065 1.419 . S
C1064 C1062 1.415 . S
C1064 C1069 1.425 . S
C1064 C1071 1.409 1_554 S
C1065 H1057 0.930 . S
C1065 C1063 1.419 . S
C1065 C1066 1.362 . S
C1066 H1058 0.930 . S
C1066 C1065 1.362 . S
C1066 C1069 1.409 . S
C1067 H1059 0.930 . S
C1067 C1068 1.355 . S
C1067 C1069 1.415 1_556 S
C1068 C1067 1.355 . S
C1068 C1070 1.419 . S
C1069 C1064 1.425 . S
C1069 C1066 1.409 . S
C1069 C1067 1.415 1_554 S
C1070 H1060 0.930 . S
C1070 C1068 1.419 . S
C1070 C1071 1.362 . S
C1071 H1061 0.930 . S
C1071 C1064 1.409 1_556 S
C1071 C1070 1.362 . S
H1072 C1078 0.930 . S
H1073 C1081 0.930 . S
H1074 C1082 0.930 . S
H1075 C1083 0.930 . S
H1076 C1086 0.930 . S
H1077 C1087 0.930 . S
C1078 H1072 0.930 . S
C1078 C1079 1.355 . S
C1078 C1080 1.415 . S
C1079 C1078 1.355 . S
C1079 C1081 1.419 . S
C1080 C1078 1.415 . S
C1080 C1085 1.425 . S
C1080 C1087 1.409 . S
C1081 H1073 0.930 . S
C1081 C1079 1.419 . S
C1081 C1082 1.362 . S
C1082 H1074 0.930 . S
C1082 C1081 1.362 . S
C1082 C1085 1.409 . S
C1083 H1075 0.930 . S
C1083 C1084 1.355 . S
C1083 C1085 1.415 . S
C1084 C1083 1.355 . S
C1084 C1086 1.419 . S
C1085 C1080 1.425 . S
C1085 C1082 1.409 . S
C1085 C1083 1.415 . S
C1086 H1076 0.930 . S
C1086 C1084 1.419 . S
C1086 C1087 1.362 . S
C1087 H1077 0.930 . S
C1087 C1080 1.409 . S
C1087 C1086 1.362 . S
H1088 C1094 0.930 . S
H1089 C1097 0.930 . S
H1090 C1098 0.930 . S
H1091 C1099 0.930 . S
H1092 C1102 0.930 . S
H1093 C1103 0.930 . S
C1094 H1088 0.930 . S
C1094 C1095 1.355 . S
C1094 C1096 1.415 . S
C1095 C1094 1.355 . S
C1095 C1097 1.419 . S
C1096 C1094 1.415 . S
C1096 C1101 1.425 . S
C1096 C1103 1.409 . S
C1097 H1089 0.930 . S
C1097 C1095 1.419 . S
C1097 C1098 1.362 . S
C1098 H1090 0.930 . S
C1098 C1097 1.362 . S
C1098 C1101 1.409 . S
C1099 H1091 0.930 . S
C1099 C1100 1.355 . S
C1099 C1101 1.415 . S
C1100 C1099 1.355 . S
C1100 C1102 1.419 . S
C1101 C1096 1.425 . S
C1101 C1098 1.409 . S
C1101 C1099 1.415 . S
C1102 H1092 0.930 . S
C1102 C1100 1.419 . S
C1102 C1103 1.362 . S
C1103 H1093 0.930 . S
C1103 C1096 1.409 . S
C1103 C1102 1.362 . S
H1104 C1110 0.930 . S
H1105 C1113 0.930 . S
H1106 C1114 0.930 . S
H1107 C1115 0.930 . S
H1108 C1118 0.930 . S
H1109 C1119 0.930 . S
C1110 H1104 0.930 . S
C1110 C1111 1.355 . S
C1110 C1112 1.415 1_554 S
C1111 C1110 1.355 . S
C1111 C1113 1.419 . S
C1112 C1110 1.415 1_556 S
C1112 C1117 1.425 . S
C1112 C1119 1.409 . S
C1113 H1105 0.930 . S
C1113 C1111 1.419 . S
C1113 C1114 1.362 . S
C1114 H1106 0.930 . S
C1114 C1113 1.362 . S
C1114 C1117 1.409 1_554 S
C1115 H1107 0.930 . S
C1115 C1116 1.355 . S
C1115 C1117 1.415 . S
C1116 C1115 1.355 . S
C1116 C1118 1.419 . S
C1117 C1112 1.425 . S
C1117 C1114 1.409 1_556 S
C1117 C1115 1.415 . S
C1118 H1108 0.930 . S
C1118 C1116 1.419 . S
C1118 C1119 1.362 . S
C1119 H1109 0.930 . S
C1119 C1112 1.409 . S
C1119 C1118 1.362 . S
H1120 C1126 0.930 . S
H1121 C1129 0.930 . S
H1122 C1130 0.930 . S
H1123 C1131 0.930 . S
H1124 C1134 0.930 . S
H1125 C1135 0.930 . S
C1126 H1120 0.930 . S
C1126 C1127 1.355 . S
C1126 C1128 1.415 . S
C1127 C1126 1.355 . S
C1127 C1129 1.419 . S
C1128 C1126 1.415 . S
C1128 C1133 1.425 . S
C1128 C1135 1.409 . S
C1129 H1121 0.930 . S
C1129 C1127 1.419 . S
C1129 C1130 1.362 . S
C1130 H1122 0.930 . S
C1130 C1129 1.362 . S
C1130 C1133 1.409 . S
C1131 H1123 0.930 . S
C1131 C1132 1.355 . S
C1131 C1133 1.415 . S
C1132 C1131 1.355 . S
C1132 C1134 1.419 . S
C1133 C1128 1.425 . S
C1133 C1130 1.409 . S
C1133 C1131 1.415 . S
C1134 H1124 0.930 . S
C1134 C1132 1.419 . S
C1134 C1135 1.362 . S
C1135 H1125 0.930 . S
C1135 C1128 1.409 . S
C1135 C1134 1.362 . S
H1136 C1142 0.930 . S
H1137 C1145 0.930 . S
H1138 C1146 0.930 . S
H1139 C1147 0.930 . S
H1140 C1150 0.930 . S
H1141 C1151 0.930 . S
C1142 H1136 0.930 . S
C1142 C1143 1.355 . S
C1142 C1144 1.415 . S
C1143 C1142 1.355 . S
C1143 C1145 1.419 . S
C1144 C1142 1.415 . S
C1144 C1149 1.425 . S
C1144 C1151 1.409 . S
C1145 H1137 0.930 . S
C1145 C1143 1.419 . S
C1145 C1146 1.362 . S
C1146 H1138 0.930 . S
C1146 C1145 1.362 . S
C1146 C1149 1.409 . S
C1147 H1139 0.930 . S
C1147 C1148 1.355 . S
C1147 C1149 1.415 . S
C1148 C1147 1.355 . S
C1148 C1150 1.419 . S
C1149 C1144 1.425 . S
C1149 C1146 1.409 . S
C1149 C1147 1.415 . S
C1150 H1140 0.930 . S
C1150 C1148 1.419 . S
C1150 C1151 1.362 . S
C1151 H1141 0.930 . S
C1151 C1144 1.409 . S
C1151 C1150 1.362 . S
H1152 C1158 0.930 . S
H1153 C1161 0.930 . S
H1154 C1162 0.930 . S
H1155 C1163 0.930 . S
H1156 C1166 0.930 1_554 S
H1157 C1167 0.930 . S
C1158 H1152 0.930 . S
C1158 C1159 1.355 . S
C1158 C1160 1.415 . S
C1159 C1158 1.355 . S
C1159 C1161 1.419 . S
C1160 C1158 1.415 . S
C1160 C1165 1.425 . S
C1160 C1167 1.409 . S
C1161 H1153 0.930 . S
C1161 C1159 1.419 . S
C1161 C1162 1.362 . S
C1162 H1154 0.930 . S
C1162 C1161 1.362 . S
C1162 C1165 1.409 . S
C1163 H1155 0.930 . S
C1163 C1164 1.355 . S
C1163 C1165 1.415 . S
C1164 C1163 1.355 . S
C1164 C1166 1.419 . S
C1165 C1160 1.425 . S
C1165 C1162 1.409 . S
C1165 C1163 1.415 . S
C1166 H1156 0.930 1_556 S
C1166 C1164 1.419 . S
C1166 C1167 1.362 . S
C1167 H1157 0.930 . S
C1167 C1160 1.409 . S
C1167 C1166 1.362 . S
H1168 C1174 0.930 . S
H1169 C1177 0.925 1_655 S
H1170 C1178 0.943 . S
H1171 C1179 0.930 . S
H1172 C1182 0.930 . S
H1173 C1183 0.930 . S
C1174 H1168 0.930 . S
C1174 C1175 1.355 . S
C1174 C1176 1.415 . S
C1175 C1174 1.355 . S
C1175 C1177 1.425 . S
C1176 C1174 1.415 . S
C1176 C1181 1.425 . S
C1176 C1183 1.409 . S
C1177 H1169 0.925 1_455 S
C1177 C1175 1.425 . S
C1177 C1178 1.362 1_455 S
C1178 H1170 0.943 . S
C1178 C1177 1.362 1_655 S
C1178 C1181 1.397 1_655 S
C1179 H1171 0.930 . S
C1179 C1180 1.355 . S
C1179 C1181 1.415 . S
C1180 C1179 1.355 . S
C1180 C1182 1.419 . S
C1181 C1176 1.425 . S
C1181 C1178 1.397 1_455 S
C1181 C1179 1.415 . S
C1182 H1172 0.930 . S
C1182 C1180 1.419 . S
C1182 C1183 1.362 . S
C1183 H1173 0.930 . S
C1183 C1176 1.409 . S
C1183 C1182 1.362 . S
C551 C271 1.277 . S
C556 C33 1.268 . S
C567 C67 1.238 . S
C572 C169 1.236 . S
C583 C101 1.279 . S
C588 C203 1.255 . S
C599 C237 1.236 . S
C604 C135 1.268 . S
C615 C376 1.638 . S
C620 C138 1.637 . S
C631 C274 1.622 . S
C636 C2 1.622 . S
C647 C206 1.658 . S
C652 C342 1.659 . S
C663 C70 1.657 . S
C668 C308 1.656 . S
C679 C339 1.231 . S
C684 C441 1.257 . S
C695 C509 1.235 . S
C700 C373 1.266 . S
C711 C475 1.236 . S
C716 C305 1.267 . S
C727 C407 1.267 . S
C732 C543 1.235 . S
C743 C104 1.622 . S
C748 C478 1.622 . S
C759 C172 1.655 . S
C764 C410 1.653 . S
C775 C36 1.624 . S
C780 C512 1.623 . S
C791 C240 1.663 . S
C796 C444 1.664 . S
C807 C20 1.691 . S
C812 C156 1.701 . S
C823 C190 1.758 . S
C828 C54 1.749 . S
C839 C224 1.747 . S
C844 C88 1.758 . S
C855 C122 1.757 . S
C860 C258 1.754 . S
C871 C360 1.741 . S
C876 C292 1.757 . S
C887 C326 1.735 . S
C892 C394 1.708 . S
C903 C428 1.692 . S
C908 C496 1.695 . S
C919 C530 1.748 . S
C924 C462 1.724 . S
C935 C9 1.011 1_655 S
C940 C5 0.980 1_455 S
C951 C43 0.980 . S
C956 C39 0.964 . S
C967 C73 1.026 1_554 S
C972 C77 0.947 . S
C983 C107 0.931 . S
C988 C111 0.903 . S
C999 C141 1.016 1_455 S
C1004 C145 1.039 1_655 S
C1015 C175 1.056 . S
C1020 C179 1.043 . S
C1031 C213 0.886 . S
C1036 C209 0.960 1_556 S
C1047 C247 0.891 . S
C1052 C243 0.934 . S
C1063 C277 0.946 . S
C1068 C281 0.951 . S
C1079 C311 1.016 . S
C1084 C315 1.033 . S
C1095 C349 0.889 . S
C1100 C345 0.935 . S
C1111 C383 0.883 . S
C1116 C379 0.944 . S
C1127 C417 1.030 . S
C1132 C413 1.061 1_554 S
C1143 C451 0.999 . S
C1148 C447 1.055 . S
C1159 C485 0.970 . S
C1164 C481 0.957 1_556 S
C1175 C515 1.050 . S
C1180 C519 1.046 . S
