# Generated by pormake.
# Topology sxa, (6)-cn, num edge types: 1
# Building blocks:
#     Node 0, Type 0, BuildingBlock: JUFBIX_clean_sbu_0, # of connection points: 6
#     Node 1, Type 0, BuildingBlock: JUFBIX_clean_sbu_0, # of connection points: 6
#     Node 2, Type 0, BuildingBlock: JUFBIX_clean_sbu_0, # of connection points: 6
#     Node 3, Type 0, BuildingBlock: JUFBIX_clean_sbu_0, # of connection points: 6
#     Edge 4, Type (0, 0), BuildingBlock: KIFKEQ_clean_linker_1, # of connection points: 2
#     Edge 5, Type (0, 0), BuildingBlock: KIFKEQ_clean_linker_1, # of connection points: 2
#     Edge 6, Type (0, 0), BuildingBlock: KIFKEQ_clean_linker_1, # of connection points: 2
#     Edge 7, Type (0, 0), BuildingBlock: KIFKEQ_clean_linker_1, # of connection points: 2
#     Edge 8, Type (0, 0), BuildingBlock: KIFKEQ_clean_linker_1, # of connection points: 2
#     Edge 9, Type (0, 0), BuildingBlock: KIFKEQ_clean_linker_1, # of connection points: 2
#     Edge 10, Type (0, 0), BuildingBlock: KIFKEQ_clean_linker_1, # of connection points: 2
#     Edge 11, Type (0, 0), BuildingBlock: KIFKEQ_clean_linker_1, # of connection points: 2
#     Edge 12, Type (0, 0), BuildingBlock: KIFKEQ_clean_linker_1, # of connection points: 2
#     Edge 13, Type (0, 0), BuildingBlock: KIFKEQ_clean_linker_1, # of connection points: 2
#     Edge 14, Type (0, 0), BuildingBlock: KIFKEQ_clean_linker_1, # of connection points: 2
#     Edge 15, Type (0, 0), BuildingBlock: KIFKEQ_clean_linker_1, # of connection points: 2
# Relax obj value: 0.392
# Max RMSD: 0.292
# Mean RMSD: 0.292
data_MOF--net-sxa--node1-JUFBIX_clean_sbu_0--edge1-KIFKEQ_clean_linker_1
_symmetry_space_group_name_H-M    P1
_symmetry_Int_Tables_number       1
_symmetry_cell_setting            triclinic
loop_
_symmetry_equiv_pos_as_xyz
'x, y, z'
_cell_length_a     28.559199
_cell_length_b     27.107238
_cell_length_c     15.738396
_cell_angle_alpha  89.58576
_cell_angle_beta   74.946055
_cell_angle_gamma 86.204463
loop_
_atom_site_label
_atom_site_type_symbol
_atom_site_fract_x
_atom_site_fract_y
_atom_site_fract_z
_atom_type_partial_charge
Co0 Co 0.00649 0.83627 0.19292 0.0
C1 C 0.01376 0.93429 0.22619 0.0
Co2 Co 0.03665 0.84559 0.30772 0.0
C3 C 0.96114 0.7885 0.07897 0.0
C4 C 0.00012 0.84871 1.01451 0.0
N5 N 0.98561 0.82679 0.09353 0.0
N6 N 0.96077 0.78456 0.99398 0.0
C7 C 0.98426 0.82305 0.95312 0.0
H8 H 0.94417 0.76352 0.13004 0.0
H9 H 0.02252 0.87998 1.00165 0.0
C10 C 0.02987 0.74688 0.26068 0.0
N11 N 0.06322 0.85351 0.40491 0.0
C12 C 0.1069 0.83498 0.41494 0.0
C13 C 0.0443 0.88165 0.47741 0.0
N14 N 0.11616 0.85062 0.49045 0.0
C15 C 0.0764 0.87992 0.52974 0.0
C16 C 0.93548 0.84094 0.35251 0.0
O17 O 0.01185 0.76916 0.20526 0.0
O18 O 0.04469 0.77215 0.31595 0.0
O19 O 0.97248 0.84532 0.3823 0.0
O20 O 0.94127 0.8379 0.26925 0.0
O21 O 0.02959 0.9183 0.29133 0.0
H22 H 0.00983 0.90311 0.49046 0.0
H23 H 0.13169 0.81078 0.36691 0.0
O24 O 0.00091 0.90375 0.17786 0.0
O25 O 0.07178 0.83317 0.11954 0.0
O26 O 0.09815 0.8459 0.23566 0.0
C27 C 0.10655 0.83934 0.15385 0.0
H28 H 0.99 0.83158 0.88402 0.0
H29 H 0.07129 0.90023 0.59074 0.0
Co30 Co 0.51943 0.27827 0.18137 0.0
C31 C 0.53048 0.3756 0.20819 0.0
Co32 Co 0.54256 0.28805 0.30414 0.0
C33 C 0.47298 0.23457 1.06373 0.0
C34 C 0.52602 0.2833 0.99689 0.0
N35 N 0.50354 0.26731 0.07765 0.0
N36 N 0.4756 0.22886 0.97747 0.0
C37 C 0.50865 0.25997 0.93512 0.0
H38 H 0.44876 0.21577 0.11657 0.0
H39 H 0.55402 0.30942 0.98365 0.0
C40 C 0.52963 0.19 0.26516 0.0
N41 N 0.56487 0.29742 0.4066 0.0
C42 C 0.60898 0.3116 0.41155 0.0
C43 C 0.5426 0.28563 0.49004 0.0
N44 N 0.61524 0.30869 0.49416 0.0
C45 C 0.57308 0.29264 0.54357 0.0
C46 C 0.44197 0.29382 0.33277 0.0
O47 O 0.519 0.21162 0.20106 0.0
O48 O 0.54186 0.21549 0.32333 0.0
O49 O 0.47697 0.29633 0.36848 0.0
O50 O 0.45132 0.28675 0.2494 0.0
O51 O 0.54297 0.3606 0.27744 0.0
H52 H 0.50714 0.27095 0.51036 0.0
H53 H 0.63653 0.32297 0.35502 0.0
O54 O 0.5191 0.3445 0.15914 0.0
O55 O 0.58701 0.26978 0.11719 0.0
O56 O 0.60579 0.27877 0.24185 0.0
C57 C 0.61872 0.26998 0.1605 0.0
H58 H 0.51908 0.26595 0.86484 0.0
H59 H 0.56538 0.28436 0.61301 0.0
Co60 Co 0.01263 0.34785 0.85502 0.0
C61 C 0.04254 0.43 0.93547 0.0
Co62 Co 0.05389 0.32997 0.9537 0.0
C63 C 0.93393 0.34493 0.76534 0.0
C64 C 0.98541 0.39785 0.70999 0.0
N65 N 0.97559 0.36373 0.77359 0.0
N66 N 0.9175 0.36588 0.69875 0.0
C67 C 0.95016 0.39929 0.66434 0.0
H68 H 0.91624 0.31614 0.80723 0.0
H69 H 0.0162 0.42052 0.6978 0.0
C70 C 0.02505 0.24666 0.88795 0.0
N71 N 0.08764 0.3111 1.03524 0.0
C72 C 0.13602 0.31099 1.02193 0.0
C73 C 0.07329 0.27856 0.10086 0.0
N74 N 0.15292 0.27739 0.07186 0.0
C75 C 0.11354 0.25739 0.12292 0.0
C76 C 0.95524 0.34267 1.02311 0.0
O77 O 0.00356 0.27604 0.84384 0.0
O78 O 0.04992 0.26438 0.93396 0.0
O79 O -0.00555 0.33011 1.0435 0.0
O80 O 0.95613 0.35315 0.94438 0.0
O81 O 0.059 0.39545 0.97621 0.0
H82 H 0.03703 0.26581 0.12256 0.0
H83 H 0.1593 0.32972 0.96779 0.0
O84 O 0.02152 0.41911 0.87553 0.0
O85 O 0.07178 0.34233 0.76134 0.0
O86 O 0.11266 0.32952 0.86043 0.0
C87 C 0.11242 0.33466 0.78008 0.0
H88 H 0.94856 0.42391 0.61064 0.0
H89 H 0.11425 0.22597 0.16554 0.0
Co90 Co 0.51422 0.78787 0.8613 0.0
C91 C 0.53407 0.86537 0.96542 0.0
Co92 Co 0.55169 0.76472 0.96275 0.0
C93 C 0.4375 0.79635 0.76484 0.0
C94 C 0.49584 0.84279 0.71388 0.0
N95 N 0.48103 0.80864 0.77595 0.0
N96 N 0.42482 0.82142 0.69807 0.0
C97 C 0.46183 0.85057 0.66629 0.0
H98 H 0.41543 0.76971 0.80542 0.0
H99 H 0.52891 0.86175 0.70487 0.0
C100 C 0.53327 0.68523 0.87248 0.0
N101 N 0.58151 0.74218 1.04719 0.0
C102 C 0.62589 0.75272 1.05232 0.0
C103 C 0.57116 0.7015 0.09695 0.0
N104 N 0.64484 0.71896 0.09926 0.0
C105 C 0.6106 0.68661 0.12792 0.0
C106 C 0.45154 0.7675 1.01715 0.0
O107 O 0.5108 0.71663 0.83307 0.0
O108 O 0.55528 0.70085 0.92518 0.0
O109 O 0.48917 0.75549 1.04339 0.0
O110 O 0.45572 0.78505 0.94137 0.0
O111 O 0.54949 0.82866 1.00285 0.0
H112 H 0.53969 0.68053 0.10119 0.0
H113 H 0.64668 0.78049 1.01232 0.0
O114 O 0.5173 0.85774 0.89861 0.0
O115 O 0.57537 0.79081 0.77716 0.0
O116 O 0.61358 0.77396 0.87908 0.0
C117 C 0.61508 0.78493 0.79948 0.0
H118 H 0.46376 0.877 0.61386 0.0
H119 H 0.61574 0.65215 0.16056 0.0
H120 H 0.97483 0.51038 0.96003 0.0
H121 H 0.11685 0.46338 0.98969 0.0
H122 H 0.97419 0.58423 1.05003 0.0
H123 H 0.11558 0.53475 0.08198 0.0
H124 H 0.11425 0.69211 0.19211 0.0
H125 H 0.11967 0.61864 0.10073 0.0
H126 H 0.96465 0.60773 0.19793 0.0
H127 H 0.95962 0.6825 0.28579 0.0
C128 C 0.00644 0.51649 0.98353 0.0
C129 C 0.04602 0.4811 0.96683 0.0
C130 C 0.00572 0.55823 1.03715 0.0
C131 C 0.04447 0.56543 0.07567 0.0
C132 C 0.0851 0.53129 1.054 0.0
C133 C 0.08587 0.4901 1.00048 0.0
C134 C 0.08181 0.6725 0.19736 0.0
C135 C 0.03674 0.69261 0.24812 0.0
C136 C 0.08462 0.63061 0.14351 0.0
C137 C 0.04236 0.60735 0.13949 0.0
C138 C -0.00211 0.62507 0.19661 0.0
C139 C -0.00484 0.6671 0.24969 0.0
H140 H 0.45103 0.42444 0.18195 0.0
H141 H 0.60266 0.44097 0.1589 0.0
H142 H 0.44874 0.49273 0.0831 0.0
H143 H 0.60026 0.51247 1.06337 0.0
H144 H 0.60122 0.60831 0.83085 0.0
H145 H 0.59925 0.535 0.9219 0.0
H146 H 0.44766 0.57315 1.04667 0.0
H147 H 0.44973 0.64374 0.95149 0.0
C148 C 0.48344 0.44459 0.15914 0.0
C149 C 0.52671 0.42787 0.18026 0.0
C150 C 0.48232 0.48385 0.10125 0.0
C151 C 0.52447 0.50847 1.06274 0.0
C152 C 0.56716 0.49392 0.08903 0.0
C153 C 0.56838 0.45382 0.14634 0.0
C154 C 0.56669 0.59902 0.87361 0.0
C155 C 0.5253 0.6318 0.88219 0.0
C156 C 0.56593 0.55786 0.92878 0.0
C157 C 0.52377 0.54835 0.99512 0.0
C158 C 0.48112 0.57836 0.99716 0.0
C159 C 0.48184 0.61889 0.94076 0.0
H160 H 0.59884 0.89101 1.05226 0.0
H161 H 0.47394 0.95133 0.97069 0.0
H162 H 0.59708 0.96406 0.14052 0.0
H163 H 0.47309 1.02658 1.05794 0.0
H164 H 0.45291 0.13426 0.28488 0.0
H165 H 0.45471 0.05601 0.20789 0.0
H166 H 0.61163 1.04821 0.14021 0.0
H167 H 0.60921 0.12589 0.21905 0.0
C168 C 0.57133 0.92047 1.05186 0.0
C169 C 0.53642 0.91504 1.00413 0.0
C170 C 0.57047 0.96272 0.10271 0.0
C171 C 0.53472 1.00149 0.10779 0.0
C172 C 0.50069 0.99712 1.0573 0.0
C173 C 0.50158 0.95438 1.00587 0.0
C174 C 0.48769 0.11421 0.25796 0.0
C175 C 0.53089 0.13548 0.26102 0.0
C176 C 0.48882 0.07007 0.21119 0.0
C177 C 0.53329 1.04589 0.16565 0.0
C178 C 0.57653 0.06525 0.17458 0.0
C179 C 0.5753 0.10945 0.22156 0.0
H180 H 0.08595 0.95881 0.09159 0.0
H181 H 0.95324 1.01929 0.26726 0.0
H182 H 0.08465 1.02655 0.99207 0.0
H183 H 0.95362 0.09106 0.17156 0.0
H184 H 0.94147 0.20043 0.96055 0.0
H185 H 0.9396 0.12496 1.04714 0.0
H186 H 0.09579 0.10253 0.94741 0.0
H187 H 0.09606 0.17456 0.85747 0.0
C188 C 0.05785 0.98848 0.11138 0.0
C189 C 0.02077 0.9845 0.18913 0.0
C190 C 0.05674 1.02772 1.0535 0.0
C191 C 0.01895 0.0655 0.07197 0.0
C192 C 0.98296 0.06271 0.15273 0.0
C193 C 0.9834 1.02228 0.20965 0.0
C194 C 0.97474 0.17731 0.95311 0.0
C195 C 0.01876 0.19304 0.9003 0.0
C196 C 0.97414 0.13475 1.00549 0.0
C197 C 0.01774 0.10721 1.00755 0.0
C198 C 0.061 0.12118 0.94856 0.0
C199 C 0.06126 0.1627 0.89516 0.0
H200 H 0.41303 0.84654 0.53676 0.0
H201 H 0.33555 0.79293 0.78971 0.0
H202 H 0.33887 0.8505 0.48847 0.0
H203 H 0.26112 0.79494 0.7399 0.0
H204 H 0.12588 0.86019 0.65763 0.0
H205 H 0.19979 0.84976 0.70704 0.0
H206 H 0.28091 0.80637 0.44374 0.0
H207 H 0.20727 0.81892 0.39346 0.0
C208 C 0.38022 0.83538 0.58235 0.0
C209 C 0.38075 0.8199 0.66788 0.0
C210 C 0.33743 0.83703 0.55396 0.0
C211 C 0.29331 0.82314 0.6098 0.0
C212 C 0.29394 0.80664 0.69492 0.0
C213 C 0.33696 0.80493 0.72342 0.0
C214 C 0.15939 0.84871 0.60978 0.0
C215 C 0.16001 0.84099 0.52089 0.0
C216 C 0.20203 0.84205 0.63865 0.0
C217 C 0.24701 0.82735 0.57981 0.0
C218 C 0.24744 0.81849 0.49127 0.0
C219 C 0.20476 0.82517 0.46235 0.0
H220 H 0.12716 0.31933 0.60164 0.0
H221 H 0.20392 0.34141 0.79957 0.0
H222 H 0.20473 0.30799 0.48972 0.0
H223 H 0.28072 0.33283 0.68844 0.0
H224 H 0.41385 0.26564 0.50242 0.0
H225 H 0.33428 0.2746 0.60453 0.0
H226 H 0.27543 0.34108 0.40053 0.0
H227 H 0.35596 0.32932 0.29599 0.0
C228 C 0.16055 0.32235 0.62112 0.0
C229 C 0.15918 0.33081 0.70995 0.0
C230 C 0.20519 0.31609 0.55673 0.0
C231 C 0.24967 0.31867 0.5793 0.0
C232 C 0.24779 0.32887 0.66797 0.0
C233 C 0.20344 0.3343 0.73217 0.0
C234 C 0.38396 0.28204 0.47893 0.0
C235 C 0.39151 0.29721 0.39106 0.0
C236 C 0.33806 0.2877 0.53811 0.0
C237 C 0.29795 0.30983 0.51238 0.0
C238 C 0.30511 0.32377 0.42337 0.0
C239 C 0.35133 0.31719 0.36322 0.0
H240 H 0.89991 0.38696 0.53956 0.0
H241 H 0.83625 0.32137 0.79032 0.0
H242 H 0.82747 0.37396 0.49211 0.0
H243 H 0.7641 0.30615 0.74096 0.0
H244 H 0.6207 0.33136 0.65982 0.0
H245 H 0.69318 0.34349 0.70936 0.0
H246 H 0.78211 0.31607 0.44469 0.0
H247 H 0.70951 0.30463 0.39516 0.0
C248 C 0.87057 0.36969 0.58502 0.0
C249 C 0.8745 0.35571 0.66957 0.0
C250 C 0.82884 0.36153 0.55698 0.0
C251 C 0.78925 0.33881 0.61209 0.0
C252 C 0.79324 0.32433 0.6965 0.0
C253 C 0.83514 0.33257 0.72471 0.0
C254 C 0.65566 0.32769 0.61203 0.0
C255 C 0.65869 0.31709 0.52306 0.0
C256 C 0.69757 0.33449 0.64071 0.0
C257 C 0.74419 0.33084 0.58157 0.0
C258 C 0.74716 0.32018 0.49252 0.0
C259 C 0.70521 0.31356 0.46378 0.0
H260 H 0.9099 0.8586 0.52988 0.0
H261 H 0.85155 0.81097 0.31935 0.0
H262 H 0.83328 0.8452 0.63603 0.0
H263 H 0.775 0.79596 0.42615 0.0
H264 H 0.62845 0.81768 0.6306 0.0
H265 H 0.70418 0.83277 0.52322 0.0
H266 H 0.78445 0.78296 0.70934 0.0
H267 H 0.70822 0.76942 0.81806 0.0
C268 C 0.88065 0.84528 0.50606 0.0
C269 C 0.88704 0.83603 0.4157 0.0
C270 C 0.83665 0.83707 0.56737 0.0
C271 C 0.79763 0.81898 0.5405 0.0
C272 C 0.8038 0.81044 0.44975 0.0
C273 C 0.84784 0.81899 0.3882 0.0
C274 C 0.66223 0.8098 0.64878 0.0
C275 C 0.66203 0.79232 0.73336 0.0
C276 C 0.7059 0.81822 0.58666 0.0
C277 C 0.7509 0.80921 0.60684 0.0
C278 C 0.75068 0.79123 0.69136 0.0
C279 C 0.70688 0.78306 0.7538 0.0
H280 H 0.39538 0.70842 0.96157 0.0
H281 H 0.3972 0.80808 0.17264 0.0
H282 H 0.30885 0.72181 0.99109 0.0
H283 H 0.30854 0.82081 0.2058 0.0
H284 H 0.17976 0.89882 0.13787 0.0
H285 H 0.26377 0.86898 0.12355 0.0
H286 H 0.22826 0.72168 0.06887 0.0
H287 H 0.14534 0.75302 0.07669 0.0
C288 C 0.37662 0.73018 1.01915 0.0
C289 C 0.40267 0.75674 1.06563 0.0
C290 C 0.32674 0.73866 1.03524 0.0
C291 C 0.30196 0.77367 0.0988 0.0
C292 C 0.32715 0.79489 0.15408 0.0
C293 C 0.3776 0.78672 0.137 0.0
C294 C 0.19094 0.86071 0.11808 0.0
C295 C 0.15689 0.82817 0.10699 0.0
C296 C 0.23842 0.84314 0.11311 0.0
C297 C 0.2522 0.79251 0.09883 0.0
C298 C 0.21884 0.76083 0.0806 0.0
C299 C 0.17161 0.77881 0.08341 0.0
H300 H 0.23352 0.32623 1.02462 0.0
H301 H 0.18143 0.17966 1.05887 0.0
H302 H 0.31516 0.29122 0.95838 0.0
H303 H 0.26406 0.14393 0.99291 0.0
H304 H 0.42629 0.14934 1.0457 0.0
H305 H 0.34251 0.14299 1.04187 0.0
H306 H 0.36384 0.24277 0.82227 0.0
H307 H 0.44651 0.25176 0.82974 0.0
C308 C 0.23989 0.28642 1.01832 0.0
C309 C 0.20161 0.2557 1.04753 0.0
C310 C 0.28624 0.2663 0.97863 0.0
C311 C 0.29547 0.21482 0.96746 0.0
C312 C 0.25753 0.18373 0.99913 0.0
C313 C 0.21072 0.20409 1.03854 0.0
C314 C 0.41361 0.1685 0.99444 0.0
C315 C 0.44116 0.20445 0.9433 0.0
C316 C 0.36578 0.16418 0.99132 0.0
C317 C 0.34628 0.19509 0.93556 0.0
C318 C 0.37792 0.22027 0.86845 0.0
C319 C 0.4254 0.22545 0.87286 0.0
H320 H 0.6817 0.21204 0.22146 0.0
H321 H 0.67192 0.3154 1.01601 0.0
H322 H 0.76609 0.2286 0.20369 0.0
H323 H 0.75782 0.33031 0.99412 0.0
H324 H 0.8753 0.40513 1.06292 0.0
H325 H 0.79351 0.37735 0.08802 0.0
H326 H 0.84849 0.22787 0.12165 0.0
H327 H 0.92963 0.25669 0.10154 0.0
C328 C 0.69866 0.23641 0.16915 0.0
C329 C 0.67073 0.26304 0.12066 0.0
C330 C 0.74686 0.24614 0.15941 0.0
C331 C 0.76789 0.28216 0.09999 0.0
C332 C 0.74171 0.30374 1.04296 0.0
C333 C 0.69307 0.29436 1.05357 0.0
C334 C 0.8691 0.36696 0.08083 0.0
C335 C 0.90818 0.3329 0.08049 0.0
C336 C 0.82277 0.35069 0.09228 0.0
C337 C 0.81521 0.30006 0.10232 0.0
C338 C 0.85335 0.26703 0.11277 0.0
C339 C 0.89961 0.2836 0.10294 0.0
H340 H 0.91153 0.80271 0.87094 0.0
H341 H 0.94716 0.68973 1.04278 0.0
H342 H 0.83644 0.7643 0.87487 0.0
H343 H 0.8709 0.65252 1.04948 0.0
H344 H 0.69926 0.63541 1.03657 0.0
H345 H 0.78786 0.63079 0.97185 0.0
H346 H 0.79247 0.77987 1.06263 0.0
H347 H 0.70482 0.78419 0.12682 0.0
C348 C 0.90481 0.76806 0.90514 0.0
C349 C 0.93326 0.75069 0.96081 0.0
C350 C 0.86191 0.74596 0.9072 0.0
C351 C 0.84757 0.70699 0.96548 0.0
C352 C 0.88112 0.68311 1.00531 0.0
C353 C 0.92434 0.70484 1.00235 0.0
C354 C 0.71984 0.66627 1.04526 0.0
C355 C 0.69594 0.7102 0.08674 0.0
C356 C 0.76995 0.66391 1.00699 0.0
C357 C 0.79587 0.70563 1.00977 0.0
C358 C 0.7725 0.74783 1.05758 0.0
C359 C 0.72289 0.75008 0.09566 0.0
loop_
_geom_bond_atom_site_label_1
_geom_bond_atom_site_label_2
_geom_bond_distance
_geom_bond_site_symmetry_2
_ccdc_geom_bond_type
Co0 N5 2.057 1_455 S
Co0 O17 2.021 . S
Co0 O20 2.062 1_455 S
Co0 O24 2.117 . S
Co0 O25 2.020 . S
C1 O21 1.259 . S
C1 O24 1.258 . S
Co2 N11 2.057 . S
Co2 O18 2.117 . S
Co2 O19 2.020 1_455 S
Co2 O21 2.021 . S
Co2 O26 2.062 . S
C3 N5 1.316 . S
C3 N6 1.347 1_554 S
C3 H8 0.931 . S
C4 N5 1.375 . S
C4 C7 1.350 1_554 S
C4 H9 0.930 . S
N5 Co0 2.057 1_655 S
N5 C3 1.316 . S
N5 C4 1.375 . S
N6 C3 1.347 1_556 S
N6 C7 1.373 . S
C7 C4 1.350 1_556 S
C7 N6 1.373 . S
C7 H28 0.931 . S
H8 C3 0.931 . S
H9 C4 0.930 . S
C10 O17 1.259 . S
C10 O18 1.258 . S
N11 Co2 2.057 . S
N11 C12 1.316 . S
N11 C13 1.375 . S
C12 N11 1.316 . S
C12 N14 1.347 . S
C12 H23 0.931 . S
C13 N11 1.375 . S
C13 C15 1.350 . S
C13 H22 0.930 . S
N14 C12 1.347 . S
N14 C15 1.373 . S
C15 C13 1.350 . S
C15 N14 1.373 . S
C15 H29 0.931 . S
C16 O19 1.256 . S
C16 O20 1.255 . S
O17 Co0 2.021 . S
O17 C10 1.259 . S
O18 Co2 2.117 . S
O18 C10 1.258 . S
O19 Co2 2.020 1_655 S
O19 C16 1.256 . S
O20 Co0 2.062 1_655 S
O20 C16 1.255 . S
O21 C1 1.259 . S
O21 Co2 2.021 . S
H22 C13 0.930 . S
H23 C12 0.931 . S
O24 Co0 2.117 . S
O24 C1 1.258 . S
O25 Co0 2.020 . S
O25 C27 1.256 . S
O26 Co2 2.062 . S
O26 C27 1.255 . S
C27 O25 1.256 . S
C27 O26 1.255 . S
H28 C7 0.931 . S
H29 C15 0.931 . S
Co30 N35 2.057 . S
Co30 O47 2.021 . S
Co30 O50 2.062 . S
Co30 O54 2.117 . S
Co30 O55 2.020 . S
C31 O51 1.259 . S
C31 O54 1.258 . S
Co32 N41 2.057 . S
Co32 O48 2.117 . S
Co32 O49 2.020 . S
Co32 O51 2.021 . S
Co32 O56 2.062 . S
C33 N35 1.316 . S
C33 N36 1.347 1_554 S
C33 H38 0.931 . S
C34 N35 1.375 . S
C34 C37 1.350 1_554 S
C34 H39 0.930 . S
N35 Co30 2.057 . S
N35 C33 1.316 . S
N35 C34 1.375 . S
N36 C33 1.347 1_556 S
N36 C37 1.373 . S
C37 C34 1.350 1_556 S
C37 N36 1.373 . S
C37 H58 0.931 . S
H38 C33 0.931 . S
H39 C34 0.930 . S
C40 O47 1.259 . S
C40 O48 1.258 . S
N41 Co32 2.057 . S
N41 C42 1.316 . S
N41 C43 1.375 . S
C42 N41 1.316 . S
C42 N44 1.347 . S
C42 H53 0.931 . S
C43 N41 1.375 . S
C43 C45 1.350 . S
C43 H52 0.930 . S
N44 C42 1.347 . S
N44 C45 1.373 . S
C45 C43 1.350 . S
C45 N44 1.373 . S
C45 H59 0.931 . S
C46 O49 1.256 . S
C46 O50 1.255 . S
O47 Co30 2.021 . S
O47 C40 1.259 . S
O48 Co32 2.117 . S
O48 C40 1.258 . S
O49 Co32 2.020 . S
O49 C46 1.256 . S
O50 Co30 2.062 . S
O50 C46 1.255 . S
O51 C31 1.259 . S
O51 Co32 2.021 . S
H52 C43 0.930 . S
H53 C42 0.931 . S
O54 Co30 2.117 . S
O54 C31 1.258 . S
O55 Co30 2.020 . S
O55 C57 1.256 . S
O56 Co32 2.062 . S
O56 C57 1.255 . S
C57 O55 1.256 . S
C57 O56 1.255 . S
H58 C37 0.931 . S
H59 C45 0.931 . S
Co60 N65 2.057 1_455 S
Co60 O77 2.021 . S
Co60 O80 2.062 1_455 S
Co60 O84 2.117 . S
Co60 O85 2.020 . S
C61 O81 1.259 . S
C61 O84 1.258 . S
Co62 N71 2.057 . S
Co62 O78 2.117 . S
Co62 O79 2.020 1_455 S
Co62 O81 2.021 . S
Co62 O86 2.062 . S
C63 N65 1.316 . S
C63 N66 1.347 . S
C63 H68 0.931 . S
C64 N65 1.375 . S
C64 C67 1.350 . S
C64 H69 0.930 . S
N65 Co60 2.057 1_655 S
N65 C63 1.316 . S
N65 C64 1.375 . S
N66 C63 1.347 . S
N66 C67 1.373 . S
C67 C64 1.350 . S
C67 N66 1.373 . S
C67 H88 0.931 . S
H68 C63 0.931 . S
H69 C64 0.930 . S
C70 O77 1.259 . S
C70 O78 1.258 . S
N71 Co62 2.057 . S
N71 C72 1.316 . S
N71 C73 1.375 . S
C72 N71 1.316 . S
C72 N74 1.347 1_556 S
C72 H83 0.931 . S
C73 N71 1.375 . S
C73 C75 1.350 1_556 S
C73 H82 0.930 . S
N74 C72 1.347 1_554 S
N74 C75 1.373 . S
C75 C73 1.350 1_554 S
C75 N74 1.373 . S
C75 H89 0.931 . S
C76 O79 1.256 . S
C76 O80 1.255 . S
O77 Co60 2.021 . S
O77 C70 1.259 . S
O78 Co62 2.117 . S
O78 C70 1.258 . S
O79 Co62 2.020 1_655 S
O79 C76 1.256 . S
O80 Co60 2.062 1_655 S
O80 C76 1.255 . S
O81 C61 1.259 . S
O81 Co62 2.021 . S
H82 C73 0.930 . S
H83 C72 0.931 . S
O84 Co60 2.117 . S
O84 C61 1.258 . S
O85 Co60 2.020 . S
O85 C87 1.256 . S
O86 Co62 2.062 . S
O86 C87 1.255 . S
C87 O85 1.256 . S
C87 O86 1.255 . S
H88 C67 0.931 . S
H89 C75 0.931 . S
Co90 N95 2.057 . S
Co90 O107 2.021 . S
Co90 O110 2.062 . S
Co90 O114 2.117 . S
Co90 O115 2.020 . S
C91 O111 1.259 . S
C91 O114 1.258 . S
Co92 N101 2.057 . S
Co92 O108 2.117 . S
Co92 O109 2.020 . S
Co92 O111 2.021 . S
Co92 O116 2.062 . S
C93 N95 1.316 . S
C93 N96 1.347 . S
C93 H98 0.931 . S
C94 N95 1.375 . S
C94 C97 1.350 . S
C94 H99 0.930 . S
N95 Co90 2.057 . S
N95 C93 1.316 . S
N95 C94 1.375 . S
N96 C93 1.347 . S
N96 C97 1.373 . S
C97 C94 1.350 . S
C97 N96 1.373 . S
C97 H118 0.931 . S
H98 C93 0.931 . S
H99 C94 0.930 . S
C100 O107 1.259 . S
C100 O108 1.258 . S
N101 Co92 2.057 . S
N101 C102 1.316 . S
N101 C103 1.375 . S
C102 N101 1.316 . S
C102 N104 1.347 1_556 S
C102 H113 0.931 . S
C103 N101 1.375 . S
C103 C105 1.350 1_556 S
C103 H112 0.930 . S
N104 C102 1.347 1_554 S
N104 C105 1.373 . S
C105 C103 1.350 1_554 S
C105 N104 1.373 . S
C105 H119 0.931 . S
C106 O109 1.256 . S
C106 O110 1.255 . S
O107 Co90 2.021 . S
O107 C100 1.259 . S
O108 Co92 2.117 . S
O108 C100 1.258 . S
O109 Co92 2.020 . S
O109 C106 1.256 . S
O110 Co90 2.062 . S
O110 C106 1.255 . S
O111 C91 1.259 . S
O111 Co92 2.021 . S
H112 C103 0.930 . S
H113 C102 0.931 . S
O114 Co90 2.117 . S
O114 C91 1.258 . S
O115 Co90 2.020 . S
O115 C117 1.256 . S
O116 Co92 2.062 . S
O116 C117 1.255 . S
C117 O115 1.256 . S
C117 O116 1.255 . S
H118 C97 0.931 . S
H119 C105 0.931 . S
H120 C128 0.950 . S
H121 C133 0.950 . S
H122 C130 0.950 . S
H123 C132 0.950 1_554 S
H124 C134 0.950 . S
H125 C136 0.950 . S
H126 C138 0.950 1_556 S
H127 C139 0.950 . S
C128 H120 0.950 . S
C128 C129 1.386 . S
C128 C130 1.391 . S
C129 C128 1.386 . S
C129 C133 1.393 . S
C130 H122 0.950 . S
C130 C128 1.391 . S
C130 C131 1.400 . S
C131 C130 1.400 . S
C131 C132 1.398 . S
C131 C137 1.491 1_556 S
C132 H123 0.950 1_556 S
C132 C131 1.398 . S
C132 C133 1.391 . S
C133 H121 0.950 . S
C133 C129 1.393 . S
C133 C132 1.391 . S
C134 H124 0.950 . S
C134 C135 1.386 . S
C134 C136 1.391 . S
C135 C134 1.386 . S
C135 C139 1.393 . S
C136 H125 0.950 . S
C136 C134 1.391 . S
C136 C137 1.400 . S
C137 C131 1.491 1_554 S
C137 C136 1.400 . S
C137 C138 1.398 . S
C138 H126 0.950 1_554 S
C138 C137 1.398 . S
C138 C139 1.391 . S
C139 H127 0.950 . S
C139 C135 1.393 . S
C139 C138 1.391 . S
H140 C148 0.950 . S
H141 C153 0.950 . S
H142 C150 0.950 . S
H143 C152 0.950 . S
H144 C154 0.950 . S
H145 C156 0.950 . S
H146 C158 0.950 . S
H147 C159 0.950 . S
C148 H140 0.950 . S
C148 C149 1.386 . S
C148 C150 1.391 . S
C149 C148 1.386 . S
C149 C153 1.393 . S
C150 H142 0.950 . S
C150 C148 1.391 . S
C150 C151 1.400 . S
C151 C150 1.400 . S
C151 C152 1.398 1_554 S
C151 C157 1.491 1_554 S
C152 H143 0.950 . S
C152 C151 1.398 1_556 S
C152 C153 1.391 1_556 S
C153 H141 0.950 . S
C153 C149 1.393 . S
C153 C152 1.391 1_554 S
C154 H144 0.950 . S
C154 C155 1.386 . S
C154 C156 1.391 . S
C155 C154 1.386 . S
C155 C159 1.393 . S
C156 H145 0.950 . S
C156 C154 1.391 . S
C156 C157 1.400 . S
C157 C151 1.491 1_556 S
C157 C156 1.400 . S
C157 C158 1.398 1_556 S
C158 H146 0.950 . S
C158 C157 1.398 1_554 S
C158 C159 1.391 1_554 S
C159 H147 0.950 . S
C159 C155 1.393 . S
C159 C158 1.391 1_556 S
H160 C168 0.950 . S
H161 C173 0.950 . S
H162 C170 0.950 1_554 S
H163 C172 0.950 1_545 S
H164 C174 0.950 . S
H165 C176 0.950 1_556 S
H166 C178 0.950 1_565 S
H167 C179 0.950 . S
C168 H160 0.950 . S
C168 C169 1.386 . S
C168 C170 1.391 . S
C169 C168 1.386 . S
C169 C173 1.393 . S
C170 H162 0.950 1_556 S
C170 C168 1.391 . S
C170 C171 1.400 . S
C171 C170 1.400 . S
C171 C172 1.398 . S
C171 C177 1.491 1_566 S
C172 H163 0.950 1_565 S
C172 C171 1.398 . S
C172 C173 1.391 . S
C173 H161 0.950 . S
C173 C169 1.393 . S
C173 C172 1.391 . S
C174 H164 0.950 . S
C174 C175 1.386 . S
C174 C176 1.391 . S
C175 C174 1.386 . S
C175 C179 1.393 . S
C176 H165 0.950 1_554 S
C176 C174 1.391 . S
C176 C177 1.400 . S
C177 C171 1.491 1_544 S
C177 C176 1.400 . S
C177 C178 1.398 . S
C178 H166 0.950 1_545 S
C178 C177 1.398 . S
C178 C179 1.391 . S
C179 H167 0.950 . S
C179 C175 1.393 . S
C179 C178 1.391 . S
H180 C188 0.950 . S
H181 C193 0.950 1_655 S
H182 C190 0.950 . S
H183 C192 0.950 1_655 S
H184 C194 0.950 1_655 S
H185 C196 0.950 1_655 S
H186 C198 0.950 . S
H187 C199 0.950 . S
C188 H180 0.950 . S
C188 C189 1.386 . S
C188 C190 1.391 . S
C189 C188 1.386 . S
C189 C193 1.393 . S
C190 H182 0.950 . S
C190 C188 1.391 . S
C190 C191 1.400 . S
C191 C190 1.400 . S
C191 C192 1.398 . S
C191 C197 1.491 1_564 S
C192 H183 0.950 1_455 S
C192 C191 1.398 . S
C192 C193 1.391 . S
C193 H181 0.950 1_455 S
C193 C189 1.393 . S
C193 C192 1.391 . S
C194 H184 0.950 1_455 S
C194 C195 1.386 . S
C194 C196 1.391 . S
C195 C194 1.386 . S
C195 C199 1.393 . S
C196 H185 0.950 1_455 S
C196 C194 1.391 . S
C196 C197 1.400 . S
C197 C191 1.491 1_546 S
C197 C196 1.400 . S
C197 C198 1.398 . S
C198 H186 0.950 . S
C198 C197 1.398 . S
C198 C199 1.391 . S
C199 H187 0.950 . S
C199 C195 1.393 . S
C199 C198 1.391 . S
H200 C208 0.950 . S
H201 C213 0.950 . S
H202 C210 0.950 . S
H203 C212 0.950 . S
H204 C214 0.950 . S
H205 C216 0.950 . S
H206 C218 0.950 . S
H207 C219 0.950 . S
C208 H200 0.950 . S
C208 C209 1.386 . S
C208 C210 1.391 . S
C209 C208 1.386 . S
C209 C213 1.393 . S
C210 H202 0.950 . S
C210 C208 1.391 . S
C210 C211 1.400 . S
C211 C210 1.400 . S
C211 C212 1.398 . S
C211 C217 1.491 . S
C212 H203 0.950 . S
C212 C211 1.398 . S
C212 C213 1.391 . S
C213 H201 0.950 . S
C213 C209 1.393 . S
C213 C212 1.391 . S
C214 H204 0.950 . S
C214 C215 1.386 . S
C214 C216 1.391 . S
C215 C214 1.386 . S
C215 C219 1.393 . S
C216 H205 0.950 . S
C216 C214 1.391 . S
C216 C217 1.400 . S
C217 C211 1.491 . S
C217 C216 1.400 . S
C217 C218 1.398 . S
C218 H206 0.950 . S
C218 C217 1.398 . S
C218 C219 1.391 . S
C219 H207 0.950 . S
C219 C215 1.393 . S
C219 C218 1.391 . S
H220 C228 0.950 . S
H221 C233 0.950 . S
H222 C230 0.950 . S
H223 C232 0.950 . S
H224 C234 0.950 . S
H225 C236 0.950 . S
H226 C238 0.950 . S
H227 C239 0.950 . S
C228 H220 0.950 . S
C228 C229 1.386 . S
C228 C230 1.391 . S
C229 C228 1.386 . S
C229 C233 1.393 . S
C230 H222 0.950 . S
C230 C228 1.391 . S
C230 C231 1.400 . S
C231 C230 1.400 . S
C231 C232 1.398 . S
C231 C237 1.491 . S
C232 H223 0.950 . S
C232 C231 1.398 . S
C232 C233 1.391 . S
C233 H221 0.950 . S
C233 C229 1.393 . S
C233 C232 1.391 . S
C234 H224 0.950 . S
C234 C235 1.386 . S
C234 C236 1.391 . S
C235 C234 1.386 . S
C235 C239 1.393 . S
C236 H225 0.950 . S
C236 C234 1.391 . S
C236 C237 1.400 . S
C237 C231 1.491 . S
C237 C236 1.400 . S
C237 C238 1.398 . S
C238 H226 0.950 . S
C238 C237 1.398 . S
C238 C239 1.391 . S
C239 H227 0.950 . S
C239 C235 1.393 . S
C239 C238 1.391 . S
H240 C248 0.950 . S
H241 C253 0.950 . S
H242 C250 0.950 . S
H243 C252 0.950 . S
H244 C254 0.950 . S
H245 C256 0.950 . S
H246 C258 0.950 . S
H247 C259 0.950 . S
C248 H240 0.950 . S
C248 C249 1.386 . S
C248 C250 1.391 . S
C249 C248 1.386 . S
C249 C253 1.393 . S
C250 H242 0.950 . S
C250 C248 1.391 . S
C250 C251 1.400 . S
C251 C250 1.400 . S
C251 C252 1.398 . S
C251 C257 1.491 . S
C252 H243 0.950 . S
C252 C251 1.398 . S
C252 C253 1.391 . S
C253 H241 0.950 . S
C253 C249 1.393 . S
C253 C252 1.391 . S
C254 H244 0.950 . S
C254 C255 1.386 . S
C254 C256 1.391 . S
C255 C254 1.386 . S
C255 C259 1.393 . S
C256 H245 0.950 . S
C256 C254 1.391 . S
C256 C257 1.400 . S
C257 C251 1.491 . S
C257 C256 1.400 . S
C257 C258 1.398 . S
C258 H246 0.950 . S
C258 C257 1.398 . S
C258 C259 1.391 . S
C259 H247 0.950 . S
C259 C255 1.393 . S
C259 C258 1.391 . S
H260 C268 0.950 . S
H261 C273 0.950 . S
H262 C270 0.950 . S
H263 C272 0.950 . S
H264 C274 0.950 . S
H265 C276 0.950 . S
H266 C278 0.950 . S
H267 C279 0.950 . S
C268 H260 0.950 . S
C268 C269 1.386 . S
C268 C270 1.391 . S
C269 C268 1.386 . S
C269 C273 1.393 . S
C270 H262 0.950 . S
C270 C268 1.391 . S
C270 C271 1.400 . S
C271 C270 1.400 . S
C271 C272 1.398 . S
C271 C277 1.491 . S
C272 H263 0.950 . S
C272 C271 1.398 . S
C272 C273 1.391 . S
C273 H261 0.950 . S
C273 C269 1.393 . S
C273 C272 1.391 . S
C274 H264 0.950 . S
C274 C275 1.386 . S
C274 C276 1.391 . S
C275 C274 1.386 . S
C275 C279 1.393 . S
C276 H265 0.950 . S
C276 C274 1.391 . S
C276 C277 1.400 . S
C277 C271 1.491 . S
C277 C276 1.400 . S
C277 C278 1.398 . S
C278 H266 0.950 . S
C278 C277 1.398 . S
C278 C279 1.391 . S
C279 H267 0.950 . S
C279 C275 1.393 . S
C279 C278 1.391 . S
H280 C288 0.950 . S
H281 C293 0.950 . S
H282 C290 0.950 . S
H283 C292 0.950 . S
H284 C294 0.950 . S
H285 C296 0.950 . S
H286 C298 0.950 . S
H287 C299 0.950 . S
C288 H280 0.950 . S
C288 C289 1.386 . S
C288 C290 1.391 . S
C289 C288 1.386 . S
C289 C293 1.393 1_556 S
C290 H282 0.950 . S
C290 C288 1.391 . S
C290 C291 1.400 . S
C291 C290 1.400 . S
C291 C292 1.398 1_556 S
C291 C297 1.491 1_556 S
C292 H283 0.950 . S
C292 C291 1.398 1_554 S
C292 C293 1.391 . S
C293 H281 0.950 . S
C293 C289 1.393 1_554 S
C293 C292 1.391 . S
C294 H284 0.950 . S
C294 C295 1.386 . S
C294 C296 1.391 . S
C295 C294 1.386 . S
C295 C299 1.393 1_554 S
C296 H285 0.950 . S
C296 C294 1.391 . S
C296 C297 1.400 . S
C297 C291 1.491 1_554 S
C297 C296 1.400 . S
C297 C298 1.398 1_554 S
C298 H286 0.950 . S
C298 C297 1.398 1_556 S
C298 C299 1.391 . S
C299 H287 0.950 . S
C299 C295 1.393 1_556 S
C299 C298 1.391 . S
H300 C308 0.950 . S
H301 C313 0.950 . S
H302 C310 0.950 . S
H303 C312 0.950 . S
H304 C314 0.950 . S
H305 C316 0.950 . S
H306 C318 0.950 . S
H307 C319 0.950 . S
C308 H300 0.950 . S
C308 C309 1.386 1_556 S
C308 C310 1.391 . S
C309 C308 1.386 1_554 S
C309 C313 1.393 . S
C310 H302 0.950 . S
C310 C308 1.391 . S
C310 C311 1.400 1_556 S
C311 C310 1.400 1_554 S
C311 C312 1.398 . S
C311 C317 1.491 1_554 S
C312 H303 0.950 . S
C312 C311 1.398 . S
C312 C313 1.391 . S
C313 H301 0.950 . S
C313 C309 1.393 . S
C313 C312 1.391 . S
C314 H304 0.950 . S
C314 C315 1.386 1_554 S
C314 C316 1.391 . S
C315 C314 1.386 1_556 S
C315 C319 1.393 . S
C316 H305 0.950 . S
C316 C314 1.391 . S
C316 C317 1.400 1_554 S
C317 C311 1.491 1_556 S
C317 C316 1.400 1_556 S
C317 C318 1.398 . S
C318 H306 0.950 . S
C318 C317 1.398 . S
C318 C319 1.391 . S
C319 H307 0.950 . S
C319 C315 1.393 . S
C319 C318 1.391 . S
H320 C328 0.950 . S
H321 C333 0.950 . S
H322 C330 0.950 . S
H323 C332 0.950 . S
H324 C334 0.950 . S
H325 C336 0.950 . S
H326 C338 0.950 . S
H327 C339 0.950 . S
C328 H320 0.950 . S
C328 C329 1.386 . S
C328 C330 1.391 . S
C329 C328 1.386 . S
C329 C333 1.393 1_554 S
C330 H322 0.950 . S
C330 C328 1.391 . S
C330 C331 1.400 . S
C331 C330 1.400 . S
C331 C332 1.398 1_554 S
C331 C337 1.491 1_554 S
C332 H323 0.950 . S
C332 C331 1.398 1_556 S
C332 C333 1.391 . S
C333 H321 0.950 . S
C333 C329 1.393 1_556 S
C333 C332 1.391 . S
C334 H324 0.950 . S
C334 C335 1.386 . S
C334 C336 1.391 . S
C335 C334 1.386 . S
C335 C339 1.393 1_556 S
C336 H325 0.950 . S
C336 C334 1.391 . S
C336 C337 1.400 . S
C337 C331 1.491 1_556 S
C337 C336 1.400 . S
C337 C338 1.398 1_556 S
C338 H326 0.950 . S
C338 C337 1.398 1_554 S
C338 C339 1.391 . S
C339 H327 0.950 . S
C339 C335 1.393 1_554 S
C339 C338 1.391 . S
H340 C348 0.950 . S
H341 C353 0.950 . S
H342 C350 0.950 . S
H343 C352 0.950 . S
H344 C354 0.950 . S
H345 C356 0.950 . S
H346 C358 0.950 . S
H347 C359 0.950 . S
C348 H340 0.950 . S
C348 C349 1.386 1_554 S
C348 C350 1.391 . S
C349 C348 1.386 1_556 S
C349 C353 1.393 . S
C350 H342 0.950 . S
C350 C348 1.391 . S
C350 C351 1.400 1_554 S
C351 C350 1.400 1_556 S
C351 C352 1.398 . S
C351 C357 1.491 1_556 S
C352 H343 0.950 . S
C352 C351 1.398 . S
C352 C353 1.391 . S
C353 H341 0.950 . S
C353 C349 1.393 . S
C353 C352 1.391 . S
C354 H344 0.950 . S
C354 C355 1.386 1_556 S
C354 C356 1.391 . S
C355 C354 1.386 1_554 S
C355 C359 1.393 . S
C356 H345 0.950 . S
C356 C354 1.391 . S
C356 C357 1.400 1_556 S
C357 C351 1.491 1_554 S
C357 C356 1.400 1_554 S
C357 C358 1.398 . S
C358 H346 0.950 . S
C358 C357 1.398 . S
C358 C359 1.391 . S
C359 H347 0.950 . S
C359 C355 1.393 . S
C359 C358 1.391 . S
C129 C61 2.232 . S
C135 C10 2.232 . S
C149 C31 2.310 . S
C155 C100 2.310 . S
C169 C91 2.240 . S
C175 C40 2.240 . S
C189 C1 2.299 . S
C195 C70 2.299 . S
C209 N96 1.548 . S
C215 N14 1.548 . S
C229 C87 1.581 . S
C235 C46 1.581 . S
C249 N66 1.564 . S
C255 N44 1.564 . S
C269 C16 1.583 . S
C275 C117 1.583 . S
C289 C106 0.957 . S
C295 C27 0.957 . S
C309 N74 0.569 . S
C315 N36 0.569 . S
C329 C57 0.971 . S
C335 C76 0.971 . S
C349 N6 0.528 . S
C355 N104 0.528 . S
