# Generated by pormake.
# Topology tzs, (4)-cn, num edge types: 1
# Building blocks:
#     Node 0, Type 0, BuildingBlock: KUFVIS_clean_sbu_0, # of connection points: 4
#     Node 1, Type 0, BuildingBlock: KUFVIS_clean_sbu_0, # of connection points: 4
#     Node 2, Type 0, BuildingBlock: KUFVIS_clean_sbu_0, # of connection points: 4
#     Node 3, Type 0, BuildingBlock: KUFVIS_clean_sbu_0, # of connection points: 4
#     Node 4, Type 0, BuildingBlock: KUFVIS_clean_sbu_0, # of connection points: 4
#     Node 5, Type 0, BuildingBlock: KUFVIS_clean_sbu_0, # of connection points: 4
#     Node 6, Type 0, BuildingBlock: KUFVIS_clean_sbu_0, # of connection points: 4
#     Node 7, Type 0, BuildingBlock: KUFVIS_clean_sbu_0, # of connection points: 4
#     Node 8, Type 0, BuildingBlock: KUFVIS_clean_sbu_0, # of connection points: 4
#     Node 9, Type 0, BuildingBlock: KUFVIS_clean_sbu_0, # of connection points: 4
#     Node 10, Type 0, BuildingBlock: KUFVIS_clean_sbu_0, # of connection points: 4
#     Node 11, Type 0, BuildingBlock: KUFVIS_clean_sbu_0, # of connection points: 4
#     Node 12, Type 0, BuildingBlock: KUFVIS_clean_sbu_0, # of connection points: 4
#     Node 13, Type 0, BuildingBlock: KUFVIS_clean_sbu_0, # of connection points: 4
#     Node 14, Type 0, BuildingBlock: KUFVIS_clean_sbu_0, # of connection points: 4
#     Node 15, Type 0, BuildingBlock: KUFVIS_clean_sbu_0, # of connection points: 4
#     Edge 16, Type (0, 0), BuildingBlock: KIFKEQ_clean_linker_1, # of connection points: 2
#     Edge 17, Type (0, 0), BuildingBlock: KIFKEQ_clean_linker_1, # of connection points: 2
#     Edge 18, Type (0, 0), BuildingBlock: KIFKEQ_clean_linker_1, # of connection points: 2
#     Edge 19, Type (0, 0), BuildingBlock: KIFKEQ_clean_linker_1, # of connection points: 2
#     Edge 20, Type (0, 0), BuildingBlock: KIFKEQ_clean_linker_1, # of connection points: 2
#     Edge 21, Type (0, 0), BuildingBlock: KIFKEQ_clean_linker_1, # of connection points: 2
#     Edge 22, Type (0, 0), BuildingBlock: KIFKEQ_clean_linker_1, # of connection points: 2
#     Edge 23, Type (0, 0), BuildingBlock: KIFKEQ_clean_linker_1, # of connection points: 2
#     Edge 24, Type (0, 0), BuildingBlock: KIFKEQ_clean_linker_1, # of connection points: 2
#     Edge 25, Type (0, 0), BuildingBlock: KIFKEQ_clean_linker_1, # of connection points: 2
#     Edge 26, Type (0, 0), BuildingBlock: KIFKEQ_clean_linker_1, # of connection points: 2
#     Edge 27, Type (0, 0), BuildingBlock: KIFKEQ_clean_linker_1, # of connection points: 2
#     Edge 28, Type (0, 0), BuildingBlock: KIFKEQ_clean_linker_1, # of connection points: 2
#     Edge 29, Type (0, 0), BuildingBlock: KIFKEQ_clean_linker_1, # of connection points: 2
#     Edge 30, Type (0, 0), BuildingBlock: KIFKEQ_clean_linker_1, # of connection points: 2
#     Edge 31, Type (0, 0), BuildingBlock: KIFKEQ_clean_linker_1, # of connection points: 2
#     Edge 32, Type (0, 0), BuildingBlock: KIFKEQ_clean_linker_1, # of connection points: 2
#     Edge 33, Type (0, 0), BuildingBlock: KIFKEQ_clean_linker_1, # of connection points: 2
#     Edge 34, Type (0, 0), BuildingBlock: KIFKEQ_clean_linker_1, # of connection points: 2
#     Edge 35, Type (0, 0), BuildingBlock: KIFKEQ_clean_linker_1, # of connection points: 2
#     Edge 36, Type (0, 0), BuildingBlock: KIFKEQ_clean_linker_1, # of connection points: 2
#     Edge 37, Type (0, 0), BuildingBlock: KIFKEQ_clean_linker_1, # of connection points: 2
#     Edge 38, Type (0, 0), BuildingBlock: KIFKEQ_clean_linker_1, # of connection points: 2
#     Edge 39, Type (0, 0), BuildingBlock: KIFKEQ_clean_linker_1, # of connection points: 2
#     Edge 40, Type (0, 0), BuildingBlock: KIFKEQ_clean_linker_1, # of connection points: 2
#     Edge 41, Type (0, 0), BuildingBlock: KIFKEQ_clean_linker_1, # of connection points: 2
#     Edge 42, Type (0, 0), BuildingBlock: KIFKEQ_clean_linker_1, # of connection points: 2
#     Edge 43, Type (0, 0), BuildingBlock: KIFKEQ_clean_linker_1, # of connection points: 2
#     Edge 44, Type (0, 0), BuildingBlock: KIFKEQ_clean_linker_1, # of connection points: 2
#     Edge 45, Type (0, 0), BuildingBlock: KIFKEQ_clean_linker_1, # of connection points: 2
#     Edge 46, Type (0, 0), BuildingBlock: KIFKEQ_clean_linker_1, # of connection points: 2
#     Edge 47, Type (0, 0), BuildingBlock: KIFKEQ_clean_linker_1, # of connection points: 2
# Relax obj value: 0.099
# Max RMSD: 0.096
# Mean RMSD: 0.096
data_MOF--net-tzs--node1-KUFVIS_clean_sbu_0--edge1-KIFKEQ_clean_linker_1
_symmetry_space_group_name_H-M    P1
_symmetry_Int_Tables_number       1
_symmetry_cell_setting            triclinic
loop_
_symmetry_equiv_pos_as_xyz
'x, y, z'
_cell_length_a     48.525293
_cell_length_b     48.533027
_cell_length_c     39.924169
_cell_angle_alpha  89.987703
_cell_angle_beta   89.998943
_cell_angle_gamma 90.008292
loop_
_atom_site_label
_atom_site_type_symbol
_atom_site_fract_x
_atom_site_fract_y
_atom_site_fract_z
_atom_type_partial_charge
Mn0 Mn 0.15794 0.37366 0.2013 0.0
Mn1 Mn 0.21375 0.40842 0.17293 0.0
C2 C 0.17312 0.4136 0.2274 0.0
C3 C 0.11035 0.36587 0.20624 0.0
C4 C 0.21781 0.35456 0.21083 0.0
O5 O 0.16114 0.35996 0.15268 0.0
O6 O 0.19842 0.38491 0.13725 0.0
C7 C 0.18676 0.44415 0.12252 0.0
N8 N 0.20251 0.44136 0.15056 0.0
C9 C 0.20985 0.49032 0.15372 0.0
C10 C 0.19377 0.49372 0.12483 0.0
C11 C 0.1821 0.47054 0.10925 0.0
C12 C 0.21372 0.46354 0.16585 0.0
H13 H 0.17787 0.42638 0.11036 0.0
C14 C 0.17915 0.36763 0.13099 0.0
O15 O 0.12825 0.3469 0.21338 0.0
O16 O 0.12 0.38858 0.19366 0.0
N17 N 0.23006 0.43235 0.20542 0.0
C18 C 0.24355 0.42567 0.23422 0.0
C19 C 0.25564 0.44662 0.25351 0.0
C20 C 0.25395 0.47414 0.24281 0.0
C21 C 0.23997 0.48051 0.21306 0.0
C22 C 0.22833 0.45876 0.1949 0.0
H23 H 0.24505 0.40451 0.24242 0.0
O24 O 0.15924 0.3954 0.24421 0.0
O25 O 0.17858 0.40737 0.19664 0.0
O26 O 0.19198 0.3511 0.21484 0.0
O27 O 0.22798 0.37537 0.19575 0.0
C28 C 0.23695 0.50757 0.20084 0.0
C29 C 0.22189 0.51247 0.1712 0.0
H30 H 0.19011 0.51404 0.11453 0.0
H31 H 0.1696 0.473 0.087 0.0
H32 H 0.26633 0.44157 0.27649 0.0
H33 H 0.26346 0.49018 0.25764 0.0
H34 H 0.2458 0.52482 0.21423 0.0
H35 H 0.21937 0.53342 0.16233 0.0
Mn36 Mn 0.65304 0.15257 0.19547 0.0
Mn37 Mn 0.62034 0.20842 0.16377 0.0
C38 C 0.61322 0.16961 0.2199 0.0
C39 C 0.65956 0.10505 0.20301 0.0
C40 C 0.6735 0.21229 0.20293 0.0
O41 O 0.66723 0.15357 0.14702 0.0
O42 O 0.64448 0.19176 0.12953 0.0
C43 C 0.58524 0.18069 0.11328 0.0
N44 N 0.5877 0.19718 0.14072 0.0
C45 C 0.53875 0.20499 0.14235 0.0
C46 C 0.5357 0.18816 0.11405 0.0
C47 C 0.55905 0.1759 0.09952 0.0
C48 C 0.56537 0.20902 0.15496 0.0
H49 H 0.60313 0.17127 0.10199 0.0
C50 C 0.661 0.17158 0.12473 0.0
O51 O 0.67889 0.12272 0.20955 0.0
O52 O 0.63722 0.11479 0.18959 0.0
N53 N 0.59599 0.22605 0.19472 0.0
C54 C 0.60231 0.24027 0.22313 0.0
C55 C 0.58117 0.25318 0.24126 0.0
C56 C 0.55384 0.2515 0.22988 0.0
C57 C 0.54783 0.23669 0.20063 0.0
C58 C 0.56977 0.22436 0.18352 0.0
H59 H 0.62332 0.24173 0.23187 0.0
O60 O 0.63091 0.15598 0.23781 0.0
O61 O 0.61997 0.1739 0.189 0.0
O62 O 0.67641 0.18648 0.20767 0.0
O63 O 0.65309 0.22257 0.18721 0.0
C64 C 0.52093 0.23347 0.18794 0.0
C65 C 0.51639 0.21758 0.15886 0.0
H66 H 0.51552 0.18436 0.10341 0.0
H67 H 0.55685 0.16281 0.07774 0.0
H68 H 0.58593 0.2645 0.26389 0.0
H69 H 0.53769 0.26168 0.24381 0.0
H70 H 0.50353 0.24278 0.20058 0.0
H71 H 0.49556 0.2149 0.14966 0.0
Mn72 Mn 0.8674 0.65081 0.20076 0.0
Mn73 Mn 0.81172 0.61793 0.16891 0.0
C74 C 0.85105 0.61039 0.22441 0.0
C75 C 0.91485 0.65791 0.20809 0.0
C76 C 0.8075 0.67044 0.2092 0.0
O77 O 0.8659 0.6657 0.15265 0.0
O78 O 0.82785 0.64277 0.13498 0.0
C79 C 0.83939 0.58391 0.11731 0.0
N80 N 0.82315 0.58577 0.14504 0.0
C81 C 0.81596 0.53671 0.14577 0.0
C82 C 0.83254 0.53428 0.11715 0.0
C83 C 0.84436 0.55798 0.10292 0.0
C84 C 0.81173 0.56309 0.15898 0.0
H85 H 0.84847 0.60207 0.10624 0.0
C86 C 0.84783 0.6596 0.13039 0.0
O87 O 0.89694 0.67687 0.21516 0.0
O88 O 0.90538 0.63562 0.19425 0.0
N89 N 0.79466 0.59292 0.19959 0.0
C90 C 0.78074 0.59864 0.2284 0.0
C91 C 0.76843 0.57707 0.24641 0.0
C92 C 0.7704 0.54992 0.23449 0.0
C93 C 0.78484 0.54453 0.20479 0.0
C94 C 0.79662 0.56688 0.18786 0.0
H95 H 0.77911 0.6195 0.23759 0.0
O96 O 0.86454 0.62797 0.24263 0.0
O97 O 0.84645 0.6176 0.19373 0.0
O98 O 0.83331 0.67355 0.21376 0.0
O99 O 0.79733 0.65014 0.19317 0.0
C100 C 0.78827 0.51787 0.19149 0.0
C101 C 0.80384 0.51396 0.16202 0.0
H102 H 0.83649 0.51431 0.10604 0.0
H103 H 0.85725 0.55626 0.0809 0.0
H104 H 0.7574 0.58135 0.26938 0.0
H105 H 0.76076 0.53341 0.24841 0.0
H106 H 0.77937 0.50017 0.20395 0.0
H107 H 0.80669 0.49331 0.15233 0.0
Mn108 Mn 0.36974 0.86881 0.20662 0.0
Mn109 Mn 0.40104 0.81214 0.17487 0.0
C110 C 0.41002 0.85185 0.22987 0.0
C111 C 0.36353 0.91651 0.21295 0.0
C112 C 0.34866 0.80955 0.21566 0.0
O113 O 0.3542 0.86697 0.15876 0.0
O114 O 0.37679 0.8288 0.1408 0.0
C115 C 0.43597 0.8385 0.12316 0.0
N116 N 0.43359 0.82251 0.15105 0.0
C117 C 0.48244 0.81402 0.15206 0.0
C118 C 0.4854 0.83032 0.12329 0.0
C119 C 0.46207 0.84267 0.10884 0.0
C120 C 0.45591 0.81056 0.16519 0.0
H121 H 0.41809 0.84799 0.11193 0.0
C122 C 0.36011 0.84891 0.13638 0.0
O123 O 0.34438 0.89902 0.22082 0.0
O124 O 0.38551 0.90644 0.19899 0.0
N125 N 0.42547 0.79457 0.20582 0.0
C126 C 0.41931 0.78111 0.23482 0.0
C127 C 0.44052 0.76847 0.25314 0.0
C128 C 0.46777 0.76964 0.24135 0.0
C129 C 0.47361 0.78362 0.21144 0.0
C130 C 0.45161 0.79576 0.19421 0.0
H131 H 0.39838 0.78012 0.24392 0.0
O132 O 0.39303 0.86608 0.24808 0.0
O133 O 0.40236 0.84704 0.19939 0.0
O134 O 0.34666 0.83537 0.22092 0.0
O135 O 0.36818 0.79872 0.19887 0.0
C136 C 0.50041 0.78629 0.19825 0.0
C137 C 0.50482 0.80147 0.16859 0.0
H138 H 0.50551 0.83367 0.11223 0.0
H139 H 0.4642 0.85535 0.08669 0.0
H140 H 0.43589 0.7578 0.27627 0.0
H141 H 0.48402 0.75982 0.25553 0.0
H142 H 0.51784 0.77709 0.21094 0.0
H143 H 0.52557 0.80372 0.15899 0.0
Mn144 Mn 0.15318 0.65262 0.31834 0.0
Mn145 Mn 0.20948 0.62097 0.35057 0.0
C146 C 0.17061 0.61282 0.29448 0.0
C147 C 0.10562 0.65886 0.31093 0.0
C148 C 0.21254 0.67391 0.31091 0.0
O149 O 0.15421 0.66736 0.36659 0.0
O150 O 0.19231 0.64475 0.38475 0.0
C151 C 0.18229 0.58537 0.40094 0.0
N152 N 0.19875 0.58811 0.3735 0.0
C153 C 0.2071 0.53927 0.3716 0.0
C154 C 0.19033 0.53592 0.39991 0.0
C155 C 0.17782 0.55907 0.41458 0.0
C156 C 0.21086 0.56598 0.35916 0.0
H157 H 0.17266 0.6031 0.41233 0.0
C158 C 0.17203 0.66123 0.38917 0.0
O159 O 0.1232 0.67816 0.30402 0.0
O160 O 0.11547 0.63666 0.32463 0.0
N161 N 0.22753 0.59696 0.31955 0.0
C162 C 0.24151 0.60352 0.29106 0.0
C163 C 0.25451 0.58257 0.27267 0.0
C164 C 0.25312 0.55517 0.28388 0.0
C165 C 0.23854 0.54891 0.31323 0.0
C166 C 0.22612 0.57067 0.3306 0.0
H167 H 0.24269 0.62458 0.28241 0.0
O168 O 0.15663 0.6301 0.27638 0.0
O169 O 0.17492 0.61994 0.32526 0.0
O170 O 0.18677 0.67598 0.30536 0.0
O171 O 0.22323 0.65415 0.32744 0.0
C172 C 0.23557 0.52193 0.32573 0.0
C173 C 0.21983 0.51711 0.35487 0.0
H174 H 0.18673 0.51566 0.41042 0.0
H175 H 0.16476 0.55664 0.43636 0.0
H176 H 0.26563 0.58752 0.24996 0.0
H177 H 0.26328 0.53913 0.26971 0.0
H178 H 0.24495 0.50467 0.31291 0.0
H179 H 0.21734 0.49621 0.36393 0.0
Mn180 Mn 0.374 0.15726 0.31368 0.0
Mn181 Mn 0.40876 0.21307 0.34194 0.0
C182 C 0.41402 0.17231 0.28762 0.0
C183 C 0.36623 0.10968 0.30885 0.0
C184 C 0.35489 0.21709 0.30402 0.0
O185 O 0.36021 0.16059 0.36226 0.0
O186 O 0.38533 0.19776 0.37771 0.0
C187 C 0.44466 0.18627 0.39232 0.0
N188 N 0.44178 0.20193 0.36423 0.0
C189 C 0.49073 0.20928 0.36079 0.0
C190 C 0.49423 0.19329 0.38973 0.0
C191 C 0.47109 0.18165 0.40549 0.0
C192 C 0.4639 0.21312 0.34878 0.0
H193 H 0.42692 0.1774 0.4046 0.0
C194 C 0.36796 0.17856 0.38395 0.0
O195 O 0.34726 0.12755 0.30163 0.0
O196 O 0.3889 0.11936 0.3215 0.0
N197 N 0.43258 0.22933 0.3093 0.0
C198 C 0.42579 0.24268 0.28045 0.0
C199 C 0.44666 0.25471 0.26099 0.0
C200 C 0.47422 0.25308 0.27156 0.0
C201 C 0.48071 0.23921 0.30134 0.0
C202 C 0.45903 0.22764 0.3197 0.0
H203 H 0.40461 0.24412 0.27233 0.0
O204 O 0.39581 0.15844 0.27081 0.0
O205 O 0.40773 0.17786 0.31834 0.0
O206 O 0.35147 0.19127 0.29994 0.0
O207 O 0.37565 0.22723 0.31922 0.0
C208 C 0.50782 0.23622 0.31343 0.0
C209 C 0.51282 0.22125 0.34313 0.0
H210 H 0.51459 0.18965 0.39994 0.0
H211 H 0.47363 0.16922 0.42778 0.0
H212 H 0.44153 0.26531 0.23797 0.0
H213 H 0.49017 0.26256 0.25657 0.0
H214 H 0.52503 0.24501 0.29991 0.0
H215 H 0.5338 0.21876 0.35189 0.0
Mn216 Mn 0.86945 0.36932 0.30858 0.0
Mn217 Mn 0.81309 0.40154 0.33974 0.0
C218 C 0.85284 0.4096 0.28478 0.0
C219 C 0.91712 0.36288 0.30216 0.0
C220 C 0.80983 0.34903 0.29924 0.0
O221 O 0.86761 0.35428 0.35662 0.0
O222 O 0.8292 0.37685 0.3738 0.0
C223 C 0.8399 0.43581 0.39176 0.0
N224 N 0.82391 0.4338 0.36383 0.0
C225 C 0.81596 0.48273 0.36327 0.0
C226 C 0.83227 0.48533 0.39208 0.0
C227 C 0.84436 0.46177 0.40632 0.0
C228 C 0.81226 0.45634 0.34986 0.0
H229 H 0.84917 0.41776 0.40285 0.0
C230 C 0.84927 0.36019 0.37864 0.0
O231 O 0.89957 0.3437 0.29462 0.0
O232 O 0.90714 0.38499 0.31586 0.0
N233 N 0.79597 0.42637 0.30892 0.0
C234 C 0.78231 0.42052 0.27997 0.0
C235 C 0.76976 0.44195 0.26195 0.0
C236 C 0.7712 0.46909 0.27403 0.0
C237 C 0.78537 0.47461 0.30389 0.0
C238 C 0.79742 0.4524 0.3208 0.0
H239 H 0.78105 0.39966 0.27067 0.0
O240 O 0.86677 0.39225 0.26675 0.0
O241 O 0.84803 0.40228 0.31537 0.0
O242 O 0.83572 0.34619 0.29496 0.0
O243 O 0.79934 0.36919 0.31522 0.0
C244 C 0.78826 0.50127 0.31737 0.0
C245 C 0.80357 0.50534 0.34702 0.0
H246 H 0.83581 0.50532 0.40335 0.0
H247 H 0.85705 0.46362 0.4285 0.0
H248 H 0.75892 0.43757 0.23887 0.0
H249 H 0.76135 0.48548 0.26014 0.0
H250 H 0.77913 0.51887 0.30492 0.0
H251 H 0.80599 0.526 0.35685 0.0
Mn252 Mn 0.65123 0.86688 0.3134 0.0
Mn253 Mn 0.61829 0.81127 0.3454 0.0
C254 C 0.61084 0.85044 0.28973 0.0
C255 C 0.65838 0.91433 0.30596 0.0
C256 C 0.6708 0.80694 0.3051 0.0
O257 O 0.66605 0.86551 0.36154 0.0
O258 O 0.64324 0.8274 0.3792 0.0
C259 C 0.58446 0.83915 0.39701 0.0
N260 N 0.58621 0.82282 0.36935 0.0
C261 C 0.53714 0.81566 0.36893 0.0
C262 C 0.53482 0.83233 0.39748 0.0
C263 C 0.55858 0.84419 0.4115 0.0
C264 C 0.56347 0.81139 0.35558 0.0
H265 H 0.60267 0.84825 0.40793 0.0
C266 C 0.66001 0.84741 0.38381 0.0
O267 O 0.67734 0.89638 0.29897 0.0
O268 O 0.63605 0.90489 0.31974 0.0
N269 N 0.59316 0.79417 0.31489 0.0
C270 C 0.59876 0.7801 0.28616 0.0
C271 C 0.5771 0.76773 0.26835 0.0
C272 C 0.54998 0.76976 0.28041 0.0
C273 C 0.54473 0.78432 0.31005 0.0
C274 C 0.56715 0.79618 0.32676 0.0
H275 H 0.61959 0.7784 0.27687 0.0
O276 O 0.62843 0.86392 0.2715 0.0
O277 O 0.61799 0.84594 0.32045 0.0
O278 O 0.67397 0.83276 0.3006 0.0
O279 O 0.65044 0.79678 0.32104 0.0
C280 C 0.51812 0.78779 0.3235 0.0
C281 C 0.51432 0.80348 0.3529 0.0
H282 H 0.51489 0.83632 0.40869 0.0
H283 H 0.55695 0.85715 0.43347 0.0
H284 H 0.58128 0.75659 0.24543 0.0
H285 H 0.53339 0.76008 0.26668 0.0
H286 H 0.50037 0.77883 0.3112 0.0
H287 H 0.49371 0.80635 0.3627 0.0
Mn288 Mn 0.86824 0.65265 0.81264 0.0
Mn289 Mn 0.90021 0.70861 0.84524 0.0
C290 C 0.90861 0.66947 0.78953 0.0
C291 C 0.86141 0.60517 0.80541 0.0
C292 C 0.84787 0.71223 0.80456 0.0
O293 O 0.85286 0.65405 0.86055 0.0
O294 O 0.8757 0.6919 0.87905 0.0
C295 C 0.93473 0.68121 0.89654 0.0
N296 N 0.9326 0.69753 0.86891 0.0
C297 C 0.98159 0.70521 0.86796 0.0
C298 C 0.98429 0.68856 0.89648 0.0
C299 C 0.96076 0.67646 0.91077 0.0
C300 C 0.95511 0.70926 0.85493 0.0
H301 H 0.9167 0.67189 0.90764 0.0
C302 C 0.85889 0.67185 0.88318 0.0
O303 O 0.84247 0.623 0.79799 0.0
O304 O 0.88358 0.61475 0.81946 0.0
N305 N 0.92493 0.72618 0.81458 0.0
C306 C 0.91899 0.74004 0.78579 0.0
C307 C 0.94042 0.75248 0.76762 0.0
C308 C 0.96765 0.7507 0.77935 0.0
C309 C 0.97325 0.73635 0.80906 0.0
C310 C 0.95105 0.72443 0.82615 0.0
H311 H 0.89807 0.74147 0.77671 0.0
O312 O 0.89141 0.65566 0.77113 0.0
O313 O 0.9011 0.67397 0.82014 0.0
O314 O 0.84553 0.68649 0.79907 0.0
O315 O 0.86756 0.72272 0.82139 0.0
C316 C 1.00001 0.73308 0.82216 0.0
C317 C 1.00417 0.71753 0.85159 0.0
H318 H 1.00435 0.68475 0.90745 0.0
H319 H 0.96269 0.6635 0.93271 0.0
H320 H 0.93596 0.76344 0.74464 0.0
H321 H 0.9841 0.76034 0.76528 0.0
H322 H 0.01759 0.74209 0.80956 0.0
H323 H 0.02489 0.71481 0.86112 0.0
Mn324 Mn 0.36601 0.86587 0.81825 0.0
Mn325 Mn 0.30958 0.89723 0.85054 0.0
C326 C 0.34834 0.90556 0.79438 0.0
C327 C 0.4136 0.85993 0.81081 0.0
C328 C 0.30675 0.84431 0.81088 0.0
O329 O 0.36509 0.85112 0.86649 0.0
O330 O 0.32689 0.87351 0.88469 0.0
C331 C 0.33667 0.93293 0.90088 0.0
N332 N 0.3202 0.93013 0.87347 0.0
C333 C 0.31167 0.97894 0.87156 0.0
C334 C 0.32846 0.98235 0.89984 0.0
C335 C 0.34106 0.95924 0.91451 0.0
C336 C 0.30799 0.95222 0.85915 0.0
H337 H 0.34638 0.91523 0.91226 0.0
C338 C 0.34725 0.85713 0.88908 0.0
O339 O 0.39613 0.84052 0.80391 0.0
O340 O 0.40362 0.88206 0.82452 0.0
N341 N 0.2914 0.92119 0.81956 0.0
C342 C 0.27739 0.91458 0.7911 0.0
C343 C 0.2643 0.93549 0.77273 0.0
C344 C 0.26561 0.9629 0.78392 0.0
C345 C 0.2802 0.9692 0.81325 0.0
C346 C 0.29271 0.94748 0.8306 0.0
H347 H 0.27629 0.89353 0.78246 0.0
O348 O 0.36241 0.88836 0.77628 0.0
O349 O 0.3441 0.89844 0.82518 0.0
O350 O 0.33253 0.84235 0.80531 0.0
O351 O 0.29598 0.86402 0.82741 0.0
C352 C 0.2831 0.99619 0.82574 0.0
C353 C 0.29884 1.00107 0.85485 0.0
H354 H 0.33199 1.00262 0.91035 0.0
H355 H 0.35413 0.96171 0.93627 0.0
H356 H 0.25317 0.93051 0.75004 0.0
H357 H 0.25539 0.97891 0.76976 0.0
H358 H 0.27364 0.01342 0.81292 0.0
H359 H 0.30128 0.02197 0.86389 0.0
Mn360 Mn 0.14456 0.36081 0.81407 0.0
Mn361 Mn 0.10974 0.305 0.84231 0.0
C362 C 0.10465 0.34567 0.78788 0.0
C363 C 0.1523 0.40841 0.80917 0.0
C364 C 0.16361 0.30095 0.80443 0.0
O365 O 0.15823 0.35755 0.8627 0.0
O366 O 0.13325 0.32026 0.87802 0.0
C367 C 0.074 0.33194 0.89272 0.0
N368 N 0.07679 0.31623 0.86466 0.0
C369 C 0.02782 0.30895 0.86144 0.0
C370 C 0.02441 0.32499 0.89035 0.0
C371 C 0.0476 0.33662 0.90598 0.0
C372 C 0.0546 0.30508 0.84933 0.0
H373 H 0.09177 0.3408 0.90492 0.0
C374 C 0.15053 0.33952 0.88434 0.0
O375 O 0.1713 0.39054 0.80205 0.0
O376 O 0.12961 0.39872 0.82175 0.0
N377 N 0.0858 0.28875 0.80977 0.0
C378 C 0.09249 0.27529 0.78095 0.0
C379 C 0.07153 0.26326 0.76162 0.0
C380 C 0.044 0.26497 0.77228 0.0
C381 C 0.03763 0.27891 0.80205 0.0
C382 C 0.05938 0.29049 0.82026 0.0
H383 H 0.11365 0.27378 0.77277 0.0
O384 O 0.12288 0.35956 0.77112 0.0
O385 O 0.11084 0.34018 0.81865 0.0
O386 O 0.16712 0.32678 0.8005 0.0
O387 O 0.14279 0.29079 0.81948 0.0
C388 C 0.01056 0.28194 0.81425 0.0
C389 C 1.00566 0.29697 0.84391 0.0
H390 H 1.00409 0.32866 0.90064 0.0
H391 H 0.04514 0.34908 0.92825 0.0
H392 H 0.07658 0.25259 0.73862 0.0
H393 H 0.02795 0.25551 0.75741 0.0
H394 H 0.9933 0.27314 0.80082 0.0
H395 H 0.98471 0.2995 0.85276 0.0
Mn396 Mn 0.64921 0.14951 0.80707 0.0
Mn397 Mn 0.70591 0.11849 0.83926 0.0
C398 C 0.66658 0.1094 0.78389 0.0
C399 C 0.60149 0.15544 0.80047 0.0
C400 C 0.70843 0.17086 0.79846 0.0
O401 O 0.65073 0.16505 0.85492 0.0
O402 O 0.68897 0.14272 0.87314 0.0
C403 C 0.67937 0.08353 0.89079 0.0
N404 N 0.69553 0.08593 0.86305 0.0
C405 C 0.70429 0.03714 0.8623 0.0
C406 C 0.68782 0.03415 0.89092 0.0
C407 C 0.67524 0.05745 0.90517 0.0
C408 C 0.70769 0.06365 0.84911 0.0
H409 H 0.66971 0.10139 0.90187 0.0
C410 C 0.66875 0.15928 0.8774 0.0
O411 O 0.6189 0.17469 0.79268 0.0
O412 O 0.61164 0.13351 0.81445 0.0
N413 N 0.72378 0.09408 0.80852 0.0
C414 C 0.73745 0.10025 0.77967 0.0
C415 C 0.75034 0.07905 0.76156 0.0
C416 C 0.74921 0.05183 0.77343 0.0
C417 C 0.73505 0.046 0.80321 0.0
C418 C 0.72266 0.06797 0.82022 0.0
H419 H 0.73841 0.12116 0.77051 0.0
O420 O 0.65229 0.12629 0.7656 0.0
O421 O 0.67116 0.11703 0.81443 0.0
O422 O 0.68262 0.17277 0.79306 0.0
O423 O 0.71929 0.15136 0.81528 0.0
C424 C 0.73245 0.01922 0.81648 0.0
C425 C 0.71709 0.0148 0.846 0.0
H426 H 0.68451 0.01405 0.90202 0.0
H427 H 0.66242 0.0553 0.92719 0.0
H428 H 0.76115 0.08369 0.73853 0.0
H429 H 0.75921 0.03557 0.75943 0.0
H430 H 0.74185 1.00182 0.80394 0.0
H431 H 0.71489 0.99406 0.85566 0.0
Mn432 Mn 0.86581 0.36631 0.69678 0.0
Mn433 Mn 0.89721 0.30996 0.66438 0.0
C434 C 0.90553 0.34867 0.72058 0.0
C435 C 0.85985 0.41388 0.7042 0.0
C436 C 0.84427 0.30706 0.70404 0.0
O437 O 0.85101 0.36541 0.64858 0.0
O438 O 0.87348 0.3273 0.63025 0.0
C439 C 0.93292 0.33709 0.61407 0.0
N440 N 0.93011 0.3206 0.64147 0.0
C441 C 0.97894 0.31209 0.64338 0.0
C442 C 0.98234 0.32891 0.61512 0.0
C443 C 0.95924 0.34151 0.60046 0.0
C444 C 0.9522 0.30839 0.65579 0.0
H445 H 0.91522 0.34681 0.6027 0.0
C446 C 0.85705 0.34763 0.62594 0.0
O447 O 0.84045 0.39641 0.71115 0.0
O448 O 0.88198 0.40392 0.69047 0.0
N449 N 0.92116 0.29176 0.69534 0.0
C450 C 0.91454 0.27775 0.7238 0.0
C451 C 0.93546 0.26466 0.74218 0.0
C452 C 0.96287 0.266 0.731 0.0
C453 C 0.96918 0.28059 0.70168 0.0
C454 C 0.94746 0.29309 0.68432 0.0
H455 H 0.89348 0.27663 0.73243 0.0
O456 O 0.88833 0.36271 0.73872 0.0
O457 O 0.89839 0.34444 0.68979 0.0
O458 O 0.84232 0.33282 0.70971 0.0
O459 O 0.86398 0.29633 0.68747 0.0
C460 C 0.99618 0.28352 0.68921 0.0
C461 C 1.00106 0.29928 0.6601 0.0
H462 H 1.00262 0.33246 0.60463 0.0
H463 H 0.96171 0.35459 0.57871 0.0
H464 H 0.93047 0.25353 0.76487 0.0
H465 H 0.97888 0.25579 0.74517 0.0
H466 H 0.01342 0.27407 0.70203 0.0
H467 H 0.02197 0.30173 0.65107 0.0
Mn468 Mn 0.65221 0.86831 0.7016 0.0
Mn469 Mn 0.70816 0.90031 0.66893 0.0
C470 C 0.66903 0.90868 0.72467 0.0
C471 C 0.60473 0.86147 0.70893 0.0
C472 C 0.71182 0.84797 0.70962 0.0
O473 O 0.6536 0.85292 0.65368 0.0
O474 O 0.69143 0.87579 0.63515 0.0
C475 C 0.68072 0.93481 0.61764 0.0
N476 N 0.69706 0.93269 0.64526 0.0
C477 C 0.70477 0.98166 0.64615 0.0
C478 C 0.6881 0.98436 0.61765 0.0
C479 C 0.67597 0.96084 0.6034 0.0
C480 C 0.70881 0.95519 0.6592 0.0
H481 H 0.67138 0.91678 0.60657 0.0
C482 C 0.67139 0.85896 0.63104 0.0
O483 O 0.62257 0.84253 0.71631 0.0
O484 O 0.61429 0.88363 0.69484 0.0
N485 N 0.72573 0.92502 0.69956 0.0
C486 C 0.73961 0.91909 0.72834 0.0
C487 C 0.75208 0.94052 0.74648 0.0
C488 C 0.75031 0.96774 0.73473 0.0
C489 C 0.73594 0.97333 0.70503 0.0
C490 C 0.72399 0.95113 0.68798 0.0
H491 H 0.74104 0.89818 0.73743 0.0
O492 O 0.65523 0.89148 0.7431 0.0
O493 O 0.67352 0.90117 0.69406 0.0
O494 O 0.68607 0.84562 0.71514 0.0
O495 O 0.72229 0.86767 0.69277 0.0
C496 C 0.73268 1.00008 0.6919 0.0
C497 C 0.71711 1.00424 0.66249 0.0
H498 H 0.6843 1.00442 0.60667 0.0
H499 H 0.663 0.96277 0.58147 0.0
H500 H 0.76305 0.93606 0.76945 0.0
H501 H 0.75996 0.98419 0.74877 0.0
H502 H 0.74171 0.01766 0.70447 0.0
H503 H 0.71441 0.02496 0.65293 0.0
Mn504 Mn 0.14944 0.64946 0.70683 0.0
Mn505 Mn 0.11839 0.7062 0.6748 0.0
C506 C 0.10934 0.6668 0.7301 0.0
C507 C 0.15539 0.60174 0.71342 0.0
C508 C 0.17079 0.70866 0.71556 0.0
O509 O 0.16493 0.65103 0.65893 0.0
O510 O 0.14262 0.68932 0.64086 0.0
C511 C 0.08343 0.67972 0.62324 0.0
N512 N 0.08583 0.69585 0.651 0.0
C513 C 0.03703 0.70462 0.65178 0.0
C514 C 0.03404 0.68818 0.62313 0.0
C515 C 0.05733 0.67562 0.60887 0.0
C516 C 0.06355 0.70799 0.66497 0.0
H517 H 0.10128 0.67008 0.61214 0.0
C518 C 0.15916 0.66909 0.6365 0.0
O519 O 0.17464 0.61915 0.72116 0.0
O520 O 0.13344 0.61188 0.69947 0.0
N521 N 0.09398 0.72403 0.70557 0.0
C522 C 0.10016 0.73767 0.73443 0.0
C523 C 0.07896 0.75056 0.75255 0.0
C524 C 0.05174 0.74945 0.74068 0.0
C525 C 0.0459 0.73532 0.71089 0.0
C526 C 0.06787 0.72292 0.69387 0.0
H527 H 0.12108 0.73862 0.74359 0.0
O528 O 0.12625 0.6525 0.74834 0.0
O529 O 0.11694 0.67141 0.69956 0.0
O530 O 0.17271 0.68284 0.72085 0.0
O531 O 0.15128 0.71956 0.69879 0.0
C532 C 0.01912 0.73275 0.69763 0.0
C533 C 0.01469 0.71741 0.66809 0.0
H534 H 0.01394 0.68489 0.61204 0.0
H535 H 0.05518 0.66282 0.58682 0.0
H536 H 0.08361 0.76135 0.77558 0.0
H537 H 0.03548 0.75946 0.75469 0.0
H538 H 1.00172 0.74214 0.71017 0.0
H539 H 0.99395 0.71524 0.65843 0.0
Mn540 Mn 0.3603 0.14453 0.70078 0.0
Mn541 Mn 0.30442 0.1098 0.67261 0.0
C542 C 0.34513 0.10464 0.727 0.0
C543 C 0.40791 0.15224 0.70557 0.0
C544 C 0.30047 0.16367 0.71048 0.0
O545 O 0.35703 0.1582 0.65217 0.0
O546 O 0.3197 0.13329 0.63686 0.0
C547 C 0.33131 0.07404 0.62217 0.0
N548 N 0.31562 0.07684 0.65025 0.0
C549 C 0.30834 0.02788 0.65353 0.0
C550 C 0.32436 0.02447 0.6246 0.0
C551 C 0.33597 0.04765 0.60893 0.0
C552 C 0.30447 0.05467 0.66562 0.0
H553 H 0.34016 0.09181 0.60994 0.0
C554 C 0.33899 0.15054 0.63054 0.0
O555 O 0.39006 0.17125 0.71273 0.0
O556 O 0.3982 0.12955 0.69304 0.0
N557 N 0.28817 0.08588 0.70518 0.0
C558 C 0.27473 0.09257 0.73401 0.0
C559 C 0.26272 0.07162 0.75338 0.0
C560 C 0.26443 0.04409 0.74274 0.0
C561 C 0.27834 0.03771 0.71295 0.0
C562 C 0.28991 0.05946 0.6947 0.0
H563 H 0.27323 0.11373 0.74217 0.0
O564 O 0.35906 0.12285 0.74374 0.0
O565 O 0.33963 0.11084 0.69623 0.0
O566 O 0.32631 0.16713 0.71439 0.0
O567 O 0.29026 0.14286 0.69544 0.0
C568 C 0.28138 0.01064 0.70078 0.0
C569 C 0.29638 1.00573 0.6711 0.0
H570 H 0.32803 1.00414 0.61432 0.0
H571 H 0.34843 0.04518 0.58664 0.0
H572 H 0.25207 0.07668 0.77639 0.0
H573 H 0.25499 0.02805 0.75764 0.0
H574 H 0.27259 0.99339 0.71424 0.0
H575 H 0.29891 0.98478 0.66227 0.0
H576 H 0.35592 0.27337 0.30627 0.0
H577 H 0.30638 0.20514 0.27121 0.0
H578 H 0.3222 0.30555 0.28435 0.0
H579 H 0.27273 0.23768 0.24859 0.0
H580 H 0.27411 0.35551 0.20866 0.0
H581 H 0.30621 0.32167 0.2305 0.0
H582 H 0.2382 0.27223 0.26598 0.0
H583 H 0.20575 0.306 0.24344 0.0
C584 C 0.33788 0.26515 0.29381 0.0
C585 C 0.334 0.23654 0.29049 0.0
C586 C 0.31858 0.28369 0.28103 0.0
C587 C 0.29483 0.27423 0.2645 0.0
C588 C 0.2907 0.24565 0.26142 0.0
C589 C 0.3101 0.227 0.27421 0.0
C590 C 0.26585 0.33745 0.22105 0.0
C591 C 0.23723 0.33361 0.22432 0.0
C592 C 0.28435 0.31808 0.23377 0.0
C593 C 0.27482 0.2943 0.2502 0.0
C594 C 0.24622 0.29022 0.25322 0.0
C595 C 0.22763 0.30968 0.24048 0.0
H596 H 0.82248 0.30078 0.26618 0.0
H597 H 0.75355 0.34984 0.30018 0.0
H598 H 0.79035 0.26712 0.24259 0.0
H599 H 0.72181 0.31617 0.27724 0.0
H600 H 0.67313 0.26855 0.2001 0.0
H601 H 0.70682 0.30053 0.22251 0.0
H602 H 0.75533 0.2324 0.25944 0.0
H603 H 0.72166 0.20004 0.23639 0.0
C604 C 0.80055 0.3044 0.26872 0.0
C605 C 0.79069 0.32815 0.28501 0.0
C606 C 0.78216 0.285 0.25538 0.0
C607 C 0.75351 0.28902 0.25787 0.0
C608 C 0.74373 0.31264 0.27439 0.0
C609 C 0.76202 0.33191 0.28774 0.0
C610 C 0.69096 0.26023 0.21289 0.0
C611 C 0.69454 0.2316 0.21648 0.0
C612 C 0.71025 0.27866 0.22594 0.0
C613 C 0.73369 0.26906 0.24299 0.0
C614 C 0.73758 0.24045 0.24622 0.0
C615 C 0.71818 0.22192 0.23318 0.0
H616 H 0.81963 0.7186 0.2426 0.0
H617 H 0.75119 0.66942 0.20736 0.0
H618 H 0.78721 0.75208 0.26585 0.0
H619 H 0.71913 0.70296 0.22996 0.0
H620 H 0.66978 0.75064 0.30689 0.0
H621 H 0.70339 0.71861 0.28435 0.0
H622 H 0.75257 0.78673 0.24868 0.0
H623 H 0.71903 0.8191 0.27185 0.0
C624 C 0.79774 0.71492 0.2397 0.0
C625 C 0.7881 0.69119 0.22317 0.0
C626 C 0.77917 0.73422 0.25285 0.0
C627 C 0.75057 0.73014 0.24989 0.0
C628 C 0.741 0.70654 0.23316 0.0
C629 C 0.75948 0.68735 0.21999 0.0
C630 C 0.68774 0.75894 0.29431 0.0
C631 C 0.69157 0.78756 0.29117 0.0
C632 C 0.70697 0.74048 0.28119 0.0
C633 C 0.73061 0.75008 0.26453 0.0
C634 C 0.73468 0.77867 0.26162 0.0
C635 C 0.71535 0.79722 0.27472 0.0
H636 H 0.31888 0.81598 0.27336 0.0
H637 H 0.33031 0.7612 0.18923 0.0
H638 H 0.28477 0.78402 0.29702 0.0
H639 H 0.29563 0.72988 0.21243 0.0
H640 H 0.20622 0.70431 0.25374 0.0
H641 H 0.23836 0.73837 0.23043 0.0
H642 H 0.29258 0.72645 0.31476 0.0
H643 H 0.26104 0.69178 0.33762 0.0
C644 C 0.31389 0.7973 0.25979 0.0
C645 C 0.32729 0.79102 0.22952 0.0
C646 C 0.29449 0.77907 0.27335 0.0
C647 C 0.28765 0.75467 0.25638 0.0
C648 C 0.30054 0.74867 0.22581 0.0
C649 C 0.32043 0.7665 0.21269 0.0
C650 C 0.22494 0.70906 0.26736 0.0
C651 C 0.23118 0.69535 0.29744 0.0
C652 C 0.24327 0.72844 0.254 0.0
C653 C 0.26776 0.73496 0.27097 0.0
C654 C 0.27372 0.7218 0.30139 0.0
C655 C 0.25576 0.70192 0.31431 0.0
H656 H 0.76047 0.83045 0.68308 0.0
H657 H 0.70577 0.81789 0.76708 0.0
H658 H 0.79217 0.79598 0.70602 0.0
H659 H 0.73807 0.78402 0.79046 0.0
H660 H 0.83031 0.76089 0.83104 0.0
H661 H 0.79576 0.7925 0.8081 0.0
H662 H 0.7838 0.73831 0.72378 0.0
H663 H 0.81775 0.70609 0.74715 0.0
C664 C 0.75527 0.82037 0.70646 0.0
C665 C 0.73067 0.82685 0.72333 0.0
C666 C 0.77331 0.80062 0.71942 0.0
C667 C 0.76741 0.78748 0.74988 0.0
C668 C 0.74294 0.79395 0.76689 0.0
C669 C 0.72451 0.81321 0.75349 0.0
C670 C 0.82022 0.75565 0.80769 0.0
C671 C 0.82671 0.73105 0.79085 0.0
C672 C 0.80042 0.77365 0.79473 0.0
C673 C 0.78725 0.76769 0.76431 0.0
C674 C 0.79375 0.74322 0.74733 0.0
C675 C 0.81306 0.72484 0.76072 0.0
H676 H 0.20046 0.70222 0.77331 0.0
H677 H 0.18936 0.75688 0.68898 0.0
H678 H 0.2346 0.73413 0.79699 0.0
H679 H 0.22407 0.78815 0.71219 0.0
H680 H 0.31315 0.81406 0.75363 0.0
H681 H 0.2811 0.77994 0.73027 0.0
H682 H 0.22694 0.79144 0.81475 0.0
H683 H 0.25839 0.82616 0.83766 0.0
C684 C 0.20553 0.72086 0.7597 0.0
C685 C 0.19221 0.72713 0.72938 0.0
C686 C 0.22495 0.73907 0.77326 0.0
C687 C 0.23189 0.76342 0.75625 0.0
C688 C 0.21909 0.76939 0.7256 0.0
C689 C 0.19918 0.75159 0.71248 0.0
C690 C 0.29447 0.80919 0.76727 0.0
C691 C 0.28821 0.8228 0.7974 0.0
C692 C 0.27618 0.78978 0.75388 0.0
C693 C 0.25174 0.78313 0.77087 0.0
C694 C 0.24578 0.79619 0.80136 0.0
C695 C 0.26368 0.81609 0.81431 0.0
H696 H 0.16257 0.24467 0.80657 0.0
H697 H 0.2121 0.31295 0.77161 0.0
H698 H 0.19625 0.21252 0.78448 0.0
H699 H 0.24571 0.28046 0.74882 0.0
H700 H 0.24417 0.16276 0.70844 0.0
H701 H 0.21213 0.19655 0.73051 0.0
H702 H 0.28023 0.24586 0.76597 0.0
H703 H 0.31262 0.21214 0.7432 0.0
C704 C 0.1806 0.2529 0.7941 0.0
C705 C 0.18449 0.28151 0.79085 0.0
C706 C 0.19988 0.23438 0.78122 0.0
C707 C 0.22361 0.24388 0.76467 0.0
C708 C 0.22775 0.27247 0.76167 0.0
C709 C 0.20838 0.29108 0.77457 0.0
C710 C 0.25246 0.18078 0.72087 0.0
C711 C 0.28109 0.1846 0.72406 0.0
C712 C 0.234 0.20012 0.73373 0.0
C713 C 0.24358 0.22384 0.75022 0.0
C714 C 0.27218 0.22791 0.75316 0.0
C715 C 0.29074 0.20848 0.74028 0.0
H716 H 0.70218 0.20055 0.74067 0.0
H717 H 0.7565 0.18949 0.82533 0.0
H718 H 0.73412 0.23477 0.71723 0.0
H719 H 0.78781 0.22427 0.80236 0.0
H720 H 0.81398 0.31326 0.76131 0.0
H721 H 0.77979 0.28117 0.78444 0.0
H722 H 0.79132 0.22735 0.69966 0.0
H723 H 0.8261 0.25884 0.67698 0.0
C724 C 0.72075 0.20564 0.7544 0.0
C725 C 0.72692 0.19231 0.78475 0.0
C726 C 0.73898 0.22511 0.74098 0.0
C727 C 0.76324 0.23208 0.75815 0.0
C728 C 0.76911 0.21926 0.78882 0.0
C729 C 0.75129 0.19932 0.8018 0.0
C730 C 0.80911 0.29464 0.74756 0.0
C731 C 0.82274 0.28848 0.71741 0.0
C732 C 0.78965 0.27633 0.76081 0.0
C733 C 0.78299 0.25197 0.74367 0.0
C734 C 0.79608 0.24612 0.71316 0.0
C735 C 0.81602 0.26404 0.70035 0.0
H736 H 0.17655 0.38261 0.91661 0.0
H737 H 0.14471 0.30038 0.93264 0.0
H738 H 0.18484 0.38684 0.97697 0.0
H739 H 0.15268 0.30487 0.99229 0.0
H740 H 0.13588 0.34185 0.0988 0.0
H741 H 0.1315 0.33368 0.03843 0.0
H742 H 0.21363 0.3654 0.02299 0.0
H743 H 0.21826 0.37326 0.08264 0.0
C744 C 0.17175 0.36534 0.93278 0.0
C745 C 0.15976 0.34131 0.9197 0.0
C746 C 0.17638 0.36777 0.96732 0.0
C747 C 0.16896 0.34629 0.9893 0.0
C748 C 0.15806 0.32194 0.97605 0.0
C749 C 0.15368 0.31941 0.94173 0.0
C750 C 0.15315 0.34657 0.0826 0.0
C751 C 0.17727 0.35842 0.09565 0.0
C752 C 0.15063 0.34201 0.04806 0.0
C753 C 0.17212 0.34936 0.02603 0.0
C754 C 0.19656 0.36009 0.03926 0.0
C755 C 0.19918 0.36441 0.07358 0.0
H756 H 0.62505 0.15174 0.91883 0.0
H757 H 0.70683 0.18627 0.914 0.0
H758 H 0.62666 0.15394 0.9802 0.0
H759 H 0.70849 0.18867 0.97508 0.0
H760 H 0.68506 0.21028 0.0861 0.0
H761 H 0.6861 0.2109 0.02495 0.0
H762 H 0.65546 0.12736 0.02315 0.0
H763 H 0.65462 0.12681 0.0846 0.0
C764 C 0.64283 0.1609 0.9309 0.0
C765 C 0.6656 0.16933 0.91186 0.0
C766 C 0.64404 0.16158 0.96593 0.0
C767 C 0.66794 0.17097 0.98235 0.0
C768 C 0.68985 0.18129 0.96313 0.0
C769 C 0.68878 0.18024 0.92822 0.0
C770 C 0.67961 0.19171 0.07257 0.0
C771 C 0.67022 0.16833 0.08991 0.0
C772 C 0.6799 0.19216 0.03762 0.0
C773 C 0.67033 0.16939 0.01934 0.0
C774 C 0.66248 0.14538 0.0367 0.0
C775 C 0.66258 0.14481 0.07177 0.0
H776 H 0.83319 0.71001 0.92107 0.0
H777 H 0.8655 0.62728 0.92344 0.0
H778 H 0.83091 0.71052 0.98223 0.0
H779 H 0.86355 0.62779 0.98486 0.0
H780 H 0.89225 0.65385 0.08962 0.0
H781 H 0.89133 0.65594 0.02822 0.0
H782 H 0.80792 0.68679 0.03165 0.0
H783 H 0.80884 0.68439 0.0928 0.0
C784 C 0.83878 0.69156 0.93476 0.0
C785 C 0.84902 0.66841 0.9177 0.0
C786 C 0.8378 0.69196 0.9697 0.0
C787 C 0.84758 0.66941 0.98823 0.0
C788 C 0.85632 0.64562 0.97111 0.0
C789 C 0.85687 0.64506 0.93605 0.0
C790 C 0.87419 0.66211 0.0772 0.0
C791 C 0.85079 0.66942 0.09577 0.0
C792 C 0.87341 0.66273 0.04214 0.0
C793 C 0.84934 0.67103 0.02525 0.0
C794 C 0.82669 0.68025 0.044 0.0
C795 C 0.82732 0.67919 0.07893 0.0
H796 H 0.33411 0.81028 0.09961 0.0
H797 H 0.36668 0.89285 0.09501 0.0
H798 H 0.33172 0.80868 0.03854 0.0
H799 H 0.36448 0.89133 0.03363 0.0
H800 H 0.39196 0.86446 0.92901 0.0
H801 H 0.39161 0.86339 0.99045 0.0
H802 H 0.3089 0.83055 0.98882 0.0
H803 H 0.30933 0.8318 0.92766 0.0
C804 C 0.33972 0.82848 0.08544 0.0
C805 C 0.35008 0.85188 0.10187 0.0
C806 C 0.33867 0.82746 0.05053 0.0
C807 C 0.34844 0.84966 0.03136 0.0
C808 C 0.35728 0.87373 0.04785 0.0
C809 C 0.35795 0.87488 0.08289 0.0
C810 C 0.37423 0.85596 0.94187 0.0
C811 C 0.35086 0.84775 0.92378 0.0
C812 C 0.37375 0.85593 0.97694 0.0
C813 C 0.35 0.8474 0.99435 0.0
C814 C 0.32744 0.83727 0.9761 0.0
C815 C 0.3278 0.83768 0.94115 0.0
H816 H 0.18572 0.70741 0.59985 0.0
H817 H 0.152 0.62531 0.59504 0.0
H818 H 0.18811 0.70911 0.53878 0.0
H819 H 0.15422 0.62693 0.53367 0.0
H820 H 0.12721 0.65424 0.42905 0.0
H821 H 0.12755 0.65516 0.4905 0.0
H822 H 0.21057 0.6872 0.48901 0.0
H823 H 0.21015 0.68612 0.42786 0.0
C824 C 0.17986 0.68931 0.58563 0.0
C825 C 0.16918 0.66603 0.60201 0.0
C826 C 0.18092 0.6904 0.55072 0.0
C827 C 0.17084 0.66838 0.5315 0.0
C828 C 0.16167 0.6444 0.54793 0.0
C829 C 0.16098 0.64318 0.58297 0.0
C830 C 0.14502 0.66254 0.44195 0.0
C831 C 0.16847 0.67057 0.42389 0.0
C832 C 0.14549 0.66248 0.47703 0.0
C833 C 0.16931 0.67073 0.49448 0.0
C834 C 0.19197 0.68069 0.47627 0.0
C835 C 0.19162 0.68038 0.44132 0.0
H836 H 0.38218 0.17647 0.59837 0.0
H837 H 0.29995 0.14467 0.58212 0.0
H838 H 0.38659 0.18461 0.53801 0.0
H839 H 0.30463 0.15251 0.52245 0.0
H840 H 0.34198 0.13542 0.41617 0.0
H841 H 0.33354 0.13121 0.47651 0.0
H842 H 0.36539 0.21329 0.49181 0.0
H843 H 0.37352 0.21775 0.43219 0.0
C844 C 0.36494 0.17166 0.58215 0.0
C845 C 0.34086 0.15971 0.59517 0.0
C846 C 0.36748 0.1762 0.54761 0.0
C847 C 0.34605 0.16876 0.52556 0.0
C848 C 0.32165 0.15791 0.53875 0.0
C849 C 0.31901 0.1536 0.57307 0.0
C850 C 0.34667 0.15271 0.43233 0.0
C851 C 0.35864 0.17676 0.41926 0.0
C852 C 0.34196 0.1503 0.46685 0.0
C853 C 0.34926 0.17182 0.48883 0.0
C854 C 0.36011 0.1962 0.47558 0.0
C855 C 0.36459 0.19871 0.44128 0.0
H856 H 0.89319 0.36613 0.42019 0.0
H857 H 0.81002 0.33508 0.41544 0.0
H858 H 0.89149 0.36405 0.48156 0.0
H859 H 0.80827 0.33278 0.47652 0.0
H860 H 0.83131 0.30992 0.58749 0.0
H861 H 0.82999 0.30947 0.52633 0.0
H862 H 0.86365 0.39183 0.52454 0.0
H863 H 0.86473 0.39224 0.58598 0.0
C864 C 0.87503 0.35777 0.43227 0.0
C865 C 0.85191 0.35031 0.41326 0.0
C866 C 0.87379 0.35716 0.46731 0.0
C867 C 0.84953 0.34877 0.48374 0.0
C868 C 0.82719 0.33939 0.46455 0.0
C869 C 0.82829 0.3404 0.42965 0.0
C870 C 0.83734 0.32832 0.57396 0.0
C871 C 0.84764 0.35131 0.59129 0.0
C872 C 0.8369 0.32795 0.53901 0.0
C873 C 0.84725 0.35039 0.52073 0.0
C874 C 0.85601 0.37406 0.53809 0.0
C875 C 0.85605 0.37458 0.57315 0.0
H876 H 0.70953 0.83293 0.59346 0.0
H877 H 0.62701 0.86578 0.59051 0.0
H878 H 0.71028 0.83056 0.53231 0.0
H879 H 0.62776 0.86373 0.52911 0.0
H880 H 0.6543 0.89196 0.42436 0.0
H881 H 0.65615 0.89118 0.48578 0.0
H882 H 0.68673 0.80767 0.48282 0.0
H883 H 0.68458 0.80845 0.42167 0.0
C884 C 0.69116 0.83862 0.57964 0.0
C885 C 0.66801 0.84903 0.59655 0.0
C886 C 0.69171 0.83758 0.54471 0.0
C887 C 0.6693 0.84748 0.52602 0.0
C888 C 0.64549 0.8564 0.54298 0.0
C889 C 0.64479 0.85701 0.57803 0.0
C890 C 0.66245 0.87391 0.4369 0.0
C891 C 0.66975 0.85044 0.41845 0.0
C892 C 0.66293 0.87321 0.47196 0.0
C893 C 0.67107 0.84915 0.48899 0.0
C894 C 0.68031 0.82643 0.47037 0.0
C895 C 0.67938 0.82699 0.43543 0.0
H896 H 0.18907 0.59165 0.23514 0.0
H897 H 0.15446 0.56902 0.33076 0.0
H898 H 0.19081 0.54287 0.21933 0.0
H899 H 0.15687 0.52046 0.31557 0.0
H900 H 0.15581 0.45728 0.19198 0.0
H901 H 0.15703 0.5057 0.20782 0.0
H902 H 0.19113 0.48332 0.30401 0.0
H903 H 0.19022 0.43453 0.28766 0.0
C904 C 0.18217 0.57617 0.25279 0.0
C905 C 0.17254 0.5838 0.28449 0.0
C906 C 0.18323 0.54832 0.24389 0.0
C907 C 0.17455 0.5278 0.26654 0.0
C908 C 0.16437 0.53569 0.29795 0.0
C909 C 0.16302 0.56344 0.30663 0.0
C910 C 0.16396 0.46281 0.21634 0.0
C911 C 0.17375 0.44247 0.23829 0.0
C912 C 0.16468 0.49049 0.22536 0.0
C913 C 0.17466 0.49836 0.25689 0.0
C914 C 0.18357 0.47785 0.27942 0.0
C915 C 0.18301 0.45002 0.27021 0.0
H916 H 0.56935 0.1529 0.18418 0.0
H917 H 0.59222 0.18796 0.27945 0.0
H918 H 0.52084 0.15518 0.19963 0.0
H919 H 0.54346 0.18964 0.29551 0.0
H920 H 0.43505 0.18891 0.22723 0.0
H921 H 0.48382 0.18946 0.21084 0.0
H922 H 0.50611 0.15613 0.30747 0.0
H923 H 0.45767 0.15517 0.3233 0.0
C924 C 0.56384 0.16149 0.20831 0.0
C925 C 0.58425 0.17118 0.23026 0.0
C926 C 0.53611 0.16278 0.21713 0.0
C927 C 0.52828 0.17311 0.2485 0.0
C928 C 0.54886 0.18191 0.27099 0.0
C929 C 0.57669 0.18089 0.26195 0.0
C930 C 0.45051 0.1818 0.24478 0.0
C931 C 0.44292 0.17283 0.2768 0.0
C932 C 0.47834 0.18216 0.23555 0.0
C933 C 0.49883 0.17338 0.25818 0.0
C934 C 0.49093 0.1637 0.28984 0.0
C935 C 0.46323 0.16313 0.29887 0.0
H936 H 0.86842 0.56767 0.1872 0.0
H937 H 0.8335 0.58772 0.28349 0.0
H938 H 0.86715 0.51883 0.20105 0.0
H939 H 0.83277 0.53857 0.29793 0.0
H940 H 0.86924 0.45263 0.32211 0.0
H941 H 0.86708 0.50146 0.30826 0.0
H942 H 0.83351 0.48106 0.21116 0.0
H943 H 0.83518 0.43193 0.22557 0.0
C944 C 0.86009 0.56147 0.21123 0.0
C945 C 0.85014 0.58118 0.23392 0.0
C946 C 0.85937 0.53354 0.21913 0.0
C947 C 0.84934 0.52481 0.25029 0.0
C948 C 0.8403 0.54469 0.27355 0.0
C949 C 0.84077 0.57274 0.26544 0.0
C950 C 0.86092 0.45869 0.29802 0.0
C951 C 0.85148 0.43878 0.27525 0.0
C952 C 0.85969 0.4866 0.29012 0.0
C953 C 0.84962 0.49514 0.2589 0.0
C954 C 0.84107 0.47509 0.23557 0.0
C955 C 0.84208 0.44705 0.24367 0.0
H956 H 0.58831 0.83238 0.23079 0.0
H957 H 0.56805 0.86796 0.32666 0.0
H958 H 0.53912 0.83125 0.21637 0.0
H959 H 0.51922 0.86639 0.31279 0.0
H960 H 0.4325 0.83407 0.28887 0.0
H961 H 0.48166 0.83241 0.30309 0.0
H962 H 0.50186 0.86556 0.20571 0.0
H963 H 0.45298 0.86779 0.19207 0.0
C964 C 0.57327 0.83974 0.24874 0.0
C965 C 0.58166 0.84941 0.28015 0.0
C966 C 0.54522 0.83905 0.24063 0.0
C967 C 0.5253 0.8482 0.26378 0.0
C968 C 0.53397 0.85854 0.29481 0.0
C969 C 0.56189 0.85944 0.30272 0.0
C970 C 0.44758 0.84084 0.27064 0.0
C971 C 0.43924 0.85017 0.23907 0.0
C972 C 0.47564 0.83983 0.27863 0.0
C973 C 0.49563 0.84829 0.25519 0.0
C974 C 0.48703 0.85823 0.22393 0.0
C975 C 0.45909 0.85949 0.21615 0.0
H976 H 0.90087 0.56486 0.80874 0.0
H977 H 0.81769 0.57991 0.77492 0.0
H978 H 0.89958 0.51916 0.78319 0.0
H979 H 0.81654 0.53443 0.74899 0.0
H980 H 0.81646 0.43987 0.73451 0.0
H981 H 0.81605 0.48531 0.76061 0.0
H982 H 0.89955 0.49908 0.72711 0.0
H983 H 0.90009 0.45343 0.70141 0.0
C984 C 0.88218 0.55831 0.79622 0.0
C985 C 0.85937 0.57608 0.79396 0.0
C986 C 0.88155 0.53221 0.7812 0.0
C987 C 0.85807 0.52316 0.76363 0.0
C988 C 0.83492 0.54059 0.76242 0.0
C989 C 0.83559 0.56672 0.77732 0.0
C990 C 0.83462 0.45272 0.7323 0.0
C991 C 0.8583 0.44296 0.7158 0.0
C992 C 0.83438 0.47883 0.7473 0.0
C993 C 0.85786 0.49582 0.74634 0.0
C994 C 0.88127 0.48637 0.72893 0.0
C995 C 0.88147 0.4603 0.71381 0.0
H996 H 0.5644 0.90092 0.70572 0.0
H997 H 0.57952 0.81778 0.73956 0.0
H998 H 0.51876 0.89966 0.73144 0.0
H999 H 0.53409 0.81665 0.76567 0.0
H1000 H 0.43958 0.81654 0.78053 0.0
H1001 H 0.48497 0.81612 0.75428 0.0
H1002 H 0.49873 0.89967 0.78754 0.0
H1003 H 0.45313 0.90021 0.81339 0.0
C1004 C 0.55788 0.88225 0.71828 0.0
C1005 C 0.57565 0.85944 0.72049 0.0
C1006 C 0.53181 0.88163 0.73341 0.0
C1007 C 0.52279 0.85816 0.75103 0.0
C1008 C 0.54022 0.83502 0.75219 0.0
C1009 C 0.56633 0.83567 0.73719 0.0
C1010 C 0.45242 0.8347 0.78266 0.0
C1011 C 0.44267 0.8584 0.79913 0.0
C1012 C 0.4785 0.83447 0.76757 0.0
C1013 C 0.49548 0.85796 0.76842 0.0
C1014 C 0.48603 0.88138 0.7858 0.0
C1015 C 0.45999 0.88157 0.80101 0.0
H1016 H 0.11318 0.44894 0.81306 0.0
H1017 H 0.19667 0.43408 0.78031 0.0
H1018 H 0.11498 0.49508 0.78886 0.0
H1019 H 0.19836 0.48012 0.75572 0.0
H1020 H 0.1153 0.56215 0.70889 0.0
H1021 H 0.11566 0.51601 0.73327 0.0
H1022 H 0.19875 0.52923 0.76852 0.0
H1023 H 0.19851 0.57522 0.74377 0.0
C1024 C 0.13206 0.45562 0.80107 0.0
C1025 C 0.15479 0.43775 0.79871 0.0
C1026 C 0.13298 0.482 0.78681 0.0
C1027 C 0.15669 0.49128 0.76989 0.0
C1028 C 0.17979 0.47377 0.76865 0.0
C1029 C 0.17883 0.44733 0.78279 0.0
C1030 C 0.1338 0.55508 0.72141 0.0
C1031 C 0.15688 0.57243 0.7243 0.0
C1032 C 0.1339 0.52871 0.73576 0.0
C1033 C 0.15711 0.51893 0.75329 0.0
C1034 C 0.18055 0.53595 0.75512 0.0
C1035 C 0.18041 0.56237 0.7409 0.0
H1036 H 0.44843 0.11313 0.70156 0.0
H1037 H 0.43366 0.19664 0.73421 0.0
H1038 H 0.49465 0.11496 0.72553 0.0
H1039 H 0.47979 0.19837 0.75856 0.0
H1040 H 0.57494 0.1985 0.77005 0.0
H1041 H 0.52888 0.19872 0.74548 0.0
H1042 H 0.5157 0.11573 0.78107 0.0
H1043 H 0.5619 0.1154 0.80527 0.0
C1044 C 0.45515 0.13202 0.71347 0.0
C1045 C 0.43728 0.15474 0.71589 0.0
C1046 C 0.48157 0.13296 0.7276 0.0
C1047 C 0.49091 0.15669 0.74442 0.0
C1048 C 0.4734 0.17979 0.74571 0.0
C1049 C 0.44691 0.1788 0.7317 0.0
C1050 C 0.56209 0.18042 0.77304 0.0
C1051 C 0.57217 0.15693 0.78968 0.0
C1052 C 0.53563 0.18055 0.75892 0.0
C1053 C 0.5186 0.15713 0.7609 0.0
C1054 C 0.52841 0.13395 0.77847 0.0
C1055 C 0.55481 0.13387 0.79272 0.0
H1056 H 0.68523 0.08715 0.72515 0.0
H1057 H 0.65057 0.06632 0.82135 0.0
H1058 H 0.68757 0.03799 0.71098 0.0
H1059 H 0.65337 0.01748 0.80773 0.0
H1060 H 0.68725 0.93139 0.78336 0.0
H1061 H 0.68832 0.98059 0.79755 0.0
H1062 H 0.65353 1.00023 0.70085 0.0
H1063 H 0.65193 0.95135 0.68723 0.0
C1064 C 0.67837 0.072 0.74324 0.0
C1065 C 0.66857 0.08023 0.77465 0.0
C1066 C 0.67976 0.04396 0.73528 0.0
C1067 C 0.67118 0.0239 0.75857 0.0
C1068 C 0.66079 0.03239 0.78965 0.0
C1069 C 0.65918 0.06029 0.79741 0.0
C1070 C 0.68 0.94637 0.76527 0.0
C1071 C 0.67038 0.93789 0.73388 0.0
C1072 C 0.68066 0.97443 0.77325 0.0
C1073 C 0.67156 0.99426 0.74998 0.0
C1074 C 0.66135 0.98552 0.71891 0.0
C1075 C 0.66045 0.95759 0.71115 0.0
H1076 H 0.93133 0.68763 0.73082 0.0
H1077 H 0.95128 0.65239 0.82698 0.0
H1078 H 0.98053 0.68864 0.71659 0.0
H1079 H 1.00017 0.65393 0.81333 0.0
H1080 H 0.08715 0.68545 0.78889 0.0
H1081 H 0.03799 0.68786 0.80312 0.0
H1082 H 0.01738 0.65369 0.7064 0.0
H1083 H 0.06621 0.65084 0.69271 0.0
C1084 C 0.94631 0.68039 0.7489 0.0
C1085 C 0.93783 0.6708 0.78032 0.0
C1086 C 0.97437 0.68102 0.74091 0.0
C1087 C 0.99421 0.67191 0.76417 0.0
C1088 C 0.98546 0.66175 0.79526 0.0
C1089 C 0.95752 0.66088 0.80305 0.0
C1090 C 0.07197 0.67861 0.77082 0.0
C1091 C 0.08017 0.66881 0.7394 0.0
C1092 C 0.04394 0.68003 0.77882 0.0
C1093 C 0.02385 0.67149 0.75555 0.0
C1094 C 0.0323 0.66108 0.72447 0.0
C1095 C 0.0602 0.65945 0.71667 0.0
H1096 H 0.32812 0.08376 0.78731 0.0
H1097 H 0.36243 0.06097 0.69159 0.0
H1098 H 0.32729 0.03498 0.80375 0.0
H1099 H 0.36131 0.01257 0.70753 0.0
H1100 H 0.32962 0.92658 0.73509 0.0
H1101 H 0.32762 0.97535 0.71921 0.0
H1102 H 0.36172 0.99798 0.81529 0.0
H1103 H 0.36436 0.94944 0.83055 0.0
C1104 C 0.33532 0.06826 0.76987 0.0
C1105 C 0.34453 0.07579 0.73793 0.0
C1106 C 0.33481 0.04044 0.77913 0.0
C1107 C 0.34373 0.01994 0.75662 0.0
C1108 C 0.35365 0.02778 0.72505 0.0
C1109 C 0.35432 0.05545 0.71598 0.0
C1110 C 0.33649 0.94211 0.7527 0.0
C1111 C 0.34624 0.93455 0.78436 0.0
C1112 C 0.33529 0.96995 0.74376 0.0
C1113 C 0.34394 0.99051 0.76633 0.0
C1114 C 0.35423 0.9827 0.79773 0.0
C1115 C 0.35572 0.95496 0.80644 0.0
H1116 H 0.08378 0.32861 0.72758 0.0
H1117 H 0.06096 0.363 0.82324 0.0
H1118 H 0.03499 0.32775 0.71115 0.0
H1119 H 0.01255 0.36184 0.80732 0.0
H1120 H 0.9266 0.32999 0.77985 0.0
H1121 H 0.97537 0.32808 0.79571 0.0
H1122 H 0.99794 0.36215 0.69958 0.0
H1123 H 0.94938 0.36472 0.68436 0.0
C1124 C 0.06827 0.33583 0.74501 0.0
C1125 C 0.0758 0.34507 0.77694 0.0
C1126 C 0.04045 0.3353 0.73575 0.0
C1127 C 0.01994 0.34422 0.75826 0.0
C1128 C 0.02778 0.35418 0.7898 0.0
C1129 C 0.05545 0.35487 0.79887 0.0
C1130 C 0.94212 0.33687 0.76223 0.0
C1131 C 0.93454 0.3466 0.73056 0.0
C1132 C 0.96996 0.33572 0.77116 0.0
C1133 C 0.99051 0.34438 0.74856 0.0
C1134 C 0.98267 0.35465 0.71716 0.0
C1135 C 0.95493 0.35609 0.70846 0.0
H1136 H 0.3219 0.08402 0.27993 0.0
H1137 H 0.40536 0.06917 0.31279 0.0
H1138 H 0.32026 0.03802 0.25526 0.0
H1139 H 0.40362 0.02307 0.2885 0.0
H1140 H 0.40347 0.95623 0.20833 0.0
H1141 H 0.40299 1.00233 0.23275 0.0
H1142 H 0.31995 0.98886 0.26804 0.0
H1143 H 0.32031 0.94289 0.24325 0.0
C1144 C 0.33974 0.07078 0.28242 0.0
C1145 C 0.36376 0.08035 0.29839 0.0
C1146 C 0.33881 0.04436 0.26823 0.0
C1147 C 0.36193 0.02688 0.26947 0.0
C1148 C 0.38561 0.03614 0.28645 0.0
C1149 C 0.3865 0.06249 0.30077 0.0
C1150 C 0.38495 0.96323 0.22085 0.0
C1151 C 0.36192 0.94581 0.22376 0.0
C1152 C 0.38479 0.98958 0.23523 0.0
C1153 C 0.36155 0.99927 0.25279 0.0
C1154 C 0.33816 0.98219 0.25461 0.0
C1155 C 0.33837 0.95579 0.24037 0.0
H1156 H 0.95694 0.40266 0.30692 0.0
H1157 H 0.94339 0.31969 0.27155 0.0
H1158 H 1.00302 0.4022 0.28243 0.0
H1159 H 0.98938 0.31934 0.24671 0.0
H1160 H 0.0847 0.32139 0.23489 0.0
H1161 H 0.03864 0.3196 0.25946 0.0
H1162 H 0.02364 0.40305 0.22663 0.0
H1163 H 0.06978 0.40494 0.20244 0.0
C1164 C 0.96389 0.38418 0.29427 0.0
C1165 C 0.94641 0.36121 0.29127 0.0
C1166 C 0.99023 0.38403 0.27986 0.0
C1167 C 0.99987 0.36086 0.26216 0.0
C1168 C 0.98275 0.3375 0.26024 0.0
C1169 C 0.95634 0.3377 0.27452 0.0
C1170 C 0.07144 0.33923 0.23247 0.0
C1171 C 0.081 0.36331 0.21666 0.0
C1172 C 0.04499 0.3382 0.2466 0.0
C1173 C 0.02747 0.3613 0.24545 0.0
C1174 C 0.03673 0.38505 0.22861 0.0
C1175 C 0.06311 0.38603 0.21435 0.0
H1176 H 0.70224 0.93935 0.27529 0.0
H1177 H 0.6191 0.95477 0.30895 0.0
H1178 H 0.70348 0.98472 0.24895 0.0
H1179 H 0.62046 1.00029 0.283 0.0
H1180 H 0.61966 0.06521 0.2005 0.0
H1181 H 0.62046 0.01974 0.22659 0.0
H1182 H 0.70388 0.03412 0.25994 0.0
H1183 H 0.7032 0.07946 0.23347 0.0
C1184 C 0.68438 0.95259 0.27758 0.0
C1185 C 0.66057 0.94336 0.29428 0.0
C1186 C 0.68509 0.97866 0.26244 0.0
C1187 C 0.66196 0.99612 0.26345 0.0
C1188 C 0.63847 0.98721 0.28112 0.0
C1189 C 0.6378 0.9612 0.29638 0.0
C1190 C 0.63833 0.05853 0.21296 0.0
C1191 C 0.66138 0.07603 0.21481 0.0
C1192 C 0.63867 0.03255 0.22829 0.0
C1193 C 0.66211 0.02332 0.2458 0.0
C1194 C 0.68552 0.04044 0.24659 0.0
C1195 C 0.68513 0.06648 0.23137 0.0
H1196 H 0.0659 0.61877 0.31332 0.0
H1197 H 0.07985 0.70247 0.2808 0.0
H1198 H 0.02036 0.61955 0.28731 0.0
H1199 H 0.03451 0.70314 0.25441 0.0
H1200 H 0.9399 0.7016 0.23901 0.0
H1201 H 0.98523 0.70267 0.26544 0.0
H1202 H 1.00074 0.61976 0.231 0.0
H1203 H 0.95524 0.61856 0.20496 0.0
C1204 C 0.05914 0.63746 0.30099 0.0
C1205 C 0.07656 0.66057 0.29923 0.0
C1206 C 0.03313 0.63781 0.2857 0.0
C1207 C 0.02381 0.6613 0.26835 0.0
C1208 C 0.04088 0.68474 0.26766 0.0
C1209 C 0.06693 0.68435 0.28282 0.0
C1210 C 0.95312 0.68372 0.23666 0.0
C1211 C 0.94388 0.66 0.21981 0.0
C1212 C 0.97916 0.68434 0.25185 0.0
C1213 C 0.9966 0.66119 0.25075 0.0
C1214 C 0.98767 0.63778 0.23295 0.0
C1215 C 0.96168 0.63721 0.21764 0.0
loop_
_geom_bond_atom_site_label_1
_geom_bond_atom_site_label_2
_geom_bond_distance
_geom_bond_site_symmetry_2
_ccdc_geom_bond_type
Mn0 O5 2.095 . S
Mn0 O15 2.162 . S
Mn0 O16 2.297 . S
Mn0 O24 2.385 . S
Mn0 O25 2.209 . S
Mn0 O26 2.094 . S
Mn1 O6 2.121 . S
Mn1 N8 2.257 . S
Mn1 N17 2.282 . S
Mn1 O25 2.215 . S
Mn1 O27 2.117 . S
C2 O24 1.234 . S
C2 O25 1.283 . S
C3 O15 1.281 . S
C3 O16 1.236 . S
C4 O26 1.240 . S
C4 O27 1.264 . S
O5 Mn0 2.095 . S
O5 C14 1.250 . S
O6 Mn1 2.121 . S
O6 C14 1.258 . S
C7 N8 1.326 . S
C7 C11 1.460 . S
C7 H13 0.929 . S
N8 Mn1 2.257 . S
N8 C7 1.326 . S
N8 C12 1.362 . S
C9 C10 1.258 . S
C9 C12 1.431 . S
C9 C29 1.449 . S
C10 C9 1.258 . S
C10 C11 1.477 . S
C10 H30 0.931 . S
C11 C7 1.460 . S
C11 C10 1.477 . S
C11 H31 0.930 . S
C12 N8 1.362 . S
C12 C9 1.431 . S
C12 C22 1.476 . S
H13 C7 0.929 . S
C14 O5 1.250 . S
C14 O6 1.258 . S
O15 Mn0 2.162 . S
O15 C3 1.281 . S
O16 Mn0 2.297 . S
O16 C3 1.236 . S
N17 Mn1 2.282 . S
N17 C18 1.328 . S
N17 C22 1.318 . S
C18 N17 1.328 . S
C18 C19 1.457 . S
C18 H23 0.929 . S
C19 C18 1.457 . S
C19 C20 1.291 . S
C19 H32 0.931 . S
C20 C19 1.291 . S
C20 C21 1.373 . S
C20 H33 0.929 . S
C21 C20 1.373 . S
C21 C22 1.396 . S
C21 C28 1.403 . S
C22 C12 1.476 . S
C22 N17 1.318 . S
C22 C21 1.396 . S
H23 C18 0.929 . S
O24 Mn0 2.385 . S
O24 C2 1.234 . S
O25 Mn0 2.209 . S
O25 Mn1 2.215 . S
O25 C2 1.283 . S
O26 Mn0 2.094 . S
O26 C4 1.240 . S
O27 Mn1 2.117 . S
O27 C4 1.264 . S
C28 C21 1.403 . S
C28 C29 1.399 . S
C28 H34 0.929 . S
C29 C9 1.449 . S
C29 C28 1.399 . S
C29 H35 0.930 . S
H30 C10 0.931 . S
H31 C11 0.930 . S
H32 C19 0.931 . S
H33 C20 0.929 . S
H34 C28 0.929 . S
H35 C29 0.930 . S
Mn36 O41 2.095 . S
Mn36 O51 2.162 . S
Mn36 O52 2.297 . S
Mn36 O60 2.385 . S
Mn36 O61 2.209 . S
Mn36 O62 2.094 . S
Mn37 O42 2.121 . S
Mn37 N44 2.257 . S
Mn37 N53 2.282 . S
Mn37 O61 2.215 . S
Mn37 O63 2.117 . S
C38 O60 1.234 . S
C38 O61 1.283 . S
C39 O51 1.281 . S
C39 O52 1.236 . S
C40 O62 1.240 . S
C40 O63 1.264 . S
O41 Mn36 2.095 . S
O41 C50 1.250 . S
O42 Mn37 2.121 . S
O42 C50 1.258 . S
C43 N44 1.326 . S
C43 C47 1.460 . S
C43 H49 0.929 . S
N44 Mn37 2.257 . S
N44 C43 1.326 . S
N44 C48 1.362 . S
C45 C46 1.258 . S
C45 C48 1.431 . S
C45 C65 1.449 . S
C46 C45 1.258 . S
C46 C47 1.477 . S
C46 H66 0.931 . S
C47 C43 1.460 . S
C47 C46 1.477 . S
C47 H67 0.930 . S
C48 N44 1.362 . S
C48 C45 1.431 . S
C48 C58 1.476 . S
H49 C43 0.929 . S
C50 O41 1.250 . S
C50 O42 1.258 . S
O51 Mn36 2.162 . S
O51 C39 1.281 . S
O52 Mn36 2.297 . S
O52 C39 1.236 . S
N53 Mn37 2.282 . S
N53 C54 1.328 . S
N53 C58 1.318 . S
C54 N53 1.328 . S
C54 C55 1.457 . S
C54 H59 0.929 . S
C55 C54 1.457 . S
C55 C56 1.291 . S
C55 H68 0.931 . S
C56 C55 1.291 . S
C56 C57 1.373 . S
C56 H69 0.929 . S
C57 C56 1.373 . S
C57 C58 1.396 . S
C57 C64 1.403 . S
C58 C48 1.476 . S
C58 N53 1.318 . S
C58 C57 1.396 . S
H59 C54 0.929 . S
O60 Mn36 2.385 . S
O60 C38 1.234 . S
O61 Mn36 2.209 . S
O61 Mn37 2.215 . S
O61 C38 1.283 . S
O62 Mn36 2.094 . S
O62 C40 1.240 . S
O63 Mn37 2.117 . S
O63 C40 1.264 . S
C64 C57 1.403 . S
C64 C65 1.399 . S
C64 H70 0.929 . S
C65 C45 1.449 . S
C65 C64 1.399 . S
C65 H71 0.930 . S
H66 C46 0.931 . S
H67 C47 0.930 . S
H68 C55 0.931 . S
H69 C56 0.929 . S
H70 C64 0.929 . S
H71 C65 0.930 . S
Mn72 O77 2.095 . S
Mn72 O87 2.162 . S
Mn72 O88 2.297 . S
Mn72 O96 2.385 . S
Mn72 O97 2.209 . S
Mn72 O98 2.094 . S
Mn73 O78 2.121 . S
Mn73 N80 2.257 . S
Mn73 N89 2.282 . S
Mn73 O97 2.215 . S
Mn73 O99 2.117 . S
C74 O96 1.234 . S
C74 O97 1.283 . S
C75 O87 1.281 . S
C75 O88 1.236 . S
C76 O98 1.240 . S
C76 O99 1.264 . S
O77 Mn72 2.095 . S
O77 C86 1.250 . S
O78 Mn73 2.121 . S
O78 C86 1.258 . S
C79 N80 1.326 . S
C79 C83 1.460 . S
C79 H85 0.929 . S
N80 Mn73 2.257 . S
N80 C79 1.326 . S
N80 C84 1.362 . S
C81 C82 1.258 . S
C81 C84 1.431 . S
C81 C101 1.449 . S
C82 C81 1.258 . S
C82 C83 1.477 . S
C82 H102 0.931 . S
C83 C79 1.460 . S
C83 C82 1.477 . S
C83 H103 0.930 . S
C84 N80 1.362 . S
C84 C81 1.431 . S
C84 C94 1.476 . S
H85 C79 0.929 . S
C86 O77 1.250 . S
C86 O78 1.258 . S
O87 Mn72 2.162 . S
O87 C75 1.281 . S
O88 Mn72 2.297 . S
O88 C75 1.236 . S
N89 Mn73 2.282 . S
N89 C90 1.328 . S
N89 C94 1.318 . S
C90 N89 1.328 . S
C90 C91 1.457 . S
C90 H95 0.929 . S
C91 C90 1.457 . S
C91 C92 1.291 . S
C91 H104 0.931 . S
C92 C91 1.291 . S
C92 C93 1.373 . S
C92 H105 0.929 . S
C93 C92 1.373 . S
C93 C94 1.396 . S
C93 C100 1.403 . S
C94 C84 1.476 . S
C94 N89 1.318 . S
C94 C93 1.396 . S
H95 C90 0.929 . S
O96 Mn72 2.385 . S
O96 C74 1.234 . S
O97 Mn72 2.209 . S
O97 Mn73 2.215 . S
O97 C74 1.283 . S
O98 Mn72 2.094 . S
O98 C76 1.240 . S
O99 Mn73 2.117 . S
O99 C76 1.264 . S
C100 C93 1.403 . S
C100 C101 1.399 . S
C100 H106 0.929 . S
C101 C81 1.449 . S
C101 C100 1.399 . S
C101 H107 0.930 . S
H102 C82 0.931 . S
H103 C83 0.930 . S
H104 C91 0.931 . S
H105 C92 0.929 . S
H106 C100 0.929 . S
H107 C101 0.930 . S
Mn108 O113 2.095 . S
Mn108 O123 2.162 . S
Mn108 O124 2.297 . S
Mn108 O132 2.385 . S
Mn108 O133 2.209 . S
Mn108 O134 2.094 . S
Mn109 O114 2.121 . S
Mn109 N116 2.257 . S
Mn109 N125 2.282 . S
Mn109 O133 2.215 . S
Mn109 O135 2.117 . S
C110 O132 1.234 . S
C110 O133 1.283 . S
C111 O123 1.281 . S
C111 O124 1.236 . S
C112 O134 1.240 . S
C112 O135 1.264 . S
O113 Mn108 2.095 . S
O113 C122 1.250 . S
O114 Mn109 2.121 . S
O114 C122 1.258 . S
C115 N116 1.326 . S
C115 C119 1.460 . S
C115 H121 0.929 . S
N116 Mn109 2.257 . S
N116 C115 1.326 . S
N116 C120 1.362 . S
C117 C118 1.258 . S
C117 C120 1.431 . S
C117 C137 1.449 . S
C118 C117 1.258 . S
C118 C119 1.477 . S
C118 H138 0.931 . S
C119 C115 1.460 . S
C119 C118 1.477 . S
C119 H139 0.930 . S
C120 N116 1.362 . S
C120 C117 1.431 . S
C120 C130 1.476 . S
H121 C115 0.929 . S
C122 O113 1.250 . S
C122 O114 1.258 . S
O123 Mn108 2.162 . S
O123 C111 1.281 . S
O124 Mn108 2.297 . S
O124 C111 1.236 . S
N125 Mn109 2.282 . S
N125 C126 1.328 . S
N125 C130 1.318 . S
C126 N125 1.328 . S
C126 C127 1.457 . S
C126 H131 0.929 . S
C127 C126 1.457 . S
C127 C128 1.291 . S
C127 H140 0.931 . S
C128 C127 1.291 . S
C128 C129 1.373 . S
C128 H141 0.929 . S
C129 C128 1.373 . S
C129 C130 1.396 . S
C129 C136 1.403 . S
C130 C120 1.476 . S
C130 N125 1.318 . S
C130 C129 1.396 . S
H131 C126 0.929 . S
O132 Mn108 2.385 . S
O132 C110 1.234 . S
O133 Mn108 2.209 . S
O133 Mn109 2.215 . S
O133 C110 1.283 . S
O134 Mn108 2.094 . S
O134 C112 1.240 . S
O135 Mn109 2.117 . S
O135 C112 1.264 . S
C136 C129 1.403 . S
C136 C137 1.399 . S
C136 H142 0.929 . S
C137 C117 1.449 . S
C137 C136 1.399 . S
C137 H143 0.930 . S
H138 C118 0.931 . S
H139 C119 0.930 . S
H140 C127 0.931 . S
H141 C128 0.929 . S
H142 C136 0.929 . S
H143 C137 0.930 . S
Mn144 O149 2.095 . S
Mn144 O159 2.162 . S
Mn144 O160 2.297 . S
Mn144 O168 2.385 . S
Mn144 O169 2.209 . S
Mn144 O170 2.094 . S
Mn145 O150 2.121 . S
Mn145 N152 2.257 . S
Mn145 N161 2.282 . S
Mn145 O169 2.215 . S
Mn145 O171 2.117 . S
C146 O168 1.234 . S
C146 O169 1.283 . S
C147 O159 1.281 . S
C147 O160 1.236 . S
C148 O170 1.240 . S
C148 O171 1.264 . S
O149 Mn144 2.095 . S
O149 C158 1.250 . S
O150 Mn145 2.121 . S
O150 C158 1.258 . S
C151 N152 1.326 . S
C151 C155 1.460 . S
C151 H157 0.929 . S
N152 Mn145 2.257 . S
N152 C151 1.326 . S
N152 C156 1.362 . S
C153 C154 1.258 . S
C153 C156 1.431 . S
C153 C173 1.449 . S
C154 C153 1.258 . S
C154 C155 1.477 . S
C154 H174 0.931 . S
C155 C151 1.460 . S
C155 C154 1.477 . S
C155 H175 0.930 . S
C156 N152 1.362 . S
C156 C153 1.431 . S
C156 C166 1.476 . S
H157 C151 0.929 . S
C158 O149 1.250 . S
C158 O150 1.258 . S
O159 Mn144 2.162 . S
O159 C147 1.281 . S
O160 Mn144 2.297 . S
O160 C147 1.236 . S
N161 Mn145 2.282 . S
N161 C162 1.328 . S
N161 C166 1.318 . S
C162 N161 1.328 . S
C162 C163 1.457 . S
C162 H167 0.929 . S
C163 C162 1.457 . S
C163 C164 1.291 . S
C163 H176 0.931 . S
C164 C163 1.291 . S
C164 C165 1.373 . S
C164 H177 0.929 . S
C165 C164 1.373 . S
C165 C166 1.396 . S
C165 C172 1.403 . S
C166 C156 1.476 . S
C166 N161 1.318 . S
C166 C165 1.396 . S
H167 C162 0.929 . S
O168 Mn144 2.385 . S
O168 C146 1.234 . S
O169 Mn144 2.209 . S
O169 Mn145 2.215 . S
O169 C146 1.283 . S
O170 Mn144 2.094 . S
O170 C148 1.240 . S
O171 Mn145 2.117 . S
O171 C148 1.264 . S
C172 C165 1.403 . S
C172 C173 1.399 . S
C172 H178 0.929 . S
C173 C153 1.449 . S
C173 C172 1.399 . S
C173 H179 0.930 . S
H174 C154 0.931 . S
H175 C155 0.930 . S
H176 C163 0.931 . S
H177 C164 0.929 . S
H178 C172 0.929 . S
H179 C173 0.930 . S
Mn180 O185 2.095 . S
Mn180 O195 2.162 . S
Mn180 O196 2.297 . S
Mn180 O204 2.385 . S
Mn180 O205 2.209 . S
Mn180 O206 2.094 . S
Mn181 O186 2.121 . S
Mn181 N188 2.257 . S
Mn181 N197 2.282 . S
Mn181 O205 2.215 . S
Mn181 O207 2.117 . S
C182 O204 1.234 . S
C182 O205 1.283 . S
C183 O195 1.281 . S
C183 O196 1.236 . S
C184 O206 1.240 . S
C184 O207 1.264 . S
O185 Mn180 2.095 . S
O185 C194 1.250 . S
O186 Mn181 2.121 . S
O186 C194 1.258 . S
C187 N188 1.326 . S
C187 C191 1.460 . S
C187 H193 0.929 . S
N188 Mn181 2.257 . S
N188 C187 1.326 . S
N188 C192 1.362 . S
C189 C190 1.258 . S
C189 C192 1.431 . S
C189 C209 1.449 . S
C190 C189 1.258 . S
C190 C191 1.477 . S
C190 H210 0.931 . S
C191 C187 1.460 . S
C191 C190 1.477 . S
C191 H211 0.930 . S
C192 N188 1.362 . S
C192 C189 1.431 . S
C192 C202 1.476 . S
H193 C187 0.929 . S
C194 O185 1.250 . S
C194 O186 1.258 . S
O195 Mn180 2.162 . S
O195 C183 1.281 . S
O196 Mn180 2.297 . S
O196 C183 1.236 . S
N197 Mn181 2.282 . S
N197 C198 1.328 . S
N197 C202 1.318 . S
C198 N197 1.328 . S
C198 C199 1.457 . S
C198 H203 0.929 . S
C199 C198 1.457 . S
C199 C200 1.291 . S
C199 H212 0.931 . S
C200 C199 1.291 . S
C200 C201 1.373 . S
C200 H213 0.929 . S
C201 C200 1.373 . S
C201 C202 1.396 . S
C201 C208 1.403 . S
C202 C192 1.476 . S
C202 N197 1.318 . S
C202 C201 1.396 . S
H203 C198 0.929 . S
O204 Mn180 2.385 . S
O204 C182 1.234 . S
O205 Mn180 2.209 . S
O205 Mn181 2.215 . S
O205 C182 1.283 . S
O206 Mn180 2.094 . S
O206 C184 1.240 . S
O207 Mn181 2.117 . S
O207 C184 1.264 . S
C208 C201 1.403 . S
C208 C209 1.399 . S
C208 H214 0.929 . S
C209 C189 1.449 . S
C209 C208 1.399 . S
C209 H215 0.930 . S
H210 C190 0.931 . S
H211 C191 0.930 . S
H212 C199 0.931 . S
H213 C200 0.929 . S
H214 C208 0.929 . S
H215 C209 0.930 . S
Mn216 O221 2.095 . S
Mn216 O231 2.162 . S
Mn216 O232 2.297 . S
Mn216 O240 2.385 . S
Mn216 O241 2.209 . S
Mn216 O242 2.094 . S
Mn217 O222 2.121 . S
Mn217 N224 2.257 . S
Mn217 N233 2.282 . S
Mn217 O241 2.215 . S
Mn217 O243 2.117 . S
C218 O240 1.234 . S
C218 O241 1.283 . S
C219 O231 1.281 . S
C219 O232 1.236 . S
C220 O242 1.240 . S
C220 O243 1.264 . S
O221 Mn216 2.095 . S
O221 C230 1.250 . S
O222 Mn217 2.121 . S
O222 C230 1.258 . S
C223 N224 1.326 . S
C223 C227 1.460 . S
C223 H229 0.929 . S
N224 Mn217 2.257 . S
N224 C223 1.326 . S
N224 C228 1.362 . S
C225 C226 1.258 . S
C225 C228 1.431 . S
C225 C245 1.449 . S
C226 C225 1.258 . S
C226 C227 1.477 . S
C226 H246 0.931 . S
C227 C223 1.460 . S
C227 C226 1.477 . S
C227 H247 0.930 . S
C228 N224 1.362 . S
C228 C225 1.431 . S
C228 C238 1.476 . S
H229 C223 0.929 . S
C230 O221 1.250 . S
C230 O222 1.258 . S
O231 Mn216 2.162 . S
O231 C219 1.281 . S
O232 Mn216 2.297 . S
O232 C219 1.236 . S
N233 Mn217 2.282 . S
N233 C234 1.328 . S
N233 C238 1.318 . S
C234 N233 1.328 . S
C234 C235 1.457 . S
C234 H239 0.929 . S
C235 C234 1.457 . S
C235 C236 1.291 . S
C235 H248 0.931 . S
C236 C235 1.291 . S
C236 C237 1.373 . S
C236 H249 0.929 . S
C237 C236 1.373 . S
C237 C238 1.396 . S
C237 C244 1.403 . S
C238 C228 1.476 . S
C238 N233 1.318 . S
C238 C237 1.396 . S
H239 C234 0.929 . S
O240 Mn216 2.385 . S
O240 C218 1.234 . S
O241 Mn216 2.209 . S
O241 Mn217 2.215 . S
O241 C218 1.283 . S
O242 Mn216 2.094 . S
O242 C220 1.240 . S
O243 Mn217 2.117 . S
O243 C220 1.264 . S
C244 C237 1.403 . S
C244 C245 1.399 . S
C244 H250 0.929 . S
C245 C225 1.449 . S
C245 C244 1.399 . S
C245 H251 0.930 . S
H246 C226 0.931 . S
H247 C227 0.930 . S
H248 C235 0.931 . S
H249 C236 0.929 . S
H250 C244 0.929 . S
H251 C245 0.930 . S
Mn252 O257 2.095 . S
Mn252 O267 2.162 . S
Mn252 O268 2.297 . S
Mn252 O276 2.385 . S
Mn252 O277 2.209 . S
Mn252 O278 2.094 . S
Mn253 O258 2.121 . S
Mn253 N260 2.257 . S
Mn253 N269 2.282 . S
Mn253 O277 2.215 . S
Mn253 O279 2.117 . S
C254 O276 1.234 . S
C254 O277 1.283 . S
C255 O267 1.281 . S
C255 O268 1.236 . S
C256 O278 1.240 . S
C256 O279 1.264 . S
O257 Mn252 2.095 . S
O257 C266 1.250 . S
O258 Mn253 2.121 . S
O258 C266 1.258 . S
C259 N260 1.326 . S
C259 C263 1.460 . S
C259 H265 0.929 . S
N260 Mn253 2.257 . S
N260 C259 1.326 . S
N260 C264 1.362 . S
C261 C262 1.258 . S
C261 C264 1.431 . S
C261 C281 1.449 . S
C262 C261 1.258 . S
C262 C263 1.477 . S
C262 H282 0.931 . S
C263 C259 1.460 . S
C263 C262 1.477 . S
C263 H283 0.930 . S
C264 N260 1.362 . S
C264 C261 1.431 . S
C264 C274 1.476 . S
H265 C259 0.929 . S
C266 O257 1.250 . S
C266 O258 1.258 . S
O267 Mn252 2.162 . S
O267 C255 1.281 . S
O268 Mn252 2.297 . S
O268 C255 1.236 . S
N269 Mn253 2.282 . S
N269 C270 1.328 . S
N269 C274 1.318 . S
C270 N269 1.328 . S
C270 C271 1.457 . S
C270 H275 0.929 . S
C271 C270 1.457 . S
C271 C272 1.291 . S
C271 H284 0.931 . S
C272 C271 1.291 . S
C272 C273 1.373 . S
C272 H285 0.929 . S
C273 C272 1.373 . S
C273 C274 1.396 . S
C273 C280 1.403 . S
C274 C264 1.476 . S
C274 N269 1.318 . S
C274 C273 1.396 . S
H275 C270 0.929 . S
O276 Mn252 2.385 . S
O276 C254 1.234 . S
O277 Mn252 2.209 . S
O277 Mn253 2.215 . S
O277 C254 1.283 . S
O278 Mn252 2.094 . S
O278 C256 1.240 . S
O279 Mn253 2.117 . S
O279 C256 1.264 . S
C280 C273 1.403 . S
C280 C281 1.399 . S
C280 H286 0.929 . S
C281 C261 1.449 . S
C281 C280 1.399 . S
C281 H287 0.930 . S
H282 C262 0.931 . S
H283 C263 0.930 . S
H284 C271 0.931 . S
H285 C272 0.929 . S
H286 C280 0.929 . S
H287 C281 0.930 . S
Mn288 O293 2.095 . S
Mn288 O303 2.162 . S
Mn288 O304 2.297 . S
Mn288 O312 2.385 . S
Mn288 O313 2.209 . S
Mn288 O314 2.094 . S
Mn289 O294 2.121 . S
Mn289 N296 2.257 . S
Mn289 N305 2.282 . S
Mn289 O313 2.215 . S
Mn289 O315 2.117 . S
C290 O312 1.234 . S
C290 O313 1.283 . S
C291 O303 1.281 . S
C291 O304 1.236 . S
C292 O314 1.240 . S
C292 O315 1.264 . S
O293 Mn288 2.095 . S
O293 C302 1.250 . S
O294 Mn289 2.121 . S
O294 C302 1.258 . S
C295 N296 1.326 . S
C295 C299 1.460 . S
C295 H301 0.929 . S
N296 Mn289 2.257 . S
N296 C295 1.326 . S
N296 C300 1.362 . S
C297 C298 1.258 . S
C297 C300 1.431 . S
C297 C317 1.449 . S
C298 C297 1.258 . S
C298 C299 1.477 . S
C298 H318 0.911 1_655 S
C299 C295 1.460 . S
C299 C298 1.477 . S
C299 H319 0.930 . S
C300 N296 1.362 . S
C300 C297 1.431 . S
C300 C310 1.476 . S
H301 C295 0.929 . S
C302 O293 1.250 . S
C302 O294 1.258 . S
O303 Mn288 2.162 . S
O303 C291 1.281 . S
O304 Mn288 2.297 . S
O304 C291 1.236 . S
N305 Mn289 2.282 . S
N305 C306 1.328 . S
N305 C310 1.318 . S
C306 N305 1.328 . S
C306 C307 1.457 . S
C306 H311 0.929 . S
C307 C306 1.457 . S
C307 C308 1.291 . S
C307 H320 0.931 . S
C308 C307 1.291 . S
C308 C309 1.373 . S
C308 H321 0.929 . S
C309 C308 1.373 . S
C309 C310 1.396 . S
C309 C316 1.403 . S
C310 C300 1.476 . S
C310 N305 1.318 . S
C310 C309 1.396 . S
H311 C306 0.929 . S
O312 Mn288 2.385 . S
O312 C290 1.234 . S
O313 Mn288 2.209 . S
O313 Mn289 2.215 . S
O313 C290 1.283 . S
O314 Mn288 2.094 . S
O314 C292 1.240 . S
O315 Mn289 2.117 . S
O315 C292 1.264 . S
C316 C309 1.403 . S
C316 C317 1.399 . S
C316 H322 0.929 . S
C317 C297 1.449 . S
C317 C316 1.399 . S
C317 H323 0.930 1_655 S
H318 C298 0.911 1_455 S
H319 C299 0.930 . S
H320 C307 0.931 . S
H321 C308 0.929 . S
H322 C316 0.929 . S
H323 C317 0.930 1_455 S
Mn324 O329 2.095 . S
Mn324 O339 2.162 . S
Mn324 O340 2.297 . S
Mn324 O348 2.385 . S
Mn324 O349 2.209 . S
Mn324 O350 2.094 . S
Mn325 O330 2.121 . S
Mn325 N332 2.257 . S
Mn325 N341 2.282 . S
Mn325 O349 2.215 . S
Mn325 O351 2.117 . S
C326 O348 1.234 . S
C326 O349 1.283 . S
C327 O339 1.281 . S
C327 O340 1.236 . S
C328 O350 1.240 . S
C328 O351 1.264 . S
O329 Mn324 2.095 . S
O329 C338 1.250 . S
O330 Mn325 2.121 . S
O330 C338 1.258 . S
C331 N332 1.326 . S
C331 C335 1.460 . S
C331 H337 0.929 . S
N332 Mn325 2.257 . S
N332 C331 1.326 . S
N332 C336 1.362 . S
C333 C334 1.258 . S
C333 C336 1.431 . S
C333 C353 1.449 . S
C334 C333 1.258 . S
C334 C335 1.477 . S
C334 H354 0.911 1_565 S
C335 C331 1.460 . S
C335 C334 1.477 . S
C335 H355 0.930 . S
C336 N332 1.362 . S
C336 C333 1.431 . S
C336 C346 1.476 . S
H337 C331 0.929 . S
C338 O329 1.250 . S
C338 O330 1.258 . S
O339 Mn324 2.162 . S
O339 C327 1.281 . S
O340 Mn324 2.297 . S
O340 C327 1.236 . S
N341 Mn325 2.282 . S
N341 C342 1.328 . S
N341 C346 1.318 . S
C342 N341 1.328 . S
C342 C343 1.457 . S
C342 H347 0.929 . S
C343 C342 1.457 . S
C343 C344 1.291 . S
C343 H356 0.931 . S
C344 C343 1.291 . S
C344 C345 1.373 . S
C344 H357 0.929 . S
C345 C344 1.373 . S
C345 C346 1.396 . S
C345 C352 1.403 . S
C346 C336 1.476 . S
C346 N341 1.318 . S
C346 C345 1.396 . S
H347 C342 0.929 . S
O348 Mn324 2.385 . S
O348 C326 1.234 . S
O349 Mn324 2.209 . S
O349 Mn325 2.215 . S
O349 C326 1.283 . S
O350 Mn324 2.094 . S
O350 C328 1.240 . S
O351 Mn325 2.117 . S
O351 C328 1.264 . S
C352 C345 1.403 . S
C352 C353 1.399 . S
C352 H358 0.929 . S
C353 C333 1.449 . S
C353 C352 1.399 . S
C353 H359 0.930 1_565 S
H354 C334 0.911 1_545 S
H355 C335 0.930 . S
H356 C343 0.931 . S
H357 C344 0.929 . S
H358 C352 0.929 . S
H359 C353 0.930 1_545 S
Mn360 O365 2.095 . S
Mn360 O375 2.162 . S
Mn360 O376 2.297 . S
Mn360 O384 2.385 . S
Mn360 O385 2.209 . S
Mn360 O386 2.094 . S
Mn361 O366 2.121 . S
Mn361 N368 2.257 . S
Mn361 N377 2.282 . S
Mn361 O385 2.215 . S
Mn361 O387 2.117 . S
C362 O384 1.234 . S
C362 O385 1.283 . S
C363 O375 1.281 . S
C363 O376 1.236 . S
C364 O386 1.240 . S
C364 O387 1.264 . S
O365 Mn360 2.095 . S
O365 C374 1.250 . S
O366 Mn361 2.121 . S
O366 C374 1.258 . S
C367 N368 1.326 . S
C367 C371 1.460 . S
C367 H373 0.929 . S
N368 Mn361 2.257 . S
N368 C367 1.326 . S
N368 C372 1.362 . S
C369 C370 1.258 . S
C369 C372 1.431 . S
C369 C389 1.449 . S
C370 C369 1.258 . S
C370 C371 1.477 . S
C370 H390 0.911 1_455 S
C371 C367 1.460 . S
C371 C370 1.477 . S
C371 H391 0.930 . S
C372 N368 1.362 . S
C372 C369 1.431 . S
C372 C382 1.476 . S
H373 C367 0.929 . S
C374 O365 1.250 . S
C374 O366 1.258 . S
O375 Mn360 2.162 . S
O375 C363 1.281 . S
O376 Mn360 2.297 . S
O376 C363 1.236 . S
N377 Mn361 2.282 . S
N377 C378 1.328 . S
N377 C382 1.318 . S
C378 N377 1.328 . S
C378 C379 1.457 . S
C378 H383 0.929 . S
C379 C378 1.457 . S
C379 C380 1.291 . S
C379 H392 0.931 . S
C380 C379 1.291 . S
C380 C381 1.373 . S
C380 H393 0.929 . S
C381 C380 1.373 . S
C381 C382 1.396 . S
C381 C388 1.403 . S
C382 C372 1.476 . S
C382 N377 1.318 . S
C382 C381 1.396 . S
H383 C378 0.929 . S
O384 Mn360 2.385 . S
O384 C362 1.234 . S
O385 Mn360 2.209 . S
O385 Mn361 2.215 . S
O385 C362 1.283 . S
O386 Mn360 2.094 . S
O386 C364 1.240 . S
O387 Mn361 2.117 . S
O387 C364 1.264 . S
C388 C381 1.403 . S
C388 C389 1.399 . S
C388 H394 0.929 . S
C389 C369 1.449 . S
C389 C388 1.399 . S
C389 H395 0.930 1_455 S
H390 C370 0.911 1_655 S
H391 C371 0.930 . S
H392 C379 0.931 . S
H393 C380 0.929 . S
H394 C388 0.929 . S
H395 C389 0.930 1_655 S
Mn396 O401 2.095 . S
Mn396 O411 2.162 . S
Mn396 O412 2.297 . S
Mn396 O420 2.385 . S
Mn396 O421 2.209 . S
Mn396 O422 2.094 . S
Mn397 O402 2.121 . S
Mn397 N404 2.257 . S
Mn397 N413 2.282 . S
Mn397 O421 2.215 . S
Mn397 O423 2.117 . S
C398 O420 1.234 . S
C398 O421 1.283 . S
C399 O411 1.281 . S
C399 O412 1.236 . S
C400 O422 1.240 . S
C400 O423 1.264 . S
O401 Mn396 2.095 . S
O401 C410 1.250 . S
O402 Mn397 2.121 . S
O402 C410 1.258 . S
C403 N404 1.326 . S
C403 C407 1.460 . S
C403 H409 0.929 . S
N404 Mn397 2.257 . S
N404 C403 1.326 . S
N404 C408 1.362 . S
C405 C406 1.258 . S
C405 C408 1.431 . S
C405 C425 1.449 . S
C406 C405 1.258 . S
C406 C407 1.477 . S
C406 H426 0.911 1_545 S
C407 C403 1.460 . S
C407 C406 1.477 . S
C407 H427 0.930 . S
C408 N404 1.362 . S
C408 C405 1.431 . S
C408 C418 1.476 . S
H409 C403 0.929 . S
C410 O401 1.250 . S
C410 O402 1.258 . S
O411 Mn396 2.162 . S
O411 C399 1.281 . S
O412 Mn396 2.297 . S
O412 C399 1.236 . S
N413 Mn397 2.282 . S
N413 C414 1.328 . S
N413 C418 1.318 . S
C414 N413 1.328 . S
C414 C415 1.457 . S
C414 H419 0.929 . S
C415 C414 1.457 . S
C415 C416 1.291 . S
C415 H428 0.931 . S
C416 C415 1.291 . S
C416 C417 1.373 . S
C416 H429 0.929 . S
C417 C416 1.373 . S
C417 C418 1.396 . S
C417 C424 1.403 . S
C418 C408 1.476 . S
C418 N413 1.318 . S
C418 C417 1.396 . S
H419 C414 0.929 . S
O420 Mn396 2.385 . S
O420 C398 1.234 . S
O421 Mn396 2.209 . S
O421 Mn397 2.215 . S
O421 C398 1.283 . S
O422 Mn396 2.094 . S
O422 C400 1.240 . S
O423 Mn397 2.117 . S
O423 C400 1.264 . S
C424 C417 1.403 . S
C424 C425 1.399 . S
C424 H430 0.929 . S
C425 C405 1.449 . S
C425 C424 1.399 . S
C425 H431 0.930 1_545 S
H426 C406 0.911 1_565 S
H427 C407 0.930 . S
H428 C415 0.931 . S
H429 C416 0.929 . S
H430 C424 0.929 . S
H431 C425 0.930 1_565 S
Mn432 O437 2.095 . S
Mn432 O447 2.162 . S
Mn432 O448 2.297 . S
Mn432 O456 2.385 . S
Mn432 O457 2.209 . S
Mn432 O458 2.094 . S
Mn433 O438 2.121 . S
Mn433 N440 2.257 . S
Mn433 N449 2.282 . S
Mn433 O457 2.215 . S
Mn433 O459 2.117 . S
C434 O456 1.234 . S
C434 O457 1.283 . S
C435 O447 1.281 . S
C435 O448 1.236 . S
C436 O458 1.240 . S
C436 O459 1.264 . S
O437 Mn432 2.095 . S
O437 C446 1.250 . S
O438 Mn433 2.121 . S
O438 C446 1.258 . S
C439 N440 1.326 . S
C439 C443 1.460 . S
C439 H445 0.929 . S
N440 Mn433 2.257 . S
N440 C439 1.326 . S
N440 C444 1.362 . S
C441 C442 1.258 . S
C441 C444 1.431 . S
C441 C461 1.449 . S
C442 C441 1.258 . S
C442 C443 1.477 . S
C442 H462 0.911 1_655 S
C443 C439 1.460 . S
C443 C442 1.477 . S
C443 H463 0.930 . S
C444 N440 1.362 . S
C444 C441 1.431 . S
C444 C454 1.476 . S
H445 C439 0.929 . S
C446 O437 1.250 . S
C446 O438 1.258 . S
O447 Mn432 2.162 . S
O447 C435 1.281 . S
O448 Mn432 2.297 . S
O448 C435 1.236 . S
N449 Mn433 2.282 . S
N449 C450 1.328 . S
N449 C454 1.318 . S
C450 N449 1.328 . S
C450 C451 1.457 . S
C450 H455 0.929 . S
C451 C450 1.457 . S
C451 C452 1.291 . S
C451 H464 0.931 . S
C452 C451 1.291 . S
C452 C453 1.373 . S
C452 H465 0.929 . S
C453 C452 1.373 . S
C453 C454 1.396 . S
C453 C460 1.403 . S
C454 C444 1.476 . S
C454 N449 1.318 . S
C454 C453 1.396 . S
H455 C450 0.929 . S
O456 Mn432 2.385 . S
O456 C434 1.234 . S
O457 Mn432 2.209 . S
O457 Mn433 2.215 . S
O457 C434 1.283 . S
O458 Mn432 2.094 . S
O458 C436 1.240 . S
O459 Mn433 2.117 . S
O459 C436 1.264 . S
C460 C453 1.403 . S
C460 C461 1.399 . S
C460 H466 0.929 . S
C461 C441 1.449 . S
C461 C460 1.399 . S
C461 H467 0.930 1_655 S
H462 C442 0.911 1_455 S
H463 C443 0.930 . S
H464 C451 0.931 . S
H465 C452 0.929 . S
H466 C460 0.929 . S
H467 C461 0.930 1_455 S
Mn468 O473 2.095 . S
Mn468 O483 2.162 . S
Mn468 O484 2.297 . S
Mn468 O492 2.385 . S
Mn468 O493 2.209 . S
Mn468 O494 2.094 . S
Mn469 O474 2.121 . S
Mn469 N476 2.257 . S
Mn469 N485 2.282 . S
Mn469 O493 2.215 . S
Mn469 O495 2.117 . S
C470 O492 1.234 . S
C470 O493 1.283 . S
C471 O483 1.281 . S
C471 O484 1.236 . S
C472 O494 1.240 . S
C472 O495 1.264 . S
O473 Mn468 2.095 . S
O473 C482 1.250 . S
O474 Mn469 2.121 . S
O474 C482 1.258 . S
C475 N476 1.326 . S
C475 C479 1.460 . S
C475 H481 0.929 . S
N476 Mn469 2.257 . S
N476 C475 1.326 . S
N476 C480 1.362 . S
C477 C478 1.258 . S
C477 C480 1.431 . S
C477 C497 1.449 . S
C478 C477 1.258 . S
C478 C479 1.477 . S
C478 H498 0.911 1_565 S
C479 C475 1.460 . S
C479 C478 1.477 . S
C479 H499 0.930 . S
C480 N476 1.362 . S
C480 C477 1.431 . S
C480 C490 1.476 . S
H481 C475 0.929 . S
C482 O473 1.250 . S
C482 O474 1.258 . S
O483 Mn468 2.162 . S
O483 C471 1.281 . S
O484 Mn468 2.297 . S
O484 C471 1.236 . S
N485 Mn469 2.282 . S
N485 C486 1.328 . S
N485 C490 1.318 . S
C486 N485 1.328 . S
C486 C487 1.457 . S
C486 H491 0.929 . S
C487 C486 1.457 . S
C487 C488 1.291 . S
C487 H500 0.931 . S
C488 C487 1.291 . S
C488 C489 1.373 . S
C488 H501 0.929 . S
C489 C488 1.373 . S
C489 C490 1.396 . S
C489 C496 1.403 . S
C490 C480 1.476 . S
C490 N485 1.318 . S
C490 C489 1.396 . S
H491 C486 0.929 . S
O492 Mn468 2.385 . S
O492 C470 1.234 . S
O493 Mn468 2.209 . S
O493 Mn469 2.215 . S
O493 C470 1.283 . S
O494 Mn468 2.094 . S
O494 C472 1.240 . S
O495 Mn469 2.117 . S
O495 C472 1.264 . S
C496 C489 1.403 . S
C496 C497 1.399 . S
C496 H502 0.929 . S
C497 C477 1.449 . S
C497 C496 1.399 . S
C497 H503 0.930 1_565 S
H498 C478 0.911 1_545 S
H499 C479 0.930 . S
H500 C487 0.931 . S
H501 C488 0.929 . S
H502 C496 0.929 . S
H503 C497 0.930 1_545 S
Mn504 O509 2.095 . S
Mn504 O519 2.162 . S
Mn504 O520 2.297 . S
Mn504 O528 2.385 . S
Mn504 O529 2.209 . S
Mn504 O530 2.094 . S
Mn505 O510 2.121 . S
Mn505 N512 2.257 . S
Mn505 N521 2.282 . S
Mn505 O529 2.215 . S
Mn505 O531 2.117 . S
C506 O528 1.234 . S
C506 O529 1.283 . S
C507 O519 1.281 . S
C507 O520 1.236 . S
C508 O530 1.240 . S
C508 O531 1.264 . S
O509 Mn504 2.095 . S
O509 C518 1.250 . S
O510 Mn505 2.121 . S
O510 C518 1.258 . S
C511 N512 1.326 . S
C511 C515 1.460 . S
C511 H517 0.929 . S
N512 Mn505 2.257 . S
N512 C511 1.326 . S
N512 C516 1.362 . S
C513 C514 1.258 . S
C513 C516 1.431 . S
C513 C533 1.449 . S
C514 C513 1.258 . S
C514 C515 1.477 . S
C514 H534 0.911 1_455 S
C515 C511 1.460 . S
C515 C514 1.477 . S
C515 H535 0.930 . S
C516 N512 1.362 . S
C516 C513 1.431 . S
C516 C526 1.476 . S
H517 C511 0.929 . S
C518 O509 1.250 . S
C518 O510 1.258 . S
O519 Mn504 2.162 . S
O519 C507 1.281 . S
O520 Mn504 2.297 . S
O520 C507 1.236 . S
N521 Mn505 2.282 . S
N521 C522 1.328 . S
N521 C526 1.318 . S
C522 N521 1.328 . S
C522 C523 1.457 . S
C522 H527 0.929 . S
C523 C522 1.457 . S
C523 C524 1.291 . S
C523 H536 0.931 . S
C524 C523 1.291 . S
C524 C525 1.373 . S
C524 H537 0.929 . S
C525 C524 1.373 . S
C525 C526 1.396 . S
C525 C532 1.403 . S
C526 C516 1.476 . S
C526 N521 1.318 . S
C526 C525 1.396 . S
H527 C522 0.929 . S
O528 Mn504 2.385 . S
O528 C506 1.234 . S
O529 Mn504 2.209 . S
O529 Mn505 2.215 . S
O529 C506 1.283 . S
O530 Mn504 2.094 . S
O530 C508 1.240 . S
O531 Mn505 2.117 . S
O531 C508 1.264 . S
C532 C525 1.403 . S
C532 C533 1.399 . S
C532 H538 0.929 . S
C533 C513 1.449 . S
C533 C532 1.399 . S
C533 H539 0.930 1_455 S
H534 C514 0.911 1_655 S
H535 C515 0.930 . S
H536 C523 0.931 . S
H537 C524 0.929 . S
H538 C532 0.929 . S
H539 C533 0.930 1_655 S
Mn540 O545 2.095 . S
Mn540 O555 2.162 . S
Mn540 O556 2.297 . S
Mn540 O564 2.385 . S
Mn540 O565 2.209 . S
Mn540 O566 2.094 . S
Mn541 O546 2.121 . S
Mn541 N548 2.257 . S
Mn541 N557 2.282 . S
Mn541 O565 2.215 . S
Mn541 O567 2.117 . S
C542 O564 1.234 . S
C542 O565 1.283 . S
C543 O555 1.281 . S
C543 O556 1.236 . S
C544 O566 1.240 . S
C544 O567 1.264 . S
O545 Mn540 2.095 . S
O545 C554 1.250 . S
O546 Mn541 2.121 . S
O546 C554 1.258 . S
C547 N548 1.326 . S
C547 C551 1.460 . S
C547 H553 0.929 . S
N548 Mn541 2.257 . S
N548 C547 1.326 . S
N548 C552 1.362 . S
C549 C550 1.258 . S
C549 C552 1.431 . S
C549 C569 1.449 . S
C550 C549 1.258 . S
C550 C551 1.477 . S
C550 H570 0.911 1_545 S
C551 C547 1.460 . S
C551 C550 1.477 . S
C551 H571 0.930 . S
C552 N548 1.362 . S
C552 C549 1.431 . S
C552 C562 1.476 . S
H553 C547 0.929 . S
C554 O545 1.250 . S
C554 O546 1.258 . S
O555 Mn540 2.162 . S
O555 C543 1.281 . S
O556 Mn540 2.297 . S
O556 C543 1.236 . S
N557 Mn541 2.282 . S
N557 C558 1.328 . S
N557 C562 1.318 . S
C558 N557 1.328 . S
C558 C559 1.457 . S
C558 H563 0.929 . S
C559 C558 1.457 . S
C559 C560 1.291 . S
C559 H572 0.931 . S
C560 C559 1.291 . S
C560 C561 1.373 . S
C560 H573 0.929 . S
C561 C560 1.373 . S
C561 C562 1.396 . S
C561 C568 1.403 . S
C562 C552 1.476 . S
C562 N557 1.318 . S
C562 C561 1.396 . S
H563 C558 0.929 . S
O564 Mn540 2.385 . S
O564 C542 1.234 . S
O565 Mn540 2.209 . S
O565 Mn541 2.215 . S
O565 C542 1.283 . S
O566 Mn540 2.094 . S
O566 C544 1.240 . S
O567 Mn541 2.117 . S
O567 C544 1.264 . S
C568 C561 1.403 . S
C568 C569 1.399 . S
C568 H574 0.929 . S
C569 C549 1.449 . S
C569 C568 1.399 . S
C569 H575 0.930 1_545 S
H570 C550 0.911 1_565 S
H571 C551 0.930 . S
H572 C559 0.931 . S
H573 C560 0.929 . S
H574 C568 0.929 . S
H575 C569 0.930 1_565 S
H576 C584 0.950 . S
H577 C589 0.950 . S
H578 C586 0.950 . S
H579 C588 0.950 . S
H580 C590 0.950 . S
H581 C592 0.950 . S
H582 C594 0.950 . S
H583 C595 0.950 . S
C584 H576 0.950 . S
C584 C585 1.386 . S
C584 C586 1.391 . S
C585 C584 1.386 . S
C585 C589 1.393 . S
C586 H578 0.950 . S
C586 C584 1.391 . S
C586 C587 1.400 . S
C587 C586 1.400 . S
C587 C588 1.398 . S
C587 C593 1.491 . S
C588 H579 0.950 . S
C588 C587 1.398 . S
C588 C589 1.391 . S
C589 H577 0.950 . S
C589 C585 1.393 . S
C589 C588 1.391 . S
C590 H580 0.950 . S
C590 C591 1.386 . S
C590 C592 1.391 . S
C591 C590 1.386 . S
C591 C595 1.393 . S
C592 H581 0.950 . S
C592 C590 1.391 . S
C592 C593 1.400 . S
C593 C587 1.491 . S
C593 C592 1.400 . S
C593 C594 1.398 . S
C594 H582 0.950 . S
C594 C593 1.398 . S
C594 C595 1.391 . S
C595 H583 0.950 . S
C595 C591 1.393 . S
C595 C594 1.391 . S
H596 C604 0.950 . S
H597 C609 0.950 . S
H598 C606 0.950 . S
H599 C608 0.950 . S
H600 C610 0.950 . S
H601 C612 0.950 . S
H602 C614 0.950 . S
H603 C615 0.950 . S
C604 H596 0.950 . S
C604 C605 1.386 . S
C604 C606 1.391 . S
C605 C604 1.386 . S
C605 C609 1.393 . S
C606 H598 0.950 . S
C606 C604 1.391 . S
C606 C607 1.400 . S
C607 C606 1.400 . S
C607 C608 1.398 . S
C607 C613 1.491 . S
C608 H599 0.950 . S
C608 C607 1.398 . S
C608 C609 1.391 . S
C609 H597 0.950 . S
C609 C605 1.393 . S
C609 C608 1.391 . S
C610 H600 0.950 . S
C610 C611 1.386 . S
C610 C612 1.391 . S
C611 C610 1.386 . S
C611 C615 1.393 . S
C612 H601 0.950 . S
C612 C610 1.391 . S
C612 C613 1.400 . S
C613 C607 1.491 . S
C613 C612 1.400 . S
C613 C614 1.398 . S
C614 H602 0.950 . S
C614 C613 1.398 . S
C614 C615 1.391 . S
C615 H603 0.950 . S
C615 C611 1.393 . S
C615 C614 1.391 . S
H616 C624 0.950 . S
H617 C629 0.950 . S
H618 C626 0.950 . S
H619 C628 0.950 . S
H620 C630 0.950 . S
H621 C632 0.950 . S
H622 C634 0.950 . S
H623 C635 0.950 . S
C624 H616 0.950 . S
C624 C625 1.386 . S
C624 C626 1.391 . S
C625 C624 1.386 . S
C625 C629 1.393 . S
C626 H618 0.950 . S
C626 C624 1.391 . S
C626 C627 1.400 . S
C627 C626 1.400 . S
C627 C628 1.398 . S
C627 C633 1.491 . S
C628 H619 0.950 . S
C628 C627 1.398 . S
C628 C629 1.391 . S
C629 H617 0.950 . S
C629 C625 1.393 . S
C629 C628 1.391 . S
C630 H620 0.950 . S
C630 C631 1.386 . S
C630 C632 1.391 . S
C631 C630 1.386 . S
C631 C635 1.393 . S
C632 H621 0.950 . S
C632 C630 1.391 . S
C632 C633 1.400 . S
C633 C627 1.491 . S
C633 C632 1.400 . S
C633 C634 1.398 . S
C634 H622 0.950 . S
C634 C633 1.398 . S
C634 C635 1.391 . S
C635 H623 0.950 . S
C635 C631 1.393 . S
C635 C634 1.391 . S
H636 C644 0.950 . S
H637 C649 0.950 . S
H638 C646 0.950 . S
H639 C648 0.950 . S
H640 C650 0.950 . S
H641 C652 0.950 . S
H642 C654 0.950 . S
H643 C655 0.950 . S
C644 H636 0.950 . S
C644 C645 1.386 . S
C644 C646 1.391 . S
C645 C644 1.386 . S
C645 C649 1.393 . S
C646 H638 0.950 . S
C646 C644 1.391 . S
C646 C647 1.400 . S
C647 C646 1.400 . S
C647 C648 1.398 . S
C647 C653 1.491 . S
C648 H639 0.950 . S
C648 C647 1.398 . S
C648 C649 1.391 . S
C649 H637 0.950 . S
C649 C645 1.393 . S
C649 C648 1.391 . S
C650 H640 0.950 . S
C650 C651 1.386 . S
C650 C652 1.391 . S
C651 C650 1.386 . S
C651 C655 1.393 . S
C652 H641 0.950 . S
C652 C650 1.391 . S
C652 C653 1.400 . S
C653 C647 1.491 . S
C653 C652 1.400 . S
C653 C654 1.398 . S
C654 H642 0.950 . S
C654 C653 1.398 . S
C654 C655 1.391 . S
C655 H643 0.950 . S
C655 C651 1.393 . S
C655 C654 1.391 . S
H656 C664 0.950 . S
H657 C669 0.950 . S
H658 C666 0.950 . S
H659 C668 0.950 . S
H660 C670 0.950 . S
H661 C672 0.950 . S
H662 C674 0.950 . S
H663 C675 0.950 . S
C664 H656 0.950 . S
C664 C665 1.386 . S
C664 C666 1.391 . S
C665 C664 1.386 . S
C665 C669 1.393 . S
C666 H658 0.950 . S
C666 C664 1.391 . S
C666 C667 1.400 . S
C667 C666 1.400 . S
C667 C668 1.398 . S
C667 C673 1.491 . S
C668 H659 0.950 . S
C668 C667 1.398 . S
C668 C669 1.391 . S
C669 H657 0.950 . S
C669 C665 1.393 . S
C669 C668 1.391 . S
C670 H660 0.950 . S
C670 C671 1.386 . S
C670 C672 1.391 . S
C671 C670 1.386 . S
C671 C675 1.393 . S
C672 H661 0.950 . S
C672 C670 1.391 . S
C672 C673 1.400 . S
C673 C667 1.491 . S
C673 C672 1.400 . S
C673 C674 1.398 . S
C674 H662 0.950 . S
C674 C673 1.398 . S
C674 C675 1.391 . S
C675 H663 0.950 . S
C675 C671 1.393 . S
C675 C674 1.391 . S
H676 C684 0.950 . S
H677 C689 0.950 . S
H678 C686 0.950 . S
H679 C688 0.950 . S
H680 C690 0.950 . S
H681 C692 0.950 . S
H682 C694 0.950 . S
H683 C695 0.950 . S
C684 H676 0.950 . S
C684 C685 1.386 . S
C684 C686 1.391 . S
C685 C684 1.386 . S
C685 C689 1.393 . S
C686 H678 0.950 . S
C686 C684 1.391 . S
C686 C687 1.400 . S
C687 C686 1.400 . S
C687 C688 1.398 . S
C687 C693 1.491 . S
C688 H679 0.950 . S
C688 C687 1.398 . S
C688 C689 1.391 . S
C689 H677 0.950 . S
C689 C685 1.393 . S
C689 C688 1.391 . S
C690 H680 0.950 . S
C690 C691 1.386 . S
C690 C692 1.391 . S
C691 C690 1.386 . S
C691 C695 1.393 . S
C692 H681 0.950 . S
C692 C690 1.391 . S
C692 C693 1.400 . S
C693 C687 1.491 . S
C693 C692 1.400 . S
C693 C694 1.398 . S
C694 H682 0.950 . S
C694 C693 1.398 . S
C694 C695 1.391 . S
C695 H683 0.950 . S
C695 C691 1.393 . S
C695 C694 1.391 . S
H696 C704 0.950 . S
H697 C709 0.950 . S
H698 C706 0.950 . S
H699 C708 0.950 . S
H700 C710 0.950 . S
H701 C712 0.950 . S
H702 C714 0.950 . S
H703 C715 0.950 . S
C704 H696 0.950 . S
C704 C705 1.386 . S
C704 C706 1.391 . S
C705 C704 1.386 . S
C705 C709 1.393 . S
C706 H698 0.950 . S
C706 C704 1.391 . S
C706 C707 1.400 . S
C707 C706 1.400 . S
C707 C708 1.398 . S
C707 C713 1.491 . S
C708 H699 0.950 . S
C708 C707 1.398 . S
C708 C709 1.391 . S
C709 H697 0.950 . S
C709 C705 1.393 . S
C709 C708 1.391 . S
C710 H700 0.950 . S
C710 C711 1.386 . S
C710 C712 1.391 . S
C711 C710 1.386 . S
C711 C715 1.393 . S
C712 H701 0.950 . S
C712 C710 1.391 . S
C712 C713 1.400 . S
C713 C707 1.491 . S
C713 C712 1.400 . S
C713 C714 1.398 . S
C714 H702 0.950 . S
C714 C713 1.398 . S
C714 C715 1.391 . S
C715 H703 0.950 . S
C715 C711 1.393 . S
C715 C714 1.391 . S
H716 C724 0.950 . S
H717 C729 0.950 . S
H718 C726 0.950 . S
H719 C728 0.950 . S
H720 C730 0.950 . S
H721 C732 0.950 . S
H722 C734 0.950 . S
H723 C735 0.950 . S
C724 H716 0.950 . S
C724 C725 1.386 . S
C724 C726 1.391 . S
C725 C724 1.386 . S
C725 C729 1.393 . S
C726 H718 0.950 . S
C726 C724 1.391 . S
C726 C727 1.400 . S
C727 C726 1.400 . S
C727 C728 1.398 . S
C727 C733 1.491 . S
C728 H719 0.950 . S
C728 C727 1.398 . S
C728 C729 1.391 . S
C729 H717 0.950 . S
C729 C725 1.393 . S
C729 C728 1.391 . S
C730 H720 0.950 . S
C730 C731 1.386 . S
C730 C732 1.391 . S
C731 C730 1.386 . S
C731 C735 1.393 . S
C732 H721 0.950 . S
C732 C730 1.391 . S
C732 C733 1.400 . S
C733 C727 1.491 . S
C733 C732 1.400 . S
C733 C734 1.398 . S
C734 H722 0.950 . S
C734 C733 1.398 . S
C734 C735 1.391 . S
C735 H723 0.950 . S
C735 C731 1.393 . S
C735 C734 1.391 . S
H736 C744 0.950 . S
H737 C749 0.950 . S
H738 C746 0.950 . S
H739 C748 0.950 . S
H740 C750 0.950 . S
H741 C752 0.950 . S
H742 C754 0.950 . S
H743 C755 0.950 . S
C744 H736 0.950 . S
C744 C745 1.386 . S
C744 C746 1.391 . S
C745 C744 1.386 . S
C745 C749 1.393 . S
C746 H738 0.950 . S
C746 C744 1.391 . S
C746 C747 1.400 . S
C747 C746 1.400 . S
C747 C748 1.398 . S
C747 C753 1.491 1_556 S
C748 H739 0.950 . S
C748 C747 1.398 . S
C748 C749 1.391 . S
C749 H737 0.950 . S
C749 C745 1.393 . S
C749 C748 1.391 . S
C750 H740 0.950 . S
C750 C751 1.386 . S
C750 C752 1.391 . S
C751 C750 1.386 . S
C751 C755 1.393 . S
C752 H741 0.950 . S
C752 C750 1.391 . S
C752 C753 1.400 . S
C753 C747 1.491 1_554 S
C753 C752 1.400 . S
C753 C754 1.398 . S
C754 H742 0.950 . S
C754 C753 1.398 . S
C754 C755 1.391 . S
C755 H743 0.950 . S
C755 C751 1.393 . S
C755 C754 1.391 . S
H756 C764 0.950 . S
H757 C769 0.950 . S
H758 C766 0.950 . S
H759 C768 0.950 . S
H760 C770 0.950 . S
H761 C772 0.950 . S
H762 C774 0.950 . S
H763 C775 0.950 . S
C764 H756 0.950 . S
C764 C765 1.386 . S
C764 C766 1.391 . S
C765 C764 1.386 . S
C765 C769 1.393 . S
C766 H758 0.950 . S
C766 C764 1.391 . S
C766 C767 1.400 . S
C767 C766 1.400 . S
C767 C768 1.398 . S
C767 C773 1.491 1_556 S
C768 H759 0.950 . S
C768 C767 1.398 . S
C768 C769 1.391 . S
C769 H757 0.950 . S
C769 C765 1.393 . S
C769 C768 1.391 . S
C770 H760 0.950 . S
C770 C771 1.386 . S
C770 C772 1.391 . S
C771 C770 1.386 . S
C771 C775 1.393 . S
C772 H761 0.950 . S
C772 C770 1.391 . S
C772 C773 1.400 . S
C773 C767 1.491 1_554 S
C773 C772 1.400 . S
C773 C774 1.398 . S
C774 H762 0.950 . S
C774 C773 1.398 . S
C774 C775 1.391 . S
C775 H763 0.950 . S
C775 C771 1.393 . S
C775 C774 1.391 . S
H776 C784 0.950 . S
H777 C789 0.950 . S
H778 C786 0.950 . S
H779 C788 0.950 . S
H780 C790 0.950 . S
H781 C792 0.950 . S
H782 C794 0.950 . S
H783 C795 0.950 . S
C784 H776 0.950 . S
C784 C785 1.386 . S
C784 C786 1.391 . S
C785 C784 1.386 . S
C785 C789 1.393 . S
C786 H778 0.950 . S
C786 C784 1.391 . S
C786 C787 1.400 . S
C787 C786 1.400 . S
C787 C788 1.398 . S
C787 C793 1.491 1_556 S
C788 H779 0.950 . S
C788 C787 1.398 . S
C788 C789 1.391 . S
C789 H777 0.950 . S
C789 C785 1.393 . S
C789 C788 1.391 . S
C790 H780 0.950 . S
C790 C791 1.386 . S
C790 C792 1.391 . S
C791 C790 1.386 . S
C791 C795 1.393 . S
C792 H781 0.950 . S
C792 C790 1.391 . S
C792 C793 1.400 . S
C793 C787 1.491 1_554 S
C793 C792 1.400 . S
C793 C794 1.398 . S
C794 H782 0.950 . S
C794 C793 1.398 . S
C794 C795 1.391 . S
C795 H783 0.950 . S
C795 C791 1.393 . S
C795 C794 1.391 . S
H796 C804 0.950 . S
H797 C809 0.950 . S
H798 C806 0.950 . S
H799 C808 0.950 . S
H800 C810 0.950 . S
H801 C812 0.950 . S
H802 C814 0.950 . S
H803 C815 0.950 . S
C804 H796 0.950 . S
C804 C805 1.386 . S
C804 C806 1.391 . S
C805 C804 1.386 . S
C805 C809 1.393 . S
C806 H798 0.950 . S
C806 C804 1.391 . S
C806 C807 1.400 . S
C807 C806 1.400 . S
C807 C808 1.398 . S
C807 C813 1.491 1_554 S
C808 H799 0.950 . S
C808 C807 1.398 . S
C808 C809 1.391 . S
C809 H797 0.950 . S
C809 C805 1.393 . S
C809 C808 1.391 . S
C810 H800 0.950 . S
C810 C811 1.386 . S
C810 C812 1.391 . S
C811 C810 1.386 . S
C811 C815 1.393 . S
C812 H801 0.950 . S
C812 C810 1.391 . S
C812 C813 1.400 . S
C813 C807 1.491 1_556 S
C813 C812 1.400 . S
C813 C814 1.398 . S
C814 H802 0.950 . S
C814 C813 1.398 . S
C814 C815 1.391 . S
C815 H803 0.950 . S
C815 C811 1.393 . S
C815 C814 1.391 . S
H816 C824 0.950 . S
H817 C829 0.950 . S
H818 C826 0.950 . S
H819 C828 0.950 . S
H820 C830 0.950 . S
H821 C832 0.950 . S
H822 C834 0.950 . S
H823 C835 0.950 . S
C824 H816 0.950 . S
C824 C825 1.386 . S
C824 C826 1.391 . S
C825 C824 1.386 . S
C825 C829 1.393 . S
C826 H818 0.950 . S
C826 C824 1.391 . S
C826 C827 1.400 . S
C827 C826 1.400 . S
C827 C828 1.398 . S
C827 C833 1.491 . S
C828 H819 0.950 . S
C828 C827 1.398 . S
C828 C829 1.391 . S
C829 H817 0.950 . S
C829 C825 1.393 . S
C829 C828 1.391 . S
C830 H820 0.950 . S
C830 C831 1.386 . S
C830 C832 1.391 . S
C831 C830 1.386 . S
C831 C835 1.393 . S
C832 H821 0.950 . S
C832 C830 1.391 . S
C832 C833 1.400 . S
C833 C827 1.491 . S
C833 C832 1.400 . S
C833 C834 1.398 . S
C834 H822 0.950 . S
C834 C833 1.398 . S
C834 C835 1.391 . S
C835 H823 0.950 . S
C835 C831 1.393 . S
C835 C834 1.391 . S
H836 C844 0.950 . S
H837 C849 0.950 . S
H838 C846 0.950 . S
H839 C848 0.950 . S
H840 C850 0.950 . S
H841 C852 0.950 . S
H842 C854 0.950 . S
H843 C855 0.950 . S
C844 H836 0.950 . S
C844 C845 1.386 . S
C844 C846 1.391 . S
C845 C844 1.386 . S
C845 C849 1.393 . S
C846 H838 0.950 . S
C846 C844 1.391 . S
C846 C847 1.400 . S
C847 C846 1.400 . S
C847 C848 1.398 . S
C847 C853 1.491 . S
C848 H839 0.950 . S
C848 C847 1.398 . S
C848 C849 1.391 . S
C849 H837 0.950 . S
C849 C845 1.393 . S
C849 C848 1.391 . S
C850 H840 0.950 . S
C850 C851 1.386 . S
C850 C852 1.391 . S
C851 C850 1.386 . S
C851 C855 1.393 . S
C852 H841 0.950 . S
C852 C850 1.391 . S
C852 C853 1.400 . S
C853 C847 1.491 . S
C853 C852 1.400 . S
C853 C854 1.398 . S
C854 H842 0.950 . S
C854 C853 1.398 . S
C854 C855 1.391 . S
C855 H843 0.950 . S
C855 C851 1.393 . S
C855 C854 1.391 . S
H856 C864 0.950 . S
H857 C869 0.950 . S
H858 C866 0.950 . S
H859 C868 0.950 . S
H860 C870 0.950 . S
H861 C872 0.950 . S
H862 C874 0.950 . S
H863 C875 0.950 . S
C864 H856 0.950 . S
C864 C865 1.386 . S
C864 C866 1.391 . S
C865 C864 1.386 . S
C865 C869 1.393 . S
C866 H858 0.950 . S
C866 C864 1.391 . S
C866 C867 1.400 . S
C867 C866 1.400 . S
C867 C868 1.398 . S
C867 C873 1.491 . S
C868 H859 0.950 . S
C868 C867 1.398 . S
C868 C869 1.391 . S
C869 H857 0.950 . S
C869 C865 1.393 . S
C869 C868 1.391 . S
C870 H860 0.950 . S
C870 C871 1.386 . S
C870 C872 1.391 . S
C871 C870 1.386 . S
C871 C875 1.393 . S
C872 H861 0.950 . S
C872 C870 1.391 . S
C872 C873 1.400 . S
C873 C867 1.491 . S
C873 C872 1.400 . S
C873 C874 1.398 . S
C874 H862 0.950 . S
C874 C873 1.398 . S
C874 C875 1.391 . S
C875 H863 0.950 . S
C875 C871 1.393 . S
C875 C874 1.391 . S
H876 C884 0.950 . S
H877 C889 0.950 . S
H878 C886 0.950 . S
H879 C888 0.950 . S
H880 C890 0.950 . S
H881 C892 0.950 . S
H882 C894 0.950 . S
H883 C895 0.950 . S
C884 H876 0.950 . S
C884 C885 1.386 . S
C884 C886 1.391 . S
C885 C884 1.386 . S
C885 C889 1.393 . S
C886 H878 0.950 . S
C886 C884 1.391 . S
C886 C887 1.400 . S
C887 C886 1.400 . S
C887 C888 1.398 . S
C887 C893 1.491 . S
C888 H879 0.950 . S
C888 C887 1.398 . S
C888 C889 1.391 . S
C889 H877 0.950 . S
C889 C885 1.393 . S
C889 C888 1.391 . S
C890 H880 0.950 . S
C890 C891 1.386 . S
C890 C892 1.391 . S
C891 C890 1.386 . S
C891 C895 1.393 . S
C892 H881 0.950 . S
C892 C890 1.391 . S
C892 C893 1.400 . S
C893 C887 1.491 . S
C893 C892 1.400 . S
C893 C894 1.398 . S
C894 H882 0.950 . S
C894 C893 1.398 . S
C894 C895 1.391 . S
C895 H883 0.950 . S
C895 C891 1.393 . S
C895 C894 1.391 . S
H896 C904 0.950 . S
H897 C909 0.950 . S
H898 C906 0.950 . S
H899 C908 0.950 . S
H900 C910 0.950 . S
H901 C912 0.950 . S
H902 C914 0.950 . S
H903 C915 0.950 . S
C904 H896 0.950 . S
C904 C905 1.386 . S
C904 C906 1.391 . S
C905 C904 1.386 . S
C905 C909 1.393 . S
C906 H898 0.950 . S
C906 C904 1.391 . S
C906 C907 1.400 . S
C907 C906 1.400 . S
C907 C908 1.398 . S
C907 C913 1.491 . S
C908 H899 0.950 . S
C908 C907 1.398 . S
C908 C909 1.391 . S
C909 H897 0.950 . S
C909 C905 1.393 . S
C909 C908 1.391 . S
C910 H900 0.950 . S
C910 C911 1.386 . S
C910 C912 1.391 . S
C911 C910 1.386 . S
C911 C915 1.393 . S
C912 H901 0.950 . S
C912 C910 1.391 . S
C912 C913 1.400 . S
C913 C907 1.491 . S
C913 C912 1.400 . S
C913 C914 1.398 . S
C914 H902 0.950 . S
C914 C913 1.398 . S
C914 C915 1.391 . S
C915 H903 0.950 . S
C915 C911 1.393 . S
C915 C914 1.391 . S
H916 C924 0.950 . S
H917 C929 0.950 . S
H918 C926 0.950 . S
H919 C928 0.950 . S
H920 C930 0.950 . S
H921 C932 0.950 . S
H922 C934 0.950 . S
H923 C935 0.950 . S
C924 H916 0.950 . S
C924 C925 1.386 . S
C924 C926 1.391 . S
C925 C924 1.386 . S
C925 C929 1.393 . S
C926 H918 0.950 . S
C926 C924 1.391 . S
C926 C927 1.400 . S
C927 C926 1.400 . S
C927 C928 1.398 . S
C927 C933 1.491 . S
C928 H919 0.950 . S
C928 C927 1.398 . S
C928 C929 1.391 . S
C929 H917 0.950 . S
C929 C925 1.393 . S
C929 C928 1.391 . S
C930 H920 0.950 . S
C930 C931 1.386 . S
C930 C932 1.391 . S
C931 C930 1.386 . S
C931 C935 1.393 . S
C932 H921 0.950 . S
C932 C930 1.391 . S
C932 C933 1.400 . S
C933 C927 1.491 . S
C933 C932 1.400 . S
C933 C934 1.398 . S
C934 H922 0.950 . S
C934 C933 1.398 . S
C934 C935 1.391 . S
C935 H923 0.950 . S
C935 C931 1.393 . S
C935 C934 1.391 . S
H936 C944 0.950 . S
H937 C949 0.950 . S
H938 C946 0.950 . S
H939 C948 0.950 . S
H940 C950 0.950 . S
H941 C952 0.950 . S
H942 C954 0.950 . S
H943 C955 0.950 . S
C944 H936 0.950 . S
C944 C945 1.386 . S
C944 C946 1.391 . S
C945 C944 1.386 . S
C945 C949 1.393 . S
C946 H938 0.950 . S
C946 C944 1.391 . S
C946 C947 1.400 . S
C947 C946 1.400 . S
C947 C948 1.398 . S
C947 C953 1.491 . S
C948 H939 0.950 . S
C948 C947 1.398 . S
C948 C949 1.391 . S
C949 H937 0.950 . S
C949 C945 1.393 . S
C949 C948 1.391 . S
C950 H940 0.950 . S
C950 C951 1.386 . S
C950 C952 1.391 . S
C951 C950 1.386 . S
C951 C955 1.393 . S
C952 H941 0.950 . S
C952 C950 1.391 . S
C952 C953 1.400 . S
C953 C947 1.491 . S
C953 C952 1.400 . S
C953 C954 1.398 . S
C954 H942 0.950 . S
C954 C953 1.398 . S
C954 C955 1.391 . S
C955 H943 0.950 . S
C955 C951 1.393 . S
C955 C954 1.391 . S
H956 C964 0.950 . S
H957 C969 0.950 . S
H958 C966 0.950 . S
H959 C968 0.950 . S
H960 C970 0.950 . S
H961 C972 0.950 . S
H962 C974 0.950 . S
H963 C975 0.950 . S
C964 H956 0.950 . S
C964 C965 1.386 . S
C964 C966 1.391 . S
C965 C964 1.386 . S
C965 C969 1.393 . S
C966 H958 0.950 . S
C966 C964 1.391 . S
C966 C967 1.400 . S
C967 C966 1.400 . S
C967 C968 1.398 . S
C967 C973 1.491 . S
C968 H959 0.950 . S
C968 C967 1.398 . S
C968 C969 1.391 . S
C969 H957 0.950 . S
C969 C965 1.393 . S
C969 C968 1.391 . S
C970 H960 0.950 . S
C970 C971 1.386 . S
C970 C972 1.391 . S
C971 C970 1.386 . S
C971 C975 1.393 . S
C972 H961 0.950 . S
C972 C970 1.391 . S
C972 C973 1.400 . S
C973 C967 1.491 . S
C973 C972 1.400 . S
C973 C974 1.398 . S
C974 H962 0.950 . S
C974 C973 1.398 . S
C974 C975 1.391 . S
C975 H963 0.950 . S
C975 C971 1.393 . S
C975 C974 1.391 . S
H976 C984 0.950 . S
H977 C989 0.950 . S
H978 C986 0.950 . S
H979 C988 0.950 . S
H980 C990 0.950 . S
H981 C992 0.950 . S
H982 C994 0.950 . S
H983 C995 0.950 . S
C984 H976 0.950 . S
C984 C985 1.386 . S
C984 C986 1.391 . S
C985 C984 1.386 . S
C985 C989 1.393 . S
C986 H978 0.950 . S
C986 C984 1.391 . S
C986 C987 1.400 . S
C987 C986 1.400 . S
C987 C988 1.398 . S
C987 C993 1.491 . S
C988 H979 0.950 . S
C988 C987 1.398 . S
C988 C989 1.391 . S
C989 H977 0.950 . S
C989 C985 1.393 . S
C989 C988 1.391 . S
C990 H980 0.950 . S
C990 C991 1.386 . S
C990 C992 1.391 . S
C991 C990 1.386 . S
C991 C995 1.393 . S
C992 H981 0.950 . S
C992 C990 1.391 . S
C992 C993 1.400 . S
C993 C987 1.491 . S
C993 C992 1.400 . S
C993 C994 1.398 . S
C994 H982 0.950 . S
C994 C993 1.398 . S
C994 C995 1.391 . S
C995 H983 0.950 . S
C995 C991 1.393 . S
C995 C994 1.391 . S
H996 C1004 0.950 . S
H997 C1009 0.950 . S
H998 C1006 0.950 . S
H999 C1008 0.950 . S
H1000 C1010 0.950 . S
H1001 C1012 0.950 . S
H1002 C1014 0.950 . S
H1003 C1015 0.950 . S
C1004 H996 0.950 . S
C1004 C1005 1.386 . S
C1004 C1006 1.391 . S
C1005 C1004 1.386 . S
C1005 C1009 1.393 . S
C1006 H998 0.950 . S
C1006 C1004 1.391 . S
C1006 C1007 1.400 . S
C1007 C1006 1.400 . S
C1007 C1008 1.398 . S
C1007 C1013 1.491 . S
C1008 H999 0.950 . S
C1008 C1007 1.398 . S
C1008 C1009 1.391 . S
C1009 H997 0.950 . S
C1009 C1005 1.393 . S
C1009 C1008 1.391 . S
C1010 H1000 0.950 . S
C1010 C1011 1.386 . S
C1010 C1012 1.391 . S
C1011 C1010 1.386 . S
C1011 C1015 1.393 . S
C1012 H1001 0.950 . S
C1012 C1010 1.391 . S
C1012 C1013 1.400 . S
C1013 C1007 1.491 . S
C1013 C1012 1.400 . S
C1013 C1014 1.398 . S
C1014 H1002 0.950 . S
C1014 C1013 1.398 . S
C1014 C1015 1.391 . S
C1015 H1003 0.950 . S
C1015 C1011 1.393 . S
C1015 C1014 1.391 . S
H1016 C1024 0.950 . S
H1017 C1029 0.950 . S
H1018 C1026 0.950 . S
H1019 C1028 0.950 . S
H1020 C1030 0.950 . S
H1021 C1032 0.950 . S
H1022 C1034 0.950 . S
H1023 C1035 0.950 . S
C1024 H1016 0.950 . S
C1024 C1025 1.386 . S
C1024 C1026 1.391 . S
C1025 C1024 1.386 . S
C1025 C1029 1.393 . S
C1026 H1018 0.950 . S
C1026 C1024 1.391 . S
C1026 C1027 1.400 . S
C1027 C1026 1.400 . S
C1027 C1028 1.398 . S
C1027 C1033 1.491 . S
C1028 H1019 0.950 . S
C1028 C1027 1.398 . S
C1028 C1029 1.391 . S
C1029 H1017 0.950 . S
C1029 C1025 1.393 . S
C1029 C1028 1.391 . S
C1030 H1020 0.950 . S
C1030 C1031 1.386 . S
C1030 C1032 1.391 . S
C1031 C1030 1.386 . S
C1031 C1035 1.393 . S
C1032 H1021 0.950 . S
C1032 C1030 1.391 . S
C1032 C1033 1.400 . S
C1033 C1027 1.491 . S
C1033 C1032 1.400 . S
C1033 C1034 1.398 . S
C1034 H1022 0.950 . S
C1034 C1033 1.398 . S
C1034 C1035 1.391 . S
C1035 H1023 0.950 . S
C1035 C1031 1.393 . S
C1035 C1034 1.391 . S
H1036 C1044 0.950 . S
H1037 C1049 0.950 . S
H1038 C1046 0.950 . S
H1039 C1048 0.950 . S
H1040 C1050 0.950 . S
H1041 C1052 0.950 . S
H1042 C1054 0.950 . S
H1043 C1055 0.950 . S
C1044 H1036 0.950 . S
C1044 C1045 1.386 . S
C1044 C1046 1.391 . S
C1045 C1044 1.386 . S
C1045 C1049 1.393 . S
C1046 H1038 0.950 . S
C1046 C1044 1.391 . S
C1046 C1047 1.400 . S
C1047 C1046 1.400 . S
C1047 C1048 1.398 . S
C1047 C1053 1.491 . S
C1048 H1039 0.950 . S
C1048 C1047 1.398 . S
C1048 C1049 1.391 . S
C1049 H1037 0.950 . S
C1049 C1045 1.393 . S
C1049 C1048 1.391 . S
C1050 H1040 0.950 . S
C1050 C1051 1.386 . S
C1050 C1052 1.391 . S
C1051 C1050 1.386 . S
C1051 C1055 1.393 . S
C1052 H1041 0.950 . S
C1052 C1050 1.391 . S
C1052 C1053 1.400 . S
C1053 C1047 1.491 . S
C1053 C1052 1.400 . S
C1053 C1054 1.398 . S
C1054 H1042 0.950 . S
C1054 C1053 1.398 . S
C1054 C1055 1.391 . S
C1055 H1043 0.950 . S
C1055 C1051 1.393 . S
C1055 C1054 1.391 . S
H1056 C1064 0.950 . S
H1057 C1069 0.950 . S
H1058 C1066 0.950 . S
H1059 C1068 0.950 . S
H1060 C1070 0.950 . S
H1061 C1072 0.950 . S
H1062 C1074 0.950 . S
H1063 C1075 0.950 . S
C1064 H1056 0.950 . S
C1064 C1065 1.386 . S
C1064 C1066 1.391 . S
C1065 C1064 1.386 . S
C1065 C1069 1.393 . S
C1066 H1058 0.950 . S
C1066 C1064 1.391 . S
C1066 C1067 1.400 . S
C1067 C1066 1.400 . S
C1067 C1068 1.398 . S
C1067 C1073 1.491 1_545 S
C1068 H1059 0.950 . S
C1068 C1067 1.398 . S
C1068 C1069 1.391 . S
C1069 H1057 0.950 . S
C1069 C1065 1.393 . S
C1069 C1068 1.391 . S
C1070 H1060 0.950 . S
C1070 C1071 1.386 . S
C1070 C1072 1.391 . S
C1071 C1070 1.386 . S
C1071 C1075 1.393 . S
C1072 H1061 0.950 . S
C1072 C1070 1.391 . S
C1072 C1073 1.400 . S
C1073 C1067 1.491 1_565 S
C1073 C1072 1.400 . S
C1073 C1074 1.398 . S
C1074 H1062 0.950 . S
C1074 C1073 1.398 . S
C1074 C1075 1.391 . S
C1075 H1063 0.950 . S
C1075 C1071 1.393 . S
C1075 C1074 1.391 . S
H1076 C1084 0.950 . S
H1077 C1089 0.950 . S
H1078 C1086 0.950 . S
H1079 C1088 0.950 . S
H1080 C1090 0.950 . S
H1081 C1092 0.950 . S
H1082 C1094 0.950 . S
H1083 C1095 0.950 . S
C1084 H1076 0.950 . S
C1084 C1085 1.386 . S
C1084 C1086 1.391 . S
C1085 C1084 1.386 . S
C1085 C1089 1.393 . S
C1086 H1078 0.950 . S
C1086 C1084 1.391 . S
C1086 C1087 1.400 . S
C1087 C1086 1.400 . S
C1087 C1088 1.398 . S
C1087 C1093 1.491 1_655 S
C1088 H1079 0.950 . S
C1088 C1087 1.398 . S
C1088 C1089 1.391 . S
C1089 H1077 0.950 . S
C1089 C1085 1.393 . S
C1089 C1088 1.391 . S
C1090 H1080 0.950 . S
C1090 C1091 1.386 . S
C1090 C1092 1.391 . S
C1091 C1090 1.386 . S
C1091 C1095 1.393 . S
C1092 H1081 0.950 . S
C1092 C1090 1.391 . S
C1092 C1093 1.400 . S
C1093 C1087 1.491 1_455 S
C1093 C1092 1.400 . S
C1093 C1094 1.398 . S
C1094 H1082 0.950 . S
C1094 C1093 1.398 . S
C1094 C1095 1.391 . S
C1095 H1083 0.950 . S
C1095 C1091 1.393 . S
C1095 C1094 1.391 . S
H1096 C1104 0.950 . S
H1097 C1109 0.950 . S
H1098 C1106 0.950 . S
H1099 C1108 0.950 . S
H1100 C1110 0.950 . S
H1101 C1112 0.950 . S
H1102 C1114 0.950 . S
H1103 C1115 0.950 . S
C1104 H1096 0.950 . S
C1104 C1105 1.386 . S
C1104 C1106 1.391 . S
C1105 C1104 1.386 . S
C1105 C1109 1.393 . S
C1106 H1098 0.950 . S
C1106 C1104 1.391 . S
C1106 C1107 1.400 . S
C1107 C1106 1.400 . S
C1107 C1108 1.398 . S
C1107 C1113 1.491 1_545 S
C1108 H1099 0.950 . S
C1108 C1107 1.398 . S
C1108 C1109 1.391 . S
C1109 H1097 0.950 . S
C1109 C1105 1.393 . S
C1109 C1108 1.391 . S
C1110 H1100 0.950 . S
C1110 C1111 1.386 . S
C1110 C1112 1.391 . S
C1111 C1110 1.386 . S
C1111 C1115 1.393 . S
C1112 H1101 0.950 . S
C1112 C1110 1.391 . S
C1112 C1113 1.400 . S
C1113 C1107 1.491 1_565 S
C1113 C1112 1.400 . S
C1113 C1114 1.398 . S
C1114 H1102 0.950 . S
C1114 C1113 1.398 . S
C1114 C1115 1.391 . S
C1115 H1103 0.950 . S
C1115 C1111 1.393 . S
C1115 C1114 1.391 . S
H1116 C1124 0.950 . S
H1117 C1129 0.950 . S
H1118 C1126 0.950 . S
H1119 C1128 0.950 . S
H1120 C1130 0.950 . S
H1121 C1132 0.950 . S
H1122 C1134 0.950 . S
H1123 C1135 0.950 . S
C1124 H1116 0.950 . S
C1124 C1125 1.386 . S
C1124 C1126 1.391 . S
C1125 C1124 1.386 . S
C1125 C1129 1.393 . S
C1126 H1118 0.950 . S
C1126 C1124 1.391 . S
C1126 C1127 1.400 . S
C1127 C1126 1.400 . S
C1127 C1128 1.398 . S
C1127 C1133 1.491 1_455 S
C1128 H1119 0.950 . S
C1128 C1127 1.398 . S
C1128 C1129 1.391 . S
C1129 H1117 0.950 . S
C1129 C1125 1.393 . S
C1129 C1128 1.391 . S
C1130 H1120 0.950 . S
C1130 C1131 1.386 . S
C1130 C1132 1.391 . S
C1131 C1130 1.386 . S
C1131 C1135 1.393 . S
C1132 H1121 0.950 . S
C1132 C1130 1.391 . S
C1132 C1133 1.400 . S
C1133 C1127 1.491 1_655 S
C1133 C1132 1.400 . S
C1133 C1134 1.398 . S
C1134 H1122 0.950 . S
C1134 C1133 1.398 . S
C1134 C1135 1.391 . S
C1135 H1123 0.950 . S
C1135 C1131 1.393 . S
C1135 C1134 1.391 . S
H1136 C1144 0.950 . S
H1137 C1149 0.950 . S
H1138 C1146 0.950 . S
H1139 C1148 0.950 . S
H1140 C1150 0.950 . S
H1141 C1152 0.950 . S
H1142 C1154 0.950 . S
H1143 C1155 0.950 . S
C1144 H1136 0.950 . S
C1144 C1145 1.386 . S
C1144 C1146 1.391 . S
C1145 C1144 1.386 . S
C1145 C1149 1.393 . S
C1146 H1138 0.950 . S
C1146 C1144 1.391 . S
C1146 C1147 1.400 . S
C1147 C1146 1.400 . S
C1147 C1148 1.398 . S
C1147 C1153 1.491 1_545 S
C1148 H1139 0.950 . S
C1148 C1147 1.398 . S
C1148 C1149 1.391 . S
C1149 H1137 0.950 . S
C1149 C1145 1.393 . S
C1149 C1148 1.391 . S
C1150 H1140 0.950 . S
C1150 C1151 1.386 . S
C1150 C1152 1.391 . S
C1151 C1150 1.386 . S
C1151 C1155 1.393 . S
C1152 H1141 0.950 . S
C1152 C1150 1.391 . S
C1152 C1153 1.400 . S
C1153 C1147 1.491 1_565 S
C1153 C1152 1.400 . S
C1153 C1154 1.398 . S
C1154 H1142 0.950 . S
C1154 C1153 1.398 . S
C1154 C1155 1.391 . S
C1155 H1143 0.950 . S
C1155 C1151 1.393 . S
C1155 C1154 1.391 . S
H1156 C1164 0.950 . S
H1157 C1169 0.950 . S
H1158 C1166 0.950 . S
H1159 C1168 0.950 . S
H1160 C1170 0.950 . S
H1161 C1172 0.950 . S
H1162 C1174 0.950 . S
H1163 C1175 0.950 . S
C1164 H1156 0.950 . S
C1164 C1165 1.386 . S
C1164 C1166 1.391 . S
C1165 C1164 1.386 . S
C1165 C1169 1.393 . S
C1166 H1158 0.950 . S
C1166 C1164 1.391 . S
C1166 C1167 1.400 . S
C1167 C1166 1.400 . S
C1167 C1168 1.398 . S
C1167 C1173 1.491 1_655 S
C1168 H1159 0.950 . S
C1168 C1167 1.398 . S
C1168 C1169 1.391 . S
C1169 H1157 0.950 . S
C1169 C1165 1.393 . S
C1169 C1168 1.391 . S
C1170 H1160 0.950 . S
C1170 C1171 1.386 . S
C1170 C1172 1.391 . S
C1171 C1170 1.386 . S
C1171 C1175 1.393 . S
C1172 H1161 0.950 . S
C1172 C1170 1.391 . S
C1172 C1173 1.400 . S
C1173 C1167 1.491 1_455 S
C1173 C1172 1.400 . S
C1173 C1174 1.398 . S
C1174 H1162 0.950 . S
C1174 C1173 1.398 . S
C1174 C1175 1.391 . S
C1175 H1163 0.950 . S
C1175 C1171 1.393 . S
C1175 C1174 1.391 . S
H1176 C1184 0.950 . S
H1177 C1189 0.950 . S
H1178 C1186 0.950 . S
H1179 C1188 0.950 . S
H1180 C1190 0.950 . S
H1181 C1192 0.950 . S
H1182 C1194 0.950 . S
H1183 C1195 0.950 . S
C1184 H1176 0.950 . S
C1184 C1185 1.386 . S
C1184 C1186 1.391 . S
C1185 C1184 1.386 . S
C1185 C1189 1.393 . S
C1186 H1178 0.950 . S
C1186 C1184 1.391 . S
C1186 C1187 1.400 . S
C1187 C1186 1.400 . S
C1187 C1188 1.398 . S
C1187 C1193 1.491 1_565 S
C1188 H1179 0.950 . S
C1188 C1187 1.398 . S
C1188 C1189 1.391 . S
C1189 H1177 0.950 . S
C1189 C1185 1.393 . S
C1189 C1188 1.391 . S
C1190 H1180 0.950 . S
C1190 C1191 1.386 . S
C1190 C1192 1.391 . S
C1191 C1190 1.386 . S
C1191 C1195 1.393 . S
C1192 H1181 0.950 . S
C1192 C1190 1.391 . S
C1192 C1193 1.400 . S
C1193 C1187 1.491 1_545 S
C1193 C1192 1.400 . S
C1193 C1194 1.398 . S
C1194 H1182 0.950 . S
C1194 C1193 1.398 . S
C1194 C1195 1.391 . S
C1195 H1183 0.950 . S
C1195 C1191 1.393 . S
C1195 C1194 1.391 . S
H1196 C1204 0.950 . S
H1197 C1209 0.950 . S
H1198 C1206 0.950 . S
H1199 C1208 0.950 . S
H1200 C1210 0.950 . S
H1201 C1212 0.950 . S
H1202 C1214 0.950 . S
H1203 C1215 0.950 . S
C1204 H1196 0.950 . S
C1204 C1205 1.386 . S
C1204 C1206 1.391 . S
C1205 C1204 1.386 . S
C1205 C1209 1.393 . S
C1206 H1198 0.950 . S
C1206 C1204 1.391 . S
C1206 C1207 1.400 . S
C1207 C1206 1.400 . S
C1207 C1208 1.398 . S
C1207 C1213 1.491 1_455 S
C1208 H1199 0.950 . S
C1208 C1207 1.398 . S
C1208 C1209 1.391 . S
C1209 H1197 0.950 . S
C1209 C1205 1.393 . S
C1209 C1208 1.391 . S
C1210 H1200 0.950 . S
C1210 C1211 1.386 . S
C1210 C1212 1.391 . S
C1211 C1210 1.386 . S
C1211 C1215 1.393 . S
C1212 H1201 0.950 . S
C1212 C1210 1.391 . S
C1212 C1213 1.400 . S
C1213 C1207 1.491 1_655 S
C1213 C1212 1.400 . S
C1213 C1214 1.398 . S
C1214 H1202 0.950 . S
C1214 C1213 1.398 . S
C1214 C1215 1.391 . S
C1215 H1203 0.950 . S
C1215 C1211 1.393 . S
C1215 C1214 1.391 . S
C585 C184 1.392 . S
C591 C4 1.395 . S
C605 C220 1.393 . S
C611 C40 1.394 . S
C625 C76 1.393 . S
C631 C256 1.394 . S
C645 C112 1.394 . S
C651 C148 1.392 . S
C665 C472 1.392 . S
C671 C292 1.394 . S
C685 C508 1.395 . S
C691 C328 1.392 . S
C705 C364 1.392 . S
C711 C544 1.395 . S
C725 C400 1.394 . S
C731 C436 1.392 . S
C745 C374 1.490 . S
C751 C14 1.481 . S
C765 C410 1.481 . S
C771 C50 1.479 . S
C785 C302 1.492 . S
C791 C86 1.499 . S
C805 C122 1.500 . S
C811 C338 1.498 . S
C825 C518 1.499 . S
C831 C158 1.492 . S
C845 C554 1.496 . S
C851 C194 1.487 . S
C865 C230 1.482 . S
C871 C446 1.479 . S
C885 C482 1.490 . S
C891 C266 1.498 . S
C905 C146 1.070 . S
C911 C2 1.071 . S
C925 C38 1.063 . S
C931 C182 1.062 . S
C945 C74 1.060 . S
C951 C218 1.065 . S
C965 C254 1.072 . S
C971 C110 1.057 . S
C985 C291 1.741 . S
C991 C435 1.741 . S
C1005 C471 1.741 . S
C1011 C327 1.741 . S
C1025 C363 1.740 . S
C1031 C507 1.740 . S
C1045 C543 1.741 . S
C1051 C399 1.741 . S
C1065 C398 1.076 . S
C1071 C470 1.061 . S
C1085 C290 1.070 . S
C1091 C506 1.058 . S
C1105 C542 1.076 . S
C1111 C326 1.059 . S
C1125 C362 1.075 . S
C1131 C434 1.064 . S
C1145 C183 1.738 . S
C1151 C111 1.738 . S
C1165 C219 1.741 . S
C1171 C3 1.741 . S
C1185 C255 1.738 . S
C1191 C39 1.738 . S
C1205 C147 1.741 . S
C1211 C75 1.741 . S
