# Generated by pormake.
# Topology vbi, (5)-cn, num edge types: 1
# Building blocks:
#     Node 0, Type 0, BuildingBlock: XOMCOT_clean_sbu_0, # of connection points: 5
#     Node 1, Type 0, BuildingBlock: XOMCOT_clean_sbu_0, # of connection points: 5
#     Node 2, Type 0, BuildingBlock: XOMCOT_clean_sbu_0, # of connection points: 5
#     Node 3, Type 0, BuildingBlock: XOMCOT_clean_sbu_0, # of connection points: 5
#     Node 4, Type 0, BuildingBlock: XOMCOT_clean_sbu_0, # of connection points: 5
#     Node 5, Type 0, BuildingBlock: XOMCOT_clean_sbu_0, # of connection points: 5
#     Node 6, Type 0, BuildingBlock: XOMCOT_clean_sbu_0, # of connection points: 5
#     Node 7, Type 0, BuildingBlock: XOMCOT_clean_sbu_0, # of connection points: 5
#     Node 8, Type 0, BuildingBlock: XOMCOT_clean_sbu_0, # of connection points: 5
#     Node 9, Type 0, BuildingBlock: XOMCOT_clean_sbu_0, # of connection points: 5
#     Node 10, Type 0, BuildingBlock: XOMCOT_clean_sbu_0, # of connection points: 5
#     Node 11, Type 0, BuildingBlock: XOMCOT_clean_sbu_0, # of connection points: 5
#     Node 12, Type 0, BuildingBlock: XOMCOT_clean_sbu_0, # of connection points: 5
#     Node 13, Type 0, BuildingBlock: XOMCOT_clean_sbu_0, # of connection points: 5
#     Node 14, Type 0, BuildingBlock: XOMCOT_clean_sbu_0, # of connection points: 5
#     Node 15, Type 0, BuildingBlock: XOMCOT_clean_sbu_0, # of connection points: 5
#     Node 16, Type 0, BuildingBlock: XOMCOT_clean_sbu_0, # of connection points: 5
#     Node 17, Type 0, BuildingBlock: XOMCOT_clean_sbu_0, # of connection points: 5
#     Node 18, Type 0, BuildingBlock: XOMCOT_clean_sbu_0, # of connection points: 5
#     Node 19, Type 0, BuildingBlock: XOMCOT_clean_sbu_0, # of connection points: 5
#     Node 20, Type 0, BuildingBlock: XOMCOT_clean_sbu_0, # of connection points: 5
#     Node 21, Type 0, BuildingBlock: XOMCOT_clean_sbu_0, # of connection points: 5
#     Node 22, Type 0, BuildingBlock: XOMCOT_clean_sbu_0, # of connection points: 5
#     Node 23, Type 0, BuildingBlock: XOMCOT_clean_sbu_0, # of connection points: 5
#     Node 24, Type 0, BuildingBlock: XOMCOT_clean_sbu_0, # of connection points: 5
#     Node 25, Type 0, BuildingBlock: XOMCOT_clean_sbu_0, # of connection points: 5
#     Node 26, Type 0, BuildingBlock: XOMCOT_clean_sbu_0, # of connection points: 5
#     Node 27, Type 0, BuildingBlock: XOMCOT_clean_sbu_0, # of connection points: 5
#     Node 28, Type 0, BuildingBlock: XOMCOT_clean_sbu_0, # of connection points: 5
#     Node 29, Type 0, BuildingBlock: XOMCOT_clean_sbu_0, # of connection points: 5
#     Node 30, Type 0, BuildingBlock: XOMCOT_clean_sbu_0, # of connection points: 5
#     Node 31, Type 0, BuildingBlock: XOMCOT_clean_sbu_0, # of connection points: 5
#     Edge 32, Type (0, 0), BuildingBlock: KIFKEQ_clean_linker_1, # of connection points: 2
#     Edge 33, Type (0, 0), BuildingBlock: KIFKEQ_clean_linker_1, # of connection points: 2
#     Edge 34, Type (0, 0), BuildingBlock: KIFKEQ_clean_linker_1, # of connection points: 2
#     Edge 35, Type (0, 0), BuildingBlock: KIFKEQ_clean_linker_1, # of connection points: 2
#     Edge 36, Type (0, 0), BuildingBlock: KIFKEQ_clean_linker_1, # of connection points: 2
#     Edge 37, Type (0, 0), BuildingBlock: KIFKEQ_clean_linker_1, # of connection points: 2
#     Edge 38, Type (0, 0), BuildingBlock: KIFKEQ_clean_linker_1, # of connection points: 2
#     Edge 39, Type (0, 0), BuildingBlock: KIFKEQ_clean_linker_1, # of connection points: 2
#     Edge 40, Type (0, 0), BuildingBlock: KIFKEQ_clean_linker_1, # of connection points: 2
#     Edge 41, Type (0, 0), BuildingBlock: KIFKEQ_clean_linker_1, # of connection points: 2
#     Edge 42, Type (0, 0), BuildingBlock: KIFKEQ_clean_linker_1, # of connection points: 2
#     Edge 43, Type (0, 0), BuildingBlock: KIFKEQ_clean_linker_1, # of connection points: 2
#     Edge 44, Type (0, 0), BuildingBlock: KIFKEQ_clean_linker_1, # of connection points: 2
#     Edge 45, Type (0, 0), BuildingBlock: KIFKEQ_clean_linker_1, # of connection points: 2
#     Edge 46, Type (0, 0), BuildingBlock: KIFKEQ_clean_linker_1, # of connection points: 2
#     Edge 47, Type (0, 0), BuildingBlock: KIFKEQ_clean_linker_1, # of connection points: 2
#     Edge 48, Type (0, 0), BuildingBlock: KIFKEQ_clean_linker_1, # of connection points: 2
#     Edge 49, Type (0, 0), BuildingBlock: KIFKEQ_clean_linker_1, # of connection points: 2
#     Edge 50, Type (0, 0), BuildingBlock: KIFKEQ_clean_linker_1, # of connection points: 2
#     Edge 51, Type (0, 0), BuildingBlock: KIFKEQ_clean_linker_1, # of connection points: 2
#     Edge 52, Type (0, 0), BuildingBlock: KIFKEQ_clean_linker_1, # of connection points: 2
#     Edge 53, Type (0, 0), BuildingBlock: KIFKEQ_clean_linker_1, # of connection points: 2
#     Edge 54, Type (0, 0), BuildingBlock: KIFKEQ_clean_linker_1, # of connection points: 2
#     Edge 55, Type (0, 0), BuildingBlock: KIFKEQ_clean_linker_1, # of connection points: 2
#     Edge 56, Type (0, 0), BuildingBlock: KIFKEQ_clean_linker_1, # of connection points: 2
#     Edge 57, Type (0, 0), BuildingBlock: KIFKEQ_clean_linker_1, # of connection points: 2
#     Edge 58, Type (0, 0), BuildingBlock: KIFKEQ_clean_linker_1, # of connection points: 2
#     Edge 59, Type (0, 0), BuildingBlock: KIFKEQ_clean_linker_1, # of connection points: 2
#     Edge 60, Type (0, 0), BuildingBlock: KIFKEQ_clean_linker_1, # of connection points: 2
#     Edge 61, Type (0, 0), BuildingBlock: KIFKEQ_clean_linker_1, # of connection points: 2
#     Edge 62, Type (0, 0), BuildingBlock: KIFKEQ_clean_linker_1, # of connection points: 2
#     Edge 63, Type (0, 0), BuildingBlock: KIFKEQ_clean_linker_1, # of connection points: 2
#     Edge 64, Type (0, 0), BuildingBlock: KIFKEQ_clean_linker_1, # of connection points: 2
#     Edge 65, Type (0, 0), BuildingBlock: KIFKEQ_clean_linker_1, # of connection points: 2
#     Edge 66, Type (0, 0), BuildingBlock: KIFKEQ_clean_linker_1, # of connection points: 2
#     Edge 67, Type (0, 0), BuildingBlock: KIFKEQ_clean_linker_1, # of connection points: 2
#     Edge 68, Type (0, 0), BuildingBlock: KIFKEQ_clean_linker_1, # of connection points: 2
#     Edge 69, Type (0, 0), BuildingBlock: KIFKEQ_clean_linker_1, # of connection points: 2
#     Edge 70, Type (0, 0), BuildingBlock: KIFKEQ_clean_linker_1, # of connection points: 2
#     Edge 71, Type (0, 0), BuildingBlock: KIFKEQ_clean_linker_1, # of connection points: 2
#     Edge 72, Type (0, 0), BuildingBlock: KIFKEQ_clean_linker_1, # of connection points: 2
#     Edge 73, Type (0, 0), BuildingBlock: KIFKEQ_clean_linker_1, # of connection points: 2
#     Edge 74, Type (0, 0), BuildingBlock: KIFKEQ_clean_linker_1, # of connection points: 2
#     Edge 75, Type (0, 0), BuildingBlock: KIFKEQ_clean_linker_1, # of connection points: 2
#     Edge 76, Type (0, 0), BuildingBlock: KIFKEQ_clean_linker_1, # of connection points: 2
#     Edge 77, Type (0, 0), BuildingBlock: KIFKEQ_clean_linker_1, # of connection points: 2
#     Edge 78, Type (0, 0), BuildingBlock: KIFKEQ_clean_linker_1, # of connection points: 2
#     Edge 79, Type (0, 0), BuildingBlock: KIFKEQ_clean_linker_1, # of connection points: 2
#     Edge 80, Type (0, 0), BuildingBlock: KIFKEQ_clean_linker_1, # of connection points: 2
#     Edge 81, Type (0, 0), BuildingBlock: KIFKEQ_clean_linker_1, # of connection points: 2
#     Edge 82, Type (0, 0), BuildingBlock: KIFKEQ_clean_linker_1, # of connection points: 2
#     Edge 83, Type (0, 0), BuildingBlock: KIFKEQ_clean_linker_1, # of connection points: 2
#     Edge 84, Type (0, 0), BuildingBlock: KIFKEQ_clean_linker_1, # of connection points: 2
#     Edge 85, Type (0, 0), BuildingBlock: KIFKEQ_clean_linker_1, # of connection points: 2
#     Edge 86, Type (0, 0), BuildingBlock: KIFKEQ_clean_linker_1, # of connection points: 2
#     Edge 87, Type (0, 0), BuildingBlock: KIFKEQ_clean_linker_1, # of connection points: 2
#     Edge 88, Type (0, 0), BuildingBlock: KIFKEQ_clean_linker_1, # of connection points: 2
#     Edge 89, Type (0, 0), BuildingBlock: KIFKEQ_clean_linker_1, # of connection points: 2
#     Edge 90, Type (0, 0), BuildingBlock: KIFKEQ_clean_linker_1, # of connection points: 2
#     Edge 91, Type (0, 0), BuildingBlock: KIFKEQ_clean_linker_1, # of connection points: 2
#     Edge 92, Type (0, 0), BuildingBlock: KIFKEQ_clean_linker_1, # of connection points: 2
#     Edge 93, Type (0, 0), BuildingBlock: KIFKEQ_clean_linker_1, # of connection points: 2
#     Edge 94, Type (0, 0), BuildingBlock: KIFKEQ_clean_linker_1, # of connection points: 2
#     Edge 95, Type (0, 0), BuildingBlock: KIFKEQ_clean_linker_1, # of connection points: 2
#     Edge 96, Type (0, 0), BuildingBlock: KIFKEQ_clean_linker_1, # of connection points: 2
#     Edge 97, Type (0, 0), BuildingBlock: KIFKEQ_clean_linker_1, # of connection points: 2
#     Edge 98, Type (0, 0), BuildingBlock: KIFKEQ_clean_linker_1, # of connection points: 2
#     Edge 99, Type (0, 0), BuildingBlock: KIFKEQ_clean_linker_1, # of connection points: 2
#     Edge 100, Type (0, 0), BuildingBlock: KIFKEQ_clean_linker_1, # of connection points: 2
#     Edge 101, Type (0, 0), BuildingBlock: KIFKEQ_clean_linker_1, # of connection points: 2
#     Edge 102, Type (0, 0), BuildingBlock: KIFKEQ_clean_linker_1, # of connection points: 2
#     Edge 103, Type (0, 0), BuildingBlock: KIFKEQ_clean_linker_1, # of connection points: 2
#     Edge 104, Type (0, 0), BuildingBlock: KIFKEQ_clean_linker_1, # of connection points: 2
#     Edge 105, Type (0, 0), BuildingBlock: KIFKEQ_clean_linker_1, # of connection points: 2
#     Edge 106, Type (0, 0), BuildingBlock: KIFKEQ_clean_linker_1, # of connection points: 2
#     Edge 107, Type (0, 0), BuildingBlock: KIFKEQ_clean_linker_1, # of connection points: 2
#     Edge 108, Type (0, 0), BuildingBlock: KIFKEQ_clean_linker_1, # of connection points: 2
#     Edge 109, Type (0, 0), BuildingBlock: KIFKEQ_clean_linker_1, # of connection points: 2
#     Edge 110, Type (0, 0), BuildingBlock: KIFKEQ_clean_linker_1, # of connection points: 2
#     Edge 111, Type (0, 0), BuildingBlock: KIFKEQ_clean_linker_1, # of connection points: 2
# Relax obj value: 0.361
# Max RMSD: 0.171
# Mean RMSD: 0.171
data_MOF--net-vbi--node1-XOMCOT_clean_sbu_0--edge1-KIFKEQ_clean_linker_1
_symmetry_space_group_name_H-M    P1
_symmetry_Int_Tables_number       1
_symmetry_cell_setting            triclinic
loop_
_symmetry_equiv_pos_as_xyz
'x, y, z'
_cell_length_a     46.640987
_cell_length_b     38.123297
_cell_length_c     99.457709
_cell_angle_alpha  90.089408
_cell_angle_beta   90.025327
_cell_angle_gamma 89.976104
loop_
_atom_site_label
_atom_site_type_symbol
_atom_site_fract_x
_atom_site_fract_y
_atom_site_fract_z
_atom_type_partial_charge
Co0 Co 0.45188 0.16052 0.04855 0.0
C1 C 0.39482 0.13983 0.0375 0.0
C2 C 0.39934 0.19571 0.0373 0.0
C3 C 0.37296 0.1868 0.0318 0.0
N4 N 0.41321 0.16617 0.04087 0.0
N5 N 0.37007 0.1515 0.03195 0.0
H6 H 0.39954 0.11235 0.03887 0.0
H7 H 0.40772 0.22196 0.03847 0.0
C8 C 0.46431 0.24215 0.04767 0.0
O9 O 0.44825 0.25195 0.05785 0.0
N10 N 0.48968 0.15275 0.05599 0.0
C11 C 0.49528 0.13263 0.06683 0.0
C12 C 0.52436 0.13121 0.06872 0.0
C13 C 0.51553 0.16226 0.05109 0.0
N14 N 0.53695 0.14966 0.05883 0.0
C15 C 0.4158 0.15091 0.07157 0.0
C16 C 0.45062 0.18643 0.08948 0.0
C17 C 0.42954 0.16387 0.09462 0.0
C18 C 0.41111 0.14734 0.08545 0.0
C19 C 0.45417 0.18996 0.07553 0.0
N20 N 0.4378 0.17094 0.06672 0.0
H21 H 0.40332 0.13491 0.06479 0.0
H22 H 0.47237 0.20472 0.07193 0.0
H23 H 0.47924 0.1195 0.07285 0.0
H24 H 0.51861 0.17756 0.04205 0.0
O25 O 0.44728 0.10986 0.04852 0.0
O26 O 0.46483 0.14197 0.03185 0.0
O27 O 0.46451 0.21014 0.04378 0.0
C28 C 0.4593 0.11114 0.03667 0.0
H29 H 0.35713 0.20508 0.02805 0.0
H30 H 0.53555 0.11689 0.07652 0.0
H31 H 0.46536 0.19971 0.0962 0.0
H32 H 0.39468 0.12948 0.08895 0.0
Co33 Co 0.8316 0.1075 0.05001 0.0
C34 C 0.88354 0.12729 0.03402 0.0
C35 C 0.88895 0.07711 0.04329 0.0
C36 C 0.91478 0.08726 0.03758 0.0
N37 N 0.86919 0.10234 0.04114 0.0
N38 N 0.91138 0.11897 0.03177 0.0
H39 H 0.87451 0.15225 0.03118 0.0
H40 H 0.88547 0.05393 0.0493 0.0
C41 C 0.8196 0.02654 0.04579 0.0
O42 O 0.83932 0.01436 0.05397 0.0
N43 N 0.795 0.11435 0.05877 0.0
C44 C 0.79107 0.13062 0.07067 0.0
C45 C 0.76223 0.13455 0.07286 0.0
C46 C 0.76847 0.1096 0.05364 0.0
N47 N 0.74808 0.1215 0.06215 0.0
C48 C 0.86901 0.11318 0.07231 0.0
C49 C 0.83826 0.07092 0.0896 0.0
C50 C 0.85787 0.09505 0.0952 0.0
C51 C 0.87424 0.11512 0.08616 0.0
C52 C 0.83332 0.07025 0.07564 0.0
N53 N 0.84772 0.09247 0.06724 0.0
H54 H 0.88014 0.13124 0.06577 0.0
H55 H 0.81568 0.05476 0.07186 0.0
H56 H 0.80806 0.14024 0.07709 0.0
H57 H 0.76424 0.0987 0.04379 0.0
O58 O 0.83792 0.15744 0.05203 0.0
O59 O 0.81695 0.13148 0.03458 0.0
O60 O 0.81718 0.05959 0.04383 0.0
C61 C 0.82405 0.16033 0.0407 0.0
H62 H 0.9347 0.07275 0.03803 0.0
H63 H 0.75242 0.14761 0.08137 0.0
H64 H 0.82552 0.05401 0.09594 0.0
H65 H 0.8895 0.13441 0.08967 0.0
Co66 Co 0.45239 0.10774 0.23892 0.0
C67 C 0.39634 0.12962 0.25078 0.0
C68 C 0.40162 0.07406 0.25249 0.0
C69 C 0.37593 0.0837 0.2585 0.0
N70 N 0.41458 0.10295 0.24761 0.0
N71 N 0.37266 0.11884 0.25749 0.0
H72 H 0.4001 0.15668 0.24815 0.0
H73 H 0.41026 0.04781 0.25198 0.0
C74 C 0.46571 0.02761 0.24308 0.0
O75 O 0.44757 0.01585 0.23403 0.0
N76 N 0.48937 0.11464 0.23051 0.0
C77 C 0.49372 0.13165 0.21881 0.0
C78 C 0.52263 0.13381 0.21648 0.0
C79 C 0.51576 0.10784 0.23545 0.0
N80 N 0.53639 0.119 0.22694 0.0
C81 C 0.41448 0.10849 0.2164 0.0
C82 C 0.45039 0.07177 0.19935 0.0
C83 C 0.4288 0.09279 0.1937 0.0
C84 C 0.4097 0.10963 0.20247 0.0
C85 C 0.45404 0.07067 0.21336 0.0
N86 N 0.43735 0.09075 0.22167 0.0
H87 H 0.40156 0.12508 0.22279 0.0
H88 H 0.47273 0.05742 0.21728 0.0
H89 H 0.47695 0.1423 0.2125 0.0
H90 H 0.51979 0.09557 0.24507 0.0
O91 O 0.44574 0.1574 0.23625 0.0
O92 O 0.46577 0.13312 0.25427 0.0
O93 O 0.46693 0.06045 0.24575 0.0
C94 C 0.45843 0.16137 0.24785 0.0
H95 H 0.36121 0.06614 0.26353 0.0
H96 H 0.53287 0.14641 0.208 0.0
H97 H 0.46557 0.05818 0.19295 0.0
H98 H 0.39278 0.12623 0.19858 0.0
Co99 Co 0.83165 0.15636 0.23983 0.0
C100 C 0.88723 0.13405 0.25194 0.0
C101 C 0.88074 0.18903 0.25507 0.0
C102 C 0.90613 0.179 0.26126 0.0
N103 N 0.8688 0.16078 0.24914 0.0
N104 N 0.91018 0.14423 0.25935 0.0
H105 H 0.884 0.10738 0.24861 0.0
H106 H 0.87153 0.215 0.25523 0.0
C107 C 0.82192 0.23901 0.2422 0.0
O108 O 0.84297 0.25054 0.23464 0.0
N109 N 0.79537 0.14991 0.23072 0.0
C110 C 0.79159 0.13284 0.21897 0.0
C111 C 0.76278 0.13037 0.21637 0.0
C112 C 0.76872 0.15649 0.23539 0.0
N113 N 0.74849 0.14505 0.22671 0.0
C114 C 0.86897 0.14273 0.2179 0.0
C115 C 0.8423 0.18659 0.19965 0.0
C116 C 0.85991 0.15952 0.19477 0.0
C117 C 0.87428 0.1385 0.20415 0.0
C118 C 0.83717 0.18961 0.21356 0.0
N119 N 0.84942 0.16666 0.22245 0.0
H120 H 0.87834 0.12409 0.22476 0.0
H121 H 0.82068 0.20748 0.21691 0.0
H122 H 0.80857 0.12177 0.2129 0.0
H123 H 0.76422 0.16841 0.24504 0.0
O124 O 0.83547 0.10557 0.23982 0.0
O125 O 0.81522 0.13774 0.25582 0.0
O126 O 0.81868 0.2061 0.24417 0.0
C127 C 0.82136 0.1069 0.25114 0.0
H128 H 0.92002 0.19596 0.26706 0.0
H129 H 0.75299 0.11728 0.20786 0.0
H130 H 0.83059 0.20321 0.19274 0.0
H131 H 0.88819 0.11744 0.20082 0.0
Co132 Co 0.57975 0.8569 0.98998 0.0
C133 C 0.63459 0.88062 1.00288 0.0
C134 C 0.63323 0.82462 1.00142 0.0
C135 C 0.65905 0.83456 1.00721 0.0
N136 N 0.6177 0.85353 0.99869 0.0
N137 N 0.66 0.86994 1.00815 0.0
H138 H 0.62881 0.90788 1.00179 0.0
H139 H 0.62653 0.79807 0.99931 0.0
C140 C 0.56917 0.77533 0.9928 0.0
O141 O 0.58725 0.76458 0.98355 0.0
N142 N 0.54261 0.86218 0.98147 0.0
C143 C 0.53791 0.87934 0.96982 0.0
C144 C 0.50899 0.88064 0.96745 0.0
C145 C 0.51629 0.85441 0.98632 0.0
N146 N 0.49544 0.86512 0.97781 0.0
C147 C 0.6172 0.86506 0.96768 0.0
C148 C 0.58643 0.82425 0.94983 0.0
C149 C 0.60601 0.84879 0.94456 0.0
C150 C 0.62241 0.86811 0.95385 0.0
C151 C 0.58162 0.82231 0.96377 0.0
N152 N 0.59603 0.84377 0.9725 0.0
H153 H 0.62821 0.88275 0.97442 0.0
H154 H 0.5639 0.8066 0.96729 0.0
H155 H 0.55442 0.89098 0.96364 0.0
H156 H 0.51247 0.84194 0.99592 0.0
O157 O 0.58385 0.90719 0.98844 0.0
O158 O 0.56479 0.87887 1.0058 0.0
O159 O 0.56736 0.80792 0.9958 0.0
C160 C 0.57059 0.90846 0.99998 0.0
H161 H 0.67572 0.81683 1.01053 0.0
H162 H 0.49856 0.89336 0.95904 0.0
H163 H 0.57358 0.80803 0.94324 0.0
H164 H 0.63764 0.88765 0.95053 0.0
Co165 Co 0.20097 0.91313 0.98991 0.0
C166 C 0.14879 0.88716 1.00443 0.0
C167 C 0.14588 0.9421 1.00011 0.0
C168 C 0.12011 0.93094 1.00553 0.0
N169 N 0.16403 0.91468 0.9994 0.0
N170 N 0.12186 0.89627 1.00824 0.0
H171 H 0.15653 0.86045 1.00462 0.0
H172 H 0.15053 0.96812 0.99637 0.0
C173 C 0.22829 0.98548 0.98854 0.0
O174 O 0.24025 0.97686 0.97706 0.0
N175 N 0.23728 0.90893 0.98037 0.0
C176 C 0.24086 0.89773 0.96759 0.0
C177 C 0.26959 0.89351 0.96511 0.0
C178 C 0.26408 0.91006 0.98562 0.0
N179 N 0.28414 0.90114 0.97644 0.0
C180 C 0.16496 0.89104 0.9686 0.0
C181 C 0.17818 0.9428 0.95027 0.0
C182 C 0.16628 0.91121 0.94549 0.0
C183 C 0.15796 0.88626 0.95506 0.0
C184 C 0.18466 0.94664 0.96405 0.0
N185 N 0.18041 0.91947 0.9728 0.0
H186 H 0.15978 0.87029 0.97556 0.0
H187 H 0.19432 0.97066 0.96734 0.0
H188 H 0.22389 0.89121 0.96065 0.0
H189 H 0.26875 0.91678 0.99597 0.0
O190 O 0.20061 0.86264 0.99028 0.0
O191 O 0.21961 0.89669 1.00604 0.0
O192 O 0.20874 0.96561 0.99372 0.0
C193 C 0.21518 0.8653 1.00138 0.0
H194 H 0.10131 0.94709 1.00708 0.0
H195 H 0.27898 0.88379 0.95587 0.0
H196 H 0.1841 0.96351 0.94338 0.0
H197 H 0.14733 0.86225 0.95205 0.0
Co198 Co 0.58003 0.91047 0.79951 0.0
C199 C 0.63222 0.88778 0.7841 0.0
C200 C 0.638 0.93877 0.79273 0.0
C201 C 0.66376 0.92776 0.78717 0.0
N202 N 0.61805 0.91363 0.79089 0.0
N203 N 0.66015 0.89555 0.78175 0.0
H204 H 0.62293 0.86272 0.78154 0.0
H205 H 0.63458 0.96268 0.79836 0.0
C206 C 0.56988 0.99216 0.79629 0.0
O207 O 0.58802 1.00325 0.80546 0.0
N208 N 0.54292 0.90555 0.80805 0.0
C209 C 0.53822 0.88845 0.81971 0.0
C210 C 0.50934 0.88787 0.8222 0.0
C211 C 0.51665 0.91404 0.80333 0.0
N212 N 0.49583 0.9038 0.81192 0.0
C213 C 0.6172 0.90185 0.82186 0.0
C214 C 0.587 0.94361 0.83961 0.0
C215 C 0.60627 0.91874 0.84494 0.0
C216 C 0.62238 0.89892 0.8357 0.0
C217 C 0.58223 0.94546 0.82566 0.0
N218 N 0.59634 0.92354 0.817 0.0
H219 H 0.628 0.88388 0.81514 0.0
H220 H 0.56478 0.96156 0.82208 0.0
H221 H 0.5547 0.87649 0.82583 0.0
H222 H 0.51282 0.92677 0.79377 0.0
O223 O 0.58408 0.86017 0.80109 0.0
O224 O 0.56478 0.88846 0.78376 0.0
O225 O 0.56786 0.95942 0.79359 0.0
C226 C 0.57041 0.8589 0.78965 0.0
H227 H 0.68375 0.94215 0.78736 0.0
H228 H 0.49889 0.87541 0.83066 0.0
H229 H 0.57438 0.9602 0.84616 0.0
H230 H 0.63736 0.87911 0.83907 0.0
Co231 Co 0.20136 0.85778 0.80064 0.0
C232 C 0.15039 0.8822 0.7848 0.0
C233 C 0.14485 0.82969 0.79196 0.0
C234 C 0.11947 0.84083 0.7861 0.0
N235 N 0.16439 0.85562 0.79117 0.0
N236 N 0.12292 0.87396 0.7816 0.0
H237 H 0.15942 0.90791 0.78313 0.0
H238 H 0.14834 0.80495 0.79702 0.0
C239 C 0.22961 0.78596 0.80197 0.0
O240 O 0.24071 0.79462 0.81364 0.0
N241 N 0.23762 0.86242 0.81018 0.0
C242 C 0.24121 0.87252 0.82309 0.0
C243 C 0.26992 0.87694 0.82557 0.0
C244 C 0.26437 0.86194 0.80489 0.0
N245 N 0.28444 0.87041 0.81413 0.0
C246 C 0.16646 0.87884 0.82261 0.0
C247 C 0.17757 0.82342 0.8396 0.0
C248 C 0.16636 0.85455 0.84515 0.0
C249 C 0.15936 0.88168 0.83622 0.0
C250 C 0.18425 0.82164 0.82581 0.0
N251 N 0.18102 0.85038 0.81775 0.0
H252 H 0.16202 0.90094 0.81618 0.0
H253 H 0.19282 0.79759 0.82191 0.0
H254 H 0.22427 0.87786 0.83018 0.0
H255 H 0.26902 0.85589 0.79448 0.0
O256 O 0.20015 0.90835 0.80045 0.0
O257 O 0.21973 0.87519 0.78459 0.0
O258 O 0.21006 0.80554 0.7966 0.0
C259 C 0.21481 0.90638 0.78936 0.0
H260 H 0.09983 0.82582 0.78544 0.0
H261 H 0.27932 0.88587 0.83492 0.0
H262 H 0.18195 0.80092 0.84591 0.0
H263 H 0.15022 0.90608 0.83979 0.0
Co264 Co 0.45256 0.65621 0.55041 0.0
C265 C 0.40012 0.63507 0.5348 0.0
C266 C 0.39491 0.68494 0.54448 0.0
C267 C 0.36881 0.67467 0.53913 0.0
N268 N 0.4147 0.66009 0.54185 0.0
N269 N 0.37207 0.64326 0.53303 0.0
H270 H 0.40916 0.61021 0.53175 0.0
H271 H 0.39873 0.70798 0.55058 0.0
C272 C 0.48065 0.72764 0.5534 0.0
O273 O 0.492 0.7175 0.56484 0.0
N274 N 0.48973 0.64998 0.55902 0.0
C275 C 0.4946 0.63679 0.5714 0.0
C276 C 0.52361 0.63364 0.57333 0.0
C277 C 0.51605 0.65358 0.55344 0.0
N278 N 0.53708 0.64417 0.56206 0.0
C279 C 0.42102 0.62993 0.57273 0.0
C280 C 0.43112 0.68405 0.59056 0.0
C281 C 0.42195 0.65156 0.59568 0.0
C282 C 0.41534 0.62507 0.5864 0.0
C283 C 0.43663 0.68779 0.5767 0.0
N284 N 0.43392 0.65982 0.56815 0.0
H285 H 0.41679 0.60841 0.56597 0.0
H286 H 0.44388 0.71278 0.5731 0.0
H287 H 0.4784 0.62899 0.57852 0.0
H288 H 0.51972 0.66313 0.54334 0.0
O289 O 0.45144 0.60575 0.54841 0.0
O290 O 0.46965 0.64283 0.53355 0.0
O291 O 0.46069 0.70905 0.54787 0.0
C292 C 0.46525 0.6106 0.5372 0.0
H293 H 0.34875 0.68878 0.54001 0.0
H294 H 0.53401 0.62338 0.58223 0.0
H295 H 0.43551 0.7058 0.59727 0.0
H296 H 0.40692 0.60008 0.58974 0.0
Co297 Co 0.83244 0.60337 0.54745 0.0
C298 C 0.88871 0.6256 0.53625 0.0
C299 C 0.88033 0.57181 0.5314 0.0
C300 C 0.90585 0.58189 0.52538 0.0
N301 N 0.86951 0.59927 0.53825 0.0
N302 N 0.91109 0.61592 0.52835 0.0
H303 H 0.88619 0.65167 0.54036 0.0
H304 H 0.87009 0.54649 0.53045 0.0
C305 C 0.80342 0.53286 0.55068 0.0
O306 O 0.79276 0.54328 0.56223 0.0
N307 N 0.79585 0.61035 0.55658 0.0
C308 C 0.79216 0.62392 0.56901 0.0
C309 C 0.76371 0.63149 0.57089 0.0
C310 C 0.76926 0.61013 0.55105 0.0
N311 N 0.74937 0.62311 0.55959 0.0
C312 C 0.86453 0.62919 0.56988 0.0
C313 C 0.85637 0.57298 0.58688 0.0
C314 C 0.86566 0.60498 0.59246 0.0
C315 C 0.87115 0.63267 0.58355 0.0
C316 C 0.85021 0.57052 0.57305 0.0
N317 N 0.85209 0.59933 0.56493 0.0
H318 H 0.86736 0.65181 0.56354 0.0
H319 H 0.84306 0.54575 0.56913 0.0
H320 H 0.80888 0.62972 0.57614 0.0
H321 H 0.76479 0.60243 0.54078 0.0
O322 O 0.83381 0.6538 0.54533 0.0
O323 O 0.81474 0.61656 0.53075 0.0
O324 O 0.82356 0.55078 0.54503 0.0
C325 C 0.81982 0.64882 0.53417 0.0
H326 H 0.91892 0.56562 0.5189 0.0
H327 H 0.75439 0.64323 0.57979 0.0
H328 H 0.85313 0.55021 0.59319 0.0
H329 H 0.87865 0.65783 0.58719 0.0
Co330 Co 0.45174 0.60428 0.74175 0.0
C331 C 0.39557 0.62709 0.75325 0.0
C332 C 0.40101 0.57169 0.75563 0.0
C333 C 0.37518 0.58165 0.76139 0.0
N334 N 0.41397 0.60024 0.7505 0.0
N335 N 0.37168 0.61667 0.75992 0.0
H336 H 0.39978 0.65409 0.75068 0.0
H337 H 0.40967 0.54543 0.7554 0.0
C338 C 0.46172 0.52163 0.7442 0.0
O339 O 0.44195 0.50975 0.73597 0.0
N340 N 0.48855 0.61036 0.7331 0.0
C341 C 0.49282 0.62778 0.72148 0.0
C342 C 0.52161 0.62856 0.71877 0.0
C343 C 0.51499 0.60182 0.73759 0.0
N344 N 0.53548 0.61238 0.7289 0.0
C345 C 0.41534 0.61688 0.71924 0.0
C346 C 0.44268 0.57173 0.70168 0.0
C347 C 0.42452 0.59765 0.69626 0.0
C348 C 0.40987 0.6194 0.70541 0.0
C349 C 0.44781 0.57036 0.71559 0.0
N350 N 0.43502 0.59367 0.72415 0.0
H351 H 0.40572 0.63601 0.72586 0.0
H352 H 0.46445 0.5531 0.7192 0.0
H353 H 0.47612 0.63977 0.71549 0.0
H354 H 0.51917 0.5887 0.74703 0.0
O355 O 0.4482 0.65509 0.74169 0.0
O356 O 0.46727 0.62286 0.75796 0.0
O357 O 0.46423 0.55457 0.74636 0.0
C358 C 0.46155 0.65371 0.75323 0.0
H359 H 0.3602 0.5642 0.76628 0.0
H360 H 0.53176 0.64117 0.71027 0.0
H361 H 0.45415 0.55373 0.6952 0.0
H362 H 0.39585 0.6401 0.70193 0.0
Co363 Co 0.82994 0.65907 0.73802 0.0
C364 C 0.88505 0.6361 0.75052 0.0
C365 C 0.87932 0.69156 0.75278 0.0
C366 C 0.90476 0.68176 0.75894 0.0
N367 N 0.86679 0.66286 0.74751 0.0
N368 N 0.90844 0.64673 0.75755 0.0
H369 H 0.88106 0.60907 0.74785 0.0
H370 H 0.87063 0.71782 0.7523 0.0
C371 C 0.80012 0.72964 0.7354 0.0
O372 O 0.78965 0.71946 0.72378 0.0
N373 N 0.79375 0.6524 0.72861 0.0
C374 C 0.79014 0.64064 0.71591 0.0
C375 C 0.76144 0.63556 0.71358 0.0
C376 C 0.76705 0.65317 0.73395 0.0
N377 N 0.74699 0.64332 0.72492 0.0
C378 C 0.86461 0.63538 0.71631 0.0
C379 C 0.85295 0.68867 0.69838 0.0
C380 C 0.86403 0.65689 0.69334 0.0
C381 C 0.87154 0.63106 0.70273 0.0
C382 C 0.84664 0.69209 0.71219 0.0
N383 N 0.85015 0.66436 0.72075 0.0
H384 H 0.86912 0.61398 0.72306 0.0
H385 H 0.83784 0.71645 0.7157 0.0
H386 H 0.80705 0.63474 0.70887 0.0
H387 H 0.76241 0.66057 0.74423 0.0
O388 O 0.83162 0.60847 0.73951 0.0
O389 O 0.81179 0.64424 0.75441 0.0
O390 O 0.82046 0.71168 0.74095 0.0
C391 C 0.81724 0.61234 0.75061 0.0
H392 H 0.9194 0.69937 0.764 0.0
H393 H 0.75199 0.62546 0.70441 0.0
H394 H 0.84765 0.71004 0.69167 0.0
H395 H 0.88158 0.6068 0.69957 0.0
Co396 Co 0.58225 0.35579 0.48705 0.0
C397 C 0.63753 0.37834 0.49955 0.0
C398 C 0.6308 0.32321 0.50225 0.0
C399 C 0.65613 0.33276 0.50855 0.0
N400 N 0.61896 0.35186 0.49662 0.0
N401 N 0.66041 0.36758 0.50689 0.0
H402 H 0.63408 0.40531 0.49664 0.0
H403 H 0.62168 0.29716 0.50195 0.0
C404 C 0.55084 0.28571 0.48615 0.0
O405 O 0.53969 0.29455 0.47452 0.0
N406 N 0.54625 0.36239 0.47754 0.0
C407 C 0.54293 0.37305 0.4647 0.0
C408 C 0.51441 0.37932 0.46233 0.0
C409 C 0.51961 0.36342 0.48292 0.0
N410 N 0.4998 0.37337 0.47378 0.0
C411 C 0.61757 0.3741 0.46484 0.0
C412 C 0.60343 0.31908 0.44809 0.0
C413 C 0.61579 0.34928 0.44236 0.0
C414 C 0.6243 0.37611 0.45116 0.0
C415 C 0.59726 0.31805 0.46195 0.0
N416 N 0.60211 0.34668 0.46993 0.0
H417 H 0.62293 0.39621 0.47113 0.0
H418 H 0.58762 0.29478 0.46597 0.0
H419 H 0.56 0.37758 0.4576 0.0
H420 H 0.51489 0.35734 0.49331 0.0
O421 O 0.58537 0.40635 0.48716 0.0
O422 O 0.56487 0.37453 0.5031 0.0
O423 O 0.57138 0.30424 0.49125 0.0
C424 C 0.57119 0.40534 0.49841 0.0
H425 H 0.67025 0.31518 0.51393 0.0
H426 H 0.50527 0.38907 0.45305 0.0
H427 H 0.59774 0.29682 0.44186 0.0
H428 H 0.63429 0.3998 0.44743 0.0
Co429 Co 0.20385 0.40876 0.48899 0.0
C430 C 0.14996 0.38852 0.50336 0.0
C431 C 0.14605 0.43964 0.49467 0.0
C432 C 0.11968 0.42974 0.49992 0.0
N433 N 0.16515 0.41362 0.49673 0.0
N434 N 0.1222 0.39748 0.5054 0.0
H435 H 0.1584 0.36318 0.50611 0.0
H436 H 0.15054 0.46345 0.48917 0.0
C437 C 0.21745 0.48911 0.49119 0.0
O438 O 0.2035 0.49856 0.48032 0.0
N439 N 0.24176 0.40211 0.48146 0.0
C440 C 0.24758 0.38239 0.47052 0.0
C441 C 0.27658 0.38265 0.46832 0.0
C442 C 0.26746 0.41309 0.48611 0.0
N443 N 0.28895 0.40181 0.4781 0.0
C444 C 0.16705 0.40432 0.46606 0.0
C445 C 0.20367 0.43765 0.44839 0.0
C446 C 0.18161 0.41675 0.44311 0.0
C447 C 0.1623 0.40145 0.45216 0.0
C448 C 0.20734 0.44048 0.46235 0.0
N449 N 0.19 0.42252 0.47106 0.0
H450 H 0.15385 0.38887 0.47273 0.0
H451 H 0.22635 0.45359 0.46598 0.0
H452 H 0.23171 0.36874 0.46455 0.0
H453 H 0.27039 0.42875 0.49509 0.0
O454 O 0.19833 0.3587 0.48711 0.0
O455 O 0.21664 0.38575 0.50498 0.0
O456 O 0.21625 0.45744 0.49542 0.0
C457 C 0.21066 0.35653 0.49885 0.0
H458 H 0.10009 0.44493 0.49954 0.0
H459 H 0.28788 0.36912 0.46034 0.0
H460 H 0.21911 0.44995 0.44177 0.0
H461 H 0.1451 0.38482 0.44855 0.0
Co462 Co 0.58273 0.40865 0.2967 0.0
C463 C 0.63981 0.38811 0.28584 0.0
C464 C 0.62855 0.44 0.27949 0.0
C465 C 0.65402 0.43027 0.27333 0.0
N466 N 0.61958 0.41353 0.28738 0.0
N467 N 0.66114 0.39746 0.27728 0.0
H468 H 0.63822 0.36244 0.29037 0.0
H469 H 0.61698 0.46422 0.27789 0.0
C470 C 0.55367 0.47859 0.30126 0.0
O471 O 0.54454 0.46743 0.31299 0.0
N472 N 0.54631 0.40103 0.30588 0.0
C473 C 0.54245 0.38887 0.3185 0.0
C474 C 0.51366 0.38515 0.32089 0.0
C475 C 0.51956 0.40343 0.30063 0.0
N476 N 0.49933 0.39423 0.30967 0.0
C477 C 0.61473 0.3802 0.31861 0.0
C478 C 0.6075 0.43471 0.33657 0.0
C479 C 0.61592 0.40174 0.34159 0.0
C480 C 0.62126 0.3751 0.33218 0.0
C481 C 0.60154 0.43887 0.32275 0.0
N482 N 0.60278 0.41084 0.31416 0.0
H483 H 0.61729 0.35817 0.31193 0.0
H484 H 0.59484 0.46422 0.31924 0.0
H485 H 0.55912 0.38241 0.32558 0.0
H486 H 0.51496 0.41199 0.29049 0.0
O487 O 0.58408 0.35851 0.29378 0.0
O488 O 0.56457 0.39704 0.2799 0.0
O489 O 0.57373 0.46154 0.29514 0.0
C490 C 0.56975 0.36449 0.2828 0.0
H491 H 0.66605 0.44613 0.26631 0.0
H492 H 0.50396 0.37558 0.33007 0.0
H493 H 0.60401 0.45662 0.34331 0.0
H494 H 0.62918 0.34971 0.33535 0.0
Co495 Co 0.20223 0.3581 0.29851 0.0
C496 C 0.14487 0.37781 0.2874 0.0
C497 C 0.15213 0.32269 0.2851 0.0
C498 C 0.12614 0.33131 0.2792 0.0
N499 N 0.16408 0.35193 0.29028 0.0
N500 N 0.12153 0.36613 0.28061 0.0
H501 H 0.14817 0.40509 0.28987 0.0
H502 H 0.16171 0.29692 0.28528 0.0
C503 C 0.21542 0.27778 0.29521 0.0
O504 O 0.19727 0.26691 0.30439 0.0
N505 N 0.23958 0.36628 0.30646 0.0
C506 C 0.24429 0.38457 0.31786 0.0
C507 C 0.27327 0.38673 0.32003 0.0
C508 C 0.26586 0.35858 0.30154 0.0
N509 N 0.28676 0.37052 0.30978 0.0
C510 C 0.16533 0.35995 0.3214 0.0
C511 C 0.20209 0.32444 0.33841 0.0
C512 C 0.18032 0.34516 0.34408 0.0
C513 C 0.16085 0.36144 0.33534 0.0
C514 C 0.20546 0.32301 0.3244 0.0
N515 N 0.18823 0.34236 0.31609 0.0
H516 H 0.15203 0.37605 0.31502 0.0
H517 H 0.22417 0.30988 0.32041 0.0
H518 H 0.2277 0.39589 0.32411 0.0
H519 H 0.26961 0.34489 0.29217 0.0
O520 O 0.19509 0.4078 0.30067 0.0
O521 O 0.21458 0.38234 0.28274 0.0
O522 O 0.21684 0.31037 0.29218 0.0
C523 C 0.2071 0.411 0.28889 0.0
H524 H 0.1119 0.31315 0.27416 0.0
H525 H 0.28373 0.40008 0.3283 0.0
H526 H 0.21754 0.31127 0.34478 0.0
H527 H 0.1438 0.37784 0.33926 0.0
Co528 Co 0.95076 0.16198 0.54824 0.0
C529 C 0.89405 0.13991 0.53727 0.0
C530 C 0.90481 0.19158 0.53052 0.0
C531 C 0.87955 0.18105 0.52435 0.0
N532 N 0.91399 0.16575 0.53868 0.0
N533 N 0.87275 0.14836 0.52855 0.0
H534 H 0.89579 0.11455 0.54203 0.0
H535 H 0.91608 0.21592 0.52876 0.0
C536 C 0.98136 0.23205 0.55025 0.0
O537 O 0.99209 0.22188 0.56181 0.0
N538 N 0.98696 0.155 0.55769 0.0
C539 C 0.99002 0.14178 0.5702 0.0
C540 C 0.01831 0.1337 0.57234 0.0
C541 C 1.0137 0.1543 0.55235 0.0
N542 N 0.03317 0.14134 0.56111 0.0
C543 C 0.91632 0.14143 0.57062 0.0
C544 C 0.9289 0.19707 0.58736 0.0
C545 C 0.91718 0.16652 0.59302 0.0
C546 C 0.90938 0.13934 0.58428 0.0
C547 C 0.93483 0.19844 0.57349 0.0
N548 N 0.93087 0.16959 0.5655 0.0
H549 H 0.91193 0.11885 0.56444 0.0
H550 H 0.94347 0.22227 0.56946 0.0
H551 H 0.97286 0.13645 0.57716 0.0
H552 H 0.01855 0.16139 0.54207 0.0
O553 O 0.9481 0.11157 0.54754 0.0
O554 O 0.96842 0.14484 0.53197 0.0
O555 O 0.96102 0.21403 0.54473 0.0
C556 C 0.96248 0.11363 0.53638 0.0
H557 H 0.86744 0.19628 0.51714 0.0
H558 H 0.02717 0.12214 0.58137 0.0
H559 H 0.93415 0.21939 0.59365 0.0
H560 H 0.89991 0.1154 0.58809 0.0
Co561 Co 0.32975 0.10545 0.54967 0.0
C562 C 0.38464 0.13037 0.53732 0.0
C563 C 0.3804 0.0746 0.53545 0.0
C564 C 0.40573 0.08501 0.52938 0.0
N565 N 0.36696 0.10307 0.5404 0.0
N566 N 0.40849 0.12023 0.53049 0.0
H567 H 0.37992 0.15736 0.53978 0.0
H568 H 0.37243 0.04804 0.53609 0.0
C569 C 0.30231 0.03343 0.55215 0.0
O570 O 0.2911 0.04258 0.56375 0.0
N571 N 0.2931 0.11053 0.55887 0.0
C572 C 0.28897 0.12282 0.57145 0.0
C573 C 0.26008 0.12592 0.57378 0.0
C574 C 0.26643 0.1074 0.55358 0.0
N575 N 0.2459 0.11624 0.56257 0.0
C576 C 0.36291 0.13049 0.57183 0.0
C577 C 0.35341 0.07517 0.58912 0.0
C578 C 0.36385 0.10684 0.59447 0.0
C579 C 0.37004 0.134 0.58545 0.0
C580 C 0.34716 0.07248 0.57531 0.0
N581 N 0.34964 0.10097 0.56706 0.0
H582 H 0.3663 0.15271 0.56533 0.0
H583 H 0.33948 0.04785 0.57154 0.0
H584 H 0.30561 0.13022 0.57844 0.0
H585 H 0.26217 0.09873 0.54341 0.0
O586 O 0.32999 0.15602 0.54808 0.0
O587 O 0.31161 0.11915 0.53315 0.0
O588 O 0.32195 0.05265 0.54673 0.0
C589 C 0.31604 0.15131 0.53688 0.0
H590 H 0.42096 0.06766 0.52457 0.0
H591 H 0.25028 0.13572 0.58291 0.0
H592 H 0.34944 0.0529 0.59561 0.0
H593 H 0.37855 0.15877 0.589 0.0
Co594 Co 0.95316 0.10822 0.73761 0.0
C595 C 0.89761 0.13066 0.74982 0.0
C596 C 0.90417 0.07547 0.75246 0.0
C597 C 0.8787 0.08506 0.75862 0.0
N598 N 0.9162 0.10412 0.74695 0.0
N599 N 0.8745 0.11994 0.75702 0.0
H600 H 0.90125 0.15762 0.74697 0.0
H601 H 0.91329 0.0494 0.7522 0.0
C602 C 0.98281 0.0378 0.73458 0.0
O603 O 0.99281 0.04792 0.72287 0.0
N604 N 0.98949 0.11512 0.72837 0.0
C605 C 0.99326 0.12819 0.71589 0.0
C606 C 0.02208 0.13202 0.71352 0.0
C607 C 1.01623 0.11229 0.73357 0.0
N608 N 0.03651 0.12201 0.72462 0.0
C609 C 0.9194 0.1326 0.71558 0.0
C610 C 0.92979 0.07775 0.69812 0.0
C611 C 0.91888 0.10928 0.69288 0.0
C612 C 0.91221 0.13614 0.70198 0.0
C613 C 0.93607 0.07502 0.71192 0.0
N614 N 0.9332 0.10337 0.72025 0.0
H615 H 0.91563 0.15467 0.72214 0.0
H616 H 0.944 0.05046 0.71564 0.0
H617 H 0.97642 0.13544 0.709 0.0
H618 H 0.02073 0.10297 0.74362 0.0
O619 O 0.95145 0.15874 0.73942 0.0
O620 O 0.97112 0.12236 0.75413 0.0
O621 O 0.96257 0.05562 0.74026 0.0
C622 C 0.9657 0.15439 0.75054 0.0
H623 H 0.86445 0.06743 0.76389 0.0
H624 H 0.03166 0.14235 0.70444 0.0
H625 H 0.93409 0.05567 0.69156 0.0
H626 H 0.90331 0.16077 0.69851 0.0
Co627 Co 0.33199 0.16111 0.73932 0.0
C628 C 0.38743 0.13841 0.75155 0.0
C629 C 0.38089 0.19347 0.75458 0.0
C630 C 0.4064 0.18361 0.76069 0.0
N631 N 0.36886 0.16505 0.74883 0.0
N632 N 0.41052 0.14881 0.75885 0.0
H633 H 0.38422 0.11172 0.74822 0.0
H634 H 0.37171 0.21951 0.75456 0.0
C635 C 0.30135 0.23146 0.73752 0.0
O636 O 0.28985 0.22167 0.72607 0.0
N637 N 0.29585 0.15415 0.72987 0.0
C638 C 0.29281 0.14056 0.7174 0.0
C639 C 0.26446 0.13298 0.7152 0.0
C640 C 0.26906 0.15404 0.73515 0.0
N641 N 0.24956 0.14123 0.72637 0.0
C642 C 0.36696 0.13992 0.7172 0.0
C643 C 0.35312 0.19403 0.69998 0.0
C644 C 0.36536 0.16343 0.69455 0.0
C645 C 0.37379 0.13706 0.70352 0.0
C646 C 0.34723 0.19614 0.71383 0.0
N647 N 0.35189 0.16801 0.72206 0.0
H648 H 0.37185 0.11801 0.72365 0.0
H649 H 0.33787 0.21984 0.71764 0.0
H650 H 0.31001 0.13467 0.71052 0.0
H651 H 0.26417 0.1616 0.74539 0.0
O652 O 0.33437 0.11042 0.74038 0.0
O653 O 0.31421 0.14509 0.75558 0.0
O654 O 0.32196 0.21327 0.74272 0.0
C655 C 0.32004 0.11349 0.75155 0.0
H656 H 0.42043 0.20077 0.76634 0.0
H657 H 0.25558 0.12141 0.70617 0.0
H658 H 0.34734 0.21575 0.69352 0.0
H659 H 0.3837 0.11315 0.6999 0.0
Co660 Co 0.08052 0.85593 0.48978 0.0
C661 C 0.1357 0.87872 0.50239 0.0
C662 C 0.13288 0.82266 0.50189 0.0
C663 C 0.15862 0.83226 0.50785 0.0
N664 N 0.11833 0.85185 0.49848 0.0
N665 N 0.16047 0.86765 0.50813 0.0
H666 H 0.13036 0.90609 0.50118 0.0
H667 H 0.12552 0.79617 0.50018 0.0
C668 C 0.06947 0.77417 0.49146 0.0
O669 O 0.08665 0.76406 0.48174 0.0
N670 N 0.04342 0.86193 0.48134 0.0
C671 C 0.03855 0.88031 0.46998 0.0
C672 C 1.00958 0.88171 0.46771 0.0
C673 C 0.01722 0.85356 0.48614 0.0
N674 N 0.99627 0.86508 0.47788 0.0
C675 C 0.11898 0.8648 0.46777 0.0
C676 C 0.08721 0.82726 0.44923 0.0
C677 C 0.10805 0.85081 0.44442 0.0
C678 C 0.12503 0.86818 0.45403 0.0
C679 C 0.08209 0.82424 0.4631 0.0
N680 N 0.0969 0.8443 0.47217 0.0
H681 H 0.13044 0.88131 0.47476 0.0
H682 H 0.06378 0.8091 0.46634 0.0
H683 H 0.05497 0.89264 0.46394 0.0
H684 H 1.01356 0.84013 0.49557 0.0
O685 O 0.08448 0.90662 0.48912 0.0
O686 O 0.06535 0.87587 0.50581 0.0
O687 O 0.06824 0.80646 0.49494 0.0
C688 C 0.07091 0.90628 0.5006 0.0
H689 H 0.17486 0.81439 0.51151 0.0
H690 H 0.99895 0.8952 0.45953 0.0
H691 H 0.07324 0.81335 0.44236 0.0
H692 H 0.14198 0.88585 0.45099 0.0
Co693 Co 0.70105 0.90574 0.4905 0.0
C694 C 0.64515 0.88423 0.5027 0.0
C695 C 0.65194 0.93931 0.50539 0.0
C696 C 0.6265 0.92987 0.51163 0.0
N697 N 0.66381 0.91063 0.49975 0.0
N698 N 0.62217 0.89506 0.50996 0.0
H699 H 0.64854 0.8572 0.49988 0.0
H700 H 0.66114 0.96527 0.50525 0.0
C701 C 0.71345 0.98651 0.49413 0.0
O702 O 0.6935 0.99783 0.48588 0.0
N703 N 0.73742 0.89874 0.48152 0.0
C704 C 0.74098 0.88215 0.46965 0.0
C705 C 0.76975 0.87879 0.46713 0.0
C706 C 0.76415 0.90411 0.48633 0.0
N707 N 0.78425 0.89243 0.47763 0.0
C708 C 0.66206 0.90194 0.46856 0.0
C709 C 0.69427 0.94145 0.45088 0.0
C710 C 0.67324 0.91885 0.44558 0.0
C711 C 0.65609 0.90037 0.45476 0.0
C712 C 0.69949 0.94238 0.4648 0.0
N713 N 0.68446 0.92128 0.4734 0.0
H714 H 0.65052 0.88452 0.47516 0.0
H715 H 0.71793 0.95678 0.46838 0.0
H716 H 0.72377 0.87219 0.46343 0.0
H717 H 0.76876 0.91546 0.49607 0.0
O718 O 0.69468 0.85588 0.4884 0.0
O719 O 0.71581 0.88162 0.50586 0.0
O720 O 0.71585 0.95367 0.49659 0.0
C721 C 0.70821 0.85286 0.49982 0.0
H722 H 0.6124 0.94749 0.51702 0.0
H723 H 0.77934 0.86589 0.45853 0.0
H724 H 0.70783 0.95673 0.44428 0.0
H725 H 0.63972 0.88238 0.4513 0.0
Co726 Co 0.08065 0.90418 0.29933 0.0
C727 C 0.13644 0.8831 0.28681 0.0
C728 C 0.1316 0.93894 0.28646 0.0
C729 C 0.15738 0.93006 0.2804 0.0
N730 N 0.11827 0.90942 0.2905 0.0
N731 N 0.1605 0.8948 0.28062 0.0
H732 H 0.13214 0.85563 0.28846 0.0
H733 H 0.12332 0.96518 0.28776 0.0
C734 C 0.0676 0.98468 0.2965 0.0
O735 O 0.08533 0.99528 0.30592 0.0
N736 N 0.04378 0.89698 0.30788 0.0
C737 C 0.03965 0.87866 0.3193 0.0
C738 C 1.01082 0.87709 0.32192 0.0
C739 C 0.01727 0.90525 0.3034 0.0
N740 N 0.99682 0.89367 0.31194 0.0
C741 C 0.11979 0.9015 0.3213 0.0
C742 C 0.0853 0.93651 0.33948 0.0
C743 C 0.1075 0.91521 0.34451 0.0
C744 C 0.12583 0.89935 0.33507 0.0
C745 C 0.08026 0.93846 0.32557 0.0
N746 N 0.0964 0.91938 0.31669 0.0
H747 H 0.13242 0.88579 0.31448 0.0
H748 H 0.06115 0.95182 0.32215 0.0
H749 H 0.05652 0.86684 0.32524 0.0
H750 H 1.01302 0.919 0.2941 0.0
O751 O 0.08712 0.85433 0.30132 0.0
O752 O 0.06663 0.88027 0.28376 0.0
O753 O 0.06645 0.95223 0.2932 0.0
C754 C 0.07408 0.85144 0.28976 0.0
H755 H 0.1727 0.94836 0.27624 0.0
H756 H 1.00078 0.86378 0.3303 0.0
H757 H 0.07034 0.94929 0.34621 0.0
H758 H 0.14387 0.88356 0.33828 0.0
Co759 Co 0.70124 0.85402 0.30124 0.0
C760 C 0.64712 0.87963 0.28836 0.0
C761 C 0.65023 0.82365 0.28712 0.0
C762 C 0.62494 0.83434 0.28105 0.0
N763 N 0.66431 0.85209 0.2917 0.0
N764 N 0.62291 0.86969 0.28178 0.0
H765 H 0.65198 0.90657 0.29085 0.0
H766 H 0.65769 0.79692 0.28806 0.0
C767 C 0.7292 0.78217 0.30295 0.0
O768 O 0.74018 0.7908 0.31465 0.0
N769 N 0.73761 0.85863 0.31072 0.0
C770 C 0.74142 0.8691 0.32357 0.0
C771 C 0.77021 0.87296 0.326 0.0
C772 C 0.76432 0.85745 0.30539 0.0
N773 N 0.78456 0.86575 0.31458 0.0
C774 C 0.66696 0.87671 0.32323 0.0
C775 C 0.67819 0.822 0.34055 0.0
C776 C 0.66753 0.85359 0.34596 0.0
C777 C 0.6604 0.88033 0.33688 0.0
C778 C 0.68416 0.81935 0.3267 0.0
N779 N 0.68093 0.84773 0.31844 0.0
H780 H 0.66272 0.89869 0.31671 0.0
H781 H 0.69235 0.79498 0.3229 0.0
H782 H 0.72461 0.87498 0.33067 0.0
H783 H 0.76885 0.85089 0.29502 0.0
O784 O 0.70062 0.90453 0.30065 0.0
O785 O 0.71957 0.87013 0.28501 0.0
O786 O 0.7096 0.80161 0.29758 0.0
C787 C 0.71488 0.90164 0.28948 0.0
H788 H 0.60948 0.81719 0.27629 0.0
H789 H 0.77981 0.88188 0.33531 0.0
H790 H 0.68271 0.79986 0.34702 0.0
H791 H 0.65171 0.90506 0.34036 0.0
Co792 Co 0.95261 0.65967 0.05097 0.0
C793 C 0.90104 0.63519 0.03552 0.0
C794 C 0.89578 0.68777 0.04273 0.0
C795 C 0.87027 0.67674 0.03697 0.0
N796 N 0.91521 0.66171 0.04186 0.0
N797 N 0.87354 0.64356 0.03244 0.0
H798 H 0.91002 0.60947 0.03377 0.0
H799 H 0.89947 0.71258 0.04773 0.0
C800 C 0.96673 0.72257 0.03529 0.0
O801 O 0.95796 0.70412 0.02491 0.0
N802 N 0.98921 0.65635 0.06008 0.0
C803 C 0.99372 0.64199 0.07229 0.0
C804 C 0.02267 0.64067 0.07467 0.0
C805 C 1.01559 0.66256 0.05501 0.0
N806 N 0.03636 0.65338 0.0638 0.0
C807 C 0.91556 0.64528 0.07292 0.0
C808 C 0.9381 0.69457 0.09036 0.0
C809 C 0.92149 0.66706 0.09575 0.0
C810 C 0.9091 0.64326 0.08664 0.0
C811 C 0.94413 0.69558 0.07651 0.0
N812 N 0.93416 0.6699 0.06814 0.0
H813 H 0.90755 0.62505 0.06629 0.0
H814 H 0.95903 0.71499 0.07279 0.0
H815 H 0.97719 0.63171 0.0788 0.0
H816 H 0.0195 0.67248 0.04498 0.0
O817 O 0.95047 0.60918 0.05166 0.0
O818 O 0.97015 0.63993 0.03514 0.0
O819 O 0.96186 0.71089 0.04717 0.0
C820 C 0.96495 0.6095 0.04048 0.0
H821 H 0.85068 0.69189 0.03636 0.0
H822 H 0.03297 0.62941 0.08342 0.0
H823 H 0.94758 0.71421 0.09685 0.0
H824 H 0.89619 0.6215 0.09011 0.0
Co825 Co 0.3308 0.60646 0.04856 0.0
C826 C 0.38619 0.62859 0.03613 0.0
C827 C 0.3802 0.5733 0.03369 0.0
C828 C 0.40574 0.583 0.02759 0.0
N829 N 0.36782 0.60195 0.03912 0.0
N830 N 0.40952 0.61794 0.02908 0.0
H831 H 0.38279 0.65546 0.03917 0.0
H832 H 0.37132 0.54717 0.03391 0.0
C833 C 0.32047 0.52432 0.04587 0.0
O834 O 0.34115 0.51291 0.05369 0.0
N835 N 0.29464 0.61302 0.05781 0.0
C836 C 0.29133 0.62983 0.06965 0.0
C837 C 0.26263 0.63279 0.07239 0.0
C838 C 0.26778 0.60711 0.05324 0.0
N839 N 0.24788 0.61869 0.06207 0.0
C840 C 0.36943 0.61694 0.07032 0.0
C841 C 0.34176 0.57379 0.08846 0.0
C842 C 0.36093 0.59917 0.09342 0.0
C843 C 0.37578 0.61972 0.08404 0.0
C844 C 0.33583 0.57201 0.0746 0.0
N845 N 0.34867 0.5946 0.06578 0.0
H846 H 0.37926 0.63535 0.06351 0.0
H847 H 0.31844 0.55544 0.07127 0.0
H848 H 0.3086 0.64039 0.07568 0.0
H849 H 0.26291 0.59554 0.04356 0.0
O850 O 0.33525 0.65715 0.04909 0.0
O851 O 0.3144 0.6265 0.03281 0.0
O852 O 0.31735 0.55719 0.04375 0.0
C853 C 0.32096 0.65689 0.03781 0.0
H854 H 0.42005 0.56559 0.02221 0.0
H855 H 0.25323 0.64585 0.081 0.0
H856 H 0.32959 0.5575 0.0953 0.0
H857 H 0.39111 0.63926 0.08733 0.0
Co858 Co 0.95087 0.60211 0.24052 0.0
C859 C 0.89609 0.6265 0.25301 0.0
C860 C 0.90049 0.57073 0.2547 0.0
C861 C 0.87499 0.58092 0.26068 0.0
N862 N 0.9139 0.59935 0.24991 0.0
N863 N 0.87213 0.61613 0.25965 0.0
H864 H 0.90074 0.65354 0.25062 0.0
H865 H 0.90852 0.5442 0.25395 0.0
C866 C 0.97786 0.53025 0.23707 0.0
O867 O 0.98867 0.54002 0.22548 0.0
N868 N 0.98731 0.60748 0.23116 0.0
C869 C 0.99113 0.61937 0.21851 0.0
C870 C 0.01992 0.62267 0.21604 0.0
C871 C 1.0141 0.60485 0.23636 0.0
N872 N 0.03433 0.61362 0.22724 0.0
C873 C 0.91769 0.62961 0.21899 0.0
C874 C 0.92653 0.57624 0.20068 0.0
C875 C 0.91749 0.60916 0.19589 0.0
C876 C 0.91136 0.63519 0.20543 0.0
C877 C 0.93252 0.57169 0.21446 0.0
N878 N 0.93049 0.59929 0.22322 0.0
H879 H 0.91429 0.65102 0.2259 0.0
H880 H 0.93998 0.54652 0.2178 0.0
H881 H 0.97439 0.62648 0.21155 0.0
H882 H 0.01869 0.59685 0.24657 0.0
O883 O 0.95099 0.65249 0.24272 0.0
O884 O 0.96953 0.6145 0.25712 0.0
O885 O 0.95832 0.54911 0.24276 0.0
C886 C 0.9652 0.64694 0.25377 0.0
H887 H 0.85966 0.56343 0.26532 0.0
H888 H 0.02952 0.63241 0.20687 0.0
H889 H 0.93062 0.55483 0.19377 0.0
H890 H 0.90305 0.66048 0.20237 0.0
Co891 Co 0.32988 0.6595 0.23902 0.0
C892 C 0.38183 0.6344 0.25399 0.0
C893 C 0.38709 0.687 0.24686 0.0
C894 C 0.41279 0.67564 0.25233 0.0
N895 N 0.36751 0.66118 0.2479 0.0
N896 N 0.40954 0.64244 0.25681 0.0
H897 H 0.37277 0.60872 0.25573 0.0
H898 H 0.38339 0.71183 0.24191 0.0
C899 C 0.30416 0.73207 0.23614 0.0
O900 O 0.29321 0.72304 0.22447 0.0
N901 N 0.29285 0.65548 0.23004 0.0
C902 C 0.28817 0.64462 0.21729 0.0
C903 C 0.25921 0.64232 0.21511 0.0
C904 C 0.26638 0.65855 0.23555 0.0
N905 N 0.24555 0.65097 0.22656 0.0
C906 C 0.36124 0.63158 0.21695 0.0
C907 C 0.35413 0.68646 0.1992 0.0
C908 C 0.36213 0.65345 0.19407 0.0
C909 C 0.36726 0.62649 0.20332 0.0
C910 C 0.34822 0.69041 0.21302 0.0
N911 N 0.34942 0.6622 0.2215 0.0
H912 H 0.36428 0.60974 0.22368 0.0
H913 H 0.3417 0.71574 0.21664 0.0
H914 H 0.30441 0.63764 0.21006 0.0
H915 H 0.26244 0.66599 0.24589 0.0
O916 O 0.32892 0.60906 0.24093 0.0
O917 O 0.31177 0.6471 0.25574 0.0
O918 O 0.32352 0.71259 0.24166 0.0
C919 C 0.3151 0.61466 0.25209 0.0
H920 H 0.4325 0.69057 0.25275 0.0
H921 H 0.24896 0.63352 0.20593 0.0
H922 H 0.3509 0.70851 0.19252 0.0
H923 H 0.37475 0.60103 0.19998 0.0
Co924 Co 0.08244 0.35611 0.99066 0.0
C925 C 0.1401 0.37484 1.00123 0.0
C926 C 0.12757 0.32382 1.00804 0.0
C927 C 0.15309 0.33313 1.01425 0.0
N928 N 0.11936 0.35 0.99983 0.0
N929 N 0.16099 0.36543 1.01003 0.0
H930 H 0.1391 0.4003 0.9965 0.0
H931 H 0.11535 0.30023 1.00989 0.0
C932 C 0.0511 0.287 0.98715 0.0
O933 O 0.04055 0.29874 0.97577 0.0
N934 N 0.04604 0.36515 0.98166 0.0
C935 C 0.04254 0.37983 0.96943 0.0
C936 C 1.01414 0.38791 0.96762 0.0
C937 C 0.01947 0.36496 0.98719 0.0
N938 N 0.99966 0.37879 0.9788 0.0
C939 C 0.11539 0.38024 0.96825 0.0
C940 C 0.10428 0.32516 0.951 0.0
C941 C 0.1152 0.35649 0.94561 0.0
C942 C 0.12219 0.38348 0.9546 0.0
C943 C 0.09838 0.32271 0.96485 0.0
N944 N 0.10171 0.35114 0.97311 0.0
H945 H 0.11918 0.40259 0.97464 0.0
H946 H 0.0903 0.29832 0.96865 0.0
H947 H 0.05939 0.38582 0.96239 0.0
H948 H 1.01494 0.35631 0.99732 0.0
O949 O 0.08581 0.4064 0.99285 0.0
O950 O 0.06539 0.37029 1.0074 0.0
O951 O 0.07176 0.30381 0.99293 0.0
C952 C 0.07173 0.40223 1.00402 0.0
H953 H 0.16452 0.31747 0.02156 0.0
H954 H 1.00493 0.40023 0.95882 0.0
H955 H 0.09967 0.303 0.94453 0.0
H956 H 0.13097 0.40803 0.95102 0.0
Co957 Co 0.7028 0.40928 0.99118 0.0
C958 C 0.64625 0.38786 1.00235 0.0
C959 C 0.65536 0.44141 1.00732 0.0
C960 C 0.62982 0.43167 1.0134 0.0
N961 N 0.66572 0.4139 1.00034 0.0
N962 N 0.62409 0.3978 1.01035 0.0
H963 H 0.6485 0.3618 0.99821 0.0
H964 H 0.66598 0.46648 1.00834 0.0
C965 C 0.73139 0.4795 0.9868 0.0
O966 O 0.74071 0.46846 0.97507 0.0
N967 N 0.73943 0.40192 0.98216 0.0
C968 C 0.7436 0.38814 0.9698 0.0
C969 C 0.77249 0.38495 0.96752 0.0
C970 C 0.76609 0.40589 0.98737 0.0
N971 N 0.78662 0.39611 0.97853 0.0
C972 C 0.67124 0.38088 0.96908 0.0
C973 C 0.67792 0.43594 0.95139 0.0
C974 C 0.6696 0.40308 0.94622 0.0
C975 C 0.66465 0.37607 0.95548 0.0
C976 C 0.68407 0.43975 0.9652 0.0
N977 N 0.68307 0.4115 0.97365 0.0
H978 H 0.6687 0.35875 0.97569 0.0
H979 H 0.69051 0.46511 0.96884 0.0
H980 H 0.72705 0.38019 0.96288 0.0
H981 H 0.77037 0.41613 0.99733 0.0
O982 O 0.70157 0.35914 0.99394 0.0
O983 O 0.72071 0.39759 1.00803 0.0
O984 O 0.71148 0.46217 0.99288 0.0
C985 C 0.71558 0.36507 1.00502 0.0
H986 H 0.6171 0.44806 0.01999 0.0
H987 H 0.78235 0.37439 0.95853 0.0
H988 H 0.68108 0.45812 0.94477 0.0
H989 H 0.65684 0.35072 0.9522 0.0
Co990 Co 0.0806 0.40991 0.80116 0.0
C991 C 0.13566 0.38675 0.78852 0.0
C992 C 0.1302 0.44232 0.78659 0.0
C993 C 0.15561 0.43255 0.7804 0.0
N994 N 0.1175 0.41354 0.79167 0.0
N995 N 0.15912 0.39746 0.78158 0.0
H996 H 0.13161 0.35966 0.79103 0.0
H997 H 0.12169 0.46864 0.78726 0.0
C998 C 0.04931 0.48015 0.80188 0.0
O999 O 0.03719 0.47089 0.81324 0.0
N1000 N 0.04447 0.40329 0.8106 0.0
C1001 C 0.04146 0.39013 0.82311 0.0
C1002 C 1.01313 0.38236 0.82529 0.0
C1003 C 0.01775 0.40261 0.80525 0.0
N1004 N 0.99825 0.39003 0.81406 0.0
C1005 C 0.11685 0.39216 0.82312 0.0
C1006 C 0.10027 0.44497 0.84045 0.0
C1007 C 0.11408 0.41533 0.84581 0.0
C1008 C 0.12383 0.38973 0.83678 0.0
C1009 C 0.0942 0.44667 0.8266 0.0
N1010 N 0.1003 0.41899 0.81832 0.0
H1011 H 0.12292 0.37075 0.81661 0.0
H1012 H 0.08358 0.46957 0.82285 0.0
H1013 H 0.05874 0.38459 0.83001 0.0
H1014 H 1.01292 0.40962 0.79495 0.0
O1015 O 0.08366 0.35939 0.8011 0.0
O1016 O 0.06332 0.39127 0.78509 0.0
O1017 O 0.07004 0.46157 0.79696 0.0
C1018 C 0.06959 0.36046 0.78982 0.0
H1019 H 0.17039 0.45019 0.77546 0.0
H1020 H 1.00426 0.37106 0.83436 0.0
H1021 H 0.09341 0.46617 0.84695 0.0
H1022 H 0.13496 0.3666 0.84034 0.0
Co1023 Co 0.70219 0.3556 0.80055 0.0
C1024 C 0.64774 0.37897 0.78732 0.0
C1025 C 0.65154 0.32299 0.78692 0.0
C1026 C 0.62591 0.33253 0.78089 0.0
N1027 N 0.66541 0.35214 0.79095 0.0
N1028 N 0.62343 0.36788 0.7811 0.0
H1029 H 0.65223 0.40622 0.78943 0.0
H1030 H 0.65929 0.29651 0.78831 0.0
C1031 C 0.73221 0.28459 0.80175 0.0
O1032 O 0.74342 0.29328 0.8134 0.0
N1033 N 0.73825 0.36165 0.81011 0.0
C1034 C 0.74148 0.37418 0.82271 0.0
C1035 C 0.77017 0.37819 0.82535 0.0
C1036 C 0.76517 0.35953 0.80508 0.0
N1037 N 0.78508 0.36891 0.81429 0.0
C1038 C 0.66625 0.37538 0.82231 0.0
C1039 C 0.68087 0.32255 0.83995 0.0
C1040 C 0.66853 0.3534 0.84518 0.0
C1041 C 0.65957 0.37892 0.83595 0.0
C1042 C 0.687 0.31996 0.8261 0.0
N1043 N 0.68202 0.34764 0.81768 0.0
H1044 H 0.66054 0.39656 0.81565 0.0
H1045 H 0.69675 0.29633 0.82246 0.0
H1046 H 0.72428 0.38117 0.82946 0.0
H1047 H 0.77003 0.35097 0.79495 0.0
O1048 O 0.69975 0.40614 0.8003 0.0
O1049 O 0.7201 0.37353 0.7845 0.0
O1050 O 0.71215 0.30369 0.79656 0.0
C1051 C 0.7141 0.40458 0.78912 0.0
H1052 H 0.61044 0.3146 0.77658 0.0
H1053 H 0.77931 0.38827 0.83459 0.0
H1054 H 0.68728 0.30139 0.84654 0.0
H1055 H 0.64858 0.40239 0.83929 0.0
H1056 H 0.45587 0.04223 0.04448 0.0
H1057 H 0.49013 0.11015 1.01367 0.0
H1058 H 0.48297 0.99316 0.03502 0.0
H1059 H 0.51836 0.06243 1.00486 0.0
H1060 H 0.5506 0.96296 0.98537 0.0
H1061 H 0.5198 0.01007 0.99332 0.0
H1062 H 0.53073 0.97365 0.03421 0.0
H1063 H 0.56005 0.9252 0.026 0.0
C1064 C 0.46888 0.04654 0.03562 0.0
C1065 C 0.47095 0.07998 0.02986 0.0
C1066 C 0.48477 0.01864 0.03031 0.0
C1067 C 0.5033 0.02393 1.0193 0.0
C1068 C 0.50417 0.05711 1.01323 0.0
C1069 C 0.48798 0.08465 1.01835 0.0
C1070 C 0.5469 0.96562 0.99608 0.0
C1071 C 0.55783 0.94087 1.00512 0.0
C1072 C 0.5291 0.99248 1.00066 0.0
C1073 C 0.52246 0.99554 1.01442 0.0
C1074 C 0.53467 0.97157 0.02351 0.0
C1075 C 0.55192 0.94424 1.01887 0.0
H1076 H 0.75778 0.37034 0.02381 0.0
H1077 H 0.70485 0.29523 1.00272 0.0
H1078 H 0.78679 0.32265 0.03283 0.0
H1079 H 0.7333 0.24751 1.01205 0.0
H1080 H 0.80831 0.17563 1.01521 0.0
H1081 H 0.7816 0.2268 1.00772 0.0
H1082 H 0.78758 0.27142 0.04761 0.0
H1083 H 0.81513 0.22036 0.05501 0.0
C1084 C 0.7519 0.34358 0.02139 0.0
C1085 C 0.72923 0.33638 1.01249 0.0
C1086 C 0.76856 0.31631 0.02654 0.0
C1087 C 0.76268 0.28145 0.02291 0.0
C1088 C 0.73883 0.27423 1.0147 0.0
C1089 C 0.72234 0.30147 1.00948 0.0
C1090 C 0.80441 0.19672 0.0223 0.0
C1091 C 0.8136 0.19412 0.03568 0.0
C1092 C 0.78883 0.22579 1.01807 0.0
C1093 C 0.78185 0.25264 0.02718 0.0
C1094 C 0.7926 0.25107 0.04038 0.0
C1095 C 0.80847 0.22199 0.04459 0.0
H1096 H 0.57789 0.2943 0.28589 0.0
H1097 H 0.52864 0.37045 0.26348 0.0
H1098 H 0.54808 0.24746 0.27681 0.0
H1099 H 0.49833 0.32366 0.25468 0.0
H1100 H 0.46907 0.22003 0.23304 0.0
H1101 H 0.49699 0.27095 0.24034 0.0
H1102 H 0.4985 0.23003 0.28084 0.0
H1103 H 0.47135 0.17902 0.27347 0.0
C1104 C 0.56095 0.30095 0.27888 0.0
C1105 C 0.55549 0.33595 0.27544 0.0
C1106 C 0.54366 0.27423 0.27381 0.0
C1107 C 0.52046 0.28205 0.26529 0.0
C1108 C 0.51602 0.31687 0.26123 0.0
C1109 C 0.53344 0.34362 0.26626 0.0
C1110 C 0.47473 0.22253 0.24356 0.0
C1111 C 0.46834 0.19563 0.2527 0.0
C1112 C 0.49084 0.2515 0.24772 0.0
C1113 C 0.50056 0.25391 0.26107 0.0
C1114 C 0.49208 0.22829 0.27039 0.0
C1115 C 0.47625 0.19933 0.26622 0.0
H1116 H 0.83287 0.03742 0.24598 0.0
H1117 H 0.7804 0.10634 0.27021 0.0
H1118 H 0.80768 0.98668 0.25541 0.0
H1119 H 0.75446 0.05675 0.27888 0.0
H1120 H 0.73493 0.90846 0.26384 0.0
H1121 H 0.76266 0.95739 0.25475 0.0
H1122 H 0.75772 0.00968 0.29333 0.0
H1123 H 0.72869 0.96216 0.30199 0.0
C1124 C 0.81613 0.04165 0.25335 0.0
C1125 C 0.8088 0.0757 0.25746 0.0
C1126 C 0.80148 0.01274 0.25864 0.0
C1127 C 0.77903 0.0176 0.26793 0.0
C1128 C 0.77204 0.0518 0.27203 0.0
C1129 C 0.78692 0.08038 0.26698 0.0
C1130 C 0.73944 0.93082 0.27023 0.0
C1131 C 0.72926 0.932 0.2835 0.0
C1132 C 0.75566 0.95856 0.26511 0.0
C1133 C 0.76242 0.98756 0.27329 0.0
C1134 C 0.75236 0.98828 0.28662 0.0
C1135 C 0.73567 0.96104 0.2916 0.0
H1136 H 0.2803 0.65951 1.01861 0.0
H1137 H 0.33284 0.72585 0.04384 0.0
H1138 H 0.25487 0.71003 1.01042 0.0
H1139 H 0.30815 0.77763 0.0349 0.0
H1140 H 0.22979 0.80602 0.98827 0.0
H1141 H 0.2589 0.75805 0.99649 0.0
H1142 H 0.26326 0.80754 0.03563 0.0
H1143 H 0.23543 0.85704 0.02697 0.0
C1144 C 0.28696 0.68512 0.02216 0.0
C1145 C 0.30871 0.68877 0.03181 0.0
C1146 C 0.27237 0.71426 1.0174 0.0
C1147 C 0.27954 0.74805 0.0219 0.0
C1148 C 0.30185 0.75191 0.03135 0.0
C1149 C 0.31621 0.7224 0.03635 0.0
C1150 C 0.23666 0.80645 0.99868 0.0
C1151 C 0.22999 0.83482 1.00708 0.0
C1152 C 0.25341 0.77894 1.00342 0.0
C1153 C 0.26323 0.77867 1.01679 0.0
C1154 C 0.25638 0.8071 0.02524 0.0
C1155 C 0.24011 0.83516 0.02036 0.0
H1156 H 0.55843 0.84327 0.76367 0.0
H1157 H 0.55287 0.80273 0.80407 0.0
H1158 H 0.53016 0.79397 0.75543 0.0
H1159 H 0.52323 0.75451 0.79608 0.0
H1160 H 0.49579 0.65434 0.77514 0.0
H1161 H 0.52345 0.70275 0.78383 0.0
H1162 H 0.48268 0.77243 0.75533 0.0
H1163 H 0.45597 0.72285 0.746 0.0
C1164 C 0.55135 0.82349 0.77074 0.0
C1165 C 0.55801 0.82636 0.78444 0.0
C1166 C 0.53475 0.79562 0.76608 0.0
C1167 C 0.52401 0.77051 0.77511 0.0
C1168 C 0.53141 0.77306 0.7888 0.0
C1169 C 0.54851 0.80056 0.7934 0.0
C1170 C 0.49238 0.68005 0.7708 0.0
C1171 C 0.47382 0.68481 0.75982 0.0
C1172 C 0.50823 0.70795 0.77585 0.0
C1173 C 0.50555 0.7415 0.77023 0.0
C1174 C 0.48578 0.7467 0.75969 0.0
C1175 C 0.47018 0.71849 0.75445 0.0
H1176 H 0.33381 0.04425 0.7484 0.0
H1177 H 0.27614 0.11427 0.76928 0.0
H1178 H 0.3083 0.99393 0.75777 0.0
H1179 H 0.24981 0.06457 0.778 0.0
H1180 H 0.22341 0.96909 0.80151 0.0
H1181 H 0.25111 0.01828 0.79316 0.0
H1182 H 0.26438 0.96346 0.75554 0.0
H1183 H 0.23785 0.91329 0.7643 0.0
C1184 C 0.3158 0.04881 0.75505 0.0
C1185 C 0.30706 0.08304 0.7582 0.0
C1186 C 0.30096 0.02007 0.76028 0.0
C1187 C 0.27684 0.02515 0.76858 0.0
C1188 C 0.26854 0.05955 0.77187 0.0
C1189 C 0.28364 0.08813 0.76684 0.0
C1190 C 0.23196 0.96774 0.7914 0.0
C1191 C 0.22836 0.93756 0.7835 0.0
C1192 C 0.24786 0.99596 0.78659 0.0
C1193 C 0.26006 0.9949 0.77367 0.0
C1194 C 0.2558 0.96491 0.76564 0.0
C1195 C 0.24029 0.93637 0.77057 0.0
H1196 H 0.56515 0.46919 0.48665 0.0
H1197 H 0.54881 0.41282 0.5235 0.0
H1198 H 0.53807 0.51902 0.49517 0.0
H1199 H 0.52286 0.46327 0.53235 0.0
H1200 H 0.45183 0.54122 0.53886 0.0
H1201 H 0.4785 0.49222 0.52923 0.0
H1202 H 0.53755 0.56529 0.51083 0.0
H1203 H 0.51003 0.61399 0.5199 0.0
C1204 C 0.55637 0.46784 0.49672 0.0
C1205 C 0.55903 0.43723 0.50443 0.0
C1206 C 0.54082 0.49639 0.50161 0.0
C1207 C 0.52798 0.49504 0.51439 0.0
C1208 C 0.53181 0.46487 0.52232 0.0
C1209 C 0.54699 0.43614 0.51734 0.0
C1210 C 0.47022 0.54666 0.53255 0.0
C1211 C 0.47881 0.58126 0.53005 0.0
C1212 C 0.48573 0.51866 0.52717 0.0
C1213 C 0.51044 0.52479 0.5194 0.0
C1214 C 0.51848 0.55956 0.51662 0.0
C1215 C 0.50269 0.58751 0.52182 0.0
H1216 H 0.77891 0.64429 0.51477 0.0
H1217 H 0.82827 0.71883 0.53796 0.0
H1218 H 0.749 0.69165 0.50629 0.0
H1219 H 0.79899 0.76645 0.52909 0.0
H1220 H 0.72305 0.83669 0.52536 0.0
H1221 H 0.75053 0.78595 0.53271 0.0
H1222 H 0.74708 0.7434 0.49241 0.0
H1223 H 0.71865 0.79381 0.4852 0.0
C1224 C 0.78383 0.67093 0.51778 0.0
C1225 C 0.80578 0.67794 0.52709 0.0
C1226 C 0.76665 0.69804 0.51293 0.0
C1227 C 0.77126 0.73267 0.51723 0.0
C1228 C 0.79438 0.73986 0.5259 0.0
C1229 C 0.81139 0.71271 0.53085 0.0
C1230 C 0.72762 0.81606 0.51817 0.0
C1231 C 0.71885 0.81905 0.50474 0.0
C1232 C 0.74369 0.78727 0.52231 0.0
C1233 C 0.75163 0.76116 0.51305 0.0
C1234 C 0.74132 0.76312 0.49978 0.0
C1235 C 0.72491 0.79183 0.49567 0.0
H1236 H 0.83195 0.54328 0.74864 0.0
H1237 H 0.77146 0.61393 0.76732 0.0
H1238 H 0.80611 0.49332 0.75802 0.0
H1239 H 0.74479 0.56435 0.77609 0.0
H1240 H 0.71915 0.46896 0.80054 0.0
H1241 H 0.74546 0.51902 0.79189 0.0
H1242 H 0.76281 0.46195 0.75514 0.0
H1243 H 0.73764 0.41114 0.76418 0.0
C1244 C 0.81321 0.54805 0.75481 0.0
C1245 C 0.80382 0.58234 0.75737 0.0
C1246 C 0.79818 0.51949 0.76005 0.0
C1247 C 0.77319 0.52476 0.76773 0.0
C1248 C 0.76417 0.55925 0.77042 0.0
C1249 C 0.77946 0.58772 0.76539 0.0
C1250 C 0.72828 0.4673 0.79054 0.0
C1251 C 0.72637 0.43625 0.78301 0.0
C1252 C 0.74336 0.49602 0.78556 0.0
C1253 C 0.75646 0.4945 0.77284 0.0
C1254 C 0.75358 0.46376 0.76511 0.0
C1255 C 0.73886 0.43481 0.77019 0.0
H1256 H 0.22333 0.34243 0.52486 0.0
H1257 H 0.2216 0.29602 0.48523 0.0
H1258 H 0.24876 0.2914 0.53344 0.0
H1259 H 0.24797 0.2453 0.49369 0.0
H1260 H 0.27539 0.14709 0.51738 0.0
H1261 H 0.24692 0.19485 0.50818 0.0
H1262 H 0.29677 0.26929 0.53123 0.0
H1263 H 0.32459 0.22128 0.54081 0.0
C1264 C 0.2281 0.32103 0.51803 0.0
C1265 C 0.22064 0.32307 0.5044 0.0
C1266 C 0.24296 0.29203 0.5229 0.0
C1267 C 0.25098 0.26472 0.51417 0.0
C1268 C 0.24207 0.2659 0.50067 0.0
C1269 C 0.22687 0.29483 0.49583 0.0
C1270 C 0.28053 0.17372 0.52033 0.0
C1271 C 0.30212 0.18056 0.52984 0.0
C1272 C 0.26419 0.20106 0.51506 0.0
C1273 C 0.2693 0.23578 0.51913 0.0
C1274 C 0.29182 0.2427 0.52817 0.0
C1275 C 0.30798 0.21531 0.53354 0.0
H1276 H 0.27372 0.62064 0.27125 0.0
H1277 H 0.32235 0.5445 0.24849 0.0
H1278 H 0.24367 0.57384 0.28019 0.0
H1279 H 0.2929 0.49762 0.25771 0.0
H1280 H 0.21853 0.42675 0.26293 0.0
H1281 H 0.24397 0.47811 0.25469 0.0
H1282 H 0.24345 0.52239 0.29473 0.0
H1283 H 0.21713 0.47125 0.30288 0.0
C1284 C 0.27839 0.5938 0.2684 0.0
C1285 C 0.30028 0.58611 0.25915 0.0
C1286 C 0.26113 0.56705 0.27349 0.0
C1287 C 0.26558 0.53216 0.26946 0.0
C1288 C 0.28843 0.5244 0.26072 0.0
C1289 C 0.30552 0.55114 0.25555 0.0
C1290 C 0.22326 0.44787 0.26989 0.0
C1291 C 0.21609 0.44507 0.28353 0.0
C1292 C 0.23812 0.47705 0.26522 0.0
C1293 C 0.2464 0.50379 0.27414 0.0
C1294 C 0.23741 0.50215 0.28762 0.0
C1295 C 0.22223 0.473 0.29228 0.0
H1296 H 0.08156 0.97552 0.49463 0.0
H1297 H 0.02943 0.90776 0.51939 0.0
H1298 H 0.05533 0.02655 0.50326 0.0
H1299 H 1.00239 0.95746 0.52721 0.0
H1300 H 0.97524 0.05348 0.54926 0.0
H1301 H 1.0044 1.00545 0.54113 0.0
H1302 H 1.01033 0.05544 0.50218 0.0
H1303 H 0.98251 0.10502 0.51079 0.0
C1304 C 0.06469 0.97162 0.50195 0.0
C1305 C 0.05781 0.93783 0.50648 0.0
C1306 C 0.04941 1.00068 0.50677 0.0
C1307 C 0.02673 0.99618 0.51597 0.0
C1308 C 0.02014 0.96222 0.52043 0.0
C1309 C 0.03568 0.93355 0.51589 0.0
C1310 C 0.98238 0.05394 0.5389 0.0
C1311 C 0.97631 0.0826 0.53057 0.0
C1312 C 0.99918 0.0264 0.53421 0.0
C1313 C 1.00964 0.02636 0.52094 0.0
C1314 C 1.00304 0.05485 0.51251 0.0
C1315 C 0.98675 0.08294 0.51734 0.0
H1316 H 0.06283 0.29688 0.80164 0.0
H1317 H 0.04827 0.35286 0.76453 0.0
H1318 H 0.03612 0.24703 0.79292 0.0
H1319 H 0.02269 0.30234 0.75549 0.0
H1320 H 0.95211 0.22374 0.74843 0.0
H1321 H 0.97821 0.27312 0.75816 0.0
H1322 H 0.03688 0.20077 0.77729 0.0
H1323 H 1.01 0.15177 0.76813 0.0
C1324 C 0.05452 0.29813 0.79147 0.0
C1325 C 0.05758 0.32862 0.78373 0.0
C1326 C 0.03918 0.26957 0.78647 0.0
C1327 C 0.02699 0.27079 0.77354 0.0
C1328 C 0.03116 0.30086 0.76561 0.0
C1329 C 0.04612 0.32962 0.7707 0.0
C1330 C 0.9703 0.21856 0.75491 0.0
C1331 C 0.97897 0.18407 0.7576 0.0
C1332 C 0.98547 0.24676 0.76035 0.0
C1333 C 1.00986 0.24092 0.76838 0.0
C1334 C 0.01801 0.20627 0.7713 0.0
C1335 C 1.00259 0.17815 0.76604 0.0
H1336 H 0.06505 0.79107 0.30376 0.0
H1337 H 0.05987 0.83624 0.26403 0.0
H1338 H 0.03812 0.73996 0.29594 0.0
H1339 H 0.03383 0.78494 0.25611 0.0
H1340 H 0.95629 0.71698 0.25073 0.0
H1341 H 0.98547 0.76438 0.25984 0.0
H1342 H 0.03737 0.68885 0.28124 0.0
H1343 H 1.00761 0.64154 0.27244 0.0
C1344 C 0.05893 0.78951 0.29326 0.0
C1345 C 0.06427 0.81756 0.2845 0.0
C1346 C 0.04341 0.76037 0.2888 0.0
C1347 C 0.03326 0.75889 0.2755 0.0
C1348 C 0.04058 0.78586 0.26653 0.0
C1349 C 0.05579 0.81501 0.27101 0.0
C1350 C 0.97363 0.71061 0.25756 0.0
C1351 C 0.97974 0.67568 0.26087 0.0
C1352 C 0.99056 0.73765 0.26265 0.0
C1353 C 1.01409 0.73023 0.27103 0.0
C1354 C 0.01937 0.69538 0.27483 0.0
C1355 C 1.00228 0.66832 0.26981 0.0
H1356 H 0.0855 0.47143 1.00149 0.0
H1357 H 0.02859 0.40046 0.02226 0.0
H1358 H 0.05933 0.52127 1.01081 0.0
H1359 H 1.00162 0.44988 0.03101 0.0
H1360 H 0.97312 0.54774 0.05348 0.0
H1361 H 1.0013 0.49789 0.04582 0.0
H1362 H 1.01445 0.54915 1.00753 0.0
H1363 H 0.98738 0.59973 1.01551 0.0
C1364 C 0.06758 0.46655 1.00815 0.0
C1365 C 0.05908 0.43219 1.01118 0.0
C1366 C 0.05234 0.49502 1.01335 0.0
C1367 C 0.02808 0.48958 0.0215 0.0
C1368 C 0.02034 0.4551 0.0249 0.0
C1369 C 0.03582 0.42672 0.01987 0.0
C1370 C 0.98171 0.54809 0.04336 0.0
C1371 C 0.97806 0.57747 0.03506 0.0
C1372 C 0.99791 0.51954 0.03896 0.0
C1373 C 1.01041 0.51963 0.0261 0.0
C1374 C 1.00576 0.54859 1.01763 0.0
C1375 C 0.98993 0.57735 0.02211 0.0
H1376 H 0.3839 0.16478 0.11218 0.0
H1377 H 0.47392 0.14023 0.10991 0.0
H1378 H 0.38342 0.14786 0.13586 0.0
H1379 H 0.4734 0.12091 0.13315 0.0
H1380 H 0.47332 0.11603 0.17846 0.0
H1381 H 0.4731 0.13448 0.15513 0.0
H1382 H 0.38357 0.10574 0.15205 0.0
H1383 H 0.38371 0.08964 0.17582 0.0
C1384 C 0.40358 0.15557 0.11676 0.0
C1385 C 0.42903 0.15437 0.10921 0.0
C1386 C 0.40333 0.14541 0.13036 0.0
C1387 C 0.4284 0.13284 0.13675 0.0
C1388 C 0.45372 0.13125 0.12898 0.0
C1389 C 0.45408 0.14221 0.11552 0.0
C1390 C 0.45366 0.11336 0.17274 0.0
C1391 C 0.42862 0.10101 0.17899 0.0
C1392 C 0.45348 0.12385 0.15923 0.0
C1393 C 0.42835 0.12162 0.15134 0.0
C1394 C 0.40332 0.10869 0.15764 0.0
C1395 C 0.40338 0.09898 0.17129 0.0
H1396 H 0.81515 0.08729 0.11433 0.0
H1397 H 0.90382 0.11921 0.11049 0.0
H1398 H 0.81658 0.10203 0.13814 0.0
H1399 H 0.90418 0.13613 0.13414 0.0
H1400 H 0.87448 0.2009 0.17311 0.0
H1401 H 0.87517 0.1841 0.14918 0.0
H1402 H 0.84602 0.08034 0.15966 0.0
H1403 H 0.84616 0.09675 0.18348 0.0
C1404 C 0.83511 0.09697 0.11845 0.0
C1405 C 0.85938 0.10184 0.11017 0.0
C1406 C 0.83574 0.10583 0.13216 0.0
C1407 C 0.86038 0.12061 0.138 0.0
C1408 C 0.88471 0.12531 0.12988 0.0
C1409 C 0.88436 0.11566 0.11624 0.0
C1410 C 0.86837 0.1745 0.17027 0.0
C1411 C 0.86048 0.15008 0.18018 0.0
C1412 C 0.86886 0.16483 0.1566 0.0
C1413 C 0.86066 0.13085 0.15253 0.0
C1414 C 0.85238 0.10669 0.16245 0.0
C1415 C 0.8526 0.11605 0.1761 0.0
H1416 H 0.65232 0.89528 0.86018 0.0
H1417 H 0.56293 0.92352 0.86381 0.0
H1418 H 0.65261 0.87645 0.88348 0.0
H1419 H 0.5639 0.90754 0.88736 0.0
H1420 H 0.56254 0.84515 0.9257 0.0
H1421 H 0.56363 0.86129 0.90218 0.0
H1422 H 0.65272 0.89062 0.90606 0.0
H1423 H 0.65229 0.87162 0.92934 0.0
C1424 C 0.63271 0.89782 0.86591 0.0
C1425 C 0.60756 0.91094 0.85983 0.0
C1426 C 0.63299 0.88737 0.87946 0.0
C1427 C 0.60822 0.89002 0.88753 0.0
C1428 C 0.58334 0.90416 0.88156 0.0
C1429 C 0.58295 0.91416 0.86798 0.0
C1430 C 0.58266 0.85415 0.92155 0.0
C1431 C 0.60734 0.85681 0.92969 0.0
C1432 C 0.58313 0.86425 0.90797 0.0
C1433 C 0.60816 0.87793 0.90201 0.0
C1434 C 0.63298 0.88005 0.91008 0.0
C1435 C 0.63262 0.8695 0.92362 0.0
H1436 H 0.20257 0.83102 0.865 0.0
H1437 H 0.12514 0.89143 0.85936 0.0
H1438 H 0.20162 0.8446 0.88893 0.0
H1439 H 0.12446 0.90537 0.88331 0.0
H1440 H 0.15176 0.95459 0.92419 0.0
H1441 H 0.15068 0.9399 0.9002 0.0
H1442 H 0.17572 0.83364 0.90949 0.0
H1443 H 0.17762 0.84844 0.93323 0.0
C1444 C 0.18501 0.84667 0.86885 0.0
C1445 C 0.16395 0.86002 0.86009 0.0
C1446 C 0.18455 0.85465 0.88263 0.0
C1447 C 0.16305 0.87633 0.88813 0.0
C1448 C 0.14166 0.88915 0.87944 0.0
C1449 C 0.14204 0.88104 0.86566 0.0
C1450 C 0.1571 0.92813 0.92111 0.0
C1451 C 0.16455 0.90272 0.93076 0.0
C1452 C 0.15623 0.91958 0.90734 0.0
C1453 C 0.16311 0.8855 0.90282 0.0
C1454 C 0.17054 0.86021 0.91249 0.0
C1455 C 0.17125 0.86866 0.9262 0.0
H1456 H 0.37878 0.62249 0.68112 0.0
H1457 H 0.46689 0.5887 0.67721 0.0
H1458 H 0.3778 0.6367 0.65718 0.0
H1459 H 0.46532 0.60165 0.65331 0.0
H1460 H 0.44182 0.59329 0.60856 0.0
H1461 H 0.44139 0.58 0.63251 0.0
H1462 H 0.40046 0.67936 0.64056 0.0
H1463 H 0.40081 0.69273 0.61639 0.0
C1464 C 0.39797 0.61802 0.67525 0.0
C1465 C 0.42289 0.60413 0.68132 0.0
C1466 C 0.39735 0.62621 0.66147 0.0
C1467 C 0.42145 0.62033 0.65327 0.0
C1468 C 0.4462 0.60611 0.65925 0.0
C1469 C 0.44698 0.59836 0.67303 0.0
C1470 C 0.43247 0.61226 0.61539 0.0
C1471 C 0.42115 0.64402 0.61047 0.0
C1472 C 0.43248 0.60474 0.62917 0.0
C1473 C 0.42091 0.62856 0.63852 0.0
C1474 C 0.40935 0.66027 0.63364 0.0
C1475 C 0.40972 0.66806 0.6198 0.0
H1476 H 0.90504 0.6443 0.60684 0.0
H1477 H 0.83025 0.57907 0.61214 0.0
H1478 H 0.9054 0.65709 0.6309 0.0
H1479 H 0.83063 0.5918 0.63612 0.0
H1480 H 0.85317 0.59477 0.68039 0.0
H1481 H 0.85559 0.58147 0.65657 0.0
H1482 H 0.87978 0.68861 0.64833 0.0
H1483 H 0.87855 0.70167 0.67243 0.0
C1484 C 0.88864 0.63264 0.6131 0.0
C1485 C 0.86765 0.61049 0.60742 0.0
C1486 C 0.8888 0.64011 0.62695 0.0
C1487 C 0.86801 0.62563 0.63558 0.0
C1488 C 0.84731 0.60308 0.62992 0.0
C1489 C 0.84714 0.59562 0.61609 0.0
C1490 C 0.85952 0.61551 0.67359 0.0
C1491 C 0.86596 0.64932 0.67851 0.0
C1492 C 0.86048 0.60793 0.65981 0.0
C1493 C 0.86778 0.63389 0.65038 0.0
C1494 C 0.87435 0.66774 0.65525 0.0
C1495 C 0.87335 0.67538 0.6691 0.0
H1496 H 0.57742 0.3286 0.42293 0.0
H1497 H 0.65833 0.38222 0.42767 0.0
H1498 H 0.57808 0.34138 0.39897 0.0
H1499 H 0.65893 0.39513 0.40364 0.0
H1500 H 0.6348 0.44413 0.36252 0.0
H1501 H 0.63555 0.43066 0.38658 0.0
H1502 H 0.6012 0.32774 0.37825 0.0
H1503 H 0.59941 0.34157 0.35446 0.0
C1504 C 0.59567 0.34254 0.41886 0.0
C1505 C 0.61783 0.35423 0.42738 0.0
C1506 C 0.596 0.35006 0.40505 0.0
C1507 C 0.61851 0.36951 0.39925 0.0
C1508 C 0.64095 0.38068 0.40771 0.0
C1509 C 0.64063 0.37312 0.42154 0.0
C1510 C 0.62728 0.4187 0.36582 0.0
C1511 C 0.61727 0.39394 0.3564 0.0
C1512 C 0.62798 0.41079 0.37965 0.0
C1513 C 0.61846 0.378 0.38448 0.0
C1514 C 0.60845 0.35338 0.37504 0.0
C1515 C 0.60782 0.36121 0.36128 0.0
H1516 H 0.13617 0.41931 0.42542 0.0
H1517 H 0.22555 0.39149 0.42792 0.0
H1518 H 0.13555 0.40221 0.40173 0.0
H1519 H 0.22483 0.3722 0.40466 0.0
H1520 H 0.22501 0.36809 0.35934 0.0
H1521 H 0.22489 0.38669 0.38268 0.0
H1522 H 0.13513 0.35911 0.38569 0.0
H1523 H 0.13518 0.34269 0.36193 0.0
C1524 C 0.15567 0.40938 0.42089 0.0
C1525 C 0.18101 0.4073 0.42851 0.0
C1526 C 0.15533 0.39915 0.40729 0.0
C1527 C 0.18017 0.38569 0.40098 0.0
C1528 C 0.20536 0.38324 0.4088 0.0
C1529 C 0.20583 0.39421 0.42226 0.0
C1530 C 0.20532 0.36568 0.36504 0.0
C1531 C 0.18019 0.35354 0.35878 0.0
C1532 C 0.2052 0.37627 0.37855 0.0
C1533 C 0.18003 0.37441 0.3864 0.0
C1534 C 0.15491 0.36173 0.3801 0.0
C1535 C 0.15492 0.35187 0.36646 0.0
H1536 H 0.87443 0.13947 0.6788 0.0
H1537 H 0.95842 0.09413 0.67341 0.0
H1538 H 0.87293 0.15464 0.65487 0.0
H1539 H 0.95699 0.10943 0.64954 0.0
H1540 H 0.9582 0.1804 0.61196 0.0
H1541 H 0.95759 0.16576 0.63591 0.0
H1542 H 0.87167 0.12525 0.63178 0.0
H1543 H 0.87234 0.13973 0.60778 0.0
C1544 C 0.89248 0.13251 0.67249 0.0
C1545 C 0.9165 0.11543 0.67805 0.0
C1546 C 0.89159 0.14112 0.65877 0.0
C1547 C 0.91494 0.13352 0.65028 0.0
C1548 C 0.93877 0.11603 0.6558 0.0
C1549 C 0.93945 0.10687 0.66946 0.0
C1550 C 0.93899 0.16891 0.61619 0.0
C1551 C 0.91528 0.16139 0.60792 0.0
C1552 C 0.93877 0.16011 0.6299 0.0
C1553 C 0.91466 0.14406 0.63577 0.0
C1554 C 0.89056 0.13765 0.62761 0.0
C1555 C 0.89097 0.14589 0.61384 0.0
H1556 H 0.32467 0.09037 0.61392 0.0
H1557 H 0.40791 0.13771 0.60865 0.0
H1558 H 0.32606 0.10496 0.63788 0.0
H1559 H 0.40937 0.15212 0.63268 0.0
H1560 H 0.41031 0.13655 0.67978 0.0
H1561 H 0.41109 0.12204 0.65574 0.0
H1562 H 0.32472 0.16116 0.6517 0.0
H1563 H 0.32399 0.17585 0.67565 0.0
C1564 C 0.34348 0.1034 0.61791 0.0
C1565 C 0.36622 0.11273 0.60933 0.0
C1566 C 0.34413 0.11213 0.63163 0.0
C1567 C 0.36775 0.12994 0.63722 0.0
C1568 C 0.3909 0.13833 0.62874 0.0
C1569 C 0.39002 0.13016 0.61495 0.0
C1570 C 0.39158 0.14232 0.67373 0.0
C1571 C 0.36714 0.15755 0.67967 0.0
C1572 C 0.39206 0.13409 0.65994 0.0
C1573 C 0.36789 0.14018 0.65178 0.0
C1574 C 0.3436 0.15578 0.6577 0.0
C1575 C 0.34331 0.16458 0.67141 0.0
H1576 H 0.09909 0.80791 0.42229 0.0
H1577 H 0.12128 0.91448 0.43285 0.0
H1578 H 0.0991 0.82395 0.39863 0.0
H1579 H 0.12324 0.92983 0.40923 0.0
H1580 H 0.09493 0.95725 0.36652 0.0
H1581 H 0.09528 0.94138 0.39021 0.0
H1582 H 0.12692 0.83828 0.37992 0.0
H1583 H 0.12465 0.85323 0.35628 0.0
C1584 C 0.1042 0.83471 0.41963 0.0
C1585 C 0.11025 0.8597 0.42969 0.0
C1586 C 0.10458 0.84389 0.40595 0.0
C1587 C 0.1112 0.87834 0.40182 0.0
C1588 C 0.11763 0.90317 0.41188 0.0
C1589 C 0.11703 0.89408 0.42554 0.0
C1590 C 0.10178 0.93109 0.36925 0.0
C1591 C 0.10984 0.90674 0.35927 0.0
C1592 C 0.10234 0.92205 0.38295 0.0
C1593 C 0.11113 0.88839 0.38717 0.0
C1594 C 0.11959 0.86426 0.3772 0.0
C1595 C 0.11881 0.87319 0.36353 0.0
H1596 H 0.62492 0.90606 0.43022 0.0
H1597 H 0.71706 0.9137 0.42719 0.0
H1598 H 0.62242 0.88814 0.40668 0.0
H1599 H 0.71445 0.89727 0.40357 0.0
H1600 H 0.70522 0.8322 0.36557 0.0
H1601 H 0.70562 0.84782 0.38934 0.0
H1602 H 0.62769 0.90734 0.38392 0.0
H1603 H 0.62666 0.89051 0.36027 0.0
C1604 C 0.64466 0.90422 0.42454 0.0
C1605 C 0.67119 0.91148 0.43074 0.0
C1606 C 0.64321 0.89416 0.41095 0.0
C1607 C 0.66824 0.89091 0.40311 0.0
C1608 C 0.6947 0.89883 0.40925 0.0
C1609 C 0.69615 0.90893 0.42282 0.0
C1610 C 0.6878 0.848 0.36947 0.0
C1611 C 0.66593 0.86004 0.36087 0.0
C1612 C 0.68828 0.8575 0.38312 0.0
C1613 C 0.66689 0.87933 0.38865 0.0
C1614 C 0.64451 0.89042 0.38014 0.0
C1615 C 0.64405 0.88096 0.36648 0.0
H1616 H 0.87607 0.6398 0.11034 0.0
H1617 H 0.96219 0.67967 0.11524 0.0
H1618 H 0.87463 0.62511 0.13421 0.0
H1619 H 0.96028 0.66586 0.13908 0.0
H1620 H 0.93643 0.66884 0.18365 0.0
H1621 H 0.93602 0.68376 0.15987 0.0
H1622 H 0.89731 0.58375 0.15068 0.0
H1623 H 0.89733 0.56889 0.17469 0.0
C1624 C 0.89472 0.64552 0.11644 0.0
C1625 C 0.91926 0.6611 0.11068 0.0
C1626 C 0.89386 0.63702 0.13018 0.0
C1627 C 0.91735 0.64417 0.13863 0.0
C1628 C 0.94162 0.66033 0.13295 0.0
C1629 C 0.94261 0.66852 0.11921 0.0
C1630 C 0.92748 0.65009 0.17661 0.0
C1631 C 0.91665 0.61772 0.18118 0.0
C1632 C 0.92755 0.65854 0.16292 0.0
C1633 C 0.91666 0.63502 0.15329 0.0
C1634 C 0.90564 0.60267 0.15781 0.0
C1635 C 0.90585 0.59401 0.17157 0.0
H1636 H 0.34015 0.59686 0.1808 0.0
H1637 H 0.38613 0.69319 0.17375 0.0
H1638 H 0.34083 0.58392 0.1569 0.0
H1639 H 0.38791 0.67973 0.14971 0.0
H1640 H 0.36118 0.66327 0.10584 0.0
H1641 H 0.3622 0.6765 0.12975 0.0
H1642 H 0.36732 0.56564 0.13853 0.0
H1643 H 0.36517 0.55258 0.11452 0.0
C1644 C 0.35087 0.61508 0.17414 0.0
C1645 C 0.36328 0.64599 0.17927 0.0
C1646 C 0.35139 0.60755 0.16034 0.0
C1647 C 0.36463 0.63049 0.15115 0.0
C1648 C 0.3771 0.6615 0.15632 0.0
C1649 C 0.37623 0.66926 0.17016 0.0
C1650 C 0.36285 0.64169 0.11287 0.0
C1651 C 0.36323 0.6068 0.10818 0.0
C1652 C 0.36351 0.64931 0.12667 0.0
C1653 C 0.36485 0.62229 0.13631 0.0
C1654 C 0.3657 0.58734 0.13157 0.0
C1655 C 0.36465 0.57972 0.11774 0.0
H1656 H 0.15893 0.38738 0.93128 0.0
H1657 H 0.07555 0.3401 0.92629 0.0
H1658 H 0.15961 0.40261 0.90737 0.0
H1659 H 0.07626 0.35522 0.9024 0.0
H1660 H 0.07251 0.42558 0.86483 0.0
H1661 H 0.07386 0.41033 0.88869 0.0
H1662 H 0.16129 0.37505 0.88433 0.0
H1663 H 0.15996 0.39042 0.86043 0.0
C1664 C 0.14084 0.37997 0.92506 0.0
C1665 C 0.11721 0.3624 0.93074 0.0
C1666 C 0.14128 0.3886 0.91133 0.0
C1667 C 0.11789 0.38043 0.90295 0.0
C1668 C 0.0945 0.36232 0.90858 0.0
C1669 C 0.09425 0.35323 0.92225 0.0
C1670 C 0.09219 0.4151 0.86899 0.0
C1671 C 0.11616 0.40939 0.86068 0.0
C1672 C 0.09284 0.40592 0.88265 0.0
C1673 C 0.11761 0.39116 0.88845 0.0
C1674 C 0.14188 0.38643 0.88023 0.0
C1675 C 0.14109 0.39514 0.86651 0.0
H1676 H 0.67782 0.41547 0.85843 0.0
H1677 H 0.6558 0.30722 0.86582 0.0
H1678 H 0.67657 0.42735 0.88242 0.0
H1679 H 0.65436 0.3192 0.88996 0.0
H1680 H 0.68628 0.34386 0.93265 0.0
H1681 H 0.68444 0.33178 0.90869 0.0
H1682 H 0.64717 0.43391 0.90182 0.0
H1683 H 0.64921 0.44612 0.92593 0.0
C1684 C 0.67219 0.39422 0.86514 0.0
C1685 C 0.66669 0.36035 0.86004 0.0
C1686 C 0.67148 0.40111 0.87899 0.0
C1687 C 0.66528 0.37438 0.88828 0.0
C1688 C 0.65962 0.34047 0.8832 0.0
C1689 C 0.6604 0.33354 0.8693 0.0
C1690 C 0.67726 0.36366 0.9261 0.0
C1691 C 0.66767 0.39596 0.93137 0.0
C1692 C 0.6762 0.35665 0.91226 0.0
C1693 C 0.66554 0.3817 0.90316 0.0
C1694 C 0.65589 0.41404 0.90842 0.0
C1695 C 0.65701 0.42109 0.9223 0.0
H1696 H 0.56786 0.12819 0.03744 0.0
H1697 H 0.57393 0.17658 0.07645 0.0
H1698 H 0.62027 0.12111 0.03688 0.0
H1699 H 0.62602 0.17122 0.07583 0.0
H1700 H 0.70749 0.11132 0.08077 0.0
H1701 H 0.65627 0.12122 0.0784 0.0
H1702 H 0.66839 0.14758 0.03652 0.0
H1703 H 0.72004 0.13659 0.03895 0.0
C1704 C 0.58065 0.13838 0.04565 0.0
C1705 C 0.56726 0.15283 0.057 0.0
C1706 C 0.61053 0.13429 0.04538 0.0
C1707 C 0.62727 0.14483 0.05646 0.0
C1708 C 0.61373 0.16181 0.06731 0.0
C1709 C 0.58403 0.16535 0.06764 0.0
C1710 C 0.69914 0.11901 0.07105 0.0
C1711 C 0.71763 0.12348 0.06009 0.0
C1712 C 0.66985 0.125 0.06969 0.0
C1713 C 0.65829 0.13613 0.05735 0.0
C1714 C 0.67663 0.13913 0.04617 0.0
C1715 C 0.70611 0.13275 0.04753 0.0
H1716 H 0.70984 0.16086 0.20781 0.0
H1717 H 0.71842 0.12842 0.24909 0.0
H1718 H 0.65811 0.15358 0.20917 0.0
H1719 H 0.66634 0.11955 0.25045 0.0
H1720 H 0.56663 0.13772 0.24903 0.0
H1721 H 0.61885 0.14578 0.25021 0.0
H1722 H 0.62654 0.10526 0.20973 0.0
H1723 H 0.57467 0.09892 0.20851 0.0
C1724 C 0.70045 0.15226 0.2172 0.0
C1725 C 0.71792 0.14501 0.22831 0.0
C1726 C 0.67089 0.14771 0.21798 0.0
C1727 C 0.65808 0.13504 0.22982 0.0
C1728 C 0.67548 0.12931 0.24118 0.0
C1729 C 0.70522 0.13443 0.24044 0.0
C1730 C 0.57976 0.13007 0.24054 0.0
C1731 C 0.5669 0.11802 0.22863 0.0
C1732 C 0.60956 0.13471 0.24117 0.0
C1733 C 0.62685 0.12699 0.22994 0.0
C1734 C 0.61386 0.11267 0.2184 0.0
C1735 C 0.58424 0.10862 0.21772 0.0
H1736 H 0.32481 0.9165 0.95833 0.0
H1737 H 0.31231 0.87735 0.99855 0.0
H1738 H 0.37592 0.90498 0.96006 0.0
H1739 H 0.36389 0.86493 1.00029 0.0
H1740 H 0.46483 0.88196 1.00006 0.0
H1741 H 0.41261 0.89071 1.00106 0.0
H1742 H 0.40547 0.85364 0.9601 0.0
H1743 H 0.45728 0.84622 0.95911 0.0
C1744 C 0.33311 0.90536 0.96755 0.0
C1745 C 0.31462 0.89751 0.97824 0.0
C1746 C 0.36237 0.89852 0.96854 0.0
C1747 C 0.37396 0.88321 0.9802 0.0
C1748 C 0.35565 0.87668 0.99116 0.0
C1749 C 0.32619 0.88385 0.9902 0.0
C1750 C 0.45182 0.87504 0.99144 0.0
C1751 C 0.46488 0.86375 0.97946 0.0
C1752 C 0.42202 0.88011 0.99197 0.0
C1753 C 0.40493 0.8737 0.98054 0.0
C1754 C 0.41803 0.85992 0.96894 0.0
C1755 C 0.44763 0.85532 0.96838 0.0
H1756 H 0.4645 0.88771 0.78982 0.0
H1757 H 0.45844 0.9238 0.83078 0.0
H1758 H 0.41217 0.88008 0.78909 0.0
H1759 H 0.40649 0.9175 0.83005 0.0
H1760 H 0.32539 0.8552 0.83217 0.0
H1761 H 0.37648 0.86655 0.83028 0.0
H1762 H 0.36382 0.90671 0.7901 0.0
H1763 H 0.31227 0.89454 0.792 0.0
C1764 C 0.4518 0.89497 0.79851 0.0
C1765 C 0.46528 0.906 0.81041 0.0
C1766 C 0.42193 0.89055 0.79812 0.0
C1767 C 0.40522 0.89736 0.80963 0.0
C1768 C 0.41876 0.91094 0.82115 0.0
C1769 C 0.44843 0.9149 0.82156 0.0
C1770 C 0.33353 0.8664 0.82294 0.0
C1771 C 0.31488 0.8743 0.8123 0.0
C1772 C 0.36278 0.87313 0.82185 0.0
C1773 C 0.37419 0.88833 0.81014 0.0
C1774 C 0.35571 0.89503 0.79925 0.0
C1775 C 0.32626 0.888 0.80032 0.0
H1776 H 0.56593 0.63105 0.53884 0.0
H1777 H 0.57734 0.65815 0.58063 0.0
H1778 H 0.6183 0.62865 0.53599 0.0
H1779 H 0.62902 0.65521 0.57793 0.0
H1780 H 0.71911 0.67898 0.56808 0.0
H1781 H 0.66749 0.6873 0.56667 0.0
H1782 H 0.65984 0.59089 0.54409 0.0
H1783 H 0.71208 0.58285 0.5454 0.0
C1784 C 0.57963 0.63683 0.54735 0.0
C1785 C 0.56762 0.64471 0.55997 0.0
C1786 C 0.60951 0.63514 0.54576 0.0
C1787 C 0.6278 0.64188 0.55672 0.0
C1788 C 0.61561 0.65035 0.56923 0.0
C1789 C 0.58597 0.6517 0.57083 0.0
C1790 C 0.70644 0.65965 0.56275 0.0
C1791 C 0.71946 0.62986 0.5571 0.0
C1792 C 0.67688 0.66443 0.56192 0.0
C1793 C 0.65951 0.6394 0.5555 0.0
C1794 C 0.67268 0.61065 0.54908 0.0
C1795 C 0.70249 0.60598 0.54985 0.0
H1796 H 0.56779 0.62901 0.75059 0.0
H1797 H 0.57187 0.59125 0.7098 0.0
H1798 H 0.62018 0.63603 0.75081 0.0
H1799 H 0.6239 0.59673 0.71005 0.0
H1800 H 0.7058 0.65702 0.70684 0.0
H1801 H 0.65469 0.6464 0.70913 0.0
H1802 H 0.66804 0.60943 0.74972 0.0
H1803 H 0.71957 0.62108 0.74742 0.0
C1804 C 0.58009 0.62125 0.74184 0.0
C1805 C 0.56605 0.60991 0.73013 0.0
C1806 C 0.60999 0.6253 0.74193 0.0
C1807 C 0.62618 0.61775 0.73033 0.0
C1808 C 0.61206 0.60389 0.71901 0.0
C1809 C 0.58235 0.60037 0.71888 0.0
C1810 C 0.69779 0.64667 0.71624 0.0
C1811 C 0.7166 0.63957 0.72689 0.0
C1812 C 0.66852 0.64034 0.71756 0.0
C1813 C 0.65728 0.62626 0.72951 0.0
C1814 C 0.67598 0.62027 0.74038 0.0
C1815 C 0.70543 0.62698 0.73909 0.0
H1816 H 0.32143 0.3856 0.49967 0.0
H1817 H 0.32435 0.42778 0.45958 0.0
H1818 H 0.37399 0.38093 0.49985 0.0
H1819 H 0.37659 0.42473 0.45979 0.0
H1820 H 0.45821 0.3627 0.45554 0.0
H1821 H 0.4074 0.37477 0.45802 0.0
H1822 H 0.42166 0.40872 0.49897 0.0
H1823 H 0.47295 0.39596 0.49645 0.0
C1824 C 0.33352 0.39503 0.49112 0.0
C1825 C 0.3192 0.40684 0.47958 0.0
C1826 C 0.36351 0.39232 0.49117 0.0
C1827 C 0.37943 0.40168 0.4797 0.0
C1828 C 0.36495 0.4163 0.46863 0.0
C1829 C 0.33515 0.41846 0.46853 0.0
C1830 C 0.45053 0.37287 0.46505 0.0
C1831 C 0.46954 0.37866 0.47575 0.0
C1832 C 0.42142 0.38 0.46647 0.0
C1833 C 0.41051 0.39345 0.47861 0.0
C1834 C 0.42939 0.3984 0.48949 0.0
C1835 C 0.45869 0.39101 0.48807 0.0
H1836 H 0.3174 0.38352 0.28719 0.0
H1837 H 0.32485 0.35358 0.32878 0.0
H1838 H 0.36979 0.38993 0.28581 0.0
H1839 H 0.37678 0.3585 0.32744 0.0
H1840 H 0.46019 0.41464 0.32774 0.0
H1841 H 0.40853 0.40708 0.32643 0.0
H1842 H 0.41737 0.36233 0.28667 0.0
H1843 H 0.46954 0.37119 0.28795 0.0
C1844 C 0.33039 0.37747 0.29591 0.0
C1845 C 0.3173 0.36847 0.30814 0.0
C1846 C 0.3603 0.38116 0.29515 0.0
C1847 C 0.37746 0.37559 0.30661 0.0
C1848 C 0.36422 0.3642 0.31854 0.0
C1849 C 0.33453 0.36103 0.31931 0.0
C1850 C 0.45102 0.40342 0.3187 0.0
C1851 C 0.46874 0.39316 0.30802 0.0
C1852 C 0.42145 0.39879 0.31796 0.0
C1853 C 0.40879 0.3832 0.30658 0.0
C1854 C 0.42642 0.37435 0.29559 0.0
C1855 C 0.4562 0.37944 0.29629 0.0
H1856 H 0.21597 0.1295 0.53963 0.0
H1857 H 0.20626 0.10356 0.5816 0.0
H1858 H 0.16357 0.13293 0.53733 0.0
H1859 H 0.15455 0.10778 0.57946 0.0
H1860 H 0.06325 0.08635 0.57058 0.0
H1861 H 0.11476 0.07716 0.56916 0.0
H1862 H 0.12297 0.171 0.54518 0.0
H1863 H 0.07086 0.17986 0.54649 0.0
C1864 C 0.20265 0.12423 0.54831 0.0
C1865 C 0.21521 0.11636 0.56081 0.0
C1866 C 0.17272 0.12652 0.54703 0.0
C1867 C 0.15485 0.12053 0.5582 0.0
C1868 C 0.16757 0.11208 0.5706 0.0
C1869 C 0.19728 0.11003 0.57187 0.0
C1870 C 0.07602 0.10497 0.56497 0.0
C1871 C 0.06314 0.13422 0.55888 0.0
C1872 C 0.10555 0.09971 0.56414 0.0
C1873 C 0.12308 0.1237 0.55728 0.0
C1874 C 0.11005 0.15198 0.55052 0.0
C1875 C 0.08028 0.15713 0.55129 0.0
H1876 H 0.07592 0.11072 0.70533 0.0
H1877 H 0.06665 0.13342 0.74763 0.0
H1878 H 0.1277 0.11363 0.7075 0.0
H1879 H 0.11907 0.13558 0.74994 0.0
H1880 H 0.21263 0.1806 0.74113 0.0
H1881 H 0.16035 0.17351 0.7423 0.0
H1882 H 0.16661 0.08029 0.71773 0.0
H1883 H 0.21833 0.0876 0.71651 0.0
C1884 C 0.085 0.11628 0.71512 0.0
C1885 C 0.0672 0.12199 0.72629 0.0
C1886 C 0.11473 0.11757 0.71641 0.0
C1887 C 0.12754 0.12464 0.72892 0.0
C1888 C 0.10981 0.1302 0.74016 0.0
C1889 C 0.07987 0.12864 0.73887 0.0
C1890 C 0.20275 0.15836 0.73618 0.0
C1891 C 0.21943 0.13509 0.72849 0.0
C1892 C 0.17289 0.15424 0.73686 0.0
C1893 C 0.15931 0.12668 0.7299 0.0
C1894 C 0.17632 0.1023 0.72292 0.0
C1895 C 0.20595 0.10651 0.72219 0.0
H1896 H 0.81412 0.87505 0.50003 0.0
H1897 H 0.82319 0.90723 0.45874 0.0
H1898 H 0.86611 0.86523 0.50144 0.0
H1899 H 0.8748 0.89892 0.46014 0.0
H1900 H 0.95807 0.84431 0.45954 0.0
H1901 H 0.90615 0.85035 0.46077 0.0
H1902 H 0.91382 0.89101 0.50124 0.0
H1903 H 0.96608 0.88319 0.50003 0.0
C1904 C 0.82741 0.88074 0.49138 0.0
C1905 C 0.81483 0.89156 0.47923 0.0
C1906 C 0.85709 0.87507 0.49215 0.0
C1907 C 0.8746 0.88046 0.4808 0.0
C1908 C 0.86194 0.89328 0.46894 0.0
C1909 C 0.83244 0.89841 0.46814 0.0
C1910 C 0.94847 0.85385 0.46876 0.0
C1911 C 0.9658 0.86338 0.47966 0.0
C1912 C 0.91882 0.85776 0.46945 0.0
C1913 C 0.90581 0.87213 0.48098 0.0
C1914 C 0.92311 0.87989 0.49221 0.0
C1915 C 0.95293 0.87538 0.49156 0.0
H1916 H 0.96464 0.88018 0.28984 0.0
H1917 H 0.96009 0.91148 0.33142 0.0
H1918 H 0.91223 0.87356 0.28929 0.0
H1919 H 0.90808 0.90636 0.33088 0.0
H1920 H 0.82515 0.84817 0.33245 0.0
H1921 H 0.8765 0.85759 0.33057 0.0
H1922 H 0.86464 0.90047 0.29074 0.0
H1923 H 0.81284 0.88994 0.29261 0.0
C1924 C 0.95226 0.88655 0.29873 0.0
C1925 C 0.96619 0.89597 0.31072 0.0
C1926 C 0.92233 0.88273 0.29845 0.0
C1927 C 0.90597 0.88859 0.31014 0.0
C1928 C 0.92001 0.90047 0.32181 0.0
C1929 C 0.94975 0.90376 0.32212 0.0
C1930 C 0.83355 0.8595 0.32329 0.0
C1931 C 0.81506 0.86861 0.31274 0.0
C1932 C 0.86296 0.86517 0.32222 0.0
C1933 C 0.87471 0.88059 0.31062 0.0
C1934 C 0.85632 0.88855 0.29981 0.0
C1935 C 0.82672 0.88249 0.30086 0.0
H1936 H 0.07629 0.67201 0.08176 0.0
H1937 H 0.06508 0.63251 0.04149 0.0
H1938 H 0.12783 0.66309 0.08003 0.0
H1939 H 0.11694 0.62216 0.03979 0.0
H1940 H 0.21722 0.63621 0.03991 0.0
H1941 H 0.16528 0.64687 0.03901 0.0
H1942 H 0.15799 0.61301 0.08034 0.0
H1943 H 0.20957 0.60376 0.08122 0.0
C1944 C 0.08505 0.66159 0.0725 0.0
C1945 C 0.06686 0.65275 0.06181 0.0
C1946 C 0.11451 0.65611 0.07152 0.0
C1947 C 0.12651 0.64099 0.0599 0.0
C1948 C 0.10843 0.63381 0.04889 0.0
C1949 C 0.07881 0.63979 0.04982 0.0
C1950 C 0.20425 0.63057 0.04866 0.0
C1951 C 0.21723 0.61948 0.06068 0.0
C1952 C 0.17459 0.63673 0.04819 0.0
C1953 C 0.15752 0.63162 0.0597 0.0
C1954 C 0.17053 0.6184 0.07141 0.0
C1955 C 0.20001 0.61273 0.07192 0.0
H1956 H 0.20522 0.67058 0.2089 0.0
H1957 H 0.21698 0.6281 0.24867 0.0
H1958 H 0.15381 0.6609 0.21057 0.0
H1959 H 0.16504 0.61769 0.25036 0.0
H1960 H 0.06377 0.63448 0.24946 0.0
H1961 H 0.11568 0.64533 0.25085 0.0
H1962 H 0.12538 0.60738 0.21015 0.0
H1963 H 0.07401 0.59719 0.20879 0.0
C1964 C 0.19666 0.6593 0.21804 0.0
C1965 C 0.21503 0.64967 0.22857 0.0
C1966 C 0.16726 0.65357 0.21899 0.0
C1967 C 0.15542 0.6377 0.23046 0.0
C1968 C 0.17355 0.62987 0.24138 0.0
C1969 C 0.20319 0.63588 0.24044 0.0
C1970 C 0.07721 0.62798 0.24094 0.0
C1971 C 0.06493 0.61548 0.22894 0.0
C1972 C 0.10685 0.63424 0.24171 0.0
C1973 C 0.12453 0.62799 0.23049 0.0
C1974 C 0.11227 0.61351 0.21883 0.0
C1975 C 0.08288 0.6075 0.21805 0.0
H1976 H 0.96325 0.33841 0.99342 0.0
H1977 H 0.96806 0.43319 0.96988 0.0
H1978 H 0.91102 0.34551 0.99512 0.0
H1979 H 0.91639 0.44043 0.97161 0.0
H1980 H 0.82549 0.40944 0.95927 0.0
H1981 H 0.87736 0.40727 0.96121 0.0
H1982 H 0.86976 0.38319 1.00348 0.0
H1983 H 0.81721 0.38481 1.00141 0.0
C1984 C 0.95321 0.36103 0.98883 0.0
C1985 C 0.96961 0.38482 0.98127 0.0
C1986 C 0.92337 0.36516 0.98982 0.0
C1987 C 0.90953 0.39322 0.9833 0.0
C1988 C 0.92629 0.41807 0.97647 0.0
C1989 C 0.9559 0.41388 0.97544 0.0
C1990 C 0.83484 0.40368 0.96898 0.0
C1991 C 0.8173 0.39714 0.98016 0.0
C1992 C 0.86459 0.40278 0.97014 0.0
C1993 C 0.87772 0.39522 0.98252 0.0
C1994 C 0.86025 0.38896 0.9938 0.0
C1995 C 0.83025 0.3902 0.99265 0.0
H1996 H 0.96695 0.33686 0.82418 0.0
H1997 H 0.96147 0.4285 0.79892 0.0
H1998 H 0.91531 0.32908 0.82266 0.0
H1999 H 0.90928 0.421 0.79747 0.0
H2000 H 0.81612 0.38047 0.79156 0.0
H2001 H 0.86859 0.38304 0.78974 0.0
H2002 H 0.87564 0.36165 0.83226 0.0
H2003 H 0.82384 0.35816 0.83394 0.0
C2004 C 0.95464 0.35539 0.81831 0.0
C2005 C 0.96815 0.3837 0.81189 0.0
C2006 C 0.92504 0.35092 0.81741 0.0
C2007 C 0.9081 0.37478 0.81015 0.0
C2008 C 0.92175 0.4021 0.80312 0.0
C2009 C 0.95156 0.40647 0.80396 0.0
C2010 C 0.829 0.3759 0.80044 0.0
C2011 C 0.81585 0.36923 0.81291 0.0
C2012 C 0.85897 0.37769 0.79944 0.0
C2013 C 0.8763 0.37242 0.81085 0.0
C2014 C 0.86301 0.36536 0.82323 0.0
C2015 C 0.83325 0.36377 0.82424 0.0
H2016 H 0.35543 0.08455 0.03903 0.0
H2017 H 0.32993 0.16989 1.0132 0.0
H2018 H 0.31755 0.04805 0.02956 0.0
H2019 H 0.29147 0.13373 1.00402 0.0
H2020 H 0.25413 0.04323 0.97806 0.0
H2021 H 0.28565 0.08475 0.98928 0.0
H2022 H 0.26651 0.03641 0.02746 0.0
H2023 H 0.23494 0.99424 1.01604 0.0
C2024 C 0.34178 0.09572 0.03136 0.0
C2025 C 0.34627 0.13038 0.02685 0.0
C2026 C 0.31963 0.07477 0.02602 0.0
C2027 C 0.3012 0.0876 1.01592 0.0
C2028 C 0.30529 0.12252 1.01163 0.0
C2029 C 0.32734 0.14353 1.01702 0.0
C2030 C 0.25602 0.0419 0.98891 0.0
C2031 C 0.24168 0.01537 0.99611 0.0
C2032 C 0.27422 0.06589 0.99539 0.0
C2033 C 0.27907 0.06412 1.00935 0.0
C2034 C 0.26374 0.0385 1.01669 0.0
C2035 C 0.24519 0.01458 1.01016 0.0
H2036 H 1.01193 0.24297 0.97579 0.0
H2037 H 0.05369 0.26378 1.01371 0.0
H2038 H 0.98 0.20163 0.98668 0.0
H2039 H 0.02132 0.22167 0.02472 0.0
H2040 H 0.96903 0.12044 0.0369 0.0
H2041 H 1.00525 0.15835 0.0265 0.0
H2042 H 0.93946 0.20613 1.00213 0.0
H2043 H 0.90354 0.16821 1.01237 0.0
C2044 C 1.01465 0.23846 0.98646 0.0
C2045 C 0.03556 0.25712 0.99381 0.0
C2046 C 0.99601 0.21477 0.99276 0.0
C2047 C 0.99752 0.20854 1.00667 0.0
C2048 C 0.01942 0.2257 1.01399 0.0
C2049 C 0.03811 0.2498 1.00765 0.0
C2050 C 0.96231 0.13883 0.02925 0.0
C2051 C 0.93316 0.14098 0.02549 0.0
C2052 C 0.98311 0.16088 0.02337 0.0
C2053 C 0.97551 0.18538 1.01338 0.0
C2054 C 0.94637 0.18741 1.00964 0.0
C2055 C 0.9256 0.16576 1.01562 0.0
H2056 H 0.22428 0.20736 0.30067 0.0
H2057 H 0.25533 0.29144 0.27559 0.0
H2058 H 0.26146 0.16863 0.29164 0.0
H2059 H 0.2919 0.25279 0.2664 0.0
H2060 H 0.37414 0.18893 0.26325 0.0
H2061 H 0.33578 0.22555 0.27191 0.0
H2062 H 0.27934 0.13588 0.2728 0.0
H2063 H 0.31802 0.09897 0.26413 0.0
C2064 C 0.23877 0.21756 0.29312 0.0
C2065 C 0.2366 0.25279 0.28895 0.0
C2066 C 0.26016 0.19521 0.28787 0.0
C2067 C 0.28018 0.20733 0.2783 0.0
C2068 C 0.2775 0.24237 0.27394 0.0
C2069 C 0.25618 0.26464 0.27916 0.0
C2070 C 0.35355 0.17685 0.26511 0.0
C2071 C 0.34948 0.14067 0.2628 0.0
C2072 C 0.33131 0.19807 0.27012 0.0
C2073 C 0.30403 0.18408 0.27304 0.0
C2074 C 0.29998 0.14782 0.27086 0.0
C2075 C 0.32229 0.12651 0.26583 0.0
H2076 H 0.90958 0.07336 0.26344 0.0
H2077 H 0.96391 0.16442 0.26728 0.0
H2078 H 0.94793 0.03653 0.27199 0.0
H2079 H 1.0026 0.12737 0.27577 0.0
H2080 H 0.05733 0.05431 0.30287 0.0
H2081 H 0.02006 0.09301 0.29399 0.0
H2082 H 0.99242 0.01073 0.26706 0.0
H2083 H 0.02903 0.97202 0.27615 0.0
C2084 C 0.92979 0.08565 0.26593 0.0
C2085 C 0.93335 0.1222 0.26451 0.0
C2086 C 0.95204 0.06431 0.27087 0.0
C2087 C 0.97883 0.07856 0.27457 0.0
C2088 C 0.98235 0.11516 0.27323 0.0
C2089 C 0.96003 0.13658 0.2683 0.0
C2090 C 0.04346 0.04452 0.29498 0.0
C2091 C 0.04642 0.00978 0.2903 0.0
C2092 C 0.02199 0.06687 0.28982 0.0
C2093 C 1.00271 0.05527 0.27979 0.0
C2094 C 1.00621 0.02074 0.27494 0.0
C2095 C 0.02756 0.99845 0.2801 0.0
H2096 H 0.81303 0.95471 0.04901 0.0
H2097 H 0.77539 0.04335 0.02864 0.0
H2098 H 0.7751 0.91689 0.0401 0.0
H2099 H 0.73798 1.00569 0.01958 0.0
H2100 H 0.65725 0.93831 1.01658 0.0
H2101 H 0.69581 0.9747 0.02531 0.0
H2102 H 0.75496 0.8884 0.02083 0.0
H2103 H 0.7163 0.85186 1.01212 0.0
C2104 C 0.79689 0.96618 0.04253 0.0
C2105 C 0.79755 1.00236 0.03963 0.0
C2106 C 0.77504 0.94435 0.03735 0.0
C2107 C 0.75298 0.95792 0.02911 0.0
C2108 C 0.75401 0.99403 0.02606 0.0
C2109 C 0.77581 0.01576 0.03121 0.0
C2110 C 0.67844 0.92695 1.0173 0.0
C2111 C 0.68323 0.89176 1.01349 0.0
C2112 C 0.7008 0.94805 0.02235 0.0
C2113 C 0.72894 0.93491 0.02381 0.0
C2114 C 0.73371 0.89965 0.02008 0.0
C2115 C 0.71133 0.87852 1.01502 0.0
H2116 H 0.06421 0.90441 1.00489 0.0
H2117 H 0.12714 0.83547 0.02251 0.0
H2118 H 0.02592 0.86555 1.01248 0.0
H2119 H 0.08871 0.79633 0.03007 0.0
H2120 H 1.00969 0.74848 0.05171 0.0
H2121 H 0.0469 0.79143 0.04588 0.0
H2122 H 1.00716 0.80676 1.00715 0.0
H2123 H 0.97036 0.76387 1.01292 0.0
C2124 C 0.06997 0.88113 1.01048 0.0
C2125 C 0.09901 0.87331 1.01304 0.0
C2126 C 0.0479 0.85857 1.01476 0.0
C2127 C 0.05399 0.82757 0.02193 0.0
C2128 C 0.08301 0.82002 0.0247 0.0
C2129 C 0.10516 0.84236 0.02024 0.0
C2130 C 1.00855 0.76156 0.04206 0.0
C2131 C 0.98672 0.75279 0.03285 0.0
C2132 C 0.03015 0.78592 0.03864 0.0
C2133 C 0.03029 0.80271 0.02599 0.0
C2134 C 1.00781 0.79479 1.01702 0.0
C2135 C 0.98659 0.77008 0.02034 0.0
H2136 H 0.71784 0.89373 0.78678 0.0
H2137 H 0.65198 0.84573 0.76251 0.0
H2138 H 0.75397 0.85584 0.77619 0.0
H2139 H 0.68789 0.80801 0.75199 0.0
H2140 H 0.76073 0.77459 0.72478 0.0
H2141 H 0.72856 0.81461 0.73626 0.0
H2142 H 0.77003 0.79153 0.77398 0.0
H2143 H 0.80254 0.75045 0.76237 0.0
C2144 C 0.71101 0.87525 0.77915 0.0
C2145 C 0.68179 0.8731 0.7755 0.0
C2146 C 0.73177 0.85323 0.77316 0.0
C2147 C 0.72408 0.82879 0.76314 0.0
C2148 C 0.69485 0.82666 0.75954 0.0
C2149 C 0.6741 0.84821 0.76566 0.0
C2150 C 0.76344 0.77808 0.73552 0.0
C2151 C 0.78446 0.75883 0.74257 0.0
C2152 C 0.74465 0.80104 0.74215 0.0
C2153 C 0.74614 0.80609 0.75614 0.0
C2154 C 0.76812 0.78837 0.7632 0.0
C2155 C 0.78692 0.76488 0.75652 0.0
H2156 H 0.02476 0.99575 0.7243 0.0
H2157 H 0.97897 0.01547 0.76127 0.0
H2158 H 0.05712 0.95648 0.73601 0.0
H2159 H 1.01167 0.9751 0.77308 0.0
H2160 H 0.06485 0.87321 0.78534 0.0
H2161 H 0.02889 0.91085 0.77455 0.0
H2162 H 0.0961 0.96395 0.75287 0.0
H2163 H 0.13189 0.92648 0.76361 0.0
C2164 C 0.02122 0.99144 0.73493 0.0
C2165 C 0.99901 0.0092 0.74177 0.0
C2166 C 0.04012 0.96893 0.7417 0.0
C2167 C 0.03749 0.96285 0.75558 0.0
C2168 C 1.01444 0.97911 0.76239 0.0
C2169 C 0.99556 1.00219 0.7556 0.0
C2170 C 0.07198 0.89283 0.77824 0.0
C2171 C 0.10146 0.89653 0.77534 0.0
C2172 C 0.05131 0.91468 0.77213 0.0
C2173 C 0.0594 0.94048 0.76275 0.0
C2174 C 0.08889 0.94422 0.75992 0.0
C2175 C 0.10954 0.92282 0.76617 0.0
H2176 H 0.37548 0.60254 0.51061 0.0
H2177 H 0.31758 0.63444 0.54208 0.0
H2178 H 0.33722 0.56672 0.50047 0.0
H2179 H 0.27969 0.59781 0.53223 0.0
H2180 H 0.23641 0.48997 0.51742 0.0
H2181 H 0.27323 0.52771 0.52755 0.0
H2182 H 0.28438 0.58062 0.48966 0.0
H2183 H 0.24682 0.54385 0.47964 0.0
C2184 C 0.35466 0.60175 0.5154 0.0
C2185 C 0.34964 0.62155 0.52713 0.0
C2186 C 0.33268 0.58136 0.50956 0.0
C2187 C 0.30529 0.57936 0.51551 0.0
C2188 C 0.30047 0.59867 0.52738 0.0
C2189 C 0.32217 0.61981 0.53299 0.0
C2190 C 0.24638 0.50999 0.51128 0.0
C2191 C 0.23826 0.51399 0.49772 0.0
C2192 C 0.26755 0.5316 0.5171 0.0
C2193 C 0.28192 0.55716 0.50942 0.0
C2194 C 0.27388 0.56115 0.49586 0.0
C2195 C 0.25212 0.54022 0.49015 0.0
H2196 H 0.91228 0.68731 0.52597 0.0
H2197 H 0.96376 0.59485 0.51932 0.0
H2198 H 0.95094 0.72377 0.51746 0.0
H2199 H 1.00276 0.63143 0.51094 0.0
H2200 H 0.05733 0.70548 0.48426 0.0
H2201 H 0.01985 0.66715 0.49317 0.0
H2202 H 0.99633 0.74733 0.52183 0.0
H2203 H 0.03305 0.7857 0.51271 0.0
C2204 C 0.93195 0.67462 0.52288 0.0
C2205 C 0.93459 0.63782 0.52346 0.0
C2206 C 0.95437 0.69572 0.51796 0.0
C2207 C 0.98044 0.68094 0.51348 0.0
C2208 C 0.98308 0.64408 0.51407 0.0
C2209 C 0.96057 0.62294 0.51894 0.0
C2210 C 0.04434 0.71484 0.49254 0.0
C2211 C 0.04846 0.74894 0.49769 0.0
C2212 C 0.02274 0.69272 0.49772 0.0
C2213 C 1.00451 0.70389 0.50823 0.0
C2214 C 1.00923 0.73771 0.51357 0.0
C2215 C 0.03068 0.75978 0.50838 0.0
H2216 H 0.35667 0.68297 0.75183 0.0
H2217 H 0.33238 0.60089 0.77943 0.0
H2218 H 0.31916 0.72055 0.76101 0.0
H2219 H 0.29427 0.63792 0.78821 0.0
H2220 H 0.25626 0.72935 0.81291 0.0
H2221 H 0.28813 0.68762 0.80211 0.0
H2222 H 0.26859 0.73325 0.76347 0.0
H2223 H 0.23672 0.77585 0.77451 0.0
C2224 C 0.3434 0.6727 0.75982 0.0
C2225 C 0.34817 0.6386 0.76489 0.0
C2226 C 0.32144 0.69429 0.765 0.0
C2227 C 0.30342 0.68268 0.77547 0.0
C2228 C 0.30778 0.6483 0.78031 0.0
C2229 C 0.32968 0.62672 0.77514 0.0
C2230 C 0.25817 0.73011 0.80206 0.0
C2231 C 0.24359 0.75602 0.79463 0.0
C2232 C 0.27658 0.70595 0.79581 0.0
C2233 C 0.28138 0.70678 0.78183 0.0
C2234 C 0.26589 0.73185 0.77426 0.0
C2235 C 0.24716 0.75602 0.78057 0.0
H2236 H 0.02085 0.536 0.8124 0.0
H2237 H 0.04423 0.49008 0.77432 0.0
H2238 H 0.9892 0.57699 0.80108 0.0
H2239 H 1.01252 0.53189 0.76277 0.0
H2240 H 0.92442 0.58045 0.74977 0.0
H2241 H 0.96167 0.54345 0.75953 0.0
H2242 H 0.98396 0.62669 0.78705 0.0
H2243 H 0.94618 0.66313 0.77767 0.0
C2244 C 0.01982 0.53522 0.80152 0.0
C2245 C 0.03543 0.50972 0.79433 0.0
C2246 C 1.00154 0.55894 0.79497 0.0
C2247 C 0.99789 0.55802 0.78091 0.0
C2248 C 1.01436 0.53333 0.7736 0.0
C2249 C 0.03298 0.50964 0.78021 0.0
C2250 C 0.93708 0.59097 0.75794 0.0
C2251 C 0.93171 0.62507 0.76291 0.0
C2252 C 0.95887 0.56972 0.76346 0.0
C2253 C 0.97608 0.5817 0.7742 0.0
C2254 C 0.97109 0.61606 0.77896 0.0
C2255 C 0.94939 0.63729 0.77343 0.0
H2256 H 0.69563 0.35234 0.52807 0.0
H2257 H 0.67875 0.43204 0.49831 0.0
H2258 H 0.73348 0.38849 0.53761 0.0
H2259 H 0.71612 0.46879 0.50818 0.0
H2260 H 0.79966 0.51918 0.52334 0.0
H2261 H 0.76725 0.47767 0.51209 0.0
H2262 H 0.73871 0.4403 0.55079 0.0
H2263 H 0.77106 0.48106 0.56187 0.0
C2264 C 0.69997 0.37745 0.52346 0.0
C2265 C 0.68367 0.38898 0.51236 0.0
C2266 C 0.72168 0.39852 0.52906 0.0
C2267 C 0.72805 0.43194 0.52379 0.0
C2268 C 0.71221 0.44321 0.51251 0.0
C2269 C 0.69037 0.42216 0.50692 0.0
C2270 C 0.78701 0.50144 0.52942 0.0
C2271 C 0.78827 0.50345 0.54355 0.0
C2272 C 0.76804 0.47791 0.52297 0.0
C2273 C 0.74999 0.45547 0.53046 0.0
C2274 C 0.75229 0.45663 0.54457 0.0
C2275 C 0.77096 0.48022 0.55098 0.0
H2276 H 0.06486 0.39626 0.49955 0.0
H2277 H 0.12876 0.34903 0.52512 0.0
H2278 H 0.02787 0.35881 0.50975 0.0
H2279 H 0.09211 0.31189 0.53523 0.0
H2280 H 0.01795 0.27948 0.56137 0.0
H2281 H 0.04999 0.32019 0.55023 0.0
H2282 H 1.01261 0.29333 0.51191 0.0
H2283 H 0.98023 0.25158 0.52319 0.0
C2284 C 0.07104 0.37808 0.50739 0.0
C2285 C 0.09995 0.37589 0.51151 0.0
C2286 C 0.04983 0.35635 0.51315 0.0
C2287 C 0.05682 0.33229 0.52339 0.0
C2288 C 0.08572 0.33025 0.52748 0.0
C2289 C 0.10689 0.35147 0.52161 0.0
C2290 C 1.01609 0.28234 0.55057 0.0
C2291 C 0.99637 0.26179 0.54324 0.0
C2292 C 0.03477 0.3057 0.54415 0.0
C2293 C 0.03443 0.30978 0.53011 0.0
C2294 C 1.01357 0.2909 0.52275 0.0
C2295 C 0.99486 0.26704 0.52922 0.0
H2296 H 0.69224 0.40465 0.2541 0.0
H2297 H 0.68546 0.34103 0.28979 0.0
H2298 H 0.73148 0.36798 0.2461 0.0
H2299 H 0.72495 0.30464 0.28191 0.0
H2300 H 0.77566 0.22305 0.25813 0.0
H2301 H 0.73807 0.26132 0.26645 0.0
H2302 H 0.77996 0.35019 0.24812 0.0
H2303 H 0.81734 0.31129 0.23934 0.0
C2304 C 0.69923 0.38312 0.26037 0.0
C2305 C 0.68523 0.37604 0.27265 0.0
C2306 C 0.722 0.36194 0.25575 0.0
C2307 C 0.73175 0.33287 0.26324 0.0
C2308 C 0.71796 0.32614 0.27562 0.0
C2309 C 0.69514 0.34722 0.28021 0.0
C2310 C 0.77704 0.25075 0.25583 0.0
C2311 C 0.79982 0.26376 0.24795 0.0
C2312 C 0.75538 0.27297 0.26075 0.0
C2313 C 0.75557 0.30929 0.25808 0.0
C2314 C 0.77856 0.32245 0.25031 0.0
C2315 C 0.80028 0.30008 0.24533 0.0
H2316 H 1.00865 0.47679 0.22596 0.0
H2317 H 0.98234 0.51788 0.26445 0.0
H2318 H 0.04088 0.43594 0.23705 0.0
H2319 H 1.01457 0.47628 0.27571 0.0
H2320 H 0.10329 0.43087 0.28896 0.0
H2321 H 0.06554 0.46705 0.2792 0.0
H2322 H 0.04677 0.385 0.25058 0.0
H2323 H 0.08511 0.34934 0.26003 0.0
C2324 C 1.0092 0.47656 0.23685 0.0
C2325 C 0.9926 0.50069 0.24426 0.0
C2326 C 0.0278 0.45292 0.24326 0.0
C2327 C 0.03074 0.4526 0.25736 0.0
C2328 C 1.01331 0.47586 0.26484 0.0
C2329 C 0.99441 0.49944 0.25839 0.0
C2330 C 0.09128 0.42046 0.28055 0.0
C2331 C 0.09779 0.38697 0.27529 0.0
C2332 C 0.06921 0.44118 0.27503 0.0
C2333 C 0.05286 0.42929 0.264 0.0
C2334 C 0.05896 0.39551 0.25893 0.0
C2335 C 0.08095 0.37474 0.26448 0.0
H2336 H 0.75946 0.97129 0.51047 0.0
H2337 H 0.71783 0.05852 0.49094 0.0
H2338 H 0.79682 0.01023 0.5187 0.0
H2339 H 0.75488 0.09795 0.49956 0.0
H2340 H 0.84179 0.15365 0.50524 0.0
H2341 H 0.80307 0.11592 0.49746 0.0
H2342 H 0.81001 0.05463 0.53378 0.0
H2343 H 0.849 0.09214 0.54146 0.0
C2344 C 0.758 0.9989 0.50802 0.0
C2345 C 0.73531 0.01146 0.49996 0.0
C2346 C 0.77954 0.0215 0.51286 0.0
C2347 C 0.77931 0.05769 0.5099 0.0
C2348 C 0.75637 0.07034 0.50197 0.0
C2349 C 0.7348 0.04765 0.49708 0.0
C2350 C 0.835 0.13236 0.51167 0.0
C2351 C 0.84897 0.12623 0.52404 0.0
C2352 C 0.81253 0.11054 0.50718 0.0
C2353 C 0.80301 0.08175 0.51488 0.0
C2354 C 0.8168 0.0759 0.52733 0.0
C2355 C 0.83934 0.09764 0.5318 0.0
H2356 H 0.44676 0.10387 0.51062 0.0
H2357 H 0.42325 0.1873 0.53787 0.0
H2358 H 0.48436 0.14046 0.50125 0.0
H2359 H 0.46051 0.22448 0.52812 0.0
H2360 H 0.54428 0.27704 0.51372 0.0
H2361 H 0.51179 0.23607 0.52522 0.0
H2362 H 0.48958 0.18982 0.48697 0.0
H2363 H 0.52193 0.23004 0.47569 0.0
C2364 C 0.44955 0.12992 0.51472 0.0
C2365 C 0.43147 0.14225 0.52508 0.0
C2366 C 0.47116 0.15125 0.5092 0.0
C2367 C 0.47571 0.18584 0.51379 0.0
C2368 C 0.45805 0.19801 0.52433 0.0
C2369 C 0.43628 0.17667 0.52984 0.0
C2370 C 0.53306 0.25744 0.50783 0.0
C2371 C 0.5361 0.25678 0.49374 0.0
C2372 C 0.514 0.23422 0.51441 0.0
C2373 C 0.49767 0.2094 0.5071 0.0
C2374 C 0.50179 0.20799 0.49308 0.0
C2375 C 0.52049 0.23126 0.48655 0.0
H2376 H 0.83708 0.1033 0.77722 0.0
H2377 H 0.85798 0.18606 0.7493 0.0
H2378 H 0.79919 0.13936 0.78669 0.0
H2379 H 0.82061 0.22273 0.75918 0.0
H2380 H 0.73771 0.27513 0.77418 0.0
H2381 H 0.76982 0.2339 0.76254 0.0
H2382 H 0.79359 0.18886 0.80076 0.0
H2383 H 0.7615 0.22922 0.81216 0.0
C2384 C 0.83368 0.12908 0.77299 0.0
C2385 C 0.85115 0.14141 0.76243 0.0
C2386 C 0.8119 0.15011 0.77858 0.0
C2387 C 0.80664 0.1844 0.77385 0.0
C2388 C 0.82363 0.1965 0.76309 0.0
C2389 C 0.84549 0.17545 0.7575 0.0
C2390 C 0.74918 0.25573 0.78003 0.0
C2391 C 0.74668 0.25547 0.79414 0.0
C2392 C 0.76802 0.23236 0.77337 0.0
C2393 C 0.78471 0.20784 0.78063 0.0
C2394 C 0.78109 0.20678 0.79469 0.0
C2395 C 0.76256 0.23016 0.80129 0.0
H2396 H 0.46427 0.16976 0.76649 0.0
H2397 H 0.41069 0.07795 0.76306 0.0
H2398 H 0.50335 0.13347 0.77501 0.0
H2399 H 0.44946 0.04181 0.77169 0.0
H2400 H 0.53104 0.97835 0.77618 0.0
H2401 H 0.49399 0.01622 0.767 0.0
H2402 H 0.5217 0.10007 0.79319 0.0
H2403 H 0.55945 0.06217 0.80215 0.0
C2404 C 0.46062 0.1419 0.76761 0.0
C2405 C 0.434 0.12711 0.76394 0.0
C2406 C 0.4832 0.12092 0.77257 0.0
C2407 C 0.48003 0.0843 0.77407 0.0
C2408 C 0.45332 0.06962 0.77046 0.0
C2409 C 0.43082 0.09055 0.76548 0.0
C2410 C 0.5295 1.00495 0.77995 0.0
C2411 C 0.54856 0.01693 0.78997 0.0
C2412 C 0.50787 0.02676 0.77473 0.0
C2413 C 0.50422 0.06149 0.77935 0.0
C2414 C 0.5237 0.07376 0.78919 0.0
C2415 C 0.54547 0.05188 0.7944 0.0
H2416 H 0.19971 0.84977 0.52733 0.0
H2417 H 0.17458 0.93497 0.50136 0.0
H2418 H 0.23762 0.88625 0.53685 0.0
H2419 H 0.21207 0.97174 0.51111 0.0
H2420 H 0.29582 0.02399 0.5247 0.0
H2421 H 0.26374 0.98235 0.51331 0.0
H2422 H 0.24255 0.93603 0.55161 0.0
H2423 H 0.27446 0.97719 0.56284 0.0
C2424 C 0.20228 0.87618 0.52356 0.0
C2425 C 0.18367 0.88919 0.51356 0.0
C2426 C 0.224 0.89734 0.52913 0.0
C2427 C 0.22812 0.93226 0.52485 0.0
C2428 C 0.20993 0.94502 0.51464 0.0
C2429 C 0.18805 0.92393 0.50913 0.0
C2430 C 0.28494 1.00426 0.53063 0.0
C2431 C 0.28805 1.0039 0.54471 0.0
C2432 C 0.26614 0.98064 0.52412 0.0
C2433 C 0.25017 0.9557 0.53148 0.0
C2434 C 0.25448 0.9544 0.54549 0.0
C2435 C 0.27291 0.97816 0.55197 0.0
H2436 H 0.5862 0.91036 0.53089 0.0
H2437 H 0.60435 0.83028 0.50137 0.0
H2438 H 0.54845 0.87385 0.54031 0.0
H2439 H 0.5672 0.79322 0.51111 0.0
H2440 H 0.48473 0.74065 0.52602 0.0
H2441 H 0.51653 0.78287 0.51483 0.0
H2442 H 0.54297 0.82259 0.55357 0.0
H2443 H 0.51118 0.78117 0.56457 0.0
C2444 C 0.58218 0.88509 0.52631 0.0
C2445 C 0.59885 0.87357 0.51533 0.0
C2446 C 0.56052 0.86381 0.53185 0.0
C2447 C 0.55456 0.83016 0.52661 0.0
C2448 C 0.57075 0.81895 0.51542 0.0
C2449 C 0.5925 0.8402 0.50991 0.0
C2450 C 0.49673 0.75909 0.53211 0.0
C2451 C 0.49507 0.75751 0.54624 0.0
C2452 C 0.51539 0.78303 0.5257 0.0
C2453 C 0.53274 0.80633 0.53322 0.0
C2454 C 0.52995 0.80563 0.54732 0.0
C2455 C 0.51159 0.78165 0.55369 0.0
H2456 H 0.29808 0.74156 0.26362 0.0
H2457 H 0.27517 0.78761 0.22553 0.0
H2458 H 0.26568 0.78261 0.27511 0.0
H2459 H 0.24283 0.82804 0.23684 0.0
H2460 H 0.19856 0.91319 0.26098 0.0
H2461 H 0.23688 0.87763 0.25135 0.0
H2462 H 0.21439 0.79237 0.2778 0.0
H2463 H 0.17659 0.8283 0.28771 0.0
C2464 C 0.28676 0.761 0.25771 0.0
C2465 C 0.28956 0.76131 0.24361 0.0
C2466 C 0.26776 0.78426 0.26428 0.0
C2467 C 0.25122 0.80878 0.25697 0.0
C2468 C 0.25519 0.81003 0.24294 0.0
C2469 C 0.27387 0.78666 0.2364 0.0
C2470 C 0.20189 0.88705 0.26489 0.0
C2471 C 0.18402 0.87386 0.27514 0.0
C2472 C 0.22386 0.86638 0.25925 0.0
C2473 C 0.22895 0.83178 0.26368 0.0
C2474 C 0.21152 0.81887 0.27414 0.0
C2475 C 0.18943 0.83947 0.27974 0.0
H2476 H 0.4746 0.95679 0.23846 0.0
H2477 H 0.50643 0.04319 0.26222 0.0
H2478 H 0.51197 0.91893 0.24774 0.0
H2479 H 0.54327 1.00535 0.2717 0.0
H2480 H 0.62507 0.93979 0.27594 0.0
H2481 H 0.587 0.97672 0.26702 0.0
H2482 H 0.52966 0.88787 0.26668 0.0
H2483 H 0.56784 0.85088 0.27552 0.0
C2484 C 0.4893 0.96771 0.24578 0.0
C2485 C 0.48721 1.0033 0.24952 0.0
C2486 C 0.51084 0.94585 0.25118 0.0
C2487 C 0.53112 0.95876 0.26051 0.0
C2488 C 0.52864 0.99425 0.26439 0.0
C2489 C 0.50716 0.01605 0.25901 0.0
C2490 C 0.60435 0.92802 0.27411 0.0
C2491 C 0.59993 0.89198 0.27655 0.0
C2492 C 0.58227 0.94939 0.26896 0.0
C2493 C 0.55483 0.93567 0.26606 0.0
C2494 C 0.55042 0.89963 0.26852 0.0
C2495 C 0.57251 0.87823 0.27366 0.0
H2496 H 0.88204 0.59037 1.01461 0.0
H2497 H 0.81552 0.64516 0.03623 0.0
H2498 H 0.84593 0.55288 1.0041 0.0
H2499 H 0.77925 0.60761 0.02565 0.0
H2500 H 0.72804 0.50394 1.01321 0.0
H2501 H 0.76133 0.54438 0.02459 0.0
H2502 H 0.80707 0.55897 0.98734 0.0
H2503 H 0.77413 0.51947 0.97605 0.0
C2504 C 0.85974 0.59439 1.01719 0.0
C2505 C 0.8519 0.62108 0.02627 0.0
C2506 C 0.8389 0.57299 1.01106 0.0
C2507 C 0.80946 0.57717 1.01392 0.0
C2508 C 0.80161 0.60343 0.0232 0.0
C2509 C 0.82247 0.62523 0.02919 0.0
C2510 C 0.74484 0.51633 1.00739 0.0
C2511 C 0.74817 0.50815 0.99365 0.0
C2512 C 0.76405 0.53946 1.01394 0.0
C2513 C 0.78733 0.55465 1.00696 0.0
C2514 C 0.78989 0.54737 0.99316 0.0
C2515 C 0.77066 0.52476 0.98663 0.0
H2516 H 0.4636 0.59709 0.02189 0.0
H2517 H 0.4094 0.68863 0.02448 0.0
H2518 H 0.50284 0.63351 1.01362 0.0
H2519 H 0.44835 0.72484 1.01616 0.0
H2520 H 0.52991 0.78858 1.01277 0.0
H2521 H 0.49276 0.75037 0.02162 0.0
H2522 H 0.52139 0.66714 0.99536 0.0
H2523 H 0.5592 0.7054 0.9867 0.0
C2524 C 0.45985 0.62489 0.02064 0.0
C2525 C 0.43302 0.6396 0.02402 0.0
C2526 C 0.48251 0.64594 1.01584 0.0
C2527 C 0.47921 0.6825 1.01422 0.0
C2528 C 0.45228 0.69707 1.0175 0.0
C2529 C 0.42969 0.67609 0.02231 0.0
C2530 C 0.52856 0.76205 1.00891 0.0
C2531 C 0.54785 0.75034 0.99895 0.0
C2532 C 0.50688 0.74005 1.01393 0.0
C2533 C 0.50348 0.70542 1.00918 0.0
C2534 C 0.52321 0.6934 0.99943 0.0
C2535 C 0.54501 0.71547 0.9944 0.0
H2536 H 0.85754 0.68312 0.25226 0.0
H2537 H 0.83304 0.59944 0.2791 0.0
H2538 H 0.81992 0.72018 0.26174 0.0
H2539 H 0.79496 0.63593 0.28818 0.0
H2540 H 0.75677 0.72581 0.3136 0.0
H2541 H 0.78914 0.68512 0.30251 0.0
H2542 H 0.7688 0.73184 0.26416 0.0
H2543 H 0.73637 0.77331 0.27546 0.0
C2544 C 0.8442 0.67241 0.26014 0.0
C2545 C 0.84886 0.63799 0.26489 0.0
C2546 C 0.82222 0.69368 0.26549 0.0
C2547 C 0.80414 0.68139 0.27583 0.0
C2548 C 0.8085 0.64677 0.28039 0.0
C2549 C 0.83037 0.62552 0.27503 0.0
C2550 C 0.75862 0.72701 0.30275 0.0
C2551 C 0.74362 0.75284 0.29547 0.0
C2552 C 0.77732 0.70348 0.29634 0.0
C2553 C 0.782 0.70495 0.28236 0.0
C2554 C 0.76616 0.72998 0.27495 0.0
C2555 C 0.74713 0.75348 0.2814 0.0
H2556 H 0.51107 0.51842 0.31227 0.0
H2557 H 0.55609 0.50291 0.27482 0.0
H2558 H 0.4776 0.55764 0.30122 0.0
H2559 H 0.52227 0.5431 0.26367 0.0
H2560 H 0.46741 0.64377 0.25249 0.0
H2561 H 0.50406 0.60619 0.26272 0.0
H2562 H 0.4382 0.55154 0.28475 0.0
H2563 H 0.40169 0.58907 0.27458 0.0
C2564 C 0.51418 0.52365 0.30167 0.0
C2565 C 0.53656 0.50712 0.29451 0.0
C2566 C 0.49465 0.5461 0.29528 0.0
C2567 C 0.49674 0.55333 0.28146 0.0
C2568 C 0.51989 0.53822 0.27433 0.0
C2569 C 0.53942 0.51523 0.28074 0.0
C2570 C 0.46071 0.62384 0.25955 0.0
C2571 C 0.43138 0.61976 0.26272 0.0
C2572 C 0.48179 0.60201 0.26534 0.0
C2573 C 0.47431 0.57578 0.27467 0.0
C2574 C 0.44497 0.57163 0.27775 0.0
C2575 C 0.42389 0.59305 0.27182 0.0
H2576 H 0.19117 0.35879 0.03352 0.0
H2577 H 0.18628 0.42095 0.99737 0.0
H2578 H 0.23021 0.39552 0.04169 0.0
H2579 H 0.2255 0.45746 1.00546 0.0
H2580 H 0.27465 0.53998 0.02959 0.0
H2581 H 0.23749 0.50141 0.02102 0.0
H2582 H 0.27902 0.41296 0.03987 0.0
H2583 H 0.31602 0.45211 0.04883 0.0
C2584 C 0.19854 0.37999 0.02719 0.0
C2585 C 0.18511 0.38667 1.01473 0.0
C2586 C 0.22117 0.40121 0.03191 0.0
C2587 C 0.23132 0.42993 0.02435 0.0
C2588 C 0.21816 0.43623 1.01179 0.0
C2589 C 0.1955 0.41508 1.00709 0.0
C2590 C 0.27608 0.5123 0.03192 0.0
C2591 C 0.29864 0.49945 0.03999 0.0
C2592 C 0.25466 0.48992 0.02687 0.0
C2593 C 0.25489 0.45365 0.02963 0.0
C2594 C 0.27763 0.44067 0.0376 0.0
C2595 C 0.29913 0.46317 0.04269 0.0
H2596 H 0.47855 0.30984 0.05543 0.0
H2597 H 0.49904 0.23106 0.02576 0.0
H2598 H 0.51636 0.34751 0.04641 0.0
H2599 H 0.53615 0.26878 1.01657 0.0
H2600 H 0.62147 0.32624 1.01206 0.0
H2601 H 0.58247 0.29046 0.02067 0.0
H2602 H 0.53302 0.38393 0.02867 0.0
H2603 H 0.57228 0.41981 0.02015 0.0
C2604 C 0.49077 0.30067 0.04687 0.0
C2605 C 0.48549 0.26714 0.04141 0.0
C2606 C 0.51257 0.32242 0.04163 0.0
C2607 C 0.52986 0.31142 0.03074 0.0
C2608 C 0.52399 0.27821 0.02511 0.0
C2609 C 0.50232 0.25653 0.03034 0.0
C2610 C 0.60225 0.33935 1.0155 0.0
C2611 C 0.60038 0.37627 1.01529 0.0
C2612 C 0.57963 0.31864 0.02047 0.0
C2613 C 0.55413 0.33393 0.02541 0.0
C2614 C 0.55226 0.37087 0.02519 0.0
C2615 C 0.57493 0.39163 0.02024 0.0
H2616 H 0.29638 0.24266 0.76501 0.0
H2617 H 0.27142 0.28586 0.72672 0.0
H2618 H 0.26419 0.28424 0.77642 0.0
H2619 H 0.23933 0.32669 0.73792 0.0
H2620 H 0.19615 0.41358 0.7612 0.0
H2621 H 0.234 0.3772 0.75175 0.0
H2622 H 0.21305 0.29471 0.77972 0.0
H2623 H 0.17567 0.33162 0.7895 0.0
C2624 C 0.28465 0.26157 0.75904 0.0
C2625 C 0.28683 0.26095 0.74491 0.0
C2626 C 0.26577 0.28513 0.76556 0.0
C2627 C 0.24876 0.30903 0.75817 0.0
C2628 C 0.25207 0.30925 0.74409 0.0
C2629 C 0.27061 0.28562 0.73761 0.0
C2630 C 0.19968 0.38791 0.76551 0.0
C2631 C 0.18236 0.37585 0.77616 0.0
C2632 C 0.22141 0.36673 0.75995 0.0
C2633 C 0.2268 0.33262 0.76484 0.0
C2634 C 0.20993 0.3208 0.77569 0.0
C2635 C 0.18808 0.34197 0.78123 0.0
H2636 H 0.47082 0.45071 0.73943 0.0
H2637 H 0.50348 0.53761 0.76268 0.0
H2638 H 0.50933 0.41343 0.74815 0.0
H2639 H 0.54137 0.50052 0.77153 0.0
H2640 H 0.62422 0.4375 0.77448 0.0
H2641 H 0.58504 0.47304 0.76584 0.0
H2642 H 0.52904 0.383 0.76704 0.0
H2643 H 0.56835 0.34733 0.77563 0.0
C2644 C 0.48596 0.46186 0.7465 0.0
C2645 C 0.48383 0.49744 0.75024 0.0
C2646 C 0.50815 0.44036 0.75156 0.0
C2647 C 0.52899 0.45373 0.76054 0.0
C2648 C 0.52638 0.48914 0.76445 0.0
C2649 C 0.5043 0.51052 0.75941 0.0
C2650 C 0.60357 0.42515 0.77305 0.0
C2651 C 0.59984 0.38921 0.77589 0.0
C2652 C 0.58086 0.44572 0.76805 0.0
C2653 C 0.55344 0.43127 0.76572 0.0
C2654 C 0.54974 0.39527 0.76849 0.0
C2655 C 0.57248 0.37466 0.77348 0.0
loop_
_geom_bond_atom_site_label_1
_geom_bond_atom_site_label_2
_geom_bond_distance
_geom_bond_site_symmetry_2
_ccdc_geom_bond_type
Co0 N4 2.148 . S
Co0 N10 2.128 . S
Co0 N20 2.194 . S
Co0 O25 2.351 . S
Co0 O26 2.155 . S
Co0 O27 2.096 . S
C1 N4 1.301 . S
C1 N5 1.328 . S
C1 H6 0.930 . S
C2 C3 1.333 . S
C2 N4 1.317 . S
C2 H7 0.930 . S
C3 C2 1.333 . S
C3 N5 1.350 . S
C3 H29 0.931 . S
N4 Co0 2.148 . S
N4 C1 1.301 . S
N4 C2 1.317 . S
N5 C1 1.328 . S
N5 C3 1.350 . S
H6 C1 0.930 . S
H7 C2 0.930 . S
C8 O9 1.224 . S
C8 O27 1.247 . S
O9 C8 1.224 . S
N10 Co0 2.128 . S
N10 C11 1.355 . S
N10 C13 1.311 . S
C11 N10 1.355 . S
C11 C12 1.363 . S
C11 H23 0.929 . S
C12 C11 1.363 . S
C12 N14 1.375 . S
C12 H30 0.931 . S
C13 N10 1.311 . S
C13 N14 1.347 . S
C13 H24 0.929 . S
N14 C12 1.375 . S
N14 C13 1.347 . S
C15 C18 1.365 . S
C15 N20 1.328 . S
C15 H21 0.929 . S
C16 C17 1.362 . S
C16 C19 1.378 . S
C16 H31 0.929 . S
C17 C16 1.362 . S
C17 C18 1.366 . S
C18 C15 1.365 . S
C18 C17 1.366 . S
C18 H32 0.930 . S
C19 C16 1.378 . S
C19 N20 1.315 . S
C19 H22 0.930 . S
N20 Co0 2.194 . S
N20 C15 1.328 . S
N20 C19 1.315 . S
H21 C15 0.929 . S
H22 C19 0.930 . S
H23 C11 0.929 . S
H24 C13 0.929 . S
O25 Co0 2.351 . S
O25 C28 1.244 . S
O26 Co0 2.155 . S
O26 C28 1.240 . S
O27 Co0 2.096 . S
O27 C8 1.247 . S
C28 O25 1.244 . S
C28 O26 1.240 . S
H29 C3 0.931 . S
H30 C12 0.931 . S
H31 C16 0.929 . S
H32 C18 0.930 . S
Co33 N37 2.148 . S
Co33 N43 2.128 . S
Co33 N53 2.194 . S
Co33 O58 2.351 . S
Co33 O59 2.155 . S
Co33 O60 2.096 . S
C34 N37 1.301 . S
C34 N38 1.328 . S
C34 H39 0.930 . S
C35 C36 1.333 . S
C35 N37 1.317 . S
C35 H40 0.930 . S
C36 C35 1.333 . S
C36 N38 1.350 . S
C36 H62 0.931 . S
N37 Co33 2.148 . S
N37 C34 1.301 . S
N37 C35 1.317 . S
N38 C34 1.328 . S
N38 C36 1.350 . S
H39 C34 0.930 . S
H40 C35 0.930 . S
C41 O42 1.224 . S
C41 O60 1.247 . S
O42 C41 1.224 . S
N43 Co33 2.128 . S
N43 C44 1.355 . S
N43 C46 1.311 . S
C44 N43 1.355 . S
C44 C45 1.363 . S
C44 H56 0.929 . S
C45 C44 1.363 . S
C45 N47 1.375 . S
C45 H63 0.931 . S
C46 N43 1.311 . S
C46 N47 1.347 . S
C46 H57 0.929 . S
N47 C45 1.375 . S
N47 C46 1.347 . S
C48 C51 1.365 . S
C48 N53 1.328 . S
C48 H54 0.929 . S
C49 C50 1.362 . S
C49 C52 1.378 . S
C49 H64 0.929 . S
C50 C49 1.362 . S
C50 C51 1.366 . S
C51 C48 1.365 . S
C51 C50 1.366 . S
C51 H65 0.930 . S
C52 C49 1.378 . S
C52 N53 1.315 . S
C52 H55 0.930 . S
N53 Co33 2.194 . S
N53 C48 1.328 . S
N53 C52 1.315 . S
H54 C48 0.929 . S
H55 C52 0.930 . S
H56 C44 0.929 . S
H57 C46 0.929 . S
O58 Co33 2.351 . S
O58 C61 1.244 . S
O59 Co33 2.155 . S
O59 C61 1.240 . S
O60 Co33 2.096 . S
O60 C41 1.247 . S
C61 O58 1.244 . S
C61 O59 1.240 . S
H62 C36 0.931 . S
H63 C45 0.931 . S
H64 C49 0.929 . S
H65 C51 0.930 . S
Co66 N70 2.148 . S
Co66 N76 2.128 . S
Co66 N86 2.194 . S
Co66 O91 2.351 . S
Co66 O92 2.155 . S
Co66 O93 2.096 . S
C67 N70 1.301 . S
C67 N71 1.328 . S
C67 H72 0.930 . S
C68 C69 1.333 . S
C68 N70 1.317 . S
C68 H73 0.930 . S
C69 C68 1.333 . S
C69 N71 1.350 . S
C69 H95 0.931 . S
N70 Co66 2.148 . S
N70 C67 1.301 . S
N70 C68 1.317 . S
N71 C67 1.328 . S
N71 C69 1.350 . S
H72 C67 0.930 . S
H73 C68 0.930 . S
C74 O75 1.224 . S
C74 O93 1.247 . S
O75 C74 1.224 . S
N76 Co66 2.128 . S
N76 C77 1.355 . S
N76 C79 1.311 . S
C77 N76 1.355 . S
C77 C78 1.363 . S
C77 H89 0.929 . S
C78 C77 1.363 . S
C78 N80 1.375 . S
C78 H96 0.931 . S
C79 N76 1.311 . S
C79 N80 1.347 . S
C79 H90 0.929 . S
N80 C78 1.375 . S
N80 C79 1.347 . S
C81 C84 1.365 . S
C81 N86 1.328 . S
C81 H87 0.929 . S
C82 C83 1.362 . S
C82 C85 1.378 . S
C82 H97 0.929 . S
C83 C82 1.362 . S
C83 C84 1.366 . S
C84 C81 1.365 . S
C84 C83 1.366 . S
C84 H98 0.930 . S
C85 C82 1.378 . S
C85 N86 1.315 . S
C85 H88 0.930 . S
N86 Co66 2.194 . S
N86 C81 1.328 . S
N86 C85 1.315 . S
H87 C81 0.929 . S
H88 C85 0.930 . S
H89 C77 0.929 . S
H90 C79 0.929 . S
O91 Co66 2.351 . S
O91 C94 1.244 . S
O92 Co66 2.155 . S
O92 C94 1.240 . S
O93 Co66 2.096 . S
O93 C74 1.247 . S
C94 O91 1.244 . S
C94 O92 1.240 . S
H95 C69 0.931 . S
H96 C78 0.931 . S
H97 C82 0.929 . S
H98 C84 0.930 . S
Co99 N103 2.148 . S
Co99 N109 2.128 . S
Co99 N119 2.194 . S
Co99 O124 2.351 . S
Co99 O125 2.155 . S
Co99 O126 2.096 . S
C100 N103 1.301 . S
C100 N104 1.328 . S
C100 H105 0.930 . S
C101 C102 1.333 . S
C101 N103 1.317 . S
C101 H106 0.930 . S
C102 C101 1.333 . S
C102 N104 1.350 . S
C102 H128 0.931 . S
N103 Co99 2.148 . S
N103 C100 1.301 . S
N103 C101 1.317 . S
N104 C100 1.328 . S
N104 C102 1.350 . S
H105 C100 0.930 . S
H106 C101 0.930 . S
C107 O108 1.224 . S
C107 O126 1.247 . S
O108 C107 1.224 . S
N109 Co99 2.128 . S
N109 C110 1.355 . S
N109 C112 1.311 . S
C110 N109 1.355 . S
C110 C111 1.363 . S
C110 H122 0.929 . S
C111 C110 1.363 . S
C111 N113 1.375 . S
C111 H129 0.931 . S
C112 N109 1.311 . S
C112 N113 1.347 . S
C112 H123 0.929 . S
N113 C111 1.375 . S
N113 C112 1.347 . S
C114 C117 1.365 . S
C114 N119 1.328 . S
C114 H120 0.929 . S
C115 C116 1.362 . S
C115 C118 1.378 . S
C115 H130 0.929 . S
C116 C115 1.362 . S
C116 C117 1.366 . S
C117 C114 1.365 . S
C117 C116 1.366 . S
C117 H131 0.930 . S
C118 C115 1.378 . S
C118 N119 1.315 . S
C118 H121 0.930 . S
N119 Co99 2.194 . S
N119 C114 1.328 . S
N119 C118 1.315 . S
H120 C114 0.929 . S
H121 C118 0.930 . S
H122 C110 0.929 . S
H123 C112 0.929 . S
O124 Co99 2.351 . S
O124 C127 1.244 . S
O125 Co99 2.155 . S
O125 C127 1.240 . S
O126 Co99 2.096 . S
O126 C107 1.247 . S
C127 O124 1.244 . S
C127 O125 1.240 . S
H128 C102 0.931 . S
H129 C111 0.931 . S
H130 C115 0.929 . S
H131 C117 0.930 . S
Co132 N136 2.148 . S
Co132 N142 2.128 . S
Co132 N152 2.194 . S
Co132 O157 2.351 . S
Co132 O158 2.155 . S
Co132 O159 2.096 . S
C133 N136 1.301 . S
C133 N137 1.328 . S
C133 H138 0.930 . S
C134 C135 1.333 . S
C134 N136 1.317 . S
C134 H139 0.930 . S
C135 C134 1.333 . S
C135 N137 1.350 . S
C135 H161 0.931 . S
N136 Co132 2.148 . S
N136 C133 1.301 . S
N136 C134 1.317 . S
N137 C133 1.328 . S
N137 C135 1.350 . S
H138 C133 0.930 . S
H139 C134 0.930 . S
C140 O141 1.224 . S
C140 O159 1.247 . S
O141 C140 1.224 . S
N142 Co132 2.128 . S
N142 C143 1.355 . S
N142 C145 1.311 . S
C143 N142 1.355 . S
C143 C144 1.363 . S
C143 H155 0.929 . S
C144 C143 1.363 . S
C144 N146 1.375 . S
C144 H162 0.931 . S
C145 N142 1.311 . S
C145 N146 1.347 . S
C145 H156 0.929 . S
N146 C144 1.375 . S
N146 C145 1.347 . S
C147 C150 1.365 . S
C147 N152 1.328 . S
C147 H153 0.929 . S
C148 C149 1.362 . S
C148 C151 1.378 . S
C148 H163 0.929 . S
C149 C148 1.362 . S
C149 C150 1.366 . S
C150 C147 1.365 . S
C150 C149 1.366 . S
C150 H164 0.930 . S
C151 C148 1.378 . S
C151 N152 1.315 . S
C151 H154 0.930 . S
N152 Co132 2.194 . S
N152 C147 1.328 . S
N152 C151 1.315 . S
H153 C147 0.929 . S
H154 C151 0.930 . S
H155 C143 0.929 . S
H156 C145 0.929 . S
O157 Co132 2.351 . S
O157 C160 1.244 . S
O158 Co132 2.155 . S
O158 C160 1.240 . S
O159 Co132 2.096 . S
O159 C140 1.247 . S
C160 O157 1.244 . S
C160 O158 1.240 . S
H161 C135 0.931 . S
H162 C144 0.931 . S
H163 C148 0.929 . S
H164 C150 0.930 . S
Co165 N169 2.148 . S
Co165 N175 2.128 . S
Co165 N185 2.194 . S
Co165 O190 2.351 . S
Co165 O191 2.155 . S
Co165 O192 2.096 . S
C166 N169 1.301 . S
C166 N170 1.328 . S
C166 H171 0.930 . S
C167 C168 1.333 . S
C167 N169 1.317 . S
C167 H172 0.930 . S
C168 C167 1.333 . S
C168 N170 1.350 . S
C168 H194 0.931 . S
N169 Co165 2.148 . S
N169 C166 1.301 . S
N169 C167 1.317 . S
N170 C166 1.328 . S
N170 C168 1.350 . S
H171 C166 0.930 . S
H172 C167 0.930 . S
C173 O174 1.224 . S
C173 O192 1.247 . S
O174 C173 1.224 . S
N175 Co165 2.128 . S
N175 C176 1.355 . S
N175 C178 1.311 . S
C176 N175 1.355 . S
C176 C177 1.363 . S
C176 H188 0.929 . S
C177 C176 1.363 . S
C177 N179 1.375 . S
C177 H195 0.931 . S
C178 N175 1.311 . S
C178 N179 1.347 . S
C178 H189 0.929 . S
N179 C177 1.375 . S
N179 C178 1.347 . S
C180 C183 1.365 . S
C180 N185 1.328 . S
C180 H186 0.929 . S
C181 C182 1.362 . S
C181 C184 1.378 . S
C181 H196 0.929 . S
C182 C181 1.362 . S
C182 C183 1.366 . S
C183 C180 1.365 . S
C183 C182 1.366 . S
C183 H197 0.930 . S
C184 C181 1.378 . S
C184 N185 1.315 . S
C184 H187 0.930 . S
N185 Co165 2.194 . S
N185 C180 1.328 . S
N185 C184 1.315 . S
H186 C180 0.929 . S
H187 C184 0.930 . S
H188 C176 0.929 . S
H189 C178 0.929 . S
O190 Co165 2.351 . S
O190 C193 1.244 . S
O191 Co165 2.155 . S
O191 C193 1.240 . S
O192 Co165 2.096 . S
O192 C173 1.247 . S
C193 O190 1.244 . S
C193 O191 1.240 . S
H194 C168 0.931 . S
H195 C177 0.931 . S
H196 C181 0.929 . S
H197 C183 0.930 . S
Co198 N202 2.148 . S
Co198 N208 2.128 . S
Co198 N218 2.194 . S
Co198 O223 2.351 . S
Co198 O224 2.155 . S
Co198 O225 2.096 . S
C199 N202 1.301 . S
C199 N203 1.328 . S
C199 H204 0.930 . S
C200 C201 1.333 . S
C200 N202 1.317 . S
C200 H205 0.930 . S
C201 C200 1.333 . S
C201 N203 1.350 . S
C201 H227 0.931 . S
N202 Co198 2.148 . S
N202 C199 1.301 . S
N202 C200 1.317 . S
N203 C199 1.328 . S
N203 C201 1.350 . S
H204 C199 0.930 . S
H205 C200 0.930 . S
C206 O207 1.224 . S
C206 O225 1.247 . S
O207 C206 1.224 . S
N208 Co198 2.128 . S
N208 C209 1.355 . S
N208 C211 1.311 . S
C209 N208 1.355 . S
C209 C210 1.363 . S
C209 H221 0.929 . S
C210 C209 1.363 . S
C210 N212 1.375 . S
C210 H228 0.931 . S
C211 N208 1.311 . S
C211 N212 1.347 . S
C211 H222 0.929 . S
N212 C210 1.375 . S
N212 C211 1.347 . S
C213 C216 1.365 . S
C213 N218 1.328 . S
C213 H219 0.929 . S
C214 C215 1.362 . S
C214 C217 1.378 . S
C214 H229 0.929 . S
C215 C214 1.362 . S
C215 C216 1.366 . S
C216 C213 1.365 . S
C216 C215 1.366 . S
C216 H230 0.930 . S
C217 C214 1.378 . S
C217 N218 1.315 . S
C217 H220 0.930 . S
N218 Co198 2.194 . S
N218 C213 1.328 . S
N218 C217 1.315 . S
H219 C213 0.929 . S
H220 C217 0.930 . S
H221 C209 0.929 . S
H222 C211 0.929 . S
O223 Co198 2.351 . S
O223 C226 1.244 . S
O224 Co198 2.155 . S
O224 C226 1.240 . S
O225 Co198 2.096 . S
O225 C206 1.247 . S
C226 O223 1.244 . S
C226 O224 1.240 . S
H227 C201 0.931 . S
H228 C210 0.931 . S
H229 C214 0.929 . S
H230 C216 0.930 . S
Co231 N235 2.148 . S
Co231 N241 2.128 . S
Co231 N251 2.194 . S
Co231 O256 2.351 . S
Co231 O257 2.155 . S
Co231 O258 2.096 . S
C232 N235 1.301 . S
C232 N236 1.328 . S
C232 H237 0.930 . S
C233 C234 1.333 . S
C233 N235 1.317 . S
C233 H238 0.930 . S
C234 C233 1.333 . S
C234 N236 1.350 . S
C234 H260 0.931 . S
N235 Co231 2.148 . S
N235 C232 1.301 . S
N235 C233 1.317 . S
N236 C232 1.328 . S
N236 C234 1.350 . S
H237 C232 0.930 . S
H238 C233 0.930 . S
C239 O240 1.224 . S
C239 O258 1.247 . S
O240 C239 1.224 . S
N241 Co231 2.128 . S
N241 C242 1.355 . S
N241 C244 1.311 . S
C242 N241 1.355 . S
C242 C243 1.363 . S
C242 H254 0.929 . S
C243 C242 1.363 . S
C243 N245 1.375 . S
C243 H261 0.931 . S
C244 N241 1.311 . S
C244 N245 1.347 . S
C244 H255 0.929 . S
N245 C243 1.375 . S
N245 C244 1.347 . S
C246 C249 1.365 . S
C246 N251 1.328 . S
C246 H252 0.929 . S
C247 C248 1.362 . S
C247 C250 1.378 . S
C247 H262 0.929 . S
C248 C247 1.362 . S
C248 C249 1.366 . S
C249 C246 1.365 . S
C249 C248 1.366 . S
C249 H263 0.930 . S
C250 C247 1.378 . S
C250 N251 1.315 . S
C250 H253 0.930 . S
N251 Co231 2.194 . S
N251 C246 1.328 . S
N251 C250 1.315 . S
H252 C246 0.929 . S
H253 C250 0.930 . S
H254 C242 0.929 . S
H255 C244 0.929 . S
O256 Co231 2.351 . S
O256 C259 1.244 . S
O257 Co231 2.155 . S
O257 C259 1.240 . S
O258 Co231 2.096 . S
O258 C239 1.247 . S
C259 O256 1.244 . S
C259 O257 1.240 . S
H260 C234 0.931 . S
H261 C243 0.931 . S
H262 C247 0.929 . S
H263 C249 0.930 . S
Co264 N268 2.148 . S
Co264 N274 2.128 . S
Co264 N284 2.194 . S
Co264 O289 2.351 . S
Co264 O290 2.155 . S
Co264 O291 2.096 . S
C265 N268 1.301 . S
C265 N269 1.328 . S
C265 H270 0.930 . S
C266 C267 1.333 . S
C266 N268 1.317 . S
C266 H271 0.930 . S
C267 C266 1.333 . S
C267 N269 1.350 . S
C267 H293 0.931 . S
N268 Co264 2.148 . S
N268 C265 1.301 . S
N268 C266 1.317 . S
N269 C265 1.328 . S
N269 C267 1.350 . S
H270 C265 0.930 . S
H271 C266 0.930 . S
C272 O273 1.224 . S
C272 O291 1.247 . S
O273 C272 1.224 . S
N274 Co264 2.128 . S
N274 C275 1.355 . S
N274 C277 1.311 . S
C275 N274 1.355 . S
C275 C276 1.363 . S
C275 H287 0.929 . S
C276 C275 1.363 . S
C276 N278 1.375 . S
C276 H294 0.931 . S
C277 N274 1.311 . S
C277 N278 1.347 . S
C277 H288 0.929 . S
N278 C276 1.375 . S
N278 C277 1.347 . S
C279 C282 1.365 . S
C279 N284 1.328 . S
C279 H285 0.929 . S
C280 C281 1.362 . S
C280 C283 1.378 . S
C280 H295 0.929 . S
C281 C280 1.362 . S
C281 C282 1.366 . S
C282 C279 1.365 . S
C282 C281 1.366 . S
C282 H296 0.930 . S
C283 C280 1.378 . S
C283 N284 1.315 . S
C283 H286 0.930 . S
N284 Co264 2.194 . S
N284 C279 1.328 . S
N284 C283 1.315 . S
H285 C279 0.929 . S
H286 C283 0.930 . S
H287 C275 0.929 . S
H288 C277 0.929 . S
O289 Co264 2.351 . S
O289 C292 1.244 . S
O290 Co264 2.155 . S
O290 C292 1.240 . S
O291 Co264 2.096 . S
O291 C272 1.247 . S
C292 O289 1.244 . S
C292 O290 1.240 . S
H293 C267 0.931 . S
H294 C276 0.931 . S
H295 C280 0.929 . S
H296 C282 0.930 . S
Co297 N301 2.148 . S
Co297 N307 2.128 . S
Co297 N317 2.194 . S
Co297 O322 2.351 . S
Co297 O323 2.155 . S
Co297 O324 2.096 . S
C298 N301 1.301 . S
C298 N302 1.328 . S
C298 H303 0.930 . S
C299 C300 1.333 . S
C299 N301 1.317 . S
C299 H304 0.930 . S
C300 C299 1.333 . S
C300 N302 1.350 . S
C300 H326 0.931 . S
N301 Co297 2.148 . S
N301 C298 1.301 . S
N301 C299 1.317 . S
N302 C298 1.328 . S
N302 C300 1.350 . S
H303 C298 0.930 . S
H304 C299 0.930 . S
C305 O306 1.224 . S
C305 O324 1.247 . S
O306 C305 1.224 . S
N307 Co297 2.128 . S
N307 C308 1.355 . S
N307 C310 1.311 . S
C308 N307 1.355 . S
C308 C309 1.363 . S
C308 H320 0.929 . S
C309 C308 1.363 . S
C309 N311 1.375 . S
C309 H327 0.931 . S
C310 N307 1.311 . S
C310 N311 1.347 . S
C310 H321 0.929 . S
N311 C309 1.375 . S
N311 C310 1.347 . S
C312 C315 1.365 . S
C312 N317 1.328 . S
C312 H318 0.929 . S
C313 C314 1.362 . S
C313 C316 1.378 . S
C313 H328 0.929 . S
C314 C313 1.362 . S
C314 C315 1.366 . S
C315 C312 1.365 . S
C315 C314 1.366 . S
C315 H329 0.930 . S
C316 C313 1.378 . S
C316 N317 1.315 . S
C316 H319 0.930 . S
N317 Co297 2.194 . S
N317 C312 1.328 . S
N317 C316 1.315 . S
H318 C312 0.929 . S
H319 C316 0.930 . S
H320 C308 0.929 . S
H321 C310 0.929 . S
O322 Co297 2.351 . S
O322 C325 1.244 . S
O323 Co297 2.155 . S
O323 C325 1.240 . S
O324 Co297 2.096 . S
O324 C305 1.247 . S
C325 O322 1.244 . S
C325 O323 1.240 . S
H326 C300 0.931 . S
H327 C309 0.931 . S
H328 C313 0.929 . S
H329 C315 0.930 . S
Co330 N334 2.148 . S
Co330 N340 2.128 . S
Co330 N350 2.194 . S
Co330 O355 2.351 . S
Co330 O356 2.155 . S
Co330 O357 2.096 . S
C331 N334 1.301 . S
C331 N335 1.328 . S
C331 H336 0.930 . S
C332 C333 1.333 . S
C332 N334 1.317 . S
C332 H337 0.930 . S
C333 C332 1.333 . S
C333 N335 1.350 . S
C333 H359 0.931 . S
N334 Co330 2.148 . S
N334 C331 1.301 . S
N334 C332 1.317 . S
N335 C331 1.328 . S
N335 C333 1.350 . S
H336 C331 0.930 . S
H337 C332 0.930 . S
C338 O339 1.224 . S
C338 O357 1.247 . S
O339 C338 1.224 . S
N340 Co330 2.128 . S
N340 C341 1.355 . S
N340 C343 1.311 . S
C341 N340 1.355 . S
C341 C342 1.363 . S
C341 H353 0.929 . S
C342 C341 1.363 . S
C342 N344 1.375 . S
C342 H360 0.931 . S
C343 N340 1.311 . S
C343 N344 1.347 . S
C343 H354 0.929 . S
N344 C342 1.375 . S
N344 C343 1.347 . S
C345 C348 1.365 . S
C345 N350 1.328 . S
C345 H351 0.929 . S
C346 C347 1.362 . S
C346 C349 1.378 . S
C346 H361 0.929 . S
C347 C346 1.362 . S
C347 C348 1.366 . S
C348 C345 1.365 . S
C348 C347 1.366 . S
C348 H362 0.930 . S
C349 C346 1.378 . S
C349 N350 1.315 . S
C349 H352 0.930 . S
N350 Co330 2.194 . S
N350 C345 1.328 . S
N350 C349 1.315 . S
H351 C345 0.929 . S
H352 C349 0.930 . S
H353 C341 0.929 . S
H354 C343 0.929 . S
O355 Co330 2.351 . S
O355 C358 1.244 . S
O356 Co330 2.155 . S
O356 C358 1.240 . S
O357 Co330 2.096 . S
O357 C338 1.247 . S
C358 O355 1.244 . S
C358 O356 1.240 . S
H359 C333 0.931 . S
H360 C342 0.931 . S
H361 C346 0.929 . S
H362 C348 0.930 . S
Co363 N367 2.148 . S
Co363 N373 2.128 . S
Co363 N383 2.194 . S
Co363 O388 2.351 . S
Co363 O389 2.155 . S
Co363 O390 2.096 . S
C364 N367 1.301 . S
C364 N368 1.328 . S
C364 H369 0.930 . S
C365 C366 1.333 . S
C365 N367 1.317 . S
C365 H370 0.930 . S
C366 C365 1.333 . S
C366 N368 1.350 . S
C366 H392 0.931 . S
N367 Co363 2.148 . S
N367 C364 1.301 . S
N367 C365 1.317 . S
N368 C364 1.328 . S
N368 C366 1.350 . S
H369 C364 0.930 . S
H370 C365 0.930 . S
C371 O372 1.224 . S
C371 O390 1.247 . S
O372 C371 1.224 . S
N373 Co363 2.128 . S
N373 C374 1.355 . S
N373 C376 1.311 . S
C374 N373 1.355 . S
C374 C375 1.363 . S
C374 H386 0.929 . S
C375 C374 1.363 . S
C375 N377 1.375 . S
C375 H393 0.931 . S
C376 N373 1.311 . S
C376 N377 1.347 . S
C376 H387 0.929 . S
N377 C375 1.375 . S
N377 C376 1.347 . S
C378 C381 1.365 . S
C378 N383 1.328 . S
C378 H384 0.929 . S
C379 C380 1.362 . S
C379 C382 1.378 . S
C379 H394 0.929 . S
C380 C379 1.362 . S
C380 C381 1.366 . S
C381 C378 1.365 . S
C381 C380 1.366 . S
C381 H395 0.930 . S
C382 C379 1.378 . S
C382 N383 1.315 . S
C382 H385 0.930 . S
N383 Co363 2.194 . S
N383 C378 1.328 . S
N383 C382 1.315 . S
H384 C378 0.929 . S
H385 C382 0.930 . S
H386 C374 0.929 . S
H387 C376 0.929 . S
O388 Co363 2.351 . S
O388 C391 1.244 . S
O389 Co363 2.155 . S
O389 C391 1.240 . S
O390 Co363 2.096 . S
O390 C371 1.247 . S
C391 O388 1.244 . S
C391 O389 1.240 . S
H392 C366 0.931 . S
H393 C375 0.931 . S
H394 C379 0.929 . S
H395 C381 0.930 . S
Co396 N400 2.148 . S
Co396 N406 2.128 . S
Co396 N416 2.194 . S
Co396 O421 2.351 . S
Co396 O422 2.155 . S
Co396 O423 2.096 . S
C397 N400 1.301 . S
C397 N401 1.328 . S
C397 H402 0.930 . S
C398 C399 1.333 . S
C398 N400 1.317 . S
C398 H403 0.930 . S
C399 C398 1.333 . S
C399 N401 1.350 . S
C399 H425 0.931 . S
N400 Co396 2.148 . S
N400 C397 1.301 . S
N400 C398 1.317 . S
N401 C397 1.328 . S
N401 C399 1.350 . S
H402 C397 0.930 . S
H403 C398 0.930 . S
C404 O405 1.224 . S
C404 O423 1.247 . S
O405 C404 1.224 . S
N406 Co396 2.128 . S
N406 C407 1.355 . S
N406 C409 1.311 . S
C407 N406 1.355 . S
C407 C408 1.363 . S
C407 H419 0.929 . S
C408 C407 1.363 . S
C408 N410 1.375 . S
C408 H426 0.931 . S
C409 N406 1.311 . S
C409 N410 1.347 . S
C409 H420 0.929 . S
N410 C408 1.375 . S
N410 C409 1.347 . S
C411 C414 1.365 . S
C411 N416 1.328 . S
C411 H417 0.929 . S
C412 C413 1.362 . S
C412 C415 1.378 . S
C412 H427 0.929 . S
C413 C412 1.362 . S
C413 C414 1.366 . S
C414 C411 1.365 . S
C414 C413 1.366 . S
C414 H428 0.930 . S
C415 C412 1.378 . S
C415 N416 1.315 . S
C415 H418 0.930 . S
N416 Co396 2.194 . S
N416 C411 1.328 . S
N416 C415 1.315 . S
H417 C411 0.929 . S
H418 C415 0.930 . S
H419 C407 0.929 . S
H420 C409 0.929 . S
O421 Co396 2.351 . S
O421 C424 1.244 . S
O422 Co396 2.155 . S
O422 C424 1.240 . S
O423 Co396 2.096 . S
O423 C404 1.247 . S
C424 O421 1.244 . S
C424 O422 1.240 . S
H425 C399 0.931 . S
H426 C408 0.931 . S
H427 C412 0.929 . S
H428 C414 0.930 . S
Co429 N433 2.148 . S
Co429 N439 2.128 . S
Co429 N449 2.194 . S
Co429 O454 2.351 . S
Co429 O455 2.155 . S
Co429 O456 2.096 . S
C430 N433 1.301 . S
C430 N434 1.328 . S
C430 H435 0.930 . S
C431 C432 1.333 . S
C431 N433 1.317 . S
C431 H436 0.930 . S
C432 C431 1.333 . S
C432 N434 1.350 . S
C432 H458 0.931 . S
N433 Co429 2.148 . S
N433 C430 1.301 . S
N433 C431 1.317 . S
N434 C430 1.328 . S
N434 C432 1.350 . S
H435 C430 0.930 . S
H436 C431 0.930 . S
C437 O438 1.224 . S
C437 O456 1.247 . S
O438 C437 1.224 . S
N439 Co429 2.128 . S
N439 C440 1.355 . S
N439 C442 1.311 . S
C440 N439 1.355 . S
C440 C441 1.363 . S
C440 H452 0.929 . S
C441 C440 1.363 . S
C441 N443 1.375 . S
C441 H459 0.931 . S
C442 N439 1.311 . S
C442 N443 1.347 . S
C442 H453 0.929 . S
N443 C441 1.375 . S
N443 C442 1.347 . S
C444 C447 1.365 . S
C444 N449 1.328 . S
C444 H450 0.929 . S
C445 C446 1.362 . S
C445 C448 1.378 . S
C445 H460 0.929 . S
C446 C445 1.362 . S
C446 C447 1.366 . S
C447 C444 1.365 . S
C447 C446 1.366 . S
C447 H461 0.930 . S
C448 C445 1.378 . S
C448 N449 1.315 . S
C448 H451 0.930 . S
N449 Co429 2.194 . S
N449 C444 1.328 . S
N449 C448 1.315 . S
H450 C444 0.929 . S
H451 C448 0.930 . S
H452 C440 0.929 . S
H453 C442 0.929 . S
O454 Co429 2.351 . S
O454 C457 1.244 . S
O455 Co429 2.155 . S
O455 C457 1.240 . S
O456 Co429 2.096 . S
O456 C437 1.247 . S
C457 O454 1.244 . S
C457 O455 1.240 . S
H458 C432 0.931 . S
H459 C441 0.931 . S
H460 C445 0.929 . S
H461 C447 0.930 . S
Co462 N466 2.148 . S
Co462 N472 2.128 . S
Co462 N482 2.194 . S
Co462 O487 2.351 . S
Co462 O488 2.155 . S
Co462 O489 2.096 . S
C463 N466 1.301 . S
C463 N467 1.328 . S
C463 H468 0.930 . S
C464 C465 1.333 . S
C464 N466 1.317 . S
C464 H469 0.930 . S
C465 C464 1.333 . S
C465 N467 1.350 . S
C465 H491 0.931 . S
N466 Co462 2.148 . S
N466 C463 1.301 . S
N466 C464 1.317 . S
N467 C463 1.328 . S
N467 C465 1.350 . S
H468 C463 0.930 . S
H469 C464 0.930 . S
C470 O471 1.224 . S
C470 O489 1.247 . S
O471 C470 1.224 . S
N472 Co462 2.128 . S
N472 C473 1.355 . S
N472 C475 1.311 . S
C473 N472 1.355 . S
C473 C474 1.363 . S
C473 H485 0.929 . S
C474 C473 1.363 . S
C474 N476 1.375 . S
C474 H492 0.931 . S
C475 N472 1.311 . S
C475 N476 1.347 . S
C475 H486 0.929 . S
N476 C474 1.375 . S
N476 C475 1.347 . S
C477 C480 1.365 . S
C477 N482 1.328 . S
C477 H483 0.929 . S
C478 C479 1.362 . S
C478 C481 1.378 . S
C478 H493 0.929 . S
C479 C478 1.362 . S
C479 C480 1.366 . S
C480 C477 1.365 . S
C480 C479 1.366 . S
C480 H494 0.930 . S
C481 C478 1.378 . S
C481 N482 1.315 . S
C481 H484 0.930 . S
N482 Co462 2.194 . S
N482 C477 1.328 . S
N482 C481 1.315 . S
H483 C477 0.929 . S
H484 C481 0.930 . S
H485 C473 0.929 . S
H486 C475 0.929 . S
O487 Co462 2.351 . S
O487 C490 1.244 . S
O488 Co462 2.155 . S
O488 C490 1.240 . S
O489 Co462 2.096 . S
O489 C470 1.247 . S
C490 O487 1.244 . S
C490 O488 1.240 . S
H491 C465 0.931 . S
H492 C474 0.931 . S
H493 C478 0.929 . S
H494 C480 0.930 . S
Co495 N499 2.148 . S
Co495 N505 2.128 . S
Co495 N515 2.194 . S
Co495 O520 2.351 . S
Co495 O521 2.155 . S
Co495 O522 2.096 . S
C496 N499 1.301 . S
C496 N500 1.328 . S
C496 H501 0.930 . S
C497 C498 1.333 . S
C497 N499 1.317 . S
C497 H502 0.930 . S
C498 C497 1.333 . S
C498 N500 1.350 . S
C498 H524 0.931 . S
N499 Co495 2.148 . S
N499 C496 1.301 . S
N499 C497 1.317 . S
N500 C496 1.328 . S
N500 C498 1.350 . S
H501 C496 0.930 . S
H502 C497 0.930 . S
C503 O504 1.224 . S
C503 O522 1.247 . S
O504 C503 1.224 . S
N505 Co495 2.128 . S
N505 C506 1.355 . S
N505 C508 1.311 . S
C506 N505 1.355 . S
C506 C507 1.363 . S
C506 H518 0.929 . S
C507 C506 1.363 . S
C507 N509 1.375 . S
C507 H525 0.931 . S
C508 N505 1.311 . S
C508 N509 1.347 . S
C508 H519 0.929 . S
N509 C507 1.375 . S
N509 C508 1.347 . S
C510 C513 1.365 . S
C510 N515 1.328 . S
C510 H516 0.929 . S
C511 C512 1.362 . S
C511 C514 1.378 . S
C511 H526 0.929 . S
C512 C511 1.362 . S
C512 C513 1.366 . S
C513 C510 1.365 . S
C513 C512 1.366 . S
C513 H527 0.930 . S
C514 C511 1.378 . S
C514 N515 1.315 . S
C514 H517 0.930 . S
N515 Co495 2.194 . S
N515 C510 1.328 . S
N515 C514 1.315 . S
H516 C510 0.929 . S
H517 C514 0.930 . S
H518 C506 0.929 . S
H519 C508 0.929 . S
O520 Co495 2.351 . S
O520 C523 1.244 . S
O521 Co495 2.155 . S
O521 C523 1.240 . S
O522 Co495 2.096 . S
O522 C503 1.247 . S
C523 O520 1.244 . S
C523 O521 1.240 . S
H524 C498 0.931 . S
H525 C507 0.931 . S
H526 C511 0.929 . S
H527 C513 0.930 . S
Co528 N532 2.148 . S
Co528 N538 2.151 . S
Co528 N548 2.194 . S
Co528 O553 2.351 . S
Co528 O554 2.155 . S
Co528 O555 2.096 . S
C529 N532 1.301 . S
C529 N533 1.328 . S
C529 H534 0.930 . S
C530 C531 1.333 . S
C530 N532 1.317 . S
C530 H535 0.930 . S
C531 C530 1.333 . S
C531 N533 1.350 . S
C531 H557 0.931 . S
N532 Co528 2.148 . S
N532 C529 1.301 . S
N532 C530 1.317 . S
N533 C529 1.328 . S
N533 C531 1.350 . S
H534 C529 0.930 . S
H535 C530 0.930 . S
C536 O537 1.224 . S
C536 O555 1.247 . S
O537 C536 1.224 . S
N538 Co528 2.151 . S
N538 C539 1.348 1_655 S
N538 C541 1.291 1_655 S
C539 N538 1.348 1_455 S
C539 C540 1.363 . S
C539 H551 0.929 1_455 S
C540 C539 1.363 . S
C540 N542 1.375 . S
C540 H558 0.931 . S
C541 N538 1.291 1_455 S
C541 N542 1.347 . S
C541 H552 0.929 . S
N542 C540 1.375 . S
N542 C541 1.347 . S
C543 C546 1.365 . S
C543 N548 1.328 . S
C543 H549 0.929 . S
C544 C545 1.362 . S
C544 C547 1.378 . S
C544 H559 0.929 . S
C545 C544 1.362 . S
C545 C546 1.366 . S
C546 C543 1.365 . S
C546 C545 1.366 . S
C546 H560 0.930 . S
C547 C544 1.378 . S
C547 N548 1.315 . S
C547 H550 0.930 . S
N548 Co528 2.194 . S
N548 C543 1.328 . S
N548 C547 1.315 . S
H549 C543 0.929 . S
H550 C547 0.930 . S
H551 C539 0.929 1_655 S
H552 C541 0.929 . S
O553 Co528 2.351 . S
O553 C556 1.244 . S
O554 Co528 2.155 . S
O554 C556 1.240 . S
O555 Co528 2.096 . S
O555 C536 1.247 . S
C556 O553 1.244 . S
C556 O554 1.240 . S
H557 C531 0.931 . S
H558 C540 0.931 . S
H559 C544 0.929 . S
H560 C546 0.930 . S
Co561 N565 2.148 . S
Co561 N571 2.128 . S
Co561 N581 2.194 . S
Co561 O586 2.351 . S
Co561 O587 2.155 . S
Co561 O588 2.096 . S
C562 N565 1.301 . S
C562 N566 1.328 . S
C562 H567 0.930 . S
C563 C564 1.333 . S
C563 N565 1.317 . S
C563 H568 0.930 . S
C564 C563 1.333 . S
C564 N566 1.350 . S
C564 H590 0.931 . S
N565 Co561 2.148 . S
N565 C562 1.301 . S
N565 C563 1.317 . S
N566 C562 1.328 . S
N566 C564 1.350 . S
H567 C562 0.930 . S
H568 C563 0.930 . S
C569 O570 1.224 . S
C569 O588 1.247 . S
O570 C569 1.224 . S
N571 Co561 2.128 . S
N571 C572 1.355 . S
N571 C574 1.311 . S
C572 N571 1.355 . S
C572 C573 1.363 . S
C572 H584 0.929 . S
C573 C572 1.363 . S
C573 N575 1.375 . S
C573 H591 0.931 . S
C574 N571 1.311 . S
C574 N575 1.347 . S
C574 H585 0.929 . S
N575 C573 1.375 . S
N575 C574 1.347 . S
C576 C579 1.365 . S
C576 N581 1.328 . S
C576 H582 0.929 . S
C577 C578 1.362 . S
C577 C580 1.378 . S
C577 H592 0.929 . S
C578 C577 1.362 . S
C578 C579 1.366 . S
C579 C576 1.365 . S
C579 C578 1.366 . S
C579 H593 0.930 . S
C580 C577 1.378 . S
C580 N581 1.315 . S
C580 H583 0.930 . S
N581 Co561 2.194 . S
N581 C576 1.328 . S
N581 C580 1.315 . S
H582 C576 0.929 . S
H583 C580 0.930 . S
H584 C572 0.929 . S
H585 C574 0.929 . S
O586 Co561 2.351 . S
O586 C589 1.244 . S
O587 Co561 2.155 . S
O587 C589 1.240 . S
O588 Co561 2.096 . S
O588 C569 1.247 . S
C589 O586 1.244 . S
C589 O587 1.240 . S
H590 C564 0.931 . S
H591 C573 0.931 . S
H592 C577 0.929 . S
H593 C579 0.930 . S
Co594 N598 2.148 . S
Co594 N604 2.151 . S
Co594 N614 2.194 . S
Co594 O619 2.351 . S
Co594 O620 2.155 . S
Co594 O621 2.096 . S
C595 N598 1.301 . S
C595 N599 1.328 . S
C595 H600 0.930 . S
C596 C597 1.333 . S
C596 N598 1.317 . S
C596 H601 0.930 . S
C597 C596 1.333 . S
C597 N599 1.350 . S
C597 H623 0.931 . S
N598 Co594 2.148 . S
N598 C595 1.301 . S
N598 C596 1.317 . S
N599 C595 1.328 . S
N599 C597 1.350 . S
H600 C595 0.930 . S
H601 C596 0.930 . S
C602 O603 1.224 . S
C602 O621 1.247 . S
O603 C602 1.224 . S
N604 Co594 2.151 . S
N604 C605 1.348 1_655 S
N604 C607 1.291 1_655 S
C605 N604 1.348 1_455 S
C605 C606 1.363 . S
C605 H617 0.929 1_455 S
C606 C605 1.363 . S
C606 N608 1.375 . S
C606 H624 0.931 . S
C607 N604 1.291 1_455 S
C607 N608 1.347 . S
C607 H618 0.929 . S
N608 C606 1.375 . S
N608 C607 1.347 . S
C609 C612 1.365 . S
C609 N614 1.328 . S
C609 H615 0.929 . S
C610 C611 1.362 . S
C610 C613 1.378 . S
C610 H625 0.929 . S
C611 C610 1.362 . S
C611 C612 1.366 . S
C612 C609 1.365 . S
C612 C611 1.366 . S
C612 H626 0.930 . S
C613 C610 1.378 . S
C613 N614 1.315 . S
C613 H616 0.930 . S
N614 Co594 2.194 . S
N614 C609 1.328 . S
N614 C613 1.315 . S
H615 C609 0.929 . S
H616 C613 0.930 . S
H617 C605 0.929 1_655 S
H618 C607 0.929 . S
O619 Co594 2.351 . S
O619 C622 1.244 . S
O620 Co594 2.155 . S
O620 C622 1.240 . S
O621 Co594 2.096 . S
O621 C602 1.247 . S
C622 O619 1.244 . S
C622 O620 1.240 . S
H623 C597 0.931 . S
H624 C606 0.931 . S
H625 C610 0.929 . S
H626 C612 0.930 . S
Co627 N631 2.148 . S
Co627 N637 2.128 . S
Co627 N647 2.194 . S
Co627 O652 2.351 . S
Co627 O653 2.155 . S
Co627 O654 2.096 . S
C628 N631 1.301 . S
C628 N632 1.328 . S
C628 H633 0.930 . S
C629 C630 1.333 . S
C629 N631 1.317 . S
C629 H634 0.930 . S
C630 C629 1.333 . S
C630 N632 1.350 . S
C630 H656 0.931 . S
N631 Co627 2.148 . S
N631 C628 1.301 . S
N631 C629 1.317 . S
N632 C628 1.328 . S
N632 C630 1.350 . S
H633 C628 0.930 . S
H634 C629 0.930 . S
C635 O636 1.224 . S
C635 O654 1.247 . S
O636 C635 1.224 . S
N637 Co627 2.128 . S
N637 C638 1.355 . S
N637 C640 1.311 . S
C638 N637 1.355 . S
C638 C639 1.363 . S
C638 H650 0.929 . S
C639 C638 1.363 . S
C639 N641 1.375 . S
C639 H657 0.931 . S
C640 N637 1.311 . S
C640 N641 1.347 . S
C640 H651 0.929 . S
N641 C639 1.375 . S
N641 C640 1.347 . S
C642 C645 1.365 . S
C642 N647 1.328 . S
C642 H648 0.929 . S
C643 C644 1.362 . S
C643 C646 1.378 . S
C643 H658 0.929 . S
C644 C643 1.362 . S
C644 C645 1.366 . S
C645 C642 1.365 . S
C645 C644 1.366 . S
C645 H659 0.930 . S
C646 C643 1.378 . S
C646 N647 1.315 . S
C646 H649 0.930 . S
N647 Co627 2.194 . S
N647 C642 1.328 . S
N647 C646 1.315 . S
H648 C642 0.929 . S
H649 C646 0.930 . S
H650 C638 0.929 . S
H651 C640 0.929 . S
O652 Co627 2.351 . S
O652 C655 1.244 . S
O653 Co627 2.155 . S
O653 C655 1.240 . S
O654 Co627 2.096 . S
O654 C635 1.247 . S
C655 O652 1.244 . S
C655 O653 1.240 . S
H656 C630 0.931 . S
H657 C639 0.931 . S
H658 C643 0.929 . S
H659 C645 0.930 . S
Co660 N664 2.148 . S
Co660 N670 2.151 . S
Co660 N680 2.194 . S
Co660 O685 2.351 . S
Co660 O686 2.155 . S
Co660 O687 2.096 . S
C661 N664 1.301 . S
C661 N665 1.328 . S
C661 H666 0.930 . S
C662 C663 1.333 . S
C662 N664 1.317 . S
C662 H667 0.930 . S
C663 C662 1.333 . S
C663 N665 1.350 . S
C663 H689 0.931 . S
N664 Co660 2.148 . S
N664 C661 1.301 . S
N664 C662 1.317 . S
N665 C661 1.328 . S
N665 C663 1.350 . S
H666 C661 0.930 . S
H667 C662 0.930 . S
C668 O669 1.224 . S
C668 O687 1.247 . S
O669 C668 1.224 . S
N670 Co660 2.151 . S
N670 C671 1.348 1_455 S
N670 C673 1.291 1_455 S
C671 N670 1.348 1_655 S
C671 C672 1.363 . S
C671 H683 0.929 1_655 S
C672 C671 1.363 . S
C672 N674 1.375 . S
C672 H690 0.931 . S
C673 N670 1.291 1_655 S
C673 N674 1.347 . S
C673 H684 0.929 . S
N674 C672 1.375 . S
N674 C673 1.347 . S
C675 C678 1.365 . S
C675 N680 1.328 . S
C675 H681 0.929 . S
C676 C677 1.362 . S
C676 C679 1.378 . S
C676 H691 0.929 . S
C677 C676 1.362 . S
C677 C678 1.366 . S
C678 C675 1.365 . S
C678 C677 1.366 . S
C678 H692 0.930 . S
C679 C676 1.378 . S
C679 N680 1.315 . S
C679 H682 0.930 . S
N680 Co660 2.194 . S
N680 C675 1.328 . S
N680 C679 1.315 . S
H681 C675 0.929 . S
H682 C679 0.930 . S
H683 C671 0.929 1_455 S
H684 C673 0.929 . S
O685 Co660 2.351 . S
O685 C688 1.244 . S
O686 Co660 2.155 . S
O686 C688 1.240 . S
O687 Co660 2.096 . S
O687 C668 1.247 . S
C688 O685 1.244 . S
C688 O686 1.240 . S
H689 C663 0.931 . S
H690 C672 0.931 . S
H691 C676 0.929 . S
H692 C678 0.930 . S
Co693 N697 2.148 . S
Co693 N703 2.128 . S
Co693 N713 2.194 . S
Co693 O718 2.351 . S
Co693 O719 2.155 . S
Co693 O720 2.096 . S
C694 N697 1.301 . S
C694 N698 1.328 . S
C694 H699 0.930 . S
C695 C696 1.333 . S
C695 N697 1.317 . S
C695 H700 0.930 . S
C696 C695 1.333 . S
C696 N698 1.350 . S
C696 H722 0.931 . S
N697 Co693 2.148 . S
N697 C694 1.301 . S
N697 C695 1.317 . S
N698 C694 1.328 . S
N698 C696 1.350 . S
H699 C694 0.930 . S
H700 C695 0.930 . S
C701 O702 1.224 . S
C701 O720 1.247 . S
O702 C701 1.224 . S
N703 Co693 2.128 . S
N703 C704 1.355 . S
N703 C706 1.311 . S
C704 N703 1.355 . S
C704 C705 1.363 . S
C704 H716 0.929 . S
C705 C704 1.363 . S
C705 N707 1.375 . S
C705 H723 0.931 . S
C706 N703 1.311 . S
C706 N707 1.347 . S
C706 H717 0.929 . S
N707 C705 1.375 . S
N707 C706 1.347 . S
C708 C711 1.365 . S
C708 N713 1.328 . S
C708 H714 0.929 . S
C709 C710 1.362 . S
C709 C712 1.378 . S
C709 H724 0.929 . S
C710 C709 1.362 . S
C710 C711 1.366 . S
C711 C708 1.365 . S
C711 C710 1.366 . S
C711 H725 0.930 . S
C712 C709 1.378 . S
C712 N713 1.315 . S
C712 H715 0.930 . S
N713 Co693 2.194 . S
N713 C708 1.328 . S
N713 C712 1.315 . S
H714 C708 0.929 . S
H715 C712 0.930 . S
H716 C704 0.929 . S
H717 C706 0.929 . S
O718 Co693 2.351 . S
O718 C721 1.244 . S
O719 Co693 2.155 . S
O719 C721 1.240 . S
O720 Co693 2.096 . S
O720 C701 1.247 . S
C721 O718 1.244 . S
C721 O719 1.240 . S
H722 C696 0.931 . S
H723 C705 0.931 . S
H724 C709 0.929 . S
H725 C711 0.930 . S
Co726 N730 2.148 . S
Co726 N736 2.151 . S
Co726 N746 2.194 . S
Co726 O751 2.351 . S
Co726 O752 2.155 . S
Co726 O753 2.096 . S
C727 N730 1.301 . S
C727 N731 1.328 . S
C727 H732 0.930 . S
C728 C729 1.333 . S
C728 N730 1.317 . S
C728 H733 0.930 . S
C729 C728 1.333 . S
C729 N731 1.350 . S
C729 H755 0.931 . S
N730 Co726 2.148 . S
N730 C727 1.301 . S
N730 C728 1.317 . S
N731 C727 1.328 . S
N731 C729 1.350 . S
H732 C727 0.930 . S
H733 C728 0.930 . S
C734 O735 1.224 . S
C734 O753 1.247 . S
O735 C734 1.224 . S
N736 Co726 2.151 . S
N736 C737 1.348 1_455 S
N736 C739 1.291 1_455 S
C737 N736 1.348 1_655 S
C737 C738 1.363 . S
C737 H749 0.929 1_655 S
C738 C737 1.363 . S
C738 N740 1.375 . S
C738 H756 0.931 . S
C739 N736 1.291 1_655 S
C739 N740 1.347 . S
C739 H750 0.929 . S
N740 C738 1.375 . S
N740 C739 1.347 . S
C741 C744 1.365 . S
C741 N746 1.328 . S
C741 H747 0.929 . S
C742 C743 1.362 . S
C742 C745 1.378 . S
C742 H757 0.929 . S
C743 C742 1.362 . S
C743 C744 1.366 . S
C744 C741 1.365 . S
C744 C743 1.366 . S
C744 H758 0.930 . S
C745 C742 1.378 . S
C745 N746 1.315 . S
C745 H748 0.930 . S
N746 Co726 2.194 . S
N746 C741 1.328 . S
N746 C745 1.315 . S
H747 C741 0.929 . S
H748 C745 0.930 . S
H749 C737 0.929 1_455 S
H750 C739 0.929 . S
O751 Co726 2.351 . S
O751 C754 1.244 . S
O752 Co726 2.155 . S
O752 C754 1.240 . S
O753 Co726 2.096 . S
O753 C734 1.247 . S
C754 O751 1.244 . S
C754 O752 1.240 . S
H755 C729 0.931 . S
H756 C738 0.931 . S
H757 C742 0.929 . S
H758 C744 0.930 . S
Co759 N763 2.148 . S
Co759 N769 2.128 . S
Co759 N779 2.194 . S
Co759 O784 2.351 . S
Co759 O785 2.155 . S
Co759 O786 2.096 . S
C760 N763 1.301 . S
C760 N764 1.328 . S
C760 H765 0.930 . S
C761 C762 1.333 . S
C761 N763 1.317 . S
C761 H766 0.930 . S
C762 C761 1.333 . S
C762 N764 1.350 . S
C762 H788 0.931 . S
N763 Co759 2.148 . S
N763 C760 1.301 . S
N763 C761 1.317 . S
N764 C760 1.328 . S
N764 C762 1.350 . S
H765 C760 0.930 . S
H766 C761 0.930 . S
C767 O768 1.224 . S
C767 O786 1.247 . S
O768 C767 1.224 . S
N769 Co759 2.128 . S
N769 C770 1.355 . S
N769 C772 1.311 . S
C770 N769 1.355 . S
C770 C771 1.363 . S
C770 H782 0.929 . S
C771 C770 1.363 . S
C771 N773 1.375 . S
C771 H789 0.931 . S
C772 N769 1.311 . S
C772 N773 1.347 . S
C772 H783 0.929 . S
N773 C771 1.375 . S
N773 C772 1.347 . S
C774 C777 1.365 . S
C774 N779 1.328 . S
C774 H780 0.929 . S
C775 C776 1.362 . S
C775 C778 1.378 . S
C775 H790 0.929 . S
C776 C775 1.362 . S
C776 C777 1.366 . S
C777 C774 1.365 . S
C777 C776 1.366 . S
C777 H791 0.930 . S
C778 C775 1.378 . S
C778 N779 1.315 . S
C778 H781 0.930 . S
N779 Co759 2.194 . S
N779 C774 1.328 . S
N779 C778 1.315 . S
H780 C774 0.929 . S
H781 C778 0.930 . S
H782 C770 0.929 . S
H783 C772 0.929 . S
O784 Co759 2.351 . S
O784 C787 1.244 . S
O785 Co759 2.155 . S
O785 C787 1.240 . S
O786 Co759 2.096 . S
O786 C767 1.247 . S
C787 O784 1.244 . S
C787 O785 1.240 . S
H788 C762 0.931 . S
H789 C771 0.931 . S
H790 C775 0.929 . S
H791 C777 0.930 . S
Co792 N796 2.148 . S
Co792 N802 2.151 . S
Co792 N812 2.194 . S
Co792 O817 2.351 . S
Co792 O818 2.155 . S
Co792 O819 2.096 . S
C793 N796 1.301 . S
C793 N797 1.328 . S
C793 H798 0.930 . S
C794 C795 1.333 . S
C794 N796 1.317 . S
C794 H799 0.930 . S
C795 C794 1.333 . S
C795 N797 1.350 . S
C795 H821 0.931 . S
N796 Co792 2.148 . S
N796 C793 1.301 . S
N796 C794 1.317 . S
N797 C793 1.328 . S
N797 C795 1.350 . S
H798 C793 0.930 . S
H799 C794 0.930 . S
C800 O801 1.224 . S
C800 O819 1.247 . S
O801 C800 1.224 . S
N802 Co792 2.151 . S
N802 C803 1.348 1_655 S
N802 C805 1.291 1_655 S
C803 N802 1.348 1_455 S
C803 C804 1.363 . S
C803 H815 0.929 1_455 S
C804 C803 1.363 . S
C804 N806 1.375 . S
C804 H822 0.931 . S
C805 N802 1.291 1_455 S
C805 N806 1.347 . S
C805 H816 0.929 . S
N806 C804 1.375 . S
N806 C805 1.347 . S
C807 C810 1.365 . S
C807 N812 1.328 . S
C807 H813 0.929 . S
C808 C809 1.362 . S
C808 C811 1.378 . S
C808 H823 0.929 . S
C809 C808 1.362 . S
C809 C810 1.366 . S
C810 C807 1.365 . S
C810 C809 1.366 . S
C810 H824 0.930 . S
C811 C808 1.378 . S
C811 N812 1.315 . S
C811 H814 0.930 . S
N812 Co792 2.194 . S
N812 C807 1.328 . S
N812 C811 1.315 . S
H813 C807 0.929 . S
H814 C811 0.930 . S
H815 C803 0.929 1_655 S
H816 C805 0.929 . S
O817 Co792 2.351 . S
O817 C820 1.244 . S
O818 Co792 2.155 . S
O818 C820 1.240 . S
O819 Co792 2.096 . S
O819 C800 1.247 . S
C820 O817 1.244 . S
C820 O818 1.240 . S
H821 C795 0.931 . S
H822 C804 0.931 . S
H823 C808 0.929 . S
H824 C810 0.930 . S
Co825 N829 2.148 . S
Co825 N835 2.128 . S
Co825 N845 2.194 . S
Co825 O850 2.351 . S
Co825 O851 2.155 . S
Co825 O852 2.096 . S
C826 N829 1.301 . S
C826 N830 1.328 . S
C826 H831 0.930 . S
C827 C828 1.333 . S
C827 N829 1.317 . S
C827 H832 0.930 . S
C828 C827 1.333 . S
C828 N830 1.350 . S
C828 H854 0.931 . S
N829 Co825 2.148 . S
N829 C826 1.301 . S
N829 C827 1.317 . S
N830 C826 1.328 . S
N830 C828 1.350 . S
H831 C826 0.930 . S
H832 C827 0.930 . S
C833 O834 1.224 . S
C833 O852 1.247 . S
O834 C833 1.224 . S
N835 Co825 2.128 . S
N835 C836 1.355 . S
N835 C838 1.311 . S
C836 N835 1.355 . S
C836 C837 1.363 . S
C836 H848 0.929 . S
C837 C836 1.363 . S
C837 N839 1.375 . S
C837 H855 0.931 . S
C838 N835 1.311 . S
C838 N839 1.347 . S
C838 H849 0.929 . S
N839 C837 1.375 . S
N839 C838 1.347 . S
C840 C843 1.365 . S
C840 N845 1.328 . S
C840 H846 0.929 . S
C841 C842 1.362 . S
C841 C844 1.378 . S
C841 H856 0.929 . S
C842 C841 1.362 . S
C842 C843 1.366 . S
C843 C840 1.365 . S
C843 C842 1.366 . S
C843 H857 0.930 . S
C844 C841 1.378 . S
C844 N845 1.315 . S
C844 H847 0.930 . S
N845 Co825 2.194 . S
N845 C840 1.328 . S
N845 C844 1.315 . S
H846 C840 0.929 . S
H847 C844 0.930 . S
H848 C836 0.929 . S
H849 C838 0.929 . S
O850 Co825 2.351 . S
O850 C853 1.244 . S
O851 Co825 2.155 . S
O851 C853 1.240 . S
O852 Co825 2.096 . S
O852 C833 1.247 . S
C853 O850 1.244 . S
C853 O851 1.240 . S
H854 C828 0.931 . S
H855 C837 0.931 . S
H856 C841 0.929 . S
H857 C843 0.930 . S
Co858 N862 2.148 . S
Co858 N868 2.151 . S
Co858 N878 2.194 . S
Co858 O883 2.351 . S
Co858 O884 2.155 . S
Co858 O885 2.096 . S
C859 N862 1.301 . S
C859 N863 1.328 . S
C859 H864 0.930 . S
C860 C861 1.333 . S
C860 N862 1.317 . S
C860 H865 0.930 . S
C861 C860 1.333 . S
C861 N863 1.350 . S
C861 H887 0.931 . S
N862 Co858 2.148 . S
N862 C859 1.301 . S
N862 C860 1.317 . S
N863 C859 1.328 . S
N863 C861 1.350 . S
H864 C859 0.930 . S
H865 C860 0.930 . S
C866 O867 1.224 . S
C866 O885 1.247 . S
O867 C866 1.224 . S
N868 Co858 2.151 . S
N868 C869 1.348 1_655 S
N868 C871 1.291 1_655 S
C869 N868 1.348 1_455 S
C869 C870 1.363 . S
C869 H881 0.929 1_455 S
C870 C869 1.363 . S
C870 N872 1.375 . S
C870 H888 0.931 . S
C871 N868 1.291 1_455 S
C871 N872 1.347 . S
C871 H882 0.929 . S
N872 C870 1.375 . S
N872 C871 1.347 . S
C873 C876 1.365 . S
C873 N878 1.328 . S
C873 H879 0.929 . S
C874 C875 1.362 . S
C874 C877 1.378 . S
C874 H889 0.929 . S
C875 C874 1.362 . S
C875 C876 1.366 . S
C876 C873 1.365 . S
C876 C875 1.366 . S
C876 H890 0.930 . S
C877 C874 1.378 . S
C877 N878 1.315 . S
C877 H880 0.930 . S
N878 Co858 2.194 . S
N878 C873 1.328 . S
N878 C877 1.315 . S
H879 C873 0.929 . S
H880 C877 0.930 . S
H881 C869 0.929 1_655 S
H882 C871 0.929 . S
O883 Co858 2.351 . S
O883 C886 1.244 . S
O884 Co858 2.155 . S
O884 C886 1.240 . S
O885 Co858 2.096 . S
O885 C866 1.247 . S
C886 O883 1.244 . S
C886 O884 1.240 . S
H887 C861 0.931 . S
H888 C870 0.931 . S
H889 C874 0.929 . S
H890 C876 0.930 . S
Co891 N895 2.148 . S
Co891 N901 2.128 . S
Co891 N911 2.194 . S
Co891 O916 2.351 . S
Co891 O917 2.155 . S
Co891 O918 2.096 . S
C892 N895 1.301 . S
C892 N896 1.328 . S
C892 H897 0.930 . S
C893 C894 1.333 . S
C893 N895 1.317 . S
C893 H898 0.930 . S
C894 C893 1.333 . S
C894 N896 1.350 . S
C894 H920 0.931 . S
N895 Co891 2.148 . S
N895 C892 1.301 . S
N895 C893 1.317 . S
N896 C892 1.328 . S
N896 C894 1.350 . S
H897 C892 0.930 . S
H898 C893 0.930 . S
C899 O900 1.224 . S
C899 O918 1.247 . S
O900 C899 1.224 . S
N901 Co891 2.128 . S
N901 C902 1.355 . S
N901 C904 1.311 . S
C902 N901 1.355 . S
C902 C903 1.363 . S
C902 H914 0.929 . S
C903 C902 1.363 . S
C903 N905 1.375 . S
C903 H921 0.931 . S
C904 N901 1.311 . S
C904 N905 1.347 . S
C904 H915 0.929 . S
N905 C903 1.375 . S
N905 C904 1.347 . S
C906 C909 1.365 . S
C906 N911 1.328 . S
C906 H912 0.929 . S
C907 C908 1.362 . S
C907 C910 1.378 . S
C907 H922 0.929 . S
C908 C907 1.362 . S
C908 C909 1.366 . S
C909 C906 1.365 . S
C909 C908 1.366 . S
C909 H923 0.930 . S
C910 C907 1.378 . S
C910 N911 1.315 . S
C910 H913 0.930 . S
N911 Co891 2.194 . S
N911 C906 1.328 . S
N911 C910 1.315 . S
H912 C906 0.929 . S
H913 C910 0.930 . S
H914 C902 0.929 . S
H915 C904 0.929 . S
O916 Co891 2.351 . S
O916 C919 1.244 . S
O917 Co891 2.155 . S
O917 C919 1.240 . S
O918 Co891 2.096 . S
O918 C899 1.247 . S
C919 O916 1.244 . S
C919 O917 1.240 . S
H920 C894 0.931 . S
H921 C903 0.931 . S
H922 C907 0.929 . S
H923 C909 0.930 . S
Co924 N928 2.148 . S
Co924 N934 2.151 . S
Co924 N944 2.194 . S
Co924 O949 2.351 . S
Co924 O950 2.155 . S
Co924 O951 2.096 . S
C925 N928 1.301 . S
C925 N929 1.328 . S
C925 H930 0.930 . S
C926 C927 1.333 . S
C926 N928 1.317 . S
C926 H931 0.930 . S
C927 C926 1.333 . S
C927 N929 1.350 . S
C927 H953 0.931 . S
N928 Co924 2.148 . S
N928 C925 1.301 . S
N928 C926 1.317 . S
N929 C925 1.328 . S
N929 C927 1.350 . S
H930 C925 0.930 . S
H931 C926 0.930 . S
C932 O933 1.224 . S
C932 O951 1.247 . S
O933 C932 1.224 . S
N934 Co924 2.151 . S
N934 C935 1.348 1_455 S
N934 C937 1.291 1_455 S
C935 N934 1.348 1_655 S
C935 C936 1.363 . S
C935 H947 0.929 1_655 S
C936 C935 1.363 . S
C936 N938 1.375 . S
C936 H954 0.931 . S
C937 N934 1.291 1_655 S
C937 N938 1.347 . S
C937 H948 0.929 . S
N938 C936 1.375 . S
N938 C937 1.347 . S
C939 C942 1.365 . S
C939 N944 1.328 . S
C939 H945 0.929 . S
C940 C941 1.362 . S
C940 C943 1.378 . S
C940 H955 0.929 . S
C941 C940 1.362 . S
C941 C942 1.366 . S
C942 C939 1.365 . S
C942 C941 1.366 . S
C942 H956 0.930 . S
C943 C940 1.378 . S
C943 N944 1.315 . S
C943 H946 0.930 . S
N944 Co924 2.194 . S
N944 C939 1.328 . S
N944 C943 1.315 . S
H945 C939 0.929 . S
H946 C943 0.930 . S
H947 C935 0.929 1_455 S
H948 C937 0.929 . S
O949 Co924 2.351 . S
O949 C952 1.244 . S
O950 Co924 2.155 . S
O950 C952 1.240 . S
O951 Co924 2.096 . S
O951 C932 1.247 . S
C952 O949 1.244 . S
C952 O950 1.240 . S
H953 C927 0.931 . S
H954 C936 0.931 . S
H955 C940 0.929 . S
H956 C942 0.930 . S
Co957 N961 2.148 . S
Co957 N967 2.128 . S
Co957 N977 2.194 . S
Co957 O982 2.351 . S
Co957 O983 2.155 . S
Co957 O984 2.096 . S
C958 N961 1.301 . S
C958 N962 1.328 . S
C958 H963 0.930 . S
C959 C960 1.333 . S
C959 N961 1.317 . S
C959 H964 0.930 . S
C960 C959 1.333 . S
C960 N962 1.350 . S
C960 H986 0.931 . S
N961 Co957 2.148 . S
N961 C958 1.301 . S
N961 C959 1.317 . S
N962 C958 1.328 . S
N962 C960 1.350 . S
H963 C958 0.930 . S
H964 C959 0.930 . S
C965 O966 1.224 . S
C965 O984 1.247 . S
O966 C965 1.224 . S
N967 Co957 2.128 . S
N967 C968 1.355 . S
N967 C970 1.311 . S
C968 N967 1.355 . S
C968 C969 1.363 . S
C968 H980 0.929 . S
C969 C968 1.363 . S
C969 N971 1.375 . S
C969 H987 0.931 . S
C970 N967 1.311 . S
C970 N971 1.347 . S
C970 H981 0.929 . S
N971 C969 1.375 . S
N971 C970 1.347 . S
C972 C975 1.365 . S
C972 N977 1.328 . S
C972 H978 0.929 . S
C973 C974 1.362 . S
C973 C976 1.378 . S
C973 H988 0.929 . S
C974 C973 1.362 . S
C974 C975 1.366 . S
C975 C972 1.365 . S
C975 C974 1.366 . S
C975 H989 0.930 . S
C976 C973 1.378 . S
C976 N977 1.315 . S
C976 H979 0.930 . S
N977 Co957 2.194 . S
N977 C972 1.328 . S
N977 C976 1.315 . S
H978 C972 0.929 . S
H979 C976 0.930 . S
H980 C968 0.929 . S
H981 C970 0.929 . S
O982 Co957 2.351 . S
O982 C985 1.244 . S
O983 Co957 2.155 . S
O983 C985 1.240 . S
O984 Co957 2.096 . S
O984 C965 1.247 . S
C985 O982 1.244 . S
C985 O983 1.240 . S
H986 C960 0.931 . S
H987 C969 0.931 . S
H988 C973 0.929 . S
H989 C975 0.930 . S
Co990 N994 2.148 . S
Co990 N1000 2.151 . S
Co990 N1010 2.194 . S
Co990 O1015 2.351 . S
Co990 O1016 2.155 . S
Co990 O1017 2.096 . S
C991 N994 1.301 . S
C991 N995 1.328 . S
C991 H996 0.930 . S
C992 C993 1.333 . S
C992 N994 1.317 . S
C992 H997 0.930 . S
C993 C992 1.333 . S
C993 N995 1.350 . S
C993 H1019 0.931 . S
N994 Co990 2.148 . S
N994 C991 1.301 . S
N994 C992 1.317 . S
N995 C991 1.328 . S
N995 C993 1.350 . S
H996 C991 0.930 . S
H997 C992 0.930 . S
C998 O999 1.224 . S
C998 O1017 1.247 . S
O999 C998 1.224 . S
N1000 Co990 2.151 . S
N1000 C1001 1.348 1_455 S
N1000 C1003 1.291 1_455 S
C1001 N1000 1.348 1_655 S
C1001 C1002 1.363 . S
C1001 H1013 0.929 1_655 S
C1002 C1001 1.363 . S
C1002 N1004 1.375 . S
C1002 H1020 0.931 . S
C1003 N1000 1.291 1_655 S
C1003 N1004 1.347 . S
C1003 H1014 0.929 . S
N1004 C1002 1.375 . S
N1004 C1003 1.347 . S
C1005 C1008 1.365 . S
C1005 N1010 1.328 . S
C1005 H1011 0.929 . S
C1006 C1007 1.362 . S
C1006 C1009 1.378 . S
C1006 H1021 0.929 . S
C1007 C1006 1.362 . S
C1007 C1008 1.366 . S
C1008 C1005 1.365 . S
C1008 C1007 1.366 . S
C1008 H1022 0.930 . S
C1009 C1006 1.378 . S
C1009 N1010 1.315 . S
C1009 H1012 0.930 . S
N1010 Co990 2.194 . S
N1010 C1005 1.328 . S
N1010 C1009 1.315 . S
H1011 C1005 0.929 . S
H1012 C1009 0.930 . S
H1013 C1001 0.929 1_455 S
H1014 C1003 0.929 . S
O1015 Co990 2.351 . S
O1015 C1018 1.244 . S
O1016 Co990 2.155 . S
O1016 C1018 1.240 . S
O1017 Co990 2.096 . S
O1017 C998 1.247 . S
C1018 O1015 1.244 . S
C1018 O1016 1.240 . S
H1019 C993 0.931 . S
H1020 C1002 0.931 . S
H1021 C1006 0.929 . S
H1022 C1008 0.930 . S
Co1023 N1027 2.148 . S
Co1023 N1033 2.128 . S
Co1023 N1043 2.194 . S
Co1023 O1048 2.351 . S
Co1023 O1049 2.155 . S
Co1023 O1050 2.096 . S
C1024 N1027 1.301 . S
C1024 N1028 1.328 . S
C1024 H1029 0.930 . S
C1025 C1026 1.333 . S
C1025 N1027 1.317 . S
C1025 H1030 0.930 . S
C1026 C1025 1.333 . S
C1026 N1028 1.350 . S
C1026 H1052 0.931 . S
N1027 Co1023 2.148 . S
N1027 C1024 1.301 . S
N1027 C1025 1.317 . S
N1028 C1024 1.328 . S
N1028 C1026 1.350 . S
H1029 C1024 0.930 . S
H1030 C1025 0.930 . S
C1031 O1032 1.224 . S
C1031 O1050 1.247 . S
O1032 C1031 1.224 . S
N1033 Co1023 2.128 . S
N1033 C1034 1.355 . S
N1033 C1036 1.311 . S
C1034 N1033 1.355 . S
C1034 C1035 1.363 . S
C1034 H1046 0.929 . S
C1035 C1034 1.363 . S
C1035 N1037 1.375 . S
C1035 H1053 0.931 . S
C1036 N1033 1.311 . S
C1036 N1037 1.347 . S
C1036 H1047 0.929 . S
N1037 C1035 1.375 . S
N1037 C1036 1.347 . S
C1038 C1041 1.365 . S
C1038 N1043 1.328 . S
C1038 H1044 0.929 . S
C1039 C1040 1.362 . S
C1039 C1042 1.378 . S
C1039 H1054 0.929 . S
C1040 C1039 1.362 . S
C1040 C1041 1.366 . S
C1041 C1038 1.365 . S
C1041 C1040 1.366 . S
C1041 H1055 0.930 . S
C1042 C1039 1.378 . S
C1042 N1043 1.315 . S
C1042 H1045 0.930 . S
N1043 Co1023 2.194 . S
N1043 C1038 1.328 . S
N1043 C1042 1.315 . S
H1044 C1038 0.929 . S
H1045 C1042 0.930 . S
H1046 C1034 0.929 . S
H1047 C1036 0.929 . S
O1048 Co1023 2.351 . S
O1048 C1051 1.244 . S
O1049 Co1023 2.155 . S
O1049 C1051 1.240 . S
O1050 Co1023 2.096 . S
O1050 C1031 1.247 . S
C1051 O1048 1.244 . S
C1051 O1049 1.240 . S
H1052 C1026 0.931 . S
H1053 C1035 0.931 . S
H1054 C1039 0.929 . S
H1055 C1041 0.930 . S
H1056 C1064 0.950 . S
H1057 C1069 0.950 1_556 S
H1058 C1066 0.950 1_565 S
H1059 C1068 0.950 . S
H1060 C1070 0.950 . S
H1061 C1072 0.950 1_545 S
H1062 C1074 0.950 . S
H1063 C1075 0.950 1_554 S
C1064 H1056 0.950 . S
C1064 C1065 1.386 . S
C1064 C1066 1.391 . S
C1065 C1064 1.386 . S
C1065 C1069 1.393 . S
C1066 H1058 0.950 1_545 S
C1066 C1064 1.391 . S
C1066 C1067 1.400 . S
C1067 C1066 1.400 . S
C1067 C1068 1.398 1_554 S
C1067 C1073 1.491 1_544 S
C1068 H1059 0.950 . S
C1068 C1067 1.398 1_556 S
C1068 C1069 1.391 1_556 S
C1069 H1057 0.950 1_554 S
C1069 C1065 1.393 . S
C1069 C1068 1.391 1_554 S
C1070 H1060 0.950 . S
C1070 C1071 1.386 . S
C1070 C1072 1.391 . S
C1071 C1070 1.386 . S
C1071 C1075 1.393 . S
C1072 H1061 0.950 1_565 S
C1072 C1070 1.391 . S
C1072 C1073 1.400 . S
C1073 C1067 1.491 1_566 S
C1073 C1072 1.400 . S
C1073 C1074 1.398 1_556 S
C1074 H1062 0.950 . S
C1074 C1073 1.398 1_554 S
C1074 C1075 1.391 1_554 S
C1075 H1063 0.950 1_556 S
C1075 C1071 1.393 . S
C1075 C1074 1.391 1_556 S
H1076 C1084 0.950 . S
H1077 C1089 0.950 . S
H1078 C1086 0.950 . S
H1079 C1088 0.950 . S
H1080 C1090 0.950 . S
H1081 C1092 0.950 . S
H1082 C1094 0.950 . S
H1083 C1095 0.950 . S
C1084 H1076 0.950 . S
C1084 C1085 1.386 . S
C1084 C1086 1.391 1_556 S
C1085 C1084 1.386 . S
C1085 C1089 1.393 . S
C1086 H1078 0.950 . S
C1086 C1084 1.391 1_554 S
C1086 C1087 1.400 1_554 S
C1087 C1086 1.400 1_556 S
C1087 C1088 1.398 . S
C1087 C1093 1.491 1_556 S
C1088 H1079 0.950 . S
C1088 C1087 1.398 . S
C1088 C1089 1.391 . S
C1089 H1077 0.950 . S
C1089 C1085 1.393 . S
C1089 C1088 1.391 . S
C1090 H1080 0.950 . S
C1090 C1091 1.386 . S
C1090 C1092 1.391 1_554 S
C1091 C1090 1.386 . S
C1091 C1095 1.393 . S
C1092 H1081 0.950 . S
C1092 C1090 1.391 1_556 S
C1092 C1093 1.400 1_556 S
C1093 C1087 1.491 1_554 S
C1093 C1092 1.400 1_554 S
C1093 C1094 1.398 . S
C1094 H1082 0.950 . S
C1094 C1093 1.398 . S
C1094 C1095 1.391 . S
C1095 H1083 0.950 . S
C1095 C1091 1.393 . S
C1095 C1094 1.391 . S
H1096 C1104 0.950 . S
H1097 C1109 0.950 . S
H1098 C1106 0.950 . S
H1099 C1108 0.950 . S
H1100 C1110 0.950 . S
H1101 C1112 0.950 . S
H1102 C1114 0.950 . S
H1103 C1115 0.950 . S
C1104 H1096 0.950 . S
C1104 C1105 1.386 . S
C1104 C1106 1.391 . S
C1105 C1104 1.386 . S
C1105 C1109 1.393 . S
C1106 H1098 0.950 . S
C1106 C1104 1.391 . S
C1106 C1107 1.400 . S
C1107 C1106 1.400 . S
C1107 C1108 1.398 . S
C1107 C1113 1.491 . S
C1108 H1099 0.950 . S
C1108 C1107 1.398 . S
C1108 C1109 1.391 . S
C1109 H1097 0.950 . S
C1109 C1105 1.393 . S
C1109 C1108 1.391 . S
C1110 H1100 0.950 . S
C1110 C1111 1.386 . S
C1110 C1112 1.391 . S
C1111 C1110 1.386 . S
C1111 C1115 1.393 . S
C1112 H1101 0.950 . S
C1112 C1110 1.391 . S
C1112 C1113 1.400 . S
C1113 C1107 1.491 . S
C1113 C1112 1.400 . S
C1113 C1114 1.398 . S
C1114 H1102 0.950 . S
C1114 C1113 1.398 . S
C1114 C1115 1.391 . S
C1115 H1103 0.950 . S
C1115 C1111 1.393 . S
C1115 C1114 1.391 . S
H1116 C1124 0.950 . S
H1117 C1129 0.950 . S
H1118 C1126 0.950 . S
H1119 C1128 0.950 . S
H1120 C1130 0.950 . S
H1121 C1132 0.950 . S
H1122 C1134 0.950 . S
H1123 C1135 0.950 . S
C1124 H1116 0.950 . S
C1124 C1125 1.386 . S
C1124 C1126 1.391 . S
C1125 C1124 1.386 . S
C1125 C1129 1.393 . S
C1126 H1118 0.950 . S
C1126 C1124 1.391 . S
C1126 C1127 1.400 . S
C1127 C1126 1.400 . S
C1127 C1128 1.398 . S
C1127 C1133 1.491 1_545 S
C1128 H1119 0.950 . S
C1128 C1127 1.398 . S
C1128 C1129 1.391 . S
C1129 H1117 0.950 . S
C1129 C1125 1.393 . S
C1129 C1128 1.391 . S
C1130 H1120 0.950 . S
C1130 C1131 1.386 . S
C1130 C1132 1.391 . S
C1131 C1130 1.386 . S
C1131 C1135 1.393 . S
C1132 H1121 0.950 . S
C1132 C1130 1.391 . S
C1132 C1133 1.400 . S
C1133 C1127 1.491 1_565 S
C1133 C1132 1.400 . S
C1133 C1134 1.398 . S
C1134 H1122 0.950 . S
C1134 C1133 1.398 . S
C1134 C1135 1.391 . S
C1135 H1123 0.950 . S
C1135 C1131 1.393 . S
C1135 C1134 1.391 . S
H1136 C1144 0.950 . S
H1137 C1149 0.950 . S
H1138 C1146 0.950 . S
H1139 C1148 0.901 1_556 S
H1140 C1150 0.950 . S
H1141 C1152 0.950 . S
H1142 C1154 0.902 1_554 S
H1143 C1155 0.950 . S
C1144 H1136 0.950 . S
C1144 C1145 1.386 . S
C1144 C1146 1.391 . S
C1145 C1144 1.386 . S
C1145 C1149 1.393 . S
C1146 H1138 0.950 . S
C1146 C1144 1.391 . S
C1146 C1147 1.400 . S
C1147 C1146 1.400 . S
C1147 C1148 1.415 . S
C1147 C1153 1.491 1_554 S
C1148 H1139 0.901 1_554 S
C1148 C1147 1.415 . S
C1148 C1149 1.427 . S
C1149 H1137 0.950 . S
C1149 C1145 1.393 . S
C1149 C1148 1.427 . S
C1150 H1140 0.950 . S
C1150 C1151 1.386 . S
C1150 C1152 1.391 . S
C1151 C1150 1.386 . S
C1151 C1155 1.393 . S
C1152 H1141 0.950 . S
C1152 C1150 1.391 . S
C1152 C1153 1.400 . S
C1153 C1147 1.491 1_556 S
C1153 C1152 1.400 . S
C1153 C1154 1.415 . S
C1154 H1142 0.902 1_556 S
C1154 C1153 1.415 . S
C1154 C1155 1.427 . S
C1155 H1143 0.950 . S
C1155 C1151 1.393 . S
C1155 C1154 1.427 . S
H1156 C1164 0.950 . S
H1157 C1169 0.950 . S
H1158 C1166 0.950 . S
H1159 C1168 0.950 . S
H1160 C1170 0.950 . S
H1161 C1172 0.950 . S
H1162 C1174 0.950 . S
H1163 C1175 0.950 . S
C1164 H1156 0.950 . S
C1164 C1165 1.386 . S
C1164 C1166 1.391 . S
C1165 C1164 1.386 . S
C1165 C1169 1.393 . S
C1166 H1158 0.950 . S
C1166 C1164 1.391 . S
C1166 C1167 1.400 . S
C1167 C1166 1.400 . S
C1167 C1168 1.398 . S
C1167 C1173 1.491 . S
C1168 H1159 0.950 . S
C1168 C1167 1.398 . S
C1168 C1169 1.391 . S
C1169 H1157 0.950 . S
C1169 C1165 1.393 . S
C1169 C1168 1.391 . S
C1170 H1160 0.950 . S
C1170 C1171 1.386 . S
C1170 C1172 1.391 . S
C1171 C1170 1.386 . S
C1171 C1175 1.393 . S
C1172 H1161 0.950 . S
C1172 C1170 1.391 . S
C1172 C1173 1.400 . S
C1173 C1167 1.491 . S
C1173 C1172 1.400 . S
C1173 C1174 1.398 . S
C1174 H1162 0.950 . S
C1174 C1173 1.398 . S
C1174 C1175 1.391 . S
C1175 H1163 0.950 . S
C1175 C1171 1.393 . S
C1175 C1174 1.391 . S
H1176 C1184 0.950 . S
H1177 C1189 0.950 . S
H1178 C1186 0.950 . S
H1179 C1188 0.950 . S
H1180 C1190 0.950 . S
H1181 C1192 0.950 . S
H1182 C1194 0.950 . S
H1183 C1195 0.950 . S
C1184 H1176 0.950 . S
C1184 C1185 1.386 . S
C1184 C1186 1.391 . S
C1185 C1184 1.386 . S
C1185 C1189 1.393 . S
C1186 H1178 0.950 . S
C1186 C1184 1.391 . S
C1186 C1187 1.400 . S
C1187 C1186 1.400 . S
C1187 C1188 1.398 . S
C1187 C1193 1.491 1_545 S
C1188 H1179 0.950 . S
C1188 C1187 1.398 . S
C1188 C1189 1.391 . S
C1189 H1177 0.950 . S
C1189 C1185 1.393 . S
C1189 C1188 1.391 . S
C1190 H1180 0.950 . S
C1190 C1191 1.386 . S
C1190 C1192 1.391 . S
C1191 C1190 1.386 . S
C1191 C1195 1.393 . S
C1192 H1181 0.950 . S
C1192 C1190 1.391 . S
C1192 C1193 1.400 . S
C1193 C1187 1.491 1_565 S
C1193 C1192 1.400 . S
C1193 C1194 1.398 . S
C1194 H1182 0.950 . S
C1194 C1193 1.398 . S
C1194 C1195 1.391 . S
C1195 H1183 0.950 . S
C1195 C1191 1.393 . S
C1195 C1194 1.391 . S
H1196 C1204 0.950 . S
H1197 C1209 0.950 . S
H1198 C1206 0.950 . S
H1199 C1208 0.950 . S
H1200 C1210 0.950 . S
H1201 C1212 0.950 . S
H1202 C1214 0.950 . S
H1203 C1215 0.950 . S
C1204 H1196 0.950 . S
C1204 C1205 1.386 . S
C1204 C1206 1.391 . S
C1205 C1204 1.386 . S
C1205 C1209 1.393 . S
C1206 H1198 0.950 . S
C1206 C1204 1.391 . S
C1206 C1207 1.400 . S
C1207 C1206 1.400 . S
C1207 C1208 1.398 . S
C1207 C1213 1.491 . S
C1208 H1199 0.950 . S
C1208 C1207 1.398 . S
C1208 C1209 1.391 . S
C1209 H1197 0.950 . S
C1209 C1205 1.393 . S
C1209 C1208 1.391 . S
C1210 H1200 0.950 . S
C1210 C1211 1.386 . S
C1210 C1212 1.391 . S
C1211 C1210 1.386 . S
C1211 C1215 1.393 . S
C1212 H1201 0.950 . S
C1212 C1210 1.391 . S
C1212 C1213 1.400 . S
C1213 C1207 1.491 . S
C1213 C1212 1.400 . S
C1213 C1214 1.398 . S
C1214 H1202 0.950 . S
C1214 C1213 1.398 . S
C1214 C1215 1.391 . S
C1215 H1203 0.950 . S
C1215 C1211 1.393 . S
C1215 C1214 1.391 . S
H1216 C1224 0.950 . S
H1217 C1229 0.950 . S
H1218 C1226 0.950 . S
H1219 C1228 0.950 . S
H1220 C1230 0.950 . S
H1221 C1232 0.950 . S
H1222 C1234 0.950 . S
H1223 C1235 0.950 . S
C1224 H1216 0.950 . S
C1224 C1225 1.386 . S
C1224 C1226 1.391 . S
C1225 C1224 1.386 . S
C1225 C1229 1.393 . S
C1226 H1218 0.950 . S
C1226 C1224 1.391 . S
C1226 C1227 1.400 . S
C1227 C1226 1.400 . S
C1227 C1228 1.398 . S
C1227 C1233 1.491 . S
C1228 H1219 0.950 . S
C1228 C1227 1.398 . S
C1228 C1229 1.391 . S
C1229 H1217 0.950 . S
C1229 C1225 1.393 . S
C1229 C1228 1.391 . S
C1230 H1220 0.950 . S
C1230 C1231 1.386 . S
C1230 C1232 1.391 . S
C1231 C1230 1.386 . S
C1231 C1235 1.393 . S
C1232 H1221 0.950 . S
C1232 C1230 1.391 . S
C1232 C1233 1.400 . S
C1233 C1227 1.491 . S
C1233 C1232 1.400 . S
C1233 C1234 1.398 . S
C1234 H1222 0.950 . S
C1234 C1233 1.398 . S
C1234 C1235 1.391 . S
C1235 H1223 0.950 . S
C1235 C1231 1.393 . S
C1235 C1234 1.391 . S
H1236 C1244 0.950 . S
H1237 C1249 0.950 . S
H1238 C1246 0.950 . S
H1239 C1248 0.950 . S
H1240 C1250 0.950 . S
H1241 C1252 0.950 . S
H1242 C1254 0.950 . S
H1243 C1255 0.950 . S
C1244 H1236 0.950 . S
C1244 C1245 1.386 . S
C1244 C1246 1.391 . S
C1245 C1244 1.386 . S
C1245 C1249 1.393 . S
C1246 H1238 0.950 . S
C1246 C1244 1.391 . S
C1246 C1247 1.400 . S
C1247 C1246 1.400 . S
C1247 C1248 1.398 . S
C1247 C1253 1.491 . S
C1248 H1239 0.950 . S
C1248 C1247 1.398 . S
C1248 C1249 1.391 . S
C1249 H1237 0.950 . S
C1249 C1245 1.393 . S
C1249 C1248 1.391 . S
C1250 H1240 0.950 . S
C1250 C1251 1.386 . S
C1250 C1252 1.391 . S
C1251 C1250 1.386 . S
C1251 C1255 1.393 . S
C1252 H1241 0.950 . S
C1252 C1250 1.391 . S
C1252 C1253 1.400 . S
C1253 C1247 1.491 . S
C1253 C1252 1.400 . S
C1253 C1254 1.398 . S
C1254 H1242 0.950 . S
C1254 C1253 1.398 . S
C1254 C1255 1.391 . S
C1255 H1243 0.950 . S
C1255 C1251 1.393 . S
C1255 C1254 1.391 . S
H1256 C1264 0.950 . S
H1257 C1269 0.950 . S
H1258 C1266 0.950 . S
H1259 C1268 0.950 . S
H1260 C1270 0.950 . S
H1261 C1272 0.950 . S
H1262 C1274 0.950 . S
H1263 C1275 0.950 . S
C1264 H1256 0.950 . S
C1264 C1265 1.386 . S
C1264 C1266 1.391 . S
C1265 C1264 1.386 . S
C1265 C1269 1.393 . S
C1266 H1258 0.950 . S
C1266 C1264 1.391 . S
C1266 C1267 1.400 . S
C1267 C1266 1.400 . S
C1267 C1268 1.398 . S
C1267 C1273 1.491 . S
C1268 H1259 0.950 . S
C1268 C1267 1.398 . S
C1268 C1269 1.391 . S
C1269 H1257 0.950 . S
C1269 C1265 1.393 . S
C1269 C1268 1.391 . S
C1270 H1260 0.950 . S
C1270 C1271 1.386 . S
C1270 C1272 1.391 . S
C1271 C1270 1.386 . S
C1271 C1275 1.393 . S
C1272 H1261 0.950 . S
C1272 C1270 1.391 . S
C1272 C1273 1.400 . S
C1273 C1267 1.491 . S
C1273 C1272 1.400 . S
C1273 C1274 1.398 . S
C1274 H1262 0.950 . S
C1274 C1273 1.398 . S
C1274 C1275 1.391 . S
C1275 H1263 0.950 . S
C1275 C1271 1.393 . S
C1275 C1274 1.391 . S
H1276 C1284 0.950 . S
H1277 C1289 0.950 . S
H1278 C1286 0.950 . S
H1279 C1288 0.950 . S
H1280 C1290 0.950 . S
H1281 C1292 0.950 . S
H1282 C1294 0.950 . S
H1283 C1295 0.950 . S
C1284 H1276 0.950 . S
C1284 C1285 1.386 . S
C1284 C1286 1.391 . S
C1285 C1284 1.386 . S
C1285 C1289 1.393 . S
C1286 H1278 0.950 . S
C1286 C1284 1.391 . S
C1286 C1287 1.400 . S
C1287 C1286 1.400 . S
C1287 C1288 1.398 . S
C1287 C1293 1.491 . S
C1288 H1279 0.950 . S
C1288 C1287 1.398 . S
C1288 C1289 1.391 . S
C1289 H1277 0.950 . S
C1289 C1285 1.393 . S
C1289 C1288 1.391 . S
C1290 H1280 0.950 . S
C1290 C1291 1.386 . S
C1290 C1292 1.391 . S
C1291 C1290 1.386 . S
C1291 C1295 1.393 . S
C1292 H1281 0.950 . S
C1292 C1290 1.391 . S
C1292 C1293 1.400 . S
C1293 C1287 1.491 . S
C1293 C1292 1.400 . S
C1293 C1294 1.398 . S
C1294 H1282 0.950 . S
C1294 C1293 1.398 . S
C1294 C1295 1.391 . S
C1295 H1283 0.950 . S
C1295 C1291 1.393 . S
C1295 C1294 1.391 . S
H1296 C1304 0.950 . S
H1297 C1309 0.950 . S
H1298 C1306 0.950 1_545 S
H1299 C1308 0.950 . S
H1300 C1310 0.950 . S
H1301 C1312 0.950 1_565 S
H1302 C1314 0.950 . S
H1303 C1315 0.950 . S
C1304 H1296 0.950 . S
C1304 C1305 1.386 . S
C1304 C1306 1.391 . S
C1305 C1304 1.386 . S
C1305 C1309 1.393 . S
C1306 H1298 0.950 1_565 S
C1306 C1304 1.391 . S
C1306 C1307 1.400 . S
C1307 C1306 1.400 . S
C1307 C1308 1.398 . S
C1307 C1313 1.491 1_465 S
C1308 H1299 0.950 . S
C1308 C1307 1.398 . S
C1308 C1309 1.391 . S
C1309 H1297 0.950 . S
C1309 C1305 1.393 . S
C1309 C1308 1.391 . S
C1310 H1300 0.950 . S
C1310 C1311 1.386 . S
C1310 C1312 1.391 . S
C1311 C1310 1.386 . S
C1311 C1315 1.393 . S
C1312 H1301 0.950 1_545 S
C1312 C1310 1.391 . S
C1312 C1313 1.400 . S
C1313 C1307 1.491 1_645 S
C1313 C1312 1.400 . S
C1313 C1314 1.398 . S
C1314 H1302 0.950 . S
C1314 C1313 1.398 . S
C1314 C1315 1.391 . S
C1315 H1303 0.950 . S
C1315 C1311 1.393 . S
C1315 C1314 1.391 . S
H1316 C1324 0.950 . S
H1317 C1329 0.950 . S
H1318 C1326 0.950 . S
H1319 C1328 0.950 1_655 S
H1320 C1330 0.950 . S
H1321 C1332 0.950 . S
H1322 C1334 0.950 1_455 S
H1323 C1335 0.950 . S
C1324 H1316 0.950 . S
C1324 C1325 1.386 . S
C1324 C1326 1.391 . S
C1325 C1324 1.386 . S
C1325 C1329 1.393 . S
C1326 H1318 0.950 . S
C1326 C1324 1.391 . S
C1326 C1327 1.400 . S
C1327 C1326 1.400 . S
C1327 C1328 1.398 . S
C1327 C1333 1.491 1_455 S
C1328 H1319 0.950 1_455 S
C1328 C1327 1.398 . S
C1328 C1329 1.391 . S
C1329 H1317 0.950 . S
C1329 C1325 1.393 . S
C1329 C1328 1.391 . S
C1330 H1320 0.950 . S
C1330 C1331 1.386 . S
C1330 C1332 1.391 . S
C1331 C1330 1.386 . S
C1331 C1335 1.393 . S
C1332 H1321 0.950 . S
C1332 C1330 1.391 . S
C1332 C1333 1.400 . S
C1333 C1327 1.491 1_655 S
C1333 C1332 1.400 . S
C1333 C1334 1.398 . S
C1334 H1322 0.950 1_655 S
C1334 C1333 1.398 . S
C1334 C1335 1.391 . S
C1335 H1323 0.950 . S
C1335 C1331 1.393 . S
C1335 C1334 1.391 . S
H1336 C1344 0.950 . S
H1337 C1349 0.950 . S
H1338 C1346 0.950 . S
H1339 C1348 0.950 . S
H1340 C1350 0.950 . S
H1341 C1352 0.950 . S
H1342 C1354 0.950 . S
H1343 C1355 0.950 . S
C1344 H1336 0.950 . S
C1344 C1345 1.386 . S
C1344 C1346 1.391 1_455 S
C1345 C1344 1.386 . S
C1345 C1349 1.393 . S
C1346 H1338 0.950 . S
C1346 C1344 1.391 1_655 S
C1346 C1347 1.400 1_655 S
C1347 C1346 1.400 1_455 S
C1347 C1348 1.398 . S
C1347 C1353 1.491 1_455 S
C1348 H1339 0.950 . S
C1348 C1347 1.398 . S
C1348 C1349 1.391 . S
C1349 H1337 0.950 . S
C1349 C1345 1.393 . S
C1349 C1348 1.391 . S
C1350 H1340 0.950 . S
C1350 C1351 1.386 . S
C1350 C1352 1.391 1_655 S
C1351 C1350 1.386 . S
C1351 C1355 1.393 . S
C1352 H1341 0.950 . S
C1352 C1350 1.391 1_455 S
C1352 C1353 1.400 1_455 S
C1353 C1347 1.491 1_655 S
C1353 C1352 1.400 1_655 S
C1353 C1354 1.398 . S
C1354 H1342 0.950 . S
C1354 C1353 1.398 . S
C1354 C1355 1.391 . S
C1355 H1343 0.950 . S
C1355 C1351 1.393 . S
C1355 C1354 1.391 . S
H1356 C1364 0.950 . S
H1357 C1369 0.950 . S
H1358 C1366 0.950 . S
H1359 C1368 0.950 . S
H1360 C1370 0.950 . S
H1361 C1372 0.950 . S
H1362 C1374 0.950 . S
H1363 C1375 0.950 . S
C1364 H1356 0.950 . S
C1364 C1365 1.386 . S
C1364 C1366 1.391 . S
C1365 C1364 1.386 . S
C1365 C1369 1.393 . S
C1366 H1358 0.950 . S
C1366 C1364 1.391 . S
C1366 C1367 1.400 . S
C1367 C1366 1.400 . S
C1367 C1368 1.398 1_455 S
C1367 C1373 1.491 1_456 S
C1368 H1359 0.950 . S
C1368 C1367 1.398 1_655 S
C1368 C1369 1.391 1_655 S
C1369 H1357 0.950 . S
C1369 C1365 1.393 . S
C1369 C1368 1.391 1_455 S
C1370 H1360 0.950 . S
C1370 C1371 1.386 . S
C1370 C1372 1.391 . S
C1371 C1370 1.386 . S
C1371 C1375 1.393 . S
C1372 H1361 0.950 . S
C1372 C1370 1.391 . S
C1372 C1373 1.400 . S
C1373 C1367 1.491 1_654 S
C1373 C1372 1.400 . S
C1373 C1374 1.398 1_655 S
C1374 H1362 0.950 . S
C1374 C1373 1.398 1_455 S
C1374 C1375 1.391 1_455 S
C1375 H1363 0.950 . S
C1375 C1371 1.393 . S
C1375 C1374 1.391 1_655 S
H1376 C1384 0.950 . S
H1377 C1389 0.950 . S
H1378 C1386 0.950 . S
H1379 C1388 0.950 . S
H1380 C1390 0.950 . S
H1381 C1392 0.950 . S
H1382 C1394 0.950 . S
H1383 C1395 0.950 . S
C1384 H1376 0.950 . S
C1384 C1385 1.386 . S
C1384 C1386 1.391 . S
C1385 C1384 1.386 . S
C1385 C1389 1.393 . S
C1386 H1378 0.950 . S
C1386 C1384 1.391 . S
C1386 C1387 1.400 . S
C1387 C1386 1.400 . S
C1387 C1388 1.398 . S
C1387 C1393 1.491 . S
C1388 H1379 0.950 . S
C1388 C1387 1.398 . S
C1388 C1389 1.391 . S
C1389 H1377 0.950 . S
C1389 C1385 1.393 . S
C1389 C1388 1.391 . S
C1390 H1380 0.950 . S
C1390 C1391 1.386 . S
C1390 C1392 1.391 . S
C1391 C1390 1.386 . S
C1391 C1395 1.393 . S
C1392 H1381 0.950 . S
C1392 C1390 1.391 . S
C1392 C1393 1.400 . S
C1393 C1387 1.491 . S
C1393 C1392 1.400 . S
C1393 C1394 1.398 . S
C1394 H1382 0.950 . S
C1394 C1393 1.398 . S
C1394 C1395 1.391 . S
C1395 H1383 0.950 . S
C1395 C1391 1.393 . S
C1395 C1394 1.391 . S
H1396 C1404 0.950 . S
H1397 C1409 0.950 . S
H1398 C1406 0.950 . S
H1399 C1408 0.950 . S
H1400 C1410 0.950 . S
H1401 C1412 0.950 . S
H1402 C1414 0.950 . S
H1403 C1415 0.950 . S
C1404 H1396 0.950 . S
C1404 C1405 1.386 . S
C1404 C1406 1.391 . S
C1405 C1404 1.386 . S
C1405 C1409 1.393 . S
C1406 H1398 0.950 . S
C1406 C1404 1.391 . S
C1406 C1407 1.400 . S
C1407 C1406 1.400 . S
C1407 C1408 1.398 . S
C1407 C1413 1.491 . S
C1408 H1399 0.950 . S
C1408 C1407 1.398 . S
C1408 C1409 1.391 . S
C1409 H1397 0.950 . S
C1409 C1405 1.393 . S
C1409 C1408 1.391 . S
C1410 H1400 0.950 . S
C1410 C1411 1.386 . S
C1410 C1412 1.391 . S
C1411 C1410 1.386 . S
C1411 C1415 1.393 . S
C1412 H1401 0.950 . S
C1412 C1410 1.391 . S
C1412 C1413 1.400 . S
C1413 C1407 1.491 . S
C1413 C1412 1.400 . S
C1413 C1414 1.398 . S
C1414 H1402 0.950 . S
C1414 C1413 1.398 . S
C1414 C1415 1.391 . S
C1415 H1403 0.950 . S
C1415 C1411 1.393 . S
C1415 C1414 1.391 . S
H1416 C1424 0.950 . S
H1417 C1429 0.950 . S
H1418 C1426 0.950 . S
H1419 C1428 0.950 . S
H1420 C1430 0.950 . S
H1421 C1432 0.950 . S
H1422 C1434 0.950 . S
H1423 C1435 0.950 . S
C1424 H1416 0.950 . S
C1424 C1425 1.386 . S
C1424 C1426 1.391 . S
C1425 C1424 1.386 . S
C1425 C1429 1.393 . S
C1426 H1418 0.950 . S
C1426 C1424 1.391 . S
C1426 C1427 1.400 . S
C1427 C1426 1.400 . S
C1427 C1428 1.398 . S
C1427 C1433 1.491 . S
C1428 H1419 0.950 . S
C1428 C1427 1.398 . S
C1428 C1429 1.391 . S
C1429 H1417 0.950 . S
C1429 C1425 1.393 . S
C1429 C1428 1.391 . S
C1430 H1420 0.950 . S
C1430 C1431 1.386 . S
C1430 C1432 1.391 . S
C1431 C1430 1.386 . S
C1431 C1435 1.393 . S
C1432 H1421 0.950 . S
C1432 C1430 1.391 . S
C1432 C1433 1.400 . S
C1433 C1427 1.491 . S
C1433 C1432 1.400 . S
C1433 C1434 1.398 . S
C1434 H1422 0.950 . S
C1434 C1433 1.398 . S
C1434 C1435 1.391 . S
C1435 H1423 0.950 . S
C1435 C1431 1.393 . S
C1435 C1434 1.391 . S
H1436 C1444 0.950 . S
H1437 C1449 0.950 . S
H1438 C1446 0.950 . S
H1439 C1448 0.950 . S
H1440 C1450 0.950 . S
H1441 C1452 0.950 . S
H1442 C1454 0.950 . S
H1443 C1455 0.950 . S
C1444 H1436 0.950 . S
C1444 C1445 1.386 . S
C1444 C1446 1.391 . S
C1445 C1444 1.386 . S
C1445 C1449 1.393 . S
C1446 H1438 0.950 . S
C1446 C1444 1.391 . S
C1446 C1447 1.400 . S
C1447 C1446 1.400 . S
C1447 C1448 1.398 . S
C1447 C1453 1.491 . S
C1448 H1439 0.950 . S
C1448 C1447 1.398 . S
C1448 C1449 1.391 . S
C1449 H1437 0.950 . S
C1449 C1445 1.393 . S
C1449 C1448 1.391 . S
C1450 H1440 0.950 . S
C1450 C1451 1.386 . S
C1450 C1452 1.391 . S
C1451 C1450 1.386 . S
C1451 C1455 1.393 . S
C1452 H1441 0.950 . S
C1452 C1450 1.391 . S
C1452 C1453 1.400 . S
C1453 C1447 1.491 . S
C1453 C1452 1.400 . S
C1453 C1454 1.398 . S
C1454 H1442 0.950 . S
C1454 C1453 1.398 . S
C1454 C1455 1.391 . S
C1455 H1443 0.950 . S
C1455 C1451 1.393 . S
C1455 C1454 1.391 . S
H1456 C1464 0.950 . S
H1457 C1469 0.950 . S
H1458 C1466 0.950 . S
H1459 C1468 0.950 . S
H1460 C1470 0.950 . S
H1461 C1472 0.950 . S
H1462 C1474 0.950 . S
H1463 C1475 0.950 . S
C1464 H1456 0.950 . S
C1464 C1465 1.386 . S
C1464 C1466 1.391 . S
C1465 C1464 1.386 . S
C1465 C1469 1.393 . S
C1466 H1458 0.950 . S
C1466 C1464 1.391 . S
C1466 C1467 1.400 . S
C1467 C1466 1.400 . S
C1467 C1468 1.398 . S
C1467 C1473 1.491 . S
C1468 H1459 0.950 . S
C1468 C1467 1.398 . S
C1468 C1469 1.391 . S
C1469 H1457 0.950 . S
C1469 C1465 1.393 . S
C1469 C1468 1.391 . S
C1470 H1460 0.950 . S
C1470 C1471 1.386 . S
C1470 C1472 1.391 . S
C1471 C1470 1.386 . S
C1471 C1475 1.393 . S
C1472 H1461 0.950 . S
C1472 C1470 1.391 . S
C1472 C1473 1.400 . S
C1473 C1467 1.491 . S
C1473 C1472 1.400 . S
C1473 C1474 1.398 . S
C1474 H1462 0.950 . S
C1474 C1473 1.398 . S
C1474 C1475 1.391 . S
C1475 H1463 0.950 . S
C1475 C1471 1.393 . S
C1475 C1474 1.391 . S
H1476 C1484 0.950 . S
H1477 C1489 0.950 . S
H1478 C1486 0.950 . S
H1479 C1488 0.950 . S
H1480 C1490 0.950 . S
H1481 C1492 0.950 . S
H1482 C1494 0.950 . S
H1483 C1495 0.950 . S
C1484 H1476 0.950 . S
C1484 C1485 1.386 . S
C1484 C1486 1.391 . S
C1485 C1484 1.386 . S
C1485 C1489 1.393 . S
C1486 H1478 0.950 . S
C1486 C1484 1.391 . S
C1486 C1487 1.400 . S
C1487 C1486 1.400 . S
C1487 C1488 1.398 . S
C1487 C1493 1.491 . S
C1488 H1479 0.950 . S
C1488 C1487 1.398 . S
C1488 C1489 1.391 . S
C1489 H1477 0.950 . S
C1489 C1485 1.393 . S
C1489 C1488 1.391 . S
C1490 H1480 0.950 . S
C1490 C1491 1.386 . S
C1490 C1492 1.391 . S
C1491 C1490 1.386 . S
C1491 C1495 1.393 . S
C1492 H1481 0.950 . S
C1492 C1490 1.391 . S
C1492 C1493 1.400 . S
C1493 C1487 1.491 . S
C1493 C1492 1.400 . S
C1493 C1494 1.398 . S
C1494 H1482 0.950 . S
C1494 C1493 1.398 . S
C1494 C1495 1.391 . S
C1495 H1483 0.950 . S
C1495 C1491 1.393 . S
C1495 C1494 1.391 . S
H1496 C1504 0.950 . S
H1497 C1509 0.950 . S
H1498 C1506 0.950 . S
H1499 C1508 0.950 . S
H1500 C1510 0.950 . S
H1501 C1512 0.950 . S
H1502 C1514 0.950 . S
H1503 C1515 0.950 . S
C1504 H1496 0.950 . S
C1504 C1505 1.386 . S
C1504 C1506 1.391 . S
C1505 C1504 1.386 . S
C1505 C1509 1.393 . S
C1506 H1498 0.950 . S
C1506 C1504 1.391 . S
C1506 C1507 1.400 . S
C1507 C1506 1.400 . S
C1507 C1508 1.398 . S
C1507 C1513 1.491 . S
C1508 H1499 0.950 . S
C1508 C1507 1.398 . S
C1508 C1509 1.391 . S
C1509 H1497 0.950 . S
C1509 C1505 1.393 . S
C1509 C1508 1.391 . S
C1510 H1500 0.950 . S
C1510 C1511 1.386 . S
C1510 C1512 1.391 . S
C1511 C1510 1.386 . S
C1511 C1515 1.393 . S
C1512 H1501 0.950 . S
C1512 C1510 1.391 . S
C1512 C1513 1.400 . S
C1513 C1507 1.491 . S
C1513 C1512 1.400 . S
C1513 C1514 1.398 . S
C1514 H1502 0.950 . S
C1514 C1513 1.398 . S
C1514 C1515 1.391 . S
C1515 H1503 0.950 . S
C1515 C1511 1.393 . S
C1515 C1514 1.391 . S
H1516 C1524 0.950 . S
H1517 C1529 0.950 . S
H1518 C1526 0.950 . S
H1519 C1528 0.950 . S
H1520 C1530 0.950 . S
H1521 C1532 0.950 . S
H1522 C1534 0.950 . S
H1523 C1535 0.950 . S
C1524 H1516 0.950 . S
C1524 C1525 1.386 . S
C1524 C1526 1.391 . S
C1525 C1524 1.386 . S
C1525 C1529 1.393 . S
C1526 H1518 0.950 . S
C1526 C1524 1.391 . S
C1526 C1527 1.400 . S
C1527 C1526 1.400 . S
C1527 C1528 1.398 . S
C1527 C1533 1.491 . S
C1528 H1519 0.950 . S
C1528 C1527 1.398 . S
C1528 C1529 1.391 . S
C1529 H1517 0.950 . S
C1529 C1525 1.393 . S
C1529 C1528 1.391 . S
C1530 H1520 0.950 . S
C1530 C1531 1.386 . S
C1530 C1532 1.391 . S
C1531 C1530 1.386 . S
C1531 C1535 1.393 . S
C1532 H1521 0.950 . S
C1532 C1530 1.391 . S
C1532 C1533 1.400 . S
C1533 C1527 1.491 . S
C1533 C1532 1.400 . S
C1533 C1534 1.398 . S
C1534 H1522 0.950 . S
C1534 C1533 1.398 . S
C1534 C1535 1.391 . S
C1535 H1523 0.950 . S
C1535 C1531 1.393 . S
C1535 C1534 1.391 . S
H1536 C1544 0.950 . S
H1537 C1549 0.950 . S
H1538 C1546 0.950 . S
H1539 C1548 0.950 . S
H1540 C1550 0.950 . S
H1541 C1552 0.950 . S
H1542 C1554 0.950 . S
H1543 C1555 0.950 . S
C1544 H1536 0.950 . S
C1544 C1545 1.386 . S
C1544 C1546 1.391 . S
C1545 C1544 1.386 . S
C1545 C1549 1.393 . S
C1546 H1538 0.950 . S
C1546 C1544 1.391 . S
C1546 C1547 1.400 . S
C1547 C1546 1.400 . S
C1547 C1548 1.398 . S
C1547 C1553 1.491 . S
C1548 H1539 0.950 . S
C1548 C1547 1.398 . S
C1548 C1549 1.391 . S
C1549 H1537 0.950 . S
C1549 C1545 1.393 . S
C1549 C1548 1.391 . S
C1550 H1540 0.950 . S
C1550 C1551 1.386 . S
C1550 C1552 1.391 . S
C1551 C1550 1.386 . S
C1551 C1555 1.393 . S
C1552 H1541 0.950 . S
C1552 C1550 1.391 . S
C1552 C1553 1.400 . S
C1553 C1547 1.491 . S
C1553 C1552 1.400 . S
C1553 C1554 1.398 . S
C1554 H1542 0.950 . S
C1554 C1553 1.398 . S
C1554 C1555 1.391 . S
C1555 H1543 0.950 . S
C1555 C1551 1.393 . S
C1555 C1554 1.391 . S
H1556 C1564 0.950 . S
H1557 C1569 0.950 . S
H1558 C1566 0.950 . S
H1559 C1568 0.950 . S
H1560 C1570 0.950 . S
H1561 C1572 0.950 . S
H1562 C1574 0.950 . S
H1563 C1575 0.950 . S
C1564 H1556 0.950 . S
C1564 C1565 1.386 . S
C1564 C1566 1.391 . S
C1565 C1564 1.386 . S
C1565 C1569 1.393 . S
C1566 H1558 0.950 . S
C1566 C1564 1.391 . S
C1566 C1567 1.400 . S
C1567 C1566 1.400 . S
C1567 C1568 1.398 . S
C1567 C1573 1.491 . S
C1568 H1559 0.950 . S
C1568 C1567 1.398 . S
C1568 C1569 1.391 . S
C1569 H1557 0.950 . S
C1569 C1565 1.393 . S
C1569 C1568 1.391 . S
C1570 H1560 0.950 . S
C1570 C1571 1.386 . S
C1570 C1572 1.391 . S
C1571 C1570 1.386 . S
C1571 C1575 1.393 . S
C1572 H1561 0.950 . S
C1572 C1570 1.391 . S
C1572 C1573 1.400 . S
C1573 C1567 1.491 . S
C1573 C1572 1.400 . S
C1573 C1574 1.398 . S
C1574 H1562 0.950 . S
C1574 C1573 1.398 . S
C1574 C1575 1.391 . S
C1575 H1563 0.950 . S
C1575 C1571 1.393 . S
C1575 C1574 1.391 . S
H1576 C1584 0.950 . S
H1577 C1589 0.950 . S
H1578 C1586 0.950 . S
H1579 C1588 0.950 . S
H1580 C1590 0.950 . S
H1581 C1592 0.950 . S
H1582 C1594 0.950 . S
H1583 C1595 0.950 . S
C1584 H1576 0.950 . S
C1584 C1585 1.386 . S
C1584 C1586 1.391 . S
C1585 C1584 1.386 . S
C1585 C1589 1.393 . S
C1586 H1578 0.950 . S
C1586 C1584 1.391 . S
C1586 C1587 1.400 . S
C1587 C1586 1.400 . S
C1587 C1588 1.398 . S
C1587 C1593 1.491 . S
C1588 H1579 0.950 . S
C1588 C1587 1.398 . S
C1588 C1589 1.391 . S
C1589 H1577 0.950 . S
C1589 C1585 1.393 . S
C1589 C1588 1.391 . S
C1590 H1580 0.950 . S
C1590 C1591 1.386 . S
C1590 C1592 1.391 . S
C1591 C1590 1.386 . S
C1591 C1595 1.393 . S
C1592 H1581 0.950 . S
C1592 C1590 1.391 . S
C1592 C1593 1.400 . S
C1593 C1587 1.491 . S
C1593 C1592 1.400 . S
C1593 C1594 1.398 . S
C1594 H1582 0.950 . S
C1594 C1593 1.398 . S
C1594 C1595 1.391 . S
C1595 H1583 0.950 . S
C1595 C1591 1.393 . S
C1595 C1594 1.391 . S
H1596 C1604 0.950 . S
H1597 C1609 0.950 . S
H1598 C1606 0.950 . S
H1599 C1608 0.950 . S
H1600 C1610 0.950 . S
H1601 C1612 0.950 . S
H1602 C1614 0.950 . S
H1603 C1615 0.950 . S
C1604 H1596 0.950 . S
C1604 C1605 1.386 . S
C1604 C1606 1.391 . S
C1605 C1604 1.386 . S
C1605 C1609 1.393 . S
C1606 H1598 0.950 . S
C1606 C1604 1.391 . S
C1606 C1607 1.400 . S
C1607 C1606 1.400 . S
C1607 C1608 1.398 . S
C1607 C1613 1.491 . S
C1608 H1599 0.950 . S
C1608 C1607 1.398 . S
C1608 C1609 1.391 . S
C1609 H1597 0.950 . S
C1609 C1605 1.393 . S
C1609 C1608 1.391 . S
C1610 H1600 0.950 . S
C1610 C1611 1.386 . S
C1610 C1612 1.391 . S
C1611 C1610 1.386 . S
C1611 C1615 1.393 . S
C1612 H1601 0.950 . S
C1612 C1610 1.391 . S
C1612 C1613 1.400 . S
C1613 C1607 1.491 . S
C1613 C1612 1.400 . S
C1613 C1614 1.398 . S
C1614 H1602 0.950 . S
C1614 C1613 1.398 . S
C1614 C1615 1.391 . S
C1615 H1603 0.950 . S
C1615 C1611 1.393 . S
C1615 C1614 1.391 . S
H1616 C1624 0.950 . S
H1617 C1629 0.950 . S
H1618 C1626 0.950 . S
H1619 C1628 0.950 . S
H1620 C1630 0.950 . S
H1621 C1632 0.950 . S
H1622 C1634 0.950 . S
H1623 C1635 0.950 . S
C1624 H1616 0.950 . S
C1624 C1625 1.386 . S
C1624 C1626 1.391 . S
C1625 C1624 1.386 . S
C1625 C1629 1.393 . S
C1626 H1618 0.950 . S
C1626 C1624 1.391 . S
C1626 C1627 1.400 . S
C1627 C1626 1.400 . S
C1627 C1628 1.398 . S
C1627 C1633 1.491 . S
C1628 H1619 0.950 . S
C1628 C1627 1.398 . S
C1628 C1629 1.391 . S
C1629 H1617 0.950 . S
C1629 C1625 1.393 . S
C1629 C1628 1.391 . S
C1630 H1620 0.950 . S
C1630 C1631 1.386 . S
C1630 C1632 1.391 . S
C1631 C1630 1.386 . S
C1631 C1635 1.393 . S
C1632 H1621 0.950 . S
C1632 C1630 1.391 . S
C1632 C1633 1.400 . S
C1633 C1627 1.491 . S
C1633 C1632 1.400 . S
C1633 C1634 1.398 . S
C1634 H1622 0.950 . S
C1634 C1633 1.398 . S
C1634 C1635 1.391 . S
C1635 H1623 0.950 . S
C1635 C1631 1.393 . S
C1635 C1634 1.391 . S
H1636 C1644 0.950 . S
H1637 C1649 0.950 . S
H1638 C1646 0.950 . S
H1639 C1648 0.950 . S
H1640 C1650 0.950 . S
H1641 C1652 0.950 . S
H1642 C1654 0.950 . S
H1643 C1655 0.950 . S
C1644 H1636 0.950 . S
C1644 C1645 1.386 . S
C1644 C1646 1.391 . S
C1645 C1644 1.386 . S
C1645 C1649 1.393 . S
C1646 H1638 0.950 . S
C1646 C1644 1.391 . S
C1646 C1647 1.400 . S
C1647 C1646 1.400 . S
C1647 C1648 1.398 . S
C1647 C1653 1.491 . S
C1648 H1639 0.950 . S
C1648 C1647 1.398 . S
C1648 C1649 1.391 . S
C1649 H1637 0.950 . S
C1649 C1645 1.393 . S
C1649 C1648 1.391 . S
C1650 H1640 0.950 . S
C1650 C1651 1.386 . S
C1650 C1652 1.391 . S
C1651 C1650 1.386 . S
C1651 C1655 1.393 . S
C1652 H1641 0.950 . S
C1652 C1650 1.391 . S
C1652 C1653 1.400 . S
C1653 C1647 1.491 . S
C1653 C1652 1.400 . S
C1653 C1654 1.398 . S
C1654 H1642 0.950 . S
C1654 C1653 1.398 . S
C1654 C1655 1.391 . S
C1655 H1643 0.950 . S
C1655 C1651 1.393 . S
C1655 C1654 1.391 . S
H1656 C1664 0.950 . S
H1657 C1669 0.950 . S
H1658 C1666 0.950 . S
H1659 C1668 0.950 . S
H1660 C1670 0.950 . S
H1661 C1672 0.950 . S
H1662 C1674 0.950 . S
H1663 C1675 0.950 . S
C1664 H1656 0.950 . S
C1664 C1665 1.386 . S
C1664 C1666 1.391 . S
C1665 C1664 1.386 . S
C1665 C1669 1.393 . S
C1666 H1658 0.950 . S
C1666 C1664 1.391 . S
C1666 C1667 1.400 . S
C1667 C1666 1.400 . S
C1667 C1668 1.398 . S
C1667 C1673 1.491 . S
C1668 H1659 0.950 . S
C1668 C1667 1.398 . S
C1668 C1669 1.391 . S
C1669 H1657 0.950 . S
C1669 C1665 1.393 . S
C1669 C1668 1.391 . S
C1670 H1660 0.950 . S
C1670 C1671 1.386 . S
C1670 C1672 1.391 . S
C1671 C1670 1.386 . S
C1671 C1675 1.393 . S
C1672 H1661 0.950 . S
C1672 C1670 1.391 . S
C1672 C1673 1.400 . S
C1673 C1667 1.491 . S
C1673 C1672 1.400 . S
C1673 C1674 1.398 . S
C1674 H1662 0.950 . S
C1674 C1673 1.398 . S
C1674 C1675 1.391 . S
C1675 H1663 0.950 . S
C1675 C1671 1.393 . S
C1675 C1674 1.391 . S
H1676 C1684 0.950 . S
H1677 C1689 0.950 . S
H1678 C1686 0.950 . S
H1679 C1688 0.950 . S
H1680 C1690 0.950 . S
H1681 C1692 0.950 . S
H1682 C1694 0.950 . S
H1683 C1695 0.950 . S
C1684 H1676 0.950 . S
C1684 C1685 1.386 . S
C1684 C1686 1.391 . S
C1685 C1684 1.386 . S
C1685 C1689 1.393 . S
C1686 H1678 0.950 . S
C1686 C1684 1.391 . S
C1686 C1687 1.400 . S
C1687 C1686 1.400 . S
C1687 C1688 1.398 . S
C1687 C1693 1.491 . S
C1688 H1679 0.950 . S
C1688 C1687 1.398 . S
C1688 C1689 1.391 . S
C1689 H1677 0.950 . S
C1689 C1685 1.393 . S
C1689 C1688 1.391 . S
C1690 H1680 0.950 . S
C1690 C1691 1.386 . S
C1690 C1692 1.391 . S
C1691 C1690 1.386 . S
C1691 C1695 1.393 . S
C1692 H1681 0.950 . S
C1692 C1690 1.391 . S
C1692 C1693 1.400 . S
C1693 C1687 1.491 . S
C1693 C1692 1.400 . S
C1693 C1694 1.398 . S
C1694 H1682 0.950 . S
C1694 C1693 1.398 . S
C1694 C1695 1.391 . S
C1695 H1683 0.950 . S
C1695 C1691 1.393 . S
C1695 C1694 1.391 . S
H1696 C1704 0.950 . S
H1697 C1709 0.950 . S
H1698 C1706 0.950 . S
H1699 C1708 0.950 . S
H1700 C1710 0.950 . S
H1701 C1712 0.950 . S
H1702 C1714 0.950 . S
H1703 C1715 0.950 . S
C1704 H1696 0.950 . S
C1704 C1705 1.386 . S
C1704 C1706 1.391 . S
C1705 C1704 1.386 . S
C1705 C1709 1.393 . S
C1706 H1698 0.950 . S
C1706 C1704 1.391 . S
C1706 C1707 1.400 . S
C1707 C1706 1.400 . S
C1707 C1708 1.398 . S
C1707 C1713 1.491 . S
C1708 H1699 0.950 . S
C1708 C1707 1.398 . S
C1708 C1709 1.391 . S
C1709 H1697 0.950 . S
C1709 C1705 1.393 . S
C1709 C1708 1.391 . S
C1710 H1700 0.950 . S
C1710 C1711 1.386 . S
C1710 C1712 1.391 . S
C1711 C1710 1.386 . S
C1711 C1715 1.393 . S
C1712 H1701 0.950 . S
C1712 C1710 1.391 . S
C1712 C1713 1.400 . S
C1713 C1707 1.491 . S
C1713 C1712 1.400 . S
C1713 C1714 1.398 . S
C1714 H1702 0.950 . S
C1714 C1713 1.398 . S
C1714 C1715 1.391 . S
C1715 H1703 0.950 . S
C1715 C1711 1.393 . S
C1715 C1714 1.391 . S
H1716 C1724 0.950 . S
H1717 C1729 0.950 . S
H1718 C1726 0.950 . S
H1719 C1728 0.950 . S
H1720 C1730 0.950 . S
H1721 C1732 0.950 . S
H1722 C1734 0.950 . S
H1723 C1735 0.950 . S
C1724 H1716 0.950 . S
C1724 C1725 1.386 . S
C1724 C1726 1.391 . S
C1725 C1724 1.386 . S
C1725 C1729 1.393 . S
C1726 H1718 0.950 . S
C1726 C1724 1.391 . S
C1726 C1727 1.400 . S
C1727 C1726 1.400 . S
C1727 C1728 1.398 . S
C1727 C1733 1.491 . S
C1728 H1719 0.950 . S
C1728 C1727 1.398 . S
C1728 C1729 1.391 . S
C1729 H1717 0.950 . S
C1729 C1725 1.393 . S
C1729 C1728 1.391 . S
C1730 H1720 0.950 . S
C1730 C1731 1.386 . S
C1730 C1732 1.391 . S
C1731 C1730 1.386 . S
C1731 C1735 1.393 . S
C1732 H1721 0.950 . S
C1732 C1730 1.391 . S
C1732 C1733 1.400 . S
C1733 C1727 1.491 . S
C1733 C1732 1.400 . S
C1733 C1734 1.398 . S
C1734 H1722 0.950 . S
C1734 C1733 1.398 . S
C1734 C1735 1.391 . S
C1735 H1723 0.950 . S
C1735 C1731 1.393 . S
C1735 C1734 1.391 . S
H1736 C1744 0.950 . S
H1737 C1749 0.950 . S
H1738 C1746 0.950 . S
H1739 C1748 0.950 . S
H1740 C1750 0.950 . S
H1741 C1752 0.950 . S
H1742 C1754 0.950 . S
H1743 C1755 0.950 . S
C1744 H1736 0.950 . S
C1744 C1745 1.386 . S
C1744 C1746 1.391 . S
C1745 C1744 1.386 . S
C1745 C1749 1.393 . S
C1746 H1738 0.950 . S
C1746 C1744 1.391 . S
C1746 C1747 1.400 . S
C1747 C1746 1.400 . S
C1747 C1748 1.398 . S
C1747 C1753 1.491 . S
C1748 H1739 0.950 . S
C1748 C1747 1.398 . S
C1748 C1749 1.391 . S
C1749 H1737 0.950 . S
C1749 C1745 1.393 . S
C1749 C1748 1.391 . S
C1750 H1740 0.950 . S
C1750 C1751 1.386 . S
C1750 C1752 1.391 . S
C1751 C1750 1.386 . S
C1751 C1755 1.393 . S
C1752 H1741 0.950 . S
C1752 C1750 1.391 . S
C1752 C1753 1.400 . S
C1753 C1747 1.491 . S
C1753 C1752 1.400 . S
C1753 C1754 1.398 . S
C1754 H1742 0.950 . S
C1754 C1753 1.398 . S
C1754 C1755 1.391 . S
C1755 H1743 0.950 . S
C1755 C1751 1.393 . S
C1755 C1754 1.391 . S
H1756 C1764 0.950 . S
H1757 C1769 0.950 . S
H1758 C1766 0.950 . S
H1759 C1768 0.950 . S
H1760 C1770 0.950 . S
H1761 C1772 0.950 . S
H1762 C1774 0.950 . S
H1763 C1775 0.950 . S
C1764 H1756 0.950 . S
C1764 C1765 1.386 . S
C1764 C1766 1.391 . S
C1765 C1764 1.386 . S
C1765 C1769 1.393 . S
C1766 H1758 0.950 . S
C1766 C1764 1.391 . S
C1766 C1767 1.400 . S
C1767 C1766 1.400 . S
C1767 C1768 1.398 . S
C1767 C1773 1.491 . S
C1768 H1759 0.950 . S
C1768 C1767 1.398 . S
C1768 C1769 1.391 . S
C1769 H1757 0.950 . S
C1769 C1765 1.393 . S
C1769 C1768 1.391 . S
C1770 H1760 0.950 . S
C1770 C1771 1.386 . S
C1770 C1772 1.391 . S
C1771 C1770 1.386 . S
C1771 C1775 1.393 . S
C1772 H1761 0.950 . S
C1772 C1770 1.391 . S
C1772 C1773 1.400 . S
C1773 C1767 1.491 . S
C1773 C1772 1.400 . S
C1773 C1774 1.398 . S
C1774 H1762 0.950 . S
C1774 C1773 1.398 . S
C1774 C1775 1.391 . S
C1775 H1763 0.950 . S
C1775 C1771 1.393 . S
C1775 C1774 1.391 . S
H1776 C1784 0.950 . S
H1777 C1789 0.950 . S
H1778 C1786 0.950 . S
H1779 C1788 0.950 . S
H1780 C1790 0.950 . S
H1781 C1792 0.950 . S
H1782 C1794 0.950 . S
H1783 C1795 0.950 . S
C1784 H1776 0.950 . S
C1784 C1785 1.386 . S
C1784 C1786 1.391 . S
C1785 C1784 1.386 . S
C1785 C1789 1.393 . S
C1786 H1778 0.950 . S
C1786 C1784 1.391 . S
C1786 C1787 1.400 . S
C1787 C1786 1.400 . S
C1787 C1788 1.398 . S
C1787 C1793 1.491 . S
C1788 H1779 0.950 . S
C1788 C1787 1.398 . S
C1788 C1789 1.391 . S
C1789 H1777 0.950 . S
C1789 C1785 1.393 . S
C1789 C1788 1.391 . S
C1790 H1780 0.950 . S
C1790 C1791 1.386 . S
C1790 C1792 1.391 . S
C1791 C1790 1.386 . S
C1791 C1795 1.393 . S
C1792 H1781 0.950 . S
C1792 C1790 1.391 . S
C1792 C1793 1.400 . S
C1793 C1787 1.491 . S
C1793 C1792 1.400 . S
C1793 C1794 1.398 . S
C1794 H1782 0.950 . S
C1794 C1793 1.398 . S
C1794 C1795 1.391 . S
C1795 H1783 0.950 . S
C1795 C1791 1.393 . S
C1795 C1794 1.391 . S
H1796 C1804 0.950 . S
H1797 C1809 0.950 . S
H1798 C1806 0.950 . S
H1799 C1808 0.950 . S
H1800 C1810 0.950 . S
H1801 C1812 0.950 . S
H1802 C1814 0.950 . S
H1803 C1815 0.950 . S
C1804 H1796 0.950 . S
C1804 C1805 1.386 . S
C1804 C1806 1.391 . S
C1805 C1804 1.386 . S
C1805 C1809 1.393 . S
C1806 H1798 0.950 . S
C1806 C1804 1.391 . S
C1806 C1807 1.400 . S
C1807 C1806 1.400 . S
C1807 C1808 1.398 . S
C1807 C1813 1.491 . S
C1808 H1799 0.950 . S
C1808 C1807 1.398 . S
C1808 C1809 1.391 . S
C1809 H1797 0.950 . S
C1809 C1805 1.393 . S
C1809 C1808 1.391 . S
C1810 H1800 0.950 . S
C1810 C1811 1.386 . S
C1810 C1812 1.391 . S
C1811 C1810 1.386 . S
C1811 C1815 1.393 . S
C1812 H1801 0.950 . S
C1812 C1810 1.391 . S
C1812 C1813 1.400 . S
C1813 C1807 1.491 . S
C1813 C1812 1.400 . S
C1813 C1814 1.398 . S
C1814 H1802 0.950 . S
C1814 C1813 1.398 . S
C1814 C1815 1.391 . S
C1815 H1803 0.950 . S
C1815 C1811 1.393 . S
C1815 C1814 1.391 . S
H1816 C1824 0.950 . S
H1817 C1829 0.950 . S
H1818 C1826 0.950 . S
H1819 C1828 0.950 . S
H1820 C1830 0.950 . S
H1821 C1832 0.950 . S
H1822 C1834 0.950 . S
H1823 C1835 0.950 . S
C1824 H1816 0.950 . S
C1824 C1825 1.386 . S
C1824 C1826 1.391 . S
C1825 C1824 1.386 . S
C1825 C1829 1.393 . S
C1826 H1818 0.950 . S
C1826 C1824 1.391 . S
C1826 C1827 1.400 . S
C1827 C1826 1.400 . S
C1827 C1828 1.398 . S
C1827 C1833 1.491 . S
C1828 H1819 0.950 . S
C1828 C1827 1.398 . S
C1828 C1829 1.391 . S
C1829 H1817 0.950 . S
C1829 C1825 1.393 . S
C1829 C1828 1.391 . S
C1830 H1820 0.950 . S
C1830 C1831 1.386 . S
C1830 C1832 1.391 . S
C1831 C1830 1.386 . S
C1831 C1835 1.393 . S
C1832 H1821 0.950 . S
C1832 C1830 1.391 . S
C1832 C1833 1.400 . S
C1833 C1827 1.491 . S
C1833 C1832 1.400 . S
C1833 C1834 1.398 . S
C1834 H1822 0.950 . S
C1834 C1833 1.398 . S
C1834 C1835 1.391 . S
C1835 H1823 0.950 . S
C1835 C1831 1.393 . S
C1835 C1834 1.391 . S
H1836 C1844 0.950 . S
H1837 C1849 0.950 . S
H1838 C1846 0.950 . S
H1839 C1848 0.950 . S
H1840 C1850 0.950 . S
H1841 C1852 0.950 . S
H1842 C1854 0.950 . S
H1843 C1855 0.950 . S
C1844 H1836 0.950 . S
C1844 C1845 1.386 . S
C1844 C1846 1.391 . S
C1845 C1844 1.386 . S
C1845 C1849 1.393 . S
C1846 H1838 0.950 . S
C1846 C1844 1.391 . S
C1846 C1847 1.400 . S
C1847 C1846 1.400 . S
C1847 C1848 1.398 . S
C1847 C1853 1.491 . S
C1848 H1839 0.950 . S
C1848 C1847 1.398 . S
C1848 C1849 1.391 . S
C1849 H1837 0.950 . S
C1849 C1845 1.393 . S
C1849 C1848 1.391 . S
C1850 H1840 0.950 . S
C1850 C1851 1.386 . S
C1850 C1852 1.391 . S
C1851 C1850 1.386 . S
C1851 C1855 1.393 . S
C1852 H1841 0.950 . S
C1852 C1850 1.391 . S
C1852 C1853 1.400 . S
C1853 C1847 1.491 . S
C1853 C1852 1.400 . S
C1853 C1854 1.398 . S
C1854 H1842 0.950 . S
C1854 C1853 1.398 . S
C1854 C1855 1.391 . S
C1855 H1843 0.950 . S
C1855 C1851 1.393 . S
C1855 C1854 1.391 . S
H1856 C1864 0.950 . S
H1857 C1869 0.950 . S
H1858 C1866 0.950 . S
H1859 C1868 0.950 . S
H1860 C1870 0.950 . S
H1861 C1872 0.950 . S
H1862 C1874 0.950 . S
H1863 C1875 0.950 . S
C1864 H1856 0.950 . S
C1864 C1865 1.386 . S
C1864 C1866 1.391 . S
C1865 C1864 1.386 . S
C1865 C1869 1.393 . S
C1866 H1858 0.950 . S
C1866 C1864 1.391 . S
C1866 C1867 1.400 . S
C1867 C1866 1.400 . S
C1867 C1868 1.398 . S
C1867 C1873 1.491 . S
C1868 H1859 0.950 . S
C1868 C1867 1.398 . S
C1868 C1869 1.391 . S
C1869 H1857 0.950 . S
C1869 C1865 1.393 . S
C1869 C1868 1.391 . S
C1870 H1860 0.950 . S
C1870 C1871 1.386 . S
C1870 C1872 1.391 . S
C1871 C1870 1.386 . S
C1871 C1875 1.393 . S
C1872 H1861 0.950 . S
C1872 C1870 1.391 . S
C1872 C1873 1.400 . S
C1873 C1867 1.491 . S
C1873 C1872 1.400 . S
C1873 C1874 1.398 . S
C1874 H1862 0.950 . S
C1874 C1873 1.398 . S
C1874 C1875 1.391 . S
C1875 H1863 0.950 . S
C1875 C1871 1.393 . S
C1875 C1874 1.391 . S
H1876 C1884 0.950 . S
H1877 C1889 0.950 . S
H1878 C1886 0.950 . S
H1879 C1888 0.950 . S
H1880 C1890 0.950 . S
H1881 C1892 0.950 . S
H1882 C1894 0.950 . S
H1883 C1895 0.950 . S
C1884 H1876 0.950 . S
C1884 C1885 1.386 . S
C1884 C1886 1.391 . S
C1885 C1884 1.386 . S
C1885 C1889 1.393 . S
C1886 H1878 0.950 . S
C1886 C1884 1.391 . S
C1886 C1887 1.400 . S
C1887 C1886 1.400 . S
C1887 C1888 1.398 . S
C1887 C1893 1.491 . S
C1888 H1879 0.950 . S
C1888 C1887 1.398 . S
C1888 C1889 1.391 . S
C1889 H1877 0.950 . S
C1889 C1885 1.393 . S
C1889 C1888 1.391 . S
C1890 H1880 0.950 . S
C1890 C1891 1.386 . S
C1890 C1892 1.391 . S
C1891 C1890 1.386 . S
C1891 C1895 1.393 . S
C1892 H1881 0.950 . S
C1892 C1890 1.391 . S
C1892 C1893 1.400 . S
C1893 C1887 1.491 . S
C1893 C1892 1.400 . S
C1893 C1894 1.398 . S
C1894 H1882 0.950 . S
C1894 C1893 1.398 . S
C1894 C1895 1.391 . S
C1895 H1883 0.950 . S
C1895 C1891 1.393 . S
C1895 C1894 1.391 . S
H1896 C1904 0.950 . S
H1897 C1909 0.950 . S
H1898 C1906 0.950 . S
H1899 C1908 0.950 . S
H1900 C1910 0.950 . S
H1901 C1912 0.950 . S
H1902 C1914 0.950 . S
H1903 C1915 0.950 . S
C1904 H1896 0.950 . S
C1904 C1905 1.386 . S
C1904 C1906 1.391 . S
C1905 C1904 1.386 . S
C1905 C1909 1.393 . S
C1906 H1898 0.950 . S
C1906 C1904 1.391 . S
C1906 C1907 1.400 . S
C1907 C1906 1.400 . S
C1907 C1908 1.398 . S
C1907 C1913 1.491 . S
C1908 H1899 0.950 . S
C1908 C1907 1.398 . S
C1908 C1909 1.391 . S
C1909 H1897 0.950 . S
C1909 C1905 1.393 . S
C1909 C1908 1.391 . S
C1910 H1900 0.950 . S
C1910 C1911 1.386 . S
C1910 C1912 1.391 . S
C1911 C1910 1.386 . S
C1911 C1915 1.393 . S
C1912 H1901 0.950 . S
C1912 C1910 1.391 . S
C1912 C1913 1.400 . S
C1913 C1907 1.491 . S
C1913 C1912 1.400 . S
C1913 C1914 1.398 . S
C1914 H1902 0.950 . S
C1914 C1913 1.398 . S
C1914 C1915 1.391 . S
C1915 H1903 0.950 . S
C1915 C1911 1.393 . S
C1915 C1914 1.391 . S
H1916 C1924 0.950 . S
H1917 C1929 0.950 . S
H1918 C1926 0.950 . S
H1919 C1928 0.950 . S
H1920 C1930 0.950 . S
H1921 C1932 0.950 . S
H1922 C1934 0.950 . S
H1923 C1935 0.950 . S
C1924 H1916 0.950 . S
C1924 C1925 1.386 . S
C1924 C1926 1.391 . S
C1925 C1924 1.386 . S
C1925 C1929 1.393 . S
C1926 H1918 0.950 . S
C1926 C1924 1.391 . S
C1926 C1927 1.400 . S
C1927 C1926 1.400 . S
C1927 C1928 1.398 . S
C1927 C1933 1.491 . S
C1928 H1919 0.950 . S
C1928 C1927 1.398 . S
C1928 C1929 1.391 . S
C1929 H1917 0.950 . S
C1929 C1925 1.393 . S
C1929 C1928 1.391 . S
C1930 H1920 0.950 . S
C1930 C1931 1.386 . S
C1930 C1932 1.391 . S
C1931 C1930 1.386 . S
C1931 C1935 1.393 . S
C1932 H1921 0.950 . S
C1932 C1930 1.391 . S
C1932 C1933 1.400 . S
C1933 C1927 1.491 . S
C1933 C1932 1.400 . S
C1933 C1934 1.398 . S
C1934 H1922 0.950 . S
C1934 C1933 1.398 . S
C1934 C1935 1.391 . S
C1935 H1923 0.950 . S
C1935 C1931 1.393 . S
C1935 C1934 1.391 . S
H1936 C1944 0.950 . S
H1937 C1949 0.950 . S
H1938 C1946 0.950 . S
H1939 C1948 0.950 . S
H1940 C1950 0.950 . S
H1941 C1952 0.950 . S
H1942 C1954 0.950 . S
H1943 C1955 0.950 . S
C1944 H1936 0.950 . S
C1944 C1945 1.386 . S
C1944 C1946 1.391 . S
C1945 C1944 1.386 . S
C1945 C1949 1.393 . S
C1946 H1938 0.950 . S
C1946 C1944 1.391 . S
C1946 C1947 1.400 . S
C1947 C1946 1.400 . S
C1947 C1948 1.398 . S
C1947 C1953 1.491 . S
C1948 H1939 0.950 . S
C1948 C1947 1.398 . S
C1948 C1949 1.391 . S
C1949 H1937 0.950 . S
C1949 C1945 1.393 . S
C1949 C1948 1.391 . S
C1950 H1940 0.950 . S
C1950 C1951 1.386 . S
C1950 C1952 1.391 . S
C1951 C1950 1.386 . S
C1951 C1955 1.393 . S
C1952 H1941 0.950 . S
C1952 C1950 1.391 . S
C1952 C1953 1.400 . S
C1953 C1947 1.491 . S
C1953 C1952 1.400 . S
C1953 C1954 1.398 . S
C1954 H1942 0.950 . S
C1954 C1953 1.398 . S
C1954 C1955 1.391 . S
C1955 H1943 0.950 . S
C1955 C1951 1.393 . S
C1955 C1954 1.391 . S
H1956 C1964 0.950 . S
H1957 C1969 0.950 . S
H1958 C1966 0.950 . S
H1959 C1968 0.950 . S
H1960 C1970 0.950 . S
H1961 C1972 0.950 . S
H1962 C1974 0.950 . S
H1963 C1975 0.950 . S
C1964 H1956 0.950 . S
C1964 C1965 1.386 . S
C1964 C1966 1.391 . S
C1965 C1964 1.386 . S
C1965 C1969 1.393 . S
C1966 H1958 0.950 . S
C1966 C1964 1.391 . S
C1966 C1967 1.400 . S
C1967 C1966 1.400 . S
C1967 C1968 1.398 . S
C1967 C1973 1.491 . S
C1968 H1959 0.950 . S
C1968 C1967 1.398 . S
C1968 C1969 1.391 . S
C1969 H1957 0.950 . S
C1969 C1965 1.393 . S
C1969 C1968 1.391 . S
C1970 H1960 0.950 . S
C1970 C1971 1.386 . S
C1970 C1972 1.391 . S
C1971 C1970 1.386 . S
C1971 C1975 1.393 . S
C1972 H1961 0.950 . S
C1972 C1970 1.391 . S
C1972 C1973 1.400 . S
C1973 C1967 1.491 . S
C1973 C1972 1.400 . S
C1973 C1974 1.398 . S
C1974 H1962 0.950 . S
C1974 C1973 1.398 . S
C1974 C1975 1.391 . S
C1975 H1963 0.950 . S
C1975 C1971 1.393 . S
C1975 C1974 1.391 . S
H1976 C1984 0.950 . S
H1977 C1989 0.950 . S
H1978 C1986 0.950 . S
H1979 C1988 0.950 . S
H1980 C1990 0.950 . S
H1981 C1992 0.950 . S
H1982 C1994 0.950 . S
H1983 C1995 0.950 . S
C1984 H1976 0.950 . S
C1984 C1985 1.386 . S
C1984 C1986 1.391 . S
C1985 C1984 1.386 . S
C1985 C1989 1.393 . S
C1986 H1978 0.950 . S
C1986 C1984 1.391 . S
C1986 C1987 1.400 . S
C1987 C1986 1.400 . S
C1987 C1988 1.398 . S
C1987 C1993 1.491 . S
C1988 H1979 0.950 . S
C1988 C1987 1.398 . S
C1988 C1989 1.391 . S
C1989 H1977 0.950 . S
C1989 C1985 1.393 . S
C1989 C1988 1.391 . S
C1990 H1980 0.950 . S
C1990 C1991 1.386 . S
C1990 C1992 1.391 . S
C1991 C1990 1.386 . S
C1991 C1995 1.393 . S
C1992 H1981 0.950 . S
C1992 C1990 1.391 . S
C1992 C1993 1.400 . S
C1993 C1987 1.491 . S
C1993 C1992 1.400 . S
C1993 C1994 1.398 . S
C1994 H1982 0.950 . S
C1994 C1993 1.398 . S
C1994 C1995 1.391 . S
C1995 H1983 0.950 . S
C1995 C1991 1.393 . S
C1995 C1994 1.391 . S
H1996 C2004 0.950 . S
H1997 C2009 0.950 . S
H1998 C2006 0.950 . S
H1999 C2008 0.950 . S
H2000 C2010 0.950 . S
H2001 C2012 0.950 . S
H2002 C2014 0.950 . S
H2003 C2015 0.950 . S
C2004 H1996 0.950 . S
C2004 C2005 1.386 . S
C2004 C2006 1.391 . S
C2005 C2004 1.386 . S
C2005 C2009 1.393 . S
C2006 H1998 0.950 . S
C2006 C2004 1.391 . S
C2006 C2007 1.400 . S
C2007 C2006 1.400 . S
C2007 C2008 1.398 . S
C2007 C2013 1.491 . S
C2008 H1999 0.950 . S
C2008 C2007 1.398 . S
C2008 C2009 1.391 . S
C2009 H1997 0.950 . S
C2009 C2005 1.393 . S
C2009 C2008 1.391 . S
C2010 H2000 0.950 . S
C2010 C2011 1.386 . S
C2010 C2012 1.391 . S
C2011 C2010 1.386 . S
C2011 C2015 1.393 . S
C2012 H2001 0.950 . S
C2012 C2010 1.391 . S
C2012 C2013 1.400 . S
C2013 C2007 1.491 . S
C2013 C2012 1.400 . S
C2013 C2014 1.398 . S
C2014 H2002 0.950 . S
C2014 C2013 1.398 . S
C2014 C2015 1.391 . S
C2015 H2003 0.950 . S
C2015 C2011 1.393 . S
C2015 C2014 1.391 . S
H2016 C2024 0.950 . S
H2017 C2029 0.950 1_556 S
H2018 C2026 0.950 . S
H2019 C2028 0.950 . S
H2020 C2030 0.950 1_565 S
H2021 C2032 0.950 . S
H2022 C2034 0.950 . S
H2023 C2035 0.950 1_554 S
C2024 H2016 0.950 . S
C2024 C2025 1.386 . S
C2024 C2026 1.391 . S
C2025 C2024 1.386 . S
C2025 C2029 1.393 . S
C2026 H2018 0.950 . S
C2026 C2024 1.391 . S
C2026 C2027 1.400 . S
C2027 C2026 1.400 . S
C2027 C2028 1.398 1_554 S
C2027 C2033 1.491 1_554 S
C2028 H2019 0.950 . S
C2028 C2027 1.398 1_556 S
C2028 C2029 1.391 1_556 S
C2029 H2017 0.950 1_554 S
C2029 C2025 1.393 . S
C2029 C2028 1.391 1_554 S
C2030 H2020 0.950 1_545 S
C2030 C2031 1.386 . S
C2030 C2032 1.391 . S
C2031 C2030 1.386 . S
C2031 C2035 1.393 . S
C2032 H2021 0.950 . S
C2032 C2030 1.391 . S
C2032 C2033 1.400 . S
C2033 C2027 1.491 1_556 S
C2033 C2032 1.400 . S
C2033 C2034 1.398 1_556 S
C2034 H2022 0.950 . S
C2034 C2033 1.398 1_554 S
C2034 C2035 1.391 1_554 S
C2035 H2023 0.950 1_556 S
C2035 C2031 1.393 . S
C2035 C2034 1.391 1_556 S
H2036 C2044 0.950 . S
H2037 C2049 0.943 1_554 S
H2038 C2046 0.950 . S
H2039 C2048 0.950 1_455 S
H2040 C2050 0.950 . S
H2041 C2052 0.950 . S
H2042 C2054 0.950 . S
H2043 C2055 0.948 1_556 S
C2044 H2036 0.950 . S
C2044 C2045 1.386 1_655 S
C2044 C2046 1.391 . S
C2045 C2044 1.386 1_455 S
C2045 C2049 1.393 . S
C2046 H2038 0.950 . S
C2046 C2044 1.391 . S
C2046 C2047 1.400 . S
C2047 C2046 1.400 . S
C2047 C2048 1.398 1_556 S
C2047 C2053 1.491 1_556 S
C2048 H2039 0.950 1_655 S
C2048 C2047 1.398 1_554 S
C2048 C2049 1.391 1_654 S
C2049 H2037 0.943 1_556 S
C2049 C2045 1.393 . S
C2049 C2048 1.391 1_456 S
C2050 H2040 0.950 . S
C2050 C2051 1.386 . S
C2050 C2052 1.391 . S
C2051 C2050 1.386 . S
C2051 C2055 1.393 . S
C2052 H2041 0.950 . S
C2052 C2050 1.391 . S
C2052 C2053 1.400 . S
C2053 C2047 1.491 1_554 S
C2053 C2052 1.400 . S
C2053 C2054 1.398 1_554 S
C2054 H2042 0.950 . S
C2054 C2053 1.398 1_556 S
C2054 C2055 1.391 1_556 S
C2055 H2043 0.948 1_554 S
C2055 C2051 1.393 . S
C2055 C2054 1.391 1_554 S
H2056 C2064 0.950 . S
H2057 C2069 0.950 . S
H2058 C2066 0.950 . S
H2059 C2068 0.950 . S
H2060 C2070 0.950 . S
H2061 C2072 0.950 . S
H2062 C2074 0.950 . S
H2063 C2075 0.950 . S
C2064 H2056 0.950 . S
C2064 C2065 1.386 . S
C2064 C2066 1.391 . S
C2065 C2064 1.386 . S
C2065 C2069 1.393 . S
C2066 H2058 0.950 . S
C2066 C2064 1.391 . S
C2066 C2067 1.400 . S
C2067 C2066 1.400 . S
C2067 C2068 1.398 . S
C2067 C2073 1.491 . S
C2068 H2059 0.950 . S
C2068 C2067 1.398 . S
C2068 C2069 1.391 . S
C2069 H2057 0.950 . S
C2069 C2065 1.393 . S
C2069 C2068 1.391 . S
C2070 H2060 0.950 . S
C2070 C2071 1.386 . S
C2070 C2072 1.391 . S
C2071 C2070 1.386 . S
C2071 C2075 1.393 . S
C2072 H2061 0.950 . S
C2072 C2070 1.391 . S
C2072 C2073 1.400 . S
C2073 C2067 1.491 . S
C2073 C2072 1.400 . S
C2073 C2074 1.398 . S
C2074 H2062 0.950 . S
C2074 C2073 1.398 . S
C2074 C2075 1.391 . S
C2075 H2063 0.950 . S
C2075 C2071 1.393 . S
C2075 C2074 1.391 . S
H2076 C2084 0.950 . S
H2077 C2089 0.950 . S
H2078 C2086 0.950 . S
H2079 C2088 0.950 . S
H2080 C2090 0.950 . S
H2081 C2092 0.950 . S
H2082 C2094 0.950 . S
H2083 C2095 0.950 . S
C2084 H2076 0.950 . S
C2084 C2085 1.386 . S
C2084 C2086 1.391 . S
C2085 C2084 1.386 . S
C2085 C2089 1.393 . S
C2086 H2078 0.950 . S
C2086 C2084 1.391 . S
C2086 C2087 1.400 . S
C2087 C2086 1.400 . S
C2087 C2088 1.398 . S
C2087 C2093 1.491 . S
C2088 H2079 0.950 . S
C2088 C2087 1.398 . S
C2088 C2089 1.391 . S
C2089 H2077 0.950 . S
C2089 C2085 1.393 . S
C2089 C2088 1.391 . S
C2090 H2080 0.950 . S
C2090 C2091 1.386 . S
C2090 C2092 1.391 1_455 S
C2091 C2090 1.386 . S
C2091 C2095 1.393 1_445 S
C2092 H2081 0.950 . S
C2092 C2090 1.391 1_655 S
C2092 C2093 1.400 . S
C2093 C2087 1.491 . S
C2093 C2092 1.400 . S
C2093 C2094 1.398 . S
C2094 H2082 0.950 . S
C2094 C2093 1.398 . S
C2094 C2095 1.391 1_545 S
C2095 H2083 0.950 . S
C2095 C2091 1.393 1_665 S
C2095 C2094 1.391 1_565 S
H2096 C2104 0.950 . S
H2097 C2109 0.910 1_556 S
H2098 C2106 0.950 . S
H2099 C2108 0.950 . S
H2100 C2110 0.950 . S
H2101 C2112 0.950 . S
H2102 C2114 0.950 . S
H2103 C2115 0.903 1_554 S
C2104 H2096 0.950 . S
C2104 C2105 1.386 . S
C2104 C2106 1.391 . S
C2105 C2104 1.386 . S
C2105 C2109 1.464 1_565 S
C2106 H2098 0.950 . S
C2106 C2104 1.391 . S
C2106 C2107 1.400 . S
C2107 C2106 1.400 . S
C2107 C2108 1.398 1_554 S
C2107 C2113 1.491 1_554 S
C2108 H2099 0.950 . S
C2108 C2107 1.398 1_556 S
C2108 C2109 1.363 1_566 S
C2109 H2097 0.910 1_554 S
C2109 C2105 1.464 1_545 S
C2109 C2108 1.363 1_544 S
C2110 H2100 0.950 . S
C2110 C2111 1.386 . S
C2110 C2112 1.391 . S
C2111 C2110 1.386 . S
C2111 C2115 1.477 . S
C2112 H2101 0.950 . S
C2112 C2110 1.391 . S
C2112 C2113 1.400 . S
C2113 C2107 1.491 1_556 S
C2113 C2112 1.400 . S
C2113 C2114 1.398 1_556 S
C2114 H2102 0.950 . S
C2114 C2113 1.398 1_554 S
C2114 C2115 1.359 1_554 S
C2115 H2103 0.903 1_556 S
C2115 C2111 1.477 . S
C2115 C2114 1.359 1_556 S
H2116 C2124 0.950 . S
H2117 C2129 0.950 . S
H2118 C2126 0.950 . S
H2119 C2128 0.950 1_554 S
H2120 C2130 0.950 . S
H2121 C2132 0.950 . S
H2122 C2134 0.950 1_656 S
H2123 C2135 0.950 . S
C2124 H2116 0.950 . S
C2124 C2125 1.386 . S
C2124 C2126 1.391 . S
C2125 C2124 1.386 . S
C2125 C2129 1.393 . S
C2126 H2118 0.950 . S
C2126 C2124 1.391 . S
C2126 C2127 1.400 . S
C2127 C2126 1.400 . S
C2127 C2128 1.398 . S
C2127 C2133 1.491 1_556 S
C2128 H2119 0.950 1_556 S
C2128 C2127 1.398 . S
C2128 C2129 1.391 . S
C2129 H2117 0.950 . S
C2129 C2125 1.393 . S
C2129 C2128 1.391 . S
C2130 H2120 0.950 . S
C2130 C2131 1.386 1_455 S
C2130 C2132 1.391 . S
C2131 C2130 1.386 1_655 S
C2131 C2135 1.393 . S
C2132 H2121 0.950 . S
C2132 C2130 1.391 . S
C2132 C2133 1.400 . S
C2133 C2127 1.491 1_554 S
C2133 C2132 1.400 . S
C2133 C2134 1.398 . S
C2134 H2122 0.950 1_454 S
C2134 C2133 1.398 . S
C2134 C2135 1.391 1_455 S
C2135 H2123 0.950 . S
C2135 C2131 1.393 . S
C2135 C2134 1.391 1_655 S
H2136 C2144 0.950 . S
H2137 C2149 0.950 . S
H2138 C2146 0.950 . S
H2139 C2148 0.950 . S
H2140 C2150 0.950 . S
H2141 C2152 0.950 . S
H2142 C2154 0.950 . S
H2143 C2155 0.950 . S
C2144 H2136 0.950 . S
C2144 C2145 1.386 . S
C2144 C2146 1.391 . S
C2145 C2144 1.386 . S
C2145 C2149 1.393 . S
C2146 H2138 0.950 . S
C2146 C2144 1.391 . S
C2146 C2147 1.400 . S
C2147 C2146 1.400 . S
C2147 C2148 1.398 . S
C2147 C2153 1.491 . S
C2148 H2139 0.950 . S
C2148 C2147 1.398 . S
C2148 C2149 1.391 . S
C2149 H2137 0.950 . S
C2149 C2145 1.393 . S
C2149 C2148 1.391 . S
C2150 H2140 0.950 . S
C2150 C2151 1.386 . S
C2150 C2152 1.391 . S
C2151 C2150 1.386 . S
C2151 C2155 1.393 . S
C2152 H2141 0.950 . S
C2152 C2150 1.391 . S
C2152 C2153 1.400 . S
C2153 C2147 1.491 . S
C2153 C2152 1.400 . S
C2153 C2154 1.398 . S
C2154 H2142 0.950 . S
C2154 C2153 1.398 . S
C2154 C2155 1.391 . S
C2155 H2143 0.950 . S
C2155 C2151 1.393 . S
C2155 C2154 1.391 . S
H2156 C2164 0.950 1_545 S
H2157 C2169 0.950 . S
H2158 C2166 0.950 . S
H2159 C2168 0.950 1_655 S
H2160 C2170 0.950 . S
H2161 C2172 0.950 . S
H2162 C2174 0.950 . S
H2163 C2175 0.950 . S
C2164 H2156 0.950 1_565 S
C2164 C2165 1.386 1_455 S
C2164 C2166 1.391 . S
C2165 C2164 1.386 1_655 S
C2165 C2169 1.393 . S
C2166 H2158 0.950 . S
C2166 C2164 1.391 . S
C2166 C2167 1.400 . S
C2167 C2166 1.400 . S
C2167 C2168 1.398 . S
C2167 C2173 1.491 . S
C2168 H2159 0.950 1_455 S
C2168 C2167 1.398 . S
C2168 C2169 1.391 1_455 S
C2169 H2157 0.950 . S
C2169 C2165 1.393 . S
C2169 C2168 1.391 1_655 S
C2170 H2160 0.950 . S
C2170 C2171 1.386 . S
C2170 C2172 1.391 . S
C2171 C2170 1.386 . S
C2171 C2175 1.393 . S
C2172 H2161 0.950 . S
C2172 C2170 1.391 . S
C2172 C2173 1.400 . S
C2173 C2167 1.491 . S
C2173 C2172 1.400 . S
C2173 C2174 1.398 . S
C2174 H2162 0.950 . S
C2174 C2173 1.398 . S
C2174 C2175 1.391 . S
C2175 H2163 0.950 . S
C2175 C2171 1.393 . S
C2175 C2174 1.391 . S
H2176 C2184 0.950 . S
H2177 C2189 0.950 . S
H2178 C2186 0.950 . S
H2179 C2188 0.950 . S
H2180 C2190 0.950 . S
H2181 C2192 0.950 . S
H2182 C2194 0.950 . S
H2183 C2195 0.950 . S
C2184 H2176 0.950 . S
C2184 C2185 1.386 . S
C2184 C2186 1.391 . S
C2185 C2184 1.386 . S
C2185 C2189 1.393 . S
C2186 H2178 0.950 . S
C2186 C2184 1.391 . S
C2186 C2187 1.400 . S
C2187 C2186 1.400 . S
C2187 C2188 1.398 . S
C2187 C2193 1.491 . S
C2188 H2179 0.950 . S
C2188 C2187 1.398 . S
C2188 C2189 1.391 . S
C2189 H2177 0.950 . S
C2189 C2185 1.393 . S
C2189 C2188 1.391 . S
C2190 H2180 0.950 . S
C2190 C2191 1.386 . S
C2190 C2192 1.391 . S
C2191 C2190 1.386 . S
C2191 C2195 1.393 . S
C2192 H2181 0.950 . S
C2192 C2190 1.391 . S
C2192 C2193 1.400 . S
C2193 C2187 1.491 . S
C2193 C2192 1.400 . S
C2193 C2194 1.398 . S
C2194 H2182 0.950 . S
C2194 C2193 1.398 . S
C2194 C2195 1.391 . S
C2195 H2183 0.950 . S
C2195 C2191 1.393 . S
C2195 C2194 1.391 . S
H2196 C2204 0.950 . S
H2197 C2209 0.950 . S
H2198 C2206 0.950 . S
H2199 C2208 0.950 . S
H2200 C2210 0.950 . S
H2201 C2212 0.950 . S
H2202 C2214 0.950 . S
H2203 C2215 0.950 . S
C2204 H2196 0.950 . S
C2204 C2205 1.386 . S
C2204 C2206 1.391 . S
C2205 C2204 1.386 . S
C2205 C2209 1.393 . S
C2206 H2198 0.950 . S
C2206 C2204 1.391 . S
C2206 C2207 1.400 . S
C2207 C2206 1.400 . S
C2207 C2208 1.398 . S
C2207 C2213 1.491 . S
C2208 H2199 0.950 . S
C2208 C2207 1.398 . S
C2208 C2209 1.391 . S
C2209 H2197 0.950 . S
C2209 C2205 1.393 . S
C2209 C2208 1.391 . S
C2210 H2200 0.950 . S
C2210 C2211 1.386 . S
C2210 C2212 1.391 1_455 S
C2211 C2210 1.386 . S
C2211 C2215 1.393 1_455 S
C2212 H2201 0.950 . S
C2212 C2210 1.391 1_655 S
C2212 C2213 1.400 . S
C2213 C2207 1.491 . S
C2213 C2212 1.400 . S
C2213 C2214 1.398 . S
C2214 H2202 0.950 . S
C2214 C2213 1.398 . S
C2214 C2215 1.391 . S
C2215 H2203 0.950 . S
C2215 C2211 1.393 1_655 S
C2215 C2214 1.391 . S
H2216 C2224 0.950 . S
H2217 C2229 0.950 . S
H2218 C2226 0.950 . S
H2219 C2228 0.950 . S
H2220 C2230 0.950 . S
H2221 C2232 0.950 . S
H2222 C2234 0.950 . S
H2223 C2235 0.950 . S
C2224 H2216 0.950 . S
C2224 C2225 1.386 . S
C2224 C2226 1.391 . S
C2225 C2224 1.386 . S
C2225 C2229 1.393 . S
C2226 H2218 0.950 . S
C2226 C2224 1.391 . S
C2226 C2227 1.400 . S
C2227 C2226 1.400 . S
C2227 C2228 1.398 . S
C2227 C2233 1.491 . S
C2228 H2219 0.950 . S
C2228 C2227 1.398 . S
C2228 C2229 1.391 . S
C2229 H2217 0.950 . S
C2229 C2225 1.393 . S
C2229 C2228 1.391 . S
C2230 H2220 0.950 . S
C2230 C2231 1.386 . S
C2230 C2232 1.391 . S
C2231 C2230 1.386 . S
C2231 C2235 1.393 . S
C2232 H2221 0.950 . S
C2232 C2230 1.391 . S
C2232 C2233 1.400 . S
C2233 C2227 1.491 . S
C2233 C2232 1.400 . S
C2233 C2234 1.398 . S
C2234 H2222 0.950 . S
C2234 C2233 1.398 . S
C2234 C2235 1.391 . S
C2235 H2223 0.950 . S
C2235 C2231 1.393 . S
C2235 C2234 1.391 . S
H2236 C2244 0.950 . S
H2237 C2249 0.950 . S
H2238 C2246 0.950 . S
H2239 C2248 0.950 . S
H2240 C2250 0.950 . S
H2241 C2252 0.950 . S
H2242 C2254 0.950 . S
H2243 C2255 0.950 . S
C2244 H2236 0.950 . S
C2244 C2245 1.386 . S
C2244 C2246 1.391 1_455 S
C2245 C2244 1.386 . S
C2245 C2249 1.393 1_455 S
C2246 H2238 0.950 . S
C2246 C2244 1.391 1_655 S
C2246 C2247 1.400 . S
C2247 C2246 1.400 . S
C2247 C2248 1.398 . S
C2247 C2253 1.491 . S
C2248 H2239 0.950 . S
C2248 C2247 1.398 . S
C2248 C2249 1.391 . S
C2249 H2237 0.950 . S
C2249 C2245 1.393 1_655 S
C2249 C2248 1.391 . S
C2250 H2240 0.950 . S
C2250 C2251 1.386 . S
C2250 C2252 1.391 . S
C2251 C2250 1.386 . S
C2251 C2255 1.393 . S
C2252 H2241 0.950 . S
C2252 C2250 1.391 . S
C2252 C2253 1.400 . S
C2253 C2247 1.491 . S
C2253 C2252 1.400 . S
C2253 C2254 1.398 . S
C2254 H2242 0.950 . S
C2254 C2253 1.398 . S
C2254 C2255 1.391 . S
C2255 H2243 0.950 . S
C2255 C2251 1.393 . S
C2255 C2254 1.391 . S
H2256 C2264 0.950 . S
H2257 C2269 0.950 . S
H2258 C2266 0.950 . S
H2259 C2268 0.950 . S
H2260 C2270 0.950 . S
H2261 C2272 0.950 . S
H2262 C2274 0.950 . S
H2263 C2275 0.950 . S
C2264 H2256 0.950 . S
C2264 C2265 1.386 . S
C2264 C2266 1.391 . S
C2265 C2264 1.386 . S
C2265 C2269 1.393 . S
C2266 H2258 0.950 . S
C2266 C2264 1.391 . S
C2266 C2267 1.400 . S
C2267 C2266 1.400 . S
C2267 C2268 1.398 . S
C2267 C2273 1.491 . S
C2268 H2259 0.950 . S
C2268 C2267 1.398 . S
C2268 C2269 1.391 . S
C2269 H2257 0.950 . S
C2269 C2265 1.393 . S
C2269 C2268 1.391 . S
C2270 H2260 0.950 . S
C2270 C2271 1.386 . S
C2270 C2272 1.391 . S
C2271 C2270 1.386 . S
C2271 C2275 1.393 . S
C2272 H2261 0.950 . S
C2272 C2270 1.391 . S
C2272 C2273 1.400 . S
C2273 C2267 1.491 . S
C2273 C2272 1.400 . S
C2273 C2274 1.398 . S
C2274 H2262 0.950 . S
C2274 C2273 1.398 . S
C2274 C2275 1.391 . S
C2275 H2263 0.950 . S
C2275 C2271 1.393 . S
C2275 C2274 1.391 . S
H2276 C2284 0.950 . S
H2277 C2289 0.950 . S
H2278 C2286 0.950 . S
H2279 C2288 0.950 . S
H2280 C2290 0.950 . S
H2281 C2292 0.950 . S
H2282 C2294 0.944 1_655 S
H2283 C2295 0.950 . S
C2284 H2276 0.950 . S
C2284 C2285 1.386 . S
C2284 C2286 1.391 . S
C2285 C2284 1.386 . S
C2285 C2289 1.393 . S
C2286 H2278 0.950 . S
C2286 C2284 1.391 . S
C2286 C2287 1.400 . S
C2287 C2286 1.400 . S
C2287 C2288 1.398 . S
C2287 C2293 1.491 . S
C2288 H2279 0.950 . S
C2288 C2287 1.398 . S
C2288 C2289 1.391 . S
C2289 H2277 0.950 . S
C2289 C2285 1.393 . S
C2289 C2288 1.391 . S
C2290 H2280 0.950 . S
C2290 C2291 1.386 1_455 S
C2290 C2292 1.391 . S
C2291 C2290 1.386 1_655 S
C2291 C2295 1.393 . S
C2292 H2281 0.950 . S
C2292 C2290 1.391 . S
C2292 C2293 1.400 . S
C2293 C2287 1.491 . S
C2293 C2292 1.400 . S
C2293 C2294 1.398 . S
C2294 H2282 0.944 1_455 S
C2294 C2293 1.398 . S
C2294 C2295 1.391 1_455 S
C2295 H2283 0.950 . S
C2295 C2291 1.393 . S
C2295 C2294 1.391 1_655 S
H2296 C2304 0.950 . S
H2297 C2309 0.950 . S
H2298 C2306 0.950 . S
H2299 C2308 0.950 . S
H2300 C2310 0.950 . S
H2301 C2312 0.950 . S
H2302 C2314 0.950 . S
H2303 C2315 0.950 . S
C2304 H2296 0.950 . S
C2304 C2305 1.386 . S
C2304 C2306 1.391 . S
C2305 C2304 1.386 . S
C2305 C2309 1.393 . S
C2306 H2298 0.950 . S
C2306 C2304 1.391 . S
C2306 C2307 1.400 . S
C2307 C2306 1.400 . S
C2307 C2308 1.398 . S
C2307 C2313 1.491 . S
C2308 H2299 0.950 . S
C2308 C2307 1.398 . S
C2308 C2309 1.391 . S
C2309 H2297 0.950 . S
C2309 C2305 1.393 . S
C2309 C2308 1.391 . S
C2310 H2300 0.950 . S
C2310 C2311 1.386 . S
C2310 C2312 1.391 . S
C2311 C2310 1.386 . S
C2311 C2315 1.393 . S
C2312 H2301 0.950 . S
C2312 C2310 1.391 . S
C2312 C2313 1.400 . S
C2313 C2307 1.491 . S
C2313 C2312 1.400 . S
C2313 C2314 1.398 . S
C2314 H2302 0.950 . S
C2314 C2313 1.398 . S
C2314 C2315 1.391 . S
C2315 H2303 0.950 . S
C2315 C2311 1.393 . S
C2315 C2314 1.391 . S
H2316 C2324 0.950 . S
H2317 C2329 0.950 . S
H2318 C2326 0.950 . S
H2319 C2328 0.950 . S
H2320 C2330 0.950 . S
H2321 C2332 0.950 . S
H2322 C2334 0.950 . S
H2323 C2335 0.950 . S
C2324 H2316 0.950 . S
C2324 C2325 1.386 . S
C2324 C2326 1.391 1_655 S
C2325 C2324 1.386 . S
C2325 C2329 1.393 1_655 S
C2326 H2318 0.950 . S
C2326 C2324 1.391 1_455 S
C2326 C2327 1.400 . S
C2327 C2326 1.400 . S
C2327 C2328 1.398 . S
C2327 C2333 1.491 . S
C2328 H2319 0.950 . S
C2328 C2327 1.398 . S
C2328 C2329 1.391 . S
C2329 H2317 0.950 . S
C2329 C2325 1.393 1_455 S
C2329 C2328 1.391 . S
C2330 H2320 0.950 . S
C2330 C2331 1.386 . S
C2330 C2332 1.391 . S
C2331 C2330 1.386 . S
C2331 C2335 1.393 . S
C2332 H2321 0.950 . S
C2332 C2330 1.391 . S
C2332 C2333 1.400 . S
C2333 C2327 1.491 . S
C2333 C2332 1.400 . S
C2333 C2334 1.398 . S
C2334 H2322 0.950 . S
C2334 C2333 1.398 . S
C2334 C2335 1.391 . S
C2335 H2323 0.950 . S
C2335 C2331 1.393 . S
C2335 C2334 1.391 . S
H2336 C2344 0.950 . S
H2337 C2349 0.950 . S
H2338 C2346 0.950 . S
H2339 C2348 0.950 . S
H2340 C2350 0.950 . S
H2341 C2352 0.950 . S
H2342 C2354 0.950 . S
H2343 C2355 0.950 . S
C2344 H2336 0.950 . S
C2344 C2345 1.386 1_565 S
C2344 C2346 1.391 1_565 S
C2345 C2344 1.386 1_545 S
C2345 C2349 1.393 . S
C2346 H2338 0.950 . S
C2346 C2344 1.391 1_545 S
C2346 C2347 1.400 . S
C2347 C2346 1.400 . S
C2347 C2348 1.398 . S
C2347 C2353 1.491 . S
C2348 H2339 0.950 . S
C2348 C2347 1.398 . S
C2348 C2349 1.391 . S
C2349 H2337 0.950 . S
C2349 C2345 1.393 . S
C2349 C2348 1.391 . S
C2350 H2340 0.950 . S
C2350 C2351 1.386 . S
C2350 C2352 1.391 . S
C2351 C2350 1.386 . S
C2351 C2355 1.393 . S
C2352 H2341 0.950 . S
C2352 C2350 1.391 . S
C2352 C2353 1.400 . S
C2353 C2347 1.491 . S
C2353 C2352 1.400 . S
C2353 C2354 1.398 . S
C2354 H2342 0.950 . S
C2354 C2353 1.398 . S
C2354 C2355 1.391 . S
C2355 H2343 0.950 . S
C2355 C2351 1.393 . S
C2355 C2354 1.391 . S
H2356 C2364 0.950 . S
H2357 C2369 0.950 . S
H2358 C2366 0.950 . S
H2359 C2368 0.950 . S
H2360 C2370 0.950 . S
H2361 C2372 0.950 . S
H2362 C2374 0.950 . S
H2363 C2375 0.950 . S
C2364 H2356 0.950 . S
C2364 C2365 1.386 . S
C2364 C2366 1.391 . S
C2365 C2364 1.386 . S
C2365 C2369 1.393 . S
C2366 H2358 0.950 . S
C2366 C2364 1.391 . S
C2366 C2367 1.400 . S
C2367 C2366 1.400 . S
C2367 C2368 1.398 . S
C2367 C2373 1.491 . S
C2368 H2359 0.950 . S
C2368 C2367 1.398 . S
C2368 C2369 1.391 . S
C2369 H2357 0.950 . S
C2369 C2365 1.393 . S
C2369 C2368 1.391 . S
C2370 H2360 0.950 . S
C2370 C2371 1.386 . S
C2370 C2372 1.391 . S
C2371 C2370 1.386 . S
C2371 C2375 1.393 . S
C2372 H2361 0.950 . S
C2372 C2370 1.391 . S
C2372 C2373 1.400 . S
C2373 C2367 1.491 . S
C2373 C2372 1.400 . S
C2373 C2374 1.398 . S
C2374 H2362 0.950 . S
C2374 C2373 1.398 . S
C2374 C2375 1.391 . S
C2375 H2363 0.950 . S
C2375 C2371 1.393 . S
C2375 C2374 1.391 . S
H2376 C2384 0.950 . S
H2377 C2389 0.950 . S
H2378 C2386 0.950 . S
H2379 C2388 0.950 . S
H2380 C2390 0.950 . S
H2381 C2392 0.950 . S
H2382 C2394 0.950 . S
H2383 C2395 0.950 . S
C2384 H2376 0.950 . S
C2384 C2385 1.386 . S
C2384 C2386 1.391 . S
C2385 C2384 1.386 . S
C2385 C2389 1.393 . S
C2386 H2378 0.950 . S
C2386 C2384 1.391 . S
C2386 C2387 1.400 . S
C2387 C2386 1.400 . S
C2387 C2388 1.398 . S
C2387 C2393 1.491 . S
C2388 H2379 0.950 . S
C2388 C2387 1.398 . S
C2388 C2389 1.391 . S
C2389 H2377 0.950 . S
C2389 C2385 1.393 . S
C2389 C2388 1.391 . S
C2390 H2380 0.950 . S
C2390 C2391 1.386 . S
C2390 C2392 1.391 . S
C2391 C2390 1.386 . S
C2391 C2395 1.393 . S
C2392 H2381 0.950 . S
C2392 C2390 1.391 . S
C2392 C2393 1.400 . S
C2393 C2387 1.491 . S
C2393 C2392 1.400 . S
C2393 C2394 1.398 . S
C2394 H2382 0.950 . S
C2394 C2393 1.398 . S
C2394 C2395 1.391 . S
C2395 H2383 0.950 . S
C2395 C2391 1.393 . S
C2395 C2394 1.391 . S
H2396 C2404 0.950 . S
H2397 C2409 0.950 . S
H2398 C2406 0.950 . S
H2399 C2408 0.950 . S
H2400 C2410 0.939 1_565 S
H2401 C2412 0.950 . S
H2402 C2414 0.950 . S
H2403 C2415 0.950 . S
C2404 H2396 0.950 . S
C2404 C2405 1.386 . S
C2404 C2406 1.391 . S
C2405 C2404 1.386 . S
C2405 C2409 1.393 . S
C2406 H2398 0.950 . S
C2406 C2404 1.391 . S
C2406 C2407 1.400 . S
C2407 C2406 1.400 . S
C2407 C2408 1.398 . S
C2407 C2413 1.491 . S
C2408 H2399 0.950 . S
C2408 C2407 1.398 . S
C2408 C2409 1.391 . S
C2409 H2397 0.950 . S
C2409 C2405 1.393 . S
C2409 C2408 1.391 . S
C2410 H2400 0.939 1_545 S
C2410 C2411 1.387 . S
C2410 C2412 1.401 . S
C2411 C2410 1.387 . S
C2411 C2415 1.393 . S
C2412 H2401 0.950 . S
C2412 C2410 1.401 . S
C2412 C2413 1.400 . S
C2413 C2407 1.491 . S
C2413 C2412 1.400 . S
C2413 C2414 1.398 . S
C2414 H2402 0.950 . S
C2414 C2413 1.398 . S
C2414 C2415 1.391 . S
C2415 H2403 0.950 . S
C2415 C2411 1.393 . S
C2415 C2414 1.391 . S
H2416 C2424 0.950 . S
H2417 C2429 0.950 . S
H2418 C2426 0.950 . S
H2419 C2428 0.950 . S
H2420 C2430 0.950 . S
H2421 C2432 0.950 . S
H2422 C2434 0.950 . S
H2423 C2435 0.950 . S
C2424 H2416 0.950 . S
C2424 C2425 1.386 . S
C2424 C2426 1.391 . S
C2425 C2424 1.386 . S
C2425 C2429 1.393 . S
C2426 H2418 0.950 . S
C2426 C2424 1.391 . S
C2426 C2427 1.400 . S
C2427 C2426 1.400 . S
C2427 C2428 1.398 . S
C2427 C2433 1.491 . S
C2428 H2419 0.950 . S
C2428 C2427 1.398 . S
C2428 C2429 1.391 . S
C2429 H2417 0.950 . S
C2429 C2425 1.393 . S
C2429 C2428 1.391 . S
C2430 H2420 0.950 . S
C2430 C2431 1.386 1_545 S
C2430 C2432 1.391 1_545 S
C2431 C2430 1.386 1_565 S
C2431 C2435 1.393 . S
C2432 H2421 0.950 . S
C2432 C2430 1.391 1_565 S
C2432 C2433 1.400 . S
C2433 C2427 1.491 . S
C2433 C2432 1.400 . S
C2433 C2434 1.398 . S
C2434 H2422 0.950 . S
C2434 C2433 1.398 . S
C2434 C2435 1.391 . S
C2435 H2423 0.950 . S
C2435 C2431 1.393 . S
C2435 C2434 1.391 . S
H2436 C2444 0.950 . S
H2437 C2449 0.950 . S
H2438 C2446 0.950 . S
H2439 C2448 0.950 . S
H2440 C2450 0.950 . S
H2441 C2452 0.950 . S
H2442 C2454 0.950 . S
H2443 C2455 0.950 . S
C2444 H2436 0.950 . S
C2444 C2445 1.386 . S
C2444 C2446 1.391 . S
C2445 C2444 1.386 . S
C2445 C2449 1.393 . S
C2446 H2438 0.950 . S
C2446 C2444 1.391 . S
C2446 C2447 1.400 . S
C2447 C2446 1.400 . S
C2447 C2448 1.398 . S
C2447 C2453 1.491 . S
C2448 H2439 0.950 . S
C2448 C2447 1.398 . S
C2448 C2449 1.391 . S
C2449 H2437 0.950 . S
C2449 C2445 1.393 . S
C2449 C2448 1.391 . S
C2450 H2440 0.950 . S
C2450 C2451 1.386 . S
C2450 C2452 1.391 . S
C2451 C2450 1.386 . S
C2451 C2455 1.393 . S
C2452 H2441 0.950 . S
C2452 C2450 1.391 . S
C2452 C2453 1.400 . S
C2453 C2447 1.491 . S
C2453 C2452 1.400 . S
C2453 C2454 1.398 . S
C2454 H2442 0.950 . S
C2454 C2453 1.398 . S
C2454 C2455 1.391 . S
C2455 H2443 0.950 . S
C2455 C2451 1.393 . S
C2455 C2454 1.391 . S
H2456 C2464 0.950 . S
H2457 C2469 0.950 . S
H2458 C2466 0.950 . S
H2459 C2468 0.950 . S
H2460 C2470 0.950 . S
H2461 C2472 0.950 . S
H2462 C2474 0.950 . S
H2463 C2475 0.950 . S
C2464 H2456 0.950 . S
C2464 C2465 1.386 . S
C2464 C2466 1.391 . S
C2465 C2464 1.386 . S
C2465 C2469 1.393 . S
C2466 H2458 0.950 . S
C2466 C2464 1.391 . S
C2466 C2467 1.400 . S
C2467 C2466 1.400 . S
C2467 C2468 1.398 . S
C2467 C2473 1.491 . S
C2468 H2459 0.950 . S
C2468 C2467 1.398 . S
C2468 C2469 1.391 . S
C2469 H2457 0.950 . S
C2469 C2465 1.393 . S
C2469 C2468 1.391 . S
C2470 H2460 0.950 . S
C2470 C2471 1.386 . S
C2470 C2472 1.391 . S
C2471 C2470 1.386 . S
C2471 C2475 1.393 . S
C2472 H2461 0.950 . S
C2472 C2470 1.391 . S
C2472 C2473 1.400 . S
C2473 C2467 1.491 . S
C2473 C2472 1.400 . S
C2473 C2474 1.398 . S
C2474 H2462 0.950 . S
C2474 C2473 1.398 . S
C2474 C2475 1.391 . S
C2475 H2463 0.950 . S
C2475 C2471 1.393 . S
C2475 C2474 1.391 . S
H2476 C2484 0.950 . S
H2477 C2489 0.950 . S
H2478 C2486 0.950 . S
H2479 C2488 0.950 . S
H2480 C2490 0.950 . S
H2481 C2492 0.950 . S
H2482 C2494 0.950 . S
H2483 C2495 0.950 . S
C2484 H2476 0.950 . S
C2484 C2485 1.386 . S
C2484 C2486 1.391 . S
C2485 C2484 1.386 . S
C2485 C2489 1.393 1_565 S
C2486 H2478 0.950 . S
C2486 C2484 1.391 . S
C2486 C2487 1.400 . S
C2487 C2486 1.400 . S
C2487 C2488 1.398 . S
C2487 C2493 1.491 . S
C2488 H2479 0.950 . S
C2488 C2487 1.398 . S
C2488 C2489 1.391 1_565 S
C2489 H2477 0.950 . S
C2489 C2485 1.393 1_545 S
C2489 C2488 1.391 1_545 S
C2490 H2480 0.950 . S
C2490 C2491 1.386 . S
C2490 C2492 1.391 . S
C2491 C2490 1.386 . S
C2491 C2495 1.393 . S
C2492 H2481 0.950 . S
C2492 C2490 1.391 . S
C2492 C2493 1.400 . S
C2493 C2487 1.491 . S
C2493 C2492 1.400 . S
C2493 C2494 1.398 . S
C2494 H2482 0.950 . S
C2494 C2493 1.398 . S
C2494 C2495 1.391 . S
C2495 H2483 0.950 . S
C2495 C2491 1.393 . S
C2495 C2494 1.391 . S
H2496 C2504 0.950 . S
H2497 C2509 0.950 . S
H2498 C2506 0.950 1_556 S
H2499 C2508 0.950 . S
H2500 C2510 0.950 . S
H2501 C2512 0.950 1_554 S
H2502 C2514 0.950 . S
H2503 C2515 0.950 . S
C2504 H2496 0.950 . S
C2504 C2505 1.386 . S
C2504 C2506 1.391 . S
C2505 C2504 1.386 . S
C2505 C2509 1.393 . S
C2506 H2498 0.950 1_554 S
C2506 C2504 1.391 . S
C2506 C2507 1.400 . S
C2507 C2506 1.400 . S
C2507 C2508 1.398 . S
C2507 C2513 1.491 1_554 S
C2508 H2499 0.950 . S
C2508 C2507 1.398 . S
C2508 C2509 1.391 . S
C2509 H2497 0.950 . S
C2509 C2505 1.393 . S
C2509 C2508 1.391 . S
C2510 H2500 0.950 . S
C2510 C2511 1.386 . S
C2510 C2512 1.391 . S
C2511 C2510 1.386 . S
C2511 C2515 1.393 . S
C2512 H2501 0.950 1_556 S
C2512 C2510 1.391 . S
C2512 C2513 1.400 . S
C2513 C2507 1.491 1_556 S
C2513 C2512 1.400 . S
C2513 C2514 1.398 . S
C2514 H2502 0.950 . S
C2514 C2513 1.398 . S
C2514 C2515 1.391 . S
C2515 H2503 0.950 . S
C2515 C2511 1.393 . S
C2515 C2514 1.391 . S
H2516 C2524 0.909 1_556 S
H2517 C2529 0.950 . S
H2518 C2526 0.950 . S
H2519 C2528 0.950 . S
H2520 C2530 0.916 1_554 S
H2521 C2532 0.950 . S
H2522 C2534 0.950 . S
H2523 C2535 0.950 . S
C2524 H2516 0.909 1_554 S
C2524 C2525 1.458 . S
C2524 C2526 1.363 1_554 S
C2525 C2524 1.458 . S
C2525 C2529 1.393 . S
C2526 H2518 0.950 . S
C2526 C2524 1.363 1_556 S
C2526 C2527 1.400 1_556 S
C2527 C2526 1.400 1_554 S
C2527 C2528 1.398 . S
C2527 C2533 1.491 1_554 S
C2528 H2519 0.950 . S
C2528 C2527 1.398 . S
C2528 C2529 1.391 . S
C2529 H2517 0.950 . S
C2529 C2525 1.393 . S
C2529 C2528 1.391 . S
C2530 H2520 0.916 1_556 S
C2530 C2531 1.445 . S
C2530 C2532 1.368 1_556 S
C2531 C2530 1.445 . S
C2531 C2535 1.393 . S
C2532 H2521 0.950 . S
C2532 C2530 1.368 1_554 S
C2532 C2533 1.400 1_554 S
C2533 C2527 1.491 1_556 S
C2533 C2532 1.400 1_556 S
C2533 C2534 1.398 . S
C2534 H2522 0.950 . S
C2534 C2533 1.398 . S
C2534 C2535 1.391 . S
C2535 H2523 0.950 . S
C2535 C2531 1.393 . S
C2535 C2534 1.391 . S
H2536 C2544 0.950 . S
H2537 C2549 0.950 . S
H2538 C2546 0.950 . S
H2539 C2548 0.950 . S
H2540 C2550 0.950 . S
H2541 C2552 0.950 . S
H2542 C2554 0.950 . S
H2543 C2555 0.950 . S
C2544 H2536 0.950 . S
C2544 C2545 1.386 . S
C2544 C2546 1.391 . S
C2545 C2544 1.386 . S
C2545 C2549 1.393 . S
C2546 H2538 0.950 . S
C2546 C2544 1.391 . S
C2546 C2547 1.400 . S
C2547 C2546 1.400 . S
C2547 C2548 1.398 . S
C2547 C2553 1.491 . S
C2548 H2539 0.950 . S
C2548 C2547 1.398 . S
C2548 C2549 1.391 . S
C2549 H2537 0.950 . S
C2549 C2545 1.393 . S
C2549 C2548 1.391 . S
C2550 H2540 0.950 . S
C2550 C2551 1.386 . S
C2550 C2552 1.391 . S
C2551 C2550 1.386 . S
C2551 C2555 1.393 . S
C2552 H2541 0.950 . S
C2552 C2550 1.391 . S
C2552 C2553 1.400 . S
C2553 C2547 1.491 . S
C2553 C2552 1.400 . S
C2553 C2554 1.398 . S
C2554 H2542 0.950 . S
C2554 C2553 1.398 . S
C2554 C2555 1.391 . S
C2555 H2543 0.950 . S
C2555 C2551 1.393 . S
C2555 C2554 1.391 . S
H2556 C2564 0.950 . S
H2557 C2569 0.950 . S
H2558 C2566 0.950 . S
H2559 C2568 0.950 . S
H2560 C2570 0.950 . S
H2561 C2572 0.950 . S
H2562 C2574 0.950 . S
H2563 C2575 0.950 . S
C2564 H2556 0.950 . S
C2564 C2565 1.386 . S
C2564 C2566 1.391 . S
C2565 C2564 1.386 . S
C2565 C2569 1.393 . S
C2566 H2558 0.950 . S
C2566 C2564 1.391 . S
C2566 C2567 1.400 . S
C2567 C2566 1.400 . S
C2567 C2568 1.398 . S
C2567 C2573 1.491 . S
C2568 H2559 0.950 . S
C2568 C2567 1.398 . S
C2568 C2569 1.391 . S
C2569 H2557 0.950 . S
C2569 C2565 1.393 . S
C2569 C2568 1.391 . S
C2570 H2560 0.950 . S
C2570 C2571 1.386 . S
C2570 C2572 1.391 . S
C2571 C2570 1.386 . S
C2571 C2575 1.393 . S
C2572 H2561 0.950 . S
C2572 C2570 1.391 . S
C2572 C2573 1.400 . S
C2573 C2567 1.491 . S
C2573 C2572 1.400 . S
C2573 C2574 1.398 . S
C2574 H2562 0.950 . S
C2574 C2573 1.398 . S
C2574 C2575 1.391 . S
C2575 H2563 0.950 . S
C2575 C2571 1.393 . S
C2575 C2574 1.391 . S
H2576 C2584 0.950 . S
H2577 C2589 0.950 . S
H2578 C2586 0.950 . S
H2579 C2588 0.959 . S
H2580 C2590 0.950 . S
H2581 C2592 0.950 . S
H2582 C2594 0.968 . S
H2583 C2595 0.950 . S
C2584 H2576 0.950 . S
C2584 C2585 1.386 . S
C2584 C2586 1.391 . S
C2585 C2584 1.386 . S
C2585 C2589 1.393 . S
C2586 H2578 0.950 . S
C2586 C2584 1.391 . S
C2586 C2587 1.400 . S
C2587 C2586 1.400 . S
C2587 C2588 1.395 1_556 S
C2587 C2593 1.491 1_556 S
C2588 H2579 0.959 . S
C2588 C2587 1.395 1_554 S
C2588 C2589 1.385 1_554 S
C2589 H2577 0.950 . S
C2589 C2585 1.393 . S
C2589 C2588 1.385 1_556 S
C2590 H2580 0.950 . S
C2590 C2591 1.386 . S
C2590 C2592 1.391 . S
C2591 C2590 1.386 . S
C2591 C2595 1.393 . S
C2592 H2581 0.950 . S
C2592 C2590 1.391 . S
C2592 C2593 1.400 . S
C2593 C2587 1.491 1_554 S
C2593 C2592 1.400 . S
C2593 C2594 1.392 1_554 S
C2594 H2582 0.968 . S
C2594 C2593 1.392 1_556 S
C2594 C2595 1.380 1_556 S
C2595 H2583 0.950 . S
C2595 C2591 1.393 . S
C2595 C2594 1.380 1_554 S
H2596 C2604 0.950 . S
H2597 C2609 0.923 1_556 S
H2598 C2606 0.950 . S
H2599 C2608 0.950 . S
H2600 C2610 0.950 . S
H2601 C2612 0.950 . S
H2602 C2614 0.950 . S
H2603 C2615 0.916 1_554 S
C2604 H2596 0.950 . S
C2604 C2605 1.386 . S
C2604 C2606 1.391 . S
C2605 C2604 1.386 . S
C2605 C2609 1.438 . S
C2606 H2598 0.950 . S
C2606 C2604 1.391 . S
C2606 C2607 1.400 . S
C2607 C2606 1.400 . S
C2607 C2608 1.398 1_554 S
C2607 C2613 1.491 1_554 S
C2608 H2599 0.950 . S
C2608 C2607 1.398 1_556 S
C2608 C2609 1.373 1_556 S
C2609 H2597 0.923 1_554 S
C2609 C2605 1.438 . S
C2609 C2608 1.373 1_554 S
C2610 H2600 0.950 . S
C2610 C2611 1.386 . S
C2610 C2612 1.391 . S
C2611 C2610 1.386 . S
C2611 C2615 1.451 . S
C2612 H2601 0.950 . S
C2612 C2610 1.391 . S
C2612 C2613 1.400 . S
C2613 C2607 1.491 1_556 S
C2613 C2612 1.400 . S
C2613 C2614 1.398 1_556 S
C2614 H2602 0.950 . S
C2614 C2613 1.398 1_554 S
C2614 C2615 1.368 1_554 S
C2615 H2603 0.916 1_556 S
C2615 C2611 1.451 . S
C2615 C2614 1.368 1_556 S
H2616 C2624 0.950 . S
H2617 C2629 0.950 . S
H2618 C2626 0.950 . S
H2619 C2628 0.950 . S
H2620 C2630 0.950 . S
H2621 C2632 0.950 . S
H2622 C2634 0.950 . S
H2623 C2635 0.950 . S
C2624 H2616 0.950 . S
C2624 C2625 1.386 . S
C2624 C2626 1.391 . S
C2625 C2624 1.386 . S
C2625 C2629 1.393 . S
C2626 H2618 0.950 . S
C2626 C2624 1.391 . S
C2626 C2627 1.400 . S
C2627 C2626 1.400 . S
C2627 C2628 1.398 . S
C2627 C2633 1.491 . S
C2628 H2619 0.950 . S
C2628 C2627 1.398 . S
C2628 C2629 1.391 . S
C2629 H2617 0.950 . S
C2629 C2625 1.393 . S
C2629 C2628 1.391 . S
C2630 H2620 0.950 . S
C2630 C2631 1.386 . S
C2630 C2632 1.391 . S
C2631 C2630 1.386 . S
C2631 C2635 1.393 . S
C2632 H2621 0.950 . S
C2632 C2630 1.391 . S
C2632 C2633 1.400 . S
C2633 C2627 1.491 . S
C2633 C2632 1.400 . S
C2633 C2634 1.398 . S
C2634 H2622 0.950 . S
C2634 C2633 1.398 . S
C2634 C2635 1.391 . S
C2635 H2623 0.950 . S
C2635 C2631 1.393 . S
C2635 C2634 1.391 . S
H2636 C2644 0.950 . S
H2637 C2649 0.950 . S
H2638 C2646 0.950 . S
H2639 C2648 0.950 . S
H2640 C2650 0.950 . S
H2641 C2652 0.950 . S
H2642 C2654 0.950 . S
H2643 C2655 0.950 . S
C2644 H2636 0.950 . S
C2644 C2645 1.386 . S
C2644 C2646 1.391 . S
C2645 C2644 1.386 . S
C2645 C2649 1.393 . S
C2646 H2638 0.950 . S
C2646 C2644 1.391 . S
C2646 C2647 1.400 . S
C2647 C2646 1.400 . S
C2647 C2648 1.398 . S
C2647 C2653 1.491 . S
C2648 H2639 0.950 . S
C2648 C2647 1.398 . S
C2648 C2649 1.391 . S
C2649 H2637 0.950 . S
C2649 C2645 1.393 . S
C2649 C2648 1.391 . S
C2650 H2640 0.950 . S
C2650 C2651 1.386 . S
C2650 C2652 1.391 . S
C2651 C2650 1.386 . S
C2651 C2655 1.393 . S
C2652 H2641 0.950 . S
C2652 C2650 1.391 . S
C2652 C2653 1.400 . S
C2653 C2647 1.491 . S
C2653 C2652 1.400 . S
C2653 C2654 1.398 . S
C2654 H2642 0.950 . S
C2654 C2653 1.398 . S
C2654 C2655 1.391 . S
C2655 H2643 0.950 . S
C2655 C2651 1.393 . S
C2655 C2654 1.391 . S
C1065 C28 0.911 . S
C1071 C160 0.911 . S
C1085 C985 0.910 . S
C1091 C61 0.910 . S
C1105 C490 0.866 . S
C1111 C94 0.866 . S
C1125 C127 0.878 . S
C1131 C787 0.878 . S
C1145 C853 0.902 . S
C1151 C193 0.902 . S
C1165 C226 0.895 . S
C1171 C358 0.895 . S
C1185 C655 0.906 . S
C1191 C259 0.906 . S
C1205 C424 0.870 . S
C1211 C292 0.870 . S
C1225 C325 0.880 . S
C1231 C721 0.880 . S
C1245 C391 0.903 . S
C1251 C1051 0.903 . S
C1265 C457 0.912 . S
C1271 C589 0.912 . S
C1285 C919 0.883 . S
C1291 C523 0.883 . S
C1305 C688 0.866 . S
C1311 C556 0.866 . S
C1325 C1018 0.870 . S
C1331 C622 0.870 . S
C1345 C754 0.877 . S
C1351 C886 0.877 . S
C1365 C952 0.883 . S
C1371 C820 0.883 . S
C1385 C17 1.673 . S
C1391 C83 1.669 . S
C1405 C50 1.683 . S
C1411 C116 1.678 . S
C1425 C215 1.682 . S
C1431 C149 1.683 . S
C1445 C248 1.670 . S
C1451 C182 1.674 . S
C1465 C347 1.669 . S
C1471 C281 1.674 . S
C1485 C314 1.670 . S
C1491 C380 1.676 . S
C1505 C413 1.670 . S
C1511 C479 1.675 . S
C1525 C446 1.679 . S
C1531 C512 1.683 . S
C1545 C611 1.670 . S
C1551 C545 1.672 . S
C1565 C578 1.681 . S
C1571 C644 1.683 . S
C1585 C677 1.675 . S
C1591 C743 1.682 . S
C1605 C710 1.683 . S
C1611 C776 1.682 . S
C1625 C809 1.669 . S
C1631 C875 1.674 . S
C1645 C908 1.673 . S
C1651 C842 1.681 . S
C1665 C941 1.683 . S
C1671 C1007 1.682 . S
C1685 C1040 1.680 . S
C1691 C974 1.673 . S
C1705 N14 0.807 . S
C1711 N47 0.807 . S
C1725 N113 0.751 . S
C1731 N80 0.751 . S
C1745 N179 0.813 . S
C1751 N146 0.813 . S
C1765 N212 0.745 . S
C1771 N245 0.745 . S
C1785 N278 0.788 . S
C1791 N311 0.788 . S
C1805 N344 0.805 . S
C1811 N377 0.805 . S
C1825 N443 0.747 . S
C1831 N410 0.747 . S
C1845 N509 0.750 . S
C1851 N476 0.750 . S
C1865 N575 0.797 . S
C1871 N542 0.797 . S
C1885 N608 0.764 . S
C1891 N641 0.764 . S
C1905 N707 0.744 . S
C1911 N674 0.744 . S
C1925 N740 0.743 . S
C1931 N773 0.743 . S
C1945 N806 0.741 . S
C1951 N839 0.741 . S
C1965 N905 0.755 . S
C1971 N872 0.755 . S
C1985 N938 0.752 . S
C1991 N971 0.752 . S
C2005 N1004 0.799 . S
C2011 N1037 0.799 . S
C2025 N5 1.952 . S
C2031 C173 1.941 1_545 S
C2045 C932 1.950 . S
C2051 N38 1.950 . S
C2065 C503 1.946 . S
C2071 N71 1.947 . S
C2085 N104 1.959 . S
C2091 C734 1.939 1_545 S
C2105 C41 1.936 1_565 S
C2111 N137 1.958 . S
C2125 N170 1.953 . S
C2131 C800 1.947 . S
C2145 N203 1.949 . S
C2151 C371 1.951 . S
C2165 C602 1.943 1_565 S
C2171 N236 1.949 . S
C2185 N269 1.951 . S
C2191 C437 1.949 . S
C2205 N302 1.959 . S
C2211 C668 1.938 . S
C2225 N335 1.959 . S
C2231 C239 1.936 . S
C2245 C998 1.953 . S
C2251 N368 1.943 . S
C2265 N401 1.958 . S
C2271 C305 1.936 . S
C2285 N434 1.949 . S
C2291 C536 1.951 . S
C2305 N467 1.951 . S
C2311 C107 1.950 . S
C2325 C866 1.936 . S
C2331 N500 1.959 . S
C2345 C701 1.946 1_545 S
C2351 N533 1.954 . S
C2365 N566 1.943 . S
C2371 C404 1.954 . S
C2385 N599 1.943 . S
C2391 C1031 1.954 . S
C2405 N632 1.944 . S
C2411 C206 1.954 1_545 S
C2425 N665 1.959 . S
C2431 C569 1.939 1_565 S
C2445 N698 1.959 . S
C2451 C272 1.939 . S
C2465 C899 1.954 . S
C2471 N731 1.943 . S
C2485 C74 1.938 1_565 S
C2491 N764 1.960 . S
C2505 N797 1.955 . S
C2511 C965 1.945 . S
C2525 N830 1.947 . S
C2531 C140 1.952 . S
C2545 N863 1.960 . S
C2551 C767 1.937 . S
C2565 C470 1.948 . S
C2571 N896 1.953 . S
C2585 N929 1.951 . S
C2591 C833 1.949 . S
C2605 C8 1.936 . S
C2611 N962 1.957 . S
C2625 C635 1.953 . S
C2631 N995 1.943 . S
C2645 C338 1.939 . S
C2651 N1028 1.959 . S
