# Generated by pormake.
# Topology fna, (5)-cn, num edge types: 1
# Building blocks:
#     Node 0, Type 0, BuildingBlock: XOMCOT_clean_sbu_1, # of connection points: 5
#     Node 1, Type 0, BuildingBlock: XOMCOT_clean_sbu_1, # of connection points: 5
#     Node 2, Type 0, BuildingBlock: XOMCOT_clean_sbu_1, # of connection points: 5
#     Node 3, Type 0, BuildingBlock: XOMCOT_clean_sbu_1, # of connection points: 5
#     Node 4, Type 0, BuildingBlock: XOMCOT_clean_sbu_1, # of connection points: 5
#     Node 5, Type 0, BuildingBlock: XOMCOT_clean_sbu_1, # of connection points: 5
#     Node 6, Type 0, BuildingBlock: XOMCOT_clean_sbu_1, # of connection points: 5
#     Node 7, Type 0, BuildingBlock: XOMCOT_clean_sbu_1, # of connection points: 5
#     Node 8, Type 0, BuildingBlock: XOMCOT_clean_sbu_1, # of connection points: 5
#     Node 9, Type 0, BuildingBlock: XOMCOT_clean_sbu_1, # of connection points: 5
#     Node 10, Type 0, BuildingBlock: XOMCOT_clean_sbu_1, # of connection points: 5
#     Node 11, Type 0, BuildingBlock: XOMCOT_clean_sbu_1, # of connection points: 5
#     Edge 12, Type (0, 0), BuildingBlock: XIVTED_clean_linker_0, # of connection points: 2
#     Edge 13, Type (0, 0), BuildingBlock: XIVTED_clean_linker_0, # of connection points: 2
#     Edge 14, Type (0, 0), BuildingBlock: XIVTED_clean_linker_0, # of connection points: 2
#     Edge 15, Type (0, 0), BuildingBlock: XIVTED_clean_linker_0, # of connection points: 2
#     Edge 16, Type (0, 0), BuildingBlock: XIVTED_clean_linker_0, # of connection points: 2
#     Edge 17, Type (0, 0), BuildingBlock: XIVTED_clean_linker_0, # of connection points: 2
#     Edge 18, Type (0, 0), BuildingBlock: XIVTED_clean_linker_0, # of connection points: 2
#     Edge 19, Type (0, 0), BuildingBlock: XIVTED_clean_linker_0, # of connection points: 2
#     Edge 20, Type (0, 0), BuildingBlock: XIVTED_clean_linker_0, # of connection points: 2
#     Edge 21, Type (0, 0), BuildingBlock: XIVTED_clean_linker_0, # of connection points: 2
#     Edge 22, Type (0, 0), BuildingBlock: XIVTED_clean_linker_0, # of connection points: 2
#     Edge 23, Type (0, 0), BuildingBlock: XIVTED_clean_linker_0, # of connection points: 2
#     Edge 24, Type (0, 0), BuildingBlock: XIVTED_clean_linker_0, # of connection points: 2
#     Edge 25, Type (0, 0), BuildingBlock: XIVTED_clean_linker_0, # of connection points: 2
#     Edge 26, Type (0, 0), BuildingBlock: XIVTED_clean_linker_0, # of connection points: 2
#     Edge 27, Type (0, 0), BuildingBlock: XIVTED_clean_linker_0, # of connection points: 2
#     Edge 28, Type (0, 0), BuildingBlock: XIVTED_clean_linker_0, # of connection points: 2
#     Edge 29, Type (0, 0), BuildingBlock: XIVTED_clean_linker_0, # of connection points: 2
#     Edge 30, Type (0, 0), BuildingBlock: XIVTED_clean_linker_0, # of connection points: 2
#     Edge 31, Type (0, 0), BuildingBlock: XIVTED_clean_linker_0, # of connection points: 2
#     Edge 32, Type (0, 0), BuildingBlock: XIVTED_clean_linker_0, # of connection points: 2
#     Edge 33, Type (0, 0), BuildingBlock: XIVTED_clean_linker_0, # of connection points: 2
#     Edge 34, Type (0, 0), BuildingBlock: XIVTED_clean_linker_0, # of connection points: 2
#     Edge 35, Type (0, 0), BuildingBlock: XIVTED_clean_linker_0, # of connection points: 2
#     Edge 36, Type (0, 0), BuildingBlock: XIVTED_clean_linker_0, # of connection points: 2
#     Edge 37, Type (0, 0), BuildingBlock: XIVTED_clean_linker_0, # of connection points: 2
#     Edge 38, Type (0, 0), BuildingBlock: XIVTED_clean_linker_0, # of connection points: 2
#     Edge 39, Type (0, 0), BuildingBlock: XIVTED_clean_linker_0, # of connection points: 2
#     Edge 40, Type (0, 0), BuildingBlock: XIVTED_clean_linker_0, # of connection points: 2
#     Edge 41, Type (0, 0), BuildingBlock: XIVTED_clean_linker_0, # of connection points: 2
# Relax obj value: 0.385
# Max RMSD: 0.208
# Mean RMSD: 0.208
data_MOF--net-fna--node1-XOMCOT_clean_sbu_1--edge1-XIVTED_clean_linker_0
_symmetry_space_group_name_H-M    P1
_symmetry_Int_Tables_number       1
_symmetry_cell_setting            triclinic
loop_
_symmetry_equiv_pos_as_xyz
'x, y, z'
_cell_length_a     46.591705
_cell_length_b     46.614926
_cell_length_c     42.198265
_cell_angle_alpha  89.905203
_cell_angle_beta   89.989636
_cell_angle_gamma 119.90415
loop_
_atom_site_label
_atom_site_type_symbol
_atom_site_fract_x
_atom_site_fract_y
_atom_site_fract_z
_atom_type_partial_charge
C0 C 0.3915 0.33464 0.50708 0.0
C1 C 0.3951 0.34604 0.53762 0.0
N2 N 0.36491 0.33206 0.5512 0.0
N3 N 0.35915 0.31382 0.50126 0.0
C4 C 0.34355 0.3125 0.52864 0.0
H5 H 0.41127 0.34064 0.49032 0.0
Co6 Co 0.34259 0.29071 0.46364 0.0
C7 C 0.28038 0.29453 0.45476 0.0
O8 O 0.28745 0.30452 0.42528 0.0
N9 N 0.32683 0.26668 0.42511 0.0
C10 C 0.31574 0.25304 0.37414 0.0
C11 C 0.32372 0.27746 0.39622 0.0
C12 C 0.32106 0.2356 0.41951 0.0
N13 N 0.3143 0.22667 0.38875 0.0
O14 O 0.32596 0.25046 0.4871 0.0
H15 H 0.3287 0.30218 0.3908 0.0
H16 H 0.3237 0.22036 0.43723 0.0
O17 O 0.3004 0.28928 0.47108 0.0
C18 C 0.34875 0.24452 0.49538 0.0
O19 O 0.37871 0.26348 0.48401 0.0
N20 N 0.36169 0.33136 0.44214 0.0
C21 C 0.40923 0.39617 0.42738 0.0
C22 C 0.37971 0.38945 0.4424 0.0
C23 C 0.35634 0.35674 0.45009 0.0
C24 C 0.38918 0.3374 0.42542 0.0
C25 C 0.41331 0.36967 0.41777 0.0
H26 H 0.33597 0.35244 0.46535 0.0
H27 H 0.39392 0.31732 0.42069 0.0
H28 H 0.31713 0.29723 0.53204 0.0
H29 H 0.41831 0.36253 0.54919 0.0
H30 H 0.31237 0.25514 0.34905 0.0
H31 H 0.3762 0.40943 0.45083 0.0
H32 H 0.43603 0.37405 0.40646 0.0
C33 C 0.0618 0.38171 0.66539 0.0
C34 C 0.05621 0.3882 0.69579 0.0
N35 N 0.03925 0.3592 0.71139 0.0
N36 N 0.04812 0.34876 0.66167 0.0
C37 C 0.03476 0.33565 0.69015 0.0
H38 H 0.07556 0.39987 0.64725 0.0
Co39 Co 0.05212 0.32864 0.62525 0.0
C40 C 0.98265 0.271 0.6205 0.0
O41 O 0.97784 0.28003 0.59248 0.0
N42 N 0.058 0.30911 0.58815 0.0
C43 C 0.05787 0.29234 0.53865 0.0
C44 C 0.0417 0.30139 0.56016 0.0
C45 C 0.08427 0.30483 0.58261 0.0
N46 N 0.08483 0.29467 0.55277 0.0
O47 O 0.07429 0.31125 0.6501 0.0
H48 H 0.02106 0.30481 0.55441 0.0
H49 H 0.104 0.31121 0.59939 0.0
O50 O 0.01013 0.28847 0.63488 0.0
C51 C 0.10344 0.3334 0.65783 0.0
O52 O 0.11582 0.3629 0.64488 0.0
N53 N 0.03208 0.34852 0.60208 0.0
C54 C 0.01966 0.39856 0.58252 0.0
C55 C 0.99777 0.37354 0.60317 0.0
C56 C 1.00448 0.34876 0.61276 0.0
C57 C 0.05223 0.37121 0.58023 0.0
C58 C 0.04605 0.39595 0.5696 0.0
H59 H 0.9896 0.33215 0.6315 0.0
H60 H 0.07484 0.37191 0.57301 0.0
H61 H 0.02244 0.30942 0.69526 0.0
H62 H 0.06497 0.41249 0.70589 0.0
H63 H 0.05101 0.28598 0.51409 0.0
H64 H 0.97742 0.37475 0.61421 0.0
H65 H 0.06332 0.41432 0.55317 0.0
C66 C 0.68229 0.0601 0.84047 0.0
C67 C 0.67198 0.0553 0.87146 0.0
N68 N 0.68522 0.03904 0.8864 0.0
N69 N 0.70168 0.04664 0.83575 0.0
C70 C 0.70324 0.03418 0.86416 0.0
H71 H 0.67666 0.07322 0.8226 0.0
Co72 Co 0.72366 0.04979 0.79817 0.0
C73 C 0.71613 0.98219 0.79302 0.0
O74 O 0.70415 0.97832 0.76426 0.0
N75 N 0.7469 0.0548 0.75944 0.0
C76 C 0.75992 0.05461 0.70854 0.0
C77 C 0.73561 0.0397 0.73113 0.0
C78 C 0.77825 0.07908 0.75297 0.0
N79 N 0.78676 0.07962 0.72228 0.0
O80 O 0.76449 0.07418 0.82062 0.0
H81 H 0.71058 0.02042 0.72625 0.0
H82 H 0.79405 0.0976 0.76982 0.0
O83 O 0.72392 0.00873 0.80833 0.0
C84 C 0.77131 0.10389 0.8253 0.0
O85 O 0.75287 0.11419 0.81128 0.0
N86 N 0.68238 0.0278 0.77768 0.0
C87 C 0.61765 0.01047 0.76153 0.0
C88 C 0.62388 0.98991 0.78121 0.0
C89 C 0.65647 0.99907 0.78911 0.0
C90 C 0.67679 0.04736 0.75748 0.0
C91 C 0.64464 0.03885 0.74864 0.0
H92 H 0.66052 0.98477 0.80689 0.0
H93 H 0.69722 0.07101 0.75013 0.0
H94 H 0.71769 0.02225 0.86849 0.0
H95 H 0.65685 0.06418 0.88236 0.0
H96 H 0.75741 0.04827 0.68365 0.0
H97 H 0.60367 0.96795 0.79186 0.0
H98 H 0.6409 0.05576 0.73392 0.0
C99 C 0.62149 0.67762 0.00885 0.0
C100 C 0.61572 0.66637 0.03955 0.0
N101 N 0.64514 0.67799 0.05425 0.0
N102 N 0.65439 0.696 0.00406 0.0
C103 C 0.66822 0.69602 0.03216 0.0
H104 H 0.60291 0.67326 0.99121 0.0
Co105 Co 0.6735 0.71845 0.96669 0.0
C106 C 0.73111 0.70634 0.96153 0.0
O107 O 0.72151 0.69193 0.93385 0.0
N108 N 0.69213 0.74225 0.92844 0.0
C109 C 0.7078 0.757 0.87828 0.0
C110 C 0.69803 0.73213 0.9004 0.0
C111 C 0.6983 0.77339 0.92234 0.0
N112 N 0.70785 0.783 0.89213 0.0
O113 O 0.69123 0.75896 0.98995 0.0
H114 H 0.6934 0.70751 0.8953 0.0
H115 H 0.69397 0.78824 0.9391 0.0
O116 O 0.71411 0.71702 0.97589 0.0
C117 C 0.66912 0.76662 0.99601 0.0
O118 O 0.63986 0.74908 0.98279 0.0
N119 N 0.65308 0.67753 0.94535 0.0
C120 C 0.60438 0.61377 0.92815 0.0
C121 C 0.63018 0.61864 0.94851 0.0
C122 C 0.65416 0.65069 0.95701 0.0
C123 C 0.62906 0.67329 0.92432 0.0
C124 C 0.60472 0.64161 0.91501 0.0
H125 H 0.67155 0.65365 0.9754 0.0
H126 H 0.62714 0.69444 0.91669 0.0
H127 H 0.69464 0.7093 0.03637 0.0
H128 H 0.59165 0.65168 0.05044 0.0
H129 H 0.71326 0.75549 0.85361 0.0
H130 H 0.63071 0.5978 0.95929 0.0
H131 H 0.58488 0.63894 0.8997 0.0
C132 C 0.95085 0.6282 0.16783 0.0
C133 C 0.95511 0.62019 0.19818 0.0
N134 N 0.97279 0.6485 0.21458 0.0
N135 N 0.96613 0.66139 0.16505 0.0
C136 C 0.97906 0.67308 0.19389 0.0
H137 H 0.93708 0.61101 0.14907 0.0
Co138 Co 0.96541 0.68461 0.1297 0.0
C139 C 0.03532 0.73931 0.1267 0.0
O140 O 0.0369 0.73191 0.09693 0.0
N141 N 0.96231 0.70767 0.09425 0.0
C142 C 0.96021 0.74806 0.06787 0.0
C143 C 0.97783 0.74075 0.08921 0.0
C144 C 0.93486 0.69569 0.0759 0.0
N145 N 0.93283 0.71976 0.0599 0.0
O146 O 0.94268 0.70138 0.15415 0.0
H147 H 0.99799 0.75928 0.10301 0.0
H148 H 0.91464 0.67045 0.07741 0.0
O149 O 1.00826 0.72274 0.14215 0.0
C150 C 0.91176 0.68082 0.15495 0.0
O151 O 0.90037 0.65374 0.13791 0.0
N152 N 0.986 0.66514 0.10616 0.0
C153 C 1.00059 0.61638 0.08702 0.0
C154 C 0.02056 0.64042 0.10916 0.0
C155 C 0.01267 0.66425 0.11868 0.0
C156 C 0.96781 0.6435 0.08274 0.0
C157 C 0.97486 0.61904 0.07261 0.0
H158 H 0.02595 0.67957 0.13866 0.0
H159 H 0.94572 0.64282 0.07404 0.0
H160 H 0.99253 0.69915 0.19962 0.0
H161 H 0.94507 0.59542 0.20765 0.0
H162 H 0.96548 0.77266 0.06124 0.0
H163 H 0.04071 0.63934 0.12083 0.0
H164 H 0.95852 0.60067 0.05572 0.0
C165 C 0.34707 0.9562 0.33947 0.0
C166 C 0.35832 0.96319 0.37013 0.0
N167 N 0.34423 0.97904 0.38424 0.0
N168 N 0.32625 0.96789 0.33413 0.0
C169 C 0.32478 0.98145 0.36187 0.0
H170 H 0.35315 0.94285 0.32232 0.0
Co171 Co 0.30315 0.96228 0.2967 0.0
C172 C 0.30567 0.02756 0.28926 0.0
O173 O 0.31449 0.03008 0.25943 0.0
N174 N 0.27897 0.9549 0.25816 0.0
C175 C 0.26525 0.95226 0.20711 0.0
C176 C 0.28993 0.96829 0.2291 0.0
C177 C 0.2474 0.93052 0.25276 0.0
N178 N 0.23848 0.92824 0.222 0.0
O179 O 0.263 0.9373 0.31992 0.0
H180 H 0.31484 0.98752 0.22356 0.0
H181 H 0.23165 0.91321 0.27057 0.0
O182 O 0.30115 1.00252 0.30555 0.0
C183 C 0.25724 0.90795 0.32484 0.0
O184 O 0.27668 0.89864 0.31127 0.0
N185 N 0.34381 0.98485 0.27538 0.0
C186 C 0.4089 1.00277 0.26099 0.0
C187 C 0.40182 0.02511 0.2764 0.0
C188 C 0.36894 0.01545 0.28387 0.0
C189 C 0.35025 0.9639 0.25831 0.0
C190 C 0.38268 0.9724 0.25082 0.0
H191 H 0.36432 0.03107 0.29942 0.0
H192 H 0.33039 0.93914 0.25323 0.0
H193 H 0.30944 0.9925 0.36566 0.0
H194 H 0.37474 0.95612 0.3814 0.0
H195 H 0.26737 0.9573 0.18193 0.0
H196 H 0.42162 0.04839 0.28531 0.0
H197 H 0.38738 0.95439 0.2393 0.0
C198 C 0.67113 0.62421 0.32938 0.0
C199 C 0.65903 0.61942 0.29902 0.0
N200 N 0.67497 0.64852 0.28341 0.0
N201 N 0.69433 0.65626 0.33309 0.0
C202 C 0.69629 0.67043 0.30466 0.0
H203 H 0.66426 0.60529 0.34731 0.0
Co204 Co 0.72081 0.67414 0.36868 0.0
C205 C 0.72061 0.73839 0.37703 0.0
O206 O 0.71526 0.73446 0.40763 0.0
N207 N 0.74829 0.69121 0.40501 0.0
C208 C 0.76767 0.70532 0.45433 0.0
C209 C 0.74099 0.69657 0.43472 0.0
C210 C 0.77939 0.6961 0.40768 0.0
N211 N 0.7917 0.70474 0.43724 0.0
O212 O 0.75887 0.68905 0.34211 0.0
H213 H 0.71719 0.69272 0.4424 0.0
H214 H 0.7927 0.69249 0.3886 0.0
O215 O 0.72237 0.71626 0.36073 0.0
C216 C 0.76357 0.66601 0.33205 0.0
O217 O 0.74448 0.63582 0.34283 0.0
N218 N 0.68242 0.65702 0.3935 0.0
C219 C 0.61914 0.61237 0.41593 0.0
C220 C 0.62507 0.64094 0.39924 0.0
C221 C 0.6569 0.66286 0.3879 0.0
C222 C 0.6776 0.63062 0.41136 0.0
C223 C 0.64628 0.60815 0.42297 0.0
H224 H 0.66016 0.68256 0.37218 0.0
H225 H 0.69762 0.62541 0.41426 0.0
H226 H 0.7137 0.6961 0.29948 0.0
H227 H 0.64093 0.59598 0.28888 0.0
H228 H 0.76862 0.7099 0.47955 0.0
H229 H 0.60497 0.64533 0.3933 0.0
H230 H 0.64304 0.58622 0.43505 0.0
C231 C 0.05921 0.66698 0.48753 0.0
C232 C 0.05205 0.65489 0.45709 0.0
N233 N 0.03746 0.66973 0.44192 0.0
N234 N 0.04884 0.68905 0.49154 0.0
C235 C 0.03583 0.69029 0.46341 0.0
H236 H 0.07176 0.66066 0.50541 0.0
Co237 Co 0.05492 0.71478 0.5271 0.0
C238 C 1.00826 0.73823 0.51685 0.0
O239 O 0.03223 0.76835 0.52313 0.0
N240 N 0.06193 0.74098 0.56278 0.0
C241 C 0.05773 0.76281 0.60815 0.0
C242 C 0.04102 0.73775 0.58646 0.0
C243 C 0.09097 0.76776 0.5706 0.0
N244 N 0.0891 0.78172 0.59787 0.0
O245 O 0.07889 0.75339 0.50127 0.0
H246 H 0.01536 0.71843 0.58786 0.0
H247 H 0.1134 0.77658 0.55688 0.0
O248 O 0.01369 0.71399 0.51827 0.0
C249 C 0.10772 0.75858 0.49458 0.0
O250 O 0.11779 0.73961 0.50789 0.0
N251 N 0.03346 0.67641 0.55168 0.0
C252 C 0.01862 0.61376 0.57217 0.0
C253 C 0.99624 0.61779 0.55295 0.0
C254 C 1.00406 0.64958 0.54308 0.0
C255 C 0.05358 0.67328 0.57309 0.0
C256 C 0.04626 0.64221 0.58414 0.0
H257 H 0.98856 0.6521 0.52551 0.0
H258 H 0.07709 0.69459 0.57922 0.0
H259 H 0.02581 0.7064 0.45872 0.0
H260 H 0.05819 0.63743 0.44668 0.0
H261 H 0.04754 0.76699 0.62954 0.0
H262 H 0.97463 0.59661 0.54309 0.0
H263 H 0.06373 0.64038 0.59976 0.0
C264 C 0.39088 0.06019 0.65994 0.0
C265 C 0.39873 0.05683 0.62927 0.0
N266 N 0.37033 0.0399 0.61278 0.0
N267 N 0.35771 0.0451 0.66284 0.0
C268 C 0.34585 0.03319 0.63373 0.0
H269 H 0.40819 0.07331 0.67883 0.0
Co270 Co 0.33481 0.04532 0.69865 0.0
C271 C 0.28018 0.97542 0.70126 0.0
O272 O 0.28764 0.97319 0.73087 0.0
N273 N 0.3121 0.04789 0.73455 0.0
C274 C 0.27197 0.04909 0.76221 0.0
C275 C 0.27912 0.03188 0.74033 0.0
C276 C 0.32415 0.07525 0.75298 0.0
N277 N 0.30021 0.07674 0.76974 0.0
O278 O 0.31758 0.06811 0.67487 0.0
H279 H 0.2604 0.01172 0.72671 0.0
H280 H 0.3492 0.09577 0.75098 0.0
O281 O 0.29676 1.00271 0.68616 0.0
C282 C 0.33803 0.09902 0.67364 0.0
O283 O 0.36545 0.11071 0.69026 0.0
N284 N 0.35452 0.02452 0.72148 0.0
C285 C 0.40248 0.00872 0.74051 0.0
C286 C 0.37855 0.9894 0.71801 0.0
C287 C 0.35517 0.99793 0.70851 0.0
C288 C 0.37609 0.04213 0.74516 0.0
C289 C 0.40017 0.03447 0.75524 0.0
H290 H 0.33992 0.98512 0.68833 0.0
H291 H 0.37694 0.06416 0.75422 0.0
H292 H 0.31976 0.02021 0.62801 0.0
H293 H 0.42346 0.06699 0.61968 0.0
H294 H 0.24739 0.04347 0.76939 0.0
H295 H 0.37937 0.96925 0.70609 0.0
H296 H 0.4185 0.05035 0.7724 0.0
C297 C 0.32574 0.38271 0.82457 0.0
C298 C 0.33659 0.39004 0.79375 0.0
N299 N 0.32644 0.36138 0.77809 0.0
N300 N 0.30919 0.34961 0.82841 0.0
C301 C 0.30977 0.33724 0.79968 0.0
H302 H 0.32922 0.40028 0.84297 0.0
Co303 Co 0.28749 0.32737 0.86506 0.0
C304 C 0.30651 0.27492 0.86715 0.0
O305 O 0.31851 0.28372 0.89593 0.0
N306 N 0.26358 0.3053 0.90179 0.0
C307 C 0.22423 0.26541 0.93136 0.0
C308 C 0.24876 0.2728 0.90945 0.0
C309 C 0.24718 0.31685 0.91937 0.0
N310 N 0.2229 0.29304 0.93725 0.0
O311 O 0.24689 0.30827 0.84221 0.0
H312 H 0.25201 0.25431 0.89732 0.0
H313 H 0.25028 0.34127 0.91623 0.0
O314 O 0.29328 0.28987 0.8532 0.0
C315 C 0.23535 0.32785 0.84042 0.0
O316 O 0.25056 0.35591 0.85607 0.0
N317 N 0.32848 0.34887 0.88691 0.0
C318 C 0.39163 0.39845 0.90516 0.0
C319 C 0.3877 0.37507 0.88229 0.0
C320 C 0.35606 0.35084 0.87322 0.0
C321 C 0.33187 0.37005 0.91079 0.0
C322 C 0.36331 0.3949 0.92051 0.0
H323 H 0.35391 0.33578 0.85296 0.0
H324 H 0.31034 0.36984 0.92046 0.0
H325 H 0.29796 0.31103 0.79471 0.0
H326 H 0.3501 0.41457 0.7835 0.0
H327 H 0.20674 0.24091 0.94002 0.0
H328 H 0.40889 0.37683 0.8699 0.0
H329 H 0.36523 0.41277 0.93798 0.0
C330 C 0.95549 0.33643 0.98502 0.0
C331 C 0.96102 0.34644 0.95392 0.0
N332 N 0.97833 0.33371 0.94015 0.0
N333 N 0.96954 0.31778 0.99098 0.0
C334 C 0.98308 0.31632 0.96317 0.0
H335 H 0.94153 0.3418 0.00213 0.0
Co336 Co 0.9659 0.29625 0.0291 0.0
C337 C 0.03586 0.30922 0.03532 0.0
O338 O 0.04055 0.32491 0.06226 0.0
N339 N 0.96049 0.27332 0.06802 0.0
C340 C 0.96167 0.25961 0.11852 0.0
C341 C 0.97664 0.284 0.09593 0.0
C342 C 0.93556 0.24235 0.07469 0.0
N343 N 0.93565 0.23334 0.10512 0.0
O344 O 0.94337 0.25521 0.00664 0.0
H345 H 0.9967 0.30867 0.10057 0.0
H346 H 0.91641 0.22712 0.05809 0.0
O347 O 1.00813 0.29758 0.02089 0.0
C348 C 0.91368 0.24785 0.00067 0.0
O349 O 0.90234 0.2658 0.0138 0.0
N350 N 0.98596 0.3377 0.04961 0.0
C351 C 1.00011 0.40156 0.06561 0.0
C352 C 0.02118 0.39665 0.04546 0.0
C353 C 0.01359 0.36454 0.03759 0.0
C354 C 0.96599 0.34204 0.07035 0.0
C355 C 0.97291 0.37377 0.07908 0.0
H356 H 0.02817 0.36142 0.01945 0.0
H357 H 0.94312 0.32088 0.07823 0.0
H358 H 0.99575 0.30241 0.95983 0.0
H359 H 0.952 0.36103 0.94213 0.0
H360 H 0.96889 0.26162 0.14314 0.0
H361 H 0.04233 0.41745 0.03442 0.0
H362 H 0.95563 0.37645 0.09423 0.0
C363 C 0.63564 0.96352 0.16276 0.0
C364 C 0.62986 0.97003 0.13242 0.0
N365 N 0.65888 0.98467 0.11662 0.0
N366 N 0.6682 0.97433 0.16623 0.0
C367 C 0.68174 0.98691 0.13769 0.0
H368 H 0.61713 0.95084 0.1809 0.0
Co369 Co 0.68714 0.96785 0.20219 0.0
C370 C 0.75047 0.03263 0.20863 0.0
O371 O 0.74569 0.03435 0.23902 0.0
N372 N 0.70536 0.95949 0.23929 0.0
C373 C 0.71712 0.95474 0.28963 0.0
C374 C 0.70865 0.97199 0.26884 0.0
C375 C 0.7121 0.93455 0.24313 0.0
N376 N 0.71903 0.93086 0.27349 0.0
O377 O 0.70098 0.94297 0.17684 0.0
H378 H 0.7034 0.99124 0.27563 0.0
H379 H 0.71073 0.9184 0.22425 0.0
O380 O 0.72908 0.0081 0.19245 0.0
C381 C 0.67688 0.91402 0.17158 0.0
O382 O 0.64874 0.90474 0.18638 0.0
N383 N 0.67031 0.99034 0.22565 0.0
C384 C 0.62571 0.00989 0.24642 0.0
C385 C 0.654 0.03168 0.22894 0.0
C386 C 0.67582 0.02127 0.21839 0.0
C387 C 0.644 0.96956 0.24401 0.0
C388 C 0.6216 0.9789 0.25486 0.0
H389 H 0.69516 0.0369 0.20199 0.0
H390 H 0.63884 0.94451 0.24805 0.0
H391 H 0.7077 0.99685 0.13235 0.0
H392 H 0.6059 0.96325 0.12248 0.0
H393 H 0.71955 0.95834 0.31501 0.0
H394 H 0.65824 0.05581 0.22183 0.0
H395 H 0.59982 0.96079 0.26752 0.0
H396 H 0.37917 0.16494 0.66536 0.0
H397 H 0.2898 0.1939 0.519 0.0
H398 H 0.28929 0.08274 0.62852 0.0
H399 H 0.39586 0.24131 0.53025 0.0
H400 H 0.28322 0.15751 0.56432 0.0
H401 H 0.3787 0.19935 0.62226 0.0
C402 C 0.35906 0.15415 0.64841 0.0
C403 C 0.33447 0.12073 0.65031 0.0
C404 C 0.30781 0.17585 0.55657 0.0
C405 C 0.33391 0.16023 0.60079 0.0
C406 C 0.3116 0.19653 0.53084 0.0
C407 C 0.34343 0.22058 0.52082 0.0
C408 C 0.33603 0.18005 0.57264 0.0
C409 C 0.37087 0.22305 0.53697 0.0
C410 C 0.35893 0.17383 0.62373 0.0
C411 C 0.30885 0.10835 0.62777 0.0
N412 N 0.36651 0.2033 0.56221 0.0
N413 N 0.30929 0.12812 0.6037 0.0
H414 H 0.09426 0.27478 0.68335 0.0
H415 H 0.20733 0.3662 0.83174 0.0
H416 H 0.15202 0.38093 0.6935 0.0
H417 H 0.20498 0.27838 0.79571 0.0
H418 H 0.17234 0.36397 0.78797 0.0
H419 H 0.12265 0.26888 0.73029 0.0
C420 C 0.11292 0.29673 0.69532 0.0
C421 C 0.12098 0.32839 0.68447 0.0
C422 C 0.17923 0.345 0.78983 0.0
C423 C 0.15236 0.32178 0.73808 0.0
C424 C 0.1991 0.34614 0.81487 0.0
C425 C 0.20957 0.32274 0.81711 0.0
C426 C 0.16939 0.32014 0.76691 0.0
C427 C 0.19767 0.29706 0.79469 0.0
C428 C 0.12899 0.29333 0.72195 0.0
C429 C 0.14521 0.35605 0.70081 0.0
N430 N 0.17831 0.29654 0.77022 0.0
N431 N 0.15976 0.35208 0.72692 0.0
H432 H 0.78521 0.1652 0.84366 0.0
H433 H 0.92777 0.20526 0.96722 0.0
H434 H 0.81389 0.09159 0.86099 0.0
H435 H 0.85358 0.23422 0.97863 0.0
H436 H 0.89502 0.16881 0.92314 0.0
H437 H 0.82103 0.19828 0.88659 0.0
C438 C 0.7993 0.15607 0.85627 0.0
C439 C 0.79626 0.12537 0.84887 0.0
C440 C 0.88601 0.18303 0.93566 0.0
C441 C 0.83745 0.16339 0.8983 0.0
C442 C 0.90456 0.20373 0.96072 0.0
C443 C 0.89347 0.22294 0.97653 0.0
C444 C 0.85677 0.1823 0.92617 0.0
C445 C 0.86327 0.22007 0.96715 0.0
C446 C 0.81962 0.17495 0.88093 0.0
C447 C 0.8154 0.11506 0.86607 0.0
N448 N 0.84626 0.20051 0.94242 0.0
N449 N 0.83527 0.13407 0.89017 0.0
H450 H 0.72599 0.80858 0.02925 0.0
H451 H 0.6264 0.85565 0.15059 0.0
H452 H 0.62346 0.78164 0.01784 0.0
H453 H 0.7309 0.9228 0.13653 0.0
H454 H 0.62714 0.82177 0.10738 0.0
H455 H 0.73064 0.84593 0.07279 0.0
C456 C 0.70463 0.81072 0.03565 0.0
C457 C 0.67424 0.79183 0.01999 0.0
C458 C 0.64997 0.84389 0.11373 0.0
C459 C 0.67926 0.83364 0.06974 0.0
C460 C 0.64965 0.8632 0.13858 0.0
C461 C 0.67861 0.89228 0.14711 0.0
C462 C 0.67952 0.85334 0.09728 0.0
C463 C 0.70799 0.90063 0.1306 0.0
C464 C 0.70732 0.83196 0.06042 0.0
C465 C 0.64735 0.79553 0.02923 0.0
N466 N 0.70775 0.88117 0.10635 0.0
N467 N 0.65042 0.81567 0.05364 0.0
H468 H 0.84529 0.64091 0.16032 0.0
H469 H 0.81673 0.7249 0.31185 0.0
H470 H 0.92742 0.72746 0.20205 0.0
H471 H 0.76301 0.62006 0.29248 0.0
H472 H 0.85345 0.73259 0.26656 0.0
H473 H 0.80961 0.64039 0.2026 0.0
C474 C 0.85581 0.66007 0.1782 0.0
C475 C 0.88955 0.68399 0.1779 0.0
C476 C 0.83361 0.708 0.27245 0.0
C477 C 0.84862 0.6834 0.22651 0.0
C478 C 0.81272 0.70359 0.29815 0.0
C479 C 0.78695 0.67177 0.30598 0.0
C480 C 0.82795 0.6805 0.25422 0.0
C481 C 0.78271 0.64498 0.2875 0.0
C482 C 0.8354 0.65965 0.20241 0.0
C483 C 0.90158 0.70845 0.20154 0.0
N484 N 0.80281 0.65 0.2624 0.0
N485 N 0.88111 0.70742 0.22516 0.0
H486 H 0.24142 0.84512 0.33968 0.0
H487 H 0.09918 0.80683 0.46514 0.0
H488 H 0.21432 0.91911 0.36106 0.0
H489 H 0.16316 0.76452 0.46756 0.0
H490 H 0.1334 0.84386 0.42191 0.0
H491 H 0.20332 0.80954 0.38024 0.0
C492 C 0.22726 0.85386 0.35275 0.0
C493 C 0.23136 0.88534 0.34718 0.0
C494 C 0.13982 0.82648 0.43216 0.0
C495 C 0.18758 0.84449 0.39396 0.0
C496 C 0.12041 0.80543 0.45672 0.0
C497 C 0.12837 0.78259 0.46996 0.0
C498 C 0.16678 0.82402 0.42058 0.0
C499 C 0.15607 0.78173 0.4582 0.0
C500 C 0.20559 0.83352 0.37605 0.0
C501 C 0.21202 0.89507 0.36477 0.0
N502 N 0.17404 0.80191 0.4341 0.0
N503 N 0.19094 0.8747 0.38758 0.0
H504 H 0.32461 0.21801 0.32681 0.0
H505 H 0.29123 0.03351 0.35143 0.0
H506 H 0.29537 0.16697 0.41674 0.0
H507 H 0.31628 0.08515 0.26177 0.0
H508 H 0.29119 0.08112 0.37593 0.0
H509 H 0.31988 0.16858 0.30275 0.0
C510 C 0.31686 0.19638 0.34156 0.0
C511 C 0.31041 0.19693 0.37402 0.0
C512 C 0.29658 0.08193 0.35088 0.0
C513 C 0.30545 0.13989 0.3464 0.0
C514 C 0.29663 0.05475 0.33686 0.0
C515 C 0.30396 0.05533 0.30449 0.0
C516 C 0.30393 0.10989 0.33239 0.0
C517 C 0.31061 0.08353 0.28681 0.0
C518 C 0.31437 0.16808 0.32775 0.0
C519 C 0.30104 0.168 0.39178 0.0
N520 N 0.31054 0.10963 0.30099 0.0
N521 N 0.29894 0.14072 0.37777 0.0
H522 H 0.2589 0.27835 0.51643 0.0
H523 H 0.10155 0.30185 0.49029 0.0
H524 H 0.23299 0.30439 0.42693 0.0
H525 H 0.12881 0.28075 0.58151 0.0
H526 H 0.14771 0.29926 0.46635 0.0
H527 H 0.20995 0.27605 0.54039 0.0
C528 C 0.24295 0.28353 0.50178 0.0
C529 C 0.25026 0.29178 0.46962 0.0
C530 C 0.14358 0.29508 0.4916 0.0
C531 C 0.19408 0.28906 0.4969 0.0
C532 C 0.11697 0.29631 0.50531 0.0
C533 C 0.11117 0.29158 0.53808 0.0
C534 C 0.16471 0.28905 0.51069 0.0
C535 C 0.13254 0.28502 0.55627 0.0
C536 C 0.21497 0.2822 0.51549 0.0
C537 C 0.22851 0.29806 0.45182 0.0
N538 N 0.15838 0.28402 0.54236 0.0
N539 N 0.20152 0.29663 0.4657 0.0
H540 H 0.7939 0.09819 0.66031 0.0
H541 H 0.98006 0.24721 0.68089 0.0
H542 H 0.84737 0.11921 0.74864 0.0
H543 H 0.9228 0.22697 0.59501 0.0
H544 H 0.9334 0.19875 0.70561 0.0
H545 H 0.84273 0.14305 0.63535 0.0
C546 C 0.81598 0.11192 0.67446 0.0
C547 C 0.81631 0.10482 0.70676 0.0
C548 C 0.93115 0.20491 0.68133 0.0
C549 C 0.87254 0.15697 0.67823 0.0
C550 C 0.95778 0.23257 0.6672 0.0
C551 C 0.95533 0.24131 0.63585 0.0
C552 C 0.90193 0.18584 0.66395 0.0
C553 C 0.92584 0.22136 0.61926 0.0
C554 C 0.84389 0.13783 0.66018 0.0
C555 C 0.84573 0.12405 0.72382 0.0
N556 N 0.90037 0.19468 0.63351 0.0
N557 N 0.87262 0.1493 0.70939 0.0
H558 H 0.7329 0.97695 0.8546 0.0
H559 H 0.70064 0.7927 0.82967 0.0
H560 H 0.70426 0.92426 0.76573 0.0
H561 H 0.72607 0.84227 0.92019 0.0
H562 H 0.70572 0.84245 0.80545 0.0
H563 H 0.73382 0.92952 0.87876 0.0
C564 C 0.72694 0.95553 0.84013 0.0
C565 C 0.71831 0.95457 0.8081 0.0
C566 C 0.71032 0.84254 0.83062 0.0
C567 C 0.71935 0.90026 0.83557 0.0
C568 C 0.70764 0.8141 0.84447 0.0
C569 C 0.71275 0.81305 0.87715 0.0
C570 C 0.71816 0.87032 0.84946 0.0
C571 C 0.72134 0.84165 0.89505 0.0
C572 C 0.72745 0.92844 0.85394 0.0
C573 C 0.71088 0.92613 0.79053 0.0
N574 N 0.72366 0.86904 0.88101 0.0
N575 N 0.71151 0.90018 0.80449 0.0
H576 H 0.76556 0.74314 0.01318 0.0
H577 H 0.88867 0.67024 0.02231 0.0
H578 H 0.7636 0.67331 0.94491 0.0
H579 H 0.91003 0.76286 0.06477 0.0
H580 H 0.83849 0.66604 -0.00155 0.0
H581 H 0.81462 0.74583 0.03747 0.0
C582 C 0.7754 0.72835 0.00334 0.0
C583 C 0.76057 0.70814 0.97686 0.0
C584 C 0.85431 0.68733 0.01288 0.0
C585 C 0.81644 0.71085 0.00469 0.0
C586 C 0.8828 0.68965 0.02649 0.0
C587 C 0.90371 0.71711 0.04513 0.0
C588 C 0.84643 0.71234 0.01853 0.0
C589 C 0.895 0.74161 0.05002 0.0
C590 C 0.80343 0.72995 0.01714 0.0
C591 C 0.77436 0.68944 0.96514 0.0
N592 N 0.86698 0.73857 0.03695 0.0
N593 N 0.80143 0.69115 0.97919 0.0
H594 H 0.2297 0.90656 0.16102 0.0
H595 H 0.04197 0.7627 0.1877 0.0
H596 H 0.17825 0.89071 0.25009 0.0
H597 H 0.09526 0.78061 0.09948 0.0
H598 H 0.09085 0.8099 0.21107 0.0
H599 H 0.17972 0.86149 0.13798 0.0
C600 C 0.20785 0.89391 0.17573 0.0
C601 C 0.2084 0.90261 0.20767 0.0
C602 C 0.09177 0.80348 0.18659 0.0
C603 C 0.15083 0.85021 0.18135 0.0
C604 C 0.06389 0.77653 0.17323 0.0
C605 C 0.06447 0.76763 0.14155 0.0
C606 C 0.12043 0.82166 0.16813 0.0
C607 C 0.09359 0.78647 0.12398 0.0
C608 C 0.17927 0.86789 0.16256 0.0
C609 C 0.17923 0.88468 0.22553 0.0
N610 N 0.12031 0.8125 0.13748 0.0
N611 N 0.15168 0.85931 0.21216 0.0
H612 H 0.98314 0.77972 0.52445 0.0
H613 H 0.82372 0.67273 0.41778 0.0
H614 H 0.95899 0.68448 0.48616 0.0
H615 H 0.83027 0.7466 0.48334 0.0
H616 H 0.8762 0.68026 0.43819 0.0
H617 H 0.92978 0.77129 0.50565 0.0
C618 C 0.96658 0.757 0.51216 0.0
C619 C 0.9755 0.73276 0.50687 0.0
C620 C 0.86613 0.69478 0.44814 0.0
C621 C 0.91465 0.72317 0.48501 0.0
C622 C 0.83635 0.69071 0.43632 0.0
C623 C 0.82273 0.70919 0.44883 0.0
C624 C 0.88267 0.71784 0.47235 0.0
C625 C 0.83986 0.73176 0.47321 0.0
C626 C 0.93612 0.75219 0.50152 0.0
C627 C 0.95304 0.70375 0.49088 0.0
N628 N 0.86908 0.73563 0.48405 0.0
N629 N 0.92375 0.69988 0.48028 0.0
H630 H 0.23337 0.91828 0.72955 0.0
H631 H 0.13939 0.83447 0.56844 0.0
H632 H 0.2612 0.96787 0.63889 0.0
H633 H 0.09921 0.79518 0.66077 0.0
H634 H 0.18568 0.88229 0.59362 0.0
H635 H 0.1857 0.87165 0.7046 0.0
C636 C 0.22951 0.91936 0.70437 0.0
C637 C 0.25136 0.94703 0.68627 0.0
C638 C 0.16669 0.8633 0.6084 0.0
C639 C 0.19679 0.89364 0.65756 0.0
C640 C 0.14037 0.8359 0.59405 0.0
C641 C 0.11554 0.81072 0.61258 0.0
C642 C 0.16843 0.86545 0.64158 0.0
C643 C 0.11773 0.81412 0.64565 0.0
C644 C 0.20218 0.89276 0.69018 0.0
C645 C 0.24499 0.94708 0.65377 0.0
N646 N 0.14387 0.84088 0.65912 0.0
N647 N 0.21836 0.92073 0.64043 0.0
H648 H 0.27268 0.24117 0.81423 0.0
H649 H 0.34944 0.12142 0.80732 0.0
H650 H 0.34177 0.24479 0.88446 0.0
H651 H 0.25664 0.09874 0.76414 0.0
H652 H 0.35281 0.17143 0.83079 0.0
H653 H 0.27251 0.1935 0.78998 0.0
C654 C 0.28791 0.23203 0.82449 0.0
C655 C 0.30706 0.24682 0.85156 0.0
C656 C 0.33168 0.15533 0.81627 0.0
C657 C 0.30714 0.19241 0.82379 0.0
C658 C 0.32982 0.12697 0.80291 0.0
C659 C 0.30251 0.10575 0.78424 0.0
C660 C 0.30638 0.16272 0.81026 0.0
C661 C 0.27776 0.11402 0.77897 0.0
C662 C 0.28772 0.20476 0.8107 0.0
C663 C 0.3264 0.23394 0.86377 0.0
N664 N 0.28035 0.14188 0.79178 0.0
N665 N 0.326 0.20749 0.84976 0.0
H666 H 0.10148 0.34512 0.0506 0.0
H667 H 0.15792 0.24609 0.93698 0.0
H668 H 0.03393 0.26872 0.98708 0.0
H669 H 0.22622 0.34413 0.97088 0.0
H670 H 0.1122 0.25009 0.96074 0.0
H671 H 0.14741 0.34145 0.02688 0.0
C672 C 0.09626 0.32748 0.03171 0.0
C673 C 0.06373 0.30711 0.02086 0.0
C674 C 0.13718 0.27071 0.96306 0.0
C675 C 0.11631 0.30269 0.99379 0.0
C676 C 0.16335 0.26832 0.9498 0.0
C677 C 0.19599 0.29475 0.95226 0.0
C678 C 0.14365 0.29955 0.97931 0.0
C679 C 0.20143 0.32326 0.9685 0.0
C680 C 0.12255 0.32554 0.01811 0.0
C681 C 0.05857 0.2849 0.99617 0.0
N682 N 0.17554 0.32485 0.98162 0.0
N683 N 0.08456 0.28311 0.98362 0.0
H684 H 0.76778 0.04005 0.14546 0.0
H685 H 0.92047 0.22392 0.16806 0.0
H686 H 0.79893 0.08948 0.23579 0.0
H687 H 0.89382 0.17386 0.07777 0.0
H688 H 0.87702 0.17408 0.19322 0.0
H689 H 0.81433 0.08803 0.12016 0.0
C690 C 0.78442 0.06089 0.16001 0.0
C691 C 0.77927 0.06071 0.19283 0.0
C692 C 0.88072 0.17392 0.1679 0.0
C693 C 0.83262 0.11577 0.16398 0.0
C694 C 0.90577 0.20243 0.15347 0.0
C695 C 0.91093 0.20338 0.12059 0.0
C696 C 0.86044 0.14597 0.14943 0.0
C697 C 0.89052 0.17463 0.10306 0.0
C698 C 0.81102 0.08829 0.14553 0.0
C699 C 0.80176 0.08845 0.21043 0.0
N700 N 0.86616 0.1472 0.11765 0.0
N701 N 0.8273 0.11481 0.19579 0.0
H702 H 0.70367 0.87171 0.24587 0.0
H703 H 0.72929 0.79511 0.40482 0.0
H704 H 0.74316 0.9284 0.33175 0.0
H705 H 0.71753 0.7492 0.31338 0.0
H706 H 0.73188 0.84318 0.3788 0.0
H707 H 0.70684 0.82607 0.2702 0.0
C708 C 0.71335 0.87495 0.26966 0.0
C709 C 0.72293 0.90429 0.28671 0.0
C710 C 0.72891 0.82267 0.3644 0.0
C711 C 0.72595 0.8513 0.31501 0.0
C712 C 0.72728 0.79512 0.37925 0.0
C713 C 0.72309 0.76798 0.36128 0.0
C714 C 0.72591 0.82301 0.33131 0.0
C715 C 0.72082 0.76954 0.32819 0.0
C716 C 0.71499 0.84861 0.28362 0.0
C717 C 0.73485 0.90628 0.31773 0.0
N718 N 0.72202 0.79648 0.31429 0.0
N719 N 0.73576 0.88011 0.33091 0.0
H720 H 0.41441 0.45176 0.39895 0.0
H721 H 0.59619 0.57019 0.46718 0.0
H722 H 0.46856 0.41767 0.45551 0.0
H723 H 0.56363 0.59118 0.37872 0.0
H724 H 0.54294 0.51917 0.4718 0.0
H725 H 0.46335 0.50791 0.39914 0.0
C726 C 0.43658 0.4562 0.4114 0.0
C727 C 0.43785 0.43019 0.42682 0.0
C728 C 0.5474 0.53522 0.45158 0.0
C729 C 0.49301 0.49385 0.42794 0.0
C730 C 0.57781 0.56434 0.44887 0.0
C731 C 0.58481 0.58491 0.42224 0.0
C732 C 0.52353 0.52666 0.42773 0.0
C733 C 0.55947 0.57632 0.39976 0.0
C734 C 0.46435 0.48806 0.41154 0.0
C735 C 0.46691 0.43705 0.4429 0.0
N736 N 0.53005 0.5477 0.40288 0.0
N737 N 0.49328 0.46821 0.44313 0.0
H738 H 0.0716 0.46183 0.57978 0.0
H739 H 0.96317 0.5515 0.57954 0.0
H740 H 0.96469 0.40664 0.57779 0.0
H741 H 0.06958 0.60092 0.57012 0.0
H742 H 0.96187 0.49808 0.58063 0.0
H743 H 0.07002 0.51282 0.57726 0.0
C744 C 0.04768 0.46028 0.57816 0.0
C745 C 0.01823 0.42961 0.5785 0.0
C746 C 0.98544 0.52074 0.57852 0.0
C747 C 0.01624 0.48872 0.57668 0.0
C748 C 0.98621 0.55121 0.57793 0.0
C749 C 0.01657 0.58094 0.57528 0.0
C750 C 0.01522 0.52008 0.57633 0.0
C751 C 0.04563 0.57895 0.57318 0.0
C752 C 0.0468 0.48963 0.57712 0.0
C753 C 0.98804 0.42965 0.57763 0.0
N754 N 0.04417 0.54921 0.57375 0.0
N755 N 0.9878 0.45878 0.57681 0.0
H756 H 0.5874 0.01354 0.70697 0.0
H757 H 0.43426 0.0097 0.79601 0.0
H758 H 0.57096 0.99595 0.80746 0.0
H759 H 0.43882 1.00031 0.69468 0.0
H760 H 0.48514 0.00652 0.80129 0.0
H761 H 0.53345 0.0102 0.70223 0.0
C762 C 0.57226 0.00866 0.72797 0.0
C763 C 0.58358 1.00487 0.7576 0.0
C764 C 0.47474 1.00482 0.77795 0.0
C765 C 0.52205 1.00149 0.75252 0.0
C766 C 0.44583 0.00676 0.77495 0.0
C767 C 0.4321 1.00496 0.74492 0.0
C768 C 0.49029 1.00163 0.75068 0.0
C769 C 0.44814 1.00119 0.71837 0.0
C770 C 0.54147 0.00672 0.72529 0.0
C771 C 0.56297 0.99858 0.78409 0.0
N772 N 0.47641 0.99987 0.72186 0.0
N773 N 0.53334 0.99741 0.78099 0.0
H774 H 0.57092 0.58482 0.87323 0.0
H775 H 0.42206 0.42962 0.96083 0.0
H776 H 0.5708 0.56694 0.97358 0.0
H777 H 0.43556 0.43647 0.85938 0.0
H778 H 0.47539 0.48098 0.96646 0.0
H779 H 0.5201 0.53126 0.86785 0.0
C780 C 0.56031 0.56951 0.89406 0.0
C781 C 0.5752 0.58026 0.92383 0.0
C782 C 0.46675 0.47103 0.943 0.0
C783 C 0.5169 0.51914 0.91801 0.0
C784 C 0.4363 0.44183 0.9398 0.0
C785 C 0.42449 0.42857 0.90964 0.0
C786 C 0.48522 0.48733 0.9158 0.0
C787 C 0.44395 0.44543 0.88315 0.0
C788 C 0.53136 0.53892 0.89101 0.0
C789 C 0.56042 0.5594 0.95009 0.0
N790 N 0.47319 0.47395 0.88684 0.0
N791 N 0.53196 0.52998 0.94661 0.0
H792 H 0.99575 0.43105 0.12025 0.0
H793 H 0.9984 0.58409 0.03158 0.0
H794 H 0.01238 0.44773 0.01967 0.0
H795 H 1.00878 0.57976 0.13281 0.0
H796 H 1.00081 0.53285 0.02625 0.0
H797 H 0.99798 0.48449 0.12514 0.0
C798 C 1.00009 0.44608 0.09925 0.0
C799 C 1.00408 0.43502 0.06957 0.0
C800 C 1.00286 0.54334 0.04958 0.0
C801 C 1.00627 0.49599 0.07484 0.0
C802 C 1.00137 0.57248 0.05261 0.0
C803 C 1.00373 0.58641 0.08262 0.0
C804 C 1.00615 0.52776 0.0768 0.0
C805 C 1.00749 0.57028 0.10913 0.0
C806 C 1.00143 0.47659 0.10203 0.0
C807 C 0.00966 0.45551 0.04309 0.0
N808 N 1.00838 0.54179 0.10562 0.0
N809 N 0.01033 0.48487 0.04631 0.0
H810 H 0.43056 0.96667 0.29216 0.0
H811 H 0.60393 0.04269 0.20757 0.0
H812 H 0.46413 0.05098 0.23019 0.0
H813 H 0.58428 0.99297 0.29811 0.0
H814 H 0.55345 0.04591 0.21356 0.0
H815 H 0.48631 0.97406 0.29209 0.0
C816 C 0.44983 0.98675 0.27849 0.0
C817 C 0.44291 0.00809 0.26091 0.0
C818 C 0.56053 0.03477 0.23229 0.0
C819 C 0.50667 0.0167 0.26062 0.0
C820 C 0.58953 0.03311 0.22906 0.0
C821 C 0.59839 0.01717 0.25223 0.0
C822 C 0.53993 0.01993 0.2586 0.0
C823 C 0.57818 1.00476 0.27925 0.0
C824 C 0.48165 0.99113 0.27864 0.0
C825 C 0.46866 0.03398 0.24388 0.0
N826 N 0.54969 0.00594 0.28143 0.0
N827 N 0.49946 0.03735 0.2438 0.0
H828 H 0.37637 0.40517 0.74042 0.0
H829 H 0.31287 0.28849 0.58738 0.0
H830 H 0.28847 0.30871 0.74008 0.0
H831 H 0.40026 0.38529 0.58895 0.0
H832 H 0.30241 0.2957 0.64279 0.0
H833 H 0.38466 0.3985 0.6845 0.0
C834 C 0.35868 0.38264 0.72857 0.0
C835 C 0.33167 0.35749 0.74507 0.0
C836 C 0.32385 0.31538 0.63096 0.0
C837 C 0.34119 0.3495 0.68089 0.0
C838 C 0.32972 0.31136 0.59925 0.0
C839 C 0.35759 0.33627 0.58348 0.0
C840 C 0.34597 0.34454 0.64699 0.0
C841 C 0.37879 0.36521 0.60025 0.0
C842 C 0.36352 0.37877 0.69662 0.0
C843 C 0.30987 0.32858 0.72849 0.0
N844 N 0.37256 0.36851 0.63105 0.0
N845 N 0.3151 0.32539 0.69732 0.0
H846 H 0.02673 0.3998 0.74733 0.0
H847 H 0.98899 0.29093 0.90499 0.0
H848 H 0.02961 0.30874 0.75073 0.0
H849 H 0.98999 0.38391 0.90015 0.0
H850 H 1.00385 0.2965 0.84877 0.0
H851 H 0.01263 0.39362 0.8034 0.0
C852 C 0.02452 0.37854 0.75989 0.0
C853 C 0.02954 0.35485 0.74426 0.0
C854 C 1.00083 0.31567 0.86007 0.0
C855 C 0.01306 0.34741 0.80869 0.0
C856 C 0.99256 0.31262 0.89222 0.0
C857 C 0.98812 0.33695 0.90734 0.0
C858 C 1.00472 0.34326 0.84294 0.0
C859 C 0.99264 0.3643 0.88943 0.0
C860 C 0.01631 0.37493 0.79195 0.0
C861 C 0.02567 0.32744 0.76171 0.0
N862 N 1.00064 0.36668 0.85825 0.0
N863 N 0.01775 0.32451 0.79304 0.0
H864 H 0.72798 0.02953 0.92299 0.0
H865 H 0.62095 1.00062 0.08024 0.0
H866 H 0.63495 0.02872 0.92574 0.0
H867 H 0.70766 0.98976 0.07736 0.0
H868 H 0.62744 0.01335 0.02386 0.0
H869 H 0.72235 0.01656 0.97961 0.0
C870 C 0.70626 0.0264 0.93537 0.0
C871 C 0.68194 0.03036 0.91952 0.0
C872 C 0.64509 0.00819 0.03552 0.0
C873 C 0.67562 0.01599 0.98441 0.0
C874 C 0.64131 1.00079 0.06775 0.0
C875 C 0.66365 0.99388 0.08361 0.0
C876 C 0.67147 0.00879 0.01886 0.0
C877 C 0.69001 0.9952 0.06623 0.0
C878 C 0.70318 0.0192 0.96776 0.0
C879 C 0.65458 0.02646 0.93698 0.0
N880 N 0.69314 1.00242 0.03474 0.0
N881 N 0.65221 0.01956 0.96843 0.0
H882 H 0.60409 0.62694 0.09227 0.0
H883 H 0.72059 0.69666 0.24481 0.0
H884 H 0.69795 0.718 0.09143 0.0
H885 H 0.62116 0.61312 0.24627 0.0
H886 H 0.71412 0.70424 0.18845 0.0
H887 H 0.61158 0.62037 0.14833 0.0
C888 C 0.62625 0.64566 0.10388 0.0
C889 C 0.65029 0.6732 0.08707 0.0
C890 C 0.69374 0.68429 0.20117 0.0
C891 C 0.65924 0.66564 0.15148 0.0
C892 C 0.69731 0.68006 0.23343 0.0
C893 C 0.67138 0.65413 0.25041 0.0
C894 C 0.66405 0.6624 0.18575 0.0
C895 C 0.642 0.63311 0.23415 0.0
C896 C 0.63058 0.64182 0.13594 0.0
C897 C 0.67888 0.69625 0.10332 0.0
N898 N 0.63918 0.63768 0.20279 0.0
N899 N 0.68252 0.692 0.13467 0.0
H900 H 0.98576 0.69974 0.25385 0.0
H901 H 0.02022 0.61644 0.40415 0.0
H902 H 0.98062 0.60471 0.25091 0.0
H903 H 0.03193 0.71433 0.40461 0.0
H904 H 1.00429 0.61094 0.3484 0.0
H905 H 1.00143 0.70484 0.3095 0.0
C906 C 0.98814 0.68002 0.26479 0.0
C907 C 0.98196 0.65178 0.24754 0.0
C908 C 0.01031 0.6336 0.36074 0.0
C909 C 0.9995 0.6573 0.31156 0.0
C910 C 0.01956 0.63682 0.39255 0.0
C911 C 0.02743 0.66588 0.40919 0.0
C912 C 1.00893 0.65964 0.34539 0.0
C913 C 0.02564 0.69129 0.39298 0.0
C914 C 0.9969 0.68287 0.29669 0.0
C915 C 0.98479 0.62675 0.2633 0.0
N916 N 0.01663 0.68758 0.36201 0.0
N917 N 0.99339 0.63011 0.2944 0.0
H918 H 0.41377 0.03256 0.57563 0.0
H919 H 0.30055 0.98726 0.42054 0.0
H920 H 0.31929 0.02873 0.57373 0.0
H921 H 0.39676 0.99492 0.42258 0.0
H922 H 0.3071 1.00327 0.47632 0.0
H923 H 0.40801 0.0193 0.51932 0.0
C924 C 0.39188 0.02911 0.56337 0.0
C925 C 0.36699 0.03177 0.57954 0.0
C926 C 0.3268 1.0015 0.46452 0.0
C927 C 0.36004 0.01623 0.51494 0.0
C928 C 0.32316 0.99256 0.43259 0.0
C929 C 0.34809 0.98959 0.41681 0.0
C930 C 0.35557 0.00755 0.48081 0.0
C931 C 0.37666 0.99634 0.43385 0.0
C932 C 0.38852 0.02137 0.5312 0.0
C933 C 0.3389 0.02649 0.56242 0.0
N934 N 0.37958 1.00494 0.46489 0.0
N935 N 0.3362 0.01898 0.53106 0.0
loop_
_geom_bond_atom_site_label_1
_geom_bond_atom_site_label_2
_geom_bond_distance
_geom_bond_site_symmetry_2
_ccdc_geom_bond_type
C0 C1 1.351 . S
C0 N3 1.368 . S
C0 H5 0.931 . S
C1 C0 1.351 . S
C1 N2 1.373 . S
C1 H29 0.930 . S
N2 C1 1.373 . S
N2 C4 1.340 . S
N3 C0 1.368 . S
N3 C4 1.321 . S
N3 Co6 2.135 . S
C4 N2 1.340 . S
C4 N3 1.321 . S
C4 H28 0.930 . S
H5 C0 0.931 . S
Co6 N3 2.135 . S
Co6 N9 2.121 . S
Co6 O14 2.055 . S
Co6 O17 2.039 . S
Co6 N20 2.140 . S
C7 O8 1.227 . S
C7 O17 1.265 . S
O8 C7 1.227 . S
N9 Co6 2.121 . S
N9 C11 1.375 . S
N9 C12 1.313 . S
C10 C11 1.338 . S
C10 N13 1.377 . S
C10 H30 0.930 . S
C11 N9 1.375 . S
C11 C10 1.338 . S
C11 H15 0.931 . S
C12 N9 1.313 . S
C12 N13 1.344 . S
C12 H16 0.930 . S
N13 C10 1.377 . S
N13 C12 1.344 . S
O14 Co6 2.055 . S
O14 C18 1.253 . S
H15 C11 0.931 . S
H16 C12 0.930 . S
O17 Co6 2.039 . S
O17 C7 1.265 . S
C18 O14 1.253 . S
C18 O19 1.227 . S
O19 C18 1.227 . S
N20 Co6 2.140 . S
N20 C23 1.346 . S
N20 C24 1.345 . S
C21 C22 1.387 . S
C21 C25 1.391 . S
C22 C21 1.387 . S
C22 C23 1.369 . S
C22 H31 0.929 . S
C23 N20 1.346 . S
C23 C22 1.369 . S
C23 H26 0.928 . S
C24 N20 1.345 . S
C24 C25 1.371 . S
C24 H27 0.931 . S
C25 C21 1.391 . S
C25 C24 1.371 . S
C25 H32 0.930 . S
H26 C23 0.928 . S
H27 C24 0.931 . S
H28 C4 0.930 . S
H29 C1 0.930 . S
H30 C10 0.930 . S
H31 C22 0.929 . S
H32 C25 0.930 . S
C33 C34 1.351 . S
C33 N36 1.368 . S
C33 H38 0.931 . S
C34 C33 1.351 . S
C34 N35 1.373 . S
C34 H62 0.930 . S
N35 C34 1.373 . S
N35 C37 1.340 . S
N36 C33 1.368 . S
N36 C37 1.321 . S
N36 Co39 2.135 . S
C37 N35 1.340 . S
C37 N36 1.321 . S
C37 H61 0.930 1_455 S
H38 C33 0.931 . S
Co39 N36 2.135 . S
Co39 N42 2.121 . S
Co39 O47 2.055 . S
Co39 O50 2.039 . S
Co39 N53 2.140 . S
C40 O41 1.227 . S
C40 O50 1.265 1_655 S
O41 C40 1.227 . S
N42 Co39 2.121 . S
N42 C44 1.375 . S
N42 C45 1.313 . S
C43 C44 1.338 . S
C43 N46 1.377 . S
C43 H63 0.930 . S
C44 N42 1.375 . S
C44 C43 1.338 . S
C44 H48 0.931 . S
C45 N42 1.313 . S
C45 N46 1.344 . S
C45 H49 0.930 . S
N46 C43 1.377 . S
N46 C45 1.344 . S
O47 Co39 2.055 . S
O47 C51 1.253 . S
H48 C44 0.931 . S
H49 C45 0.930 . S
O50 Co39 2.039 . S
O50 C40 1.265 1_455 S
C51 O47 1.253 . S
C51 O52 1.227 . S
O52 C51 1.227 . S
N53 Co39 2.140 . S
N53 C56 1.346 . S
N53 C57 1.345 . S
C54 C55 1.387 . S
C54 C58 1.391 . S
C55 C54 1.387 . S
C55 C56 1.369 . S
C55 H64 0.929 . S
C56 N53 1.346 . S
C56 C55 1.369 . S
C56 H59 0.928 . S
C57 N53 1.345 . S
C57 C58 1.371 . S
C57 H60 0.931 . S
C58 C54 1.391 . S
C58 C57 1.371 . S
C58 H65 0.930 . S
H59 C56 0.928 . S
H60 C57 0.931 . S
H61 C37 0.930 1_655 S
H62 C34 0.930 . S
H63 C43 0.930 . S
H64 C55 0.929 . S
H65 C58 0.930 . S
C66 C67 1.351 . S
C66 N69 1.368 . S
C66 H71 0.931 . S
C67 C66 1.351 . S
C67 N68 1.373 . S
C67 H95 0.930 . S
N68 C67 1.373 . S
N68 C70 1.340 . S
N69 C66 1.368 . S
N69 C70 1.321 . S
N69 Co72 2.135 . S
C70 N68 1.340 . S
C70 N69 1.321 . S
C70 H94 0.930 1_545 S
H71 C66 0.931 . S
Co72 N69 2.135 . S
Co72 N75 2.121 . S
Co72 O80 2.055 . S
Co72 O83 2.039 . S
Co72 N86 2.140 . S
C73 O74 1.227 . S
C73 O83 1.265 1_565 S
O74 C73 1.227 . S
N75 Co72 2.121 . S
N75 C77 1.375 . S
N75 C78 1.313 . S
C76 C77 1.338 . S
C76 N79 1.377 . S
C76 H96 0.930 . S
C77 N75 1.375 . S
C77 C76 1.338 . S
C77 H81 0.931 . S
C78 N75 1.313 . S
C78 N79 1.344 . S
C78 H82 0.930 . S
N79 C76 1.377 . S
N79 C78 1.344 . S
O80 Co72 2.055 . S
O80 C84 1.253 . S
H81 C77 0.931 . S
H82 C78 0.930 . S
O83 Co72 2.039 . S
O83 C73 1.265 1_545 S
C84 O80 1.253 . S
C84 O85 1.227 . S
O85 C84 1.227 . S
N86 Co72 2.140 . S
N86 C89 1.346 . S
N86 C90 1.345 . S
C87 C88 1.387 . S
C87 C91 1.391 . S
C88 C87 1.387 . S
C88 C89 1.369 . S
C88 H97 0.929 . S
C89 N86 1.346 . S
C89 C88 1.369 . S
C89 H92 0.928 . S
C90 N86 1.345 . S
C90 C91 1.371 . S
C90 H93 0.931 . S
C91 C87 1.391 . S
C91 C90 1.371 . S
C91 H98 0.930 . S
H92 C89 0.928 . S
H93 C90 0.931 . S
H94 C70 0.930 1_565 S
H95 C67 0.930 . S
H96 C76 0.930 . S
H97 C88 0.929 . S
H98 C91 0.930 . S
C99 C100 1.351 . S
C99 N102 1.368 . S
C99 H104 0.931 . S
C100 C99 1.351 . S
C100 N101 1.373 . S
C100 H128 0.930 . S
N101 C100 1.373 . S
N101 C103 1.340 . S
N102 C99 1.368 . S
N102 C103 1.321 . S
N102 Co105 2.135 1_554 S
C103 N101 1.340 . S
C103 N102 1.321 . S
C103 H127 0.930 . S
H104 C99 0.931 . S
Co105 N102 2.135 1_556 S
Co105 N108 2.121 . S
Co105 O113 2.055 1_556 S
Co105 O116 2.039 . S
Co105 N119 2.140 . S
C106 O107 1.227 . S
C106 O116 1.265 . S
O107 C106 1.227 . S
N108 Co105 2.121 . S
N108 C110 1.375 . S
N108 C111 1.313 . S
C109 C110 1.338 . S
C109 N112 1.377 . S
C109 H129 0.930 . S
C110 N108 1.375 . S
C110 C109 1.338 . S
C110 H114 0.931 . S
C111 N108 1.313 . S
C111 N112 1.344 . S
C111 H115 0.930 . S
N112 C109 1.377 . S
N112 C111 1.344 . S
O113 Co105 2.055 1_554 S
O113 C117 1.253 . S
H114 C110 0.931 . S
H115 C111 0.930 . S
O116 Co105 2.039 . S
O116 C106 1.265 . S
C117 O113 1.253 . S
C117 O118 1.227 1_554 S
O118 C117 1.227 1_556 S
N119 Co105 2.140 . S
N119 C122 1.346 . S
N119 C123 1.345 . S
C120 C121 1.387 . S
C120 C124 1.391 . S
C121 C120 1.387 . S
C121 C122 1.369 . S
C121 H130 0.929 . S
C122 N119 1.346 . S
C122 C121 1.369 . S
C122 H125 0.928 . S
C123 N119 1.345 . S
C123 C124 1.371 . S
C123 H126 0.931 . S
C124 C120 1.391 . S
C124 C123 1.371 . S
C124 H131 0.930 . S
H125 C122 0.928 . S
H126 C123 0.931 . S
H127 C103 0.930 . S
H128 C100 0.930 . S
H129 C109 0.930 . S
H130 C121 0.929 . S
H131 C124 0.930 . S
C132 C133 1.351 . S
C132 N135 1.368 . S
C132 H137 0.931 . S
C133 C132 1.351 . S
C133 N134 1.373 . S
C133 H161 0.930 . S
N134 C133 1.373 . S
N134 C136 1.340 . S
N135 C132 1.368 . S
N135 C136 1.321 . S
N135 Co138 2.135 . S
C136 N134 1.340 . S
C136 N135 1.321 . S
C136 H160 0.930 1_655 S
H137 C132 0.931 . S
Co138 N135 2.135 . S
Co138 N141 2.121 . S
Co138 O146 2.055 . S
Co138 O149 2.039 . S
Co138 N152 2.140 . S
C139 O140 1.227 . S
C139 O149 1.265 1_455 S
O140 C139 1.227 . S
N141 Co138 2.121 . S
N141 C143 1.375 . S
N141 C144 1.313 . S
C142 C143 1.338 . S
C142 N145 1.377 . S
C142 H162 0.930 . S
C143 N141 1.375 . S
C143 C142 1.338 . S
C143 H147 0.931 . S
C144 N141 1.313 . S
C144 N145 1.344 . S
C144 H148 0.930 . S
N145 C142 1.377 . S
N145 C144 1.344 . S
O146 Co138 2.055 . S
O146 C150 1.253 . S
H147 C143 0.931 . S
H148 C144 0.930 . S
O149 Co138 2.039 . S
O149 C139 1.265 1_655 S
C150 O146 1.253 . S
C150 O151 1.227 . S
O151 C150 1.227 . S
N152 Co138 2.140 . S
N152 C155 1.346 . S
N152 C156 1.345 . S
C153 C154 1.387 . S
C153 C157 1.391 . S
C154 C153 1.387 . S
C154 C155 1.369 . S
C154 H163 0.929 . S
C155 N152 1.346 . S
C155 C154 1.369 . S
C155 H158 0.928 . S
C156 N152 1.345 . S
C156 C157 1.371 . S
C156 H159 0.931 . S
C157 C153 1.391 . S
C157 C156 1.371 . S
C157 H164 0.930 . S
H158 C155 0.928 . S
H159 C156 0.931 . S
H160 C136 0.930 1_455 S
H161 C133 0.930 . S
H162 C142 0.930 . S
H163 C154 0.929 . S
H164 C157 0.930 . S
C165 C166 1.351 . S
C165 N168 1.368 . S
C165 H170 0.931 . S
C166 C165 1.351 . S
C166 N167 1.373 . S
C166 H194 0.930 . S
N167 C166 1.373 . S
N167 C169 1.340 . S
N168 C165 1.368 . S
N168 C169 1.321 . S
N168 Co171 2.135 . S
C169 N167 1.340 . S
C169 N168 1.321 . S
C169 H193 0.930 1_565 S
H170 C165 0.931 . S
Co171 N168 2.135 . S
Co171 N174 2.121 . S
Co171 O179 2.055 . S
Co171 O182 2.039 . S
Co171 N185 2.140 . S
C172 O173 1.227 . S
C172 O182 1.265 1_545 S
O173 C172 1.227 . S
N174 Co171 2.121 . S
N174 C176 1.375 . S
N174 C177 1.313 . S
C175 C176 1.338 . S
C175 N178 1.377 . S
C175 H195 0.930 . S
C176 N174 1.375 . S
C176 C175 1.338 . S
C176 H180 0.931 . S
C177 N174 1.313 . S
C177 N178 1.344 . S
C177 H181 0.930 . S
N178 C175 1.377 . S
N178 C177 1.344 . S
O179 Co171 2.055 . S
O179 C183 1.253 . S
H180 C176 0.931 . S
H181 C177 0.930 . S
O182 Co171 2.039 . S
O182 C172 1.265 1_565 S
C183 O179 1.253 . S
C183 O184 1.227 . S
O184 C183 1.227 . S
N185 Co171 2.140 . S
N185 C188 1.346 . S
N185 C189 1.345 . S
C186 C187 1.387 . S
C186 C190 1.391 . S
C187 C186 1.387 . S
C187 C188 1.369 . S
C187 H196 0.929 . S
C188 N185 1.346 . S
C188 C187 1.369 . S
C188 H191 0.928 . S
C189 N185 1.345 . S
C189 C190 1.371 . S
C189 H192 0.931 . S
C190 C186 1.391 . S
C190 C189 1.371 . S
C190 H197 0.930 . S
H191 C188 0.928 . S
H192 C189 0.931 . S
H193 C169 0.930 1_545 S
H194 C166 0.930 . S
H195 C175 0.930 . S
H196 C187 0.929 . S
H197 C190 0.930 . S
C198 C199 1.351 . S
C198 N201 1.368 . S
C198 H203 0.931 . S
C199 C198 1.351 . S
C199 N200 1.373 . S
C199 H227 0.930 . S
N200 C199 1.373 . S
N200 C202 1.340 . S
N201 C198 1.368 . S
N201 C202 1.321 . S
N201 Co204 2.135 . S
C202 N200 1.340 . S
C202 N201 1.321 . S
C202 H226 0.930 . S
H203 C198 0.931 . S
Co204 N201 2.135 . S
Co204 N207 2.121 . S
Co204 O212 2.055 . S
Co204 O215 2.039 . S
Co204 N218 2.140 . S
C205 O206 1.227 . S
C205 O215 1.265 . S
O206 C205 1.227 . S
N207 Co204 2.121 . S
N207 C209 1.375 . S
N207 C210 1.313 . S
C208 C209 1.338 . S
C208 N211 1.377 . S
C208 H228 0.930 . S
C209 N207 1.375 . S
C209 C208 1.338 . S
C209 H213 0.931 . S
C210 N207 1.313 . S
C210 N211 1.344 . S
C210 H214 0.930 . S
N211 C208 1.377 . S
N211 C210 1.344 . S
O212 Co204 2.055 . S
O212 C216 1.253 . S
H213 C209 0.931 . S
H214 C210 0.930 . S
O215 Co204 2.039 . S
O215 C205 1.265 . S
C216 O212 1.253 . S
C216 O217 1.227 . S
O217 C216 1.227 . S
N218 Co204 2.140 . S
N218 C221 1.346 . S
N218 C222 1.345 . S
C219 C220 1.387 . S
C219 C223 1.391 . S
C220 C219 1.387 . S
C220 C221 1.369 . S
C220 H229 0.929 . S
C221 N218 1.346 . S
C221 C220 1.369 . S
C221 H224 0.928 . S
C222 N218 1.345 . S
C222 C223 1.371 . S
C222 H225 0.931 . S
C223 C219 1.391 . S
C223 C222 1.371 . S
C223 H230 0.930 . S
H224 C221 0.928 . S
H225 C222 0.931 . S
H226 C202 0.930 . S
H227 C199 0.930 . S
H228 C208 0.930 . S
H229 C220 0.929 . S
H230 C223 0.930 . S
C231 C232 1.351 . S
C231 N234 1.368 . S
C231 H236 0.931 . S
C232 C231 1.351 . S
C232 N233 1.373 . S
C232 H260 0.930 . S
N233 C232 1.373 . S
N233 C235 1.340 . S
N234 C231 1.368 . S
N234 C235 1.321 . S
N234 Co237 2.135 . S
C235 N233 1.340 . S
C235 N234 1.321 . S
C235 H259 0.930 1_455 S
H236 C231 0.931 . S
Co237 N234 2.135 . S
Co237 N240 2.121 . S
Co237 O245 2.055 . S
Co237 O248 2.039 . S
Co237 N251 2.140 . S
C238 O239 1.227 . S
C238 O248 1.265 1_655 S
O239 C238 1.227 . S
N240 Co237 2.121 . S
N240 C242 1.375 . S
N240 C243 1.313 . S
C241 C242 1.338 . S
C241 N244 1.377 . S
C241 H261 0.930 . S
C242 N240 1.375 . S
C242 C241 1.338 . S
C242 H246 0.931 . S
C243 N240 1.313 . S
C243 N244 1.344 . S
C243 H247 0.930 . S
N244 C241 1.377 . S
N244 C243 1.344 . S
O245 Co237 2.055 . S
O245 C249 1.253 . S
H246 C242 0.931 . S
H247 C243 0.930 . S
O248 Co237 2.039 . S
O248 C238 1.265 1_455 S
C249 O245 1.253 . S
C249 O250 1.227 . S
O250 C249 1.227 . S
N251 Co237 2.140 . S
N251 C254 1.346 . S
N251 C255 1.345 . S
C252 C253 1.387 . S
C252 C256 1.391 . S
C253 C252 1.387 . S
C253 C254 1.369 . S
C253 H262 0.929 . S
C254 N251 1.346 . S
C254 C253 1.369 . S
C254 H257 0.928 . S
C255 N251 1.345 . S
C255 C256 1.371 . S
C255 H258 0.931 . S
C256 C252 1.391 . S
C256 C255 1.371 . S
C256 H263 0.930 . S
H257 C254 0.928 . S
H258 C255 0.931 . S
H259 C235 0.930 1_655 S
H260 C232 0.930 . S
H261 C241 0.930 . S
H262 C253 0.929 . S
H263 C256 0.930 . S
C264 C265 1.351 . S
C264 N267 1.368 . S
C264 H269 0.931 . S
C265 C264 1.351 . S
C265 N266 1.373 . S
C265 H293 0.930 . S
N266 C265 1.373 . S
N266 C268 1.340 . S
N267 C264 1.368 . S
N267 C268 1.321 . S
N267 Co270 2.135 . S
C268 N266 1.340 . S
C268 N267 1.321 . S
C268 H292 0.930 1_545 S
H269 C264 0.931 . S
Co270 N267 2.135 . S
Co270 N273 2.121 . S
Co270 O278 2.055 . S
Co270 O281 2.039 . S
Co270 N284 2.140 . S
C271 O272 1.227 . S
C271 O281 1.265 1_565 S
O272 C271 1.227 . S
N273 Co270 2.121 . S
N273 C275 1.375 . S
N273 C276 1.313 . S
C274 C275 1.338 . S
C274 N277 1.377 . S
C274 H294 0.930 . S
C275 N273 1.375 . S
C275 C274 1.338 . S
C275 H279 0.931 . S
C276 N273 1.313 . S
C276 N277 1.344 . S
C276 H280 0.930 . S
N277 C274 1.377 . S
N277 C276 1.344 . S
O278 Co270 2.055 . S
O278 C282 1.253 . S
H279 C275 0.931 . S
H280 C276 0.930 . S
O281 Co270 2.039 . S
O281 C271 1.265 1_545 S
C282 O278 1.253 . S
C282 O283 1.227 . S
O283 C282 1.227 . S
N284 Co270 2.140 . S
N284 C287 1.346 . S
N284 C288 1.345 . S
C285 C286 1.387 . S
C285 C289 1.391 . S
C286 C285 1.387 . S
C286 C287 1.369 . S
C286 H295 0.929 . S
C287 N284 1.346 . S
C287 C286 1.369 . S
C287 H290 0.928 . S
C288 N284 1.345 . S
C288 C289 1.371 . S
C288 H291 0.931 . S
C289 C285 1.391 . S
C289 C288 1.371 . S
C289 H296 0.930 . S
H290 C287 0.928 . S
H291 C288 0.931 . S
H292 C268 0.930 1_565 S
H293 C265 0.930 . S
H294 C274 0.930 . S
H295 C286 0.929 . S
H296 C289 0.930 . S
C297 C298 1.351 . S
C297 N300 1.368 . S
C297 H302 0.931 . S
C298 C297 1.351 . S
C298 N299 1.373 . S
C298 H326 0.930 . S
N299 C298 1.373 . S
N299 C301 1.340 . S
N300 C297 1.368 . S
N300 C301 1.321 . S
N300 Co303 2.135 . S
C301 N299 1.340 . S
C301 N300 1.321 . S
C301 H325 0.930 . S
H302 C297 0.931 . S
Co303 N300 2.135 . S
Co303 N306 2.121 . S
Co303 O311 2.055 . S
Co303 O314 2.039 . S
Co303 N317 2.140 . S
C304 O305 1.227 . S
C304 O314 1.265 . S
O305 C304 1.227 . S
N306 Co303 2.121 . S
N306 C308 1.375 . S
N306 C309 1.313 . S
C307 C308 1.338 . S
C307 N310 1.377 . S
C307 H327 0.930 . S
C308 N306 1.375 . S
C308 C307 1.338 . S
C308 H312 0.931 . S
C309 N306 1.313 . S
C309 N310 1.344 . S
C309 H313 0.930 . S
N310 C307 1.377 . S
N310 C309 1.344 . S
O311 Co303 2.055 . S
O311 C315 1.253 . S
H312 C308 0.931 . S
H313 C309 0.930 . S
O314 Co303 2.039 . S
O314 C304 1.265 . S
C315 O311 1.253 . S
C315 O316 1.227 . S
O316 C315 1.227 . S
N317 Co303 2.140 . S
N317 C320 1.346 . S
N317 C321 1.345 . S
C318 C319 1.387 . S
C318 C322 1.391 . S
C319 C318 1.387 . S
C319 C320 1.369 . S
C319 H328 0.929 . S
C320 N317 1.346 . S
C320 C319 1.369 . S
C320 H323 0.928 . S
C321 N317 1.345 . S
C321 C322 1.371 . S
C321 H324 0.931 . S
C322 C318 1.391 . S
C322 C321 1.371 . S
C322 H329 0.930 . S
H323 C320 0.928 . S
H324 C321 0.931 . S
H325 C301 0.930 . S
H326 C298 0.930 . S
H327 C307 0.930 . S
H328 C319 0.929 . S
H329 C322 0.930 . S
C330 C331 1.351 . S
C330 N333 1.368 . S
C330 H335 0.931 . S
C331 C330 1.351 . S
C331 N332 1.373 . S
C331 H359 0.930 . S
N332 C331 1.373 . S
N332 C334 1.340 . S
N333 C330 1.368 . S
N333 C334 1.321 . S
N333 Co336 2.135 1_556 S
C334 N332 1.340 . S
C334 N333 1.321 . S
C334 H358 0.930 1_655 S
H335 C330 0.931 . S
Co336 N333 2.135 1_554 S
Co336 N339 2.121 . S
Co336 O344 2.055 1_554 S
Co336 O347 2.039 . S
Co336 N350 2.140 . S
C337 O338 1.227 . S
C337 O347 1.265 1_455 S
O338 C337 1.227 . S
N339 Co336 2.121 . S
N339 C341 1.375 . S
N339 C342 1.313 . S
C340 C341 1.338 . S
C340 N343 1.377 . S
C340 H360 0.930 . S
C341 N339 1.375 . S
C341 C340 1.338 . S
C341 H345 0.931 . S
C342 N339 1.313 . S
C342 N343 1.344 . S
C342 H346 0.930 . S
N343 C340 1.377 . S
N343 C342 1.344 . S
O344 Co336 2.055 1_556 S
O344 C348 1.253 . S
H345 C341 0.931 . S
H346 C342 0.930 . S
O347 Co336 2.039 . S
O347 C337 1.265 1_655 S
C348 O344 1.253 . S
C348 O349 1.227 1_556 S
O349 C348 1.227 1_554 S
N350 Co336 2.140 . S
N350 C353 1.346 . S
N350 C354 1.345 . S
C351 C352 1.387 . S
C351 C355 1.391 . S
C352 C351 1.387 . S
C352 C353 1.369 . S
C352 H361 0.929 . S
C353 N350 1.346 . S
C353 C352 1.369 . S
C353 H356 0.928 . S
C354 N350 1.345 . S
C354 C355 1.371 . S
C354 H357 0.931 . S
C355 C351 1.391 . S
C355 C354 1.371 . S
C355 H362 0.930 . S
H356 C353 0.928 . S
H357 C354 0.931 . S
H358 C334 0.930 1_455 S
H359 C331 0.930 . S
H360 C340 0.930 . S
H361 C352 0.929 . S
H362 C355 0.930 . S
C363 C364 1.351 . S
C363 N366 1.368 . S
C363 H368 0.931 . S
C364 C363 1.351 . S
C364 N365 1.373 . S
C364 H392 0.930 . S
N365 C364 1.373 . S
N365 C367 1.340 . S
N366 C363 1.368 . S
N366 C367 1.321 . S
N366 Co369 2.135 . S
C367 N365 1.340 . S
C367 N366 1.321 . S
C367 H391 0.930 1_565 S
H368 C363 0.931 . S
Co369 N366 2.135 . S
Co369 N372 2.121 . S
Co369 O377 2.055 . S
Co369 O380 2.039 . S
Co369 N383 2.140 . S
C370 O371 1.227 . S
C370 O380 1.265 1_545 S
O371 C370 1.227 . S
N372 Co369 2.121 . S
N372 C374 1.375 . S
N372 C375 1.313 . S
C373 C374 1.338 . S
C373 N376 1.377 . S
C373 H393 0.930 . S
C374 N372 1.375 . S
C374 C373 1.338 . S
C374 H378 0.931 . S
C375 N372 1.313 . S
C375 N376 1.344 . S
C375 H379 0.930 . S
N376 C373 1.377 . S
N376 C375 1.344 . S
O377 Co369 2.055 . S
O377 C381 1.253 . S
H378 C374 0.931 . S
H379 C375 0.930 . S
O380 Co369 2.039 . S
O380 C370 1.265 1_565 S
C381 O377 1.253 . S
C381 O382 1.227 . S
O382 C381 1.227 . S
N383 Co369 2.140 . S
N383 C386 1.346 . S
N383 C387 1.345 . S
C384 C385 1.387 . S
C384 C388 1.391 . S
C385 C384 1.387 . S
C385 C386 1.369 . S
C385 H394 0.929 . S
C386 N383 1.346 . S
C386 C385 1.369 . S
C386 H389 0.928 . S
C387 N383 1.345 . S
C387 C388 1.371 . S
C387 H390 0.931 . S
C388 C384 1.391 . S
C388 C387 1.371 . S
C388 H395 0.930 . S
H389 C386 0.928 . S
H390 C387 0.931 . S
H391 C367 0.930 1_545 S
H392 C364 0.930 . S
H393 C373 0.930 . S
H394 C385 0.929 . S
H395 C388 0.930 . S
H396 C402 0.930 . S
H397 C406 0.930 . S
H398 C411 0.929 . S
H399 C409 0.929 . S
H400 C404 0.929 . S
H401 C410 0.929 . S
C402 H396 0.930 . S
C402 C403 1.367 . S
C402 C410 1.378 . S
C403 C402 1.367 . S
C403 C411 1.433 . S
C404 H400 0.929 . S
C404 C406 1.378 . S
C404 C408 1.350 . S
C405 C408 1.463 . S
C405 C410 1.350 . S
C405 N413 1.427 . S
C406 H397 0.930 . S
C406 C404 1.378 . S
C406 C407 1.367 . S
C407 C406 1.367 . S
C407 C409 1.433 . S
C408 C404 1.350 . S
C408 C405 1.463 . S
C408 N412 1.427 . S
C409 H399 0.929 . S
C409 C407 1.433 . S
C409 N412 1.384 . S
C410 H401 0.929 . S
C410 C402 1.378 . S
C410 C405 1.350 . S
C411 H398 0.929 . S
C411 C403 1.433 . S
C411 N413 1.384 . S
N412 C408 1.427 . S
N412 C409 1.384 . S
N413 C405 1.427 . S
N413 C411 1.384 . S
H414 C420 0.930 . S
H415 C424 0.930 . S
H416 C429 0.929 . S
H417 C427 0.929 . S
H418 C422 0.929 . S
H419 C428 0.929 . S
C420 H414 0.930 . S
C420 C421 1.367 . S
C420 C428 1.378 . S
C421 C420 1.367 . S
C421 C429 1.433 . S
C422 H418 0.929 . S
C422 C424 1.378 . S
C422 C426 1.350 . S
C423 C426 1.463 . S
C423 C428 1.350 . S
C423 N431 1.427 . S
C424 H415 0.930 . S
C424 C422 1.378 . S
C424 C425 1.367 . S
C425 C424 1.367 . S
C425 C427 1.433 . S
C426 C422 1.350 . S
C426 C423 1.463 . S
C426 N430 1.427 . S
C427 H417 0.929 . S
C427 C425 1.433 . S
C427 N430 1.384 . S
C428 H419 0.929 . S
C428 C420 1.378 . S
C428 C423 1.350 . S
C429 H416 0.929 . S
C429 C421 1.433 . S
C429 N431 1.384 . S
N430 C426 1.427 . S
N430 C427 1.384 . S
N431 C423 1.427 . S
N431 C429 1.384 . S
H432 C438 0.930 . S
H433 C442 0.930 . S
H434 C447 0.929 . S
H435 C445 0.929 1_554 S
H436 C440 0.929 . S
H437 C446 0.929 . S
C438 H432 0.930 . S
C438 C439 1.367 . S
C438 C446 1.378 . S
C439 C438 1.367 . S
C439 C447 1.433 . S
C440 H436 0.929 . S
C440 C442 1.378 . S
C440 C444 1.350 . S
C441 C444 1.463 . S
C441 C446 1.350 . S
C441 N449 1.427 . S
C442 H433 0.930 . S
C442 C440 1.378 . S
C442 C443 1.367 . S
C443 C442 1.367 . S
C443 C445 1.433 . S
C444 C440 1.350 . S
C444 C441 1.463 . S
C444 N448 1.427 . S
C445 H435 0.929 1_556 S
C445 C443 1.433 . S
C445 N448 1.384 . S
C446 H437 0.929 . S
C446 C438 1.378 . S
C446 C441 1.350 . S
C447 H434 0.929 . S
C447 C439 1.433 . S
C447 N449 1.384 . S
N448 C444 1.427 . S
N448 C445 1.384 . S
N449 C441 1.427 . S
N449 C447 1.384 . S
H450 C456 0.930 . S
H451 C460 0.930 . S
H452 C465 0.929 1_556 S
H453 C463 0.929 . S
H454 C458 0.929 . S
H455 C464 0.929 . S
C456 H450 0.930 . S
C456 C457 1.367 . S
C456 C464 1.378 . S
C457 C456 1.367 . S
C457 C465 1.433 . S
C458 H454 0.929 . S
C458 C460 1.378 . S
C458 C462 1.350 . S
C459 C462 1.463 . S
C459 C464 1.350 . S
C459 N467 1.427 . S
C460 H451 0.930 . S
C460 C458 1.378 . S
C460 C461 1.367 . S
C461 C460 1.367 . S
C461 C463 1.433 . S
C462 C458 1.350 . S
C462 C459 1.463 . S
C462 N466 1.427 . S
C463 H453 0.929 . S
C463 C461 1.433 . S
C463 N466 1.384 . S
C464 H455 0.929 . S
C464 C456 1.378 . S
C464 C459 1.350 . S
C465 H452 0.929 1_554 S
C465 C457 1.433 . S
C465 N467 1.384 . S
N466 C462 1.427 . S
N466 C463 1.384 . S
N467 C459 1.427 . S
N467 C465 1.384 . S
H468 C474 0.930 . S
H469 C478 0.930 . S
H470 C483 0.929 . S
H471 C481 0.929 . S
H472 C476 0.929 . S
H473 C482 0.929 . S
C474 H468 0.930 . S
C474 C475 1.367 . S
C474 C482 1.378 . S
C475 C474 1.367 . S
C475 C483 1.433 . S
C476 H472 0.929 . S
C476 C478 1.378 . S
C476 C480 1.350 . S
C477 C480 1.463 . S
C477 C482 1.350 . S
C477 N485 1.427 . S
C478 H469 0.930 . S
C478 C476 1.378 . S
C478 C479 1.367 . S
C479 C478 1.367 . S
C479 C481 1.433 . S
C480 C476 1.350 . S
C480 C477 1.463 . S
C480 N484 1.427 . S
C481 H471 0.929 . S
C481 C479 1.433 . S
C481 N484 1.384 . S
C482 H473 0.929 . S
C482 C474 1.378 . S
C482 C477 1.350 . S
C483 H470 0.929 . S
C483 C475 1.433 . S
C483 N485 1.384 . S
N484 C480 1.427 . S
N484 C481 1.384 . S
N485 C477 1.427 . S
N485 C483 1.384 . S
H486 C492 0.930 . S
H487 C496 0.930 . S
H488 C501 0.929 . S
H489 C499 0.929 . S
H490 C494 0.929 . S
H491 C500 0.929 . S
C492 H486 0.930 . S
C492 C493 1.367 . S
C492 C500 1.378 . S
C493 C492 1.367 . S
C493 C501 1.433 . S
C494 H490 0.929 . S
C494 C496 1.378 . S
C494 C498 1.350 . S
C495 C498 1.463 . S
C495 C500 1.350 . S
C495 N503 1.427 . S
C496 H487 0.930 . S
C496 C494 1.378 . S
C496 C497 1.367 . S
C497 C496 1.367 . S
C497 C499 1.433 . S
C498 C494 1.350 . S
C498 C495 1.463 . S
C498 N502 1.427 . S
C499 H489 0.929 . S
C499 C497 1.433 . S
C499 N502 1.384 . S
C500 H491 0.929 . S
C500 C492 1.378 . S
C500 C495 1.350 . S
C501 H488 0.929 . S
C501 C493 1.433 . S
C501 N503 1.384 . S
N502 C498 1.427 . S
N502 C499 1.384 . S
N503 C495 1.427 . S
N503 C501 1.384 . S
H504 C510 0.930 . S
H505 C514 0.930 . S
H506 C519 0.929 . S
H507 C517 0.929 . S
H508 C512 0.929 . S
H509 C518 0.929 . S
C510 H504 0.930 . S
C510 C511 1.367 . S
C510 C518 1.378 . S
C511 C510 1.367 . S
C511 C519 1.433 . S
C512 H508 0.929 . S
C512 C514 1.378 . S
C512 C516 1.350 . S
C513 C516 1.463 . S
C513 C518 1.350 . S
C513 N521 1.427 . S
C514 H505 0.930 . S
C514 C512 1.378 . S
C514 C515 1.367 . S
C515 C514 1.367 . S
C515 C517 1.433 . S
C516 C512 1.350 . S
C516 C513 1.463 . S
C516 N520 1.427 . S
C517 H507 0.929 . S
C517 C515 1.433 . S
C517 N520 1.384 . S
C518 H509 0.929 . S
C518 C510 1.378 . S
C518 C513 1.350 . S
C519 H506 0.929 . S
C519 C511 1.433 . S
C519 N521 1.384 . S
N520 C516 1.427 . S
N520 C517 1.384 . S
N521 C513 1.427 . S
N521 C519 1.384 . S
H522 C528 0.930 . S
H523 C532 0.930 . S
H524 C537 0.929 . S
H525 C535 0.929 . S
H526 C530 0.929 . S
H527 C536 0.929 . S
C528 H522 0.930 . S
C528 C529 1.367 . S
C528 C536 1.378 . S
C529 C528 1.367 . S
C529 C537 1.433 . S
C530 H526 0.929 . S
C530 C532 1.378 . S
C530 C534 1.350 . S
C531 C534 1.463 . S
C531 C536 1.350 . S
C531 N539 1.427 . S
C532 H523 0.930 . S
C532 C530 1.378 . S
C532 C533 1.367 . S
C533 C532 1.367 . S
C533 C535 1.433 . S
C534 C530 1.350 . S
C534 C531 1.463 . S
C534 N538 1.427 . S
C535 H525 0.929 . S
C535 C533 1.433 . S
C535 N538 1.384 . S
C536 H527 0.929 . S
C536 C528 1.378 . S
C536 C531 1.350 . S
C537 H524 0.929 . S
C537 C529 1.433 . S
C537 N539 1.384 . S
N538 C534 1.427 . S
N538 C535 1.384 . S
N539 C531 1.427 . S
N539 C537 1.384 . S
H540 C546 0.930 . S
H541 C550 0.930 . S
H542 C555 0.929 . S
H543 C553 0.929 . S
H544 C548 0.929 . S
H545 C554 0.929 . S
C546 H540 0.930 . S
C546 C547 1.367 . S
C546 C554 1.378 . S
C547 C546 1.367 . S
C547 C555 1.433 . S
C548 H544 0.929 . S
C548 C550 1.378 . S
C548 C552 1.350 . S
C549 C552 1.463 . S
C549 C554 1.350 . S
C549 N557 1.427 . S
C550 H541 0.930 . S
C550 C548 1.378 . S
C550 C551 1.367 . S
C551 C550 1.367 . S
C551 C553 1.433 . S
C552 C548 1.350 . S
C552 C549 1.463 . S
C552 N556 1.427 . S
C553 H543 0.929 . S
C553 C551 1.433 . S
C553 N556 1.384 . S
C554 H545 0.929 . S
C554 C546 1.378 . S
C554 C549 1.350 . S
C555 H542 0.929 . S
C555 C547 1.433 . S
C555 N557 1.384 . S
N556 C552 1.427 . S
N556 C553 1.384 . S
N557 C549 1.427 . S
N557 C555 1.384 . S
H558 C564 0.930 . S
H559 C568 0.930 . S
H560 C573 0.929 . S
H561 C571 0.929 . S
H562 C566 0.929 . S
H563 C572 0.929 . S
C564 H558 0.930 . S
C564 C565 1.367 . S
C564 C572 1.378 . S
C565 C564 1.367 . S
C565 C573 1.433 . S
C566 H562 0.929 . S
C566 C568 1.378 . S
C566 C570 1.350 . S
C567 C570 1.463 . S
C567 C572 1.350 . S
C567 N575 1.427 . S
C568 H559 0.930 . S
C568 C566 1.378 . S
C568 C569 1.367 . S
C569 C568 1.367 . S
C569 C571 1.433 . S
C570 C566 1.350 . S
C570 C567 1.463 . S
C570 N574 1.427 . S
C571 H561 0.929 . S
C571 C569 1.433 . S
C571 N574 1.384 . S
C572 H563 0.929 . S
C572 C564 1.378 . S
C572 C567 1.350 . S
C573 H560 0.929 . S
C573 C565 1.433 . S
C573 N575 1.384 . S
N574 C570 1.427 . S
N574 C571 1.384 . S
N575 C567 1.427 . S
N575 C573 1.384 . S
H576 C582 0.930 . S
H577 C586 0.930 . S
H578 C591 0.929 . S
H579 C589 0.929 . S
H580 C584 0.929 . S
H581 C590 0.929 . S
C582 H576 0.930 . S
C582 C583 1.367 . S
C582 C590 1.378 1_556 S
C583 C582 1.367 . S
C583 C591 1.433 . S
C584 H580 0.929 . S
C584 C586 1.378 . S
C584 C588 1.350 . S
C585 C588 1.463 . S
C585 C590 1.350 . S
C585 N593 1.427 . S
C586 H577 0.930 . S
C586 C584 1.378 . S
C586 C587 1.367 . S
C587 C586 1.367 . S
C587 C589 1.433 . S
C588 C584 1.350 . S
C588 C585 1.463 . S
C588 N592 1.427 . S
C589 H579 0.929 . S
C589 C587 1.433 . S
C589 N592 1.384 . S
C590 H581 0.929 . S
C590 C582 1.378 1_554 S
C590 C585 1.350 . S
C591 H578 0.929 . S
C591 C583 1.433 . S
C591 N593 1.384 1_556 S
N592 C588 1.427 . S
N592 C589 1.384 . S
N593 C585 1.427 . S
N593 C591 1.384 1_554 S
H594 C600 0.930 . S
H595 C604 0.930 . S
H596 C609 0.929 . S
H597 C607 0.929 . S
H598 C602 0.929 . S
H599 C608 0.929 . S
C600 H594 0.930 . S
C600 C601 1.367 . S
C600 C608 1.378 . S
C601 C600 1.367 . S
C601 C609 1.433 . S
C602 H598 0.929 . S
C602 C604 1.378 . S
C602 C606 1.350 . S
C603 C606 1.463 . S
C603 C608 1.350 . S
C603 N611 1.427 . S
C604 H595 0.930 . S
C604 C602 1.378 . S
C604 C605 1.367 . S
C605 C604 1.367 . S
C605 C607 1.433 . S
C606 C602 1.350 . S
C606 C603 1.463 . S
C606 N610 1.427 . S
C607 H597 0.929 . S
C607 C605 1.433 . S
C607 N610 1.384 . S
C608 H599 0.929 . S
C608 C600 1.378 . S
C608 C603 1.350 . S
C609 H596 0.929 . S
C609 C601 1.433 . S
C609 N611 1.384 . S
N610 C606 1.427 . S
N610 C607 1.384 . S
N611 C603 1.427 . S
N611 C609 1.384 . S
H612 C618 0.930 . S
H613 C622 0.930 . S
H614 C627 0.929 . S
H615 C625 0.929 . S
H616 C620 0.929 . S
H617 C626 0.929 . S
C618 H612 0.930 . S
C618 C619 1.367 . S
C618 C626 1.378 . S
C619 C618 1.367 . S
C619 C627 1.433 . S
C620 H616 0.929 . S
C620 C622 1.378 . S
C620 C624 1.350 . S
C621 C624 1.463 . S
C621 C626 1.350 . S
C621 N629 1.427 . S
C622 H613 0.930 . S
C622 C620 1.378 . S
C622 C623 1.367 . S
C623 C622 1.367 . S
C623 C625 1.433 . S
C624 C620 1.350 . S
C624 C621 1.463 . S
C624 N628 1.427 . S
C625 H615 0.929 . S
C625 C623 1.433 . S
C625 N628 1.384 . S
C626 H617 0.929 . S
C626 C618 1.378 . S
C626 C621 1.350 . S
C627 H614 0.929 . S
C627 C619 1.433 . S
C627 N629 1.384 . S
N628 C624 1.427 . S
N628 C625 1.384 . S
N629 C621 1.427 . S
N629 C627 1.384 . S
H630 C636 0.930 . S
H631 C640 0.930 . S
H632 C645 0.929 . S
H633 C643 0.929 . S
H634 C638 0.929 . S
H635 C644 0.929 . S
C636 H630 0.930 . S
C636 C637 1.367 . S
C636 C644 1.378 . S
C637 C636 1.367 . S
C637 C645 1.433 . S
C638 H634 0.929 . S
C638 C640 1.378 . S
C638 C642 1.350 . S
C639 C642 1.463 . S
C639 C644 1.350 . S
C639 N647 1.427 . S
C640 H631 0.930 . S
C640 C638 1.378 . S
C640 C641 1.367 . S
C641 C640 1.367 . S
C641 C643 1.433 . S
C642 C638 1.350 . S
C642 C639 1.463 . S
C642 N646 1.427 . S
C643 H633 0.929 . S
C643 C641 1.433 . S
C643 N646 1.384 . S
C644 H635 0.929 . S
C644 C636 1.378 . S
C644 C639 1.350 . S
C645 H632 0.929 . S
C645 C637 1.433 . S
C645 N647 1.384 . S
N646 C642 1.427 . S
N646 C643 1.384 . S
N647 C639 1.427 . S
N647 C645 1.384 . S
H648 C654 0.930 . S
H649 C658 0.930 . S
H650 C663 0.929 . S
H651 C661 0.929 . S
H652 C656 0.929 . S
H653 C662 0.929 . S
C654 H648 0.930 . S
C654 C655 1.367 . S
C654 C662 1.378 . S
C655 C654 1.367 . S
C655 C663 1.433 . S
C656 H652 0.929 . S
C656 C658 1.378 . S
C656 C660 1.350 . S
C657 C660 1.463 . S
C657 C662 1.350 . S
C657 N665 1.427 . S
C658 H649 0.930 . S
C658 C656 1.378 . S
C658 C659 1.367 . S
C659 C658 1.367 . S
C659 C661 1.433 . S
C660 C656 1.350 . S
C660 C657 1.463 . S
C660 N664 1.427 . S
C661 H651 0.929 . S
C661 C659 1.433 . S
C661 N664 1.384 . S
C662 H653 0.929 . S
C662 C654 1.378 . S
C662 C657 1.350 . S
C663 H650 0.929 . S
C663 C655 1.433 . S
C663 N665 1.384 . S
N664 C660 1.427 . S
N664 C661 1.384 . S
N665 C657 1.427 . S
N665 C663 1.384 . S
H666 C672 0.931 . S
H667 C676 0.930 . S
H668 C681 0.929 . S
H669 C679 0.929 . S
H670 C674 0.929 . S
H671 C680 0.929 . S
C672 H666 0.931 . S
C672 C673 1.360 1_556 S
C672 C680 1.384 . S
C673 C672 1.360 1_554 S
C673 C681 1.433 . S
C674 H670 0.929 . S
C674 C676 1.378 . S
C674 C678 1.350 . S
C675 C678 1.463 . S
C675 C680 1.350 . S
C675 N683 1.427 1_556 S
C676 H667 0.930 . S
C676 C674 1.378 . S
C676 C677 1.367 . S
C677 C676 1.367 . S
C677 C679 1.433 . S
C678 C674 1.350 . S
C678 C675 1.463 . S
C678 N682 1.427 . S
C679 H669 0.929 . S
C679 C677 1.433 . S
C679 N682 1.384 . S
C680 H671 0.929 . S
C680 C672 1.384 . S
C680 C675 1.350 . S
C681 H668 0.929 . S
C681 C673 1.433 . S
C681 N683 1.384 . S
N682 C678 1.427 . S
N682 C679 1.384 . S
N683 C675 1.427 1_554 S
N683 C681 1.384 . S
H684 C690 0.930 . S
H685 C694 0.930 . S
H686 C699 0.929 . S
H687 C697 0.929 . S
H688 C692 0.929 . S
H689 C698 0.929 . S
C690 H684 0.930 . S
C690 C691 1.367 . S
C690 C698 1.378 . S
C691 C690 1.367 . S
C691 C699 1.433 . S
C692 H688 0.929 . S
C692 C694 1.378 . S
C692 C696 1.350 . S
C693 C696 1.463 . S
C693 C698 1.350 . S
C693 N701 1.427 . S
C694 H685 0.930 . S
C694 C692 1.378 . S
C694 C695 1.367 . S
C695 C694 1.367 . S
C695 C697 1.433 . S
C696 C692 1.350 . S
C696 C693 1.463 . S
C696 N700 1.427 . S
C697 H687 0.929 . S
C697 C695 1.433 . S
C697 N700 1.384 . S
C698 H689 0.929 . S
C698 C690 1.378 . S
C698 C693 1.350 . S
C699 H686 0.929 . S
C699 C691 1.433 . S
C699 N701 1.384 . S
N700 C696 1.427 . S
N700 C697 1.384 . S
N701 C693 1.427 . S
N701 C699 1.384 . S
H702 C708 0.930 . S
H703 C712 0.930 . S
H704 C717 0.929 . S
H705 C715 0.929 . S
H706 C710 0.929 . S
H707 C716 0.929 . S
C708 H702 0.930 . S
C708 C709 1.367 . S
C708 C716 1.378 . S
C709 C708 1.367 . S
C709 C717 1.433 . S
C710 H706 0.929 . S
C710 C712 1.378 . S
C710 C714 1.350 . S
C711 C714 1.463 . S
C711 C716 1.350 . S
C711 N719 1.427 . S
C712 H703 0.930 . S
C712 C710 1.378 . S
C712 C713 1.367 . S
C713 C712 1.367 . S
C713 C715 1.433 . S
C714 C710 1.350 . S
C714 C711 1.463 . S
C714 N718 1.427 . S
C715 H705 0.929 . S
C715 C713 1.433 . S
C715 N718 1.384 . S
C716 H707 0.929 . S
C716 C708 1.378 . S
C716 C711 1.350 . S
C717 H704 0.929 . S
C717 C709 1.433 . S
C717 N719 1.384 . S
N718 C714 1.427 . S
N718 C715 1.384 . S
N719 C711 1.427 . S
N719 C717 1.384 . S
H720 C726 0.930 . S
H721 C730 0.930 . S
H722 C735 0.929 . S
H723 C733 0.929 . S
H724 C728 0.929 . S
H725 C734 0.929 . S
C726 H720 0.930 . S
C726 C727 1.367 . S
C726 C734 1.378 . S
C727 C726 1.367 . S
C727 C735 1.433 . S
C728 H724 0.929 . S
C728 C730 1.378 . S
C728 C732 1.350 . S
C729 C732 1.463 . S
C729 C734 1.350 . S
C729 N737 1.427 . S
C730 H721 0.930 . S
C730 C728 1.378 . S
C730 C731 1.367 . S
C731 C730 1.367 . S
C731 C733 1.433 . S
C732 C728 1.350 . S
C732 C729 1.463 . S
C732 N736 1.427 . S
C733 H723 0.929 . S
C733 C731 1.433 . S
C733 N736 1.384 . S
C734 H725 0.929 . S
C734 C726 1.378 . S
C734 C729 1.350 . S
C735 H722 0.929 . S
C735 C727 1.433 . S
C735 N737 1.384 . S
N736 C732 1.427 . S
N736 C733 1.384 . S
N737 C729 1.427 . S
N737 C735 1.384 . S
H738 C744 0.930 . S
H739 C748 0.930 . S
H740 C753 0.929 . S
H741 C751 0.929 . S
H742 C746 0.929 . S
H743 C752 0.929 . S
C744 H738 0.930 . S
C744 C745 1.367 . S
C744 C752 1.378 . S
C745 C744 1.367 . S
C745 C753 1.433 . S
C746 H742 0.929 . S
C746 C748 1.378 . S
C746 C750 1.350 . S
C747 C750 1.463 . S
C747 C752 1.350 . S
C747 N755 1.427 . S
C748 H739 0.930 . S
C748 C746 1.378 . S
C748 C749 1.367 . S
C749 C748 1.367 . S
C749 C751 1.433 . S
C750 C746 1.350 . S
C750 C747 1.463 . S
C750 N754 1.427 . S
C751 H741 0.929 . S
C751 C749 1.433 . S
C751 N754 1.384 . S
C752 H743 0.929 . S
C752 C744 1.378 . S
C752 C747 1.350 . S
C753 H740 0.929 . S
C753 C745 1.433 . S
C753 N755 1.384 . S
N754 C750 1.427 . S
N754 C751 1.384 . S
N755 C747 1.427 . S
N755 C753 1.384 . S
H756 C762 0.930 . S
H757 C766 0.930 . S
H758 C771 0.929 . S
H759 C769 0.929 . S
H760 C764 0.929 . S
H761 C770 0.929 . S
C762 H756 0.930 . S
C762 C763 1.367 . S
C762 C770 1.378 . S
C763 C762 1.367 . S
C763 C771 1.433 . S
C764 H760 0.929 . S
C764 C766 1.378 . S
C764 C768 1.350 . S
C765 C768 1.463 . S
C765 C770 1.350 . S
C765 N773 1.427 . S
C766 H757 0.930 . S
C766 C764 1.378 . S
C766 C767 1.367 . S
C767 C766 1.367 . S
C767 C769 1.433 . S
C768 C764 1.350 . S
C768 C765 1.463 . S
C768 N772 1.427 . S
C769 H759 0.929 . S
C769 C767 1.433 . S
C769 N772 1.384 . S
C770 H761 0.929 . S
C770 C762 1.378 . S
C770 C765 1.350 . S
C771 H758 0.929 . S
C771 C763 1.433 . S
C771 N773 1.384 . S
N772 C768 1.427 . S
N772 C769 1.384 . S
N773 C765 1.427 . S
N773 C771 1.384 . S
H774 C780 0.930 . S
H775 C784 0.930 . S
H776 C789 0.929 . S
H777 C787 0.929 . S
H778 C782 0.929 . S
H779 C788 0.929 . S
C780 H774 0.930 . S
C780 C781 1.367 . S
C780 C788 1.378 . S
C781 C780 1.367 . S
C781 C789 1.433 . S
C782 H778 0.929 . S
C782 C784 1.378 . S
C782 C786 1.350 . S
C783 C786 1.463 . S
C783 C788 1.350 . S
C783 N791 1.427 . S
C784 H775 0.930 . S
C784 C782 1.378 . S
C784 C785 1.367 . S
C785 C784 1.367 . S
C785 C787 1.433 . S
C786 C782 1.350 . S
C786 C783 1.463 . S
C786 N790 1.427 . S
C787 H777 0.929 . S
C787 C785 1.433 . S
C787 N790 1.384 . S
C788 H779 0.929 . S
C788 C780 1.378 . S
C788 C783 1.350 . S
C789 H776 0.929 . S
C789 C781 1.433 . S
C789 N791 1.384 . S
N790 C786 1.427 . S
N790 C787 1.384 . S
N791 C783 1.427 . S
N791 C789 1.384 . S
H792 C798 0.930 . S
H793 C802 0.930 . S
H794 C807 0.929 . S
H795 C805 0.929 . S
H796 C800 0.929 . S
H797 C806 0.929 . S
C798 H792 0.930 . S
C798 C799 1.367 . S
C798 C806 1.378 . S
C799 C798 1.367 . S
C799 C807 1.433 . S
C800 H796 0.929 . S
C800 C802 1.378 . S
C800 C804 1.350 . S
C801 C804 1.463 . S
C801 C806 1.350 . S
C801 N809 1.427 . S
C802 H793 0.930 . S
C802 C800 1.378 . S
C802 C803 1.367 . S
C803 C802 1.367 . S
C803 C805 1.433 . S
C804 C800 1.350 . S
C804 C801 1.463 . S
C804 N808 1.427 . S
C805 H795 0.929 . S
C805 C803 1.433 . S
C805 N808 1.384 . S
C806 H797 0.929 . S
C806 C798 1.378 . S
C806 C801 1.350 . S
C807 H794 0.929 . S
C807 C799 1.433 . S
C807 N809 1.384 . S
N808 C804 1.427 . S
N808 C805 1.384 . S
N809 C801 1.427 . S
N809 C807 1.384 . S
H810 C816 0.930 . S
H811 C820 0.930 . S
H812 C825 0.929 . S
H813 C823 0.929 . S
H814 C818 0.929 . S
H815 C824 0.929 . S
C816 H810 0.930 . S
C816 C817 1.367 . S
C816 C824 1.378 . S
C817 C816 1.367 . S
C817 C825 1.433 . S
C818 H814 0.929 . S
C818 C820 1.378 . S
C818 C822 1.350 . S
C819 C822 1.463 . S
C819 C824 1.350 . S
C819 N827 1.427 . S
C820 H811 0.930 . S
C820 C818 1.378 . S
C820 C821 1.367 . S
C821 C820 1.367 . S
C821 C823 1.433 . S
C822 C818 1.350 . S
C822 C819 1.463 . S
C822 N826 1.427 . S
C823 H813 0.929 . S
C823 C821 1.433 . S
C823 N826 1.384 . S
C824 H815 0.929 . S
C824 C816 1.378 . S
C824 C819 1.350 . S
C825 H812 0.929 . S
C825 C817 1.433 . S
C825 N827 1.384 . S
N826 C822 1.427 . S
N826 C823 1.384 . S
N827 C819 1.427 . S
N827 C825 1.384 . S
H828 C834 0.930 . S
H829 C838 0.930 . S
H830 C843 0.929 . S
H831 C841 0.929 . S
H832 C836 0.929 . S
H833 C842 0.929 . S
C834 H828 0.930 . S
C834 C835 1.367 . S
C834 C842 1.378 . S
C835 C834 1.367 . S
C835 C843 1.433 . S
C836 H832 0.929 . S
C836 C838 1.378 . S
C836 C840 1.350 . S
C837 C840 1.463 . S
C837 C842 1.350 . S
C837 N845 1.427 . S
C838 H829 0.930 . S
C838 C836 1.378 . S
C838 C839 1.367 . S
C839 C838 1.367 . S
C839 C841 1.433 . S
C840 C836 1.350 . S
C840 C837 1.463 . S
C840 N844 1.427 . S
C841 H831 0.929 . S
C841 C839 1.433 . S
C841 N844 1.384 . S
C842 H833 0.929 . S
C842 C834 1.378 . S
C842 C837 1.350 . S
C843 H830 0.929 . S
C843 C835 1.433 . S
C843 N845 1.384 . S
N844 C840 1.427 . S
N844 C841 1.384 . S
N845 C837 1.427 . S
N845 C843 1.384 . S
H846 C852 0.930 . S
H847 C856 0.930 . S
H848 C861 0.929 . S
H849 C859 0.929 . S
H850 C854 0.929 . S
H851 C860 0.929 . S
C852 H846 0.930 . S
C852 C853 1.367 1_655 S
C852 C860 1.378 . S
C853 C852 1.367 1_455 S
C853 C861 1.433 . S
C854 H850 0.929 . S
C854 C856 1.378 . S
C854 C858 1.347 1_455 S
C855 C858 1.463 1_455 S
C855 C860 1.347 1_455 S
C855 N863 1.430 . S
C856 H847 0.930 . S
C856 C854 1.378 . S
C856 C857 1.367 1_455 S
C857 C856 1.367 1_655 S
C857 C859 1.433 . S
C858 C854 1.347 1_655 S
C858 C855 1.463 1_655 S
C858 N862 1.430 . S
C859 H849 0.929 . S
C859 C857 1.433 . S
C859 N862 1.384 . S
C860 H851 0.929 . S
C860 C852 1.378 . S
C860 C855 1.347 1_655 S
C861 H848 0.929 . S
C861 C853 1.433 . S
C861 N863 1.384 . S
N862 C858 1.430 . S
N862 C859 1.384 . S
N863 C855 1.430 . S
N863 C861 1.384 . S
H864 C870 0.930 . S
H865 C874 0.930 . S
H866 C879 0.929 . S
H867 C877 0.929 . S
H868 C872 0.929 . S
H869 C878 0.929 . S
C870 H864 0.930 . S
C870 C871 1.367 . S
C870 C878 1.378 . S
C871 C870 1.367 . S
C871 C879 1.433 1_545 S
C872 H868 0.929 . S
C872 C874 1.378 . S
C872 C876 1.344 . S
C873 C876 1.463 1_546 S
C873 C878 1.344 . S
C873 N881 1.435 1_545 S
C874 H865 0.930 . S
C874 C872 1.378 . S
C874 C875 1.367 . S
C875 C874 1.367 . S
C875 C877 1.433 1_565 S
C876 C872 1.344 . S
C876 C873 1.463 1_564 S
C876 N880 1.435 1_565 S
C877 H867 0.929 . S
C877 C875 1.433 1_545 S
C877 N880 1.384 . S
C878 H869 0.929 . S
C878 C870 1.378 . S
C878 C873 1.344 . S
C879 H866 0.929 . S
C879 C871 1.433 1_565 S
C879 N881 1.384 . S
N880 C876 1.435 1_545 S
N880 C877 1.384 . S
N881 C873 1.435 1_565 S
N881 C879 1.384 . S
H882 C888 0.930 . S
H883 C892 0.930 . S
H884 C897 0.929 . S
H885 C895 0.929 . S
H886 C890 0.929 . S
H887 C896 0.929 . S
C888 H882 0.930 . S
C888 C889 1.367 . S
C888 C896 1.378 . S
C889 C888 1.367 . S
C889 C897 1.433 . S
C890 H886 0.929 . S
C890 C892 1.378 . S
C890 C894 1.350 . S
C891 C894 1.463 . S
C891 C896 1.350 . S
C891 N899 1.427 . S
C892 H883 0.930 . S
C892 C890 1.378 . S
C892 C893 1.367 . S
C893 C892 1.367 . S
C893 C895 1.433 . S
C894 C890 1.350 . S
C894 C891 1.463 . S
C894 N898 1.427 . S
C895 H885 0.929 . S
C895 C893 1.433 . S
C895 N898 1.384 . S
C896 H887 0.929 . S
C896 C888 1.378 . S
C896 C891 1.350 . S
C897 H884 0.929 . S
C897 C889 1.433 . S
C897 N899 1.384 . S
N898 C894 1.427 . S
N898 C895 1.384 . S
N899 C891 1.427 . S
N899 C897 1.384 . S
H900 C906 0.930 . S
H901 C910 0.930 . S
H902 C915 0.929 . S
H903 C913 0.929 . S
H904 C908 0.936 . S
H905 C914 0.936 . S
C906 H900 0.930 . S
C906 C907 1.367 . S
C906 C914 1.379 . S
C907 C906 1.367 . S
C907 C915 1.433 . S
C908 H904 0.936 . S
C908 C910 1.379 . S
C908 C912 1.344 . S
C909 C912 1.461 1_655 S
C909 C914 1.344 . S
C909 N917 1.438 . S
C910 H901 0.930 . S
C910 C908 1.379 . S
C910 C911 1.367 . S
C911 C910 1.367 . S
C911 C913 1.433 . S
C912 C908 1.344 . S
C912 C909 1.461 1_455 S
C912 N916 1.438 . S
C913 H903 0.929 . S
C913 C911 1.433 . S
C913 N916 1.385 . S
C914 H905 0.936 . S
C914 C906 1.379 . S
C914 C909 1.344 . S
C915 H902 0.929 . S
C915 C907 1.433 . S
C915 N917 1.385 . S
N916 C912 1.438 . S
N916 C913 1.385 . S
N917 C909 1.438 . S
N917 C915 1.385 . S
H918 C924 0.930 . S
H919 C928 0.930 . S
H920 C933 0.929 . S
H921 C931 0.929 . S
H922 C926 0.929 . S
H923 C932 0.929 . S
C924 H918 0.930 . S
C924 C925 1.367 . S
C924 C932 1.378 . S
C925 C924 1.367 . S
C925 C933 1.433 1_545 S
C926 H922 0.929 . S
C926 C928 1.378 . S
C926 C930 1.350 . S
C927 C930 1.463 1_545 S
C927 C932 1.350 . S
C927 N935 1.427 1_545 S
C928 H919 0.930 . S
C928 C926 1.378 . S
C928 C929 1.367 . S
C929 C928 1.367 . S
C929 C931 1.433 1_565 S
C930 C926 1.350 . S
C930 C927 1.463 1_565 S
C930 N934 1.427 1_565 S
C931 H921 0.929 . S
C931 C929 1.433 1_545 S
C931 N934 1.384 . S
C932 H923 0.929 . S
C932 C924 1.378 . S
C932 C927 1.350 . S
C933 H920 0.929 . S
C933 C925 1.433 1_565 S
C933 N935 1.384 . S
N934 C930 1.427 1_545 S
N934 C931 1.384 . S
N935 C927 1.427 1_565 S
N935 C933 1.384 . S
C403 C282 0.907 . S
C407 C18 0.904 . S
C421 C51 0.902 . S
C425 C315 0.905 . S
C439 C84 0.893 . S
C443 C348 0.891 . S
C457 C117 0.891 . S
C461 C381 0.893 . S
C475 C150 0.902 . S
C479 C216 0.899 . S
C493 C183 0.907 . S
C497 C249 0.903 . S
C511 N13 1.792 . S
C515 C172 1.737 . S
C529 C7 1.731 . S
C533 N46 1.792 . S
C547 N79 1.792 . S
C551 C40 1.731 . S
C565 C73 1.738 . S
C569 N112 1.792 . S
C583 C106 1.739 . S
C587 N145 1.791 . S
C601 N178 1.792 . S
C605 C139 1.735 . S
C619 C238 1.742 . S
C623 N211 1.790 . S
C637 C271 1.739 . S
C641 N244 1.786 . S
C655 C304 1.742 . S
C659 N277 1.790 . S
C673 C337 1.732 . S
C677 N310 1.788 . S
C691 C370 1.730 . S
C695 N343 1.790 . S
C709 N376 1.787 . S
C713 C205 1.743 . S
C727 C21 1.323 . S
C731 C219 1.323 . S
C745 C54 1.319 . S
C749 C252 1.319 . S
C763 C87 1.324 . S
C767 C285 1.324 . S
C781 C120 1.324 . S
C785 C318 1.324 . S
C799 C351 1.324 . S
C803 C153 1.324 . S
C817 C186 1.317 . S
C821 C384 1.317 . S
C835 N299 0.758 . S
C839 N2 0.738 . S
C853 N35 0.769 . S
C857 N332 0.749 . S
C871 N68 0.739 . S
C875 N365 0.759 . S
C889 N101 0.749 . S
C893 N200 0.733 . S
C907 N134 0.744 . S
C911 N233 0.764 . S
C925 N266 0.737 . S
C929 N167 0.731 . S
