# Generated by pormake.
# Topology smm, (6)-cn, num edge types: 1
# Building blocks:
#     Node 0, Type 0, BuildingBlock: BETDEL_clean_sbu_0, # of connection points: 6
#     Node 1, Type 0, BuildingBlock: BETDEL_clean_sbu_0, # of connection points: 6
#     Node 2, Type 0, BuildingBlock: BETDEL_clean_sbu_0, # of connection points: 6
#     Node 3, Type 0, BuildingBlock: BETDEL_clean_sbu_0, # of connection points: 6
#     Node 4, Type 0, BuildingBlock: BETDEL_clean_sbu_0, # of connection points: 6
#     Node 5, Type 0, BuildingBlock: BETDEL_clean_sbu_0, # of connection points: 6
#     Node 6, Type 0, BuildingBlock: BETDEL_clean_sbu_0, # of connection points: 6
#     Node 7, Type 0, BuildingBlock: BETDEL_clean_sbu_0, # of connection points: 6
#     Node 8, Type 0, BuildingBlock: BETDEL_clean_sbu_0, # of connection points: 6
#     Edge 9, Type (0, 0), BuildingBlock: OJICUG_clean_linker_0, # of connection points: 2
#     Edge 10, Type (0, 0), BuildingBlock: OJICUG_clean_linker_0, # of connection points: 2
#     Edge 11, Type (0, 0), BuildingBlock: OJICUG_clean_linker_0, # of connection points: 2
#     Edge 12, Type (0, 0), BuildingBlock: OJICUG_clean_linker_0, # of connection points: 2
#     Edge 13, Type (0, 0), BuildingBlock: OJICUG_clean_linker_0, # of connection points: 2
#     Edge 14, Type (0, 0), BuildingBlock: OJICUG_clean_linker_0, # of connection points: 2
#     Edge 15, Type (0, 0), BuildingBlock: OJICUG_clean_linker_0, # of connection points: 2
#     Edge 16, Type (0, 0), BuildingBlock: OJICUG_clean_linker_0, # of connection points: 2
#     Edge 17, Type (0, 0), BuildingBlock: OJICUG_clean_linker_0, # of connection points: 2
#     Edge 18, Type (0, 0), BuildingBlock: OJICUG_clean_linker_0, # of connection points: 2
#     Edge 19, Type (0, 0), BuildingBlock: OJICUG_clean_linker_0, # of connection points: 2
#     Edge 20, Type (0, 0), BuildingBlock: OJICUG_clean_linker_0, # of connection points: 2
#     Edge 21, Type (0, 0), BuildingBlock: OJICUG_clean_linker_0, # of connection points: 2
#     Edge 22, Type (0, 0), BuildingBlock: OJICUG_clean_linker_0, # of connection points: 2
#     Edge 23, Type (0, 0), BuildingBlock: OJICUG_clean_linker_0, # of connection points: 2
#     Edge 24, Type (0, 0), BuildingBlock: OJICUG_clean_linker_0, # of connection points: 2
#     Edge 25, Type (0, 0), BuildingBlock: OJICUG_clean_linker_0, # of connection points: 2
#     Edge 26, Type (0, 0), BuildingBlock: OJICUG_clean_linker_0, # of connection points: 2
#     Edge 27, Type (0, 0), BuildingBlock: OJICUG_clean_linker_0, # of connection points: 2
#     Edge 28, Type (0, 0), BuildingBlock: OJICUG_clean_linker_0, # of connection points: 2
#     Edge 29, Type (0, 0), BuildingBlock: OJICUG_clean_linker_0, # of connection points: 2
#     Edge 30, Type (0, 0), BuildingBlock: OJICUG_clean_linker_0, # of connection points: 2
#     Edge 31, Type (0, 0), BuildingBlock: OJICUG_clean_linker_0, # of connection points: 2
#     Edge 32, Type (0, 0), BuildingBlock: OJICUG_clean_linker_0, # of connection points: 2
#     Edge 33, Type (0, 0), BuildingBlock: OJICUG_clean_linker_0, # of connection points: 2
#     Edge 34, Type (0, 0), BuildingBlock: OJICUG_clean_linker_0, # of connection points: 2
#     Edge 35, Type (0, 0), BuildingBlock: OJICUG_clean_linker_0, # of connection points: 2
# Relax obj value: 0.060
# Max RMSD: 0.134
# Mean RMSD: 0.134
data_MOF--net-smm--node1-BETDEL_clean_sbu_0--edge1-OJICUG_clean_linker_0
_symmetry_space_group_name_H-M    P1
_symmetry_Int_Tables_number       1
_symmetry_cell_setting            triclinic
loop_
_symmetry_equiv_pos_as_xyz
'x, y, z'
_cell_length_a     42.710739
_cell_length_b     42.715057
_cell_length_c     10.283622
_cell_angle_alpha  89.950339
_cell_angle_beta   89.94921
_cell_angle_gamma 119.96033
loop_
_atom_site_label
_atom_site_type_symbol
_atom_site_fract_x
_atom_site_fract_y
_atom_site_fract_z
_atom_type_partial_charge
Dy0 Dy 0.0604 0.22656 0.97137 0.0
C1 C 0.95144 0.07802 0.061 0.0
C2 C 0.10276 0.29301 0.8607 0.0
Dy3 Dy 0.99774 0.14975 0.01021 0.0
O4 O 0.10957 0.28238 0.97023 0.0
O5 O 0.07307 0.26722 0.81143 0.0
O6 O 0.07948 0.23009 0.17687 0.0
O7 O 1.02432 0.19753 0.13302 0.0
C8 C 0.0479 0.20586 0.22017 0.0
C9 C 1.0132 0.17208 0.76212 0.0
O10 O 0.96923 0.17969 0.0672 0.0
O11 O 1.01112 0.23372 0.97078 0.0
O12 O 0.94609 0.09727 0.97599 0.0
O13 O 0.98145 0.09843 0.12251 0.0
O14 O 0.98086 0.15062 0.80427 0.0
O15 O 0.03565 0.17845 0.85135 0.0
O16 O 0.09091 0.19661 0.95377 0.0
O17 O 0.0463 0.14394 0.05015 0.0
C18 C 0.97886 0.21265 0.02447 0.0
C19 C 0.08009 0.16486 0.01036 0.0
Dy20 Dy 0.82633 0.84229 0.97543 0.0
C21 C 0.9749 0.88263 0.06358 0.0
C22 C 0.76015 0.81839 0.86354 0.0
Dy23 Dy 0.90303 0.8563 0.01369 0.0
O24 O 0.7705 0.83567 0.97332 0.0
O25 O 0.78604 0.81449 0.81481 0.0
O26 O 0.8226 0.8577 0.18102 0.0
O27 O 0.85523 0.83512 0.13697 0.0
C28 C 0.84683 0.85034 0.22416 0.0
C29 C 0.88089 0.84968 0.76564 0.0
O30 O 0.87322 0.79791 0.07114 0.0
O31 O 0.81917 0.78583 0.97535 0.0
O32 O 0.95563 0.85711 0.98175 0.0
O33 O 0.95439 0.89252 0.12295 0.0
O34 O 0.90235 0.83878 0.80753 0.0
O35 O 0.87446 0.86569 0.85506 0.0
O36 O 0.85629 0.90277 0.95867 0.0
O37 O 0.90873 0.91047 0.0552 0.0
C38 C 0.84026 0.77461 0.02873 0.0
C39 C 0.88798 0.92351 0.01557 0.0
Dy40 Dy 0.20966 0.9918 0.97057 0.0
C41 C 0.17257 0.10287 0.0564 0.0
C42 C 0.23347 0.94978 0.85595 0.0
Dy43 Dy 0.19788 0.05637 0.00658 0.0
O44 O 0.21557 0.94219 0.96484 0.0
O45 O 0.23789 0.98 0.80947 0.0
O46 O 0.19303 0.97272 0.17552 0.0
O47 O 0.21698 0.02809 0.13092 0.0
C48 C 0.20098 1.00457 0.21803 0.0
C49 C 0.20478 0.04031 0.7597 0.0
O50 O 0.25654 0.08429 0.06179 0.0
O51 O 0.2668 0.0392 0.98242 0.0
O52 O 0.1964 0.10761 0.96881 0.0
O53 O 0.16383 0.07347 0.12108 0.0
O54 O 0.21629 0.07284 0.80083 0.0
O55 O 0.18808 0.01811 0.84924 0.0
O56 O 0.14942 0.96249 0.95313 0.0
O57 O 0.14269 1.00853 0.04412 0.0
C58 C 0.27883 0.07232 0.02922 0.0
C59 C 0.12912 0.97443 0.00702 0.0
Dy60 Dy 0.72598 0.55934 0.30789 0.0
C61 C 0.61721 0.41085 0.40212 0.0
C62 C 0.76839 0.62585 0.19738 0.0
Dy63 Dy 0.66325 0.48244 0.34751 0.0
O64 O 0.77514 0.61519 0.30693 0.0
O65 O 0.73873 0.60006 0.14794 0.0
O66 O 0.74497 0.563 0.51368 0.0
O67 O 0.68984 0.53037 0.46963 0.0
C68 C 0.71339 0.53876 0.55697 0.0
C69 C 0.67869 0.50451 0.09901 0.0
O70 O 0.6348 0.51251 0.40339 0.0
O71 O 0.67668 0.56642 0.30613 0.0
O72 O 0.61136 0.42981 0.31732 0.0
O73 O 0.6476 0.43147 0.46106 0.0
O74 O 0.64638 0.48284 0.14111 0.0
O75 O 0.70115 0.51108 0.18846 0.0
O76 O 0.75648 0.52939 0.29072 0.0
O77 O 0.71188 0.47678 0.38751 0.0
C78 C 0.64442 0.5454 0.35988 0.0
C79 C 0.74566 0.49768 0.34763 0.0
Dy80 Dy 0.49372 0.17433 0.31514 0.0
C81 C 0.64314 0.21604 0.39895 0.0
C82 C 0.42444 0.14726 0.22776 0.0
Dy83 Dy 0.57138 0.19031 0.34923 0.0
O84 O 0.43411 0.13533 0.32691 0.0
O85 O 0.45265 0.17464 0.17643 0.0
O86 O 0.49164 0.19163 0.51891 0.0
O87 O 0.52401 0.16861 0.47496 0.0
C88 C 0.5159 0.18421 0.56156 0.0
C89 C 0.54813 0.18176 0.10251 0.0
O90 O 0.54153 0.13223 0.40678 0.0
O91 O 0.49167 0.12069 0.28402 0.0
O92 O 0.62385 0.19102 0.31557 0.0
O93 O 0.62274 0.22588 0.45955 0.0
O94 O 0.57089 0.17244 0.14385 0.0
O95 O 0.54128 0.19756 0.19138 0.0
O96 O 0.52069 0.23482 0.31635 0.0
O97 O 0.57672 0.24456 0.38588 0.0
C98 C 0.51061 0.10904 0.3504 0.0
C99 C 0.55396 0.25637 0.36009 0.0
Dy100 Dy 0.87857 0.32741 0.30537 0.0
C101 C 0.83822 0.43583 0.39452 0.0
C102 C 0.90257 0.28496 0.19481 0.0
Dy103 Dy 0.86432 0.39007 0.34369 0.0
O104 O 0.88532 0.27826 0.30474 0.0
O105 O 0.90638 0.31461 0.1451 0.0
O106 O 0.86322 0.30837 0.51119 0.0
O107 O 0.88564 0.36352 0.46664 0.0
C108 C 0.87049 0.33994 0.55412 0.0
C109 C 0.87105 0.37455 0.09569 0.0
O110 O 0.9227 0.41868 0.4 0.0
O111 O 0.93492 0.37677 0.30417 0.0
O112 O 0.86298 0.44152 0.30966 0.0
O113 O 0.82891 0.40584 0.45598 0.0
O114 O 0.88187 0.40689 0.13743 0.0
O115 O 0.85506 0.3521 0.18529 0.0
O116 O 0.81811 0.29685 0.28963 0.0
O117 O 0.81022 0.34158 0.38552 0.0
C118 C 0.94604 0.40906 0.35732 0.0
C119 C 0.79732 0.30777 0.34666 0.0
Dy120 Dy 0.393 0.8937 0.62835 0.0
C121 C 0.28472 0.745 0.71951 0.0
C122 C 0.43587 0.96014 0.51777 0.0
Dy123 Dy 0.33046 0.81675 0.66742 0.0
O124 O 0.44231 0.94938 0.62767 0.0
O125 O 0.40614 0.9345 0.46804 0.0
O126 O 0.41207 0.8974 0.83397 0.0
O127 O 0.35695 0.86461 0.78999 0.0
C128 C 0.38053 0.87306 0.87724 0.0
C129 C 0.34595 0.83899 0.41921 0.0
O130 O 0.30172 0.84638 0.72418 0.0
O131 O 0.34352 0.90064 0.62865 0.0
O132 O 0.27899 0.76399 0.63447 0.0
O133 O 0.31476 0.76568 0.7803 0.0
O134 O 0.31363 0.8174 0.46126 0.0
O135 O 0.36841 0.84552 0.5086 0.0
O136 O 0.42366 0.86379 0.61287 0.0
O137 O 0.37896 0.81114 0.70893 0.0
C138 C 0.31122 0.87935 0.682 0.0
C139 C 0.41278 0.83209 0.66998 0.0
Dy140 Dy 0.16064 0.50925 0.63866 0.0
C141 C 0.30913 0.54902 0.7273 0.0
C142 C 0.09435 0.48533 0.52776 0.0
Dy143 Dy 0.2374 0.52331 0.67679 0.0
O144 O 0.10483 0.50266 0.63739 0.0
O145 O 0.12017 0.48139 0.47862 0.0
O146 O 0.15704 0.52476 0.84421 0.0
O147 O 0.18961 0.50212 0.8001 0.0
C148 C 0.18125 0.51737 0.88731 0.0
C149 C 0.21514 0.51653 0.42887 0.0
O150 O 0.20757 0.46492 0.73381 0.0
O151 O 0.1535 0.45283 0.63815 0.0
O152 O 0.29003 0.5244 0.64242 0.0
O153 O 0.28855 0.55843 0.78894 0.0
O154 O 0.23659 0.50561 0.47082 0.0
O155 O 0.20876 0.53261 0.51818 0.0
O156 O 0.19056 0.56966 0.62085 0.0
O157 O 0.2432 0.57764 0.71666 0.0
C158 C 0.17461 0.44162 0.69141 0.0
C159 C 0.22231 0.59054 0.67703 0.0
Dy160 Dy 0.54459 0.66084 0.63718 0.0
C161 C 0.50473 0.76975 0.72347 0.0
C162 C 0.5684 0.61814 0.52755 0.0
Dy163 Dy 0.53041 0.72354 0.67485 0.0
O164 O 0.55113 0.61158 0.63739 0.0
O165 O 0.57235 0.64781 0.47743 0.0
O166 O 0.52897 0.64174 0.84276 0.0
O167 O 0.55154 0.69692 0.79834 0.0
C168 C 0.53627 0.67332 0.88566 0.0
C169 C 0.53734 0.70799 0.42714 0.0
O170 O 0.58872 0.75199 0.73226 0.0
O171 O 0.60099 0.71011 0.63659 0.0
O172 O 0.49506 0.73973 0.78534 0.0
O173 O 0.5296 0.7752 0.63948 0.0
O174 O 0.54824 0.74034 0.46884 0.0
O175 O 0.52122 0.68556 0.51661 0.0
O176 O 0.48417 0.63038 0.6205 0.0
O177 O 0.47619 0.67508 0.71625 0.0
C178 C 0.61209 0.74237 0.68997 0.0
C179 C 0.46332 0.64127 0.67722 0.0
C180 C 0.15624 0.35556 0.86358 0.0
C181 C 0.12332 0.33003 0.80748 0.0
H182 H 0.19868 0.4108 0.86927 0.0
C183 C 0.10898 0.34079 0.70527 0.0
H184 H 0.16792 0.34794 0.94239 0.0
C185 C 0.12635 0.37684 0.66413 0.0
C186 C 0.15868 0.40275 0.72319 0.0
H187 H 0.08364 0.32162 0.66015 0.0
H188 H 0.11398 0.38457 0.5881 0.0
C189 C 0.1739 0.39153 0.82123 0.0
C190 C 0.69765 0.80953 0.86467 0.0
C191 C 0.72331 0.80214 0.80924 0.0
H192 H 0.64244 0.7969 0.86876 0.0
C193 C 0.71284 0.77727 0.70652 0.0
H194 H 0.70505 0.82865 0.94382 0.0
C195 C 0.67693 0.75878 0.66423 0.0
C196 C 0.65088 0.76519 0.72266 0.0
H197 H 0.73212 0.77111 0.66188 0.0
H198 H 0.6694 0.73884 0.58787 0.0
C199 C 0.66183 0.79142 0.82118 0.0
C200 C 0.27561 0.94467 0.70013 0.0
C201 C 0.25014 0.92959 0.80112 0.0
H202 H 0.31494 0.94061 0.58295 0.0
C203 C 0.24267 0.89634 0.85476 0.0
H204 H 0.28186 0.97029 0.65691 0.0
C205 C 0.26127 0.87908 0.81132 0.0
C206 C 0.28808 0.89502 0.71462 0.0
H207 H 0.22311 0.8841 0.93258 0.0
H208 H 0.25567 0.85401 0.85755 0.0
C209 C 0.29458 0.92769 0.65789 0.0
C210 C 0.37395 0.14807 0.10441 0.0
C211 C 0.38756 0.12907 0.17376 0.0
H212 H 0.32791 0.14499 0.00625 0.0
C213 C 0.36559 0.09171 0.19177 0.0
H214 H 0.39049 0.17695 0.08953 0.0
C215 C 0.33075 0.07347 0.14061 0.0
C216 C 0.31667 0.09235 0.07374 0.0
H217 H 0.3755 0.07641 0.24434 0.0
H218 H 0.31442 0.0446 0.1565 0.0
C219 C 0.33835 0.12989 0.05693 0.0
C220 C 0.94382 0.27849 0.0385 0.0
C221 C 0.9189 0.26428 0.14141 0.0
H222 H 0.98234 0.27327 0.92049 0.0
C223 C 0.91155 0.23136 0.19792 0.0
H224 H 0.94997 0.30382 -0.00696 0.0
C225 C 0.92972 0.21358 0.15527 0.0
C226 C 0.95599 0.22867 0.05652 0.0
H227 H 0.89239 0.21978 0.27725 0.0
H228 H 0.92425 0.18881 0.20363 0.0
C229 C 0.96237 0.261 -0.00294 0.0
C230 C 0.83951 0.72445 0.15847 0.0
C231 C 0.8243 0.73571 0.06048 0.0
H232 H 0.83352 0.68082 0.27937 0.0
C233 C 0.79198 0.70981 0.00132 0.0
H234 H 0.86428 0.74372 0.20658 0.0
C235 C 0.77462 0.67373 0.04225 0.0
C236 C 0.78895 0.66293 0.14438 0.0
H237 H 0.77962 0.71755 0.92532 0.0
H238 H 0.74929 0.65457 -0.00298 0.0
C239 C 0.82185 0.68846 0.20063 0.0
C240 C 0.03186 0.47646 0.53009 0.0
C241 C 0.05744 0.46905 0.47415 0.0
H242 H 0.97663 0.46377 0.53535 0.0
C243 C 0.04683 0.4441 0.37165 0.0
H244 H 0.03937 0.49565 0.60908 0.0
C245 C 1.01085 0.42554 0.33014 0.0
C246 C 0.98488 0.43196 0.38914 0.0
H247 H 0.06605 0.43792 0.32663 0.0
H248 H 1.00322 0.40554 0.25396 0.0
C249 C 0.99596 0.45828 0.48738 0.0
C250 C 0.57717 0.56445 0.53187 0.0
C251 C 0.5846 0.59731 0.47468 0.0
H252 H 0.58978 0.52184 0.53878 0.0
C253 C 0.6095 0.61133 0.37167 0.0
H254 H 0.55802 0.55301 0.61128 0.0
C255 C 0.62798 0.59372 0.33086 0.0
C256 C 0.62155 0.56147 0.39108 0.0
H257 H 0.61569 0.63661 0.32568 0.0
H258 H 0.64794 0.60586 0.25422 0.0
C259 C 0.59528 0.54655 0.48986 0.0
C260 C 0.46187 0.04439 0.31903 0.0
C261 C 0.49405 0.06992 0.38013 0.0
H262 H 0.41845 0.98943 0.31379 0.0
C263 C 0.50834 0.05818 0.47986 0.0
H264 H 0.45012 0.05247 0.24192 0.0
C265 C 0.48995 0.02221 0.52193 0.0
C266 C 0.45712 0.9971 0.46423 0.0
H267 H 0.53298 0.07707 0.52951 0.0
H268 H 0.50098 1.01428 0.60199 0.0
C269 C 0.4437 1.00828 0.36022 0.0
C270 C 0.1201 0.10853 0.1315 0.0
C271 C 0.15205 0.12231 0.05855 0.0
H272 H 0.07234 0.11099 0.17274 0.0
C273 C 0.16157 0.15193 0.97551 0.0
H274 H 0.11198 0.08564 0.19582 0.0
C275 C 0.13882 0.16662 0.96212 0.0
C276 C 0.10591 0.15162 0.03032 0.0
H277 H 0.18601 0.16297 0.91761 0.0
H278 H 0.1464 0.18885 0.89508 0.0
C279 C 0.09722 0.1229 0.11714 0.0
C280 C 0.88657 0.98074 0.96878 0.0
C281 C 0.90146 0.96258 0.03586 0.0
H282 H 0.8907 0.03183 0.92492 0.0
C283 C 0.93048 0.98239 0.12147 0.0
H284 H 0.86412 0.96627 0.9027 0.0
C285 C 0.94529 0.01967 0.1355 0.0
C286 C 0.93164 0.03809 0.06355 0.0
H287 H 0.94233 0.96923 0.17624 0.0
H288 H 0.96841 0.03425 0.19876 0.0
C289 C 0.90168 0.01823 0.98198 0.0
C290 C 0.03304 0.93661 0.12834 0.0
C291 C 1.01481 0.9034 0.06317 0.0
H292 H 0.08322 0.98511 0.16074 0.0
C293 C 0.0347 0.89262 -0.01541 0.0
H294 H 1.01839 0.9457 0.18896 0.0
C295 C 0.07202 0.91525 0.96808 0.0
C296 C 0.09001 0.94925 0.0287 0.0
H297 H 1.02124 0.8672 0.9326 0.0
H298 H 0.08652 0.90656 0.90488 0.0
C299 C 0.07018 0.95934 0.11091 0.0
C300 C 0.76247 0.45534 0.45322 0.0
C301 C 0.77146 0.48443 0.36786 0.0
H302 H 0.77699 0.41781 0.53088 0.0
C303 C 0.80466 0.4998 0.30144 0.0
H304 H 0.73736 0.44313 0.5075 0.0
C305 C 0.82743 0.48514 0.31513 0.0
C306 C 0.8176 0.45516 0.39659 0.0
H307 H 0.81248 0.52232 0.23559 0.0
H308 H 0.85213 0.49651 0.25861 0.0
C309 C 0.78533 0.44098 0.46778 0.0
C310 C 0.56642 0.35068 0.33027 0.0
C311 C 0.5974 0.37092 0.40691 0.0
H312 H 0.52802 0.29835 0.25571 0.0
C313 C 0.61197 0.35282 0.4757 0.0
H314 H 0.55471 0.36402 0.27578 0.0
C315 C 0.59712 0.31551 0.46268 0.0
C316 C 0.56709 0.29533 0.3816 0.0
H317 H 0.63586 0.36768 0.53521 0.0
H318 H 0.60973 0.30259 0.51435 0.0
C319 C 0.55121 0.31313 0.31844 0.0
C320 C 0.7014 0.26867 0.47031 0.0
C321 C 0.68305 0.23636 0.39999 0.0
H322 H 0.75168 0.31649 0.50805 0.0
C323 C 0.7029 0.22622 0.31823 0.0
H324 H 0.68681 0.27723 0.53367 0.0
C325 C 0.7403 0.2488 0.30316 0.0
C326 C 0.75836 0.28207 0.36856 0.0
H327 H 0.68934 0.20146 0.26239 0.0
H328 H 0.75477 0.24079 0.23699 0.0
C329 C 0.73858 0.29132 0.45445 0.0
C330 C 0.49445 0.81921 0.64172 0.0
C331 C 0.48434 0.78932 0.72403 0.0
H332 H 0.47984 0.85642 0.55987 0.0
C333 C 0.452 0.77542 0.79453 0.0
H334 H 0.51923 0.83036 0.58573 0.0
C335 C 0.42931 0.78992 0.77838 0.0
C336 C 0.43854 0.81887 0.69203 0.0
H337 H 0.44345 0.75234 0.85828 0.0
H338 H 0.40412 0.77789 0.83216 0.0
C339 C 0.47184 0.83401 0.6264 0.0
C340 C 0.26487 0.64976 0.78088 0.0
C341 C 0.23567 0.62962 0.69636 0.0
H342 H 0.30264 0.70187 0.85675 0.0
C343 C 0.22035 0.64743 0.62963 0.0
H344 H 0.27705 0.63687 0.83535 0.0
C345 C 0.23517 0.68489 0.64216 0.0
C346 C 0.26527 0.70508 0.72273 0.0
H347 H 0.19775 0.6327 0.56439 0.0
H348 H 0.22384 0.69821 0.58542 0.0
C349 C 0.27939 0.68702 0.79428 0.0
C350 C 0.4044 0.62455 0.78435 0.0
C351 C 0.42434 0.6155 0.69847 0.0
H352 H 0.35249 0.61012 0.86316 0.0
C353 C 0.40645 0.58231 0.63252 0.0
H354 H 0.41738 0.64966 0.83833 0.0
C355 C 0.36906 0.55959 0.64706 0.0
C356 C 0.34904 0.56949 0.7289 0.0
H357 H 0.42105 0.57445 0.56633 0.0
H358 H 0.35564 0.5349 0.59081 0.0
C359 C 0.36722 0.60174 0.79975 0.0
C360 C 0.05854 0.2023 0.58411 0.0
C361 C 1.02241 0.1811 0.62399 0.0
H362 H 0.09497 0.22672 0.42378 0.0
C363 C 0.99488 0.16779 0.53023 0.0
H364 H 0.08026 0.21279 0.65463 0.0
C365 C 1.00327 0.17547 0.3987 0.0
C366 C 0.03933 0.19684 0.35866 0.0
H367 H 0.9668 0.15128 0.5584 0.0
H368 H 0.98147 0.16485 0.32853 0.0
C369 C 0.06693 0.21017 0.45231 0.0
C370 C 0.88512 0.8356 0.53373 0.0
C371 C 0.87183 0.84986 0.62763 0.0
H372 H 0.88796 0.82501 0.33206 0.0
C373 C 0.85058 0.86475 0.588 0.0
H374 H 0.90167 0.82405 0.56169 0.0
C375 C 0.84262 0.86519 0.45631 0.0
C376 C 0.85592 0.85087 0.36254 0.0
H377 H 0.84012 0.87602 0.65863 0.0
H378 H 0.82602 0.87665 0.42798 0.0
C379 C 0.87735 0.83622 0.40232 0.0
C380 C 0.2183 0.05821 0.52719 0.0
C381 C 0.20386 0.03081 0.62167 0.0
H382 H 0.2282 0.07128 0.32498 0.0
C383 C 0.18787 0.99455 0.58258 0.0
H384 H 0.23067 0.08638 0.55474 0.0
C385 C 0.18655 0.98589 0.4508 0.0
C386 C 0.20106 1.01337 0.35644 0.0
H387 H 0.17642 0.97293 0.65368 0.0
H388 H 0.17429 0.95776 0.42287 0.0
C389 C 0.21679 0.04957 0.39572 0.0
C390 C 0.7324 0.54303 0.78923 0.0
C391 C 0.70482 0.52963 0.69549 0.0
H392 H 0.74572 0.54559 -0.00843 0.0
C393 C 0.66877 0.50804 0.73545 0.0
H394 H 0.76042 0.55975 0.76081 0.0
C395 C 0.66039 0.50022 0.86697 0.0
C396 C 0.68791 0.51362 0.96084 0.0
H397 H 0.64698 0.49735 0.66523 0.0
H398 H 0.63233 0.48356 0.89506 0.0
C399 C 0.72401 0.53504 0.92102 0.0
C400 C 0.51145 0.19885 0.79316 0.0
C401 C 0.52478 0.18453 0.69964 0.0
H402 H 0.50847 0.20918 -0.00463 0.0
C403 C 0.54571 0.16932 0.73948 0.0
H404 H 0.49527 0.21075 0.76462 0.0
C405 C 0.55289 0.16809 0.87098 0.0
C406 C 0.53949 0.18227 0.96463 0.0
H407 H 0.5563 0.15809 0.66923 0.0
H408 H 0.56904 0.15612 0.89921 0.0
C409 C 0.51881 0.19778 0.92489 0.0
C410 C 0.85569 0.32087 0.78642 0.0
C411 C 0.86994 0.34848 0.69252 0.0
H412 H 0.84489 0.30751 -0.01117 0.0
C413 C 0.88452 0.38453 0.73221 0.0
H414 H 0.84428 0.29284 0.75816 0.0
C415 C 0.88512 0.39289 0.86364 0.0
C416 C 0.87092 0.36534 0.95766 0.0
H417 H 0.89569 0.40634 0.66185 0.0
H418 H 0.89661 0.42095 0.89154 0.0
C419 C 0.85611 0.32924 0.91813 0.0
C420 C 0.39125 0.86941 0.24116 0.0
C421 C 0.35515 0.84807 0.28107 0.0
H422 H 0.42763 0.89402 0.08081 0.0
C423 C 0.32761 0.83468 0.18733 0.0
H424 H 0.41298 0.87995 0.31164 0.0
C425 C 0.33596 0.84244 0.0558 0.0
C426 C 0.372 0.86396 0.01573 0.0
H427 H 0.29954 0.81807 0.21551 0.0
H428 H 0.31415 0.83176 -0.01434 0.0
C429 C 0.39961 0.87735 0.10935 0.0
C430 C 0.21167 0.50314 0.06551 0.0
C431 C 0.1903 0.51785 0.02571 0.0
H432 H 0.2359 0.49087 0.22493 0.0
C433 C 0.17699 0.53215 0.11949 0.0
H434 H 0.22228 0.49192 -0.00476 0.0
C435 C 0.18489 0.53165 0.2512 0.0
C436 C 0.2061 0.51672 0.29084 0.0
H437 H 0.16043 0.54366 0.09116 0.0
H438 H 0.17443 0.54292 0.32182 0.0
C439 C 0.21939 0.50246 0.19695 0.0
C440 C 0.52215 0.66265 0.24965 0.0
C441 C 0.53709 0.69877 0.28915 0.0
H442 H 0.51009 0.62622 0.08966 0.0
C443 C 0.55128 0.72631 0.19514 0.0
H444 H 0.51094 0.64093 0.32039 0.0
C445 C 0.55053 0.71793 0.0637 0.0
C446 C 0.53582 0.68187 0.02403 0.0
H447 H 0.56286 0.75438 0.22304 0.0
H448 H 0.56168 0.73974 -0.00668 0.0
C449 C 0.52158 0.65426 0.11792 0.0
loop_
_geom_bond_atom_site_label_1
_geom_bond_atom_site_label_2
_geom_bond_distance
_geom_bond_site_symmetry_2
_ccdc_geom_bond_type
Dy0 O4 2.398 . S
Dy0 O5 2.491 1_554 S
Dy0 O6 2.403 . S
Dy0 O7 2.664 . S
Dy0 O11 2.326 . S
Dy0 O15 2.310 1_554 S
Dy0 O16 2.351 . S
C1 O12 1.185 1_554 S
C1 O13 1.355 . S
C2 O4 1.185 1_556 S
C2 O5 1.355 . S
Dy3 O7 2.310 1_655 S
Dy3 O10 2.351 . S
Dy3 O12 2.398 1_554 S
Dy3 O13 2.491 . S
Dy3 O14 2.403 1_554 S
Dy3 O15 2.664 1_654 S
Dy3 O17 2.326 1_654 S
O4 Dy0 2.398 . S
O4 C2 1.185 1_554 S
O5 Dy0 2.491 1_556 S
O5 C2 1.355 . S
O6 Dy0 2.403 . S
O6 C8 1.254 . S
O7 Dy0 2.664 . S
O7 Dy3 2.310 1_455 S
O7 C8 1.268 . S
C8 O6 1.254 . S
C8 O7 1.268 . S
C9 O14 1.254 . S
C9 O15 1.268 1_655 S
O10 Dy3 2.351 . S
O10 C18 1.249 . S
O11 Dy0 2.326 . S
O11 C18 1.267 1_455 S
O12 C1 1.185 1_556 S
O12 Dy3 2.398 1_556 S
O13 C1 1.355 . S
O13 Dy3 2.491 . S
O14 Dy3 2.403 1_556 S
O14 C9 1.254 . S
O15 Dy0 2.310 1_556 S
O15 Dy3 2.664 1_456 S
O15 C9 1.268 1_455 S
O16 Dy0 2.351 . S
O16 C19 1.249 1_554 S
O17 Dy3 2.326 1_456 S
O17 C19 1.267 . S
C18 O10 1.249 . S
C18 O11 1.267 1_655 S
C19 O16 1.249 1_556 S
C19 O17 1.267 . S
Dy20 O24 2.398 . S
Dy20 O25 2.491 1_554 S
Dy20 O26 2.403 . S
Dy20 O27 2.664 . S
Dy20 O31 2.326 . S
Dy20 O35 2.310 1_554 S
Dy20 O36 2.351 . S
C21 O32 1.185 1_554 S
C21 O33 1.355 . S
C22 O24 1.185 1_556 S
C22 O25 1.355 . S
Dy23 O27 2.310 . S
Dy23 O30 2.351 . S
Dy23 O32 2.398 1_554 S
Dy23 O33 2.491 . S
Dy23 O34 2.403 1_554 S
Dy23 O35 2.664 1_554 S
Dy23 O37 2.326 1_554 S
O24 Dy20 2.398 . S
O24 C22 1.185 1_554 S
O25 Dy20 2.491 1_556 S
O25 C22 1.355 . S
O26 Dy20 2.403 . S
O26 C28 1.254 . S
O27 Dy20 2.664 . S
O27 Dy23 2.310 . S
O27 C28 1.268 . S
C28 O26 1.254 . S
C28 O27 1.268 . S
C29 O34 1.254 . S
C29 O35 1.268 . S
O30 Dy23 2.351 . S
O30 C38 1.249 . S
O31 Dy20 2.326 . S
O31 C38 1.267 . S
O32 C21 1.185 1_556 S
O32 Dy23 2.398 1_556 S
O33 C21 1.355 . S
O33 Dy23 2.491 . S
O34 Dy23 2.403 1_556 S
O34 C29 1.254 . S
O35 Dy20 2.310 1_556 S
O35 Dy23 2.664 1_556 S
O35 C29 1.268 . S
O36 Dy20 2.351 . S
O36 C39 1.249 1_554 S
O37 Dy23 2.326 1_556 S
O37 C39 1.267 . S
C38 O30 1.249 . S
C38 O31 1.267 . S
C39 O36 1.249 1_556 S
C39 O37 1.267 . S
Dy40 O44 2.398 . S
Dy40 O45 2.491 1_554 S
Dy40 O46 2.403 . S
Dy40 O47 2.664 1_565 S
Dy40 O51 2.326 1_565 S
Dy40 O55 2.281 1_564 S
Dy40 O56 2.351 . S
C41 O52 1.185 1_554 S
C41 O53 1.355 . S
C42 O44 1.185 1_556 S
C42 O45 1.355 . S
Dy43 O47 2.310 . S
Dy43 O50 2.351 . S
Dy43 O52 2.398 1_554 S
Dy43 O53 2.491 . S
Dy43 O54 2.403 1_554 S
Dy43 O55 2.697 1_554 S
Dy43 O57 2.326 1_544 S
O44 Dy40 2.398 . S
O44 C42 1.185 1_554 S
O45 Dy40 2.491 1_556 S
O45 C42 1.355 . S
O46 Dy40 2.403 . S
O46 C48 1.254 . S
O47 Dy40 2.664 1_545 S
O47 Dy43 2.310 . S
O47 C48 1.268 1_545 S
C48 O46 1.254 . S
C48 O47 1.268 1_565 S
C49 O54 1.254 . S
C49 O55 1.290 . S
O50 Dy43 2.351 . S
O50 C58 1.249 . S
O51 Dy40 2.326 1_545 S
O51 C58 1.267 . S
O52 C41 1.185 1_556 S
O52 Dy43 2.398 1_556 S
O53 C41 1.355 . S
O53 Dy43 2.491 . S
O54 Dy43 2.403 1_556 S
O54 C49 1.254 . S
O55 Dy40 2.281 1_546 S
O55 Dy43 2.697 1_556 S
O55 C49 1.290 . S
O56 Dy40 2.351 . S
O56 C59 1.249 1_554 S
O57 Dy43 2.326 1_566 S
O57 C59 1.267 . S
C58 O50 1.249 . S
C58 O51 1.267 . S
C59 O56 1.249 1_556 S
C59 O57 1.267 . S
Dy60 O64 2.398 . S
Dy60 O65 2.491 . S
Dy60 O66 2.403 . S
Dy60 O67 2.664 . S
Dy60 O71 2.326 . S
Dy60 O75 2.310 . S
Dy60 O76 2.351 . S
C61 O72 1.185 . S
C61 O73 1.355 . S
C62 O64 1.185 . S
C62 O65 1.355 . S
Dy63 O67 2.310 . S
Dy63 O70 2.351 . S
Dy63 O72 2.398 . S
Dy63 O73 2.491 . S
Dy63 O74 2.403 . S
Dy63 O75 2.664 . S
Dy63 O77 2.326 . S
O64 Dy60 2.398 . S
O64 C62 1.185 . S
O65 Dy60 2.491 . S
O65 C62 1.355 . S
O66 Dy60 2.403 . S
O66 C68 1.254 . S
O67 Dy60 2.664 . S
O67 Dy63 2.310 . S
O67 C68 1.268 . S
C68 O66 1.254 . S
C68 O67 1.268 . S
C69 O74 1.254 . S
C69 O75 1.268 . S
O70 Dy63 2.351 . S
O70 C78 1.249 . S
O71 Dy60 2.326 . S
O71 C78 1.267 . S
O72 C61 1.185 . S
O72 Dy63 2.398 . S
O73 C61 1.355 . S
O73 Dy63 2.491 . S
O74 Dy63 2.403 . S
O74 C69 1.254 . S
O75 Dy60 2.310 . S
O75 Dy63 2.664 . S
O75 C69 1.268 . S
O76 Dy60 2.351 . S
O76 C79 1.249 . S
O77 Dy63 2.326 . S
O77 C79 1.267 . S
C78 O70 1.249 . S
C78 O71 1.267 . S
C79 O76 1.249 . S
C79 O77 1.267 . S
Dy80 O84 2.398 . S
Dy80 O85 2.491 . S
Dy80 O86 2.403 . S
Dy80 O87 2.664 . S
Dy80 O91 2.326 . S
Dy80 O95 2.310 . S
Dy80 O96 2.351 . S
C81 O92 1.185 . S
C81 O93 1.355 . S
C82 O84 1.185 . S
C82 O85 1.355 . S
Dy83 O87 2.310 . S
Dy83 O90 2.351 . S
Dy83 O92 2.398 . S
Dy83 O93 2.491 . S
Dy83 O94 2.403 . S
Dy83 O95 2.664 . S
Dy83 O97 2.326 . S
O84 Dy80 2.398 . S
O84 C82 1.185 . S
O85 Dy80 2.491 . S
O85 C82 1.355 . S
O86 Dy80 2.403 . S
O86 C88 1.254 . S
O87 Dy80 2.664 . S
O87 Dy83 2.310 . S
O87 C88 1.268 . S
C88 O86 1.254 . S
C88 O87 1.268 . S
C89 O94 1.254 . S
C89 O95 1.268 . S
O90 Dy83 2.351 . S
O90 C98 1.249 . S
O91 Dy80 2.326 . S
O91 C98 1.267 . S
O92 C81 1.185 . S
O92 Dy83 2.398 . S
O93 C81 1.355 . S
O93 Dy83 2.491 . S
O94 Dy83 2.403 . S
O94 C89 1.254 . S
O95 Dy80 2.310 . S
O95 Dy83 2.664 . S
O95 C89 1.268 . S
O96 Dy80 2.351 . S
O96 C99 1.249 . S
O97 Dy83 2.326 . S
O97 C99 1.267 . S
C98 O90 1.249 . S
C98 O91 1.267 . S
C99 O96 1.249 . S
C99 O97 1.267 . S
Dy100 O104 2.398 . S
Dy100 O105 2.491 . S
Dy100 O106 2.403 . S
Dy100 O107 2.664 . S
Dy100 O111 2.326 . S
Dy100 O115 2.310 . S
Dy100 O116 2.351 . S
C101 O112 1.185 . S
C101 O113 1.355 . S
C102 O104 1.185 . S
C102 O105 1.355 . S
Dy103 O107 2.310 . S
Dy103 O110 2.351 . S
Dy103 O112 2.398 . S
Dy103 O113 2.491 . S
Dy103 O114 2.403 . S
Dy103 O115 2.664 . S
Dy103 O117 2.326 . S
O104 Dy100 2.398 . S
O104 C102 1.185 . S
O105 Dy100 2.491 . S
O105 C102 1.355 . S
O106 Dy100 2.403 . S
O106 C108 1.254 . S
O107 Dy100 2.664 . S
O107 Dy103 2.310 . S
O107 C108 1.268 . S
C108 O106 1.254 . S
C108 O107 1.268 . S
C109 O114 1.254 . S
C109 O115 1.268 . S
O110 Dy103 2.351 . S
O110 C118 1.249 . S
O111 Dy100 2.326 . S
O111 C118 1.267 . S
O112 C101 1.185 . S
O112 Dy103 2.398 . S
O113 C101 1.355 . S
O113 Dy103 2.491 . S
O114 Dy103 2.403 . S
O114 C109 1.254 . S
O115 Dy100 2.310 . S
O115 Dy103 2.664 . S
O115 C109 1.268 . S
O116 Dy100 2.351 . S
O116 C119 1.249 . S
O117 Dy103 2.326 . S
O117 C119 1.267 . S
C118 O110 1.249 . S
C118 O111 1.267 . S
C119 O116 1.249 . S
C119 O117 1.267 . S
Dy120 O124 2.398 . S
Dy120 O125 2.491 . S
Dy120 O126 2.403 . S
Dy120 O127 2.664 . S
Dy120 O131 2.326 . S
Dy120 O135 2.310 . S
Dy120 O136 2.351 . S
C121 O132 1.185 . S
C121 O133 1.355 . S
C122 O124 1.185 . S
C122 O125 1.355 . S
Dy123 O127 2.310 . S
Dy123 O130 2.351 . S
Dy123 O132 2.398 . S
Dy123 O133 2.491 . S
Dy123 O134 2.403 . S
Dy123 O135 2.664 . S
Dy123 O137 2.326 . S
O124 Dy120 2.398 . S
O124 C122 1.185 . S
O125 Dy120 2.491 . S
O125 C122 1.355 . S
O126 Dy120 2.403 . S
O126 C128 1.254 . S
O127 Dy120 2.664 . S
O127 Dy123 2.310 . S
O127 C128 1.268 . S
C128 O126 1.254 . S
C128 O127 1.268 . S
C129 O134 1.254 . S
C129 O135 1.268 . S
O130 Dy123 2.351 . S
O130 C138 1.249 . S
O131 Dy120 2.326 . S
O131 C138 1.267 . S
O132 C121 1.185 . S
O132 Dy123 2.398 . S
O133 C121 1.355 . S
O133 Dy123 2.491 . S
O134 Dy123 2.403 . S
O134 C129 1.254 . S
O135 Dy120 2.310 . S
O135 Dy123 2.664 . S
O135 C129 1.268 . S
O136 Dy120 2.351 . S
O136 C139 1.249 . S
O137 Dy123 2.326 . S
O137 C139 1.267 . S
C138 O130 1.249 . S
C138 O131 1.267 . S
C139 O136 1.249 . S
C139 O137 1.267 . S
Dy140 O144 2.398 . S
Dy140 O145 2.491 . S
Dy140 O146 2.403 . S
Dy140 O147 2.664 . S
Dy140 O151 2.326 . S
Dy140 O155 2.310 . S
Dy140 O156 2.351 . S
C141 O152 1.185 . S
C141 O153 1.355 . S
C142 O144 1.185 . S
C142 O145 1.355 . S
Dy143 O147 2.310 . S
Dy143 O150 2.351 . S
Dy143 O152 2.398 . S
Dy143 O153 2.491 . S
Dy143 O154 2.403 . S
Dy143 O155 2.664 . S
Dy143 O157 2.326 . S
O144 Dy140 2.398 . S
O144 C142 1.185 . S
O145 Dy140 2.491 . S
O145 C142 1.355 . S
O146 Dy140 2.403 . S
O146 C148 1.254 . S
O147 Dy140 2.664 . S
O147 Dy143 2.310 . S
O147 C148 1.268 . S
C148 O146 1.254 . S
C148 O147 1.268 . S
C149 O154 1.254 . S
C149 O155 1.268 . S
O150 Dy143 2.351 . S
O150 C158 1.249 . S
O151 Dy140 2.326 . S
O151 C158 1.267 . S
O152 C141 1.185 . S
O152 Dy143 2.398 . S
O153 C141 1.355 . S
O153 Dy143 2.491 . S
O154 Dy143 2.403 . S
O154 C149 1.254 . S
O155 Dy140 2.310 . S
O155 Dy143 2.664 . S
O155 C149 1.268 . S
O156 Dy140 2.351 . S
O156 C159 1.249 . S
O157 Dy143 2.326 . S
O157 C159 1.267 . S
C158 O150 1.249 . S
C158 O151 1.267 . S
C159 O156 1.249 . S
C159 O157 1.267 . S
Dy160 O164 2.398 . S
Dy160 O165 2.491 . S
Dy160 O166 2.403 . S
Dy160 O167 2.664 . S
Dy160 O171 2.326 . S
Dy160 O175 2.310 . S
Dy160 O176 2.351 . S
C161 O172 1.185 . S
C161 O173 1.355 . S
C162 O164 1.185 . S
C162 O165 1.355 . S
Dy163 O167 2.310 . S
Dy163 O170 2.351 . S
Dy163 O172 2.398 . S
Dy163 O173 2.491 . S
Dy163 O174 2.403 . S
Dy163 O175 2.664 . S
Dy163 O177 2.326 . S
O164 Dy160 2.398 . S
O164 C162 1.185 . S
O165 Dy160 2.491 . S
O165 C162 1.355 . S
O166 Dy160 2.403 . S
O166 C168 1.254 . S
O167 Dy160 2.664 . S
O167 Dy163 2.310 . S
O167 C168 1.268 . S
C168 O166 1.254 . S
C168 O167 1.268 . S
C169 O174 1.254 . S
C169 O175 1.268 . S
O170 Dy163 2.351 . S
O170 C178 1.249 . S
O171 Dy160 2.326 . S
O171 C178 1.267 . S
O172 C161 1.185 . S
O172 Dy163 2.398 . S
O173 C161 1.355 . S
O173 Dy163 2.491 . S
O174 Dy163 2.403 . S
O174 C169 1.254 . S
O175 Dy160 2.310 . S
O175 Dy163 2.664 . S
O175 C169 1.268 . S
O176 Dy160 2.351 . S
O176 C179 1.249 . S
O177 Dy163 2.326 . S
O177 C179 1.267 . S
C178 O170 1.249 . S
C178 O171 1.267 . S
C179 O176 1.249 . S
C179 O177 1.267 . S
C180 C181 1.387 . S
C180 H184 0.950 . S
C180 C189 1.390 . S
C181 C180 1.387 . S
C181 C183 1.387 . S
H182 C189 0.950 . S
C183 C181 1.387 . S
C183 C185 1.390 . S
C183 H187 0.950 . S
H184 C180 0.950 . S
C185 C183 1.390 . S
C185 C186 1.387 . S
C185 H188 0.950 . S
C186 C185 1.387 . S
C186 C189 1.387 . S
H187 C183 0.950 . S
H188 C185 0.950 . S
C189 C180 1.390 . S
C189 H182 0.950 . S
C189 C186 1.387 . S
C190 C191 1.387 . S
C190 H194 0.950 1_556 S
C190 C199 1.390 . S
C191 C190 1.387 . S
C191 C193 1.387 . S
H192 C199 0.950 . S
C193 C191 1.387 . S
C193 C195 1.390 . S
C193 H197 0.950 . S
H194 C190 0.950 1_554 S
C195 C193 1.390 . S
C195 C196 1.387 . S
C195 H198 0.950 . S
C196 C195 1.387 . S
C196 C199 1.387 . S
H197 C193 0.950 . S
H198 C195 0.950 . S
C199 C190 1.390 . S
C199 H192 0.950 . S
C199 C196 1.387 . S
C200 C201 1.387 . S
C200 H204 0.950 . S
C200 C209 1.390 . S
C201 C200 1.387 . S
C201 C203 1.387 . S
H202 C209 0.950 . S
C203 C201 1.387 . S
C203 C205 1.390 . S
C203 H207 0.950 1_556 S
H204 C200 0.950 . S
C205 C203 1.390 . S
C205 C206 1.387 . S
C205 H208 0.950 . S
C206 C205 1.387 . S
C206 C209 1.387 . S
H207 C203 0.950 1_554 S
H208 C205 0.950 . S
C209 C200 1.390 . S
C209 H202 0.950 . S
C209 C206 1.387 . S
C210 C211 1.387 . S
C210 H214 0.950 . S
C210 C219 1.390 . S
C211 C210 1.387 . S
C211 C213 1.387 . S
H212 C219 0.950 1_556 S
C213 C211 1.387 . S
C213 C215 1.390 . S
C213 H217 0.950 . S
H214 C210 0.950 . S
C215 C213 1.390 . S
C215 C216 1.387 . S
C215 H218 0.950 . S
C216 C215 1.387 . S
C216 C219 1.387 . S
H217 C213 0.950 . S
H218 C215 0.950 . S
C219 C210 1.390 . S
C219 H212 0.950 1_554 S
C219 C216 1.387 . S
C220 C221 1.387 . S
C220 H224 0.950 . S
C220 C229 1.390 . S
C221 C220 1.387 . S
C221 C223 1.387 . S
H222 C229 0.950 1_556 S
C223 C221 1.387 . S
C223 C225 1.390 . S
C223 H227 0.950 . S
H224 C220 0.950 . S
C225 C223 1.390 . S
C225 C226 1.387 . S
C225 H228 0.950 . S
C226 C225 1.387 . S
C226 C229 1.387 . S
H227 C223 0.950 . S
H228 C225 0.950 . S
C229 C220 1.390 . S
C229 H222 0.950 1_554 S
C229 C226 1.387 . S
C230 C231 1.387 . S
C230 H234 0.950 . S
C230 C239 1.390 . S
C231 C230 1.387 . S
C231 C233 1.387 . S
H232 C239 0.950 . S
C233 C231 1.387 . S
C233 C235 1.390 . S
C233 H237 0.950 . S
H234 C230 0.950 . S
C235 C233 1.390 . S
C235 C236 1.387 . S
C235 H238 0.950 . S
C236 C235 1.387 . S
C236 C239 1.387 . S
H237 C233 0.950 . S
H238 C235 0.950 . S
C239 C230 1.390 . S
C239 H232 0.950 . S
C239 C236 1.387 . S
C240 C241 1.387 . S
C240 H244 0.950 . S
C240 C249 1.390 1_455 S
C241 C240 1.387 . S
C241 C243 1.387 1_455 S
H242 C249 0.950 . S
C243 C241 1.387 1_655 S
C243 C245 1.390 . S
C243 H247 0.950 . S
H244 C240 0.950 . S
C245 C243 1.390 . S
C245 C246 1.387 . S
C245 H248 0.950 . S
C246 C245 1.387 . S
C246 C249 1.387 . S
H247 C243 0.950 . S
H248 C245 0.950 . S
C249 C240 1.390 1_655 S
C249 H242 0.950 . S
C249 C246 1.387 . S
C250 C251 1.387 . S
C250 H254 0.950 . S
C250 C259 1.390 . S
C251 C250 1.387 . S
C251 C253 1.387 . S
H252 C259 0.950 . S
C253 C251 1.387 . S
C253 C255 1.390 . S
C253 H257 0.950 . S
H254 C250 0.950 . S
C255 C253 1.390 . S
C255 C256 1.387 . S
C255 H258 0.950 . S
C256 C255 1.387 . S
C256 C259 1.387 . S
H257 C253 0.950 . S
H258 C255 0.950 . S
C259 C250 1.390 . S
C259 H252 0.950 . S
C259 C256 1.387 . S
C260 C261 1.387 . S
C260 H264 0.950 . S
C260 C269 1.390 . S
C261 C260 1.387 . S
C261 C263 1.387 . S
H262 C269 0.948 . S
C263 C261 1.387 . S
C263 C265 1.390 . S
C263 H267 0.950 . S
H264 C260 0.950 . S
C265 C263 1.390 . S
C265 C266 1.387 1_545 S
C265 H268 0.971 . S
C266 C265 1.387 1_565 S
C266 C269 1.387 1_565 S
H267 C263 0.950 . S
H268 C265 0.971 . S
C269 C260 1.390 . S
C269 H262 0.948 . S
C269 C266 1.387 1_545 S
C270 C271 1.387 . S
C270 H274 0.950 . S
C270 C279 1.390 . S
C271 C270 1.387 . S
C271 C273 1.387 1_554 S
H272 C279 0.950 . S
C273 C271 1.387 1_556 S
C273 C275 1.390 . S
C273 H277 0.950 . S
H274 C270 0.950 . S
C275 C273 1.390 . S
C275 C276 1.387 1_556 S
C275 H278 0.950 . S
C276 C275 1.387 1_554 S
C276 C279 1.387 . S
H277 C273 0.950 . S
H278 C275 0.950 . S
C279 C270 1.390 . S
C279 H272 0.950 . S
C279 C276 1.387 . S
C280 C281 1.387 . S
C280 H284 0.950 . S
C280 C289 1.390 . S
C281 C280 1.387 . S
C281 C283 1.387 1_554 S
H282 C289 0.950 1_545 S
C283 C281 1.387 1_556 S
C283 C285 1.390 1_556 S
C283 H287 0.951 . S
H284 C280 0.950 . S
C285 C283 1.390 1_554 S
C285 C286 1.387 1_565 S
C285 H288 0.950 1_565 S
C286 C285 1.387 1_545 S
C286 C289 1.387 1_545 S
H287 C283 0.951 . S
H288 C285 0.950 1_545 S
C289 C280 1.390 . S
C289 H282 0.950 1_565 S
C289 C286 1.387 1_565 S
C290 C291 1.387 1_455 S
C290 H294 0.950 . S
C290 C299 1.390 . S
C291 C290 1.387 1_655 S
C291 C293 1.387 1_654 S
H292 C299 0.950 . S
C293 C291 1.387 1_456 S
C293 C295 1.390 . S
C293 H297 0.950 1_455 S
H294 C290 0.950 . S
C295 C293 1.390 . S
C295 C296 1.387 1_556 S
C295 H298 0.950 . S
C296 C295 1.387 1_554 S
C296 C299 1.387 . S
H297 C293 0.950 1_655 S
H298 C295 0.950 . S
C299 C290 1.390 . S
C299 H292 0.950 . S
C299 C296 1.387 . S
C300 C301 1.387 . S
C300 H304 0.950 . S
C300 C309 1.390 . S
C301 C300 1.387 . S
C301 C303 1.387 . S
H302 C309 0.950 . S
C303 C301 1.387 . S
C303 C305 1.390 . S
C303 H307 0.950 . S
H304 C300 0.950 . S
C305 C303 1.390 . S
C305 C306 1.387 . S
C305 H308 0.950 . S
C306 C305 1.387 . S
C306 C309 1.387 . S
H307 C303 0.950 . S
H308 C305 0.950 . S
C309 C300 1.390 . S
C309 H302 0.950 . S
C309 C306 1.387 . S
C310 C311 1.387 . S
C310 H314 0.950 . S
C310 C319 1.390 . S
C311 C310 1.387 . S
C311 C313 1.387 . S
H312 C319 0.950 . S
C313 C311 1.387 . S
C313 C315 1.390 . S
C313 H317 0.950 . S
H314 C310 0.950 . S
C315 C313 1.390 . S
C315 C316 1.387 . S
C315 H318 0.950 . S
C316 C315 1.387 . S
C316 C319 1.387 . S
H317 C313 0.950 . S
H318 C315 0.950 . S
C319 C310 1.390 . S
C319 H312 0.950 . S
C319 C316 1.387 . S
C320 C321 1.387 . S
C320 H324 0.950 . S
C320 C329 1.390 . S
C321 C320 1.387 . S
C321 C323 1.387 . S
H322 C329 0.950 . S
C323 C321 1.387 . S
C323 C325 1.390 . S
C323 H327 0.950 . S
H324 C320 0.950 . S
C325 C323 1.390 . S
C325 C326 1.387 . S
C325 H328 0.950 . S
C326 C325 1.387 . S
C326 C329 1.387 . S
H327 C323 0.950 . S
H328 C325 0.950 . S
C329 C320 1.390 . S
C329 H322 0.950 . S
C329 C326 1.387 . S
C330 C331 1.387 . S
C330 H334 0.950 . S
C330 C339 1.390 . S
C331 C330 1.387 . S
C331 C333 1.387 . S
H332 C339 0.950 . S
C333 C331 1.387 . S
C333 C335 1.390 . S
C333 H337 0.950 . S
H334 C330 0.950 . S
C335 C333 1.390 . S
C335 C336 1.387 . S
C335 H338 0.950 . S
C336 C335 1.387 . S
C336 C339 1.387 . S
H337 C333 0.950 . S
H338 C335 0.950 . S
C339 C330 1.390 . S
C339 H332 0.950 . S
C339 C336 1.387 . S
C340 C341 1.387 . S
C340 H344 0.950 . S
C340 C349 1.390 . S
C341 C340 1.387 . S
C341 C343 1.387 . S
H342 C349 0.950 . S
C343 C341 1.387 . S
C343 C345 1.390 . S
C343 H347 0.950 . S
H344 C340 0.950 . S
C345 C343 1.390 . S
C345 C346 1.387 . S
C345 H348 0.950 . S
C346 C345 1.387 . S
C346 C349 1.387 . S
H347 C343 0.950 . S
H348 C345 0.950 . S
C349 C340 1.390 . S
C349 H342 0.950 . S
C349 C346 1.387 . S
C350 C351 1.387 . S
C350 H354 0.950 . S
C350 C359 1.390 . S
C351 C350 1.387 . S
C351 C353 1.387 . S
H352 C359 0.950 . S
C353 C351 1.387 . S
C353 C355 1.390 . S
C353 H357 0.950 . S
H354 C350 0.950 . S
C355 C353 1.390 . S
C355 C356 1.387 . S
C355 H358 0.950 . S
C356 C355 1.387 . S
C356 C359 1.387 . S
H357 C353 0.950 . S
H358 C355 0.950 . S
C359 C350 1.390 . S
C359 H352 0.950 . S
C359 C356 1.387 . S
C360 C361 1.389 . S
C360 H364 0.950 . S
C360 C369 1.390 . S
C361 C360 1.389 . S
C361 C363 1.389 1_455 S
H362 C369 0.950 . S
C363 C361 1.389 1_655 S
C363 C365 1.390 . S
C363 H367 0.950 . S
H364 C360 0.950 . S
C365 C363 1.390 . S
C365 C366 1.387 1_655 S
C365 H368 0.950 . S
C366 C365 1.387 1_455 S
C366 C369 1.387 . S
H367 C363 0.950 . S
H368 C365 0.950 . S
C369 C360 1.390 . S
C369 H362 0.950 . S
C369 C366 1.387 . S
C370 C371 1.387 . S
C370 H374 0.950 . S
C370 C379 1.390 . S
C371 C370 1.387 . S
C371 C373 1.387 . S
H372 C379 0.950 . S
C373 C371 1.387 . S
C373 C375 1.390 . S
C373 H377 0.950 . S
H374 C370 0.950 . S
C375 C373 1.390 . S
C375 C376 1.387 . S
C375 H378 0.950 . S
C376 C375 1.387 . S
C376 C379 1.387 . S
H377 C373 0.950 . S
H378 C375 0.950 . S
C379 C370 1.390 . S
C379 H372 0.950 . S
C379 C376 1.387 . S
C380 C381 1.387 . S
C380 H384 0.950 . S
C380 C389 1.390 . S
C381 C380 1.387 . S
C381 C383 1.387 1_545 S
H382 C389 0.950 . S
C383 C381 1.387 1_565 S
C383 C385 1.390 . S
C383 H387 0.950 . S
H384 C380 0.950 . S
C385 C383 1.390 . S
C385 C386 1.387 . S
C385 H388 0.950 . S
C386 C385 1.387 . S
C386 C389 1.387 1_565 S
H387 C383 0.950 . S
H388 C385 0.950 . S
C389 C380 1.390 . S
C389 H382 0.950 . S
C389 C386 1.387 1_545 S
C390 C391 1.387 . S
C390 H394 0.950 . S
C390 C399 1.390 . S
C391 C390 1.387 . S
C391 C393 1.387 . S
H392 C399 0.950 . S
C393 C391 1.387 . S
C393 C395 1.390 . S
C393 H397 0.950 . S
H394 C390 0.950 . S
C395 C393 1.390 . S
C395 C396 1.387 . S
C395 H398 0.950 . S
C396 C395 1.387 . S
C396 C399 1.387 . S
H397 C393 0.950 . S
H398 C395 0.950 . S
C399 C390 1.390 . S
C399 H392 0.950 . S
C399 C396 1.387 . S
C400 C401 1.387 . S
C400 H404 0.950 . S
C400 C409 1.390 . S
C401 C400 1.387 . S
C401 C403 1.387 . S
H402 C409 0.950 . S
C403 C401 1.387 . S
C403 C405 1.390 . S
C403 H407 0.950 . S
H404 C400 0.950 . S
C405 C403 1.390 . S
C405 C406 1.387 . S
C405 H408 0.950 . S
C406 C405 1.387 . S
C406 C409 1.387 . S
H407 C403 0.950 . S
H408 C405 0.950 . S
C409 C400 1.390 . S
C409 H402 0.950 . S
C409 C406 1.387 . S
C410 C411 1.387 . S
C410 H414 0.950 . S
C410 C419 1.390 . S
C411 C410 1.387 . S
C411 C413 1.387 . S
H412 C419 0.950 . S
C413 C411 1.387 . S
C413 C415 1.390 . S
C413 H417 0.950 . S
H414 C410 0.950 . S
C415 C413 1.390 . S
C415 C416 1.387 . S
C415 H418 0.950 . S
C416 C415 1.387 . S
C416 C419 1.387 . S
H417 C413 0.950 . S
H418 C415 0.950 . S
C419 C410 1.390 . S
C419 H412 0.950 . S
C419 C416 1.387 . S
C420 C421 1.387 . S
C420 H424 0.950 . S
C420 C429 1.390 . S
C421 C420 1.387 . S
C421 C423 1.387 . S
H422 C429 0.950 . S
C423 C421 1.387 . S
C423 C425 1.390 . S
C423 H427 0.950 . S
H424 C420 0.950 . S
C425 C423 1.390 . S
C425 C426 1.387 . S
C425 H428 0.950 . S
C426 C425 1.387 . S
C426 C429 1.387 . S
H427 C423 0.950 . S
H428 C425 0.950 . S
C429 C420 1.390 . S
C429 H422 0.950 . S
C429 C426 1.387 . S
C430 C431 1.387 . S
C430 H434 0.950 . S
C430 C439 1.390 . S
C431 C430 1.387 . S
C431 C433 1.387 . S
H432 C439 0.950 . S
C433 C431 1.387 . S
C433 C435 1.390 . S
C433 H437 0.950 . S
H434 C430 0.950 . S
C435 C433 1.390 . S
C435 C436 1.387 . S
C435 H438 0.950 . S
C436 C435 1.387 . S
C436 C439 1.387 . S
H437 C433 0.950 . S
H438 C435 0.950 . S
C439 C430 1.390 . S
C439 H432 0.950 . S
C439 C436 1.387 . S
C440 C441 1.387 . S
C440 H444 0.950 . S
C440 C449 1.390 . S
C441 C440 1.387 . S
C441 C443 1.387 . S
H442 C449 0.950 . S
C443 C441 1.387 . S
C443 C445 1.390 . S
C443 H447 0.950 . S
H444 C440 0.950 . S
C445 C443 1.390 . S
C445 C446 1.387 . S
C445 H448 0.950 . S
C446 C445 1.387 . S
C446 C449 1.387 . S
H447 C443 0.950 . S
H448 C445 0.950 . S
C449 C440 1.390 . S
C449 H442 0.950 . S
C449 C446 1.387 . S
C181 C2 1.772 . S
C186 C158 1.702 . S
C191 C22 1.771 . S
C196 C178 1.699 . S
C201 C42 1.770 . S
C206 C138 1.698 . S
C211 C82 1.772 . S
C216 C58 1.702 . S
C221 C102 1.770 . S
C226 C18 1.698 . S
C231 C38 1.702 . S
C236 C62 1.772 . S
C241 C142 1.772 . S
C246 C118 1.702 . S
C251 C162 1.772 . S
C256 C78 1.701 . S
C261 C98 1.698 . S
C266 C122 1.770 . S
C271 C41 1.518 . S
C276 C19 1.544 1_554 S
C281 C39 1.544 1_554 S
C286 C1 1.518 . S
C291 C21 1.518 . S
C296 C59 1.544 1_554 S
C301 C79 1.544 . S
C306 C101 1.517 . S
C311 C61 1.518 . S
C316 C99 1.544 . S
C321 C81 1.518 . S
C326 C119 1.544 . S
C331 C161 1.518 . S
C336 C139 1.544 . S
C341 C159 1.544 . S
C346 C121 1.516 . S
C351 C179 1.544 . S
C356 C141 1.518 . S
C361 C9 1.151 1_455 S
C366 C8 1.153 . S
C371 C29 1.152 . S
C376 C28 1.152 . S
C381 C49 1.153 . S
C386 C48 1.153 . S
C391 C68 1.153 . S
C396 C69 1.153 1_556 S
C401 C88 1.153 . S
C406 C89 1.153 1_556 S
C411 C108 1.154 . S
C416 C109 1.154 1_556 S
C421 C129 1.153 . S
C426 C128 1.153 1_554 S
C431 C148 1.152 1_554 S
C436 C149 1.152 . S
C441 C169 1.154 . S
C446 C168 1.154 1_554 S
