# Generated by pormake.
# Topology wfj, (8)-cn, num edge types: 1
# Building blocks:
#     Node 0, Type 0, BuildingBlock: TAGTUT_clean_sbu_1, # of connection points: 8
#     Node 1, Type 0, BuildingBlock: TAGTUT_clean_sbu_1, # of connection points: 8
#     Node 2, Type 0, BuildingBlock: TAGTUT_clean_sbu_1, # of connection points: 8
#     Node 3, Type 0, BuildingBlock: TAGTUT_clean_sbu_1, # of connection points: 8
#     Node 4, Type 0, BuildingBlock: TAGTUT_clean_sbu_1, # of connection points: 8
#     Node 5, Type 0, BuildingBlock: TAGTUT_clean_sbu_1, # of connection points: 8
#     Node 6, Type 0, BuildingBlock: TAGTUT_clean_sbu_1, # of connection points: 8
#     Node 7, Type 0, BuildingBlock: TAGTUT_clean_sbu_1, # of connection points: 8
#     Node 8, Type 0, BuildingBlock: TAGTUT_clean_sbu_1, # of connection points: 8
#     Node 9, Type 0, BuildingBlock: TAGTUT_clean_sbu_1, # of connection points: 8
#     Node 10, Type 0, BuildingBlock: TAGTUT_clean_sbu_1, # of connection points: 8
#     Node 11, Type 0, BuildingBlock: TAGTUT_clean_sbu_1, # of connection points: 8
#     Node 12, Type 0, BuildingBlock: TAGTUT_clean_sbu_1, # of connection points: 8
#     Node 13, Type 0, BuildingBlock: TAGTUT_clean_sbu_1, # of connection points: 8
#     Node 14, Type 0, BuildingBlock: TAGTUT_clean_sbu_1, # of connection points: 8
#     Node 15, Type 0, BuildingBlock: TAGTUT_clean_sbu_1, # of connection points: 8
#     Edge 16, Type (0, 0), BuildingBlock: XIVTED_clean_linker_0, # of connection points: 2
#     Edge 17, Type (0, 0), BuildingBlock: XIVTED_clean_linker_0, # of connection points: 2
#     Edge 18, Type (0, 0), BuildingBlock: XIVTED_clean_linker_0, # of connection points: 2
#     Edge 19, Type (0, 0), BuildingBlock: XIVTED_clean_linker_0, # of connection points: 2
#     Edge 20, Type (0, 0), BuildingBlock: XIVTED_clean_linker_0, # of connection points: 2
#     Edge 21, Type (0, 0), BuildingBlock: XIVTED_clean_linker_0, # of connection points: 2
#     Edge 22, Type (0, 0), BuildingBlock: XIVTED_clean_linker_0, # of connection points: 2
#     Edge 23, Type (0, 0), BuildingBlock: XIVTED_clean_linker_0, # of connection points: 2
#     Edge 24, Type (0, 0), BuildingBlock: XIVTED_clean_linker_0, # of connection points: 2
#     Edge 25, Type (0, 0), BuildingBlock: XIVTED_clean_linker_0, # of connection points: 2
#     Edge 26, Type (0, 0), BuildingBlock: XIVTED_clean_linker_0, # of connection points: 2
#     Edge 27, Type (0, 0), BuildingBlock: XIVTED_clean_linker_0, # of connection points: 2
#     Edge 28, Type (0, 0), BuildingBlock: XIVTED_clean_linker_0, # of connection points: 2
#     Edge 29, Type (0, 0), BuildingBlock: XIVTED_clean_linker_0, # of connection points: 2
#     Edge 30, Type (0, 0), BuildingBlock: XIVTED_clean_linker_0, # of connection points: 2
#     Edge 31, Type (0, 0), BuildingBlock: XIVTED_clean_linker_0, # of connection points: 2
#     Edge 32, Type (0, 0), BuildingBlock: XIVTED_clean_linker_0, # of connection points: 2
#     Edge 33, Type (0, 0), BuildingBlock: XIVTED_clean_linker_0, # of connection points: 2
#     Edge 34, Type (0, 0), BuildingBlock: XIVTED_clean_linker_0, # of connection points: 2
#     Edge 35, Type (0, 0), BuildingBlock: XIVTED_clean_linker_0, # of connection points: 2
#     Edge 36, Type (0, 0), BuildingBlock: XIVTED_clean_linker_0, # of connection points: 2
#     Edge 37, Type (0, 0), BuildingBlock: XIVTED_clean_linker_0, # of connection points: 2
#     Edge 38, Type (0, 0), BuildingBlock: XIVTED_clean_linker_0, # of connection points: 2
#     Edge 39, Type (0, 0), BuildingBlock: XIVTED_clean_linker_0, # of connection points: 2
#     Edge 40, Type (0, 0), BuildingBlock: XIVTED_clean_linker_0, # of connection points: 2
#     Edge 41, Type (0, 0), BuildingBlock: XIVTED_clean_linker_0, # of connection points: 2
#     Edge 42, Type (0, 0), BuildingBlock: XIVTED_clean_linker_0, # of connection points: 2
#     Edge 43, Type (0, 0), BuildingBlock: XIVTED_clean_linker_0, # of connection points: 2
#     Edge 44, Type (0, 0), BuildingBlock: XIVTED_clean_linker_0, # of connection points: 2
#     Edge 45, Type (0, 0), BuildingBlock: XIVTED_clean_linker_0, # of connection points: 2
#     Edge 46, Type (0, 0), BuildingBlock: XIVTED_clean_linker_0, # of connection points: 2
#     Edge 47, Type (0, 0), BuildingBlock: XIVTED_clean_linker_0, # of connection points: 2
#     Edge 48, Type (0, 0), BuildingBlock: XIVTED_clean_linker_0, # of connection points: 2
#     Edge 49, Type (0, 0), BuildingBlock: XIVTED_clean_linker_0, # of connection points: 2
#     Edge 50, Type (0, 0), BuildingBlock: XIVTED_clean_linker_0, # of connection points: 2
#     Edge 51, Type (0, 0), BuildingBlock: XIVTED_clean_linker_0, # of connection points: 2
#     Edge 52, Type (0, 0), BuildingBlock: XIVTED_clean_linker_0, # of connection points: 2
#     Edge 53, Type (0, 0), BuildingBlock: XIVTED_clean_linker_0, # of connection points: 2
#     Edge 54, Type (0, 0), BuildingBlock: XIVTED_clean_linker_0, # of connection points: 2
#     Edge 55, Type (0, 0), BuildingBlock: XIVTED_clean_linker_0, # of connection points: 2
#     Edge 56, Type (0, 0), BuildingBlock: XIVTED_clean_linker_0, # of connection points: 2
#     Edge 57, Type (0, 0), BuildingBlock: XIVTED_clean_linker_0, # of connection points: 2
#     Edge 58, Type (0, 0), BuildingBlock: XIVTED_clean_linker_0, # of connection points: 2
#     Edge 59, Type (0, 0), BuildingBlock: XIVTED_clean_linker_0, # of connection points: 2
#     Edge 60, Type (0, 0), BuildingBlock: XIVTED_clean_linker_0, # of connection points: 2
#     Edge 61, Type (0, 0), BuildingBlock: XIVTED_clean_linker_0, # of connection points: 2
#     Edge 62, Type (0, 0), BuildingBlock: XIVTED_clean_linker_0, # of connection points: 2
#     Edge 63, Type (0, 0), BuildingBlock: XIVTED_clean_linker_0, # of connection points: 2
#     Edge 64, Type (0, 0), BuildingBlock: XIVTED_clean_linker_0, # of connection points: 2
#     Edge 65, Type (0, 0), BuildingBlock: XIVTED_clean_linker_0, # of connection points: 2
#     Edge 66, Type (0, 0), BuildingBlock: XIVTED_clean_linker_0, # of connection points: 2
#     Edge 67, Type (0, 0), BuildingBlock: XIVTED_clean_linker_0, # of connection points: 2
#     Edge 68, Type (0, 0), BuildingBlock: XIVTED_clean_linker_0, # of connection points: 2
#     Edge 69, Type (0, 0), BuildingBlock: XIVTED_clean_linker_0, # of connection points: 2
#     Edge 70, Type (0, 0), BuildingBlock: XIVTED_clean_linker_0, # of connection points: 2
#     Edge 71, Type (0, 0), BuildingBlock: XIVTED_clean_linker_0, # of connection points: 2
#     Edge 72, Type (0, 0), BuildingBlock: XIVTED_clean_linker_0, # of connection points: 2
#     Edge 73, Type (0, 0), BuildingBlock: XIVTED_clean_linker_0, # of connection points: 2
#     Edge 74, Type (0, 0), BuildingBlock: XIVTED_clean_linker_0, # of connection points: 2
#     Edge 75, Type (0, 0), BuildingBlock: XIVTED_clean_linker_0, # of connection points: 2
#     Edge 76, Type (0, 0), BuildingBlock: XIVTED_clean_linker_0, # of connection points: 2
#     Edge 77, Type (0, 0), BuildingBlock: XIVTED_clean_linker_0, # of connection points: 2
#     Edge 78, Type (0, 0), BuildingBlock: XIVTED_clean_linker_0, # of connection points: 2
#     Edge 79, Type (0, 0), BuildingBlock: XIVTED_clean_linker_0, # of connection points: 2
# Relax obj value: 0.295
# Max RMSD: 0.278
# Mean RMSD: 0.278
data_MOF--net-wfj--node1-TAGTUT_clean_sbu_1--edge1-XIVTED_clean_linker_0
_symmetry_space_group_name_H-M    P1
_symmetry_Int_Tables_number       1
_symmetry_cell_setting            triclinic
loop_
_symmetry_equiv_pos_as_xyz
'x, y, z'
_cell_length_a     61.930842
_cell_length_b     61.8293
_cell_length_c     16.270533
_cell_angle_alpha  90.055633
_cell_angle_beta   89.720728
_cell_angle_gamma 90.121714
loop_
_atom_site_label
_atom_site_type_symbol
_atom_site_fract_x
_atom_site_fract_y
_atom_site_fract_z
_atom_type_partial_charge
C0 C 0.24131 0.31793 0.4646 0.0
C1 C 0.20408 0.30903 0.67695 0.0
C2 C 0.13749 0.31918 0.47526 0.0
Mg3 Mg 0.22005 0.35002 0.5891 0.0
O4 O 0.19841 0.34677 0.50792 0.0
Mg5 Mg 0.18792 0.31659 0.48298 0.0
Mg6 Mg 0.16914 0.36033 0.5221 0.0
O7 O 0.13994 0.37203 0.535 0.0
Mg8 Mg 0.12071 0.36793 0.44529 0.0
Mg9 Mg 0.14706 0.40157 0.57288 0.0
C10 C 0.20297 0.3953 0.5697 0.0
C11 C 0.16284 0.37057 0.71922 0.0
O12 O 0.22252 0.30983 0.45458 0.0
O13 O 0.24494 0.33489 0.50871 0.0
O14 O 0.19393 0.30352 0.61214 0.0
O15 O 0.21345 0.32727 0.6827 0.0
O16 O 0.20622 0.38137 0.62565 0.0
O17 O 0.18461 0.3951 0.53209 0.0
C18 C 0.17465 0.34724 0.3291 0.0
O19 O 0.16827 0.36194 0.37951 0.0
O20 O 0.18239 0.32934 0.35464 0.0
O21 O 0.10884 0.40202 0.6054 0.0
O22 O 0.09355 0.37933 0.51379 0.0
O23 O 0.14208 0.41579 0.44687 0.0
C24 C 0.09215 0.39197 0.576 0.0
O25 O 0.12947 0.39315 0.35181 0.0
O26 O 0.1229 0.33135 0.44275 0.0
C27 C 0.13694 0.41175 0.37291 0.0
O28 O 0.15399 0.32727 0.51077 0.0
O29 O 0.17024 0.35722 0.66579 0.0
O30 O 0.15355 0.38791 0.69712 0.0
C31 C 0.45548 0.49493 0.7121 0.0
C32 C 0.46131 0.45455 0.91545 0.0
C33 C 0.4463 0.39175 0.70798 0.0
Mg34 Mg 0.42174 0.47461 0.83332 0.0
O35 O 0.42255 0.4541 0.74663 0.0
Mg36 Mg 0.45191 0.44151 0.71895 0.0
Mg37 Mg 0.40722 0.42545 0.76027 0.0
O38 O 0.39396 0.39688 0.77254 0.0
Mg39 Mg 0.3971 0.37692 0.68401 0.0
Mg40 Mg 0.36508 0.40534 0.81275 0.0
C41 C 0.37464 0.46084 0.8161 0.0
C42 C 0.39746 0.41918 0.95743 0.0
O43 O 0.46133 0.47565 0.69522 0.0
O44 O 0.43956 0.49945 0.76059 0.0
O45 O 0.46611 0.44548 0.84741 0.0
O46 O 0.44368 0.46473 0.92496 0.0
O47 O 0.38935 0.46315 0.86984 0.0
O48 O 0.37358 0.44288 0.77519 0.0
C49 C 0.41967 0.43084 0.56709 0.0
O50 O 0.4049 0.42508 0.61833 0.0
O51 O 0.43809 0.4376 0.5914 0.0
O52 O 0.36238 0.36705 0.84437 0.0
O53 O 0.38487 0.3507 0.75451 0.0
O54 O 0.35039 0.40055 0.6867 0.0
C55 C 0.37183 0.34989 0.8157 0.0
O56 O 0.37165 0.3851 0.59248 0.0
O57 O 0.43358 0.3774 0.67671 0.0
C58 C 0.35374 0.39403 0.61353 0.0
O59 O 0.43895 0.40846 0.74437 0.0
O60 O 0.41106 0.42581 0.90338 0.0
O61 O 0.37945 0.41104 0.93631 0.0
C62 C 0.25529 0.6876 0.02121 0.0
C63 C 0.28801 0.70322 0.21403 0.0
C64 C 0.35909 0.70242 0.01101 0.0
Mg65 Mg 0.28207 0.66019 0.14546 0.0
O66 O 0.30219 0.66714 0.05854 0.0
Mg67 Mg 0.30814 0.69844 0.03182 0.0
Mg68 Mg 0.3331 0.65767 0.06481 0.0
O69 O 0.3636 0.64934 0.07298 0.0
Mg70 Mg 0.38205 0.65595 0.98282 0.0
Mg71 Mg 0.35987 0.61877 0.10904 0.0
C72 C 0.30413 0.61848 0.11198 0.0
C73 C 0.34176 0.64758 0.26103 0.0
O74 O 0.27205 0.69948 0.01061 0.0
O75 O 0.25517 0.67039 0.06583 0.0
O76 O 0.30357 0.7087 0.16704 0.0
O77 O 0.28722 0.6838 0.23878 0.0
O78 O 0.30005 0.63052 0.17338 0.0
O79 O 0.32212 0.62138 0.07331 0.0
C80 C 0.324 0.67018 0.87258 0.0
O81 O 0.3328 0.65667 0.92212 0.0
O82 O 0.31383 0.68681 0.89946 0.0
O83 O 0.39789 0.6211 0.13502 0.0
O84 O 0.4104 0.6472 0.05021 0.0
O85 O 0.36563 0.60593 0.98044 0.0
C86 C 0.41332 0.63338 0.1078 0.0
O87 O 0.37637 0.63042 0.88829 0.0
O88 O 0.37462 0.69172 0.97654 0.0
C89 C 0.37056 0.61109 0.90704 0.0
O90 O 0.34409 0.69265 0.05115 0.0
O91 O 0.33285 0.66012 0.20856 0.0
O92 O 0.35268 0.63125 0.23737 0.0
C93 C 0.08226 0.51003 0.24141 0.0
C94 C 0.06388 0.54638 0.44249 0.0
C95 C 0.06479 0.61328 0.2297 0.0
Mg96 Mg 0.10789 0.53864 0.36535 0.0
O97 O 0.10182 0.5579 0.27644 0.0
Mg98 Mg 0.07084 0.56254 0.24574 0.0
Mg99 Mg 0.1101 0.58925 0.28545 0.0
O100 O 0.11696 0.62013 0.29517 0.0
Mg101 Mg 0.11038 0.63762 0.20271 0.0
Mg102 Mg 0.1473 0.6178 0.33268 0.0
C103 C 0.14902 0.56153 0.33803 0.0
C104 C 0.11843 0.59868 0.48156 0.0
O105 O 0.07138 0.52688 0.22307 0.0
O106 O 0.09829 0.51016 0.29166 0.0
O107 O 0.05798 0.5544 0.37403 0.0
O108 O 0.08354 0.54188 0.45617 0.0
O109 O 0.13647 0.55788 0.39838 0.0
O110 O 0.14662 0.57942 0.29803 0.0
C111 C 0.09958 0.58034 0.0922 0.0
O112 O 0.11253 0.5894 0.14312 0.0
O113 O 0.08322 0.56957 0.1172 0.0
O114 O 0.14287 0.65598 0.35765 0.0
O115 O 0.11797 0.66704 0.26612 0.0
O116 O 0.16073 0.62363 0.20503 0.0
C117 C 0.13072 0.67086 0.32629 0.0
O118 O 0.13603 0.63124 0.11007 0.0
O119 O 0.07507 0.62913 0.19553 0.0
C120 C 0.15556 0.62715 0.13069 0.0
O121 O 0.07485 0.59863 0.27 0.0
O122 O 0.10661 0.58898 0.42854 0.0
O123 O 0.13433 0.61039 0.45902 0.0
C124 C 0.9116 0.61915 0.38855 0.0
C125 C 0.87272 0.60759 0.61074 0.0
C126 C 0.80484 0.64037 0.44032 0.0
Mg127 Mg 0.89522 0.64847 0.53249 0.0
O128 O 0.87185 0.64905 0.45671 0.0
Mg129 Mg 0.85687 0.62233 0.42069 0.0
Mg130 Mg 0.8468 0.66749 0.47884 0.0
O131 O 0.82205 0.68761 0.50159 0.0
Mg132 Mg 0.80006 0.68993 0.42264 0.0
Mg133 Mg 0.8404 0.71446 0.51904 0.0
C134 C 0.88825 0.69994 0.51129 0.0
C135 C 0.84765 0.68133 0.67144 0.0
O136 O 0.89224 0.61252 0.37235 0.0
O137 O 0.91583 0.6326 0.44614 0.0
O138 O 0.86294 0.60661 0.54238 0.0
O139 O 0.88599 0.62312 0.62654 0.0
O140 O 0.90121 0.68499 0.53662 0.0
O141 O 0.86951 0.69537 0.48494 0.0
C142 C 0.84592 0.65698 0.28084 0.0
O143 O 0.84375 0.67154 0.33625 0.0
O144 O 0.85052 0.63763 0.29986 0.0
O145 O 0.80927 0.73054 0.55215 0.0
O146 O 0.7807 0.71246 0.5 0.0
O147 O 0.83686 0.72798 0.38925 0.0
C148 C 0.78897 0.72791 0.54308 0.0
O149 O 0.81239 0.70833 0.32338 0.0
O150 O 0.80222 0.65546 0.38777 0.0
C151 C 0.82605 0.7237 0.32482 0.0
O152 O 0.82351 0.63775 0.47391 0.0
O153 O 0.84974 0.66552 0.62058 0.0
O154 O 0.84412 0.70064 0.64682 0.0
C155 C 0.64127 0.67628 0.18406 0.0
C156 C 0.65676 0.63752 0.40584 0.0
C157 C 0.64269 0.56655 0.21917 0.0
Mg158 Mg 0.61471 0.65201 0.31961 0.0
O159 O 0.61966 0.62995 0.24065 0.0
Mg160 Mg 0.64943 0.62164 0.20899 0.0
Mg161 Mg 0.60748 0.60117 0.26054 0.0
O162 O 0.59375 0.57221 0.28028 0.0
Mg163 Mg 0.59725 0.54944 0.20335 0.0
Mg164 Mg 0.56364 0.58292 0.30267 0.0
C165 C 0.56643 0.63401 0.29883 0.0
C166 C 0.59424 0.59839 0.45384 0.0
O167 O 0.65207 0.65893 0.16663 0.0
O168 O 0.6268 0.67673 0.24054 0.0
O169 O 0.66172 0.62946 0.33624 0.0
O170 O 0.63848 0.64665 0.41883 0.0
O171 O 0.5786 0.64954 0.32459 0.0
O172 O 0.57438 0.6167 0.26811 0.0
C173 C 0.6189 0.60422 0.06355 0.0
O174 O 0.605 0.59815 0.1175 0.0
O175 O 0.63661 0.61306 0.08475 0.0
O176 O 0.55709 0.5487 0.33827 0.0
O177 O 0.58192 0.52548 0.28718 0.0
O178 O 0.55072 0.57448 0.17454 0.0
C179 C 0.56515 0.52978 0.33155 0.0
O180 O 0.57494 0.55446 0.10794 0.0
O181 O 0.62879 0.56242 0.16407 0.0
C182 C 0.55659 0.56355 0.11169 0.0
O183 O 0.64179 0.58507 0.25592 0.0
O184 O 0.60892 0.60413 0.40228 0.0
O185 O 0.57629 0.59041 0.42986 0.0
C186 C 0.5931 0.39983 0.95099 0.0
C187 C 0.63611 0.41764 0.15975 0.0
C188 C 0.70377 0.39938 0.96162 0.0
Mg189 Mg 0.61955 0.37463 0.08356 0.0
O190 O 0.63997 0.37831 -0.00303 0.0
Mg191 Mg 0.64835 0.40759 0.96008 0.0
Mg192 Mg 0.66862 0.36554 0.01108 0.0
O193 O 0.69735 0.35094 0.02597 0.0
Mg194 Mg 0.71901 0.35313 0.94355 0.0
Mg195 Mg 0.68568 0.32119 0.05123 0.0
C196 C 0.63538 0.32564 0.05862 0.0
C197 C 0.67299 0.35277 0.20388 0.0
O198 O 0.6103 0.40979 0.92502 0.0
O199 O 0.59363 0.38663 0.01152 0.0
O200 O 0.64276 0.42163 0.08717 0.0
O201 O 0.62732 0.39945 0.1783 0.0
O202 O 0.62082 0.33824 0.08926 0.0
O203 O 0.65222 0.3331 0.02294 0.0
C204 C 0.66353 0.37586 0.81425 0.0
O205 O 0.67003 0.36221 0.8679 0.0
O206 O 0.65504 0.3937 0.8359 0.0
O207 O 0.71989 0.31327 0.07966 0.0
O208 O 0.74346 0.3367 0.02132 0.0
O209 O 0.69183 0.3074 0.92245 0.0
C210 C 0.73904 0.3203 0.06752 0.0
O211 O 0.71158 0.33068 0.85 0.0
O212 O 0.70672 0.38509 0.90644 0.0
C213 C 0.70202 0.31257 0.85696 0.0
O214 O 0.68555 0.39954 0.00093 0.0
O215 O 0.66727 0.36752 0.15299 0.0
O216 O 0.68019 0.33453 0.1791 0.0
C217 C 0.86628 0.35115 0.68915 0.0
C218 C 0.85532 0.39306 0.90501 0.0
C219 C 0.88991 0.46047 0.73118 0.0
Mg220 Mg 0.89527 0.36956 0.82915 0.0
O221 O 0.89668 0.39167 0.74713 0.0
Mg222 Mg 0.87045 0.40709 0.71084 0.0
Mg223 Mg 0.91656 0.41576 0.7674 0.0
O224 O 0.93828 0.43885 0.79291 0.0
Mg225 Mg 0.94241 0.46211 0.72356 0.0
Mg226 Mg 0.96395 0.41895 0.80531 0.0
C227 C 0.94634 0.37328 0.80565 0.0
C228 C 0.93082 0.41327 0.9598 0.0
O229 O 0.86047 0.37045 0.66629 0.0
O230 O 0.87878 0.348 0.75031 0.0
O231 O 0.85432 0.40234 0.83527 0.0
O232 O 0.87069 0.37988 0.92208 0.0
O233 O 0.931 0.36182 0.83748 0.0
O234 O 0.94274 0.39145 0.77224 0.0
C235 C 0.90563 0.41663 0.56954 0.0
O236 O 0.92035 0.4187 0.62423 0.0
O237 O 0.88622 0.4123 0.58941 0.0
O238 O 0.98328 0.44802 0.84117 0.0
O239 O 0.96737 0.47852 0.79712 0.0
O240 O 0.97625 0.4236 0.67307 0.0
C241 C 0.98247 0.46855 0.83551 0.0
O242 O 0.95619 0.44912 0.61485 0.0
O243 O 0.90828 0.46961 0.71784 0.0
C244 C 0.97123 0.43513 0.61095 0.0
O245 O 0.88827 0.44062 0.75751 0.0
O246 O 0.91471 0.41283 0.90993 0.0
O247 O 0.9503 0.41521 0.93399 0.0
C248 C 0.75477 0.83229 0.94814 0.0
C249 C 0.71829 0.81868 0.15783 0.0
C250 C 0.65055 0.8253 0.95568 0.0
Mg251 Mg 0.73071 0.86136 0.07585 0.0
O252 O 0.70962 0.85692 0.99269 0.0
Mg253 Mg 0.70157 0.82638 0.96391 0.0
Mg254 Mg 0.67942 0.86835 0.00568 0.0
O255 O 0.64942 0.87799 0.01845 0.0
Mg256 Mg 0.63068 0.8729 0.92819 0.0
Mg257 Mg 0.65446 0.90787 0.05676 0.0
C258 C 0.71128 0.90471 0.05336 0.0
C259 C 0.67207 0.87764 0.20253 0.0
O260 O 0.73669 0.82291 0.93547 0.0
O261 O 0.757 0.84878 -0.00404 0.0
O262 O 0.70882 0.81303 0.09169 0.0
O263 O 0.72565 0.83771 0.16746 0.0
O264 O 0.71457 0.89156 0.11179 0.0
O265 O 0.69274 0.90406 0.01673 0.0
C266 C 0.68606 0.85662 0.81225 0.0
O267 O 0.67862 0.87053 0.86361 0.0
O268 O 0.6951 0.83924 0.83655 0.0
O269 O 0.61587 0.90588 0.08761 0.0
O270 O 0.60237 0.88252 0.99442 0.0
O271 O 0.64891 0.92193 0.9304 0.0
C272 C 0.59988 0.89499 0.05666 0.0
O273 O 0.63855 0.89819 0.83512 0.0
O274 O 0.63542 0.83683 0.92347 0.0
C275 C 0.64451 0.9173 0.85618 0.0
O276 O 0.66657 0.83412 0.99234 0.0
O277 O 0.68043 0.865 0.14871 0.0
O278 O 0.66162 0.89439 0.18109 0.0
C279 C 0.93985 0.99601 0.18371 0.0
C280 C 0.96295 0.96249 0.37618 0.0
C281 C 0.95438 0.89837 0.18477 0.0
Mg282 Mg 0.91833 0.97803 0.30508 0.0
O283 O 0.92608 0.95851 0.21021 0.0
Mg284 Mg 0.95864 0.94757 0.17547 0.0
Mg285 Mg 0.91217 0.92852 0.22065 0.0
O286 O 0.90135 0.89865 0.23107 0.0
Mg287 Mg 0.90725 0.87861 0.14497 0.0
Mg288 Mg 0.87165 0.90376 0.27112 0.0
C289 C 0.87484 0.9593 0.27661 0.0
C290 C 0.90208 0.9206 0.41756 0.0
O291 O 0.93598 0.97559 0.18527 0.0
O292 O 0.92843 1.00735 0.23293 0.0
O293 O 0.96972 0.95496 0.30735 0.0
O294 O 0.94395 0.9701 0.38648 0.0
O295 O 0.88793 0.96181 0.33558 0.0
O296 O 0.8765 0.94199 0.23257 0.0
C297 C 0.9266 0.93336 0.026 0.0
O298 O 0.91157 0.92813 0.0773 0.0
O299 O 0.945 0.9404 0.04983 0.0
O300 O 0.8725 0.86529 0.30287 0.0
O301 O 0.89691 0.85105 0.21527 0.0
O302 O 0.85779 0.8978 0.14565 0.0
C303 C 0.88366 0.84902 0.27555 0.0
O304 O 0.88119 0.88567 0.0516 0.0
O305 O 0.94402 0.88265 0.15004 0.0
C306 C 0.86219 0.89231 0.07221 0.0
O307 O 0.94459 0.9152 0.21034 0.0
O308 O 0.91503 0.92877 0.36427 0.0
O309 O 0.88507 0.91069 0.39547 0.0
C310 C 0.77438 0.21035 0.44629 0.0
C311 C 0.81091 0.2165 0.6599 0.0
C312 C 0.87736 0.20356 0.46052 0.0
Mg313 Mg 0.79333 0.17664 0.56964 0.0
O314 O 0.81534 0.17877 0.48872 0.0
Mg315 Mg 0.82758 0.20853 0.46575 0.0
Mg316 Mg 0.84388 0.16363 0.50416 0.0
O317 O 0.87236 0.15044 0.51826 0.0
Mg318 Mg 0.89336 0.15429 0.43352 0.0
Mg319 Mg 0.86361 0.12115 0.55449 0.0
C320 C 0.80839 0.13019 0.55011 0.0
C321 C 0.84836 0.15265 0.70111 0.0
O322 O 0.79365 0.21722 0.43603 0.0
O323 O 0.76955 0.19375 0.49083 0.0
O324 O 0.82137 0.22184 0.59524 0.0
O325 O 0.80082 0.19863 0.66473 0.0
O326 O 0.80548 0.14451 0.60525 0.0
O327 O 0.82675 0.12959 0.512 0.0
C328 C 0.84012 0.1773 0.31155 0.0
O329 O 0.84551 0.16222 0.36168 0.0
O330 O 0.83318 0.19554 0.33737 0.0
O331 O 0.90127 0.11853 0.5918 0.0
O332 O 0.91871 0.1421 0.50902 0.0
O333 O 0.86983 0.10705 0.42816 0.0
C334 C 0.91869 0.12854 0.56855 0.0
O335 O 0.88638 0.12882 0.3385 0.0
O336 O 0.89202 0.19111 0.42929 0.0
C337 C 0.87722 0.11071 0.35641 0.0
O338 O 0.86052 0.19587 0.49506 0.0
O339 O 0.84218 0.16658 0.64795 0.0
O340 O 0.85662 0.13478 0.67866 0.0
C341 C 0.58823 0.01534 0.73401 0.0
C342 C 0.57041 0.04998 0.93985 0.0
C343 C 0.56998 0.11906 0.74022 0.0
Mg344 Mg 0.61415 0.04318 0.85918 0.0
O345 O 0.60749 0.06311 0.7735 0.0
Mg346 Mg 0.57642 0.06779 0.74512 0.0
Mg347 Mg 0.61596 0.09426 0.78524 0.0
O348 O 0.6231 0.12501 0.79818 0.0
Mg349 Mg 0.6155 0.14375 0.71077 0.0
Mg350 Mg 0.6538 0.1221 0.83146 0.0
C351 C 0.65546 0.06612 0.83071 0.0
C352 C 0.6257 0.10219 0.98115 0.0
O353 O 0.57705 0.0322 0.71819 0.0
O354 O 0.6045 0.01529 0.78305 0.0
O355 O 0.56416 0.05859 0.87289 0.0
O356 O 0.59019 0.04564 0.95203 0.0
O357 O 0.64324 0.06168 0.89135 0.0
O358 O 0.65246 0.08421 0.7928 0.0
C359 C 0.6046 0.08669 0.59191 0.0
O360 O 0.61768 0.09546 0.64303 0.0
O361 O 0.58829 0.0758 0.61666 0.0
O362 O 0.65044 0.16001 0.8619 0.0
O363 O 0.624 0.17217 0.77915 0.0
O364 O 0.66593 0.1289 0.70254 0.0
C365 C 0.6378 0.17526 0.83653 0.0
O366 O 0.64038 0.13851 0.6135 0.0
O367 O 0.57993 0.13552 0.70878 0.0
C368 C 0.66002 0.13358 0.62994 0.0
O369 O 0.5805 0.10369 0.77439 0.0
O370 O 0.61343 0.093 0.92828 0.0
O371 O 0.64168 0.11379 0.95843 0.0
C372 C 0.41599 0.12375 0.91926 0.0
C373 C 0.37447 0.10878 0.13528 0.0
C374 C 0.30606 0.13167 0.95275 0.0
Mg375 Mg 0.39344 0.1508 0.05772 0.0
O376 O 0.37163 0.14855 0.97582 0.0
Mg377 Mg 0.36064 0.12 0.94004 0.0
Mg378 Mg 0.34415 0.16349 0.99371 0.0
O379 O 0.3168 0.18024 0.01203 0.0
Mg380 Mg 0.29462 0.17928 0.93274 0.0
Mg381 Mg 0.33106 0.20919 0.03208 0.0
C382 C 0.38038 0.20076 0.03666 0.0
C383 C 0.34166 0.17757 0.18627 0.0
O384 O 0.39788 0.11464 0.89921 0.0
O385 O 0.41746 0.13762 0.97748 0.0
O386 O 0.36655 0.10603 0.0642 0.0
O387 O 0.38536 0.12586 0.15299 0.0
O388 O 0.39435 0.18733 0.06557 0.0
O389 O 0.36307 0.19433 0.00225 0.0
C390 C 0.34668 0.15233 0.79595 0.0
O391 O 0.34182 0.16661 0.85007 0.0
O392 O 0.35387 0.13394 0.81705 0.0
O393 O 0.29775 0.22055 0.06233 0.0
O394 O 0.27212 0.19824 0.01157 0.0
O395 O 0.32615 0.22208 0.90188 0.0
C396 C 0.27805 0.2149 0.05375 0.0
O397 O 0.30399 0.1999 0.83542 0.0
O398 O 0.30285 0.14585 0.89741 0.0
C399 C 0.31554 0.21691 0.83778 0.0
O400 O 0.32477 0.13089 0.98763 0.0
O401 O 0.34618 0.16213 0.13607 0.0
O402 O 0.33573 0.19616 0.16062 0.0
C403 C 0.13652 0.17211 0.72849 0.0
C404 C 0.15517 0.13061 0.94021 0.0
C405 C 0.13665 0.06286 0.73607 0.0
Mg406 Mg 0.11169 0.14668 0.8661 0.0
O407 O 0.11514 0.12488 0.78526 0.0
Mg408 Mg 0.14404 0.11692 0.74372 0.0
Mg409 Mg 0.10145 0.0963 0.7982 0.0
O410 O 0.08528 0.06767 0.81007 0.0
Mg411 Mg 0.09109 0.04816 0.71344 0.0
Mg412 Mg 0.05392 0.08105 0.84705 0.0
C413 C 0.06272 0.13052 0.84035 0.0
C414 C 0.08779 0.09248 0.99316 0.0
O415 O 0.14669 0.15479 0.70575 0.0
O416 O 0.12322 0.17201 0.78888 0.0
O417 O 0.15859 0.12299 0.86866 0.0
O418 O 0.13731 0.14003 0.95899 0.0
O419 O 0.07535 0.14556 0.8672 0.0
O420 O 0.07003 0.11259 0.81284 0.0
C421 C 0.11146 0.10264 0.601 0.0
O422 O 0.0978 0.09625 0.65521 0.0
O423 O 0.1296 0.11051 0.62158 0.0
O424 O 0.07414 0.0512 0.83414 0.0
O425 O 0.07952 0.01923 0.7841 0.0
O426 O 0.04147 0.07536 0.716 0.0
C427 C 0.06894 0.03107 0.8344 0.0
O428 O 0.06565 0.05844 0.63477 0.0
O429 O 0.12275 0.0611 0.67938 0.0
C430 C 0.04739 0.06761 0.64642 0.0
O431 O 0.13571 0.0796 0.78349 0.0
O432 O 0.10292 0.0967 0.94094 0.0
O433 O 0.06884 0.08675 0.97079 0.0
C434 C 0.10445 0.90067 0.39774 0.0
C435 C 0.14041 0.91058 0.62778 0.0
C436 C 0.21012 0.87003 0.47297 0.0
Mg437 Mg 0.11646 0.87142 0.546 0.0
O438 O 0.14109 0.86816 0.47644 0.0
Mg439 Mg 0.15892 0.89315 0.44065 0.0
Mg440 Mg 0.1631 0.84633 0.50099 0.0
O441 O 0.18411 0.82282 0.52877 0.0
Mg442 Mg 0.20795 0.81736 0.46342 0.0
Mg443 Mg 0.16229 0.79855 0.53791 0.0
C444 C 0.11763 0.81997 0.53156 0.0
C445 C 0.15839 0.83192 0.69336 0.0
O446 O 0.1246 0.90551 0.38444 0.0
O447 O 0.09836 0.88826 0.45621 0.0
O448 O 0.15225 0.91052 0.56316 0.0
O449 O 0.12565 0.89619 0.63896 0.0
O450 O 0.10641 0.83631 0.55616 0.0
O451 O 0.13675 0.82211 0.50404 0.0
C452 C 0.1671 0.8567 0.30251 0.0
O453 O 0.16674 0.84204 0.35817 0.0
O454 O 0.16502 0.87657 0.32089 0.0
O455 O 0.18953 0.77651 0.57514 0.0
O456 O 0.22142 0.79119 0.53897 0.0
O457 O 0.16662 0.78701 0.4036 0.0
C458 C 0.21014 0.77624 0.57353 0.0
O459 O 0.19517 0.80461 0.35257 0.0
O460 O 0.21814 0.85107 0.46109 0.0
C461 C 0.17927 0.7917 0.34378 0.0
O462 O 0.19006 0.87294 0.49477 0.0
O463 O 0.1593 0.84812 0.64349 0.0
O464 O 0.15899 0.8123 0.66753 0.0
C465 C 0.37039 0.85699 0.1502 0.0
C466 C 0.35975 0.89388 0.37356 0.0
C467 C 0.39684 0.96359 0.22302 0.0
Mg468 Mg 0.4003 0.87077 0.29508 0.0
O469 O 0.40244 0.89479 0.22192 0.0
Mg470 Mg 0.37669 0.91166 0.1878 0.0
Mg471 Mg 0.42306 0.91808 0.24727 0.0
O472 O 0.44513 0.94047 0.27689 0.0
Mg473 Mg 0.44922 0.96479 0.21293 0.0
Mg474 Mg 0.47046 0.92006 0.28514 0.0
C475 C 0.45196 0.8745 0.27468 0.0
C476 C 0.43737 0.9135 0.43954 0.0
O477 O 0.36474 0.87685 0.13613 0.0
O478 O 0.3837 0.85171 0.20654 0.0
O479 O 0.35999 0.90501 0.30787 0.0
O480 O 0.37448 0.87966 0.38753 0.0
O481 O 0.43632 0.8625 0.30163 0.0
O482 O 0.44864 0.89341 0.2477 0.0
C483 C 0.41254 0.92166 0.04904 0.0
O484 O 0.42717 0.92244 0.10449 0.0
O485 O 0.3929 0.9181 0.06776 0.0
O486 O 0.49053 0.9484 0.32521 0.0
O487 O 0.47463 0.97962 0.28888 0.0
O488 O 0.48222 0.92605 0.15304 0.0
C489 C 0.48986 0.969 0.32392 0.0
O490 O 0.46268 0.953 0.10145 0.0
O491 O 0.41511 0.97312 0.21148 0.0
C492 C 0.47717 0.93852 0.09359 0.0
O493 O 0.39542 0.9433 0.24274 0.0
O494 O 0.42124 0.91375 0.38966 0.0
O495 O 0.4569 0.91519 0.41378 0.0
H496 H 0.10221 0.29732 0.53256 0.0
H497 H 0.16502 0.18476 0.60257 0.0
H498 H 0.16666 0.28682 0.44053 0.0
H499 H 0.10962 0.2067 0.74147 0.0
H500 H 0.16393 0.21895 0.52368 0.0
H501 H 0.10172 0.26014 0.58462 0.0
C502 C 0.11603 0.28701 0.52111 0.0
C503 C 0.13458 0.29535 0.48294 0.0
C504 C 0.15205 0.2161 0.57151 0.0
C505 C 0.13448 0.25281 0.54469 0.0
C506 C 0.15273 0.19663 0.61676 0.0
C507 C 0.13759 0.19272 0.67983 0.0
C508 C 0.13585 0.23153 0.58831 0.0
C509 C 0.12189 0.2088 0.69454 0.0
C510 C 0.11592 0.26585 0.55207 0.0
C511 C 0.1522 0.28126 0.47132 0.0
N512 N 0.12143 0.22723 0.64936 0.0
N513 N 0.15182 0.2608 0.50267 0.0
H514 H 0.46779 0.35952 0.7855 0.0
H515 H 0.58279 0.41968 0.80118 0.0
H516 H 0.47849 0.4182 0.64888 0.0
H517 H 0.55489 0.38152 -0.00282 0.0
H518 H 0.5485 0.4158 0.72477 0.0
H519 H 0.50481 0.36185 0.83737 0.0
C520 C 0.47821 0.37243 0.76378 0.0
C521 C 0.47003 0.38865 0.71272 0.0
C522 C 0.55007 0.40836 0.78465 0.0
C523 C 0.51228 0.39193 0.77419 0.0
C524 C 0.56955 0.41073 0.82862 0.0
C525 C 0.572 0.4009 0.90606 0.0
C526 C 0.53318 0.39569 0.81763 0.0
C527 C 0.55415 0.38933 0.93777 0.0
C528 C 0.49922 0.37402 0.79468 0.0
C529 C 0.48414 0.40541 0.68858 0.0
N530 N 0.53581 0.38691 0.89341 0.0
N531 N 0.50451 0.40676 0.72002 0.0
H532 H 0.3327 0.83385 0.15741 0.0
H533 H 0.38939 0.73114 0.94683 0.0
H534 H 0.39383 0.83739 0.03124 0.0
H535 H 0.32775 0.72965 0.07092 0.0
H536 H 0.38933 0.77081 0.95909 0.0
H537 H 0.32794 0.79685 0.10566 0.0
C538 C 0.34465 0.82717 0.11576 0.0
C539 C 0.36341 0.83888 0.09691 0.0
C540 C 0.37566 0.76173 0.98256 0.0
C541 C 0.35877 0.79604 0.04094 0.0
C542 C 0.37568 0.73903 0.97545 0.0
C543 C 0.35855 0.7267 0.00803 0.0
C544 C 0.3584 0.77227 0.02263 0.0
C545 C 0.34132 0.73808 0.04469 0.0
C546 C 0.34215 0.80588 0.08725 0.0
C547 C 0.37888 0.82905 0.04557 0.0
N548 N 0.34177 0.75999 0.05144 0.0
N549 N 0.37638 0.80817 0.02032 0.0
H550 H 0.93522 0.58168 0.38099 0.0
H551 H 0.03551 0.64405 0.17645 0.0
H552 H 0.9309 0.64582 0.27985 0.0
H553 H 0.0385 0.57996 0.27966 0.0
H554 H 0.99605 0.64307 0.19308 0.0
H555 H 0.97167 0.57833 0.32194 0.0
C556 C 0.94165 0.5947 0.34364 0.0
C557 C 0.92998 0.61388 0.334 0.0
C558 C 1.00541 0.62908 0.21091 0.0
C559 C 0.97196 0.6107 0.26929 0.0
C560 C 0.02798 0.62962 0.20118 0.0
C561 C 0.04065 0.61209 0.22717 0.0
C562 C 0.9954 0.61089 0.24689 0.0
C563 C 0.02977 0.5939 0.25903 0.0
C564 C 0.96257 0.59296 0.3108 0.0
C565 C 0.93933 0.63062 0.28746 0.0
N566 N 1.00797 0.59386 0.26858 0.0
N567 N 0.95982 0.62877 0.25771 0.0
H568 H 0.91788 0.71749 0.4067 0.0
H569 H 0.86407 0.83625 0.42352 0.0
H570 H 0.87047 0.73504 0.58892 0.0
H571 H 0.90365 0.81191 0.22499 0.0
H572 H 0.86828 0.80116 0.49417 0.0
H573 H 0.91691 0.75453 0.35345 0.0
C574 C 0.90798 0.72938 0.43793 0.0
C575 C 0.8945 0.72312 0.50324 0.0
C576 C 0.876 0.80361 0.43506 0.0
C577 C 0.89233 0.76558 0.43964 0.0
C578 C 0.87344 0.82361 0.3943 0.0
C579 C 0.88346 0.82733 0.31771 0.0
C580 C 0.88887 0.78722 0.39952 0.0
C581 C 0.89559 0.81015 0.28378 0.0
C582 C 0.907 0.75048 0.40626 0.0
C583 C 0.88128 0.73916 0.53889 0.0
N584 N 0.89798 0.79114 0.32473 0.0
N585 N 0.88034 0.7595 0.50627 0.0
H586 H 0.5436 0.6688 0.24441 0.0
H587 H 0.43084 0.60412 0.21915 0.0
H588 H 0.53492 0.60478 0.34357 0.0
H589 H 0.44567 0.66285 0.08673 0.0
H590 H 0.46704 0.6057 0.28129 0.0
H591 H 0.5053 0.6693 0.20723 0.0
C592 C 0.53354 0.65502 0.25996 0.0
C593 C 0.54261 0.63655 0.29562 0.0
C594 C 0.46224 0.61823 0.23872 0.0
C595 C 0.4988 0.63672 0.25158 0.0
C596 C 0.4416 0.61729 0.20308 0.0
C597 C 0.43512 0.63321 0.14675 0.0
C598 C 0.47637 0.63536 0.21874 0.0
C599 C 0.44984 0.65 0.12888 0.0
C600 C 0.51172 0.65516 0.23775 0.0
C601 C 0.52882 0.61906 0.31361 0.0
N602 N 0.46959 0.6506 0.16457 0.0
N603 N 0.50769 0.61947 0.29079 0.0
H604 H 0.66292 0.294 0.11192 0.0
H605 H 0.60965 0.2083 0.80847 0.0
H606 H 0.60187 0.30326 0.99167 0.0
H607 H 0.66425 0.19188 0.96014 0.0
H608 H 0.60694 0.24283 0.87778 0.0
H609 H 0.66339 0.25637 0.06434 0.0
C610 C 0.64938 0.28798 0.07689 0.0
C611 C 0.63238 0.30186 0.05523 0.0
C612 C 0.61952 0.23174 0.89639 0.0
C613 C 0.63295 0.25881 -0.00056 0.0
C614 C 0.62124 0.21191 0.8562 0.0
C615 C 0.63734 0.19692 0.87778 0.0
C616 C 0.63409 0.23711 0.95882 0.0
C617 C 0.65165 0.20284 0.9409 0.0
C618 C 0.64968 0.26647 0.04965 0.0
C619 C 0.61515 0.29309 0.01064 0.0
N620 N 0.64977 0.22252 0.97884 0.0
N621 N 0.61604 0.27228 0.98321 0.0
H622 H 0.96432 0.3482 0.68887 0.0
H623 H 0.08238 0.40025 0.74064 0.0
H624 H 0.98024 0.38575 0.90295 0.0
H625 H 0.05302 0.38219 0.51056 0.0
H626 H 0.04806 0.3914 0.81137 0.0
H627 H 1.00101 0.35357 0.63697 0.0
C628 C 0.97589 0.3566 0.72723 0.0
C629 C 0.96916 0.36631 0.80086 0.0
C630 C 0.04921 0.38955 0.74531 0.0
C631 C 0.01111 0.37371 0.73944 0.0
C632 C 0.06869 0.3949 0.70474 0.0
C633 C 0.07076 0.39192 0.61927 0.0
C634 C 0.03185 0.38086 0.70021 0.0
C635 C 0.05243 0.3846 0.57645 0.0
C636 C 0.99672 0.36022 0.69642 0.0
C637 C 0.98477 0.37777 0.84627 0.0
N638 N 0.03402 0.37914 0.61721 0.0
N639 N 1.0049 0.38148 0.81436 0.0
H640 H 0.67665 0.69209 0.09553 0.0
H641 H 0.61368 0.80104 0.97111 0.0
H642 H 0.61022 0.7061 0.15615 0.0
H643 H 0.68283 0.79456 0.95443 0.0
H644 H 0.6113 0.76299 0.01219 0.0
H645 H 0.67862 0.72681 0.02073 0.0
C646 C 0.6625 0.70231 0.09267 0.0
C647 C 0.64339 0.69629 0.13353 0.0
C648 C 0.62702 0.76986 -0.00134 0.0
C649 C 0.64535 0.73571 0.04723 0.0
C650 C 0.62834 0.79156 0.97424 0.0
C651 C 0.64852 0.8013 0.96074 0.0
C652 C 0.64601 0.75769 0.00928 0.0
C653 C 0.66697 0.78811 0.96647 0.0
C654 C 0.6636 0.72211 0.0501 0.0
C655 C 0.62547 0.71018 0.12722 0.0
N656 N 0.66532 0.76712 0.99101 0.0
N657 N 0.62692 0.72911 0.0854 0.0
H658 H 0.97168 0.91147 0.32634 0.0
H659 H 0.09545 0.8851 0.24383 0.0
H660 H 0.99081 0.88379 0.09394 0.0
H661 H 0.07172 0.9284 0.43046 0.0
H662 H 0.05919 0.88441 0.18158 0.0
H663 H 0.00914 0.91616 0.36263 0.0
C664 C 0.98386 0.90632 0.28249 0.0
C665 C 0.97787 0.89753 0.20619 0.0
C666 C 0.0621 0.89461 0.23452 0.0
C667 C 0.02176 0.90266 0.24876 0.0
C668 C 0.08292 0.89535 0.26925 0.0
C669 C 0.08683 0.9073 0.34146 0.0
C670 C 0.04499 0.90562 0.27322 0.0
C671 C 0.06967 0.9194 0.3739 0.0
C672 C 1.00543 0.90908 0.30344 0.0
C673 C 0.99459 0.89063 0.15341 0.0
N674 N 0.04961 0.91804 0.34034 0.0
N675 N 0.01583 0.89333 0.17571 0.0
H676 H 0.90384 0.22593 0.5617 0.0
H677 H 0.86299 0.34547 0.51926 0.0
H678 H 0.85429 0.23504 0.38045 0.0
H679 H 0.86056 0.31068 0.74871 0.0
H680 H 0.86698 0.31045 0.44629 0.0
H681 H 0.8984 0.26334 0.60813 0.0
C682 C 0.89256 0.23612 0.52897 0.0
C683 C 0.87988 0.22745 0.46584 0.0
C684 C 0.86516 0.31063 0.51251 0.0
C685 C 0.87319 0.27021 0.52002 0.0
C686 C 0.86254 0.33056 0.55409 0.0
C687 C 0.86142 0.33115 0.64056 0.0
C688 C 0.86722 0.29139 0.55805 0.0
C689 C 0.86148 0.31117 0.68224 0.0
C690 C 0.88919 0.25734 0.55643 0.0
C691 C 0.86474 0.24122 0.42818 0.0
N692 N 0.86484 0.29233 0.64108 0.0
N693 N 0.86174 0.26191 0.45589 0.0
H694 H 0.54366 0.08423 0.77538 0.0
H695 H 0.43822 0.15548 0.8436 0.0
H696 H 0.54053 0.15203 0.7154 0.0
H697 H 0.43946 0.08665 0.88323 0.0
H698 H 0.47432 0.15369 0.783 0.0
H699 H 0.50511 0.084 0.80153 0.0
C700 C 0.53497 0.09908 0.76653 0.0
C701 C 0.54578 0.11822 0.74344 0.0
C702 C 0.46668 0.13887 0.80355 0.0
C703 C 0.50087 0.11808 0.77463 0.0
C704 C 0.44599 0.13986 0.83788 0.0
C705 C 0.43576 0.12116 0.86812 0.0
C706 C 0.47761 0.11903 0.80044 0.0
C707 C 0.44664 0.1014 0.85986 0.0
C708 C 0.51272 0.0989 0.78166 0.0
C709 C 0.53311 0.13685 0.73292 0.0
N710 N 0.46709 0.10089 0.82778 0.0
N711 N 0.51145 0.13636 0.74952 0.0
H712 H 0.35627 0.33929 0.97261 0.0
H713 H 0.4109 0.22202 0.94822 0.0
H714 H 0.38486 0.31105 0.75505 0.0
H715 H 0.35705 0.23302 0.11119 0.0
H716 H 0.40828 0.25958 0.90143 0.0
H717 H 0.3607 0.30411 0.04322 0.0
C718 C 0.36315 0.32577 0.9393 0.0
C719 C 0.37029 0.32837 0.85762 0.0
C720 C 0.39731 0.25393 0.94885 0.0
C721 C 0.37623 0.28856 0.93896 0.0
C722 C 0.39912 0.2326 0.97676 0.0
C723 C 0.38429 0.2244 0.03403 0.0
C724 C 0.38059 0.26725 0.97857 0.0
C725 C 0.36883 0.23873 0.06695 0.0
C726 C 0.36589 0.3058 0.9799 0.0
C727 C 0.37929 0.31017 0.81813 0.0
N728 N 0.36723 0.25941 0.03832 0.0
N729 N 0.38221 0.29133 0.85921 0.0
H730 H 0.92737 0.10713 0.71624 0.0
H731 H 0.04455 0.16255 0.75092 0.0
H732 H 0.95747 0.14698 0.53011 0.0
H733 H 0.02785 0.10648 0.89475 0.0
H734 H 1.00845 0.16186 0.69041 0.0
H735 H 0.96096 0.10953 0.7973 0.0
C736 C 0.94096 0.11615 0.6919 0.0
C737 C 0.93935 0.12686 0.61586 0.0
C738 C 0.01254 0.14984 0.73607 0.0
C739 C 0.97748 0.13028 0.70954 0.0
C740 C 0.03304 0.15051 0.77183 0.0
C741 C 0.03933 0.13446 0.82742 0.0
C742 C 0.99807 0.13302 0.75616 0.0
C743 C 0.02383 0.1189 0.85076 0.0
C744 C 0.96006 0.11767 0.73853 0.0
C745 C 0.95761 0.13848 0.58821 0.0
N746 N 1.00398 0.11842 0.81456 0.0
N747 N 0.97563 0.13999 0.635 0.0
H748 H 0.14401 0.68517 0.48042 0.0
H749 H 0.09205 0.80291 0.41443 0.0
H750 H 0.11302 0.70698 0.25845 0.0
H751 H 0.12712 0.78599 0.63258 0.0
H752 H 0.09472 0.76545 0.36764 0.0
H753 H 0.13591 0.72048 0.54401 0.0
C754 C 0.13578 0.69738 0.44469 0.0
C755 C 0.12919 0.69292 0.36381 0.0
C756 C 0.10142 0.76971 0.42684 0.0
C757 C 0.1193 0.73312 0.43698 0.0
C758 C 0.09934 0.79105 0.45463 0.0
C759 C 0.10919 0.79762 0.52792 0.0
C760 C 0.11362 0.75476 0.47234 0.0
C761 C 0.11917 0.78161 0.57591 0.0
C762 C 0.13092 0.71745 0.48135 0.0
C763 C 0.11836 0.70942 0.32104 0.0
N764 N 0.12152 0.76105 0.5467 0.0
N765 N 0.11372 0.72857 0.35805 0.0
H766 H 0.5616 0.88687 0.98181 0.0
H767 H 0.48554 0.88397 0.37811 0.0
H768 H 0.58789 0.9001 0.22159 0.0
H769 H 0.47055 0.85312 0.14832 0.0
H770 H 0.52263 0.89031 0.32887 0.0
H771 H 0.52723 0.87745 0.04507 0.0
C772 C 0.5601 0.88812 0.04802 0.0
C773 C 0.57792 0.89429 0.09609 0.0
C774 C 0.51145 0.88153 0.29021 0.0
C775 C 0.53806 0.88292 0.17013 0.0
C776 C 0.49034 0.87746 0.31901 0.0
C777 C 0.47485 0.86756 0.26807 0.0
C778 C 0.5171 0.87592 0.20918 0.0
C779 C 0.48194 0.86028 0.19077 0.0
C780 C 0.54041 0.88245 0.08431 0.0
C781 C 0.57466 0.89564 0.18175 0.0
N782 N 0.50226 0.86496 0.16329 0.0
N783 N 0.55518 0.88991 0.21606 0.0
H784 H 0.18417 0.3182 0.2073 0.0
H785 H 0.15234 0.39824 0.84323 0.0
H786 H 0.1623 0.38378 0.24455 0.0
H787 H 0.1785 0.33448 0.80055 0.0
H788 H 0.15553 0.39267 0.98994 0.0
H789 H 0.18194 0.32349 0.05925 0.0
C790 C 0.17885 0.33375 0.18455 0.0
C791 C 0.17324 0.35056 0.23898 0.0
C792 C 0.16063 0.37987 0.9488 0.0
C793 C 0.17068 0.35663 0.06859 0.0
C794 C 0.15879 0.38298 0.86452 0.0
C795 C 0.16515 0.36676 0.80881 0.0
C796 C 0.16886 0.36033 0.97865 0.0
C797 C 0.17345 0.34744 0.84093 0.0
C798 C 0.17761 0.33672 0.09973 0.0
C799 C 0.16654 0.37029 0.20534 0.0
N800 N 0.17502 0.34474 0.92386 0.0
N801 N 0.16541 0.37275 0.12238 0.0
H802 H 0.38242 0.4195 0.48586 0.0
H803 H 0.435 0.43175 0.03607 0.0
H804 H 0.44848 0.43927 0.44332 0.0
H805 H 0.36932 0.41145 0.08298 0.0
H806 H 0.44043 0.43524 0.1848 0.0
H807 H 0.37734 0.41694 0.3373 0.0
C808 C 0.39585 0.42326 0.44547 0.0
C809 C 0.41591 0.4295 0.47738 0.0
C810 C 0.42483 0.43004 0.16223 0.0
C811 C 0.41023 0.42672 0.30706 0.0
C812 C 0.42173 0.42813 0.07731 0.0
C813 C 0.40169 0.42139 0.04665 0.0
C814 C 0.40775 0.42513 0.2166 0.0
C815 C 0.38511 0.41666 0.10333 0.0
C816 C 0.39295 0.42185 0.36054 0.0
C817 C 0.43271 0.43437 0.42173 0.0
N818 N 0.38852 0.41863 0.18518 0.0
N819 N 0.42949 0.43285 0.33945 0.0
H820 H 0.3551 0.62149 0.38644 0.0
H821 H 0.31077 0.69735 0.74915 0.0
H822 H 0.32235 0.6819 0.34215 0.0
H823 H 0.34129 0.63555 0.78851 0.0
H824 H 0.31475 0.69223 0.60087 0.0
H825 H 0.3504 0.62685 0.53353 0.0
C826 C 0.34691 0.63595 0.40744 0.0
C827 C 0.33905 0.65125 0.3511 0.0
C828 C 0.3206 0.67979 0.64191 0.0
C829 C 0.33356 0.65746 0.52124 0.0
C830 C 0.31832 0.68267 0.72684 0.0
C831 C 0.32588 0.66693 0.78203 0.0
C832 C 0.33052 0.66101 0.61137 0.0
C833 C 0.33545 0.64826 0.74885 0.0
C834 C 0.34419 0.63896 0.49188 0.0
C835 C 0.32855 0.6696 0.38288 0.0
N836 N 0.33753 0.64587 0.66597 0.0
N837 N 0.32612 0.67219 0.46573 0.0
H838 H 0.0848 0.57775 0.56094 0.0
H839 H 0.13465 0.5972 0.00961 0.0
H840 H 0.14381 0.61296 0.60705 0.0
H841 H 0.07215 0.56825 0.96891 0.0
H842 H 0.13894 0.60166 0.86121 0.0
H843 H 0.08034 0.57264 0.70959 0.0
C844 C 0.09681 0.58437 0.60205 0.0
C845 C 0.11472 0.59574 0.5711 0.0
C846 C 0.12425 0.59437 0.88477 0.0
C847 C 0.10975 0.59001 0.74117 0.0
C848 C 0.12178 0.59192 0.96968 0.0
C849 C 0.10294 0.58261 0.00221 0.0
C850 C 0.10778 0.58735 0.83169 0.0
C851 C 0.08697 0.57558 0.94692 0.0
C852 C 0.09425 0.5815 0.68694 0.0
C853 C 0.1297 0.60411 0.62764 0.0
N854 N 0.08974 0.57812 0.86457 0.0
N855 N 0.12689 0.60103 0.70956 0.0
H856 H 0.84775 0.69666 0.20266 0.0
H857 H 0.84875 0.64252 0.75403 0.0
H858 H 0.84012 0.6283 0.15651 0.0
H859 H 0.84762 0.7116 0.79396 0.0
H860 H 0.84717 0.63717 0.90287 0.0
H861 H 0.84812 0.70293 0.05355 0.0
C862 C 0.84585 0.68306 0.16143 0.0
C863 C 0.84395 0.66196 0.19223 0.0
C864 C 0.84728 0.65351 0.87897 0.0
C865 C 0.84488 0.66885 0.02218 0.0
C866 C 0.8483 0.65655 0.79396 0.0
C867 C 0.84824 0.67751 0.76126 0.0
C868 C 0.84629 0.67155 0.93172 0.0
C869 C 0.8476 0.69511 0.81623 0.0
C870 C 0.84625 0.68658 0.07637 0.0
C871 C 0.84184 0.64485 0.13579 0.0
N872 N 0.84663 0.69173 0.8986 0.0
N873 N 0.84249 0.64866 0.05384 0.0
H874 H 0.63136 0.61051 0.53439 0.0
H875 H 0.58169 0.5906 0.98526 0.0
H876 H 0.5658 0.58935 0.57831 0.0
H877 H 0.64685 0.61249 0.93765 0.0
H878 H 0.57556 0.58909 0.8364 0.0
H879 H 0.63728 0.6111 0.68283 0.0
C880 C 0.61818 0.60614 0.57508 0.0
C881 C 0.59806 0.59995 0.54355 0.0
C882 C 0.5912 0.59418 0.85882 0.0
C883 C 0.60475 0.60033 0.71377 0.0
C884 C 0.59471 0.59496 0.94378 0.0
C885 C 0.61476 0.60177 0.97429 0.0
C886 C 0.60785 0.60027 0.80423 0.0
C887 C 0.63106 0.60726 0.91739 0.0
C888 C 0.62158 0.60637 0.65994 0.0
C889 C 0.58161 0.59425 0.59957 0.0
N890 N 0.62721 0.60645 0.8355 0.0
N891 N 0.58532 0.59456 0.68175 0.0
H892 H 0.67737 0.33873 0.73491 0.0
H893 H 0.66158 0.39002 0.2859 0.0
H894 H 0.65476 0.40364 0.68923 0.0
H895 H 0.68151 0.32402 0.32705 0.0
H896 H 0.65978 0.39541 0.43458 0.0
H897 H 0.68012 0.33304 0.58587 0.0
C898 C 0.67308 0.35177 0.69385 0.0
C899 C 0.66582 0.37165 0.72493 0.0
C900 C 0.66453 0.37973 0.41102 0.0
C901 C 0.66879 0.36529 0.55473 0.0
C902 C 0.66547 0.37665 0.32602 0.0
C903 C 0.67158 0.35653 0.29368 0.0
C904 C 0.66976 0.36259 0.46417 0.0
C905 C 0.67669 0.33983 0.34898 0.0
C906 C 0.67458 0.34852 0.60879 0.0
C907 C 0.66037 0.38798 0.66855 0.0
N908 N 0.67566 0.34323 0.43136 0.0
N909 N 0.66195 0.38442 0.58657 0.0
H910 H 0.8771 0.42514 0.44799 0.0
H911 H 0.96134 0.40974 0.07986 0.0
H912 H 0.94468 0.41199 0.48763 0.0
H913 H 0.89249 0.41594 0.04606 0.0
H914 H 0.95604 0.41184 0.22809 0.0
H915 H 0.88322 0.42404 0.30065 0.0
C916 C 0.89334 0.42215 0.42569 0.0
C917 C 0.91042 0.41853 0.48056 0.0
C918 C 0.94209 0.41267 0.18837 0.0
C919 C 0.91748 0.41713 0.31053 0.0
C920 C 0.94505 0.41144 0.10348 0.0
C921 C 0.9273 0.41274 0.05 0.0
C922 C 0.92123 0.41531 0.22052 0.0
C923 C 0.90664 0.41485 0.08466 0.0
C924 C 0.89678 0.42147 0.34124 0.0
C925 C 0.93109 0.41499 0.44771 0.0
N926 N 0.9042 0.41616 0.16769 0.0
N927 N 0.93404 0.41426 0.36463 0.0
H928 H 0.67229 0.89303 0.73077 0.0
H929 H 0.69046 0.84257 0.28091 0.0
H930 H 0.69624 0.82841 0.68856 0.0
H931 H 0.65982 0.90406 0.32828 0.0
H932 H 0.69451 0.83753 0.42969 0.0
H933 H 0.66924 0.89794 0.58226 0.0
C934 C 0.67675 0.87984 0.69048 0.0
C935 C 0.68427 0.86022 0.7225 0.0
C936 C 0.68689 0.85211 0.4072 0.0
C937 C 0.68115 0.86577 0.55214 0.0
C938 C 0.68463 0.85499 0.3223 0.0
C939 C 0.67479 0.87373 0.29177 0.0
C940 C 0.67931 0.86812 0.46169 0.0
C941 C 0.66745 0.88928 0.34856 0.0
C942 C 0.67512 0.88266 0.60556 0.0
C943 C 0.69027 0.84382 0.66691 0.0
N944 N 0.66988 0.88613 0.4304 0.0
N945 N 0.68857 0.84696 0.5846 0.0
H946 H 0.95542 0.94207 0.90252 0.0
H947 H 0.87404 0.91124 0.54196 0.0
H948 H 0.88975 0.92085 0.94377 0.0
H949 H 0.93862 0.93517 0.49786 0.0
H950 H 0.87983 0.91448 0.68877 0.0
H951 H 0.94973 0.9395 0.75506 0.0
C952 C 0.93976 0.93682 0.88078 0.0
C953 C 0.92303 0.93157 0.93617 0.0
C954 C 0.89276 0.91909 0.64724 0.0
C955 C 0.91648 0.92861 0.76625 0.0
C956 C 0.88951 0.91721 0.56301 0.0
C957 C 0.90591 0.92298 0.50699 0.0
C958 C 0.91258 0.92675 0.67654 0.0
C959 C 0.9255 0.9307 0.53856 0.0
C960 C 0.93656 0.93538 0.79624 0.0
C961 C 0.90315 0.92492 0.90372 0.0
N962 N 0.92832 0.93232 0.62135 0.0
N963 N 0.90045 0.92362 0.8209 0.0
H964 H 0.83131 0.20653 0.19023 0.0
H965 H 0.85621 0.12405 0.82436 0.0
H966 H 0.85162 0.14044 0.22653 0.0
H967 H 0.83574 0.1899 0.78338 0.0
H968 H 0.85413 0.13002 0.97129 0.0
H969 H 0.8326 0.2009 0.04214 0.0
C970 C 0.8361 0.1908 0.16723 0.0
C971 C 0.84142 0.17391 0.22139 0.0
C972 C 0.85005 0.1432 0.93049 0.0
C973 C 0.84286 0.16743 0.05092 0.0
C974 C 0.85122 0.13985 0.84608 0.0
C975 C 0.84619 0.15656 0.79079 0.0
C976 C 0.8438 0.16345 0.96087 0.0
C977 C 0.83973 0.17655 0.82344 0.0
C978 C 0.8368 0.18764 0.08239 0.0
C979 C 0.84747 0.15395 0.18746 0.0
N980 N 0.83878 0.17947 0.90648 0.0
N981 N 0.84801 0.15128 0.10444 0.0
H982 H 0.63967 0.10379 0.51036 0.0
H983 H 0.59176 0.08178 0.06031 0.0
H984 H 0.57751 0.07432 0.46784 0.0
H985 H 0.6513 0.11605 0.10674 0.0
H986 H 0.58666 0.0776 0.20904 0.0
H987 H 0.64468 0.10735 0.36195 0.0
C988 C 0.62702 0.09823 0.47 0.0
C989 C 0.60809 0.08898 0.502 0.0
C990 C 0.60083 0.08602 0.18646 0.0
C991 C 0.61376 0.09268 0.33148 0.0
C992 C 0.60377 0.08836 0.10152 0.0
C993 C 0.62198 0.09926 0.07066 0.0
C994 C 0.61625 0.09461 0.24086 0.0
C995 C 0.63696 0.10756 0.12731 0.0
C996 C 0.62991 0.10016 0.38508 0.0
C997 C 0.59238 0.08163 0.44624 0.0
N998 N 0.63376 0.10505 0.20932 0.0
N999 N 0.59556 0.08365 0.36389 0.0
H1000 H 0.34913 0.12274 0.67269 0.0
H1001 H 0.33538 0.20759 0.30757 0.0
H1002 H 0.33923 0.191 0.71456 0.0
H1003 H 0.34991 0.13993 0.27113 0.0
H1004 H 0.33561 0.2019 0.45566 0.0
H1005 H 0.34788 0.1289 0.52586 0.0
C1006 C 0.34662 0.13911 0.65115 0.0
C1007 C 0.34438 0.15644 0.70662 0.0
C1008 C 0.33879 0.18831 0.41537 0.0
C1009 C 0.34295 0.16356 0.53673 0.0
C1010 C 0.33868 0.1915 0.33054 0.0
C1011 C 0.34264 0.17417 0.27637 0.0
C1012 C 0.34283 0.16763 0.44676 0.0
C1013 C 0.34683 0.15377 0.31024 0.0
C1014 C 0.34593 0.14258 0.56683 0.0
C1015 C 0.34097 0.17717 0.67432 0.0
N1016 N 0.34677 0.15108 0.39322 0.0
N1017 N 0.34043 0.18018 0.59132 0.0
H1018 H 0.12566 0.10275 0.07261 0.0
H1019 H 0.07308 0.09313 0.52315 0.0
H1020 H 0.05892 0.08573 0.1177 0.0
H1021 H 0.14029 0.10745 0.47592 0.0
H1022 H 0.0673 0.0903 0.37442 0.0
H1023 H 0.13122 0.10488 0.22118 0.0
C1024 C 0.1122 0.09949 0.11354 0.0
C1025 C 0.09183 0.09407 0.08245 0.0
C1026 C 0.08331 0.09401 0.39692 0.0
C1027 C 0.09802 0.09642 0.25231 0.0
C1028 C 0.0866 0.09551 0.48174 0.0
C1029 C 0.10715 0.10045 0.51214 0.0
C1030 C 0.10073 0.09754 0.34253 0.0
C1031 C 0.12409 0.1037 0.45555 0.0
C1032 C 0.11536 0.10067 0.19837 0.0
C1033 C 0.07495 0.08996 0.1386 0.0
N1034 N 0.12049 0.10221 0.37374 0.0
N1035 N 0.07843 0.09123 0.22063 0.0
H1036 H 0.18194 0.88248 0.1797 0.0
H1037 H 0.15059 0.8021 0.81428 0.0
H1038 H 0.15457 0.81926 0.22267 0.0
H1039 H 0.16625 0.86956 0.7791 0.0
H1040 H 0.15392 0.80701 0.96255 0.0
H1041 H 0.17929 0.87649 0.03227 0.0
C1042 C 0.17558 0.86717 0.15806 0.0
C1043 C 0.16849 0.85131 0.21384 0.0
C1044 C 0.15652 0.82075 0.92249 0.0
C1045 C 0.16518 0.84445 0.04401 0.0
C1046 C 0.15459 0.81802 0.83763 0.0
C1047 C 0.1582 0.83546 0.78371 0.0
C1048 C 0.16228 0.84105 0.95414 0.0
C1049 C 0.16328 0.85566 0.818 0.0
C1050 C 0.17397 0.86383 0.07366 0.0
C1051 C 0.16047 0.8318 0.18198 0.0
N1052 N 0.1653 0.85785 0.9009 0.0
N1053 N 0.15894 0.82894 0.09904 0.0
H1054 H 0.46753 0.90762 0.55979 0.0
H1055 H 0.38524 0.93308 0.92679 0.0
H1056 H 0.39939 0.91908 0.526 0.0
H1057 H 0.45121 0.91378 0.96815 0.0
H1058 H 0.39127 0.93061 0.77946 0.0
H1059 H 0.46257 0.91116 0.708 0.0
C1060 C 0.45145 0.91072 0.58344 0.0
C1061 C 0.43383 0.91312 0.52989 0.0
C1062 C 0.40451 0.92701 0.82041 0.0
C1063 C 0.42817 0.91744 0.70034 0.0
C1064 C 0.40113 0.92851 0.90484 0.0
C1065 C 0.41773 0.9235 0.96023 0.0
C1066 C 0.42468 0.92042 0.79024 0.0
C1067 C 0.438 0.9179 0.92783 0.0
C1068 C 0.44869 0.9128 0.66829 0.0
C1069 C 0.41343 0.91705 0.5646 0.0
N1070 N 0.44088 0.91635 0.84481 0.0
N1071 N 0.41121 0.91921 0.6475 0.0
H1072 H 0.25572 0.33055 0.31541 0.0
H1073 H 0.2622 0.20481 0.20349 0.0
H1074 H 0.26081 0.27987 0.49525 0.0
H1075 H 0.26385 0.2552 0.02128 0.0
H1076 H 0.25852 0.23226 0.31092 0.0
H1077 H 0.26046 0.30375 0.20615 0.0
C1078 C 0.2592 0.31395 0.33206 0.0
C1079 C 0.25788 0.3074 0.41443 0.0
C1080 C 0.25914 0.23735 0.24728 0.0
C1081 C 0.26188 0.27646 0.29007 0.0
C1082 C 0.26048 0.22161 0.18577 0.0
C1083 C 0.26308 0.22775 0.10343 0.0
C1084 C 0.26034 0.25936 0.22599 0.0
C1085 C 0.26154 0.24981 0.08407 0.0
C1086 C 0.26116 0.29852 0.26957 0.0
C1087 C 0.2619 0.28559 0.43244 0.0
N1088 N 0.26071 0.26487 0.14496 0.0
N1089 N 0.2631 0.27079 0.37079 0.0
H1090 H 0.52947 0.50704 0.29316 0.0
H1091 H 0.49296 0.51247 0.76375 0.0
H1092 H 0.57412 0.51979 0.48915 0.0
H1093 H 0.44892 0.5108 0.56016 0.0
H1094 H 0.52315 0.5158 0.66713 0.0
H1095 H 0.50035 0.50362 0.39403 0.0
C1096 C 0.53339 0.50778 0.35797 0.0
C1097 C 0.55421 0.51373 0.38288 0.0
C1098 C 0.50685 0.51533 0.64349 0.0
C1099 C 0.5208 0.51126 0.49842 0.0
C1100 C 0.48953 0.5142 0.69881 0.0
C1101 C 0.4684 0.51134 0.66985 0.0
C1102 C 0.50287 0.51365 0.5588 0.0
C1103 C 0.46495 0.51311 0.58502 0.0
C1104 C 0.51661 0.50664 0.41542 0.0
C1105 C 0.55828 0.51503 0.46753 0.0
N1106 N 0.48204 0.51349 0.53228 0.0
N1107 N 0.54163 0.51441 0.52231 0.0
H1108 H 0.24379 0.66664 0.88182 0.0
H1109 H 0.23784 0.78252 0.69962 0.0
H1110 H 0.22915 0.72232 0.02997 0.0
H1111 H 0.20296 0.73293 0.56916 0.0
H1112 H 0.24337 0.75709 0.81319 0.0
H1113 H 0.233 0.68699 0.75888 0.0
C1114 C 0.23707 0.6827 0.88918 0.0
C1115 C 0.23744 0.69295 0.96624 0.0
C1116 C 0.23488 0.75169 0.7588 0.0
C1117 C 0.22665 0.7165 0.82672 0.0
C1118 C 0.23218 0.76601 0.6935 0.0
C1119 C 0.22017 0.75965 0.62505 0.0
C1120 C 0.22579 0.73088 0.75469 0.0
C1121 C 0.21253 0.73824 0.62097 0.0
C1122 C 0.23147 0.69444 0.8189 0.0
C1123 C 0.22917 0.71394 0.97201 0.0
N1124 N 0.21542 0.72452 0.68525 0.0
N1125 N 0.22484 0.72534 0.90295 0.0
H1126 H 0.09901 0.49488 0.09892 0.0
H1127 H 0.97598 0.48811 0.9815 0.0
H1128 H 0.0483 0.4843 0.27609 0.0
H1129 H 0.02532 0.47115 0.80568 0.0
H1130 H 1.00363 0.49093 0.08803 0.0
H1131 H 0.07406 0.48546 0.98882 0.0
C1132 C 0.08302 0.48917 0.11519 0.0
C1133 C 0.07557 0.49073 0.19652 0.0
C1134 C 1.00848 0.48698 0.02576 0.0
C1135 C 0.04667 0.48135 0.07117 0.0
C1136 C 0.9928 0.48606 0.96461 0.0
C1137 C 0.99854 0.47994 0.88467 0.0
C1138 C 0.03001 0.48181 0.00642 0.0
C1139 C 0.02043 0.47647 0.86644 0.0
C1140 C 0.06857 0.48445 0.052 0.0
C1141 C 0.0546 0.48345 0.21391 0.0
N1142 N 0.03543 0.47734 0.92703 0.0
N1143 N 0.04055 0.47994 0.15147 0.0
H1144 H 0.77841 0.76895 0.50339 0.0
H1145 H 0.7788 0.79721 0.98219 0.0
H1146 H 0.77419 0.72174 0.69704 0.0
H1147 H 0.76746 0.84545 0.79713 0.0
H1148 H 0.78434 0.77029 0.87436 0.0
H1149 H 0.77653 0.79787 0.60629 0.0
C1150 C 0.77584 0.76471 0.56734 0.0
C1151 C 0.77594 0.74295 0.59176 0.0
C1152 C 0.78121 0.78689 0.85701 0.0
C1153 C 0.7755 0.77579 0.71002 0.0
C1154 C 0.77885 0.80245 0.91862 0.0
C1155 C 0.7724 0.8235 0.89847 0.0
C1156 C 0.77746 0.79263 0.77478 0.0
C1157 C 0.77237 0.82933 0.81512 0.0
C1158 C 0.77544 0.7812 0.62621 0.0
C1159 C 0.77359 0.73831 0.67561 0.0
N1160 N 0.77412 0.81383 0.75606 0.0
N1161 N 0.77388 0.75458 0.73188 0.0
H1162 H 0.75908 0.28363 0.02085 0.0
H1163 H 0.7547 0.24732 0.49185 0.0
H1164 H 0.7522 0.32822 0.22238 0.0
H1165 H 0.76183 0.20271 0.2905 0.0
H1166 H 0.75125 0.27698 0.39373 0.0
H1167 H 0.76284 0.25398 0.11888 0.0
C1168 C 0.75973 0.28737 0.08592 0.0
C1169 C 0.75534 0.30841 0.11359 0.0
C1170 C 0.75299 0.26064 0.3707 0.0
C1171 C 0.75816 0.27445 0.22622 0.0
C1172 C 0.75418 0.24358 0.42677 0.0
C1173 C 0.75846 0.22252 0.39921 0.0
C1174 C 0.75603 0.25649 0.28649 0.0
C1175 C 0.7583 0.2187 0.31422 0.0
C1176 C 0.76109 0.27032 0.14196 0.0
C1177 C 0.75575 0.31224 0.19856 0.0
N1178 N 0.75772 0.23558 0.26078 0.0
N1179 N 0.75647 0.29536 0.25198 0.0
H1180 H 0.0631 0.99532 0.93199 0.0
H1181 H 0.94366 0.03048 0.07786 0.0
H1182 H 0.02973 0.05086 0.83674 0.0
H1183 H 0.98043 0.97952 0.19016 0.0
H1184 H 0.97479 0.0384 0.98776 0.0
H1185 H 0.03182 0.98783 0.02148 0.0
C1186 C 0.04908 1.00573 0.92904 0.0
C1187 C 0.04911 0.02388 0.87768 0.0
C1188 C 0.97605 0.02553 0.03253 0.0
C1189 C 0.01348 0.01578 0.98045 0.0
C1190 C 0.95838 0.02122 0.08452 0.0
C1191 C 0.95939 1.00415 0.14091 0.0
C1192 C 0.99475 0.01261 0.03718 0.0
C1193 C 0.97874 0.99245 0.14633 0.0
C1194 C 0.03133 1.00165 0.98072 0.0
C1195 C 0.03062 0.03701 0.87678 0.0
N1196 N 0.99554 0.99677 0.09498 0.0
N1197 N 0.01362 0.03277 0.92743 0.0
H1198 H 0.48346 0.99075 0.46599 0.0
H1199 H 0.60533 1.00045 0.59174 0.0
H1200 H 0.53307 0.9684 0.30027 0.0
H1201 H 0.5541 0.98981 0.76681 0.0
H1202 H 0.58115 0.98901 0.48113 0.0
H1203 H 0.51075 0.99525 0.57332 0.0
C1204 C 0.50027 0.98773 0.45132 0.0
C1205 C 0.50622 0.9797 0.37414 0.0
C1206 C 0.57544 0.98842 0.54411 0.0
C1207 C 0.53722 0.98369 0.49681 0.0
C1208 C 0.58941 0.99436 0.60747 0.0
C1209 C 0.58156 0.99621 0.68814 0.0
C1210 C 0.55359 0.98461 0.56243 0.0
C1211 C 0.5607 0.98858 0.70517 0.0
C1212 C 0.51572 0.98968 0.51299 0.0
C1213 C 0.52806 0.97511 0.35884 0.0
N1214 N 0.54711 0.98389 0.64244 0.0
N1215 N 0.54285 0.97714 0.41979 0.0
H1216 H 0.1335 0.54376 0.19166 0.0
H1217 H 0.10919 0.43566 0.27606 0.0
H1218 H 0.17746 0.53202 0.39088 0.0
H1219 H 0.17591 0.42968 0.3451 0.0
H1220 H 0.11657 0.47286 0.23008 0.0
H1221 H 0.1326 0.50454 0.16381 0.0
C1222 C 0.1435 0.53309 0.22783 0.0
C1223 C 0.15527 0.5412 0.29495 0.0
C1224 C 0.12977 0.46315 0.25212 0.0
C1225 C 0.15393 0.49635 0.26439 0.0
C1226 C 0.1256 0.44175 0.27756 0.0
C1227 C 0.142 0.42941 0.31379 0.0
C1228 C 0.15031 0.4724 0.26513 0.0
C1229 C 0.16282 0.43854 0.31695 0.0
C1230 C 0.14272 0.51065 0.21256 0.0
C1231 C 0.16809 0.52652 0.33881 0.0
N1232 N 0.16621 0.45955 0.29551 0.0
N1233 N 0.16685 0.50491 0.32362 0.0
H1234 H 0.33415 0.43178 0.57824 0.0
H1235 H 0.22435 0.37337 0.44562 0.0
H1236 H 0.33035 0.36354 0.52731 0.0
H1237 H 0.22855 0.42979 0.59991 0.0
H1238 H 0.26369 0.37464 0.42545 0.0
H1239 H 0.29674 0.43589 0.53356 0.0
C1240 C 0.32571 0.41779 0.55407 0.0
C1241 C 0.33548 0.3973 0.55603 0.0
C1242 C 0.25588 0.38714 0.46154 0.0
C1243 C 0.29222 0.4018 0.50705 0.0
C1244 C 0.23337 0.38654 0.47262 0.0
C1245 C 0.22307 0.40142 0.52522 0.0
C1246 C 0.26814 0.40304 0.50188 0.0
C1247 C 0.23571 0.41812 0.5583 0.0
C1248 C 0.30425 0.42011 0.52957 0.0
C1249 C 0.32359 0.37967 0.52565 0.0
N1250 N 0.25752 0.41835 0.5469 0.0
N1251 N 0.30244 0.38224 0.50374 0.0
H1252 H 0.40192 0.5919 0.81095 0.0
H1253 H 0.33748 0.48287 0.84204 0.0
H1254 H 0.33429 0.58877 0.872 0.0
H1255 H 0.39801 0.48708 0.71217 0.0
H1256 H 0.3338 0.52216 0.83228 0.0
H1257 H 0.39959 0.55502 0.75432 0.0
C1258 C 0.38638 0.58386 0.80892 0.0
C1259 C 0.36823 0.5935 0.84553 0.0
C1260 C 0.34766 0.51453 0.80373 0.0
C1261 C 0.36557 0.55096 0.78428 0.0
C1262 C 0.34956 0.49197 0.80817 0.0
C1263 C 0.36805 0.48158 0.77783 0.0
C1264 C 0.3647 0.52696 0.77072 0.0
C1265 C 0.38353 0.49438 0.73682 0.0
C1266 C 0.38508 0.56266 0.77757 0.0
C1267 C 0.34864 0.58199 0.84375 0.0
N1268 N 0.38181 0.51639 0.73634 0.0
N1269 N 0.34791 0.5613 0.81533 0.0
H1270 H 0.18064 0.65723 0.05098 0.0
H1271 H 0.2764 0.58653 0.15 0.0
H1272 H 0.17201 0.58872 0.0847 0.0
H1273 H 0.28598 0.63766 0.97403 0.0
H1274 H 0.23814 0.58558 0.11515 0.0
H1275 H 0.21819 0.65063 0.00848 0.0
C1276 C 0.18628 0.64072 0.04496 0.0
C1277 C 0.17308 0.62346 0.07021 0.0
C1278 C 0.24864 0.59665 0.08229 0.0
C1279 C 0.21636 0.61593 0.0265 0.0
C1280 C 0.27059 0.59703 0.10166 0.0
C1281 C 0.28441 0.61237 0.06583 0.0
C1282 C 0.24018 0.61227 0.02876 0.0
C1283 C 0.27585 0.62586 0.00452 0.0
C1284 C 0.20783 0.63697 0.02171 0.0
C1285 C 0.18155 0.60245 0.0645 0.0
N1286 N 0.25414 0.62602 0.98985 0.0
N1287 N 0.20274 0.59932 0.04557 0.0
H1288 H 0.86248 0.47552 0.61372 0.0
H1289 H 0.83546 0.58516 0.62989 0.0
H1290 H 0.88194 0.48489 0.86471 0.0
H1291 H 0.90169 0.58533 0.71032 0.0
H1292 H 0.83189 0.5476 0.67473 0.0
H1293 H 0.85371 0.51417 0.60514 0.0
C1294 C 0.86361 0.48537 0.66866 0.0
C1295 C 0.87261 0.47673 0.74049 0.0
C1296 C 0.84699 0.55605 0.68466 0.0
C1297 C 0.86434 0.52136 0.72901 0.0
C1298 C 0.84909 0.57757 0.65977 0.0
C1299 C 0.86903 0.58852 0.66552 0.0
C1300 C 0.86481 0.54529 0.71743 0.0
C1301 C 0.88602 0.5777 0.70496 0.0
C1302 C 0.85914 0.50758 0.66311 0.0
C1303 C 0.87462 0.49072 0.80864 0.0
N1304 N 0.8836 0.55656 0.72857 0.0
N1305 N 0.87148 0.51245 0.80027 0.0
H1306 H 0.67543 0.60131 0.46406 0.0
H1307 H 0.78346 0.66764 0.54407 0.0
H1308 H 0.67838 0.67073 0.48121 0.0
H1309 H 0.78047 0.60368 0.43988 0.0
H1310 H 0.74477 0.66561 0.57564 0.0
H1311 H 0.71272 0.5992 0.51218 0.0
C1312 C 0.68362 0.61608 0.48198 0.0
C1313 C 0.67381 0.63623 0.46877 0.0
C1314 C 0.75271 0.65173 0.54844 0.0
C1315 C 0.71679 0.63399 0.52102 0.0
C1316 C 0.77484 0.65279 0.53105 0.0
C1317 C 0.78516 0.63579 0.48911 0.0
C1318 C 0.74083 0.63348 0.52408 0.0
C1319 C 0.77318 0.61705 0.47285 0.0
C1320 C 0.70501 0.61488 0.50831 0.0
C1321 C 0.68526 0.65488 0.49139 0.0
N1322 N 0.75158 0.6165 0.48922 0.0
N1323 N 0.70634 0.65335 0.51473 0.0
H1324 H 0.67797 0.54192 0.19319 0.0
H1325 H 0.60599 0.44061 0.24934 0.0
H1326 H 0.62039 0.54514 0.34156 0.0
H1327 H 0.67415 0.4361 0.19923 0.0
H1328 H 0.6116 0.47758 0.30166 0.0
H1329 H 0.67902 0.50284 0.21404 0.0
C1330 C 0.66608 0.53453 0.23344 0.0
C1331 C 0.64902 0.54689 0.26519 0.0
C1332 C 0.62546 0.46822 0.28205 0.0
C1333 C 0.6492 0.50171 0.28499 0.0
C1334 C 0.62226 0.44699 0.25309 0.0
C1335 C 0.63965 0.43522 0.22034 0.0
C1336 C 0.64611 0.47778 0.27664 0.0
C1337 C 0.66032 0.44459 0.22427 0.0
C1338 C 0.66644 0.51208 0.24428 0.0
C1339 C 0.63371 0.53624 0.3151 0.0
N1340 N 0.6629 0.46538 0.24996 0.0
N1341 N 0.63372 0.51422 0.32121 0.0
H1342 H 0.72888 0.4343 0.93238 0.0
H1343 H 0.83174 0.36339 -0.00384 0.0
H1344 H 0.72618 0.3765 0.0791 0.0
H1345 H 0.8348 0.431 0.93337 0.0
H1346 H 0.79428 0.36861 0.04382 0.0
H1347 H 0.76801 0.43535 0.94999 0.0
C1348 C 0.73641 0.42233 0.97144 0.0
C1349 C 0.72412 0.4053 0.00414 0.0
C1350 C 0.80339 0.38245 0.022 0.0
C1351 C 0.76939 0.40549 0.0203 0.0
C1352 C 0.82489 0.37949 -0.00438 0.0
C1353 C 0.83646 0.39676 0.96047 0.0
C1354 C 0.79337 0.40275 0.01223 0.0
C1355 C 0.82649 0.41719 0.95963 0.0
C1356 C 0.7589 0.42269 0.98041 0.0
C1357 C 0.73497 0.38985 0.05216 0.0
N1358 N 0.80552 0.41951 0.98333 0.0
N1359 N 0.757 0.38993 0.05681 0.0
H1360 H 0.61601 0.94227 0.768 0.0
H1361 H 0.68733 0.03878 0.87078 0.0
H1362 H 0.6836 0.93374 0.81872 0.0
H1363 H 0.6374 0.04745 0.69073 0.0
H1364 H 0.68805 1.00023 0.83921 0.0
H1365 H 0.62372 0.97954 0.72361 0.0
C1366 C 0.63259 0.94786 0.76582 0.0
C1367 C 0.64922 0.93479 0.79636 0.0
C1368 C 0.67728 0.01056 0.80475 0.0
C1369 C 0.6579 0.97785 0.75079 0.0
C1370 C 0.67707 0.03271 0.82213 0.0
C1371 C 0.66206 0.04642 0.78451 0.0
C1372 C 0.66184 1.00176 0.75118 0.0
C1373 C 0.64889 0.03746 0.72286 0.0
C1374 C 0.63695 0.96928 0.7416 0.0
C1375 C 0.67033 0.94321 0.79488 0.0
N1376 N 0.64854 0.01558 0.71006 0.0
N1377 N 0.67396 0.96428 0.77495 0.0
H1378 H 0.83588 0.86201 -0.00165 0.0
H1379 H 0.73998 0.93573 0.09255 0.0
H1380 H 0.84553 0.93058 0.02518 0.0
H1381 H 0.7301 0.88467 0.91668 0.0
H1382 H 0.77869 0.9347 0.06305 0.0
H1383 H 0.798 0.86881 0.96059 0.0
C1384 C 0.83041 0.87854 0.99187 0.0
C1385 C 0.84415 0.89577 0.01339 0.0
C1386 C 0.76806 0.92402 0.02924 0.0
C1387 C 0.80035 0.90362 0.9756 0.0
C1388 C 0.74582 0.92483 0.04525 0.0
C1389 C 0.73157 0.91017 0.00779 0.0
C1390 C 0.77646 0.90789 0.97732 0.0
C1391 C 0.74037 0.89602 0.94848 0.0
C1392 C 0.80863 0.88243 0.97161 0.0
C1393 C 0.8357 0.91683 0.0076 0.0
N1394 N 0.76227 0.89474 0.937 0.0
N1395 N 0.81437 0.9201 0.99163 0.0
H1396 H 0.84109 0.9838 0.32368 0.0
H1397 H 0.90812 0.08852 0.26607 0.0
H1398 H 0.89442 0.98337 0.15363 0.0
H1399 H 0.83999 0.09027 0.31937 0.0
H1400 H 0.90376 0.05127 0.21375 0.0
H1401 H 0.83926 0.02312 0.31217 0.0
C1402 C 0.85189 0.99192 0.28111 0.0
C1403 C 0.86799 0.98019 0.23984 0.0
C1404 C 0.88965 0.0601 0.23423 0.0
C1405 C 0.86698 0.0257 0.23035 0.0
C1406 C 0.89211 0.08149 0.26321 0.0
C1407 C 0.87436 0.09264 0.29665 0.0
C1408 C 0.86939 0.04973 0.24034 0.0
C1409 C 0.85409 0.08236 0.29383 0.0
C1410 C 0.85108 0.0145 0.27548 0.0
C1411 C 0.88193 0.99178 0.18731 0.0
N1412 N 0.85226 0.06148 0.26814 0.0
N1413 N 0.88157 0.01392 0.18592 0.0
H1414 H 0.7843 0.09425 0.57385 0.0
H1415 H 0.68171 0.16494 0.54254 0.0
H1416 H 0.78537 0.15373 0.43692 0.0
H1417 H 0.6784 0.09619 0.58183 0.0
H1418 H 0.71828 0.16053 0.48523 0.0
H1419 H 0.74512 0.09263 0.55791 0.0
C1420 C 0.7764 0.10649 0.53712 0.0
C1421 C 0.78819 0.12418 0.50707 0.0
C1422 C 0.70925 0.14629 0.50345 0.0
C1423 C 0.74297 0.12326 0.49294 0.0
C1424 C 0.68824 0.14881 0.53521 0.0
C1425 C 0.67689 0.13087 0.56591 0.0
C1426 C 0.7191 0.12575 0.50443 0.0
C1427 C 0.6865 0.11041 0.55783 0.0
C1428 C 0.7539 0.10577 0.52908 0.0
C1429 C 0.77692 0.13991 0.46194 0.0
N1430 N 0.70713 0.10846 0.52967 0.0
N1431 N 0.75491 0.13947 0.45843 0.0
H1432 H 0.40316 0.09008 0.24458 0.0
H1433 H 0.38793 0.98257 0.36769 0.0
H1434 H 0.33855 0.08429 0.14941 0.0
H1435 H 0.36939 0.98222 0.11314 0.0
H1436 H 0.3787 0.02111 0.37584 0.0
H1437 H 0.40073 0.05229 0.29252 0.0
C1438 C 0.38817 0.08127 0.2371 0.0
C1439 C 0.37112 0.09032 0.19244 0.0
C1440 C 0.37578 0.01232 0.31933 0.0
C1441 C 0.36855 0.0471 0.24384 0.0
C1442 C 0.38048 0.99019 0.31501 0.0
C1443 C 0.37932 0.97908 0.23958 0.0
C1444 C 0.3691 0.02316 0.24839 0.0
C1445 C 0.37027 0.99002 0.17266 0.0
C1446 C 0.38684 0.05965 0.2637 0.0
C1447 C 0.35219 0.07786 0.18287 0.0
N1448 N 0.36577 0.01155 0.17826 0.0
N1449 N 0.3517 0.05673 0.20549 0.0
H1450 H 0.1751 0.09391 0.98697 0.0
H1451 H 0.28564 0.15713 0.06767 0.0
H1452 H 0.17875 0.1631 0.01299 0.0
H1453 H 0.28035 0.09623 0.94098 0.0
H1454 H 0.24683 0.15576 0.09848 0.0
H1455 H 0.21323 0.09123 0.02411 0.0
C1456 C 0.18368 0.10848 0.00455 0.0
C1457 C 0.17364 0.12875 -0.00257 0.0
C1458 C 0.2543 0.14236 0.06626 0.0
C1459 C 0.21766 0.12586 0.03731 0.0
C1460 C 0.27652 0.14304 0.04916 0.0
C1461 C 0.28631 0.12676 0.00145 0.0
C1462 C 0.2418 0.12509 0.03658 0.0
C1463 C 0.27357 0.10898 0.97873 0.0
C1464 C 0.20556 0.10696 0.0245 0.0
C1465 C 0.18572 0.14714 0.01898 0.0
N1466 N 0.25199 0.10872 -0.0043 0.0
N1467 N 0.20721 0.14531 0.03646 0.0
H1468 H 0.10975 0.92955 0.7298 0.0
H1469 H 0.1175 0.03741 0.85458 0.0
H1470 H 0.17563 0.9366 0.6471 0.0
H1471 H 0.17005 0.03893 0.6809 0.0
H1472 H 0.11935 0.99769 0.85588 0.0
H1473 H 0.11141 0.96618 0.78767 0.0
C1474 C 0.1248 0.93846 0.7263 0.0
C1475 C 0.1425 0.92991 0.68275 0.0
C1476 C 0.13076 1.00665 0.81854 0.0
C1477 C 0.14459 0.97215 0.74862 0.0
C1478 C 0.13 0.0294 0.81926 0.0
C1479 C 0.14369 0.04154 0.76773 0.0
C1480 C 0.14538 0.99598 0.76576 0.0
C1481 C 0.15936 0.03028 0.72232 0.0
C1482 C 0.12577 0.95952 0.75934 0.0
C1483 C 0.16146 0.94249 0.67922 0.0
N1484 N 0.15961 1.00825 0.72169 0.0
N1485 N 0.16185 0.96295 0.71008 0.0
H1486 H 0.22669 0.89856 0.36045 0.0
H1487 H 0.33993 0.86419 0.47904 0.0
H1488 H 0.23463 0.87518 0.60741 0.0
H1489 H 0.33241 0.92823 0.37796 0.0
H1490 H 0.3017 0.86524 0.52302 0.0
H1491 H 0.26513 0.90859 0.3576 0.0
C1492 C 0.23617 0.89671 0.41577 0.0
C1493 C 0.2272 0.8865 0.48498 0.0
C1494 C 0.3087 0.87921 0.49281 0.0
C1495 C 0.27163 0.89611 0.47954 0.0
C1496 C 0.33058 0.87869 0.4684 0.0
C1497 C 0.33952 0.89602 0.42385 0.0
C1498 C 0.29563 0.89692 0.47077 0.0
C1499 C 0.32627 0.91428 0.41093 0.0
C1500 C 0.25826 0.90195 0.4135 0.0
C1501 C 0.24073 0.8835 0.55352 0.0
N1502 N 0.30499 0.914 0.43193 0.0
N1503 N 0.26236 0.8875 0.54812 0.0
H1504 H 0.22488 0.3127 0.82475 0.0
H1505 H 0.29748 0.21322 0.68472 0.0
H1506 H 0.20546 0.26566 0.64337 0.0
H1507 H 0.31724 0.26057 0.86405 0.0
H1508 H 0.26546 0.23473 0.65648 0.0
H1509 H 0.25786 0.29219 0.8475 0.0
C1510 C 0.2271 0.29757 0.79212 0.0
C1511 C 0.21316 0.29167 0.72802 0.0
C1512 C 0.27698 0.24059 0.70119 0.0
C1513 C 0.25092 0.26861 0.75181 0.0
C1514 C 0.29563 0.22867 0.71545 0.0
C1515 C 0.30903 0.23428 0.78152 0.0
C1516 C 0.27246 0.25852 0.75141 0.0
C1517 C 0.30654 0.25495 0.81605 0.0
C1518 C 0.24625 0.28623 0.80334 0.0
C1519 C 0.21633 0.27145 0.69051 0.0
N1520 N 0.28793 0.26593 0.80349 0.0
N1521 N 0.23536 0.26102 0.70053 0.0
H1522 H 0.45865 0.47081 0.07182 0.0
H1523 H 0.56144 0.5431 0.96354 0.0
H1524 H 0.5046 0.45471 0.88124 0.0
H1525 H 0.51358 0.55996 0.14632 0.0
H1526 H 0.54031 0.51108 0.92872 0.0
H1527 H 0.48153 0.50105 0.11232 0.0
C1528 C 0.474 0.47306 0.04068 0.0
C1529 C 0.47908 0.46111 0.96981 0.0
C1530 C 0.5343 0.52196 0.97571 0.0
C1531 C 0.50485 0.49588 0.01382 0.0
C1532 C 0.54605 0.54055 0.99408 0.0
C1533 C 0.53973 0.55371 0.06033 0.0
C1534 C 0.516 0.51684 0.02313 0.0
C1535 C 0.51943 0.54994 0.09637 0.0
C1536 C 0.48677 0.4907 0.06238 0.0
C1537 C 0.49954 0.46416 0.93397 0.0
N1538 N 0.50857 0.53145 0.07904 0.0
N1539 N 0.51135 0.48184 0.95427 0.0
H1540 H 0.16607 0.74955 0.33263 0.0
H1541 H 0.28072 0.74269 0.14359 0.0
H1542 H 0.19563 0.80057 0.19086 0.0
H1543 H 0.2476 0.68883 0.25743 0.0
H1544 H 0.24626 0.76134 0.13105 0.0
H1545 H 0.18955 0.72354 0.26485 0.0
C1546 C 0.17668 0.7552 0.28398 0.0
C1547 C 0.18015 0.77739 0.27152 0.0
C1548 C 0.24647 0.7453 0.15771 0.0
C1549 C 0.20734 0.748 0.19612 0.0
C1550 C 0.26619 0.73471 0.16538 0.0
C1551 C 0.26713 0.71432 0.20274 0.0
C1552 C 0.22752 0.73545 0.18776 0.0
C1553 C 0.24773 0.70468 0.22922 0.0
C1554 C 0.19042 0.74033 0.2462 0.0
C1555 C 0.19337 0.78363 0.20536 0.0
N1556 N 0.22877 0.71542 0.2219 0.0
N1557 N 0.20735 0.76912 0.17271 0.0
H1558 H 0.07007 0.51993 0.5757 0.0
H1559 H 0.96602 0.45182 0.4561 0.0
H1560 H 0.0207 0.54213 0.40926 0.0
H1561 H 0.01483 0.42913 0.62277 0.0
H1562 H 0.98942 0.48191 0.41816 0.0
H1563 H 0.05022 0.48623 0.59325 0.0
C1564 C 0.05471 0.51807 0.54481 0.0
C1565 C 0.04762 0.53349 0.48762 0.0
C1566 C 0.99522 0.47011 0.46192 0.0
C1567 C 0.02524 0.49472 0.50558 0.0
C1568 C 0.98213 0.45251 0.48167 0.0
C1569 C 0.98781 0.43915 0.5478 0.0
C1570 C 0.01425 0.47353 0.50674 0.0
C1571 C 0.00924 0.44001 0.57533 0.0
C1572 C 0.04368 0.49855 0.55325 0.0
C1573 C 0.02725 0.5304 0.45171 0.0
N1574 N 0.02138 0.45772 0.55797 0.0
N1575 N 0.01705 0.51109 0.45951 0.0
H1576 H 0.74177 0.8229 0.2995 0.0
H1577 H 0.81077 0.72042 0.16723 0.0
H1578 H 0.72114 0.77554 0.12097 0.0
H1579 H 0.83189 0.76718 0.34631 0.0
H1580 H 0.78087 0.74406 0.13166 0.0
H1581 H 0.77491 0.80247 0.31926 0.0
C1582 C 0.74381 0.80779 0.26657 0.0
C1583 C 0.72922 0.80161 0.20497 0.0
C1584 C 0.79227 0.74936 0.17778 0.0
C1585 C 0.76726 0.77861 0.2254 0.0
C1586 C 0.80978 0.73618 0.19624 0.0
C1587 C 0.82255 0.74107 0.26484 0.0
C1588 C 0.78841 0.76772 0.22645 0.0
C1589 C 0.82139 0.76213 0.29678 0.0
C1590 C 0.76303 0.79647 0.2762 0.0
C1591 C 0.73234 0.78147 0.16668 0.0
N1592 N 0.80377 0.77433 0.28052 0.0
N1593 N 0.7514 0.77101 0.17553 0.0
H1594 H 0.81133 0.26008 0.63088 0.0
H1595 H 0.70251 0.26922 0.89052 0.0
H1596 H 0.79067 0.21261 0.80921 0.0
H1597 H 0.72262 0.31586 0.7081 0.0
H1598 H 0.73351 0.24702 0.85508 0.0
H1599 H 0.78064 0.28248 0.66849 0.0
C1600 C 0.80087 0.25471 0.68044 0.0
C1601 C 0.80286 0.23387 0.71383 0.0
C1602 C 0.73098 0.26197 0.82193 0.0
C1603 C 0.76743 0.25912 0.75515 0.0
C1604 C 0.71291 0.27444 0.84057 0.0
C1605 C 0.71061 0.29501 0.80512 0.0
C1606 C 0.74642 0.26999 0.76631 0.0
C1607 C 0.72428 0.30048 0.73919 0.0
C1608 C 0.78298 0.2673 0.7003 0.0
C1609 C 0.7892 0.22821 0.77956 0.0
N1610 N 0.74208 0.28838 0.72365 0.0
N1611 N 0.77156 0.24044 0.79625 0.0
H1612 H 0.95656 0.97386 0.53694 0.0
H1613 H 0.05225 0.05843 0.48297 0.0
H1614 H 1.0059 0.96946 0.34937 0.0
H1615 H 1.00438 0.06219 0.67603 0.0
H1616 H 0.03266 0.0282 0.42321 0.0
H1617 H 0.97505 1.00513 0.59454 0.0
C1618 C 0.97177 0.97892 0.50987 0.0
C1619 C 0.97906 0.96991 0.43557 0.0
C1620 C 0.02624 0.03587 0.47795 0.0
C1621 C 0.99976 1.00584 0.49903 0.0
C1622 C 0.03707 0.05355 0.51073 0.0
C1623 C 0.03059 0.06189 0.58716 0.0
C1624 C 0.00869 0.02706 0.52137 0.0
C1625 C 0.01046 0.05554 0.61885 0.0
C1626 C 0.98199 0.99713 0.54142 0.0
C1627 C 0.99921 0.97652 0.40485 0.0
N1628 N 1.00057 0.03783 0.58755 0.0
N1629 N 1.00853 0.99467 0.43505 0.0
H1630 H 0.47119 0.9568 0.94175 0.0
H1631 H 0.57761 0.02067 0.06334 0.0
H1632 H 0.52058 0.93065 0.09822 0.0
H1633 H 0.52692 0.04665 0.91111 0.0
H1634 H 0.55759 0.98689 0.07366 0.0
H1635 H 0.49523 0.9866 0.90605 0.0
C1636 C 0.48753 0.95669 0.96535 0.0
C1637 C 0.49328 0.94246 0.02868 0.0
C1638 C 0.5508 1.00005 0.03836 0.0
C1639 C 0.52045 0.97642 0.99016 0.0
C1640 C 0.56195 0.0196 0.03418 0.0
C1641 C 0.55446 0.03624 0.98294 0.0
C1642 C 0.53185 0.99738 0.99257 0.0
C1643 C 0.53374 0.03403 0.949 0.0
C1644 C 0.50101 0.9741 0.94697 0.0
C1645 C 0.51496 0.94226 0.05336 0.0
N1646 N 0.5234 0.0147 0.95261 0.0
N1647 N 0.52751 0.95978 0.03763 0.0
loop_
_geom_bond_atom_site_label_1
_geom_bond_atom_site_label_2
_geom_bond_distance
_geom_bond_site_symmetry_2
_ccdc_geom_bond_type
C0 O12 1.241 . S
C0 O13 1.280 . S
C1 O14 1.277 . S
C1 O15 1.245 . S
C2 O26 1.247 . S
C2 O28 1.289 . S
Mg3 O4 1.926 . S
Mg3 O13 1.984 . S
Mg3 O15 1.988 . S
Mg3 O16 2.061 . S
O4 Mg3 1.926 . S
O4 Mg5 1.986 . S
O4 Mg6 1.917 . S
Mg5 O4 1.986 . S
Mg5 O12 2.042 . S
Mg5 O14 2.041 . S
Mg5 O20 2.038 . S
Mg5 O28 2.238 . S
Mg6 O4 1.917 . S
Mg6 O7 1.917 . S
Mg6 O17 2.106 . S
Mg6 O19 2.079 . S
Mg6 O28 2.106 . S
Mg6 O29 2.079 . S
O7 Mg6 1.917 . S
O7 Mg8 1.926 . S
O7 Mg9 1.986 . S
Mg8 O7 1.926 . S
Mg8 O22 1.984 . S
Mg8 O25 1.988 . S
Mg8 O26 2.061 . S
Mg9 O7 1.986 . S
Mg9 O17 2.238 . S
Mg9 O21 2.042 . S
Mg9 O23 2.041 . S
Mg9 O30 2.038 . S
C10 O16 1.247 . S
C10 O17 1.289 . S
C11 O29 1.245 . S
C11 O30 1.274 . S
O12 C0 1.241 . S
O12 Mg5 2.042 . S
O13 C0 1.280 . S
O13 Mg3 1.984 . S
O14 C1 1.277 . S
O14 Mg5 2.041 . S
O15 C1 1.245 . S
O15 Mg3 1.988 . S
O16 Mg3 2.061 . S
O16 C10 1.247 . S
O17 Mg6 2.106 . S
O17 Mg9 2.238 . S
O17 C10 1.289 . S
C18 O19 1.245 . S
C18 O20 1.274 . S
O19 Mg6 2.079 . S
O19 C18 1.245 . S
O20 Mg5 2.038 . S
O20 C18 1.274 . S
O21 Mg9 2.042 . S
O21 C24 1.241 . S
O22 Mg8 1.984 . S
O22 C24 1.280 . S
O23 Mg9 2.041 . S
O23 C27 1.277 . S
C24 O21 1.241 . S
C24 O22 1.280 . S
O25 Mg8 1.988 . S
O25 C27 1.245 . S
O26 C2 1.247 . S
O26 Mg8 2.061 . S
C27 O23 1.277 . S
C27 O25 1.245 . S
O28 C2 1.289 . S
O28 Mg5 2.238 . S
O28 Mg6 2.106 . S
O29 Mg6 2.079 . S
O29 C11 1.245 . S
O30 Mg9 2.038 . S
O30 C11 1.274 . S
C31 O43 1.241 . S
C31 O44 1.280 . S
C32 O45 1.277 . S
C32 O46 1.245 . S
C33 O57 1.247 . S
C33 O59 1.289 . S
Mg34 O35 1.926 . S
Mg34 O44 1.984 . S
Mg34 O46 1.988 . S
Mg34 O47 2.061 . S
O35 Mg34 1.926 . S
O35 Mg36 1.986 . S
O35 Mg37 1.917 . S
Mg36 O35 1.986 . S
Mg36 O43 2.042 . S
Mg36 O45 2.041 . S
Mg36 O51 2.038 . S
Mg36 O59 2.238 . S
Mg37 O35 1.917 . S
Mg37 O38 1.917 . S
Mg37 O48 2.106 . S
Mg37 O50 2.079 . S
Mg37 O59 2.106 . S
Mg37 O60 2.079 . S
O38 Mg37 1.917 . S
O38 Mg39 1.926 . S
O38 Mg40 1.986 . S
Mg39 O38 1.926 . S
Mg39 O53 1.984 . S
Mg39 O56 1.988 . S
Mg39 O57 2.061 . S
Mg40 O38 1.986 . S
Mg40 O48 2.238 . S
Mg40 O52 2.042 . S
Mg40 O54 2.041 . S
Mg40 O61 2.038 . S
C41 O47 1.247 . S
C41 O48 1.289 . S
C42 O60 1.245 . S
C42 O61 1.274 . S
O43 C31 1.241 . S
O43 Mg36 2.042 . S
O44 C31 1.280 . S
O44 Mg34 1.984 . S
O45 C32 1.277 . S
O45 Mg36 2.041 . S
O46 C32 1.245 . S
O46 Mg34 1.988 . S
O47 Mg34 2.061 . S
O47 C41 1.247 . S
O48 Mg37 2.106 . S
O48 Mg40 2.238 . S
O48 C41 1.289 . S
C49 O50 1.245 . S
C49 O51 1.274 . S
O50 Mg37 2.079 . S
O50 C49 1.245 . S
O51 Mg36 2.038 . S
O51 C49 1.274 . S
O52 Mg40 2.042 . S
O52 C55 1.241 . S
O53 Mg39 1.984 . S
O53 C55 1.280 . S
O54 Mg40 2.041 . S
O54 C58 1.277 . S
C55 O52 1.241 . S
C55 O53 1.280 . S
O56 Mg39 1.988 . S
O56 C58 1.245 . S
O57 C33 1.247 . S
O57 Mg39 2.061 . S
C58 O54 1.277 . S
C58 O56 1.245 . S
O59 C33 1.289 . S
O59 Mg36 2.238 . S
O59 Mg37 2.106 . S
O60 Mg37 2.079 . S
O60 C42 1.245 . S
O61 Mg40 2.038 . S
O61 C42 1.274 . S
C62 O74 1.241 . S
C62 O75 1.280 . S
C63 O76 1.277 . S
C63 O77 1.245 . S
C64 O88 1.247 1_554 S
C64 O90 1.289 . S
Mg65 O66 1.926 . S
Mg65 O75 1.984 1_554 S
Mg65 O77 1.988 . S
Mg65 O78 2.061 . S
O66 Mg65 1.926 . S
O66 Mg67 1.986 1_554 S
O66 Mg68 1.917 . S
Mg67 O66 1.986 1_556 S
Mg67 O74 2.042 . S
Mg67 O76 2.041 1_556 S
Mg67 O82 2.038 . S
Mg67 O90 2.238 1_556 S
Mg68 O66 1.917 . S
Mg68 O69 1.917 . S
Mg68 O79 2.106 . S
Mg68 O81 2.079 1_554 S
Mg68 O90 2.106 . S
Mg68 O91 2.079 . S
O69 Mg68 1.917 . S
O69 Mg70 1.926 1_554 S
O69 Mg71 1.986 . S
Mg70 O69 1.926 1_556 S
Mg70 O84 1.984 1_556 S
Mg70 O87 1.988 . S
Mg70 O88 2.061 . S
Mg71 O69 1.986 . S
Mg71 O79 2.238 . S
Mg71 O83 2.042 . S
Mg71 O85 2.041 1_554 S
Mg71 O92 2.038 . S
C72 O78 1.247 . S
C72 O79 1.289 . S
C73 O91 1.245 . S
C73 O92 1.274 . S
O74 C62 1.241 . S
O74 Mg67 2.042 . S
O75 C62 1.280 . S
O75 Mg65 1.984 1_556 S
O76 C63 1.277 . S
O76 Mg67 2.041 1_554 S
O77 C63 1.245 . S
O77 Mg65 1.988 . S
O78 Mg65 2.061 . S
O78 C72 1.247 . S
O79 Mg68 2.106 . S
O79 Mg71 2.238 . S
O79 C72 1.289 . S
C80 O81 1.245 . S
C80 O82 1.274 . S
O81 Mg68 2.079 1_556 S
O81 C80 1.245 . S
O82 Mg67 2.038 . S
O82 C80 1.274 . S
O83 Mg71 2.042 . S
O83 C86 1.241 . S
O84 Mg70 1.984 1_554 S
O84 C86 1.280 . S
O85 Mg71 2.041 1_556 S
O85 C89 1.277 . S
C86 O83 1.241 . S
C86 O84 1.280 . S
O87 Mg70 1.988 . S
O87 C89 1.245 . S
O88 C64 1.247 1_556 S
O88 Mg70 2.061 . S
C89 O85 1.277 . S
C89 O87 1.245 . S
O90 C64 1.289 . S
O90 Mg67 2.238 1_554 S
O90 Mg68 2.106 . S
O91 Mg68 2.079 . S
O91 C73 1.245 . S
O92 Mg71 2.038 . S
O92 C73 1.274 . S
C93 O105 1.241 . S
C93 O106 1.280 . S
C94 O107 1.277 . S
C94 O108 1.245 . S
C95 O119 1.247 . S
C95 O121 1.289 . S
Mg96 O97 1.926 . S
Mg96 O106 1.984 . S
Mg96 O108 1.988 . S
Mg96 O109 2.061 . S
O97 Mg96 1.926 . S
O97 Mg98 1.986 . S
O97 Mg99 1.917 . S
Mg98 O97 1.986 . S
Mg98 O105 2.042 . S
Mg98 O107 2.041 . S
Mg98 O113 2.038 . S
Mg98 O121 2.238 . S
Mg99 O97 1.917 . S
Mg99 O100 1.917 . S
Mg99 O110 2.106 . S
Mg99 O112 2.079 . S
Mg99 O121 2.106 . S
Mg99 O122 2.079 . S
O100 Mg99 1.917 . S
O100 Mg101 1.926 . S
O100 Mg102 1.986 . S
Mg101 O100 1.926 . S
Mg101 O115 1.984 . S
Mg101 O118 1.988 . S
Mg101 O119 2.061 . S
Mg102 O100 1.986 . S
Mg102 O110 2.238 . S
Mg102 O114 2.042 . S
Mg102 O116 2.041 . S
Mg102 O123 2.038 . S
C103 O109 1.247 . S
C103 O110 1.289 . S
C104 O122 1.245 . S
C104 O123 1.274 . S
O105 C93 1.241 . S
O105 Mg98 2.042 . S
O106 C93 1.280 . S
O106 Mg96 1.984 . S
O107 C94 1.277 . S
O107 Mg98 2.041 . S
O108 C94 1.245 . S
O108 Mg96 1.988 . S
O109 Mg96 2.061 . S
O109 C103 1.247 . S
O110 Mg99 2.106 . S
O110 Mg102 2.238 . S
O110 C103 1.289 . S
C111 O112 1.245 . S
C111 O113 1.274 . S
O112 Mg99 2.079 . S
O112 C111 1.245 . S
O113 Mg98 2.038 . S
O113 C111 1.274 . S
O114 Mg102 2.042 . S
O114 C117 1.241 . S
O115 Mg101 1.984 . S
O115 C117 1.280 . S
O116 Mg102 2.041 . S
O116 C120 1.277 . S
C117 O114 1.241 . S
C117 O115 1.280 . S
O118 Mg101 1.988 . S
O118 C120 1.245 . S
O119 C95 1.247 . S
O119 Mg101 2.061 . S
C120 O116 1.277 . S
C120 O118 1.245 . S
O121 C95 1.289 . S
O121 Mg98 2.238 . S
O121 Mg99 2.106 . S
O122 Mg99 2.079 . S
O122 C104 1.245 . S
O123 Mg102 2.038 . S
O123 C104 1.274 . S
C124 O136 1.241 . S
C124 O137 1.280 . S
C125 O138 1.277 . S
C125 O139 1.245 . S
C126 O150 1.247 . S
C126 O152 1.289 . S
Mg127 O128 1.926 . S
Mg127 O137 1.984 . S
Mg127 O139 1.988 . S
Mg127 O140 2.061 . S
O128 Mg127 1.926 . S
O128 Mg129 1.986 . S
O128 Mg130 1.917 . S
Mg129 O128 1.986 . S
Mg129 O136 2.042 . S
Mg129 O138 2.041 . S
Mg129 O144 2.038 . S
Mg129 O152 2.238 . S
Mg130 O128 1.917 . S
Mg130 O131 1.917 . S
Mg130 O141 2.106 . S
Mg130 O143 2.079 . S
Mg130 O152 2.106 . S
Mg130 O153 2.079 . S
O131 Mg130 1.917 . S
O131 Mg132 1.926 . S
O131 Mg133 1.986 . S
Mg132 O131 1.926 . S
Mg132 O146 1.984 . S
Mg132 O149 1.988 . S
Mg132 O150 2.061 . S
Mg133 O131 1.986 . S
Mg133 O141 2.238 . S
Mg133 O145 2.042 . S
Mg133 O147 2.041 . S
Mg133 O154 2.038 . S
C134 O140 1.247 . S
C134 O141 1.289 . S
C135 O153 1.245 . S
C135 O154 1.274 . S
O136 C124 1.241 . S
O136 Mg129 2.042 . S
O137 C124 1.280 . S
O137 Mg127 1.984 . S
O138 C125 1.277 . S
O138 Mg129 2.041 . S
O139 C125 1.245 . S
O139 Mg127 1.988 . S
O140 Mg127 2.061 . S
O140 C134 1.247 . S
O141 Mg130 2.106 . S
O141 Mg133 2.238 . S
O141 C134 1.289 . S
C142 O143 1.245 . S
C142 O144 1.274 . S
O143 Mg130 2.079 . S
O143 C142 1.245 . S
O144 Mg129 2.038 . S
O144 C142 1.274 . S
O145 Mg133 2.042 . S
O145 C148 1.241 . S
O146 Mg132 1.984 . S
O146 C148 1.280 . S
O147 Mg133 2.041 . S
O147 C151 1.277 . S
C148 O145 1.241 . S
C148 O146 1.280 . S
O149 Mg132 1.988 . S
O149 C151 1.245 . S
O150 C126 1.247 . S
O150 Mg132 2.061 . S
C151 O147 1.277 . S
C151 O149 1.245 . S
O152 C126 1.289 . S
O152 Mg129 2.238 . S
O152 Mg130 2.106 . S
O153 Mg130 2.079 . S
O153 C135 1.245 . S
O154 Mg133 2.038 . S
O154 C135 1.274 . S
C155 O167 1.241 . S
C155 O168 1.280 . S
C156 O169 1.277 . S
C156 O170 1.245 . S
C157 O181 1.247 . S
C157 O183 1.289 . S
Mg158 O159 1.926 . S
Mg158 O168 1.984 . S
Mg158 O170 1.988 . S
Mg158 O171 2.061 . S
O159 Mg158 1.926 . S
O159 Mg160 1.986 . S
O159 Mg161 1.917 . S
Mg160 O159 1.986 . S
Mg160 O167 2.042 . S
Mg160 O169 2.041 . S
Mg160 O175 2.038 . S
Mg160 O183 2.238 . S
Mg161 O159 1.917 . S
Mg161 O162 1.917 . S
Mg161 O172 2.106 . S
Mg161 O174 2.079 . S
Mg161 O183 2.106 . S
Mg161 O184 2.079 . S
O162 Mg161 1.917 . S
O162 Mg163 1.926 . S
O162 Mg164 1.986 . S
Mg163 O162 1.926 . S
Mg163 O177 1.984 . S
Mg163 O180 1.988 . S
Mg163 O181 2.061 . S
Mg164 O162 1.986 . S
Mg164 O172 2.238 . S
Mg164 O176 2.042 . S
Mg164 O178 2.041 . S
Mg164 O185 2.038 . S
C165 O171 1.247 . S
C165 O172 1.289 . S
C166 O184 1.245 . S
C166 O185 1.274 . S
O167 C155 1.241 . S
O167 Mg160 2.042 . S
O168 C155 1.280 . S
O168 Mg158 1.984 . S
O169 C156 1.277 . S
O169 Mg160 2.041 . S
O170 C156 1.245 . S
O170 Mg158 1.988 . S
O171 Mg158 2.061 . S
O171 C165 1.247 . S
O172 Mg161 2.106 . S
O172 Mg164 2.238 . S
O172 C165 1.289 . S
C173 O174 1.245 . S
C173 O175 1.274 . S
O174 Mg161 2.079 . S
O174 C173 1.245 . S
O175 Mg160 2.038 . S
O175 C173 1.274 . S
O176 Mg164 2.042 . S
O176 C179 1.241 . S
O177 Mg163 1.984 . S
O177 C179 1.280 . S
O178 Mg164 2.041 . S
O178 C182 1.277 . S
C179 O176 1.241 . S
C179 O177 1.280 . S
O180 Mg163 1.988 . S
O180 C182 1.245 . S
O181 C157 1.247 . S
O181 Mg163 2.061 . S
C182 O178 1.277 . S
C182 O180 1.245 . S
O183 C157 1.289 . S
O183 Mg160 2.238 . S
O183 Mg161 2.106 . S
O184 Mg161 2.079 . S
O184 C166 1.245 . S
O185 Mg164 2.038 . S
O185 C166 1.274 . S
C186 O198 1.241 . S
C186 O199 1.280 . S
C187 O200 1.277 . S
C187 O201 1.245 . S
C188 O212 1.247 . S
C188 O214 1.289 . S
Mg189 O190 1.926 1_554 S
Mg189 O199 1.984 1_554 S
Mg189 O201 1.988 . S
Mg189 O202 2.061 . S
O190 Mg189 1.926 1_556 S
O190 Mg191 1.986 . S
O190 Mg192 1.917 1_556 S
Mg191 O190 1.986 . S
Mg191 O198 2.042 . S
Mg191 O200 2.041 1_556 S
Mg191 O206 2.038 . S
Mg191 O214 2.238 . S
Mg192 O190 1.917 1_554 S
Mg192 O193 1.917 . S
Mg192 O203 2.106 . S
Mg192 O205 2.079 1_554 S
Mg192 O214 2.106 1_554 S
Mg192 O215 2.079 . S
O193 Mg192 1.917 . S
O193 Mg194 1.926 1_554 S
O193 Mg195 1.986 . S
Mg194 O193 1.926 1_556 S
Mg194 O208 1.984 1_556 S
Mg194 O211 1.988 . S
Mg194 O212 2.061 . S
Mg195 O193 1.986 . S
Mg195 O203 2.238 . S
Mg195 O207 2.042 . S
Mg195 O209 2.041 1_554 S
Mg195 O216 2.038 . S
C196 O202 1.247 . S
C196 O203 1.289 . S
C197 O215 1.245 . S
C197 O216 1.274 . S
O198 C186 1.241 . S
O198 Mg191 2.042 . S
O199 C186 1.280 . S
O199 Mg189 1.984 1_556 S
O200 C187 1.277 . S
O200 Mg191 2.041 1_554 S
O201 C187 1.245 . S
O201 Mg189 1.988 . S
O202 Mg189 2.061 . S
O202 C196 1.247 . S
O203 Mg192 2.106 . S
O203 Mg195 2.238 . S
O203 C196 1.289 . S
C204 O205 1.245 . S
C204 O206 1.274 . S
O205 Mg192 2.079 1_556 S
O205 C204 1.245 . S
O206 Mg191 2.038 . S
O206 C204 1.274 . S
O207 Mg195 2.042 . S
O207 C210 1.241 . S
O208 Mg194 1.984 1_554 S
O208 C210 1.280 . S
O209 Mg195 2.041 1_556 S
O209 C213 1.277 . S
C210 O207 1.241 . S
C210 O208 1.280 . S
O211 Mg194 1.988 . S
O211 C213 1.245 . S
O212 C188 1.247 . S
O212 Mg194 2.061 . S
C213 O209 1.277 . S
C213 O211 1.245 . S
O214 C188 1.289 . S
O214 Mg191 2.238 . S
O214 Mg192 2.106 1_556 S
O215 Mg192 2.079 . S
O215 C197 1.245 . S
O216 Mg195 2.038 . S
O216 C197 1.274 . S
C217 O229 1.241 . S
C217 O230 1.280 . S
C218 O231 1.277 . S
C218 O232 1.245 . S
C219 O243 1.247 . S
C219 O245 1.289 . S
Mg220 O221 1.926 . S
Mg220 O230 1.984 . S
Mg220 O232 1.988 . S
Mg220 O233 2.061 . S
O221 Mg220 1.926 . S
O221 Mg222 1.986 . S
O221 Mg223 1.917 . S
Mg222 O221 1.986 . S
Mg222 O229 2.042 . S
Mg222 O231 2.041 . S
Mg222 O237 2.038 . S
Mg222 O245 2.238 . S
Mg223 O221 1.917 . S
Mg223 O224 1.917 . S
Mg223 O234 2.106 . S
Mg223 O236 2.079 . S
Mg223 O245 2.106 . S
Mg223 O246 2.079 . S
O224 Mg223 1.917 . S
O224 Mg225 1.926 . S
O224 Mg226 1.986 . S
Mg225 O224 1.926 . S
Mg225 O239 1.984 . S
Mg225 O242 1.988 . S
Mg225 O243 2.061 . S
Mg226 O224 1.986 . S
Mg226 O234 2.238 . S
Mg226 O238 2.042 . S
Mg226 O240 2.041 . S
Mg226 O247 2.038 . S
C227 O233 1.247 . S
C227 O234 1.289 . S
C228 O246 1.245 . S
C228 O247 1.274 . S
O229 C217 1.241 . S
O229 Mg222 2.042 . S
O230 C217 1.280 . S
O230 Mg220 1.984 . S
O231 C218 1.277 . S
O231 Mg222 2.041 . S
O232 C218 1.245 . S
O232 Mg220 1.988 . S
O233 Mg220 2.061 . S
O233 C227 1.247 . S
O234 Mg223 2.106 . S
O234 Mg226 2.238 . S
O234 C227 1.289 . S
C235 O236 1.245 . S
C235 O237 1.274 . S
O236 Mg223 2.079 . S
O236 C235 1.245 . S
O237 Mg222 2.038 . S
O237 C235 1.274 . S
O238 Mg226 2.042 . S
O238 C241 1.241 . S
O239 Mg225 1.984 . S
O239 C241 1.280 . S
O240 Mg226 2.041 . S
O240 C244 1.277 . S
C241 O238 1.241 . S
C241 O239 1.280 . S
O242 Mg225 1.988 . S
O242 C244 1.245 . S
O243 C219 1.247 . S
O243 Mg225 2.061 . S
C244 O240 1.277 . S
C244 O242 1.245 . S
O245 C219 1.289 . S
O245 Mg222 2.238 . S
O245 Mg223 2.106 . S
O246 Mg223 2.079 . S
O246 C228 1.245 . S
O247 Mg226 2.038 . S
O247 C228 1.274 . S
C248 O260 1.241 . S
C248 O261 1.280 . S
C249 O262 1.277 . S
C249 O263 1.245 . S
C250 O274 1.247 1_554 S
C250 O276 1.289 . S
Mg251 O252 1.926 . S
Mg251 O261 1.984 1_554 S
Mg251 O263 1.988 . S
Mg251 O264 2.061 . S
O252 Mg251 1.926 . S
O252 Mg253 1.986 1_554 S
O252 Mg254 1.917 . S
Mg253 O252 1.986 1_556 S
Mg253 O260 2.042 . S
Mg253 O262 2.041 1_556 S
Mg253 O268 2.038 . S
Mg253 O276 2.238 1_556 S
Mg254 O252 1.917 . S
Mg254 O255 1.917 . S
Mg254 O265 2.106 . S
Mg254 O267 2.079 1_554 S
Mg254 O276 2.106 . S
Mg254 O277 2.079 . S
O255 Mg254 1.917 . S
O255 Mg256 1.926 1_554 S
O255 Mg257 1.986 . S
Mg256 O255 1.926 1_556 S
Mg256 O270 1.984 1_556 S
Mg256 O273 1.988 . S
Mg256 O274 2.061 . S
Mg257 O255 1.986 . S
Mg257 O265 2.238 . S
Mg257 O269 2.042 . S
Mg257 O271 2.041 1_554 S
Mg257 O278 2.038 . S
C258 O264 1.247 . S
C258 O265 1.289 . S
C259 O277 1.245 . S
C259 O278 1.274 . S
O260 C248 1.241 . S
O260 Mg253 2.042 . S
O261 C248 1.280 . S
O261 Mg251 1.984 1_556 S
O262 C249 1.277 . S
O262 Mg253 2.041 1_554 S
O263 C249 1.245 . S
O263 Mg251 1.988 . S
O264 Mg251 2.061 . S
O264 C258 1.247 . S
O265 Mg254 2.106 . S
O265 Mg257 2.238 . S
O265 C258 1.289 . S
C266 O267 1.245 . S
C266 O268 1.274 . S
O267 Mg254 2.079 1_556 S
O267 C266 1.245 . S
O268 Mg253 2.038 . S
O268 C266 1.274 . S
O269 Mg257 2.042 . S
O269 C272 1.241 . S
O270 Mg256 1.984 1_554 S
O270 C272 1.280 . S
O271 Mg257 2.041 1_556 S
O271 C275 1.277 . S
C272 O269 1.241 . S
C272 O270 1.280 . S
O273 Mg256 1.988 . S
O273 C275 1.245 . S
O274 C250 1.247 1_556 S
O274 Mg256 2.061 . S
C275 O271 1.277 . S
C275 O273 1.245 . S
O276 C250 1.289 . S
O276 Mg253 2.238 1_554 S
O276 Mg254 2.106 . S
O277 Mg254 2.079 . S
O277 C259 1.245 . S
O278 Mg257 2.038 . S
O278 C259 1.274 . S
C279 O291 1.241 . S
C279 O292 1.280 . S
C280 O293 1.277 . S
C280 O294 1.245 . S
C281 O305 1.247 . S
C281 O307 1.289 . S
Mg282 O283 1.926 . S
Mg282 O292 1.984 . S
Mg282 O294 1.988 . S
Mg282 O295 2.061 . S
O283 Mg282 1.926 . S
O283 Mg284 1.986 . S
O283 Mg285 1.917 . S
Mg284 O283 1.986 . S
Mg284 O291 2.042 . S
Mg284 O293 2.041 . S
Mg284 O299 2.038 . S
Mg284 O307 2.238 . S
Mg285 O283 1.917 . S
Mg285 O286 1.917 . S
Mg285 O296 2.106 . S
Mg285 O298 2.079 . S
Mg285 O307 2.106 . S
Mg285 O308 2.079 . S
O286 Mg285 1.917 . S
O286 Mg287 1.926 . S
O286 Mg288 1.986 . S
Mg287 O286 1.926 . S
Mg287 O301 1.984 . S
Mg287 O304 1.988 . S
Mg287 O305 2.061 . S
Mg288 O286 1.986 . S
Mg288 O296 2.238 . S
Mg288 O300 2.042 . S
Mg288 O302 2.041 . S
Mg288 O309 2.038 . S
C289 O295 1.247 . S
C289 O296 1.289 . S
C290 O308 1.245 . S
C290 O309 1.274 . S
O291 C279 1.241 . S
O291 Mg284 2.042 . S
O292 C279 1.280 . S
O292 Mg282 1.984 . S
O293 C280 1.277 . S
O293 Mg284 2.041 . S
O294 C280 1.245 . S
O294 Mg282 1.988 . S
O295 Mg282 2.061 . S
O295 C289 1.247 . S
O296 Mg285 2.106 . S
O296 Mg288 2.238 . S
O296 C289 1.289 . S
C297 O298 1.245 . S
C297 O299 1.274 . S
O298 Mg285 2.079 . S
O298 C297 1.245 . S
O299 Mg284 2.038 . S
O299 C297 1.274 . S
O300 Mg288 2.042 . S
O300 C303 1.241 . S
O301 Mg287 1.984 . S
O301 C303 1.280 . S
O302 Mg288 2.041 . S
O302 C306 1.277 . S
C303 O300 1.241 . S
C303 O301 1.280 . S
O304 Mg287 1.988 . S
O304 C306 1.245 . S
O305 C281 1.247 . S
O305 Mg287 2.061 . S
C306 O302 1.277 . S
C306 O304 1.245 . S
O307 C281 1.289 . S
O307 Mg284 2.238 . S
O307 Mg285 2.106 . S
O308 Mg285 2.079 . S
O308 C290 1.245 . S
O309 Mg288 2.038 . S
O309 C290 1.274 . S
C310 O322 1.241 . S
C310 O323 1.280 . S
C311 O324 1.277 . S
C311 O325 1.245 . S
C312 O336 1.247 . S
C312 O338 1.289 . S
Mg313 O314 1.926 . S
Mg313 O323 1.984 . S
Mg313 O325 1.988 . S
Mg313 O326 2.061 . S
O314 Mg313 1.926 . S
O314 Mg315 1.986 . S
O314 Mg316 1.917 . S
Mg315 O314 1.986 . S
Mg315 O322 2.042 . S
Mg315 O324 2.041 . S
Mg315 O330 2.038 . S
Mg315 O338 2.238 . S
Mg316 O314 1.917 . S
Mg316 O317 1.917 . S
Mg316 O327 2.106 . S
Mg316 O329 2.079 . S
Mg316 O338 2.106 . S
Mg316 O339 2.079 . S
O317 Mg316 1.917 . S
O317 Mg318 1.926 . S
O317 Mg319 1.986 . S
Mg318 O317 1.926 . S
Mg318 O332 1.984 . S
Mg318 O335 1.988 . S
Mg318 O336 2.061 . S
Mg319 O317 1.986 . S
Mg319 O327 2.238 . S
Mg319 O331 2.042 . S
Mg319 O333 2.041 . S
Mg319 O340 2.038 . S
C320 O326 1.247 . S
C320 O327 1.289 . S
C321 O339 1.245 . S
C321 O340 1.274 . S
O322 C310 1.241 . S
O322 Mg315 2.042 . S
O323 C310 1.280 . S
O323 Mg313 1.984 . S
O324 C311 1.277 . S
O324 Mg315 2.041 . S
O325 C311 1.245 . S
O325 Mg313 1.988 . S
O326 Mg313 2.061 . S
O326 C320 1.247 . S
O327 Mg316 2.106 . S
O327 Mg319 2.238 . S
O327 C320 1.289 . S
C328 O329 1.245 . S
C328 O330 1.274 . S
O329 Mg316 2.079 . S
O329 C328 1.245 . S
O330 Mg315 2.038 . S
O330 C328 1.274 . S
O331 Mg319 2.042 . S
O331 C334 1.241 . S
O332 Mg318 1.984 . S
O332 C334 1.280 . S
O333 Mg319 2.041 . S
O333 C337 1.277 . S
C334 O331 1.241 . S
C334 O332 1.280 . S
O335 Mg318 1.988 . S
O335 C337 1.245 . S
O336 C312 1.247 . S
O336 Mg318 2.061 . S
C337 O333 1.277 . S
C337 O335 1.245 . S
O338 C312 1.289 . S
O338 Mg315 2.238 . S
O338 Mg316 2.106 . S
O339 Mg316 2.079 . S
O339 C321 1.245 . S
O340 Mg319 2.038 . S
O340 C321 1.274 . S
C341 O353 1.241 . S
C341 O354 1.280 . S
C342 O355 1.277 . S
C342 O356 1.245 . S
C343 O367 1.247 . S
C343 O369 1.289 . S
Mg344 O345 1.926 . S
Mg344 O354 1.984 . S
Mg344 O356 1.988 . S
Mg344 O357 2.061 . S
O345 Mg344 1.926 . S
O345 Mg346 1.986 . S
O345 Mg347 1.917 . S
Mg346 O345 1.986 . S
Mg346 O353 2.042 . S
Mg346 O355 2.041 . S
Mg346 O361 2.038 . S
Mg346 O369 2.238 . S
Mg347 O345 1.917 . S
Mg347 O348 1.917 . S
Mg347 O358 2.106 . S
Mg347 O360 2.079 . S
Mg347 O369 2.106 . S
Mg347 O370 2.079 . S
O348 Mg347 1.917 . S
O348 Mg349 1.926 . S
O348 Mg350 1.986 . S
Mg349 O348 1.926 . S
Mg349 O363 1.984 . S
Mg349 O366 1.988 . S
Mg349 O367 2.061 . S
Mg350 O348 1.986 . S
Mg350 O358 2.238 . S
Mg350 O362 2.042 . S
Mg350 O364 2.041 . S
Mg350 O371 2.038 . S
C351 O357 1.247 . S
C351 O358 1.289 . S
C352 O370 1.245 . S
C352 O371 1.274 . S
O353 C341 1.241 . S
O353 Mg346 2.042 . S
O354 C341 1.280 . S
O354 Mg344 1.984 . S
O355 C342 1.277 . S
O355 Mg346 2.041 . S
O356 C342 1.245 . S
O356 Mg344 1.988 . S
O357 Mg344 2.061 . S
O357 C351 1.247 . S
O358 Mg347 2.106 . S
O358 Mg350 2.238 . S
O358 C351 1.289 . S
C359 O360 1.245 . S
C359 O361 1.274 . S
O360 Mg347 2.079 . S
O360 C359 1.245 . S
O361 Mg346 2.038 . S
O361 C359 1.274 . S
O362 Mg350 2.042 . S
O362 C365 1.241 . S
O363 Mg349 1.984 . S
O363 C365 1.280 . S
O364 Mg350 2.041 . S
O364 C368 1.277 . S
C365 O362 1.241 . S
C365 O363 1.280 . S
O366 Mg349 1.988 . S
O366 C368 1.245 . S
O367 C343 1.247 . S
O367 Mg349 2.061 . S
C368 O364 1.277 . S
C368 O366 1.245 . S
O369 C343 1.289 . S
O369 Mg346 2.238 . S
O369 Mg347 2.106 . S
O370 Mg347 2.079 . S
O370 C352 1.245 . S
O371 Mg350 2.038 . S
O371 C352 1.274 . S
C372 O384 1.241 . S
C372 O385 1.280 . S
C373 O386 1.277 . S
C373 O387 1.245 . S
C374 O398 1.247 . S
C374 O400 1.289 . S
Mg375 O376 1.926 1_554 S
Mg375 O385 1.984 1_554 S
Mg375 O387 1.988 . S
Mg375 O388 2.061 . S
O376 Mg375 1.926 1_556 S
O376 Mg377 1.986 . S
O376 Mg378 1.917 1_556 S
Mg377 O376 1.986 . S
Mg377 O384 2.042 . S
Mg377 O386 2.041 1_556 S
Mg377 O392 2.038 . S
Mg377 O400 2.238 . S
Mg378 O376 1.917 1_554 S
Mg378 O379 1.917 . S
Mg378 O389 2.106 . S
Mg378 O391 2.079 1_554 S
Mg378 O400 2.106 1_554 S
Mg378 O401 2.079 . S
O379 Mg378 1.917 . S
O379 Mg380 1.926 1_554 S
O379 Mg381 1.986 . S
Mg380 O379 1.926 1_556 S
Mg380 O394 1.984 1_556 S
Mg380 O397 1.988 . S
Mg380 O398 2.061 . S
Mg381 O379 1.986 . S
Mg381 O389 2.238 . S
Mg381 O393 2.042 . S
Mg381 O395 2.041 1_554 S
Mg381 O402 2.038 . S
C382 O388 1.247 . S
C382 O389 1.289 . S
C383 O401 1.245 . S
C383 O402 1.274 . S
O384 C372 1.241 . S
O384 Mg377 2.042 . S
O385 C372 1.280 . S
O385 Mg375 1.984 1_556 S
O386 C373 1.277 . S
O386 Mg377 2.041 1_554 S
O387 C373 1.245 . S
O387 Mg375 1.988 . S
O388 Mg375 2.061 . S
O388 C382 1.247 . S
O389 Mg378 2.106 . S
O389 Mg381 2.238 . S
O389 C382 1.289 . S
C390 O391 1.245 . S
C390 O392 1.274 . S
O391 Mg378 2.079 1_556 S
O391 C390 1.245 . S
O392 Mg377 2.038 . S
O392 C390 1.274 . S
O393 Mg381 2.042 . S
O393 C396 1.241 . S
O394 Mg380 1.984 1_554 S
O394 C396 1.280 . S
O395 Mg381 2.041 1_556 S
O395 C399 1.277 . S
C396 O393 1.241 . S
C396 O394 1.280 . S
O397 Mg380 1.988 . S
O397 C399 1.245 . S
O398 C374 1.247 . S
O398 Mg380 2.061 . S
C399 O395 1.277 . S
C399 O397 1.245 . S
O400 C374 1.289 . S
O400 Mg377 2.238 . S
O400 Mg378 2.106 1_556 S
O401 Mg378 2.079 . S
O401 C383 1.245 . S
O402 Mg381 2.038 . S
O402 C383 1.274 . S
C403 O415 1.241 . S
C403 O416 1.280 . S
C404 O417 1.277 . S
C404 O418 1.245 . S
C405 O429 1.247 . S
C405 O431 1.289 . S
Mg406 O407 1.926 . S
Mg406 O416 1.984 . S
Mg406 O418 1.988 . S
Mg406 O419 2.061 . S
O407 Mg406 1.926 . S
O407 Mg408 1.986 . S
O407 Mg409 1.917 . S
Mg408 O407 1.986 . S
Mg408 O415 2.042 . S
Mg408 O417 2.041 . S
Mg408 O423 2.038 . S
Mg408 O431 2.238 . S
Mg409 O407 1.917 . S
Mg409 O410 1.917 . S
Mg409 O420 2.106 . S
Mg409 O422 2.079 . S
Mg409 O431 2.106 . S
Mg409 O432 2.079 . S
O410 Mg409 1.917 . S
O410 Mg411 1.926 . S
O410 Mg412 1.986 . S
Mg411 O410 1.926 . S
Mg411 O425 1.984 . S
Mg411 O428 1.988 . S
Mg411 O429 2.061 . S
Mg412 O410 1.986 . S
Mg412 O420 2.238 . S
Mg412 O424 2.042 . S
Mg412 O426 2.041 . S
Mg412 O433 2.038 . S
C413 O419 1.247 . S
C413 O420 1.289 . S
C414 O432 1.245 . S
C414 O433 1.274 . S
O415 C403 1.241 . S
O415 Mg408 2.042 . S
O416 C403 1.280 . S
O416 Mg406 1.984 . S
O417 C404 1.277 . S
O417 Mg408 2.041 . S
O418 C404 1.245 . S
O418 Mg406 1.988 . S
O419 Mg406 2.061 . S
O419 C413 1.247 . S
O420 Mg409 2.106 . S
O420 Mg412 2.238 . S
O420 C413 1.289 . S
C421 O422 1.245 . S
C421 O423 1.274 . S
O422 Mg409 2.079 . S
O422 C421 1.245 . S
O423 Mg408 2.038 . S
O423 C421 1.274 . S
O424 Mg412 2.042 . S
O424 C427 1.241 . S
O425 Mg411 1.984 . S
O425 C427 1.280 . S
O426 Mg412 2.041 . S
O426 C430 1.277 . S
C427 O424 1.241 . S
C427 O425 1.280 . S
O428 Mg411 1.988 . S
O428 C430 1.245 . S
O429 C405 1.247 . S
O429 Mg411 2.061 . S
C430 O426 1.277 . S
C430 O428 1.245 . S
O431 C405 1.289 . S
O431 Mg408 2.238 . S
O431 Mg409 2.106 . S
O432 Mg409 2.079 . S
O432 C414 1.245 . S
O433 Mg412 2.038 . S
O433 C414 1.274 . S
C434 O446 1.241 . S
C434 O447 1.280 . S
C435 O448 1.277 . S
C435 O449 1.245 . S
C436 O460 1.247 . S
C436 O462 1.289 . S
Mg437 O438 1.926 . S
Mg437 O447 1.984 . S
Mg437 O449 1.988 . S
Mg437 O450 2.061 . S
O438 Mg437 1.926 . S
O438 Mg439 1.986 . S
O438 Mg440 1.917 . S
Mg439 O438 1.986 . S
Mg439 O446 2.042 . S
Mg439 O448 2.041 . S
Mg439 O454 2.038 . S
Mg439 O462 2.238 . S
Mg440 O438 1.917 . S
Mg440 O441 1.917 . S
Mg440 O451 2.106 . S
Mg440 O453 2.079 . S
Mg440 O462 2.106 . S
Mg440 O463 2.079 . S
O441 Mg440 1.917 . S
O441 Mg442 1.926 . S
O441 Mg443 1.986 . S
Mg442 O441 1.926 . S
Mg442 O456 1.984 . S
Mg442 O459 1.988 . S
Mg442 O460 2.061 . S
Mg443 O441 1.986 . S
Mg443 O451 2.238 . S
Mg443 O455 2.042 . S
Mg443 O457 2.041 . S
Mg443 O464 2.038 . S
C444 O450 1.247 . S
C444 O451 1.289 . S
C445 O463 1.245 . S
C445 O464 1.274 . S
O446 C434 1.241 . S
O446 Mg439 2.042 . S
O447 C434 1.280 . S
O447 Mg437 1.984 . S
O448 C435 1.277 . S
O448 Mg439 2.041 . S
O449 C435 1.245 . S
O449 Mg437 1.988 . S
O450 Mg437 2.061 . S
O450 C444 1.247 . S
O451 Mg440 2.106 . S
O451 Mg443 2.238 . S
O451 C444 1.289 . S
C452 O453 1.245 . S
C452 O454 1.274 . S
O453 Mg440 2.079 . S
O453 C452 1.245 . S
O454 Mg439 2.038 . S
O454 C452 1.274 . S
O455 Mg443 2.042 . S
O455 C458 1.241 . S
O456 Mg442 1.984 . S
O456 C458 1.280 . S
O457 Mg443 2.041 . S
O457 C461 1.277 . S
C458 O455 1.241 . S
C458 O456 1.280 . S
O459 Mg442 1.988 . S
O459 C461 1.245 . S
O460 C436 1.247 . S
O460 Mg442 2.061 . S
C461 O457 1.277 . S
C461 O459 1.245 . S
O462 C436 1.289 . S
O462 Mg439 2.238 . S
O462 Mg440 2.106 . S
O463 Mg440 2.079 . S
O463 C445 1.245 . S
O464 Mg443 2.038 . S
O464 C445 1.274 . S
C465 O477 1.241 . S
C465 O478 1.280 . S
C466 O479 1.277 . S
C466 O480 1.245 . S
C467 O491 1.247 . S
C467 O493 1.289 . S
Mg468 O469 1.926 . S
Mg468 O478 1.984 . S
Mg468 O480 1.988 . S
Mg468 O481 2.061 . S
O469 Mg468 1.926 . S
O469 Mg470 1.986 . S
O469 Mg471 1.917 . S
Mg470 O469 1.986 . S
Mg470 O477 2.042 . S
Mg470 O479 2.041 . S
Mg470 O485 2.038 . S
Mg470 O493 2.238 . S
Mg471 O469 1.917 . S
Mg471 O472 1.917 . S
Mg471 O482 2.106 . S
Mg471 O484 2.079 . S
Mg471 O493 2.106 . S
Mg471 O494 2.079 . S
O472 Mg471 1.917 . S
O472 Mg473 1.926 . S
O472 Mg474 1.986 . S
Mg473 O472 1.926 . S
Mg473 O487 1.984 . S
Mg473 O490 1.988 . S
Mg473 O491 2.061 . S
Mg474 O472 1.986 . S
Mg474 O482 2.238 . S
Mg474 O486 2.042 . S
Mg474 O488 2.041 . S
Mg474 O495 2.038 . S
C475 O481 1.247 . S
C475 O482 1.289 . S
C476 O494 1.245 . S
C476 O495 1.274 . S
O477 C465 1.241 . S
O477 Mg470 2.042 . S
O478 C465 1.280 . S
O478 Mg468 1.984 . S
O479 C466 1.277 . S
O479 Mg470 2.041 . S
O480 C466 1.245 . S
O480 Mg468 1.988 . S
O481 Mg468 2.061 . S
O481 C475 1.247 . S
O482 Mg471 2.106 . S
O482 Mg474 2.238 . S
O482 C475 1.289 . S
C483 O484 1.245 . S
C483 O485 1.274 . S
O484 Mg471 2.079 . S
O484 C483 1.245 . S
O485 Mg470 2.038 . S
O485 C483 1.274 . S
O486 Mg474 2.042 . S
O486 C489 1.241 . S
O487 Mg473 1.984 . S
O487 C489 1.280 . S
O488 Mg474 2.041 . S
O488 C492 1.277 . S
C489 O486 1.241 . S
C489 O487 1.280 . S
O490 Mg473 1.988 . S
O490 C492 1.245 . S
O491 C467 1.247 . S
O491 Mg473 2.061 . S
C492 O488 1.277 . S
C492 O490 1.245 . S
O493 C467 1.289 . S
O493 Mg470 2.238 . S
O493 Mg471 2.106 . S
O494 Mg471 2.079 . S
O494 C476 1.245 . S
O495 Mg474 2.038 . S
O495 C476 1.274 . S
H496 C502 0.930 . S
H497 C506 0.930 . S
H498 C511 0.929 . S
H499 C509 0.929 . S
H500 C504 0.929 . S
H501 C510 0.929 . S
C502 H496 0.930 . S
C502 C503 1.367 . S
C502 C510 1.378 . S
C503 C502 1.367 . S
C503 C511 1.433 . S
C504 H500 0.929 . S
C504 C506 1.378 . S
C504 C508 1.350 . S
C505 C508 1.463 . S
C505 C510 1.350 . S
C505 N513 1.427 . S
C506 H497 0.930 . S
C506 C504 1.378 . S
C506 C507 1.367 . S
C507 C506 1.367 . S
C507 C509 1.433 . S
C508 C504 1.350 . S
C508 C505 1.463 . S
C508 N512 1.427 . S
C509 H499 0.929 . S
C509 C507 1.433 . S
C509 N512 1.384 . S
C510 H501 0.929 . S
C510 C502 1.378 . S
C510 C505 1.350 . S
C511 H498 0.929 . S
C511 C503 1.433 . S
C511 N513 1.384 . S
N512 C508 1.427 . S
N512 C509 1.384 . S
N513 C505 1.427 . S
N513 C511 1.384 . S
H514 C520 0.930 . S
H515 C524 0.930 . S
H516 C529 0.929 . S
H517 C527 0.929 . S
H518 C522 0.929 . S
H519 C528 0.929 . S
C520 H514 0.930 . S
C520 C521 1.367 . S
C520 C528 1.378 . S
C521 C520 1.367 . S
C521 C529 1.433 . S
C522 H518 0.929 . S
C522 C524 1.378 . S
C522 C526 1.350 . S
C523 C526 1.463 . S
C523 C528 1.350 . S
C523 N531 1.427 . S
C524 H515 0.930 . S
C524 C522 1.378 . S
C524 C525 1.367 . S
C525 C524 1.367 . S
C525 C527 1.433 . S
C526 C522 1.350 . S
C526 C523 1.463 . S
C526 N530 1.427 . S
C527 H517 0.929 . S
C527 C525 1.433 . S
C527 N530 1.384 . S
C528 H519 0.929 . S
C528 C520 1.378 . S
C528 C523 1.350 . S
C529 H516 0.929 . S
C529 C521 1.433 . S
C529 N531 1.384 . S
N530 C526 1.427 . S
N530 C527 1.384 . S
N531 C523 1.427 . S
N531 C529 1.384 . S
H532 C538 0.930 . S
H533 C542 0.930 . S
H534 C547 0.929 1_556 S
H535 C545 0.929 . S
H536 C540 0.929 . S
H537 C546 0.929 . S
C538 H532 0.930 . S
C538 C539 1.367 . S
C538 C546 1.378 . S
C539 C538 1.367 . S
C539 C547 1.433 . S
C540 H536 0.929 . S
C540 C542 1.378 . S
C540 C544 1.350 1_556 S
C541 C544 1.463 . S
C541 C546 1.350 . S
C541 N549 1.427 1_554 S
C542 H533 0.930 . S
C542 C540 1.378 . S
C542 C543 1.367 1_556 S
C543 C542 1.367 1_554 S
C543 C545 1.433 . S
C544 C540 1.350 1_554 S
C544 C541 1.463 . S
C544 N548 1.427 . S
C545 H535 0.929 . S
C545 C543 1.433 . S
C545 N548 1.384 . S
C546 H537 0.929 . S
C546 C538 1.378 . S
C546 C541 1.350 . S
C547 H534 0.929 1_554 S
C547 C539 1.433 . S
C547 N549 1.384 1_554 S
N548 C544 1.427 . S
N548 C545 1.384 . S
N549 C541 1.427 1_556 S
N549 C547 1.384 1_556 S
H550 C556 0.930 . S
H551 C560 0.930 . S
H552 C565 0.929 . S
H553 C563 0.929 . S
H554 C558 0.929 . S
H555 C564 0.929 . S
C556 H550 0.930 . S
C556 C557 1.367 . S
C556 C564 1.378 . S
C557 C556 1.367 . S
C557 C565 1.433 . S
C558 H554 0.929 . S
C558 C560 1.378 1_655 S
C558 C562 1.350 . S
C559 C562 1.463 . S
C559 C564 1.350 . S
C559 N567 1.427 . S
C560 H551 0.930 . S
C560 C558 1.378 1_455 S
C560 C561 1.367 . S
C561 C560 1.367 . S
C561 C563 1.433 . S
C562 C558 1.350 . S
C562 C559 1.463 . S
C562 N566 1.427 . S
C563 H553 0.929 . S
C563 C561 1.433 . S
C563 N566 1.384 1_455 S
C564 H555 0.929 . S
C564 C556 1.378 . S
C564 C559 1.350 . S
C565 H552 0.929 . S
C565 C557 1.433 . S
C565 N567 1.384 . S
N566 C562 1.427 . S
N566 C563 1.384 1_655 S
N567 C559 1.427 . S
N567 C565 1.384 . S
H568 C574 0.930 . S
H569 C578 0.930 . S
H570 C583 0.929 . S
H571 C581 0.929 . S
H572 C576 0.929 . S
H573 C582 0.929 . S
C574 H568 0.930 . S
C574 C575 1.367 . S
C574 C582 1.378 . S
C575 C574 1.367 . S
C575 C583 1.433 . S
C576 H572 0.929 . S
C576 C578 1.378 . S
C576 C580 1.350 . S
C577 C580 1.463 . S
C577 C582 1.350 . S
C577 N585 1.427 . S
C578 H569 0.930 . S
C578 C576 1.378 . S
C578 C579 1.367 . S
C579 C578 1.367 . S
C579 C581 1.433 . S
C580 C576 1.350 . S
C580 C577 1.463 . S
C580 N584 1.427 . S
C581 H571 0.929 . S
C581 C579 1.433 . S
C581 N584 1.384 . S
C582 H573 0.929 . S
C582 C574 1.378 . S
C582 C577 1.350 . S
C583 H570 0.929 . S
C583 C575 1.433 . S
C583 N585 1.384 . S
N584 C580 1.427 . S
N584 C581 1.384 . S
N585 C577 1.427 . S
N585 C583 1.384 . S
H586 C592 0.930 . S
H587 C596 0.930 . S
H588 C601 0.929 . S
H589 C599 0.929 . S
H590 C594 0.929 . S
H591 C600 0.929 . S
C592 H586 0.930 . S
C592 C593 1.367 . S
C592 C600 1.378 . S
C593 C592 1.367 . S
C593 C601 1.433 . S
C594 H590 0.929 . S
C594 C596 1.378 . S
C594 C598 1.350 . S
C595 C598 1.463 . S
C595 C600 1.350 . S
C595 N603 1.427 . S
C596 H587 0.930 . S
C596 C594 1.378 . S
C596 C597 1.367 . S
C597 C596 1.367 . S
C597 C599 1.433 . S
C598 C594 1.350 . S
C598 C595 1.463 . S
C598 N602 1.427 . S
C599 H589 0.929 . S
C599 C597 1.433 . S
C599 N602 1.384 . S
C600 H591 0.929 . S
C600 C592 1.378 . S
C600 C595 1.350 . S
C601 H588 0.929 . S
C601 C593 1.433 . S
C601 N603 1.384 . S
N602 C598 1.427 . S
N602 C599 1.384 . S
N603 C595 1.427 . S
N603 C601 1.384 . S
H604 C610 0.930 . S
H605 C614 0.930 . S
H606 C619 0.929 . S
H607 C617 0.929 1_554 S
H608 C612 0.929 . S
H609 C618 0.929 . S
C610 H604 0.930 . S
C610 C611 1.367 1_554 S
C610 C618 1.378 . S
C611 C610 1.367 1_556 S
C611 C619 1.433 . S
C612 H608 0.929 . S
C612 C614 1.378 . S
C612 C616 1.350 . S
C613 C616 1.463 . S
C613 C618 1.350 1_556 S
C613 N621 1.427 . S
C614 H605 0.930 . S
C614 C612 1.378 . S
C614 C615 1.367 . S
C615 C614 1.367 . S
C615 C617 1.433 . S
C616 C612 1.350 . S
C616 C613 1.463 . S
C616 N620 1.427 . S
C617 H607 0.929 1_556 S
C617 C615 1.433 . S
C617 N620 1.384 . S
C618 H609 0.929 . S
C618 C610 1.378 . S
C618 C613 1.350 1_554 S
C619 H606 0.929 . S
C619 C611 1.433 . S
C619 N621 1.384 . S
N620 C616 1.427 . S
N620 C617 1.384 . S
N621 C613 1.427 . S
N621 C619 1.384 . S
H622 C628 0.930 . S
H623 C632 0.930 . S
H624 C637 0.929 . S
H625 C635 0.929 . S
H626 C630 0.929 . S
H627 C636 0.929 . S
C628 H622 0.930 . S
C628 C629 1.367 . S
C628 C636 1.378 1_655 S
C629 C628 1.367 . S
C629 C637 1.433 . S
C630 H626 0.929 . S
C630 C632 1.378 . S
C630 C634 1.350 . S
C631 C634 1.463 . S
C631 C636 1.350 . S
C631 N639 1.427 . S
C632 H623 0.930 . S
C632 C630 1.378 . S
C632 C633 1.367 . S
C633 C632 1.367 . S
C633 C635 1.433 . S
C634 C630 1.350 . S
C634 C631 1.463 . S
C634 N638 1.427 . S
C635 H625 0.929 . S
C635 C633 1.433 . S
C635 N638 1.384 . S
C636 H627 0.929 . S
C636 C628 1.378 1_455 S
C636 C631 1.350 . S
C637 H624 0.929 . S
C637 C629 1.433 . S
C637 N639 1.384 1_655 S
N638 C634 1.427 . S
N638 C635 1.384 . S
N639 C631 1.427 . S
N639 C637 1.384 1_455 S
H640 C646 0.930 . S
H641 C650 0.930 . S
H642 C655 0.929 1_556 S
H643 C653 0.929 . S
H644 C648 0.929 . S
H645 C654 0.929 . S
C646 H640 0.930 . S
C646 C647 1.367 . S
C646 C654 1.378 . S
C647 C646 1.367 . S
C647 C655 1.433 . S
C648 H644 0.929 . S
C648 C650 1.378 . S
C648 C652 1.350 1_556 S
C649 C652 1.463 . S
C649 C654 1.350 . S
C649 N657 1.427 1_554 S
C650 H641 0.930 . S
C650 C648 1.378 . S
C650 C651 1.367 1_556 S
C651 C650 1.367 1_554 S
C651 C653 1.433 . S
C652 C648 1.350 1_554 S
C652 C649 1.463 . S
C652 N656 1.427 . S
C653 H643 0.929 . S
C653 C651 1.433 . S
C653 N656 1.384 . S
C654 H645 0.929 . S
C654 C646 1.378 . S
C654 C649 1.350 . S
C655 H642 0.929 1_554 S
C655 C647 1.433 . S
C655 N657 1.384 1_554 S
N656 C652 1.427 . S
N656 C653 1.384 . S
N657 C649 1.427 1_556 S
N657 C655 1.384 1_556 S
H658 C664 0.930 . S
H659 C668 0.930 . S
H660 C673 0.929 . S
H661 C671 0.929 . S
H662 C666 0.929 . S
H663 C672 0.929 . S
C664 H658 0.930 . S
C664 C665 1.367 . S
C664 C672 1.378 1_655 S
C665 C664 1.367 . S
C665 C673 1.433 . S
C666 H662 0.929 . S
C666 C668 1.378 . S
C666 C670 1.350 . S
C667 C670 1.463 . S
C667 C672 1.350 . S
C667 N675 1.427 . S
C668 H659 0.930 . S
C668 C666 1.378 . S
C668 C669 1.367 . S
C669 C668 1.367 . S
C669 C671 1.433 . S
C670 C666 1.350 . S
C670 C667 1.463 . S
C670 N674 1.427 . S
C671 H661 0.929 . S
C671 C669 1.433 . S
C671 N674 1.384 . S
C672 H663 0.929 . S
C672 C664 1.378 1_455 S
C672 C667 1.350 . S
C673 H660 0.929 . S
C673 C665 1.433 . S
C673 N675 1.384 1_655 S
N674 C670 1.427 . S
N674 C671 1.384 . S
N675 C667 1.427 . S
N675 C673 1.384 1_455 S
H676 C682 0.930 . S
H677 C686 0.930 . S
H678 C691 0.929 . S
H679 C689 0.929 . S
H680 C684 0.929 . S
H681 C690 0.929 . S
C682 H676 0.930 . S
C682 C683 1.367 . S
C682 C690 1.378 . S
C683 C682 1.367 . S
C683 C691 1.433 . S
C684 H680 0.929 . S
C684 C686 1.378 . S
C684 C688 1.350 . S
C685 C688 1.463 . S
C685 C690 1.350 . S
C685 N693 1.427 . S
C686 H677 0.930 . S
C686 C684 1.378 . S
C686 C687 1.367 . S
C687 C686 1.367 . S
C687 C689 1.433 . S
C688 C684 1.350 . S
C688 C685 1.463 . S
C688 N692 1.427 . S
C689 H679 0.929 . S
C689 C687 1.433 . S
C689 N692 1.384 . S
C690 H681 0.929 . S
C690 C682 1.378 . S
C690 C685 1.350 . S
C691 H678 0.929 . S
C691 C683 1.433 . S
C691 N693 1.384 . S
N692 C688 1.427 . S
N692 C689 1.384 . S
N693 C685 1.427 . S
N693 C691 1.384 . S
H694 C700 0.930 . S
H695 C704 0.930 . S
H696 C709 0.929 . S
H697 C707 0.929 . S
H698 C702 0.929 . S
H699 C708 0.929 . S
C700 H694 0.930 . S
C700 C701 1.367 . S
C700 C708 1.378 . S
C701 C700 1.367 . S
C701 C709 1.433 . S
C702 H698 0.929 . S
C702 C704 1.378 . S
C702 C706 1.350 . S
C703 C706 1.463 . S
C703 C708 1.350 . S
C703 N711 1.427 . S
C704 H695 0.930 . S
C704 C702 1.378 . S
C704 C705 1.367 . S
C705 C704 1.367 . S
C705 C707 1.433 . S
C706 C702 1.350 . S
C706 C703 1.463 . S
C706 N710 1.427 . S
C707 H697 0.929 . S
C707 C705 1.433 . S
C707 N710 1.384 . S
C708 H699 0.929 . S
C708 C700 1.378 . S
C708 C703 1.350 . S
C709 H696 0.929 . S
C709 C701 1.433 . S
C709 N711 1.384 . S
N710 C706 1.427 . S
N710 C707 1.384 . S
N711 C703 1.427 . S
N711 C709 1.384 . S
H712 C718 0.930 . S
H713 C722 0.930 . S
H714 C727 0.929 . S
H715 C725 0.929 . S
H716 C720 0.929 . S
H717 C726 0.929 . S
C718 H712 0.930 . S
C718 C719 1.367 . S
C718 C726 1.378 . S
C719 C718 1.367 . S
C719 C727 1.433 . S
C720 H716 0.929 . S
C720 C722 1.378 . S
C720 C724 1.350 . S
C721 C724 1.463 . S
C721 C726 1.350 . S
C721 N729 1.427 . S
C722 H713 0.930 . S
C722 C720 1.378 . S
C722 C723 1.367 . S
C723 C722 1.367 . S
C723 C725 1.433 . S
C724 C720 1.350 . S
C724 C721 1.463 . S
C724 N728 1.427 . S
C725 H715 0.929 . S
C725 C723 1.433 . S
C725 N728 1.384 . S
C726 H717 0.929 . S
C726 C718 1.378 . S
C726 C721 1.350 . S
C727 H714 0.929 . S
C727 C719 1.433 . S
C727 N729 1.384 . S
N728 C724 1.427 . S
N728 C725 1.384 . S
N729 C721 1.427 . S
N729 C727 1.384 . S
H730 C736 0.930 . S
H731 C740 0.930 . S
H732 C745 0.929 . S
H733 C743 0.929 . S
H734 C738 0.929 . S
H735 C744 0.929 . S
C736 H730 0.930 . S
C736 C737 1.367 . S
C736 C744 1.378 . S
C737 C736 1.367 . S
C737 C745 1.433 . S
C738 H734 0.929 . S
C738 C740 1.378 1_655 S
C738 C742 1.350 . S
C739 C742 1.463 . S
C739 C744 1.350 . S
C739 N747 1.427 . S
C740 H731 0.930 . S
C740 C738 1.378 1_455 S
C740 C741 1.367 . S
C741 C740 1.367 . S
C741 C743 1.433 . S
C742 C738 1.350 . S
C742 C739 1.463 . S
C742 N746 1.427 . S
C743 H733 0.929 . S
C743 C741 1.433 . S
C743 N746 1.384 1_455 S
C744 H735 0.929 . S
C744 C736 1.378 . S
C744 C739 1.350 . S
C745 H732 0.929 . S
C745 C737 1.433 . S
C745 N747 1.384 . S
N746 C742 1.427 . S
N746 C743 1.384 1_655 S
N747 C739 1.427 . S
N747 C745 1.384 . S
H748 C754 0.930 . S
H749 C758 0.930 . S
H750 C763 0.929 . S
H751 C761 0.929 . S
H752 C756 0.929 . S
H753 C762 0.929 . S
C754 H748 0.930 . S
C754 C755 1.367 . S
C754 C762 1.378 . S
C755 C754 1.367 . S
C755 C763 1.433 . S
C756 H752 0.929 . S
C756 C758 1.378 . S
C756 C760 1.350 . S
C757 C760 1.463 . S
C757 C762 1.350 . S
C757 N765 1.427 . S
C758 H749 0.930 . S
C758 C756 1.378 . S
C758 C759 1.367 . S
C759 C758 1.367 . S
C759 C761 1.433 . S
C760 C756 1.350 . S
C760 C757 1.463 . S
C760 N764 1.427 . S
C761 H751 0.929 . S
C761 C759 1.433 . S
C761 N764 1.384 . S
C762 H753 0.929 . S
C762 C754 1.378 . S
C762 C757 1.350 . S
C763 H750 0.929 . S
C763 C755 1.433 . S
C763 N765 1.384 . S
N764 C760 1.427 . S
N764 C761 1.384 . S
N765 C757 1.427 . S
N765 C763 1.384 . S
H766 C772 0.930 . S
H767 C776 0.930 . S
H768 C781 0.929 . S
H769 C779 0.929 . S
H770 C774 0.929 . S
H771 C780 0.929 . S
C772 H766 0.930 . S
C772 C773 1.367 . S
C772 C780 1.378 . S
C773 C772 1.367 . S
C773 C781 1.433 . S
C774 H770 0.929 . S
C774 C776 1.378 . S
C774 C778 1.350 . S
C775 C778 1.463 . S
C775 C780 1.350 . S
C775 N783 1.427 . S
C776 H767 0.930 . S
C776 C774 1.378 . S
C776 C777 1.367 . S
C777 C776 1.367 . S
C777 C779 1.433 . S
C778 C774 1.350 . S
C778 C775 1.463 . S
C778 N782 1.427 . S
C779 H769 0.929 . S
C779 C777 1.433 . S
C779 N782 1.384 . S
C780 H771 0.929 . S
C780 C772 1.378 . S
C780 C775 1.350 . S
C781 H768 0.929 . S
C781 C773 1.433 . S
C781 N783 1.384 . S
N782 C778 1.427 . S
N782 C779 1.384 . S
N783 C775 1.427 . S
N783 C781 1.384 . S
H784 C790 0.930 . S
H785 C794 0.930 . S
H786 C799 0.929 . S
H787 C797 0.929 . S
H788 C792 0.929 . S
H789 C798 0.929 . S
C790 H784 0.930 . S
C790 C791 1.367 . S
C790 C798 1.378 . S
C791 C790 1.367 . S
C791 C799 1.433 . S
C792 H788 0.929 . S
C792 C794 1.378 . S
C792 C796 1.350 . S
C793 C796 1.463 1_554 S
C793 C798 1.350 . S
C793 N801 1.427 . S
C794 H785 0.930 . S
C794 C792 1.378 . S
C794 C795 1.367 . S
C795 C794 1.367 . S
C795 C797 1.433 . S
C796 C792 1.350 . S
C796 C793 1.463 1_556 S
C796 N800 1.427 . S
C797 H787 0.929 . S
C797 C795 1.433 . S
C797 N800 1.384 . S
C798 H789 0.929 . S
C798 C790 1.378 . S
C798 C793 1.350 . S
C799 H786 0.929 . S
C799 C791 1.433 . S
C799 N801 1.384 . S
N800 C796 1.427 . S
N800 C797 1.384 . S
N801 C793 1.427 . S
N801 C799 1.384 . S
H802 C808 0.930 . S
H803 C812 0.930 . S
H804 C817 0.929 . S
H805 C815 0.929 . S
H806 C810 0.929 . S
H807 C816 0.929 . S
C808 H802 0.930 . S
C808 C809 1.367 . S
C808 C816 1.378 . S
C809 C808 1.367 . S
C809 C817 1.433 . S
C810 H806 0.929 . S
C810 C812 1.378 . S
C810 C814 1.350 . S
C811 C814 1.463 . S
C811 C816 1.350 . S
C811 N819 1.427 . S
C812 H803 0.930 . S
C812 C810 1.378 . S
C812 C813 1.367 . S
C813 C812 1.367 . S
C813 C815 1.433 . S
C814 C810 1.350 . S
C814 C811 1.463 . S
C814 N818 1.427 . S
C815 H805 0.929 . S
C815 C813 1.433 . S
C815 N818 1.384 . S
C816 H807 0.929 . S
C816 C808 1.378 . S
C816 C811 1.350 . S
C817 H804 0.929 . S
C817 C809 1.433 . S
C817 N819 1.384 . S
N818 C814 1.427 . S
N818 C815 1.384 . S
N819 C811 1.427 . S
N819 C817 1.384 . S
H820 C826 0.930 . S
H821 C830 0.930 . S
H822 C835 0.929 . S
H823 C833 0.929 . S
H824 C828 0.929 . S
H825 C834 0.929 . S
C826 H820 0.930 . S
C826 C827 1.367 . S
C826 C834 1.378 . S
C827 C826 1.367 . S
C827 C835 1.433 . S
C828 H824 0.929 . S
C828 C830 1.378 . S
C828 C832 1.350 . S
C829 C832 1.463 . S
C829 C834 1.350 . S
C829 N837 1.427 . S
C830 H821 0.930 . S
C830 C828 1.378 . S
C830 C831 1.367 . S
C831 C830 1.367 . S
C831 C833 1.433 . S
C832 C828 1.350 . S
C832 C829 1.463 . S
C832 N836 1.427 . S
C833 H823 0.929 . S
C833 C831 1.433 . S
C833 N836 1.384 . S
C834 H825 0.929 . S
C834 C826 1.378 . S
C834 C829 1.350 . S
C835 H822 0.929 . S
C835 C827 1.433 . S
C835 N837 1.384 . S
N836 C832 1.427 . S
N836 C833 1.384 . S
N837 C829 1.427 . S
N837 C835 1.384 . S
H838 C844 0.930 . S
H839 C848 0.930 . S
H840 C853 0.929 . S
H841 C851 0.929 . S
H842 C846 0.929 . S
H843 C852 0.929 . S
C844 H838 0.930 . S
C844 C845 1.367 . S
C844 C852 1.378 . S
C845 C844 1.367 . S
C845 C853 1.433 . S
C846 H842 0.929 . S
C846 C848 1.378 . S
C846 C850 1.350 . S
C847 C850 1.463 . S
C847 C852 1.350 . S
C847 N855 1.427 . S
C848 H839 0.930 . S
C848 C846 1.378 . S
C848 C849 1.367 . S
C849 C848 1.367 . S
C849 C851 1.433 . S
C850 C846 1.350 . S
C850 C847 1.463 . S
C850 N854 1.427 . S
C851 H841 0.929 . S
C851 C849 1.433 . S
C851 N854 1.384 . S
C852 H843 0.929 . S
C852 C844 1.378 . S
C852 C847 1.350 . S
C853 H840 0.929 . S
C853 C845 1.433 . S
C853 N855 1.384 . S
N854 C850 1.427 . S
N854 C851 1.384 . S
N855 C847 1.427 . S
N855 C853 1.384 . S
H856 C862 0.930 . S
H857 C866 0.930 . S
H858 C871 0.929 . S
H859 C869 0.929 . S
H860 C864 0.929 . S
H861 C870 0.929 . S
C862 H856 0.930 . S
C862 C863 1.367 . S
C862 C870 1.378 . S
C863 C862 1.367 . S
C863 C871 1.433 . S
C864 H860 0.929 . S
C864 C866 1.378 . S
C864 C868 1.350 . S
C865 C868 1.463 1_554 S
C865 C870 1.350 . S
C865 N873 1.427 . S
C866 H857 0.930 . S
C866 C864 1.378 . S
C866 C867 1.367 . S
C867 C866 1.367 . S
C867 C869 1.433 . S
C868 C864 1.350 . S
C868 C865 1.463 1_556 S
C868 N872 1.427 . S
C869 H859 0.929 . S
C869 C867 1.433 . S
C869 N872 1.384 . S
C870 H861 0.929 . S
C870 C862 1.378 . S
C870 C865 1.350 . S
C871 H858 0.929 . S
C871 C863 1.433 . S
C871 N873 1.384 . S
N872 C868 1.427 . S
N872 C869 1.384 . S
N873 C865 1.427 . S
N873 C871 1.384 . S
H874 C880 0.930 . S
H875 C884 0.930 . S
H876 C889 0.929 . S
H877 C887 0.929 . S
H878 C882 0.929 . S
H879 C888 0.929 . S
C880 H874 0.930 . S
C880 C881 1.367 . S
C880 C888 1.378 . S
C881 C880 1.367 . S
C881 C889 1.433 . S
C882 H878 0.929 . S
C882 C884 1.378 . S
C882 C886 1.350 . S
C883 C886 1.463 . S
C883 C888 1.350 . S
C883 N891 1.427 . S
C884 H875 0.930 . S
C884 C882 1.378 . S
C884 C885 1.367 . S
C885 C884 1.367 . S
C885 C887 1.433 . S
C886 C882 1.350 . S
C886 C883 1.463 . S
C886 N890 1.427 . S
C887 H877 0.929 . S
C887 C885 1.433 . S
C887 N890 1.384 . S
C888 H879 0.929 . S
C888 C880 1.378 . S
C888 C883 1.350 . S
C889 H876 0.929 . S
C889 C881 1.433 . S
C889 N891 1.384 . S
N890 C886 1.427 . S
N890 C887 1.384 . S
N891 C883 1.427 . S
N891 C889 1.384 . S
H892 C898 0.930 . S
H893 C902 0.930 . S
H894 C907 0.929 . S
H895 C905 0.929 . S
H896 C900 0.929 . S
H897 C906 0.929 . S
C898 H892 0.930 . S
C898 C899 1.367 . S
C898 C906 1.378 . S
C899 C898 1.367 . S
C899 C907 1.433 . S
C900 H896 0.929 . S
C900 C902 1.378 . S
C900 C904 1.350 . S
C901 C904 1.463 . S
C901 C906 1.350 . S
C901 N909 1.427 . S
C902 H893 0.930 . S
C902 C900 1.378 . S
C902 C903 1.367 . S
C903 C902 1.367 . S
C903 C905 1.433 . S
C904 C900 1.350 . S
C904 C901 1.463 . S
C904 N908 1.427 . S
C905 H895 0.929 . S
C905 C903 1.433 . S
C905 N908 1.384 . S
C906 H897 0.929 . S
C906 C898 1.378 . S
C906 C901 1.350 . S
C907 H894 0.929 . S
C907 C899 1.433 . S
C907 N909 1.384 . S
N908 C904 1.427 . S
N908 C905 1.384 . S
N909 C901 1.427 . S
N909 C907 1.384 . S
H910 C916 0.930 . S
H911 C920 0.930 . S
H912 C925 0.929 . S
H913 C923 0.929 . S
H914 C918 0.929 . S
H915 C924 0.929 . S
C916 H910 0.930 . S
C916 C917 1.367 . S
C916 C924 1.378 . S
C917 C916 1.367 . S
C917 C925 1.433 . S
C918 H914 0.929 . S
C918 C920 1.378 . S
C918 C922 1.350 . S
C919 C922 1.463 . S
C919 C924 1.350 . S
C919 N927 1.427 . S
C920 H911 0.930 . S
C920 C918 1.378 . S
C920 C921 1.367 . S
C921 C920 1.367 . S
C921 C923 1.433 . S
C922 C918 1.350 . S
C922 C919 1.463 . S
C922 N926 1.427 . S
C923 H913 0.929 . S
C923 C921 1.433 . S
C923 N926 1.384 . S
C924 H915 0.929 . S
C924 C916 1.378 . S
C924 C919 1.350 . S
C925 H912 0.929 . S
C925 C917 1.433 . S
C925 N927 1.384 . S
N926 C922 1.427 . S
N926 C923 1.384 . S
N927 C919 1.427 . S
N927 C925 1.384 . S
H928 C934 0.930 . S
H929 C938 0.930 . S
H930 C943 0.929 . S
H931 C941 0.929 . S
H932 C936 0.929 . S
H933 C942 0.929 . S
C934 H928 0.930 . S
C934 C935 1.367 . S
C934 C942 1.378 . S
C935 C934 1.367 . S
C935 C943 1.433 . S
C936 H932 0.929 . S
C936 C938 1.378 . S
C936 C940 1.350 . S
C937 C940 1.463 . S
C937 C942 1.350 . S
C937 N945 1.427 . S
C938 H929 0.930 . S
C938 C936 1.378 . S
C938 C939 1.367 . S
C939 C938 1.367 . S
C939 C941 1.433 . S
C940 C936 1.350 . S
C940 C937 1.463 . S
C940 N944 1.427 . S
C941 H931 0.929 . S
C941 C939 1.433 . S
C941 N944 1.384 . S
C942 H933 0.929 . S
C942 C934 1.378 . S
C942 C937 1.350 . S
C943 H930 0.929 . S
C943 C935 1.433 . S
C943 N945 1.384 . S
N944 C940 1.427 . S
N944 C941 1.384 . S
N945 C937 1.427 . S
N945 C943 1.384 . S
H946 C952 0.930 . S
H947 C956 0.930 . S
H948 C961 0.929 . S
H949 C959 0.929 . S
H950 C954 0.929 . S
H951 C960 0.929 . S
C952 H946 0.930 . S
C952 C953 1.367 . S
C952 C960 1.378 . S
C953 C952 1.367 . S
C953 C961 1.433 . S
C954 H950 0.929 . S
C954 C956 1.378 . S
C954 C958 1.350 . S
C955 C958 1.463 . S
C955 C960 1.350 . S
C955 N963 1.427 . S
C956 H947 0.930 . S
C956 C954 1.378 . S
C956 C957 1.367 . S
C957 C956 1.367 . S
C957 C959 1.433 . S
C958 C954 1.350 . S
C958 C955 1.463 . S
C958 N962 1.427 . S
C959 H949 0.929 . S
C959 C957 1.433 . S
C959 N962 1.384 . S
C960 H951 0.929 . S
C960 C952 1.378 . S
C960 C955 1.350 . S
C961 H948 0.929 . S
C961 C953 1.433 . S
C961 N963 1.384 . S
N962 C958 1.427 . S
N962 C959 1.384 . S
N963 C955 1.427 . S
N963 C961 1.384 . S
H964 C970 0.930 . S
H965 C974 0.930 . S
H966 C979 0.929 . S
H967 C977 0.929 . S
H968 C972 0.929 . S
H969 C978 0.929 . S
C970 H964 0.930 . S
C970 C971 1.367 . S
C970 C978 1.378 . S
C971 C970 1.367 . S
C971 C979 1.433 . S
C972 H968 0.929 . S
C972 C974 1.378 . S
C972 C976 1.350 . S
C973 C976 1.463 1_554 S
C973 C978 1.350 . S
C973 N981 1.427 . S
C974 H965 0.930 . S
C974 C972 1.378 . S
C974 C975 1.367 . S
C975 C974 1.367 . S
C975 C977 1.433 . S
C976 C972 1.350 . S
C976 C973 1.463 1_556 S
C976 N980 1.427 . S
C977 H967 0.929 . S
C977 C975 1.433 . S
C977 N980 1.384 . S
C978 H969 0.929 . S
C978 C970 1.378 . S
C978 C973 1.350 . S
C979 H966 0.929 . S
C979 C971 1.433 . S
C979 N981 1.384 . S
N980 C976 1.427 . S
N980 C977 1.384 . S
N981 C973 1.427 . S
N981 C979 1.384 . S
H982 C988 0.930 . S
H983 C992 0.930 . S
H984 C997 0.929 . S
H985 C995 0.929 . S
H986 C990 0.929 . S
H987 C996 0.929 . S
C988 H982 0.930 . S
C988 C989 1.367 . S
C988 C996 1.378 . S
C989 C988 1.367 . S
C989 C997 1.433 . S
C990 H986 0.929 . S
C990 C992 1.378 . S
C990 C994 1.350 . S
C991 C994 1.463 . S
C991 C996 1.350 . S
C991 N999 1.427 . S
C992 H983 0.930 . S
C992 C990 1.378 . S
C992 C993 1.367 . S
C993 C992 1.367 . S
C993 C995 1.433 . S
C994 C990 1.350 . S
C994 C991 1.463 . S
C994 N998 1.427 . S
C995 H985 0.929 . S
C995 C993 1.433 . S
C995 N998 1.384 . S
C996 H987 0.929 . S
C996 C988 1.378 . S
C996 C991 1.350 . S
C997 H984 0.929 . S
C997 C989 1.433 . S
C997 N999 1.384 . S
N998 C994 1.427 . S
N998 C995 1.384 . S
N999 C991 1.427 . S
N999 C997 1.384 . S
H1000 C1006 0.930 . S
H1001 C1010 0.930 . S
H1002 C1015 0.929 . S
H1003 C1013 0.929 . S
H1004 C1008 0.929 . S
H1005 C1014 0.929 . S
C1006 H1000 0.930 . S
C1006 C1007 1.367 . S
C1006 C1014 1.378 . S
C1007 C1006 1.367 . S
C1007 C1015 1.433 . S
C1008 H1004 0.929 . S
C1008 C1010 1.378 . S
C1008 C1012 1.350 . S
C1009 C1012 1.463 . S
C1009 C1014 1.350 . S
C1009 N1017 1.427 . S
C1010 H1001 0.930 . S
C1010 C1008 1.378 . S
C1010 C1011 1.367 . S
C1011 C1010 1.367 . S
C1011 C1013 1.433 . S
C1012 C1008 1.350 . S
C1012 C1009 1.463 . S
C1012 N1016 1.427 . S
C1013 H1003 0.929 . S
C1013 C1011 1.433 . S
C1013 N1016 1.384 . S
C1014 H1005 0.929 . S
C1014 C1006 1.378 . S
C1014 C1009 1.350 . S
C1015 H1002 0.929 . S
C1015 C1007 1.433 . S
C1015 N1017 1.384 . S
N1016 C1012 1.427 . S
N1016 C1013 1.384 . S
N1017 C1009 1.427 . S
N1017 C1015 1.384 . S
H1018 C1024 0.930 . S
H1019 C1028 0.930 . S
H1020 C1033 0.929 . S
H1021 C1031 0.929 . S
H1022 C1026 0.929 . S
H1023 C1032 0.929 . S
C1024 H1018 0.930 . S
C1024 C1025 1.367 . S
C1024 C1032 1.378 . S
C1025 C1024 1.367 . S
C1025 C1033 1.433 . S
C1026 H1022 0.929 . S
C1026 C1028 1.378 . S
C1026 C1030 1.350 . S
C1027 C1030 1.463 . S
C1027 C1032 1.350 . S
C1027 N1035 1.427 . S
C1028 H1019 0.930 . S
C1028 C1026 1.378 . S
C1028 C1029 1.367 . S
C1029 C1028 1.367 . S
C1029 C1031 1.433 . S
C1030 C1026 1.350 . S
C1030 C1027 1.463 . S
C1030 N1034 1.427 . S
C1031 H1021 0.929 . S
C1031 C1029 1.433 . S
C1031 N1034 1.384 . S
C1032 H1023 0.929 . S
C1032 C1024 1.378 . S
C1032 C1027 1.350 . S
C1033 H1020 0.929 . S
C1033 C1025 1.433 . S
C1033 N1035 1.384 . S
N1034 C1030 1.427 . S
N1034 C1031 1.384 . S
N1035 C1027 1.427 . S
N1035 C1033 1.384 . S
H1036 C1042 0.930 . S
H1037 C1046 0.930 . S
H1038 C1051 0.929 . S
H1039 C1049 0.929 . S
H1040 C1044 0.929 . S
H1041 C1050 0.929 . S
C1042 H1036 0.930 . S
C1042 C1043 1.367 . S
C1042 C1050 1.378 . S
C1043 C1042 1.367 . S
C1043 C1051 1.433 . S
C1044 H1040 0.929 . S
C1044 C1046 1.378 . S
C1044 C1048 1.350 . S
C1045 C1048 1.463 1_554 S
C1045 C1050 1.350 . S
C1045 N1053 1.427 . S
C1046 H1037 0.930 . S
C1046 C1044 1.378 . S
C1046 C1047 1.367 . S
C1047 C1046 1.367 . S
C1047 C1049 1.433 . S
C1048 C1044 1.350 . S
C1048 C1045 1.463 1_556 S
C1048 N1052 1.427 . S
C1049 H1039 0.929 . S
C1049 C1047 1.433 . S
C1049 N1052 1.384 . S
C1050 H1041 0.929 . S
C1050 C1042 1.378 . S
C1050 C1045 1.350 . S
C1051 H1038 0.929 . S
C1051 C1043 1.433 . S
C1051 N1053 1.384 . S
N1052 C1048 1.427 . S
N1052 C1049 1.384 . S
N1053 C1045 1.427 . S
N1053 C1051 1.384 . S
H1054 C1060 0.930 . S
H1055 C1064 0.930 . S
H1056 C1069 0.929 . S
H1057 C1067 0.929 . S
H1058 C1062 0.929 . S
H1059 C1068 0.929 . S
C1060 H1054 0.930 . S
C1060 C1061 1.367 . S
C1060 C1068 1.378 . S
C1061 C1060 1.367 . S
C1061 C1069 1.433 . S
C1062 H1058 0.929 . S
C1062 C1064 1.378 . S
C1062 C1066 1.350 . S
C1063 C1066 1.463 . S
C1063 C1068 1.350 . S
C1063 N1071 1.427 . S
C1064 H1055 0.930 . S
C1064 C1062 1.378 . S
C1064 C1065 1.367 . S
C1065 C1064 1.367 . S
C1065 C1067 1.433 . S
C1066 C1062 1.350 . S
C1066 C1063 1.463 . S
C1066 N1070 1.427 . S
C1067 H1057 0.929 . S
C1067 C1065 1.433 . S
C1067 N1070 1.384 . S
C1068 H1059 0.929 . S
C1068 C1060 1.378 . S
C1068 C1063 1.350 . S
C1069 H1056 0.929 . S
C1069 C1061 1.433 . S
C1069 N1071 1.384 . S
N1070 C1066 1.427 . S
N1070 C1067 1.384 . S
N1071 C1063 1.427 . S
N1071 C1069 1.384 . S
H1072 C1078 0.930 . S
H1073 C1082 0.930 . S
H1074 C1087 0.929 . S
H1075 C1085 0.929 . S
H1076 C1080 0.929 . S
H1077 C1086 0.929 . S
C1078 H1072 0.930 . S
C1078 C1079 1.367 . S
C1078 C1086 1.378 . S
C1079 C1078 1.367 . S
C1079 C1087 1.433 . S
C1080 H1076 0.929 . S
C1080 C1082 1.378 . S
C1080 C1084 1.350 . S
C1081 C1084 1.463 . S
C1081 C1086 1.350 . S
C1081 N1089 1.427 . S
C1082 H1073 0.930 . S
C1082 C1080 1.378 . S
C1082 C1083 1.367 . S
C1083 C1082 1.367 . S
C1083 C1085 1.433 . S
C1084 C1080 1.350 . S
C1084 C1081 1.463 . S
C1084 N1088 1.427 . S
C1085 H1075 0.929 . S
C1085 C1083 1.433 . S
C1085 N1088 1.384 . S
C1086 H1077 0.929 . S
C1086 C1078 1.378 . S
C1086 C1081 1.350 . S
C1087 H1074 0.929 . S
C1087 C1079 1.433 . S
C1087 N1089 1.384 . S
N1088 C1084 1.427 . S
N1088 C1085 1.384 . S
N1089 C1081 1.427 . S
N1089 C1087 1.384 . S
H1090 C1096 0.930 . S
H1091 C1100 0.930 . S
H1092 C1105 0.929 . S
H1093 C1103 0.929 . S
H1094 C1098 0.929 . S
H1095 C1104 0.929 . S
C1096 H1090 0.930 . S
C1096 C1097 1.367 . S
C1096 C1104 1.378 . S
C1097 C1096 1.367 . S
C1097 C1105 1.433 . S
C1098 H1094 0.929 . S
C1098 C1100 1.378 . S
C1098 C1102 1.350 . S
C1099 C1102 1.463 . S
C1099 C1104 1.350 . S
C1099 N1107 1.427 . S
C1100 H1091 0.930 . S
C1100 C1098 1.378 . S
C1100 C1101 1.367 . S
C1101 C1100 1.367 . S
C1101 C1103 1.433 . S
C1102 C1098 1.350 . S
C1102 C1099 1.463 . S
C1102 N1106 1.427 . S
C1103 H1093 0.929 . S
C1103 C1101 1.433 . S
C1103 N1106 1.384 . S
C1104 H1095 0.929 . S
C1104 C1096 1.378 . S
C1104 C1099 1.350 . S
C1105 H1092 0.929 . S
C1105 C1097 1.433 . S
C1105 N1107 1.384 . S
N1106 C1102 1.427 . S
N1106 C1103 1.384 . S
N1107 C1099 1.427 . S
N1107 C1105 1.384 . S
H1108 C1114 0.930 . S
H1109 C1118 0.930 . S
H1110 C1123 0.929 . S
H1111 C1121 0.929 . S
H1112 C1116 0.929 . S
H1113 C1122 0.929 . S
C1114 H1108 0.930 . S
C1114 C1115 1.367 . S
C1114 C1122 1.378 . S
C1115 C1114 1.367 . S
C1115 C1123 1.433 . S
C1116 H1112 0.929 . S
C1116 C1118 1.378 . S
C1116 C1120 1.350 . S
C1117 C1120 1.463 . S
C1117 C1122 1.350 . S
C1117 N1125 1.427 . S
C1118 H1109 0.930 . S
C1118 C1116 1.378 . S
C1118 C1119 1.367 . S
C1119 C1118 1.367 . S
C1119 C1121 1.433 . S
C1120 C1116 1.350 . S
C1120 C1117 1.463 . S
C1120 N1124 1.427 . S
C1121 H1111 0.929 . S
C1121 C1119 1.433 . S
C1121 N1124 1.384 . S
C1122 H1113 0.929 . S
C1122 C1114 1.378 . S
C1122 C1117 1.350 . S
C1123 H1110 0.929 . S
C1123 C1115 1.433 . S
C1123 N1125 1.384 . S
N1124 C1120 1.427 . S
N1124 C1121 1.384 . S
N1125 C1117 1.427 . S
N1125 C1123 1.384 . S
H1126 C1132 0.930 . S
H1127 C1136 0.930 1_554 S
H1128 C1141 0.929 . S
H1129 C1139 0.929 . S
H1130 C1134 0.929 . S
H1131 C1140 0.929 1_556 S
C1132 H1126 0.930 . S
C1132 C1133 1.367 . S
C1132 C1140 1.378 . S
C1133 C1132 1.367 . S
C1133 C1141 1.433 . S
C1134 H1130 0.929 . S
C1134 C1136 1.378 1_554 S
C1134 C1138 1.350 1_554 S
C1135 C1138 1.463 1_454 S
C1135 C1140 1.350 . S
C1135 N1143 1.427 . S
C1136 H1127 0.930 1_556 S
C1136 C1134 1.378 1_556 S
C1136 C1137 1.367 . S
C1137 C1136 1.367 . S
C1137 C1139 1.433 . S
C1138 C1134 1.350 1_556 S
C1138 C1135 1.463 1_656 S
C1138 N1142 1.427 . S
C1139 H1129 0.929 . S
C1139 C1137 1.433 . S
C1139 N1142 1.384 . S
C1140 H1131 0.929 1_554 S
C1140 C1132 1.378 . S
C1140 C1135 1.350 . S
C1141 H1128 0.929 . S
C1141 C1133 1.433 . S
C1141 N1143 1.384 . S
N1142 C1138 1.427 . S
N1142 C1139 1.384 . S
N1143 C1135 1.427 . S
N1143 C1141 1.384 . S
H1144 C1150 0.930 . S
H1145 C1154 0.930 . S
H1146 C1159 0.929 . S
H1147 C1157 0.929 . S
H1148 C1152 0.929 . S
H1149 C1158 0.929 . S
C1150 H1144 0.930 . S
C1150 C1151 1.367 . S
C1150 C1158 1.378 . S
C1151 C1150 1.367 . S
C1151 C1159 1.433 . S
C1152 H1148 0.929 . S
C1152 C1154 1.378 . S
C1152 C1156 1.350 . S
C1153 C1156 1.463 . S
C1153 C1158 1.350 . S
C1153 N1161 1.427 . S
C1154 H1145 0.930 . S
C1154 C1152 1.378 . S
C1154 C1155 1.367 . S
C1155 C1154 1.367 . S
C1155 C1157 1.433 . S
C1156 C1152 1.350 . S
C1156 C1153 1.463 . S
C1156 N1160 1.427 . S
C1157 H1147 0.929 . S
C1157 C1155 1.433 . S
C1157 N1160 1.384 . S
C1158 H1149 0.929 . S
C1158 C1150 1.378 . S
C1158 C1153 1.350 . S
C1159 H1146 0.929 . S
C1159 C1151 1.433 . S
C1159 N1161 1.384 . S
N1160 C1156 1.427 . S
N1160 C1157 1.384 . S
N1161 C1153 1.427 . S
N1161 C1159 1.384 . S
H1162 C1168 0.930 . S
H1163 C1172 0.930 . S
H1164 C1177 0.929 . S
H1165 C1175 0.929 . S
H1166 C1170 0.929 . S
H1167 C1176 0.929 . S
C1168 H1162 0.930 . S
C1168 C1169 1.367 . S
C1168 C1176 1.378 . S
C1169 C1168 1.367 . S
C1169 C1177 1.433 . S
C1170 H1166 0.929 . S
C1170 C1172 1.378 . S
C1170 C1174 1.350 . S
C1171 C1174 1.463 . S
C1171 C1176 1.350 . S
C1171 N1179 1.427 . S
C1172 H1163 0.930 . S
C1172 C1170 1.378 . S
C1172 C1173 1.367 . S
C1173 C1172 1.367 . S
C1173 C1175 1.433 . S
C1174 C1170 1.350 . S
C1174 C1171 1.463 . S
C1174 N1178 1.427 . S
C1175 H1165 0.929 . S
C1175 C1173 1.433 . S
C1175 N1178 1.384 . S
C1176 H1167 0.929 . S
C1176 C1168 1.378 . S
C1176 C1171 1.350 . S
C1177 H1164 0.929 . S
C1177 C1169 1.433 . S
C1177 N1179 1.384 . S
N1178 C1174 1.427 . S
N1178 C1175 1.384 . S
N1179 C1171 1.427 . S
N1179 C1177 1.384 . S
H1180 C1186 0.930 . S
H1181 C1190 0.930 . S
H1182 C1195 0.929 . S
H1183 C1193 0.929 . S
H1184 C1188 0.929 1_556 S
H1185 C1194 0.919 1_554 S
C1186 H1180 0.930 . S
C1186 C1187 1.367 1_565 S
C1186 C1194 1.386 . S
C1187 C1186 1.367 1_545 S
C1187 C1195 1.433 . S
C1188 H1184 0.929 1_554 S
C1188 C1190 1.378 . S
C1188 C1192 1.336 1_545 S
C1189 C1192 1.462 1_446 S
C1189 C1194 1.338 1_545 S
C1189 N1197 1.443 . S
C1190 H1181 0.930 . S
C1190 C1188 1.378 . S
C1190 C1191 1.367 1_545 S
C1191 C1190 1.367 1_565 S
C1191 C1193 1.433 . S
C1192 C1188 1.336 1_565 S
C1192 C1189 1.462 1_664 S
C1192 N1196 1.443 . S
C1193 H1183 0.929 . S
C1193 C1191 1.433 . S
C1193 N1196 1.384 . S
C1194 H1185 0.919 1_556 S
C1194 C1186 1.386 . S
C1194 C1189 1.338 1_565 S
C1195 H1182 0.929 . S
C1195 C1187 1.433 . S
C1195 N1197 1.384 . S
N1196 C1192 1.443 . S
N1196 C1193 1.384 . S
N1197 C1189 1.443 . S
N1197 C1195 1.384 . S
H1198 C1204 0.930 . S
H1199 C1208 0.930 . S
H1200 C1213 0.929 . S
H1201 C1211 0.929 . S
H1202 C1206 0.929 . S
H1203 C1212 0.929 . S
C1204 H1198 0.930 . S
C1204 C1205 1.367 . S
C1204 C1212 1.378 . S
C1205 C1204 1.367 . S
C1205 C1213 1.433 1_565 S
C1206 H1202 0.929 . S
C1206 C1208 1.378 . S
C1206 C1210 1.350 . S
C1207 C1210 1.463 1_565 S
C1207 C1212 1.350 . S
C1207 N1215 1.427 1_565 S
C1208 H1199 0.930 . S
C1208 C1206 1.378 . S
C1208 C1209 1.367 . S
C1209 C1208 1.367 . S
C1209 C1211 1.433 1_545 S
C1210 C1206 1.350 . S
C1210 C1207 1.463 1_545 S
C1210 N1214 1.427 1_545 S
C1211 H1201 0.929 . S
C1211 C1209 1.433 1_565 S
C1211 N1214 1.384 . S
C1212 H1203 0.929 . S
C1212 C1204 1.378 . S
C1212 C1207 1.350 . S
C1213 H1200 0.929 . S
C1213 C1205 1.433 1_545 S
C1213 N1215 1.384 . S
N1214 C1210 1.427 1_565 S
N1214 C1211 1.384 . S
N1215 C1207 1.427 1_545 S
N1215 C1213 1.384 . S
H1216 C1222 0.930 . S
H1217 C1226 0.930 . S
H1218 C1231 0.929 . S
H1219 C1229 0.929 . S
H1220 C1224 0.929 . S
H1221 C1230 0.929 . S
C1222 H1216 0.930 . S
C1222 C1223 1.367 . S
C1222 C1230 1.378 . S
C1223 C1222 1.367 . S
C1223 C1231 1.433 . S
C1224 H1220 0.929 . S
C1224 C1226 1.378 . S
C1224 C1228 1.350 . S
C1225 C1228 1.463 . S
C1225 C1230 1.350 . S
C1225 N1233 1.427 . S
C1226 H1217 0.930 . S
C1226 C1224 1.378 . S
C1226 C1227 1.367 . S
C1227 C1226 1.367 . S
C1227 C1229 1.433 . S
C1228 C1224 1.350 . S
C1228 C1225 1.463 . S
C1228 N1232 1.427 . S
C1229 H1219 0.929 . S
C1229 C1227 1.433 . S
C1229 N1232 1.384 . S
C1230 H1221 0.929 . S
C1230 C1222 1.378 . S
C1230 C1225 1.350 . S
C1231 H1218 0.929 . S
C1231 C1223 1.433 . S
C1231 N1233 1.384 . S
N1232 C1228 1.427 . S
N1232 C1229 1.384 . S
N1233 C1225 1.427 . S
N1233 C1231 1.384 . S
H1234 C1240 0.930 . S
H1235 C1244 0.930 . S
H1236 C1249 0.929 . S
H1237 C1247 0.929 . S
H1238 C1242 0.929 . S
H1239 C1248 0.929 . S
C1240 H1234 0.930 . S
C1240 C1241 1.367 . S
C1240 C1248 1.378 . S
C1241 C1240 1.367 . S
C1241 C1249 1.433 . S
C1242 H1238 0.929 . S
C1242 C1244 1.378 . S
C1242 C1246 1.350 . S
C1243 C1246 1.463 . S
C1243 C1248 1.350 . S
C1243 N1251 1.427 . S
C1244 H1235 0.930 . S
C1244 C1242 1.378 . S
C1244 C1245 1.367 . S
C1245 C1244 1.367 . S
C1245 C1247 1.433 . S
C1246 C1242 1.350 . S
C1246 C1243 1.463 . S
C1246 N1250 1.427 . S
C1247 H1237 0.929 . S
C1247 C1245 1.433 . S
C1247 N1250 1.384 . S
C1248 H1239 0.929 . S
C1248 C1240 1.378 . S
C1248 C1243 1.350 . S
C1249 H1236 0.929 . S
C1249 C1241 1.433 . S
C1249 N1251 1.384 . S
N1250 C1246 1.427 . S
N1250 C1247 1.384 . S
N1251 C1243 1.427 . S
N1251 C1249 1.384 . S
H1252 C1258 0.930 . S
H1253 C1262 0.930 . S
H1254 C1267 0.929 . S
H1255 C1265 0.929 . S
H1256 C1260 0.929 . S
H1257 C1266 0.929 . S
C1258 H1252 0.930 . S
C1258 C1259 1.367 . S
C1258 C1266 1.378 . S
C1259 C1258 1.367 . S
C1259 C1267 1.433 . S
C1260 H1256 0.929 . S
C1260 C1262 1.378 . S
C1260 C1264 1.350 . S
C1261 C1264 1.463 . S
C1261 C1266 1.350 . S
C1261 N1269 1.427 . S
C1262 H1253 0.930 . S
C1262 C1260 1.378 . S
C1262 C1263 1.367 . S
C1263 C1262 1.367 . S
C1263 C1265 1.433 . S
C1264 C1260 1.350 . S
C1264 C1261 1.463 . S
C1264 N1268 1.427 . S
C1265 H1255 0.929 . S
C1265 C1263 1.433 . S
C1265 N1268 1.384 . S
C1266 H1257 0.929 . S
C1266 C1258 1.378 . S
C1266 C1261 1.350 . S
C1267 H1254 0.929 . S
C1267 C1259 1.433 . S
C1267 N1269 1.384 . S
N1268 C1264 1.427 . S
N1268 C1265 1.384 . S
N1269 C1261 1.427 . S
N1269 C1267 1.384 . S
H1270 C1276 0.930 . S
H1271 C1280 0.930 . S
H1272 C1285 0.929 . S
H1273 C1283 0.929 . S
H1274 C1278 0.929 . S
H1275 C1284 0.929 . S
C1276 H1270 0.930 . S
C1276 C1277 1.367 . S
C1276 C1284 1.378 . S
C1277 C1276 1.367 . S
C1277 C1285 1.433 . S
C1278 H1274 0.929 . S
C1278 C1280 1.378 . S
C1278 C1282 1.350 . S
C1279 C1282 1.463 . S
C1279 C1284 1.350 . S
C1279 N1287 1.427 . S
C1280 H1271 0.930 . S
C1280 C1278 1.378 . S
C1280 C1281 1.367 . S
C1281 C1280 1.367 . S
C1281 C1283 1.433 . S
C1282 C1278 1.350 . S
C1282 C1279 1.463 . S
C1282 N1286 1.427 . S
C1283 H1273 0.929 . S
C1283 C1281 1.433 . S
C1283 N1286 1.384 . S
C1284 H1275 0.929 . S
C1284 C1276 1.378 . S
C1284 C1279 1.350 . S
C1285 H1272 0.929 . S
C1285 C1277 1.433 . S
C1285 N1287 1.384 . S
N1286 C1282 1.427 . S
N1286 C1283 1.384 . S
N1287 C1279 1.427 . S
N1287 C1285 1.384 . S
H1288 C1294 0.930 . S
H1289 C1298 0.930 . S
H1290 C1303 0.929 . S
H1291 C1301 0.929 . S
H1292 C1296 0.929 . S
H1293 C1302 0.929 . S
C1294 H1288 0.930 . S
C1294 C1295 1.367 . S
C1294 C1302 1.378 . S
C1295 C1294 1.367 . S
C1295 C1303 1.433 . S
C1296 H1292 0.929 . S
C1296 C1298 1.378 . S
C1296 C1300 1.350 . S
C1297 C1300 1.463 . S
C1297 C1302 1.350 . S
C1297 N1305 1.427 . S
C1298 H1289 0.930 . S
C1298 C1296 1.378 . S
C1298 C1299 1.367 . S
C1299 C1298 1.367 . S
C1299 C1301 1.433 . S
C1300 C1296 1.350 . S
C1300 C1297 1.463 . S
C1300 N1304 1.427 . S
C1301 H1291 0.929 . S
C1301 C1299 1.433 . S
C1301 N1304 1.384 . S
C1302 H1293 0.929 . S
C1302 C1294 1.378 . S
C1302 C1297 1.350 . S
C1303 H1290 0.929 . S
C1303 C1295 1.433 . S
C1303 N1305 1.384 . S
N1304 C1300 1.427 . S
N1304 C1301 1.384 . S
N1305 C1297 1.427 . S
N1305 C1303 1.384 . S
H1306 C1312 0.930 . S
H1307 C1316 0.930 . S
H1308 C1321 0.929 . S
H1309 C1319 0.929 . S
H1310 C1314 0.929 . S
H1311 C1320 0.929 . S
C1312 H1306 0.930 . S
C1312 C1313 1.367 . S
C1312 C1320 1.378 . S
C1313 C1312 1.367 . S
C1313 C1321 1.433 . S
C1314 H1310 0.929 . S
C1314 C1316 1.378 . S
C1314 C1318 1.350 . S
C1315 C1318 1.463 . S
C1315 C1320 1.350 . S
C1315 N1323 1.427 . S
C1316 H1307 0.930 . S
C1316 C1314 1.378 . S
C1316 C1317 1.367 . S
C1317 C1316 1.367 . S
C1317 C1319 1.433 . S
C1318 C1314 1.350 . S
C1318 C1315 1.463 . S
C1318 N1322 1.427 . S
C1319 H1309 0.929 . S
C1319 C1317 1.433 . S
C1319 N1322 1.384 . S
C1320 H1311 0.929 . S
C1320 C1312 1.378 . S
C1320 C1315 1.350 . S
C1321 H1308 0.929 . S
C1321 C1313 1.433 . S
C1321 N1323 1.384 . S
N1322 C1318 1.427 . S
N1322 C1319 1.384 . S
N1323 C1315 1.427 . S
N1323 C1321 1.384 . S
H1324 C1330 0.930 . S
H1325 C1334 0.930 . S
H1326 C1339 0.929 . S
H1327 C1337 0.929 . S
H1328 C1332 0.929 . S
H1329 C1338 0.929 . S
C1330 H1324 0.930 . S
C1330 C1331 1.367 . S
C1330 C1338 1.378 . S
C1331 C1330 1.367 . S
C1331 C1339 1.433 . S
C1332 H1328 0.929 . S
C1332 C1334 1.378 . S
C1332 C1336 1.350 . S
C1333 C1336 1.463 . S
C1333 C1338 1.350 . S
C1333 N1341 1.427 . S
C1334 H1325 0.930 . S
C1334 C1332 1.378 . S
C1334 C1335 1.367 . S
C1335 C1334 1.367 . S
C1335 C1337 1.433 . S
C1336 C1332 1.350 . S
C1336 C1333 1.463 . S
C1336 N1340 1.427 . S
C1337 H1327 0.929 . S
C1337 C1335 1.433 . S
C1337 N1340 1.384 . S
C1338 H1329 0.929 . S
C1338 C1330 1.378 . S
C1338 C1333 1.350 . S
C1339 H1326 0.929 . S
C1339 C1331 1.433 . S
C1339 N1341 1.384 . S
N1340 C1336 1.427 . S
N1340 C1337 1.384 . S
N1341 C1333 1.427 . S
N1341 C1339 1.384 . S
H1342 C1348 0.930 . S
H1343 C1352 0.930 . S
H1344 C1357 0.929 . S
H1345 C1355 0.929 . S
H1346 C1350 0.929 1_554 S
H1347 C1356 0.929 . S
C1348 H1342 0.930 . S
C1348 C1349 1.367 . S
C1348 C1356 1.378 . S
C1349 C1348 1.367 . S
C1349 C1357 1.433 1_556 S
C1350 H1346 0.929 1_556 S
C1350 C1352 1.378 . S
C1350 C1354 1.350 . S
C1351 C1354 1.463 . S
C1351 C1356 1.350 . S
C1351 N1359 1.427 1_556 S
C1352 H1343 0.930 . S
C1352 C1350 1.378 . S
C1352 C1353 1.367 . S
C1353 C1352 1.367 . S
C1353 C1355 1.433 . S
C1354 C1350 1.350 . S
C1354 C1351 1.463 . S
C1354 N1358 1.427 . S
C1355 H1345 0.929 . S
C1355 C1353 1.433 . S
C1355 N1358 1.384 . S
C1356 H1347 0.929 . S
C1356 C1348 1.378 . S
C1356 C1351 1.350 . S
C1357 H1344 0.929 . S
C1357 C1349 1.433 1_554 S
C1357 N1359 1.384 . S
N1358 C1354 1.427 . S
N1358 C1355 1.384 . S
N1359 C1351 1.427 1_554 S
N1359 C1357 1.384 . S
H1360 C1366 0.930 . S
H1361 C1370 0.930 . S
H1362 C1375 0.929 . S
H1363 C1373 0.938 . S
H1364 C1368 0.929 . S
H1365 C1374 0.929 . S
C1366 H1360 0.930 . S
C1366 C1367 1.367 . S
C1366 C1374 1.378 . S
C1367 C1366 1.367 . S
C1367 C1375 1.433 . S
C1368 H1364 0.929 . S
C1368 C1370 1.378 1_565 S
C1368 C1372 1.350 . S
C1369 C1372 1.463 . S
C1369 C1374 1.350 . S
C1369 N1377 1.427 . S
C1370 H1361 0.930 . S
C1370 C1368 1.378 1_545 S
C1370 C1371 1.367 . S
C1371 C1370 1.367 . S
C1371 C1373 1.451 . S
C1372 C1368 1.350 . S
C1372 C1369 1.463 . S
C1372 N1376 1.427 . S
C1373 H1363 0.938 . S
C1373 C1371 1.451 . S
C1373 N1376 1.358 1_545 S
C1374 H1365 0.929 . S
C1374 C1366 1.378 . S
C1374 C1369 1.350 . S
C1375 H1362 0.929 . S
C1375 C1367 1.433 . S
C1375 N1377 1.384 . S
N1376 C1372 1.427 . S
N1376 C1373 1.358 1_565 S
N1377 C1369 1.427 . S
N1377 C1375 1.384 . S
H1378 C1384 0.930 . S
H1379 C1388 0.930 . S
H1380 C1393 0.929 . S
H1381 C1391 0.929 . S
H1382 C1386 0.929 . S
H1383 C1392 0.929 . S
C1384 H1378 0.930 . S
C1384 C1385 1.367 . S
C1384 C1392 1.378 . S
C1385 C1384 1.367 . S
C1385 C1393 1.433 . S
C1386 H1382 0.929 . S
C1386 C1388 1.378 . S
C1386 C1390 1.350 . S
C1387 C1390 1.463 . S
C1387 C1392 1.350 . S
C1387 N1395 1.427 . S
C1388 H1379 0.930 . S
C1388 C1386 1.378 . S
C1388 C1389 1.367 . S
C1389 C1388 1.367 . S
C1389 C1391 1.433 . S
C1390 C1386 1.350 . S
C1390 C1387 1.463 . S
C1390 N1394 1.427 . S
C1391 H1381 0.929 . S
C1391 C1389 1.433 . S
C1391 N1394 1.384 . S
C1392 H1383 0.929 . S
C1392 C1384 1.378 . S
C1392 C1387 1.350 . S
C1393 H1380 0.929 . S
C1393 C1385 1.433 . S
C1393 N1395 1.384 . S
N1394 C1390 1.427 . S
N1394 C1391 1.384 . S
N1395 C1387 1.427 . S
N1395 C1393 1.384 . S
H1396 C1402 0.930 . S
H1397 C1406 0.930 . S
H1398 C1411 0.921 1_565 S
H1399 C1409 0.929 . S
H1400 C1404 0.929 . S
H1401 C1410 0.929 . S
C1402 H1396 0.930 . S
C1402 C1403 1.367 . S
C1402 C1410 1.378 1_565 S
C1403 C1402 1.367 . S
C1403 C1411 1.409 1_565 S
C1404 H1400 0.929 . S
C1404 C1406 1.378 . S
C1404 C1408 1.350 . S
C1405 C1408 1.463 . S
C1405 C1410 1.350 . S
C1405 N1413 1.427 . S
C1406 H1397 0.930 . S
C1406 C1404 1.378 . S
C1406 C1407 1.367 . S
C1407 C1406 1.367 . S
C1407 C1409 1.433 . S
C1408 C1404 1.350 . S
C1408 C1405 1.463 . S
C1408 N1412 1.427 . S
C1409 H1399 0.929 . S
C1409 C1407 1.433 . S
C1409 N1412 1.384 . S
C1410 H1401 0.929 . S
C1410 C1402 1.378 1_545 S
C1410 C1405 1.350 . S
C1411 H1398 0.921 1_545 S
C1411 C1403 1.409 1_545 S
C1411 N1413 1.417 . S
N1412 C1408 1.427 . S
N1412 C1409 1.384 . S
N1413 C1405 1.427 . S
N1413 C1411 1.417 . S
H1414 C1420 0.930 . S
H1415 C1424 0.930 . S
H1416 C1429 0.929 . S
H1417 C1427 0.929 . S
H1418 C1422 0.929 . S
H1419 C1428 0.929 . S
C1420 H1414 0.930 . S
C1420 C1421 1.367 . S
C1420 C1428 1.378 . S
C1421 C1420 1.367 . S
C1421 C1429 1.433 . S
C1422 H1418 0.929 . S
C1422 C1424 1.378 . S
C1422 C1426 1.350 . S
C1423 C1426 1.463 . S
C1423 C1428 1.350 . S
C1423 N1431 1.427 . S
C1424 H1415 0.930 . S
C1424 C1422 1.378 . S
C1424 C1425 1.367 . S
C1425 C1424 1.367 . S
C1425 C1427 1.433 . S
C1426 C1422 1.350 . S
C1426 C1423 1.463 . S
C1426 N1430 1.427 . S
C1427 H1417 0.929 . S
C1427 C1425 1.433 . S
C1427 N1430 1.384 . S
C1428 H1419 0.929 . S
C1428 C1420 1.378 . S
C1428 C1423 1.350 . S
C1429 H1416 0.929 . S
C1429 C1421 1.433 . S
C1429 N1431 1.384 . S
N1430 C1426 1.427 . S
N1430 C1427 1.384 . S
N1431 C1423 1.427 . S
N1431 C1429 1.384 . S
H1432 C1438 0.930 . S
H1433 C1442 0.930 . S
H1434 C1447 0.929 . S
H1435 C1445 0.929 . S
H1436 C1440 0.929 . S
H1437 C1446 0.929 . S
C1438 H1432 0.930 . S
C1438 C1439 1.367 . S
C1438 C1446 1.378 . S
C1439 C1438 1.367 . S
C1439 C1447 1.433 . S
C1440 H1436 0.929 . S
C1440 C1442 1.378 1_545 S
C1440 C1444 1.350 . S
C1441 C1444 1.463 . S
C1441 C1446 1.350 . S
C1441 N1449 1.427 . S
C1442 H1433 0.930 . S
C1442 C1440 1.378 1_565 S
C1442 C1443 1.367 . S
C1443 C1442 1.367 . S
C1443 C1445 1.433 . S
C1444 C1440 1.350 . S
C1444 C1441 1.463 . S
C1444 N1448 1.427 . S
C1445 H1435 0.929 . S
C1445 C1443 1.433 . S
C1445 N1448 1.384 1_565 S
C1446 H1437 0.929 . S
C1446 C1438 1.378 . S
C1446 C1441 1.350 . S
C1447 H1434 0.929 . S
C1447 C1439 1.433 . S
C1447 N1449 1.384 . S
N1448 C1444 1.427 . S
N1448 C1445 1.384 1_545 S
N1449 C1441 1.427 . S
N1449 C1447 1.384 . S
H1450 C1456 0.930 . S
H1451 C1460 0.930 . S
H1452 C1465 0.929 . S
H1453 C1463 0.929 1_554 S
H1454 C1458 0.929 . S
H1455 C1464 0.929 . S
C1456 H1450 0.930 . S
C1456 C1457 1.367 . S
C1456 C1464 1.378 . S
C1457 C1456 1.367 . S
C1457 C1465 1.433 . S
C1458 H1454 0.929 . S
C1458 C1460 1.378 . S
C1458 C1462 1.350 . S
C1459 C1462 1.463 . S
C1459 C1464 1.350 . S
C1459 N1467 1.427 . S
C1460 H1451 0.930 . S
C1460 C1458 1.378 . S
C1460 C1461 1.367 . S
C1461 C1460 1.367 . S
C1461 C1463 1.433 . S
C1462 C1458 1.350 . S
C1462 C1459 1.463 . S
C1462 N1466 1.427 . S
C1463 H1453 0.929 1_556 S
C1463 C1461 1.433 . S
C1463 N1466 1.384 . S
C1464 H1455 0.929 . S
C1464 C1456 1.378 . S
C1464 C1459 1.350 . S
C1465 H1452 0.929 . S
C1465 C1457 1.433 . S
C1465 N1467 1.384 . S
N1466 C1462 1.427 . S
N1466 C1463 1.384 . S
N1467 C1459 1.427 . S
N1467 C1465 1.384 . S
H1468 C1474 0.930 . S
H1469 C1478 0.947 . S
H1470 C1483 0.929 . S
H1471 C1481 0.929 . S
H1472 C1476 0.929 . S
H1473 C1482 0.929 . S
C1474 H1468 0.930 . S
C1474 C1475 1.367 . S
C1474 C1482 1.378 . S
C1475 C1474 1.367 . S
C1475 C1483 1.433 . S
C1476 H1472 0.929 . S
C1476 C1478 1.330 1_565 S
C1476 C1480 1.350 . S
C1477 C1480 1.463 . S
C1477 C1482 1.350 . S
C1477 N1485 1.427 . S
C1478 H1469 0.947 . S
C1478 C1476 1.330 1_545 S
C1478 C1479 1.399 . S
C1479 C1478 1.399 . S
C1479 C1481 1.433 . S
C1480 C1476 1.350 . S
C1480 C1477 1.463 . S
C1480 N1484 1.427 . S
C1481 H1471 0.929 . S
C1481 C1479 1.433 . S
C1481 N1484 1.384 1_545 S
C1482 H1473 0.929 . S
C1482 C1474 1.378 . S
C1482 C1477 1.350 . S
C1483 H1470 0.929 . S
C1483 C1475 1.433 . S
C1483 N1485 1.384 . S
N1484 C1480 1.427 . S
N1484 C1481 1.384 1_565 S
N1485 C1477 1.427 . S
N1485 C1483 1.384 . S
H1486 C1492 0.930 . S
H1487 C1496 0.930 . S
H1488 C1501 0.929 . S
H1489 C1499 0.929 . S
H1490 C1494 0.929 . S
H1491 C1500 0.929 . S
C1492 H1486 0.930 . S
C1492 C1493 1.367 . S
C1492 C1500 1.378 . S
C1493 C1492 1.367 . S
C1493 C1501 1.433 . S
C1494 H1490 0.929 . S
C1494 C1496 1.378 . S
C1494 C1498 1.350 . S
C1495 C1498 1.463 . S
C1495 C1500 1.350 . S
C1495 N1503 1.427 . S
C1496 H1487 0.930 . S
C1496 C1494 1.378 . S
C1496 C1497 1.367 . S
C1497 C1496 1.367 . S
C1497 C1499 1.433 . S
C1498 C1494 1.350 . S
C1498 C1495 1.463 . S
C1498 N1502 1.427 . S
C1499 H1489 0.929 . S
C1499 C1497 1.433 . S
C1499 N1502 1.384 . S
C1500 H1491 0.929 . S
C1500 C1492 1.378 . S
C1500 C1495 1.350 . S
C1501 H1488 0.929 . S
C1501 C1493 1.433 . S
C1501 N1503 1.384 . S
N1502 C1498 1.427 . S
N1502 C1499 1.384 . S
N1503 C1495 1.427 . S
N1503 C1501 1.384 . S
H1504 C1510 0.930 . S
H1505 C1514 0.930 . S
H1506 C1519 0.929 . S
H1507 C1517 0.929 . S
H1508 C1512 0.929 . S
H1509 C1518 0.929 . S
C1510 H1504 0.930 . S
C1510 C1511 1.367 . S
C1510 C1518 1.378 . S
C1511 C1510 1.367 . S
C1511 C1519 1.433 . S
C1512 H1508 0.929 . S
C1512 C1514 1.378 . S
C1512 C1516 1.350 . S
C1513 C1516 1.463 . S
C1513 C1518 1.350 . S
C1513 N1521 1.427 . S
C1514 H1505 0.930 . S
C1514 C1512 1.378 . S
C1514 C1515 1.367 . S
C1515 C1514 1.367 . S
C1515 C1517 1.433 . S
C1516 C1512 1.350 . S
C1516 C1513 1.463 . S
C1516 N1520 1.427 . S
C1517 H1507 0.929 . S
C1517 C1515 1.433 . S
C1517 N1520 1.384 . S
C1518 H1509 0.929 . S
C1518 C1510 1.378 . S
C1518 C1513 1.350 . S
C1519 H1506 0.929 . S
C1519 C1511 1.433 . S
C1519 N1521 1.384 . S
N1520 C1516 1.427 . S
N1520 C1517 1.384 . S
N1521 C1513 1.427 . S
N1521 C1519 1.384 . S
H1522 C1528 0.930 . S
H1523 C1532 0.930 . S
H1524 C1537 0.929 . S
H1525 C1535 0.929 . S
H1526 C1530 0.929 . S
H1527 C1536 0.929 . S
C1528 H1522 0.930 . S
C1528 C1529 1.367 . S
C1528 C1536 1.378 . S
C1529 C1528 1.367 . S
C1529 C1537 1.433 . S
C1530 H1526 0.929 . S
C1530 C1532 1.378 . S
C1530 C1534 1.350 . S
C1531 C1534 1.463 1_556 S
C1531 C1536 1.350 . S
C1531 N1539 1.427 . S
C1532 H1523 0.930 . S
C1532 C1530 1.378 . S
C1532 C1533 1.367 . S
C1533 C1532 1.367 . S
C1533 C1535 1.433 . S
C1534 C1530 1.350 . S
C1534 C1531 1.463 1_554 S
C1534 N1538 1.427 . S
C1535 H1525 0.929 . S
C1535 C1533 1.433 . S
C1535 N1538 1.384 . S
C1536 H1527 0.929 . S
C1536 C1528 1.378 . S
C1536 C1531 1.350 . S
C1537 H1524 0.929 . S
C1537 C1529 1.433 . S
C1537 N1539 1.384 . S
N1538 C1534 1.427 . S
N1538 C1535 1.384 . S
N1539 C1531 1.427 . S
N1539 C1537 1.384 . S
H1540 C1546 0.930 . S
H1541 C1550 0.930 . S
H1542 C1555 0.929 . S
H1543 C1553 0.929 . S
H1544 C1548 0.929 . S
H1545 C1554 0.929 . S
C1546 H1540 0.930 . S
C1546 C1547 1.367 . S
C1546 C1554 1.378 . S
C1547 C1546 1.367 . S
C1547 C1555 1.433 . S
C1548 H1544 0.929 . S
C1548 C1550 1.378 . S
C1548 C1552 1.350 . S
C1549 C1552 1.463 . S
C1549 C1554 1.350 . S
C1549 N1557 1.427 . S
C1550 H1541 0.930 . S
C1550 C1548 1.378 . S
C1550 C1551 1.367 . S
C1551 C1550 1.367 . S
C1551 C1553 1.433 . S
C1552 C1548 1.350 . S
C1552 C1549 1.463 . S
C1552 N1556 1.427 . S
C1553 H1543 0.929 . S
C1553 C1551 1.433 . S
C1553 N1556 1.384 . S
C1554 H1545 0.929 . S
C1554 C1546 1.378 . S
C1554 C1549 1.350 . S
C1555 H1542 0.929 . S
C1555 C1547 1.433 . S
C1555 N1557 1.384 . S
N1556 C1552 1.427 . S
N1556 C1553 1.384 . S
N1557 C1549 1.427 . S
N1557 C1555 1.384 . S
H1558 C1564 0.930 . S
H1559 C1568 0.930 . S
H1560 C1573 0.929 . S
H1561 C1571 0.929 . S
H1562 C1566 0.929 . S
H1563 C1572 0.929 . S
C1564 H1558 0.930 . S
C1564 C1565 1.367 . S
C1564 C1572 1.378 . S
C1565 C1564 1.367 . S
C1565 C1573 1.433 1_455 S
C1566 H1562 0.929 . S
C1566 C1568 1.378 . S
C1566 C1570 1.350 . S
C1567 C1570 1.463 1_455 S
C1567 C1572 1.350 . S
C1567 N1575 1.427 1_455 S
C1568 H1559 0.930 . S
C1568 C1566 1.378 . S
C1568 C1569 1.367 . S
C1569 C1568 1.367 . S
C1569 C1571 1.433 1_655 S
C1570 C1566 1.350 . S
C1570 C1567 1.463 1_655 S
C1570 N1574 1.427 1_655 S
C1571 H1561 0.929 . S
C1571 C1569 1.433 1_455 S
C1571 N1574 1.384 . S
C1572 H1563 0.929 . S
C1572 C1564 1.378 . S
C1572 C1567 1.350 . S
C1573 H1560 0.929 . S
C1573 C1565 1.433 1_655 S
C1573 N1575 1.384 . S
N1574 C1570 1.427 1_455 S
N1574 C1571 1.384 . S
N1575 C1567 1.427 1_655 S
N1575 C1573 1.384 . S
H1576 C1582 0.930 . S
H1577 C1586 0.930 . S
H1578 C1591 0.929 . S
H1579 C1589 0.929 . S
H1580 C1584 0.929 . S
H1581 C1590 0.929 . S
C1582 H1576 0.930 . S
C1582 C1583 1.367 . S
C1582 C1590 1.378 . S
C1583 C1582 1.367 . S
C1583 C1591 1.433 . S
C1584 H1580 0.929 . S
C1584 C1586 1.378 . S
C1584 C1588 1.350 . S
C1585 C1588 1.463 . S
C1585 C1590 1.350 . S
C1585 N1593 1.427 . S
C1586 H1577 0.930 . S
C1586 C1584 1.378 . S
C1586 C1587 1.367 . S
C1587 C1586 1.367 . S
C1587 C1589 1.433 . S
C1588 C1584 1.350 . S
C1588 C1585 1.463 . S
C1588 N1592 1.427 . S
C1589 H1579 0.929 . S
C1589 C1587 1.433 . S
C1589 N1592 1.384 . S
C1590 H1581 0.929 . S
C1590 C1582 1.378 . S
C1590 C1585 1.350 . S
C1591 H1578 0.929 . S
C1591 C1583 1.433 . S
C1591 N1593 1.384 . S
N1592 C1588 1.427 . S
N1592 C1589 1.384 . S
N1593 C1585 1.427 . S
N1593 C1591 1.384 . S
H1594 C1600 0.930 . S
H1595 C1604 0.930 . S
H1596 C1609 0.929 . S
H1597 C1607 0.929 . S
H1598 C1602 0.929 . S
H1599 C1608 0.929 . S
C1600 H1594 0.930 . S
C1600 C1601 1.367 . S
C1600 C1608 1.378 . S
C1601 C1600 1.367 . S
C1601 C1609 1.433 . S
C1602 H1598 0.929 . S
C1602 C1604 1.378 . S
C1602 C1606 1.350 . S
C1603 C1606 1.463 . S
C1603 C1608 1.350 . S
C1603 N1611 1.427 . S
C1604 H1595 0.930 . S
C1604 C1602 1.378 . S
C1604 C1605 1.367 . S
C1605 C1604 1.367 . S
C1605 C1607 1.433 . S
C1606 C1602 1.350 . S
C1606 C1603 1.463 . S
C1606 N1610 1.427 . S
C1607 H1597 0.929 . S
C1607 C1605 1.433 . S
C1607 N1610 1.384 . S
C1608 H1599 0.929 . S
C1608 C1600 1.378 . S
C1608 C1603 1.350 . S
C1609 H1596 0.929 . S
C1609 C1601 1.433 . S
C1609 N1611 1.384 . S
N1610 C1606 1.427 . S
N1610 C1607 1.384 . S
N1611 C1603 1.427 . S
N1611 C1609 1.384 . S
H1612 C1618 0.930 . S
H1613 C1622 0.930 . S
H1614 C1627 0.929 . S
H1615 C1625 0.929 . S
H1616 C1620 0.929 1_655 S
H1617 C1626 0.929 1_455 S
C1618 H1612 0.930 . S
C1618 C1619 1.367 . S
C1618 C1626 1.378 . S
C1619 C1618 1.367 . S
C1619 C1627 1.433 . S
C1620 H1616 0.929 1_455 S
C1620 C1622 1.378 . S
C1620 C1624 1.350 . S
C1621 C1624 1.463 1_665 S
C1621 C1626 1.350 . S
C1621 N1629 1.427 . S
C1622 H1613 0.930 . S
C1622 C1620 1.378 . S
C1622 C1623 1.367 . S
C1623 C1622 1.367 . S
C1623 C1625 1.433 . S
C1624 C1620 1.350 . S
C1624 C1621 1.463 1_445 S
C1624 N1628 1.427 . S
C1625 H1615 0.929 . S
C1625 C1623 1.433 . S
C1625 N1628 1.384 . S
C1626 H1617 0.929 1_655 S
C1626 C1618 1.378 . S
C1626 C1621 1.350 . S
C1627 H1614 0.929 . S
C1627 C1619 1.433 . S
C1627 N1629 1.384 . S
N1628 C1624 1.427 . S
N1628 C1625 1.384 . S
N1629 C1621 1.427 . S
N1629 C1627 1.384 . S
H1630 C1636 0.930 . S
H1631 C1640 0.930 1_554 S
H1632 C1645 0.929 . S
H1633 C1643 0.929 . S
H1634 C1638 0.929 . S
H1635 C1644 0.929 . S
C1636 H1630 0.930 . S
C1636 C1637 1.367 . S
C1636 C1644 1.378 1_554 S
C1637 C1636 1.367 . S
C1637 C1645 1.433 . S
C1638 H1634 0.929 . S
C1638 C1640 1.378 1_554 S
C1638 C1642 1.350 1_554 S
C1639 C1642 1.463 1_564 S
C1639 C1644 1.350 1_554 S
C1639 N1647 1.427 . S
C1640 H1631 0.930 1_556 S
C1640 C1638 1.378 1_556 S
C1640 C1641 1.367 . S
C1641 C1640 1.367 . S
C1641 C1643 1.433 . S
C1642 C1638 1.350 1_556 S
C1642 C1639 1.463 1_546 S
C1642 N1646 1.427 . S
C1643 H1633 0.929 . S
C1643 C1641 1.433 . S
C1643 N1646 1.384 . S
C1644 H1635 0.929 . S
C1644 C1636 1.378 1_556 S
C1644 C1639 1.350 1_556 S
C1645 H1632 0.929 . S
C1645 C1637 1.433 . S
C1645 N1647 1.384 . S
N1646 C1642 1.427 . S
N1646 C1643 1.384 . S
N1647 C1639 1.427 . S
N1647 C1645 1.384 . S
C503 C2 2.003 . S
C507 C403 1.876 . S
C521 C33 2.003 . S
C525 C186 1.880 . S
C539 C465 1.864 . S
C543 C64 1.998 . S
C557 C124 1.864 . S
C561 C95 1.998 . S
C575 C134 2.002 . S
C579 C303 1.880 . S
C593 C165 2.000 . S
C597 C86 1.867 . S
C611 C196 1.996 1_556 S
C615 C365 1.869 . S
C629 C227 2.001 . S
C633 C24 1.879 . S
C647 C155 1.864 . S
C651 C250 1.998 . S
C665 C281 1.998 . S
C669 C434 1.875 . S
C683 C312 2.002 . S
C687 C217 1.880 . S
C701 C343 1.996 . S
C705 C372 1.869 . S
C719 C55 1.871 . S
C723 C382 2.002 1_556 S
C737 C334 1.879 . S
C741 C413 2.003 . S
C755 C117 1.874 . S
C759 C444 2.003 . S
C773 C272 1.865 . S
C777 C475 1.999 . S
C791 C18 1.679 . S
C795 C11 1.679 . S
C809 C49 1.687 . S
C813 C42 1.687 1_554 S
C827 C73 1.680 . S
C831 C80 1.680 . S
C845 C104 1.684 . S
C849 C111 1.684 1_556 S
C863 C142 1.688 . S
C867 C135 1.688 . S
C881 C166 1.687 . S
C885 C173 1.687 1_556 S
C899 C204 1.686 . S
C903 C197 1.686 . S
C917 C235 1.680 . S
C921 C228 1.680 1_554 S
C935 C266 1.682 . S
C939 C259 1.682 . S
C953 C297 1.681 1_556 S
C957 C290 1.681 . S
C971 C328 1.680 . S
C975 C321 1.680 . S
C989 C359 1.686 . S
C993 C352 1.686 1_554 S
C1007 C390 1.686 . S
C1011 C383 1.686 . S
C1025 C414 1.687 1_554 S
C1029 C421 1.687 . S
C1043 C452 1.681 . S
C1047 C445 1.681 . S
C1061 C476 1.681 . S
C1065 C483 1.681 1_556 S
C1079 C0 0.676 . S
C1083 C396 0.675 . S
C1097 C179 0.620 . S
C1101 C31 0.620 . S
C1115 C62 0.675 . S
C1119 C458 0.675 . S
C1133 C93 0.673 . S
C1137 C241 0.673 . S
C1151 C148 0.628 . S
C1155 C248 0.628 . S
C1169 C210 0.627 . S
C1173 C310 0.626 . S
C1187 C427 0.675 . S
C1191 C279 0.675 . S
C1205 C489 0.626 . S
C1209 C341 0.626 . S
C1223 C103 1.616 . S
C1227 C27 1.824 . S
C1241 C58 1.832 . S
C1245 C10 1.600 . S
C1259 C89 1.833 . S
C1263 C41 1.613 . S
C1277 C120 1.827 . S
C1281 C72 1.622 . S
C1295 C219 1.601 . S
C1299 C125 1.836 . S
C1313 C156 1.833 . S
C1317 C126 1.599 . S
C1331 C157 1.623 . S
C1335 C187 1.825 . S
C1349 C188 1.612 . S
C1353 C218 1.834 . S
C1367 C275 1.829 . S
C1371 C351 1.620 . S
C1385 C306 1.829 . S
C1389 C258 1.620 . S
C1403 C289 1.611 . S
C1407 C337 1.834 . S
C1421 C320 1.622 . S
C1425 C368 1.827 . S
C1439 C373 1.824 . S
C1443 C467 1.621 . S
C1457 C404 1.833 . S
C1461 C374 1.599 . S
C1475 C435 1.823 . S
C1479 C405 1.618 . S
C1493 C436 1.607 . S
C1497 C466 1.835 . S
C1511 C1 0.635 . S
C1515 C399 0.636 . S
C1529 C32 0.607 . S
C1533 C182 0.607 . S
C1547 C461 0.653 . S
C1551 C63 0.653 . S
C1565 C94 0.607 . S
C1569 C244 0.607 . S
C1583 C249 0.612 . S
C1587 C151 0.612 . S
C1601 C311 0.629 . S
C1605 C213 0.630 . S
C1619 C280 0.657 . S
C1623 C430 0.657 . S
C1637 C492 0.647 . S
C1641 C342 0.647 . S
