# Generated by pormake.
# Topology oof, (8)-cn, num edge types: 1
# Building blocks:
#     Node 0, Type 0, BuildingBlock: TAGTUT_clean_sbu_1, # of connection points: 8
#     Node 1, Type 0, BuildingBlock: TAGTUT_clean_sbu_1, # of connection points: 8
#     Node 2, Type 0, BuildingBlock: TAGTUT_clean_sbu_1, # of connection points: 8
#     Node 3, Type 0, BuildingBlock: TAGTUT_clean_sbu_1, # of connection points: 8
#     Edge 4, Type (0, 0), BuildingBlock: FUNLAD_clean_linker_0, # of connection points: 2
#     Edge 5, Type (0, 0), BuildingBlock: FUNLAD_clean_linker_0, # of connection points: 2
#     Edge 6, Type (0, 0), BuildingBlock: FUNLAD_clean_linker_0, # of connection points: 2
#     Edge 7, Type (0, 0), BuildingBlock: FUNLAD_clean_linker_0, # of connection points: 2
#     Edge 8, Type (0, 0), BuildingBlock: FUNLAD_clean_linker_0, # of connection points: 2
#     Edge 9, Type (0, 0), BuildingBlock: FUNLAD_clean_linker_0, # of connection points: 2
#     Edge 10, Type (0, 0), BuildingBlock: FUNLAD_clean_linker_0, # of connection points: 2
#     Edge 11, Type (0, 0), BuildingBlock: FUNLAD_clean_linker_0, # of connection points: 2
#     Edge 12, Type (0, 0), BuildingBlock: FUNLAD_clean_linker_0, # of connection points: 2
#     Edge 13, Type (0, 0), BuildingBlock: FUNLAD_clean_linker_0, # of connection points: 2
#     Edge 14, Type (0, 0), BuildingBlock: FUNLAD_clean_linker_0, # of connection points: 2
#     Edge 15, Type (0, 0), BuildingBlock: FUNLAD_clean_linker_0, # of connection points: 2
#     Edge 16, Type (0, 0), BuildingBlock: FUNLAD_clean_linker_0, # of connection points: 2
#     Edge 17, Type (0, 0), BuildingBlock: FUNLAD_clean_linker_0, # of connection points: 2
#     Edge 18, Type (0, 0), BuildingBlock: FUNLAD_clean_linker_0, # of connection points: 2
#     Edge 19, Type (0, 0), BuildingBlock: FUNLAD_clean_linker_0, # of connection points: 2
# Relax obj value: 0.053
# Max RMSD: 0.156
# Mean RMSD: 0.156
data_MOF--net-oof--node1-TAGTUT_clean_sbu_1--edge1-FUNLAD_clean_linker_0
_symmetry_space_group_name_H-M    P1
_symmetry_Int_Tables_number       1
_symmetry_cell_setting            triclinic
loop_
_symmetry_equiv_pos_as_xyz
'x, y, z'
_cell_length_a     17.830947
_cell_length_b     62.987527
_cell_length_c     21.821038
_cell_angle_alpha  91.457124
_cell_angle_beta   103.3491
_cell_angle_gamma 103.21883
loop_
_atom_site_label
_atom_site_type_symbol
_atom_site_fract_x
_atom_site_fract_y
_atom_site_fract_z
_atom_type_partial_charge
C0 C 0.03882 0.1099 0.46076 0.0
C1 C 0.05466 0.07368 0.30743 0.0
C2 C 0.19049 0.15429 0.23257 0.0
Mg3 Mg 0.94012 0.10008 0.32154 0.0
O4 O 0.00869 0.12672 0.31565 0.0
Mg5 Mg 0.125 0.12855 0.3451 0.0
Mg6 Mg 0.00651 0.13614 0.22908 0.0
O7 O 0.00181 0.14526 0.14202 0.0
Mg8 Mg 0.06378 0.17181 0.12735 0.0
Mg9 Mg 0.88417 0.13822 0.10551 0.0
C10 C 0.8166 0.11984 0.22668 0.0
C11 C 0.93788 0.09233 0.12937 0.0
O12 O 0.09919 0.12011 0.44159 0.0
O13 O 0.9716 0.10112 0.42276 0.0
O14 O 0.1107 0.0909 0.32759 0.0
O15 O -0.01663 0.07498 0.28576 0.0
O16 O 0.82972 0.10639 0.2688 0.0
O17 O 0.87323 0.13257 0.20874 0.0
C18 C 0.09274 0.17731 0.33422 0.0
O19 O 0.04206 0.17158 0.28032 0.0
O20 O 0.12953 0.16403 0.36417 0.0
O21 O 0.91416 0.14393 0.00908 0.0
O22 O 0.04079 0.16372 0.02747 0.0
O23 O 0.87994 0.17457 0.11457 0.0
C24 C 0.97602 0.15289 0.98986 0.0
O25 O 0.00128 0.19689 0.13845 0.0
O26 O 0.17411 0.1681 0.19186 0.0
C27 C 0.92568 0.19384 0.12595 0.0
O28 O 0.1366 0.13891 0.24535 0.0
O29 O -0.01803 0.10127 0.18282 0.0
O30 O 0.89343 0.1026 0.09342 0.0
C31 C 0.02406 0.87021 -0.00123 0.0
C32 C 0.07951 0.83067 0.86155 0.0
C33 C 0.17486 0.90518 0.75957 0.0
Mg34 Mg 0.93645 0.85058 0.86181 0.0
O35 O -0.00598 0.8777 0.84649 0.0
Mg36 Mg 0.11208 0.88603 0.88148 0.0
Mg37 Mg -0.01412 0.88657 0.75897 0.0
O38 O 0.98054 0.89569 0.67194 0.0
Mg39 Mg 0.04542 0.9228 0.66447 0.0
Mg40 Mg 0.86326 0.89243 0.64311 0.0
C41 C 0.80313 0.86681 0.7589 0.0
C42 C 0.90327 0.84461 0.65602 0.0
O43 O 0.08461 0.87994 0.97896 0.0
O44 O 0.96023 0.85869 0.96163 0.0
O45 O 0.12254 0.85028 0.87199 0.0
O46 O 0.00373 0.82663 0.85078 0.0
O47 O 0.82303 0.8532 0.79923 0.0
O48 O 0.85455 0.88248 0.74421 0.0
C49 C 0.05058 0.93081 0.85713 0.0
O50 O 0.00652 0.92146 0.80411 0.0
O51 O 0.09726 0.92112 0.89306 0.0
O52 O 0.88709 0.90059 0.54553 0.0
O53 O 0.01277 0.92095 0.56321 0.0
O54 O 0.87185 0.92986 0.65843 0.0
C55 C 0.94626 0.91125 0.52568 0.0
O56 O -0.00197 0.94717 0.69926 0.0
O57 O 0.15895 0.91834 0.71723 0.0
C58 C 0.92577 0.94758 0.67766 0.0
O59 O 0.12015 0.89172 0.77774 0.0
O60 O 0.95453 0.851 0.70932 0.0
O61 O 0.86366 0.85724 0.62574 0.0
C62 C 0.52213 0.60849 0.44993 0.0
C63 C 0.53997 0.57213 0.29775 0.0
C64 C 0.67092 0.65278 0.2201 0.0
Mg65 Mg 0.4234 0.59797 0.31066 0.0
O66 O 0.49072 0.62483 0.30446 0.0
Mg67 Mg 0.60733 0.62717 0.33364 0.0
Mg68 Mg 0.48728 0.63434 0.21787 0.0
O69 O 0.48129 0.64361 0.13085 0.0
Mg70 Mg 0.54282 0.67021 0.1156 0.0
Mg71 Mg 0.36345 0.63661 0.09562 0.0
C72 C 0.29811 0.61768 0.21697 0.0
C73 C 0.41638 0.59061 0.11801 0.0
O74 O 0.58222 0.61883 0.43061 0.0
O75 O 0.45524 0.59936 0.41198 0.0
O76 O 0.59496 0.58965 0.31679 0.0
O77 O 0.46833 0.57303 0.27536 0.0
O78 O 0.31217 0.60407 0.25844 0.0
O79 O 0.3541 0.63067 0.19897 0.0
C80 C 0.57351 0.6757 0.32256 0.0
O81 O 0.5225 0.66982 0.26891 0.0
O82 O 0.61089 0.66255 0.35252 0.0
O83 O 0.39201 0.64232 -0.00167 0.0
O84 O 0.51879 0.66194 0.01585 0.0
O85 O 0.35947 0.67288 0.10583 0.0
C86 C 0.45367 0.65116 0.97861 0.0
O87 O 0.48035 0.69541 0.12618 0.0
O88 O 0.65387 0.66656 0.17946 0.0
C89 C 0.40485 0.69219 0.11598 0.0
O90 O 0.61749 0.63737 0.23332 0.0
O91 O 0.46231 0.59936 0.17106 0.0
O92 O 0.37176 0.6011 0.08319 0.0
C93 C 0.53611 0.37004 0.01163 0.0
C94 C 0.58385 0.32975 0.87246 0.0
C95 C 0.69407 0.40474 0.77582 0.0
Mg96 Mg 0.44723 0.35206 0.87359 0.0
O97 O 0.50942 0.37879 0.86019 0.0
Mg98 Mg 0.62721 0.38532 0.89574 0.0
Mg99 Mg 0.50449 0.38826 0.77345 0.0
O100 O 0.50213 0.39797 0.68725 0.0
Mg101 Mg 0.57045 0.42464 0.68101 0.0
Mg102 Mg 0.38579 0.39582 0.65729 0.0
C103 C 0.32043 0.37015 0.76998 0.0
C104 C 0.41838 0.34714 0.66795 0.0
O105 O 0.59788 0.37912 0.9924 0.0
O106 O 0.47104 0.35946 0.97386 0.0
O107 O 0.63003 0.34894 0.8846 0.0
O108 O 0.50834 0.32685 0.86035 0.0
O109 O 0.33691 0.35618 0.81011 0.0
O110 O 0.37422 0.38558 0.75726 0.0
C111 C 0.576 0.43165 0.87442 0.0
O112 O 0.53035 0.42317 0.82098 0.0
O113 O 0.61977 0.42091 0.90913 0.0
O114 O 0.41216 0.40407 0.56071 0.0
O115 O 0.53986 0.42298 0.57963 0.0
O116 O 0.39891 0.43336 0.67456 0.0
C117 C 0.47286 0.41404 0.54153 0.0
O118 O 0.52592 0.4499 0.71509 0.0
O119 O 0.68093 0.41843 0.73438 0.0
C120 C 0.45412 0.45083 0.69361 0.0
O121 O 0.63743 0.39171 0.79293 0.0
O122 O 0.469 0.35288 0.72182 0.0
O123 O 0.38149 0.3604 0.6381 0.0
C124 C 0.04544 0.15498 0.90231 0.0
C125 C 0.97515 0.14859 0.92294 0.0
C126 C 0.04755 0.14837 0.84148 0.0
C127 C 0.97935 0.13518 0.80017 0.0
C128 C 0.90804 0.12988 0.81937 0.0
C129 C 0.90595 0.1364 0.88036 0.0
C130 C 0.98036 0.127 0.73648 0.0
C131 C 0.0456 0.12288 0.72258 0.0
C132 C 0.04673 0.11639 0.65748 0.0
C133 C 0.11552 0.12451 0.63643 0.0
C134 C 0.11451 0.12144 0.5727 0.0
C135 C 0.04472 0.10998 0.52927 0.0
H136 H 0.92623 0.09611 0.63076 0.0
C137 C 0.97811 0.10022 0.55162 0.0
C138 C 0.97911 0.10338 0.6152 0.0
H139 H 0.92396 0.09087 0.51968 0.0
H140 H 0.09961 0.16459 0.93364 0.0
H141 H 0.10269 0.15358 0.82718 0.0
H142 H 0.85439 0.12008 0.7878 0.0
H143 H 0.85062 0.13136 0.89456 0.0
H144 H 0.92516 0.12418 0.70018 0.0
H145 H 0.10106 0.12577 0.75855 0.0
H146 H 0.16873 0.13426 0.6686 0.0
H147 H 0.16727 0.12888 0.55717 0.0
C148 C 0.00521 0.9216 0.43428 0.0
C149 C 0.94051 0.9106 0.45709 0.0
C150 C 0.00573 0.91809 0.37114 0.0
C151 C 0.94158 0.90346 0.32971 0.0
C152 C 0.87415 0.89395 0.35103 0.0
C153 C 0.87366 0.89739 0.41434 0.0
C154 C 0.94496 0.89696 0.26512 0.0
C155 C 0.01307 0.89506 0.2514 0.0
C156 C 0.01672 0.88714 0.18813 0.0
C157 C 0.08679 0.89454 0.16812 0.0
C158 C 0.09065 0.88832 0.10733 0.0
C159 C 0.02458 0.87435 0.06576 0.0
H160 H 0.89853 0.86539 0.16288 0.0
C161 C 0.95612 0.86591 0.08732 0.0
C162 C 0.95222 0.87221 0.14792 0.0
H163 H 0.90449 0.85488 0.05688 0.0
H164 H 0.05695 0.93229 0.46563 0.0
H165 H 0.05718 0.92644 0.35533 0.0
H166 H 0.82345 0.88292 0.31949 0.0
H167 H 0.82241 0.88889 0.43021 0.0
H168 H 0.88925 0.89235 0.22934 0.0
H169 H 0.06862 0.89963 0.28741 0.0
H170 H 0.13777 0.90574 0.19885 0.0
H171 H 0.14455 0.895 0.09241 0.0
C172 C 0.52165 0.65408 0.89008 0.0
C173 C 0.45241 0.64676 0.91158 0.0
C174 C 0.52416 0.64748 0.82933 0.0
C175 C 0.45745 0.63338 0.7889 0.0
C176 C 0.3869 0.6271 0.80892 0.0
C177 C 0.38441 0.63362 0.86986 0.0
C178 C 0.45925 0.62523 0.72533 0.0
C179 C 0.52584 0.62219 0.71121 0.0
C180 C 0.52787 0.61571 0.64626 0.0
C181 C 0.59637 0.62432 0.62527 0.0
C182 C 0.59623 0.62103 0.56177 0.0
C183 C 0.52763 0.60887 0.51846 0.0
H184 H 0.40907 0.5944 0.61964 0.0
C185 C 0.46147 0.5987 0.54081 0.0
C186 C 0.46159 0.60207 0.60416 0.0
H187 H 0.40826 0.58882 0.509 0.0
H188 H 0.57483 0.66444 0.92065 0.0
H189 H 0.57848 0.65345 0.8144 0.0
H190 H 0.3343 0.61657 0.77805 0.0
H191 H 0.32989 0.62782 0.88473 0.0
H192 H 0.40361 0.62155 0.68935 0.0
H193 H 0.58162 0.62591 0.74699 0.0
H194 H 0.64863 0.63456 0.65729 0.0
H195 H 0.64862 0.62884 0.54627 0.0
C196 C 0.46732 0.36728 0.09968 0.0
C197 C 0.53742 0.37388 0.07888 0.0
C198 C 0.46553 0.37352 0.16093 0.0
C199 C 0.53387 0.38652 0.20254 0.0
C200 C 0.60506 0.39197 0.18316 0.0
C201 C 0.60683 0.38584 0.12174 0.0
C202 C 0.53299 0.3945 0.2665 0.0
C203 C 0.46792 0.39872 0.28054 0.0
C204 C 0.467 0.40556 0.34549 0.0
C205 C 0.39755 0.39815 0.36628 0.0
C206 C 0.39797 0.40188 0.42966 0.0
C207 C 0.46784 0.41331 0.47305 0.0
H208 H 0.58846 0.42523 0.37231 0.0
C209 C 0.53538 0.4223 0.45089 0.0
C210 C 0.53497 0.41847 0.38766 0.0
H211 H 0.58973 0.43157 0.48276 0.0
H212 H 0.413 0.35783 0.06817 0.0
H213 H 0.41047 0.36819 0.17529 0.0
H214 H 0.65882 0.40164 0.21491 0.0
H215 H 0.66203 0.39102 0.10744 0.0
H216 H 0.58824 0.39728 0.30272 0.0
H217 H 0.41248 0.39589 0.24457 0.0
H218 H 0.34406 0.3885 0.33418 0.0
H219 H 0.34456 0.39499 0.44501 0.0
C220 C 0.67398 0.10951 0.2278 0.0
C221 C 0.73606 0.12346 0.20822 0.0
C222 C 0.6046 0.11603 0.22783 0.0
C223 C 0.5962 0.13657 0.20805 0.0
C224 C 0.65389 0.14935 0.18153 0.0
C225 C 0.72376 0.14289 0.1819 0.0
C226 C 0.52929 0.14525 0.21705 0.0
C227 C 0.50045 0.14173 0.26869 0.0
C228 C 0.42795 0.14819 0.27423 0.0
C229 C 0.4103 0.16735 0.2498 0.0
C230 C 0.33403 0.17047 0.24198 0.0
C231 C 0.2745 0.15444 0.25826 0.0
H232 H 0.38508 0.11903 0.3185 0.0
C233 C 0.2952 0.1367 0.29006 0.0
C234 C 0.3718 0.13367 0.29825 0.0
H235 H 0.25101 0.12423 0.30411 0.0
H236 H 0.6809 0.09418 0.24701 0.0
H237 H 0.55897 0.10537 0.24563 0.0
H238 H 0.64737 0.16501 0.16456 0.0
H239 H 0.77019 0.15392 0.16608 0.0
H240 H 0.50429 0.15493 0.18085 0.0
H241 H 0.52575 0.13202 0.30467 0.0
H242 H 0.45399 0.1793 0.23352 0.0
H243 H 0.32051 0.18466 0.21899 0.0
C244 C 0.69535 0.8857 0.71889 0.0
C245 C 0.71822 0.86654 0.73826 0.0
C246 C 0.61876 0.88774 0.71738 0.0
C247 C 0.56392 0.87058 0.73469 0.0
C248 C 0.58374 0.85056 0.74655 0.0
C249 C 0.66064 0.84858 0.74882 0.0
C250 C 0.48804 0.87368 0.74481 0.0
C251 C 0.48326 0.89255 0.77218 0.0
C252 C 0.40784 0.89633 0.78144 0.0
C253 C 0.39432 0.91729 0.7746 0.0
C254 C 0.3194 0.9207 0.77288 0.0
C255 C 0.25741 0.90325 0.77922 0.0
H256 H 0.35794 0.8632 0.80167 0.0
C257 C 0.27333 0.88282 0.79287 0.0
C258 C 0.34806 0.87934 0.7937 0.0
H259 H 0.22663 0.8691 0.79807 0.0
H260 H 0.73804 0.89973 0.70964 0.0
H261 H 0.60366 0.90308 0.70541 0.0
H262 H 0.54157 0.83698 0.75855 0.0
H263 H 0.67627 0.83347 0.76282 0.0
H264 H 0.43658 0.85988 0.73232 0.0
H265 H 0.53531 0.90621 0.78479 0.0
H266 H 0.44018 0.93071 0.7664 0.0
H267 H 0.30877 0.93667 0.76292 0.0
C268 C 0.77636 0.63571 0.27914 0.0
C269 C 0.75512 0.65304 0.24548 0.0
C270 C 0.85308 0.63273 0.28793 0.0
C271 C 0.90884 0.64687 0.2626 0.0
C272 C 0.89061 0.66566 0.23594 0.0
C273 C 0.81422 0.66875 0.22756 0.0
C274 C 0.98162 0.64034 0.25825 0.0
C275 C 0.01001 0.64306 0.20621 0.0
C276 C 0.07722 0.63428 0.19845 0.0
C277 C 0.13348 0.64646 0.16948 0.0
C278 C 0.20337 0.63999 0.17014 0.0
C279 C 0.21724 0.62113 0.19928 0.0
H280 H 0.04255 0.60397 0.24117 0.0
C281 C 0.15655 0.60769 0.22169 0.0
C282 C 0.08712 0.61423 0.2214 0.0
H283 H 0.16457 0.59278 0.24316 0.0
H284 H 0.73255 0.6235 0.29444 0.0
H285 H 0.86677 0.61838 0.30983 0.0
H286 H 0.93397 0.67733 0.21849 0.0
H287 H 0.8003 0.68262 0.20301 0.0
H288 H 0.00749 0.63121 0.29566 0.0
H289 H -0.0157 0.65215 0.16863 0.0
H290 H 0.12578 0.66171 0.15005 0.0
H291 H 0.24854 0.65057 0.15192 0.0
C292 C 0.83692 0.41551 0.77552 0.0
C293 C 0.77501 0.40145 0.795 0.0
C294 C 0.90699 0.40925 0.77641 0.0
C295 C 0.91622 0.38886 0.79703 0.0
C296 C 0.85867 0.37603 0.82356 0.0
C297 C 0.78813 0.38223 0.82228 0.0
C298 C -0.01648 0.38031 0.78842 0.0
C299 C 0.01183 0.3836 0.73648 0.0
C300 C 0.08384 0.37693 0.73064 0.0
C301 C 0.13973 0.39121 0.70576 0.0
C302 C 0.21592 0.38794 0.71322 0.0
C303 C 0.23645 0.37021 0.74515 0.0
H304 H 0.05761 0.346 0.77223 0.0
C305 C 0.17702 0.35441 0.76237 0.0
C306 C 0.10118 0.35778 0.75529 0.0
H307 H 0.19037 0.34023 0.78551 0.0
H308 H 0.8294 0.4307 0.75565 0.0
H309 H 0.95248 0.41995 0.75855 0.0
H310 H 0.86582 0.3605 0.84115 0.0
H311 H 0.74192 0.37116 0.8382 0.0
H312 H 0.00887 0.37078 0.82491 0.0
H313 H -0.0138 0.39316 0.70019 0.0
H314 H 0.12665 0.40585 0.68531 0.0
H315 H 0.26 0.40023 0.69843 0.0
C316 C 0.38737 0.32286 0.57016 0.0
C317 C 0.39987 0.32494 0.63628 0.0
C318 C 0.35111 0.30274 0.53577 0.0
C319 C 0.32545 0.28416 0.56667 0.0
C320 C 0.34374 0.28585 0.6333 0.0
C321 C 0.38057 0.30614 0.66799 0.0
C322 C 0.27896 0.26299 0.53072 0.0
C323 C 0.23288 0.26149 0.47117 0.0
C324 C 0.18629 0.24032 0.43527 0.0
C325 C 0.16807 0.2386 0.36865 0.0
C326 C 0.13104 0.2183 0.33402 0.0
C327 C 0.11149 0.19953 0.36581 0.0
H328 H 0.16946 0.22255 0.51708 0.0
C329 C 0.12396 0.20165 0.43191 0.0
C330 C 0.16041 0.22177 0.46624 0.0
H331 H 0.10845 0.18742 0.45752 0.0
H332 H 0.4027 0.33712 0.54461 0.0
H333 H 0.34203 0.302 0.48493 0.0
H334 H 0.32604 0.27166 0.65841 0.0
H335 H 0.38914 0.30735 0.71887 0.0
H336 H 0.28173 0.24829 0.55514 0.0
H337 H 0.23011 0.27618 0.44673 0.0
H338 H 0.18593 0.25275 0.34349 0.0
H339 H 0.12252 0.21706 0.28315 0.0
C340 C 0.70276 0.31409 0.90765 0.0
C341 C 0.61978 0.31071 0.88598 0.0
C342 C 0.73639 0.29749 0.93485 0.0
C343 C 0.68786 0.27703 0.94096 0.0
C344 C 0.60569 0.27306 0.9146 0.0
C345 C 0.57189 0.28972 0.88772 0.0
C346 C 0.72054 0.25955 0.97466 0.0
C347 C 0.78798 0.26364 0.0214 0.0
C348 C 0.82075 0.2462 0.05527 0.0
C349 C 0.90281 0.25032 0.08227 0.0
C350 C 0.93681 0.23377 0.10968 0.0
C351 C 0.88923 0.21273 0.11134 0.0
H352 H 0.70862 0.2221 0.04357 0.0
C353 C 0.80629 0.20918 0.08884 0.0
C354 C 0.77246 0.22567 0.0611 0.0
H355 H 0.76743 0.19329 0.08996 0.0
H356 H 0.74185 0.32992 0.90639 0.0
H357 H 0.80028 0.30092 0.95183 0.0
H358 H 0.56696 0.25731 0.91739 0.0
H359 H 0.50788 0.28643 0.87135 0.0
H360 H 0.68612 0.24281 0.96146 0.0
H361 H 0.8223 0.28039 0.0346 0.0
H362 H 0.94135 0.26612 0.07969 0.0
H363 H 0.00077 0.2372 0.12667 0.0
C364 C 0.60312 0.70019 0.41965 0.0
C365 C 0.59233 0.69797 0.35372 0.0
C366 C 0.64106 0.72022 0.45412 0.0
C367 C 0.67014 0.73854 0.42349 0.0
C368 C 0.65349 0.73677 0.35691 0.0
C369 C 0.61502 0.71658 0.32215 0.0
C370 C 0.71864 0.75948 0.45966 0.0
C371 C 0.76334 0.76068 0.5196 0.0
C372 C 0.81136 0.78165 0.55585 0.0
C373 C 0.82681 0.78349 0.62236 0.0
C374 C 0.86413 0.80375 0.65705 0.0
C375 C 0.88693 0.82235 0.62547 0.0
H376 H 0.83377 0.79903 0.47465 0.0
C377 C 0.87763 0.82005 0.55972 0.0
C378 C 0.84077 0.79995 0.5253 0.0
H379 H 0.89533 0.83418 0.53434 0.0
H380 H 0.58543 0.68607 0.44505 0.0
H381 H 0.64892 0.72108 0.50486 0.0
H382 H 0.67387 0.75076 0.33198 0.0
H383 H 0.60802 0.71523 0.27144 0.0
H384 H 0.71854 0.77426 0.43516 0.0
H385 H 0.76346 0.74592 0.54415 0.0
H386 H 0.80614 0.76951 0.64723 0.0
H387 H 0.86991 0.80517 0.70761 0.0
C388 C 0.40715 0.73002 0.08133 0.0
C389 C 0.36679 0.71079 0.10244 0.0
C390 C 0.36581 0.74516 0.05344 0.0
C391 C 0.28317 0.74144 0.04643 0.0
C392 C 0.24432 0.72314 0.07219 0.0
C393 C 0.28535 0.70791 0.09938 0.0
C394 C 0.23516 0.756 0.01224 0.0
C395 C 0.25564 0.76824 0.96601 0.0
C396 C 0.20682 0.78259 0.93171 0.0
C397 C 0.24497 0.80144 0.90777 0.0
C398 C 0.20244 0.81636 0.88046 0.0
C399 C 0.12026 0.81259 0.87542 0.0
H400 H 0.09161 0.76324 0.93817 0.0
C401 C 0.08094 0.79284 0.8947 0.0
C402 C 0.12372 0.77803 0.92272 0.0
H403 H 0.01773 0.78936 0.89153 0.0
H404 H 0.46982 0.73278 0.0829 0.0
H405 H 0.39863 0.7595 0.03653 0.0
H406 H 0.18107 0.72004 0.06864 0.0
H407 H 0.25238 0.69334 0.1154 0.0
H408 H 0.17941 0.75594 0.0244 0.0
H409 H 0.31144 0.76842 0.95382 0.0
H410 H 0.30862 0.80517 0.91284 0.0
H411 H 0.23467 0.83134 0.86587 0.0
C412 C 0.89921 0.06047 0.04662 0.0
C413 C 0.94685 0.07095 0.10503 0.0
C414 C 0.91496 0.04195 0.01991 0.0
C415 C 0.97898 0.03348 0.05102 0.0
C416 C 0.02431 0.04343 0.11044 0.0
C417 C 0.00908 0.062 0.13675 0.0
C418 C 0.00059 0.01437 0.02374 0.0
C419 C -0.01742 1.0082 0.96129 0.0
C420 C 0.005 0.98919 0.93428 0.0
C421 C 0.9594 0.97886 0.87535 0.0
C422 C 0.9759 0.96041 0.84939 0.0
C423 C 0.03964 0.952 0.88101 0.0
H424 H 0.1089 0.98915 0.00962 0.0
C425 C 0.08743 0.96288 0.93887 0.0
C426 C 0.07045 0.98125 0.96519 0.0
H427 H 0.13711 0.95694 0.96462 0.0
H428 H 0.85072 0.06685 0.02074 0.0
H429 H 0.87678 0.0344 0.97502 0.0
H430 H 0.07363 0.03724 0.13583 0.0
H431 H 0.04845 0.06984 0.18083 0.0
H432 H 0.03461 1.00547 0.05683 0.0
H433 H 0.94838 0.01704 0.92811 0.0
H434 H 0.90904 0.98465 0.8501 0.0
H435 H 0.93654 0.95227 0.80565 0.0
C436 C 0.10908 0.05423 0.39797 0.0
C437 C 0.06281 0.05297 0.33565 0.0
C438 C 0.08773 0.03843 0.43868 0.0
C439 C 0.0211 0.02082 0.41725 0.0
C440 C -0.01651 0.01766 0.35256 0.0
C441 C 0.00394 0.03366 0.312 0.0
C442 C -0.01345 1.00646 0.46172 0.0
C443 C -0.01473 0.01408 0.51985 0.0
C444 C 0.95176 0.99975 0.56487 0.0
C445 C -0.01104 1.00354 0.6296 0.0
C446 C 0.9705 0.98767 0.67104 0.0
C447 C 0.91411 0.96786 0.64822 0.0
H448 H 0.85449 0.97875 0.49506 0.0
C449 C 0.86772 0.96588 0.58573 0.0
C450 C 0.88707 0.98157 0.54415 0.0
H451 H 0.82325 0.95095 0.56651 0.0
H452 H 0.15535 0.06874 0.41783 0.0
H453 H 0.12045 0.04073 0.48774 0.0
H454 H 0.93346 1.00383 0.33452 0.0
H455 H 0.96765 0.03213 0.2641 0.0
H456 H 0.95799 0.98951 0.44478 0.0
H457 H 0.01381 0.03105 0.53657 0.0
H458 H 0.03742 0.0178 0.6471 0.0
H459 H 0.00679 0.98977 0.71906 0.0
C460 C 0.48783 0.56044 0.11818 0.0
C461 C 0.42265 0.56917 0.09204 0.0
C462 C 0.50046 0.54213 0.0879 0.0
C463 C 0.44811 0.53211 0.03056 0.0
C464 C 0.38081 0.54014 0.00639 0.0
C465 C 0.36846 0.5585 0.0364 0.0
C466 C 0.46097 0.51327 0.99465 0.0
C467 C 0.53279 0.50898 -0.00114 0.0
C468 C 0.54546 0.49015 0.96282 0.0
C469 C 0.61193 0.48181 0.98737 0.0
C470 C 0.62394 0.46344 0.95711 0.0
C471 C 0.57029 0.45309 0.90085 0.0
H472 H 0.44339 0.48681 0.88305 0.0
C473 C 0.50604 0.46214 0.87437 0.0
C474 C 0.49371 0.48045 0.90492 0.0
H475 H 0.46336 0.45462 0.83122 0.0
H476 H 0.53099 0.56823 0.16081 0.0
H477 H 0.5515 0.53602 0.10953 0.0
H478 H 0.33875 0.5326 0.9629 0.0
H479 H 0.31746 0.56469 0.01492 0.0
H480 H 0.409 0.50294 0.96236 0.0
H481 H 0.5848 0.51927 0.03118 0.0
H482 H 0.65353 0.48911 0.03131 0.0
H483 H 0.67423 0.457 0.97885 0.0
C484 C 0.39042 0.4693 0.60384 0.0
C485 C 0.44369 0.47116 0.66359 0.0
C486 C 0.4055 0.4845 0.55994 0.0
C487 C 0.47297 0.50211 0.57555 0.0
C488 C 0.51838 0.5059 0.63829 0.0
C489 C 0.5041 0.49051 0.682 0.0
C490 C 0.50014 0.51589 0.52686 0.0
C491 C 0.49178 0.50781 0.46701 0.0
C492 C 0.51925 0.52152 0.41827 0.0
C493 C 0.47466 0.51745 0.35529 0.0
C494 C 0.48954 0.53261 0.31113 0.0
C495 C 0.54976 0.55201 0.32927 0.0
H496 H 0.62451 0.54218 0.48125 0.0
C497 C 0.60211 0.55418 0.38955 0.0
C498 C 0.58643 0.53921 0.43388 0.0
H499 H 0.6498 0.56873 0.40523 0.0
H500 H 0.34253 0.4548 0.58802 0.0
H501 H 0.36685 0.48174 0.51279 0.0
H502 H 0.5693 0.51975 0.65205 0.0
H503 H 0.54568 0.49259 0.72785 0.0
H504 H 0.53163 0.5328 0.54181 0.0
H505 H 0.46032 0.4909 0.45213 0.0
H506 H 0.42399 0.50353 0.34155 0.0
H507 H 0.44861 0.5303 0.26493 0.0
loop_
_geom_bond_atom_site_label_1
_geom_bond_atom_site_label_2
_geom_bond_distance
_geom_bond_site_symmetry_2
_ccdc_geom_bond_type
C0 O12 1.241 . S
C0 O13 1.280 1_455 S
C1 O14 1.277 . S
C1 O15 1.245 1_455 S
C2 O26 1.247 . S
C2 O28 1.289 . S
Mg3 O4 1.926 1_655 S
Mg3 O13 1.984 . S
Mg3 O15 1.988 . S
Mg3 O16 2.061 . S
O4 Mg3 1.926 1_455 S
O4 Mg5 1.986 . S
O4 Mg6 1.917 . S
Mg5 O4 1.986 . S
Mg5 O12 2.042 . S
Mg5 O14 2.041 . S
Mg5 O20 2.038 . S
Mg5 O28 2.238 . S
Mg6 O4 1.917 . S
Mg6 O7 1.917 . S
Mg6 O17 2.106 1_455 S
Mg6 O19 2.079 . S
Mg6 O28 2.106 . S
Mg6 O29 2.079 1_455 S
O7 Mg6 1.917 . S
O7 Mg8 1.926 . S
O7 Mg9 1.986 1_455 S
Mg8 O7 1.926 . S
Mg8 O22 1.984 . S
Mg8 O25 1.988 . S
Mg8 O26 2.061 . S
Mg9 O7 1.986 1_655 S
Mg9 O17 2.238 . S
Mg9 O21 2.042 . S
Mg9 O23 2.041 . S
Mg9 O30 2.038 . S
C10 O16 1.247 . S
C10 O17 1.289 . S
C11 O29 1.245 . S
C11 O30 1.274 . S
O12 C0 1.241 . S
O12 Mg5 2.042 . S
O13 C0 1.280 1_655 S
O13 Mg3 1.984 . S
O14 C1 1.277 . S
O14 Mg5 2.041 . S
O15 C1 1.245 1_655 S
O15 Mg3 1.988 . S
O16 Mg3 2.061 . S
O16 C10 1.247 . S
O17 Mg6 2.106 1_655 S
O17 Mg9 2.238 . S
O17 C10 1.289 . S
C18 O19 1.245 . S
C18 O20 1.274 . S
O19 Mg6 2.079 . S
O19 C18 1.245 . S
O20 Mg5 2.038 . S
O20 C18 1.274 . S
O21 Mg9 2.042 . S
O21 C24 1.241 1_655 S
O22 Mg8 1.984 . S
O22 C24 1.280 . S
O23 Mg9 2.041 . S
O23 C27 1.277 . S
C24 O21 1.241 1_455 S
C24 O22 1.280 . S
O25 Mg8 1.988 . S
O25 C27 1.245 1_455 S
O26 C2 1.247 . S
O26 Mg8 2.061 . S
C27 O23 1.277 . S
C27 O25 1.245 1_655 S
O28 C2 1.289 . S
O28 Mg5 2.238 . S
O28 Mg6 2.106 . S
O29 Mg6 2.079 1_655 S
O29 C11 1.245 . S
O30 Mg9 2.038 . S
O30 C11 1.274 . S
C31 O43 1.241 . S
C31 O44 1.280 1_455 S
C32 O45 1.277 . S
C32 O46 1.245 1_455 S
C33 O57 1.247 . S
C33 O59 1.289 . S
Mg34 O35 1.926 1_655 S
Mg34 O44 1.984 . S
Mg34 O46 1.988 . S
Mg34 O47 2.061 . S
O35 Mg34 1.926 1_455 S
O35 Mg36 1.986 . S
O35 Mg37 1.917 . S
Mg36 O35 1.986 . S
Mg36 O43 2.042 . S
Mg36 O45 2.041 . S
Mg36 O51 2.038 . S
Mg36 O59 2.238 . S
Mg37 O35 1.917 . S
Mg37 O38 1.917 . S
Mg37 O48 2.106 1_455 S
Mg37 O50 2.079 . S
Mg37 O59 2.106 . S
Mg37 O60 2.079 1_455 S
O38 Mg37 1.917 . S
O38 Mg39 1.926 . S
O38 Mg40 1.986 1_455 S
Mg39 O38 1.926 . S
Mg39 O53 1.984 . S
Mg39 O56 1.988 . S
Mg39 O57 2.061 . S
Mg40 O38 1.986 1_655 S
Mg40 O48 2.238 . S
Mg40 O52 2.042 . S
Mg40 O54 2.041 . S
Mg40 O61 2.038 . S
C41 O47 1.247 . S
C41 O48 1.289 . S
C42 O60 1.245 . S
C42 O61 1.274 . S
O43 C31 1.241 . S
O43 Mg36 2.042 . S
O44 C31 1.280 1_655 S
O44 Mg34 1.984 . S
O45 C32 1.277 . S
O45 Mg36 2.041 . S
O46 C32 1.245 1_655 S
O46 Mg34 1.988 . S
O47 Mg34 2.061 . S
O47 C41 1.247 . S
O48 Mg37 2.106 1_655 S
O48 Mg40 2.238 . S
O48 C41 1.289 . S
C49 O50 1.245 . S
C49 O51 1.274 . S
O50 Mg37 2.079 . S
O50 C49 1.245 . S
O51 Mg36 2.038 . S
O51 C49 1.274 . S
O52 Mg40 2.042 . S
O52 C55 1.241 1_655 S
O53 Mg39 1.984 . S
O53 C55 1.280 . S
O54 Mg40 2.041 . S
O54 C58 1.277 . S
C55 O52 1.241 1_455 S
C55 O53 1.280 . S
O56 Mg39 1.988 . S
O56 C58 1.245 1_455 S
O57 C33 1.247 . S
O57 Mg39 2.061 . S
C58 O54 1.277 . S
C58 O56 1.245 1_655 S
O59 C33 1.289 . S
O59 Mg36 2.238 . S
O59 Mg37 2.106 . S
O60 Mg37 2.079 1_655 S
O60 C42 1.245 . S
O61 Mg40 2.038 . S
O61 C42 1.274 . S
C62 O74 1.241 . S
C62 O75 1.280 . S
C63 O76 1.277 . S
C63 O77 1.245 . S
C64 O88 1.247 . S
C64 O90 1.289 . S
Mg65 O66 1.926 . S
Mg65 O75 1.984 . S
Mg65 O77 1.988 . S
Mg65 O78 2.061 . S
O66 Mg65 1.926 . S
O66 Mg67 1.986 . S
O66 Mg68 1.917 . S
Mg67 O66 1.986 . S
Mg67 O74 2.042 . S
Mg67 O76 2.041 . S
Mg67 O82 2.038 . S
Mg67 O90 2.238 . S
Mg68 O66 1.917 . S
Mg68 O69 1.917 . S
Mg68 O79 2.106 . S
Mg68 O81 2.079 . S
Mg68 O90 2.106 . S
Mg68 O91 2.079 . S
O69 Mg68 1.917 . S
O69 Mg70 1.926 . S
O69 Mg71 1.986 . S
Mg70 O69 1.926 . S
Mg70 O84 1.984 . S
Mg70 O87 1.988 . S
Mg70 O88 2.061 . S
Mg71 O69 1.986 . S
Mg71 O79 2.238 . S
Mg71 O83 2.042 . S
Mg71 O85 2.041 . S
Mg71 O92 2.038 . S
C72 O78 1.247 . S
C72 O79 1.289 . S
C73 O91 1.245 . S
C73 O92 1.274 . S
O74 C62 1.241 . S
O74 Mg67 2.042 . S
O75 C62 1.280 . S
O75 Mg65 1.984 . S
O76 C63 1.277 . S
O76 Mg67 2.041 . S
O77 C63 1.245 . S
O77 Mg65 1.988 . S
O78 Mg65 2.061 . S
O78 C72 1.247 . S
O79 Mg68 2.106 . S
O79 Mg71 2.238 . S
O79 C72 1.289 . S
C80 O81 1.245 . S
C80 O82 1.274 . S
O81 Mg68 2.079 . S
O81 C80 1.245 . S
O82 Mg67 2.038 . S
O82 C80 1.274 . S
O83 Mg71 2.042 . S
O83 C86 1.241 . S
O84 Mg70 1.984 . S
O84 C86 1.280 . S
O85 Mg71 2.041 . S
O85 C89 1.277 . S
C86 O83 1.241 . S
C86 O84 1.280 . S
O87 Mg70 1.988 . S
O87 C89 1.245 . S
O88 C64 1.247 . S
O88 Mg70 2.061 . S
C89 O85 1.277 . S
C89 O87 1.245 . S
O90 C64 1.289 . S
O90 Mg67 2.238 . S
O90 Mg68 2.106 . S
O91 Mg68 2.079 . S
O91 C73 1.245 . S
O92 Mg71 2.038 . S
O92 C73 1.274 . S
C93 O105 1.241 . S
C93 O106 1.280 . S
C94 O107 1.277 . S
C94 O108 1.245 . S
C95 O119 1.247 . S
C95 O121 1.289 . S
Mg96 O97 1.926 . S
Mg96 O106 1.984 . S
Mg96 O108 1.988 . S
Mg96 O109 2.061 . S
O97 Mg96 1.926 . S
O97 Mg98 1.986 . S
O97 Mg99 1.917 . S
Mg98 O97 1.986 . S
Mg98 O105 2.042 . S
Mg98 O107 2.041 . S
Mg98 O113 2.038 . S
Mg98 O121 2.238 . S
Mg99 O97 1.917 . S
Mg99 O100 1.917 . S
Mg99 O110 2.106 . S
Mg99 O112 2.079 . S
Mg99 O121 2.106 . S
Mg99 O122 2.079 . S
O100 Mg99 1.917 . S
O100 Mg101 1.926 . S
O100 Mg102 1.986 . S
Mg101 O100 1.926 . S
Mg101 O115 1.984 . S
Mg101 O118 1.988 . S
Mg101 O119 2.061 . S
Mg102 O100 1.986 . S
Mg102 O110 2.238 . S
Mg102 O114 2.042 . S
Mg102 O116 2.041 . S
Mg102 O123 2.038 . S
C103 O109 1.247 . S
C103 O110 1.289 . S
C104 O122 1.245 . S
C104 O123 1.274 . S
O105 C93 1.241 . S
O105 Mg98 2.042 . S
O106 C93 1.280 . S
O106 Mg96 1.984 . S
O107 C94 1.277 . S
O107 Mg98 2.041 . S
O108 C94 1.245 . S
O108 Mg96 1.988 . S
O109 Mg96 2.061 . S
O109 C103 1.247 . S
O110 Mg99 2.106 . S
O110 Mg102 2.238 . S
O110 C103 1.289 . S
C111 O112 1.245 . S
C111 O113 1.274 . S
O112 Mg99 2.079 . S
O112 C111 1.245 . S
O113 Mg98 2.038 . S
O113 C111 1.274 . S
O114 Mg102 2.042 . S
O114 C117 1.241 . S
O115 Mg101 1.984 . S
O115 C117 1.280 . S
O116 Mg102 2.041 . S
O116 C120 1.277 . S
C117 O114 1.241 . S
C117 O115 1.280 . S
O118 Mg101 1.988 . S
O118 C120 1.245 . S
O119 C95 1.247 . S
O119 Mg101 2.061 . S
C120 O116 1.277 . S
C120 O118 1.245 . S
O121 C95 1.289 . S
O121 Mg98 2.238 . S
O121 Mg99 2.106 . S
O122 Mg99 2.079 . S
O122 C104 1.245 . S
O123 Mg102 2.038 . S
O123 C104 1.274 . S
C124 C125 1.386 . S
C124 C126 1.383 . S
C124 H140 0.951 . S
C125 C124 1.386 . S
C125 C129 1.383 1_455 S
C126 C124 1.383 . S
C126 C127 1.402 . S
C126 H141 0.951 . S
C127 C126 1.402 . S
C127 C128 1.375 1_455 S
C127 C130 1.481 1_455 S
C128 C127 1.375 1_655 S
C128 C129 1.367 . S
C128 H142 0.951 . S
C129 C125 1.383 1_655 S
C129 C128 1.367 . S
C129 H143 0.950 . S
C130 C127 1.481 1_655 S
C130 C131 1.297 1_655 S
C130 H144 0.950 . S
C131 C130 1.297 1_455 S
C131 C132 1.479 . S
C131 H145 0.950 . S
C132 C131 1.479 . S
C132 C133 1.375 . S
C132 C138 1.404 1_455 S
C133 C132 1.375 . S
C133 C134 1.369 . S
C133 H146 0.950 . S
C134 C133 1.369 . S
C134 C135 1.392 . S
C134 H147 0.951 . S
C135 C134 1.392 . S
C135 C137 1.384 1_455 S
H136 C138 0.949 . S
C137 C135 1.384 1_655 S
C137 C138 1.385 . S
C137 H139 0.950 . S
C138 C132 1.404 1_655 S
C138 H136 0.949 . S
C138 C137 1.385 . S
H139 C137 0.950 . S
H140 C124 0.951 . S
H141 C126 0.951 . S
H142 C128 0.951 . S
H143 C129 0.950 . S
H144 C130 0.950 . S
H145 C131 0.950 . S
H146 C133 0.950 . S
H147 C134 0.951 . S
C148 C149 1.386 . S
C148 C150 1.383 . S
C148 H164 0.951 . S
C149 C148 1.386 . S
C149 C153 1.383 1_455 S
C150 C148 1.383 . S
C150 C151 1.402 . S
C150 H165 0.951 . S
C151 C150 1.402 . S
C151 C152 1.375 1_455 S
C151 C154 1.481 . S
C152 C151 1.375 1_655 S
C152 C153 1.367 . S
C152 H166 0.951 . S
C153 C149 1.383 1_655 S
C153 C152 1.367 . S
C153 H167 0.950 . S
C154 C151 1.481 . S
C154 C155 1.297 . S
C154 H168 0.950 1_455 S
C155 C154 1.297 . S
C155 C156 1.479 . S
C155 H169 0.950 . S
C156 C155 1.479 . S
C156 C157 1.375 . S
C156 C162 1.404 1_455 S
C157 C156 1.375 . S
C157 C158 1.369 . S
C157 H170 0.950 . S
C158 C157 1.369 . S
C158 C159 1.392 . S
C158 H171 0.951 . S
C159 C158 1.392 . S
C159 C161 1.384 1_455 S
H160 C162 0.949 . S
C161 C159 1.384 1_655 S
C161 C162 1.385 . S
C161 H163 0.950 . S
C162 C156 1.404 1_655 S
C162 H160 0.949 . S
C162 C161 1.385 . S
H163 C161 0.950 . S
H164 C148 0.951 . S
H165 C150 0.951 . S
H166 C152 0.951 . S
H167 C153 0.950 . S
H168 C154 0.950 1_655 S
H169 C155 0.950 . S
H170 C157 0.950 . S
H171 C158 0.951 . S
C172 C173 1.386 . S
C172 C174 1.383 . S
C172 H188 0.951 . S
C173 C172 1.386 . S
C173 C177 1.383 . S
C174 C172 1.383 . S
C174 C175 1.402 . S
C174 H189 0.951 . S
C175 C174 1.402 . S
C175 C176 1.375 . S
C175 C178 1.481 . S
C176 C175 1.375 . S
C176 C177 1.367 . S
C176 H190 0.951 . S
C177 C173 1.383 . S
C177 C176 1.367 . S
C177 H191 0.950 . S
C178 C175 1.481 . S
C178 C179 1.297 . S
C178 H192 0.950 . S
C179 C178 1.297 . S
C179 C180 1.479 . S
C179 H193 0.950 . S
C180 C179 1.479 . S
C180 C181 1.375 . S
C180 C186 1.404 . S
C181 C180 1.375 . S
C181 C182 1.369 . S
C181 H194 0.950 . S
C182 C181 1.369 . S
C182 C183 1.392 . S
C182 H195 0.951 . S
C183 C182 1.392 . S
C183 C185 1.384 . S
H184 C186 0.949 . S
C185 C183 1.384 . S
C185 C186 1.385 . S
C185 H187 0.950 . S
C186 C180 1.404 . S
C186 H184 0.949 . S
C186 C185 1.385 . S
H187 C185 0.950 . S
H188 C172 0.951 . S
H189 C174 0.951 . S
H190 C176 0.951 . S
H191 C177 0.950 . S
H192 C178 0.950 . S
H193 C179 0.950 . S
H194 C181 0.950 . S
H195 C182 0.951 . S
C196 C197 1.386 . S
C196 C198 1.383 . S
C196 H212 0.951 . S
C197 C196 1.386 . S
C197 C201 1.383 . S
C198 C196 1.383 . S
C198 C199 1.402 . S
C198 H213 0.951 . S
C199 C198 1.402 . S
C199 C200 1.375 . S
C199 C202 1.481 . S
C200 C199 1.375 . S
C200 C201 1.367 . S
C200 H214 0.951 . S
C201 C197 1.383 . S
C201 C200 1.367 . S
C201 H215 0.950 . S
C202 C199 1.481 . S
C202 C203 1.297 . S
C202 H216 0.950 . S
C203 C202 1.297 . S
C203 C204 1.479 . S
C203 H217 0.950 . S
C204 C203 1.479 . S
C204 C205 1.375 . S
C204 C210 1.404 . S
C205 C204 1.375 . S
C205 C206 1.369 . S
C205 H218 0.950 . S
C206 C205 1.369 . S
C206 C207 1.392 . S
C206 H219 0.951 . S
C207 C206 1.392 . S
C207 C209 1.384 . S
H208 C210 0.949 . S
C209 C207 1.384 . S
C209 C210 1.385 . S
C209 H211 0.950 . S
C210 C204 1.404 . S
C210 H208 0.949 . S
C210 C209 1.385 . S
H211 C209 0.950 . S
H212 C196 0.951 . S
H213 C198 0.951 . S
H214 C200 0.951 . S
H215 C201 0.950 . S
H216 C202 0.950 . S
H217 C203 0.950 . S
H218 C205 0.950 . S
H219 C206 0.951 . S
C220 C221 1.386 . S
C220 C222 1.383 . S
C220 H236 0.951 . S
C221 C220 1.386 . S
C221 C225 1.383 . S
C222 C220 1.383 . S
C222 C223 1.402 . S
C222 H237 0.951 . S
C223 C222 1.402 . S
C223 C224 1.375 . S
C223 C226 1.481 . S
C224 C223 1.375 . S
C224 C225 1.367 . S
C224 H238 0.951 . S
C225 C221 1.383 . S
C225 C224 1.367 . S
C225 H239 0.950 . S
C226 C223 1.481 . S
C226 C227 1.297 . S
C226 H240 0.950 . S
C227 C226 1.297 . S
C227 C228 1.479 . S
C227 H241 0.950 . S
C228 C227 1.479 . S
C228 C229 1.375 . S
C228 C234 1.404 . S
C229 C228 1.375 . S
C229 C230 1.369 . S
C229 H242 0.950 . S
C230 C229 1.369 . S
C230 C231 1.392 . S
C230 H243 0.951 . S
C231 C230 1.392 . S
C231 C233 1.384 . S
H232 C234 0.949 . S
C233 C231 1.384 . S
C233 C234 1.385 . S
C233 H235 0.950 . S
C234 C228 1.404 . S
C234 H232 0.949 . S
C234 C233 1.385 . S
H235 C233 0.950 . S
H236 C220 0.951 . S
H237 C222 0.951 . S
H238 C224 0.951 . S
H239 C225 0.950 . S
H240 C226 0.950 . S
H241 C227 0.950 . S
H242 C229 0.950 . S
H243 C230 0.951 . S
C244 C245 1.386 . S
C244 C246 1.383 . S
C244 H260 0.951 . S
C245 C244 1.386 . S
C245 C249 1.383 . S
C246 C244 1.383 . S
C246 C247 1.402 . S
C246 H261 0.951 . S
C247 C246 1.402 . S
C247 C248 1.375 . S
C247 C250 1.481 . S
C248 C247 1.375 . S
C248 C249 1.367 . S
C248 H262 0.951 . S
C249 C245 1.383 . S
C249 C248 1.367 . S
C249 H263 0.950 . S
C250 C247 1.481 . S
C250 C251 1.297 . S
C250 H264 0.950 . S
C251 C250 1.297 . S
C251 C252 1.479 . S
C251 H265 0.950 . S
C252 C251 1.479 . S
C252 C253 1.375 . S
C252 C258 1.404 . S
C253 C252 1.375 . S
C253 C254 1.369 . S
C253 H266 0.950 . S
C254 C253 1.369 . S
C254 C255 1.392 . S
C254 H267 0.951 . S
C255 C254 1.392 . S
C255 C257 1.384 . S
H256 C258 0.949 . S
C257 C255 1.384 . S
C257 C258 1.385 . S
C257 H259 0.950 . S
C258 C252 1.404 . S
C258 H256 0.949 . S
C258 C257 1.385 . S
H259 C257 0.950 . S
H260 C244 0.951 . S
H261 C246 0.951 . S
H262 C248 0.951 . S
H263 C249 0.950 . S
H264 C250 0.950 . S
H265 C251 0.950 . S
H266 C253 0.950 . S
H267 C254 0.951 . S
C268 C269 1.386 . S
C268 C270 1.383 . S
C268 H284 0.951 . S
C269 C268 1.386 . S
C269 C273 1.383 . S
C270 C268 1.383 . S
C270 C271 1.402 . S
C270 H285 0.951 . S
C271 C270 1.402 . S
C271 C272 1.375 . S
C271 C274 1.481 . S
C272 C271 1.375 . S
C272 C273 1.367 . S
C272 H286 0.951 . S
C273 C269 1.383 . S
C273 C272 1.367 . S
C273 H287 0.950 . S
C274 C271 1.481 . S
C274 C275 1.297 1_655 S
C274 H288 0.950 . S
C275 C274 1.297 1_455 S
C275 C276 1.479 . S
C275 H289 0.950 . S
C276 C275 1.479 . S
C276 C277 1.375 . S
C276 C282 1.404 . S
C277 C276 1.375 . S
C277 C278 1.369 . S
C277 H290 0.950 . S
C278 C277 1.369 . S
C278 C279 1.392 . S
C278 H291 0.951 . S
C279 C278 1.392 . S
C279 C281 1.384 . S
H280 C282 0.949 . S
C281 C279 1.384 . S
C281 C282 1.385 . S
C281 H283 0.950 . S
C282 C276 1.404 . S
C282 H280 0.949 . S
C282 C281 1.385 . S
H283 C281 0.950 . S
H284 C268 0.951 . S
H285 C270 0.951 . S
H286 C272 0.951 . S
H287 C273 0.950 . S
H288 C274 0.950 . S
H289 C275 0.950 . S
H290 C277 0.950 . S
H291 C278 0.951 . S
C292 C293 1.386 . S
C292 C294 1.383 . S
C292 H308 0.951 . S
C293 C292 1.386 . S
C293 C297 1.383 . S
C294 C292 1.383 . S
C294 C295 1.402 . S
C294 H309 0.951 . S
C295 C294 1.402 . S
C295 C296 1.375 . S
C295 C298 1.481 . S
C296 C295 1.375 . S
C296 C297 1.367 . S
C296 H310 0.951 . S
C297 C293 1.383 . S
C297 C296 1.367 . S
C297 H311 0.950 . S
C298 C295 1.481 . S
C298 C299 1.297 1_655 S
C298 H312 0.950 1_655 S
C299 C298 1.297 1_455 S
C299 C300 1.479 . S
C299 H313 0.950 . S
C300 C299 1.479 . S
C300 C301 1.375 . S
C300 C306 1.404 . S
C301 C300 1.375 . S
C301 C302 1.369 . S
C301 H314 0.950 . S
C302 C301 1.369 . S
C302 C303 1.392 . S
C302 H315 0.951 . S
C303 C302 1.392 . S
C303 C305 1.384 . S
H304 C306 0.949 . S
C305 C303 1.384 . S
C305 C306 1.385 . S
C305 H307 0.950 . S
C306 C300 1.404 . S
C306 H304 0.949 . S
C306 C305 1.385 . S
H307 C305 0.950 . S
H308 C292 0.951 . S
H309 C294 0.951 . S
H310 C296 0.951 . S
H311 C297 0.950 . S
H312 C298 0.950 1_455 S
H313 C299 0.950 . S
H314 C301 0.950 . S
H315 C302 0.951 . S
C316 C317 1.386 . S
C316 C318 1.383 . S
C316 H332 0.951 . S
C317 C316 1.386 . S
C317 C321 1.383 . S
C318 C316 1.383 . S
C318 C319 1.402 . S
C318 H333 0.951 . S
C319 C318 1.402 . S
C319 C320 1.375 . S
C319 C322 1.481 . S
C320 C319 1.375 . S
C320 C321 1.367 . S
C320 H334 0.951 . S
C321 C317 1.383 . S
C321 C320 1.367 . S
C321 H335 0.950 . S
C322 C319 1.481 . S
C322 C323 1.297 . S
C322 H336 0.950 . S
C323 C322 1.297 . S
C323 C324 1.479 . S
C323 H337 0.950 . S
C324 C323 1.479 . S
C324 C325 1.375 . S
C324 C330 1.404 . S
C325 C324 1.375 . S
C325 C326 1.369 . S
C325 H338 0.950 . S
C326 C325 1.369 . S
C326 C327 1.392 . S
C326 H339 0.951 . S
C327 C326 1.392 . S
C327 C329 1.384 . S
H328 C330 0.949 . S
C329 C327 1.384 . S
C329 C330 1.385 . S
C329 H331 0.950 . S
C330 C324 1.404 . S
C330 H328 0.949 . S
C330 C329 1.385 . S
H331 C329 0.950 . S
H332 C316 0.951 . S
H333 C318 0.951 . S
H334 C320 0.951 . S
H335 C321 0.950 . S
H336 C322 0.950 . S
H337 C323 0.950 . S
H338 C325 0.950 . S
H339 C326 0.951 . S
C340 C341 1.386 . S
C340 C342 1.383 . S
C340 H356 0.951 . S
C341 C340 1.386 . S
C341 C345 1.383 . S
C342 C340 1.383 . S
C342 C343 1.402 . S
C342 H357 0.951 1_556 S
C343 C342 1.402 . S
C343 C344 1.375 . S
C343 C346 1.481 . S
C344 C343 1.375 . S
C344 C345 1.367 . S
C344 H358 0.951 . S
C345 C341 1.383 . S
C345 C344 1.367 . S
C345 H359 0.950 . S
C346 C343 1.481 . S
C346 C347 1.297 1_556 S
C346 H360 0.950 . S
C347 C346 1.297 1_554 S
C347 C348 1.479 . S
C347 H361 0.950 . S
C348 C347 1.479 . S
C348 C349 1.375 . S
C348 C354 1.404 . S
C349 C348 1.375 . S
C349 C350 1.369 . S
C349 H362 0.950 . S
C350 C349 1.369 . S
C350 C351 1.392 . S
C350 H363 0.951 . S
C351 C350 1.392 . S
C351 C353 1.384 . S
H352 C354 0.949 1_556 S
C353 C351 1.384 . S
C353 C354 1.385 . S
C353 H355 0.950 . S
C354 C348 1.404 . S
C354 H352 0.949 1_554 S
C354 C353 1.385 . S
H355 C353 0.950 . S
H356 C340 0.951 . S
H357 C342 0.951 1_554 S
H358 C344 0.951 . S
H359 C345 0.950 . S
H360 C346 0.950 . S
H361 C347 0.950 . S
H362 C349 0.950 . S
H363 C350 0.951 . S
C364 C365 1.386 . S
C364 C366 1.383 . S
C364 H380 0.951 . S
C365 C364 1.386 . S
C365 C369 1.383 . S
C366 C364 1.383 . S
C366 C367 1.402 . S
C366 H381 0.951 . S
C367 C366 1.402 . S
C367 C368 1.375 . S
C367 C370 1.481 . S
C368 C367 1.375 . S
C368 C369 1.367 . S
C368 H382 0.951 . S
C369 C365 1.383 . S
C369 C368 1.367 . S
C369 H383 0.950 . S
C370 C367 1.481 . S
C370 C371 1.297 . S
C370 H384 0.950 . S
C371 C370 1.297 . S
C371 C372 1.479 . S
C371 H385 0.950 . S
C372 C371 1.479 . S
C372 C373 1.375 . S
C372 C378 1.404 . S
C373 C372 1.375 . S
C373 C374 1.369 . S
C373 H386 0.950 . S
C374 C373 1.369 . S
C374 C375 1.392 . S
C374 H387 0.951 . S
C375 C374 1.392 . S
C375 C377 1.384 . S
H376 C378 0.949 . S
C377 C375 1.384 . S
C377 C378 1.385 . S
C377 H379 0.950 . S
C378 C372 1.404 . S
C378 H376 0.949 . S
C378 C377 1.385 . S
H379 C377 0.950 . S
H380 C364 0.951 . S
H381 C366 0.951 . S
H382 C368 0.951 . S
H383 C369 0.950 . S
H384 C370 0.950 . S
H385 C371 0.950 . S
H386 C373 0.950 . S
H387 C374 0.951 . S
C388 C389 1.386 . S
C388 C390 1.383 . S
C388 H404 0.951 . S
C389 C388 1.386 . S
C389 C393 1.383 . S
C390 C388 1.383 . S
C390 C391 1.402 . S
C390 H405 0.951 . S
C391 C390 1.402 . S
C391 C392 1.375 1_554 S
C391 C394 1.481 1_554 S
C392 C391 1.375 1_556 S
C392 C393 1.367 1_556 S
C392 H406 0.951 . S
C393 C389 1.383 . S
C393 C392 1.367 1_554 S
C393 H407 0.950 . S
C394 C391 1.481 1_556 S
C394 C395 1.297 1_556 S
C394 H408 0.950 . S
C395 C394 1.297 1_554 S
C395 C396 1.479 1_554 S
C395 H409 0.950 . S
C396 C395 1.479 1_556 S
C396 C397 1.375 . S
C396 C402 1.404 . S
C397 C396 1.375 . S
C397 C398 1.369 . S
C397 H410 0.950 1_556 S
C398 C397 1.369 . S
C398 C399 1.392 . S
C398 H411 0.951 . S
C399 C398 1.392 . S
C399 C401 1.384 . S
H400 C402 0.949 . S
C401 C399 1.384 . S
C401 C402 1.385 . S
C401 H403 0.950 . S
C402 C396 1.404 . S
C402 H400 0.949 . S
C402 C401 1.385 . S
H403 C401 0.950 . S
H404 C388 0.951 . S
H405 C390 0.951 . S
H406 C392 0.951 . S
H407 C393 0.950 . S
H408 C394 0.950 . S
H409 C395 0.950 . S
H410 C397 0.950 1_554 S
H411 C398 0.951 . S
C412 C413 1.386 . S
C412 C414 1.383 . S
C412 H428 0.951 . S
C413 C412 1.386 . S
C413 C417 1.383 1_655 S
C414 C412 1.383 . S
C414 C415 1.402 1_655 S
C414 H429 0.951 1_554 S
C415 C414 1.402 1_455 S
C415 C416 1.375 . S
C415 C418 1.481 . S
C416 C415 1.375 . S
C416 C417 1.367 . S
C416 H430 0.951 . S
C417 C413 1.383 1_455 S
C417 C416 1.367 . S
C417 H431 0.950 . S
C418 C415 1.481 . S
C418 C419 1.297 1_554 S
C418 H432 0.950 1_545 S
C419 C418 1.297 1_556 S
C419 C420 1.479 1_545 S
C419 H433 0.950 . S
C420 C419 1.479 1_565 S
C420 C421 1.375 . S
C420 C426 1.404 . S
C421 C420 1.375 . S
C421 C422 1.369 . S
C421 H434 0.950 . S
C422 C421 1.369 . S
C422 C423 1.392 . S
C422 H435 0.951 . S
C423 C422 1.392 . S
C423 C425 1.384 . S
H424 C426 0.949 1_554 S
C425 C423 1.384 . S
C425 C426 1.385 . S
C425 H427 0.950 . S
C426 C420 1.404 . S
C426 H424 0.949 1_556 S
C426 C425 1.385 . S
H427 C425 0.950 . S
H428 C412 0.951 . S
H429 C414 0.951 1_556 S
H430 C416 0.951 . S
H431 C417 0.950 . S
H432 C418 0.950 1_565 S
H433 C419 0.950 . S
H434 C421 0.950 . S
H435 C422 0.951 . S
C436 C437 1.386 . S
C436 C438 1.383 1_455 S
C436 H452 0.951 1_455 S
C437 C436 1.386 . S
C437 C441 1.383 . S
C438 C436 1.383 1_655 S
C438 C439 1.402 1_655 S
C438 H453 0.951 . S
C439 C438 1.402 1_455 S
C439 C440 1.375 . S
C439 C442 1.481 1_545 S
C440 C439 1.375 . S
C440 C441 1.367 . S
C440 H454 0.951 . S
C441 C437 1.383 . S
C441 C440 1.367 . S
C441 H455 0.950 . S
C442 C439 1.481 1_565 S
C442 C443 1.297 1_455 S
C442 H456 0.950 . S
C443 C442 1.297 1_655 S
C443 C444 1.479 . S
C443 H457 0.949 1_565 S
C444 C443 1.479 . S
C444 C445 1.375 . S
C444 C450 1.409 . S
C445 C444 1.375 . S
C445 C446 1.369 . S
C445 H458 0.950 . S
C446 C445 1.369 . S
C446 C447 1.392 . S
C446 H459 0.951 . S
C447 C446 1.392 . S
C447 C449 1.384 . S
H448 C450 0.943 1_455 S
C449 C447 1.384 . S
C449 C450 1.385 . S
C449 H451 0.950 1_655 S
C450 C444 1.409 . S
C450 H448 0.943 1_655 S
C450 C449 1.385 . S
H451 C449 0.950 1_455 S
H452 C436 0.951 1_655 S
H453 C438 0.951 . S
H454 C440 0.951 . S
H455 C441 0.950 . S
H456 C442 0.950 . S
H457 C443 0.949 1_545 S
H458 C445 0.950 . S
H459 C446 0.951 . S
C460 C461 1.386 . S
C460 C462 1.383 . S
C460 H476 0.951 . S
C461 C460 1.386 . S
C461 C465 1.383 . S
C462 C460 1.383 . S
C462 C463 1.402 . S
C462 H477 0.951 . S
C463 C462 1.402 . S
C463 C464 1.375 . S
C463 C466 1.484 . S
C464 C463 1.375 . S
C464 C465 1.367 . S
C464 H478 0.951 1_554 S
C465 C461 1.383 . S
C465 C464 1.367 . S
C465 H479 0.950 . S
C466 C463 1.484 . S
C466 C467 1.298 . S
C466 H480 0.946 1_554 S
C467 C466 1.298 . S
C467 C468 1.479 1_554 S
C467 H481 0.950 . S
C468 C467 1.479 1_556 S
C468 C469 1.375 . S
C468 C474 1.404 . S
C469 C468 1.375 . S
C469 C470 1.369 . S
C469 H482 0.950 1_556 S
C470 C469 1.369 . S
C470 C471 1.392 . S
C470 H483 0.951 . S
C471 C470 1.392 . S
C471 C473 1.384 . S
H472 C474 0.949 . S
C473 C471 1.384 . S
C473 C474 1.385 . S
C473 H475 0.950 . S
C474 C468 1.404 . S
C474 H472 0.949 . S
C474 C473 1.385 . S
H475 C473 0.950 . S
H476 C460 0.951 . S
H477 C462 0.951 . S
H478 C464 0.951 1_556 S
H479 C465 0.950 . S
H480 C466 0.946 1_556 S
H481 C467 0.950 . S
H482 C469 0.950 1_554 S
H483 C470 0.951 . S
C484 C485 1.386 . S
C484 C486 1.383 . S
C484 H500 0.951 . S
C485 C484 1.386 . S
C485 C489 1.383 . S
C486 C484 1.383 . S
C486 C487 1.402 . S
C486 H501 0.951 . S
C487 C486 1.402 . S
C487 C488 1.375 . S
C487 C490 1.481 . S
C488 C487 1.375 . S
C488 C489 1.367 . S
C488 H502 0.951 . S
C489 C485 1.383 . S
C489 C488 1.367 . S
C489 H503 0.950 . S
C490 C487 1.481 . S
C490 C491 1.297 . S
C490 H504 0.950 . S
C491 C490 1.297 . S
C491 C492 1.479 . S
C491 H505 0.950 . S
C492 C491 1.479 . S
C492 C493 1.375 . S
C492 C498 1.404 . S
C493 C492 1.375 . S
C493 C494 1.369 . S
C493 H506 0.950 . S
C494 C493 1.369 . S
C494 C495 1.392 . S
C494 H507 0.951 . S
C495 C494 1.392 . S
C495 C497 1.384 . S
H496 C498 0.949 . S
C497 C495 1.384 . S
C497 C498 1.385 . S
C497 H499 0.950 . S
C498 C492 1.404 . S
C498 H496 0.949 . S
C498 C497 1.385 . S
H499 C497 0.950 . S
H500 C484 0.951 . S
H501 C486 0.951 . S
H502 C488 0.951 . S
H503 C489 0.950 . S
H504 C490 0.950 . S
H505 C491 0.950 . S
H506 C493 0.950 . S
H507 C494 0.951 . S
C125 C24 1.310 1_556 S
C135 C0 1.216 . S
C149 C55 1.316 . S
C159 C31 1.224 1_554 S
C173 C86 1.316 1_556 S
C183 C62 1.225 . S
C197 C93 1.281 1_554 S
C207 C117 1.330 . S
C221 C10 0.893 . S
C231 C2 0.802 . S
C245 C41 0.862 . S
C255 C33 0.836 . S
C269 C64 0.910 . S
C279 C72 0.800 . S
C293 C95 0.886 . S
C303 C103 0.935 . S
C317 C104 1.654 . S
C327 C18 1.566 . S
C341 C94 2.079 . S
C351 C27 2.046 . S
C365 C80 1.599 . S
C375 C42 1.671 . S
C389 C89 2.051 . S
C399 C32 2.045 . S
C413 C11 2.112 . S
C423 C49 2.113 . S
C437 C1 1.333 . S
C447 C58 1.287 . S
C461 C73 2.113 . S
C471 C111 2.077 . S
C485 C120 1.341 . S
C495 C63 1.254 . S
