# Generated by pormake.
# Topology can, (4)-cn, num edge types: 1
# Building blocks:
#     Node 0, Type 0, BuildingBlock: QUQFOY_clean_sbu_1, # of connection points: 4
#     Node 1, Type 0, BuildingBlock: QUQFOY_clean_sbu_1, # of connection points: 4
#     Node 2, Type 0, BuildingBlock: QUQFOY_clean_sbu_1, # of connection points: 4
#     Node 3, Type 0, BuildingBlock: QUQFOY_clean_sbu_1, # of connection points: 4
#     Node 4, Type 0, BuildingBlock: QUQFOY_clean_sbu_1, # of connection points: 4
#     Node 5, Type 0, BuildingBlock: QUQFOY_clean_sbu_1, # of connection points: 4
#     Node 6, Type 0, BuildingBlock: QUQFOY_clean_sbu_1, # of connection points: 4
#     Node 7, Type 0, BuildingBlock: QUQFOY_clean_sbu_1, # of connection points: 4
#     Node 8, Type 0, BuildingBlock: QUQFOY_clean_sbu_1, # of connection points: 4
#     Node 9, Type 0, BuildingBlock: QUQFOY_clean_sbu_1, # of connection points: 4
#     Node 10, Type 0, BuildingBlock: QUQFOY_clean_sbu_1, # of connection points: 4
#     Node 11, Type 0, BuildingBlock: QUQFOY_clean_sbu_1, # of connection points: 4
#     Edge 12, Type (0, 0), BuildingBlock: ZUJKAS_clean_linker_0, # of connection points: 2
#     Edge 13, Type (0, 0), BuildingBlock: ZUJKAS_clean_linker_0, # of connection points: 2
#     Edge 14, Type (0, 0), BuildingBlock: ZUJKAS_clean_linker_0, # of connection points: 2
#     Edge 15, Type (0, 0), BuildingBlock: ZUJKAS_clean_linker_0, # of connection points: 2
#     Edge 16, Type (0, 0), BuildingBlock: ZUJKAS_clean_linker_0, # of connection points: 2
#     Edge 17, Type (0, 0), BuildingBlock: ZUJKAS_clean_linker_0, # of connection points: 2
#     Edge 18, Type (0, 0), BuildingBlock: ZUJKAS_clean_linker_0, # of connection points: 2
#     Edge 19, Type (0, 0), BuildingBlock: ZUJKAS_clean_linker_0, # of connection points: 2
#     Edge 20, Type (0, 0), BuildingBlock: ZUJKAS_clean_linker_0, # of connection points: 2
#     Edge 21, Type (0, 0), BuildingBlock: ZUJKAS_clean_linker_0, # of connection points: 2
#     Edge 22, Type (0, 0), BuildingBlock: ZUJKAS_clean_linker_0, # of connection points: 2
#     Edge 23, Type (0, 0), BuildingBlock: ZUJKAS_clean_linker_0, # of connection points: 2
#     Edge 24, Type (0, 0), BuildingBlock: ZUJKAS_clean_linker_0, # of connection points: 2
#     Edge 25, Type (0, 0), BuildingBlock: ZUJKAS_clean_linker_0, # of connection points: 2
#     Edge 26, Type (0, 0), BuildingBlock: ZUJKAS_clean_linker_0, # of connection points: 2
#     Edge 27, Type (0, 0), BuildingBlock: ZUJKAS_clean_linker_0, # of connection points: 2
#     Edge 28, Type (0, 0), BuildingBlock: ZUJKAS_clean_linker_0, # of connection points: 2
#     Edge 29, Type (0, 0), BuildingBlock: ZUJKAS_clean_linker_0, # of connection points: 2
#     Edge 30, Type (0, 0), BuildingBlock: ZUJKAS_clean_linker_0, # of connection points: 2
#     Edge 31, Type (0, 0), BuildingBlock: ZUJKAS_clean_linker_0, # of connection points: 2
#     Edge 32, Type (0, 0), BuildingBlock: ZUJKAS_clean_linker_0, # of connection points: 2
#     Edge 33, Type (0, 0), BuildingBlock: ZUJKAS_clean_linker_0, # of connection points: 2
#     Edge 34, Type (0, 0), BuildingBlock: ZUJKAS_clean_linker_0, # of connection points: 2
#     Edge 35, Type (0, 0), BuildingBlock: ZUJKAS_clean_linker_0, # of connection points: 2
# Relax obj value: 0.067
# Max RMSD: 0.098
# Mean RMSD: 0.098
data_MOF--net-can--node1-QUQFOY_clean_sbu_1--edge1-ZUJKAS_clean_linker_0
_symmetry_space_group_name_H-M    P1
_symmetry_Int_Tables_number       1
_symmetry_cell_setting            triclinic
loop_
_symmetry_equiv_pos_as_xyz
'x, y, z'
_cell_length_a     73.673969
_cell_length_b     73.679066
_cell_length_c     37.078987
_cell_angle_alpha  90.004072
_cell_angle_beta   89.950199
_cell_angle_gamma 120.01521
loop_
_atom_site_label
_atom_site_type_symbol
_atom_site_fract_x
_atom_site_fract_y
_atom_site_fract_z
_atom_type_partial_charge
O0 O 0.05914 0.39205 0.19374 0.0
Cd1 Cd 0.07425 0.4052 0.2415 0.0
Cd2 Cd 0.03526 0.38305 0.26599 0.0
O3 O 0.02934 0.36747 0.21691 0.0
O4 O 0.10442 0.41695 0.22962 0.0
O5 O 0.08764 0.39136 0.26906 0.0
C6 C 0.10469 0.40359 0.2517 0.0
C7 C 0.02646 0.3661 0.32184 0.0
C8 C 0.04125 0.37581 0.18979 0.0
C9 C 0.05476 0.4298 0.26551 0.0
O10 O 0.0377 0.41233 0.2658 0.0
O11 O 0.07205 0.43031 0.26017 0.0
O12 O 0.01232 0.36553 0.30059 0.0
O13 O 0.04563 0.37542 0.31046 0.0
O14 O 0.67288 0.06032 0.69418 0.0
Cd15 Cd 0.67308 0.07598 0.7404 0.0
Cd16 Cd 0.65187 0.03576 0.76465 0.0
O17 O 0.65948 0.02812 0.71522 0.0
O18 O 0.69236 0.10581 0.7273 0.0
O19 O 0.69936 0.08974 0.77076 0.0
C20 C 0.70505 0.10642 0.75174 0.0
C21 C 0.65837 0.02522 0.82025 0.0
C22 C 0.66737 0.04116 0.68935 0.0
C23 C 0.6283 0.0593 0.76128 0.0
O24 O 0.6273 0.04167 0.76481 0.0
O25 O 0.64568 0.07559 0.75401 0.0
O26 O 0.64324 0.01233 0.79974 0.0
O27 O 0.67068 0.04395 0.80823 0.0
O28 O 0.61849 0.67194 0.19707 0.0
Cd29 Cd 0.60073 0.67178 0.24021 0.0
Cd30 Cd 0.61857 0.64971 0.2686 0.0
O31 O 0.63493 0.65659 0.22039 0.0
O32 O 0.59088 0.69086 0.2225 0.0
O33 O 0.61085 0.69785 0.27071 0.0
C34 C 0.60107 0.70345 0.24847 0.0
C35 C 0.63473 0.65564 0.32492 0.0
C36 C 0.63151 0.66549 0.19398 0.0
C37 C 0.57149 0.62701 0.26072 0.0
O38 O 0.58777 0.62584 0.26755 0.0
O39 O 0.57314 0.64434 0.25113 0.0
O40 O 0.63194 0.64015 0.30485 0.0
O41 O 0.6293 0.66857 0.31217 0.0
O42 O 0.9481 0.61879 0.69759 0.0
Cd43 Cd 0.93226 0.60099 0.74179 0.0
Cd44 Cd 0.97198 0.62004 0.76832 0.0
O45 O 0.97997 0.63669 0.72023 0.0
O46 O 0.9024 0.5895 0.72787 0.0
O47 O 0.91688 0.61103 0.77391 0.0
C48 C 0.90067 0.60014 0.75382 0.0
C49 C 0.9795 0.63581 0.82509 0.0
C50 C 0.96729 0.63266 0.69416 0.0
C51 C 0.95027 0.57338 0.76004 0.0
O52 O 0.96745 0.59005 0.7667 0.0
O53 O 0.93406 0.57433 0.75149 0.0
O54 O 0.99394 0.63573 0.80543 0.0
O55 O 0.96086 0.62776 0.81164 0.0
O56 O 0.32991 0.9464 0.19864 0.0
Cd57 Cd 0.33031 0.92857 0.24104 0.0
Cd58 Cd 0.35266 0.96846 0.27074 0.0
O59 O 0.34569 0.97804 0.22261 0.0
O60 O 0.31161 0.8998 0.22223 0.0
O61 O 0.30425 0.91181 0.27131 0.0
C62 C 0.29892 0.8968 0.24836 0.0
C63 C 0.34654 0.9786 0.32719 0.0
C64 C 0.33657 0.96593 0.19604 0.0
C65 C 0.37523 0.94408 0.26158 0.0
O66 O 0.37651 0.96145 0.26964 0.0
O67 O 0.35794 0.9287 0.25106 0.0
O68 O 0.36171 0.99153 0.30673 0.0
O69 O 0.33411 0.96 0.31478 0.0
O70 O 0.3861 0.33111 0.69527 0.0
Cd71 Cd 0.40245 0.33177 0.74083 0.0
Cd72 Cd 0.3836 0.35273 0.76597 0.0
O73 O 0.36739 0.34428 0.71757 0.0
O74 O 0.41373 0.31316 0.72731 0.0
O75 O 0.39103 0.3057 0.77165 0.0
C76 C 0.40224 0.30044 0.75227 0.0
C77 C 0.36755 0.34448 0.82256 0.0
C78 C 0.37215 0.33629 0.69137 0.0
C79 C 0.43031 0.37705 0.76056 0.0
O80 O 0.41369 0.37802 0.76467 0.0
O81 O 0.42919 0.35963 0.75347 0.0
O82 O 0.36772 0.35899 0.80279 0.0
O83 O 0.37566 0.33388 0.8093 0.0
O84 O 0.61771 0.9473 0.32538 0.0
Cd85 Cd 0.59968 0.92899 0.28324 0.0
Cd86 Cd 0.61681 0.9682 0.25184 0.0
O87 O 0.63315 0.97862 0.3001 0.0
O88 O 0.59055 0.90023 0.30114 0.0
O89 O 0.60985 0.91333 0.25215 0.0
C90 C 0.60049 0.89795 0.27458 0.0
C91 C 0.63321 0.97849 0.1955 0.0
C92 C 0.63032 0.96692 0.32727 0.0
C93 C 0.56973 0.94336 0.26138 0.0
O94 O 0.58574 0.96055 0.25223 0.0
O95 O 0.5718 0.92833 0.2733 0.0
O96 O 0.62989 0.991 0.21512 0.0
O97 O 0.62813 0.96031 0.20867 0.0
O98 O 0.67318 0.61331 0.82959 0.0
Cd99 Cd 0.67297 0.59683 0.78447 0.0
Cd100 Cd 0.653 0.61649 0.75755 0.0
O101 O 0.66101 0.63261 0.80603 0.0
O102 O 0.69179 0.58587 0.7983 0.0
O103 O 0.69913 0.60851 0.75388 0.0
C104 C 0.70451 0.59745 0.7734 0.0
C105 C 0.65939 0.63294 0.7014 0.0
C106 C 0.66836 0.62756 0.83281 0.0
C107 C 0.62818 0.56945 0.76338 0.0
O108 O 0.62782 0.58634 0.75851 0.0
O109 O 0.64522 0.57007 0.77152 0.0
O110 O 0.64448 0.63114 0.72205 0.0
O111 O 0.67157 0.6264 0.71352 0.0
O112 O 0.05786 0.67157 0.32921 0.0
Cd113 Cd 0.07351 0.67 0.28433 0.0
Cd114 Cd 0.03403 0.65115 0.25755 0.0
O115 O 0.02662 0.66039 0.30551 0.0
O116 O 0.10335 0.6881 0.29853 0.0
O117 O 0.08912 0.69551 0.25256 0.0
C118 C 0.10525 0.70066 0.27279 0.0
C119 C 0.02586 0.65906 0.20098 0.0
C120 C 0.03904 0.66758 0.33226 0.0
C121 C 0.05418 0.62462 0.26472 0.0
O122 O 0.03726 0.62488 0.25945 0.0
O123 O 0.07096 0.64144 0.27255 0.0
O124 O 0.01158 0.64507 0.22156 0.0
O125 O 0.0448 0.66931 0.21328 0.0
O126 O 0.3896 0.06029 0.83122 0.0
Cd127 Cd 0.40538 0.07614 0.78533 0.0
Cd128 Cd 0.38611 0.0365 0.75951 0.0
O129 O 0.36995 0.02879 0.80806 0.0
O130 O 0.41629 0.10601 0.79848 0.0
O131 O 0.39322 0.0902 0.75488 0.0
C132 C 0.4044 0.10684 0.77389 0.0
C133 C 0.3698 0.02703 0.70314 0.0
C134 C 0.37527 0.04127 0.83478 0.0
C135 C 0.43302 0.05889 0.7646 0.0
O136 O 0.41626 0.04139 0.76071 0.0
O137 O 0.43213 0.07529 0.77177 0.0
O138 O 0.37069 0.01346 0.72397 0.0
O139 O 0.37726 0.0459 0.71523 0.0
O140 O 0.33132 0.38901 0.32688 0.0
Cd141 Cd 0.33102 0.40494 0.28136 0.0
Cd142 Cd 0.35145 0.38601 0.25438 0.0
O143 O 0.34322 0.36966 0.30269 0.0
O144 O 0.31183 0.41548 0.29514 0.0
O145 O 0.30473 0.39267 0.25113 0.0
C146 C 0.2991 0.40358 0.27057 0.0
C147 C 0.34419 0.36964 0.19804 0.0
C148 C 0.33612 0.37474 0.32979 0.0
C149 C 0.37582 0.43284 0.25992 0.0
O150 O 0.37669 0.41618 0.25559 0.0
O151 O 0.35851 0.43179 0.26761 0.0
O152 O 0.3586 0.37028 0.21867 0.0
O153 O 0.33315 0.37751 0.2102 0.0
O154 O 0.94598 0.33545 0.82625 0.0
Cd155 Cd 0.92972 0.33319 0.77987 0.0
Cd156 Cd 0.96844 0.351 0.75231 0.0
O157 O 0.97606 0.3427 0.80128 0.0
O158 O 0.89991 0.31427 0.79356 0.0
O159 O 0.9161 0.30606 0.75198 0.0
C160 C 0.89939 0.30088 0.77064 0.0
C161 C 0.97639 0.34212 0.69634 0.0
C162 C 0.96442 0.33834 0.82903 0.0
C163 C 0.94756 0.37712 0.75498 0.0
O164 O 0.96477 0.37715 0.75177 0.0
O165 O 0.93084 0.36028 0.76292 0.0
O166 O 0.99074 0.35656 0.71615 0.0
O167 O 0.95757 0.3319 0.70923 0.0
H168 H 0.05171 0.39857 0.12827 0.0
H169 H 0.03852 0.3867 0.06764 0.0
H170 H 0.00212 0.32311 0.10654 0.0
H171 H 0.01425 0.33535 0.16817 0.0
H172 H 0.04176 0.36289 0.0221 0.0
H173 H 0.9572 0.32652 0.05555 0.0
H174 H 0.97739 0.34155 0.08797 0.0
H175 H 0.97006 0.31473 0.07865 0.0
C176 C 0.04085 0.38205 0.12395 0.0
C177 C 0.03386 0.3679 0.15297 0.0
C178 C 0.03334 0.37524 0.08918 0.0
C179 C 0.01899 0.35402 0.08234 0.0
C180 C 0.01262 0.33966 0.11114 0.0
H181 H 0.9928 0.32624 0.84869 0.0
H182 H 0.00571 0.32624 0.90977 0.0
C183 C 0.01968 0.34661 0.14631 0.0
C184 C 0.01073 0.34745 0.04504 0.0
H185 H 0.96571 0.32429 0.99533 0.0
C186 C 0.02511 0.35443 0.01626 0.0
C187 C 0.98899 0.33641 0.03728 0.0
C188 C 0.97251 0.32953 0.06643 0.0
C189 C 0.01847 0.35179 0.98016 0.0
C190 C 0.99672 0.34079 0.97241 0.0
C191 C 0.98237 0.33274 1.00117 0.0
C192 C 0.98836 0.33939 0.93528 0.0
C193 C 0.03488 0.362 0.95106 0.0
C194 C 0.97358 0.3458 0.92932 0.0
C195 C 0.96565 0.34503 0.8949 0.0
C196 C 0.97262 0.33826 0.86533 0.0
C197 C 0.98736 0.33176 0.87102 0.0
C198 C 0.99486 0.33193 0.90587 0.0
H199 H 0.0501 0.37437 0.96215 0.0
H200 H 0.03762 0.34999 0.93817 0.0
H201 H 0.02977 0.3692 0.93001 0.0
H202 H 0.96831 0.3517 0.95134 0.0
H203 H 0.95439 0.35025 0.8913 0.0
H204 H 0.65351 0.00853 0.34622 0.0
H205 H 0.66577 0.02287 0.40672 0.0
H206 H 0.64101 0.96027 0.44863 0.0
H207 H 0.62913 0.94589 0.3886 0.0
H208 H 0.6399 0.01499 0.46446 0.0
H209 H 0.69761 0.99028 0.49738 0.0
H210 H 0.68873 0.99 0.4519 0.0
H211 H 0.67304 0.96887 0.48245 0.0
C212 C 0.65111 0.99785 0.36817 0.0
C213 C 0.64028 0.97605 0.3625 0.0
C214 C 0.65808 0.00606 0.40274 0.0
C215 C 0.65454 0.99266 0.43217 0.0
C216 C 0.64438 0.97096 0.4263 0.0
H217 H 0.65181 1.00081 0.66472 0.0
H218 H 0.65056 0.98961 0.60198 0.0
C219 C 0.63742 0.96276 0.39187 0.0
C220 C 0.6594 1.00102 0.46953 0.0
H221 H 0.68391 1.00043 0.54744 0.0
C222 C 0.64978 0.01207 0.48243 0.0
C223 C 0.67212 0.99703 0.49309 0.0
C224 C 0.68363 0.98607 0.48041 0.0
C225 C 0.65202 0.01869 0.51844 0.0
C226 C 0.66446 0.01441 0.54213 0.0
C227 C 0.67432 0.0036 0.52923 0.0
C228 C 0.66727 0.0211 0.58039 0.0
C229 C 0.64054 0.02969 0.53119 0.0
C230 C 0.67767 0.04247 0.58905 0.0
C231 C 0.6784 0.0489 0.62469 0.0
C232 C 0.6688 0.03407 0.65251 0.0
C233 C 0.65931 0.01263 0.64399 0.0
C234 C 0.65858 0.0062 0.60818 0.0
H235 H 0.62813 0.02772 0.51195 0.0
H236 H 0.63325 0.02368 0.55799 0.0
H237 H 0.65185 0.0467 0.53391 0.0
H238 H 0.68475 0.0542 0.56805 0.0
H239 H 0.68603 0.06555 0.63024 0.0
H240 H 0.63155 0.68801 0.13561 0.0
H241 H 0.6426 0.68645 0.07422 0.0
H242 H 0.66398 0.64451 0.10911 0.0
H243 H 0.65308 0.64607 0.17106 0.0
H244 H 0.69099 0.67689 0.05645 0.0
H245 H 0.60722 0.63159 0.01567 0.0
H246 H 0.61495 0.65605 0.03795 0.0
H247 H 0.61538 0.63518 0.06226 0.0
C248 C 0.63885 0.67864 0.13045 0.0
C249 C 0.64117 0.66692 0.15821 0.0
C250 C 0.64512 0.67776 0.09529 0.0
C251 C 0.65373 0.66506 0.08706 0.0
C252 C 0.65725 0.65432 0.11497 0.0
H253 H 0.68431 0.62084 0.89457 0.0
H254 H 0.68293 0.63266 0.95532 0.0
C255 C 0.65102 0.65524 0.15032 0.0
C256 C 0.6576 0.6619 0.04899 0.0
H257 H 0.63237 0.64104 0.96953 0.0
C258 C 0.67822 0.66907 0.03737 0.0
C259 C 0.64087 0.65173 0.02423 0.0
C260 C 0.61833 0.64302 0.03558 0.0
C261 C 0.68257 0.66648 1.0014 0.0
C262 C 0.6658 0.65612 0.97672 0.0
C263 C 0.64522 0.64913 0.98838 0.0
C264 C 0.66892 0.65114 0.93925 0.0
C265 C 0.70507 0.67507 0.99007 0.0
C266 C 0.6614 0.6575 0.90986 0.0
C267 C 0.66199 0.6506 0.87492 0.0
C268 C 0.66996 0.63705 0.86881 0.0
C269 C 0.67809 0.63128 0.8982 0.0
C270 C 0.67748 0.63817 0.93303 0.0
H271 H 0.71601 0.68792 1.0082 0.0
H272 H 0.70899 0.66238 0.99148 0.0
H273 H 0.70768 0.68107 0.96197 0.0
H274 H 0.65459 0.66739 0.91411 0.0
H275 H 0.65557 0.65531 0.85296 0.0
H276 H 0.06158 0.68201 0.39452 0.0
H277 H 0.04827 0.68084 0.45519 0.0
H278 H 0.98599 0.65709 0.41258 0.0
H279 H 0.9991 0.65777 0.35155 0.0
H280 H 0.02653 0.69821 0.48883 0.0
H281 H 0.97902 0.61124 0.4828 0.0
H282 H 0.99872 0.62647 0.44956 0.0
H283 H 0.97348 0.62468 0.44793 0.0
C284 C 0.04506 0.67673 0.39787 0.0
C285 C 0.03134 0.66968 0.36814 0.0
C286 C 0.03751 0.67614 0.43264 0.0
C287 C 0.01609 0.6685 0.43848 0.0
C288 C 0.00252 0.66264 0.40871 0.0
H289 H 0.9437 0.63125 0.63647 0.0
H290 H 0.95558 0.64289 0.57499 0.0
C291 C 0.01006 0.66315 0.37383 0.0
C292 C 0.00793 0.66539 0.4759 0.0
H293 H 0.97669 0.62735 0.53594 0.0
C294 C 0.01554 0.68275 0.49914 0.0
C295 C 0.99375 0.64517 0.48935 0.0
C296 C 0.98587 0.62577 0.46629 0.0
C297 C 0.00922 0.6804 0.53545 0.0
C298 C 0.99515 0.66016 0.54887 0.0
C299 C 0.98739 0.64288 0.52552 0.0
C300 C 0.98852 0.6562 0.5872 0.0
C301 C 0.0175 0.69959 0.55906 0.0
C302 C 0.00315 0.66023 0.61472 0.0
C303 C 0.99641 0.65361 0.65011 0.0
C304 C 0.97488 0.64266 0.65842 0.0
C305 C 0.96038 0.63952 0.63103 0.0
C306 C 0.96713 0.64618 0.59582 0.0
H307 H 0.02348 0.71414 0.54281 0.0
H308 H 0.00517 0.69846 0.57768 0.0
H309 H 0.03066 0.70088 0.57555 0.0
H310 H 0.01972 0.66759 0.60855 0.0
H311 H 0.00797 0.65618 0.67051 0.0
H312 H 0.38444 0.06368 0.89741 0.0
H313 H 0.373 0.05034 0.9583 0.0
H314 H 0.3338 0.98813 0.91584 0.0
H315 H 0.34554 0.00126 0.85459 0.0
H316 H 0.33449 0.02921 0.99283 0.0
H317 H 0.37228 0.98026 0.98504 0.0
H318 H 0.37679 0.99995 0.95179 0.0
H319 H 0.35312 0.97488 0.95062 0.0
C320 C 0.37324 0.04717 0.90085 0.0
C321 C 0.36614 0.03349 0.87105 0.0
C322 C 0.36667 0.03959 0.93576 0.0
C323 C 0.35288 0.01818 0.94169 0.0
C324 C 0.34483 0.00464 0.91192 0.0
H325 H 0.3143 0.94392 0.13716 0.0
H326 H 0.31595 0.95703 0.0762 0.0
C327 C 0.35146 0.0122 0.8769 0.0
C328 C 0.34795 0.01002 0.97915 0.0
H329 H 0.35364 0.97769 0.03824 0.0
C330 C 0.3386 0.01789 1.00277 0.0
C331 C 0.35352 0.99541 0.99216 0.0
C332 C 0.36466 0.98725 0.96875 0.0
C333 C 0.33448 0.01135 0.03897 0.0
C334 C 0.34006 0.99675 0.05187 0.0
C335 C 0.34927 0.9888 0.0282 0.0
C336 C 0.33683 0.98953 0.0899 0.0
C337 C 0.324 0.01991 0.06301 0.0
C338 C 0.34771 0.00354 0.1181 0.0
C339 C 0.34681 0.99608 0.15322 0.0
C340 C 0.33515 0.97446 0.16058 0.0
C341 C 0.32355 0.96065 0.13249 0.0
C342 C 0.32444 0.9681 0.09756 0.0
H343 H 0.31617 0.02682 0.04713 0.0
H344 H 0.31222 0.00744 0.08079 0.0
H345 H 0.336 0.03239 0.08042 0.0
H346 H 0.35766 0.02011 0.11267 0.0
H347 H 0.356 0.00712 0.17416 0.0
H348 H 0.32169 0.38226 0.39272 0.0
H349 H 0.32376 0.37039 0.45319 0.0
H350 H 0.3496 0.33395 0.40933 0.0
H351 H 0.34794 0.34604 0.34852 0.0
H352 H 0.30757 0.33077 0.4857 0.0
H353 H 0.39468 0.3737 0.48033 0.0
H354 H 0.37895 0.37771 0.44753 0.0
H355 H 0.38193 0.35498 0.4448 0.0
C356 C 0.32765 0.37156 0.39576 0.0
C357 C 0.33492 0.36533 0.36573 0.0
C358 C 0.32876 0.36475 0.43042 0.0
C359 C 0.33718 0.35161 0.43582 0.0
C360 C 0.34342 0.34443 0.40579 0.0
H361 H 0.37611 0.31656 0.63211 0.0
H362 H 0.36504 0.31756 0.57052 0.0
C363 C 0.34236 0.35127 0.37103 0.0
C364 C 0.34051 0.34651 0.47307 0.0
H365 H 0.37891 0.3543 0.53294 0.0
C366 C 0.32314 0.33581 0.49605 0.0
C367 C 0.36087 0.35326 0.48654 0.0
C368 C 0.38022 0.36571 0.46371 0.0
C369 C 0.3256 0.33154 0.53212 0.0
C370 C 0.34598 0.33844 0.5456 0.0
C371 C 0.36329 0.34894 0.52249 0.0
C372 C 0.34999 0.33549 0.58377 0.0
C373 C 0.30639 0.31953 0.55536 0.0
C374 C 0.34488 0.34493 0.61189 0.0
C375 C 0.35116 0.34436 0.64732 0.0
C376 C 0.36286 0.3345 0.65515 0.0
C377 C 0.36721 0.32438 0.62708 0.0
C378 C 0.36089 0.32491 0.5918 0.0
H379 H 0.29203 0.31053 0.53882 0.0
H380 H 0.30811 0.30852 0.57357 0.0
H381 H 0.30422 0.33073 0.57227 0.0
H382 H 0.33684 0.35353 0.60622 0.0
H383 H 0.34764 0.3524 0.66823 0.0
H384 H 0.01752 0.65581 0.859 0.0
H385 H 0.0243 0.66392 0.92325 0.0
H386 H 0.95851 0.64071 0.94141 0.0
H387 H 0.95152 0.63251 0.87708 0.0
H388 H 0.01347 0.68892 0.9731 0.0
H389 H 0.97479 0.60381 1.00539 0.0
H390 H 0.98341 0.61381 0.9604 0.0
H391 H 0.96001 0.61215 0.9784 0.0
C392 C 0.0045 0.65269 0.87652 0.0
C393 C 0.98394 0.64334 0.86293 0.0
C394 C 0.00843 0.65738 0.91323 0.0
C395 C 0.99188 0.65269 0.9371 0.0
C396 C 0.97147 0.64427 0.92343 0.0
H397 H 0.98709 0.64399 0.17111 0.0
H398 H 0.97857 0.64492 0.10773 0.0
C399 C 0.96752 0.63966 0.88665 0.0
C400 C 0.99585 0.65526 0.97651 0.0
H401 H 0.98799 0.62729 0.05402 0.0
C402 C 0.00784 0.67549 0.99091 0.0
C403 C 0.9885 0.6377 0.99959 0.0
C404 C 0.97608 0.6156 0.98532 0.0
C405 C 0.01255 0.67862 0.02797 0.0
C406 C 0.0055 0.66101 0.051 0.0
C407 C 0.99335 0.6408 0.03648 0.0
C408 C 0.01085 0.66291 0.09006 0.0
C409 C 0.02473 0.70074 0.04211 0.0
C410 C 0.03185 0.67301 0.1015 0.0
C411 C 0.03677 0.6727 0.1379 0.0
C412 C 0.02078 0.66196 0.16348 0.0
C413 C 0.99978 0.65237 0.15212 0.0
C414 C 0.99488 0.65287 0.11584 0.0
H415 H 0.0231 0.71191 0.02414 0.0
H416 H 0.01948 0.70195 0.06963 0.0
H417 H 0.04161 0.70561 0.0433 0.0
H418 H 0.04448 0.68042 0.0821 0.0
H419 H 0.0531 0.68007 0.1457 0.0
H420 H 0.31771 0.95459 0.37892 0.0
H421 H 0.31766 0.96335 0.44273 0.0
H422 H 0.37129 0.02454 0.42426 0.0
H423 H 0.3715 0.01598 0.3607 0.0
H424 H 0.37616 1.00118 0.48063 0.0
H425 H 0.30257 0.00413 0.49531 0.0
H426 H 0.30016 0.98136 0.47291 0.0
H427 H 0.31508 0.00666 0.45219 0.0
C428 C 0.32925 0.97005 0.38829 0.0
C429 C 0.34464 0.98455 0.36467 0.0
C430 C 0.32915 0.97506 0.42475 0.0
C431 C 0.34439 0.99465 0.43819 0.0
C432 C 0.35934 0.00936 0.41443 0.0
H433 H 0.36747 0.05223 0.65091 0.0
H434 H 0.35945 0.04397 0.58673 0.0
C435 C 0.35941 0.00442 0.37806 0.0
C436 C 0.34606 0.99923 0.47745 0.0
H437 H 0.32094 0.00617 0.54921 0.0
C438 C 0.3641 0.00231 0.49559 0.0
C439 C 0.33035 1.0008 0.49686 0.0
C440 C 0.31098 0.99824 0.47841 0.0
C441 C 0.36676 0.00666 0.53266 0.0
C442 C 0.35093 0.00789 0.55222 0.0
C443 C 0.33298 0.00509 0.53411 0.0
C444 C 0.35301 0.01204 0.59157 0.0
C445 C 0.38655 0.01004 0.55076 0.0
C446 C 0.35146 0.99663 0.61559 0.0
C447 C 0.35595 0.00126 0.65218 0.0
C448 C 0.36217 0.02143 0.66548 0.0
C449 C 0.36275 0.03656 0.64158 0.0
C450 C 0.35816 0.03187 0.60492 0.0
H451 H 0.39871 0.01199 0.53091 0.0
H452 H 0.39312 0.02411 0.56837 0.0
H453 H 0.38285 0.99631 0.56803 0.0
H454 H 0.34742 0.98121 0.60579 0.0
H455 H 0.35529 0.9892 0.66978 0.0
H456 H 0.37269 0.32168 0.87582 0.0
H457 H 0.36435 0.32084 0.94003 0.0
H458 H 0.33734 0.35991 0.91918 0.0
H459 H 0.3457 0.36095 0.85509 0.0
H460 H 0.38084 0.35955 0.98186 0.0
H461 H 0.29389 0.31212 0.98649 0.0
H462 H 0.30912 0.31028 0.9499 0.0
H463 H 0.30481 0.33217 0.95239 0.0
C464 C 0.36459 0.32974 0.88476 0.0
C465 C 0.3599 0.34142 0.86032 0.0
C466 C 0.35987 0.32927 0.92147 0.0
C467 C 0.35008 0.34017 0.93431 0.0
C468 C 0.34462 0.35113 0.90977 0.0
H469 H 0.32327 0.37531 0.14205 0.0
H470 H 0.32377 0.36651 0.07845 0.0
C471 C 0.3495 0.35178 0.87315 0.0
C472 C 0.3475 0.34189 0.97364 0.0
H473 H 0.31105 0.33056 0.03983 0.0
C474 C 0.36559 0.35303 0.99466 0.0
C475 C 0.32759 0.33362 0.99007 0.0
C476 C 0.30769 0.32123 0.96871 0.0
C477 C 0.36437 0.3566 0.03155 0.0
C478 C 0.34444 0.34819 0.04821 0.0
C479 C 0.3263 0.3369 0.02716 0.0
C480 C 0.34224 0.3515 0.08722 0.0
C481 C 0.38448 0.37005 0.05192 0.0
C482 C 0.35174 0.34528 0.11352 0.0
C483 C 0.35167 0.3505 0.14976 0.0
C484 C 0.34174 0.36168 0.1606 0.0
C485 C 0.33107 0.36671 0.13458 0.0
C486 C 0.33136 0.3617 0.0982 0.0
H487 H 0.39764 0.37998 0.03343 0.0
H488 H 0.38263 0.3804 0.07153 0.0
H489 H 0.38885 0.35979 0.06699 0.0
H490 H 0.35969 0.33686 0.10589 0.0
H491 H 0.35983 0.34618 0.16918 0.0
H492 H 0.94869 0.31875 0.64314 0.0
H493 H 0.95648 0.31743 0.57923 0.0
H494 H 0.02245 0.35703 0.60054 0.0
H495 H 0.01486 0.35848 0.66433 0.0
H496 H 0.97764 0.35478 0.53623 0.0
H497 H 0.01985 0.30999 0.53514 0.0
H498 H 0.003 0.30846 0.57189 0.0
H499 H 0.02895 0.33069 0.56793 0.0
C500 C 0.9649 0.32681 0.63439 0.0
C501 C 0.98115 0.33875 0.65886 0.0
C502 C 0.96931 0.32607 0.59784 0.0
C503 C 0.99006 0.33697 0.58519 0.0
C504 C 0.00636 0.34821 0.60979 0.0
H505 H 0.05303 0.37336 0.37862 0.0
H506 H 0.04347 0.36444 0.44211 0.0
C507 C 0.00197 0.3491 0.64625 0.0
C508 C 0.99451 0.33843 0.54589 0.0
H509 H 0.02119 0.32812 0.48117 0.0
C510 C 0.98695 0.34874 0.52407 0.0
C511 C 0.0069 0.33079 0.53026 0.0
C512 C 0.01504 0.3192 0.55238 0.0
C513 C 0.99188 0.35213 0.48721 0.0
C514 C 0.00422 0.34442 0.47139 0.0
C515 C 0.01165 0.33393 0.49321 0.0
C516 C 0.01001 0.3477 0.4325 0.0
C517 C 0.98448 0.36468 0.46592 0.0
C518 C 0.99444 0.34054 0.40579 0.0
C519 C 0.99985 0.34578 0.36958 0.0
C520 C 0.02098 0.35798 0.35922 0.0
C521 C 0.03661 0.36396 0.3857 0.0
C522 C 0.03117 0.35889 0.42202 0.0
H523 H 0.98039 0.37422 0.48379 0.0
H524 H 0.99664 0.37533 0.4465 0.0
H525 H 0.97021 0.35381 0.45053 0.0
H526 H 0.97803 0.33137 0.41307 0.0
H527 H 0.98742 0.34073 0.34983 0.0
H528 H 0.69295 0.04272 0.86437 0.0
H529 H 0.69481 0.03386 0.92753 0.0
H530 H 0.62923 0.9867 0.92421 0.0
H531 H 0.62776 0.99452 0.86093 0.0
H532 H 0.67821 0.038 0.9835 0.0
H533 H 0.64901 0.9534 0.97481 0.0
H534 H 0.65578 0.96958 0.93503 0.0
H535 H 0.62997 0.95855 0.9548 0.0
C536 C 0.67909 0.03014 0.877 0.0
C537 C 0.66029 0.01914 0.85755 0.0
C538 C 0.68013 0.02511 0.91315 0.0
C539 C 0.66228 0.00923 0.93076 0.0
C540 C 0.64349 0.99838 0.9112 0.0
H541 H 0.63087 0.00718 0.15285 0.0
H542 H 0.64071 0.01498 0.08972 0.0
C543 C 0.6426 0.00301 0.87493 0.0
C544 C 0.66267 0.00511 0.97015 0.0
H545 H 0.64368 0.96575 0.03263 0.0
C546 C 0.67101 0.02218 0.99412 0.0
C547 C 0.65388 0.98457 0.98448 0.0
C548 C 0.64692 0.96556 0.9608 0.0
C549 C 0.66971 0.01924 0.03169 0.0
C550 C 0.6588 0.99862 0.04594 0.0
C551 C 0.6516 0.98159 0.02203 0.0
C552 C 0.65363 0.99433 0.08512 0.0
C553 C 0.68021 0.03839 0.05551 0.0
C554 C 0.65669 0.97939 0.10367 0.0
C555 C 0.65034 0.97434 0.13972 0.0
C556 C 0.64111 0.98438 0.15809 0.0
C557 C 0.63831 0.99947 0.13969 0.0
C558 C 0.64415 0.0041 0.10353 0.0
H559 H 0.69431 0.05119 0.04211 0.0
H560 H 0.66922 0.04429 0.0605 0.0
H561 H 0.68502 0.03491 0.08178 0.0
H562 H 0.66381 0.97147 0.09016 0.0
H563 H 0.6526 0.96257 0.15317 0.0
H564 H 0.63128 0.62408 0.3673 0.0
H565 H 0.64012 0.62551 0.43087 0.0
H566 H 0.66509 0.69247 0.43084 0.0
H567 H 0.65477 0.69078 0.36747 0.0
H568 H 0.67331 0.64184 0.46774 0.0
H569 H 0.62761 0.67859 0.5143 0.0
H570 H 0.62641 0.66995 0.46852 0.0
H571 H 0.648 0.69469 0.48318 0.0
C572 C 0.6387 0.63914 0.38079 0.0
C573 C 0.64219 0.6573 0.36249 0.0
C574 C 0.64379 0.63996 0.41724 0.0
C575 C 0.6529 0.65903 0.4362 0.0
C576 C 0.65739 0.67742 0.41739 0.0
H577 H 0.69407 0.65075 0.65738 0.0
H578 H 0.69558 0.66074 0.59384 0.0
C579 C 0.65171 0.6765 0.38105 0.0
C580 C 0.65724 0.65921 0.47559 0.0
H581 H 0.6472 0.67281 0.55824 0.0
C582 C 0.66757 0.64862 0.48752 0.0
C583 C 0.64969 0.66793 0.50162 0.0
C584 C 0.63714 0.67824 0.49134 0.0
C585 C 0.66974 0.64568 0.52439 0.0
C586 C 0.66242 0.65463 0.55041 0.0
C587 C 0.65291 0.66601 0.53846 0.0
C588 C 0.66252 0.65071 0.58993 0.0
C589 C 0.67874 0.63196 0.53476 0.0
C590 C 0.64382 0.64301 0.60976 0.0
C591 C 0.64317 0.63814 0.64629 0.0
C592 C 0.66109 0.64043 0.66383 0.0
C593 C 0.67997 0.64863 0.64442 0.0
C594 C 0.68077 0.65411 0.60798 0.0
H595 H 0.67795 0.62171 0.51211 0.0
H596 H 0.69549 0.64201 0.54208 0.0
H597 H 0.67028 0.62183 0.55817 0.0
H598 H 0.6295 0.64023 0.59673 0.0
H599 H 0.62835 0.63176 0.66044 0.0
H600 H 0.08782 0.61853 0.26995 0.0
H601 H 0.08754 0.58521 0.26987 0.0
H602 H 0.02034 0.55191 0.25726 0.0
H603 H 0.02048 0.58513 0.25654 0.0
H604 H 0.06785 0.55255 0.31734 0.0
H605 H 0.03829 0.52595 0.17865 0.0
H606 H 0.04775 0.55252 0.19351 0.0
H607 H 0.02171 0.53216 0.20509 0.0
C608 C 0.07299 0.60414 0.2668 0.0
C609 C 0.05418 0.60452 0.2631 0.0
C610 C 0.07286 0.58511 0.26683 0.0
C611 C 0.05396 0.5661 0.26308 0.0
C612 C 0.03516 0.56641 0.25936 0.0
H613 H 0.02054 0.43507 0.26897 0.0
H614 H 0.02027 0.46815 0.27055 0.0
C615 C 0.03527 0.58543 0.25914 0.0
C616 C 0.05385 0.54592 0.26449 0.0
H617 H 0.03978 0.50099 0.21732 0.0
C618 C 0.06181 0.54132 0.2954 0.0
C619 C 0.04593 0.53128 0.23585 0.0
C620 C 0.03812 0.53576 0.20125 0.0
C621 C 0.0618 0.52233 0.29864 0.0
C622 C 0.0538 0.50769 0.2701 0.0
C623 C 0.04579 0.51224 0.23924 0.0
C624 C 0.05402 0.48772 0.27129 0.0
C625 C 0.07006 0.51793 0.33278 0.0
C626 C 0.07311 0.48783 0.27126 0.0
C627 C 0.07334 0.46899 0.27028 0.0
C628 C 0.05446 0.44967 0.26925 0.0
C629 C 0.03535 0.44965 0.26989 0.0
C630 C 0.03515 0.46852 0.2707 0.0
H631 H 0.07104 0.52839 0.3552 0.0
H632 H 0.05996 0.50139 0.34138 0.0
H633 H 0.08604 0.52054 0.32772 0.0
H634 H 0.08784 0.50251 0.27117 0.0
H635 H 0.08833 0.4696 0.26971 0.0
H636 H 0.44071 0.02636 0.75807 0.0
H637 H 0.47472 0.02807 0.75827 0.0
H638 H 0.50601 0.09539 0.76664 0.0
H639 H 0.47205 0.09392 0.76654 0.0
H640 H 0.52263 0.07763 0.71256 0.0
H641 H 0.51329 0.04407 0.85017 0.0
H642 H 0.49165 0.02977 0.81989 0.0
H643 H 0.49809 0.05556 0.83435 0.0
C644 C 0.4548 0.04156 0.75978 0.0
C645 C 0.45364 0.06 0.76248 0.0
C646 C 0.4742 0.04248 0.76006 0.0
C647 C 0.49279 0.06183 0.76295 0.0
C648 C 0.49178 0.08031 0.76461 0.0
H649 H 0.62454 0.09449 0.75912 0.0
H650 H 0.59222 0.0962 0.76059 0.0
C651 C 0.47237 0.07942 0.76456 0.0
C652 C 0.51326 0.06269 0.76444 0.0
H653 H 0.54249 0.0486 0.81621 0.0
C654 C 0.5271 0.07143 0.73526 0.0
C655 C 0.51892 0.05456 0.79414 0.0
C656 C 0.50483 0.04559 0.82662 0.0
C657 C 0.54628 0.07166 0.73449 0.0
C658 C 0.55191 0.06339 0.76414 0.0
C659 C 0.53815 0.05494 0.79354 0.0
C660 C 0.57165 0.06264 0.76466 0.0
C661 C 0.55996 0.08009 0.70141 0.0
C662 C 0.57087 0.04328 0.76786 0.0
C663 C 0.58929 0.04227 0.76751 0.0
C664 C 0.60891 0.06061 0.76394 0.0
C665 C 0.60969 0.08005 0.76162 0.0
C666 C 0.59122 0.08105 0.76219 0.0
H667 H 0.55106 0.08076 0.67778 0.0
H668 H 0.57288 0.09624 0.70693 0.0
H669 H 0.567 0.07029 0.69428 0.0
H670 H 0.55593 0.02889 0.77001 0.0
H671 H 0.58809 0.02704 0.7694 0.0
H672 H 0.53293 0.62368 0.25223 0.0
H673 H 0.49856 0.59171 0.25384 0.0
H674 H 0.52838 0.55508 0.27402 0.0
H675 H 0.56264 0.58686 0.27331 0.0
H676 H 0.48335 0.55736 0.2104 0.0
H677 H 0.48418 0.53392 0.35198 0.0
H678 H 0.50268 0.55965 0.33508 0.0
H679 H 0.50682 0.53786 0.3273 0.0
C680 C 0.53216 0.60885 0.25738 0.0
C681 C 0.55055 0.60787 0.26285 0.0
C682 C 0.51251 0.59059 0.25823 0.0
C683 C 0.51088 0.57105 0.26466 0.0
C684 C 0.5292 0.57003 0.26996 0.0
H685 H 0.41622 0.44091 0.25422 0.0
H686 H 0.44834 0.4751 0.25436 0.0
C687 C 0.54882 0.58824 0.26932 0.0
C688 C 0.49014 0.55157 0.26431 0.0
H689 H 0.45848 0.50759 0.31326 0.0
C690 C 0.47779 0.5466 0.23304 0.0
C691 C 0.48287 0.53758 0.29394 0.0
C692 C 0.49473 0.54261 0.32909 0.0
C693 C 0.45872 0.52765 0.23018 0.0
C694 C 0.45187 0.51341 0.25934 0.0
C695 C 0.46395 0.51853 0.29085 0.0
C696 C 0.43233 0.4929 0.25752 0.0
C697 C 0.44626 0.52264 0.19573 0.0
C698 C 0.41274 0.49169 0.25917 0.0
C699 C 0.39433 0.47218 0.2593 0.0
C700 C 0.39523 0.45355 0.25767 0.0
C701 C 0.41494 0.45491 0.25539 0.0
C702 C 0.43332 0.47442 0.25554 0.0
H703 H 0.45506 0.53405 0.17393 0.0
H704 H 0.44186 0.50665 0.18627 0.0
H705 H 0.43155 0.5229 0.20088 0.0
H706 H 0.41172 0.50583 0.26101 0.0
H707 H 0.37942 0.4717 0.2611 0.0
H708 H 0.91834 0.53558 0.73678 0.0
H709 H 0.91748 0.50195 0.73542 0.0
H710 H 0.97901 0.53085 0.78316 0.0
H711 H 0.98015 0.56464 0.78451 0.0
H712 H 0.95007 0.49479 0.69968 0.0
H713 H 0.93936 0.47733 0.84677 0.0
H714 H 0.93245 0.4951 0.82549 0.0
H715 H 0.95945 0.50325 0.83374 0.0
C716 C 0.93165 0.5348 0.74724 0.0
C717 C 0.94931 0.55281 0.76081 0.0
C718 C 0.93114 0.51558 0.74632 0.0
C719 C 0.94813 0.51397 0.75933 0.0
C720 C 0.96569 0.5318 0.77324 0.0
H721 H 0.97945 0.41569 0.73395 0.0
H722 H 0.97927 0.44884 0.73305 0.0
C723 C 0.96631 0.55108 0.77392 0.0
C724 C 0.94768 0.49371 0.7576 0.0
H725 H 0.94457 0.45414 0.80992 0.0
C726 C 0.94887 0.48586 0.72373 0.0
C727 C 0.94595 0.48213 0.78904 0.0
C728 C 0.94409 0.48971 0.8259 0.0
C729 C 0.94864 0.46676 0.72054 0.0
C730 C 0.94723 0.45533 0.75204 0.0
C731 C 0.94577 0.46305 0.78586 0.0
C732 C 0.94703 0.43518 0.75051 0.0
C733 C 0.94965 0.45876 0.68357 0.0
C734 C 0.92896 0.41658 0.76057 0.0
C735 C 0.92896 0.39762 0.76097 0.0
C736 C 0.94715 0.39696 0.75172 0.0
C737 C 0.96518 0.41563 0.74118 0.0
C738 C 0.9651 0.43458 0.74055 0.0
H739 H 0.94689 0.46747 0.66183 0.0
H740 H 0.9654 0.46059 0.67947 0.0
H741 H 0.93789 0.44183 0.68112 0.0
H742 H 0.91489 0.41678 0.76843 0.0
H743 H 0.91482 0.38358 0.76933 0.0
H744 H 0.41422 0.97286 0.28619 0.0
H745 H 0.44594 0.9701 0.28594 0.0
H746 H 0.41115 0.90803 0.24068 0.0
H747 H 0.3793 0.9106 0.24063 0.0
H748 H 0.45323 0.93889 0.31937 0.0
H749 H 0.4611 0.94121 0.16993 0.0
H750 H 0.44469 0.94927 0.19299 0.0
H751 H 0.43608 0.92191 0.18781 0.0
C752 C 0.41325 0.95858 0.27626 0.0
C753 C 0.39422 0.942 0.26322 0.0
C754 C 0.4314 0.95703 0.2762 0.0
C755 C 0.43091 0.93898 0.26288 0.0
C756 C 0.41189 0.92221 0.25059 0.0
H757 H 0.53238 0.9106 0.28506 0.0
H758 H 0.49801 0.90821 0.285 0.0
C759 C 0.39369 0.92369 0.25075 0.0
C760 C 0.45042 0.93789 0.26155 0.0
H761 H 0.48584 0.93678 0.20345 0.0
C762 C 0.46033 0.93832 0.29408 0.0
C763 C 0.45968 0.93734 0.22844 0.0
C764 C 0.44999 0.93756 0.19272 0.0
C765 C 0.47936 0.93825 0.29438 0.0
C766 C 0.48856 0.93759 0.26128 0.0
C767 C 0.47862 0.93712 0.22875 0.0
C768 C 0.50905 0.93844 0.25986 0.0
C769 C 0.48978 0.93948 0.33003 0.0
C770 C 0.52647 0.95598 0.24487 0.0
C771 C 0.5461 0.95741 0.24481 0.0
C772 C 0.54865 0.94123 0.25953 0.0
C773 C 0.531 0.92338 0.27362 0.0
C774 C 0.51136 0.92202 0.27378 0.0
H775 H 0.48275 0.94392 0.35245 0.0
H776 H 0.48797 0.92394 0.33639 0.0
H777 H 0.50681 0.95104 0.32866 0.0
H778 H 0.52494 0.96878 0.23386 0.0
H779 H 0.55932 0.97134 0.23361 0.0
H780 H 0.58841 0.56267 0.75493 0.0
H781 H 0.55566 0.52918 0.75462 0.0
H782 H 0.59025 0.49648 0.76544 0.0
H783 H 0.62315 0.53 0.76668 0.0
H784 H 0.54141 0.49588 0.70908 0.0
H785 H 0.54869 0.47179 0.84777 0.0
H786 H 0.56537 0.49805 0.83111 0.0
H787 H 0.57042 0.47736 0.81884 0.0
C788 C 0.58911 0.54838 0.75722 0.0
C789 C 0.60843 0.54904 0.7611 0.0
C790 C 0.57035 0.52923 0.75705 0.0
C791 C 0.57048 0.51035 0.76071 0.0
C792 C 0.58975 0.51089 0.76352 0.0
H793 H 0.46906 0.38043 0.75869 0.0
H794 H 0.50328 0.41259 0.75865 0.0
C795 C 0.60855 0.53006 0.76395 0.0
C796 C 0.55039 0.49017 0.76125 0.0
H797 H 0.52015 0.44685 0.81279 0.0
C798 C 0.53675 0.48518 0.73178 0.0
C799 C 0.54434 0.47623 0.79094 0.0
C800 C 0.55786 0.48116 0.82412 0.0
C801 C 0.51727 0.46661 0.73112 0.0
C802 C 0.51122 0.45277 0.76081 0.0
C803 C 0.52491 0.45755 0.79009 0.0
C804 C 0.49055 0.43336 0.76211 0.0
C805 C 0.50333 0.46182 0.69855 0.0
C806 C 0.47214 0.43447 0.76481 0.0
C807 C 0.45257 0.41616 0.76505 0.0
C808 C 0.45108 0.3964 0.7625 0.0
C809 C 0.46963 0.39538 0.76054 0.0
C810 C 0.4892 0.41372 0.76054 0.0
H811 H 0.512 0.47177 0.67506 0.0
H812 H 0.49633 0.44509 0.69073 0.0
H813 H 0.49033 0.46475 0.70521 0.0
H814 H 0.47292 0.44952 0.76652 0.0
H815 H 0.43862 0.41752 0.76665 0.0
H816 H 0.14378 0.43072 0.22634 0.0
H817 H 0.17494 0.42721 0.22908 0.0
H818 H 0.14011 0.369 0.28722 0.0
H819 H 0.10882 0.37269 0.28539 0.0
H820 H 0.17835 0.39323 0.316 0.0
H821 H 0.18646 0.38864 0.16859 0.0
H822 H 0.18579 0.41182 0.18095 0.0
H823 H 0.16319 0.38643 0.18903 0.0
C824 C 0.14271 0.41717 0.23978 0.0
C825 C 0.12378 0.40191 0.25547 0.0
C826 C 0.16051 0.41509 0.24103 0.0
C827 C 0.15971 0.39755 0.25745 0.0
C828 C 0.141 0.38255 0.27403 0.0
H829 H 0.26535 0.37478 0.23127 0.0
H830 H 0.23035 0.37103 0.22844 0.0
C831 C 0.12317 0.3847 0.27306 0.0
C832 C 0.17865 0.39532 0.25805 0.0
H833 H 0.21694 0.39681 0.20402 0.0
C834 C 0.18665 0.39375 0.29149 0.0
C835 C 0.18924 0.39551 0.22603 0.0
C836 C 0.1806 0.39545 0.18912 0.0
C837 C 0.2055 0.39343 0.29389 0.0
C838 C 0.21692 0.39527 0.26202 0.0
C839 C 0.20838 0.39577 0.22848 0.0
C840 C 0.23812 0.39759 0.26308 0.0
C841 C 0.21296 0.39111 0.33058 0.0
C842 C 0.25422 0.41409 0.2826 0.0
C843 C 0.27409 0.41618 0.28441 0.0
C844 C 0.2784 0.40201 0.26624 0.0
C845 C 0.2625 0.38593 0.24557 0.0
C846 C 0.2425 0.38374 0.24401 0.0
H847 H 0.19967 0.38301 0.34975 0.0
H848 H 0.22142 0.38219 0.32903 0.0
H849 H 0.22379 0.40689 0.34171 0.0
H850 H 0.25142 0.42537 0.29656 0.0
H851 H 0.28606 0.42888 0.30026 0.0
H852 H 0.86069 0.28834 0.79849 0.0
H853 H 0.82964 0.25358 0.79586 0.0
H854 H 0.86389 0.23114 0.73351 0.0
H855 H 0.89504 0.26623 0.7352 0.0
H856 H 0.82543 0.2172 0.70659 0.0
H857 H 0.81883 0.20289 0.85355 0.0
H858 H 0.81921 0.2268 0.84281 0.0
H859 H 0.84182 0.22429 0.83307 0.0
C860 C 0.86166 0.27604 0.78418 0.0
C861 C 0.88037 0.28001 0.76722 0.0
C862 C 0.84393 0.2561 0.783 0.0
C863 C 0.8446 0.23959 0.76538 0.0
C864 C 0.8631 0.2436 0.74763 0.0
H865 H 0.73898 0.11088 0.78986 0.0
H866 H 0.77404 0.14207 0.79279 0.0
C867 C 0.88086 0.26365 0.74852 0.0
C868 C 0.8257 0.21839 0.76463 0.0
H869 H 0.7879 0.181 0.81864 0.0
C870 C 0.81737 0.20916 0.7311 0.0
C871 C 0.81541 0.20763 0.79662 0.0
C872 C 0.82442 0.21581 0.83352 0.0
C873 C 0.7985 0.19001 0.72865 0.0
C874 C 0.78737 0.18011 0.76058 0.0
C875 C 0.79623 0.18878 0.79415 0.0
C876 C 0.76612 0.16128 0.75959 0.0
C877 C 0.7907 0.18061 0.69182 0.0
C878 C 0.74991 0.16193 0.74091 0.0
C879 C 0.73001 0.14419 0.73903 0.0
C880 C 0.72577 0.1255 0.75633 0.0
C881 C 0.74178 0.12506 0.77625 0.0
C882 C 0.76181 0.14283 0.77785 0.0
H883 H 0.80384 0.18595 0.67226 0.0
H884 H 0.78219 0.16322 0.69283 0.0
H885 H 0.77985 0.18574 0.68153 0.0
H886 H 0.75265 0.17618 0.72762 0.0
H887 H 0.71796 0.14513 0.7238 0.0
H888 H 0.58472 0.71999 0.20184 0.0
H889 H 0.58624 0.75373 0.20561 0.0
H890 H 0.62009 0.76677 0.30596 0.0
H891 H 0.61905 0.73302 0.30198 0.0
H892 H 0.57005 0.76771 0.25653 0.0
H893 H 0.65627 0.82005 0.24857 0.0
H894 H 0.64362 0.79246 0.23807 0.0
H895 H 0.64791 0.80105 0.28425 0.0
C896 C 0.59256 0.73002 0.22472 0.0
C897 C 0.6018 0.72383 0.25162 0.0
C898 C 0.59342 0.74933 0.22679 0.0
C899 C 0.60353 0.76291 0.25577 0.0
C900 C 0.61261 0.75674 0.28293 0.0
H901 H 0.58414 0.86459 0.32035 0.0
H902 H 0.58533 0.83224 0.31492 0.0
C903 C 0.61186 0.73739 0.28078 0.0
C904 C 0.60376 0.78313 0.25789 0.0
H905 H 0.63605 0.83622 0.26195 0.0
C906 C 0.58449 0.78269 0.25764 0.0
C907 C 0.62262 0.80267 0.25873 0.0
C908 C 0.6438 0.80419 0.25707 0.0
C909 C 0.58353 0.80121 0.25871 0.0
C910 C 0.60235 0.82072 0.2609 0.0
C911 C 0.62165 0.82123 0.26056 0.0
C912 C 0.60221 0.84069 0.2643 0.0
C913 C 0.56235 0.79972 0.25695 0.0
C914 C 0.61186 0.85647 0.2381 0.0
C915 C 0.61134 0.87516 0.24123 0.0
C916 C 0.60123 0.87834 0.2707 0.0
C917 C 0.59188 0.86259 0.29711 0.0
C918 C 0.59247 0.84402 0.29401 0.0
H919 H 0.5503 0.7846 0.24507 0.0
H920 H 0.55721 0.80072 0.28466 0.0
H921 H 0.56305 0.81273 0.24075 0.0
H922 H 0.61957 0.85423 0.21505 0.0
H923 H 0.61877 0.88703 0.22056 0.0
H924 H 0.89422 0.62806 0.79277 0.0
H925 H 0.86188 0.62979 0.7963 0.0
H926 H 0.8302 0.57434 0.73018 0.0
H927 H 0.8625 0.57295 0.72558 0.0
H928 H 0.82258 0.6041 0.70684 0.0
H929 H 0.80977 0.59475 0.85481 0.0
H930 H 0.83472 0.61648 0.84207 0.0
H931 H 0.82879 0.59017 0.83219 0.0
C932 C 0.88027 0.61612 0.77937 0.0
C933 C 0.88088 0.60035 0.75897 0.0
C934 C 0.86179 0.61708 0.78149 0.0
C935 C 0.84353 0.60206 0.76382 0.0
C936 C 0.84408 0.58613 0.74398 0.0
H937 H 0.71593 0.57021 0.79981 0.0
H938 H 0.75007 0.57255 0.7956 0.0
C939 C 0.86255 0.58531 0.74149 0.0
C940 C 0.82392 0.60311 0.76479 0.0
H941 H 0.78684 0.60206 0.82138 0.0
C942 C 0.81475 0.60367 0.73189 0.0
C943 C 0.81367 0.6024 0.79748 0.0
C944 C 0.82211 0.60072 0.83364 0.0
C945 C 0.79547 0.60318 0.73071 0.0
C946 C 0.78533 0.60272 0.76341 0.0
C947 C 0.79468 0.60252 0.79632 0.0
C948 C 0.76446 0.60119 0.76427 0.0
C949 C 0.78579 0.60235 0.69444 0.0
C950 C 0.76109 0.61644 0.7478 0.0
C951 C 0.74139 0.61494 0.74968 0.0
C952 C 0.72489 0.59839 0.76867 0.0
C953 C 0.72833 0.58317 0.78501 0.0
C954 C 0.74787 0.58452 0.78273 0.0
H955 H 0.79266 0.5972 0.6728 0.0
H956 H 0.76858 0.59152 0.69497 0.0
H957 H 0.78876 0.61823 0.68734 0.0
H958 H 0.77377 0.6297 0.73409 0.0
H959 H 0.73927 0.62703 0.73718 0.0
H960 H 0.28243 0.86507 0.19942 0.0
H961 H 0.24898 0.83245 0.20223 0.0
H962 H 0.23629 0.85035 0.30587 0.0
H963 H 0.26971 0.88348 0.30283 0.0
H964 H 0.23568 0.80103 0.24989 0.0
H965 H 0.18241 0.83389 0.25183 0.0
H966 H 0.20991 0.84952 0.24098 0.0
H967 H 0.20159 0.8437 0.28722 0.0
C968 C 0.27253 0.86215 0.22283 0.0
C969 C 0.27871 0.8769 0.25091 0.0
C970 C 0.25338 0.84348 0.22435 0.0
C971 C 0.23998 0.83907 0.25398 0.0
C972 C 0.24616 0.85364 0.28233 0.0
H973 H 0.14032 0.716 0.31432 0.0
H974 H 0.17271 0.74946 0.30837 0.0
C975 C 0.26533 0.87248 0.28071 0.0
C976 C 0.21992 0.81886 0.25546 0.0
H977 H 0.16684 0.79725 0.26273 0.0
C978 C 0.22063 0.80022 0.25257 0.0
C979 C 0.20027 0.81782 0.25834 0.0
C980 C 0.1984 0.83729 0.25941 0.0
C981 C 0.20227 0.78057 0.25306 0.0
C982 C 0.18268 0.7795 0.25743 0.0
C983 C 0.1819 0.79812 0.25966 0.0
C984 C 0.16289 0.75917 0.26068 0.0
C985 C 0.20404 0.76116 0.24837 0.0
C986 C 0.14635 0.75369 0.23632 0.0
C987 C 0.12763 0.73454 0.23981 0.0
C988 C 0.12516 0.72062 0.26782 0.0
C989 C 0.14175 0.72625 0.29221 0.0
C990 C 0.16035 0.74536 0.28878 0.0
H991 H 0.2189 0.76477 0.23468 0.0
H992 H 0.20392 0.75452 0.27528 0.0
H993 H 0.19071 0.74904 0.23247 0.0
H994 H 0.14796 0.7642 0.21454 0.0
H995 H 0.1151 0.73071 0.22073 0.0
H996 H 0.37342 0.26593 0.79002 0.0
H997 H 0.37125 0.23165 0.7937 0.0
H998 H 0.42745 0.25518 0.72954 0.0
H999 H 0.42934 0.28909 0.72483 0.0
H1000 H 0.39755 0.2178 0.70555 0.0
H1001 H 0.40559 0.21437 0.85391 0.0
H1002 H 0.38416 0.21784 0.84024 0.0
H1003 H 0.41065 0.23804 0.83099 0.0
C1004 C 0.38542 0.26381 0.77704 0.0
C1005 C 0.40157 0.2802 0.75721 0.0
C1006 C 0.3842 0.24425 0.77925 0.0
C1007 C 0.39932 0.2409 0.76221 0.0
C1008 C 0.41559 0.25737 0.74285 0.0
H1009 H 0.43137 0.14566 0.80006 0.0
H1010 H 0.42875 0.17728 0.79538 0.0
C1011 C 0.41668 0.27678 0.74029 0.0
C1012 C 0.39811 0.22018 0.76348 0.0
H1013 H 0.39876 0.18422 0.82069 0.0
C1014 C 0.39777 0.21042 0.73073 0.0
C1015 C 0.39855 0.21066 0.79634 0.0
C1016 C 0.39995 0.22082 0.83237 0.0
C1017 C 0.39827 0.19162 0.72988 0.0
C1018 C 0.39852 0.182 0.76275 0.0
C1019 C 0.39846 0.19156 0.79551 0.0
C1020 C 0.40017 0.16274 0.76396 0.0
C1021 C 0.39934 0.18272 0.69379 0.0
C1022 C 0.38504 0.14401 0.74761 0.0
C1023 C 0.38668 0.12591 0.74979 0.0
C1024 C 0.40327 0.12616 0.76893 0.0
C1025 C 0.41838 0.14494 0.78515 0.0
C1026 C 0.41687 0.16302 0.78261 0.0
H1027 H 0.40448 0.19465 0.67202 0.0
H1028 H 0.41029 0.17649 0.69468 0.0
H1029 H 0.38354 0.16966 0.68665 0.0
H1030 H 0.37177 0.14329 0.73373 0.0
H1031 H 0.37468 0.1116 0.73735 0.0
loop_
_geom_bond_atom_site_label_1
_geom_bond_atom_site_label_2
_geom_bond_distance
_geom_bond_site_symmetry_2
_ccdc_geom_bond_type
O0 Cd1 2.223 . S
O0 C8 1.315 . S
Cd1 O0 2.223 . S
Cd1 O4 2.297 . S
Cd1 O5 2.439 . S
Cd1 O11 2.240 . S
Cd2 O3 2.240 . S
Cd2 O10 2.223 . S
Cd2 O12 2.297 . S
Cd2 O13 2.439 . S
O3 Cd2 2.240 . S
O3 C8 1.279 . S
O4 Cd1 2.297 . S
O4 C6 1.247 . S
O5 Cd1 2.439 . S
O5 C6 1.208 . S
C6 O4 1.247 . S
C6 O5 1.208 . S
C7 O12 1.247 . S
C7 O13 1.208 . S
C8 O0 1.315 . S
C8 O3 1.279 . S
C9 O10 1.315 . S
C9 O11 1.279 . S
O10 Cd2 2.223 . S
O10 C9 1.315 . S
O11 Cd1 2.240 . S
O11 C9 1.279 . S
O12 Cd2 2.297 . S
O12 C7 1.247 . S
O13 Cd2 2.439 . S
O13 C7 1.208 . S
O14 Cd15 2.223 . S
O14 C22 1.315 . S
Cd15 O14 2.223 . S
Cd15 O18 2.297 . S
Cd15 O19 2.439 . S
Cd15 O25 2.240 . S
Cd16 O17 2.240 . S
Cd16 O24 2.223 . S
Cd16 O26 2.297 . S
Cd16 O27 2.439 . S
O17 Cd16 2.240 . S
O17 C22 1.279 . S
O18 Cd15 2.297 . S
O18 C20 1.247 . S
O19 Cd15 2.439 . S
O19 C20 1.208 . S
C20 O18 1.247 . S
C20 O19 1.208 . S
C21 O26 1.247 . S
C21 O27 1.208 . S
C22 O14 1.315 . S
C22 O17 1.279 . S
C23 O24 1.315 . S
C23 O25 1.279 . S
O24 Cd16 2.223 . S
O24 C23 1.315 . S
O25 Cd15 2.240 . S
O25 C23 1.279 . S
O26 Cd16 2.297 . S
O26 C21 1.247 . S
O27 Cd16 2.439 . S
O27 C21 1.208 . S
O28 Cd29 2.223 . S
O28 C36 1.315 . S
Cd29 O28 2.223 . S
Cd29 O32 2.297 . S
Cd29 O33 2.439 . S
Cd29 O39 2.240 . S
Cd30 O31 2.240 . S
Cd30 O38 2.223 . S
Cd30 O40 2.297 . S
Cd30 O41 2.439 . S
O31 Cd30 2.240 . S
O31 C36 1.279 . S
O32 Cd29 2.297 . S
O32 C34 1.247 . S
O33 Cd29 2.439 . S
O33 C34 1.208 . S
C34 O32 1.247 . S
C34 O33 1.208 . S
C35 O40 1.247 . S
C35 O41 1.208 . S
C36 O28 1.315 . S
C36 O31 1.279 . S
C37 O38 1.315 . S
C37 O39 1.279 . S
O38 Cd30 2.223 . S
O38 C37 1.315 . S
O39 Cd29 2.240 . S
O39 C37 1.279 . S
O40 Cd30 2.297 . S
O40 C35 1.247 . S
O41 Cd30 2.439 . S
O41 C35 1.208 . S
O42 Cd43 2.223 . S
O42 C50 1.315 . S
Cd43 O42 2.223 . S
Cd43 O46 2.297 . S
Cd43 O47 2.439 . S
Cd43 O53 2.240 . S
Cd44 O45 2.240 . S
Cd44 O52 2.223 . S
Cd44 O54 2.297 . S
Cd44 O55 2.439 . S
O45 Cd44 2.240 . S
O45 C50 1.279 . S
O46 Cd43 2.297 . S
O46 C48 1.247 . S
O47 Cd43 2.439 . S
O47 C48 1.208 . S
C48 O46 1.247 . S
C48 O47 1.208 . S
C49 O54 1.247 . S
C49 O55 1.208 . S
C50 O42 1.315 . S
C50 O45 1.279 . S
C51 O52 1.315 . S
C51 O53 1.279 . S
O52 Cd44 2.223 . S
O52 C51 1.315 . S
O53 Cd43 2.240 . S
O53 C51 1.279 . S
O54 Cd44 2.297 . S
O54 C49 1.247 . S
O55 Cd44 2.439 . S
O55 C49 1.208 . S
O56 Cd57 2.223 . S
O56 C64 1.315 . S
Cd57 O56 2.223 . S
Cd57 O60 2.297 . S
Cd57 O61 2.439 . S
Cd57 O67 2.240 . S
Cd58 O59 2.240 . S
Cd58 O66 2.223 . S
Cd58 O68 2.297 . S
Cd58 O69 2.439 . S
O59 Cd58 2.240 . S
O59 C64 1.279 . S
O60 Cd57 2.297 . S
O60 C62 1.247 . S
O61 Cd57 2.439 . S
O61 C62 1.208 . S
C62 O60 1.247 . S
C62 O61 1.208 . S
C63 O68 1.247 . S
C63 O69 1.208 . S
C64 O56 1.315 . S
C64 O59 1.279 . S
C65 O66 1.315 . S
C65 O67 1.279 . S
O66 Cd58 2.223 . S
O66 C65 1.315 . S
O67 Cd57 2.240 . S
O67 C65 1.279 . S
O68 Cd58 2.297 . S
O68 C63 1.247 . S
O69 Cd58 2.439 . S
O69 C63 1.208 . S
O70 Cd71 2.223 . S
O70 C78 1.315 . S
Cd71 O70 2.223 . S
Cd71 O74 2.297 . S
Cd71 O75 2.439 . S
Cd71 O81 2.240 . S
Cd72 O73 2.240 . S
Cd72 O80 2.223 . S
Cd72 O82 2.297 . S
Cd72 O83 2.439 . S
O73 Cd72 2.240 . S
O73 C78 1.279 . S
O74 Cd71 2.297 . S
O74 C76 1.247 . S
O75 Cd71 2.439 . S
O75 C76 1.208 . S
C76 O74 1.247 . S
C76 O75 1.208 . S
C77 O82 1.247 . S
C77 O83 1.208 . S
C78 O70 1.315 . S
C78 O73 1.279 . S
C79 O80 1.315 . S
C79 O81 1.279 . S
O80 Cd72 2.223 . S
O80 C79 1.315 . S
O81 Cd71 2.240 . S
O81 C79 1.279 . S
O82 Cd72 2.297 . S
O82 C77 1.247 . S
O83 Cd72 2.439 . S
O83 C77 1.208 . S
O84 Cd85 2.223 . S
O84 C92 1.315 . S
Cd85 O84 2.223 . S
Cd85 O88 2.297 . S
Cd85 O89 2.439 . S
Cd85 O95 2.240 . S
Cd86 O87 2.240 . S
Cd86 O94 2.223 . S
Cd86 O96 2.297 . S
Cd86 O97 2.439 . S
O87 Cd86 2.240 . S
O87 C92 1.279 . S
O88 Cd85 2.297 . S
O88 C90 1.247 . S
O89 Cd85 2.439 . S
O89 C90 1.208 . S
C90 O88 1.247 . S
C90 O89 1.208 . S
C91 O96 1.247 . S
C91 O97 1.208 . S
C92 O84 1.315 . S
C92 O87 1.279 . S
C93 O94 1.315 . S
C93 O95 1.279 . S
O94 Cd86 2.223 . S
O94 C93 1.315 . S
O95 Cd85 2.240 . S
O95 C93 1.279 . S
O96 Cd86 2.297 . S
O96 C91 1.247 . S
O97 Cd86 2.439 . S
O97 C91 1.208 . S
O98 Cd99 2.223 . S
O98 C106 1.315 . S
Cd99 O98 2.223 . S
Cd99 O102 2.297 . S
Cd99 O103 2.439 . S
Cd99 O109 2.240 . S
Cd100 O101 2.240 . S
Cd100 O108 2.223 . S
Cd100 O110 2.297 . S
Cd100 O111 2.439 . S
O101 Cd100 2.240 . S
O101 C106 1.279 . S
O102 Cd99 2.297 . S
O102 C104 1.247 . S
O103 Cd99 2.439 . S
O103 C104 1.208 . S
C104 O102 1.247 . S
C104 O103 1.208 . S
C105 O110 1.247 . S
C105 O111 1.208 . S
C106 O98 1.315 . S
C106 O101 1.279 . S
C107 O108 1.315 . S
C107 O109 1.279 . S
O108 Cd100 2.223 . S
O108 C107 1.315 . S
O109 Cd99 2.240 . S
O109 C107 1.279 . S
O110 Cd100 2.297 . S
O110 C105 1.247 . S
O111 Cd100 2.439 . S
O111 C105 1.208 . S
O112 Cd113 2.223 . S
O112 C120 1.315 . S
Cd113 O112 2.223 . S
Cd113 O116 2.297 . S
Cd113 O117 2.439 . S
Cd113 O123 2.240 . S
Cd114 O115 2.240 . S
Cd114 O122 2.223 . S
Cd114 O124 2.297 . S
Cd114 O125 2.439 . S
O115 Cd114 2.240 . S
O115 C120 1.279 . S
O116 Cd113 2.297 . S
O116 C118 1.247 . S
O117 Cd113 2.439 . S
O117 C118 1.208 . S
C118 O116 1.247 . S
C118 O117 1.208 . S
C119 O124 1.247 . S
C119 O125 1.208 . S
C120 O112 1.315 . S
C120 O115 1.279 . S
C121 O122 1.315 . S
C121 O123 1.279 . S
O122 Cd114 2.223 . S
O122 C121 1.315 . S
O123 Cd113 2.240 . S
O123 C121 1.279 . S
O124 Cd114 2.297 . S
O124 C119 1.247 . S
O125 Cd114 2.439 . S
O125 C119 1.208 . S
O126 Cd127 2.223 . S
O126 C134 1.315 . S
Cd127 O126 2.223 . S
Cd127 O130 2.297 . S
Cd127 O131 2.439 . S
Cd127 O137 2.240 . S
Cd128 O129 2.240 . S
Cd128 O136 2.223 . S
Cd128 O138 2.297 . S
Cd128 O139 2.439 . S
O129 Cd128 2.240 . S
O129 C134 1.279 . S
O130 Cd127 2.297 . S
O130 C132 1.247 . S
O131 Cd127 2.439 . S
O131 C132 1.208 . S
C132 O130 1.247 . S
C132 O131 1.208 . S
C133 O138 1.247 . S
C133 O139 1.208 . S
C134 O126 1.315 . S
C134 O129 1.279 . S
C135 O136 1.315 . S
C135 O137 1.279 . S
O136 Cd128 2.223 . S
O136 C135 1.315 . S
O137 Cd127 2.240 . S
O137 C135 1.279 . S
O138 Cd128 2.297 . S
O138 C133 1.247 . S
O139 Cd128 2.439 . S
O139 C133 1.208 . S
O140 Cd141 2.223 . S
O140 C148 1.315 . S
Cd141 O140 2.223 . S
Cd141 O144 2.297 . S
Cd141 O145 2.439 . S
Cd141 O151 2.240 . S
Cd142 O143 2.240 . S
Cd142 O150 2.223 . S
Cd142 O152 2.297 . S
Cd142 O153 2.439 . S
O143 Cd142 2.240 . S
O143 C148 1.279 . S
O144 Cd141 2.297 . S
O144 C146 1.247 . S
O145 Cd141 2.439 . S
O145 C146 1.208 . S
C146 O144 1.247 . S
C146 O145 1.208 . S
C147 O152 1.247 . S
C147 O153 1.208 . S
C148 O140 1.315 . S
C148 O143 1.279 . S
C149 O150 1.315 . S
C149 O151 1.279 . S
O150 Cd142 2.223 . S
O150 C149 1.315 . S
O151 Cd141 2.240 . S
O151 C149 1.279 . S
O152 Cd142 2.297 . S
O152 C147 1.247 . S
O153 Cd142 2.439 . S
O153 C147 1.208 . S
O154 Cd155 2.223 . S
O154 C162 1.315 . S
Cd155 O154 2.223 . S
Cd155 O158 2.297 . S
Cd155 O159 2.439 . S
Cd155 O165 2.240 . S
Cd156 O157 2.240 . S
Cd156 O164 2.223 . S
Cd156 O166 2.297 . S
Cd156 O167 2.439 . S
O157 Cd156 2.240 . S
O157 C162 1.279 . S
O158 Cd155 2.297 . S
O158 C160 1.247 . S
O159 Cd155 2.439 . S
O159 C160 1.208 . S
C160 O158 1.247 . S
C160 O159 1.208 . S
C161 O166 1.247 . S
C161 O167 1.208 . S
C162 O154 1.315 . S
C162 O157 1.279 . S
C163 O164 1.315 . S
C163 O165 1.279 . S
O164 Cd156 2.223 . S
O164 C163 1.315 . S
O165 Cd155 2.240 . S
O165 C163 1.279 . S
O166 Cd156 2.297 . S
O166 C161 1.247 . S
O167 Cd156 2.439 . S
O167 C161 1.208 . S
H168 C176 0.929 . S
H169 C178 0.930 . S
H170 C180 0.930 . S
H171 C183 0.929 . S
H172 C186 0.930 . S
H173 C188 0.960 . S
H174 C188 0.960 . S
H175 C188 0.960 . S
C176 H168 0.929 . S
C176 C177 1.377 . S
C176 C178 1.384 . S
C177 C176 1.377 . S
C177 C183 1.390 . S
C178 H169 0.930 . S
C178 C176 1.384 . S
C178 C179 1.372 . S
C179 C178 1.372 . S
C179 C180 1.400 . S
C179 C184 1.490 . S
C180 H170 0.930 . S
C180 C179 1.400 . S
C180 C183 1.386 . S
H181 C197 0.930 . S
H182 C198 0.931 . S
C183 H171 0.929 . S
C183 C177 1.390 . S
C183 C180 1.386 . S
C184 C179 1.490 . S
C184 C186 1.395 . S
C184 C187 1.403 1_455 S
H185 C191 0.930 . S
C186 H172 0.930 . S
C186 C184 1.395 . S
C186 C189 1.403 1_554 S
C187 C184 1.403 1_655 S
C187 C188 1.524 . S
C187 C191 1.400 1_554 S
C188 H173 0.960 . S
C188 H174 0.960 . S
C188 H175 0.960 . S
C188 C187 1.524 . S
C189 C186 1.403 1_556 S
C189 C190 1.392 1_455 S
C189 C193 1.495 . S
C190 C189 1.392 1_655 S
C190 C191 1.385 . S
C190 C192 1.478 . S
C191 H185 0.930 . S
C191 C187 1.400 1_556 S
C191 C190 1.385 . S
C192 C190 1.478 . S
C192 C194 1.381 . S
C192 C198 1.383 . S
C193 C189 1.495 . S
C193 H199 0.959 . S
C193 H200 0.961 . S
C193 H201 0.960 . S
C194 C192 1.381 . S
C194 C195 1.394 . S
C194 H202 0.930 . S
C195 C194 1.394 . S
C195 C196 1.383 . S
C195 H203 0.929 . S
C196 C195 1.383 . S
C196 C197 1.377 . S
C197 H181 0.930 . S
C197 C196 1.377 . S
C197 C198 1.379 . S
C198 H182 0.931 . S
C198 C192 1.383 . S
C198 C197 1.379 . S
H199 C193 0.959 . S
H200 C193 0.961 . S
H201 C193 0.960 . S
H202 C194 0.930 . S
H203 C195 0.929 . S
H204 C212 0.929 . S
H205 C214 0.930 1_545 S
H206 C216 0.930 . S
H207 C219 0.929 . S
H208 C222 0.930 . S
H209 C224 0.960 . S
H210 C224 0.960 . S
H211 C224 0.960 1_565 S
C212 H204 0.929 . S
C212 C213 1.377 . S
C212 C214 1.384 . S
C213 C212 1.377 . S
C213 C219 1.390 . S
C214 H205 0.930 1_565 S
C214 C212 1.384 . S
C214 C215 1.372 . S
C215 C214 1.372 . S
C215 C216 1.400 . S
C215 C220 1.490 . S
C216 H206 0.930 . S
C216 C215 1.400 . S
C216 C219 1.386 . S
H217 C233 0.930 . S
H218 C234 0.931 1_565 S
C219 H207 0.929 . S
C219 C213 1.390 . S
C219 C216 1.386 . S
C220 C215 1.490 . S
C220 C222 1.395 . S
C220 C223 1.403 1_565 S
H221 C227 0.930 . S
C222 H208 0.930 . S
C222 C220 1.395 . S
C222 C225 1.403 . S
C223 C220 1.403 1_545 S
C223 C224 1.524 . S
C223 C227 1.400 . S
C224 H209 0.960 . S
C224 H210 0.960 . S
C224 H211 0.960 1_545 S
C224 C223 1.524 . S
C225 C222 1.403 . S
C225 C226 1.392 1_565 S
C225 C229 1.495 . S
C226 C225 1.392 1_545 S
C226 C227 1.385 . S
C226 C228 1.478 . S
C227 H221 0.930 . S
C227 C223 1.400 . S
C227 C226 1.385 . S
C228 C226 1.478 . S
C228 C230 1.381 . S
C228 C234 1.383 . S
C229 C225 1.495 . S
C229 H235 0.959 . S
C229 H236 0.961 . S
C229 H237 0.960 1_565 S
C230 C228 1.381 . S
C230 C231 1.394 . S
C230 H238 0.930 . S
C231 C230 1.394 . S
C231 C232 1.383 . S
C231 H239 0.929 . S
C232 C231 1.383 . S
C232 C233 1.377 . S
C233 H217 0.930 . S
C233 C232 1.377 . S
C233 C234 1.379 . S
C234 H218 0.931 1_545 S
C234 C228 1.383 . S
C234 C233 1.379 . S
H235 C229 0.959 . S
H236 C229 0.961 . S
H237 C229 0.960 1_545 S
H238 C230 0.930 . S
H239 C231 0.929 . S
H240 C248 0.929 . S
H241 C250 0.930 . S
H242 C252 0.930 . S
H243 C255 0.929 . S
H244 C258 0.930 . S
H245 C260 0.959 . S
H246 C260 0.960 . S
H247 C260 0.960 . S
C248 H240 0.929 . S
C248 C249 1.377 . S
C248 C250 1.384 . S
C249 C248 1.377 . S
C249 C255 1.390 . S
C250 H241 0.930 . S
C250 C248 1.384 . S
C250 C251 1.372 . S
C251 C250 1.372 . S
C251 C252 1.400 . S
C251 C256 1.490 . S
C252 H242 0.930 . S
C252 C251 1.400 . S
C252 C255 1.386 . S
H253 C269 0.930 . S
H254 C270 0.931 . S
C255 H243 0.929 . S
C255 C249 1.390 . S
C255 C252 1.386 . S
C256 C251 1.490 . S
C256 C258 1.395 . S
C256 C259 1.403 . S
H257 C263 0.930 . S
C258 H244 0.930 . S
C258 C256 1.395 . S
C258 C261 1.403 1_554 S
C259 C256 1.403 . S
C259 C260 1.524 . S
C259 C263 1.400 1_554 S
C260 H245 0.959 . S
C260 H246 0.960 . S
C260 H247 0.960 . S
C260 C259 1.524 . S
C261 C258 1.403 1_556 S
C261 C262 1.392 . S
C261 C265 1.495 . S
C262 C261 1.392 . S
C262 C263 1.385 . S
C262 C264 1.478 . S
C263 H257 0.930 . S
C263 C259 1.400 1_556 S
C263 C262 1.385 . S
C264 C262 1.478 . S
C264 C266 1.381 . S
C264 C270 1.383 . S
C265 C261 1.495 . S
C265 H271 0.959 . S
C265 H272 0.961 . S
C265 H273 0.960 . S
C266 C264 1.381 . S
C266 C267 1.394 . S
C266 H274 0.930 . S
C267 C266 1.394 . S
C267 C268 1.383 . S
C267 H275 0.929 . S
C268 C267 1.383 . S
C268 C269 1.377 . S
C269 H253 0.930 . S
C269 C268 1.377 . S
C269 C270 1.379 . S
C270 H254 0.931 . S
C270 C264 1.383 . S
C270 C269 1.379 . S
H271 C265 0.959 . S
H272 C265 0.961 . S
H273 C265 0.960 . S
H274 C266 0.930 . S
H275 C267 0.929 . S
H276 C284 0.929 . S
H277 C286 0.930 . S
H278 C288 0.930 1_655 S
H279 C291 0.929 . S
H280 C294 0.930 . S
H281 C296 0.960 . S
H282 C296 0.960 . S
H283 C296 0.960 . S
C284 H276 0.929 . S
C284 C285 1.377 . S
C284 C286 1.384 . S
C285 C284 1.377 . S
C285 C291 1.390 . S
C286 H277 0.930 . S
C286 C284 1.384 . S
C286 C287 1.372 . S
C287 C286 1.372 . S
C287 C288 1.400 . S
C287 C292 1.490 . S
C288 H278 0.930 1_455 S
C288 C287 1.400 . S
C288 C291 1.386 . S
H289 C305 0.930 . S
H290 C306 0.931 . S
C291 H279 0.929 . S
C291 C285 1.390 . S
C291 C288 1.386 . S
C292 C287 1.490 . S
C292 C294 1.395 . S
C292 C295 1.403 1_455 S
H293 C299 0.930 . S
C294 H280 0.930 . S
C294 C292 1.395 . S
C294 C297 1.403 . S
C295 C292 1.403 1_655 S
C295 C296 1.524 . S
C295 C299 1.400 . S
C296 H281 0.960 . S
C296 H282 0.960 . S
C296 H283 0.960 . S
C296 C295 1.524 . S
C297 C294 1.403 . S
C297 C298 1.392 1_455 S
C297 C301 1.495 . S
C298 C297 1.392 1_655 S
C298 C299 1.385 . S
C298 C300 1.478 . S
C299 H293 0.930 . S
C299 C295 1.400 . S
C299 C298 1.385 . S
C300 C298 1.478 . S
C300 C302 1.381 . S
C300 C306 1.383 . S
C301 C297 1.495 . S
C301 H307 0.959 . S
C301 H308 0.961 . S
C301 H309 0.960 . S
C302 C300 1.381 . S
C302 C303 1.394 . S
C302 H310 0.930 1_655 S
C303 C302 1.394 . S
C303 C304 1.383 . S
C303 H311 0.929 . S
C304 C303 1.383 . S
C304 C305 1.377 . S
C305 H289 0.930 . S
C305 C304 1.377 . S
C305 C306 1.379 . S
C306 H290 0.931 . S
C306 C300 1.383 . S
C306 C305 1.379 . S
H307 C301 0.959 . S
H308 C301 0.961 . S
H309 C301 0.960 . S
H310 C302 0.930 1_455 S
H311 C303 0.929 . S
H312 C320 0.929 . S
H313 C322 0.930 . S
H314 C324 0.930 . S
H315 C327 0.929 . S
H316 C330 0.930 . S
H317 C332 0.960 . S
H318 C332 0.960 . S
H319 C332 0.960 . S
C320 H312 0.929 . S
C320 C321 1.377 . S
C320 C322 1.384 . S
C321 C320 1.377 . S
C321 C327 1.390 . S
C322 H313 0.930 . S
C322 C320 1.384 . S
C322 C323 1.372 . S
C323 C322 1.372 . S
C323 C324 1.400 . S
C323 C328 1.490 . S
C324 H314 0.930 . S
C324 C323 1.400 . S
C324 C327 1.386 . S
H325 C341 0.930 . S
H326 C342 0.931 . S
C327 H315 0.929 . S
C327 C321 1.390 . S
C327 C324 1.386 . S
C328 C323 1.490 . S
C328 C330 1.395 . S
C328 C331 1.403 1_545 S
H329 C335 0.930 . S
C330 H316 0.930 . S
C330 C328 1.395 . S
C330 C333 1.403 1_556 S
C331 C328 1.403 1_565 S
C331 C332 1.524 . S
C331 C335 1.400 1_556 S
C332 H317 0.960 . S
C332 H318 0.960 . S
C332 H319 0.960 . S
C332 C331 1.524 . S
C333 C330 1.403 1_554 S
C333 C334 1.392 1_545 S
C333 C337 1.495 . S
C334 C333 1.392 1_565 S
C334 C335 1.385 . S
C334 C336 1.478 . S
C335 H329 0.930 . S
C335 C331 1.400 1_554 S
C335 C334 1.385 . S
C336 C334 1.478 . S
C336 C338 1.381 . S
C336 C342 1.383 . S
C337 C333 1.495 . S
C337 H343 0.959 . S
C337 H344 0.961 . S
C337 H345 0.960 . S
C338 C336 1.381 . S
C338 C339 1.394 . S
C338 H346 0.930 . S
C339 C338 1.394 . S
C339 C340 1.383 . S
C339 H347 0.929 . S
C340 C339 1.383 . S
C340 C341 1.377 . S
C341 H325 0.930 . S
C341 C340 1.377 . S
C341 C342 1.379 . S
C342 H326 0.931 . S
C342 C336 1.383 . S
C342 C341 1.379 . S
H343 C337 0.959 . S
H344 C337 0.961 . S
H345 C337 0.960 . S
H346 C338 0.930 . S
H347 C339 0.929 . S
H348 C356 0.929 . S
H349 C358 0.930 . S
H350 C360 0.930 . S
H351 C363 0.929 . S
H352 C366 0.930 . S
H353 C368 0.960 . S
H354 C368 0.960 . S
H355 C368 0.960 . S
C356 H348 0.929 . S
C356 C357 1.377 . S
C356 C358 1.384 . S
C357 C356 1.377 . S
C357 C363 1.390 . S
C358 H349 0.930 . S
C358 C356 1.384 . S
C358 C359 1.372 . S
C359 C358 1.372 . S
C359 C360 1.400 . S
C359 C364 1.490 . S
C360 H350 0.930 . S
C360 C359 1.400 . S
C360 C363 1.386 . S
H361 C377 0.930 . S
H362 C378 0.931 . S
C363 H351 0.929 . S
C363 C357 1.390 . S
C363 C360 1.386 . S
C364 C359 1.490 . S
C364 C366 1.395 . S
C364 C367 1.403 . S
H365 C371 0.930 . S
C366 H352 0.930 . S
C366 C364 1.395 . S
C366 C369 1.403 . S
C367 C364 1.403 . S
C367 C368 1.524 . S
C367 C371 1.400 . S
C368 H353 0.960 . S
C368 H354 0.960 . S
C368 H355 0.960 . S
C368 C367 1.524 . S
C369 C366 1.403 . S
C369 C370 1.392 . S
C369 C373 1.495 . S
C370 C369 1.392 . S
C370 C371 1.385 . S
C370 C372 1.478 . S
C371 H365 0.930 . S
C371 C367 1.400 . S
C371 C370 1.385 . S
C372 C370 1.478 . S
C372 C374 1.381 . S
C372 C378 1.383 . S
C373 C369 1.495 . S
C373 H379 0.959 . S
C373 H380 0.961 . S
C373 H381 0.960 . S
C374 C372 1.381 . S
C374 C375 1.394 . S
C374 H382 0.930 . S
C375 C374 1.394 . S
C375 C376 1.383 . S
C375 H383 0.929 . S
C376 C375 1.383 . S
C376 C377 1.377 . S
C377 H361 0.930 . S
C377 C376 1.377 . S
C377 C378 1.379 . S
C378 H362 0.931 . S
C378 C372 1.383 . S
C378 C377 1.379 . S
H379 C373 0.959 . S
H380 C373 0.961 . S
H381 C373 0.960 . S
H382 C374 0.930 . S
H383 C375 0.929 . S
H384 C392 0.929 1_455 S
H385 C394 0.930 . S
H386 C396 0.930 . S
H387 C399 0.929 . S
H388 C402 0.930 . S
H389 C404 0.960 . S
H390 C404 0.960 . S
H391 C404 0.960 . S
C392 H384 0.929 1_655 S
C392 C393 1.377 . S
C392 C394 1.384 1_655 S
C393 C392 1.377 . S
C393 C399 1.390 . S
C394 H385 0.930 . S
C394 C392 1.384 1_455 S
C394 C395 1.372 1_455 S
C395 C394 1.372 1_655 S
C395 C396 1.400 . S
C395 C400 1.490 . S
C396 H386 0.930 . S
C396 C395 1.400 . S
C396 C399 1.386 . S
H397 C413 0.930 1_655 S
H398 C414 0.931 . S
C399 H387 0.929 . S
C399 C393 1.390 . S
C399 C396 1.386 . S
C400 C395 1.490 . S
C400 C402 1.395 1_655 S
C400 C403 1.403 . S
H401 C407 0.930 . S
C402 H388 0.930 . S
C402 C400 1.395 1_455 S
C402 C405 1.403 1_556 S
C403 C400 1.403 . S
C403 C404 1.524 . S
C403 C407 1.400 1_556 S
C404 H389 0.960 . S
C404 H390 0.960 . S
C404 H391 0.960 . S
C404 C403 1.524 . S
C405 C402 1.403 1_554 S
C405 C406 1.392 . S
C405 C409 1.495 . S
C406 C405 1.392 . S
C406 C407 1.385 1_455 S
C406 C408 1.478 . S
C407 H401 0.930 . S
C407 C403 1.400 1_554 S
C407 C406 1.385 1_655 S
C408 C406 1.478 . S
C408 C410 1.381 . S
C408 C414 1.383 1_455 S
C409 C405 1.495 . S
C409 H415 0.959 . S
C409 H416 0.961 . S
C409 H417 0.960 . S
C410 C408 1.381 . S
C410 C411 1.394 . S
C410 H418 0.930 . S
C411 C410 1.394 . S
C411 C412 1.383 . S
C411 H419 0.929 . S
C412 C411 1.383 . S
C412 C413 1.377 . S
C413 H397 0.930 1_455 S
C413 C412 1.377 . S
C413 C414 1.379 1_455 S
C414 H398 0.931 . S
C414 C408 1.383 1_655 S
C414 C413 1.379 1_655 S
H415 C409 0.959 . S
H416 C409 0.961 . S
H417 C409 0.960 . S
H418 C410 0.930 . S
H419 C411 0.929 . S
H420 C428 0.929 . S
H421 C430 0.930 . S
H422 C432 0.930 . S
H423 C435 0.929 1_545 S
H424 C438 0.930 . S
H425 C440 0.960 1_545 S
H426 C440 0.960 . S
H427 C440 0.960 1_545 S
C428 H420 0.929 . S
C428 C429 1.377 . S
C428 C430 1.384 . S
C429 C428 1.377 . S
C429 C435 1.390 . S
C430 H421 0.930 . S
C430 C428 1.384 . S
C430 C431 1.372 . S
C431 C430 1.372 . S
C431 C432 1.400 1_565 S
C431 C436 1.490 . S
C432 H422 0.930 . S
C432 C431 1.400 1_545 S
C432 C435 1.386 1_545 S
H433 C449 0.930 . S
H434 C450 0.931 . S
C435 H423 0.929 1_565 S
C435 C429 1.390 . S
C435 C432 1.386 1_565 S
C436 C431 1.490 . S
C436 C438 1.395 . S
C436 C439 1.403 . S
H437 C443 0.930 . S
C438 H424 0.930 . S
C438 C436 1.395 . S
C438 C441 1.403 . S
C439 C436 1.403 . S
C439 C440 1.524 . S
C439 C443 1.400 1_565 S
C440 H425 0.960 1_565 S
C440 H426 0.960 . S
C440 H427 0.960 1_565 S
C440 C439 1.524 . S
C441 C438 1.403 . S
C441 C442 1.392 1_565 S
C441 C445 1.495 . S
C442 C441 1.392 1_545 S
C442 C443 1.385 . S
C442 C444 1.478 . S
C443 H437 0.930 . S
C443 C439 1.400 1_545 S
C443 C442 1.385 . S
C444 C442 1.478 . S
C444 C446 1.381 1_545 S
C444 C450 1.383 . S
C445 C441 1.495 . S
C445 H451 0.959 . S
C445 H452 0.961 1_565 S
C445 H453 0.960 . S
C446 C444 1.381 1_565 S
C446 C447 1.394 1_565 S
C446 H454 0.930 . S
C447 C446 1.394 1_545 S
C447 C448 1.383 . S
C447 H455 0.929 1_545 S
C448 C447 1.383 . S
C448 C449 1.377 . S
C449 H433 0.930 . S
C449 C448 1.377 . S
C449 C450 1.379 . S
C450 H434 0.931 . S
C450 C444 1.383 . S
C450 C449 1.379 . S
H451 C445 0.959 . S
H452 C445 0.961 1_545 S
H453 C445 0.960 . S
H454 C446 0.930 . S
H455 C447 0.929 1_565 S
H456 C464 0.929 . S
H457 C466 0.930 . S
H458 C468 0.930 . S
H459 C471 0.929 . S
H460 C474 0.930 . S
H461 C476 0.960 . S
H462 C476 0.960 . S
H463 C476 0.960 . S
C464 H456 0.929 . S
C464 C465 1.377 . S
C464 C466 1.384 . S
C465 C464 1.377 . S
C465 C471 1.390 . S
C466 H457 0.930 . S
C466 C464 1.384 . S
C466 C467 1.372 . S
C467 C466 1.372 . S
C467 C468 1.400 . S
C467 C472 1.490 . S
C468 H458 0.930 . S
C468 C467 1.400 . S
C468 C471 1.386 . S
H469 C485 0.930 . S
H470 C486 0.931 . S
C471 H459 0.929 . S
C471 C465 1.390 . S
C471 C468 1.386 . S
C472 C467 1.490 . S
C472 C474 1.395 . S
C472 C475 1.403 . S
H473 C479 0.930 . S
C474 H460 0.930 . S
C474 C472 1.395 . S
C474 C477 1.403 1_556 S
C475 C472 1.403 . S
C475 C476 1.524 . S
C475 C479 1.400 1_556 S
C476 H461 0.960 . S
C476 H462 0.960 . S
C476 H463 0.960 . S
C476 C475 1.524 . S
C477 C474 1.403 1_554 S
C477 C478 1.392 . S
C477 C481 1.495 . S
C478 C477 1.392 . S
C478 C479 1.385 . S
C478 C480 1.478 . S
C479 H473 0.930 . S
C479 C475 1.400 1_554 S
C479 C478 1.385 . S
C480 C478 1.478 . S
C480 C482 1.381 . S
C480 C486 1.383 . S
C481 C477 1.495 . S
C481 H487 0.959 . S
C481 H488 0.961 . S
C481 H489 0.960 . S
C482 C480 1.381 . S
C482 C483 1.394 . S
C482 H490 0.930 . S
C483 C482 1.394 . S
C483 C484 1.383 . S
C483 H491 0.929 . S
C484 C483 1.383 . S
C484 C485 1.377 . S
C485 H469 0.930 . S
C485 C484 1.377 . S
C485 C486 1.379 . S
C486 H470 0.931 . S
C486 C480 1.383 . S
C486 C485 1.379 . S
H487 C481 0.959 . S
H488 C481 0.961 . S
H489 C481 0.960 . S
H490 C482 0.930 . S
H491 C483 0.929 . S
H492 C500 0.929 . S
H493 C502 0.930 . S
H494 C504 0.913 1_455 S
H495 C507 0.929 1_455 S
H496 C510 0.930 . S
H497 C512 0.960 . S
H498 C512 0.960 . S
H499 C512 0.960 . S
C500 H492 0.929 . S
C500 C501 1.377 . S
C500 C502 1.384 . S
C501 C500 1.377 . S
C501 C507 1.390 . S
C502 H493 0.930 . S
C502 C500 1.384 . S
C502 C503 1.372 . S
C503 C502 1.372 . S
C503 C504 1.408 . S
C503 C508 1.490 . S
C504 H494 0.913 1_655 S
C504 C503 1.408 . S
C504 C507 1.397 . S
H505 C521 0.930 . S
H506 C522 0.931 . S
C507 H495 0.929 1_655 S
C507 C501 1.390 . S
C507 C504 1.397 . S
C508 C503 1.490 . S
C508 C510 1.395 . S
C508 C511 1.403 1_655 S
H509 C515 0.930 . S
C510 H496 0.930 . S
C510 C508 1.395 . S
C510 C513 1.403 . S
C511 C508 1.403 1_455 S
C511 C512 1.524 . S
C511 C515 1.400 . S
C512 H497 0.960 . S
C512 H498 0.960 . S
C512 H499 0.960 . S
C512 C511 1.524 . S
C513 C510 1.403 . S
C513 C514 1.392 1_655 S
C513 C517 1.495 . S
C514 C513 1.392 1_455 S
C514 C515 1.385 . S
C514 C516 1.478 . S
C515 H509 0.930 . S
C515 C511 1.400 . S
C515 C514 1.385 . S
C516 C514 1.478 . S
C516 C518 1.381 1_455 S
C516 C522 1.383 . S
C517 C513 1.495 . S
C517 H523 0.959 . S
C517 H524 0.961 . S
C517 H525 0.960 . S
C518 C516 1.381 1_655 S
C518 C519 1.394 1_655 S
C518 H526 0.930 . S
C519 C518 1.394 1_455 S
C519 C520 1.383 . S
C519 H527 0.929 1_455 S
C520 C519 1.383 . S
C520 C521 1.377 . S
C521 H505 0.930 . S
C521 C520 1.377 . S
C521 C522 1.379 . S
C522 H506 0.931 . S
C522 C516 1.383 . S
C522 C521 1.379 . S
H523 C517 0.959 . S
H524 C517 0.961 . S
H525 C517 0.960 . S
H526 C518 0.930 . S
H527 C519 0.929 1_655 S
H528 C536 0.929 . S
H529 C538 0.930 . S
H530 C540 0.930 . S
H531 C543 0.929 . S
H532 C546 0.930 . S
H533 C548 0.960 . S
H534 C548 0.960 . S
H535 C548 0.960 . S
C536 H528 0.929 . S
C536 C537 1.377 . S
C536 C538 1.384 . S
C537 C536 1.377 . S
C537 C543 1.390 . S
C538 H529 0.930 . S
C538 C536 1.384 . S
C538 C539 1.372 . S
C539 C538 1.372 . S
C539 C540 1.400 . S
C539 C544 1.490 . S
C540 H530 0.930 . S
C540 C539 1.400 . S
C540 C543 1.386 . S
H541 C557 0.930 . S
H542 C558 0.931 . S
C543 H531 0.929 . S
C543 C537 1.390 . S
C543 C540 1.386 . S
C544 C539 1.490 . S
C544 C546 1.395 . S
C544 C547 1.403 1_545 S
H545 C551 0.930 . S
C546 H532 0.930 . S
C546 C544 1.395 . S
C546 C549 1.403 1_556 S
C547 C544 1.403 1_565 S
C547 C548 1.524 . S
C547 C551 1.400 1_556 S
C548 H533 0.960 . S
C548 H534 0.960 . S
C548 H535 0.960 . S
C548 C547 1.524 . S
C549 C546 1.403 1_554 S
C549 C550 1.392 1_545 S
C549 C553 1.495 . S
C550 C549 1.392 1_565 S
C550 C551 1.385 . S
C550 C552 1.478 . S
C551 H545 0.930 . S
C551 C547 1.400 1_554 S
C551 C550 1.385 . S
C552 C550 1.478 . S
C552 C554 1.381 . S
C552 C558 1.383 . S
C553 C549 1.495 . S
C553 H559 0.959 . S
C553 H560 0.961 . S
C553 H561 0.960 . S
C554 C552 1.381 . S
C554 C555 1.394 . S
C554 H562 0.930 . S
C555 C554 1.394 . S
C555 C556 1.383 . S
C555 H563 0.929 . S
C556 C555 1.383 . S
C556 C557 1.377 . S
C557 H541 0.930 . S
C557 C556 1.377 . S
C557 C558 1.379 . S
C558 H542 0.931 . S
C558 C552 1.383 . S
C558 C557 1.379 . S
H559 C553 0.959 . S
H560 C553 0.961 . S
H561 C553 0.960 . S
H562 C554 0.930 . S
H563 C555 0.929 . S
H564 C572 0.929 . S
H565 C574 0.930 . S
H566 C576 0.930 . S
H567 C579 0.929 . S
H568 C582 0.930 . S
H569 C584 0.960 . S
H570 C584 0.960 . S
H571 C584 0.960 . S
C572 H564 0.929 . S
C572 C573 1.377 . S
C572 C574 1.384 . S
C573 C572 1.377 . S
C573 C579 1.390 . S
C574 H565 0.930 . S
C574 C572 1.384 . S
C574 C575 1.372 . S
C575 C574 1.372 . S
C575 C576 1.400 . S
C575 C580 1.490 . S
C576 H566 0.930 . S
C576 C575 1.400 . S
C576 C579 1.386 . S
H577 C593 0.930 . S
H578 C594 0.931 . S
C579 H567 0.929 . S
C579 C573 1.390 . S
C579 C576 1.386 . S
C580 C575 1.490 . S
C580 C582 1.395 . S
C580 C583 1.403 . S
H581 C587 0.930 . S
C582 H568 0.930 . S
C582 C580 1.395 . S
C582 C585 1.403 . S
C583 C580 1.403 . S
C583 C584 1.524 . S
C583 C587 1.400 . S
C584 H569 0.960 . S
C584 H570 0.960 . S
C584 H571 0.960 . S
C584 C583 1.524 . S
C585 C582 1.403 . S
C585 C586 1.392 . S
C585 C589 1.495 . S
C586 C585 1.392 . S
C586 C587 1.385 . S
C586 C588 1.478 . S
C587 H581 0.930 . S
C587 C583 1.400 . S
C587 C586 1.385 . S
C588 C586 1.478 . S
C588 C590 1.381 . S
C588 C594 1.383 . S
C589 C585 1.495 . S
C589 H595 0.959 . S
C589 H596 0.961 . S
C589 H597 0.960 . S
C590 C588 1.381 . S
C590 C591 1.394 . S
C590 H598 0.930 . S
C591 C590 1.394 . S
C591 C592 1.383 . S
C591 H599 0.929 . S
C592 C591 1.383 . S
C592 C593 1.377 . S
C593 H577 0.930 . S
C593 C592 1.377 . S
C593 C594 1.379 . S
C594 H578 0.931 . S
C594 C588 1.383 . S
C594 C593 1.379 . S
H595 C589 0.959 . S
H596 C589 0.961 . S
H597 C589 0.960 . S
H598 C590 0.930 . S
H599 C591 0.929 . S
H600 C608 0.929 . S
H601 C610 0.930 . S
H602 C612 0.930 . S
H603 C615 0.929 . S
H604 C618 0.930 . S
H605 C620 0.960 1_655 S
H606 C620 0.980 . S
H607 C620 0.962 1_655 S
C608 H600 0.929 . S
C608 C609 1.377 . S
C608 C610 1.384 . S
C609 C608 1.377 . S
C609 C615 1.390 . S
C610 H601 0.930 . S
C610 C608 1.384 . S
C610 C611 1.372 . S
C611 C610 1.372 . S
C611 C612 1.400 . S
C611 C616 1.490 . S
C612 H602 0.930 . S
C612 C611 1.400 . S
C612 C615 1.386 . S
H613 C629 0.930 . S
H614 C630 0.931 . S
C615 H603 0.929 . S
C615 C609 1.390 . S
C615 C612 1.386 . S
C616 C611 1.490 . S
C616 C618 1.395 . S
C616 C619 1.403 . S
H617 C623 0.930 . S
C618 H604 0.930 . S
C618 C616 1.395 . S
C618 C621 1.403 . S
C619 C616 1.403 . S
C619 C620 1.524 . S
C619 C623 1.400 . S
C620 H605 0.960 1_455 S
C620 H606 0.980 . S
C620 H607 0.962 1_455 S
C620 C619 1.524 . S
C621 C618 1.403 . S
C621 C622 1.392 . S
C621 C625 1.495 . S
C622 C621 1.392 . S
C622 C623 1.385 . S
C622 C624 1.478 . S
C623 H617 0.930 . S
C623 C619 1.400 . S
C623 C622 1.385 . S
C624 C622 1.478 . S
C624 C626 1.381 . S
C624 C630 1.383 . S
C625 C621 1.495 . S
C625 H631 0.959 . S
C625 H632 0.961 . S
C625 H633 0.960 . S
C626 C624 1.381 . S
C626 C627 1.394 . S
C626 H634 0.930 . S
C627 C626 1.394 . S
C627 C628 1.383 . S
C627 H635 0.929 . S
C628 C627 1.383 . S
C628 C629 1.377 . S
C629 H613 0.930 . S
C629 C628 1.377 . S
C629 C630 1.379 . S
C630 H614 0.931 . S
C630 C624 1.383 . S
C630 C629 1.379 . S
H631 C625 0.959 . S
H632 C625 0.961 . S
H633 C625 0.960 . S
H634 C626 0.930 . S
H635 C627 0.929 . S
H636 C644 0.929 . S
H637 C646 0.930 . S
H638 C648 0.930 . S
H639 C651 0.929 . S
H640 C654 0.930 . S
H641 C656 0.960 . S
H642 C656 0.960 . S
H643 C656 0.960 . S
C644 H636 0.929 . S
C644 C645 1.377 . S
C644 C646 1.384 . S
C645 C644 1.377 . S
C645 C651 1.390 . S
C646 H637 0.930 . S
C646 C644 1.384 . S
C646 C647 1.372 . S
C647 C646 1.372 . S
C647 C648 1.400 . S
C647 C652 1.490 . S
C648 H638 0.930 . S
C648 C647 1.400 . S
C648 C651 1.386 . S
H649 C665 0.930 . S
H650 C666 0.931 . S
C651 H639 0.929 . S
C651 C645 1.390 . S
C651 C648 1.386 . S
C652 C647 1.490 . S
C652 C654 1.395 . S
C652 C655 1.403 . S
H653 C659 0.930 . S
C654 H640 0.930 . S
C654 C652 1.395 . S
C654 C657 1.403 . S
C655 C652 1.403 . S
C655 C656 1.524 . S
C655 C659 1.400 . S
C656 H641 0.960 . S
C656 H642 0.960 . S
C656 H643 0.960 . S
C656 C655 1.524 . S
C657 C654 1.403 . S
C657 C658 1.392 . S
C657 C661 1.495 . S
C658 C657 1.392 . S
C658 C659 1.385 . S
C658 C660 1.478 . S
C659 H653 0.930 . S
C659 C655 1.400 . S
C659 C658 1.385 . S
C660 C658 1.478 . S
C660 C662 1.381 . S
C660 C666 1.383 . S
C661 C657 1.495 . S
C661 H667 0.959 . S
C661 H668 0.961 . S
C661 H669 0.960 . S
C662 C660 1.381 . S
C662 C663 1.394 . S
C662 H670 0.930 . S
C663 C662 1.394 . S
C663 C664 1.383 . S
C663 H671 0.929 . S
C664 C663 1.383 . S
C664 C665 1.377 . S
C665 H649 0.930 . S
C665 C664 1.377 . S
C665 C666 1.379 . S
C666 H650 0.931 . S
C666 C660 1.383 . S
C666 C665 1.379 . S
H667 C661 0.959 . S
H668 C661 0.961 . S
H669 C661 0.960 . S
H670 C662 0.930 . S
H671 C663 0.929 . S
H672 C680 0.929 . S
H673 C682 0.930 . S
H674 C684 0.930 . S
H675 C687 0.929 . S
H676 C690 0.930 . S
H677 C692 0.960 . S
H678 C692 0.960 . S
H679 C692 0.960 . S
C680 H672 0.929 . S
C680 C681 1.377 . S
C680 C682 1.384 . S
C681 C680 1.377 . S
C681 C687 1.390 . S
C682 H673 0.930 . S
C682 C680 1.384 . S
C682 C683 1.372 . S
C683 C682 1.372 . S
C683 C684 1.400 . S
C683 C688 1.490 . S
C684 H674 0.930 . S
C684 C683 1.400 . S
C684 C687 1.386 . S
H685 C701 0.930 . S
H686 C702 0.931 . S
C687 H675 0.929 . S
C687 C681 1.390 . S
C687 C684 1.386 . S
C688 C683 1.490 . S
C688 C690 1.395 . S
C688 C691 1.403 . S
H689 C695 0.930 . S
C690 H676 0.930 . S
C690 C688 1.395 . S
C690 C693 1.403 . S
C691 C688 1.403 . S
C691 C692 1.524 . S
C691 C695 1.400 . S
C692 H677 0.960 . S
C692 H678 0.960 . S
C692 H679 0.960 . S
C692 C691 1.524 . S
C693 C690 1.403 . S
C693 C694 1.392 . S
C693 C697 1.495 . S
C694 C693 1.392 . S
C694 C695 1.385 . S
C694 C696 1.478 . S
C695 H689 0.930 . S
C695 C691 1.400 . S
C695 C694 1.385 . S
C696 C694 1.478 . S
C696 C698 1.381 . S
C696 C702 1.383 . S
C697 C693 1.495 . S
C697 H703 0.959 . S
C697 H704 0.961 . S
C697 H705 0.960 . S
C698 C696 1.381 . S
C698 C699 1.394 . S
C698 H706 0.930 . S
C699 C698 1.394 . S
C699 C700 1.383 . S
C699 H707 0.929 . S
C700 C699 1.383 . S
C700 C701 1.377 . S
C701 H685 0.930 . S
C701 C700 1.377 . S
C701 C702 1.379 . S
C702 H686 0.931 . S
C702 C696 1.383 . S
C702 C701 1.379 . S
H703 C697 0.959 . S
H704 C697 0.961 . S
H705 C697 0.960 . S
H706 C698 0.930 . S
H707 C699 0.929 . S
H708 C716 0.929 . S
H709 C718 0.930 . S
H710 C720 0.930 . S
H711 C723 0.929 . S
H712 C726 0.930 . S
H713 C728 0.960 . S
H714 C728 0.960 . S
H715 C728 0.960 . S
C716 H708 0.929 . S
C716 C717 1.377 . S
C716 C718 1.384 . S
C717 C716 1.377 . S
C717 C723 1.390 . S
C718 H709 0.930 . S
C718 C716 1.384 . S
C718 C719 1.372 . S
C719 C718 1.372 . S
C719 C720 1.400 . S
C719 C724 1.490 . S
C720 H710 0.930 . S
C720 C719 1.400 . S
C720 C723 1.386 . S
H721 C737 0.930 . S
H722 C738 0.931 . S
C723 H711 0.929 . S
C723 C717 1.390 . S
C723 C720 1.386 . S
C724 C719 1.490 . S
C724 C726 1.395 . S
C724 C727 1.403 . S
H725 C731 0.930 . S
C726 H712 0.930 . S
C726 C724 1.395 . S
C726 C729 1.403 . S
C727 C724 1.403 . S
C727 C728 1.524 . S
C727 C731 1.400 . S
C728 H713 0.960 . S
C728 H714 0.960 . S
C728 H715 0.960 . S
C728 C727 1.524 . S
C729 C726 1.403 . S
C729 C730 1.392 . S
C729 C733 1.495 . S
C730 C729 1.392 . S
C730 C731 1.385 . S
C730 C732 1.478 . S
C731 H725 0.930 . S
C731 C727 1.400 . S
C731 C730 1.385 . S
C732 C730 1.478 . S
C732 C734 1.381 . S
C732 C738 1.383 . S
C733 C729 1.495 . S
C733 H739 0.959 . S
C733 H740 0.961 . S
C733 H741 0.960 . S
C734 C732 1.381 . S
C734 C735 1.394 . S
C734 H742 0.930 . S
C735 C734 1.394 . S
C735 C736 1.383 . S
C735 H743 0.929 . S
C736 C735 1.383 . S
C736 C737 1.377 . S
C737 H721 0.930 . S
C737 C736 1.377 . S
C737 C738 1.379 . S
C738 H722 0.931 . S
C738 C732 1.383 . S
C738 C737 1.379 . S
H739 C733 0.959 . S
H740 C733 0.961 . S
H741 C733 0.960 . S
H742 C734 0.930 . S
H743 C735 0.929 . S
H744 C752 0.929 . S
H745 C754 0.930 . S
H746 C756 0.930 . S
H747 C759 0.929 . S
H748 C762 0.930 . S
H749 C764 0.960 . S
H750 C764 0.960 . S
H751 C764 0.960 . S
C752 H744 0.929 . S
C752 C753 1.377 . S
C752 C754 1.384 . S
C753 C752 1.377 . S
C753 C759 1.390 . S
C754 H745 0.930 . S
C754 C752 1.384 . S
C754 C755 1.372 . S
C755 C754 1.372 . S
C755 C756 1.400 . S
C755 C760 1.490 . S
C756 H746 0.930 . S
C756 C755 1.400 . S
C756 C759 1.386 . S
H757 C773 0.930 . S
H758 C774 0.931 . S
C759 H747 0.929 . S
C759 C753 1.390 . S
C759 C756 1.386 . S
C760 C755 1.490 . S
C760 C762 1.395 . S
C760 C763 1.403 . S
H761 C767 0.930 . S
C762 H748 0.930 . S
C762 C760 1.395 . S
C762 C765 1.403 . S
C763 C760 1.403 . S
C763 C764 1.524 . S
C763 C767 1.400 . S
C764 H749 0.960 . S
C764 H750 0.960 . S
C764 H751 0.960 . S
C764 C763 1.524 . S
C765 C762 1.403 . S
C765 C766 1.392 . S
C765 C769 1.495 . S
C766 C765 1.392 . S
C766 C767 1.385 . S
C766 C768 1.478 . S
C767 H761 0.930 . S
C767 C763 1.400 . S
C767 C766 1.385 . S
C768 C766 1.478 . S
C768 C770 1.381 . S
C768 C774 1.383 . S
C769 C765 1.495 . S
C769 H775 0.959 . S
C769 H776 0.961 . S
C769 H777 0.960 . S
C770 C768 1.381 . S
C770 C771 1.394 . S
C770 H778 0.930 . S
C771 C770 1.394 . S
C771 C772 1.383 . S
C771 H779 0.929 . S
C772 C771 1.383 . S
C772 C773 1.377 . S
C773 H757 0.930 . S
C773 C772 1.377 . S
C773 C774 1.379 . S
C774 H758 0.931 . S
C774 C768 1.383 . S
C774 C773 1.379 . S
H775 C769 0.959 . S
H776 C769 0.961 . S
H777 C769 0.960 . S
H778 C770 0.930 . S
H779 C771 0.929 . S
H780 C788 0.929 . S
H781 C790 0.930 . S
H782 C792 0.930 . S
H783 C795 0.929 . S
H784 C798 0.930 . S
H785 C800 0.960 . S
H786 C800 0.960 . S
H787 C800 0.960 . S
C788 H780 0.929 . S
C788 C789 1.377 . S
C788 C790 1.384 . S
C789 C788 1.377 . S
C789 C795 1.390 . S
C790 H781 0.930 . S
C790 C788 1.384 . S
C790 C791 1.372 . S
C791 C790 1.372 . S
C791 C792 1.400 . S
C791 C796 1.490 . S
C792 H782 0.930 . S
C792 C791 1.400 . S
C792 C795 1.386 . S
H793 C809 0.930 . S
H794 C810 0.931 . S
C795 H783 0.929 . S
C795 C789 1.390 . S
C795 C792 1.386 . S
C796 C791 1.490 . S
C796 C798 1.395 . S
C796 C799 1.403 . S
H797 C803 0.930 . S
C798 H784 0.930 . S
C798 C796 1.395 . S
C798 C801 1.403 . S
C799 C796 1.403 . S
C799 C800 1.524 . S
C799 C803 1.400 . S
C800 H785 0.960 . S
C800 H786 0.960 . S
C800 H787 0.960 . S
C800 C799 1.524 . S
C801 C798 1.403 . S
C801 C802 1.392 . S
C801 C805 1.495 . S
C802 C801 1.392 . S
C802 C803 1.385 . S
C802 C804 1.478 . S
C803 H797 0.930 . S
C803 C799 1.400 . S
C803 C802 1.385 . S
C804 C802 1.478 . S
C804 C806 1.381 . S
C804 C810 1.383 . S
C805 C801 1.495 . S
C805 H811 0.959 . S
C805 H812 0.961 . S
C805 H813 0.960 . S
C806 C804 1.381 . S
C806 C807 1.394 . S
C806 H814 0.930 . S
C807 C806 1.394 . S
C807 C808 1.383 . S
C807 H815 0.929 . S
C808 C807 1.383 . S
C808 C809 1.377 . S
C809 H793 0.930 . S
C809 C808 1.377 . S
C809 C810 1.379 . S
C810 H794 0.931 . S
C810 C804 1.383 . S
C810 C809 1.379 . S
H811 C805 0.959 . S
H812 C805 0.961 . S
H813 C805 0.960 . S
H814 C806 0.930 . S
H815 C807 0.929 . S
H816 C824 0.929 . S
H817 C826 0.930 . S
H818 C828 0.930 . S
H819 C831 0.929 . S
H820 C834 0.930 . S
H821 C836 0.960 . S
H822 C836 0.960 . S
H823 C836 0.960 . S
C824 H816 0.929 . S
C824 C825 1.377 . S
C824 C826 1.384 . S
C825 C824 1.377 . S
C825 C831 1.390 . S
C826 H817 0.930 . S
C826 C824 1.384 . S
C826 C827 1.372 . S
C827 C826 1.372 . S
C827 C828 1.400 . S
C827 C832 1.490 . S
C828 H818 0.930 . S
C828 C827 1.400 . S
C828 C831 1.386 . S
H829 C845 0.930 . S
H830 C846 0.931 . S
C831 H819 0.929 . S
C831 C825 1.390 . S
C831 C828 1.386 . S
C832 C827 1.490 . S
C832 C834 1.395 . S
C832 C835 1.403 . S
H833 C839 0.930 . S
C834 H820 0.930 . S
C834 C832 1.395 . S
C834 C837 1.403 . S
C835 C832 1.403 . S
C835 C836 1.524 . S
C835 C839 1.400 . S
C836 H821 0.960 . S
C836 H822 0.960 . S
C836 H823 0.960 . S
C836 C835 1.524 . S
C837 C834 1.403 . S
C837 C838 1.392 . S
C837 C841 1.495 . S
C838 C837 1.392 . S
C838 C839 1.385 . S
C838 C840 1.478 . S
C839 H833 0.930 . S
C839 C835 1.400 . S
C839 C838 1.385 . S
C840 C838 1.478 . S
C840 C842 1.381 . S
C840 C846 1.383 . S
C841 C837 1.495 . S
C841 H847 0.959 . S
C841 H848 0.961 . S
C841 H849 0.960 . S
C842 C840 1.381 . S
C842 C843 1.394 . S
C842 H850 0.930 . S
C843 C842 1.394 . S
C843 C844 1.383 . S
C843 H851 0.929 . S
C844 C843 1.383 . S
C844 C845 1.377 . S
C845 H829 0.930 . S
C845 C844 1.377 . S
C845 C846 1.379 . S
C846 H830 0.931 . S
C846 C840 1.383 . S
C846 C845 1.379 . S
H847 C841 0.959 . S
H848 C841 0.961 . S
H849 C841 0.960 . S
H850 C842 0.930 . S
H851 C843 0.929 . S
H852 C860 0.929 . S
H853 C862 0.930 . S
H854 C864 0.930 . S
H855 C867 0.929 . S
H856 C870 0.930 . S
H857 C872 0.960 . S
H858 C872 0.960 . S
H859 C872 0.960 . S
C860 H852 0.929 . S
C860 C861 1.377 . S
C860 C862 1.384 . S
C861 C860 1.377 . S
C861 C867 1.390 . S
C862 H853 0.930 . S
C862 C860 1.384 . S
C862 C863 1.372 . S
C863 C862 1.372 . S
C863 C864 1.400 . S
C863 C868 1.490 . S
C864 H854 0.930 . S
C864 C863 1.400 . S
C864 C867 1.386 . S
H865 C881 0.930 . S
H866 C882 0.931 . S
C867 H855 0.929 . S
C867 C861 1.390 . S
C867 C864 1.386 . S
C868 C863 1.490 . S
C868 C870 1.395 . S
C868 C871 1.403 . S
H869 C875 0.930 . S
C870 H856 0.930 . S
C870 C868 1.395 . S
C870 C873 1.403 . S
C871 C868 1.403 . S
C871 C872 1.524 . S
C871 C875 1.400 . S
C872 H857 0.960 . S
C872 H858 0.960 . S
C872 H859 0.960 . S
C872 C871 1.524 . S
C873 C870 1.403 . S
C873 C874 1.392 . S
C873 C877 1.495 . S
C874 C873 1.392 . S
C874 C875 1.385 . S
C874 C876 1.478 . S
C875 H869 0.930 . S
C875 C871 1.400 . S
C875 C874 1.385 . S
C876 C874 1.478 . S
C876 C878 1.381 . S
C876 C882 1.383 . S
C877 C873 1.495 . S
C877 H883 0.959 . S
C877 H884 0.961 . S
C877 H885 0.960 . S
C878 C876 1.381 . S
C878 C879 1.394 . S
C878 H886 0.930 . S
C879 C878 1.394 . S
C879 C880 1.383 . S
C879 H887 0.929 . S
C880 C879 1.383 . S
C880 C881 1.377 . S
C881 H865 0.930 . S
C881 C880 1.377 . S
C881 C882 1.379 . S
C882 H866 0.931 . S
C882 C876 1.383 . S
C882 C881 1.379 . S
H883 C877 0.959 . S
H884 C877 0.961 . S
H885 C877 0.960 . S
H886 C878 0.930 . S
H887 C879 0.929 . S
H888 C896 0.929 . S
H889 C898 0.930 . S
H890 C900 0.930 . S
H891 C903 0.929 . S
H892 C906 0.930 . S
H893 C908 0.960 . S
H894 C908 0.960 . S
H895 C908 0.960 . S
C896 H888 0.929 . S
C896 C897 1.377 . S
C896 C898 1.384 . S
C897 C896 1.377 . S
C897 C903 1.390 . S
C898 H889 0.930 . S
C898 C896 1.384 . S
C898 C899 1.372 . S
C899 C898 1.372 . S
C899 C900 1.400 . S
C899 C904 1.490 . S
C900 H890 0.930 . S
C900 C899 1.400 . S
C900 C903 1.386 . S
H901 C917 0.930 . S
H902 C918 0.931 . S
C903 H891 0.929 . S
C903 C897 1.390 . S
C903 C900 1.386 . S
C904 C899 1.490 . S
C904 C906 1.395 . S
C904 C907 1.403 . S
H905 C911 0.930 . S
C906 H892 0.930 . S
C906 C904 1.395 . S
C906 C909 1.403 . S
C907 C904 1.403 . S
C907 C908 1.524 . S
C907 C911 1.400 . S
C908 H893 0.960 . S
C908 H894 0.960 . S
C908 H895 0.960 . S
C908 C907 1.524 . S
C909 C906 1.403 . S
C909 C910 1.392 . S
C909 C913 1.495 . S
C910 C909 1.392 . S
C910 C911 1.385 . S
C910 C912 1.478 . S
C911 H905 0.930 . S
C911 C907 1.400 . S
C911 C910 1.385 . S
C912 C910 1.478 . S
C912 C914 1.381 . S
C912 C918 1.383 . S
C913 C909 1.495 . S
C913 H919 0.959 . S
C913 H920 0.961 . S
C913 H921 0.960 . S
C914 C912 1.381 . S
C914 C915 1.394 . S
C914 H922 0.930 . S
C915 C914 1.394 . S
C915 C916 1.383 . S
C915 H923 0.929 . S
C916 C915 1.383 . S
C916 C917 1.377 . S
C917 H901 0.930 . S
C917 C916 1.377 . S
C917 C918 1.379 . S
C918 H902 0.931 . S
C918 C912 1.383 . S
C918 C917 1.379 . S
H919 C913 0.959 . S
H920 C913 0.961 . S
H921 C913 0.960 . S
H922 C914 0.930 . S
H923 C915 0.929 . S
H924 C932 0.929 . S
H925 C934 0.930 . S
H926 C936 0.930 . S
H927 C939 0.929 . S
H928 C942 0.930 . S
H929 C944 0.960 . S
H930 C944 0.960 . S
H931 C944 0.960 . S
C932 H924 0.929 . S
C932 C933 1.377 . S
C932 C934 1.384 . S
C933 C932 1.377 . S
C933 C939 1.390 . S
C934 H925 0.930 . S
C934 C932 1.384 . S
C934 C935 1.372 . S
C935 C934 1.372 . S
C935 C936 1.400 . S
C935 C940 1.490 . S
C936 H926 0.930 . S
C936 C935 1.400 . S
C936 C939 1.386 . S
H937 C953 0.930 . S
H938 C954 0.931 . S
C939 H927 0.929 . S
C939 C933 1.390 . S
C939 C936 1.386 . S
C940 C935 1.490 . S
C940 C942 1.395 . S
C940 C943 1.403 . S
H941 C947 0.930 . S
C942 H928 0.930 . S
C942 C940 1.395 . S
C942 C945 1.403 . S
C943 C940 1.403 . S
C943 C944 1.524 . S
C943 C947 1.400 . S
C944 H929 0.960 . S
C944 H930 0.960 . S
C944 H931 0.960 . S
C944 C943 1.524 . S
C945 C942 1.403 . S
C945 C946 1.392 . S
C945 C949 1.495 . S
C946 C945 1.392 . S
C946 C947 1.385 . S
C946 C948 1.478 . S
C947 H941 0.930 . S
C947 C943 1.400 . S
C947 C946 1.385 . S
C948 C946 1.478 . S
C948 C950 1.381 . S
C948 C954 1.383 . S
C949 C945 1.495 . S
C949 H955 0.959 . S
C949 H956 0.961 . S
C949 H957 0.960 . S
C950 C948 1.381 . S
C950 C951 1.394 . S
C950 H958 0.930 . S
C951 C950 1.394 . S
C951 C952 1.383 . S
C951 H959 0.929 . S
C952 C951 1.383 . S
C952 C953 1.377 . S
C953 H937 0.930 . S
C953 C952 1.377 . S
C953 C954 1.379 . S
C954 H938 0.931 . S
C954 C948 1.383 . S
C954 C953 1.379 . S
H955 C949 0.959 . S
H956 C949 0.961 . S
H957 C949 0.960 . S
H958 C950 0.930 . S
H959 C951 0.929 . S
H960 C968 0.929 . S
H961 C970 0.930 . S
H962 C972 0.930 . S
H963 C975 0.929 . S
H964 C978 0.930 . S
H965 C980 0.960 . S
H966 C980 0.960 . S
H967 C980 0.960 . S
C968 H960 0.929 . S
C968 C969 1.377 . S
C968 C970 1.384 . S
C969 C968 1.377 . S
C969 C975 1.390 . S
C970 H961 0.930 . S
C970 C968 1.384 . S
C970 C971 1.372 . S
C971 C970 1.372 . S
C971 C972 1.400 . S
C971 C976 1.490 . S
C972 H962 0.930 . S
C972 C971 1.400 . S
C972 C975 1.386 . S
H973 C989 0.930 . S
H974 C990 0.931 . S
C975 H963 0.929 . S
C975 C969 1.390 . S
C975 C972 1.386 . S
C976 C971 1.490 . S
C976 C978 1.395 . S
C976 C979 1.403 . S
H977 C983 0.930 . S
C978 H964 0.930 . S
C978 C976 1.395 . S
C978 C981 1.403 . S
C979 C976 1.403 . S
C979 C980 1.524 . S
C979 C983 1.400 . S
C980 H965 0.960 . S
C980 H966 0.960 . S
C980 H967 0.960 . S
C980 C979 1.524 . S
C981 C978 1.403 . S
C981 C982 1.392 . S
C981 C985 1.495 . S
C982 C981 1.392 . S
C982 C983 1.385 . S
C982 C984 1.478 . S
C983 H977 0.930 . S
C983 C979 1.400 . S
C983 C982 1.385 . S
C984 C982 1.478 . S
C984 C986 1.381 . S
C984 C990 1.383 . S
C985 C981 1.495 . S
C985 H991 0.959 . S
C985 H992 0.961 . S
C985 H993 0.960 . S
C986 C984 1.381 . S
C986 C987 1.394 . S
C986 H994 0.930 . S
C987 C986 1.394 . S
C987 C988 1.383 . S
C987 H995 0.929 . S
C988 C987 1.383 . S
C988 C989 1.377 . S
C989 H973 0.930 . S
C989 C988 1.377 . S
C989 C990 1.379 . S
C990 H974 0.931 . S
C990 C984 1.383 . S
C990 C989 1.379 . S
H991 C985 0.959 . S
H992 C985 0.961 . S
H993 C985 0.960 . S
H994 C986 0.930 . S
H995 C987 0.929 . S
H996 C1004 0.929 . S
H997 C1006 0.930 . S
H998 C1008 0.930 . S
H999 C1011 0.929 . S
H1000 C1014 0.930 . S
H1001 C1016 0.960 . S
H1002 C1016 0.960 . S
H1003 C1016 0.960 . S
C1004 H996 0.929 . S
C1004 C1005 1.377 . S
C1004 C1006 1.384 . S
C1005 C1004 1.377 . S
C1005 C1011 1.390 . S
C1006 H997 0.930 . S
C1006 C1004 1.384 . S
C1006 C1007 1.372 . S
C1007 C1006 1.372 . S
C1007 C1008 1.400 . S
C1007 C1012 1.490 . S
C1008 H998 0.930 . S
C1008 C1007 1.400 . S
C1008 C1011 1.386 . S
H1009 C1025 0.930 . S
H1010 C1026 0.931 . S
C1011 H999 0.929 . S
C1011 C1005 1.390 . S
C1011 C1008 1.386 . S
C1012 C1007 1.490 . S
C1012 C1014 1.395 . S
C1012 C1015 1.403 . S
H1013 C1019 0.930 . S
C1014 H1000 0.930 . S
C1014 C1012 1.395 . S
C1014 C1017 1.403 . S
C1015 C1012 1.403 . S
C1015 C1016 1.524 . S
C1015 C1019 1.400 . S
C1016 H1001 0.960 . S
C1016 H1002 0.960 . S
C1016 H1003 0.960 . S
C1016 C1015 1.524 . S
C1017 C1014 1.403 . S
C1017 C1018 1.392 . S
C1017 C1021 1.495 . S
C1018 C1017 1.392 . S
C1018 C1019 1.385 . S
C1018 C1020 1.478 . S
C1019 H1013 0.930 . S
C1019 C1015 1.400 . S
C1019 C1018 1.385 . S
C1020 C1018 1.478 . S
C1020 C1022 1.381 . S
C1020 C1026 1.383 . S
C1021 C1017 1.495 . S
C1021 H1027 0.959 . S
C1021 H1028 0.961 . S
C1021 H1029 0.960 . S
C1022 C1020 1.381 . S
C1022 C1023 1.394 . S
C1022 H1030 0.930 . S
C1023 C1022 1.394 . S
C1023 C1024 1.383 . S
C1023 H1031 0.929 . S
C1024 C1023 1.383 . S
C1024 C1025 1.377 . S
C1025 H1009 0.930 . S
C1025 C1024 1.377 . S
C1025 C1026 1.379 . S
C1026 H1010 0.931 . S
C1026 C1020 1.383 . S
C1026 C1025 1.379 . S
H1027 C1021 0.959 . S
H1028 C1021 0.961 . S
H1029 C1021 0.960 . S
H1030 C1022 0.930 . S
H1031 C1023 0.929 . S
C177 C8 1.912 . S
C196 C162 1.920 . S
C213 C92 1.914 . S
C232 C22 1.910 . S
C249 C36 1.908 . S
C268 C106 1.902 . S
C285 C120 1.910 . S
C304 C50 1.922 . S
C321 C134 1.912 . S
C340 C64 1.921 . S
C357 C148 1.908 . S
C376 C78 1.912 . S
C393 C49 0.845 . S
C412 C119 0.865 . S
C429 C63 0.854 . S
C448 C133 0.837 . S
C465 C77 0.854 . S
C484 C147 0.835 . S
C501 C161 0.851 . S
C520 C7 0.827 . S
C537 C21 0.847 . S
C556 C91 0.837 . S
C573 C35 0.851 . S
C592 C105 0.862 . S
C609 C121 1.824 . S
C628 C9 1.829 . S
C645 C135 1.824 . S
C664 C23 1.834 . S
C681 C37 1.825 . S
C700 C149 1.817 . S
C717 C51 1.828 . S
C736 C163 1.810 . S
C753 C65 1.826 . S
C772 C93 1.831 . S
C789 C107 1.829 . S
C808 C79 1.813 . S
C825 C6 1.735 . S
C844 C146 1.738 . S
C861 C160 1.738 . S
C880 C20 1.720 . S
C897 C34 1.743 . S
C916 C90 1.721 . S
C933 C48 1.742 . S
C952 C104 1.746 . S
C969 C62 1.742 . S
C988 C118 1.717 . S
C1005 C76 1.742 . S
C1024 C132 1.746 . S
