# Generated by pormake.
# Topology smu, (6)-cn, num edge types: 1
# Building blocks:
#     Node 0, Type 0, BuildingBlock: MIFKUJ_clean_sbu_0, # of connection points: 6
#     Node 1, Type 0, BuildingBlock: MIFKUJ_clean_sbu_0, # of connection points: 6
#     Node 2, Type 0, BuildingBlock: MIFKUJ_clean_sbu_0, # of connection points: 6
#     Node 3, Type 0, BuildingBlock: MIFKUJ_clean_sbu_0, # of connection points: 6
#     Node 4, Type 0, BuildingBlock: MIFKUJ_clean_sbu_0, # of connection points: 6
#     Node 5, Type 0, BuildingBlock: MIFKUJ_clean_sbu_0, # of connection points: 6
#     Edge 6, Type (0, 0), BuildingBlock: OJICUG_clean_linker_0, # of connection points: 2
#     Edge 7, Type (0, 0), BuildingBlock: OJICUG_clean_linker_0, # of connection points: 2
#     Edge 8, Type (0, 0), BuildingBlock: OJICUG_clean_linker_0, # of connection points: 2
#     Edge 9, Type (0, 0), BuildingBlock: OJICUG_clean_linker_0, # of connection points: 2
#     Edge 10, Type (0, 0), BuildingBlock: OJICUG_clean_linker_0, # of connection points: 2
#     Edge 11, Type (0, 0), BuildingBlock: OJICUG_clean_linker_0, # of connection points: 2
#     Edge 12, Type (0, 0), BuildingBlock: OJICUG_clean_linker_0, # of connection points: 2
#     Edge 13, Type (0, 0), BuildingBlock: OJICUG_clean_linker_0, # of connection points: 2
#     Edge 14, Type (0, 0), BuildingBlock: OJICUG_clean_linker_0, # of connection points: 2
#     Edge 15, Type (0, 0), BuildingBlock: OJICUG_clean_linker_0, # of connection points: 2
#     Edge 16, Type (0, 0), BuildingBlock: OJICUG_clean_linker_0, # of connection points: 2
#     Edge 17, Type (0, 0), BuildingBlock: OJICUG_clean_linker_0, # of connection points: 2
#     Edge 18, Type (0, 0), BuildingBlock: OJICUG_clean_linker_0, # of connection points: 2
#     Edge 19, Type (0, 0), BuildingBlock: OJICUG_clean_linker_0, # of connection points: 2
#     Edge 20, Type (0, 0), BuildingBlock: OJICUG_clean_linker_0, # of connection points: 2
#     Edge 21, Type (0, 0), BuildingBlock: OJICUG_clean_linker_0, # of connection points: 2
#     Edge 22, Type (0, 0), BuildingBlock: OJICUG_clean_linker_0, # of connection points: 2
#     Edge 23, Type (0, 0), BuildingBlock: OJICUG_clean_linker_0, # of connection points: 2
# Relax obj value: 0.244
# Max RMSD: 0.311
# Mean RMSD: 0.311
data_MOF--net-smu--node1-MIFKUJ_clean_sbu_0--edge1-OJICUG_clean_linker_0
_symmetry_space_group_name_H-M    P1
_symmetry_Int_Tables_number       1
_symmetry_cell_setting            triclinic
loop_
_symmetry_equiv_pos_as_xyz
'x, y, z'
_cell_length_a     26.407967
_cell_length_b     25.609025
_cell_length_c     19.697503
_cell_angle_alpha  89.909824
_cell_angle_beta   90.801029
_cell_angle_gamma 119.68476
loop_
_atom_site_label
_atom_site_type_symbol
_atom_site_fract_x
_atom_site_fract_y
_atom_site_fract_z
_atom_type_partial_charge
Zn0 Zn 0.25948 0.07614 0.20235 0.0
Zn1 Zn 0.40675 0.129 0.20305 0.0
C2 C 0.25701 0.17926 0.2452 0.0
O3 O 0.25268 0.15269 0.30367 0.0
C4 C 0.52135 0.13408 0.20724 0.0
O5 O 0.49402 0.07658 0.19171 0.0
O6 O 0.17292 0.02337 0.21031 0.0
O7 O 0.28218 0.04787 0.11911 0.0
O8 O 0.3766 0.07733 0.11883 0.0
C9 C 0.14285 0.96893 0.19104 0.0
O10 O 0.16813 0.94322 0.15901 0.0
O11 O 0.26858 0.15845 0.19279 0.0
C12 C 0.42405 0.24112 0.24479 0.0
O13 O 0.43693 0.22195 0.3008 0.0
O14 O 0.40156 0.20461 0.19523 0.0
O15 O 0.37894 0.08632 0.29175 0.0
O16 O 0.28598 0.06093 0.29187 0.0
O17 O 0.49299 0.16205 0.21085 0.0
C18 C 0.32603 0.04919 0.09149 0.0
C19 C 0.33038 0.06411 0.32136 0.0
Zn20 Zn 0.77906 0.78325 0.23212 0.0
Zn21 Zn 0.6816 0.60266 0.21923 0.0
C22 C 0.89839 0.84033 0.2567 0.0
O23 O 0.87977 0.85998 0.30675 0.0
C24 C 0.57028 0.49204 0.19005 0.0
O25 O 0.57647 0.51234 0.12768 0.0
O26 O 0.78593 0.8657 0.23789 0.0
O27 O 0.72731 0.74058 0.15204 0.0
O28 O 0.66843 0.6423 0.13875 0.0
C29 C 0.812 0.90494 0.19226 0.0
O30 O 0.83087 0.88993 0.13842 0.0
O31 O 0.8611 0.80065 0.21662 0.0
C32 C 0.77064 0.5708 0.24577 0.0
O33 O 0.76274 0.58133 0.30889 0.0
O34 O 0.74309 0.58035 0.19842 0.0
O35 O 0.69769 0.64681 0.30727 0.0
O36 O 0.75109 0.74538 0.32296 0.0
O37 O 0.60836 0.52334 0.23504 0.0
C38 C 0.68966 0.69589 0.11758 0.0
C39 C 0.71994 0.69265 0.3459 0.0
Zn40 Zn 0.00155 0.27785 0.25626 0.0
Zn41 Zn 0.88711 0.32063 0.2523 0.0
C42 C 0.90455 0.15587 0.2572 0.0
O43 O 0.90196 0.16979 0.32071 0.0
C44 C 0.86397 0.41301 0.2007 0.0
O45 O 0.847 0.37885 0.14603 0.0
O46 O 0.07616 0.27496 0.26298 0.0
O47 O 0.01644 0.34806 0.19898 0.0
O48 O 0.92573 0.31585 0.16625 0.0
C49 C 0.10801 0.28046 0.21266 0.0
O50 O 0.09307 0.29032 0.1521 0.0
O51 O 0.94099 0.19638 0.21819 0.0
C52 C 0.76655 0.26502 0.27753 0.0
O53 O 0.78627 0.31142 0.31894 0.0
O54 O 0.80281 0.2563 0.24475 0.0
O55 O 0.91827 0.3187 0.34655 0.0
O56 O 0.98473 0.28936 0.34974 0.0
O57 O 0.88555 0.3986 0.2505 0.0
C58 C 0.97917 0.33734 0.15239 0.0
C59 C 0.95282 0.30621 0.3789 0.0
Zn60 Zn 0.11524 0.4145 0.75819 0.0
Zn61 Zn 0.03894 0.24985 0.76253 0.0
C62 C 0.22118 0.4173 0.79171 0.0
O63 O 0.20882 0.43105 0.85115 0.0
C64 C 0.95719 0.13381 0.70951 0.0
O65 O 0.99136 0.15433 0.65672 0.0
O66 O 0.14925 0.50468 0.76472 0.0
O67 O 0.06022 0.3857 0.67808 0.0
O68 O 0.02158 0.28687 0.68341 0.0
C69 C 0.13181 0.53555 0.73134 0.0
O70 O 0.08811 0.50848 0.68793 0.0
O71 O 0.18395 0.4026 0.74358 0.0
C72 C 0.11287 0.2021 0.79151 0.0
O73 O 0.07888 0.18414 0.84461 0.0
O74 O 0.10797 0.23722 0.74953 0.0
O75 O 0.0354 0.28399 0.85212 0.0
O76 O 0.07846 0.38377 0.84812 0.0
O77 O 0.96954 0.16669 0.76223 0.0
C78 C 0.02711 0.33345 0.65399 0.0
C79 C 0.05018 0.33447 0.87953 0.0
Zn80 Zn 0.33247 0.91106 0.70371 0.0
Zn81 Zn 0.21387 0.94204 0.71491 0.0
C82 C 0.26404 0.7946 0.75367 0.0
O83 O 0.30601 0.81909 0.79965 0.0
C84 C 0.21102 0.05534 0.70903 0.0
O85 O 0.22635 0.05657 0.64565 0.0
O86 O 0.40121 0.89739 0.70814 0.0
O87 O 0.3366 0.95264 0.61666 0.0
O88 O 0.26148 0.96746 0.6294 0.0
C89 C 0.402 0.85992 0.66657 0.0
O90 O 0.36075 0.83574 0.61973 0.0
O91 O 0.26241 0.82752 0.70622 0.0
C92 C 0.09282 0.84901 0.72981 0.0
O93 O 0.10707 0.85327 0.79456 0.0
O94 O 0.13217 0.87959 0.68717 0.0
O95 O 0.24257 0.9159 0.79719 0.0
O96 O 0.33772 0.95919 0.78614 0.0
O97 O 0.20512 0.01248 0.74705 0.0
C98 C 0.30354 0.97185 0.59445 0.0
C99 C 0.29376 0.94792 0.82162 0.0
Zn100 Zn 0.56511 0.64966 0.7206 0.0
Zn101 Zn 0.74706 0.76446 0.71031 0.0
C102 C 0.54597 0.75354 0.72399 0.0
O103 O 0.58529 0.77423 0.77315 0.0
C104 C 0.85442 0.77439 0.66242 0.0
O105 O 0.84651 0.80421 0.61297 0.0
O106 O 0.49665 0.5749 0.75718 0.0
O107 O 0.59161 0.63192 0.63171 0.0
O108 O 0.67406 0.70228 0.66949 0.0
C109 C 0.45981 0.53614 0.71589 0.0
O110 O 0.47102 0.54263 0.65069 0.0
O111 O 0.53255 0.70364 0.6958 0.0
C112 C 0.77313 0.88737 0.7206 0.0
O113 O 0.74294 0.86786 0.77647 0.0
O114 O 0.77555 0.84974 0.68066 0.0
O115 O 0.72421 0.75537 0.8069 0.0
O116 O 0.62869 0.69183 0.7949 0.0
O117 O 0.81499 0.74908 0.70661 0.0
C118 C 0.64494 0.66778 0.62123 0.0
C119 C 0.67406 0.7222 0.83221 0.0
C120 C 0.35806 1.0024 0.92194 0.0
C121 C 0.30201 0.97072 0.89222 0.0
H122 H 0.40971 0.05163 0.00837 0.0
C123 C 0.25391 0.9626 0.92991 0.0
H124 H 0.39605 1.00929 0.89433 0.0
C125 C 0.26174 0.98686 -0.00487 0.0
C126 C 0.31787 0.01977 0.02438 0.0
H127 H 0.21014 0.93844 0.90861 0.0
H128 H 0.22368 0.98057 0.02213 0.0
C129 C 0.3659 0.02657 -0.01259 0.0
C130 C 0.64323 0.62257 0.50916 0.0
C131 C 0.67021 0.67134 0.55436 0.0
H132 H 0.63844 0.5908 0.40792 0.0
C133 C 0.71712 0.72576 0.53235 0.0
H134 H 0.60693 0.58013 0.52509 0.0
C135 C 0.73484 0.73231 0.46495 0.0
C136 C 0.7061 0.6843 0.41877 0.0
H137 H 0.73786 0.76426 0.56612 0.0
H138 H 0.76976 0.77549 0.44862 0.0
C139 C 0.66131 0.62881 0.44209 0.0
C140 C 0.95948 0.29205 0.03697 0.0
C141 C 0.99638 0.33816 0.08191 0.0
H142 H 0.94866 0.25406 0.93752 0.0
C143 C 0.05109 0.3832 0.06007 0.0
H144 H 0.91736 0.25648 0.05317 0.0
C145 C 0.06843 0.38253 -0.00633 0.0
C146 C 0.03202 0.33571 0.94917 0.0
H147 H 0.08021 0.41898 0.09426 0.0
H148 H 0.11069 0.41786 0.97751 0.0
C149 C 0.97755 0.29037 0.97129 0.0
C150 C 0.36877 0.03353 0.42227 0.0
C151 C 0.32484 0.04178 0.39168 0.0
H152 H 0.39651 1.00466 0.51041 0.0
C153 C 0.27484 0.02826 0.42892 0.0
H154 H 0.40783 0.04358 0.39489 0.0
C155 C 0.26861 1.00659 0.49498 0.0
C156 C 0.312 0.99739 0.52537 0.0
H157 H 0.24027 0.0344 0.40709 0.0
H158 H 0.2292 0.99616 0.52179 0.0
C159 C 0.36226 0.0112 0.48839 0.0
C160 C 0.62964 0.66509 0.93804 0.0
C161 C 0.66954 0.71874 0.90641 0.0
H162 H 0.60467 0.6155 0.0308 0.0
C163 C 0.70974 0.76749 0.9462 0.0
H164 H 0.59807 0.62699 0.90825 0.0
C165 C 0.71301 0.76137 0.01604 0.0
C166 C 0.67685 0.70596 0.04721 0.0
H167 H 0.74036 0.80968 0.92293 0.0
H168 H 0.74646 0.799 0.04474 0.0
C169 C 0.63357 0.65854 0.00804 0.0
C170 C 0.94798 0.26154 0.49061 0.0
C171 C 0.95779 0.31178 0.45264 0.0
H172 H 0.96072 0.22882 0.58487 0.0
C173 C 0.98341 0.36861 0.48362 0.0
H174 H 0.92852 0.21742 0.46709 0.0
C175 C 0.00344 0.37574 0.55093 0.0
C176 C 0.99745 0.32589 0.58771 0.0
H177 H 0.99188 0.40794 0.45441 0.0
H178 H 0.02623 0.42051 0.57278 0.0
C179 C 0.96694 0.26836 0.55784 0.0
C180 C 0.62051 0.14276 0.20882 0.0
C181 C 0.58399 0.16598 0.22593 0.0
H182 H 0.70746 0.15615 0.21149 0.0
C183 C 0.60763 0.22042 0.26232 0.0
H184 H 0.60342 0.10082 0.18096 0.0
C185 C 0.66647 0.25128 0.28076 0.0
C186 C 0.70342 0.22901 0.2624 0.0
H187 H 0.58059 0.2393 0.27688 0.0
H188 H 0.68321 0.29344 0.30811 0.0
C189 C 0.67992 0.17434 0.22637 0.0
C190 C 0.5188 0.40813 0.2727 0.0
C191 C 0.52409 0.43005 0.20618 0.0
H192 H 0.48179 0.33137 0.33738 0.0
C193 C 0.4884 0.39054 0.15455 0.0
H194 H 0.54496 0.43747 0.31393 0.0
C195 C 0.45186 0.32943 0.1681 0.0
C196 C 0.45039 0.30669 0.23355 0.0
H197 H 0.49089 0.40609 0.10289 0.0
H198 H 0.42755 0.29955 0.1264 0.0
C199 C 0.48231 0.3472 0.28623 0.0
C200 C 0.85549 0.48889 0.27261 0.0
C201 C 0.84885 0.46115 0.209 0.0
H202 H 0.83634 0.54562 0.33401 0.0
C203 C 0.82237 0.47566 0.15544 0.0
H204 H 0.87592 0.47897 0.31495 0.0
C205 C 0.7999 0.51421 0.16634 0.0
C206 C 0.8031 0.53873 0.23116 0.0
H207 H 0.8169 0.4554 0.10571 0.0
H208 H 0.7776 0.52244 0.12469 0.0
C209 C 0.83271 0.52711 0.28361 0.0
C210 C 0.20422 0.6297 0.79168 0.0
C211 C 0.16209 0.60175 0.73988 0.0
H212 H 0.26849 0.71213 0.83731 0.0
C213 C 0.15059 0.63782 0.69542 0.0
H214 H 0.21386 0.6033 0.82714 0.0
C215 C 0.18222 0.7006 0.70111 0.0
C216 C 0.22564 0.72848 0.7517 0.0
H217 H 0.11823 0.61767 0.6551 0.0
H218 H 0.17359 0.72724 0.66493 0.0
C219 C 0.23542 0.69224 0.79768 0.0
C220 C 0.48597 0.86075 0.72886 0.0
C221 C 0.44364 0.83761 0.6765 0.0
H222 H 0.5519 0.85265 0.78472 0.0
C223 C 0.43852 0.78968 0.63676 0.0
H224 H 0.49115 0.89781 0.76028 0.0
C225 C 0.47307 0.76366 0.65095 0.0
C226 C 0.51373 0.78513 0.70506 0.0
H227 H 0.4065 0.77086 0.59591 0.0
H228 H 0.46682 0.72571 0.62044 0.0
C229 C 0.52078 0.83485 0.7429 0.0
C230 C 0.3264 0.46368 0.82558 0.0
C231 C 0.28206 0.43392 0.77639 0.0
H232 H 0.41786 0.51901 0.84519 0.0
C233 C 0.29767 0.42875 0.70984 0.0
H234 H 0.31593 0.46785 0.87754 0.0
C235 C 0.35623 0.4581 0.69129 0.0
C236 C 0.40025 0.49321 0.73891 0.0
H237 H 0.26461 0.40542 0.6709 0.0
H238 H 0.36655 0.45646 0.63859 0.0
C239 C 0.38495 0.49311 0.807 0.0
C240 C 0.21993 0.23405 0.17246 0.0
C241 C 0.23153 0.2191 0.23739 0.0
H242 H 0.17169 0.26551 0.11357 0.0
C243 C 0.20961 0.23385 0.2944 0.0
H244 H 0.23649 0.22372 0.12747 0.0
C245 C 0.17223 0.25741 0.28639 0.0
C246 C 0.1562 0.26705 0.22121 0.0
H247 H 0.21823 0.22362 0.3452 0.0
H248 H 0.15352 0.26509 0.33129 0.0
C249 C 0.18258 0.25784 0.16445 0.0
C250 C 0.99956 0.92489 0.27492 0.0
C251 C 0.96135 0.87045 0.24204 0.0
H252 H 0.08628 0.99877 0.28395 0.0
C253 C 0.98346 0.8477 0.19276 0.0
H254 H 0.98397 0.9439 0.31286 0.0
C255 C 0.04268 0.8792 0.17642 0.0
C256 C 0.08045 0.93439 0.20833 0.0
H257 H 0.95498 0.80588 0.16649 0.0
H258 H 0.05862 0.86089 0.13807 0.0
C259 C 0.05826 0.95665 0.25795 0.0
C260 C 0.83607 0.04702 0.28067 0.0
C261 C 0.87323 0.09185 0.23547 0.0
H262 H 0.78725 0.953 0.30242 0.0
C263 C 0.88479 0.07426 0.17261 0.0
H264 H 0.82591 0.05889 0.32937 0.0
C265 C 0.86259 0.01332 0.15718 0.0
C266 C 0.82829 0.96865 0.20419 0.0
H267 H 0.91308 0.10756 0.1365 0.0
H268 H 0.87427 1.00144 0.10946 0.0
C269 C 0.81387 0.98616 0.26523 0.0
C270 C 0.17207 0.17953 0.71006 0.0
C271 C 0.14703 0.17227 0.77437 0.0
H272 H 0.21208 0.14845 0.639 0.0
C273 C 0.14909 0.13071 0.81951 0.0
H274 H 0.17137 0.21121 0.67408 0.0
C275 C 0.17234 0.09466 0.79939 0.0
C276 C 0.19404 0.09923 0.73358 0.0
H277 H 0.13056 0.12419 0.86961 0.0
H278 H 0.17119 0.06159 0.83463 0.0
C279 C 0.19526 0.14335 0.68987 0.0
C280 C 0.01486 0.82777 0.64256 0.0
C281 C 0.03062 0.8189 0.7083 0.0
H282 H 0.94656 0.82016 0.57628 0.0
C283 C 0.98637 0.78697 0.75539 0.0
H284 H 0.04774 0.85182 0.60481 0.0
C285 C 0.92816 0.76832 0.73874 0.0
C286 C 0.91309 0.78175 0.67487 0.0
H287 H 0.99695 0.7789 0.80625 0.0
H288 H 0.89556 0.74665 0.77742 0.0
C289 C 0.95676 0.80964 0.62614 0.0
C290 C 0.86713 0.0523 0.76284 0.0
C291 C 0.90617 0.07247 0.70856 0.0
H292 H 0.79355 0.97834 0.8084 0.0
C293 C 0.89695 0.03286 0.65447 0.0
H294 H 0.8726 0.08192 0.80491 0.0
C295 C 0.85153 0.97334 0.65642 0.0
C296 C 0.81424 0.95235 0.71237 0.0
H297 H 0.92597 0.04718 0.61161 0.0
H298 H 0.84705 0.94324 0.61528 0.0
C299 C 0.82153 0.99295 0.7646 0.0
loop_
_geom_bond_atom_site_label_1
_geom_bond_atom_site_label_2
_geom_bond_distance
_geom_bond_site_symmetry_2
_ccdc_geom_bond_type
Zn0 O6 1.969 1_545 S
Zn0 O7 1.965 . S
Zn0 O11 2.024 . S
Zn0 O16 1.969 . S
Zn1 O8 1.969 . S
Zn1 O14 1.969 . S
Zn1 O15 1.965 . S
Zn1 O17 2.024 . S
C2 O3 1.229 . S
C2 O11 1.058 . S
O3 C2 1.229 . S
C4 O5 1.229 . S
C4 O17 1.058 . S
O5 C4 1.229 . S
O6 Zn0 1.969 1_565 S
O6 C9 1.267 . S
O7 Zn0 1.965 . S
O7 C18 1.260 . S
O8 Zn1 1.969 . S
O8 C18 1.258 . S
C9 O6 1.267 . S
C9 O10 1.228 . S
O10 C9 1.228 . S
O11 Zn0 2.024 . S
O11 C2 1.058 . S
C12 O13 1.228 . S
C12 O14 1.267 . S
O13 C12 1.228 . S
O14 Zn1 1.969 . S
O14 C12 1.267 . S
O15 Zn1 1.965 . S
O15 C19 1.260 . S
O16 Zn0 1.969 . S
O16 C19 1.258 . S
O17 Zn1 2.024 . S
O17 C4 1.058 . S
C18 O7 1.260 . S
C18 O8 1.258 . S
C19 O15 1.260 . S
C19 O16 1.258 . S
Zn20 O26 1.969 . S
Zn20 O27 1.965 . S
Zn20 O31 2.024 . S
Zn20 O36 1.969 . S
Zn21 O28 1.969 . S
Zn21 O34 1.969 . S
Zn21 O35 1.965 . S
Zn21 O37 2.024 . S
C22 O23 1.229 . S
C22 O31 1.058 . S
O23 C22 1.229 . S
C24 O25 1.229 . S
C24 O37 1.058 . S
O25 C24 1.229 . S
O26 Zn20 1.969 . S
O26 C29 1.267 . S
O27 Zn20 1.965 . S
O27 C38 1.260 . S
O28 Zn21 1.969 . S
O28 C38 1.258 . S
C29 O26 1.267 . S
C29 O30 1.228 . S
O30 C29 1.228 . S
O31 Zn20 2.024 . S
O31 C22 1.058 . S
C32 O33 1.228 . S
C32 O34 1.267 . S
O33 C32 1.228 . S
O34 Zn21 1.969 . S
O34 C32 1.267 . S
O35 Zn21 1.965 . S
O35 C39 1.260 . S
O36 Zn20 1.969 . S
O36 C39 1.258 . S
O37 Zn21 2.024 . S
O37 C24 1.058 . S
C38 O27 1.260 . S
C38 O28 1.258 . S
C39 O35 1.260 . S
C39 O36 1.258 . S
Zn40 O46 1.969 1_655 S
Zn40 O47 1.965 . S
Zn40 O51 2.024 . S
Zn40 O56 1.969 . S
Zn41 O48 1.969 . S
Zn41 O54 1.969 . S
Zn41 O55 1.965 . S
Zn41 O57 2.024 . S
C42 O43 1.229 . S
C42 O51 1.058 . S
O43 C42 1.229 . S
C44 O45 1.229 . S
C44 O57 1.058 . S
O45 C44 1.229 . S
O46 Zn40 1.969 1_455 S
O46 C49 1.267 . S
O47 Zn40 1.965 . S
O47 C58 1.260 . S
O48 Zn41 1.969 . S
O48 C58 1.258 . S
C49 O46 1.267 . S
C49 O50 1.228 . S
O50 C49 1.228 . S
O51 Zn40 2.024 . S
O51 C42 1.058 . S
C52 O53 1.228 . S
C52 O54 1.267 . S
O53 C52 1.228 . S
O54 Zn41 1.969 . S
O54 C52 1.267 . S
O55 Zn41 1.965 . S
O55 C59 1.260 . S
O56 Zn40 1.969 . S
O56 C59 1.258 . S
O57 Zn41 2.024 . S
O57 C44 1.058 . S
C58 O47 1.260 . S
C58 O48 1.258 . S
C59 O55 1.260 . S
C59 O56 1.258 . S
Zn60 O66 1.969 . S
Zn60 O67 1.965 . S
Zn60 O71 2.024 . S
Zn60 O76 1.969 . S
Zn61 O68 1.969 . S
Zn61 O74 1.969 . S
Zn61 O75 1.965 . S
Zn61 O77 2.024 1_455 S
C62 O63 1.229 . S
C62 O71 1.058 . S
O63 C62 1.229 . S
C64 O65 1.229 . S
C64 O77 1.058 . S
O65 C64 1.229 . S
O66 Zn60 1.969 . S
O66 C69 1.267 . S
O67 Zn60 1.965 . S
O67 C78 1.260 . S
O68 Zn61 1.969 . S
O68 C78 1.258 . S
C69 O66 1.267 . S
C69 O70 1.228 . S
O70 C69 1.228 . S
O71 Zn60 2.024 . S
O71 C62 1.058 . S
C72 O73 1.228 . S
C72 O74 1.267 . S
O73 C72 1.228 . S
O74 Zn61 1.969 . S
O74 C72 1.267 . S
O75 Zn61 1.965 . S
O75 C79 1.260 . S
O76 Zn60 1.969 . S
O76 C79 1.258 . S
O77 Zn61 2.024 1_655 S
O77 C64 1.058 . S
C78 O67 1.260 . S
C78 O68 1.258 . S
C79 O75 1.260 . S
C79 O76 1.258 . S
Zn80 O86 1.969 . S
Zn80 O87 1.965 . S
Zn80 O91 2.024 . S
Zn80 O96 1.969 . S
Zn81 O88 1.969 . S
Zn81 O94 1.969 . S
Zn81 O95 1.965 . S
Zn81 O97 2.024 1_565 S
C82 O83 1.229 . S
C82 O91 1.058 . S
O83 C82 1.229 . S
C84 O85 1.229 . S
C84 O97 1.058 . S
O85 C84 1.229 . S
O86 Zn80 1.969 . S
O86 C89 1.267 . S
O87 Zn80 1.965 . S
O87 C98 1.260 . S
O88 Zn81 1.969 . S
O88 C98 1.258 . S
C89 O86 1.267 . S
C89 O90 1.228 . S
O90 C89 1.228 . S
O91 Zn80 2.024 . S
O91 C82 1.058 . S
C92 O93 1.228 . S
C92 O94 1.267 . S
O93 C92 1.228 . S
O94 Zn81 1.969 . S
O94 C92 1.267 . S
O95 Zn81 1.965 . S
O95 C99 1.260 . S
O96 Zn80 1.969 . S
O96 C99 1.258 . S
O97 Zn81 2.024 1_545 S
O97 C84 1.058 . S
C98 O87 1.260 . S
C98 O88 1.258 . S
C99 O95 1.260 . S
C99 O96 1.258 . S
Zn100 O106 1.969 . S
Zn100 O107 1.965 . S
Zn100 O111 2.024 . S
Zn100 O116 1.969 . S
Zn101 O108 1.969 . S
Zn101 O114 1.969 . S
Zn101 O115 1.965 . S
Zn101 O117 2.024 . S
C102 O103 1.229 . S
C102 O111 1.058 . S
O103 C102 1.229 . S
C104 O105 1.229 . S
C104 O117 1.058 . S
O105 C104 1.229 . S
O106 Zn100 1.969 . S
O106 C109 1.267 . S
O107 Zn100 1.965 . S
O107 C118 1.260 . S
O108 Zn101 1.969 . S
O108 C118 1.258 . S
C109 O106 1.267 . S
C109 O110 1.228 . S
O110 C109 1.228 . S
O111 Zn100 2.024 . S
O111 C102 1.058 . S
C112 O113 1.228 . S
C112 O114 1.267 . S
O113 C112 1.228 . S
O114 Zn101 1.969 . S
O114 C112 1.267 . S
O115 Zn101 1.965 . S
O115 C119 1.260 . S
O116 Zn100 1.969 . S
O116 C119 1.258 . S
O117 Zn101 2.024 . S
O117 C104 1.058 . S
C118 O107 1.260 . S
C118 O108 1.258 . S
C119 O115 1.260 . S
C119 O116 1.258 . S
C120 C121 1.387 . S
C120 H124 0.950 . S
C120 C129 1.390 1_566 S
C121 C120 1.387 . S
C121 C123 1.387 . S
H122 C129 0.950 . S
C123 C121 1.387 . S
C123 C125 1.390 1_566 S
C123 H127 0.950 . S
H124 C120 0.950 . S
C125 C123 1.390 1_544 S
C125 C126 1.387 . S
C125 H128 0.950 . S
C126 C125 1.387 . S
C126 C129 1.387 . S
H127 C123 0.950 . S
H128 C125 0.950 . S
C129 C120 1.390 1_544 S
C129 H122 0.950 . S
C129 C126 1.387 . S
C130 C131 1.387 . S
C130 H134 0.950 . S
C130 C139 1.390 . S
C131 C130 1.387 . S
C131 C133 1.387 . S
H132 C139 0.950 . S
C133 C131 1.387 . S
C133 C135 1.390 . S
C133 H137 0.950 . S
H134 C130 0.950 . S
C135 C133 1.390 . S
C135 C136 1.387 . S
C135 H138 0.950 . S
C136 C135 1.387 . S
C136 C139 1.387 . S
H137 C133 0.950 . S
H138 C135 0.950 . S
C139 C130 1.390 . S
C139 H132 0.950 . S
C139 C136 1.387 . S
C140 C141 1.387 . S
C140 H144 0.950 . S
C140 C149 1.390 1_654 S
C141 C140 1.387 . S
C141 C143 1.387 1_655 S
H142 C149 0.950 . S
C143 C141 1.387 1_455 S
C143 C145 1.390 1_554 S
C143 H147 0.950 1_455 S
H144 C140 0.950 . S
C145 C143 1.390 1_556 S
C145 C146 1.387 . S
C145 H148 0.950 . S
C146 C145 1.387 . S
C146 C149 1.387 . S
H147 C143 0.950 1_655 S
H148 C145 0.950 . S
C149 C140 1.390 1_456 S
C149 H142 0.950 . S
C149 C146 1.387 . S
C150 C151 1.387 . S
C150 H154 0.950 . S
C150 C159 1.390 1_545 S
C151 C150 1.387 . S
C151 C153 1.387 . S
H152 C159 0.950 . S
C153 C151 1.387 . S
C153 C155 1.390 1_545 S
C153 H157 0.950 . S
H154 C150 0.950 . S
C155 C153 1.390 1_565 S
C155 C156 1.387 . S
C155 H158 0.950 . S
C156 C155 1.387 . S
C156 C159 1.387 . S
H157 C153 0.950 . S
H158 C155 0.950 . S
C159 C150 1.390 1_565 S
C159 H152 0.950 . S
C159 C156 1.387 . S
C160 C161 1.387 . S
C160 H164 0.950 . S
C160 C169 1.390 1_556 S
C161 C160 1.387 . S
C161 C163 1.387 . S
H162 C169 0.950 . S
C163 C161 1.387 . S
C163 C165 1.390 1_556 S
C163 H167 0.950 . S
H164 C160 0.950 . S
C165 C163 1.390 1_554 S
C165 C166 1.387 . S
C165 H168 0.950 . S
C166 C165 1.387 . S
C166 C169 1.387 . S
H167 C163 0.950 . S
H168 C165 0.950 . S
C169 C160 1.390 1_554 S
C169 H162 0.950 . S
C169 C166 1.387 . S
C170 C171 1.387 . S
C170 H174 0.950 . S
C170 C179 1.390 . S
C171 C170 1.387 . S
C171 C173 1.387 1_655 S
H172 C179 0.950 . S
C173 C171 1.387 1_455 S
C173 C175 1.390 . S
C173 H177 0.950 . S
H174 C170 0.950 . S
C175 C173 1.390 . S
C175 C176 1.387 . S
C175 H178 0.950 . S
C176 C175 1.387 . S
C176 C179 1.387 1_455 S
H177 C173 0.950 . S
H178 C175 0.950 . S
C179 C170 1.390 . S
C179 H172 0.950 . S
C179 C176 1.387 1_655 S
C180 C181 1.387 . S
C180 H184 0.950 . S
C180 C189 1.390 . S
C181 C180 1.387 . S
C181 C183 1.387 . S
H182 C189 0.950 . S
C183 C181 1.387 . S
C183 C185 1.390 . S
C183 H187 0.950 . S
H184 C180 0.950 . S
C185 C183 1.390 . S
C185 C186 1.387 . S
C185 H188 0.950 . S
C186 C185 1.387 . S
C186 C189 1.387 . S
H187 C183 0.950 . S
H188 C185 0.950 . S
C189 C180 1.390 . S
C189 H182 0.950 . S
C189 C186 1.387 . S
C190 C191 1.387 . S
C190 H194 0.950 . S
C190 C199 1.390 . S
C191 C190 1.387 . S
C191 C193 1.387 . S
H192 C199 0.950 . S
C193 C191 1.387 . S
C193 C195 1.390 . S
C193 H197 0.950 . S
H194 C190 0.950 . S
C195 C193 1.390 . S
C195 C196 1.387 . S
C195 H198 0.950 . S
C196 C195 1.387 . S
C196 C199 1.387 . S
H197 C193 0.950 . S
H198 C195 0.950 . S
C199 C190 1.390 . S
C199 H192 0.950 . S
C199 C196 1.387 . S
C200 C201 1.387 . S
C200 H204 0.950 . S
C200 C209 1.390 . S
C201 C200 1.387 . S
C201 C203 1.387 . S
H202 C209 0.950 . S
C203 C201 1.387 . S
C203 C205 1.390 . S
C203 H207 0.950 . S
H204 C200 0.950 . S
C205 C203 1.390 . S
C205 C206 1.387 . S
C205 H208 0.950 . S
C206 C205 1.387 . S
C206 C209 1.387 . S
H207 C203 0.950 . S
H208 C205 0.950 . S
C209 C200 1.390 . S
C209 H202 0.950 . S
C209 C206 1.387 . S
C210 C211 1.387 . S
C210 H214 0.950 . S
C210 C219 1.390 . S
C211 C210 1.387 . S
C211 C213 1.387 . S
H212 C219 0.950 . S
C213 C211 1.387 . S
C213 C215 1.390 . S
C213 H217 0.950 . S
H214 C210 0.950 . S
C215 C213 1.390 . S
C215 C216 1.387 . S
C215 H218 0.950 . S
C216 C215 1.387 . S
C216 C219 1.387 . S
H217 C213 0.950 . S
H218 C215 0.950 . S
C219 C210 1.390 . S
C219 H212 0.950 . S
C219 C216 1.387 . S
C220 C221 1.387 . S
C220 H224 0.950 . S
C220 C229 1.390 . S
C221 C220 1.387 . S
C221 C223 1.387 . S
H222 C229 0.950 . S
C223 C221 1.387 . S
C223 C225 1.390 . S
C223 H227 0.950 . S
H224 C220 0.950 . S
C225 C223 1.390 . S
C225 C226 1.387 . S
C225 H228 0.950 . S
C226 C225 1.387 . S
C226 C229 1.387 . S
H227 C223 0.950 . S
H228 C225 0.950 . S
C229 C220 1.390 . S
C229 H222 0.950 . S
C229 C226 1.387 . S
C230 C231 1.387 . S
C230 H234 0.950 . S
C230 C239 1.390 . S
C231 C230 1.387 . S
C231 C233 1.387 . S
H232 C239 0.950 . S
C233 C231 1.387 . S
C233 C235 1.390 . S
C233 H237 0.950 . S
H234 C230 0.950 . S
C235 C233 1.390 . S
C235 C236 1.387 . S
C235 H238 0.950 . S
C236 C235 1.387 . S
C236 C239 1.387 . S
H237 C233 0.950 . S
H238 C235 0.950 . S
C239 C230 1.390 . S
C239 H232 0.950 . S
C239 C236 1.387 . S
C240 C241 1.387 . S
C240 H244 0.950 . S
C240 C249 1.390 . S
C241 C240 1.387 . S
C241 C243 1.387 . S
H242 C249 0.950 . S
C243 C241 1.387 . S
C243 C245 1.390 . S
C243 H247 0.950 . S
H244 C240 0.950 . S
C245 C243 1.390 . S
C245 C246 1.387 . S
C245 H248 0.950 . S
C246 C245 1.387 . S
C246 C249 1.387 . S
H247 C243 0.950 . S
H248 C245 0.950 . S
C249 C240 1.390 . S
C249 H242 0.950 . S
C249 C246 1.387 . S
C250 C251 1.387 1_455 S
C250 H254 0.950 . S
C250 C259 1.390 . S
C251 C250 1.387 1_655 S
C251 C253 1.387 1_655 S
H252 C259 0.950 . S
C253 C251 1.387 1_455 S
C253 C255 1.390 . S
C253 H257 0.950 1_455 S
H254 C250 0.950 . S
C255 C253 1.390 . S
C255 C256 1.387 . S
C255 H258 0.950 . S
C256 C255 1.387 . S
C256 C259 1.387 . S
H257 C253 0.950 1_655 S
H258 C255 0.950 . S
C259 C250 1.390 . S
C259 H252 0.950 . S
C259 C256 1.387 . S
C260 C261 1.387 1_565 S
C260 H264 0.950 1_565 S
C260 C269 1.390 . S
C261 C260 1.387 1_545 S
C261 C263 1.387 1_545 S
H262 C269 0.950 . S
C263 C261 1.387 1_565 S
C263 C265 1.390 . S
C263 H267 0.950 1_565 S
H264 C260 0.950 1_545 S
C265 C263 1.390 . S
C265 C266 1.387 . S
C265 H268 0.950 . S
C266 C265 1.387 . S
C266 C269 1.387 . S
H267 C263 0.950 1_545 S
H268 C265 0.950 . S
C269 C260 1.390 . S
C269 H262 0.950 . S
C269 C266 1.387 . S
C270 C271 1.387 . S
C270 H274 0.950 . S
C270 C279 1.390 . S
C271 C270 1.387 . S
C271 C273 1.387 . S
H272 C279 0.950 . S
C273 C271 1.387 . S
C273 C275 1.390 . S
C273 H277 0.950 . S
H274 C270 0.950 . S
C275 C273 1.390 . S
C275 C276 1.387 . S
C275 H278 0.950 . S
C276 C275 1.387 . S
C276 C279 1.387 . S
H277 C273 0.950 . S
H278 C275 0.950 . S
C279 C270 1.390 . S
C279 H272 0.950 . S
C279 C276 1.387 . S
C280 C281 1.387 . S
C280 H284 0.950 . S
C280 C289 1.390 . S
C281 C280 1.387 . S
C281 C283 1.387 . S
H282 C289 0.950 . S
C283 C281 1.387 . S
C283 C285 1.390 . S
C283 H287 0.950 . S
H284 C280 0.950 . S
C285 C283 1.390 . S
C285 C286 1.387 . S
C285 H288 0.950 . S
C286 C285 1.387 . S
C286 C289 1.387 . S
H287 C283 0.950 . S
H288 C285 0.950 . S
C289 C280 1.390 . S
C289 H282 0.950 . S
C289 C286 1.387 . S
C290 C291 1.387 . S
C290 H294 0.950 . S
C290 C299 1.390 . S
C291 C290 1.387 . S
C291 C293 1.387 . S
H292 C299 0.950 . S
C293 C291 1.387 . S
C293 C295 1.390 . S
C293 H297 0.950 . S
H294 C290 0.950 . S
C295 C293 1.390 . S
C295 C296 1.387 . S
C295 H298 0.950 . S
C296 C295 1.387 . S
C296 C299 1.387 . S
H297 C293 0.950 . S
H298 C295 0.950 . S
C299 C290 1.390 . S
C299 H292 0.950 . S
C299 C296 1.387 . S
C121 C99 2.229 . S
C126 C18 2.147 . S
C131 C118 2.104 . S
C136 C39 2.216 . S
C141 C58 2.145 . S
C146 C79 2.227 . S
C151 C19 2.215 . S
C156 C98 2.104 . S
C161 C119 2.229 . S
C166 C38 2.147 . S
C171 C59 2.218 . S
C176 C78 2.106 . S
C181 C4 1.426 . S
C186 C52 1.788 . S
C191 C24 1.420 . S
C196 C12 1.787 . S
C201 C44 1.420 . S
C206 C32 1.787 . S
C211 C69 1.543 . S
C216 C82 1.804 . S
C221 C89 1.543 . S
C226 C102 1.804 . S
C231 C62 1.804 . S
C236 C109 1.544 . S
C241 C2 1.313 . S
C246 C49 1.089 . S
C251 C22 1.313 . S
C256 C9 1.096 . S
C261 C42 1.313 . S
C266 C29 1.096 . S
C271 C72 1.292 . S
C276 C84 1.005 . S
C281 C92 1.292 1_655 S
C286 C104 1.005 . S
C291 C64 0.997 . S
C296 C112 1.291 1_545 S
