# Generated by pormake.
# Topology umm, (4)-cn, num edge types: 1
# Building blocks:
#     Node 0, Type 0, BuildingBlock: CEKHIL_clean_sbu_0, # of connection points: 4
#     Node 1, Type 0, BuildingBlock: CEKHIL_clean_sbu_0, # of connection points: 4
#     Node 2, Type 0, BuildingBlock: CEKHIL_clean_sbu_0, # of connection points: 4
#     Node 3, Type 0, BuildingBlock: CEKHIL_clean_sbu_0, # of connection points: 4
#     Node 4, Type 0, BuildingBlock: CEKHIL_clean_sbu_0, # of connection points: 4
#     Node 5, Type 0, BuildingBlock: CEKHIL_clean_sbu_0, # of connection points: 4
#     Node 6, Type 0, BuildingBlock: CEKHIL_clean_sbu_0, # of connection points: 4
#     Node 7, Type 0, BuildingBlock: CEKHIL_clean_sbu_0, # of connection points: 4
#     Node 8, Type 0, BuildingBlock: CEKHIL_clean_sbu_0, # of connection points: 4
#     Node 9, Type 0, BuildingBlock: CEKHIL_clean_sbu_0, # of connection points: 4
#     Node 10, Type 0, BuildingBlock: CEKHIL_clean_sbu_0, # of connection points: 4
#     Node 11, Type 0, BuildingBlock: CEKHIL_clean_sbu_0, # of connection points: 4
#     Edge 12, Type (0, 0), BuildingBlock: MIFKUJ_clean_linker_0, # of connection points: 2
#     Edge 13, Type (0, 0), BuildingBlock: MIFKUJ_clean_linker_0, # of connection points: 2
#     Edge 14, Type (0, 0), BuildingBlock: MIFKUJ_clean_linker_0, # of connection points: 2
#     Edge 15, Type (0, 0), BuildingBlock: MIFKUJ_clean_linker_0, # of connection points: 2
#     Edge 16, Type (0, 0), BuildingBlock: MIFKUJ_clean_linker_0, # of connection points: 2
#     Edge 17, Type (0, 0), BuildingBlock: MIFKUJ_clean_linker_0, # of connection points: 2
#     Edge 18, Type (0, 0), BuildingBlock: MIFKUJ_clean_linker_0, # of connection points: 2
#     Edge 19, Type (0, 0), BuildingBlock: MIFKUJ_clean_linker_0, # of connection points: 2
#     Edge 20, Type (0, 0), BuildingBlock: MIFKUJ_clean_linker_0, # of connection points: 2
#     Edge 21, Type (0, 0), BuildingBlock: MIFKUJ_clean_linker_0, # of connection points: 2
#     Edge 22, Type (0, 0), BuildingBlock: MIFKUJ_clean_linker_0, # of connection points: 2
#     Edge 23, Type (0, 0), BuildingBlock: MIFKUJ_clean_linker_0, # of connection points: 2
#     Edge 24, Type (0, 0), BuildingBlock: MIFKUJ_clean_linker_0, # of connection points: 2
#     Edge 25, Type (0, 0), BuildingBlock: MIFKUJ_clean_linker_0, # of connection points: 2
#     Edge 26, Type (0, 0), BuildingBlock: MIFKUJ_clean_linker_0, # of connection points: 2
#     Edge 27, Type (0, 0), BuildingBlock: MIFKUJ_clean_linker_0, # of connection points: 2
#     Edge 28, Type (0, 0), BuildingBlock: MIFKUJ_clean_linker_0, # of connection points: 2
#     Edge 29, Type (0, 0), BuildingBlock: MIFKUJ_clean_linker_0, # of connection points: 2
#     Edge 30, Type (0, 0), BuildingBlock: MIFKUJ_clean_linker_0, # of connection points: 2
#     Edge 31, Type (0, 0), BuildingBlock: MIFKUJ_clean_linker_0, # of connection points: 2
#     Edge 32, Type (0, 0), BuildingBlock: MIFKUJ_clean_linker_0, # of connection points: 2
#     Edge 33, Type (0, 0), BuildingBlock: MIFKUJ_clean_linker_0, # of connection points: 2
#     Edge 34, Type (0, 0), BuildingBlock: MIFKUJ_clean_linker_0, # of connection points: 2
#     Edge 35, Type (0, 0), BuildingBlock: MIFKUJ_clean_linker_0, # of connection points: 2
# Relax obj value: 0.137
# Max RMSD: 0.385
# Mean RMSD: 0.252
data_MOF--net-umm--node1-CEKHIL_clean_sbu_0--edge1-MIFKUJ_clean_linker_0
_symmetry_space_group_name_H-M    P1
_symmetry_Int_Tables_number       1
_symmetry_cell_setting            triclinic
loop_
_symmetry_equiv_pos_as_xyz
'x, y, z'
_cell_length_a     67.795499
_cell_length_b     73.768138
_cell_length_c     35.533582
_cell_angle_alpha  89.984357
_cell_angle_beta   89.950939
_cell_angle_gamma 117.45971
loop_
_atom_site_label
_atom_site_type_symbol
_atom_site_fract_x
_atom_site_fract_y
_atom_site_fract_z
_atom_type_partial_charge
Co0 Co 0.42439 0.58816 0.07994 0.0
O1 O 0.40021 0.59486 0.08298 0.0
O2 O 0.3989 0.56776 0.05376 0.0
C3 C 0.43493 0.59365 0.14028 0.0
O4 O 0.44539 0.57575 0.07236 0.0
Co5 Co 0.473 0.62121 0.09409 0.0
O6 O 0.47929 0.59752 0.09416 0.0
C7 C 0.45218 0.62014 0.02134 0.0
C8 C 0.38893 0.57853 0.06308 0.0
C9 C 0.46552 0.58015 0.08116 0.0
O10 O 0.43474 0.60416 0.032 0.0
O11 O 0.46926 0.62984 0.0421 0.0
O12 O 0.41805 0.57662 0.13023 0.0
O13 O 0.44304 0.60765 0.11461 0.0
Co14 Co 0.8681 0.3688 0.40282 0.0
O15 O 0.84239 0.34385 0.4149 0.0
O16 O 0.86764 0.34627 0.37311 0.0
C17 C 0.87754 0.37939 0.46258 0.0
O18 O 0.89707 0.39294 0.38464 0.0
Co19 Co 0.86511 0.40841 0.42307 0.0
O20 O 0.89626 0.42163 0.40509 0.0
C21 C 0.84141 0.38529 0.35693 0.0
C22 C 0.84875 0.33494 0.38983 0.0
C23 C 0.90585 0.41254 0.38843 0.0
O24 O 0.85085 0.37388 0.36196 0.0
O25 O 0.84364 0.39953 0.37973 0.0
O26 O 0.88347 0.36658 0.44755 0.0
O27 O 0.86413 0.38342 0.44254 0.0
Co28 Co 0.47611 0.85935 0.74154 0.0
O29 O 0.47746 0.83407 0.74294 0.0
O30 O 0.50304 0.86222 0.7162 0.0
C31 C 0.46661 0.8595 0.80217 0.0
O32 O 0.4793 0.88828 0.73626 0.0
Co33 Co 0.42918 0.85629 0.75508 0.0
O34 O 0.44673 0.88646 0.75572 0.0
C35 C 0.43895 0.84331 0.68267 0.0
C36 C 0.49574 0.84288 0.72385 0.0
C37 C 0.46679 0.89668 0.74452 0.0
O38 O 0.45946 0.85088 0.69251 0.0
O39 O 0.42361 0.84224 0.70495 0.0
O40 O 0.48733 0.86581 0.79305 0.0
O41 O 0.45252 0.85108 0.7753 0.0
Co42 Co 0.58591 0.42365 0.08682 0.0
O43 O 0.61051 0.41771 0.09177 0.0
O44 O 0.61171 0.44469 0.0622 0.0
C45 C 0.5739 0.41749 0.14613 0.0
O46 O 0.56425 0.43515 0.07761 0.0
Co47 Co 0.53765 0.38923 0.09823 0.0
O48 O 0.53019 0.41226 0.09716 0.0
C49 C 0.56035 0.39176 0.02665 0.0
C50 C 0.62187 0.43419 0.07228 0.0
C51 C 0.54374 0.42994 0.08504 0.0
O52 O 0.57714 0.408 0.03833 0.0
O53 O 0.54315 0.38128 0.0468 0.0
O54 O 0.59051 0.43496 0.13725 0.0
O55 O 0.56705 0.40357 0.12036 0.0
Co56 Co 0.1394 0.64108 0.39946 0.0
O57 O 0.16375 0.66802 0.40023 0.0
O58 O 0.13361 0.65887 0.36529 0.0
C59 C 0.13695 0.6363 0.46206 0.0
O60 O 0.11103 0.61374 0.39341 0.0
Co61 Co 0.15043 0.60685 0.42749 0.0
O62 O 0.11759 0.59094 0.42647 0.0
C63 C 0.16545 0.62425 0.35276 0.0
C64 C 0.15328 0.67294 0.37515 0.0
C65 C 0.10458 0.59582 0.4081 0.0
O66 O 0.15411 0.63404 0.35693 0.0
O67 O 0.16753 0.61325 0.37878 0.0
O68 O 0.12754 0.64618 0.4461 0.0
O69 O 0.14952 0.63197 0.44041 0.0
Co70 Co 0.5351 0.15227 0.74499 0.0
O71 O 0.53438 0.17793 0.74672 0.0
O72 O 0.5094 0.15039 0.71738 0.0
C73 C 0.54239 0.15057 0.80618 0.0
O74 O 0.53102 0.12309 0.73835 0.0
Co75 Co 0.58066 0.15304 0.76234 0.0
O76 O 0.56273 0.12307 0.75764 0.0
C77 C 0.57433 0.16862 0.69004 0.0
C78 C 0.51675 0.1696 0.72591 0.0
C79 C 0.54284 0.11385 0.74538 0.0
O80 O 0.55358 0.16165 0.6978 0.0
O81 O 0.58851 0.16807 0.71316 0.0
O82 O 0.5221 0.14508 0.79542 0.0
O83 O 0.55748 0.1591 0.78074 0.0
Co84 Co 0.50125 0.64167 0.58196 0.0
O85 O 0.5037 0.66832 0.57395 0.0
O86 O 0.52384 0.66157 0.61514 0.0
C87 C 0.5003 0.6333 0.52107 0.0
O88 O 0.50282 0.61531 0.59601 0.0
Co89 Co 0.45691 0.60492 0.5548 0.0
O90 O 0.47263 0.58921 0.56995 0.0
C91 C 0.45732 0.62472 0.62615 0.0
C92 C 0.51868 0.67495 0.60005 0.0
C93 C 0.49075 0.59614 0.58847 0.0
O94 O 0.4783 0.63623 0.62207 0.0
O95 O 0.44516 0.6116 0.60174 0.0
O96 O 0.51931 0.64455 0.53716 0.0
O97 O 0.48293 0.62982 0.54079 0.0
Co98 Co 0.84032 0.4243 0.89914 0.0
O99 O 0.80919 0.41629 0.89703 0.0
O100 O 0.83482 0.44581 0.91964 0.0
C101 C 0.84403 0.41491 0.84071 0.0
O102 O 0.87404 0.43784 0.90423 0.0
Co103 Co 0.85553 0.39069 0.89511 0.0
O104 O 0.88559 0.41435 0.89146 0.0
C105 C 0.83549 0.39567 0.96479 0.0
C106 C 0.81394 0.43369 0.9128 0.0
C107 C 0.88953 0.43267 0.89855 0.0
O108 O 0.83627 0.41201 0.95077 0.0
O109 O 0.84085 0.38377 0.94605 0.0
O110 O 0.84384 0.43221 0.84662 0.0
O111 O 0.83915 0.4028 0.86946 0.0
Co112 Co 0.3799 0.8603 0.23675 0.0
O113 O 0.35386 0.83444 0.23304 0.0
O114 O 0.3551 0.86112 0.26333 0.0
C115 C 0.38988 0.86276 0.17586 0.0
O116 O 0.40457 0.88963 0.24485 0.0
Co117 Co 0.42539 0.86055 0.22056 0.0
O118 O 0.43705 0.89035 0.22763 0.0
C119 C 0.40247 0.84389 0.29192 0.0
C120 C 0.34363 0.84205 0.25337 0.0
C121 C 0.42583 0.89913 0.23936 0.0
O122 O 0.38859 0.85074 0.28419 0.0
O123 O 0.41727 0.84464 0.26872 0.0
O124 O 0.37475 0.86789 0.18623 0.0
O125 O 0.39628 0.85424 0.20143 0.0
Co126 Co 0.50323 0.36933 0.5807 0.0
O127 O 0.50245 0.34325 0.57374 0.0
O128 O 0.48064 0.34894 0.61317 0.0
C129 C 0.50502 0.37713 0.5194 0.0
O130 O 0.49967 0.39487 0.59326 0.0
Co131 Co 0.54602 0.40789 0.55473 0.0
O132 O 0.52673 0.42117 0.56157 0.0
C133 C 0.54552 0.38956 0.62824 0.0
C134 C 0.48695 0.33615 0.59895 0.0
C135 C 0.50911 0.41356 0.58148 0.0
O136 O 0.52543 0.37596 0.62237 0.0
O137 O 0.55708 0.40355 0.60463 0.0
O138 O 0.48588 0.36557 0.53487 0.0
O139 O 0.52221 0.38159 0.5403 0.0
Co140 Co 0.16862 0.5833 0.89723 0.0
O141 O 0.19871 0.58805 0.89083 0.0
O142 O 0.17187 0.56052 0.91755 0.0
C143 C 0.16359 0.59261 0.83944 0.0
O144 O 0.13554 0.57281 0.90682 0.0
Co145 Co 0.15776 0.61969 0.8947 0.0
O146 O 0.12664 0.59769 0.89135 0.0
C147 C 0.17893 0.61371 0.96211 0.0
C148 C 0.19265 0.57067 0.90771 0.0
C149 C 0.12113 0.57923 0.90036 0.0
O150 O 0.17639 0.59676 0.94799 0.0
O151 O 0.17387 0.62608 0.94432 0.0
O152 O 0.16179 0.5745 0.84528 0.0
O153 O 0.17106 0.60519 0.86745 0.0
Co154 Co 0.62522 0.14998 0.24352 0.0
O155 O 0.65287 0.1745 0.24607 0.0
O156 O 0.64704 0.14494 0.27121 0.0
C157 C 0.61848 0.1519 0.18217 0.0
O158 O 0.59816 0.12151 0.245 0.0
Co159 Co 0.58311 0.15512 0.22542 0.0
O160 O 0.56943 0.12499 0.22038 0.0
C161 C 0.60366 0.16667 0.29984 0.0
C162 C 0.66041 0.16426 0.26569 0.0
C163 C 0.57793 0.11391 0.23281 0.0
O164 O 0.6158 0.15803 0.29173 0.0
O165 O 0.59071 0.16878 0.27601 0.0
O166 O 0.63163 0.14438 0.19244 0.0
O167 O 0.61232 0.16011 0.2087 0.0
H168 H 0.42084 0.56646 0.19818 0.0
H169 H 0.43644 0.5712 0.26148 0.0
H170 H 0.48755 0.6311 0.23064 0.0
H171 H 0.47204 0.62647 0.16697 0.0
H172 H 0.50262 0.6077 0.27751 0.0
H173 H 0.44566 0.62972 0.27319 0.0
H174 H 0.40829 0.62572 0.25878 0.0
H175 H 0.37905 0.57342 0.33158 0.0
H176 H 0.41626 0.57693 0.34598 0.0
H177 H 0.52854 0.65172 0.46263 0.0
H178 H 0.52159 0.64235 0.39604 0.0
H179 H 0.46137 0.58841 0.42621 0.0
H180 H 0.46768 0.59839 0.49229 0.0
H181 H 0.45224 0.60877 0.37783 0.0
H182 H 0.5092 0.58754 0.38605 0.0
H183 H 0.54642 0.59111 0.40027 0.0
H184 H 0.57573 0.64073 0.32162 0.0
H185 H 0.53873 0.63767 0.30729 0.0
C186 C 0.43549 0.58059 0.20474 0.0
C187 C 0.44505 0.59622 0.17784 0.0
C188 C 0.44442 0.58323 0.24083 0.0
C189 C 0.46303 0.60153 0.25063 0.0
C190 C 0.47321 0.61685 0.22344 0.0
C191 C 0.46422 0.61425 0.18727 0.0
C192 C 0.47046 0.60532 0.29019 0.0
C193 C 0.49177 0.60812 0.29959 0.0
C194 C 0.45607 0.6055 0.31877 0.0
C195 C 0.43371 0.60346 0.31034 0.0
C196 C 0.43125 0.61726 0.28588 0.0
C197 C 0.4101 0.6151 0.27776 0.0
C198 C 0.3913 0.59929 0.29417 0.0
C199 C 0.39362 0.58564 0.31884 0.0
C200 C 0.41473 0.58771 0.327 0.0
C201 C 0.51408 0.63766 0.45494 0.0
C202 C 0.49844 0.6259 0.48226 0.0
C203 C 0.51018 0.63224 0.41695 0.0
C204 C 0.49092 0.61467 0.40606 0.0
C205 C 0.47623 0.60214 0.43388 0.0
C206 C 0.47982 0.60783 0.4716 0.0
C207 C 0.48439 0.61072 0.36591 0.0
C208 C 0.46318 0.60812 0.35615 0.0
C209 C 0.4989 0.61064 0.33726 0.0
C210 C 0.52118 0.61249 0.34585 0.0
C211 C 0.52359 0.59933 0.37201 0.0
C212 C 0.54465 0.60123 0.38005 0.0
C213 C 0.56342 0.61616 0.36193 0.0
C214 C 0.56117 0.62918 0.33566 0.0
C215 C 0.54016 0.62735 0.32754 0.0
H216 H 0.57971 0.61761 0.36819 0.0
H217 H 0.37494 0.59764 0.28786 0.0
H218 H 0.87263 0.40987 0.49799 0.0
H219 H 0.87537 0.41689 0.56563 0.0
H220 H 0.89591 0.37029 0.58419 0.0
H221 H 0.89354 0.36341 0.51651 0.0
H222 H 0.85849 0.36422 0.62511 0.0
H223 H 0.93249 0.41717 0.60934 0.0
H224 H 0.96425 0.44799 0.58434 0.0
H225 H 0.92995 0.48334 0.6069 0.0
H226 H 0.89804 0.45274 0.63238 0.0
H227 H 0.85541 0.3847 0.82304 0.0
H228 H 0.86758 0.37843 0.76146 0.0
H229 H 0.85861 0.42798 0.71387 0.0
H230 H 0.84718 0.43463 0.77507 0.0
H231 H 0.89662 0.43056 0.69169 0.0
H232 H 0.82063 0.37612 0.70098 0.0
H233 H 0.79016 0.34574 0.73007 0.0
H234 H 0.82835 0.313 0.71951 0.0
H235 H 0.85916 0.34329 0.69072 0.0
C236 C 0.87819 0.40144 0.51641 0.0
C237 C 0.88261 0.38595 0.50213 0.0
C238 C 0.87989 0.40554 0.55499 0.0
C239 C 0.88582 0.39407 0.57986 0.0
C240 C 0.89134 0.37931 0.56542 0.0
C241 C 0.88998 0.37542 0.52677 0.0
C242 C 0.88331 0.39572 0.6209 0.0
C243 C 0.86719 0.37862 0.63997 0.0
C244 C 0.8944 0.41452 0.64004 0.0
C245 C 0.91284 0.43265 0.62253 0.0
C246 C 0.93162 0.43147 0.60856 0.0
C247 C 0.9497 0.44893 0.59456 0.0
C248 C 0.94913 0.46763 0.59408 0.0
C249 C 0.9304 0.46887 0.6074 0.0
C250 C 0.91235 0.45149 0.62176 0.0
C251 C 0.85598 0.39416 0.79932 0.0
C252 C 0.85037 0.41015 0.80376 0.0
C253 C 0.86289 0.39055 0.7642 0.0
C254 C 0.86392 0.4027 0.73301 0.0
C255 C 0.8581 0.41851 0.73755 0.0
C256 C 0.85148 0.42225 0.77254 0.0
C257 C 0.87114 0.39932 0.69542 0.0
C258 C 0.88817 0.41608 0.67704 0.0
C259 C 0.86079 0.38021 0.67688 0.0
C260 C 0.84228 0.36203 0.69416 0.0
C261 C 0.82259 0.36249 0.70514 0.0
C262 C 0.80525 0.34528 0.72152 0.0
C263 C 0.80734 0.32747 0.72676 0.0
C264 C 0.82676 0.32682 0.71551 0.0
C265 C 0.84416 0.34399 0.69915 0.0
H266 H 0.7939 0.31416 0.73944 0.0
H267 H 0.96318 0.48116 0.58336 0.0
H268 H 0.49265 0.87391 0.86458 0.0
H269 H 0.48095 0.87782 0.92799 0.0
H270 H 0.41361 0.8559 0.88876 0.0
H271 H 0.42515 0.8519 0.82534 0.0
H272 H 0.42777 0.88997 0.93667 0.0
H273 H 0.42652 0.82395 0.93276 0.0
H274 H 0.44262 0.80048 0.92193 0.0
H275 H 0.49288 0.83234 0.00479 0.0
H276 H 0.47725 0.8562 0.01572 0.0
H277 H 0.36894 0.8628 0.11061 0.0
H278 H 0.38326 0.86532 0.04655 0.0
H279 H 0.44638 0.87436 0.0913 0.0
H280 H 0.43151 0.87039 0.15505 0.0
H281 H 0.43573 0.84846 0.03972 0.0
H282 H 0.43538 0.91332 0.04781 0.0
H283 H 0.41888 0.93647 0.05889 0.0
H284 H 0.37273 0.90822 0.9687 0.0
H285 H 0.38846 0.88449 0.9577 0.0
C286 C 0.47537 0.87 0.86944 0.0
C287 C 0.45976 0.86245 0.84012 0.0
C288 C 0.46873 0.87225 0.90563 0.0
C289 C 0.4464 0.86703 0.913 0.0
C290 C 0.43092 0.86003 0.88355 0.0
C291 C 0.43751 0.85765 0.84743 0.0
C292 C 0.43897 0.86799 0.95176 0.0
C293 C 0.42934 0.88084 0.9593 0.0
C294 C 0.44151 0.85637 0.98122 0.0
C295 C 0.45087 0.842 0.97474 0.0
C296 C 0.44112 0.82606 0.94843 0.0
C297 C 0.45014 0.81267 0.94232 0.0
C298 C 0.4688 0.81495 0.96258 0.0
C299 C 0.47845 0.83061 0.98907 0.0
C300 C 0.46951 0.84407 -0.00476 0.0
C301 C 0.38592 0.86551 0.10661 0.0
C302 C 0.39912 0.8663 0.13757 0.0
C303 C 0.39417 0.86711 0.07003 0.0
C304 C 0.41605 0.87031 0.06394 0.0
C305 C 0.42944 0.87181 0.09515 0.0
C306 C 0.42096 0.86958 0.13158 0.0
C307 C 0.42457 0.87065 0.02523 0.0
C308 C 0.43435 0.8579 0.0175 0.0
C309 C 0.42228 0.88251 -0.00425 0.0
C310 C 0.41301 0.89699 0.00212 0.0
C311 C 0.42162 0.91193 0.03049 0.0
C312 C 0.41241 0.92518 0.03675 0.0
C313 C 0.39481 0.92384 0.0145 0.0
C314 C 0.38636 0.90924 0.98593 0.0
C315 C 0.3954 0.89588 0.97969 0.0
H316 H 0.38773 0.93412 0.01939 0.0
H317 H 0.47575 0.80456 0.95782 0.0
H318 H 0.5603 0.44345 0.17691 0.0
H319 H 0.53961 0.43878 0.23576 0.0
H320 H 0.54019 0.38103 0.25322 0.0
H321 H 0.55913 0.385 0.19292 0.0
H322 H 0.50385 0.37711 0.27796 0.0
H323 H 0.58054 0.43066 0.29335 0.0
H324 H 0.61265 0.4639 0.27876 0.0
H325 H 0.57354 0.49456 0.3035 0.0
H326 H 0.54116 0.46145 0.31791 0.0
H327 H 0.54321 0.3975 0.48009 0.0
H328 H 0.54736 0.40735 0.41424 0.0
H329 H 0.4763 0.3841 0.40459 0.0
H330 H 0.47197 0.37346 0.47084 0.0
H331 H 0.53945 0.43197 0.3729 0.0
H332 H 0.46152 0.36487 0.3145 0.0
H333 H 0.43414 0.32966 0.33132 0.0
H334 H 0.48354 0.32292 0.3969 0.0
H335 H 0.51123 0.35798 0.38011 0.0
C336 C 0.55584 0.42976 0.19345 0.0
C337 C 0.56154 0.41471 0.18119 0.0
C338 C 0.54406 0.42709 0.22697 0.0
C339 C 0.53877 0.40978 0.24949 0.0
C340 C 0.54401 0.39451 0.23644 0.0
C341 C 0.55502 0.39683 0.20225 0.0
C342 C 0.52924 0.40797 0.28776 0.0
C343 C 0.5115 0.38921 0.29861 0.0
C344 C 0.53898 0.42376 0.31478 0.0
C345 C 0.55841 0.44362 0.30621 0.0
C346 C 0.57879 0.4445 0.29546 0.0
C347 C 0.59702 0.4633 0.28726 0.0
C348 C 0.59511 0.48132 0.29007 0.0
C349 C 0.57498 0.48058 0.30123 0.0
C350 C 0.55669 0.46182 0.30943 0.0
C351 C 0.52844 0.39458 0.4641 0.0
C352 C 0.50725 0.3845 0.4804 0.0
C353 C 0.53084 0.40036 0.42647 0.0
C354 C 0.51213 0.39635 0.40438 0.0
C355 C 0.49094 0.3871 0.42101 0.0
C356 C 0.48849 0.38106 0.45878 0.0
C357 C 0.51524 0.40067 0.36352 0.0
C358 C 0.53143 0.42006 0.35202 0.0
C359 C 0.50476 0.38518 0.33628 0.0
C360 C 0.48829 0.36411 0.34653 0.0
C361 C 0.4665 0.35585 0.33252 0.0
C362 C 0.45094 0.33593 0.34202 0.0
C363 C 0.45707 0.3241 0.36531 0.0
C364 C 0.47879 0.33213 0.37901 0.0
C365 C 0.49441 0.35202 0.36954 0.0
H366 H 0.445 0.30868 0.37264 0.0
H367 H 0.60924 0.49586 0.2837 0.0
H368 H 0.12483 0.65477 0.51726 0.0
H369 H 0.12342 0.64832 0.58523 0.0
H370 H 0.14101 0.59991 0.56565 0.0
H371 H 0.1432 0.60671 0.49784 0.0
H372 H 0.10222 0.59394 0.62324 0.0
H373 H 0.18092 0.63713 0.58617 0.0
H374 H 0.20988 0.66821 0.55621 0.0
H375 H 0.19293 0.70556 0.62858 0.0
H376 H 0.16361 0.67464 0.65854 0.0
H377 H 0.14825 0.56885 0.77711 0.0
H378 H 0.13741 0.57768 0.71727 0.0
H379 H 0.15122 0.6369 0.7612 0.0
H380 H 0.16259 0.62824 0.82124 0.0
H381 H 0.16899 0.64129 0.69503 0.0
H382 H 0.09786 0.60085 0.74328 0.0
H383 H 0.06624 0.57203 0.77368 0.0
H384 H 0.06428 0.53223 0.68406 0.0
H385 H 0.0962 0.56068 0.65344 0.0
C386 C 0.12817 0.64261 0.52746 0.0
C387 C 0.13429 0.63131 0.50245 0.0
C388 C 0.1273 0.63895 0.56617 0.0
C389 C 0.13205 0.62363 0.58018 0.0
C390 C 0.13718 0.61172 0.55515 0.0
C391 C 0.13857 0.6157 0.51656 0.0
C392 C 0.13362 0.6211 0.62105 0.0
C393 C 0.11679 0.60414 0.63913 0.0
C394 C 0.15212 0.6351 0.64182 0.0
C395 C 0.16993 0.65362 0.62422 0.0
C396 C 0.18324 0.65197 0.59542 0.0
C397 C 0.19974 0.66955 0.5785 0.0
C398 C 0.20319 0.68885 0.59039 0.0
C399 C 0.19021 0.6906 0.61934 0.0
C400 C 0.17366 0.67306 0.6363 0.0
C401 C 0.14887 0.58372 0.77416 0.0
C402 C 0.15638 0.5979 0.80377 0.0
C403 C 0.14246 0.58868 0.74001 0.0
C404 C 0.14318 0.60785 0.73487 0.0
C405 C 0.15045 0.62199 0.76459 0.0
C406 C 0.15696 0.61704 0.79882 0.0
C407 C 0.13797 0.61346 0.69744 0.0
C408 C 0.15412 0.63112 0.67978 0.0
C409 C 0.1185 0.60033 0.67743 0.0
C410 C 0.09956 0.58295 0.6961 0.0
C411 C 0.09086 0.58591 0.7302 0.0
C412 C 0.07284 0.56965 0.74744 0.0
C413 C 0.06321 0.55035 0.73072 0.0
C414 C 0.07171 0.54722 0.6969 0.0
C415 C 0.08978 0.56342 0.67957 0.0
H416 H 0.04915 0.53781 0.74397 0.0
H417 H 0.21597 0.70244 0.57725 0.0
H418 H 0.58849 0.16375 0.15582 0.0
H419 H 0.57402 0.16026 0.09183 0.0
H420 H 0.61438 0.13198 0.05722 0.0
H421 H 0.62902 0.13548 0.12129 0.0
H422 H 0.61713 0.16262 0.009 0.0
H423 H 0.56015 0.10324 0.06978 0.0
H424 H 0.5331 0.08566 0.12042 0.0
H425 H 0.49789 0.11958 0.09281 0.0
H426 H 0.52497 0.13766 0.04246 0.0
H427 H 0.57366 0.13934 0.82723 0.0
H428 H 0.58405 0.13507 0.89108 0.0
H429 H 0.53501 0.15131 0.93566 0.0
H430 H 0.52325 0.15373 0.87144 0.0
H431 H 0.53662 0.12501 0.97956 0.0
H432 H 0.59383 0.18672 0.92501 0.0
H433 H 0.6216 0.20717 0.87713 0.0
H434 H 0.65671 0.17216 0.89555 0.0
H435 H 0.629 0.15134 0.94322 0.0
C436 C 0.59426 0.15676 0.13462 0.0
C437 C 0.60988 0.14988 0.1435 0.0
C438 C 0.5859 0.15469 0.09815 0.0
C439 C 0.59296 0.14567 0.06998 0.0
C440 C 0.60868 0.13892 0.07868 0.0
C441 C 0.61701 0.14092 0.11523 0.0
C442 C 0.58439 0.14384 0.03117 0.0
C443 C 0.59957 0.15412 0.00236 0.0
C444 C 0.56141 0.13325 0.02297 0.0
C445 C 0.54469 0.12191 0.05247 0.0
C446 C 0.5467 0.10703 0.07461 0.0
C447 C 0.53136 0.09697 0.10328 0.0
C448 C 0.51381 0.10152 0.10986 0.0
C449 C 0.5115 0.11608 0.08768 0.0
C450 C 0.52683 0.12622 0.05905 0.0
C451 C 0.56494 0.14175 0.85069 0.0
C452 C 0.54785 0.14708 0.84462 0.0
C453 C 0.57099 0.13946 0.88721 0.0
C454 C 0.56088 0.14356 0.91835 0.0
C455 C 0.5432 0.14819 0.9122 0.0
C456 C 0.53655 0.14968 0.87557 0.0
C457 C 0.56938 0.14393 0.95708 0.0
C458 C 0.5542 0.13341 0.98599 0.0
C459 C 0.59238 0.15464 0.96563 0.0
C460 C 0.60925 0.16737 0.93743 0.0
C461 C 0.60743 0.18334 0.91873 0.0
C462 C 0.62315 0.19499 0.89163 0.0
C463 C 0.64088 0.19094 0.88325 0.0
C464 C 0.64296 0.17527 0.90204 0.0
C465 C 0.62727 0.16355 0.92913 0.0
H466 H 0.65301 0.19996 0.86223 0.0
H467 H 0.50198 0.09375 0.1321 0.0
H468 H 0.36163 0.5935 0.08915 0.0
H469 H 0.32537 0.58698 0.06455 0.0
H470 H 0.32919 0.54588 0.98181 0.0
H471 H 0.36531 0.55196 0.00704 0.0
H472 H 0.31614 0.59626 -0.0001 0.0
H473 H 0.27701 0.51083 0.95535 0.0
H474 H 0.27659 0.47882 0.97668 0.0
H475 H 0.29173 0.50228 0.08931 0.0
H476 H 0.29194 0.5343 0.06877 0.0
H477 H 0.23265 0.58151 0.87484 0.0
H478 H 0.26351 0.57708 0.9007 0.0
H479 H 0.22193 0.5421 -0.00708 0.0
H480 H 0.19068 0.54595 0.9664 0.0
H481 H 0.25205 0.52862 0.97399 0.0
H482 H 0.25265 0.59203 0.00376 0.0
H483 H 0.25078 0.62394 0.9898 0.0
H484 H 0.30958 0.64466 0.92171 0.0
H485 H 0.31159 0.61269 0.9348 0.0
C486 C 0.35462 0.58287 0.06601 0.0
C487 C 0.36627 0.57323 0.05001 0.0
C488 C 0.33392 0.57919 0.05193 0.0
C489 C 0.32449 0.5659 0.02138 0.0
C490 C 0.33593 0.55594 0.00578 0.0
C491 C 0.3566 0.55946 0.02015 0.0
C492 C 0.30346 0.56363 0.00446 0.0
C493 C 0.30216 0.58144 -0.00566 0.0
C494 C 0.28502 0.54433 -0.00229 0.0
C495 C 0.28472 0.52504 0.0104 0.0
C496 C 0.28017 0.50913 0.98468 0.0
C497 C 0.27998 0.49098 -0.00336 0.0
C498 C 0.2842 0.48855 0.0343 0.0
C499 C 0.28855 0.50422 0.06011 0.0
C500 C 0.28874 0.52238 0.04832 0.0
C501 C 0.22992 0.57241 0.90009 0.0
C502 C 0.20941 0.56427 0.91891 0.0
C503 C 0.24756 0.56992 0.91485 0.0
C504 C 0.24513 0.55968 0.94918 0.0
C505 C 0.22415 0.55012 0.96646 0.0
C506 C 0.20633 0.55234 0.95131 0.0
C507 C 0.26506 0.56122 0.96902 0.0
C508 C 0.26612 0.54336 0.97962 0.0
C509 C 0.28308 0.5805 0.97746 0.0
C510 C 0.28216 0.5999 0.97001 0.0
C511 C 0.26511 0.60334 0.98564 0.0
C512 C 0.26402 0.62144 0.97789 0.0
C513 C 0.28003 0.63631 0.95482 0.0
C514 C 0.29718 0.63312 0.93954 0.0
C515 C 0.29831 0.61502 0.94714 0.0
H516 H 0.27916 0.65031 0.94884 0.0
H517 H 0.28406 0.47449 0.04349 0.0
H518 H 0.80528 0.3138 0.40736 0.0
H519 H 0.77892 0.27958 0.38923 0.0
H520 H 0.83061 0.27241 0.3304 0.0
H521 H 0.85739 0.30778 0.34727 0.0
H522 H 0.79461 0.25651 0.29 0.0
H523 H 0.80746 0.24673 0.41714 0.0
H524 H 0.81275 0.25368 0.48523 0.0
H525 H 0.74608 0.24568 0.49487 0.0
H526 H 0.74047 0.23902 0.4268 0.0
H527 H 0.69749 0.15819 0.2602 0.0
H528 H 0.73494 0.1812 0.28466 0.0
H529 H 0.70883 0.21832 0.33745 0.0
H530 H 0.67196 0.19583 0.31265 0.0
H531 H 0.73889 0.21168 0.38318 0.0
H532 H 0.73202 0.23076 0.25245 0.0
H533 H 0.72708 0.22346 0.18437 0.0
H534 H 0.78375 0.21208 0.18356 0.0
H535 H 0.78884 0.21908 0.25177 0.0
C536 C 0.81129 0.30499 0.3909 0.0
C537 C 0.83359 0.31349 0.37921 0.0
C538 C 0.7961 0.28522 0.38075 0.0
C539 C 0.80279 0.27298 0.35952 0.0
C540 C 0.82507 0.28141 0.34731 0.0
C541 C 0.84037 0.30158 0.35699 0.0
C542 C 0.78584 0.25193 0.34885 0.0
C543 C 0.78284 0.24645 0.31061 0.0
C544 C 0.77038 0.23855 0.37556 0.0
C545 C 0.77357 0.24238 0.41673 0.0
C546 C 0.79396 0.24654 0.43373 0.0
C547 C 0.79701 0.25043 0.47235 0.0
C548 C 0.77977 0.25012 0.49436 0.0
C549 C 0.75942 0.24589 0.47781 0.0
C550 C 0.75628 0.24201 0.4392 0.0
C551 C 0.69982 0.17104 0.27772 0.0
C552 C 0.682 0.17531 0.28476 0.0
C553 C 0.72115 0.1842 0.29145 0.0
C554 C 0.72468 0.20153 0.31274 0.0
C555 C 0.70652 0.20505 0.3212 0.0
C556 C 0.68548 0.19222 0.30703 0.0
C557 C 0.74722 0.21704 0.3245 0.0
C558 C 0.75121 0.22143 0.36293 0.0
C559 C 0.76366 0.22922 0.29812 0.0
C560 C 0.76063 0.22517 0.2572 0.0
C561 C 0.74331 0.22654 0.23778 0.0
C562 C 0.74051 0.22249 0.19918 0.0
C563 C 0.75505 0.21724 0.17968 0.0
C564 C 0.77247 0.2161 0.19871 0.0
C565 C 0.77532 0.22011 0.23732 0.0
H566 H 0.75285 0.21411 0.1498 0.0
H567 H 0.78218 0.25315 0.52425 0.0
H568 H 0.54015 0.85398 0.70917 0.0
H569 H 0.55558 0.83067 0.69111 0.0
H570 H 0.48907 0.78063 0.68657 0.0
H571 H 0.47401 0.80329 0.70539 0.0
H572 H 0.51394 0.77023 0.72727 0.0
H573 H 0.52112 0.80473 0.60669 0.0
H574 H 0.53642 0.83475 0.56466 0.0
H575 H 0.60267 0.84432 0.58804 0.0
H576 H 0.58773 0.81446 0.63055 0.0
H577 H 0.51686 0.70627 0.56323 0.0
H578 H 0.52444 0.73952 0.58799 0.0
H579 H 0.5478 0.72578 0.6918 0.0
H580 H 0.53981 0.69197 0.66691 0.0
H581 H 0.55651 0.77315 0.61208 0.0
H582 H 0.53132 0.74561 0.7643 0.0
H583 H 0.50601 0.71578 0.80203 0.0
H584 H 0.46408 0.69044 0.70551 0.0
H585 H 0.48924 0.71996 0.66733 0.0
C586 C 0.52897 0.83802 0.70398 0.0
C587 C 0.50593 0.83036 0.70928 0.0
C588 C 0.53776 0.82473 0.69369 0.0
C589 C 0.5235 0.80378 0.68799 0.0
C590 C 0.50049 0.79658 0.69152 0.0
C591 C 0.49187 0.80961 0.70225 0.0
C592 C 0.53173 0.78862 0.67978 0.0
C593 C 0.52368 0.77108 0.70245 0.0
C594 C 0.54444 0.78964 0.64753 0.0
C595 C 0.55335 0.80758 0.62217 0.0
C596 C 0.53896 0.81336 0.60312 0.0
C597 C 0.54756 0.83031 0.57916 0.0
C598 C 0.57051 0.84149 0.5738 0.0
C599 C 0.5849 0.83569 0.5923 0.0
C600 C 0.57638 0.81876 0.61632 0.0
C601 C 0.52398 0.71039 0.59113 0.0
C602 C 0.52748 0.69635 0.61332 0.0
C603 C 0.52845 0.72955 0.60522 0.0
C604 C 0.53648 0.73522 0.64198 0.0
C605 C 0.54135 0.72172 0.66349 0.0
C606 C 0.5369 0.70243 0.64923 0.0
C607 C 0.53735 0.75422 0.6583 0.0
C608 C 0.54746 0.77258 0.63761 0.0
C609 C 0.52568 0.75375 0.69162 0.0
C610 C 0.51234 0.73475 0.7129 0.0
C611 C 0.51692 0.73345 0.75106 0.0
C612 C 0.50255 0.71665 0.77255 0.0
C613 C 0.48347 0.7012 0.75621 0.0
C614 C 0.47896 0.70229 0.71813 0.0
C615 C 0.49333 0.71899 0.69648 0.0
H616 H 0.47211 0.68848 0.77319 0.0
H617 H 0.57713 0.8546 0.55523 0.0
H618 H 0.64678 0.46249 0.01931 0.0
H619 H 0.68233 0.46767 -0.00743 0.0
H620 H 0.68338 0.42265 0.069 0.0
H621 H 0.6481 0.41755 0.09595 0.0
H622 H 0.72387 0.45199 0.06075 0.0
H623 H 0.66492 0.40926 0.98351 0.0
H624 H 0.63178 0.39567 0.94295 0.0
H625 H 0.66601 0.44396 0.86338 0.0
H626 H 0.69923 0.45824 0.90407 0.0
H627 H 0.76959 0.41001 0.90369 0.0
H628 H 0.73959 0.41519 0.9304 0.0
H629 H 0.78729 0.47314 0.97613 0.0
H630 H 0.8177 0.46771 0.95018 0.0
H631 H 0.72387 0.44029 0.92327 0.0
H632 H 0.7676 0.47855 0.06448 0.0
H633 H 0.79737 0.4792 0.10532 0.0
H634 H 0.78725 0.42157 0.06014 0.0
H635 H 0.75693 0.42017 0.02034 0.0
C636 C 0.65483 0.45401 0.03087 0.0
C637 C 0.64461 0.43952 0.05952 0.0
C638 C 0.67507 0.45691 0.01549 0.0
C639 C 0.68538 0.4454 0.02857 0.0
C640 C 0.67576 0.43174 0.05854 0.0
C641 C 0.65553 0.42877 0.07378 0.0
C642 C 0.70519 0.4463 0.00923 0.0
C643 C 0.72402 0.44973 0.03061 0.0
C644 C 0.70498 0.4424 0.9702 0.0
C645 C 0.68446 0.43503 0.94719 0.0
C646 C 0.66524 0.41729 0.95782 0.0
C647 C 0.64646 0.40941 0.93473 0.0
C648 C 0.6468 0.41896 0.90065 0.0
C649 C 0.66577 0.43663 0.88988 0.0
C650 C 0.68456 0.44467 0.91301 0.0
C651 C 0.77377 0.42399 0.91908 0.0
C652 C 0.79602 0.43839 0.92511 0.0
C653 C 0.75655 0.42697 0.9342 0.0
C654 C 0.76117 0.44447 0.95555 0.0
C655 C 0.78336 0.4594 0.96013 0.0
C656 C 0.8007 0.45633 0.94518 0.0
C657 C 0.74266 0.44622 0.97461 0.0
C658 C 0.72403 0.44321 0.95322 0.0
C659 C 0.74245 0.44903 0.01402 0.0
C660 C 0.76028 0.44949 0.03885 0.0
C661 C 0.77166 0.46598 0.06345 0.0
C662 C 0.78859 0.46643 0.08653 0.0
C663 C 0.79427 0.45047 0.08525 0.0
C664 C 0.78292 0.43396 0.0611 0.0
C665 C 0.76581 0.4333 0.03836 0.0
H666 H 0.80741 0.45087 0.10304 0.0
H667 H 0.63245 0.41251 0.8824 0.0
H668 H 0.19015 0.68347 0.33509 0.0
H669 H 0.21687 0.71763 0.31502 0.0
H670 H 0.17263 0.7412 0.35249 0.0
H671 H 0.14534 0.70643 0.37241 0.0
H672 H 0.2008 0.75969 0.27955 0.0
H673 H 0.20699 0.74917 0.41073 0.0
H674 H 0.20709 0.72943 0.46668 0.0
H675 H 0.2635 0.72448 0.42307 0.0
H676 H 0.26348 0.74387 0.36652 0.0
H677 H 0.31382 0.85286 0.28767 0.0
H678 H 0.27585 0.82943 0.3096 0.0
H679 H 0.28404 0.77802 0.27047 0.0
H680 H 0.32118 0.8009 0.24804 0.0
H681 H 0.26958 0.78083 0.3549 0.0
H682 H 0.25564 0.78354 0.21824 0.0
H683 H 0.25523 0.80262 0.16147 0.0
H684 H 0.21346 0.82348 0.21809 0.0
H685 H 0.21392 0.80472 0.2754 0.0
C686 C 0.18571 0.69576 0.3377 0.0
C687 C 0.16564 0.69235 0.35482 0.0
C688 C 0.20104 0.7153 0.32644 0.0
C689 C 0.19683 0.73196 0.33263 0.0
C690 C 0.17612 0.72849 0.34738 0.0
C691 C 0.16054 0.70869 0.35857 0.0
C692 C 0.21546 0.75284 0.32774 0.0
C693 C 0.21562 0.76467 0.29669 0.0
C694 C 0.23483 0.75935 0.35008 0.0
C695 C 0.23516 0.74791 0.38429 0.0
C696 C 0.21932 0.74375 0.41295 0.0
C697 C 0.21937 0.73264 0.44478 0.0
C698 C 0.23528 0.72569 0.44841 0.0
C699 C 0.25119 0.72988 0.42023 0.0
C700 C 0.25119 0.74096 0.38829 0.0
C701 C 0.30738 0.83657 0.28354 0.0
C702 C 0.32051 0.82876 0.26603 0.0
C703 C 0.28574 0.82325 0.29598 0.0
C704 C 0.27721 0.80204 0.29145 0.0
C705 C 0.29031 0.79434 0.27404 0.0
C706 C 0.31157 0.80751 0.26119 0.0
C707 C 0.25511 0.78729 0.30612 0.0
C708 C 0.25444 0.77641 0.33883 0.0
C709 C 0.23533 0.78182 0.28554 0.0
C710 C 0.2351 0.79303 0.25119 0.0
C711 C 0.2466 0.7924 0.2187 0.0
C712 C 0.2463 0.8031 0.1864 0.0
C713 C 0.2344 0.81433 0.18622 0.0
C714 C 0.22272 0.81483 0.21831 0.0
C715 C 0.223 0.80417 0.25069 0.0
H716 H 0.23418 0.82259 0.16118 0.0
H717 H 0.23529 0.71709 0.47309 0.0
H718 H 0.47346 0.16357 0.7253 0.0
H719 H 0.46082 0.18845 0.70487 0.0
H720 H 0.52745 0.22903 0.66735 0.0
H721 H 0.54008 0.20496 0.68972 0.0
H722 H 0.5148 0.24973 0.7055 0.0
H723 H 0.48082 0.20082 0.60653 0.0
H724 H 0.45655 0.1671 0.57899 0.0
H725 H 0.39954 0.16775 0.63046 0.0
H726 H 0.42354 0.20139 0.6587 0.0
H727 H 0.4813 0.3033 0.55775 0.0
H728 H 0.47798 0.2709 0.58134 0.0
H729 H 0.47342 0.28924 0.6948 0.0
H730 H 0.47633 0.32178 0.67102 0.0
H731 H 0.4506 0.23781 0.62412 0.0
H732 H 0.51306 0.27981 0.7461 0.0
H733 H 0.54548 0.31292 0.76001 0.0
H734 H 0.55473 0.32685 0.64203 0.0
H735 H 0.52281 0.29367 0.62735 0.0
C736 C 0.4852 0.17774 0.71225 0.0
C737 C 0.50773 0.18252 0.70925 0.0
C738 C 0.47801 0.19193 0.7005 0.0
C739 C 0.49319 0.21079 0.6847 0.0
C740 C 0.51543 0.21484 0.67998 0.0
C741 C 0.52264 0.20103 0.69257 0.0
C742 C 0.48679 0.22709 0.67508 0.0
C743 C 0.50057 0.24698 0.68803 0.0
C744 C 0.46843 0.22373 0.65187 0.0
C745 C 0.454 0.20348 0.63512 0.0
C746 C 0.46314 0.19369 0.61225 0.0
C747 C 0.44943 0.17461 0.59646 0.0
C748 C 0.42653 0.16525 0.60308 0.0
C749 C 0.41729 0.17499 0.62543 0.0
C750 C 0.43093 0.19406 0.64133 0.0
C751 C 0.47881 0.30013 0.58764 0.0
C752 C 0.47909 0.31502 0.61264 0.0
C753 C 0.47686 0.28158 0.60108 0.0
C754 C 0.47567 0.27774 0.63988 0.0
C755 C 0.47438 0.29199 0.66477 0.0
C756 C 0.47591 0.31047 0.65121 0.0
C757 C 0.47889 0.26031 0.65413 0.0
C758 C 0.46447 0.24033 0.64232 0.0
C759 C 0.49737 0.26365 0.67686 0.0
C760 C 0.51522 0.28441 0.68572 0.0
C761 C 0.52187 0.29004 0.72317 0.0
C762 C 0.54025 0.30877 0.73116 0.0
C763 C 0.55212 0.32196 0.70191 0.0
C764 C 0.54546 0.31663 0.66465 0.0
C765 C 0.52719 0.29789 0.65649 0.0
H766 H 0.56665 0.33623 0.70805 0.0
H767 H 0.41594 0.15049 0.59081 0.0
H768 H 0.44022 0.53936 0.06646 0.0
H769 H 0.45291 0.51331 0.06154 0.0
H770 H 0.52052 0.55928 0.07969 0.0
H771 H 0.5081 0.58541 0.0846 0.0
H772 H 0.51638 0.53158 0.02247 0.0
H773 H 0.49282 0.53114 0.1511 0.0
H774 H 0.46617 0.52886 0.20044 0.0
H775 H 0.42021 0.46886 0.16213 0.0
H776 H 0.44649 0.47092 0.11217 0.0
H777 H 0.56804 0.47146 0.079 0.0
H778 H 0.55397 0.49643 0.07317 0.0
H779 H 0.48667 0.44762 0.07215 0.0
H780 H 0.50057 0.42264 0.07918 0.0
H781 H 0.48927 0.47607 0.11763 0.0
H782 H 0.51315 0.47515 0.99119 0.0
H783 H 0.5393 0.47717 0.94112 0.0
H784 H 0.5837 0.53884 0.97319 0.0
H785 H 0.55797 0.5371 0.02383 0.0
C786 C 0.45781 0.54396 0.06912 0.0
C787 C 0.47312 0.56445 0.07622 0.0
C788 C 0.46501 0.52906 0.06635 0.0
C789 C 0.48762 0.53441 0.07051 0.0
C790 C 0.50301 0.55489 0.07637 0.0
C791 C 0.49584 0.56977 0.07941 0.0
C792 C 0.49517 0.51855 0.07058 0.0
C793 C 0.51062 0.5195 0.04338 0.0
C794 C 0.48722 0.5026 0.09741 0.0
C795 C 0.47152 0.50127 0.12766 0.0
C796 C 0.47696 0.51753 0.15302 0.0
C797 C 0.46194 0.51627 0.18112 0.0
C798 C 0.44148 0.49875 0.18435 0.0
C799 C 0.43605 0.48243 0.15955 0.0
C800 C 0.451 0.48363 0.13135 0.0
C801 C 0.55026 0.46604 0.07723 0.0
C802 C 0.53542 0.44508 0.07958 0.0
C803 C 0.54223 0.48033 0.07373 0.0
C804 C 0.51926 0.47389 0.07176 0.0
C805 C 0.50446 0.45295 0.07365 0.0
C806 C 0.51244 0.43869 0.07764 0.0
C807 C 0.51058 0.48898 0.06942 0.0
C808 C 0.49493 0.48797 0.09636 0.0
C809 C 0.51826 0.50477 0.04215 0.0
C810 C 0.5337 0.50593 0.01152 0.0
C811 C 0.52856 0.4891 0.98774 0.0
C812 C 0.5433 0.4902 0.95923 0.0
C813 C 0.56317 0.50811 0.95403 0.0
C814 C 0.56831 0.52497 0.97727 0.0
C815 C 0.55365 0.52395 0.00586 0.0
H816 H 0.57456 0.50892 0.93195 0.0
H817 H 0.42987 0.4978 0.20612 0.0
H818 H 0.94562 0.41792 0.41568 0.0
H819 H 0.98086 0.44916 0.40769 0.0
H820 H 0.95091 0.47014 0.32254 0.0
H821 H 0.91573 0.43895 0.33052 0.0
H822 H 1.00052 0.48419 0.31443 0.0
H823 H 0.94407 0.48318 0.40366 0.0
H824 H 0.91737 0.46534 0.45475 0.0
H825 H 0.9703 0.46627 0.52245 0.0
H826 H 0.99716 0.48416 0.47201 0.0
H827 H 0.07528 0.59006 0.34952 0.0
H828 H 0.04036 0.55891 0.33687 0.0
H829 H 0.04831 0.53256 0.44065 0.0
H830 H 0.08217 0.56346 0.45387 0.0
H831 H 0.0075 0.52201 0.43333 0.0
H832 H 0.06421 0.52261 0.35014 0.0
H833 H 0.09238 0.53632 0.29978 0.0
H834 H 0.04252 0.53305 0.22172 0.0
H835 H 0.0141 0.51956 0.2718 0.0
C836 C 0.94697 0.42865 0.39376 0.0
C837 C 0.92812 0.426 0.37342 0.0
C838 C 0.96704 0.44657 0.38938 0.0
C839 C 0.96841 0.46207 0.36477 0.0
C840 C 0.95027 0.45837 0.34148 0.0
C841 C 0.9302 0.44052 0.346 0.0
C842 C 0.98655 0.48327 0.36919 0.0
C843 C 1.002 0.49262 0.34017 0.0
C844 C 0.98849 0.4942 0.40279 0.0
C845 C 0.97258 0.48501 0.4342 0.0
C846 C 0.94997 0.47971 0.42964 0.0
C847 C 0.9348 0.46958 0.45849 0.0
C848 C 0.94209 0.46472 0.49198 0.0
C849 C 0.9646 0.47015 0.49677 0.0
C850 C 0.97983 0.48037 0.46813 0.0
C851 C 0.0692 0.57778 0.36997 0.0
C852 C 0.08163 0.57918 0.40251 0.0
C853 C 0.04941 0.55987 0.36252 0.0
C854 C 0.04186 0.5431 0.38741 0.0
C855 C 0.05368 0.54511 0.42083 0.0
C856 C 0.07319 0.56286 0.42831 0.0
C857 C 0.02222 0.52308 0.37895 0.0
C858 C 0.00614 0.51387 0.40724 0.0
C859 C 0.02007 0.51224 0.34489 0.0
C860 C 0.03711 0.52034 0.3148 0.0
C861 C 0.0593 0.52497 0.3223 0.0
C862 C 0.0753 0.53268 0.29381 0.0
C863 C 0.06926 0.53562 0.2576 0.0
C864 C 0.04719 0.53081 0.2498 0.0
C865 C 0.03113 0.52314 0.27822 0.0
H866 H 0.08167 0.54158 0.23557 0.0
H867 H 0.9303 0.45669 0.51414 0.0
H868 H 0.49889 0.08442 0.74092 0.0
H869 H 0.48498 0.04725 0.73569 0.0
H870 H 0.55238 0.05603 0.73043 0.0
H871 H 0.56626 0.09272 0.73521 0.0
H872 H 0.5266 0.0272 0.6814 0.0
H873 H 0.52383 0.04328 0.81236 0.0
H874 H 0.51245 0.05739 0.86624 0.0
H875 H 0.44382 0.01731 0.84229 0.0
H876 H 0.45479 1.00315 0.78791 0.0
H877 H 0.51005 0.92691 0.73408 0.0
H878 H 0.52285 0.96393 0.73001 0.0
H879 H 0.45517 0.95385 0.74099 0.0
H880 H 0.44242 0.91739 0.74574 0.0
H881 H 0.4806 0.98339 0.78572 0.0
H882 H 0.48347 0.96636 0.65566 0.0
H883 H 0.49508 0.95226 0.60206 0.0
H884 H 0.5635 0.99388 0.62429 0.0
H885 H 0.5523 0.00805 0.67835 0.0
C886 C 0.51068 0.07839 0.73819 0.0
C887 C 0.53367 0.09154 0.73896 0.0
C888 C 0.50274 0.05718 0.73537 0.0
C889 C 0.51768 0.04885 0.73308 0.0
C890 C 0.54054 0.06205 0.73221 0.0
C891 C 0.54843 0.08308 0.73524 0.0
C892 C 0.50989 0.02642 0.73344 0.0
C893 C 0.51663 0.01762 0.7043 0.0
C894 C 0.49673 0.01387 0.76311 0.0
C895 C 0.49012 0.02234 0.79582 0.0
C896 C 0.5063 0.0376 0.8184 0.0
C897 C 0.49993 0.04558 0.84906 0.0
C898 C 0.47742 0.0383 0.85761 0.0
C899 C 0.46124 0.02297 0.83558 0.0
C900 C 0.46753 0.01496 0.80485 0.0
C901 C 0.49793 0.93262 0.73547 0.0
C902 C 0.47523 0.91911 0.74047 0.0
C903 C 0.50524 0.95377 0.73302 0.0
C904 C 0.48994 0.9617 0.73508 0.0
C905 C 0.46732 0.94818 0.73958 0.0
C906 C 0.46007 0.92723 0.74226 0.0
C907 C 0.49716 0.98405 0.73352 0.0
C908 C 0.49041 0.99288 0.7626 0.0
C909 C 0.5103 0.99659 0.70379 0.0
C910 C 0.51706 0.98812 0.67127 0.0
C911 C 0.501 0.97239 0.64929 0.0
C912 C 0.5075 0.96441 0.6188 0.0
C913 C 0.53002 0.97213 0.60984 0.0
C914 C 0.54607 0.98789 0.6313 0.0
C915 C 0.53965 0.99592 0.66185 0.0
H916 H 0.53502 0.96593 0.58622 0.0
H917 H 0.47252 0.04449 0.88137 0.0
H918 H 0.53035 0.59446 0.58091 0.0
H919 H 0.53545 0.56375 0.59002 0.0
H920 H 0.46876 0.53156 0.63422 0.0
H921 H 0.46393 0.56201 0.62591 0.0
H922 H 0.49331 0.51836 0.66865 0.0
H923 H 0.48065 0.53059 0.53946 0.0
H924 H 0.48915 0.55045 0.48048 0.0
H925 H 0.55215 0.54998 0.47348 0.0
H926 H 0.54414 0.53037 0.53277 0.0
H927 H 0.48112 0.42439 0.54459 0.0
H928 H 0.47776 0.45573 0.55511 0.0
H929 H 0.51951 0.46878 0.65338 0.0
H930 H 0.52206 0.43712 0.64351 0.0
H931 H 0.50918 0.49235 0.54974 0.0
H932 H 0.51285 0.50156 0.71207 0.0
H933 H 0.4994 0.48012 0.76899 0.0
H934 H 0.44562 0.43418 0.70584 0.0
H935 H 0.45858 0.45544 0.64868 0.0
C936 C 0.51719 0.58103 0.59388 0.0
C937 C 0.49674 0.58051 0.60263 0.0
C938 C 0.51997 0.56343 0.59869 0.0
C939 C 0.50229 0.54515 0.61212 0.0
C940 C 0.48263 0.54534 0.62375 0.0
C941 C 0.47987 0.56278 0.61894 0.0
C942 C 0.50295 0.52523 0.61054 0.0
C943 C 0.49703 0.51276 0.64275 0.0
C944 C 0.50714 0.51759 0.57652 0.0
C945 C 0.51191 0.52924 0.54075 0.0
C946 C 0.49637 0.53485 0.52546 0.0
C947 C 0.5011 0.54604 0.49198 0.0
C948 C 0.52121 0.55152 0.4733 0.0
C949 C 0.53661 0.54576 0.48803 0.0
C950 C 0.53199 0.53462 0.52157 0.0
C951 C 0.48862 0.4335 0.56942 0.0
C952 C 0.50125 0.42811 0.59393 0.0
C953 C 0.48704 0.45158 0.5751 0.0
C954 C 0.49838 0.46474 0.60508 0.0
C955 C 0.51023 0.45881 0.6305 0.0
C956 C 0.51157 0.44063 0.62503 0.0
C957 C 0.49937 0.48534 0.60784 0.0
C958 C 0.50568 0.49797 0.57581 0.0
C959 C 0.49487 0.49286 0.64175 0.0
C960 C 0.48684 0.48001 0.67602 0.0
C961 C 0.49812 0.48691 0.71037 0.0
C962 C 0.49059 0.47478 0.74267 0.0
C963 C 0.47172 0.45577 0.741 0.0
C964 C 0.46029 0.44887 0.70706 0.0
C965 C 0.46774 0.46093 0.67469 0.0
H966 H 0.46592 0.44641 0.76603 0.0
H967 H 0.52483 0.56017 0.44738 0.0
H968 H 0.102 0.53842 0.91786 0.0
H969 H 0.0624 0.51421 0.91889 0.0
H970 H 0.04638 0.56254 0.88886 0.0
H971 H 0.08582 0.5869 0.88811 0.0
H972 H 0.01919 0.53788 0.94451 0.0
H973 H 0.04701 0.53016 0.82385 0.0
H974 H 0.07229 0.52389 0.78206 0.0
H975 H 0.04964 0.46409 0.82958 0.0
H976 H 0.02476 0.4702 0.87257 0.0
H977 H 0.90635 0.47426 0.89272 0.0
H978 H 0.9455 0.49991 0.89361 0.0
H979 H 0.96482 0.45233 0.91046 0.0
H980 H 0.92596 0.42668 0.90833 0.0
H981 H 0.99043 0.4775 0.86028 0.0
H982 H 0.96512 0.48491 0.98303 0.0
H983 H 0.94096 0.49053 0.02846 0.0
H984 H 0.95911 0.54945 0.97993 0.0
H985 H 0.98318 0.54407 0.93389 0.0
C986 C 0.09008 0.54395 0.91166 0.0
C987 C 0.09715 0.56461 0.90275 0.0
C988 C 0.06746 0.53007 0.91217 0.0
C989 C 0.05151 0.53657 0.90355 0.0
C990 C 0.05844 0.55723 0.89556 0.0
C991 C 0.08103 0.57111 0.89505 0.0
C992 C 0.02759 0.52176 0.90205 0.0
C993 C 0.01282 0.52479 0.92579 0.0
C994 C 0.01943 0.5045 0.87813 0.0
C995 C 0.03414 0.50072 0.85173 0.0
C996 C 0.04753 0.51573 0.82564 0.0
C997 C 0.06179 0.5122 0.8017 0.0
C998 C 0.06253 0.49361 0.80311 0.0
C999 C 0.04905 0.47849 0.82851 0.0
C1000 C 0.0349 0.48199 0.85273 0.0
C1001 C 0.91896 0.4693 0.89679 0.0
C1002 C 0.91305 0.44844 0.90045 0.0
C1003 C 0.94133 0.48397 0.89741 0.0
C1004 C 0.95813 0.47807 0.90248 0.0
C1005 C 0.95219 0.45726 0.90637 0.0
C1006 C 0.92993 0.44261 0.90523 0.0
C1007 C 0.98196 0.49341 0.90313 0.0
C1008 C 0.99674 0.49056 0.87905 0.0
C1009 C 0.99016 0.5107 0.92704 0.0
C1010 C 0.97577 0.514 0.95478 0.0
C1011 C 0.96383 0.499 0.98188 0.0
C1012 C 0.95018 0.50215 0.00776 0.0
C1013 C 0.94845 0.52031 0.00702 0.0
C1014 C 0.96043 0.53538 0.98044 0.0
C1015 C 0.9741 0.5323 0.95446 0.0
H1016 H 0.93787 0.52272 0.02708 0.0
H1017 H 0.07355 0.49091 0.78451 0.0
H1018 H 0.41485 0.92981 0.22266 0.0
H1019 H 0.43996 0.96683 0.22512 0.0
H1020 H 0.49103 0.95504 0.2745 0.0
H1021 H 0.46625 0.91839 0.2719 0.0
H1022 H 0.49046 0.98835 0.30627 0.0
H1023 H 0.49149 0.96248 0.1828 0.0
H1024 H 0.47612 0.94531 0.12242 0.0
H1025 H 0.45204 0.98867 0.09856 0.0
H1026 H 0.46698 0.00593 0.15913 0.0
H1027 H 0.58583 0.08346 0.26407 0.0
H1028 H 0.55975 0.04686 0.26819 0.0
H1029 H 0.51023 0.05727 0.20942 0.0
H1030 H 0.53604 0.09329 0.20418 0.0
H1031 H 0.50991 0.0244 0.18347 0.0
H1032 H 0.51004 0.05075 0.30817 0.0
H1033 H 0.52719 0.0681 0.36763 0.0
H1034 H 0.55039 0.02382 0.38868 0.0
H1035 H 0.5336 0.00636 0.3291 0.0
C1036 C 0.43124 0.93522 0.23483 0.0
C1037 C 0.43867 0.92128 0.24689 0.0
C1038 C 0.44563 0.95631 0.23597 0.0
C1039 C 0.4675 0.96368 0.24957 0.0
C1040 C 0.47431 0.94976 0.26383 0.0
C1041 C 0.46013 0.92881 0.26223 0.0
C1042 C 0.48394 0.98566 0.2467 0.0
C1043 C 0.49479 0.99623 0.2794 0.0
C1044 C 0.48959 0.99597 0.21169 0.0
C1045 C 0.48012 0.98534 0.1757 0.0
C1046 C 0.48268 0.9682 0.1649 0.0
C1047 C 0.4741 0.95849 0.1306 0.0
C1048 C 0.4631 0.96589 0.1067 0.0
C1049 C 0.46055 0.98295 0.11713 0.0
C1050 C 0.46906 0.9927 0.15144 0.0
C1051 C 0.56944 0.07791 0.25182 0.0
C1052 C 0.56308 0.09146 0.2341 0.0
C1053 C 0.55447 0.05699 0.25444 0.0
C1054 C 0.53282 0.04929 0.23967 0.0
C1055 C 0.52674 0.06275 0.22118 0.0
C1056 C 0.54161 0.08348 0.21838 0.0
C1057 C 0.51626 0.02731 0.24315 0.0
C1058 C 0.50546 0.01665 0.21045 0.0
C1059 C 0.51074 0.01693 0.27816 0.0
C1060 C 0.52076 0.02738 0.31401 0.0
C1061 C 0.51894 0.0448 0.32536 0.0
C1062 C 0.52857 0.05464 0.3591 0.0
C1063 C 0.53992 0.0471 0.38186 0.0
C1064 C 0.54162 0.02966 0.37099 0.0
C1065 C 0.53203 0.01978 0.33726 0.0
H1066 H 0.54737 0.05473 0.40797 0.0
H1067 H 0.4567 0.95848 0.08 0.0
H1068 H 0.46446 0.65814 0.6671 0.0
H1069 H 0.45805 0.65865 0.7347 0.0
H1070 H 0.42475 0.59288 0.73697 0.0
H1071 H 0.43006 0.59221 0.66887 0.0
H1072 H 0.40897 0.6067 0.79128 0.0
H1073 H 0.47971 0.61949 0.74694 0.0
H1074 H 0.51448 0.63572 0.7104 0.0
H1075 H 0.53303 0.69234 0.76836 0.0
H1076 H 0.49825 0.67648 0.80507 0.0
H1077 H 0.48195 0.62137 0.96998 0.0
H1078 H 0.47909 0.62321 0.90176 0.0
H1079 H 0.42219 0.63428 0.91557 0.0
H1080 H 0.42395 0.6305 0.98385 0.0
H1081 H 0.48218 0.64712 0.85252 0.0
H1082 H 0.38611 0.6153 0.84411 0.0
H1083 H 0.35287 0.593 0.88117 0.0
H1084 H 0.38801 0.56302 0.92993 0.0
H1085 H 0.42133 0.58489 0.89271 0.0
C1086 C 0.45495 0.64383 0.68179 0.0
C1087 C 0.44787 0.62514 0.66309 0.0
C1088 C 0.45142 0.64416 0.72034 0.0
C1089 C 0.44161 0.6259 0.74094 0.0
C1090 C 0.43251 0.60718 0.72165 0.0
C1091 C 0.43551 0.60681 0.68277 0.0
C1092 C 0.44385 0.62645 0.78245 0.0
C1093 C 0.42493 0.61559 0.80476 0.0
C1094 C 0.4649 0.63736 0.79994 0.0
C1095 C 0.48603 0.64693 0.77812 0.0
C1096 C 0.49104 0.63548 0.7516 0.0
C1097 C 0.51081 0.64458 0.73094 0.0
C1098 C 0.52591 0.66506 0.73697 0.0
C1099 C 0.52128 0.67648 0.76365 0.0
C1100 C 0.50153 0.66744 0.78437 0.0
C1101 C 0.46909 0.62453 0.9583 0.0
C1102 C 0.4532 0.62586 0.98173 0.0
C1103 C 0.4674 0.62555 0.91934 0.0
C1104 C 0.45009 0.62842 0.90327 0.0
C1105 C 0.43523 0.63136 0.9271 0.0
C1106 C 0.43642 0.62953 0.96604 0.0
C1107 C 0.44726 0.62754 0.86173 0.0
C1108 C 0.46614 0.63833 0.83925 0.0
C1109 C 0.42644 0.61552 0.84416 0.0
C1110 C 0.40629 0.60191 0.86592 0.0
C1111 C 0.3867 0.60388 0.86258 0.0
C1112 C 0.36786 0.59132 0.88363 0.0
C1113 C 0.36836 0.57666 0.90797 0.0
C1114 C 0.38767 0.57443 0.91114 0.0
C1115 C 0.40653 0.58689 0.89007 0.0
H1116 H 0.35377 0.56699 0.92427 0.0
H1117 H 0.54129 0.67203 0.72118 0.0
H1118 H 0.8241 0.3518 0.31181 0.0
H1119 H 0.81389 0.3507 0.24585 0.0
H1120 H 0.82181 0.41199 0.25389 0.0
H1121 H 0.83227 0.41337 0.32031 0.0
H1122 H 0.78592 0.38163 0.19943 0.0
H1123 H 0.86441 0.41346 0.23062 0.0
H1124 H 0.8965 0.41471 0.26532 0.0
H1125 H 0.88568 0.35793 0.21507 0.0
H1126 H 0.85321 0.35616 0.18064 0.0
H1127 H 0.82314 0.41749 0.01315 0.0
H1128 H 0.81615 0.4122 0.08049 0.0
H1129 H 0.82582 0.35844 0.07519 0.0
H1130 H 0.83346 0.36386 0.00771 0.0
H1131 H 0.85041 0.38398 0.12917 0.0
H1132 H 0.77483 0.35567 0.08925 0.0
H1133 H 0.74213 0.35444 0.05682 0.0
H1134 H 0.74651 0.40464 0.12361 0.0
H1135 H 0.77968 0.40663 0.15567 0.0
C1136 C 0.82307 0.36488 0.29995 0.0
C1137 C 0.82951 0.38288 0.32098 0.0
C1138 C 0.81707 0.36413 0.26231 0.0
C1139 C 0.8174 0.38135 0.24507 0.0
C1140 C 0.82143 0.39855 0.2669 0.0
C1141 C 0.82748 0.39933 0.30477 0.0
C1142 C 0.81803 0.38265 0.2036 0.0
C1143 C 0.80004 0.3824 0.18384 0.0
C1144 C 0.83638 0.38328 0.18365 0.0
C1145 C 0.85627 0.38458 0.20339 0.0
C1146 C 0.86878 0.40117 0.2272 0.0
C1147 C 0.88704 0.40198 0.2468 0.0
C1148 C 0.89309 0.38638 0.24248 0.0
C1149 C 0.88094 0.36998 0.21843 0.0
C1150 C 0.86262 0.36907 0.19886 0.0
C1151 C 0.82358 0.40438 0.02608 0.0
C1152 C 0.82908 0.39118 0.00494 0.0
C1153 C 0.81934 0.4013 0.0646 0.0
C1154 C 0.8202 0.38481 0.08277 0.0
C1155 C 0.82501 0.37124 0.06164 0.0
C1156 C 0.82936 0.37435 0.02307 0.0
C1157 C 0.81817 0.38289 0.12428 0.0
C1158 C 0.8361 0.38313 0.14433 0.0
C1159 C 0.7998 0.38245 0.14423 0.0
C1160 C 0.77996 0.38144 0.12463 0.0
C1161 C 0.76903 0.36664 0.09671 0.0
C1162 C 0.75038 0.36579 0.07841 0.0
C1163 C 0.74228 0.37949 0.08808 0.0
C1164 C 0.75279 0.39403 0.11617 0.0
C1165 C 0.77157 0.39507 0.13433 0.0
H1166 H 0.72785 0.37882 0.07386 0.0
H1167 H 0.90722 0.38702 0.25769 0.0
H1168 H 0.39769 0.82603 0.6496 0.0
H1169 H 0.38924 0.81952 0.58257 0.0
H1170 H 0.45865 0.83979 0.55879 0.0
H1171 H 0.46732 0.8463 0.6255 0.0
H1172 H 0.4409 0.86017 0.51777 0.0
H1173 H 0.42351 0.7913 0.54722 0.0
H1174 H 0.40533 0.75856 0.58136 0.0
H1175 H 0.34131 0.75081 0.54631 0.0
H1176 H 0.3591 0.78369 0.51238 0.0
H1177 H 0.43565 0.83876 0.32587 0.0
H1178 H 0.43846 0.83191 0.39227 0.0
H1179 H 0.37272 0.82524 0.41209 0.0
H1180 H 0.36977 0.83241 0.34553 0.0
H1181 H 0.38744 0.79631 0.45448 0.0
H1182 H 0.40547 0.86707 0.43024 0.0
H1183 H 0.42416 0.89932 0.39466 0.0
H1184 H 0.48775 0.90292 0.4204 0.0
H1185 H 0.46936 0.87044 0.45558 0.0
C1186 C 0.41113 0.82882 0.63022 0.0
C1187 C 0.43323 0.83694 0.64295 0.0
C1188 C 0.40624 0.82498 0.59195 0.0
C1189 C 0.42334 0.82921 0.56581 0.0
C1190 C 0.44524 0.83648 0.57857 0.0
C1191 C 0.45014 0.84019 0.61677 0.0
C1192 C 0.41879 0.82805 0.52495 0.0
C1193 C 0.42943 0.84612 0.50395 0.0
C1194 C 0.40341 0.80983 0.50711 0.0
C1195 C 0.39263 0.79009 0.52761 0.0
C1196 C 0.40554 0.78273 0.54711 0.0
C1197 C 0.39531 0.76412 0.56635 0.0
C1198 C 0.37218 0.75264 0.5661 0.0
C1199 C 0.35923 0.75973 0.54653 0.0
C1200 C 0.36938 0.77835 0.52726 0.0
C1201 C 0.42155 0.8354 0.34405 0.0
C1202 C 0.4026 0.83643 0.33052 0.0
C1203 C 0.42318 0.83142 0.38196 0.0
C1204 C 0.40583 0.82815 0.40687 0.0
C1205 C 0.38622 0.82765 0.39309 0.0
C1206 C 0.38467 0.83192 0.35518 0.0
C1207 C 0.40964 0.82837 0.44776 0.0
C1208 C 0.39888 0.81026 0.4686 0.0
C1209 C 0.42491 0.84654 0.46568 0.0
C1210 C 0.43604 0.86622 0.44513 0.0
C1211 C 0.42343 0.87464 0.428 0.0
C1212 C 0.43396 0.89297 0.40796 0.0
C1213 C 0.45713 0.90313 0.40516 0.0
C1214 C 0.4698 0.89501 0.42253 0.0
C1215 C 0.45933 0.87664 0.44253 0.0
H1216 H 0.46526 0.91732 0.38962 0.0
H1217 H 0.36429 0.73823 0.58099 0.0
H1218 H 0.54899 0.35954 0.66728 0.0
H1219 H 0.55539 0.3593 0.73515 0.0
H1220 H 0.5638 0.42085 0.74337 0.0
H1221 H 0.55946 0.42166 0.67534 0.0
H1222 H 0.58637 0.41865 0.79271 0.0
H1223 H 0.51277 0.37498 0.7611 0.0
H1224 H 0.47936 0.34746 0.73218 0.0
H1225 H 0.49528 0.3025 0.78058 0.0
H1226 H 0.52909 0.32977 0.80919 0.0
H1227 H 0.5242 0.37424 0.98118 0.0
H1228 H 0.52418 0.37293 0.91268 0.0
H1229 H 0.59542 0.39606 0.91287 0.0
H1230 H 0.59565 0.39852 0.98152 0.0
H1231 H 0.53279 0.35636 0.85984 0.0
H1232 H 0.61891 0.43059 0.83691 0.0
H1233 H 0.64173 0.46283 0.87041 0.0
H1234 H 0.58483 0.45537 0.93463 0.0
H1235 H 0.56153 0.42342 0.90091 0.0
C1236 C 0.55308 0.37321 0.6836 0.0
C1237 C 0.55404 0.39069 0.66643 0.0
C1238 C 0.55638 0.37298 0.72233 0.0
C1239 C 0.55944 0.38979 0.7447 0.0
C1240 C 0.56152 0.40764 0.727 0.0
C1241 C 0.5591 0.40815 0.68808 0.0
C1242 C 0.55918 0.38834 0.78648 0.0
C1243 C 0.57468 0.405 0.80733 0.0
C1244 C 0.54322 0.37094 0.80593 0.0
C1245 C 0.52364 0.35446 0.78695 0.0
C1246 C 0.50936 0.35924 0.76511 0.0
C1247 C 0.49031 0.34369 0.74886 0.0
C1248 C 0.4852 0.32326 0.7546 0.0
C1249 C 0.49928 0.31834 0.77617 0.0
C1250 C 0.51841 0.33384 0.79236 0.0
C1251 C 0.5398 0.37864 0.96665 0.0
C1252 C 0.55994 0.38665 0.98654 0.0
C1253 C 0.5398 0.37791 0.92744 0.0
C1254 C 0.55989 0.38485 0.90752 0.0
C1255 C 0.57982 0.39119 0.92759 0.0
C1256 C 0.5799 0.39241 0.96678 0.0
C1257 C 0.56006 0.38657 0.8659 0.0
C1258 C 0.54459 0.36994 0.84513 0.0
C1259 C 0.57462 0.40476 0.84681 0.0
C1260 C 0.58858 0.42418 0.86706 0.0
C1261 C 0.61124 0.43578 0.8582 0.0
C1262 C 0.62427 0.45405 0.87719 0.0
C1263 C 0.6148 0.46101 0.90494 0.0
C1264 C 0.59221 0.44985 0.91342 0.0
C1265 C 0.57909 0.43164 0.89438 0.0
H1266 H 0.62493 0.47513 0.91967 0.0
H1267 H 0.47023 0.31125 0.74258 0.0
H1268 H 0.19493 0.59311 0.00634 0.0
H1269 H 0.20213 0.59705 0.07382 0.0
H1270 H 0.18755 0.64809 0.07545 0.0
H1271 H 0.18028 0.64433 0.00774 0.0
H1272 H 0.22239 0.65312 0.12459 0.0
H1273 H 0.14737 0.60327 0.09465 0.0
H1274 H 0.11873 0.57257 0.06343 0.0
H1275 H 0.1443 0.53563 0.1172 0.0
H1276 H 0.17335 0.56622 0.1483 0.0
H1277 H 0.17193 0.65179 0.29719 0.0
H1278 H 0.18434 0.65171 0.23317 0.0
H1279 H 0.19404 0.59917 0.25837 0.0
H1280 H 0.18151 0.59912 0.32325 0.0
H1281 H 0.16785 0.59346 0.19707 0.0
H1282 H 0.23866 0.64423 0.23747 0.0
H1283 H 0.26499 0.67557 0.2701 0.0
H1284 H 0.24568 0.71157 0.1986 0.0
H1285 H 0.21899 0.68042 0.16583 0.0
C1286 C 0.19352 0.60538 0.02083 0.0
C1287 C 0.18657 0.61817 0.00169 0.0
C1288 C 0.19774 0.60763 0.05942 0.0
C1289 C 0.19506 0.62267 0.07965 0.0
C1290 C 0.18969 0.63638 0.06028 0.0
C1291 C 0.18544 0.63414 0.0216 0.0
C1292 C 0.19536 0.62262 0.12131 0.0
C1293 C 0.2105 0.64012 0.14055 0.0
C1294 C 0.18012 0.60545 0.14202 0.0
C1295 C 0.16272 0.58705 0.12335 0.0
C1296 C 0.14703 0.58863 0.09951 0.0
C1297 C 0.1307 0.57125 0.08189 0.0
C1298 C 0.12975 0.55217 0.08821 0.0
C1299 C 0.1451 0.55043 0.11225 0.0
C1300 C 0.1615 0.56778 0.12987 0.0
C1301 C 0.17707 0.6404 0.28951 0.0
C1302 C 0.17561 0.62538 0.31537 0.0
C1303 C 0.18435 0.64049 0.25284 0.0
C1304 C 0.19034 0.62557 0.24107 0.0
C1305 C 0.18963 0.61091 0.26703 0.0
C1306 C 0.18249 0.61091 0.30405 0.0
C1307 C 0.1947 0.62408 0.20061 0.0
C1308 C 0.18025 0.60629 0.18139 0.0
C1309 C 0.21042 0.64107 0.18006 0.0
C1310 C 0.22673 0.65994 0.19927 0.0
C1311 C 0.23993 0.65881 0.22881 0.0
C1312 C 0.25494 0.67655 0.24732 0.0
C1313 C 0.25699 0.69555 0.23646 0.0
C1314 C 0.24408 0.69685 0.20696 0.0
C1315 C 0.22904 0.67915 0.18835 0.0
H1316 H 0.26859 0.70926 0.25087 0.0
H1317 H 0.11708 0.53873 0.07458 0.0
H1318 H 0.55714 0.18718 0.64369 0.0
H1319 H 0.56643 0.19639 0.57759 0.0
H1320 H 0.61666 0.17598 0.58341 0.0
H1321 H 0.60824 0.1678 0.65002 0.0
H1322 H 0.62978 0.20686 0.5365 0.0
H1323 H 0.56162 0.1438 0.55493 0.0
H1324 H 0.52381 0.12315 0.58014 0.0
H1325 H 0.50114 0.16103 0.52175 0.0
H1326 H 0.53891 0.18205 0.49652 0.0
H1327 H 0.62791 0.16379 0.35886 0.0
H1328 H 0.62649 0.17277 0.42429 0.0
H1329 H 0.57971 0.19504 0.39539 0.0
H1330 H 0.58058 0.18561 0.32969 0.0
H1331 H 0.56512 0.1694 0.45248 0.0
H1332 H 0.63355 0.22785 0.42322 0.0
H1333 H 0.67146 0.24627 0.39724 0.0
H1334 H 0.6942 0.21531 0.47475 0.0
H1335 H 0.65634 0.19643 0.50084 0.0
C1336 C 0.57043 0.18501 0.63098 0.0
C1337 C 0.58176 0.1765 0.65174 0.0
C1338 C 0.57571 0.19025 0.59324 0.0
C1339 C 0.59184 0.18636 0.57527 0.0
C1340 C 0.6041 0.17905 0.59661 0.0
C1341 C 0.59921 0.17429 0.63463 0.0
C1342 C 0.59435 0.18778 0.53373 0.0
C1343 C 0.61568 0.19866 0.51806 0.0
C1344 C 0.57588 0.17743 0.50961 0.0
C1345 C 0.5531 0.1646 0.52419 0.0
C1346 C 0.54858 0.14776 0.54761 0.0
C1347 C 0.52717 0.136 0.56189 0.0
C1348 C 0.5101 0.14081 0.55263 0.0
C1349 C 0.51439 0.15735 0.52894 0.0
C1350 C 0.53578 0.16918 0.51462 0.0
C1351 C 0.61745 0.17077 0.36621 0.0
C1352 C 0.60417 0.17378 0.33898 0.0
C1353 C 0.61684 0.1761 0.40368 0.0
C1354 C 0.6032 0.18481 0.41469 0.0
C1355 C 0.59042 0.1884 0.38745 0.0
C1356 C 0.59092 0.18297 0.34992 0.0
C1357 C 0.60062 0.18814 0.45513 0.0
C1358 C 0.57922 0.17805 0.47068 0.0
C1359 C 0.61909 0.19899 0.479 0.0
C1360 C 0.64202 0.21062 0.46387 0.0
C1361 C 0.64659 0.22487 0.43461 0.0
C1362 C 0.66808 0.2354 0.41986 0.0
C1363 C 0.68521 0.23193 0.43429 0.0
C1364 C 0.68091 0.21798 0.4636 0.0
C1365 C 0.65943 0.20738 0.47843 0.0
H1366 H 0.70183 0.24007 0.42279 0.0
H1367 H 0.49354 0.1317 0.56376 0.0
loop_
_geom_bond_atom_site_label_1
_geom_bond_atom_site_label_2
_geom_bond_distance
_geom_bond_site_symmetry_2
_ccdc_geom_bond_type
Co0 O1 2.216 . S
Co0 O2 2.091 . S
Co0 O4 2.004 . S
Co0 O10 2.021 . S
Co0 O12 2.137 . S
Co0 O13 2.244 . S
O1 Co0 2.216 . S
O1 C8 1.247 . S
O2 Co0 2.091 . S
O2 C8 1.261 . S
C3 O12 1.247 . S
C3 O13 1.272 . S
O4 Co0 2.004 . S
O4 C9 1.259 . S
Co5 O6 2.061 . S
Co5 O11 2.052 . S
Co5 O13 2.135 . S
O6 Co5 2.061 . S
O6 C9 1.235 . S
C7 O10 1.238 1_556 S
C7 O11 1.241 1_556 S
C8 O1 1.247 . S
C8 O2 1.261 . S
C9 O4 1.259 . S
C9 O6 1.235 . S
O10 Co0 2.021 . S
O10 C7 1.238 1_554 S
O11 Co5 2.052 . S
O11 C7 1.241 1_554 S
O12 Co0 2.137 . S
O12 C3 1.247 . S
O13 Co0 2.244 . S
O13 C3 1.272 . S
O13 Co5 2.135 . S
Co14 O15 2.216 . S
Co14 O16 2.091 . S
Co14 O18 2.004 . S
Co14 O24 2.021 . S
Co14 O26 2.137 . S
Co14 O27 2.244 . S
O15 Co14 2.216 . S
O15 C22 1.247 . S
O16 Co14 2.091 . S
O16 C22 1.261 . S
C17 O26 1.247 . S
C17 O27 1.272 . S
O18 Co14 2.004 . S
O18 C23 1.259 . S
Co19 O20 2.061 . S
Co19 O25 2.052 . S
Co19 O27 2.135 . S
O20 Co19 2.061 . S
O20 C23 1.235 . S
C21 O24 1.238 . S
C21 O25 1.241 . S
C22 O15 1.247 . S
C22 O16 1.261 . S
C23 O18 1.259 . S
C23 O20 1.235 . S
O24 Co14 2.021 . S
O24 C21 1.238 . S
O25 Co19 2.052 . S
O25 C21 1.241 . S
O26 Co14 2.137 . S
O26 C17 1.247 . S
O27 Co14 2.244 . S
O27 C17 1.272 . S
O27 Co19 2.135 . S
Co28 O29 2.216 . S
Co28 O30 2.091 . S
Co28 O32 2.004 . S
Co28 O38 2.021 . S
Co28 O40 2.137 . S
Co28 O41 2.244 . S
O29 Co28 2.216 . S
O29 C36 1.247 . S
O30 Co28 2.091 . S
O30 C36 1.261 . S
C31 O40 1.247 . S
C31 O41 1.272 . S
O32 Co28 2.004 . S
O32 C37 1.259 . S
Co33 O34 2.061 . S
Co33 O39 2.052 . S
Co33 O41 2.135 . S
O34 Co33 2.061 . S
O34 C37 1.235 . S
C35 O38 1.238 . S
C35 O39 1.241 . S
C36 O29 1.247 . S
C36 O30 1.261 . S
C37 O32 1.259 . S
C37 O34 1.235 . S
O38 Co28 2.021 . S
O38 C35 1.238 . S
O39 Co33 2.052 . S
O39 C35 1.241 . S
O40 Co28 2.137 . S
O40 C31 1.247 . S
O41 Co28 2.244 . S
O41 C31 1.272 . S
O41 Co33 2.135 . S
Co42 O43 2.216 . S
Co42 O44 2.091 . S
Co42 O46 2.004 . S
Co42 O52 2.021 . S
Co42 O54 2.137 . S
Co42 O55 2.244 . S
O43 Co42 2.216 . S
O43 C50 1.247 . S
O44 Co42 2.091 . S
O44 C50 1.261 . S
C45 O54 1.247 . S
C45 O55 1.272 . S
O46 Co42 2.004 . S
O46 C51 1.259 . S
Co47 O48 2.061 . S
Co47 O53 2.052 . S
Co47 O55 2.135 . S
O48 Co47 2.061 . S
O48 C51 1.235 . S
C49 O52 1.238 1_556 S
C49 O53 1.241 1_556 S
C50 O43 1.247 . S
C50 O44 1.261 . S
C51 O46 1.259 . S
C51 O48 1.235 . S
O52 Co42 2.021 . S
O52 C49 1.238 1_554 S
O53 Co47 2.052 . S
O53 C49 1.241 1_554 S
O54 Co42 2.137 . S
O54 C45 1.247 . S
O55 Co42 2.244 . S
O55 C45 1.272 . S
O55 Co47 2.135 . S
Co56 O57 2.216 . S
Co56 O58 2.091 . S
Co56 O60 2.004 . S
Co56 O66 2.021 . S
Co56 O68 2.137 . S
Co56 O69 2.244 . S
O57 Co56 2.216 . S
O57 C64 1.247 . S
O58 Co56 2.091 . S
O58 C64 1.261 . S
C59 O68 1.247 . S
C59 O69 1.272 . S
O60 Co56 2.004 . S
O60 C65 1.259 . S
Co61 O62 2.061 . S
Co61 O67 2.052 . S
Co61 O69 2.135 . S
O62 Co61 2.061 . S
O62 C65 1.235 . S
C63 O66 1.238 . S
C63 O67 1.241 . S
C64 O57 1.247 . S
C64 O58 1.261 . S
C65 O60 1.259 . S
C65 O62 1.235 . S
O66 Co56 2.021 . S
O66 C63 1.238 . S
O67 Co61 2.052 . S
O67 C63 1.241 . S
O68 Co56 2.137 . S
O68 C59 1.247 . S
O69 Co56 2.244 . S
O69 C59 1.272 . S
O69 Co61 2.135 . S
Co70 O71 2.216 . S
Co70 O72 2.091 . S
Co70 O74 2.004 . S
Co70 O80 2.021 . S
Co70 O82 2.137 . S
Co70 O83 2.244 . S
O71 Co70 2.216 . S
O71 C78 1.247 . S
O72 Co70 2.091 . S
O72 C78 1.261 . S
C73 O82 1.247 . S
C73 O83 1.272 . S
O74 Co70 2.004 . S
O74 C79 1.259 . S
Co75 O76 2.061 . S
Co75 O81 2.052 . S
Co75 O83 2.135 . S
O76 Co75 2.061 . S
O76 C79 1.235 . S
C77 O80 1.238 . S
C77 O81 1.241 . S
C78 O71 1.247 . S
C78 O72 1.261 . S
C79 O74 1.259 . S
C79 O76 1.235 . S
O80 Co70 2.021 . S
O80 C77 1.238 . S
O81 Co75 2.052 . S
O81 C77 1.241 . S
O82 Co70 2.137 . S
O82 C73 1.247 . S
O83 Co70 2.244 . S
O83 C73 1.272 . S
O83 Co75 2.135 . S
Co84 O85 2.216 . S
Co84 O86 2.091 . S
Co84 O88 2.004 . S
Co84 O94 2.021 . S
Co84 O96 2.137 . S
Co84 O97 2.244 . S
O85 Co84 2.216 . S
O85 C92 1.247 . S
O86 Co84 2.091 . S
O86 C92 1.261 . S
C87 O96 1.247 . S
C87 O97 1.272 . S
O88 Co84 2.004 . S
O88 C93 1.259 . S
Co89 O90 2.061 . S
Co89 O95 2.052 . S
Co89 O97 2.135 . S
O90 Co89 2.061 . S
O90 C93 1.235 . S
C91 O94 1.238 . S
C91 O95 1.241 . S
C92 O85 1.247 . S
C92 O86 1.261 . S
C93 O88 1.259 . S
C93 O90 1.235 . S
O94 Co84 2.021 . S
O94 C91 1.238 . S
O95 Co89 2.052 . S
O95 C91 1.241 . S
O96 Co84 2.137 . S
O96 C87 1.247 . S
O97 Co84 2.244 . S
O97 C87 1.272 . S
O97 Co89 2.135 . S
Co98 O99 2.216 . S
Co98 O100 2.091 . S
Co98 O102 2.004 . S
Co98 O108 2.021 . S
Co98 O110 2.137 . S
Co98 O111 2.244 . S
O99 Co98 2.216 . S
O99 C106 1.247 . S
O100 Co98 2.091 . S
O100 C106 1.261 . S
C101 O110 1.247 . S
C101 O111 1.272 . S
O102 Co98 2.004 . S
O102 C107 1.259 . S
Co103 O104 2.061 . S
Co103 O109 2.052 . S
Co103 O111 2.135 . S
O104 Co103 2.061 . S
O104 C107 1.235 . S
C105 O108 1.238 1_554 S
C105 O109 1.241 1_554 S
C106 O99 1.247 . S
C106 O100 1.261 . S
C107 O102 1.259 . S
C107 O104 1.235 . S
O108 Co98 2.021 . S
O108 C105 1.238 1_556 S
O109 Co103 2.052 . S
O109 C105 1.241 1_556 S
O110 Co98 2.137 . S
O110 C101 1.247 . S
O111 Co98 2.244 . S
O111 C101 1.272 . S
O111 Co103 2.135 . S
Co112 O113 2.216 . S
Co112 O114 2.091 . S
Co112 O116 2.004 . S
Co112 O122 2.021 . S
Co112 O124 2.137 . S
Co112 O125 2.244 . S
O113 Co112 2.216 . S
O113 C120 1.247 . S
O114 Co112 2.091 . S
O114 C120 1.261 . S
C115 O124 1.247 . S
C115 O125 1.272 . S
O116 Co112 2.004 . S
O116 C121 1.259 . S
Co117 O118 2.061 . S
Co117 O123 2.052 . S
Co117 O125 2.135 . S
O118 Co117 2.061 . S
O118 C121 1.235 . S
C119 O122 1.238 . S
C119 O123 1.241 . S
C120 O113 1.247 . S
C120 O114 1.261 . S
C121 O116 1.259 . S
C121 O118 1.235 . S
O122 Co112 2.021 . S
O122 C119 1.238 . S
O123 Co117 2.052 . S
O123 C119 1.241 . S
O124 Co112 2.137 . S
O124 C115 1.247 . S
O125 Co112 2.244 . S
O125 C115 1.272 . S
O125 Co117 2.135 . S
Co126 O127 2.216 . S
Co126 O128 2.091 . S
Co126 O130 2.004 . S
Co126 O136 2.021 . S
Co126 O138 2.137 . S
Co126 O139 2.244 . S
O127 Co126 2.216 . S
O127 C134 1.247 . S
O128 Co126 2.091 . S
O128 C134 1.261 . S
C129 O138 1.247 . S
C129 O139 1.272 . S
O130 Co126 2.004 . S
O130 C135 1.259 . S
Co131 O132 2.061 . S
Co131 O137 2.052 . S
Co131 O139 2.135 . S
O132 Co131 2.061 . S
O132 C135 1.235 . S
C133 O136 1.238 . S
C133 O137 1.241 . S
C134 O127 1.247 . S
C134 O128 1.261 . S
C135 O130 1.259 . S
C135 O132 1.235 . S
O136 Co126 2.021 . S
O136 C133 1.238 . S
O137 Co131 2.052 . S
O137 C133 1.241 . S
O138 Co126 2.137 . S
O138 C129 1.247 . S
O139 Co126 2.244 . S
O139 C129 1.272 . S
O139 Co131 2.135 . S
Co140 O141 2.216 . S
Co140 O142 2.091 . S
Co140 O144 2.004 . S
Co140 O150 2.021 . S
Co140 O152 2.137 . S
Co140 O153 2.244 . S
O141 Co140 2.216 . S
O141 C148 1.247 . S
O142 Co140 2.091 . S
O142 C148 1.261 . S
C143 O152 1.247 . S
C143 O153 1.272 . S
O144 Co140 2.004 . S
O144 C149 1.259 . S
Co145 O146 2.061 . S
Co145 O151 2.052 . S
Co145 O153 2.135 . S
O146 Co145 2.061 . S
O146 C149 1.235 . S
C147 O150 1.238 1_554 S
C147 O151 1.241 1_554 S
C148 O141 1.247 . S
C148 O142 1.261 . S
C149 O144 1.259 . S
C149 O146 1.235 . S
O150 Co140 2.021 . S
O150 C147 1.238 1_556 S
O151 Co145 2.052 . S
O151 C147 1.241 1_556 S
O152 Co140 2.137 . S
O152 C143 1.247 . S
O153 Co140 2.244 . S
O153 C143 1.272 . S
O153 Co145 2.135 . S
Co154 O155 2.216 . S
Co154 O156 2.091 . S
Co154 O158 2.004 . S
Co154 O164 2.021 . S
Co154 O166 2.137 . S
Co154 O167 2.244 . S
O155 Co154 2.216 . S
O155 C162 1.247 . S
O156 Co154 2.091 . S
O156 C162 1.261 . S
C157 O166 1.247 . S
C157 O167 1.272 . S
O158 Co154 2.004 . S
O158 C163 1.259 . S
Co159 O160 2.061 . S
Co159 O165 2.052 . S
Co159 O167 2.135 . S
O160 Co159 2.061 . S
O160 C163 1.235 . S
C161 O164 1.238 . S
C161 O165 1.241 . S
C162 O155 1.247 . S
C162 O156 1.261 . S
C163 O158 1.259 . S
C163 O160 1.235 . S
O164 Co154 2.021 . S
O164 C161 1.238 . S
O165 Co159 2.052 . S
O165 C161 1.241 . S
O166 Co154 2.137 . S
O166 C157 1.247 . S
O167 Co154 2.244 . S
O167 C157 1.272 . S
O167 Co159 2.135 . S
H168 C186 0.951 . S
H169 C188 0.951 . S
H170 C190 0.950 . S
H171 C191 0.950 . S
H172 C193 0.950 . S
H173 C196 0.950 . S
H174 C197 0.950 . S
H175 C199 0.950 . S
H176 C200 0.950 . S
H177 C201 0.951 . S
H178 C203 0.951 . S
H179 C205 0.950 . S
H180 C206 0.950 . S
H181 C208 0.950 . S
H182 C211 0.950 . S
H183 C212 0.950 . S
H184 C214 0.950 . S
H185 C215 0.950 . S
C186 H168 0.951 . S
C186 C187 1.366 . S
C186 C188 1.388 . S
C187 C186 1.366 . S
C187 C191 1.385 . S
C188 H169 0.951 . S
C188 C186 1.388 . S
C188 C189 1.366 . S
C189 C188 1.366 . S
C189 C190 1.414 . S
C189 C192 1.499 . S
C190 H170 0.950 . S
C190 C189 1.414 . S
C190 C191 1.374 . S
C191 H171 0.950 . S
C191 C187 1.385 . S
C191 C190 1.374 . S
C192 C189 1.499 . S
C192 C193 1.373 . S
C192 C194 1.389 . S
C193 H172 0.950 . S
C193 C192 1.373 . S
C193 C209 1.377 . S
C194 C192 1.389 . S
C194 C195 1.524 . S
C194 C208 1.377 . S
C195 C194 1.524 . S
C195 C196 1.397 . S
C195 C200 1.363 . S
C196 H173 0.950 . S
C196 C195 1.397 . S
C196 C197 1.334 . S
C197 H174 0.950 . S
C197 C196 1.334 . S
C197 C198 1.287 . S
C198 C197 1.287 . S
C198 C199 1.524 . S
C198 H217 0.913 . S
C199 H175 0.950 . S
C199 C198 1.524 . S
C199 C200 1.415 . S
C200 H176 0.950 . S
C200 C195 1.363 . S
C200 C199 1.415 . S
C201 H177 0.951 . S
C201 C202 1.366 . S
C201 C203 1.388 . S
C202 C201 1.366 . S
C202 C206 1.385 . S
C203 H178 0.951 . S
C203 C201 1.388 . S
C203 C204 1.366 . S
C204 C203 1.366 . S
C204 C205 1.414 . S
C204 C207 1.499 . S
C205 H179 0.950 . S
C205 C204 1.414 . S
C205 C206 1.374 . S
C206 H180 0.950 . S
C206 C202 1.385 . S
C206 C205 1.374 . S
C207 C204 1.499 . S
C207 C208 1.373 . S
C207 C209 1.389 . S
C208 H181 0.950 . S
C208 C194 1.377 . S
C208 C207 1.373 . S
C209 C193 1.377 . S
C209 C207 1.389 . S
C209 C210 1.524 . S
C210 C209 1.524 . S
C210 C211 1.397 . S
C210 C215 1.363 . S
C211 H182 0.950 . S
C211 C210 1.397 . S
C211 C212 1.334 . S
C212 H183 0.950 . S
C212 C211 1.334 . S
C212 C213 1.287 . S
C213 C212 1.287 . S
C213 C214 1.524 . S
C213 H216 0.999 . S
C214 H184 0.950 . S
C214 C213 1.524 . S
C214 C215 1.415 . S
C215 H185 0.950 . S
C215 C210 1.363 . S
C215 C214 1.415 . S
H216 C213 0.999 . S
H217 C198 0.913 . S
H218 C236 0.951 . S
H219 C238 0.951 . S
H220 C240 0.950 . S
H221 C241 0.950 . S
H222 C243 0.950 . S
H223 C246 0.950 . S
H224 C247 0.950 . S
H225 C249 0.950 . S
H226 C250 0.950 . S
H227 C251 0.951 . S
H228 C253 0.951 . S
H229 C255 0.950 . S
H230 C256 0.950 . S
H231 C258 0.950 . S
H232 C261 0.950 . S
H233 C262 0.950 . S
H234 C264 0.950 . S
H235 C265 0.950 . S
C236 H218 0.951 . S
C236 C237 1.366 . S
C236 C238 1.388 . S
C237 C236 1.366 . S
C237 C241 1.385 . S
C238 H219 0.951 . S
C238 C236 1.388 . S
C238 C239 1.366 . S
C239 C238 1.366 . S
C239 C240 1.414 . S
C239 C242 1.499 . S
C240 H220 0.950 . S
C240 C239 1.414 . S
C240 C241 1.374 . S
C241 H221 0.950 . S
C241 C237 1.385 . S
C241 C240 1.374 . S
C242 C239 1.499 . S
C242 C243 1.373 . S
C242 C244 1.389 . S
C243 H222 0.950 . S
C243 C242 1.373 . S
C243 C259 1.377 . S
C244 C242 1.389 . S
C244 C245 1.524 . S
C244 C258 1.377 . S
C245 C244 1.524 . S
C245 C246 1.397 . S
C245 C250 1.363 . S
C246 H223 0.950 . S
C246 C245 1.397 . S
C246 C247 1.334 . S
C247 H224 0.950 . S
C247 C246 1.334 . S
C247 C248 1.287 . S
C248 C247 1.287 . S
C248 C249 1.524 . S
C248 H267 0.913 . S
C249 H225 0.950 . S
C249 C248 1.524 . S
C249 C250 1.415 . S
C250 H226 0.950 . S
C250 C245 1.363 . S
C250 C249 1.415 . S
C251 H227 0.951 . S
C251 C252 1.366 . S
C251 C253 1.388 . S
C252 C251 1.366 . S
C252 C256 1.385 . S
C253 H228 0.951 . S
C253 C251 1.388 . S
C253 C254 1.366 . S
C254 C253 1.366 . S
C254 C255 1.414 . S
C254 C257 1.499 . S
C255 H229 0.950 . S
C255 C254 1.414 . S
C255 C256 1.374 . S
C256 H230 0.950 . S
C256 C252 1.385 . S
C256 C255 1.374 . S
C257 C254 1.499 . S
C257 C258 1.373 . S
C257 C259 1.389 . S
C258 H231 0.950 . S
C258 C244 1.377 . S
C258 C257 1.373 . S
C259 C243 1.377 . S
C259 C257 1.389 . S
C259 C260 1.524 . S
C260 C259 1.524 . S
C260 C261 1.397 . S
C260 C265 1.363 . S
C261 H232 0.950 . S
C261 C260 1.397 . S
C261 C262 1.334 . S
C262 H233 0.950 . S
C262 C261 1.334 . S
C262 C263 1.287 . S
C263 C262 1.287 . S
C263 C264 1.524 . S
C263 H266 0.999 . S
C264 H234 0.950 . S
C264 C263 1.524 . S
C264 C265 1.415 . S
C265 H235 0.950 . S
C265 C260 1.363 . S
C265 C264 1.415 . S
H266 C263 0.999 . S
H267 C248 0.913 . S
H268 C286 0.951 . S
H269 C288 0.951 . S
H270 C290 0.950 . S
H271 C291 0.950 . S
H272 C293 0.950 . S
H273 C296 0.950 . S
H274 C297 0.950 . S
H275 C299 0.950 . S
H276 C300 0.950 1_554 S
H277 C301 0.951 . S
H278 C303 0.951 . S
H279 C305 0.950 . S
H280 C306 0.950 . S
H281 C308 0.950 . S
H282 C311 0.950 . S
H283 C312 0.950 . S
H284 C314 0.950 . S
H285 C315 0.950 1_556 S
C286 H268 0.951 . S
C286 C287 1.366 . S
C286 C288 1.388 . S
C287 C286 1.366 . S
C287 C291 1.385 . S
C288 H269 0.951 . S
C288 C286 1.388 . S
C288 C289 1.366 . S
C289 C288 1.366 . S
C289 C290 1.414 . S
C289 C292 1.499 . S
C290 H270 0.950 . S
C290 C289 1.414 . S
C290 C291 1.374 . S
C291 H271 0.950 . S
C291 C287 1.385 . S
C291 C290 1.374 . S
C292 C289 1.499 . S
C292 C293 1.373 . S
C292 C294 1.389 . S
C293 H272 0.950 . S
C293 C292 1.373 . S
C293 C309 1.377 1_556 S
C294 C292 1.389 . S
C294 C295 1.524 . S
C294 C308 1.377 1_556 S
C295 C294 1.524 . S
C295 C296 1.397 . S
C295 C300 1.363 . S
C296 H273 0.950 . S
C296 C295 1.397 . S
C296 C297 1.334 . S
C297 H274 0.950 . S
C297 C296 1.334 . S
C297 C298 1.287 . S
C298 C297 1.287 . S
C298 C299 1.524 . S
C298 H317 0.913 . S
C299 H275 0.950 . S
C299 C298 1.524 . S
C299 C300 1.415 . S
C300 H276 0.950 1_556 S
C300 C295 1.363 . S
C300 C299 1.415 . S
C301 H277 0.951 . S
C301 C302 1.366 . S
C301 C303 1.388 . S
C302 C301 1.366 . S
C302 C306 1.385 . S
C303 H278 0.951 . S
C303 C301 1.388 . S
C303 C304 1.366 . S
C304 C303 1.366 . S
C304 C305 1.414 . S
C304 C307 1.499 . S
C305 H279 0.950 . S
C305 C304 1.414 . S
C305 C306 1.374 . S
C306 H280 0.950 . S
C306 C302 1.385 . S
C306 C305 1.374 . S
C307 C304 1.499 . S
C307 C308 1.373 . S
C307 C309 1.389 . S
C308 H281 0.950 . S
C308 C294 1.377 1_554 S
C308 C307 1.373 . S
C309 C293 1.377 1_554 S
C309 C307 1.389 . S
C309 C310 1.524 . S
C310 C309 1.524 . S
C310 C311 1.397 . S
C310 C315 1.363 . S
C311 H282 0.950 . S
C311 C310 1.397 . S
C311 C312 1.334 . S
C312 H283 0.950 . S
C312 C311 1.334 . S
C312 C313 1.287 . S
C313 C312 1.287 . S
C313 C314 1.524 . S
C313 H316 0.999 . S
C314 H284 0.950 . S
C314 C313 1.524 . S
C314 C315 1.415 . S
C315 H285 0.950 1_554 S
C315 C310 1.363 . S
C315 C314 1.415 . S
H316 C313 0.999 . S
H317 C298 0.913 . S
H318 C336 0.951 . S
H319 C338 0.951 . S
H320 C340 0.950 . S
H321 C341 0.950 . S
H322 C343 0.950 . S
H323 C346 0.950 . S
H324 C347 0.950 . S
H325 C349 0.950 . S
H326 C350 0.950 . S
H327 C351 0.951 . S
H328 C353 0.951 . S
H329 C355 0.950 . S
H330 C356 0.950 . S
H331 C358 0.950 . S
H332 C361 0.950 . S
H333 C362 0.950 . S
H334 C364 0.950 . S
H335 C365 0.950 . S
C336 H318 0.951 . S
C336 C337 1.366 . S
C336 C338 1.388 . S
C337 C336 1.366 . S
C337 C341 1.385 . S
C338 H319 0.951 . S
C338 C336 1.388 . S
C338 C339 1.366 . S
C339 C338 1.366 . S
C339 C340 1.414 . S
C339 C342 1.499 . S
C340 H320 0.950 . S
C340 C339 1.414 . S
C340 C341 1.374 . S
C341 H321 0.950 . S
C341 C337 1.385 . S
C341 C340 1.374 . S
C342 C339 1.499 . S
C342 C343 1.373 . S
C342 C344 1.389 . S
C343 H322 0.950 . S
C343 C342 1.373 . S
C343 C359 1.377 . S
C344 C342 1.389 . S
C344 C345 1.524 . S
C344 C358 1.377 . S
C345 C344 1.524 . S
C345 C346 1.397 . S
C345 C350 1.363 . S
C346 H323 0.950 . S
C346 C345 1.397 . S
C346 C347 1.334 . S
C347 H324 0.950 . S
C347 C346 1.334 . S
C347 C348 1.287 . S
C348 C347 1.287 . S
C348 C349 1.524 . S
C348 H367 0.913 . S
C349 H325 0.950 . S
C349 C348 1.524 . S
C349 C350 1.415 . S
C350 H326 0.950 . S
C350 C345 1.363 . S
C350 C349 1.415 . S
C351 H327 0.951 . S
C351 C352 1.366 . S
C351 C353 1.388 . S
C352 C351 1.366 . S
C352 C356 1.385 . S
C353 H328 0.951 . S
C353 C351 1.388 . S
C353 C354 1.366 . S
C354 C353 1.366 . S
C354 C355 1.414 . S
C354 C357 1.499 . S
C355 H329 0.950 . S
C355 C354 1.414 . S
C355 C356 1.374 . S
C356 H330 0.950 . S
C356 C352 1.385 . S
C356 C355 1.374 . S
C357 C354 1.499 . S
C357 C358 1.373 . S
C357 C359 1.389 . S
C358 H331 0.950 . S
C358 C344 1.377 . S
C358 C357 1.373 . S
C359 C343 1.377 . S
C359 C357 1.389 . S
C359 C360 1.524 . S
C360 C359 1.524 . S
C360 C361 1.397 . S
C360 C365 1.363 . S
C361 H332 0.950 . S
C361 C360 1.397 . S
C361 C362 1.334 . S
C362 H333 0.950 . S
C362 C361 1.334 . S
C362 C363 1.287 . S
C363 C362 1.287 . S
C363 C364 1.524 . S
C363 H366 0.999 . S
C364 H334 0.950 . S
C364 C363 1.524 . S
C364 C365 1.415 . S
C365 H335 0.950 . S
C365 C360 1.363 . S
C365 C364 1.415 . S
H366 C363 0.999 . S
H367 C348 0.913 . S
H368 C386 0.951 . S
H369 C388 0.951 . S
H370 C390 0.950 . S
H371 C391 0.950 . S
H372 C393 0.950 . S
H373 C396 0.950 . S
H374 C397 0.950 . S
H375 C399 0.950 . S
H376 C400 0.950 . S
H377 C401 0.951 . S
H378 C403 0.951 . S
H379 C405 0.950 . S
H380 C406 0.950 . S
H381 C408 0.950 . S
H382 C411 0.950 . S
H383 C412 0.950 . S
H384 C414 0.950 . S
H385 C415 0.950 . S
C386 H368 0.951 . S
C386 C387 1.366 . S
C386 C388 1.388 . S
C387 C386 1.366 . S
C387 C391 1.385 . S
C388 H369 0.951 . S
C388 C386 1.388 . S
C388 C389 1.366 . S
C389 C388 1.366 . S
C389 C390 1.414 . S
C389 C392 1.499 . S
C390 H370 0.950 . S
C390 C389 1.414 . S
C390 C391 1.374 . S
C391 H371 0.950 . S
C391 C387 1.385 . S
C391 C390 1.374 . S
C392 C389 1.499 . S
C392 C393 1.373 . S
C392 C394 1.389 . S
C393 H372 0.950 . S
C393 C392 1.373 . S
C393 C409 1.377 . S
C394 C392 1.389 . S
C394 C395 1.524 . S
C394 C408 1.377 . S
C395 C394 1.524 . S
C395 C396 1.397 . S
C395 C400 1.363 . S
C396 H373 0.950 . S
C396 C395 1.397 . S
C396 C397 1.334 . S
C397 H374 0.950 . S
C397 C396 1.334 . S
C397 C398 1.287 . S
C398 C397 1.287 . S
C398 C399 1.524 . S
C398 H417 0.913 . S
C399 H375 0.950 . S
C399 C398 1.524 . S
C399 C400 1.415 . S
C400 H376 0.950 . S
C400 C395 1.363 . S
C400 C399 1.415 . S
C401 H377 0.951 . S
C401 C402 1.366 . S
C401 C403 1.388 . S
C402 C401 1.366 . S
C402 C406 1.385 . S
C403 H378 0.951 . S
C403 C401 1.388 . S
C403 C404 1.366 . S
C404 C403 1.366 . S
C404 C405 1.414 . S
C404 C407 1.499 . S
C405 H379 0.950 . S
C405 C404 1.414 . S
C405 C406 1.374 . S
C406 H380 0.950 . S
C406 C402 1.385 . S
C406 C405 1.374 . S
C407 C404 1.499 . S
C407 C408 1.373 . S
C407 C409 1.389 . S
C408 H381 0.950 . S
C408 C394 1.377 . S
C408 C407 1.373 . S
C409 C393 1.377 . S
C409 C407 1.389 . S
C409 C410 1.524 . S
C410 C409 1.524 . S
C410 C411 1.397 . S
C410 C415 1.363 . S
C411 H382 0.950 . S
C411 C410 1.397 . S
C411 C412 1.334 . S
C412 H383 0.950 . S
C412 C411 1.334 . S
C412 C413 1.287 . S
C413 C412 1.287 . S
C413 C414 1.524 . S
C413 H416 0.999 . S
C414 H384 0.950 . S
C414 C413 1.524 . S
C414 C415 1.415 . S
C415 H385 0.950 . S
C415 C410 1.363 . S
C415 C414 1.415 . S
H416 C413 0.999 . S
H417 C398 0.913 . S
H418 C436 0.951 . S
H419 C438 0.951 . S
H420 C440 0.950 . S
H421 C441 0.950 . S
H422 C443 0.950 . S
H423 C446 0.950 . S
H424 C447 0.950 . S
H425 C449 0.950 . S
H426 C450 0.950 . S
H427 C451 0.951 . S
H428 C453 0.951 . S
H429 C455 0.950 . S
H430 C456 0.950 . S
H431 C458 0.950 . S
H432 C461 0.950 . S
H433 C462 0.950 . S
H434 C464 0.950 . S
H435 C465 0.950 . S
C436 H418 0.951 . S
C436 C437 1.366 . S
C436 C438 1.388 . S
C437 C436 1.366 . S
C437 C441 1.385 . S
C438 H419 0.951 . S
C438 C436 1.388 . S
C438 C439 1.366 . S
C439 C438 1.366 . S
C439 C440 1.414 . S
C439 C442 1.499 . S
C440 H420 0.950 . S
C440 C439 1.414 . S
C440 C441 1.374 . S
C441 H421 0.950 . S
C441 C437 1.385 . S
C441 C440 1.374 . S
C442 C439 1.499 . S
C442 C443 1.373 . S
C442 C444 1.389 . S
C443 H422 0.950 . S
C443 C442 1.373 . S
C443 C459 1.377 1_554 S
C444 C442 1.389 . S
C444 C445 1.524 . S
C444 C458 1.377 1_554 S
C445 C444 1.524 . S
C445 C446 1.397 . S
C445 C450 1.363 . S
C446 H423 0.950 . S
C446 C445 1.397 . S
C446 C447 1.334 . S
C447 H424 0.950 . S
C447 C446 1.334 . S
C447 C448 1.287 . S
C448 C447 1.287 . S
C448 C449 1.524 . S
C448 H467 0.913 . S
C449 H425 0.950 . S
C449 C448 1.524 . S
C449 C450 1.415 . S
C450 H426 0.950 . S
C450 C445 1.363 . S
C450 C449 1.415 . S
C451 H427 0.951 . S
C451 C452 1.366 . S
C451 C453 1.388 . S
C452 C451 1.366 . S
C452 C456 1.385 . S
C453 H428 0.951 . S
C453 C451 1.388 . S
C453 C454 1.366 . S
C454 C453 1.366 . S
C454 C455 1.414 . S
C454 C457 1.499 . S
C455 H429 0.950 . S
C455 C454 1.414 . S
C455 C456 1.374 . S
C456 H430 0.950 . S
C456 C452 1.385 . S
C456 C455 1.374 . S
C457 C454 1.499 . S
C457 C458 1.373 . S
C457 C459 1.389 . S
C458 H431 0.950 . S
C458 C444 1.377 1_556 S
C458 C457 1.373 . S
C459 C443 1.377 1_556 S
C459 C457 1.389 . S
C459 C460 1.524 . S
C460 C459 1.524 . S
C460 C461 1.397 . S
C460 C465 1.363 . S
C461 H432 0.950 . S
C461 C460 1.397 . S
C461 C462 1.334 . S
C462 H433 0.950 . S
C462 C461 1.334 . S
C462 C463 1.287 . S
C463 C462 1.287 . S
C463 C464 1.524 . S
C463 H466 0.999 . S
C464 H434 0.950 . S
C464 C463 1.524 . S
C464 C465 1.415 . S
C465 H435 0.950 . S
C465 C460 1.363 . S
C465 C464 1.415 . S
H466 C463 0.999 . S
H467 C448 0.913 . S
H468 C486 0.951 . S
H469 C488 0.951 . S
H470 C490 0.950 . S
H471 C491 0.950 1_556 S
H472 C493 0.950 . S
H473 C496 0.950 . S
H474 C497 0.950 . S
H475 C499 0.950 . S
H476 C500 0.950 . S
H477 C501 0.951 . S
H478 C503 0.951 . S
H479 C505 0.950 . S
H480 C506 0.950 1_554 S
H481 C508 0.950 . S
H482 C511 0.950 . S
H483 C512 0.950 . S
H484 C514 0.950 . S
H485 C515 0.950 . S
C486 H468 0.951 . S
C486 C487 1.366 . S
C486 C488 1.388 . S
C487 C486 1.366 . S
C487 C491 1.385 . S
C488 H469 0.951 . S
C488 C486 1.388 . S
C488 C489 1.366 . S
C489 C488 1.366 . S
C489 C490 1.414 1_554 S
C489 C492 1.499 . S
C490 H470 0.950 . S
C490 C489 1.414 1_556 S
C490 C491 1.374 1_556 S
C491 H471 0.950 1_554 S
C491 C487 1.385 . S
C491 C490 1.374 1_554 S
C492 C489 1.499 . S
C492 C493 1.373 1_554 S
C492 C494 1.389 . S
C493 H472 0.950 . S
C493 C492 1.373 1_556 S
C493 C509 1.377 . S
C494 C492 1.389 . S
C494 C495 1.524 . S
C494 C508 1.377 . S
C495 C494 1.524 . S
C495 C496 1.397 . S
C495 C500 1.363 . S
C496 H473 0.950 . S
C496 C495 1.397 . S
C496 C497 1.334 . S
C497 H474 0.950 . S
C497 C496 1.334 . S
C497 C498 1.287 . S
C498 C497 1.287 . S
C498 C499 1.524 . S
C498 H517 0.913 . S
C499 H475 0.950 . S
C499 C498 1.524 . S
C499 C500 1.415 . S
C500 H476 0.950 . S
C500 C495 1.363 . S
C500 C499 1.415 . S
C501 H477 0.951 . S
C501 C502 1.366 . S
C501 C503 1.388 . S
C502 C501 1.366 . S
C502 C506 1.385 . S
C503 H478 0.951 . S
C503 C501 1.388 . S
C503 C504 1.366 . S
C504 C503 1.366 . S
C504 C505 1.414 1_556 S
C504 C507 1.499 . S
C505 H479 0.950 . S
C505 C504 1.414 1_554 S
C505 C506 1.374 1_554 S
C506 H480 0.950 1_556 S
C506 C502 1.385 . S
C506 C505 1.374 1_556 S
C507 C504 1.499 . S
C507 C508 1.373 1_556 S
C507 C509 1.389 . S
C508 H481 0.950 . S
C508 C494 1.377 . S
C508 C507 1.373 1_554 S
C509 C493 1.377 . S
C509 C507 1.389 . S
C509 C510 1.524 . S
C510 C509 1.524 . S
C510 C511 1.397 . S
C510 C515 1.363 . S
C511 H482 0.950 . S
C511 C510 1.397 . S
C511 C512 1.334 . S
C512 H483 0.950 . S
C512 C511 1.334 . S
C512 C513 1.287 . S
C513 C512 1.287 . S
C513 C514 1.524 . S
C513 H516 0.999 . S
C514 H484 0.950 . S
C514 C513 1.524 . S
C514 C515 1.415 . S
C515 H485 0.950 . S
C515 C510 1.363 . S
C515 C514 1.415 . S
H516 C513 0.999 . S
H517 C498 0.913 . S
H518 C536 0.951 . S
H519 C538 0.951 . S
H520 C540 0.950 . S
H521 C541 0.950 . S
H522 C543 0.950 . S
H523 C546 0.950 . S
H524 C547 0.950 . S
H525 C549 0.950 . S
H526 C550 0.950 . S
H527 C551 0.951 . S
H528 C553 0.951 . S
H529 C555 0.950 . S
H530 C556 0.950 . S
H531 C558 0.950 . S
H532 C561 0.950 . S
H533 C562 0.950 . S
H534 C564 0.950 . S
H535 C565 0.950 . S
C536 H518 0.951 . S
C536 C537 1.366 . S
C536 C538 1.388 . S
C537 C536 1.366 . S
C537 C541 1.385 . S
C538 H519 0.951 . S
C538 C536 1.388 . S
C538 C539 1.366 . S
C539 C538 1.366 . S
C539 C540 1.414 . S
C539 C542 1.499 . S
C540 H520 0.950 . S
C540 C539 1.414 . S
C540 C541 1.374 . S
C541 H521 0.950 . S
C541 C537 1.385 . S
C541 C540 1.374 . S
C542 C539 1.499 . S
C542 C543 1.373 . S
C542 C544 1.389 . S
C543 H522 0.950 . S
C543 C542 1.373 . S
C543 C559 1.377 . S
C544 C542 1.389 . S
C544 C545 1.524 . S
C544 C558 1.377 . S
C545 C544 1.524 . S
C545 C546 1.397 . S
C545 C550 1.363 . S
C546 H523 0.950 . S
C546 C545 1.397 . S
C546 C547 1.334 . S
C547 H524 0.950 . S
C547 C546 1.334 . S
C547 C548 1.287 . S
C548 C547 1.287 . S
C548 C549 1.524 . S
C548 H567 0.913 . S
C549 H525 0.950 . S
C549 C548 1.524 . S
C549 C550 1.415 . S
C550 H526 0.950 . S
C550 C545 1.363 . S
C550 C549 1.415 . S
C551 H527 0.951 . S
C551 C552 1.366 . S
C551 C553 1.388 . S
C552 C551 1.366 . S
C552 C556 1.385 . S
C553 H528 0.951 . S
C553 C551 1.388 . S
C553 C554 1.366 . S
C554 C553 1.366 . S
C554 C555 1.414 . S
C554 C557 1.499 . S
C555 H529 0.950 . S
C555 C554 1.414 . S
C555 C556 1.374 . S
C556 H530 0.950 . S
C556 C552 1.385 . S
C556 C555 1.374 . S
C557 C554 1.499 . S
C557 C558 1.373 . S
C557 C559 1.389 . S
C558 H531 0.950 . S
C558 C544 1.377 . S
C558 C557 1.373 . S
C559 C543 1.377 . S
C559 C557 1.389 . S
C559 C560 1.524 . S
C560 C559 1.524 . S
C560 C561 1.397 . S
C560 C565 1.363 . S
C561 H532 0.950 . S
C561 C560 1.397 . S
C561 C562 1.334 . S
C562 H533 0.950 . S
C562 C561 1.334 . S
C562 C563 1.287 . S
C563 C562 1.287 . S
C563 C564 1.524 . S
C563 H566 0.999 . S
C564 H534 0.950 . S
C564 C563 1.524 . S
C564 C565 1.415 . S
C565 H535 0.950 . S
C565 C560 1.363 . S
C565 C564 1.415 . S
H566 C563 0.999 . S
H567 C548 0.913 . S
H568 C586 0.951 . S
H569 C588 0.951 . S
H570 C590 0.950 . S
H571 C591 0.950 . S
H572 C593 0.950 . S
H573 C596 0.950 . S
H574 C597 0.950 . S
H575 C599 0.950 . S
H576 C600 0.950 . S
H577 C601 0.951 . S
H578 C603 0.951 . S
H579 C605 0.950 . S
H580 C606 0.950 . S
H581 C608 0.950 . S
H582 C611 0.950 . S
H583 C612 0.950 . S
H584 C614 0.950 . S
H585 C615 0.950 . S
C586 H568 0.951 . S
C586 C587 1.366 . S
C586 C588 1.388 . S
C587 C586 1.366 . S
C587 C591 1.385 . S
C588 H569 0.951 . S
C588 C586 1.388 . S
C588 C589 1.366 . S
C589 C588 1.366 . S
C589 C590 1.414 . S
C589 C592 1.499 . S
C590 H570 0.950 . S
C590 C589 1.414 . S
C590 C591 1.374 . S
C591 H571 0.950 . S
C591 C587 1.385 . S
C591 C590 1.374 . S
C592 C589 1.499 . S
C592 C593 1.373 . S
C592 C594 1.389 . S
C593 H572 0.950 . S
C593 C592 1.373 . S
C593 C609 1.377 . S
C594 C592 1.389 . S
C594 C595 1.524 . S
C594 C608 1.377 . S
C595 C594 1.524 . S
C595 C596 1.397 . S
C595 C600 1.363 . S
C596 H573 0.950 . S
C596 C595 1.397 . S
C596 C597 1.334 . S
C597 H574 0.950 . S
C597 C596 1.334 . S
C597 C598 1.287 . S
C598 C597 1.287 . S
C598 C599 1.524 . S
C598 H617 0.913 . S
C599 H575 0.950 . S
C599 C598 1.524 . S
C599 C600 1.415 . S
C600 H576 0.950 . S
C600 C595 1.363 . S
C600 C599 1.415 . S
C601 H577 0.951 . S
C601 C602 1.366 . S
C601 C603 1.388 . S
C602 C601 1.366 . S
C602 C606 1.385 . S
C603 H578 0.951 . S
C603 C601 1.388 . S
C603 C604 1.366 . S
C604 C603 1.366 . S
C604 C605 1.414 . S
C604 C607 1.499 . S
C605 H579 0.950 . S
C605 C604 1.414 . S
C605 C606 1.374 . S
C606 H580 0.950 . S
C606 C602 1.385 . S
C606 C605 1.374 . S
C607 C604 1.499 . S
C607 C608 1.373 . S
C607 C609 1.389 . S
C608 H581 0.950 . S
C608 C594 1.377 . S
C608 C607 1.373 . S
C609 C593 1.377 . S
C609 C607 1.389 . S
C609 C610 1.524 . S
C610 C609 1.524 . S
C610 C611 1.397 . S
C610 C615 1.363 . S
C611 H582 0.950 . S
C611 C610 1.397 . S
C611 C612 1.334 . S
C612 H583 0.950 . S
C612 C611 1.334 . S
C612 C613 1.287 . S
C613 C612 1.287 . S
C613 C614 1.524 . S
C613 H616 0.999 . S
C614 H584 0.950 . S
C614 C613 1.524 . S
C614 C615 1.415 . S
C615 H585 0.950 . S
C615 C610 1.363 . S
C615 C614 1.415 . S
H616 C613 0.999 . S
H617 C598 0.913 . S
H618 C636 0.951 . S
H619 C638 0.951 1_556 S
H620 C640 0.950 . S
H621 C641 0.950 . S
H622 C643 0.950 . S
H623 C646 0.950 . S
H624 C647 0.950 . S
H625 C649 0.950 . S
H626 C650 0.950 . S
H627 C651 0.951 . S
H628 C653 0.951 1_554 S
H629 C655 0.950 . S
H630 C656 0.950 . S
H631 C658 0.950 . S
H632 C661 0.950 . S
H633 C662 0.950 . S
H634 C664 0.950 . S
H635 C665 0.950 . S
C636 H618 0.951 . S
C636 C637 1.366 . S
C636 C638 1.388 . S
C637 C636 1.366 . S
C637 C641 1.385 . S
C638 H619 0.951 1_554 S
C638 C636 1.388 . S
C638 C639 1.366 . S
C639 C638 1.366 . S
C639 C640 1.414 . S
C639 C642 1.499 . S
C640 H620 0.950 . S
C640 C639 1.414 . S
C640 C641 1.374 . S
C641 H621 0.950 . S
C641 C637 1.385 . S
C641 C640 1.374 . S
C642 C639 1.499 . S
C642 C643 1.373 . S
C642 C644 1.389 1_554 S
C643 H622 0.950 . S
C643 C642 1.373 . S
C643 C659 1.377 . S
C644 C642 1.389 1_556 S
C644 C645 1.524 . S
C644 C658 1.377 . S
C645 C644 1.524 . S
C645 C646 1.397 . S
C645 C650 1.363 . S
C646 H623 0.950 . S
C646 C645 1.397 . S
C646 C647 1.334 . S
C647 H624 0.950 . S
C647 C646 1.334 . S
C647 C648 1.287 . S
C648 C647 1.287 . S
C648 C649 1.524 . S
C648 H667 0.913 . S
C649 H625 0.950 . S
C649 C648 1.524 . S
C649 C650 1.415 . S
C650 H626 0.950 . S
C650 C645 1.363 . S
C650 C649 1.415 . S
C651 H627 0.951 . S
C651 C652 1.366 . S
C651 C653 1.388 . S
C652 C651 1.366 . S
C652 C656 1.385 . S
C653 H628 0.951 1_556 S
C653 C651 1.388 . S
C653 C654 1.366 . S
C654 C653 1.366 . S
C654 C655 1.414 . S
C654 C657 1.499 . S
C655 H629 0.950 . S
C655 C654 1.414 . S
C655 C656 1.374 . S
C656 H630 0.950 . S
C656 C652 1.385 . S
C656 C655 1.374 . S
C657 C654 1.499 . S
C657 C658 1.373 . S
C657 C659 1.389 1_556 S
C658 H631 0.950 . S
C658 C644 1.377 . S
C658 C657 1.373 . S
C659 C643 1.377 . S
C659 C657 1.389 1_554 S
C659 C660 1.524 . S
C660 C659 1.524 . S
C660 C661 1.397 . S
C660 C665 1.363 . S
C661 H632 0.950 . S
C661 C660 1.397 . S
C661 C662 1.334 . S
C662 H633 0.950 . S
C662 C661 1.334 . S
C662 C663 1.287 . S
C663 C662 1.287 . S
C663 C664 1.524 . S
C663 H666 0.999 . S
C664 H634 0.950 . S
C664 C663 1.524 . S
C664 C665 1.415 . S
C665 H635 0.950 . S
C665 C660 1.363 . S
C665 C664 1.415 . S
H666 C663 0.999 . S
H667 C648 0.913 . S
H668 C686 0.951 . S
H669 C688 0.951 . S
H670 C690 0.950 . S
H671 C691 0.950 . S
H672 C693 0.950 . S
H673 C696 0.950 . S
H674 C697 0.950 . S
H675 C699 0.950 . S
H676 C700 0.950 . S
H677 C701 0.951 . S
H678 C703 0.951 . S
H679 C705 0.950 . S
H680 C706 0.950 . S
H681 C708 0.950 . S
H682 C711 0.950 . S
H683 C712 0.950 . S
H684 C714 0.950 . S
H685 C715 0.950 . S
C686 H668 0.951 . S
C686 C687 1.366 . S
C686 C688 1.388 . S
C687 C686 1.366 . S
C687 C691 1.385 . S
C688 H669 0.951 . S
C688 C686 1.388 . S
C688 C689 1.366 . S
C689 C688 1.366 . S
C689 C690 1.414 . S
C689 C692 1.499 . S
C690 H670 0.950 . S
C690 C689 1.414 . S
C690 C691 1.374 . S
C691 H671 0.950 . S
C691 C687 1.385 . S
C691 C690 1.374 . S
C692 C689 1.499 . S
C692 C693 1.373 . S
C692 C694 1.389 . S
C693 H672 0.950 . S
C693 C692 1.373 . S
C693 C709 1.377 . S
C694 C692 1.389 . S
C694 C695 1.524 . S
C694 C708 1.377 . S
C695 C694 1.524 . S
C695 C696 1.397 . S
C695 C700 1.363 . S
C696 H673 0.950 . S
C696 C695 1.397 . S
C696 C697 1.334 . S
C697 H674 0.950 . S
C697 C696 1.334 . S
C697 C698 1.287 . S
C698 C697 1.287 . S
C698 C699 1.524 . S
C698 H717 0.913 . S
C699 H675 0.950 . S
C699 C698 1.524 . S
C699 C700 1.415 . S
C700 H676 0.950 . S
C700 C695 1.363 . S
C700 C699 1.415 . S
C701 H677 0.951 . S
C701 C702 1.366 . S
C701 C703 1.388 . S
C702 C701 1.366 . S
C702 C706 1.385 . S
C703 H678 0.951 . S
C703 C701 1.388 . S
C703 C704 1.366 . S
C704 C703 1.366 . S
C704 C705 1.414 . S
C704 C707 1.499 . S
C705 H679 0.950 . S
C705 C704 1.414 . S
C705 C706 1.374 . S
C706 H680 0.950 . S
C706 C702 1.385 . S
C706 C705 1.374 . S
C707 C704 1.499 . S
C707 C708 1.373 . S
C707 C709 1.389 . S
C708 H681 0.950 . S
C708 C694 1.377 . S
C708 C707 1.373 . S
C709 C693 1.377 . S
C709 C707 1.389 . S
C709 C710 1.524 . S
C710 C709 1.524 . S
C710 C711 1.397 . S
C710 C715 1.363 . S
C711 H682 0.950 . S
C711 C710 1.397 . S
C711 C712 1.334 . S
C712 H683 0.950 . S
C712 C711 1.334 . S
C712 C713 1.287 . S
C713 C712 1.287 . S
C713 C714 1.524 . S
C713 H716 0.999 . S
C714 H684 0.950 . S
C714 C713 1.524 . S
C714 C715 1.415 . S
C715 H685 0.950 . S
C715 C710 1.363 . S
C715 C714 1.415 . S
H716 C713 0.999 . S
H717 C698 0.913 . S
H718 C736 0.951 . S
H719 C738 0.951 . S
H720 C740 0.950 . S
H721 C741 0.950 . S
H722 C743 0.950 . S
H723 C746 0.950 . S
H724 C747 0.950 . S
H725 C749 0.950 . S
H726 C750 0.950 . S
H727 C751 0.951 . S
H728 C753 0.951 . S
H729 C755 0.950 . S
H730 C756 0.950 . S
H731 C758 0.950 . S
H732 C761 0.950 . S
H733 C762 0.950 . S
H734 C764 0.950 . S
H735 C765 0.950 . S
C736 H718 0.951 . S
C736 C737 1.366 . S
C736 C738 1.388 . S
C737 C736 1.366 . S
C737 C741 1.385 . S
C738 H719 0.951 . S
C738 C736 1.388 . S
C738 C739 1.366 . S
C739 C738 1.366 . S
C739 C740 1.414 . S
C739 C742 1.499 . S
C740 H720 0.950 . S
C740 C739 1.414 . S
C740 C741 1.374 . S
C741 H721 0.950 . S
C741 C737 1.385 . S
C741 C740 1.374 . S
C742 C739 1.499 . S
C742 C743 1.373 . S
C742 C744 1.389 . S
C743 H722 0.950 . S
C743 C742 1.373 . S
C743 C759 1.377 . S
C744 C742 1.389 . S
C744 C745 1.524 . S
C744 C758 1.377 . S
C745 C744 1.524 . S
C745 C746 1.397 . S
C745 C750 1.363 . S
C746 H723 0.950 . S
C746 C745 1.397 . S
C746 C747 1.334 . S
C747 H724 0.950 . S
C747 C746 1.334 . S
C747 C748 1.287 . S
C748 C747 1.287 . S
C748 C749 1.524 . S
C748 H767 0.913 . S
C749 H725 0.950 . S
C749 C748 1.524 . S
C749 C750 1.415 . S
C750 H726 0.950 . S
C750 C745 1.363 . S
C750 C749 1.415 . S
C751 H727 0.951 . S
C751 C752 1.366 . S
C751 C753 1.388 . S
C752 C751 1.366 . S
C752 C756 1.385 . S
C753 H728 0.951 . S
C753 C751 1.388 . S
C753 C754 1.366 . S
C754 C753 1.366 . S
C754 C755 1.414 . S
C754 C757 1.499 . S
C755 H729 0.950 . S
C755 C754 1.414 . S
C755 C756 1.374 . S
C756 H730 0.950 . S
C756 C752 1.385 . S
C756 C755 1.374 . S
C757 C754 1.499 . S
C757 C758 1.373 . S
C757 C759 1.389 . S
C758 H731 0.950 . S
C758 C744 1.377 . S
C758 C757 1.373 . S
C759 C743 1.377 . S
C759 C757 1.389 . S
C759 C760 1.524 . S
C760 C759 1.524 . S
C760 C761 1.397 . S
C760 C765 1.363 . S
C761 H732 0.950 . S
C761 C760 1.397 . S
C761 C762 1.334 . S
C762 H733 0.950 . S
C762 C761 1.334 . S
C762 C763 1.287 . S
C763 C762 1.287 . S
C763 C764 1.524 . S
C763 H766 0.999 . S
C764 H734 0.950 . S
C764 C763 1.524 . S
C764 C765 1.415 . S
C765 H735 0.950 . S
C765 C760 1.363 . S
C765 C764 1.415 . S
H766 C763 0.999 . S
H767 C748 0.913 . S
H768 C786 0.951 . S
H769 C788 0.951 . S
H770 C790 0.950 . S
H771 C791 0.950 . S
H772 C793 0.950 . S
H773 C796 0.950 . S
H774 C797 0.950 . S
H775 C799 0.950 . S
H776 C800 0.950 . S
H777 C801 0.951 . S
H778 C803 0.951 . S
H779 C805 0.950 . S
H780 C806 0.950 . S
H781 C808 0.950 . S
H782 C811 0.950 . S
H783 C812 0.950 . S
H784 C814 0.950 . S
H785 C815 0.950 . S
C786 H768 0.951 . S
C786 C787 1.366 . S
C786 C788 1.388 . S
C787 C786 1.366 . S
C787 C791 1.385 . S
C788 H769 0.951 . S
C788 C786 1.388 . S
C788 C789 1.366 . S
C789 C788 1.366 . S
C789 C790 1.414 . S
C789 C792 1.499 . S
C790 H770 0.950 . S
C790 C789 1.414 . S
C790 C791 1.374 . S
C791 H771 0.950 . S
C791 C787 1.385 . S
C791 C790 1.374 . S
C792 C789 1.499 . S
C792 C793 1.373 . S
C792 C794 1.389 . S
C793 H772 0.950 . S
C793 C792 1.373 . S
C793 C809 1.377 . S
C794 C792 1.389 . S
C794 C795 1.524 . S
C794 C808 1.377 . S
C795 C794 1.524 . S
C795 C796 1.397 . S
C795 C800 1.363 . S
C796 H773 0.950 . S
C796 C795 1.397 . S
C796 C797 1.334 . S
C797 H774 0.950 . S
C797 C796 1.334 . S
C797 C798 1.287 . S
C798 C797 1.287 . S
C798 C799 1.524 . S
C798 H817 0.913 . S
C799 H775 0.950 . S
C799 C798 1.524 . S
C799 C800 1.415 . S
C800 H776 0.950 . S
C800 C795 1.363 . S
C800 C799 1.415 . S
C801 H777 0.951 . S
C801 C802 1.366 . S
C801 C803 1.388 . S
C802 C801 1.366 . S
C802 C806 1.385 . S
C803 H778 0.951 . S
C803 C801 1.388 . S
C803 C804 1.366 . S
C804 C803 1.366 . S
C804 C805 1.414 . S
C804 C807 1.499 . S
C805 H779 0.950 . S
C805 C804 1.414 . S
C805 C806 1.374 . S
C806 H780 0.950 . S
C806 C802 1.385 . S
C806 C805 1.374 . S
C807 C804 1.499 . S
C807 C808 1.373 . S
C807 C809 1.389 . S
C808 H781 0.950 . S
C808 C794 1.377 . S
C808 C807 1.373 . S
C809 C793 1.377 . S
C809 C807 1.389 . S
C809 C810 1.524 . S
C810 C809 1.524 . S
C810 C811 1.397 1_554 S
C810 C815 1.363 . S
C811 H782 0.950 . S
C811 C810 1.397 1_556 S
C811 C812 1.334 . S
C812 H783 0.950 . S
C812 C811 1.334 . S
C812 C813 1.287 . S
C813 C812 1.287 . S
C813 C814 1.524 . S
C813 H816 0.999 . S
C814 H784 0.950 . S
C814 C813 1.524 . S
C814 C815 1.415 1_556 S
C815 H785 0.950 . S
C815 C810 1.363 . S
C815 C814 1.415 1_554 S
H816 C813 0.999 . S
H817 C798 0.913 . S
H818 C836 0.951 . S
H819 C838 0.951 . S
H820 C840 0.950 . S
H821 C841 0.950 . S
H822 C843 0.950 . S
H823 C846 0.950 . S
H824 C847 0.950 . S
H825 C849 0.950 . S
H826 C850 0.950 . S
H827 C851 0.951 . S
H828 C853 0.951 . S
H829 C855 0.950 . S
H830 C856 0.950 . S
H831 C858 0.950 . S
H832 C861 0.950 . S
H833 C862 0.950 . S
H834 C864 0.950 . S
H835 C865 0.950 . S
C836 H818 0.951 . S
C836 C837 1.366 . S
C836 C838 1.388 . S
C837 C836 1.366 . S
C837 C841 1.385 . S
C838 H819 0.951 . S
C838 C836 1.388 . S
C838 C839 1.366 . S
C839 C838 1.366 . S
C839 C840 1.414 . S
C839 C842 1.499 . S
C840 H820 0.950 . S
C840 C839 1.414 . S
C840 C841 1.374 . S
C841 H821 0.950 . S
C841 C837 1.385 . S
C841 C840 1.374 . S
C842 C839 1.499 . S
C842 C843 1.373 . S
C842 C844 1.389 . S
C843 H822 0.950 . S
C843 C842 1.373 . S
C843 C859 1.377 1_655 S
C844 C842 1.389 . S
C844 C845 1.524 . S
C844 C858 1.377 1_655 S
C845 C844 1.524 . S
C845 C846 1.397 . S
C845 C850 1.363 1_655 S
C846 H823 0.950 . S
C846 C845 1.397 . S
C846 C847 1.334 . S
C847 H824 0.950 . S
C847 C846 1.334 . S
C847 C848 1.287 . S
C848 C847 1.287 . S
C848 C849 1.524 1_655 S
C848 H867 0.913 . S
C849 H825 0.950 . S
C849 C848 1.524 1_455 S
C849 C850 1.415 . S
C850 H826 0.950 . S
C850 C845 1.363 1_455 S
C850 C849 1.415 . S
C851 H827 0.951 . S
C851 C852 1.366 . S
C851 C853 1.388 . S
C852 C851 1.366 . S
C852 C856 1.385 . S
C853 H828 0.951 . S
C853 C851 1.388 . S
C853 C854 1.366 . S
C854 C853 1.366 . S
C854 C855 1.414 . S
C854 C857 1.499 . S
C855 H829 0.950 . S
C855 C854 1.414 . S
C855 C856 1.374 . S
C856 H830 0.950 . S
C856 C852 1.385 . S
C856 C855 1.374 . S
C857 C854 1.499 . S
C857 C858 1.373 . S
C857 C859 1.389 . S
C858 H831 0.950 . S
C858 C844 1.377 1_455 S
C858 C857 1.373 . S
C859 C843 1.377 1_455 S
C859 C857 1.389 . S
C859 C860 1.524 . S
C860 C859 1.524 . S
C860 C861 1.397 . S
C860 C865 1.363 1_455 S
C861 H832 0.950 . S
C861 C860 1.397 . S
C861 C862 1.334 . S
C862 H833 0.950 . S
C862 C861 1.334 . S
C862 C863 1.287 . S
C863 C862 1.287 . S
C863 C864 1.524 1_455 S
C863 H866 0.999 . S
C864 H834 0.950 . S
C864 C863 1.524 1_655 S
C864 C865 1.415 . S
C865 H835 0.950 . S
C865 C860 1.363 1_655 S
C865 C864 1.415 . S
H866 C863 0.999 . S
H867 C848 0.913 . S
H868 C886 0.951 . S
H869 C888 0.951 . S
H870 C890 0.950 . S
H871 C891 0.950 . S
H872 C893 0.950 . S
H873 C896 0.950 . S
H874 C897 0.950 . S
H875 C899 0.951 1_565 S
H876 C900 0.950 1_565 S
H877 C901 0.951 . S
H878 C903 0.951 . S
H879 C905 0.950 . S
H880 C906 0.950 . S
H881 C908 0.950 . S
H882 C911 0.950 . S
H883 C912 0.950 . S
H884 C914 0.951 1_545 S
H885 C915 0.950 1_545 S
C886 H868 0.951 . S
C886 C887 1.366 . S
C886 C888 1.388 . S
C887 C886 1.366 . S
C887 C891 1.385 . S
C888 H869 0.951 . S
C888 C886 1.388 . S
C888 C889 1.366 . S
C889 C888 1.366 . S
C889 C890 1.414 . S
C889 C892 1.499 . S
C890 H870 0.950 . S
C890 C889 1.414 . S
C890 C891 1.374 . S
C891 H871 0.950 . S
C891 C887 1.385 . S
C891 C890 1.374 . S
C892 C889 1.499 . S
C892 C893 1.373 . S
C892 C894 1.389 . S
C893 H872 0.950 . S
C893 C892 1.373 . S
C893 C909 1.377 1_545 S
C894 C892 1.389 . S
C894 C895 1.524 . S
C894 C908 1.377 1_545 S
C895 C894 1.524 . S
C895 C896 1.397 . S
C895 C900 1.363 . S
C896 H873 0.950 . S
C896 C895 1.397 . S
C896 C897 1.334 . S
C897 H874 0.950 . S
C897 C896 1.334 . S
C897 C898 1.287 . S
C898 C897 1.287 . S
C898 C899 1.524 . S
C898 H917 0.913 . S
C899 H875 0.951 1_545 S
C899 C898 1.524 . S
C899 C900 1.415 . S
C900 H876 0.950 1_545 S
C900 C895 1.363 . S
C900 C899 1.415 . S
C901 H877 0.951 . S
C901 C902 1.366 . S
C901 C903 1.388 . S
C902 C901 1.366 . S
C902 C906 1.385 . S
C903 H878 0.951 . S
C903 C901 1.388 . S
C903 C904 1.366 . S
C904 C903 1.366 . S
C904 C905 1.414 . S
C904 C907 1.499 . S
C905 H879 0.950 . S
C905 C904 1.414 . S
C905 C906 1.374 . S
C906 H880 0.950 . S
C906 C902 1.385 . S
C906 C905 1.374 . S
C907 C904 1.499 . S
C907 C908 1.373 . S
C907 C909 1.389 . S
C908 H881 0.950 . S
C908 C894 1.377 1_565 S
C908 C907 1.373 . S
C909 C893 1.377 1_565 S
C909 C907 1.389 . S
C909 C910 1.524 . S
C910 C909 1.524 . S
C910 C911 1.397 . S
C910 C915 1.363 . S
C911 H882 0.950 . S
C911 C910 1.397 . S
C911 C912 1.334 . S
C912 H883 0.950 . S
C912 C911 1.334 . S
C912 C913 1.287 . S
C913 C912 1.287 . S
C913 C914 1.524 . S
C913 H916 0.999 . S
C914 H884 0.951 1_565 S
C914 C913 1.524 . S
C914 C915 1.415 . S
C915 H885 0.950 1_565 S
C915 C910 1.363 . S
C915 C914 1.415 . S
H916 C913 0.999 . S
H917 C898 0.913 . S
H918 C936 0.951 . S
H919 C938 0.951 . S
H920 C940 0.950 . S
H921 C941 0.950 . S
H922 C943 0.950 . S
H923 C946 0.950 . S
H924 C947 0.950 . S
H925 C949 0.950 . S
H926 C950 0.950 . S
H927 C951 0.951 . S
H928 C953 0.951 . S
H929 C955 0.950 . S
H930 C956 0.950 . S
H931 C958 0.950 . S
H932 C961 0.950 . S
H933 C962 0.950 . S
H934 C964 0.950 . S
H935 C965 0.950 . S
C936 H918 0.951 . S
C936 C937 1.366 . S
C936 C938 1.388 . S
C937 C936 1.366 . S
C937 C941 1.385 . S
C938 H919 0.951 . S
C938 C936 1.388 . S
C938 C939 1.366 . S
C939 C938 1.366 . S
C939 C940 1.414 . S
C939 C942 1.499 . S
C940 H920 0.950 . S
C940 C939 1.414 . S
C940 C941 1.374 . S
C941 H921 0.950 . S
C941 C937 1.385 . S
C941 C940 1.374 . S
C942 C939 1.499 . S
C942 C943 1.373 . S
C942 C944 1.389 . S
C943 H922 0.950 . S
C943 C942 1.373 . S
C943 C959 1.377 . S
C944 C942 1.389 . S
C944 C945 1.524 . S
C944 C958 1.377 . S
C945 C944 1.524 . S
C945 C946 1.397 . S
C945 C950 1.363 . S
C946 H923 0.950 . S
C946 C945 1.397 . S
C946 C947 1.334 . S
C947 H924 0.950 . S
C947 C946 1.334 . S
C947 C948 1.287 . S
C948 C947 1.287 . S
C948 C949 1.524 . S
C948 H967 0.913 . S
C949 H925 0.950 . S
C949 C948 1.524 . S
C949 C950 1.415 . S
C950 H926 0.950 . S
C950 C945 1.363 . S
C950 C949 1.415 . S
C951 H927 0.951 . S
C951 C952 1.366 . S
C951 C953 1.388 . S
C952 C951 1.366 . S
C952 C956 1.385 . S
C953 H928 0.951 . S
C953 C951 1.388 . S
C953 C954 1.366 . S
C954 C953 1.366 . S
C954 C955 1.414 . S
C954 C957 1.499 . S
C955 H929 0.950 . S
C955 C954 1.414 . S
C955 C956 1.374 . S
C956 H930 0.950 . S
C956 C952 1.385 . S
C956 C955 1.374 . S
C957 C954 1.499 . S
C957 C958 1.373 . S
C957 C959 1.389 . S
C958 H931 0.950 . S
C958 C944 1.377 . S
C958 C957 1.373 . S
C959 C943 1.377 . S
C959 C957 1.389 . S
C959 C960 1.524 . S
C960 C959 1.524 . S
C960 C961 1.397 . S
C960 C965 1.363 . S
C961 H932 0.950 . S
C961 C960 1.397 . S
C961 C962 1.334 . S
C962 H933 0.950 . S
C962 C961 1.334 . S
C962 C963 1.287 . S
C963 C962 1.287 . S
C963 C964 1.524 . S
C963 H966 0.999 . S
C964 H934 0.950 . S
C964 C963 1.524 . S
C964 C965 1.415 . S
C965 H935 0.950 . S
C965 C960 1.363 . S
C965 C964 1.415 . S
H966 C963 0.999 . S
H967 C948 0.913 . S
H968 C986 0.951 . S
H969 C988 0.951 . S
H970 C990 0.950 . S
H971 C991 0.950 . S
H972 C993 0.950 . S
H973 C996 0.950 . S
H974 C997 0.950 . S
H975 C999 0.950 . S
H976 C1000 0.950 . S
H977 C1001 0.951 . S
H978 C1003 0.951 . S
H979 C1005 0.950 . S
H980 C1006 0.950 . S
H981 C1008 0.950 . S
H982 C1011 0.956 . S
H983 C1012 0.950 . S
H984 C1014 0.950 . S
H985 C1015 0.950 . S
C986 H968 0.951 . S
C986 C987 1.366 . S
C986 C988 1.388 . S
C987 C986 1.366 . S
C987 C991 1.385 . S
C988 H969 0.951 . S
C988 C986 1.388 . S
C988 C989 1.366 . S
C989 C988 1.366 . S
C989 C990 1.414 . S
C989 C992 1.499 . S
C990 H970 0.950 . S
C990 C989 1.414 . S
C990 C991 1.374 . S
C991 H971 0.950 . S
C991 C987 1.385 . S
C991 C990 1.374 . S
C992 C989 1.499 . S
C992 C993 1.373 . S
C992 C994 1.389 . S
C993 H972 0.950 . S
C993 C992 1.373 . S
C993 C1009 1.377 1_455 S
C994 C992 1.389 . S
C994 C995 1.524 . S
C994 C1008 1.377 1_455 S
C995 C994 1.524 . S
C995 C996 1.397 . S
C995 C1000 1.363 . S
C996 H973 0.950 . S
C996 C995 1.397 . S
C996 C997 1.334 . S
C997 H974 0.950 . S
C997 C996 1.334 . S
C997 C998 1.287 . S
C998 C997 1.287 . S
C998 C999 1.524 . S
C998 H1017 0.913 . S
C999 H975 0.950 . S
C999 C998 1.524 . S
C999 C1000 1.415 . S
C1000 H976 0.950 . S
C1000 C995 1.363 . S
C1000 C999 1.415 . S
C1001 H977 0.951 . S
C1001 C1002 1.366 . S
C1001 C1003 1.388 . S
C1002 C1001 1.366 . S
C1002 C1006 1.385 . S
C1003 H978 0.951 . S
C1003 C1001 1.388 . S
C1003 C1004 1.366 . S
C1004 C1003 1.366 . S
C1004 C1005 1.414 . S
C1004 C1007 1.499 . S
C1005 H979 0.950 . S
C1005 C1004 1.414 . S
C1005 C1006 1.374 . S
C1006 H980 0.950 . S
C1006 C1002 1.385 . S
C1006 C1005 1.374 . S
C1007 C1004 1.499 . S
C1007 C1008 1.373 . S
C1007 C1009 1.389 . S
C1008 H981 0.950 . S
C1008 C994 1.377 1_655 S
C1008 C1007 1.373 . S
C1009 C993 1.377 1_655 S
C1009 C1007 1.389 . S
C1009 C1010 1.524 . S
C1010 C1009 1.524 . S
C1010 C1011 1.380 1_556 S
C1010 C1015 1.363 . S
C1011 H982 0.956 . S
C1011 C1010 1.380 1_554 S
C1011 C1012 1.344 . S
C1012 H983 0.950 . S
C1012 C1011 1.344 . S
C1012 C1013 1.287 . S
C1013 C1012 1.287 . S
C1013 C1014 1.524 1_554 S
C1013 H1016 0.999 . S
C1014 H984 0.950 . S
C1014 C1013 1.524 1_556 S
C1014 C1015 1.415 . S
C1015 H985 0.950 . S
C1015 C1010 1.363 . S
C1015 C1014 1.415 . S
H1016 C1013 0.999 . S
H1017 C998 0.913 . S
H1018 C1036 0.951 . S
H1019 C1038 0.951 . S
H1020 C1040 0.950 . S
H1021 C1041 0.950 . S
H1022 C1043 0.950 . S
H1023 C1046 0.950 . S
H1024 C1047 0.950 . S
H1025 C1049 0.950 . S
H1026 C1050 0.950 1_545 S
H1027 C1051 0.951 . S
H1028 C1053 0.951 . S
H1029 C1055 0.950 . S
H1030 C1056 0.950 . S
H1031 C1058 0.950 . S
H1032 C1061 0.950 . S
H1033 C1062 0.950 . S
H1034 C1064 0.950 . S
H1035 C1065 0.950 1_565 S
C1036 H1018 0.951 . S
C1036 C1037 1.366 . S
C1036 C1038 1.388 . S
C1037 C1036 1.366 . S
C1037 C1041 1.385 . S
C1038 H1019 0.951 . S
C1038 C1036 1.388 . S
C1038 C1039 1.366 . S
C1039 C1038 1.366 . S
C1039 C1040 1.414 . S
C1039 C1042 1.499 . S
C1040 H1020 0.950 . S
C1040 C1039 1.414 . S
C1040 C1041 1.374 . S
C1041 H1021 0.950 . S
C1041 C1037 1.385 . S
C1041 C1040 1.374 . S
C1042 C1039 1.499 . S
C1042 C1043 1.373 . S
C1042 C1044 1.389 . S
C1043 H1022 0.950 . S
C1043 C1042 1.373 . S
C1043 C1059 1.377 1_565 S
C1044 C1042 1.389 . S
C1044 C1045 1.524 . S
C1044 C1058 1.377 1_565 S
C1045 C1044 1.524 . S
C1045 C1046 1.397 . S
C1045 C1050 1.363 . S
C1046 H1023 0.950 . S
C1046 C1045 1.397 . S
C1046 C1047 1.334 . S
C1047 H1024 0.950 . S
C1047 C1046 1.334 . S
C1047 C1048 1.287 . S
C1048 C1047 1.287 . S
C1048 C1049 1.524 . S
C1048 H1067 0.913 . S
C1049 H1025 0.950 . S
C1049 C1048 1.524 . S
C1049 C1050 1.415 . S
C1050 H1026 0.950 1_565 S
C1050 C1045 1.363 . S
C1050 C1049 1.415 . S
C1051 H1027 0.951 . S
C1051 C1052 1.366 . S
C1051 C1053 1.388 . S
C1052 C1051 1.366 . S
C1052 C1056 1.385 . S
C1053 H1028 0.951 . S
C1053 C1051 1.388 . S
C1053 C1054 1.366 . S
C1054 C1053 1.366 . S
C1054 C1055 1.414 . S
C1054 C1057 1.499 . S
C1055 H1029 0.950 . S
C1055 C1054 1.414 . S
C1055 C1056 1.374 . S
C1056 H1030 0.950 . S
C1056 C1052 1.385 . S
C1056 C1055 1.374 . S
C1057 C1054 1.499 . S
C1057 C1058 1.373 . S
C1057 C1059 1.389 . S
C1058 H1031 0.950 . S
C1058 C1044 1.377 1_545 S
C1058 C1057 1.373 . S
C1059 C1043 1.377 1_545 S
C1059 C1057 1.389 . S
C1059 C1060 1.524 . S
C1060 C1059 1.524 . S
C1060 C1061 1.397 . S
C1060 C1065 1.363 . S
C1061 H1032 0.950 . S
C1061 C1060 1.397 . S
C1061 C1062 1.334 . S
C1062 H1033 0.950 . S
C1062 C1061 1.334 . S
C1062 C1063 1.287 . S
C1063 C1062 1.287 . S
C1063 C1064 1.524 . S
C1063 H1066 0.999 . S
C1064 H1034 0.950 . S
C1064 C1063 1.524 . S
C1064 C1065 1.415 . S
C1065 H1035 0.950 1_545 S
C1065 C1060 1.363 . S
C1065 C1064 1.415 . S
H1066 C1063 0.999 . S
H1067 C1048 0.913 . S
H1068 C1086 0.951 . S
H1069 C1088 0.951 . S
H1070 C1090 0.950 . S
H1071 C1091 0.950 . S
H1072 C1093 0.950 . S
H1073 C1096 0.950 . S
H1074 C1097 0.950 . S
H1075 C1099 0.950 . S
H1076 C1100 0.950 . S
H1077 C1101 0.951 . S
H1078 C1103 0.951 . S
H1079 C1105 0.950 . S
H1080 C1106 0.950 . S
H1081 C1108 0.950 . S
H1082 C1111 0.950 . S
H1083 C1112 0.950 . S
H1084 C1114 0.950 . S
H1085 C1115 0.950 . S
C1086 H1068 0.951 . S
C1086 C1087 1.366 . S
C1086 C1088 1.388 . S
C1087 C1086 1.366 . S
C1087 C1091 1.385 . S
C1088 H1069 0.951 . S
C1088 C1086 1.388 . S
C1088 C1089 1.366 . S
C1089 C1088 1.366 . S
C1089 C1090 1.414 . S
C1089 C1092 1.499 . S
C1090 H1070 0.950 . S
C1090 C1089 1.414 . S
C1090 C1091 1.374 . S
C1091 H1071 0.950 . S
C1091 C1087 1.385 . S
C1091 C1090 1.374 . S
C1092 C1089 1.499 . S
C1092 C1093 1.373 . S
C1092 C1094 1.389 . S
C1093 H1072 0.950 . S
C1093 C1092 1.373 . S
C1093 C1109 1.377 . S
C1094 C1092 1.389 . S
C1094 C1095 1.524 . S
C1094 C1108 1.377 . S
C1095 C1094 1.524 . S
C1095 C1096 1.397 . S
C1095 C1100 1.363 . S
C1096 H1073 0.950 . S
C1096 C1095 1.397 . S
C1096 C1097 1.334 . S
C1097 H1074 0.950 . S
C1097 C1096 1.334 . S
C1097 C1098 1.287 . S
C1098 C1097 1.287 . S
C1098 C1099 1.524 . S
C1098 H1117 0.913 . S
C1099 H1075 0.950 . S
C1099 C1098 1.524 . S
C1099 C1100 1.415 . S
C1100 H1076 0.950 . S
C1100 C1095 1.363 . S
C1100 C1099 1.415 . S
C1101 H1077 0.951 . S
C1101 C1102 1.366 . S
C1101 C1103 1.388 . S
C1102 C1101 1.366 . S
C1102 C1106 1.385 . S
C1103 H1078 0.951 . S
C1103 C1101 1.388 . S
C1103 C1104 1.366 . S
C1104 C1103 1.366 . S
C1104 C1105 1.414 . S
C1104 C1107 1.499 . S
C1105 H1079 0.950 . S
C1105 C1104 1.414 . S
C1105 C1106 1.374 . S
C1106 H1080 0.950 . S
C1106 C1102 1.385 . S
C1106 C1105 1.374 . S
C1107 C1104 1.499 . S
C1107 C1108 1.373 . S
C1107 C1109 1.389 . S
C1108 H1081 0.950 . S
C1108 C1094 1.377 . S
C1108 C1107 1.373 . S
C1109 C1093 1.377 . S
C1109 C1107 1.389 . S
C1109 C1110 1.524 . S
C1110 C1109 1.524 . S
C1110 C1111 1.397 . S
C1110 C1115 1.363 . S
C1111 H1082 0.950 . S
C1111 C1110 1.397 . S
C1111 C1112 1.334 . S
C1112 H1083 0.950 . S
C1112 C1111 1.334 . S
C1112 C1113 1.287 . S
C1113 C1112 1.287 . S
C1113 C1114 1.524 . S
C1113 H1116 0.999 . S
C1114 H1084 0.950 . S
C1114 C1113 1.524 . S
C1114 C1115 1.415 . S
C1115 H1085 0.950 . S
C1115 C1110 1.363 . S
C1115 C1114 1.415 . S
H1116 C1113 0.999 . S
H1117 C1098 0.913 . S
H1118 C1136 0.951 . S
H1119 C1138 0.951 . S
H1120 C1140 0.950 . S
H1121 C1141 0.950 . S
H1122 C1143 0.950 . S
H1123 C1146 0.950 . S
H1124 C1147 0.950 . S
H1125 C1149 0.950 . S
H1126 C1150 0.950 . S
H1127 C1151 0.951 . S
H1128 C1153 0.951 . S
H1129 C1155 0.950 . S
H1130 C1156 0.950 . S
H1131 C1158 0.950 . S
H1132 C1161 0.950 . S
H1133 C1162 0.950 . S
H1134 C1164 0.950 . S
H1135 C1165 0.950 . S
C1136 H1118 0.951 . S
C1136 C1137 1.366 . S
C1136 C1138 1.388 . S
C1137 C1136 1.366 . S
C1137 C1141 1.385 . S
C1138 H1119 0.951 . S
C1138 C1136 1.388 . S
C1138 C1139 1.366 . S
C1139 C1138 1.366 . S
C1139 C1140 1.414 . S
C1139 C1142 1.499 . S
C1140 H1120 0.950 . S
C1140 C1139 1.414 . S
C1140 C1141 1.374 . S
C1141 H1121 0.950 . S
C1141 C1137 1.385 . S
C1141 C1140 1.374 . S
C1142 C1139 1.499 . S
C1142 C1143 1.373 . S
C1142 C1144 1.389 . S
C1143 H1122 0.950 . S
C1143 C1142 1.373 . S
C1143 C1159 1.377 . S
C1144 C1142 1.389 . S
C1144 C1145 1.524 . S
C1144 C1158 1.377 . S
C1145 C1144 1.524 . S
C1145 C1146 1.397 . S
C1145 C1150 1.363 . S
C1146 H1123 0.950 . S
C1146 C1145 1.397 . S
C1146 C1147 1.334 . S
C1147 H1124 0.950 . S
C1147 C1146 1.334 . S
C1147 C1148 1.287 . S
C1148 C1147 1.287 . S
C1148 C1149 1.524 . S
C1148 H1167 0.913 . S
C1149 H1125 0.950 . S
C1149 C1148 1.524 . S
C1149 C1150 1.415 . S
C1150 H1126 0.950 . S
C1150 C1145 1.363 . S
C1150 C1149 1.415 . S
C1151 H1127 0.951 . S
C1151 C1152 1.366 . S
C1151 C1153 1.388 . S
C1152 C1151 1.366 . S
C1152 C1156 1.385 . S
C1153 H1128 0.951 . S
C1153 C1151 1.388 . S
C1153 C1154 1.366 . S
C1154 C1153 1.366 . S
C1154 C1155 1.414 . S
C1154 C1157 1.499 . S
C1155 H1129 0.950 . S
C1155 C1154 1.414 . S
C1155 C1156 1.374 . S
C1156 H1130 0.950 . S
C1156 C1152 1.385 . S
C1156 C1155 1.374 . S
C1157 C1154 1.499 . S
C1157 C1158 1.373 . S
C1157 C1159 1.389 . S
C1158 H1131 0.950 . S
C1158 C1144 1.377 . S
C1158 C1157 1.373 . S
C1159 C1143 1.377 . S
C1159 C1157 1.389 . S
C1159 C1160 1.524 . S
C1160 C1159 1.524 . S
C1160 C1161 1.397 . S
C1160 C1165 1.363 . S
C1161 H1132 0.950 . S
C1161 C1160 1.397 . S
C1161 C1162 1.334 . S
C1162 H1133 0.950 . S
C1162 C1161 1.334 . S
C1162 C1163 1.287 . S
C1163 C1162 1.287 . S
C1163 C1164 1.524 . S
C1163 H1166 0.999 . S
C1164 H1134 0.950 . S
C1164 C1163 1.524 . S
C1164 C1165 1.415 . S
C1165 H1135 0.950 . S
C1165 C1160 1.363 . S
C1165 C1164 1.415 . S
H1166 C1163 0.999 . S
H1167 C1148 0.913 . S
H1168 C1186 0.951 . S
H1169 C1188 0.951 . S
H1170 C1190 0.950 . S
H1171 C1191 0.950 . S
H1172 C1193 0.950 . S
H1173 C1196 0.950 . S
H1174 C1197 0.950 . S
H1175 C1199 0.950 . S
H1176 C1200 0.950 . S
H1177 C1201 0.951 . S
H1178 C1203 0.951 . S
H1179 C1205 0.950 . S
H1180 C1206 0.950 . S
H1181 C1208 0.950 . S
H1182 C1211 0.950 . S
H1183 C1212 0.950 . S
H1184 C1214 0.950 . S
H1185 C1215 0.950 . S
C1186 H1168 0.951 . S
C1186 C1187 1.366 . S
C1186 C1188 1.388 . S
C1187 C1186 1.366 . S
C1187 C1191 1.385 . S
C1188 H1169 0.951 . S
C1188 C1186 1.388 . S
C1188 C1189 1.366 . S
C1189 C1188 1.366 . S
C1189 C1190 1.414 . S
C1189 C1192 1.499 . S
C1190 H1170 0.950 . S
C1190 C1189 1.414 . S
C1190 C1191 1.374 . S
C1191 H1171 0.950 . S
C1191 C1187 1.385 . S
C1191 C1190 1.374 . S
C1192 C1189 1.499 . S
C1192 C1193 1.373 . S
C1192 C1194 1.389 . S
C1193 H1172 0.950 . S
C1193 C1192 1.373 . S
C1193 C1209 1.377 . S
C1194 C1192 1.389 . S
C1194 C1195 1.524 . S
C1194 C1208 1.377 . S
C1195 C1194 1.524 . S
C1195 C1196 1.397 . S
C1195 C1200 1.363 . S
C1196 H1173 0.950 . S
C1196 C1195 1.397 . S
C1196 C1197 1.334 . S
C1197 H1174 0.950 . S
C1197 C1196 1.334 . S
C1197 C1198 1.287 . S
C1198 C1197 1.287 . S
C1198 C1199 1.524 . S
C1198 H1217 0.913 . S
C1199 H1175 0.950 . S
C1199 C1198 1.524 . S
C1199 C1200 1.415 . S
C1200 H1176 0.950 . S
C1200 C1195 1.363 . S
C1200 C1199 1.415 . S
C1201 H1177 0.951 . S
C1201 C1202 1.366 . S
C1201 C1203 1.388 . S
C1202 C1201 1.366 . S
C1202 C1206 1.385 . S
C1203 H1178 0.951 . S
C1203 C1201 1.388 . S
C1203 C1204 1.366 . S
C1204 C1203 1.366 . S
C1204 C1205 1.414 . S
C1204 C1207 1.499 . S
C1205 H1179 0.950 . S
C1205 C1204 1.414 . S
C1205 C1206 1.374 . S
C1206 H1180 0.950 . S
C1206 C1202 1.385 . S
C1206 C1205 1.374 . S
C1207 C1204 1.499 . S
C1207 C1208 1.373 . S
C1207 C1209 1.389 . S
C1208 H1181 0.950 . S
C1208 C1194 1.377 . S
C1208 C1207 1.373 . S
C1209 C1193 1.377 . S
C1209 C1207 1.389 . S
C1209 C1210 1.524 . S
C1210 C1209 1.524 . S
C1210 C1211 1.397 . S
C1210 C1215 1.363 . S
C1211 H1182 0.950 . S
C1211 C1210 1.397 . S
C1211 C1212 1.334 . S
C1212 H1183 0.950 . S
C1212 C1211 1.334 . S
C1212 C1213 1.287 . S
C1213 C1212 1.287 . S
C1213 C1214 1.524 . S
C1213 H1216 0.999 . S
C1214 H1184 0.950 . S
C1214 C1213 1.524 . S
C1214 C1215 1.415 . S
C1215 H1185 0.950 . S
C1215 C1210 1.363 . S
C1215 C1214 1.415 . S
H1216 C1213 0.999 . S
H1217 C1198 0.913 . S
H1218 C1236 0.951 . S
H1219 C1238 0.951 . S
H1220 C1240 0.950 . S
H1221 C1241 0.950 . S
H1222 C1243 0.950 . S
H1223 C1246 0.950 . S
H1224 C1247 0.950 . S
H1225 C1249 0.950 . S
H1226 C1250 0.950 . S
H1227 C1251 0.951 . S
H1228 C1253 0.951 . S
H1229 C1255 0.950 . S
H1230 C1256 0.950 . S
H1231 C1258 0.950 . S
H1232 C1261 0.950 . S
H1233 C1262 0.950 . S
H1234 C1264 0.950 . S
H1235 C1265 0.950 . S
C1236 H1218 0.951 . S
C1236 C1237 1.366 . S
C1236 C1238 1.388 . S
C1237 C1236 1.366 . S
C1237 C1241 1.385 . S
C1238 H1219 0.951 . S
C1238 C1236 1.388 . S
C1238 C1239 1.366 . S
C1239 C1238 1.366 . S
C1239 C1240 1.414 . S
C1239 C1242 1.499 . S
C1240 H1220 0.950 . S
C1240 C1239 1.414 . S
C1240 C1241 1.374 . S
C1241 H1221 0.950 . S
C1241 C1237 1.385 . S
C1241 C1240 1.374 . S
C1242 C1239 1.499 . S
C1242 C1243 1.373 . S
C1242 C1244 1.389 . S
C1243 H1222 0.950 . S
C1243 C1242 1.373 . S
C1243 C1259 1.377 . S
C1244 C1242 1.389 . S
C1244 C1245 1.524 . S
C1244 C1258 1.377 . S
C1245 C1244 1.524 . S
C1245 C1246 1.397 . S
C1245 C1250 1.363 . S
C1246 H1223 0.950 . S
C1246 C1245 1.397 . S
C1246 C1247 1.334 . S
C1247 H1224 0.950 . S
C1247 C1246 1.334 . S
C1247 C1248 1.287 . S
C1248 C1247 1.287 . S
C1248 C1249 1.524 . S
C1248 H1267 0.913 . S
C1249 H1225 0.950 . S
C1249 C1248 1.524 . S
C1249 C1250 1.415 . S
C1250 H1226 0.950 . S
C1250 C1245 1.363 . S
C1250 C1249 1.415 . S
C1251 H1227 0.951 . S
C1251 C1252 1.366 . S
C1251 C1253 1.388 . S
C1252 C1251 1.366 . S
C1252 C1256 1.385 . S
C1253 H1228 0.951 . S
C1253 C1251 1.388 . S
C1253 C1254 1.366 . S
C1254 C1253 1.366 . S
C1254 C1255 1.414 . S
C1254 C1257 1.499 . S
C1255 H1229 0.950 . S
C1255 C1254 1.414 . S
C1255 C1256 1.374 . S
C1256 H1230 0.950 . S
C1256 C1252 1.385 . S
C1256 C1255 1.374 . S
C1257 C1254 1.499 . S
C1257 C1258 1.373 . S
C1257 C1259 1.389 . S
C1258 H1231 0.950 . S
C1258 C1244 1.377 . S
C1258 C1257 1.373 . S
C1259 C1243 1.377 . S
C1259 C1257 1.389 . S
C1259 C1260 1.524 . S
C1260 C1259 1.524 . S
C1260 C1261 1.397 . S
C1260 C1265 1.363 . S
C1261 H1232 0.950 . S
C1261 C1260 1.397 . S
C1261 C1262 1.334 . S
C1262 H1233 0.950 . S
C1262 C1261 1.334 . S
C1262 C1263 1.287 . S
C1263 C1262 1.287 . S
C1263 C1264 1.524 . S
C1263 H1266 0.999 . S
C1264 H1234 0.950 . S
C1264 C1263 1.524 . S
C1264 C1265 1.415 . S
C1265 H1235 0.950 . S
C1265 C1260 1.363 . S
C1265 C1264 1.415 . S
H1266 C1263 0.999 . S
H1267 C1248 0.913 . S
H1268 C1286 0.951 . S
H1269 C1288 0.951 . S
H1270 C1290 0.950 . S
H1271 C1291 0.950 . S
H1272 C1293 0.950 . S
H1273 C1296 0.950 . S
H1274 C1297 0.950 . S
H1275 C1299 0.950 . S
H1276 C1300 0.950 . S
H1277 C1301 0.951 . S
H1278 C1303 0.951 . S
H1279 C1305 0.950 . S
H1280 C1306 0.950 . S
H1281 C1308 0.950 . S
H1282 C1311 0.950 . S
H1283 C1312 0.950 . S
H1284 C1314 0.950 . S
H1285 C1315 0.950 . S
C1286 H1268 0.951 . S
C1286 C1287 1.366 . S
C1286 C1288 1.388 . S
C1287 C1286 1.366 . S
C1287 C1291 1.385 . S
C1288 H1269 0.951 . S
C1288 C1286 1.388 . S
C1288 C1289 1.366 . S
C1289 C1288 1.366 . S
C1289 C1290 1.414 . S
C1289 C1292 1.499 . S
C1290 H1270 0.950 . S
C1290 C1289 1.414 . S
C1290 C1291 1.374 . S
C1291 H1271 0.950 . S
C1291 C1287 1.385 . S
C1291 C1290 1.374 . S
C1292 C1289 1.499 . S
C1292 C1293 1.373 . S
C1292 C1294 1.389 . S
C1293 H1272 0.950 . S
C1293 C1292 1.373 . S
C1293 C1309 1.377 . S
C1294 C1292 1.389 . S
C1294 C1295 1.524 . S
C1294 C1308 1.377 . S
C1295 C1294 1.524 . S
C1295 C1296 1.397 . S
C1295 C1300 1.363 . S
C1296 H1273 0.950 . S
C1296 C1295 1.397 . S
C1296 C1297 1.334 . S
C1297 H1274 0.950 . S
C1297 C1296 1.334 . S
C1297 C1298 1.287 . S
C1298 C1297 1.287 . S
C1298 C1299 1.524 . S
C1298 H1317 0.913 . S
C1299 H1275 0.950 . S
C1299 C1298 1.524 . S
C1299 C1300 1.415 . S
C1300 H1276 0.950 . S
C1300 C1295 1.363 . S
C1300 C1299 1.415 . S
C1301 H1277 0.951 . S
C1301 C1302 1.366 . S
C1301 C1303 1.388 . S
C1302 C1301 1.366 . S
C1302 C1306 1.385 . S
C1303 H1278 0.951 . S
C1303 C1301 1.388 . S
C1303 C1304 1.366 . S
C1304 C1303 1.366 . S
C1304 C1305 1.414 . S
C1304 C1307 1.499 . S
C1305 H1279 0.950 . S
C1305 C1304 1.414 . S
C1305 C1306 1.374 . S
C1306 H1280 0.950 . S
C1306 C1302 1.385 . S
C1306 C1305 1.374 . S
C1307 C1304 1.499 . S
C1307 C1308 1.373 . S
C1307 C1309 1.389 . S
C1308 H1281 0.950 . S
C1308 C1294 1.377 . S
C1308 C1307 1.373 . S
C1309 C1293 1.377 . S
C1309 C1307 1.389 . S
C1309 C1310 1.524 . S
C1310 C1309 1.524 . S
C1310 C1311 1.397 . S
C1310 C1315 1.363 . S
C1311 H1282 0.950 . S
C1311 C1310 1.397 . S
C1311 C1312 1.334 . S
C1312 H1283 0.950 . S
C1312 C1311 1.334 . S
C1312 C1313 1.287 . S
C1313 C1312 1.287 . S
C1313 C1314 1.524 . S
C1313 H1316 0.999 . S
C1314 H1284 0.950 . S
C1314 C1313 1.524 . S
C1314 C1315 1.415 . S
C1315 H1285 0.950 . S
C1315 C1310 1.363 . S
C1315 C1314 1.415 . S
H1316 C1313 0.999 . S
H1317 C1298 0.913 . S
H1318 C1336 0.951 . S
H1319 C1338 0.951 . S
H1320 C1340 0.950 . S
H1321 C1341 0.950 . S
H1322 C1343 0.950 . S
H1323 C1346 0.950 . S
H1324 C1347 0.950 . S
H1325 C1349 0.950 . S
H1326 C1350 0.950 . S
H1327 C1351 0.951 . S
H1328 C1353 0.951 . S
H1329 C1355 0.950 . S
H1330 C1356 0.950 . S
H1331 C1358 0.950 . S
H1332 C1361 0.950 . S
H1333 C1362 0.950 . S
H1334 C1364 0.950 . S
H1335 C1365 0.950 . S
C1336 H1318 0.951 . S
C1336 C1337 1.366 . S
C1336 C1338 1.388 . S
C1337 C1336 1.366 . S
C1337 C1341 1.385 . S
C1338 H1319 0.951 . S
C1338 C1336 1.388 . S
C1338 C1339 1.366 . S
C1339 C1338 1.366 . S
C1339 C1340 1.414 . S
C1339 C1342 1.499 . S
C1340 H1320 0.950 . S
C1340 C1339 1.414 . S
C1340 C1341 1.374 . S
C1341 H1321 0.950 . S
C1341 C1337 1.385 . S
C1341 C1340 1.374 . S
C1342 C1339 1.499 . S
C1342 C1343 1.373 . S
C1342 C1344 1.389 . S
C1343 H1322 0.950 . S
C1343 C1342 1.373 . S
C1343 C1359 1.377 . S
C1344 C1342 1.389 . S
C1344 C1345 1.524 . S
C1344 C1358 1.377 . S
C1345 C1344 1.524 . S
C1345 C1346 1.397 . S
C1345 C1350 1.363 . S
C1346 H1323 0.950 . S
C1346 C1345 1.397 . S
C1346 C1347 1.334 . S
C1347 H1324 0.950 . S
C1347 C1346 1.334 . S
C1347 C1348 1.287 . S
C1348 C1347 1.287 . S
C1348 C1349 1.524 . S
C1348 H1367 0.913 . S
C1349 H1325 0.950 . S
C1349 C1348 1.524 . S
C1349 C1350 1.415 . S
C1350 H1326 0.950 . S
C1350 C1345 1.363 . S
C1350 C1349 1.415 . S
C1351 H1327 0.951 . S
C1351 C1352 1.366 . S
C1351 C1353 1.388 . S
C1352 C1351 1.366 . S
C1352 C1356 1.385 . S
C1353 H1328 0.951 . S
C1353 C1351 1.388 . S
C1353 C1354 1.366 . S
C1354 C1353 1.366 . S
C1354 C1355 1.414 . S
C1354 C1357 1.499 . S
C1355 H1329 0.950 . S
C1355 C1354 1.414 . S
C1355 C1356 1.374 . S
C1356 H1330 0.950 . S
C1356 C1352 1.385 . S
C1356 C1355 1.374 . S
C1357 C1354 1.499 . S
C1357 C1358 1.373 . S
C1357 C1359 1.389 . S
C1358 H1331 0.950 . S
C1358 C1344 1.377 . S
C1358 C1357 1.373 . S
C1359 C1343 1.377 . S
C1359 C1357 1.389 . S
C1359 C1360 1.524 . S
C1360 C1359 1.524 . S
C1360 C1361 1.397 . S
C1360 C1365 1.363 . S
C1361 H1332 0.950 . S
C1361 C1360 1.397 . S
C1361 C1362 1.334 . S
C1362 H1333 0.950 . S
C1362 C1361 1.334 . S
C1362 C1363 1.287 . S
C1363 C1362 1.287 . S
C1363 C1364 1.524 . S
C1363 H1366 0.999 . S
C1364 H1334 0.950 . S
C1364 C1363 1.524 . S
C1364 C1365 1.415 . S
C1365 H1335 0.950 . S
C1365 C1360 1.363 . S
C1365 C1364 1.415 . S
H1366 C1363 0.999 . S
H1367 C1348 0.913 . S
C187 C3 1.492 . S
C202 C87 1.499 . S
C237 C17 1.499 . S
C252 C101 1.492 . S
C287 C31 1.417 . S
C302 C115 1.417 . S
C337 C45 1.493 . S
C352 C129 1.499 . S
C387 C59 1.498 . S
C402 C143 1.492 . S
C437 C157 1.416 . S
C452 C73 1.416 . S
C487 C8 1.557 . S
C502 C148 1.557 . S
C537 C22 1.407 . S
C552 C162 1.474 . S
C587 C36 1.475 . S
C602 C92 1.408 . S
C637 C50 1.558 . S
C652 C106 1.558 . S
C687 C64 1.407 . S
C702 C120 1.474 . S
C737 C78 1.475 . S
C752 C134 1.408 . S
C787 C9 1.125 . S
C802 C51 1.125 . S
C837 C23 1.833 . S
C852 C65 1.833 . S
C887 C79 1.315 . S
C902 C37 1.315 . S
C937 C93 1.834 . S
C952 C135 1.834 . S
C987 C149 1.125 . S
C1002 C107 1.125 . S
C1037 C121 1.314 . S
C1052 C163 1.314 . S
C1087 C91 0.459 . S
C1102 C7 0.484 . S
C1137 C21 0.460 . S
C1152 C105 0.482 . S
C1187 C35 0.438 . S
C1202 C119 0.440 . S
C1237 C133 0.459 . S
C1252 C49 0.485 . S
C1287 C147 0.485 . S
C1302 C63 0.458 . S
C1337 C77 0.439 . S
C1352 C161 0.438 . S
