# Generated by pormake.
# Topology umk, (4)-cn, num edge types: 1
# Building blocks:
#     Node 0, Type 0, BuildingBlock: TATPOV_clean_sbu_0, # of connection points: 4
#     Node 1, Type 0, BuildingBlock: TATPOV_clean_sbu_0, # of connection points: 4
#     Node 2, Type 0, BuildingBlock: TATPOV_clean_sbu_0, # of connection points: 4
#     Node 3, Type 0, BuildingBlock: TATPOV_clean_sbu_0, # of connection points: 4
#     Node 4, Type 0, BuildingBlock: TATPOV_clean_sbu_0, # of connection points: 4
#     Node 5, Type 0, BuildingBlock: TATPOV_clean_sbu_0, # of connection points: 4
#     Node 6, Type 0, BuildingBlock: TATPOV_clean_sbu_0, # of connection points: 4
#     Node 7, Type 0, BuildingBlock: TATPOV_clean_sbu_0, # of connection points: 4
#     Node 8, Type 0, BuildingBlock: TATPOV_clean_sbu_0, # of connection points: 4
#     Node 9, Type 0, BuildingBlock: TATPOV_clean_sbu_0, # of connection points: 4
#     Node 10, Type 0, BuildingBlock: TATPOV_clean_sbu_0, # of connection points: 4
#     Node 11, Type 0, BuildingBlock: TATPOV_clean_sbu_0, # of connection points: 4
#     Node 12, Type 0, BuildingBlock: TATPOV_clean_sbu_0, # of connection points: 4
#     Node 13, Type 0, BuildingBlock: TATPOV_clean_sbu_0, # of connection points: 4
#     Node 14, Type 0, BuildingBlock: TATPOV_clean_sbu_0, # of connection points: 4
#     Node 15, Type 0, BuildingBlock: TATPOV_clean_sbu_0, # of connection points: 4
#     Node 16, Type 0, BuildingBlock: TATPOV_clean_sbu_0, # of connection points: 4
#     Node 17, Type 0, BuildingBlock: TATPOV_clean_sbu_0, # of connection points: 4
#     Node 18, Type 0, BuildingBlock: TATPOV_clean_sbu_0, # of connection points: 4
#     Node 19, Type 0, BuildingBlock: TATPOV_clean_sbu_0, # of connection points: 4
#     Node 20, Type 0, BuildingBlock: TATPOV_clean_sbu_0, # of connection points: 4
#     Node 21, Type 0, BuildingBlock: TATPOV_clean_sbu_0, # of connection points: 4
#     Node 22, Type 0, BuildingBlock: TATPOV_clean_sbu_0, # of connection points: 4
#     Node 23, Type 0, BuildingBlock: TATPOV_clean_sbu_0, # of connection points: 4
#     Edge 24, Type (0, 0), BuildingBlock: TEMPAE_clean_linker_10, # of connection points: 2
#     Edge 25, Type (0, 0), BuildingBlock: TEMPAE_clean_linker_10, # of connection points: 2
#     Edge 26, Type (0, 0), BuildingBlock: TEMPAE_clean_linker_10, # of connection points: 2
#     Edge 27, Type (0, 0), BuildingBlock: TEMPAE_clean_linker_10, # of connection points: 2
#     Edge 28, Type (0, 0), BuildingBlock: TEMPAE_clean_linker_10, # of connection points: 2
#     Edge 29, Type (0, 0), BuildingBlock: TEMPAE_clean_linker_10, # of connection points: 2
#     Edge 30, Type (0, 0), BuildingBlock: TEMPAE_clean_linker_10, # of connection points: 2
#     Edge 31, Type (0, 0), BuildingBlock: TEMPAE_clean_linker_10, # of connection points: 2
#     Edge 32, Type (0, 0), BuildingBlock: TEMPAE_clean_linker_10, # of connection points: 2
#     Edge 33, Type (0, 0), BuildingBlock: TEMPAE_clean_linker_10, # of connection points: 2
#     Edge 34, Type (0, 0), BuildingBlock: TEMPAE_clean_linker_10, # of connection points: 2
#     Edge 35, Type (0, 0), BuildingBlock: TEMPAE_clean_linker_10, # of connection points: 2
#     Edge 36, Type (0, 0), BuildingBlock: TEMPAE_clean_linker_10, # of connection points: 2
#     Edge 37, Type (0, 0), BuildingBlock: TEMPAE_clean_linker_10, # of connection points: 2
#     Edge 38, Type (0, 0), BuildingBlock: TEMPAE_clean_linker_10, # of connection points: 2
#     Edge 39, Type (0, 0), BuildingBlock: TEMPAE_clean_linker_10, # of connection points: 2
#     Edge 40, Type (0, 0), BuildingBlock: TEMPAE_clean_linker_10, # of connection points: 2
#     Edge 41, Type (0, 0), BuildingBlock: TEMPAE_clean_linker_10, # of connection points: 2
#     Edge 42, Type (0, 0), BuildingBlock: TEMPAE_clean_linker_10, # of connection points: 2
#     Edge 43, Type (0, 0), BuildingBlock: TEMPAE_clean_linker_10, # of connection points: 2
#     Edge 44, Type (0, 0), BuildingBlock: TEMPAE_clean_linker_10, # of connection points: 2
#     Edge 45, Type (0, 0), BuildingBlock: TEMPAE_clean_linker_10, # of connection points: 2
#     Edge 46, Type (0, 0), BuildingBlock: TEMPAE_clean_linker_10, # of connection points: 2
#     Edge 47, Type (0, 0), BuildingBlock: TEMPAE_clean_linker_10, # of connection points: 2
#     Edge 48, Type (0, 0), BuildingBlock: TEMPAE_clean_linker_10, # of connection points: 2
#     Edge 49, Type (0, 0), BuildingBlock: TEMPAE_clean_linker_10, # of connection points: 2
#     Edge 50, Type (0, 0), BuildingBlock: TEMPAE_clean_linker_10, # of connection points: 2
#     Edge 51, Type (0, 0), BuildingBlock: TEMPAE_clean_linker_10, # of connection points: 2
#     Edge 52, Type (0, 0), BuildingBlock: TEMPAE_clean_linker_10, # of connection points: 2
#     Edge 53, Type (0, 0), BuildingBlock: TEMPAE_clean_linker_10, # of connection points: 2
#     Edge 54, Type (0, 0), BuildingBlock: TEMPAE_clean_linker_10, # of connection points: 2
#     Edge 55, Type (0, 0), BuildingBlock: TEMPAE_clean_linker_10, # of connection points: 2
#     Edge 56, Type (0, 0), BuildingBlock: TEMPAE_clean_linker_10, # of connection points: 2
#     Edge 57, Type (0, 0), BuildingBlock: TEMPAE_clean_linker_10, # of connection points: 2
#     Edge 58, Type (0, 0), BuildingBlock: TEMPAE_clean_linker_10, # of connection points: 2
#     Edge 59, Type (0, 0), BuildingBlock: TEMPAE_clean_linker_10, # of connection points: 2
#     Edge 60, Type (0, 0), BuildingBlock: TEMPAE_clean_linker_10, # of connection points: 2
#     Edge 61, Type (0, 0), BuildingBlock: TEMPAE_clean_linker_10, # of connection points: 2
#     Edge 62, Type (0, 0), BuildingBlock: TEMPAE_clean_linker_10, # of connection points: 2
#     Edge 63, Type (0, 0), BuildingBlock: TEMPAE_clean_linker_10, # of connection points: 2
#     Edge 64, Type (0, 0), BuildingBlock: TEMPAE_clean_linker_10, # of connection points: 2
#     Edge 65, Type (0, 0), BuildingBlock: TEMPAE_clean_linker_10, # of connection points: 2
#     Edge 66, Type (0, 0), BuildingBlock: TEMPAE_clean_linker_10, # of connection points: 2
#     Edge 67, Type (0, 0), BuildingBlock: TEMPAE_clean_linker_10, # of connection points: 2
#     Edge 68, Type (0, 0), BuildingBlock: TEMPAE_clean_linker_10, # of connection points: 2
#     Edge 69, Type (0, 0), BuildingBlock: TEMPAE_clean_linker_10, # of connection points: 2
#     Edge 70, Type (0, 0), BuildingBlock: TEMPAE_clean_linker_10, # of connection points: 2
#     Edge 71, Type (0, 0), BuildingBlock: TEMPAE_clean_linker_10, # of connection points: 2
# Relax obj value: 0.095
# Max RMSD: 0.113
# Mean RMSD: 0.113
data_MOF--net-umk--node1-TATPOV_clean_sbu_0--edge1-TEMPAE_clean_linker_10
_symmetry_space_group_name_H-M    P1
_symmetry_Int_Tables_number       1
_symmetry_cell_setting            triclinic
loop_
_symmetry_equiv_pos_as_xyz
'x, y, z'
_cell_length_a     65.80115
_cell_length_b     65.856133
_cell_length_c     43.75098
_cell_angle_alpha  89.976589
_cell_angle_beta   90.049463
_cell_angle_gamma 119.94043
loop_
_atom_site_label
_atom_site_type_symbol
_atom_site_fract_x
_atom_site_fract_y
_atom_site_fract_z
_atom_type_partial_charge
Zn0 Zn 0.37119 0.511 0.12599 0.0
Zn1 Zn 0.33555 0.49502 0.08945 0.0
O2 O 0.32048 0.49024 0.13267 0.0
O3 O 0.35145 0.50521 0.16271 0.0
O4 O 0.30831 0.48686 0.06128 0.0
O5 O 0.3879 0.5429 0.10872 0.0
O6 O 0.35969 0.5289 0.07453 0.0
C7 C 0.32951 0.4957 0.1593 0.0
C8 C 0.36476 0.47131 0.08975 0.0
O9 O 0.34645 0.4712 0.0799 0.0
O10 O 0.37802 0.48656 0.10902 0.0
C11 C 0.29034 0.46665 0.05829 0.0
O12 O 0.28903 0.44898 0.0739 0.0
C13 C 0.37911 0.54567 0.08451 0.0
Zn14 Zn 0.89817 0.32748 0.5854 0.0
Zn15 Zn 0.86653 0.29652 0.5498 0.0
O16 O 0.85615 0.28245 0.59368 0.0
O17 O 0.88454 0.30859 0.62255 0.0
O18 O 0.84136 0.27156 0.52365 0.0
O19 O 0.88966 0.35165 0.57219 0.0
O20 O 0.86291 0.32545 0.54159 0.0
C21 C 0.86563 0.28934 0.6199 0.0
C22 C 0.91868 0.31209 0.54103 0.0
O23 O 0.89759 0.30031 0.53147 0.0
O24 O 0.92341 0.32486 0.56448 0.0
C25 C 0.8359 0.25024 0.52683 0.0
O26 O 0.84744 0.2449 0.54678 0.0
C27 C 0.8736 0.34616 0.55254 0.0
Zn28 Zn 0.56359 0.91411 0.12638 0.0
Zn29 Zn 0.56808 0.88734 0.08634 0.0
O30 O 0.56871 0.87258 0.12806 0.0
O31 O 0.56771 0.89713 0.1612 0.0
O32 O 0.57197 0.86624 0.05685 0.0
O33 O 0.53116 0.90431 0.11049 0.0
O34 O 0.53548 0.88266 0.07569 0.0
C35 C 0.56887 0.87889 0.15563 0.0
C36 C 0.60232 0.94058 0.08699 0.0
O37 O 0.59562 0.9205 0.0752 0.0
O38 O 0.59138 0.94238 0.10962 0.0
C39 C 0.59024 0.86435 0.05829 0.0
O40 O 0.60651 0.87689 0.0785 0.0
C41 C 0.52316 0.89051 0.08787 0.0
Zn42 Zn 0.60946 0.47909 0.59999 0.0
Zn43 Zn 0.64635 0.4982 0.56427 0.0
O44 O 0.65932 0.49588 0.60647 0.0
O45 O 0.62836 0.47956 0.6362 0.0
O46 O 0.67517 0.51003 0.53809 0.0
O47 O 0.59258 0.45068 0.57386 0.0
O48 O 0.62228 0.46756 0.54201 0.0
C49 C 0.65024 0.48834 0.63267 0.0
C50 C 0.6197 0.52409 0.57483 0.0
O51 O 0.63739 0.5241 0.56293 0.0
O52 O 0.60534 0.50689 0.59097 0.0
C53 C 0.69464 0.52687 0.54732 0.0
O54 O 0.69527 0.53741 0.57309 0.0
C55 C 0.60196 0.45059 0.54869 0.0
Zn56 Zn 0.12979 0.61931 0.1412 0.0
Zn57 Zn 0.14452 0.65658 0.10437 0.0
O58 O 0.15666 0.67097 0.14659 0.0
O59 O 0.1447 0.6408 0.1774 0.0
O60 O 0.15905 0.68519 0.07761 0.0
O61 O 0.14708 0.60682 0.11693 0.0
O62 O 0.15749 0.63658 0.08563 0.0
C63 C 0.15528 0.66277 0.17331 0.0
C64 C 0.09222 0.62301 0.11061 0.0
O65 O 0.10874 0.64216 0.09985 0.0
O66 O 0.0968 0.61034 0.12789 0.0
C67 C 0.16034 0.70427 0.08605 0.0
O68 O 0.15023 0.70474 0.11171 0.0
C69 C 0.15737 0.61775 0.09284 0.0
Zn70 Zn 0.47011 0.11885 0.62651 0.0
Zn71 Zn 0.45124 0.13097 0.58362 0.0
O72 O 0.45089 0.15011 0.62123 0.0
O73 O 0.47326 0.1446 0.65355 0.0
O74 O 0.43932 0.14283 0.54975 0.0
O75 O 0.49729 0.12384 0.601 0.0
O76 O 0.48338 0.13778 0.56625 0.0
C77 C 0.46178 0.15464 0.64663 0.0
C78 C 0.42556 0.08084 0.60647 0.0
O79 O 0.42741 0.09564 0.5863 0.0
O80 O 0.44084 0.08694 0.6274 0.0
C81 C 0.42186 0.14594 0.55283 0.0
O82 O 0.41036 0.14035 0.57884 0.0
C83 C 0.49914 0.13321 0.57518 0.0
Zn84 Zn 0.54528 0.63689 0.91163 0.0
Zn85 Zn 0.56161 0.6783 0.93622 0.0
O86 O 0.56155 0.68603 0.89056 0.0
O87 O 0.54969 0.65139 0.8701 0.0
O88 O 0.57187 0.70894 0.95743 0.0
O89 O 0.51453 0.62332 0.93302 0.0
O90 O 0.52834 0.65789 0.95468 0.0
C91 C 0.55669 0.67302 0.86706 0.0
C92 C 0.58774 0.65083 0.94424 0.0
O93 O 0.58722 0.66979 0.94791 0.0
O94 O 0.57116 0.63377 0.93031 0.0
C95 C 0.58533 0.72896 0.94585 0.0
O96 O 0.59422 0.73035 0.91854 0.0
C97 C 0.51188 0.63679 0.95109 0.0
Zn98 Zn 0.90566 0.5232 0.41072 0.0
Zn99 Zn 0.87318 0.52672 0.43859 0.0
O100 O 0.86455 0.5265 0.39277 0.0
O101 O 0.894 0.52607 0.36981 0.0
O102 O 0.847 0.52838 0.45993 0.0
O103 O 0.89599 0.49176 0.42806 0.0
O104 O 0.86975 0.49533 0.45494 0.0
C105 C 0.87519 0.5268 0.36827 0.0
C106 C 0.9248 0.56398 0.44803 0.0
O107 O 0.90319 0.55722 0.45263 0.0
O108 O 0.93037 0.55176 0.43153 0.0
C109 C 0.84141 0.54356 0.4522 0.0
O110 O 0.8534 0.55866 0.43055 0.0
C111 C 0.87986 0.48371 0.44787 0.0
Zn112 Zn 0.36842 0.89284 0.92358 0.0
Zn113 Zn 0.33614 0.87118 0.96229 0.0
O114 O 0.32278 0.85313 0.92143 0.0
O115 O 0.35429 0.86732 0.89267 0.0
O116 O 0.30971 0.85137 0.99092 0.0
O117 O 0.39335 0.89451 0.95086 0.0
O118 O 0.36493 0.87051 0.98136 0.0
C119 C 0.33286 0.85268 0.89682 0.0
C120 C 0.34891 0.92056 0.9443 0.0
O121 O 0.33885 0.90391 0.96355 0.0
O122 O 0.36123 0.91914 0.92311 0.0
C123 C 0.28905 0.84679 0.98415 0.0
O124 O 0.28587 0.8565 0.95973 0.0
C125 C 0.3867 0.88179 0.9745 0.0
Zn126 Zn 0.44635 0.34532 0.35377 0.0
Zn127 Zn 0.43571 0.30664 0.38305 0.0
O128 O 0.43519 0.29626 0.338 0.0
O129 O 0.44309 0.32897 0.31439 0.0
O130 O 0.42989 0.27881 0.40822 0.0
O131 O 0.47751 0.36376 0.37472 0.0
O132 O 0.46845 0.33119 0.39926 0.0
C133 C 0.43819 0.30781 0.3134 0.0
C134 C 0.40434 0.32881 0.38839 0.0
O135 O 0.40852 0.31251 0.39586 0.0
O136 O 0.41818 0.34499 0.37064 0.0
C137 C 0.41382 0.2577 0.40425 0.0
O138 O 0.39898 0.25251 0.3815 0.0
C139 C 0.48271 0.35282 0.3941 0.0
Zn140 Zn 0.12686 0.50465 0.86107 0.0
Zn141 Zn 0.14475 0.48065 0.88528 0.0
O142 O 0.15569 0.48436 0.8401 0.0
O143 O 0.14323 0.50731 0.8216 0.0
O144 O 0.16199 0.46638 0.9062 0.0
O145 O 0.14074 0.53056 0.89104 0.0
O146 O 0.15586 0.5107 0.91187 0.0
C147 C 0.15407 0.49613 0.81802 0.0
C148 C 0.09184 0.45853 0.88252 0.0
O149 O 0.10946 0.45645 0.88991 0.0
O150 O 0.09484 0.47717 0.86996 0.0
C151 C 0.16019 0.46403 0.93509 0.0
O152 O 0.1457 0.46902 0.94946 0.0
C153 C 0.15286 0.52841 0.91182 0.0
Zn154 Zn 0.60443 0.09155 0.36773 0.0
Zn155 Zn 0.64217 0.10998 0.40145 0.0
O156 O 0.65398 0.12509 0.35888 0.0
O157 O 0.62115 0.11407 0.33378 0.0
O158 O 0.67153 0.12623 0.42683 0.0
O159 O 0.58685 0.09914 0.39871 0.0
O160 O 0.62006 0.11888 0.42387 0.0
C161 C 0.64329 0.12595 0.33506 0.0
C162 C 0.61655 0.05756 0.38823 0.0
O163 O 0.6317 0.07469 0.40412 0.0
O164 O 0.60372 0.06062 0.36937 0.0
C165 C 0.69117 0.12991 0.41664 0.0
O166 O 0.69205 0.12178 0.38956 0.0
C167 C 0.59841 0.11242 0.42065 0.0
Zn168 Zn 0.66419 0.55564 0.86068 0.0
Zn169 Zn 0.69598 0.55481 0.89533 0.0
O170 O 0.70677 0.55215 0.85123 0.0
O171 O 0.68019 0.55442 0.82313 0.0
O172 O 0.71992 0.55358 0.92278 0.0
O173 O 0.63852 0.52611 0.87993 0.0
O174 O 0.66547 0.52542 0.90892 0.0
C175 C 0.69843 0.55268 0.82508 0.0
C176 C 0.68643 0.59617 0.8978 0.0
O177 O 0.69718 0.58599 0.90823 0.0
O178 O 0.67159 0.58677 0.87654 0.0
C179 C 0.74116 0.56992 0.92442 0.0
O180 O 0.74826 0.58861 0.90719 0.0
C181 C 0.64409 0.51642 0.90074 0.0
Zn182 Zn 0.08859 0.67564 0.3857 0.0
Zn183 Zn 0.11852 0.70572 0.42384 0.0
O184 O 0.13243 0.71935 0.38091 0.0
O185 O 0.10528 0.69455 0.3495 0.0
O186 O 0.14196 0.7304 0.45194 0.0
O187 O 0.09564 0.65092 0.40174 0.0
O188 O 0.12118 0.67664 0.43394 0.0
C189 C 0.12476 0.71294 0.35379 0.0
C190 C 0.06602 0.6911 0.42639 0.0
O191 O 0.08654 0.70221 0.43798 0.0
O192 O 0.06242 0.67875 0.40273 0.0
C193 C 0.14275 0.72652 0.48024 0.0
O194 O 0.12755 0.70595 0.49153 0.0
C195 C 0.11068 0.65601 0.42277 0.0
Zn196 Zn 0.46113 0.11291 0.88815 0.0
Zn197 Zn 0.44957 0.13787 0.91974 0.0
O198 O 0.44411 0.14467 0.875 0.0
O199 O 0.44875 0.11857 0.84955 0.0
O200 O 0.44253 0.15973 0.9435 0.0
O201 O 0.4951 0.13192 0.89817 0.0
O202 O 0.48435 0.14945 0.93181 0.0
C203 C 0.44344 0.13456 0.84989 0.0
C204 C 0.4264 0.08557 0.93224 0.0
O205 O 0.42587 0.10451 0.93608 0.0
O206 O 0.44099 0.08505 0.91393 0.0
C207 C 0.42577 0.16317 0.93628 0.0
O208 O 0.41174 0.15108 0.9137 0.0
C209 C 0.50023 0.14609 0.92018 0.0
Zn210 Zn 0.35866 0.45682 0.40741 0.0
Zn211 Zn 0.3209 0.4497 0.43449 0.0
O212 O 0.31364 0.45084 0.38866 0.0
O213 O 0.34416 0.45246 0.36599 0.0
O214 O 0.29209 0.4467 0.45472 0.0
O215 O 0.37817 0.48878 0.42477 0.0
O216 O 0.34736 0.48115 0.45259 0.0
C217 C 0.32432 0.45109 0.36428 0.0
C218 C 0.33895 0.41577 0.44479 0.0
O219 O 0.32198 0.41979 0.44754 0.0
O220 O 0.35708 0.42975 0.42991 0.0
C221 C 0.27184 0.43409 0.44316 0.0
O222 O 0.2696 0.42167 0.4186 0.0
C223 C 0.36887 0.49468 0.44565 0.0
Zn224 Zn 0.88461 0.36731 0.84591 0.0
Zn225 Zn 0.86945 0.33117 0.88314 0.0
O226 O 0.85373 0.3166 0.84178 0.0
O227 O 0.86275 0.34721 0.81286 0.0
O228 O 0.85471 0.30301 0.91057 0.0
O229 O 0.87526 0.38481 0.87502 0.0
O230 O 0.86016 0.3534 0.90409 0.0
C231 C 0.85206 0.32521 0.81644 0.0
C232 C 0.92135 0.35894 0.86818 0.0
O233 O 0.90503 0.34327 0.88457 0.0
O234 O 0.91682 0.37067 0.84918 0.0
C235 C 0.85389 0.30462 0.93944 0.0
O236 O 0.8646 0.32545 0.95223 0.0
C237 C 0.86421 0.37413 0.89885 0.0
Zn238 Zn 0.48162 0.84909 0.37458 0.0
Zn239 Zn 0.5047 0.8344 0.40831 0.0
O240 O 0.50533 0.82218 0.3651 0.0
O241 O 0.485 0.83344 0.33721 0.0
O242 O 0.5179 0.81839 0.43388 0.0
O243 O 0.45263 0.83375 0.39983 0.0
O244 O 0.47291 0.82381 0.43007 0.0
C245 C 0.49684 0.82316 0.33934 0.0
C246 C 0.52486 0.88648 0.40179 0.0
O247 O 0.52757 0.86988 0.41213 0.0
O248 O 0.50692 0.88197 0.38599 0.0
C249 C 0.53478 0.81554 0.42538 0.0
O250 O 0.54565 0.82506 0.39964 0.0
C251 C 0.45423 0.82449 0.42435 0.0
Zn252 Zn 0.48819 0.38807 0.08935 0.0
Zn253 Zn 0.46907 0.3546 0.04913 0.0
O254 O 0.47159 0.33882 0.08889 0.0
O255 O 0.4926 0.36808 0.11994 0.0
O256 O 0.45587 0.32703 0.02062 0.0
O257 O 0.5142 0.40825 0.06059 0.0
O258 O 0.5001 0.3788 0.02819 0.0
C259 C 0.48205 0.34634 0.11438 0.0
C260 C 0.44234 0.37859 0.06992 0.0
O261 O 0.44422 0.36505 0.05075 0.0
O262 O 0.4582 0.38941 0.08973 0.0
C263 C 0.4382 0.30793 0.02922 0.0
O264 O 0.42791 0.30751 0.05512 0.0
C265 C 0.51571 0.39962 0.03544 0.0
Zn266 Zn 0.08146 0.48022 0.56669 0.0
Zn267 Zn 0.11281 0.47605 0.53569 0.0
O268 O 0.12264 0.47658 0.58094 0.0
O269 O 0.09458 0.47767 0.60673 0.0
O270 O 0.13737 0.47176 0.51406 0.0
O271 O 0.09172 0.51155 0.54817 0.0
O272 O 0.11693 0.50763 0.51935 0.0
C273 C 0.11329 0.47669 0.60639 0.0
C274 C 0.0605 0.43951 0.52915 0.0
O275 O 0.08185 0.44632 0.52265 0.0
O276 O 0.05569 0.45151 0.54722 0.0
C277 C 0.13868 0.45383 0.52176 0.0
O278 O 0.12381 0.43936 0.5421 0.0
C279 C 0.1072 0.51941 0.52747 0.0
Zn280 Zn 0.62983 0.10779 0.07145 0.0
Zn281 Zn 0.66799 0.14012 0.05126 0.0
O282 O 0.67384 0.1439 0.09797 0.0
O283 O 0.64281 0.11165 0.11368 0.0
O284 O 0.69789 0.16628 0.03422 0.0
O285 O 0.61116 0.12261 0.05965 0.0
O286 O 0.6428 0.14801 0.03501 0.0
C287 C 0.66222 0.1298 0.11946 0.0
C288 C 0.64956 0.08935 0.03115 0.0
O289 O 0.66689 0.11014 0.03354 0.0
O290 O 0.63025 0.08417 0.04362 0.0
C291 C 0.71766 0.16829 0.04064 0.0
O292 O 0.71845 0.15271 0.05862 0.0
C293 C 0.62119 0.13982 0.04162 0.0
Zn294 Zn 0.52016 0.62675 0.63045 0.0
Zn295 Zn 0.53575 0.65983 0.59036 0.0
O296 O 0.53914 0.67667 0.63183 0.0
O297 O 0.51882 0.64714 0.66297 0.0
O298 O 0.54625 0.68676 0.561 0.0
O299 O 0.49124 0.60629 0.60656 0.0
O300 O 0.50204 0.63608 0.57535 0.0
C301 C 0.53002 0.66894 0.65797 0.0
C302 C 0.56241 0.63395 0.60147 0.0
O303 O 0.55891 0.64758 0.58435 0.0
O304 O 0.54924 0.62422 0.62428 0.0
C305 C 0.53983 0.68409 0.53319 0.0
O306 O 0.52691 0.6628 0.5223 0.0
C307 C 0.48711 0.61526 0.58353 0.0
Zn308 Zn 0.88298 0.49753 0.1261 0.0
Zn309 Zn 0.86791 0.51914 0.09143 0.0
O310 O 0.852 0.5167 0.13349 0.0
O311 O 0.85914 0.49184 0.15816 0.0
O312 O 0.85366 0.53287 0.06312 0.0
O313 O 0.87654 0.47278 0.09505 0.0
O314 O 0.85931 0.48832 0.06857 0.0
C315 C 0.84916 0.50399 0.15688 0.0
C316 C 0.91948 0.54354 0.10859 0.0
O317 O 0.90355 0.5428 0.09121 0.0
O318 O 0.91469 0.52703 0.12723 0.0
C319 C 0.84591 0.54629 0.07118 0.0
O320 O 0.84795 0.55298 0.09985 0.0
C321 C 0.86481 0.47242 0.07196 0.0
Zn322 Zn 0.37686 0.88255 0.63975 0.0
Zn323 Zn 0.33464 0.85914 0.61516 0.0
O324 O 0.32703 0.85058 0.66057 0.0
O325 O 0.36199 0.87204 0.6811 0.0
O326 O 0.30369 0.83974 0.59429 0.0
O327 O 0.38895 0.86467 0.61641 0.0
O328 O 0.3544 0.84672 0.59404 0.0
C329 C 0.3402 0.85801 0.68404 0.0
C330 C 0.36355 0.91247 0.6085 0.0
O331 O 0.34404 0.89354 0.60506 0.0
O332 O 0.38053 0.91213 0.62162 0.0
C333 C 0.28522 0.84072 0.5995 0.0
O334 O 0.2858 0.85573 0.61975 0.0
C335 C 0.37516 0.85013 0.59692 0.0
C336 C 0.29681 0.46591 0.19114 0.0
C337 C 0.31507 0.48899 0.18712 0.0
C338 C 0.28952 0.45684 0.22076 0.0
C339 C 0.30103 0.47122 0.24635 0.0
C340 C 0.31661 0.49548 0.24199 0.0
C341 C 0.32351 0.50405 0.21233 0.0
C342 C 0.27178 0.43122 0.22458 0.0
C343 C 0.32874 0.5117 0.26858 0.0
C344 C 0.29568 0.45536 0.33048 0.0
C345 C 0.31479 0.45161 0.3338 0.0
C346 C 0.28929 0.45966 0.30151 0.0
C347 C 0.30256 0.46053 0.27557 0.0
C348 C 0.32054 0.45477 0.27862 0.0
C349 C 0.3263 0.45028 0.30762 0.0
C350 C 0.26938 0.46472 0.29923 0.0
C351 C 0.33511 0.45522 0.25162 0.0
H352 H 0.29007 0.4543 0.17158 0.0
H353 H 0.33734 0.52205 0.20904 0.0
H354 H 0.28104 0.42111 0.22698 0.0
H355 H 0.26105 0.42824 0.24543 0.0
H356 H 0.25999 0.42433 0.2044 0.0
H357 H 0.33756 0.53042 0.26164 0.0
H358 H 0.31603 0.50883 0.28701 0.0
H359 H 0.34219 0.50799 0.27813 0.0
H360 H 0.28639 0.45602 0.35057 0.0
H361 H 0.34073 0.44684 0.30987 0.0
H362 H 0.26102 0.46031 0.27632 0.0
H363 H 0.27618 0.48364 0.30346 0.0
H364 H 0.25582 0.45477 0.31682 0.0
H365 H 0.32361 0.44401 0.23292 0.0
H366 H 0.34752 0.44903 0.25769 0.0
H367 H 0.3454 0.47336 0.24266 0.0
C368 C 0.86799 0.27952 0.67353 0.0
C369 C 0.85388 0.27712 0.64829 0.0
C370 C 0.85963 0.27804 0.70326 0.0
C371 C 0.83647 0.27371 0.7076 0.0
C372 C 0.82087 0.26655 0.6824 0.0
C373 C 0.82988 0.26869 0.65265 0.0
C374 C 0.87675 0.28473 0.72949 0.0
C375 C 0.79542 0.25935 0.68645 0.0
C376 C 0.83219 0.28569 0.79086 0.0
C377 C 0.84084 0.30995 0.78957 0.0
C378 C 0.82725 0.27241 0.76387 0.0
C379 C 0.83183 0.2839 0.73524 0.0
C380 C 0.83776 0.30776 0.73405 0.0
C381 C 0.84181 0.32034 0.76125 0.0
C382 C 0.81894 0.2466 0.76636 0.0
C383 C 0.84255 0.32091 0.70414 0.0
H384 H 0.8864 0.28527 0.67001 0.0
H385 H 0.81872 0.26621 0.63312 0.0
H386 H 0.88066 0.30198 0.73886 0.0
H387 H 0.86906 0.27166 0.74812 0.0
H388 H 0.89354 0.28597 0.72241 0.0
H389 H 0.78444 0.24607 0.66907 0.0
H390 H 0.78904 0.25208 0.70962 0.0
H391 H 0.79312 0.27479 0.68321 0.0
H392 H 0.83062 0.27728 0.81273 0.0
H393 H 0.84772 0.33891 0.76007 0.0
H394 H 0.83382 0.24415 0.77314 0.0
H395 H 0.81145 0.23716 0.74457 0.0
H396 H 0.80544 0.23858 0.78455 0.0
H397 H 0.8578 0.32141 0.69255 0.0
H398 H 0.84641 0.33923 0.70733 0.0
H399 H 0.82723 0.31192 0.6887 0.0
C400 C 0.49568 0.81917 0.28286 0.0
C401 C 0.50443 0.81666 0.31095 0.0
C402 C 0.508 0.8218 0.25575 0.0
C403 C 0.5293 0.82133 0.25678 0.0
C404 C 0.53573 0.81441 0.28406 0.0
C405 C 0.52337 0.81247 0.31112 0.0
C406 C 0.49986 0.8283 0.22696 0.0
C407 C 0.557 0.81148 0.28553 0.0
C408 C 0.55516 0.83911 0.17814 0.0
C409 C 0.56654 0.86354 0.18159 0.0
C410 C 0.54559 0.82435 0.20369 0.0
C411 C 0.54708 0.83443 0.23279 0.0
C412 C 0.56165 0.85894 0.23671 0.0
C413 C 0.57139 0.87315 0.21102 0.0
C414 C 0.53201 0.79821 0.19887 0.0
C415 C 0.56446 0.87062 0.2674 0.0
H416 H 0.48049 0.8215 0.28238 0.0
H417 H 0.52982 0.80966 0.33261 0.0
H418 H 0.51239 0.84681 0.22087 0.0
H419 H 0.49929 0.81716 0.20764 0.0
H420 H 0.48217 0.82633 0.22957 0.0
H421 H 0.55406 0.79734 0.30187 0.0
H422 H 0.56143 0.80728 0.26278 0.0
H423 H 0.57225 0.82792 0.29393 0.0
H424 H 0.55186 0.83151 0.15544 0.0
H425 H 0.58092 0.89204 0.21379 0.0
H426 H 0.51424 0.793 0.19011 0.0
H427 H 0.53019 0.78845 0.22034 0.0
H428 H 0.54078 0.79298 0.18141 0.0
H429 H 0.54734 0.86838 0.27491 0.0
H430 H 0.57741 0.88967 0.2667 0.0
H431 H 0.57027 0.86242 0.28486 0.0
C432 C 0.70547 0.55918 0.7698 0.0
C433 C 0.70759 0.5486 0.79643 0.0
C434 C 0.70394 0.54914 0.74114 0.0
C435 C 0.70487 0.52816 0.73921 0.0
C436 C 0.71135 0.51997 0.76535 0.0
C437 C 0.71237 0.53017 0.79402 0.0
C438 C 0.69787 0.5591 0.71378 0.0
C439 C 0.71456 0.49889 0.76369 0.0
C440 C 0.65484 0.48719 0.68897 0.0
C441 C 0.6653 0.49305 0.66001 0.0
C442 C 0.6681 0.49677 0.7155 0.0
C443 C 0.69264 0.51214 0.71311 0.0
C444 C 0.70373 0.51549 0.68434 0.0
C445 C 0.68986 0.50617 0.65796 0.0
C446 C 0.65534 0.49242 0.74564 0.0
C447 C 0.72995 0.53034 0.68083 0.0
H448 H 0.70237 0.57384 0.7717 0.0
H449 H 0.71443 0.52217 0.81457 0.0
H450 H 0.70929 0.56091 0.69416 0.0
H451 H 0.67944 0.54701 0.70684 0.0
H452 H 0.69981 0.57654 0.71865 0.0
H453 H 0.72684 0.49966 0.78169 0.0
H454 H 0.69745 0.48274 0.76745 0.0
H455 H 0.7213 0.49755 0.74096 0.0
H456 H 0.63593 0.47657 0.69088 0.0
H457 H 0.69823 0.51034 0.63571 0.0
H458 H 0.65694 0.50902 0.75422 0.0
H459 H 0.66322 0.48615 0.76297 0.0
H460 H 0.6364 0.47924 0.74367 0.0
H461 H 0.73445 0.54814 0.67307 0.0
H462 H 0.73632 0.52281 0.66307 0.0
H463 H 0.73935 0.53192 0.70255 0.0
C464 C 0.12885 0.72132 0.29858 0.0
C465 C 0.13979 0.72351 0.32682 0.0
C466 C 0.1393 0.71984 0.27151 0.0
C467 C 0.1613 0.72086 0.27298 0.0
C468 C 0.17435 0.72796 0.30049 0.0
C469 C 0.16329 0.72898 0.32748 0.0
C470 C 0.12513 0.71339 0.24236 0.0
C471 C 0.19874 0.73139 0.30224 0.0
C472 C 0.15579 0.66919 0.22938 0.0
C473 C 0.16274 0.67867 0.20006 0.0
C474 C 0.15721 0.6833 0.2541 0.0
C475 C 0.16646 0.70769 0.24958 0.0
C476 C 0.17623 0.71779 0.22091 0.0
C477 C 0.17395 0.70309 0.19628 0.0
C478 C 0.14663 0.67157 0.28429 0.0
C479 C 0.18761 0.7438 0.21534 0.0
H480 H 0.11089 0.7178 0.29806 0.0
H481 H 0.17204 0.73122 0.34925 0.0
H482 H 0.13609 0.72422 0.22308 0.0
H483 H 0.11888 0.69475 0.23673 0.0
H484 H 0.10962 0.71579 0.24435 0.0
H485 H 0.20889 0.74348 0.32117 0.0
H486 H 0.19768 0.7143 0.30668 0.0
H487 H 0.2083 0.73844 0.28041 0.0
H488 H 0.14751 0.6504 0.23265 0.0
H489 H 0.17991 0.71068 0.1738 0.0
H490 H 0.13123 0.67357 0.28963 0.0
H491 H 0.15954 0.67994 0.303 0.0
H492 H 0.14081 0.65257 0.28414 0.0
H493 H 0.17503 0.74766 0.20342 0.0
H494 H 0.20309 0.74975 0.20016 0.0
H495 H 0.19329 0.75407 0.23687 0.0
C496 C 0.43493 0.12865 0.79445 0.0
C497 C 0.43859 0.14241 0.82048 0.0
C498 C 0.43534 0.13736 0.76524 0.0
C499 C 0.43906 0.16041 0.76186 0.0
C500 C 0.44003 0.17338 0.7882 0.0
C501 C 0.43999 0.16429 0.81736 0.0
C502 C 0.43383 0.12246 0.73804 0.0
C503 C 0.44253 0.19737 0.786 0.0
C504 C 0.47565 0.17932 0.69275 0.0
C505 C 0.45791 0.16776 0.67099 0.0
C506 C 0.47003 0.1814 0.72298 0.0
C507 C 0.44615 0.17156 0.73122 0.0
C508 C 0.42904 0.16495 0.70795 0.0
C509 C 0.43507 0.16282 0.67777 0.0
C510 C 0.48917 0.19015 0.7468 0.0
C511 C 0.40377 0.15665 0.71563 0.0
H512 H 0.43311 0.11143 0.79676 0.0
H513 H 0.44231 0.17485 0.83747 0.0
H514 H 0.41946 0.12007 0.72256 0.0
H515 H 0.45046 0.13124 0.72489 0.0
H516 H 0.43056 0.10482 0.74485 0.0
H517 H 0.43132 0.19928 0.80343 0.0
H518 H 0.46094 0.21086 0.79105 0.0
H519 H 0.43773 0.20089 0.76308 0.0
H520 H 0.49349 0.1839 0.68713 0.0
H521 H 0.42136 0.15445 0.66073 0.0
H522 H 0.48808 0.17501 0.75945 0.0
H523 H 0.48701 0.20157 0.76351 0.0
H524 H 0.50689 0.20015 0.7364 0.0
H525 H 0.39465 0.13763 0.72085 0.0
H526 H 0.39463 0.15935 0.69604 0.0
H527 H 0.40241 0.16596 0.73599 0.0
C528 C 0.5583 0.70145 0.69111 0.0
C529 C 0.53507 0.68463 0.68427 0.0
C530 C 0.56487 0.70895 0.72143 0.0
C531 C 0.54778 0.69915 0.74481 0.0
C532 C 0.52377 0.68577 0.73683 0.0
C533 C 0.51771 0.67844 0.70654 0.0
C534 C 0.59048 0.72444 0.72892 0.0
C535 C 0.50482 0.6759 0.76087 0.0
C536 C 0.55881 0.66943 0.81097 0.0
C537 C 0.55836 0.68247 0.83595 0.0
C538 C 0.55705 0.6758 0.78108 0.0
C539 C 0.55481 0.69584 0.77587 0.0
C540 C 0.5562 0.71018 0.80083 0.0
C541 C 0.55791 0.70327 0.83074 0.0
C542 C 0.55607 0.66005 0.75524 0.0
C543 C 0.55453 0.73202 0.7964 0.0
H544 H 0.57172 0.70653 0.67374 0.0
H545 H 0.49964 0.66581 0.70097 0.0
H546 H 0.59281 0.73586 0.74881 0.0
H547 H 0.59821 0.71334 0.73489 0.0
H548 H 0.60028 0.73555 0.70907 0.0
H549 H 0.48717 0.66969 0.7508 0.0
H550 H 0.50479 0.66081 0.77226 0.0
H551 H 0.5081 0.68922 0.77858 0.0
H552 H 0.55973 0.65364 0.81482 0.0
H553 H 0.55783 0.71359 0.85 0.0
H554 H 0.56939 0.6704 0.73766 0.0
H555 H 0.53858 0.65187 0.74412 0.0
H556 H 0.55922 0.64583 0.7632 0.0
H557 H 0.56073 0.73986 0.77346 0.0
H558 H 0.56491 0.74532 0.81408 0.0
H559 H 0.53598 0.72754 0.79891 0.0
C560 C 0.84265 0.52299 0.33383 0.0
C561 C 0.8656 0.52712 0.33772 0.0
C562 C 0.83307 0.52073 0.30436 0.0
C563 C 0.84672 0.52237 0.27844 0.0
C564 C 0.87034 0.52797 0.28238 0.0
C565 C 0.87944 0.53037 0.31185 0.0
C566 C 0.80808 0.51548 0.30134 0.0
C567 C 0.8858 0.53016 0.25553 0.0
C568 C 0.82951 0.48799 0.20642 0.0
C569 C 0.8383 0.50635 0.18516 0.0
C570 C 0.82833 0.49232 0.23751 0.0
C571 C 0.83631 0.51557 0.24733 0.0
C572 C 0.84099 0.53316 0.22535 0.0
C573 C 0.84205 0.52837 0.19425 0.0
C574 C 0.82216 0.47275 0.26007 0.0
C575 C 0.8481 0.55781 0.2349 0.0
H576 H 0.8319 0.52073 0.35371 0.0
H577 H 0.89734 0.53405 0.31457 0.0
H578 H 0.80488 0.52157 0.27915 0.0
H579 H 0.79611 0.49628 0.30299 0.0
H580 H 0.80352 0.52381 0.32016 0.0
H581 H 0.90395 0.53526 0.26262 0.0
H582 H 0.87826 0.51319 0.24322 0.0
H583 H 0.88675 0.54347 0.23918 0.0
H584 H 0.82595 0.47076 0.19925 0.0
H585 H 0.84843 0.54254 0.17777 0.0
H586 H 0.81125 0.47346 0.27887 0.0
H587 H 0.83851 0.47474 0.27029 0.0
H588 H 0.81256 0.45526 0.24899 0.0
H589 H 0.83839 0.5578 0.25565 0.0
H590 H 0.84493 0.56738 0.2163 0.0
H591 H 0.86711 0.56743 0.24039 0.0
C592 C 0.34222 0.86631 0.73939 0.0
C593 C 0.33044 0.85111 0.71511 0.0
C594 C 0.3348 0.85998 0.76952 0.0
C595 C 0.31518 0.83762 0.77572 0.0
C596 C 0.3025 0.82251 0.75121 0.0
C597 C 0.31025 0.82952 0.72101 0.0
C598 C 0.34867 0.87702 0.79478 0.0
C599 C 0.28156 0.79857 0.75668 0.0
C600 C 0.32897 0.82679 0.85391 0.0
C601 C 0.31954 0.83822 0.87065 0.0
C602 C 0.32399 0.8222 0.82274 0.0
C603 C 0.30996 0.83006 0.80815 0.0
C604 C 0.29722 0.83779 0.82611 0.0
C605 C 0.30216 0.84176 0.85749 0.0
C606 C 0.33691 0.81269 0.80466 0.0
C607 C 0.28139 0.84547 0.81156 0.0
H608 H 0.35756 0.88321 0.73485 0.0
H609 H 0.30106 0.81775 0.7022 0.0
H610 H 0.33686 0.8801 0.80971 0.0
H611 H 0.35729 0.86961 0.80915 0.0
H612 H 0.36247 0.89421 0.7858 0.0
H613 H 0.26946 0.7927 0.73676 0.0
H614 H 0.28767 0.78577 0.75997 0.0
H615 H 0.27169 0.79821 0.77742 0.0
H616 H 0.3422 0.82378 0.86434 0.0
H617 H 0.29475 0.85049 0.87059 0.0
H618 H 0.35275 0.82749 0.79416 0.0
H619 H 0.32575 0.8011 0.78598 0.0
H620 H 0.34263 0.80274 0.81944 0.0
H621 H 0.29217 0.86372 0.80316 0.0
H622 H 0.26847 0.84506 0.82825 0.0
H623 H 0.27186 0.83421 0.79174 0.0
C624 C 0.44979 0.28643 0.27636 0.0
C625 C 0.43708 0.29774 0.28302 0.0
C626 C 0.45575 0.28476 0.2459 0.0
C627 C 0.44922 0.29513 0.22228 0.0
C628 C 0.43341 0.30327 0.22879 0.0
C629 C 0.42748 0.30435 0.25913 0.0
C630 C 0.47094 0.27408 0.23966 0.0
C631 C 0.4253 0.31392 0.2044 0.0
C632 C 0.49114 0.33899 0.16693 0.0
C633 C 0.47887 0.32996 0.13953 0.0
C634 C 0.48344 0.32618 0.1941 0.0
C635 C 0.4632 0.3036 0.19368 0.0
C636 C 0.45336 0.29288 0.16528 0.0
C637 C 0.46111 0.30634 0.13838 0.0
C638 C 0.49514 0.33819 0.22369 0.0
C639 C 0.43316 0.2681 0.16346 0.0
H640 H 0.45691 0.28091 0.29486 0.0
H641 H 0.41714 0.31257 0.26443 0.0
H642 H 0.46982 0.26862 0.21543 0.0
H643 H 0.48947 0.28702 0.24502 0.0
H644 H 0.46573 0.25863 0.25463 0.0
H645 H 0.41191 0.31806 0.21307 0.0
H646 H 0.44048 0.33037 0.19582 0.0
H647 H 0.41767 0.30177 0.1848 0.0
H648 H 0.50549 0.35693 0.16775 0.0
H649 H 0.45199 0.2989 0.11707 0.0
H650 H 0.49933 0.32669 0.23759 0.0
H651 H 0.48304 0.34183 0.23721 0.0
H652 H 0.51162 0.35503 0.21981 0.0
H653 H 0.43269 0.25755 0.18353 0.0
H654 H 0.43433 0.25945 0.14227 0.0
H655 H 0.41641 0.26829 0.16254 0.0
C656 C 0.11165 0.47286 0.66297 0.0
C657 C 0.12426 0.47634 0.63582 0.0
C658 C 0.12205 0.47478 0.69147 0.0
C659 C 0.14578 0.48032 0.69306 0.0
C660 C 0.15826 0.48245 0.66577 0.0
C661 C 0.14735 0.4805 0.63735 0.0
C662 C 0.10787 0.47208 0.71993 0.0
C663 C 0.18343 0.48795 0.66636 0.0
C664 C 0.16758 0.5129 0.76646 0.0
C665 C 0.16125 0.49422 0.78674 0.0
C666 C 0.16599 0.50927 0.73483 0.0
C667 C 0.15756 0.48633 0.7234 0.0
C668 C 0.15466 0.46826 0.74361 0.0
C669 C 0.15656 0.47243 0.77529 0.0
C670 C 0.17008 0.52926 0.71406 0.0
C671 C 0.14659 0.44381 0.73217 0.0
H672 H 0.09367 0.46922 0.66203 0.0
H673 H 0.15716 0.48302 0.61645 0.0
H674 H 0.10813 0.4589 0.73546 0.0
H675 H 0.11569 0.48898 0.73244 0.0
H676 H 0.0893 0.46655 0.71467 0.0
H677 H 0.18797 0.48177 0.6452 0.0
H678 H 0.19514 0.5072 0.66784 0.0
H679 H 0.18701 0.4799 0.68642 0.0
H680 H 0.17168 0.5299 0.77537 0.0
H681 H 0.15187 0.45799 0.79094 0.0
H682 H 0.15291 0.52724 0.7072 0.0
H683 H 0.17936 0.52916 0.69297 0.0
H684 H 0.18047 0.54651 0.72552 0.0
H685 H 0.1273 0.4345 0.72882 0.0
H686 H 0.15078 0.43365 0.74877 0.0
H687 H 0.15479 0.44423 0.70984 0.0
C688 C 0.67804 0.1405 0.30038 0.0
C689 C 0.65621 0.13829 0.30725 0.0
C690 C 0.68691 0.14564 0.27041 0.0
C691 C 0.67348 0.14842 0.24719 0.0
C692 C 0.65321 0.14953 0.25517 0.0
C693 C 0.6448 0.14439 0.28514 0.0
C694 C 0.70922 0.14551 0.26306 0.0
C695 C 0.63865 0.15309 0.23135 0.0
C696 C 0.68465 0.15772 0.16203 0.0
C697 C 0.67011 0.13475 0.15157 0.0
C698 C 0.68804 0.16252 0.19356 0.0
C699 C 0.67648 0.14391 0.21472 0.0
C700 C 0.66379 0.12051 0.20401 0.0
C701 C 0.66081 0.11627 0.17261 0.0
C702 C 0.70244 0.18761 0.20397 0.0
C703 C 0.65144 0.09999 0.22565 0.0
H704 H 0.68716 0.13621 0.31759 0.0
H705 H 0.62824 0.14335 0.29067 0.0
H706 H 0.70484 0.12777 0.25516 0.0
H707 H 0.71909 0.15812 0.24451 0.0
H708 H 0.72067 0.14987 0.28352 0.0
H709 H 0.6254 0.15671 0.24182 0.0
H710 H 0.64998 0.16784 0.21599 0.0
H711 H 0.62931 0.13706 0.21712 0.0
H712 H 0.69217 0.17206 0.14579 0.0
H713 H 0.65006 0.09842 0.16455 0.0
H714 H 0.7108 0.18892 0.22647 0.0
H715 H 0.69089 0.19532 0.20624 0.0
H716 H 0.71628 0.19825 0.18701 0.0
H717 H 0.66371 0.10065 0.24351 0.0
H718 H 0.64399 0.08287 0.21367 0.0
H719 H 0.6369 0.10084 0.2373 0.0
C720 C 0.19283 0.4548 0.93765 0.0
C721 C 0.17658 0.45918 0.9527 0.0
C722 C 0.21039 0.45324 0.95402 0.0
C723 C 0.2118 0.45629 0.98614 0.0
C724 C 0.19474 0.45954 0.00158 0.0
C725 C 0.1773 0.46086 0.98469 0.0
C726 C 0.2281 0.44947 0.93677 0.0
C727 C 0.19565 0.46292 0.0358 0.0
C728 C 0.25064 0.44137 0.03469 0.0
C729 C 0.27062 0.46352 0.03857 0.0
C730 C 0.23151 0.43858 0.01711 0.0
C731 C 0.23234 0.45843 0.00327 0.0
C732 C 0.25262 0.48074 0.00669 0.0
C733 C 0.27149 0.48299 0.02419 0.0
C734 C 0.21025 0.4145 0.01377 0.0
C735 C 0.25419 0.50237 0.9924 0.0
H736 H 0.19233 0.45332 0.91295 0.0
H737 H 0.16478 0.46415 -0.00343 0.0
H738 H 0.24544 0.46575 0.93746 0.0
H739 H 0.2302 0.43542 0.94768 0.0
H740 H 0.22303 0.44474 0.91247 0.0
H741 H 0.17997 0.4632 0.04462 0.0
H742 H 0.19704 0.44874 0.04756 0.0
H743 H 0.21148 0.47974 0.04191 0.0
H744 H 0.24983 0.42622 0.04563 0.0
H745 H 0.28684 0.50018 0.02698 0.0
H746 H 0.20602 0.4102 0.98924 0.0
H747 H 0.19483 0.41419 0.02453 0.0
H748 H 0.21286 0.40068 0.02452 0.0
H749 H 0.25139 0.49993 0.96736 0.0
H750 H 0.27141 0.51833 -0.00337 0.0
H751 H 0.24019 0.50529 0.00176 0.0
C752 C 0.71198 0.15399 0.46258 0.0
C753 C 0.71301 0.14515 0.43381 0.0
C754 C 0.73249 0.17005 0.47796 0.0
C755 C 0.75457 0.1775 0.46422 0.0
C756 C 0.75579 0.16809 0.43565 0.0
C757 C 0.73498 0.15199 0.42079 0.0
C758 C 0.73049 0.17961 0.5085 0.0
C759 C 0.77903 0.1756 0.42032 0.0
C760 C 0.8038 0.23741 0.48813 0.0
C761 C 0.81592 0.23159 0.50959 0.0
C762 C 0.78409 0.21994 0.47277 0.0
C763 C 0.77626 0.19607 0.47905 0.0
C764 C 0.78868 0.19005 0.50021 0.0
C765 C 0.80839 0.20789 0.51521 0.0
C766 C 0.77135 0.22705 0.45025 0.0
C767 C 0.78084 0.16478 0.50749 0.0
H768 H 0.69509 0.14873 0.47289 0.0
H769 H 0.73595 0.14523 0.39859 0.0
H770 H 0.7414 0.17715 0.52581 0.0
H771 H 0.73719 0.19871 0.50656 0.0
H772 H 0.71211 0.17103 0.51687 0.0
H773 H 0.77706 0.16554 0.39907 0.0
H774 H 0.78763 0.19449 0.41447 0.0
H775 H 0.79093 0.17332 0.43613 0.0
H776 H 0.80953 0.25566 0.48356 0.0
H777 H 0.81766 0.20324 0.53173 0.0
H778 H 0.75319 0.22078 0.45831 0.0
H779 H 0.77009 0.21878 0.42773 0.0
H780 H 0.7802 0.24635 0.4471 0.0
H781 H 0.76311 0.15628 0.51792 0.0
H782 H 0.793 0.16302 0.52347 0.0
H783 H 0.77953 0.15506 0.48619 0.0
C784 C 0.57461 0.83325 0.01802 0.0
C785 C 0.59225 0.84689 0.03917 0.0
C786 C 0.57527 0.81533 0.00155 0.0
C787 C 0.594 0.81093 0.00636 0.0
C788 C 0.6123 0.82517 0.02683 0.0
C789 C 0.61121 0.84301 0.04299 0.0
C790 C 0.55547 0.80056 0.97982 0.0
C791 C 0.63256 0.821 0.0325 0.0
C792 C 0.57987 0.74856 0.99141 0.0
C793 C 0.58928 0.75034 0.96212 0.0
C794 C 0.58183 0.76828 0.00633 0.0
C795 C 0.59347 0.79035 0.99161 0.0
C796 C 0.60361 0.79244 0.96243 0.0
C797 C 0.60141 0.77238 0.94801 0.0
C798 C 0.57086 0.76536 0.03752 0.0
C799 C 0.61619 0.81572 0.9461 0.0
H800 H 0.55996 0.83621 0.01479 0.0
H801 H 0.62496 0.85352 0.0592 0.0
H802 H 0.56253 0.80002 0.95701 0.0
H803 H 0.54558 0.78228 0.98839 0.0
H804 H 0.54306 0.80725 0.97711 0.0
H805 H 0.64629 0.83476 0.04721 0.0
H806 H 0.62608 0.80376 0.0438 0.0
H807 H 0.64066 0.82042 0.01053 0.0
H808 H 0.57057 0.73163 0.00257 0.0
H809 H 0.60875 0.77392 0.9254 0.0
H810 H 0.55666 0.76979 0.03636 0.0
H811 H 0.5841 0.77758 0.05407 0.0
H812 H 0.56334 0.74721 0.04639 0.0
H813 H 0.60364 0.82186 0.9409 0.0
H814 H 0.62435 0.81467 0.92438 0.0
H815 H 0.63005 0.82911 0.961 0.0
C816 C 0.73846 0.54883 0.54376 0.0
C817 C 0.71667 0.53262 0.53119 0.0
C818 C 0.75948 0.55257 0.5305 0.0
C819 C 0.75867 0.53984 0.50403 0.0
C820 C 0.73678 0.52419 0.49052 0.0
C821 C 0.71604 0.52076 0.50426 0.0
C822 C 0.7825 0.56945 0.54552 0.0
C823 C 0.73521 0.51039 0.46217 0.0
C824 C 0.81357 0.559 0.45635 0.0
C825 C 0.8209 0.54343 0.46639 0.0
C826 C 0.79353 0.5583 0.46869 0.0
C827 C 0.78055 0.54165 0.49161 0.0
C828 C 0.78811 0.52619 0.50222 0.0
C829 C 0.80817 0.52726 0.48948 0.0
C830 C 0.78601 0.57508 0.45684 0.0
C831 C 0.77477 0.50823 0.52673 0.0
H832 H 0.73913 0.55812 0.56452 0.0
H833 H 0.6993 0.50829 0.4943 0.0
H834 H 0.79085 0.55967 0.55473 0.0
H835 H 0.79475 0.58215 0.52851 0.0
H836 H 0.78025 0.57932 0.56455 0.0
H837 H 0.71699 0.50019 0.4533 0.0
H838 H 0.7466 0.52232 0.4439 0.0
H839 H 0.7416 0.49804 0.46738 0.0
H840 H 0.82331 0.57158 0.43853 0.0
H841 H 0.81372 0.5152 0.49745 0.0
H842 H 0.78445 0.58523 0.47602 0.0
H843 H 0.76845 0.56512 0.44604 0.0
H844 H 0.7985 0.58755 0.43977 0.0
H845 H 0.77323 0.51701 0.54752 0.0
H846 H 0.78334 0.49795 0.53306 0.0
H847 H 0.75671 0.49593 0.51867 0.0
C848 C 0.24571 0.82157 0.99168 0.0
C849 C 0.26865 0.82856 0.00125 0.0
C850 C 0.22629 0.80252 0.0055 0.0
C851 C 0.22994 0.79021 0.0294 0.0
C852 C 0.25296 0.79783 0.04005 0.0
C853 C 0.27203 0.81692 0.02587 0.0
C854 C 0.20198 0.79499 0.99366 0.0
C855 C 0.25756 0.7852 0.06559 0.0
C856 C 0.18079 0.748 0.08154 0.0
C857 C 0.17584 0.72627 0.06943 0.0
C858 C 0.19775 0.76907 0.06806 0.0
C859 C 0.20998 0.76834 0.04188 0.0
C860 C 0.20424 0.74648 0.02871 0.0
C861 C 0.18724 0.72572 0.04263 0.0
C862 C 0.20329 0.79205 0.08263 0.0
C863 C 0.2168 0.74497 0.00066 0.0
H864 H 0.24291 0.83052 0.97276 0.0
H865 H 0.28967 0.82227 0.03352 0.0
H866 H 0.19472 0.77771 0.98222 0.0
H867 H 0.19007 0.79287 0.01284 0.0
H868 H 0.20193 0.80773 0.97705 0.0
H869 H 0.2763 0.79425 0.07254 0.0
H870 H 0.24676 0.78366 0.08586 0.0
H871 H 0.25243 0.76715 0.05817 0.0
H872 H 0.17203 0.7486 0.1022 0.0
H873 H 0.18342 0.70902 0.03298 0.0
H874 H 0.20314 0.80421 0.06519 0.0
H875 H 0.22117 0.8005 0.09263 0.0
H876 H 0.19066 0.78972 0.101 0.0
H877 H 0.21606 0.75605 0.98209 0.0
H878 H 0.20919 0.72673 0.99208 0.0
H879 H 0.23557 0.75173 0.00611 0.0
C880 C 0.40035 0.16593 0.53398 0.0
C881 C 0.41639 0.15818 0.52858 0.0
C882 C 0.39727 0.18009 0.51262 0.0
C883 C 0.41047 0.18654 0.48522 0.0
C884 C 0.42566 0.17765 0.47889 0.0
C885 C 0.42846 0.16361 0.50066 0.0
C886 C 0.38088 0.18921 0.52015 0.0
C887 C 0.43995 0.18402 0.44986 0.0
C888 C 0.39571 0.21558 0.42041 0.0
C889 C 0.41224 0.23929 0.4252 0.0
C890 C 0.39465 0.19813 0.43997 0.0
C891 C 0.41047 0.2046 0.46485 0.0
C892 C 0.42696 0.22851 0.46999 0.0
C893 C 0.42765 0.24552 0.45013 0.0
C894 C 0.37687 0.17279 0.43381 0.0
C895 C 0.44412 0.23616 0.49631 0.0
H896 H 0.39087 0.16172 0.55542 0.0
H897 H 0.44072 0.15751 0.49616 0.0
H898 H 0.39125 0.20832 0.52467 0.0
H899 H 0.36915 0.18663 0.50053 0.0
H900 H 0.36995 0.18048 0.54058 0.0
H901 H 0.44898 0.17371 0.44689 0.0
H902 H 0.42861 0.18113 0.42967 0.0
H903 H 0.4534 0.20291 0.45032 0.0
H904 H 0.38373 0.21062 0.40122 0.0
H905 H 0.44044 0.26379 0.45412 0.0
H906 H 0.3658 0.1648 0.45433 0.0
H907 H 0.386 0.16282 0.42898 0.0
H908 H 0.3653 0.17072 0.41414 0.0
H909 H 0.43452 0.22984 0.51823 0.0
H910 H 0.45544 0.25551 0.49756 0.0
H911 H 0.45553 0.2283 0.49392 0.0
C912 C 0.83038 0.5449 0.01848 0.0
C913 C 0.83291 0.55256 0.04891 0.0
C914 C 0.8166 0.54904 -0.00231 0.0
C915 C 0.80502 0.56111 0.00753 0.0
C916 C 0.80808 0.56954 0.03792 0.0
C917 C 0.82201 0.56518 0.05825 0.0
C918 C 0.81384 0.53984 0.96544 0.0
C919 C 0.79604 0.58251 0.04924 0.0
C920 C 0.78127 0.58542 0.9471 0.0
C921 C 0.75758 0.56789 0.94577 0.0
C922 C 0.79693 0.58356 0.96722 0.0
C923 C 0.78868 0.56372 0.98649 0.0
C924 C 0.76477 0.54604 0.98536 0.0
C925 C 0.74954 0.54832 0.96502 0.0
C926 C 0.82231 0.60273 0.96773 0.0
C927 C 0.75528 0.52462 0.00557 0.0
H928 H 0.83881 0.53522 0.01098 0.0
H929 H 0.82389 0.57121 0.08168 0.0
H930 H 0.7953 0.52625 0.96136 0.0
H931 H 0.81829 0.55415 0.94877 0.0
H932 H 0.82512 0.53204 0.96088 0.0
H933 H 0.80134 0.58917 0.07292 0.0
H934 H 0.80009 0.59752 0.03398 0.0
H935 H 0.77675 0.57068 0.04876 0.0
H936 H 0.78764 0.60061 0.93233 0.0
H937 H 0.73127 0.5347 0.96424 0.0
H938 H 0.83373 0.59541 0.96163 0.0
H939 H 0.82731 0.61011 0.99111 0.0
H940 H 0.82588 0.61718 0.95161 0.0
H941 H 0.76457 0.51481 0.00071 0.0
H942 H 0.73617 0.51263 0.00224 0.0
H943 H 0.75848 0.52996 0.02994 0.0
C944 C 0.17696 0.7668 0.48789 0.0
C945 C 0.16162 0.74444 0.49966 0.0
C946 C 0.19602 0.78339 0.50514 0.0
C947 C 0.1999 0.77743 0.5348 0.0
C948 C 0.18402 0.7552 0.54724 0.0
C949 C 0.16502 0.73898 0.52954 0.0
C950 C 0.21249 0.80697 0.49116 0.0
C951 C 0.18764 0.7482 0.57877 0.0
C952 C 0.26275 0.80785 0.56297 0.0
C953 C 0.26326 0.82468 0.5831 0.0
C954 C 0.2422 0.79233 0.5473 0.0
C955 C 0.22162 0.7937 0.55173 0.0
C956 C 0.22195 0.81063 0.57197 0.0
C957 C 0.24279 0.82593 0.58748 0.0
C958 C 0.24255 0.77448 0.52594 0.0
C959 C 0.20033 0.81263 0.57712 0.0
H960 H 0.17436 0.77123 0.46491 0.0
H961 H 0.15322 0.72177 0.53884 0.0
H962 H 0.21509 0.82125 0.50694 0.0
H963 H 0.22991 0.80858 0.48739 0.0
H964 H 0.20594 0.80959 0.46894 0.0
H965 H 0.17276 0.73102 0.58602 0.0
H966 H 0.20391 0.74706 0.57906 0.0
H967 H 0.18991 0.76167 0.59577 0.0
H968 H 0.27844 0.80669 0.55945 0.0
H969 H 0.24304 0.83889 0.60298 0.0
H970 H 0.23798 0.77712 0.50243 0.0
H971 H 0.2292 0.75654 0.53314 0.0
H972 H 0.25994 0.77556 0.52532 0.0
H973 H 0.1944 0.81636 0.55516 0.0
H974 H 0.20346 0.82667 0.5937 0.0
H975 H 0.18582 0.79575 0.58577 0.0
C976 C 0.40759 0.18866 0.94009 0.0
C977 C 0.42369 0.18229 0.95103 0.0
C978 C 0.40706 0.20818 0.95204 0.0
C979 C 0.42297 0.22157 0.97548 0.0
C980 C 0.43866 0.21471 0.98736 0.0
C981 C 0.43883 0.19517 0.975 0.0
C982 C 0.39003 0.21493 0.9389 0.0
C983 C 0.45581 0.22846 0.01251 0.0
C984 C 0.44371 0.2861 0.98625 0.0
C985 C 0.43173 0.28582 0.01288 0.0
C986 C 0.44016 0.26519 0.97297 0.0
C987 C 0.42424 0.24349 0.98665 0.0
C988 C 0.41113 0.24302 0.01254 0.0
C989 C 0.41502 0.2642 0.02534 0.0
C990 C 0.45435 0.26641 0.9452 0.0
C991 C 0.39392 0.22021 0.02768 0.0
H992 H 0.3958 0.17878 0.9216 0.0
H993 H 0.45123 0.1903 0.98372 0.0
H994 H 0.37984 0.21717 0.95746 0.0
H995 H 0.39985 0.232 0.92692 0.0
H996 H 0.3776 0.20169 0.92246 0.0
H997 H 0.46603 0.22014 0.02024 0.0
H998 H 0.46826 0.24642 0.00432 0.0
H999 H 0.44637 0.23019 0.03244 0.0
H1000 H 0.45654 0.3027 0.97634 0.0
H1001 H 0.40559 0.2638 0.04585 0.0
H1002 H 0.44272 0.25455 0.92703 0.0
H1003 H 0.46688 0.26043 0.9514 0.0
H1004 H 0.46442 0.28444 0.93577 0.0
H1005 H 0.38193 0.20751 0.01046 0.0
H1006 H 0.38327 0.22266 0.04544 0.0
H1007 H 0.40359 0.21234 0.03862 0.0
C1008 C 0.15943 0.43077 0.5197 0.0
C1009 C 0.15726 0.44976 0.50928 0.0
C1010 C 0.17747 0.42712 0.50911 0.0
C1011 C 0.19371 0.44281 0.48751 0.0
C1012 C 0.19143 0.46181 0.47653 0.0
C1013 C 0.17324 0.46508 0.48758 0.0
C1014 C 0.17937 0.40669 0.52138 0.0
C1015 C 0.20839 0.47885 0.45339 0.0
C1016 C 0.25386 0.44841 0.48179 0.0
C1017 C 0.25143 0.43509 0.45559 0.0
C1018 C 0.23511 0.4508 0.49264 0.0
C1019 C 0.21342 0.43967 0.47689 0.0
C1020 C 0.2107 0.42584 0.45078 0.0
C1021 C 0.22973 0.42368 0.44047 0.0
C1022 C 0.23863 0.46557 0.5207 0.0
C1023 C 0.18782 0.4137 0.43341 0.0
H1024 H 0.14716 0.41883 0.53646 0.0
H1025 H 0.17167 0.47977 0.47938 0.0
H1026 H 0.17899 0.39544 0.50228 0.0
H1027 H 0.19638 0.41321 0.53337 0.0
H1028 H 0.16499 0.39577 0.53754 0.0
H1029 H 0.20381 0.49232 0.44653 0.0
H1030 H 0.2264 0.48785 0.46301 0.0
H1031 H 0.20867 0.4693 0.43265 0.0
H1032 H 0.27054 0.45725 0.49365 0.0
H1033 H 0.22769 0.41338 0.4202 0.0
H1034 H 0.22535 0.45508 0.53829 0.0
H1035 H 0.23614 0.48056 0.51474 0.0
H1036 H 0.25637 0.47251 0.53082 0.0
H1037 H 0.17333 0.40204 0.44895 0.0
H1038 H 0.18837 0.40309 0.41403 0.0
H1039 H 0.18359 0.42689 0.42433 0.0
C1040 C 0.83245 0.2859 0.98785 0.0
C1041 C 0.83796 0.28363 0.95754 0.0
C1042 C 0.81464 0.2667 0.00362 0.0
C1043 C 0.80215 0.24475 0.98874 0.0
C1044 C 0.80868 0.242 0.95888 0.0
C1045 C 0.82649 0.26148 0.94362 0.0
C1046 C 0.80824 0.27029 0.03551 0.0
C1047 C 0.79591 0.21881 0.94232 0.0
C1048 C 0.76132 0.18995 0.03384 0.0
C1049 C 0.73944 0.18799 0.02794 0.0
C1050 C 0.782 0.20848 0.02152 0.0
C1051 C 0.78071 0.22539 0.00294 0.0
C1052 C 0.75871 0.22361 -0.00284 0.0
C1053 C 0.73836 0.20494 0.00969 0.0
C1054 C 0.80517 0.20984 0.02812 0.0
C1055 C 0.75661 0.24134 0.97749 0.0
H1056 H 0.84129 0.30293 -0.00117 0.0
H1057 H 0.8308 0.25951 0.92031 0.0
H1058 H 0.79091 0.26932 0.03502 0.0
H1059 H 0.80667 0.25624 0.051 0.0
H1060 H 0.82134 0.28753 0.04518 0.0
H1061 H 0.80474 0.21892 0.92065 0.0
H1062 H 0.79454 0.20447 0.95705 0.0
H1063 H 0.77779 0.21477 0.93691 0.0
H1064 H 0.76231 0.17694 0.04794 0.0
H1065 H 0.72156 0.20362 0.00508 0.0
H1066 H 0.8175 0.22699 0.03864 0.0
H1067 H 0.81325 0.20861 0.00645 0.0
H1068 H 0.80326 0.19565 0.04367 0.0
H1069 H 0.76761 0.2592 0.98701 0.0
H1070 H 0.73824 0.2377 0.97574 0.0
H1071 H 0.76315 0.24134 0.95412 0.0
C1072 C 0.5574 0.79445 0.43222 0.0
C1073 C 0.53988 0.79909 0.4423 0.0
C1074 C 0.5606 0.77704 0.44624 0.0
C1075 C 0.54579 0.76388 0.47071 0.0
C1076 C 0.52864 0.76906 0.48164 0.0
C1077 C 0.52598 0.78665 0.46741 0.0
C1078 C 0.57928 0.77222 0.43427 0.0
C1079 C 0.51248 0.75541 0.50767 0.0
C1080 C 0.5317 0.70174 0.4875 0.0
C1081 C 0.54409 0.70472 0.51478 0.0
C1082 C 0.53299 0.72103 0.47208 0.0
C1083 C 0.5472 0.74385 0.48406 0.0
C1084 C 0.56088 0.74711 0.51051 0.0
C1085 C 0.55907 0.72748 0.52567 0.0
C1086 C 0.51806 0.71682 0.44397 0.0
C1087 C 0.57651 0.7712 0.52371 0.0
H1088 H 0.56829 0.80404 0.41291 0.0
H1089 H 0.51243 0.79013 0.47545 0.0
H1090 H 0.59038 0.77213 0.45332 0.0
H1091 H 0.57092 0.75461 0.42354 0.0
H1092 H 0.59072 0.78537 0.41705 0.0
H1093 H 0.50063 0.76219 0.51416 0.0
H1094 H 0.50157 0.73672 0.50107 0.0
H1095 H 0.52284 0.7561 0.52805 0.0
H1096 H 0.52013 0.68423 0.47889 0.0
H1097 H 0.56889 0.72996 0.54658 0.0
H1098 H 0.52883 0.72834 0.425 0.0
H1099 H 0.5042 0.72125 0.44902 0.0
H1100 H 0.50951 0.69832 0.43614 0.0
H1101 H 0.58749 0.78358 0.50553 0.0
H1102 H 0.58819 0.77105 0.54195 0.0
H1103 H 0.56555 0.77801 0.53356 0.0
C1104 C 0.39522 0.46142 0.07587 0.0
C1105 C 0.37138 0.45422 0.07878 0.0
C1106 C 0.40264 0.44532 0.06963 0.0
C1107 C 0.38579 0.42123 0.0668 0.0
C1108 C 0.36157 0.41397 0.06793 0.0
C1109 C 0.35459 0.43067 0.0737 0.0
C1110 C 0.42865 0.45401 0.068 0.0
C1111 C 0.34309 0.38848 0.06509 0.0
C1112 C 0.415 0.38727 0.04034 0.0
C1113 C 0.42275 0.38341 0.06843 0.0
C1114 C 0.40082 0.39767 0.03922 0.0
C1115 C 0.3941 0.40395 0.06684 0.0
C1116 C 0.39976 0.39757 0.09516 0.0
C1117 C 0.41426 0.38765 0.0956 0.0
C1118 C 0.39504 0.40403 0.00857 0.0
C1119 C 0.39253 0.40339 0.12518 0.0
H1120 H 0.4082 0.47972 0.07932 0.0
H1121 H 0.33613 0.42509 0.07594 0.0
H1122 H 0.43408 0.44774 0.08828 0.0
H1123 H 0.4328 0.44696 0.04739 0.0
H1124 H 0.43926 0.47344 0.06738 0.0
H1125 H 0.32554 0.38627 0.06003 0.0
H1126 H 0.3477 0.37975 0.04691 0.0
H1127 H 0.34195 0.37941 0.08693 0.0
H1128 H 0.42156 0.38397 0.0193 0.0
H1129 H 0.42 0.38434 0.11735 0.0
H1130 H 0.40724 0.42289 0.00402 0.0
H1131 H 0.37695 0.4012 0.00833 0.0
H1132 H 0.39687 0.3937 0.98978 0.0
H1133 H 0.40333 0.4225 0.12951 0.0
H1134 H 0.39494 0.39395 0.14465 0.0
H1135 H 0.3739 0.39892 0.12441 0.0
C1136 C 0.01801 0.41056 0.52568 0.0
C1137 C 0.04104 0.41693 0.51771 0.0
C1138 C -0.00071 0.3882 0.51953 0.0
C1139 C 0.00348 0.37165 0.50418 0.0
C1140 C 0.02641 0.37854 0.49371 0.0
C1141 C 0.04504 0.40108 0.50092 0.0
C1142 C 0.97525 0.38202 0.53133 0.0
C1143 C 0.03176 0.36211 0.47604 0.0
C1144 C 0.9581 0.31692 0.53904 0.0
C1145 C 0.93877 0.31491 0.52294 0.0
C1146 C 0.98095 0.33286 0.52954 0.0
C1147 C 0.98415 0.3468 0.50339 0.0
C1148 C 0.96499 0.34042 0.48334 0.0
C1149 C 0.94218 0.32458 0.49358 0.0
C1150 C 0.00109 0.3379 0.55059 0.0
C1151 C 0.96814 0.35328 0.45368 0.0
H1152 H 0.01461 0.4228 0.5381 0.0
H1153 H 0.06276 0.40595 0.4942 0.0
H1154 H 0.96253 0.37645 0.5122 0.0
H1155 H 0.96891 0.36728 0.54778 0.0
H1156 H 0.97521 0.39696 0.54307 0.0
H1157 H 0.04438 0.37173 0.45737 0.0
H1158 H 0.04027 0.3552 0.49147 0.0
H1159 H 0.01582 0.34715 0.46601 0.0
H1160 H 0.95538 0.30885 0.56141 0.0
H1161 H 0.92723 0.32262 0.48066 0.0
H1162 H 0.00606 0.35415 0.56374 0.0
H1163 H 0.0166 0.34071 0.53727 0.0
H1164 H 0.99641 0.32338 0.56707 0.0
H1165 H 0.9671 0.36934 0.45798 0.0
H1166 H 0.95415 0.34223 0.43709 0.0
H1167 H 0.98555 0.35862 0.44347 0.0
C1168 C 0.62837 0.96286 0.04254 0.0
C1169 C 0.62077 0.96243 0.07262 0.0
C1170 C 0.64102 0.98424 0.02669 0.0
C1171 C 0.64542 0.00534 0.04107 0.0
C1172 C 0.64011 0.00506 0.07256 0.0
C1173 C 0.62828 0.98368 0.08796 0.0
C1174 C 0.64808 0.98374 0.99406 0.0
C1175 C 0.6445 0.02698 0.08938 0.0
C1176 C 0.6728 0.06903 0.02424 0.0
C1177 C 0.65218 0.06985 0.01909 0.0
C1178 C 0.67204 0.0473 0.02563 0.0
C1179 C 0.65013 0.0264 0.02295 0.0
C1180 C 0.63053 0.02759 0.01185 0.0
C1181 C 0.6319 0.04943 0.00979 0.0
C1182 C 0.69397 0.04669 0.03379 0.0
C1183 C 0.60703 0.00581 0.00688 0.0
H1184 H 0.62323 0.94654 0.0307 0.0
H1185 H 0.62322 0.98354 0.11157 0.0
H1186 H 0.63225 0.9759 0.97928 0.0
H1187 H 0.66078 0.00143 0.98528 0.0
H1188 H 0.65602 0.97235 0.99221 0.0
H1189 H 0.63919 0.02355 0.11378 0.0
H1190 H 0.66336 0.04035 0.08853 0.0
H1191 H 0.63455 0.03454 0.07838 0.0
H1192 H 0.68881 0.08488 0.03046 0.0
H1193 H 0.61618 0.05021 0.00456 0.0
H1194 H 0.69301 0.03022 0.02579 0.0
H1195 H 0.69632 0.0478 0.05895 0.0
H1196 H 0.70964 0.0619 0.02361 0.0
H1197 H 0.60903 0.99333 0.99198 0.0
H1198 H 0.5941 0.00979 -0.00382 0.0
H1199 H 0.59985 0.99702 0.02913 0.0
C1200 C 0.59269 0.54011 0.57305 0.0
C1201 C 0.61562 0.54406 0.57078 0.0
C1202 C 0.5882 0.55874 0.57347 0.0
C1203 C 0.60716 0.58205 0.57199 0.0
C1204 C 0.63029 0.58617 0.56786 0.0
C1205 C 0.63426 0.56704 0.56714 0.0
C1206 C 0.56319 0.55343 0.57736 0.0
C1207 C 0.65095 0.61073 0.56609 0.0
C1208 C 0.5839 0.62388 0.56269 0.0
C1209 C 0.57978 0.62688 0.59334 0.0
C1210 C 0.59514 0.61116 0.55501 0.0
C1211 C 0.60253 0.60154 0.5786 0.0
C1212 C 0.60083 0.60698 0.60947 0.0
C1213 C 0.58929 0.61941 0.61646 0.0
C1214 C 0.59688 0.60602 0.52183 0.0
C1215 C 0.60895 0.59758 0.63535 0.0
H1216 H 0.57819 0.52233 0.57534 0.0
H1217 H 0.65202 0.57015 0.56534 0.0
H1218 H 0.56107 0.55943 0.60022 0.0
H1219 H 0.55887 0.56297 0.56 0.0
H1220 H 0.55035 0.53441 0.5753 0.0
H1221 H 0.66668 0.61098 0.55645 0.0
H1222 H 0.64674 0.62215 0.55199 0.0
H1223 H 0.65533 0.61835 0.58941 0.0
H1224 H 0.57663 0.6297 0.54473 0.0
H1225 H 0.58645 0.62205 0.64019 0.0
H1226 H 0.58244 0.58814 0.51625 0.0
H1227 H 0.61368 0.60652 0.51713 0.0
H1228 H 0.59538 0.61865 0.50648 0.0
H1229 H 0.59647 0.57855 0.63812 0.0
H1230 H 0.60992 0.60643 0.65736 0.0
H1231 H 0.62644 0.59976 0.63031 0.0
C1232 C 0.95817 0.57012 0.1321 0.0
C1233 C 0.94413 0.56239 0.10586 0.0
C1234 C 0.98259 0.58416 0.12991 0.0
C1235 C 0.99327 0.59005 0.10071 0.0
C1236 C 0.97902 0.58374 0.07417 0.0
C1237 C 0.95449 0.57012 0.07709 0.0
C1238 C 0.99703 0.59101 0.15886 0.0
C1239 C 0.98968 0.5895 0.04263 0.0
C1240 C 0.05943 0.63127 0.10083 0.0
C1241 C 0.06741 0.6152 0.10364 0.0
C1242 C 0.03527 0.62346 0.09846 0.0
C1243 C 0.01896 0.59908 0.09827 0.0
C1244 C 0.0272 0.58291 0.09904 0.0
C1245 C 0.05125 0.59116 0.10209 0.0
C1246 C 0.02719 0.64124 0.09804 0.0
C1247 C 0.01051 0.55676 0.09821 0.0
H1248 H 0.95011 0.5643 0.15438 0.0
H1249 H 0.94362 0.56403 0.05677 0.0
H1250 H 0.0056 0.58024 0.16126 0.0
H1251 H 0.01108 0.60966 0.15793 0.0
H1252 H 0.98614 0.58832 0.1795 0.0
H1253 H 0.97662 0.58733 0.02494 0.0
H1254 H 0.00464 0.6077 0.04165 0.0
H1255 H 0.99653 0.5776 0.03698 0.0
H1256 H 0.07192 0.64988 0.10212 0.0
H1257 H 0.05743 0.57871 0.10385 0.0
H1258 H 0.01937 0.64119 0.12052 0.0
H1259 H 0.01342 0.63668 0.08047 0.0
H1260 H 0.04188 0.65924 0.09354 0.0
H1261 H 0.00018 0.55115 0.11968 0.0
H1262 H 0.01983 0.5467 0.09568 0.0
H1263 H -0.00206 0.55216 0.079 0.0
C1264 C 0.39787 0.04573 0.57555 0.0
C1265 C 0.4074 0.05582 0.60401 0.0
C1266 C 0.38522 0.02123 0.57201 0.0
C1267 C 0.38207 0.0067 0.59753 0.0
C1268 C 0.38944 0.01689 0.62685 0.0
C1269 C 0.40208 0.04132 0.62969 0.0
C1270 C 0.37721 0.01105 0.5405 0.0
C1271 C 0.38611 0.0021 0.65483 0.0
C1272 C 0.34816 0.94014 0.60038 0.0
C1273 C 0.36669 0.93541 0.59906 0.0
C1274 C 0.35247 0.96327 0.59755 0.0
C1275 C 0.37576 0.98182 0.59321 0.0
C1276 C 0.39409 0.9767 0.58915 0.0
C1277 C 0.38932 0.9536 0.59224 0.0
C1278 C 0.33241 0.96795 0.60151 0.0
C1279 C 0.41915 0.99584 0.58401 0.0
H1280 H 0.40177 0.05687 0.55563 0.0
H1281 H 0.40901 0.04906 0.65186 0.0
H1282 H 0.39006 0.00665 0.53063 0.0
H1283 H 0.35996 0.99467 0.54144 0.0
H1284 H 0.37586 0.02366 0.52494 0.0
H1285 H 0.38982 0.01236 0.6763 0.0
H1286 H 0.36794 0.98708 0.65583 0.0
H1287 H 0.39816 0.99489 0.65361 0.0
H1288 H 0.33061 0.92607 0.60557 0.0
H1289 H 0.40362 0.94992 0.59068 0.0
H1290 H 0.33424 0.98207 0.58595 0.0
H1291 H 0.33245 0.97381 0.6253 0.0
H1292 H 0.31522 0.95195 0.59724 0.0
H1293 H 0.42009 0.0076 0.56524 0.0
H1294 H 0.43083 0.98871 0.57825 0.0
H1295 H 0.42597 0.00662 0.60502 0.0
C1296 C 0.60664 0.62674 0.95156 0.0
C1297 C 0.60853 0.64888 0.95266 0.0
C1298 C 0.62655 0.62433 0.9506 0.0
C1299 C 0.64911 0.64463 0.95179 0.0
C1300 C 0.65106 0.66675 0.95736 0.0
C1301 C 0.63067 0.6687 0.95731 0.0
C1302 C 0.62323 0.60019 0.94491 0.0
C1303 C 0.67453 0.68866 0.96122 0.0
C1304 C 0.68804 0.61877 0.94458 0.0
C1305 C 0.68789 0.61698 0.91264 0.0
C1306 C 0.67912 0.63192 0.95872 0.0
C1307 C 0.66934 0.6426 0.94034 0.0
C1308 C 0.67331 0.64432 0.90839 0.0
C1309 C 0.68273 0.63157 0.89495 0.0
C1310 C 0.67753 0.6319 0.99306 0.0
C1311 C 0.66427 0.65649 0.88781 0.0
H1312 H 0.58951 0.61124 0.94902 0.0
H1313 H 0.63229 0.68587 0.95895 0.0
H1314 H 0.63091 0.5998 0.92249 0.0
H1315 H 0.63233 0.59576 0.96277 0.0
H1316 H 0.60446 0.58631 0.94486 0.0
H1317 H 0.67362 0.69955 0.97996 0.0
H1318 H 0.68877 0.68479 0.96638 0.0
H1319 H 0.67901 0.69928 0.94001 0.0
H1320 H 0.69261 0.60799 0.95847 0.0
H1321 H 0.68341 0.63081 0.87023 0.0
H1322 H 0.6611 0.61626 0.00067 0.0
H1323 H 0.67742 0.64777 0.00142 0.0
H1324 H 0.69244 0.63108 0.00369 0.0
H1325 H 0.64479 0.6466 0.88768 0.0
H1326 H 0.6705 0.65786 0.86389 0.0
H1327 H 0.67001 0.67437 0.89638 0.0
C1328 C 0.93937 0.60405 0.47135 0.0
C1329 C 0.94383 0.58693 0.45919 0.0
C1330 C 0.95785 0.62709 0.4765 0.0
C1331 C 0.98109 0.63312 0.46851 0.0
C1332 C 0.98571 0.61529 0.4586 0.0
C1333 C 0.96712 0.5925 0.45462 0.0
C1334 C 0.95204 0.64491 0.48902 0.0
C1335 C 0.01007 0.62045 0.44969 0.0
C1336 C 0.0255 0.68367 0.42514 0.0
C1337 C 0.04515 0.68823 0.44268 0.0
C1338 C 0.00284 0.66845 0.43595 0.0
C1339 C 0.00012 0.65794 0.46501 0.0
C1340 C 0.01947 0.66716 0.4853 0.0
C1341 C 0.04212 0.68207 0.47371 0.0
C1342 C 0.98247 0.66044 0.41417 0.0
C1343 C 0.01673 0.65837 0.51766 0.0
H1344 H 0.92144 0.59982 0.47561 0.0
H1345 H 0.97084 0.57924 0.44608 0.0
H1346 H 0.9678 0.66116 0.49691 0.0
H1347 H 0.94304 0.64948 0.47112 0.0
H1348 H 0.93963 0.63725 0.50845 0.0
H1349 H 0.01039 0.60457 0.44185 0.0
H1350 H 0.017 0.63353 0.43094 0.0
H1351 H 0.02218 0.62784 0.4694 0.0
H1352 H 0.02789 0.6892 0.40141 0.0
H1353 H 0.05728 0.68614 0.48773 0.0
H1354 H 0.96724 0.65974 0.42597 0.0
H1355 H 0.9771 0.64253 0.40585 0.0
H1356 H 0.98699 0.67224 0.39407 0.0
H1357 H -0.00084 0.6536 0.52681 0.0
H1358 H 0.03048 0.67181 0.53269 0.0
H1359 H 0.01856 0.64252 0.51826 0.0
C1360 C 0.38578 0.05565 0.94878 0.0
C1361 C 0.40987 0.06353 0.94768 0.0
C1362 C 0.36963 0.03193 0.95504 0.0
C1363 C 0.37798 0.01607 0.95998 0.0
C1364 C 0.40242 0.02478 0.96256 0.0
C1365 C 0.41801 0.04838 0.95633 0.0
C1366 C 0.34375 0.02359 0.95347 0.0
C1367 C 0.41228 0.00873 0.96832 0.0
C1368 C 0.34758 0.95127 0.97686 0.0
C1369 C 0.34884 0.94284 0.94789 0.0
C1370 C 0.35424 0.975 0.98098 0.0
C1371 C 0.36244 0.9904 0.95558 0.0
C1372 C 0.36072 0.98115 0.92586 0.0
C1373 C 0.35393 0.95749 0.92242 0.0
C1374 C 0.35468 0.98393 0.01283 0.0
C1375 C 0.36876 0.99672 0.89793 0.0
H1376 H 0.37946 0.06742 0.9423 0.0
H1377 H 0.43671 0.05465 0.95601 0.0
H1378 H 0.3375 0.01829 0.92968 0.0
H1379 H 0.33353 0.00825 0.96857 0.0
H1380 H 0.34017 0.03781 0.95999 0.0
H1381 H 0.43147 0.01862 0.97273 0.0
H1382 H 0.40351 0.99719 0.98818 0.0
H1383 H 0.40902 0.99735 0.94807 0.0
H1384 H 0.3433 0.93991 -0.00338 0.0
H1385 H 0.35431 0.95085 0.89987 0.0
H1386 H 0.35127 -0.00118 0.01258 0.0
H1387 H 0.37224 0.99016 0.02308 0.0
H1388 H 0.34149 0.96982 0.02769 0.0
H1389 H 0.36122 0.00847 0.89774 0.0
H1390 H 0.36372 0.98645 0.87635 0.0
H1391 H 0.38815 0.0079 0.8984 0.0
C1392 C 0.35807 0.39554 0.46769 0.0
C1393 C 0.33761 0.394 0.45575 0.0
C1394 C 0.36231 0.37682 0.46482 0.0
C1395 C 0.34558 0.35621 0.4496 0.0
C1396 C 0.32299 0.35296 0.44353 0.0
C1397 C 0.31928 0.37217 0.44624 0.0
C1398 C 0.38624 0.38071 0.4733 0.0
C1399 C 0.30392 0.33033 0.43019 0.0
C1400 C 0.37766 0.34509 0.38687 0.0
C1401 C 0.38442 0.33042 0.40137 0.0
C1402 C 0.36312 0.35188 0.40141 0.0
C1403 C 0.35456 0.34335 0.43116 0.0
C1404 C 0.35894 0.32622 0.44437 0.0
C1405 C 0.37408 0.32008 0.42939 0.0
C1406 C 0.35893 0.37002 0.38588 0.0
C1407 C 0.34903 0.31539 0.47505 0.0
H1408 H 0.37199 0.41234 0.4758 0.0
H1409 H 0.3032 0.37079 0.43754 0.0
H1410 H 0.38461 0.36523 0.48551 0.0
H1411 H 0.39662 0.38322 0.45222 0.0
H1412 H 0.39607 0.39638 0.48806 0.0
H1413 H 0.28631 0.32758 0.43614 0.0
H1414 H 0.30542 0.33095 0.40492 0.0
H1415 H 0.30542 0.31519 0.43848 0.0
H1416 H 0.38499 0.35255 0.36473 0.0
H1417 H 0.37884 0.30831 0.44049 0.0
H1418 H 0.36677 0.38635 0.39966 0.0
H1419 H 0.33987 0.36353 0.38389 0.0
H1420 H 0.36663 0.37451 0.36259 0.0
H1421 H 0.36299 0.32349 0.49265 0.0
H1422 H 0.34312 0.29638 0.4746 0.0
H1423 H 0.33407 0.31768 0.48193 0.0
C1424 C 0.05 0.44523 0.89266 0.0
C1425 C 0.06756 0.43945 0.88788 0.0
C1426 C 0.02631 0.42795 0.89326 0.0
C1427 C 0.0199 0.40423 0.8885 0.0
C1428 C 0.03761 0.39806 0.88566 0.0
C1429 C 0.06136 0.41582 0.88556 0.0
C1430 C 0.00809 0.43536 0.89692 0.0
C1431 C 0.0315 0.37298 0.88067 0.0
C1432 C 0.95474 0.36437 0.90143 0.0
C1433 C 0.94607 0.36515 0.87243 0.0
C1434 C 0.97906 0.37529 0.90671 0.0
C1435 C 0.99483 0.38693 0.88234 0.0
C1436 C 0.98596 0.38556 0.85245 0.0
C1437 C 0.96171 0.37487 0.84793 0.0
C1438 C 0.98779 0.37617 0.93885 0.0
C1439 C 0.00209 0.3973 0.82564 0.0
H1440 H 0.05478 0.46348 0.89499 0.0
H1441 H 0.07492 0.41131 0.8819 0.0
H1442 H -0.00141 0.43276 0.87501 0.0
H1443 H 0.995 0.42445 0.91446 0.0
H1444 H 0.01599 0.45407 0.90362 0.0
H1445 H 0.0467 0.37045 0.88523 0.0
H1446 H 0.01665 0.36091 0.89546 0.0
H1447 H 0.02596 0.36801 0.85658 0.0
H1448 H 0.94267 0.3568 0.92042 0.0
H1449 H 0.95501 0.37514 0.82537 0.0
H1450 H 0.99296 0.39352 0.94902 0.0
H1451 H 0.00348 0.37404 0.93894 0.0
H1452 H 0.97405 0.36242 0.95356 0.0
H1453 H 0.00999 0.41658 0.82766 0.0
H1454 H 0.99266 0.3917 0.80345 0.0
H1455 H 0.01662 0.39335 0.82549 0.0
C1456 C 0.56654 0.91891 0.40808 0.0
C1457 C 0.54248 0.91128 0.4074 0.0
C1458 C 0.58322 0.94301 0.40851 0.0
C1459 C 0.5755 0.95962 0.40875 0.0
C1460 C 0.5512 0.95181 0.4104 0.0
C1461 C 0.53504 0.92778 0.40941 0.0
C1462 C 0.60893 0.95062 0.40666 0.0
C1463 C 0.54213 0.96884 0.41131 0.0
C1464 C 0.61157 0.02506 0.42268 0.0
C1465 C 0.61201 0.03348 0.39312 0.0
C1466 C 0.6015 0.00086 0.4281 0.0
C1467 C 0.59208 0.98498 0.40329 0.0
C1468 C 0.59487 0.99374 0.3731 0.0
C1469 C 0.60455 0.01786 0.36844 0.0
C1470 C 0.59896 0.99225 0.4606 0.0
C1471 C 0.5856 0.97753 0.34587 0.0
H1472 H 0.57232 0.90614 0.4065 0.0
H1473 H 0.51642 0.92189 0.40935 0.0
H1474 H 0.61523 0.95644 0.38301 0.0
H1475 H 0.61941 0.96567 0.42208 0.0
H1476 H 0.61226 0.93613 0.41259 0.0
H1477 H 0.52298 0.95997 0.41586 0.0
H1478 H 0.55137 0.98229 0.42923 0.0
H1479 H 0.54558 0.97808 0.38905 0.0
H1480 H 0.61732 0.03713 0.44181 0.0
H1481 H 0.60517 0.02443 0.34551 0.0
H1482 H 0.60212 0.97724 0.46219 0.0
H1483 H 0.58078 0.98609 0.46849 0.0
H1484 H 0.61122 0.00634 0.47627 0.0
H1485 H 0.59042 0.96365 0.34746 0.0
H1486 H 0.59236 0.98708 0.32395 0.0
H1487 H 0.56616 0.96879 0.3455 0.0
C1488 C 0.47837 0.60365 0.97723 0.0
C1489 C 0.49003 0.62734 0.96896 0.0
C1490 C 0.45809 0.59411 0.99514 0.0
C1491 C 0.44872 0.60844 0.00421 0.0
C1492 C 0.45984 0.63218 0.99477 0.0
C1493 C 0.48074 0.64152 0.97776 0.0
C1494 C 0.44722 0.56885 0.00526 0.0
C1495 C 0.45012 0.64792 0.00301 0.0
C1496 C 0.38837 0.56755 0.0348 0.0
C1497 C 0.39376 0.56666 0.06562 0.0
C1498 C 0.40555 0.58363 0.01472 0.0
C1499 C 0.42857 0.59857 0.02573 0.0
C1500 C 0.43309 0.5998 0.05747 0.0
C1501 C 0.4155 0.58401 0.07709 0.0
C1502 C 0.39973 0.58298 0.98127 0.0
C1503 C 0.45729 0.61567 0.07029 0.0
H1504 H 0.48559 0.59269 0.97053 0.0
H1505 H 0.48962 0.65981 0.97106 0.0
H1506 H 0.44681 0.56786 0.0306 0.0
H1507 H 0.42886 0.55869 -0.00298 0.0
H1508 H 0.45697 0.56029 -0.00341 0.0
H1509 H 0.455 0.6619 0.98561 0.0
H1510 H 0.43074 0.63797 0.00524 0.0
H1511 H 0.45765 0.6566 0.02518 0.0
H1512 H 0.37142 0.55459 0.02583 0.0
H1513 H 0.41961 0.58394 0.10108 0.0
H1514 H 0.40598 0.57252 0.96867 0.0
H1515 H 0.40866 0.60092 0.97145 0.0
H1516 H 0.38053 0.57485 0.97753 0.0
H1517 H 0.4692 0.60915 0.06316 0.0
H1518 H 0.45727 0.61643 0.09566 0.0
H1519 H 0.46457 0.63369 0.06122 0.0
C1520 C 0.85192 0.3594 0.51794 0.0
C1521 C 0.86869 0.36446 0.54091 0.0
C1522 C 0.84944 0.37736 0.50421 0.0
C1523 C 0.86423 0.40088 0.51348 0.0
C1524 C 0.88012 0.40586 0.53795 0.0
C1525 C 0.88208 0.3876 0.55142 0.0
C1526 C 0.83202 0.37131 0.47854 0.0
C1527 C 0.89632 0.43069 0.54847 0.0
C1528 C 0.88571 0.44941 0.45484 0.0
C1529 C 0.87383 0.46131 0.46325 0.0
C1530 C 0.88202 0.42928 0.47034 0.0
C1531 C 0.86587 0.42054 0.49484 0.0
C1532 C 0.85301 0.43178 0.5027 0.0
C1533 C 0.85721 0.45215 0.48687 0.0
C1534 C 0.89621 0.41792 0.46124 0.0
C1535 C 0.83541 0.42275 0.52843 0.0
H1536 H 0.8413 0.34154 0.50989 0.0
H1537 H 0.89492 0.39171 0.56937 0.0
H1538 H 0.82229 0.38095 0.48108 0.0
H1539 H 0.8415 0.37666 0.45642 0.0
H1540 H 0.81922 0.35222 0.47757 0.0
H1541 H 0.90577 0.43138 0.56985 0.0
H1542 H 0.90949 0.44039 0.53041 0.0
H1543 H 0.88636 0.43995 0.55238 0.0
H1544 H 0.89846 0.45617 0.43648 0.0
H1545 H 0.84785 0.46112 0.49341 0.0
H1546 H 0.88443 0.39905 0.45633 0.0
H1547 H 0.90783 0.41916 0.48042 0.0
H1548 H 0.90726 0.42627 0.44078 0.0
H1549 H 0.82346 0.40359 0.52612 0.0
H1550 H 0.82477 0.43157 0.52916 0.0
H1551 H 0.84472 0.42577 0.55057 0.0
C1552 C 0.4284 0.89642 0.98849 0.0
C1553 C 0.40458 0.88039 0.99358 0.0
C1554 C 0.44595 0.89555 0.00551 0.0
C1555 C 0.43964 0.8781 0.02816 0.0
C1556 C 0.41565 0.86176 0.03348 0.0
C1557 C 0.39833 0.86318 0.0162 0.0
C1558 C 0.47131 0.9135 -0.00069 0.0
C1559 C 0.40834 0.84281 0.05732 0.0
C1560 C 0.49079 0.86968 0.04955 0.0
C1561 C 0.50002 0.88462 0.07488 0.0
C1562 C 0.47008 0.866 0.03531 0.0
C1563 C 0.45846 0.87769 0.04655 0.0
C1564 C 0.46696 0.89172 0.07311 0.0
C1565 C 0.48758 0.89496 0.08699 0.0
C1566 C 0.4614 0.8507 0.00721 0.0
C1567 C 0.45518 0.90459 0.08573 0.0
H1568 H 0.43344 0.90988 0.97119 0.0
H1569 H 0.37997 0.85067 0.02015 0.0
H1570 H 0.47959 0.92371 0.02036 0.0
H1571 H 0.48117 0.90459 0.99266 0.0
H1572 H 0.47323 0.92592 0.98084 0.0
H1573 H 0.38901 0.83122 0.05832 0.0
H1574 H 0.41651 0.83195 0.05236 0.0
H1575 H 0.41468 0.85081 0.08017 0.0
H1576 H 0.50012 0.8614 0.04023 0.0
H1577 H 0.49441 0.90637 0.10672 0.0
H1578 H 0.46471 0.86185 0.98671 0.0
H1579 H 0.44221 0.83855 0.00861 0.0
H1580 H 0.47029 0.84028 0.004 0.0
H1581 H 0.45789 0.91883 0.06975 0.0
H1582 H 0.46225 0.91248 0.10847 0.0
H1583 H 0.436 0.89262 0.08781 0.0
C1584 C 0.51351 0.35379 0.42891 0.0
C1585 C 0.50434 0.36572 0.41253 0.0
C1586 C 0.53254 0.36586 0.44898 0.0
C1587 C 0.54206 0.39025 0.4534 0.0
C1588 C 0.53356 0.40251 0.43581 0.0
C1589 C 0.51501 0.39013 0.41534 0.0
C1590 C 0.54168 0.35234 0.46653 0.0
C1591 C 0.54289 0.42844 0.44016 0.0
C1592 C 0.56377 0.41738 0.53115 0.0
C1593 C 0.58781 0.43229 0.52583 0.0
C1594 C 0.54891 0.40273 0.50814 0.0
C1595 C 0.55837 0.40248 0.47921 0.0
C1596 C 0.58289 0.41604 0.47438 0.0
C1597 C 0.59733 0.43106 0.49767 0.0
C1598 C 0.52283 0.38883 0.5142 0.0
C1599 C 0.59369 0.4156 0.44417 0.0
H1600 H 0.50554 0.33495 0.4265 0.0
H1601 H 0.50804 0.39949 0.40274 0.0
H1602 H 0.56114 0.36212 0.4671 0.0
H1603 H 0.53542 0.34997 0.4905 0.0
H1604 H 0.53562 0.33475 0.45646 0.0
H1605 H 0.53549 0.43562 0.4233 0.0
H1606 H 0.53847 0.43165 0.46348 0.0
H1607 H 0.56227 0.43826 0.4381 0.0
H1608 H 0.55619 0.41806 0.55285 0.0
H1609 H 0.61592 0.44234 0.49346 0.0
H1610 H 0.51583 0.37011 0.50841 0.0
H1611 H 0.51367 0.39547 0.49947 0.0
H1612 H 0.51846 0.38999 0.53842 0.0
H1613 H 0.58594 0.39739 0.4355 0.0
H1614 H 0.61301 0.42335 0.44597 0.0
H1615 H 0.59003 0.42578 0.42703 0.0
C1616 C 0.14926 0.55758 0.94368 0.0
C1617 C 0.16078 0.54493 0.93784 0.0
C1618 C 0.15382 0.57096 0.97022 0.0
C1619 C 0.17098 0.57246 0.99108 0.0
C1620 C 0.18387 0.56104 0.98436 0.0
C1621 C 0.17826 0.54695 0.95804 0.0
C1622 C 0.1392 0.58234 0.97671 0.0
C1623 C 0.20293 0.56289 0.00534 0.0
C1624 C 0.18183 0.61989 0.04778 0.0
C1625 C 0.16582 0.60665 0.07077 0.0
C1626 C 0.18608 0.60881 0.02318 0.0
C1627 C 0.17327 0.58406 0.02102 0.0
C1628 C 0.15868 0.57068 0.04552 0.0
C1629 C 0.15543 0.58218 0.07035 0.0
C1630 C 0.20286 0.6236 -0.00165 0.0
C1631 C 0.14447 0.54426 0.04405 0.0
H1632 H 0.13566 0.55604 0.92825 0.0
H1633 H 0.18734 0.53733 0.95351 0.0
H1634 H 0.1293 0.57529 -0.00169 0.0
H1635 H 0.15068 0.60151 0.97969 0.0
H1636 H 0.12648 0.57933 0.95813 0.0
H1637 H 0.21584 0.55988 0.99273 0.0
H1638 H 0.21234 0.5803 0.0166 0.0
H1639 H 0.19503 0.54935 0.02343 0.0
H1640 H 0.19027 0.63884 0.04833 0.0
H1641 H 0.14314 0.57184 0.08815 0.0
H1642 H 0.19284 0.62479 0.9787 0.0
H1643 H 0.21314 0.61554 0.99 0.0
H1644 H 0.21515 0.64167 0.00646 0.0
H1645 H 0.13086 0.53893 0.02602 0.0
H1646 H 0.13563 0.53641 0.06607 0.0
H1647 H 0.1558 0.53688 0.03788 0.0
C1648 C 0.5221 0.14843 0.52658 0.0
C1649 C 0.51828 0.13647 0.5544 0.0
C1650 C 0.53802 0.14863 0.50504 0.0
C1651 C 0.54994 0.13616 0.51129 0.0
C1652 C 0.54717 0.12526 0.54005 0.0
C1653 C 0.53156 0.12575 0.56134 0.0
C1654 C 0.54104 0.161 0.47493 0.0
C1655 C 0.55927 0.11148 0.54748 0.0
C1656 C 0.56184 0.10618 0.44573 0.0
C1657 C 0.58629 0.11954 0.44296 0.0
C1658 C 0.54984 0.11177 0.46748 0.0
C1659 C 0.56253 0.13154 0.48655 0.0
C1660 C 0.58714 0.14562 0.48321 0.0
C1661 C 0.59882 0.13926 0.46166 0.0
C1662 C 0.52363 0.096 0.47071 0.0
C1663 C 0.60113 0.16713 0.50268 0.0
H1664 H 0.51212 0.15701 0.52121 0.0
H1665 H 0.52883 0.11655 0.58284 0.0
H1666 H 0.55984 0.1711 0.46851 0.0
H1667 H 0.53175 0.14786 0.4567 0.0
H1668 H 0.53386 0.1731 0.47566 0.0
H1669 H 0.55707 0.10599 0.57184 0.0
H1670 H 0.55188 0.09553 0.53299 0.0
H1671 H 0.57828 0.12194 0.5424 0.0
H1672 H 0.55207 0.09085 0.43143 0.0
H1673 H 0.6177 0.14976 0.45937 0.0
H1674 H 0.5146 0.10629 0.46778 0.0
H1675 H 0.51944 0.08829 0.49399 0.0
H1676 H 0.51636 0.0815 0.45377 0.0
H1677 H 0.59318 0.17854 0.50186 0.0
H1678 H 0.6197 0.17746 0.4952 0.0
H1679 H 0.60078 0.1619 0.52685 0.0
C1680 C 0.53955 0.40478 0.98812 0.0
C1681 C 0.53525 0.41429 0.01438 0.0
C1682 C 0.55774 0.41904 0.96785 0.0
C1683 C 0.57167 0.44335 0.97385 0.0
C1684 C 0.56754 0.45293 0.00048 0.0
C1685 C 0.54952 0.43829 0.02044 0.0
C1686 C 0.56187 0.4082 0.93986 0.0
C1687 C 0.58181 0.47881 0.00757 0.0
C1688 C 0.63119 0.48368 0.9387 0.0
C1689 C 0.62548 0.49559 0.91678 0.0
C1690 C 0.61365 0.46547 0.95616 0.0
C1691 C 0.58991 0.45925 0.95184 0.0
C1692 C 0.58396 0.47042 0.92873 0.0
C1693 C 0.60179 0.48835 0.91139 0.0
C1694 C 0.62064 0.45371 0.98029 0.0
C1695 C 0.55887 0.46446 0.92356 0.0
H1696 H 0.52867 0.38624 0.98335 0.0
H1697 H 0.54634 0.44585 0.04061 0.0
H1698 H 0.55829 0.41545 0.91897 0.0
H1699 H 0.5805 0.41267 0.93884 0.0
H1700 H 0.55056 0.38883 0.93952 0.0
H1701 H 0.57661 0.4834 0.02951 0.0
H1702 H 0.60072 0.48435 0.00877 0.0
H1703 H 0.57963 0.48905 0.98899 0.0
H1704 H 0.64943 0.48898 0.94279 0.0
H1705 H 0.59716 0.49734 0.8944 0.0
H1706 H 0.60928 0.4344 0.97902 0.0
H1707 H 0.61823 0.45929 0.00328 0.0
H1708 H 0.63924 0.45821 0.97796 0.0
H1709 H 0.54727 0.44524 0.92126 0.0
H1710 H 0.55692 0.47308 0.90283 0.0
H1711 H 0.55267 0.47017 0.94362 0.0
C1712 C 0.13248 0.64292 0.45731 0.0
C1713 C 0.11512 0.6376 0.4351 0.0
C1714 C 0.13527 0.62513 0.47095 0.0
C1715 C 0.12014 0.60149 0.46246 0.0
C1716 C 0.10341 0.59617 0.43898 0.0
C1717 C 0.10118 0.61428 0.42551 0.0
C1718 C 0.15357 0.63152 0.49555 0.0
C1719 C 0.08679 0.57119 0.4294 0.0
C1720 C 0.12841 0.55065 0.48755 0.0
C1721 C 0.11274 0.54172 0.51222 0.0
C1722 C 0.13193 0.57083 0.47182 0.0
C1723 C 0.11932 0.58208 0.48085 0.0
C1724 C 0.10419 0.57362 0.5064 0.0
C1725 C 0.10119 0.55369 0.52179 0.0
C1726 C 0.1485 0.57962 0.44497 0.0
C1727 C 0.0903 0.585 0.51676 0.0
H1728 H 0.14352 0.66091 0.46461 0.0
H1729 H 0.08783 0.60997 0.40822 0.0
H1730 H 0.14486 0.62621 0.51817 0.0
H1731 H 0.16337 0.62204 0.49206 0.0
H1732 H 0.16624 0.65065 0.49611 0.0
H1733 H 0.07637 0.57017 0.40888 0.0
H1734 H 0.0966 0.56192 0.42444 0.0
H1735 H 0.07449 0.56171 0.4484 0.0
H1736 H 0.13751 0.54162 0.48011 0.0
H1737 H 0.08919 0.54713 0.54097 0.0
H1738 H 0.16051 0.59881 0.44678 0.0
H1739 H 0.13835 0.57638 0.42351 0.0
H1740 H 0.15913 0.57082 0.44324 0.0
H1741 H 0.10219 0.60394 0.52109 0.0
H1742 H 0.08009 0.57688 0.53789 0.0
H1743 H 0.07791 0.58347 0.49847 0.0
C1744 C 0.61704 0.16901 0.00872 0.0
C1745 C 0.60685 0.14849 0.02637 0.0
C1746 C 0.60295 0.17554 0.99187 0.0
C1747 C 0.57825 0.16074 0.99197 0.0
C1748 C 0.56795 0.14064 0.01092 0.0
C1749 C 0.58233 0.13499 0.02813 0.0
C1750 C 0.61462 0.19764 0.97299 0.0
C1751 C 0.54172 0.12409 0.01151 0.0
C1752 C 0.5293 0.16917 0.96152 0.0
C1753 C 0.52362 0.15573 0.93471 0.0
C1754 C 0.54912 0.17364 0.97888 0.0
C1755 C 0.56304 0.16388 0.96956 0.0
C1756 C 0.55875 0.15248 0.94094 0.0
C1757 C 0.53928 0.1488 0.92371 0.0
C1758 C 0.55399 0.18709 0.00842 0.0
C1759 C 0.57313 0.14179 0.93 0.0
H1760 H 0.63597 0.17973 0.00757 0.0
H1761 H 0.57423 0.11916 0.04183 0.0
H1762 H 0.61779 0.19337 0.94958 0.0
H1763 H 0.60347 0.20584 0.97116 0.0
H1764 H 0.63186 0.21058 0.98288 0.0
H1765 H 0.53653 0.10955 0.02812 0.0
H1766 H 0.53246 0.1337 0.01759 0.0
H1767 H 0.53558 0.11638 0.98847 0.0
H1768 H 0.51761 0.17508 0.96987 0.0
H1769 H 0.53539 0.13886 0.90266 0.0
H1770 H 0.57314 0.19835 0.01214 0.0
H1771 H 0.54681 0.17461 0.02781 0.0
H1772 H 0.54568 0.1982 0.0087 0.0
H1773 H 0.59211 0.15469 0.93161 0.0
H1774 H 0.56898 0.13552 0.90601 0.0
H1775 H 0.5696 0.12669 0.94482 0.0
C1776 C 0.45232 0.57655 0.57127 0.0
C1777 C 0.4659 0.60059 0.56492 0.0
C1778 C 0.43421 0.56146 0.55172 0.0
C1779 C 0.42916 0.57064 0.5254 0.0
C1780 C 0.44156 0.59513 0.52007 0.0
C1781 C 0.46002 0.60984 0.53974 0.0
C1782 C 0.42168 0.53543 0.5581 0.0
C1783 C 0.43618 0.60563 0.49274 0.0
C1784 C 0.40827 0.52754 0.46002 0.0
C1785 C 0.38381 0.51629 0.46337 0.0
C1786 C 0.42317 0.54616 0.47903 0.0
C1787 C 0.41344 0.55413 0.50164 0.0
C1788 C 0.38877 0.54401 0.50374 0.0
C1789 C 0.37419 0.52496 0.48479 0.0
C1790 C 0.44937 0.55618 0.47626 0.0
C1791 C 0.37779 0.55255 0.52694 0.0
H1792 H 0.45658 0.56921 0.59077 0.0
H1793 H 0.47024 0.62843 0.53488 0.0
H1794 H 0.40242 0.52804 0.5575 0.0
H1795 H 0.42616 0.52644 0.5401 0.0
H1796 H 0.42652 0.53131 0.58066 0.0
H1797 H 0.44395 0.6249 0.49507 0.0
H1798 H 0.44344 0.60212 0.47184 0.0
H1799 H 0.41695 0.59755 0.48948 0.0
H1800 H 0.41592 0.52109 0.44345 0.0
H1801 H 0.35531 0.51655 0.48725 0.0
H1802 H 0.45612 0.55206 0.49723 0.0
H1803 H 0.45841 0.57552 0.47412 0.0
H1804 H 0.45414 0.54903 0.45625 0.0
H1805 H 0.37905 0.54626 0.55 0.0
H1806 H 0.35899 0.54609 0.52187 0.0
H1807 H 0.38725 0.57199 0.52769 0.0
C1808 C 0.84274 0.37449 0.94598 0.0
C1809 C 0.85827 0.38667 0.92204 0.0
C1810 C 0.83942 0.38661 0.97011 0.0
C1811 C 0.85243 0.41141 0.97061 0.0
C1812 C 0.86726 0.42375 0.94577 0.0
C1813 C 0.86977 0.41122 0.92162 0.0
C1814 C 0.82291 0.37287 0.99575 0.0
C1815 C 0.88179 0.45019 0.94566 0.0
C1816 C 0.84235 0.45022 0.02545 0.0
C1817 C 0.8594 0.45474 0.0478 0.0
C1818 C 0.83877 0.43491 0.00103 0.0
C1819 C 0.85304 0.4245 -0.00144 0.0
C1820 C 0.86971 0.42844 0.02162 0.0
C1821 C 0.87247 0.44326 0.04611 0.0
C1822 C 0.82032 0.43053 0.97737 0.0
C1823 C 0.8856 0.41804 0.01959 0.0
H1824 H 0.83361 0.3555 0.94627 0.0
H1825 H 0.88181 0.42077 0.90322 0.0
H1826 H 0.83318 0.37359 0.01625 0.0
H1827 H 0.81191 0.38062 0.00212 0.0
H1828 H 0.81126 0.35419 0.98951 0.0
H1829 H 0.89123 0.45714 0.92372 0.0
H1830 H 0.87054 0.45802 0.94987 0.0
H1831 H 0.89491 0.45605 0.96439 0.0
H1832 H 0.83203 0.45887 0.02683 0.0
H1833 H 0.88572 0.4467 0.06326 0.0
H1834 H 0.80963 0.41152 0.9723 0.0
H1835 H 0.8289 0.43951 0.95575 0.0
H1836 H 0.80848 0.43704 0.98489 0.0
H1837 H 0.87507 0.39873 0.01707 0.0
H1838 H 0.89704 0.42211 0.04001 0.0
H1839 H 0.89693 0.42497 -0.00095 0.0
C1840 C 0.42099 0.82747 0.4463 0.0
C1841 C 0.43628 0.81846 0.44836 0.0
C1842 C 0.40797 0.82739 0.47161 0.0
C1843 C 0.40967 0.81733 0.4994 0.0
C1844 C 0.42287 0.80572 0.50054 0.0
C1845 C 0.43641 0.80677 0.47511 0.0
C1846 C 0.39436 0.84025 0.46941 0.0
C1847 C 0.42407 0.79369 0.52928 0.0
C1848 C 0.4081 0.85118 0.56805 0.0
C1849 C 0.38417 0.83934 0.57523 0.0
C1850 C 0.41679 0.84346 0.5443 0.0
C1851 C 0.40127 0.82289 0.52798 0.0
C1852 C 0.37741 0.80977 0.53678 0.0
C1853 C 0.369 0.81845 0.55994 0.0
C1854 C 0.44226 0.85832 0.5353 0.0
C1855 C 0.36054 0.78721 0.5209 0.0
H1856 H 0.42059 0.83637 0.42565 0.0
H1857 H 0.44787 0.79939 0.47669 0.0
H1858 H 0.37628 0.82918 0.47812 0.0
H1859 H 0.40296 0.85626 0.4838 0.0
H1860 H 0.39336 0.84554 0.44559 0.0
H1861 H 0.43017 0.78104 0.52444 0.0
H1862 H 0.43655 0.80697 0.54558 0.0
H1863 H 0.40667 0.78429 0.54059 0.0
H1864 H 0.41989 0.86738 0.57977 0.0
H1865 H 0.35051 0.80909 0.56572 0.0
H1866 H 0.44347 0.86513 0.51176 0.0
H1867 H 0.45099 0.84764 0.53528 0.0
H1868 H 0.4521 0.87345 0.55091 0.0
H1869 H 0.35429 0.79122 0.49942 0.0
H1870 H 0.34498 0.7762 0.53538 0.0
H1871 H 0.36918 0.77696 0.51487 0.0
loop_
_geom_bond_atom_site_label_1
_geom_bond_atom_site_label_2
_geom_bond_distance
_geom_bond_site_symmetry_2
_ccdc_geom_bond_type
Zn0 O3 2.031 . S
Zn0 O5 2.049 . S
Zn0 O10 2.067 . S
Zn1 O2 1.962 . S
Zn1 O4 1.986 . S
Zn1 O6 1.996 . S
Zn1 O9 1.943 . S
O2 Zn1 1.962 . S
O2 C7 1.254 . S
O3 Zn0 2.031 . S
O3 C7 1.269 . S
O4 Zn1 1.986 . S
O4 C11 1.262 . S
O5 Zn0 2.049 . S
O5 C13 1.260 . S
O6 Zn1 1.996 . S
O6 C13 1.257 . S
C7 O2 1.254 . S
C7 O3 1.269 . S
C8 O9 1.249 . S
C8 O10 1.270 . S
O9 Zn1 1.943 . S
O9 C8 1.249 . S
O10 Zn0 2.067 . S
O10 C8 1.270 . S
C11 O4 1.262 . S
C11 O12 1.232 . S
O12 C11 1.232 . S
C13 O5 1.260 . S
C13 O6 1.257 . S
Zn14 O17 2.031 . S
Zn14 O19 2.049 . S
Zn14 O24 2.067 . S
Zn15 O16 1.962 . S
Zn15 O18 1.986 . S
Zn15 O20 1.996 . S
Zn15 O23 1.943 . S
O16 Zn15 1.962 . S
O16 C21 1.254 . S
O17 Zn14 2.031 . S
O17 C21 1.269 . S
O18 Zn15 1.986 . S
O18 C25 1.262 . S
O19 Zn14 2.049 . S
O19 C27 1.260 . S
O20 Zn15 1.996 . S
O20 C27 1.257 . S
C21 O16 1.254 . S
C21 O17 1.269 . S
C22 O23 1.249 . S
C22 O24 1.270 . S
O23 Zn15 1.943 . S
O23 C22 1.249 . S
O24 Zn14 2.067 . S
O24 C22 1.270 . S
C25 O18 1.262 . S
C25 O26 1.232 . S
O26 C25 1.232 . S
C27 O19 1.260 . S
C27 O20 1.257 . S
Zn28 O31 2.031 . S
Zn28 O33 2.049 . S
Zn28 O38 2.067 . S
Zn29 O30 1.962 . S
Zn29 O32 1.986 . S
Zn29 O34 1.996 . S
Zn29 O37 1.943 . S
O30 Zn29 1.962 . S
O30 C35 1.254 . S
O31 Zn28 2.031 . S
O31 C35 1.269 . S
O32 Zn29 1.986 . S
O32 C39 1.262 . S
O33 Zn28 2.049 . S
O33 C41 1.260 . S
O34 Zn29 1.996 . S
O34 C41 1.257 . S
C35 O30 1.254 . S
C35 O31 1.269 . S
C36 O37 1.249 . S
C36 O38 1.270 . S
O37 Zn29 1.943 . S
O37 C36 1.249 . S
O38 Zn28 2.067 . S
O38 C36 1.270 . S
C39 O32 1.262 . S
C39 O40 1.232 . S
O40 C39 1.232 . S
C41 O33 1.260 . S
C41 O34 1.257 . S
Zn42 O45 2.031 . S
Zn42 O47 2.049 . S
Zn42 O52 2.067 . S
Zn43 O44 1.962 . S
Zn43 O46 1.986 . S
Zn43 O48 1.996 . S
Zn43 O51 1.943 . S
O44 Zn43 1.962 . S
O44 C49 1.254 . S
O45 Zn42 2.031 . S
O45 C49 1.269 . S
O46 Zn43 1.986 . S
O46 C53 1.262 . S
O47 Zn42 2.049 . S
O47 C55 1.260 . S
O48 Zn43 1.996 . S
O48 C55 1.257 . S
C49 O44 1.254 . S
C49 O45 1.269 . S
C50 O51 1.249 . S
C50 O52 1.270 . S
O51 Zn43 1.943 . S
O51 C50 1.249 . S
O52 Zn42 2.067 . S
O52 C50 1.270 . S
C53 O46 1.262 . S
C53 O54 1.232 . S
O54 C53 1.232 . S
C55 O47 1.260 . S
C55 O48 1.257 . S
Zn56 O59 2.031 . S
Zn56 O61 2.049 . S
Zn56 O66 2.067 . S
Zn57 O58 1.962 . S
Zn57 O60 1.986 . S
Zn57 O62 1.996 . S
Zn57 O65 1.943 . S
O58 Zn57 1.962 . S
O58 C63 1.254 . S
O59 Zn56 2.031 . S
O59 C63 1.269 . S
O60 Zn57 1.986 . S
O60 C67 1.262 . S
O61 Zn56 2.049 . S
O61 C69 1.260 . S
O62 Zn57 1.996 . S
O62 C69 1.257 . S
C63 O58 1.254 . S
C63 O59 1.269 . S
C64 O65 1.249 . S
C64 O66 1.270 . S
O65 Zn57 1.943 . S
O65 C64 1.249 . S
O66 Zn56 2.067 . S
O66 C64 1.270 . S
C67 O60 1.262 . S
C67 O68 1.232 . S
O68 C67 1.232 . S
C69 O61 1.260 . S
C69 O62 1.257 . S
Zn70 O73 2.031 . S
Zn70 O75 2.049 . S
Zn70 O80 2.067 . S
Zn71 O72 1.962 . S
Zn71 O74 1.986 . S
Zn71 O76 1.996 . S
Zn71 O79 1.943 . S
O72 Zn71 1.962 . S
O72 C77 1.254 . S
O73 Zn70 2.031 . S
O73 C77 1.269 . S
O74 Zn71 1.986 . S
O74 C81 1.262 . S
O75 Zn70 2.049 . S
O75 C83 1.260 . S
O76 Zn71 1.996 . S
O76 C83 1.257 . S
C77 O72 1.254 . S
C77 O73 1.269 . S
C78 O79 1.249 . S
C78 O80 1.270 . S
O79 Zn71 1.943 . S
O79 C78 1.249 . S
O80 Zn70 2.067 . S
O80 C78 1.270 . S
C81 O74 1.262 . S
C81 O82 1.232 . S
O82 C81 1.232 . S
C83 O75 1.260 . S
C83 O76 1.257 . S
Zn84 O87 2.031 . S
Zn84 O89 2.049 . S
Zn84 O94 2.067 . S
Zn85 O86 1.962 . S
Zn85 O88 1.986 . S
Zn85 O90 1.996 . S
Zn85 O93 1.943 . S
O86 Zn85 1.962 . S
O86 C91 1.254 . S
O87 Zn84 2.031 . S
O87 C91 1.269 . S
O88 Zn85 1.986 . S
O88 C95 1.262 . S
O89 Zn84 2.049 . S
O89 C97 1.260 . S
O90 Zn85 1.996 . S
O90 C97 1.257 . S
C91 O86 1.254 . S
C91 O87 1.269 . S
C92 O93 1.249 . S
C92 O94 1.270 . S
O93 Zn85 1.943 . S
O93 C92 1.249 . S
O94 Zn84 2.067 . S
O94 C92 1.270 . S
C95 O88 1.262 . S
C95 O96 1.232 . S
O96 C95 1.232 . S
C97 O89 1.260 . S
C97 O90 1.257 . S
Zn98 O101 2.031 . S
Zn98 O103 2.049 . S
Zn98 O108 2.067 . S
Zn99 O100 1.962 . S
Zn99 O102 1.986 . S
Zn99 O104 1.996 . S
Zn99 O107 1.943 . S
O100 Zn99 1.962 . S
O100 C105 1.254 . S
O101 Zn98 2.031 . S
O101 C105 1.269 . S
O102 Zn99 1.986 . S
O102 C109 1.262 . S
O103 Zn98 2.049 . S
O103 C111 1.260 . S
O104 Zn99 1.996 . S
O104 C111 1.257 . S
C105 O100 1.254 . S
C105 O101 1.269 . S
C106 O107 1.249 . S
C106 O108 1.270 . S
O107 Zn99 1.943 . S
O107 C106 1.249 . S
O108 Zn98 2.067 . S
O108 C106 1.270 . S
C109 O102 1.262 . S
C109 O110 1.232 . S
O110 C109 1.232 . S
C111 O103 1.260 . S
C111 O104 1.257 . S
Zn112 O115 2.031 . S
Zn112 O117 2.049 . S
Zn112 O122 2.067 . S
Zn113 O114 1.962 . S
Zn113 O116 1.986 . S
Zn113 O118 1.996 . S
Zn113 O121 1.943 . S
O114 Zn113 1.962 . S
O114 C119 1.254 . S
O115 Zn112 2.031 . S
O115 C119 1.269 . S
O116 Zn113 1.986 . S
O116 C123 1.262 . S
O117 Zn112 2.049 . S
O117 C125 1.260 . S
O118 Zn113 1.996 . S
O118 C125 1.257 . S
C119 O114 1.254 . S
C119 O115 1.269 . S
C120 O121 1.249 . S
C120 O122 1.270 . S
O121 Zn113 1.943 . S
O121 C120 1.249 . S
O122 Zn112 2.067 . S
O122 C120 1.270 . S
C123 O116 1.262 . S
C123 O124 1.232 . S
O124 C123 1.232 . S
C125 O117 1.260 . S
C125 O118 1.257 . S
Zn126 O129 2.031 . S
Zn126 O131 2.049 . S
Zn126 O136 2.067 . S
Zn127 O128 1.962 . S
Zn127 O130 1.986 . S
Zn127 O132 1.996 . S
Zn127 O135 1.943 . S
O128 Zn127 1.962 . S
O128 C133 1.254 . S
O129 Zn126 2.031 . S
O129 C133 1.269 . S
O130 Zn127 1.986 . S
O130 C137 1.262 . S
O131 Zn126 2.049 . S
O131 C139 1.260 . S
O132 Zn127 1.996 . S
O132 C139 1.257 . S
C133 O128 1.254 . S
C133 O129 1.269 . S
C134 O135 1.249 . S
C134 O136 1.270 . S
O135 Zn127 1.943 . S
O135 C134 1.249 . S
O136 Zn126 2.067 . S
O136 C134 1.270 . S
C137 O130 1.262 . S
C137 O138 1.232 . S
O138 C137 1.232 . S
C139 O131 1.260 . S
C139 O132 1.257 . S
Zn140 O143 2.031 . S
Zn140 O145 2.049 . S
Zn140 O150 2.067 . S
Zn141 O142 1.962 . S
Zn141 O144 1.986 . S
Zn141 O146 1.996 . S
Zn141 O149 1.943 . S
O142 Zn141 1.962 . S
O142 C147 1.254 . S
O143 Zn140 2.031 . S
O143 C147 1.269 . S
O144 Zn141 1.986 . S
O144 C151 1.262 . S
O145 Zn140 2.049 . S
O145 C153 1.260 . S
O146 Zn141 1.996 . S
O146 C153 1.257 . S
C147 O142 1.254 . S
C147 O143 1.269 . S
C148 O149 1.249 . S
C148 O150 1.270 . S
O149 Zn141 1.943 . S
O149 C148 1.249 . S
O150 Zn140 2.067 . S
O150 C148 1.270 . S
C151 O144 1.262 . S
C151 O152 1.232 . S
O152 C151 1.232 . S
C153 O145 1.260 . S
C153 O146 1.257 . S
Zn154 O157 2.031 . S
Zn154 O159 2.049 . S
Zn154 O164 2.067 . S
Zn155 O156 1.962 . S
Zn155 O158 1.986 . S
Zn155 O160 1.996 . S
Zn155 O163 1.943 . S
O156 Zn155 1.962 . S
O156 C161 1.254 . S
O157 Zn154 2.031 . S
O157 C161 1.269 . S
O158 Zn155 1.986 . S
O158 C165 1.262 . S
O159 Zn154 2.049 . S
O159 C167 1.260 . S
O160 Zn155 1.996 . S
O160 C167 1.257 . S
C161 O156 1.254 . S
C161 O157 1.269 . S
C162 O163 1.249 . S
C162 O164 1.270 . S
O163 Zn155 1.943 . S
O163 C162 1.249 . S
O164 Zn154 2.067 . S
O164 C162 1.270 . S
C165 O158 1.262 . S
C165 O166 1.232 . S
O166 C165 1.232 . S
C167 O159 1.260 . S
C167 O160 1.257 . S
Zn168 O171 2.031 . S
Zn168 O173 2.049 . S
Zn168 O178 2.067 . S
Zn169 O170 1.962 . S
Zn169 O172 1.986 . S
Zn169 O174 1.996 . S
Zn169 O177 1.943 . S
O170 Zn169 1.962 . S
O170 C175 1.254 . S
O171 Zn168 2.031 . S
O171 C175 1.269 . S
O172 Zn169 1.986 . S
O172 C179 1.262 . S
O173 Zn168 2.049 . S
O173 C181 1.260 . S
O174 Zn169 1.996 . S
O174 C181 1.257 . S
C175 O170 1.254 . S
C175 O171 1.269 . S
C176 O177 1.249 . S
C176 O178 1.270 . S
O177 Zn169 1.943 . S
O177 C176 1.249 . S
O178 Zn168 2.067 . S
O178 C176 1.270 . S
C179 O172 1.262 . S
C179 O180 1.232 . S
O180 C179 1.232 . S
C181 O173 1.260 . S
C181 O174 1.257 . S
Zn182 O185 2.031 . S
Zn182 O187 2.049 . S
Zn182 O192 2.067 . S
Zn183 O184 1.962 . S
Zn183 O186 1.986 . S
Zn183 O188 1.996 . S
Zn183 O191 1.943 . S
O184 Zn183 1.962 . S
O184 C189 1.254 . S
O185 Zn182 2.031 . S
O185 C189 1.269 . S
O186 Zn183 1.986 . S
O186 C193 1.262 . S
O187 Zn182 2.049 . S
O187 C195 1.260 . S
O188 Zn183 1.996 . S
O188 C195 1.257 . S
C189 O184 1.254 . S
C189 O185 1.269 . S
C190 O191 1.249 . S
C190 O192 1.270 . S
O191 Zn183 1.943 . S
O191 C190 1.249 . S
O192 Zn182 2.067 . S
O192 C190 1.270 . S
C193 O186 1.262 . S
C193 O194 1.232 . S
O194 C193 1.232 . S
C195 O187 1.260 . S
C195 O188 1.257 . S
Zn196 O199 2.031 . S
Zn196 O201 2.049 . S
Zn196 O206 2.067 . S
Zn197 O198 1.962 . S
Zn197 O200 1.986 . S
Zn197 O202 1.996 . S
Zn197 O205 1.943 . S
O198 Zn197 1.962 . S
O198 C203 1.254 . S
O199 Zn196 2.031 . S
O199 C203 1.269 . S
O200 Zn197 1.986 . S
O200 C207 1.262 . S
O201 Zn196 2.049 . S
O201 C209 1.260 . S
O202 Zn197 1.996 . S
O202 C209 1.257 . S
C203 O198 1.254 . S
C203 O199 1.269 . S
C204 O205 1.249 . S
C204 O206 1.270 . S
O205 Zn197 1.943 . S
O205 C204 1.249 . S
O206 Zn196 2.067 . S
O206 C204 1.270 . S
C207 O200 1.262 . S
C207 O208 1.232 . S
O208 C207 1.232 . S
C209 O201 1.260 . S
C209 O202 1.257 . S
Zn210 O213 2.031 . S
Zn210 O215 2.049 . S
Zn210 O220 2.067 . S
Zn211 O212 1.962 . S
Zn211 O214 1.986 . S
Zn211 O216 1.996 . S
Zn211 O219 1.943 . S
O212 Zn211 1.962 . S
O212 C217 1.254 . S
O213 Zn210 2.031 . S
O213 C217 1.269 . S
O214 Zn211 1.986 . S
O214 C221 1.262 . S
O215 Zn210 2.049 . S
O215 C223 1.260 . S
O216 Zn211 1.996 . S
O216 C223 1.257 . S
C217 O212 1.254 . S
C217 O213 1.269 . S
C218 O219 1.249 . S
C218 O220 1.270 . S
O219 Zn211 1.943 . S
O219 C218 1.249 . S
O220 Zn210 2.067 . S
O220 C218 1.270 . S
C221 O214 1.262 . S
C221 O222 1.232 . S
O222 C221 1.232 . S
C223 O215 1.260 . S
C223 O216 1.257 . S
Zn224 O227 2.031 . S
Zn224 O229 2.049 . S
Zn224 O234 2.067 . S
Zn225 O226 1.962 . S
Zn225 O228 1.986 . S
Zn225 O230 1.996 . S
Zn225 O233 1.943 . S
O226 Zn225 1.962 . S
O226 C231 1.254 . S
O227 Zn224 2.031 . S
O227 C231 1.269 . S
O228 Zn225 1.986 . S
O228 C235 1.262 . S
O229 Zn224 2.049 . S
O229 C237 1.260 . S
O230 Zn225 1.996 . S
O230 C237 1.257 . S
C231 O226 1.254 . S
C231 O227 1.269 . S
C232 O233 1.249 . S
C232 O234 1.270 . S
O233 Zn225 1.943 . S
O233 C232 1.249 . S
O234 Zn224 2.067 . S
O234 C232 1.270 . S
C235 O228 1.262 . S
C235 O236 1.232 . S
O236 C235 1.232 . S
C237 O229 1.260 . S
C237 O230 1.257 . S
Zn238 O241 2.031 . S
Zn238 O243 2.049 . S
Zn238 O248 2.067 . S
Zn239 O240 1.962 . S
Zn239 O242 1.986 . S
Zn239 O244 1.996 . S
Zn239 O247 1.943 . S
O240 Zn239 1.962 . S
O240 C245 1.254 . S
O241 Zn238 2.031 . S
O241 C245 1.269 . S
O242 Zn239 1.986 . S
O242 C249 1.262 . S
O243 Zn238 2.049 . S
O243 C251 1.260 . S
O244 Zn239 1.996 . S
O244 C251 1.257 . S
C245 O240 1.254 . S
C245 O241 1.269 . S
C246 O247 1.249 . S
C246 O248 1.270 . S
O247 Zn239 1.943 . S
O247 C246 1.249 . S
O248 Zn238 2.067 . S
O248 C246 1.270 . S
C249 O242 1.262 . S
C249 O250 1.232 . S
O250 C249 1.232 . S
C251 O243 1.260 . S
C251 O244 1.257 . S
Zn252 O255 2.031 . S
Zn252 O257 2.049 . S
Zn252 O262 2.067 . S
Zn253 O254 1.962 . S
Zn253 O256 1.986 . S
Zn253 O258 1.996 . S
Zn253 O261 1.943 . S
O254 Zn253 1.962 . S
O254 C259 1.254 . S
O255 Zn252 2.031 . S
O255 C259 1.269 . S
O256 Zn253 1.986 . S
O256 C263 1.262 . S
O257 Zn252 2.049 . S
O257 C265 1.260 . S
O258 Zn253 1.996 . S
O258 C265 1.257 . S
C259 O254 1.254 . S
C259 O255 1.269 . S
C260 O261 1.249 . S
C260 O262 1.270 . S
O261 Zn253 1.943 . S
O261 C260 1.249 . S
O262 Zn252 2.067 . S
O262 C260 1.270 . S
C263 O256 1.262 . S
C263 O264 1.232 . S
O264 C263 1.232 . S
C265 O257 1.260 . S
C265 O258 1.257 . S
Zn266 O269 2.031 . S
Zn266 O271 2.049 . S
Zn266 O276 2.067 . S
Zn267 O268 1.962 . S
Zn267 O270 1.986 . S
Zn267 O272 1.996 . S
Zn267 O275 1.943 . S
O268 Zn267 1.962 . S
O268 C273 1.254 . S
O269 Zn266 2.031 . S
O269 C273 1.269 . S
O270 Zn267 1.986 . S
O270 C277 1.262 . S
O271 Zn266 2.049 . S
O271 C279 1.260 . S
O272 Zn267 1.996 . S
O272 C279 1.257 . S
C273 O268 1.254 . S
C273 O269 1.269 . S
C274 O275 1.249 . S
C274 O276 1.270 . S
O275 Zn267 1.943 . S
O275 C274 1.249 . S
O276 Zn266 2.067 . S
O276 C274 1.270 . S
C277 O270 1.262 . S
C277 O278 1.232 . S
O278 C277 1.232 . S
C279 O271 1.260 . S
C279 O272 1.257 . S
Zn280 O283 2.031 . S
Zn280 O285 2.049 . S
Zn280 O290 2.067 . S
Zn281 O282 1.962 . S
Zn281 O284 1.986 . S
Zn281 O286 1.996 . S
Zn281 O289 1.943 . S
O282 Zn281 1.962 . S
O282 C287 1.254 . S
O283 Zn280 2.031 . S
O283 C287 1.269 . S
O284 Zn281 1.986 . S
O284 C291 1.262 . S
O285 Zn280 2.049 . S
O285 C293 1.260 . S
O286 Zn281 1.996 . S
O286 C293 1.257 . S
C287 O282 1.254 . S
C287 O283 1.269 . S
C288 O289 1.249 . S
C288 O290 1.270 . S
O289 Zn281 1.943 . S
O289 C288 1.249 . S
O290 Zn280 2.067 . S
O290 C288 1.270 . S
C291 O284 1.262 . S
C291 O292 1.232 . S
O292 C291 1.232 . S
C293 O285 1.260 . S
C293 O286 1.257 . S
Zn294 O297 2.031 . S
Zn294 O299 2.049 . S
Zn294 O304 2.067 . S
Zn295 O296 1.962 . S
Zn295 O298 1.986 . S
Zn295 O300 1.996 . S
Zn295 O303 1.943 . S
O296 Zn295 1.962 . S
O296 C301 1.254 . S
O297 Zn294 2.031 . S
O297 C301 1.269 . S
O298 Zn295 1.986 . S
O298 C305 1.262 . S
O299 Zn294 2.049 . S
O299 C307 1.260 . S
O300 Zn295 1.996 . S
O300 C307 1.257 . S
C301 O296 1.254 . S
C301 O297 1.269 . S
C302 O303 1.249 . S
C302 O304 1.270 . S
O303 Zn295 1.943 . S
O303 C302 1.249 . S
O304 Zn294 2.067 . S
O304 C302 1.270 . S
C305 O298 1.262 . S
C305 O306 1.232 . S
O306 C305 1.232 . S
C307 O299 1.260 . S
C307 O300 1.257 . S
Zn308 O311 2.031 . S
Zn308 O313 2.049 . S
Zn308 O318 2.067 . S
Zn309 O310 1.962 . S
Zn309 O312 1.986 . S
Zn309 O314 1.996 . S
Zn309 O317 1.943 . S
O310 Zn309 1.962 . S
O310 C315 1.254 . S
O311 Zn308 2.031 . S
O311 C315 1.269 . S
O312 Zn309 1.986 . S
O312 C319 1.262 . S
O313 Zn308 2.049 . S
O313 C321 1.260 . S
O314 Zn309 1.996 . S
O314 C321 1.257 . S
C315 O310 1.254 . S
C315 O311 1.269 . S
C316 O317 1.249 . S
C316 O318 1.270 . S
O317 Zn309 1.943 . S
O317 C316 1.249 . S
O318 Zn308 2.067 . S
O318 C316 1.270 . S
C319 O312 1.262 . S
C319 O320 1.232 . S
O320 C319 1.232 . S
C321 O313 1.260 . S
C321 O314 1.257 . S
Zn322 O325 2.031 . S
Zn322 O327 2.049 . S
Zn322 O332 2.067 . S
Zn323 O324 1.962 . S
Zn323 O326 1.986 . S
Zn323 O328 1.996 . S
Zn323 O331 1.943 . S
O324 Zn323 1.962 . S
O324 C329 1.254 . S
O325 Zn322 2.031 . S
O325 C329 1.269 . S
O326 Zn323 1.986 . S
O326 C333 1.262 . S
O327 Zn322 2.049 . S
O327 C335 1.260 . S
O328 Zn323 1.996 . S
O328 C335 1.257 . S
C329 O324 1.254 . S
C329 O325 1.269 . S
C330 O331 1.249 . S
C330 O332 1.270 . S
O331 Zn323 1.943 . S
O331 C330 1.249 . S
O332 Zn322 2.067 . S
O332 C330 1.270 . S
C333 O326 1.262 . S
C333 O334 1.232 . S
O334 C333 1.232 . S
C335 O327 1.260 . S
C335 O328 1.257 . S
C336 C337 1.391 . S
C336 C338 1.394 . S
C336 H352 0.931 . S
C337 C336 1.391 . S
C337 C341 1.376 . S
C338 C336 1.394 . S
C338 C339 1.369 . S
C338 C342 1.531 . S
C339 C338 1.369 . S
C339 C340 1.410 . S
C339 C347 1.503 . S
C340 C339 1.410 . S
C340 C341 1.392 . S
C340 C343 1.511 . S
C341 C337 1.376 . S
C341 C340 1.392 . S
C341 H353 0.929 . S
C342 C338 1.531 . S
C342 H354 0.960 . S
C342 H355 0.962 . S
C342 H356 0.960 . S
C343 C340 1.511 . S
C343 H357 0.961 . S
C343 H358 0.961 . S
C343 H359 0.961 . S
C344 C345 1.370 . S
C344 C346 1.363 . S
C344 H360 0.931 . S
C345 C344 1.370 . S
C345 C349 1.408 . S
C346 C344 1.363 . S
C346 C347 1.370 . S
C346 C350 1.524 . S
C347 C339 1.503 . S
C347 C346 1.370 . S
C347 C348 1.403 . S
C348 C347 1.403 . S
C348 C349 1.404 . S
C348 C351 1.539 . S
C349 C345 1.408 . S
C349 C348 1.404 . S
C349 H361 0.930 . S
C350 C346 1.524 . S
C350 H362 0.956 . S
C350 H363 0.961 . S
C350 H364 0.961 . S
C351 C348 1.539 . S
C351 H365 0.958 . S
C351 H366 0.961 . S
C351 H367 0.960 . S
H352 C336 0.931 . S
H353 C341 0.929 . S
H354 C342 0.960 . S
H355 C342 0.962 . S
H356 C342 0.960 . S
H357 C343 0.961 . S
H358 C343 0.961 . S
H359 C343 0.961 . S
H360 C344 0.931 . S
H361 C349 0.930 . S
H362 C350 0.956 . S
H363 C350 0.961 . S
H364 C350 0.961 . S
H365 C351 0.958 . S
H366 C351 0.961 . S
H367 C351 0.960 . S
C368 C369 1.391 . S
C368 C370 1.394 . S
C368 H384 0.931 . S
C369 C368 1.391 . S
C369 C373 1.376 . S
C370 C368 1.394 . S
C370 C371 1.369 . S
C370 C374 1.531 . S
C371 C370 1.369 . S
C371 C372 1.410 . S
C371 C379 1.503 . S
C372 C371 1.410 . S
C372 C373 1.392 . S
C372 C375 1.511 . S
C373 C369 1.376 . S
C373 C372 1.392 . S
C373 H385 0.929 . S
C374 C370 1.531 . S
C374 H386 0.960 . S
C374 H387 0.962 . S
C374 H388 0.960 . S
C375 C372 1.511 . S
C375 H389 0.961 . S
C375 H390 0.961 . S
C375 H391 0.961 . S
C376 C377 1.370 . S
C376 C378 1.363 . S
C376 H392 0.931 . S
C377 C376 1.370 . S
C377 C381 1.408 . S
C378 C376 1.363 . S
C378 C379 1.370 . S
C378 C382 1.524 . S
C379 C371 1.503 . S
C379 C378 1.370 . S
C379 C380 1.403 . S
C380 C379 1.403 . S
C380 C381 1.404 . S
C380 C383 1.539 . S
C381 C377 1.408 . S
C381 C380 1.404 . S
C381 H393 0.930 . S
C382 C378 1.524 . S
C382 H394 0.956 . S
C382 H395 0.961 . S
C382 H396 0.961 . S
C383 C380 1.539 . S
C383 H397 0.958 . S
C383 H398 0.961 . S
C383 H399 0.960 . S
H384 C368 0.931 . S
H385 C373 0.929 . S
H386 C374 0.960 . S
H387 C374 0.962 . S
H388 C374 0.960 . S
H389 C375 0.961 . S
H390 C375 0.961 . S
H391 C375 0.961 . S
H392 C376 0.931 . S
H393 C381 0.930 . S
H394 C382 0.956 . S
H395 C382 0.961 . S
H396 C382 0.961 . S
H397 C383 0.958 . S
H398 C383 0.961 . S
H399 C383 0.960 . S
C400 C401 1.391 . S
C400 C402 1.394 . S
C400 H416 0.931 . S
C401 C400 1.391 . S
C401 C405 1.376 . S
C402 C400 1.394 . S
C402 C403 1.369 . S
C402 C406 1.531 . S
C403 C402 1.369 . S
C403 C404 1.410 . S
C403 C411 1.503 . S
C404 C403 1.410 . S
C404 C405 1.392 . S
C404 C407 1.511 . S
C405 C401 1.376 . S
C405 C404 1.392 . S
C405 H417 0.929 . S
C406 C402 1.531 . S
C406 H418 0.960 . S
C406 H419 0.962 . S
C406 H420 0.960 . S
C407 C404 1.511 . S
C407 H421 0.961 . S
C407 H422 0.961 . S
C407 H423 0.961 . S
C408 C409 1.370 . S
C408 C410 1.363 . S
C408 H424 0.931 . S
C409 C408 1.370 . S
C409 C413 1.408 . S
C410 C408 1.363 . S
C410 C411 1.370 . S
C410 C414 1.524 . S
C411 C403 1.503 . S
C411 C410 1.370 . S
C411 C412 1.403 . S
C412 C411 1.403 . S
C412 C413 1.404 . S
C412 C415 1.539 . S
C413 C409 1.408 . S
C413 C412 1.404 . S
C413 H425 0.930 . S
C414 C410 1.524 . S
C414 H426 0.956 . S
C414 H427 0.961 . S
C414 H428 0.961 . S
C415 C412 1.539 . S
C415 H429 0.958 . S
C415 H430 0.961 . S
C415 H431 0.960 . S
H416 C400 0.931 . S
H417 C405 0.929 . S
H418 C406 0.960 . S
H419 C406 0.962 . S
H420 C406 0.960 . S
H421 C407 0.961 . S
H422 C407 0.961 . S
H423 C407 0.961 . S
H424 C408 0.931 . S
H425 C413 0.930 . S
H426 C414 0.956 . S
H427 C414 0.961 . S
H428 C414 0.961 . S
H429 C415 0.958 . S
H430 C415 0.961 . S
H431 C415 0.960 . S
C432 C433 1.391 . S
C432 C434 1.394 . S
C432 H448 0.931 . S
C433 C432 1.391 . S
C433 C437 1.376 . S
C434 C432 1.394 . S
C434 C435 1.369 . S
C434 C438 1.531 . S
C435 C434 1.369 . S
C435 C436 1.410 . S
C435 C443 1.503 . S
C436 C435 1.410 . S
C436 C437 1.392 . S
C436 C439 1.511 . S
C437 C433 1.376 . S
C437 C436 1.392 . S
C437 H449 0.929 . S
C438 C434 1.531 . S
C438 H450 0.960 . S
C438 H451 0.962 . S
C438 H452 0.960 . S
C439 C436 1.511 . S
C439 H453 0.961 . S
C439 H454 0.961 . S
C439 H455 0.961 . S
C440 C441 1.370 . S
C440 C442 1.363 . S
C440 H456 0.931 . S
C441 C440 1.370 . S
C441 C445 1.408 . S
C442 C440 1.363 . S
C442 C443 1.370 . S
C442 C446 1.524 . S
C443 C435 1.503 . S
C443 C442 1.370 . S
C443 C444 1.403 . S
C444 C443 1.403 . S
C444 C445 1.404 . S
C444 C447 1.539 . S
C445 C441 1.408 . S
C445 C444 1.404 . S
C445 H457 0.930 . S
C446 C442 1.524 . S
C446 H458 0.956 . S
C446 H459 0.961 . S
C446 H460 0.961 . S
C447 C444 1.539 . S
C447 H461 0.958 . S
C447 H462 0.961 . S
C447 H463 0.960 . S
H448 C432 0.931 . S
H449 C437 0.929 . S
H450 C438 0.960 . S
H451 C438 0.962 . S
H452 C438 0.960 . S
H453 C439 0.961 . S
H454 C439 0.961 . S
H455 C439 0.961 . S
H456 C440 0.931 . S
H457 C445 0.930 . S
H458 C446 0.956 . S
H459 C446 0.961 . S
H460 C446 0.961 . S
H461 C447 0.958 . S
H462 C447 0.961 . S
H463 C447 0.960 . S
C464 C465 1.391 . S
C464 C466 1.394 . S
C464 H480 0.931 . S
C465 C464 1.391 . S
C465 C469 1.376 . S
C466 C464 1.394 . S
C466 C467 1.369 . S
C466 C470 1.531 . S
C467 C466 1.369 . S
C467 C468 1.410 . S
C467 C475 1.503 . S
C468 C467 1.410 . S
C468 C469 1.392 . S
C468 C471 1.511 . S
C469 C465 1.376 . S
C469 C468 1.392 . S
C469 H481 0.929 . S
C470 C466 1.531 . S
C470 H482 0.960 . S
C470 H483 0.962 . S
C470 H484 0.960 . S
C471 C468 1.511 . S
C471 H485 0.961 . S
C471 H486 0.961 . S
C471 H487 0.961 . S
C472 C473 1.370 . S
C472 C474 1.363 . S
C472 H488 0.931 . S
C473 C472 1.370 . S
C473 C477 1.408 . S
C474 C472 1.363 . S
C474 C475 1.370 . S
C474 C478 1.524 . S
C475 C467 1.503 . S
C475 C474 1.370 . S
C475 C476 1.403 . S
C476 C475 1.403 . S
C476 C477 1.404 . S
C476 C479 1.539 . S
C477 C473 1.408 . S
C477 C476 1.404 . S
C477 H489 0.930 . S
C478 C474 1.524 . S
C478 H490 0.956 . S
C478 H491 0.961 . S
C478 H492 0.961 . S
C479 C476 1.539 . S
C479 H493 0.958 . S
C479 H494 0.961 . S
C479 H495 0.960 . S
H480 C464 0.931 . S
H481 C469 0.929 . S
H482 C470 0.960 . S
H483 C470 0.962 . S
H484 C470 0.960 . S
H485 C471 0.961 . S
H486 C471 0.961 . S
H487 C471 0.961 . S
H488 C472 0.931 . S
H489 C477 0.930 . S
H490 C478 0.956 . S
H491 C478 0.961 . S
H492 C478 0.961 . S
H493 C479 0.958 . S
H494 C479 0.961 . S
H495 C479 0.960 . S
C496 C497 1.391 . S
C496 C498 1.394 . S
C496 H512 0.931 . S
C497 C496 1.391 . S
C497 C501 1.376 . S
C498 C496 1.394 . S
C498 C499 1.369 . S
C498 C502 1.531 . S
C499 C498 1.369 . S
C499 C500 1.410 . S
C499 C507 1.503 . S
C500 C499 1.410 . S
C500 C501 1.392 . S
C500 C503 1.511 . S
C501 C497 1.376 . S
C501 C500 1.392 . S
C501 H513 0.929 . S
C502 C498 1.531 . S
C502 H514 0.960 . S
C502 H515 0.962 . S
C502 H516 0.960 . S
C503 C500 1.511 . S
C503 H517 0.961 . S
C503 H518 0.961 . S
C503 H519 0.961 . S
C504 C505 1.370 . S
C504 C506 1.363 . S
C504 H520 0.931 . S
C505 C504 1.370 . S
C505 C509 1.408 . S
C506 C504 1.363 . S
C506 C507 1.370 . S
C506 C510 1.524 . S
C507 C499 1.503 . S
C507 C506 1.370 . S
C507 C508 1.403 . S
C508 C507 1.403 . S
C508 C509 1.404 . S
C508 C511 1.539 . S
C509 C505 1.408 . S
C509 C508 1.404 . S
C509 H521 0.930 . S
C510 C506 1.524 . S
C510 H522 0.956 . S
C510 H523 0.961 . S
C510 H524 0.961 . S
C511 C508 1.539 . S
C511 H525 0.958 . S
C511 H526 0.961 . S
C511 H527 0.960 . S
H512 C496 0.931 . S
H513 C501 0.929 . S
H514 C502 0.960 . S
H515 C502 0.962 . S
H516 C502 0.960 . S
H517 C503 0.961 . S
H518 C503 0.961 . S
H519 C503 0.961 . S
H520 C504 0.931 . S
H521 C509 0.930 . S
H522 C510 0.956 . S
H523 C510 0.961 . S
H524 C510 0.961 . S
H525 C511 0.958 . S
H526 C511 0.961 . S
H527 C511 0.960 . S
C528 C529 1.391 . S
C528 C530 1.394 . S
C528 H544 0.931 . S
C529 C528 1.391 . S
C529 C533 1.376 . S
C530 C528 1.394 . S
C530 C531 1.369 . S
C530 C534 1.531 . S
C531 C530 1.369 . S
C531 C532 1.410 . S
C531 C539 1.503 . S
C532 C531 1.410 . S
C532 C533 1.392 . S
C532 C535 1.511 . S
C533 C529 1.376 . S
C533 C532 1.392 . S
C533 H545 0.929 . S
C534 C530 1.531 . S
C534 H546 0.960 . S
C534 H547 0.962 . S
C534 H548 0.960 . S
C535 C532 1.511 . S
C535 H549 0.961 . S
C535 H550 0.961 . S
C535 H551 0.961 . S
C536 C537 1.370 . S
C536 C538 1.363 . S
C536 H552 0.931 . S
C537 C536 1.370 . S
C537 C541 1.408 . S
C538 C536 1.363 . S
C538 C539 1.370 . S
C538 C542 1.524 . S
C539 C531 1.503 . S
C539 C538 1.370 . S
C539 C540 1.403 . S
C540 C539 1.403 . S
C540 C541 1.404 . S
C540 C543 1.539 . S
C541 C537 1.408 . S
C541 C540 1.404 . S
C541 H553 0.930 . S
C542 C538 1.524 . S
C542 H554 0.956 . S
C542 H555 0.961 . S
C542 H556 0.961 . S
C543 C540 1.539 . S
C543 H557 0.958 . S
C543 H558 0.961 . S
C543 H559 0.960 . S
H544 C528 0.931 . S
H545 C533 0.929 . S
H546 C534 0.960 . S
H547 C534 0.962 . S
H548 C534 0.960 . S
H549 C535 0.961 . S
H550 C535 0.961 . S
H551 C535 0.961 . S
H552 C536 0.931 . S
H553 C541 0.930 . S
H554 C542 0.956 . S
H555 C542 0.961 . S
H556 C542 0.961 . S
H557 C543 0.958 . S
H558 C543 0.961 . S
H559 C543 0.960 . S
C560 C561 1.391 . S
C560 C562 1.394 . S
C560 H576 0.931 . S
C561 C560 1.391 . S
C561 C565 1.376 . S
C562 C560 1.394 . S
C562 C563 1.369 . S
C562 C566 1.531 . S
C563 C562 1.369 . S
C563 C564 1.410 . S
C563 C571 1.503 . S
C564 C563 1.410 . S
C564 C565 1.392 . S
C564 C567 1.511 . S
C565 C561 1.376 . S
C565 C564 1.392 . S
C565 H577 0.929 . S
C566 C562 1.531 . S
C566 H578 0.960 . S
C566 H579 0.962 . S
C566 H580 0.960 . S
C567 C564 1.511 . S
C567 H581 0.961 . S
C567 H582 0.961 . S
C567 H583 0.961 . S
C568 C569 1.370 . S
C568 C570 1.363 . S
C568 H584 0.931 . S
C569 C568 1.370 . S
C569 C573 1.408 . S
C570 C568 1.363 . S
C570 C571 1.370 . S
C570 C574 1.524 . S
C571 C563 1.503 . S
C571 C570 1.370 . S
C571 C572 1.403 . S
C572 C571 1.403 . S
C572 C573 1.404 . S
C572 C575 1.539 . S
C573 C569 1.408 . S
C573 C572 1.404 . S
C573 H585 0.930 . S
C574 C570 1.524 . S
C574 H586 0.956 . S
C574 H587 0.961 . S
C574 H588 0.961 . S
C575 C572 1.539 . S
C575 H589 0.958 . S
C575 H590 0.961 . S
C575 H591 0.960 . S
H576 C560 0.931 . S
H577 C565 0.929 . S
H578 C566 0.960 . S
H579 C566 0.962 . S
H580 C566 0.960 . S
H581 C567 0.961 . S
H582 C567 0.961 . S
H583 C567 0.961 . S
H584 C568 0.931 . S
H585 C573 0.930 . S
H586 C574 0.956 . S
H587 C574 0.961 . S
H588 C574 0.961 . S
H589 C575 0.958 . S
H590 C575 0.961 . S
H591 C575 0.960 . S
C592 C593 1.391 . S
C592 C594 1.394 . S
C592 H608 0.931 . S
C593 C592 1.391 . S
C593 C597 1.376 . S
C594 C592 1.394 . S
C594 C595 1.369 . S
C594 C598 1.531 . S
C595 C594 1.369 . S
C595 C596 1.410 . S
C595 C603 1.503 . S
C596 C595 1.410 . S
C596 C597 1.392 . S
C596 C599 1.511 . S
C597 C593 1.376 . S
C597 C596 1.392 . S
C597 H609 0.929 . S
C598 C594 1.531 . S
C598 H610 0.960 . S
C598 H611 0.962 . S
C598 H612 0.960 . S
C599 C596 1.511 . S
C599 H613 0.961 . S
C599 H614 0.961 . S
C599 H615 0.961 . S
C600 C601 1.370 . S
C600 C602 1.363 . S
C600 H616 0.931 . S
C601 C600 1.370 . S
C601 C605 1.408 . S
C602 C600 1.363 . S
C602 C603 1.370 . S
C602 C606 1.524 . S
C603 C595 1.503 . S
C603 C602 1.370 . S
C603 C604 1.403 . S
C604 C603 1.403 . S
C604 C605 1.404 . S
C604 C607 1.539 . S
C605 C601 1.408 . S
C605 C604 1.404 . S
C605 H617 0.930 . S
C606 C602 1.524 . S
C606 H618 0.956 . S
C606 H619 0.961 . S
C606 H620 0.961 . S
C607 C604 1.539 . S
C607 H621 0.958 . S
C607 H622 0.961 . S
C607 H623 0.960 . S
H608 C592 0.931 . S
H609 C597 0.929 . S
H610 C598 0.960 . S
H611 C598 0.962 . S
H612 C598 0.960 . S
H613 C599 0.961 . S
H614 C599 0.961 . S
H615 C599 0.961 . S
H616 C600 0.931 . S
H617 C605 0.930 . S
H618 C606 0.956 . S
H619 C606 0.961 . S
H620 C606 0.961 . S
H621 C607 0.958 . S
H622 C607 0.961 . S
H623 C607 0.960 . S
C624 C625 1.391 . S
C624 C626 1.394 . S
C624 H640 0.931 . S
C625 C624 1.391 . S
C625 C629 1.376 . S
C626 C624 1.394 . S
C626 C627 1.369 . S
C626 C630 1.531 . S
C627 C626 1.369 . S
C627 C628 1.410 . S
C627 C635 1.503 . S
C628 C627 1.410 . S
C628 C629 1.392 . S
C628 C631 1.511 . S
C629 C625 1.376 . S
C629 C628 1.392 . S
C629 H641 0.929 . S
C630 C626 1.531 . S
C630 H642 0.960 . S
C630 H643 0.962 . S
C630 H644 0.960 . S
C631 C628 1.511 . S
C631 H645 0.961 . S
C631 H646 0.961 . S
C631 H647 0.961 . S
C632 C633 1.370 . S
C632 C634 1.363 . S
C632 H648 0.931 . S
C633 C632 1.370 . S
C633 C637 1.408 . S
C634 C632 1.363 . S
C634 C635 1.370 . S
C634 C638 1.524 . S
C635 C627 1.503 . S
C635 C634 1.370 . S
C635 C636 1.403 . S
C636 C635 1.403 . S
C636 C637 1.404 . S
C636 C639 1.539 . S
C637 C633 1.408 . S
C637 C636 1.404 . S
C637 H649 0.930 . S
C638 C634 1.524 . S
C638 H650 0.956 . S
C638 H651 0.961 . S
C638 H652 0.961 . S
C639 C636 1.539 . S
C639 H653 0.958 . S
C639 H654 0.961 . S
C639 H655 0.960 . S
H640 C624 0.931 . S
H641 C629 0.929 . S
H642 C630 0.960 . S
H643 C630 0.962 . S
H644 C630 0.960 . S
H645 C631 0.961 . S
H646 C631 0.961 . S
H647 C631 0.961 . S
H648 C632 0.931 . S
H649 C637 0.930 . S
H650 C638 0.956 . S
H651 C638 0.961 . S
H652 C638 0.961 . S
H653 C639 0.958 . S
H654 C639 0.961 . S
H655 C639 0.960 . S
C656 C657 1.391 . S
C656 C658 1.394 . S
C656 H672 0.931 . S
C657 C656 1.391 . S
C657 C661 1.376 . S
C658 C656 1.394 . S
C658 C659 1.369 . S
C658 C662 1.531 . S
C659 C658 1.369 . S
C659 C660 1.410 . S
C659 C667 1.503 . S
C660 C659 1.410 . S
C660 C661 1.392 . S
C660 C663 1.511 . S
C661 C657 1.376 . S
C661 C660 1.392 . S
C661 H673 0.929 . S
C662 C658 1.531 . S
C662 H674 0.960 . S
C662 H675 0.962 . S
C662 H676 0.960 . S
C663 C660 1.511 . S
C663 H677 0.961 . S
C663 H678 0.961 . S
C663 H679 0.961 . S
C664 C665 1.370 . S
C664 C666 1.363 . S
C664 H680 0.931 . S
C665 C664 1.370 . S
C665 C669 1.408 . S
C666 C664 1.363 . S
C666 C667 1.370 . S
C666 C670 1.524 . S
C667 C659 1.503 . S
C667 C666 1.370 . S
C667 C668 1.403 . S
C668 C667 1.403 . S
C668 C669 1.404 . S
C668 C671 1.539 . S
C669 C665 1.408 . S
C669 C668 1.404 . S
C669 H681 0.930 . S
C670 C666 1.524 . S
C670 H682 0.956 . S
C670 H683 0.961 . S
C670 H684 0.961 . S
C671 C668 1.539 . S
C671 H685 0.958 . S
C671 H686 0.961 . S
C671 H687 0.960 . S
H672 C656 0.931 . S
H673 C661 0.929 . S
H674 C662 0.960 . S
H675 C662 0.962 . S
H676 C662 0.960 . S
H677 C663 0.961 . S
H678 C663 0.961 . S
H679 C663 0.961 . S
H680 C664 0.931 . S
H681 C669 0.930 . S
H682 C670 0.956 . S
H683 C670 0.961 . S
H684 C670 0.961 . S
H685 C671 0.958 . S
H686 C671 0.961 . S
H687 C671 0.960 . S
C688 C689 1.391 . S
C688 C690 1.394 . S
C688 H704 0.931 . S
C689 C688 1.391 . S
C689 C693 1.376 . S
C690 C688 1.394 . S
C690 C691 1.369 . S
C690 C694 1.531 . S
C691 C690 1.369 . S
C691 C692 1.410 . S
C691 C699 1.503 . S
C692 C691 1.410 . S
C692 C693 1.392 . S
C692 C695 1.511 . S
C693 C689 1.376 . S
C693 C692 1.392 . S
C693 H705 0.929 . S
C694 C690 1.531 . S
C694 H706 0.960 . S
C694 H707 0.962 . S
C694 H708 0.960 . S
C695 C692 1.511 . S
C695 H709 0.961 . S
C695 H710 0.961 . S
C695 H711 0.961 . S
C696 C697 1.370 . S
C696 C698 1.363 . S
C696 H712 0.931 . S
C697 C696 1.370 . S
C697 C701 1.408 . S
C698 C696 1.363 . S
C698 C699 1.370 . S
C698 C702 1.524 . S
C699 C691 1.503 . S
C699 C698 1.370 . S
C699 C700 1.403 . S
C700 C699 1.403 . S
C700 C701 1.404 . S
C700 C703 1.539 . S
C701 C697 1.408 . S
C701 C700 1.404 . S
C701 H713 0.930 . S
C702 C698 1.524 . S
C702 H714 0.956 . S
C702 H715 0.961 . S
C702 H716 0.961 . S
C703 C700 1.539 . S
C703 H717 0.958 . S
C703 H718 0.961 . S
C703 H719 0.960 . S
H704 C688 0.931 . S
H705 C693 0.929 . S
H706 C694 0.960 . S
H707 C694 0.962 . S
H708 C694 0.960 . S
H709 C695 0.961 . S
H710 C695 0.961 . S
H711 C695 0.961 . S
H712 C696 0.931 . S
H713 C701 0.930 . S
H714 C702 0.956 . S
H715 C702 0.961 . S
H716 C702 0.961 . S
H717 C703 0.958 . S
H718 C703 0.961 . S
H719 C703 0.960 . S
C720 C721 1.391 . S
C720 C722 1.394 . S
C720 H736 0.931 . S
C721 C720 1.391 . S
C721 C725 1.370 1_556 S
C722 C720 1.394 . S
C722 C723 1.369 . S
C722 C726 1.531 . S
C723 C722 1.369 . S
C723 C724 1.410 1_556 S
C723 C731 1.503 1_556 S
C724 C723 1.410 1_554 S
C724 C725 1.395 . S
C724 C727 1.511 . S
C725 C721 1.370 1_554 S
C725 C724 1.395 . S
C725 H737 0.932 . S
C726 C722 1.531 . S
C726 H738 0.960 . S
C726 H739 0.962 . S
C726 H740 0.960 . S
C727 C724 1.511 . S
C727 H741 0.961 . S
C727 H742 0.961 . S
C727 H743 0.961 . S
C728 C729 1.370 . S
C728 C730 1.363 . S
C728 H744 0.931 . S
C729 C728 1.370 . S
C729 C733 1.408 . S
C730 C728 1.363 . S
C730 C731 1.370 . S
C730 C734 1.524 1_554 S
C731 C723 1.503 1_554 S
C731 C730 1.370 . S
C731 C732 1.403 . S
C732 C731 1.403 . S
C732 C733 1.404 . S
C732 C735 1.539 . S
C733 C729 1.408 . S
C733 C732 1.404 . S
C733 H745 0.930 . S
C734 C730 1.524 1_556 S
C734 H746 0.956 . S
C734 H747 0.961 1_556 S
C734 H748 0.961 . S
C735 C732 1.539 . S
C735 H749 0.958 . S
C735 H750 0.961 . S
C735 H751 0.960 . S
H736 C720 0.931 . S
H737 C725 0.932 . S
H738 C726 0.960 . S
H739 C726 0.962 . S
H740 C726 0.960 . S
H741 C727 0.961 . S
H742 C727 0.961 . S
H743 C727 0.961 . S
H744 C728 0.931 . S
H745 C733 0.930 . S
H746 C734 0.956 . S
H747 C734 0.961 1_554 S
H748 C734 0.961 . S
H749 C735 0.958 . S
H750 C735 0.961 . S
H751 C735 0.960 . S
C752 C753 1.391 . S
C752 C754 1.394 . S
C752 H768 0.931 . S
C753 C752 1.391 . S
C753 C757 1.376 . S
C754 C752 1.394 . S
C754 C755 1.369 . S
C754 C758 1.531 . S
C755 C754 1.369 . S
C755 C756 1.410 . S
C755 C763 1.503 . S
C756 C755 1.410 . S
C756 C757 1.392 . S
C756 C759 1.511 . S
C757 C753 1.376 . S
C757 C756 1.392 . S
C757 H769 0.929 . S
C758 C754 1.531 . S
C758 H770 0.960 . S
C758 H771 0.962 . S
C758 H772 0.960 . S
C759 C756 1.511 . S
C759 H773 0.961 . S
C759 H774 0.961 . S
C759 H775 0.961 . S
C760 C761 1.370 . S
C760 C762 1.363 . S
C760 H776 0.931 . S
C761 C760 1.370 . S
C761 C765 1.408 . S
C762 C760 1.363 . S
C762 C763 1.370 . S
C762 C766 1.524 . S
C763 C755 1.503 . S
C763 C762 1.370 . S
C763 C764 1.403 . S
C764 C763 1.403 . S
C764 C765 1.404 . S
C764 C767 1.539 . S
C765 C761 1.408 . S
C765 C764 1.404 . S
C765 H777 0.930 . S
C766 C762 1.524 . S
C766 H778 0.956 . S
C766 H779 0.961 . S
C766 H780 0.961 . S
C767 C764 1.539 . S
C767 H781 0.958 . S
C767 H782 0.961 . S
C767 H783 0.960 . S
H768 C752 0.931 . S
H769 C757 0.929 . S
H770 C758 0.960 . S
H771 C758 0.962 . S
H772 C758 0.960 . S
H773 C759 0.961 . S
H774 C759 0.961 . S
H775 C759 0.961 . S
H776 C760 0.931 . S
H777 C765 0.930 . S
H778 C766 0.956 . S
H779 C766 0.961 . S
H780 C766 0.961 . S
H781 C767 0.958 . S
H782 C767 0.961 . S
H783 C767 0.960 . S
C784 C785 1.391 . S
C784 C786 1.394 1_554 S
C784 H800 0.934 . S
C785 C784 1.391 . S
C785 C789 1.376 . S
C786 C784 1.394 1_556 S
C786 C787 1.369 1_556 S
C786 C790 1.531 . S
C787 C786 1.369 1_554 S
C787 C788 1.410 . S
C787 C795 1.503 1_554 S
C788 C787 1.410 . S
C788 C789 1.392 . S
C788 C791 1.511 . S
C789 C785 1.376 . S
C789 C788 1.392 . S
C789 H801 0.929 . S
C790 C786 1.531 . S
C790 H802 0.960 . S
C790 H803 0.962 . S
C790 H804 0.960 . S
C791 C788 1.511 . S
C791 H805 0.961 . S
C791 H806 0.961 . S
C791 H807 0.961 . S
C792 C793 1.370 . S
C792 C794 1.363 1_556 S
C792 H808 0.931 1_556 S
C793 C792 1.370 . S
C793 C797 1.408 . S
C794 C792 1.363 1_554 S
C794 C795 1.370 1_554 S
C794 C798 1.524 . S
C795 C787 1.503 1_556 S
C795 C794 1.370 1_556 S
C795 C796 1.403 . S
C796 C795 1.403 . S
C796 C797 1.404 . S
C796 C799 1.539 . S
C797 C793 1.408 . S
C797 C796 1.404 . S
C797 H809 0.930 . S
C798 C794 1.524 . S
C798 H810 0.956 . S
C798 H811 0.961 . S
C798 H812 0.961 . S
C799 C796 1.539 . S
C799 H813 0.958 . S
C799 H814 0.961 . S
C799 H815 0.960 . S
H800 C784 0.934 . S
H801 C789 0.929 . S
H802 C790 0.960 . S
H803 C790 0.962 . S
H804 C790 0.960 . S
H805 C791 0.961 . S
H806 C791 0.961 . S
H807 C791 0.961 . S
H808 C792 0.931 1_554 S
H809 C797 0.930 . S
H810 C798 0.956 . S
H811 C798 0.961 . S
H812 C798 0.961 . S
H813 C799 0.958 . S
H814 C799 0.961 . S
H815 C799 0.960 . S
C816 C817 1.391 . S
C816 C818 1.394 . S
C816 H832 0.931 . S
C817 C816 1.391 . S
C817 C821 1.376 . S
C818 C816 1.394 . S
C818 C819 1.369 . S
C818 C822 1.531 . S
C819 C818 1.369 . S
C819 C820 1.410 . S
C819 C827 1.503 . S
C820 C819 1.410 . S
C820 C821 1.392 . S
C820 C823 1.511 . S
C821 C817 1.376 . S
C821 C820 1.392 . S
C821 H833 0.929 . S
C822 C818 1.531 . S
C822 H834 0.960 . S
C822 H835 0.962 . S
C822 H836 0.960 . S
C823 C820 1.511 . S
C823 H837 0.961 . S
C823 H838 0.961 . S
C823 H839 0.961 . S
C824 C825 1.370 . S
C824 C826 1.363 . S
C824 H840 0.931 . S
C825 C824 1.370 . S
C825 C829 1.408 . S
C826 C824 1.363 . S
C826 C827 1.370 . S
C826 C830 1.524 . S
C827 C819 1.503 . S
C827 C826 1.370 . S
C827 C828 1.403 . S
C828 C827 1.403 . S
C828 C829 1.404 . S
C828 C831 1.539 . S
C829 C825 1.408 . S
C829 C828 1.404 . S
C829 H841 0.930 . S
C830 C826 1.524 . S
C830 H842 0.956 . S
C830 H843 0.961 . S
C830 H844 0.961 . S
C831 C828 1.539 . S
C831 H845 0.958 . S
C831 H846 0.961 . S
C831 H847 0.960 . S
H832 C816 0.931 . S
H833 C821 0.929 . S
H834 C822 0.960 . S
H835 C822 0.962 . S
H836 C822 0.960 . S
H837 C823 0.961 . S
H838 C823 0.961 . S
H839 C823 0.961 . S
H840 C824 0.931 . S
H841 C829 0.930 . S
H842 C830 0.956 . S
H843 C830 0.961 . S
H844 C830 0.961 . S
H845 C831 0.958 . S
H846 C831 0.961 . S
H847 C831 0.960 . S
C848 C849 1.391 . S
C848 C850 1.394 . S
C848 H864 0.931 . S
C849 C848 1.391 . S
C849 C853 1.376 . S
C850 C848 1.394 . S
C850 C851 1.369 . S
C850 C854 1.531 . S
C851 C850 1.369 . S
C851 C852 1.410 1_556 S
C851 C859 1.503 1_556 S
C852 C851 1.410 1_554 S
C852 C853 1.392 1_554 S
C852 C855 1.511 . S
C853 C849 1.376 . S
C853 C852 1.392 1_556 S
C853 H865 0.922 1_556 S
C854 C850 1.531 . S
C854 H866 0.960 . S
C854 H867 0.962 . S
C854 H868 0.960 . S
C855 C852 1.511 . S
C855 H869 0.961 . S
C855 H870 0.961 . S
C855 H871 0.961 . S
C856 C857 1.370 . S
C856 C858 1.363 . S
C856 H872 0.931 . S
C857 C856 1.370 . S
C857 C861 1.408 . S
C858 C856 1.363 . S
C858 C859 1.370 . S
C858 C862 1.524 . S
C859 C851 1.503 1_554 S
C859 C858 1.370 . S
C859 C860 1.403 1_554 S
C860 C859 1.403 1_556 S
C860 C861 1.404 1_556 S
C860 C863 1.539 . S
C861 C857 1.408 . S
C861 C860 1.404 1_554 S
C861 H873 0.930 . S
C862 C858 1.524 . S
C862 H874 0.956 . S
C862 H875 0.961 . S
C862 H876 0.961 . S
C863 C860 1.539 . S
C863 H877 0.958 . S
C863 H878 0.961 . S
C863 H879 0.960 . S
H864 C848 0.931 . S
H865 C853 0.922 1_554 S
H866 C854 0.960 . S
H867 C854 0.962 . S
H868 C854 0.960 . S
H869 C855 0.961 . S
H870 C855 0.961 . S
H871 C855 0.961 . S
H872 C856 0.931 . S
H873 C861 0.930 . S
H874 C862 0.956 . S
H875 C862 0.961 . S
H876 C862 0.961 . S
H877 C863 0.958 . S
H878 C863 0.961 . S
H879 C863 0.960 . S
C880 C881 1.391 . S
C880 C882 1.394 . S
C880 H896 0.931 . S
C881 C880 1.391 . S
C881 C885 1.376 . S
C882 C880 1.394 . S
C882 C883 1.369 . S
C882 C886 1.531 . S
C883 C882 1.369 . S
C883 C884 1.410 . S
C883 C891 1.503 . S
C884 C883 1.410 . S
C884 C885 1.392 . S
C884 C887 1.511 . S
C885 C881 1.376 . S
C885 C884 1.392 . S
C885 H897 0.929 . S
C886 C882 1.531 . S
C886 H898 0.960 . S
C886 H899 0.962 . S
C886 H900 0.960 . S
C887 C884 1.511 . S
C887 H901 0.961 . S
C887 H902 0.961 . S
C887 H903 0.961 . S
C888 C889 1.370 . S
C888 C890 1.363 . S
C888 H904 0.931 . S
C889 C888 1.370 . S
C889 C893 1.408 . S
C890 C888 1.363 . S
C890 C891 1.370 . S
C890 C894 1.524 . S
C891 C883 1.503 . S
C891 C890 1.370 . S
C891 C892 1.403 . S
C892 C891 1.403 . S
C892 C893 1.404 . S
C892 C895 1.539 . S
C893 C889 1.408 . S
C893 C892 1.404 . S
C893 H905 0.930 . S
C894 C890 1.524 . S
C894 H906 0.956 . S
C894 H907 0.961 . S
C894 H908 0.961 . S
C895 C892 1.539 . S
C895 H909 0.958 . S
C895 H910 0.961 . S
C895 H911 0.960 . S
H896 C880 0.931 . S
H897 C885 0.929 . S
H898 C886 0.960 . S
H899 C886 0.962 . S
H900 C886 0.960 . S
H901 C887 0.961 . S
H902 C887 0.961 . S
H903 C887 0.961 . S
H904 C888 0.931 . S
H905 C893 0.930 . S
H906 C894 0.956 . S
H907 C894 0.961 . S
H908 C894 0.961 . S
H909 C895 0.958 . S
H910 C895 0.961 . S
H911 C895 0.960 . S
C912 C913 1.391 . S
C912 C914 1.394 1_554 S
C912 H928 0.931 1_554 S
C913 C912 1.391 . S
C913 C917 1.376 . S
C914 C912 1.394 1_556 S
C914 C915 1.369 1_556 S
C914 C918 1.531 . S
C915 C914 1.369 1_554 S
C915 C916 1.410 . S
C915 C923 1.503 1_554 S
C916 C915 1.410 . S
C916 C917 1.392 . S
C916 C919 1.511 . S
C917 C913 1.376 . S
C917 C916 1.392 . S
C917 H929 0.929 . S
C918 C914 1.531 . S
C918 H930 0.960 . S
C918 H931 0.962 . S
C918 H932 0.960 . S
C919 C916 1.511 . S
C919 H933 0.961 . S
C919 H934 0.961 . S
C919 H935 0.961 . S
C920 C921 1.370 . S
C920 C922 1.363 . S
C920 H936 0.931 . S
C921 C920 1.370 . S
C921 C925 1.408 . S
C922 C920 1.363 . S
C922 C923 1.370 . S
C922 C926 1.524 . S
C923 C915 1.503 1_556 S
C923 C922 1.370 . S
C923 C924 1.403 . S
C924 C923 1.403 . S
C924 C925 1.404 . S
C924 C927 1.539 1_556 S
C925 C921 1.408 . S
C925 C924 1.404 . S
C925 H937 0.930 . S
C926 C922 1.524 . S
C926 H938 0.956 . S
C926 H939 0.961 1_556 S
C926 H940 0.961 . S
C927 C924 1.539 1_554 S
C927 H941 0.958 1_554 S
C927 H942 0.961 . S
C927 H943 0.960 . S
H928 C912 0.931 1_556 S
H929 C917 0.929 . S
H930 C918 0.960 . S
H931 C918 0.962 . S
H932 C918 0.960 . S
H933 C919 0.961 . S
H934 C919 0.961 . S
H935 C919 0.961 . S
H936 C920 0.931 . S
H937 C925 0.930 . S
H938 C926 0.956 . S
H939 C926 0.961 1_554 S
H940 C926 0.961 . S
H941 C927 0.958 1_556 S
H942 C927 0.961 . S
H943 C927 0.960 . S
C944 C945 1.391 . S
C944 C946 1.394 . S
C944 H960 0.931 . S
C945 C944 1.391 . S
C945 C949 1.376 . S
C946 C944 1.394 . S
C946 C947 1.369 . S
C946 C950 1.531 . S
C947 C946 1.369 . S
C947 C948 1.410 . S
C947 C955 1.503 . S
C948 C947 1.410 . S
C948 C949 1.392 . S
C948 C951 1.511 . S
C949 C945 1.376 . S
C949 C948 1.392 . S
C949 H961 0.929 . S
C950 C946 1.531 . S
C950 H962 0.960 . S
C950 H963 0.962 . S
C950 H964 0.960 . S
C951 C948 1.511 . S
C951 H965 0.961 . S
C951 H966 0.961 . S
C951 H967 0.961 . S
C952 C953 1.370 . S
C952 C954 1.363 . S
C952 H968 0.931 . S
C953 C952 1.370 . S
C953 C957 1.408 . S
C954 C952 1.363 . S
C954 C955 1.370 . S
C954 C958 1.524 . S
C955 C947 1.503 . S
C955 C954 1.370 . S
C955 C956 1.403 . S
C956 C955 1.403 . S
C956 C957 1.404 . S
C956 C959 1.539 . S
C957 C953 1.408 . S
C957 C956 1.404 . S
C957 H969 0.930 . S
C958 C954 1.524 . S
C958 H970 0.956 . S
C958 H971 0.961 . S
C958 H972 0.961 . S
C959 C956 1.539 . S
C959 H973 0.958 . S
C959 H974 0.961 . S
C959 H975 0.960 . S
H960 C944 0.931 . S
H961 C949 0.929 . S
H962 C950 0.960 . S
H963 C950 0.962 . S
H964 C950 0.960 . S
H965 C951 0.961 . S
H966 C951 0.961 . S
H967 C951 0.961 . S
H968 C952 0.931 . S
H969 C957 0.930 . S
H970 C958 0.956 . S
H971 C958 0.961 . S
H972 C958 0.961 . S
H973 C959 0.958 . S
H974 C959 0.961 . S
H975 C959 0.960 . S
C976 C977 1.391 . S
C976 C978 1.394 . S
C976 H992 0.931 . S
C977 C976 1.391 . S
C977 C981 1.376 . S
C978 C976 1.394 . S
C978 C979 1.369 . S
C978 C982 1.531 . S
C979 C978 1.369 . S
C979 C980 1.410 1_556 S
C979 C987 1.503 1_556 S
C980 C979 1.410 1_554 S
C980 C981 1.392 1_554 S
C980 C983 1.511 . S
C981 C977 1.376 . S
C981 C980 1.392 1_556 S
C981 H993 0.929 . S
C982 C978 1.531 . S
C982 H994 0.960 . S
C982 H995 0.962 . S
C982 H996 0.960 . S
C983 C980 1.511 . S
C983 H997 0.961 . S
C983 H998 0.961 . S
C983 H999 0.961 . S
C984 C985 1.370 . S
C984 C986 1.363 1_554 S
C984 H1000 0.931 1_554 S
C985 C984 1.370 . S
C985 C989 1.408 . S
C986 C984 1.363 1_556 S
C986 C987 1.370 1_556 S
C986 C990 1.524 . S
C987 C979 1.503 1_554 S
C987 C986 1.370 1_554 S
C987 C988 1.403 . S
C988 C987 1.403 . S
C988 C989 1.404 . S
C988 C991 1.539 . S
C989 C985 1.408 . S
C989 C988 1.404 . S
C989 H1001 0.930 . S
C990 C986 1.524 . S
C990 H1002 0.956 . S
C990 H1003 0.961 . S
C990 H1004 0.961 . S
C991 C988 1.539 . S
C991 H1005 0.958 . S
C991 H1006 0.961 . S
C991 H1007 0.960 . S
H992 C976 0.931 . S
H993 C981 0.929 . S
H994 C982 0.960 . S
H995 C982 0.962 . S
H996 C982 0.960 . S
H997 C983 0.961 . S
H998 C983 0.961 . S
H999 C983 0.961 . S
H1000 C984 0.931 1_556 S
H1001 C989 0.930 . S
H1002 C990 0.956 . S
H1003 C990 0.961 . S
H1004 C990 0.961 . S
H1005 C991 0.958 . S
H1006 C991 0.961 . S
H1007 C991 0.960 . S
C1008 C1009 1.391 . S
C1008 C1010 1.394 . S
C1008 H1024 0.931 . S
C1009 C1008 1.391 . S
C1009 C1013 1.376 . S
C1010 C1008 1.394 . S
C1010 C1011 1.369 . S
C1010 C1014 1.531 . S
C1011 C1010 1.369 . S
C1011 C1012 1.410 . S
C1011 C1019 1.503 . S
C1012 C1011 1.410 . S
C1012 C1013 1.392 . S
C1012 C1015 1.511 . S
C1013 C1009 1.376 . S
C1013 C1012 1.392 . S
C1013 H1025 0.929 . S
C1014 C1010 1.531 . S
C1014 H1026 0.960 . S
C1014 H1027 0.962 . S
C1014 H1028 0.960 . S
C1015 C1012 1.511 . S
C1015 H1029 0.961 . S
C1015 H1030 0.961 . S
C1015 H1031 0.961 . S
C1016 C1017 1.370 . S
C1016 C1018 1.363 . S
C1016 H1032 0.931 . S
C1017 C1016 1.370 . S
C1017 C1021 1.408 . S
C1018 C1016 1.363 . S
C1018 C1019 1.370 . S
C1018 C1022 1.524 . S
C1019 C1011 1.503 . S
C1019 C1018 1.370 . S
C1019 C1020 1.403 . S
C1020 C1019 1.403 . S
C1020 C1021 1.404 . S
C1020 C1023 1.539 . S
C1021 C1017 1.408 . S
C1021 C1020 1.404 . S
C1021 H1033 0.930 . S
C1022 C1018 1.524 . S
C1022 H1034 0.956 . S
C1022 H1035 0.961 . S
C1022 H1036 0.961 . S
C1023 C1020 1.539 . S
C1023 H1037 0.958 . S
C1023 H1038 0.961 . S
C1023 H1039 0.960 . S
H1024 C1008 0.931 . S
H1025 C1013 0.929 . S
H1026 C1014 0.960 . S
H1027 C1014 0.962 . S
H1028 C1014 0.960 . S
H1029 C1015 0.961 . S
H1030 C1015 0.961 . S
H1031 C1015 0.961 . S
H1032 C1016 0.931 . S
H1033 C1021 0.930 . S
H1034 C1022 0.956 . S
H1035 C1022 0.961 . S
H1036 C1022 0.961 . S
H1037 C1023 0.958 . S
H1038 C1023 0.961 . S
H1039 C1023 0.960 . S
C1040 C1041 1.391 . S
C1040 C1042 1.394 1_556 S
C1040 H1056 0.931 . S
C1041 C1040 1.391 . S
C1041 C1045 1.376 . S
C1042 C1040 1.394 1_554 S
C1042 C1043 1.364 1_554 S
C1042 C1046 1.531 . S
C1043 C1042 1.364 1_556 S
C1043 C1044 1.425 . S
C1043 C1051 1.495 1_556 S
C1044 C1043 1.425 . S
C1044 C1045 1.392 . S
C1044 C1047 1.511 . S
C1045 C1041 1.376 . S
C1045 C1044 1.392 . S
C1045 H1057 0.929 . S
C1046 C1042 1.531 . S
C1046 H1058 0.960 . S
C1046 H1059 0.962 . S
C1046 H1060 0.960 . S
C1047 C1044 1.511 . S
C1047 H1061 0.961 . S
C1047 H1062 0.961 . S
C1047 H1063 0.961 . S
C1048 C1049 1.370 . S
C1048 C1050 1.363 1_554 S
C1048 H1064 0.931 1_554 S
C1049 C1048 1.370 . S
C1049 C1053 1.408 . S
C1050 C1048 1.363 1_556 S
C1050 C1051 1.370 1_556 S
C1050 C1054 1.524 . S
C1051 C1043 1.495 1_554 S
C1051 C1050 1.370 1_554 S
C1051 C1052 1.403 . S
C1052 C1051 1.403 . S
C1052 C1053 1.404 . S
C1052 C1055 1.539 . S
C1053 C1049 1.408 . S
C1053 C1052 1.404 . S
C1053 H1065 0.930 . S
C1054 C1050 1.524 . S
C1054 H1066 0.956 . S
C1054 H1067 0.961 . S
C1054 H1068 0.961 . S
C1055 C1052 1.539 . S
C1055 H1069 0.958 . S
C1055 H1070 0.961 . S
C1055 H1071 0.960 . S
H1056 C1040 0.931 . S
H1057 C1045 0.929 . S
H1058 C1046 0.960 . S
H1059 C1046 0.962 . S
H1060 C1046 0.960 . S
H1061 C1047 0.961 . S
H1062 C1047 0.961 . S
H1063 C1047 0.961 . S
H1064 C1048 0.931 1_556 S
H1065 C1053 0.930 . S
H1066 C1054 0.956 . S
H1067 C1054 0.961 . S
H1068 C1054 0.961 . S
H1069 C1055 0.958 . S
H1070 C1055 0.961 . S
H1071 C1055 0.960 . S
C1072 C1073 1.391 . S
C1072 C1074 1.394 . S
C1072 H1088 0.931 . S
C1073 C1072 1.391 . S
C1073 C1077 1.376 . S
C1074 C1072 1.394 . S
C1074 C1075 1.369 . S
C1074 C1078 1.531 . S
C1075 C1074 1.369 . S
C1075 C1076 1.410 . S
C1075 C1083 1.503 . S
C1076 C1075 1.410 . S
C1076 C1077 1.392 . S
C1076 C1079 1.511 . S
C1077 C1073 1.376 . S
C1077 C1076 1.392 . S
C1077 H1089 0.929 . S
C1078 C1074 1.531 . S
C1078 H1090 0.960 . S
C1078 H1091 0.962 . S
C1078 H1092 0.960 . S
C1079 C1076 1.511 . S
C1079 H1093 0.961 . S
C1079 H1094 0.961 . S
C1079 H1095 0.961 . S
C1080 C1081 1.370 . S
C1080 C1082 1.363 . S
C1080 H1096 0.931 . S
C1081 C1080 1.370 . S
C1081 C1085 1.408 . S
C1082 C1080 1.363 . S
C1082 C1083 1.370 . S
C1082 C1086 1.524 . S
C1083 C1075 1.503 . S
C1083 C1082 1.370 . S
C1083 C1084 1.403 . S
C1084 C1083 1.403 . S
C1084 C1085 1.404 . S
C1084 C1087 1.539 . S
C1085 C1081 1.408 . S
C1085 C1084 1.404 . S
C1085 H1097 0.930 . S
C1086 C1082 1.524 . S
C1086 H1098 0.956 . S
C1086 H1099 0.961 . S
C1086 H1100 0.961 . S
C1087 C1084 1.539 . S
C1087 H1101 0.958 . S
C1087 H1102 0.961 . S
C1087 H1103 0.960 . S
H1088 C1072 0.931 . S
H1089 C1077 0.929 . S
H1090 C1078 0.960 . S
H1091 C1078 0.962 . S
H1092 C1078 0.960 . S
H1093 C1079 0.961 . S
H1094 C1079 0.961 . S
H1095 C1079 0.961 . S
H1096 C1080 0.931 . S
H1097 C1085 0.930 . S
H1098 C1086 0.956 . S
H1099 C1086 0.961 . S
H1100 C1086 0.961 . S
H1101 C1087 0.958 . S
H1102 C1087 0.961 . S
H1103 C1087 0.960 . S
C1104 C1105 1.391 . S
C1104 C1106 1.394 . S
C1104 H1120 0.931 . S
C1105 C1104 1.391 . S
C1105 C1109 1.376 . S
C1106 C1104 1.394 . S
C1106 C1107 1.369 . S
C1106 C1110 1.531 . S
C1107 C1106 1.369 . S
C1107 C1108 1.410 . S
C1107 C1115 1.503 . S
C1108 C1107 1.410 . S
C1108 C1109 1.392 . S
C1108 C1111 1.511 . S
C1109 C1105 1.376 . S
C1109 C1108 1.392 . S
C1109 H1121 0.929 . S
C1110 C1106 1.531 . S
C1110 H1122 0.960 . S
C1110 H1123 0.962 . S
C1110 H1124 0.960 . S
C1111 C1108 1.511 . S
C1111 H1125 0.961 . S
C1111 H1126 0.961 . S
C1111 H1127 0.961 . S
C1112 C1113 1.370 . S
C1112 C1114 1.363 . S
C1112 H1128 0.931 . S
C1113 C1112 1.370 . S
C1113 C1117 1.408 . S
C1114 C1112 1.363 . S
C1114 C1115 1.370 . S
C1114 C1118 1.524 . S
C1115 C1107 1.503 . S
C1115 C1114 1.370 . S
C1115 C1116 1.403 . S
C1116 C1115 1.403 . S
C1116 C1117 1.404 . S
C1116 C1119 1.539 . S
C1117 C1113 1.408 . S
C1117 C1116 1.404 . S
C1117 H1129 0.930 . S
C1118 C1114 1.524 . S
C1118 H1130 0.956 . S
C1118 H1131 0.961 . S
C1118 H1132 0.961 1_554 S
C1119 C1116 1.539 . S
C1119 H1133 0.958 . S
C1119 H1134 0.961 . S
C1119 H1135 0.960 . S
H1120 C1104 0.931 . S
H1121 C1109 0.929 . S
H1122 C1110 0.960 . S
H1123 C1110 0.962 . S
H1124 C1110 0.960 . S
H1125 C1111 0.961 . S
H1126 C1111 0.961 . S
H1127 C1111 0.961 . S
H1128 C1112 0.931 . S
H1129 C1117 0.930 . S
H1130 C1118 0.956 . S
H1131 C1118 0.961 . S
H1132 C1118 0.961 1_556 S
H1133 C1119 0.958 . S
H1134 C1119 0.961 . S
H1135 C1119 0.960 . S
C1136 C1137 1.391 . S
C1136 C1138 1.394 . S
C1136 H1152 0.931 . S
C1137 C1136 1.391 . S
C1137 C1141 1.376 . S
C1138 C1136 1.394 . S
C1138 C1139 1.369 . S
C1138 C1142 1.531 . S
C1139 C1138 1.369 . S
C1139 C1140 1.410 . S
C1139 C1147 1.503 1_455 S
C1140 C1139 1.410 . S
C1140 C1141 1.392 . S
C1140 C1143 1.511 . S
C1141 C1137 1.376 . S
C1141 C1140 1.392 . S
C1141 H1153 0.929 . S
C1142 C1138 1.531 . S
C1142 H1154 0.960 1_455 S
C1142 H1155 0.962 . S
C1142 H1156 0.960 . S
C1143 C1140 1.511 . S
C1143 H1157 0.961 . S
C1143 H1158 0.961 1_455 S
C1143 H1159 0.961 . S
C1144 C1145 1.370 . S
C1144 C1146 1.363 . S
C1144 H1160 0.931 . S
C1145 C1144 1.370 . S
C1145 C1149 1.408 . S
C1146 C1144 1.363 . S
C1146 C1147 1.370 . S
C1146 C1150 1.524 . S
C1147 C1139 1.503 1_655 S
C1147 C1146 1.370 . S
C1147 C1148 1.403 . S
C1148 C1147 1.403 . S
C1148 C1149 1.404 . S
C1148 C1151 1.539 . S
C1149 C1145 1.408 . S
C1149 C1148 1.404 . S
C1149 H1161 0.930 . S
C1150 C1146 1.524 . S
C1150 H1162 0.956 . S
C1150 H1163 0.961 1_655 S
C1150 H1164 0.961 . S
C1151 C1148 1.539 . S
C1151 H1165 0.958 . S
C1151 H1166 0.961 . S
C1151 H1167 0.974 . S
H1152 C1136 0.931 . S
H1153 C1141 0.929 . S
H1154 C1142 0.960 1_655 S
H1155 C1142 0.962 . S
H1156 C1142 0.960 . S
H1157 C1143 0.961 . S
H1158 C1143 0.961 1_655 S
H1159 C1143 0.961 . S
H1160 C1144 0.931 . S
H1161 C1149 0.930 . S
H1162 C1150 0.956 . S
H1163 C1150 0.961 1_455 S
H1164 C1150 0.961 . S
H1165 C1151 0.958 . S
H1166 C1151 0.961 . S
H1167 C1151 0.974 . S
C1168 C1169 1.391 . S
C1168 C1170 1.394 . S
C1168 H1184 0.931 . S
C1169 C1168 1.391 . S
C1169 C1173 1.376 . S
C1170 C1168 1.394 . S
C1170 C1171 1.369 . S
C1170 C1174 1.531 . S
C1171 C1170 1.369 . S
C1171 C1172 1.410 . S
C1171 C1179 1.503 1_565 S
C1172 C1171 1.410 . S
C1172 C1173 1.392 . S
C1172 C1175 1.511 . S
C1173 C1169 1.376 . S
C1173 C1172 1.392 . S
C1173 H1185 0.929 . S
C1174 C1170 1.531 . S
C1174 H1186 0.960 1_565 S
C1174 H1187 0.962 . S
C1174 H1188 0.960 1_554 S
C1175 C1172 1.511 . S
C1175 H1189 0.961 . S
C1175 H1190 0.961 1_565 S
C1175 H1191 0.961 . S
C1176 C1177 1.370 . S
C1176 C1178 1.363 . S
C1176 H1192 0.931 . S
C1177 C1176 1.370 . S
C1177 C1181 1.408 . S
C1178 C1176 1.363 . S
C1178 C1179 1.370 . S
C1178 C1182 1.524 . S
C1179 C1171 1.503 1_545 S
C1179 C1178 1.370 . S
C1179 C1180 1.403 . S
C1180 C1179 1.403 . S
C1180 C1181 1.404 . S
C1180 C1183 1.539 . S
C1181 C1177 1.408 . S
C1181 C1180 1.404 . S
C1181 H1193 0.930 . S
C1182 C1178 1.524 . S
C1182 H1194 0.956 . S
C1182 H1195 0.961 1_545 S
C1182 H1196 0.961 . S
C1183 C1180 1.539 . S
C1183 H1197 0.958 . S
C1183 H1198 0.961 . S
C1183 H1199 0.969 . S
H1184 C1168 0.931 . S
H1185 C1173 0.929 . S
H1186 C1174 0.960 1_545 S
H1187 C1174 0.962 . S
H1188 C1174 0.960 1_556 S
H1189 C1175 0.961 . S
H1190 C1175 0.961 1_545 S
H1191 C1175 0.961 . S
H1192 C1176 0.931 . S
H1193 C1181 0.930 . S
H1194 C1182 0.956 . S
H1195 C1182 0.961 1_565 S
H1196 C1182 0.961 . S
H1197 C1183 0.958 . S
H1198 C1183 0.961 . S
H1199 C1183 0.969 . S
C1200 C1201 1.391 . S
C1200 C1202 1.394 . S
C1200 H1216 0.931 . S
C1201 C1200 1.391 . S
C1201 C1205 1.376 . S
C1202 C1200 1.394 . S
C1202 C1203 1.369 . S
C1202 C1206 1.531 . S
C1203 C1202 1.369 . S
C1203 C1204 1.410 . S
C1203 C1211 1.503 . S
C1204 C1203 1.410 . S
C1204 C1205 1.392 . S
C1204 C1207 1.511 . S
C1205 C1201 1.376 . S
C1205 C1204 1.392 . S
C1205 H1217 0.929 . S
C1206 C1202 1.531 . S
C1206 H1218 0.960 . S
C1206 H1219 0.962 . S
C1206 H1220 0.960 . S
C1207 C1204 1.511 . S
C1207 H1221 0.961 . S
C1207 H1222 0.961 . S
C1207 H1223 0.961 . S
C1208 C1209 1.370 . S
C1208 C1210 1.363 . S
C1208 H1224 0.931 . S
C1209 C1208 1.370 . S
C1209 C1213 1.408 . S
C1210 C1208 1.363 . S
C1210 C1211 1.370 . S
C1210 C1214 1.524 . S
C1211 C1203 1.503 . S
C1211 C1210 1.370 . S
C1211 C1212 1.403 . S
C1212 C1211 1.403 . S
C1212 C1213 1.404 . S
C1212 C1215 1.539 . S
C1213 C1209 1.408 . S
C1213 C1212 1.404 . S
C1213 H1225 0.930 . S
C1214 C1210 1.524 . S
C1214 H1226 0.956 . S
C1214 H1227 0.961 . S
C1214 H1228 0.961 . S
C1215 C1212 1.539 . S
C1215 H1229 0.958 . S
C1215 H1230 0.961 . S
C1215 H1231 0.960 . S
H1216 C1200 0.931 . S
H1217 C1205 0.929 . S
H1218 C1206 0.960 . S
H1219 C1206 0.962 . S
H1220 C1206 0.960 . S
H1221 C1207 0.961 . S
H1222 C1207 0.961 . S
H1223 C1207 0.961 . S
H1224 C1208 0.931 . S
H1225 C1213 0.930 . S
H1226 C1214 0.956 . S
H1227 C1214 0.961 . S
H1228 C1214 0.961 . S
H1229 C1215 0.958 . S
H1230 C1215 0.961 . S
H1231 C1215 0.960 . S
C1232 C1233 1.391 . S
C1232 C1234 1.394 . S
C1232 H1248 0.931 . S
C1233 C1232 1.391 . S
C1233 C1237 1.376 . S
C1234 C1232 1.394 . S
C1234 C1235 1.369 . S
C1234 C1238 1.531 . S
C1235 C1234 1.369 . S
C1235 C1236 1.410 . S
C1235 C1243 1.503 1_655 S
C1236 C1235 1.410 . S
C1236 C1237 1.392 . S
C1236 C1239 1.511 . S
C1237 C1233 1.376 . S
C1237 C1236 1.392 . S
C1237 H1249 0.929 . S
C1238 C1234 1.531 . S
C1238 H1250 0.960 1_655 S
C1238 H1251 0.962 . S
C1238 H1252 0.960 . S
C1239 C1236 1.511 . S
C1239 H1253 0.961 . S
C1239 H1254 0.961 1_655 S
C1239 H1255 0.961 . S
C1240 C1241 1.370 . S
C1240 C1242 1.363 . S
C1240 H1256 0.931 . S
C1241 C1240 1.370 . S
C1241 C1245 1.408 . S
C1242 C1240 1.363 . S
C1242 C1243 1.370 . S
C1242 C1246 1.524 . S
C1243 C1235 1.503 1_455 S
C1243 C1242 1.370 . S
C1243 C1244 1.403 . S
C1244 C1243 1.403 . S
C1244 C1245 1.404 . S
C1244 C1247 1.539 . S
C1245 C1241 1.408 . S
C1245 C1244 1.404 . S
C1245 H1257 0.930 . S
C1246 C1242 1.524 . S
C1246 H1258 0.956 . S
C1246 H1259 0.961 1_455 S
C1246 H1260 0.961 . S
C1247 C1244 1.539 . S
C1247 H1261 0.958 1_554 S
C1247 H1262 0.961 1_554 S
C1247 H1263 0.974 . S
H1248 C1232 0.931 . S
H1249 C1237 0.929 . S
H1250 C1238 0.960 1_455 S
H1251 C1238 0.962 . S
H1252 C1238 0.960 . S
H1253 C1239 0.961 . S
H1254 C1239 0.961 1_455 S
H1255 C1239 0.961 . S
H1256 C1240 0.931 . S
H1257 C1245 0.930 . S
H1258 C1246 0.956 . S
H1259 C1246 0.961 1_655 S
H1260 C1246 0.961 . S
H1261 C1247 0.958 1_556 S
H1262 C1247 0.961 1_556 S
H1263 C1247 0.974 . S
C1264 C1265 1.391 . S
C1264 C1266 1.394 . S
C1264 H1280 0.931 . S
C1265 C1264 1.391 . S
C1265 C1269 1.376 . S
C1266 C1264 1.394 . S
C1266 C1267 1.369 . S
C1266 C1270 1.531 . S
C1267 C1266 1.369 . S
C1267 C1268 1.410 . S
C1267 C1275 1.503 1_545 S
C1268 C1267 1.410 . S
C1268 C1269 1.392 . S
C1268 C1271 1.511 . S
C1269 C1265 1.376 . S
C1269 C1268 1.392 . S
C1269 H1281 0.929 . S
C1270 C1266 1.531 . S
C1270 H1282 0.960 1_545 S
C1270 H1283 0.962 . S
C1270 H1284 0.960 . S
C1271 C1268 1.511 . S
C1271 H1285 0.961 . S
C1271 H1286 0.961 1_545 S
C1271 H1287 0.961 . S
C1272 C1273 1.370 . S
C1272 C1274 1.363 . S
C1272 H1288 0.931 . S
C1273 C1272 1.370 . S
C1273 C1277 1.408 . S
C1274 C1272 1.363 . S
C1274 C1275 1.370 . S
C1274 C1278 1.524 . S
C1275 C1267 1.503 1_565 S
C1275 C1274 1.370 . S
C1275 C1276 1.403 . S
C1276 C1275 1.403 . S
C1276 C1277 1.404 . S
C1276 C1279 1.539 . S
C1277 C1273 1.408 . S
C1277 C1276 1.404 . S
C1277 H1289 0.930 . S
C1278 C1274 1.524 . S
C1278 H1290 0.956 . S
C1278 H1291 0.961 1_565 S
C1278 H1292 0.961 . S
C1279 C1276 1.539 . S
C1279 H1293 0.958 . S
C1279 H1294 0.961 . S
C1279 H1295 0.968 . S
H1280 C1264 0.931 . S
H1281 C1269 0.929 . S
H1282 C1270 0.960 1_565 S
H1283 C1270 0.962 . S
H1284 C1270 0.960 . S
H1285 C1271 0.961 . S
H1286 C1271 0.961 1_565 S
H1287 C1271 0.961 . S
H1288 C1272 0.931 . S
H1289 C1277 0.930 . S
H1290 C1278 0.956 . S
H1291 C1278 0.961 1_545 S
H1292 C1278 0.961 . S
H1293 C1279 0.958 . S
H1294 C1279 0.961 . S
H1295 C1279 0.968 . S
C1296 C1297 1.391 . S
C1296 C1298 1.394 . S
C1296 H1312 0.931 . S
C1297 C1296 1.391 . S
C1297 C1301 1.376 . S
C1298 C1296 1.394 . S
C1298 C1299 1.369 . S
C1298 C1302 1.531 . S
C1299 C1298 1.369 . S
C1299 C1300 1.410 . S
C1299 C1307 1.503 . S
C1300 C1299 1.410 . S
C1300 C1301 1.392 . S
C1300 C1303 1.511 . S
C1301 C1297 1.376 . S
C1301 C1300 1.392 . S
C1301 H1313 0.929 . S
C1302 C1298 1.531 . S
C1302 H1314 0.960 . S
C1302 H1315 0.962 . S
C1302 H1316 0.960 . S
C1303 C1300 1.511 . S
C1303 H1317 0.961 . S
C1303 H1318 0.961 . S
C1303 H1319 0.961 . S
C1304 C1305 1.370 . S
C1304 C1306 1.363 . S
C1304 H1320 0.931 . S
C1305 C1304 1.370 . S
C1305 C1309 1.408 . S
C1306 C1304 1.363 . S
C1306 C1307 1.370 . S
C1306 C1310 1.524 . S
C1307 C1299 1.503 . S
C1307 C1306 1.370 . S
C1307 C1308 1.403 . S
C1308 C1307 1.403 . S
C1308 C1309 1.404 . S
C1308 C1311 1.539 . S
C1309 C1305 1.408 . S
C1309 C1308 1.404 . S
C1309 H1321 0.930 . S
C1310 C1306 1.524 . S
C1310 H1322 0.956 . S
C1310 H1323 0.961 . S
C1310 H1324 0.961 . S
C1311 C1308 1.539 . S
C1311 H1325 0.958 . S
C1311 H1326 0.961 . S
C1311 H1327 0.960 . S
H1312 C1296 0.931 . S
H1313 C1301 0.929 . S
H1314 C1302 0.960 . S
H1315 C1302 0.962 . S
H1316 C1302 0.960 . S
H1317 C1303 0.961 . S
H1318 C1303 0.961 . S
H1319 C1303 0.961 . S
H1320 C1304 0.931 . S
H1321 C1309 0.930 . S
H1322 C1310 0.956 . S
H1323 C1310 0.961 . S
H1324 C1310 0.961 . S
H1325 C1311 0.958 . S
H1326 C1311 0.961 . S
H1327 C1311 0.960 . S
C1328 C1329 1.391 . S
C1328 C1330 1.394 . S
C1328 H1344 0.931 . S
C1329 C1328 1.391 . S
C1329 C1333 1.376 . S
C1330 C1328 1.394 . S
C1330 C1331 1.369 . S
C1330 C1334 1.531 . S
C1331 C1330 1.369 . S
C1331 C1332 1.410 . S
C1331 C1339 1.503 1_655 S
C1332 C1331 1.410 . S
C1332 C1333 1.392 . S
C1332 C1335 1.511 . S
C1333 C1329 1.376 . S
C1333 C1332 1.392 . S
C1333 H1345 0.929 . S
C1334 C1330 1.531 . S
C1334 H1346 0.960 1_655 S
C1334 H1347 0.962 . S
C1334 H1348 0.960 . S
C1335 C1332 1.511 . S
C1335 H1349 0.961 . S
C1335 H1350 0.961 1_655 S
C1335 H1351 0.961 . S
C1336 C1337 1.370 . S
C1336 C1338 1.363 . S
C1336 H1352 0.931 . S
C1337 C1336 1.370 . S
C1337 C1341 1.408 . S
C1338 C1336 1.363 . S
C1338 C1339 1.370 . S
C1338 C1342 1.524 . S
C1339 C1331 1.503 1_455 S
C1339 C1338 1.370 . S
C1339 C1340 1.403 . S
C1340 C1339 1.403 . S
C1340 C1341 1.404 . S
C1340 C1343 1.539 . S
C1341 C1337 1.408 . S
C1341 C1340 1.404 . S
C1341 H1353 0.930 . S
C1342 C1338 1.524 . S
C1342 H1354 0.956 . S
C1342 H1355 0.961 1_455 S
C1342 H1356 0.961 . S
C1343 C1340 1.539 . S
C1343 H1357 0.958 . S
C1343 H1358 0.961 . S
C1343 H1359 0.967 . S
H1344 C1328 0.931 . S
H1345 C1333 0.929 . S
H1346 C1334 0.960 1_455 S
H1347 C1334 0.962 . S
H1348 C1334 0.960 . S
H1349 C1335 0.961 . S
H1350 C1335 0.961 1_455 S
H1351 C1335 0.961 . S
H1352 C1336 0.931 . S
H1353 C1341 0.930 . S
H1354 C1342 0.956 . S
H1355 C1342 0.961 1_655 S
H1356 C1342 0.961 . S
H1357 C1343 0.958 . S
H1358 C1343 0.961 . S
H1359 C1343 0.967 . S
C1360 C1361 1.391 . S
C1360 C1362 1.394 . S
C1360 H1376 0.931 . S
C1361 C1360 1.391 . S
C1361 C1365 1.376 . S
C1362 C1360 1.394 . S
C1362 C1363 1.369 . S
C1362 C1366 1.531 . S
C1363 C1362 1.369 . S
C1363 C1364 1.410 . S
C1363 C1371 1.503 1_545 S
C1364 C1363 1.410 . S
C1364 C1365 1.392 . S
C1364 C1367 1.511 . S
C1365 C1361 1.376 . S
C1365 C1364 1.392 . S
C1365 H1377 0.929 . S
C1366 C1362 1.531 . S
C1366 H1378 0.960 1_545 S
C1366 H1379 0.962 . S
C1366 H1380 0.960 . S
C1367 C1364 1.511 . S
C1367 H1381 0.961 . S
C1367 H1382 0.961 1_545 S
C1367 H1383 0.961 . S
C1368 C1369 1.370 . S
C1368 C1370 1.363 . S
C1368 H1384 0.931 . S
C1369 C1368 1.370 . S
C1369 C1373 1.408 . S
C1370 C1368 1.363 . S
C1370 C1371 1.370 . S
C1370 C1374 1.524 . S
C1371 C1363 1.503 1_565 S
C1371 C1370 1.370 . S
C1371 C1372 1.403 . S
C1372 C1371 1.403 . S
C1372 C1373 1.404 . S
C1372 C1375 1.539 . S
C1373 C1369 1.408 . S
C1373 C1372 1.404 . S
C1373 H1385 0.930 . S
C1374 C1370 1.524 . S
C1374 H1386 0.956 . S
C1374 H1387 0.961 1_565 S
C1374 H1388 0.961 . S
C1375 C1372 1.539 . S
C1375 H1389 0.958 . S
C1375 H1390 0.961 . S
C1375 H1391 0.968 . S
H1376 C1360 0.931 . S
H1377 C1365 0.929 . S
H1378 C1366 0.960 1_565 S
H1379 C1366 0.962 . S
H1380 C1366 0.960 . S
H1381 C1367 0.961 . S
H1382 C1367 0.961 1_565 S
H1383 C1367 0.961 . S
H1384 C1368 0.931 . S
H1385 C1373 0.930 . S
H1386 C1374 0.956 . S
H1387 C1374 0.961 1_545 S
H1388 C1374 0.961 . S
H1389 C1375 0.958 . S
H1390 C1375 0.961 . S
H1391 C1375 0.968 . S
C1392 C1393 1.391 . S
C1392 C1394 1.394 . S
C1392 H1408 0.931 . S
C1393 C1392 1.391 . S
C1393 C1397 1.376 . S
C1394 C1392 1.394 . S
C1394 C1395 1.369 . S
C1394 C1398 1.531 . S
C1395 C1394 1.369 . S
C1395 C1396 1.410 . S
C1395 C1403 1.503 . S
C1396 C1395 1.410 . S
C1396 C1397 1.392 . S
C1396 C1399 1.511 . S
C1397 C1393 1.376 . S
C1397 C1396 1.392 . S
C1397 H1409 0.929 . S
C1398 C1394 1.531 . S
C1398 H1410 0.960 . S
C1398 H1411 0.962 . S
C1398 H1412 0.960 . S
C1399 C1396 1.511 . S
C1399 H1413 0.961 . S
C1399 H1414 0.961 . S
C1399 H1415 0.961 . S
C1400 C1401 1.370 . S
C1400 C1402 1.363 . S
C1400 H1416 0.931 . S
C1401 C1400 1.370 . S
C1401 C1405 1.408 . S
C1402 C1400 1.363 . S
C1402 C1403 1.370 . S
C1402 C1406 1.524 . S
C1403 C1395 1.503 . S
C1403 C1402 1.370 . S
C1403 C1404 1.403 . S
C1404 C1403 1.403 . S
C1404 C1405 1.404 . S
C1404 C1407 1.539 . S
C1405 C1401 1.408 . S
C1405 C1404 1.404 . S
C1405 H1417 0.930 . S
C1406 C1402 1.524 . S
C1406 H1418 0.956 . S
C1406 H1419 0.961 . S
C1406 H1420 0.961 . S
C1407 C1404 1.539 . S
C1407 H1421 0.958 . S
C1407 H1422 0.961 . S
C1407 H1423 0.960 . S
H1408 C1392 0.931 . S
H1409 C1397 0.929 . S
H1410 C1398 0.960 . S
H1411 C1398 0.962 . S
H1412 C1398 0.960 . S
H1413 C1399 0.961 . S
H1414 C1399 0.961 . S
H1415 C1399 0.961 . S
H1416 C1400 0.931 . S
H1417 C1405 0.930 . S
H1418 C1406 0.956 . S
H1419 C1406 0.961 . S
H1420 C1406 0.961 . S
H1421 C1407 0.958 . S
H1422 C1407 0.961 . S
H1423 C1407 0.960 . S
C1424 C1425 1.391 . S
C1424 C1426 1.394 . S
C1424 H1440 0.931 . S
C1425 C1424 1.391 . S
C1425 C1429 1.376 . S
C1426 C1424 1.394 . S
C1426 C1427 1.369 . S
C1426 C1430 1.531 . S
C1427 C1426 1.369 . S
C1427 C1428 1.410 . S
C1427 C1435 1.503 1_455 S
C1428 C1427 1.410 . S
C1428 C1429 1.392 . S
C1428 C1431 1.511 . S
C1429 C1425 1.376 . S
C1429 C1428 1.392 . S
C1429 H1441 0.929 . S
C1430 C1426 1.531 . S
C1430 H1442 0.960 1_455 S
C1430 H1443 0.962 . S
C1430 H1444 0.960 . S
C1431 C1428 1.511 . S
C1431 H1445 0.961 . S
C1431 H1446 0.961 1_455 S
C1431 H1447 0.961 . S
C1432 C1433 1.370 . S
C1432 C1434 1.363 . S
C1432 H1448 0.931 . S
C1433 C1432 1.370 . S
C1433 C1437 1.408 . S
C1434 C1432 1.363 . S
C1434 C1435 1.370 . S
C1434 C1438 1.524 . S
C1435 C1427 1.503 1_655 S
C1435 C1434 1.370 . S
C1435 C1436 1.403 . S
C1436 C1435 1.403 . S
C1436 C1437 1.404 . S
C1436 C1439 1.539 . S
C1437 C1433 1.408 . S
C1437 C1436 1.404 . S
C1437 H1449 0.930 . S
C1438 C1434 1.524 . S
C1438 H1450 0.956 . S
C1438 H1451 0.961 1_655 S
C1438 H1452 0.961 . S
C1439 C1436 1.539 . S
C1439 H1453 0.958 . S
C1439 H1454 0.961 . S
C1439 H1455 0.973 . S
H1440 C1424 0.931 . S
H1441 C1429 0.929 . S
H1442 C1430 0.960 1_655 S
H1443 C1430 0.962 . S
H1444 C1430 0.960 . S
H1445 C1431 0.961 . S
H1446 C1431 0.961 1_655 S
H1447 C1431 0.961 . S
H1448 C1432 0.931 . S
H1449 C1437 0.930 . S
H1450 C1438 0.956 . S
H1451 C1438 0.961 1_455 S
H1452 C1438 0.961 . S
H1453 C1439 0.958 . S
H1454 C1439 0.961 . S
H1455 C1439 0.973 . S
C1456 C1457 1.391 . S
C1456 C1458 1.394 . S
C1456 H1472 0.931 . S
C1457 C1456 1.391 . S
C1457 C1461 1.376 . S
C1458 C1456 1.394 . S
C1458 C1459 1.369 . S
C1458 C1462 1.531 . S
C1459 C1458 1.369 . S
C1459 C1460 1.410 . S
C1459 C1467 1.503 1_565 S
C1460 C1459 1.410 . S
C1460 C1461 1.392 . S
C1460 C1463 1.511 . S
C1461 C1457 1.376 . S
C1461 C1460 1.392 . S
C1461 H1473 0.929 . S
C1462 C1458 1.531 . S
C1462 H1474 0.960 1_565 S
C1462 H1475 0.962 . S
C1462 H1476 0.960 . S
C1463 C1460 1.511 . S
C1463 H1477 0.961 . S
C1463 H1478 0.961 1_565 S
C1463 H1479 0.961 . S
C1464 C1465 1.370 . S
C1464 C1466 1.363 . S
C1464 H1480 0.931 . S
C1465 C1464 1.370 . S
C1465 C1469 1.408 . S
C1466 C1464 1.363 . S
C1466 C1467 1.370 . S
C1466 C1470 1.524 . S
C1467 C1459 1.503 1_545 S
C1467 C1466 1.370 . S
C1467 C1468 1.403 . S
C1468 C1467 1.403 . S
C1468 C1469 1.404 . S
C1468 C1471 1.539 . S
C1469 C1465 1.408 . S
C1469 C1468 1.404 . S
C1469 H1481 0.930 . S
C1470 C1466 1.524 . S
C1470 H1482 0.956 . S
C1470 H1483 0.961 1_545 S
C1470 H1484 0.961 . S
C1471 C1468 1.539 . S
C1471 H1485 0.958 . S
C1471 H1486 0.961 . S
C1471 H1487 0.970 . S
H1472 C1456 0.931 . S
H1473 C1461 0.929 . S
H1474 C1462 0.960 1_545 S
H1475 C1462 0.962 . S
H1476 C1462 0.960 . S
H1477 C1463 0.961 . S
H1478 C1463 0.961 1_545 S
H1479 C1463 0.961 . S
H1480 C1464 0.931 . S
H1481 C1469 0.930 . S
H1482 C1470 0.956 . S
H1483 C1470 0.961 1_565 S
H1484 C1470 0.961 . S
H1485 C1471 0.958 . S
H1486 C1471 0.961 . S
H1487 C1471 0.970 . S
C1488 C1489 1.391 . S
C1488 C1490 1.394 . S
C1488 H1504 0.931 . S
C1489 C1488 1.391 . S
C1489 C1493 1.376 . S
C1490 C1488 1.394 . S
C1490 C1491 1.373 . S
C1490 C1494 1.535 . S
C1491 C1490 1.373 . S
C1491 C1492 1.413 . S
C1491 C1499 1.497 1_556 S
C1492 C1491 1.413 . S
C1492 C1493 1.392 . S
C1492 C1495 1.511 1_556 S
C1493 C1489 1.376 . S
C1493 C1492 1.392 . S
C1493 H1505 0.929 . S
C1494 C1490 1.535 . S
C1494 H1506 0.946 1_556 S
C1494 H1507 0.975 . S
C1494 H1508 0.958 1_556 S
C1495 C1492 1.511 1_554 S
C1495 H1509 0.961 1_554 S
C1495 H1510 0.961 . S
C1495 H1511 0.961 . S
C1496 C1497 1.370 . S
C1496 C1498 1.363 1_554 S
C1496 H1512 0.931 1_554 S
C1497 C1496 1.370 . S
C1497 C1501 1.408 . S
C1498 C1496 1.363 1_556 S
C1498 C1499 1.370 1_556 S
C1498 C1502 1.524 . S
C1499 C1491 1.497 1_554 S
C1499 C1498 1.370 1_554 S
C1499 C1500 1.403 . S
C1500 C1499 1.403 . S
C1500 C1501 1.404 . S
C1500 C1503 1.539 . S
C1501 C1497 1.408 . S
C1501 C1500 1.404 . S
C1501 H1513 0.930 . S
C1502 C1498 1.524 . S
C1502 H1514 0.956 . S
C1502 H1515 0.961 . S
C1502 H1516 0.961 . S
C1503 C1500 1.539 . S
C1503 H1517 0.958 . S
C1503 H1518 0.961 . S
C1503 H1519 0.960 . S
H1504 C1488 0.931 . S
H1505 C1493 0.929 . S
H1506 C1494 0.946 1_554 S
H1507 C1494 0.975 . S
H1508 C1494 0.958 1_554 S
H1509 C1495 0.961 1_556 S
H1510 C1495 0.961 . S
H1511 C1495 0.961 . S
H1512 C1496 0.931 1_556 S
H1513 C1501 0.930 . S
H1514 C1502 0.956 . S
H1515 C1502 0.961 . S
H1516 C1502 0.961 . S
H1517 C1503 0.958 . S
H1518 C1503 0.961 . S
H1519 C1503 0.960 . S
C1520 C1521 1.391 . S
C1520 C1522 1.394 . S
C1520 H1536 0.931 . S
C1521 C1520 1.391 . S
C1521 C1525 1.376 . S
C1522 C1520 1.394 . S
C1522 C1523 1.369 . S
C1522 C1526 1.531 . S
C1523 C1522 1.369 . S
C1523 C1524 1.410 . S
C1523 C1531 1.503 . S
C1524 C1523 1.410 . S
C1524 C1525 1.392 . S
C1524 C1527 1.511 . S
C1525 C1521 1.376 . S
C1525 C1524 1.392 . S
C1525 H1537 0.929 . S
C1526 C1522 1.531 . S
C1526 H1538 0.960 . S
C1526 H1539 0.962 . S
C1526 H1540 0.960 . S
C1527 C1524 1.511 . S
C1527 H1541 0.961 . S
C1527 H1542 0.961 . S
C1527 H1543 0.961 . S
C1528 C1529 1.370 . S
C1528 C1530 1.363 . S
C1528 H1544 0.931 . S
C1529 C1528 1.370 . S
C1529 C1533 1.408 . S
C1530 C1528 1.363 . S
C1530 C1531 1.370 . S
C1530 C1534 1.524 . S
C1531 C1523 1.503 . S
C1531 C1530 1.370 . S
C1531 C1532 1.403 . S
C1532 C1531 1.403 . S
C1532 C1533 1.404 . S
C1532 C1535 1.539 . S
C1533 C1529 1.408 . S
C1533 C1532 1.404 . S
C1533 H1545 0.930 . S
C1534 C1530 1.524 . S
C1534 H1546 0.956 . S
C1534 H1547 0.961 . S
C1534 H1548 0.961 . S
C1535 C1532 1.539 . S
C1535 H1549 0.958 . S
C1535 H1550 0.961 . S
C1535 H1551 0.960 . S
H1536 C1520 0.931 . S
H1537 C1525 0.929 . S
H1538 C1526 0.960 . S
H1539 C1526 0.962 . S
H1540 C1526 0.960 . S
H1541 C1527 0.961 . S
H1542 C1527 0.961 . S
H1543 C1527 0.961 . S
H1544 C1528 0.931 . S
H1545 C1533 0.930 . S
H1546 C1534 0.956 . S
H1547 C1534 0.961 . S
H1548 C1534 0.961 . S
H1549 C1535 0.958 . S
H1550 C1535 0.961 . S
H1551 C1535 0.960 . S
C1552 C1553 1.391 . S
C1552 C1554 1.394 . S
C1552 H1568 0.931 . S
C1553 C1552 1.391 . S
C1553 C1557 1.376 . S
C1554 C1552 1.394 . S
C1554 C1555 1.369 . S
C1554 C1558 1.531 . S
C1555 C1554 1.369 . S
C1555 C1556 1.410 1_556 S
C1555 C1563 1.503 1_556 S
C1556 C1555 1.410 1_554 S
C1556 C1557 1.392 1_554 S
C1556 C1559 1.511 . S
C1557 C1553 1.376 . S
C1557 C1556 1.392 1_556 S
C1557 H1569 0.929 1_556 S
C1558 C1554 1.531 . S
C1558 H1570 0.960 . S
C1558 H1571 0.962 . S
C1558 H1572 0.960 . S
C1559 C1556 1.511 . S
C1559 H1573 0.961 . S
C1559 H1574 0.961 . S
C1559 H1575 0.961 . S
C1560 C1561 1.370 . S
C1560 C1562 1.363 . S
C1560 H1576 0.931 . S
C1561 C1560 1.370 . S
C1561 C1565 1.408 . S
C1562 C1560 1.363 . S
C1562 C1563 1.370 . S
C1562 C1566 1.524 . S
C1563 C1555 1.503 1_554 S
C1563 C1562 1.370 . S
C1563 C1564 1.403 . S
C1564 C1563 1.403 . S
C1564 C1565 1.404 . S
C1564 C1567 1.539 1_554 S
C1565 C1561 1.408 . S
C1565 C1564 1.404 . S
C1565 H1577 0.930 . S
C1566 C1562 1.524 . S
C1566 H1578 0.956 1_554 S
C1566 H1579 0.961 . S
C1566 H1580 0.961 . S
C1567 C1564 1.539 1_556 S
C1567 H1581 0.958 . S
C1567 H1582 0.961 1_556 S
C1567 H1583 0.960 . S
H1568 C1552 0.931 . S
H1569 C1557 0.929 1_554 S
H1570 C1558 0.960 . S
H1571 C1558 0.962 . S
H1572 C1558 0.960 . S
H1573 C1559 0.961 . S
H1574 C1559 0.961 . S
H1575 C1559 0.961 . S
H1576 C1560 0.931 . S
H1577 C1565 0.930 . S
H1578 C1566 0.956 1_556 S
H1579 C1566 0.961 . S
H1580 C1566 0.961 . S
H1581 C1567 0.958 . S
H1582 C1567 0.961 1_554 S
H1583 C1567 0.960 . S
C1584 C1585 1.391 . S
C1584 C1586 1.394 . S
C1584 H1600 0.931 . S
C1585 C1584 1.391 . S
C1585 C1589 1.376 . S
C1586 C1584 1.394 . S
C1586 C1587 1.369 . S
C1586 C1590 1.531 . S
C1587 C1586 1.369 . S
C1587 C1588 1.410 . S
C1587 C1595 1.503 . S
C1588 C1587 1.410 . S
C1588 C1589 1.392 . S
C1588 C1591 1.511 . S
C1589 C1585 1.376 . S
C1589 C1588 1.392 . S
C1589 H1601 0.929 . S
C1590 C1586 1.531 . S
C1590 H1602 0.960 . S
C1590 H1603 0.962 . S
C1590 H1604 0.960 . S
C1591 C1588 1.511 . S
C1591 H1605 0.961 . S
C1591 H1606 0.961 . S
C1591 H1607 0.961 . S
C1592 C1593 1.370 . S
C1592 C1594 1.363 . S
C1592 H1608 0.931 . S
C1593 C1592 1.370 . S
C1593 C1597 1.408 . S
C1594 C1592 1.363 . S
C1594 C1595 1.370 . S
C1594 C1598 1.524 . S
C1595 C1587 1.503 . S
C1595 C1594 1.370 . S
C1595 C1596 1.403 . S
C1596 C1595 1.403 . S
C1596 C1597 1.404 . S
C1596 C1599 1.539 . S
C1597 C1593 1.408 . S
C1597 C1596 1.404 . S
C1597 H1609 0.930 . S
C1598 C1594 1.524 . S
C1598 H1610 0.956 . S
C1598 H1611 0.961 . S
C1598 H1612 0.961 . S
C1599 C1596 1.539 . S
C1599 H1613 0.958 . S
C1599 H1614 0.961 . S
C1599 H1615 0.960 . S
H1600 C1584 0.931 . S
H1601 C1589 0.929 . S
H1602 C1590 0.960 . S
H1603 C1590 0.962 . S
H1604 C1590 0.960 . S
H1605 C1591 0.961 . S
H1606 C1591 0.961 . S
H1607 C1591 0.961 . S
H1608 C1592 0.931 . S
H1609 C1597 0.930 . S
H1610 C1598 0.956 . S
H1611 C1598 0.961 . S
H1612 C1598 0.961 . S
H1613 C1599 0.958 . S
H1614 C1599 0.961 . S
H1615 C1599 0.960 . S
C1616 C1617 1.391 . S
C1616 C1618 1.394 . S
C1616 H1632 0.931 . S
C1617 C1616 1.391 . S
C1617 C1621 1.376 . S
C1618 C1616 1.394 . S
C1618 C1619 1.383 . S
C1618 C1622 1.531 . S
C1619 C1618 1.383 . S
C1619 C1620 1.410 . S
C1619 C1627 1.492 1_556 S
C1620 C1619 1.410 . S
C1620 C1621 1.392 . S
C1620 C1623 1.511 1_556 S
C1621 C1617 1.376 . S
C1621 C1620 1.392 . S
C1621 H1633 0.929 . S
C1622 C1618 1.531 . S
C1622 H1634 0.960 1_556 S
C1622 H1635 0.962 . S
C1622 H1636 0.960 . S
C1623 C1620 1.511 1_554 S
C1623 H1637 0.961 . S
C1623 H1638 0.961 . S
C1623 H1639 0.961 . S
C1624 C1625 1.370 . S
C1624 C1626 1.363 1_554 S
C1624 H1640 0.931 1_554 S
C1625 C1624 1.370 . S
C1625 C1629 1.408 . S
C1626 C1624 1.363 1_556 S
C1626 C1627 1.370 1_556 S
C1626 C1630 1.524 . S
C1627 C1619 1.492 1_554 S
C1627 C1626 1.370 1_554 S
C1627 C1628 1.403 . S
C1628 C1627 1.403 . S
C1628 C1629 1.404 . S
C1628 C1631 1.539 . S
C1629 C1625 1.408 . S
C1629 C1628 1.404 . S
C1629 H1641 0.930 . S
C1630 C1626 1.524 . S
C1630 H1642 0.956 . S
C1630 H1643 0.961 . S
C1630 H1644 0.961 . S
C1631 C1628 1.539 . S
C1631 H1645 0.958 . S
C1631 H1646 0.961 . S
C1631 H1647 0.960 . S
H1632 C1616 0.931 . S
H1633 C1621 0.929 . S
H1634 C1622 0.960 1_554 S
H1635 C1622 0.962 . S
H1636 C1622 0.960 . S
H1637 C1623 0.961 . S
H1638 C1623 0.961 . S
H1639 C1623 0.961 . S
H1640 C1624 0.931 1_556 S
H1641 C1629 0.930 . S
H1642 C1630 0.956 . S
H1643 C1630 0.961 . S
H1644 C1630 0.961 . S
H1645 C1631 0.958 . S
H1646 C1631 0.961 . S
H1647 C1631 0.960 . S
C1648 C1649 1.391 . S
C1648 C1650 1.394 . S
C1648 H1664 0.931 . S
C1649 C1648 1.391 . S
C1649 C1653 1.376 . S
C1650 C1648 1.394 . S
C1650 C1651 1.369 . S
C1650 C1654 1.531 . S
C1651 C1650 1.369 . S
C1651 C1652 1.410 . S
C1651 C1659 1.503 . S
C1652 C1651 1.410 . S
C1652 C1653 1.392 . S
C1652 C1655 1.511 . S
C1653 C1649 1.376 . S
C1653 C1652 1.392 . S
C1653 H1665 0.929 . S
C1654 C1650 1.531 . S
C1654 H1666 0.960 . S
C1654 H1667 0.962 . S
C1654 H1668 0.960 . S
C1655 C1652 1.511 . S
C1655 H1669 0.961 . S
C1655 H1670 0.961 . S
C1655 H1671 0.961 . S
C1656 C1657 1.370 . S
C1656 C1658 1.363 . S
C1656 H1672 0.931 . S
C1657 C1656 1.370 . S
C1657 C1661 1.408 . S
C1658 C1656 1.363 . S
C1658 C1659 1.370 . S
C1658 C1662 1.524 . S
C1659 C1651 1.503 . S
C1659 C1658 1.370 . S
C1659 C1660 1.403 . S
C1660 C1659 1.403 . S
C1660 C1661 1.404 . S
C1660 C1663 1.539 . S
C1661 C1657 1.408 . S
C1661 C1660 1.404 . S
C1661 H1673 0.930 . S
C1662 C1658 1.524 . S
C1662 H1674 0.956 . S
C1662 H1675 0.961 . S
C1662 H1676 0.961 . S
C1663 C1660 1.539 . S
C1663 H1677 0.958 . S
C1663 H1678 0.961 . S
C1663 H1679 0.960 . S
H1664 C1648 0.931 . S
H1665 C1653 0.929 . S
H1666 C1654 0.960 . S
H1667 C1654 0.962 . S
H1668 C1654 0.960 . S
H1669 C1655 0.961 . S
H1670 C1655 0.961 . S
H1671 C1655 0.961 . S
H1672 C1656 0.931 . S
H1673 C1661 0.930 . S
H1674 C1662 0.956 . S
H1675 C1662 0.961 . S
H1676 C1662 0.961 . S
H1677 C1663 0.958 . S
H1678 C1663 0.961 . S
H1679 C1663 0.960 . S
C1680 C1681 1.391 . S
C1680 C1682 1.394 1_554 S
C1680 H1696 0.931 1_554 S
C1681 C1680 1.391 . S
C1681 C1685 1.376 . S
C1682 C1680 1.394 1_556 S
C1682 C1683 1.369 1_556 S
C1682 C1686 1.531 . S
C1683 C1682 1.369 1_554 S
C1683 C1684 1.410 . S
C1683 C1691 1.503 1_554 S
C1684 C1683 1.410 . S
C1684 C1685 1.392 . S
C1684 C1687 1.511 . S
C1685 C1681 1.376 . S
C1685 C1684 1.392 . S
C1685 H1697 0.929 . S
C1686 C1682 1.531 . S
C1686 H1698 0.960 . S
C1686 H1699 0.962 . S
C1686 H1700 0.960 . S
C1687 C1684 1.511 . S
C1687 H1701 0.961 . S
C1687 H1702 0.961 . S
C1687 H1703 0.961 . S
C1688 C1689 1.370 . S
C1688 C1690 1.363 . S
C1688 H1704 0.931 . S
C1689 C1688 1.370 . S
C1689 C1693 1.408 . S
C1690 C1688 1.363 . S
C1690 C1691 1.370 . S
C1690 C1694 1.524 . S
C1691 C1683 1.503 1_556 S
C1691 C1690 1.370 . S
C1691 C1692 1.403 . S
C1692 C1691 1.403 . S
C1692 C1693 1.404 . S
C1692 C1695 1.539 . S
C1693 C1689 1.408 . S
C1693 C1692 1.404 . S
C1693 H1705 0.930 . S
C1694 C1690 1.524 . S
C1694 H1706 0.956 . S
C1694 H1707 0.961 1_556 S
C1694 H1708 0.961 . S
C1695 C1692 1.539 . S
C1695 H1709 0.958 . S
C1695 H1710 0.961 1_556 S
C1695 H1711 0.960 1_556 S
H1696 C1680 0.931 1_556 S
H1697 C1685 0.929 . S
H1698 C1686 0.960 . S
H1699 C1686 0.962 . S
H1700 C1686 0.960 . S
H1701 C1687 0.961 . S
H1702 C1687 0.961 . S
H1703 C1687 0.961 . S
H1704 C1688 0.931 . S
H1705 C1693 0.930 . S
H1706 C1694 0.956 . S
H1707 C1694 0.961 1_554 S
H1708 C1694 0.961 . S
H1709 C1695 0.958 . S
H1710 C1695 0.961 1_554 S
H1711 C1695 0.960 1_554 S
C1712 C1713 1.391 . S
C1712 C1714 1.394 . S
C1712 H1728 0.931 . S
C1713 C1712 1.391 . S
C1713 C1717 1.376 . S
C1714 C1712 1.394 . S
C1714 C1715 1.369 . S
C1714 C1718 1.531 . S
C1715 C1714 1.369 . S
C1715 C1716 1.410 . S
C1715 C1723 1.503 . S
C1716 C1715 1.410 . S
C1716 C1717 1.392 . S
C1716 C1719 1.511 . S
C1717 C1713 1.376 . S
C1717 C1716 1.392 . S
C1717 H1729 0.929 . S
C1718 C1714 1.531 . S
C1718 H1730 0.960 . S
C1718 H1731 0.962 . S
C1718 H1732 0.960 . S
C1719 C1716 1.511 . S
C1719 H1733 0.961 . S
C1719 H1734 0.961 . S
C1719 H1735 0.961 . S
C1720 C1721 1.370 . S
C1720 C1722 1.363 . S
C1720 H1736 0.931 . S
C1721 C1720 1.370 . S
C1721 C1725 1.408 . S
C1722 C1720 1.363 . S
C1722 C1723 1.370 . S
C1722 C1726 1.524 . S
C1723 C1715 1.503 . S
C1723 C1722 1.370 . S
C1723 C1724 1.403 . S
C1724 C1723 1.403 . S
C1724 C1725 1.404 . S
C1724 C1727 1.539 . S
C1725 C1721 1.408 . S
C1725 C1724 1.404 . S
C1725 H1737 0.930 . S
C1726 C1722 1.524 . S
C1726 H1738 0.956 . S
C1726 H1739 0.961 . S
C1726 H1740 0.961 . S
C1727 C1724 1.539 . S
C1727 H1741 0.958 . S
C1727 H1742 0.961 . S
C1727 H1743 0.960 . S
H1728 C1712 0.931 . S
H1729 C1717 0.929 . S
H1730 C1718 0.960 . S
H1731 C1718 0.962 . S
H1732 C1718 0.960 . S
H1733 C1719 0.961 . S
H1734 C1719 0.961 . S
H1735 C1719 0.961 . S
H1736 C1720 0.931 . S
H1737 C1725 0.930 . S
H1738 C1726 0.956 . S
H1739 C1726 0.961 . S
H1740 C1726 0.961 . S
H1741 C1727 0.958 . S
H1742 C1727 0.961 . S
H1743 C1727 0.960 . S
C1744 C1745 1.391 . S
C1744 C1746 1.394 1_554 S
C1744 H1760 0.931 1_554 S
C1745 C1744 1.391 . S
C1745 C1749 1.376 . S
C1746 C1744 1.394 1_556 S
C1746 C1747 1.369 1_556 S
C1746 C1750 1.531 . S
C1747 C1746 1.369 1_554 S
C1747 C1748 1.410 . S
C1747 C1755 1.503 1_554 S
C1748 C1747 1.410 . S
C1748 C1749 1.392 . S
C1748 C1751 1.511 . S
C1749 C1745 1.376 . S
C1749 C1748 1.392 . S
C1749 H1761 0.929 . S
C1750 C1746 1.531 . S
C1750 H1762 0.960 . S
C1750 H1763 0.962 . S
C1750 H1764 0.960 . S
C1751 C1748 1.511 . S
C1751 H1765 0.961 . S
C1751 H1766 0.961 . S
C1751 H1767 0.961 . S
C1752 C1753 1.370 . S
C1752 C1754 1.363 . S
C1752 H1768 0.931 . S
C1753 C1752 1.370 . S
C1753 C1757 1.408 . S
C1754 C1752 1.363 . S
C1754 C1755 1.370 . S
C1754 C1758 1.524 1_556 S
C1755 C1747 1.503 1_556 S
C1755 C1754 1.370 . S
C1755 C1756 1.403 . S
C1756 C1755 1.403 . S
C1756 C1757 1.404 . S
C1756 C1759 1.539 . S
C1757 C1753 1.408 . S
C1757 C1756 1.404 . S
C1757 H1769 0.930 . S
C1758 C1754 1.524 1_554 S
C1758 H1770 0.956 . S
C1758 H1771 0.961 . S
C1758 H1772 0.961 . S
C1759 C1756 1.539 . S
C1759 H1773 0.958 . S
C1759 H1774 0.961 . S
C1759 H1775 0.960 . S
H1760 C1744 0.931 1_556 S
H1761 C1749 0.929 . S
H1762 C1750 0.960 . S
H1763 C1750 0.962 . S
H1764 C1750 0.960 . S
H1765 C1751 0.961 . S
H1766 C1751 0.961 . S
H1767 C1751 0.961 . S
H1768 C1752 0.931 . S
H1769 C1757 0.930 . S
H1770 C1758 0.956 . S
H1771 C1758 0.961 . S
H1772 C1758 0.961 . S
H1773 C1759 0.958 . S
H1774 C1759 0.961 . S
H1775 C1759 0.960 . S
C1776 C1777 1.391 . S
C1776 C1778 1.394 . S
C1776 H1792 0.931 . S
C1777 C1776 1.391 . S
C1777 C1781 1.376 . S
C1778 C1776 1.394 . S
C1778 C1779 1.369 . S
C1778 C1782 1.531 . S
C1779 C1778 1.369 . S
C1779 C1780 1.410 . S
C1779 C1787 1.503 . S
C1780 C1779 1.410 . S
C1780 C1781 1.392 . S
C1780 C1783 1.511 . S
C1781 C1777 1.376 . S
C1781 C1780 1.392 . S
C1781 H1793 0.929 . S
C1782 C1778 1.531 . S
C1782 H1794 0.960 . S
C1782 H1795 0.962 . S
C1782 H1796 0.960 . S
C1783 C1780 1.511 . S
C1783 H1797 0.961 . S
C1783 H1798 0.961 . S
C1783 H1799 0.961 . S
C1784 C1785 1.370 . S
C1784 C1786 1.363 . S
C1784 H1800 0.931 . S
C1785 C1784 1.370 . S
C1785 C1789 1.408 . S
C1786 C1784 1.363 . S
C1786 C1787 1.370 . S
C1786 C1790 1.524 . S
C1787 C1779 1.503 . S
C1787 C1786 1.370 . S
C1787 C1788 1.403 . S
C1788 C1787 1.403 . S
C1788 C1789 1.404 . S
C1788 C1791 1.539 . S
C1789 C1785 1.408 . S
C1789 C1788 1.404 . S
C1789 H1801 0.930 . S
C1790 C1786 1.524 . S
C1790 H1802 0.956 . S
C1790 H1803 0.961 . S
C1790 H1804 0.961 . S
C1791 C1788 1.539 . S
C1791 H1805 0.958 . S
C1791 H1806 0.961 . S
C1791 H1807 0.960 . S
H1792 C1776 0.931 . S
H1793 C1781 0.929 . S
H1794 C1782 0.960 . S
H1795 C1782 0.962 . S
H1796 C1782 0.960 . S
H1797 C1783 0.961 . S
H1798 C1783 0.961 . S
H1799 C1783 0.961 . S
H1800 C1784 0.931 . S
H1801 C1789 0.930 . S
H1802 C1790 0.956 . S
H1803 C1790 0.961 . S
H1804 C1790 0.961 . S
H1805 C1791 0.958 . S
H1806 C1791 0.961 . S
H1807 C1791 0.960 . S
C1808 C1809 1.391 . S
C1808 C1810 1.394 1_556 S
C1808 H1824 0.931 1_556 S
C1809 C1808 1.391 . S
C1809 C1813 1.376 . S
C1810 C1808 1.394 1_554 S
C1810 C1811 1.369 1_554 S
C1810 C1814 1.531 . S
C1811 C1810 1.369 1_556 S
C1811 C1812 1.410 . S
C1811 C1819 1.503 1_556 S
C1812 C1811 1.410 . S
C1812 C1813 1.392 . S
C1812 C1815 1.511 . S
C1813 C1809 1.376 . S
C1813 C1812 1.392 . S
C1813 H1825 0.929 . S
C1814 C1810 1.531 . S
C1814 H1826 0.960 . S
C1814 H1827 0.962 . S
C1814 H1828 0.960 . S
C1815 C1812 1.511 . S
C1815 H1829 0.961 . S
C1815 H1830 0.961 . S
C1815 H1831 0.961 . S
C1816 C1817 1.370 . S
C1816 C1818 1.363 1_554 S
C1816 H1832 0.931 . S
C1817 C1816 1.370 . S
C1817 C1821 1.408 . S
C1818 C1816 1.363 1_556 S
C1818 C1819 1.370 1_556 S
C1818 C1822 1.524 . S
C1819 C1811 1.503 1_554 S
C1819 C1818 1.370 1_554 S
C1819 C1820 1.403 . S
C1820 C1819 1.403 . S
C1820 C1821 1.404 . S
C1820 C1823 1.539 . S
C1821 C1817 1.408 . S
C1821 C1820 1.404 . S
C1821 H1833 0.930 . S
C1822 C1818 1.524 . S
C1822 H1834 0.956 . S
C1822 H1835 0.961 . S
C1822 H1836 0.961 . S
C1823 C1820 1.539 . S
C1823 H1837 0.958 . S
C1823 H1838 0.961 . S
C1823 H1839 0.960 . S
H1824 C1808 0.931 1_554 S
H1825 C1813 0.929 . S
H1826 C1814 0.960 . S
H1827 C1814 0.962 . S
H1828 C1814 0.960 . S
H1829 C1815 0.961 . S
H1830 C1815 0.961 . S
H1831 C1815 0.961 . S
H1832 C1816 0.931 . S
H1833 C1821 0.930 . S
H1834 C1822 0.956 . S
H1835 C1822 0.961 . S
H1836 C1822 0.961 . S
H1837 C1823 0.958 . S
H1838 C1823 0.961 . S
H1839 C1823 0.960 . S
C1840 C1841 1.391 . S
C1840 C1842 1.394 . S
C1840 H1856 0.931 . S
C1841 C1840 1.391 . S
C1841 C1845 1.376 . S
C1842 C1840 1.394 . S
C1842 C1843 1.369 . S
C1842 C1846 1.531 . S
C1843 C1842 1.369 . S
C1843 C1844 1.410 . S
C1843 C1851 1.503 . S
C1844 C1843 1.410 . S
C1844 C1845 1.392 . S
C1844 C1847 1.511 . S
C1845 C1841 1.376 . S
C1845 C1844 1.392 . S
C1845 H1857 0.929 . S
C1846 C1842 1.531 . S
C1846 H1858 0.960 . S
C1846 H1859 0.962 . S
C1846 H1860 0.960 . S
C1847 C1844 1.511 . S
C1847 H1861 0.961 . S
C1847 H1862 0.961 . S
C1847 H1863 0.961 . S
C1848 C1849 1.370 . S
C1848 C1850 1.363 . S
C1848 H1864 0.931 . S
C1849 C1848 1.370 . S
C1849 C1853 1.408 . S
C1850 C1848 1.363 . S
C1850 C1851 1.370 . S
C1850 C1854 1.524 . S
C1851 C1843 1.503 . S
C1851 C1850 1.370 . S
C1851 C1852 1.403 . S
C1852 C1851 1.403 . S
C1852 C1853 1.404 . S
C1852 C1855 1.539 . S
C1853 C1849 1.408 . S
C1853 C1852 1.404 . S
C1853 H1865 0.930 . S
C1854 C1850 1.524 . S
C1854 H1866 0.956 . S
C1854 H1867 0.961 . S
C1854 H1868 0.961 . S
C1855 C1852 1.539 . S
C1855 H1869 0.958 . S
C1855 H1870 0.961 . S
C1855 H1871 0.960 . S
H1856 C1840 0.931 . S
H1857 C1845 0.929 . S
H1858 C1846 0.960 . S
H1859 C1846 0.962 . S
H1860 C1846 0.960 . S
H1861 C1847 0.961 . S
H1862 C1847 0.961 . S
H1863 C1847 0.961 . S
H1864 C1848 0.931 . S
H1865 C1853 0.930 . S
H1866 C1854 0.956 . S
H1867 C1854 0.961 . S
H1868 C1854 0.961 . S
H1869 C1855 0.958 . S
H1870 C1855 0.961 . S
H1871 C1855 0.960 . S
C337 C7 1.492 . S
C345 C217 1.496 . S
C369 C21 1.483 . S
C377 C231 1.494 . S
C401 C245 1.491 . S
C409 C35 1.497 . S
C433 C175 1.510 . S
C441 C49 1.505 . S
C465 C189 1.510 . S
C473 C63 1.504 . S
C497 C203 1.499 . S
C505 C77 1.501 . S
C529 C301 1.505 . S
C537 C91 1.501 . S
C561 C105 1.501 . S
C569 C315 1.499 . S
C593 C329 1.504 . S
C601 C119 1.503 . S
C625 C133 1.510 . S
C633 C259 1.504 . S
C657 C273 1.507 . S
C665 C147 1.504 . S
C689 C161 1.478 . S
C697 C287 1.491 . S
C721 C151 1.200 . S
C729 C11 1.201 . S
C753 C165 1.220 . S
C761 C25 1.213 . S
C785 C39 1.227 . S
C793 C95 1.207 . S
C817 C53 1.188 . S
C825 C109 1.206 . S
C849 C123 1.185 . S
C857 C67 1.208 . S
C881 C81 1.189 . S
C889 C137 1.205 . S
C913 C319 1.191 . S
C921 C179 1.207 . S
C945 C193 1.197 . S
C953 C333 1.217 . S
C977 C207 1.227 . S
C985 C263 1.204 . S
C1009 C277 1.222 . S
C1017 C221 1.209 . S
C1041 C235 1.215 . S
C1049 C291 1.200 . S
C1073 C249 1.212 . S
C1081 C305 1.200 . S
C1105 C8 1.086 . S
C1113 C260 1.087 . S
C1137 C274 1.067 . S
C1145 C22 1.078 . S
C1169 C36 1.036 . S
C1177 C288 1.060 . S
C1201 C50 1.023 . S
C1209 C302 1.058 . S
C1233 C316 1.091 . S
C1241 C64 1.088 . S
C1265 C78 1.057 . S
C1273 C330 1.068 . S
C1297 C92 1.106 . S
C1305 C176 1.094 . S
C1329 C106 1.083 . S
C1337 C190 1.078 . S
C1361 C204 1.052 . S
C1369 C120 1.066 . S
C1393 C218 1.092 . S
C1401 C134 1.089 . S
C1425 C148 1.049 . S
C1433 C232 1.071 . S
C1457 C246 1.025 . S
C1465 C162 1.057 . S
C1489 C97 1.498 . S
C1497 C13 1.457 . S
C1521 C27 1.432 . S
C1529 C111 1.480 . S
C1553 C125 1.432 . S
C1561 C41 1.459 . S
C1585 C139 1.428 . S
C1593 C55 1.477 . S
C1617 C153 1.490 . S
C1625 C69 1.454 . S
C1649 C83 1.483 . S
C1657 C167 1.485 . S
C1681 C265 1.437 . S
C1689 C181 1.461 . S
C1713 C195 1.477 . S
C1721 C279 1.451 . S
C1745 C293 1.456 . S
C1753 C209 1.454 . S
C1777 C307 1.424 . S
C1785 C223 1.478 . S
C1809 C237 1.468 . S
C1817 C321 1.452 . S
C1841 C251 1.441 . S
C1849 C335 1.486 . S
