# Generated by pormake.
# Topology uku, (4)-cn, num edge types: 1
# Building blocks:
#     Node 0, Type 0, BuildingBlock: ESEHIV_clean_sbu_0, # of connection points: 4
#     Node 1, Type 0, BuildingBlock: ESEHIV_clean_sbu_0, # of connection points: 4
#     Node 2, Type 0, BuildingBlock: ESEHIV_clean_sbu_0, # of connection points: 4
#     Node 3, Type 0, BuildingBlock: ESEHIV_clean_sbu_0, # of connection points: 4
#     Node 4, Type 0, BuildingBlock: ESEHIV_clean_sbu_0, # of connection points: 4
#     Node 5, Type 0, BuildingBlock: ESEHIV_clean_sbu_0, # of connection points: 4
#     Node 6, Type 0, BuildingBlock: ESEHIV_clean_sbu_0, # of connection points: 4
#     Node 7, Type 0, BuildingBlock: ESEHIV_clean_sbu_0, # of connection points: 4
#     Node 8, Type 0, BuildingBlock: ESEHIV_clean_sbu_0, # of connection points: 4
#     Node 9, Type 0, BuildingBlock: ESEHIV_clean_sbu_0, # of connection points: 4
#     Node 10, Type 0, BuildingBlock: ESEHIV_clean_sbu_0, # of connection points: 4
#     Node 11, Type 0, BuildingBlock: ESEHIV_clean_sbu_0, # of connection points: 4
#     Edge 12, Type (0, 0), BuildingBlock: KIFKEQ_clean_linker_1, # of connection points: 2
#     Edge 13, Type (0, 0), BuildingBlock: KIFKEQ_clean_linker_1, # of connection points: 2
#     Edge 14, Type (0, 0), BuildingBlock: KIFKEQ_clean_linker_1, # of connection points: 2
#     Edge 15, Type (0, 0), BuildingBlock: KIFKEQ_clean_linker_1, # of connection points: 2
#     Edge 16, Type (0, 0), BuildingBlock: KIFKEQ_clean_linker_1, # of connection points: 2
#     Edge 17, Type (0, 0), BuildingBlock: KIFKEQ_clean_linker_1, # of connection points: 2
#     Edge 18, Type (0, 0), BuildingBlock: KIFKEQ_clean_linker_1, # of connection points: 2
#     Edge 19, Type (0, 0), BuildingBlock: KIFKEQ_clean_linker_1, # of connection points: 2
#     Edge 20, Type (0, 0), BuildingBlock: KIFKEQ_clean_linker_1, # of connection points: 2
#     Edge 21, Type (0, 0), BuildingBlock: KIFKEQ_clean_linker_1, # of connection points: 2
#     Edge 22, Type (0, 0), BuildingBlock: KIFKEQ_clean_linker_1, # of connection points: 2
#     Edge 23, Type (0, 0), BuildingBlock: KIFKEQ_clean_linker_1, # of connection points: 2
#     Edge 24, Type (0, 0), BuildingBlock: KIFKEQ_clean_linker_1, # of connection points: 2
#     Edge 25, Type (0, 0), BuildingBlock: KIFKEQ_clean_linker_1, # of connection points: 2
#     Edge 26, Type (0, 0), BuildingBlock: KIFKEQ_clean_linker_1, # of connection points: 2
#     Edge 27, Type (0, 0), BuildingBlock: KIFKEQ_clean_linker_1, # of connection points: 2
#     Edge 28, Type (0, 0), BuildingBlock: KIFKEQ_clean_linker_1, # of connection points: 2
#     Edge 29, Type (0, 0), BuildingBlock: KIFKEQ_clean_linker_1, # of connection points: 2
#     Edge 30, Type (0, 0), BuildingBlock: KIFKEQ_clean_linker_1, # of connection points: 2
#     Edge 31, Type (0, 0), BuildingBlock: KIFKEQ_clean_linker_1, # of connection points: 2
#     Edge 32, Type (0, 0), BuildingBlock: KIFKEQ_clean_linker_1, # of connection points: 2
#     Edge 33, Type (0, 0), BuildingBlock: KIFKEQ_clean_linker_1, # of connection points: 2
#     Edge 34, Type (0, 0), BuildingBlock: KIFKEQ_clean_linker_1, # of connection points: 2
#     Edge 35, Type (0, 0), BuildingBlock: KIFKEQ_clean_linker_1, # of connection points: 2
# Relax obj value: 0.123
# Max RMSD: 0.255
# Mean RMSD: 0.255
data_MOF--net-uku--node1-ESEHIV_clean_sbu_0--edge1-KIFKEQ_clean_linker_1
_symmetry_space_group_name_H-M    P1
_symmetry_Int_Tables_number       1
_symmetry_cell_setting            triclinic
loop_
_symmetry_equiv_pos_as_xyz
'x, y, z'
_cell_length_a     48.158466
_cell_length_b     48.185893
_cell_length_c     48.200411
_cell_angle_alpha  89.921911
_cell_angle_beta   90.00476
_cell_angle_gamma 90.023006
loop_
_atom_site_label
_atom_site_type_symbol
_atom_site_fract_x
_atom_site_fract_y
_atom_site_fract_z
_atom_type_partial_charge
Cu0 Cu 0.09935 0.12753 0.65857 0.0
N1 N 0.13689 0.11885 0.66135 0.0
N2 N 0.17815 0.10999 0.68079 0.0
C3 C 0.15076 0.11434 0.68516 0.0
C4 C 0.18144 0.11176 0.65298 0.0
C5 C 0.15596 0.11724 0.64107 0.0
O6 O 0.09171 0.1539 0.68806 0.0
C7 C 0.05192 0.09298 0.66346 0.0
O8 O 0.03793 0.11612 0.65987 0.0
H9 H 0.14079 0.11447 0.70526 0.0
H10 H 0.15173 0.12041 0.61926 0.0
N11 N 0.09193 0.14348 0.62394 0.0
N12 N 0.07114 0.15402 0.58388 0.0
C13 C 0.07332 0.13534 0.60468 0.0
C14 C 0.10214 0.1678 0.61472 0.0
C15 C 0.08919 0.17448 0.59012 0.0
C16 C 0.07613 0.1751 0.6857 0.0
O17 O 0.06214 0.17907 0.66265 0.0
H18 H 0.06065 0.11688 0.60649 0.0
H19 H 0.11708 0.18036 0.62581 0.0
O20 O 0.07829 0.0937 0.66369 0.0
H21 H 0.20093 0.11008 0.64196 0.0
H22 H 0.09232 0.19318 0.57804 0.0
Cu23 Cu 0.90411 0.87544 0.65934 0.0
N24 N 0.8671 0.88603 0.66266 0.0
N25 N 0.82707 0.89834 0.68262 0.0
C26 C 0.85367 0.89043 0.68671 0.0
C27 C 0.82373 0.89885 0.65478 0.0
C28 C 0.84851 0.89131 0.64253 0.0
O29 O 0.91074 0.84765 0.68786 0.0
C30 C 0.95275 0.90829 0.66625 0.0
O31 O 0.96629 0.88484 0.66311 0.0
H32 H 0.86325 0.88753 0.70682 0.0
H33 H 0.85273 0.88991 0.62053 0.0
N34 N 0.9108 0.86135 0.62381 0.0
N35 N 0.93069 0.85319 0.58267 0.0
C36 C 0.93106 0.86876 0.60598 0.0
C37 C 0.89694 0.84064 0.61126 0.0
C38 C 0.9092 0.83548 0.58594 0.0
C39 C 0.9236 0.82485 0.68435 0.0
O40 O 0.93517 0.81953 0.66026 0.0
H41 H 0.94624 0.88471 0.61032 0.0
H42 H 0.87942 0.82975 0.62016 0.0
O43 O 0.92638 0.90825 0.66564 0.0
H44 H 0.8049 0.90465 0.64399 0.0
H45 H 0.90279 0.81988 0.57113 0.0
Cu46 Cu 0.10163 0.87889 0.35382 0.0
N47 N 0.13874 0.88896 0.34981 0.0
N48 N 0.17821 0.90125 0.32869 0.0
C49 C 0.15223 0.89115 0.32548 0.0
C50 C 0.18111 0.90542 0.35626 0.0
C51 C 0.15667 0.89793 0.36921 0.0
O52 O 0.09389 0.84998 0.32679 0.0
C53 C 0.05459 0.91197 0.33981 0.0
O54 O 0.04153 0.88824 0.3366 0.0
H55 H 0.14291 0.88568 0.30581 0.0
H56 H 0.15202 0.89967 0.39109 0.0
N57 N 0.09438 0.86655 0.38993 0.0
N58 N 0.07237 0.85824 0.42997 0.0
C59 C 0.07065 0.86972 0.40441 0.0
C60 C 0.11175 0.8528 0.40694 0.0
C61 C 0.09823 0.84755 0.43158 0.0
C62 C 0.10512 0.82625 0.32978 0.0
O63 O 0.12055 0.82159 0.35176 0.0
H64 H 0.0524 0.87995 0.39623 0.0
H65 H 0.13284 0.84706 0.4018 0.0
O66 O 0.08004 0.91193 0.34675 0.0
H67 H 0.1992 0.91415 0.36631 0.0
H68 H 0.10693 0.83707 0.44945 0.0
Cu69 Cu 0.90793 0.1303 0.35035 0.0
N70 N 0.87073 0.12029 0.3478 0.0
N71 N 0.83061 0.10759 0.32821 0.0
C72 C 0.85721 0.11538 0.3239 0.0
C73 C 0.82734 0.10775 0.35607 0.0
C74 C 0.85218 0.11553 0.3681 0.0
O75 O 0.91475 0.15637 0.32028 0.0
C76 C 0.95337 0.09532 0.3355 0.0
O77 O 0.96499 0.11801 0.32579 0.0
H78 H 0.86682 0.11773 0.30374 0.0
H79 H 0.85651 0.11733 0.39005 0.0
N80 N 0.91547 0.14663 0.38463 0.0
N81 N 0.93666 0.15663 0.42457 0.0
C82 C 0.9342 0.13821 0.40364 0.0
C83 C 0.90556 0.17097 0.39402 0.0
C84 C 0.91876 0.17731 0.41859 0.0
C85 C 0.93036 0.17763 0.32184 0.0
O86 O 0.945 0.18192 0.34442 0.0
H87 H 0.94671 0.11967 0.40151 0.0
H88 H 0.89059 0.18371 0.38315 0.0
O89 O 0.92944 0.09666 0.34653 0.0
H90 H 0.80855 0.10217 0.36705 0.0
H91 H 0.91581 0.19586 0.43088 0.0
Cu92 Cu 0.65919 0.09953 0.1316 0.0
N93 N 0.66211 0.13657 0.12111 0.0
N94 N 0.68216 0.17641 0.10818 0.0
C95 C 0.68619 0.15001 0.11674 0.0
C96 C 0.65429 0.17963 0.10727 0.0
C97 C 0.64197 0.15497 0.1152 0.0
O98 O 0.68886 0.09288 0.15815 0.0
C99 C 0.67105 0.05232 0.0981 0.0
O100 O 0.67626 0.0396 0.12166 0.0
H101 H 0.70627 0.14046 0.11997 0.0
H102 H 0.61996 0.15063 0.11625 0.0
N103 N 0.62456 0.09236 0.14747 0.0
N104 N 0.58447 0.07137 0.15759 0.0
C105 C 0.60585 0.07311 0.13955 0.0
C106 C 0.61451 0.10334 0.17107 0.0
C107 C 0.58985 0.09029 0.17748 0.0
C108 C 0.68674 0.0781 0.17995 0.0
O109 O 0.66374 0.06419 0.1846 0.0
H110 H 0.60848 0.05978 0.12168 0.0
H111 H 0.62497 0.11899 0.18329 0.0
O112 O 0.66367 0.07762 0.09836 0.0
H113 H 0.64349 0.19824 0.10081 0.0
H114 H 0.57706 0.09407 0.19555 0.0
Cu115 Cu 0.34942 0.90958 0.13154 0.0
N116 N 0.34751 0.87235 0.12164 0.0
N117 N 0.3284 0.83132 0.11138 0.0
C118 C 0.32378 0.85836 0.11715 0.0
C119 C 0.35631 0.82836 0.11217 0.0
C120 C 0.36804 0.85372 0.11854 0.0
O121 O 0.31943 0.91528 0.15781 0.0
C122 C 0.34508 0.95768 0.09752 0.0
O123 O 0.35024 0.97151 0.12042 0.0
H124 H 0.30353 0.86801 0.11821 0.0
H125 H 0.38989 0.85818 0.12119 0.0
N126 N 0.38365 0.91754 0.14807 0.0
N127 N 0.42375 0.93837 0.15846 0.0
C128 C 0.4036 0.93513 0.13925 0.0
C129 C 0.39177 0.90906 0.17341 0.0
C130 C 0.41639 0.92203 0.17997 0.0
C131 C 0.31998 0.93177 0.17839 0.0
O132 O 0.34147 0.94819 0.18191 0.0
H133 H 0.40269 0.9464 0.11983 0.0
H134 H 0.37991 0.89533 0.18666 0.0
O135 O 0.34379 0.93135 0.09828 0.0
H136 H 0.3675 0.80913 0.10915 0.0
H137 H 0.42771 0.92014 0.19929 0.0
Cu138 Cu 0.65736 0.90402 0.88124 0.0
N139 N 0.66093 0.86689 0.89124 0.0
N140 N 0.68164 0.82719 0.90347 0.0
C141 C 0.68523 0.85364 0.89486 0.0
C142 C 0.65383 0.82374 0.9052 0.0
C143 C 0.64111 0.84832 0.89771 0.0
O144 O 0.68624 0.9114 0.85402 0.0
C145 C 0.67135 0.95032 0.91524 0.0
O146 O 0.67796 0.96278 0.89189 0.0
H147 H 0.70514 0.86338 0.89116 0.0
H148 H 0.61905 0.8525 0.89741 0.0
N149 N 0.62205 0.91106 0.86685 0.0
N150 N 0.58178 0.93234 0.85792 0.0
C151 C 0.6054 0.93264 0.87306 0.0
C152 C 0.60851 0.8965 0.84728 0.0
C153 C 0.58369 0.90962 0.84166 0.0
C154 C 0.68264 0.92401 0.83108 0.0
O155 O 0.65832 0.93497 0.82544 0.0
H156 H 0.61089 0.94864 0.88781 0.0
H157 H 0.61637 0.87789 0.83753 0.0
O158 O 0.66246 0.92551 0.91466 0.0
H159 H 0.64336 0.80505 0.91198 0.0
H160 H 0.56823 0.9029 0.82681 0.0
Cu161 Cu 0.35201 0.10186 0.87792 0.0
N162 N 0.34698 0.13913 0.88675 0.0
N163 N 0.32566 0.17975 0.89335 0.0
C164 C 0.32403 0.15428 0.88181 0.0
C165 C 0.35068 0.18063 0.90597 0.0
C166 C 0.36379 0.15552 0.90184 0.0
O167 O 0.32591 0.09255 0.84861 0.0
C168 C 0.34177 0.0546 0.91181 0.0
O169 O 0.34313 0.04053 0.88852 0.0
H170 H 0.30603 0.14633 0.87095 0.0
H171 H 0.38383 0.14934 0.90987 0.0
N172 N 0.38867 0.09546 0.8667 0.0
N173 N 0.42956 0.07461 0.85956 0.0
C174 C 0.40383 0.07224 0.8705 0.0
C175 C 0.40548 0.1132 0.85315 0.0
C176 C 0.43064 0.10037 0.84858 0.0
C177 C 0.329 0.10309 0.82458 0.0
O178 O 0.35066 0.11894 0.81978 0.0
H179 H 0.39607 0.05385 0.88079 0.0
H180 H 0.39981 0.13405 0.84706 0.0
O181 O 0.34451 0.08082 0.91128 0.0
H182 H 0.35882 0.19808 0.91752 0.0
H183 H 0.44847 0.10944 0.83834 0.0
Cu184 Cu 0.13184 0.65698 0.1019 0.0
N185 N 0.12403 0.66078 0.13958 0.0
N186 N 0.11541 0.68114 0.18042 0.0
C187 C 0.12165 0.68497 0.15331 0.0
C188 C 0.11382 0.6533 0.18365 0.0
C189 C 0.11904 0.64085 0.15845 0.0
O190 O 0.16049 0.6839 0.0926 0.0
C191 C 0.09741 0.67122 0.05631 0.0
O192 O 0.12095 0.67447 0.04291 0.0
H193 H 0.12408 0.70494 0.14332 0.0
H194 H 0.11908 0.61883 0.15419 0.0
N195 N 0.14363 0.62087 0.09373 0.0
N196 N 0.15043 0.58105 0.07092 0.0
C197 C 0.1385 0.60643 0.07034 0.0
C198 C 0.15911 0.60397 0.10971 0.0
C199 C 0.16344 0.57947 0.09567 0.0
C200 C 0.18508 0.68047 0.10169 0.0
O201 O 0.1908 0.65813 0.11622 0.0
H202 H 0.12664 0.61455 0.05308 0.0
H203 H 0.16677 0.60911 0.13016 0.0
O204 O 0.09789 0.66425 0.08174 0.0
H205 H 0.10948 0.64251 0.20285 0.0
H206 H 0.17498 0.56174 0.10324 0.0
Cu207 Cu 0.12742 0.35363 0.90084 0.0
N208 N 0.11479 0.34905 0.86461 0.0
N209 N 0.1018 0.32761 0.82569 0.0
C210 C 0.1145 0.32499 0.8505 0.0
C211 C 0.09369 0.35438 0.82418 0.0
C212 C 0.10178 0.36759 0.84827 0.0
O213 O 0.15799 0.32792 0.90692 0.0
C214 C 0.09659 0.3442 0.95082 0.0
O215 O 0.12017 0.34799 0.96399 0.0
H216 H 0.12262 0.30571 0.85872 0.0
H217 H 0.09792 0.389 0.85378 0.0
N218 N 0.13926 0.39017 0.90656 0.0
N219 N 0.14691 0.43136 0.92651 0.0
C220 C 0.13369 0.40669 0.92842 0.0
C221 C 0.15631 0.40501 0.89014 0.0
C222 C 0.16116 0.43037 0.90243 0.0
C223 C 0.17703 0.32645 0.88864 0.0
O224 O 0.17583 0.34301 0.86701 0.0
H225 H 0.1208 0.40051 0.94572 0.0
H226 H 0.16484 0.3978 0.8707 0.0
O227 O 0.09604 0.34538 0.9245 0.0
H228 H 0.08261 0.36369 0.80698 0.0
H229 H 0.17413 0.44679 0.89424 0.0
Cu230 Cu 0.87947 0.65667 0.90911 0.0
N231 N 0.88928 0.65881 0.87183 0.0
N232 N 0.90074 0.67783 0.83107 0.0
C233 C 0.89376 0.68253 0.8578 0.0
C234 C 0.90056 0.64993 0.82827 0.0
C235 C 0.89353 0.63824 0.85349 0.0
O236 O 0.85322 0.68661 0.91555 0.0
C237 C 0.91399 0.67138 0.95485 0.0
O238 O 0.89093 0.67991 0.96663 0.0
H239 H 0.89148 0.70285 0.86705 0.0
H240 H 0.8917 0.61636 0.85817 0.0
N241 N 0.86321 0.62238 0.91705 0.0
N242 N 0.85295 0.58265 0.93862 0.0
C243 C 0.87138 0.60364 0.93618 0.0
C244 C 0.83903 0.61276 0.90689 0.0
C245 C 0.83255 0.58832 0.92031 0.0
C246 C 0.83202 0.68502 0.93124 0.0
O247 O 0.82802 0.66258 0.94622 0.0
H248 H 0.88974 0.60598 0.94893 0.0
H249 H 0.82651 0.62337 0.89156 0.0
O250 O 0.91309 0.66104 0.93063 0.0
H251 H 0.90547 0.63869 0.80947 0.0
H252 H 0.81408 0.57589 0.91719 0.0
Cu253 Cu 0.87943 0.34757 0.09995 0.0
N254 N 0.89033 0.34506 0.13688 0.0
N255 N 0.90329 0.32546 0.17691 0.0
C256 C 0.89467 0.32114 0.15059 0.0
C257 C 0.90427 0.35335 0.17978 0.0
C258 C 0.89632 0.36538 0.155 0.0
O259 O 0.85269 0.31794 0.09412 0.0
C260 C 0.91275 0.34323 0.0513 0.0
O261 O 0.88955 0.34785 0.03772 0.0
H262 H 0.89131 0.30097 0.14135 0.0
H263 H 0.89523 0.38734 0.15041 0.0
N264 N 0.86327 0.38214 0.09275 0.0
N265 N 0.85297 0.42245 0.07228 0.0
C266 C 0.87183 0.40188 0.07481 0.0
C267 C 0.83845 0.39081 0.10218 0.0
C268 C 0.83194 0.41557 0.08943 0.0
C269 C 0.83158 0.3193 0.0783 0.0
O270 O 0.82775 0.34142 0.06282 0.0
H271 H 0.89077 0.40053 0.0628 0.0
H272 H 0.82547 0.37924 0.1164 0.0
O273 O 0.91236 0.34216 0.07764 0.0
H274 H 0.91073 0.36433 0.19826 0.0
H275 H 0.81295 0.42731 0.09205 0.0
H276 H 0.96799 0.19878 0.44352 0.0
H277 H 0.94924 0.11236 0.45651 0.0
H278 H 1.00128 0.19754 0.48143 0.0
H279 H 0.98109 0.11116 0.49595 0.0
H280 H 0.05798 0.11062 0.55106 0.0
H281 H 0.02604 0.11072 0.51166 0.0
H282 H 0.00669 0.19688 0.52823 0.0
H283 H 0.04007 0.19683 0.56608 0.0
C284 C 0.97078 0.1796 0.45491 0.0
C285 C 0.95606 0.1557 0.44725 0.0
C286 C 0.98973 0.17884 0.47686 0.0
C287 C 0.99393 0.1543 0.49228 0.0
C288 C 0.97899 0.13035 0.48447 0.0
C289 C 0.96054 0.13099 0.462 0.0
C290 C 0.04685 0.12949 0.54603 0.0
C291 C 0.05161 0.15377 0.5613 0.0
C292 C 0.02835 0.1296 0.52358 0.0
C293 C 0.01363 0.15388 0.51635 0.0
C294 C 0.01807 0.17796 0.53235 0.0
C295 C 0.03707 0.17797 0.55425 0.0
H296 H 0.06529 0.81892 0.46951 0.0
H297 H 0.03144 0.89595 0.43867 0.0
H298 H 0.03034 0.81811 0.50611 0.0
H299 H 0.99607 0.8949 0.47507 0.0
H300 H 0.95948 0.89801 0.56429 0.0
H301 H 0.99341 0.89936 0.52661 0.0
H302 H 0.97954 0.81219 0.51127 0.0
H303 H 0.94609 0.81073 0.54922 0.0
C304 C 0.05041 0.83571 0.47057 0.0
C305 C 0.05122 0.85753 0.45119 0.0
C306 C 0.0302 0.83511 0.49138 0.0
C307 C 0.0104 0.85643 0.49349 0.0
C308 C 0.01117 0.87827 0.47413 0.0
C309 C 0.03126 0.87874 0.45312 0.0
C310 C 0.96375 0.87913 0.55294 0.0
C311 C 0.95008 0.85425 0.55983 0.0
C312 C 0.98299 0.87996 0.53118 0.0
C313 C 0.98921 0.85587 0.51597 0.0
C314 C 0.97541 0.83105 0.52274 0.0
C315 C 0.95602 0.83028 0.54433 0.0
H316 H 0.45815 0.9483 0.11532 0.0
H317 H 0.44076 0.97186 0.19968 0.0
H318 H 0.49804 0.97969 0.11457 0.0
H319 H 0.47913 0.00462 0.19874 0.0
H320 H 0.56419 0.04242 0.20083 0.0
H321 H 0.52607 0.00932 0.20044 0.0
H322 H 0.51429 0.02452 0.11267 0.0
H323 H 0.55391 0.05622 0.11316 0.0
C324 C 0.46278 0.96053 0.13357 0.0
C325 C 0.44667 0.95752 0.15763 0.0
C326 C 0.48551 0.97871 0.13318 0.0
C327 C 0.49222 0.99482 0.15667 0.0
C328 C 0.47542 0.99213 0.18048 0.0
C329 C 0.45321 0.97347 0.18104 0.0
C330 C 0.55337 0.03858 0.18153 0.0
C331 C 0.56182 0.0519 0.15707 0.0
C332 C 0.53131 0.01973 0.18124 0.0
C333 C 0.51656 0.01423 0.15657 0.0
C334 C 0.52522 0.02768 0.13203 0.0
C335 C 0.5478 0.04603 0.13224 0.0
H336 H 0.54845 0.94723 0.81514 0.0
H337 H 0.56486 0.96329 0.90168 0.0
H338 H 0.51112 0.98149 0.81576 0.0
H339 H 0.52771 0.99787 0.90223 0.0
H340 H 0.43893 0.03476 0.89823 0.0
H341 H 0.47573 0.9998 0.89795 0.0
H342 H 0.50648 0.03294 0.82056 0.0
H343 H 0.46952 0.06761 0.82068 0.0
C344 C 0.544 0.95797 0.83433 0.0
C345 C 0.55963 0.95251 0.85837 0.0
C346 C 0.52278 0.97779 0.83462 0.0
C347 C 0.51648 0.99242 0.85903 0.0
C348 C 0.53193 0.9868 0.88315 0.0
C349 C 0.55337 0.96718 0.88277 0.0
C350 C 0.45343 0.03445 0.88108 0.0
C351 C 0.45129 0.05397 0.85947 0.0
C352 C 0.47466 0.0146 0.88105 0.0
C353 C 0.49402 0.01361 0.85924 0.0
C354 C 0.49177 0.03303 0.83756 0.0
C355 C 0.47075 0.05305 0.83775 0.0
H356 H 0.1888 0.46721 0.93738 0.0
H357 H 0.10514 0.44574 0.96135 0.0
H358 H 0.18926 0.50424 0.97188 0.0
H359 H 0.10569 0.48267 0.99615 0.0
H360 H 0.10892 0.57115 0.03423 0.0
H361 H 0.10766 0.53515 0.99845 0.0
H362 H 0.18897 0.50723 0.02384 0.0
H363 H 0.19032 0.5433 0.05932 0.0
C364 C 0.17043 0.47053 0.94988 0.0
C365 C 0.14693 0.45353 0.94661 0.0
C366 C 0.17079 0.49158 0.96982 0.0
C367 C 0.14754 0.49634 0.98677 0.0
C368 C 0.12386 0.47962 0.98326 0.0
C369 C 0.12363 0.45833 0.96352 0.0
C370 C 0.12658 0.55744 0.03201 0.0
C371 C 0.14971 0.56005 0.04962 0.0
C372 C 0.12576 0.53669 0.01171 0.0
C373 C 0.14822 0.51837 0.00833 0.0
C374 C 0.17143 0.52116 0.02578 0.0
C375 C 0.1721 0.54166 0.04627 0.0
H376 H 0.89715 0.55105 0.95237 0.0
H377 H 0.81027 0.56365 0.96923 0.0
H378 H 0.89777 0.51157 0.98423 0.0
H379 H 0.81089 0.52568 1.00251 0.0
H380 H 0.81084 0.44053 0.04041 0.0
H381 H 0.81151 0.47878 0.00749 0.0
H382 H 0.89716 0.49549 0.02911 0.0
H383 H 0.89659 0.45572 0.06064 0.0
C384 C 0.87829 0.54549 0.96327 0.0
C385 C 0.85361 0.56011 0.95823 0.0
C386 C 0.87859 0.52298 0.98172 0.0
C387 C 0.85432 0.51501 0.99608 0.0
C388 C 0.82984 0.53037 0.9914 0.0
C389 C 0.82943 0.55235 0.97245 0.0
C390 C 0.82974 0.45249 0.03804 0.0
C391 C 0.85361 0.44535 0.0531 0.0
C392 C 0.83016 0.47462 0.01929 0.0
C393 C 0.85431 0.49077 0.01561 0.0
C394 C 0.87826 0.48348 0.03085 0.0
C395 C 0.87797 0.46081 0.04911 0.0
H396 H 0.22978 0.08822 0.67319 0.0
H397 H 0.17548 0.12239 0.73589 0.0
H398 H 0.26641 0.08337 0.70772 0.0
H399 H 0.21191 0.11699 0.77029 0.0
H400 H 0.27631 0.08228 0.83043 0.0
H401 H 0.23956 0.08101 0.79542 0.0
H402 H 0.296 0.11576 0.73503 0.0
H403 H 0.33266 0.11694 0.76984 0.0
C404 C 0.22555 0.09474 0.69422 0.0
C405 C 0.19952 0.10586 0.70152 0.0
C406 C 0.24657 0.09185 0.71405 0.0
C407 C 0.24205 0.09978 0.74173 0.0
C408 C 0.21592 0.1103 0.74921 0.0
C409 C 0.19497 0.1134 0.72937 0.0
C410 C 0.28095 0.08933 0.8096 0.0
C411 C 0.30738 0.09982 0.80296 0.0
C412 C 0.25986 0.08877 0.7896 0.0
C413 C 0.26485 0.09839 0.76249 0.0
C414 C 0.29155 0.10797 0.75565 0.0
C415 C 0.31252 0.10879 0.77567 0.0
H416 H 0.68065 0.94466 0.77813 0.0
H417 H 0.73497 0.90246 0.83575 0.0
H418 H 0.71601 0.94081 0.74207 0.0
H419 H 0.77004 0.89824 0.79963 0.0
H420 H 0.83661 0.91599 0.73524 0.0
H421 H 0.8023 0.92483 0.77124 0.0
H422 H 0.73662 0.90399 0.7139 0.0
H423 H 0.77096 0.89508 0.67788 0.0
C424 C 0.70018 0.93474 0.78318 0.0
C425 C 0.70492 0.9238 0.80983 0.0
C426 C 0.72038 0.93236 0.76244 0.0
C427 C 0.74581 0.91908 0.7679 0.0
C428 C 0.75081 0.90884 0.79478 0.0
C429 C 0.73062 0.91116 0.81547 0.0
C430 C 0.81489 0.91311 0.7303 0.0
C431 C 0.80663 0.9046 0.70363 0.0
C432 C 0.79519 0.91824 0.75097 0.0
C433 C 0.7667 0.91504 0.7455 0.0
C434 C 0.75837 0.90704 0.71871 0.0
C435 C 0.77809 0.90188 0.69803 0.0
H436 H 0.27192 0.9017 0.17629 0.0
H437 H 0.31799 0.95789 0.22884 0.0
H438 H 0.23739 0.89582 0.2127 0.0
H439 H 0.28313 0.95219 0.26523 0.0
H440 H 0.23428 0.90524 0.33381 0.0
H441 H 0.26779 0.91498 0.29715 0.0
H442 H 0.20098 0.92103 0.23771 0.0
H443 H 0.16748 0.91157 0.27426 0.0
C444 C 0.27454 0.91306 0.1955 0.0
C445 C 0.29779 0.93023 0.19965 0.0
C446 C 0.25465 0.90976 0.21634 0.0
C447 C 0.25755 0.92346 0.2419 0.0
C448 C 0.28049 0.94108 0.24588 0.0
C449 C 0.30035 0.94451 0.22495 0.0
C450 C 0.22667 0.90893 0.31302 0.0
C451 C 0.1981 0.9074 0.30708 0.0
C452 C 0.2459 0.91456 0.29199 0.0
C453 C 0.23705 0.91872 0.2645 0.0
C454 C 0.20851 0.9175 0.2586 0.0
C455 C 0.18929 0.91197 0.27961 0.0
H456 H 0.68581 0.05622 0.23244 0.0
H457 H 0.73788 0.10237 0.17575 0.0
H458 H 0.72099 0.06114 0.26861 0.0
H459 H 0.77281 0.10745 0.21193 0.0
H460 H 0.84032 0.08995 0.27557 0.0
H461 H 0.80613 0.08041 0.2397 0.0
H462 H 0.74015 0.09938 0.29725 0.0
H463 H 0.77437 0.10928 0.33318 0.0
C464 C 0.70483 0.0672 0.2276 0.0
C465 C 0.70899 0.07895 0.2012 0.0
C466 C 0.72489 0.07018 0.2484 0.0
C467 C 0.74964 0.08478 0.24319 0.0
C468 C 0.7541 0.09585 0.21656 0.0
C469 C 0.734 0.09303 0.19584 0.0
C470 C 0.81857 0.09233 0.28063 0.0
C471 C 0.81021 0.10069 0.30732 0.0
C472 C 0.79895 0.08675 0.26002 0.0
C473 C 0.77042 0.08924 0.26557 0.0
C474 C 0.76197 0.09696 0.2924 0.0
C475 C 0.78163 0.10265 0.31302 0.0
H476 H 0.67704 0.23264 0.10773 0.0
H477 H 0.73556 0.16632 0.0929 0.0
H478 H 0.71328 0.26661 0.09788 0.0
H479 H 0.77171 0.20026 0.08347 0.0
H480 H 0.83471 0.26939 0.1051 0.0
H481 H 0.79831 0.23469 0.11039 0.0
H482 H 0.74339 0.28437 0.05983 0.0
H483 H 0.77981 0.31933 0.05466 0.0
C484 C 0.69748 0.22524 0.10212 0.0
C485 C 0.7033 0.19663 0.10139 0.0
C486 C 0.71827 0.24475 0.09646 0.0
C487 C 0.74541 0.23613 0.09003 0.0
C488 C 0.75112 0.20758 0.08881 0.0
C489 C 0.73035 0.18809 0.09432 0.0
C490 C 0.81497 0.27285 0.09489 0.0
C491 C 0.81018 0.29719 0.07949 0.0
C492 C 0.79413 0.25288 0.09784 0.0
C493 C 0.76792 0.25681 0.0856 0.0
C494 C 0.76327 0.28089 0.06977 0.0
C495 C 0.78421 0.30081 0.06665 0.0
H496 H 0.17795 0.73435 0.08473 0.0
H497 H 0.24065 0.67597 0.11131 0.0
H498 H 0.21287 0.77122 0.08379 0.0
H499 H 0.27537 0.71274 0.11049 0.0
H500 H 0.3355 0.78161 0.08555 0.0
H501 H 0.30095 0.74508 0.07945 0.0
H502 H 0.23967 0.79603 0.1203 0.0
H503 H 0.27406 0.83225 0.12685 0.0
C504 C 0.19922 0.72931 0.09003 0.0
C505 C 0.20649 0.70228 0.09827 0.0
C506 C 0.21917 0.75044 0.08966 0.0
C507 C 0.24685 0.74491 0.09722 0.0
C508 C 0.25429 0.71764 0.10435 0.0
C509 C 0.23433 0.6966 0.10498 0.0
C510 C 0.31473 0.78504 0.09335 0.0
C511 C 0.30775 0.81001 0.10676 0.0
C512 C 0.29489 0.76411 0.08975 0.0
C513 C 0.26755 0.76771 0.09931 0.0
C514 C 0.26042 0.7928 0.11225 0.0
C515 C 0.28025 0.81363 0.11601 0.0
H516 H 0.83491 0.73505 0.90457 0.0
H517 H 0.7806 0.68497 0.95554 0.0
H518 H 0.79838 0.76967 0.89967 0.0
H519 H 0.74411 0.71984 0.9508 0.0
H520 H 0.67695 0.77094 0.90396 0.0
H521 H 0.71356 0.73726 0.91324 0.0
H522 H 0.77182 0.80407 0.92646 0.0
H523 H 0.73529 0.83773 0.91755 0.0
C524 C 0.81529 0.73155 0.91499 0.0
C525 C 0.81068 0.70718 0.93039 0.0
C526 C 0.79438 0.75148 0.91227 0.0
C527 C 0.7683 0.74746 0.92476 0.0
C528 C 0.76387 0.72337 0.94065 0.0
C529 C 0.78486 0.7035 0.94353 0.0
C530 C 0.69744 0.77851 0.90918 0.0
C531 C 0.70308 0.80715 0.90976 0.0
C532 C 0.71845 0.75917 0.91452 0.0
C533 C 0.74564 0.76799 0.92049 0.0
C534 C 0.7512 0.79659 0.92149 0.0
C535 C 0.7302 0.81591 0.91628 0.0
H536 H 0.31533 0.21773 0.93351 0.0
H537 H 0.28793 0.18968 0.85302 0.0
H538 H 0.27929 0.25352 0.93324 0.0
H539 H 0.25178 0.22519 0.85286 0.0
H540 H 0.21432 0.31253 0.84857 0.0
H541 H 0.25029 0.27713 0.85039 0.0
H542 H 0.22653 0.25693 0.93439 0.0
H543 H 0.19025 0.29255 0.93263 0.0
C544 C 0.3017 0.21929 0.91573 0.0
C545 C 0.30452 0.20094 0.89324 0.0
C546 C 0.2809 0.23958 0.9157 0.0
C547 C 0.26274 0.24217 0.89303 0.0
C548 C 0.26561 0.22384 0.87054 0.0
C549 C 0.28616 0.20337 0.87071 0.0
C550 C 0.21675 0.30066 0.86751 0.0
C551 C 0.19937 0.30537 0.89047 0.0
C552 C 0.23728 0.28024 0.86846 0.0
C553 C 0.24115 0.26417 0.89247 0.0
C554 C 0.22411 0.26912 0.91565 0.0
C555 C 0.20329 0.28941 0.9146 0.0
H556 H 0.08766 0.83248 0.27594 0.0
H557 H 0.11794 0.77139 0.33423 0.0
H558 H 0.08788 0.79737 0.23924 0.0
H559 H 0.11809 0.73649 0.2977 0.0
H560 H 0.09052 0.67522 0.2309 0.0
H561 H 0.08539 0.71029 0.26676 0.0
H562 H 0.12528 0.77059 0.21384 0.0
H563 H 0.13113 0.73553 0.17811 0.0
C564 C 0.09405 0.81152 0.28099 0.0
C565 C 0.10285 0.80473 0.30797 0.0
C566 C 0.09435 0.79149 0.25996 0.0
C567 C 0.10307 0.7642 0.26559 0.0
C568 C 0.11104 0.75726 0.29276 0.0
C569 C 0.11108 0.77732 0.31366 0.0
C570 C 0.09844 0.69582 0.22681 0.0
C571 C 0.11144 0.70225 0.20142 0.0
C572 C 0.09536 0.71598 0.24742 0.0
C573 C 0.10492 0.74319 0.24312 0.0
C574 C 0.11737 0.74988 0.21762 0.0
C575 C 0.12071 0.72966 0.19709 0.0
H576 H 0.05783 0.22866 0.68186 0.0
H577 H 0.0957 0.17056 0.73872 0.0
H578 H 0.06328 0.26557 0.71586 0.0
H579 H 0.10008 0.20714 0.77322 0.0
H580 H 0.13523 0.28403 0.81481 0.0
H581 H 0.1272 0.24687 0.78162 0.0
H582 H 0.04889 0.28437 0.75873 0.0
H583 H 0.05757 0.32201 0.79144 0.0
C584 C 0.06684 0.22365 0.70183 0.0
C585 C 0.07649 0.19671 0.70751 0.0
C586 C 0.06989 0.24483 0.72142 0.0
C587 C 0.08238 0.2395 0.74729 0.0
C588 C 0.09099 0.21223 0.75331 0.0
C589 C 0.08826 0.19116 0.73361 0.0
C590 C 0.11627 0.28423 0.80274 0.0
C591 C 0.09704 0.30591 0.80572 0.0
C592 C 0.11154 0.26284 0.78378 0.0
C593 C 0.08725 0.26239 0.76754 0.0
C594 C 0.068 0.28417 0.77055 0.0
C595 C 0.07293 0.30576 0.78931 0.0
H596 H 0.91921 0.73047 0.83909 0.0
H597 H 0.89587 0.67218 0.77517 0.0
H598 H 0.92705 0.76592 0.80397 0.0
H599 H 0.90389 0.7077 0.73999 0.0
H600 H 0.94373 0.77168 0.6822 0.0
H601 H 0.94041 0.7358 0.71789 0.0
H602 H 0.899 0.79374 0.77222 0.0
H603 H 0.9026 0.82964 0.73682 0.0
C604 C 0.91559 0.7252 0.81758 0.0
C605 C 0.90664 0.69844 0.81006 0.0
C606 C 0.92016 0.74556 0.79742 0.0
C607 C 0.91598 0.73971 0.76917 0.0
C608 C 0.90763 0.71281 0.76154 0.0
C609 C 0.90301 0.69242 0.78174 0.0
C610 C 0.93414 0.77684 0.70185 0.0
C611 C 0.9234 0.80355 0.70661 0.0
C612 C 0.93207 0.75621 0.72223 0.0
C613 C 0.91936 0.76186 0.74787 0.0
C614 C 0.90919 0.78875 0.75282 0.0
C615 C 0.91115 0.80932 0.73245 0.0
H616 H 0.90479 0.17389 0.27136 0.0
H617 H 0.95419 0.22928 0.32168 0.0
H618 H 0.90032 0.2099 0.23614 0.0
H619 H 0.94988 0.26527 0.2862 0.0
H620 H 0.90309 0.33114 0.23305 0.0
H621 H 0.91238 0.29522 0.2675 0.0
H622 H 0.92767 0.23621 0.20194 0.0
H623 H 0.91874 0.27205 0.16753 0.0
C624 C 0.91496 0.19364 0.27479 0.0
C625 C 0.92979 0.1987 0.2994 0.0
C626 C 0.91249 0.21426 0.25452 0.0
C627 C 0.92467 0.24049 0.25841 0.0
C628 C 0.93999 0.24538 0.28275 0.0
C629 C 0.94262 0.22468 0.30297 0.0
C630 C 0.90878 0.31064 0.22593 0.0
C631 C 0.90988 0.30455 0.19741 0.0
C632 C 0.91413 0.29003 0.24571 0.0
C633 C 0.92063 0.26281 0.23745 0.0
C634 C 0.92227 0.25685 0.20898 0.0
C635 C 0.91704 0.27744 0.18923 0.0
H636 H 0.99743 0.08183 0.65224 0.0
H637 H 0.07337 0.04327 0.68031 0.0
H638 H 0.97396 0.03712 0.65421 0.0
H639 H 0.04968 0.99872 0.6834 0.0
H640 H 0.00742 0.91853 0.65475 0.0
H641 H 0.03125 0.96314 0.65519 0.0
H642 H 0.95616 1.00277 0.68425 0.0
H643 H 0.93214 0.95837 0.68268 0.0
C644 C 0.00902 0.06386 0.65918 0.0
C645 C 0.03727 0.06609 0.66602 0.0
C646 C 0.99552 0.03819 0.66048 0.0
C647 C 0.00988 0.01418 0.66897 0.0
C648 C 0.03806 0.0166 0.67629 0.0
C649 C 0.05162 0.0422 0.67469 0.0
C650 C 0.99608 0.93676 0.66139 0.0
C651 C 0.96787 0.93494 0.66854 0.0
C652 C 0.00977 0.96237 0.66178 0.0
C653 C 0.99564 0.9867 0.66964 0.0
C654 C 0.96759 0.98465 0.67752 0.0
C655 C 0.95384 0.95912 0.67681 0.0
H656 H 1.0043 0.0842 0.31272 0.0
H657 H 0.93542 0.04521 0.35506 0.0
H658 H 0.02843 0.03968 0.31124 0.0
H659 H 0.95974 1.00101 0.3541 0.0
H660 H 0.99986 0.92035 0.32656 0.0
H661 H 0.9753 0.96454 0.32317 0.0
H662 H 0.0511 0.00814 0.34321 0.0
H663 H 0.07572 0.96418 0.34599 0.0
C664 C 0.99431 0.06617 0.32172 0.0
C665 C 0.96797 0.06831 0.33407 0.0
C666 C 0.00819 0.04067 0.32098 0.0
C667 C 0.99603 0.01676 0.33257 0.0
C668 C 0.96954 0.01889 0.34462 0.0
C669 C 0.95569 0.04433 0.34535 0.0
C670 C 0.01131 0.93937 0.33006 0.0
C671 C 0.03973 0.9387 0.33663 0.0
C672 C 0.99721 0.9647 0.32827 0.0
C673 C 0.01122 0.98989 0.33299 0.0
C674 C 0.03974 0.98918 0.33908 0.0
C675 C 0.05382 0.96391 0.34087 0.0
H676 H 0.65653 0.9311 0.96645 0.0
H677 H 0.69067 1.00295 0.92489 0.0
H678 H 0.65807 0.95568 0.01043 0.0
H679 H 0.69284 0.02737 0.96917 0.0
H680 H 0.65961 0.07237 0.04634 0.0
H681 H 0.66133 0.04766 1.00244 0.0
H682 H 0.6894 0.97387 0.04506 0.0
H683 H 0.68704 0.99847 0.08923 0.0
C684 C 0.6646 0.95208 0.96671 0.0
C685 C 0.67337 0.9651 0.94209 0.0
C686 C 0.66566 0.96611 0.99202 0.0
C687 C 0.67558 0.99351 0.99337 0.0
C688 C 0.68473 0.00641 0.9688 0.0
C689 C 0.68362 0.99237 0.94343 0.0
C690 C 0.66623 0.05089 0.0464 0.0
C691 C 0.67308 0.03736 0.07135 0.0
C692 C 0.66741 0.03677 0.02115 0.0
C693 C 0.67552 0.00877 0.02018 0.0
C694 C 0.68272 0.99533 0.0451 0.0
C695 C 0.6815 0.00946 0.07041 0.0
H696 H 0.32438 0.9371 0.04902 0.0
H697 H 0.35911 0.0113 0.08533 0.0
H698 H 0.32086 0.96052 0.0044 0.0
H699 H 0.35672 0.03444 0.04044 0.0
H700 H 0.34948 0.99943 0.92258 0.0
H701 H 0.34892 0.97636 0.96755 0.0
H702 H 0.32682 0.05388 0.00688 0.0
H703 H 0.32856 0.07708 0.96203 0.0
C704 C 0.33136 0.95841 0.04743 0.0
C705 C 0.34206 0.97234 0.0707 0.0
C706 C 0.32951 0.97181 0.02177 0.0
C707 C 0.33863 0.99937 0.01865 0.0
C708 C 0.34906 0.01337 0.04208 0.0
C709 C 0.3506 1.00006 0.06783 0.0
C710 C 0.34432 0.01148 0.94081 0.0
C711 C 0.3392 0.04009 0.93876 0.0
C712 C 0.34386 0.99823 0.96664 0.0
C713 C 0.33793 0.01324 0.99099 0.0
C714 C 0.33204 0.04174 0.98873 0.0
C715 C 0.33283 0.05503 0.96296 0.0
H716 H 0.9242 0.69356 0.00619 0.0
H717 H 0.96475 0.65361 0.93695 0.0
H718 H 0.96856 0.69606 0.03056 0.0
H719 H 0.00882 0.65554 0.9615 0.0
H720 H 0.08847 0.68504 1.0019 0.0
H721 H 0.04418 0.68736 0.97745 0.0
H722 H 1.00125 0.66518 0.05301 0.0
H723 H 0.04536 0.66348 0.07757 0.0
C724 C 0.94254 0.68528 0.99617 0.0
C725 C 0.94089 0.67335 0.96964 0.0
C726 C 0.96795 0.6866 0.01019 0.0
C727 C 0.99227 0.676 0.99799 0.0
C728 C 0.99061 0.66429 0.97135 0.0
C729 C 0.96526 0.66301 0.95734 0.0
C730 C 0.06957 0.68085 0.01334 0.0
C731 C 0.0705 0.67398 0.04167 0.0
C732 C 0.04418 0.68202 0.99929 0.0
C733 C 0.01915 0.67633 0.01323 0.0
C734 C 0.02007 0.67001 0.04169 0.0
C735 C 0.04543 0.66887 0.05574 0.0
H736 H 0.04672 0.32669 0.93057 0.0
H737 H 0.08676 0.35427 0.00584 0.0
H738 H 1.00254 0.32395 0.95488 0.0
H739 H 0.04232 0.35256 0.03 0.0
H740 H 0.96257 0.3258 0.07204 0.0
H741 H 0.007 0.32332 0.0481 0.0
H742 H 0.96812 0.35381 0.97318 0.0
H743 H 0.9235 0.35527 0.9969 0.0
C744 C 0.04608 0.33219 0.95235 0.0
C745 C 0.07024 0.34078 0.96627 0.0
C746 C 0.02067 0.33081 0.96625 0.0
C747 C 0.0187 0.33828 0.99437 0.0
C748 C 0.04305 0.34631 0.00845 0.0
C749 C 0.06855 0.34741 0.99458 0.0
C750 C 0.96348 0.33181 0.0504 0.0
C751 C 0.93949 0.34075 0.03637 0.0
C752 C 0.98903 0.33057 0.03671 0.0
C753 C 0.99128 0.33846 0.0087 0.0
C754 C 0.96716 0.34713 0.99462 0.0
C755 C 0.94155 0.34812 0.00825 0.0
loop_
_geom_bond_atom_site_label_1
_geom_bond_atom_site_label_2
_geom_bond_distance
_geom_bond_site_symmetry_2
_ccdc_geom_bond_type
Cu0 N1 1.999 . S
Cu0 O6 1.974 . S
Cu0 N11 1.985 . S
Cu0 O20 1.959 . S
N1 Cu0 1.999 . S
N1 C3 1.263 . S
N1 C5 1.389 . S
N2 C3 1.358 . S
N2 C4 1.400 . S
C3 N1 1.263 . S
C3 N2 1.358 . S
C3 H9 0.930 . S
C4 N2 1.400 . S
C4 C5 1.351 . S
C4 H21 0.930 . S
C5 N1 1.389 . S
C5 C4 1.351 . S
C5 H10 0.930 . S
O6 Cu0 1.974 . S
O6 C16 1.282 . S
C7 O8 1.261 . S
C7 O20 1.251 . S
O8 C7 1.261 . S
H9 C3 0.930 . S
H10 C5 0.930 . S
N11 Cu0 1.985 . S
N11 C13 1.335 . S
N11 C14 1.390 . S
N12 C13 1.345 . S
N12 C15 1.336 . S
C13 N11 1.335 . S
C13 N12 1.345 . S
C13 H18 0.930 . S
C14 N11 1.390 . S
C14 C15 1.346 . S
C14 H19 0.930 . S
C15 N12 1.336 . S
C15 C14 1.346 . S
C15 H22 0.929 . S
C16 O6 1.282 . S
C16 O17 1.216 . S
O17 C16 1.216 . S
H18 C13 0.930 . S
H19 C14 0.930 . S
O20 Cu0 1.959 . S
O20 C7 1.251 . S
H21 C4 0.930 . S
H22 C15 0.929 . S
Cu23 N24 1.999 . S
Cu23 O29 1.974 . S
Cu23 N34 1.985 . S
Cu23 O43 1.959 . S
N24 Cu23 1.999 . S
N24 C26 1.263 . S
N24 C28 1.389 . S
N25 C26 1.358 . S
N25 C27 1.400 . S
C26 N24 1.263 . S
C26 N25 1.358 . S
C26 H32 0.930 . S
C27 N25 1.400 . S
C27 C28 1.351 . S
C27 H44 0.930 . S
C28 N24 1.389 . S
C28 C27 1.351 . S
C28 H33 0.930 . S
O29 Cu23 1.974 . S
O29 C39 1.282 . S
C30 O31 1.261 . S
C30 O43 1.251 . S
O31 C30 1.261 . S
H32 C26 0.930 . S
H33 C28 0.930 . S
N34 Cu23 1.985 . S
N34 C36 1.335 . S
N34 C37 1.390 . S
N35 C36 1.345 . S
N35 C38 1.336 . S
C36 N34 1.335 . S
C36 N35 1.345 . S
C36 H41 0.930 . S
C37 N34 1.390 . S
C37 C38 1.346 . S
C37 H42 0.930 . S
C38 N35 1.336 . S
C38 C37 1.346 . S
C38 H45 0.929 . S
C39 O29 1.282 . S
C39 O40 1.216 . S
O40 C39 1.216 . S
H41 C36 0.930 . S
H42 C37 0.930 . S
O43 Cu23 1.959 . S
O43 C30 1.251 . S
H44 C27 0.930 . S
H45 C38 0.929 . S
Cu46 N47 1.999 . S
Cu46 O52 1.974 . S
Cu46 N57 1.985 . S
Cu46 O66 1.959 . S
N47 Cu46 1.999 . S
N47 C49 1.263 . S
N47 C51 1.389 . S
N48 C49 1.358 . S
N48 C50 1.400 . S
C49 N47 1.263 . S
C49 N48 1.358 . S
C49 H55 0.930 . S
C50 N48 1.400 . S
C50 C51 1.351 . S
C50 H67 0.930 . S
C51 N47 1.389 . S
C51 C50 1.351 . S
C51 H56 0.930 . S
O52 Cu46 1.974 . S
O52 C62 1.282 . S
C53 O54 1.261 . S
C53 O66 1.251 . S
O54 C53 1.261 . S
H55 C49 0.930 . S
H56 C51 0.930 . S
N57 Cu46 1.985 . S
N57 C59 1.335 . S
N57 C60 1.390 . S
N58 C59 1.345 . S
N58 C61 1.336 . S
C59 N57 1.335 . S
C59 N58 1.345 . S
C59 H64 0.930 . S
C60 N57 1.390 . S
C60 C61 1.346 . S
C60 H65 0.930 . S
C61 N58 1.336 . S
C61 C60 1.346 . S
C61 H68 0.929 . S
C62 O52 1.282 . S
C62 O63 1.216 . S
O63 C62 1.216 . S
H64 C59 0.930 . S
H65 C60 0.930 . S
O66 Cu46 1.959 . S
O66 C53 1.251 . S
H67 C50 0.930 . S
H68 C61 0.929 . S
Cu69 N70 1.999 . S
Cu69 O75 1.974 . S
Cu69 N80 1.985 . S
Cu69 O89 1.959 . S
N70 Cu69 1.999 . S
N70 C72 1.263 . S
N70 C74 1.389 . S
N71 C72 1.358 . S
N71 C73 1.400 . S
C72 N70 1.263 . S
C72 N71 1.358 . S
C72 H78 0.930 . S
C73 N71 1.400 . S
C73 C74 1.351 . S
C73 H90 0.930 . S
C74 N70 1.389 . S
C74 C73 1.351 . S
C74 H79 0.930 . S
O75 Cu69 1.974 . S
O75 C85 1.282 . S
C76 O77 1.261 . S
C76 O89 1.251 . S
O77 C76 1.261 . S
H78 C72 0.930 . S
H79 C74 0.930 . S
N80 Cu69 1.985 . S
N80 C82 1.335 . S
N80 C83 1.390 . S
N81 C82 1.345 . S
N81 C84 1.336 . S
C82 N80 1.335 . S
C82 N81 1.345 . S
C82 H87 0.930 . S
C83 N80 1.390 . S
C83 C84 1.346 . S
C83 H88 0.930 . S
C84 N81 1.336 . S
C84 C83 1.346 . S
C84 H91 0.929 . S
C85 O75 1.282 . S
C85 O86 1.216 . S
O86 C85 1.216 . S
H87 C82 0.930 . S
H88 C83 0.930 . S
O89 Cu69 1.959 . S
O89 C76 1.251 . S
H90 C73 0.930 . S
H91 C84 0.929 . S
Cu92 N93 1.999 . S
Cu92 O98 1.974 . S
Cu92 N103 1.985 . S
Cu92 O112 1.959 . S
N93 Cu92 1.999 . S
N93 C95 1.263 . S
N93 C97 1.389 . S
N94 C95 1.358 . S
N94 C96 1.400 . S
C95 N93 1.263 . S
C95 N94 1.358 . S
C95 H101 0.930 . S
C96 N94 1.400 . S
C96 C97 1.351 . S
C96 H113 0.930 . S
C97 N93 1.389 . S
C97 C96 1.351 . S
C97 H102 0.930 . S
O98 Cu92 1.974 . S
O98 C108 1.282 . S
C99 O100 1.261 . S
C99 O112 1.251 . S
O100 C99 1.261 . S
H101 C95 0.930 . S
H102 C97 0.930 . S
N103 Cu92 1.985 . S
N103 C105 1.335 . S
N103 C106 1.390 . S
N104 C105 1.345 . S
N104 C107 1.336 . S
C105 N103 1.335 . S
C105 N104 1.345 . S
C105 H110 0.930 . S
C106 N103 1.390 . S
C106 C107 1.346 . S
C106 H111 0.930 . S
C107 N104 1.336 . S
C107 C106 1.346 . S
C107 H114 0.929 . S
C108 O98 1.282 . S
C108 O109 1.216 . S
O109 C108 1.216 . S
H110 C105 0.930 . S
H111 C106 0.930 . S
O112 Cu92 1.959 . S
O112 C99 1.251 . S
H113 C96 0.930 . S
H114 C107 0.929 . S
Cu115 N116 1.999 . S
Cu115 O121 1.974 . S
Cu115 N126 1.985 . S
Cu115 O135 1.959 . S
N116 Cu115 1.999 . S
N116 C118 1.263 . S
N116 C120 1.389 . S
N117 C118 1.358 . S
N117 C119 1.400 . S
C118 N116 1.263 . S
C118 N117 1.358 . S
C118 H124 0.930 . S
C119 N117 1.400 . S
C119 C120 1.351 . S
C119 H136 0.930 . S
C120 N116 1.389 . S
C120 C119 1.351 . S
C120 H125 0.930 . S
O121 Cu115 1.974 . S
O121 C131 1.282 . S
C122 O123 1.261 . S
C122 O135 1.251 . S
O123 C122 1.261 . S
H124 C118 0.930 . S
H125 C120 0.930 . S
N126 Cu115 1.985 . S
N126 C128 1.335 . S
N126 C129 1.390 . S
N127 C128 1.345 . S
N127 C130 1.336 . S
C128 N126 1.335 . S
C128 N127 1.345 . S
C128 H133 0.930 . S
C129 N126 1.390 . S
C129 C130 1.346 . S
C129 H134 0.930 . S
C130 N127 1.336 . S
C130 C129 1.346 . S
C130 H137 0.929 . S
C131 O121 1.282 . S
C131 O132 1.216 . S
O132 C131 1.216 . S
H133 C128 0.930 . S
H134 C129 0.930 . S
O135 Cu115 1.959 . S
O135 C122 1.251 . S
H136 C119 0.930 . S
H137 C130 0.929 . S
Cu138 N139 1.999 . S
Cu138 O144 1.974 . S
Cu138 N149 1.985 . S
Cu138 O158 1.959 . S
N139 Cu138 1.999 . S
N139 C141 1.263 . S
N139 C143 1.389 . S
N140 C141 1.358 . S
N140 C142 1.400 . S
C141 N139 1.263 . S
C141 N140 1.358 . S
C141 H147 0.930 . S
C142 N140 1.400 . S
C142 C143 1.351 . S
C142 H159 0.930 . S
C143 N139 1.389 . S
C143 C142 1.351 . S
C143 H148 0.930 . S
O144 Cu138 1.974 . S
O144 C154 1.282 . S
C145 O146 1.261 . S
C145 O158 1.251 . S
O146 C145 1.261 . S
H147 C141 0.930 . S
H148 C143 0.930 . S
N149 Cu138 1.985 . S
N149 C151 1.335 . S
N149 C152 1.390 . S
N150 C151 1.345 . S
N150 C153 1.336 . S
C151 N149 1.335 . S
C151 N150 1.345 . S
C151 H156 0.930 . S
C152 N149 1.390 . S
C152 C153 1.346 . S
C152 H157 0.930 . S
C153 N150 1.336 . S
C153 C152 1.346 . S
C153 H160 0.929 . S
C154 O144 1.282 . S
C154 O155 1.216 . S
O155 C154 1.216 . S
H156 C151 0.930 . S
H157 C152 0.930 . S
O158 Cu138 1.959 . S
O158 C145 1.251 . S
H159 C142 0.930 . S
H160 C153 0.929 . S
Cu161 N162 1.999 . S
Cu161 O167 1.974 . S
Cu161 N172 1.985 . S
Cu161 O181 1.959 . S
N162 Cu161 1.999 . S
N162 C164 1.263 . S
N162 C166 1.389 . S
N163 C164 1.358 . S
N163 C165 1.400 . S
C164 N162 1.263 . S
C164 N163 1.358 . S
C164 H170 0.930 . S
C165 N163 1.400 . S
C165 C166 1.351 . S
C165 H182 0.930 . S
C166 N162 1.389 . S
C166 C165 1.351 . S
C166 H171 0.930 . S
O167 Cu161 1.974 . S
O167 C177 1.282 . S
C168 O169 1.261 . S
C168 O181 1.251 . S
O169 C168 1.261 . S
H170 C164 0.930 . S
H171 C166 0.930 . S
N172 Cu161 1.985 . S
N172 C174 1.335 . S
N172 C175 1.390 . S
N173 C174 1.345 . S
N173 C176 1.336 . S
C174 N172 1.335 . S
C174 N173 1.345 . S
C174 H179 0.930 . S
C175 N172 1.390 . S
C175 C176 1.346 . S
C175 H180 0.930 . S
C176 N173 1.336 . S
C176 C175 1.346 . S
C176 H183 0.929 . S
C177 O167 1.282 . S
C177 O178 1.216 . S
O178 C177 1.216 . S
H179 C174 0.930 . S
H180 C175 0.930 . S
O181 Cu161 1.959 . S
O181 C168 1.251 . S
H182 C165 0.930 . S
H183 C176 0.929 . S
Cu184 N185 1.999 . S
Cu184 O190 1.974 . S
Cu184 N195 1.985 . S
Cu184 O204 1.959 . S
N185 Cu184 1.999 . S
N185 C187 1.263 . S
N185 C189 1.389 . S
N186 C187 1.358 . S
N186 C188 1.400 . S
C187 N185 1.263 . S
C187 N186 1.358 . S
C187 H193 0.930 . S
C188 N186 1.400 . S
C188 C189 1.351 . S
C188 H205 0.930 . S
C189 N185 1.389 . S
C189 C188 1.351 . S
C189 H194 0.930 . S
O190 Cu184 1.974 . S
O190 C200 1.282 . S
C191 O192 1.261 . S
C191 O204 1.251 . S
O192 C191 1.261 . S
H193 C187 0.930 . S
H194 C189 0.930 . S
N195 Cu184 1.985 . S
N195 C197 1.335 . S
N195 C198 1.390 . S
N196 C197 1.345 . S
N196 C199 1.336 . S
C197 N195 1.335 . S
C197 N196 1.345 . S
C197 H202 0.930 . S
C198 N195 1.390 . S
C198 C199 1.346 . S
C198 H203 0.930 . S
C199 N196 1.336 . S
C199 C198 1.346 . S
C199 H206 0.929 . S
C200 O190 1.282 . S
C200 O201 1.216 . S
O201 C200 1.216 . S
H202 C197 0.930 . S
H203 C198 0.930 . S
O204 Cu184 1.959 . S
O204 C191 1.251 . S
H205 C188 0.930 . S
H206 C199 0.929 . S
Cu207 N208 1.999 . S
Cu207 O213 1.974 . S
Cu207 N218 1.985 . S
Cu207 O227 1.959 . S
N208 Cu207 1.999 . S
N208 C210 1.263 . S
N208 C212 1.389 . S
N209 C210 1.358 . S
N209 C211 1.400 . S
C210 N208 1.263 . S
C210 N209 1.358 . S
C210 H216 0.930 . S
C211 N209 1.400 . S
C211 C212 1.351 . S
C211 H228 0.930 . S
C212 N208 1.389 . S
C212 C211 1.351 . S
C212 H217 0.930 . S
O213 Cu207 1.974 . S
O213 C223 1.282 . S
C214 O215 1.261 . S
C214 O227 1.251 . S
O215 C214 1.261 . S
H216 C210 0.930 . S
H217 C212 0.930 . S
N218 Cu207 1.985 . S
N218 C220 1.335 . S
N218 C221 1.390 . S
N219 C220 1.345 . S
N219 C222 1.336 . S
C220 N218 1.335 . S
C220 N219 1.345 . S
C220 H225 0.930 . S
C221 N218 1.390 . S
C221 C222 1.346 . S
C221 H226 0.930 . S
C222 N219 1.336 . S
C222 C221 1.346 . S
C222 H229 0.929 . S
C223 O213 1.282 . S
C223 O224 1.216 . S
O224 C223 1.216 . S
H225 C220 0.930 . S
H226 C221 0.930 . S
O227 Cu207 1.959 . S
O227 C214 1.251 . S
H228 C211 0.930 . S
H229 C222 0.929 . S
Cu230 N231 1.999 . S
Cu230 O236 1.974 . S
Cu230 N241 1.985 . S
Cu230 O250 1.959 . S
N231 Cu230 1.999 . S
N231 C233 1.263 . S
N231 C235 1.389 . S
N232 C233 1.358 . S
N232 C234 1.400 . S
C233 N231 1.263 . S
C233 N232 1.358 . S
C233 H239 0.930 . S
C234 N232 1.400 . S
C234 C235 1.351 . S
C234 H251 0.930 . S
C235 N231 1.389 . S
C235 C234 1.351 . S
C235 H240 0.930 . S
O236 Cu230 1.974 . S
O236 C246 1.282 . S
C237 O238 1.261 . S
C237 O250 1.251 . S
O238 C237 1.261 . S
H239 C233 0.930 . S
H240 C235 0.930 . S
N241 Cu230 1.985 . S
N241 C243 1.335 . S
N241 C244 1.390 . S
N242 C243 1.345 . S
N242 C245 1.336 . S
C243 N241 1.335 . S
C243 N242 1.345 . S
C243 H248 0.930 . S
C244 N241 1.390 . S
C244 C245 1.346 . S
C244 H249 0.930 . S
C245 N242 1.336 . S
C245 C244 1.346 . S
C245 H252 0.929 . S
C246 O236 1.282 . S
C246 O247 1.216 . S
O247 C246 1.216 . S
H248 C243 0.930 . S
H249 C244 0.930 . S
O250 Cu230 1.959 . S
O250 C237 1.251 . S
H251 C234 0.930 . S
H252 C245 0.929 . S
Cu253 N254 1.999 . S
Cu253 O259 1.974 . S
Cu253 N264 1.985 . S
Cu253 O273 1.959 . S
N254 Cu253 1.999 . S
N254 C256 1.263 . S
N254 C258 1.389 . S
N255 C256 1.358 . S
N255 C257 1.400 . S
C256 N254 1.263 . S
C256 N255 1.358 . S
C256 H262 0.930 . S
C257 N255 1.400 . S
C257 C258 1.351 . S
C257 H274 0.930 . S
C258 N254 1.389 . S
C258 C257 1.351 . S
C258 H263 0.930 . S
O259 Cu253 1.974 . S
O259 C269 1.282 . S
C260 O261 1.261 . S
C260 O273 1.251 . S
O261 C260 1.261 . S
H262 C256 0.930 . S
H263 C258 0.930 . S
N264 Cu253 1.985 . S
N264 C266 1.335 . S
N264 C267 1.390 . S
N265 C266 1.345 . S
N265 C268 1.336 . S
C266 N264 1.335 . S
C266 N265 1.345 . S
C266 H271 0.930 . S
C267 N264 1.390 . S
C267 C268 1.346 . S
C267 H272 0.930 . S
C268 N265 1.336 . S
C268 C267 1.346 . S
C268 H275 0.929 . S
C269 O259 1.282 . S
C269 O270 1.216 . S
O270 C269 1.216 . S
H271 C266 0.930 . S
H272 C267 0.930 . S
O273 Cu253 1.959 . S
O273 C260 1.251 . S
H274 C257 0.930 . S
H275 C268 0.929 . S
H276 C284 0.950 . S
H277 C289 0.950 . S
H278 C286 0.950 1_455 S
H279 C288 0.950 . S
H280 C290 0.950 . S
H281 C292 0.950 1_655 S
H282 C294 0.950 . S
H283 C295 0.950 . S
C284 H276 0.950 . S
C284 C285 1.386 . S
C284 C286 1.391 . S
C285 C284 1.386 . S
C285 C289 1.393 . S
C286 H278 0.950 1_655 S
C286 C284 1.391 . S
C286 C287 1.400 . S
C287 C286 1.400 . S
C287 C288 1.398 . S
C287 C293 1.491 1_655 S
C288 H279 0.950 . S
C288 C287 1.398 . S
C288 C289 1.391 . S
C289 H277 0.950 . S
C289 C285 1.393 . S
C289 C288 1.391 . S
C290 H280 0.950 . S
C290 C291 1.386 . S
C290 C292 1.391 . S
C291 C290 1.386 . S
C291 C295 1.393 . S
C292 H281 0.950 1_455 S
C292 C290 1.391 . S
C292 C293 1.400 . S
C293 C287 1.491 1_455 S
C293 C292 1.400 . S
C293 C294 1.398 . S
C294 H282 0.950 . S
C294 C293 1.398 . S
C294 C295 1.391 . S
C295 H283 0.950 . S
C295 C291 1.393 . S
C295 C294 1.391 . S
H296 C304 0.950 . S
H297 C309 0.950 . S
H298 C306 0.950 . S
H299 C308 0.950 . S
H300 C310 0.950 . S
H301 C312 0.950 . S
H302 C314 0.950 . S
H303 C315 0.950 . S
C304 H296 0.950 . S
C304 C305 1.386 . S
C304 C306 1.391 . S
C305 C304 1.386 . S
C305 C309 1.393 . S
C306 H298 0.950 . S
C306 C304 1.391 . S
C306 C307 1.400 . S
C307 C306 1.400 . S
C307 C308 1.398 1_455 S
C307 C313 1.491 1_455 S
C308 H299 0.950 . S
C308 C307 1.398 1_655 S
C308 C309 1.391 1_655 S
C309 H297 0.950 . S
C309 C305 1.393 . S
C309 C308 1.391 1_455 S
C310 H300 0.950 . S
C310 C311 1.386 . S
C310 C312 1.391 . S
C311 C310 1.386 . S
C311 C315 1.393 . S
C312 H301 0.950 . S
C312 C310 1.391 . S
C312 C313 1.400 . S
C313 C307 1.491 1_655 S
C313 C312 1.400 . S
C313 C314 1.398 1_655 S
C314 H302 0.950 . S
C314 C313 1.398 1_455 S
C314 C315 1.391 1_455 S
C315 H303 0.950 . S
C315 C311 1.393 . S
C315 C314 1.391 1_655 S
H316 C324 0.950 . S
H317 C329 0.950 . S
H318 C326 0.950 1_545 S
H319 C328 0.950 . S
H320 C330 0.950 . S
H321 C332 0.950 1_565 S
H322 C334 0.950 . S
H323 C335 0.950 . S
C324 H316 0.950 . S
C324 C325 1.386 . S
C324 C326 1.391 . S
C325 C324 1.386 . S
C325 C329 1.393 . S
C326 H318 0.950 1_565 S
C326 C324 1.391 . S
C326 C327 1.400 . S
C327 C326 1.400 . S
C327 C328 1.398 . S
C327 C333 1.491 1_565 S
C328 H319 0.950 . S
C328 C327 1.398 . S
C328 C329 1.391 . S
C329 H317 0.950 . S
C329 C325 1.393 . S
C329 C328 1.391 . S
C330 H320 0.950 . S
C330 C331 1.386 . S
C330 C332 1.391 . S
C331 C330 1.386 . S
C331 C335 1.393 . S
C332 H321 0.950 1_545 S
C332 C330 1.391 . S
C332 C333 1.400 . S
C333 C327 1.491 1_545 S
C333 C332 1.400 . S
C333 C334 1.398 . S
C334 H322 0.950 . S
C334 C333 1.398 . S
C334 C335 1.391 . S
C335 H323 0.950 . S
C335 C331 1.393 . S
C335 C334 1.391 . S
H336 C344 0.950 . S
H337 C349 0.947 1_545 S
H338 C346 0.950 . S
H339 C348 0.950 . S
H340 C350 0.950 . S
H341 C352 0.950 . S
H342 C354 0.950 . S
H343 C355 0.947 1_565 S
C344 H336 0.950 . S
C344 C345 1.386 . S
C344 C346 1.391 . S
C345 C344 1.386 . S
C345 C349 1.393 . S
C346 H338 0.950 . S
C346 C344 1.391 . S
C346 C347 1.400 . S
C347 C346 1.400 . S
C347 C348 1.398 1_565 S
C347 C353 1.491 1_565 S
C348 H339 0.950 . S
C348 C347 1.398 1_545 S
C348 C349 1.391 1_545 S
C349 H337 0.947 1_565 S
C349 C345 1.393 . S
C349 C348 1.391 1_565 S
C350 H340 0.950 . S
C350 C351 1.386 . S
C350 C352 1.391 . S
C351 C350 1.386 . S
C351 C355 1.393 . S
C352 H341 0.950 . S
C352 C350 1.391 . S
C352 C353 1.400 . S
C353 C347 1.491 1_545 S
C353 C352 1.400 . S
C353 C354 1.398 1_545 S
C354 H342 0.950 . S
C354 C353 1.398 1_565 S
C354 C355 1.391 1_565 S
C355 H343 0.947 1_545 S
C355 C351 1.393 . S
C355 C354 1.391 1_545 S
H356 C364 0.950 . S
H357 C369 0.950 . S
H358 C366 0.950 . S
H359 C368 0.950 . S
H360 C370 0.950 . S
H361 C372 0.950 . S
H362 C374 0.950 . S
H363 C375 0.950 . S
C364 H356 0.950 . S
C364 C365 1.386 . S
C364 C366 1.391 . S
C365 C364 1.386 . S
C365 C369 1.393 . S
C366 H358 0.950 . S
C366 C364 1.391 . S
C366 C367 1.400 . S
C367 C366 1.400 . S
C367 C368 1.398 . S
C367 C373 1.491 1_556 S
C368 H359 0.950 . S
C368 C367 1.398 . S
C368 C369 1.391 . S
C369 H357 0.950 . S
C369 C365 1.393 . S
C369 C368 1.391 . S
C370 H360 0.950 . S
C370 C371 1.386 . S
C370 C372 1.391 . S
C371 C370 1.386 . S
C371 C375 1.393 . S
C372 H361 0.950 . S
C372 C370 1.391 . S
C372 C373 1.400 . S
C373 C367 1.491 1_554 S
C373 C372 1.400 . S
C373 C374 1.398 . S
C374 H362 0.950 . S
C374 C373 1.398 . S
C374 C375 1.391 . S
C375 H363 0.950 . S
C375 C371 1.393 . S
C375 C374 1.391 . S
H376 C384 0.950 . S
H377 C389 0.950 . S
H378 C386 0.950 . S
H379 C388 0.978 . S
H380 C390 0.950 . S
H381 C392 0.950 . S
H382 C394 0.978 . S
H383 C395 0.950 . S
C384 H376 0.950 . S
C384 C385 1.386 . S
C384 C386 1.391 . S
C385 C384 1.386 . S
C385 C389 1.393 . S
C386 H378 0.950 . S
C386 C384 1.391 . S
C386 C387 1.400 . S
C387 C386 1.400 . S
C387 C388 1.389 1_556 S
C387 C393 1.491 1_556 S
C388 H379 0.978 . S
C388 C387 1.389 1_554 S
C388 C389 1.374 1_554 S
C389 H377 0.950 . S
C389 C385 1.393 . S
C389 C388 1.374 1_556 S
C390 H380 0.950 . S
C390 C391 1.386 . S
C390 C392 1.391 . S
C391 C390 1.386 . S
C391 C395 1.393 . S
C392 H381 0.950 . S
C392 C390 1.391 . S
C392 C393 1.400 . S
C393 C387 1.491 1_554 S
C393 C392 1.400 . S
C393 C394 1.389 1_554 S
C394 H382 0.978 . S
C394 C393 1.389 1_556 S
C394 C395 1.374 1_556 S
C395 H383 0.950 . S
C395 C391 1.393 . S
C395 C394 1.374 1_554 S
H396 C404 0.950 . S
H397 C409 0.950 . S
H398 C406 0.950 . S
H399 C408 0.950 . S
H400 C410 0.950 . S
H401 C412 0.950 . S
H402 C414 0.950 . S
H403 C415 0.950 . S
C404 H396 0.950 . S
C404 C405 1.386 . S
C404 C406 1.391 . S
C405 C404 1.386 . S
C405 C409 1.393 . S
C406 H398 0.950 . S
C406 C404 1.391 . S
C406 C407 1.400 . S
C407 C406 1.400 . S
C407 C408 1.398 . S
C407 C413 1.491 . S
C408 H399 0.950 . S
C408 C407 1.398 . S
C408 C409 1.391 . S
C409 H397 0.950 . S
C409 C405 1.393 . S
C409 C408 1.391 . S
C410 H400 0.950 . S
C410 C411 1.386 . S
C410 C412 1.391 . S
C411 C410 1.386 . S
C411 C415 1.393 . S
C412 H401 0.950 . S
C412 C410 1.391 . S
C412 C413 1.400 . S
C413 C407 1.491 . S
C413 C412 1.400 . S
C413 C414 1.398 . S
C414 H402 0.950 . S
C414 C413 1.398 . S
C414 C415 1.391 . S
C415 H403 0.950 . S
C415 C411 1.393 . S
C415 C414 1.391 . S
H416 C424 0.950 . S
H417 C429 0.950 . S
H418 C426 0.950 . S
H419 C428 0.950 . S
H420 C430 0.950 . S
H421 C432 0.950 . S
H422 C434 0.950 . S
H423 C435 0.950 . S
C424 H416 0.950 . S
C424 C425 1.386 . S
C424 C426 1.391 . S
C425 C424 1.386 . S
C425 C429 1.393 . S
C426 H418 0.950 . S
C426 C424 1.391 . S
C426 C427 1.400 . S
C427 C426 1.400 . S
C427 C428 1.398 . S
C427 C433 1.491 . S
C428 H419 0.950 . S
C428 C427 1.398 . S
C428 C429 1.391 . S
C429 H417 0.950 . S
C429 C425 1.393 . S
C429 C428 1.391 . S
C430 H420 0.950 . S
C430 C431 1.386 . S
C430 C432 1.391 . S
C431 C430 1.386 . S
C431 C435 1.393 . S
C432 H421 0.950 . S
C432 C430 1.391 . S
C432 C433 1.400 . S
C433 C427 1.491 . S
C433 C432 1.400 . S
C433 C434 1.398 . S
C434 H422 0.950 . S
C434 C433 1.398 . S
C434 C435 1.391 . S
C435 H423 0.950 . S
C435 C431 1.393 . S
C435 C434 1.391 . S
H436 C444 0.950 . S
H437 C449 0.950 . S
H438 C446 0.950 . S
H439 C448 0.950 . S
H440 C450 0.950 . S
H441 C452 0.950 . S
H442 C454 0.950 . S
H443 C455 0.950 . S
C444 H436 0.950 . S
C444 C445 1.386 . S
C444 C446 1.391 . S
C445 C444 1.386 . S
C445 C449 1.393 . S
C446 H438 0.950 . S
C446 C444 1.391 . S
C446 C447 1.400 . S
C447 C446 1.400 . S
C447 C448 1.398 . S
C447 C453 1.491 . S
C448 H439 0.950 . S
C448 C447 1.398 . S
C448 C449 1.391 . S
C449 H437 0.950 . S
C449 C445 1.393 . S
C449 C448 1.391 . S
C450 H440 0.950 . S
C450 C451 1.386 . S
C450 C452 1.391 . S
C451 C450 1.386 . S
C451 C455 1.393 . S
C452 H441 0.950 . S
C452 C450 1.391 . S
C452 C453 1.400 . S
C453 C447 1.491 . S
C453 C452 1.400 . S
C453 C454 1.398 . S
C454 H442 0.950 . S
C454 C453 1.398 . S
C454 C455 1.391 . S
C455 H443 0.950 . S
C455 C451 1.393 . S
C455 C454 1.391 . S
H456 C464 0.950 . S
H457 C469 0.950 . S
H458 C466 0.950 . S
H459 C468 0.950 . S
H460 C470 0.950 . S
H461 C472 0.950 . S
H462 C474 0.950 . S
H463 C475 0.950 . S
C464 H456 0.950 . S
C464 C465 1.386 . S
C464 C466 1.391 . S
C465 C464 1.386 . S
C465 C469 1.393 . S
C466 H458 0.950 . S
C466 C464 1.391 . S
C466 C467 1.400 . S
C467 C466 1.400 . S
C467 C468 1.398 . S
C467 C473 1.491 . S
C468 H459 0.950 . S
C468 C467 1.398 . S
C468 C469 1.391 . S
C469 H457 0.950 . S
C469 C465 1.393 . S
C469 C468 1.391 . S
C470 H460 0.950 . S
C470 C471 1.386 . S
C470 C472 1.391 . S
C471 C470 1.386 . S
C471 C475 1.393 . S
C472 H461 0.950 . S
C472 C470 1.391 . S
C472 C473 1.400 . S
C473 C467 1.491 . S
C473 C472 1.400 . S
C473 C474 1.398 . S
C474 H462 0.950 . S
C474 C473 1.398 . S
C474 C475 1.391 . S
C475 H463 0.950 . S
C475 C471 1.393 . S
C475 C474 1.391 . S
H476 C484 0.950 . S
H477 C489 0.950 . S
H478 C486 0.950 . S
H479 C488 0.950 . S
H480 C490 0.950 . S
H481 C492 0.950 . S
H482 C494 0.950 . S
H483 C495 0.950 . S
C484 H476 0.950 . S
C484 C485 1.386 . S
C484 C486 1.391 . S
C485 C484 1.386 . S
C485 C489 1.393 . S
C486 H478 0.950 . S
C486 C484 1.391 . S
C486 C487 1.400 . S
C487 C486 1.400 . S
C487 C488 1.398 . S
C487 C493 1.491 . S
C488 H479 0.950 . S
C488 C487 1.398 . S
C488 C489 1.391 . S
C489 H477 0.950 . S
C489 C485 1.393 . S
C489 C488 1.391 . S
C490 H480 0.950 . S
C490 C491 1.386 . S
C490 C492 1.391 . S
C491 C490 1.386 . S
C491 C495 1.393 . S
C492 H481 0.950 . S
C492 C490 1.391 . S
C492 C493 1.400 . S
C493 C487 1.491 . S
C493 C492 1.400 . S
C493 C494 1.398 . S
C494 H482 0.950 . S
C494 C493 1.398 . S
C494 C495 1.391 . S
C495 H483 0.950 . S
C495 C491 1.393 . S
C495 C494 1.391 . S
H496 C504 0.950 . S
H497 C509 0.950 . S
H498 C506 0.950 . S
H499 C508 0.950 . S
H500 C510 0.950 . S
H501 C512 0.950 . S
H502 C514 0.950 . S
H503 C515 0.950 . S
C504 H496 0.950 . S
C504 C505 1.386 . S
C504 C506 1.391 . S
C505 C504 1.386 . S
C505 C509 1.393 . S
C506 H498 0.950 . S
C506 C504 1.391 . S
C506 C507 1.400 . S
C507 C506 1.400 . S
C507 C508 1.398 . S
C507 C513 1.491 . S
C508 H499 0.950 . S
C508 C507 1.398 . S
C508 C509 1.391 . S
C509 H497 0.950 . S
C509 C505 1.393 . S
C509 C508 1.391 . S
C510 H500 0.950 . S
C510 C511 1.386 . S
C510 C512 1.391 . S
C511 C510 1.386 . S
C511 C515 1.393 . S
C512 H501 0.950 . S
C512 C510 1.391 . S
C512 C513 1.400 . S
C513 C507 1.491 . S
C513 C512 1.400 . S
C513 C514 1.398 . S
C514 H502 0.950 . S
C514 C513 1.398 . S
C514 C515 1.391 . S
C515 H503 0.950 . S
C515 C511 1.393 . S
C515 C514 1.391 . S
H516 C524 0.950 . S
H517 C529 0.950 . S
H518 C526 0.950 . S
H519 C528 0.950 . S
H520 C530 0.950 . S
H521 C532 0.950 . S
H522 C534 0.950 . S
H523 C535 0.950 . S
C524 H516 0.950 . S
C524 C525 1.386 . S
C524 C526 1.391 . S
C525 C524 1.386 . S
C525 C529 1.393 . S
C526 H518 0.950 . S
C526 C524 1.391 . S
C526 C527 1.400 . S
C527 C526 1.400 . S
C527 C528 1.398 . S
C527 C533 1.491 . S
C528 H519 0.950 . S
C528 C527 1.398 . S
C528 C529 1.391 . S
C529 H517 0.950 . S
C529 C525 1.393 . S
C529 C528 1.391 . S
C530 H520 0.950 . S
C530 C531 1.386 . S
C530 C532 1.391 . S
C531 C530 1.386 . S
C531 C535 1.393 . S
C532 H521 0.950 . S
C532 C530 1.391 . S
C532 C533 1.400 . S
C533 C527 1.491 . S
C533 C532 1.400 . S
C533 C534 1.398 . S
C534 H522 0.950 . S
C534 C533 1.398 . S
C534 C535 1.391 . S
C535 H523 0.950 . S
C535 C531 1.393 . S
C535 C534 1.391 . S
H536 C544 0.950 . S
H537 C549 0.950 . S
H538 C546 0.950 . S
H539 C548 0.950 . S
H540 C550 0.950 . S
H541 C552 0.950 . S
H542 C554 0.950 . S
H543 C555 0.950 . S
C544 H536 0.950 . S
C544 C545 1.386 . S
C544 C546 1.391 . S
C545 C544 1.386 . S
C545 C549 1.393 . S
C546 H538 0.950 . S
C546 C544 1.391 . S
C546 C547 1.400 . S
C547 C546 1.400 . S
C547 C548 1.398 . S
C547 C553 1.491 . S
C548 H539 0.950 . S
C548 C547 1.398 . S
C548 C549 1.391 . S
C549 H537 0.950 . S
C549 C545 1.393 . S
C549 C548 1.391 . S
C550 H540 0.950 . S
C550 C551 1.386 . S
C550 C552 1.391 . S
C551 C550 1.386 . S
C551 C555 1.393 . S
C552 H541 0.950 . S
C552 C550 1.391 . S
C552 C553 1.400 . S
C553 C547 1.491 . S
C553 C552 1.400 . S
C553 C554 1.398 . S
C554 H542 0.950 . S
C554 C553 1.398 . S
C554 C555 1.391 . S
C555 H543 0.950 . S
C555 C551 1.393 . S
C555 C554 1.391 . S
H556 C564 0.950 . S
H557 C569 0.950 . S
H558 C566 0.950 . S
H559 C568 0.950 . S
H560 C570 0.950 . S
H561 C572 0.950 . S
H562 C574 0.950 . S
H563 C575 0.950 . S
C564 H556 0.950 . S
C564 C565 1.386 . S
C564 C566 1.391 . S
C565 C564 1.386 . S
C565 C569 1.393 . S
C566 H558 0.950 . S
C566 C564 1.391 . S
C566 C567 1.400 . S
C567 C566 1.400 . S
C567 C568 1.398 . S
C567 C573 1.491 . S
C568 H559 0.950 . S
C568 C567 1.398 . S
C568 C569 1.391 . S
C569 H557 0.950 . S
C569 C565 1.393 . S
C569 C568 1.391 . S
C570 H560 0.950 . S
C570 C571 1.386 . S
C570 C572 1.391 . S
C571 C570 1.386 . S
C571 C575 1.393 . S
C572 H561 0.950 . S
C572 C570 1.391 . S
C572 C573 1.400 . S
C573 C567 1.491 . S
C573 C572 1.400 . S
C573 C574 1.398 . S
C574 H562 0.950 . S
C574 C573 1.398 . S
C574 C575 1.391 . S
C575 H563 0.950 . S
C575 C571 1.393 . S
C575 C574 1.391 . S
H576 C584 0.950 . S
H577 C589 0.950 . S
H578 C586 0.950 . S
H579 C588 0.950 . S
H580 C590 0.950 . S
H581 C592 0.950 . S
H582 C594 0.950 . S
H583 C595 0.950 . S
C584 H576 0.950 . S
C584 C585 1.386 . S
C584 C586 1.391 . S
C585 C584 1.386 . S
C585 C589 1.393 . S
C586 H578 0.950 . S
C586 C584 1.391 . S
C586 C587 1.400 . S
C587 C586 1.400 . S
C587 C588 1.398 . S
C587 C593 1.491 . S
C588 H579 0.950 . S
C588 C587 1.398 . S
C588 C589 1.391 . S
C589 H577 0.950 . S
C589 C585 1.393 . S
C589 C588 1.391 . S
C590 H580 0.950 . S
C590 C591 1.386 . S
C590 C592 1.391 . S
C591 C590 1.386 . S
C591 C595 1.393 . S
C592 H581 0.950 . S
C592 C590 1.391 . S
C592 C593 1.400 . S
C593 C587 1.491 . S
C593 C592 1.400 . S
C593 C594 1.398 . S
C594 H582 0.950 . S
C594 C593 1.398 . S
C594 C595 1.391 . S
C595 H583 0.950 . S
C595 C591 1.393 . S
C595 C594 1.391 . S
H596 C604 0.950 . S
H597 C609 0.950 . S
H598 C606 0.950 . S
H599 C608 0.950 . S
H600 C610 0.950 . S
H601 C612 0.950 . S
H602 C614 0.950 . S
H603 C615 0.950 . S
C604 H596 0.950 . S
C604 C605 1.386 . S
C604 C606 1.391 . S
C605 C604 1.386 . S
C605 C609 1.393 . S
C606 H598 0.950 . S
C606 C604 1.391 . S
C606 C607 1.400 . S
C607 C606 1.400 . S
C607 C608 1.398 . S
C607 C613 1.491 . S
C608 H599 0.950 . S
C608 C607 1.398 . S
C608 C609 1.391 . S
C609 H597 0.950 . S
C609 C605 1.393 . S
C609 C608 1.391 . S
C610 H600 0.950 . S
C610 C611 1.386 . S
C610 C612 1.391 . S
C611 C610 1.386 . S
C611 C615 1.393 . S
C612 H601 0.950 . S
C612 C610 1.391 . S
C612 C613 1.400 . S
C613 C607 1.491 . S
C613 C612 1.400 . S
C613 C614 1.398 . S
C614 H602 0.950 . S
C614 C613 1.398 . S
C614 C615 1.391 . S
C615 H603 0.950 . S
C615 C611 1.393 . S
C615 C614 1.391 . S
H616 C624 0.950 . S
H617 C629 0.950 . S
H618 C626 0.950 . S
H619 C628 0.950 . S
H620 C630 0.950 . S
H621 C632 0.950 . S
H622 C634 0.950 . S
H623 C635 0.950 . S
C624 H616 0.950 . S
C624 C625 1.386 . S
C624 C626 1.391 . S
C625 C624 1.386 . S
C625 C629 1.393 . S
C626 H618 0.950 . S
C626 C624 1.391 . S
C626 C627 1.400 . S
C627 C626 1.400 . S
C627 C628 1.398 . S
C627 C633 1.491 . S
C628 H619 0.950 . S
C628 C627 1.398 . S
C628 C629 1.391 . S
C629 H617 0.950 . S
C629 C625 1.393 . S
C629 C628 1.391 . S
C630 H620 0.950 . S
C630 C631 1.386 . S
C630 C632 1.391 . S
C631 C630 1.386 . S
C631 C635 1.393 . S
C632 H621 0.950 . S
C632 C630 1.391 . S
C632 C633 1.400 . S
C633 C627 1.491 . S
C633 C632 1.400 . S
C633 C634 1.398 . S
C634 H622 0.950 . S
C634 C633 1.398 . S
C634 C635 1.391 . S
C635 H623 0.950 . S
C635 C631 1.393 . S
C635 C634 1.391 . S
H636 C644 0.950 . S
H637 C649 0.950 . S
H638 C646 0.950 1_655 S
H639 C648 0.950 1_565 S
H640 C650 0.950 . S
H641 C652 0.950 1_455 S
H642 C654 0.950 1_545 S
H643 C655 0.950 . S
C644 H636 0.950 . S
C644 C645 1.386 . S
C644 C646 1.391 . S
C645 C644 1.386 . S
C645 C649 1.393 . S
C646 H638 0.950 1_455 S
C646 C644 1.391 . S
C646 C647 1.400 . S
C647 C646 1.400 . S
C647 C648 1.398 . S
C647 C653 1.491 1_445 S
C648 H639 0.950 1_545 S
C648 C647 1.398 . S
C648 C649 1.391 . S
C649 H637 0.950 . S
C649 C645 1.393 . S
C649 C648 1.391 . S
C650 H640 0.950 . S
C650 C651 1.386 . S
C650 C652 1.391 . S
C651 C650 1.386 . S
C651 C655 1.393 . S
C652 H641 0.950 1_655 S
C652 C650 1.391 . S
C652 C653 1.400 . S
C653 C647 1.491 1_665 S
C653 C652 1.400 . S
C653 C654 1.398 . S
C654 H642 0.950 1_565 S
C654 C653 1.398 . S
C654 C655 1.391 . S
C655 H643 0.950 . S
C655 C651 1.393 . S
C655 C654 1.391 . S
H656 C664 0.950 . S
H657 C669 0.950 . S
H658 C666 0.950 . S
H659 C668 0.950 . S
H660 C670 0.950 . S
H661 C672 0.950 . S
H662 C674 0.950 . S
H663 C675 0.950 . S
C664 H656 0.950 . S
C664 C665 1.386 . S
C664 C666 1.391 . S
C665 C664 1.386 . S
C665 C669 1.393 . S
C666 H658 0.950 . S
C666 C664 1.391 . S
C666 C667 1.400 . S
C667 C666 1.400 . S
C667 C668 1.398 . S
C667 C673 1.491 1_645 S
C668 H659 0.950 . S
C668 C667 1.398 . S
C668 C669 1.391 . S
C669 H657 0.950 . S
C669 C665 1.393 . S
C669 C668 1.391 . S
C670 H660 0.950 . S
C670 C671 1.386 . S
C670 C672 1.391 . S
C671 C670 1.386 . S
C671 C675 1.393 . S
C672 H661 0.950 . S
C672 C670 1.391 . S
C672 C673 1.400 . S
C673 C667 1.491 1_465 S
C673 C672 1.400 . S
C673 C674 1.398 . S
C674 H662 0.950 . S
C674 C673 1.398 . S
C674 C675 1.391 . S
C675 H663 0.950 . S
C675 C671 1.393 . S
C675 C674 1.391 . S
H676 C684 0.950 . S
H677 C689 0.950 . S
H678 C686 0.924 1_554 S
H679 C688 0.950 . S
H680 C690 0.950 . S
H681 C692 0.924 1_556 S
H682 C694 0.950 . S
H683 C695 0.950 . S
C684 H676 0.950 . S
C684 C685 1.386 . S
C684 C686 1.391 . S
C685 C684 1.386 . S
C685 C689 1.393 . S
C686 H678 0.924 1_556 S
C686 C684 1.391 . S
C686 C687 1.400 . S
C687 C686 1.400 . S
C687 C688 1.398 . S
C687 C693 1.491 1_566 S
C688 H679 0.950 . S
C688 C687 1.398 . S
C688 C689 1.391 . S
C689 H677 0.950 . S
C689 C685 1.393 . S
C689 C688 1.391 . S
C690 H680 0.950 . S
C690 C691 1.386 . S
C690 C692 1.391 . S
C691 C690 1.386 . S
C691 C695 1.393 . S
C692 H681 0.924 1_554 S
C692 C690 1.391 . S
C692 C693 1.400 . S
C693 C687 1.491 1_544 S
C693 C692 1.400 . S
C693 C694 1.398 . S
C694 H682 0.950 . S
C694 C693 1.398 . S
C694 C695 1.391 . S
C695 H683 0.950 . S
C695 C691 1.393 . S
C695 C694 1.391 . S
H696 C704 0.950 . S
H697 C709 0.950 . S
H698 C706 0.950 . S
H699 C708 0.950 . S
H700 C710 0.950 . S
H701 C712 0.950 . S
H702 C714 0.950 . S
H703 C715 0.950 . S
C704 H696 0.950 . S
C704 C705 1.386 . S
C704 C706 1.391 . S
C705 C704 1.386 . S
C705 C709 1.393 . S
C706 H698 0.950 . S
C706 C704 1.391 . S
C706 C707 1.400 . S
C707 C706 1.400 . S
C707 C708 1.398 . S
C707 C713 1.491 1_564 S
C708 H699 0.950 . S
C708 C707 1.398 . S
C708 C709 1.391 . S
C709 H697 0.950 . S
C709 C705 1.393 . S
C709 C708 1.391 . S
C710 H700 0.950 . S
C710 C711 1.386 . S
C710 C712 1.391 . S
C711 C710 1.386 . S
C711 C715 1.393 . S
C712 H701 0.950 . S
C712 C710 1.391 . S
C712 C713 1.400 . S
C713 C707 1.491 1_546 S
C713 C712 1.400 . S
C713 C714 1.398 . S
C714 H702 0.950 . S
C714 C713 1.398 . S
C714 C715 1.391 . S
C715 H703 0.950 . S
C715 C711 1.393 . S
C715 C714 1.391 . S
H716 C724 0.950 . S
H717 C729 0.950 . S
H718 C726 0.950 . S
H719 C728 0.950 . S
H720 C730 0.950 . S
H721 C732 0.950 . S
H722 C734 0.950 . S
H723 C735 0.950 . S
C724 H716 0.950 . S
C724 C725 1.386 . S
C724 C726 1.391 . S
C725 C724 1.386 . S
C725 C729 1.393 . S
C726 H718 0.950 . S
C726 C724 1.391 . S
C726 C727 1.400 . S
C727 C726 1.400 . S
C727 C728 1.398 . S
C727 C733 1.491 1_656 S
C728 H719 0.950 . S
C728 C727 1.398 . S
C728 C729 1.391 . S
C729 H717 0.950 . S
C729 C725 1.393 . S
C729 C728 1.391 . S
C730 H720 0.950 . S
C730 C731 1.386 . S
C730 C732 1.391 . S
C731 C730 1.386 . S
C731 C735 1.393 . S
C732 H721 0.950 . S
C732 C730 1.391 . S
C732 C733 1.400 . S
C733 C727 1.491 1_454 S
C733 C732 1.400 . S
C733 C734 1.398 . S
C734 H722 0.950 . S
C734 C733 1.398 . S
C734 C735 1.391 . S
C735 H723 0.950 . S
C735 C731 1.393 . S
C735 C734 1.391 . S
H736 C744 0.950 . S
H737 C749 0.950 . S
H738 C746 0.950 1_655 S
H739 C748 0.950 1_554 S
H740 C750 0.950 . S
H741 C752 0.950 1_455 S
H742 C754 0.950 1_556 S
H743 C755 0.950 . S
C744 H736 0.950 . S
C744 C745 1.386 . S
C744 C746 1.391 . S
C745 C744 1.386 . S
C745 C749 1.393 . S
C746 H738 0.950 1_455 S
C746 C744 1.391 . S
C746 C747 1.400 . S
C747 C746 1.400 . S
C747 C748 1.398 . S
C747 C753 1.491 1_456 S
C748 H739 0.950 1_556 S
C748 C747 1.398 . S
C748 C749 1.391 . S
C749 H737 0.950 . S
C749 C745 1.393 . S
C749 C748 1.391 . S
C750 H740 0.950 . S
C750 C751 1.386 . S
C750 C752 1.391 . S
C751 C750 1.386 . S
C751 C755 1.393 . S
C752 H741 0.950 1_655 S
C752 C750 1.391 . S
C752 C753 1.400 . S
C753 C747 1.491 1_654 S
C753 C752 1.400 . S
C753 C754 1.398 . S
C754 H742 0.950 1_554 S
C754 C753 1.398 . S
C754 C755 1.391 . S
C755 H743 0.950 . S
C755 C751 1.393 . S
C755 C754 1.391 . S
C285 N81 1.130 . S
C291 N12 1.138 . S
C305 N58 1.142 . S
C311 N35 1.129 . S
C325 N127 1.133 . S
C331 N104 1.143 . S
C345 N150 1.143 . S
C351 N173 1.129 . S
C365 N219 1.136 . S
C371 N196 1.132 . S
C385 N242 1.142 . S
C391 N265 1.134 . S
C405 N2 1.474 . S
C411 C177 1.396 . S
C425 C154 1.387 . S
C431 N25 1.480 . S
C445 C131 1.426 . S
C451 N48 1.492 . S
C465 C108 1.394 . S
C471 N71 1.490 . S
C485 N94 1.496 . S
C491 C269 1.402 . S
C505 C200 1.425 . S
C511 N117 1.501 . S
C525 C246 1.427 . S
C531 N140 1.495 . S
C545 N163 1.478 . S
C551 C223 1.408 . S
C565 C62 1.421 . S
C571 N186 1.502 . S
C585 C16 1.404 . S
C591 N209 1.476 . S
C605 N232 1.490 . S
C611 C39 1.425 . S
C625 C85 1.428 . S
C631 N255 1.497 . S
C645 C7 2.088 . S
C651 C30 2.075 . S
C665 C76 2.076 . S
C671 C53 2.070 . S
C685 C145 2.082 . S
C691 C99 2.089 . S
C705 C122 2.073 . S
C711 C168 2.071 . S
C725 C237 2.076 . S
C731 C191 2.070 . S
C745 C214 2.070 . S
C751 C260 2.080 . S
