# Generated by pormake.
# Topology upa, (4)-cn, num edge types: 1
# Building blocks:
#     Node 0, Type 0, BuildingBlock: NAHDIM_clean_sbu_0, # of connection points: 4
#     Node 1, Type 0, BuildingBlock: NAHDIM_clean_sbu_0, # of connection points: 4
#     Node 2, Type 0, BuildingBlock: NAHDIM_clean_sbu_0, # of connection points: 4
#     Node 3, Type 0, BuildingBlock: NAHDIM_clean_sbu_0, # of connection points: 4
#     Node 4, Type 0, BuildingBlock: NAHDIM_clean_sbu_0, # of connection points: 4
#     Node 5, Type 0, BuildingBlock: NAHDIM_clean_sbu_0, # of connection points: 4
#     Node 6, Type 0, BuildingBlock: NAHDIM_clean_sbu_0, # of connection points: 4
#     Node 7, Type 0, BuildingBlock: NAHDIM_clean_sbu_0, # of connection points: 4
#     Edge 8, Type (0, 0), BuildingBlock: KIFKEQ_clean_linker_1, # of connection points: 2
#     Edge 9, Type (0, 0), BuildingBlock: KIFKEQ_clean_linker_1, # of connection points: 2
#     Edge 10, Type (0, 0), BuildingBlock: KIFKEQ_clean_linker_1, # of connection points: 2
#     Edge 11, Type (0, 0), BuildingBlock: KIFKEQ_clean_linker_1, # of connection points: 2
#     Edge 12, Type (0, 0), BuildingBlock: KIFKEQ_clean_linker_1, # of connection points: 2
#     Edge 13, Type (0, 0), BuildingBlock: KIFKEQ_clean_linker_1, # of connection points: 2
#     Edge 14, Type (0, 0), BuildingBlock: KIFKEQ_clean_linker_1, # of connection points: 2
#     Edge 15, Type (0, 0), BuildingBlock: KIFKEQ_clean_linker_1, # of connection points: 2
#     Edge 16, Type (0, 0), BuildingBlock: KIFKEQ_clean_linker_1, # of connection points: 2
#     Edge 17, Type (0, 0), BuildingBlock: KIFKEQ_clean_linker_1, # of connection points: 2
#     Edge 18, Type (0, 0), BuildingBlock: KIFKEQ_clean_linker_1, # of connection points: 2
#     Edge 19, Type (0, 0), BuildingBlock: KIFKEQ_clean_linker_1, # of connection points: 2
#     Edge 20, Type (0, 0), BuildingBlock: KIFKEQ_clean_linker_1, # of connection points: 2
#     Edge 21, Type (0, 0), BuildingBlock: KIFKEQ_clean_linker_1, # of connection points: 2
#     Edge 22, Type (0, 0), BuildingBlock: KIFKEQ_clean_linker_1, # of connection points: 2
#     Edge 23, Type (0, 0), BuildingBlock: KIFKEQ_clean_linker_1, # of connection points: 2
# Relax obj value: 0.273
# Max RMSD: 0.206
# Mean RMSD: 0.206
data_MOF--net-upa--node1-NAHDIM_clean_sbu_0--edge1-KIFKEQ_clean_linker_1
_symmetry_space_group_name_H-M    P1
_symmetry_Int_Tables_number       1
_symmetry_cell_setting            triclinic
loop_
_symmetry_equiv_pos_as_xyz
'x, y, z'
_cell_length_a     27.07496
_cell_length_b     27.050622
_cell_length_c     42.362586
_cell_angle_alpha  90.007869
_cell_angle_beta   90.00551
_cell_angle_gamma 89.99161
loop_
_atom_site_label
_atom_site_type_symbol
_atom_site_fract_x
_atom_site_fract_y
_atom_site_fract_z
_atom_type_partial_charge
C0 C 0.29957 0.21717 0.29888 0.0
O1 O 0.29088 0.2517 0.31999 0.0
O2 O 0.16223 0.25717 0.28726 0.0
Zn3 Zn 0.19708 0.2008 0.30964 0.0
O4 O 0.20626 0.21077 0.35668 0.0
C5 C 0.10688 0.14754 0.30113 0.0
O6 O 0.08951 0.19261 0.30385 0.0
O7 O 0.26413 0.18965 0.29 0.0
C8 C 0.17095 0.21324 0.3764 0.0
O9 O 0.12516 0.21158 0.36625 0.0
C10 C 0.1375 0.29177 0.30006 0.0
O11 O 0.14153 0.29912 0.33059 0.0
O12 O 0.15333 0.14058 0.30302 0.0
C13 C 0.2866 0.79264 0.79574 0.0
O14 O 0.25011 0.7822 0.81508 0.0
O15 O 0.26417 0.64882 0.78665 0.0
Zn16 Zn 0.31064 0.69308 0.81116 0.0
O17 O 0.29436 0.70427 0.8574 0.0
C18 C 0.36941 0.6094 0.8177 0.0
O19 O 0.32583 0.59415 0.82716 0.0
O20 O 0.31831 0.75931 0.78964 0.0
C21 C 0.27093 0.67618 0.87625 0.0
O22 O 0.25167 0.63481 0.86576 0.0
C23 C 0.22065 0.63206 0.79012 0.0
O24 O 0.19302 0.64772 0.81355 0.0
O25 O 0.37454 0.65449 0.80973 0.0
C26 C 0.69732 0.77024 0.2997 0.0
O27 O 0.70375 0.74105 0.32414 0.0
O28 O 0.84529 0.74316 0.29722 0.0
Zn29 Zn 0.79856 0.7961 0.31309 0.0
O30 O 0.78693 0.79122 0.36026 0.0
C31 C 0.86696 0.86427 0.28398 0.0
O32 O 0.87536 0.82668 0.2651 0.0
O33 O 0.7333 0.79639 0.29007 0.0
C34 C 0.81662 0.81357 0.37865 0.0
O35 O 0.85465 0.83696 0.3665 0.0
C36 C 0.87723 0.72315 0.31516 0.0
O37 O 0.87411 0.73018 0.34576 0.0
O38 O 0.83357 0.86068 0.30497 0.0
C39 C 0.70531 0.21749 0.77321 0.0
O40 O 0.69594 0.25369 0.75342 0.0
O41 O 0.766 0.3428 0.79632 0.0
Zn42 Zn 0.71909 0.29688 0.81928 0.0
O43 O 0.73318 0.29325 0.86604 0.0
C44 C 0.64304 0.3593 0.79299 0.0
O45 O 0.67509 0.36425 0.76994 0.0
O46 O 0.71685 0.22766 0.80156 0.0
C47 C 0.71989 0.32972 0.88297 0.0
O48 O 0.70118 0.36893 0.8691 0.0
C49 C 0.79543 0.37224 0.81026 0.0
O50 O 0.80371 0.36644 0.84057 0.0
O51 O 0.65238 0.32943 0.8154 0.0
C52 C 0.8071 0.29157 0.19707 0.0
O53 O 0.80042 0.25781 0.17518 0.0
O54 O 0.66231 0.25611 0.20669 0.0
Zn55 Zn 0.70436 0.30755 0.18471 0.0
O56 O 0.71384 0.2945 0.13789 0.0
C57 C 0.64132 0.38075 0.21352 0.0
O58 O 0.65004 0.35546 0.2394 0.0
O59 O 0.77045 0.3175 0.20588 0.0
C60 C 0.68109 0.31045 0.11891 0.0
O61 O 0.64127 0.33151 0.13044 0.0
C62 C 0.62787 0.23379 0.19206 0.0
O63 O 0.62602 0.23691 0.16116 0.0
O64 O 0.66375 0.36928 0.18823 0.0
C65 C 0.21804 0.29107 0.69807 0.0
O66 O 0.26018 0.27618 0.68597 0.0
O67 O 0.23986 0.15267 0.70009 0.0
Zn68 Zn 0.19132 0.19575 0.67624 0.0
O69 O 0.20862 0.20697 0.6304 0.0
C70 C 0.11242 0.13867 0.70258 0.0
O71 O 0.13249 0.15274 0.72935 0.0
O72 O 0.18136 0.26178 0.6975 0.0
C73 C 0.20096 0.17291 0.61029 0.0
O74 O 0.18494 0.12966 0.62001 0.0
C75 C 0.26793 0.12097 0.68705 0.0
O76 O 0.273 0.12152 0.65624 0.0
O77 O 0.12919 0.15573 0.6768 0.0
C78 C 0.21772 0.69053 0.22683 0.0
O79 O 0.25386 0.7094 0.24366 0.0
O80 O 0.33643 0.73513 0.20035 0.0
Zn81 Zn 0.29199 0.68718 0.17702 0.0
O82 O 0.2814 0.70448 0.13097 0.0
C83 C 0.34383 0.60493 0.20452 0.0
O84 O 0.3258 0.62251 0.23102 0.0
O85 O 0.2258 0.67843 0.1983 0.0
C86 C 0.31345 0.69152 0.11062 0.0
O87 O 0.35396 0.6693 0.12013 0.0
C88 C 0.37189 0.75699 0.18646 0.0
O89 O 0.37373 0.75626 0.15551 0.0
O90 O 0.33095 0.6243 0.17848 0.0
C91 C 0.799 0.71757 0.72489 0.0
O92 O 0.78818 0.75343 0.74463 0.0
O93 O 0.75398 0.84197 0.70311 0.0
Zn94 Zn 0.79696 0.79597 0.67742 0.0
O95 O 0.77675 0.79228 0.63164 0.0
C96 C 0.88045 0.8471 0.70336 0.0
O97 O 0.85953 0.83521 0.73028 0.0
O98 O 0.80366 0.72733 0.6957 0.0
C99 C 0.78402 0.83059 0.61488 0.0
O100 O 0.8003 0.87098 0.62862 0.0
C101 C 0.7196 0.86887 0.69201 0.0
O102 O 0.70353 0.8606 0.66324 0.0
O103 O 0.86236 0.83066 0.67776 0.0
H104 H 0.12787 0.04856 0.2953 0.0
H105 H 0.00689 0.15291 0.29617 0.0
H106 H 0.06884 0.98073 0.28912 0.0
H107 H 0.94848 0.08555 0.28965 0.0
H108 H 0.85963 0.94844 0.31929 0.0
H109 H 0.91816 0.01665 0.32197 0.0
H110 H 0.00818 0.94658 0.25066 0.0
H111 H 0.94987 0.87787 0.24816 0.0
C112 C 0.08882 0.05704 0.29402 0.0
C113 C 0.07209 0.10606 0.29643 0.0
C114 C 0.05507 0.01828 0.2903 0.0
C115 C 0.00402 0.02786 0.28905 0.0
C116 C 0.9875 0.07693 0.291 0.0
C117 C 0.02109 0.11555 0.29462 0.0
C118 C 0.89163 0.94775 0.30395 0.0
C119 C 0.90005 0.90774 0.28349 0.0
C120 C 0.92512 0.9869 0.30544 0.0
C121 C 0.96784 0.98688 0.28658 0.0
C122 C 0.97588 0.9473 0.26574 0.0
C123 C 0.94223 0.9082 0.26413 0.0
H124 H 0.46387 0.62533 0.7962 0.0
H125 H 0.36683 0.51147 0.83195 0.0
H126 H 0.5294 0.56387 0.78973 0.0
H127 H 0.43149 0.45038 0.82486 0.0
H128 H 0.57529 0.36573 0.84061 0.0
H129 H 0.51034 0.42712 0.84694 0.0
H130 H 0.5495 0.49173 0.75709 0.0
H131 H 0.61527 0.43086 0.75101 0.0
C132 C 0.45655 0.58731 0.8027 0.0
C133 C 0.41021 0.57335 0.81465 0.0
C134 C 0.4939 0.55204 0.79877 0.0
C135 C 0.4856 0.50221 0.80675 0.0
C136 C 0.43934 0.48851 0.81887 0.0
C137 C 0.40216 0.52361 0.8228 0.0
C138 C 0.56978 0.39269 0.82204 0.0
C139 C 0.60043 0.39332 0.79528 0.0
C140 C 0.53249 0.42789 0.82566 0.0
C141 C 0.52489 0.46447 0.80258 0.0
C142 C 0.55493 0.46453 0.77553 0.0
C143 C 0.59228 0.42931 0.77191 0.0
H144 H 0.59065 0.4107 0.16155 0.0
H145 H 0.59726 0.42929 0.26271 0.0
H146 H 0.5172 0.46156 0.15944 0.0
H147 H 0.52511 0.48329 0.26053 0.0
H148 H 0.36766 0.5392 0.25113 0.0
H149 H 0.43967 0.48498 0.25335 0.0
H150 H 0.48762 0.54086 0.16267 0.0
H151 H 0.41444 0.59212 0.15975 0.0
C152 C 0.57699 0.42664 0.18332 0.0
C153 C 0.59986 0.41616 0.2123 0.0
C154 C 0.53479 0.4561 0.18212 0.0
C155 C 0.51493 0.47688 0.2098 0.0
C156 C 0.53861 0.46723 0.23877 0.0
C157 C 0.58034 0.43677 0.24003 0.0
C158 C 0.39338 0.53918 0.23155 0.0
C159 C 0.3852 0.56944 0.20516 0.0
C160 C 0.435 0.50858 0.23294 0.0
C161 C 0.46986 0.50845 0.20824 0.0
C162 C 0.4613 0.53888 0.18186 0.0
C163 C 0.41926 0.56852 0.18018 0.0
H164 H 0.0914 0.07757 0.65339 0.0
H165 H 0.05377 0.10607 0.75077 0.0
H166 H 0.03909 0.00482 0.65359 0.0
H167 H 0.99879 0.03467 0.75058 0.0
H168 H 0.94051 0.87819 0.75123 0.0
H169 H 0.99716 0.94827 0.75074 0.0
H170 H 0.95842 0.97723 0.65338 0.0
H171 H 0.90443 0.90576 0.65351 0.0
C172 C 0.07103 0.06884 0.67468 0.0
C173 C 0.07652 0.09762 0.70205 0.0
C174 C 0.04083 0.02706 0.6748 0.0
C175 C 0.01453 0.01354 0.70211 0.0
C176 C 0.01922 0.04317 0.7293 0.0
C177 C 0.05026 0.08448 0.72934 0.0
C178 C 0.94483 0.89919 0.72964 0.0
C179 C 0.9183 0.88633 0.70239 0.0
C180 C 0.97683 0.93976 0.72942 0.0
C181 C 0.98225 0.96892 0.70209 0.0
C182 C 0.95608 0.95535 0.67473 0.0
C183 C 0.92491 0.9143 0.67479 0.0
H184 H 0.11054 0.24599 0.42345 0.0
H185 H 0.25425 0.18171 0.40661 0.0
H186 H 0.12477 0.24093 0.48043 0.0
H187 H 0.26774 0.17557 0.46366 0.0
H188 H 0.21706 0.10621 0.56331 0.0
H189 H 0.21585 0.12129 0.50636 0.0
H190 H 0.19115 0.27665 0.52318 0.0
H191 H 0.19366 0.26194 0.58027 0.0
C192 C 0.14527 0.23116 0.43192 0.0
C193 C 0.18122 0.2141 0.41064 0.0
C194 C 0.15346 0.22852 0.46445 0.0
C195 C 0.19729 0.20784 0.47625 0.0
C196 C 0.23365 0.19162 0.45503 0.0
C197 C 0.22595 0.19529 0.42248 0.0
C198 C 0.21216 0.14368 0.55485 0.0
C199 C 0.20539 0.18289 0.57615 0.0
C200 C 0.21166 0.15229 0.52233 0.0
C201 C 0.20332 0.20007 0.51056 0.0
C202 C 0.19759 0.23949 0.5318 0.0
C203 C 0.19924 0.23108 0.56436 0.0
H204 H 0.32657 0.74454 0.90772 0.0
H205 H 0.21534 0.63222 0.92228 0.0
H206 H 0.33356 0.75565 0.96473 0.0
H207 H 0.22221 0.64383 0.97935 0.0
H208 H 0.22497 0.70607 0.08069 0.0
H209 H 0.21013 0.7093 0.02363 0.0
H210 H 0.36679 0.69572 0.00677 0.0
H211 H 0.38162 0.69188 0.0635 0.0
C212 C 0.30303 0.72278 0.92303 0.0
C213 C 0.2707 0.68714 0.91048 0.0
C214 C 0.30721 0.72907 0.95565 0.0
C215 C 0.27862 0.70043 0.97638 0.0
C216 C 0.24447 0.6666 0.96386 0.0
C217 C 0.24076 0.65979 0.93121 0.0
C218 C 0.25623 0.70441 0.06477 0.0
C219 C 0.30444 0.69849 0.07651 0.0
C220 C 0.2477 0.70602 0.03219 0.0
C221 C 0.28732 0.70276 0.01087 0.0
C222 C 0.33562 0.69876 0.02269 0.0
C223 C 0.34406 0.69627 0.05515 0.0
H224 H 0.79538 0.90651 0.5733 0.0
H225 H 0.76351 0.75008 0.57767 0.0
H226 H 0.79858 0.90197 0.516 0.0
H227 H 0.76748 0.7455 0.52009 0.0
H228 H 0.74268 0.76855 0.41255 0.0
H229 H 0.72865 0.7731 0.4696 0.0
H230 H 0.85818 0.86501 0.47945 0.0
H231 H 0.87187 0.86105 0.42288 0.0
C232 C 0.78864 0.87119 0.56204 0.0
C233 C 0.77975 0.82854 0.58008 0.0
C234 C 0.79075 0.86856 0.52918 0.0
C235 C 0.78407 0.82323 0.51356 0.0
C236 C 0.77267 0.78098 0.53146 0.0
C237 C 0.77056 0.7836 0.56444 0.0
C238 C 0.76812 0.78968 0.42696 0.0
C239 C 0.8083 0.81458 0.41316 0.0
C240 C 0.76015 0.79215 0.45959 0.0
C241 C 0.79201 0.81982 0.47895 0.0
C242 C 0.83238 0.8442 0.46511 0.0
C243 C 0.84044 0.84159 0.43266 0.0
H244 H 0.69331 0.40117 0.9249 0.0
H245 H 0.74889 0.25155 0.91998 0.0
H246 H 0.68702 0.3943 0.98196 0.0
H247 H 0.74202 0.24461 0.97742 0.0
H248 H 0.76103 0.27454 0.08603 0.0
H249 H 0.77484 0.27856 0.02891 0.0
H250 H 0.63176 0.34659 0.01691 0.0
H251 H 0.6181 0.34305 0.07348 0.0
C252 C 0.70451 0.36688 0.93599 0.0
C253 C 0.72113 0.32673 0.91784 0.0
C254 C 0.70063 0.36287 0.96871 0.0
C255 C 0.71331 0.31866 0.9841 0.0
C256 C 0.73204 0.27916 0.96618 0.0
C257 C 0.73582 0.28312 0.93331 0.0
C258 C 0.73245 0.29003 0.07112 0.0
C259 C 0.68863 0.30882 0.08433 0.0
C260 C 0.74034 0.29223 0.03845 0.0
C261 C 0.70467 0.31354 0.01853 0.0
C262 C 0.66038 0.33093 0.03173 0.0
C263 C 0.65244 0.32857 0.06418 0.0
H264 H 0.54161 0.19751 0.16787 0.0
H265 H 0.61432 0.23089 0.25616 0.0
H266 H 0.46394 0.18615 0.19568 0.0
H267 H 0.53672 0.21804 0.28415 0.0
H268 H 0.38122 0.27286 0.31133 0.0
H269 H 0.46258 0.26646 0.28758 0.0
H270 H 0.41382 0.14097 0.23266 0.0
H271 H 0.3316 0.14822 0.25596 0.0
C272 C 0.54138 0.20113 0.19334 0.0
C273 C 0.5841 0.21587 0.20971 0.0
C274 C 0.49673 0.19441 0.20934 0.0
C275 C 0.49381 0.20202 0.24212 0.0
C276 C 0.53741 0.21304 0.25879 0.0
C277 C 0.58204 0.21996 0.24277 0.0
C278 C 0.38781 0.24368 0.29433 0.0
C279 C 0.34974 0.21129 0.28539 0.0
C280 C 0.43474 0.23969 0.2809 0.0
C281 C 0.44494 0.20305 0.25826 0.0
C282 C 0.40712 0.16991 0.2498 0.0
C283 C 0.36003 0.174 0.26321 0.0
H284 H 0.22319 0.87009 0.80306 0.0
H285 H 0.3587 0.82831 0.75625 0.0
H286 H 0.22757 0.95137 0.7789 0.0
H287 H 0.36375 0.91051 0.73252 0.0
H288 H 0.31131 0.03655 0.66472 0.0
H289 H 0.32172 0.9587 0.69271 0.0
H290 H 0.27225 0.0281 0.77896 0.0
H291 H 0.26049 0.1057 0.75076 0.0
C292 C 0.25421 0.87838 0.78781 0.0
C293 C 0.29046 0.84256 0.78149 0.0
C294 C 0.25699 0.92528 0.77416 0.0
C295 C 0.29621 0.93773 0.75389 0.0
C296 C 0.33284 0.90206 0.74782 0.0
C297 C 0.33001 0.85498 0.76148 0.0
C298 C 0.30358 0.03555 0.68979 0.0
C299 C 0.2844 0.07726 0.70538 0.0
C300 C 0.30969 0.99081 0.70589 0.0
C301 C 0.29699 0.98684 0.73799 0.0
C302 C 0.28123 0.02954 0.75406 0.0
C303 C 0.27492 0.07419 0.73794 0.0
H304 H 0.61592 0.71299 0.31037 0.0
H305 H 0.6678 0.83566 0.25412 0.0
H306 H 0.53579 0.71787 0.28457 0.0
H307 H 0.58702 0.84165 0.22899 0.0
H308 H 0.46016 0.78994 0.16345 0.0
H309 H 0.53755 0.79775 0.19198 0.0
H310 H 0.462 0.7657 0.27947 0.0
H311 H 0.3846 0.7562 0.25068 0.0
C312 C 0.6101 0.7413 0.29267 0.0
C313 C 0.64839 0.77371 0.28418 0.0
C314 C 0.56391 0.74444 0.27807 0.0
C315 C 0.55471 0.78033 0.25475 0.0
C316 C 0.5929 0.81318 0.24655 0.0
C317 C 0.63923 0.80981 0.26102 0.0
C318 C 0.45977 0.78542 0.18886 0.0
C319 C 0.4162 0.77187 0.20471 0.0
C320 C 0.50429 0.79006 0.20528 0.0
C321 C 0.50629 0.78162 0.23802 0.0
C322 C 0.46205 0.77128 0.25416 0.0
C323 C 0.41753 0.76636 0.23769 0.0
H324 H 0.69409 0.18218 0.71309 0.0
H325 H 0.70786 0.13455 0.81003 0.0
H326 H 0.69055 0.09623 0.69609 0.0
H327 H 0.70257 0.04866 0.79319 0.0
H328 H 0.76 0.90594 0.74619 0.0
H329 H 0.75178 0.98916 0.76687 0.0
H330 H 0.64257 0.0221 0.69548 0.0
H331 H 0.6521 0.93896 0.67402 0.0
C332 C 0.69588 0.15337 0.73081 0.0
C333 C 0.7017 0.16526 0.76288 0.0
C334 C 0.69338 0.104 0.72109 0.0
C335 C 0.69624 0.06531 0.74325 0.0
C336 C 0.70102 0.07736 0.77541 0.0
C337 C 0.70392 0.12669 0.78508 0.0
C338 C 0.73353 0.93054 0.73519 0.0
C339 C 0.70704 0.91581 0.70823 0.0
C340 C 0.7287 0.97843 0.74716 0.0
C341 C 0.69694 0.01274 0.73264 0.0
C342 C 0.66821 0.99704 0.70683 0.0
C343 C 0.67328 0.94915 0.69471 0.0
H344 H 0.05271 0.33051 0.32499 0.0
H345 H 0.12211 0.2928 0.2364 0.0
H346 H 0.97338 0.33773 0.2984 0.0
H347 H 0.04304 0.30167 0.20955 0.0
H348 H 0.89061 0.23788 0.18629 0.0
H349 H 0.97195 0.2495 0.2092 0.0
H350 H 0.91844 0.37614 0.26118 0.0
H351 H 0.83622 0.36354 0.2388 0.0
C352 C 0.05143 0.32556 0.29963 0.0
C353 C 0.09361 0.31036 0.28288 0.0
C354 C 0.00579 0.32964 0.28434 0.0
C355 C 0.00152 0.31908 0.25193 0.0
C356 C 0.0447 0.3086 0.23471 0.0
C357 C 0.09017 0.30407 0.25003 0.0
C358 C 0.89612 0.26834 0.20251 0.0
C359 C 0.85681 0.29962 0.2108 0.0
C360 C 0.94302 0.27536 0.21544 0.0
C361 C 0.95203 0.31409 0.23686 0.0
C362 C 0.91278 0.34575 0.24494 0.0
C363 C 0.86566 0.33856 0.23207 0.0
H364 H 0.2907 0.35983 0.70475 0.0
H365 H 0.13457 0.33737 0.72029 0.0
H366 H 0.28356 0.4438 0.72438 0.0
H367 H 0.12718 0.42243 0.73944 0.0
H368 H 0.15704 0.55789 0.80739 0.0
H369 H 0.15164 0.47559 0.78371 0.0
H370 H 0.24952 0.52225 0.70888 0.0
H371 H 0.25589 0.60364 0.73294 0.0
C372 C 0.25473 0.37288 0.71222 0.0
C373 C 0.2132 0.34186 0.71085 0.0
C374 C 0.25052 0.4213 0.72324 0.0
C375 C 0.20462 0.4402 0.73306 0.0
C376 C 0.16308 0.40901 0.73212 0.0
C377 C 0.16732 0.36033 0.72109 0.0
C378 C 0.17632 0.55088 0.78544 0.0
C379 C 0.20734 0.58703 0.77221 0.0
C380 C 0.17333 0.50367 0.77189 0.0
C381 C 0.2011 0.49198 0.7448 0.0
C382 C 0.2288 0.52955 0.73025 0.0
C383 C 0.23208 0.57638 0.74387 0.0
H384 H 0.18631 0.71913 0.28535 0.0
H385 H 0.13543 0.65072 0.19909 0.0
H386 H 0.10275 0.71646 0.30635 0.0
H387 H 0.05186 0.64692 0.22046 0.0
H388 H 0.90458 0.72065 0.25295 0.0
H389 H 0.98667 0.70469 0.23204 0.0
H390 H 0.03714 0.66419 0.32529 0.0
H391 H 0.95521 0.6815 0.34641 0.0
C392 C 0.15742 0.70292 0.27101 0.0
C393 C 0.16753 0.68555 0.24043 0.0
C394 C 0.10948 0.70099 0.28317 0.0
C395 C 0.07046 0.68146 0.26511 0.0
C396 C 0.08088 0.66276 0.23486 0.0
C397 C 0.12885 0.6648 0.22265 0.0
C398 C 0.93285 0.70737 0.26893 0.0
C399 C 0.92344 0.70306 0.30146 0.0
C400 C 0.98002 0.69805 0.25689 0.0
C401 C 0.0188 0.68391 0.27707 0.0
C402 C 0.00841 0.67614 0.30921 0.0
C403 C 0.96129 0.68566 0.32128 0.0
H404 H 0.84796 0.44944 0.83512 0.0
H405 H 0.77316 0.4022 0.75018 0.0
H406 H 0.85605 0.53243 0.81331 0.0
H407 H 0.7802 0.4853 0.72878 0.0
H408 H 0.82378 0.63542 0.69058 0.0
H409 H 0.83299 0.55074 0.70944 0.0
H410 H 0.79759 0.59879 0.80405 0.0
H411 H 0.78943 0.68349 0.78535 0.0
C412 C 0.83398 0.45646 0.81159 0.0
C413 C 0.80939 0.41923 0.79458 0.0
C414 C 0.8382 0.5042 0.79921 0.0
C415 C 0.818 0.5158 0.76953 0.0
C416 C 0.79637 0.47771 0.75165 0.0
C417 C 0.79221 0.42997 0.764 0.0
C418 C 0.8182 0.62796 0.71544 0.0
C419 C 0.80562 0.66625 0.73643 0.0
C420 C 0.82337 0.57936 0.72623 0.0
C421 C 0.81611 0.56789 0.75826 0.0
C422 C 0.80428 0.60637 0.77931 0.0
C423 C 0.79914 0.65494 0.76853 0.0
loop_
_geom_bond_atom_site_label_1
_geom_bond_atom_site_label_2
_geom_bond_distance
_geom_bond_site_symmetry_2
_ccdc_geom_bond_type
C0 O1 1.160 . S
C0 O7 1.185 . S
O1 C0 1.160 . S
O2 Zn3 1.899 . S
O2 C10 1.284 . S
Zn3 O2 1.899 . S
Zn3 O4 2.032 . S
Zn3 O7 2.086 . S
Zn3 O12 1.977 . S
O4 Zn3 2.032 . S
O4 C8 1.278 . S
C5 O6 1.203 . S
C5 O12 1.267 . S
O6 C5 1.203 . S
O7 C0 1.185 . S
O7 Zn3 2.086 . S
C8 O4 1.278 . S
C8 O9 1.211 . S
O9 C8 1.211 . S
C10 O2 1.284 . S
C10 O11 1.273 . S
O11 C10 1.273 . S
O12 Zn3 1.977 . S
O12 C5 1.267 . S
C13 O14 1.160 . S
C13 O20 1.185 . S
O14 C13 1.160 . S
O15 Zn16 1.899 . S
O15 C23 1.284 . S
Zn16 O15 1.899 . S
Zn16 O17 2.032 . S
Zn16 O20 2.086 . S
Zn16 O25 1.977 . S
O17 Zn16 2.032 . S
O17 C21 1.278 . S
C18 O19 1.203 . S
C18 O25 1.267 . S
O19 C18 1.203 . S
O20 C13 1.185 . S
O20 Zn16 2.086 . S
C21 O17 1.278 . S
C21 O22 1.211 . S
O22 C21 1.211 . S
C23 O15 1.284 . S
C23 O24 1.273 . S
O24 C23 1.273 . S
O25 Zn16 1.977 . S
O25 C18 1.267 . S
C26 O27 1.160 . S
C26 O33 1.185 . S
O27 C26 1.160 . S
O28 Zn29 1.899 . S
O28 C36 1.284 . S
Zn29 O28 1.899 . S
Zn29 O30 2.032 . S
Zn29 O33 2.086 . S
Zn29 O38 1.977 . S
O30 Zn29 2.032 . S
O30 C34 1.278 . S
C31 O32 1.203 . S
C31 O38 1.267 . S
O32 C31 1.203 . S
O33 C26 1.185 . S
O33 Zn29 2.086 . S
C34 O30 1.278 . S
C34 O35 1.211 . S
O35 C34 1.211 . S
C36 O28 1.284 . S
C36 O37 1.273 . S
O37 C36 1.273 . S
O38 Zn29 1.977 . S
O38 C31 1.267 . S
C39 O40 1.160 . S
C39 O46 1.185 . S
O40 C39 1.160 . S
O41 Zn42 1.899 . S
O41 C49 1.284 . S
Zn42 O41 1.899 . S
Zn42 O43 2.032 . S
Zn42 O46 2.086 . S
Zn42 O51 1.977 . S
O43 Zn42 2.032 . S
O43 C47 1.278 . S
C44 O45 1.203 . S
C44 O51 1.267 . S
O45 C44 1.203 . S
O46 C39 1.185 . S
O46 Zn42 2.086 . S
C47 O43 1.278 . S
C47 O48 1.211 . S
O48 C47 1.211 . S
C49 O41 1.284 . S
C49 O50 1.273 . S
O50 C49 1.273 . S
O51 Zn42 1.977 . S
O51 C44 1.267 . S
C52 O53 1.160 . S
C52 O59 1.185 . S
O53 C52 1.160 . S
O54 Zn55 1.899 . S
O54 C62 1.284 . S
Zn55 O54 1.899 . S
Zn55 O56 2.032 . S
Zn55 O59 2.086 . S
Zn55 O64 1.977 . S
O56 Zn55 2.032 . S
O56 C60 1.278 . S
C57 O58 1.203 . S
C57 O64 1.267 . S
O58 C57 1.203 . S
O59 C52 1.185 . S
O59 Zn55 2.086 . S
C60 O56 1.278 . S
C60 O61 1.211 . S
O61 C60 1.211 . S
C62 O54 1.284 . S
C62 O63 1.273 . S
O63 C62 1.273 . S
O64 Zn55 1.977 . S
O64 C57 1.267 . S
C65 O66 1.160 . S
C65 O72 1.185 . S
O66 C65 1.160 . S
O67 Zn68 1.899 . S
O67 C75 1.284 . S
Zn68 O67 1.899 . S
Zn68 O69 2.032 . S
Zn68 O72 2.086 . S
Zn68 O77 1.977 . S
O69 Zn68 2.032 . S
O69 C73 1.278 . S
C70 O71 1.203 . S
C70 O77 1.267 . S
O71 C70 1.203 . S
O72 C65 1.185 . S
O72 Zn68 2.086 . S
C73 O69 1.278 . S
C73 O74 1.211 . S
O74 C73 1.211 . S
C75 O67 1.284 . S
C75 O76 1.273 . S
O76 C75 1.273 . S
O77 Zn68 1.977 . S
O77 C70 1.267 . S
C78 O79 1.160 . S
C78 O85 1.185 . S
O79 C78 1.160 . S
O80 Zn81 1.899 . S
O80 C88 1.284 . S
Zn81 O80 1.899 . S
Zn81 O82 2.032 . S
Zn81 O85 2.086 . S
Zn81 O90 1.977 . S
O82 Zn81 2.032 . S
O82 C86 1.278 . S
C83 O84 1.203 . S
C83 O90 1.267 . S
O84 C83 1.203 . S
O85 C78 1.185 . S
O85 Zn81 2.086 . S
C86 O82 1.278 . S
C86 O87 1.211 . S
O87 C86 1.211 . S
C88 O80 1.284 . S
C88 O89 1.273 . S
O89 C88 1.273 . S
O90 Zn81 1.977 . S
O90 C83 1.267 . S
C91 O92 1.160 . S
C91 O98 1.185 . S
O92 C91 1.160 . S
O93 Zn94 1.899 . S
O93 C101 1.284 . S
Zn94 O93 1.899 . S
Zn94 O95 2.032 . S
Zn94 O98 2.086 . S
Zn94 O103 1.977 . S
O95 Zn94 2.032 . S
O95 C99 1.278 . S
C96 O97 1.203 . S
C96 O103 1.267 . S
O97 C96 1.203 . S
O98 C91 1.185 . S
O98 Zn94 2.086 . S
C99 O95 1.278 . S
C99 O100 1.211 . S
O100 C99 1.211 . S
C101 O93 1.284 . S
C101 O102 1.273 . S
O102 C101 1.273 . S
O103 Zn94 1.977 . S
O103 C96 1.267 . S
H104 C112 0.950 . S
H105 C117 0.950 . S
H106 C114 0.950 1_565 S
H107 C116 0.950 1_655 S
H108 C118 0.950 . S
H109 C120 0.950 1_545 S
H110 C122 0.950 1_455 S
H111 C123 0.950 . S
C112 H104 0.950 . S
C112 C113 1.386 . S
C112 C114 1.391 . S
C113 C112 1.386 . S
C113 C117 1.393 . S
C114 H106 0.950 1_545 S
C114 C112 1.391 . S
C114 C115 1.400 . S
C115 C114 1.400 . S
C115 C116 1.398 . S
C115 C121 1.491 1_445 S
C116 H107 0.950 1_455 S
C116 C115 1.398 . S
C116 C117 1.391 . S
C117 H105 0.950 . S
C117 C113 1.393 . S
C117 C116 1.391 . S
C118 H108 0.950 . S
C118 C119 1.386 . S
C118 C120 1.391 . S
C119 C118 1.386 . S
C119 C123 1.393 . S
C120 H109 0.950 1_565 S
C120 C118 1.391 . S
C120 C121 1.400 . S
C121 C115 1.491 1_665 S
C121 C120 1.400 . S
C121 C122 1.398 . S
C122 H110 0.950 1_655 S
C122 C121 1.398 . S
C122 C123 1.391 . S
C123 H111 0.950 . S
C123 C119 1.393 . S
C123 C122 1.391 . S
H124 C132 0.950 . S
H125 C137 0.950 . S
H126 C134 0.950 . S
H127 C136 0.950 . S
H128 C138 0.950 . S
H129 C140 0.950 . S
H130 C142 0.950 . S
H131 C143 0.950 . S
C132 H124 0.950 . S
C132 C133 1.386 . S
C132 C134 1.391 . S
C133 C132 1.386 . S
C133 C137 1.393 . S
C134 H126 0.950 . S
C134 C132 1.391 . S
C134 C135 1.400 . S
C135 C134 1.400 . S
C135 C136 1.398 . S
C135 C141 1.491 . S
C136 H127 0.950 . S
C136 C135 1.398 . S
C136 C137 1.391 . S
C137 H125 0.950 . S
C137 C133 1.393 . S
C137 C136 1.391 . S
C138 H128 0.950 . S
C138 C139 1.386 . S
C138 C140 1.391 . S
C139 C138 1.386 . S
C139 C143 1.393 . S
C140 H129 0.950 . S
C140 C138 1.391 . S
C140 C141 1.400 . S
C141 C135 1.491 . S
C141 C140 1.400 . S
C141 C142 1.398 . S
C142 H130 0.950 . S
C142 C141 1.398 . S
C142 C143 1.391 . S
C143 H131 0.950 . S
C143 C139 1.393 . S
C143 C142 1.391 . S
H144 C152 0.950 . S
H145 C157 0.950 . S
H146 C154 0.950 . S
H147 C156 0.950 . S
H148 C158 0.950 . S
H149 C160 0.950 . S
H150 C162 0.950 . S
H151 C163 0.950 . S
C152 H144 0.950 . S
C152 C153 1.386 . S
C152 C154 1.391 . S
C153 C152 1.386 . S
C153 C157 1.393 . S
C154 H146 0.950 . S
C154 C152 1.391 . S
C154 C155 1.400 . S
C155 C154 1.400 . S
C155 C156 1.398 . S
C155 C161 1.491 . S
C156 H147 0.950 . S
C156 C155 1.398 . S
C156 C157 1.391 . S
C157 H145 0.950 . S
C157 C153 1.393 . S
C157 C156 1.391 . S
C158 H148 0.950 . S
C158 C159 1.386 . S
C158 C160 1.391 . S
C159 C158 1.386 . S
C159 C163 1.393 . S
C160 H149 0.950 . S
C160 C158 1.391 . S
C160 C161 1.400 . S
C161 C155 1.491 . S
C161 C160 1.400 . S
C161 C162 1.398 . S
C162 H150 0.950 . S
C162 C161 1.398 . S
C162 C163 1.391 . S
C163 H151 0.950 . S
C163 C159 1.393 . S
C163 C162 1.391 . S
H164 C172 0.950 . S
H165 C177 0.950 . S
H166 C174 0.950 1_655 S
H167 C176 0.950 1_565 S
H168 C178 0.950 . S
H169 C180 0.950 1_455 S
H170 C182 0.950 1_545 S
H171 C183 0.950 . S
C172 H164 0.950 . S
C172 C173 1.386 . S
C172 C174 1.391 . S
C173 C172 1.386 . S
C173 C177 1.393 . S
C174 H166 0.950 1_455 S
C174 C172 1.391 . S
C174 C175 1.400 . S
C175 C174 1.400 . S
C175 C176 1.398 . S
C175 C181 1.491 1_445 S
C176 H167 0.950 1_545 S
C176 C175 1.398 . S
C176 C177 1.391 . S
C177 H165 0.950 . S
C177 C173 1.393 . S
C177 C176 1.391 . S
C178 H168 0.950 . S
C178 C179 1.386 . S
C178 C180 1.391 . S
C179 C178 1.386 . S
C179 C183 1.393 . S
C180 H169 0.950 1_655 S
C180 C178 1.391 . S
C180 C181 1.400 . S
C181 C175 1.491 1_665 S
C181 C180 1.400 . S
C181 C182 1.398 . S
C182 H170 0.950 1_565 S
C182 C181 1.398 . S
C182 C183 1.391 . S
C183 H171 0.950 . S
C183 C179 1.393 . S
C183 C182 1.391 . S
H184 C192 0.950 . S
H185 C197 0.950 . S
H186 C194 0.950 . S
H187 C196 0.950 . S
H188 C198 0.950 . S
H189 C200 0.950 . S
H190 C202 0.950 . S
H191 C203 0.950 . S
C192 H184 0.950 . S
C192 C193 1.386 . S
C192 C194 1.391 . S
C193 C192 1.386 . S
C193 C197 1.393 . S
C194 H186 0.950 . S
C194 C192 1.391 . S
C194 C195 1.400 . S
C195 C194 1.400 . S
C195 C196 1.398 . S
C195 C201 1.491 . S
C196 H187 0.950 . S
C196 C195 1.398 . S
C196 C197 1.391 . S
C197 H185 0.950 . S
C197 C193 1.393 . S
C197 C196 1.391 . S
C198 H188 0.950 . S
C198 C199 1.386 . S
C198 C200 1.391 . S
C199 C198 1.386 . S
C199 C203 1.393 . S
C200 H189 0.950 . S
C200 C198 1.391 . S
C200 C201 1.400 . S
C201 C195 1.491 . S
C201 C200 1.400 . S
C201 C202 1.398 . S
C202 H190 0.950 . S
C202 C201 1.398 . S
C202 C203 1.391 . S
C203 H191 0.950 . S
C203 C199 1.393 . S
C203 C202 1.391 . S
H204 C212 0.950 . S
H205 C217 0.950 . S
H206 C214 0.950 . S
H207 C216 0.950 . S
H208 C218 0.950 . S
H209 C220 0.950 . S
H210 C222 0.950 . S
H211 C223 0.950 . S
C212 H204 0.950 . S
C212 C213 1.386 . S
C212 C214 1.391 . S
C213 C212 1.386 . S
C213 C217 1.393 . S
C214 H206 0.950 . S
C214 C212 1.391 . S
C214 C215 1.400 . S
C215 C214 1.400 . S
C215 C216 1.398 . S
C215 C221 1.491 1_556 S
C216 H207 0.950 . S
C216 C215 1.398 . S
C216 C217 1.391 . S
C217 H205 0.950 . S
C217 C213 1.393 . S
C217 C216 1.391 . S
C218 H208 0.950 . S
C218 C219 1.386 . S
C218 C220 1.391 . S
C219 C218 1.386 . S
C219 C223 1.393 . S
C220 H209 0.950 . S
C220 C218 1.391 . S
C220 C221 1.400 . S
C221 C215 1.491 1_554 S
C221 C220 1.400 . S
C221 C222 1.398 . S
C222 H210 0.950 . S
C222 C221 1.398 . S
C222 C223 1.391 . S
C223 H211 0.950 . S
C223 C219 1.393 . S
C223 C222 1.391 . S
H224 C232 0.950 . S
H225 C237 0.950 . S
H226 C234 0.950 . S
H227 C236 0.950 . S
H228 C238 0.950 . S
H229 C240 0.950 . S
H230 C242 0.950 . S
H231 C243 0.950 . S
C232 H224 0.950 . S
C232 C233 1.386 . S
C232 C234 1.391 . S
C233 C232 1.386 . S
C233 C237 1.393 . S
C234 H226 0.950 . S
C234 C232 1.391 . S
C234 C235 1.400 . S
C235 C234 1.400 . S
C235 C236 1.398 . S
C235 C241 1.491 . S
C236 H227 0.950 . S
C236 C235 1.398 . S
C236 C237 1.391 . S
C237 H225 0.950 . S
C237 C233 1.393 . S
C237 C236 1.391 . S
C238 H228 0.950 . S
C238 C239 1.386 . S
C238 C240 1.391 . S
C239 C238 1.386 . S
C239 C243 1.393 . S
C240 H229 0.950 . S
C240 C238 1.391 . S
C240 C241 1.400 . S
C241 C235 1.491 . S
C241 C240 1.400 . S
C241 C242 1.398 . S
C242 H230 0.950 . S
C242 C241 1.398 . S
C242 C243 1.391 . S
C243 H231 0.950 . S
C243 C239 1.393 . S
C243 C242 1.391 . S
H244 C252 0.950 . S
H245 C257 0.950 . S
H246 C254 0.950 . S
H247 C256 0.950 . S
H248 C258 0.950 . S
H249 C260 0.950 . S
H250 C262 0.950 . S
H251 C263 0.950 . S
C252 H244 0.950 . S
C252 C253 1.386 . S
C252 C254 1.391 . S
C253 C252 1.386 . S
C253 C257 1.393 . S
C254 H246 0.950 . S
C254 C252 1.391 . S
C254 C255 1.400 . S
C255 C254 1.400 . S
C255 C256 1.398 . S
C255 C261 1.491 1_556 S
C256 H247 0.950 . S
C256 C255 1.398 . S
C256 C257 1.391 . S
C257 H245 0.950 . S
C257 C253 1.393 . S
C257 C256 1.391 . S
C258 H248 0.950 . S
C258 C259 1.386 . S
C258 C260 1.391 . S
C259 C258 1.386 . S
C259 C263 1.393 . S
C260 H249 0.950 . S
C260 C258 1.391 . S
C260 C261 1.400 . S
C261 C255 1.491 1_554 S
C261 C260 1.400 . S
C261 C262 1.398 . S
C262 H250 0.950 . S
C262 C261 1.398 . S
C262 C263 1.391 . S
C263 H251 0.950 . S
C263 C259 1.393 . S
C263 C262 1.391 . S
H264 C272 0.950 . S
H265 C277 0.950 . S
H266 C274 0.950 . S
H267 C276 0.950 . S
H268 C278 0.950 . S
H269 C280 0.950 . S
H270 C282 0.950 . S
H271 C283 0.950 . S
C272 H264 0.950 . S
C272 C273 1.386 . S
C272 C274 1.391 . S
C273 C272 1.386 . S
C273 C277 1.393 . S
C274 H266 0.950 . S
C274 C272 1.391 . S
C274 C275 1.400 . S
C275 C274 1.400 . S
C275 C276 1.398 . S
C275 C281 1.491 . S
C276 H267 0.950 . S
C276 C275 1.398 . S
C276 C277 1.391 . S
C277 H265 0.950 . S
C277 C273 1.393 . S
C277 C276 1.391 . S
C278 H268 0.950 . S
C278 C279 1.386 . S
C278 C280 1.391 . S
C279 C278 1.386 . S
C279 C283 1.393 . S
C280 H269 0.950 . S
C280 C278 1.391 . S
C280 C281 1.400 . S
C281 C275 1.491 . S
C281 C280 1.400 . S
C281 C282 1.398 . S
C282 H270 0.950 . S
C282 C281 1.398 . S
C282 C283 1.391 . S
C283 H271 0.950 . S
C283 C279 1.393 . S
C283 C282 1.391 . S
H284 C292 0.950 . S
H285 C297 0.950 . S
H286 C294 0.950 . S
H287 C296 0.950 . S
H288 C298 0.950 . S
H289 C300 0.950 . S
H290 C302 0.950 . S
H291 C303 0.948 . S
C292 H284 0.950 . S
C292 C293 1.386 . S
C292 C294 1.391 . S
C293 C292 1.386 . S
C293 C297 1.393 . S
C294 H286 0.950 . S
C294 C292 1.391 . S
C294 C295 1.400 . S
C295 C294 1.400 . S
C295 C296 1.398 . S
C295 C301 1.491 . S
C296 H287 0.950 . S
C296 C295 1.398 . S
C296 C297 1.391 . S
C297 H285 0.950 . S
C297 C293 1.393 . S
C297 C296 1.391 . S
C298 H288 0.950 . S
C298 C299 1.386 1_565 S
C298 C300 1.391 . S
C299 C298 1.386 1_545 S
C299 C303 1.392 . S
C300 H289 0.950 . S
C300 C298 1.391 . S
C300 C301 1.400 . S
C301 C295 1.491 . S
C301 C300 1.400 . S
C301 C302 1.398 . S
C302 H290 0.950 . S
C302 C301 1.398 . S
C302 C303 1.392 1_565 S
C303 H291 0.948 . S
C303 C299 1.392 . S
C303 C302 1.392 1_545 S
H304 C312 0.950 . S
H305 C317 0.950 . S
H306 C314 0.950 . S
H307 C316 0.950 . S
H308 C318 0.950 . S
H309 C320 0.950 . S
H310 C322 0.950 . S
H311 C323 0.950 . S
C312 H304 0.950 . S
C312 C313 1.386 . S
C312 C314 1.391 . S
C313 C312 1.386 . S
C313 C317 1.393 . S
C314 H306 0.950 . S
C314 C312 1.391 . S
C314 C315 1.400 . S
C315 C314 1.400 . S
C315 C316 1.398 . S
C315 C321 1.491 . S
C316 H307 0.950 . S
C316 C315 1.398 . S
C316 C317 1.391 . S
C317 H305 0.950 . S
C317 C313 1.393 . S
C317 C316 1.391 . S
C318 H308 0.950 . S
C318 C319 1.386 . S
C318 C320 1.391 . S
C319 C318 1.386 . S
C319 C323 1.393 . S
C320 H309 0.950 . S
C320 C318 1.391 . S
C320 C321 1.400 . S
C321 C315 1.491 . S
C321 C320 1.400 . S
C321 C322 1.398 . S
C322 H310 0.950 . S
C322 C321 1.398 . S
C322 C323 1.391 . S
C323 H311 0.950 . S
C323 C319 1.393 . S
C323 C322 1.391 . S
H324 C332 0.950 . S
H325 C337 0.950 . S
H326 C334 0.950 . S
H327 C336 0.950 . S
H328 C338 0.950 . S
H329 C340 0.950 . S
H330 C342 0.950 . S
H331 C343 0.950 . S
C332 H324 0.950 . S
C332 C333 1.386 . S
C332 C334 1.391 . S
C333 C332 1.386 . S
C333 C337 1.393 . S
C334 H326 0.950 . S
C334 C332 1.391 . S
C334 C335 1.400 . S
C335 C334 1.400 . S
C335 C336 1.398 . S
C335 C341 1.491 . S
C336 H327 0.950 . S
C336 C335 1.398 . S
C336 C337 1.391 . S
C337 H325 0.950 . S
C337 C333 1.393 . S
C337 C336 1.391 . S
C338 H328 0.950 . S
C338 C339 1.386 . S
C338 C340 1.391 1_565 S
C339 C338 1.386 . S
C339 C343 1.393 1_565 S
C340 H329 0.950 . S
C340 C338 1.391 1_545 S
C340 C341 1.400 . S
C341 C335 1.491 . S
C341 C340 1.400 . S
C341 C342 1.398 . S
C342 H330 0.950 . S
C342 C341 1.398 . S
C342 C343 1.391 . S
C343 H331 0.950 . S
C343 C339 1.393 1_545 S
C343 C342 1.391 . S
H344 C352 0.950 . S
H345 C357 0.950 1_455 S
H346 C354 0.950 . S
H347 C356 0.950 . S
H348 C358 0.950 . S
H349 C360 0.950 . S
H350 C362 0.950 . S
H351 C363 0.950 . S
C352 H344 0.950 . S
C352 C353 1.386 1_655 S
C352 C354 1.391 . S
C353 C352 1.386 1_455 S
C353 C357 1.393 1_455 S
C354 H346 0.950 . S
C354 C352 1.391 . S
C354 C355 1.400 . S
C355 C354 1.400 . S
C355 C356 1.398 . S
C355 C361 1.491 . S
C356 H347 0.950 . S
C356 C355 1.398 . S
C356 C357 1.391 . S
C357 H345 0.950 1_655 S
C357 C353 1.393 1_655 S
C357 C356 1.391 . S
C358 H348 0.950 . S
C358 C359 1.386 . S
C358 C360 1.391 . S
C359 C358 1.386 . S
C359 C363 1.393 . S
C360 H349 0.950 . S
C360 C358 1.391 . S
C360 C361 1.400 . S
C361 C355 1.491 . S
C361 C360 1.400 . S
C361 C362 1.398 . S
C362 H350 0.950 . S
C362 C361 1.398 . S
C362 C363 1.391 . S
C363 H351 0.950 . S
C363 C359 1.393 . S
C363 C362 1.391 . S
H364 C372 0.950 . S
H365 C377 0.950 . S
H366 C374 0.950 . S
H367 C376 0.950 . S
H368 C378 0.950 . S
H369 C380 0.950 . S
H370 C382 0.950 . S
H371 C383 0.950 . S
C372 H364 0.950 . S
C372 C373 1.386 . S
C372 C374 1.391 . S
C373 C372 1.386 . S
C373 C377 1.393 . S
C374 H366 0.950 . S
C374 C372 1.391 . S
C374 C375 1.400 . S
C375 C374 1.400 . S
C375 C376 1.398 . S
C375 C381 1.491 . S
C376 H367 0.950 . S
C376 C375 1.398 . S
C376 C377 1.391 . S
C377 H365 0.950 . S
C377 C373 1.393 . S
C377 C376 1.391 . S
C378 H368 0.950 . S
C378 C379 1.386 . S
C378 C380 1.391 . S
C379 C378 1.386 . S
C379 C383 1.393 . S
C380 H369 0.950 . S
C380 C378 1.391 . S
C380 C381 1.400 . S
C381 C375 1.491 . S
C381 C380 1.400 . S
C381 C382 1.398 . S
C382 H370 0.950 . S
C382 C381 1.398 . S
C382 C383 1.391 . S
C383 H371 0.950 . S
C383 C379 1.393 . S
C383 C382 1.391 . S
H384 C392 0.950 . S
H385 C397 0.950 . S
H386 C394 0.950 . S
H387 C396 0.950 . S
H388 C398 0.950 . S
H389 C400 0.950 . S
H390 C402 0.950 . S
H391 C403 0.950 . S
C392 H384 0.950 . S
C392 C393 1.386 . S
C392 C394 1.391 . S
C393 C392 1.386 . S
C393 C397 1.393 . S
C394 H386 0.950 . S
C394 C392 1.391 . S
C394 C395 1.400 . S
C395 C394 1.400 . S
C395 C396 1.398 . S
C395 C401 1.491 . S
C396 H387 0.950 . S
C396 C395 1.398 . S
C396 C397 1.391 . S
C397 H385 0.950 . S
C397 C393 1.393 . S
C397 C396 1.391 . S
C398 H388 0.950 . S
C398 C399 1.386 . S
C398 C400 1.391 1_655 S
C399 C398 1.386 . S
C399 C403 1.393 1_655 S
C400 H389 0.950 . S
C400 C398 1.391 1_455 S
C400 C401 1.400 . S
C401 C395 1.491 . S
C401 C400 1.400 . S
C401 C402 1.398 . S
C402 H390 0.950 . S
C402 C401 1.398 . S
C402 C403 1.391 . S
C403 H391 0.950 . S
C403 C399 1.393 1_455 S
C403 C402 1.391 . S
H404 C412 0.950 . S
H405 C417 0.950 . S
H406 C414 0.950 . S
H407 C416 0.950 . S
H408 C418 0.950 . S
H409 C420 0.950 . S
H410 C422 0.950 . S
H411 C423 0.950 . S
C412 H404 0.950 . S
C412 C413 1.386 . S
C412 C414 1.391 . S
C413 C412 1.386 . S
C413 C417 1.393 . S
C414 H406 0.950 . S
C414 C412 1.391 . S
C414 C415 1.400 . S
C415 C414 1.400 . S
C415 C416 1.398 . S
C415 C421 1.491 . S
C416 H407 0.950 . S
C416 C415 1.398 . S
C416 C417 1.391 . S
C417 H405 0.950 . S
C417 C413 1.393 . S
C417 C416 1.391 . S
C418 H408 0.950 . S
C418 C419 1.386 . S
C418 C420 1.391 . S
C419 C418 1.386 . S
C419 C423 1.393 . S
C420 H409 0.950 . S
C420 C418 1.391 . S
C420 C421 1.400 . S
C421 C415 1.491 . S
C421 C420 1.400 . S
C421 C422 1.398 . S
C422 H410 0.950 . S
C422 C421 1.398 . S
C422 C423 1.391 . S
C423 H411 0.950 . S
C423 C419 1.393 . S
C423 C422 1.391 . S
C113 C5 0.526 . S
C119 C31 0.542 . S
C133 C18 0.594 . S
C139 C44 0.583 . S
C153 C57 0.509 . S
C159 C83 0.520 . S
C173 C70 0.513 . S
C179 C96 0.525 . S
C193 C8 1.362 . S
C199 C73 1.391 . S
C213 C21 1.388 . S
C219 C86 1.361 . S
C233 C99 1.379 . S
C239 C34 1.362 . S
C253 C47 1.363 . S
C259 C60 1.376 . S
C273 C62 1.515 . S
C279 C0 1.540 . S
C293 C13 1.547 . S
C299 C75 1.491 . S
C313 C26 1.545 . S
C319 C88 1.491 . S
C333 C39 1.546 . S
C339 C101 1.511 . S
C353 C10 1.513 . S
C359 C52 1.538 . S
C373 C65 1.549 . S
C379 C23 1.496 . S
C393 C78 1.546 . S
C399 C36 1.510 . S
C413 C49 1.506 . S
C419 C91 1.548 . S
