# Generated by pormake.
# Topology wgu, (5)-cn, num edge types: 1
# Building blocks:
#     Node 0, Type 0, BuildingBlock: XOMCOT_clean_sbu_0, # of connection points: 5
#     Node 1, Type 0, BuildingBlock: XOMCOT_clean_sbu_0, # of connection points: 5
#     Node 2, Type 0, BuildingBlock: XOMCOT_clean_sbu_0, # of connection points: 5
#     Node 3, Type 0, BuildingBlock: XOMCOT_clean_sbu_0, # of connection points: 5
#     Node 4, Type 0, BuildingBlock: XOMCOT_clean_sbu_0, # of connection points: 5
#     Node 5, Type 0, BuildingBlock: XOMCOT_clean_sbu_0, # of connection points: 5
#     Node 6, Type 0, BuildingBlock: XOMCOT_clean_sbu_0, # of connection points: 5
#     Node 7, Type 0, BuildingBlock: XOMCOT_clean_sbu_0, # of connection points: 5
#     Edge 8, Type (0, 0), BuildingBlock: MIFKUJ_clean_linker_0, # of connection points: 2
#     Edge 9, Type (0, 0), BuildingBlock: MIFKUJ_clean_linker_0, # of connection points: 2
#     Edge 10, Type (0, 0), BuildingBlock: MIFKUJ_clean_linker_0, # of connection points: 2
#     Edge 11, Type (0, 0), BuildingBlock: MIFKUJ_clean_linker_0, # of connection points: 2
#     Edge 12, Type (0, 0), BuildingBlock: MIFKUJ_clean_linker_0, # of connection points: 2
#     Edge 13, Type (0, 0), BuildingBlock: MIFKUJ_clean_linker_0, # of connection points: 2
#     Edge 14, Type (0, 0), BuildingBlock: MIFKUJ_clean_linker_0, # of connection points: 2
#     Edge 15, Type (0, 0), BuildingBlock: MIFKUJ_clean_linker_0, # of connection points: 2
#     Edge 16, Type (0, 0), BuildingBlock: MIFKUJ_clean_linker_0, # of connection points: 2
#     Edge 17, Type (0, 0), BuildingBlock: MIFKUJ_clean_linker_0, # of connection points: 2
#     Edge 18, Type (0, 0), BuildingBlock: MIFKUJ_clean_linker_0, # of connection points: 2
#     Edge 19, Type (0, 0), BuildingBlock: MIFKUJ_clean_linker_0, # of connection points: 2
#     Edge 20, Type (0, 0), BuildingBlock: MIFKUJ_clean_linker_0, # of connection points: 2
#     Edge 21, Type (0, 0), BuildingBlock: MIFKUJ_clean_linker_0, # of connection points: 2
#     Edge 22, Type (0, 0), BuildingBlock: MIFKUJ_clean_linker_0, # of connection points: 2
#     Edge 23, Type (0, 0), BuildingBlock: MIFKUJ_clean_linker_0, # of connection points: 2
#     Edge 24, Type (0, 0), BuildingBlock: MIFKUJ_clean_linker_0, # of connection points: 2
#     Edge 25, Type (0, 0), BuildingBlock: MIFKUJ_clean_linker_0, # of connection points: 2
#     Edge 26, Type (0, 0), BuildingBlock: MIFKUJ_clean_linker_0, # of connection points: 2
#     Edge 27, Type (0, 0), BuildingBlock: MIFKUJ_clean_linker_0, # of connection points: 2
# Relax obj value: 0.139
# Max RMSD: 0.148
# Mean RMSD: 0.148
data_MOF--net-wgu--node1-XOMCOT_clean_sbu_0--edge1-MIFKUJ_clean_linker_0
_symmetry_space_group_name_H-M    P1
_symmetry_Int_Tables_number       1
_symmetry_cell_setting            triclinic
loop_
_symmetry_equiv_pos_as_xyz
'x, y, z'
_cell_length_a     41.605014
_cell_length_b     41.56535
_cell_length_c     37.842373
_cell_angle_alpha  90.032745
_cell_angle_beta   89.843989
_cell_angle_gamma 90.01172
loop_
_atom_site_label
_atom_site_type_symbol
_atom_site_fract_x
_atom_site_fract_y
_atom_site_fract_z
_atom_type_partial_charge
Co0 Co 0.31116 0.36797 0.0409 0.0
C1 C 0.33237 0.29989 0.03977 0.0
C2 C 0.35974 0.32793 0.07634 0.0
C3 C 0.36696 0.29582 0.08151 0.0
N4 N 0.33779 0.33046 0.05025 0.0
N5 N 0.34973 0.27844 0.05826 0.0
H6 H 0.31418 0.29264 0.02133 0.0
H7 H 0.36813 0.34782 0.09227 0.0
C8 C 0.37748 0.38624 0.01577 0.0
O9 O 0.38096 0.35683 1.0036 0.0
N10 N 0.28401 0.40468 0.03223 0.0
C11 C 0.25367 0.40304 0.02007 0.0
C12 C 0.24236 0.4337 0.0151 0.0
C13 C 0.29077 0.43637 0.03492 0.0
N14 N 0.26566 0.45462 0.02432 0.0
C15 C 0.28163 0.33181 0.98551 0.0
C16 C 0.30946 0.36257 0.92859 0.0
C17 C 0.28791 0.3372 0.92231 0.0
C18 C 0.2737 0.32216 0.95144 0.0
C19 C 0.31698 0.3714 0.96347 0.0
N20 N 0.30422 0.35503 0.9916 0.0
H21 H 0.26922 0.32031 0.00709 0.0
H22 H 0.33221 0.39204 0.96748 0.0
H23 H 0.24071 0.38101 0.01483 0.0
H24 H 0.31364 0.44584 0.04364 0.0
O25 O 0.27522 0.34578 0.06245 0.0
O26 O 0.30953 0.37641 0.09151 0.0
O27 O 0.3507 0.39483 0.02961 0.0
C28 C 0.28454 0.35757 0.09246 0.0
H29 H 0.38234 0.28594 0.1018 0.0
H30 H 0.21869 0.44014 1.00565 0.0
H31 H 0.3203 0.37557 0.90682 0.0
H32 H 0.2558 0.30348 0.94803 0.0
Co33 Co 0.62729 0.30671 0.55773 0.0
C34 C 0.69562 0.31175 0.53947 0.0
C35 C 0.6814 0.35007 0.57406 0.0
C36 C 0.71432 0.35109 0.57008 0.0
N37 N 0.66954 0.32601 0.55394 0.0
N38 N 0.72309 0.32678 0.54861 0.0
H39 H 0.69476 0.28955 0.52453 0.0
H40 H 0.66727 0.36472 0.5919 0.0
C41 C 0.61236 0.37637 0.53553 0.0
O42 O 0.64252 0.38234 0.52782 0.0
N43 N 0.58525 0.2866 0.56226 0.0
C44 C 0.57128 0.27539 0.59209 0.0
C45 C 0.54085 0.26486 0.58438 0.0
C46 C 0.56276 0.28284 0.53681 0.0
N47 N 0.53551 0.26953 0.54969 0.0
C48 C 0.63282 0.25985 0.50328 0.0
C49 C 0.64114 0.30151 0.4471 0.0
C50 C 0.6459 0.2685 0.44172 0.0
C51 C 0.64103 0.24752 0.47013 0.0
C52 C 0.63358 0.31295 0.48094 0.0
N53 N 0.63019 0.29224 0.50873 0.0
H54 H 0.62969 0.24333 0.52503 0.0
H55 H 0.63188 0.33846 0.48467 0.0
H56 H 0.58191 0.27509 0.61807 0.0
H57 H 0.56589 0.29041 0.50966 0.0
O58 O 0.6476 0.27008 0.57977 0.0
O59 O 0.62939 0.3127 0.60864 0.0
O60 O 0.60352 0.34811 0.54508 0.0
C61 C 0.64395 0.28493 0.60972 0.0
H62 H 0.73073 0.36689 0.58389 0.0
H63 H 0.52395 0.25439 0.60289 0.0
H64 H 0.6448 0.31847 0.42573 0.0
H65 H 0.64412 0.2218 0.46688 0.0
Co66 Co 0.70392 0.63963 0.03375 0.0
C67 C 0.68528 0.70749 0.04248 0.0
C68 C 0.64295 0.67847 0.04141 0.0
C69 C 0.63394 0.71036 0.04518 0.0
N70 N 0.67531 0.6768 0.03831 0.0
N71 N 0.66082 0.72834 0.04608 0.0
H72 H 0.71013 0.71488 0.04313 0.0
H73 H 0.62675 0.65822 0.04197 0.0
C74 C 0.64408 0.61116 1.00003 0.0
O75 O 0.64342 0.63496 0.9772 0.0
N76 N 0.7332 0.60377 0.03 0.0
C77 C 0.76473 0.60669 0.02245 0.0
C78 C 0.77841 0.5767 0.02222 0.0
C79 C 0.72792 0.57189 0.03391 0.0
N80 N 0.75534 0.55488 0.02941 0.0
C81 C 0.72425 0.67827 0.97467 0.0
C82 C 0.71777 0.63167 0.92315 0.0
C83 C 0.72874 0.66235 0.91334 0.0
C84 C 0.73209 0.68566 0.93976 0.0
C85 C 0.70976 0.6254 0.95854 0.0
N86 N 0.71195 0.64895 0.98373 0.0
H87 H 0.72955 0.69593 0.99446 0.0
H88 H 0.70219 0.60141 0.96577 0.0
H89 H 0.7769 0.62916 0.01704 0.0
H90 H 0.70476 0.56138 0.04002 0.0
O91 O 0.73832 0.6648 0.05439 0.0
O92 O 0.70363 0.63536 0.08478 0.0
O93 O 0.6663 0.60986 0.02333 0.0
C94 C 0.72808 0.65492 0.08502 0.0
H95 H 0.6097 0.71951 0.04778 0.0
H96 H 0.80329 0.57123 0.01629 0.0
H97 H 0.71545 0.6127 0.9037 0.0
H98 H 0.74192 0.70918 0.93376 0.0
Co99 Co 0.36769 0.70733 0.56411 0.0
C100 C 0.29958 0.69168 0.557 0.0
C101 C 0.32438 0.65369 0.58349 0.0
C102 C 0.29167 0.64819 0.58629 0.0
N103 N 0.32928 0.68088 0.56466 0.0
N104 N 0.27635 0.67252 0.57 0.0
H105 H 0.29466 0.71461 0.54503 0.0
H106 H 0.3431 0.64027 0.5967 0.0
C107 C 0.38831 0.64302 0.53437 0.0
O108 O 0.36022 0.6404 0.51886 0.0
N109 N 0.40527 0.73491 0.56424 0.0
C110 C 0.40507 0.76682 0.57082 0.0
C111 C 0.43535 0.77887 0.56557 0.0
C112 C 0.43586 0.72807 0.55468 0.0
N113 N 0.45469 0.75461 0.55523 0.0
C114 C 0.33873 0.74395 0.50852 0.0
C115 C 0.37099 0.71697 0.45204 0.0
C116 C 0.34666 0.73954 0.44536 0.0
C117 C 0.33105 0.75355 0.47429 0.0
C118 C 0.37774 0.70773 0.48696 0.0
N119 N 0.36035 0.71985 0.51472 0.0
H120 H 0.3268 0.75603 0.53004 0.0
H121 H 0.39731 0.69128 0.49126 0.0
H122 H 0.38426 0.78091 0.57807 0.0
H123 H 0.44397 0.70462 0.54611 0.0
O124 O 0.34289 0.74057 0.58758 0.0
O125 O 0.37022 0.70272 0.61522 0.0
O126 O 0.39553 0.66875 0.55125 0.0
C127 C 0.35121 0.72751 0.61732 0.0
H128 H 0.28012 0.62947 0.60163 0.0
H129 H 0.44246 0.80374 0.5688 0.0
H130 H 0.38444 0.70627 0.43049 0.0
H131 H 0.31316 0.77217 0.47057 0.0
Co132 Co 0.79758 0.13959 0.98416 0.0
C133 C 0.82298 0.20522 0.99576 0.0
C134 C 0.85133 0.17935 0.95803 0.0
C135 C 0.86117 0.2111 0.9581 0.0
N136 N 0.82714 0.17574 0.98158 0.0
N137 N 0.84328 0.22711 0.98204 0.0
H138 H 0.80376 0.21176 0.01334 0.0
H139 H 0.8597 0.16073 0.94027 0.0
C140 C 0.86037 0.11668 0.01345 0.0
O141 O 0.86336 0.14498 0.02855 0.0
N142 N 0.76717 0.10447 0.98606 0.0
C143 C 0.73508 0.1084 0.98834 0.0
C144 C 0.72071 0.07877 0.98961 0.0
C145 C 0.77201 0.07231 0.98648 0.0
N146 N 0.74383 0.05609 0.98842 0.0
C147 C 0.76437 0.17269 0.03961 0.0
C148 C 0.7854 0.13604 0.0957 0.0
C149 C 0.76402 0.16152 0.10236 0.0
C150 C 0.75363 0.17988 0.07357 0.0
C151 C 0.7959 0.12984 0.06104 0.0
N152 N 0.78647 0.14898 0.03353 0.0
H153 H 0.75492 0.18681 0.01815 0.0
H154 H 0.81064 0.10892 0.05654 0.0
H155 H 0.72286 0.13132 0.9896 0.0
H156 H 0.79542 0.06102 0.98536 0.0
O157 O 0.76579 0.16623 0.96104 0.0
O158 O 0.80039 0.13505 0.93292 0.0
O159 O 0.83441 0.10952 0.99701 0.0
C160 C 0.77706 0.15583 0.93115 0.0
H161 H 0.87877 0.2219 0.94064 0.0
H162 H 0.69519 0.07424 0.99231 0.0
H163 H 0.7932 0.12039 0.11686 0.0
H164 H 0.73725 0.19988 0.07704 0.0
Co165 Co 0.87505 0.80539 0.4612 0.0
C166 C 0.80835 0.81541 0.48248 0.0
C167 C 0.82158 0.84871 0.44183 0.0
C168 C 0.78879 0.85036 0.44684 0.0
N169 N 0.83396 0.82716 0.46475 0.0
N170 N 0.78052 0.8291 0.47221 0.0
H171 H 0.80979 0.79544 0.50066 0.0
H172 H 0.83511 0.86079 0.42132 0.0
C173 C 0.89295 0.87447 0.48121 0.0
O174 O 0.86263 0.88185 0.48608 0.0
N175 N 0.91545 0.78224 0.45738 0.0
C176 C 0.92419 0.76041 0.43269 0.0
C177 C 0.95294 0.74686 0.44228 0.0
C178 C 0.93938 0.78184 0.48147 0.0
N179 N 0.96235 0.76018 0.47299 0.0
C180 C 0.86899 0.75966 0.51668 0.0
C181 C 0.85919 0.80264 0.57139 0.0
C182 C 0.85472 0.76966 0.57788 0.0
C183 C 0.86059 0.74805 0.55009 0.0
C184 C 0.86761 0.81326 0.5375 0.0
N185 N 0.87152 0.79189 0.5104 0.0
H186 H 0.87216 0.74273 0.49527 0.0
H187 H 0.86923 0.83871 0.53293 0.0
H188 H 0.91057 0.75378 0.40959 0.0
H189 H 0.93925 0.79601 0.50548 0.0
O190 O 0.85205 0.77007 0.43941 0.0
O191 O 0.87383 0.81078 0.41021 0.0
O192 O 0.90117 0.84552 0.47363 0.0
C193 C 0.85686 0.78442 0.40931 0.0
H194 H 0.77214 0.86424 0.43107 0.0
H195 H 0.96583 0.72839 0.42789 0.0
H196 H 0.85549 0.82023 0.59212 0.0
H197 H 0.85726 0.72241 0.55356 0.0
Co198 Co 0.19652 0.87383 0.99164 0.0
C199 C 0.18466 0.80834 0.01565 0.0
C200 C 0.14747 0.82389 0.98058 0.0
C201 C 0.1446 0.7912 0.9854 0.0
N202 N 0.17238 0.83475 0.99998 0.0
N203 N 0.16835 0.78137 0.0071 0.0
H204 H 0.20747 0.80829 0.02927 0.0
H205 H 0.13395 0.8383 0.96203 0.0
C206 C 0.13023 0.89646 0.01603 0.0
O207 O 0.12398 0.86779 0.0288 0.0
N208 N 0.22206 0.91219 0.98268 0.0
C209 C 0.24501 0.91592 0.95771 0.0
C210 C 0.25801 0.94605 0.96062 0.0
C211 C 0.2218 0.9403 1.00077 0.0
N212 N 0.24346 0.96149 0.98756 0.0
C213 C 0.24444 0.86496 0.04407 0.0
C214 C 0.20577 0.86991 0.10316 0.0
C215 C 0.23759 0.85923 0.1075 0.0
C216 C 0.25715 0.85764 0.07725 0.0
C217 C 0.19383 0.87643 0.06931 0.0
N218 N 0.2128 0.87283 0.04007 0.0
H219 H 0.2599 0.86289 0.02122 0.0
H220 H 0.1692 0.88359 0.06711 0.0
H221 H 0.25269 0.89807 0.93881 0.0
H222 H 0.20619 0.94509 0.02309 0.0
O223 O 0.22885 0.8468 0.96967 0.0
O224 O 0.18833 0.86937 0.94121 0.0
O225 O 0.15826 0.90301 1.00364 0.0
C226 C 0.21333 0.85051 0.9402 0.0
H227 H 0.12779 0.77565 0.97187 0.0
H228 H 0.27746 0.95552 0.94466 0.0
H229 H 0.18987 0.87275 0.12563 0.0
H230 H 0.2818 0.84948 0.07867 0.0
Co231 Co 0.13819 0.20555 0.46671 0.0
C232 C 0.20565 0.18408 0.47065 0.0
C233 C 0.17866 0.15463 0.43512 0.0
C234 C 0.21078 0.14648 0.43219 0.0
N235 N 0.1755 0.17823 0.45942 0.0
N236 N 0.22756 0.16508 0.45474 0.0
H237 H 0.21219 0.20364 0.48777 0.0
H238 H 0.15923 0.14533 0.41915 0.0
C239 C 0.11868 0.1395 0.49167 0.0
O240 O 0.14789 0.13554 0.50402 0.0
N241 N 0.10175 0.23373 0.47349 0.0
C242 C 0.104 0.26562 0.47939 0.0
C243 C 0.07397 0.27754 0.4866 0.0
C244 C 0.07021 0.2266 0.4772 0.0
N245 N 0.05275 0.25305 0.48544 0.0
C246 C 0.17195 0.23748 0.52224 0.0
C247 C 0.14153 0.20921 0.57915 0.0
C248 C 0.16502 0.23277 0.5854 0.0
C249 C 0.18019 0.24687 0.5563 0.0
C250 C 0.13378 0.20056 0.54427 0.0
N251 N 0.14983 0.21377 0.51616 0.0
H252 H 0.18375 0.24963 0.50069 0.0
H253 H 0.11409 0.18415 0.54031 0.0
H254 H 0.12614 0.27924 0.47949 0.0
H255 H 0.06039 0.20258 0.47526 0.0
O256 O 0.1618 0.2403 0.44478 0.0
O257 O 0.13127 0.20591 0.41575 0.0
O258 O 0.11047 0.16658 0.47827 0.0
C259 C 0.1507 0.23046 0.4147 0.0
H260 H 0.22107 0.12926 0.41392 0.0
H261 H 0.06826 0.30236 0.49259 0.0
H262 H 0.12853 0.19837 0.60093 0.0
H263 H 0.19847 0.26517 0.55972 0.0
H264 H 0.23955 0.98498 0.05466 0.0
H265 H 0.25886 0.03774 0.07512 0.0
H266 H 0.28457 0.06263 0.96807 0.0
H267 H 0.26508 0.01067 0.94765 0.0
H268 H 0.3339 0.0732 0.0132 0.0
H269 H 0.22055 0.09587 1.00643 0.0
H270 H 0.16321 0.08763 0.02039 0.0
H271 H 0.18227 0.10381 0.13043 0.0
H272 H 0.23988 0.1117 0.11716 0.0
H273 H 0.34589 0.24195 1.0 0.0
H274 H 0.33035 0.18518 0.99687 0.0
H275 H 0.32544 0.18117 0.11065 0.0
H276 H 0.34154 0.23815 0.11376 0.0
H277 H 0.26898 0.15709 0.07342 0.0
H278 H 0.38277 0.14198 0.07635 0.0
H279 H 0.43904 0.15207 0.05903 0.0
H280 H 0.41795 0.12309 0.95266 0.0
H281 H 0.36142 0.11327 0.96922 0.0
C282 C 0.24882 1.00197 0.03551 0.0
C283 C 0.25121 0.99348 0.99961 0.0
C284 C 0.25997 0.03201 0.04722 0.0
C285 C 0.2735 0.05396 0.02313 0.0
C286 C 0.2747 0.0459 0.98719 0.0
C287 C 0.26358 0.01613 0.97556 0.0
C288 C 0.28745 0.08506 0.03488 0.0
C289 C 0.31967 0.09155 0.02633 0.0
C290 C 0.26914 0.10868 0.05282 0.0
C291 C 0.23458 0.10392 0.06087 0.0
C292 C 0.21257 0.09734 0.03365 0.0
C293 C 0.18002 0.09281 0.04142 0.0
C294 C 0.16914 0.09508 0.07629 0.0
C295 C 0.19077 0.10198 0.10345 0.0
C296 C 0.22337 0.10649 0.09582 0.0
C297 C 0.34209 0.22871 0.02429 0.0
C298 C 0.34516 0.24418 0.05708 0.0
C299 C 0.33318 0.19639 0.02253 0.0
C300 C 0.32677 0.17901 0.05354 0.0
C301 C 0.33035 0.1942 0.08645 0.0
C302 C 0.33984 0.22653 0.08822 0.0
C303 C 0.31513 0.14538 0.05091 0.0
C304 C 0.28339 0.13844 0.06107 0.0
C305 C 0.33374 0.12139 0.03408 0.0
C306 C 0.36778 0.12708 0.02401 0.0
C307 C 0.39007 0.13798 0.0492 0.0
C308 C 0.42203 0.14362 0.03953 0.0
C309 C 0.43205 0.13827 1.00476 0.0
C310 C 0.41015 0.12722 0.97959 0.0
C311 C 0.37815 0.12157 0.98912 0.0
H312 H 0.45681 0.14265 0.99732 0.0
H313 H 0.14393 0.09164 0.08222 0.0
H314 H 0.0044 0.21688 0.45805 0.0
H315 H 0.94654 0.2236 0.46927 0.0
H316 H 0.96708 0.301 0.54178 0.0
H317 H 0.02441 0.29398 0.53129 0.0
H318 H 0.92118 0.26283 0.56771 0.0
H319 H 0.94493 0.31637 0.45726 0.0
H320 H 0.96457 0.3193 0.39579 0.0
H321 H 0.89521 0.24834 0.36447 0.0
H322 H 0.87545 0.24469 0.42591 0.0
H323 H 0.77221 0.36311 0.52558 0.0
H324 H 0.82784 0.3455 0.51497 0.0
H325 H 0.80255 0.24935 0.54764 0.0
H326 H 0.74662 0.26681 0.55711 0.0
H327 H 0.84938 0.29258 0.46853 0.0
H328 H 0.87681 0.22964 0.60227 0.0
H329 H 0.86213 0.23275 0.66536 0.0
H330 H 0.83187 0.33069 0.65178 0.0
H331 H 0.84739 0.32856 0.58899 0.0
C332 C 0.99649 0.23501 0.47668 0.0
C333 C 0.01892 0.25518 0.49343 0.0
C334 C 0.96348 0.23897 0.48291 0.0
C335 C 0.95249 0.26304 0.5061 0.0
C336 C 0.97496 0.28233 0.52373 0.0
C337 C 0.00775 0.2785 0.51742 0.0
C338 C 0.91767 0.26929 0.51142 0.0
C339 C 0.90533 0.2689 0.54598 0.0
C340 C 0.89718 0.27775 0.48312 0.0
C341 C 0.90899 0.27998 0.44622 0.0
C342 C 0.93406 0.3012 0.43731 0.0
C343 C 0.94517 0.30303 0.40247 0.0
C344 C 0.93121 0.28394 0.37626 0.0
C345 C 0.90604 0.26306 0.38482 0.0
C346 C 0.89487 0.26111 0.41963 0.0
C347 C 0.77863 0.33822 0.53018 0.0
C348 C 0.75535 0.3162 0.54177 0.0
C349 C 0.81022 0.32817 0.5241 0.0
C350 C 0.81921 0.29616 0.53058 0.0
C351 C 0.79602 0.27414 0.54249 0.0
C352 C 0.7642 0.28403 0.5477 0.0
C353 C 0.85293 0.28603 0.52483 0.0
C354 C 0.865 0.28573 0.49017 0.0
C355 C 0.87331 0.27741 0.55316 0.0
C356 C 0.86263 0.27867 0.59062 0.0
C357 C 0.86699 0.25184 0.61272 0.0
C358 C 0.85878 0.25352 0.64852 0.0
C359 C 0.84605 0.28189 0.66256 0.0
C360 C 0.8416 0.30867 0.64084 0.0
C361 C 0.85006 0.30722 0.60509 0.0
H362 H 0.83954 0.28308 0.69024 0.0
H363 H 0.93984 0.2854 0.3493 0.0
H364 H 0.69427 0.023 0.96083 0.0
H365 H 0.68029 0.96691 0.97213 0.0
H366 H 0.76664 0.95556 0.03372 0.0
H367 H 0.78088 0.01202 0.0221 0.0
H368 H 0.75391 0.90218 0.99345 0.0
H369 H 0.69594 0.96919 0.07471 0.0
H370 H 0.66088 0.01436 0.09209 0.0
H371 H 0.58375 0.9745 0.03091 0.0
H372 H 0.61852 0.92931 0.01273 0.0
H373 H 0.70653 0.76154 0.08073 0.0
H374 H 0.7196 0.81841 0.07297 0.0
H375 H 0.63646 0.83008 1.00635 0.0
H376 H 0.62332 0.77282 0.01409 0.0
H377 H 0.6479 0.88328 0.05045 0.0
H378 H 0.70612 0.81679 0.9685 0.0
H379 H 0.74073 0.77101 0.95205 0.0
H380 H 0.81727 0.80968 0.01503 0.0
H381 H 0.78288 0.85544 0.03237 0.0
C382 C 0.71039 0.00848 0.97657 0.0
C383 C 0.73842 0.02196 0.99103 0.0
C384 C 0.70237 0.97646 0.98304 0.0
C385 C 0.722 0.95728 1.0045 0.0
C386 C 0.75103 0.97004 0.0173 0.0
C387 C 0.75921 1.0022 0.01058 0.0
C388 C 0.7113 0.92446 0.01466 0.0
C389 C 0.73096 0.8981 1.00636 0.0
C390 C 0.68102 0.91906 0.03091 0.0
C391 C 0.65993 0.94601 0.04212 0.0
C392 C 0.67157 0.97017 0.06477 0.0
C393 C 0.65175 0.99576 0.07479 0.0
C394 C 0.62013 0.99734 0.06255 0.0
C395 C 0.60825 0.97326 0.04034 0.0
C396 C 0.628 0.94764 0.0302 0.0
C397 C 0.69076 0.77637 0.06488 0.0
C398 C 0.66418 0.76276 0.04756 0.0
C399 C 0.69825 0.80881 0.06046 0.0
C400 C 0.67942 0.82824 0.03843 0.0
C401 C 0.6514 0.81538 0.02329 0.0
C402 C 0.64382 0.78279 0.02783 0.0
C403 C 0.69046 0.8611 0.02917 0.0
C404 C 0.67087 0.88742 0.03761 0.0
C405 C 0.72079 0.86646 0.01307 0.0
C406 C 0.74182 0.8394 1.00198 0.0
C407 C 0.73026 0.81544 0.97901 0.0
C408 C 0.74984 0.78949 0.96952 0.0
C409 C 0.78116 0.78739 0.98255 0.0
C410 C 0.79299 0.81131 1.00499 0.0
C411 C 0.77347 0.83728 0.01464 0.0
H412 H 0.79627 0.76726 0.97521 0.0
H413 H 0.60482 0.01718 0.07033 0.0
H414 H 0.99991 0.79981 0.51186 0.0
H415 H 0.0511 0.78574 0.54019 0.0
H416 H 0.03925 0.68712 0.50716 0.0
H417 H 0.98826 0.70102 0.47913 0.0
H418 H 0.06526 0.69289 0.57561 0.0
H419 H 0.0818 0.73463 0.45707 0.0
H420 H 0.07651 0.77539 0.41011 0.0
H421 H 0.12544 0.84455 0.47494 0.0
H422 H 0.13061 0.80426 0.5225 0.0
H423 H 0.22595 0.63225 0.561 0.0
H424 H 0.16917 0.64793 0.55562 0.0
H425 H 0.19479 0.74662 0.57733 0.0
H426 H 0.25103 0.731 0.58263 0.0
H427 H 0.16068 0.74395 0.52026 0.0
H428 H 0.1505 0.70103 0.63627 0.0
H429 H 0.15611 0.66097 0.68379 0.0
H430 H 0.0959 0.59532 0.62651 0.0
H431 H 0.09038 0.63487 0.57832 0.0
C432 C 0.00802 0.77507 0.51129 0.0
C433 C 0.99047 0.7516 0.49288 0.0
C434 C 0.0372 0.76707 0.52737 0.0
C435 C 0.04902 0.73543 0.52548 0.0
C436 C 0.03056 0.71164 0.5089 0.0
C437 C 1.00165 0.71968 0.49258 0.0
C438 C 0.08193 0.72756 0.53749 0.0
C439 C 0.08621 0.70391 0.56354 0.0
C440 C 0.10913 0.74244 0.52213 0.0
C441 C 0.10624 0.76658 0.49347 0.0
C442 C 0.09119 0.7586 0.46141 0.0
C443 C 0.08826 0.7816 0.43467 0.0
C444 C 0.10054 0.81257 0.43958 0.0
C445 C 0.11588 0.82057 0.4712 0.0
C446 C 0.11882 0.79767 0.49805 0.0
C447 C 0.21916 0.6571 0.56528 0.0
C448 C 0.24277 0.6805 0.57153 0.0
C449 C 0.18682 0.66608 0.5623 0.0
C450 C 0.1777 0.69852 0.56608 0.0
C451 C 0.20121 0.72152 0.57411 0.0
C452 C 0.23336 0.71261 0.57693 0.0
C453 C 0.14433 0.7091 0.55852 0.0
C454 C 0.1399 0.73318 0.53298 0.0
C455 C 0.11712 0.69472 0.57458 0.0
C456 C 0.12029 0.67084 0.60351 0.0
C457 C 0.1387 0.67796 0.63364 0.0
C458 C 0.14182 0.65536 0.66074 0.0
C459 C 0.12643 0.62557 0.65814 0.0
C460 C 0.10783 0.61838 0.62846 0.0
C461 C 0.10468 0.64091 0.60126 0.0
H462 H 0.12885 0.60809 0.67915 0.0
H463 H 0.09825 0.83035 0.41885 0.0
H464 H 0.80611 0.52327 0.05586 0.0
H465 H 0.81886 0.46639 0.04797 0.0
H466 H 0.72821 0.45194 0.99512 0.0
H467 H 0.71514 0.50917 1.00366 0.0
H468 H 0.74403 0.4 0.03502 0.0
H469 H 0.79487 0.46378 0.94667 0.0
H470 H 0.82714 0.50886 0.92348 0.0
H471 H 0.90968 0.47446 0.97988 0.0
H472 H 0.87775 0.42943 1.00387 0.0
H473 H 0.8449 0.27305 0.93143 0.0
H474 H 0.82837 0.32936 0.93867 0.0
H475 H 0.81747 0.31423 0.05088 0.0
H476 H 0.83324 0.25792 0.04346 0.0
H477 H 0.84787 0.38071 0.97348 0.0
H478 H 0.75179 0.35277 0.0811 0.0
H479 H 0.71803 0.30692 0.09957 0.0
H480 H 0.72135 0.26869 0.99419 0.0
H481 H 0.75462 0.31458 0.97494 0.0
C482 C 0.78874 0.50784 0.04298 0.0
C483 C 0.75991 0.5206 0.02986 0.0
C484 C 0.79604 0.4754 0.03842 0.0
C485 C 0.7749 0.45513 0.02007 0.0
C486 C 0.74501 0.46725 0.00906 0.0
C487 C 0.73751 0.49984 0.01401 0.0
C488 C 0.78528 0.42207 0.01055 0.0
C489 C 0.76668 0.39575 0.02153 0.0
C490 C 0.81441 0.41653 0.99199 0.0
C491 C 0.83384 0.44335 0.97725 0.0
C492 C 0.81985 0.46593 0.95429 0.0
C493 C 0.83809 0.49147 0.941 0.0
C494 C 0.87043 0.49455 0.95025 0.0
C495 C 0.88462 0.47205 0.97275 0.0
C496 C 0.86647 0.44649 0.98618 0.0
C497 C 0.83973 0.28206 0.95768 0.0
C498 C 0.84017 0.26125 0.9869 0.0
C499 C 0.83009 0.31411 0.96179 0.0
C500 C 0.82089 0.32577 0.99519 0.0
C501 C 0.82362 0.30555 0.02473 0.0
C502 C 0.83287 0.27353 0.02055 0.0
C503 C 0.80726 0.35859 0.99913 0.0
C504 C 0.82517 0.3849 0.9869 0.0
C505 C 0.7771 0.36403 0.01568 0.0
C506 C 0.75595 0.33701 0.02668 0.0
C507 C 0.7451 0.33473 0.06181 0.0
C508 C 0.72609 0.3087 0.07242 0.0
C509 C 0.71764 0.28486 0.0481 0.0
C510 C 0.72798 0.28712 0.01303 0.0
C511 C 0.74691 0.31314 1.00226 0.0
H512 H 0.70306 0.26465 0.05642 0.0
H513 H 0.88451 0.51435 0.93994 0.0
H514 H 0.48344 0.80687 0.52693 0.0
H515 H 0.54001 0.81348 0.51261 0.0
H516 H 0.55851 0.71567 0.54473 0.0
H517 H 0.50142 0.70913 0.56024 0.0
H518 H 0.60338 0.75798 0.5711 0.0
H519 H 0.55897 0.73342 0.45882 0.0
H520 H 0.52064 0.73709 0.40943 0.0
H521 H 0.54663 0.83595 0.39314 0.0
H522 H 0.58479 0.83304 0.44279 0.0
H523 H 0.7617 0.77039 0.49655 0.0
H524 H 0.7073 0.75336 0.51122 0.0
H525 H 0.6716 0.8475 0.48395 0.0
H526 H 0.72626 0.86499 0.46958 0.0
H527 H 0.63676 0.79948 0.45367 0.0
H528 H 0.67916 0.82382 0.56936 0.0
H529 H 0.71748 0.819 0.61867 0.0
H530 H 0.69564 0.71843 0.62814 0.0
H531 H 0.65762 0.72248 0.57838 0.0
C532 C 0.49946 0.78676 0.53123 0.0
C533 C 0.48795 0.75753 0.54501 0.0
C534 C 0.53181 0.79048 0.52266 0.0
C535 C 0.55343 0.76498 0.52729 0.0
C536 C 0.54215 0.73562 0.54088 0.0
C537 C 0.50956 0.73184 0.54946 0.0
C538 C 0.58784 0.76977 0.51843 0.0
C539 C 0.61086 0.76641 0.54522 0.0
C540 C 0.59743 0.78119 0.48479 0.0
C541 C 0.57461 0.78305 0.45472 0.0
C542 C 0.55636 0.75601 0.44488 0.0
C543 C 0.53468 0.75795 0.4168 0.0
C544 C 0.53116 0.78675 0.3982 0.0
C545 C 0.54938 0.81366 0.40758 0.0
C546 C 0.57107 0.81187 0.43567 0.0
C547 C 0.7425 0.78777 0.49426 0.0
C548 C 0.74847 0.81924 0.48205 0.0
C549 C 0.71131 0.77787 0.50255 0.0
C550 C 0.68546 0.79922 0.49895 0.0
C551 C 0.69126 0.83063 0.48688 0.0
C552 C 0.72247 0.84058 0.47859 0.0
C553 C 0.65217 0.78857 0.50659 0.0
C554 C 0.62938 0.79072 0.47945 0.0
C555 C 0.64295 0.77581 0.53983 0.0
C556 C 0.66581 0.77338 0.56981 0.0
C557 C 0.68276 0.80059 0.58169 0.0
C558 C 0.7044 0.79801 0.60976 0.0
C559 C 0.70907 0.7684 0.62644 0.0
C560 C 0.69206 0.74132 0.61513 0.0
C561 C 0.67046 0.74375 0.58698 0.0
H562 H 0.7258 0.76647 0.6482 0.0
H563 H 0.51436 0.7882 0.37647 0.0
H564 H 0.29225 0.49806 0.06912 0.0
H565 H 0.28324 0.55656 0.06905 0.0
H566 H 0.22478 0.54722 0.97562 0.0
H567 H 0.23396 0.48925 0.97546 0.0
H568 H 0.2642 0.60008 0.9725 0.0
H569 H 0.1903 0.54988 0.05566 0.0
H570 H 0.17674 0.51747 0.10821 0.0
H571 H 0.23057 0.58224 0.17378 0.0
H572 H 0.24482 0.6148 0.12148 0.0
H573 H 0.15795 0.72949 0.96486 0.0
H574 H 0.18089 0.67599 0.97136 0.0
H575 H 0.22805 0.70561 0.06738 0.0
H576 H 0.20416 0.75922 0.0617 0.0
H577 H 0.20331 0.64587 0.07365 0.0
H578 H 0.27005 0.70103 0.99123 0.0
H579 H 0.28289 0.7336 0.93859 0.0
H580 H 0.24349 0.66025 0.87155 0.0
H581 H 0.22985 0.62748 0.92378 0.0
C582 C 0.27796 0.50868 0.04831 0.0
C583 C 0.26345 0.48914 0.02256 0.0
C584 C 0.27269 0.54198 0.04838 0.0
C585 C 0.25304 0.55615 0.02253 0.0
C586 C 0.23994 0.53681 0.99585 0.0
C587 C 0.24497 0.50366 0.99596 0.0
C588 C 0.24425 0.59071 0.02402 0.0
C589 C 0.25085 0.61013 0.99456 0.0
C590 C 0.22759 0.60401 0.05323 0.0
C591 C 0.21896 0.58451 0.08463 0.0
C592 C 0.19947 0.55704 0.08124 0.0
C593 C 0.19162 0.53868 0.11098 0.0
C594 C 0.20288 0.54773 0.14429 0.0
C595 C 0.22194 0.57522 0.14795 0.0
C596 C 0.2299 0.59363 0.11827 0.0
C597 C 0.17264 0.72462 0.98777 0.0
C598 C 0.17929 0.74882 0.0127 0.0
C599 C 0.18613 0.69405 0.99119 0.0
C600 C 0.20678 0.68702 0.01942 0.0
C601 C 0.21246 0.71063 0.04517 0.0
C602 C 0.19891 0.74127 0.0418 0.0
C603 C 0.22246 0.65503 0.02167 0.0
C604 C 0.21719 0.6361 0.05183 0.0
C605 C 0.24043 0.64223 0.99309 0.0
C606 C 0.24874 0.66185 0.96151 0.0
C607 C 0.26389 0.69193 0.96529 0.0
C608 C 0.27134 0.71043 0.93551 0.0
C609 C 0.26399 0.699 0.90176 0.0
C610 C 0.24917 0.66907 0.89771 0.0
C611 C 0.2416 0.65051 0.9274 0.0
H612 H 0.26985 0.71328 0.87871 0.0
H613 H 0.19677 0.53349 0.16729 0.0
H614 H 0.26001 0.18182 0.51326 0.0
H615 H 0.31621 0.19816 0.51666 0.0
H616 H 0.32976 0.17279 0.40717 0.0
H617 H 0.27279 0.15721 0.40323 0.0
H618 H 0.38353 0.1562 0.46009 0.0
H619 H 0.32241 0.24372 0.41401 0.0
H620 H 0.27481 0.27897 0.41092 0.0
H621 H 0.29305 0.31224 0.51645 0.0
H622 H 0.34039 0.27666 0.52031 0.0
H623 H 0.53009 0.24715 0.4826 0.0
H624 H 0.48042 0.22886 0.45361 0.0
H625 H 0.42598 0.25574 0.54622 0.0
H626 H 0.47514 0.27408 0.57485 0.0
H627 H 0.39529 0.27288 0.4852 0.0
H628 H 0.44983 0.17926 0.5343 0.0
H629 H 0.49533 0.14158 0.53985 0.0
H630 H 0.48901 0.11924 0.42928 0.0
H631 H 0.4437 0.15715 0.42301 0.0
C632 C 0.27498 0.17942 0.48996 0.0
C633 C 0.26187 0.16871 0.45787 0.0
C634 C 0.30708 0.18862 0.49198 0.0
C635 C 0.32688 0.1871 0.46203 0.0
C636 C 0.3147 0.17422 0.4305 0.0
C637 C 0.28226 0.16519 0.42836 0.0
C638 C 0.35924 0.20178 0.46369 0.0
C639 C 0.38636 0.18183 0.46457 0.0
C640 C 0.36269 0.23516 0.46988 0.0
C641 C 0.33481 0.25736 0.46747 0.0
C642 C 0.31612 0.25841 0.43659 0.0
C643 C 0.2892 0.27845 0.4347 0.0
C644 C 0.28088 0.29781 0.4635 0.0
C645 C 0.29953 0.29723 0.49416 0.0
C646 C 0.32644 0.27715 0.49619 0.0
C647 C 0.50739 0.24958 0.49639 0.0
C648 C 0.50642 0.26173 0.53106 0.0
C649 C 0.47913 0.23898 0.47995 0.0
C650 C 0.44956 0.24071 0.4979 0.0
C651 C 0.44851 0.25415 0.53188 0.0
C652 C 0.47663 0.2644 0.54834 0.0
C653 C 0.41965 0.22719 0.48264 0.0
C654 C 0.39282 0.24742 0.47945 0.0
C655 C 0.41656 0.1941 0.47429 0.0
C656 C 0.44371 0.17133 0.47809 0.0
C657 C 0.45834 0.16652 0.51112 0.0
C658 C 0.48405 0.14509 0.51441 0.0
C659 C 0.49513 0.12812 0.48491 0.0
C660 C 0.48046 0.13247 0.45208 0.0
C661 C 0.45477 0.15392 0.44864 0.0
H662 H 0.51503 0.11152 0.48751 0.0
H663 H 0.26001 0.31329 0.46203 0.0
H664 H 0.62825 0.56883 0.05289 0.0
H665 H 0.58322 0.53113 0.05478 0.0
H666 H 0.55499 0.56061 0.95007 0.0
H667 H 0.59923 0.59936 0.94869 0.0
H668 H 0.50388 0.5546 0.98691 0.0
H669 H 0.59546 0.48682 0.96912 0.0
H670 H 0.64941 0.46531 0.98208 0.0
H671 H 0.61652 0.43252 0.08349 0.0
H672 H 0.5625 0.45431 0.07138 0.0
H673 H 0.43477 0.37854 0.98079 0.0
H674 H 0.4796 0.41634 0.97673 0.0
H675 H 0.42744 0.48408 0.04148 0.0
H676 H 0.38208 0.44674 0.04472 0.0
H677 H 0.51924 0.4406 0.0216 0.0
H678 H 0.44803 0.56044 0.02172 0.0
H679 H 0.3952 0.58099 1.00269 0.0
H680 H 0.3894 0.50672 0.92405 0.0
H681 H 0.44235 0.48599 0.94231 0.0
C682 C 0.61256 0.56721 0.03017 0.0
C683 C 0.6175 0.58711 1.00057 0.0
C684 C 0.58679 0.54547 0.03122 0.0
C685 C 0.56573 0.54246 1.00235 0.0
C686 C 0.57071 0.56234 0.97275 0.0
C687 C 0.59617 0.58445 0.97192 0.0
C688 C 0.53841 0.51892 1.00308 0.0
C689 C 0.50734 0.52969 0.99451 0.0
C690 C 0.54268 0.48613 0.01236 0.0
C691 C 0.57498 0.47244 0.01945 0.0
C692 C 0.59977 0.47516 0.99425 0.0
C693 C 0.63037 0.46292 1.00145 0.0
C694 C 0.6364 0.44762 0.03361 0.0
C695 C 0.61182 0.44441 0.0586 0.0
C696 C 0.5812 0.45668 0.05158 0.0
C697 C 0.43269 0.40156 0.99402 0.0
C698 C 0.40461 0.40959 0.01291 0.0
C699 C 0.45851 0.42316 0.99181 0.0
C700 C 0.45703 0.45337 0.00847 0.0
C701 C 0.42912 0.46129 0.02773 0.0
C702 C 0.40315 0.4398 0.02968 0.0
C703 C 0.48469 0.47638 1.00578 0.0
C704 C 0.51581 0.46552 0.01402 0.0
C705 C 0.48063 0.50886 0.99525 0.0
C706 C 0.44901 0.52149 0.98365 0.0
C707 C 0.43554 0.54859 1.00027 0.0
C708 C 0.40556 0.56025 0.98964 0.0
C709 C 0.3889 0.5451 0.96226 0.0
C710 C 0.40226 0.51835 0.94535 0.0
C711 C 0.43224 0.50663 0.95585 0.0
H712 H 0.36568 0.55413 0.95412 0.0
H713 H 0.66012 0.4382 0.03915 0.0
H714 H 0.62431 0.44084 0.53036 0.0
H715 H 0.5856 0.48501 0.52942 0.0
H716 H 0.50752 0.41702 0.53484 0.0
H717 H 0.54625 0.37242 0.53624 0.0
H718 H 0.49914 0.46772 0.48344 0.0
H719 H 0.52542 0.45482 0.60652 0.0
H720 H 0.56221 0.45029 0.65724 0.0
H721 H 0.60019 0.54418 0.63484 0.0
H722 H 0.56393 0.54907 0.58364 0.0
H723 H 0.37525 0.57995 0.52031 0.0
H724 H 0.41236 0.53453 0.51988 0.0
H725 H 0.49109 0.59875 0.54301 0.0
H726 H 0.45359 0.6441 0.5453 0.0
H727 H 0.49913 0.54868 0.57982 0.0
H728 H 0.47583 0.56284 0.45711 0.0
H729 H 0.44188 0.56855 0.40417 0.0
H730 H 0.40189 0.47472 0.42223 0.0
H731 H 0.43532 0.46862 0.47557 0.0
C732 C 0.59892 0.43514 0.53118 0.0
C733 C 0.58845 0.40298 0.53342 0.0
C734 C 0.5768 0.46051 0.53077 0.0
C735 C 0.54364 0.45439 0.53229 0.0
C736 C 0.533 0.42232 0.53369 0.0
C737 C 0.55517 0.39686 0.53458 0.0
C738 C 0.52029 0.48161 0.53292 0.0
C739 C 0.49876 0.48521 0.50473 0.0
C740 C 0.52051 0.505 0.56013 0.0
C741 C 0.54217 0.50218 0.59104 0.0
C742 C 0.5418 0.47439 0.61223 0.0
C743 C 0.56253 0.47178 0.6411 0.0
C744 C 0.58358 0.49689 0.64921 0.0
C745 C 0.5839 0.52472 0.62851 0.0
C746 C 0.56324 0.52744 0.59958 0.0
C747 C 0.40051 0.58447 0.52508 0.0
C748 C 0.41144 0.61576 0.53261 0.0
C749 C 0.42184 0.5584 0.52464 0.0
C750 C 0.45487 0.56301 0.53068 0.0
C751 C 0.46582 0.59434 0.53818 0.0
C752 C 0.44435 0.62035 0.53936 0.0
C753 C 0.47779 0.53516 0.53011 0.0
C754 C 0.49933 0.53134 0.55838 0.0
C755 C 0.47793 0.51185 0.50263 0.0
C756 C 0.45785 0.51541 0.47053 0.0
C757 C 0.45963 0.54352 0.44993 0.0
C758 C 0.44051 0.54681 0.41983 0.0
C759 C 0.41968 0.52205 0.4099 0.0
C760 C 0.418 0.4939 0.42999 0.0
C761 C 0.43705 0.4905 0.46014 0.0
H762 H 0.40489 0.52465 0.38658 0.0
H763 H 0.59961 0.49482 0.67157 0.0
H764 H 0.13445 0.96257 0.00876 0.0
H765 H 0.08975 1.00144 0.00797 0.0
H766 H 0.02202 0.92379 0.02061 0.0
H767 H 0.06609 0.88521 0.02205 0.0
H768 H 0.00536 0.96807 0.96645 0.0
H769 H 0.03935 0.96718 0.08863 0.0
H770 H 0.0783 0.97386 0.13705 0.0
H771 H 0.09214 0.07274 0.10804 0.0
H772 H 0.05394 0.06642 0.05877 0.0
H773 H 0.86009 0.0509 1.00437 0.0
H774 H 0.90638 0.01443 1.00504 0.0
H775 H 0.9696 0.09519 0.02275 0.0
H776 H 0.9234 0.13119 0.02409 0.0
H777 H 0.99063 0.05045 0.0599 0.0
H778 H 0.9594 0.05404 0.93845 0.0
H779 H 0.92279 0.04966 0.88753 0.0
H780 H 0.90663 0.9499 0.91108 0.0
H781 H 0.94285 0.95379 0.96243 0.0
C782 C 0.11003 0.95385 0.01146 0.0
C783 C 0.10393 0.92076 0.01569 0.0
C784 C 0.08452 0.97607 0.01103 0.0
C785 C 0.05248 0.96552 0.01425 0.0
C786 C 0.04645 0.93252 0.01802 0.0
C787 C 0.0718 0.91048 0.01905 0.0
C788 C 0.02497 0.98854 0.01395 0.0
C789 C 1.00198 0.98597 0.987 0.0
C790 C 0.02098 0.01246 0.0402 0.0
C791 C 0.04411 0.01619 0.0697 0.0
C792 C 0.05102 0.99023 0.09226 0.0
C793 C 0.07296 0.99396 0.11988 0.0
C794 C 0.08787 0.02365 0.12546 0.0
C795 C 0.08079 0.0497 0.1035 0.0
C796 C 0.05901 0.04604 0.07571 0.0
C797 C 0.88387 0.06079 0.00853 0.0
C798 C 0.888 0.09396 0.01421 0.0
C799 C 0.91046 0.03995 0.00863 0.0
C800 C 0.94189 0.05193 0.01326 0.0
C801 C 0.94583 0.08508 0.01917 0.0
C802 C 0.91927 0.10575 0.01988 0.0
C803 C 0.97068 0.03017 0.01226 0.0
C804 C 0.99396 0.03284 0.03905 0.0
C805 C 0.9753 0.00676 0.9854 0.0
C806 C 0.95359 0.0043 0.95448 0.0
C807 C 0.94787 0.03122 0.93291 0.0
C808 C 0.92721 0.02882 0.90395 0.0
C809 C 0.91233 0.99954 0.89613 0.0
C810 C 0.91814 0.97258 0.9172 0.0
C811 C 0.93876 0.97486 0.94621 0.0
H812 H 0.89634 0.99773 0.8737 0.0
H813 H 0.10479 0.02652 0.14691 0.0
H814 H 0.88257 0.93923 0.48318 0.0
H815 H 0.92213 0.98245 0.48573 0.0
H816 H 0.99867 0.91266 0.48851 0.0
H817 H 0.95898 0.86884 0.48554 0.0
H818 H 0.00492 0.96496 0.53887 0.0
H819 H 0.98701 0.94898 0.41464 0.0
H820 H 0.95397 0.94312 0.36103 0.0
H821 H 0.91517 0.03777 0.3769 0.0
H822 H 0.94763 0.044 0.43094 0.0
H823 H 0.13118 0.07644 0.50702 0.0
H824 H 0.09406 0.03103 0.50628 0.0
H825 H 0.01629 0.09489 0.47891 0.0
H826 H 0.05368 0.14039 0.4784 0.0
H827 H 0.01152 0.04383 0.44074 0.0
H828 H 0.02638 0.06072 0.56451 0.0
H829 H 0.0566 0.06776 0.61994 0.0
H830 H 0.09779 0.97368 0.60774 0.0
H831 H 0.06813 0.96624 0.55195 0.0
C832 C 0.90778 0.93289 0.48448 0.0
C833 C 0.91752 0.90044 0.48409 0.0
C834 C 0.93041 0.95774 0.48582 0.0
C835 C 0.9634 0.95087 0.48707 0.0
C836 C 0.97333 0.91853 0.48751 0.0
C837 C 0.95063 0.89352 0.4857 0.0
C838 C 0.98723 0.97769 0.4874 0.0
C839 C 0.0068 0.98193 0.51719 0.0
C840 C 0.98894 1.00044 0.45963 0.0
C841 C 0.96954 0.99683 0.42702 0.0
C842 C 0.97123 0.96844 0.40687 0.0
C843 C 0.95265 0.96507 0.37637 0.0
C844 C 0.93243 0.99003 0.36561 0.0
C845 C 0.93081 0.01844 0.38528 0.0
C846 C 0.94932 0.02192 0.41583 0.0
C847 C 0.10613 0.08095 0.50108 0.0
C848 C 0.09546 0.11221 0.49293 0.0
C849 C 0.08481 0.05486 0.50083 0.0
C850 C 0.05209 0.05936 0.49308 0.0
C851 C 0.04135 0.09062 0.48502 0.0
C852 C 0.06277 0.11671 0.48486 0.0
C853 C 0.02933 0.03142 0.4924 0.0
C854 C 0.00986 0.02692 0.46249 0.0
C855 C 0.02742 0.00869 0.52032 0.0
C856 C 0.04529 0.01307 0.55386 0.0
C857 C 0.04208 0.04163 0.5735 0.0
C858 C 0.05907 0.04568 0.60501 0.0
C859 C 0.07917 0.02122 0.6173 0.0
C860 C 0.08225 0.99262 0.59815 0.0
C861 C 0.06534 0.98847 0.5666 0.0
H862 H 0.0923 0.02439 0.64171 0.0
H863 H 0.91806 0.98737 0.34198 0.0
H864 H 0.23186 0.31929 0.10039 0.0
H865 H 0.20777 0.29994 0.15525 0.0
H866 H 0.27723 0.35403 0.21535 0.0
H867 H 0.30184 0.37325 0.16026 0.0
H868 H 0.2713 0.29341 0.24023 0.0
H869 H 0.19903 0.37871 0.20997 0.0
H870 H 0.16262 0.40948 0.17136 0.0
H871 H 0.1008 0.32721 0.16186 0.0
H872 H 0.13709 0.29579 0.20003 0.0
H873 H 0.19636 0.27673 0.4067 0.0
H874 H 0.21716 0.29954 0.35188 0.0
H875 H 0.15139 0.24089 0.29195 0.0
H876 H 0.13029 0.21775 0.34708 0.0
H877 H 0.15498 0.30407 0.26721 0.0
H878 H 0.22695 0.21871 0.29673 0.0
H879 H 0.26316 0.18737 0.33501 0.0
H880 H 0.32534 0.26923 0.3456 0.0
H881 H 0.28918 0.30129 0.30789 0.0
C882 C 0.24188 0.32735 0.12526 0.0
C883 C 0.26871 0.34794 0.12596 0.0
C884 C 0.22799 0.31632 0.15665 0.0
C885 C 0.24045 0.32575 0.1895 0.0
C886 C 0.26715 0.34647 0.19032 0.0
C887 C 0.28109 0.35757 0.15884 0.0
C888 C 0.22615 0.31312 0.22284 0.0
C889 C 0.24597 0.29623 0.24639 0.0
C890 C 0.19289 0.31593 0.23045 0.0
C891 C 0.17094 0.33481 0.2076 0.0
C892 C 0.1778 0.3671 0.19943 0.0
C893 C 0.15716 0.38468 0.17766 0.0
C894 C 0.12946 0.37029 0.1641 0.0
C895 C 0.12229 0.33832 0.17235 0.0
C896 C 0.14287 0.32062 0.19408 0.0
C897 C 0.18608 0.26878 0.38192 0.0
C898 C 0.16166 0.24537 0.38123 0.0
C899 C 0.19813 0.28179 0.35057 0.0
C900 C 0.18607 0.2717 0.3178 0.0
C901 C 0.16106 0.24897 0.31698 0.0
C902 C 0.14908 0.23573 0.34845 0.0
C903 C 0.20016 0.28454 0.28454 0.0
C904 C 0.18031 0.30138 0.26104 0.0
C905 C 0.23338 0.28165 0.27693 0.0
C906 C 0.25521 0.26248 0.29968 0.0
C907 C 0.24819 0.23013 0.30747 0.0
C908 C 0.26873 0.21222 0.32902 0.0
C909 C 0.29654 0.22629 0.34266 0.0
C910 C 0.30381 0.25835 0.33493 0.0
C911 C 0.2833 0.27641 0.31348 0.0
H912 H 0.31251 0.21231 0.3591 0.0
H913 H 0.11351 0.38394 0.14725 0.0
H914 H 0.74339 0.21091 0.92079 0.0
H915 H 0.72175 0.23185 0.86565 0.0
H916 H 0.75973 0.14973 0.80957 0.0
H917 H 0.78287 0.12934 0.86489 0.0
H918 H 0.76676 0.20049 0.76999 0.0
H919 H 0.67803 0.15629 0.83345 0.0
H920 H 0.64206 0.14745 0.88443 0.0
H921 H 0.61612 0.24744 0.8841 0.0
H922 H 0.65229 0.25697 0.83339 0.0
H923 H 0.66936 0.22516 0.6191 0.0
H924 H 0.69059 0.20181 0.67342 0.0
H925 H 0.66668 0.28866 0.73011 0.0
H926 H 0.6447 0.31202 0.67578 0.0
H927 H 0.6521 0.2335 0.76794 0.0
H928 H 0.74201 0.27503 0.70041 0.0
H929 H 0.77128 0.27841 0.64377 0.0
H930 H 0.79199 0.17734 0.64868 0.0
H931 H 0.76187 0.17311 0.70475 0.0
C932 C 0.74715 0.19725 0.89673 0.0
C933 C 0.76448 0.16825 0.89723 0.0
C934 C 0.73464 0.20922 0.86517 0.0
C935 C 0.73833 0.19203 0.83342 0.0
C936 C 0.75636 0.16339 0.83368 0.0
C937 C 0.76946 0.15167 0.8653 0.0
C938 C 0.7229 0.20389 0.80032 0.0
C939 C 0.74161 0.20734 0.76953 0.0
C940 C 0.69004 0.21305 0.79946 0.0
C941 C 0.66809 0.20739 0.82981 0.0
C942 C 0.66481 0.17643 0.84439 0.0
C943 C 0.64437 0.1713 0.87322 0.0
C944 C 0.62688 0.19688 0.88755 0.0
C945 C 0.62972 0.22765 0.873 0.0
C946 C 0.65016 0.23293 0.84419 0.0
C947 C 0.66845 0.23928 0.64314 0.0
C948 C 0.65557 0.27056 0.6431 0.0
C949 C 0.68065 0.22589 0.67418 0.0
C950 C 0.68069 0.24366 0.70573 0.0
C951 C 0.66699 0.27456 0.70603 0.0
C952 C 0.65455 0.28792 0.67496 0.0
C953 C 0.69603 0.23044 0.73807 0.0
C954 C 0.67728 0.22671 0.76861 0.0
C955 C 0.72862 0.22053 0.73845 0.0
C956 C 0.74939 0.22369 0.70664 0.0
C957 C 0.75279 0.25351 0.68942 0.0
C958 C 0.76935 0.25554 0.6573 0.0
C959 C 0.78323 0.22805 0.64251 0.0
C960 C 0.78104 0.19857 0.66008 0.0
C961 C 0.76418 0.19633 0.69202 0.0
H962 H 0.79584 0.22963 0.61751 0.0
H963 H 0.61107 0.19286 0.90987 0.0
H964 H 0.86859 0.80501 0.34173 0.0
H965 H 0.84743 0.78247 0.28672 0.0
H966 H 0.79479 0.71126 0.3463 0.0
H967 H 0.81651 0.73318 0.40122 0.0
H968 H 0.82112 0.68384 0.29111 0.0
H969 H 0.75791 0.77858 0.30955 0.0
H970 H 0.7481 0.83625 0.32039 0.0
H971 H 0.79624 0.86002 0.22334 0.0
H972 H 0.80677 0.80248 0.21218 0.0
H973 H 0.71467 0.63571 0.15275 0.0
H974 H 0.73721 0.65716 0.20769 0.0
H975 H 0.79612 0.72287 0.14766 0.0
H976 H 0.77363 0.70166 0.09272 0.0
H977 H 0.76644 0.75288 0.20289 0.0
H978 H 0.82883 0.65672 0.18508 0.0
H979 H 0.83699 0.59867 0.17498 0.0
H980 H 0.78775 0.57728 0.27203 0.0
H981 H 0.77889 0.63522 0.28246 0.0
C982 C 0.85251 0.78455 0.34309 0.0
C983 C 0.84419 0.77093 0.37584 0.0
C984 C 0.84029 0.77175 0.31161 0.0
C985 C 0.81912 0.74536 0.31227 0.0
C986 C 0.81105 0.73159 0.345 0.0
C987 C 0.82344 0.74422 0.37643 0.0
C988 C 0.80547 0.73198 0.27893 0.0
C989 C 0.8088 0.69892 0.27207 0.0
C990 C 0.78983 0.75162 0.25365 0.0
C991 C 0.78342 0.78624 0.26021 0.0
C992 C 0.76663 0.79612 0.29065 0.0
C993 C 0.7609 0.82878 0.29684 0.0
C994 C 0.77162 0.85179 0.27262 0.0
C995 C 0.788 0.84217 0.24211 0.0
C996 C 0.79384 0.80954 0.23583 0.0
C997 C 0.73255 0.6546 0.15125 0.0
C998 C 0.74248 0.66686 0.11836 0.0
C999 C 0.74548 0.6668 0.18268 0.0
C1000 C 0.76856 0.69149 0.18184 0.0
C1001 C 0.77839 0.70382 0.149 0.0
C1002 C 0.76561 0.69153 0.1176 0.0
C1003 C 0.78216 0.70483 0.21514 0.0
C1004 C 0.77879 0.73787 0.22197 0.0
C1005 C 0.79749 0.68512 0.24052 0.0
C1006 C 0.80293 0.65029 0.23437 0.0
C1007 C 0.81952 0.63963 0.20412 0.0
C1008 C 0.82431 0.60675 0.19837 0.0
C1009 C 0.81283 0.5843 0.2228 0.0
C1010 C 0.7966 0.5947 0.2531 0.0
C1011 C 0.79171 0.62755 0.25896 0.0
H1012 H 0.81656 0.55886 0.2183 0.0
H1013 H 0.76716 0.87707 0.27745 0.0
H1014 H 0.25106 0.79739 0.93384 0.0
H1015 H 0.2727 0.77364 0.87976 0.0
H1016 H 0.22442 0.84617 0.81794 0.0
H1017 H 0.20151 0.86913 0.87211 0.0
H1018 H 0.22109 0.79259 0.78429 0.0
H1019 H 0.3087 0.84886 0.84001 0.0
H1020 H 0.34525 0.86226 0.8891 0.0
H1021 H 0.37797 0.76433 0.89247 0.0
H1022 H 0.34133 0.75028 0.84365 0.0
H1023 H 0.31404 0.78058 0.62816 0.0
H1024 H 0.28983 0.79896 0.6834 0.0
H1025 H 0.3333 0.71935 0.73858 0.0
H1026 H 0.35824 0.70115 0.68327 0.0
H1027 H 0.33861 0.77366 0.77606 0.0
H1028 H 0.25258 0.71953 0.71522 0.0
H1029 H 0.21629 0.70863 0.66512 0.0
H1030 H 0.18097 0.80557 0.67002 0.0
H1031 H 0.21735 0.81722 0.71974 0.0
C1032 C 0.24494 0.80817 0.90868 0.0
C1033 C 0.22484 0.83529 0.90717 0.0
C1034 C 0.25745 0.79465 0.87774 0.0
C1035 C 0.2509 0.80848 0.84463 0.0
C1036 C 0.23001 0.83506 0.84307 0.0
C1037 C 0.21695 0.84823 0.87404 0.0
C1038 C 0.26626 0.79568 0.81179 0.0
C1039 C 0.24684 0.78882 0.78241 0.0
C1040 C 0.29981 0.79 0.80935 0.0
C1041 C 0.32213 0.79849 0.83838 0.0
C1042 C 0.3236 0.83017 0.85134 0.0
C1043 C 0.34433 0.83787 0.8791 0.0
C1044 C 0.36388 0.81415 0.89393 0.0
C1045 C 0.3628 0.78268 0.88097 0.0
C1046 C 0.3421 0.77484 0.85322 0.0
C1047 C 0.31859 0.76702 0.65206 0.0
C1048 C 0.33803 0.73935 0.65133 0.0
C1049 C 0.30452 0.77745 0.68362 0.0
C1050 C 0.3092 0.76022 0.71511 0.0
C1051 C 0.32919 0.73296 0.71461 0.0
C1052 C 0.34345 0.72258 0.683 0.0
C1053 C 0.29348 0.77091 0.74852 0.0
C1054 C 0.31284 0.77731 0.77801 0.0
C1055 C 0.25993 0.77647 0.75089 0.0
C1056 C 0.23787 0.76931 0.7211 0.0
C1057 C 0.23723 0.73858 0.70547 0.0
C1058 C 0.21662 0.73226 0.67715 0.0
C1059 C 0.19638 0.75641 0.66441 0.0
C1060 C 0.19667 0.7869 0.67993 0.0
C1061 C 0.21725 0.79336 0.7082 0.0
H1062 H 0.18039 0.75155 0.64258 0.0
H1063 H 0.37989 0.82015 0.91544 0.0
H1064 H 0.71437 0.71638 0.87545 0.0
H1065 H 0.73419 0.73156 0.81687 0.0
H1066 H 0.78493 0.64137 0.80901 0.0
H1067 H 0.76528 0.6261 0.86786 0.0
H1068 H 0.82321 0.69344 0.79263 0.0
H1069 H 0.7191 0.6541 0.76085 0.0
H1070 H 0.66003 0.64996 0.76299 0.0
H1071 H 0.65171 0.74927 0.73321 0.0
H1072 H 0.71075 0.7542 0.73152 0.0
H1073 H 0.87172 0.71482 0.61393 0.0
H1074 H 0.84894 0.69423 0.66899 0.0
H1075 H 0.78743 0.77753 0.67629 0.0
H1076 H 0.80892 0.79747 0.62035 0.0
H1077 H 0.75434 0.72624 0.69214 0.0
H1078 H 0.85655 0.7679 0.72833 0.0
H1079 H 0.91548 0.77418 0.72691 0.0
H1080 H 0.92711 0.67362 0.74939 0.0
H1081 H 0.86821 0.66664 0.75048 0.0
C1082 C 0.72956 0.69966 0.86113 0.0
C1083 C 0.73827 0.67003 0.87632 0.0
C1084 C 0.74072 0.7083 0.82756 0.0
C1085 C 0.76094 0.68756 0.80842 0.0
C1086 C 0.76929 0.65772 0.82325 0.0
C1087 C 0.75786 0.64892 0.85676 0.0
C1088 C 0.77462 0.69781 0.77382 0.0
C1089 C 0.80816 0.70011 0.77044 0.0
C1090 C 0.75498 0.70746 0.74521 0.0
C1091 C 0.71942 0.70461 0.7465 0.0
C1092 C 0.7047 0.67517 0.75516 0.0
C1093 C 0.67121 0.67266 0.75622 0.0
C1094 C 0.65213 0.69936 0.74837 0.0
C1095 C 0.66651 0.72862 0.73937 0.0
C1096 C 0.7 0.73128 0.73836 0.0
C1097 C 0.85323 0.72873 0.62712 0.0
C1098 C 0.84235 0.75795 0.61266 0.0
C1099 C 0.84043 0.71706 0.65887 0.0
C1100 C 0.81672 0.7345 0.67719 0.0
C1101 C 0.80578 0.76365 0.66282 0.0
C1102 C 0.81843 0.77524 0.63097 0.0
C1103 C 0.80295 0.7222 0.71103 0.0
C1104 C 0.76941 0.71951 0.71428 0.0
C1105 C 0.82256 0.71256 0.7397 0.0
C1106 C 0.85798 0.71669 0.73911 0.0
C1107 C 0.87168 0.74707 0.73269 0.0
C1108 C 0.90507 0.75077 0.732 0.0
C1109 C 0.92503 0.7243 0.73795 0.0
C1110 C 0.91162 0.69409 0.74472 0.0
C1111 C 0.87823 0.69025 0.74541 0.0
H1112 H 0.95087 0.72721 0.73741 0.0
H1113 H 0.6262 0.69736 0.74916 0.0
H1114 H 0.28615 0.7462 0.41892 0.0
H1115 H 0.27026 0.76521 0.36045 0.0
H1116 H 0.36997 0.77356 0.33042 0.0
H1117 H 0.38611 0.75469 0.38931 0.0
H1118 H 0.33354 0.82811 0.31352 0.0
H1119 H 0.32635 0.7136 0.29734 0.0
H1120 H 0.30886 0.65857 0.31234 0.0
H1121 H 0.21011 0.68713 0.30259 0.0
H1122 H 0.22699 0.74245 0.28801 0.0
H1123 H 0.29948 0.86278 0.13381 0.0
H1124 H 0.31992 0.84075 0.18884 0.0
H1125 H 0.22413 0.811 0.21805 0.0
H1126 H 0.20392 0.83024 0.16165 0.0
H1127 H 0.26169 0.76587 0.23453 0.0
H1128 H 0.26615 0.87971 0.25506 0.0
H1129 H 0.28106 0.93604 0.24277 0.0
H1130 H 0.38108 0.91103 0.24758 0.0
H1131 H 0.36676 0.85444 0.25947 0.0
C1132 C 0.30474 0.75201 0.39987 0.0
C1133 C 0.33742 0.74901 0.4088 0.0
C1134 C 0.2956 0.7627 0.36636 0.0
C1135 C 0.3189 0.77067 0.34094 0.0
C1136 C 0.35158 0.76749 0.34961 0.0
C1137 C 0.36077 0.75649 0.38314 0.0
C1138 C 0.3089 0.78316 0.30577 0.0
C1139 C 0.31827 0.81433 0.29591 0.0
C1140 C 0.28814 0.76558 0.28334 0.0
C1141 C 0.27795 0.73224 0.29185 0.0
C1142 C 0.3009 0.70821 0.29864 0.0
C1143 C 0.29109 0.67695 0.30703 0.0
C1144 C 0.25839 0.66937 0.30849 0.0
C1145 C 0.23543 0.69303 0.30147 0.0
C1146 C 0.2451 0.72433 0.2931 0.0
C1147 C 0.28267 0.85124 0.1516 0.0
C1148 C 0.24987 0.84842 0.1428 0.0
C1149 C 0.29441 0.83906 0.18356 0.0
C1150 C 0.27359 0.82456 0.20816 0.0
C1151 C 0.24081 0.82209 0.19971 0.0
C1152 C 0.22915 0.83365 0.16746 0.0
C1153 C 0.28595 0.81118 0.24222 0.0
C1154 C 0.27705 0.77975 0.25193 0.0
C1155 C 0.3067 0.82877 0.26481 0.0
C1156 C 0.31537 0.86279 0.25779 0.0
C1157 C 0.29132 0.88618 0.25325 0.0
C1158 C 0.29967 0.91816 0.2464 0.0
C1159 C 0.332 0.92709 0.2443 0.0
C1160 C 0.35605 0.90407 0.24916 0.0
C1161 C 0.34783 0.87205 0.25599 0.0
H1162 H 0.33841 0.95186 0.23898 0.0
H1163 H 0.25085 0.64516 0.31499 0.0
H1164 H 0.17685 0.19547 0.64378 0.0
H1165 H 0.19707 0.21334 0.70139 0.0
H1166 H 0.19327 0.312 0.66627 0.0
H1167 H 0.17332 0.2943 0.60886 0.0
H1168 H 0.24937 0.30032 0.69602 0.0
H1169 H 0.13911 0.28157 0.72682 0.0
H1170 H 0.08881 0.25047 0.73154 0.0
H1171 H 0.13642 0.18019 0.79597 0.0
H1172 H 0.18715 0.21066 0.79122 0.0
H1173 H 0.27405 0.37504 0.86473 0.0
H1174 H 0.25338 0.35744 0.80726 0.0
H1175 H 0.2598 0.25848 0.84072 0.0
H1176 H 0.28055 0.27583 0.89793 0.0
H1177 H 0.20222 0.27054 0.81196 0.0
H1178 H 0.3126 0.2897 0.78078 0.0
H1179 H 0.36259 0.32132 0.77615 0.0
H1180 H 0.31411 0.39157 0.71246 0.0
H1181 H 0.26369 0.36057 0.71712 0.0
C1182 C 0.17983 0.22098 0.64862 0.0
C1183 C 0.17372 0.24343 0.62169 0.0
C1184 C 0.19144 0.2312 0.68152 0.0
C1185 C 0.19674 0.26408 0.68823 0.0
C1186 C 0.18968 0.28652 0.66169 0.0
C1187 C 0.17825 0.27635 0.62887 0.0
C1188 C 0.21082 0.27516 0.72229 0.0
C1189 C 0.23877 0.29415 0.72135 0.0
C1190 C 0.19749 0.26659 0.75543 0.0
C1191 C 0.16701 0.24823 0.75835 0.0
C1192 C 0.13892 0.25935 0.74175 0.0
C1193 C 0.11032 0.24186 0.74448 0.0
C1194 C 0.10944 0.21333 0.76396 0.0
C1195 C 0.13715 0.20227 0.78084 0.0
C1196 C 0.16583 0.21965 0.77816 0.0
C1197 C 0.27163 0.34952 0.85957 0.0
C1198 C 0.2788 0.32686 0.88599 0.0
C1199 C 0.25969 0.33948 0.82676 0.0
C1200 C 0.25496 0.30659 0.81965 0.0
C1201 C 0.26296 0.28396 0.84566 0.0
C1202 C 0.27484 0.29394 0.87836 0.0
C1203 C 0.24074 0.29567 0.78564 0.0
C1204 C 0.21277 0.2767 0.7866 0.0
C1205 C 0.25399 0.30434 0.75252 0.0
C1206 C 0.28429 0.32298 0.74961 0.0
C1207 C 0.31253 0.31202 0.76603 0.0
C1208 C 0.34096 0.32981 0.76335 0.0
C1209 C 0.3415 0.35848 0.7441 0.0
C1210 C 0.31364 0.36938 0.72741 0.0
C1211 C 0.28514 0.3517 0.73004 0.0
H1212 H 0.36353 0.37222 0.74206 0.0
H1213 H 0.08727 0.19982 0.76605 0.0
H1214 H 0.79681 0.15855 0.1655 0.0
H1215 H 0.77738 0.17437 0.22424 0.0
H1216 H 0.68496 0.19798 0.1801 0.0
H1217 H 0.70358 0.18123 0.12183 0.0
H1218 H 0.71134 0.24715 0.2225 0.0
H1219 H 0.69182 0.13228 0.22727 0.0
H1220 H 0.70792 0.07527 0.22352 0.0
H1221 H 0.77631 0.08963 0.30684 0.0
H1222 H 0.76092 0.14686 0.31074 0.0
H1223 H 0.6197 0.27732 0.37627 0.0
H1224 H 0.63995 0.25707 0.3196 0.0
H1225 H 0.72036 0.21325 0.37311 0.0
H1226 H 0.69903 0.23195 0.42984 0.0
H1227 H 0.70276 0.17447 0.32598 0.0
H1228 H 0.72493 0.28712 0.32324 0.0
H1229 H 0.71332 0.34519 0.32734 0.0
H1230 H 0.64667 0.33734 0.24132 0.0
H1231 H 0.65756 0.27912 0.23701 0.0
C1232 C 0.77218 0.16656 0.16836 0.0
C1233 C 0.75194 0.16892 0.13869 0.0
C1234 C 0.76117 0.17576 0.20194 0.0
C1235 C 0.72977 0.18753 0.20647 0.0
C1236 C 0.70937 0.18928 0.17713 0.0
C1237 C 0.72019 0.17984 0.14374 0.0
C1238 C 0.71819 0.19888 0.24151 0.0
C1239 C 0.70911 0.23123 0.24509 0.0
C1240 C 0.71639 0.17836 0.27123 0.0
C1241 C 0.72545 0.14391 0.26905 0.0
C1242 C 0.71048 0.12334 0.24459 0.0
C1243 C 0.71944 0.09098 0.24248 0.0
C1244 C 0.74318 0.07886 0.26486 0.0
C1245 C 0.75795 0.09906 0.28948 0.0
C1246 C 0.7491 0.13145 0.29168 0.0
C1247 C 0.64164 0.26328 0.37578 0.0
C1248 C 0.65783 0.25618 0.40731 0.0
C1249 C 0.65338 0.25189 0.34339 0.0
C1250 C 0.68216 0.23411 0.34175 0.0
C1251 C 0.69815 0.22685 0.37345 0.0
C1252 C 0.686 0.23758 0.40588 0.0
C1253 C 0.69553 0.22293 0.30717 0.0
C1254 C 0.70503 0.19059 0.30359 0.0
C1255 C 0.69841 0.24368 0.27757 0.0
C1256 C 0.69184 0.2787 0.28004 0.0
C1257 C 0.70763 0.29774 0.30536 0.0
C1258 C 0.7012 0.33068 0.3077 0.0
C1259 C 0.67921 0.34493 0.28466 0.0
C1260 C 0.66367 0.32627 0.25918 0.0
C1261 C 0.66998 0.2933 0.25676 0.0
H1262 H 0.67427 0.37044 0.28651 0.0
H1263 H 0.75009 0.0538 0.26318 0.0
loop_
_geom_bond_atom_site_label_1
_geom_bond_atom_site_label_2
_geom_bond_distance
_geom_bond_site_symmetry_2
_ccdc_geom_bond_type
Co0 N4 2.148 . S
Co0 N10 2.128 . S
Co0 N20 2.194 1_554 S
Co0 O25 2.351 . S
Co0 O26 2.155 . S
Co0 O27 2.096 . S
C1 N4 1.301 . S
C1 N5 1.328 . S
C1 H6 0.930 . S
C2 C3 1.333 . S
C2 N4 1.317 . S
C2 H7 0.930 . S
C3 C2 1.333 . S
C3 N5 1.350 . S
C3 H29 0.931 . S
N4 Co0 2.148 . S
N4 C1 1.301 . S
N4 C2 1.317 . S
N5 C1 1.328 . S
N5 C3 1.350 . S
H6 C1 0.930 . S
H7 C2 0.930 . S
C8 O9 1.224 1_554 S
C8 O27 1.247 . S
O9 C8 1.224 1_556 S
N10 Co0 2.128 . S
N10 C11 1.355 . S
N10 C13 1.311 . S
C11 N10 1.355 . S
C11 C12 1.363 . S
C11 H23 0.929 . S
C12 C11 1.363 . S
C12 N14 1.375 . S
C12 H30 0.932 . S
C13 N10 1.311 . S
C13 N14 1.347 . S
C13 H24 0.929 . S
N14 C12 1.375 . S
N14 C13 1.347 . S
C15 C18 1.365 . S
C15 N20 1.328 . S
C15 H21 0.929 . S
C16 C17 1.362 . S
C16 C19 1.378 . S
C16 H31 0.929 . S
C17 C16 1.362 . S
C17 C18 1.366 . S
C18 C15 1.365 . S
C18 C17 1.366 . S
C18 H32 0.930 . S
C19 C16 1.378 . S
C19 N20 1.315 . S
C19 H22 0.930 . S
N20 Co0 2.194 1_556 S
N20 C15 1.328 . S
N20 C19 1.315 . S
H21 C15 0.929 . S
H22 C19 0.930 . S
H23 C11 0.929 . S
H24 C13 0.929 . S
O25 Co0 2.351 . S
O25 C28 1.244 . S
O26 Co0 2.155 . S
O26 C28 1.240 . S
O27 Co0 2.096 . S
O27 C8 1.247 . S
C28 O25 1.244 . S
C28 O26 1.240 . S
H29 C3 0.931 . S
H30 C12 0.932 . S
H31 C16 0.929 . S
H32 C18 0.930 . S
Co33 N37 2.148 . S
Co33 N43 2.128 . S
Co33 N53 2.194 . S
Co33 O58 2.351 . S
Co33 O59 2.155 . S
Co33 O60 2.096 . S
C34 N37 1.301 . S
C34 N38 1.328 . S
C34 H39 0.930 . S
C35 C36 1.333 . S
C35 N37 1.317 . S
C35 H40 0.930 . S
C36 C35 1.333 . S
C36 N38 1.350 . S
C36 H62 0.931 . S
N37 Co33 2.148 . S
N37 C34 1.301 . S
N37 C35 1.317 . S
N38 C34 1.328 . S
N38 C36 1.350 . S
H39 C34 0.930 . S
H40 C35 0.930 . S
C41 O42 1.224 . S
C41 O60 1.247 . S
O42 C41 1.224 . S
N43 Co33 2.128 . S
N43 C44 1.355 . S
N43 C46 1.311 . S
C44 N43 1.355 . S
C44 C45 1.363 . S
C44 H56 0.929 . S
C45 C44 1.363 . S
C45 N47 1.375 . S
C45 H63 0.931 . S
C46 N43 1.311 . S
C46 N47 1.347 . S
C46 H57 0.929 . S
N47 C45 1.375 . S
N47 C46 1.347 . S
C48 C51 1.365 . S
C48 N53 1.328 . S
C48 H54 0.929 . S
C49 C50 1.362 . S
C49 C52 1.378 . S
C49 H64 0.929 . S
C50 C49 1.362 . S
C50 C51 1.366 . S
C51 C48 1.365 . S
C51 C50 1.366 . S
C51 H65 0.930 . S
C52 C49 1.378 . S
C52 N53 1.315 . S
C52 H55 0.930 . S
N53 Co33 2.194 . S
N53 C48 1.328 . S
N53 C52 1.315 . S
H54 C48 0.929 . S
H55 C52 0.930 . S
H56 C44 0.929 . S
H57 C46 0.929 . S
O58 Co33 2.351 . S
O58 C61 1.244 . S
O59 Co33 2.155 . S
O59 C61 1.240 . S
O60 Co33 2.096 . S
O60 C41 1.247 . S
C61 O58 1.244 . S
C61 O59 1.240 . S
H62 C36 0.931 . S
H63 C45 0.931 . S
H64 C49 0.929 . S
H65 C51 0.930 . S
Co66 N70 2.148 . S
Co66 N76 2.128 . S
Co66 N86 2.194 1_554 S
Co66 O91 2.351 . S
Co66 O92 2.155 . S
Co66 O93 2.096 . S
C67 N70 1.301 . S
C67 N71 1.328 . S
C67 H72 0.930 . S
C68 C69 1.333 . S
C68 N70 1.317 . S
C68 H73 0.930 . S
C69 C68 1.333 . S
C69 N71 1.350 . S
C69 H95 0.931 . S
N70 Co66 2.148 . S
N70 C67 1.301 . S
N70 C68 1.317 . S
N71 C67 1.328 . S
N71 C69 1.350 . S
H72 C67 0.930 . S
H73 C68 0.930 . S
C74 O75 1.224 1_554 S
C74 O93 1.247 . S
O75 C74 1.224 1_556 S
N76 Co66 2.128 . S
N76 C77 1.355 . S
N76 C79 1.311 . S
C77 N76 1.355 . S
C77 C78 1.363 . S
C77 H89 0.929 . S
C78 C77 1.363 . S
C78 N80 1.375 . S
C78 H96 0.932 . S
C79 N76 1.311 . S
C79 N80 1.347 . S
C79 H90 0.929 . S
N80 C78 1.375 . S
N80 C79 1.347 . S
C81 C84 1.365 . S
C81 N86 1.328 . S
C81 H87 0.929 . S
C82 C83 1.362 . S
C82 C85 1.378 . S
C82 H97 0.929 . S
C83 C82 1.362 . S
C83 C84 1.366 . S
C84 C81 1.365 . S
C84 C83 1.366 . S
C84 H98 0.930 . S
C85 C82 1.378 . S
C85 N86 1.315 . S
C85 H88 0.930 . S
N86 Co66 2.194 1_556 S
N86 C81 1.328 . S
N86 C85 1.315 . S
H87 C81 0.929 . S
H88 C85 0.930 . S
H89 C77 0.929 . S
H90 C79 0.929 . S
O91 Co66 2.351 . S
O91 C94 1.244 . S
O92 Co66 2.155 . S
O92 C94 1.240 . S
O93 Co66 2.096 . S
O93 C74 1.247 . S
C94 O91 1.244 . S
C94 O92 1.240 . S
H95 C69 0.931 . S
H96 C78 0.932 . S
H97 C82 0.929 . S
H98 C84 0.930 . S
Co99 N103 2.148 . S
Co99 N109 2.128 . S
Co99 N119 2.194 . S
Co99 O124 2.351 . S
Co99 O125 2.155 . S
Co99 O126 2.096 . S
C100 N103 1.301 . S
C100 N104 1.328 . S
C100 H105 0.930 . S
C101 C102 1.333 . S
C101 N103 1.317 . S
C101 H106 0.930 . S
C102 C101 1.333 . S
C102 N104 1.350 . S
C102 H128 0.931 . S
N103 Co99 2.148 . S
N103 C100 1.301 . S
N103 C101 1.317 . S
N104 C100 1.328 . S
N104 C102 1.350 . S
H105 C100 0.930 . S
H106 C101 0.930 . S
C107 O108 1.224 . S
C107 O126 1.247 . S
O108 C107 1.224 . S
N109 Co99 2.128 . S
N109 C110 1.355 . S
N109 C112 1.311 . S
C110 N109 1.355 . S
C110 C111 1.363 . S
C110 H122 0.929 . S
C111 C110 1.363 . S
C111 N113 1.375 . S
C111 H129 0.931 . S
C112 N109 1.311 . S
C112 N113 1.347 . S
C112 H123 0.929 . S
N113 C111 1.375 . S
N113 C112 1.347 . S
C114 C117 1.365 . S
C114 N119 1.328 . S
C114 H120 0.929 . S
C115 C116 1.362 . S
C115 C118 1.378 . S
C115 H130 0.929 . S
C116 C115 1.362 . S
C116 C117 1.366 . S
C117 C114 1.365 . S
C117 C116 1.366 . S
C117 H131 0.930 . S
C118 C115 1.378 . S
C118 N119 1.315 . S
C118 H121 0.930 . S
N119 Co99 2.194 . S
N119 C114 1.328 . S
N119 C118 1.315 . S
H120 C114 0.929 . S
H121 C118 0.930 . S
H122 C110 0.929 . S
H123 C112 0.929 . S
O124 Co99 2.351 . S
O124 C127 1.244 . S
O125 Co99 2.155 . S
O125 C127 1.240 . S
O126 Co99 2.096 . S
O126 C107 1.247 . S
C127 O124 1.244 . S
C127 O125 1.240 . S
H128 C102 0.931 . S
H129 C111 0.931 . S
H130 C115 0.929 . S
H131 C117 0.930 . S
Co132 N136 2.148 . S
Co132 N142 2.128 . S
Co132 N152 2.194 1_556 S
Co132 O157 2.351 . S
Co132 O158 2.155 . S
Co132 O159 2.096 . S
C133 N136 1.301 . S
C133 N137 1.328 . S
C133 H138 0.930 . S
C134 C135 1.333 . S
C134 N136 1.317 . S
C134 H139 0.930 . S
C135 C134 1.333 . S
C135 N137 1.350 . S
C135 H161 0.931 . S
N136 Co132 2.148 . S
N136 C133 1.301 . S
N136 C134 1.317 . S
N137 C133 1.328 . S
N137 C135 1.350 . S
H138 C133 0.930 . S
H139 C134 0.930 . S
C140 O141 1.249 . S
C140 O159 1.224 1_554 S
O141 C140 1.249 . S
N142 Co132 2.128 . S
N142 C143 1.355 1_556 S
N142 C145 1.311 . S
C143 N142 1.355 1_554 S
C143 C144 1.363 1_545 S
C143 H155 0.929 . S
C144 C143 1.363 1_565 S
C144 N146 1.375 1_554 S
C144 H162 0.931 . S
C145 N142 1.311 . S
C145 N146 1.347 1_545 S
C145 H156 0.929 . S
N146 C144 1.375 1_556 S
N146 C145 1.347 1_565 S
C147 C150 1.365 . S
C147 N152 1.328 . S
C147 H153 0.929 . S
C148 C149 1.362 . S
C148 C151 1.378 . S
C148 H163 0.929 . S
C149 C148 1.362 . S
C149 C150 1.366 . S
C150 C147 1.365 . S
C150 C149 1.366 . S
C150 H164 0.930 . S
C151 C148 1.378 . S
C151 N152 1.315 . S
C151 H154 0.930 . S
N152 Co132 2.194 1_554 S
N152 C147 1.328 . S
N152 C151 1.315 . S
H153 C147 0.929 . S
H154 C151 0.930 . S
H155 C143 0.929 . S
H156 C145 0.929 . S
O157 Co132 2.351 . S
O157 C160 1.244 . S
O158 Co132 2.155 . S
O158 C160 1.240 . S
O159 Co132 2.096 . S
O159 C140 1.224 1_556 S
C160 O157 1.244 . S
C160 O158 1.240 . S
H161 C135 0.931 . S
H162 C144 0.931 . S
H163 C148 0.929 . S
H164 C150 0.930 . S
Co165 N169 2.148 . S
Co165 N175 2.128 . S
Co165 N185 2.194 . S
Co165 O190 2.351 . S
Co165 O191 2.155 . S
Co165 O192 2.096 . S
C166 N169 1.301 . S
C166 N170 1.328 . S
C166 H171 0.930 . S
C167 C168 1.333 . S
C167 N169 1.317 . S
C167 H172 0.930 . S
C168 C167 1.333 . S
C168 N170 1.350 . S
C168 H194 0.931 . S
N169 Co165 2.148 . S
N169 C166 1.301 . S
N169 C167 1.317 . S
N170 C166 1.328 . S
N170 C168 1.350 . S
H171 C166 0.930 . S
H172 C167 0.930 . S
C173 O174 1.224 . S
C173 O192 1.247 . S
O174 C173 1.224 . S
N175 Co165 2.128 . S
N175 C176 1.355 . S
N175 C178 1.311 . S
C176 N175 1.355 . S
C176 C177 1.363 1_655 S
C176 H188 0.929 . S
C177 C176 1.363 1_455 S
C177 N179 1.375 . S
C177 H195 0.931 . S
C178 N175 1.311 . S
C178 N179 1.347 1_655 S
C178 H189 0.929 . S
N179 C177 1.375 . S
N179 C178 1.347 1_455 S
C180 C183 1.365 . S
C180 N185 1.328 . S
C180 H186 0.929 . S
C181 C182 1.362 . S
C181 C184 1.378 . S
C181 H196 0.929 . S
C182 C181 1.362 . S
C182 C183 1.366 . S
C183 C180 1.365 . S
C183 C182 1.366 . S
C183 H197 0.930 . S
C184 C181 1.378 . S
C184 N185 1.315 . S
C184 H187 0.930 . S
N185 Co165 2.194 . S
N185 C180 1.328 . S
N185 C184 1.315 . S
H186 C180 0.929 . S
H187 C184 0.930 . S
H188 C176 0.929 . S
H189 C178 0.929 . S
O190 Co165 2.351 . S
O190 C193 1.244 . S
O191 Co165 2.155 . S
O191 C193 1.240 . S
O192 Co165 2.096 . S
O192 C173 1.247 . S
C193 O190 1.244 . S
C193 O191 1.240 . S
H194 C168 0.931 . S
H195 C177 0.931 . S
H196 C181 0.929 . S
H197 C183 0.930 . S
Co198 N202 2.148 . S
Co198 N208 2.128 . S
Co198 N218 2.194 1_556 S
Co198 O223 2.351 . S
Co198 O224 2.155 . S
Co198 O225 2.096 . S
C199 N202 1.301 . S
C199 N203 1.328 . S
C199 H204 0.930 . S
C200 C201 1.333 . S
C200 N202 1.317 . S
C200 H205 0.930 . S
C201 C200 1.333 . S
C201 N203 1.350 . S
C201 H227 0.931 . S
N202 Co198 2.148 . S
N202 C199 1.301 . S
N202 C200 1.317 . S
N203 C199 1.328 . S
N203 C201 1.350 . S
H204 C199 0.930 . S
H205 C200 0.930 . S
C206 O207 1.249 . S
C206 O225 1.224 1_554 S
O207 C206 1.249 . S
N208 Co198 2.128 . S
N208 C209 1.355 1_556 S
N208 C211 1.311 . S
C209 N208 1.355 1_554 S
C209 C210 1.363 1_565 S
C209 H221 0.929 . S
C210 C209 1.363 1_545 S
C210 N212 1.375 1_554 S
C210 H228 0.931 . S
C211 N208 1.311 . S
C211 N212 1.347 1_565 S
C211 H222 0.929 . S
N212 C210 1.375 1_556 S
N212 C211 1.347 1_545 S
C213 C216 1.365 . S
C213 N218 1.328 . S
C213 H219 0.929 . S
C214 C215 1.362 . S
C214 C217 1.378 . S
C214 H229 0.929 . S
C215 C214 1.362 . S
C215 C216 1.366 . S
C216 C213 1.365 . S
C216 C215 1.366 . S
C216 H230 0.930 . S
C217 C214 1.378 . S
C217 N218 1.315 . S
C217 H220 0.930 . S
N218 Co198 2.194 1_554 S
N218 C213 1.328 . S
N218 C217 1.315 . S
H219 C213 0.929 . S
H220 C217 0.930 . S
H221 C209 0.929 . S
H222 C211 0.929 . S
O223 Co198 2.351 . S
O223 C226 1.244 . S
O224 Co198 2.155 . S
O224 C226 1.240 . S
O225 Co198 2.096 . S
O225 C206 1.224 1_556 S
C226 O223 1.244 . S
C226 O224 1.240 . S
H227 C201 0.931 . S
H228 C210 0.931 . S
H229 C214 0.929 . S
H230 C216 0.930 . S
Co231 N235 2.148 . S
Co231 N241 2.128 . S
Co231 N251 2.194 . S
Co231 O256 2.351 . S
Co231 O257 2.155 . S
Co231 O258 2.096 . S
C232 N235 1.301 . S
C232 N236 1.328 . S
C232 H237 0.930 . S
C233 C234 1.333 . S
C233 N235 1.317 . S
C233 H238 0.930 . S
C234 C233 1.333 . S
C234 N236 1.350 . S
C234 H260 0.931 . S
N235 Co231 2.148 . S
N235 C232 1.301 . S
N235 C233 1.317 . S
N236 C232 1.328 . S
N236 C234 1.350 . S
H237 C232 0.930 . S
H238 C233 0.930 . S
C239 O240 1.224 . S
C239 O258 1.247 . S
O240 C239 1.224 . S
N241 Co231 2.128 . S
N241 C242 1.355 . S
N241 C244 1.311 . S
C242 N241 1.355 . S
C242 C243 1.363 1_455 S
C242 H254 0.929 . S
C243 C242 1.363 1_655 S
C243 N245 1.375 . S
C243 H261 0.931 . S
C244 N241 1.311 . S
C244 N245 1.347 1_455 S
C244 H255 0.929 . S
N245 C243 1.375 . S
N245 C244 1.347 1_655 S
C246 C249 1.365 . S
C246 N251 1.328 . S
C246 H252 0.929 . S
C247 C248 1.362 . S
C247 C250 1.378 . S
C247 H262 0.929 . S
C248 C247 1.362 . S
C248 C249 1.366 . S
C249 C246 1.365 . S
C249 C248 1.366 . S
C249 H263 0.930 . S
C250 C247 1.378 . S
C250 N251 1.315 . S
C250 H253 0.930 . S
N251 Co231 2.194 . S
N251 C246 1.328 . S
N251 C250 1.315 . S
H252 C246 0.929 . S
H253 C250 0.930 . S
H254 C242 0.929 . S
H255 C244 0.929 . S
O256 Co231 2.351 . S
O256 C259 1.244 . S
O257 Co231 2.155 . S
O257 C259 1.240 . S
O258 Co231 2.096 . S
O258 C239 1.247 . S
C259 O256 1.244 . S
C259 O257 1.240 . S
H260 C234 0.931 . S
H261 C243 0.931 . S
H262 C247 0.929 . S
H263 C249 0.930 . S
H264 C282 0.951 . S
H265 C284 0.951 . S
H266 C286 0.950 . S
H267 C287 0.950 . S
H268 C289 0.950 1_556 S
H269 C292 0.950 . S
H270 C293 0.950 . S
H271 C295 0.950 . S
H272 C296 0.950 . S
H273 C297 0.950 . S
H274 C299 0.951 . S
H275 C301 0.950 . S
H276 C302 0.950 . S
H277 C304 0.950 . S
H278 C307 0.950 . S
H279 C308 0.950 . S
H280 C310 0.950 . S
H281 C311 0.950 . S
C282 H264 0.951 . S
C282 C283 1.366 1_554 S
C282 C284 1.388 . S
C283 C282 1.366 1_556 S
C283 C287 1.385 . S
C284 H265 0.951 . S
C284 C282 1.388 . S
C284 C285 1.366 . S
C285 C284 1.366 . S
C285 C286 1.414 1_554 S
C285 C288 1.499 . S
C286 H266 0.950 . S
C286 C285 1.414 1_556 S
C286 C287 1.374 . S
C287 H267 0.950 . S
C287 C283 1.385 . S
C287 C286 1.374 . S
C288 C285 1.499 . S
C288 C289 1.373 . S
C288 C290 1.389 . S
C289 H268 0.950 1_554 S
C289 C288 1.373 . S
C289 C305 1.377 . S
C290 C288 1.389 . S
C290 C291 1.524 . S
C290 C304 1.377 . S
C291 C290 1.524 . S
C291 C292 1.397 1_554 S
C291 C296 1.363 . S
C292 H269 0.950 . S
C292 C291 1.397 1_556 S
C292 C293 1.334 . S
C293 H270 0.950 . S
C293 C292 1.334 . S
C293 C294 1.287 1_556 S
C294 C293 1.287 1_554 S
C294 C295 1.524 . S
C294 H313 0.913 . S
C295 H271 0.950 . S
C295 C294 1.524 . S
C295 C296 1.415 . S
C296 H272 0.950 . S
C296 C291 1.363 . S
C296 C295 1.415 . S
C297 H273 0.950 . S
C297 C298 1.367 1_556 S
C297 C299 1.388 . S
C298 C297 1.367 1_554 S
C298 C302 1.385 . S
C299 H274 0.951 . S
C299 C297 1.388 . S
C299 C300 1.366 1_556 S
C300 C299 1.366 1_554 S
C300 C301 1.414 . S
C300 C303 1.499 . S
C301 H275 0.950 . S
C301 C300 1.414 . S
C301 C302 1.374 . S
C302 H276 0.950 . S
C302 C298 1.385 . S
C302 C301 1.374 . S
C303 C300 1.499 . S
C303 C304 1.373 . S
C303 C305 1.389 . S
C304 H277 0.950 . S
C304 C290 1.377 . S
C304 C303 1.373 . S
C305 C289 1.377 . S
C305 C303 1.389 . S
C305 C306 1.524 . S
C306 C305 1.524 . S
C306 C307 1.397 . S
C306 C311 1.363 1_554 S
C307 H278 0.950 . S
C307 C306 1.397 . S
C307 C308 1.334 . S
C308 H279 0.950 . S
C308 C307 1.334 . S
C308 C309 1.287 . S
C309 C308 1.287 . S
C309 C310 1.524 1_554 S
C309 H312 0.999 . S
C310 H280 0.950 . S
C310 C309 1.524 1_556 S
C310 C311 1.415 . S
C311 H281 0.950 . S
C311 C306 1.363 1_556 S
C311 C310 1.415 . S
H312 C309 0.999 . S
H313 C294 0.913 . S
H314 C332 0.951 . S
H315 C334 0.951 . S
H316 C336 0.950 . S
H317 C337 0.950 . S
H318 C339 0.950 . S
H319 C342 0.950 . S
H320 C343 0.950 . S
H321 C345 0.950 . S
H322 C346 0.950 . S
H323 C347 0.951 . S
H324 C349 0.951 . S
H325 C351 0.950 . S
H326 C352 0.950 . S
H327 C354 0.950 . S
H328 C357 0.950 . S
H329 C358 0.950 . S
H330 C360 0.950 . S
H331 C361 0.950 . S
C332 H314 0.951 . S
C332 C333 1.366 . S
C332 C334 1.388 . S
C333 C332 1.366 . S
C333 C337 1.385 . S
C334 H315 0.951 . S
C334 C332 1.388 . S
C334 C335 1.366 . S
C335 C334 1.366 . S
C335 C336 1.414 . S
C335 C338 1.499 . S
C336 H316 0.950 . S
C336 C335 1.414 . S
C336 C337 1.374 . S
C337 H317 0.950 . S
C337 C333 1.385 . S
C337 C336 1.374 . S
C338 C335 1.499 . S
C338 C339 1.373 . S
C338 C340 1.389 . S
C339 H318 0.950 . S
C339 C338 1.373 . S
C339 C355 1.377 . S
C340 C338 1.389 . S
C340 C341 1.524 . S
C340 C354 1.377 . S
C341 C340 1.524 . S
C341 C342 1.397 . S
C341 C346 1.363 . S
C342 H319 0.950 . S
C342 C341 1.397 . S
C342 C343 1.334 . S
C343 H320 0.950 . S
C343 C342 1.334 . S
C343 C344 1.287 . S
C344 C343 1.287 . S
C344 C345 1.524 . S
C344 H363 0.913 . S
C345 H321 0.950 . S
C345 C344 1.524 . S
C345 C346 1.415 . S
C346 H322 0.950 . S
C346 C341 1.363 . S
C346 C345 1.415 . S
C347 H323 0.951 . S
C347 C348 1.366 . S
C347 C349 1.388 . S
C348 C347 1.366 . S
C348 C352 1.385 . S
C349 H324 0.951 . S
C349 C347 1.388 . S
C349 C350 1.366 . S
C350 C349 1.366 . S
C350 C351 1.414 . S
C350 C353 1.499 . S
C351 H325 0.950 . S
C351 C350 1.414 . S
C351 C352 1.374 . S
C352 H326 0.950 . S
C352 C348 1.385 . S
C352 C351 1.374 . S
C353 C350 1.499 . S
C353 C354 1.373 . S
C353 C355 1.389 . S
C354 H327 0.950 . S
C354 C340 1.377 . S
C354 C353 1.373 . S
C355 C339 1.377 . S
C355 C353 1.389 . S
C355 C356 1.524 . S
C356 C355 1.524 . S
C356 C357 1.397 . S
C356 C361 1.363 . S
C357 H328 0.950 . S
C357 C356 1.397 . S
C357 C358 1.334 . S
C358 H329 0.950 . S
C358 C357 1.334 . S
C358 C359 1.287 . S
C359 C358 1.287 . S
C359 C360 1.524 . S
C359 H362 0.999 . S
C360 H330 0.950 . S
C360 C359 1.524 . S
C360 C361 1.415 . S
C361 H331 0.950 . S
C361 C356 1.363 . S
C361 C360 1.415 . S
H362 C359 0.999 . S
H363 C344 0.913 . S
H364 C382 0.951 . S
H365 C384 0.951 . S
H366 C386 0.950 . S
H367 C387 0.950 . S
H368 C389 0.950 . S
H369 C392 0.950 . S
H370 C393 0.950 . S
H371 C395 0.950 . S
H372 C396 0.950 . S
H373 C397 0.951 . S
H374 C399 0.951 . S
H375 C401 0.950 . S
H376 C402 0.950 1_556 S
H377 C404 0.950 . S
H378 C407 0.950 . S
H379 C408 0.950 . S
H380 C410 0.950 . S
H381 C411 0.950 . S
C382 H364 0.951 . S
C382 C383 1.366 . S
C382 C384 1.388 . S
C383 C382 1.366 . S
C383 C387 1.385 1_556 S
C384 H365 0.951 . S
C384 C382 1.388 . S
C384 C385 1.366 1_556 S
C385 C384 1.366 1_554 S
C385 C386 1.414 . S
C385 C388 1.499 . S
C386 H366 0.950 . S
C386 C385 1.414 . S
C386 C387 1.374 . S
C387 H367 0.950 . S
C387 C383 1.385 1_554 S
C387 C386 1.374 . S
C388 C385 1.499 . S
C388 C389 1.373 . S
C388 C390 1.389 . S
C389 H368 0.950 . S
C389 C388 1.373 . S
C389 C405 1.377 . S
C390 C388 1.389 . S
C390 C391 1.524 . S
C390 C404 1.377 . S
C391 C390 1.524 . S
C391 C392 1.397 . S
C391 C396 1.363 1_554 S
C392 H369 0.950 . S
C392 C391 1.397 . S
C392 C393 1.334 . S
C393 H370 0.950 . S
C393 C392 1.334 . S
C393 C394 1.287 . S
C394 C393 1.287 . S
C394 C395 1.524 1_554 S
C394 H413 0.913 . S
C395 H371 0.950 . S
C395 C394 1.524 1_556 S
C395 C396 1.415 . S
C396 H372 0.950 . S
C396 C391 1.363 1_556 S
C396 C395 1.415 . S
C397 H373 0.951 . S
C397 C398 1.366 . S
C397 C399 1.388 . S
C398 C397 1.366 . S
C398 C402 1.385 . S
C399 H374 0.951 . S
C399 C397 1.388 . S
C399 C400 1.366 . S
C400 C399 1.366 . S
C400 C401 1.414 1_554 S
C400 C403 1.499 . S
C401 H375 0.950 . S
C401 C400 1.414 1_556 S
C401 C402 1.374 1_556 S
C402 H376 0.950 1_554 S
C402 C398 1.385 . S
C402 C401 1.374 1_554 S
C403 C400 1.499 . S
C403 C404 1.373 . S
C403 C405 1.389 . S
C404 H377 0.950 . S
C404 C390 1.377 . S
C404 C403 1.373 . S
C405 C389 1.377 . S
C405 C403 1.389 . S
C405 C406 1.524 . S
C406 C405 1.524 . S
C406 C407 1.397 1_554 S
C406 C411 1.363 . S
C407 H378 0.950 . S
C407 C406 1.397 1_556 S
C407 C408 1.334 . S
C408 H379 0.950 . S
C408 C407 1.334 . S
C408 C409 1.287 . S
C409 C408 1.287 . S
C409 C410 1.524 1_556 S
C409 H412 0.999 . S
C410 H380 0.950 . S
C410 C409 1.524 1_554 S
C410 C411 1.415 . S
C411 H381 0.950 . S
C411 C406 1.363 . S
C411 C410 1.415 . S
H412 C409 0.999 . S
H413 C394 0.913 . S
H414 C432 0.951 . S
H415 C434 0.951 . S
H416 C436 0.950 . S
H417 C437 0.950 . S
H418 C439 0.950 . S
H419 C442 0.950 . S
H420 C443 0.950 . S
H421 C445 0.950 . S
H422 C446 0.950 . S
H423 C447 0.951 . S
H424 C449 0.951 . S
H425 C451 0.950 . S
H426 C452 0.950 . S
H427 C454 0.950 . S
H428 C457 0.950 . S
H429 C458 0.950 . S
H430 C460 0.950 . S
H431 C461 0.950 . S
C432 H414 0.951 . S
C432 C433 1.366 . S
C432 C434 1.388 . S
C433 C432 1.366 . S
C433 C437 1.385 . S
C434 H415 0.951 . S
C434 C432 1.388 . S
C434 C435 1.366 . S
C435 C434 1.366 . S
C435 C436 1.414 . S
C435 C438 1.499 . S
C436 H416 0.950 . S
C436 C435 1.414 . S
C436 C437 1.374 . S
C437 H417 0.950 . S
C437 C433 1.385 . S
C437 C436 1.374 . S
C438 C435 1.499 . S
C438 C439 1.373 . S
C438 C440 1.389 . S
C439 H418 0.950 . S
C439 C438 1.373 . S
C439 C455 1.377 . S
C440 C438 1.389 . S
C440 C441 1.524 . S
C440 C454 1.377 . S
C441 C440 1.524 . S
C441 C442 1.397 . S
C441 C446 1.363 . S
C442 H419 0.950 . S
C442 C441 1.397 . S
C442 C443 1.334 . S
C443 H420 0.950 . S
C443 C442 1.334 . S
C443 C444 1.287 . S
C444 C443 1.287 . S
C444 C445 1.524 . S
C444 H463 0.913 . S
C445 H421 0.950 . S
C445 C444 1.524 . S
C445 C446 1.415 . S
C446 H422 0.950 . S
C446 C441 1.363 . S
C446 C445 1.415 . S
C447 H423 0.951 . S
C447 C448 1.366 . S
C447 C449 1.388 . S
C448 C447 1.366 . S
C448 C452 1.385 . S
C449 H424 0.951 . S
C449 C447 1.388 . S
C449 C450 1.366 . S
C450 C449 1.366 . S
C450 C451 1.414 . S
C450 C453 1.499 . S
C451 H425 0.950 . S
C451 C450 1.414 . S
C451 C452 1.374 . S
C452 H426 0.950 . S
C452 C448 1.385 . S
C452 C451 1.374 . S
C453 C450 1.499 . S
C453 C454 1.373 . S
C453 C455 1.389 . S
C454 H427 0.950 . S
C454 C440 1.377 . S
C454 C453 1.373 . S
C455 C439 1.377 . S
C455 C453 1.389 . S
C455 C456 1.524 . S
C456 C455 1.524 . S
C456 C457 1.397 . S
C456 C461 1.363 . S
C457 H428 0.950 . S
C457 C456 1.397 . S
C457 C458 1.334 . S
C458 H429 0.950 . S
C458 C457 1.334 . S
C458 C459 1.287 . S
C459 C458 1.287 . S
C459 C460 1.524 . S
C459 H462 0.999 . S
C460 H430 0.950 . S
C460 C459 1.524 . S
C460 C461 1.415 . S
C461 H431 0.950 . S
C461 C456 1.363 . S
C461 C460 1.415 . S
H462 C459 0.999 . S
H463 C444 0.913 . S
H464 C482 0.951 . S
H465 C484 0.951 . S
H466 C486 0.950 . S
H467 C487 0.950 . S
H468 C489 0.950 . S
H469 C492 0.950 . S
H470 C493 0.950 . S
H471 C495 0.950 . S
H472 C496 0.950 . S
H473 C497 0.951 . S
H474 C499 0.951 . S
H475 C501 0.950 . S
H476 C502 0.950 . S
H477 C504 0.951 . S
H478 C507 0.950 . S
H479 C508 0.950 . S
H480 C510 0.950 . S
H481 C511 0.950 . S
C482 H464 0.951 . S
C482 C483 1.366 . S
C482 C484 1.388 . S
C483 C482 1.366 . S
C483 C487 1.385 1_554 S
C484 H465 0.951 . S
C484 C482 1.388 . S
C484 C485 1.366 . S
C485 C484 1.366 . S
C485 C486 1.414 1_554 S
C485 C488 1.499 . S
C486 H466 0.950 . S
C486 C485 1.414 1_556 S
C486 C487 1.374 . S
C487 H467 0.950 . S
C487 C483 1.385 1_556 S
C487 C486 1.374 . S
C488 C485 1.499 . S
C488 C489 1.373 . S
C488 C490 1.389 . S
C489 H468 0.950 . S
C489 C488 1.373 . S
C489 C505 1.378 . S
C490 C488 1.389 . S
C490 C491 1.526 . S
C490 C504 1.377 . S
C491 C490 1.526 . S
C491 C492 1.375 1_554 S
C491 C496 1.381 . S
C492 H469 0.950 . S
C492 C491 1.375 1_556 S
C492 C493 1.334 . S
C493 H470 0.950 . S
C493 C492 1.334 . S
C493 C494 1.287 . S
C494 C493 1.287 . S
C494 C495 1.524 1_556 S
C494 H513 0.913 . S
C495 H471 0.950 . S
C495 C494 1.524 1_554 S
C495 C496 1.415 . S
C496 H472 0.950 . S
C496 C491 1.381 . S
C496 C495 1.415 . S
C497 H473 0.951 . S
C497 C498 1.366 . S
C497 C499 1.388 . S
C498 C497 1.366 . S
C498 C502 1.385 1_556 S
C499 H474 0.951 . S
C499 C497 1.388 . S
C499 C500 1.366 . S
C500 C499 1.366 . S
C500 C501 1.414 1_556 S
C500 C503 1.498 . S
C501 H475 0.950 . S
C501 C500 1.414 1_554 S
C501 C502 1.374 . S
C502 H476 0.950 . S
C502 C498 1.385 1_554 S
C502 C501 1.374 . S
C503 C500 1.498 . S
C503 C504 1.373 1_556 S
C503 C505 1.389 1_556 S
C504 H477 0.951 . S
C504 C490 1.377 . S
C504 C503 1.373 1_554 S
C505 C489 1.378 . S
C505 C503 1.389 1_554 S
C505 C506 1.526 . S
C506 C505 1.526 . S
C506 C507 1.397 . S
C506 C511 1.363 1_554 S
C507 H478 0.950 . S
C507 C506 1.397 . S
C507 C508 1.334 . S
C508 H479 0.950 . S
C508 C507 1.334 . S
C508 C509 1.287 . S
C509 C508 1.287 . S
C509 C510 1.524 1_554 S
C509 H512 0.999 . S
C510 H480 0.950 . S
C510 C509 1.524 1_556 S
C510 C511 1.415 . S
C511 H481 0.950 . S
C511 C506 1.363 1_556 S
C511 C510 1.415 . S
H512 C509 0.999 . S
H513 C494 0.913 . S
H514 C532 0.951 . S
H515 C534 0.951 . S
H516 C536 0.950 . S
H517 C537 0.950 . S
H518 C539 0.950 . S
H519 C542 0.950 . S
H520 C543 0.950 . S
H521 C545 0.950 . S
H522 C546 0.950 . S
H523 C547 0.951 . S
H524 C549 0.951 . S
H525 C551 0.950 . S
H526 C552 0.950 . S
H527 C554 0.950 . S
H528 C557 0.950 . S
H529 C558 0.950 . S
H530 C560 0.950 . S
H531 C561 0.950 . S
C532 H514 0.951 . S
C532 C533 1.366 . S
C532 C534 1.388 . S
C533 C532 1.366 . S
C533 C537 1.385 . S
C534 H515 0.951 . S
C534 C532 1.388 . S
C534 C535 1.366 . S
C535 C534 1.366 . S
C535 C536 1.414 . S
C535 C538 1.499 . S
C536 H516 0.950 . S
C536 C535 1.414 . S
C536 C537 1.374 . S
C537 H517 0.950 . S
C537 C533 1.385 . S
C537 C536 1.374 . S
C538 C535 1.499 . S
C538 C539 1.373 . S
C538 C540 1.389 . S
C539 H518 0.950 . S
C539 C538 1.373 . S
C539 C555 1.377 . S
C540 C538 1.389 . S
C540 C541 1.524 . S
C540 C554 1.377 . S
C541 C540 1.524 . S
C541 C542 1.397 . S
C541 C546 1.363 . S
C542 H519 0.950 . S
C542 C541 1.397 . S
C542 C543 1.334 . S
C543 H520 0.950 . S
C543 C542 1.334 . S
C543 C544 1.287 . S
C544 C543 1.287 . S
C544 C545 1.524 . S
C544 H563 0.913 . S
C545 H521 0.950 . S
C545 C544 1.524 . S
C545 C546 1.415 . S
C546 H522 0.950 . S
C546 C541 1.363 . S
C546 C545 1.415 . S
C547 H523 0.951 . S
C547 C548 1.366 . S
C547 C549 1.388 . S
C548 C547 1.366 . S
C548 C552 1.385 . S
C549 H524 0.951 . S
C549 C547 1.388 . S
C549 C550 1.366 . S
C550 C549 1.366 . S
C550 C551 1.414 . S
C550 C553 1.499 . S
C551 H525 0.950 . S
C551 C550 1.414 . S
C551 C552 1.374 . S
C552 H526 0.950 . S
C552 C548 1.385 . S
C552 C551 1.374 . S
C553 C550 1.499 . S
C553 C554 1.373 . S
C553 C555 1.389 . S
C554 H527 0.950 . S
C554 C540 1.377 . S
C554 C553 1.373 . S
C555 C539 1.377 . S
C555 C553 1.389 . S
C555 C556 1.524 . S
C556 C555 1.524 . S
C556 C557 1.397 . S
C556 C561 1.363 . S
C557 H528 0.950 . S
C557 C556 1.397 . S
C557 C558 1.334 . S
C558 H529 0.950 . S
C558 C557 1.334 . S
C558 C559 1.287 . S
C559 C558 1.287 . S
C559 C560 1.524 . S
C559 H562 0.999 . S
C560 H530 0.950 . S
C560 C559 1.524 . S
C560 C561 1.415 . S
C561 H531 0.950 . S
C561 C556 1.363 . S
C561 C560 1.415 . S
H562 C559 0.999 . S
H563 C544 0.913 . S
H564 C582 0.951 . S
H565 C584 0.951 . S
H566 C586 0.950 . S
H567 C587 0.950 . S
H568 C589 0.950 . S
H569 C592 0.950 . S
H570 C593 0.950 . S
H571 C595 0.950 . S
H572 C596 0.950 . S
H573 C597 0.951 . S
H574 C599 0.951 . S
H575 C601 0.950 . S
H576 C602 0.950 . S
H577 C604 0.950 . S
H578 C607 0.950 . S
H579 C608 0.950 . S
H580 C610 0.950 . S
H581 C611 0.950 . S
C582 H564 0.951 . S
C582 C583 1.366 . S
C582 C584 1.388 . S
C583 C582 1.366 . S
C583 C587 1.385 1_554 S
C584 H565 0.951 . S
C584 C582 1.388 . S
C584 C585 1.366 . S
C585 C584 1.366 . S
C585 C586 1.414 1_554 S
C585 C588 1.499 . S
C586 H566 0.950 . S
C586 C585 1.414 1_556 S
C586 C587 1.374 . S
C587 H567 0.950 . S
C587 C583 1.385 1_556 S
C587 C586 1.374 . S
C588 C585 1.499 . S
C588 C589 1.373 1_554 S
C588 C590 1.389 . S
C589 H568 0.950 . S
C589 C588 1.373 1_556 S
C589 C605 1.377 . S
C590 C588 1.389 . S
C590 C591 1.524 . S
C590 C604 1.377 . S
C591 C590 1.524 . S
C591 C592 1.397 . S
C591 C596 1.363 . S
C592 H569 0.950 . S
C592 C591 1.397 . S
C592 C593 1.334 . S
C593 H570 0.950 . S
C593 C592 1.334 . S
C593 C594 1.287 . S
C594 C593 1.287 . S
C594 C595 1.524 . S
C594 H613 0.913 . S
C595 H571 0.950 . S
C595 C594 1.524 . S
C595 C596 1.415 . S
C596 H572 0.950 . S
C596 C591 1.363 . S
C596 C595 1.415 . S
C597 H573 0.951 . S
C597 C598 1.366 . S
C597 C599 1.388 . S
C598 C597 1.366 . S
C598 C602 1.385 1_556 S
C599 H574 0.951 . S
C599 C597 1.388 . S
C599 C600 1.366 . S
C600 C599 1.366 . S
C600 C601 1.414 1_556 S
C600 C603 1.499 . S
C601 H575 0.950 . S
C601 C600 1.414 1_554 S
C601 C602 1.374 . S
C602 H576 0.950 . S
C602 C598 1.385 1_554 S
C602 C601 1.374 . S
C603 C600 1.499 . S
C603 C604 1.373 1_556 S
C603 C605 1.389 . S
C604 H577 0.950 . S
C604 C590 1.377 . S
C604 C603 1.373 1_554 S
C605 C589 1.377 . S
C605 C603 1.389 . S
C605 C606 1.524 . S
C606 C605 1.524 . S
C606 C607 1.397 . S
C606 C611 1.363 . S
C607 H578 0.950 . S
C607 C606 1.397 . S
C607 C608 1.334 . S
C608 H579 0.950 . S
C608 C607 1.334 . S
C608 C609 1.287 . S
C609 C608 1.287 . S
C609 C610 1.524 . S
C609 H612 0.999 . S
C610 H580 0.950 . S
C610 C609 1.524 . S
C610 C611 1.415 . S
C611 H581 0.950 . S
C611 C606 1.363 . S
C611 C610 1.415 . S
H612 C609 0.999 . S
H613 C594 0.913 . S
H614 C632 0.951 . S
H615 C634 0.951 . S
H616 C636 0.950 . S
H617 C637 0.950 . S
H618 C639 0.950 . S
H619 C642 0.950 . S
H620 C643 0.950 . S
H621 C645 0.950 . S
H622 C646 0.950 . S
H623 C647 0.951 . S
H624 C649 0.951 . S
H625 C651 0.950 . S
H626 C652 0.950 . S
H627 C654 0.950 . S
H628 C657 0.950 . S
H629 C658 0.950 . S
H630 C660 0.950 . S
H631 C661 0.950 . S
C632 H614 0.951 . S
C632 C633 1.366 . S
C632 C634 1.388 . S
C633 C632 1.366 . S
C633 C637 1.385 . S
C634 H615 0.951 . S
C634 C632 1.388 . S
C634 C635 1.366 . S
C635 C634 1.366 . S
C635 C636 1.414 . S
C635 C638 1.499 . S
C636 H616 0.950 . S
C636 C635 1.414 . S
C636 C637 1.374 . S
C637 H617 0.950 . S
C637 C633 1.385 . S
C637 C636 1.374 . S
C638 C635 1.499 . S
C638 C639 1.373 . S
C638 C640 1.389 . S
C639 H618 0.950 . S
C639 C638 1.373 . S
C639 C655 1.377 . S
C640 C638 1.389 . S
C640 C641 1.524 . S
C640 C654 1.377 . S
C641 C640 1.524 . S
C641 C642 1.397 . S
C641 C646 1.363 . S
C642 H619 0.950 . S
C642 C641 1.397 . S
C642 C643 1.334 . S
C643 H620 0.950 . S
C643 C642 1.334 . S
C643 C644 1.287 . S
C644 C643 1.287 . S
C644 C645 1.524 . S
C644 H663 0.913 . S
C645 H621 0.950 . S
C645 C644 1.524 . S
C645 C646 1.415 . S
C646 H622 0.950 . S
C646 C641 1.363 . S
C646 C645 1.415 . S
C647 H623 0.951 . S
C647 C648 1.366 . S
C647 C649 1.388 . S
C648 C647 1.366 . S
C648 C652 1.385 . S
C649 H624 0.951 . S
C649 C647 1.388 . S
C649 C650 1.366 . S
C650 C649 1.366 . S
C650 C651 1.414 . S
C650 C653 1.499 . S
C651 H625 0.950 . S
C651 C650 1.414 . S
C651 C652 1.374 . S
C652 H626 0.950 . S
C652 C648 1.385 . S
C652 C651 1.374 . S
C653 C650 1.499 . S
C653 C654 1.373 . S
C653 C655 1.389 . S
C654 H627 0.950 . S
C654 C640 1.377 . S
C654 C653 1.373 . S
C655 C639 1.377 . S
C655 C653 1.389 . S
C655 C656 1.524 . S
C656 C655 1.524 . S
C656 C657 1.397 . S
C656 C661 1.363 . S
C657 H628 0.950 . S
C657 C656 1.397 . S
C657 C658 1.334 . S
C658 H629 0.950 . S
C658 C657 1.334 . S
C658 C659 1.287 . S
C659 C658 1.287 . S
C659 C660 1.524 . S
C659 H662 0.999 . S
C660 H630 0.950 . S
C660 C659 1.524 . S
C660 C661 1.415 . S
C661 H631 0.950 . S
C661 C656 1.363 . S
C661 C660 1.415 . S
H662 C659 0.999 . S
H663 C644 0.913 . S
H664 C682 0.951 . S
H665 C684 0.951 . S
H666 C686 0.950 . S
H667 C687 0.950 . S
H668 C689 0.950 . S
H669 C692 0.950 . S
H670 C693 0.950 . S
H671 C695 0.950 . S
H672 C696 0.950 . S
H673 C697 0.951 . S
H674 C699 0.951 . S
H675 C701 0.950 . S
H676 C702 0.950 . S
H677 C704 0.950 . S
H678 C707 0.950 . S
H679 C708 0.950 . S
H680 C710 0.950 . S
H681 C711 0.950 . S
C682 H664 0.951 . S
C682 C683 1.366 . S
C682 C684 1.388 . S
C683 C682 1.366 . S
C683 C687 1.385 1_554 S
C684 H665 0.951 . S
C684 C682 1.388 . S
C684 C685 1.366 . S
C685 C684 1.366 . S
C685 C686 1.414 1_554 S
C685 C688 1.499 . S
C686 H666 0.950 . S
C686 C685 1.414 1_556 S
C686 C687 1.374 . S
C687 H667 0.950 . S
C687 C683 1.385 1_556 S
C687 C686 1.374 . S
C688 C685 1.499 . S
C688 C689 1.373 1_554 S
C688 C690 1.389 . S
C689 H668 0.950 . S
C689 C688 1.373 1_556 S
C689 C705 1.377 . S
C690 C688 1.389 . S
C690 C691 1.524 . S
C690 C704 1.377 . S
C691 C690 1.524 . S
C691 C692 1.397 . S
C691 C696 1.363 . S
C692 H669 0.950 . S
C692 C691 1.397 . S
C692 C693 1.334 . S
C693 H670 0.950 . S
C693 C692 1.334 . S
C693 C694 1.287 . S
C694 C693 1.287 . S
C694 C695 1.524 . S
C694 H713 0.913 . S
C695 H671 0.950 . S
C695 C694 1.524 . S
C695 C696 1.415 . S
C696 H672 0.950 . S
C696 C691 1.363 . S
C696 C695 1.415 . S
C697 H673 0.951 . S
C697 C698 1.366 1_556 S
C697 C699 1.388 . S
C698 C697 1.366 1_554 S
C698 C702 1.385 . S
C699 H674 0.951 . S
C699 C697 1.388 . S
C699 C700 1.366 1_556 S
C700 C699 1.366 1_554 S
C700 C701 1.414 . S
C700 C703 1.499 . S
C701 H675 0.950 . S
C701 C700 1.414 . S
C701 C702 1.374 . S
C702 H676 0.950 . S
C702 C698 1.385 . S
C702 C701 1.374 . S
C703 C700 1.499 . S
C703 C704 1.373 . S
C703 C705 1.389 1_554 S
C704 H677 0.950 . S
C704 C690 1.377 . S
C704 C703 1.373 . S
C705 C689 1.377 . S
C705 C703 1.389 1_556 S
C705 C706 1.524 . S
C706 C705 1.524 . S
C706 C707 1.397 . S
C706 C711 1.363 . S
C707 H678 0.950 . S
C707 C706 1.397 . S
C707 C708 1.334 . S
C708 H679 0.950 . S
C708 C707 1.334 . S
C708 C709 1.287 . S
C709 C708 1.287 . S
C709 C710 1.524 . S
C709 H712 0.999 . S
C710 H680 0.950 . S
C710 C709 1.524 . S
C710 C711 1.415 . S
C711 H681 0.950 . S
C711 C706 1.363 . S
C711 C710 1.415 . S
H712 C709 0.999 . S
H713 C694 0.913 . S
H714 C732 0.951 . S
H715 C734 0.951 . S
H716 C736 0.950 . S
H717 C737 0.950 . S
H718 C739 0.950 . S
H719 C742 0.950 . S
H720 C743 0.950 . S
H721 C745 0.950 . S
H722 C746 0.950 . S
H723 C747 0.951 . S
H724 C749 0.951 . S
H725 C751 0.950 . S
H726 C752 0.950 . S
H727 C754 0.950 . S
H728 C757 0.950 . S
H729 C758 0.950 . S
H730 C760 0.950 . S
H731 C761 0.950 . S
C732 H714 0.951 . S
C732 C733 1.366 . S
C732 C734 1.388 . S
C733 C732 1.366 . S
C733 C737 1.385 . S
C734 H715 0.951 . S
C734 C732 1.388 . S
C734 C735 1.366 . S
C735 C734 1.366 . S
C735 C736 1.414 . S
C735 C738 1.499 . S
C736 H716 0.950 . S
C736 C735 1.414 . S
C736 C737 1.374 . S
C737 H717 0.950 . S
C737 C733 1.385 . S
C737 C736 1.374 . S
C738 C735 1.499 . S
C738 C739 1.373 . S
C738 C740 1.389 . S
C739 H718 0.950 . S
C739 C738 1.373 . S
C739 C755 1.377 . S
C740 C738 1.389 . S
C740 C741 1.524 . S
C740 C754 1.377 . S
C741 C740 1.524 . S
C741 C742 1.397 . S
C741 C746 1.363 . S
C742 H719 0.950 . S
C742 C741 1.397 . S
C742 C743 1.334 . S
C743 H720 0.950 . S
C743 C742 1.334 . S
C743 C744 1.287 . S
C744 C743 1.287 . S
C744 C745 1.524 . S
C744 H763 0.913 . S
C745 H721 0.950 . S
C745 C744 1.524 . S
C745 C746 1.415 . S
C746 H722 0.950 . S
C746 C741 1.363 . S
C746 C745 1.415 . S
C747 H723 0.951 . S
C747 C748 1.366 . S
C747 C749 1.388 . S
C748 C747 1.366 . S
C748 C752 1.385 . S
C749 H724 0.951 . S
C749 C747 1.388 . S
C749 C750 1.366 . S
C750 C749 1.366 . S
C750 C751 1.414 . S
C750 C753 1.499 . S
C751 H725 0.950 . S
C751 C750 1.414 . S
C751 C752 1.374 . S
C752 H726 0.950 . S
C752 C748 1.385 . S
C752 C751 1.374 . S
C753 C750 1.499 . S
C753 C754 1.373 . S
C753 C755 1.389 . S
C754 H727 0.950 . S
C754 C740 1.377 . S
C754 C753 1.373 . S
C755 C739 1.377 . S
C755 C753 1.389 . S
C755 C756 1.524 . S
C756 C755 1.524 . S
C756 C757 1.397 . S
C756 C761 1.363 . S
C757 H728 0.950 . S
C757 C756 1.397 . S
C757 C758 1.334 . S
C758 H729 0.950 . S
C758 C757 1.334 . S
C758 C759 1.287 . S
C759 C758 1.287 . S
C759 C760 1.524 . S
C759 H762 0.999 . S
C760 H730 0.950 . S
C760 C759 1.524 . S
C760 C761 1.415 . S
C761 H731 0.950 . S
C761 C756 1.363 . S
C761 C760 1.415 . S
H762 C759 0.999 . S
H763 C744 0.913 . S
H764 C782 0.951 1_545 S
H765 C784 0.959 . S
H766 C786 0.950 . S
H767 C787 0.950 . S
H768 C789 0.950 . S
H769 C792 0.955 . S
H770 C793 0.950 . S
H771 C795 0.950 . S
H772 C796 0.950 . S
H773 C797 0.951 1_565 S
H774 C799 0.959 . S
H775 C801 0.950 . S
H776 C802 0.950 . S
H777 C804 0.950 . S
H778 C807 0.955 . S
H779 C808 0.950 . S
H780 C810 0.950 . S
H781 C811 0.950 . S
C782 H764 0.951 1_565 S
C782 C783 1.367 . S
C782 C784 1.385 1_565 S
C783 C782 1.367 . S
C783 C787 1.383 1_556 S
C784 H765 0.959 . S
C784 C782 1.385 1_545 S
C784 C785 1.360 1_546 S
C785 C784 1.360 1_564 S
C785 C786 1.414 . S
C785 C788 1.499 . S
C786 H766 0.950 . S
C786 C785 1.414 . S
C786 C787 1.374 . S
C787 H767 0.950 . S
C787 C783 1.383 1_554 S
C787 C786 1.374 . S
C788 C785 1.499 . S
C788 C789 1.373 1_554 S
C788 C790 1.389 1_565 S
C789 H768 0.950 . S
C789 C788 1.373 1_556 S
C789 C805 1.377 1_455 S
C790 C788 1.389 1_545 S
C790 C791 1.524 . S
C790 C804 1.377 1_455 S
C791 C790 1.524 . S
C791 C792 1.397 . S
C791 C796 1.363 . S
C792 H769 0.955 . S
C792 C791 1.397 . S
C792 C793 1.334 . S
C793 H770 0.950 . S
C793 C792 1.334 . S
C793 C794 1.287 . S
C794 C793 1.287 . S
C794 C795 1.524 . S
C794 H813 0.913 . S
C795 H771 0.950 . S
C795 C794 1.524 . S
C795 C796 1.415 . S
C796 H772 0.950 . S
C796 C791 1.363 . S
C796 C795 1.415 . S
C797 H773 0.951 1_545 S
C797 C798 1.365 1_554 S
C797 C799 1.385 1_545 S
C798 C797 1.365 1_556 S
C798 C802 1.385 . S
C799 H774 0.959 . S
C799 C797 1.385 1_565 S
C799 C800 1.360 1_564 S
C800 C799 1.360 1_546 S
C800 C801 1.414 . S
C800 C803 1.499 . S
C801 H775 0.950 . S
C801 C800 1.414 . S
C801 C802 1.374 . S
C802 H776 0.950 . S
C802 C798 1.385 . S
C802 C801 1.374 . S
C803 C800 1.499 . S
C803 C804 1.373 1_556 S
C803 C805 1.389 1_545 S
C804 H777 0.950 . S
C804 C790 1.377 1_655 S
C804 C803 1.373 1_554 S
C805 C789 1.377 1_655 S
C805 C803 1.389 1_565 S
C805 C806 1.524 . S
C806 C805 1.524 . S
C806 C807 1.397 . S
C806 C811 1.363 . S
C807 H778 0.955 . S
C807 C806 1.397 . S
C807 C808 1.334 . S
C808 H779 0.950 . S
C808 C807 1.334 . S
C808 C809 1.287 . S
C809 C808 1.287 . S
C809 C810 1.524 . S
C809 H812 0.999 . S
C810 H780 0.950 . S
C810 C809 1.524 . S
C810 C811 1.415 . S
C811 H781 0.950 . S
C811 C806 1.363 . S
C811 C810 1.415 . S
H812 C809 0.999 . S
H813 C794 0.913 . S
H814 C832 0.951 . S
H815 C834 0.951 . S
H816 C836 0.950 . S
H817 C837 0.950 1_455 S
H818 C839 0.950 . S
H819 C842 0.922 1_455 S
H820 C843 0.950 . S
H821 C845 0.950 . S
H822 C846 0.950 1_545 S
H823 C847 0.951 . S
H824 C849 0.951 . S
H825 C851 0.950 . S
H826 C852 0.950 1_655 S
H827 C854 0.950 . S
H828 C857 0.922 1_655 S
H829 C858 0.950 . S
H830 C860 0.950 . S
H831 C861 0.950 1_565 S
C832 H814 0.951 . S
C832 C833 1.366 . S
C832 C834 1.388 . S
C833 C832 1.366 . S
C833 C837 1.385 . S
C834 H815 0.951 . S
C834 C832 1.388 . S
C834 C835 1.366 . S
C835 C834 1.366 . S
C835 C836 1.414 1_655 S
C835 C838 1.499 . S
C836 H816 0.950 . S
C836 C835 1.414 1_455 S
C836 C837 1.374 1_455 S
C837 H817 0.950 1_655 S
C837 C833 1.385 . S
C837 C836 1.374 1_655 S
C838 C835 1.499 . S
C838 C839 1.373 1_655 S
C838 C840 1.389 . S
C839 H818 0.950 . S
C839 C838 1.373 1_455 S
C839 C855 1.377 1_565 S
C840 C838 1.389 . S
C840 C841 1.524 . S
C840 C854 1.377 1_565 S
C841 C840 1.524 . S
C841 C842 1.397 . S
C841 C846 1.363 . S
C842 H819 0.922 1_655 S
C842 C841 1.397 . S
C842 C843 1.334 . S
C843 H820 0.950 . S
C843 C842 1.334 . S
C843 C844 1.287 . S
C844 C843 1.287 . S
C844 C845 1.524 . S
C844 H863 0.913 . S
C845 H821 0.950 . S
C845 C844 1.524 . S
C845 C846 1.415 . S
C846 H822 0.950 1_565 S
C846 C841 1.363 . S
C846 C845 1.415 . S
C847 H823 0.951 . S
C847 C848 1.366 . S
C847 C849 1.388 . S
C848 C847 1.366 . S
C848 C852 1.385 . S
C849 H824 0.951 . S
C849 C847 1.388 . S
C849 C850 1.366 . S
C850 C849 1.366 . S
C850 C851 1.414 1_455 S
C850 C853 1.499 . S
C851 H825 0.950 . S
C851 C850 1.414 1_655 S
C851 C852 1.374 1_655 S
C852 H826 0.950 1_455 S
C852 C848 1.385 . S
C852 C851 1.374 1_455 S
C853 C850 1.499 . S
C853 C854 1.373 1_455 S
C853 C855 1.389 . S
C854 H827 0.950 . S
C854 C840 1.377 1_545 S
C854 C853 1.373 1_655 S
C855 C839 1.377 1_545 S
C855 C853 1.389 . S
C855 C856 1.524 . S
C856 C855 1.524 . S
C856 C857 1.397 . S
C856 C861 1.363 . S
C857 H828 0.922 1_455 S
C857 C856 1.397 . S
C857 C858 1.334 . S
C858 H829 0.950 . S
C858 C857 1.334 . S
C858 C859 1.287 . S
C859 C858 1.287 . S
C859 C860 1.524 . S
C859 H862 0.999 . S
C860 H830 0.950 . S
C860 C859 1.524 . S
C860 C861 1.415 . S
C861 H831 0.950 1_545 S
C861 C856 1.363 . S
C861 C860 1.415 . S
H862 C859 0.999 . S
H863 C844 0.913 . S
H864 C882 0.951 . S
H865 C884 0.951 . S
H866 C886 0.950 . S
H867 C887 0.950 . S
H868 C889 0.950 . S
H869 C892 0.950 . S
H870 C893 0.950 . S
H871 C895 0.950 . S
H872 C896 0.950 . S
H873 C897 0.951 . S
H874 C899 0.951 . S
H875 C901 0.950 . S
H876 C902 0.950 . S
H877 C904 0.950 . S
H878 C907 0.950 . S
H879 C908 0.950 . S
H880 C910 0.950 . S
H881 C911 0.950 . S
C882 H864 0.951 . S
C882 C883 1.366 . S
C882 C884 1.388 . S
C883 C882 1.366 . S
C883 C887 1.385 . S
C884 H865 0.951 . S
C884 C882 1.388 . S
C884 C885 1.366 . S
C885 C884 1.366 . S
C885 C886 1.414 . S
C885 C888 1.499 . S
C886 H866 0.950 . S
C886 C885 1.414 . S
C886 C887 1.374 . S
C887 H867 0.950 . S
C887 C883 1.385 . S
C887 C886 1.374 . S
C888 C885 1.499 . S
C888 C889 1.373 . S
C888 C890 1.389 . S
C889 H868 0.950 . S
C889 C888 1.373 . S
C889 C905 1.377 . S
C890 C888 1.389 . S
C890 C891 1.524 . S
C890 C904 1.377 . S
C891 C890 1.524 . S
C891 C892 1.397 . S
C891 C896 1.363 . S
C892 H869 0.950 . S
C892 C891 1.397 . S
C892 C893 1.334 . S
C893 H870 0.950 . S
C893 C892 1.334 . S
C893 C894 1.287 . S
C894 C893 1.287 . S
C894 C895 1.524 . S
C894 H913 0.913 . S
C895 H871 0.950 . S
C895 C894 1.524 . S
C895 C896 1.415 . S
C896 H872 0.950 . S
C896 C891 1.363 . S
C896 C895 1.415 . S
C897 H873 0.951 . S
C897 C898 1.366 . S
C897 C899 1.388 . S
C898 C897 1.366 . S
C898 C902 1.385 . S
C899 H874 0.951 . S
C899 C897 1.388 . S
C899 C900 1.366 . S
C900 C899 1.366 . S
C900 C901 1.414 . S
C900 C903 1.499 . S
C901 H875 0.950 . S
C901 C900 1.414 . S
C901 C902 1.374 . S
C902 H876 0.950 . S
C902 C898 1.385 . S
C902 C901 1.374 . S
C903 C900 1.499 . S
C903 C904 1.373 . S
C903 C905 1.389 . S
C904 H877 0.950 . S
C904 C890 1.377 . S
C904 C903 1.373 . S
C905 C889 1.377 . S
C905 C903 1.389 . S
C905 C906 1.524 . S
C906 C905 1.524 . S
C906 C907 1.397 . S
C906 C911 1.363 . S
C907 H878 0.950 . S
C907 C906 1.397 . S
C907 C908 1.334 . S
C908 H879 0.950 . S
C908 C907 1.334 . S
C908 C909 1.287 . S
C909 C908 1.287 . S
C909 C910 1.524 . S
C909 H912 0.999 . S
C910 H880 0.950 . S
C910 C909 1.524 . S
C910 C911 1.415 . S
C911 H881 0.950 . S
C911 C906 1.363 . S
C911 C910 1.415 . S
H912 C909 0.999 . S
H913 C894 0.913 . S
H914 C932 0.951 . S
H915 C934 0.951 . S
H916 C936 0.950 . S
H917 C937 0.950 . S
H918 C939 0.950 . S
H919 C942 0.950 . S
H920 C943 0.950 . S
H921 C945 0.950 . S
H922 C946 0.950 . S
H923 C947 0.951 . S
H924 C949 0.951 . S
H925 C951 0.950 . S
H926 C952 0.950 . S
H927 C954 0.950 . S
H928 C957 0.950 . S
H929 C958 0.950 . S
H930 C960 0.950 . S
H931 C961 0.950 . S
C932 H914 0.951 . S
C932 C933 1.366 . S
C932 C934 1.388 . S
C933 C932 1.366 . S
C933 C937 1.385 . S
C934 H915 0.951 . S
C934 C932 1.388 . S
C934 C935 1.366 . S
C935 C934 1.366 . S
C935 C936 1.414 . S
C935 C938 1.499 . S
C936 H916 0.950 . S
C936 C935 1.414 . S
C936 C937 1.374 . S
C937 H917 0.950 . S
C937 C933 1.385 . S
C937 C936 1.374 . S
C938 C935 1.499 . S
C938 C939 1.373 . S
C938 C940 1.389 . S
C939 H918 0.950 . S
C939 C938 1.373 . S
C939 C955 1.377 . S
C940 C938 1.389 . S
C940 C941 1.524 . S
C940 C954 1.377 . S
C941 C940 1.524 . S
C941 C942 1.397 . S
C941 C946 1.363 . S
C942 H919 0.950 . S
C942 C941 1.397 . S
C942 C943 1.334 . S
C943 H920 0.950 . S
C943 C942 1.334 . S
C943 C944 1.287 . S
C944 C943 1.287 . S
C944 C945 1.524 . S
C944 H963 0.913 . S
C945 H921 0.950 . S
C945 C944 1.524 . S
C945 C946 1.415 . S
C946 H922 0.950 . S
C946 C941 1.363 . S
C946 C945 1.415 . S
C947 H923 0.951 . S
C947 C948 1.366 . S
C947 C949 1.388 . S
C948 C947 1.366 . S
C948 C952 1.385 . S
C949 H924 0.951 . S
C949 C947 1.388 . S
C949 C950 1.366 . S
C950 C949 1.366 . S
C950 C951 1.414 . S
C950 C953 1.499 . S
C951 H925 0.950 . S
C951 C950 1.414 . S
C951 C952 1.374 . S
C952 H926 0.950 . S
C952 C948 1.385 . S
C952 C951 1.374 . S
C953 C950 1.499 . S
C953 C954 1.373 . S
C953 C955 1.389 . S
C954 H927 0.950 . S
C954 C940 1.377 . S
C954 C953 1.373 . S
C955 C939 1.377 . S
C955 C953 1.389 . S
C955 C956 1.524 . S
C956 C955 1.524 . S
C956 C957 1.397 . S
C956 C961 1.363 . S
C957 H928 0.950 . S
C957 C956 1.397 . S
C957 C958 1.334 . S
C958 H929 0.950 . S
C958 C957 1.334 . S
C958 C959 1.287 . S
C959 C958 1.287 . S
C959 C960 1.524 . S
C959 H962 0.999 . S
C960 H930 0.950 . S
C960 C959 1.524 . S
C960 C961 1.415 . S
C961 H931 0.950 . S
C961 C956 1.363 . S
C961 C960 1.415 . S
H962 C959 0.999 . S
H963 C944 0.913 . S
H964 C982 0.951 . S
H965 C984 0.951 . S
H966 C986 0.950 . S
H967 C987 0.950 . S
H968 C989 0.950 . S
H969 C992 0.950 . S
H970 C993 0.950 . S
H971 C995 0.950 . S
H972 C996 0.950 . S
H973 C997 0.951 . S
H974 C999 0.951 . S
H975 C1001 0.950 . S
H976 C1002 0.950 . S
H977 C1004 0.950 . S
H978 C1007 0.950 . S
H979 C1008 0.950 . S
H980 C1010 0.950 . S
H981 C1011 0.950 . S
C982 H964 0.951 . S
C982 C983 1.366 . S
C982 C984 1.388 . S
C983 C982 1.366 . S
C983 C987 1.385 . S
C984 H965 0.951 . S
C984 C982 1.388 . S
C984 C985 1.366 . S
C985 C984 1.366 . S
C985 C986 1.414 . S
C985 C988 1.499 . S
C986 H966 0.950 . S
C986 C985 1.414 . S
C986 C987 1.374 . S
C987 H967 0.950 . S
C987 C983 1.385 . S
C987 C986 1.374 . S
C988 C985 1.499 . S
C988 C989 1.373 . S
C988 C990 1.389 . S
C989 H968 0.950 . S
C989 C988 1.373 . S
C989 C1005 1.377 . S
C990 C988 1.389 . S
C990 C991 1.524 . S
C990 C1004 1.377 . S
C991 C990 1.524 . S
C991 C992 1.397 . S
C991 C996 1.363 . S
C992 H969 0.950 . S
C992 C991 1.397 . S
C992 C993 1.334 . S
C993 H970 0.950 . S
C993 C992 1.334 . S
C993 C994 1.287 . S
C994 C993 1.287 . S
C994 C995 1.524 . S
C994 H1013 0.913 . S
C995 H971 0.950 . S
C995 C994 1.524 . S
C995 C996 1.415 . S
C996 H972 0.950 . S
C996 C991 1.363 . S
C996 C995 1.415 . S
C997 H973 0.951 . S
C997 C998 1.366 . S
C997 C999 1.388 . S
C998 C997 1.366 . S
C998 C1002 1.385 . S
C999 H974 0.951 . S
C999 C997 1.388 . S
C999 C1000 1.366 . S
C1000 C999 1.366 . S
C1000 C1001 1.414 . S
C1000 C1003 1.499 . S
C1001 H975 0.950 . S
C1001 C1000 1.414 . S
C1001 C1002 1.374 . S
C1002 H976 0.950 . S
C1002 C998 1.385 . S
C1002 C1001 1.374 . S
C1003 C1000 1.499 . S
C1003 C1004 1.373 . S
C1003 C1005 1.389 . S
C1004 H977 0.950 . S
C1004 C990 1.377 . S
C1004 C1003 1.373 . S
C1005 C989 1.377 . S
C1005 C1003 1.389 . S
C1005 C1006 1.524 . S
C1006 C1005 1.524 . S
C1006 C1007 1.397 . S
C1006 C1011 1.363 . S
C1007 H978 0.950 . S
C1007 C1006 1.397 . S
C1007 C1008 1.334 . S
C1008 H979 0.950 . S
C1008 C1007 1.334 . S
C1008 C1009 1.287 . S
C1009 C1008 1.287 . S
C1009 C1010 1.524 . S
C1009 H1012 0.999 . S
C1010 H980 0.950 . S
C1010 C1009 1.524 . S
C1010 C1011 1.415 . S
C1011 H981 0.950 . S
C1011 C1006 1.363 . S
C1011 C1010 1.415 . S
H1012 C1009 0.999 . S
H1013 C994 0.913 . S
H1014 C1032 0.951 . S
H1015 C1034 0.951 . S
H1016 C1036 0.950 . S
H1017 C1037 0.950 . S
H1018 C1039 0.950 . S
H1019 C1042 0.950 . S
H1020 C1043 0.950 . S
H1021 C1045 0.950 . S
H1022 C1046 0.950 . S
H1023 C1047 0.951 . S
H1024 C1049 0.951 . S
H1025 C1051 0.950 . S
H1026 C1052 0.950 . S
H1027 C1054 0.950 . S
H1028 C1057 0.950 . S
H1029 C1058 0.950 . S
H1030 C1060 0.950 . S
H1031 C1061 0.950 . S
C1032 H1014 0.951 . S
C1032 C1033 1.366 . S
C1032 C1034 1.388 . S
C1033 C1032 1.366 . S
C1033 C1037 1.385 . S
C1034 H1015 0.951 . S
C1034 C1032 1.388 . S
C1034 C1035 1.366 . S
C1035 C1034 1.366 . S
C1035 C1036 1.414 . S
C1035 C1038 1.499 . S
C1036 H1016 0.950 . S
C1036 C1035 1.414 . S
C1036 C1037 1.374 . S
C1037 H1017 0.950 . S
C1037 C1033 1.385 . S
C1037 C1036 1.374 . S
C1038 C1035 1.499 . S
C1038 C1039 1.373 . S
C1038 C1040 1.389 . S
C1039 H1018 0.950 . S
C1039 C1038 1.373 . S
C1039 C1055 1.377 . S
C1040 C1038 1.389 . S
C1040 C1041 1.524 . S
C1040 C1054 1.377 . S
C1041 C1040 1.524 . S
C1041 C1042 1.397 . S
C1041 C1046 1.363 . S
C1042 H1019 0.950 . S
C1042 C1041 1.397 . S
C1042 C1043 1.334 . S
C1043 H1020 0.950 . S
C1043 C1042 1.334 . S
C1043 C1044 1.287 . S
C1044 C1043 1.287 . S
C1044 C1045 1.524 . S
C1044 H1063 0.913 . S
C1045 H1021 0.950 . S
C1045 C1044 1.524 . S
C1045 C1046 1.415 . S
C1046 H1022 0.950 . S
C1046 C1041 1.363 . S
C1046 C1045 1.415 . S
C1047 H1023 0.951 . S
C1047 C1048 1.366 . S
C1047 C1049 1.388 . S
C1048 C1047 1.366 . S
C1048 C1052 1.385 . S
C1049 H1024 0.951 . S
C1049 C1047 1.388 . S
C1049 C1050 1.366 . S
C1050 C1049 1.366 . S
C1050 C1051 1.414 . S
C1050 C1053 1.499 . S
C1051 H1025 0.950 . S
C1051 C1050 1.414 . S
C1051 C1052 1.374 . S
C1052 H1026 0.950 . S
C1052 C1048 1.385 . S
C1052 C1051 1.374 . S
C1053 C1050 1.499 . S
C1053 C1054 1.373 . S
C1053 C1055 1.389 . S
C1054 H1027 0.950 . S
C1054 C1040 1.377 . S
C1054 C1053 1.373 . S
C1055 C1039 1.377 . S
C1055 C1053 1.389 . S
C1055 C1056 1.524 . S
C1056 C1055 1.524 . S
C1056 C1057 1.397 . S
C1056 C1061 1.363 . S
C1057 H1028 0.950 . S
C1057 C1056 1.397 . S
C1057 C1058 1.334 . S
C1058 H1029 0.950 . S
C1058 C1057 1.334 . S
C1058 C1059 1.287 . S
C1059 C1058 1.287 . S
C1059 C1060 1.524 . S
C1059 H1062 0.999 . S
C1060 H1030 0.950 . S
C1060 C1059 1.524 . S
C1060 C1061 1.415 . S
C1061 H1031 0.950 . S
C1061 C1056 1.363 . S
C1061 C1060 1.415 . S
H1062 C1059 0.999 . S
H1063 C1044 0.913 . S
H1064 C1082 0.951 . S
H1065 C1084 0.951 . S
H1066 C1086 0.950 . S
H1067 C1087 0.950 . S
H1068 C1089 0.950 . S
H1069 C1092 0.950 . S
H1070 C1093 0.950 . S
H1071 C1095 0.950 . S
H1072 C1096 0.950 . S
H1073 C1097 0.951 . S
H1074 C1099 0.951 . S
H1075 C1101 0.950 . S
H1076 C1102 0.950 . S
H1077 C1104 0.950 . S
H1078 C1107 0.950 . S
H1079 C1108 0.950 . S
H1080 C1110 0.950 . S
H1081 C1111 0.950 . S
C1082 H1064 0.951 . S
C1082 C1083 1.366 . S
C1082 C1084 1.388 . S
C1083 C1082 1.366 . S
C1083 C1087 1.385 . S
C1084 H1065 0.951 . S
C1084 C1082 1.388 . S
C1084 C1085 1.366 . S
C1085 C1084 1.366 . S
C1085 C1086 1.414 . S
C1085 C1088 1.499 . S
C1086 H1066 0.950 . S
C1086 C1085 1.414 . S
C1086 C1087 1.374 . S
C1087 H1067 0.950 . S
C1087 C1083 1.385 . S
C1087 C1086 1.374 . S
C1088 C1085 1.499 . S
C1088 C1089 1.373 . S
C1088 C1090 1.389 . S
C1089 H1068 0.950 . S
C1089 C1088 1.373 . S
C1089 C1105 1.377 . S
C1090 C1088 1.389 . S
C1090 C1091 1.524 . S
C1090 C1104 1.377 . S
C1091 C1090 1.524 . S
C1091 C1092 1.397 . S
C1091 C1096 1.363 . S
C1092 H1069 0.950 . S
C1092 C1091 1.397 . S
C1092 C1093 1.334 . S
C1093 H1070 0.950 . S
C1093 C1092 1.334 . S
C1093 C1094 1.287 . S
C1094 C1093 1.287 . S
C1094 C1095 1.524 . S
C1094 H1113 0.913 . S
C1095 H1071 0.950 . S
C1095 C1094 1.524 . S
C1095 C1096 1.415 . S
C1096 H1072 0.950 . S
C1096 C1091 1.363 . S
C1096 C1095 1.415 . S
C1097 H1073 0.951 . S
C1097 C1098 1.366 . S
C1097 C1099 1.388 . S
C1098 C1097 1.366 . S
C1098 C1102 1.385 . S
C1099 H1074 0.951 . S
C1099 C1097 1.388 . S
C1099 C1100 1.366 . S
C1100 C1099 1.366 . S
C1100 C1101 1.414 . S
C1100 C1103 1.499 . S
C1101 H1075 0.950 . S
C1101 C1100 1.414 . S
C1101 C1102 1.374 . S
C1102 H1076 0.950 . S
C1102 C1098 1.385 . S
C1102 C1101 1.374 . S
C1103 C1100 1.499 . S
C1103 C1104 1.373 . S
C1103 C1105 1.389 . S
C1104 H1077 0.950 . S
C1104 C1090 1.377 . S
C1104 C1103 1.373 . S
C1105 C1089 1.377 . S
C1105 C1103 1.389 . S
C1105 C1106 1.524 . S
C1106 C1105 1.524 . S
C1106 C1107 1.397 . S
C1106 C1111 1.363 . S
C1107 H1078 0.950 . S
C1107 C1106 1.397 . S
C1107 C1108 1.334 . S
C1108 H1079 0.950 . S
C1108 C1107 1.334 . S
C1108 C1109 1.287 . S
C1109 C1108 1.287 . S
C1109 C1110 1.524 . S
C1109 H1112 0.999 1_655 S
C1110 H1080 0.950 . S
C1110 C1109 1.524 . S
C1110 C1111 1.415 . S
C1111 H1081 0.950 . S
C1111 C1106 1.363 . S
C1111 C1110 1.415 . S
H1112 C1109 0.999 1_455 S
H1113 C1094 0.913 . S
H1114 C1132 0.951 . S
H1115 C1134 0.951 . S
H1116 C1136 0.950 . S
H1117 C1137 0.950 . S
H1118 C1139 0.950 . S
H1119 C1142 0.950 . S
H1120 C1143 0.950 . S
H1121 C1145 0.950 . S
H1122 C1146 0.950 . S
H1123 C1147 0.951 . S
H1124 C1149 0.951 . S
H1125 C1151 0.950 . S
H1126 C1152 0.950 . S
H1127 C1154 0.950 . S
H1128 C1157 0.950 . S
H1129 C1158 0.950 . S
H1130 C1160 0.950 . S
H1131 C1161 0.950 . S
C1132 H1114 0.951 . S
C1132 C1133 1.366 . S
C1132 C1134 1.388 . S
C1133 C1132 1.366 . S
C1133 C1137 1.385 . S
C1134 H1115 0.951 . S
C1134 C1132 1.388 . S
C1134 C1135 1.366 . S
C1135 C1134 1.366 . S
C1135 C1136 1.414 . S
C1135 C1138 1.499 . S
C1136 H1116 0.950 . S
C1136 C1135 1.414 . S
C1136 C1137 1.374 . S
C1137 H1117 0.950 . S
C1137 C1133 1.385 . S
C1137 C1136 1.374 . S
C1138 C1135 1.499 . S
C1138 C1139 1.373 . S
C1138 C1140 1.389 . S
C1139 H1118 0.950 . S
C1139 C1138 1.373 . S
C1139 C1155 1.377 . S
C1140 C1138 1.389 . S
C1140 C1141 1.524 . S
C1140 C1154 1.377 . S
C1141 C1140 1.524 . S
C1141 C1142 1.397 . S
C1141 C1146 1.363 . S
C1142 H1119 0.950 . S
C1142 C1141 1.397 . S
C1142 C1143 1.334 . S
C1143 H1120 0.950 . S
C1143 C1142 1.334 . S
C1143 C1144 1.287 . S
C1144 C1143 1.287 . S
C1144 C1145 1.524 . S
C1144 H1163 0.913 . S
C1145 H1121 0.950 . S
C1145 C1144 1.524 . S
C1145 C1146 1.415 . S
C1146 H1122 0.950 . S
C1146 C1141 1.363 . S
C1146 C1145 1.415 . S
C1147 H1123 0.951 . S
C1147 C1148 1.366 . S
C1147 C1149 1.388 . S
C1148 C1147 1.366 . S
C1148 C1152 1.385 . S
C1149 H1124 0.951 . S
C1149 C1147 1.388 . S
C1149 C1150 1.366 . S
C1150 C1149 1.366 . S
C1150 C1151 1.414 . S
C1150 C1153 1.499 . S
C1151 H1125 0.950 . S
C1151 C1150 1.414 . S
C1151 C1152 1.374 . S
C1152 H1126 0.950 . S
C1152 C1148 1.385 . S
C1152 C1151 1.374 . S
C1153 C1150 1.499 . S
C1153 C1154 1.373 . S
C1153 C1155 1.389 . S
C1154 H1127 0.950 . S
C1154 C1140 1.377 . S
C1154 C1153 1.373 . S
C1155 C1139 1.377 . S
C1155 C1153 1.389 . S
C1155 C1156 1.524 . S
C1156 C1155 1.524 . S
C1156 C1157 1.397 . S
C1156 C1161 1.363 . S
C1157 H1128 0.950 . S
C1157 C1156 1.397 . S
C1157 C1158 1.334 . S
C1158 H1129 0.950 . S
C1158 C1157 1.334 . S
C1158 C1159 1.287 . S
C1159 C1158 1.287 . S
C1159 C1160 1.524 . S
C1159 H1162 0.999 . S
C1160 H1130 0.950 . S
C1160 C1159 1.524 . S
C1160 C1161 1.415 . S
C1161 H1131 0.950 . S
C1161 C1156 1.363 . S
C1161 C1160 1.415 . S
H1162 C1159 0.999 . S
H1163 C1144 0.913 . S
H1164 C1182 0.951 . S
H1165 C1184 0.951 . S
H1166 C1186 0.950 . S
H1167 C1187 0.950 . S
H1168 C1189 0.950 . S
H1169 C1192 0.950 . S
H1170 C1193 0.950 . S
H1171 C1195 0.950 . S
H1172 C1196 0.950 . S
H1173 C1197 0.951 . S
H1174 C1199 0.951 . S
H1175 C1201 0.950 . S
H1176 C1202 0.950 . S
H1177 C1204 0.950 . S
H1178 C1207 0.950 . S
H1179 C1208 0.950 . S
H1180 C1210 0.950 . S
H1181 C1211 0.950 . S
C1182 H1164 0.951 . S
C1182 C1183 1.366 . S
C1182 C1184 1.388 . S
C1183 C1182 1.366 . S
C1183 C1187 1.385 . S
C1184 H1165 0.951 . S
C1184 C1182 1.388 . S
C1184 C1185 1.366 . S
C1185 C1184 1.366 . S
C1185 C1186 1.414 . S
C1185 C1188 1.499 . S
C1186 H1166 0.950 . S
C1186 C1185 1.414 . S
C1186 C1187 1.374 . S
C1187 H1167 0.950 . S
C1187 C1183 1.385 . S
C1187 C1186 1.374 . S
C1188 C1185 1.499 . S
C1188 C1189 1.373 . S
C1188 C1190 1.389 . S
C1189 H1168 0.950 . S
C1189 C1188 1.373 . S
C1189 C1205 1.377 . S
C1190 C1188 1.389 . S
C1190 C1191 1.524 . S
C1190 C1204 1.377 . S
C1191 C1190 1.524 . S
C1191 C1192 1.397 . S
C1191 C1196 1.363 . S
C1192 H1169 0.950 . S
C1192 C1191 1.397 . S
C1192 C1193 1.334 . S
C1193 H1170 0.950 . S
C1193 C1192 1.334 . S
C1193 C1194 1.287 . S
C1194 C1193 1.287 . S
C1194 C1195 1.524 . S
C1194 H1213 0.913 1_455 S
C1195 H1171 0.950 . S
C1195 C1194 1.524 . S
C1195 C1196 1.415 . S
C1196 H1172 0.950 . S
C1196 C1191 1.363 . S
C1196 C1195 1.415 . S
C1197 H1173 0.951 . S
C1197 C1198 1.366 . S
C1197 C1199 1.388 . S
C1198 C1197 1.366 . S
C1198 C1202 1.385 . S
C1199 H1174 0.951 . S
C1199 C1197 1.388 . S
C1199 C1200 1.366 . S
C1200 C1199 1.366 . S
C1200 C1201 1.414 . S
C1200 C1203 1.499 . S
C1201 H1175 0.950 . S
C1201 C1200 1.414 . S
C1201 C1202 1.374 . S
C1202 H1176 0.950 . S
C1202 C1198 1.385 . S
C1202 C1201 1.374 . S
C1203 C1200 1.499 . S
C1203 C1204 1.373 . S
C1203 C1205 1.389 . S
C1204 H1177 0.950 . S
C1204 C1190 1.377 . S
C1204 C1203 1.373 . S
C1205 C1189 1.377 . S
C1205 C1203 1.389 . S
C1205 C1206 1.524 . S
C1206 C1205 1.524 . S
C1206 C1207 1.397 . S
C1206 C1211 1.363 . S
C1207 H1178 0.950 . S
C1207 C1206 1.397 . S
C1207 C1208 1.334 . S
C1208 H1179 0.950 . S
C1208 C1207 1.334 . S
C1208 C1209 1.287 . S
C1209 C1208 1.287 . S
C1209 C1210 1.524 . S
C1209 H1212 0.999 . S
C1210 H1180 0.950 . S
C1210 C1209 1.524 . S
C1210 C1211 1.415 . S
C1211 H1181 0.950 . S
C1211 C1206 1.363 . S
C1211 C1210 1.415 . S
H1212 C1209 0.999 . S
H1213 C1194 0.913 1_655 S
H1214 C1232 0.951 . S
H1215 C1234 0.951 . S
H1216 C1236 0.950 . S
H1217 C1237 0.950 . S
H1218 C1239 0.950 . S
H1219 C1242 0.950 . S
H1220 C1243 0.950 . S
H1221 C1245 0.950 . S
H1222 C1246 0.950 . S
H1223 C1247 0.951 . S
H1224 C1249 0.951 . S
H1225 C1251 0.950 . S
H1226 C1252 0.950 . S
H1227 C1254 0.950 . S
H1228 C1257 0.950 . S
H1229 C1258 0.950 . S
H1230 C1260 0.950 . S
H1231 C1261 0.950 . S
C1232 H1214 0.951 . S
C1232 C1233 1.366 . S
C1232 C1234 1.388 . S
C1233 C1232 1.366 . S
C1233 C1237 1.385 . S
C1234 H1215 0.951 . S
C1234 C1232 1.388 . S
C1234 C1235 1.366 . S
C1235 C1234 1.366 . S
C1235 C1236 1.414 . S
C1235 C1238 1.499 . S
C1236 H1216 0.950 . S
C1236 C1235 1.414 . S
C1236 C1237 1.374 . S
C1237 H1217 0.950 . S
C1237 C1233 1.385 . S
C1237 C1236 1.374 . S
C1238 C1235 1.499 . S
C1238 C1239 1.373 . S
C1238 C1240 1.389 . S
C1239 H1218 0.950 . S
C1239 C1238 1.373 . S
C1239 C1255 1.377 . S
C1240 C1238 1.389 . S
C1240 C1241 1.524 . S
C1240 C1254 1.377 . S
C1241 C1240 1.524 . S
C1241 C1242 1.397 . S
C1241 C1246 1.363 . S
C1242 H1219 0.950 . S
C1242 C1241 1.397 . S
C1242 C1243 1.334 . S
C1243 H1220 0.950 . S
C1243 C1242 1.334 . S
C1243 C1244 1.287 . S
C1244 C1243 1.287 . S
C1244 C1245 1.524 . S
C1244 H1263 0.913 . S
C1245 H1221 0.950 . S
C1245 C1244 1.524 . S
C1245 C1246 1.415 . S
C1246 H1222 0.950 . S
C1246 C1241 1.363 . S
C1246 C1245 1.415 . S
C1247 H1223 0.951 . S
C1247 C1248 1.366 . S
C1247 C1249 1.388 . S
C1248 C1247 1.366 . S
C1248 C1252 1.385 . S
C1249 H1224 0.951 . S
C1249 C1247 1.388 . S
C1249 C1250 1.366 . S
C1250 C1249 1.366 . S
C1250 C1251 1.414 . S
C1250 C1253 1.499 . S
C1251 H1225 0.950 . S
C1251 C1250 1.414 . S
C1251 C1252 1.374 . S
C1252 H1226 0.950 . S
C1252 C1248 1.385 . S
C1252 C1251 1.374 . S
C1253 C1250 1.499 . S
C1253 C1254 1.373 . S
C1253 C1255 1.389 . S
C1254 H1227 0.950 . S
C1254 C1240 1.377 . S
C1254 C1253 1.373 . S
C1255 C1239 1.377 . S
C1255 C1253 1.389 . S
C1255 C1256 1.524 . S
C1256 C1255 1.524 . S
C1256 C1257 1.397 . S
C1256 C1261 1.363 . S
C1257 H1228 0.950 . S
C1257 C1256 1.397 . S
C1257 C1258 1.334 . S
C1258 H1229 0.950 . S
C1258 C1257 1.334 . S
C1258 C1259 1.287 . S
C1259 C1258 1.287 . S
C1259 C1260 1.524 . S
C1259 H1262 0.999 . S
C1260 H1230 0.950 . S
C1260 C1259 1.524 . S
C1260 C1261 1.415 . S
C1261 H1231 0.950 . S
C1261 C1256 1.363 . S
C1261 C1260 1.415 . S
H1262 C1259 0.999 . S
H1263 C1244 0.913 . S
C283 N212 0.641 . S
C298 N5 0.642 . S
C333 N245 0.642 . S
C348 N38 0.640 . S
C383 N146 0.642 . S
C398 N71 0.641 . S
C433 N179 0.642 . S
C448 N104 0.641 . S
C483 N80 0.642 . S
C498 N137 0.641 . S
C533 N113 0.641 . S
C548 N170 0.642 . S
C583 N14 0.642 . S
C598 N203 0.641 . S
C633 N236 0.640 . S
C648 N47 0.642 . S
C683 C74 2.645 . S
C698 C8 2.645 . S
C733 C41 2.645 . S
C748 C107 2.645 . S
C783 C206 2.645 1_556 S
C798 C140 2.645 1_556 S
C833 C173 2.645 . S
C848 C239 2.645 . S
C883 C28 1.981 . S
C898 C259 1.981 . S
C933 C160 1.981 . S
C948 C61 1.981 . S
C983 C193 1.981 . S
C998 C94 1.981 . S
C1033 C226 1.981 . S
C1048 C127 1.981 . S
C1083 C83 1.004 . S
C1098 C182 1.003 . S
C1133 C116 1.004 . S
C1148 C215 1.003 . S
C1183 C248 1.003 . S
C1198 C17 1.004 . S
C1233 C149 1.003 . S
C1248 C50 1.004 . S
