# Generated by pormake.
# Topology xfw, (5)-cn, num edge types: 1
# Building blocks:
#     Node 0, Type 0, BuildingBlock: XOMCOT_clean_sbu_1, # of connection points: 5
#     Node 1, Type 0, BuildingBlock: XOMCOT_clean_sbu_1, # of connection points: 5
#     Node 2, Type 0, BuildingBlock: XOMCOT_clean_sbu_1, # of connection points: 5
#     Node 3, Type 0, BuildingBlock: XOMCOT_clean_sbu_1, # of connection points: 5
#     Node 4, Type 0, BuildingBlock: XOMCOT_clean_sbu_1, # of connection points: 5
#     Node 5, Type 0, BuildingBlock: XOMCOT_clean_sbu_1, # of connection points: 5
#     Node 6, Type 0, BuildingBlock: XOMCOT_clean_sbu_1, # of connection points: 5
#     Node 7, Type 0, BuildingBlock: XOMCOT_clean_sbu_1, # of connection points: 5
#     Edge 8, Type (0, 0), BuildingBlock: KIFKEQ_clean_linker_1, # of connection points: 2
#     Edge 9, Type (0, 0), BuildingBlock: KIFKEQ_clean_linker_1, # of connection points: 2
#     Edge 10, Type (0, 0), BuildingBlock: KIFKEQ_clean_linker_1, # of connection points: 2
#     Edge 11, Type (0, 0), BuildingBlock: KIFKEQ_clean_linker_1, # of connection points: 2
#     Edge 12, Type (0, 0), BuildingBlock: KIFKEQ_clean_linker_1, # of connection points: 2
#     Edge 13, Type (0, 0), BuildingBlock: KIFKEQ_clean_linker_1, # of connection points: 2
#     Edge 14, Type (0, 0), BuildingBlock: KIFKEQ_clean_linker_1, # of connection points: 2
#     Edge 15, Type (0, 0), BuildingBlock: KIFKEQ_clean_linker_1, # of connection points: 2
#     Edge 16, Type (0, 0), BuildingBlock: KIFKEQ_clean_linker_1, # of connection points: 2
#     Edge 17, Type (0, 0), BuildingBlock: KIFKEQ_clean_linker_1, # of connection points: 2
#     Edge 18, Type (0, 0), BuildingBlock: KIFKEQ_clean_linker_1, # of connection points: 2
#     Edge 19, Type (0, 0), BuildingBlock: KIFKEQ_clean_linker_1, # of connection points: 2
#     Edge 20, Type (0, 0), BuildingBlock: KIFKEQ_clean_linker_1, # of connection points: 2
#     Edge 21, Type (0, 0), BuildingBlock: KIFKEQ_clean_linker_1, # of connection points: 2
#     Edge 22, Type (0, 0), BuildingBlock: KIFKEQ_clean_linker_1, # of connection points: 2
#     Edge 23, Type (0, 0), BuildingBlock: KIFKEQ_clean_linker_1, # of connection points: 2
#     Edge 24, Type (0, 0), BuildingBlock: KIFKEQ_clean_linker_1, # of connection points: 2
#     Edge 25, Type (0, 0), BuildingBlock: KIFKEQ_clean_linker_1, # of connection points: 2
#     Edge 26, Type (0, 0), BuildingBlock: KIFKEQ_clean_linker_1, # of connection points: 2
#     Edge 27, Type (0, 0), BuildingBlock: KIFKEQ_clean_linker_1, # of connection points: 2
# Relax obj value: 0.596
# Max RMSD: 0.301
# Mean RMSD: 0.301
data_MOF--net-xfw--node1-XOMCOT_clean_sbu_1--edge1-KIFKEQ_clean_linker_1
_symmetry_space_group_name_H-M    P1
_symmetry_Int_Tables_number       1
_symmetry_cell_setting            triclinic
loop_
_symmetry_equiv_pos_as_xyz
'x, y, z'
_cell_length_a     26.831645
_cell_length_b     27.001923
_cell_length_c     61.02027
_cell_angle_alpha  90.028351
_cell_angle_beta   89.951863
_cell_angle_gamma 89.915943
loop_
_atom_site_label
_atom_site_type_symbol
_atom_site_fract_x
_atom_site_fract_y
_atom_site_fract_z
_atom_type_partial_charge
C0 C 0.336 0.04355 0.58596 0.0
C1 C 0.34011 1.00399 0.57201 0.0
N2 N 0.29424 0.9853 0.56873 0.0
N3 N 0.28783 0.04984 0.59157 0.0
C4 C 0.26321 0.01329 0.58106 0.0
H5 H 0.36597 0.0679 0.59079 0.0
Co6 Co 0.2682 0.10494 0.60733 0.0
C7 C 0.16175 0.0941 0.61912 0.0
O8 O 0.15798 0.14173 0.61501 0.0
N9 N 0.25159 0.16173 0.62372 0.0
C10 C 0.24316 0.23776 0.6374 0.0
C11 C 0.25323 0.21055 0.61882 0.0
C12 C 0.24072 0.16049 0.64531 0.0
N13 N 0.23533 0.20601 0.65403 0.0
O14 O 0.30398 0.07866 0.63209 0.0
H15 H 0.26265 0.22611 0.6031 0.0
H16 H 0.23865 0.12651 0.65466 0.0
O17 O 0.20433 0.07249 0.61687 0.0
C18 C 0.34608 0.09989 0.63463 0.0
O19 O 0.35496 0.14028 0.62325 0.0
N20 N 0.23862 0.1304 0.58161 0.0
C21 C 0.21004 0.16482 0.54031 0.0
C22 C 0.18169 0.1291 0.55129 0.0
C23 C 0.19716 0.11159 0.5716 0.0
C24 C 0.26807 0.16321 0.57063 0.0
C25 C 0.254 0.18179 0.55016 0.0
H26 H 0.17631 0.08154 0.5786 0.0
H27 H 0.30324 0.17447 0.5777 0.0
H28 H 0.22312 0.00928 0.58119 0.0
H29 H 0.37392 0.99152 0.56402 0.0
H30 H 0.24257 0.27774 0.63862 0.0
H31 H 0.14775 0.11445 0.54423 0.0
H32 H 0.27784 0.20826 0.54194 0.0
C33 C 0.05641 0.6716 0.40056 0.0
C34 C 0.01983 0.66371 0.41589 0.0
N35 N 0.99269 0.70551 0.41779 0.0
N36 N 0.05227 0.718 0.39266 0.0
C37 C 0.01299 0.73776 0.4034 0.0
H38 H 0.08537 0.64563 0.39611 0.0
Co39 Co 0.09736 0.74613 0.37331 0.0
C40 C 0.03391 0.82165 0.35117 0.0
O41 O 0.03363 0.79701 0.33262 0.0
N42 N 0.14343 0.77459 0.3538 0.0
C43 C 0.18978 0.83077 0.33666 0.0
C44 C 0.16293 0.82054 0.35527 0.0
C45 C 0.15962 0.75759 0.33421 0.0
N46 N 0.18746 0.79113 0.32328 0.0
O47 O 0.06697 0.70832 0.35024 0.0
H48 H 0.15612 0.84623 0.36851 0.0
H49 H 0.14985 0.72194 0.32764 0.0
O50 O 0.0546 0.80307 0.36808 0.0
C51 C 0.08773 0.66592 0.34858 0.0
O52 O 0.12988 0.65864 0.35909 0.0
N53 N 0.12748 0.77819 0.39698 0.0
C54 C 0.16951 0.8093 0.43641 0.0
C55 C 0.12829 0.83406 0.42747 0.0
C56 C 0.10734 0.81752 0.40797 0.0
C57 C 0.16851 0.75458 0.40494 0.0
C58 C 0.19021 0.7695 0.42468 0.0
H59 H 0.07391 0.83564 0.40237 0.0
H60 H 0.18316 0.72269 0.39633 0.0
H61 H 1.00129 0.77591 0.40165 0.0
H62 H 0.01463 0.63022 0.42534 0.0
H63 H 0.20709 0.86589 0.33287 0.0
H64 H 0.11161 0.8656 0.43565 0.0
H65 H 0.2217 0.74892 0.43103 0.0
C66 C 0.66637 0.94269 0.58337 0.0
C67 C 0.66314 0.97981 0.56817 0.0
N68 N 0.70863 1.00013 0.56579 0.0
N69 N 0.71351 0.93959 0.59078 0.0
C70 C 0.7385 0.97546 0.57994 0.0
H71 H 0.63646 0.91825 0.5882 0.0
Co72 Co 0.73125 0.8894 0.60984 0.0
C73 C 0.83555 0.90484 0.62397 0.0
O74 O 0.83986 0.85645 0.62276 0.0
N75 N 0.74581 0.83763 0.62957 0.0
C76 C 0.75664 0.76633 0.64737 0.0
C77 C 0.74903 0.78788 0.62716 0.0
C78 C 0.75114 0.84504 0.65132 0.0
N79 N 0.75742 0.80255 0.66249 0.0
O80 O 0.69165 0.92156 0.63208 0.0
H81 H 0.7453 0.76787 0.61197 0.0
H82 H 0.75065 0.88129 0.65889 0.0
O83 O 0.79335 0.92515 0.61931 0.0
C84 C 0.64934 0.90067 0.6345 0.0
O85 O 0.64164 0.85837 0.62438 0.0
N86 N 0.76486 0.85786 0.58649 0.0
C87 C 0.79744 0.8178 0.54675 0.0
C88 C 0.82407 0.85584 0.55698 0.0
C89 C 0.80667 0.87605 0.57651 0.0
C90 C 0.73781 0.82162 0.57646 0.0
C91 C 0.75395 0.80024 0.5568 0.0
H92 H 0.82578 0.90815 0.58263 0.0
H93 H 0.70253 0.81032 0.58344 0.0
H94 H 0.77812 0.98173 0.58155 0.0
H95 H 0.63 0.99008 0.55914 0.0
H96 H 0.75979 0.72711 0.65076 0.0
H97 H 0.85759 0.8709 0.54968 0.0
H98 H 0.73157 0.77177 0.54912 0.0
C99 C 0.9417 0.33595 0.40367 0.0
C100 C 0.98047 0.33802 0.41824 0.0
N101 N 1.00284 0.29332 0.41869 0.0
N102 N 0.93965 0.29034 0.39481 0.0
C103 C 0.97754 0.2651 0.40415 0.0
H104 H 0.91589 0.36561 0.40006 0.0
Co105 Co 0.89016 0.27327 0.3753 0.0
C106 C 0.91277 0.17349 0.35705 0.0
O107 O 0.86458 0.16518 0.35678 0.0
N108 N 0.83918 0.25918 0.35518 0.0
C109 C 0.76836 0.2478 0.33688 0.0
C110 C 0.7892 0.25517 0.35729 0.0
C111 C 0.84746 0.25498 0.33345 0.0
N112 N 0.80536 0.24746 0.32197 0.0
O113 O 0.92064 0.31652 0.35416 0.0
H114 H 0.76871 0.25786 0.37246 0.0
H115 H 0.88412 0.25767 0.32616 0.0
O116 O 0.92957 0.21489 0.36446 0.0
C117 C 0.89796 0.35797 0.35278 0.0
O118 O 0.8558 0.36332 0.36353 0.0
N119 N 0.85986 0.23554 0.39759 0.0
C120 C 0.82278 0.19746 0.43694 0.0
C121 C 0.85999 0.17238 0.42526 0.0
C122 C 0.8787 0.19247 0.40596 0.0
C123 C 0.82369 0.26058 0.40876 0.0
C124 C 0.80404 0.24188 0.42832 0.0
H125 H 0.91048 0.17451 0.39884 0.0
H126 H 0.81151 0.29642 0.40292 0.0
H127 H 0.98514 0.22639 0.40105 0.0
H128 H 0.99081 0.36988 0.42798 0.0
H129 H 0.72917 0.24277 0.33336 0.0
H130 H 0.87573 0.13804 0.43129 0.0
H131 H 0.77608 0.26309 0.43706 0.0
C132 C 0.67952 0.05104 0.08715 0.0
C133 C 0.67741 0.0141 0.07172 0.0
N134 N 0.72436 0.99996 0.06704 0.0
N135 N 0.72757 0.06015 0.09215 0.0
C136 C 0.75412 0.02829 0.07971 0.0
H137 H 0.64806 0.0714 0.09361 0.0
Co138 Co 0.74833 0.11118 0.11019 0.0
C139 C 0.82217 0.04451 0.13339 0.0
O140 O 0.79113 0.03087 0.1489 0.0
N141 N 0.76777 0.16254 0.12846 0.0
C142 C 0.77694 0.23689 0.14347 0.0
C143 C 0.76654 0.21161 0.12439 0.0
C144 C 0.77886 0.15881 0.1499 0.0
N145 N 0.78449 0.2034 0.1595 0.0
O146 O 0.70851 0.0833 0.13327 0.0
H147 H 0.75661 0.22793 0.1088 0.0
H148 H 0.77911 0.12411 0.15869 0.0
O149 O 0.80756 0.07371 0.11831 0.0
C150 C 0.66762 0.10653 0.13622 0.0
O151 O 0.66121 0.14879 0.1259 0.0
N152 N 0.78388 0.13937 0.08692 0.0
C153 C 0.83221 0.17523 0.04986 0.0
C154 C 0.85875 0.16689 0.0693 0.0
C155 C 0.83382 0.14892 0.08773 0.0
C156 C 0.75706 0.15004 0.06855 0.0
C157 C 0.78066 0.16724 0.04968 0.0
H158 H 0.8547 0.14259 0.1026 0.0
H159 H 0.71723 0.14402 0.06839 0.0
H160 H 0.79444 0.02799 0.07897 0.0
H161 H 0.64403 0.99974 0.06407 0.0
H162 H 0.77738 0.2767 0.14549 0.0
H163 H 0.89858 0.17314 0.0701 0.0
H164 H 0.7588 0.17435 0.03509 0.0
C165 C 0.08515 0.33481 0.90297 0.0
C166 C 0.05044 0.33433 0.91946 0.0
N167 N 0.02899 0.2892 0.91996 0.0
N168 N 0.08574 0.29035 0.89304 0.0
C169 C 0.051 0.26325 0.90361 0.0
H170 H 0.10985 0.36509 0.89894 0.0
Co171 Co 0.13193 0.27632 0.87161 0.0
C172 C 0.10596 0.17973 0.8509 0.0
O173 O 0.15378 0.17179 0.84796 0.0
N174 N 0.17998 0.26542 0.84973 0.0
C175 C 0.24915 0.25597 0.83001 0.0
C176 C 0.23005 0.26057 0.85087 0.0
C177 C 0.1699 0.26466 0.82805 0.0
N178 N 0.21105 0.25836 0.81571 0.0
O179 O 0.09736 0.32143 0.8526 0.0
H180 H 0.25179 0.26052 0.86573 0.0
H181 H 0.13268 0.26853 0.82147 0.0
O182 O 0.09114 0.21953 0.86053 0.0
C183 C 0.1184 0.3629 0.84888 0.0
O184 O 0.16383 0.3702 0.85622 0.0
N185 N 0.16587 0.23573 0.89188 0.0
C186 C 0.20758 0.19173 0.92907 0.0
C187 C 0.16982 0.168 0.91727 0.0
C188 C 0.14903 0.1908 0.89903 0.0
C189 C 0.20249 0.25958 0.90321 0.0
C190 C 0.22436 0.23802 0.92171 0.0
H191 H 0.11683 0.17345 0.8921 0.0
H192 H 0.21337 0.29655 0.89835 0.0
H193 H 0.04297 0.225 0.89977 0.0
H194 H 0.04352 0.36421 0.93088 0.0
H195 H 0.28796 0.25058 0.82577 0.0
H196 H 0.15394 0.13338 0.92288 0.0
H197 H 0.25306 0.25801 0.93048 0.0
C198 C 0.33974 0.96591 0.08686 0.0
C199 C 0.33973 1.0039 0.07197 0.0
N200 N 0.2922 0.01761 0.06846 0.0
N201 N 0.2925 0.95587 0.09292 0.0
C202 C 0.26422 0.98816 0.08146 0.0
H203 H 0.37214 0.94538 0.09218 0.0
Co204 Co 0.27776 0.90351 0.11141 0.0
C205 C 0.17477 0.91609 0.12828 0.0
O206 O 0.17081 0.86771 0.12688 0.0
N207 N 0.26604 0.84993 0.1305 0.0
C208 C 0.25678 0.77733 0.14726 0.0
C209 C 0.26401 0.80044 0.12737 0.0
C210 C 0.26077 0.85564 0.15235 0.0
N211 N 0.25467 0.81233 0.16298 0.0
O212 O 0.31795 0.93486 0.13361 0.0
H213 H 0.2677 0.78179 0.11181 0.0
H214 H 0.2617 0.89142 0.16027 0.0
O215 O 0.21552 0.93724 0.1222 0.0
C216 C 0.36047 0.91398 0.13547 0.0
O217 O 0.36827 0.87263 0.1246 0.0
N218 N 0.24356 0.87254 0.08816 0.0
C219 C 0.21048 0.83309 0.04844 0.0
C220 C 0.18144 0.86746 0.05997 0.0
C221 C 0.19891 0.88733 0.07955 0.0
C222 C 0.27257 0.83952 0.07701 0.0
C223 C 0.25641 0.81861 0.0573 0.0
H224 H 0.17731 0.91661 0.0868 0.0
H225 H 0.30926 0.83049 0.08318 0.0
H226 H 0.22397 0.9892 0.08203 0.0
H227 H 0.3719 0.01805 0.06328 0.0
H228 H 0.25309 0.73786 0.14981 0.0
H229 H 0.14587 0.87995 0.05364 0.0
H230 H 0.28049 0.79297 0.04865 0.0
C231 C 0.96858 0.68038 0.89743 0.0
C232 C 1.00525 0.67379 0.91285 0.0
N233 N 0.02822 0.71756 0.91604 0.0
N234 N 0.96852 0.72796 0.89082 0.0
C235 C 1.00542 0.74968 0.90233 0.0
H236 H 0.94242 0.65259 0.89199 0.0
Co237 Co 0.9217 0.75488 0.87201 0.0
C238 C 0.98228 0.82991 0.84857 0.0
O239 O 0.98179 0.80435 0.83026 0.0
N240 N 0.87373 0.78234 0.85289 0.0
C241 C 0.82107 0.83578 0.83736 0.0
C242 C 0.84838 0.82523 0.85581 0.0
C243 C 0.861 0.76782 0.83243 0.0
N244 N 0.82918 0.79955 0.82268 0.0
O245 O 0.95182 0.71734 0.84884 0.0
H246 H 0.85089 0.84891 0.87002 0.0
H247 H 0.87687 0.73636 0.82407 0.0
O248 O 0.96295 0.81206 0.86594 0.0
C249 C 0.93216 0.67495 0.84569 0.0
O250 O 0.88899 0.66531 0.85494 0.0
N251 N 0.89244 0.78702 0.89599 0.0
C252 C 0.85106 0.8206 0.93521 0.0
C253 C 0.89046 0.84615 0.92526 0.0
C254 C 0.91109 0.82848 0.90587 0.0
C255 C 0.85331 0.76229 0.90504 0.0
C256 C 0.83191 0.77846 0.92469 0.0
H257 H 0.94286 0.84785 0.89937 0.0
H258 H 0.83973 0.72892 0.89727 0.0
H259 H 0.01353 0.78886 0.90161 0.0
H260 H 0.01331 0.63972 0.92148 0.0
H261 H 0.79815 0.86826 0.83476 0.0
H262 H 0.90584 0.87941 0.9325 0.0
H263 H 0.80182 0.75729 0.93188 0.0
H264 H 0.2181 0.91975 0.56977 0.0
H265 H 0.33821 0.97385 0.52932 0.0
H266 H 0.19053 0.86635 0.53974 0.0
H267 H 0.31021 0.92255 0.49927 0.0
H268 H 0.26732 0.81202 0.4496 0.0
H269 H 0.30019 0.84363 0.48402 0.0
H270 H 0.15028 0.87613 0.50586 0.0
H271 H 0.11745 0.84093 0.47236 0.0
C272 C 0.23866 0.91994 0.5545 0.0
C273 C 0.28029 0.95077 0.55189 0.0
C274 C 0.22289 0.88959 0.53727 0.0
C275 C 0.24804 0.89014 0.51699 0.0
C276 C 0.2905 0.92012 0.51472 0.0
C277 C 0.30655 0.9498 0.53198 0.0
C278 C 0.24134 0.82479 0.46197 0.0
C279 C 0.18978 0.82482 0.45799 0.0
C280 C 0.26021 0.84351 0.48163 0.0
C281 C 0.22799 0.86326 0.49764 0.0
C282 C 0.17633 0.86103 0.49406 0.0
C283 C 0.15748 0.84168 0.47458 0.0
H284 H 0.80303 0.72105 0.53348 0.0
H285 H 0.83039 0.87068 0.51164 0.0
H286 H 0.84046 0.68926 0.4997 0.0
H287 H 0.86934 0.83922 0.47848 0.0
H288 H 0.91763 0.77254 0.41502 0.0
H289 H 0.85967 0.79599 0.44413 0.0
H290 H 0.92565 0.68601 0.48661 0.0
H291 H 0.98293 0.66258 0.45768 0.0
C292 C 0.81644 0.74709 0.52134 0.0
C293 C 0.81462 0.79827 0.52534 0.0
C294 C 0.8382 0.72895 0.5021 0.0
C295 C 0.85835 0.7617 0.4865 0.0
C296 C 0.85391 0.81293 0.49003 0.0
C297 C 0.83221 0.83098 0.5092 0.0
C298 C 0.91944 0.75321 0.43054 0.0
C299 C 0.95517 0.71597 0.43405 0.0
C300 C 0.88622 0.76655 0.44719 0.0
C301 C 0.88818 0.74301 0.46773 0.0
C302 C 0.92251 0.70436 0.4709 0.0
C303 C 0.95555 0.69097 0.45426 0.0
H304 H 0.78585 0.06499 0.56733 0.0
H305 H 0.66474 0.0147 0.52643 0.0
H306 H 0.81225 0.12161 0.53826 0.0
H307 H 0.69096 0.07032 0.49763 0.0
H308 H 0.72725 0.19448 0.4528 0.0
H309 H 0.69821 0.1551 0.48645 0.0
H310 H 0.84984 0.11492 0.50249 0.0
H311 H 0.87896 0.15641 0.46957 0.0
C312 C 0.76483 0.06611 0.55221 0.0
C313 C 0.72311 0.03544 0.54927 0.0
C314 C 0.77986 0.09852 0.53557 0.0
C315 C 0.75355 0.10069 0.51564 0.0
C316 C 0.71141 0.07057 0.51293 0.0
C317 C 0.69638 0.03846 0.5295 0.0
C318 C 0.75442 0.17813 0.46375 0.0
C319 C 0.80527 0.17774 0.4583 0.0
C320 C 0.73778 0.15516 0.48293 0.0
C321 C 0.77164 0.13123 0.49702 0.0
C322 C 0.82274 0.13315 0.49211 0.0
C323 C 0.83935 0.15627 0.47302 0.0
H324 H 0.21148 0.26078 0.52604 0.0
H325 H 0.16976 0.11295 0.50616 0.0
H326 H 0.17159 0.29424 0.49333 0.0
H327 H 0.12778 0.1465 0.47413 0.0
H328 H 0.06945 0.21857 0.41282 0.0
H329 H 0.13112 0.18914 0.43929 0.0
H330 H 0.08462 0.30319 0.48465 0.0
H331 H 0.02381 0.33235 0.45846 0.0
C332 C 0.19456 0.23536 0.51451 0.0
C333 C 0.19288 0.18435 0.51889 0.0
C334 C 0.17127 0.25455 0.49588 0.0
C335 C 0.14571 0.22313 0.48134 0.0
C336 C 0.14718 0.17177 0.48494 0.0
C337 C 0.17065 0.15259 0.50348 0.0
C338 C 0.07268 0.23741 0.42841 0.0
C339 C 0.0416 0.27777 0.4335 0.0
C340 C 0.10805 0.22067 0.44354 0.0
C341 C 0.11293 0.24394 0.46406 0.0
C342 C 0.08274 0.28508 0.46884 0.0
C343 C 0.04761 0.30177 0.45377 0.0
H344 H 0.75368 0.82188 0.94911 0.0
H345 H 0.90325 0.85803 0.96987 0.0
H346 H 0.72098 0.8564 0.98311 0.0
H347 H 0.87052 0.89575 0.00289 0.0
H348 H 0.80402 0.93879 0.06724 0.0
H349 H 0.83251 0.88597 0.03719 0.0
H350 H 0.70847 0.9361 -0.0023 0.0
H351 H 0.67946 0.9869 0.02798 0.0
C352 C 0.77962 0.83688 0.96096 0.0
C353 C 0.83101 0.83794 0.95657 0.0
C354 C 0.76083 0.85726 0.98035 0.0
C355 C 0.79299 0.87954 -0.00433 0.0
C356 C 0.84455 0.87864 -0.00836 0.0
C357 C 0.86331 0.85775 0.97244 0.0
C358 C 0.78284 0.93797 0.05215 0.0
C359 C 0.73965 0.96683 0.04989 0.0
C360 C 0.79911 0.90791 0.03492 0.0
C361 C 0.77293 0.90684 0.01492 0.0
C362 C 0.72908 0.93506 0.01294 0.0
C363 C 0.7125 0.96445 0.03027 0.0
H364 H 0.89822 0.25122 0.04591 0.0
H365 H 0.82494 0.13633 0.00877 0.0
H366 H 0.94205 0.27808 0.01283 0.0
H367 H 0.86901 0.16313 0.97563 0.0
H368 H 0.01323 0.19369 0.93252 0.0
H369 H 0.96175 0.16556 0.96306 0.0
H370 H 0.91656 0.31629 0.97577 0.0
H371 H 0.96648 0.34446 0.94492 0.0
C372 C 0.89161 0.23175 0.03066 0.0
C373 C 0.85824 0.19183 0.02982 0.0
C374 C 0.91634 0.24727 0.01175 0.0
C375 C 0.90868 0.22271 -0.00827 0.0
C376 C 0.87559 0.18254 0.9909 0.0
C377 C 0.85023 0.16749 0.00977 0.0
C378 C 0.99154 0.22078 0.94147 0.0
C379 C 0.99465 0.27152 0.93638 0.0
C380 C 0.9622 0.20462 0.95901 0.0
C381 C 0.93582 0.2389 0.97189 0.0
C382 C 0.93731 0.28924 0.96632 0.0
C383 C 0.96607 0.30533 0.94867 0.0
H384 H 0.22646 0.09426 0.93766 0.0
H385 H 0.22795 0.23914 0.96785 0.0
H386 H 0.24344 0.05641 0.9731 0.0
H387 H 0.24657 0.20096 0.00328 0.0
H388 H 0.33576 0.10204 0.05483 0.0
H389 H 0.31633 0.14814 0.02133 0.0
H390 H 0.19288 0.04971 0.00886 0.0
H391 H 0.21241 1.0037 0.04227 0.0
C392 C 0.23068 0.11806 0.95183 0.0
C393 C 0.22534 0.1697 0.94995 0.0
C394 C 0.24025 0.09635 0.97211 0.0
C395 C 0.24539 0.12578 0.99092 0.0
C396 C 0.24261 0.17752 0.98898 0.0
C397 C 0.2324 0.19932 0.96867 0.0
C398 C 0.30399 0.09094 0.04507 0.0
C399 C 0.27565 0.04935 0.05104 0.0
C400 C 0.29284 0.1173 0.026 0.0
C401 C 0.25355 0.102 0.01245 0.0
C402 C 0.22376 0.06183 0.01895 0.0
C403 C 0.23452 0.0359 0.03816 0.0
H404 H 0.04096 0.67051 0.95488 0.0
H405 H 0.09601 0.79189 0.91567 0.0
H406 H 0.09403 0.69606 0.98499 0.0
H407 H 0.14952 0.81753 0.94594 0.0
H408 H 0.16927 0.88623 0.01512 0.0
H409 H 0.13306 0.855 0.98134 0.0
H410 H 0.17856 0.70652 -0.00128 0.0
H411 H 0.21338 0.7378 0.03307 0.0
C412 C 0.06524 0.70198 0.95246 0.0
C413 C 0.06385 0.72944 0.93289 0.0
C414 C 0.09581 0.71662 0.96977 0.0
C415 C 0.12578 0.75902 0.96792 0.0
C416 C 0.12619 0.78516 0.948 0.0
C417 C 0.09552 0.77053 0.93067 0.0
C418 C 0.17155 0.8469 0.01173 0.0
C419 C 0.19336 0.81431 0.02691 0.0
C420 C 0.15144 0.82909 -0.00779 0.0
C421 C 0.15275 0.77823 0.98737 0.0
C422 C 0.17647 0.74584 0.00212 0.0
C423 C 0.19672 0.76374 0.02169 0.0
H424 H 0.55306 0.8699 0.6355 0.0
H425 H 0.64722 0.99172 0.65503 0.0
H426 H 0.47992 0.91861 0.64323 0.0
H427 H 0.57325 0.04016 0.66437 0.0
H428 H 0.44163 0.13231 0.63761 0.0
H429 H 0.5149 0.08348 0.64494 0.0
H430 H 0.42178 0.95981 0.6637 0.0
H431 H 0.3478 0.00837 0.65469 0.0
C432 C 0.55823 0.90678 0.64211 0.0
C433 C 0.60614 0.92728 0.64415 0.0
C434 C 0.51585 0.93483 0.64682 0.0
C435 C 0.52001 0.98407 0.65413 0.0
C436 C 0.56822 1.00298 0.65812 0.0
C437 C 0.61082 0.97507 0.65298 0.0
C438 C 0.43654 0.09494 0.64365 0.0
C439 C 0.38873 0.07387 0.64499 0.0
C440 C 0.47898 0.06679 0.64812 0.0
C441 C 0.47491 0.01689 0.65448 0.0
C442 C 0.42674 0.9975 0.6581 0.0
C443 C 0.38411 0.02552 0.6532 0.0
H444 H 0.12271 0.5719 0.3452 0.0
H445 H 0.99324 0.66144 0.33098 0.0
H446 H 0.07509 0.49764 0.33899 0.0
H447 H 0.9456 0.58641 0.32327 0.0
H448 H 0.86413 0.45279 0.354 0.0
H449 H 0.90941 0.52727 0.34533 0.0
H450 H 0.031 0.43908 0.31971 0.0
H451 H 0.98623 0.36377 0.32983 0.0
C452 C 0.08428 0.57581 0.34005 0.0
C453 C 0.06146 0.62266 0.33913 0.0
C454 C 0.05685 0.53285 0.33623 0.0
C455 C 1.00587 0.53547 0.33102 0.0
C456 C 0.98434 0.58269 0.32791 0.0
C457 C 0.01176 0.62586 0.33209 0.0
C458 C 0.90023 0.44906 0.34622 0.0
C459 C 0.92202 0.40221 0.34307 0.0
C460 C 0.92621 0.49216 0.34097 0.0
C461 C 0.97452 0.48974 0.33207 0.0
C462 C 0.9945 0.44265 0.32712 0.0
C463 C 0.96872 0.39933 0.33275 0.0
H464 H 0.57229 0.14064 0.13741 0.0
H465 H 0.66301 0.01602 0.15692 0.0
H466 H 0.49777 0.09374 0.14472 0.0
H467 H 0.58775 0.96951 0.16583 0.0
H468 H 0.45594 0.88095 0.1375 0.0
H469 H 0.52974 0.92844 0.14521 0.0
H470 H 0.4381 0.05295 0.16469 0.0
H471 H 0.3635 0.00565 0.15541 0.0
C472 C 0.5764 0.10358 0.14396 0.0
C473 C 0.62372 0.08168 0.14605 0.0
C474 C 0.53326 0.07659 0.1484 0.0
C475 C 0.53615 0.02709 0.15548 0.0
C476 C 0.58376 0.00691 0.15971 0.0
C477 C 0.62708 0.03373 0.15483 0.0
C478 C 0.45128 0.91823 0.14375 0.0
C479 C 0.40372 0.93987 0.14532 0.0
C480 C 0.494 0.94557 0.14845 0.0
C481 C 0.49051 0.99523 0.15526 0.0
C482 C 0.44258 0.01535 0.15885 0.0
C483 C 0.39963 0.9881 0.15375 0.0
H484 H 0.1557 0.44474 0.8287 0.0
H485 H 0.01771 0.37727 0.84929 0.0
H486 H 0.11144 0.52115 0.82007 0.0
H487 H 0.97365 0.45411 0.84181 0.0
H488 H 0.8967 0.59234 0.82561 0.0
H489 H 0.942 0.51548 0.8189 0.0
H490 H 0.07804 0.58585 0.84064 0.0
H491 H 0.03301 0.663 0.84613 0.0
C492 C 0.1157 0.44612 0.8311 0.0
C493 C 0.09018 0.40523 0.83982 0.0
C494 C 0.09034 0.49007 0.82633 0.0
C495 C 0.03896 0.49448 0.83057 0.0
C496 C 0.01303 0.45231 0.83803 0.0
C497 C 0.03831 0.40808 0.84243 0.0
C498 C 0.93663 0.59162 0.82824 0.0
C499 C 0.96133 0.63348 0.83648 0.0
C500 C 0.96256 0.54741 0.82466 0.0
C501 C 0.01361 0.54377 0.82969 0.0
C502 C 0.03892 0.58697 0.83635 0.0
C503 C 0.0131 0.63145 0.83954 0.0
H504 H 0.06956 0.12197 0.60588 0.0
H505 H 0.14681 1.00271 0.63851 0.0
H506 H 0.99168 0.07801 0.60918 0.0
H507 H 0.06749 0.95919 0.64314 0.0
H508 H 0.93034 0.86927 0.62477 0.0
H509 H 1.00769 0.91433 0.62519 0.0
H510 H 0.92598 0.05207 0.63037 0.0
H511 H 0.84748 0.00627 0.6285 0.0
C512 C 0.0698 0.08648 0.61415 0.0
C513 C 0.11463 0.06587 0.62196 0.0
C514 C 0.02464 0.0613 0.61625 0.0
C515 C 0.02241 0.01488 0.62659 0.0
C516 C 0.06737 0.99444 0.63472 0.0
C517 C 0.11302 0.01941 0.6322 0.0
C518 C 0.9285 0.90922 0.62611 0.0
C519 C 0.88228 0.93409 0.62646 0.0
C520 C 0.9734 0.93525 0.62657 0.0
C521 C 0.97391 0.9872 0.62778 0.0
C522 C 0.92754 0.01215 0.62894 0.0
C523 C 0.88229 0.98594 0.62808 0.0
H524 H 0.07975 0.89707 0.37276 0.0
H525 H 0.95646 0.86631 0.32967 0.0
H526 H 0.06052 0.98472 0.37164 0.0
H527 H 0.93402 0.95375 0.32982 0.0
H528 H 0.9136 0.11489 0.32123 0.0
H529 H 0.94804 0.03178 0.31834 0.0
H530 H 0.01236 0.04791 0.38302 0.0
H531 H 0.98175 0.13256 0.38463 0.0
C532 C 0.04768 0.90903 0.36342 0.0
C533 C 0.01927 0.87465 0.35149 0.0
C534 C 0.03641 0.95965 0.36279 0.0
C535 C 0.99546 0.97743 0.35066 0.0
C536 C 0.96667 0.94249 0.33893 0.0
C537 C 0.97897 0.89196 0.33905 0.0
C538 C 0.93687 0.10108 0.3344 0.0
C539 C 0.9453 0.13024 0.35306 0.0
C540 C 0.95571 0.05283 0.33304 0.0
C541 C 0.98195 0.0316 0.35071 0.0
C542 C 0.99279 0.06225 0.36889 0.0
C543 C 0.97523 0.11118 0.3699 0.0
H544 H 0.14564 0.00873 0.11371 0.0
H545 H 0.09798 0.88509 0.15324 0.0
H546 H 0.06182 0.04492 0.11665 0.0
H547 H 0.01489 0.91969 0.15561 0.0
H548 H 0.87332 1.00336 0.16774 0.0
H549 H 0.96127 0.98099 0.16933 0.0
H550 H 0.98001 0.02891 0.10227 0.0
H551 H 0.8924 0.05264 0.10096 0.0
C552 C 0.11767 0.98991 0.12342 0.0
C553 C 0.12842 0.94406 0.13322 0.0
C554 C 0.06939 0.01017 0.12486 0.0
C555 C 0.03109 0.98509 0.13621 0.0
C556 C 0.04309 0.94059 0.14693 0.0
C557 C 0.09093 0.9205 0.14547 0.0
C558 C 0.89617 0.00907 0.15332 0.0
C559 C 0.87557 0.02952 0.13419 0.0
C560 C 0.94677 0.99623 0.15421 0.0
C561 C 0.97816 1.00297 0.1359 0.0
C562 C 0.95751 0.0239 0.11683 0.0
C563 C 0.90698 0.0371 0.11601 0.0
H564 H 0.93533 0.90643 0.86891 0.0
H565 H 0.05977 0.87299 0.82669 0.0
H566 H 0.9551 0.9941 0.86713 0.0
H567 H 0.08219 0.96039 0.82594 0.0
H568 H 0.10182 0.12049 0.81533 0.0
H569 H 0.06606 0.03791 0.81324 0.0
H570 H 1.00595 0.05633 0.87861 0.0
H571 H 0.03825 0.14043 0.87961 0.0
C572 C 0.96774 0.91787 0.85963 0.0
C573 C 0.99653 0.88283 0.8482 0.0
C574 C 0.97918 0.96836 0.85858 0.0
C575 C 0.02044 0.98521 0.84641 0.0
C576 C 0.04937 0.94965 0.83507 0.0
C577 C 0.03706 0.89924 0.83569 0.0
C578 C 0.07931 0.10732 0.82888 0.0
C579 C 0.07275 0.13682 0.8476 0.0
C580 C 0.05964 0.05945 0.82794 0.0
C581 C 0.03428 0.03909 0.84603 0.0
C582 C 0.02495 0.07016 0.86423 0.0
C583 C 0.04346 0.11871 0.86487 0.0
H584 H 0.26673 0.28758 0.67598 0.0
H585 H 0.18673 0.15002 0.6838 0.0
H586 H 0.25858 0.30355 0.71521 0.0
H587 H 0.18045 0.16482 0.72299 0.0
H588 H 0.13758 0.2256 0.78901 0.0
H589 H 0.14031 0.21785 0.7494 0.0
H590 H 0.29249 0.27 0.74933 0.0
H591 H 0.28894 0.28007 0.78904 0.0
C592 C 0.24705 0.26099 0.68602 0.0
C593 C 0.22761 0.2174 0.67682 0.0
C594 C 0.24294 0.26983 0.70852 0.0
C595 C 0.21915 0.23531 0.72221 0.0
C596 C 0.19863 0.19237 0.71288 0.0
C597 C 0.20272 0.18359 0.69045 0.0
C598 C 0.17138 0.23625 0.78058 0.0
C599 C 0.21302 0.25367 0.79222 0.0
C600 C 0.17312 0.23122 0.75786 0.0
C601 C 0.21664 0.24319 0.74623 0.0
C602 C 0.25821 0.26099 0.75781 0.0
C603 C 0.25642 0.26614 0.78058 0.0
H604 H 0.22484 0.88194 0.19244 0.0
H605 H 0.26792 0.7279 0.18684 0.0
H606 H 0.21641 0.87245 0.23168 0.0
H607 H 0.25708 0.7183 0.2264 0.0
H608 H 0.25578 0.8502 0.30323 0.0
H609 H 0.27596 0.85214 0.26435 0.0
H610 H 0.18015 0.72656 0.25321 0.0
H611 H 0.15819 0.72525 0.29174 0.0
C612 C 0.23315 0.84614 0.19946 0.0
C613 C 0.24784 0.80585 0.18628 0.0
C614 C 0.22811 0.84079 0.22204 0.0
C615 C 0.23672 0.79487 0.23201 0.0
C616 C 0.25037 0.75416 0.219 0.0
C617 C 0.25625 0.75967 0.19634 0.0
C618 C 0.23882 0.82295 0.29262 0.0
C619 C 0.20454 0.78819 0.30084 0.0
C620 C 0.25071 0.82395 0.27036 0.0
C621 C 0.22929 0.7897 0.25588 0.0
C622 C 0.19739 0.75315 0.26412 0.0
C623 C 0.1849 0.75253 0.28633 0.0
H624 H 0.81164 0.71788 0.79821 0.0
H625 H 0.81077 0.87769 0.79623 0.0
H626 H 0.78933 0.71525 0.75943 0.0
H627 H 0.78931 0.87529 0.75757 0.0
H628 H 0.71183 0.85844 0.6931 0.0
H629 H 0.72396 0.85493 0.73259 0.0
H630 H 0.82656 0.73274 0.72421 0.0
H631 H 0.81327 0.73582 0.68458 0.0
C632 C 0.80668 0.7524 0.78947 0.0
C633 C 0.8129 0.79798 0.80024 0.0
C634 C 0.79403 0.75092 0.76727 0.0
C635 C 0.78757 0.79504 0.75539 0.0
C636 C 0.79307 0.84059 0.76631 0.0
C637 C 0.8054 0.84203 0.78849 0.0
C638 C 0.73694 0.83085 0.69974 0.0
C639 C 0.76215 0.7978 0.68583 0.0
C640 C 0.74394 0.82884 0.72234 0.0
C641 C 0.7767 0.79398 0.73155 0.0
C642 C 0.80069 0.75976 0.71767 0.0
C643 C 0.79327 0.76153 0.695 0.0
H644 H 0.72693 0.26993 0.29571 0.0
H645 H 0.87606 0.20943 0.29524 0.0
H646 H 0.72273 0.26031 0.25592 0.0
H647 H 0.87291 0.20221 0.25566 0.0
H648 H 0.82943 0.14311 0.18876 0.0
H649 H 0.83267 0.15338 0.22826 0.0
H650 H 0.75826 0.29481 0.22237 0.0
H651 H 0.75286 0.2833 0.18277 0.0
C652 C 0.75872 0.25458 0.28714 0.0
C653 C 0.8019 0.24074 0.29862 0.0
C654 C 0.75661 0.24968 0.26434 0.0
C655 C 0.79759 0.23072 0.25262 0.0
C656 C 0.84052 0.21655 0.26418 0.0
C657 C 0.84256 0.22129 0.28688 0.0
C658 C 0.81355 0.1763 0.19587 0.0
C659 C 0.7906 0.21221 0.18261 0.0
C660 C 0.81584 0.18244 0.21851 0.0
C661 C 0.79559 0.22487 0.22847 0.0
C662 C 0.77359 0.26138 0.2152 0.0
C663 C 0.77116 0.25514 0.19248 0.0
loop_
_geom_bond_atom_site_label_1
_geom_bond_atom_site_label_2
_geom_bond_distance
_geom_bond_site_symmetry_2
_ccdc_geom_bond_type
C0 C1 1.351 . S
C0 N3 1.368 . S
C0 H5 0.931 . S
C1 C0 1.351 . S
C1 N2 1.373 . S
C1 H29 0.930 . S
N2 C1 1.373 . S
N2 C4 1.340 . S
N3 C0 1.368 . S
N3 C4 1.321 . S
N3 Co6 2.135 . S
C4 N2 1.340 . S
C4 N3 1.321 . S
C4 H28 0.930 . S
H5 C0 0.931 . S
Co6 N3 2.135 . S
Co6 N9 2.121 . S
Co6 O14 2.055 . S
Co6 O17 2.039 . S
Co6 N20 2.140 . S
C7 O8 1.227 . S
C7 O17 1.265 . S
O8 C7 1.227 . S
N9 Co6 2.121 . S
N9 C11 1.375 . S
N9 C12 1.313 . S
C10 C11 1.338 . S
C10 N13 1.377 . S
C10 H30 0.930 . S
C11 N9 1.375 . S
C11 C10 1.338 . S
C11 H15 0.931 . S
C12 N9 1.313 . S
C12 N13 1.344 . S
C12 H16 0.930 . S
N13 C10 1.377 . S
N13 C12 1.344 . S
O14 Co6 2.055 . S
O14 C18 1.253 . S
H15 C11 0.931 . S
H16 C12 0.930 . S
O17 Co6 2.039 . S
O17 C7 1.265 . S
C18 O14 1.253 . S
C18 O19 1.227 . S
O19 C18 1.227 . S
N20 Co6 2.140 . S
N20 C23 1.346 . S
N20 C24 1.345 . S
C21 C22 1.387 . S
C21 C25 1.391 . S
C22 C21 1.387 . S
C22 C23 1.369 . S
C22 H31 0.929 . S
C23 N20 1.346 . S
C23 C22 1.369 . S
C23 H26 0.928 . S
C24 N20 1.345 . S
C24 C25 1.371 . S
C24 H27 0.931 . S
C25 C21 1.391 . S
C25 C24 1.371 . S
C25 H32 0.930 . S
H26 C23 0.928 . S
H27 C24 0.931 . S
H28 C4 0.930 . S
H29 C1 0.930 . S
H30 C10 0.930 . S
H31 C22 0.929 . S
H32 C25 0.930 . S
C33 C34 1.351 . S
C33 N36 1.368 . S
C33 H38 0.931 . S
C34 C33 1.351 . S
C34 N35 1.373 . S
C34 H62 0.930 . S
N35 C34 1.373 . S
N35 C37 1.340 . S
N36 C33 1.368 . S
N36 C37 1.321 . S
N36 Co39 2.135 . S
C37 N35 1.340 . S
C37 N36 1.321 . S
C37 H61 0.930 . S
H38 C33 0.931 . S
Co39 N36 2.135 . S
Co39 N42 2.121 . S
Co39 O47 2.055 . S
Co39 O50 2.039 . S
Co39 N53 2.140 . S
C40 O41 1.227 . S
C40 O50 1.265 . S
O41 C40 1.227 . S
N42 Co39 2.121 . S
N42 C44 1.375 . S
N42 C45 1.313 . S
C43 C44 1.338 . S
C43 N46 1.377 . S
C43 H63 0.930 . S
C44 N42 1.375 . S
C44 C43 1.338 . S
C44 H48 0.931 . S
C45 N42 1.313 . S
C45 N46 1.344 . S
C45 H49 0.930 . S
N46 C43 1.377 . S
N46 C45 1.344 . S
O47 Co39 2.055 . S
O47 C51 1.253 . S
H48 C44 0.931 . S
H49 C45 0.930 . S
O50 Co39 2.039 . S
O50 C40 1.265 . S
C51 O47 1.253 . S
C51 O52 1.227 . S
O52 C51 1.227 . S
N53 Co39 2.140 . S
N53 C56 1.346 . S
N53 C57 1.345 . S
C54 C55 1.387 . S
C54 C58 1.391 . S
C55 C54 1.387 . S
C55 C56 1.369 . S
C55 H64 0.929 . S
C56 N53 1.346 . S
C56 C55 1.369 . S
C56 H59 0.928 . S
C57 N53 1.345 . S
C57 C58 1.371 . S
C57 H60 0.931 . S
C58 C54 1.391 . S
C58 C57 1.371 . S
C58 H65 0.930 . S
H59 C56 0.928 . S
H60 C57 0.931 . S
H61 C37 0.930 . S
H62 C34 0.930 . S
H63 C43 0.930 . S
H64 C55 0.929 . S
H65 C58 0.930 . S
C66 C67 1.351 . S
C66 N69 1.368 . S
C66 H71 0.931 . S
C67 C66 1.351 . S
C67 N68 1.373 . S
C67 H95 0.930 . S
N68 C67 1.373 . S
N68 C70 1.340 . S
N69 C66 1.368 . S
N69 C70 1.321 . S
N69 Co72 2.135 . S
C70 N68 1.340 . S
C70 N69 1.321 . S
C70 H94 0.930 . S
H71 C66 0.931 . S
Co72 N69 2.135 . S
Co72 N75 2.121 . S
Co72 O80 2.055 . S
Co72 O83 2.039 . S
Co72 N86 2.140 . S
C73 O74 1.227 . S
C73 O83 1.265 . S
O74 C73 1.227 . S
N75 Co72 2.121 . S
N75 C77 1.375 . S
N75 C78 1.313 . S
C76 C77 1.338 . S
C76 N79 1.377 . S
C76 H96 0.930 . S
C77 N75 1.375 . S
C77 C76 1.338 . S
C77 H81 0.931 . S
C78 N75 1.313 . S
C78 N79 1.344 . S
C78 H82 0.930 . S
N79 C76 1.377 . S
N79 C78 1.344 . S
O80 Co72 2.055 . S
O80 C84 1.253 . S
H81 C77 0.931 . S
H82 C78 0.930 . S
O83 Co72 2.039 . S
O83 C73 1.265 . S
C84 O80 1.253 . S
C84 O85 1.227 . S
O85 C84 1.227 . S
N86 Co72 2.140 . S
N86 C89 1.346 . S
N86 C90 1.345 . S
C87 C88 1.387 . S
C87 C91 1.391 . S
C88 C87 1.387 . S
C88 C89 1.369 . S
C88 H97 0.929 . S
C89 N86 1.346 . S
C89 C88 1.369 . S
C89 H92 0.928 . S
C90 N86 1.345 . S
C90 C91 1.371 . S
C90 H93 0.931 . S
C91 C87 1.391 . S
C91 C90 1.371 . S
C91 H98 0.930 . S
H92 C89 0.928 . S
H93 C90 0.931 . S
H94 C70 0.930 . S
H95 C67 0.930 . S
H96 C76 0.930 . S
H97 C88 0.929 . S
H98 C91 0.930 . S
C99 C100 1.351 . S
C99 N102 1.368 . S
C99 H104 0.931 . S
C100 C99 1.351 . S
C100 N101 1.373 . S
C100 H128 0.930 . S
N101 C100 1.373 . S
N101 C103 1.340 . S
N102 C99 1.368 . S
N102 C103 1.321 . S
N102 Co105 2.135 . S
C103 N101 1.340 . S
C103 N102 1.321 . S
C103 H127 0.930 . S
H104 C99 0.931 . S
Co105 N102 2.135 . S
Co105 N108 2.121 . S
Co105 O113 2.055 . S
Co105 O116 2.039 . S
Co105 N119 2.140 . S
C106 O107 1.227 . S
C106 O116 1.265 . S
O107 C106 1.227 . S
N108 Co105 2.121 . S
N108 C110 1.375 . S
N108 C111 1.313 . S
C109 C110 1.338 . S
C109 N112 1.377 . S
C109 H129 0.930 . S
C110 N108 1.375 . S
C110 C109 1.338 . S
C110 H114 0.931 . S
C111 N108 1.313 . S
C111 N112 1.344 . S
C111 H115 0.930 . S
N112 C109 1.377 . S
N112 C111 1.344 . S
O113 Co105 2.055 . S
O113 C117 1.253 . S
H114 C110 0.931 . S
H115 C111 0.930 . S
O116 Co105 2.039 . S
O116 C106 1.265 . S
C117 O113 1.253 . S
C117 O118 1.227 . S
O118 C117 1.227 . S
N119 Co105 2.140 . S
N119 C122 1.346 . S
N119 C123 1.345 . S
C120 C121 1.387 . S
C120 C124 1.391 . S
C121 C120 1.387 . S
C121 C122 1.369 . S
C121 H130 0.929 . S
C122 N119 1.346 . S
C122 C121 1.369 . S
C122 H125 0.928 . S
C123 N119 1.345 . S
C123 C124 1.371 . S
C123 H126 0.931 . S
C124 C120 1.391 . S
C124 C123 1.371 . S
C124 H131 0.930 . S
H125 C122 0.928 . S
H126 C123 0.931 . S
H127 C103 0.930 . S
H128 C100 0.930 . S
H129 C109 0.930 . S
H130 C121 0.929 . S
H131 C124 0.930 . S
C132 C133 1.351 . S
C132 N135 1.368 . S
C132 H137 0.931 . S
C133 C132 1.351 . S
C133 N134 1.373 . S
C133 H161 0.930 . S
N134 C133 1.373 . S
N134 C136 1.340 . S
N135 C132 1.368 . S
N135 C136 1.321 . S
N135 Co138 2.135 . S
C136 N134 1.340 . S
C136 N135 1.321 . S
C136 H160 0.930 . S
H137 C132 0.931 . S
Co138 N135 2.135 . S
Co138 N141 2.121 . S
Co138 O146 2.055 . S
Co138 O149 2.039 . S
Co138 N152 2.140 . S
C139 O140 1.227 . S
C139 O149 1.265 . S
O140 C139 1.227 . S
N141 Co138 2.121 . S
N141 C143 1.375 . S
N141 C144 1.313 . S
C142 C143 1.338 . S
C142 N145 1.377 . S
C142 H162 0.930 . S
C143 N141 1.375 . S
C143 C142 1.338 . S
C143 H147 0.931 . S
C144 N141 1.313 . S
C144 N145 1.344 . S
C144 H148 0.930 . S
N145 C142 1.377 . S
N145 C144 1.344 . S
O146 Co138 2.055 . S
O146 C150 1.253 . S
H147 C143 0.931 . S
H148 C144 0.930 . S
O149 Co138 2.039 . S
O149 C139 1.265 . S
C150 O146 1.253 . S
C150 O151 1.227 . S
O151 C150 1.227 . S
N152 Co138 2.140 . S
N152 C155 1.346 . S
N152 C156 1.345 . S
C153 C154 1.387 . S
C153 C157 1.391 . S
C154 C153 1.387 . S
C154 C155 1.369 . S
C154 H163 0.929 . S
C155 N152 1.346 . S
C155 C154 1.369 . S
C155 H158 0.928 . S
C156 N152 1.345 . S
C156 C157 1.371 . S
C156 H159 0.931 . S
C157 C153 1.391 . S
C157 C156 1.371 . S
C157 H164 0.930 . S
H158 C155 0.928 . S
H159 C156 0.931 . S
H160 C136 0.930 . S
H161 C133 0.930 . S
H162 C142 0.930 . S
H163 C154 0.929 . S
H164 C157 0.930 . S
C165 C166 1.351 . S
C165 N168 1.368 . S
C165 H170 0.931 . S
C166 C165 1.351 . S
C166 N167 1.373 . S
C166 H194 0.930 . S
N167 C166 1.373 . S
N167 C169 1.340 . S
N168 C165 1.368 . S
N168 C169 1.321 . S
N168 Co171 2.135 . S
C169 N167 1.340 . S
C169 N168 1.321 . S
C169 H193 0.930 . S
H170 C165 0.931 . S
Co171 N168 2.135 . S
Co171 N174 2.121 . S
Co171 O179 2.055 . S
Co171 O182 2.039 . S
Co171 N185 2.140 . S
C172 O173 1.227 . S
C172 O182 1.265 . S
O173 C172 1.227 . S
N174 Co171 2.121 . S
N174 C176 1.375 . S
N174 C177 1.313 . S
C175 C176 1.338 . S
C175 N178 1.377 . S
C175 H195 0.930 . S
C176 N174 1.375 . S
C176 C175 1.338 . S
C176 H180 0.931 . S
C177 N174 1.313 . S
C177 N178 1.344 . S
C177 H181 0.930 . S
N178 C175 1.377 . S
N178 C177 1.344 . S
O179 Co171 2.055 . S
O179 C183 1.253 . S
H180 C176 0.931 . S
H181 C177 0.930 . S
O182 Co171 2.039 . S
O182 C172 1.265 . S
C183 O179 1.253 . S
C183 O184 1.227 . S
O184 C183 1.227 . S
N185 Co171 2.140 . S
N185 C188 1.346 . S
N185 C189 1.345 . S
C186 C187 1.387 . S
C186 C190 1.391 . S
C187 C186 1.387 . S
C187 C188 1.369 . S
C187 H196 0.929 . S
C188 N185 1.346 . S
C188 C187 1.369 . S
C188 H191 0.928 . S
C189 N185 1.345 . S
C189 C190 1.371 . S
C189 H192 0.931 . S
C190 C186 1.391 . S
C190 C189 1.371 . S
C190 H197 0.930 . S
H191 C188 0.928 . S
H192 C189 0.931 . S
H193 C169 0.930 . S
H194 C166 0.930 . S
H195 C175 0.930 . S
H196 C187 0.929 . S
H197 C190 0.930 . S
C198 C199 1.351 . S
C198 N201 1.368 . S
C198 H203 0.931 . S
C199 C198 1.351 . S
C199 N200 1.373 . S
C199 H227 0.930 . S
N200 C199 1.373 . S
N200 C202 1.340 . S
N201 C198 1.368 . S
N201 C202 1.321 . S
N201 Co204 2.135 . S
C202 N200 1.340 . S
C202 N201 1.321 . S
C202 H226 0.930 . S
H203 C198 0.931 . S
Co204 N201 2.135 . S
Co204 N207 2.121 . S
Co204 O212 2.055 . S
Co204 O215 2.039 . S
Co204 N218 2.140 . S
C205 O206 1.227 . S
C205 O215 1.265 . S
O206 C205 1.227 . S
N207 Co204 2.121 . S
N207 C209 1.375 . S
N207 C210 1.313 . S
C208 C209 1.338 . S
C208 N211 1.377 . S
C208 H228 0.930 . S
C209 N207 1.375 . S
C209 C208 1.338 . S
C209 H213 0.931 . S
C210 N207 1.313 . S
C210 N211 1.344 . S
C210 H214 0.930 . S
N211 C208 1.377 . S
N211 C210 1.344 . S
O212 Co204 2.055 . S
O212 C216 1.253 . S
H213 C209 0.931 . S
H214 C210 0.930 . S
O215 Co204 2.039 . S
O215 C205 1.265 . S
C216 O212 1.253 . S
C216 O217 1.227 . S
O217 C216 1.227 . S
N218 Co204 2.140 . S
N218 C221 1.346 . S
N218 C222 1.345 . S
C219 C220 1.387 . S
C219 C223 1.391 . S
C220 C219 1.387 . S
C220 C221 1.369 . S
C220 H229 0.929 . S
C221 N218 1.346 . S
C221 C220 1.369 . S
C221 H224 0.928 . S
C222 N218 1.345 . S
C222 C223 1.371 . S
C222 H225 0.931 . S
C223 C219 1.391 . S
C223 C222 1.371 . S
C223 H230 0.930 . S
H224 C221 0.928 . S
H225 C222 0.931 . S
H226 C202 0.930 . S
H227 C199 0.930 . S
H228 C208 0.930 . S
H229 C220 0.929 . S
H230 C223 0.930 . S
C231 C232 1.351 . S
C231 N234 1.368 . S
C231 H236 0.931 . S
C232 C231 1.351 . S
C232 N233 1.373 . S
C232 H260 0.930 . S
N233 C232 1.373 . S
N233 C235 1.340 . S
N234 C231 1.368 . S
N234 C235 1.321 . S
N234 Co237 2.135 . S
C235 N233 1.340 . S
C235 N234 1.321 . S
C235 H259 0.930 . S
H236 C231 0.931 . S
Co237 N234 2.135 . S
Co237 N240 2.121 . S
Co237 O245 2.055 . S
Co237 O248 2.039 . S
Co237 N251 2.140 . S
C238 O239 1.227 . S
C238 O248 1.265 . S
O239 C238 1.227 . S
N240 Co237 2.121 . S
N240 C242 1.375 . S
N240 C243 1.313 . S
C241 C242 1.338 . S
C241 N244 1.377 . S
C241 H261 0.930 . S
C242 N240 1.375 . S
C242 C241 1.338 . S
C242 H246 0.931 . S
C243 N240 1.313 . S
C243 N244 1.344 . S
C243 H247 0.930 . S
N244 C241 1.377 . S
N244 C243 1.344 . S
O245 Co237 2.055 . S
O245 C249 1.253 . S
H246 C242 0.931 . S
H247 C243 0.930 . S
O248 Co237 2.039 . S
O248 C238 1.265 . S
C249 O245 1.253 . S
C249 O250 1.227 . S
O250 C249 1.227 . S
N251 Co237 2.140 . S
N251 C254 1.346 . S
N251 C255 1.345 . S
C252 C253 1.387 . S
C252 C256 1.391 . S
C253 C252 1.387 . S
C253 C254 1.369 . S
C253 H262 0.929 . S
C254 N251 1.346 . S
C254 C253 1.369 . S
C254 H257 0.928 . S
C255 N251 1.345 . S
C255 C256 1.371 . S
C255 H258 0.931 . S
C256 C252 1.391 . S
C256 C255 1.371 . S
C256 H263 0.930 . S
H257 C254 0.928 . S
H258 C255 0.931 . S
H259 C235 0.930 . S
H260 C232 0.930 . S
H261 C241 0.930 . S
H262 C253 0.929 . S
H263 C256 0.930 . S
H264 C272 0.950 . S
H265 C277 0.950 . S
H266 C274 0.950 . S
H267 C276 0.950 . S
H268 C278 0.950 . S
H269 C280 0.950 . S
H270 C282 0.950 . S
H271 C283 0.950 . S
C272 H264 0.950 . S
C272 C273 1.386 . S
C272 C274 1.391 . S
C273 C272 1.386 . S
C273 C277 1.393 1_565 S
C274 H266 0.950 . S
C274 C272 1.391 . S
C274 C275 1.400 . S
C275 C274 1.400 . S
C275 C276 1.398 . S
C275 C281 1.491 . S
C276 H267 0.950 . S
C276 C275 1.398 . S
C276 C277 1.391 1_565 S
C277 H265 0.950 . S
C277 C273 1.393 1_545 S
C277 C276 1.391 1_545 S
C278 H268 0.950 . S
C278 C279 1.386 . S
C278 C280 1.391 . S
C279 C278 1.386 . S
C279 C283 1.393 . S
C280 H269 0.950 . S
C280 C278 1.391 . S
C280 C281 1.400 . S
C281 C275 1.491 . S
C281 C280 1.400 . S
C281 C282 1.398 . S
C282 H270 0.950 . S
C282 C281 1.398 . S
C282 C283 1.391 . S
C283 H271 0.950 . S
C283 C279 1.393 . S
C283 C282 1.391 . S
H284 C292 0.950 . S
H285 C297 0.950 . S
H286 C294 0.950 . S
H287 C296 0.950 . S
H288 C298 0.950 . S
H289 C300 0.950 . S
H290 C302 0.950 . S
H291 C303 0.950 . S
C292 H284 0.950 . S
C292 C293 1.386 . S
C292 C294 1.391 . S
C293 C292 1.386 . S
C293 C297 1.393 . S
C294 H286 0.950 . S
C294 C292 1.391 . S
C294 C295 1.400 . S
C295 C294 1.400 . S
C295 C296 1.398 . S
C295 C301 1.491 . S
C296 H287 0.950 . S
C296 C295 1.398 . S
C296 C297 1.391 . S
C297 H285 0.950 . S
C297 C293 1.393 . S
C297 C296 1.391 . S
C298 H288 0.950 . S
C298 C299 1.386 . S
C298 C300 1.391 . S
C299 C298 1.386 . S
C299 C303 1.393 1_655 S
C300 H289 0.950 . S
C300 C298 1.391 . S
C300 C301 1.400 . S
C301 C295 1.491 . S
C301 C300 1.400 . S
C301 C302 1.398 . S
C302 H290 0.950 . S
C302 C301 1.398 . S
C302 C303 1.391 1_655 S
C303 H291 0.950 . S
C303 C299 1.393 1_455 S
C303 C302 1.391 1_455 S
H304 C312 0.950 . S
H305 C317 0.950 . S
H306 C314 0.950 . S
H307 C316 0.950 . S
H308 C318 0.950 . S
H309 C320 0.950 . S
H310 C322 0.950 . S
H311 C323 0.950 . S
C312 H304 0.950 . S
C312 C313 1.386 . S
C312 C314 1.391 . S
C313 C312 1.386 . S
C313 C317 1.393 1_545 S
C314 H306 0.950 . S
C314 C312 1.391 . S
C314 C315 1.400 . S
C315 C314 1.400 . S
C315 C316 1.398 . S
C315 C321 1.491 . S
C316 H307 0.950 . S
C316 C315 1.398 . S
C316 C317 1.391 1_545 S
C317 H305 0.950 . S
C317 C313 1.393 1_565 S
C317 C316 1.391 1_565 S
C318 H308 0.950 . S
C318 C319 1.386 . S
C318 C320 1.391 . S
C319 C318 1.386 . S
C319 C323 1.393 . S
C320 H309 0.950 . S
C320 C318 1.391 . S
C320 C321 1.400 . S
C321 C315 1.491 . S
C321 C320 1.400 . S
C321 C322 1.398 . S
C322 H310 0.950 . S
C322 C321 1.398 . S
C322 C323 1.391 . S
C323 H311 0.950 . S
C323 C319 1.393 . S
C323 C322 1.391 . S
H324 C332 0.950 . S
H325 C337 0.950 . S
H326 C334 0.950 . S
H327 C336 0.950 . S
H328 C338 0.950 . S
H329 C340 0.950 . S
H330 C342 0.950 . S
H331 C343 0.957 . S
C332 H324 0.950 . S
C332 C333 1.386 . S
C332 C334 1.391 . S
C333 C332 1.386 . S
C333 C337 1.393 . S
C334 H326 0.950 . S
C334 C332 1.391 . S
C334 C335 1.400 . S
C335 C334 1.400 . S
C335 C336 1.398 . S
C335 C341 1.491 . S
C336 H327 0.950 . S
C336 C335 1.398 . S
C336 C337 1.391 . S
C337 H325 0.950 . S
C337 C333 1.393 . S
C337 C336 1.391 . S
C338 H328 0.950 . S
C338 C339 1.386 . S
C338 C340 1.391 . S
C339 C338 1.386 . S
C339 C343 1.391 1_455 S
C340 H329 0.950 . S
C340 C338 1.391 . S
C340 C341 1.400 . S
C341 C335 1.491 . S
C341 C340 1.400 . S
C341 C342 1.398 . S
C342 H330 0.950 . S
C342 C341 1.398 . S
C342 C343 1.384 1_455 S
C343 H331 0.957 . S
C343 C339 1.391 1_655 S
C343 C342 1.384 1_655 S
H344 C352 0.950 . S
H345 C357 0.950 . S
H346 C354 0.950 . S
H347 C356 0.950 . S
H348 C358 0.950 . S
H349 C360 0.950 . S
H350 C362 0.984 . S
H351 C363 0.950 . S
C352 H344 0.950 . S
C352 C353 1.386 . S
C352 C354 1.391 . S
C353 C352 1.386 . S
C353 C357 1.393 . S
C354 H346 0.950 . S
C354 C352 1.391 . S
C354 C355 1.400 . S
C355 C354 1.400 . S
C355 C356 1.398 . S
C355 C361 1.490 . S
C356 H347 0.950 . S
C356 C355 1.398 . S
C356 C357 1.391 . S
C357 H345 0.950 . S
C357 C353 1.393 . S
C357 C356 1.391 . S
C358 H348 0.950 . S
C358 C359 1.386 . S
C358 C360 1.391 . S
C359 C358 1.386 . S
C359 C363 1.393 1_565 S
C360 H349 0.950 . S
C360 C358 1.391 . S
C360 C361 1.401 1_554 S
C361 C355 1.490 . S
C361 C360 1.401 1_556 S
C361 C362 1.398 . S
C362 H350 0.984 . S
C362 C361 1.398 . S
C362 C363 1.359 1_566 S
C363 H351 0.950 . S
C363 C359 1.393 1_545 S
C363 C362 1.359 1_544 S
H364 C372 0.950 . S
H365 C377 0.950 . S
H366 C374 0.950 . S
H367 C376 0.950 . S
H368 C378 0.950 . S
H369 C380 0.950 . S
H370 C382 0.950 1_554 S
H371 C383 0.950 1_455 S
C372 H364 0.950 . S
C372 C373 1.386 . S
C372 C374 1.391 . S
C373 C372 1.386 . S
C373 C377 1.393 . S
C374 H366 0.950 . S
C374 C372 1.391 . S
C374 C375 1.400 . S
C375 C374 1.400 . S
C375 C376 1.398 . S
C375 C381 1.476 1_554 S
C376 H367 0.950 . S
C376 C375 1.398 . S
C376 C377 1.391 . S
C377 H365 0.950 . S
C377 C373 1.393 . S
C377 C376 1.391 . S
C378 H368 0.950 . S
C378 C379 1.386 . S
C378 C380 1.391 . S
C379 C378 1.386 . S
C379 C383 1.393 . S
C380 H369 0.950 . S
C380 C378 1.391 . S
C380 C381 1.412 . S
C381 C375 1.476 1_556 S
C381 C380 1.412 . S
C381 C382 1.402 . S
C382 H370 0.950 1_556 S
C382 C381 1.402 . S
C382 C383 1.391 . S
C383 H371 0.950 1_655 S
C383 C379 1.393 . S
C383 C382 1.391 . S
H384 C392 0.950 . S
H385 C397 0.950 . S
H386 C394 0.950 . S
H387 C396 0.950 . S
H388 C398 0.950 . S
H389 C400 0.950 . S
H390 C402 0.950 1_556 S
H391 C403 0.950 1_565 S
C392 H384 0.950 . S
C392 C393 1.386 . S
C392 C394 1.391 . S
C393 C392 1.386 . S
C393 C397 1.393 . S
C394 H386 0.950 . S
C394 C392 1.391 . S
C394 C395 1.400 . S
C395 C394 1.400 . S
C395 C396 1.398 . S
C395 C401 1.478 1_556 S
C396 H387 0.950 . S
C396 C395 1.398 . S
C396 C397 1.391 . S
C397 H385 0.950 . S
C397 C393 1.393 . S
C397 C396 1.391 . S
C398 H388 0.950 . S
C398 C399 1.386 . S
C398 C400 1.391 . S
C399 C398 1.386 . S
C399 C403 1.393 . S
C400 H389 0.950 . S
C400 C398 1.391 . S
C400 C401 1.413 . S
C401 C395 1.478 1_554 S
C401 C400 1.413 . S
C401 C402 1.399 . S
C402 H390 0.950 1_554 S
C402 C401 1.399 . S
C402 C403 1.391 . S
C403 H391 0.950 1_545 S
C403 C399 1.393 . S
C403 C402 1.391 . S
H404 C412 0.950 . S
H405 C417 0.950 . S
H406 C414 0.950 . S
H407 C416 0.950 . S
H408 C418 0.950 . S
H409 C420 0.950 1_556 S
H410 C422 0.950 . S
H411 C423 0.950 . S
C412 H404 0.950 . S
C412 C413 1.386 1_655 S
C412 C414 1.391 1_656 S
C413 C412 1.386 1_455 S
C413 C417 1.393 . S
C414 H406 0.950 . S
C414 C412 1.391 1_454 S
C414 C415 1.399 1_554 S
C415 C414 1.399 1_556 S
C415 C416 1.403 . S
C415 C421 1.487 1_556 S
C416 H407 0.950 . S
C416 C415 1.403 . S
C416 C417 1.391 . S
C417 H405 0.950 . S
C417 C413 1.393 . S
C417 C416 1.391 . S
C418 H408 0.950 . S
C418 C419 1.386 . S
C418 C420 1.391 . S
C419 C418 1.386 . S
C419 C423 1.393 . S
C420 H409 0.950 1_554 S
C420 C418 1.391 . S
C420 C421 1.400 . S
C421 C415 1.487 1_554 S
C421 C420 1.400 . S
C421 C422 1.398 . S
C422 H410 0.950 . S
C422 C421 1.398 . S
C422 C423 1.391 . S
C423 H411 0.950 . S
C423 C419 1.393 . S
C423 C422 1.391 . S
H424 C432 0.950 . S
H425 C437 0.950 . S
H426 C434 0.950 . S
H427 C436 0.950 . S
H428 C438 0.950 . S
H429 C440 0.950 . S
H430 C442 0.950 . S
H431 C443 0.950 . S
C432 H424 0.950 . S
C432 C433 1.386 . S
C432 C434 1.391 . S
C433 C432 1.386 . S
C433 C437 1.393 . S
C434 H426 0.950 . S
C434 C432 1.391 . S
C434 C435 1.400 . S
C435 C434 1.400 . S
C435 C436 1.398 1_565 S
C435 C441 1.491 1_565 S
C436 H427 0.950 . S
C436 C435 1.398 1_545 S
C436 C437 1.391 1_545 S
C437 H425 0.950 . S
C437 C433 1.393 . S
C437 C436 1.391 1_565 S
C438 H428 0.950 . S
C438 C439 1.386 . S
C438 C440 1.391 . S
C439 C438 1.386 . S
C439 C443 1.393 . S
C440 H429 0.950 . S
C440 C438 1.391 . S
C440 C441 1.400 . S
C441 C435 1.491 1_545 S
C441 C440 1.400 . S
C441 C442 1.398 1_545 S
C442 H430 0.950 . S
C442 C441 1.398 1_565 S
C442 C443 1.391 1_565 S
C443 H431 0.950 . S
C443 C439 1.393 . S
C443 C442 1.391 1_545 S
H444 C452 0.950 . S
H445 C457 0.950 . S
H446 C454 0.950 . S
H447 C456 0.950 . S
H448 C458 0.950 . S
H449 C460 0.950 . S
H450 C462 0.950 . S
H451 C463 0.950 . S
C452 H444 0.950 . S
C452 C453 1.386 . S
C452 C454 1.391 . S
C453 C452 1.386 . S
C453 C457 1.393 . S
C454 H446 0.950 . S
C454 C452 1.391 . S
C454 C455 1.400 . S
C455 C454 1.400 . S
C455 C456 1.398 1_455 S
C455 C461 1.491 1_455 S
C456 H447 0.950 . S
C456 C455 1.398 1_655 S
C456 C457 1.391 1_655 S
C457 H445 0.950 . S
C457 C453 1.393 . S
C457 C456 1.391 1_455 S
C458 H448 0.950 . S
C458 C459 1.386 . S
C458 C460 1.391 . S
C459 C458 1.386 . S
C459 C463 1.393 . S
C460 H449 0.950 . S
C460 C458 1.391 . S
C460 C461 1.400 . S
C461 C455 1.491 1_655 S
C461 C460 1.400 . S
C461 C462 1.398 1_655 S
C462 H450 0.950 . S
C462 C461 1.398 1_455 S
C462 C463 1.391 1_455 S
C463 H451 0.950 . S
C463 C459 1.393 . S
C463 C462 1.391 1_655 S
H464 C472 0.950 . S
H465 C477 0.950 . S
H466 C474 0.950 . S
H467 C476 0.960 . S
H468 C478 0.950 . S
H469 C480 0.950 . S
H470 C482 0.960 . S
H471 C483 0.950 . S
C472 H464 0.950 . S
C472 C473 1.386 . S
C472 C474 1.391 . S
C473 C472 1.386 . S
C473 C477 1.393 . S
C474 H466 0.950 . S
C474 C472 1.391 . S
C474 C475 1.400 . S
C475 C474 1.400 . S
C475 C476 1.395 1_545 S
C475 C481 1.491 1_545 S
C476 H467 0.960 . S
C476 C475 1.395 1_565 S
C476 C477 1.384 1_565 S
C477 H465 0.950 . S
C477 C473 1.393 . S
C477 C476 1.384 1_545 S
C478 H468 0.950 . S
C478 C479 1.386 . S
C478 C480 1.391 . S
C479 C478 1.386 . S
C479 C483 1.393 . S
C480 H469 0.950 . S
C480 C478 1.391 . S
C480 C481 1.400 . S
C481 C475 1.491 1_565 S
C481 C480 1.400 . S
C481 C482 1.395 1_565 S
C482 H470 0.960 . S
C482 C481 1.395 1_545 S
C482 C483 1.384 1_545 S
C483 H471 0.950 . S
C483 C479 1.393 . S
C483 C482 1.384 1_565 S
H484 C492 0.950 . S
H485 C497 0.950 . S
H486 C494 0.950 . S
H487 C496 0.950 . S
H488 C498 0.950 . S
H489 C500 0.950 . S
H490 C502 0.950 . S
H491 C503 0.950 . S
C492 H484 0.950 . S
C492 C493 1.386 . S
C492 C494 1.391 . S
C493 C492 1.386 . S
C493 C497 1.393 . S
C494 H486 0.950 . S
C494 C492 1.391 . S
C494 C495 1.400 . S
C495 C494 1.400 . S
C495 C496 1.398 . S
C495 C501 1.491 1_455 S
C496 H487 0.950 . S
C496 C495 1.398 . S
C496 C497 1.391 . S
C497 H485 0.950 . S
C497 C493 1.393 . S
C497 C496 1.391 . S
C498 H488 0.950 . S
C498 C499 1.386 . S
C498 C500 1.391 . S
C499 C498 1.386 . S
C499 C503 1.393 . S
C500 H489 0.950 . S
C500 C498 1.391 . S
C500 C501 1.400 . S
C501 C495 1.491 1_655 S
C501 C500 1.400 . S
C501 C502 1.398 . S
C502 H490 0.950 . S
C502 C501 1.398 . S
C502 C503 1.391 . S
C503 H491 0.950 . S
C503 C499 1.393 . S
C503 C502 1.391 . S
H504 C512 0.950 . S
H505 C517 0.950 1_565 S
H506 C514 0.950 . S
H507 C516 0.950 . S
H508 C518 0.950 . S
H509 C520 0.950 . S
H510 C522 0.950 . S
H511 C523 0.950 1_545 S
C512 H504 0.950 . S
C512 C513 1.386 . S
C512 C514 1.391 . S
C513 C512 1.386 . S
C513 C517 1.393 . S
C514 H506 0.950 . S
C514 C512 1.391 . S
C514 C515 1.400 . S
C515 C514 1.400 . S
C515 C516 1.398 1_545 S
C515 C521 1.491 1_445 S
C516 H507 0.950 . S
C516 C515 1.398 1_565 S
C516 C517 1.391 1_565 S
C517 H505 0.950 1_545 S
C517 C513 1.393 . S
C517 C516 1.391 1_545 S
C518 H508 0.950 . S
C518 C519 1.386 . S
C518 C520 1.391 . S
C519 C518 1.386 . S
C519 C523 1.393 . S
C520 H509 0.950 . S
C520 C518 1.391 . S
C520 C521 1.400 . S
C521 C515 1.491 1_665 S
C521 C520 1.400 . S
C521 C522 1.398 1_565 S
C522 H510 0.950 . S
C522 C521 1.398 1_545 S
C522 C523 1.391 1_545 S
C523 H511 0.950 1_565 S
C523 C519 1.393 . S
C523 C522 1.391 1_565 S
H524 C532 0.950 . S
H525 C537 0.950 . S
H526 C534 0.950 . S
H527 C536 0.950 . S
H528 C538 0.950 . S
H529 C540 0.950 . S
H530 C542 0.950 . S
H531 C543 0.950 . S
C532 H524 0.950 . S
C532 C533 1.386 . S
C532 C534 1.391 . S
C533 C532 1.386 . S
C533 C537 1.393 1_455 S
C534 H526 0.950 . S
C534 C532 1.391 . S
C534 C535 1.400 . S
C535 C534 1.400 . S
C535 C536 1.398 1_455 S
C535 C541 1.491 1_465 S
C536 H527 0.950 . S
C536 C535 1.398 1_655 S
C536 C537 1.391 . S
C537 H525 0.950 . S
C537 C533 1.393 1_655 S
C537 C536 1.391 . S
C538 H528 0.950 . S
C538 C539 1.386 . S
C538 C540 1.391 . S
C539 C538 1.386 . S
C539 C543 1.393 1_655 S
C540 H529 0.950 . S
C540 C538 1.391 . S
C540 C541 1.400 . S
C541 C535 1.491 1_645 S
C541 C540 1.400 . S
C541 C542 1.398 1_655 S
C542 H530 0.950 . S
C542 C541 1.398 1_455 S
C542 C543 1.391 . S
C543 H531 0.950 . S
C543 C539 1.393 1_455 S
C543 C542 1.391 . S
H544 C552 0.950 . S
H545 C557 0.950 . S
H546 C554 0.950 . S
H547 C556 0.950 . S
H548 C558 0.950 . S
H549 C560 0.950 . S
H550 C562 0.950 . S
H551 C563 0.950 . S
C552 H544 0.950 . S
C552 C553 1.386 . S
C552 C554 1.391 1_565 S
C553 C552 1.386 . S
C553 C557 1.393 . S
C554 H546 0.950 . S
C554 C552 1.391 1_545 S
C554 C555 1.400 1_545 S
C555 C554 1.400 1_565 S
C555 C556 1.398 . S
C555 C561 1.491 1_465 S
C556 H547 0.950 . S
C556 C555 1.398 . S
C556 C557 1.391 . S
C557 H545 0.950 . S
C557 C553 1.393 . S
C557 C556 1.391 . S
C558 H548 0.950 . S
C558 C559 1.386 . S
C558 C560 1.391 1_545 S
C559 C558 1.386 . S
C559 C563 1.393 . S
C560 H549 0.950 . S
C560 C558 1.391 1_565 S
C560 C561 1.400 1_565 S
C561 C555 1.491 1_645 S
C561 C560 1.400 1_545 S
C561 C562 1.398 . S
C562 H550 0.950 . S
C562 C561 1.398 . S
C562 C563 1.391 . S
C563 H551 0.950 . S
C563 C559 1.393 . S
C563 C562 1.391 . S
H564 C572 0.950 . S
H565 C577 0.950 . S
H566 C574 0.950 . S
H567 C576 0.950 . S
H568 C578 0.950 . S
H569 C580 0.950 . S
H570 C582 0.950 . S
H571 C583 0.950 . S
C572 H564 0.950 . S
C572 C573 1.386 . S
C572 C574 1.391 . S
C573 C572 1.386 . S
C573 C577 1.393 1_655 S
C574 H566 0.950 . S
C574 C572 1.391 . S
C574 C575 1.400 . S
C575 C574 1.400 . S
C575 C576 1.398 1_655 S
C575 C581 1.491 1_665 S
C576 H567 0.950 . S
C576 C575 1.398 1_455 S
C576 C577 1.391 . S
C577 H565 0.950 . S
C577 C573 1.393 1_455 S
C577 C576 1.391 . S
C578 H568 0.950 . S
C578 C579 1.386 . S
C578 C580 1.391 . S
C579 C578 1.386 . S
C579 C583 1.393 1_455 S
C580 H569 0.950 . S
C580 C578 1.391 . S
C580 C581 1.400 . S
C581 C575 1.491 1_445 S
C581 C580 1.400 . S
C581 C582 1.398 1_455 S
C582 H570 0.950 . S
C582 C581 1.398 1_655 S
C582 C583 1.391 . S
C583 H571 0.950 . S
C583 C579 1.393 1_655 S
C583 C582 1.391 . S
H584 C592 0.950 . S
H585 C597 0.950 . S
H586 C594 0.950 . S
H587 C596 0.950 . S
H588 C598 0.950 . S
H589 C600 0.950 . S
H590 C602 0.950 . S
H591 C603 0.950 . S
C592 H584 0.950 . S
C592 C593 1.386 . S
C592 C594 1.391 . S
C593 C592 1.386 . S
C593 C597 1.393 . S
C594 H586 0.950 . S
C594 C592 1.391 . S
C594 C595 1.400 . S
C595 C594 1.400 . S
C595 C596 1.398 . S
C595 C601 1.491 . S
C596 H587 0.950 . S
C596 C595 1.398 . S
C596 C597 1.391 . S
C597 H585 0.950 . S
C597 C593 1.393 . S
C597 C596 1.391 . S
C598 H588 0.950 . S
C598 C599 1.386 . S
C598 C600 1.391 . S
C599 C598 1.386 . S
C599 C603 1.393 . S
C600 H589 0.950 . S
C600 C598 1.391 . S
C600 C601 1.400 . S
C601 C595 1.491 . S
C601 C600 1.400 . S
C601 C602 1.398 . S
C602 H590 0.950 . S
C602 C601 1.398 . S
C602 C603 1.391 . S
C603 H591 0.950 . S
C603 C599 1.393 . S
C603 C602 1.391 . S
H604 C612 0.950 . S
H605 C617 0.950 . S
H606 C614 0.950 . S
H607 C616 0.950 . S
H608 C618 0.950 . S
H609 C620 0.950 . S
H610 C622 0.950 . S
H611 C623 0.950 . S
C612 H604 0.950 . S
C612 C613 1.386 . S
C612 C614 1.391 . S
C613 C612 1.386 . S
C613 C617 1.393 . S
C614 H606 0.950 . S
C614 C612 1.391 . S
C614 C615 1.400 . S
C615 C614 1.400 . S
C615 C616 1.398 . S
C615 C621 1.491 . S
C616 H607 0.950 . S
C616 C615 1.398 . S
C616 C617 1.391 . S
C617 H605 0.950 . S
C617 C613 1.393 . S
C617 C616 1.391 . S
C618 H608 0.950 . S
C618 C619 1.386 . S
C618 C620 1.391 . S
C619 C618 1.386 . S
C619 C623 1.393 . S
C620 H609 0.950 . S
C620 C618 1.391 . S
C620 C621 1.400 . S
C621 C615 1.491 . S
C621 C620 1.400 . S
C621 C622 1.398 . S
C622 H610 0.950 . S
C622 C621 1.398 . S
C622 C623 1.391 . S
C623 H611 0.950 . S
C623 C619 1.393 . S
C623 C622 1.391 . S
H624 C632 0.950 . S
H625 C637 0.950 . S
H626 C634 0.950 . S
H627 C636 0.950 . S
H628 C638 0.950 . S
H629 C640 0.950 . S
H630 C642 0.950 . S
H631 C643 0.950 . S
C632 H624 0.950 . S
C632 C633 1.386 . S
C632 C634 1.391 . S
C633 C632 1.386 . S
C633 C637 1.393 . S
C634 H626 0.950 . S
C634 C632 1.391 . S
C634 C635 1.400 . S
C635 C634 1.400 . S
C635 C636 1.398 . S
C635 C641 1.491 . S
C636 H627 0.950 . S
C636 C635 1.398 . S
C636 C637 1.391 . S
C637 H625 0.950 . S
C637 C633 1.393 . S
C637 C636 1.391 . S
C638 H628 0.950 . S
C638 C639 1.386 . S
C638 C640 1.391 . S
C639 C638 1.386 . S
C639 C643 1.393 . S
C640 H629 0.950 . S
C640 C638 1.391 . S
C640 C641 1.400 . S
C641 C635 1.491 . S
C641 C640 1.400 . S
C641 C642 1.398 . S
C642 H630 0.950 . S
C642 C641 1.398 . S
C642 C643 1.391 . S
C643 H631 0.950 . S
C643 C639 1.393 . S
C643 C642 1.391 . S
H644 C652 0.950 . S
H645 C657 0.950 . S
H646 C654 0.950 . S
H647 C656 0.950 . S
H648 C658 0.950 . S
H649 C660 0.950 . S
H650 C662 0.950 . S
H651 C663 0.950 . S
C652 H644 0.950 . S
C652 C653 1.386 . S
C652 C654 1.391 . S
C653 C652 1.386 . S
C653 C657 1.393 . S
C654 H646 0.950 . S
C654 C652 1.391 . S
C654 C655 1.400 . S
C655 C654 1.400 . S
C655 C656 1.398 . S
C655 C661 1.491 . S
C656 H647 0.950 . S
C656 C655 1.398 . S
C656 C657 1.391 . S
C657 H645 0.950 . S
C657 C653 1.393 . S
C657 C656 1.391 . S
C658 H648 0.950 . S
C658 C659 1.386 . S
C658 C660 1.391 . S
C659 C658 1.386 . S
C659 C663 1.393 . S
C660 H649 0.950 . S
C660 C658 1.391 . S
C660 C661 1.400 . S
C661 C655 1.491 . S
C661 C660 1.400 . S
C661 C662 1.398 . S
C662 H650 0.950 . S
C662 C661 1.398 . S
C662 C663 1.391 . S
C663 H651 0.950 . S
C663 C659 1.393 . S
C663 C662 1.391 . S
C273 N2 0.981 1_565 S
C279 C54 0.925 . S
C293 C87 0.927 . S
C299 N35 0.982 1_655 S
C313 N68 0.984 1_545 S
C319 C120 0.930 . S
C333 C21 0.922 . S
C339 N101 0.979 1_455 S
C353 C252 0.923 . S
C359 N134 0.980 1_565 S
C373 C153 0.867 . S
C379 N167 0.946 1_655 S
C393 C186 0.908 . S
C399 N200 0.971 1_545 S
C413 N233 0.941 1_455 S
C419 C219 0.859 . S
C433 C84 1.557 . S
C439 C18 1.546 . S
C453 C51 1.541 . S
C459 C117 1.549 . S
C473 C150 1.541 . S
C479 C216 1.549 . S
C493 C183 1.560 . S
C499 C249 1.557 . S
C513 C7 0.894 . S
C519 C73 0.913 . S
C533 C40 0.901 . S
C539 C106 0.870 . S
C553 C205 0.874 . S
C559 C139 0.885 . S
C573 C238 0.886 . S
C579 C172 0.914 . S
C593 N13 1.657 . S
C599 N178 1.668 . S
C613 N211 1.671 . S
C619 N46 1.654 . S
C633 N244 1.669 . S
C639 N79 1.656 . S
C653 N112 1.669 . S
C659 N145 1.667 . S
