# Generated by pormake.
# Topology est, (5)-cn, num edge types: 1
# Building blocks:
#     Node 0, Type 0, BuildingBlock: XOMCOT_clean_sbu_0, # of connection points: 5
#     Node 1, Type 0, BuildingBlock: XOMCOT_clean_sbu_0, # of connection points: 5
#     Node 2, Type 0, BuildingBlock: XOMCOT_clean_sbu_0, # of connection points: 5
#     Node 3, Type 0, BuildingBlock: XOMCOT_clean_sbu_0, # of connection points: 5
#     Edge 4, Type (0, 0), BuildingBlock: UVAHIK_clean_linker_0, # of connection points: 2
#     Edge 5, Type (0, 0), BuildingBlock: UVAHIK_clean_linker_0, # of connection points: 2
#     Edge 6, Type (0, 0), BuildingBlock: UVAHIK_clean_linker_0, # of connection points: 2
#     Edge 7, Type (0, 0), BuildingBlock: UVAHIK_clean_linker_0, # of connection points: 2
#     Edge 8, Type (0, 0), BuildingBlock: UVAHIK_clean_linker_0, # of connection points: 2
#     Edge 9, Type (0, 0), BuildingBlock: UVAHIK_clean_linker_0, # of connection points: 2
#     Edge 10, Type (0, 0), BuildingBlock: UVAHIK_clean_linker_0, # of connection points: 2
#     Edge 11, Type (0, 0), BuildingBlock: UVAHIK_clean_linker_0, # of connection points: 2
#     Edge 12, Type (0, 0), BuildingBlock: UVAHIK_clean_linker_0, # of connection points: 2
#     Edge 13, Type (0, 0), BuildingBlock: UVAHIK_clean_linker_0, # of connection points: 2
# Relax obj value: 0.174
# Max RMSD: 0.241
# Mean RMSD: 0.241
data_MOF--net-est--node1-XOMCOT_clean_sbu_0--edge1-UVAHIK_clean_linker_0
_symmetry_space_group_name_H-M    P1
_symmetry_Int_Tables_number       1
_symmetry_cell_setting            triclinic
loop_
_symmetry_equiv_pos_as_xyz
'x, y, z'
_cell_length_a     21.4071
_cell_length_b     21.4075
_cell_length_c     68.490744
_cell_angle_alpha  89.995976
_cell_angle_beta   92.01467
_cell_angle_gamma 90.085951
loop_
_atom_site_label
_atom_site_type_symbol
_atom_site_fract_x
_atom_site_fract_y
_atom_site_fract_z
_atom_type_partial_charge
Co0 Co 0.25787 0.24219 0.57538 0.0
C1 C 0.12609 0.28228 0.57736 0.0
C2 C 0.17401 0.33184 0.55528 0.0
C3 C 0.11135 0.34581 0.55341 0.0
N4 N 0.18363 0.29283 0.57057 0.0
N5 N 0.08123 0.31419 0.56727 0.0
H6 H 0.11582 0.24661 0.58786 0.0
H7 H 0.20922 0.34531 0.54514 0.0
C8 C 0.31065 0.37221 0.57036 0.0
O9 O 0.26571 0.39815 0.5801 0.0
N10 N 0.3313 0.1914 0.5796 0.0
C11 C 0.34078 0.14732 0.5934 0.0
C12 C 0.40323 0.13141 0.594 0.0
C13 C 0.38728 0.20083 0.57174 0.0
N14 N 0.43236 0.16553 0.58044 0.0
C15 C 0.22006 0.23981 0.61506 0.0
C16 C 0.3224 0.30343 0.6308 0.0
C17 C 0.27862 0.27851 0.64335 0.0
C18 C 0.22661 0.24692 0.63526 0.0
C19 C 0.31425 0.29493 0.61067 0.0
N20 N 0.26282 0.26457 0.60293 0.0
H21 H 0.18254 0.21088 0.6094 0.0
H22 H 0.35166 0.30941 0.60156 0.0
H23 H 0.30566 0.13081 0.60315 0.0
H24 H 0.39578 0.23602 0.56083 0.0
O25 O 0.20565 0.16863 0.57651 0.0
O26 O 0.24579 0.20765 0.54966 0.0
O27 O 0.3129 0.31331 0.56788 0.0
C28 C 0.21066 0.16589 0.55764 0.0
H29 H 0.08939 0.37396 0.54199 0.0
H30 H 0.42582 0.09934 0.6042 0.0
H31 H 0.36441 0.32617 0.63652 0.0
H32 H 0.19218 0.22609 0.64449 0.0
Co33 Co 0.77757 0.751 0.07534 0.0
C34 C 0.74024 0.61805 0.07358 0.0
C35 C 0.70016 0.66999 0.04961 0.0
C36 C 0.6886 0.60743 0.04635 0.0
N37 N 0.73176 0.67681 0.06688 0.0
N38 N 0.7141 0.57495 0.06148 0.0
H39 H 0.77066 0.60597 0.08582 0.0
H40 H 0.69013 0.70745 0.03938 0.0
C41 C 0.64681 0.79781 0.06655 0.0
O42 O 0.62222 0.74757 0.07421 0.0
N43 N 0.82363 0.82454 0.08313 0.0
C44 C 0.86093 0.83272 0.09917 0.0
C45 C 0.87655 0.89518 0.10052 0.0
C46 C 0.81795 0.88118 0.07478 0.0
N47 N 0.84922 0.92543 0.08517 0.0
C48 C 0.77272 0.69734 0.11357 0.0
C49 C 0.69118 0.78284 0.12883 0.0
C50 C 0.71278 0.73328 0.14058 0.0
C51 C 0.75454 0.69056 0.13278 0.0
C52 C 0.71031 0.78762 0.10959 0.0
N53 N 0.74839 0.74349 0.10186 0.0
H54 H 0.80837 0.66664 0.10844 0.0
H55 H 0.696 0.82819 0.10128 0.0
H56 H 0.87343 0.7965 0.10959 0.0
H57 H 0.78846 0.89043 0.06196 0.0
O58 O 0.8528 0.70138 0.07765 0.0
O59 O 0.81845 0.75059 0.05086 0.0
O60 O 0.70585 0.80565 0.06674 0.0
C61 C 0.8592 0.71332 0.05918 0.0
H62 H 0.66624 0.58735 0.0334 0.0
H63 H 0.90415 0.91688 0.1122 0.0
H64 H 0.66031 0.818 0.13448 0.0
H65 H 0.77497 0.65351 0.14167 0.0
Co66 Co 0.73244 0.75017 0.41606 0.0
C67 C 0.86431 0.71001 0.41443 0.0
C68 C 0.81633 0.66222 0.43687 0.0
C69 C 0.87899 0.64831 0.43884 0.0
N70 N 0.80677 0.70008 0.42129 0.0
N71 N 0.90913 0.67882 0.42476 0.0
H72 H 0.8746 0.74478 0.40364 0.0
H73 H 0.78105 0.64947 0.44706 0.0
C74 C 0.68053 0.62003 0.4215 0.0
O75 O 0.72613 0.59404 0.41208 0.0
N76 N 0.65889 0.80043 0.41141 0.0
C77 C 0.64941 0.84371 0.39736 0.0
C78 C 0.58692 0.85948 0.39664 0.0
C79 C 0.60289 0.79135 0.41928 0.0
N80 N 0.55779 0.8261 0.41038 0.0
C81 C 0.77142 0.75215 0.37651 0.0
C82 C 0.67075 0.6864 0.3606 0.0
C83 C 0.71448 0.71188 0.34814 0.0
C84 C 0.76568 0.7445 0.35633 0.0
C85 C 0.67807 0.69544 0.38074 0.0
N86 N 0.72869 0.7269 0.38857 0.0
H87 H 0.80824 0.78189 0.38222 0.0
H88 H 0.64061 0.68048 0.38975 0.0
H89 H 0.68457 0.85979 0.38757 0.0
H90 H 0.59441 0.75679 0.43039 0.0
O91 O 0.78435 0.82394 0.41487 0.0
O92 O 0.74341 0.78563 0.44169 0.0
O93 O 0.67751 0.67905 0.42361 0.0
C94 C 0.77864 0.82728 0.43371 0.0
H95 H 0.90093 0.62097 0.45046 0.0
H96 H 0.56431 0.89098 0.38626 0.0
H97 H 0.62933 0.66281 0.35478 0.0
H98 H 0.80004 0.76579 0.34717 0.0
Co99 Co 0.21414 0.24196 0.9154 0.0
C100 C 0.25116 0.37498 0.91749 0.0
C101 C 0.28945 0.32301 0.94172 0.0
C102 C 0.30068 0.38556 0.94508 0.0
N103 N 0.25919 0.3162 0.92422 0.0
N104 N 0.27632 0.41806 0.92979 0.0
H105 H 0.22163 0.38708 0.90504 0.0
H106 H 0.29869 0.28554 0.95201 0.0
C107 C 0.34415 0.19532 0.9253 0.0
O108 O 0.36921 0.24533 0.91765 0.0
N109 N 0.16875 0.16838 0.90725 0.0
C110 C 0.13277 0.16021 0.89093 0.0
C111 C 0.1172 0.09777 0.88946 0.0
C112 C 0.17366 0.11176 0.91565 0.0
N113 N 0.14321 0.06752 0.90502 0.0
C114 C 0.22292 0.29539 0.87726 0.0
C115 C 0.30473 0.2088 0.86272 0.0
C116 C 0.28442 0.25834 0.85075 0.0
C117 C 0.2426 0.30168 0.8582 0.0
C118 C 0.28418 0.20456 0.88181 0.0
N119 N 0.24588 0.24916 0.88919 0.0
H120 H 0.18707 0.32643 0.88205 0.0
H121 H 0.29747 0.16399 0.89029 0.0
H122 H 0.12118 0.19643 0.88041 0.0
H123 H 0.20206 0.10251 0.9287 0.0
O124 O 0.13908 0.29158 0.91234 0.0
O125 O 0.17087 0.24262 0.93945 0.0
O126 O 0.2851 0.1874 0.92472 0.0
C127 C 0.1309 0.27981 0.93073 0.0
H128 H 0.32201 0.40563 0.9582 0.0
H129 H 0.09055 0.07607 0.87757 0.0
H130 H 0.33557 0.17317 0.85732 0.0
H131 H 0.22313 0.33875 0.8491 0.0
C132 C 0.97427 0.31171 0.55222 0.0
C133 C 0.01472 0.30556 0.56874 0.0
C134 C 0.91077 0.29732 0.55332 0.0
C135 C 0.80357 0.20243 0.58183 0.0
H136 H 0.67427 0.30355 0.55654 0.0
C137 C 0.54084 0.16378 0.59408 0.0
C138 C 0.49865 0.17276 0.57814 0.0
C139 C 0.6042 0.17785 0.59246 0.0
C140 C 0.70988 0.2743 0.56345 0.0
H141 H 0.01937 0.28262 0.59959 0.0
H142 H 0.90865 0.25735 0.60149 0.0
H143 H 0.78343 0.33543 0.55495 0.0
H144 H 0.49052 0.20058 0.54773 0.0
H145 H 0.60117 0.22452 0.54482 0.0
H146 H 0.73026 0.14111 0.59025 0.0
C147 C 0.92634 0.27218 0.5876 0.0
C148 C 0.77238 0.29272 0.56259 0.0
C149 C 0.98973 0.28673 0.58652 0.0
C150 C 0.52168 0.19401 0.56035 0.0
C151 C 0.58504 0.20795 0.55871 0.0
C152 C 0.74114 0.18389 0.58264 0.0
C153 C 0.88636 0.27637 0.57095 0.0
C154 C 0.81988 0.25712 0.57184 0.0
C155 C 0.62689 0.20101 0.57484 0.0
C156 C 0.69351 0.21969 0.57351 0.0
H157 H 0.99192 0.3253 0.53824 0.0
H158 H 0.88123 0.30053 0.5402 0.0
H159 H 0.83923 0.1734 0.58882 0.0
H160 H 0.52459 0.14847 0.60807 0.0
H161 H 0.63497 0.17268 0.60524 0.0
C162 C 0.73115 0.48056 0.08157 0.0
C163 C 0.72254 0.50836 0.06308 0.0
C164 C 0.74587 0.41732 0.08329 0.0
C165 C 0.74116 0.26731 0.05718 0.0
H166 H 0.87446 0.22263 0.0944 0.0
C167 C 0.83464 0.0156 0.06304 0.0
C168 C 0.845 0.99181 0.082 0.0
C169 C 0.8236 0.07922 0.06006 0.0
C170 C 0.83677 0.23421 0.08408 0.0
H171 H 0.72112 0.49093 0.03187 0.0
H172 H 0.74618 0.38 0.03489 0.0
H173 H 0.84421 0.33177 0.09054 0.0
H174 H 0.85312 0.01641 0.11268 0.0
H175 H 0.83358 0.12732 0.10755 0.0
H176 H 0.73298 0.16971 0.05091 0.0
C177 C 0.7413 0.40737 0.04805 0.0
C178 C 0.81945 0.29673 0.08187 0.0
C179 C 0.72672 0.47085 0.04633 0.0
C180 C 0.84618 0.03337 0.09788 0.0
C181 C 0.83487 0.09699 0.09492 0.0
C182 C 0.75829 0.20469 0.05945 0.0
C183 C 0.7521 0.38025 0.06656 0.0
C184 C 0.77118 0.3139 0.0685 0.0
C185 C 0.82245 0.12051 0.076 0.0
C186 C 0.80609 0.18736 0.07301 0.0
H187 H 0.72715 0.50798 0.09474 0.0
H188 H 0.75263 0.39743 0.09775 0.0
H189 H 0.70341 0.2791 0.0469 0.0
H190 H 0.83438 0.98483 0.0505 0.0
H191 H 0.81549 0.09597 0.04527 0.0
C192 C 0.46853 0.79914 0.43066 0.0
C193 C 0.49153 0.81905 0.41272 0.0
C194 C 0.40519 0.78533 0.43241 0.0
C195 C 0.24907 0.80751 0.40831 0.0
H196 H 0.20697 0.65819 0.43715 0.0
C197 C 0.0006 0.70444 0.40527 0.0
C198 C 0.97564 0.68717 0.4232 0.0
C199 C 0.06398 0.71882 0.40405 0.0
C200 C 0.21797 0.70028 0.42919 0.0
H201 H 0.46559 0.8411 0.38262 0.0
H202 H 0.35521 0.81707 0.38563 0.0
H203 H 0.31609 0.68993 0.4353 0.0
H204 H -0.00153 0.66995 0.45385 0.0
H205 H 0.10917 0.69442 0.45167 0.0
H206 H 0.15096 0.81751 0.40207 0.0
C207 C 0.386 0.81288 0.39845 0.0
C208 C 0.28045 0.71863 0.42818 0.0
C209 C 0.44934 0.82683 0.39672 0.0
C210 C 0.01611 0.68234 0.43976 0.0
C211 C 0.07961 0.69655 0.43853 0.0
C212 C 0.18666 0.78904 0.40926 0.0
C213 C 0.36334 0.79104 0.41623 0.0
C214 C 0.29675 0.77244 0.4177 0.0
C215 C 0.10398 0.716 0.42073 0.0
C216 C 0.17043 0.73515 0.41967 0.0
H217 H 0.49971 0.79351 0.44333 0.0
H218 H 0.38907 0.76982 0.44642 0.0
H219 H 0.2599 0.84969 0.40037 0.0
H220 H 0.97094 0.7075 0.39218 0.0
H221 H 0.08165 0.73246 0.39005 0.0
C222 C 0.1472 0.95956 0.89238 0.0
C223 C 0.14707 0.00115 0.90824 0.0
C224 C 0.15818 0.89593 0.89544 0.0
C225 C 0.23168 0.78826 0.93152 0.0
H226 H 0.14832 0.66119 0.89976 0.0
C227 C 0.26232 0.52209 0.94485 0.0
C228 C 0.26794 0.48464 0.92814 0.0
C229 C 0.2478 0.58556 0.94302 0.0
C230 C 0.17236 0.69623 0.90863 0.0
H231 H 0.15495 0.00818 0.93979 0.0
H232 H 0.17326 0.89703 0.94519 0.0
H233 H 0.11838 0.77034 0.89566 0.0
H234 H 0.26597 0.4851 0.89648 0.0
H235 H 0.24061 0.59564 0.89329 0.0
H236 H 0.28553 0.71385 0.94451 0.0
C237 C 0.16645 0.91376 0.93035 0.0
C238 C 0.15521 0.75875 0.90628 0.0
C239 C 0.15574 0.97739 0.92727 0.0
C240 C 0.26084 0.51248 0.90961 0.0
C241 C 0.24618 0.57571 0.90779 0.0
C242 C 0.24862 0.72564 0.93393 0.0
C243 C 0.16894 0.87244 0.91445 0.0
C244 C 0.18501 0.80559 0.91759 0.0
C245 C 0.23852 0.61272 0.92446 0.0
C246 C 0.21955 0.67906 0.92238 0.0
H247 H 0.14158 0.97649 0.87754 0.0
H248 H 0.16055 0.86558 0.88285 0.0
H249 H 0.25629 0.82324 0.94026 0.0
H250 H 0.26674 0.50198 0.95932 0.0
H251 H 0.2418 0.61288 0.95613 0.0
C252 C 0.30038 0.20937 0.81813 0.0
C253 C 0.30241 0.26258 0.83011 0.0
C254 C 0.31049 0.21455 0.79817 0.0
C255 C 0.29755 0.32966 0.75848 0.0
H256 H 0.37454 0.1982 0.72874 0.0
C257 C 0.3096 0.33605 0.67413 0.0
C258 C 0.28985 0.28066 0.66479 0.0
C259 C 0.32035 0.33736 0.69439 0.0
C260 C 0.3529 0.23525 0.73687 0.0
H261 H 0.32014 0.36228 0.83089 0.0
H262 H 0.3386 0.37129 0.79603 0.0
H263 H 0.37975 0.19412 0.76436 0.0
H264 H 0.26768 0.18288 0.66915 0.0
H265 H 0.28587 0.18529 0.70444 0.0
H266 H 0.26987 0.37018 0.73094 0.0
C267 C 0.32785 0.32579 0.80197 0.0
C268 C 0.35578 0.23289 0.75725 0.0
C269 C 0.31743 0.32064 0.82191 0.0
C270 C 0.28197 0.22647 0.676 0.0
C271 C 0.2932 0.22763 0.69616 0.0
C272 C 0.29499 0.33218 0.73809 0.0
C273 C 0.32316 0.27302 0.78979 0.0
C274 C 0.32688 0.2793 0.76828 0.0
C275 C 0.31229 0.28308 0.70558 0.0
C276 C 0.32136 0.28424 0.7271 0.0
H277 H 0.28812 0.16416 0.82399 0.0
H278 H 0.3056 0.1731 0.78918 0.0
H279 H 0.27408 0.36576 0.7665 0.0
H280 H 0.31598 0.37848 0.66581 0.0
H281 H 0.33525 0.38066 0.70129 0.0
C282 C 0.697 0.78126 0.17338 0.0
C283 C 0.69582 0.72823 0.16131 0.0
C284 C 0.68702 0.77558 0.19332 0.0
C285 C 0.70107 0.66045 0.233 0.0
H286 H 0.61984 0.78988 0.26247 0.0
C287 C 0.68574 0.65357 0.3173 0.0
C288 C 0.70395 0.7094 0.32668 0.0
C289 C 0.67583 0.65198 0.29701 0.0
C290 C 0.64266 0.75339 0.25441 0.0
H291 H 0.68004 0.6282 0.16041 0.0
H292 H 0.66196 0.6183 0.19528 0.0
H293 H 0.61604 0.79414 0.22684 0.0
H294 H 0.72417 0.80762 0.32235 0.0
H295 H 0.7074 0.80474 0.28701 0.0
H296 H 0.72851 0.62035 0.26062 0.0
C297 C 0.67185 0.66408 0.18939 0.0
C298 C 0.6406 0.75587 0.23403 0.0
C299 C 0.6821 0.66974 0.16945 0.0
C300 C 0.71107 0.76372 0.31547 0.0
C301 C 0.70066 0.76226 0.29528 0.0
C302 C 0.70283 0.65782 0.25338 0.0
C303 C 0.67535 0.71678 0.20162 0.0
C304 C 0.67103 0.71023 0.22311 0.0
C305 C 0.68315 0.7064 0.28583 0.0
C306 C 0.67491 0.70507 0.26428 0.0
H307 H 0.70829 0.82681 0.16757 0.0
H308 H 0.69103 0.81699 0.20237 0.0
H309 H 0.72565 0.62495 0.22505 0.0
H310 H 0.67997 0.61105 0.32563 0.0
H311 H 0.66214 0.60835 0.29008 0.0
C312 C 0.41521 0.38648 0.55679 0.0
C313 C 0.355 0.41004 0.55953 0.0
C314 C 0.45241 0.41153 0.54246 0.0
C315 C 0.46945 0.54222 0.50777 0.0
H316 H 0.54278 0.41414 0.47564 0.0
C317 C 0.57628 0.60577 0.43533 0.0
C318 C 0.63651 0.58233 0.43252 0.0
C319 C 0.53941 0.58084 0.44976 0.0
C320 C 0.523 0.45041 0.48454 0.0
H321 H 0.28795 0.48096 0.55061 0.0
H322 H 0.35308 0.52511 0.52537 0.0
H323 H 0.48764 0.38426 0.50476 0.0
H324 H 0.70389 0.51171 0.44144 0.0
H325 H 0.63931 0.46776 0.46685 0.0
H326 H 0.50476 0.60836 0.48754 0.0
C327 C 0.3717 0.48744 0.53437 0.0
C328 C 0.49167 0.43343 0.50127 0.0
C329 C 0.33451 0.46249 0.54886 0.0
C330 C 0.65733 0.53011 0.44324 0.0
C331 C 0.62045 0.50528 0.45783 0.0
C332 C 0.50076 0.55921 0.49103 0.0
C333 C 0.4299 0.46038 0.53049 0.0
C334 C 0.46466 0.47916 0.51309 0.0
C335 C 0.56225 0.53222 0.46176 0.0
C336 C 0.52773 0.51347 0.47921 0.0
H337 H 0.43225 0.34643 0.56504 0.0
H338 H 0.49775 0.39086 0.5402 0.0
H339 H 0.44965 0.5785 0.51666 0.0
H340 H 0.55896 0.64562 0.42703 0.0
H341 H 0.49405 0.60141 0.45206 0.0
C342 C 0.35857 0.09081 0.9406 0.0
C343 C 0.38247 0.15062 0.93685 0.0
C344 C 0.38827 0.05188 0.9543 0.0
C345 C 0.53438 0.02671 0.9834 0.0
H346 H 0.4236 0.94657 0.01948 0.0
C347 C 0.63138 0.9031 0.05192 0.0
C348 C 0.60782 0.843 0.05543 0.0
C349 C 0.60127 0.94252 0.03845 0.0
C350 C 0.45506 0.96821 0.00944 0.0
H351 H 0.45813 0.21527 0.94362 0.0
H352 H 0.51027 0.14709 0.96775 0.0
H353 H 0.37977 0.00932 0.99265 0.0
H354 H 0.53227 0.77836 0.04855 0.0
H355 H 0.4794 0.84741 0.02481 0.0
H356 H 0.60967 0.98559 0.00019 0.0
C357 C 0.46859 0.13028 0.96 0.0
C358 C 0.43004 0.00399 0.99403 0.0
C359 C 0.43888 0.16928 0.94617 0.0
C360 C 0.55125 0.82456 0.04617 0.0
C361 C 0.52113 0.86406 0.03257 0.0
C362 C 0.5594 0.99095 -0.00119 0.0
C363 C 0.44245 0.07197 0.96462 0.0
C364 C 0.46942 0.03351 0.98082 0.0
C365 C 0.54704 0.92262 0.02812 0.0
C366 C 0.52002 0.96138 0.01201 0.0
H367 H 0.31564 0.07477 0.93339 0.0
H368 H 0.36793 0.00657 0.95716 0.0
H369 H 0.56586 0.04827 0.97334 0.0
H370 H 0.67442 0.91896 0.05911 0.0
H371 H 0.62144 0.988 0.03573 0.0
C372 C 0.80937 0.8724 0.46616 0.0
C373 C 0.81656 0.87072 0.44587 0.0
C374 C 0.85105 0.90631 0.47815 0.0
C375 C 0.01233 0.96357 0.47934 0.0
H376 H 0.9607 0.0577 0.52436 0.0
C377 C 0.17918 0.12151 0.52516 0.0
C378 C 0.17222 0.12296 0.54546 0.0
C379 C 0.13723 0.08793 0.51316 0.0
C380 C 0.97585 0.03084 0.512 0.0
H381 H 0.87125 0.90524 0.42208 0.0
H382 H 0.94379 0.96525 0.44306 0.0
H383 H 0.8818 0.0099 0.50255 0.0
H384 H 0.11756 0.08851 0.56926 0.0
H385 H 0.04451 0.02907 0.54828 0.0
H386 H 0.10638 0.98448 0.48878 0.0
C387 C 0.90639 0.9396 0.44969 0.0
C388 C 0.93069 0.00375 0.49947 0.0
C389 C 0.86454 0.90577 0.43768 0.0
C390 C 0.1241 0.08811 0.55365 0.0
C391 C 0.08197 0.05462 0.54164 0.0
C392 C 0.05749 0.99065 0.49186 0.0
C393 C 0.90082 0.9391 0.47008 0.0
C394 C 0.94847 0.96987 0.48301 0.0
C395 C 0.08741 0.05525 0.52124 0.0
C396 C 0.03971 0.02454 0.50832 0.0
H397 H 0.77286 0.84572 0.47289 0.0
H398 H 0.84581 0.90464 0.49382 0.0
H399 H 0.02749 0.93669 0.46697 0.0
H400 H 0.21578 0.14806 0.51842 0.0
H401 H 0.14236 0.08972 0.4975 0.0
C402 C 0.92784 0.62101 0.05454 0.0
C403 C 0.90172 0.67678 0.04723 0.0
C404 C 0.955 0.57856 0.04191 0.0
C405 C 0.01407 0.55833 0.99225 0.0
H406 H 0.95412 0.38842 -0.0019 0.0
C407 C 0.0615 0.37201 0.93462 0.0
C408 C 0.08718 0.31642 0.94223 0.0
C409 C 0.03319 0.41462 0.94695 0.0
C410 C 0.97148 0.43557 -0.00365 0.0
H411 H 0.88785 0.73432 0.02138 0.0
H412 H 0.93565 0.66052 -0.00061 0.0
H413 H 0.92519 0.46808 0.02157 0.0
H414 H 0.09903 0.25933 0.96825 0.0
H415 H 0.04946 0.33341 0.9897 0.0
H416 H 0.06054 0.52579 0.96707 0.0
C417 C 0.93503 0.64936 0.01481 0.0
C418 C 0.95531 0.48106 0.00985 0.0
C419 C 0.90761 0.69161 0.02741 0.0
C420 C 0.07967 0.30189 0.962 0.0
C421 C 0.05118 0.34431 0.97429 0.0
C422 C 0.03029 0.51281 0.97876 0.0
C423 C 0.95684 0.59143 0.02181 0.0
C424 C 0.97658 0.54285 0.00796 0.0
C425 C 0.02981 0.40211 0.96704 0.0
C426 C 0.0092 0.45096 0.98068 0.0
H427 H 0.92378 0.60827 0.06975 0.0
H428 H 0.97249 0.53466 0.04774 0.0
H429 H 0.03144 0.60548 0.99051 0.0
H430 H 0.06678 0.3845 0.91944 0.0
H431 H 0.01608 0.45838 0.94091 0.0
loop_
_geom_bond_atom_site_label_1
_geom_bond_atom_site_label_2
_geom_bond_distance
_geom_bond_site_symmetry_2
_ccdc_geom_bond_type
Co0 N4 2.148 . S
Co0 N10 2.128 . S
Co0 N20 2.194 . S
Co0 O25 2.351 . S
Co0 O26 2.155 . S
Co0 O27 2.096 . S
C1 N4 1.301 . S
C1 N5 1.328 . S
C1 H6 0.930 . S
C2 C3 1.333 . S
C2 N4 1.317 . S
C2 H7 0.930 . S
C3 C2 1.333 . S
C3 N5 1.350 . S
C3 H29 0.931 . S
N4 Co0 2.148 . S
N4 C1 1.301 . S
N4 C2 1.317 . S
N5 C1 1.328 . S
N5 C3 1.350 . S
H6 C1 0.930 . S
H7 C2 0.930 . S
C8 O9 1.224 . S
C8 O27 1.247 . S
O9 C8 1.224 . S
N10 Co0 2.128 . S
N10 C11 1.355 . S
N10 C13 1.311 . S
C11 N10 1.355 . S
C11 C12 1.363 . S
C11 H23 0.929 . S
C12 C11 1.363 . S
C12 N14 1.375 . S
C12 H30 0.931 . S
C13 N10 1.311 . S
C13 N14 1.347 . S
C13 H24 0.929 . S
N14 C12 1.375 . S
N14 C13 1.347 . S
C15 C18 1.365 . S
C15 N20 1.328 . S
C15 H21 0.929 . S
C16 C17 1.362 . S
C16 C19 1.378 . S
C16 H31 0.929 . S
C17 C16 1.362 . S
C17 C18 1.366 . S
C18 C15 1.365 . S
C18 C17 1.366 . S
C18 H32 0.930 . S
C19 C16 1.378 . S
C19 N20 1.315 . S
C19 H22 0.930 . S
N20 Co0 2.194 . S
N20 C15 1.328 . S
N20 C19 1.315 . S
H21 C15 0.929 . S
H22 C19 0.930 . S
H23 C11 0.929 . S
H24 C13 0.929 . S
O25 Co0 2.351 . S
O25 C28 1.244 . S
O26 Co0 2.155 . S
O26 C28 1.240 . S
O27 Co0 2.096 . S
O27 C8 1.247 . S
C28 O25 1.244 . S
C28 O26 1.240 . S
H29 C3 0.931 . S
H30 C12 0.931 . S
H31 C16 0.929 . S
H32 C18 0.930 . S
Co33 N37 2.148 . S
Co33 N43 2.128 . S
Co33 N53 2.194 . S
Co33 O58 2.351 . S
Co33 O59 2.155 . S
Co33 O60 2.096 . S
C34 N37 1.301 . S
C34 N38 1.328 . S
C34 H39 0.930 . S
C35 C36 1.333 . S
C35 N37 1.317 . S
C35 H40 0.930 . S
C36 C35 1.333 . S
C36 N38 1.350 . S
C36 H62 0.931 . S
N37 Co33 2.148 . S
N37 C34 1.301 . S
N37 C35 1.317 . S
N38 C34 1.328 . S
N38 C36 1.350 . S
H39 C34 0.930 . S
H40 C35 0.930 . S
C41 O42 1.224 . S
C41 O60 1.247 . S
O42 C41 1.224 . S
N43 Co33 2.128 . S
N43 C44 1.355 . S
N43 C46 1.311 . S
C44 N43 1.355 . S
C44 C45 1.363 . S
C44 H56 0.929 . S
C45 C44 1.363 . S
C45 N47 1.375 . S
C45 H63 0.931 . S
C46 N43 1.311 . S
C46 N47 1.347 . S
C46 H57 0.929 . S
N47 C45 1.375 . S
N47 C46 1.347 . S
C48 C51 1.365 . S
C48 N53 1.328 . S
C48 H54 0.929 . S
C49 C50 1.362 . S
C49 C52 1.378 . S
C49 H64 0.929 . S
C50 C49 1.362 . S
C50 C51 1.366 . S
C51 C48 1.365 . S
C51 C50 1.366 . S
C51 H65 0.930 . S
C52 C49 1.378 . S
C52 N53 1.315 . S
C52 H55 0.930 . S
N53 Co33 2.194 . S
N53 C48 1.328 . S
N53 C52 1.315 . S
H54 C48 0.929 . S
H55 C52 0.930 . S
H56 C44 0.929 . S
H57 C46 0.929 . S
O58 Co33 2.351 . S
O58 C61 1.244 . S
O59 Co33 2.155 . S
O59 C61 1.240 . S
O60 Co33 2.096 . S
O60 C41 1.247 . S
C61 O58 1.244 . S
C61 O59 1.240 . S
H62 C36 0.931 . S
H63 C45 0.931 . S
H64 C49 0.929 . S
H65 C51 0.930 . S
Co66 N70 2.148 . S
Co66 N76 2.128 . S
Co66 N86 2.194 . S
Co66 O91 2.351 . S
Co66 O92 2.155 . S
Co66 O93 2.096 . S
C67 N70 1.301 . S
C67 N71 1.328 . S
C67 H72 0.930 . S
C68 C69 1.333 . S
C68 N70 1.317 . S
C68 H73 0.930 . S
C69 C68 1.333 . S
C69 N71 1.350 . S
C69 H95 0.931 . S
N70 Co66 2.148 . S
N70 C67 1.301 . S
N70 C68 1.317 . S
N71 C67 1.328 . S
N71 C69 1.350 . S
H72 C67 0.930 . S
H73 C68 0.930 . S
C74 O75 1.224 . S
C74 O93 1.247 . S
O75 C74 1.224 . S
N76 Co66 2.128 . S
N76 C77 1.355 . S
N76 C79 1.311 . S
C77 N76 1.355 . S
C77 C78 1.363 . S
C77 H89 0.929 . S
C78 C77 1.363 . S
C78 N80 1.375 . S
C78 H96 0.931 . S
C79 N76 1.311 . S
C79 N80 1.347 . S
C79 H90 0.929 . S
N80 C78 1.375 . S
N80 C79 1.347 . S
C81 C84 1.365 . S
C81 N86 1.328 . S
C81 H87 0.929 . S
C82 C83 1.362 . S
C82 C85 1.378 . S
C82 H97 0.929 . S
C83 C82 1.362 . S
C83 C84 1.366 . S
C84 C81 1.365 . S
C84 C83 1.366 . S
C84 H98 0.930 . S
C85 C82 1.378 . S
C85 N86 1.315 . S
C85 H88 0.930 . S
N86 Co66 2.194 . S
N86 C81 1.328 . S
N86 C85 1.315 . S
H87 C81 0.929 . S
H88 C85 0.930 . S
H89 C77 0.929 . S
H90 C79 0.929 . S
O91 Co66 2.351 . S
O91 C94 1.244 . S
O92 Co66 2.155 . S
O92 C94 1.240 . S
O93 Co66 2.096 . S
O93 C74 1.247 . S
C94 O91 1.244 . S
C94 O92 1.240 . S
H95 C69 0.931 . S
H96 C78 0.931 . S
H97 C82 0.929 . S
H98 C84 0.930 . S
Co99 N103 2.148 . S
Co99 N109 2.128 . S
Co99 N119 2.194 . S
Co99 O124 2.351 . S
Co99 O125 2.155 . S
Co99 O126 2.096 . S
C100 N103 1.301 . S
C100 N104 1.328 . S
C100 H105 0.930 . S
C101 C102 1.333 . S
C101 N103 1.317 . S
C101 H106 0.930 . S
C102 C101 1.333 . S
C102 N104 1.350 . S
C102 H128 0.931 . S
N103 Co99 2.148 . S
N103 C100 1.301 . S
N103 C101 1.317 . S
N104 C100 1.328 . S
N104 C102 1.350 . S
H105 C100 0.930 . S
H106 C101 0.930 . S
C107 O108 1.224 . S
C107 O126 1.247 . S
O108 C107 1.224 . S
N109 Co99 2.128 . S
N109 C110 1.355 . S
N109 C112 1.311 . S
C110 N109 1.355 . S
C110 C111 1.363 . S
C110 H122 0.929 . S
C111 C110 1.363 . S
C111 N113 1.375 . S
C111 H129 0.931 . S
C112 N109 1.311 . S
C112 N113 1.347 . S
C112 H123 0.929 . S
N113 C111 1.375 . S
N113 C112 1.347 . S
C114 C117 1.365 . S
C114 N119 1.328 . S
C114 H120 0.929 . S
C115 C116 1.362 . S
C115 C118 1.378 . S
C115 H130 0.929 . S
C116 C115 1.362 . S
C116 C117 1.366 . S
C117 C114 1.365 . S
C117 C116 1.366 . S
C117 H131 0.930 . S
C118 C115 1.378 . S
C118 N119 1.315 . S
C118 H121 0.930 . S
N119 Co99 2.194 . S
N119 C114 1.328 . S
N119 C118 1.315 . S
H120 C114 0.929 . S
H121 C118 0.930 . S
H122 C110 0.929 . S
H123 C112 0.929 . S
O124 Co99 2.351 . S
O124 C127 1.244 . S
O125 Co99 2.155 . S
O125 C127 1.240 . S
O126 Co99 2.096 . S
O126 C107 1.247 . S
C127 O124 1.244 . S
C127 O125 1.240 . S
H128 C102 0.931 . S
H129 C111 0.931 . S
H130 C115 0.929 . S
H131 C117 0.930 . S
C132 C133 1.349 1_655 S
C132 C134 1.327 . S
C132 H157 0.949 . S
C133 C132 1.349 1_455 S
C133 C149 1.349 1_455 S
C134 C132 1.327 . S
C134 C153 1.429 . S
C134 H158 0.950 . S
C135 C152 1.574 . S
C135 C154 1.368 . S
C135 H159 0.949 . S
H136 C140 0.949 . S
C137 C138 1.349 . S
C137 C139 1.327 . S
C137 H160 0.950 . S
C138 C137 1.349 . S
C138 C150 1.349 . S
C139 C137 1.327 . S
C139 C155 1.429 . S
C139 H161 0.950 . S
C140 H136 0.949 . S
C140 C148 1.574 . S
C140 C156 1.368 . S
H141 C149 0.950 . S
H142 C147 0.950 . S
H143 C148 0.949 . S
H144 C150 0.950 . S
H145 C151 0.950 . S
H146 C152 0.949 . S
C147 H142 0.950 . S
C147 C149 1.327 . S
C147 C153 1.429 . S
C148 C140 1.574 . S
C148 H143 0.949 . S
C148 C154 1.368 . S
C149 C133 1.349 1_655 S
C149 H141 0.950 . S
C149 C147 1.327 . S
C150 C138 1.349 . S
C150 H144 0.950 . S
C150 C151 1.327 . S
C151 H145 0.950 . S
C151 C150 1.327 . S
C151 C155 1.429 . S
C152 C135 1.574 . S
C152 H146 0.949 . S
C152 C156 1.368 . S
C153 C134 1.429 . S
C153 C147 1.429 . S
C153 C154 1.523 . S
C154 C135 1.368 . S
C154 C148 1.368 . S
C154 C153 1.523 . S
C155 C139 1.429 . S
C155 C151 1.429 . S
C155 C156 1.523 . S
C156 C140 1.368 . S
C156 C152 1.368 . S
C156 C155 1.523 . S
H157 C132 0.949 . S
H158 C134 0.950 . S
H159 C135 0.949 . S
H160 C137 0.950 . S
H161 C139 0.950 . S
C162 C163 1.349 . S
C162 C164 1.327 . S
C162 H187 0.950 . S
C163 C162 1.349 . S
C163 C179 1.349 . S
C164 C162 1.327 . S
C164 C183 1.429 . S
C164 H188 0.950 . S
C165 C182 1.574 . S
C165 C184 1.368 . S
C165 H189 0.949 . S
H166 C170 0.949 . S
C167 C168 1.349 1_545 S
C167 C169 1.327 . S
C167 H190 0.950 1_545 S
C168 C167 1.349 1_565 S
C168 C180 1.349 1_565 S
C169 C167 1.327 . S
C169 C185 1.429 . S
C169 H191 0.950 . S
C170 H166 0.949 . S
C170 C178 1.574 . S
C170 C186 1.368 . S
H171 C179 0.950 . S
H172 C177 0.950 . S
H173 C178 0.949 . S
H174 C180 0.950 1_565 S
H175 C181 0.950 . S
H176 C182 0.949 . S
C177 H172 0.950 . S
C177 C179 1.327 . S
C177 C183 1.429 . S
C178 C170 1.574 . S
C178 H173 0.949 . S
C178 C184 1.368 . S
C179 C163 1.349 . S
C179 H171 0.950 . S
C179 C177 1.327 . S
C180 C168 1.349 1_545 S
C180 H174 0.950 1_545 S
C180 C181 1.327 . S
C181 H175 0.950 . S
C181 C180 1.327 . S
C181 C185 1.429 . S
C182 C165 1.574 . S
C182 H176 0.949 . S
C182 C186 1.368 . S
C183 C164 1.429 . S
C183 C177 1.429 . S
C183 C184 1.523 . S
C184 C165 1.368 . S
C184 C178 1.368 . S
C184 C183 1.523 . S
C185 C169 1.429 . S
C185 C181 1.429 . S
C185 C186 1.523 . S
C186 C170 1.368 . S
C186 C182 1.368 . S
C186 C185 1.523 . S
H187 C162 0.950 . S
H188 C164 0.950 . S
H189 C165 0.949 . S
H190 C167 0.950 1_565 S
H191 C169 0.950 . S
C192 C193 1.349 . S
C192 C194 1.327 . S
C192 H217 0.950 . S
C193 C192 1.349 . S
C193 C209 1.349 . S
C194 C192 1.327 . S
C194 C213 1.429 . S
C194 H218 0.950 . S
C195 C212 1.574 . S
C195 C214 1.368 . S
C195 H219 0.949 . S
H196 C200 0.949 . S
C197 C198 1.349 1_455 S
C197 C199 1.327 . S
C197 H220 0.950 . S
C198 C197 1.349 1_655 S
C198 C210 1.349 1_655 S
C199 C197 1.327 . S
C199 C215 1.429 . S
C199 H221 0.950 . S
C200 H196 0.949 . S
C200 C208 1.574 . S
C200 C216 1.368 . S
H201 C209 0.950 . S
H202 C207 0.950 . S
H203 C208 0.949 . S
H204 C210 0.951 1_655 S
H205 C211 0.950 . S
H206 C212 0.949 . S
C207 H202 0.950 . S
C207 C209 1.327 . S
C207 C213 1.429 . S
C208 C200 1.574 . S
C208 H203 0.949 . S
C208 C214 1.368 . S
C209 C193 1.349 . S
C209 H201 0.950 . S
C209 C207 1.327 . S
C210 C198 1.349 1_455 S
C210 H204 0.951 1_455 S
C210 C211 1.327 . S
C211 H205 0.950 . S
C211 C210 1.327 . S
C211 C215 1.429 . S
C212 C195 1.574 . S
C212 H206 0.949 . S
C212 C216 1.368 . S
C213 C194 1.429 . S
C213 C207 1.429 . S
C213 C214 1.523 . S
C214 C195 1.368 . S
C214 C208 1.368 . S
C214 C213 1.523 . S
C215 C199 1.429 . S
C215 C211 1.429 . S
C215 C216 1.523 . S
C216 C200 1.368 . S
C216 C212 1.368 . S
C216 C215 1.523 . S
H217 C192 0.950 . S
H218 C194 0.950 . S
H219 C195 0.949 . S
H220 C197 0.950 . S
H221 C199 0.950 . S
C222 C223 1.349 1_565 S
C222 C224 1.327 . S
C222 H247 0.950 1_565 S
C223 C222 1.349 1_545 S
C223 C239 1.349 1_545 S
C224 C222 1.327 . S
C224 C243 1.429 . S
C224 H248 0.950 . S
C225 C242 1.574 . S
C225 C244 1.368 . S
C225 H249 0.949 . S
H226 C230 0.949 . S
C227 C228 1.349 . S
C227 C229 1.327 . S
C227 H250 0.950 . S
C228 C227 1.349 . S
C228 C240 1.349 . S
C229 C227 1.327 . S
C229 C245 1.429 . S
C229 H251 0.950 . S
C230 H226 0.949 . S
C230 C238 1.574 . S
C230 C246 1.368 . S
H231 C239 0.950 1_545 S
H232 C237 0.950 . S
H233 C238 0.949 . S
H234 C240 0.950 . S
H235 C241 0.950 . S
H236 C242 0.949 . S
C237 H232 0.950 . S
C237 C239 1.327 . S
C237 C243 1.429 . S
C238 C230 1.574 . S
C238 H233 0.949 . S
C238 C244 1.368 . S
C239 C223 1.349 1_565 S
C239 H231 0.950 1_565 S
C239 C237 1.327 . S
C240 C228 1.349 . S
C240 H234 0.950 . S
C240 C241 1.327 . S
C241 H235 0.950 . S
C241 C240 1.327 . S
C241 C245 1.429 . S
C242 C225 1.574 . S
C242 H236 0.949 . S
C242 C246 1.368 . S
C243 C224 1.429 . S
C243 C237 1.429 . S
C243 C244 1.523 . S
C244 C225 1.368 . S
C244 C238 1.368 . S
C244 C243 1.523 . S
C245 C229 1.429 . S
C245 C241 1.429 . S
C245 C246 1.523 . S
C246 C230 1.368 . S
C246 C242 1.368 . S
C246 C245 1.523 . S
H247 C222 0.950 1_545 S
H248 C224 0.950 . S
H249 C225 0.949 . S
H250 C227 0.950 . S
H251 C229 0.950 . S
C252 C253 1.349 . S
C252 C254 1.327 . S
C252 H277 0.950 . S
C253 C252 1.349 . S
C253 C269 1.349 . S
C254 C252 1.327 . S
C254 C273 1.429 . S
C254 H278 0.950 . S
C255 C272 1.574 . S
C255 C274 1.368 . S
C255 H279 0.949 . S
H256 C260 0.949 . S
C257 C258 1.349 . S
C257 C259 1.327 . S
C257 H280 0.950 . S
C258 C257 1.349 . S
C258 C270 1.349 . S
C259 C257 1.327 . S
C259 C275 1.429 . S
C259 H281 0.950 . S
C260 H256 0.949 . S
C260 C268 1.574 . S
C260 C276 1.368 . S
H261 C269 0.950 . S
H262 C267 0.950 . S
H263 C268 0.949 . S
H264 C270 0.950 . S
H265 C271 0.950 . S
H266 C272 0.949 . S
C267 H262 0.950 . S
C267 C269 1.327 . S
C267 C273 1.429 . S
C268 C260 1.574 . S
C268 H263 0.949 . S
C268 C274 1.368 . S
C269 C253 1.349 . S
C269 H261 0.950 . S
C269 C267 1.327 . S
C270 C258 1.349 . S
C270 H264 0.950 . S
C270 C271 1.327 . S
C271 H265 0.950 . S
C271 C270 1.327 . S
C271 C275 1.429 . S
C272 C255 1.574 . S
C272 H266 0.949 . S
C272 C276 1.368 . S
C273 C254 1.429 . S
C273 C267 1.429 . S
C273 C274 1.523 . S
C274 C255 1.368 . S
C274 C268 1.368 . S
C274 C273 1.523 . S
C275 C259 1.429 . S
C275 C271 1.429 . S
C275 C276 1.523 . S
C276 C260 1.368 . S
C276 C272 1.368 . S
C276 C275 1.523 . S
H277 C252 0.950 . S
H278 C254 0.950 . S
H279 C255 0.949 . S
H280 C257 0.950 . S
H281 C259 0.950 . S
C282 C283 1.349 . S
C282 C284 1.327 . S
C282 H307 0.950 . S
C283 C282 1.349 . S
C283 C299 1.349 . S
C284 C282 1.327 . S
C284 C303 1.429 . S
C284 H308 0.950 . S
C285 C302 1.574 . S
C285 C304 1.368 . S
C285 H309 0.949 . S
H286 C290 0.949 . S
C287 C288 1.349 . S
C287 C289 1.327 . S
C287 H310 0.950 . S
C288 C287 1.349 . S
C288 C300 1.349 . S
C289 C287 1.327 . S
C289 C305 1.429 . S
C289 H311 0.950 . S
C290 H286 0.949 . S
C290 C298 1.574 . S
C290 C306 1.368 . S
H291 C299 0.950 . S
H292 C297 0.950 . S
H293 C298 0.949 . S
H294 C300 0.950 . S
H295 C301 0.950 . S
H296 C302 0.949 . S
C297 H292 0.950 . S
C297 C299 1.327 . S
C297 C303 1.429 . S
C298 C290 1.574 . S
C298 H293 0.949 . S
C298 C304 1.368 . S
C299 C283 1.349 . S
C299 H291 0.950 . S
C299 C297 1.327 . S
C300 C288 1.349 . S
C300 H294 0.950 . S
C300 C301 1.327 . S
C301 H295 0.950 . S
C301 C300 1.327 . S
C301 C305 1.429 . S
C302 C285 1.574 . S
C302 H296 0.949 . S
C302 C306 1.368 . S
C303 C284 1.429 . S
C303 C297 1.429 . S
C303 C304 1.523 . S
C304 C285 1.368 . S
C304 C298 1.368 . S
C304 C303 1.523 . S
C305 C289 1.429 . S
C305 C301 1.429 . S
C305 C306 1.523 . S
C306 C290 1.368 . S
C306 C302 1.368 . S
C306 C305 1.523 . S
H307 C282 0.950 . S
H308 C284 0.950 . S
H309 C285 0.949 . S
H310 C287 0.950 . S
H311 C289 0.950 . S
C312 C313 1.349 . S
C312 C314 1.327 . S
C312 H337 0.950 . S
C313 C312 1.349 . S
C313 C329 1.349 . S
C314 C312 1.327 . S
C314 C333 1.429 . S
C314 H338 0.950 . S
C315 C332 1.574 . S
C315 C334 1.368 . S
C315 H339 0.949 . S
H316 C320 0.949 . S
C317 C318 1.349 . S
C317 C319 1.327 . S
C317 H340 0.950 . S
C318 C317 1.349 . S
C318 C330 1.349 . S
C319 C317 1.327 . S
C319 C335 1.429 . S
C319 H341 0.950 . S
C320 H316 0.949 . S
C320 C328 1.574 . S
C320 C336 1.368 . S
H321 C329 0.950 . S
H322 C327 0.950 . S
H323 C328 0.949 . S
H324 C330 0.950 . S
H325 C331 0.950 . S
H326 C332 0.949 . S
C327 H322 0.950 . S
C327 C329 1.327 . S
C327 C333 1.429 . S
C328 C320 1.574 . S
C328 H323 0.949 . S
C328 C334 1.368 . S
C329 C313 1.349 . S
C329 H321 0.950 . S
C329 C327 1.327 . S
C330 C318 1.349 . S
C330 H324 0.950 . S
C330 C331 1.327 . S
C331 H325 0.950 . S
C331 C330 1.327 . S
C331 C335 1.429 . S
C332 C315 1.574 . S
C332 H326 0.949 . S
C332 C336 1.368 . S
C333 C314 1.429 . S
C333 C327 1.429 . S
C333 C334 1.523 . S
C334 C315 1.368 . S
C334 C328 1.368 . S
C334 C333 1.523 . S
C335 C319 1.429 . S
C335 C331 1.429 . S
C335 C336 1.523 . S
C336 C320 1.368 . S
C336 C332 1.368 . S
C336 C335 1.523 . S
H337 C312 0.950 . S
H338 C314 0.950 . S
H339 C315 0.949 . S
H340 C317 0.950 . S
H341 C319 0.950 . S
C342 C343 1.349 . S
C342 C344 1.327 . S
C342 H367 0.950 . S
C343 C342 1.349 . S
C343 C359 1.349 . S
C344 C342 1.327 . S
C344 C363 1.429 . S
C344 H368 0.950 . S
C345 C362 1.574 1_545 S
C345 C364 1.368 . S
C345 H369 0.949 . S
H346 C350 0.949 . S
C347 C348 1.349 . S
C347 C349 1.327 . S
C347 H370 0.950 . S
C348 C347 1.349 . S
C348 C360 1.349 . S
C349 C347 1.327 . S
C349 C365 1.429 . S
C349 H371 0.950 . S
C350 H346 0.949 . S
C350 C358 1.574 1_565 S
C350 C366 1.368 . S
H351 C359 0.950 . S
H352 C357 0.950 . S
H353 C358 0.949 . S
H354 C360 0.950 . S
H355 C361 0.950 . S
H356 C362 0.949 . S
C357 H352 0.950 . S
C357 C359 1.327 . S
C357 C363 1.429 . S
C358 C350 1.574 1_545 S
C358 H353 0.949 . S
C358 C364 1.368 1_554 S
C359 C343 1.349 . S
C359 H351 0.950 . S
C359 C357 1.327 . S
C360 C348 1.349 . S
C360 H354 0.950 . S
C360 C361 1.327 . S
C361 H355 0.950 . S
C361 C360 1.327 . S
C361 C365 1.429 . S
C362 C345 1.574 1_565 S
C362 H356 0.949 . S
C362 C366 1.368 1_556 S
C363 C344 1.429 . S
C363 C357 1.429 . S
C363 C364 1.523 . S
C364 C345 1.368 . S
C364 C358 1.368 1_556 S
C364 C363 1.523 . S
C365 C349 1.429 . S
C365 C361 1.429 . S
C365 C366 1.523 . S
C366 C350 1.368 . S
C366 C362 1.368 1_554 S
C366 C365 1.523 . S
H367 C342 0.950 . S
H368 C344 0.950 . S
H369 C345 0.949 . S
H370 C347 0.950 . S
H371 C349 0.950 . S
C372 C373 1.349 . S
C372 C374 1.327 . S
C372 H397 0.950 . S
C373 C372 1.349 . S
C373 C389 1.349 . S
C374 C372 1.327 . S
C374 C393 1.429 . S
C374 H398 0.950 . S
C375 C392 1.574 . S
C375 C394 1.368 1_545 S
C375 H399 0.949 . S
H376 C380 0.949 . S
C377 C378 1.349 . S
C377 C379 1.327 . S
C377 H400 0.950 . S
C378 C377 1.349 . S
C378 C390 1.349 . S
C379 C377 1.327 . S
C379 C395 1.429 . S
C379 H401 0.950 . S
C380 H376 0.949 . S
C380 C388 1.574 . S
C380 C396 1.368 1_565 S
H381 C389 0.950 . S
H382 C387 0.950 1_545 S
H383 C388 0.949 . S
H384 C390 0.950 . S
H385 C391 0.950 1_565 S
H386 C392 0.949 . S
C387 H382 0.950 1_565 S
C387 C389 1.327 . S
C387 C393 1.429 . S
C388 C380 1.574 . S
C388 H383 0.949 . S
C388 C394 1.368 1_455 S
C389 C373 1.349 . S
C389 H381 0.950 . S
C389 C387 1.327 . S
C390 C378 1.349 . S
C390 H384 0.950 . S
C390 C391 1.327 . S
C391 H385 0.950 1_545 S
C391 C390 1.327 . S
C391 C395 1.429 . S
C392 C375 1.574 . S
C392 H386 0.949 . S
C392 C396 1.368 1_655 S
C393 C374 1.429 . S
C393 C387 1.429 . S
C393 C394 1.523 . S
C394 C375 1.368 1_565 S
C394 C388 1.368 1_655 S
C394 C393 1.523 . S
C395 C379 1.429 . S
C395 C391 1.429 . S
C395 C396 1.523 . S
C396 C380 1.368 1_545 S
C396 C392 1.368 1_455 S
C396 C395 1.523 . S
H397 C372 0.950 . S
H398 C374 0.950 . S
H399 C375 0.949 . S
H400 C377 0.950 . S
H401 C379 0.950 . S
C402 C403 1.349 . S
C402 C404 1.327 . S
C402 H427 0.950 . S
C403 C402 1.349 . S
C403 C419 1.349 . S
C404 C402 1.327 . S
C404 C423 1.429 . S
C404 H428 0.950 . S
C405 C422 1.574 . S
C405 C424 1.368 1_456 S
C405 H429 0.949 . S
H406 C410 0.949 . S
C407 C408 1.349 . S
C407 C409 1.327 . S
C407 H430 0.950 . S
C408 C407 1.349 . S
C408 C420 1.349 . S
C409 C407 1.327 . S
C409 C425 1.429 . S
C409 H431 0.950 . S
C410 H406 0.949 . S
C410 C418 1.574 . S
C410 C426 1.368 1_654 S
H411 C419 0.950 . S
H412 C417 0.950 . S
H413 C418 0.949 . S
H414 C420 0.950 . S
H415 C421 0.950 . S
H416 C422 0.949 . S
C417 H412 0.950 . S
C417 C419 1.327 . S
C417 C423 1.429 . S
C418 C410 1.574 . S
C418 H413 0.949 . S
C418 C424 1.368 . S
C419 C403 1.349 . S
C419 H411 0.950 . S
C419 C417 1.327 . S
C420 C408 1.349 . S
C420 H414 0.950 . S
C420 C421 1.327 . S
C421 H415 0.950 . S
C421 C420 1.327 . S
C421 C425 1.429 . S
C422 C405 1.574 . S
C422 H416 0.949 . S
C422 C426 1.368 . S
C423 C404 1.429 . S
C423 C417 1.429 . S
C423 C424 1.523 . S
C424 C405 1.368 1_654 S
C424 C418 1.368 . S
C424 C423 1.523 . S
C425 C409 1.429 . S
C425 C421 1.429 . S
C425 C426 1.523 . S
C426 C410 1.368 1_456 S
C426 C422 1.368 . S
C426 C425 1.523 . S
H427 C402 0.950 . S
H428 C404 0.950 . S
H429 C405 0.949 . S
H430 C407 0.950 . S
H431 C409 0.950 . S
C133 N5 1.026 . S
C138 N14 1.024 . S
C163 N38 1.026 . S
C168 N47 1.024 . S
C193 N80 1.024 . S
C198 N71 1.026 . S
C223 N113 1.024 . S
C228 N104 1.026 . S
C253 C116 1.430 . S
C258 C17 1.430 . S
C283 C50 1.430 . S
C288 C83 1.430 . S
C313 C8 1.051 . S
C318 C74 1.051 . S
C343 C107 1.041 . S
C348 C41 1.041 . S
C373 C94 1.005 . S
C378 C28 1.005 . S
C403 C61 1.009 . S
C408 C127 1.009 . S
