# Generated by pormake.
# Topology oof, (8)-cn, num edge types: 1
# Building blocks:
#     Node 0, Type 0, BuildingBlock: VETTIZ_charged_sbu_0, # of connection points: 8
#     Node 1, Type 0, BuildingBlock: VETTIZ_charged_sbu_0, # of connection points: 8
#     Node 2, Type 0, BuildingBlock: VETTIZ_charged_sbu_0, # of connection points: 8
#     Node 3, Type 0, BuildingBlock: VETTIZ_charged_sbu_0, # of connection points: 8
#     Edge 4, Type (0, 0), BuildingBlock: FUNLAD_clean_linker_0, # of connection points: 2
#     Edge 5, Type (0, 0), BuildingBlock: FUNLAD_clean_linker_0, # of connection points: 2
#     Edge 6, Type (0, 0), BuildingBlock: FUNLAD_clean_linker_0, # of connection points: 2
#     Edge 7, Type (0, 0), BuildingBlock: FUNLAD_clean_linker_0, # of connection points: 2
#     Edge 8, Type (0, 0), BuildingBlock: FUNLAD_clean_linker_0, # of connection points: 2
#     Edge 9, Type (0, 0), BuildingBlock: FUNLAD_clean_linker_0, # of connection points: 2
#     Edge 10, Type (0, 0), BuildingBlock: FUNLAD_clean_linker_0, # of connection points: 2
#     Edge 11, Type (0, 0), BuildingBlock: FUNLAD_clean_linker_0, # of connection points: 2
#     Edge 12, Type (0, 0), BuildingBlock: FUNLAD_clean_linker_0, # of connection points: 2
#     Edge 13, Type (0, 0), BuildingBlock: FUNLAD_clean_linker_0, # of connection points: 2
#     Edge 14, Type (0, 0), BuildingBlock: FUNLAD_clean_linker_0, # of connection points: 2
#     Edge 15, Type (0, 0), BuildingBlock: FUNLAD_clean_linker_0, # of connection points: 2
#     Edge 16, Type (0, 0), BuildingBlock: FUNLAD_clean_linker_0, # of connection points: 2
#     Edge 17, Type (0, 0), BuildingBlock: FUNLAD_clean_linker_0, # of connection points: 2
#     Edge 18, Type (0, 0), BuildingBlock: FUNLAD_clean_linker_0, # of connection points: 2
#     Edge 19, Type (0, 0), BuildingBlock: FUNLAD_clean_linker_0, # of connection points: 2
# Relax obj value: 0.130
# Max RMSD: 0.230
# Mean RMSD: 0.230
data_MOF--net-oof--node1-VETTIZ_charged_sbu_0--edge1-FUNLAD_clean_linker_0
_symmetry_space_group_name_H-M    P1
_symmetry_Int_Tables_number       1
_symmetry_cell_setting            triclinic
loop_
_symmetry_equiv_pos_as_xyz
'x, y, z'
_cell_length_a     19.139979
_cell_length_b     62.447335
_cell_length_c     18.92273
_cell_angle_alpha  89.694564
_cell_angle_beta   99.269317
_cell_angle_gamma 89.611504
loop_
_atom_site_label
_atom_site_type_symbol
_atom_site_fract_x
_atom_site_fract_y
_atom_site_fract_z
_atom_type_partial_charge
Fe0 Fe 0.05734 0.14696 0.33867 0.0
O1 O 0.99587 0.16701 0.27348 0.0
Fe2 Fe 0.06507 0.10227 0.23067 0.0
Fe3 Fe 0.93932 0.1891 0.31226 0.0
O4 O 0.01139 0.12467 0.27166 0.0
O5 O 1.00657 0.12458 0.2651 0.0
O6 O 0.98989 0.16677 0.26764 0.0
Fe7 Fe 0.94345 0.14447 0.20016 0.0
C8 C 0.96323 0.15813 0.44068 0.0
O9 O 0.09979 0.17405 0.39771 0.0
O10 O 0.03716 0.20239 0.33842 0.0
O11 O 0.01891 0.14878 0.1358 0.0
O12 O 0.05548 0.11506 0.1271 0.0
O13 O 0.16127 0.11689 0.25697 0.0
O14 O 0.13798 0.15087 0.27978 0.0
O15 O 0.91758 0.19967 0.20799 0.0
O16 O 0.88391 0.16936 0.14146 0.0
C17 C 0.1797 0.13637 0.26403 0.0
O18 O 0.9061 0.11737 0.13706 0.0
O19 O 0.96725 0.08931 0.19888 0.0
O20 O 0.98035 0.14302 0.40222 0.0
O21 O 0.9569 0.17723 0.4167 0.0
C22 C 0.0916 0.1943 0.37994 0.0
C23 C 0.88845 0.19011 0.15008 0.0
C24 C 0.82411 0.15429 0.28119 0.0
O25 O 0.8438 0.17359 0.29258 0.0
O26 O 0.86368 0.14001 0.25978 0.0
C27 C 0.04295 0.13385 0.10072 0.0
O28 O 0.07915 0.09169 0.33535 0.0
O29 O 0.11195 0.12221 0.40064 0.0
C30 C 0.91875 0.09692 0.14935 0.0
C31 C 0.1017 0.10161 0.39479 0.0
Fe32 Fe 0.95132 0.91046 0.787 0.0
O33 O 0.97893 0.904 0.69199 0.0
Fe34 Fe 0.07643 0.88227 0.90539 0.0
Fe35 Fe 0.9115 0.90483 0.60206 0.0
O36 O 1.00417 0.88332 0.81766 0.0
O37 O 0.01084 0.88232 0.81476 0.0
O38 O 0.98284 0.90263 0.68907 0.0
Fe39 Fe 0.03891 0.87608 0.71958 0.0
C40 C 0.80862 0.89821 0.70876 0.0
O41 O 0.90559 0.9392 0.73951 0.0
O42 O 0.92095 0.93704 0.62104 0.0
O43 O 0.13085 0.89364 0.74216 0.0
O44 O 0.1655 0.88542 0.85768 0.0
O45 O 0.07504 0.91513 0.9245 0.0
O46 O 0.04238 0.9276 0.81559 0.0
O47 O 0.99972 0.90159 0.55444 0.0
O48 O 0.0593 0.87285 0.61389 0.0
C49 C 0.06397 0.93098 0.88154 0.0
O50 O 0.0944 0.84888 0.76472 0.0
O51 O 0.08241 0.8498 0.88404 0.0
O52 O 0.85686 0.89425 0.7619 0.0
O53 O 0.82276 0.90608 0.65065 0.0
C54 C 0.91479 0.94775 0.67828 0.0
C55 C 0.04534 0.88605 0.55987 0.0
C56 C 0.90942 0.85619 0.63547 0.0
O57 O 0.89926 0.87184 0.5911 0.0
O58 O 0.9504 0.85748 0.69534 0.0
C59 C 0.1787 0.89199 0.79733 0.0
O60 O 0.98517 0.88245 0.94893 0.0
O61 O 0.92832 0.91242 0.89302 0.0
C62 C 0.09954 0.84031 0.82827 0.0
C63 C 0.93903 0.89799 0.94426 0.0
Fe64 Fe 0.59468 0.6448 0.32267 0.0
O65 O 0.53675 0.66602 0.25783 0.0
Fe66 Fe 0.59381 0.60072 0.2081 0.0
Fe67 Fe 0.48175 0.68891 0.29608 0.0
O68 O 0.54579 0.62342 0.25389 0.0
O69 O 0.54052 0.62334 0.24822 0.0
O70 O 0.5293 0.66577 0.25273 0.0
Fe71 Fe 0.4783 0.64405 0.18618 0.0
C72 C 0.49833 0.65723 0.42224 0.0
O73 O 0.63925 0.67108 0.38429 0.0
O74 O 0.58228 0.70073 0.32645 0.0
O75 O 0.55317 0.64788 0.12098 0.0
O76 O 0.57925 0.61378 0.10507 0.0
O77 O 0.69181 0.61442 0.22885 0.0
O78 O 0.67856 0.64777 0.26661 0.0
O79 O 0.4611 0.69974 0.19069 0.0
O80 O 0.42069 0.66919 0.12927 0.0
C81 C 0.7153 0.63316 0.24298 0.0
O82 O 0.43483 0.61754 0.12347 0.0
O83 O 0.49425 0.58878 0.18244 0.0
O84 O 0.51542 0.64199 0.38404 0.0
O85 O 0.49502 0.67647 0.39926 0.0
C86 C 0.63348 0.69161 0.37004 0.0
C87 C 0.42708 0.68992 0.13515 0.0
C88 C 0.36155 0.65567 0.26764 0.0
O89 O 0.38362 0.67485 0.27521 0.0
O90 O 0.39901 0.64057 0.24762 0.0
C91 C 0.57193 0.63305 0.08224 0.0
O92 O 0.61302 0.58939 0.31098 0.0
O93 O 0.6446 0.61868 0.38331 0.0
C94 C 0.44381 0.59701 0.13653 0.0
C95 C 0.63691 0.5981 0.37203 0.0
Fe96 Fe 0.43964 0.44041 0.80263 0.0
O97 O 0.49139 0.4186 0.75604 0.0
Fe98 Fe 0.5508 0.39586 0.82377 0.0
Fe99 Fe 0.44407 0.39892 0.68052 0.0
O100 O 0.49535 0.41838 0.76292 0.0
O101 O 0.50411 0.3762 0.74743 0.0
O102 O 0.49783 0.37618 0.74173 0.0
Fe103 Fe 0.55398 0.35418 0.70111 0.0
C104 C 0.31898 0.40942 0.75157 0.0
O105 O 0.43256 0.45431 0.70416 0.0
O106 O 0.39948 0.42674 0.62481 0.0
O107 O 0.65219 0.36771 0.73137 0.0
O108 O 0.63514 0.40069 0.77109 0.0
O109 O 0.59078 0.42041 0.89704 0.0
O110 O 0.53889 0.45087 0.842 0.0
O111 O 0.52551 0.40242 0.62341 0.0
O112 O 0.54541 0.36846 0.60117 0.0
C113 C 0.58427 0.44122 0.88982 0.0
O114 O 0.56648 0.34081 0.80177 0.0
O115 O 0.60255 0.36889 0.87758 0.0
O116 O 0.34084 0.42823 0.76723 0.0
O117 O 0.35925 0.39496 0.73322 0.0
C118 C 0.41198 0.44693 0.64049 0.0
C119 C 0.53984 0.38792 0.58115 0.0
C120 C 0.40273 0.3533 0.62403 0.0
O121 O 0.39882 0.37401 0.61217 0.0
O122 O 0.45414 0.34337 0.66474 0.0
C123 C 0.67417 0.38649 0.74863 0.0
O124 O 0.46923 0.39092 0.87989 0.0
O125 O 0.44255 0.42474 0.90009 0.0
C126 C 0.5946 0.34853 0.86313 0.0
C127 C 0.44811 0.40513 0.91952 0.0
C128 C 0.9909 0.14981 0.98189 0.0
C129 C 0.04431 0.13738 0.02315 0.0
C130 C 0.98746 0.15174 0.90756 0.0
C131 C 0.03844 0.14174 0.8729 0.0
C132 C 0.09294 0.12979 0.91426 0.0
C133 C 0.095 0.12724 0.98841 0.0
C134 C 0.03742 0.14457 0.79441 0.0
C135 C 0.97778 0.14277 0.74588 0.0
C136 C 0.97591 0.14641 0.66761 0.0
C137 C 0.93605 0.13285 0.61762 0.0
C138 C 0.93194 0.13649 0.54372 0.0
C139 C 0.96533 0.15428 0.51847 0.0
H140 H 0.04016 0.17499 0.67932 0.0
C141 C 1.00407 0.16807 0.56848 0.0
C142 C 0.01007 0.16404 0.64218 0.0
H143 H 0.03096 0.1818 0.55049 0.0
H144 H 0.95048 0.15761 1.00686 0.0
H145 H 0.94552 0.16135 0.87733 0.0
H146 H 0.13324 0.12207 0.88893 0.0
H147 H 0.13647 0.11746 0.01866 0.0
H148 H 0.0875 0.14742 0.77598 0.0
H149 H 0.92916 0.13778 0.76373 0.0
H150 H 0.90883 0.11923 0.63581 0.0
H151 H 0.90215 0.12554 0.50633 0.0
C152 C 0.03229 0.8657 0.4489 0.0
C153 C 0.06972 0.88131 0.49234 0.0
C154 C 0.02046 0.86825 0.37452 0.0
C155 C 0.04702 0.88628 0.34307 0.0
C156 C 0.09358 0.89994 0.38602 0.0
C157 C 0.10429 0.89761 0.46043 0.0
C158 C 0.02213 0.89236 0.26744 0.0
C159 C 0.95467 0.88947 0.2354 0.0
C160 C 0.9304 0.89569 0.15988 0.0
C161 C 0.88821 0.88146 0.11484 0.0
C162 C 0.87958 0.88424 0.04065 0.0
C163 C 0.91174 0.90153 0.01112 0.0
H164 H 0.98459 0.92618 0.16467 0.0
C165 C 0.94399 0.91755 0.0565 0.0
C166 C 0.95407 0.91454 0.13066 0.0
H167 H 0.96958 0.93093 0.03484 0.0
H168 H 1.00433 0.85318 0.47245 0.0
H169 H 0.98663 0.85696 0.34227 0.0
H170 H 0.11583 0.91368 0.36271 0.0
H171 H 0.13246 0.91 0.49308 0.0
H172 H 0.05899 0.9007 0.23905 0.0
H173 H 0.91755 0.88111 0.26338 0.0
H174 H 0.86823 0.86705 0.13645 0.0
H175 H 0.8552 0.87156 1.00651 0.0
C176 C 0.57701 0.62121 0.95601 0.0
C177 C 0.57407 0.63783 1.00547 0.0
C178 C 0.56958 0.62561 0.88241 0.0
C179 C 0.55984 0.64679 0.85669 0.0
C180 C 0.56046 0.66344 0.90637 0.0
C181 C 0.56683 0.65904 0.97969 0.0
C182 C 0.55048 0.65229 0.77892 0.0
C183 C 0.51986 0.63916 0.72648 0.0
C184 C 0.50914 0.64464 0.64831 0.0
C185 C 0.5143 0.6657 0.62253 0.0
C186 C 0.50759 0.66985 0.54898 0.0
C187 C 0.49522 0.65313 0.49911 0.0
H188 H 0.48707 0.61183 0.61589 0.0
C189 C 0.48581 0.63234 0.52443 0.0
C190 C 0.49284 0.62815 0.59809 0.0
H191 H 0.47442 0.61921 0.4873 0.0
H192 H 0.58326 0.6047 0.97386 0.0
H193 H 0.57184 0.61241 0.84603 0.0
H194 H 0.55407 0.67993 0.88824 0.0
H195 H 0.56463 0.67228 0.01602 0.0
H196 H 0.56775 0.66807 0.76558 0.0
H197 H 0.50221 0.62349 0.74107 0.0
H198 H 0.52385 0.67914 0.65838 0.0
H199 H 0.51441 0.68613 0.53142 0.0
C200 C 0.42966 0.41566 0.04288 0.0
C201 C 0.44585 0.39974 0.99568 0.0
C202 C 0.4413 0.41207 0.11684 0.0
C203 C 0.46836 0.39226 0.14561 0.0
C204 C 0.48084 0.37599 0.09808 0.0
C205 C 0.46965 0.37963 0.02407 0.0
C206 C 0.4885 0.38833 0.22425 0.0
C207 C 0.46828 0.40098 0.27498 0.0
C208 C 0.48968 0.39739 0.35336 0.0
C209 C 0.44671 0.40604 0.39963 0.0
C210 C 0.46421 0.40324 0.47352 0.0
C211 C 0.52627 0.39228 0.50338 0.0
H212 H 0.58724 0.37963 0.34942 0.0
C213 C 0.56958 0.38351 0.45755 0.0
C214 C 0.55185 0.38618 0.3831 0.0
H215 H 0.61697 0.37458 0.47931 0.0
H216 H 0.41147 0.43137 0.02306 0.0
H217 H 0.43187 0.42531 0.15068 0.0
H218 H 0.50151 0.36055 0.11834 0.0
H219 H 0.48291 0.36697 0.98951 0.0
H220 H 0.52047 0.37419 0.24064 0.0
H221 H 0.43166 0.41412 0.25934 0.0
H222 H 0.39844 0.41465 0.37849 0.0
H223 H 0.42786 0.40916 0.50723 0.0
C224 C 0.70667 0.16438 0.31365 0.0
C225 C 0.74988 0.14904 0.28713 0.0
C226 C 0.63465 0.16069 0.31208 0.0
C227 C 0.60388 0.14159 0.28355 0.0
C228 C 0.64759 0.1258 0.26043 0.0
C229 C 0.71983 0.1295 0.26188 0.0
C230 C 0.52677 0.13754 0.27761 0.0
C231 C 0.47747 0.1533 0.27144 0.0
C232 C 0.40031 0.1492 0.26489 0.0
C233 C 0.35606 0.16499 0.28719 0.0
C234 C 0.28369 0.16125 0.28483 0.0
C235 C 0.25418 0.14163 0.25962 0.0
H236 H 0.40142 0.11785 0.2155 0.0
C237 C 0.29793 0.12629 0.23404 0.0
C238 C 0.36998 0.13004 0.23634 0.0
H239 H 0.27673 0.11115 0.21297 0.0
H240 H 0.72815 0.17949 0.33461 0.0
H241 H 0.60354 0.17288 0.33336 0.0
H242 H 0.62541 0.11079 0.23923 0.0
H243 H 0.75154 0.1173 0.2413 0.0
H244 H 0.51053 0.12091 0.27668 0.0
H245 H 0.49372 0.16993 0.27244 0.0
H246 H 0.37787 0.18005 0.30833 0.0
H247 H 0.25145 0.17345 0.30469 0.0
C248 C 0.71021 0.8938 0.78191 0.0
C249 C 0.73285 0.89508 0.7149 0.0
C250 C 0.63775 0.89282 0.78642 0.0
C251 C 0.58645 0.89298 0.72385 0.0
C252 C 0.60953 0.89341 0.65715 0.0
C253 C 0.68156 0.89461 0.65266 0.0
C254 C 0.50868 0.89229 0.7252 0.0
C255 C 0.47814 0.89942 0.78022 0.0
C256 C 0.40032 0.89873 0.78166 0.0
C257 C 0.37716 0.89909 0.84833 0.0
C258 C 0.3052 0.89763 0.85303 0.0
C259 C 0.25401 0.89604 0.79096 0.0
H260 H 0.36415 0.89839 0.66655 0.0
C261 C 0.27668 0.89664 0.72385 0.0
C262 C 0.34901 0.89796 0.71918 0.0
H263 H 0.23877 0.89552 0.67493 0.0
H264 H 0.74831 0.89405 0.83089 0.0
H265 H 0.62241 0.8918 0.8389 0.0
H266 H 0.57154 0.89325 0.60806 0.0
H267 H 0.69698 0.89537 0.60008 0.0
H268 H 0.47559 0.88608 0.67787 0.0
H269 H 0.5114 0.90565 0.82743 0.0
H270 H 0.41509 0.89998 0.89735 0.0
H271 H 0.28986 0.89738 0.90568 0.0
C272 C 0.83029 0.65299 0.27545 0.0
C273 C 0.79003 0.6372 0.23514 0.0
C274 C 0.90322 0.65462 0.27418 0.0
C275 C 0.93711 0.64056 0.23212 0.0
C276 C 0.8959 0.62559 0.18922 0.0
C277 C 0.82356 0.62381 0.19107 0.0
C278 C 0.01476 0.64095 0.23053 0.0
C279 C 0.06314 0.6482 0.28471 0.0
C280 C 0.14067 0.64853 0.2826 0.0
C281 C 0.18198 0.66403 0.32284 0.0
C282 C 0.25414 0.66574 0.31977 0.0
C283 C 0.28731 0.65173 0.27731 0.0
H284 H 0.14476 0.62121 0.21249 0.0
C285 C 0.24701 0.63542 0.23993 0.0
C286 C 0.17428 0.63387 0.2423 0.0
H287 H 0.27105 0.62435 0.20688 0.0
H288 H 0.80601 0.6636 0.30975 0.0
H289 H 0.93258 0.66689 0.30616 0.0
H290 H 0.92014 0.61478 0.15548 0.0
H291 H 0.79404 0.61161 0.1587 0.0
H292 H 0.03253 0.63441 0.18336 0.0
H293 H 0.04563 0.65482 0.33188 0.0
H294 H 0.15792 0.67531 0.35521 0.0
H295 H 0.2838 0.67836 0.34984 0.0
C296 C 0.79539 0.37534 0.72888 0.0
C297 C 0.74966 0.39133 0.74747 0.0
C298 C 0.86764 0.37919 0.73285 0.0
C299 C 0.89597 0.39927 0.75482 0.0
C300 C 0.85012 0.41532 0.77254 0.0
C301 C 0.77778 0.41145 0.76877 0.0
C302 C 0.97303 0.40385 0.76307 0.0
C303 C 0.01936 0.39235 0.73167 0.0
C304 C 0.09643 0.39693 0.74042 0.0
C305 C 0.14272 0.38073 0.72463 0.0
C306 C 0.21525 0.38454 0.72974 0.0
C307 C 0.24305 0.40475 0.75044 0.0
H308 H 0.09079 0.43033 0.77187 0.0
C309 C 0.19679 0.42092 0.76667 0.0
C310 C 0.12439 0.41713 0.76137 0.0
H311 H 0.21617 0.43675 0.78213 0.0
H312 H 0.77579 0.35958 0.71283 0.0
H313 H 0.90084 0.36609 0.72068 0.0
H314 H 0.87043 0.43091 0.78998 0.0
H315 H 0.74422 0.42413 0.78374 0.0
H316 H 0.99162 0.41732 0.79668 0.0
H317 H 1.00094 0.37884 0.69819 0.0
H318 H 0.12268 0.36506 0.70791 0.0
H319 H 0.24924 0.37174 0.71645 0.0
C320 C 0.32441 0.32234 0.62862 0.0
C321 C 0.34698 0.33917 0.58846 0.0
C322 C 0.28661 0.30529 0.59475 0.0
C323 C 0.27119 0.3046 0.51971 0.0
C324 C 0.28817 0.32237 0.47977 0.0
C325 C 0.32621 0.33957 0.51395 0.0
C326 C 0.23901 0.28537 0.48224 0.0
C327 C 0.25156 0.26532 0.50894 0.0
C328 C 0.21897 0.24585 0.47319 0.0
C329 C 0.21049 0.22754 0.51467 0.0
C330 C 0.17341 0.20974 0.48372 0.0
C331 C 0.14456 0.21008 0.41077 0.0
H332 H 0.20356 0.25855 0.3645 0.0
C333 C 0.15792 0.22766 0.36841 0.0
C334 C 0.19506 0.24529 0.39905 0.0
H335 H 0.13717 0.22811 0.31163 0.0
H336 H 0.33919 0.32186 0.68638 0.0
H337 H 0.27129 0.29243 0.62748 0.0
H338 H 0.27552 0.32238 0.42187 0.0
H339 H 0.34351 0.35233 0.48196 0.0
H340 H 0.20579 0.28794 0.43075 0.0
H341 H 0.28539 0.26299 0.5603 0.0
H342 H 0.22965 0.2274 0.57177 0.0
H343 H 0.16356 0.19639 0.51749 0.0
C344 C 0.59223 0.31213 0.91605 0.0
C345 C 0.62503 0.33222 0.91633 0.0
C346 C 0.6281 0.29455 0.95076 0.0
C347 C 0.6981 0.29661 0.98615 0.0
C348 C 0.72859 0.31712 0.9918 0.0
C349 C 0.69243 0.33482 0.95703 0.0
C350 C 0.74122 0.27776 0.01616 0.0
C351 C 0.72939 0.25749 0.99237 0.0
C352 C 0.77429 0.239 0.02217 0.0
C353 C 0.74402 0.21859 0.0251 0.0
C354 C 0.78331 0.20159 0.06098 0.0
C355 C 0.85356 0.2048 0.09374 0.0
H356 H 0.87266 0.25665 0.04472 0.0
C357 C 0.88555 0.22461 0.08462 0.0
C358 C 0.84653 0.2415 0.04909 0.0
H359 H 0.93998 0.22742 0.10875 0.0
H360 H 0.53977 0.30976 0.88585 0.0
H361 H 0.60121 0.27933 0.9481 0.0
H362 H 0.78199 0.31926 0.01998 0.0
H363 H 0.71913 0.35007 0.95779 0.0
H364 H 0.7859 0.28093 0.05785 0.0
H365 H 0.68463 0.25404 0.95118 0.0
H366 H 0.68877 0.21614 1.00337 0.0
H367 H 0.75725 0.18654 0.06775 0.0
C368 C 0.66847 0.71567 0.47308 0.0
C369 C 0.68433 0.70635 0.41027 0.0
C370 C 0.70583 0.73357 0.50249 0.0
C371 C 0.75994 0.74249 0.46935 0.0
C372 C 0.77758 0.73241 0.40818 0.0
C373 C 0.73997 0.71455 0.37874 0.0
C374 C 0.79404 0.76331 0.4921 0.0
C375 C 0.79225 0.77257 0.55608 0.0
C376 C 0.82181 0.79418 0.57498 0.0
C377 C 0.84642 0.79893 0.64707 0.0
C378 C 0.87406 0.8191 0.6668 0.0
C379 C 0.87643 0.8352 0.61492 0.0
H380 H 0.80253 0.80755 0.46726 0.0
C381 C 0.84995 0.83065 0.54291 0.0
C382 C 0.82309 0.81037 0.5231 0.0
H383 H 0.85099 0.84265 0.50155 0.0
H384 H 0.6243 0.7099 0.49698 0.0
H385 H 0.68904 0.74098 0.54851 0.0
H386 H 0.81867 0.7389 0.38126 0.0
H387 H 0.75192 0.70785 0.32931 0.0
H388 H 0.82179 0.77138 0.45396 0.0
H389 H 0.77054 0.76391 0.5973 0.0
H390 H 0.84516 0.78688 0.68826 0.0
H391 H 0.89367 0.82207 0.72281 0.0
C392 C 0.40784 0.72476 0.0681 0.0
C393 C 0.387 0.70355 0.07793 0.0
C394 C 0.36476 0.73863 0.02142 0.0
C395 C 0.29937 0.73164 0.98415 0.0
C396 C 0.27964 0.71026 0.99223 0.0
C397 C 0.32339 0.69627 0.03789 0.0
C398 C 0.24752 0.74692 0.94387 0.0
C399 C 0.26673 0.7645 0.91037 0.0
C400 C 0.216 0.78182 0.88197 0.0
C401 C 0.2301 0.79468 0.82486 0.0
C402 C 0.18887 0.81294 0.80379 0.0
C403 C 0.13389 0.819 0.84081 0.0
H404 H 0.14693 0.77803 0.96164 0.0
C405 C 0.11821 0.80571 0.89629 0.0
C406 C 0.15848 0.78726 0.91639 0.0
H407 H 0.0763 0.81 0.92594 0.0
H408 H 0.45651 0.73086 0.09823 0.0
H409 H 0.38104 0.75511 0.01779 0.0
H410 H 0.22928 0.70453 0.96465 0.0
H411 H 0.30545 0.68009 0.04472 0.0
H412 H 0.19166 0.74377 0.94329 0.0
H413 H 0.32193 0.76661 0.90494 0.0
H414 H 0.27445 0.79095 0.79788 0.0
H415 H 0.20279 0.82298 0.76138 0.0
C416 C 0.88035 0.06001 0.11826 0.0
C417 C 0.89286 0.08083 0.09465 0.0
C418 C 0.89235 0.04218 0.07735 0.0
C419 C 0.91651 0.04484 0.01157 0.0
C420 C 0.91934 0.06567 0.98354 0.0
C421 C 0.90792 0.08357 0.0249 0.0
C422 C 0.94242 0.02632 0.97334 0.0
C423 C 0.97748 1.00947 1.00845 0.0
C424 C 1.00569 0.99063 0.973 0.0
C425 C 0.05245 0.97613 0.01431 0.0
C426 C 0.07517 0.95731 0.98408 0.0
C427 C 0.0514 0.95248 0.91171 0.0
H428 H 0.94658 0.99622 0.86626 0.0
C429 C 1.00645 0.96732 0.87069 0.0
C430 C 0.98383 0.98605 0.90028 0.0
H431 H 0.9848 0.96387 0.81651 0.0
H432 H 0.86891 0.05741 0.17191 0.0
H433 H 0.88651 0.02635 0.09915 0.0
H434 H 0.93629 0.06816 0.93219 0.0
H435 H 0.91908 0.09936 1.00565 0.0
H436 H 0.93725 0.0276 0.91558 0.0
H437 H 0.98751 1.0096 0.06663 0.0
H438 H 0.07015 0.97908 0.0707 0.0
H439 H 0.10913 0.94617 0.01803 0.0
C440 C 0.11911 0.06677 0.45938 0.0
C441 C 0.10294 0.0887 0.4606 0.0
C442 C 0.09861 0.05284 0.50999 0.0
C443 C 0.06097 0.06051 0.56293 0.0
C444 C 0.04931 0.08266 0.56727 0.0
C445 C 0.07113 0.0967 0.51713 0.0
C446 C 0.02572 0.04537 0.60683 0.0
C447 C 0.05282 0.0258 0.62483 0.0
C448 C 0.01372 1.00775 0.65172 0.0
C449 C 0.05321 0.98953 0.67724 0.0
C450 C 0.01964 0.97053 0.68966 0.0
C451 C 0.94552 0.96929 0.67883 0.0
H452 H 0.90658 0.02034 0.62176 0.0
C453 C 0.90515 0.98762 0.65629 0.0
C454 C 0.93903 1.00682 0.64294 0.0
H455 H 0.84792 0.9868 0.64547 0.0
H456 H 0.14298 0.06015 0.41602 0.0
H457 H 0.10741 0.03587 0.50366 0.0
H458 H 0.02032 0.089 0.6073 0.0
H459 H 0.05747 0.11352 0.51891 0.0
H460 H 0.97509 0.05012 0.62093 0.0
H461 H 0.10638 0.02228 0.61576 0.0
H462 H 0.11053 0.98962 0.68388 0.0
H463 H 0.05185 0.95641 0.70519 0.0
C464 C 0.44398 0.57879 0.02349 0.0
C465 C 0.41193 0.58102 0.08482 0.0
C466 C 0.46121 0.55841 1.00071 0.0
C467 C 0.44349 0.54002 0.03707 0.0
C468 C 0.39933 0.54229 0.08902 0.0
C469 C 0.38378 0.56269 0.11296 0.0
C470 C 0.47484 0.51868 0.0261 0.0
C471 C 0.5432 0.51624 0.01746 0.0
C472 C 0.57531 0.49513 1.00442 0.0
C473 C 0.62571 0.49419 0.9582 0.0
C474 C 0.64365 0.47453 0.93051 0.0
C475 C 0.61144 0.45558 0.9489 0.0
H476 H 0.51698 0.47597 0.07089 0.0
C477 C 0.5724 0.45617 1.00571 0.0
C478 C 0.55305 0.47586 0.03231 0.0
H479 H 0.54752 0.44179 0.02148 0.0
H480 H 0.46578 0.59265 1.00043 0.0
H481 H 0.49259 0.55712 0.95811 0.0
H482 H 0.38327 0.52833 0.11647 0.0
H483 H 0.35915 0.56392 0.1605 0.0
H484 H 0.44198 0.5047 0.0292 0.0
H485 H 0.57558 0.53036 0.01484 0.0
H486 H 0.64543 0.50878 0.93752 0.0
H487 H 0.67383 0.47457 0.88672 0.0
C488 C 0.39737 0.4841 0.59367 0.0
C489 C 0.41758 0.46276 0.58349 0.0
C490 C 0.42889 0.50104 0.56211 0.0
C491 C 0.4807 0.49691 0.51903 0.0
C492 C 0.49484 0.4756 0.50234 0.0
C493 C 0.46439 0.45868 0.53513 0.0
C494 C 0.52298 0.51431 0.49321 0.0
C495 C 0.54332 0.53201 0.53189 0.0
C496 C 0.5862 0.54924 0.50543 0.0
C497 C 0.57663 0.57062 0.52513 0.0
C498 C 0.60481 0.58742 0.48927 0.0
C499 C 0.64206 0.58298 0.43293 0.0
H500 H 0.64566 0.52861 0.44414 0.0
C501 C 0.66102 0.56162 0.4216 0.0
C502 C 0.63336 0.54489 0.45744 0.0
H503 H 0.69085 0.55774 0.37925 0.0
H504 H 0.36208 0.48776 0.63144 0.0
H505 H 0.41486 0.5173 0.57396 0.0
H506 H 0.53406 0.472 0.46863 0.0
H507 H 0.484 0.44268 0.529 0.0
H508 H 0.54049 0.51184 0.44205 0.0
H509 H 0.52543 0.53447 0.5829 0.0
H510 H 0.54255 0.57442 0.5639 0.0
H511 H 0.59083 0.60374 0.49997 0.0
loop_
_geom_bond_atom_site_label_1
_geom_bond_atom_site_label_2
_geom_bond_distance
_geom_bond_site_symmetry_2
_ccdc_geom_bond_type
Fe0 O1 1.886 . S
Fe0 O4 1.715 . S
Fe0 O9 2.077 . S
Fe0 O14 1.935 . S
Fe0 O20 2.077 . S
Fe0 O29 1.935 . S
O1 Fe0 1.886 . S
O1 Fe3 1.715 1_455 S
Fe2 O4 1.886 . S
Fe2 O5 1.715 1_455 S
Fe2 O12 1.935 . S
Fe2 O13 2.077 . S
Fe2 O19 1.935 1_455 S
Fe2 O28 2.077 . S
Fe3 O1 1.715 1_655 S
Fe3 O6 1.886 . S
Fe3 O10 1.935 1_655 S
Fe3 O15 2.077 . S
Fe3 O21 1.935 . S
Fe3 O25 2.077 . S
O4 Fe0 1.715 . S
O4 Fe2 1.886 . S
O5 Fe2 1.715 1_655 S
O5 Fe7 1.886 . S
O6 Fe3 1.886 . S
O6 Fe7 1.715 . S
Fe7 O5 1.886 . S
Fe7 O6 1.715 . S
Fe7 O11 2.077 . S
Fe7 O16 1.935 . S
Fe7 O18 2.077 . S
Fe7 O26 1.935 . S
C8 O20 1.381 1_655 S
C8 O21 1.421 . S
O9 Fe0 2.077 . S
O9 C22 1.381 . S
O10 Fe3 1.935 1_455 S
O10 C22 1.421 . S
O11 Fe7 2.077 . S
O11 C27 1.381 1_655 S
O12 Fe2 1.935 . S
O12 C27 1.421 . S
O13 Fe2 2.077 . S
O13 C17 1.381 . S
O14 Fe0 1.935 . S
O14 C17 1.421 . S
O15 Fe3 2.077 . S
O15 C23 1.381 . S
O16 Fe7 1.935 . S
O16 C23 1.421 . S
C17 O13 1.381 . S
C17 O14 1.421 . S
O18 Fe7 2.077 . S
O18 C30 1.381 . S
O19 Fe2 1.935 1_655 S
O19 C30 1.421 . S
O20 Fe0 2.077 . S
O20 C8 1.381 1_455 S
O21 Fe3 1.935 . S
O21 C8 1.421 . S
C22 O9 1.381 . S
C22 O10 1.421 . S
C23 O15 1.381 . S
C23 O16 1.421 . S
C24 O25 1.381 . S
C24 O26 1.421 . S
O25 Fe3 2.077 . S
O25 C24 1.381 . S
O26 Fe7 1.935 . S
O26 C24 1.421 . S
C27 O11 1.381 1_455 S
C27 O12 1.421 . S
O28 Fe2 2.077 . S
O28 C31 1.381 . S
O29 Fe0 1.935 . S
O29 C31 1.421 . S
C30 O18 1.381 . S
C30 O19 1.421 . S
C31 O28 1.381 . S
C31 O29 1.421 . S
Fe32 O33 1.886 . S
Fe32 O36 1.715 1_655 S
Fe32 O41 2.077 . S
Fe32 O46 1.935 1_655 S
Fe32 O52 2.077 . S
Fe32 O61 1.935 . S
O33 Fe32 1.886 . S
O33 Fe35 1.715 . S
Fe34 O36 1.886 . S
Fe34 O37 1.715 . S
Fe34 O44 1.935 . S
Fe34 O45 2.077 . S
Fe34 O51 1.935 . S
Fe34 O60 2.077 . S
Fe35 O33 1.715 . S
Fe35 O38 1.886 . S
Fe35 O42 1.935 . S
Fe35 O47 2.077 . S
Fe35 O53 1.935 . S
Fe35 O57 2.077 . S
O36 Fe32 1.715 1_455 S
O36 Fe34 1.886 . S
O37 Fe34 1.715 . S
O37 Fe39 1.886 . S
O38 Fe35 1.886 . S
O38 Fe39 1.715 1_655 S
Fe39 O37 1.886 . S
Fe39 O38 1.715 1_455 S
Fe39 O43 2.077 . S
Fe39 O48 1.935 . S
Fe39 O50 2.077 . S
Fe39 O58 1.935 1_455 S
C40 O52 1.381 . S
C40 O53 1.421 . S
O41 Fe32 2.077 . S
O41 C54 1.381 . S
O42 Fe35 1.935 . S
O42 C54 1.421 . S
O43 Fe39 2.077 . S
O43 C59 1.381 . S
O44 Fe34 1.935 . S
O44 C59 1.421 . S
O45 Fe34 2.077 . S
O45 C49 1.381 . S
O46 Fe32 1.935 1_455 S
O46 C49 1.421 . S
O47 Fe35 2.077 . S
O47 C55 1.381 1_655 S
O48 Fe39 1.935 . S
O48 C55 1.421 . S
C49 O45 1.381 . S
C49 O46 1.421 . S
O50 Fe39 2.077 . S
O50 C62 1.381 . S
O51 Fe34 1.935 . S
O51 C62 1.421 . S
O52 Fe32 2.077 . S
O52 C40 1.381 . S
O53 Fe35 1.935 . S
O53 C40 1.421 . S
C54 O41 1.381 . S
C54 O42 1.421 . S
C55 O47 1.381 1_455 S
C55 O48 1.421 . S
C56 O57 1.381 . S
C56 O58 1.421 . S
O57 Fe35 2.077 . S
O57 C56 1.381 . S
O58 Fe39 1.935 1_655 S
O58 C56 1.421 . S
C59 O43 1.381 . S
C59 O44 1.421 . S
O60 Fe34 2.077 . S
O60 C63 1.381 1_455 S
O61 Fe32 1.935 . S
O61 C63 1.421 . S
C62 O50 1.381 . S
C62 O51 1.421 . S
C63 O60 1.381 1_655 S
C63 O61 1.421 . S
Fe64 O65 1.886 . S
Fe64 O68 1.715 . S
Fe64 O73 2.077 . S
Fe64 O78 1.935 . S
Fe64 O84 2.077 . S
Fe64 O93 1.935 . S
O65 Fe64 1.886 . S
O65 Fe67 1.715 . S
Fe66 O68 1.886 . S
Fe66 O69 1.715 . S
Fe66 O76 1.935 . S
Fe66 O77 2.077 . S
Fe66 O83 1.935 . S
Fe66 O92 2.077 . S
Fe67 O65 1.715 . S
Fe67 O70 1.886 . S
Fe67 O74 1.935 . S
Fe67 O79 2.077 . S
Fe67 O85 1.935 . S
Fe67 O89 2.077 . S
O68 Fe64 1.715 . S
O68 Fe66 1.886 . S
O69 Fe66 1.715 . S
O69 Fe71 1.886 . S
O70 Fe67 1.886 . S
O70 Fe71 1.715 . S
Fe71 O69 1.886 . S
Fe71 O70 1.715 . S
Fe71 O75 2.077 . S
Fe71 O80 1.935 . S
Fe71 O82 2.077 . S
Fe71 O90 1.935 . S
C72 O84 1.381 . S
C72 O85 1.421 . S
O73 Fe64 2.077 . S
O73 C86 1.381 . S
O74 Fe67 1.935 . S
O74 C86 1.421 . S
O75 Fe71 2.077 . S
O75 C91 1.381 . S
O76 Fe66 1.935 . S
O76 C91 1.421 . S
O77 Fe66 2.077 . S
O77 C81 1.381 . S
O78 Fe64 1.935 . S
O78 C81 1.421 . S
O79 Fe67 2.077 . S
O79 C87 1.381 . S
O80 Fe71 1.935 . S
O80 C87 1.421 . S
C81 O77 1.381 . S
C81 O78 1.421 . S
O82 Fe71 2.077 . S
O82 C94 1.381 . S
O83 Fe66 1.935 . S
O83 C94 1.421 . S
O84 Fe64 2.077 . S
O84 C72 1.381 . S
O85 Fe67 1.935 . S
O85 C72 1.421 . S
C86 O73 1.381 . S
C86 O74 1.421 . S
C87 O79 1.381 . S
C87 O80 1.421 . S
C88 O89 1.381 . S
C88 O90 1.421 . S
O89 Fe67 2.077 . S
O89 C88 1.381 . S
O90 Fe71 1.935 . S
O90 C88 1.421 . S
C91 O75 1.381 . S
C91 O76 1.421 . S
O92 Fe66 2.077 . S
O92 C95 1.381 . S
O93 Fe64 1.935 . S
O93 C95 1.421 . S
C94 O82 1.381 . S
C94 O83 1.421 . S
C95 O92 1.381 . S
C95 O93 1.421 . S
Fe96 O97 1.886 . S
Fe96 O100 1.715 . S
Fe96 O105 2.077 . S
Fe96 O110 1.935 . S
Fe96 O116 2.077 . S
Fe96 O125 1.935 . S
O97 Fe96 1.886 . S
O97 Fe99 1.715 . S
Fe98 O100 1.886 . S
Fe98 O101 1.715 . S
Fe98 O108 1.935 . S
Fe98 O109 2.077 . S
Fe98 O115 1.935 . S
Fe98 O124 2.077 . S
Fe99 O97 1.715 . S
Fe99 O102 1.886 . S
Fe99 O106 1.935 . S
Fe99 O111 2.077 . S
Fe99 O117 1.935 . S
Fe99 O121 2.077 . S
O100 Fe96 1.715 . S
O100 Fe98 1.886 . S
O101 Fe98 1.715 . S
O101 Fe103 1.886 . S
O102 Fe99 1.886 . S
O102 Fe103 1.715 . S
Fe103 O101 1.886 . S
Fe103 O102 1.715 . S
Fe103 O107 2.077 . S
Fe103 O112 1.935 . S
Fe103 O114 2.077 . S
Fe103 O122 1.935 . S
C104 O116 1.381 . S
C104 O117 1.421 . S
O105 Fe96 2.077 . S
O105 C118 1.381 . S
O106 Fe99 1.935 . S
O106 C118 1.421 . S
O107 Fe103 2.077 . S
O107 C123 1.381 . S
O108 Fe98 1.935 . S
O108 C123 1.421 . S
O109 Fe98 2.077 . S
O109 C113 1.381 . S
O110 Fe96 1.935 . S
O110 C113 1.421 . S
O111 Fe99 2.077 . S
O111 C119 1.381 . S
O112 Fe103 1.935 . S
O112 C119 1.421 . S
C113 O109 1.381 . S
C113 O110 1.421 . S
O114 Fe103 2.077 . S
O114 C126 1.381 . S
O115 Fe98 1.935 . S
O115 C126 1.421 . S
O116 Fe96 2.077 . S
O116 C104 1.381 . S
O117 Fe99 1.935 . S
O117 C104 1.421 . S
C118 O105 1.381 . S
C118 O106 1.421 . S
C119 O111 1.381 . S
C119 O112 1.421 . S
C120 O121 1.381 . S
C120 O122 1.421 . S
O121 Fe99 2.077 . S
O121 C120 1.381 . S
O122 Fe103 1.935 . S
O122 C120 1.421 . S
C123 O107 1.381 . S
C123 O108 1.421 . S
O124 Fe98 2.077 . S
O124 C127 1.381 . S
O125 Fe96 1.935 . S
O125 C127 1.421 . S
C126 O114 1.381 . S
C126 O115 1.421 . S
C127 O124 1.381 . S
C127 O125 1.421 . S
C128 C129 1.386 1_655 S
C128 C130 1.383 . S
C128 H144 0.951 . S
C129 C128 1.386 1_455 S
C129 C133 1.383 . S
C130 C128 1.383 . S
C130 C131 1.402 1_655 S
C130 H145 0.951 . S
C131 C130 1.402 1_455 S
C131 C132 1.375 . S
C131 C134 1.481 . S
C132 C131 1.375 . S
C132 C133 1.367 . S
C132 H146 0.951 . S
C133 C129 1.383 . S
C133 C132 1.367 . S
C133 H147 0.950 . S
C134 C131 1.481 . S
C134 C135 1.297 1_455 S
C134 H148 0.950 . S
C135 C134 1.297 1_655 S
C135 C136 1.479 . S
C135 H149 0.950 . S
C136 C135 1.479 . S
C136 C137 1.375 . S
C136 C142 1.404 . S
C137 C136 1.375 . S
C137 C138 1.369 . S
C137 H150 0.950 . S
C138 C137 1.369 . S
C138 C139 1.392 . S
C138 H151 0.951 . S
C139 C138 1.392 . S
C139 C141 1.384 . S
H140 C142 0.949 1_455 S
C141 C139 1.384 . S
C141 C142 1.385 . S
C141 H143 0.950 1_655 S
C142 C136 1.404 . S
C142 H140 0.949 1_655 S
C142 C141 1.385 . S
H143 C141 0.950 1_455 S
H144 C128 0.951 . S
H145 C130 0.951 . S
H146 C132 0.951 . S
H147 C133 0.950 . S
H148 C134 0.950 . S
H149 C135 0.950 . S
H150 C137 0.950 . S
H151 C138 0.951 . S
C152 C153 1.386 . S
C152 C154 1.383 . S
C152 H168 0.951 . S
C153 C152 1.386 . S
C153 C157 1.383 . S
C154 C152 1.383 . S
C154 C155 1.401 . S
C154 H169 0.951 1_455 S
C155 C154 1.401 . S
C155 C156 1.377 . S
C155 C158 1.480 1_455 S
C156 C155 1.377 . S
C156 C157 1.367 . S
C156 H170 0.951 . S
C157 C153 1.383 . S
C157 C156 1.367 . S
C157 H171 0.950 . S
C158 C155 1.480 1_655 S
C158 C159 1.297 . S
C158 H172 0.950 . S
C159 C158 1.297 . S
C159 C160 1.479 . S
C159 H173 0.950 . S
C160 C159 1.479 . S
C160 C161 1.375 . S
C160 C166 1.404 . S
C161 C160 1.375 . S
C161 C162 1.369 . S
C161 H174 0.950 . S
C162 C161 1.369 . S
C162 C163 1.392 . S
C162 H175 0.951 . S
C163 C162 1.392 . S
C163 C165 1.384 . S
H164 C166 0.949 . S
C165 C163 1.384 . S
C165 C166 1.385 . S
C165 H167 0.950 . S
C166 C160 1.404 . S
C166 H164 0.949 . S
C166 C165 1.385 . S
H167 C165 0.950 . S
H168 C152 0.951 . S
H169 C154 0.951 1_655 S
H170 C156 0.951 . S
H171 C157 0.950 . S
H172 C158 0.950 . S
H173 C159 0.950 . S
H174 C161 0.950 . S
H175 C162 0.951 . S
C176 C177 1.386 . S
C176 C178 1.383 . S
C176 H192 0.951 . S
C177 C176 1.386 . S
C177 C181 1.383 . S
C178 C176 1.383 . S
C178 C179 1.402 . S
C178 H193 0.951 . S
C179 C178 1.402 . S
C179 C180 1.375 . S
C179 C182 1.481 . S
C180 C179 1.375 . S
C180 C181 1.367 . S
C180 H194 0.951 . S
C181 C177 1.383 . S
C181 C180 1.367 . S
C181 H195 0.950 . S
C182 C179 1.481 . S
C182 C183 1.297 . S
C182 H196 0.950 . S
C183 C182 1.297 . S
C183 C184 1.479 . S
C183 H197 0.950 . S
C184 C183 1.479 . S
C184 C185 1.375 . S
C184 C190 1.404 . S
C185 C184 1.375 . S
C185 C186 1.369 . S
C185 H198 0.950 . S
C186 C185 1.369 . S
C186 C187 1.392 . S
C186 H199 0.951 . S
C187 C186 1.392 . S
C187 C189 1.384 . S
H188 C190 0.949 . S
C189 C187 1.384 . S
C189 C190 1.385 . S
C189 H191 0.950 . S
C190 C184 1.404 . S
C190 H188 0.949 . S
C190 C189 1.385 . S
H191 C189 0.950 . S
H192 C176 0.951 . S
H193 C178 0.951 . S
H194 C180 0.951 . S
H195 C181 0.950 . S
H196 C182 0.950 . S
H197 C183 0.950 . S
H198 C185 0.950 . S
H199 C186 0.951 . S
C200 C201 1.386 . S
C200 C202 1.383 . S
C200 H216 0.951 . S
C201 C200 1.386 . S
C201 C205 1.383 . S
C202 C200 1.383 . S
C202 C203 1.402 . S
C202 H217 0.951 . S
C203 C202 1.402 . S
C203 C204 1.375 . S
C203 C206 1.481 . S
C204 C203 1.375 . S
C204 C205 1.367 . S
C204 H218 0.951 . S
C205 C201 1.383 . S
C205 C204 1.367 . S
C205 H219 0.950 . S
C206 C203 1.481 . S
C206 C207 1.297 . S
C206 H220 0.950 . S
C207 C206 1.297 . S
C207 C208 1.479 . S
C207 H221 0.950 . S
C208 C207 1.479 . S
C208 C209 1.375 . S
C208 C214 1.404 . S
C209 C208 1.375 . S
C209 C210 1.369 . S
C209 H222 0.950 . S
C210 C209 1.369 . S
C210 C211 1.392 . S
C210 H223 0.951 . S
C211 C210 1.392 . S
C211 C213 1.384 . S
H212 C214 0.949 . S
C213 C211 1.384 . S
C213 C214 1.385 . S
C213 H215 0.950 . S
C214 C208 1.404 . S
C214 H212 0.949 . S
C214 C213 1.385 . S
H215 C213 0.950 . S
H216 C200 0.951 . S
H217 C202 0.951 . S
H218 C204 0.951 . S
H219 C205 0.950 . S
H220 C206 0.950 . S
H221 C207 0.950 . S
H222 C209 0.950 . S
H223 C210 0.951 . S
C224 C225 1.386 . S
C224 C226 1.383 . S
C224 H240 0.951 . S
C225 C224 1.386 . S
C225 C229 1.383 . S
C226 C224 1.383 . S
C226 C227 1.402 . S
C226 H241 0.951 . S
C227 C226 1.402 . S
C227 C228 1.375 . S
C227 C230 1.481 . S
C228 C227 1.375 . S
C228 C229 1.367 . S
C228 H242 0.951 . S
C229 C225 1.383 . S
C229 C228 1.367 . S
C229 H243 0.950 . S
C230 C227 1.481 . S
C230 C231 1.297 . S
C230 H244 0.950 . S
C231 C230 1.297 . S
C231 C232 1.479 . S
C231 H245 0.950 . S
C232 C231 1.479 . S
C232 C233 1.375 . S
C232 C238 1.404 . S
C233 C232 1.375 . S
C233 C234 1.369 . S
C233 H246 0.950 . S
C234 C233 1.369 . S
C234 C235 1.392 . S
C234 H247 0.951 . S
C235 C234 1.392 . S
C235 C237 1.384 . S
H236 C238 0.949 . S
C237 C235 1.384 . S
C237 C238 1.385 . S
C237 H239 0.950 . S
C238 C232 1.404 . S
C238 H236 0.949 . S
C238 C237 1.385 . S
H239 C237 0.950 . S
H240 C224 0.951 . S
H241 C226 0.951 . S
H242 C228 0.951 . S
H243 C229 0.950 . S
H244 C230 0.950 . S
H245 C231 0.950 . S
H246 C233 0.950 . S
H247 C234 0.951 . S
C248 C249 1.386 . S
C248 C250 1.383 . S
C248 H264 0.951 . S
C249 C248 1.386 . S
C249 C253 1.383 . S
C250 C248 1.383 . S
C250 C251 1.402 . S
C250 H265 0.951 . S
C251 C250 1.402 . S
C251 C252 1.375 . S
C251 C254 1.481 . S
C252 C251 1.375 . S
C252 C253 1.367 . S
C252 H266 0.951 . S
C253 C249 1.383 . S
C253 C252 1.367 . S
C253 H267 0.950 . S
C254 C251 1.481 . S
C254 C255 1.297 . S
C254 H268 0.950 . S
C255 C254 1.297 . S
C255 C256 1.479 . S
C255 H269 0.950 . S
C256 C255 1.479 . S
C256 C257 1.375 . S
C256 C262 1.404 . S
C257 C256 1.375 . S
C257 C258 1.369 . S
C257 H270 0.950 . S
C258 C257 1.369 . S
C258 C259 1.392 . S
C258 H271 0.951 . S
C259 C258 1.392 . S
C259 C261 1.384 . S
H260 C262 0.949 . S
C261 C259 1.384 . S
C261 C262 1.385 . S
C261 H263 0.950 . S
C262 C256 1.404 . S
C262 H260 0.949 . S
C262 C261 1.385 . S
H263 C261 0.950 . S
H264 C248 0.951 . S
H265 C250 0.951 . S
H266 C252 0.951 . S
H267 C253 0.950 . S
H268 C254 0.950 . S
H269 C255 0.950 . S
H270 C257 0.950 . S
H271 C258 0.951 . S
C272 C273 1.386 . S
C272 C274 1.383 . S
C272 H288 0.951 . S
C273 C272 1.386 . S
C273 C277 1.383 . S
C274 C272 1.383 . S
C274 C275 1.402 . S
C274 H289 0.951 . S
C275 C274 1.402 . S
C275 C276 1.375 . S
C275 C278 1.481 . S
C276 C275 1.375 . S
C276 C277 1.367 . S
C276 H290 0.951 . S
C277 C273 1.383 . S
C277 C276 1.367 . S
C277 H291 0.950 . S
C278 C275 1.481 . S
C278 C279 1.297 1_655 S
C278 H292 0.950 . S
C279 C278 1.297 1_455 S
C279 C280 1.479 . S
C279 H293 0.950 . S
C280 C279 1.479 . S
C280 C281 1.375 . S
C280 C286 1.404 . S
C281 C280 1.375 . S
C281 C282 1.369 . S
C281 H294 0.950 . S
C282 C281 1.369 . S
C282 C283 1.392 . S
C282 H295 0.951 . S
C283 C282 1.392 . S
C283 C285 1.384 . S
H284 C286 0.949 . S
C285 C283 1.384 . S
C285 C286 1.385 . S
C285 H287 0.950 . S
C286 C280 1.404 . S
C286 H284 0.949 . S
C286 C285 1.385 . S
H287 C285 0.950 . S
H288 C272 0.951 . S
H289 C274 0.951 . S
H290 C276 0.951 . S
H291 C277 0.950 . S
H292 C278 0.950 . S
H293 C279 0.950 . S
H294 C281 0.950 . S
H295 C282 0.951 . S
C296 C297 1.386 . S
C296 C298 1.383 . S
C296 H312 0.951 . S
C297 C296 1.386 . S
C297 C301 1.383 . S
C298 C296 1.383 . S
C298 C299 1.402 . S
C298 H313 0.951 . S
C299 C298 1.402 . S
C299 C300 1.375 . S
C299 C302 1.481 . S
C300 C299 1.375 . S
C300 C301 1.367 . S
C300 H314 0.951 . S
C301 C297 1.383 . S
C301 C300 1.367 . S
C301 H315 0.950 . S
C302 C299 1.481 . S
C302 C303 1.297 1_655 S
C302 H316 0.950 . S
C303 C302 1.297 1_455 S
C303 C304 1.479 . S
C303 H317 0.950 . S
C304 C303 1.479 . S
C304 C305 1.375 . S
C304 C310 1.404 . S
C305 C304 1.375 . S
C305 C306 1.369 . S
C305 H318 0.950 . S
C306 C305 1.369 . S
C306 C307 1.392 . S
C306 H319 0.951 . S
C307 C306 1.392 . S
C307 C309 1.384 . S
H308 C310 0.949 . S
C309 C307 1.384 . S
C309 C310 1.385 . S
C309 H311 0.950 . S
C310 C304 1.404 . S
C310 H308 0.949 . S
C310 C309 1.385 . S
H311 C309 0.950 . S
H312 C296 0.951 . S
H313 C298 0.951 . S
H314 C300 0.951 . S
H315 C301 0.950 . S
H316 C302 0.950 . S
H317 C303 0.950 . S
H318 C305 0.950 . S
H319 C306 0.951 . S
C320 C321 1.386 . S
C320 C322 1.383 . S
C320 H336 0.951 . S
C321 C320 1.386 . S
C321 C325 1.383 . S
C322 C320 1.383 . S
C322 C323 1.402 . S
C322 H337 0.951 . S
C323 C322 1.402 . S
C323 C324 1.375 . S
C323 C326 1.481 . S
C324 C323 1.375 . S
C324 C325 1.367 . S
C324 H338 0.951 . S
C325 C321 1.383 . S
C325 C324 1.367 . S
C325 H339 0.950 . S
C326 C323 1.481 . S
C326 C327 1.297 . S
C326 H340 0.950 . S
C327 C326 1.297 . S
C327 C328 1.479 . S
C327 H341 0.950 . S
C328 C327 1.479 . S
C328 C329 1.375 . S
C328 C334 1.404 . S
C329 C328 1.375 . S
C329 C330 1.369 . S
C329 H342 0.950 . S
C330 C329 1.369 . S
C330 C331 1.392 . S
C330 H343 0.951 . S
C331 C330 1.392 . S
C331 C333 1.384 . S
H332 C334 0.949 . S
C333 C331 1.384 . S
C333 C334 1.385 . S
C333 H335 0.950 . S
C334 C328 1.404 . S
C334 H332 0.949 . S
C334 C333 1.385 . S
H335 C333 0.950 . S
H336 C320 0.951 . S
H337 C322 0.951 . S
H338 C324 0.951 . S
H339 C325 0.950 . S
H340 C326 0.950 . S
H341 C327 0.950 . S
H342 C329 0.950 . S
H343 C330 0.951 . S
C344 C345 1.386 . S
C344 C346 1.383 . S
C344 H360 0.951 . S
C345 C344 1.386 . S
C345 C349 1.383 . S
C346 C344 1.383 . S
C346 C347 1.402 . S
C346 H361 0.951 . S
C347 C346 1.402 . S
C347 C348 1.375 . S
C347 C350 1.481 . S
C348 C347 1.375 . S
C348 C349 1.367 . S
C348 H362 0.951 . S
C349 C345 1.383 . S
C349 C348 1.367 . S
C349 H363 0.950 . S
C350 C347 1.481 . S
C350 C351 1.297 . S
C350 H364 0.950 . S
C351 C350 1.297 . S
C351 C352 1.479 1_556 S
C351 H365 0.950 . S
C352 C351 1.479 1_554 S
C352 C353 1.375 . S
C352 C358 1.404 . S
C353 C352 1.375 . S
C353 C354 1.369 . S
C353 H366 0.950 . S
C354 C353 1.369 . S
C354 C355 1.392 . S
C354 H367 0.951 . S
C355 C354 1.392 . S
C355 C357 1.384 . S
H356 C358 0.949 . S
C357 C355 1.384 . S
C357 C358 1.385 . S
C357 H359 0.950 . S
C358 C352 1.404 . S
C358 H356 0.949 . S
C358 C357 1.385 . S
H359 C357 0.950 . S
H360 C344 0.951 . S
H361 C346 0.951 . S
H362 C348 0.951 . S
H363 C349 0.950 . S
H364 C350 0.950 . S
H365 C351 0.950 . S
H366 C353 0.950 . S
H367 C354 0.951 . S
C368 C369 1.386 . S
C368 C370 1.383 . S
C368 H384 0.951 . S
C369 C368 1.386 . S
C369 C373 1.383 . S
C370 C368 1.383 . S
C370 C371 1.402 . S
C370 H385 0.951 . S
C371 C370 1.402 . S
C371 C372 1.375 . S
C371 C374 1.481 . S
C372 C371 1.375 . S
C372 C373 1.367 . S
C372 H386 0.951 . S
C373 C369 1.383 . S
C373 C372 1.367 . S
C373 H387 0.950 . S
C374 C371 1.481 . S
C374 C375 1.297 . S
C374 H388 0.950 . S
C375 C374 1.297 . S
C375 C376 1.479 . S
C375 H389 0.950 . S
C376 C375 1.479 . S
C376 C377 1.375 . S
C376 C382 1.404 . S
C377 C376 1.375 . S
C377 C378 1.369 . S
C377 H390 0.950 . S
C378 C377 1.369 . S
C378 C379 1.392 . S
C378 H391 0.951 . S
C379 C378 1.392 . S
C379 C381 1.384 . S
H380 C382 0.949 . S
C381 C379 1.384 . S
C381 C382 1.385 . S
C381 H383 0.950 . S
C382 C376 1.404 . S
C382 H380 0.949 . S
C382 C381 1.385 . S
H383 C381 0.950 . S
H384 C368 0.951 . S
H385 C370 0.951 . S
H386 C372 0.951 . S
H387 C373 0.950 . S
H388 C374 0.950 . S
H389 C375 0.950 . S
H390 C377 0.950 . S
H391 C378 0.951 . S
C392 C393 1.386 . S
C392 C394 1.383 . S
C392 H408 0.951 . S
C393 C392 1.386 . S
C393 C397 1.383 . S
C394 C392 1.383 . S
C394 C395 1.402 . S
C394 H409 0.951 . S
C395 C394 1.402 . S
C395 C396 1.375 . S
C395 C398 1.481 1_554 S
C396 C395 1.375 . S
C396 C397 1.367 . S
C396 H410 0.951 1_554 S
C397 C393 1.383 . S
C397 C396 1.367 . S
C397 H411 0.950 . S
C398 C395 1.481 1_556 S
C398 C399 1.297 . S
C398 H412 0.950 . S
C399 C398 1.297 . S
C399 C400 1.479 . S
C399 H413 0.950 1_556 S
C400 C399 1.479 . S
C400 C401 1.375 . S
C400 C406 1.404 . S
C401 C400 1.375 . S
C401 C402 1.369 . S
C401 H414 0.950 . S
C402 C401 1.369 . S
C402 C403 1.392 . S
C402 H415 0.951 . S
C403 C402 1.392 . S
C403 C405 1.384 . S
H404 C406 0.949 . S
C405 C403 1.384 . S
C405 C406 1.385 . S
C405 H407 0.950 . S
C406 C400 1.404 . S
C406 H404 0.949 . S
C406 C405 1.385 . S
H407 C405 0.950 . S
H408 C392 0.951 . S
H409 C394 0.951 . S
H410 C396 0.951 1_556 S
H411 C397 0.950 . S
H412 C398 0.950 . S
H413 C399 0.950 1_554 S
H414 C401 0.950 . S
H415 C402 0.951 . S
C416 C417 1.386 . S
C416 C418 1.383 . S
C416 H432 0.951 . S
C417 C416 1.386 . S
C417 C421 1.383 . S
C418 C416 1.383 . S
C418 C419 1.402 . S
C418 H433 0.951 . S
C419 C418 1.402 . S
C419 C420 1.375 . S
C419 C422 1.481 1_554 S
C420 C419 1.375 . S
C420 C421 1.367 . S
C420 H434 0.951 1_654 S
C421 C417 1.383 . S
C421 C420 1.367 . S
C421 H435 0.950 . S
C422 C419 1.481 1_556 S
C422 C423 1.297 1_545 S
C422 H436 0.950 1_655 S
C423 C422 1.297 1_565 S
C423 C424 1.479 1_655 S
C423 H437 0.950 1_556 S
C424 C423 1.479 1_455 S
C424 C425 1.375 1_455 S
C424 C430 1.404 . S
C425 C424 1.375 1_655 S
C425 C426 1.369 1_655 S
C425 H438 0.950 . S
C426 C425 1.369 1_455 S
C426 C427 1.392 . S
C426 H439 0.951 . S
C427 C426 1.392 . S
C427 C429 1.384 . S
H428 C430 0.949 . S
C429 C427 1.384 . S
C429 C430 1.385 . S
C429 H431 0.950 . S
C430 C424 1.404 . S
C430 H428 0.949 . S
C430 C429 1.385 . S
H431 C429 0.950 . S
H432 C416 0.951 . S
H433 C418 0.951 . S
H434 C420 0.951 1_456 S
H435 C421 0.950 . S
H436 C422 0.950 1_455 S
H437 C423 0.950 1_554 S
H438 C425 0.950 . S
H439 C426 0.951 . S
C440 C441 1.386 . S
C440 C442 1.383 . S
C440 H456 0.951 . S
C441 C440 1.386 . S
C441 C445 1.383 . S
C442 C440 1.383 . S
C442 C443 1.402 . S
C442 H457 0.951 . S
C443 C442 1.402 . S
C443 C444 1.375 1_455 S
C443 C446 1.481 1_455 S
C444 C443 1.375 1_655 S
C444 C445 1.367 1_655 S
C444 H458 0.951 . S
C445 C441 1.383 . S
C445 C444 1.367 1_455 S
C445 H459 0.950 1_455 S
C446 C443 1.481 1_655 S
C446 C447 1.297 1_645 S
C446 H460 0.950 . S
C447 C446 1.297 1_465 S
C447 C448 1.479 1_455 S
C447 H461 0.951 . S
C448 C447 1.479 1_655 S
C448 C449 1.375 1_655 S
C448 C454 1.404 . S
C449 C448 1.375 1_455 S
C449 C450 1.369 1_455 S
C449 H462 0.950 . S
C450 C449 1.369 1_655 S
C450 C451 1.392 . S
C450 H463 0.951 1_655 S
C451 C450 1.392 . S
C451 C453 1.384 . S
H452 C454 0.949 . S
C453 C451 1.384 . S
C453 C454 1.385 . S
C453 H455 0.950 . S
C454 C448 1.404 . S
C454 H452 0.949 . S
C454 C453 1.385 . S
H455 C453 0.950 . S
H456 C440 0.951 . S
H457 C442 0.951 . S
H458 C444 0.951 . S
H459 C445 0.950 1_655 S
H460 C446 0.950 . S
H461 C447 0.951 . S
H462 C449 0.950 . S
H463 C450 0.951 1_455 S
C464 C465 1.386 . S
C464 C466 1.383 . S
C464 H480 0.951 . S
C465 C464 1.386 . S
C465 C469 1.383 . S
C466 C464 1.383 . S
C466 C467 1.402 . S
C466 H481 0.951 . S
C467 C466 1.402 . S
C467 C468 1.375 . S
C467 C470 1.481 . S
C468 C467 1.375 . S
C468 C469 1.367 . S
C468 H482 0.951 . S
C469 C465 1.383 . S
C469 C468 1.367 . S
C469 H483 0.950 . S
C470 C467 1.481 . S
C470 C471 1.297 . S
C470 H484 0.950 . S
C471 C470 1.297 . S
C471 C472 1.479 1_554 S
C471 H485 0.950 . S
C472 C471 1.479 1_556 S
C472 C473 1.375 . S
C472 C478 1.404 . S
C473 C472 1.375 . S
C473 C474 1.369 . S
C473 H486 0.950 . S
C474 C473 1.369 . S
C474 C475 1.392 . S
C474 H487 0.951 . S
C475 C474 1.392 . S
C475 C477 1.384 . S
H476 C478 0.949 1_554 S
C477 C475 1.384 . S
C477 C478 1.385 . S
C477 H479 0.950 . S
C478 C472 1.404 . S
C478 H476 0.949 1_556 S
C478 C477 1.385 . S
H479 C477 0.950 . S
H480 C464 0.951 . S
H481 C466 0.951 . S
H482 C468 0.951 . S
H483 C469 0.950 . S
H484 C470 0.950 . S
H485 C471 0.950 . S
H486 C473 0.950 . S
H487 C474 0.951 . S
C488 C489 1.386 . S
C488 C490 1.383 . S
C488 H504 0.951 . S
C489 C488 1.386 . S
C489 C493 1.383 . S
C490 C488 1.383 . S
C490 C491 1.402 . S
C490 H505 0.951 . S
C491 C490 1.402 . S
C491 C492 1.375 . S
C491 C494 1.481 . S
C492 C491 1.375 . S
C492 C493 1.367 . S
C492 H506 0.951 . S
C493 C489 1.383 . S
C493 C492 1.367 . S
C493 H507 0.950 . S
C494 C491 1.481 . S
C494 C495 1.297 . S
C494 H508 0.950 . S
C495 C494 1.297 . S
C495 C496 1.479 . S
C495 H509 0.950 . S
C496 C495 1.479 . S
C496 C497 1.375 . S
C496 C502 1.404 . S
C497 C496 1.375 . S
C497 C498 1.369 . S
C497 H510 0.950 . S
C498 C497 1.369 . S
C498 C499 1.392 . S
C498 H511 0.951 . S
C499 C498 1.392 . S
C499 C501 1.384 . S
H500 C502 0.949 . S
C501 C499 1.384 . S
C501 C502 1.385 . S
C501 H503 0.950 . S
C502 C496 1.404 . S
C502 H500 0.949 . S
C502 C501 1.385 . S
H503 C501 0.950 . S
H504 C488 0.951 . S
H505 C490 0.951 . S
H506 C492 0.951 . S
H507 C493 0.950 . S
H508 C494 0.950 . S
H509 C495 0.950 . S
H510 C497 0.950 . S
H511 C498 0.951 . S
C129 C27 1.257 1_556 S
C139 C8 1.236 . S
C153 C55 1.237 . S
C163 C63 1.270 1_554 S
C177 C91 1.197 1_556 S
C187 C72 1.207 . S
C201 C127 1.232 1_554 S
C211 C119 1.156 . S
C225 C24 1.181 . S
C235 C17 1.251 . S
C249 C40 1.172 . S
C259 C59 1.194 . S
C273 C81 1.172 . S
C283 C88 1.247 . S
C297 C123 1.224 . S
C307 C104 1.206 . S
C321 C120 1.625 . S
C331 C22 1.606 . S
C345 C126 1.581 . S
C355 C23 1.596 . S
C369 C86 1.642 . S
C379 C56 1.648 . S
C393 C87 1.602 . S
C403 C62 1.559 . S
C417 C30 1.595 . S
C427 C49 1.558 . S
C441 C31 1.773 . S
C451 C54 1.783 . S
C465 C94 1.647 . S
C475 C113 1.614 . S
C489 C118 1.781 . S
C499 C95 1.763 . S
