# Generated by pormake.
# Topology mmt, (4)-cn, num edge types: 1
# Building blocks:
#     Node 0, Type 0, BuildingBlock: TATPOV_clean_sbu_0, # of connection points: 4
#     Node 1, Type 0, BuildingBlock: TATPOV_clean_sbu_0, # of connection points: 4
#     Node 2, Type 0, BuildingBlock: TATPOV_clean_sbu_0, # of connection points: 4
#     Node 3, Type 0, BuildingBlock: TATPOV_clean_sbu_0, # of connection points: 4
#     Node 4, Type 0, BuildingBlock: TATPOV_clean_sbu_0, # of connection points: 4
#     Node 5, Type 0, BuildingBlock: TATPOV_clean_sbu_0, # of connection points: 4
#     Node 6, Type 0, BuildingBlock: TATPOV_clean_sbu_0, # of connection points: 4
#     Node 7, Type 0, BuildingBlock: TATPOV_clean_sbu_0, # of connection points: 4
#     Edge 8, Type (0, 0), BuildingBlock: MIFKUJ_clean_linker_0, # of connection points: 2
#     Edge 9, Type (0, 0), BuildingBlock: MIFKUJ_clean_linker_0, # of connection points: 2
#     Edge 10, Type (0, 0), BuildingBlock: MIFKUJ_clean_linker_0, # of connection points: 2
#     Edge 11, Type (0, 0), BuildingBlock: MIFKUJ_clean_linker_0, # of connection points: 2
#     Edge 12, Type (0, 0), BuildingBlock: MIFKUJ_clean_linker_0, # of connection points: 2
#     Edge 13, Type (0, 0), BuildingBlock: MIFKUJ_clean_linker_0, # of connection points: 2
#     Edge 14, Type (0, 0), BuildingBlock: MIFKUJ_clean_linker_0, # of connection points: 2
#     Edge 15, Type (0, 0), BuildingBlock: MIFKUJ_clean_linker_0, # of connection points: 2
#     Edge 16, Type (0, 0), BuildingBlock: MIFKUJ_clean_linker_0, # of connection points: 2
#     Edge 17, Type (0, 0), BuildingBlock: MIFKUJ_clean_linker_0, # of connection points: 2
#     Edge 18, Type (0, 0), BuildingBlock: MIFKUJ_clean_linker_0, # of connection points: 2
#     Edge 19, Type (0, 0), BuildingBlock: MIFKUJ_clean_linker_0, # of connection points: 2
#     Edge 20, Type (0, 0), BuildingBlock: MIFKUJ_clean_linker_0, # of connection points: 2
#     Edge 21, Type (0, 0), BuildingBlock: MIFKUJ_clean_linker_0, # of connection points: 2
#     Edge 22, Type (0, 0), BuildingBlock: MIFKUJ_clean_linker_0, # of connection points: 2
#     Edge 23, Type (0, 0), BuildingBlock: MIFKUJ_clean_linker_0, # of connection points: 2
# Relax obj value: 0.066
# Max RMSD: 0.112
# Mean RMSD: 0.112
data_MOF--net-mmt--node1-TATPOV_clean_sbu_0--edge1-MIFKUJ_clean_linker_0
_symmetry_space_group_name_H-M    P1
_symmetry_Int_Tables_number       1
_symmetry_cell_setting            triclinic
loop_
_symmetry_equiv_pos_as_xyz
'x, y, z'
_cell_length_a     28.225531
_cell_length_b     51.600607
_cell_length_c     52.760067
_cell_angle_alpha  89.930712
_cell_angle_beta   89.944293
_cell_angle_gamma 89.822726
loop_
_atom_site_label
_atom_site_type_symbol
_atom_site_fract_x
_atom_site_fract_y
_atom_site_fract_z
_atom_type_partial_charge
Zn0 Zn 0.23155 0.52474 0.36621 0.0
Zn1 Zn 0.21962 0.57444 0.36127 0.0
O2 O 0.18661 0.56362 0.3954 0.0
O3 O 0.20409 0.5224 0.40071 0.0
O4 O 0.21723 0.61403 0.36204 0.0
O5 O 0.30107 0.52521 0.3611 0.0
O6 O 0.2914 0.56695 0.35455 0.0
C7 C 0.18397 0.54279 0.40849 0.0
C8 C 0.17125 0.53941 0.3237 0.0
O9 O 0.17965 0.56262 0.33072 0.0
O10 O 0.18884 0.52051 0.33587 0.0
C11 C 0.23045 0.62795 0.34339 0.0
O12 O 0.24427 0.61648 0.32241 0.0
C13 C 0.31819 0.54695 0.35507 0.0
Zn14 Zn 0.26581 1.01004 0.36373 0.0
Zn15 Zn 0.28033 0.96042 0.35512 0.0
O16 O 0.31484 0.96847 0.38941 0.0
O17 O 0.29646 1.00912 0.39753 0.0
O18 O 0.28428 0.92105 0.35117 0.0
O19 O 0.19574 1.00819 0.36058 0.0
O20 O 0.20806 0.96737 0.35055 0.0
C21 C 0.31749 0.98841 0.40371 0.0
C22 C 0.32382 0.9995 0.31919 0.0
O23 O 0.31744 0.97577 0.32508 0.0
O24 O 0.30575 0.0173 0.33266 0.0
C25 C 0.27101 0.90635 0.36923 0.0
O26 O 0.25673 0.917 0.39053 0.0
C27 C 0.17988 0.98658 0.35332 0.0
Zn28 Zn 0.73252 0.50884 0.13 0.0
Zn29 Zn 0.72213 0.45913 0.13826 0.0
O30 O 0.68715 0.46667 0.10393 0.0
O31 O 0.70077 0.50796 0.09656 0.0
O32 O 0.72352 0.41958 0.1423 0.0
O33 O 0.8026 0.50919 0.13282 0.0
O34 O 0.79358 0.46821 0.14304 0.0
C35 C 0.68189 0.48682 0.09005 0.0
C36 C 0.67558 0.49694 0.17446 0.0
O37 O 0.68305 0.47336 0.16828 0.0
O38 O 0.69299 0.5151 0.16126 0.0
C39 C 0.70388 0.40331 0.12753 0.0
O40 O 0.67838 0.4119 0.10845 0.0
C41 C 0.82022 0.488 0.14033 0.0
Zn42 Zn 0.76418 0.02227 0.13564 0.0
Zn43 Zn 0.77717 0.07255 0.13651 0.0
O44 O 0.81512 0.05942 0.10477 0.0
O45 O 0.80084 0.01748 0.10387 0.0
O46 O 0.77735 0.11215 0.13365 0.0
O47 O 0.69411 0.02352 0.13479 0.0
O48 O 0.70468 0.06531 0.14015 0.0
C49 C 0.82082 0.03717 0.09451 0.0
C50 C 0.81549 0.04053 0.17997 0.0
O51 O 0.8123 0.06272 0.16939 0.0
O52 O 0.79728 0.02082 0.16955 0.0
C53 C 0.79504 0.12792 0.14959 0.0
O54 O 0.81757 0.11873 0.16945 0.0
C55 C 0.67705 0.04579 0.13879 0.0
Zn56 Zn 0.77507 0.50554 0.62963 0.0
Zn57 Zn 0.77715 0.455 0.63303 0.0
O58 O 0.81221 0.46412 0.599 0.0
O59 O 0.80334 0.50636 0.59527 0.0
O60 O 0.76979 0.4156 0.63238 0.0
O61 O 0.70562 0.50914 0.6341 0.0
O62 O 0.7074 0.46692 0.63953 0.0
C63 C 0.8188 0.48514 0.58662 0.0
C64 C 0.83093 0.48604 0.67201 0.0
O65 O 0.8185 0.46374 0.66402 0.0
O66 O 0.81743 0.5063 0.66044 0.0
C67 C 0.80202 0.39893 0.63699 0.0
O68 O 0.84484 0.40698 0.64266 0.0
C69 C 0.68443 0.48829 0.63935 0.0
Zn70 Zn 0.70926 0.01797 0.62944 0.0
Zn71 Zn 0.7146 0.06883 0.63365 0.0
O72 O 0.68275 0.06168 0.59835 0.0
O73 O 0.68849 0.01938 0.59364 0.0
O74 O 0.72507 0.10801 0.63462 0.0
O75 O 0.77715 1.01216 0.6376 0.0
O76 O 0.78215 0.05451 0.64151 0.0
C77 C 0.67639 0.04128 0.58506 0.0
C78 C 0.65063 0.03921 0.66946 0.0
O79 O 0.66942 0.06074 0.66325 0.0
O80 O 0.66042 0.01863 0.65748 0.0
C81 C 0.69332 0.12495 0.62998 0.0
O82 O 0.65035 0.11722 0.6242 0.0
C83 C 0.80132 0.03207 0.64259 0.0
Zn84 Zn 0.27352 0.51028 0.86241 0.0
Zn85 Zn 0.2736 0.56109 0.86293 0.0
O86 O 0.30752 0.55078 0.89682 0.0
O87 O 0.30672 0.50812 0.89551 0.0
O88 O 0.26521 0.6004 0.8645 0.0
O89 O 0.2038 0.50658 0.86092 0.0
O90 O 0.20398 0.54892 0.85633 0.0
C91 C 0.31801 0.52885 0.90669 0.0
C92 C 0.32581 0.53287 0.82079 0.0
O93 O 0.31648 0.55424 0.83189 0.0
O94 O 0.31038 0.5117 0.82969 0.0
C95 C 0.29851 0.61698 0.86377 0.0
O96 O 0.34255 0.60882 0.86223 0.0
C97 C 0.18165 0.52742 0.85658 0.0
Zn98 Zn 0.2053 0.99658 0.86953 0.0
Zn99 Zn 0.21178 0.94737 0.86409 0.0
O100 O 0.18159 0.95377 0.90003 0.0
O101 O 0.18806 0.99582 0.90579 0.0
O102 O 0.22296 0.90824 0.86291 0.0
O103 O 0.27079 1.00431 0.85908 0.0
O104 O 0.279 0.96214 0.85507 0.0
C105 C 0.17614 0.9738 0.91401 0.0
C106 C 0.14419 0.97726 0.83025 0.0
O107 O 0.16407 0.95563 0.83539 0.0
O108 O 0.15448 0.99726 0.84296 0.0
C109 C 0.19011 0.8914 0.86393 0.0
O110 O 0.14591 0.89928 0.86558 0.0
C111 C 0.29612 0.98499 0.85331 0.0
H112 H 0.38443 0.50855 0.35654 0.0
H113 H 0.45495 0.50499 0.33048 0.0
H114 H 0.43373 0.58319 0.30356 0.0
H115 H 0.36147 0.58657 0.32911 0.0
H116 H 0.44254 0.55236 0.26527 0.0
H117 H 0.5332 0.56463 0.33988 0.0
H118 H 0.55781 0.55839 0.38429 0.0
H119 H 0.59085 0.47865 0.36898 0.0
H120 H 0.56581 0.48429 0.32454 0.0
H121 H 0.64809 0.5452 0.18935 0.0
H122 H 0.5964 0.55694 0.22446 0.0
H123 H 0.58362 0.47644 0.24523 0.0
H124 H 0.63571 0.46428 0.20982 0.0
H125 H 0.5972 0.51233 0.28733 0.0
H126 H 0.49849 0.50081 0.21317 0.0
H127 H 0.47705 0.50873 0.16851 0.0
H128 H 0.46212 0.59006 0.18378 0.0
H129 H 0.48422 0.58267 0.22847 0.0
C130 C 0.39527 0.52529 0.34559 0.0
C131 C 0.36691 0.54775 0.34467 0.0
C132 C 0.436 0.52327 0.33077 0.0
C133 C 0.44987 0.54382 0.31501 0.0
C134 C 0.42364 0.56703 0.31551 0.0
C135 C 0.38251 0.56902 0.33026 0.0
C136 C 0.48777 0.53964 0.29585 0.0
C137 C 0.47675 0.54418 0.27026 0.0
C138 C 0.53209 0.52837 0.30215 0.0
C139 C 0.54731 0.52486 0.32888 0.0
C140 C 0.54538 0.5457 0.34601 0.0
C141 C 0.55947 0.54229 0.37119 0.0
C142 C 0.5758 0.51813 0.37946 0.0
C143 C 0.57818 0.49735 0.36254 0.0
C144 C 0.56412 0.50066 0.33734 0.0
C145 C 0.63465 0.52989 0.2014 0.0
C146 C 0.6458 0.50372 0.19663 0.0
C147 C 0.60511 0.5367 0.22149 0.0
C148 C 0.58605 0.51756 0.23728 0.0
C149 C 0.59814 0.49147 0.2332 0.0
C150 C 0.62763 0.48457 0.21291 0.0
C151 C 0.55143 0.52485 0.25712 0.0
C152 C 0.56312 0.52083 0.28264 0.0
C153 C 0.50789 0.53685 0.25083 0.0
C154 C 0.49347 0.54122 0.22411 0.0
C155 C 0.49094 0.52041 0.20697 0.0
C156 C 0.47864 0.5248 0.18165 0.0
C157 C 0.46837 0.5499 0.17329 0.0
C158 C 0.47015 0.57064 0.19027 0.0
C159 C 0.48253 0.56636 0.2156 0.0
H160 H 0.45896 0.55326 0.15368 0.0
H161 H 0.58669 0.51552 0.39896 0.0
H162 H 0.88042 0.07334 0.20154 0.0
H163 H 0.93326 0.06353 0.23721 0.0
H164 H 0.86473 0.98964 0.2473 0.0
H165 H 0.81188 0.99928 0.21201 0.0
H166 H 0.89008 1.01187 0.29316 0.0
H167 H 0.95919 0.99341 0.21075 0.0
H168 H 0.98335 1.00594 0.16754 0.0
H169 H 0.07803 0.06292 0.19805 0.0
H170 H 0.05348 0.05114 0.24146 0.0
H171 H 0.14332 0.95284 0.31866 0.0
H172 H 0.07046 0.95904 0.29426 0.0
H173 H 0.0336 0.02469 0.34085 0.0
H174 H 0.1064 0.01875 0.36521 0.0
H175 H 0.0587 1.00496 0.26724 0.0
H176 H 0.91039 0.03094 0.33869 0.0
H177 H 0.88428 0.01858 0.38166 0.0
H178 H 0.9489 0.9437 0.37277 0.0
H179 H 0.97482 0.95546 0.32964 0.0
C180 C 0.876 0.05527 0.21172 0.0
C181 C 0.84256 0.0369 0.2037 0.0
C182 C 0.90619 0.04968 0.23205 0.0
C183 C 0.90323 0.02571 0.24464 0.0
C184 C 0.86764 1.00821 0.23782 0.0
C185 C 0.83772 0.01369 0.21749 0.0
C186 C 0.94023 0.01744 0.26285 0.0
C187 C 0.92702 1.0105 0.28761 0.0
C188 C 0.9882 0.01514 0.25537 0.0
C189 C 0.00414 0.02158 0.22932 0.0
C190 C 0.98498 1.0087 0.20823 0.0
C191 C -0.00128 0.01568 0.1837 0.0
C192 C 0.03215 0.03527 0.18004 0.0
C193 C 0.05207 0.0478 0.20092 0.0
C194 C 0.03822 0.041 0.22548 0.0
C195 C 0.11891 0.96802 0.32429 0.0
C196 C 0.13079 0.98548 0.34368 0.0
C197 C 0.07748 0.97165 0.31021 0.0
C198 C 0.04694 0.99245 0.31564 0.0
C199 C 0.05662 1.00847 0.33642 0.0
C200 C 0.09826 1.00505 0.35031 0.0
C201 C 0.00874 0.99955 0.29769 0.0
C202 C 0.02181 1.00635 0.27291 0.0
C203 C 0.96076 1.0016 0.30518 0.0
C204 C 0.94494 0.99421 0.33101 0.0
C205 C 0.91887 1.01181 0.34587 0.0
C206 C 0.90413 1.00491 0.37026 0.0
C207 C 0.91505 0.9804 0.37997 0.0
C208 C 0.94063 0.96272 0.36527 0.0
C209 C 0.95544 0.96951 0.34087 0.0
H210 H 0.90362 0.97511 0.39886 0.0
H211 H 0.04265 0.04074 0.16105 0.0
H212 H 0.88603 0.5264 0.13632 0.0
H213 H 0.95578 0.53193 0.16274 0.0
H214 H 0.93527 0.45558 0.19425 0.0
H215 H 0.86438 0.45012 0.16822 0.0
H216 H 0.93716 0.49049 0.23034 0.0
H217 H 0.03561 0.47162 0.15931 0.0
H218 H 0.06474 0.47486 0.11536 0.0
H219 H 0.09816 0.5551 0.12687 0.0
H220 H 0.06861 0.55246 0.1708 0.0
H221 H 0.13692 0.49252 0.30938 0.0
H222 H 0.08532 0.48262 0.27383 0.0
H223 H 0.08422 0.56316 0.25202 0.0
H224 H 0.13625 0.57348 0.28799 0.0
H225 H 0.09643 0.52554 0.21044 0.0
H226 H 0.99324 0.54425 0.28076 0.0
H227 H 0.96483 0.54035 0.3248 0.0
H228 H 0.94099 0.45897 0.31397 0.0
H229 H 0.96996 0.46231 0.26994 0.0
C230 C 0.89704 0.51043 0.14831 0.0
C231 C 0.86912 0.48798 0.15047 0.0
C232 C 0.93721 0.5136 0.16336 0.0
C233 C 0.95067 0.49424 0.18062 0.0
C234 C 0.92534 0.47084 0.18115 0.0
C235 C 0.88496 0.46768 0.16614 0.0
C236 C 0.98638 0.49998 0.20046 0.0
C237 C 0.97233 0.49762 0.22589 0.0
C238 C 0.03169 0.51019 0.19474 0.0
C239 C 0.0495 0.51189 0.16831 0.0
C240 C 0.04879 0.49002 0.15242 0.0
C241 C 0.06546 0.49174 0.12751 0.0
C242 C 0.08319 0.51519 0.11831 0.0
C243 C 0.08439 0.53696 0.13402 0.0
C244 C 0.06774 0.53535 0.15894 0.0
C245 C 0.12602 0.50823 0.29704 0.0
C246 C 0.14055 0.53387 0.30162 0.0
C247 C 0.09651 0.50247 0.2767 0.0
C248 C 0.08092 0.52215 0.26042 0.0
C249 C 0.09608 0.54772 0.26443 0.0
C250 C 0.12548 0.55359 0.28503 0.0
C251 C 0.04699 0.51585 0.24001 0.0
C252 C 0.06131 0.51821 0.21465 0.0
C253 C 0.00188 0.50554 0.2457 0.0
C254 C 0.98424 0.50349 0.27214 0.0
C255 C 0.98235 0.52547 0.28784 0.0
C256 C 0.96607 0.52338 0.31278 0.0
C257 C 0.95124 0.49941 0.3222 0.0
C258 C 0.95255 0.47751 0.30666 0.0
C259 C 0.96887 0.4795 0.2817 0.0
H260 H 0.93863 0.49783 0.34152 0.0
H261 H 0.09608 0.51647 0.09902 0.0
H262 H 0.63213 0.08711 0.16117 0.0
H263 H 0.55884 0.08499 0.18584 0.0
H264 H 0.53678 1.00648 0.16055 0.0
H265 H 0.60884 1.00869 0.13533 0.0
H266 H 0.45352 0.02907 0.16987 0.0
H267 H 0.60297 0.01854 0.21292 0.0
H268 H 0.6833 0.03172 0.22588 0.0
H269 H 0.62592 0.09902 0.26276 0.0
H270 H 0.54526 0.08641 0.24964 0.0
H271 H 0.35714 0.96806 0.28105 0.0
H272 H 0.40654 0.9808 0.24484 0.0
H273 H 0.40563 0.05993 0.27101 0.0
H274 H 0.35633 0.04755 0.30696 0.0
H275 H 0.49579 0.0408 0.26042 0.0
H276 H 0.34255 0.04561 0.22099 0.0
H277 H 0.26422 0.02906 0.20835 0.0
H278 H 0.33078 0.96825 0.1656 0.0
H279 H 0.40955 0.98421 0.1783 0.0
C280 C 0.61073 0.06977 0.16006 0.0
C281 C 0.62695 0.04783 0.14683 0.0
C282 C 0.56896 0.06852 0.1743 0.0
C283 C 0.54325 0.04527 0.17567 0.0
C284 C 0.55632 0.02451 0.16002 0.0
C285 C 0.59776 0.0258 0.14567 0.0
C286 C 0.50782 0.04097 0.19602 0.0
C287 C 0.4627 0.03163 0.18967 0.0
C288 C 0.51985 0.04425 0.22188 0.0
C289 C 0.5682 0.05171 0.23004 0.0
C290 C 0.60754 0.03624 0.22365 0.0
C291 C 0.65311 0.04359 0.23103 0.0
C292 C 0.65972 0.06623 0.24507 0.0
C293 C 0.62075 0.08152 0.25183 0.0
C294 C 0.5751 0.07428 0.24442 0.0
C295 C 0.3673 0.98818 0.27901 0.0
C296 C 0.35286 1.00677 0.29692 0.0
C297 C 0.39525 0.99544 0.25826 0.0
C298 C 0.40939 0.02134 0.25522 0.0
C299 C 0.39493 0.03988 0.273 0.0
C300 C 0.36671 0.03273 0.29353 0.0
C301 C 0.44145 0.02897 0.2343 0.0
C302 C 0.4862 0.03871 0.24061 0.0
C303 C 0.42928 0.02557 0.20852 0.0
C304 C 0.38196 0.01598 0.20079 0.0
C305 C 0.3405 0.02858 0.20908 0.0
C306 C 0.29601 0.01933 0.20186 0.0
C307 C 0.29252 0.99758 0.18623 0.0
C308 C 0.33353 0.98508 0.17773 0.0
C309 C 0.37811 0.99423 0.18491 0.0
H310 H 0.25805 0.99045 0.18066 0.0
H311 H 0.69503 0.0719 0.25077 0.0
H312 H 0.39819 0.56542 0.80744 0.0
H313 H 0.45314 0.56006 0.77158 0.0
H314 H 0.3747 0.49325 0.74655 0.0
H315 H 0.32068 0.49807 0.78248 0.0
H316 H 0.50771 0.51273 0.76361 0.0
H317 H 0.37888 0.4972 0.67946 0.0
H318 H 0.30074 0.51283 0.66499 0.0
H319 H 0.31937 0.58332 0.70692 0.0
H320 H 0.39785 0.56831 0.72131 0.0
H321 H 0.63688 0.45204 0.6675 0.0
H322 H 0.56653 0.45994 0.69357 0.0
H323 H 0.55268 0.53641 0.66129 0.0
H324 H 0.62238 0.52861 0.63501 0.0
H325 H 0.46592 0.51531 0.67225 0.0
H326 H 0.61694 0.52872 0.71347 0.0
H327 H 0.69667 0.51531 0.72753 0.0
H328 H 0.63598 0.45399 0.77191 0.0
H329 H 0.55592 0.4668 0.75779 0.0
C330 C 0.39236 0.54987 0.79404 0.0
C331 C 0.35545 0.53207 0.79776 0.0
C332 C 0.42377 0.54677 0.77369 0.0
C333 C 0.41778 0.52629 0.75648 0.0
C334 C 0.37969 0.50924 0.75956 0.0
C335 C 0.34902 0.51198 0.78012 0.0
C336 C 0.45313 0.52132 0.73636 0.0
C337 C 0.49864 0.51337 0.74363 0.0
C338 C 0.44114 0.52221 0.71036 0.0
C339 C 0.39404 0.53146 0.70169 0.0
C340 C 0.36635 0.51606 0.68554 0.0
C341 C 0.32199 0.52481 0.67735 0.0
C342 C 0.30503 0.54901 0.68511 0.0
C343 C 0.33244 0.56453 0.70102 0.0
C344 C 0.37682 0.55588 0.70924 0.0
C345 C 0.61792 0.47019 0.6653 0.0
C346 C 0.63566 0.48988 0.64952 0.0
C347 C 0.5779 0.47473 0.68033 0.0
C348 C 0.55515 0.49899 0.67976 0.0
C349 C 0.56992 0.51763 0.66214 0.0
C350 C 0.60989 0.51315 0.64718 0.0
C351 C 0.52023 0.50623 0.69953 0.0
C352 C 0.47488 0.51459 0.69222 0.0
C353 C 0.53248 0.506 0.72556 0.0
C354 C 0.58051 0.49857 0.7344 0.0
C355 C 0.62064 0.51229 0.72611 0.0
C356 C 0.66588 0.5048 0.7341 0.0
C357 C 0.6714 0.48378 0.75056 0.0
C358 C 0.63166 0.47025 0.75914 0.0
C359 C 0.58635 0.47762 0.75116 0.0
H360 H 0.70645 0.478 0.75671 0.0
H361 H 0.27069 0.55575 0.67874 0.0
H362 H 0.85907 0.99003 0.63756 0.0
H363 H 0.9277 0.97933 0.66372 0.0
H364 H 0.91911 0.05442 0.69929 0.0
H365 H 0.85089 0.06549 0.67277 0.0
H366 H 0.01069 0.03799 0.695 0.0
H367 H 0.86197 1.00328 0.72492 0.0
H368 H 0.78813 0.97819 0.72092 0.0
H369 H 0.86877 0.90912 0.7062 0.0
H370 H 0.94313 0.93392 0.70977 0.0
H371 H 0.09087 0.0195 0.81844 0.0
H372 H 0.0416 0.02635 0.78131 0.0
H373 H 0.07253 0.94882 0.75561 0.0
H374 H 0.12239 0.9416 0.79319 0.0
H375 H 0.97727 0.96258 0.75074 0.0
H376 H 0.1274 0.99775 0.72749 0.0
H377 H 0.19944 0.02395 0.73337 0.0
H378 H 0.11494 0.09317 0.73727 0.0
H379 H 0.04229 0.06735 0.7318 0.0
C380 C 0.87258 1.00455 0.65046 0.0
C381 C 0.84916 0.02846 0.65341 0.0
C382 C 0.9117 0.99835 0.66545 0.0
C383 C 0.92764 0.0158 0.68391 0.0
C384 C 0.90712 0.0406 0.68527 0.0
C385 C 0.86817 0.04693 0.67007 0.0
C386 C 0.96183 1.00726 0.70355 0.0
C387 C 0.00339 0.02156 0.70723 0.0
C388 C 0.95266 0.98548 0.7192 0.0
C389 C 0.90805 0.9705 0.71732 0.0
C390 C 0.86393 0.98278 0.72066 0.0
C391 C 0.822 0.96861 0.71849 0.0
C392 C 0.82376 0.94209 0.71324 0.0
C393 C 0.86747 0.92967 0.71022 0.0
C394 C 0.90951 0.94377 0.71232 0.0
C395 C 0.08727 1.00377 0.80501 0.0
C396 C 0.11101 0.98004 0.80868 0.0
C397 C 0.05919 1.00781 0.7837 0.0
C398 C 0.05432 0.98832 0.76544 0.0
C399 C 0.07632 0.9642 0.76941 0.0
C400 C 0.10465 0.96009 0.79088 0.0
C401 C 0.02584 0.99351 0.74241 0.0
C402 C 0.98517 0.97866 0.73817 0.0
C403 C 0.03568 0.0149 0.7264 0.0
C404 C 0.07935 0.03057 0.72936 0.0
C405 C 0.12414 0.01854 0.72975 0.0
C406 C 0.1651 0.03333 0.73299 0.0
C407 C 0.16177 0.06021 0.73572 0.0
C408 C 0.11747 0.07235 0.73515 0.0
C409 C 0.07639 0.05765 0.73194 0.0
H410 H 0.19352 0.07162 0.73825 0.0
H411 H 0.79125 0.93115 0.71156 0.0
H412 H 0.1303 0.5639 0.83048 0.0
H413 H 0.05801 0.55603 0.80616 0.0
H414 H 0.04952 0.47887 0.83733 0.0
H415 H 0.12164 0.48651 0.86156 0.0
H416 H 0.05369 0.4785 0.78626 0.0
H417 H 0.96322 0.52232 0.84967 0.0
H418 H 0.94279 0.55783 0.87897 0.0
H419 H 0.92608 0.60992 0.81607 0.0
H420 H 0.94707 0.57482 0.78639 0.0
H421 H 0.85702 0.44868 0.70661 0.0
H422 H 0.90592 0.45455 0.74458 0.0
H423 H 0.92171 0.53566 0.72656 0.0
H424 H 0.8723 0.53016 0.68927 0.0
H425 H 0.90715 0.53053 0.77537 0.0
H426 H 0.00898 0.49017 0.71316 0.0
H427 H 0.03316 0.45628 0.68281 0.0
H428 H 0.03238 0.3996 0.74247 0.0
H429 H 0.0076 0.43312 0.77313 0.0
C430 C 0.11215 0.54559 0.83284 0.0
C431 C 0.13208 0.5257 0.84764 0.0
C432 C 0.0708 0.5411 0.81891 0.0
C433 C 0.04865 0.51675 0.81978 0.0
C434 C 0.06626 0.4977 0.83625 0.0
C435 C 0.10747 0.50215 0.85012 0.0
C436 C 0.0116 0.50996 0.80106 0.0
C437 C 0.02109 0.48951 0.78425 0.0
C438 C 0.9698 0.52478 0.79802 0.0
C439 C 0.95707 0.54595 0.81581 0.0
C440 C 0.95557 0.5414 0.84209 0.0
C441 C 0.94381 0.56145 0.85877 0.0
C442 C 0.93323 0.58613 0.84939 0.0
C443 C 0.9343 0.59079 0.82331 0.0
C444 C 0.94606 0.57081 0.80654 0.0
C445 C 0.87093 0.46773 0.71079 0.0
C446 C 0.8609 0.4889 0.69485 0.0
C447 C 0.89886 0.47108 0.73247 0.0
C448 C 0.91774 0.49554 0.73834 0.0
C449 C 0.90734 0.51666 0.72254 0.0
C450 C 0.87924 0.5134 0.7011 0.0
C451 C 0.94964 0.49932 0.76038 0.0
C452 C 0.93932 0.51923 0.77771 0.0
C453 C 0.99109 0.48423 0.76376 0.0
C454 C 0.00585 0.46406 0.74535 0.0
C455 C 0.01358 0.47043 0.71976 0.0
C456 C 0.02746 0.4513 0.70251 0.0
C457 C 0.03413 0.42579 0.71069 0.0
C458 C 0.02707 0.41936 0.73615 0.0
C459 C 0.01312 0.43841 0.75347 0.0
H460 H 0.04491 0.41101 0.69731 0.0
H461 H 0.92413 0.60162 0.86234 0.0
H462 H 0.32936 0.03095 0.83606 0.0
H463 H 0.39784 0.03863 0.8097 0.0
H464 H 0.43916 0.95833 0.81723 0.0
H465 H 0.36773 0.95003 0.84254 0.0
H466 H 0.4849 0.03854 0.81113 0.0
H467 H 0.49559 0.93821 0.76433 0.0
H468 H 0.44508 0.90024 0.75575 0.0
H469 H 0.32157 0.94906 0.7555 0.0
H470 H 0.37143 0.98732 0.76382 0.0
H471 H 0.6713 0.04474 0.71936 0.0
H472 H 0.61949 0.03428 0.75528 0.0
H473 H 0.50461 0.01926 0.70329 0.0
H474 H 0.55746 0.02808 0.66754 0.0
H475 H 0.50479 0.98337 0.73499 0.0
H476 H 0.51331 0.07577 0.74329 0.0
H477 H 0.55177 0.11837 0.74771 0.0
H478 H 0.61603 0.09373 0.81747 0.0
H479 H 0.57837 0.05084 0.8133 0.0
C480 C 0.35312 0.01485 0.83244 0.0
C481 C 0.34263 0.98974 0.84117 0.0
C482 C 0.39267 0.01935 0.81735 0.0
C483 C 0.42351 0.99902 0.81096 0.0
C484 C 0.41524 0.97424 0.82127 0.0
C485 C 0.37464 0.96953 0.83591 0.0
C486 C 0.46167 1.00391 0.79203 0.0
C487 C 0.48943 0.02635 0.79456 0.0
C488 C 0.4674 0.98831 0.77016 0.0
C489 C 0.43714 0.9655 0.76503 0.0
C490 C 0.45765 0.94081 0.76241 0.0
C491 C 0.42915 0.91925 0.7576 0.0
C492 C 0.38013 0.92222 0.75519 0.0
C493 C 0.35952 0.94677 0.75747 0.0
C494 C 0.38787 0.96839 0.76225 0.0
C495 C 0.63468 0.03966 0.71581 0.0
C496 C 0.61783 0.03752 0.69092 0.0
C497 C 0.60509 0.03367 0.73628 0.0
C498 C 0.55787 0.02611 0.73211 0.0
C499 C 0.54089 0.02483 0.70709 0.0
C500 C 0.5708 0.03015 0.68668 0.0
C501 C 0.52634 0.01866 0.75353 0.0
C502 C 0.50051 0.9955 0.75163 0.0
C503 C 0.52056 0.03432 0.77533 0.0
C504 C 0.54353 0.06 0.77781 0.0
C505 C 0.53598 0.07937 0.75946 0.0
C506 C 0.55757 0.10358 0.76194 0.0
C507 C 0.58646 0.10873 0.78281 0.0
C508 C 0.59373 0.08969 0.80128 0.0
C509 C 0.57227 0.06543 0.79887 0.0
H510 H 0.60311 0.12749 0.78471 0.0
H511 H 0.35813 0.90551 0.75149 0.0
H512 H 0.10745 0.57335 0.42033 0.0
H513 H 0.04518 0.56335 0.45116 0.0
H514 H 0.12538 0.49712 0.47705 0.0
H515 H 0.18706 0.50669 0.44604 0.0
H516 H 0.03817 0.48313 0.46605 0.0
H517 H 0.1087 0.55167 0.51437 0.0
H518 H 0.13915 0.5957 0.52208 0.0
H519 H 0.00177 0.62775 0.50617 0.0
H520 H 0.97064 0.58392 0.49803 0.0
H521 H 0.89339 0.45327 0.57457 0.0
H522 H 0.95549 0.46231 0.54327 0.0
H523 H 0.87669 0.52887 0.51693 0.0
H524 H 0.81538 0.52027 0.54841 0.0
H525 H 0.96363 0.54247 0.52831 0.0
H526 H 0.89305 0.47398 0.47993 0.0
H527 H 0.86254 0.42997 0.47217 0.0
H528 H -0.00019 0.39784 0.48817 0.0
H529 H 0.031 0.44165 0.49637 0.0
C530 C 0.1124 0.55711 0.43309 0.0
C531 C 0.15205 0.54075 0.43068 0.0
C532 C 0.07669 0.55134 0.45067 0.0
C533 C 0.08044 0.52936 0.46636 0.0
C534 C 0.12145 0.51401 0.465 0.0
C535 C 0.15683 0.51962 0.44736 0.0
C536 C 0.04038 0.52119 0.48283 0.0
C537 C 0.02231 0.49599 0.47995 0.0
C538 C 0.01881 0.53815 0.50046 0.0
C539 C 0.03747 0.56452 0.50535 0.0
C540 C 0.08508 0.56812 0.51231 0.0
C541 C 0.10244 0.59304 0.5168 0.0
C542 C 0.07245 0.61451 0.51455 0.0
C543 C 0.02498 0.6111 0.50787 0.0
C544 C 0.00745 0.58622 0.50334 0.0
C545 C 0.88868 0.46932 0.56155 0.0
C546 C 0.84969 0.48614 0.564 0.0
C547 C 0.92427 0.47455 0.54372 0.0
C548 C 0.92096 0.49642 0.52785 0.0
C549 C 0.88032 0.51207 0.52913 0.0
C550 C 0.84514 0.50702 0.54703 0.0
C551 C 0.9613 0.50443 0.51149 0.0
C552 C 0.97947 0.52959 0.51442 0.0
C553 C 0.98293 0.48744 0.49391 0.0
C554 C 0.96423 0.46108 0.48902 0.0
C555 C 0.91663 0.45751 0.48201 0.0
C556 C 0.89923 0.43261 0.47749 0.0
C557 C 0.92918 0.41112 0.47975 0.0
C558 C 0.97663 0.4145 0.48647 0.0
C559 C 0.9942 0.43936 0.49103 0.0
H560 H 0.91565 0.39185 0.47623 0.0
H561 H 0.08595 0.63379 0.51804 0.0
H562 H 0.39647 0.95855 0.41227 0.0
H563 H 0.45975 0.96761 0.44275 0.0
H564 H 0.3765 0.02997 0.47437 0.0
H565 H 0.31378 0.02132 0.44381 0.0
H566 H 0.46239 0.04657 0.4624 0.0
H567 H 0.39844 0.97352 0.50748 0.0
H568 H 0.37165 0.92839 0.51276 0.0
H569 H 0.51065 0.9007 0.49342 0.0
H570 H 0.53813 0.94568 0.4877 0.0
H571 H 0.60207 0.07305 0.5729 0.0
H572 H 0.54288 0.06483 0.53996 0.0
H573 H 0.62794 1.0016 0.51145 0.0
H574 H 0.68623 1.00929 0.54471 0.0
H575 H 0.54251 0.98527 0.5208 0.0
H576 H 0.60732 0.05825 0.47669 0.0
H577 H 0.63431 0.10333 0.47134 0.0
H578 H 0.49445 0.13118 0.48856 0.0
H579 H 0.46674 0.08626 0.49434 0.0
C580 C 0.39113 0.97367 0.42621 0.0
C581 C 0.35028 0.9893 0.42556 0.0
C582 C 0.4274 0.97893 0.44356 0.0
C583 C 0.42304 0.99964 0.46073 0.0
C584 C 0.38091 0.0141 0.46113 0.0
C585 C 0.34494 1.009 0.44375 0.0
C586 C 0.46336 1.00755 0.47705 0.0
C587 C 0.47955 0.03325 0.47543 0.0
C588 C 0.48666 0.99002 0.49347 0.0
C589 C 0.4702 0.96296 0.49691 0.0
C590 C 0.42319 0.9578 0.50414 0.0
C591 C 0.4079 0.93225 0.50726 0.0
C592 C 0.43939 0.91169 0.50336 0.0
C593 C 0.48628 0.91664 0.4964 0.0
C594 C 0.50174 0.94216 0.49324 0.0
C595 C 0.60888 0.05804 0.55902 0.0
C596 C 0.64859 0.04175 0.56138 0.0
C597 C 0.57494 0.05325 0.54024 0.0
C598 C 0.58074 0.03243 0.5233 0.0
C599 C 0.62239 0.01757 0.52444 0.0
C600 C 0.65587 0.02212 0.54333 0.0
C601 C 0.54159 0.02435 0.50621 0.0
C602 C 0.52555 0.9986 0.50771 0.0
C603 C 0.51849 0.04184 0.48965 0.0
C604 C 0.53507 0.06888 0.48618 0.0
C605 C 0.5824 0.07399 0.47954 0.0
C606 C 0.59782 0.09951 0.47638 0.0
C607 C 0.56615 0.1201 0.47967 0.0
C608 C 0.51896 0.11521 0.48605 0.0
C609 C 0.50337 0.08972 0.48924 0.0
H610 H 0.57815 0.13985 0.47721 0.0
H611 H 0.42749 0.89192 0.50578 0.0
H612 H 0.67032 0.52527 0.0553 0.0
H613 H 0.60528 0.53066 0.02553 0.0
H614 H 0.55166 0.45528 0.04575 0.0
H615 H 0.61684 0.44973 0.07616 0.0
H616 H 0.54759 0.46813 0.99201 0.0
H617 H 0.49991 0.502 0.07236 0.0
H618 H 0.5084 0.5277 0.11146 0.0
H619 H 0.5173 0.59753 0.06738 0.0
H620 H 0.50949 0.57218 0.02797 0.0
H621 H 0.32386 0.48774 0.93865 0.0
H622 H 0.38283 0.48013 0.97154 0.0
H623 H 0.43884 0.55687 0.95978 0.0
H624 H 0.37913 0.56481 0.92676 0.0
H625 H 0.43945 0.54181 0.01076 0.0
H626 H 0.48968 0.50723 0.93031 0.0
H627 H 0.48076 0.4812 0.89145 0.0
H628 H 0.46676 0.4121 0.93624 0.0
H629 H 0.47492 0.4378 0.9754 0.0
C630 C 0.64525 0.50957 0.05322 0.0
C631 C 0.64851 0.48716 0.06839 0.0
C632 C 0.60797 0.51277 0.03622 0.0
C633 C 0.57323 0.49362 0.03386 0.0
C634 C 0.57806 0.47037 0.0475 0.0
C635 C 0.61539 0.46718 0.06476 0.0
C636 C 0.53084 0.49881 0.01811 0.0
C637 C 0.52345 0.48393 0.99631 0.0
C638 C 0.49999 0.51979 0.02355 0.0
C639 C 0.50456 0.53516 0.04719 0.0
C640 C 0.5041 0.52281 0.07098 0.0
C641 C 0.50869 0.53732 0.09321 0.0
C642 C 0.5135 0.56422 0.0919 0.0
C643 C 0.51361 0.57668 0.06836 0.0
C644 C 0.50904 0.56225 0.04607 0.0
C645 C 0.34813 0.50323 0.94334 0.0
C646 C 0.34726 0.52678 0.92988 0.0
C647 C 0.3819 0.49879 0.96211 0.0
C648 C 0.41591 0.51768 0.96765 0.0
C649 C 0.41306 0.54197 0.95563 0.0
C650 C 0.37889 0.54651 0.93684 0.0
C651 C 0.45629 0.51122 0.98453 0.0
C652 C 0.46339 0.5259 0.00653 0.0
C653 C 0.48682 0.49 0.97931 0.0
C654 C 0.48246 0.47447 0.95578 0.0
C655 C 0.48437 0.48651 0.93187 0.0
C656 C 0.4795 0.47181 0.9098 0.0
C657 C 0.47308 0.44502 0.91138 0.0
C658 C 0.47168 0.43286 0.93505 0.0
C659 C 0.47646 0.44748 0.95719 0.0
H660 H 0.4693 0.43367 0.89426 0.0
H661 H 0.51703 0.57542 0.10912 0.0
H662 H 0.1038 0.941 0.92655 0.0
H663 H 0.04437 0.94868 0.95971 0.0
H664 H 0.126 0.01322 0.98743 0.0
H665 H 0.18523 1.00563 0.95454 0.0
H666 H 0.0814 0.98734 0.02606 0.0
H667 H 0.04287 0.0236 0.94419 0.0
H668 H 0.02855 0.02159 0.89814 0.0
H669 H 0.9138 0.96855 0.91031 0.0
H670 H 0.92798 0.96992 0.95645 0.0
H671 H 0.90179 0.06431 0.08386 0.0
H672 H 0.9648 0.0514 0.05422 0.0
H673 H 0.87943 0.98732 0.0288 0.0
H674 H 0.81687 0.99993 0.05835 0.0
H675 H 0.92542 1.01142 0.98943 0.0
H676 H 0.96163 0.97647 0.07141 0.0
H677 H 0.97889 0.97615 0.11721 0.0
H678 H 0.09847 0.02585 0.10496 0.0
H679 H 0.08148 0.02682 0.05909 0.0
C680 C 0.10993 0.95616 0.94034 0.0
C681 C 0.14886 0.97287 0.93787 0.0
C682 C 0.07575 0.96071 0.9591 0.0
C683 C 0.08032 0.9819 0.97564 0.0
C684 C 0.1216 0.99689 0.97477 0.0
C685 C 0.15545 0.99251 0.95597 0.0
C686 C 0.04026 0.99041 0.99188 0.0
C687 C 0.0474 0.99281 0.01806 0.0
C688 C 0.99574 0.99726 0.98142 0.0
C689 C 0.98683 0.99663 0.95373 0.0
C690 C 0.01482 1.01136 0.93703 0.0
C691 C 0.00671 1.01035 0.91092 0.0
C692 C 0.97038 0.99489 0.9013 0.0
C693 C 0.94199 0.98047 0.91779 0.0
C694 C 0.95005 0.98135 0.94392 0.0
C695 C 0.89608 0.04788 0.07148 0.0
C696 C 0.85451 0.0331 0.07342 0.0
C697 C 0.93223 0.04036 0.05478 0.0
C698 C 0.92702 0.01816 0.03962 0.0
C699 C 0.88429 1.00442 0.04041 0.0
C700 C 0.84856 1.01168 0.05728 0.0
C701 C 0.96657 1.00846 0.02367 0.0
C702 C 0.95934 1.00591 0.99749 0.0
C703 C 0.01101 1.0015 0.03415 0.0
C704 C 0.01997 1.00194 0.06184 0.0
C705 C 0.99118 0.98765 0.07851 0.0
C706 C 0.00102 0.98727 0.10448 0.0
C707 C 0.03977 1.00094 0.11396 0.0
C708 C 0.06847 0.01526 0.09756 0.0
C709 C 0.05875 0.01574 0.07159 0.0
H710 H 0.04782 1.00027 0.13398 0.0
H711 H 0.96414 0.99414 0.88107 0.0
H712 H 0.21666 0.65782 0.38582 0.0
H713 H 0.22371 0.70487 0.38961 0.0
H714 H 0.25554 0.71036 0.3098 0.0
H715 H 0.24978 0.66327 0.30603 0.0
H716 H 0.31347 0.74025 0.33509 0.0
H717 H 0.14487 0.72806 0.33538 0.0
H718 H 0.06908 0.70952 0.34987 0.0
H719 H 0.0921 0.74059 0.4243 0.0
H720 H 0.16834 0.75904 0.41033 0.0
H721 H 0.28529 0.8777 0.32593 0.0
H722 H 0.27839 0.83069 0.32091 0.0
H723 H 0.24654 0.82307 0.40055 0.0
H724 H 0.25223 0.86998 0.40555 0.0
H725 H 0.18804 0.79436 0.3745 0.0
H726 H 0.35707 0.80608 0.37435 0.0
H727 H 0.43291 0.82457 0.35989 0.0
H728 H 0.40902 0.79442 0.28518 0.0
H729 H 0.33272 0.77602 0.29912 0.0
C730 C 0.22489 0.66903 0.36903 0.0
C731 C 0.23251 0.65669 0.3456 0.0
C732 C 0.22875 0.69602 0.3712 0.0
C733 C 0.23962 0.71137 0.34993 0.0
C734 C 0.24714 0.69906 0.32652 0.0
C735 C 0.24364 0.67207 0.32437 0.0
C736 C 0.24408 0.74014 0.35214 0.0
C737 C 0.2857 0.7521 0.34338 0.0
C738 C 0.20844 0.7557 0.36346 0.0
C739 C 0.16251 0.74473 0.37186 0.0
C740 C 0.13392 0.73078 0.35488 0.0
C741 C 0.09086 0.72032 0.36299 0.0
C742 C 0.07584 0.72382 0.388 0.0
C743 C 0.1038 0.73786 0.40494 0.0
C744 C 0.14691 0.74835 0.39693 0.0
C745 C 0.27711 0.86601 0.34241 0.0
C746 C 0.26938 0.87769 0.36615 0.0
C747 C 0.27332 0.83906 0.33953 0.0
C748 C 0.26235 0.82315 0.3604 0.0
C749 C 0.25494 0.83482 0.38413 0.0
C750 C 0.25838 0.86171 0.38697 0.0
C751 C 0.25751 0.79446 0.35755 0.0
C752 C 0.21579 0.78251 0.36617 0.0
C753 C 0.29304 0.77892 0.3461 0.0
C754 C 0.33897 0.7899 0.33772 0.0
C755 C 0.36783 0.80356 0.35479 0.0
C756 C 0.41093 0.81399 0.34669 0.0
C757 C 0.42572 0.81073 0.32161 0.0
C758 C 0.39749 0.79696 0.30459 0.0
C759 C 0.35434 0.78651 0.31258 0.0
H760 H 0.45909 0.81882 0.31538 0.0
H761 H 0.0425 0.7157 0.39425 0.0
H762 H 0.83282 0.167 0.17825 0.0
H763 H 0.81825 0.21356 0.17456 0.0
H764 H 0.72538 0.19998 0.1111 0.0
H765 H 0.7407 0.15341 0.1143 0.0
H766 H 0.77859 0.24071 0.1018 0.0
H767 H 0.6828 0.21324 0.17207 0.0
H768 H 0.66685 0.19237 0.21326 0.0
H769 H 0.76357 0.24444 0.24972 0.0
H770 H 0.78059 0.2654 0.20866 0.0
H771 H 0.66568 0.36357 0.09999 0.0
H772 H 0.68152 0.31719 0.10406 0.0
H773 H 0.77678 0.33221 0.16615 0.0
H774 H 0.76045 0.37869 0.16249 0.0
H775 H 0.72314 0.29094 0.17632 0.0
H776 H 0.81816 0.31864 0.10584 0.0
H777 H 0.8335 0.33947 0.06456 0.0
H778 H 0.7373 0.28688 0.02843 0.0
H779 H 0.72089 0.26595 0.06957 0.0
C780 C 0.80941 0.17389 0.16343 0.0
C781 C 0.78778 0.15637 0.14664 0.0
C782 C 0.80087 0.20057 0.16143 0.0
C783 C 0.77 0.21038 0.14283 0.0
C784 C 0.74921 0.19297 0.12568 0.0
C785 C 0.75797 0.16629 0.12756 0.0
C786 C 0.75928 0.23873 0.14125 0.0
C787 C 0.76586 0.25159 0.11803 0.0
C788 C 0.74367 0.2532 0.16252 0.0
C789 C 0.73331 0.24072 0.18725 0.0
C790 C 0.70092 0.22011 0.18884 0.0
C791 C 0.69165 0.20829 0.21217 0.0
C792 C 0.71427 0.21703 0.23408 0.0
C793 C 0.74612 0.23766 0.23272 0.0
C794 C 0.75556 0.24954 0.20943 0.0
C795 C 0.68989 0.35706 0.11459 0.0
C796 C 0.71195 0.37497 0.13083 0.0
C797 C 0.69913 0.33047 0.11681 0.0
C798 C 0.731 0.32112 0.13514 0.0
C799 C 0.75219 0.33889 0.15179 0.0
C800 C 0.74286 0.36551 0.14964 0.0
C801 C 0.74234 0.29288 0.13687 0.0
C802 C 0.73589 0.28005 0.1601 0.0
C803 C 0.75798 0.27841 0.1156 0.0
C804 C 0.76797 0.29089 0.09082 0.0
C805 C 0.80002 0.31164 0.08912 0.0
C806 C 0.80895 0.32344 0.06574 0.0
C807 C 0.7863 0.31455 0.04389 0.0
C808 C 0.75477 0.29378 0.04537 0.0
C809 C 0.74568 0.28192 0.06871 0.0
H810 H 0.79326 0.32371 0.02581 0.0
H811 H 0.70705 0.20784 0.25213 0.0
H812 H 0.77874 0.14774 0.64075 0.0
H813 H 0.79726 0.19399 0.64195 0.0
H814 H 0.65247 0.21229 0.62278 0.0
H815 H 0.63382 0.16607 0.62117 0.0
H816 H 0.71158 0.24158 0.59583 0.0
H817 H 0.69495 0.21946 0.68371 0.0
H818 H 0.7109 0.19467 0.72278 0.0
H819 H 0.85749 0.21643 0.7194 0.0
H820 H 0.84253 0.24108 0.6801 0.0
H821 H 0.717 0.37567 0.62647 0.0
H822 H 0.69928 0.32936 0.62528 0.0
H823 H 0.84451 0.31177 0.64413 0.0
H824 H 0.86239 0.35811 0.64572 0.0
H825 H 0.78569 0.28208 0.67117 0.0
H826 H 0.80204 0.30442 0.58332 0.0
H827 H 0.78582 0.32925 0.5443 0.0
H828 H 0.63943 0.3071 0.54769 0.0
H829 H 0.65465 0.28241 0.58693 0.0
C830 C 0.75076 0.16157 0.63682 0.0
C831 C 0.70471 0.1531 0.63093 0.0
C832 C 0.76138 0.18807 0.63762 0.0
C833 C 0.72617 0.20675 0.63274 0.0
C834 C 0.68028 0.19833 0.62665 0.0
C835 C 0.66964 0.17184 0.62581 0.0
C836 C 0.7372 0.23503 0.63374 0.0
C837 C 0.72719 0.25047 0.61245 0.0
C838 C 0.75863 0.24666 0.65516 0.0
C839 C 0.7677 0.2319 0.67882 0.0
C840 C 0.73066 0.21879 0.69119 0.0
C841 C 0.73951 0.2048 0.7134 0.0
C842 C 0.7852 0.20392 0.72353 0.0
C843 C 0.82213 0.2171 0.71151 0.0
C844 C 0.81347 0.2311 0.68928 0.0
C845 C 0.74526 0.36199 0.63033 0.0
C846 C 0.79121 0.37071 0.63611 0.0
C847 C 0.73509 0.33545 0.62954 0.0
C848 C 0.77065 0.31695 0.63432 0.0
C849 C 0.81644 0.3256 0.64034 0.0
C850 C 0.82665 0.35215 0.64115 0.0
C851 C 0.76002 0.28863 0.63327 0.0
C852 C 0.77011 0.27318 0.65454 0.0
C853 C 0.73863 0.27699 0.61184 0.0
C854 C 0.7294 0.29177 0.5882 0.0
C855 C 0.76631 0.30501 0.57585 0.0
C856 C 0.75732 0.31903 0.55368 0.0
C857 C 0.7116 0.31981 0.54356 0.0
C858 C 0.67481 0.30651 0.55556 0.0
C859 C 0.68361 0.29248 0.57776 0.0
H860 H 0.70471 0.33067 0.52638 0.0
H861 H 0.79198 0.19308 0.74073 0.0
H862 H 0.21125 0.64054 0.86535 0.0
H863 H 0.19352 0.68695 0.86534 0.0
H864 H 0.34293 0.70399 0.8628 0.0
H865 H 0.36101 0.65758 0.86311 0.0
H866 H 0.29853 0.73506 0.89612 0.0
H867 H 0.2737 0.70957 0.80978 0.0
H868 H 0.23999 0.68344 0.77514 0.0
H869 H 0.09962 0.70677 0.79698 0.0
H870 H 0.13248 0.73278 0.83199 0.0
H871 H 0.27781 0.86826 0.86238 0.0
H872 H 0.29624 0.8219 0.86238 0.0
H873 H 0.14709 0.80422 0.86497 0.0
H874 H 0.12833 0.85052 0.86471 0.0
H875 H 0.19175 0.77351 0.83149 0.0
H876 H 0.21639 0.79882 0.91788 0.0
H877 H 0.2499 0.82486 0.95264 0.0
H878 H 0.39042 0.80183 0.93079 0.0
H879 H 0.35776 0.77592 0.89566 0.0
C880 C 0.24041 0.65413 0.86481 0.0
C881 C 0.28761 0.64524 0.86414 0.0
C882 C 0.23018 0.68071 0.86469 0.0
C883 C 0.26684 0.69907 0.86375 0.0
C884 C 0.31399 0.69026 0.86348 0.0
C885 C 0.32427 0.66367 0.86358 0.0
C886 C 0.25603 0.7274 0.86311 0.0
C887 C 0.27571 0.74351 0.88176 0.0
C888 C 0.22539 0.73845 0.84475 0.0
C889 C 0.20553 0.72291 0.82366 0.0
C890 C 0.23562 0.70897 0.80732 0.0
C891 C 0.21667 0.69421 0.7876 0.0
C892 C 0.16769 0.69339 0.7839 0.0
C893 C 0.13756 0.7074 0.79989 0.0
C894 C 0.15632 0.72216 0.81966 0.0
C895 C 0.24887 0.85454 0.86294 0.0
C896 C 0.20155 0.8632 0.86363 0.0
C897 C 0.2595 0.82799 0.86305 0.0
C898 C 0.2231 0.80947 0.86397 0.0
C899 C 0.17583 0.81807 0.86429 0.0
C900 C 0.16517 0.84461 0.86422 0.0
C901 C 0.23423 0.78117 0.86451 0.0
C902 C 0.21461 0.76507 0.84583 0.0
C903 C 0.26491 0.77012 0.88285 0.0
C904 C 0.28465 0.78565 0.90398 0.0
C905 C 0.25446 0.79948 0.92036 0.0
C906 C 0.27329 0.81418 0.94015 0.0
C907 C 0.32226 0.81505 0.94388 0.0
C908 C 0.3525 0.80117 0.92785 0.0
C909 C 0.33384 0.78645 0.90801 0.0
H910 H 0.33678 0.82644 0.95922 0.0
H911 H 0.15308 0.68196 0.76862 0.0
loop_
_geom_bond_atom_site_label_1
_geom_bond_atom_site_label_2
_geom_bond_distance
_geom_bond_site_symmetry_2
_ccdc_geom_bond_type
Zn0 O3 2.031 . S
Zn0 O5 2.049 . S
Zn0 O10 2.067 . S
Zn1 O2 1.962 . S
Zn1 O4 1.986 . S
Zn1 O6 1.996 . S
Zn1 O9 1.943 . S
O2 Zn1 1.962 . S
O2 C7 1.254 . S
O3 Zn0 2.031 . S
O3 C7 1.269 . S
O4 Zn1 1.986 . S
O4 C11 1.262 . S
O5 Zn0 2.049 . S
O5 C13 1.260 . S
O6 Zn1 1.996 . S
O6 C13 1.257 . S
C7 O2 1.254 . S
C7 O3 1.269 . S
C8 O9 1.249 . S
C8 O10 1.270 . S
O9 Zn1 1.943 . S
O9 C8 1.249 . S
O10 Zn0 2.067 . S
O10 C8 1.270 . S
C11 O4 1.262 . S
C11 O12 1.232 . S
O12 C11 1.232 . S
C13 O5 1.260 . S
C13 O6 1.257 . S
Zn14 O17 2.031 . S
Zn14 O19 2.049 . S
Zn14 O24 2.067 . S
Zn15 O16 1.962 . S
Zn15 O18 1.986 . S
Zn15 O20 1.996 . S
Zn15 O23 1.943 . S
O16 Zn15 1.962 . S
O16 C21 1.254 . S
O17 Zn14 2.031 . S
O17 C21 1.269 . S
O18 Zn15 1.986 . S
O18 C25 1.262 . S
O19 Zn14 2.049 . S
O19 C27 1.260 . S
O20 Zn15 1.996 . S
O20 C27 1.257 . S
C21 O16 1.254 . S
C21 O17 1.269 . S
C22 O23 1.249 . S
C22 O24 1.270 . S
O23 Zn15 1.943 . S
O23 C22 1.249 . S
O24 Zn14 2.067 . S
O24 C22 1.270 . S
C25 O18 1.262 . S
C25 O26 1.232 . S
O26 C25 1.232 . S
C27 O19 1.260 . S
C27 O20 1.257 . S
Zn28 O31 2.031 . S
Zn28 O33 2.049 . S
Zn28 O38 2.067 . S
Zn29 O30 1.962 . S
Zn29 O32 1.986 . S
Zn29 O34 1.996 . S
Zn29 O37 1.943 . S
O30 Zn29 1.962 . S
O30 C35 1.254 . S
O31 Zn28 2.031 . S
O31 C35 1.269 . S
O32 Zn29 1.986 . S
O32 C39 1.262 . S
O33 Zn28 2.049 . S
O33 C41 1.260 . S
O34 Zn29 1.996 . S
O34 C41 1.257 . S
C35 O30 1.254 . S
C35 O31 1.269 . S
C36 O37 1.249 . S
C36 O38 1.270 . S
O37 Zn29 1.943 . S
O37 C36 1.249 . S
O38 Zn28 2.067 . S
O38 C36 1.270 . S
C39 O32 1.262 . S
C39 O40 1.232 . S
O40 C39 1.232 . S
C41 O33 1.260 . S
C41 O34 1.257 . S
Zn42 O45 2.031 . S
Zn42 O47 2.049 . S
Zn42 O52 2.067 . S
Zn43 O44 1.962 . S
Zn43 O46 1.986 . S
Zn43 O48 1.996 . S
Zn43 O51 1.943 . S
O44 Zn43 1.962 . S
O44 C49 1.254 . S
O45 Zn42 2.031 . S
O45 C49 1.269 . S
O46 Zn43 1.986 . S
O46 C53 1.262 . S
O47 Zn42 2.049 . S
O47 C55 1.260 . S
O48 Zn43 1.996 . S
O48 C55 1.257 . S
C49 O44 1.254 . S
C49 O45 1.269 . S
C50 O51 1.249 . S
C50 O52 1.270 . S
O51 Zn43 1.943 . S
O51 C50 1.249 . S
O52 Zn42 2.067 . S
O52 C50 1.270 . S
C53 O46 1.262 . S
C53 O54 1.232 . S
O54 C53 1.232 . S
C55 O47 1.260 . S
C55 O48 1.257 . S
Zn56 O59 2.031 . S
Zn56 O61 2.049 . S
Zn56 O66 2.067 . S
Zn57 O58 1.962 . S
Zn57 O60 1.986 . S
Zn57 O62 1.996 . S
Zn57 O65 1.943 . S
O58 Zn57 1.962 . S
O58 C63 1.254 . S
O59 Zn56 2.031 . S
O59 C63 1.269 . S
O60 Zn57 1.986 . S
O60 C67 1.262 . S
O61 Zn56 2.049 . S
O61 C69 1.260 . S
O62 Zn57 1.996 . S
O62 C69 1.257 . S
C63 O58 1.254 . S
C63 O59 1.269 . S
C64 O65 1.249 . S
C64 O66 1.270 . S
O65 Zn57 1.943 . S
O65 C64 1.249 . S
O66 Zn56 2.067 . S
O66 C64 1.270 . S
C67 O60 1.262 . S
C67 O68 1.232 . S
O68 C67 1.232 . S
C69 O61 1.260 . S
C69 O62 1.257 . S
Zn70 O73 2.031 . S
Zn70 O75 2.049 . S
Zn70 O80 2.067 . S
Zn71 O72 1.962 . S
Zn71 O74 1.986 . S
Zn71 O76 1.996 . S
Zn71 O79 1.943 . S
O72 Zn71 1.962 . S
O72 C77 1.254 . S
O73 Zn70 2.031 . S
O73 C77 1.269 . S
O74 Zn71 1.986 . S
O74 C81 1.262 . S
O75 Zn70 2.049 . S
O75 C83 1.260 . S
O76 Zn71 1.996 . S
O76 C83 1.257 . S
C77 O72 1.254 . S
C77 O73 1.269 . S
C78 O79 1.249 . S
C78 O80 1.270 . S
O79 Zn71 1.943 . S
O79 C78 1.249 . S
O80 Zn70 2.067 . S
O80 C78 1.270 . S
C81 O74 1.262 . S
C81 O82 1.232 . S
O82 C81 1.232 . S
C83 O75 1.260 . S
C83 O76 1.257 . S
Zn84 O87 2.031 . S
Zn84 O89 2.049 . S
Zn84 O94 2.067 . S
Zn85 O86 1.962 . S
Zn85 O88 1.986 . S
Zn85 O90 1.996 . S
Zn85 O93 1.943 . S
O86 Zn85 1.962 . S
O86 C91 1.254 . S
O87 Zn84 2.031 . S
O87 C91 1.269 . S
O88 Zn85 1.986 . S
O88 C95 1.262 . S
O89 Zn84 2.049 . S
O89 C97 1.260 . S
O90 Zn85 1.996 . S
O90 C97 1.257 . S
C91 O86 1.254 . S
C91 O87 1.269 . S
C92 O93 1.249 . S
C92 O94 1.270 . S
O93 Zn85 1.943 . S
O93 C92 1.249 . S
O94 Zn84 2.067 . S
O94 C92 1.270 . S
C95 O88 1.262 . S
C95 O96 1.232 . S
O96 C95 1.232 . S
C97 O89 1.260 . S
C97 O90 1.257 . S
Zn98 O101 2.031 . S
Zn98 O103 2.049 . S
Zn98 O108 2.067 . S
Zn99 O100 1.962 . S
Zn99 O102 1.986 . S
Zn99 O104 1.996 . S
Zn99 O107 1.943 . S
O100 Zn99 1.962 . S
O100 C105 1.254 . S
O101 Zn98 2.031 . S
O101 C105 1.269 . S
O102 Zn99 1.986 . S
O102 C109 1.262 . S
O103 Zn98 2.049 . S
O103 C111 1.260 . S
O104 Zn99 1.996 . S
O104 C111 1.257 . S
C105 O100 1.254 . S
C105 O101 1.269 . S
C106 O107 1.249 . S
C106 O108 1.270 . S
O107 Zn99 1.943 . S
O107 C106 1.249 . S
O108 Zn98 2.067 . S
O108 C106 1.270 . S
C109 O102 1.262 . S
C109 O110 1.232 . S
O110 C109 1.232 . S
C111 O103 1.260 . S
C111 O104 1.257 . S
H112 C130 0.951 . S
H113 C132 0.951 . S
H114 C134 0.950 . S
H115 C135 0.950 . S
H116 C137 0.950 . S
H117 C140 0.950 . S
H118 C141 0.950 . S
H119 C143 0.950 . S
H120 C144 0.950 . S
H121 C145 0.951 . S
H122 C147 0.951 . S
H123 C149 0.950 . S
H124 C150 0.950 . S
H125 C152 0.950 . S
H126 C155 0.950 . S
H127 C156 0.950 . S
H128 C158 0.950 . S
H129 C159 0.950 . S
C130 H112 0.951 . S
C130 C131 1.366 . S
C130 C132 1.388 . S
C131 C130 1.366 . S
C131 C135 1.385 . S
C132 H113 0.951 . S
C132 C130 1.388 . S
C132 C133 1.366 . S
C133 C132 1.366 . S
C133 C134 1.414 . S
C133 C136 1.499 . S
C134 H114 0.950 . S
C134 C133 1.414 . S
C134 C135 1.374 . S
C135 H115 0.950 . S
C135 C131 1.385 . S
C135 C134 1.374 . S
C136 C133 1.499 . S
C136 C137 1.373 . S
C136 C138 1.389 . S
C137 H116 0.950 . S
C137 C136 1.373 . S
C137 C153 1.377 . S
C138 C136 1.389 . S
C138 C139 1.524 . S
C138 C152 1.377 . S
C139 C138 1.524 . S
C139 C140 1.397 . S
C139 C144 1.363 . S
C140 H117 0.950 . S
C140 C139 1.397 . S
C140 C141 1.334 . S
C141 H118 0.950 . S
C141 C140 1.334 . S
C141 C142 1.287 . S
C142 C141 1.287 . S
C142 C143 1.524 . S
C142 H161 0.913 . S
C143 H119 0.950 . S
C143 C142 1.524 . S
C143 C144 1.415 . S
C144 H120 0.950 . S
C144 C139 1.363 . S
C144 C143 1.415 . S
C145 H121 0.951 . S
C145 C146 1.366 . S
C145 C147 1.388 . S
C146 C145 1.366 . S
C146 C150 1.385 . S
C147 H122 0.951 . S
C147 C145 1.388 . S
C147 C148 1.366 . S
C148 C147 1.366 . S
C148 C149 1.414 . S
C148 C151 1.499 . S
C149 H123 0.950 . S
C149 C148 1.414 . S
C149 C150 1.374 . S
C150 H124 0.950 . S
C150 C146 1.385 . S
C150 C149 1.374 . S
C151 C148 1.499 . S
C151 C152 1.373 . S
C151 C153 1.389 . S
C152 H125 0.950 . S
C152 C138 1.377 . S
C152 C151 1.373 . S
C153 C137 1.377 . S
C153 C151 1.389 . S
C153 C154 1.524 . S
C154 C153 1.524 . S
C154 C155 1.397 . S
C154 C159 1.363 . S
C155 H126 0.950 . S
C155 C154 1.397 . S
C155 C156 1.334 . S
C156 H127 0.950 . S
C156 C155 1.334 . S
C156 C157 1.287 . S
C157 C156 1.287 . S
C157 C158 1.524 . S
C157 H160 0.999 . S
C158 H128 0.950 . S
C158 C157 1.524 . S
C158 C159 1.415 . S
C159 H129 0.950 . S
C159 C154 1.363 . S
C159 C158 1.415 . S
H160 C157 0.999 . S
H161 C142 0.913 . S
H162 C180 0.951 1_455 S
H163 C182 0.951 . S
H164 C184 0.950 . S
H165 C185 0.950 . S
H166 C187 0.950 . S
H167 C190 0.950 . S
H168 C191 0.950 . S
H169 C193 0.950 . S
H170 C194 0.950 1_545 S
H171 C195 0.951 . S
H172 C197 0.951 . S
H173 C199 0.973 . S
H174 C200 0.950 . S
H175 C202 0.950 . S
H176 C205 0.950 . S
H177 C206 0.950 . S
H178 C208 0.950 . S
H179 C209 0.950 . S
C180 H162 0.951 1_655 S
C180 C181 1.366 . S
C180 C182 1.388 1_655 S
C181 C180 1.366 . S
C181 C185 1.385 . S
C182 H163 0.951 . S
C182 C180 1.388 1_455 S
C182 C183 1.366 . S
C183 C182 1.366 . S
C183 C184 1.414 1_455 S
C183 C186 1.499 . S
C184 H164 0.950 . S
C184 C183 1.414 1_655 S
C184 C185 1.374 . S
C185 H165 0.950 . S
C185 C181 1.385 . S
C185 C184 1.374 . S
C186 C183 1.499 . S
C186 C187 1.373 . S
C186 C188 1.389 . S
C187 H166 0.950 . S
C187 C186 1.373 . S
C187 C203 1.377 . S
C188 C186 1.389 . S
C188 C189 1.524 1_545 S
C188 C202 1.377 1_545 S
C189 C188 1.524 1_565 S
C189 C190 1.397 . S
C189 C194 1.363 . S
C190 H167 0.950 . S
C190 C189 1.397 . S
C190 C191 1.334 . S
C191 H168 0.950 . S
C191 C190 1.334 . S
C191 C192 1.287 . S
C192 C191 1.287 . S
C192 C193 1.524 . S
C192 H211 0.913 . S
C193 H169 0.950 . S
C193 C192 1.524 . S
C193 C194 1.415 . S
C194 H170 0.950 1_565 S
C194 C189 1.363 . S
C194 C193 1.415 . S
C195 H171 0.951 . S
C195 C196 1.366 . S
C195 C197 1.388 . S
C196 C195 1.366 . S
C196 C200 1.385 . S
C197 H172 0.951 . S
C197 C195 1.388 . S
C197 C198 1.366 . S
C198 C197 1.366 . S
C198 C199 1.414 . S
C198 C201 1.499 . S
C199 H173 0.973 . S
C199 C198 1.414 . S
C199 C200 1.374 . S
C200 H174 0.950 . S
C200 C196 1.385 . S
C200 C199 1.374 . S
C201 C198 1.499 . S
C201 C202 1.373 . S
C201 C203 1.389 1_565 S
C202 H175 0.950 . S
C202 C188 1.377 1_565 S
C202 C201 1.373 . S
C203 C187 1.377 . S
C203 C201 1.389 1_545 S
C203 C204 1.524 . S
C204 C203 1.524 . S
C204 C205 1.397 . S
C204 C209 1.363 . S
C205 H176 0.950 . S
C205 C204 1.397 . S
C205 C206 1.334 . S
C206 H177 0.950 . S
C206 C205 1.334 . S
C206 C207 1.287 . S
C207 C206 1.287 . S
C207 C208 1.524 . S
C207 H210 0.999 . S
C208 H178 0.950 . S
C208 C207 1.524 . S
C208 C209 1.415 . S
C209 H179 0.950 . S
C209 C204 1.363 . S
C209 C208 1.415 . S
H210 C207 0.999 . S
H211 C192 0.913 . S
H212 C230 0.951 . S
H213 C232 0.951 . S
H214 C234 0.950 . S
H215 C235 0.950 . S
H216 C237 0.950 . S
H217 C240 0.950 . S
H218 C241 0.950 . S
H219 C243 0.950 1_455 S
H220 C244 0.950 . S
H221 C245 0.951 . S
H222 C247 0.951 . S
H223 C249 0.950 . S
H224 C250 0.950 . S
H225 C252 0.950 . S
H226 C255 0.950 . S
H227 C256 0.950 . S
H228 C258 0.950 . S
H229 C259 0.950 . S
C230 H212 0.951 . S
C230 C231 1.366 . S
C230 C232 1.388 . S
C231 C230 1.366 . S
C231 C235 1.385 . S
C232 H213 0.951 . S
C232 C230 1.388 . S
C232 C233 1.366 . S
C233 C232 1.366 . S
C233 C234 1.414 . S
C233 C236 1.499 . S
C234 H214 0.950 . S
C234 C233 1.414 . S
C234 C235 1.374 . S
C235 H215 0.950 . S
C235 C231 1.385 . S
C235 C234 1.374 . S
C236 C233 1.499 . S
C236 C237 1.373 . S
C236 C238 1.389 . S
C237 H216 0.950 . S
C237 C236 1.373 . S
C237 C253 1.377 . S
C238 C236 1.389 . S
C238 C239 1.524 . S
C238 C252 1.377 . S
C239 C238 1.524 . S
C239 C240 1.397 . S
C239 C244 1.363 . S
C240 H217 0.950 . S
C240 C239 1.397 . S
C240 C241 1.334 . S
C241 H218 0.950 . S
C241 C240 1.334 . S
C241 C242 1.287 . S
C242 C241 1.287 . S
C242 C243 1.524 . S
C242 H261 0.913 . S
C243 H219 0.950 1_655 S
C243 C242 1.524 . S
C243 C244 1.415 . S
C244 H220 0.950 . S
C244 C239 1.363 . S
C244 C243 1.415 . S
C245 H221 0.951 . S
C245 C246 1.366 . S
C245 C247 1.388 1_455 S
C246 C245 1.366 . S
C246 C250 1.385 . S
C247 H222 0.951 . S
C247 C245 1.388 1_655 S
C247 C248 1.366 . S
C248 C247 1.366 . S
C248 C249 1.414 1_655 S
C248 C251 1.499 . S
C249 H223 0.950 . S
C249 C248 1.414 1_455 S
C249 C250 1.374 . S
C250 H224 0.950 . S
C250 C246 1.385 . S
C250 C249 1.374 . S
C251 C248 1.499 . S
C251 C252 1.373 . S
C251 C253 1.389 . S
C252 H225 0.950 . S
C252 C238 1.377 . S
C252 C251 1.373 . S
C253 C237 1.377 . S
C253 C251 1.389 . S
C253 C254 1.524 . S
C254 C253 1.524 . S
C254 C255 1.397 . S
C254 C259 1.363 . S
C255 H226 0.950 . S
C255 C254 1.397 . S
C255 C256 1.334 . S
C256 H227 0.950 . S
C256 C255 1.334 . S
C256 C257 1.287 . S
C257 C256 1.287 . S
C257 C258 1.524 . S
C257 H260 0.999 . S
C258 H228 0.950 . S
C258 C257 1.524 . S
C258 C259 1.415 . S
C259 H229 0.950 . S
C259 C254 1.363 . S
C259 C258 1.415 . S
H260 C257 0.999 . S
H261 C242 0.913 . S
H262 C280 0.951 . S
H263 C282 0.951 . S
H264 C284 0.956 . S
H265 C285 0.948 . S
H266 C287 0.950 . S
H267 C290 0.950 . S
H268 C291 0.950 . S
H269 C293 0.950 . S
H270 C294 0.950 . S
H271 C295 0.951 . S
H272 C297 0.951 . S
H273 C299 0.950 1_545 S
H274 C300 0.950 . S
H275 C302 0.950 . S
H276 C305 0.950 . S
H277 C306 0.950 . S
H278 C308 0.950 . S
H279 C309 0.950 . S
C280 H262 0.951 . S
C280 C281 1.366 . S
C280 C282 1.388 . S
C281 C280 1.366 . S
C281 C285 1.385 . S
C282 H263 0.951 . S
C282 C280 1.388 . S
C282 C283 1.366 . S
C283 C282 1.366 . S
C283 C284 1.411 1_545 S
C283 C286 1.499 . S
C284 H264 0.956 . S
C284 C283 1.411 1_565 S
C284 C285 1.371 1_565 S
C285 H265 0.948 . S
C285 C281 1.385 . S
C285 C284 1.371 1_545 S
C286 C283 1.499 . S
C286 C287 1.373 1_545 S
C286 C288 1.389 . S
C287 H266 0.950 . S
C287 C286 1.373 1_565 S
C287 C303 1.377 . S
C288 C286 1.389 . S
C288 C289 1.524 . S
C288 C302 1.377 . S
C289 C288 1.524 . S
C289 C290 1.397 . S
C289 C294 1.363 . S
C290 H267 0.950 . S
C290 C289 1.397 . S
C290 C291 1.334 . S
C291 H268 0.950 . S
C291 C290 1.334 . S
C291 C292 1.287 . S
C292 C291 1.287 . S
C292 C293 1.524 . S
C292 H311 0.913 . S
C293 H269 0.950 . S
C293 C292 1.524 . S
C293 C294 1.415 . S
C294 H270 0.950 . S
C294 C289 1.363 . S
C294 C293 1.415 . S
C295 H271 0.951 . S
C295 C296 1.366 . S
C295 C297 1.388 . S
C296 C295 1.366 . S
C296 C300 1.385 . S
C297 H272 0.951 . S
C297 C295 1.388 . S
C297 C298 1.366 . S
C298 C297 1.366 . S
C298 C299 1.414 . S
C298 C301 1.499 . S
C299 H273 0.950 1_565 S
C299 C298 1.414 . S
C299 C300 1.374 . S
C300 H274 0.950 . S
C300 C296 1.385 . S
C300 C299 1.374 . S
C301 C298 1.499 . S
C301 C302 1.373 1_565 S
C301 C303 1.389 . S
C302 H275 0.950 . S
C302 C288 1.377 . S
C302 C301 1.373 1_545 S
C303 C287 1.377 . S
C303 C301 1.389 . S
C303 C304 1.524 . S
C304 C303 1.524 . S
C304 C305 1.397 . S
C304 C309 1.363 . S
C305 H276 0.950 . S
C305 C304 1.397 . S
C305 C306 1.334 . S
C306 H277 0.950 . S
C306 C305 1.334 . S
C306 C307 1.287 . S
C307 C306 1.287 . S
C307 C308 1.524 . S
C307 H310 0.999 . S
C308 H278 0.950 . S
C308 C307 1.524 . S
C308 C309 1.415 . S
C309 H279 0.950 . S
C309 C304 1.363 . S
C309 C308 1.415 . S
H310 C307 0.999 . S
H311 C292 0.913 . S
H312 C330 0.951 . S
H313 C332 0.951 . S
H314 C334 0.950 . S
H315 C335 0.950 . S
H316 C337 0.950 . S
H317 C340 0.950 . S
H318 C341 0.950 . S
H319 C343 0.950 . S
H320 C344 0.950 . S
H321 C345 0.951 . S
H322 C347 0.951 . S
H323 C349 0.950 . S
H324 C350 0.950 . S
H325 C352 0.950 . S
H326 C355 0.950 . S
H327 C356 0.950 . S
H328 C358 0.950 . S
H329 C359 0.950 . S
C330 H312 0.951 . S
C330 C331 1.366 . S
C330 C332 1.388 . S
C331 C330 1.366 . S
C331 C335 1.385 . S
C332 H313 0.951 . S
C332 C330 1.388 . S
C332 C333 1.366 . S
C333 C332 1.366 . S
C333 C334 1.414 . S
C333 C336 1.499 . S
C334 H314 0.950 . S
C334 C333 1.414 . S
C334 C335 1.374 . S
C335 H315 0.950 . S
C335 C331 1.385 . S
C335 C334 1.374 . S
C336 C333 1.499 . S
C336 C337 1.373 . S
C336 C338 1.389 . S
C337 H316 0.950 . S
C337 C336 1.373 . S
C337 C353 1.377 . S
C338 C336 1.389 . S
C338 C339 1.524 . S
C338 C352 1.377 . S
C339 C338 1.524 . S
C339 C340 1.397 . S
C339 C344 1.363 . S
C340 H317 0.950 . S
C340 C339 1.397 . S
C340 C341 1.334 . S
C341 H318 0.950 . S
C341 C340 1.334 . S
C341 C342 1.287 . S
C342 C341 1.287 . S
C342 C343 1.524 . S
C342 H361 0.913 . S
C343 H319 0.950 . S
C343 C342 1.524 . S
C343 C344 1.415 . S
C344 H320 0.950 . S
C344 C339 1.363 . S
C344 C343 1.415 . S
C345 H321 0.951 . S
C345 C346 1.366 . S
C345 C347 1.388 . S
C346 C345 1.366 . S
C346 C350 1.385 . S
C347 H322 0.951 . S
C347 C345 1.388 . S
C347 C348 1.366 . S
C348 C347 1.366 . S
C348 C349 1.414 . S
C348 C351 1.499 . S
C349 H323 0.950 . S
C349 C348 1.414 . S
C349 C350 1.374 . S
C350 H324 0.950 . S
C350 C346 1.385 . S
C350 C349 1.374 . S
C351 C348 1.499 . S
C351 C352 1.373 . S
C351 C353 1.389 . S
C352 H325 0.950 . S
C352 C338 1.377 . S
C352 C351 1.373 . S
C353 C337 1.377 . S
C353 C351 1.389 . S
C353 C354 1.524 . S
C354 C353 1.524 . S
C354 C355 1.397 . S
C354 C359 1.363 . S
C355 H326 0.950 . S
C355 C354 1.397 . S
C355 C356 1.334 . S
C356 H327 0.950 . S
C356 C355 1.334 . S
C356 C357 1.287 . S
C357 C356 1.287 . S
C357 C358 1.524 . S
C357 H360 0.999 . S
C358 H328 0.950 . S
C358 C357 1.524 . S
C358 C359 1.415 . S
C359 H329 0.950 . S
C359 C354 1.363 . S
C359 C358 1.415 . S
H360 C357 0.999 . S
H361 C342 0.913 . S
H362 C380 0.951 . S
H363 C382 0.939 1_565 S
H364 C384 0.950 . S
H365 C385 0.950 . S
H366 C387 0.950 . S
H367 C390 0.950 . S
H368 C391 0.950 . S
H369 C393 0.950 . S
H370 C394 0.950 . S
H371 C395 0.951 . S
H372 C397 0.951 . S
H373 C399 0.950 . S
H374 C400 0.950 . S
H375 C402 0.950 . S
H376 C405 0.950 . S
H377 C406 0.950 . S
H378 C408 0.950 . S
H379 C409 0.950 . S
C380 H362 0.951 . S
C380 C381 1.366 . S
C380 C382 1.388 . S
C381 C380 1.366 . S
C381 C385 1.385 . S
C382 H363 0.939 1_545 S
C382 C380 1.388 . S
C382 C383 1.366 . S
C383 C382 1.366 . S
C383 C384 1.414 . S
C383 C386 1.499 . S
C384 H364 0.950 . S
C384 C383 1.414 . S
C384 C385 1.374 . S
C385 H365 0.950 . S
C385 C381 1.385 . S
C385 C384 1.374 . S
C386 C383 1.499 . S
C386 C387 1.373 . S
C386 C388 1.389 1_545 S
C387 H366 0.950 . S
C387 C386 1.373 . S
C387 C403 1.377 . S
C388 C386 1.389 1_565 S
C388 C389 1.524 . S
C388 C402 1.377 . S
C389 C388 1.524 . S
C389 C390 1.397 . S
C389 C394 1.363 . S
C390 H367 0.950 . S
C390 C389 1.397 . S
C390 C391 1.334 . S
C391 H368 0.950 . S
C391 C390 1.334 . S
C391 C392 1.287 . S
C392 C391 1.287 . S
C392 C393 1.524 . S
C392 H411 0.913 . S
C393 H369 0.950 . S
C393 C392 1.524 . S
C393 C394 1.415 . S
C394 H370 0.950 . S
C394 C389 1.363 . S
C394 C393 1.415 . S
C395 H371 0.951 . S
C395 C396 1.366 . S
C395 C397 1.388 1_455 S
C396 C395 1.366 . S
C396 C400 1.385 . S
C397 H372 0.951 . S
C397 C395 1.388 1_655 S
C397 C398 1.366 . S
C398 C397 1.366 . S
C398 C399 1.414 1_655 S
C398 C401 1.499 . S
C399 H373 0.950 . S
C399 C398 1.414 1_455 S
C399 C400 1.374 . S
C400 H374 0.950 . S
C400 C396 1.385 . S
C400 C399 1.374 . S
C401 C398 1.499 . S
C401 C402 1.373 . S
C401 C403 1.389 1_565 S
C402 H375 0.950 . S
C402 C388 1.377 . S
C402 C401 1.373 . S
C403 C387 1.377 . S
C403 C401 1.389 1_545 S
C403 C404 1.524 . S
C404 C403 1.524 . S
C404 C405 1.397 1_655 S
C404 C409 1.363 . S
C405 H376 0.950 . S
C405 C404 1.397 1_455 S
C405 C406 1.334 . S
C406 H377 0.950 . S
C406 C405 1.334 . S
C406 C407 1.287 . S
C407 C406 1.287 . S
C407 C408 1.524 1_455 S
C407 H410 0.999 . S
C408 H378 0.950 . S
C408 C407 1.524 1_655 S
C408 C409 1.415 . S
C409 H379 0.950 . S
C409 C404 1.363 . S
C409 C408 1.415 . S
H410 C407 0.999 . S
H411 C392 0.913 . S
H412 C430 0.951 . S
H413 C432 0.951 . S
H414 C434 0.950 . S
H415 C435 0.950 . S
H416 C437 0.950 . S
H417 C440 0.950 . S
H418 C441 0.950 . S
H419 C443 0.950 . S
H420 C444 0.950 . S
H421 C445 0.951 1_455 S
H422 C447 0.951 . S
H423 C449 0.950 . S
H424 C450 0.950 . S
H425 C452 0.950 . S
H426 C455 0.950 . S
H427 C456 0.950 . S
H428 C458 0.950 . S
H429 C459 0.950 . S
C430 H412 0.951 . S
C430 C431 1.366 . S
C430 C432 1.388 . S
C431 C430 1.366 . S
C431 C435 1.385 . S
C432 H413 0.951 . S
C432 C430 1.388 . S
C432 C433 1.366 . S
C433 C432 1.366 . S
C433 C434 1.414 . S
C433 C436 1.499 . S
C434 H414 0.950 . S
C434 C433 1.414 . S
C434 C435 1.374 . S
C435 H415 0.950 . S
C435 C431 1.385 . S
C435 C434 1.374 . S
C436 C433 1.499 . S
C436 C437 1.373 . S
C436 C438 1.389 . S
C437 H416 0.950 . S
C437 C436 1.373 . S
C437 C453 1.377 . S
C438 C436 1.389 . S
C438 C439 1.524 . S
C438 C452 1.377 . S
C439 C438 1.524 . S
C439 C440 1.397 . S
C439 C444 1.363 . S
C440 H417 0.950 . S
C440 C439 1.397 . S
C440 C441 1.334 . S
C441 H418 0.950 . S
C441 C440 1.334 . S
C441 C442 1.287 . S
C442 C441 1.287 . S
C442 C443 1.524 . S
C442 H461 0.913 . S
C443 H419 0.950 . S
C443 C442 1.524 . S
C443 C444 1.415 . S
C444 H420 0.950 . S
C444 C439 1.363 . S
C444 C443 1.415 . S
C445 H421 0.951 1_655 S
C445 C446 1.366 . S
C445 C447 1.388 1_655 S
C446 C445 1.366 . S
C446 C450 1.385 . S
C447 H422 0.951 . S
C447 C445 1.388 1_455 S
C447 C448 1.366 . S
C448 C447 1.366 . S
C448 C449 1.414 1_455 S
C448 C451 1.499 . S
C449 H423 0.950 . S
C449 C448 1.414 1_655 S
C449 C450 1.374 . S
C450 H424 0.950 . S
C450 C446 1.385 . S
C450 C449 1.374 . S
C451 C448 1.499 . S
C451 C452 1.373 . S
C451 C453 1.389 . S
C452 H425 0.950 . S
C452 C438 1.377 . S
C452 C451 1.373 . S
C453 C437 1.377 . S
C453 C451 1.389 . S
C453 C454 1.524 . S
C454 C453 1.524 . S
C454 C455 1.397 . S
C454 C459 1.363 . S
C455 H426 0.950 . S
C455 C454 1.397 . S
C455 C456 1.334 . S
C456 H427 0.950 . S
C456 C455 1.334 . S
C456 C457 1.287 . S
C457 C456 1.287 . S
C457 C458 1.524 . S
C457 H460 0.999 . S
C458 H428 0.950 . S
C458 C457 1.524 . S
C458 C459 1.415 . S
C459 H429 0.950 . S
C459 C454 1.363 . S
C459 C458 1.415 . S
H460 C457 0.999 . S
H461 C442 0.913 . S
H462 C480 0.951 . S
H463 C482 0.951 . S
H464 C484 0.950 . S
H465 C485 0.950 . S
H466 C487 0.950 . S
H467 C490 0.950 . S
H468 C491 0.950 . S
H469 C493 0.950 . S
H470 C494 0.950 . S
H471 C495 0.951 . S
H472 C497 0.951 . S
H473 C499 0.950 . S
H474 C500 0.950 . S
H475 C502 0.950 . S
H476 C505 0.950 . S
H477 C506 0.950 . S
H478 C508 0.950 . S
H479 C509 0.950 . S
C480 H462 0.951 . S
C480 C481 1.366 . S
C480 C482 1.388 . S
C481 C480 1.366 . S
C481 C485 1.385 . S
C482 H463 0.951 . S
C482 C480 1.388 . S
C482 C483 1.366 . S
C483 C482 1.366 . S
C483 C484 1.414 . S
C483 C486 1.499 . S
C484 H464 0.950 . S
C484 C483 1.414 . S
C484 C485 1.374 . S
C485 H465 0.950 . S
C485 C481 1.385 . S
C485 C484 1.374 . S
C486 C483 1.499 . S
C486 C487 1.373 1_565 S
C486 C488 1.389 . S
C487 H466 0.950 . S
C487 C486 1.373 1_545 S
C487 C503 1.377 . S
C488 C486 1.389 . S
C488 C489 1.524 . S
C488 C502 1.377 . S
C489 C488 1.524 . S
C489 C490 1.397 . S
C489 C494 1.363 . S
C490 H467 0.950 . S
C490 C489 1.397 . S
C490 C491 1.334 . S
C491 H468 0.950 . S
C491 C490 1.334 . S
C491 C492 1.287 . S
C492 C491 1.287 . S
C492 C493 1.524 . S
C492 H511 0.913 . S
C493 H469 0.950 . S
C493 C492 1.524 . S
C493 C494 1.415 . S
C494 H470 0.950 . S
C494 C489 1.363 . S
C494 C493 1.415 . S
C495 H471 0.951 . S
C495 C496 1.366 . S
C495 C497 1.388 . S
C496 C495 1.366 . S
C496 C500 1.385 . S
C497 H472 0.951 . S
C497 C495 1.388 . S
C497 C498 1.366 . S
C498 C497 1.366 . S
C498 C499 1.414 . S
C498 C501 1.499 . S
C499 H473 0.950 . S
C499 C498 1.414 . S
C499 C500 1.374 . S
C500 H474 0.950 . S
C500 C496 1.385 . S
C500 C499 1.374 . S
C501 C498 1.499 . S
C501 C502 1.373 1_545 S
C501 C503 1.389 . S
C502 H475 0.950 . S
C502 C488 1.377 . S
C502 C501 1.373 1_565 S
C503 C487 1.377 . S
C503 C501 1.389 . S
C503 C504 1.524 . S
C504 C503 1.524 . S
C504 C505 1.397 . S
C504 C509 1.363 . S
C505 H476 0.950 . S
C505 C504 1.397 . S
C505 C506 1.334 . S
C506 H477 0.950 . S
C506 C505 1.334 . S
C506 C507 1.287 . S
C507 C506 1.287 . S
C507 C508 1.524 . S
C507 H510 0.999 . S
C508 H478 0.950 . S
C508 C507 1.524 . S
C508 C509 1.415 . S
C509 H479 0.950 . S
C509 C504 1.363 . S
C509 C508 1.415 . S
H510 C507 0.999 . S
H511 C492 0.913 . S
H512 C530 0.951 . S
H513 C532 0.951 1_655 S
H514 C534 0.950 . S
H515 C535 0.950 . S
H516 C537 0.950 . S
H517 C540 0.950 1_455 S
H518 C541 0.950 1_455 S
H519 C543 0.950 . S
H520 C544 0.950 . S
H521 C545 0.951 . S
H522 C547 0.951 1_455 S
H523 C549 0.950 . S
H524 C550 0.950 . S
H525 C552 0.950 . S
H526 C555 0.950 1_655 S
H527 C556 0.950 1_655 S
H528 C558 0.950 . S
H529 C559 0.950 . S
C530 H512 0.951 . S
C530 C531 1.366 . S
C530 C532 1.388 . S
C531 C530 1.366 . S
C531 C535 1.385 . S
C532 H513 0.951 1_455 S
C532 C530 1.388 . S
C532 C533 1.366 . S
C533 C532 1.366 . S
C533 C534 1.414 . S
C533 C536 1.499 . S
C534 H514 0.950 . S
C534 C533 1.414 . S
C534 C535 1.374 . S
C535 H515 0.950 . S
C535 C531 1.385 . S
C535 C534 1.374 . S
C536 C533 1.499 . S
C536 C537 1.373 . S
C536 C538 1.389 1_455 S
C537 H516 0.950 . S
C537 C536 1.373 . S
C537 C553 1.377 . S
C538 C536 1.389 1_655 S
C538 C539 1.524 . S
C538 C552 1.377 . S
C539 C538 1.524 . S
C539 C540 1.397 . S
C539 C544 1.363 . S
C540 H517 0.950 1_655 S
C540 C539 1.397 . S
C540 C541 1.334 . S
C541 H518 0.950 1_655 S
C541 C540 1.334 . S
C541 C542 1.287 . S
C542 C541 1.287 . S
C542 C543 1.524 . S
C542 H561 0.913 . S
C543 H519 0.950 . S
C543 C542 1.524 . S
C543 C544 1.415 . S
C544 H520 0.950 . S
C544 C539 1.363 . S
C544 C543 1.415 . S
C545 H521 0.951 . S
C545 C546 1.366 . S
C545 C547 1.388 . S
C546 C545 1.366 . S
C546 C550 1.385 . S
C547 H522 0.951 1_655 S
C547 C545 1.388 . S
C547 C548 1.366 . S
C548 C547 1.366 . S
C548 C549 1.414 . S
C548 C551 1.499 . S
C549 H523 0.950 . S
C549 C548 1.414 . S
C549 C550 1.374 . S
C550 H524 0.950 . S
C550 C546 1.385 . S
C550 C549 1.374 . S
C551 C548 1.499 . S
C551 C552 1.373 . S
C551 C553 1.389 1_655 S
C552 H525 0.950 . S
C552 C538 1.377 . S
C552 C551 1.373 . S
C553 C537 1.377 . S
C553 C551 1.389 1_455 S
C553 C554 1.524 . S
C554 C553 1.524 . S
C554 C555 1.397 . S
C554 C559 1.363 . S
C555 H526 0.950 1_455 S
C555 C554 1.397 . S
C555 C556 1.334 . S
C556 H527 0.950 1_455 S
C556 C555 1.334 . S
C556 C557 1.287 . S
C557 C556 1.287 . S
C557 C558 1.524 . S
C557 H560 0.999 . S
C558 H528 0.950 . S
C558 C557 1.524 . S
C558 C559 1.415 . S
C559 H529 0.950 . S
C559 C554 1.363 . S
C559 C558 1.415 . S
H560 C557 0.999 . S
H561 C542 0.913 . S
H562 C580 0.951 . S
H563 C582 0.951 . S
H564 C584 0.950 1_545 S
H565 C585 0.950 . S
H566 C587 0.950 . S
H567 C590 0.950 . S
H568 C591 0.950 . S
H569 C593 0.950 . S
H570 C594 0.950 . S
H571 C595 0.951 . S
H572 C597 0.951 . S
H573 C599 0.950 1_565 S
H574 C600 0.950 . S
H575 C602 0.950 . S
H576 C605 0.950 . S
H577 C606 0.950 . S
H578 C608 0.950 . S
H579 C609 0.950 . S
C580 H562 0.951 . S
C580 C581 1.366 . S
C580 C582 1.388 . S
C581 C580 1.366 . S
C581 C585 1.385 . S
C582 H563 0.951 . S
C582 C580 1.388 . S
C582 C583 1.366 . S
C583 C582 1.366 . S
C583 C584 1.414 . S
C583 C586 1.499 . S
C584 H564 0.950 1_565 S
C584 C583 1.414 . S
C584 C585 1.374 . S
C585 H565 0.950 . S
C585 C581 1.385 . S
C585 C584 1.374 . S
C586 C583 1.499 . S
C586 C587 1.373 1_565 S
C586 C588 1.389 . S
C587 H566 0.950 . S
C587 C586 1.373 1_545 S
C587 C603 1.377 . S
C588 C586 1.389 . S
C588 C589 1.524 . S
C588 C602 1.377 . S
C589 C588 1.524 . S
C589 C590 1.397 . S
C589 C594 1.363 . S
C590 H567 0.950 . S
C590 C589 1.397 . S
C590 C591 1.334 . S
C591 H568 0.950 . S
C591 C590 1.334 . S
C591 C592 1.287 . S
C592 C591 1.287 . S
C592 C593 1.524 . S
C592 H611 0.913 . S
C593 H569 0.950 . S
C593 C592 1.524 . S
C593 C594 1.415 . S
C594 H570 0.950 . S
C594 C589 1.363 . S
C594 C593 1.415 . S
C595 H571 0.951 . S
C595 C596 1.366 . S
C595 C597 1.388 . S
C596 C595 1.366 . S
C596 C600 1.385 . S
C597 H572 0.951 . S
C597 C595 1.388 . S
C597 C598 1.366 . S
C598 C597 1.366 . S
C598 C599 1.414 . S
C598 C601 1.499 . S
C599 H573 0.950 1_545 S
C599 C598 1.414 . S
C599 C600 1.374 . S
C600 H574 0.950 . S
C600 C596 1.385 . S
C600 C599 1.374 . S
C601 C598 1.499 . S
C601 C602 1.373 1_545 S
C601 C603 1.389 . S
C602 H575 0.950 . S
C602 C588 1.377 . S
C602 C601 1.373 1_565 S
C603 C587 1.377 . S
C603 C601 1.389 . S
C603 C604 1.524 . S
C604 C603 1.524 . S
C604 C605 1.397 . S
C604 C609 1.363 . S
C605 H576 0.950 . S
C605 C604 1.397 . S
C605 C606 1.334 . S
C606 H577 0.950 . S
C606 C605 1.334 . S
C606 C607 1.287 . S
C607 C606 1.287 . S
C607 C608 1.524 . S
C607 H610 0.999 . S
C608 H578 0.950 . S
C608 C607 1.524 . S
C608 C609 1.415 . S
C609 H579 0.950 . S
C609 C604 1.363 . S
C609 C608 1.415 . S
H610 C607 0.999 . S
H611 C592 0.913 . S
H612 C630 0.951 . S
H613 C632 0.951 . S
H614 C634 0.950 . S
H615 C635 0.950 . S
H616 C637 0.950 . S
H617 C640 0.950 . S
H618 C641 0.950 . S
H619 C643 0.950 . S
H620 C644 0.950 . S
H621 C645 0.951 . S
H622 C647 0.951 . S
H623 C649 0.950 . S
H624 C650 0.950 . S
H625 C652 0.950 . S
H626 C655 0.950 . S
H627 C656 0.950 . S
H628 C658 0.950 . S
H629 C659 0.950 . S
C630 H612 0.951 . S
C630 C631 1.366 . S
C630 C632 1.388 . S
C631 C630 1.366 . S
C631 C635 1.385 . S
C632 H613 0.951 . S
C632 C630 1.388 . S
C632 C633 1.366 . S
C633 C632 1.366 . S
C633 C634 1.414 . S
C633 C636 1.499 . S
C634 H614 0.950 . S
C634 C633 1.414 . S
C634 C635 1.374 . S
C635 H615 0.950 . S
C635 C631 1.385 . S
C635 C634 1.374 . S
C636 C633 1.499 . S
C636 C637 1.373 . S
C636 C638 1.389 . S
C637 H616 0.950 . S
C637 C636 1.373 . S
C637 C653 1.377 1_554 S
C638 C636 1.389 . S
C638 C639 1.524 . S
C638 C652 1.377 1_554 S
C639 C638 1.524 . S
C639 C640 1.397 . S
C639 C644 1.363 . S
C640 H617 0.950 . S
C640 C639 1.397 . S
C640 C641 1.334 . S
C641 H618 0.950 . S
C641 C640 1.334 . S
C641 C642 1.287 . S
C642 C641 1.287 . S
C642 C643 1.524 . S
C642 H661 0.913 . S
C643 H619 0.950 . S
C643 C642 1.524 . S
C643 C644 1.415 . S
C644 H620 0.950 . S
C644 C639 1.363 . S
C644 C643 1.415 . S
C645 H621 0.951 . S
C645 C646 1.366 . S
C645 C647 1.388 . S
C646 C645 1.366 . S
C646 C650 1.385 . S
C647 H622 0.951 . S
C647 C645 1.388 . S
C647 C648 1.366 . S
C648 C647 1.366 . S
C648 C649 1.414 . S
C648 C651 1.499 . S
C649 H623 0.950 . S
C649 C648 1.414 . S
C649 C650 1.374 . S
C650 H624 0.950 . S
C650 C646 1.385 . S
C650 C649 1.374 . S
C651 C648 1.499 . S
C651 C652 1.373 . S
C651 C653 1.389 . S
C652 H625 0.950 . S
C652 C638 1.377 1_556 S
C652 C651 1.373 . S
C653 C637 1.377 1_556 S
C653 C651 1.389 . S
C653 C654 1.524 . S
C654 C653 1.524 . S
C654 C655 1.397 . S
C654 C659 1.363 . S
C655 H626 0.950 . S
C655 C654 1.397 . S
C655 C656 1.334 . S
C656 H627 0.950 . S
C656 C655 1.334 . S
C656 C657 1.287 . S
C657 C656 1.287 . S
C657 C658 1.524 . S
C657 H660 0.999 . S
C658 H628 0.950 . S
C658 C657 1.524 . S
C658 C659 1.415 . S
C659 H629 0.950 . S
C659 C654 1.363 . S
C659 C658 1.415 . S
H660 C657 0.999 . S
H661 C642 0.913 . S
H662 C680 0.951 . S
H663 C682 0.951 1_655 S
H664 C684 0.950 . S
H665 C685 0.950 . S
H666 C687 0.950 . S
H667 C690 0.950 1_455 S
H668 C691 0.950 1_455 S
H669 C693 0.950 . S
H670 C694 0.950 . S
H671 C695 0.951 . S
H672 C697 0.951 1_455 S
H673 C699 0.950 . S
H674 C700 0.950 . S
H675 C702 0.950 . S
H676 C705 0.950 1_655 S
H677 C706 0.950 1_655 S
H678 C708 0.950 . S
H679 C709 0.950 . S
C680 H662 0.951 . S
C680 C681 1.366 . S
C680 C682 1.388 . S
C681 C680 1.366 . S
C681 C685 1.385 . S
C682 H663 0.951 1_455 S
C682 C680 1.388 . S
C682 C683 1.366 . S
C683 C682 1.366 . S
C683 C684 1.414 . S
C683 C686 1.499 . S
C684 H664 0.950 . S
C684 C683 1.414 . S
C684 C685 1.374 . S
C685 H665 0.950 . S
C685 C681 1.385 . S
C685 C684 1.374 . S
C686 C683 1.499 . S
C686 C687 1.373 1_556 S
C686 C688 1.389 1_465 S
C687 H666 0.950 . S
C687 C686 1.373 1_554 S
C687 C703 1.377 . S
C688 C686 1.389 1_645 S
C688 C689 1.524 . S
C688 C702 1.377 . S
C689 C688 1.524 . S
C689 C690 1.397 . S
C689 C694 1.363 . S
C690 H667 0.950 1_655 S
C690 C689 1.397 . S
C690 C691 1.334 . S
C691 H668 0.950 1_655 S
C691 C690 1.334 . S
C691 C692 1.287 . S
C692 C691 1.287 . S
C692 C693 1.524 . S
C692 H711 0.913 . S
C693 H669 0.950 . S
C693 C692 1.524 . S
C693 C694 1.415 . S
C694 H670 0.950 . S
C694 C689 1.363 . S
C694 C693 1.415 . S
C695 H671 0.951 . S
C695 C696 1.366 . S
C695 C697 1.388 . S
C696 C695 1.366 . S
C696 C700 1.385 . S
C697 H672 0.951 1_655 S
C697 C695 1.388 . S
C697 C698 1.366 . S
C698 C697 1.366 . S
C698 C699 1.414 . S
C698 C701 1.499 . S
C699 H673 0.950 . S
C699 C698 1.414 . S
C699 C700 1.374 . S
C700 H674 0.950 . S
C700 C696 1.385 . S
C700 C699 1.374 . S
C701 C698 1.499 . S
C701 C702 1.373 1_554 S
C701 C703 1.389 1_645 S
C702 H675 0.950 . S
C702 C688 1.377 . S
C702 C701 1.373 1_556 S
C703 C687 1.377 . S
C703 C701 1.389 1_465 S
C703 C704 1.524 . S
C704 C703 1.524 . S
C704 C705 1.397 . S
C704 C709 1.363 . S
C705 H676 0.950 1_455 S
C705 C704 1.397 . S
C705 C706 1.334 . S
C706 H677 0.950 1_455 S
C706 C705 1.334 . S
C706 C707 1.287 . S
C707 C706 1.287 . S
C707 C708 1.524 . S
C707 H710 0.999 . S
C708 H678 0.950 . S
C708 C707 1.524 . S
C708 C709 1.415 . S
C709 H679 0.950 . S
C709 C704 1.363 . S
C709 C708 1.415 . S
H710 C707 0.999 . S
H711 C692 0.913 . S
H712 C730 0.951 . S
H713 C732 0.951 . S
H714 C734 0.950 . S
H715 C735 0.950 . S
H716 C737 0.950 . S
H717 C740 0.950 . S
H718 C741 0.950 . S
H719 C743 0.950 . S
H720 C744 0.950 . S
H721 C745 0.951 . S
H722 C747 0.951 . S
H723 C749 0.950 . S
H724 C750 0.950 . S
H725 C752 0.950 . S
H726 C755 0.950 . S
H727 C756 0.950 . S
H728 C758 0.950 . S
H729 C759 0.950 . S
C730 H712 0.951 . S
C730 C731 1.366 . S
C730 C732 1.388 . S
C731 C730 1.366 . S
C731 C735 1.385 . S
C732 H713 0.951 . S
C732 C730 1.388 . S
C732 C733 1.366 . S
C733 C732 1.366 . S
C733 C734 1.414 . S
C733 C736 1.499 . S
C734 H714 0.950 . S
C734 C733 1.414 . S
C734 C735 1.374 . S
C735 H715 0.950 . S
C735 C731 1.385 . S
C735 C734 1.374 . S
C736 C733 1.499 . S
C736 C737 1.373 . S
C736 C738 1.389 . S
C737 H716 0.950 . S
C737 C736 1.373 . S
C737 C753 1.377 . S
C738 C736 1.389 . S
C738 C739 1.524 . S
C738 C752 1.377 . S
C739 C738 1.524 . S
C739 C740 1.397 . S
C739 C744 1.363 . S
C740 H717 0.950 . S
C740 C739 1.397 . S
C740 C741 1.334 . S
C741 H718 0.950 . S
C741 C740 1.334 . S
C741 C742 1.287 . S
C742 C741 1.287 . S
C742 C743 1.524 . S
C742 H761 0.913 . S
C743 H719 0.950 . S
C743 C742 1.524 . S
C743 C744 1.415 . S
C744 H720 0.950 . S
C744 C739 1.363 . S
C744 C743 1.415 . S
C745 H721 0.951 . S
C745 C746 1.366 . S
C745 C747 1.388 . S
C746 C745 1.366 . S
C746 C750 1.385 . S
C747 H722 0.951 . S
C747 C745 1.388 . S
C747 C748 1.366 . S
C748 C747 1.366 . S
C748 C749 1.414 . S
C748 C751 1.499 . S
C749 H723 0.950 . S
C749 C748 1.414 . S
C749 C750 1.374 . S
C750 H724 0.950 . S
C750 C746 1.385 . S
C750 C749 1.374 . S
C751 C748 1.499 . S
C751 C752 1.373 . S
C751 C753 1.389 . S
C752 H725 0.950 . S
C752 C738 1.377 . S
C752 C751 1.373 . S
C753 C737 1.377 . S
C753 C751 1.389 . S
C753 C754 1.524 . S
C754 C753 1.524 . S
C754 C755 1.397 . S
C754 C759 1.363 . S
C755 H726 0.950 . S
C755 C754 1.397 . S
C755 C756 1.334 . S
C756 H727 0.950 . S
C756 C755 1.334 . S
C756 C757 1.287 . S
C757 C756 1.287 . S
C757 C758 1.524 . S
C757 H760 0.999 . S
C758 H728 0.950 . S
C758 C757 1.524 . S
C758 C759 1.415 . S
C759 H729 0.950 . S
C759 C754 1.363 . S
C759 C758 1.415 . S
H760 C757 0.999 . S
H761 C742 0.913 . S
H762 C780 0.951 . S
H763 C782 0.951 . S
H764 C784 0.950 . S
H765 C785 0.950 . S
H766 C787 0.950 . S
H767 C790 0.950 . S
H768 C791 0.950 . S
H769 C793 0.950 . S
H770 C794 0.950 . S
H771 C795 0.951 . S
H772 C797 0.951 . S
H773 C799 0.950 . S
H774 C800 0.950 . S
H775 C802 0.950 . S
H776 C805 0.950 . S
H777 C806 0.950 . S
H778 C808 0.950 . S
H779 C809 0.950 . S
C780 H762 0.951 . S
C780 C781 1.366 . S
C780 C782 1.388 . S
C781 C780 1.366 . S
C781 C785 1.385 . S
C782 H763 0.951 . S
C782 C780 1.388 . S
C782 C783 1.366 . S
C783 C782 1.366 . S
C783 C784 1.414 . S
C783 C786 1.499 . S
C784 H764 0.950 . S
C784 C783 1.414 . S
C784 C785 1.374 . S
C785 H765 0.950 . S
C785 C781 1.385 . S
C785 C784 1.374 . S
C786 C783 1.499 . S
C786 C787 1.373 . S
C786 C788 1.389 . S
C787 H766 0.950 . S
C787 C786 1.373 . S
C787 C803 1.377 . S
C788 C786 1.389 . S
C788 C789 1.524 . S
C788 C802 1.377 . S
C789 C788 1.524 . S
C789 C790 1.397 . S
C789 C794 1.363 . S
C790 H767 0.950 . S
C790 C789 1.397 . S
C790 C791 1.334 . S
C791 H768 0.950 . S
C791 C790 1.334 . S
C791 C792 1.287 . S
C792 C791 1.287 . S
C792 C793 1.524 . S
C792 H811 0.913 . S
C793 H769 0.950 . S
C793 C792 1.524 . S
C793 C794 1.415 . S
C794 H770 0.950 . S
C794 C789 1.363 . S
C794 C793 1.415 . S
C795 H771 0.951 . S
C795 C796 1.366 . S
C795 C797 1.388 . S
C796 C795 1.366 . S
C796 C800 1.385 . S
C797 H772 0.951 . S
C797 C795 1.388 . S
C797 C798 1.366 . S
C798 C797 1.366 . S
C798 C799 1.414 . S
C798 C801 1.499 . S
C799 H773 0.950 . S
C799 C798 1.414 . S
C799 C800 1.374 . S
C800 H774 0.950 . S
C800 C796 1.385 . S
C800 C799 1.374 . S
C801 C798 1.499 . S
C801 C802 1.373 . S
C801 C803 1.389 . S
C802 H775 0.950 . S
C802 C788 1.377 . S
C802 C801 1.373 . S
C803 C787 1.377 . S
C803 C801 1.389 . S
C803 C804 1.524 . S
C804 C803 1.524 . S
C804 C805 1.397 . S
C804 C809 1.363 . S
C805 H776 0.950 . S
C805 C804 1.397 . S
C805 C806 1.334 . S
C806 H777 0.950 . S
C806 C805 1.334 . S
C806 C807 1.287 . S
C807 C806 1.287 . S
C807 C808 1.524 . S
C807 H810 0.999 . S
C808 H778 0.950 . S
C808 C807 1.524 . S
C808 C809 1.415 . S
C809 H779 0.950 . S
C809 C804 1.363 . S
C809 C808 1.415 . S
H810 C807 0.999 . S
H811 C792 0.913 . S
H812 C830 0.951 . S
H813 C832 0.951 . S
H814 C834 0.950 . S
H815 C835 0.950 . S
H816 C837 0.950 . S
H817 C840 0.950 . S
H818 C841 0.950 . S
H819 C843 0.950 . S
H820 C844 0.950 . S
H821 C845 0.951 . S
H822 C847 0.951 . S
H823 C849 0.950 . S
H824 C850 0.950 . S
H825 C852 0.950 . S
H826 C855 0.950 . S
H827 C856 0.950 . S
H828 C858 0.950 . S
H829 C859 0.950 . S
C830 H812 0.951 . S
C830 C831 1.366 . S
C830 C832 1.388 . S
C831 C830 1.366 . S
C831 C835 1.385 . S
C832 H813 0.951 . S
C832 C830 1.388 . S
C832 C833 1.366 . S
C833 C832 1.366 . S
C833 C834 1.414 . S
C833 C836 1.499 . S
C834 H814 0.950 . S
C834 C833 1.414 . S
C834 C835 1.374 . S
C835 H815 0.950 . S
C835 C831 1.385 . S
C835 C834 1.374 . S
C836 C833 1.499 . S
C836 C837 1.373 . S
C836 C838 1.389 . S
C837 H816 0.950 . S
C837 C836 1.373 . S
C837 C853 1.377 . S
C838 C836 1.389 . S
C838 C839 1.524 . S
C838 C852 1.377 . S
C839 C838 1.524 . S
C839 C840 1.397 . S
C839 C844 1.363 . S
C840 H817 0.950 . S
C840 C839 1.397 . S
C840 C841 1.334 . S
C841 H818 0.950 . S
C841 C840 1.334 . S
C841 C842 1.287 . S
C842 C841 1.287 . S
C842 C843 1.524 . S
C842 H861 0.913 . S
C843 H819 0.950 . S
C843 C842 1.524 . S
C843 C844 1.415 . S
C844 H820 0.950 . S
C844 C839 1.363 . S
C844 C843 1.415 . S
C845 H821 0.951 . S
C845 C846 1.366 . S
C845 C847 1.388 . S
C846 C845 1.366 . S
C846 C850 1.385 . S
C847 H822 0.951 . S
C847 C845 1.388 . S
C847 C848 1.366 . S
C848 C847 1.366 . S
C848 C849 1.414 . S
C848 C851 1.499 . S
C849 H823 0.950 . S
C849 C848 1.414 . S
C849 C850 1.374 . S
C850 H824 0.950 . S
C850 C846 1.385 . S
C850 C849 1.374 . S
C851 C848 1.499 . S
C851 C852 1.373 . S
C851 C853 1.389 . S
C852 H825 0.950 . S
C852 C838 1.377 . S
C852 C851 1.373 . S
C853 C837 1.377 . S
C853 C851 1.389 . S
C853 C854 1.524 . S
C854 C853 1.524 . S
C854 C855 1.397 . S
C854 C859 1.363 . S
C855 H826 0.950 . S
C855 C854 1.397 . S
C855 C856 1.334 . S
C856 H827 0.950 . S
C856 C855 1.334 . S
C856 C857 1.287 . S
C857 C856 1.287 . S
C857 C858 1.524 . S
C857 H860 0.999 . S
C858 H828 0.950 . S
C858 C857 1.524 . S
C858 C859 1.415 . S
C859 H829 0.950 . S
C859 C854 1.363 . S
C859 C858 1.415 . S
H860 C857 0.999 . S
H861 C842 0.913 . S
H862 C880 0.951 . S
H863 C882 0.951 . S
H864 C884 0.950 . S
H865 C885 0.950 . S
H866 C887 0.950 . S
H867 C890 0.950 . S
H868 C891 0.950 . S
H869 C893 0.950 . S
H870 C894 0.950 . S
H871 C895 0.951 . S
H872 C897 0.951 . S
H873 C899 0.950 . S
H874 C900 0.950 . S
H875 C902 0.950 . S
H876 C905 0.950 . S
H877 C906 0.950 . S
H878 C908 0.950 . S
H879 C909 0.950 . S
C880 H862 0.951 . S
C880 C881 1.366 . S
C880 C882 1.388 . S
C881 C880 1.366 . S
C881 C885 1.385 . S
C882 H863 0.951 . S
C882 C880 1.388 . S
C882 C883 1.366 . S
C883 C882 1.366 . S
C883 C884 1.414 . S
C883 C886 1.499 . S
C884 H864 0.950 . S
C884 C883 1.414 . S
C884 C885 1.374 . S
C885 H865 0.950 . S
C885 C881 1.385 . S
C885 C884 1.374 . S
C886 C883 1.499 . S
C886 C887 1.373 . S
C886 C888 1.389 . S
C887 H866 0.950 . S
C887 C886 1.373 . S
C887 C903 1.377 . S
C888 C886 1.389 . S
C888 C889 1.524 . S
C888 C902 1.377 . S
C889 C888 1.524 . S
C889 C890 1.397 . S
C889 C894 1.363 . S
C890 H867 0.950 . S
C890 C889 1.397 . S
C890 C891 1.334 . S
C891 H868 0.950 . S
C891 C890 1.334 . S
C891 C892 1.287 . S
C892 C891 1.287 . S
C892 C893 1.524 . S
C892 H911 0.913 . S
C893 H869 0.950 . S
C893 C892 1.524 . S
C893 C894 1.415 . S
C894 H870 0.950 . S
C894 C889 1.363 . S
C894 C893 1.415 . S
C895 H871 0.951 . S
C895 C896 1.366 . S
C895 C897 1.388 . S
C896 C895 1.366 . S
C896 C900 1.385 . S
C897 H872 0.951 . S
C897 C895 1.388 . S
C897 C898 1.366 . S
C898 C897 1.366 . S
C898 C899 1.414 . S
C898 C901 1.499 . S
C899 H873 0.950 . S
C899 C898 1.414 . S
C899 C900 1.374 . S
C900 H874 0.950 . S
C900 C896 1.385 . S
C900 C899 1.374 . S
C901 C898 1.499 . S
C901 C902 1.373 . S
C901 C903 1.389 . S
C902 H875 0.950 . S
C902 C888 1.377 . S
C902 C901 1.373 . S
C903 C887 1.377 . S
C903 C901 1.389 . S
C903 C904 1.524 . S
C904 C903 1.524 . S
C904 C905 1.397 . S
C904 C909 1.363 . S
C905 H876 0.950 . S
C905 C904 1.397 . S
C905 C906 1.334 . S
C906 H877 0.950 . S
C906 C905 1.334 . S
C906 C907 1.287 . S
C907 C906 1.287 . S
C907 C908 1.524 . S
C907 H910 0.999 . S
C908 H878 0.950 . S
C908 C907 1.524 . S
C908 C909 1.415 . S
C909 H879 0.950 . S
C909 C904 1.363 . S
C909 C908 1.415 . S
H910 C907 0.999 . S
H911 C892 0.913 . S
C131 C13 1.065 . S
C146 C36 1.079 . S
C181 C50 1.079 . S
C196 C27 1.065 . S
C231 C41 1.064 . S
C246 C8 1.078 . S
C281 C55 1.064 . S
C296 C22 1.079 . S
C331 C92 1.078 . S
C346 C69 1.064 . S
C381 C83 1.066 . S
C396 C106 1.080 . S
C431 C97 1.065 . S
C446 C64 1.079 . S
C481 C111 1.064 . S
C496 C78 1.078 . S
C531 C7 1.503 . S
C546 C63 1.503 . S
C581 C21 1.503 . S
C596 C77 1.503 . S
C631 C35 1.504 . S
C646 C91 1.504 . S
C681 C105 1.504 . S
C696 C49 1.504 . S
C731 C11 1.505 . S
C746 C25 1.504 . S
C781 C53 1.505 . S
C796 C39 1.505 . S
C831 C81 1.504 . S
C846 C67 1.505 . S
C881 C95 1.504 . S
C896 C109 1.505 . S
