# Generated by pormake.
# Topology lcy-a, (4)-cn, num edge types: 1
# Building blocks:
#     Node 0, Type 0, BuildingBlock: NAHDIM_clean_sbu_0, # of connection points: 4
#     Node 1, Type 0, BuildingBlock: NAHDIM_clean_sbu_0, # of connection points: 4
#     Node 2, Type 0, BuildingBlock: NAHDIM_clean_sbu_0, # of connection points: 4
#     Node 3, Type 0, BuildingBlock: NAHDIM_clean_sbu_0, # of connection points: 4
#     Node 4, Type 0, BuildingBlock: NAHDIM_clean_sbu_0, # of connection points: 4
#     Node 5, Type 0, BuildingBlock: NAHDIM_clean_sbu_0, # of connection points: 4
#     Node 6, Type 0, BuildingBlock: NAHDIM_clean_sbu_0, # of connection points: 4
#     Node 7, Type 0, BuildingBlock: NAHDIM_clean_sbu_0, # of connection points: 4
#     Node 8, Type 0, BuildingBlock: NAHDIM_clean_sbu_0, # of connection points: 4
#     Node 9, Type 0, BuildingBlock: NAHDIM_clean_sbu_0, # of connection points: 4
#     Node 10, Type 0, BuildingBlock: NAHDIM_clean_sbu_0, # of connection points: 4
#     Node 11, Type 0, BuildingBlock: NAHDIM_clean_sbu_0, # of connection points: 4
#     Node 12, Type 0, BuildingBlock: NAHDIM_clean_sbu_0, # of connection points: 4
#     Node 13, Type 0, BuildingBlock: NAHDIM_clean_sbu_0, # of connection points: 4
#     Node 14, Type 0, BuildingBlock: NAHDIM_clean_sbu_0, # of connection points: 4
#     Node 15, Type 0, BuildingBlock: NAHDIM_clean_sbu_0, # of connection points: 4
#     Node 16, Type 0, BuildingBlock: NAHDIM_clean_sbu_0, # of connection points: 4
#     Node 17, Type 0, BuildingBlock: NAHDIM_clean_sbu_0, # of connection points: 4
#     Node 18, Type 0, BuildingBlock: NAHDIM_clean_sbu_0, # of connection points: 4
#     Node 19, Type 0, BuildingBlock: NAHDIM_clean_sbu_0, # of connection points: 4
#     Node 20, Type 0, BuildingBlock: NAHDIM_clean_sbu_0, # of connection points: 4
#     Node 21, Type 0, BuildingBlock: NAHDIM_clean_sbu_0, # of connection points: 4
#     Node 22, Type 0, BuildingBlock: NAHDIM_clean_sbu_0, # of connection points: 4
#     Node 23, Type 0, BuildingBlock: NAHDIM_clean_sbu_0, # of connection points: 4
#     Edge 24, Type (0, 0), BuildingBlock: MIFKUJ_clean_linker_0, # of connection points: 2
#     Edge 25, Type (0, 0), BuildingBlock: MIFKUJ_clean_linker_0, # of connection points: 2
#     Edge 26, Type (0, 0), BuildingBlock: MIFKUJ_clean_linker_0, # of connection points: 2
#     Edge 27, Type (0, 0), BuildingBlock: MIFKUJ_clean_linker_0, # of connection points: 2
#     Edge 28, Type (0, 0), BuildingBlock: MIFKUJ_clean_linker_0, # of connection points: 2
#     Edge 29, Type (0, 0), BuildingBlock: MIFKUJ_clean_linker_0, # of connection points: 2
#     Edge 30, Type (0, 0), BuildingBlock: MIFKUJ_clean_linker_0, # of connection points: 2
#     Edge 31, Type (0, 0), BuildingBlock: MIFKUJ_clean_linker_0, # of connection points: 2
#     Edge 32, Type (0, 0), BuildingBlock: MIFKUJ_clean_linker_0, # of connection points: 2
#     Edge 33, Type (0, 0), BuildingBlock: MIFKUJ_clean_linker_0, # of connection points: 2
#     Edge 34, Type (0, 0), BuildingBlock: MIFKUJ_clean_linker_0, # of connection points: 2
#     Edge 35, Type (0, 0), BuildingBlock: MIFKUJ_clean_linker_0, # of connection points: 2
#     Edge 36, Type (0, 0), BuildingBlock: MIFKUJ_clean_linker_0, # of connection points: 2
#     Edge 37, Type (0, 0), BuildingBlock: MIFKUJ_clean_linker_0, # of connection points: 2
#     Edge 38, Type (0, 0), BuildingBlock: MIFKUJ_clean_linker_0, # of connection points: 2
#     Edge 39, Type (0, 0), BuildingBlock: MIFKUJ_clean_linker_0, # of connection points: 2
#     Edge 40, Type (0, 0), BuildingBlock: MIFKUJ_clean_linker_0, # of connection points: 2
#     Edge 41, Type (0, 0), BuildingBlock: MIFKUJ_clean_linker_0, # of connection points: 2
#     Edge 42, Type (0, 0), BuildingBlock: MIFKUJ_clean_linker_0, # of connection points: 2
#     Edge 43, Type (0, 0), BuildingBlock: MIFKUJ_clean_linker_0, # of connection points: 2
#     Edge 44, Type (0, 0), BuildingBlock: MIFKUJ_clean_linker_0, # of connection points: 2
#     Edge 45, Type (0, 0), BuildingBlock: MIFKUJ_clean_linker_0, # of connection points: 2
#     Edge 46, Type (0, 0), BuildingBlock: MIFKUJ_clean_linker_0, # of connection points: 2
#     Edge 47, Type (0, 0), BuildingBlock: MIFKUJ_clean_linker_0, # of connection points: 2
#     Edge 48, Type (0, 0), BuildingBlock: MIFKUJ_clean_linker_0, # of connection points: 2
#     Edge 49, Type (0, 0), BuildingBlock: MIFKUJ_clean_linker_0, # of connection points: 2
#     Edge 50, Type (0, 0), BuildingBlock: MIFKUJ_clean_linker_0, # of connection points: 2
#     Edge 51, Type (0, 0), BuildingBlock: MIFKUJ_clean_linker_0, # of connection points: 2
#     Edge 52, Type (0, 0), BuildingBlock: MIFKUJ_clean_linker_0, # of connection points: 2
#     Edge 53, Type (0, 0), BuildingBlock: MIFKUJ_clean_linker_0, # of connection points: 2
#     Edge 54, Type (0, 0), BuildingBlock: MIFKUJ_clean_linker_0, # of connection points: 2
#     Edge 55, Type (0, 0), BuildingBlock: MIFKUJ_clean_linker_0, # of connection points: 2
#     Edge 56, Type (0, 0), BuildingBlock: MIFKUJ_clean_linker_0, # of connection points: 2
#     Edge 57, Type (0, 0), BuildingBlock: MIFKUJ_clean_linker_0, # of connection points: 2
#     Edge 58, Type (0, 0), BuildingBlock: MIFKUJ_clean_linker_0, # of connection points: 2
#     Edge 59, Type (0, 0), BuildingBlock: MIFKUJ_clean_linker_0, # of connection points: 2
#     Edge 60, Type (0, 0), BuildingBlock: MIFKUJ_clean_linker_0, # of connection points: 2
#     Edge 61, Type (0, 0), BuildingBlock: MIFKUJ_clean_linker_0, # of connection points: 2
#     Edge 62, Type (0, 0), BuildingBlock: MIFKUJ_clean_linker_0, # of connection points: 2
#     Edge 63, Type (0, 0), BuildingBlock: MIFKUJ_clean_linker_0, # of connection points: 2
#     Edge 64, Type (0, 0), BuildingBlock: MIFKUJ_clean_linker_0, # of connection points: 2
#     Edge 65, Type (0, 0), BuildingBlock: MIFKUJ_clean_linker_0, # of connection points: 2
#     Edge 66, Type (0, 0), BuildingBlock: MIFKUJ_clean_linker_0, # of connection points: 2
#     Edge 67, Type (0, 0), BuildingBlock: MIFKUJ_clean_linker_0, # of connection points: 2
#     Edge 68, Type (0, 0), BuildingBlock: MIFKUJ_clean_linker_0, # of connection points: 2
#     Edge 69, Type (0, 0), BuildingBlock: MIFKUJ_clean_linker_0, # of connection points: 2
#     Edge 70, Type (0, 0), BuildingBlock: MIFKUJ_clean_linker_0, # of connection points: 2
#     Edge 71, Type (0, 0), BuildingBlock: MIFKUJ_clean_linker_0, # of connection points: 2
# Relax obj value: 0.398
# Max RMSD: 0.211
# Mean RMSD: 0.211
data_MOF--net-lcy-a--node1-NAHDIM_clean_sbu_0--edge1-MIFKUJ_clean_linker_0
_symmetry_space_group_name_H-M    P1
_symmetry_Int_Tables_number       1
_symmetry_cell_setting            triclinic
loop_
_symmetry_equiv_pos_as_xyz
'x, y, z'
_cell_length_a     72.184308
_cell_length_b     72.202492
_cell_length_c     72.202366
_cell_angle_alpha  89.992774
_cell_angle_beta   90.010362
_cell_angle_gamma 89.999009
loop_
_atom_site_label
_atom_site_type_symbol
_atom_site_fract_x
_atom_site_fract_y
_atom_site_fract_z
_atom_type_partial_charge
C0 C 0.15549 0.27454 0.40585 0.0
O1 O 0.16633 0.26792 0.39284 0.0
O2 O 0.19878 0.28709 0.3935 0.0
Zn3 Zn 0.17884 0.30544 0.39988 0.0
O4 O 0.19028 0.32301 0.41818 0.0
C5 C 0.17206 0.31003 0.36137 0.0
O6 O 0.17275 0.29187 0.36208 0.0
O7 O 0.15738 0.29132 0.41088 0.0
C8 C 0.20526 0.33048 0.4127 0.0
O9 O 0.21106 0.32704 0.39579 0.0
C10 C 0.2085 0.27908 0.40579 0.0
O11 O 0.20571 0.28299 0.42334 0.0
O12 O 0.17276 0.31914 0.37642 0.0
C13 C 0.96313 0.90856 0.65397 0.0
O14 O 0.96994 0.91592 0.63878 0.0
O15 O 0.95927 0.95451 0.64286 0.0
Zn16 Zn 0.93772 0.93844 0.64997 0.0
O17 O 0.9235 0.95177 0.66976 0.0
C18 C 0.92874 0.93475 0.61157 0.0
O19 O 0.94687 0.93423 0.61014 0.0
O20 O 0.94812 0.91499 0.66056 0.0
C21 C 0.91533 0.9668 0.66569 0.0
O22 O 0.91597 0.97286 0.64854 0.0
C23 C 0.96966 0.96167 0.65512 0.0
O24 O 0.96595 0.95886 0.67271 0.0
O25 O 0.92146 0.93516 0.62759 0.0
C26 C 0.34131 0.72747 0.89862 0.0
O27 O 0.33346 0.73419 0.88364 0.0
O28 O 0.29806 0.71555 0.88335 0.0
Zn29 Zn 0.31805 0.69726 0.88957 0.0
O30 O 0.30638 0.67806 0.9059 0.0
C31 C 0.32425 0.69312 0.85066 0.0
O32 O 0.32042 0.71091 0.85061 0.0
O33 O 0.33789 0.71087 0.90333 0.0
C34 C 0.29741 0.66489 0.89841 0.0
O35 O 0.29677 0.66379 0.88026 0.0
C36 C 0.28773 0.72222 0.89593 0.0
O37 O 0.2901 0.71685 0.91315 0.0
O38 O 0.32628 0.68492 0.86609 0.0
C39 C 0.52989 0.09787 0.15237 0.0
O40 O 0.52295 0.09053 0.13724 0.0
O41 O 0.5363 0.05295 0.13933 0.0
Zn42 Zn 0.55703 0.07044 0.14544 0.0
O43 O 0.57366 0.05677 0.16299 0.0
C44 C 0.56207 0.07566 0.10666 0.0
O45 O 0.54389 0.07594 0.10715 0.0
O46 O 0.54572 0.09252 0.15794 0.0
C47 C 0.57865 0.04067 0.15792 0.0
O48 O 0.57361 0.03466 0.1415 0.0
C49 C 0.52844 0.04336 0.1518 0.0
O50 O 0.53381 0.04509 0.1691 0.0
O51 O 0.57096 0.07536 0.12185 0.0
C52 C 0.65446 0.20077 0.57416 0.0
O53 O 0.66473 0.18826 0.56586 0.0
O54 O 0.6956 0.21728 0.60966 0.0
Zn55 Zn 0.6802 0.19489 0.60389 0.0
O56 O 0.69567 0.17887 0.58716 0.0
C57 C 0.67292 0.19071 0.64246 0.0
O58 O 0.67123 0.20879 0.64131 0.0
O59 O 0.65747 0.2044 0.59111 0.0
C60 C 0.71269 0.17688 0.59119 0.0
O61 O 0.71912 0.18449 0.60642 0.0
C62 C 0.70294 0.22662 0.59668 0.0
O63 O 0.70004 0.22166 0.57941 0.0
O64 O 0.67541 0.18145 0.6277 0.0
C65 C 0.01875 0.41493 0.84659 0.0
O66 O 0.01137 0.4201 0.86241 0.0
O67 O 0.02438 0.45856 0.86459 0.0
Zn68 Zn 0.04523 0.44162 0.8576 0.0
O69 O 0.06319 0.45678 0.84278 0.0
C70 C 0.07371 0.42672 0.8819 0.0
O71 O 0.08295 0.42392 0.86647 0.0
O72 O 0.03446 0.42139 0.84202 0.0
C73 C 0.07184 0.45079 0.82869 0.0
O74 O 0.06963 0.43348 0.82356 0.0
C75 C 0.01662 0.46848 0.85229 0.0
O76 O 0.02247 0.46748 0.83509 0.0
O77 O 0.05728 0.43297 0.88104 0.0
C78 C 0.83897 0.78652 0.10428 0.0
O79 O 0.83293 0.78026 0.12026 0.0
O80 O 0.79439 0.7925 0.11958 0.0
Zn81 Zn 0.8105 0.8132 0.11019 0.0
O82 O 0.79613 0.82673 0.09069 0.0
C83 C 0.81868 0.82423 0.14731 0.0
O84 O 0.8188 0.80621 0.14983 0.0
O85 O 0.83253 0.80168 0.09808 0.0
C86 C 0.77945 0.83142 0.0937 0.0
O87 O 0.77211 0.82808 0.11002 0.0
C88 C 0.78622 0.78197 0.10808 0.0
O89 O 0.78829 0.78498 0.09025 0.0
O90 O 0.8165 0.83053 0.13103 0.0
C91 C 0.46698 0.58717 0.34612 0.0
O92 O 0.4736 0.57895 0.36095 0.0
O93 O 0.46137 0.54152 0.35604 0.0
Zn94 Zn 0.4403 0.55847 0.34969 0.0
O95 O 0.42564 0.54603 0.32966 0.0
C96 C 0.42962 0.56653 0.38792 0.0
O97 O 0.44643 0.57327 0.38957 0.0
O98 O 0.45146 0.5819 0.33969 0.0
C99 C 0.4172 0.53113 0.3337 0.0
O100 O 0.41801 0.52487 0.35077 0.0
C101 C 0.47158 0.53525 0.34315 0.0
O102 O 0.46786 0.53975 0.32591 0.0
O103 O 0.42408 0.56099 0.37217 0.0
C104 C 0.40294 0.17428 0.28281 0.0
O105 O 0.38751 0.18167 0.27659 0.0
O106 O 0.3912 0.22 0.28981 0.0
Zn107 Zn 0.39862 0.2024 0.3101 0.0
O108 O 0.41826 0.21477 0.32529 0.0
C109 C 0.3605 0.19625 0.31932 0.0
O110 O 0.3586 0.19751 0.30127 0.0
O111 O 0.40964 0.18003 0.29802 0.0
C112 C 0.41488 0.23043 0.33254 0.0
O113 O 0.39839 0.23783 0.33034 0.0
C114 C 0.40368 0.22784 0.28019 0.0
O115 O 0.42118 0.22455 0.28399 0.0
O116 O 0.37665 0.19697 0.32627 0.0
C117 C 0.07681 0.14402 0.53112 0.0
O118 O 0.06519 0.1308 0.52658 0.0
O119 O 0.03978 0.12725 0.55374 0.0
Zn120 Zn 0.06266 0.13596 0.56706 0.0
O121 O 0.05396 0.15496 0.58526 0.0
C122 C 0.07394 0.09868 0.57198 0.0
O123 O 0.07034 0.09832 0.55415 0.0
O124 O 0.0794 0.14782 0.54813 0.0
C125 C 0.04092 0.1499 0.59593 0.0
O126 O 0.03551 0.13252 0.59553 0.0
C127 C 0.02818 0.13892 0.54747 0.0
O128 O 0.03093 0.15666 0.5505 0.0
O129 O 0.07336 0.11411 0.5804 0.0
C130 C 0.09269 0.82929 0.78043 0.0
O131 O 0.1086 0.82314 0.7741 0.0
O132 O 0.11121 0.7865 0.78991 0.0
Zn133 Zn 0.10112 0.80373 0.80926 0.0
O134 O 0.08375 0.78917 0.82529 0.0
C135 C 0.13803 0.81525 0.81738 0.0
O136 O 0.13939 0.81435 0.79926 0.0
O137 O 0.08707 0.82382 0.79619 0.0
C138 C 0.08955 0.77436 0.83284 0.0
O139 O 0.10684 0.76929 0.83024 0.0
C140 C 0.10036 0.7769 0.77993 0.0
O141 O 0.0824 0.77809 0.78265 0.0
O142 O 0.12232 0.81265 0.82486 0.0
C143 C 0.41646 0.84905 0.03482 0.0
O144 O 0.42257 0.86528 0.02933 0.0
O145 O 0.46306 0.85994 0.0382 0.0
Zn146 Zn 0.44663 0.8531 0.05961 0.0
O147 O 0.46045 0.83442 0.0748 0.0
C148 C 0.44137 0.89165 0.06813 0.0
O149 O 0.44245 0.89332 0.05005 0.0
O150 O 0.42383 0.8415 0.0489 0.0
C151 C 0.47652 0.83891 0.08039 0.0
O152 O 0.48287 0.85553 0.0765 0.0
C153 C 0.46974 0.84698 0.02835 0.0
O154 O 0.46578 0.82972 0.03255 0.0
O155 O 0.44182 0.87558 0.07528 0.0
C156 C 0.89849 0.3394 0.70909 0.0
O157 O 0.88279 0.33265 0.71533 0.0
O158 O 0.88575 0.294 0.70407 0.0
Zn159 Zn 0.89318 0.31058 0.68294 0.0
O160 O 0.91195 0.29662 0.66796 0.0
C161 C 0.85484 0.31635 0.67467 0.0
O162 O 0.85361 0.31543 0.6928 0.0
O163 O 0.90512 0.33305 0.69408 0.0
C164 C 0.90789 0.28019 0.66317 0.0
O165 O 0.89143 0.27362 0.66733 0.0
C166 C 0.89809 0.28535 0.71317 0.0
O167 O 0.91558 0.2873 0.70852 0.0
O168 O 0.87076 0.31575 0.66718 0.0
C169 C 0.89586 0.65524 0.96978 0.0
O170 O 0.90003 0.63838 0.97522 0.0
O171 O 0.94065 0.63879 0.96796 0.0
Zn172 Zn 0.92589 0.64768 0.94613 0.0
O173 O 0.94291 0.66417 0.93156 0.0
C174 C 0.91729 0.60996 0.93712 0.0
O175 O 0.91825 0.608 0.95518 0.0
O176 O 0.90434 0.66203 0.95595 0.0
C177 C 0.95915 0.65812 0.92835 0.0
O178 O 0.96367 0.64146 0.93415 0.0
C179 C 0.94775 0.65065 0.97885 0.0
O180 O 0.94476 0.66835 0.97582 0.0
O181 O 0.91892 0.62605 0.93019 0.0
C182 C 0.60163 0.65435 0.21821 0.0
O183 O 0.61706 0.66124 0.22494 0.0
O184 O 0.62015 0.6967 0.20709 0.0
Zn185 Zn 0.61096 0.67836 0.18828 0.0
O186 O 0.59367 0.69233 0.17166 0.0
C187 C 0.64823 0.66702 0.18163 0.0
O188 O 0.64841 0.66646 0.19982 0.0
O189 O 0.59685 0.65855 0.20179 0.0
C190 C 0.59952 0.70755 0.16504 0.0
O191 O 0.61661 0.71272 0.16861 0.0
C192 C 0.60876 0.70692 0.21578 0.0
O193 O 0.59095 0.70516 0.21249 0.0
O194 O 0.63294 0.66995 0.17342 0.0
C195 C 0.596 0.35647 0.46948 0.0
O196 O 0.59018 0.3711 0.4786 0.0
O197 O 0.55239 0.37438 0.46653 0.0
Zn198 Zn 0.56827 0.36856 0.44448 0.0
O199 O 0.55234 0.35343 0.42745 0.0
C200 C 0.57888 0.39294 0.41479 0.0
O201 O 0.58077 0.37733 0.40562 0.0
O202 O 0.58975 0.35348 0.45332 0.0
C203 C 0.5571 0.33796 0.42055 0.0
O204 O 0.57374 0.33141 0.42393 0.0
C205 C 0.544 0.36131 0.47483 0.0
O206 O 0.54606 0.34424 0.46888 0.0
O207 O 0.57498 0.39234 0.43193 0.0
C208 C 0.27652 0.42124 0.17476 0.0
O209 O 0.27556 0.42077 0.19293 0.0
O210 O 0.27837 0.38304 0.20117 0.0
Zn211 Zn 0.29881 0.39258 0.18502 0.0
O212 O 0.3157 0.40723 0.20157 0.0
C213 C 0.32973 0.37037 0.17264 0.0
O214 O 0.33869 0.38618 0.17331 0.0
O215 O 0.28696 0.40968 0.16651 0.0
C216 C 0.32468 0.42134 0.19612 0.0
O217 O 0.32346 0.42652 0.17871 0.0
C218 C 0.28202 0.37293 0.21507 0.0
O219 O 0.29931 0.3682 0.2183 0.0
O220 O 0.3123 0.37036 0.17508 0.0
C221 C 0.77857 0.10006 0.84065 0.0
O222 O 0.76901 0.11371 0.83335 0.0
O223 O 0.78421 0.12168 0.79891 0.0
Zn224 Zn 0.80537 0.11255 0.81445 0.0
O225 O 0.82086 0.09634 0.79795 0.0
C226 C 0.83714 0.13622 0.8211 0.0
O227 O 0.84673 0.12117 0.81757 0.0
O228 O 0.79524 0.0976 0.8356 0.0
C229 C 0.82896 0.08171 0.80342 0.0
O230 O 0.82787 0.07692 0.82094 0.0
C231 C 0.77534 0.11102 0.78808 0.0
O232 O 0.78002 0.09346 0.78709 0.0
O233 O 0.8196 0.13516 0.82206 0.0
C234 C 0.1543 0.54277 0.07721 0.0
O235 O 0.13666 0.53837 0.07786 0.0
O236 O 0.13729 0.53585 0.02964 0.0
Zn237 Zn 0.14489 0.55959 0.042 0.0
O238 O 0.16144 0.57367 0.02464 0.0
C239 C 0.10674 0.56728 0.05039 0.0
O240 O 0.10575 0.54911 0.05048 0.0
O241 O 0.16022 0.55272 0.06399 0.0
C242 C 0.16071 0.5716 0.00717 0.0
O243 O 0.1482 0.56048 2e-05 0.0
C244 C 0.14955 0.52386 0.02565 0.0
O245 O 0.16693 0.52722 0.02987 0.0
O246 O 0.12238 0.57497 0.04793 0.0
C247 C 0.71208 0.90513 0.34065 0.0
O248 O 0.71924 0.88993 0.3337 0.0
O249 O 0.70762 0.89412 0.29471 0.0
Zn250 Zn 0.68619 0.89861 0.31184 0.0
O251 O 0.66907 0.91615 0.29883 0.0
C252 C 0.68305 0.85944 0.31544 0.0
O253 O 0.70117 0.8609 0.31481 0.0
O254 O 0.69658 0.9108 0.33454 0.0
C255 C 0.66263 0.91125 0.28321 0.0
O256 O 0.66664 0.89468 0.27683 0.0
C257 C 0.71545 0.90711 0.28578 0.0
O258 O 0.70925 0.92413 0.28749 0.0
O259 O 0.67335 0.87413 0.31588 0.0
C260 C 0.35023 0.46241 0.59024 0.0
O261 O 0.36557 0.46874 0.58278 0.0
O262 O 0.36524 0.45172 0.5453 0.0
Zn263 Zn 0.35537 0.43313 0.56357 0.0
O264 O 0.3355 0.41887 0.55031 0.0
C265 C 0.39129 0.42287 0.57684 0.0
O266 O 0.39163 0.44046 0.58144 0.0
O267 O 0.34398 0.44678 0.58506 0.0
C268 C 0.33884 0.41352 0.53388 0.0
O269 O 0.35528 0.41672 0.52675 0.0
C270 C 0.35589 0.46586 0.54055 0.0
O271 O 0.33949 0.46862 0.54795 0.0
O272 O 0.37644 0.41613 0.57022 0.0
C273 C 0.21997 0.59173 0.66377 0.0
O274 O 0.22631 0.60693 0.67147 0.0
O275 O 0.20698 0.60995 0.70571 0.0
Zn276 Zn 0.18902 0.59926 0.68737 0.0
O277 O 0.17352 0.58048 0.7007 0.0
C278 C 0.18086 0.6354 0.67429 0.0
O279 O 0.199 0.63582 0.67299 0.0
O280 O 0.20362 0.58637 0.66753 0.0
C281 C 0.16535 0.58502 0.71561 0.0
O282 O 0.16663 0.60218 0.72152 0.0
C283 C 0.21568 0.59974 0.7171 0.0
O284 O 0.21269 0.58179 0.71703 0.0
O285 O 0.17304 0.62023 0.67857 0.0
C286 C 0.6762 0.95322 0.92439 0.0
O287 O 0.68025 0.94938 0.94171 0.0
O288 O 0.63701 0.95687 0.95447 0.0
Zn289 Zn 0.64377 0.93659 0.9368 0.0
O290 O 0.6568 0.91707 0.95185 0.0
C291 C 0.61806 0.90936 0.9228 0.0
O292 O 0.63283 0.89874 0.92235 0.0
O293 O 0.6606 0.94815 0.91796 0.0
C294 C 0.67022 0.90706 0.94642 0.0
O295 O 0.67634 0.90873 0.92937 0.0
C296 C 0.62538 0.95371 0.96728 0.0
O297 O 0.61796 0.93714 0.9686 0.0
O298 O 0.61995 0.92638 0.92682 0.0
C299 C 0.84264 0.03503 0.41199 0.0
O300 O 0.85761 0.0281 0.41966 0.0
O301 O 0.85876 0.04486 0.45552 0.0
Zn302 Zn 0.85063 0.0642 0.43723 0.0
O303 O 0.83284 0.08076 0.45061 0.0
C304 C 0.88848 0.07044 0.4287 0.0
O305 O 0.88834 0.05226 0.42799 0.0
O306 O 0.83759 0.05132 0.41633 0.0
C307 C 0.83878 0.08945 0.46471 0.0
O308 O 0.85633 0.08788 0.4693 0.0
C309 C 0.84711 0.03697 0.46606 0.0
O310 O 0.82954 0.0416 0.46494 0.0
O311 O 0.87316 0.07893 0.43033 0.0
H312 H 0.10843 0.16477 0.5318 0.0
H313 H 0.11847 0.18748 0.50873 0.0
H314 H 0.06997 0.17545 0.47579 0.0
H315 H 0.06063 0.15196 0.49817 0.0
H316 H 0.09566 0.18045 0.45376 0.0
H317 H 0.07414 0.21545 0.50469 0.0
H318 H 0.07119 0.22538 0.53723 0.0
H319 H 0.12852 0.24124 0.53792 0.0
H320 H 0.13188 0.23116 0.50545 0.0
H321 H 0.12617 0.28324 0.42837 0.0
H322 H 0.10794 0.26181 0.4474 0.0
H323 H 0.14058 0.21607 0.42689 0.0
H324 H 0.15793 0.23711 0.40726 0.0
H325 H 0.11681 0.24237 0.47468 0.0
H326 H 0.11951 0.17604 0.42785 0.0
H327 H 0.11716 0.16819 0.39469 0.0
H328 H 0.08767 0.2188 0.38444 0.0
H329 H 0.0896 0.22685 0.41756 0.0
C330 C 0.1001 0.16686 0.5195 0.0
C331 C 0.08382 0.15662 0.51671 0.0
C332 C 0.1057 0.17997 0.50642 0.0
C333 C 0.09474 0.18356 0.4907 0.0
C334 C 0.07867 0.17299 0.48777 0.0
C335 C 0.07336 0.15954 0.50056 0.0
C336 C 0.10003 0.19826 0.47732 0.0
C337 C 0.10019 0.19402 0.45834 0.0
C338 C 0.10523 0.21626 0.48314 0.0
C339 C 0.10329 0.22242 0.50267 0.0
C340 C 0.08615 0.22095 0.51182 0.0
C341 C 0.0844 0.22661 0.53025 0.0
C342 C 0.09966 0.2339 0.53965 0.0
C343 C 0.1167 0.23558 0.53063 0.0
C344 C 0.11854 0.22991 0.5122 0.0
C345 C 0.12915 0.26855 0.4277 0.0
C346 C 0.14337 0.26183 0.41626 0.0
C347 C 0.11879 0.25633 0.43861 0.0
C348 C 0.12268 0.23724 0.43842 0.0
C349 C 0.13685 0.2306 0.4269 0.0
C350 C 0.14688 0.2427 0.41574 0.0
C351 C 0.11299 0.22434 0.45118 0.0
C352 C 0.11202 0.2289 0.47006 0.0
C353 C 0.10618 0.20696 0.44515 0.0
C354 C 0.10482 0.20211 0.4252 0.0
C355 C 0.11243 0.18545 0.41855 0.0
C356 C 0.1112 0.18098 0.39975 0.0
C357 C 0.10231 0.19301 0.38746 0.0
C358 C 0.0946 0.20952 0.39396 0.0
C359 C 0.09578 0.21406 0.41274 0.0
H360 H 0.10138 0.18952 0.37291 0.0
H361 H 0.09828 0.23828 0.55392 0.0
H362 H 0.99768 0.89535 0.64595 0.0
H363 H 0.01909 0.88019 0.66727 0.0
H364 H 0.97658 0.87885 0.70924 0.0
H365 H 0.9551 0.89419 0.68808 0.0
H366 H 0.00799 0.89484 0.7217 0.0
H367 H 0.99185 0.83919 0.6893 0.0
H368 H 0.9872 0.81912 0.66208 0.0
H369 H 0.04476 0.82432 0.64801 0.0
H370 H 0.04971 0.84465 0.67501 0.0
H371 H 0.05735 0.84083 0.78772 0.0
H372 H 0.03521 0.85399 0.76581 0.0
H373 H 0.07722 0.85431 0.72332 0.0
H374 H 0.09941 0.84089 0.74506 0.0
H375 H 0.04593 0.83856 0.7111 0.0
H376 H 0.06218 0.89452 0.74266 0.0
H377 H 0.06724 0.91495 0.76955 0.0
H378 H 0.00997 0.90966 0.78473 0.0
H379 H 0.00462 0.88899 0.75806 0.0
C380 C 0.99273 0.89146 0.65957 0.0
C381 C 0.97473 0.89614 0.66538 0.0
C382 C 0.00499 0.88277 0.67173 0.0
C383 C 0.99943 0.87846 0.68985 0.0
C384 C 0.98116 0.88215 0.69533 0.0
C385 C 0.96888 0.89084 0.68318 0.0
C386 C 0.01311 0.87171 0.70355 0.0
C387 C 0.01607 0.88235 0.71955 0.0
C388 C 0.02406 0.85578 0.70038 0.0
C389 C 0.02111 0.8436 0.68409 0.0
C390 C 0.00348 0.8362 0.68031 0.0
C391 C 0.0008 0.82474 0.66494 0.0
C392 C 0.01566 0.82049 0.65329 0.0
C393 C 0.03325 0.82765 0.65703 0.0
C394 C 0.03601 0.83913 0.67238 0.0
C395 C 0.06198 0.84397 0.7738 0.0
C396 C 0.08012 0.83974 0.76811 0.0
C397 C 0.04931 0.85152 0.7613 0.0
C398 C 0.05458 0.85513 0.74294 0.0
C399 C 0.07286 0.85154 0.73741 0.0
C400 C 0.08554 0.84397 0.74989 0.0
C401 C 0.04076 0.86167 0.72927 0.0
C402 C 0.03781 0.85102 0.71327 0.0
C403 C 0.02986 0.87764 0.73238 0.0
C404 C 0.03304 0.89005 0.74846 0.0
C405 C 0.0507 0.89758 0.75182 0.0
C406 C 0.05361 0.90923 0.76701 0.0
C407 C 0.03895 0.91356 0.77887 0.0
C408 C 0.02132 0.90628 0.77554 0.0
C409 C 0.01834 0.8946 0.76038 0.0
H410 H 0.04123 0.92259 0.79061 0.0
H411 H 0.01355 0.81161 0.6414 0.0
H412 H 0.34761 0.76455 0.89455 0.0
H413 H 0.35951 0.78595 0.91785 0.0
H414 H 0.36874 0.74031 0.9553 0.0
H415 H 0.35661 0.71879 0.93216 0.0
H416 H 0.3498 0.76809 0.97173 0.0
H417 H 0.40484 0.76227 0.9347 0.0
H418 H 0.42325 0.76296 0.90595 0.0
H419 H 0.4099 0.82042 0.89839 0.0
H420 H 0.39119 0.82001 0.92698 0.0
H421 H 0.40594 0.81291 0.03896 0.0
H422 H 0.39097 0.79338 0.01585 0.0
H423 H 0.38446 0.84065 0.97985 0.0
H424 H 0.39976 0.86026 0.00279 0.0
H425 H 0.40091 0.81299 0.96224 0.0
H426 H 0.34684 0.81933 -0.0002 0.0
H427 H 0.32841 0.81882 0.02854 0.0
H428 H 0.33965 0.7608 0.03512 0.0
H429 H 0.35837 0.761 0.00655 0.0
C430 C 0.35245 0.759 0.90762 0.0
C431 C 0.3511 0.73997 0.91153 0.0
C432 C 0.35926 0.77126 0.92092 0.0
C433 C 0.365 0.7647 0.93829 0.0
C434 C 0.36429 0.74564 0.94199 0.0
C435 C 0.35746 0.73336 0.92871 0.0
C436 C 0.37084 0.7778 0.95293 0.0
C437 C 0.36114 0.77776 0.96978 0.0
C438 C 0.38521 0.79079 0.95009 0.0
C439 C 0.39645 0.79105 0.93288 0.0
C440 C 0.40569 0.77501 0.92683 0.0
C441 C 0.41621 0.77536 0.91057 0.0
C442 C 0.4177 0.7917 0.90032 0.0
C443 C 0.40871 0.80775 0.90633 0.0
C444 C 0.39816 0.80748 0.92256 0.0
C445 C 0.40096 0.81926 0.02631 0.0
C446 C 0.4042 0.83811 0.02263 0.0
C447 C 0.39235 0.80807 0.01312 0.0
C448 C 0.38661 0.81556 0.99612 0.0
C449 C 0.38886 0.83458 0.99286 0.0
C450 C 0.39754 0.84578 0.00601 0.0
C451 C 0.37994 0.80324 0.98114 0.0
C452 C 0.38949 0.80341 0.9642 0.0
C453 C 0.36541 0.7904 0.98389 0.0
C454 C 0.35415 0.79022 0.0011 0.0
C455 C 0.34551 0.80649 0.00745 0.0
C456 C 0.33498 0.80625 0.0237 0.0
C457 C 0.3329 0.7898 0.03367 0.0
C458 C 0.3413 0.77354 0.02739 0.0
C459 C 0.35185 0.7737 0.01116 0.0
H460 H 0.32474 0.78964 0.04625 0.0
H461 H 0.42585 0.79195 0.88774 0.0
H462 H 0.49463 0.10965 0.14561 0.0
H463 H 0.47292 0.12283 0.16787 0.0
H464 H 0.51594 0.12406 0.20933 0.0
H465 H 0.53775 0.11061 0.1872 0.0
H466 H 0.48502 0.10705 0.22184 0.0
H467 H 0.49946 0.1639 0.19055 0.0
H468 H 0.50329 0.18459 0.16365 0.0
H469 H 0.44575 0.17808 0.15003 0.0
H470 H 0.44162 0.15713 0.17671 0.0
H471 H 0.4376 0.1606 0.28948 0.0
H472 H 0.45849 0.1464 0.26709 0.0
H473 H 0.41517 0.14724 0.22591 0.0
H474 H 0.39423 0.1618 0.24815 0.0
H475 H 0.44589 0.16281 0.213 0.0
H476 H 0.43111 0.10636 0.24422 0.0
H477 H 0.42699 0.08545 0.27091 0.0
H478 H 0.48467 0.09083 0.28442 0.0
H479 H 0.48909 0.11198 0.25796 0.0
C480 C 0.4996 0.11305 0.15935 0.0
C481 C 0.51789 0.10897 0.16467 0.0
C482 C 0.48716 0.12062 0.17205 0.0
C483 C 0.49282 0.12439 0.19025 0.0
C484 C 0.5113 0.12116 0.19536 0.0
C485 C 0.52376 0.11358 0.18266 0.0
C486 C 0.47915 0.13045 0.20426 0.0
C487 C 0.47665 0.11941 0.22007 0.0
C488 C 0.46783 0.1462 0.20159 0.0
C489 C 0.47028 0.15879 0.18553 0.0
C490 C 0.48765 0.16675 0.18173 0.0
C491 C 0.48987 0.17855 0.16654 0.0
C492 C 0.47478 0.18261 0.15511 0.0
C493 C 0.45743 0.1749 0.15888 0.0
C494 C 0.45514 0.16308 0.17404 0.0
C495 C 0.43237 0.15742 0.27578 0.0
C496 C 0.4143 0.16248 0.27054 0.0
C497 C 0.44433 0.14924 0.263 0.0
C498 C 0.43839 0.14578 0.24482 0.0
C499 C 0.42005 0.14989 0.23985 0.0
C500 C 0.40808 0.15812 0.25261 0.0
C501 C 0.45176 0.13944 0.23063 0.0
C502 C 0.45422 0.15043 0.21477 0.0
C503 C 0.463 0.1236 0.23324 0.0
C504 C 0.46039 0.1109 0.24919 0.0
C505 C 0.44288 0.10321 0.25297 0.0
C506 C 0.4405 0.09129 0.26804 0.0
C507 C 0.45555 0.08685 0.27938 0.0
C508 C 0.47302 0.09429 0.27564 0.0
C509 C 0.47548 0.10623 0.26059 0.0
H510 H 0.45368 0.07761 0.29104 0.0
H511 H 0.47653 0.19175 0.14336 0.0
H512 H 0.64896 0.20038 0.53669 0.0
H513 H 0.63714 0.22585 0.51783 0.0
H514 H 0.62338 0.25633 0.56732 0.0
H515 H 0.63492 0.23087 0.58631 0.0
H516 H 0.59844 0.26285 0.53963 0.0
H517 H 0.66434 0.26308 0.54804 0.0
H518 H 0.69574 0.24965 0.54741 0.0
H519 H 0.69161 0.24209 0.48856 0.0
H520 H 0.66004 0.25524 0.48889 0.0
H521 H 0.60321 0.35416 0.50652 0.0
H522 H 0.61296 0.32662 0.52355 0.0
H523 H 0.62009 0.29708 0.47215 0.0
H524 H 0.61026 0.32455 0.45492 0.0
H525 H 0.64783 0.28963 0.4999 0.0
H526 H 0.58123 0.2923 0.49267 0.0
H527 H 0.5509 0.30785 0.49512 0.0
H528 H 0.55746 0.31187 0.55409 0.0
H529 H 0.58798 0.29672 0.55194 0.0
C530 C 0.64296 0.21227 0.54359 0.0
C531 C 0.64323 0.21376 0.563 0.0
C532 C 0.63628 0.22684 0.53278 0.0
C533 C 0.62984 0.24313 0.54121 0.0
C534 C 0.62844 0.24393 0.56056 0.0
C535 C 0.63508 0.22935 0.57139 0.0
C536 C 0.62656 0.26 0.53006 0.0
C537 C 0.60925 0.26876 0.53102 0.0
C538 C 0.6407 0.26768 0.51882 0.0
C539 C 0.65976 0.25995 0.51852 0.0
C540 C 0.67008 0.25843 0.53499 0.0
C541 C 0.68791 0.25088 0.53468 0.0
C542 C 0.69564 0.24496 0.51796 0.0
C543 C 0.68558 0.24664 0.50151 0.0
C544 C 0.66772 0.25416 0.50174 0.0
C545 C 0.60727 0.34197 0.49878 0.0
C546 C 0.60574 0.34145 0.47937 0.0
C547 C 0.61275 0.32623 0.50855 0.0
C548 C 0.61688 0.30979 0.49908 0.0
C549 C 0.61683 0.30965 0.47967 0.0
C550 C 0.61121 0.32535 0.46987 0.0
C551 C 0.61972 0.2924 0.50944 0.0
C552 C 0.63698 0.2836 0.50837 0.0
C553 C 0.60561 0.28486 0.52078 0.0
C554 C 0.58699 0.29352 0.52212 0.0
C555 C 0.57626 0.29661 0.50614 0.0
C556 C 0.55902 0.30536 0.50748 0.0
C557 C 0.55226 0.3109 0.52474 0.0
C558 C 0.5627 0.30762 0.54071 0.0
C559 C 0.57997 0.29894 0.53945 0.0
H560 H 0.53893 0.31769 0.52574 0.0
H561 H 0.70945 0.23912 0.51775 0.0
H562 H 0.88984 0.35261 0.74342 0.0
H563 H 0.91083 0.36705 0.76559 0.0
H564 H 0.95436 0.3671 0.72465 0.0
H565 H 0.93351 0.35235 0.70241 0.0
H566 H 0.96581 0.35172 0.75627 0.0
H567 H 0.93467 0.40756 0.73931 0.0
H568 H 0.90796 0.42801 0.73338 0.0
H569 H 0.89086 0.42263 0.79008 0.0
H570 H 0.91732 0.40192 0.79629 0.0
H571 H 0.02866 0.40475 0.81148 0.0
H572 H 0.00849 0.39223 0.78738 0.0
H573 H 0.96323 0.38978 0.82632 0.0
H574 H 0.98324 0.40248 0.85047 0.0
H575 H 0.95343 0.40729 0.7947 0.0
H576 H 0.98397 0.35053 0.81123 0.0
H577 H 0.0107 0.3301 0.8171 0.0
H578 H 0.02902 0.33742 0.761 0.0
H579 H 0.00251 0.35811 0.75486 0.0
C580 C 0.90376 0.35602 0.73898 0.0
C581 C 0.91005 0.3512 0.72119 0.0
C582 C 0.91574 0.36433 0.75167 0.0
C583 C 0.93416 0.36815 0.74676 0.0
C584 C 0.94021 0.3642 0.72872 0.0
C585 C 0.92824 0.35586 0.71601 0.0
C586 C 0.94744 0.37479 0.76092 0.0
C587 C 0.96328 0.36407 0.76445 0.0
C588 C 0.94386 0.39061 0.77191 0.0
C589 C 0.9279 0.40305 0.76822 0.0
C590 C 0.92513 0.4106 0.75048 0.0
C591 C 0.91005 0.42227 0.74707 0.0
C592 C 0.8977 0.42658 0.76133 0.0
C593 C 0.90042 0.41926 0.77904 0.0
C594 C 0.91547 0.40758 0.78252 0.0
C595 C 0.01451 0.40125 0.81502 0.0
C596 C 0.00752 0.40469 0.83287 0.0
C597 C 0.003 0.39408 0.80122 0.0
C598 C 0.98437 0.39011 0.80507 0.0
C599 C 0.97756 0.39285 0.82306 0.0
C600 C 0.98905 0.40001 0.83687 0.0
C601 C 0.97169 0.38414 0.7901 0.0
C602 C 0.95598 0.39499 0.78644 0.0
C603 C 0.9754 0.36846 0.77898 0.0
C604 C 0.99136 0.35603 0.78264 0.0
C605 C 0.99378 0.34792 0.80019 0.0
C606 C 0.00888 0.33626 0.80356 0.0
C607 C 0.02158 0.33251 0.78945 0.0
C608 C 0.01918 0.34036 0.77193 0.0
C609 C 0.00412 0.35204 0.76849 0.0
H610 H 0.03325 0.32347 0.79208 0.0
H611 H 0.88604 0.43562 0.75867 0.0
H612 H 0.84921 0.79336 0.06852 0.0
H613 H 0.85916 0.77055 0.04568 0.0
H614 H 0.86122 0.7286 0.08815 0.0
H615 H 0.85122 0.75133 0.11119 0.0
H616 H 0.88988 0.72561 0.06137 0.0
H617 H 0.82373 0.73082 0.06479 0.0
H618 H 0.79411 0.74782 0.06538 0.0
H619 H 0.80453 0.76847 0.01059 0.0
H620 H 0.8344 0.7518 0.0098 0.0
H621 H 0.88307 0.64756 0.00448 0.0
H622 H 0.87197 0.6699 0.02728 0.0
H623 H 0.8735 0.71309 0.98608 0.0
H624 H 0.88477 0.69087 0.9631 0.0
H625 H 0.84258 0.71495 0.01249 0.0
H626 H 0.90939 0.7096 0.00982 0.0
H627 H 0.93848 0.69169 0.0096 0.0
H628 H 0.9261 0.67037 0.06371 0.0
H629 H 0.89675 0.68791 0.06411 0.0
C630 C 0.8522 0.77941 0.07313 0.0
C631 C 0.84912 0.77407 0.09162 0.0
C632 C 0.85782 0.76639 0.06004 0.0
C633 C 0.86052 0.74787 0.06522 0.0
C634 C 0.85907 0.74283 0.08391 0.0
C635 C 0.85335 0.75585 0.09704 0.0
C636 C 0.8631 0.73353 0.05088 0.0
C637 C 0.87948 0.72313 0.05081 0.0
C638 C 0.84951 0.73046 0.03706 0.0
C639 C 0.83139 0.74021 0.03731 0.0
C640 C 0.81977 0.73909 0.05292 0.0
C641 C 0.80293 0.74865 0.05328 0.0
C642 C 0.79747 0.75926 0.03805 0.0
C643 C 0.8088 0.76026 0.02239 0.0
C644 C 0.82568 0.75075 0.02197 0.0
C645 C 0.88059 0.66169 9e-05 0.0
C646 C 0.8851 0.66753 0.98207 0.0
C647 C 0.87428 0.67442 0.01316 0.0
C648 C 0.87224 0.69312 0.00836 0.0
C649 C 0.87507 0.69869 0.98999 0.0
C650 C 0.88156 0.68599 0.97692 0.0
C651 C 0.86939 0.70713 0.02295 0.0
C652 C 0.85296 0.71745 0.02307 0.0
C653 C 0.88288 0.71005 0.03689 0.0
C654 C 0.90078 0.69992 0.03692 0.0
C655 C 0.91281 0.701 0.02162 0.0
C656 C 0.92935 0.69092 0.02146 0.0
C657 C 0.93411 0.67985 0.0366 0.0
C658 C 0.92238 0.67892 0.05198 0.0
C659 C 0.90579 0.68894 0.05218 0.0
H660 H 0.94691 0.67203 0.03644 0.0
H661 H 0.78444 0.76667 0.03837 0.0
H662 H 0.60704 0.64435 0.25427 0.0
H663 H 0.58375 0.63334 0.27616 0.0
H664 H 0.54292 0.63238 0.23254 0.0
H665 H 0.5661 0.64357 0.21053 0.0
H666 H 0.53061 0.65087 0.26291 0.0
H667 H 0.5595 0.59249 0.25015 0.0
H668 H 0.58541 0.57046 0.24704 0.0
H669 H 0.59878 0.57754 0.30455 0.0
H670 H 0.57311 0.59983 0.30795 0.0
H671 H 0.46049 0.60076 0.31133 0.0
H672 H 0.48332 0.61395 0.2902 0.0
H673 H 0.52437 0.61287 0.33363 0.0
H674 H 0.50171 0.59938 0.35479 0.0
H675 H 0.53665 0.59575 0.30344 0.0
H676 H 0.50762 0.65386 0.31644 0.0
H677 H 0.48171 0.67588 0.31967 0.0
H678 H 0.46859 0.66942 0.26203 0.0
H679 H 0.49427 0.64716 0.2585 0.0
C680 C 0.59319 0.6415 0.24923 0.0
C681 C 0.5884 0.64491 0.23067 0.0
C682 C 0.5799 0.63519 0.26178 0.0
C683 C 0.56161 0.63206 0.25597 0.0
C684 C 0.55695 0.63479 0.2373 0.0
C685 C 0.57025 0.64106 0.22473 0.0
C686 C 0.54716 0.62695 0.26959 0.0
C687 C 0.53176 0.63867 0.2716 0.0
C688 C 0.549 0.61135 0.28127 0.0
C689 C 0.56449 0.59798 0.27925 0.0
C690 C 0.56807 0.58948 0.26209 0.0
C691 C 0.5827 0.57692 0.26029 0.0
C692 C 0.59377 0.57264 0.27558 0.0
C693 C 0.59021 0.58089 0.29272 0.0
C694 C 0.57562 0.59348 0.29459 0.0
C695 C 0.47424 0.60374 0.31654 0.0
C696 C 0.47933 0.59884 0.3347 0.0
C697 C 0.48729 0.61132 0.30443 0.0
C698 C 0.50557 0.61433 0.31033 0.0
C699 C 0.51036 0.61054 0.32878 0.0
C700 C 0.49735 0.60291 0.34087 0.0
C701 C 0.52008 0.61969 0.29683 0.0
C702 C 0.53549 0.608 0.29481 0.0
C703 C 0.51825 0.63533 0.28517 0.0
C704 C 0.50278 0.6487 0.28725 0.0
C705 C 0.49912 0.65701 0.30448 0.0
C706 C 0.48449 0.66956 0.30636 0.0
C707 C 0.47348 0.67401 0.29108 0.0
C708 C 0.47711 0.66595 0.27386 0.0
C709 C 0.49172 0.65338 0.27191 0.0
H710 H 0.46217 0.68373 0.29256 0.0
H711 H 0.60508 0.5629 0.27415 0.0
H712 H 0.24576 0.4387 0.18728 0.0
H713 H 0.22604 0.46053 0.17063 0.0
H714 H 0.26124 0.45607 0.12261 0.0
H715 H 0.281 0.43371 0.13912 0.0
H716 H 0.2496 0.49501 0.13722 0.0
H717 H 0.22629 0.43543 0.11678 0.0
H718 H 0.21492 0.40364 0.12192 0.0
H719 H 0.17022 0.42464 0.15504 0.0
H720 H 0.18149 0.45656 0.15032 0.0
H721 H 0.19152 0.5395 0.07212 0.0
H722 H 0.21302 0.52044 0.08966 0.0
H723 H 0.16931 0.50608 0.12787 0.0
H724 H 0.1474 0.52454 0.10972 0.0
H725 H 0.18609 0.47653 0.11849 0.0
H726 H 0.2074 0.53535 0.13955 0.0
H727 H 0.21836 0.5676 0.13708 0.0
H728 H 0.26594 0.54944 0.10638 0.0
H729 H 0.25515 0.51709 0.10845 0.0
C730 C 0.24937 0.44236 0.17318 0.0
C731 C 0.26491 0.4345 0.16446 0.0
C732 C 0.23808 0.4548 0.16372 0.0
C733 C 0.24225 0.45982 0.14547 0.0
C734 C 0.25789 0.4523 0.13674 0.0
C735 C 0.26907 0.43951 0.14611 0.0
C736 C 0.2299 0.47274 0.13559 0.0
C737 C 0.23581 0.491 0.13279 0.0
C738 C 0.21172 0.46753 0.13062 0.0
C739 C 0.20485 0.44836 0.13335 0.0
C740 C 0.21414 0.43326 0.1253 0.0
C741 C 0.20769 0.41521 0.12811 0.0
C742 C 0.19189 0.41211 0.13884 0.0
C743 C 0.18247 0.42706 0.14675 0.0
C744 C 0.18887 0.44513 0.144 0.0
C745 C 0.18652 0.53256 0.08445 0.0
C746 C 0.16774 0.53351 0.08955 0.0
C747 C 0.19889 0.5217 0.09454 0.0
C748 C 0.19288 0.51194 0.11024 0.0
C749 C 0.17427 0.51345 0.11578 0.0
C750 C 0.16178 0.52406 0.10547 0.0
C751 C 0.20567 0.49908 0.11996 0.0
C752 C 0.19985 0.48074 0.12281 0.0
C753 C 0.22383 0.50436 0.12529 0.0
C754 C 0.23037 0.52381 0.12401 0.0
C755 C 0.22013 0.53825 0.13215 0.0
C756 C 0.22632 0.55655 0.13084 0.0
C757 C 0.24281 0.56058 0.12154 0.0
C758 C 0.25316 0.5463 0.11356 0.0
C759 C 0.24703 0.52798 0.11482 0.0
H760 H 0.24758 0.57475 0.12055 0.0
H761 H 0.18691 0.39814 0.141 0.0
H762 H 0.71279 0.95974 0.93049 0.0
H763 H 0.73214 0.98328 0.9158 0.0
H764 H 0.68663 0.99848 0.88011 0.0
H765 H 0.66742 0.97445 0.8943 0.0
H766 H 0.71771 0.00091 0.86167 0.0
H767 H 0.69628 0.02243 0.92068 0.0
H768 H 0.69131 0.02116 0.95445 0.0
H769 H 0.75012 0.02023 0.96338 0.0
H770 H 0.75544 0.02124 0.92963 0.0
H771 H 0.74142 0.09444 0.8439 0.0
H772 H 0.72589 0.06816 0.85851 0.0
H773 H 0.77856 0.04707 0.87715 0.0
H774 H 0.79437 0.07317 0.86218 0.0
H775 H 0.74561 0.04723 0.90418 0.0
H776 H 0.7658 0.02693 0.84347 0.0
H777 H 0.76884 0.03031 0.80962 0.0
H778 H 0.70961 0.03135 0.8041 0.0
H779 H 0.70623 0.02825 0.83798 0.0
C780 C 0.70701 0.96791 0.9193 0.0
C781 C 0.68855 0.96542 0.91366 0.0
C782 C 0.71804 0.98141 0.91099 0.0
C783 C 0.71067 0.99297 0.8972 0.0
C784 C 0.69257 0.98979 0.89081 0.0
C785 C 0.68161 0.97606 0.89892 0.0
C786 C 0.72144 0.00898 0.89018 0.0
C787 C 0.72369 0.01107 0.87099 0.0
C788 C 0.7294 0.02222 0.90233 0.0
C789 C 0.72625 0.02171 0.92263 0.0
C790 C 0.70815 0.02182 0.92984 0.0
C791 C 0.70527 0.02117 0.94898 0.0
C792 C 0.72039 0.02056 0.96105 0.0
C793 C 0.73842 0.02067 0.95401 0.0
C794 C 0.74138 0.02129 0.93488 0.0
C795 C 0.74971 0.0844 0.85137 0.0
C796 C 0.76913 0.08581 0.85184 0.0
C797 C 0.74081 0.06938 0.85962 0.0
C798 C 0.75115 0.05571 0.86871 0.0
C799 C 0.77043 0.05755 0.87013 0.0
C800 C 0.7794 0.07242 0.86158 0.0
C801 C 0.7418 0.03901 0.87581 0.0
C802 C 0.73977 0.03689 0.89497 0.0
C803 C 0.73378 0.02594 0.86365 0.0
C804 C 0.73577 0.02755 0.84327 0.0
C805 C 0.75343 0.02804 0.83505 0.0
C806 C 0.75521 0.02988 0.81586 0.0
C807 C 0.73943 0.0311 0.80472 0.0
C808 C 0.72183 0.03042 0.81275 0.0
C809 C 0.71997 0.02861 0.83194 0.0
H810 H 0.74083 0.03252 0.78986 0.0
H811 H 0.71813 0.02006 0.97586 0.0
H812 H 0.74621 0.89775 0.3551 0.0
H813 H 0.76792 0.92 0.36843 0.0
H814 H 0.72655 0.96294 0.36435 0.0
H815 H 0.70466 0.94074 0.35131 0.0
H816 H 0.781 0.9494 0.35035 0.0
H817 H 0.73533 0.99654 0.39646 0.0
H818 H 0.70812 0.99409 0.41699 0.0
H819 H 0.72074 0.93691 0.4274 0.0
H820 H 0.74814 0.93908 0.40714 0.0
H821 H 0.80826 0.04333 0.39831 0.0
H822 H 0.78565 0.02166 0.38542 0.0
H823 H 0.82555 0.97738 0.3897 0.0
H824 H 0.84828 0.99894 0.40233 0.0
H825 H 0.77146 0.99217 0.40324 0.0
H826 H 0.81682 0.94483 0.35674 0.0
H827 H 0.84399 0.94722 0.33617 0.0
H828 H 0.83205 0.00468 0.32655 0.0
H829 H 0.80466 0.00258 0.34684 0.0
C830 C 0.74158 0.91183 0.35744 0.0
C831 C 0.72376 0.91752 0.35201 0.0
C832 C 0.75403 0.92454 0.36497 0.0
C833 C 0.74889 0.94313 0.3673 0.0
C834 C 0.73077 0.94862 0.36285 0.0
C835 C 0.71827 0.9359 0.35537 0.0
C836 C 0.76291 0.95703 0.37284 0.0
C837 C 0.77906 0.95857 0.3621 0.0
C838 C 0.76005 0.96938 0.38777 0.0
C839 C 0.74368 0.96794 0.40011 0.0
C840 C 0.73233 0.98346 0.40318 0.0
C841 C 0.71687 0.98212 0.41476 0.0
C842 C 0.71267 0.96534 0.42344 0.0
C843 C 0.72396 0.94988 0.4206 0.0
C844 C 0.73944 0.95115 0.40904 0.0
C845 C 0.81235 0.02906 0.39615 0.0
C846 C 0.83004 0.02283 0.40143 0.0
C847 C 0.79938 0.01669 0.38888 0.0
C848 C 0.80392 0.99793 0.38663 0.0
C849 C 0.82182 0.99184 0.39113 0.0
C850 C 0.83479 0.00419 0.39839 0.0
C851 C 0.7896 0.98444 0.38082 0.0
C852 C 0.77339 0.98301 0.39148 0.0
C853 C 0.7924 0.97217 0.36582 0.0
C854 C 0.80879 0.97358 0.35348 0.0
C855 C 0.81996 0.95796 0.35019 0.0
C856 C 0.8354 0.95927 0.33858 0.0
C857 C 0.83978 0.97611 0.33011 0.0
C858 C 0.82869 0.99167 0.33319 0.0
C859 C 0.81322 0.99043 0.34477 0.0
H860 H 0.85175 0.97709 0.32114 0.0
H861 H 0.70069 0.96433 0.4324 0.0
H862 H 0.25552 0.59898 0.65309 0.0
H863 H 0.27799 0.57703 0.6405 0.0
H864 H 0.23603 0.53452 0.63934 0.0
H865 H 0.21344 0.55635 0.65196 0.0
H866 H 0.26796 0.52342 0.65711 0.0
H867 H 0.25096 0.5525 0.59977 0.0
H868 H 0.24567 0.5787 0.57851 0.0
H869 H 0.30285 0.59442 0.58317 0.0
H870 H 0.30843 0.56845 0.60468 0.0
H871 H 0.31572 0.45543 0.60423 0.0
H872 H 0.29442 0.47778 0.61796 0.0
H873 H 0.33665 0.51997 0.61518 0.0
H874 H 0.35799 0.49777 0.60118 0.0
H875 H 0.30508 0.5317 0.5999 0.0
H876 H 0.32252 0.50264 0.65669 0.0
H877 H 0.32812 0.47675 0.67824 0.0
H878 H 0.27074 0.46137 0.67517 0.0
H879 H 0.26483 0.48703 0.65339 0.0
C880 C 0.25098 0.58505 0.64987 0.0
C881 C 0.23272 0.57938 0.6536 0.0
C882 C 0.26384 0.57254 0.64267 0.0
C883 C 0.25865 0.55417 0.63905 0.0
C884 C 0.24029 0.54864 0.64212 0.0
C885 C 0.22739 0.56117 0.64923 0.0
C886 C 0.27264 0.54046 0.63307 0.0
C887 C 0.27591 0.52505 0.64446 0.0
C888 C 0.28338 0.543 0.61691 0.0
C889 C 0.28006 0.55864 0.60399 0.0
C890 C 0.26237 0.56164 0.5964 0.0
C891 C 0.25933 0.57643 0.58427 0.0
C892 C 0.2739 0.58825 0.57953 0.0
C893 C 0.29157 0.58527 0.58688 0.0
C894 C 0.29468 0.57051 0.59902 0.0
C895 C 0.32062 0.46936 0.60687 0.0
C896 C 0.33851 0.47486 0.60149 0.0
C897 C 0.30842 0.48212 0.61476 0.0
C898 C 0.31396 0.50054 0.61757 0.0
C899 C 0.33209 0.50584 0.61303 0.0
C900 C 0.34429 0.4931 0.60512 0.0
C901 C 0.30039 0.51456 0.6239 0.0
C902 C 0.29719 0.53005 0.61258 0.0
C903 C 0.28977 0.51214 0.64018 0.0
C904 C 0.29327 0.49666 0.65326 0.0
C905 C 0.31112 0.49364 0.66047 0.0
C906 C 0.31434 0.47902 0.67276 0.0
C907 C 0.2998 0.46739 0.67803 0.0
C908 C 0.28199 0.47038 0.67106 0.0
C909 C 0.2787 0.48497 0.65876 0.0
H910 H 0.30233 0.45609 0.68755 0.0
H911 H 0.27152 0.59969 0.57014 0.0
H912 H 0.34107 0.40264 0.49776 0.0
H913 H 0.31638 0.39005 0.4784 0.0
H914 H 0.27854 0.39269 0.52455 0.0
H915 H 0.30325 0.4052 0.54414 0.0
H916 H 0.27581 0.35992 0.50532 0.0
H917 H 0.27634 0.42495 0.49135 0.0
H918 H 0.29046 0.45471 0.48225 0.0
H919 H 0.30683 0.43135 0.43008 0.0
H920 H 0.29307 0.40137 0.43897 0.0
H921 H 0.1977 0.34043 0.44858 0.0
H922 H 0.21834 0.35639 0.47025 0.0
H923 H 0.26005 0.36044 0.42764 0.0
H924 H 0.23943 0.34496 0.40586 0.0
H925 H 0.2586 0.39158 0.44678 0.0
H926 H 0.26152 0.32648 0.46108 0.0
H927 H 0.24862 0.29597 0.46944 0.0
H928 H 0.22722 0.31857 0.52012 0.0
H929 H 0.23979 0.34929 0.51193 0.0
C930 C 0.32753 0.40049 0.50385 0.0
C931 C 0.32411 0.405 0.52248 0.0
C932 C 0.31341 0.39338 0.49273 0.0
C933 C 0.29557 0.39072 0.49998 0.0
C934 C 0.2922 0.39474 0.51868 0.0
C935 C 0.30633 0.4019 0.52984 0.0
C936 C 0.28049 0.38372 0.48795 0.0
C937 C 0.27179 0.367 0.49268 0.0
C938 C 0.27556 0.39279 0.47129 0.0
C939 C 0.28378 0.41086 0.46589 0.0
C940 C 0.28307 0.42612 0.47799 0.0
C941 C 0.29099 0.44303 0.47286 0.0
C942 C 0.29955 0.4449 0.45561 0.0
C943 C 0.3002 0.42987 0.44344 0.0
C944 C 0.29232 0.41293 0.44851 0.0
C945 C 0.2112 0.34488 0.44379 0.0
C946 C 0.21696 0.34133 0.42554 0.0
C947 C 0.22301 0.35393 0.45621 0.0
C948 C 0.24084 0.35936 0.45063 0.0
C949 C 0.24636 0.35636 0.43225 0.0
C950 C 0.23455 0.34745 0.41983 0.0
C951 C 0.25409 0.36763 0.46399 0.0
C952 C 0.26245 0.3846 0.45952 0.0
C953 C 0.25885 0.3587 0.48079 0.0
C954 C 0.2514 0.34022 0.4858 0.0
C955 C 0.25394 0.32497 0.47394 0.0
C956 C 0.24671 0.30764 0.47866 0.0
C957 C 0.23706 0.30535 0.49528 0.0
C958 C 0.23467 0.32037 0.50724 0.0
C959 C 0.24185 0.33775 0.50257 0.0
H960 H 0.23147 0.29192 0.49891 0.0
H961 H 0.30565 0.458 0.45163 0.0
H962 H 0.89525 0.99858 0.66136 0.0
H963 H 0.88103 0.01747 0.68554 0.0
H964 H 0.90036 0.97912 0.7271 0.0
H965 H 0.91436 0.95994 0.70295 0.0
H966 H 0.86534 0.98978 0.73396 0.0
H967 H 0.92283 0.0199 0.71972 0.0
H968 H 0.94632 0.03403 0.69933 0.0
H969 H 0.90701 0.07522 0.6821 0.0
H970 H 0.88321 0.06117 0.7022 0.0
H971 H 0.84868 0.05001 0.81024 0.0
H972 H 0.8641 0.03006 0.78759 0.0
H973 H 0.84669 0.0665 0.74353 0.0
H974 H 0.83158 0.08665 0.76604 0.0
H975 H 0.88187 0.05631 0.73894 0.0
H976 H 0.82413 0.02562 0.75238 0.0
H977 H 0.80056 0.01148 0.77266 0.0
H978 H 0.84029 0.97137 0.79137 0.0
H979 H 0.86419 0.98545 0.77139 0.0
C980 C 0.89643 0.99412 0.67563 0.0
C981 C 0.90603 0.97782 0.68024 0.0
C982 C 0.88835 0.00497 0.68944 0.0
C983 C 0.88989 -0.00015 0.70814 0.0
C984 C 0.89906 0.98335 0.71276 0.0
C985 C 0.90708 0.97243 0.69894 0.0
C986 C 0.8821 0.01184 0.72288 0.0
C987 C 0.86915 0.00426 0.73523 0.0
C988 C 0.88685 0.03081 0.72432 0.0
C989 C 0.90119 0.03939 0.71235 0.0
C990 C 0.91916 0.0319 0.71149 0.0
C991 C 0.93253 0.0399 0.7 0.0
C992 C 0.92815 0.05549 0.6894 0.0
C993 C 0.91039 0.06314 0.69031 0.0
C994 C 0.89695 0.05517 0.70176 0.0
C995 C 0.84819 0.0538 0.79574 0.0
C996 C 0.83885 0.06988 0.78994 0.0
C997 C 0.85694 0.04235 0.78281 0.0
C998 C 0.85634 0.04668 0.76385 0.0
C999 C 0.84732 0.06289 0.75809 0.0
C1000 C 0.83865 0.07437 0.77099 0.0
C1001 C 0.86497 0.0343 0.74992 0.0
C1002 C 0.87811 0.04181 0.73772 0.0
C1003 C 0.86038 0.01528 0.74863 0.0
C1004 C 0.84599 0.00671 0.76053 0.0
C1005 C 0.82788 0.01387 0.76092 0.0
C1006 C 0.81445 0.00585 0.77235 0.0
C1007 C 0.81894 0.99057 0.78333 0.0
C1008 C 0.83685 0.98323 0.78287 0.0
C1009 C 0.85033 0.99121 0.77149 0.0
H1010 H 0.80853 0.98438 0.79217 0.0
H1011 H 0.93852 0.06167 0.68051 0.0
H1012 H 0.2791 0.63378 0.88719 0.0
H1013 H 0.2572 0.61526 0.90519 0.0
H1014 H 0.26834 0.64877 0.95339 0.0
H1015 H 0.29024 0.66738 0.9355 0.0
H1016 H 0.26485 0.61155 0.9618 0.0
H1017 H 0.23153 0.65841 0.92697 0.0
H1018 H 0.22314 0.67464 0.89809 0.0
H1019 H 0.20227 0.62385 0.87525 0.0
H1020 H 0.21075 0.60727 0.90394 0.0
H1021 H 0.18607 0.59784 0.01704 0.0
H1022 H 0.21023 0.61146 0.99774 0.0
H1023 H 0.19153 0.57903 0.95115 0.0
H1024 H 0.16698 0.56564 0.97029 0.0
H1025 H 0.19948 0.61321 0.94049 0.0
H1026 H 0.23023 0.56655 0.97573 0.0
H1027 H 0.23941 0.54953 0.00388 0.0
H1028 H 0.26584 0.59836 0.02518 0.0
H1029 H 0.25658 0.61576 0.99726 0.0
C1030 C 0.27698 0.63713 0.90165 0.0
C1031 C 0.28612 0.65224 0.90984 0.0
C1032 C 0.2645 0.62652 0.91191 0.0
C1033 C 0.26095 0.63087 0.93052 0.0
C1034 C 0.27086 0.64525 0.93902 0.0
C1035 C 0.28333 0.65588 0.92876 0.0
C1036 C 0.24606 0.62129 0.94081 0.0
C1037 C 0.25053 0.612 0.95726 0.0
C1038 C 0.22748 0.62152 0.93455 0.0
C1039 C 0.22189 0.63158 0.91753 0.0
C1040 C 0.22521 0.6507 0.91576 0.0
C1041 C 0.22043 0.65996 0.89944 0.0
C1042 C 0.21219 0.65028 0.88484 0.0
C1043 C 0.20865 0.63133 0.88657 0.0
C1044 C 0.21341 0.622 0.90287 0.0
C1045 C 0.18703 0.59365 0.00267 0.0
C1046 C 0.17468 0.58058 0.99522 0.0
C1047 C 0.20092 0.60137 0.99168 0.0
C1048 C 0.20291 0.59598 0.97311 0.0
C1049 C 0.1903 0.58331 0.96548 0.0
C1050 C 0.17628 0.57567 0.97644 0.0
C1051 C 0.21819 0.60361 0.9617 0.0
C1052 C 0.2138 0.61257 0.94502 0.0
C1053 C 0.23687 0.60295 0.96769 0.0
C1054 C 0.24257 0.5925 0.98446 0.0
C1055 C 0.23788 0.5737 0.98647 0.0
C1056 C 0.24312 0.56397 0.00238 0.0
C1057 C 0.25316 0.57287 0.01633 0.0
C1058 C 0.25804 0.59149 0.01437 0.0
C1059 C 0.25282 0.60129 0.9985 0.0
H1060 H 0.2572 0.56532 0.02863 0.0
H1061 H 0.20857 0.65746 0.87219 0.0
H1062 H 0.58607 0.00395 0.15327 0.0
H1063 H 0.60023 0.98276 0.17546 0.0
H1064 H 0.60668 0.02759 0.21442 0.0
H1065 H 0.59282 0.04904 0.1921 0.0
H1066 H 0.63726 0.0053 0.21331 0.0
H1067 H 0.57163 0.99806 0.21864 0.0
H1068 H 0.53985 0.99252 0.20742 0.0
H1069 H 0.55551 0.93816 0.18909 0.0
H1070 H 0.5875 0.94358 0.19966 0.0
H1071 H 0.65486 0.94754 0.29084 0.0
H1072 H 0.63988 0.9701 0.27051 0.0
H1073 H 0.63226 0.92782 0.22899 0.0
H1074 H 0.64706 0.90513 0.24928 0.0
H1075 H 0.60165 0.94977 0.23269 0.0
H1076 H 0.66748 0.95774 0.22539 0.0
H1077 H 0.69939 0.9631 0.23636 0.0
H1078 H 0.6832 0.01581 0.25864 0.0
H1079 H 0.6511 0.01063 0.24805 0.0
C1080 C 0.59074 0.00939 0.16644 0.0
C1081 C 0.58834 0.02818 0.17092 0.0
C1082 C 0.5987 0.99722 0.17916 0.0
C1083 C 0.60426 0.00357 0.19667 0.0
C1084 C 0.60242 0.02243 0.20099 0.0
C1085 C 0.59445 0.03463 0.18825 0.0
C1086 C 0.61155 0.9904 0.21059 0.0
C1087 C 0.62938 0.9933 0.21776 0.0
C1088 C 0.60134 0.9746 0.21614 0.0
C1089 C 0.58204 0.9713 0.20979 0.0
C1090 C 0.56835 0.985 0.21203 0.0
C1091 C 0.55029 0.98188 0.20577 0.0
C1092 C 0.54567 0.96503 0.19748 0.0
C1093 C 0.5591 0.95125 0.19544 0.0
C1094 C 0.57722 0.95434 0.20154 0.0
C1095 C 0.64985 0.94299 0.27746 0.0
C1096 C 0.65226 0.92457 0.27162 0.0
C1097 C 0.64136 0.95592 0.26583 0.0
C1098 C 0.6352 0.95067 0.24816 0.0
C1099 C 0.63697 0.93215 0.24257 0.0
C1100 C 0.64548 0.91922 0.25416 0.0
C1101 C 0.62741 0.96457 0.23525 0.0
C1102 C 0.60949 0.96181 0.22829 0.0
C1103 C 0.63752 0.98049 0.22989 0.0
C1104 C 0.65685 0.98371 0.2361 0.0
C1105 C 0.67069 0.97041 0.23276 0.0
C1106 C 0.68882 0.97342 0.23889 0.0
C1107 C 0.69331 0.98976 0.24824 0.0
C1108 C 0.67969 0.00315 0.25142 0.0
C1109 C 0.66153 0.00018 0.24536 0.0
H1110 H 0.70735 0.99207 0.25297 0.0
H1111 H 0.53166 0.96263 0.1927 0.0
H1112 H 0.75038 0.17468 0.59334 0.0
H1113 H 0.77152 0.16021 0.57125 0.0
H1114 H 0.72507 0.14322 0.53771 0.0
H1115 H 0.70376 0.15761 0.5598 0.0
H1116 H 0.75089 0.11552 0.54192 0.0
H1117 H 0.74974 0.17981 0.52561 0.0
H1118 H 0.75242 0.2134 0.53107 0.0
H1119 H 0.80955 0.20668 0.54622 0.0
H1120 H 0.80708 0.17298 0.54135 0.0
H1121 H 0.80121 0.09255 0.46108 0.0
H1122 H 0.7797 0.10807 0.48211 0.0
H1123 H 0.82547 0.12536 0.51641 0.0
H1124 H 0.84713 0.10997 0.4954 0.0
H1125 H 0.7997 0.1531 0.51137 0.0
H1126 H 0.80067 0.08905 0.52916 0.0
H1127 H 0.79837 0.05539 0.52388 0.0
H1128 H 0.742 0.06176 0.50594 0.0
H1129 H 0.74407 0.09553 0.51085 0.0
C1130 C 0.74463 0.16776 0.58134 0.0
C1131 C 0.72539 0.16731 0.5783 0.0
C1132 C 0.75674 0.15958 0.56869 0.0
C1133 C 0.74985 0.15083 0.55277 0.0
C1134 C 0.73064 0.14995 0.54991 0.0
C1135 C 0.71851 0.15821 0.56252 0.0
C1136 C 0.76271 0.14276 0.53899 0.0
C1137 C 0.7614 0.12378 0.53504 0.0
C1138 C 0.77666 0.15351 0.53035 0.0
C1139 C 0.77817 0.17381 0.5333 0.0
C1140 C 0.76283 0.18546 0.53031 0.0
C1141 C 0.76431 0.20453 0.53329 0.0
C1142 C 0.78113 0.21217 0.53904 0.0
C1143 C 0.79651 0.20075 0.5418 0.0
C1144 C 0.79507 0.18165 0.53897 0.0
C1145 C 0.80673 0.09978 0.47301 0.0
C1146 C 0.82587 0.09994 0.47664 0.0
C1147 C 0.79441 0.10858 0.48504 0.0
C1148 C 0.801 0.11766 0.50091 0.0
C1149 C 0.82013 0.11839 0.50424 0.0
C1150 C 0.83246 0.10954 0.49225 0.0
C1151 C 0.78788 0.12589 0.51435 0.0
C1152 C 0.78916 0.14487 0.51823 0.0
C1153 C 0.77393 0.11516 0.52298 0.0
C1154 C 0.77259 0.09484 0.52019 0.0
C1155 C 0.78783 0.08329 0.52395 0.0
C1156 C 0.78656 0.06419 0.52105 0.0
C1157 C 0.77006 0.05645 0.51453 0.0
C1158 C 0.75478 0.06779 0.51096 0.0
C1159 C 0.75599 0.0869 0.51382 0.0
H1160 H 0.7691 0.04166 0.51228 0.0
H1161 H 0.78226 0.22694 0.54131 0.0
H1162 H 0.16255 0.5479 0.70864 0.0
H1163 H 0.14759 0.52438 0.72779 0.0
H1164 H 0.13101 0.56649 0.7668 0.0
H1165 H 0.14623 0.5901 0.74788 0.0
H1166 H 0.14532 0.53703 0.78424 0.0
H1167 H 0.09989 0.5473 0.73661 0.0
H1168 H 0.08843 0.54962 0.70452 0.0
H1169 H 0.1032 0.49283 0.69483 0.0
H1170 H 0.11498 0.49025 0.72681 0.0
H1171 H 0.07755 0.48766 0.83474 0.0
H1172 H 0.09481 0.50932 0.81546 0.0
H1173 H 0.10951 0.46487 0.77834 0.0
H1174 H 0.0919 0.44306 0.79743 0.0
H1175 H 0.09736 0.4944 0.75961 0.0
H1176 H 0.14167 0.48382 0.80782 0.0
H1177 H 0.15296 0.48164 0.83997 0.0
H1178 H 0.14011 0.53904 0.84871 0.0
H1179 H 0.12855 0.54152 0.81665 0.0
C1180 C 0.15563 0.5522 0.72124 0.0
C1181 C 0.15554 0.57089 0.72672 0.0
C1182 C 0.14705 0.53873 0.73214 0.0
C1183 C 0.13805 0.54371 0.74864 0.0
C1184 C 0.13789 0.56236 0.75412 0.0
C1185 C 0.14653 0.57583 0.74325 0.0
C1186 C 0.1291 0.52944 0.76037 0.0
C1187 C 0.13467 0.52785 0.77892 0.0
C1188 C 0.11559 0.51713 0.75327 0.0
C1189 C 0.10849 0.51864 0.73405 0.0
C1190 C 0.10083 0.53535 0.72759 0.0
C1191 C 0.09425 0.5367 0.70943 0.0
C1192 C 0.09513 0.52139 0.69763 0.0
C1193 C 0.10255 0.50468 0.70398 0.0
C1194 C 0.10916 0.50326 0.72213 0.0
C1195 C 0.08456 0.48242 0.82256 0.0
C1196 C 0.08334 0.46362 0.81761 0.0
C1197 C 0.09451 0.49483 0.81159 0.0
C1198 C 0.10361 0.48868 0.79557 0.0
C1199 C 0.1026 0.46989 0.79067 0.0
C1200 C 0.09258 0.45744 0.80162 0.0
C1201 C 0.11348 0.50207 0.78353 0.0
C1202 C 0.10809 0.5035 0.76491 0.0
C1203 C 0.12713 0.51425 0.79058 0.0
C1204 C 0.1341 0.51281 0.80987 0.0
C1205 C 0.14112 0.49594 0.81664 0.0
C1206 C 0.14759 0.49466 0.83484 0.0
C1207 C 0.14721 0.51018 0.8464 0.0
C1208 C 0.14039 0.52703 0.83975 0.0
C1209 C 0.1339 0.52838 0.82156 0.0
H1210 H 0.15224 0.50918 0.86048 0.0
H1211 H 0.09003 0.52247 0.68357 0.0
H1212 H 0.65776 0.89537 0.98006 0.0
H1213 H 0.67562 0.88005 0.00435 0.0
H1214 H 0.72317 0.87782 0.96821 0.0
H1215 H 0.70521 0.89277 0.94363 0.0
H1216 H 0.72085 0.84694 0.98931 0.0
H1217 H 0.71861 0.91272 0.99926 0.0
H1218 H 0.70321 0.94298 0.00293 0.0
H1219 H 0.67424 0.92279 0.05078 0.0
H1220 H 0.68928 0.89229 0.04724 0.0
H1221 H 0.79027 0.83919 0.05827 0.0
H1222 H 0.77103 0.85042 0.03282 0.0
H1223 H 0.72362 0.85203 0.06916 0.0
H1224 H 0.74284 0.84108 0.09481 0.0
H1225 H 0.72565 0.88261 0.04789 0.0
H1226 H 0.72946 0.8168 0.03833 0.0
H1227 H 0.74582 0.78705 0.03456 0.0
H1228 H 0.77288 0.80776 0.98582 0.0
H1229 H 0.75691 0.83775 0.98947 0.0
C1230 C 0.67195 0.89139 0.97719 0.0
C1231 C 0.68019 0.89551 0.96004 0.0
C1232 C 0.68214 0.88267 0.99109 0.0
C1233 C 0.70085 0.8782 0.98822 0.0
C1234 C 0.70878 0.88126 0.97074 0.0
C1235 C 0.69851 0.88982 0.95672 0.0
C1236 C 0.71242 0.87159 0.00384 0.0
C1237 C 0.72205 0.85481 0.00205 0.0
C1238 C 0.7138 0.88177 0.02056 0.0
C1239 C 0.70494 0.90017 0.02288 0.0
C1240 C 0.70887 0.9147 0.0105 0.0
C1241 C 0.70022 0.93189 0.01256 0.0
C1242 C 0.68772 0.93479 0.02705 0.0
C1243 C 0.68391 0.92051 0.03955 0.0
C1244 C 0.6925 0.90328 0.03753 0.0
C1245 C 0.77577 0.84201 0.06089 0.0
C1246 C 0.76805 0.83916 0.07855 0.0
C1247 C 0.76477 0.84833 0.0463 0.0
C1248 C 0.74584 0.85175 0.04903 0.0
C1249 C 0.73819 0.84937 0.06674 0.0
C1250 C 0.74919 0.8431 0.08138 0.0
C1251 C 0.73401 0.8579 0.03343 0.0
C1252 C 0.72438 0.87467 0.0352 0.0
C1253 C 0.73275 0.84775 0.01669 0.0
C1254 C 0.7421 0.82959 0.01427 0.0
C1255 C 0.73898 0.81505 0.02687 0.0
C1256 C 0.74818 0.79814 0.02475 0.0
C1257 C 0.76041 0.79553 0.00998 0.0
C1258 C 0.76341 0.80981 0.99727 0.0
C1259 C 0.75428 0.82676 0.99935 0.0
H1260 H 0.76752 0.78243 0.00837 0.0
H1261 H 0.68103 0.94811 0.02862 0.0
H1262 H 0.32843 0.41518 0.23323 0.0
H1263 H 0.34469 0.43438 0.25579 0.0
H1264 H 0.3617 0.47155 0.21223 0.0
H1265 H 0.34548 0.45235 0.18944 0.0
H1266 H 0.38994 0.46382 0.23738 0.0
H1267 H 0.32652 0.48377 0.23853 0.0
H1268 H 0.29271 0.47937 0.24062 0.0
H1269 H 0.29879 0.45626 0.29509 0.0
H1270 H 0.33269 0.46031 0.29322 0.0
H1271 H 0.41603 0.53813 0.29648 0.0
H1272 H 0.40056 0.51983 0.27253 0.0
H1273 H 0.38069 0.48188 0.31419 0.0
H1274 H 0.396 0.50014 0.33823 0.0
H1275 H 0.35378 0.49087 0.28923 0.0
H1276 H 0.41696 0.47026 0.2881 0.0
H1277 H 0.45086 0.47397 0.28612 0.0
H1278 H 0.44539 0.49769 0.23186 0.0
H1279 H 0.41141 0.49438 0.23363 0.0
C1280 C 0.3357 0.42738 0.22839 0.0
C1281 C 0.33553 0.43234 0.20955 0.0
C1282 C 0.34495 0.43835 0.24132 0.0
C1283 C 0.35416 0.4545 0.23569 0.0
C1284 C 0.35459 0.45917 0.21683 0.0
C1285 C 0.34528 0.44821 0.20386 0.0
C1286 C 0.3629 0.46673 0.24961 0.0
C1287 C 0.38202 0.46998 0.24856 0.0
C1288 C 0.35256 0.47442 0.26438 0.0
C1289 C 0.33216 0.47219 0.26566 0.0
C1290 C 0.32066 0.47764 0.2509 0.0
C1291 C 0.30148 0.47523 0.25206 0.0
C1292 C 0.29361 0.4675 0.26796 0.0
C1293 C 0.30491 0.46223 0.28277 0.0
C1294 C 0.32411 0.4646 0.28168 0.0
C1295 C 0.4083 0.52594 0.30056 0.0
C1296 C 0.4073 0.52054 0.31925 0.0
C1297 C 0.39954 0.51546 0.28685 0.0
C1298 C 0.38966 0.49941 0.29159 0.0
C1299 C 0.38828 0.49422 0.31026 0.0
C1300 C 0.39709 0.50464 0.32397 0.0
C1301 C 0.38087 0.4879 0.27707 0.0
C1302 C 0.36172 0.48479 0.278 0.0
C1303 C 0.39119 0.48032 0.26223 0.0
C1304 C 0.41163 0.48226 0.26109 0.0
C1305 C 0.42297 0.47642 0.27581 0.0
C1306 C 0.4422 0.47842 0.27472 0.0
C1307 C 0.45027 0.48611 0.2589 0.0
C1308 C 0.43912 0.49177 0.24412 0.0
C1309 C 0.41987 0.48982 0.24515 0.0
H1310 H 0.46516 0.48765 0.25807 0.0
H1311 H 0.27876 0.46563 0.26882 0.0
H1312 H 0.52128 0.3471 0.41263 0.0
H1313 H 0.49796 0.32793 0.39749 0.0
H1314 H 0.53831 0.28456 0.38978 0.0
H1315 H 0.56189 0.30373 0.40489 0.0
H1316 H 0.51618 0.29004 0.35884 0.0
H1317 H 0.50846 0.28078 0.42408 0.0
H1318 H 0.50455 0.2906 0.45655 0.0
H1319 H 0.45327 0.31732 0.4426 0.0
H1320 H 0.45703 0.30791 0.40997 0.0
H1321 H 0.45077 0.21969 0.33811 0.0
H1322 H 0.47547 0.23725 0.35318 0.0
H1323 H 0.43723 0.28182 0.36417 0.0
H1324 H 0.41237 0.26428 0.34931 0.0
H1325 H 0.45908 0.27456 0.3939 0.0
H1326 H 0.46723 0.28482 0.32862 0.0
H1327 H 0.47122 0.27549 0.29601 0.0
H1328 H 0.52163 0.24716 0.30997 0.0
H1329 H 0.51779 0.2561 0.34274 0.0
C1330 C 0.52528 0.33354 0.40763 0.0
C1331 C 0.54342 0.32687 0.4101 0.0
C1332 C 0.5119 0.32258 0.39902 0.0
C1333 C 0.51636 0.30474 0.39279 0.0
C1334 C 0.53461 0.29828 0.39459 0.0
C1335 C 0.54803 0.30923 0.40325 0.0
C1336 C 0.5018 0.29271 0.38483 0.0
C1337 C 0.50382 0.2864 0.36658 0.0
C1338 C 0.48555 0.2883 0.39487 0.0
C1339 C 0.48312 0.29378 0.41454 0.0
C1340 C 0.49642 0.28886 0.42791 0.0
C1341 C 0.49422 0.29434 0.44635 0.0
C1342 C 0.47869 0.30461 0.45163 0.0
C1343 C 0.4653 0.30938 0.43849 0.0
C1344 C 0.46745 0.30396 0.42002 0.0
C1345 C 0.44757 0.23319 0.34381 0.0
C1346 C 0.42962 0.24064 0.34243 0.0
C1347 C 0.46173 0.24323 0.35235 0.0
C1348 C 0.45822 0.26092 0.35957 0.0
C1349 C 0.44022 0.2682 0.35864 0.0
C1350 C 0.42605 0.25817 0.3501 0.0
C1351 C 0.47337 0.272 0.36784 0.0
C1352 C 0.47148 0.27812 0.38618 0.0
C1353 C 0.48972 0.27625 0.35787 0.0
C1354 C 0.49212 0.27096 0.33816 0.0
C1355 C 0.47909 0.27647 0.32476 0.0
C1356 C 0.48134 0.27128 0.30625 0.0
C1357 C 0.49664 0.26069 0.30093 0.0
C1358 C 0.50976 0.25533 0.31412 0.0
C1359 C 0.50757 0.26047 0.33266 0.0
H1360 H 0.49836 0.25668 0.28659 0.0
H1361 H 0.47702 0.30885 0.46591 0.0
H1362 H 0.00816 0.14459 0.61388 0.0
H1363 H 0.98737 0.16832 0.62595 0.0
H1364 H 0.02732 0.21058 0.6124 0.0
H1365 H 0.04833 0.18687 0.6002 0.0
H1366 H 0.00809 0.21577 0.64738 0.0
H1367 H 0.99593 0.20474 0.58295 0.0
H1368 H 0.99024 0.18483 0.55581 0.0
H1369 H 0.94041 0.16428 0.58094 0.0
H1370 H 0.946 0.18383 0.60842 0.0
H1371 H 0.94305 0.28941 0.65234 0.0
H1372 H 0.96709 0.26861 0.64064 0.0
H1373 H 0.92898 0.22268 0.64381 0.0
H1374 H 0.90479 0.2434 0.65512 0.0
H1375 H 0.94884 0.2209 0.61281 0.0
H1376 H 0.96147 0.23056 0.67767 0.0
H1377 H 0.96759 0.24925 0.7056 0.0
H1378 H 0.0165 0.27169 0.68024 0.0
H1379 H 0.01051 0.25332 0.65204 0.0
C1380 C 0.01274 0.15886 0.6138 0.0
C1381 C 0.02983 0.16387 0.60594 0.0
C1382 C 0.0008 0.1724 0.62065 0.0
C1383 C 0.00576 0.19116 0.61981 0.0
C1384 C 0.02328 0.19615 0.6131 0.0
C1385 C 0.03522 0.1826 0.60611 0.0
C1386 C 0.99198 0.20553 0.6245 0.0
C1387 C 0.99525 0.21714 0.6397 0.0
C1388 C 0.97517 0.20703 0.61455 0.0
C1389 C 0.97147 0.19563 0.59782 0.0
C1390 C 0.98382 0.19589 0.58275 0.0
C1391 C 0.98062 0.18467 0.5673 0.0
C1392 C 0.965 0.17326 0.56666 0.0
C1393 C 0.95252 0.17311 0.58146 0.0
C1394 C 0.95569 0.18427 0.59697 0.0
C1395 C 0.93974 0.27491 0.65039 0.0
C1396 C 0.92204 0.26803 0.65476 0.0
C1397 C 0.95352 0.26303 0.64379 0.0
C1398 C 0.9499 0.24404 0.64164 0.0
C1399 C 0.93208 0.23727 0.64541 0.0
C1400 C 0.91827 0.24914 0.6519 0.0
C1401 C 0.96476 0.23107 0.63593 0.0
C1402 C 0.96171 0.21969 0.62047 0.0
C1403 C 0.98175 0.22977 0.64569 0.0
C1404 C 0.98543 0.24072 0.66268 0.0
C1405 C 0.97346 0.23959 0.678 0.0
C1406 C 0.97691 0.25011 0.69388 0.0
C1407 C 0.9924 0.26169 0.69467 0.0
C1408 C 0.00449 0.26274 0.6796 0.0
C1409 C 0.00108 0.25227 0.66367 0.0
H1410 H 0.99505 0.26982 0.70698 0.0
H1411 H 0.96256 0.16456 0.5547 0.0
H1412 H 0.95412 0.69268 0.9137 0.0
H1413 H 0.97706 0.71195 0.89798 0.0
H1414 H 0.01829 0.66934 0.90547 0.0
H1415 H 0.99546 0.64999 0.92134 0.0
H1416 H 0.03195 0.70361 0.91353 0.0
H1417 H 0.99848 0.67501 0.86398 0.0
H1418 H 0.97075 0.6657 0.84635 0.0
H1419 H 0.9563 0.72282 0.83828 0.0
H1420 H 0.98381 0.73248 0.85611 0.0
H1421 H 0.09696 0.74096 0.84912 0.0
H1422 H 0.07539 0.72096 0.86589 0.0
H1423 H 0.03186 0.76117 0.8581 0.0
H1424 H 0.05321 0.78108 0.84102 0.0
H1425 H 0.01998 0.72714 0.85007 0.0
H1426 H 0.05362 0.75563 0.90008 0.0
H1427 H 0.0817 0.76462 0.91732 0.0
H1428 H 0.0962 0.70735 0.9242 0.0
H1429 H 0.06832 0.69802 0.90676 0.0
C1430 C 0.96805 0.68738 0.91199 0.0
C1431 C 0.97294 0.66976 0.91869 0.0
C1432 C 0.98114 0.69839 0.90296 0.0
C1433 C 0.99932 0.69199 0.90039 0.0
C1434 C 0.00432 0.67452 0.90728 0.0
C1435 C 0.99123 0.66346 0.91628 0.0
C1436 C 0.01306 0.70353 0.89043 0.0
C1437 C 0.02947 0.70856 0.89956 0.0
C1438 C 0.00965 0.71022 0.87233 0.0
C1439 C 0.99312 0.70446 0.86154 0.0
C1440 C 0.98931 0.68558 0.85858 0.0
C1441 C 0.97364 0.68024 0.84852 0.0
C1442 C 0.96174 0.69366 0.84124 0.0
C1443 C 0.96551 0.71245 0.84395 0.0
C1444 C 0.98115 0.71786 0.85402 0.0
C1445 C 0.08281 0.74559 0.85105 0.0
C1446 C 0.07679 0.76261 0.84372 0.0
C1447 C 0.07053 0.73417 0.8607 0.0
C1448 C 0.05205 0.73964 0.86338 0.0
C1449 C 0.04605 0.75667 0.85618 0.0
C1450 C 0.05829 0.76806 0.84647 0.0
C1451 C 0.0388 0.72743 0.87323 0.0
C1452 C 0.02248 0.72221 0.86404 0.0
C1453 C 0.04233 0.72055 0.89125 0.0
C1454 C 0.05898 0.72613 0.90195 0.0
C1455 C 0.06286 0.74495 0.90515 0.0
C1456 C 0.07873 0.75011 0.91498 0.0
C1457 C 0.09076 0.73657 0.9218 0.0
C1458 C 0.08689 0.71783 0.91888 0.0
C1459 C 0.07105 0.7126 0.90904 0.0
H1460 H 0.10305 0.74059 0.92939 0.0
H1461 H 0.94962 0.6895 0.83345 0.0
H1462 H 0.60669 0.74254 0.15267 0.0
H1463 H 0.58504 0.76413 0.13822 0.0
H1464 H 0.542 0.72276 0.14037 0.0
H1465 H 0.56361 0.70096 0.15479 0.0
H1466 H 0.54279 0.74192 0.10696 0.0
H1467 H 0.54238 0.75547 0.17205 0.0
H1468 H 0.55674 0.76258 0.20221 0.0
H1469 H 0.5795 0.81278 0.17989 0.0
H1470 H 0.56552 0.80582 0.14948 0.0
H1471 H 0.46795 0.80326 0.09001 0.0
H1472 H 0.48821 0.78045 0.10471 0.0
H1473 H 0.53216 0.82087 0.10715 0.0
H1474 H 0.51193 0.84384 0.09274 0.0
H1475 H 0.53008 0.8015 0.13882 0.0
H1476 H 0.53166 0.78782 0.07373 0.0
H1477 H 0.51826 0.78068 0.04314 0.0
H1478 H 0.49407 0.73094 0.06501 0.0
H1479 H 0.50711 0.73794 0.09582 0.0
C1480 C 0.59267 0.73794 0.14994 0.0
C1481 C 0.58683 0.72007 0.15498 0.0
C1482 C 0.58031 0.75034 0.14174 0.0
C1483 C 0.56188 0.7451 0.13847 0.0
C1484 C 0.55616 0.72706 0.14285 0.0
C1485 C 0.56851 0.71466 0.15112 0.0
C1486 C 0.54847 0.75866 0.13097 0.0
C1487 C 0.53978 0.75483 0.11403 0.0
C1488 C 0.54488 0.77564 0.14008 0.0
C1489 C 0.55304 0.78003 0.15844 0.0
C1490 C 0.55055 0.76796 0.17353 0.0
C1491 C 0.55861 0.77197 0.19068 0.0
C1492 C 0.56906 0.7881 0.19295 0.0
C1493 C 0.57142 0.80028 0.1781 0.0
C1494 C 0.56342 0.79632 0.16091 0.0
C1495 C 0.48189 0.80733 0.09377 0.0
C1496 C 0.48837 0.82533 0.09011 0.0
C1497 C 0.49347 0.79425 0.1021 0.0
C1498 C 0.51177 0.7989 0.10679 0.0
C1499 C 0.5181 0.81699 0.10361 0.0
C1500 C 0.50652 0.83008 0.09532 0.0
C1501 C 0.52445 0.78484 0.11471 0.0
C1502 C 0.53301 0.78856 0.13176 0.0
C1503 C 0.52797 0.7678 0.10566 0.0
C1504 C 0.5202 0.76351 0.08713 0.0
C1505 C 0.52336 0.77544 0.07205 0.0
C1506 C 0.51585 0.7714 0.05467 0.0
C1507 C 0.50528 0.75539 0.05214 0.0
C1508 C 0.50224 0.74335 0.06699 0.0
C1509 C 0.50969 0.74734 0.08442 0.0
H1510 H 0.49948 0.75229 0.03867 0.0
H1511 H 0.57531 0.79117 0.20623 0.0
H1512 H 0.1736 0.3474 0.3549 0.0
H1513 H 0.18538 0.36259 0.32704 0.0
H1514 H 0.19007 0.30945 0.30007 0.0
H1515 H 0.17781 0.29431 0.32752 0.0
H1516 H 0.21864 0.35839 0.31551 0.0
H1517 H 0.19156 0.31273 0.2542 0.0
H1518 H 0.16239 0.29791 0.2444 0.0
H1519 H 0.13132 0.33666 0.27709 0.0
H1520 H 0.16026 0.35188 0.2869 0.0
H1521 H 0.28495 0.35132 0.24598 0.0
H1522 H 0.26077 0.34434 0.26857 0.0
H1523 H 0.22142 0.37601 0.23662 0.0
H1524 H 0.24547 0.38284 0.21376 0.0
H1525 H 0.20591 0.34473 0.24939 0.0
H1526 H 0.23987 0.39496 0.27464 0.0
H1527 H 0.26767 0.41243 0.28405 0.0
H1528 H 0.28163 0.36979 0.3231 0.0
H1529 H 0.25406 0.35192 0.31372 0.0
C1530 C 0.1766 0.33902 0.34283 0.0
C1531 C 0.175 0.31962 0.34351 0.0
C1532 C 0.18339 0.34772 0.32692 0.0
C1533 C 0.18869 0.33719 0.31145 0.0
C1534 C 0.18583 0.31795 0.31168 0.0
C1535 C 0.1789 0.30927 0.32749 0.0
C1536 C 0.19961 0.34572 0.29627 0.0
C1537 C 0.21568 0.35558 0.30105 0.0
C1538 C 0.19564 0.34239 0.27735 0.0
C1539 C 0.17813 0.33338 0.27138 0.0
C1540 C 0.17851 0.31816 0.25922 0.0
C1541 C 0.162 0.30967 0.25368 0.0
C1542 C 0.14502 0.31631 0.26015 0.0
C1543 C 0.14449 0.33149 0.27214 0.0
C1544 C 0.16095 0.34003 0.27772 0.0
C1545 C 0.27114 0.35672 0.24368 0.0
C1546 C 0.26716 0.36773 0.22815 0.0
C1547 C 0.25735 0.35278 0.25664 0.0
C1548 C 0.23939 0.35992 0.25441 0.0
C1549 C 0.23521 0.37043 0.23863 0.0
C1550 C 0.24899 0.37434 0.22561 0.0
C1551 C 0.22516 0.35663 0.26881 0.0
C1552 C 0.20858 0.34778 0.26385 0.0
C1553 C 0.22839 0.36128 0.28756 0.0
C1554 C 0.24494 0.37204 0.29338 0.0
C1555 C 0.24892 0.38925 0.28515 0.0
C1556 C 0.26464 0.39923 0.29049 0.0
C1557 C 0.27642 0.39221 0.30414 0.0
C1558 C 0.27249 0.37521 0.31252 0.0
C1559 C 0.2568 0.36516 0.30721 0.0
H1560 H 0.28858 0.39996 0.30826 0.0
H1561 H 0.13226 0.30972 0.25585 0.0
H1562 H 0.8269 0.02112 0.49386 0.0
H1563 H 0.83775 0.99918 0.51731 0.0
H1564 H 0.89216 -0.00054 0.49265 0.0
H1565 H 0.88149 0.02144 0.46917 0.0
H1566 H 0.87939 0.96348 0.50318 0.0
H1567 H 0.88685 0.02488 0.52874 0.0
H1568 H 0.87575 0.0562 0.53671 0.0
H1569 H 0.83399 0.03267 0.57195 0.0
H1570 H 0.8447 0.00119 0.56389 0.0
H1571 H 0.94036 0.9382 0.57574 0.0
H1572 H 0.92274 0.95053 0.54973 0.0
H1573 H 0.87364 0.95267 0.58374 0.0
H1574 H 0.89129 0.94062 0.61 0.0
H1575 H 0.88018 0.98523 0.56837 0.0
H1576 H 0.87651 0.92325 0.54627 0.0
H1577 H 0.88784 0.89224 0.5376 0.0
H1578 H 0.92264 0.91629 0.4958 0.0
H1579 H 0.91172 0.94749 0.5044 0.0
C1580 C 0.84113 0.0164 0.49333 0.0
C1581 C 0.85336 0.02307 0.47972 0.0
C1582 C 0.84729 0.00387 0.50672 0.0
C1583 C 0.86574 0.99775 0.50667 0.0
C1584 C 0.87784 0.00395 0.49281 0.0
C1585 C 0.87174 0.01659 0.4795 0.0
C1586 C 0.87275 0.98581 0.52176 0.0
C1587 C 0.87969 0.96819 0.51745 0.0
C1588 C 0.87267 0.99187 0.54037 0.0
C1589 C 0.86642 0.01073 0.54554 0.0
C1590 C 0.8752 0.02642 0.53806 0.0
C1591 C 0.86901 0.04418 0.54261 0.0
C1592 C 0.85413 0.04642 0.55479 0.0
C1593 C 0.84549 0.0309 0.56249 0.0
C1594 C 0.85162 0.0131 0.55794 0.0
C1595 C 0.92572 0.94089 0.57761 0.0
C1596 C 0.91728 0.93861 0.59501 0.0
C1597 C 0.91562 0.94786 0.56266 0.0
C1598 C 0.89685 0.95251 0.56477 0.0
C1599 C 0.88812 0.94921 0.58182 0.0
C1600 C 0.89822 0.94227 0.59681 0.0
C1601 C 0.88705 0.96276 0.5499 0.0
C1602 C 0.87963 0.98022 0.55421 0.0
C1603 C 0.88675 0.9565 0.53131 0.0
C1604 C 0.89338 0.93775 0.52609 0.0
C1605 C 0.88669 0.92195 0.53533 0.0
C1606 C 0.89302 0.90433 0.53041 0.0
C1607 C 0.90598 0.9023 0.51618 0.0
C1608 C 0.91261 0.91789 0.50682 0.0
C1609 C 0.90633 0.93555 0.5117 0.0
H1610 H 0.91086 0.88864 0.51239 0.0
H1611 H 0.84933 0.06019 0.55829 0.0
H1612 H 0.22788 0.63553 0.71792 0.0
H1613 H 0.25041 0.64918 0.73916 0.0
H1614 H 0.25653 0.59658 0.7668 0.0
H1615 H 0.23402 0.58272 0.74554 0.0
H1616 H 0.25138 0.62662 0.79092 0.0
H1617 H 0.28987 0.60998 0.73941 0.0
H1618 H 0.29885 0.60894 0.70649 0.0
H1619 H 0.30291 0.66826 0.70539 0.0
H1620 H 0.29366 0.66968 0.73825 0.0
H1621 H 0.32417 0.65536 0.84759 0.0
H1622 H 0.30994 0.63734 0.82281 0.0
H1623 H 0.30129 0.68727 0.7912 0.0
H1624 H 0.3155 0.70549 0.81593 0.0
H1625 H 0.3093 0.65653 0.76896 0.0
H1626 H 0.26831 0.67405 0.81824 0.0
H1627 H 0.25759 0.67666 0.85056 0.0
H1628 H 0.25654 0.61741 0.85535 0.0
H1629 H 0.2676 0.61443 0.82311 0.0
C1630 C 0.23404 0.62683 0.72848 0.0
C1631 C 0.22921 0.60802 0.73002 0.0
C1632 C 0.24697 0.63464 0.74054 0.0
C1633 C 0.25526 0.62381 0.75438 0.0
C1634 C 0.25032 0.60511 0.75613 0.0
C1635 C 0.23749 0.59723 0.74396 0.0
C1636 C 0.26873 0.63221 0.76732 0.0
C1637 C 0.26424 0.63282 0.7862 0.0
C1638 C 0.28521 0.64075 0.76099 0.0
C1639 C 0.29091 0.63994 0.74126 0.0
C1640 C 0.29253 0.62282 0.73211 0.0
C1641 C 0.2977 0.62215 0.71347 0.0
C1642 C 0.30141 0.63853 0.70384 0.0
C1643 C 0.30001 0.65559 0.71286 0.0
C1644 C 0.29482 0.65633 0.7315 0.0
C1645 C 0.31975 0.6625 0.83516 0.0
C1646 C 0.32062 0.68193 0.8339 0.0
C1647 C 0.31156 0.65216 0.82104 0.0
C1648 C 0.30421 0.66106 0.80541 0.0
C1649 C 0.30677 0.68019 0.80324 0.0
C1650 C 0.31489 0.69057 0.8174 0.0
C1651 C 0.29196 0.65087 0.79255 0.0
C1652 C 0.2966 0.65005 0.77371 0.0
C1653 C 0.27547 0.6423 0.79886 0.0
C1654 C 0.26902 0.64402 0.81833 0.0
C1655 C 0.266 0.66157 0.82624 0.0
C1656 C 0.25982 0.66312 0.84452 0.0
C1657 C 0.2564 0.64722 0.85499 0.0
C1658 C 0.2592 0.62972 0.84721 0.0
C1659 C 0.26544 0.62809 0.82894 0.0
H1660 H 0.25155 0.64845 0.86911 0.0
H1661 H 0.30541 0.63799 0.6894 0.0
H1662 H 0.54658 0.07015 0.0726 0.0
H1663 H 0.56056 0.05366 0.04667 0.0
H1664 H 0.61306 0.05291 0.0752 0.0
H1665 H 0.5991 0.06912 0.10142 0.0
H1666 H 0.589 0.05563 0.02232 0.0
H1667 H 0.6301 0.00911 0.07222 0.0
H1668 H 0.62991 -0.00043 0.10506 0.0
H1669 H 0.57116 0.00856 0.10765 0.0
H1670 H 0.57098 0.01795 0.07478 0.0
H1671 H 0.6396 0.98878 0.96951 0.0
H1672 H 0.63125 0.01307 0.99159 0.0
H1673 H 0.59131 0.97646 0.01683 0.0
H1674 H 0.59979 0.95203 0.99505 0.0
H1675 H 0.61085 0.99364 0.04252 0.0
H1676 H 0.57795 0.01122 0.98737 0.0
H1677 H 0.57467 0.01928 0.95434 0.0
H1678 H 0.61114 0.06569 0.96172 0.0
H1679 H 0.61482 0.05775 0.99476 0.0
C1680 C 0.56123 0.06694 0.07319 0.0
C1681 C 0.57162 0.07056 0.08927 0.0
C1682 C 0.56921 0.05755 0.0583 0.0
C1683 C 0.58771 0.05168 0.05923 0.0
C1684 C 0.59865 0.05703 0.07439 0.0
C1685 C 0.59065 0.06635 0.08934 0.0
C1686 C 0.59464 0.03794 0.04567 0.0
C1687 C 0.59399 0.04215 0.02671 0.0
C1688 C 0.6007 0.02019 0.05141 0.0
C1689 C 0.60059 0.01443 0.07113 0.0
C1690 C 0.61715 0.00901 0.0798 0.0
C1691 C 0.6171 0.00364 0.09841 0.0
C1692 C 0.60055 0.00352 0.10844 0.0
C1693 C 0.58399 0.00873 0.09988 0.0
C1694 C 0.58395 0.0141 0.08127 0.0
C1695 C 0.62902 0.9859 0.97976 0.0
C1696 C 0.62032 0.96848 0.98052 0.0
C1697 C 0.62423 -0.00017 0.99232 0.0
C1698 C 0.61055 0.99663 0.00575 0.0
C1699 C 0.60193 0.97922 0.00659 0.0
C1700 C 0.60675 0.96528 0.99409 0.0
C1701 C 0.60527 0.01129 0.01911 0.0
C1702 C 0.6062 0.00723 0.03808 0.0
C1703 C 0.59904 0.02897 0.01333 0.0
C1704 C 0.59683 0.03377 0.99348 0.0
C1705 C 0.58539 0.02306 0.98191 0.0
C1706 C 0.58343 0.02762 0.96319 0.0
C1707 C 0.59273 0.04295 0.95592 0.0
C1708 C 0.60397 0.05379 0.96736 0.0
C1709 C 0.60599 0.04928 0.98609 0.0
H1710 H 0.5912 0.04646 0.94143 0.0
H1711 H 0.60057 0.99932 0.12282 0.0
H1712 H 0.67855 0.15394 0.64963 0.0
H1713 H 0.69018 0.14044 0.67835 0.0
H1714 H 0.68635 0.19371 0.70511 0.0
H1715 H 0.67482 0.20739 0.67639 0.0
H1716 H 0.72079 0.17936 0.70705 0.0
H1717 H 0.65946 0.15811 0.71956 0.0
H1718 H 0.62968 0.14281 0.71287 0.0
H1719 H 0.65779 0.09108 0.70448 0.0
H1720 H 0.68779 0.10612 0.71086 0.0
H1721 H 0.75966 0.14537 0.78974 0.0
H1722 H 0.73707 0.15878 0.76844 0.0
H1723 H 0.73541 0.10754 0.73775 0.0
H1724 H 0.7577 0.09385 0.75929 0.0
H1725 H 0.70147 0.12238 0.74022 0.0
H1726 H 0.76243 0.14373 0.72369 0.0
H1727 H 0.79279 0.15852 0.7288 0.0
H1728 H 0.76586 0.2096 0.74303 0.0
H1729 H 0.7353 0.19501 0.73826 0.0
C1730 C 0.67973 0.16271 0.66174 0.0
C1731 C 0.67599 0.1818 0.66065 0.0
C1732 C 0.68631 0.15494 0.67819 0.0
C1733 C 0.68917 0.16609 0.69385 0.0
C1734 C 0.68428 0.18489 0.69316 0.0
C1735 C 0.67765 0.19266 0.67673 0.0
C1736 C 0.69947 0.15869 0.70998 0.0
C1737 C 0.71634 0.16716 0.71461 0.0
C1738 C 0.69394 0.14242 0.71939 0.0
C1739 C 0.67591 0.1333 0.71556 0.0
C1740 C 0.65932 0.14351 0.71614 0.0
C1741 C 0.64239 0.13487 0.71243 0.0
C1742 C 0.64184 0.11599 0.70822 0.0
C1743 C 0.65823 0.1057 0.70774 0.0
C1744 C 0.6752 0.11427 0.71143 0.0
C1745 C 0.75438 0.13689 0.77855 0.0
C1746 C 0.76063 0.11862 0.77605 0.0
C1747 C 0.74149 0.14459 0.76638 0.0
C1748 C 0.73481 0.13426 0.75133 0.0
C1749 C 0.74042 0.11576 0.74925 0.0
C1750 C 0.75322 0.10799 0.76153 0.0
C1751 C 0.72279 0.14304 0.73718 0.0
C1752 C 0.70571 0.13478 0.73287 0.0
C1753 C 0.72819 0.15943 0.72788 0.0
C1754 C 0.74657 0.16821 0.73084 0.0
C1755 C 0.76297 0.15806 0.72808 0.0
C1756 C 0.78022 0.16642 0.73088 0.0
C1757 C 0.78126 0.18497 0.7363 0.0
C1758 C 0.76504 0.19522 0.73888 0.0
C1759 C 0.74775 0.18691 0.73612 0.0
H1760 H 0.79462 0.19142 0.73844 0.0
H1761 H 0.62872 0.10933 0.70536 0.0
H1762 H 0.11483 0.51096 0.01809 0.0
H1763 H 0.10641 0.48534 0.99773 0.0
H1764 H 0.16424 0.47346 0.98844 0.0
H1765 H 0.17282 0.49914 0.00885 0.0
H1766 H 0.14498 0.47799 0.95638 0.0
H1767 H 0.13852 0.44223 0.01108 0.0
H1768 H 0.12848 0.43518 0.04293 0.0
H1769 H 0.07154 0.43878 0.02613 0.0
H1770 H 0.08121 0.44614 0.99422 0.0
H1771 H 0.10993 0.41762 0.88909 0.0
H1772 H 0.12715 0.42435 0.91751 0.0
H1773 H 0.07675 0.44311 0.94358 0.0
H1774 H 0.05943 0.43584 0.91566 0.0
H1775 H 0.09885 0.42859 0.96886 0.0
H1776 H 0.10533 0.47289 0.91802 0.0
H1777 H 0.1141 0.48176 0.88619 0.0
H1778 H 0.16992 0.46381 0.89627 0.0
H1779 H 0.1614 0.45464 0.9281 0.0
C1780 C 0.12577 0.50274 0.01195 0.0
C1781 C 0.14449 0.50716 0.01496 0.0
C1782 C 0.12094 0.48799 0.00043 0.0
C1783 C 0.13471 0.4774 0.9917 0.0
C1784 C 0.15341 0.48141 0.99514 0.0
C1785 C 0.15828 0.49608 0.00679 0.0
C1786 C 0.12941 0.46367 0.97742 0.0
C1787 C 0.13531 0.46683 0.95919 0.0
C1788 C 0.11656 0.44934 0.98107 0.0
C1789 C 0.11062 0.44482 0.00024 0.0
C1790 C 0.12386 0.44164 0.01419 0.0
C1791 C 0.11823 0.43757 0.03226 0.0
C1792 C 0.09938 0.43655 0.03656 0.0
C1793 C 0.08613 0.43957 0.02278 0.0
C1794 C 0.09168 0.44366 0.00469 0.0
C1795 C 0.10244 0.42268 0.90106 0.0
C1796 C 0.08339 0.42661 0.89996 0.0
C1797 C 0.11231 0.42656 0.91728 0.0
C1798 C 0.10332 0.43472 0.93249 0.0
C1799 C 0.08403 0.43695 0.932 0.0
C1800 C 0.07414 0.43287 0.91592 0.0
C1801 C 0.11395 0.44337 0.94781 0.0
C1802 C 0.10901 0.43934 0.96618 0.0
C1803 C 0.12753 0.45711 0.94432 0.0
C1804 C 0.13269 0.46286 0.92531 0.0
C1805 C 0.11945 0.47076 0.9134 0.0
C1806 C 0.12437 0.47584 0.89537 0.0
C1807 C 0.14253 0.47327 0.88919 0.0
C1808 C 0.15584 0.46573 0.90106 0.0
C1809 C 0.15098 0.46059 0.91909 0.0
H1810 H 0.1463 0.47713 0.87523 0.0
H1811 H 0.09505 0.4334 0.05056 0.0
H1812 H 0.73502 0.87493 0.28364 0.0
H1813 H 0.75941 0.86704 0.26166 0.0
H1814 H 0.75554 0.92152 0.23744 0.0
H1815 H 0.731 0.92959 0.25949 0.0
H1816 H 0.75339 0.89359 0.21176 0.0
H1817 H 0.79369 0.9106 0.26093 0.0
H1818 H 0.8054 0.91126 0.293 0.0
H1819 H 0.81546 0.85269 0.29088 0.0
H1820 H 0.80355 0.85161 0.25889 0.0
H1821 H 0.81803 0.86213 0.14713 0.0
H1822 H 0.80797 0.88225 0.17242 0.0
H1823 H 0.80456 0.83496 0.20877 0.0
H1824 H 0.81502 0.81484 0.18376 0.0
H1825 H 0.81421 0.86582 0.22784 0.0
H1826 H 0.76759 0.84778 0.1828 0.0
H1827 H 0.7548 0.84551 0.15119 0.0
H1828 H 0.75538 0.90479 0.1464 0.0
H1829 H 0.76846 0.90737 0.1779 0.0
C1830 C 0.73946 0.88532 0.27377 0.0
C1831 C 0.73103 0.90286 0.27323 0.0
C1832 C 0.75352 0.88083 0.26132 0.0
C1833 C 0.75941 0.89377 0.24807 0.0
C1834 C 0.75125 0.9114 0.24766 0.0
C1835 C 0.73725 0.91598 0.26025 0.0
C1836 C 0.77286 0.88809 0.23368 0.0
C1837 C 0.76691 0.88801 0.2152 0.0
C1838 C 0.79032 0.88044 0.23829 0.0
C1839 C 0.79763 0.88102 0.25751 0.0
C1840 C 0.79828 0.89783 0.26734 0.0
C1841 C 0.80497 0.89828 0.2855 0.0
C1842 C 0.81115 0.88202 0.29398 0.0
C1843 C 0.81067 0.86527 0.28429 0.0
C1844 C 0.80398 0.86474 0.26613 0.0
C1845 C 0.81564 0.85609 0.16064 0.0
C1846 C 0.81692 0.83683 0.16334 0.0
C1847 C 0.80988 0.86761 0.17508 0.0
C1848 C 0.80509 0.86001 0.19232 0.0
C1849 C 0.80809 0.84109 0.19554 0.0
C1850 C 0.814 0.82958 0.18117 0.0
C1851 C 0.79452 0.871 0.20605 0.0
C1852 C 0.80093 0.87195 0.22437 0.0
C1853 C 0.77735 0.87928 0.20139 0.0
C1854 C 0.76921 0.87776 0.18258 0.0
C1855 C 0.76509 0.86032 0.17495 0.0
C1856 C 0.75779 0.85897 0.15707 0.0
C1857 C 0.75434 0.87499 0.14677 0.0
C1858 C 0.75811 0.89239 0.15437 0.0
C1859 C 0.76547 0.89381 0.17224 0.0
H1860 H 0.74869 0.87393 0.13292 0.0
H1861 H 0.81632 0.8824 0.30805 0.0
H1862 H 0.34469 0.50132 0.53365 0.0
H1863 H 0.35641 0.52237 0.50983 0.0
H1864 H 0.39487 0.48034 0.49163 0.0
H1865 H 0.38379 0.45962 0.51591 0.0
H1866 H 0.41137 0.51136 0.4904 0.0
H1867 H 0.35232 0.48968 0.46937 0.0
H1868 H 0.31871 0.48394 0.47138 0.0
H1869 H 0.30859 0.54243 0.47492 0.0
H1870 H 0.3422 0.54852 0.47333 0.0
H1871 H 0.39942 0.54394 0.38997 0.0
H1872 H 0.38556 0.53097 0.41779 0.0
H1873 H 0.4209 0.56534 0.45162 0.0
H1874 H 0.43549 0.57783 0.42369 0.0
H1875 H 0.36719 0.54038 0.44646 0.0
H1876 H 0.43477 0.54152 0.48944 0.0
H1877 H 0.46861 0.54235 0.48454 0.0
H1878 H 0.46183 0.51657 0.43137 0.0
H1879 H 0.428 0.51537 0.43607 0.0
C1880 C 0.35569 0.49662 0.5246 0.0
C1881 C 0.36324 0.47879 0.52654 0.0
C1882 C 0.36234 0.50864 0.51095 0.0
C1883 C 0.37631 0.50286 0.4987 0.0
C1884 C 0.3841 0.48516 0.5009 0.0
C1885 C 0.3777 0.47328 0.51475 0.0
C1886 C 0.38259 0.51497 0.48329 0.0
C1887 C 0.40168 0.51779 0.48087 0.0
C1888 C 0.37001 0.52314 0.47063 0.0
C1889 C 0.34979 0.51954 0.47145 0.0
C1890 C 0.34293 0.50132 0.47072 0.0
C1891 C 0.32388 0.498 0.47176 0.0
C1892 C 0.31152 0.51281 0.47329 0.0
C1893 C 0.31819 0.53097 0.47376 0.0
C1894 C 0.33724 0.53437 0.4728 0.0
C1895 C 0.40407 0.549 0.40331 0.0
C1896 C 0.41879 0.56169 0.40463 0.0
C1897 C 0.39607 0.54158 0.41925 0.0
C1898 C 0.40246 0.54684 0.43684 0.0
C1899 C 0.41606 0.56071 0.4382 0.0
C1900 C 0.42432 0.56792 0.42222 0.0
C1901 C 0.39596 0.5366 0.45347 0.0
C1902 C 0.37685 0.53418 0.45616 0.0
C1903 C 0.40853 0.52809 0.46591 0.0
C1904 C 0.42886 0.52859 0.46302 0.0
C1905 C 0.44053 0.536 0.47673 0.0
C1906 C 0.4597 0.53653 0.47398 0.0
C1907 C 0.46736 0.52959 0.45762 0.0
C1908 C 0.45587 0.52201 0.444 0.0
C1909 C 0.43671 0.52142 0.4467 0.0
H1910 H 0.4822 0.53003 0.45552 0.0
H1911 H 0.29678 0.51021 0.47409 0.0
H1912 H 0.23544 0.26348 0.42748 0.0
H1913 H 0.26056 0.24296 0.41748 0.0
H1914 H 0.23938 0.24419 0.36162 0.0
H1915 H 0.21428 0.26457 0.37145 0.0
H1916 H 0.25119 0.20904 0.37229 0.0
H1917 H 0.27321 0.27276 0.37347 0.0
H1918 H 0.27942 0.30268 0.38875 0.0
H1919 H 0.31459 0.27551 0.4283 0.0
H1920 H 0.30836 0.24537 0.41338 0.0
H1921 H 0.32421 0.19855 0.30893 0.0
H1922 H 0.2978 0.20578 0.32861 0.0
H1923 H 0.33292 0.20353 0.37693 0.0
H1924 H 0.35959 0.19662 0.35723 0.0
H1925 H 0.31474 0.23494 0.37599 0.0
H1926 H 0.29752 0.1719 0.37066 0.0
H1927 H 0.29126 0.14207 0.35529 0.0
H1928 H 0.24738 0.16709 0.32388 0.0
H1929 H 0.25354 0.19715 0.33886 0.0
C1930 C 0.23603 0.25922 0.41311 0.0
C1931 C 0.223 0.26579 0.40021 0.0
C1932 C 0.25037 0.2475 0.40744 0.0
C1933 C 0.25184 0.24216 0.3888 0.0
C1934 C 0.23844 0.24811 0.37607 0.0
C1935 C 0.22419 0.25988 0.3817 0.0
C1936 C 0.26805 0.23158 0.38209 0.0
C1937 C 0.26512 0.21464 0.37305 0.0
C1938 C 0.28624 0.23868 0.38364 0.0
C1939 C 0.29014 0.25681 0.39247 0.0
C1940 C 0.28216 0.27316 0.38551 0.0
C1941 C 0.28569 0.29015 0.39409 0.0
C1942 C 0.29734 0.29099 0.40953 0.0
C1943 C 0.30553 0.27483 0.41637 0.0
C1944 C 0.30201 0.2578 0.40786 0.0
C1945 C 0.32628 0.19919 0.32378 0.0
C1946 C 0.34405 0.19721 0.33149 0.0
C1947 C 0.31111 0.20321 0.33505 0.0
C1948 C 0.31335 0.20513 0.35428 0.0
C1949 C 0.33088 0.20212 0.36213 0.0
C1950 C 0.3461 0.19815 0.35084 0.0
C1951 C 0.29793 0.21249 0.36568 0.0
C1952 C 0.30096 0.22895 0.37558 0.0
C1953 C 0.27986 0.20489 0.36493 0.0
C1954 C 0.27608 0.18683 0.35584 0.0
C1955 C 0.28662 0.17109 0.36038 0.0
C1956 C 0.28307 0.15412 0.35175 0.0
C1957 C 0.26895 0.15269 0.3386 0.0
C1958 C 0.25832 0.16822 0.33407 0.0
C1959 C 0.26181 0.18522 0.34265 0.0
H1960 H 0.26622 0.13954 0.33193 0.0
H1961 H 0.30006 0.30415 0.41616 0.0
H1962 H 0.98482 0.96486 0.62068 0.0
H1963 H 0.0101 0.98516 0.61105 0.0
H1964 H 0.01581 0.00498 0.66712 0.0
H1965 H 0.9905 0.9846 0.67693 0.0
H1966 H 0.01231 0.03296 0.64135 0.0
H1967 H 0.0494 0.97915 0.64979 0.0
H1968 H 0.05795 0.94626 0.64658 0.0
H1969 H 0.06157 0.95263 0.58757 0.0
H1970 H 0.05275 0.9855 0.59038 0.0
H1971 H 0.07885 0.09446 0.60935 0.0
H1972 H 0.06923 0.06782 0.62785 0.0
H1973 H 0.05736 0.03729 0.57789 0.0
H1974 H 0.06732 0.06366 0.5593 0.0
H1975 H 0.06807 0.01413 0.60579 0.0
H1976 H 0.02452 0.06442 0.59657 0.0
H1977 H 0.01428 0.09698 0.59816 0.0
H1978 H 0.02117 0.09654 0.65724 0.0
H1979 H 0.03169 0.06402 0.65595 0.0
C1980 C 0.99155 0.97342 0.63101 0.0
C1981 C 0.9856 0.97322 0.64955 0.0
C1982 C 0.00609 0.98489 0.62551 0.0
C1983 C 0.01493 0.99642 0.63842 0.0
C1984 C 0.00923 0.99607 0.65699 0.0
C1985 C 0.99477 0.98445 0.66255 0.0
C1986 C 0.0289 0.00999 0.63204 0.0
C1987 C 0.02478 0.02885 0.63403 0.0
C1988 C 0.04489 0.00456 0.62208 0.0
C1989 C 0.05029 0.98479 0.6203 0.0
C1990 C 0.05187 0.97351 0.63611 0.0
C1991 C 0.0568 0.95487 0.63436 0.0
C1992 C 0.06028 0.94735 0.61688 0.0
C1993 C 0.05887 0.95847 0.6011 0.0
C1994 C 0.05393 0.97712 0.60277 0.0
C1995 C 0.07478 0.08187 0.60228 0.0
C1996 C 0.07339 0.08133 0.58286 0.0
C1997 C 0.06927 0.06666 0.61289 0.0
C1998 C 0.06211 0.0508 0.60422 0.0
C1999 C 0.06271 0.04947 0.58485 0.0
C2000 C 0.06835 0.06461 0.57423 0.0
C2001 C 0.05131 0.03703 0.61493 0.0
C2002 C 0.0559 0.01819 0.61361 0.0
C2003 C 0.03556 0.04241 0.62533 0.0
C2004 C 0.02911 0.06189 0.62614 0.0
C2005 C 0.02397 0.07132 0.60988 0.0
C2006 C 0.01811 0.08975 0.61073 0.0
C2007 C 0.01714 0.09884 0.62779 0.0
C2008 C 0.02198 0.08949 0.64403 0.0
C2009 C 0.02789 0.07106 0.64326 0.0
H2010 H 0.01259 0.1131 0.62843 0.0
H2011 H 0.06409 0.93291 0.61556 0.0
H2012 H 0.28187 0.7388 0.86249 0.0
H2013 H 0.2575 0.76072 0.85429 0.0
H2014 H 0.23637 0.75847 0.91013 0.0
H2015 H 0.26076 0.73641 0.9185 0.0
H2016 H 0.20919 0.75408 0.88396 0.0
H2017 H 0.25795 0.79677 0.89615 0.0
H2018 H 0.28961 0.80941 0.89414 0.0
H2019 H 0.28331 0.81669 0.83546 0.0
H2020 H 0.2517 0.80383 0.83706 0.0
H2021 H 0.14041 0.81582 0.85524 0.0
H2022 H 0.16732 0.80702 0.87383 0.0
H2023 H 0.2005 0.80354 0.82426 0.0
H2024 H 0.17389 0.81279 0.80567 0.0
H2025 H 0.2213 0.81438 0.85322 0.0
H2026 H 0.17624 0.76602 0.84011 0.0
H2027 H 0.14484 0.75252 0.84079 0.0
H2028 H 0.14475 0.75499 0.90021 0.0
H2029 H 0.17608 0.76876 0.89985 0.0
C2030 C 0.27211 0.74302 0.87308 0.0
C2031 C 0.27324 0.73585 0.89115 0.0
C2032 C 0.25827 0.75565 0.8684 0.0
C2033 C 0.24529 0.76139 0.88167 0.0
C2034 C 0.24634 0.75429 0.89973 0.0
C2035 C 0.26028 0.7417 0.90447 0.0
C2036 C 0.23004 0.77398 0.87624 0.0
C2037 C 0.21179 0.76748 0.87767 0.0
C2038 C 0.23351 0.7913 0.86774 0.0
C2039 C 0.25246 0.79923 0.86672 0.0
C2040 C 0.26335 0.80095 0.88279 0.0
C2041 C 0.28129 0.80817 0.88173 0.0
C2042 C 0.28847 0.81383 0.86468 0.0
C2043 C 0.27772 0.81231 0.84866 0.0
C2044 C 0.25978 0.80508 0.84964 0.0
C2045 C 0.15357 0.81371 0.84835 0.0
C2046 C 0.15492 0.81459 0.82894 0.0
C2047 C 0.16892 0.80864 0.859 0.0
C2048 C 0.18575 0.80414 0.85035 0.0
C2049 C 0.1876 0.80682 0.8312 0.0
C2050 C 0.17232 0.81206 0.82057 0.0
C2051 C 0.20055 0.79427 0.8606 0.0
C2052 C 0.21869 0.80122 0.85998 0.0
C2053 C 0.19704 0.77725 0.86971 0.0
C2054 C 0.17839 0.76861 0.86995 0.0
C2055 C 0.16948 0.76377 0.85331 0.0
C2056 C 0.1517 0.75607 0.85364 0.0
C2057 C 0.14278 0.75297 0.87053 0.0
C2058 C 0.15166 0.75746 0.88714 0.0
C2059 C 0.16942 0.7652 0.88688 0.0
H2060 H 0.12901 0.74704 0.87075 0.0
H2061 H 0.30237 0.81941 0.86388 0.0
H2062 H 0.51509 0.01486 0.17288 0.0
H2063 H 0.49438 0.98993 0.16287 0.0
H2064 H 0.48968 0.01533 0.109 0.0
H2065 H 0.51034 0.04025 0.11884 0.0
H2066 H 0.45612 0.00075 0.12173 0.0
H2067 H 0.52037 0.98342 0.11572 0.0
H2068 H 0.55215 0.97774 0.12684 0.0
H2069 H 0.53195 0.93583 0.16391 0.0
H2070 H 0.49998 0.94178 0.15353 0.0
H2071 H 0.44188 0.92793 0.05743 0.0
H2072 H 0.45034 0.95462 0.07634 0.0
H2073 H 0.45335 0.91963 0.12468 0.0
H2074 H 0.44503 0.89279 0.10583 0.0
H2075 H 0.48496 0.93843 0.11916 0.0
H2076 H 0.42082 0.95335 0.12212 0.0
H2077 H 0.3893 0.95894 0.11022 0.0
H2078 H 0.40934 0.00445 0.07761 0.0
H2079 H 0.44104 0.99897 0.0891 0.0
C2080 C 0.50941 0.01529 0.159 0.0
C2081 C 0.51447 0.0294 0.14657 0.0
C2082 C 0.4976 0.00105 0.15332 0.0
C2083 C 0.49063 0.00077 0.13517 0.0
C2084 C 0.49489 0.01535 0.12307 0.0
C2085 C 0.5068 0.02949 0.12868 0.0
C2086 C 0.48032 0.98454 0.12815 0.0
C2087 C 0.46238 0.9871 0.12111 0.0
C2088 C 0.48844 0.96672 0.12772 0.0
C2089 C 0.50771 0.96327 0.13407 0.0
C2090 C 0.52266 0.97321 0.12646 0.0
C2091 C 0.54073 0.96994 0.13263 0.0
C2092 C 0.54407 0.95653 0.14618 0.0
C2093 C 0.52935 0.94633 0.15353 0.0
C2094 C 0.51124 0.94969 0.14756 0.0
C2095 C 0.44393 0.92596 0.07216 0.0
C2096 C 0.443 0.9082 0.08008 0.0
C2097 C 0.44867 0.94126 0.08298 0.0
C2098 C 0.45247 0.9391 0.10192 0.0
C2099 C 0.45049 0.92158 0.11008 0.0
C2100 C 0.4457 0.90627 0.09928 0.0
C2101 C 0.46073 0.95458 0.11255 0.0
C2102 C 0.47843 0.95193 0.12015 0.0
C2103 C 0.45241 0.9723 0.11337 0.0
C2104 C 0.43336 0.97566 0.10639 0.0
C2105 C 0.41855 0.96445 0.11229 0.0
C2106 C 0.40063 0.96762 0.10564 0.0
C2107 C 0.39733 0.98202 0.09314 0.0
C2108 C 0.41192 0.9933 0.08729 0.0
C2109 C 0.42987 0.99018 0.09389 0.0
H2110 H 0.38345 0.98445 0.08801 0.0
H2111 H 0.55807 0.95398 0.15091 0.0
H2112 H 0.72715 0.24403 0.57328 0.0
H2113 H 0.7515 0.26609 0.58174 0.0
H2114 H 0.73276 0.26516 0.63845 0.0
H2115 H 0.70848 0.24312 0.63018 0.0
H2116 H 0.74368 0.30066 0.6264 0.0
H2117 H 0.7655 0.23703 0.62588 0.0
H2118 H 0.77126 0.20676 0.61114 0.0
H2119 H 0.80619 0.23282 0.57067 0.0
H2120 H 0.80021 0.26331 0.58486 0.0
H2121 H 0.81903 0.314 0.68651 0.0
H2122 H 0.79198 0.30568 0.66819 0.0
H2123 H 0.82513 0.30649 0.61847 0.0
H2124 H 0.85247 0.31446 0.63683 0.0
H2125 H 0.80723 0.27499 0.62122 0.0
H2126 H 0.78969 0.33814 0.62524 0.0
H2127 H 0.78382 0.36832 0.64008 0.0
H2128 H 0.7415 0.34383 0.67392 0.0
H2129 H 0.74728 0.31343 0.65949 0.0
C2130 C 0.72802 0.24877 0.58748 0.0
C2131 C 0.71606 0.24167 0.60112 0.0
C2132 C 0.74192 0.26137 0.59228 0.0
C2133 C 0.74398 0.26711 0.61074 0.0
C2134 C 0.73136 0.26091 0.62413 0.0
C2135 C 0.71758 0.24821 0.61939 0.0
C2136 C 0.76033 0.27796 0.61663 0.0
C2137 C 0.75761 0.29513 0.62529 0.0
C2138 C 0.77849 0.27086 0.6147 0.0
C2139 C 0.78219 0.25249 0.60626 0.0
C2140 C 0.77424 0.23633 0.61371 0.0
C2141 C 0.77754 0.21912 0.60545 0.0
C2142 C 0.789 0.21786 0.58992 0.0
C2143 C 0.79723 0.23381 0.58264 0.0
C2144 C 0.79386 0.25106 0.59076 0.0
C2145 C 0.82053 0.31281 0.67163 0.0
C2146 C 0.83796 0.31472 0.66316 0.0
C2147 C 0.80498 0.30815 0.66113 0.0
C2148 C 0.80648 0.30554 0.64192 0.0
C2149 C 0.82366 0.30843 0.63328 0.0
C2150 C 0.83926 0.31303 0.64379 0.0
C2151 C 0.79066 0.29768 0.6314 0.0
C2152 C 0.79343 0.28092 0.62193 0.0
C2153 C 0.77258 0.30518 0.6326 0.0
C2154 C 0.769 0.32346 0.64133 0.0
C2155 C 0.77922 0.33915 0.63594 0.0
C2156 C 0.77589 0.35631 0.64427 0.0
C2157 C 0.76232 0.35799 0.65795 0.0
C2158 C 0.75201 0.34251 0.66332 0.0
C2159 C 0.75528 0.32532 0.65504 0.0
H2160 H 0.75976 0.37129 0.66438 0.0
H2161 H 0.79157 0.20453 0.58358 0.0
H2162 H 0.99825 0.47046 0.88524 0.0
H2163 H 0.97492 0.49311 0.8945 0.0
H2164 H 0.97788 0.51857 0.84054 0.0
H2165 H 0.0013 0.4959 0.8311 0.0
H2166 H 0.98153 0.54356 0.86903 0.0
H2167 H 0.93975 0.49551 0.85184 0.0
H2168 H 0.92731 0.46373 0.85098 0.0
H2169 H 0.91833 0.4653 0.90974 0.0
H2170 H 0.93099 0.497 0.91102 0.0
H2171 H 0.91739 0.6091 0.89923 0.0
H2172 H 0.92719 0.58325 0.87973 0.0
H2173 H 0.93077 0.54811 0.92791 0.0
H2174 H 0.92066 0.57373 0.94747 0.0
H2175 H 0.92054 0.5285 0.89699 0.0
H2176 H 0.96768 0.57285 0.91504 0.0
H2177 H 0.98071 0.60436 0.91733 0.0
H2178 H 0.9805 0.60907 0.85805 0.0
H2179 H 0.96719 0.57766 0.85542 0.0
C2180 C 0.99383 0.48077 0.87527 0.0
C2181 C 0.00168 0.48145 0.85747 0.0
C2182 C 0.9804 0.49362 0.88054 0.0
C2183 C 0.97457 0.5074 0.86814 0.0
C2184 C 0.98216 0.50797 0.85026 0.0
C2185 C 0.99551 0.49501 0.84491 0.0
C2186 C 0.96164 0.52198 0.87446 0.0
C2187 C 0.96799 0.54034 0.87469 0.0
C2188 C 0.94416 0.51767 0.88223 0.0
C2189 C 0.93644 0.49862 0.88153 0.0
C2190 C 0.93526 0.48904 0.86461 0.0
C2191 C 0.92814 0.47104 0.86404 0.0
C2192 C 0.92206 0.46249 0.8803 0.0
C2193 C 0.92305 0.47194 0.89716 0.0
C2194 C 0.93017 0.48994 0.8978 0.0
C2195 C 0.91975 0.59573 0.90562 0.0
C2196 C 0.91867 0.59356 0.92495 0.0
C2197 C 0.92535 0.58099 0.89445 0.0
C2198 C 0.93012 0.56393 0.90246 0.0
C2199 C 0.92726 0.56121 0.92148 0.0
C2200 C 0.92155 0.57591 0.93266 0.0
C2201 C 0.94058 0.54994 0.89175 0.0
C2202 C 0.93386 0.53174 0.89084 0.0
C2203 C 0.95784 0.55431 0.88351 0.0
C2204 C 0.96624 0.57301 0.88504 0.0
C2205 C 0.97032 0.58065 0.9025 0.0
C2206 C 0.97775 0.59848 0.90386 0.0
C2207 C 0.98137 0.60873 0.88785 0.0
C2208 C 0.97765 0.60113 0.87044 0.0
C2209 C 0.97016 0.58331 0.869 0.0
H2210 H 0.9871 0.62255 0.88893 0.0
H2211 H 0.91656 0.44856 0.87983 0.0
H2212 H 0.6834 0.66672 0.19562 0.0
H2213 H 0.71074 0.68022 0.18104 0.0
H2214 H 0.68032 0.68741 0.13017 0.0
H2215 H 0.65285 0.67387 0.14458 0.0
H2216 H 0.72042 0.68062 0.12576 0.0
H2217 H 0.67652 0.72042 0.15833 0.0
H2218 H 0.65758 0.72765 0.18585 0.0
H2219 H 0.70673 0.73087 0.21917 0.0
H2220 H 0.72595 0.72331 0.1919 0.0
H2221 H 0.7611 0.76189 0.08815 0.0
H2222 H 0.74055 0.73752 0.09948 0.0
H2223 H 0.76441 0.74268 0.15407 0.0
H2224 H 0.78446 0.76757 0.14298 0.0
H2225 H 0.72901 0.74126 0.15704 0.0
H2226 H 0.77366 0.70511 0.12409 0.0
H2227 H 0.7929 0.69626 0.0973 0.0
H2228 H 0.74394 0.68523 0.06538 0.0
H2229 H 0.72438 0.69429 0.09189 0.0
C2230 C 0.68266 0.67056 0.18114 0.0
C2231 C 0.6658 0.66967 0.17141 0.0
C2232 C 0.69833 0.67823 0.17282 0.0
C2233 C 0.69738 0.68512 0.15467 0.0
C2234 C 0.68128 0.68222 0.14422 0.0
C2235 C 0.66556 0.67455 0.15253 0.0
C2236 C 0.71155 0.69832 0.14801 0.0
C2237 C 0.72232 0.69392 0.13247 0.0
C2238 C 0.71409 0.71555 0.157 0.0
C2239 C 0.70264 0.72109 0.17314 0.0
C2240 C 0.68328 0.72259 0.17154 0.0
C2241 C 0.67249 0.72669 0.18709 0.0
C2242 C 0.68095 0.72952 0.20426 0.0
C2243 C 0.70021 0.72851 0.20588 0.0
C2244 C 0.71106 0.72435 0.19038 0.0
C2245 C 0.76202 0.75777 0.10255 0.0
C2246 C 0.77435 0.76668 0.1147 0.0
C2247 C 0.75036 0.74373 0.10899 0.0
C2248 C 0.75109 0.73804 0.12759 0.0
C2249 C 0.76358 0.7468 0.13966 0.0
C2250 C 0.77504 0.76103 0.13331 0.0
C2251 C 0.73821 0.72365 0.13471 0.0
C2252 C 0.72744 0.72791 0.15034 0.0
C2253 C 0.73583 0.70629 0.12582 0.0
C2254 C 0.74755 0.70053 0.10994 0.0
C2255 C 0.76699 0.7009 0.11132 0.0
C2256 C 0.77795 0.69584 0.09619 0.0
C2257 C 0.76965 0.69023 0.07964 0.0
C2258 C 0.75035 0.68959 0.07821 0.0
C2259 C 0.73932 0.69468 0.09329 0.0
H2260 H 0.77816 0.68633 0.06793 0.0
H2261 H 0.6726 0.73271 0.21628 0.0
H2262 H 0.48629 0.5279 0.37717 0.0
H2263 H 0.51158 0.5067 0.38457 0.0
H2264 H 0.51786 0.49362 0.32662 0.0
H2265 H 0.49252 0.51489 0.31904 0.0
H2266 H 0.51497 0.46272 0.34895 0.0
H2267 H 0.55096 0.5179 0.3469 0.0
H2268 H 0.55862 0.55043 0.35385 0.0
H2269 H 0.56173 0.53764 0.41185 0.0
H2270 H 0.55381 0.50507 0.40529 0.0
H2271 H 0.58226 0.3991 0.37747 0.0
H2272 H 0.57171 0.42649 0.36055 0.0
H2273 H 0.55966 0.45386 0.41227 0.0
H2274 H 0.57064 0.42689 0.42924 0.0
H2275 H 0.56995 0.47869 0.38702 0.0
H2276 H 0.52705 0.42691 0.39019 0.0
H2277 H 0.51741 0.39455 0.38493 0.0
H2278 H 0.52541 0.4014 0.32639 0.0
H2279 H 0.53535 0.43375 0.33136 0.0
C2280 C 0.49312 0.52062 0.36597 0.0
C2281 C 0.48737 0.523 0.34753 0.0
C2282 C 0.50767 0.50863 0.37021 0.0
C2283 C 0.51671 0.49877 0.35611 0.0
C2284 C 0.51112 0.50122 0.33767 0.0
C2285 C 0.49665 0.51335 0.33338 0.0
C2286 C 0.53095 0.48485 0.36096 0.0
C2287 C 0.52728 0.46624 0.35684 0.0
C2288 C 0.54676 0.48948 0.37157 0.0
C2289 C 0.5517 0.50904 0.37559 0.0
C2290 C 0.55316 0.52204 0.36115 0.0
C2291 C 0.55756 0.54049 0.36502 0.0
C2292 C 0.56064 0.54611 0.38328 0.0
C2293 C 0.55935 0.53327 0.39771 0.0
C2294 C 0.55493 0.5148 0.39392 0.0
C2295 C 0.57787 0.41115 0.38525 0.0
C2296 C 0.57689 0.41066 0.4047 0.0
C2297 C 0.57179 0.42677 0.37555 0.0
C2298 C 0.56443 0.44201 0.38515 0.0
C2299 C 0.56516 0.44222 0.40456 0.0
C2300 C 0.57137 0.42671 0.41426 0.0
C2301 C 0.55371 0.45654 0.37537 0.0
C2302 C 0.55796 0.47523 0.37864 0.0
C2303 C 0.53824 0.45202 0.36417 0.0
C2304 C 0.53217 0.43263 0.36117 0.0
C2305 C 0.52687 0.42146 0.37622 0.0
C2306 C 0.52134 0.40314 0.37329 0.0
C2307 C 0.52086 0.3959 0.35535 0.0
C2308 C 0.52584 0.407 0.34029 0.0
C2309 C 0.53143 0.42533 0.34315 0.0
H2310 H 0.51657 0.38172 0.3531 0.0
H2311 H 0.56404 0.5604 0.38625 0.0
H2312 H 0.36955 0.23275 0.26462 0.0
H2313 H 0.36097 0.25448 0.2401 0.0
H2314 H 0.41752 0.27347 0.23692 0.0
H2315 H 0.42628 0.25168 0.26139 0.0
H2316 H 0.39174 0.30191 0.24034 0.0
H2317 H 0.40141 0.24856 0.20246 0.0
H2318 H 0.39784 0.21589 0.19321 0.0
H2319 H 0.33925 0.22382 0.18666 0.0
H2320 H 0.34242 0.25648 0.19615 0.0
H2321 H 0.3673 0.36514 0.17194 0.0
H2322 H 0.38395 0.33799 0.18342 0.0
H2323 H 0.33219 0.30884 0.18981 0.0
H2324 H 0.3155 0.33566 0.17797 0.0
H2325 H 0.3599 0.28493 0.18181 0.0
H2326 H 0.34874 0.33504 0.22471 0.0
H2327 H 0.35041 0.36746 0.23535 0.0
H2328 H 0.40984 0.36507 0.23422 0.0
H2329 H 0.40851 0.3327 0.22327 0.0
C2330 C 0.38019 0.24147 0.25863 0.0
C2331 C 0.39858 0.24055 0.26498 0.0
C2332 C 0.37529 0.25378 0.24454 0.0
C2333 C 0.38865 0.26544 0.2366 0.0
C2334 C 0.40704 0.2645 0.24282 0.0
C2335 C 0.412 0.25205 0.25679 0.0
C2336 C 0.38309 0.27947 0.22271 0.0
C2337 C 0.38519 0.29821 0.22733 0.0
C2338 C 0.37411 0.27457 0.20599 0.0
C2339 C 0.37215 0.25495 0.20015 0.0
C2340 C 0.38774 0.24331 0.19919 0.0
C2341 C 0.38579 0.22479 0.19387 0.0
C2342 C 0.36832 0.21777 0.18938 0.0
C2343 C 0.35277 0.22927 0.19015 0.0
C2344 C 0.35465 0.2478 0.19547 0.0
C2345 C 0.3595 0.35275 0.17522 0.0
C2346 C 0.34003 0.35273 0.17446 0.0
C2347 C 0.36904 0.33726 0.18182 0.0
C2348 C 0.35925 0.32161 0.18795 0.0
C2349 C 0.34002 0.32082 0.1853 0.0
C2350 C 0.33048 0.33624 0.17857 0.0
C2351 C 0.36844 0.30734 0.19953 0.0
C2352 C 0.36688 0.2886 0.1946 0.0
C2353 C 0.37769 0.31218 0.21616 0.0
C2354 C 0.37853 0.33155 0.22295 0.0
C2355 C 0.36216 0.34148 0.22661 0.0
C2356 C 0.36304 0.35983 0.2327 0.0
C2357 C 0.38022 0.36834 0.23541 0.0
C2358 C 0.39655 0.35848 0.23208 0.0
C2359 C 0.39574 0.34013 0.22592 0.0
H2360 H 0.38088 0.38255 0.24012 0.0
H2361 H 0.36684 0.20343 0.18527 0.0
H2362 H 0.8732 0.14416 0.81233 0.0
H2363 H 0.88488 0.17364 0.80053 0.0
H2364 H 0.83236 0.19942 0.81258 0.0
H2365 H 0.82055 0.17007 0.82442 0.0
H2366 H 0.84171 0.20031 0.77572 0.0
H2367 H 0.87023 0.21483 0.83373 0.0
H2368 H 0.88984 0.20917 0.8611 0.0
H2369 H 0.93756 0.20319 0.82612 0.0
H2370 H 0.91819 0.20855 0.79849 0.0
H2371 H 0.86501 0.28386 0.73139 0.0
H2372 H 0.85568 0.26192 0.75541 0.0
H2373 H 0.90951 0.23602 0.75277 0.0
H2374 H 0.91914 0.25837 0.72923 0.0
H2375 H 0.89858 0.23707 0.78725 0.0
H2376 H 0.87098 0.2187 0.7297 0.0
H2377 H 0.85216 0.2217 0.70137 0.0
H2378 H 0.80362 0.23171 0.73426 0.0
H2379 H 0.82224 0.22915 0.7628 0.0
C2380 C 0.86432 0.15623 0.81305 0.0
C2381 C 0.84582 0.15467 0.81895 0.0
C2382 C 0.87105 0.1731 0.80634 0.0
C2383 C 0.85941 0.18864 0.80554 0.0
C2384 C 0.84152 0.18754 0.81302 0.0
C2385 C 0.83481 0.17073 0.81978 0.0
C2386 C 0.86469 0.20486 0.79417 0.0
C2387 C 0.85391 0.20867 0.77847 0.0
C2388 C 0.88101 0.21517 0.79741 0.0
C2389 C 0.89271 0.21195 0.81401 0.0
C2390 C 0.88488 0.21215 0.83184 0.0
C2391 C 0.89596 0.20903 0.84742 0.0
C2392 C 0.91493 0.20578 0.84535 0.0
C2393 C 0.92286 0.2057 0.8277 0.0
C2394 C 0.91184 0.2088 0.81208 0.0
C2395 C 0.87489 0.27355 0.73601 0.0
C2396 C 0.89274 0.2727 0.72831 0.0
C2397 C 0.86953 0.261 0.74972 0.0
C2398 C 0.88178 0.2471 0.75566 0.0
C2399 C 0.89982 0.24661 0.7484 0.0
C2400 C 0.90528 0.25934 0.73489 0.0
C2401 C 0.87555 0.23255 0.76877 0.0
C2402 C 0.88621 0.22894 0.78467 0.0
C2403 C 0.85923 0.22212 0.76557 0.0
C2404 C 0.84807 0.22401 0.74839 0.0
C2405 C 0.85634 0.22177 0.73089 0.0
C2406 C 0.8457 0.22336 0.71479 0.0
C2407 C 0.82672 0.22698 0.71601 0.0
C2408 C 0.81834 0.229 0.73333 0.0
C2409 C 0.82894 0.22749 0.74948 0.0
H2410 H 0.8185 0.22815 0.70353 0.0
H2411 H 0.92348 0.20337 0.85742 0.0
H2412 H 0.97225 0.6722 0.99803 0.0
H2413 H 0.99793 0.66152 0.01743 0.0
H2414 H 0.97927 0.60512 0.01129 0.0
H2415 H 0.95372 0.61561 0.99168 0.0
H2416 H 0.99396 0.61474 0.04798 0.0
H2417 H 0.00865 0.61797 0.98223 0.0
H2418 H 0.01029 0.63445 0.95235 0.0
H2419 H 0.04661 0.67496 0.97639 0.0
H2420 H 0.04489 0.65887 0.00653 0.0
H2421 H 0.071 0.55491 0.05105 0.0
H2422 H 0.04297 0.57297 0.04593 0.0
H2423 H 0.07538 0.62316 0.04436 0.0
H2424 H 0.10364 0.60508 0.04907 0.0
H2425 H 0.05404 0.6213 0.0152 0.0
H2426 H 0.04396 0.61459 0.07978 0.0
H2427 H 0.04163 0.59858 0.10985 0.0
H2428 H 0.99689 0.56536 0.08906 0.0
H2429 H 0.99911 0.58098 0.05877 0.0
C2430 C 0.97338 0.65756 0.00111 0.0
C2431 C 0.96118 0.64469 0.99308 0.0
C2432 C 0.98802 0.65151 0.01223 0.0
C2433 C 0.99051 0.63254 0.01563 0.0
C2434 C 0.97752 0.61982 0.00883 0.0
C2435 C 0.96302 0.62582 0.99753 0.0
C2436 C 0.00787 0.62569 0.02403 0.0
C2437 C 0.00714 0.61611 0.0409 0.0
C2438 C 0.02504 0.62793 0.01489 0.0
C2439 C 0.02646 0.63736 0.99668 0.0
C2440 C 0.01687 0.63047 0.98118 0.0
C2441 C 0.01782 0.63973 0.96419 0.0
C2442 C 0.02849 0.65578 0.96249 0.0
C2443 C 0.03831 0.66255 0.97775 0.0
C2444 C 0.03735 0.65337 0.99478 0.0
C2445 C 0.07217 0.56982 0.04996 0.0
C2446 C 0.08959 0.57853 0.0503 0.0
C2447 C 0.05608 0.58017 0.04715 0.0
C2448 C 0.05702 0.59947 0.04486 0.0
C2449 C 0.07431 0.60829 0.04608 0.0
C2450 C 0.09045 0.59793 0.04881 0.0
C2451 C 0.04028 0.61 0.03922 0.0
C2452 C 0.04105 0.62023 0.02268 0.0
C2453 C 0.02319 0.60837 0.04874 0.0
C2454 C 0.02179 0.59889 0.06694 0.0
C2455 C 0.03371 0.60377 0.08156 0.0
C2456 C 0.03239 0.59478 0.09866 0.0
C2457 C 0.01914 0.58094 0.10135 0.0
C2458 C 0.00715 0.57608 0.08696 0.0
C2459 C 0.00842 0.58502 0.06982 0.0
H2460 H 0.01814 0.574 0.1146 0.0
H2461 H 0.0292 0.66294 0.94933 0.0
H2462 H 0.64599 0.85167 0.31197 0.0
H2463 H 0.63234 0.82338 0.29921 0.0
H2464 H 0.68649 0.79829 0.2967 0.0
H2465 H 0.70024 0.82635 0.30952 0.0
H2466 H 0.66807 0.79995 0.26271 0.0
H2467 H 0.65594 0.78098 0.3254 0.0
H2468 H 0.64344 0.78443 0.35699 0.0
H2469 H 0.58838 0.78938 0.335 0.0
H2470 H 0.60059 0.78622 0.30324 0.0
H2471 H 0.64434 0.71242 0.22734 0.0
H2472 H 0.65588 0.73684 0.24772 0.0
H2473 H 0.60037 0.75807 0.25396 0.0
H2474 H 0.58864 0.7335 0.23378 0.0
H2475 H 0.61878 0.75847 0.28661 0.0
H2476 H 0.62966 0.77763 0.22458 0.0
H2477 H 0.64108 0.77633 0.19246 0.0
H2478 H 0.69716 0.77392 0.21213 0.0
H2479 H 0.68606 0.77456 0.24442 0.0
C2480 C 0.65493 0.83997 0.30916 0.0
C2481 C 0.67424 0.84135 0.31153 0.0
C2482 C 0.6471 0.8238 0.30189 0.0
C2483 C 0.65845 0.80883 0.29692 0.0
C2484 C 0.67753 0.80975 0.3004 0.0
C2485 C 0.68535 0.82581 0.30776 0.0
C2486 C 0.65086 0.79318 0.28609 0.0
C2487 C 0.65754 0.79063 0.26804 0.0
C2488 C 0.63657 0.78163 0.29284 0.0
C2489 C 0.62921 0.78356 0.31193 0.0
C2490 C 0.64119 0.78299 0.32728 0.0
C2491 C 0.63415 0.78485 0.34522 0.0
C2492 C 0.61513 0.78718 0.348 0.0
C2493 C 0.60311 0.7876 0.33283 0.0
C2494 C 0.61008 0.78576 0.31486 0.0
C2495 C 0.63456 0.72224 0.2331 0.0
C2496 C 0.6156 0.72113 0.22883 0.0
C2497 C 0.64119 0.73619 0.24472 0.0
C2498 C 0.62901 0.74941 0.25213 0.0
C2499 C 0.60999 0.74802 0.24836 0.0
C2500 C 0.60333 0.73401 0.23678 0.0
C2501 C 0.63626 0.765 0.26331 0.0
C2502 C 0.62943 0.76767 0.28133 0.0
C2503 C 0.65028 0.77688 0.25643 0.0
C2504 C 0.65699 0.77592 0.23698 0.0
C2505 C 0.64441 0.77653 0.22209 0.0
C2506 C 0.65084 0.77596 0.20384 0.0
C2507 C 0.66983 0.77507 0.20026 0.0
C2508 C 0.68244 0.77466 0.21493 0.0
C2509 C 0.67609 0.77504 0.23322 0.0
H2510 H 0.67478 0.77464 0.18611 0.0
H2511 H 0.60971 0.78861 0.3619 0.0
H2512 H 0.42629 0.43558 0.58332 0.0
H2513 H 0.45502 0.42179 0.57211 0.0
H2514 H 0.42512 0.37322 0.5545 0.0
H2515 H 0.39616 0.38695 0.56552 0.0
H2516 H 0.4645 0.36748 0.56813 0.0
H2517 H 0.42692 0.40234 0.52432 0.0
H2518 H 0.40881 0.42977 0.51498 0.0
H2519 H 0.45688 0.46414 0.52185 0.0
H2520 H 0.47517 0.43693 0.53159 0.0
H2521 H 0.51818 0.33835 0.49035 0.0
H2522 H 0.49469 0.34645 0.5133 0.0
H2523 H 0.5175 0.40158 0.51726 0.0
H2524 H 0.54058 0.39376 0.49384 0.0
H2525 H 0.48224 0.40372 0.51244 0.0
H2526 H 0.52104 0.36867 0.55319 0.0
H2527 H 0.53922 0.34166 0.56347 0.0
H2528 H 0.49016 0.30804 0.56295 0.0
H2529 H 0.47169 0.33482 0.55248 0.0
C2530 C 0.42584 0.42172 0.5776 0.0
C2531 C 0.40888 0.41254 0.57491 0.0
C2532 C 0.44231 0.41385 0.57126 0.0
C2533 C 0.44207 0.39664 0.56228 0.0
C2534 C 0.42552 0.38653 0.56141 0.0
C2535 C 0.40898 0.39446 0.56762 0.0
C2536 C 0.4581 0.39095 0.55092 0.0
C2537 C 0.46839 0.37526 0.55587 0.0
C2538 C 0.46321 0.40134 0.53514 0.0
C2539 C 0.45235 0.41765 0.52889 0.0
C2540 C 0.43358 0.41577 0.52399 0.0
C2541 C 0.42329 0.43128 0.51861 0.0
C2542 C 0.43167 0.4487 0.51787 0.0
C2543 C 0.45039 0.45064 0.52246 0.0
C2544 C 0.46072 0.43518 0.52791 0.0
C2545 C 0.51832 0.35213 0.49627 0.0
C2546 C 0.5311 0.36549 0.49015 0.0
C2547 C 0.50495 0.35671 0.5095 0.0
C2548 C 0.50437 0.37461 0.51711 0.0
C2549 C 0.51762 0.38771 0.51154 0.0
C2550 C 0.53081 0.38322 0.49815 0.0
C2551 C 0.48904 0.38022 0.52962 0.0
C2552 C 0.47865 0.39593 0.52479 0.0
C2553 C 0.48398 0.36984 0.54551 0.0
C2554 C 0.49501 0.35373 0.55191 0.0
C2555 C 0.51414 0.35549 0.55515 0.0
C2556 C 0.5245 0.34022 0.56104 0.0
C2557 C 0.51586 0.32313 0.56383 0.0
C2558 C 0.49683 0.32129 0.56078 0.0
C2559 C 0.48641 0.33651 0.5549 0.0
H2560 H 0.52389 0.31132 0.56837 0.0
H2561 H 0.42369 0.46069 0.5137 0.0
H2562 H 0.19465 0.6706 0.67369 0.0
H2563 H 0.1793 0.69821 0.68564 0.0
H2564 H 0.12826 0.66773 0.69121 0.0
H2565 H 0.14351 0.6399 0.67938 0.0
H2566 H 0.12481 0.70818 0.682 0.0
H2567 H 0.15319 0.66507 0.7256 0.0
H2568 H 0.17938 0.64594 0.73639 0.0
H2569 H 0.21331 0.69456 0.74112 0.0
H2570 H 0.18741 0.71393 0.72996 0.0
H2571 H 0.08177 0.75104 0.75943 0.0
H2572 H 0.09464 0.72995 0.73631 0.0
H2573 H 0.14875 0.75413 0.74423 0.0
H2574 H 0.13608 0.7749 0.76771 0.0
H2575 H 0.15135 0.71828 0.74464 0.0
H2576 H 0.12256 0.76222 0.70459 0.0
H2577 H 0.09732 0.7818 0.6925 0.0
H2578 H 0.06513 0.73333 0.68023 0.0
H2579 H 0.09007 0.71344 0.6925 0.0
C2580 C 0.18001 0.66986 0.67684 0.0
C2581 C 0.17041 0.65293 0.67602 0.0
C2582 C 0.17126 0.6857 0.68364 0.0
C2583 C 0.15278 0.68485 0.68956 0.0
C2584 C 0.14256 0.66859 0.68672 0.0
C2585 C 0.15133 0.65269 0.68005 0.0
C2586 C 0.14535 0.69949 0.70175 0.0
C2587 C 0.13046 0.71039 0.69574 0.0
C2588 C 0.15304 0.70247 0.71952 0.0
C2589 C 0.16844 0.69091 0.72675 0.0
C2590 C 0.16628 0.67166 0.72881 0.0
C2591 C 0.18106 0.66078 0.735 0.0
C2592 C 0.19801 0.66903 0.73939 0.0
C2593 C 0.20019 0.68819 0.73767 0.0
C2594 C 0.18546 0.69912 0.73142 0.0
C2595 C 0.09639 0.75194 0.75617 0.0
C2596 C 0.10792 0.76459 0.76545 0.0
C2597 C 0.10371 0.73996 0.74285 0.0
C2598 C 0.12263 0.7406 0.73836 0.0
C2599 C 0.13411 0.75339 0.74746 0.0
C2600 C 0.12684 0.76525 0.76088 0.0
C2601 C 0.13068 0.72723 0.72499 0.0
C2602 C 0.1457 0.71636 0.73085 0.0
C2603 C 0.12315 0.72444 0.70707 0.0
C2604 C 0.10813 0.73634 0.69962 0.0
C2605 C 0.11004 0.75573 0.69945 0.0
C2606 C 0.0958 0.76689 0.69254 0.0
C2607 C 0.07962 0.75882 0.68564 0.0
C2608 C 0.07766 0.73956 0.6856 0.0
C2609 C 0.09186 0.72834 0.69251 0.0
H2610 H 0.06861 0.76748 0.6803 0.0
H2611 H 0.20944 0.66059 0.74418 0.0
H2612 H 0.4766 0.88072 0.01264 0.0
H2613 H 0.49865 0.88787 0.98794 0.0
H2614 H 0.51345 0.83011 0.98423 0.0
H2615 H 0.49136 0.82281 0.00888 0.0
H2616 H 0.54363 0.85353 0.98814 0.0
H2617 H 0.48987 0.84861 0.9498 0.0
H2618 H 0.45766 0.85494 0.94038 0.0
H2619 H 0.47037 0.91275 0.93459 0.0
H2620 H 0.5026 0.90682 0.94426 0.0
H2621 H 0.60892 0.87263 0.92044 0.0
H2622 H 0.58001 0.85856 0.93102 0.0
H2623 H 0.55632 0.91281 0.93893 0.0
H2624 H 0.58496 0.927 0.92808 0.0
H2625 H 0.52965 0.88724 0.92985 0.0
H2626 H 0.58012 0.8939 0.97323 0.0
H2627 H 0.61231 0.88961 0.98384 0.0
H2628 H 0.60536 0.83057 0.9819 0.0
H2629 H 0.5732 0.83454 0.97095 0.0
C2630 C 0.48443 0.86952 0.00646 0.0
C2631 C 0.48231 0.85121 0.01276 0.0
C2632 C 0.49692 0.8736 0.99227 0.0
C2633 C 0.50755 0.85948 0.98418 0.0
C2634 C 0.50529 0.84117 0.99025 0.0
C2635 C 0.49267 0.83704 0.00432 0.0
C2636 C 0.52206 0.86412 0.97045 0.0
C2637 C 0.54054 0.86048 0.97517 0.0
C2638 C 0.518 0.87366 0.95381 0.0
C2639 C 0.49864 0.87728 0.94789 0.0
C2640 C 0.48577 0.8627 0.94666 0.0
C2641 C 0.46751 0.86621 0.94125 0.0
C2642 C 0.46196 0.88424 0.93692 0.0
C2643 C 0.47468 0.89879 0.93796 0.0
C2644 C 0.49296 0.89536 0.94338 0.0
C2645 C 0.59736 0.88157 0.92383 0.0
C2646 C 0.5994 0.90094 0.92388 0.0
C2647 C 0.58085 0.8735 0.92989 0.0
C2648 C 0.56623 0.88467 0.93621 0.0
C2649 C 0.56748 0.90394 0.93425 0.0
C2650 C 0.58394 0.91203 0.92811 0.0
C2651 C 0.55116 0.87667 0.9476 0.0
C2652 C 0.53265 0.87985 0.94258 0.0
C2653 C 0.55513 0.86694 0.96417 0.0
C2654 C 0.57435 0.86451 0.97106 0.0
C2655 C 0.5855 0.88001 0.97495 0.0
C2656 C 0.60374 0.87764 0.98103 0.0
C2657 C 0.6109 0.85983 0.98349 0.0
C2658 C 0.59981 0.84436 0.97994 0.0
C2659 C 0.58158 0.84665 0.97379 0.0
H2660 H 0.62502 0.85802 0.98819 0.0
H2661 H 0.44782 0.88693 0.93273 0.0
H2662 H 0.92274 0.05532 0.43389 0.0
H2663 H 0.94838 0.06951 0.45068 0.0
H2664 H 0.91938 0.12168 0.45143 0.0
H2665 H 0.89347 0.1076 0.43473 0.0
H2666 H 0.96134 0.12309 0.44901 0.0
H2667 H 0.91018 0.09854 0.4852 0.0
H2668 H 0.88741 0.07412 0.4925 0.0
H2669 H 0.93158 0.03608 0.50428 0.0
H2670 H 0.95463 0.06022 0.49674 0.0
H2671 H 0.00177 0.16023 0.53059 0.0
H2672 H 0.97866 0.1502 0.50795 0.0
H2673 H 0.9976 0.09379 0.51347 0.0
H2674 H 0.02055 0.10362 0.53626 0.0
H2675 H 0.96037 0.0955 0.51204 0.0
H2676 H 0.01169 0.1201 0.47766 0.0
H2677 H 0.03482 0.14381 0.46931 0.0
H2678 H 0.99128 0.18112 0.45347 0.0
H2679 H 0.96786 0.15774 0.46205 0.0
C2680 C 0.92202 0.06997 0.43704 0.0
C2681 C 0.90587 0.08022 0.43337 0.0
C2682 C 0.93672 0.07805 0.44662 0.0
C2683 C 0.93555 0.09651 0.45252 0.0
C2684 C 0.92045 0.10738 0.447 0.0
C2685 C 0.90564 0.09927 0.43751 0.0
C2686 C 0.94827 0.10328 0.46703 0.0
C2687 C 0.96105 0.11727 0.46285 0.0
C2688 C 0.94792 0.09544 0.48498 0.0
C2689 C 0.93412 0.08112 0.49023 0.0
C2690 C 0.91504 0.08494 0.48925 0.0
C2691 C 0.90208 0.07116 0.49343 0.0
C2692 C 0.90805 0.05355 0.49878 0.0
C2693 C 0.92699 0.04973 0.5001 0.0
C2694 C 0.94 0.06345 0.49589 0.0
C2695 C 0.00091 0.14567 0.52711 0.0
C2696 C 0.01309 0.13274 0.53511 0.0
C2697 C 0.98775 0.13998 0.51411 0.0
C2698 C 0.98664 0.1213 0.50881 0.0
C2699 C 0.99829 0.10828 0.51731 0.0
C2700 C 0.01141 0.11394 0.53032 0.0
C2701 C 0.97366 0.11533 0.4941 0.0
C2702 C 0.96072 0.10144 0.49824 0.0
C2703 C 0.97395 0.12326 0.47613 0.0
C2704 C 0.98801 0.13723 0.47068 0.0
C2705 C 0.00704 0.13341 0.47252 0.0
C2706 C 0.0202 0.14678 0.46774 0.0
C2707 C 0.01452 0.16397 0.46091 0.0
C2708 C 0.99566 0.1678 0.45879 0.0
C2709 C 0.98243 0.15449 0.46361 0.0
H2710 H 0.02473 0.17431 0.45722 0.0
H2711 H 0.898 0.04289 0.5019 0.0
loop_
_geom_bond_atom_site_label_1
_geom_bond_atom_site_label_2
_geom_bond_distance
_geom_bond_site_symmetry_2
_ccdc_geom_bond_type
C0 O1 1.160 . S
C0 O7 1.185 . S
O1 C0 1.160 . S
O2 Zn3 1.899 . S
O2 C10 1.284 . S
Zn3 O2 1.899 . S
Zn3 O4 2.032 . S
Zn3 O7 2.086 . S
Zn3 O12 1.977 . S
O4 Zn3 2.032 . S
O4 C8 1.278 . S
C5 O6 1.203 . S
C5 O12 1.267 . S
O6 C5 1.203 . S
O7 C0 1.185 . S
O7 Zn3 2.086 . S
C8 O4 1.278 . S
C8 O9 1.211 . S
O9 C8 1.211 . S
C10 O2 1.284 . S
C10 O11 1.273 . S
O11 C10 1.273 . S
O12 Zn3 1.977 . S
O12 C5 1.267 . S
C13 O14 1.160 . S
C13 O20 1.185 . S
O14 C13 1.160 . S
O15 Zn16 1.899 . S
O15 C23 1.284 . S
Zn16 O15 1.899 . S
Zn16 O17 2.032 . S
Zn16 O20 2.086 . S
Zn16 O25 1.977 . S
O17 Zn16 2.032 . S
O17 C21 1.278 . S
C18 O19 1.203 . S
C18 O25 1.267 . S
O19 C18 1.203 . S
O20 C13 1.185 . S
O20 Zn16 2.086 . S
C21 O17 1.278 . S
C21 O22 1.211 . S
O22 C21 1.211 . S
C23 O15 1.284 . S
C23 O24 1.273 . S
O24 C23 1.273 . S
O25 Zn16 1.977 . S
O25 C18 1.267 . S
C26 O27 1.160 . S
C26 O33 1.185 . S
O27 C26 1.160 . S
O28 Zn29 1.899 . S
O28 C36 1.284 . S
Zn29 O28 1.899 . S
Zn29 O30 2.032 . S
Zn29 O33 2.086 . S
Zn29 O38 1.977 . S
O30 Zn29 2.032 . S
O30 C34 1.278 . S
C31 O32 1.203 . S
C31 O38 1.267 . S
O32 C31 1.203 . S
O33 C26 1.185 . S
O33 Zn29 2.086 . S
C34 O30 1.278 . S
C34 O35 1.211 . S
O35 C34 1.211 . S
C36 O28 1.284 . S
C36 O37 1.273 . S
O37 C36 1.273 . S
O38 Zn29 1.977 . S
O38 C31 1.267 . S
C39 O40 1.160 . S
C39 O46 1.185 . S
O40 C39 1.160 . S
O41 Zn42 1.899 . S
O41 C49 1.284 . S
Zn42 O41 1.899 . S
Zn42 O43 2.032 . S
Zn42 O46 2.086 . S
Zn42 O51 1.977 . S
O43 Zn42 2.032 . S
O43 C47 1.278 . S
C44 O45 1.203 . S
C44 O51 1.267 . S
O45 C44 1.203 . S
O46 C39 1.185 . S
O46 Zn42 2.086 . S
C47 O43 1.278 . S
C47 O48 1.211 . S
O48 C47 1.211 . S
C49 O41 1.284 . S
C49 O50 1.273 . S
O50 C49 1.273 . S
O51 Zn42 1.977 . S
O51 C44 1.267 . S
C52 O53 1.160 . S
C52 O59 1.185 . S
O53 C52 1.160 . S
O54 Zn55 1.899 . S
O54 C62 1.284 . S
Zn55 O54 1.899 . S
Zn55 O56 2.032 . S
Zn55 O59 2.086 . S
Zn55 O64 1.977 . S
O56 Zn55 2.032 . S
O56 C60 1.278 . S
C57 O58 1.203 . S
C57 O64 1.267 . S
O58 C57 1.203 . S
O59 C52 1.185 . S
O59 Zn55 2.086 . S
C60 O56 1.278 . S
C60 O61 1.211 . S
O61 C60 1.211 . S
C62 O54 1.284 . S
C62 O63 1.273 . S
O63 C62 1.273 . S
O64 Zn55 1.977 . S
O64 C57 1.267 . S
C65 O66 1.160 . S
C65 O72 1.185 . S
O66 C65 1.160 . S
O67 Zn68 1.899 . S
O67 C75 1.284 . S
Zn68 O67 1.899 . S
Zn68 O69 2.032 . S
Zn68 O72 2.086 . S
Zn68 O77 1.977 . S
O69 Zn68 2.032 . S
O69 C73 1.278 . S
C70 O71 1.203 . S
C70 O77 1.267 . S
O71 C70 1.203 . S
O72 C65 1.185 . S
O72 Zn68 2.086 . S
C73 O69 1.278 . S
C73 O74 1.211 . S
O74 C73 1.211 . S
C75 O67 1.284 . S
C75 O76 1.273 . S
O76 C75 1.273 . S
O77 Zn68 1.977 . S
O77 C70 1.267 . S
C78 O79 1.160 . S
C78 O85 1.185 . S
O79 C78 1.160 . S
O80 Zn81 1.899 . S
O80 C88 1.284 . S
Zn81 O80 1.899 . S
Zn81 O82 2.032 . S
Zn81 O85 2.086 . S
Zn81 O90 1.977 . S
O82 Zn81 2.032 . S
O82 C86 1.278 . S
C83 O84 1.203 . S
C83 O90 1.267 . S
O84 C83 1.203 . S
O85 C78 1.185 . S
O85 Zn81 2.086 . S
C86 O82 1.278 . S
C86 O87 1.211 . S
O87 C86 1.211 . S
C88 O80 1.284 . S
C88 O89 1.273 . S
O89 C88 1.273 . S
O90 Zn81 1.977 . S
O90 C83 1.267 . S
C91 O92 1.160 . S
C91 O98 1.185 . S
O92 C91 1.160 . S
O93 Zn94 1.899 . S
O93 C101 1.284 . S
Zn94 O93 1.899 . S
Zn94 O95 2.032 . S
Zn94 O98 2.086 . S
Zn94 O103 1.977 . S
O95 Zn94 2.032 . S
O95 C99 1.278 . S
C96 O97 1.203 . S
C96 O103 1.267 . S
O97 C96 1.203 . S
O98 C91 1.185 . S
O98 Zn94 2.086 . S
C99 O95 1.278 . S
C99 O100 1.211 . S
O100 C99 1.211 . S
C101 O93 1.284 . S
C101 O102 1.273 . S
O102 C101 1.273 . S
O103 Zn94 1.977 . S
O103 C96 1.267 . S
C104 O105 1.160 . S
C104 O111 1.185 . S
O105 C104 1.160 . S
O106 Zn107 1.899 . S
O106 C114 1.284 . S
Zn107 O106 1.899 . S
Zn107 O108 2.032 . S
Zn107 O111 2.086 . S
Zn107 O116 1.977 . S
O108 Zn107 2.032 . S
O108 C112 1.278 . S
C109 O110 1.203 . S
C109 O116 1.267 . S
O110 C109 1.203 . S
O111 C104 1.185 . S
O111 Zn107 2.086 . S
C112 O108 1.278 . S
C112 O113 1.211 . S
O113 C112 1.211 . S
C114 O106 1.284 . S
C114 O115 1.273 . S
O115 C114 1.273 . S
O116 Zn107 1.977 . S
O116 C109 1.267 . S
C117 O118 1.160 . S
C117 O124 1.185 . S
O118 C117 1.160 . S
O119 Zn120 1.899 . S
O119 C127 1.284 . S
Zn120 O119 1.899 . S
Zn120 O121 2.032 . S
Zn120 O124 2.086 . S
Zn120 O129 1.977 . S
O121 Zn120 2.032 . S
O121 C125 1.278 . S
C122 O123 1.203 . S
C122 O129 1.267 . S
O123 C122 1.203 . S
O124 C117 1.185 . S
O124 Zn120 2.086 . S
C125 O121 1.278 . S
C125 O126 1.211 . S
O126 C125 1.211 . S
C127 O119 1.284 . S
C127 O128 1.273 . S
O128 C127 1.273 . S
O129 Zn120 1.977 . S
O129 C122 1.267 . S
C130 O131 1.160 . S
C130 O137 1.185 . S
O131 C130 1.160 . S
O132 Zn133 1.899 . S
O132 C140 1.284 . S
Zn133 O132 1.899 . S
Zn133 O134 2.032 . S
Zn133 O137 2.086 . S
Zn133 O142 1.977 . S
O134 Zn133 2.032 . S
O134 C138 1.278 . S
C135 O136 1.203 . S
C135 O142 1.267 . S
O136 C135 1.203 . S
O137 C130 1.185 . S
O137 Zn133 2.086 . S
C138 O134 1.278 . S
C138 O139 1.211 . S
O139 C138 1.211 . S
C140 O132 1.284 . S
C140 O141 1.273 . S
O141 C140 1.273 . S
O142 Zn133 1.977 . S
O142 C135 1.267 . S
C143 O144 1.160 . S
C143 O150 1.185 . S
O144 C143 1.160 . S
O145 Zn146 1.899 . S
O145 C153 1.284 . S
Zn146 O145 1.899 . S
Zn146 O147 2.032 . S
Zn146 O150 2.086 . S
Zn146 O155 1.977 . S
O147 Zn146 2.032 . S
O147 C151 1.278 . S
C148 O149 1.203 . S
C148 O155 1.267 . S
O149 C148 1.203 . S
O150 C143 1.185 . S
O150 Zn146 2.086 . S
C151 O147 1.278 . S
C151 O152 1.211 . S
O152 C151 1.211 . S
C153 O145 1.284 . S
C153 O154 1.273 . S
O154 C153 1.273 . S
O155 Zn146 1.977 . S
O155 C148 1.267 . S
C156 O157 1.160 . S
C156 O163 1.185 . S
O157 C156 1.160 . S
O158 Zn159 1.899 . S
O158 C166 1.284 . S
Zn159 O158 1.899 . S
Zn159 O160 2.032 . S
Zn159 O163 2.086 . S
Zn159 O168 1.977 . S
O160 Zn159 2.032 . S
O160 C164 1.278 . S
C161 O162 1.203 . S
C161 O168 1.267 . S
O162 C161 1.203 . S
O163 C156 1.185 . S
O163 Zn159 2.086 . S
C164 O160 1.278 . S
C164 O165 1.211 . S
O165 C164 1.211 . S
C166 O158 1.284 . S
C166 O167 1.273 . S
O167 C166 1.273 . S
O168 Zn159 1.977 . S
O168 C161 1.267 . S
C169 O170 1.160 . S
C169 O176 1.185 . S
O170 C169 1.160 . S
O171 Zn172 1.899 . S
O171 C179 1.284 . S
Zn172 O171 1.899 . S
Zn172 O173 2.032 . S
Zn172 O176 2.086 . S
Zn172 O181 1.977 . S
O173 Zn172 2.032 . S
O173 C177 1.278 . S
C174 O175 1.203 . S
C174 O181 1.267 . S
O175 C174 1.203 . S
O176 C169 1.185 . S
O176 Zn172 2.086 . S
C177 O173 1.278 . S
C177 O178 1.211 . S
O178 C177 1.211 . S
C179 O171 1.284 . S
C179 O180 1.273 . S
O180 C179 1.273 . S
O181 Zn172 1.977 . S
O181 C174 1.267 . S
C182 O183 1.160 . S
C182 O189 1.185 . S
O183 C182 1.160 . S
O184 Zn185 1.899 . S
O184 C192 1.284 . S
Zn185 O184 1.899 . S
Zn185 O186 2.032 . S
Zn185 O189 2.086 . S
Zn185 O194 1.977 . S
O186 Zn185 2.032 . S
O186 C190 1.278 . S
C187 O188 1.203 . S
C187 O194 1.267 . S
O188 C187 1.203 . S
O189 C182 1.185 . S
O189 Zn185 2.086 . S
C190 O186 1.278 . S
C190 O191 1.211 . S
O191 C190 1.211 . S
C192 O184 1.284 . S
C192 O193 1.273 . S
O193 C192 1.273 . S
O194 Zn185 1.977 . S
O194 C187 1.267 . S
C195 O196 1.160 . S
C195 O202 1.185 . S
O196 C195 1.160 . S
O197 Zn198 1.899 . S
O197 C205 1.284 . S
Zn198 O197 1.899 . S
Zn198 O199 2.032 . S
Zn198 O202 2.086 . S
Zn198 O207 1.977 . S
O199 Zn198 2.032 . S
O199 C203 1.278 . S
C200 O201 1.203 . S
C200 O207 1.267 . S
O201 C200 1.203 . S
O202 C195 1.185 . S
O202 Zn198 2.086 . S
C203 O199 1.278 . S
C203 O204 1.211 . S
O204 C203 1.211 . S
C205 O197 1.284 . S
C205 O206 1.273 . S
O206 C205 1.273 . S
O207 Zn198 1.977 . S
O207 C200 1.267 . S
C208 O209 1.160 . S
C208 O215 1.185 . S
O209 C208 1.160 . S
O210 Zn211 1.899 . S
O210 C218 1.284 . S
Zn211 O210 1.899 . S
Zn211 O212 2.032 . S
Zn211 O215 2.086 . S
Zn211 O220 1.977 . S
O212 Zn211 2.032 . S
O212 C216 1.278 . S
C213 O214 1.203 . S
C213 O220 1.267 . S
O214 C213 1.203 . S
O215 C208 1.185 . S
O215 Zn211 2.086 . S
C216 O212 1.278 . S
C216 O217 1.211 . S
O217 C216 1.211 . S
C218 O210 1.284 . S
C218 O219 1.273 . S
O219 C218 1.273 . S
O220 Zn211 1.977 . S
O220 C213 1.267 . S
C221 O222 1.160 . S
C221 O228 1.185 . S
O222 C221 1.160 . S
O223 Zn224 1.899 . S
O223 C231 1.284 . S
Zn224 O223 1.899 . S
Zn224 O225 2.032 . S
Zn224 O228 2.086 . S
Zn224 O233 1.977 . S
O225 Zn224 2.032 . S
O225 C229 1.278 . S
C226 O227 1.203 . S
C226 O233 1.267 . S
O227 C226 1.203 . S
O228 C221 1.185 . S
O228 Zn224 2.086 . S
C229 O225 1.278 . S
C229 O230 1.211 . S
O230 C229 1.211 . S
C231 O223 1.284 . S
C231 O232 1.273 . S
O232 C231 1.273 . S
O233 Zn224 1.977 . S
O233 C226 1.267 . S
C234 O235 1.160 . S
C234 O241 1.185 . S
O235 C234 1.160 . S
O236 Zn237 1.899 . S
O236 C244 1.284 . S
Zn237 O236 1.899 . S
Zn237 O238 2.032 . S
Zn237 O241 2.086 . S
Zn237 O246 1.977 . S
O238 Zn237 2.032 . S
O238 C242 1.278 . S
C239 O240 1.203 . S
C239 O246 1.267 . S
O240 C239 1.203 . S
O241 C234 1.185 . S
O241 Zn237 2.086 . S
C242 O238 1.278 . S
C242 O243 1.211 . S
O243 C242 1.211 . S
C244 O236 1.284 . S
C244 O245 1.273 . S
O245 C244 1.273 . S
O246 Zn237 1.977 . S
O246 C239 1.267 . S
C247 O248 1.160 . S
C247 O254 1.185 . S
O248 C247 1.160 . S
O249 Zn250 1.899 . S
O249 C257 1.284 . S
Zn250 O249 1.899 . S
Zn250 O251 2.032 . S
Zn250 O254 2.086 . S
Zn250 O259 1.977 . S
O251 Zn250 2.032 . S
O251 C255 1.278 . S
C252 O253 1.203 . S
C252 O259 1.267 . S
O253 C252 1.203 . S
O254 C247 1.185 . S
O254 Zn250 2.086 . S
C255 O251 1.278 . S
C255 O256 1.211 . S
O256 C255 1.211 . S
C257 O249 1.284 . S
C257 O258 1.273 . S
O258 C257 1.273 . S
O259 Zn250 1.977 . S
O259 C252 1.267 . S
C260 O261 1.160 . S
C260 O267 1.185 . S
O261 C260 1.160 . S
O262 Zn263 1.899 . S
O262 C270 1.284 . S
Zn263 O262 1.899 . S
Zn263 O264 2.032 . S
Zn263 O267 2.086 . S
Zn263 O272 1.977 . S
O264 Zn263 2.032 . S
O264 C268 1.278 . S
C265 O266 1.203 . S
C265 O272 1.267 . S
O266 C265 1.203 . S
O267 C260 1.185 . S
O267 Zn263 2.086 . S
C268 O264 1.278 . S
C268 O269 1.211 . S
O269 C268 1.211 . S
C270 O262 1.284 . S
C270 O271 1.273 . S
O271 C270 1.273 . S
O272 Zn263 1.977 . S
O272 C265 1.267 . S
C273 O274 1.160 . S
C273 O280 1.185 . S
O274 C273 1.160 . S
O275 Zn276 1.899 . S
O275 C283 1.284 . S
Zn276 O275 1.899 . S
Zn276 O277 2.032 . S
Zn276 O280 2.086 . S
Zn276 O285 1.977 . S
O277 Zn276 2.032 . S
O277 C281 1.278 . S
C278 O279 1.203 . S
C278 O285 1.267 . S
O279 C278 1.203 . S
O280 C273 1.185 . S
O280 Zn276 2.086 . S
C281 O277 1.278 . S
C281 O282 1.211 . S
O282 C281 1.211 . S
C283 O275 1.284 . S
C283 O284 1.273 . S
O284 C283 1.273 . S
O285 Zn276 1.977 . S
O285 C278 1.267 . S
C286 O287 1.160 . S
C286 O293 1.185 . S
O287 C286 1.160 . S
O288 Zn289 1.899 . S
O288 C296 1.284 . S
Zn289 O288 1.899 . S
Zn289 O290 2.032 . S
Zn289 O293 2.086 . S
Zn289 O298 1.977 . S
O290 Zn289 2.032 . S
O290 C294 1.278 . S
C291 O292 1.203 . S
C291 O298 1.267 . S
O292 C291 1.203 . S
O293 C286 1.185 . S
O293 Zn289 2.086 . S
C294 O290 1.278 . S
C294 O295 1.211 . S
O295 C294 1.211 . S
C296 O288 1.284 . S
C296 O297 1.273 . S
O297 C296 1.273 . S
O298 Zn289 1.977 . S
O298 C291 1.267 . S
C299 O300 1.160 . S
C299 O306 1.185 . S
O300 C299 1.160 . S
O301 Zn302 1.899 . S
O301 C309 1.284 . S
Zn302 O301 1.899 . S
Zn302 O303 2.032 . S
Zn302 O306 2.086 . S
Zn302 O311 1.977 . S
O303 Zn302 2.032 . S
O303 C307 1.278 . S
C304 O305 1.203 . S
C304 O311 1.267 . S
O305 C304 1.203 . S
O306 C299 1.185 . S
O306 Zn302 2.086 . S
C307 O303 1.278 . S
C307 O308 1.211 . S
O308 C307 1.211 . S
C309 O301 1.284 . S
C309 O310 1.273 . S
O310 C309 1.273 . S
O311 Zn302 1.977 . S
O311 C304 1.267 . S
H312 C330 0.951 . S
H313 C332 0.951 . S
H314 C334 0.950 . S
H315 C335 0.950 . S
H316 C337 0.950 . S
H317 C340 0.950 . S
H318 C341 0.950 . S
H319 C343 0.950 . S
H320 C344 0.950 . S
H321 C345 0.951 . S
H322 C347 0.951 . S
H323 C349 0.950 . S
H324 C350 0.950 . S
H325 C352 0.950 . S
H326 C355 0.950 . S
H327 C356 0.950 . S
H328 C358 0.950 . S
H329 C359 0.950 . S
C330 H312 0.951 . S
C330 C331 1.366 . S
C330 C332 1.388 . S
C331 C330 1.366 . S
C331 C335 1.385 . S
C332 H313 0.951 . S
C332 C330 1.388 . S
C332 C333 1.366 . S
C333 C332 1.366 . S
C333 C334 1.414 . S
C333 C336 1.499 . S
C334 H314 0.950 . S
C334 C333 1.414 . S
C334 C335 1.374 . S
C335 H315 0.950 . S
C335 C331 1.385 . S
C335 C334 1.374 . S
C336 C333 1.499 . S
C336 C337 1.373 . S
C336 C338 1.389 . S
C337 H316 0.950 . S
C337 C336 1.373 . S
C337 C353 1.377 . S
C338 C336 1.389 . S
C338 C339 1.524 . S
C338 C352 1.377 . S
C339 C338 1.524 . S
C339 C340 1.397 . S
C339 C344 1.363 . S
C340 H317 0.950 . S
C340 C339 1.397 . S
C340 C341 1.334 . S
C341 H318 0.950 . S
C341 C340 1.334 . S
C341 C342 1.287 . S
C342 C341 1.287 . S
C342 C343 1.524 . S
C342 H361 0.913 . S
C343 H319 0.950 . S
C343 C342 1.524 . S
C343 C344 1.415 . S
C344 H320 0.950 . S
C344 C339 1.363 . S
C344 C343 1.415 . S
C345 H321 0.951 . S
C345 C346 1.366 . S
C345 C347 1.388 . S
C346 C345 1.366 . S
C346 C350 1.385 . S
C347 H322 0.951 . S
C347 C345 1.388 . S
C347 C348 1.366 . S
C348 C347 1.366 . S
C348 C349 1.414 . S
C348 C351 1.499 . S
C349 H323 0.950 . S
C349 C348 1.414 . S
C349 C350 1.374 . S
C350 H324 0.950 . S
C350 C346 1.385 . S
C350 C349 1.374 . S
C351 C348 1.499 . S
C351 C352 1.373 . S
C351 C353 1.389 . S
C352 H325 0.950 . S
C352 C338 1.377 . S
C352 C351 1.373 . S
C353 C337 1.377 . S
C353 C351 1.389 . S
C353 C354 1.524 . S
C354 C353 1.524 . S
C354 C355 1.397 . S
C354 C359 1.363 . S
C355 H326 0.950 . S
C355 C354 1.397 . S
C355 C356 1.334 . S
C356 H327 0.950 . S
C356 C355 1.334 . S
C356 C357 1.287 . S
C357 C356 1.287 . S
C357 C358 1.524 . S
C357 H360 0.999 . S
C358 H328 0.950 . S
C358 C357 1.524 . S
C358 C359 1.415 . S
C359 H329 0.950 . S
C359 C354 1.363 . S
C359 C358 1.415 . S
H360 C357 0.999 . S
H361 C342 0.913 . S
H362 C380 0.951 . S
H363 C382 0.951 . S
H364 C384 0.950 . S
H365 C385 0.950 . S
H366 C387 0.950 . S
H367 C390 0.950 . S
H368 C391 0.950 . S
H369 C393 0.950 . S
H370 C394 0.950 . S
H371 C395 0.951 . S
H372 C397 0.951 . S
H373 C399 0.950 . S
H374 C400 0.950 . S
H375 C402 0.950 . S
H376 C405 0.950 . S
H377 C406 0.950 . S
H378 C408 0.950 . S
H379 C409 0.950 . S
C380 H362 0.951 . S
C380 C381 1.366 . S
C380 C382 1.388 1_655 S
C381 C380 1.366 . S
C381 C385 1.385 . S
C382 H363 0.951 . S
C382 C380 1.388 1_455 S
C382 C383 1.366 . S
C383 C382 1.366 . S
C383 C384 1.414 1_455 S
C383 C386 1.499 . S
C384 H364 0.950 . S
C384 C383 1.414 1_655 S
C384 C385 1.374 . S
C385 H365 0.950 . S
C385 C381 1.385 . S
C385 C384 1.374 . S
C386 C383 1.499 . S
C386 C387 1.373 . S
C386 C388 1.389 . S
C387 H366 0.950 . S
C387 C386 1.373 . S
C387 C403 1.377 . S
C388 C386 1.389 . S
C388 C389 1.524 . S
C388 C402 1.377 . S
C389 C388 1.524 . S
C389 C390 1.397 1_455 S
C389 C394 1.363 . S
C390 H367 0.950 . S
C390 C389 1.397 1_655 S
C390 C391 1.334 . S
C391 H368 0.950 . S
C391 C390 1.334 . S
C391 C392 1.287 . S
C392 C391 1.287 . S
C392 C393 1.524 1_655 S
C392 H411 0.913 . S
C393 H369 0.950 . S
C393 C392 1.524 1_455 S
C393 C394 1.415 . S
C394 H370 0.950 . S
C394 C389 1.363 . S
C394 C393 1.415 . S
C395 H371 0.951 . S
C395 C396 1.366 . S
C395 C397 1.388 . S
C396 C395 1.366 . S
C396 C400 1.385 . S
C397 H372 0.951 . S
C397 C395 1.388 . S
C397 C398 1.366 . S
C398 C397 1.366 . S
C398 C399 1.414 . S
C398 C401 1.499 . S
C399 H373 0.950 . S
C399 C398 1.414 . S
C399 C400 1.374 . S
C400 H374 0.950 . S
C400 C396 1.385 . S
C400 C399 1.374 . S
C401 C398 1.499 . S
C401 C402 1.373 . S
C401 C403 1.389 . S
C402 H375 0.950 . S
C402 C388 1.377 . S
C402 C401 1.373 . S
C403 C387 1.377 . S
C403 C401 1.389 . S
C403 C404 1.524 . S
C404 C403 1.524 . S
C404 C405 1.397 . S
C404 C409 1.363 . S
C405 H376 0.950 . S
C405 C404 1.397 . S
C405 C406 1.334 . S
C406 H377 0.950 . S
C406 C405 1.334 . S
C406 C407 1.287 . S
C407 C406 1.287 . S
C407 C408 1.524 . S
C407 H410 0.999 . S
C408 H378 0.950 . S
C408 C407 1.524 . S
C408 C409 1.415 . S
C409 H379 0.950 . S
C409 C404 1.363 . S
C409 C408 1.415 . S
H410 C407 0.999 . S
H411 C392 0.913 . S
H412 C430 0.951 . S
H413 C432 0.951 . S
H414 C434 0.950 . S
H415 C435 0.950 . S
H416 C437 0.950 . S
H417 C440 0.950 . S
H418 C441 0.950 . S
H419 C443 0.950 . S
H420 C444 0.950 . S
H421 C445 0.951 . S
H422 C447 0.951 . S
H423 C449 0.971 . S
H424 C450 0.950 . S
H425 C452 0.950 . S
H426 C455 0.950 . S
H427 C456 0.950 . S
H428 C458 0.950 . S
H429 C459 0.950 . S
C430 H412 0.951 . S
C430 C431 1.366 . S
C430 C432 1.388 . S
C431 C430 1.366 . S
C431 C435 1.385 . S
C432 H413 0.951 . S
C432 C430 1.388 . S
C432 C433 1.366 . S
C433 C432 1.366 . S
C433 C434 1.414 . S
C433 C436 1.499 . S
C434 H414 0.950 . S
C434 C433 1.414 . S
C434 C435 1.374 . S
C435 H415 0.950 . S
C435 C431 1.385 . S
C435 C434 1.374 . S
C436 C433 1.499 . S
C436 C437 1.373 . S
C436 C438 1.389 . S
C437 H416 0.950 . S
C437 C436 1.373 . S
C437 C453 1.377 . S
C438 C436 1.389 . S
C438 C439 1.524 . S
C438 C452 1.377 . S
C439 C438 1.524 . S
C439 C440 1.397 . S
C439 C444 1.363 . S
C440 H417 0.950 . S
C440 C439 1.397 . S
C440 C441 1.334 . S
C441 H418 0.950 . S
C441 C440 1.334 . S
C441 C442 1.287 . S
C442 C441 1.287 . S
C442 C443 1.524 . S
C442 H461 0.913 . S
C443 H419 0.950 . S
C443 C442 1.524 . S
C443 C444 1.415 . S
C444 H420 0.950 . S
C444 C439 1.363 . S
C444 C443 1.415 . S
C445 H421 0.951 . S
C445 C446 1.366 . S
C445 C447 1.388 . S
C446 C445 1.366 . S
C446 C450 1.385 . S
C447 H422 0.951 . S
C447 C445 1.388 . S
C447 C448 1.366 1_554 S
C448 C447 1.366 1_556 S
C448 C449 1.418 . S
C448 C451 1.499 . S
C449 H423 0.971 . S
C449 C448 1.418 . S
C449 C450 1.350 1_556 S
C450 H424 0.950 . S
C450 C446 1.385 . S
C450 C449 1.350 1_554 S
C451 C448 1.499 . S
C451 C452 1.373 . S
C451 C453 1.389 . S
C452 H425 0.950 . S
C452 C438 1.377 . S
C452 C451 1.373 . S
C453 C437 1.377 . S
C453 C451 1.389 . S
C453 C454 1.524 1_556 S
C454 C453 1.524 1_554 S
C454 C455 1.397 . S
C454 C459 1.363 . S
C455 H426 0.950 . S
C455 C454 1.397 . S
C455 C456 1.334 . S
C456 H427 0.950 . S
C456 C455 1.334 . S
C456 C457 1.287 . S
C457 C456 1.287 . S
C457 C458 1.524 . S
C457 H460 0.999 . S
C458 H428 0.950 . S
C458 C457 1.524 . S
C458 C459 1.415 . S
C459 H429 0.950 . S
C459 C454 1.363 . S
C459 C458 1.415 . S
H460 C457 0.999 . S
H461 C442 0.913 . S
H462 C480 0.951 . S
H463 C482 0.951 . S
H464 C484 0.950 . S
H465 C485 0.950 . S
H466 C487 0.950 . S
H467 C490 0.950 . S
H468 C491 0.950 . S
H469 C493 0.950 . S
H470 C494 0.950 . S
H471 C495 0.951 . S
H472 C497 0.951 . S
H473 C499 0.950 . S
H474 C500 0.950 . S
H475 C502 0.950 . S
H476 C505 0.950 . S
H477 C506 0.950 . S
H478 C508 0.950 . S
H479 C509 0.950 . S
C480 H462 0.951 . S
C480 C481 1.366 . S
C480 C482 1.388 . S
C481 C480 1.366 . S
C481 C485 1.385 . S
C482 H463 0.951 . S
C482 C480 1.388 . S
C482 C483 1.366 . S
C483 C482 1.366 . S
C483 C484 1.414 . S
C483 C486 1.499 . S
C484 H464 0.950 . S
C484 C483 1.414 . S
C484 C485 1.374 . S
C485 H465 0.950 . S
C485 C481 1.385 . S
C485 C484 1.374 . S
C486 C483 1.499 . S
C486 C487 1.373 . S
C486 C488 1.389 . S
C487 H466 0.950 . S
C487 C486 1.373 . S
C487 C503 1.377 . S
C488 C486 1.389 . S
C488 C489 1.524 . S
C488 C502 1.377 . S
C489 C488 1.524 . S
C489 C490 1.397 . S
C489 C494 1.363 . S
C490 H467 0.950 . S
C490 C489 1.397 . S
C490 C491 1.334 . S
C491 H468 0.950 . S
C491 C490 1.334 . S
C491 C492 1.287 . S
C492 C491 1.287 . S
C492 C493 1.524 . S
C492 H511 0.913 . S
C493 H469 0.950 . S
C493 C492 1.524 . S
C493 C494 1.415 . S
C494 H470 0.950 . S
C494 C489 1.363 . S
C494 C493 1.415 . S
C495 H471 0.951 . S
C495 C496 1.366 . S
C495 C497 1.388 . S
C496 C495 1.366 . S
C496 C500 1.385 . S
C497 H472 0.951 . S
C497 C495 1.388 . S
C497 C498 1.366 . S
C498 C497 1.366 . S
C498 C499 1.414 . S
C498 C501 1.499 . S
C499 H473 0.950 . S
C499 C498 1.414 . S
C499 C500 1.374 . S
C500 H474 0.950 . S
C500 C496 1.385 . S
C500 C499 1.374 . S
C501 C498 1.499 . S
C501 C502 1.373 . S
C501 C503 1.389 . S
C502 H475 0.950 . S
C502 C488 1.377 . S
C502 C501 1.373 . S
C503 C487 1.377 . S
C503 C501 1.389 . S
C503 C504 1.524 . S
C504 C503 1.524 . S
C504 C505 1.397 . S
C504 C509 1.363 . S
C505 H476 0.950 . S
C505 C504 1.397 . S
C505 C506 1.334 . S
C506 H477 0.950 . S
C506 C505 1.334 . S
C506 C507 1.287 . S
C507 C506 1.287 . S
C507 C508 1.524 . S
C507 H510 0.999 . S
C508 H478 0.950 . S
C508 C507 1.524 . S
C508 C509 1.415 . S
C509 H479 0.950 . S
C509 C504 1.363 . S
C509 C508 1.415 . S
H510 C507 0.999 . S
H511 C492 0.913 . S
H512 C530 0.951 . S
H513 C532 0.951 . S
H514 C534 0.950 . S
H515 C535 0.950 . S
H516 C537 0.950 . S
H517 C540 0.950 . S
H518 C541 0.950 . S
H519 C543 0.950 . S
H520 C544 0.950 . S
H521 C545 0.951 . S
H522 C547 0.951 . S
H523 C549 0.950 . S
H524 C550 0.950 . S
H525 C552 0.950 . S
H526 C555 0.950 . S
H527 C556 0.950 . S
H528 C558 0.950 . S
H529 C559 0.950 . S
C530 H512 0.951 . S
C530 C531 1.366 . S
C530 C532 1.388 . S
C531 C530 1.366 . S
C531 C535 1.385 . S
C532 H513 0.951 . S
C532 C530 1.388 . S
C532 C533 1.366 . S
C533 C532 1.366 . S
C533 C534 1.414 . S
C533 C536 1.499 . S
C534 H514 0.950 . S
C534 C533 1.414 . S
C534 C535 1.374 . S
C535 H515 0.950 . S
C535 C531 1.385 . S
C535 C534 1.374 . S
C536 C533 1.499 . S
C536 C537 1.373 . S
C536 C538 1.389 . S
C537 H516 0.950 . S
C537 C536 1.373 . S
C537 C553 1.377 . S
C538 C536 1.389 . S
C538 C539 1.524 . S
C538 C552 1.377 . S
C539 C538 1.524 . S
C539 C540 1.397 . S
C539 C544 1.363 . S
C540 H517 0.950 . S
C540 C539 1.397 . S
C540 C541 1.334 . S
C541 H518 0.950 . S
C541 C540 1.334 . S
C541 C542 1.287 . S
C542 C541 1.287 . S
C542 C543 1.524 . S
C542 H561 0.913 . S
C543 H519 0.950 . S
C543 C542 1.524 . S
C543 C544 1.415 . S
C544 H520 0.950 . S
C544 C539 1.363 . S
C544 C543 1.415 . S
C545 H521 0.951 . S
C545 C546 1.366 . S
C545 C547 1.388 . S
C546 C545 1.366 . S
C546 C550 1.385 . S
C547 H522 0.951 . S
C547 C545 1.388 . S
C547 C548 1.366 . S
C548 C547 1.366 . S
C548 C549 1.414 . S
C548 C551 1.499 . S
C549 H523 0.950 . S
C549 C548 1.414 . S
C549 C550 1.374 . S
C550 H524 0.950 . S
C550 C546 1.385 . S
C550 C549 1.374 . S
C551 C548 1.499 . S
C551 C552 1.373 . S
C551 C553 1.389 . S
C552 H525 0.950 . S
C552 C538 1.377 . S
C552 C551 1.373 . S
C553 C537 1.377 . S
C553 C551 1.389 . S
C553 C554 1.524 . S
C554 C553 1.524 . S
C554 C555 1.397 . S
C554 C559 1.363 . S
C555 H526 0.950 . S
C555 C554 1.397 . S
C555 C556 1.334 . S
C556 H527 0.950 . S
C556 C555 1.334 . S
C556 C557 1.287 . S
C557 C556 1.287 . S
C557 C558 1.524 . S
C557 H560 0.999 . S
C558 H528 0.950 . S
C558 C557 1.524 . S
C558 C559 1.415 . S
C559 H529 0.950 . S
C559 C554 1.363 . S
C559 C558 1.415 . S
H560 C557 0.999 . S
H561 C542 0.913 . S
H562 C580 0.951 . S
H563 C582 0.951 . S
H564 C584 0.950 . S
H565 C585 0.950 . S
H566 C587 0.950 . S
H567 C590 0.950 . S
H568 C591 0.950 . S
H569 C593 0.950 . S
H570 C594 0.950 . S
H571 C595 0.951 . S
H572 C597 0.951 . S
H573 C599 0.950 . S
H574 C600 0.950 1_655 S
H575 C602 0.950 . S
H576 C605 0.950 1_655 S
H577 C606 0.950 . S
H578 C608 0.950 . S
H579 C609 0.950 . S
C580 H562 0.951 . S
C580 C581 1.366 . S
C580 C582 1.388 . S
C581 C580 1.366 . S
C581 C585 1.385 . S
C582 H563 0.951 . S
C582 C580 1.388 . S
C582 C583 1.366 . S
C583 C582 1.366 . S
C583 C584 1.414 . S
C583 C586 1.499 . S
C584 H564 0.950 . S
C584 C583 1.414 . S
C584 C585 1.374 . S
C585 H565 0.950 . S
C585 C581 1.385 . S
C585 C584 1.374 . S
C586 C583 1.499 . S
C586 C587 1.373 . S
C586 C588 1.389 . S
C587 H566 0.950 . S
C587 C586 1.373 . S
C587 C603 1.377 . S
C588 C586 1.389 . S
C588 C589 1.524 . S
C588 C602 1.377 . S
C589 C588 1.524 . S
C589 C590 1.397 . S
C589 C594 1.363 . S
C590 H567 0.950 . S
C590 C589 1.397 . S
C590 C591 1.334 . S
C591 H568 0.950 . S
C591 C590 1.334 . S
C591 C592 1.287 . S
C592 C591 1.287 . S
C592 C593 1.524 . S
C592 H611 0.913 . S
C593 H569 0.950 . S
C593 C592 1.524 . S
C593 C594 1.415 . S
C594 H570 0.950 . S
C594 C589 1.363 . S
C594 C593 1.415 . S
C595 H571 0.951 . S
C595 C596 1.366 . S
C595 C597 1.388 . S
C596 C595 1.366 . S
C596 C600 1.385 . S
C597 H572 0.951 . S
C597 C595 1.388 . S
C597 C598 1.366 1_455 S
C598 C597 1.366 1_655 S
C598 C599 1.414 . S
C598 C601 1.499 . S
C599 H573 0.950 . S
C599 C598 1.414 . S
C599 C600 1.374 1_655 S
C600 H574 0.950 1_455 S
C600 C596 1.385 . S
C600 C599 1.374 1_455 S
C601 C598 1.499 . S
C601 C602 1.373 . S
C601 C603 1.389 . S
C602 H575 0.950 . S
C602 C588 1.377 . S
C602 C601 1.373 . S
C603 C587 1.377 . S
C603 C601 1.389 . S
C603 C604 1.524 1_655 S
C604 C603 1.524 1_455 S
C604 C605 1.397 . S
C604 C609 1.363 . S
C605 H576 0.950 1_455 S
C605 C604 1.397 . S
C605 C606 1.334 . S
C606 H577 0.950 . S
C606 C605 1.334 . S
C606 C607 1.287 . S
C607 C606 1.287 . S
C607 C608 1.524 . S
C607 H610 0.999 . S
C608 H578 0.950 . S
C608 C607 1.524 . S
C608 C609 1.415 . S
C609 H579 0.950 . S
C609 C604 1.363 . S
C609 C608 1.415 . S
H610 C607 0.999 . S
H611 C592 0.913 . S
H612 C630 0.951 . S
H613 C632 0.951 . S
H614 C634 0.950 . S
H615 C635 0.950 . S
H616 C637 0.950 . S
H617 C640 0.950 . S
H618 C641 0.950 . S
H619 C643 0.950 . S
H620 C644 0.973 . S
H621 C645 0.956 . S
H622 C647 0.951 . S
H623 C649 0.950 . S
H624 C650 0.950 . S
H625 C652 0.950 1_556 S
H626 C655 0.950 . S
H627 C656 0.950 . S
H628 C658 0.950 . S
H629 C659 0.950 . S
C630 H612 0.951 . S
C630 C631 1.366 . S
C630 C632 1.388 . S
C631 C630 1.366 . S
C631 C635 1.385 . S
C632 H613 0.951 . S
C632 C630 1.388 . S
C632 C633 1.366 . S
C633 C632 1.366 . S
C633 C634 1.414 . S
C633 C636 1.499 . S
C634 H614 0.950 . S
C634 C633 1.414 . S
C634 C635 1.374 . S
C635 H615 0.950 . S
C635 C631 1.385 . S
C635 C634 1.374 . S
C636 C633 1.499 . S
C636 C637 1.373 . S
C636 C638 1.389 . S
C637 H616 0.950 . S
C637 C636 1.373 . S
C637 C653 1.377 . S
C638 C636 1.389 . S
C638 C639 1.524 . S
C638 C652 1.377 . S
C639 C638 1.524 . S
C639 C640 1.397 . S
C639 C644 1.326 1_554 S
C640 H617 0.950 . S
C640 C639 1.397 . S
C640 C641 1.334 . S
C641 H618 0.950 . S
C641 C640 1.334 . S
C641 C642 1.287 . S
C642 C641 1.287 . S
C642 C643 1.524 1_554 S
C642 H661 0.913 . S
C643 H619 0.950 . S
C643 C642 1.524 1_556 S
C643 C644 1.431 . S
C644 H620 0.973 . S
C644 C639 1.326 1_556 S
C644 C643 1.431 . S
C645 H621 0.956 . S
C645 C646 1.366 . S
C645 C647 1.388 1_556 S
C646 C645 1.366 . S
C646 C650 1.385 . S
C647 H622 0.951 . S
C647 C645 1.388 1_554 S
C647 C648 1.366 . S
C648 C647 1.366 . S
C648 C649 1.414 1_554 S
C648 C651 1.499 . S
C649 H623 0.950 . S
C649 C648 1.414 1_556 S
C649 C650 1.374 . S
C650 H624 0.950 . S
C650 C646 1.385 . S
C650 C649 1.374 . S
C651 C648 1.499 . S
C651 C652 1.373 . S
C651 C653 1.389 . S
C652 H625 0.950 1_554 S
C652 C638 1.377 . S
C652 C651 1.373 . S
C653 C637 1.377 . S
C653 C651 1.389 . S
C653 C654 1.524 . S
C654 C653 1.524 . S
C654 C655 1.397 . S
C654 C659 1.363 . S
C655 H626 0.950 . S
C655 C654 1.397 . S
C655 C656 1.334 . S
C656 H627 0.950 . S
C656 C655 1.334 . S
C656 C657 1.287 . S
C657 C656 1.287 . S
C657 C658 1.524 . S
C657 H660 0.999 . S
C658 H628 0.950 . S
C658 C657 1.524 . S
C658 C659 1.415 . S
C659 H629 0.950 . S
C659 C654 1.363 . S
C659 C658 1.415 . S
H660 C657 0.999 . S
H661 C642 0.913 . S
H662 C680 0.951 . S
H663 C682 0.951 . S
H664 C684 0.950 . S
H665 C685 0.950 . S
H666 C687 0.950 . S
H667 C690 0.950 . S
H668 C691 0.950 . S
H669 C693 0.950 . S
H670 C694 0.950 . S
H671 C695 0.951 . S
H672 C697 0.951 . S
H673 C699 0.950 . S
H674 C700 0.950 . S
H675 C702 0.950 . S
H676 C705 0.950 . S
H677 C706 0.950 . S
H678 C708 0.950 . S
H679 C709 0.950 . S
C680 H662 0.951 . S
C680 C681 1.366 . S
C680 C682 1.388 . S
C681 C680 1.366 . S
C681 C685 1.385 . S
C682 H663 0.951 . S
C682 C680 1.388 . S
C682 C683 1.366 . S
C683 C682 1.366 . S
C683 C684 1.414 . S
C683 C686 1.499 . S
C684 H664 0.950 . S
C684 C683 1.414 . S
C684 C685 1.374 . S
C685 H665 0.950 . S
C685 C681 1.385 . S
C685 C684 1.374 . S
C686 C683 1.499 . S
C686 C687 1.373 . S
C686 C688 1.389 . S
C687 H666 0.950 . S
C687 C686 1.373 . S
C687 C703 1.377 . S
C688 C686 1.389 . S
C688 C689 1.524 . S
C688 C702 1.377 . S
C689 C688 1.524 . S
C689 C690 1.397 . S
C689 C694 1.363 . S
C690 H667 0.950 . S
C690 C689 1.397 . S
C690 C691 1.334 . S
C691 H668 0.950 . S
C691 C690 1.334 . S
C691 C692 1.287 . S
C692 C691 1.287 . S
C692 C693 1.524 . S
C692 H711 0.913 . S
C693 H669 0.950 . S
C693 C692 1.524 . S
C693 C694 1.415 . S
C694 H670 0.950 . S
C694 C689 1.363 . S
C694 C693 1.415 . S
C695 H671 0.951 . S
C695 C696 1.366 . S
C695 C697 1.388 . S
C696 C695 1.366 . S
C696 C700 1.385 . S
C697 H672 0.951 . S
C697 C695 1.388 . S
C697 C698 1.366 . S
C698 C697 1.366 . S
C698 C699 1.414 . S
C698 C701 1.499 . S
C699 H673 0.950 . S
C699 C698 1.414 . S
C699 C700 1.374 . S
C700 H674 0.950 . S
C700 C696 1.385 . S
C700 C699 1.374 . S
C701 C698 1.499 . S
C701 C702 1.373 . S
C701 C703 1.389 . S
C702 H675 0.950 . S
C702 C688 1.377 . S
C702 C701 1.373 . S
C703 C687 1.377 . S
C703 C701 1.389 . S
C703 C704 1.524 . S
C704 C703 1.524 . S
C704 C705 1.397 . S
C704 C709 1.363 . S
C705 H676 0.950 . S
C705 C704 1.397 . S
C705 C706 1.334 . S
C706 H677 0.950 . S
C706 C705 1.334 . S
C706 C707 1.287 . S
C707 C706 1.287 . S
C707 C708 1.524 . S
C707 H710 0.999 . S
C708 H678 0.950 . S
C708 C707 1.524 . S
C708 C709 1.415 . S
C709 H679 0.950 . S
C709 C704 1.363 . S
C709 C708 1.415 . S
H710 C707 0.999 . S
H711 C692 0.913 . S
H712 C730 0.951 . S
H713 C732 0.951 . S
H714 C734 0.950 . S
H715 C735 0.950 . S
H716 C737 0.950 . S
H717 C740 0.950 . S
H718 C741 0.950 . S
H719 C743 0.950 . S
H720 C744 0.950 . S
H721 C745 0.951 . S
H722 C747 0.951 . S
H723 C749 0.950 . S
H724 C750 0.950 . S
H725 C752 0.950 . S
H726 C755 0.950 . S
H727 C756 0.950 . S
H728 C758 0.950 . S
H729 C759 0.950 . S
C730 H712 0.951 . S
C730 C731 1.366 . S
C730 C732 1.388 . S
C731 C730 1.366 . S
C731 C735 1.385 . S
C732 H713 0.951 . S
C732 C730 1.388 . S
C732 C733 1.366 . S
C733 C732 1.366 . S
C733 C734 1.414 . S
C733 C736 1.499 . S
C734 H714 0.950 . S
C734 C733 1.414 . S
C734 C735 1.374 . S
C735 H715 0.950 . S
C735 C731 1.385 . S
C735 C734 1.374 . S
C736 C733 1.499 . S
C736 C737 1.373 . S
C736 C738 1.389 . S
C737 H716 0.950 . S
C737 C736 1.373 . S
C737 C753 1.377 . S
C738 C736 1.389 . S
C738 C739 1.524 . S
C738 C752 1.377 . S
C739 C738 1.524 . S
C739 C740 1.397 . S
C739 C744 1.363 . S
C740 H717 0.950 . S
C740 C739 1.397 . S
C740 C741 1.334 . S
C741 H718 0.950 . S
C741 C740 1.334 . S
C741 C742 1.287 . S
C742 C741 1.287 . S
C742 C743 1.524 . S
C742 H761 0.913 . S
C743 H719 0.950 . S
C743 C742 1.524 . S
C743 C744 1.415 . S
C744 H720 0.950 . S
C744 C739 1.363 . S
C744 C743 1.415 . S
C745 H721 0.951 . S
C745 C746 1.366 . S
C745 C747 1.388 . S
C746 C745 1.366 . S
C746 C750 1.385 . S
C747 H722 0.951 . S
C747 C745 1.388 . S
C747 C748 1.366 . S
C748 C747 1.366 . S
C748 C749 1.414 . S
C748 C751 1.499 . S
C749 H723 0.950 . S
C749 C748 1.414 . S
C749 C750 1.374 . S
C750 H724 0.950 . S
C750 C746 1.385 . S
C750 C749 1.374 . S
C751 C748 1.499 . S
C751 C752 1.373 . S
C751 C753 1.389 . S
C752 H725 0.950 . S
C752 C738 1.377 . S
C752 C751 1.373 . S
C753 C737 1.377 . S
C753 C751 1.389 . S
C753 C754 1.524 . S
C754 C753 1.524 . S
C754 C755 1.397 . S
C754 C759 1.363 . S
C755 H726 0.950 . S
C755 C754 1.397 . S
C755 C756 1.334 . S
C756 H727 0.950 . S
C756 C755 1.334 . S
C756 C757 1.287 . S
C757 C756 1.287 . S
C757 C758 1.524 . S
C757 H760 0.999 . S
C758 H728 0.950 . S
C758 C757 1.524 . S
C758 C759 1.415 . S
C759 H729 0.950 . S
C759 C754 1.363 . S
C759 C758 1.415 . S
H760 C757 0.999 . S
H761 C742 0.913 . S
H762 C780 0.951 . S
H763 C782 0.951 . S
H764 C784 0.950 . S
H765 C785 0.950 . S
H766 C787 0.950 . S
H767 C790 0.950 . S
H768 C791 0.950 . S
H769 C793 0.950 . S
H770 C794 0.950 . S
H771 C795 0.951 . S
H772 C797 0.951 . S
H773 C799 0.950 . S
H774 C800 0.950 . S
H775 C802 0.950 . S
H776 C805 0.950 . S
H777 C806 0.950 . S
H778 C808 0.950 . S
H779 C809 0.950 . S
C780 H762 0.951 . S
C780 C781 1.366 . S
C780 C782 1.388 . S
C781 C780 1.366 . S
C781 C785 1.385 . S
C782 H763 0.951 . S
C782 C780 1.388 . S
C782 C783 1.366 1_565 S
C783 C782 1.366 1_545 S
C783 C784 1.414 . S
C783 C786 1.499 . S
C784 H764 0.950 . S
C784 C783 1.414 . S
C784 C785 1.374 1_545 S
C785 H765 0.950 . S
C785 C781 1.385 . S
C785 C784 1.374 1_565 S
C786 C783 1.499 . S
C786 C787 1.373 . S
C786 C788 1.389 . S
C787 H766 0.950 . S
C787 C786 1.373 . S
C787 C803 1.377 . S
C788 C786 1.389 . S
C788 C789 1.524 . S
C788 C802 1.377 . S
C789 C788 1.524 . S
C789 C790 1.397 . S
C789 C794 1.363 . S
C790 H767 0.950 . S
C790 C789 1.397 . S
C790 C791 1.334 . S
C791 H768 0.950 . S
C791 C790 1.334 . S
C791 C792 1.287 . S
C792 C791 1.287 . S
C792 C793 1.524 . S
C792 H811 0.913 . S
C793 H769 0.950 . S
C793 C792 1.524 . S
C793 C794 1.415 . S
C794 H770 0.950 . S
C794 C789 1.363 . S
C794 C793 1.415 . S
C795 H771 0.951 . S
C795 C796 1.366 . S
C795 C797 1.388 . S
C796 C795 1.366 . S
C796 C800 1.385 . S
C797 H772 0.951 . S
C797 C795 1.388 . S
C797 C798 1.366 . S
C798 C797 1.366 . S
C798 C799 1.414 . S
C798 C801 1.499 . S
C799 H773 0.950 . S
C799 C798 1.414 . S
C799 C800 1.374 . S
C800 H774 0.950 . S
C800 C796 1.385 . S
C800 C799 1.374 . S
C801 C798 1.499 . S
C801 C802 1.373 . S
C801 C803 1.389 . S
C802 H775 0.950 . S
C802 C788 1.377 . S
C802 C801 1.373 . S
C803 C787 1.377 . S
C803 C801 1.389 . S
C803 C804 1.524 . S
C804 C803 1.524 . S
C804 C805 1.397 . S
C804 C809 1.363 . S
C805 H776 0.950 . S
C805 C804 1.397 . S
C805 C806 1.334 . S
C806 H777 0.950 . S
C806 C805 1.334 . S
C806 C807 1.287 . S
C807 C806 1.287 . S
C807 C808 1.524 . S
C807 H810 0.999 . S
C808 H778 0.950 . S
C808 C807 1.524 . S
C808 C809 1.415 . S
C809 H779 0.950 . S
C809 C804 1.363 . S
C809 C808 1.415 . S
H810 C807 0.999 . S
H811 C792 0.913 . S
H812 C830 0.951 . S
H813 C832 0.951 . S
H814 C834 0.950 . S
H815 C835 0.950 . S
H816 C837 0.950 . S
H817 C840 0.950 . S
H818 C841 0.950 . S
H819 C843 0.950 . S
H820 C844 0.950 . S
H821 C845 0.951 . S
H822 C847 0.951 . S
H823 C849 0.950 . S
H824 C850 0.950 . S
H825 C852 0.950 . S
H826 C855 0.950 . S
H827 C856 0.950 . S
H828 C858 0.950 . S
H829 C859 0.950 . S
C830 H812 0.951 . S
C830 C831 1.366 . S
C830 C832 1.388 . S
C831 C830 1.366 . S
C831 C835 1.385 . S
C832 H813 0.951 . S
C832 C830 1.388 . S
C832 C833 1.366 . S
C833 C832 1.366 . S
C833 C834 1.414 . S
C833 C836 1.499 . S
C834 H814 0.950 . S
C834 C833 1.414 . S
C834 C835 1.374 . S
C835 H815 0.950 . S
C835 C831 1.385 . S
C835 C834 1.374 . S
C836 C833 1.499 . S
C836 C837 1.373 . S
C836 C838 1.389 . S
C837 H816 0.950 . S
C837 C836 1.373 . S
C837 C853 1.377 . S
C838 C836 1.389 . S
C838 C839 1.524 . S
C838 C852 1.377 . S
C839 C838 1.524 . S
C839 C840 1.397 . S
C839 C844 1.363 . S
C840 H817 0.950 . S
C840 C839 1.397 . S
C840 C841 1.334 . S
C841 H818 0.950 . S
C841 C840 1.334 . S
C841 C842 1.287 . S
C842 C841 1.287 . S
C842 C843 1.524 . S
C842 H861 0.913 . S
C843 H819 0.950 . S
C843 C842 1.524 . S
C843 C844 1.415 . S
C844 H820 0.950 . S
C844 C839 1.363 . S
C844 C843 1.415 . S
C845 H821 0.951 . S
C845 C846 1.366 . S
C845 C847 1.388 . S
C846 C845 1.366 . S
C846 C850 1.385 . S
C847 H822 0.951 . S
C847 C845 1.388 . S
C847 C848 1.366 1_545 S
C848 C847 1.366 1_565 S
C848 C849 1.414 . S
C848 C851 1.499 . S
C849 H823 0.950 . S
C849 C848 1.414 . S
C849 C850 1.374 1_565 S
C850 H824 0.950 . S
C850 C846 1.385 . S
C850 C849 1.374 1_545 S
C851 C848 1.499 . S
C851 C852 1.373 . S
C851 C853 1.389 . S
C852 H825 0.950 . S
C852 C838 1.377 . S
C852 C851 1.373 . S
C853 C837 1.377 . S
C853 C851 1.389 . S
C853 C854 1.524 . S
C854 C853 1.524 . S
C854 C855 1.397 . S
C854 C859 1.363 . S
C855 H826 0.950 . S
C855 C854 1.397 . S
C855 C856 1.334 . S
C856 H827 0.950 . S
C856 C855 1.334 . S
C856 C857 1.287 . S
C857 C856 1.287 . S
C857 C858 1.524 . S
C857 H860 0.999 . S
C858 H828 0.950 . S
C858 C857 1.524 . S
C858 C859 1.415 . S
C859 H829 0.950 . S
C859 C854 1.363 . S
C859 C858 1.415 . S
H860 C857 0.999 . S
H861 C842 0.913 . S
H862 C880 0.951 . S
H863 C882 0.951 . S
H864 C884 0.950 . S
H865 C885 0.950 . S
H866 C887 0.950 . S
H867 C890 0.950 . S
H868 C891 0.950 . S
H869 C893 0.950 . S
H870 C894 0.950 . S
H871 C895 0.951 . S
H872 C897 0.951 . S
H873 C899 0.950 . S
H874 C900 0.950 . S
H875 C902 0.950 . S
H876 C905 0.950 . S
H877 C906 0.950 . S
H878 C908 0.950 . S
H879 C909 0.950 . S
C880 H862 0.951 . S
C880 C881 1.366 . S
C880 C882 1.388 . S
C881 C880 1.366 . S
C881 C885 1.385 . S
C882 H863 0.951 . S
C882 C880 1.388 . S
C882 C883 1.366 . S
C883 C882 1.366 . S
C883 C884 1.414 . S
C883 C886 1.499 . S
C884 H864 0.950 . S
C884 C883 1.414 . S
C884 C885 1.374 . S
C885 H865 0.950 . S
C885 C881 1.385 . S
C885 C884 1.374 . S
C886 C883 1.499 . S
C886 C887 1.373 . S
C886 C888 1.389 . S
C887 H866 0.950 . S
C887 C886 1.373 . S
C887 C903 1.377 . S
C888 C886 1.389 . S
C888 C889 1.524 . S
C888 C902 1.377 . S
C889 C888 1.524 . S
C889 C890 1.397 . S
C889 C894 1.363 . S
C890 H867 0.950 . S
C890 C889 1.397 . S
C890 C891 1.334 . S
C891 H868 0.950 . S
C891 C890 1.334 . S
C891 C892 1.287 . S
C892 C891 1.287 . S
C892 C893 1.524 . S
C892 H911 0.913 . S
C893 H869 0.950 . S
C893 C892 1.524 . S
C893 C894 1.415 . S
C894 H870 0.950 . S
C894 C889 1.363 . S
C894 C893 1.415 . S
C895 H871 0.951 . S
C895 C896 1.366 . S
C895 C897 1.388 . S
C896 C895 1.366 . S
C896 C900 1.385 . S
C897 H872 0.951 . S
C897 C895 1.388 . S
C897 C898 1.366 . S
C898 C897 1.366 . S
C898 C899 1.414 . S
C898 C901 1.499 . S
C899 H873 0.950 . S
C899 C898 1.414 . S
C899 C900 1.374 . S
C900 H874 0.950 . S
C900 C896 1.385 . S
C900 C899 1.374 . S
C901 C898 1.499 . S
C901 C902 1.373 . S
C901 C903 1.389 . S
C902 H875 0.950 . S
C902 C888 1.377 . S
C902 C901 1.373 . S
C903 C887 1.377 . S
C903 C901 1.389 . S
C903 C904 1.524 . S
C904 C903 1.524 . S
C904 C905 1.397 . S
C904 C909 1.363 . S
C905 H876 0.950 . S
C905 C904 1.397 . S
C905 C906 1.334 . S
C906 H877 0.950 . S
C906 C905 1.334 . S
C906 C907 1.287 . S
C907 C906 1.287 . S
C907 C908 1.524 . S
C907 H910 0.999 . S
C908 H878 0.950 . S
C908 C907 1.524 . S
C908 C909 1.415 . S
C909 H879 0.950 . S
C909 C904 1.363 . S
C909 C908 1.415 . S
H910 C907 0.999 . S
H911 C892 0.913 . S
H912 C930 0.951 . S
H913 C932 0.951 . S
H914 C934 0.950 . S
H915 C935 0.950 . S
H916 C937 0.950 . S
H917 C940 0.950 . S
H918 C941 0.950 . S
H919 C943 0.950 . S
H920 C944 0.950 . S
H921 C945 0.951 . S
H922 C947 0.951 . S
H923 C949 0.950 . S
H924 C950 0.950 . S
H925 C952 0.950 . S
H926 C955 0.950 . S
H927 C956 0.950 . S
H928 C958 0.950 . S
H929 C959 0.950 . S
C930 H912 0.951 . S
C930 C931 1.366 . S
C930 C932 1.388 . S
C931 C930 1.366 . S
C931 C935 1.385 . S
C932 H913 0.951 . S
C932 C930 1.388 . S
C932 C933 1.366 . S
C933 C932 1.366 . S
C933 C934 1.414 . S
C933 C936 1.499 . S
C934 H914 0.950 . S
C934 C933 1.414 . S
C934 C935 1.374 . S
C935 H915 0.950 . S
C935 C931 1.385 . S
C935 C934 1.374 . S
C936 C933 1.499 . S
C936 C937 1.373 . S
C936 C938 1.389 . S
C937 H916 0.950 . S
C937 C936 1.373 . S
C937 C953 1.377 . S
C938 C936 1.389 . S
C938 C939 1.524 . S
C938 C952 1.377 . S
C939 C938 1.524 . S
C939 C940 1.397 . S
C939 C944 1.363 . S
C940 H917 0.950 . S
C940 C939 1.397 . S
C940 C941 1.334 . S
C941 H918 0.950 . S
C941 C940 1.334 . S
C941 C942 1.287 . S
C942 C941 1.287 . S
C942 C943 1.524 . S
C942 H961 0.913 . S
C943 H919 0.950 . S
C943 C942 1.524 . S
C943 C944 1.415 . S
C944 H920 0.950 . S
C944 C939 1.363 . S
C944 C943 1.415 . S
C945 H921 0.951 . S
C945 C946 1.366 . S
C945 C947 1.388 . S
C946 C945 1.366 . S
C946 C950 1.385 . S
C947 H922 0.951 . S
C947 C945 1.388 . S
C947 C948 1.366 . S
C948 C947 1.366 . S
C948 C949 1.414 . S
C948 C951 1.499 . S
C949 H923 0.950 . S
C949 C948 1.414 . S
C949 C950 1.374 . S
C950 H924 0.950 . S
C950 C946 1.385 . S
C950 C949 1.374 . S
C951 C948 1.499 . S
C951 C952 1.373 . S
C951 C953 1.389 . S
C952 H925 0.950 . S
C952 C938 1.377 . S
C952 C951 1.373 . S
C953 C937 1.377 . S
C953 C951 1.389 . S
C953 C954 1.524 . S
C954 C953 1.524 . S
C954 C955 1.397 . S
C954 C959 1.363 . S
C955 H926 0.950 . S
C955 C954 1.397 . S
C955 C956 1.334 . S
C956 H927 0.950 . S
C956 C955 1.334 . S
C956 C957 1.287 . S
C957 C956 1.287 . S
C957 C958 1.524 . S
C957 H960 0.999 . S
C958 H928 0.950 . S
C958 C957 1.524 . S
C958 C959 1.415 . S
C959 H929 0.950 . S
C959 C954 1.363 . S
C959 C958 1.415 . S
H960 C957 0.999 . S
H961 C942 0.913 . S
H962 C980 0.951 . S
H963 C982 0.951 . S
H964 C984 0.950 . S
H965 C985 0.950 . S
H966 C987 0.950 1_565 S
H967 C990 0.950 . S
H968 C991 0.950 . S
H969 C993 0.950 . S
H970 C994 0.950 . S
H971 C995 0.951 . S
H972 C997 0.951 . S
H973 C999 0.950 . S
H974 C1000 0.950 . S
H975 C1002 0.950 . S
H976 C1005 0.950 . S
H977 C1006 0.950 . S
H978 C1008 0.950 . S
H979 C1009 0.950 . S
C980 H962 0.951 . S
C980 C981 1.366 . S
C980 C982 1.388 . S
C981 C980 1.366 . S
C981 C985 1.385 . S
C982 H963 0.951 . S
C982 C980 1.388 . S
C982 C983 1.366 . S
C983 C982 1.366 . S
C983 C984 1.414 . S
C983 C986 1.499 1_565 S
C984 H964 0.950 . S
C984 C983 1.414 . S
C984 C985 1.374 . S
C985 H965 0.950 . S
C985 C981 1.385 . S
C985 C984 1.374 . S
C986 C983 1.499 1_545 S
C986 C987 1.373 . S
C986 C988 1.389 . S
C987 H966 0.950 1_545 S
C987 C986 1.373 . S
C987 C1003 1.377 . S
C988 C986 1.389 . S
C988 C989 1.524 . S
C988 C1002 1.377 . S
C989 C988 1.524 . S
C989 C990 1.397 . S
C989 C994 1.363 . S
C990 H967 0.950 . S
C990 C989 1.397 . S
C990 C991 1.334 . S
C991 H968 0.950 . S
C991 C990 1.334 . S
C991 C992 1.287 . S
C992 C991 1.287 . S
C992 C993 1.524 . S
C992 H1011 0.913 . S
C993 H969 0.950 . S
C993 C992 1.524 . S
C993 C994 1.415 . S
C994 H970 0.950 . S
C994 C989 1.363 . S
C994 C993 1.415 . S
C995 H971 0.951 . S
C995 C996 1.366 . S
C995 C997 1.388 . S
C996 C995 1.366 . S
C996 C1000 1.385 . S
C997 H972 0.951 . S
C997 C995 1.388 . S
C997 C998 1.366 . S
C998 C997 1.366 . S
C998 C999 1.414 . S
C998 C1001 1.499 . S
C999 H973 0.950 . S
C999 C998 1.414 . S
C999 C1000 1.374 . S
C1000 H974 0.950 . S
C1000 C996 1.385 . S
C1000 C999 1.374 . S
C1001 C998 1.499 . S
C1001 C1002 1.373 . S
C1001 C1003 1.389 . S
C1002 H975 0.950 . S
C1002 C988 1.377 . S
C1002 C1001 1.373 . S
C1003 C987 1.377 . S
C1003 C1001 1.389 . S
C1003 C1004 1.524 . S
C1004 C1003 1.524 . S
C1004 C1005 1.397 . S
C1004 C1009 1.363 . S
C1005 H976 0.950 . S
C1005 C1004 1.397 . S
C1005 C1006 1.334 1_545 S
C1006 H977 0.950 . S
C1006 C1005 1.334 1_565 S
C1006 C1007 1.287 . S
C1007 C1006 1.287 . S
C1007 C1008 1.524 . S
C1007 H1010 0.999 . S
C1008 H978 0.950 . S
C1008 C1007 1.524 . S
C1008 C1009 1.415 1_565 S
C1009 H979 0.950 . S
C1009 C1004 1.363 . S
C1009 C1008 1.415 1_545 S
H1010 C1007 0.999 . S
H1011 C992 0.913 . S
H1012 C1030 0.951 . S
H1013 C1032 0.951 . S
H1014 C1034 0.950 . S
H1015 C1035 0.950 . S
H1016 C1037 0.950 . S
H1017 C1040 0.950 . S
H1018 C1041 0.950 . S
H1019 C1043 0.950 . S
H1020 C1044 0.950 . S
H1021 C1045 0.951 . S
H1022 C1047 0.951 . S
H1023 C1049 0.950 . S
H1024 C1050 0.950 . S
H1025 C1052 0.950 . S
H1026 C1055 0.950 . S
H1027 C1056 0.950 . S
H1028 C1058 0.950 . S
H1029 C1059 0.950 . S
C1030 H1012 0.951 . S
C1030 C1031 1.366 . S
C1030 C1032 1.388 . S
C1031 C1030 1.366 . S
C1031 C1035 1.385 . S
C1032 H1013 0.951 . S
C1032 C1030 1.388 . S
C1032 C1033 1.366 . S
C1033 C1032 1.366 . S
C1033 C1034 1.414 . S
C1033 C1036 1.499 . S
C1034 H1014 0.950 . S
C1034 C1033 1.414 . S
C1034 C1035 1.374 . S
C1035 H1015 0.950 . S
C1035 C1031 1.385 . S
C1035 C1034 1.374 . S
C1036 C1033 1.499 . S
C1036 C1037 1.373 . S
C1036 C1038 1.389 . S
C1037 H1016 0.950 . S
C1037 C1036 1.373 . S
C1037 C1053 1.377 . S
C1038 C1036 1.389 . S
C1038 C1039 1.524 . S
C1038 C1052 1.377 . S
C1039 C1038 1.524 . S
C1039 C1040 1.397 . S
C1039 C1044 1.363 . S
C1040 H1017 0.950 . S
C1040 C1039 1.397 . S
C1040 C1041 1.334 . S
C1041 H1018 0.950 . S
C1041 C1040 1.334 . S
C1041 C1042 1.287 . S
C1042 C1041 1.287 . S
C1042 C1043 1.524 . S
C1042 H1061 0.913 . S
C1043 H1019 0.950 . S
C1043 C1042 1.524 . S
C1043 C1044 1.415 . S
C1044 H1020 0.950 . S
C1044 C1039 1.363 . S
C1044 C1043 1.415 . S
C1045 H1021 0.951 . S
C1045 C1046 1.366 . S
C1045 C1047 1.388 . S
C1046 C1045 1.366 . S
C1046 C1050 1.385 . S
C1047 H1022 0.951 . S
C1047 C1045 1.388 . S
C1047 C1048 1.366 . S
C1048 C1047 1.366 . S
C1048 C1049 1.414 1_554 S
C1048 C1051 1.499 1_554 S
C1049 H1023 0.950 . S
C1049 C1048 1.414 1_556 S
C1049 C1050 1.374 1_556 S
C1050 H1024 0.950 . S
C1050 C1046 1.385 . S
C1050 C1049 1.374 1_554 S
C1051 C1048 1.499 1_556 S
C1051 C1052 1.373 . S
C1051 C1053 1.389 . S
C1052 H1025 0.950 . S
C1052 C1038 1.377 . S
C1052 C1051 1.373 . S
C1053 C1037 1.377 . S
C1053 C1051 1.389 . S
C1053 C1054 1.524 1_556 S
C1054 C1053 1.524 1_554 S
C1054 C1055 1.397 . S
C1054 C1059 1.363 . S
C1055 H1026 0.950 . S
C1055 C1054 1.397 . S
C1055 C1056 1.334 . S
C1056 H1027 0.950 . S
C1056 C1055 1.334 . S
C1056 C1057 1.287 . S
C1057 C1056 1.287 . S
C1057 C1058 1.524 . S
C1057 H1060 0.999 . S
C1058 H1028 0.950 . S
C1058 C1057 1.524 . S
C1058 C1059 1.415 . S
C1059 H1029 0.950 . S
C1059 C1054 1.363 . S
C1059 C1058 1.415 . S
H1060 C1057 0.999 . S
H1061 C1042 0.913 . S
H1062 C1080 0.951 . S
H1063 C1082 0.951 . S
H1064 C1084 0.950 . S
H1065 C1085 0.950 . S
H1066 C1087 0.950 1_545 S
H1067 C1090 0.950 . S
H1068 C1091 0.950 . S
H1069 C1093 0.950 . S
H1070 C1094 0.950 . S
H1071 C1095 0.951 . S
H1072 C1097 0.951 . S
H1073 C1099 0.950 . S
H1074 C1100 0.950 . S
H1075 C1102 0.950 . S
H1076 C1105 0.950 . S
H1077 C1106 0.950 . S
H1078 C1108 0.950 . S
H1079 C1109 0.950 . S
C1080 H1062 0.951 . S
C1080 C1081 1.366 . S
C1080 C1082 1.388 1_545 S
C1081 C1080 1.366 . S
C1081 C1085 1.385 . S
C1082 H1063 0.951 . S
C1082 C1080 1.388 1_565 S
C1082 C1083 1.366 1_565 S
C1083 C1082 1.366 1_545 S
C1083 C1084 1.414 . S
C1083 C1086 1.499 1_545 S
C1084 H1064 0.950 . S
C1084 C1083 1.414 . S
C1084 C1085 1.374 . S
C1085 H1065 0.950 . S
C1085 C1081 1.385 . S
C1085 C1084 1.374 . S
C1086 C1083 1.499 1_565 S
C1086 C1087 1.373 . S
C1086 C1088 1.389 . S
C1087 H1066 0.950 1_565 S
C1087 C1086 1.373 . S
C1087 C1103 1.377 . S
C1088 C1086 1.389 . S
C1088 C1089 1.524 . S
C1088 C1102 1.377 . S
C1089 C1088 1.524 . S
C1089 C1090 1.397 . S
C1089 C1094 1.363 . S
C1090 H1067 0.950 . S
C1090 C1089 1.397 . S
C1090 C1091 1.334 . S
C1091 H1068 0.950 . S
C1091 C1090 1.334 . S
C1091 C1092 1.287 . S
C1092 C1091 1.287 . S
C1092 C1093 1.524 . S
C1092 H1111 0.913 . S
C1093 H1069 0.950 . S
C1093 C1092 1.524 . S
C1093 C1094 1.415 . S
C1094 H1070 0.950 . S
C1094 C1089 1.363 . S
C1094 C1093 1.415 . S
C1095 H1071 0.951 . S
C1095 C1096 1.366 . S
C1095 C1097 1.388 . S
C1096 C1095 1.366 . S
C1096 C1100 1.385 . S
C1097 H1072 0.951 . S
C1097 C1095 1.388 . S
C1097 C1098 1.366 . S
C1098 C1097 1.366 . S
C1098 C1099 1.414 . S
C1098 C1101 1.499 . S
C1099 H1073 0.950 . S
C1099 C1098 1.414 . S
C1099 C1100 1.374 . S
C1100 H1074 0.950 . S
C1100 C1096 1.385 . S
C1100 C1099 1.374 . S
C1101 C1098 1.499 . S
C1101 C1102 1.373 . S
C1101 C1103 1.389 . S
C1102 H1075 0.950 . S
C1102 C1088 1.377 . S
C1102 C1101 1.373 . S
C1103 C1087 1.377 . S
C1103 C1101 1.389 . S
C1103 C1104 1.524 . S
C1104 C1103 1.524 . S
C1104 C1105 1.397 . S
C1104 C1109 1.363 1_565 S
C1105 H1076 0.950 . S
C1105 C1104 1.397 . S
C1105 C1106 1.334 . S
C1106 H1077 0.950 . S
C1106 C1105 1.334 . S
C1106 C1107 1.287 1_565 S
C1107 C1106 1.287 1_545 S
C1107 C1108 1.524 . S
C1107 H1110 0.999 . S
C1108 H1078 0.950 . S
C1108 C1107 1.524 . S
C1108 C1109 1.415 . S
C1109 H1079 0.950 . S
C1109 C1104 1.363 1_545 S
C1109 C1108 1.415 . S
H1110 C1107 0.999 . S
H1111 C1092 0.913 . S
H1112 C1130 0.951 . S
H1113 C1132 0.951 . S
H1114 C1134 0.950 . S
H1115 C1135 0.950 . S
H1116 C1137 0.950 . S
H1117 C1140 0.950 . S
H1118 C1141 0.950 . S
H1119 C1143 0.950 . S
H1120 C1144 0.950 . S
H1121 C1145 0.951 . S
H1122 C1147 0.951 . S
H1123 C1149 0.950 . S
H1124 C1150 0.950 . S
H1125 C1152 0.950 . S
H1126 C1155 0.950 . S
H1127 C1156 0.950 . S
H1128 C1158 0.950 . S
H1129 C1159 0.950 . S
C1130 H1112 0.951 . S
C1130 C1131 1.366 . S
C1130 C1132 1.388 . S
C1131 C1130 1.366 . S
C1131 C1135 1.385 . S
C1132 H1113 0.951 . S
C1132 C1130 1.388 . S
C1132 C1133 1.366 . S
C1133 C1132 1.366 . S
C1133 C1134 1.414 . S
C1133 C1136 1.499 . S
C1134 H1114 0.950 . S
C1134 C1133 1.414 . S
C1134 C1135 1.374 . S
C1135 H1115 0.950 . S
C1135 C1131 1.385 . S
C1135 C1134 1.374 . S
C1136 C1133 1.499 . S
C1136 C1137 1.373 . S
C1136 C1138 1.389 . S
C1137 H1116 0.950 . S
C1137 C1136 1.373 . S
C1137 C1153 1.377 . S
C1138 C1136 1.389 . S
C1138 C1139 1.524 . S
C1138 C1152 1.377 . S
C1139 C1138 1.524 . S
C1139 C1140 1.397 . S
C1139 C1144 1.363 . S
C1140 H1117 0.950 . S
C1140 C1139 1.397 . S
C1140 C1141 1.334 . S
C1141 H1118 0.950 . S
C1141 C1140 1.334 . S
C1141 C1142 1.287 . S
C1142 C1141 1.287 . S
C1142 C1143 1.524 . S
C1142 H1161 0.913 . S
C1143 H1119 0.950 . S
C1143 C1142 1.524 . S
C1143 C1144 1.415 . S
C1144 H1120 0.950 . S
C1144 C1139 1.363 . S
C1144 C1143 1.415 . S
C1145 H1121 0.951 . S
C1145 C1146 1.366 . S
C1145 C1147 1.388 . S
C1146 C1145 1.366 . S
C1146 C1150 1.385 . S
C1147 H1122 0.951 . S
C1147 C1145 1.388 . S
C1147 C1148 1.366 . S
C1148 C1147 1.366 . S
C1148 C1149 1.414 . S
C1148 C1151 1.499 . S
C1149 H1123 0.950 . S
C1149 C1148 1.414 . S
C1149 C1150 1.374 . S
C1150 H1124 0.950 . S
C1150 C1146 1.385 . S
C1150 C1149 1.374 . S
C1151 C1148 1.499 . S
C1151 C1152 1.373 . S
C1151 C1153 1.389 . S
C1152 H1125 0.950 . S
C1152 C1138 1.377 . S
C1152 C1151 1.373 . S
C1153 C1137 1.377 . S
C1153 C1151 1.389 . S
C1153 C1154 1.524 . S
C1154 C1153 1.524 . S
C1154 C1155 1.397 . S
C1154 C1159 1.363 . S
C1155 H1126 0.950 . S
C1155 C1154 1.397 . S
C1155 C1156 1.334 . S
C1156 H1127 0.950 . S
C1156 C1155 1.334 . S
C1156 C1157 1.287 . S
C1157 C1156 1.287 . S
C1157 C1158 1.524 . S
C1157 H1160 0.999 . S
C1158 H1128 0.950 . S
C1158 C1157 1.524 . S
C1158 C1159 1.415 . S
C1159 H1129 0.950 . S
C1159 C1154 1.363 . S
C1159 C1158 1.415 . S
H1160 C1157 0.999 . S
H1161 C1142 0.913 . S
H1162 C1180 0.951 . S
H1163 C1182 0.951 . S
H1164 C1184 0.950 . S
H1165 C1185 0.950 . S
H1166 C1187 0.950 . S
H1167 C1190 0.950 . S
H1168 C1191 0.950 . S
H1169 C1193 0.950 . S
H1170 C1194 0.950 . S
H1171 C1195 0.951 . S
H1172 C1197 0.951 . S
H1173 C1199 0.950 . S
H1174 C1200 0.950 . S
H1175 C1202 0.950 . S
H1176 C1205 0.950 . S
H1177 C1206 0.950 . S
H1178 C1208 0.950 . S
H1179 C1209 0.950 . S
C1180 H1162 0.951 . S
C1180 C1181 1.366 . S
C1180 C1182 1.388 . S
C1181 C1180 1.366 . S
C1181 C1185 1.385 . S
C1182 H1163 0.951 . S
C1182 C1180 1.388 . S
C1182 C1183 1.366 . S
C1183 C1182 1.366 . S
C1183 C1184 1.414 . S
C1183 C1186 1.499 . S
C1184 H1164 0.950 . S
C1184 C1183 1.414 . S
C1184 C1185 1.374 . S
C1185 H1165 0.950 . S
C1185 C1181 1.385 . S
C1185 C1184 1.374 . S
C1186 C1183 1.499 . S
C1186 C1187 1.373 . S
C1186 C1188 1.389 . S
C1187 H1166 0.950 . S
C1187 C1186 1.373 . S
C1187 C1203 1.377 . S
C1188 C1186 1.389 . S
C1188 C1189 1.524 . S
C1188 C1202 1.377 . S
C1189 C1188 1.524 . S
C1189 C1190 1.397 . S
C1189 C1194 1.363 . S
C1190 H1167 0.950 . S
C1190 C1189 1.397 . S
C1190 C1191 1.334 . S
C1191 H1168 0.950 . S
C1191 C1190 1.334 . S
C1191 C1192 1.287 . S
C1192 C1191 1.287 . S
C1192 C1193 1.524 . S
C1192 H1211 0.913 . S
C1193 H1169 0.950 . S
C1193 C1192 1.524 . S
C1193 C1194 1.415 . S
C1194 H1170 0.950 . S
C1194 C1189 1.363 . S
C1194 C1193 1.415 . S
C1195 H1171 0.951 . S
C1195 C1196 1.366 . S
C1195 C1197 1.388 . S
C1196 C1195 1.366 . S
C1196 C1200 1.385 . S
C1197 H1172 0.951 . S
C1197 C1195 1.388 . S
C1197 C1198 1.366 . S
C1198 C1197 1.366 . S
C1198 C1199 1.414 . S
C1198 C1201 1.499 . S
C1199 H1173 0.950 . S
C1199 C1198 1.414 . S
C1199 C1200 1.374 . S
C1200 H1174 0.950 . S
C1200 C1196 1.385 . S
C1200 C1199 1.374 . S
C1201 C1198 1.499 . S
C1201 C1202 1.373 . S
C1201 C1203 1.389 . S
C1202 H1175 0.950 . S
C1202 C1188 1.377 . S
C1202 C1201 1.373 . S
C1203 C1187 1.377 . S
C1203 C1201 1.389 . S
C1203 C1204 1.524 . S
C1204 C1203 1.524 . S
C1204 C1205 1.397 . S
C1204 C1209 1.363 . S
C1205 H1176 0.950 . S
C1205 C1204 1.397 . S
C1205 C1206 1.334 . S
C1206 H1177 0.950 . S
C1206 C1205 1.334 . S
C1206 C1207 1.287 . S
C1207 C1206 1.287 . S
C1207 C1208 1.524 . S
C1207 H1210 0.999 . S
C1208 H1178 0.950 . S
C1208 C1207 1.524 . S
C1208 C1209 1.415 . S
C1209 H1179 0.950 . S
C1209 C1204 1.363 . S
C1209 C1208 1.415 . S
H1210 C1207 0.999 . S
H1211 C1192 0.913 . S
H1212 C1230 0.951 . S
H1213 C1232 0.951 1_554 S
H1214 C1234 0.950 . S
H1215 C1235 0.950 . S
H1216 C1237 0.950 1_556 S
H1217 C1240 0.950 . S
H1218 C1241 0.950 . S
H1219 C1243 0.950 . S
H1220 C1244 0.950 . S
H1221 C1245 0.951 . S
H1222 C1247 0.951 . S
H1223 C1249 0.950 . S
H1224 C1250 0.950 . S
H1225 C1252 0.950 . S
H1226 C1255 0.950 . S
H1227 C1256 0.950 . S
H1228 C1258 0.950 . S
H1229 C1259 0.950 . S
C1230 H1212 0.951 . S
C1230 C1231 1.366 . S
C1230 C1232 1.388 . S
C1231 C1230 1.366 . S
C1231 C1235 1.385 . S
C1232 H1213 0.951 1_556 S
C1232 C1230 1.388 . S
C1232 C1233 1.366 . S
C1233 C1232 1.366 . S
C1233 C1234 1.414 . S
C1233 C1236 1.499 1_556 S
C1234 H1214 0.950 . S
C1234 C1233 1.414 . S
C1234 C1235 1.374 . S
C1235 H1215 0.950 . S
C1235 C1231 1.385 . S
C1235 C1234 1.374 . S
C1236 C1233 1.499 1_554 S
C1236 C1237 1.373 . S
C1236 C1238 1.389 . S
C1237 H1216 0.950 1_554 S
C1237 C1236 1.373 . S
C1237 C1253 1.377 . S
C1238 C1236 1.389 . S
C1238 C1239 1.524 . S
C1238 C1252 1.377 . S
C1239 C1238 1.524 . S
C1239 C1240 1.397 . S
C1239 C1244 1.363 . S
C1240 H1217 0.950 . S
C1240 C1239 1.397 . S
C1240 C1241 1.334 . S
C1241 H1218 0.950 . S
C1241 C1240 1.334 . S
C1241 C1242 1.287 . S
C1242 C1241 1.287 . S
C1242 C1243 1.524 . S
C1242 H1261 0.913 . S
C1243 H1219 0.950 . S
C1243 C1242 1.524 . S
C1243 C1244 1.415 . S
C1244 H1220 0.950 . S
C1244 C1239 1.363 . S
C1244 C1243 1.415 . S
C1245 H1221 0.951 . S
C1245 C1246 1.366 . S
C1245 C1247 1.388 . S
C1246 C1245 1.366 . S
C1246 C1250 1.385 . S
C1247 H1222 0.951 . S
C1247 C1245 1.388 . S
C1247 C1248 1.366 . S
C1248 C1247 1.366 . S
C1248 C1249 1.414 . S
C1248 C1251 1.499 . S
C1249 H1223 0.950 . S
C1249 C1248 1.414 . S
C1249 C1250 1.374 . S
C1250 H1224 0.950 . S
C1250 C1246 1.385 . S
C1250 C1249 1.374 . S
C1251 C1248 1.499 . S
C1251 C1252 1.373 . S
C1251 C1253 1.389 . S
C1252 H1225 0.950 . S
C1252 C1238 1.377 . S
C1252 C1251 1.373 . S
C1253 C1237 1.377 . S
C1253 C1251 1.389 . S
C1253 C1254 1.524 . S
C1254 C1253 1.524 . S
C1254 C1255 1.397 . S
C1254 C1259 1.363 1_554 S
C1255 H1226 0.950 . S
C1255 C1254 1.397 . S
C1255 C1256 1.334 1_554 S
C1256 H1227 0.950 . S
C1256 C1255 1.334 1_556 S
C1256 C1257 1.287 . S
C1257 C1256 1.287 . S
C1257 C1258 1.524 . S
C1257 H1260 0.999 . S
C1258 H1228 0.950 . S
C1258 C1257 1.524 . S
C1258 C1259 1.415 . S
C1259 H1229 0.950 . S
C1259 C1254 1.363 1_556 S
C1259 C1258 1.415 . S
H1260 C1257 0.999 . S
H1261 C1242 0.913 . S
H1262 C1280 0.951 . S
H1263 C1282 0.951 . S
H1264 C1284 0.950 . S
H1265 C1285 0.950 . S
H1266 C1287 0.950 . S
H1267 C1290 0.950 . S
H1268 C1291 0.950 . S
H1269 C1293 0.950 . S
H1270 C1294 0.950 . S
H1271 C1295 0.951 . S
H1272 C1297 0.951 . S
H1273 C1299 0.950 . S
H1274 C1300 0.950 . S
H1275 C1302 0.950 . S
H1276 C1305 0.950 . S
H1277 C1306 0.950 . S
H1278 C1308 0.950 . S
H1279 C1309 0.950 . S
C1280 H1262 0.951 . S
C1280 C1281 1.366 . S
C1280 C1282 1.388 . S
C1281 C1280 1.366 . S
C1281 C1285 1.385 . S
C1282 H1263 0.951 . S
C1282 C1280 1.388 . S
C1282 C1283 1.366 . S
C1283 C1282 1.366 . S
C1283 C1284 1.414 . S
C1283 C1286 1.499 . S
C1284 H1264 0.950 . S
C1284 C1283 1.414 . S
C1284 C1285 1.374 . S
C1285 H1265 0.950 . S
C1285 C1281 1.385 . S
C1285 C1284 1.374 . S
C1286 C1283 1.499 . S
C1286 C1287 1.373 . S
C1286 C1288 1.389 . S
C1287 H1266 0.950 . S
C1287 C1286 1.373 . S
C1287 C1303 1.377 . S
C1288 C1286 1.389 . S
C1288 C1289 1.524 . S
C1288 C1302 1.377 . S
C1289 C1288 1.524 . S
C1289 C1290 1.397 . S
C1289 C1294 1.363 . S
C1290 H1267 0.950 . S
C1290 C1289 1.397 . S
C1290 C1291 1.334 . S
C1291 H1268 0.950 . S
C1291 C1290 1.334 . S
C1291 C1292 1.287 . S
C1292 C1291 1.287 . S
C1292 C1293 1.524 . S
C1292 H1311 0.913 . S
C1293 H1269 0.950 . S
C1293 C1292 1.524 . S
C1293 C1294 1.415 . S
C1294 H1270 0.950 . S
C1294 C1289 1.363 . S
C1294 C1293 1.415 . S
C1295 H1271 0.951 . S
C1295 C1296 1.366 . S
C1295 C1297 1.388 . S
C1296 C1295 1.366 . S
C1296 C1300 1.385 . S
C1297 H1272 0.951 . S
C1297 C1295 1.388 . S
C1297 C1298 1.366 . S
C1298 C1297 1.366 . S
C1298 C1299 1.414 . S
C1298 C1301 1.499 . S
C1299 H1273 0.950 . S
C1299 C1298 1.414 . S
C1299 C1300 1.374 . S
C1300 H1274 0.950 . S
C1300 C1296 1.385 . S
C1300 C1299 1.374 . S
C1301 C1298 1.499 . S
C1301 C1302 1.373 . S
C1301 C1303 1.389 . S
C1302 H1275 0.950 . S
C1302 C1288 1.377 . S
C1302 C1301 1.373 . S
C1303 C1287 1.377 . S
C1303 C1301 1.389 . S
C1303 C1304 1.524 . S
C1304 C1303 1.524 . S
C1304 C1305 1.397 . S
C1304 C1309 1.363 . S
C1305 H1276 0.950 . S
C1305 C1304 1.397 . S
C1305 C1306 1.334 . S
C1306 H1277 0.950 . S
C1306 C1305 1.334 . S
C1306 C1307 1.287 . S
C1307 C1306 1.287 . S
C1307 C1308 1.524 . S
C1307 H1310 0.999 . S
C1308 H1278 0.950 . S
C1308 C1307 1.524 . S
C1308 C1309 1.415 . S
C1309 H1279 0.950 . S
C1309 C1304 1.363 . S
C1309 C1308 1.415 . S
H1310 C1307 0.999 . S
H1311 C1292 0.913 . S
H1312 C1330 0.951 . S
H1313 C1332 0.951 . S
H1314 C1334 0.950 . S
H1315 C1335 0.950 . S
H1316 C1337 0.950 . S
H1317 C1340 0.950 . S
H1318 C1341 0.950 . S
H1319 C1343 0.950 . S
H1320 C1344 0.950 . S
H1321 C1345 0.951 . S
H1322 C1347 0.951 . S
H1323 C1349 0.950 . S
H1324 C1350 0.950 . S
H1325 C1352 0.950 . S
H1326 C1355 0.950 . S
H1327 C1356 0.950 . S
H1328 C1358 0.950 . S
H1329 C1359 0.950 . S
C1330 H1312 0.951 . S
C1330 C1331 1.366 . S
C1330 C1332 1.388 . S
C1331 C1330 1.366 . S
C1331 C1335 1.385 . S
C1332 H1313 0.951 . S
C1332 C1330 1.388 . S
C1332 C1333 1.366 . S
C1333 C1332 1.366 . S
C1333 C1334 1.414 . S
C1333 C1336 1.499 . S
C1334 H1314 0.950 . S
C1334 C1333 1.414 . S
C1334 C1335 1.374 . S
C1335 H1315 0.950 . S
C1335 C1331 1.385 . S
C1335 C1334 1.374 . S
C1336 C1333 1.499 . S
C1336 C1337 1.373 . S
C1336 C1338 1.389 . S
C1337 H1316 0.950 . S
C1337 C1336 1.373 . S
C1337 C1353 1.377 . S
C1338 C1336 1.389 . S
C1338 C1339 1.524 . S
C1338 C1352 1.377 . S
C1339 C1338 1.524 . S
C1339 C1340 1.397 . S
C1339 C1344 1.363 . S
C1340 H1317 0.950 . S
C1340 C1339 1.397 . S
C1340 C1341 1.334 . S
C1341 H1318 0.950 . S
C1341 C1340 1.334 . S
C1341 C1342 1.287 . S
C1342 C1341 1.287 . S
C1342 C1343 1.524 . S
C1342 H1361 0.913 . S
C1343 H1319 0.950 . S
C1343 C1342 1.524 . S
C1343 C1344 1.415 . S
C1344 H1320 0.950 . S
C1344 C1339 1.363 . S
C1344 C1343 1.415 . S
C1345 H1321 0.951 . S
C1345 C1346 1.366 . S
C1345 C1347 1.388 . S
C1346 C1345 1.366 . S
C1346 C1350 1.385 . S
C1347 H1322 0.951 . S
C1347 C1345 1.388 . S
C1347 C1348 1.366 . S
C1348 C1347 1.366 . S
C1348 C1349 1.414 . S
C1348 C1351 1.499 . S
C1349 H1323 0.950 . S
C1349 C1348 1.414 . S
C1349 C1350 1.374 . S
C1350 H1324 0.950 . S
C1350 C1346 1.385 . S
C1350 C1349 1.374 . S
C1351 C1348 1.499 . S
C1351 C1352 1.373 . S
C1351 C1353 1.389 . S
C1352 H1325 0.950 . S
C1352 C1338 1.377 . S
C1352 C1351 1.373 . S
C1353 C1337 1.377 . S
C1353 C1351 1.389 . S
C1353 C1354 1.524 . S
C1354 C1353 1.524 . S
C1354 C1355 1.397 . S
C1354 C1359 1.363 . S
C1355 H1326 0.950 . S
C1355 C1354 1.397 . S
C1355 C1356 1.334 . S
C1356 H1327 0.950 . S
C1356 C1355 1.334 . S
C1356 C1357 1.287 . S
C1357 C1356 1.287 . S
C1357 C1358 1.524 . S
C1357 H1360 0.999 . S
C1358 H1328 0.950 . S
C1358 C1357 1.524 . S
C1358 C1359 1.415 . S
C1359 H1329 0.950 . S
C1359 C1354 1.363 . S
C1359 C1358 1.415 . S
H1360 C1357 0.999 . S
H1361 C1342 0.913 . S
H1362 C1380 0.951 . S
H1363 C1382 0.951 1_655 S
H1364 C1384 0.950 . S
H1365 C1385 0.950 . S
H1366 C1387 0.950 1_455 S
H1367 C1390 0.950 . S
H1368 C1391 0.950 . S
H1369 C1393 0.950 . S
H1370 C1394 0.950 . S
H1371 C1395 0.951 . S
H1372 C1397 0.951 . S
H1373 C1399 0.950 . S
H1374 C1400 0.950 . S
H1375 C1402 0.950 . S
H1376 C1405 0.950 . S
H1377 C1406 0.950 . S
H1378 C1408 0.950 . S
H1379 C1409 0.950 . S
C1380 H1362 0.951 . S
C1380 C1381 1.366 . S
C1380 C1382 1.388 . S
C1381 C1380 1.366 . S
C1381 C1385 1.385 . S
C1382 H1363 0.951 1_455 S
C1382 C1380 1.388 . S
C1382 C1383 1.366 . S
C1383 C1382 1.366 . S
C1383 C1384 1.414 . S
C1383 C1386 1.499 1_455 S
C1384 H1364 0.950 . S
C1384 C1383 1.414 . S
C1384 C1385 1.374 . S
C1385 H1365 0.950 . S
C1385 C1381 1.385 . S
C1385 C1384 1.374 . S
C1386 C1383 1.499 1_655 S
C1386 C1387 1.373 . S
C1386 C1388 1.389 . S
C1387 H1366 0.950 1_655 S
C1387 C1386 1.373 . S
C1387 C1403 1.377 . S
C1388 C1386 1.389 . S
C1388 C1389 1.524 . S
C1388 C1402 1.377 . S
C1389 C1388 1.524 . S
C1389 C1390 1.397 . S
C1389 C1394 1.363 . S
C1390 H1367 0.950 . S
C1390 C1389 1.397 . S
C1390 C1391 1.334 . S
C1391 H1368 0.950 . S
C1391 C1390 1.334 . S
C1391 C1392 1.287 . S
C1392 C1391 1.287 . S
C1392 C1393 1.524 . S
C1392 H1411 0.913 . S
C1393 H1369 0.950 . S
C1393 C1392 1.524 . S
C1393 C1394 1.415 . S
C1394 H1370 0.950 . S
C1394 C1389 1.363 . S
C1394 C1393 1.415 . S
C1395 H1371 0.951 . S
C1395 C1396 1.366 . S
C1395 C1397 1.388 . S
C1396 C1395 1.366 . S
C1396 C1400 1.385 . S
C1397 H1372 0.951 . S
C1397 C1395 1.388 . S
C1397 C1398 1.366 . S
C1398 C1397 1.366 . S
C1398 C1399 1.414 . S
C1398 C1401 1.499 . S
C1399 H1373 0.950 . S
C1399 C1398 1.414 . S
C1399 C1400 1.374 . S
C1400 H1374 0.950 . S
C1400 C1396 1.385 . S
C1400 C1399 1.374 . S
C1401 C1398 1.499 . S
C1401 C1402 1.373 . S
C1401 C1403 1.389 . S
C1402 H1375 0.950 . S
C1402 C1388 1.377 . S
C1402 C1401 1.373 . S
C1403 C1387 1.377 . S
C1403 C1401 1.389 . S
C1403 C1404 1.524 . S
C1404 C1403 1.524 . S
C1404 C1405 1.397 . S
C1404 C1409 1.363 1_655 S
C1405 H1376 0.950 . S
C1405 C1404 1.397 . S
C1405 C1406 1.334 1_655 S
C1406 H1377 0.950 . S
C1406 C1405 1.334 1_455 S
C1406 C1407 1.287 . S
C1407 C1406 1.287 . S
C1407 C1408 1.524 . S
C1407 H1410 0.999 . S
C1408 H1378 0.950 . S
C1408 C1407 1.524 . S
C1408 C1409 1.415 . S
C1409 H1379 0.950 . S
C1409 C1404 1.363 1_455 S
C1409 C1408 1.415 . S
H1410 C1407 0.999 . S
H1411 C1392 0.913 . S
H1412 C1430 0.951 . S
H1413 C1432 0.951 . S
H1414 C1434 0.950 . S
H1415 C1435 0.950 . S
H1416 C1437 0.950 . S
H1417 C1440 0.950 . S
H1418 C1441 0.950 . S
H1419 C1443 0.950 . S
H1420 C1444 0.950 . S
H1421 C1445 0.951 . S
H1422 C1447 0.951 . S
H1423 C1449 0.950 . S
H1424 C1450 0.950 . S
H1425 C1452 0.950 . S
H1426 C1455 0.950 . S
H1427 C1456 0.950 . S
H1428 C1458 0.950 . S
H1429 C1459 0.950 . S
C1430 H1412 0.951 . S
C1430 C1431 1.366 . S
C1430 C1432 1.388 . S
C1431 C1430 1.366 . S
C1431 C1435 1.385 . S
C1432 H1413 0.951 . S
C1432 C1430 1.388 . S
C1432 C1433 1.366 . S
C1433 C1432 1.366 . S
C1433 C1434 1.414 1_655 S
C1433 C1436 1.499 1_655 S
C1434 H1414 0.950 . S
C1434 C1433 1.414 1_455 S
C1434 C1435 1.374 1_455 S
C1435 H1415 0.950 . S
C1435 C1431 1.385 . S
C1435 C1434 1.374 1_655 S
C1436 C1433 1.499 1_455 S
C1436 C1437 1.373 . S
C1436 C1438 1.389 . S
C1437 H1416 0.950 . S
C1437 C1436 1.373 . S
C1437 C1453 1.377 . S
C1438 C1436 1.389 . S
C1438 C1439 1.524 1_455 S
C1438 C1452 1.377 . S
C1439 C1438 1.524 1_655 S
C1439 C1440 1.397 . S
C1439 C1444 1.363 . S
C1440 H1417 0.950 . S
C1440 C1439 1.397 . S
C1440 C1441 1.334 . S
C1441 H1418 0.950 . S
C1441 C1440 1.334 . S
C1441 C1442 1.287 . S
C1442 C1441 1.287 . S
C1442 C1443 1.524 . S
C1442 H1461 0.913 . S
C1443 H1419 0.950 . S
C1443 C1442 1.524 . S
C1443 C1444 1.415 . S
C1444 H1420 0.950 . S
C1444 C1439 1.363 . S
C1444 C1443 1.415 . S
C1445 H1421 0.951 . S
C1445 C1446 1.366 . S
C1445 C1447 1.388 . S
C1446 C1445 1.366 . S
C1446 C1450 1.385 . S
C1447 H1422 0.951 . S
C1447 C1445 1.388 . S
C1447 C1448 1.366 . S
C1448 C1447 1.366 . S
C1448 C1449 1.414 . S
C1448 C1451 1.499 . S
C1449 H1423 0.950 . S
C1449 C1448 1.414 . S
C1449 C1450 1.374 . S
C1450 H1424 0.950 . S
C1450 C1446 1.385 . S
C1450 C1449 1.374 . S
C1451 C1448 1.499 . S
C1451 C1452 1.373 . S
C1451 C1453 1.389 . S
C1452 H1425 0.950 . S
C1452 C1438 1.377 . S
C1452 C1451 1.373 . S
C1453 C1437 1.377 . S
C1453 C1451 1.389 . S
C1453 C1454 1.524 . S
C1454 C1453 1.524 . S
C1454 C1455 1.397 . S
C1454 C1459 1.363 . S
C1455 H1426 0.950 . S
C1455 C1454 1.397 . S
C1455 C1456 1.334 . S
C1456 H1427 0.950 . S
C1456 C1455 1.334 . S
C1456 C1457 1.287 . S
C1457 C1456 1.287 . S
C1457 C1458 1.524 . S
C1457 H1460 0.999 . S
C1458 H1428 0.950 . S
C1458 C1457 1.524 . S
C1458 C1459 1.415 . S
C1459 H1429 0.950 . S
C1459 C1454 1.363 . S
C1459 C1458 1.415 . S
H1460 C1457 0.999 . S
H1461 C1442 0.913 . S
H1462 C1480 0.951 . S
H1463 C1482 0.951 . S
H1464 C1484 0.950 . S
H1465 C1485 0.950 . S
H1466 C1487 0.950 . S
H1467 C1490 0.950 . S
H1468 C1491 0.950 . S
H1469 C1493 0.950 . S
H1470 C1494 0.950 . S
H1471 C1495 0.951 . S
H1472 C1497 0.951 . S
H1473 C1499 0.950 . S
H1474 C1500 0.950 . S
H1475 C1502 0.950 . S
H1476 C1505 0.950 . S
H1477 C1506 0.950 . S
H1478 C1508 0.950 . S
H1479 C1509 0.950 . S
C1480 H1462 0.951 . S
C1480 C1481 1.366 . S
C1480 C1482 1.388 . S
C1481 C1480 1.366 . S
C1481 C1485 1.385 . S
C1482 H1463 0.951 . S
C1482 C1480 1.388 . S
C1482 C1483 1.366 . S
C1483 C1482 1.366 . S
C1483 C1484 1.414 . S
C1483 C1486 1.499 . S
C1484 H1464 0.950 . S
C1484 C1483 1.414 . S
C1484 C1485 1.374 . S
C1485 H1465 0.950 . S
C1485 C1481 1.385 . S
C1485 C1484 1.374 . S
C1486 C1483 1.499 . S
C1486 C1487 1.373 . S
C1486 C1488 1.389 . S
C1487 H1466 0.950 . S
C1487 C1486 1.373 . S
C1487 C1503 1.377 . S
C1488 C1486 1.389 . S
C1488 C1489 1.524 . S
C1488 C1502 1.377 . S
C1489 C1488 1.524 . S
C1489 C1490 1.397 . S
C1489 C1494 1.363 . S
C1490 H1467 0.950 . S
C1490 C1489 1.397 . S
C1490 C1491 1.334 . S
C1491 H1468 0.950 . S
C1491 C1490 1.334 . S
C1491 C1492 1.287 . S
C1492 C1491 1.287 . S
C1492 C1493 1.524 . S
C1492 H1511 0.913 . S
C1493 H1469 0.950 . S
C1493 C1492 1.524 . S
C1493 C1494 1.415 . S
C1494 H1470 0.950 . S
C1494 C1489 1.363 . S
C1494 C1493 1.415 . S
C1495 H1471 0.951 . S
C1495 C1496 1.366 . S
C1495 C1497 1.388 . S
C1496 C1495 1.366 . S
C1496 C1500 1.385 . S
C1497 H1472 0.951 . S
C1497 C1495 1.388 . S
C1497 C1498 1.366 . S
C1498 C1497 1.366 . S
C1498 C1499 1.414 . S
C1498 C1501 1.499 . S
C1499 H1473 0.950 . S
C1499 C1498 1.414 . S
C1499 C1500 1.374 . S
C1500 H1474 0.950 . S
C1500 C1496 1.385 . S
C1500 C1499 1.374 . S
C1501 C1498 1.499 . S
C1501 C1502 1.373 . S
C1501 C1503 1.389 . S
C1502 H1475 0.950 . S
C1502 C1488 1.377 . S
C1502 C1501 1.373 . S
C1503 C1487 1.377 . S
C1503 C1501 1.389 . S
C1503 C1504 1.524 . S
C1504 C1503 1.524 . S
C1504 C1505 1.397 . S
C1504 C1509 1.363 . S
C1505 H1476 0.950 . S
C1505 C1504 1.397 . S
C1505 C1506 1.334 . S
C1506 H1477 0.950 . S
C1506 C1505 1.334 . S
C1506 C1507 1.287 . S
C1507 C1506 1.287 . S
C1507 C1508 1.524 . S
C1507 H1510 0.999 . S
C1508 H1478 0.950 . S
C1508 C1507 1.524 . S
C1508 C1509 1.415 . S
C1509 H1479 0.950 . S
C1509 C1504 1.363 . S
C1509 C1508 1.415 . S
H1510 C1507 0.999 . S
H1511 C1492 0.913 . S
H1512 C1530 0.951 . S
H1513 C1532 0.951 . S
H1514 C1534 0.950 . S
H1515 C1535 0.950 . S
H1516 C1537 0.950 . S
H1517 C1540 0.950 . S
H1518 C1541 0.950 . S
H1519 C1543 0.950 . S
H1520 C1544 0.950 . S
H1521 C1545 0.951 . S
H1522 C1547 0.951 . S
H1523 C1549 0.950 . S
H1524 C1550 0.950 . S
H1525 C1552 0.950 . S
H1526 C1555 0.950 . S
H1527 C1556 0.950 . S
H1528 C1558 0.950 . S
H1529 C1559 0.950 . S
C1530 H1512 0.951 . S
C1530 C1531 1.366 . S
C1530 C1532 1.388 . S
C1531 C1530 1.366 . S
C1531 C1535 1.385 . S
C1532 H1513 0.951 . S
C1532 C1530 1.388 . S
C1532 C1533 1.366 . S
C1533 C1532 1.366 . S
C1533 C1534 1.414 . S
C1533 C1536 1.499 . S
C1534 H1514 0.950 . S
C1534 C1533 1.414 . S
C1534 C1535 1.374 . S
C1535 H1515 0.950 . S
C1535 C1531 1.385 . S
C1535 C1534 1.374 . S
C1536 C1533 1.499 . S
C1536 C1537 1.373 . S
C1536 C1538 1.389 . S
C1537 H1516 0.950 . S
C1537 C1536 1.373 . S
C1537 C1553 1.377 . S
C1538 C1536 1.389 . S
C1538 C1539 1.524 . S
C1538 C1552 1.377 . S
C1539 C1538 1.524 . S
C1539 C1540 1.397 . S
C1539 C1544 1.363 . S
C1540 H1517 0.950 . S
C1540 C1539 1.397 . S
C1540 C1541 1.334 . S
C1541 H1518 0.950 . S
C1541 C1540 1.334 . S
C1541 C1542 1.287 . S
C1542 C1541 1.287 . S
C1542 C1543 1.524 . S
C1542 H1561 0.913 . S
C1543 H1519 0.950 . S
C1543 C1542 1.524 . S
C1543 C1544 1.415 . S
C1544 H1520 0.950 . S
C1544 C1539 1.363 . S
C1544 C1543 1.415 . S
C1545 H1521 0.951 . S
C1545 C1546 1.366 . S
C1545 C1547 1.388 . S
C1546 C1545 1.366 . S
C1546 C1550 1.385 . S
C1547 H1522 0.951 . S
C1547 C1545 1.388 . S
C1547 C1548 1.366 . S
C1548 C1547 1.366 . S
C1548 C1549 1.414 . S
C1548 C1551 1.499 . S
C1549 H1523 0.950 . S
C1549 C1548 1.414 . S
C1549 C1550 1.374 . S
C1550 H1524 0.950 . S
C1550 C1546 1.385 . S
C1550 C1549 1.374 . S
C1551 C1548 1.499 . S
C1551 C1552 1.373 . S
C1551 C1553 1.389 . S
C1552 H1525 0.950 . S
C1552 C1538 1.377 . S
C1552 C1551 1.373 . S
C1553 C1537 1.377 . S
C1553 C1551 1.389 . S
C1553 C1554 1.524 . S
C1554 C1553 1.524 . S
C1554 C1555 1.397 . S
C1554 C1559 1.363 . S
C1555 H1526 0.950 . S
C1555 C1554 1.397 . S
C1555 C1556 1.334 . S
C1556 H1527 0.950 . S
C1556 C1555 1.334 . S
C1556 C1557 1.287 . S
C1557 C1556 1.287 . S
C1557 C1558 1.524 . S
C1557 H1560 0.999 . S
C1558 H1528 0.950 . S
C1558 C1557 1.524 . S
C1558 C1559 1.415 . S
C1559 H1529 0.950 . S
C1559 C1554 1.363 . S
C1559 C1558 1.415 . S
H1560 C1557 0.999 . S
H1561 C1542 0.913 . S
H1562 C1580 0.951 . S
H1563 C1582 0.951 . S
H1564 C1584 0.950 . S
H1565 C1585 0.935 1_565 S
H1566 C1587 0.950 . S
H1567 C1590 0.950 . S
H1568 C1591 0.950 . S
H1569 C1593 0.950 . S
H1570 C1594 0.950 . S
H1571 C1595 0.951 . S
H1572 C1597 0.951 . S
H1573 C1599 0.950 . S
H1574 C1600 0.950 . S
H1575 C1602 0.950 . S
H1576 C1605 0.950 . S
H1577 C1606 0.950 . S
H1578 C1608 0.950 . S
H1579 C1609 0.950 . S
C1580 H1562 0.951 . S
C1580 C1581 1.366 . S
C1580 C1582 1.388 . S
C1581 C1580 1.366 . S
C1581 C1585 1.385 . S
C1582 H1563 0.951 . S
C1582 C1580 1.388 . S
C1582 C1583 1.372 . S
C1583 C1582 1.372 . S
C1583 C1584 1.411 1_545 S
C1583 C1586 1.495 1_545 S
C1584 H1564 0.950 . S
C1584 C1583 1.411 1_565 S
C1584 C1585 1.374 1_565 S
C1585 H1565 0.935 1_545 S
C1585 C1581 1.385 . S
C1585 C1584 1.374 1_545 S
C1586 C1583 1.495 1_565 S
C1586 C1587 1.373 . S
C1586 C1588 1.389 . S
C1587 H1566 0.950 . S
C1587 C1586 1.373 . S
C1587 C1603 1.377 . S
C1588 C1586 1.389 . S
C1588 C1589 1.524 1_565 S
C1588 C1602 1.377 . S
C1589 C1588 1.524 1_545 S
C1589 C1590 1.397 . S
C1589 C1594 1.363 . S
C1590 H1567 0.950 . S
C1590 C1589 1.397 . S
C1590 C1591 1.334 . S
C1591 H1568 0.950 . S
C1591 C1590 1.334 . S
C1591 C1592 1.287 . S
C1592 C1591 1.287 . S
C1592 C1593 1.524 . S
C1592 H1611 0.913 . S
C1593 H1569 0.950 . S
C1593 C1592 1.524 . S
C1593 C1594 1.415 . S
C1594 H1570 0.950 . S
C1594 C1589 1.363 . S
C1594 C1593 1.415 . S
C1595 H1571 0.951 . S
C1595 C1596 1.366 . S
C1595 C1597 1.388 . S
C1596 C1595 1.366 . S
C1596 C1600 1.385 . S
C1597 H1572 0.951 . S
C1597 C1595 1.388 . S
C1597 C1598 1.366 . S
C1598 C1597 1.366 . S
C1598 C1599 1.414 . S
C1598 C1601 1.499 . S
C1599 H1573 0.950 . S
C1599 C1598 1.414 . S
C1599 C1600 1.374 . S
C1600 H1574 0.950 . S
C1600 C1596 1.385 . S
C1600 C1599 1.374 . S
C1601 C1598 1.499 . S
C1601 C1602 1.373 . S
C1601 C1603 1.389 . S
C1602 H1575 0.950 . S
C1602 C1588 1.377 . S
C1602 C1601 1.373 . S
C1603 C1587 1.377 . S
C1603 C1601 1.389 . S
C1603 C1604 1.524 . S
C1604 C1603 1.524 . S
C1604 C1605 1.397 . S
C1604 C1609 1.363 . S
C1605 H1576 0.950 . S
C1605 C1604 1.397 . S
C1605 C1606 1.334 . S
C1606 H1577 0.950 . S
C1606 C1605 1.334 . S
C1606 C1607 1.287 . S
C1607 C1606 1.287 . S
C1607 C1608 1.524 . S
C1607 H1610 0.999 . S
C1608 H1578 0.950 . S
C1608 C1607 1.524 . S
C1608 C1609 1.415 . S
C1609 H1579 0.950 . S
C1609 C1604 1.363 . S
C1609 C1608 1.415 . S
H1610 C1607 0.999 . S
H1611 C1592 0.913 . S
H1612 C1630 0.951 . S
H1613 C1632 0.951 . S
H1614 C1634 0.950 . S
H1615 C1635 0.950 . S
H1616 C1637 0.950 . S
H1617 C1640 0.950 . S
H1618 C1641 0.950 . S
H1619 C1643 0.950 . S
H1620 C1644 0.950 . S
H1621 C1645 0.951 . S
H1622 C1647 0.951 . S
H1623 C1649 0.950 . S
H1624 C1650 0.950 . S
H1625 C1652 0.950 . S
H1626 C1655 0.950 . S
H1627 C1656 0.950 . S
H1628 C1658 0.950 . S
H1629 C1659 0.950 . S
C1630 H1612 0.951 . S
C1630 C1631 1.366 . S
C1630 C1632 1.388 . S
C1631 C1630 1.366 . S
C1631 C1635 1.385 . S
C1632 H1613 0.951 . S
C1632 C1630 1.388 . S
C1632 C1633 1.366 . S
C1633 C1632 1.366 . S
C1633 C1634 1.414 . S
C1633 C1636 1.499 . S
C1634 H1614 0.950 . S
C1634 C1633 1.414 . S
C1634 C1635 1.374 . S
C1635 H1615 0.950 . S
C1635 C1631 1.385 . S
C1635 C1634 1.374 . S
C1636 C1633 1.499 . S
C1636 C1637 1.373 . S
C1636 C1638 1.389 . S
C1637 H1616 0.950 . S
C1637 C1636 1.373 . S
C1637 C1653 1.377 . S
C1638 C1636 1.389 . S
C1638 C1639 1.524 . S
C1638 C1652 1.377 . S
C1639 C1638 1.524 . S
C1639 C1640 1.397 . S
C1639 C1644 1.363 . S
C1640 H1617 0.950 . S
C1640 C1639 1.397 . S
C1640 C1641 1.334 . S
C1641 H1618 0.950 . S
C1641 C1640 1.334 . S
C1641 C1642 1.287 . S
C1642 C1641 1.287 . S
C1642 C1643 1.524 . S
C1642 H1661 0.913 . S
C1643 H1619 0.950 . S
C1643 C1642 1.524 . S
C1643 C1644 1.415 . S
C1644 H1620 0.950 . S
C1644 C1639 1.363 . S
C1644 C1643 1.415 . S
C1645 H1621 0.951 . S
C1645 C1646 1.366 . S
C1645 C1647 1.388 . S
C1646 C1645 1.366 . S
C1646 C1650 1.385 . S
C1647 H1622 0.951 . S
C1647 C1645 1.388 . S
C1647 C1648 1.366 . S
C1648 C1647 1.366 . S
C1648 C1649 1.414 . S
C1648 C1651 1.499 . S
C1649 H1623 0.950 . S
C1649 C1648 1.414 . S
C1649 C1650 1.374 . S
C1650 H1624 0.950 . S
C1650 C1646 1.385 . S
C1650 C1649 1.374 . S
C1651 C1648 1.499 . S
C1651 C1652 1.373 . S
C1651 C1653 1.389 . S
C1652 H1625 0.950 . S
C1652 C1638 1.377 . S
C1652 C1651 1.373 . S
C1653 C1637 1.377 . S
C1653 C1651 1.389 . S
C1653 C1654 1.524 . S
C1654 C1653 1.524 . S
C1654 C1655 1.397 . S
C1654 C1659 1.363 . S
C1655 H1626 0.950 . S
C1655 C1654 1.397 . S
C1655 C1656 1.334 . S
C1656 H1627 0.950 . S
C1656 C1655 1.334 . S
C1656 C1657 1.287 . S
C1657 C1656 1.287 . S
C1657 C1658 1.524 . S
C1657 H1660 0.999 . S
C1658 H1628 0.950 . S
C1658 C1657 1.524 . S
C1658 C1659 1.415 . S
C1659 H1629 0.950 . S
C1659 C1654 1.363 . S
C1659 C1658 1.415 . S
H1660 C1657 0.999 . S
H1661 C1642 0.913 . S
H1662 C1680 0.951 . S
H1663 C1682 0.951 . S
H1664 C1684 0.950 . S
H1665 C1685 0.950 . S
H1666 C1687 0.950 . S
H1667 C1690 0.950 . S
H1668 C1691 0.950 . S
H1669 C1693 0.950 . S
H1670 C1694 0.950 . S
H1671 C1695 0.954 . S
H1672 C1697 0.951 . S
H1673 C1699 0.950 . S
H1674 C1700 0.950 . S
H1675 C1702 0.950 1_565 S
H1676 C1705 0.950 1_554 S
H1677 C1706 0.950 . S
H1678 C1708 0.950 . S
H1679 C1709 0.950 . S
C1680 H1662 0.951 . S
C1680 C1681 1.366 . S
C1680 C1682 1.388 . S
C1681 C1680 1.366 . S
C1681 C1685 1.385 . S
C1682 H1663 0.951 . S
C1682 C1680 1.388 . S
C1682 C1683 1.366 . S
C1683 C1682 1.366 . S
C1683 C1684 1.414 . S
C1683 C1686 1.499 . S
C1684 H1664 0.950 . S
C1684 C1683 1.414 . S
C1684 C1685 1.374 . S
C1685 H1665 0.950 . S
C1685 C1681 1.385 . S
C1685 C1684 1.374 . S
C1686 C1683 1.499 . S
C1686 C1687 1.373 . S
C1686 C1688 1.389 . S
C1687 H1666 0.950 . S
C1687 C1686 1.373 . S
C1687 C1703 1.377 . S
C1688 C1686 1.389 . S
C1688 C1689 1.524 . S
C1688 C1702 1.377 . S
C1689 C1688 1.524 . S
C1689 C1690 1.397 . S
C1689 C1694 1.363 1_545 S
C1690 H1667 0.950 . S
C1690 C1689 1.397 . S
C1690 C1691 1.334 . S
C1691 H1668 0.950 . S
C1691 C1690 1.334 . S
C1691 C1692 1.226 1_545 S
C1692 C1691 1.226 1_565 S
C1692 C1693 1.572 . S
C1692 H1711 0.931 . S
C1693 H1669 0.950 . S
C1693 C1692 1.572 . S
C1693 C1694 1.415 . S
C1694 H1670 0.950 . S
C1694 C1689 1.363 1_565 S
C1694 C1693 1.415 . S
C1695 H1671 0.954 . S
C1695 C1696 1.359 1_545 S
C1695 C1697 1.391 . S
C1696 C1695 1.359 1_565 S
C1696 C1700 1.385 . S
C1697 H1672 0.951 . S
C1697 C1695 1.391 . S
C1697 C1698 1.375 1_556 S
C1698 C1697 1.375 1_554 S
C1698 C1699 1.394 1_545 S
C1698 C1701 1.508 . S
C1699 H1673 0.950 . S
C1699 C1698 1.394 1_565 S
C1699 C1700 1.374 1_554 S
C1700 H1674 0.950 . S
C1700 C1696 1.385 . S
C1700 C1699 1.374 1_556 S
C1701 C1698 1.508 . S
C1701 C1702 1.373 . S
C1701 C1703 1.389 . S
C1702 H1675 0.950 1_545 S
C1702 C1688 1.377 . S
C1702 C1701 1.373 . S
C1703 C1687 1.377 . S
C1703 C1701 1.389 . S
C1703 C1704 1.524 . S
C1704 C1703 1.524 . S
C1704 C1705 1.397 1_554 S
C1704 C1709 1.363 . S
C1705 H1676 0.950 1_556 S
C1705 C1704 1.397 1_556 S
C1705 C1706 1.334 . S
C1706 H1677 0.950 . S
C1706 C1705 1.334 . S
C1706 C1707 1.287 . S
C1707 C1706 1.287 . S
C1707 C1708 1.524 . S
C1707 H1710 0.999 . S
C1708 H1678 0.950 . S
C1708 C1707 1.524 . S
C1708 C1709 1.415 1_556 S
C1709 H1679 0.950 . S
C1709 C1704 1.363 . S
C1709 C1708 1.415 1_554 S
H1710 C1707 0.999 . S
H1711 C1692 0.931 . S
H1712 C1730 0.951 . S
H1713 C1732 0.951 . S
H1714 C1734 0.950 . S
H1715 C1735 0.950 . S
H1716 C1737 0.950 . S
H1717 C1740 0.950 . S
H1718 C1741 0.950 . S
H1719 C1743 0.950 . S
H1720 C1744 0.950 . S
H1721 C1745 0.951 . S
H1722 C1747 0.951 . S
H1723 C1749 0.950 . S
H1724 C1750 0.950 . S
H1725 C1752 0.950 . S
H1726 C1755 0.950 . S
H1727 C1756 0.950 . S
H1728 C1758 0.950 . S
H1729 C1759 0.950 . S
C1730 H1712 0.951 . S
C1730 C1731 1.366 . S
C1730 C1732 1.388 . S
C1731 C1730 1.366 . S
C1731 C1735 1.385 . S
C1732 H1713 0.951 . S
C1732 C1730 1.388 . S
C1732 C1733 1.366 . S
C1733 C1732 1.366 . S
C1733 C1734 1.414 . S
C1733 C1736 1.499 . S
C1734 H1714 0.950 . S
C1734 C1733 1.414 . S
C1734 C1735 1.374 . S
C1735 H1715 0.950 . S
C1735 C1731 1.385 . S
C1735 C1734 1.374 . S
C1736 C1733 1.499 . S
C1736 C1737 1.373 . S
C1736 C1738 1.389 . S
C1737 H1716 0.950 . S
C1737 C1736 1.373 . S
C1737 C1753 1.377 . S
C1738 C1736 1.389 . S
C1738 C1739 1.524 . S
C1738 C1752 1.377 . S
C1739 C1738 1.524 . S
C1739 C1740 1.397 . S
C1739 C1744 1.363 . S
C1740 H1717 0.950 . S
C1740 C1739 1.397 . S
C1740 C1741 1.334 . S
C1741 H1718 0.950 . S
C1741 C1740 1.334 . S
C1741 C1742 1.287 . S
C1742 C1741 1.287 . S
C1742 C1743 1.524 . S
C1742 H1761 0.913 . S
C1743 H1719 0.950 . S
C1743 C1742 1.524 . S
C1743 C1744 1.415 . S
C1744 H1720 0.950 . S
C1744 C1739 1.363 . S
C1744 C1743 1.415 . S
C1745 H1721 0.951 . S
C1745 C1746 1.366 . S
C1745 C1747 1.388 . S
C1746 C1745 1.366 . S
C1746 C1750 1.385 . S
C1747 H1722 0.951 . S
C1747 C1745 1.388 . S
C1747 C1748 1.366 . S
C1748 C1747 1.366 . S
C1748 C1749 1.414 . S
C1748 C1751 1.499 . S
C1749 H1723 0.950 . S
C1749 C1748 1.414 . S
C1749 C1750 1.374 . S
C1750 H1724 0.950 . S
C1750 C1746 1.385 . S
C1750 C1749 1.374 . S
C1751 C1748 1.499 . S
C1751 C1752 1.373 . S
C1751 C1753 1.389 . S
C1752 H1725 0.950 . S
C1752 C1738 1.377 . S
C1752 C1751 1.373 . S
C1753 C1737 1.377 . S
C1753 C1751 1.389 . S
C1753 C1754 1.524 . S
C1754 C1753 1.524 . S
C1754 C1755 1.397 . S
C1754 C1759 1.363 . S
C1755 H1726 0.950 . S
C1755 C1754 1.397 . S
C1755 C1756 1.334 . S
C1756 H1727 0.950 . S
C1756 C1755 1.334 . S
C1756 C1757 1.287 . S
C1757 C1756 1.287 . S
C1757 C1758 1.524 . S
C1757 H1760 0.999 . S
C1758 H1728 0.950 . S
C1758 C1757 1.524 . S
C1758 C1759 1.415 . S
C1759 H1729 0.950 . S
C1759 C1754 1.363 . S
C1759 C1758 1.415 . S
H1760 C1757 0.999 . S
H1761 C1742 0.913 . S
H1762 C1780 0.951 . S
H1763 C1782 0.951 . S
H1764 C1784 0.950 . S
H1765 C1785 0.950 . S
H1766 C1787 0.950 . S
H1767 C1790 0.950 . S
H1768 C1791 0.950 . S
H1769 C1793 0.950 . S
H1770 C1794 0.950 . S
H1771 C1795 0.951 . S
H1772 C1797 0.951 . S
H1773 C1799 0.950 . S
H1774 C1800 0.950 . S
H1775 C1802 0.950 . S
H1776 C1805 0.950 . S
H1777 C1806 0.950 . S
H1778 C1808 0.950 . S
H1779 C1809 0.950 . S
C1780 H1762 0.951 . S
C1780 C1781 1.366 . S
C1780 C1782 1.388 1_554 S
C1781 C1780 1.366 . S
C1781 C1785 1.385 . S
C1782 H1763 0.951 . S
C1782 C1780 1.388 1_556 S
C1782 C1783 1.366 . S
C1783 C1782 1.366 . S
C1783 C1784 1.414 . S
C1783 C1786 1.499 . S
C1784 H1764 0.950 . S
C1784 C1783 1.414 . S
C1784 C1785 1.374 1_556 S
C1785 H1765 0.950 . S
C1785 C1781 1.385 . S
C1785 C1784 1.374 1_554 S
C1786 C1783 1.499 . S
C1786 C1787 1.373 . S
C1786 C1788 1.389 . S
C1787 H1766 0.950 . S
C1787 C1786 1.373 . S
C1787 C1803 1.377 . S
C1788 C1786 1.389 . S
C1788 C1789 1.524 . S
C1788 C1802 1.377 . S
C1789 C1788 1.524 . S
C1789 C1790 1.397 1_556 S
C1789 C1794 1.363 . S
C1790 H1767 0.950 . S
C1790 C1789 1.397 1_554 S
C1790 C1791 1.334 . S
C1791 H1768 0.950 . S
C1791 C1790 1.334 . S
C1791 C1792 1.287 . S
C1792 C1791 1.287 . S
C1792 C1793 1.524 . S
C1792 H1811 0.913 . S
C1793 H1769 0.950 . S
C1793 C1792 1.524 . S
C1793 C1794 1.415 1_554 S
C1794 H1770 0.950 . S
C1794 C1789 1.363 . S
C1794 C1793 1.415 1_556 S
C1795 H1771 0.951 . S
C1795 C1796 1.366 . S
C1795 C1797 1.388 . S
C1796 C1795 1.366 . S
C1796 C1800 1.385 . S
C1797 H1772 0.951 . S
C1797 C1795 1.388 . S
C1797 C1798 1.366 . S
C1798 C1797 1.366 . S
C1798 C1799 1.414 . S
C1798 C1801 1.499 . S
C1799 H1773 0.950 . S
C1799 C1798 1.414 . S
C1799 C1800 1.374 . S
C1800 H1774 0.950 . S
C1800 C1796 1.385 . S
C1800 C1799 1.374 . S
C1801 C1798 1.499 . S
C1801 C1802 1.373 . S
C1801 C1803 1.389 . S
C1802 H1775 0.950 . S
C1802 C1788 1.377 . S
C1802 C1801 1.373 . S
C1803 C1787 1.377 . S
C1803 C1801 1.389 . S
C1803 C1804 1.524 . S
C1804 C1803 1.524 . S
C1804 C1805 1.397 . S
C1804 C1809 1.363 . S
C1805 H1776 0.950 . S
C1805 C1804 1.397 . S
C1805 C1806 1.334 . S
C1806 H1777 0.950 . S
C1806 C1805 1.334 . S
C1806 C1807 1.287 . S
C1807 C1806 1.287 . S
C1807 C1808 1.524 . S
C1807 H1810 0.999 . S
C1808 H1778 0.950 . S
C1808 C1807 1.524 . S
C1808 C1809 1.415 . S
C1809 H1779 0.950 . S
C1809 C1804 1.363 . S
C1809 C1808 1.415 . S
H1810 C1807 0.999 . S
H1811 C1792 0.913 . S
H1812 C1830 0.951 . S
H1813 C1832 0.951 . S
H1814 C1834 0.950 . S
H1815 C1835 0.950 . S
H1816 C1837 0.950 . S
H1817 C1840 0.950 . S
H1818 C1841 0.950 . S
H1819 C1843 0.950 . S
H1820 C1844 0.950 . S
H1821 C1845 0.951 . S
H1822 C1847 0.951 . S
H1823 C1849 0.950 . S
H1824 C1850 0.950 . S
H1825 C1852 0.950 . S
H1826 C1855 0.950 . S
H1827 C1856 0.950 . S
H1828 C1858 0.950 . S
H1829 C1859 0.950 . S
C1830 H1812 0.951 . S
C1830 C1831 1.366 . S
C1830 C1832 1.388 . S
C1831 C1830 1.366 . S
C1831 C1835 1.385 . S
C1832 H1813 0.951 . S
C1832 C1830 1.388 . S
C1832 C1833 1.366 . S
C1833 C1832 1.366 . S
C1833 C1834 1.414 . S
C1833 C1836 1.499 . S
C1834 H1814 0.950 . S
C1834 C1833 1.414 . S
C1834 C1835 1.374 . S
C1835 H1815 0.950 . S
C1835 C1831 1.385 . S
C1835 C1834 1.374 . S
C1836 C1833 1.499 . S
C1836 C1837 1.373 . S
C1836 C1838 1.389 . S
C1837 H1816 0.950 . S
C1837 C1836 1.373 . S
C1837 C1853 1.377 . S
C1838 C1836 1.389 . S
C1838 C1839 1.524 . S
C1838 C1852 1.377 . S
C1839 C1838 1.524 . S
C1839 C1840 1.397 . S
C1839 C1844 1.363 . S
C1840 H1817 0.950 . S
C1840 C1839 1.397 . S
C1840 C1841 1.334 . S
C1841 H1818 0.950 . S
C1841 C1840 1.334 . S
C1841 C1842 1.287 . S
C1842 C1841 1.287 . S
C1842 C1843 1.524 . S
C1842 H1861 0.913 . S
C1843 H1819 0.950 . S
C1843 C1842 1.524 . S
C1843 C1844 1.415 . S
C1844 H1820 0.950 . S
C1844 C1839 1.363 . S
C1844 C1843 1.415 . S
C1845 H1821 0.951 . S
C1845 C1846 1.366 . S
C1845 C1847 1.388 . S
C1846 C1845 1.366 . S
C1846 C1850 1.385 . S
C1847 H1822 0.951 . S
C1847 C1845 1.388 . S
C1847 C1848 1.366 . S
C1848 C1847 1.366 . S
C1848 C1849 1.414 . S
C1848 C1851 1.499 . S
C1849 H1823 0.950 . S
C1849 C1848 1.414 . S
C1849 C1850 1.374 . S
C1850 H1824 0.950 . S
C1850 C1846 1.385 . S
C1850 C1849 1.374 . S
C1851 C1848 1.499 . S
C1851 C1852 1.373 . S
C1851 C1853 1.389 . S
C1852 H1825 0.950 . S
C1852 C1838 1.377 . S
C1852 C1851 1.373 . S
C1853 C1837 1.377 . S
C1853 C1851 1.389 . S
C1853 C1854 1.524 . S
C1854 C1853 1.524 . S
C1854 C1855 1.397 . S
C1854 C1859 1.363 . S
C1855 H1826 0.950 . S
C1855 C1854 1.397 . S
C1855 C1856 1.334 . S
C1856 H1827 0.950 . S
C1856 C1855 1.334 . S
C1856 C1857 1.287 . S
C1857 C1856 1.287 . S
C1857 C1858 1.524 . S
C1857 H1860 0.999 . S
C1858 H1828 0.950 . S
C1858 C1857 1.524 . S
C1858 C1859 1.415 . S
C1859 H1829 0.950 . S
C1859 C1854 1.363 . S
C1859 C1858 1.415 . S
H1860 C1857 0.999 . S
H1861 C1842 0.913 . S
H1862 C1880 0.951 . S
H1863 C1882 0.951 . S
H1864 C1884 0.950 . S
H1865 C1885 0.950 . S
H1866 C1887 0.950 . S
H1867 C1890 0.950 . S
H1868 C1891 0.950 . S
H1869 C1893 0.950 . S
H1870 C1894 0.950 . S
H1871 C1895 0.951 . S
H1872 C1897 0.951 . S
H1873 C1899 0.950 . S
H1874 C1900 0.950 . S
H1875 C1902 0.950 . S
H1876 C1905 0.950 . S
H1877 C1906 0.950 . S
H1878 C1908 0.950 . S
H1879 C1909 0.950 . S
C1880 H1862 0.951 . S
C1880 C1881 1.366 . S
C1880 C1882 1.388 . S
C1881 C1880 1.366 . S
C1881 C1885 1.385 . S
C1882 H1863 0.951 . S
C1882 C1880 1.388 . S
C1882 C1883 1.366 . S
C1883 C1882 1.366 . S
C1883 C1884 1.414 . S
C1883 C1886 1.499 . S
C1884 H1864 0.950 . S
C1884 C1883 1.414 . S
C1884 C1885 1.374 . S
C1885 H1865 0.950 . S
C1885 C1881 1.385 . S
C1885 C1884 1.374 . S
C1886 C1883 1.499 . S
C1886 C1887 1.373 . S
C1886 C1888 1.389 . S
C1887 H1866 0.950 . S
C1887 C1886 1.373 . S
C1887 C1903 1.377 . S
C1888 C1886 1.389 . S
C1888 C1889 1.524 . S
C1888 C1902 1.377 . S
C1889 C1888 1.524 . S
C1889 C1890 1.397 . S
C1889 C1894 1.363 . S
C1890 H1867 0.950 . S
C1890 C1889 1.397 . S
C1890 C1891 1.334 . S
C1891 H1868 0.950 . S
C1891 C1890 1.334 . S
C1891 C1892 1.287 . S
C1892 C1891 1.287 . S
C1892 C1893 1.524 . S
C1892 H1911 0.913 . S
C1893 H1869 0.950 . S
C1893 C1892 1.524 . S
C1893 C1894 1.415 . S
C1894 H1870 0.950 . S
C1894 C1889 1.363 . S
C1894 C1893 1.415 . S
C1895 H1871 0.951 . S
C1895 C1896 1.366 . S
C1895 C1897 1.388 . S
C1896 C1895 1.366 . S
C1896 C1900 1.385 . S
C1897 H1872 0.951 . S
C1897 C1895 1.388 . S
C1897 C1898 1.366 . S
C1898 C1897 1.366 . S
C1898 C1899 1.414 . S
C1898 C1901 1.499 . S
C1899 H1873 0.950 . S
C1899 C1898 1.414 . S
C1899 C1900 1.374 . S
C1900 H1874 0.950 . S
C1900 C1896 1.385 . S
C1900 C1899 1.374 . S
C1901 C1898 1.499 . S
C1901 C1902 1.373 . S
C1901 C1903 1.389 . S
C1902 H1875 0.950 . S
C1902 C1888 1.377 . S
C1902 C1901 1.373 . S
C1903 C1887 1.377 . S
C1903 C1901 1.389 . S
C1903 C1904 1.524 . S
C1904 C1903 1.524 . S
C1904 C1905 1.397 . S
C1904 C1909 1.363 . S
C1905 H1876 0.950 . S
C1905 C1904 1.397 . S
C1905 C1906 1.334 . S
C1906 H1877 0.950 . S
C1906 C1905 1.334 . S
C1906 C1907 1.287 . S
C1907 C1906 1.287 . S
C1907 C1908 1.524 . S
C1907 H1910 0.999 . S
C1908 H1878 0.950 . S
C1908 C1907 1.524 . S
C1908 C1909 1.415 . S
C1909 H1879 0.950 . S
C1909 C1904 1.363 . S
C1909 C1908 1.415 . S
H1910 C1907 0.999 . S
H1911 C1892 0.913 . S
H1912 C1930 0.951 . S
H1913 C1932 0.951 . S
H1914 C1934 0.950 . S
H1915 C1935 0.950 . S
H1916 C1937 0.950 . S
H1917 C1940 0.950 . S
H1918 C1941 0.950 . S
H1919 C1943 0.950 . S
H1920 C1944 0.950 . S
H1921 C1945 0.951 . S
H1922 C1947 0.951 . S
H1923 C1949 0.950 . S
H1924 C1950 0.950 . S
H1925 C1952 0.950 . S
H1926 C1955 0.950 . S
H1927 C1956 0.950 . S
H1928 C1958 0.950 . S
H1929 C1959 0.950 . S
C1930 H1912 0.951 . S
C1930 C1931 1.366 . S
C1930 C1932 1.388 . S
C1931 C1930 1.366 . S
C1931 C1935 1.385 . S
C1932 H1913 0.951 . S
C1932 C1930 1.388 . S
C1932 C1933 1.366 . S
C1933 C1932 1.366 . S
C1933 C1934 1.414 . S
C1933 C1936 1.499 . S
C1934 H1914 0.950 . S
C1934 C1933 1.414 . S
C1934 C1935 1.374 . S
C1935 H1915 0.950 . S
C1935 C1931 1.385 . S
C1935 C1934 1.374 . S
C1936 C1933 1.499 . S
C1936 C1937 1.373 . S
C1936 C1938 1.389 . S
C1937 H1916 0.950 . S
C1937 C1936 1.373 . S
C1937 C1953 1.377 . S
C1938 C1936 1.389 . S
C1938 C1939 1.524 . S
C1938 C1952 1.377 . S
C1939 C1938 1.524 . S
C1939 C1940 1.397 . S
C1939 C1944 1.363 . S
C1940 H1917 0.950 . S
C1940 C1939 1.397 . S
C1940 C1941 1.334 . S
C1941 H1918 0.950 . S
C1941 C1940 1.334 . S
C1941 C1942 1.287 . S
C1942 C1941 1.287 . S
C1942 C1943 1.524 . S
C1942 H1961 0.913 . S
C1943 H1919 0.950 . S
C1943 C1942 1.524 . S
C1943 C1944 1.415 . S
C1944 H1920 0.950 . S
C1944 C1939 1.363 . S
C1944 C1943 1.415 . S
C1945 H1921 0.951 . S
C1945 C1946 1.366 . S
C1945 C1947 1.388 . S
C1946 C1945 1.366 . S
C1946 C1950 1.385 . S
C1947 H1922 0.951 . S
C1947 C1945 1.388 . S
C1947 C1948 1.366 . S
C1948 C1947 1.366 . S
C1948 C1949 1.414 . S
C1948 C1951 1.499 . S
C1949 H1923 0.950 . S
C1949 C1948 1.414 . S
C1949 C1950 1.374 . S
C1950 H1924 0.950 . S
C1950 C1946 1.385 . S
C1950 C1949 1.374 . S
C1951 C1948 1.499 . S
C1951 C1952 1.373 . S
C1951 C1953 1.389 . S
C1952 H1925 0.950 . S
C1952 C1938 1.377 . S
C1952 C1951 1.373 . S
C1953 C1937 1.377 . S
C1953 C1951 1.389 . S
C1953 C1954 1.524 . S
C1954 C1953 1.524 . S
C1954 C1955 1.397 . S
C1954 C1959 1.363 . S
C1955 H1926 0.950 . S
C1955 C1954 1.397 . S
C1955 C1956 1.334 . S
C1956 H1927 0.950 . S
C1956 C1955 1.334 . S
C1956 C1957 1.287 . S
C1957 C1956 1.287 . S
C1957 C1958 1.524 . S
C1957 H1960 0.999 . S
C1958 H1928 0.950 . S
C1958 C1957 1.524 . S
C1958 C1959 1.415 . S
C1959 H1929 0.950 . S
C1959 C1954 1.363 . S
C1959 C1958 1.415 . S
H1960 C1957 0.999 . S
H1961 C1942 0.913 . S
H1962 C1980 0.951 . S
H1963 C1982 0.951 . S
H1964 C1984 0.950 . S
H1965 C1985 0.956 . S
H1966 C1987 0.950 1_655 S
H1967 C1990 0.950 . S
H1968 C1991 0.950 . S
H1969 C1993 0.950 . S
H1970 C1994 0.950 . S
H1971 C1995 0.951 . S
H1972 C1997 0.951 . S
H1973 C1999 0.950 . S
H1974 C2000 0.950 . S
H1975 C2002 0.950 . S
H1976 C2005 0.950 1_455 S
H1977 C2006 0.950 . S
H1978 C2008 0.950 . S
H1979 C2009 0.950 . S
C1980 H1962 0.951 . S
C1980 C1981 1.366 . S
C1980 C1982 1.388 1_655 S
C1981 C1980 1.366 . S
C1981 C1985 1.385 . S
C1982 H1963 0.951 . S
C1982 C1980 1.388 1_455 S
C1982 C1983 1.366 1_565 S
C1983 C1982 1.366 1_545 S
C1983 C1984 1.414 1_455 S
C1983 C1986 1.499 . S
C1984 H1964 0.950 . S
C1984 C1983 1.414 1_655 S
C1984 C1985 1.374 1_545 S
C1985 H1965 0.956 . S
C1985 C1981 1.385 . S
C1985 C1984 1.374 1_565 S
C1986 C1983 1.499 . S
C1986 C1987 1.373 . S
C1986 C1988 1.389 . S
C1987 H1966 0.950 1_455 S
C1987 C1986 1.373 . S
C1987 C2003 1.377 . S
C1988 C1986 1.389 . S
C1988 C1989 1.524 . S
C1988 C2002 1.377 . S
C1989 C1988 1.524 . S
C1989 C1990 1.397 . S
C1989 C1994 1.363 . S
C1990 H1967 0.950 . S
C1990 C1989 1.397 . S
C1990 C1991 1.334 1_545 S
C1991 H1968 0.950 . S
C1991 C1990 1.334 1_565 S
C1991 C1992 1.287 . S
C1992 C1991 1.287 . S
C1992 C1993 1.524 . S
C1992 H2011 0.913 . S
C1993 H1969 0.950 . S
C1993 C1992 1.524 . S
C1993 C1994 1.415 1_565 S
C1994 H1970 0.950 . S
C1994 C1989 1.363 . S
C1994 C1993 1.415 1_545 S
C1995 H1971 0.951 . S
C1995 C1996 1.366 . S
C1995 C1997 1.388 . S
C1996 C1995 1.366 . S
C1996 C2000 1.385 . S
C1997 H1972 0.951 . S
C1997 C1995 1.388 . S
C1997 C1998 1.366 . S
C1998 C1997 1.366 . S
C1998 C1999 1.414 . S
C1998 C2001 1.499 . S
C1999 H1973 0.950 . S
C1999 C1998 1.414 . S
C1999 C2000 1.374 . S
C2000 H1974 0.950 . S
C2000 C1996 1.385 . S
C2000 C1999 1.374 . S
C2001 C1998 1.499 . S
C2001 C2002 1.373 . S
C2001 C2003 1.389 . S
C2002 H1975 0.950 . S
C2002 C1988 1.377 . S
C2002 C2001 1.373 . S
C2003 C1987 1.377 . S
C2003 C2001 1.389 . S
C2003 C2004 1.524 1_455 S
C2004 C2003 1.524 1_655 S
C2004 C2005 1.397 . S
C2004 C2009 1.363 . S
C2005 H1976 0.950 1_655 S
C2005 C2004 1.397 . S
C2005 C2006 1.334 . S
C2006 H1977 0.950 . S
C2006 C2005 1.334 . S
C2006 C2007 1.287 . S
C2007 C2006 1.287 . S
C2007 C2008 1.524 . S
C2007 H2010 0.999 . S
C2008 H1978 0.950 . S
C2008 C2007 1.524 . S
C2008 C2009 1.415 . S
C2009 H1979 0.950 . S
C2009 C2004 1.363 . S
C2009 C2008 1.415 . S
H2010 C2007 0.999 . S
H2011 C1992 0.913 . S
H2012 C2030 0.951 . S
H2013 C2032 0.951 . S
H2014 C2034 0.950 . S
H2015 C2035 0.950 . S
H2016 C2037 0.950 . S
H2017 C2040 0.950 . S
H2018 C2041 0.950 . S
H2019 C2043 0.950 . S
H2020 C2044 0.950 . S
H2021 C2045 0.951 . S
H2022 C2047 0.951 . S
H2023 C2049 0.950 . S
H2024 C2050 0.950 . S
H2025 C2052 0.950 . S
H2026 C2055 0.950 . S
H2027 C2056 0.950 . S
H2028 C2058 0.950 . S
H2029 C2059 0.950 . S
C2030 H2012 0.951 . S
C2030 C2031 1.366 . S
C2030 C2032 1.388 . S
C2031 C2030 1.366 . S
C2031 C2035 1.385 . S
C2032 H2013 0.951 . S
C2032 C2030 1.388 . S
C2032 C2033 1.366 . S
C2033 C2032 1.366 . S
C2033 C2034 1.414 . S
C2033 C2036 1.499 . S
C2034 H2014 0.950 . S
C2034 C2033 1.414 . S
C2034 C2035 1.374 . S
C2035 H2015 0.950 . S
C2035 C2031 1.385 . S
C2035 C2034 1.374 . S
C2036 C2033 1.499 . S
C2036 C2037 1.373 . S
C2036 C2038 1.389 . S
C2037 H2016 0.950 . S
C2037 C2036 1.373 . S
C2037 C2053 1.377 . S
C2038 C2036 1.389 . S
C2038 C2039 1.524 . S
C2038 C2052 1.377 . S
C2039 C2038 1.524 . S
C2039 C2040 1.397 . S
C2039 C2044 1.363 . S
C2040 H2017 0.950 . S
C2040 C2039 1.397 . S
C2040 C2041 1.334 . S
C2041 H2018 0.950 . S
C2041 C2040 1.334 . S
C2041 C2042 1.287 . S
C2042 C2041 1.287 . S
C2042 C2043 1.524 . S
C2042 H2061 0.913 . S
C2043 H2019 0.950 . S
C2043 C2042 1.524 . S
C2043 C2044 1.415 . S
C2044 H2020 0.950 . S
C2044 C2039 1.363 . S
C2044 C2043 1.415 . S
C2045 H2021 0.951 . S
C2045 C2046 1.366 . S
C2045 C2047 1.388 . S
C2046 C2045 1.366 . S
C2046 C2050 1.385 . S
C2047 H2022 0.951 . S
C2047 C2045 1.388 . S
C2047 C2048 1.366 . S
C2048 C2047 1.366 . S
C2048 C2049 1.414 . S
C2048 C2051 1.499 . S
C2049 H2023 0.950 . S
C2049 C2048 1.414 . S
C2049 C2050 1.374 . S
C2050 H2024 0.950 . S
C2050 C2046 1.385 . S
C2050 C2049 1.374 . S
C2051 C2048 1.499 . S
C2051 C2052 1.373 . S
C2051 C2053 1.389 . S
C2052 H2025 0.950 . S
C2052 C2038 1.377 . S
C2052 C2051 1.373 . S
C2053 C2037 1.377 . S
C2053 C2051 1.389 . S
C2053 C2054 1.524 . S
C2054 C2053 1.524 . S
C2054 C2055 1.397 . S
C2054 C2059 1.363 . S
C2055 H2026 0.950 . S
C2055 C2054 1.397 . S
C2055 C2056 1.334 . S
C2056 H2027 0.950 . S
C2056 C2055 1.334 . S
C2056 C2057 1.287 . S
C2057 C2056 1.287 . S
C2057 C2058 1.524 . S
C2057 H2060 0.999 . S
C2058 H2028 0.950 . S
C2058 C2057 1.524 . S
C2058 C2059 1.415 . S
C2059 H2029 0.950 . S
C2059 C2054 1.363 . S
C2059 C2058 1.415 . S
H2060 C2057 0.999 . S
H2061 C2042 0.913 . S
H2062 C2080 0.946 1_565 S
H2063 C2082 0.951 . S
H2064 C2084 0.950 . S
H2065 C2085 0.950 . S
H2066 C2087 0.950 . S
H2067 C2090 0.950 . S
H2068 C2091 0.950 . S
H2069 C2093 0.950 . S
H2070 C2094 0.950 . S
H2071 C2095 0.951 . S
H2072 C2097 0.951 . S
H2073 C2099 0.950 . S
H2074 C2100 0.950 . S
H2075 C2102 0.950 . S
H2076 C2105 0.950 . S
H2077 C2106 0.950 . S
H2078 C2108 0.950 . S
H2079 C2109 0.950 . S
C2080 H2062 0.946 1_545 S
C2080 C2081 1.366 . S
C2080 C2082 1.388 1_545 S
C2081 C2080 1.366 . S
C2081 C2085 1.385 . S
C2082 H2063 0.951 . S
C2082 C2080 1.388 1_565 S
C2082 C2083 1.366 . S
C2083 C2082 1.366 . S
C2083 C2084 1.414 1_565 S
C2083 C2086 1.499 . S
C2084 H2064 0.950 . S
C2084 C2083 1.414 1_545 S
C2084 C2085 1.374 . S
C2085 H2065 0.950 . S
C2085 C2081 1.385 . S
C2085 C2084 1.374 . S
C2086 C2083 1.499 . S
C2086 C2087 1.373 . S
C2086 C2088 1.389 . S
C2087 H2066 0.950 . S
C2087 C2086 1.373 . S
C2087 C2103 1.377 . S
C2088 C2086 1.389 . S
C2088 C2089 1.524 . S
C2088 C2102 1.377 . S
C2089 C2088 1.524 . S
C2089 C2090 1.397 . S
C2089 C2094 1.363 . S
C2090 H2067 0.950 . S
C2090 C2089 1.397 . S
C2090 C2091 1.334 . S
C2091 H2068 0.950 . S
C2091 C2090 1.334 . S
C2091 C2092 1.287 . S
C2092 C2091 1.287 . S
C2092 C2093 1.524 . S
C2092 H2111 0.913 . S
C2093 H2069 0.950 . S
C2093 C2092 1.524 . S
C2093 C2094 1.415 . S
C2094 H2070 0.950 . S
C2094 C2089 1.363 . S
C2094 C2093 1.415 . S
C2095 H2071 0.951 . S
C2095 C2096 1.366 . S
C2095 C2097 1.388 . S
C2096 C2095 1.366 . S
C2096 C2100 1.385 . S
C2097 H2072 0.951 . S
C2097 C2095 1.388 . S
C2097 C2098 1.366 . S
C2098 C2097 1.366 . S
C2098 C2099 1.414 . S
C2098 C2101 1.499 . S
C2099 H2073 0.950 . S
C2099 C2098 1.414 . S
C2099 C2100 1.374 . S
C2100 H2074 0.950 . S
C2100 C2096 1.385 . S
C2100 C2099 1.374 . S
C2101 C2098 1.499 . S
C2101 C2102 1.373 . S
C2101 C2103 1.389 . S
C2102 H2075 0.950 . S
C2102 C2088 1.377 . S
C2102 C2101 1.373 . S
C2103 C2087 1.377 . S
C2103 C2101 1.389 . S
C2103 C2104 1.524 . S
C2104 C2103 1.524 . S
C2104 C2105 1.397 . S
C2104 C2109 1.363 . S
C2105 H2076 0.950 . S
C2105 C2104 1.397 . S
C2105 C2106 1.334 . S
C2106 H2077 0.950 . S
C2106 C2105 1.334 . S
C2106 C2107 1.287 . S
C2107 C2106 1.287 . S
C2107 C2108 1.524 . S
C2107 H2110 0.999 . S
C2108 H2078 0.950 . S
C2108 C2107 1.524 . S
C2108 C2109 1.415 . S
C2109 H2079 0.950 . S
C2109 C2104 1.363 . S
C2109 C2108 1.415 . S
H2110 C2107 0.999 . S
H2111 C2092 0.913 . S
H2112 C2130 0.951 . S
H2113 C2132 0.951 . S
H2114 C2134 0.950 . S
H2115 C2135 0.950 . S
H2116 C2137 0.950 . S
H2117 C2140 0.950 . S
H2118 C2141 0.950 . S
H2119 C2143 0.950 . S
H2120 C2144 0.950 . S
H2121 C2145 0.951 . S
H2122 C2147 0.951 . S
H2123 C2149 0.950 . S
H2124 C2150 0.950 . S
H2125 C2152 0.950 . S
H2126 C2155 0.950 . S
H2127 C2156 0.950 . S
H2128 C2158 0.950 . S
H2129 C2159 0.950 . S
C2130 H2112 0.951 . S
C2130 C2131 1.366 . S
C2130 C2132 1.388 . S
C2131 C2130 1.366 . S
C2131 C2135 1.385 . S
C2132 H2113 0.951 . S
C2132 C2130 1.388 . S
C2132 C2133 1.366 . S
C2133 C2132 1.366 . S
C2133 C2134 1.414 . S
C2133 C2136 1.499 . S
C2134 H2114 0.950 . S
C2134 C2133 1.414 . S
C2134 C2135 1.374 . S
C2135 H2115 0.950 . S
C2135 C2131 1.385 . S
C2135 C2134 1.374 . S
C2136 C2133 1.499 . S
C2136 C2137 1.373 . S
C2136 C2138 1.389 . S
C2137 H2116 0.950 . S
C2137 C2136 1.373 . S
C2137 C2153 1.377 . S
C2138 C2136 1.389 . S
C2138 C2139 1.524 . S
C2138 C2152 1.377 . S
C2139 C2138 1.524 . S
C2139 C2140 1.397 . S
C2139 C2144 1.363 . S
C2140 H2117 0.950 . S
C2140 C2139 1.397 . S
C2140 C2141 1.334 . S
C2141 H2118 0.950 . S
C2141 C2140 1.334 . S
C2141 C2142 1.287 . S
C2142 C2141 1.287 . S
C2142 C2143 1.524 . S
C2142 H2161 0.913 . S
C2143 H2119 0.950 . S
C2143 C2142 1.524 . S
C2143 C2144 1.415 . S
C2144 H2120 0.950 . S
C2144 C2139 1.363 . S
C2144 C2143 1.415 . S
C2145 H2121 0.951 . S
C2145 C2146 1.366 . S
C2145 C2147 1.388 . S
C2146 C2145 1.366 . S
C2146 C2150 1.385 . S
C2147 H2122 0.951 . S
C2147 C2145 1.388 . S
C2147 C2148 1.366 . S
C2148 C2147 1.366 . S
C2148 C2149 1.414 . S
C2148 C2151 1.499 . S
C2149 H2123 0.950 . S
C2149 C2148 1.414 . S
C2149 C2150 1.374 . S
C2150 H2124 0.950 . S
C2150 C2146 1.385 . S
C2150 C2149 1.374 . S
C2151 C2148 1.499 . S
C2151 C2152 1.373 . S
C2151 C2153 1.389 . S
C2152 H2125 0.950 . S
C2152 C2138 1.377 . S
C2152 C2151 1.373 . S
C2153 C2137 1.377 . S
C2153 C2151 1.389 . S
C2153 C2154 1.524 . S
C2154 C2153 1.524 . S
C2154 C2155 1.397 . S
C2154 C2159 1.363 . S
C2155 H2126 0.950 . S
C2155 C2154 1.397 . S
C2155 C2156 1.334 . S
C2156 H2127 0.950 . S
C2156 C2155 1.334 . S
C2156 C2157 1.287 . S
C2157 C2156 1.287 . S
C2157 C2158 1.524 . S
C2157 H2160 0.999 . S
C2158 H2128 0.950 . S
C2158 C2157 1.524 . S
C2158 C2159 1.415 . S
C2159 H2129 0.950 . S
C2159 C2154 1.363 . S
C2159 C2158 1.415 . S
H2160 C2157 0.999 . S
H2161 C2142 0.913 . S
H2162 C2180 0.951 . S
H2163 C2182 0.979 . S
H2164 C2184 0.950 . S
H2165 C2185 0.950 . S
H2166 C2187 0.950 1_455 S
H2167 C2190 0.950 . S
H2168 C2191 0.950 . S
H2169 C2193 0.950 . S
H2170 C2194 0.950 . S
H2171 C2195 0.951 . S
H2172 C2197 0.951 . S
H2173 C2199 0.950 . S
H2174 C2200 0.950 . S
H2175 C2202 0.950 . S
H2176 C2205 0.950 1_655 S
H2177 C2206 0.950 . S
H2178 C2208 0.950 . S
H2179 C2209 0.950 . S
C2180 H2162 0.951 . S
C2180 C2181 1.366 . S
C2180 C2182 1.361 1_455 S
C2181 C2180 1.366 . S
C2181 C2185 1.385 . S
C2182 H2163 0.979 . S
C2182 C2180 1.361 1_655 S
C2182 C2183 1.367 . S
C2183 C2182 1.367 . S
C2183 C2184 1.414 1_655 S
C2183 C2186 1.499 . S
C2184 H2164 0.950 . S
C2184 C2183 1.414 1_455 S
C2184 C2185 1.374 . S
C2185 H2165 0.950 . S
C2185 C2181 1.385 . S
C2185 C2184 1.374 . S
C2186 C2183 1.499 . S
C2186 C2187 1.373 . S
C2186 C2188 1.389 . S
C2187 H2166 0.950 1_655 S
C2187 C2186 1.373 . S
C2187 C2203 1.377 . S
C2188 C2186 1.389 . S
C2188 C2189 1.524 . S
C2188 C2202 1.377 . S
C2189 C2188 1.524 . S
C2189 C2190 1.397 . S
C2189 C2194 1.363 . S
C2190 H2167 0.950 . S
C2190 C2189 1.397 . S
C2190 C2191 1.334 . S
C2191 H2168 0.950 . S
C2191 C2190 1.334 . S
C2191 C2192 1.287 . S
C2192 C2191 1.287 . S
C2192 C2193 1.524 . S
C2192 H2211 0.913 . S
C2193 H2169 0.950 . S
C2193 C2192 1.524 . S
C2193 C2194 1.415 . S
C2194 H2170 0.950 . S
C2194 C2189 1.363 . S
C2194 C2193 1.415 . S
C2195 H2171 0.951 . S
C2195 C2196 1.366 . S
C2195 C2197 1.388 . S
C2196 C2195 1.366 . S
C2196 C2200 1.385 . S
C2197 H2172 0.951 . S
C2197 C2195 1.388 . S
C2197 C2198 1.366 . S
C2198 C2197 1.366 . S
C2198 C2199 1.414 . S
C2198 C2201 1.499 . S
C2199 H2173 0.950 . S
C2199 C2198 1.414 . S
C2199 C2200 1.374 . S
C2200 H2174 0.950 . S
C2200 C2196 1.385 . S
C2200 C2199 1.374 . S
C2201 C2198 1.499 . S
C2201 C2202 1.373 . S
C2201 C2203 1.389 . S
C2202 H2175 0.950 . S
C2202 C2188 1.377 . S
C2202 C2201 1.373 . S
C2203 C2187 1.377 . S
C2203 C2201 1.389 . S
C2203 C2204 1.524 1_655 S
C2204 C2203 1.524 1_455 S
C2204 C2205 1.397 . S
C2204 C2209 1.363 . S
C2205 H2176 0.950 1_455 S
C2205 C2204 1.397 . S
C2205 C2206 1.334 . S
C2206 H2177 0.950 . S
C2206 C2205 1.334 . S
C2206 C2207 1.287 . S
C2207 C2206 1.287 . S
C2207 C2208 1.524 . S
C2207 H2210 0.999 . S
C2208 H2178 0.950 . S
C2208 C2207 1.524 . S
C2208 C2209 1.415 . S
C2209 H2179 0.950 . S
C2209 C2204 1.363 . S
C2209 C2208 1.415 . S
H2210 C2207 0.999 . S
H2211 C2192 0.913 . S
H2212 C2230 0.951 . S
H2213 C2232 0.951 . S
H2214 C2234 0.950 . S
H2215 C2235 0.950 . S
H2216 C2237 0.950 . S
H2217 C2240 0.950 . S
H2218 C2241 0.950 . S
H2219 C2243 0.950 . S
H2220 C2244 0.950 . S
H2221 C2245 0.951 . S
H2222 C2247 0.951 . S
H2223 C2249 0.950 . S
H2224 C2250 0.950 . S
H2225 C2252 0.950 . S
H2226 C2255 0.950 . S
H2227 C2256 0.950 . S
H2228 C2258 0.950 . S
H2229 C2259 0.950 . S
C2230 H2212 0.951 . S
C2230 C2231 1.366 . S
C2230 C2232 1.388 . S
C2231 C2230 1.366 . S
C2231 C2235 1.385 . S
C2232 H2213 0.951 . S
C2232 C2230 1.388 . S
C2232 C2233 1.366 . S
C2233 C2232 1.366 . S
C2233 C2234 1.414 . S
C2233 C2236 1.499 . S
C2234 H2214 0.950 . S
C2234 C2233 1.414 . S
C2234 C2235 1.374 . S
C2235 H2215 0.950 . S
C2235 C2231 1.385 . S
C2235 C2234 1.374 . S
C2236 C2233 1.499 . S
C2236 C2237 1.373 . S
C2236 C2238 1.389 . S
C2237 H2216 0.950 . S
C2237 C2236 1.373 . S
C2237 C2253 1.377 . S
C2238 C2236 1.389 . S
C2238 C2239 1.524 . S
C2238 C2252 1.377 . S
C2239 C2238 1.524 . S
C2239 C2240 1.397 . S
C2239 C2244 1.363 . S
C2240 H2217 0.950 . S
C2240 C2239 1.397 . S
C2240 C2241 1.334 . S
C2241 H2218 0.950 . S
C2241 C2240 1.334 . S
C2241 C2242 1.287 . S
C2242 C2241 1.287 . S
C2242 C2243 1.524 . S
C2242 H2261 0.913 . S
C2243 H2219 0.950 . S
C2243 C2242 1.524 . S
C2243 C2244 1.415 . S
C2244 H2220 0.950 . S
C2244 C2239 1.363 . S
C2244 C2243 1.415 . S
C2245 H2221 0.951 . S
C2245 C2246 1.366 . S
C2245 C2247 1.388 . S
C2246 C2245 1.366 . S
C2246 C2250 1.385 . S
C2247 H2222 0.951 . S
C2247 C2245 1.388 . S
C2247 C2248 1.366 . S
C2248 C2247 1.366 . S
C2248 C2249 1.414 . S
C2248 C2251 1.499 . S
C2249 H2223 0.950 . S
C2249 C2248 1.414 . S
C2249 C2250 1.374 . S
C2250 H2224 0.950 . S
C2250 C2246 1.385 . S
C2250 C2249 1.374 . S
C2251 C2248 1.499 . S
C2251 C2252 1.373 . S
C2251 C2253 1.389 . S
C2252 H2225 0.950 . S
C2252 C2238 1.377 . S
C2252 C2251 1.373 . S
C2253 C2237 1.377 . S
C2253 C2251 1.389 . S
C2253 C2254 1.524 . S
C2254 C2253 1.524 . S
C2254 C2255 1.397 . S
C2254 C2259 1.363 . S
C2255 H2226 0.950 . S
C2255 C2254 1.397 . S
C2255 C2256 1.334 . S
C2256 H2227 0.950 . S
C2256 C2255 1.334 . S
C2256 C2257 1.287 . S
C2257 C2256 1.287 . S
C2257 C2258 1.524 . S
C2257 H2260 0.999 . S
C2258 H2228 0.950 . S
C2258 C2257 1.524 . S
C2258 C2259 1.415 . S
C2259 H2229 0.950 . S
C2259 C2254 1.363 . S
C2259 C2258 1.415 . S
H2260 C2257 0.999 . S
H2261 C2242 0.913 . S
H2262 C2280 0.951 . S
H2263 C2282 0.951 . S
H2264 C2284 0.950 . S
H2265 C2285 0.950 . S
H2266 C2287 0.950 . S
H2267 C2290 0.950 . S
H2268 C2291 0.950 . S
H2269 C2293 0.950 . S
H2270 C2294 0.950 . S
H2271 C2295 0.951 . S
H2272 C2297 0.951 . S
H2273 C2299 0.950 . S
H2274 C2300 0.950 . S
H2275 C2302 0.950 . S
H2276 C2305 0.950 . S
H2277 C2306 0.950 . S
H2278 C2308 0.950 . S
H2279 C2309 0.950 . S
C2280 H2262 0.951 . S
C2280 C2281 1.366 . S
C2280 C2282 1.388 . S
C2281 C2280 1.366 . S
C2281 C2285 1.385 . S
C2282 H2263 0.951 . S
C2282 C2280 1.388 . S
C2282 C2283 1.366 . S
C2283 C2282 1.366 . S
C2283 C2284 1.414 . S
C2283 C2286 1.499 . S
C2284 H2264 0.950 . S
C2284 C2283 1.414 . S
C2284 C2285 1.374 . S
C2285 H2265 0.950 . S
C2285 C2281 1.385 . S
C2285 C2284 1.374 . S
C2286 C2283 1.499 . S
C2286 C2287 1.373 . S
C2286 C2288 1.389 . S
C2287 H2266 0.950 . S
C2287 C2286 1.373 . S
C2287 C2303 1.377 . S
C2288 C2286 1.389 . S
C2288 C2289 1.524 . S
C2288 C2302 1.377 . S
C2289 C2288 1.524 . S
C2289 C2290 1.397 . S
C2289 C2294 1.363 . S
C2290 H2267 0.950 . S
C2290 C2289 1.397 . S
C2290 C2291 1.334 . S
C2291 H2268 0.950 . S
C2291 C2290 1.334 . S
C2291 C2292 1.287 . S
C2292 C2291 1.287 . S
C2292 C2293 1.524 . S
C2292 H2311 0.913 . S
C2293 H2269 0.950 . S
C2293 C2292 1.524 . S
C2293 C2294 1.415 . S
C2294 H2270 0.950 . S
C2294 C2289 1.363 . S
C2294 C2293 1.415 . S
C2295 H2271 0.951 . S
C2295 C2296 1.366 . S
C2295 C2297 1.388 . S
C2296 C2295 1.366 . S
C2296 C2300 1.385 . S
C2297 H2272 0.951 . S
C2297 C2295 1.388 . S
C2297 C2298 1.366 . S
C2298 C2297 1.366 . S
C2298 C2299 1.414 . S
C2298 C2301 1.499 . S
C2299 H2273 0.950 . S
C2299 C2298 1.414 . S
C2299 C2300 1.374 . S
C2300 H2274 0.950 . S
C2300 C2296 1.385 . S
C2300 C2299 1.374 . S
C2301 C2298 1.499 . S
C2301 C2302 1.373 . S
C2301 C2303 1.389 . S
C2302 H2275 0.950 . S
C2302 C2288 1.377 . S
C2302 C2301 1.373 . S
C2303 C2287 1.377 . S
C2303 C2301 1.389 . S
C2303 C2304 1.524 . S
C2304 C2303 1.524 . S
C2304 C2305 1.397 . S
C2304 C2309 1.363 . S
C2305 H2276 0.950 . S
C2305 C2304 1.397 . S
C2305 C2306 1.334 . S
C2306 H2277 0.950 . S
C2306 C2305 1.334 . S
C2306 C2307 1.287 . S
C2307 C2306 1.287 . S
C2307 C2308 1.524 . S
C2307 H2310 0.999 . S
C2308 H2278 0.950 . S
C2308 C2307 1.524 . S
C2308 C2309 1.415 . S
C2309 H2279 0.950 . S
C2309 C2304 1.363 . S
C2309 C2308 1.415 . S
H2310 C2307 0.999 . S
H2311 C2292 0.913 . S
H2312 C2330 0.951 . S
H2313 C2332 0.951 . S
H2314 C2334 0.950 . S
H2315 C2335 0.950 . S
H2316 C2337 0.950 . S
H2317 C2340 0.950 . S
H2318 C2341 0.950 . S
H2319 C2343 0.950 . S
H2320 C2344 0.950 . S
H2321 C2345 0.951 . S
H2322 C2347 0.951 . S
H2323 C2349 0.950 . S
H2324 C2350 0.950 . S
H2325 C2352 0.950 . S
H2326 C2355 0.950 . S
H2327 C2356 0.950 . S
H2328 C2358 0.950 . S
H2329 C2359 0.950 . S
C2330 H2312 0.951 . S
C2330 C2331 1.366 . S
C2330 C2332 1.388 . S
C2331 C2330 1.366 . S
C2331 C2335 1.385 . S
C2332 H2313 0.951 . S
C2332 C2330 1.388 . S
C2332 C2333 1.366 . S
C2333 C2332 1.366 . S
C2333 C2334 1.414 . S
C2333 C2336 1.499 . S
C2334 H2314 0.950 . S
C2334 C2333 1.414 . S
C2334 C2335 1.374 . S
C2335 H2315 0.950 . S
C2335 C2331 1.385 . S
C2335 C2334 1.374 . S
C2336 C2333 1.499 . S
C2336 C2337 1.373 . S
C2336 C2338 1.389 . S
C2337 H2316 0.950 . S
C2337 C2336 1.373 . S
C2337 C2353 1.377 . S
C2338 C2336 1.389 . S
C2338 C2339 1.524 . S
C2338 C2352 1.377 . S
C2339 C2338 1.524 . S
C2339 C2340 1.397 . S
C2339 C2344 1.363 . S
C2340 H2317 0.950 . S
C2340 C2339 1.397 . S
C2340 C2341 1.334 . S
C2341 H2318 0.950 . S
C2341 C2340 1.334 . S
C2341 C2342 1.287 . S
C2342 C2341 1.287 . S
C2342 C2343 1.524 . S
C2342 H2361 0.913 . S
C2343 H2319 0.950 . S
C2343 C2342 1.524 . S
C2343 C2344 1.415 . S
C2344 H2320 0.950 . S
C2344 C2339 1.363 . S
C2344 C2343 1.415 . S
C2345 H2321 0.951 . S
C2345 C2346 1.366 . S
C2345 C2347 1.388 . S
C2346 C2345 1.366 . S
C2346 C2350 1.385 . S
C2347 H2322 0.951 . S
C2347 C2345 1.388 . S
C2347 C2348 1.366 . S
C2348 C2347 1.366 . S
C2348 C2349 1.414 . S
C2348 C2351 1.499 . S
C2349 H2323 0.950 . S
C2349 C2348 1.414 . S
C2349 C2350 1.374 . S
C2350 H2324 0.950 . S
C2350 C2346 1.385 . S
C2350 C2349 1.374 . S
C2351 C2348 1.499 . S
C2351 C2352 1.373 . S
C2351 C2353 1.389 . S
C2352 H2325 0.950 . S
C2352 C2338 1.377 . S
C2352 C2351 1.373 . S
C2353 C2337 1.377 . S
C2353 C2351 1.389 . S
C2353 C2354 1.524 . S
C2354 C2353 1.524 . S
C2354 C2355 1.397 . S
C2354 C2359 1.363 . S
C2355 H2326 0.950 . S
C2355 C2354 1.397 . S
C2355 C2356 1.334 . S
C2356 H2327 0.950 . S
C2356 C2355 1.334 . S
C2356 C2357 1.287 . S
C2357 C2356 1.287 . S
C2357 C2358 1.524 . S
C2357 H2360 0.999 . S
C2358 H2328 0.950 . S
C2358 C2357 1.524 . S
C2358 C2359 1.415 . S
C2359 H2329 0.950 . S
C2359 C2354 1.363 . S
C2359 C2358 1.415 . S
H2360 C2357 0.999 . S
H2361 C2342 0.913 . S
H2362 C2380 0.951 . S
H2363 C2382 0.951 . S
H2364 C2384 0.950 . S
H2365 C2385 0.950 . S
H2366 C2387 0.950 . S
H2367 C2390 0.950 . S
H2368 C2391 0.950 . S
H2369 C2393 0.950 . S
H2370 C2394 0.950 . S
H2371 C2395 0.951 . S
H2372 C2397 0.951 . S
H2373 C2399 0.950 . S
H2374 C2400 0.950 . S
H2375 C2402 0.950 . S
H2376 C2405 0.950 . S
H2377 C2406 0.950 . S
H2378 C2408 0.950 . S
H2379 C2409 0.950 . S
C2380 H2362 0.951 . S
C2380 C2381 1.366 . S
C2380 C2382 1.388 . S
C2381 C2380 1.366 . S
C2381 C2385 1.385 . S
C2382 H2363 0.951 . S
C2382 C2380 1.388 . S
C2382 C2383 1.366 . S
C2383 C2382 1.366 . S
C2383 C2384 1.414 . S
C2383 C2386 1.499 . S
C2384 H2364 0.950 . S
C2384 C2383 1.414 . S
C2384 C2385 1.374 . S
C2385 H2365 0.950 . S
C2385 C2381 1.385 . S
C2385 C2384 1.374 . S
C2386 C2383 1.499 . S
C2386 C2387 1.373 . S
C2386 C2388 1.389 . S
C2387 H2366 0.950 . S
C2387 C2386 1.373 . S
C2387 C2403 1.377 . S
C2388 C2386 1.389 . S
C2388 C2389 1.524 . S
C2388 C2402 1.377 . S
C2389 C2388 1.524 . S
C2389 C2390 1.397 . S
C2389 C2394 1.363 . S
C2390 H2367 0.950 . S
C2390 C2389 1.397 . S
C2390 C2391 1.334 . S
C2391 H2368 0.950 . S
C2391 C2390 1.334 . S
C2391 C2392 1.287 . S
C2392 C2391 1.287 . S
C2392 C2393 1.524 . S
C2392 H2411 0.913 . S
C2393 H2369 0.950 . S
C2393 C2392 1.524 . S
C2393 C2394 1.415 . S
C2394 H2370 0.950 . S
C2394 C2389 1.363 . S
C2394 C2393 1.415 . S
C2395 H2371 0.951 . S
C2395 C2396 1.366 . S
C2395 C2397 1.388 . S
C2396 C2395 1.366 . S
C2396 C2400 1.385 . S
C2397 H2372 0.951 . S
C2397 C2395 1.388 . S
C2397 C2398 1.366 . S
C2398 C2397 1.366 . S
C2398 C2399 1.414 . S
C2398 C2401 1.499 . S
C2399 H2373 0.950 . S
C2399 C2398 1.414 . S
C2399 C2400 1.374 . S
C2400 H2374 0.950 . S
C2400 C2396 1.385 . S
C2400 C2399 1.374 . S
C2401 C2398 1.499 . S
C2401 C2402 1.373 . S
C2401 C2403 1.389 . S
C2402 H2375 0.950 . S
C2402 C2388 1.377 . S
C2402 C2401 1.373 . S
C2403 C2387 1.377 . S
C2403 C2401 1.389 . S
C2403 C2404 1.524 . S
C2404 C2403 1.524 . S
C2404 C2405 1.397 . S
C2404 C2409 1.363 . S
C2405 H2376 0.950 . S
C2405 C2404 1.397 . S
C2405 C2406 1.334 . S
C2406 H2377 0.950 . S
C2406 C2405 1.334 . S
C2406 C2407 1.287 . S
C2407 C2406 1.287 . S
C2407 C2408 1.524 . S
C2407 H2410 0.999 . S
C2408 H2378 0.950 . S
C2408 C2407 1.524 . S
C2408 C2409 1.415 . S
C2409 H2379 0.950 . S
C2409 C2404 1.363 . S
C2409 C2408 1.415 . S
H2410 C2407 0.999 . S
H2411 C2392 0.913 . S
H2412 C2430 0.950 1_455 S
H2413 C2432 0.951 . S
H2414 C2434 0.950 . S
H2415 C2435 0.950 1_554 S
H2416 C2437 0.950 . S
H2417 C2440 0.950 . S
H2418 C2441 0.950 . S
H2419 C2443 0.950 . S
H2420 C2444 0.950 . S
H2421 C2445 0.951 . S
H2422 C2447 0.951 . S
H2423 C2449 0.950 . S
H2424 C2450 0.950 . S
H2425 C2452 0.950 . S
H2426 C2455 0.950 . S
H2427 C2456 0.950 . S
H2428 C2458 0.950 . S
H2429 C2459 0.950 . S
C2430 H2412 0.950 1_655 S
C2430 C2431 1.366 . S
C2430 C2432 1.388 1_655 S
C2431 C2430 1.366 . S
C2431 C2435 1.385 . S
C2432 H2413 0.951 . S
C2432 C2430 1.388 1_455 S
C2432 C2433 1.364 . S
C2433 C2432 1.364 . S
C2433 C2434 1.415 1_456 S
C2433 C2436 1.500 1_556 S
C2434 H2414 0.950 . S
C2434 C2433 1.415 1_654 S
C2434 C2435 1.374 1_554 S
C2435 H2415 0.950 1_556 S
C2435 C2431 1.385 . S
C2435 C2434 1.374 1_556 S
C2436 C2433 1.500 1_554 S
C2436 C2437 1.373 . S
C2436 C2438 1.389 . S
C2437 H2416 0.950 . S
C2437 C2436 1.373 . S
C2437 C2453 1.377 . S
C2438 C2436 1.389 . S
C2438 C2439 1.524 1_554 S
C2438 C2452 1.377 . S
C2439 C2438 1.524 1_556 S
C2439 C2440 1.397 . S
C2439 C2444 1.363 . S
C2440 H2417 0.950 . S
C2440 C2439 1.397 . S
C2440 C2441 1.334 . S
C2441 H2418 0.950 . S
C2441 C2440 1.334 . S
C2441 C2442 1.287 . S
C2442 C2441 1.287 . S
C2442 C2443 1.524 . S
C2442 H2461 0.913 . S
C2443 H2419 0.950 . S
C2443 C2442 1.524 . S
C2443 C2444 1.415 . S
C2444 H2420 0.950 . S
C2444 C2439 1.363 . S
C2444 C2443 1.415 . S
C2445 H2421 0.951 . S
C2445 C2446 1.366 . S
C2445 C2447 1.388 . S
C2446 C2445 1.366 . S
C2446 C2450 1.385 . S
C2447 H2422 0.951 . S
C2447 C2445 1.388 . S
C2447 C2448 1.366 . S
C2448 C2447 1.366 . S
C2448 C2449 1.414 . S
C2448 C2451 1.499 . S
C2449 H2423 0.950 . S
C2449 C2448 1.414 . S
C2449 C2450 1.374 . S
C2450 H2424 0.950 . S
C2450 C2446 1.385 . S
C2450 C2449 1.374 . S
C2451 C2448 1.499 . S
C2451 C2452 1.373 . S
C2451 C2453 1.389 . S
C2452 H2425 0.950 . S
C2452 C2438 1.377 . S
C2452 C2451 1.373 . S
C2453 C2437 1.377 . S
C2453 C2451 1.389 . S
C2453 C2454 1.524 . S
C2454 C2453 1.524 . S
C2454 C2455 1.397 . S
C2454 C2459 1.363 . S
C2455 H2426 0.950 . S
C2455 C2454 1.397 . S
C2455 C2456 1.334 . S
C2456 H2427 0.950 . S
C2456 C2455 1.334 . S
C2456 C2457 1.287 . S
C2457 C2456 1.287 . S
C2457 C2458 1.524 . S
C2457 H2460 0.999 . S
C2458 H2428 0.950 . S
C2458 C2457 1.524 . S
C2458 C2459 1.415 . S
C2459 H2429 0.950 . S
C2459 C2454 1.363 . S
C2459 C2458 1.415 . S
H2460 C2457 0.999 . S
H2461 C2442 0.913 . S
H2462 C2480 0.951 . S
H2463 C2482 0.951 . S
H2464 C2484 0.950 . S
H2465 C2485 0.950 . S
H2466 C2487 0.950 . S
H2467 C2490 0.950 . S
H2468 C2491 0.950 . S
H2469 C2493 0.950 . S
H2470 C2494 0.950 . S
H2471 C2495 0.951 . S
H2472 C2497 0.951 . S
H2473 C2499 0.950 . S
H2474 C2500 0.950 . S
H2475 C2502 0.950 . S
H2476 C2505 0.950 . S
H2477 C2506 0.950 . S
H2478 C2508 0.950 . S
H2479 C2509 0.950 . S
C2480 H2462 0.951 . S
C2480 C2481 1.366 . S
C2480 C2482 1.388 . S
C2481 C2480 1.366 . S
C2481 C2485 1.385 . S
C2482 H2463 0.951 . S
C2482 C2480 1.388 . S
C2482 C2483 1.366 . S
C2483 C2482 1.366 . S
C2483 C2484 1.414 . S
C2483 C2486 1.499 . S
C2484 H2464 0.950 . S
C2484 C2483 1.414 . S
C2484 C2485 1.374 . S
C2485 H2465 0.950 . S
C2485 C2481 1.385 . S
C2485 C2484 1.374 . S
C2486 C2483 1.499 . S
C2486 C2487 1.373 . S
C2486 C2488 1.389 . S
C2487 H2466 0.950 . S
C2487 C2486 1.373 . S
C2487 C2503 1.377 . S
C2488 C2486 1.389 . S
C2488 C2489 1.524 . S
C2488 C2502 1.377 . S
C2489 C2488 1.524 . S
C2489 C2490 1.397 . S
C2489 C2494 1.363 . S
C2490 H2467 0.950 . S
C2490 C2489 1.397 . S
C2490 C2491 1.334 . S
C2491 H2468 0.950 . S
C2491 C2490 1.334 . S
C2491 C2492 1.287 . S
C2492 C2491 1.287 . S
C2492 C2493 1.524 . S
C2492 H2511 0.913 . S
C2493 H2469 0.950 . S
C2493 C2492 1.524 . S
C2493 C2494 1.415 . S
C2494 H2470 0.950 . S
C2494 C2489 1.363 . S
C2494 C2493 1.415 . S
C2495 H2471 0.951 . S
C2495 C2496 1.366 . S
C2495 C2497 1.388 . S
C2496 C2495 1.366 . S
C2496 C2500 1.385 . S
C2497 H2472 0.951 . S
C2497 C2495 1.388 . S
C2497 C2498 1.366 . S
C2498 C2497 1.366 . S
C2498 C2499 1.414 . S
C2498 C2501 1.499 . S
C2499 H2473 0.950 . S
C2499 C2498 1.414 . S
C2499 C2500 1.374 . S
C2500 H2474 0.950 . S
C2500 C2496 1.385 . S
C2500 C2499 1.374 . S
C2501 C2498 1.499 . S
C2501 C2502 1.373 . S
C2501 C2503 1.389 . S
C2502 H2475 0.950 . S
C2502 C2488 1.377 . S
C2502 C2501 1.373 . S
C2503 C2487 1.377 . S
C2503 C2501 1.389 . S
C2503 C2504 1.524 . S
C2504 C2503 1.524 . S
C2504 C2505 1.397 . S
C2504 C2509 1.363 . S
C2505 H2476 0.950 . S
C2505 C2504 1.397 . S
C2505 C2506 1.334 . S
C2506 H2477 0.950 . S
C2506 C2505 1.334 . S
C2506 C2507 1.287 . S
C2507 C2506 1.287 . S
C2507 C2508 1.524 . S
C2507 H2510 0.999 . S
C2508 H2478 0.950 . S
C2508 C2507 1.524 . S
C2508 C2509 1.415 . S
C2509 H2479 0.950 . S
C2509 C2504 1.363 . S
C2509 C2508 1.415 . S
H2510 C2507 0.999 . S
H2511 C2492 0.913 . S
H2512 C2530 0.951 . S
H2513 C2532 0.951 . S
H2514 C2534 0.950 . S
H2515 C2535 0.950 . S
H2516 C2537 0.950 . S
H2517 C2540 0.950 . S
H2518 C2541 0.950 . S
H2519 C2543 0.950 . S
H2520 C2544 0.950 . S
H2521 C2545 0.951 . S
H2522 C2547 0.951 . S
H2523 C2549 0.950 . S
H2524 C2550 0.950 . S
H2525 C2552 0.950 . S
H2526 C2555 0.950 . S
H2527 C2556 0.950 . S
H2528 C2558 0.950 . S
H2529 C2559 0.950 . S
C2530 H2512 0.951 . S
C2530 C2531 1.366 . S
C2530 C2532 1.388 . S
C2531 C2530 1.366 . S
C2531 C2535 1.385 . S
C2532 H2513 0.951 . S
C2532 C2530 1.388 . S
C2532 C2533 1.366 . S
C2533 C2532 1.366 . S
C2533 C2534 1.414 . S
C2533 C2536 1.499 . S
C2534 H2514 0.950 . S
C2534 C2533 1.414 . S
C2534 C2535 1.374 . S
C2535 H2515 0.950 . S
C2535 C2531 1.385 . S
C2535 C2534 1.374 . S
C2536 C2533 1.499 . S
C2536 C2537 1.373 . S
C2536 C2538 1.389 . S
C2537 H2516 0.950 . S
C2537 C2536 1.373 . S
C2537 C2553 1.377 . S
C2538 C2536 1.389 . S
C2538 C2539 1.524 . S
C2538 C2552 1.377 . S
C2539 C2538 1.524 . S
C2539 C2540 1.397 . S
C2539 C2544 1.363 . S
C2540 H2517 0.950 . S
C2540 C2539 1.397 . S
C2540 C2541 1.334 . S
C2541 H2518 0.950 . S
C2541 C2540 1.334 . S
C2541 C2542 1.287 . S
C2542 C2541 1.287 . S
C2542 C2543 1.524 . S
C2542 H2561 0.913 . S
C2543 H2519 0.950 . S
C2543 C2542 1.524 . S
C2543 C2544 1.415 . S
C2544 H2520 0.950 . S
C2544 C2539 1.363 . S
C2544 C2543 1.415 . S
C2545 H2521 0.951 . S
C2545 C2546 1.366 . S
C2545 C2547 1.388 . S
C2546 C2545 1.366 . S
C2546 C2550 1.385 . S
C2547 H2522 0.951 . S
C2547 C2545 1.388 . S
C2547 C2548 1.366 . S
C2548 C2547 1.366 . S
C2548 C2549 1.414 . S
C2548 C2551 1.499 . S
C2549 H2523 0.950 . S
C2549 C2548 1.414 . S
C2549 C2550 1.374 . S
C2550 H2524 0.950 . S
C2550 C2546 1.385 . S
C2550 C2549 1.374 . S
C2551 C2548 1.499 . S
C2551 C2552 1.373 . S
C2551 C2553 1.389 . S
C2552 H2525 0.950 . S
C2552 C2538 1.377 . S
C2552 C2551 1.373 . S
C2553 C2537 1.377 . S
C2553 C2551 1.389 . S
C2553 C2554 1.524 . S
C2554 C2553 1.524 . S
C2554 C2555 1.397 . S
C2554 C2559 1.363 . S
C2555 H2526 0.950 . S
C2555 C2554 1.397 . S
C2555 C2556 1.334 . S
C2556 H2527 0.950 . S
C2556 C2555 1.334 . S
C2556 C2557 1.287 . S
C2557 C2556 1.287 . S
C2557 C2558 1.524 . S
C2557 H2560 0.999 . S
C2558 H2528 0.950 . S
C2558 C2557 1.524 . S
C2558 C2559 1.415 . S
C2559 H2529 0.950 . S
C2559 C2554 1.363 . S
C2559 C2558 1.415 . S
H2560 C2557 0.999 . S
H2561 C2542 0.913 . S
H2562 C2580 0.951 . S
H2563 C2582 0.951 . S
H2564 C2584 0.950 . S
H2565 C2585 0.950 . S
H2566 C2587 0.950 . S
H2567 C2590 0.950 . S
H2568 C2591 0.950 . S
H2569 C2593 0.950 . S
H2570 C2594 0.950 . S
H2571 C2595 0.951 . S
H2572 C2597 0.951 . S
H2573 C2599 0.950 . S
H2574 C2600 0.950 . S
H2575 C2602 0.950 . S
H2576 C2605 0.950 . S
H2577 C2606 0.950 . S
H2578 C2608 0.950 . S
H2579 C2609 0.950 . S
C2580 H2562 0.951 . S
C2580 C2581 1.366 . S
C2580 C2582 1.388 . S
C2581 C2580 1.366 . S
C2581 C2585 1.385 . S
C2582 H2563 0.951 . S
C2582 C2580 1.388 . S
C2582 C2583 1.366 . S
C2583 C2582 1.366 . S
C2583 C2584 1.414 . S
C2583 C2586 1.499 . S
C2584 H2564 0.950 . S
C2584 C2583 1.414 . S
C2584 C2585 1.374 . S
C2585 H2565 0.950 . S
C2585 C2581 1.385 . S
C2585 C2584 1.374 . S
C2586 C2583 1.499 . S
C2586 C2587 1.373 . S
C2586 C2588 1.389 . S
C2587 H2566 0.950 . S
C2587 C2586 1.373 . S
C2587 C2603 1.377 . S
C2588 C2586 1.389 . S
C2588 C2589 1.524 . S
C2588 C2602 1.377 . S
C2589 C2588 1.524 . S
C2589 C2590 1.397 . S
C2589 C2594 1.363 . S
C2590 H2567 0.950 . S
C2590 C2589 1.397 . S
C2590 C2591 1.334 . S
C2591 H2568 0.950 . S
C2591 C2590 1.334 . S
C2591 C2592 1.287 . S
C2592 C2591 1.287 . S
C2592 C2593 1.524 . S
C2592 H2611 0.913 . S
C2593 H2569 0.950 . S
C2593 C2592 1.524 . S
C2593 C2594 1.415 . S
C2594 H2570 0.950 . S
C2594 C2589 1.363 . S
C2594 C2593 1.415 . S
C2595 H2571 0.951 . S
C2595 C2596 1.366 . S
C2595 C2597 1.388 . S
C2596 C2595 1.366 . S
C2596 C2600 1.385 . S
C2597 H2572 0.951 . S
C2597 C2595 1.388 . S
C2597 C2598 1.366 . S
C2598 C2597 1.366 . S
C2598 C2599 1.414 . S
C2598 C2601 1.499 . S
C2599 H2573 0.950 . S
C2599 C2598 1.414 . S
C2599 C2600 1.374 . S
C2600 H2574 0.950 . S
C2600 C2596 1.385 . S
C2600 C2599 1.374 . S
C2601 C2598 1.499 . S
C2601 C2602 1.373 . S
C2601 C2603 1.389 . S
C2602 H2575 0.950 . S
C2602 C2588 1.377 . S
C2602 C2601 1.373 . S
C2603 C2587 1.377 . S
C2603 C2601 1.389 . S
C2603 C2604 1.524 . S
C2604 C2603 1.524 . S
C2604 C2605 1.397 . S
C2604 C2609 1.363 . S
C2605 H2576 0.950 . S
C2605 C2604 1.397 . S
C2605 C2606 1.334 . S
C2606 H2577 0.950 . S
C2606 C2605 1.334 . S
C2606 C2607 1.287 . S
C2607 C2606 1.287 . S
C2607 C2608 1.524 . S
C2607 H2610 0.999 . S
C2608 H2578 0.950 . S
C2608 C2607 1.524 . S
C2608 C2609 1.415 . S
C2609 H2579 0.950 . S
C2609 C2604 1.363 . S
C2609 C2608 1.415 . S
H2610 C2607 0.999 . S
H2611 C2592 0.913 . S
H2612 C2630 0.951 . S
H2613 C2632 0.951 . S
H2614 C2634 0.950 1_556 S
H2615 C2635 0.950 . S
H2616 C2637 0.950 1_554 S
H2617 C2640 0.950 . S
H2618 C2641 0.950 . S
H2619 C2643 0.950 . S
H2620 C2644 0.950 . S
H2621 C2645 0.951 . S
H2622 C2647 0.951 . S
H2623 C2649 0.950 . S
H2624 C2650 0.950 . S
H2625 C2652 0.950 . S
H2626 C2655 0.952 . S
H2627 C2656 0.950 . S
H2628 C2658 0.950 . S
H2629 C2659 0.950 . S
C2630 H2612 0.951 . S
C2630 C2631 1.366 . S
C2630 C2632 1.388 . S
C2631 C2630 1.366 . S
C2631 C2635 1.385 . S
C2632 H2613 0.951 . S
C2632 C2630 1.388 . S
C2632 C2633 1.366 1_554 S
C2633 C2632 1.366 1_556 S
C2633 C2634 1.414 1_556 S
C2633 C2636 1.499 . S
C2634 H2614 0.950 1_554 S
C2634 C2633 1.414 1_554 S
C2634 C2635 1.374 . S
C2635 H2615 0.950 . S
C2635 C2631 1.385 . S
C2635 C2634 1.374 . S
C2636 C2633 1.499 . S
C2636 C2637 1.373 . S
C2636 C2638 1.389 . S
C2637 H2616 0.950 1_556 S
C2637 C2636 1.373 . S
C2637 C2653 1.377 . S
C2638 C2636 1.389 . S
C2638 C2639 1.524 . S
C2638 C2652 1.377 . S
C2639 C2638 1.524 . S
C2639 C2640 1.397 . S
C2639 C2644 1.363 . S
C2640 H2617 0.950 . S
C2640 C2639 1.397 . S
C2640 C2641 1.334 . S
C2641 H2618 0.950 . S
C2641 C2640 1.334 . S
C2641 C2642 1.287 . S
C2642 C2641 1.287 . S
C2642 C2643 1.524 . S
C2642 H2661 0.913 . S
C2643 H2619 0.950 . S
C2643 C2642 1.524 . S
C2643 C2644 1.415 . S
C2644 H2620 0.950 . S
C2644 C2639 1.363 . S
C2644 C2643 1.415 . S
C2645 H2621 0.951 . S
C2645 C2646 1.366 . S
C2645 C2647 1.388 . S
C2646 C2645 1.366 . S
C2646 C2650 1.385 . S
C2647 H2622 0.951 . S
C2647 C2645 1.388 . S
C2647 C2648 1.366 . S
C2648 C2647 1.366 . S
C2648 C2649 1.414 . S
C2648 C2651 1.499 . S
C2649 H2623 0.950 . S
C2649 C2648 1.414 . S
C2649 C2650 1.374 . S
C2650 H2624 0.950 . S
C2650 C2646 1.385 . S
C2650 C2649 1.374 . S
C2651 C2648 1.499 . S
C2651 C2652 1.373 . S
C2651 C2653 1.389 . S
C2652 H2625 0.950 . S
C2652 C2638 1.377 . S
C2652 C2651 1.373 . S
C2653 C2637 1.377 . S
C2653 C2651 1.389 . S
C2653 C2654 1.524 . S
C2654 C2653 1.524 . S
C2654 C2655 1.406 . S
C2654 C2659 1.363 . S
C2655 H2626 0.952 . S
C2655 C2654 1.406 . S
C2655 C2656 1.323 1_556 S
C2656 H2627 0.950 . S
C2656 C2655 1.323 1_554 S
C2656 C2657 1.287 . S
C2657 C2656 1.287 . S
C2657 C2658 1.524 . S
C2657 H2660 0.999 . S
C2658 H2628 0.950 . S
C2658 C2657 1.524 . S
C2658 C2659 1.415 1_554 S
C2659 H2629 0.950 . S
C2659 C2654 1.363 . S
C2659 C2658 1.415 1_556 S
H2660 C2657 0.999 . S
H2661 C2642 0.913 . S
H2662 C2680 0.951 . S
H2663 C2682 0.951 . S
H2664 C2684 0.950 . S
H2665 C2685 0.950 . S
H2666 C2687 0.950 . S
H2667 C2690 0.950 . S
H2668 C2691 0.950 . S
H2669 C2693 0.950 . S
H2670 C2694 0.950 . S
H2671 C2695 0.948 1_655 S
H2672 C2697 0.951 . S
H2673 C2699 0.950 . S
H2674 C2700 0.950 . S
H2675 C2702 0.950 . S
H2676 C2705 0.950 . S
H2677 C2706 0.950 . S
H2678 C2708 0.950 . S
H2679 C2709 0.950 . S
C2680 H2662 0.951 . S
C2680 C2681 1.366 . S
C2680 C2682 1.388 . S
C2681 C2680 1.366 . S
C2681 C2685 1.385 . S
C2682 H2663 0.951 . S
C2682 C2680 1.388 . S
C2682 C2683 1.366 . S
C2683 C2682 1.366 . S
C2683 C2684 1.414 . S
C2683 C2686 1.499 . S
C2684 H2664 0.950 . S
C2684 C2683 1.414 . S
C2684 C2685 1.374 . S
C2685 H2665 0.950 . S
C2685 C2681 1.385 . S
C2685 C2684 1.374 . S
C2686 C2683 1.499 . S
C2686 C2687 1.373 . S
C2686 C2688 1.389 . S
C2687 H2666 0.950 . S
C2687 C2686 1.373 . S
C2687 C2703 1.377 . S
C2688 C2686 1.389 . S
C2688 C2689 1.524 . S
C2688 C2702 1.377 . S
C2689 C2688 1.524 . S
C2689 C2690 1.397 . S
C2689 C2694 1.363 . S
C2690 H2667 0.950 . S
C2690 C2689 1.397 . S
C2690 C2691 1.334 . S
C2691 H2668 0.950 . S
C2691 C2690 1.334 . S
C2691 C2692 1.287 . S
C2692 C2691 1.287 . S
C2692 C2693 1.524 . S
C2692 H2711 0.913 . S
C2693 H2669 0.950 . S
C2693 C2692 1.524 . S
C2693 C2694 1.415 . S
C2694 H2670 0.950 . S
C2694 C2689 1.363 . S
C2694 C2693 1.415 . S
C2695 H2671 0.948 1_455 S
C2695 C2696 1.366 . S
C2695 C2697 1.388 1_455 S
C2696 C2695 1.366 . S
C2696 C2700 1.385 . S
C2697 H2672 0.951 . S
C2697 C2695 1.388 1_655 S
C2697 C2698 1.366 . S
C2698 C2697 1.366 . S
C2698 C2699 1.414 1_655 S
C2698 C2701 1.499 . S
C2699 H2673 0.950 . S
C2699 C2698 1.414 1_455 S
C2699 C2700 1.374 . S
C2700 H2674 0.950 . S
C2700 C2696 1.385 . S
C2700 C2699 1.374 . S
C2701 C2698 1.499 . S
C2701 C2702 1.373 . S
C2701 C2703 1.389 . S
C2702 H2675 0.950 . S
C2702 C2688 1.377 . S
C2702 C2701 1.373 . S
C2703 C2687 1.377 . S
C2703 C2701 1.389 . S
C2703 C2704 1.524 . S
C2704 C2703 1.524 . S
C2704 C2705 1.397 . S
C2704 C2709 1.363 . S
C2705 H2676 0.950 . S
C2705 C2704 1.397 . S
C2705 C2706 1.334 . S
C2706 H2677 0.950 . S
C2706 C2705 1.334 . S
C2706 C2707 1.287 . S
C2707 C2706 1.287 . S
C2707 C2708 1.524 . S
C2707 H2710 0.999 . S
C2708 H2678 0.950 . S
C2708 C2707 1.524 . S
C2708 C2709 1.415 . S
C2709 H2679 0.950 . S
C2709 C2704 1.363 . S
C2709 C2708 1.415 . S
H2710 C2707 0.999 . S
H2711 C2692 0.913 . S
C331 C117 0.982 . S
C346 C0 0.983 . S
C381 C13 0.982 . S
C396 C130 0.982 . S
C431 C26 0.983 . S
C446 C143 0.982 . S
C481 C39 0.982 . S
C496 C104 0.982 . S
C531 C52 0.984 . S
C546 C195 0.984 . S
C581 C156 0.982 . S
C596 C65 0.982 . S
C631 C78 0.984 . S
C646 C169 0.984 . S
C681 C182 0.982 . S
C696 C91 0.982 . S
C731 C208 0.983 . S
C746 C234 0.982 . S
C781 C286 0.984 . S
C796 C221 0.984 . S
C831 C247 0.982 . S
C846 C299 0.983 . S
C881 C273 0.982 . S
C896 C260 0.982 . S
C931 C268 1.513 . S
C946 C8 1.512 . S
C981 C21 1.513 . S
C996 C229 1.512 . S
C1031 C34 1.513 . S
C1046 C242 1.512 . S
C1081 C47 1.513 . S
C1096 C255 1.512 . S
C1131 C60 1.512 . S
C1146 C307 1.512 . S
C1181 C281 1.512 . S
C1196 C73 1.513 . S
C1231 C294 1.513 . S
C1246 C86 1.512 . S
C1281 C216 1.512 . S
C1296 C99 1.513 . S
C1331 C203 1.512 . S
C1346 C112 1.512 . S
C1381 C125 1.513 . S
C1396 C164 1.512 . S
C1431 C177 1.513 . S
C1446 C138 1.513 . S
C1481 C190 1.512 . S
C1496 C151 1.512 . S
C1531 C5 0.723 . S
C1546 C218 0.697 . S
C1581 C309 0.696 . S
C1596 C18 0.721 . S
C1631 C283 0.695 . S
C1646 C31 0.725 . S
C1681 C44 0.724 . S
C1696 C296 0.695 . S
C1731 C57 0.722 . S
C1746 C231 0.697 . S
C1781 C244 0.695 . S
C1796 C70 0.724 . S
C1831 C257 0.695 . S
C1846 C83 0.725 . S
C1881 C270 0.696 . S
C1896 C96 0.724 . S
C1931 C10 0.696 . S
C1946 C109 0.721 . S
C1981 C23 0.695 . S
C1996 C122 0.725 . S
C2031 C36 0.695 . S
C2046 C135 0.725 . S
C2081 C49 0.696 . S
C2096 C148 0.722 . S
C2131 C62 0.697 . S
C2146 C161 0.722 . S
C2181 C75 0.695 . S
C2196 C174 0.725 . S
C2231 C187 0.725 . S
C2246 C88 0.696 . S
C2281 C101 0.695 . S
C2296 C200 0.724 . S
C2331 C114 0.695 . S
C2346 C213 0.725 . S
C2381 C226 0.721 . S
C2396 C166 0.697 . S
C2431 C179 0.696 . S
C2446 C239 0.722 . S
C2481 C252 0.722 . S
C2496 C192 0.697 . S
C2531 C265 0.725 . S
C2546 C205 0.695 . S
C2581 C278 0.725 . S
C2596 C140 0.695 . S
C2631 C153 0.695 . S
C2646 C291 0.725 . S
C2681 C304 0.725 . S
C2696 C127 0.696 . S
