# Generated by pormake.
# Topology vmp, (7)-cn, num edge types: 1
# Building blocks:
#     Node 0, Type 0, BuildingBlock: HICVOG_clean_sbu_0, # of connection points: 7
#     Node 1, Type 0, BuildingBlock: HICVOG_clean_sbu_0, # of connection points: 7
#     Node 2, Type 0, BuildingBlock: HICVOG_clean_sbu_0, # of connection points: 7
#     Node 3, Type 0, BuildingBlock: HICVOG_clean_sbu_0, # of connection points: 7
#     Node 4, Type 0, BuildingBlock: HICVOG_clean_sbu_0, # of connection points: 7
#     Node 5, Type 0, BuildingBlock: HICVOG_clean_sbu_0, # of connection points: 7
#     Node 6, Type 0, BuildingBlock: HICVOG_clean_sbu_0, # of connection points: 7
#     Node 7, Type 0, BuildingBlock: HICVOG_clean_sbu_0, # of connection points: 7
#     Edge 8, Type (0, 0), BuildingBlock: ZUJKAS_clean_linker_0, # of connection points: 2
#     Edge 9, Type (0, 0), BuildingBlock: ZUJKAS_clean_linker_0, # of connection points: 2
#     Edge 10, Type (0, 0), BuildingBlock: ZUJKAS_clean_linker_0, # of connection points: 2
#     Edge 11, Type (0, 0), BuildingBlock: ZUJKAS_clean_linker_0, # of connection points: 2
#     Edge 12, Type (0, 0), BuildingBlock: ZUJKAS_clean_linker_0, # of connection points: 2
#     Edge 13, Type (0, 0), BuildingBlock: ZUJKAS_clean_linker_0, # of connection points: 2
#     Edge 14, Type (0, 0), BuildingBlock: ZUJKAS_clean_linker_0, # of connection points: 2
#     Edge 15, Type (0, 0), BuildingBlock: ZUJKAS_clean_linker_0, # of connection points: 2
#     Edge 16, Type (0, 0), BuildingBlock: ZUJKAS_clean_linker_0, # of connection points: 2
#     Edge 17, Type (0, 0), BuildingBlock: ZUJKAS_clean_linker_0, # of connection points: 2
#     Edge 18, Type (0, 0), BuildingBlock: ZUJKAS_clean_linker_0, # of connection points: 2
#     Edge 19, Type (0, 0), BuildingBlock: ZUJKAS_clean_linker_0, # of connection points: 2
#     Edge 20, Type (0, 0), BuildingBlock: ZUJKAS_clean_linker_0, # of connection points: 2
#     Edge 21, Type (0, 0), BuildingBlock: ZUJKAS_clean_linker_0, # of connection points: 2
#     Edge 22, Type (0, 0), BuildingBlock: ZUJKAS_clean_linker_0, # of connection points: 2
#     Edge 23, Type (0, 0), BuildingBlock: ZUJKAS_clean_linker_0, # of connection points: 2
#     Edge 24, Type (0, 0), BuildingBlock: ZUJKAS_clean_linker_0, # of connection points: 2
#     Edge 25, Type (0, 0), BuildingBlock: ZUJKAS_clean_linker_0, # of connection points: 2
#     Edge 26, Type (0, 0), BuildingBlock: ZUJKAS_clean_linker_0, # of connection points: 2
#     Edge 27, Type (0, 0), BuildingBlock: ZUJKAS_clean_linker_0, # of connection points: 2
#     Edge 28, Type (0, 0), BuildingBlock: ZUJKAS_clean_linker_0, # of connection points: 2
#     Edge 29, Type (0, 0), BuildingBlock: ZUJKAS_clean_linker_0, # of connection points: 2
#     Edge 30, Type (0, 0), BuildingBlock: ZUJKAS_clean_linker_0, # of connection points: 2
#     Edge 31, Type (0, 0), BuildingBlock: ZUJKAS_clean_linker_0, # of connection points: 2
#     Edge 32, Type (0, 0), BuildingBlock: ZUJKAS_clean_linker_0, # of connection points: 2
#     Edge 33, Type (0, 0), BuildingBlock: ZUJKAS_clean_linker_0, # of connection points: 2
#     Edge 34, Type (0, 0), BuildingBlock: ZUJKAS_clean_linker_0, # of connection points: 2
#     Edge 35, Type (0, 0), BuildingBlock: ZUJKAS_clean_linker_0, # of connection points: 2
# Relax obj value: 0.150
# Max RMSD: 0.198
# Mean RMSD: 0.198
data_MOF--net-vmp--node1-HICVOG_clean_sbu_0--edge1-ZUJKAS_clean_linker_0
_symmetry_space_group_name_H-M    P1
_symmetry_Int_Tables_number       1
_symmetry_cell_setting            triclinic
loop_
_symmetry_equiv_pos_as_xyz
'x, y, z'
_cell_length_a     22.312175
_cell_length_b     97.872893
_cell_length_c     36.458673
_cell_angle_alpha  89.964677
_cell_angle_beta   109.7545
_cell_angle_gamma 90.030529
loop_
_atom_site_label
_atom_site_type_symbol
_atom_site_fract_x
_atom_site_fract_y
_atom_site_fract_z
_atom_type_partial_charge
Zn0 Zn 0.32618 0.14441 0.23783 0.0
C1 C 0.37124 0.11971 0.16232 0.0
N2 N 0.3151 0.12418 0.13781 0.0
C3 C 0.29389 0.13196 0.16111 0.0
N4 N 0.33488 0.13233 0.19802 0.0
N5 N 0.3838 0.12452 0.19887 0.0
C6 C 0.56254 0.12836 0.23916 0.0
O7 O 0.53516 0.13938 0.24669 0.0
O8 O 0.23229 0.14568 0.23176 0.0
Zn9 Zn 0.44769 0.11647 0.24367 0.0
N10 N 0.35784 0.16212 0.22881 0.0
C11 C 0.43118 0.17414 0.20613 0.0
C12 C 0.4047 0.16193 0.21281 0.0
C13 C 0.33606 0.17414 0.23843 0.0
N14 N 0.40986 0.1861 0.21581 0.0
C15 C 0.36283 0.18658 0.23179 0.0
O16 O 0.45377 0.12417 0.297 0.0
C17 C 0.42392 0.13179 0.31342 0.0
O18 O 0.37579 0.13884 0.29362 0.0
H19 H 0.42166 0.15233 0.20545 0.0
H20 H 0.29953 0.17391 0.25177 0.0
C21 C 0.44638 0.08629 0.23734 0.0
C22 C 0.41501 0.07367 0.23577 0.0
C23 C 0.33043 0.08511 0.24875 0.0
C24 C 0.36136 0.09752 0.25022 0.0
N25 N 0.41822 0.09792 0.24427 0.0
N26 N 0.35772 0.07354 0.24142 0.0
H27 H 0.49126 0.08691 0.23212 0.0
C28 C 0.20147 0.13464 0.2305 0.0
O29 O 0.23171 0.12295 0.23361 0.0
O30 O 0.53421 0.11694 0.23675 0.0
H31 H 0.33987 0.10688 0.25548 0.0
H32 H 0.46862 0.17412 0.1935 0.0
H33 H 0.28486 0.08466 0.25312 0.0
Zn34 Zn 0.7054 0.14618 0.80944 0.0
C35 C 0.64082 0.12724 0.88685 0.0
N36 N 0.68818 0.13435 0.91231 0.0
C37 C 0.7166 0.14014 0.88914 0.0
N38 N 0.68829 0.13672 0.85136 0.0
N39 N 0.64012 0.12856 0.84986 0.0
C40 C 0.46879 0.12867 0.80562 0.0
O41 O 0.4971 0.13961 0.79836 0.0
O42 O 0.80001 0.14519 0.81785 0.0
Zn43 Zn 0.58696 0.1177 0.80689 0.0
N44 N 0.67841 0.16483 0.81284 0.0
C45 C 0.60052 0.17855 0.82649 0.0
C46 C 0.6242 0.16579 0.82183 0.0
C47 C 0.70976 0.17624 0.80767 0.0
N48 N 0.63166 0.18991 0.82158 0.0
C49 C 0.68562 0.18924 0.81209 0.0
O50 O 0.58199 0.12386 0.75229 0.0
C51 C 0.61054 0.13165 0.73541 0.0
O52 O 0.65588 0.13947 0.75479 0.0
H53 H 0.59976 0.15666 0.82564 0.0
H54 H 0.75312 0.17518 0.80088 0.0
C55 C 0.59428 0.08784 0.81613 0.0
C56 C 0.62934 0.07557 0.82504 0.0
C57 C 0.72387 0.08792 0.83093 0.0
C58 C 0.68915 0.09999 0.82209 0.0
N59 N 0.62539 0.09977 0.81517 0.0
N60 N 0.69334 0.07607 0.83233 0.0
H61 H 0.54359 0.08799 0.81098 0.0
C62 C 0.82189 0.14774 0.79058 0.0
O63 O 0.78231 0.15157 0.75644 0.0
O64 O 0.49794 0.11729 0.81009 0.0
H65 H 0.71288 0.10956 0.8212 0.0
H66 H 0.55767 0.17944 0.83391 0.0
H67 H 0.77475 0.08796 0.83681 0.0
Zn68 Zn 0.69731 0.86471 0.80438 0.0
C69 C 0.63801 0.88474 0.88237 0.0
N70 N 0.6862 0.87792 0.90798 0.0
C71 C 0.71403 0.87189 0.88486 0.0
N72 N 0.68433 0.87487 0.8468 0.0
N73 N 0.63597 0.883 0.84528 0.0
C74 C 0.46351 0.88322 0.80626 0.0
O75 O 0.49265 0.87172 0.80434 0.0
O76 O 0.79108 0.86435 0.80946 0.0
Zn77 Zn 0.5812 0.89371 0.80225 0.0
N78 N 0.6652 0.84648 0.8077 0.0
C79 C 0.5844 0.83377 0.8215 0.0
C80 C 0.61343 0.84616 0.81935 0.0
C81 C 0.68952 0.83477 0.79809 0.0
N82 N 0.60811 0.82213 0.81171 0.0
C83 C 0.66 0.82215 0.80004 0.0
O84 O 0.57533 0.88756 0.74765 0.0
C85 C 0.60353 0.87966 0.73092 0.0
O86 O 0.64808 0.87169 0.75033 0.0
H87 H 0.59444 0.85551 0.82663 0.0
H88 H 0.73007 0.83537 0.78824 0.0
C89 C 0.5901 0.92363 0.8114 0.0
C90 C 0.62594 0.93582 0.81941 0.0
C91 C 0.71879 0.9232 0.8231 0.0
C92 C 0.68332 0.91122 0.8152 0.0
N93 N 0.62004 0.91162 0.80971 0.0
N94 N 0.68944 0.93515 0.82512 0.0
H95 H 0.53983 0.9236 0.80749 0.0
C96 C 0.81374 0.87483 0.79803 0.0
O97 O 0.77567 0.88518 0.78342 0.0
O98 O 0.49197 0.89445 0.80565 0.0
H99 H 0.70611 0.90158 0.81395 0.0
H100 H 0.54307 0.83339 0.83063 0.0
H101 H 0.76931 0.92302 0.82779 0.0
Zn102 Zn 0.44666 0.89255 0.23848 0.0
C103 C 0.31211 0.87087 0.15651 0.0
N104 N 0.3392 0.87697 0.13307 0.0
C105 C 0.38789 0.88373 0.15846 0.0
N106 N 0.39085 0.88191 0.19569 0.0
N107 N 0.34271 0.87375 0.19454 0.0
C108 C 0.21505 0.87374 0.24498 0.0
O109 O 0.25328 0.88407 0.25962 0.0
O110 O 0.53574 0.89303 0.23491 0.0
Zn111 Zn 0.33057 0.86349 0.23723 0.0
N112 N 0.40939 0.91061 0.23102 0.0
C113 C 0.31202 0.92268 0.21817 0.0
C114 C 0.34631 0.91055 0.2262 0.0
C115 C 0.44025 0.92243 0.22854 0.0
N116 N 0.34227 0.93443 0.21535 0.0
C117 C 0.4056 0.93477 0.22039 0.0
O118 O 0.38121 0.87034 0.29124 0.0
C119 C 0.42554 0.87843 0.31027 0.0
O120 O 0.45268 0.88644 0.29312 0.0
H121 H 0.32275 0.90105 0.22804 0.0
H122 H 0.4903 0.92214 0.2319 0.0
C123 C 0.33575 0.83349 0.24303 0.0
C124 C 0.36291 0.82071 0.23978 0.0
C125 C 0.43727 0.83197 0.21635 0.0
C126 C 0.41059 0.84451 0.21981 0.0
N127 N 0.36051 0.84509 0.23301 0.0
N128 N 0.41307 0.82044 0.22646 0.0
H129 H 0.29665 0.83431 0.25413 0.0
C130 C 0.56357 0.88179 0.23347 0.0
O131 O 0.53375 0.87029 0.23439 0.0
O132 O 0.23732 0.86331 0.23313 0.0
H133 H 0.42999 0.85378 0.21224 0.0
H134 H 0.26166 0.92277 0.214 0.0
H135 H 0.47719 0.83139 0.20593 0.0
Zn136 Zn 0.83294 0.64502 0.73548 0.0
C137 C 0.89739 0.62645 0.6579 0.0
N138 N 0.85067 0.63372 0.63249 0.0
C139 C 0.82129 0.63926 0.65551 0.0
N140 N 0.84864 0.63556 0.69318 0.0
N141 N 0.89693 0.62745 0.69467 0.0
C142 C 0.07426 0.62714 0.74746 0.0
O143 O 0.05118 0.63695 0.76336 0.0
O144 O 0.73801 0.64473 0.72707 0.0
Zn145 Zn 0.95049 0.61645 0.73706 0.0
N146 N 0.86585 0.66331 0.73427 0.0
C147 C 0.95255 0.67572 0.72664 0.0
C148 C 0.92201 0.66342 0.72735 0.0
C149 C 0.83883 0.67514 0.74083 0.0
N150 N 0.92612 0.68749 0.73337 0.0
C151 C 0.87006 0.68768 0.74056 0.0
O152 O 0.95347 0.6219 0.79181 0.0
C153 C 0.92474 0.62959 0.80876 0.0
O154 O 0.88051 0.63768 0.78956 0.0
H155 H 0.94329 0.65394 0.72276 0.0
H156 H 0.79485 0.6747 0.74709 0.0
C157 C 0.94522 0.58669 0.72506 0.0
C158 C 0.91095 0.57433 0.7155 0.0
C159 C 0.816 0.58618 0.71156 0.0
C160 C 0.84995 0.59832 0.72108 0.0
N161 N 0.91353 0.59839 0.72738 0.0
N162 N 0.84711 0.57454 0.70892 0.0
H163 H 0.99572 0.58709 0.72972 0.0
C164 C 0.71618 0.64851 0.75348 0.0
O165 O 0.7558 0.65338 0.78631 0.0
O166 O 0.03991 0.61668 0.7342 0.0
H167 H 0.82578 0.60773 0.72301 0.0
H168 H 0.99726 0.67594 0.72116 0.0
H169 H 0.76526 0.58598 0.70619 0.0
Zn170 Zn 0.20614 0.64395 0.30474 0.0
C171 C 0.16761 0.61848 0.3812 0.0
N172 N 0.2252 0.62262 0.40455 0.0
C173 C 0.24412 0.63079 0.38096 0.0
N174 N 0.20033 0.63169 0.34496 0.0
N175 N 0.15206 0.62381 0.34503 0.0
C176 C 0.96833 0.62783 0.29954 0.0
O177 O 0.99185 0.63813 0.28566 0.0
O178 O 0.29951 0.64546 0.3098 0.0
Zn179 Zn 0.08682 0.61563 0.30126 0.0
N180 N 0.17285 0.66148 0.31363 0.0
C181 C 0.09615 0.673 0.33442 0.0
C182 C 0.12442 0.66096 0.32828 0.0
C183 C 0.19447 0.67366 0.30482 0.0
N184 N 0.11726 0.68512 0.3255 0.0
C185 C 0.16582 0.68592 0.31086 0.0
O186 O 0.08165 0.62263 0.24749 0.0
C187 C 0.10943 0.63048 0.23029 0.0
O188 O 0.15587 0.63811 0.24933 0.0
H189 H 0.10747 0.65122 0.33483 0.0
H190 H 0.23223 0.67369 0.29246 0.0
C191 C 0.08386 0.58545 0.30822 0.0
C192 C 0.11434 0.57266 0.31128 0.0
C193 C 0.20316 0.58351 0.30167 0.0
C194 C 0.17309 0.59608 0.29872 0.0
N195 N 0.11455 0.59686 0.3023 0.0
N196 N 0.17333 0.57216 0.30802 0.0
H197 H 0.03762 0.58636 0.31152 0.0
C198 C 0.32646 0.63452 0.3047 0.0
O199 O 0.29246 0.62327 0.29593 0.0
O200 O 1.00042 0.61683 0.30832 0.0
H201 H 0.19658 0.60528 0.29423 0.0
H202 H 0.05741 0.67273 0.34595 0.0
H203 H 0.25002 0.58276 0.29921 0.0
Zn204 Zn 0.08207 0.3919 0.30473 0.0
C205 C 0.22398 0.37234 0.3874 0.0
N206 N 0.19959 0.37902 0.41123 0.0
C207 C 0.14839 0.38514 0.38601 0.0
N208 N 0.1415 0.38234 0.34855 0.0
N209 N 0.18958 0.37423 0.34947 0.0
C210 C 0.3224 0.37338 0.31006 0.0
O211 O 0.28897 0.3847 0.30154 0.0
O212 O 0.99405 0.39161 0.30969 0.0
Zn213 Zn 0.20069 0.36324 0.30817 0.0
N214 N 0.11487 0.41037 0.30953 0.0
C215 C 0.20905 0.42321 0.31795 0.0
C216 C 0.17675 0.41082 0.31162 0.0
C217 C 0.08311 0.42194 0.31302 0.0
N218 N 0.17803 0.43471 0.32188 0.0
C219 C 0.11578 0.43454 0.31951 0.0
O220 O 0.15132 0.36965 0.25323 0.0
C221 C 0.10564 0.37738 0.23375 0.0
O222 O 0.07714 0.38523 0.2505 0.0
H223 H 0.20097 0.40151 0.309 0.0
H224 H 0.03407 0.42128 0.31182 0.0
C225 C 0.19305 0.33336 0.30461 0.0
C226 C 0.16623 0.32071 0.30959 0.0
C227 C 0.09433 0.3325 0.33387 0.0
C228 C 0.12083 0.34491 0.32884 0.0
N229 N 0.16948 0.34515 0.31433 0.0
N230 N 0.11743 0.32077 0.32411 0.0
H231 H 0.23107 0.33393 0.29253 0.0
C232 C 0.966 0.38019 0.30816 0.0
O233 O 0.99457 0.36903 0.30273 0.0
O234 O 0.29479 0.36243 0.31443 0.0
H235 H 0.1025 0.35432 0.33631 0.0
H236 H 0.25851 0.42369 0.31999 0.0
H237 H 0.0555 0.33218 0.34533 0.0
Zn238 Zn 0.82729 0.36538 0.73583 0.0
C239 C 0.87202 0.39068 0.66141 0.0
N240 N 0.81574 0.38632 0.6368 0.0
C241 C 0.79463 0.37835 0.65979 0.0
N242 N 0.83579 0.37778 0.69662 0.0
N243 N 0.88478 0.38562 0.69775 0.0
C244 C 0.06494 0.38127 0.74029 0.0
O245 O 0.03775 0.37033 0.74852 0.0
O246 O 0.7334 0.36397 0.72983 0.0
Zn247 Zn 0.94919 0.39328 0.74302 0.0
N248 N 0.85962 0.34789 0.72583 0.0
C249 C 0.933 0.33645 0.70198 0.0
C250 C 0.90711 0.34847 0.71037 0.0
C251 C 0.83704 0.33568 0.73356 0.0
N252 N 0.91071 0.32429 0.70965 0.0
C253 C 0.86349 0.32342 0.72541 0.0
O254 O 0.95439 0.3854 0.79601 0.0
C255 C 0.92433 0.37766 0.81205 0.0
O256 O 0.87636 0.37065 0.79188 0.0
H257 H 0.92464 0.35822 0.70447 0.0
H258 H 0.79863 0.3356 0.74536 0.0
C259 C 0.94958 0.42338 0.73696 0.0
C260 C 0.91939 0.4361 0.73592 0.0
C261 C 0.83539 0.42499 0.75046 0.0
C262 C 0.86513 0.41248 0.75136 0.0
N263 N 0.92116 0.41187 0.74441 0.0
N264 N 0.86294 0.43645 0.74262 0.0
H265 H 0.99369 0.42259 0.73088 0.0
C266 C 0.70277 0.37503 0.7287 0.0
O267 O 0.73314 0.3867 0.73164 0.0
O268 O 0.03605 0.39266 0.73663 0.0
H269 H 0.84332 0.40319 0.75692 0.0
H270 H 0.97065 0.33677 0.68954 0.0
H271 H 0.79051 0.42561 0.75564 0.0
H272 H 0.6687 0.14447 0.68941 0.0
H273 H 0.63687 0.14444 0.61844 0.0
H274 H 0.47538 0.11905 0.61128 0.0
H275 H 0.50783 0.11872 0.6825 0.0
H276 H 0.53317 0.1102 0.56199 0.0
H277 H 0.49589 0.16601 0.54239 0.0
H278 H 0.57463 0.16177 0.57395 0.0
H279 H 0.5071 0.15764 0.58833 0.0
C280 C 0.62621 0.1389 0.67286 0.0
C281 C 0.5907 0.13166 0.69194 0.0
C282 C 0.60779 0.13898 0.63209 0.0
C283 C 0.55286 0.13199 0.60921 0.0
C284 C 0.51772 0.1246 0.62814 0.0
H285 H 0.36415 0.14421 0.35918 0.0
H286 H 0.39491 0.14387 0.43018 0.0
C287 C 0.53635 0.12444 0.66898 0.0
C288 C 0.53286 0.13215 0.56567 0.0
H289 H 0.49681 0.15344 0.48666 0.0
C290 C 0.52498 0.11966 0.54554 0.0
C291 C 0.52112 0.14447 0.54391 0.0
C292 C 0.52445 0.15822 0.56319 0.0
C293 C 0.50689 0.11915 0.5046 0.0
C294 C 0.49776 0.13149 0.48298 0.0
C295 C 0.50455 0.14397 0.50307 0.0
C296 C 0.47973 0.1317 0.43953 0.0
C297 C 0.49634 0.10537 0.48492 0.0
C298 C 0.51755 0.12517 0.42079 0.0
C299 C 0.49981 0.12527 0.38001 0.0
C300 C 0.4442 0.13206 0.3569 0.0
C301 C 0.40725 0.13886 0.37584 0.0
C302 C 0.42481 0.13868 0.41658 0.0
H303 H 0.4868 0.09735 0.50383 0.0
H304 H 0.45581 0.10565 0.45699 0.0
H305 H 0.53983 0.10237 0.47864 0.0
H306 H 0.56106 0.12003 0.43771 0.0
H307 H 0.52982 0.12001 0.36662 0.0
H308 H 0.52812 0.8915 0.36273 0.0
H309 H 0.55952 0.89167 0.43393 0.0
H310 H 0.39731 0.86656 0.42716 0.0
H311 H 0.36658 0.86602 0.35628 0.0
H312 H 0.50031 0.90102 0.48201 0.0
H313 H 0.53761 0.84531 0.50467 0.0
H314 H 0.52715 0.85337 0.45841 0.0
H315 H 0.45912 0.84939 0.47246 0.0
C316 C 0.49929 0.88594 0.37637 0.0
C317 C 0.4451 0.87864 0.35362 0.0
C318 C 0.51728 0.88607 0.41715 0.0
C319 C 0.48155 0.87891 0.43613 0.0
C320 C 0.42678 0.87184 0.41343 0.0
H321 H 0.50007 0.89213 0.67742 0.0
H322 H 0.47042 0.89217 0.60635 0.0
C323 C 0.40905 0.87161 0.37275 0.0
C324 C 0.50078 0.87904 0.47954 0.0
H325 H 0.53498 0.85826 0.5594 0.0
C326 C 0.50818 0.89167 0.49894 0.0
C327 C 0.51203 0.86686 0.50185 0.0
C328 C 0.50924 0.85297 0.48334 0.0
C329 C 0.52544 0.89244 0.53978 0.0
C330 C 0.53407 0.88023 0.56192 0.0
C331 C 0.52762 0.86762 0.54254 0.0
C332 C 0.55156 0.88026 0.60526 0.0
C333 C 0.53568 0.90633 0.55878 0.0
C334 C 0.60592 0.8732 0.62851 0.0
C335 C 0.62244 0.87296 0.66911 0.0
C336 C 0.58503 0.87982 0.68762 0.0
C337 C 0.53032 0.88683 0.66428 0.0
C338 C 0.51353 0.88695 0.62356 0.0
H339 H 0.54567 0.91421 0.53965 0.0
H340 H 0.49189 0.90944 0.56456 0.0
H341 H 0.5758 0.90619 0.58691 0.0
H342 H 0.636 0.8679 0.61521 0.0
H343 H 0.66496 0.86748 0.68601 0.0
H344 H 1.00391 0.61138 0.86027 0.0
H345 H 0.03295 0.61087 0.93132 0.0
H346 H 0.9191 0.64683 0.92677 0.0
H347 H 0.88838 0.64718 0.85588 0.0
H348 H 0.09588 0.62839 0.98638 0.0
H349 H 0.85322 0.62264 0.99307 0.0
H350 H 0.86991 0.62073 0.94828 0.0
H351 H 0.86003 0.63747 0.96588 0.0
C352 C 0.98472 0.61915 0.87433 0.0
C353 C 0.94331 0.62926 0.85212 0.0
C354 C 1.00144 0.61885 0.91506 0.0
C355 C 0.97728 0.62864 0.9346 0.0
C356 C 0.93696 0.6389 0.91252 0.0
H357 H 0.14289 0.6483 0.18226 0.0
H358 H 0.11093 0.64773 0.11122 0.0
C359 C 0.91976 0.63914 0.87184 0.0
C360 C 0.99563 0.62838 0.97805 0.0
H361 H 0.93485 0.62869 0.05256 0.0
C362 C 0.06059 0.62838 1.0008 0.0
C363 C 0.94984 0.62812 0.99715 0.0
C364 C 0.8794 0.62709 0.97484 0.0
C365 C 0.08092 0.62842 0.04182 0.0
C366 C 0.0351 0.62886 0.0609 0.0
C367 C 0.97016 0.62856 0.03815 0.0
C368 C 0.05341 0.62946 0.10432 0.0
C369 C 0.15141 0.62768 0.06422 0.0
C370 C 0.02979 0.61973 0.12437 0.0
C371 C 0.04712 0.62018 0.16509 0.0
C372 C 0.08869 0.63035 0.18684 0.0
C373 C 0.11138 0.64022 0.16663 0.0
C374 C 0.09351 0.63985 0.12589 0.0
H375 H 0.17797 0.62315 0.04634 0.0
H376 H 0.17003 0.63817 0.07248 0.0
H377 H 0.16128 0.62153 0.09122 0.0
H378 H 0.99849 0.61166 0.10853 0.0
H379 H 0.02866 0.6124 0.17954 0.0
H380 H 0.86351 0.36508 0.85703 0.0
H381 H 0.89303 0.36527 0.92796 0.0
H382 H 0.0598 0.38916 0.93698 0.0
H383 H 0.02979 0.38933 0.86595 0.0
H384 H 0.99405 0.35565 0.98493 0.0
H385 H 0.98392 0.41171 1.00239 0.0
H386 H 0.95376 0.40348 0.95545 0.0
H387 H 0.0377 0.40675 0.9777 0.0
C388 C 0.9065 0.3704 0.874 0.0
C389 C 0.94397 0.37727 0.8555 0.0
C390 C 0.92334 0.3705 0.9147 0.0
C391 C 0.97804 0.37746 0.93805 0.0
C392 C 1.01642 0.38403 0.91975 0.0
H393 H 0.16384 0.36447 0.18799 0.0
H394 H 0.13242 0.36449 0.11704 0.0
C395 C 0.9994 0.38402 0.879 0.0
C396 C 0.99523 0.37761 0.98145 0.0
H397 H 0.02942 0.3988 0.06056 0.0
C398 C 1.00157 0.3651 1.0014 0.0
C399 C 1.00403 0.38991 1.00314 0.0
C400 C 0.99388 0.40372 0.98358 0.0
C401 C 0.01743 0.36455 0.04219 0.0
C402 C 0.0289 0.37684 0.06405 0.0
C403 C 0.02143 0.38935 0.04404 0.0
C404 C 0.04841 0.37695 0.10757 0.0
C405 C 0.02032 0.35077 0.06132 0.0
C406 C 1.01307 0.38432 0.12636 0.0
C407 C 0.03144 0.38448 0.16718 0.0
C408 C 0.08573 0.37728 0.19027 0.0
C409 C 0.12137 0.37002 0.17133 0.0
C410 C 0.1032 0.36994 0.13058 0.0
H411 H 0.99185 0.34302 0.04036 0.0
H412 H 0.07044 0.3472 0.07226 0.0
H413 H 1.00259 0.35132 0.0863 0.0
H414 H 0.97084 0.38989 0.10939 0.0
H415 H 1.00285 0.39022 0.1806 0.0
H416 H 0.35006 0.95545 0.17154 0.0
H417 H 0.38813 0.97875 0.17191 0.0
H418 H 0.56397 0.96813 0.26236 0.0
H419 H 0.52538 0.94461 0.26254 0.0
H420 H 0.50623 0.99043 0.28091 0.0
H421 H 0.51583 0.99782 0.13326 0.0
H422 H 0.44134 0.99027 0.13072 0.0
H423 H 0.51439 0.98104 0.15369 0.0
C424 C 0.39742 0.95796 0.19102 0.0
C425 C 0.43467 0.94815 0.21695 0.0
C426 C 0.41946 0.97129 0.1909 0.0
C427 C 0.47943 0.97518 0.21667 0.0
C428 C 0.51788 0.96532 0.24185 0.0
H429 H 0.53853 0.06412 0.26502 0.0
H430 H 0.57403 0.04054 0.2606 0.0
C431 C 0.4959 0.95186 0.24178 0.0
C432 C 0.49702 0.9899 0.22022 0.0
H433 H 0.49044 0.01823 0.16421 0.0
C434 C 0.50502 0.9965 0.25576 0.0
C435 C 0.49579 0.99783 0.18748 0.0
C436 C 0.49207 0.99133 0.14928 0.0
C437 C 0.50544 0.01083 0.2584 0.0
C438 C 0.49822 0.01874 0.22468 0.0
C439 C 0.49563 0.01215 0.18999 0.0
C440 C 0.48169 0.03346 0.22318 0.0
C441 C 0.50815 0.01741 0.29635 0.0
C442 C 0.41891 0.03737 0.2025 0.0
C443 C 0.39869 0.0507 0.20507 0.0
C444 C 0.44098 0.06048 0.22801 0.0
C445 C 0.50506 0.05682 0.24684 0.0
C446 C 0.52523 0.04335 0.24458 0.0
H447 H 0.50928 0.00976 0.3191 0.0
H448 H 0.5515 0.02385 0.30734 0.0
H449 H 0.4662 0.02415 0.29169 0.0
H450 H 0.38456 0.02992 0.18583 0.0
H451 H 0.34913 0.05324 0.19012 0.0
H452 H 0.50705 0.94596 0.7765 0.0
H453 H 0.47023 0.96967 0.7758 0.0
H454 H 0.64619 0.98003 0.86643 0.0
H455 H 0.6827 0.95654 0.86767 0.0
H456 H 0.53436 0.99217 0.87538 0.0
H457 H 0.55093 1.00002 0.72751 0.0
H458 H 0.50168 0.98634 0.7342 0.0
H459 H 0.5865 0.98539 0.75696 0.0
C460 C 0.53715 0.95322 0.7969 0.0
C461 C 0.59798 0.94939 0.82204 0.0
C462 C 0.51628 0.96679 0.79622 0.0
C463 C 0.55585 0.97664 0.82075 0.0
C464 C 0.61492 0.97262 0.84722 0.0
H465 H 0.68042 0.05507 0.87561 0.0
H466 H 0.64263 0.03165 0.87345 0.0
C467 C 0.63585 0.95918 0.84775 0.0
C468 C 0.53945 0.99139 0.81748 0.0
H469 H 0.54244 0.01948 0.7625 0.0
C470 C 0.53451 0.99814 0.85032 0.0
C471 C 0.53925 0.99916 0.78468 0.0
C472 C 0.54511 0.99245 0.74878 0.0
C473 C 0.53359 0.01246 0.8522 0.0
C474 C 0.53892 0.02024 0.82072 0.0
C475 C 0.53854 0.0135 0.78665 0.0
C476 C 0.55563 0.03499 0.82489 0.0
C477 C 0.52963 0.01914 0.88856 0.0
C478 C 0.51936 0.04473 0.79825 0.0
C479 C 0.54104 0.05825 0.79947 0.0
C480 C 0.5999 0.06212 0.82691 0.0
C481 C 0.63489 0.05242 0.85416 0.0
C482 C 0.61302 0.03903 0.85319 0.0
H483 H 0.50304 0.01262 0.90275 0.0
H484 H 0.57846 0.02058 0.90966 0.0
H485 H 0.5061 0.02929 0.88209 0.0
H486 H 0.47535 0.04178 0.77584 0.0
H487 H 0.51349 0.06544 0.7777 0.0
H488 H 0.03041 0.5647 0.75911 0.0
H489 H 0.07016 0.54127 0.75959 0.0
H490 H 0.897 0.53042 0.66721 0.0
H491 H 0.85795 0.55364 0.66604 0.0
H492 H 1.01334 0.51915 0.77776 0.0
H493 H 0.02596 0.51108 0.63122 0.0
H494 H 0.02295 0.52796 0.65057 0.0
H495 H 0.95067 0.51848 0.62737 0.0
C496 C 1.00185 0.55743 0.73803 0.0
C497 C 0.94102 0.56104 0.71245 0.0
C498 C 0.02448 0.54402 0.73847 0.0
C499 C 0.98709 0.53411 0.71298 0.0
C500 C 0.92762 0.53791 0.68643 0.0
H501 H 0.85368 0.45662 0.69057 0.0
H502 H 0.8904 0.47977 0.68525 0.0
C503 C 0.90497 0.5512 0.68612 0.0
C504 C 1.00486 0.5194 0.71716 0.0
H505 H 0.99835 0.49081 0.66225 0.0
C506 C 1.01239 0.51297 0.75289 0.0
C507 C 1.00404 0.51132 0.6848 0.0
C508 C 1.00117 0.51762 0.64649 0.0
C509 C 1.01253 0.49866 0.75602 0.0
C510 C 1.00537 0.4906 0.72261 0.0
C511 C 1.00344 0.49701 0.68779 0.0
C512 C 0.9879 0.47596 0.72152 0.0
C513 C 1.01475 0.49225 0.79411 0.0
C514 C 0.03118 0.46599 0.74267 0.0
C515 C 1.01027 0.45262 0.74551 0.0
C516 C 0.94572 0.44916 0.72754 0.0
C517 C 0.90359 0.45901 0.70485 0.0
C518 C 0.92454 0.47223 0.70168 0.0
H519 H 0.01712 0.5 0.81681 0.0
H520 H 0.97194 0.48579 0.78964 0.0
H521 H 0.05721 0.48555 0.80505 0.0
H522 H 0.08037 0.46868 0.7581 0.0
H523 H 0.04362 0.44526 0.76348 0.0
H524 H 0.1747 0.55208 0.35863 0.0
H525 H 0.13611 0.52892 0.36125 0.0
H526 H 0.95156 0.54024 0.28103 0.0
H527 H 0.99038 0.56365 0.27815 0.0
H528 H 0.02861 0.51734 0.37859 0.0
H529 H 0.01723 0.50949 0.22478 0.0
H530 H 0.05871 0.52388 0.25302 0.0
H531 H 0.97333 0.52344 0.23557 0.0
C532 C 0.12548 0.54973 0.3421 0.0
C533 C 0.08567 0.55965 0.31804 0.0
C534 C 0.10343 0.5365 0.34372 0.0
C535 C 0.04125 0.53281 0.321 0.0
C536 C 0.99993 0.54286 0.29856 0.0
H537 H 0.99543 0.44412 0.27831 0.0
H538 H 0.95619 0.46758 0.2792 0.0
C539 C 0.02195 0.55624 0.29719 0.0
C540 C 0.02346 0.51813 0.31858 0.0
H541 H 1.01624 0.49004 0.26169 0.0
C542 C 0.02414 0.51139 0.35271 0.0
C543 C 0.01722 0.51036 0.28475 0.0
C544 C 1.01674 0.51707 0.24737 0.0
C545 C 0.02323 0.49705 0.35469 0.0
C546 C 0.02296 0.48927 0.32194 0.0
C547 C 1.01667 0.49601 0.28683 0.0
C548 C 0.04044 0.47455 0.32528 0.0
C549 C 0.02542 0.49038 0.3924 0.0
C550 C 0.10034 0.47064 0.35108 0.0
C551 C 0.12278 0.45738 0.35045 0.0
C552 C 0.08588 0.44766 0.32405 0.0
C553 C 0.02454 0.45134 0.29937 0.0
C554 C 1.00223 0.46474 0.29973 0.0
H555 H 1.00149 0.49684 0.40836 0.0
H556 H 1.00242 0.48016 0.38731 0.0
H557 H 0.07583 0.48913 0.41134 0.0
H558 H 0.13143 0.47806 0.37038 0.0
H559 H 0.17026 0.45486 0.36975 0.0
H560 H 0.73648 0.16357 0.93077 0.0
H561 H 0.83862 0.17084 0.97795 0.0
H562 H 0.93366 0.13905 0.93658 0.0
H563 H 0.83202 0.1321 0.88905 0.0
H564 H 0.89881 0.15459 0.03499 0.0
H565 H 0.06761 0.16778 0.9597 0.0
H566 H 0.9827 0.16714 0.93439 0.0
H567 H 0.03003 0.15179 0.94185 0.0
C568 C 0.77987 0.15869 0.93042 0.0
C569 C 0.77697 0.14755 0.9057 0.0
C570 C 0.8381 0.16275 0.95759 0.0
C571 C 0.89421 0.15558 0.9608 0.0
C572 C 0.89169 0.14504 0.93409 0.0
H573 H 0.17823 0.12061 0.14291 0.0
H574 H 0.07835 0.13027 0.09993 0.0
C575 C 0.83353 0.14109 0.90669 0.0
C576 C 0.95212 0.1573 0.99588 0.0
H577 H 0.11442 0.15786 0.02495 0.0
C578 C 0.94585 0.15569 0.03278 0.0
C579 C 1.01367 0.1589 0.99339 0.0
C580 C 0.02376 0.16165 0.95516 0.0
C581 C 0.99938 0.15454 0.0667 0.0
C582 C 0.06082 0.15479 0.06364 0.0
C583 C 0.06725 0.15753 0.02729 0.0
C584 C 0.11788 0.15022 0.09611 0.0
C585 C 0.98958 0.15253 0.10535 0.0
C586 C 0.17319 0.15831 0.1091 0.0
C587 C 0.23034 0.15278 0.13418 0.0
C588 C 0.23272 0.13911 0.14612 0.0
C589 C 0.17686 0.13129 0.13475 0.0
C590 C 0.11984 0.13681 0.1102 0.0
H591 H 0.94469 0.15743 0.10538 0.0
H592 H 0.98585 0.14144 0.11059 0.0
H593 H 0.02988 0.15677 0.12978 0.0
H594 H 0.17289 0.16862 0.09825 0.0
H595 H 0.27347 0.15884 0.14181 0.0
H596 H 0.20113 0.87667 0.16764 0.0
H597 H 0.09505 0.86992 0.12539 0.0
H598 H 0.1795 0.84488 0.05845 0.0
H599 H 0.28527 0.85056 0.10342 0.0
H600 H 0.05931 0.87839 0.05581 0.0
H601 H 0.02594 0.82249 0.0455 0.0
H602 H 0.08867 0.83043 0.08478 0.0
H603 H 0.09906 0.82717 0.03863 0.0
C604 C 0.19687 0.86875 0.14623 0.0
C605 C 0.25122 0.86359 0.14007 0.0
C606 C 0.13615 0.86517 0.12123 0.0
C607 C 0.1288 0.8568 0.08862 0.0
C608 C 0.18328 0.85101 0.08384 0.0
H609 H 0.82696 0.87761 0.87585 0.0
H610 H 0.9317 0.87092 0.9205 0.0
C611 C 0.24391 0.85431 0.10951 0.0
C612 C 0.06669 0.85642 0.05607 0.0
H613 H 0.96089 0.83559 0.98987 0.0
C614 C 0.03756 0.86897 0.04187 0.0
C615 C 0.03794 0.84419 0.03757 0.0
C616 C 0.06427 0.83032 0.05272 0.0
C617 C 0.98125 0.86969 1.00976 0.0
C618 C 0.95439 0.85754 0.98989 0.0
C619 C 0.98252 0.84492 1.00442 0.0
C620 C 0.89452 0.85789 0.95581 0.0
C621 C 0.95042 0.88351 0.99816 0.0
C622 C 0.83942 0.85167 0.95841 0.0
C623 C 0.77974 0.85495 0.93153 0.0
C624 C 0.77436 0.86445 0.9017 0.0
C625 C 0.82985 0.86968 0.89705 0.0
C626 C 0.88967 0.86616 0.92339 0.0
H627 H 0.96714 0.89102 0.02236 0.0
H628 H 0.963 0.88756 0.97327 0.0
H629 H 0.89776 0.88278 0.98919 0.0
H630 H 0.84195 0.84524 0.98307 0.0
H631 H 0.73744 0.85103 0.93617 0.0
H632 H 0.70494 0.63141 0.6549 0.0
H633 H 0.60458 0.63799 0.60504 0.0
H634 H 0.7019 0.66981 0.56541 0.0
H635 H 0.80277 0.66288 0.61458 0.0
H636 H 0.52646 0.65975 0.57605 0.0
H637 H 0.65003 0.64432 0.4731 0.0
H638 H 0.68546 0.64204 0.52498 0.0
H639 H 0.68429 0.65866 0.50365 0.0
C640 C 0.7042 0.64026 0.63688 0.0
C641 C 0.76117 0.64674 0.63869 0.0
C642 C 0.64696 0.64393 0.60804 0.0
C643 C 0.64608 0.65412 0.58063 0.0
C644 C 0.70175 0.66168 0.58552 0.0
H645 H 0.26881 0.65806 0.394 0.0
H646 H 0.37005 0.66772 0.43721 0.0
C647 C 0.75913 0.65787 0.61399 0.0
C648 C 0.58978 0.65532 0.54439 0.0
H649 H 0.54119 0.64878 0.44652 0.0
C650 C 0.52966 0.65762 0.54758 0.0
C651 C 0.59407 0.65238 0.50724 0.0
C652 C 0.65674 0.64909 0.50186 0.0
C653 C 0.47358 0.65636 0.51516 0.0
C654 C 0.47786 0.65302 0.47829 0.0
C655 C 0.53812 0.6515 0.47468 0.0
C656 C 0.42118 0.64853 0.44533 0.0
C657 C 0.41018 0.65764 0.52127 0.0
C658 C 0.41784 0.63485 0.43327 0.0
C659 C 0.36075 0.62943 0.4085 0.0
C660 C 0.30625 0.63763 0.39485 0.0
C661 C 0.31073 0.65162 0.40379 0.0
C662 C 0.36815 0.65707 0.42888 0.0
H663 H 0.41542 0.65825 0.55263 0.0
H664 H 0.38576 0.66705 0.50672 0.0
H665 H 0.3792 0.64878 0.50823 0.0
H666 H 0.45809 0.62806 0.44536 0.0
H667 H 0.35796 0.61858 0.40223 0.0
H668 H 0.34028 0.38072 0.39034 0.0
H669 H 0.44081 0.37271 0.4367 0.0
H670 H 0.34232 0.33963 0.47033 0.0
H671 H 0.24124 0.34784 0.42384 0.0
H672 H 0.40227 0.35494 0.53077 0.0
H673 H 0.57308 0.34355 0.45566 0.0
H674 H 0.53597 0.35972 0.4395 0.0
H675 H 0.48832 0.34439 0.42991 0.0
C676 C 0.3408 0.37125 0.40585 0.0
C677 C 0.28363 0.36465 0.40284 0.0
C678 C 0.39832 0.36669 0.4326 0.0
C679 C 0.39952 0.35546 0.45691 0.0
C680 C 0.34278 0.34823 0.45173 0.0
H681 H 0.77627 0.35147 0.64018 0.0
H682 H 0.67689 0.34149 0.59573 0.0
C683 C 0.28518 0.35284 0.42497 0.0
C684 C 0.45664 0.35308 0.49201 0.0
H685 H 0.619 0.35277 0.52203 0.0
C686 C 0.44956 0.35404 0.52883 0.0
C687 C 0.51847 0.35173 0.48982 0.0
C688 C 0.52926 0.34964 0.45153 0.0
C689 C 0.50266 0.35495 0.56307 0.0
C690 C 0.56435 0.35507 0.56041 0.0
C691 C 0.57161 0.35284 0.52406 0.0
C692 C 0.62057 0.35968 0.59336 0.0
C693 C 0.4923 0.35643 0.60168 0.0
C694 C 0.62135 0.37304 0.60756 0.0
C695 C 0.67766 0.37868 0.63262 0.0
C696 C 0.73399 0.37102 0.64437 0.0
C697 C 0.73274 0.35739 0.63229 0.0
C698 C 0.67629 0.35175 0.6067 0.0
H699 H 0.44618 0.35187 0.60073 0.0
H700 H 0.5314 0.35154 0.62557 0.0
H701 H 0.49124 0.36744 0.60857 0.0
H702 H 0.57954 0.37948 0.59698 0.0
H703 H 0.67818 0.38933 0.64086 0.0
H704 H 0.65832 0.10145 0.91514 0.0
H705 H 0.60976 0.09204 0.96091 0.0
H706 H 0.48234 0.12659 0.93904 0.0
H707 H 0.53018 0.13575 0.89312 0.0
H708 H 0.62211 0.10518 0.02646 0.0
H709 H 0.36556 0.09719 0.95012 0.0
H710 H 0.42124 0.09893 0.92417 0.0
H711 H 0.38837 0.11385 0.93928 0.0
C712 C 0.61746 0.10656 0.91855 0.0
C713 C 0.59673 0.11912 0.90005 0.0
C714 C 0.59027 0.1013 0.94504 0.0
C715 C 0.54212 0.10856 0.95345 0.0
C716 C 0.51821 0.12059 0.9325 0.0
H717 H 0.48103 0.13014 0.15925 0.0
H718 H 0.532 0.12362 0.11242 0.0
C719 C 0.54533 0.12582 0.90604 0.0
C720 C 0.52428 0.10499 0.98811 0.0
H721 H 0.39643 0.10302 1.01906 0.0
C722 C 0.57275 0.10436 0.02475 0.0
C723 C 0.46013 0.10373 0.98611 0.0
C724 C 0.40602 0.10331 0.9477 0.0
C725 C 0.55861 0.10346 0.05944 0.0
C726 C 0.49421 0.10349 0.05756 0.0
C727 C 0.44593 0.10314 1.0208 0.0
C728 C 0.47524 0.10534 0.09272 0.0
C729 C 0.61294 0.10281 0.09771 0.0
C730 C 0.42753 0.09709 0.09843 0.0
C731 C 0.39826 0.1009 0.12531 0.0
C732 C 0.41683 0.11289 0.1473 0.0
C733 C 0.468 0.12051 0.14401 0.0
C734 C 0.49683 0.11681 0.11687 0.0
H735 H 0.65497 0.09763 0.09421 0.0
H736 H 0.62769 0.11335 0.10809 0.0
H737 H 0.59917 0.09734 0.12035 0.0
H738 H 0.40979 0.08825 0.08013 0.0
H739 H 0.35772 0.09508 0.12665 0.0
H740 H 0.52973 0.87576 0.89076 0.0
H741 H 0.4826 0.88497 0.9368 0.0
H742 H 0.6053 0.92024 0.95468 0.0
H743 H 0.65288 0.91084 0.90845 0.0
H744 H 0.62347 0.90705 1.02101 0.0
H745 H 0.36485 0.9137 0.9508 0.0
H746 H 0.38789 0.89729 0.93837 0.0
H747 H 0.41794 0.91256 0.92291 0.0
C748 C 0.54372 0.88587 0.90266 0.0
C749 C 0.59361 0.89278 0.89543 0.0
C750 C 0.51698 0.89114 0.92921 0.0
C751 C 0.54 0.90338 0.94917 0.0
C752 C 0.58641 0.91084 0.93948 0.0
H753 H 0.37192 0.90989 0.13275 0.0
H754 H 0.41866 0.91962 0.08645 0.0
C755 C 0.6131 0.90556 0.91279 0.0
C756 C 0.52443 0.90677 0.9847 0.0
H757 H 0.40057 0.90669 1.01954 0.0
C758 C 0.57465 0.90738 1.02058 0.0
C759 C 0.46098 0.90743 0.98443 0.0
C760 C 0.40499 0.90786 0.94694 0.0
C761 C 0.56304 0.90738 0.05612 0.0
C762 C 0.49962 0.90651 0.05582 0.0
C763 C 0.44937 0.90718 1.01997 0.0
C764 C 0.48424 0.90287 0.09126 0.0
C765 C 0.619 0.90777 0.09362 0.0
C766 C 0.50763 0.89057 0.11079 0.0
C767 C 0.48135 0.88512 0.13736 0.0
C768 C 0.43158 0.89189 0.14504 0.0
C769 C 0.41162 0.9047 0.12805 0.0
C770 C 0.43783 0.91018 0.10133 0.0
H771 H 0.65899 0.91373 0.08993 0.0
H772 H 0.60589 0.91232 0.11776 0.0
H773 H 0.63638 0.89721 0.10193 0.0
H774 H 0.54203 0.88453 0.10289 0.0
H775 H 0.49568 0.87498 0.14895 0.0
H776 H 0.05563 0.62801 0.3837 0.0
H777 H 1.00848 0.62167 0.43278 0.0
H778 H 0.1368 0.58736 0.46696 0.0
H779 H 0.18571 0.5941 0.41872 0.0
H780 H 0.95379 0.6012 0.45822 0.0
H781 H 0.19708 0.61007 0.56392 0.0
H782 H 0.177 0.61338 0.51259 0.0
H783 H 0.19104 0.59616 0.53086 0.0
C784 C 0.0715 0.61872 0.40031 0.0
C785 C 0.12387 0.61148 0.39736 0.0
C786 C 0.04511 0.61518 0.42877 0.0
C787 C 0.07068 0.60432 0.45459 0.0
C788 C 0.11772 0.59605 0.44828 0.0
H789 H 0.89112 0.59979 0.63606 0.0
H790 H 0.94157 0.59036 0.59118 0.0
C791 C 0.1449 0.59975 0.4203 0.0
C792 C 0.05378 0.60294 0.49061 0.0
H793 H 0.11601 0.60625 0.58976 0.0
C794 C 0.98928 0.60208 0.48705 0.0
C795 C 0.10021 0.6043 0.52829 0.0
C796 C 0.17013 0.60615 0.53432 0.0
C797 C 0.96958 0.60319 0.51972 0.0
C798 C 1.01598 0.60474 0.55732 0.0
C799 C 0.08064 0.6049 0.56106 0.0
C800 C 0.99813 0.60842 0.59189 0.0
C801 C 0.89907 0.60369 0.51319 0.0
C802 C 0.01789 0.62108 0.61015 0.0
C803 C 0.99054 0.62625 0.63649 0.0
C804 C 0.94334 0.61883 0.64515 0.0
C805 C 0.92827 0.60558 0.63017 0.0
C806 C 0.95615 0.60032 0.60399 0.0
H807 H 0.87024 0.60507 0.48194 0.0
H808 H 0.88421 0.59395 0.52315 0.0
H809 H 0.88782 0.61217 0.53 0.0
H810 H 0.05057 0.62749 0.60162 0.0
H811 H 1.00197 0.63659 0.64726 0.0
H812 H 0.03888 0.37564 0.39175 0.0
H813 H 0.989 0.3839 0.43758 0.0
H814 H 0.1123 0.41919 0.46202 0.0
H815 H 0.1632 0.41064 0.4165 0.0
H816 H 0.12448 0.40595 0.52658 0.0
H817 H 0.8668 0.41177 0.44852 0.0
H818 H 0.8937 0.39547 0.43813 0.0
H819 H 0.92357 0.41083 0.42314 0.0
C820 C 0.05259 0.38556 0.40515 0.0
C821 C 0.1035 0.39271 0.39988 0.0
C822 C 0.02432 0.39027 0.43163 0.0
C823 C 0.0464 0.40226 0.45323 0.0
C824 C 0.09417 0.40995 0.44565 0.0
H825 H 0.85685 0.41505 0.6243 0.0
H826 H 0.90877 0.42173 0.57757 0.0
C827 C 0.12272 0.40517 0.41932 0.0
C828 C 0.02706 0.40541 0.48763 0.0
H829 H 0.89786 0.40638 0.51753 0.0
C830 C 0.07485 0.40637 0.52446 0.0
C831 C 0.9625 0.40614 0.48515 0.0
C832 C 0.90883 0.40615 0.44651 0.0
C833 C 0.05984 0.40717 0.55888 0.0
C834 C 0.99529 0.40669 0.55656 0.0
C835 C 0.9475 0.40662 0.51959 0.0
C836 C 0.97587 0.40494 0.5916 0.0
C837 C 0.1135 0.40827 0.59735 0.0
C838 C 0.99844 0.39373 0.61663 0.0
C839 C 0.96966 0.39011 0.6439 0.0
C840 C 0.91756 0.39757 0.64642 0.0
C841 C 0.89807 0.40936 0.62355 0.0
C842 C 0.92723 0.41307 0.59653 0.0
H843 H 0.15492 0.41374 0.59388 0.0
H844 H 0.09839 0.4137 0.6195 0.0
H845 H 0.12976 0.39786 0.60834 0.0
H846 H 0.0345 0.38703 0.61284 0.0
H847 H 0.9835 0.38062 0.65983 0.0
H848 H 0.24521 0.19453 0.23487 0.0
H849 H 0.21353 0.21743 0.24811 0.0
H850 H 0.4024 0.23239 0.26403 0.0
H851 H 0.43465 0.20963 0.25098 0.0
H852 H 0.26363 0.23442 0.31371 0.0
H853 H 0.28963 0.25843 0.18197 0.0
H854 H 0.28797 0.24015 0.18803 0.0
H855 H 0.35959 0.24963 0.21199 0.0
C856 C 0.28038 0.20261 0.24171 0.0
C857 C 0.34268 0.20016 0.2419 0.0
C858 C 0.26198 0.21574 0.24899 0.0
C859 C 0.30527 0.22667 0.25632 0.0
C860 C 0.36774 0.22419 0.2575 0.0
H861 H 0.28582 0.31336 0.30829 0.0
H862 H 0.32023 0.29066 0.29532 0.0
C863 C 0.38612 0.21113 0.25016 0.0
C864 C 0.28552 0.24068 0.26306 0.0
H865 H 0.27189 0.27342 0.22847 0.0
C866 C 0.26511 0.24294 0.29497 0.0
C867 C 0.28783 0.25179 0.23868 0.0
C868 C 0.30687 0.2499 0.20303 0.0
C869 C 0.24779 0.25604 0.30349 0.0
C870 C 0.24991 0.26715 0.27905 0.0
C871 C 0.27056 0.26491 0.24724 0.0
C872 C 0.2287 0.28106 0.28532 0.0
C873 C 0.22839 0.25794 0.33901 0.0
C874 C 0.16548 0.28327 0.28296 0.0
C875 C 0.14553 0.29621 0.29006 0.0
C876 C 0.18816 0.30732 0.29937 0.0
C877 C 0.25126 0.30516 0.30065 0.0
C878 C 0.27122 0.29215 0.29354 0.0
H879 H 0.2456 0.24943 0.36014 0.0
H880 H 0.24707 0.26771 0.35397 0.0
H881 H 0.17565 0.25819 0.3299 0.0
H882 H 0.13148 0.27494 0.27579 0.0
H883 H 0.09643 0.29748 0.28836 0.0
H884 H 0.75094 0.19485 0.76144 0.0
H885 H 0.78856 0.21726 0.74818 0.0
H886 H 0.72256 0.23553 0.83514 0.0
H887 H 0.68598 0.21329 0.84903 0.0
H888 H 0.7088 0.24036 0.72219 0.0
H889 H 0.90231 0.25136 0.86139 0.0
H890 H 0.87152 0.23435 0.84764 0.0
H891 H 0.8289 0.24621 0.86736 0.0
C892 C 0.74602 0.20356 0.77849 0.0
C893 C 0.71581 0.20224 0.80653 0.0
C894 C 0.76708 0.21638 0.77065 0.0
C895 C 0.75901 0.22803 0.791 0.0
C896 C 0.73037 0.22666 0.8196 0.0
H897 H 0.81007 0.31569 0.78087 0.0
H898 H 0.7822 0.29258 0.79487 0.0
C899 C 0.70906 0.21392 0.82728 0.0
C900 C 0.77581 0.24181 0.78055 0.0
H901 H 0.86418 0.2702 0.81829 0.0
C902 C 0.74328 0.24685 0.74303 0.0
C903 C 0.8203 0.25029 0.80795 0.0
C904 C 0.85823 0.24526 0.84824 0.0
C905 C 0.75286 0.26026 0.73244 0.0
C906 C 0.79705 0.26878 0.75992 0.0
C907 C 0.83001 0.2637 0.79735 0.0
C908 C 0.81094 0.28289 0.75013 0.0
C909 C 0.71421 0.26532 0.69229 0.0
C910 C 0.83642 0.28512 0.72038 0.0
C911 C 0.85178 0.29832 0.712 0.0
C912 C 0.84237 0.30963 0.73331 0.0
C913 C 0.81664 0.30736 0.76314 0.0
C914 C 0.80125 0.2941 0.7715 0.0
H915 H 0.67074 0.25904 0.67901 0.0
H916 H 0.69976 0.27613 0.69318 0.0
H917 H 0.74349 0.26467 0.67307 0.0
H918 H 0.84555 0.27661 0.70404 0.0
H919 H 0.87165 0.29963 0.68892 0.0
H920 H 0.78285 0.81409 0.80853 0.0
H921 H 0.81758 0.79131 0.79606 0.0
H922 H 0.62291 0.77733 0.75754 0.0
H923 H 0.5877 0.79997 0.76919 0.0
H924 H 0.79612 0.76672 0.83205 0.0
H925 H 0.6883 0.76399 0.67092 0.0
H926 H 0.70017 0.77994 0.69731 0.0
H927 H 0.63416 0.76908 0.69532 0.0
C928 C 0.74727 0.80627 0.79651 0.0
C929 C 0.68236 0.80891 0.78956 0.0
C930 C 0.76726 0.79323 0.78969 0.0
C931 C 0.7227 0.78269 0.77543 0.0
C932 C 0.65797 0.78537 0.76788 0.0
H933 H 0.74517 0.69579 0.72717 0.0
H934 H 0.70831 0.71854 0.73787 0.0
C935 C 0.63803 0.79831 0.77485 0.0
C936 C 0.74376 0.76863 0.77072 0.0
H937 H 0.7283 0.74322 0.70394 0.0
C938 C 0.78173 0.7616 0.80402 0.0
C939 C 0.72417 0.76194 0.73419 0.0
C940 C 0.68489 0.76914 0.6973 0.0
C941 C 0.80003 0.74799 0.80185 0.0
C942 C 0.78081 0.74131 0.76527 0.0
C943 C 0.74264 0.74833 0.73198 0.0
C944 C 0.80274 0.72732 0.76061 0.0
C945 C 0.83881 0.74079 0.83887 0.0
C946 C 0.86789 0.72474 0.76972 0.0
C947 C 0.88909 0.71179 0.76393 0.0
C948 C 0.84565 0.70107 0.74869 0.0
C949 C 0.78017 0.70366 0.7397 0.0
C950 C 0.75894 0.7167 0.74547 0.0
H951 H 0.83349 0.74574 0.86502 0.0
H952 H 0.82474 0.72989 0.83841 0.0
H953 H 0.88991 0.74121 0.84179 0.0
H954 H 0.90246 0.73283 0.78066 0.0
H955 H 0.93983 0.71021 0.7712 0.0
H956 H 0.24144 0.81349 0.23776 0.0
H957 H 0.20607 0.79099 0.25201 0.0
H958 H 0.39664 0.77538 0.27835 0.0
H959 H 0.43271 0.79774 0.26526 0.0
H960 H 0.21226 0.76629 0.21429 0.0
H961 H 0.35081 0.76258 0.37193 0.0
H962 H 0.33867 0.77856 0.34567 0.0
H963 H 0.39882 0.7668 0.34273 0.0
C964 C 0.27619 0.80538 0.24749 0.0
C965 C 0.34021 0.80752 0.25073 0.0
C966 C 0.25573 0.79248 0.2553 0.0
C967 C 0.29893 0.78155 0.26682 0.0
C968 C 0.36271 0.78371 0.27032 0.0
H969 H 0.28468 0.69458 0.31179 0.0
H970 H 0.31525 0.71767 0.29905 0.0
C971 C 0.38311 0.79651 0.26247 0.0
C972 C 0.27728 0.76768 0.27323 0.0
H973 H 0.30532 0.74186 0.34009 0.0
C974 C 0.23208 0.76099 0.2419 0.0
C975 C 0.30355 0.76074 0.30921 0.0
C976 C 0.35021 0.76757 0.34443 0.0
C977 C 0.21363 0.74745 0.24528 0.0
C978 C 0.24045 0.74046 0.28112 0.0
C979 C 0.28522 0.74718 0.31255 0.0
C980 C 0.22132 0.72632 0.28699 0.0
C981 C 0.16678 0.74059 0.21018 0.0
C982 C 0.15849 0.72353 0.28457 0.0
C983 C 0.14079 0.71036 0.29165 0.0
C984 C 0.18549 0.69964 0.30132 0.0
C985 C 0.24855 0.70245 0.30359 0.0
C986 C 0.26629 0.71569 0.29665 0.0
H987 H 0.16341 0.74596 0.18269 0.0
H988 H 0.18033 0.72979 0.20796 0.0
H989 H 0.11886 0.74069 0.21309 0.0
H990 H 0.12327 0.73161 0.27788 0.0
H991 H 0.09187 0.70861 0.2897 0.0
H992 H 0.63312 0.15135 0.24132 0.0
H993 H 0.73693 0.1531 0.23301 0.0
H994 H 0.73803 0.10953 0.21561 0.0
H995 H 0.63329 0.10772 0.22307 0.0
H996 H 0.8474 0.14178 0.27773 0.0
H997 H 0.78959 0.12328 0.12599 0.0
H998 H 0.72904 0.12814 0.14607 0.0
H999 H 0.76623 0.11163 0.15672 0.0
C1000 C 0.6551 0.14213 0.23541 0.0
C1001 C 0.6249 0.12938 0.23303 0.0
C1002 C 0.71454 0.14316 0.23064 0.0
C1003 C 0.74513 0.13149 0.2232 0.0
C1004 C 0.71489 0.11874 0.22047 0.0
H1005 H 0.123 0.11271 0.22438 0.0
H1006 H 1.0112 0.11276 0.21979 0.0
C1007 C 0.65521 0.1177 0.22512 0.0
C1008 C 0.81028 0.13261 0.2208 0.0
H1009 H 0.90002 0.12539 0.16351 0.0
C1010 C 0.8587 0.13831 0.25258 0.0
C1011 C 0.82512 0.1281 0.18797 0.0
C1012 C 0.77468 0.12256 0.15208 0.0
C1013 C 0.9217 0.13928 0.2529 0.0
C1014 C 0.93673 0.13458 0.22038 0.0
C1015 C 0.88833 0.129 0.1884 0.0
C1016 C 1.00314 0.13477 0.22005 0.0
C1017 C 0.97215 0.14497 0.28857 0.0
C1018 C 0.03542 0.14716 0.22084 0.0
C1019 C 0.0996 0.14718 0.22354 0.0
C1020 C 0.13261 0.1348 0.22553 0.0
C1021 C 0.09934 0.12243 0.22334 0.0
C1022 C 0.03527 0.12243 0.22054 0.0
H1023 H 0.95526 0.14568 0.31389 0.0
H1024 H 1.01561 0.13851 0.29685 0.0
H1025 H 0.98552 0.15538 0.28203 0.0
H1026 H 1.01118 0.1568 0.21987 0.0
H1027 H 0.12355 0.15688 0.22467 0.0
H1028 H 0.3987 0.10869 0.82564 0.0
H1029 H 0.2913 0.11081 0.82939 0.0
H1030 H 0.28641 0.15326 0.79688 0.0
H1031 H 0.39339 0.1513 0.79347 0.0
H1032 H 0.24081 0.14842 0.85897 0.0
H1033 H 0.1281 0.11394 0.73322 0.0
H1034 H 0.19412 0.1069 0.77194 0.0
H1035 H 0.2071 0.12084 0.74347 0.0
C1036 C 0.37466 0.11846 0.81922 0.0
C1037 C 0.40437 0.12978 0.80878 0.0
C1038 C 0.31327 0.11965 0.82132 0.0
C1039 C 0.28048 0.13215 0.81288 0.0
C1040 C 0.31071 0.14351 0.80341 0.0
H1041 H 0.88252 0.15176 0.73768 0.0
H1042 H 0.99446 0.14772 0.74629 0.0
C1043 C 0.37188 0.14235 0.80134 0.0
C1044 C 0.21415 0.13348 0.81295 0.0
H1045 H 0.06116 0.12339 0.76449 0.0
C1046 C 0.20151 0.14288 0.83854 0.0
C1047 C 0.16292 0.12635 0.78597 0.0
C1048 C 0.1733 0.11651 0.75683 0.0
C1049 C 0.13896 0.14545 0.83755 0.0
C1050 C 0.08772 0.13833 0.81048 0.0
C1051 C 0.1005 0.1288 0.78529 0.0
C1052 C 0.02019 0.14111 0.80628 0.0
C1053 C 0.12806 0.15612 0.8645 0.0
C1054 C 0.99726 0.13876 0.83718 0.0
C1055 C 0.9331 0.1411 0.83237 0.0
C1056 C 0.89053 0.14578 0.79649 0.0
C1057 C 0.91384 0.14818 0.76572 0.0
C1058 C 0.97787 0.14584 0.77055 0.0
H1059 H 0.17039 0.16279 0.87706 0.0
H1060 H 0.08648 0.16263 0.84897 0.0
H1061 H 0.11804 0.15098 0.88895 0.0
H1062 H 0.02871 0.13489 0.86482 0.0
H1063 H 0.91679 0.13908 0.85662 0.0
H1064 H 0.39716 0.86091 0.81634 0.0
H1065 H 0.28899 0.86013 0.81868 0.0
H1066 H 0.27472 0.9039 0.80575 0.0
H1067 H 0.38336 0.90482 0.80349 0.0
H1068 H 0.23438 0.87502 0.87127 0.0
H1069 H 0.12057 0.88748 0.71397 0.0
H1070 H 0.20122 0.88119 0.73395 0.0
H1071 H 0.18369 0.89859 0.74203 0.0
C1072 C 0.3712 0.8704 0.81406 0.0
C1073 C 0.39876 0.88293 0.80928 0.0
C1074 C 0.3094 0.86992 0.81555 0.0
C1075 C 0.2736 0.88193 0.81197 0.0
C1076 C 0.30134 0.8945 0.80813 0.0
H1077 H 0.87698 0.89683 0.78303 0.0
H1078 H 0.98898 0.8985 0.7891 0.0
C1079 C 0.36344 0.895 0.8069 0.0
C1080 C 0.20666 0.88118 0.81118 0.0
H1081 H 0.05273 0.88489 0.75085 0.0
C1082 C 0.19454 0.87718 0.845 0.0
C1083 C 0.15491 0.884 0.77687 0.0
C1084 C 0.16528 0.88797 0.73946 0.0
C1085 C 0.13192 0.87614 0.84558 0.0
C1086 C 0.07998 0.87881 0.81107 0.0
C1087 C 0.09237 0.88282 0.7773 0.0
C1088 C 1.01235 0.87774 0.80924 0.0
C1089 C 0.12219 0.87252 0.88341 0.0
C1090 C 0.98769 0.86548 0.81844 0.0
C1091 C 0.92338 0.86451 0.81526 0.0
C1092 C 0.88224 0.87573 0.80225 0.0
C1093 C 0.90711 0.88796 0.79301 0.0
C1094 C 0.9713 0.88895 0.79647 0.0
H1095 H 0.16535 0.87473 0.90894 0.0
H1096 H 0.08137 0.87821 0.88684 0.0
H1097 H 0.11208 0.86142 0.88364 0.0
H1098 H 0.01787 0.85657 0.82746 0.0
H1099 H 0.90576 0.85493 0.8225 0.0
H1100 H 0.62958 0.85959 0.22235 0.0
H1101 H 0.73825 0.85887 0.2208 0.0
H1102 H 0.75372 0.90252 0.2367 0.0
H1103 H 0.64466 0.90338 0.2382 0.0
H1104 H 0.79461 0.87426 0.16986 0.0
H1105 H 0.90611 0.88541 0.32812 0.0
H1106 H 0.82534 0.87925 0.30721 0.0
H1107 H 0.84364 0.89673 0.30048 0.0
C1108 C 0.65592 0.86907 0.22545 0.0
C1109 C 0.62857 0.88153 0.23083 0.0
C1110 C 0.718 0.86863 0.22441 0.0
C1111 C 0.75426 0.88061 0.22906 0.0
C1112 C 0.72674 0.89313 0.23351 0.0
H1113 H 0.15231 0.89556 0.26139 0.0
H1114 H 0.04011 0.89723 0.25494 0.0
C1115 C 0.66438 0.8936 0.23429 0.0
C1116 C 0.82143 0.8799 0.2303 0.0
H1117 H 0.97487 0.88324 0.2917 0.0
C1118 C 0.83414 0.87623 0.19644 0.0
C1119 C 0.87278 0.88247 0.26501 0.0
C1120 C 0.86174 0.8861 0.30244 0.0
C1121 C 0.89699 0.87527 0.19623 0.0
C1122 C 0.94853 0.87768 0.23114 0.0
C1123 C 0.93554 0.88137 0.26495 0.0
C1124 C 1.01633 0.87663 0.23338 0.0
C1125 C 0.90741 0.87201 0.15839 0.0
C1126 C 0.04081 0.86446 0.22358 0.0
C1127 C 0.10519 0.86349 0.227 0.0
C1128 C 0.14659 0.87463 0.24083 0.0
C1129 C 0.12194 0.88676 0.25075 0.0
C1130 C 0.05766 0.88775 0.24707 0.0
H1131 H 0.86463 0.87442 0.13281 0.0
H1132 H 0.94862 0.87776 0.15567 0.0
H1133 H 0.91724 0.86092 0.15745 0.0
H1134 H 1.01039 0.85562 0.21386 0.0
H1135 H 0.12262 0.85399 0.2192 0.0
H1136 H 0.16654 0.64537 0.78571 0.0
H1137 H 0.27331 0.64779 0.78191 0.0
H1138 H 0.23595 0.61459 0.69961 0.0
H1139 H 0.12856 0.612 0.70339 0.0
H1140 H 0.36993 0.62463 0.79673 0.0
H1141 H 0.30299 0.64865 0.64975 0.0
H1142 H 0.25197 0.64964 0.67904 0.0
H1143 H 0.25944 0.63385 0.65613 0.0
C1144 C 0.18082 0.63857 0.76672 0.0
C1145 C 0.13906 0.62845 0.74496 0.0
C1146 C 0.24192 0.63997 0.76462 0.0
C1147 C 0.26236 0.63143 0.74033 0.0
C1148 C 0.22086 0.62135 0.71834 0.0
H1149 H 0.62491 0.63465 0.69541 0.0
H1150 H 0.51489 0.62985 0.69105 0.0
C1151 C 0.15973 0.61983 0.72072 0.0
C1152 C 0.32787 0.63297 0.73913 0.0
H1153 H 0.41238 0.64571 0.68416 0.0
C1154 C 0.37931 0.62917 0.77206 0.0
C1155 C 0.33983 0.63876 0.70676 0.0
C1156 C 0.2859 0.64304 0.67082 0.0
C1157 C 0.44256 0.63112 0.7737 0.0
C1158 C 0.45479 0.63749 0.742 0.0
C1159 C 0.40316 0.64095 0.70858 0.0
C1160 C 0.52072 0.64092 0.74353 0.0
C1161 C 0.49557 0.62617 0.80926 0.0
C1162 C 0.56018 0.64908 0.77376 0.0
C1163 C 0.62315 0.65175 0.77651 0.0
C1164 C 0.64792 0.64649 0.7487 0.0
C1165 C 0.60751 0.63881 0.71743 0.0
C1166 C 0.54455 0.63605 0.7149 0.0
H1167 H 0.47913 0.61783 0.82427 0.0
H1168 H 0.53671 0.6224 0.80156 0.0
H1169 H 0.51199 0.63474 0.8302 0.0
H1170 H 0.54242 0.65333 0.79552 0.0
H1171 H 0.65259 0.65784 0.80069 0.0
H1172 H 0.39177 0.61353 0.28672 0.0
H1173 H 0.50319 0.61303 0.29086 0.0
H1174 H 0.52802 0.65427 0.33493 0.0
H1175 H 0.41599 0.65486 0.33107 0.0
H1176 H 0.56023 0.63075 0.25137 0.0
H1177 H 0.68039 0.63322 0.41197 0.0
H1178 H 0.59746 0.62867 0.38985 0.0
H1179 H 0.62165 0.6462 0.39121 0.0
C1180 C 0.42085 0.6225 0.29754 0.0
C1181 C 0.39477 0.63427 0.30835 0.0
C1182 C 0.48463 0.62218 0.29988 0.0
C1183 C 0.52412 0.63356 0.31347 0.0
C1184 C 0.49865 0.6453 0.32483 0.0
H1185 H 0.88241 0.64862 0.27481 0.0
H1186 H 0.77623 0.65029 0.27997 0.0
C1187 C 0.4345 0.64566 0.32231 0.0
C1188 C 0.59084 0.63325 0.31364 0.0
H1189 H 0.74673 0.63405 0.37304 0.0
C1190 C 0.60099 0.6315 0.27797 0.0
C1191 C 0.64394 0.6341 0.34842 0.0
C1192 C 0.63571 0.63554 0.38764 0.0
C1193 C 0.66269 0.63066 0.27606 0.0
C1194 C 0.71584 0.63169 0.31072 0.0
C1195 C 0.70587 0.63333 0.3465 0.0
C1196 C 0.78197 0.63103 0.31002 0.0
C1197 C 0.67063 0.62846 0.237 0.0
C1198 C 0.82106 0.61976 0.32598 0.0
C1199 C 0.88188 0.61873 0.32293 0.0
C1200 C 0.90487 0.62901 0.30414 0.0
C1201 C 0.86618 0.64047 0.28926 0.0
C1202 C 0.80537 0.64145 0.29212 0.0
H1203 H 0.62558 0.6251 0.21447 0.0
H1204 H 0.68575 0.63818 0.22709 0.0
H1205 H 0.70801 0.6207 0.23925 0.0
H1206 H 0.80394 0.61163 0.34003 0.0
H1207 H 0.91067 0.60984 0.33504 0.0
H1208 H 0.39546 0.39552 0.30756 0.0
H1209 H 0.50744 0.39588 0.31248 0.0
H1210 H 0.51784 0.3522 0.32837 0.0
H1211 H 0.40544 0.3517 0.32358 0.0
H1212 H 0.62101 0.38504 0.37565 0.0
H1213 H 0.57432 0.36045 0.23097 0.0
H1214 H 0.51215 0.36854 0.24456 0.0
H1215 H 0.54218 0.35213 0.26429 0.0
C1216 C 0.42144 0.38596 0.3122 0.0
C1217 C 0.39116 0.37355 0.31471 0.0
C1218 C 0.48557 0.38621 0.31514 0.0
C1219 C 0.52072 0.37407 0.32037 0.0
C1220 C 0.49129 0.36168 0.32389 0.0
H1221 H 0.89664 0.35723 0.30866 0.0
H1222 H 0.79131 0.3557 0.31493 0.0
C1223 C 0.42709 0.36142 0.32117 0.0
C1224 C 0.58753 0.37439 0.32084 0.0
H1225 H 0.68074 0.36583 0.26692 0.0
C1226 C 0.63427 0.38082 0.35197 0.0
C1227 C 0.60457 0.36887 0.28992 0.0
C1228 C 0.55582 0.36217 0.25532 0.0
C1229 C 0.69786 0.38176 0.35316 0.0
C1230 C 0.71474 0.37644 0.32185 0.0
C1231 C 0.6679 0.36992 0.2909 0.0
C1232 C 0.78049 0.3775 0.32035 0.0
C1233 C 0.74661 0.38814 0.38835 0.0
C1234 C 0.80978 0.39028 0.32125 0.0
C1235 C 0.87036 0.39119 0.31781 0.0
C1236 C 0.90255 0.37935 0.31291 0.0
C1237 C 0.87322 0.36658 0.31224 0.0
C1238 C 0.8129 0.36567 0.31584 0.0
H1239 H 0.73045 0.3881 0.41403 0.0
H1240 H 0.79285 0.38269 0.39616 0.0
H1241 H 0.7544 0.39893 0.38173 0.0
H1242 H 0.78528 0.39959 0.32381 0.0
H1243 H 0.89153 0.40119 0.31844 0.0
H1244 H 0.62621 0.35291 0.72766 0.0
H1245 H 0.51424 0.35317 0.7238 0.0
H1246 H 0.51231 0.39712 0.71573 0.0
H1247 H 0.62359 0.39697 0.71942 0.0
H1248 H 0.46754 0.36698 0.77774 0.0
H1249 H 0.34923 0.38572 0.6268 0.0
H1250 H 0.42851 0.37859 0.64316 0.0
H1251 H 0.41578 0.39587 0.65536 0.0
C1252 C 0.60177 0.36262 0.72472 0.0
C1253 C 0.63407 0.37492 0.72415 0.0
C1254 C 0.53779 0.36275 0.72249 0.0
C1255 C 0.50472 0.37516 0.7191 0.0
C1256 C 0.53648 0.38741 0.71768 0.0
H1257 H 0.13641 0.40183 0.7244 0.0
H1258 H 0.24239 0.39998 0.71859 0.0
C1259 C 0.60037 0.3873 0.72011 0.0
C1260 C 0.43855 0.37544 0.71991 0.0
H1261 H 0.28675 0.38559 0.66836 0.0
C1262 C 0.42784 0.37091 0.75369 0.0
C1263 C 0.38699 0.38074 0.68867 0.0
C1264 C 0.39533 0.38541 0.65127 0.0
C1265 C 0.36737 0.37183 0.75751 0.0
C1266 C 0.31566 0.3771 0.72624 0.0
C1267 C 0.3263 0.38155 0.69231 0.0
C1268 C 0.25034 0.37813 0.72835 0.0
C1269 C 0.36005 0.36757 0.79557 0.0
C1270 C 0.21883 0.36644 0.73483 0.0
C1271 C 0.15857 0.36748 0.73845 0.0
C1272 C 0.12809 0.38023 0.73525 0.0
C1273 C 0.15878 0.39188 0.72744 0.0
C1274 C 0.2193 0.39083 0.72398 0.0
H1275 H 0.4065 0.36754 0.81979 0.0
H1276 H 0.32694 0.37448 0.80355 0.0
H1277 H 0.34042 0.35706 0.79265 0.0
H1278 H 0.24096 0.35648 0.73723 0.0
H1279 H 0.13604 0.35827 0.74393 0.0
loop_
_geom_bond_atom_site_label_1
_geom_bond_atom_site_label_2
_geom_bond_distance
_geom_bond_site_symmetry_2
_ccdc_geom_bond_type
Zn0 N4 2.020 . S
Zn0 O8 2.019 . S
Zn0 N10 2.119 . S
Zn0 O18 1.975 . S
C1 N2 1.334 . S
C1 N5 1.336 . S
N2 C1 1.334 . S
N2 C3 1.334 . S
C3 N2 1.334 . S
C3 N4 1.336 . S
N4 Zn0 2.020 . S
N4 C3 1.336 . S
N4 N5 1.354 . S
N5 C1 1.336 . S
N5 N4 1.354 . S
N5 Zn9 2.020 . S
C6 O7 1.244 . S
C6 O30 1.257 . S
O7 C6 1.244 . S
O8 Zn0 2.019 . S
O8 C28 1.257 . S
Zn9 N5 2.020 . S
Zn9 O16 1.975 . S
Zn9 N25 2.119 . S
Zn9 O30 2.019 . S
N10 Zn0 2.119 . S
N10 C12 1.334 . S
N10 C13 1.328 . S
C11 C12 1.391 . S
C11 N14 1.329 . S
C11 H32 0.930 . S
C12 N10 1.334 . S
C12 C11 1.391 . S
C12 H19 0.930 . S
C13 N10 1.328 . S
C13 C15 1.392 . S
C13 H20 0.930 . S
N14 C11 1.329 . S
N14 C15 1.331 . S
C15 C13 1.392 . S
C15 N14 1.331 . S
O16 Zn9 1.975 . S
O16 C17 1.252 . S
C17 O16 1.252 . S
C17 O18 1.252 . S
O18 Zn0 1.975 . S
O18 C17 1.252 . S
H19 C12 0.930 . S
H20 C13 0.930 . S
C21 C22 1.392 . S
C21 N25 1.328 . S
C21 H27 0.930 . S
C22 C21 1.392 . S
C22 N26 1.331 . S
C23 C24 1.391 . S
C23 N26 1.329 . S
C23 H33 0.930 . S
C24 C23 1.391 . S
C24 N25 1.334 . S
C24 H31 0.930 . S
N25 Zn9 2.119 . S
N25 C21 1.328 . S
N25 C24 1.334 . S
N26 C22 1.331 . S
N26 C23 1.329 . S
H27 C21 0.930 . S
C28 O8 1.257 . S
C28 O29 1.244 . S
O29 C28 1.244 . S
O30 C6 1.257 . S
O30 Zn9 2.019 . S
H31 C24 0.930 . S
H32 C11 0.930 . S
H33 C23 0.930 . S
Zn34 N38 2.020 . S
Zn34 O42 2.019 . S
Zn34 N44 2.119 . S
Zn34 O52 1.975 . S
C35 N36 1.334 . S
C35 N39 1.336 . S
N36 C35 1.334 . S
N36 C37 1.334 . S
C37 N36 1.334 . S
C37 N38 1.336 . S
N38 Zn34 2.020 . S
N38 C37 1.336 . S
N38 N39 1.354 . S
N39 C35 1.336 . S
N39 N38 1.354 . S
N39 Zn43 2.020 . S
C40 O41 1.244 . S
C40 O64 1.257 . S
O41 C40 1.244 . S
O42 Zn34 2.019 . S
O42 C62 1.257 . S
Zn43 N39 2.020 . S
Zn43 O50 1.975 . S
Zn43 N59 2.119 . S
Zn43 O64 2.019 . S
N44 Zn34 2.119 . S
N44 C46 1.334 . S
N44 C47 1.328 . S
C45 C46 1.391 . S
C45 N48 1.329 . S
C45 H66 0.930 . S
C46 N44 1.334 . S
C46 C45 1.391 . S
C46 H53 0.930 . S
C47 N44 1.328 . S
C47 C49 1.392 . S
C47 H54 0.930 . S
N48 C45 1.329 . S
N48 C49 1.331 . S
C49 C47 1.392 . S
C49 N48 1.331 . S
O50 Zn43 1.975 . S
O50 C51 1.252 . S
C51 O50 1.252 . S
C51 O52 1.252 . S
O52 Zn34 1.975 . S
O52 C51 1.252 . S
H53 C46 0.930 . S
H54 C47 0.930 . S
C55 C56 1.392 . S
C55 N59 1.328 . S
C55 H61 0.930 . S
C56 C55 1.392 . S
C56 N60 1.331 . S
C57 C58 1.391 . S
C57 N60 1.329 . S
C57 H67 0.930 . S
C58 C57 1.391 . S
C58 N59 1.334 . S
C58 H65 0.930 . S
N59 Zn43 2.119 . S
N59 C55 1.328 . S
N59 C58 1.334 . S
N60 C56 1.331 . S
N60 C57 1.329 . S
H61 C55 0.930 . S
C62 O42 1.257 . S
C62 O63 1.244 . S
O63 C62 1.244 . S
O64 C40 1.257 . S
O64 Zn43 2.019 . S
H65 C58 0.930 . S
H66 C45 0.930 . S
H67 C57 0.930 . S
Zn68 N72 2.020 . S
Zn68 O76 2.019 . S
Zn68 N78 2.119 . S
Zn68 O86 1.975 . S
C69 N70 1.334 . S
C69 N73 1.336 . S
N70 C69 1.334 . S
N70 C71 1.334 . S
C71 N70 1.334 . S
C71 N72 1.336 . S
N72 Zn68 2.020 . S
N72 C71 1.336 . S
N72 N73 1.354 . S
N73 C69 1.336 . S
N73 N72 1.354 . S
N73 Zn77 2.020 . S
C74 O75 1.244 . S
C74 O98 1.257 . S
O75 C74 1.244 . S
O76 Zn68 2.019 . S
O76 C96 1.257 . S
Zn77 N73 2.020 . S
Zn77 O84 1.975 . S
Zn77 N93 2.119 . S
Zn77 O98 2.019 . S
N78 Zn68 2.119 . S
N78 C80 1.334 . S
N78 C81 1.328 . S
C79 C80 1.391 . S
C79 N82 1.329 . S
C79 H100 0.930 . S
C80 N78 1.334 . S
C80 C79 1.391 . S
C80 H87 0.930 . S
C81 N78 1.328 . S
C81 C83 1.392 . S
C81 H88 0.930 . S
N82 C79 1.329 . S
N82 C83 1.331 . S
C83 C81 1.392 . S
C83 N82 1.331 . S
O84 Zn77 1.975 . S
O84 C85 1.252 . S
C85 O84 1.252 . S
C85 O86 1.252 . S
O86 Zn68 1.975 . S
O86 C85 1.252 . S
H87 C80 0.930 . S
H88 C81 0.930 . S
C89 C90 1.392 . S
C89 N93 1.328 . S
C89 H95 0.930 . S
C90 C89 1.392 . S
C90 N94 1.331 . S
C91 C92 1.391 . S
C91 N94 1.329 . S
C91 H101 0.930 . S
C92 C91 1.391 . S
C92 N93 1.334 . S
C92 H99 0.930 . S
N93 Zn77 2.119 . S
N93 C89 1.328 . S
N93 C92 1.334 . S
N94 C90 1.331 . S
N94 C91 1.329 . S
H95 C89 0.930 . S
C96 O76 1.257 . S
C96 O97 1.244 . S
O97 C96 1.244 . S
O98 C74 1.257 . S
O98 Zn77 2.019 . S
H99 C92 0.930 . S
H100 C79 0.930 . S
H101 C91 0.930 . S
Zn102 N106 2.020 . S
Zn102 O110 2.019 . S
Zn102 N112 2.119 . S
Zn102 O120 1.975 . S
C103 N104 1.334 . S
C103 N107 1.336 . S
N104 C103 1.334 . S
N104 C105 1.334 . S
C105 N104 1.334 . S
C105 N106 1.336 . S
N106 Zn102 2.020 . S
N106 C105 1.336 . S
N106 N107 1.354 . S
N107 C103 1.336 . S
N107 N106 1.354 . S
N107 Zn111 2.020 . S
C108 O109 1.244 . S
C108 O132 1.257 . S
O109 C108 1.244 . S
O110 Zn102 2.019 . S
O110 C130 1.257 . S
Zn111 N107 2.020 . S
Zn111 O118 1.975 . S
Zn111 N127 2.119 . S
Zn111 O132 2.019 . S
N112 Zn102 2.119 . S
N112 C114 1.334 . S
N112 C115 1.328 . S
C113 C114 1.391 . S
C113 N116 1.329 . S
C113 H134 0.930 . S
C114 N112 1.334 . S
C114 C113 1.391 . S
C114 H121 0.930 . S
C115 N112 1.328 . S
C115 C117 1.392 . S
C115 H122 0.930 . S
N116 C113 1.329 . S
N116 C117 1.331 . S
C117 C115 1.392 . S
C117 N116 1.331 . S
O118 Zn111 1.975 . S
O118 C119 1.252 . S
C119 O118 1.252 . S
C119 O120 1.252 . S
O120 Zn102 1.975 . S
O120 C119 1.252 . S
H121 C114 0.930 . S
H122 C115 0.930 . S
C123 C124 1.392 . S
C123 N127 1.328 . S
C123 H129 0.930 . S
C124 C123 1.392 . S
C124 N128 1.331 . S
C125 C126 1.391 . S
C125 N128 1.329 . S
C125 H135 0.930 . S
C126 C125 1.391 . S
C126 N127 1.334 . S
C126 H133 0.930 . S
N127 Zn111 2.119 . S
N127 C123 1.328 . S
N127 C126 1.334 . S
N128 C124 1.331 . S
N128 C125 1.329 . S
H129 C123 0.930 . S
C130 O110 1.257 . S
C130 O131 1.244 . S
O131 C130 1.244 . S
O132 C108 1.257 . S
O132 Zn111 2.019 . S
H133 C126 0.930 . S
H134 C113 0.930 . S
H135 C125 0.930 . S
Zn136 N140 2.020 . S
Zn136 O144 2.019 . S
Zn136 N146 2.119 . S
Zn136 O154 1.975 . S
C137 N138 1.334 . S
C137 N141 1.336 . S
N138 C137 1.334 . S
N138 C139 1.334 . S
C139 N138 1.334 . S
C139 N140 1.336 . S
N140 Zn136 2.020 . S
N140 C139 1.336 . S
N140 N141 1.354 . S
N141 C137 1.336 . S
N141 N140 1.354 . S
N141 Zn145 2.020 . S
C142 O143 1.244 . S
C142 O166 1.257 . S
O143 C142 1.244 . S
O144 Zn136 2.019 . S
O144 C164 1.257 . S
Zn145 N141 2.020 . S
Zn145 O152 1.975 . S
Zn145 N161 2.119 . S
Zn145 O166 2.019 1_655 S
N146 Zn136 2.119 . S
N146 C148 1.334 . S
N146 C149 1.328 . S
C147 C148 1.391 . S
C147 N150 1.329 . S
C147 H168 0.930 . S
C148 N146 1.334 . S
C148 C147 1.391 . S
C148 H155 0.930 . S
C149 N146 1.328 . S
C149 C151 1.392 . S
C149 H156 0.930 . S
N150 C147 1.329 . S
N150 C151 1.331 . S
C151 C149 1.392 . S
C151 N150 1.331 . S
O152 Zn145 1.975 . S
O152 C153 1.252 . S
C153 O152 1.252 . S
C153 O154 1.252 . S
O154 Zn136 1.975 . S
O154 C153 1.252 . S
H155 C148 0.930 . S
H156 C149 0.930 . S
C157 C158 1.392 . S
C157 N161 1.328 . S
C157 H163 0.930 1_655 S
C158 C157 1.392 . S
C158 N162 1.331 . S
C159 C160 1.391 . S
C159 N162 1.329 . S
C159 H169 0.930 . S
C160 C159 1.391 . S
C160 N161 1.334 . S
C160 H167 0.930 . S
N161 Zn145 2.119 . S
N161 C157 1.328 . S
N161 C160 1.334 . S
N162 C158 1.331 . S
N162 C159 1.329 . S
H163 C157 0.930 1_455 S
C164 O144 1.257 . S
C164 O165 1.244 . S
O165 C164 1.244 . S
O166 C142 1.257 . S
O166 Zn145 2.019 1_455 S
H167 C160 0.930 . S
H168 C147 0.930 . S
H169 C159 0.930 . S
Zn170 N174 2.020 . S
Zn170 O178 2.019 . S
Zn170 N180 2.119 . S
Zn170 O188 1.975 . S
C171 N172 1.334 . S
C171 N175 1.336 . S
N172 C171 1.334 . S
N172 C173 1.334 . S
C173 N172 1.334 . S
C173 N174 1.336 . S
N174 Zn170 2.020 . S
N174 C173 1.336 . S
N174 N175 1.354 . S
N175 C171 1.336 . S
N175 N174 1.354 . S
N175 Zn179 2.020 . S
C176 O177 1.244 . S
C176 O200 1.257 . S
O177 C176 1.244 . S
O178 Zn170 2.019 . S
O178 C198 1.257 . S
Zn179 N175 2.020 . S
Zn179 O186 1.975 . S
Zn179 N195 2.119 . S
Zn179 O200 2.019 1_455 S
N180 Zn170 2.119 . S
N180 C182 1.334 . S
N180 C183 1.328 . S
C181 C182 1.391 . S
C181 N184 1.329 . S
C181 H202 0.930 . S
C182 N180 1.334 . S
C182 C181 1.391 . S
C182 H189 0.930 . S
C183 N180 1.328 . S
C183 C185 1.392 . S
C183 H190 0.930 . S
N184 C181 1.329 . S
N184 C185 1.331 . S
C185 C183 1.392 . S
C185 N184 1.331 . S
O186 Zn179 1.975 . S
O186 C187 1.252 . S
C187 O186 1.252 . S
C187 O188 1.252 . S
O188 Zn170 1.975 . S
O188 C187 1.252 . S
H189 C182 0.930 . S
H190 C183 0.930 . S
C191 C192 1.392 . S
C191 N195 1.328 . S
C191 H197 0.930 1_455 S
C192 C191 1.392 . S
C192 N196 1.331 . S
C193 C194 1.391 . S
C193 N196 1.329 . S
C193 H203 0.930 . S
C194 C193 1.391 . S
C194 N195 1.334 . S
C194 H201 0.930 . S
N195 Zn179 2.119 . S
N195 C191 1.328 . S
N195 C194 1.334 . S
N196 C192 1.331 . S
N196 C193 1.329 . S
H197 C191 0.930 1_655 S
C198 O178 1.257 . S
C198 O199 1.244 . S
O199 C198 1.244 . S
O200 C176 1.257 . S
O200 Zn179 2.019 1_655 S
H201 C194 0.930 . S
H202 C181 0.930 . S
H203 C193 0.930 . S
Zn204 N208 2.020 . S
Zn204 O212 2.019 1_455 S
Zn204 N214 2.119 . S
Zn204 O222 1.975 . S
C205 N206 1.334 . S
C205 N209 1.336 . S
N206 C205 1.334 . S
N206 C207 1.334 . S
C207 N206 1.334 . S
C207 N208 1.336 . S
N208 Zn204 2.020 . S
N208 C207 1.336 . S
N208 N209 1.354 . S
N209 C205 1.336 . S
N209 N208 1.354 . S
N209 Zn213 2.020 . S
C210 O211 1.244 . S
C210 O234 1.257 . S
O211 C210 1.244 . S
O212 Zn204 2.019 1_655 S
O212 C232 1.257 . S
Zn213 N209 2.020 . S
Zn213 O220 1.975 . S
Zn213 N229 2.119 . S
Zn213 O234 2.019 . S
N214 Zn204 2.119 . S
N214 C216 1.334 . S
N214 C217 1.328 . S
C215 C216 1.391 . S
C215 N218 1.329 . S
C215 H236 0.930 . S
C216 N214 1.334 . S
C216 C215 1.391 . S
C216 H223 0.930 . S
C217 N214 1.328 . S
C217 C219 1.392 . S
C217 H224 0.930 1_455 S
N218 C215 1.329 . S
N218 C219 1.331 . S
C219 C217 1.392 . S
C219 N218 1.331 . S
O220 Zn213 1.975 . S
O220 C221 1.252 . S
C221 O220 1.252 . S
C221 O222 1.252 . S
O222 Zn204 1.975 . S
O222 C221 1.252 . S
H223 C216 0.930 . S
H224 C217 0.930 1_655 S
C225 C226 1.392 . S
C225 N229 1.328 . S
C225 H231 0.930 . S
C226 C225 1.392 . S
C226 N230 1.331 . S
C227 C228 1.391 . S
C227 N230 1.329 . S
C227 H237 0.930 . S
C228 C227 1.391 . S
C228 N229 1.334 . S
C228 H235 0.930 . S
N229 Zn213 2.119 . S
N229 C225 1.328 . S
N229 C228 1.334 . S
N230 C226 1.331 . S
N230 C227 1.329 . S
H231 C225 0.930 . S
C232 O212 1.257 . S
C232 O233 1.244 . S
O233 C232 1.244 . S
O234 C210 1.257 . S
O234 Zn213 2.019 . S
H235 C228 0.930 . S
H236 C215 0.930 . S
H237 C227 0.930 . S
Zn238 N242 2.020 . S
Zn238 O246 2.019 . S
Zn238 N248 2.119 . S
Zn238 O256 1.975 . S
C239 N240 1.334 . S
C239 N243 1.336 . S
N240 C239 1.334 . S
N240 C241 1.334 . S
C241 N240 1.334 . S
C241 N242 1.336 . S
N242 Zn238 2.020 . S
N242 C241 1.336 . S
N242 N243 1.354 . S
N243 C239 1.336 . S
N243 N242 1.354 . S
N243 Zn247 2.020 . S
C244 O245 1.244 . S
C244 O268 1.257 . S
O245 C244 1.244 . S
O246 Zn238 2.019 . S
O246 C266 1.257 . S
Zn247 N243 2.020 . S
Zn247 O254 1.975 . S
Zn247 N263 2.119 . S
Zn247 O268 2.019 1_655 S
N248 Zn238 2.119 . S
N248 C250 1.334 . S
N248 C251 1.328 . S
C249 C250 1.391 . S
C249 N252 1.329 . S
C249 H270 0.930 . S
C250 N248 1.334 . S
C250 C249 1.391 . S
C250 H257 0.930 . S
C251 N248 1.328 . S
C251 C253 1.392 . S
C251 H258 0.930 . S
N252 C249 1.329 . S
N252 C253 1.331 . S
C253 C251 1.392 . S
C253 N252 1.331 . S
O254 Zn247 1.975 . S
O254 C255 1.252 . S
C255 O254 1.252 . S
C255 O256 1.252 . S
O256 Zn238 1.975 . S
O256 C255 1.252 . S
H257 C250 0.930 . S
H258 C251 0.930 . S
C259 C260 1.392 . S
C259 N263 1.328 . S
C259 H265 0.930 1_655 S
C260 C259 1.392 . S
C260 N264 1.331 . S
C261 C262 1.391 . S
C261 N264 1.329 . S
C261 H271 0.930 . S
C262 C261 1.391 . S
C262 N263 1.334 . S
C262 H269 0.930 . S
N263 Zn247 2.119 . S
N263 C259 1.328 . S
N263 C262 1.334 . S
N264 C260 1.331 . S
N264 C261 1.329 . S
H265 C259 0.930 1_455 S
C266 O246 1.257 . S
C266 O267 1.244 . S
O267 C266 1.244 . S
O268 C244 1.257 . S
O268 Zn247 2.019 1_455 S
H269 C262 0.930 . S
H270 C249 0.930 . S
H271 C261 0.930 . S
H272 C280 0.929 . S
H273 C282 0.930 . S
H274 C284 0.930 . S
H275 C287 0.929 . S
H276 C290 0.930 . S
H277 C292 0.960 . S
H278 C292 0.960 . S
H279 C292 0.960 . S
C280 H272 0.929 . S
C280 C281 1.377 . S
C280 C282 1.384 . S
C281 C280 1.377 . S
C281 C287 1.390 . S
C282 H273 0.930 . S
C282 C280 1.384 . S
C282 C283 1.372 . S
C283 C282 1.372 . S
C283 C284 1.400 . S
C283 C288 1.490 . S
C284 H274 0.930 . S
C284 C283 1.400 . S
C284 C287 1.386 . S
H285 C301 0.930 . S
H286 C302 0.931 . S
C287 H275 0.929 . S
C287 C281 1.390 . S
C287 C284 1.386 . S
C288 C283 1.490 . S
C288 C290 1.395 . S
C288 C291 1.403 . S
H289 C295 0.930 . S
C290 H276 0.930 . S
C290 C288 1.395 . S
C290 C293 1.403 . S
C291 C288 1.403 . S
C291 C292 1.524 . S
C291 C295 1.400 . S
C292 H277 0.960 . S
C292 H278 0.960 . S
C292 H279 0.960 . S
C292 C291 1.524 . S
C293 C290 1.403 . S
C293 C294 1.392 . S
C293 C297 1.495 . S
C294 C293 1.392 . S
C294 C295 1.385 . S
C294 C296 1.478 . S
C295 H289 0.930 . S
C295 C291 1.400 . S
C295 C294 1.385 . S
C296 C294 1.478 . S
C296 C298 1.381 . S
C296 C302 1.383 . S
C297 C293 1.495 . S
C297 H303 0.959 . S
C297 H304 0.961 . S
C297 H305 0.960 . S
C298 C296 1.381 . S
C298 C299 1.394 . S
C298 H306 0.930 . S
C299 C298 1.394 . S
C299 C300 1.383 . S
C299 H307 0.929 . S
C300 C299 1.383 . S
C300 C301 1.377 . S
C301 H285 0.930 . S
C301 C300 1.377 . S
C301 C302 1.379 . S
C302 H286 0.931 . S
C302 C296 1.383 . S
C302 C301 1.379 . S
H303 C297 0.959 . S
H304 C297 0.961 . S
H305 C297 0.960 . S
H306 C298 0.930 . S
H307 C299 0.929 . S
H308 C316 0.929 . S
H309 C318 0.930 . S
H310 C320 0.930 . S
H311 C323 0.929 . S
H312 C326 0.930 . S
H313 C328 0.960 . S
H314 C328 0.960 . S
H315 C328 0.960 . S
C316 H308 0.929 . S
C316 C317 1.377 . S
C316 C318 1.384 . S
C317 C316 1.377 . S
C317 C323 1.390 . S
C318 H309 0.930 . S
C318 C316 1.384 . S
C318 C319 1.372 . S
C319 C318 1.372 . S
C319 C320 1.400 . S
C319 C324 1.490 . S
C320 H310 0.930 . S
C320 C319 1.400 . S
C320 C323 1.386 . S
H321 C337 0.930 . S
H322 C338 0.931 . S
C323 H311 0.929 . S
C323 C317 1.390 . S
C323 C320 1.386 . S
C324 C319 1.490 . S
C324 C326 1.395 . S
C324 C327 1.403 . S
H325 C331 0.930 . S
C326 H312 0.930 . S
C326 C324 1.395 . S
C326 C329 1.403 . S
C327 C324 1.403 . S
C327 C328 1.524 . S
C327 C331 1.400 . S
C328 H313 0.960 . S
C328 H314 0.960 . S
C328 H315 0.960 . S
C328 C327 1.524 . S
C329 C326 1.403 . S
C329 C330 1.392 . S
C329 C333 1.495 . S
C330 C329 1.392 . S
C330 C331 1.385 . S
C330 C332 1.478 . S
C331 H325 0.930 . S
C331 C327 1.400 . S
C331 C330 1.385 . S
C332 C330 1.478 . S
C332 C334 1.381 . S
C332 C338 1.383 . S
C333 C329 1.495 . S
C333 H339 0.959 . S
C333 H340 0.961 . S
C333 H341 0.960 . S
C334 C332 1.381 . S
C334 C335 1.394 . S
C334 H342 0.930 . S
C335 C334 1.394 . S
C335 C336 1.383 . S
C335 H343 0.929 . S
C336 C335 1.383 . S
C336 C337 1.377 . S
C337 H321 0.930 . S
C337 C336 1.377 . S
C337 C338 1.379 . S
C338 H322 0.931 . S
C338 C332 1.383 . S
C338 C337 1.379 . S
H339 C333 0.959 . S
H340 C333 0.961 . S
H341 C333 0.960 . S
H342 C334 0.930 . S
H343 C335 0.929 . S
H344 C352 0.929 . S
H345 C354 0.930 . S
H346 C356 0.930 . S
H347 C359 0.929 . S
H348 C362 0.930 . S
H349 C364 0.960 . S
H350 C364 0.960 . S
H351 C364 0.960 . S
C352 H344 0.929 . S
C352 C353 1.377 . S
C352 C354 1.384 . S
C353 C352 1.377 . S
C353 C359 1.390 . S
C354 H345 0.930 . S
C354 C352 1.384 . S
C354 C355 1.372 . S
C355 C354 1.372 . S
C355 C356 1.400 . S
C355 C360 1.490 . S
C356 H346 0.930 . S
C356 C355 1.400 . S
C356 C359 1.386 . S
H357 C373 0.930 . S
H358 C374 0.931 . S
C359 H347 0.929 . S
C359 C353 1.390 . S
C359 C356 1.386 . S
C360 C355 1.490 . S
C360 C362 1.395 1_655 S
C360 C363 1.403 . S
H361 C367 0.930 . S
C362 H348 0.930 . S
C362 C360 1.395 1_455 S
C362 C365 1.403 1_556 S
C363 C360 1.403 . S
C363 C364 1.524 . S
C363 C367 1.400 1_556 S
C364 H349 0.960 . S
C364 H350 0.960 . S
C364 H351 0.960 . S
C364 C363 1.524 . S
C365 C362 1.403 1_554 S
C365 C366 1.392 . S
C365 C369 1.495 . S
C366 C365 1.392 . S
C366 C367 1.385 1_455 S
C366 C368 1.478 . S
C367 H361 0.930 . S
C367 C363 1.400 1_554 S
C367 C366 1.385 1_655 S
C368 C366 1.478 . S
C368 C370 1.381 . S
C368 C374 1.383 . S
C369 C365 1.495 . S
C369 H375 0.959 . S
C369 H376 0.961 . S
C369 H377 0.960 . S
C370 C368 1.381 . S
C370 C371 1.394 . S
C370 H378 0.930 . S
C371 C370 1.394 . S
C371 C372 1.383 . S
C371 H379 0.929 . S
C372 C371 1.383 . S
C372 C373 1.377 . S
C373 H357 0.930 . S
C373 C372 1.377 . S
C373 C374 1.379 . S
C374 H358 0.931 . S
C374 C368 1.383 . S
C374 C373 1.379 . S
H375 C369 0.959 . S
H376 C369 0.961 . S
H377 C369 0.960 . S
H378 C370 0.930 . S
H379 C371 0.929 . S
H380 C388 0.929 . S
H381 C390 0.930 . S
H382 C392 0.930 . S
H383 C395 0.929 1_455 S
H384 C398 0.930 . S
H385 C400 0.960 . S
H386 C400 0.960 . S
H387 C400 0.960 . S
C388 H380 0.929 . S
C388 C389 1.377 . S
C388 C390 1.384 . S
C389 C388 1.377 . S
C389 C395 1.390 . S
C390 H381 0.930 . S
C390 C388 1.384 . S
C390 C391 1.372 . S
C391 C390 1.372 . S
C391 C392 1.400 1_655 S
C391 C396 1.490 . S
C392 H382 0.930 . S
C392 C391 1.400 1_455 S
C392 C395 1.386 1_455 S
H393 C409 0.930 . S
H394 C410 0.931 . S
C395 H383 0.929 1_655 S
C395 C389 1.390 . S
C395 C392 1.386 1_655 S
C396 C391 1.490 . S
C396 C398 1.395 . S
C396 C399 1.403 1_655 S
H397 C403 0.930 . S
C398 H384 0.930 . S
C398 C396 1.395 . S
C398 C401 1.403 1_556 S
C399 C396 1.403 1_455 S
C399 C400 1.524 . S
C399 C403 1.400 1_556 S
C400 H385 0.960 . S
C400 H386 0.960 . S
C400 H387 0.960 . S
C400 C399 1.524 . S
C401 C398 1.403 1_554 S
C401 C402 1.395 . S
C401 C405 1.495 . S
C402 C401 1.395 . S
C402 C403 1.381 1_655 S
C402 C404 1.478 1_655 S
C403 H397 0.930 . S
C403 C399 1.400 1_554 S
C403 C402 1.381 1_455 S
C404 C402 1.478 1_455 S
C404 C406 1.381 1_455 S
C404 C410 1.383 . S
C405 C401 1.495 . S
C405 H411 0.959 . S
C405 H412 0.961 . S
C405 H413 0.960 . S
C406 C404 1.381 1_655 S
C406 C407 1.395 1_655 S
C406 H414 0.930 . S
C407 C406 1.395 1_455 S
C407 C408 1.390 . S
C407 H415 0.922 1_455 S
C408 C407 1.390 . S
C408 C409 1.377 . S
C409 H393 0.930 . S
C409 C408 1.377 . S
C409 C410 1.379 . S
C410 H394 0.931 . S
C410 C404 1.383 . S
C410 C409 1.379 . S
H411 C405 0.959 . S
H412 C405 0.961 . S
H413 C405 0.960 . S
H414 C406 0.930 . S
H415 C407 0.922 1_655 S
H416 C424 0.929 . S
H417 C426 0.930 . S
H418 C428 0.930 . S
H419 C431 0.929 . S
H420 C434 0.930 . S
H421 C436 0.960 . S
H422 C436 0.960 . S
H423 C436 0.960 . S
C424 H416 0.929 . S
C424 C425 1.377 . S
C424 C426 1.384 . S
C425 C424 1.377 . S
C425 C431 1.390 . S
C426 H417 0.930 . S
C426 C424 1.384 . S
C426 C427 1.372 . S
C427 C426 1.372 . S
C427 C428 1.400 . S
C427 C432 1.490 . S
C428 H418 0.930 . S
C428 C427 1.400 . S
C428 C431 1.386 . S
H429 C445 0.930 . S
H430 C446 0.931 . S
C431 H419 0.929 . S
C431 C425 1.390 . S
C431 C428 1.386 . S
C432 C427 1.490 . S
C432 C434 1.395 . S
C432 C435 1.403 . S
H433 C439 0.930 . S
C434 H420 0.930 . S
C434 C432 1.395 . S
C434 C437 1.403 1_565 S
C435 C432 1.403 . S
C435 C436 1.524 . S
C435 C439 1.400 1_565 S
C436 H421 0.960 . S
C436 H422 0.960 . S
C436 H423 0.960 . S
C436 C435 1.524 . S
C437 C434 1.403 1_545 S
C437 C438 1.392 . S
C437 C441 1.495 . S
C438 C437 1.392 . S
C438 C439 1.385 . S
C438 C440 1.478 . S
C439 H433 0.930 . S
C439 C435 1.400 1_545 S
C439 C438 1.385 . S
C440 C438 1.478 . S
C440 C442 1.381 . S
C440 C446 1.383 . S
C441 C437 1.495 . S
C441 H447 0.959 . S
C441 H448 0.961 . S
C441 H449 0.960 . S
C442 C440 1.381 . S
C442 C443 1.394 . S
C442 H450 0.930 . S
C443 C442 1.394 . S
C443 C444 1.383 . S
C443 H451 0.929 . S
C444 C443 1.383 . S
C444 C445 1.377 . S
C445 H429 0.930 . S
C445 C444 1.377 . S
C445 C446 1.379 . S
C446 H430 0.931 . S
C446 C440 1.383 . S
C446 C445 1.379 . S
H447 C441 0.959 . S
H448 C441 0.961 . S
H449 C441 0.960 . S
H450 C442 0.930 . S
H451 C443 0.929 . S
H452 C460 0.929 . S
H453 C462 0.930 . S
H454 C464 0.930 . S
H455 C467 0.929 . S
H456 C470 0.930 . S
H457 C472 0.960 . S
H458 C472 0.960 . S
H459 C472 0.960 . S
C460 H452 0.929 . S
C460 C461 1.377 . S
C460 C462 1.384 . S
C461 C460 1.377 . S
C461 C467 1.390 . S
C462 H453 0.930 . S
C462 C460 1.384 . S
C462 C463 1.372 . S
C463 C462 1.372 . S
C463 C464 1.400 . S
C463 C468 1.490 . S
C464 H454 0.930 . S
C464 C463 1.400 . S
C464 C467 1.386 . S
H465 C481 0.930 . S
H466 C482 0.931 . S
C467 H455 0.929 . S
C467 C461 1.390 . S
C467 C464 1.386 . S
C468 C463 1.490 . S
C468 C470 1.395 . S
C468 C471 1.403 . S
H469 C475 0.930 . S
C470 H456 0.930 . S
C470 C468 1.395 . S
C470 C473 1.403 1_565 S
C471 C468 1.403 . S
C471 C472 1.524 . S
C471 C475 1.400 1_565 S
C472 H457 0.960 . S
C472 H458 0.960 . S
C472 H459 0.960 . S
C472 C471 1.524 . S
C473 C470 1.403 1_545 S
C473 C474 1.392 . S
C473 C477 1.495 . S
C474 C473 1.392 . S
C474 C475 1.385 . S
C474 C476 1.478 . S
C475 H469 0.930 . S
C475 C471 1.400 1_545 S
C475 C474 1.385 . S
C476 C474 1.478 . S
C476 C478 1.381 . S
C476 C482 1.383 . S
C477 C473 1.495 . S
C477 H483 0.959 . S
C477 H484 0.961 . S
C477 H485 0.960 . S
C478 C476 1.381 . S
C478 C479 1.394 . S
C478 H486 0.930 . S
C479 C478 1.394 . S
C479 C480 1.383 . S
C479 H487 0.929 . S
C480 C479 1.383 . S
C480 C481 1.377 . S
C481 H465 0.930 . S
C481 C480 1.377 . S
C481 C482 1.379 . S
C482 H466 0.931 . S
C482 C476 1.383 . S
C482 C481 1.379 . S
H483 C477 0.959 . S
H484 C477 0.961 . S
H485 C477 0.960 . S
H486 C478 0.930 . S
H487 C479 0.929 . S
H488 C496 0.929 . S
H489 C498 0.930 . S
H490 C500 0.930 . S
H491 C503 0.929 . S
H492 C506 0.930 . S
H493 C508 0.960 . S
H494 C508 0.960 . S
H495 C508 0.960 . S
C496 H488 0.929 . S
C496 C497 1.377 . S
C496 C498 1.384 . S
C497 C496 1.377 . S
C497 C503 1.390 1_455 S
C498 H489 0.930 . S
C498 C496 1.384 . S
C498 C499 1.372 . S
C499 C498 1.372 . S
C499 C500 1.400 1_455 S
C499 C504 1.490 . S
C500 H490 0.930 . S
C500 C499 1.400 1_655 S
C500 C503 1.386 . S
H501 C517 0.930 . S
H502 C518 0.931 . S
C503 H491 0.929 . S
C503 C497 1.390 1_655 S
C503 C500 1.386 . S
C504 C499 1.490 . S
C504 C506 1.395 1_455 S
C504 C507 1.403 . S
H505 C511 0.930 . S
C506 H492 0.930 . S
C506 C504 1.395 1_655 S
C506 C509 1.403 . S
C507 C504 1.403 . S
C507 C508 1.524 . S
C507 C511 1.400 . S
C508 H493 0.960 . S
C508 H494 0.960 . S
C508 H495 0.960 . S
C508 C507 1.524 . S
C509 C506 1.403 . S
C509 C510 1.392 . S
C509 C513 1.495 . S
C510 C509 1.392 . S
C510 C511 1.385 1_655 S
C510 C512 1.478 . S
C511 H505 0.930 . S
C511 C507 1.400 . S
C511 C510 1.385 1_455 S
C512 C510 1.478 . S
C512 C514 1.381 1_655 S
C512 C518 1.383 . S
C513 C509 1.495 . S
C513 H519 0.959 . S
C513 H520 0.961 . S
C513 H521 0.960 . S
C514 C512 1.381 1_455 S
C514 C515 1.394 . S
C514 H522 0.930 . S
C515 C514 1.394 . S
C515 C516 1.383 1_455 S
C515 H523 0.929 . S
C516 C515 1.383 1_655 S
C516 C517 1.377 . S
C517 H501 0.930 . S
C517 C516 1.377 . S
C517 C518 1.379 . S
C518 H502 0.931 . S
C518 C512 1.383 . S
C518 C517 1.379 . S
H519 C513 0.959 . S
H520 C513 0.961 . S
H521 C513 0.960 . S
H522 C514 0.930 . S
H523 C515 0.929 . S
H524 C532 0.929 . S
H525 C534 0.930 . S
H526 C536 0.930 . S
H527 C539 0.929 . S
H528 C542 0.930 . S
H529 C544 0.960 . S
H530 C544 0.960 . S
H531 C544 0.962 . S
C532 H524 0.929 . S
C532 C533 1.378 . S
C532 C534 1.384 . S
C533 C532 1.378 . S
C533 C539 1.389 1_455 S
C534 H525 0.930 . S
C534 C532 1.384 . S
C534 C535 1.372 . S
C535 C534 1.372 . S
C535 C536 1.400 1_455 S
C535 C540 1.490 . S
C536 H526 0.930 . S
C536 C535 1.400 1_655 S
C536 C539 1.386 . S
H537 C553 0.930 . S
H538 C554 0.931 . S
C539 H527 0.929 . S
C539 C533 1.389 1_655 S
C539 C536 1.386 . S
C540 C535 1.490 . S
C540 C542 1.395 1_455 S
C540 C543 1.403 . S
H541 C547 0.930 . S
C542 H528 0.930 . S
C542 C540 1.395 1_655 S
C542 C545 1.403 . S
C543 C540 1.403 . S
C543 C544 1.524 . S
C543 C547 1.400 . S
C544 H529 0.960 . S
C544 H530 0.960 . S
C544 H531 0.962 . S
C544 C543 1.524 . S
C545 C542 1.403 . S
C545 C546 1.392 . S
C545 C549 1.495 . S
C546 C545 1.392 . S
C546 C547 1.385 1_655 S
C546 C548 1.478 . S
C547 H541 0.930 . S
C547 C543 1.400 . S
C547 C546 1.385 1_455 S
C548 C546 1.478 . S
C548 C550 1.381 1_655 S
C548 C554 1.383 . S
C549 C545 1.495 . S
C549 H555 0.959 . S
C549 H556 0.961 . S
C549 H557 0.960 1_655 S
C550 C548 1.381 1_455 S
C550 C551 1.394 . S
C550 H558 0.930 . S
C551 C550 1.394 . S
C551 C552 1.383 1_455 S
C551 H559 0.929 . S
C552 C551 1.383 1_655 S
C552 C553 1.377 . S
C553 H537 0.930 . S
C553 C552 1.377 . S
C553 C554 1.379 . S
C554 H538 0.931 . S
C554 C548 1.383 . S
C554 C553 1.379 . S
H555 C549 0.959 . S
H556 C549 0.961 . S
H557 C549 0.960 1_455 S
H558 C550 0.930 . S
H559 C551 0.929 . S
H560 C568 0.929 . S
H561 C570 0.930 . S
H562 C572 0.930 . S
H563 C575 0.929 . S
H564 C578 0.930 . S
H565 C580 0.960 . S
H566 C580 0.960 1_655 S
H567 C580 0.960 1_655 S
C568 H560 0.929 . S
C568 C569 1.377 . S
C568 C570 1.384 . S
C569 C568 1.377 . S
C569 C575 1.390 . S
C570 H561 0.930 . S
C570 C568 1.384 . S
C570 C571 1.372 . S
C571 C570 1.372 . S
C571 C572 1.400 . S
C571 C576 1.490 . S
C572 H562 0.930 . S
C572 C571 1.400 . S
C572 C575 1.386 . S
H573 C589 0.930 . S
H574 C590 0.931 . S
C575 H563 0.929 . S
C575 C569 1.390 . S
C575 C572 1.386 . S
C576 C571 1.490 . S
C576 C578 1.395 1_556 S
C576 C579 1.391 1_655 S
H577 C583 0.943 . S
C578 H564 0.930 . S
C578 C576 1.395 1_554 S
C578 C581 1.403 . S
C579 C576 1.391 1_455 S
C579 C580 1.529 . S
C579 C583 1.423 . S
C580 H565 0.960 . S
C580 H566 0.960 1_455 S
C580 H567 0.960 1_455 S
C580 C579 1.529 . S
C581 C578 1.403 . S
C581 C582 1.392 1_655 S
C581 C585 1.495 . S
C582 C581 1.392 1_455 S
C582 C583 1.357 1_554 S
C582 C584 1.478 . S
C583 H577 0.943 . S
C583 C579 1.423 . S
C583 C582 1.357 1_556 S
C584 C582 1.478 . S
C584 C586 1.381 . S
C584 C590 1.383 . S
C585 C581 1.495 . S
C585 H591 0.959 . S
C585 H592 0.961 1_655 S
C585 H593 0.960 1_655 S
C586 C584 1.381 . S
C586 C587 1.394 . S
C586 H594 0.930 . S
C587 C586 1.394 . S
C587 C588 1.383 . S
C587 H595 0.929 . S
C588 C587 1.383 . S
C588 C589 1.377 . S
C589 H573 0.930 . S
C589 C588 1.377 . S
C589 C590 1.379 . S
C590 H574 0.931 . S
C590 C584 1.383 . S
C590 C589 1.379 . S
H591 C585 0.959 . S
H592 C585 0.961 1_455 S
H593 C585 0.960 1_455 S
H594 C586 0.930 . S
H595 C587 0.929 . S
H596 C604 0.929 . S
H597 C606 0.930 . S
H598 C608 0.930 . S
H599 C611 0.929 . S
H600 C614 0.930 . S
H601 C616 0.960 1_556 S
H602 C616 0.960 . S
H603 C616 0.960 . S
C604 H596 0.929 . S
C604 C605 1.377 . S
C604 C606 1.384 . S
C605 C604 1.377 . S
C605 C611 1.390 . S
C606 H597 0.930 . S
C606 C604 1.384 . S
C606 C607 1.372 . S
C607 C606 1.372 . S
C607 C608 1.400 . S
C607 C612 1.490 . S
C608 H598 0.930 . S
C608 C607 1.400 . S
C608 C611 1.386 . S
H609 C625 0.930 . S
H610 C626 0.931 . S
C611 H599 0.929 . S
C611 C605 1.390 . S
C611 C608 1.386 . S
C612 C607 1.490 . S
C612 C614 1.395 . S
C612 C615 1.403 . S
H613 C619 0.930 . S
C614 H600 0.930 . S
C614 C612 1.395 . S
C614 C617 1.403 1_455 S
C615 C612 1.403 . S
C615 C616 1.524 . S
C615 C619 1.400 1_454 S
C616 H601 0.960 1_554 S
C616 H602 0.960 . S
C616 H603 0.960 . S
C616 C615 1.524 . S
C617 C614 1.403 1_655 S
C617 C618 1.392 1_554 S
C617 C621 1.495 . S
C618 C617 1.392 1_556 S
C618 C619 1.385 . S
C618 C620 1.478 . S
C619 H613 0.930 . S
C619 C615 1.400 1_656 S
C619 C618 1.385 . S
C620 C618 1.478 . S
C620 C622 1.381 . S
C620 C626 1.383 . S
C621 C617 1.495 . S
C621 H627 0.959 . S
C621 H628 0.961 1_554 S
C621 H629 0.960 . S
C622 C620 1.381 . S
C622 C623 1.394 . S
C622 H630 0.930 . S
C623 C622 1.394 . S
C623 C624 1.383 . S
C623 H631 0.929 . S
C624 C623 1.383 . S
C624 C625 1.377 . S
C625 H609 0.930 . S
C625 C624 1.377 . S
C625 C626 1.379 . S
C626 H610 0.931 . S
C626 C620 1.383 . S
C626 C625 1.379 . S
H627 C621 0.959 . S
H628 C621 0.961 1_556 S
H629 C621 0.960 . S
H630 C622 0.930 . S
H631 C623 0.929 . S
H632 C640 0.929 . S
H633 C642 0.930 . S
H634 C644 0.930 . S
H635 C647 0.929 . S
H636 C650 0.930 . S
H637 C652 0.960 . S
H638 C652 0.960 . S
H639 C652 0.960 . S
C640 H632 0.929 . S
C640 C641 1.377 . S
C640 C642 1.384 . S
C641 C640 1.377 . S
C641 C647 1.390 . S
C642 H633 0.930 . S
C642 C640 1.384 . S
C642 C643 1.372 . S
C643 C642 1.372 . S
C643 C644 1.400 . S
C643 C648 1.490 . S
C644 H634 0.930 . S
C644 C643 1.400 . S
C644 C647 1.386 . S
H645 C661 0.930 . S
H646 C662 0.931 . S
C647 H635 0.929 . S
C647 C641 1.390 . S
C647 C644 1.386 . S
C648 C643 1.490 . S
C648 C650 1.395 . S
C648 C651 1.403 . S
H649 C655 0.930 . S
C650 H636 0.930 . S
C650 C648 1.395 . S
C650 C653 1.403 . S
C651 C648 1.403 . S
C651 C652 1.524 . S
C651 C655 1.400 . S
C652 H637 0.960 . S
C652 H638 0.960 . S
C652 H639 0.960 . S
C652 C651 1.524 . S
C653 C650 1.403 . S
C653 C654 1.392 . S
C653 C657 1.495 . S
C654 C653 1.392 . S
C654 C655 1.385 . S
C654 C656 1.478 . S
C655 H649 0.930 . S
C655 C651 1.400 . S
C655 C654 1.385 . S
C656 C654 1.478 . S
C656 C658 1.381 . S
C656 C662 1.383 . S
C657 C653 1.495 . S
C657 H663 0.959 . S
C657 H664 0.961 . S
C657 H665 0.960 . S
C658 C656 1.381 . S
C658 C659 1.394 . S
C658 H666 0.930 . S
C659 C658 1.394 . S
C659 C660 1.383 . S
C659 H667 0.929 . S
C660 C659 1.383 . S
C660 C661 1.377 . S
C661 H645 0.930 . S
C661 C660 1.377 . S
C661 C662 1.379 . S
C662 H646 0.931 . S
C662 C656 1.383 . S
C662 C661 1.379 . S
H663 C657 0.959 . S
H664 C657 0.961 . S
H665 C657 0.960 . S
H666 C658 0.930 . S
H667 C659 0.929 . S
H668 C676 0.929 . S
H669 C678 0.930 . S
H670 C680 0.930 . S
H671 C683 0.929 . S
H672 C686 0.930 . S
H673 C688 0.960 . S
H674 C688 0.960 . S
H675 C688 0.960 . S
C676 H668 0.929 . S
C676 C677 1.377 . S
C676 C678 1.384 . S
C677 C676 1.377 . S
C677 C683 1.390 . S
C678 H669 0.930 . S
C678 C676 1.384 . S
C678 C679 1.372 . S
C679 C678 1.372 . S
C679 C680 1.400 . S
C679 C684 1.490 . S
C680 H670 0.930 . S
C680 C679 1.400 . S
C680 C683 1.386 . S
H681 C697 0.930 . S
H682 C698 0.931 . S
C683 H671 0.929 . S
C683 C677 1.390 . S
C683 C680 1.386 . S
C684 C679 1.490 . S
C684 C686 1.395 . S
C684 C687 1.403 . S
H685 C691 0.930 . S
C686 H672 0.930 . S
C686 C684 1.395 . S
C686 C689 1.403 . S
C687 C684 1.403 . S
C687 C688 1.524 . S
C687 C691 1.400 . S
C688 H673 0.960 . S
C688 H674 0.960 . S
C688 H675 0.960 . S
C688 C687 1.524 . S
C689 C686 1.403 . S
C689 C690 1.392 . S
C689 C693 1.495 . S
C690 C689 1.392 . S
C690 C691 1.385 . S
C690 C692 1.478 . S
C691 H685 0.930 . S
C691 C687 1.400 . S
C691 C690 1.385 . S
C692 C690 1.478 . S
C692 C694 1.381 . S
C692 C698 1.383 . S
C693 C689 1.495 . S
C693 H699 0.959 . S
C693 H700 0.961 . S
C693 H701 0.960 . S
C694 C692 1.381 . S
C694 C695 1.394 . S
C694 H702 0.930 . S
C695 C694 1.394 . S
C695 C696 1.383 . S
C695 H703 0.929 . S
C696 C695 1.383 . S
C696 C697 1.377 . S
C697 H681 0.930 . S
C697 C696 1.377 . S
C697 C698 1.379 . S
C698 H682 0.931 . S
C698 C692 1.383 . S
C698 C697 1.379 . S
H699 C693 0.959 . S
H700 C693 0.961 . S
H701 C693 0.960 . S
H702 C694 0.930 . S
H703 C695 0.929 . S
H704 C712 0.929 . S
H705 C714 0.930 . S
H706 C716 0.930 . S
H707 C719 0.929 . S
H708 C722 0.930 . S
H709 C724 0.960 . S
H710 C724 0.960 . S
H711 C724 0.960 . S
C712 H704 0.929 . S
C712 C713 1.377 . S
C712 C714 1.384 . S
C713 C712 1.377 . S
C713 C719 1.390 . S
C714 H705 0.930 . S
C714 C712 1.384 . S
C714 C715 1.372 . S
C715 C714 1.372 . S
C715 C716 1.400 . S
C715 C720 1.490 . S
C716 H706 0.930 . S
C716 C715 1.400 . S
C716 C719 1.386 . S
H717 C733 0.930 . S
H718 C734 0.931 . S
C719 H707 0.929 . S
C719 C713 1.390 . S
C719 C716 1.386 . S
C720 C715 1.490 . S
C720 C722 1.395 . S
C720 C723 1.403 . S
H721 C727 0.930 . S
C722 H708 0.930 . S
C722 C720 1.395 . S
C722 C725 1.403 1_556 S
C723 C720 1.403 . S
C723 C724 1.524 . S
C723 C727 1.400 1_556 S
C724 H709 0.960 . S
C724 H710 0.960 . S
C724 H711 0.960 . S
C724 C723 1.524 . S
C725 C722 1.403 1_554 S
C725 C726 1.392 . S
C725 C729 1.495 . S
C726 C725 1.392 . S
C726 C727 1.385 . S
C726 C728 1.478 . S
C727 H721 0.930 . S
C727 C723 1.400 1_554 S
C727 C726 1.385 . S
C728 C726 1.478 . S
C728 C730 1.381 . S
C728 C734 1.383 . S
C729 C725 1.495 . S
C729 H735 0.959 . S
C729 H736 0.961 . S
C729 H737 0.960 . S
C730 C728 1.381 . S
C730 C731 1.394 . S
C730 H738 0.930 . S
C731 C730 1.394 . S
C731 C732 1.383 . S
C731 H739 0.929 . S
C732 C731 1.383 . S
C732 C733 1.377 . S
C733 H717 0.930 . S
C733 C732 1.377 . S
C733 C734 1.379 . S
C734 H718 0.931 . S
C734 C728 1.383 . S
C734 C733 1.379 . S
H735 C729 0.959 . S
H736 C729 0.961 . S
H737 C729 0.960 . S
H738 C730 0.930 . S
H739 C731 0.929 . S
H740 C748 0.929 . S
H741 C750 0.930 . S
H742 C752 0.930 . S
H743 C755 0.929 . S
H744 C758 0.930 . S
H745 C760 0.960 . S
H746 C760 0.960 . S
H747 C760 0.960 . S
C748 H740 0.929 . S
C748 C749 1.377 . S
C748 C750 1.384 . S
C749 C748 1.377 . S
C749 C755 1.390 . S
C750 H741 0.930 . S
C750 C748 1.384 . S
C750 C751 1.372 . S
C751 C750 1.372 . S
C751 C752 1.400 . S
C751 C756 1.490 . S
C752 H742 0.930 . S
C752 C751 1.400 . S
C752 C755 1.386 . S
H753 C769 0.930 . S
H754 C770 0.931 . S
C755 H743 0.929 . S
C755 C749 1.390 . S
C755 C752 1.386 . S
C756 C751 1.490 . S
C756 C758 1.395 1_556 S
C756 C759 1.403 . S
H757 C763 0.930 . S
C758 H744 0.930 . S
C758 C756 1.395 1_554 S
C758 C761 1.403 . S
C759 C756 1.403 . S
C759 C760 1.524 . S
C759 C763 1.400 1_556 S
C760 H745 0.960 . S
C760 H746 0.960 . S
C760 H747 0.960 . S
C760 C759 1.524 . S
C761 C758 1.403 . S
C761 C762 1.392 . S
C761 C765 1.495 . S
C762 C761 1.392 . S
C762 C763 1.385 . S
C762 C764 1.478 . S
C763 H757 0.930 . S
C763 C759 1.400 1_554 S
C763 C762 1.385 . S
C764 C762 1.478 . S
C764 C766 1.381 . S
C764 C770 1.383 . S
C765 C761 1.495 . S
C765 H771 0.959 . S
C765 H772 0.961 . S
C765 H773 0.960 . S
C766 C764 1.381 . S
C766 C767 1.394 . S
C766 H774 0.930 . S
C767 C766 1.394 . S
C767 C768 1.383 . S
C767 H775 0.929 . S
C768 C767 1.383 . S
C768 C769 1.377 . S
C769 H753 0.930 . S
C769 C768 1.377 . S
C769 C770 1.379 . S
C770 H754 0.931 . S
C770 C764 1.383 . S
C770 C769 1.379 . S
H771 C765 0.959 . S
H772 C765 0.961 . S
H773 C765 0.960 . S
H774 C766 0.930 . S
H775 C767 0.929 . S
H776 C784 0.929 . S
H777 C786 0.930 1_655 S
H778 C788 0.930 . S
H779 C791 0.929 . S
H780 C794 0.930 . S
H781 C796 0.960 . S
H782 C796 0.960 . S
H783 C796 0.960 . S
C784 H776 0.929 . S
C784 C785 1.377 . S
C784 C786 1.384 . S
C785 C784 1.377 . S
C785 C791 1.390 . S
C786 H777 0.930 1_455 S
C786 C784 1.384 . S
C786 C787 1.372 . S
C787 C786 1.372 . S
C787 C788 1.400 . S
C787 C792 1.490 . S
C788 H778 0.930 . S
C788 C787 1.400 . S
C788 C791 1.386 . S
H789 C805 0.930 . S
H790 C806 0.931 . S
C791 H779 0.929 . S
C791 C785 1.390 . S
C791 C788 1.386 . S
C792 C787 1.490 . S
C792 C794 1.395 1_455 S
C792 C795 1.403 . S
H793 C799 0.930 . S
C794 H780 0.930 . S
C794 C792 1.395 1_655 S
C794 C797 1.403 . S
C795 C792 1.403 . S
C795 C796 1.524 . S
C795 C799 1.400 . S
C796 H781 0.960 . S
C796 H782 0.960 . S
C796 H783 0.960 . S
C796 C795 1.524 . S
C797 C794 1.403 . S
C797 C798 1.392 . S
C797 C801 1.495 . S
C798 C797 1.392 . S
C798 C799 1.385 1_655 S
C798 C800 1.478 . S
C799 H793 0.930 . S
C799 C795 1.400 . S
C799 C798 1.385 1_455 S
C800 C798 1.478 . S
C800 C802 1.381 . S
C800 C806 1.383 . S
C801 C797 1.495 . S
C801 H807 0.959 . S
C801 H808 0.961 . S
C801 H809 0.960 . S
C802 C800 1.381 . S
C802 C803 1.394 . S
C802 H810 0.930 . S
C803 C802 1.394 . S
C803 C804 1.383 . S
C803 H811 0.929 . S
C804 C803 1.383 . S
C804 C805 1.377 . S
C805 H789 0.930 . S
C805 C804 1.377 . S
C805 C806 1.379 . S
C806 H790 0.931 . S
C806 C800 1.383 . S
C806 C805 1.379 . S
H807 C801 0.959 . S
H808 C801 0.961 . S
H809 C801 0.960 . S
H810 C802 0.930 . S
H811 C803 0.929 . S
H812 C820 0.929 1_655 S
H813 C822 0.926 1_655 S
H814 C824 0.930 . S
H815 C827 0.929 . S
H816 C830 0.930 . S
H817 C832 0.960 . S
H818 C832 0.960 . S
H819 C832 0.960 1_455 S
C820 H812 0.929 1_455 S
C820 C821 1.377 . S
C820 C822 1.387 . S
C821 C820 1.377 . S
C821 C827 1.390 . S
C822 H813 0.926 1_455 S
C822 C820 1.387 . S
C822 C823 1.373 . S
C823 C822 1.373 . S
C823 C824 1.400 . S
C823 C828 1.490 . S
C824 H814 0.930 . S
C824 C823 1.400 . S
C824 C827 1.386 . S
H825 C841 0.930 1_455 S
H826 C842 0.931 . S
C827 H815 0.929 . S
C827 C821 1.390 . S
C827 C824 1.386 . S
C828 C823 1.490 . S
C828 C830 1.395 . S
C828 C831 1.403 1_455 S
H829 C835 0.930 . S
C830 H816 0.930 . S
C830 C828 1.395 . S
C830 C833 1.403 . S
C831 C828 1.403 1_655 S
C831 C832 1.524 . S
C831 C835 1.400 . S
C832 H817 0.960 . S
C832 H818 0.960 . S
C832 H819 0.960 1_655 S
C832 C831 1.524 . S
C833 C830 1.403 . S
C833 C834 1.392 1_455 S
C833 C837 1.495 . S
C834 C833 1.392 1_655 S
C834 C835 1.385 . S
C834 C836 1.478 . S
C835 H829 0.930 . S
C835 C831 1.400 . S
C835 C834 1.385 . S
C836 C834 1.478 . S
C836 C838 1.381 . S
C836 C842 1.383 1_655 S
C837 C833 1.495 . S
C837 H843 0.959 . S
C837 H844 0.961 . S
C837 H845 0.960 1_455 S
C838 C836 1.381 . S
C838 C839 1.394 . S
C838 H846 0.930 . S
C839 C838 1.394 . S
C839 C840 1.383 . S
C839 H847 0.929 . S
C840 C839 1.383 . S
C840 C841 1.377 . S
C841 H825 0.930 1_655 S
C841 C840 1.377 . S
C841 C842 1.379 1_655 S
C842 H826 0.931 . S
C842 C836 1.383 1_455 S
C842 C841 1.379 1_455 S
H843 C837 0.959 . S
H844 C837 0.961 . S
H845 C837 0.960 1_655 S
H846 C838 0.930 . S
H847 C839 0.929 . S
H848 C856 0.929 . S
H849 C858 0.930 . S
H850 C860 0.930 . S
H851 C863 0.929 . S
H852 C866 0.930 . S
H853 C868 0.960 . S
H854 C868 0.960 . S
H855 C868 0.960 . S
C856 H848 0.929 . S
C856 C857 1.377 . S
C856 C858 1.384 . S
C857 C856 1.377 . S
C857 C863 1.390 . S
C858 H849 0.930 . S
C858 C856 1.384 . S
C858 C859 1.372 . S
C859 C858 1.372 . S
C859 C860 1.400 . S
C859 C864 1.490 . S
C860 H850 0.930 . S
C860 C859 1.400 . S
C860 C863 1.386 . S
H861 C877 0.930 . S
H862 C878 0.931 . S
C863 H851 0.929 . S
C863 C857 1.390 . S
C863 C860 1.386 . S
C864 C859 1.490 . S
C864 C866 1.395 . S
C864 C867 1.403 . S
H865 C871 0.930 . S
C866 H852 0.930 . S
C866 C864 1.395 . S
C866 C869 1.403 . S
C867 C864 1.403 . S
C867 C868 1.524 . S
C867 C871 1.400 . S
C868 H853 0.960 . S
C868 H854 0.960 . S
C868 H855 0.960 . S
C868 C867 1.524 . S
C869 C866 1.403 . S
C869 C870 1.392 . S
C869 C873 1.495 . S
C870 C869 1.392 . S
C870 C871 1.385 . S
C870 C872 1.478 . S
C871 H865 0.930 . S
C871 C867 1.400 . S
C871 C870 1.385 . S
C872 C870 1.478 . S
C872 C874 1.381 . S
C872 C878 1.383 . S
C873 C869 1.495 . S
C873 H879 0.959 . S
C873 H880 0.961 . S
C873 H881 0.960 . S
C874 C872 1.381 . S
C874 C875 1.394 . S
C874 H882 0.930 . S
C875 C874 1.394 . S
C875 C876 1.383 . S
C875 H883 0.929 . S
C876 C875 1.383 . S
C876 C877 1.377 . S
C877 H861 0.930 . S
C877 C876 1.377 . S
C877 C878 1.379 . S
C878 H862 0.931 . S
C878 C872 1.383 . S
C878 C877 1.379 . S
H879 C873 0.959 . S
H880 C873 0.961 . S
H881 C873 0.960 . S
H882 C874 0.930 . S
H883 C875 0.929 . S
H884 C892 0.929 . S
H885 C894 0.930 . S
H886 C896 0.930 . S
H887 C899 0.929 . S
H888 C902 0.930 . S
H889 C904 0.960 . S
H890 C904 0.960 . S
H891 C904 0.960 . S
C892 H884 0.929 . S
C892 C893 1.377 . S
C892 C894 1.384 . S
C893 C892 1.377 . S
C893 C899 1.390 . S
C894 H885 0.930 . S
C894 C892 1.384 . S
C894 C895 1.372 . S
C895 C894 1.372 . S
C895 C896 1.400 . S
C895 C900 1.490 . S
C896 H886 0.930 . S
C896 C895 1.400 . S
C896 C899 1.386 . S
H897 C913 0.930 . S
H898 C914 0.931 . S
C899 H887 0.929 . S
C899 C893 1.390 . S
C899 C896 1.386 . S
C900 C895 1.490 . S
C900 C902 1.395 . S
C900 C903 1.403 . S
H901 C907 0.930 . S
C902 H888 0.930 . S
C902 C900 1.395 . S
C902 C905 1.403 . S
C903 C900 1.403 . S
C903 C904 1.524 . S
C903 C907 1.400 . S
C904 H889 0.960 . S
C904 H890 0.960 . S
C904 H891 0.960 . S
C904 C903 1.524 . S
C905 C902 1.403 . S
C905 C906 1.392 . S
C905 C909 1.495 . S
C906 C905 1.392 . S
C906 C907 1.385 . S
C906 C908 1.478 . S
C907 H901 0.930 . S
C907 C903 1.400 . S
C907 C906 1.385 . S
C908 C906 1.478 . S
C908 C910 1.381 . S
C908 C914 1.383 . S
C909 C905 1.495 . S
C909 H915 0.959 . S
C909 H916 0.961 . S
C909 H917 0.960 . S
C910 C908 1.381 . S
C910 C911 1.394 . S
C910 H918 0.930 . S
C911 C910 1.394 . S
C911 C912 1.383 . S
C911 H919 0.929 . S
C912 C911 1.383 . S
C912 C913 1.377 . S
C913 H897 0.930 . S
C913 C912 1.377 . S
C913 C914 1.379 . S
C914 H898 0.931 . S
C914 C908 1.383 . S
C914 C913 1.379 . S
H915 C909 0.959 . S
H916 C909 0.961 . S
H917 C909 0.960 . S
H918 C910 0.930 . S
H919 C911 0.929 . S
H920 C928 0.929 . S
H921 C930 0.930 . S
H922 C932 0.930 . S
H923 C935 0.929 . S
H924 C938 0.930 . S
H925 C940 0.960 . S
H926 C940 0.960 . S
H927 C940 0.960 . S
C928 H920 0.929 . S
C928 C929 1.377 . S
C928 C930 1.384 . S
C929 C928 1.377 . S
C929 C935 1.390 . S
C930 H921 0.930 . S
C930 C928 1.384 . S
C930 C931 1.372 . S
C931 C930 1.372 . S
C931 C932 1.400 . S
C931 C936 1.490 . S
C932 H922 0.930 . S
C932 C931 1.400 . S
C932 C935 1.386 . S
H933 C949 0.930 . S
H934 C950 0.931 . S
C935 H923 0.929 . S
C935 C929 1.390 . S
C935 C932 1.386 . S
C936 C931 1.490 . S
C936 C938 1.395 . S
C936 C939 1.403 . S
H937 C943 0.930 . S
C938 H924 0.930 . S
C938 C936 1.395 . S
C938 C941 1.403 . S
C939 C936 1.403 . S
C939 C940 1.524 . S
C939 C943 1.400 . S
C940 H925 0.960 . S
C940 H926 0.960 . S
C940 H927 0.960 . S
C940 C939 1.524 . S
C941 C938 1.403 . S
C941 C942 1.392 . S
C941 C945 1.495 . S
C942 C941 1.392 . S
C942 C943 1.385 . S
C942 C944 1.478 . S
C943 H937 0.930 . S
C943 C939 1.400 . S
C943 C942 1.385 . S
C944 C942 1.478 . S
C944 C946 1.381 . S
C944 C950 1.383 . S
C945 C941 1.495 . S
C945 H951 0.959 . S
C945 H952 0.961 . S
C945 H953 0.960 . S
C946 C944 1.381 . S
C946 C947 1.394 . S
C946 H954 0.930 . S
C947 C946 1.394 . S
C947 C948 1.383 . S
C947 H955 0.929 . S
C948 C947 1.383 . S
C948 C949 1.377 . S
C949 H933 0.930 . S
C949 C948 1.377 . S
C949 C950 1.379 . S
C950 H934 0.931 . S
C950 C944 1.383 . S
C950 C949 1.379 . S
H951 C945 0.959 . S
H952 C945 0.961 . S
H953 C945 0.960 . S
H954 C946 0.930 . S
H955 C947 0.929 . S
H956 C964 0.929 . S
H957 C966 0.930 . S
H958 C968 0.930 . S
H959 C971 0.929 . S
H960 C974 0.930 . S
H961 C976 0.960 . S
H962 C976 0.960 . S
H963 C976 0.960 . S
C964 H956 0.929 . S
C964 C965 1.377 . S
C964 C966 1.384 . S
C965 C964 1.377 . S
C965 C971 1.390 . S
C966 H957 0.930 . S
C966 C964 1.384 . S
C966 C967 1.372 . S
C967 C966 1.372 . S
C967 C968 1.400 . S
C967 C972 1.490 . S
C968 H958 0.930 . S
C968 C967 1.400 . S
C968 C971 1.386 . S
H969 C985 0.930 . S
H970 C986 0.931 . S
C971 H959 0.929 . S
C971 C965 1.390 . S
C971 C968 1.386 . S
C972 C967 1.490 . S
C972 C974 1.395 . S
C972 C975 1.403 . S
H973 C979 0.930 . S
C974 H960 0.930 . S
C974 C972 1.395 . S
C974 C977 1.403 . S
C975 C972 1.403 . S
C975 C976 1.524 . S
C975 C979 1.400 . S
C976 H961 0.960 . S
C976 H962 0.960 . S
C976 H963 0.960 . S
C976 C975 1.524 . S
C977 C974 1.403 . S
C977 C978 1.392 . S
C977 C981 1.495 . S
C978 C977 1.392 . S
C978 C979 1.385 . S
C978 C980 1.478 . S
C979 H973 0.930 . S
C979 C975 1.400 . S
C979 C978 1.385 . S
C980 C978 1.478 . S
C980 C982 1.381 . S
C980 C986 1.383 . S
C981 C977 1.495 . S
C981 H987 0.959 . S
C981 H988 0.961 . S
C981 H989 0.960 . S
C982 C980 1.381 . S
C982 C983 1.394 . S
C982 H990 0.930 . S
C983 C982 1.394 . S
C983 C984 1.383 . S
C983 H991 0.929 . S
C984 C983 1.383 . S
C984 C985 1.377 . S
C985 H969 0.930 . S
C985 C984 1.377 . S
C985 C986 1.379 . S
C986 H970 0.931 . S
C986 C980 1.383 . S
C986 C985 1.379 . S
H987 C981 0.959 . S
H988 C981 0.961 . S
H989 C981 0.960 . S
H990 C982 0.930 . S
H991 C983 0.929 . S
H992 C1000 0.929 . S
H993 C1002 0.930 . S
H994 C1004 0.930 . S
H995 C1007 0.929 . S
H996 C1010 0.930 . S
H997 C1012 0.960 . S
H998 C1012 0.960 . S
H999 C1012 0.960 . S
C1000 H992 0.929 . S
C1000 C1001 1.377 . S
C1000 C1002 1.384 . S
C1001 C1000 1.377 . S
C1001 C1007 1.390 . S
C1002 H993 0.930 . S
C1002 C1000 1.384 . S
C1002 C1003 1.372 . S
C1003 C1002 1.372 . S
C1003 C1004 1.400 . S
C1003 C1008 1.490 . S
C1004 H994 0.930 . S
C1004 C1003 1.400 . S
C1004 C1007 1.386 . S
H1005 C1021 0.930 . S
H1006 C1022 0.931 . S
C1007 H995 0.929 . S
C1007 C1001 1.390 . S
C1007 C1004 1.386 . S
C1008 C1003 1.490 . S
C1008 C1010 1.395 . S
C1008 C1011 1.403 . S
H1009 C1015 0.930 . S
C1010 H996 0.930 . S
C1010 C1008 1.395 . S
C1010 C1013 1.403 . S
C1011 C1008 1.403 . S
C1011 C1012 1.524 . S
C1011 C1015 1.400 . S
C1012 H997 0.960 . S
C1012 H998 0.960 . S
C1012 H999 0.960 . S
C1012 C1011 1.524 . S
C1013 C1010 1.403 . S
C1013 C1014 1.392 . S
C1013 C1017 1.495 . S
C1014 C1013 1.392 . S
C1014 C1015 1.385 . S
C1014 C1016 1.478 1_655 S
C1015 H1009 0.930 . S
C1015 C1011 1.400 . S
C1015 C1014 1.385 . S
C1016 C1014 1.478 1_455 S
C1016 C1018 1.381 . S
C1016 C1022 1.383 . S
C1017 C1013 1.495 . S
C1017 H1023 0.959 . S
C1017 H1024 0.961 1_655 S
C1017 H1025 0.960 1_655 S
C1018 C1016 1.381 . S
C1018 C1019 1.394 . S
C1018 H1026 0.930 . S
C1019 C1018 1.394 . S
C1019 C1020 1.383 . S
C1019 H1027 0.929 . S
C1020 C1019 1.383 . S
C1020 C1021 1.377 . S
C1021 H1005 0.930 . S
C1021 C1020 1.377 . S
C1021 C1022 1.379 . S
C1022 H1006 0.931 . S
C1022 C1016 1.383 . S
C1022 C1021 1.379 . S
H1023 C1017 0.959 . S
H1024 C1017 0.961 1_455 S
H1025 C1017 0.960 1_455 S
H1026 C1018 0.930 . S
H1027 C1019 0.929 . S
H1028 C1036 0.929 . S
H1029 C1038 0.930 . S
H1030 C1040 0.930 . S
H1031 C1043 0.929 . S
H1032 C1046 0.930 . S
H1033 C1048 0.960 . S
H1034 C1048 0.960 . S
H1035 C1048 0.960 . S
C1036 H1028 0.929 . S
C1036 C1037 1.377 . S
C1036 C1038 1.384 . S
C1037 C1036 1.377 . S
C1037 C1043 1.390 . S
C1038 H1029 0.930 . S
C1038 C1036 1.384 . S
C1038 C1039 1.372 . S
C1039 C1038 1.372 . S
C1039 C1040 1.400 . S
C1039 C1044 1.490 . S
C1040 H1030 0.930 . S
C1040 C1039 1.400 . S
C1040 C1043 1.386 . S
H1041 C1057 0.930 . S
H1042 C1058 0.931 . S
C1043 H1031 0.929 . S
C1043 C1037 1.390 . S
C1043 C1040 1.386 . S
C1044 C1039 1.490 . S
C1044 C1046 1.395 . S
C1044 C1047 1.403 . S
H1045 C1051 0.930 . S
C1046 H1032 0.930 . S
C1046 C1044 1.395 . S
C1046 C1049 1.403 . S
C1047 C1044 1.403 . S
C1047 C1048 1.524 . S
C1047 C1051 1.400 . S
C1048 H1033 0.960 . S
C1048 H1034 0.960 . S
C1048 H1035 0.960 . S
C1048 C1047 1.524 . S
C1049 C1046 1.403 . S
C1049 C1050 1.392 . S
C1049 C1053 1.495 . S
C1050 C1049 1.392 . S
C1050 C1051 1.385 . S
C1050 C1052 1.478 1_455 S
C1051 H1045 0.930 . S
C1051 C1047 1.400 . S
C1051 C1050 1.385 . S
C1052 C1050 1.478 1_655 S
C1052 C1054 1.381 . S
C1052 C1058 1.383 . S
C1053 C1049 1.495 . S
C1053 H1059 0.959 . S
C1053 H1060 0.961 . S
C1053 H1061 0.960 . S
C1054 C1052 1.381 . S
C1054 C1055 1.394 . S
C1054 H1062 0.930 . S
C1055 C1054 1.394 . S
C1055 C1056 1.383 . S
C1055 H1063 0.929 . S
C1056 C1055 1.383 . S
C1056 C1057 1.377 . S
C1057 H1041 0.930 . S
C1057 C1056 1.377 . S
C1057 C1058 1.379 . S
C1058 H1042 0.931 . S
C1058 C1052 1.383 . S
C1058 C1057 1.379 . S
H1059 C1053 0.959 . S
H1060 C1053 0.961 . S
H1061 C1053 0.960 . S
H1062 C1054 0.930 . S
H1063 C1055 0.929 . S
H1064 C1072 0.929 . S
H1065 C1074 0.930 . S
H1066 C1076 0.930 . S
H1067 C1079 0.929 . S
H1068 C1082 0.930 . S
H1069 C1084 0.960 . S
H1070 C1084 0.960 . S
H1071 C1084 0.960 . S
C1072 H1064 0.929 . S
C1072 C1073 1.377 . S
C1072 C1074 1.384 . S
C1073 C1072 1.377 . S
C1073 C1079 1.390 . S
C1074 H1065 0.930 . S
C1074 C1072 1.384 . S
C1074 C1075 1.372 . S
C1075 C1074 1.372 . S
C1075 C1076 1.400 . S
C1075 C1080 1.490 . S
C1076 H1066 0.930 . S
C1076 C1075 1.400 . S
C1076 C1079 1.386 . S
H1077 C1093 0.930 . S
H1078 C1094 0.931 . S
C1079 H1067 0.929 . S
C1079 C1073 1.390 . S
C1079 C1076 1.386 . S
C1080 C1075 1.490 . S
C1080 C1082 1.395 . S
C1080 C1083 1.403 . S
H1081 C1087 0.930 . S
C1082 H1068 0.930 . S
C1082 C1080 1.395 . S
C1082 C1085 1.403 . S
C1083 C1080 1.403 . S
C1083 C1084 1.524 . S
C1083 C1087 1.400 . S
C1084 H1069 0.960 . S
C1084 H1070 0.960 . S
C1084 H1071 0.960 . S
C1084 C1083 1.524 . S
C1085 C1082 1.403 . S
C1085 C1086 1.392 . S
C1085 C1089 1.495 . S
C1086 C1085 1.392 . S
C1086 C1087 1.385 . S
C1086 C1088 1.478 1_455 S
C1087 H1081 0.930 . S
C1087 C1083 1.400 . S
C1087 C1086 1.385 . S
C1088 C1086 1.478 1_655 S
C1088 C1090 1.381 . S
C1088 C1094 1.383 . S
C1089 C1085 1.495 . S
C1089 H1095 0.959 . S
C1089 H1096 0.961 . S
C1089 H1097 0.960 . S
C1090 C1088 1.381 . S
C1090 C1091 1.394 . S
C1090 H1098 0.930 . S
C1091 C1090 1.394 . S
C1091 C1092 1.383 . S
C1091 H1099 0.929 . S
C1092 C1091 1.383 . S
C1092 C1093 1.377 . S
C1093 H1077 0.930 . S
C1093 C1092 1.377 . S
C1093 C1094 1.379 . S
C1094 H1078 0.931 . S
C1094 C1088 1.383 . S
C1094 C1093 1.379 . S
H1095 C1089 0.959 . S
H1096 C1089 0.961 . S
H1097 C1089 0.960 . S
H1098 C1090 0.930 . S
H1099 C1091 0.929 . S
H1100 C1108 0.929 . S
H1101 C1110 0.930 . S
H1102 C1112 0.930 . S
H1103 C1115 0.929 . S
H1104 C1118 0.930 . S
H1105 C1120 0.960 . S
H1106 C1120 0.960 . S
H1107 C1120 0.960 . S
C1108 H1100 0.929 . S
C1108 C1109 1.377 . S
C1108 C1110 1.384 . S
C1109 C1108 1.377 . S
C1109 C1115 1.390 . S
C1110 H1101 0.930 . S
C1110 C1108 1.384 . S
C1110 C1111 1.372 . S
C1111 C1110 1.372 . S
C1111 C1112 1.400 . S
C1111 C1116 1.490 . S
C1112 H1102 0.930 . S
C1112 C1111 1.400 . S
C1112 C1115 1.386 . S
H1113 C1129 0.930 . S
H1114 C1130 0.931 . S
C1115 H1103 0.929 . S
C1115 C1109 1.390 . S
C1115 C1112 1.386 . S
C1116 C1111 1.490 . S
C1116 C1118 1.395 . S
C1116 C1119 1.403 . S
H1117 C1123 0.930 . S
C1118 H1104 0.930 . S
C1118 C1116 1.395 . S
C1118 C1121 1.403 . S
C1119 C1116 1.403 . S
C1119 C1120 1.524 . S
C1119 C1123 1.400 . S
C1120 H1105 0.960 . S
C1120 H1106 0.960 . S
C1120 H1107 0.960 . S
C1120 C1119 1.524 . S
C1121 C1118 1.403 . S
C1121 C1122 1.392 . S
C1121 C1125 1.495 . S
C1122 C1121 1.392 . S
C1122 C1123 1.385 . S
C1122 C1124 1.478 1_655 S
C1123 H1117 0.930 . S
C1123 C1119 1.400 . S
C1123 C1122 1.385 . S
C1124 C1122 1.478 1_455 S
C1124 C1126 1.381 . S
C1124 C1130 1.383 . S
C1125 C1121 1.495 . S
C1125 H1131 0.959 . S
C1125 H1132 0.961 . S
C1125 H1133 0.960 . S
C1126 C1124 1.381 . S
C1126 C1127 1.394 . S
C1126 H1134 0.930 . S
C1127 C1126 1.394 . S
C1127 C1128 1.383 . S
C1127 H1135 0.929 . S
C1128 C1127 1.383 . S
C1128 C1129 1.377 . S
C1129 H1113 0.930 . S
C1129 C1128 1.377 . S
C1129 C1130 1.379 . S
C1130 H1114 0.931 . S
C1130 C1124 1.383 . S
C1130 C1129 1.379 . S
H1131 C1125 0.959 . S
H1132 C1125 0.961 . S
H1133 C1125 0.960 . S
H1134 C1126 0.930 . S
H1135 C1127 0.929 . S
H1136 C1144 0.929 . S
H1137 C1146 0.930 . S
H1138 C1148 0.930 . S
H1139 C1151 0.929 . S
H1140 C1154 0.930 . S
H1141 C1156 0.960 . S
H1142 C1156 0.960 . S
H1143 C1156 0.960 . S
C1144 H1136 0.929 . S
C1144 C1145 1.377 . S
C1144 C1146 1.384 . S
C1145 C1144 1.377 . S
C1145 C1151 1.390 . S
C1146 H1137 0.930 . S
C1146 C1144 1.384 . S
C1146 C1147 1.372 . S
C1147 C1146 1.372 . S
C1147 C1148 1.400 . S
C1147 C1152 1.490 . S
C1148 H1138 0.930 . S
C1148 C1147 1.400 . S
C1148 C1151 1.386 . S
H1149 C1165 0.930 . S
H1150 C1166 0.931 . S
C1151 H1139 0.929 . S
C1151 C1145 1.390 . S
C1151 C1148 1.386 . S
C1152 C1147 1.490 . S
C1152 C1154 1.395 . S
C1152 C1155 1.403 . S
H1153 C1159 0.930 . S
C1154 H1140 0.930 . S
C1154 C1152 1.395 . S
C1154 C1157 1.403 . S
C1155 C1152 1.403 . S
C1155 C1156 1.524 . S
C1155 C1159 1.400 . S
C1156 H1141 0.960 . S
C1156 H1142 0.960 . S
C1156 H1143 0.960 . S
C1156 C1155 1.524 . S
C1157 C1154 1.403 . S
C1157 C1158 1.392 . S
C1157 C1161 1.495 . S
C1158 C1157 1.392 . S
C1158 C1159 1.385 . S
C1158 C1160 1.478 . S
C1159 H1153 0.930 . S
C1159 C1155 1.400 . S
C1159 C1158 1.385 . S
C1160 C1158 1.478 . S
C1160 C1162 1.381 . S
C1160 C1166 1.383 . S
C1161 C1157 1.495 . S
C1161 H1167 0.959 . S
C1161 H1168 0.961 . S
C1161 H1169 0.960 . S
C1162 C1160 1.381 . S
C1162 C1163 1.394 . S
C1162 H1170 0.930 . S
C1163 C1162 1.394 . S
C1163 C1164 1.383 . S
C1163 H1171 0.929 . S
C1164 C1163 1.383 . S
C1164 C1165 1.377 . S
C1165 H1149 0.930 . S
C1165 C1164 1.377 . S
C1165 C1166 1.379 . S
C1166 H1150 0.931 . S
C1166 C1160 1.383 . S
C1166 C1165 1.379 . S
H1167 C1161 0.959 . S
H1168 C1161 0.961 . S
H1169 C1161 0.960 . S
H1170 C1162 0.930 . S
H1171 C1163 0.929 . S
H1172 C1180 0.929 . S
H1173 C1182 0.930 . S
H1174 C1184 0.930 . S
H1175 C1187 0.929 . S
H1176 C1190 0.930 . S
H1177 C1192 0.960 . S
H1178 C1192 0.960 . S
H1179 C1192 0.960 . S
C1180 H1172 0.929 . S
C1180 C1181 1.377 . S
C1180 C1182 1.384 . S
C1181 C1180 1.377 . S
C1181 C1187 1.390 . S
C1182 H1173 0.930 . S
C1182 C1180 1.384 . S
C1182 C1183 1.372 . S
C1183 C1182 1.372 . S
C1183 C1184 1.400 . S
C1183 C1188 1.490 . S
C1184 H1174 0.930 . S
C1184 C1183 1.400 . S
C1184 C1187 1.386 . S
H1185 C1201 0.930 . S
H1186 C1202 0.931 . S
C1187 H1175 0.929 . S
C1187 C1181 1.390 . S
C1187 C1184 1.386 . S
C1188 C1183 1.490 . S
C1188 C1190 1.395 . S
C1188 C1191 1.403 . S
H1189 C1195 0.930 . S
C1190 H1176 0.930 . S
C1190 C1188 1.395 . S
C1190 C1193 1.403 . S
C1191 C1188 1.403 . S
C1191 C1192 1.524 . S
C1191 C1195 1.400 . S
C1192 H1177 0.960 . S
C1192 H1178 0.960 . S
C1192 H1179 0.960 . S
C1192 C1191 1.524 . S
C1193 C1190 1.403 . S
C1193 C1194 1.392 . S
C1193 C1197 1.495 . S
C1194 C1193 1.392 . S
C1194 C1195 1.385 . S
C1194 C1196 1.478 . S
C1195 H1189 0.930 . S
C1195 C1191 1.400 . S
C1195 C1194 1.385 . S
C1196 C1194 1.478 . S
C1196 C1198 1.381 . S
C1196 C1202 1.383 . S
C1197 C1193 1.495 . S
C1197 H1203 0.959 . S
C1197 H1204 0.961 . S
C1197 H1205 0.960 . S
C1198 C1196 1.381 . S
C1198 C1199 1.394 . S
C1198 H1206 0.930 . S
C1199 C1198 1.394 . S
C1199 C1200 1.383 . S
C1199 H1207 0.929 . S
C1200 C1199 1.383 . S
C1200 C1201 1.377 . S
C1201 H1185 0.930 . S
C1201 C1200 1.377 . S
C1201 C1202 1.379 . S
C1202 H1186 0.931 . S
C1202 C1196 1.383 . S
C1202 C1201 1.379 . S
H1203 C1197 0.959 . S
H1204 C1197 0.961 . S
H1205 C1197 0.960 . S
H1206 C1198 0.930 . S
H1207 C1199 0.929 . S
H1208 C1216 0.929 . S
H1209 C1218 0.930 . S
H1210 C1220 0.930 . S
H1211 C1223 0.929 . S
H1212 C1226 0.930 . S
H1213 C1228 0.960 . S
H1214 C1228 0.960 . S
H1215 C1228 0.960 . S
C1216 H1208 0.929 . S
C1216 C1217 1.377 . S
C1216 C1218 1.384 . S
C1217 C1216 1.377 . S
C1217 C1223 1.390 . S
C1218 H1209 0.930 . S
C1218 C1216 1.384 . S
C1218 C1219 1.372 . S
C1219 C1218 1.372 . S
C1219 C1220 1.400 . S
C1219 C1224 1.490 . S
C1220 H1210 0.930 . S
C1220 C1219 1.400 . S
C1220 C1223 1.386 . S
H1221 C1237 0.930 . S
H1222 C1238 0.931 . S
C1223 H1211 0.929 . S
C1223 C1217 1.390 . S
C1223 C1220 1.386 . S
C1224 C1219 1.490 . S
C1224 C1226 1.395 . S
C1224 C1227 1.403 . S
H1225 C1231 0.930 . S
C1226 H1212 0.930 . S
C1226 C1224 1.395 . S
C1226 C1229 1.403 . S
C1227 C1224 1.403 . S
C1227 C1228 1.524 . S
C1227 C1231 1.400 . S
C1228 H1213 0.960 . S
C1228 H1214 0.960 . S
C1228 H1215 0.960 . S
C1228 C1227 1.524 . S
C1229 C1226 1.403 . S
C1229 C1230 1.392 . S
C1229 C1233 1.495 . S
C1230 C1229 1.392 . S
C1230 C1231 1.385 . S
C1230 C1232 1.478 . S
C1231 H1225 0.930 . S
C1231 C1227 1.400 . S
C1231 C1230 1.385 . S
C1232 C1230 1.478 . S
C1232 C1234 1.381 . S
C1232 C1238 1.383 . S
C1233 C1229 1.495 . S
C1233 H1239 0.959 . S
C1233 H1240 0.961 . S
C1233 H1241 0.960 . S
C1234 C1232 1.381 . S
C1234 C1235 1.394 . S
C1234 H1242 0.930 . S
C1235 C1234 1.394 . S
C1235 C1236 1.383 . S
C1235 H1243 0.929 . S
C1236 C1235 1.383 . S
C1236 C1237 1.377 . S
C1237 H1221 0.930 . S
C1237 C1236 1.377 . S
C1237 C1238 1.379 . S
C1238 H1222 0.931 . S
C1238 C1232 1.383 . S
C1238 C1237 1.379 . S
H1239 C1233 0.959 . S
H1240 C1233 0.961 . S
H1241 C1233 0.960 . S
H1242 C1234 0.930 . S
H1243 C1235 0.929 . S
H1244 C1252 0.929 . S
H1245 C1254 0.930 . S
H1246 C1256 0.930 . S
H1247 C1259 0.929 . S
H1248 C1262 0.930 . S
H1249 C1264 0.960 . S
H1250 C1264 0.960 . S
H1251 C1264 0.960 . S
C1252 H1244 0.929 . S
C1252 C1253 1.377 . S
C1252 C1254 1.384 . S
C1253 C1252 1.377 . S
C1253 C1259 1.390 . S
C1254 H1245 0.930 . S
C1254 C1252 1.384 . S
C1254 C1255 1.372 . S
C1255 C1254 1.372 . S
C1255 C1256 1.400 . S
C1255 C1260 1.490 . S
C1256 H1246 0.930 . S
C1256 C1255 1.400 . S
C1256 C1259 1.386 . S
H1257 C1273 0.930 . S
H1258 C1274 0.931 . S
C1259 H1247 0.929 . S
C1259 C1253 1.390 . S
C1259 C1256 1.386 . S
C1260 C1255 1.490 . S
C1260 C1262 1.395 . S
C1260 C1263 1.403 . S
H1261 C1267 0.930 . S
C1262 H1248 0.930 . S
C1262 C1260 1.395 . S
C1262 C1265 1.403 . S
C1263 C1260 1.403 . S
C1263 C1264 1.524 . S
C1263 C1267 1.400 . S
C1264 H1249 0.960 . S
C1264 H1250 0.960 . S
C1264 H1251 0.960 . S
C1264 C1263 1.524 . S
C1265 C1262 1.403 . S
C1265 C1266 1.392 . S
C1265 C1269 1.495 . S
C1266 C1265 1.392 . S
C1266 C1267 1.385 . S
C1266 C1268 1.478 . S
C1267 H1261 0.930 . S
C1267 C1263 1.400 . S
C1267 C1266 1.385 . S
C1268 C1266 1.478 . S
C1268 C1270 1.381 . S
C1268 C1274 1.383 . S
C1269 C1265 1.495 . S
C1269 H1275 0.959 . S
C1269 H1276 0.961 . S
C1269 H1277 0.960 . S
C1270 C1268 1.381 . S
C1270 C1271 1.394 . S
C1270 H1278 0.930 . S
C1271 C1270 1.394 . S
C1271 C1272 1.383 . S
C1271 H1279 0.929 . S
C1272 C1271 1.383 . S
C1272 C1273 1.377 . S
C1273 H1257 0.930 . S
C1273 C1272 1.377 . S
C1273 C1274 1.379 . S
C1274 H1258 0.931 . S
C1274 C1268 1.383 . S
C1274 C1273 1.379 . S
H1275 C1269 0.959 . S
H1276 C1269 0.961 . S
H1277 C1269 0.960 . S
H1278 C1270 0.930 . S
H1279 C1271 0.929 . S
C281 C51 1.749 . S
C300 C17 1.745 . S
C317 C119 1.751 . S
C336 C85 1.749 . S
C353 C153 1.749 . S
C372 C187 1.741 . S
C389 C255 1.750 . S
C408 C221 1.752 . S
C425 C117 1.809 . S
C444 C22 1.784 . S
C461 C90 1.807 . S
C480 C56 1.835 . S
C497 C158 1.816 1_455 S
C516 C260 1.786 . S
C533 C192 1.804 . S
C552 C219 1.823 1_655 S
C569 C37 1.920 . S
C588 C3 1.927 . S
C605 C103 1.921 . S
C624 C71 1.888 . S
C641 C139 1.912 . S
C660 C173 1.900 . S
C677 C205 1.919 . S
C696 C241 1.908 . S
C713 C35 1.402 . S
C732 C1 1.429 . S
C749 C69 1.394 . S
C768 C105 1.424 . S
C785 C171 1.390 . S
C804 C137 1.370 . S
C821 C207 1.403 . S
C840 C239 1.380 . S
C857 C15 1.524 . S
C876 C226 1.500 . S
C893 C49 1.534 . S
C912 C253 1.536 . S
C929 C83 1.533 . S
C948 C151 1.542 . S
C965 C124 1.533 . S
C984 C185 1.534 . S
C1001 C6 1.386 . S
C1020 C28 1.390 . S
C1037 C40 1.387 . S
C1056 C62 1.386 . S
C1073 C74 1.387 . S
C1092 C96 1.382 . S
C1109 C130 1.388 . S
C1128 C108 1.382 . S
C1145 C142 1.388 . S
C1164 C164 1.387 . S
C1181 C198 1.389 . S
C1200 C176 1.389 . S
C1217 C210 1.390 . S
C1236 C232 1.377 . S
C1253 C266 1.389 . S
C1272 C244 1.392 . S
