# Generated by pormake.
# Topology unb, (4)-cn, num edge types: 1
# Building blocks:
#     Node 0, Type 0, BuildingBlock: TATPOV_clean_sbu_0, # of connection points: 4
#     Node 1, Type 0, BuildingBlock: TATPOV_clean_sbu_0, # of connection points: 4
#     Node 2, Type 0, BuildingBlock: TATPOV_clean_sbu_0, # of connection points: 4
#     Node 3, Type 0, BuildingBlock: TATPOV_clean_sbu_0, # of connection points: 4
#     Node 4, Type 0, BuildingBlock: TATPOV_clean_sbu_0, # of connection points: 4
#     Node 5, Type 0, BuildingBlock: TATPOV_clean_sbu_0, # of connection points: 4
#     Node 6, Type 0, BuildingBlock: TATPOV_clean_sbu_0, # of connection points: 4
#     Node 7, Type 0, BuildingBlock: TATPOV_clean_sbu_0, # of connection points: 4
#     Node 8, Type 0, BuildingBlock: TATPOV_clean_sbu_0, # of connection points: 4
#     Node 9, Type 0, BuildingBlock: TATPOV_clean_sbu_0, # of connection points: 4
#     Node 10, Type 0, BuildingBlock: TATPOV_clean_sbu_0, # of connection points: 4
#     Node 11, Type 0, BuildingBlock: TATPOV_clean_sbu_0, # of connection points: 4
#     Node 12, Type 0, BuildingBlock: TATPOV_clean_sbu_0, # of connection points: 4
#     Node 13, Type 0, BuildingBlock: TATPOV_clean_sbu_0, # of connection points: 4
#     Node 14, Type 0, BuildingBlock: TATPOV_clean_sbu_0, # of connection points: 4
#     Node 15, Type 0, BuildingBlock: TATPOV_clean_sbu_0, # of connection points: 4
#     Node 16, Type 0, BuildingBlock: TATPOV_clean_sbu_0, # of connection points: 4
#     Node 17, Type 0, BuildingBlock: TATPOV_clean_sbu_0, # of connection points: 4
#     Edge 18, Type (0, 0), BuildingBlock: EZIPEK_clean_linker_0, # of connection points: 2
#     Edge 19, Type (0, 0), BuildingBlock: EZIPEK_clean_linker_0, # of connection points: 2
#     Edge 20, Type (0, 0), BuildingBlock: EZIPEK_clean_linker_0, # of connection points: 2
#     Edge 21, Type (0, 0), BuildingBlock: EZIPEK_clean_linker_0, # of connection points: 2
#     Edge 22, Type (0, 0), BuildingBlock: EZIPEK_clean_linker_0, # of connection points: 2
#     Edge 23, Type (0, 0), BuildingBlock: EZIPEK_clean_linker_0, # of connection points: 2
#     Edge 24, Type (0, 0), BuildingBlock: EZIPEK_clean_linker_0, # of connection points: 2
#     Edge 25, Type (0, 0), BuildingBlock: EZIPEK_clean_linker_0, # of connection points: 2
#     Edge 26, Type (0, 0), BuildingBlock: EZIPEK_clean_linker_0, # of connection points: 2
#     Edge 27, Type (0, 0), BuildingBlock: EZIPEK_clean_linker_0, # of connection points: 2
#     Edge 28, Type (0, 0), BuildingBlock: EZIPEK_clean_linker_0, # of connection points: 2
#     Edge 29, Type (0, 0), BuildingBlock: EZIPEK_clean_linker_0, # of connection points: 2
#     Edge 30, Type (0, 0), BuildingBlock: EZIPEK_clean_linker_0, # of connection points: 2
#     Edge 31, Type (0, 0), BuildingBlock: EZIPEK_clean_linker_0, # of connection points: 2
#     Edge 32, Type (0, 0), BuildingBlock: EZIPEK_clean_linker_0, # of connection points: 2
#     Edge 33, Type (0, 0), BuildingBlock: EZIPEK_clean_linker_0, # of connection points: 2
#     Edge 34, Type (0, 0), BuildingBlock: EZIPEK_clean_linker_0, # of connection points: 2
#     Edge 35, Type (0, 0), BuildingBlock: EZIPEK_clean_linker_0, # of connection points: 2
#     Edge 36, Type (0, 0), BuildingBlock: EZIPEK_clean_linker_0, # of connection points: 2
#     Edge 37, Type (0, 0), BuildingBlock: EZIPEK_clean_linker_0, # of connection points: 2
#     Edge 38, Type (0, 0), BuildingBlock: EZIPEK_clean_linker_0, # of connection points: 2
#     Edge 39, Type (0, 0), BuildingBlock: EZIPEK_clean_linker_0, # of connection points: 2
#     Edge 40, Type (0, 0), BuildingBlock: EZIPEK_clean_linker_0, # of connection points: 2
#     Edge 41, Type (0, 0), BuildingBlock: EZIPEK_clean_linker_0, # of connection points: 2
#     Edge 42, Type (0, 0), BuildingBlock: EZIPEK_clean_linker_0, # of connection points: 2
#     Edge 43, Type (0, 0), BuildingBlock: EZIPEK_clean_linker_0, # of connection points: 2
#     Edge 44, Type (0, 0), BuildingBlock: EZIPEK_clean_linker_0, # of connection points: 2
#     Edge 45, Type (0, 0), BuildingBlock: EZIPEK_clean_linker_0, # of connection points: 2
#     Edge 46, Type (0, 0), BuildingBlock: EZIPEK_clean_linker_0, # of connection points: 2
#     Edge 47, Type (0, 0), BuildingBlock: EZIPEK_clean_linker_0, # of connection points: 2
#     Edge 48, Type (0, 0), BuildingBlock: EZIPEK_clean_linker_0, # of connection points: 2
#     Edge 49, Type (0, 0), BuildingBlock: EZIPEK_clean_linker_0, # of connection points: 2
#     Edge 50, Type (0, 0), BuildingBlock: EZIPEK_clean_linker_0, # of connection points: 2
#     Edge 51, Type (0, 0), BuildingBlock: EZIPEK_clean_linker_0, # of connection points: 2
#     Edge 52, Type (0, 0), BuildingBlock: EZIPEK_clean_linker_0, # of connection points: 2
#     Edge 53, Type (0, 0), BuildingBlock: EZIPEK_clean_linker_0, # of connection points: 2
# Relax obj value: 0.016
# Max RMSD: 0.033
# Mean RMSD: 0.033
data_MOF--net-unb--node1-TATPOV_clean_sbu_0--edge1-EZIPEK_clean_linker_0
_symmetry_space_group_name_H-M    P1
_symmetry_Int_Tables_number       1
_symmetry_cell_setting            triclinic
loop_
_symmetry_equiv_pos_as_xyz
'x, y, z'
_cell_length_a     49.748918
_cell_length_b     49.338568
_cell_length_c     8.0
_cell_angle_alpha  90.322697
_cell_angle_beta   90.123041
_cell_angle_gamma 120.24595
loop_
_atom_site_label
_atom_site_type_symbol
_atom_site_fract_x
_atom_site_fract_y
_atom_site_fract_z
_atom_type_partial_charge
Zn0 Zn 0.129 0.28388 2.14183 0.0
Zn1 Zn 0.13535 0.30054 0.23631 0.0
O2 O 0.08695 0.26821 0.20823 0.0
O3 O 0.08395 0.26574 2.13147 0.0
O4 O 0.1461 0.32108 0.47532 0.0
O5 O 0.1458 0.25599 2.15558 0.0
O6 O 0.16162 0.27787 0.20624 0.0
C7 C 0.07075 0.25858 0.07301 0.0
C8 C 0.15883 0.34563 2.1358 0.0
O9 O 0.15044 0.33997 0.08928 0.0
O10 O 0.15485 0.32391 2.03755 0.0
C11 C 0.14392 0.34531 0.50926 0.0
O12 O 0.13176 0.3553 0.39653 0.0
C13 C 0.16158 0.26022 0.08784 0.0
Zn14 Zn 0.72771 0.85737 2.08328 0.0
Zn15 Zn 0.72459 0.87128 0.16993 0.0
O16 O 0.74335 0.84112 0.14483 0.0
O17 O 0.73633 0.82311 2.08556 0.0
O18 O 0.70741 0.86702 0.41177 0.0
O19 O 0.76505 0.90164 2.06893 0.0
O20 O 0.76223 0.91439 0.13253 0.0
C21 C 0.74705 0.82479 2.23039 0.0
C22 C 0.68253 0.86825 2.0655 0.0
O23 O 0.69376 0.87655 2.2126 0.0
O24 O 0.68998 0.85186 1.97693 0.0
C25 C 0.68175 0.843 0.45506 0.0
O26 O 0.66641 0.8204 0.34537 0.0
C27 C 0.77499 0.92157 2.18728 0.0
Zn28 Zn 0.13194 0.91197 2.07607 0.0
Zn29 Zn 0.13565 0.89047 0.13699 0.0
O30 O 0.15207 0.93857 0.1746 0.0
O31 O 0.13039 0.94833 2.15926 0.0
O32 O 0.13679 0.87068 0.36461 0.0
O33 O 0.09342 0.87572 1.98976 0.0
O34 O 0.08949 0.86308 0.05479 0.0
C35 C 0.14636 0.9574 0.09303 0.0
C36 C 0.17846 0.89954 2.04327 0.0
O37 O 0.16431 0.88414 2.17377 0.0
O38 O 0.17224 0.91963 1.9875 0.0
C39 C 0.15829 0.86556 0.41391 0.0
O40 O 0.1827 0.87416 0.31858 0.0
C41 C 0.07754 0.85775 2.10644 0.0
Zn42 Zn 0.23919 0.15064 0.20286 0.0
Zn43 Zn 0.25479 0.15401 2.08264 0.0
O44 O 0.22509 0.10621 2.12832 0.0
O45 O 0.21017 0.1053 0.19126 0.0
O46 O 0.27177 0.15906 1.84014 0.0
O47 O 0.22442 0.18013 0.18324 0.0
O48 O 0.23431 0.18233 2.11094 0.0
C49 C 0.20944 0.09112 0.05811 0.0
C50 C 0.30187 0.17136 0.16981 0.0
O51 O 0.29525 0.16915 2.21359 0.0
O52 O 0.28151 0.16497 0.28 0.0
C53 C 0.28839 0.14684 1.80278 0.0
O54 O 0.29166 0.12922 1.91403 0.0
C55 C 0.22432 0.19047 2.23838 0.0
Zn56 Zn 0.8986 0.1014 0.08132 0.0
Zn57 Zn 0.87684 0.12031 2.04363 0.0
O58 O 0.92483 0.15402 2.07093 0.0
O59 O 0.94189 0.1342 0.06435 0.0
O60 O 0.85984 0.13108 1.83022 0.0
O61 O 0.88227 0.05812 2.20338 0.0
O62 O 0.86057 0.07259 2.00981 0.0
C63 C 0.94675 0.15613 2.16501 0.0
C64 C 0.85436 0.11635 0.19975 0.0
O65 O 0.853 0.12301 2.24573 0.0
O66 O 0.87287 0.10747 0.24745 0.0
C67 C 0.83854 0.13835 1.82607 0.0
O68 O 0.82671 0.14135 1.96672 0.0
C69 C 0.86314 0.05119 2.08453 0.0
Zn70 Zn 0.90248 0.80706 2.23317 0.0
Zn71 Zn 0.878 0.76276 2.02046 0.0
O72 O 0.84884 0.78218 2.03079 0.0
O73 O 0.8708 0.81912 2.2237 0.0
O74 O 0.86443 0.73322 1.81532 0.0
O75 O 0.94517 0.83193 2.14433 0.0
O76 O 0.92643 0.78757 2.00369 0.0
C77 C 0.84828 0.8028 2.12617 0.0
C78 C 0.87898 0.74655 0.17674 0.0
O79 O 0.86902 0.73638 2.22812 0.0
O80 O 0.89478 0.77555 0.20917 0.0
C81 C 0.83737 0.70992 1.78565 0.0
O82 O 0.81494 0.70295 1.89329 0.0
C83 C 0.94954 0.81353 2.05334 0.0
Zn84 Zn 0.80061 0.58238 0.57378 0.0
Zn85 Zn 0.80609 0.59819 0.89239 0.0
O86 O 0.75837 0.57452 0.8444 0.0
O87 O 0.75576 0.56669 0.57072 0.0
O88 O 0.81301 0.61548 1.13324 0.0
O89 O 0.81503 0.55276 0.61445 0.0
O90 O 0.8247 0.56867 0.87743 0.0
C91 C 0.74262 0.56452 0.70868 0.0
C92 C 0.83784 0.64597 0.61072 0.0
O93 O 0.83025 0.63913 0.76282 0.0
O94 O 0.82933 0.62493 0.49992 0.0
C95 C 0.80609 0.63653 1.16737 0.0
O96 O 0.7925 0.6444 1.05191 0.0
C97 C 0.82501 0.55153 0.75772 0.0
Zn98 Zn 0.45376 0.20026 0.72949 0.0
Zn99 Zn 0.41527 0.19203 0.96094 0.0
O100 O 0.42749 0.15684 0.97844 0.0
O101 O 0.46677 0.17116 0.80494 0.0
O102 O 0.38715 0.18665 1.16553 0.0
O103 O 0.47906 0.24588 0.75084 0.0
O104 O 0.44828 0.24006 0.96221 0.0
C105 C 0.448 0.15205 0.90978 0.0
C106 C 0.39536 0.18239 0.59788 0.0
O107 O 0.38921 0.18489 0.75003 0.0
O108 O 0.42122 0.18557 0.55613 0.0
C109 C 0.36007 0.16338 1.1946 0.0
O110 O 0.34765 0.13985 1.08763 0.0
C111 C 0.47035 0.25772 0.86341 0.0
Zn112 Zn 0.72244 0.13965 0.61443 0.0
Zn113 Zn 0.74106 0.14117 0.92744 0.0
O114 O 0.75535 0.18816 0.87748 0.0
O115 O 0.74032 0.1856 0.61464 0.0
O116 O 0.75701 0.13915 1.16562 0.0
O117 O 0.67848 0.1107 0.66156 0.0
O118 O 0.69223 0.11013 0.92401 0.0
C119 C 0.75392 0.20157 0.74368 0.0
C120 C 0.76715 0.12249 0.62629 0.0
O121 O 0.76662 0.12812 0.78142 0.0
O122 O 0.74862 0.12402 0.5243 0.0
C123 C 0.78611 0.1525 1.19932 0.0
O124 O 0.80629 0.16943 1.084 0.0
C125 C 0.67135 0.10078 0.80904 0.0
Zn126 Zn 0.82442 0.38696 0.819 0.0
Zn127 Zn 0.86997 0.40464 0.63234 0.0
O128 O 0.83861 0.35548 0.60571 0.0
O129 O 0.79725 0.34357 0.75798 0.0
O130 O 0.89864 0.41915 0.42281 0.0
O131 O 0.81173 0.41814 0.7766 0.0
O132 O 0.85821 0.43952 0.66534 0.0
C133 C 0.81205 0.33509 0.66456 0.0
C134 C 0.88318 0.40411 0.98794 0.0
O135 O 0.89502 0.40935 0.84197 0.0
O136 O 0.8545 0.39449 1.00747 0.0
C137 C 0.92574 0.44355 0.41657 0.0
O138 O 0.93779 0.46063 0.55218 0.0
C139 C 0.83541 0.44197 0.71988 0.0
Zn140 Zn 0.56195 0.44925 0.92798 0.0
Zn141 Zn 0.54069 0.45524 0.63275 0.0
O142 O 0.58892 0.48222 0.6159 0.0
O143 O 0.60525 0.47727 0.86519 0.0
O144 O 0.52434 0.46326 0.40986 0.0
O145 O 0.54295 0.40407 0.90507 0.0
O146 O 0.52268 0.40658 0.66281 0.0
C147 C 0.61082 0.48886 0.72074 0.0
C148 C 0.52544 0.47616 0.96527 0.0
O149 O 0.52393 0.47362 0.80652 0.0
O150 O 0.54018 0.46653 1.05106 0.0
C151 C 0.53177 0.49148 0.3753 0.0
O152 O 0.54961 0.51395 0.48095 0.0
C153 C 0.52613 0.39069 0.77882 0.0
Zn154 Zn 0.48533 0.00671 1.03303 0.0
Zn155 Zn 0.47054 -0.00756 0.71461 0.0
O156 O 0.46074 0.02876 0.74707 0.0
O157 O 0.47214 0.03831 1.0166 0.0
O158 O 0.45845 0.97283 0.47334 0.0
O159 O 0.52971 0.02053 1.00745 0.0
O160 O 0.51912 0.01138 0.73766 0.0
C161 C 0.46296 0.04414 0.88127 0.0
C162 C 0.43805 0.94662 1.01297 0.0
O163 O 0.44118 0.95408 0.85907 0.0
O164 O 0.456 0.96562 1.12245 0.0
C165 C 0.43068 0.95126 0.43637 0.0
O166 O 0.40875 0.94336 0.54839 0.0
C167 C 0.53869 0.02131 0.85936 0.0
Zn168 Zn 0.34519 0.7816 1.54367 0.0
Zn169 Zn 0.36916 0.82314 1.77072 0.0
O170 O 0.32046 0.79534 1.79745 0.0
O171 O 0.30429 0.75357 1.63902 0.0
O172 O 0.38719 0.85177 1.98409 0.0
O173 O 0.37726 0.76991 1.52594 0.0
O174 O 0.3986 0.80486 1.72949 0.0
C175 C 0.29825 0.76894 1.74383 0.0
C176 C 0.36703 0.84317 1.42166 0.0
O177 O 0.37736 0.85144 1.57042 0.0
O178 O 0.34986 0.81456 1.38249 0.0
C179 C 0.38598 0.87653 2.01768 0.0
O180 O 0.37196 0.88566 1.91171 0.0
C181 C 0.39975 0.78584 1.62402 0.0
Zn182 Zn 0.02816 0.51595 1.36047 0.0
Zn183 Zn 0.02087 0.51483 1.67147 0.0
O184 O 0.06281 0.51472 1.64789 0.0
O185 O 0.07104 0.52452 1.37781 0.0
O186 O 0.00702 0.50917 1.9205 0.0
O187 O 0.02086 0.55127 1.31851 0.0
O188 O 0.02731 0.55832 1.59124 0.0
C189 C 0.07994 0.52041 1.51828 0.0
C190 C 0.97756 0.46044 1.43153 0.0
O191 O -0.01698 0.47529 1.5697 0.0
O192 O -0.00389 0.47259 1.31136 0.0
C193 C -0.00532 0.48205 1.98774 0.0
O194 O -0.00606 0.45875 1.90364 0.0
C195 C 0.02565 0.56831 1.44622 0.0
Zn196 Zn 0.4821 0.59664 1.45376 0.0
Zn197 Zn 0.48082 0.56754 1.72973 0.0
O198 O 0.51562 0.61462 1.76806 0.0
O199 O 0.51642 0.63715 1.52926 0.0
O200 O 0.4816 0.5444 1.94469 0.0
O201 O 0.43853 0.5856 1.46801 0.0
O202 O 0.43487 0.55833 1.69383 0.0
C203 C 0.5272 0.63878 1.67419 0.0
C204 C 0.49433 0.54912 1.38618 0.0
O205 O 0.49176 0.54579 1.5443 0.0
O206 O 0.4912 0.56996 1.31348 0.0
C207 C 0.50547 0.54208 1.97938 0.0
O208 O 0.52926 0.55457 1.87698 0.0
C209 C 0.42231 0.56706 1.58221 0.0
Zn210 Zn 0.56548 0.80646 1.65865 0.0
Zn211 Zn 0.58154 0.81206 1.39045 0.0
O212 O 0.57822 0.7711 1.48851 0.0
O213 O 0.58984 0.78735 1.74839 0.0
O214 O 0.59956 0.8186 1.1496 0.0
O215 O 0.52082 0.77919 1.61375 0.0
O216 O 0.53689 0.8066 1.38276 0.0
C217 C 0.58408 0.76663 1.63849 0.0
C218 C 0.60534 0.86563 1.64266 0.0
O219 O 0.61227 0.85224 1.52664 0.0
O220 O 0.57836 0.85093 1.70266 0.0
C221 C 0.62718 0.82412 1.12204 0.0
O222 O 0.64442 0.82499 1.24885 0.0
C223 C 0.51504 0.79031 1.48616 0.0
Zn224 Zn 0.1212 0.74393 1.61504 0.0
Zn225 Zn 0.14172 0.76192 1.32738 0.0
O226 O 0.1779 0.75504 1.38659 0.0
O227 O 0.15941 0.73962 1.64145 0.0
O228 O 0.14465 0.77978 1.08776 0.0
O229 O 0.08033 0.70656 1.57869 0.0
O230 O 0.1001 0.71771 1.32741 0.0
C231 C 0.18044 0.74643 1.53357 0.0
C232 C 0.14563 0.80463 1.63123 0.0
O233 O 0.15279 0.79933 1.48689 0.0
O234 O 0.12544 0.78226 1.71703 0.0
C235 C 0.15943 0.80906 1.05379 0.0
O236 O 0.1759 0.82929 1.17204 0.0
C237 C 0.07842 0.69915 1.42621 0.0
Zn238 Zn 0.23758 0.5131 1.60335 0.0
Zn239 Zn 0.22344 0.47473 1.36118 0.0
O240 O 0.19368 0.49377 1.37237 0.0
O241 O 0.21473 0.53446 1.54437 0.0
O242 O 0.21222 0.44716 1.14397 0.0
O243 O 0.28256 0.5339 1.59273 0.0
O244 O 0.27273 0.50184 1.37812 0.0
C245 C 0.1931 0.51666 1.44575 0.0
C246 C 0.20775 0.44918 1.70439 0.0
O247 O 0.20953 0.44363 1.55044 0.0
O248 O 0.21702 0.47671 1.75714 0.0
C249 C 0.185 0.42389 1.11355 0.0
O250 O 0.16275 0.41724 1.2219 0.0
C251 C 0.29206 0.52293 1.4798 0.0
C252 C 0.1617 0.37039 0.9731 0.0
C253 C 0.17789 0.40372 0.95882 0.0
C254 C 0.17831 0.39749 0.65303 0.0
C255 C 0.15766 0.36454 0.66617 0.0
N256 N 0.12671 0.32008 0.84257 0.0
N257 N 0.19736 0.4488 0.77856 0.0
C258 C 0.14872 0.35105 0.82742 0.0
C259 C 0.18528 0.41724 0.79696 0.0
N260 N 0.15958 0.3571 1.12548 0.0
N261 N 0.19213 0.40993 0.50347 0.0
H262 H 0.202 0.46412 0.87886 0.0
H263 H 0.19991 0.45933 0.66264 0.0
H264 H 0.18868 0.39621 0.39705 0.0
H265 H 0.20965 0.43324 0.49001 0.0
H266 H 0.15074 0.33314 1.14135 0.0
H267 H 0.16976 0.37034 1.23349 0.0
H268 H 0.11669 0.30983 0.95631 0.0
H269 H 0.11645 0.30519 0.74006 0.0
C270 C 0.64609 0.8556 0.85423 0.0
C271 C 0.64008 0.82874 0.94832 0.0
C272 C 0.66554 0.81425 0.72959 0.0
C273 C 0.66914 0.83951 0.62894 0.0
N274 N 0.65861 0.88157 0.58471 0.0
N275 N 0.63943 0.77966 0.96292 0.0
C276 C 0.65833 0.85953 0.6886 0.0
C277 C 0.64858 0.80732 0.88238 0.0
N278 N 0.64124 0.87801 0.92543 0.0
N279 N 0.67934 0.79749 0.68194 0.0
H280 H 0.62671 0.77355 1.0736 0.0
H281 H 0.64186 0.7615 0.91258 0.0
H282 H 0.69224 0.80209 0.57246 0.0
H283 H 0.68053 0.78105 0.75786 0.0
H284 H 0.64847 0.89976 0.87155 0.0
H285 H 0.63215 0.8759 1.04512 0.0
H286 H 0.64782 0.89443 0.61313 0.0
H287 H 0.66757 0.88535 0.46389 0.0
C288 C 0.14705 0.84411 0.88031 0.0
C289 C 0.15618 0.82104 0.88691 0.0
C290 C 0.16028 0.82292 0.57972 0.0
C291 C 0.15585 0.84928 0.57641 0.0
N292 N 0.15005 0.88816 0.73143 0.0
N293 N 0.17567 0.79149 0.74198 0.0
C294 C 0.15042 0.86065 0.72881 0.0
C295 C 0.16377 0.81111 0.73614 0.0
N296 N 0.13403 0.84949 1.01748 0.0
N297 N 0.16005 0.80836 0.43343 0.0
H298 H 0.17889 0.78257 0.85324 0.0
H299 H 0.1849 0.78631 0.63807 0.0
H300 H 0.15647 0.8155 0.31712 0.0
H301 H 0.16006 0.78726 0.42876 0.0
H302 H 0.12418 0.86378 1.01531 0.0
H303 H 0.12986 0.83694 1.12809 0.0
H304 H 0.14964 0.89928 0.84171 0.0
H305 H 0.15324 0.90154 0.6251 0.0
C306 C 0.35635 0.16657 1.51051 0.0
C307 C 0.34246 0.16226 1.34974 0.0
C308 C 0.29255 0.14856 1.4847 0.0
C309 C 0.30705 0.1548 1.64458 0.0
N310 N 0.35488 0.17828 1.80383 0.0
N311 N 0.29921 0.15665 1.18513 0.0
C312 C 0.33962 0.16643 1.65544 0.0
C313 C 0.31108 0.15546 1.33732 0.0
N314 N 0.38485 0.16902 1.52689 0.0
N315 N 0.26093 0.13469 1.47285 0.0
H316 H 0.31225 0.16259 1.07563 0.0
H317 H 0.27763 0.15499 1.17012 0.0
H318 H 0.24659 0.12922 1.57693 0.0
H319 H 0.24875 0.12627 1.36069 0.0
H320 H 0.39447 0.16871 1.64218 0.0
H321 H 0.39758 0.16816 1.4258 0.0
H322 H 0.37903 0.1899 1.81542 0.0
H323 H 0.34374 0.17965 1.91122 0.0
C324 C 0.79406 0.11858 1.40802 0.0
C325 C 0.79786 0.14823 1.36442 0.0
C326 C 0.83123 0.17189 1.61356 0.0
C327 C 0.82561 0.14188 1.66328 0.0
N328 N 0.79775 0.08581 1.622 0.0
N329 N 0.81621 0.20219 1.43778 0.0
C330 C 0.80595 0.11499 1.56419 0.0
C331 C 0.81545 0.17464 1.47068 0.0
N332 N 0.78023 0.09411 1.29693 0.0
N333 N 0.8525 0.19796 1.70013 0.0
H334 H 0.80482 0.20498 1.3354 0.0
H335 H 0.82577 0.2214 1.51889 0.0
H336 H 0.86437 0.19682 1.80504 0.0
H337 H 0.86034 0.2208 1.66067 0.0
H338 H 0.78001 0.07305 1.31191 0.0
H339 H 0.771 0.09563 1.18255 0.0
H340 H 0.78068 0.06509 1.56617 0.0
H341 H 0.8063 0.0822 1.73376 0.0
C342 C 0.83818 0.70604 1.47018 0.0
C343 C 0.83089 0.691 1.62809 0.0
C344 C 0.80664 0.63958 1.4847 0.0
C345 C 0.81616 0.6548 1.32786 0.0
N346 N 0.84827 0.7027 1.17704 0.0
N347 N 0.8144 0.64362 1.78532 0.0
C348 C 0.83411 0.6881 1.32242 0.0
C349 C 0.81689 0.65778 1.63527 0.0
N350 N 0.84751 0.7372 1.45947 0.0
N351 N 0.78673 0.60791 1.49043 0.0
H352 H 0.82239 0.65611 1.89742 0.0
H353 H 0.80735 0.61993 1.79636 0.0
H354 H 0.77851 0.5938 1.38362 0.0
H355 H 0.77624 0.59606 1.60016 0.0
H356 H 0.84987 0.74848 1.34617 0.0
H357 H 0.84979 0.7511 1.56318 0.0
H358 H 0.86414 0.72667 1.17005 0.0
H359 H 0.84691 0.69046 1.06759 0.0
C360 C 0.93358 0.46639 0.12586 0.0
C361 C 0.94347 0.45377 0.2557 0.0
C362 C -0.01007 0.46549 0.09073 0.0
C363 C 0.97853 0.47532 2.15337 0.0
N364 N 0.93736 0.4813 2.03291 0.0
N365 N 0.97918 0.43795 0.35525 0.0
C366 C 0.94985 0.47491 2.16899 0.0
C367 C 0.97124 0.45255 0.23652 0.0
N368 N 0.9092 0.47124 0.15308 0.0
N369 N 0.0191 0.46935 0.08198 0.0
H370 H 0.96616 0.4283 0.46318 0.0
H371 H -0.00285 0.43312 0.34118 0.0
H372 H 0.03336 0.47888 2.17647 0.0
H373 H 0.03027 0.46578 0.18234 0.0
H374 H 0.90308 0.48369 0.07187 0.0
H375 H 0.89651 0.46498 0.26378 0.0
H376 H 0.91483 0.47761 2.02964 0.0
H377 H 0.94867 0.48823 1.91826 0.0
C378 C 0.50596 0.51855 0.23851 0.0
C379 C 0.52004 0.49974 0.22158 0.0
C380 C 0.5159 0.50205 2.11423 0.0
C381 C 0.50705 0.52522 2.13181 0.0
N382 N 0.49736 0.55841 0.11645 0.0
N383 N 0.54174 0.47646 2.2386 0.0
C384 C 0.50272 0.53402 0.09604 0.0
C385 C 0.5256 0.49194 0.05895 0.0
N386 N 0.49496 0.52108 0.39071 0.0
N387 N 0.51431 0.48906 1.96058 0.0
H388 H 0.54964 0.46896 0.14042 0.0
H389 H 0.54961 0.47343 2.12334 0.0
H390 H 0.50644 0.49514 1.8541 0.0
H391 H 0.51753 0.46997 1.94224 0.0
H392 H 0.4818 0.53193 0.40782 0.0
H393 H 0.49604 0.50936 0.49641 0.0
H394 H 0.49763 0.56815 0.23276 0.0
H395 H 0.49539 0.57085 2.21555 0.0
C396 C 0.42907 0.94726 0.11727 0.0
C397 C 0.42294 0.93254 0.27592 0.0
C398 C 0.39255 0.88089 0.13618 0.0
C399 C 0.40027 0.89541 2.17533 0.0
N400 N 0.43263 0.94206 2.01596 0.0
N401 N 0.40621 0.88479 0.42992 0.0
C402 C 0.42055 0.92852 2.16659 0.0
C403 C 0.40692 0.89918 0.28313 0.0
N404 N 0.44169 0.97903 0.10822 0.0
N405 N 0.37019 0.84999 0.14944 0.0
H406 H 0.41741 0.89724 0.53841 0.0
H407 H 0.39758 0.86074 0.43902 0.0
H408 H 0.3583 0.83587 2.24542 0.0
H409 H 0.36123 0.83917 0.26364 0.0
H410 H 0.44338 0.99064 2.19558 0.0
H411 H 0.44805 -0.00647 0.21353 0.0
H412 H 0.44986 0.9655 2.00364 0.0
H413 H 0.4279 0.92913 1.90526 0.0
C414 C 0.14906 0.37776 1.94028 0.0
C415 C 0.16888 0.3762 2.06225 0.0
C416 C 0.21377 0.42302 1.9538 0.0
C417 C 0.1944 0.4236 1.82475 0.0
N418 N 0.14382 0.40383 1.69665 0.0
N419 N 0.21712 0.39977 2.21449 0.0
C420 C 0.16198 0.4017 1.81876 0.0
C421 C 0.20032 0.39987 2.07926 0.0
N422 N 0.11807 0.35553 1.93992 0.0
N423 N 0.24522 0.44336 1.94966 0.0
H424 H 0.20747 0.38273 0.10854 0.0
H425 H 0.23955 0.4177 2.24297 0.0
H426 H 0.25605 0.4601 1.85652 0.0
H427 H 0.26107 0.44237 2.03075 0.0
H428 H 0.10212 0.35319 1.84879 0.0
H429 H 0.10798 0.33905 2.03511 0.0
H430 H 0.11973 0.39014 1.69019 0.0
H431 H 0.15281 0.41979 1.59906 0.0
C432 C 0.66117 0.90078 1.70354 0.0
C433 C 0.63022 0.8902 1.74928 0.0
C434 C 0.64048 0.88244 2.03641 0.0
C435 C 0.66826 0.8843 1.97945 0.0
N436 N 0.71192 0.9103 1.79227 0.0
N437 N 0.59908 0.89323 1.96881 0.0
C438 C 0.68114 0.89895 1.82379 0.0
C439 C 0.62327 0.88948 1.92101 0.0
N440 N 0.66999 0.90961 1.54253 0.0
N441 N 0.62952 0.87188 2.1929 0.0
H442 H 0.5866 0.89818 1.88086 0.0
H443 H 0.59361 0.89429 2.09345 0.0
H444 H 0.64182 0.86668 0.08154 0.0
H445 H 0.60769 0.86718 2.23311 0.0
H446 H 0.69141 0.91473 1.49377 0.0
H447 H 0.65489 0.91127 1.45766 0.0
H448 H 0.72304 0.92233 1.68422 0.0
H449 H 0.72688 0.90991 1.88246 0.0
C450 C 0.18946 0.89066 1.75459 0.0
C451 C 0.19232 0.8865 1.92686 0.0
C452 C 0.18144 0.83361 1.86921 0.0
C453 C 0.16673 0.83444 1.71748 0.0
N454 N 0.16062 0.86522 1.5024 0.0
N455 N 0.20416 0.8596 2.13517 0.0
C456 C 0.17268 0.86361 1.65291 0.0
C457 C 0.19351 0.85993 1.9784 0.0
N458 N 0.20145 0.92018 1.69289 0.0
N459 N 0.18381 0.80793 1.90702 0.0
H460 H 0.21425 0.87982 2.20996 0.0
H461 H 0.20274 0.8399 2.19064 0.0
H462 H 0.17602 0.78879 1.82609 0.0
H463 H 0.19577 0.80661 2.0106 0.0
H464 H 0.20149 0.92483 1.56596 0.0
H465 H 0.21419 0.93988 1.7695 0.0
H466 H 0.16201 0.88571 1.4582 0.0
H467 H 0.14747 0.84558 1.42683 0.0
C468 C 0.35698 0.1529 0.37256 0.0
C469 C 0.37472 0.18104 0.4646 0.0
C470 C 0.35149 0.20673 0.31128 0.0
C471 C 0.33245 0.17808 0.22674 0.0
N472 N 0.32289 0.12747 0.13487 0.0
N473 N 0.39678 0.23717 0.48665 0.0
C474 C 0.33741 0.15239 0.24251 0.0
C475 C 0.37455 0.20885 0.42271 0.0
N476 N 0.35784 0.12652 0.41461 0.0
N477 N 0.34649 0.23129 0.28954 0.0
H478 H 0.41454 0.23953 0.56574 0.0
H479 H 0.3994 0.25856 0.4497 0.0
H480 H 0.33082 0.2307 0.20045 0.0
H481 H 0.35688 0.25156 0.36302 0.0
H482 H 0.34299 0.10441 0.36368 0.0
H483 H 0.37225 0.1263 0.50895 0.0
H484 H 0.3271 0.10884 0.13164 0.0
H485 H 0.30875 0.12703 2.23593 0.0
C486 C 0.83999 0.14684 0.39018 0.0
C487 C 0.83342 0.11748 0.32376 0.0
C488 C 0.78626 0.09016 0.49154 0.0
C489 C 0.79263 0.11952 0.55609 0.0
N490 N 0.82831 0.17467 0.60178 0.0
N491 N 0.80494 0.06079 0.33583 0.0
C492 C 0.82057 0.14752 0.51724 0.0
C493 C 0.80806 0.08893 0.3829 0.0
N494 N 0.86433 0.17396 0.3292 0.0
N495 N 0.75882 0.06374 0.52976 0.0
H496 H 0.82001 0.05884 0.25294 0.0
H497 H 0.78876 0.03941 0.38764 0.0
H498 H 0.74333 0.06383 0.6173 0.0
H499 H 0.75078 0.04216 0.47044 0.0
H500 H 0.86826 0.19624 0.35865 0.0
H501 H 0.8798 0.17425 0.24039 0.0
H502 H 0.84956 0.19535 0.58999 0.0
H503 H 0.81448 0.17577 0.69605 0.0
C504 C 0.89039 0.71103 0.34086 0.0
C505 C 0.87168 0.72472 0.31391 0.0
C506 C 0.83637 0.69372 0.53642 0.0
C507 C 0.85384 0.67843 0.55468 0.0
N508 N 0.90134 0.67785 0.5178 0.0
N509 N 0.83235 0.73606 0.40985 0.0
C510 C 0.88241 0.68918 0.47172 0.0
C511 C 0.84658 0.71854 0.42083 0.0
N512 N 0.91492 0.71807 0.23768 0.0
N513 N 0.80888 0.68289 0.61951 0.0
H514 H 0.83832 0.75355 0.32094 0.0
H515 H 0.81613 0.73486 0.49592 0.0
H516 H 0.80129 0.66558 0.7105 0.0
H517 H 0.79291 0.69011 0.59425 0.0
H518 H 0.92763 0.70659 0.24056 0.0
H519 H 0.92167 0.73447 0.14196 0.0
H520 H 0.92362 0.68611 0.47103 0.0
H521 H 0.89553 0.66188 0.61533 0.0
C522 C 0.90183 0.43009 1.26822 0.0
C523 C 0.90295 0.41091 1.13768 0.0
C524 C 0.94659 0.41081 1.27684 0.0
C525 C 0.94713 0.4326 1.3941 0.0
N526 N 0.91612 0.4477 1.55489 0.0
N527 N 0.91923 0.37455 1.0485 0.0
C528 C 0.92117 0.43647 1.40951 0.0
C529 C 0.92292 0.39826 1.1524 0.0
N530 N 0.88484 0.4447 1.25142 0.0
N531 N 0.97008 0.40414 1.27939 0.0
H532 H 0.90173 0.36473 0.95793 0.0
H533 H 0.93169 0.36291 1.06109 0.0
H534 H -0.01327 0.41259 1.37517 0.0
H535 H 0.97351 0.39132 1.18665 0.0
H536 H 0.88574 0.46098 1.33821 0.0
H537 H 0.87278 0.44354 1.14279 0.0
H538 H 0.89635 0.44946 1.57514 0.0
H539 H 0.92975 0.45126 1.66113 0.0
C540 C 0.47998 0.4972 1.26083 0.0
C541 C 0.50202 0.5295 1.28323 0.0
C542 C 0.53443 0.52741 1.06158 0.0
C543 C 0.51423 0.49455 1.05186 0.0
N544 N 0.46942 0.44709 1.14727 0.0
N545 N 0.55248 0.57449 1.2285 0.0
C546 C 0.48738 0.47908 1.15283 0.0
C547 C 0.52986 0.54444 1.18962 0.0
N548 N 0.45164 0.48423 1.33737 0.0
N549 N 0.55804 0.54223 0.94903 0.0
H550 H 0.55027 0.58747 1.32546 0.0
H551 H 0.5746 0.58553 1.17606 0.0
H552 H 0.5624 0.53036 0.85444 0.0
H553 H 0.57156 0.56653 0.93968 0.0
H554 H 0.4334 0.46169 1.31135 0.0
H555 H 0.44549 0.49676 1.41884 0.0
H556 H 0.45174 0.43412 1.23209 0.0
H557 H 0.47328 0.43334 1.0619 0.0
C558 C 0.40045 0.86523 1.17035 0.0
C559 C 0.37949 0.86636 1.28733 0.0
C560 C 0.39004 0.91682 1.17884 0.0
C561 C 0.4124 0.91651 1.07037 0.0
N562 N 0.43207 0.88757 0.92337 0.0
N563 N 0.34829 0.88829 1.37725 0.0
C564 C 0.41502 0.88952 1.0517 0.0
C565 C 0.37222 0.89059 1.2828 0.0
N566 N 0.40833 0.84241 1.18086 0.0
N567 N 0.38691 0.94279 1.18579 0.0
H568 H 0.3349 0.86911 1.4541 0.0
H569 H 0.34011 0.90395 1.37066 0.0
H570 H 0.3983 0.96139 1.10261 0.0
H571 H 0.37383 0.94636 1.27519 0.0
H572 H 0.42638 0.8428 1.11332 0.0
H573 H 0.39853 0.82408 1.26607 0.0
H574 H 0.43247 0.86721 0.89325 0.0
H575 H 0.44346 0.90544 0.83651 0.0
C576 C 0.162 0.21048 0.09928 0.0
C577 C 0.17926 0.24367 0.09702 0.0
C578 C 0.22694 0.24242 2.23512 0.0
C579 C 0.20901 0.20924 2.22389 0.0
N580 N 0.15911 0.16179 2.21441 0.0
N581 N 0.22719 0.29175 2.24253 0.0
C582 C 0.17635 0.19334 2.24557 0.0
C583 C 0.21155 0.25987 0.06075 0.0
N584 N 0.13205 0.19546 0.1559 0.0
N585 N 0.25865 0.25707 2.2275 0.0
H586 H 0.21688 0.3053 0.06712 0.0
H587 H 0.2498 0.30458 2.19724 0.0
H588 H 0.2704 0.24498 2.20194 0.0
H589 H 0.27329 0.28078 0.05587 0.0
H590 H 0.11895 0.17134 0.17459 0.0
H591 H 0.12139 0.20762 0.20067 0.0
H592 H 0.13488 0.14923 2.21299 0.0
H593 H 0.16907 0.14867 2.17407 0.0
C594 C 0.84822 -0.0047 2.04559 0.0
C595 C 0.8388 0.01782 2.06715 0.0
C596 C 0.78611 0.9759 2.13631 0.0
C597 C 0.79715 0.95451 2.14487 0.0
N598 N 0.83809 0.94269 2.10202 0.0
N599 N 0.79875 0.02979 2.14781 0.0
C600 C 0.82798 0.96378 2.09586 0.0
C601 C 0.8076 0.00821 2.11348 0.0
N602 N 0.87649 0.00426 1.97549 0.0
N603 N 0.75487 0.96527 2.14517 0.0
H604 H 0.81287 0.05384 2.13247 0.0
H605 H 0.77773 0.02399 2.20487 0.0
H606 H 0.73816 0.94177 2.16308 0.0
H607 H 0.74522 0.97923 2.11826 0.0
H608 H 0.88405 0.98873 1.94323 0.0
H609 H 0.89133 0.02718 1.93546 0.0
H610 H 0.86117 0.94864 2.08602 0.0
H611 H 0.82348 0.91923 2.13255 0.0
C612 C -0.00726 0.81205 2.20431 0.0
C613 C 0.98091 0.81728 2.05292 0.0
C614 C 0.03036 0.83289 1.91631 0.0
C615 C 0.04381 0.83483 2.07599 0.0
N616 N 0.03474 0.80885 0.14131 0.0
N617 N -0.01299 0.82988 1.76012 0.0
C618 C 0.02406 0.81904 2.21132 0.0
C619 C -0.00091 0.82626 1.90618 0.0
N620 N 0.97433 0.80135 0.14409 0.0
N621 N 0.04687 0.83534 1.77549 0.0
H622 H 0.96391 0.82441 1.74864 0.0
H623 H 0.00026 0.83986 1.65353 0.0
H624 H 0.06833 0.83638 1.78105 0.0
H625 H 0.03773 0.83207 1.65503 0.0
H626 H -0.01732 0.80107 0.26312 0.0
H627 H 0.95071 0.79391 0.14143 0.0
H628 H 0.02089 0.79514 0.23913 0.0
H629 H 0.05647 0.81047 0.13745 0.0
C630 C 0.79027 0.7804 2.17087 0.0
C631 C 0.82054 0.80652 2.14093 0.0
C632 C 0.80307 0.84175 2.24359 0.0
C633 C 0.77183 0.81665 2.24478 0.0
N634 N 0.73506 0.76202 2.19409 0.0
N635 N 0.85273 0.86251 2.10767 0.0
C636 C 0.76524 0.78591 2.20307 0.0
C637 C 0.82595 0.83732 2.16468 0.0
N638 N 0.7855 0.75064 2.1787 0.0
N639 N 0.81129 0.86986 0.11945 0.0
H640 H 0.86939 0.86005 2.04093 0.0
H641 H 0.8565 0.88531 2.10956 0.0
H642 H 0.79585 0.87428 0.18474 0.0
H643 H 0.83445 0.88755 0.134 0.0
H644 H 0.76454 0.7315 2.21699 0.0
H645 H 0.80303 0.74523 2.1625 0.0
H646 H 0.72863 0.73995 2.14494 0.0
H647 H 0.71645 0.76495 2.22861 0.0
C648 C 0.14723 0.00733 0.14439 0.0
C649 C 0.16411 -0.00845 0.12134 0.0
C650 C 0.21141 0.0416 0.06513 0.0
C651 C 0.19348 0.05663 0.06504 0.0
N652 N 0.14386 0.05382 0.08932 0.0
N653 N 0.21151 -0.00704 2.23472 0.0
C654 C 0.16123 0.03951 0.1015 0.0
C655 C 0.19609 0.00848 0.07699 0.0
N656 N 0.11781 0.99133 0.208 0.0
N657 N 0.24319 0.05896 0.06036 0.0
H658 H 0.20182 0.96878 2.24489 0.0
H659 H 0.23339 0.00391 2.17934 0.0
H660 H 0.2555 0.08332 2.24936 0.0
H661 H 0.25744 0.04944 0.08065 0.0
H662 H 0.10505 0.00194 0.24174 0.0
H663 H 0.10734 0.96776 0.24177 0.0
H664 H 0.11972 0.04193 0.0988 0.0
H665 H 0.15337 0.07727 0.05509 0.0
C666 C -0.01761 0.21328 2.23753 0.0
C667 C 0.97811 0.18445 2.17208 0.0
C668 C 0.03323 0.20266 2.21902 0.0
C669 C 0.03821 0.23246 0.07044 0.0
N670 N 0.01883 0.26797 0.10681 0.0
N671 N 0.00042 0.15433 2.06752 0.0
C672 C 0.01314 0.23835 0.07378 0.0
C673 C 0.00391 0.18 2.15293 0.0
N674 N 0.95717 0.21625 0.07545 0.0
N675 N 0.05663 0.19597 2.2363 0.0
H676 H 0.97929 0.13772 2.01336 0.0
H677 H 0.01896 0.15119 2.03557 0.0
H678 H 0.0784 0.21206 0.08718 0.0
H679 H 0.05357 0.17369 2.2172 0.0
H680 H 0.95875 0.23531 0.14091 0.0
H681 H 0.93435 0.19872 2.24874 0.0
H682 H 0.00217 0.27467 0.0921 0.0
H683 H 0.04087 0.28632 0.1403 0.0
C684 C 0.8226 0.50526 0.90466 0.0
C685 C 0.83557 0.52861 0.77978 0.0
C686 C 0.85078 0.49631 0.61751 0.0
C687 C 0.83829 0.47317 0.74365 0.0
N688 N 0.82447 0.46244 1.03624 0.0
N689 N 0.87179 0.55119 0.55255 0.0
C690 C 0.82813 0.47982 0.89677 0.0
C691 C 0.85319 0.52576 0.64861 0.0
N692 N 0.80331 0.50581 1.02431 0.0
N693 N 0.85833 0.48971 0.46447 0.0
H694 H 0.87441 0.57324 0.57588 0.0
H695 H 0.88699 0.5511 0.46337 0.0
H696 H 0.85509 0.46779 0.43208 0.0
H697 H 0.86479 0.50506 0.36394 0.0
H698 H 0.79046 0.487 1.10403 0.0
H699 H 0.79807 0.52362 1.03683 0.0
H700 H 0.81987 0.46839 1.15371 0.0
H701 H 0.82968 0.44449 1.03932 0.0
C702 C 0.52935 0.34234 0.78697 0.0
C703 C 0.51042 0.35615 0.77553 0.0
C704 C 0.46417 0.30519 0.83132 0.0
C705 C 0.48367 0.29218 0.8603 0.0
N706 N 0.5352 0.30016 0.89948 0.0
N707 N 0.46053 0.35225 0.81449 0.0
C708 C 0.51642 0.31136 0.84798 0.0
C709 C 0.47799 0.33801 0.80484 0.0
N710 N 0.55969 0.35887 0.73709 0.0
N711 N 0.43258 0.28629 0.82087 0.0
H712 H 0.46951 0.37604 0.79113 0.0
H713 H 0.43766 0.3409 0.85706 0.0
H714 H 0.42093 0.26226 0.84217 0.0
H715 H 0.4179 0.29415 0.77815 0.0
H716 H 0.57394 0.34909 0.72784 0.0
H717 H 0.56964 0.3815 0.68875 0.0
H718 H 0.55932 0.31398 0.90798 0.0
H719 H 0.52639 0.27785 0.95052 0.0
C720 C 0.58568 0.07215 0.79128 0.0
C721 C 0.57262 0.03993 0.83038 0.0
C722 C 0.62506 0.04776 0.87181 0.0
C723 C 0.63781 0.08034 0.84401 0.0
N724 N 0.63037 0.12463 0.81322 0.0
N725 N 0.579 -0.00256 0.9286 0.0
C726 C 0.61807 0.09281 0.81424 0.0
C727 C 0.59209 0.02784 0.87721 0.0
N728 N 0.56712 0.08304 0.7314 0.0
N729 N 0.6444 0.03573 0.88642 0.0
H730 H 0.55503 0.98184 0.92475 0.0
H731 H 0.59164 0.98815 0.98264 0.0
H732 H 0.66859 0.0498 0.88782 0.0
H733 H 0.6366 0.0118 0.88767 0.0
H734 H 0.57574 0.10554 0.68425 0.0
H735 H 0.54317 0.06884 0.71477 0.0
H736 H 0.61694 0.13537 0.80928 0.0
H737 H 0.65399 0.14044 0.83358 0.0
C738 C 0.4282 0.06739 0.85233 0.0
C739 C 0.45805 0.07133 0.88281 0.0
C740 C 0.47678 0.125 0.98286 0.0
C741 C 0.44842 0.12255 0.93215 0.0
N742 N 0.39814 0.09266 0.79718 0.0
N743 N 0.51247 0.10571 0.94856 0.0
C744 C 0.42421 0.09399 0.86227 0.0
C745 C 0.48282 0.10066 0.9407 0.0
N746 N 0.40351 0.0382 0.81888 0.0
N747 N 0.49789 0.15068 1.07249 0.0
H748 H 0.51812 0.08881 0.91317 0.0
H749 H 0.5319 0.12757 0.97371 0.0
H750 H 0.49374 0.16869 1.10693 0.0
H751 H 0.51781 0.15256 1.12682 0.0
H752 H 0.38058 0.03336 0.81427 0.0
H753 H 0.40565 0.01829 0.80842 0.0
H754 H 0.38165 0.07376 0.72632 0.0
H755 H 0.39389 0.11127 0.80409 0.0
C756 C 0.75249 0.24963 0.66286 0.0
C757 C 0.76957 0.23617 0.72945 0.0
C758 C 0.81684 0.28803 0.73323 0.0
C759 C 0.80018 0.30093 0.65405 0.0
N760 N 0.75418 0.29276 0.51027 0.0
N761 N 0.81962 0.24151 0.79198 0.0
C762 C 0.76863 0.28119 0.60772 0.0
C763 C 0.80222 0.25503 0.75426 0.0
N764 N 0.7207 0.23262 0.659 0.0
N765 N 0.84592 0.3072 0.79785 0.0
H766 H 0.81007 0.21756 0.811 0.0
H767 H 0.84387 0.25379 0.79066 0.0
H768 H 0.85804 0.33144 0.78434 0.0
H769 H 0.85719 0.29918 0.87602 0.0
H770 H 0.70691 0.24215 0.62653 0.0
H771 H 0.70799 0.20984 0.70511 0.0
H772 H 0.732 0.27884 0.45957 0.0
H773 H 0.76576 0.31576 0.46626 0.0
C774 C 0.66172 0.49593 0.64371 0.0
C775 C 0.64358 0.50987 0.67873 0.0
C776 C 0.69065 0.56086 0.72469 0.0
C777 C 0.70851 0.54589 0.71034 0.0
N778 N 0.71144 0.49878 0.67629 0.0
N779 N 0.63937 0.55473 0.75785 0.0
C780 C 0.69417 0.51331 0.67421 0.0
C781 C 0.65766 0.54223 0.7191 0.0
N782 N 0.6477 0.46598 0.58143 0.0
N783 N 0.70527 0.59279 0.73995 0.0
H784 H 0.61519 0.54199 0.7456 0.0
H785 H 0.64792 0.57712 0.808 0.0
H786 H 0.72941 0.60694 0.74903 0.0
H787 H 0.69373 0.60545 0.73347 0.0
H788 H 0.65989 0.45529 0.53869 0.0
H789 H 0.62381 0.45287 0.55759 0.0
H790 H 0.70182 0.47457 0.66766 0.0
H791 H 0.73529 0.51063 0.70167 0.0
C792 C 0.45752 0.76012 1.50883 0.0
C793 C 0.48495 0.78949 1.48476 0.0
C794 C 0.45549 0.8162 1.5357 0.0
C795 C 0.42955 0.7873 1.58704 0.0
N796 N 0.40672 0.73192 1.63819 0.0
N797 N 0.51115 0.84628 1.505 0.0
C798 C 0.43072 0.75921 1.57697 0.0
C799 C 0.48427 0.81778 1.50475 0.0
N800 N 0.45723 0.73313 1.4656 0.0
N801 N 0.45255 0.84195 1.50902 0.0
H802 H 0.53305 0.84928 1.48234 0.0
H803 H 0.51195 0.867 1.54146 0.0
H804 H 0.4319 0.84215 1.526 0.0
H805 H 0.46986 0.86229 1.45287 0.0
H806 H 0.43723 0.71106 1.46635 0.0
H807 H 0.4765 0.73331 1.41297 0.0
H808 H 0.40752 0.71132 1.64915 0.0
H809 H 0.38707 0.73064 1.69256 0.0
C810 C 0.06563 0.6505 1.26712 0.0
C811 C 0.0557 0.66591 1.37823 0.0
C812 C 0.01822 0.61472 1.49849 0.0
C813 C 0.03463 0.60157 1.41983 0.0
N814 N 0.07745 0.60903 1.24306 0.0
N815 N 0.01683 0.66211 1.5696 0.0
C816 C 0.05902 0.61985 1.30587 0.0
C817 C 0.02981 0.64763 1.48347 0.0
N818 N 0.08101 0.66487 1.1243 0.0
N819 N -0.00844 0.59576 1.58437 0.0
H820 H 0.0231 0.68536 1.54604 0.0
H821 H 0.00032 0.65149 1.66311 0.0
H822 H -0.01739 0.57166 1.59562 0.0
H823 H 0.97718 0.6033 1.63497 0.0
H824 H 0.08712 0.65361 1.03424 0.0
H825 H 0.0833 0.68607 1.0852 0.0
H826 H 0.09719 0.62297 1.17197 0.0
H827 H 0.07535 0.58768 1.27705 0.0
C828 C 0.36743 0.52191 1.54707 0.0
C829 C 0.3883 0.55451 1.57267 0.0
C830 C 0.34736 0.56553 1.48949 0.0
C831 C 0.32556 0.53292 1.48376 0.0
N832 N 0.31377 0.47994 1.54193 0.0
N833 N 0.3964 0.60679 1.60073 0.0
C834 C 0.33524 0.51098 1.52157 0.0
C835 C 0.37769 0.57615 1.55345 0.0
N836 N 0.37832 0.50143 1.53923 0.0
N837 N 0.33914 0.58633 1.43081 0.0
H838 H 0.41843 0.61512 1.65345 0.0
H839 H 0.38889 0.62304 1.60402 0.0
H840 H 0.31725 0.57913 1.37912 0.0
H841 H 0.35489 0.61021 1.4175 0.0
H842 H 0.36453 0.47811 1.50146 0.0
H843 H 0.40164 0.5082 1.55626 0.0
H844 H 0.31946 0.4638 1.589 0.0
H845 H 0.28993 0.47066 1.52563 0.0
C846 C 0.16247 0.54383 1.40753 0.0
C847 C 0.16369 0.51709 1.4592 0.0
C848 C 0.11028 0.49308 1.56384 0.0
C849 C 0.10975 0.52068 1.52249 0.0
N850 N 0.13734 0.57484 1.43759 0.0
N851 N 0.14232 0.47094 1.63326 0.0
C852 C 0.13653 0.54687 1.45405 0.0
C853 C 0.13861 0.49299 1.55058 0.0
N854 N 0.1858 0.56596 1.31136 0.0
N855 N 0.08357 0.46641 1.60843 0.0
H856 H 0.16315 0.47077 1.63382 0.0
H857 H 0.12589 0.45498 1.716 0.0
H858 H 0.06212 0.46516 1.6199 0.0
H859 H 0.08225 0.44474 1.62024 0.0
H860 H 0.18485 0.58449 1.25585 0.0
H861 H 0.20504 0.56423 1.27534 0.0
H862 H 0.15714 0.59557 1.40269 0.0
H863 H 0.11899 0.57798 1.47496 0.0
C864 C 0.54366 0.68633 1.84436 0.0
C865 C 0.55202 0.6701 1.73041 0.0
C866 C 0.59133 0.72009 1.60965 0.0
C867 C 0.57686 0.73492 1.69142 0.0
N868 N 0.53711 0.73105 1.88329 0.0
N869 N 0.58717 0.67069 1.52423 0.0
C870 C 0.55305 0.71809 1.81196 0.0
C871 C 0.57758 0.68696 1.62202 0.0
N872 N 0.52555 0.67092 1.9783 0.0
N873 N 0.61779 0.73767 1.51955 0.0
H874 H 0.57806 0.64659 1.53862 0.0
H875 H 0.60322 0.68063 1.42801 0.0
H876 H 0.62821 0.76201 1.51021 0.0
H877 H 0.63074 0.72869 1.46572 0.0
H878 H 0.52059 0.68219 2.07366 0.0
H879 H 0.51871 0.6476 2.0033 0.0
H880 H 0.51734 0.71828 1.956 0.0
H881 H 0.54138 0.75354 1.85878 0.0
C882 C 0.21346 0.7246 1.63479 0.0
C883 C 0.21038 0.75099 1.59681 0.0
C884 C 0.25799 0.78485 1.75613 0.0
C885 C 0.26495 0.76043 1.75781 0.0
N886 N 0.24646 0.70521 1.74342 0.0
N887 N 0.23017 0.80687 1.61854 0.0
C888 C 0.24144 0.72951 1.71264 0.0
C889 C 0.23279 0.78132 1.65685 0.0
N890 N 0.18972 0.69512 1.59584 0.0
N891 N 0.27444 0.81066 1.85581 0.0
H892 H 0.2118 0.80545 1.54856 0.0
H893 H 0.24756 0.82982 1.64519 0.0
H894 H 0.29049 0.81194 1.94418 0.0
H895 H 0.26892 0.82832 1.86878 0.0
H896 H 0.18919 0.67455 1.62984 0.0
H897 H 0.16972 0.69112 1.532 0.0
H898 H 0.23218 0.68232 1.70116 0.0
H899 H 0.26552 0.7084 1.81427 0.0
loop_
_geom_bond_atom_site_label_1
_geom_bond_atom_site_label_2
_geom_bond_distance
_geom_bond_site_symmetry_2
_ccdc_geom_bond_type
Zn0 O3 2.031 . S
Zn0 O5 2.049 . S
Zn0 O10 2.067 . S
Zn1 O2 1.962 . S
Zn1 O4 1.986 . S
Zn1 O6 1.996 . S
Zn1 O9 1.943 . S
O2 Zn1 1.962 . S
O2 C7 1.254 . S
O3 Zn0 2.031 . S
O3 C7 1.269 1_556 S
O4 Zn1 1.986 . S
O4 C11 1.262 . S
O5 Zn0 2.049 . S
O5 C13 1.260 1_556 S
O6 Zn1 1.996 . S
O6 C13 1.257 . S
C7 O2 1.254 . S
C7 O3 1.269 1_554 S
C8 O9 1.249 1_556 S
C8 O10 1.270 . S
O9 Zn1 1.943 . S
O9 C8 1.249 1_554 S
O10 Zn0 2.067 . S
O10 C8 1.270 . S
C11 O4 1.262 . S
C11 O12 1.232 . S
O12 C11 1.232 . S
C13 O5 1.260 1_554 S
C13 O6 1.257 . S
Zn14 O17 2.031 . S
Zn14 O19 2.049 . S
Zn14 O24 2.067 . S
Zn15 O16 1.962 . S
Zn15 O18 1.986 . S
Zn15 O20 1.996 . S
Zn15 O23 1.943 . S
O16 Zn15 1.962 . S
O16 C21 1.254 . S
O17 Zn14 2.031 . S
O17 C21 1.269 1_556 S
O18 Zn15 1.986 . S
O18 C25 1.262 . S
O19 Zn14 2.049 . S
O19 C27 1.260 1_556 S
O20 Zn15 1.996 . S
O20 C27 1.257 . S
C21 O16 1.254 . S
C21 O17 1.269 1_554 S
C22 O23 1.249 1_556 S
C22 O24 1.270 . S
O23 Zn15 1.943 . S
O23 C22 1.249 1_554 S
O24 Zn14 2.067 . S
O24 C22 1.270 . S
C25 O18 1.262 . S
C25 O26 1.232 . S
O26 C25 1.232 . S
C27 O19 1.260 1_554 S
C27 O20 1.257 . S
Zn28 O31 2.031 . S
Zn28 O33 2.049 . S
Zn28 O38 2.067 . S
Zn29 O30 1.962 . S
Zn29 O32 1.986 . S
Zn29 O34 1.996 . S
Zn29 O37 1.943 . S
O30 Zn29 1.962 . S
O30 C35 1.254 . S
O31 Zn28 2.031 . S
O31 C35 1.269 1_556 S
O32 Zn29 1.986 . S
O32 C39 1.262 . S
O33 Zn28 2.049 . S
O33 C41 1.260 1_556 S
O34 Zn29 1.996 . S
O34 C41 1.257 . S
C35 O30 1.254 . S
C35 O31 1.269 1_554 S
C36 O37 1.249 1_556 S
C36 O38 1.270 . S
O37 Zn29 1.943 . S
O37 C36 1.249 1_554 S
O38 Zn28 2.067 . S
O38 C36 1.270 . S
C39 O32 1.262 . S
C39 O40 1.232 . S
O40 C39 1.232 . S
C41 O33 1.260 1_554 S
C41 O34 1.257 . S
Zn42 O45 2.031 . S
Zn42 O47 2.049 . S
Zn42 O52 2.067 . S
Zn43 O44 1.962 . S
Zn43 O46 1.986 . S
Zn43 O48 1.996 . S
Zn43 O51 1.943 . S
O44 Zn43 1.962 . S
O44 C49 1.254 . S
O45 Zn42 2.031 . S
O45 C49 1.269 1_554 S
O46 Zn43 1.986 . S
O46 C53 1.262 . S
O47 Zn42 2.049 . S
O47 C55 1.260 1_554 S
O48 Zn43 1.996 . S
O48 C55 1.257 . S
C49 O44 1.254 . S
C49 O45 1.269 1_556 S
C50 O51 1.249 1_554 S
C50 O52 1.270 . S
O51 Zn43 1.943 . S
O51 C50 1.249 1_556 S
O52 Zn42 2.067 . S
O52 C50 1.270 . S
C53 O46 1.262 . S
C53 O54 1.232 . S
O54 C53 1.232 . S
C55 O47 1.260 1_556 S
C55 O48 1.257 . S
Zn56 O59 2.031 . S
Zn56 O61 2.049 . S
Zn56 O66 2.067 . S
Zn57 O58 1.962 . S
Zn57 O60 1.986 . S
Zn57 O62 1.996 . S
Zn57 O65 1.943 . S
O58 Zn57 1.962 . S
O58 C63 1.254 . S
O59 Zn56 2.031 . S
O59 C63 1.269 1_554 S
O60 Zn57 1.986 . S
O60 C67 1.262 . S
O61 Zn56 2.049 . S
O61 C69 1.260 1_554 S
O62 Zn57 1.996 . S
O62 C69 1.257 . S
C63 O58 1.254 . S
C63 O59 1.269 1_556 S
C64 O65 1.249 1_554 S
C64 O66 1.270 . S
O65 Zn57 1.943 . S
O65 C64 1.249 1_556 S
O66 Zn56 2.067 . S
O66 C64 1.270 . S
C67 O60 1.262 . S
C67 O68 1.232 . S
O68 C67 1.232 . S
C69 O61 1.260 1_556 S
C69 O62 1.257 . S
Zn70 O73 2.031 . S
Zn70 O75 2.049 . S
Zn70 O80 2.067 . S
Zn71 O72 1.962 . S
Zn71 O74 1.986 . S
Zn71 O76 1.996 . S
Zn71 O79 1.943 . S
O72 Zn71 1.962 . S
O72 C77 1.254 . S
O73 Zn70 2.031 . S
O73 C77 1.269 1_554 S
O74 Zn71 1.986 . S
O74 C81 1.262 . S
O75 Zn70 2.049 . S
O75 C83 1.260 1_554 S
O76 Zn71 1.996 . S
O76 C83 1.257 . S
C77 O72 1.254 . S
C77 O73 1.269 1_556 S
C78 O79 1.249 1_554 S
C78 O80 1.270 . S
O79 Zn71 1.943 . S
O79 C78 1.249 1_556 S
O80 Zn70 2.067 . S
O80 C78 1.270 . S
C81 O74 1.262 . S
C81 O82 1.232 . S
O82 C81 1.232 . S
C83 O75 1.260 1_556 S
C83 O76 1.257 . S
Zn84 O87 2.031 . S
Zn84 O89 2.049 . S
Zn84 O94 2.067 . S
Zn85 O86 1.962 . S
Zn85 O88 1.986 . S
Zn85 O90 1.996 . S
Zn85 O93 1.943 . S
O86 Zn85 1.962 . S
O86 C91 1.254 . S
O87 Zn84 2.031 . S
O87 C91 1.269 . S
O88 Zn85 1.986 . S
O88 C95 1.262 . S
O89 Zn84 2.049 . S
O89 C97 1.260 . S
O90 Zn85 1.996 . S
O90 C97 1.257 . S
C91 O86 1.254 . S
C91 O87 1.269 . S
C92 O93 1.249 . S
C92 O94 1.270 . S
O93 Zn85 1.943 . S
O93 C92 1.249 . S
O94 Zn84 2.067 . S
O94 C92 1.270 . S
C95 O88 1.262 . S
C95 O96 1.232 . S
O96 C95 1.232 . S
C97 O89 1.260 . S
C97 O90 1.257 . S
Zn98 O101 2.031 . S
Zn98 O103 2.049 . S
Zn98 O108 2.067 . S
Zn99 O100 1.962 . S
Zn99 O102 1.986 . S
Zn99 O104 1.996 . S
Zn99 O107 1.943 . S
O100 Zn99 1.962 . S
O100 C105 1.254 . S
O101 Zn98 2.031 . S
O101 C105 1.269 . S
O102 Zn99 1.986 . S
O102 C109 1.262 . S
O103 Zn98 2.049 . S
O103 C111 1.260 . S
O104 Zn99 1.996 . S
O104 C111 1.257 . S
C105 O100 1.254 . S
C105 O101 1.269 . S
C106 O107 1.249 . S
C106 O108 1.270 . S
O107 Zn99 1.943 . S
O107 C106 1.249 . S
O108 Zn98 2.067 . S
O108 C106 1.270 . S
C109 O102 1.262 . S
C109 O110 1.232 . S
O110 C109 1.232 . S
C111 O103 1.260 . S
C111 O104 1.257 . S
Zn112 O115 2.031 . S
Zn112 O117 2.049 . S
Zn112 O122 2.067 . S
Zn113 O114 1.962 . S
Zn113 O116 1.986 . S
Zn113 O118 1.996 . S
Zn113 O121 1.943 . S
O114 Zn113 1.962 . S
O114 C119 1.254 . S
O115 Zn112 2.031 . S
O115 C119 1.269 . S
O116 Zn113 1.986 . S
O116 C123 1.262 . S
O117 Zn112 2.049 . S
O117 C125 1.260 . S
O118 Zn113 1.996 . S
O118 C125 1.257 . S
C119 O114 1.254 . S
C119 O115 1.269 . S
C120 O121 1.249 . S
C120 O122 1.270 . S
O121 Zn113 1.943 . S
O121 C120 1.249 . S
O122 Zn112 2.067 . S
O122 C120 1.270 . S
C123 O116 1.262 . S
C123 O124 1.232 . S
O124 C123 1.232 . S
C125 O117 1.260 . S
C125 O118 1.257 . S
Zn126 O129 2.031 . S
Zn126 O131 2.049 . S
Zn126 O136 2.067 . S
Zn127 O128 1.962 . S
Zn127 O130 1.986 . S
Zn127 O132 1.996 . S
Zn127 O135 1.943 . S
O128 Zn127 1.962 . S
O128 C133 1.254 . S
O129 Zn126 2.031 . S
O129 C133 1.269 . S
O130 Zn127 1.986 . S
O130 C137 1.262 . S
O131 Zn126 2.049 . S
O131 C139 1.260 . S
O132 Zn127 1.996 . S
O132 C139 1.257 . S
C133 O128 1.254 . S
C133 O129 1.269 . S
C134 O135 1.249 . S
C134 O136 1.270 . S
O135 Zn127 1.943 . S
O135 C134 1.249 . S
O136 Zn126 2.067 . S
O136 C134 1.270 . S
C137 O130 1.262 . S
C137 O138 1.232 . S
O138 C137 1.232 . S
C139 O131 1.260 . S
C139 O132 1.257 . S
Zn140 O143 2.031 . S
Zn140 O145 2.049 . S
Zn140 O150 2.067 . S
Zn141 O142 1.962 . S
Zn141 O144 1.986 . S
Zn141 O146 1.996 . S
Zn141 O149 1.943 . S
O142 Zn141 1.962 . S
O142 C147 1.254 . S
O143 Zn140 2.031 . S
O143 C147 1.269 . S
O144 Zn141 1.986 . S
O144 C151 1.262 . S
O145 Zn140 2.049 . S
O145 C153 1.260 . S
O146 Zn141 1.996 . S
O146 C153 1.257 . S
C147 O142 1.254 . S
C147 O143 1.269 . S
C148 O149 1.249 . S
C148 O150 1.270 . S
O149 Zn141 1.943 . S
O149 C148 1.249 . S
O150 Zn140 2.067 . S
O150 C148 1.270 . S
C151 O144 1.262 . S
C151 O152 1.232 . S
O152 C151 1.232 . S
C153 O145 1.260 . S
C153 O146 1.257 . S
Zn154 O157 2.031 . S
Zn154 O159 2.049 . S
Zn154 O164 2.067 . S
Zn155 O156 1.962 . S
Zn155 O158 1.986 . S
Zn155 O160 1.996 . S
Zn155 O163 1.943 . S
O156 Zn155 1.962 . S
O156 C161 1.254 . S
O157 Zn154 2.031 . S
O157 C161 1.269 . S
O158 Zn155 1.986 . S
O158 C165 1.262 . S
O159 Zn154 2.049 . S
O159 C167 1.260 . S
O160 Zn155 1.996 . S
O160 C167 1.257 . S
C161 O156 1.254 . S
C161 O157 1.269 . S
C162 O163 1.249 . S
C162 O164 1.270 . S
O163 Zn155 1.943 . S
O163 C162 1.249 . S
O164 Zn154 2.067 . S
O164 C162 1.270 . S
C165 O158 1.262 . S
C165 O166 1.232 . S
O166 C165 1.232 . S
C167 O159 1.260 . S
C167 O160 1.257 . S
Zn168 O171 2.031 . S
Zn168 O173 2.049 . S
Zn168 O178 2.067 . S
Zn169 O170 1.962 . S
Zn169 O172 1.986 . S
Zn169 O174 1.996 . S
Zn169 O177 1.943 . S
O170 Zn169 1.962 . S
O170 C175 1.254 . S
O171 Zn168 2.031 . S
O171 C175 1.269 . S
O172 Zn169 1.986 . S
O172 C179 1.262 . S
O173 Zn168 2.049 . S
O173 C181 1.260 . S
O174 Zn169 1.996 . S
O174 C181 1.257 . S
C175 O170 1.254 . S
C175 O171 1.269 . S
C176 O177 1.249 . S
C176 O178 1.270 . S
O177 Zn169 1.943 . S
O177 C176 1.249 . S
O178 Zn168 2.067 . S
O178 C176 1.270 . S
C179 O172 1.262 . S
C179 O180 1.232 . S
O180 C179 1.232 . S
C181 O173 1.260 . S
C181 O174 1.257 . S
Zn182 O185 2.031 . S
Zn182 O187 2.049 . S
Zn182 O192 2.067 . S
Zn183 O184 1.962 . S
Zn183 O186 1.986 . S
Zn183 O188 1.996 . S
Zn183 O191 1.943 . S
O184 Zn183 1.962 . S
O184 C189 1.254 . S
O185 Zn182 2.031 . S
O185 C189 1.269 . S
O186 Zn183 1.986 . S
O186 C193 1.262 . S
O187 Zn182 2.049 . S
O187 C195 1.260 . S
O188 Zn183 1.996 . S
O188 C195 1.257 . S
C189 O184 1.254 . S
C189 O185 1.269 . S
C190 O191 1.249 . S
C190 O192 1.270 . S
O191 Zn183 1.943 . S
O191 C190 1.249 . S
O192 Zn182 2.067 . S
O192 C190 1.270 . S
C193 O186 1.262 . S
C193 O194 1.232 . S
O194 C193 1.232 . S
C195 O187 1.260 . S
C195 O188 1.257 . S
Zn196 O199 2.031 . S
Zn196 O201 2.049 . S
Zn196 O206 2.067 . S
Zn197 O198 1.962 . S
Zn197 O200 1.986 . S
Zn197 O202 1.996 . S
Zn197 O205 1.943 . S
O198 Zn197 1.962 . S
O198 C203 1.254 . S
O199 Zn196 2.031 . S
O199 C203 1.269 . S
O200 Zn197 1.986 . S
O200 C207 1.262 . S
O201 Zn196 2.049 . S
O201 C209 1.260 . S
O202 Zn197 1.996 . S
O202 C209 1.257 . S
C203 O198 1.254 . S
C203 O199 1.269 . S
C204 O205 1.249 . S
C204 O206 1.270 . S
O205 Zn197 1.943 . S
O205 C204 1.249 . S
O206 Zn196 2.067 . S
O206 C204 1.270 . S
C207 O200 1.262 . S
C207 O208 1.232 . S
O208 C207 1.232 . S
C209 O201 1.260 . S
C209 O202 1.257 . S
Zn210 O213 2.031 . S
Zn210 O215 2.049 . S
Zn210 O220 2.067 . S
Zn211 O212 1.962 . S
Zn211 O214 1.986 . S
Zn211 O216 1.996 . S
Zn211 O219 1.943 . S
O212 Zn211 1.962 . S
O212 C217 1.254 . S
O213 Zn210 2.031 . S
O213 C217 1.269 . S
O214 Zn211 1.986 . S
O214 C221 1.262 . S
O215 Zn210 2.049 . S
O215 C223 1.260 . S
O216 Zn211 1.996 . S
O216 C223 1.257 . S
C217 O212 1.254 . S
C217 O213 1.269 . S
C218 O219 1.249 . S
C218 O220 1.270 . S
O219 Zn211 1.943 . S
O219 C218 1.249 . S
O220 Zn210 2.067 . S
O220 C218 1.270 . S
C221 O214 1.262 . S
C221 O222 1.232 . S
O222 C221 1.232 . S
C223 O215 1.260 . S
C223 O216 1.257 . S
Zn224 O227 2.031 . S
Zn224 O229 2.049 . S
Zn224 O234 2.067 . S
Zn225 O226 1.962 . S
Zn225 O228 1.986 . S
Zn225 O230 1.996 . S
Zn225 O233 1.943 . S
O226 Zn225 1.962 . S
O226 C231 1.254 . S
O227 Zn224 2.031 . S
O227 C231 1.269 . S
O228 Zn225 1.986 . S
O228 C235 1.262 . S
O229 Zn224 2.049 . S
O229 C237 1.260 . S
O230 Zn225 1.996 . S
O230 C237 1.257 . S
C231 O226 1.254 . S
C231 O227 1.269 . S
C232 O233 1.249 . S
C232 O234 1.270 . S
O233 Zn225 1.943 . S
O233 C232 1.249 . S
O234 Zn224 2.067 . S
O234 C232 1.270 . S
C235 O228 1.262 . S
C235 O236 1.232 . S
O236 C235 1.232 . S
C237 O229 1.260 . S
C237 O230 1.257 . S
Zn238 O241 2.031 . S
Zn238 O243 2.049 . S
Zn238 O248 2.067 . S
Zn239 O240 1.962 . S
Zn239 O242 1.986 . S
Zn239 O244 1.996 . S
Zn239 O247 1.943 . S
O240 Zn239 1.962 . S
O240 C245 1.254 . S
O241 Zn238 2.031 . S
O241 C245 1.269 . S
O242 Zn239 1.986 . S
O242 C249 1.262 . S
O243 Zn238 2.049 . S
O243 C251 1.260 . S
O244 Zn239 1.996 . S
O244 C251 1.257 . S
C245 O240 1.254 . S
C245 O241 1.269 . S
C246 O247 1.249 . S
C246 O248 1.270 . S
O247 Zn239 1.943 . S
O247 C246 1.249 . S
O248 Zn238 2.067 . S
O248 C246 1.270 . S
C249 O242 1.262 . S
C249 O250 1.232 . S
O250 C249 1.232 . S
C251 O243 1.260 . S
C251 O244 1.257 . S
C252 C253 1.363 . S
C252 C258 1.379 . S
C252 N260 1.356 . S
C253 C252 1.363 . S
C253 C259 1.363 . S
C254 C255 1.363 . S
C254 C259 1.379 . S
C254 N261 1.356 . S
C255 C254 1.363 . S
C255 C258 1.363 . S
N256 C258 1.356 . S
N256 H268 0.984 . S
N256 H269 0.985 . S
N257 C259 1.356 . S
N257 H262 0.984 . S
N257 H263 0.985 . S
C258 C252 1.379 . S
C258 C255 1.363 . S
C258 N256 1.356 . S
C259 C253 1.363 . S
C259 C254 1.379 . S
C259 N257 1.356 . S
N260 C252 1.356 . S
N260 H266 0.984 . S
N260 H267 0.984 . S
N261 C254 1.356 . S
N261 H264 0.984 . S
N261 H265 0.985 . S
H262 N257 0.984 . S
H263 N257 0.985 . S
H264 N261 0.984 . S
H265 N261 0.985 . S
H266 N260 0.984 . S
H267 N260 0.984 . S
H268 N256 0.984 . S
H269 N256 0.985 . S
C270 C271 1.363 . S
C270 C276 1.379 . S
C270 N278 1.356 . S
C271 C270 1.363 . S
C271 C277 1.363 . S
C272 C273 1.363 . S
C272 C277 1.379 . S
C272 N279 1.356 . S
C273 C272 1.363 . S
C273 C276 1.363 . S
N274 C276 1.356 . S
N274 H286 0.984 . S
N274 H287 0.985 . S
N275 C277 1.356 . S
N275 H280 0.984 . S
N275 H281 0.985 . S
C276 C270 1.379 . S
C276 C273 1.363 . S
C276 N274 1.356 . S
C277 C271 1.363 . S
C277 C272 1.379 . S
C277 N275 1.356 . S
N278 C270 1.356 . S
N278 H284 0.984 . S
N278 H285 0.984 . S
N279 C272 1.356 . S
N279 H282 0.984 . S
N279 H283 0.985 . S
H280 N275 0.984 . S
H281 N275 0.985 . S
H282 N279 0.984 . S
H283 N279 0.985 . S
H284 N278 0.984 . S
H285 N278 0.984 . S
H286 N274 0.984 . S
H287 N274 0.985 . S
C288 C289 1.363 . S
C288 C294 1.379 . S
C288 N296 1.356 . S
C289 C288 1.363 . S
C289 C295 1.363 . S
C290 C291 1.363 . S
C290 C295 1.379 . S
C290 N297 1.356 . S
C291 C290 1.363 . S
C291 C294 1.363 . S
N292 C294 1.356 . S
N292 H304 0.984 . S
N292 H305 0.985 . S
N293 C295 1.356 . S
N293 H298 0.984 . S
N293 H299 0.985 . S
C294 C288 1.379 . S
C294 C291 1.363 . S
C294 N292 1.356 . S
C295 C289 1.363 . S
C295 C290 1.379 . S
C295 N293 1.356 . S
N296 C288 1.356 . S
N296 H302 0.984 . S
N296 H303 0.984 . S
N297 C290 1.356 . S
N297 H300 0.984 . S
N297 H301 0.985 . S
H298 N293 0.984 . S
H299 N293 0.985 . S
H300 N297 0.984 . S
H301 N297 0.985 . S
H302 N296 0.984 . S
H303 N296 0.984 . S
H304 N292 0.984 . S
H305 N292 0.985 . S
C306 C307 1.363 . S
C306 C312 1.379 . S
C306 N314 1.356 . S
C307 C306 1.363 . S
C307 C313 1.363 . S
C308 C309 1.363 . S
C308 C313 1.379 . S
C308 N315 1.356 . S
C309 C308 1.363 . S
C309 C312 1.363 . S
N310 C312 1.356 . S
N310 H322 0.984 . S
N310 H323 0.985 . S
N311 C313 1.356 . S
N311 H316 0.984 . S
N311 H317 0.985 . S
C312 C306 1.379 . S
C312 C309 1.363 . S
C312 N310 1.356 . S
C313 C307 1.363 . S
C313 C308 1.379 . S
C313 N311 1.356 . S
N314 C306 1.356 . S
N314 H320 0.984 . S
N314 H321 0.984 . S
N315 C308 1.356 . S
N315 H318 0.984 . S
N315 H319 0.985 . S
H316 N311 0.984 . S
H317 N311 0.985 . S
H318 N315 0.984 . S
H319 N315 0.985 . S
H320 N314 0.984 . S
H321 N314 0.984 . S
H322 N310 0.984 . S
H323 N310 0.985 . S
C324 C325 1.363 . S
C324 C330 1.379 . S
C324 N332 1.356 . S
C325 C324 1.363 . S
C325 C331 1.363 . S
C326 C327 1.363 . S
C326 C331 1.379 . S
C326 N333 1.356 . S
C327 C326 1.363 . S
C327 C330 1.363 . S
N328 C330 1.356 . S
N328 H340 0.984 . S
N328 H341 0.985 . S
N329 C331 1.356 . S
N329 H334 0.984 . S
N329 H335 0.985 . S
C330 C324 1.379 . S
C330 C327 1.363 . S
C330 N328 1.356 . S
C331 C325 1.363 . S
C331 C326 1.379 . S
C331 N329 1.356 . S
N332 C324 1.356 . S
N332 H338 0.984 . S
N332 H339 0.984 . S
N333 C326 1.356 . S
N333 H336 0.984 . S
N333 H337 0.985 . S
H334 N329 0.984 . S
H335 N329 0.985 . S
H336 N333 0.984 . S
H337 N333 0.985 . S
H338 N332 0.984 . S
H339 N332 0.984 . S
H340 N328 0.984 . S
H341 N328 0.985 . S
C342 C343 1.363 . S
C342 C348 1.379 . S
C342 N350 1.356 . S
C343 C342 1.363 . S
C343 C349 1.363 . S
C344 C345 1.363 . S
C344 C349 1.379 . S
C344 N351 1.356 . S
C345 C344 1.363 . S
C345 C348 1.363 . S
N346 C348 1.356 . S
N346 H358 0.984 . S
N346 H359 0.985 . S
N347 C349 1.356 . S
N347 H352 0.984 . S
N347 H353 0.985 . S
C348 C342 1.379 . S
C348 C345 1.363 . S
C348 N346 1.356 . S
C349 C343 1.363 . S
C349 C344 1.379 . S
C349 N347 1.356 . S
N350 C342 1.356 . S
N350 H356 0.984 . S
N350 H357 0.984 . S
N351 C344 1.356 . S
N351 H354 0.984 . S
N351 H355 0.985 . S
H352 N347 0.984 . S
H353 N347 0.985 . S
H354 N351 0.984 . S
H355 N351 0.985 . S
H356 N350 0.984 . S
H357 N350 0.984 . S
H358 N346 0.984 . S
H359 N346 0.985 . S
C360 C361 1.363 . S
C360 C366 1.379 1_654 S
C360 N368 1.356 . S
C361 C360 1.363 . S
C361 C367 1.363 . S
C362 C363 1.363 . S
C362 C367 1.379 1_456 S
C362 N369 1.356 . S
C363 C362 1.363 . S
C363 C366 1.363 . S
N364 C366 1.356 . S
N364 H376 0.984 . S
N364 H377 0.985 . S
N365 C367 1.356 . S
N365 H370 0.984 . S
N365 H371 0.985 . S
C366 C360 1.379 1_456 S
C366 C363 1.363 . S
C366 N364 1.356 . S
C367 C361 1.363 . S
C367 C362 1.379 1_654 S
C367 N365 1.356 . S
N368 C360 1.356 . S
N368 H374 0.984 . S
N368 H375 0.984 . S
N369 C362 1.356 . S
N369 H372 0.984 . S
N369 H373 0.985 . S
H370 N365 0.984 . S
H371 N365 0.985 . S
H372 N369 0.984 . S
H373 N369 0.985 . S
H374 N368 0.984 . S
H375 N368 0.984 . S
H376 N364 0.984 . S
H377 N364 0.985 . S
C378 C379 1.363 . S
C378 C384 1.379 1_554 S
C378 N386 1.356 . S
C379 C378 1.363 . S
C379 C385 1.363 . S
C380 C381 1.363 . S
C380 C385 1.379 1_556 S
C380 N387 1.356 . S
C381 C380 1.363 . S
C381 C384 1.363 . S
N382 C384 1.356 . S
N382 H394 0.984 . S
N382 H395 0.985 . S
N383 C385 1.356 . S
N383 H388 0.984 . S
N383 H389 0.985 . S
C384 C378 1.379 1_556 S
C384 C381 1.363 . S
C384 N382 1.356 . S
C385 C379 1.363 . S
C385 C380 1.379 1_554 S
C385 N383 1.356 . S
N386 C378 1.356 . S
N386 H392 0.984 . S
N386 H393 0.984 . S
N387 C380 1.356 . S
N387 H390 0.984 . S
N387 H391 0.985 . S
H388 N383 0.984 . S
H389 N383 0.985 . S
H390 N387 0.984 . S
H391 N387 0.985 . S
H392 N386 0.984 . S
H393 N386 0.984 . S
H394 N382 0.984 . S
H395 N382 0.985 . S
C396 C397 1.363 . S
C396 C402 1.379 1_554 S
C396 N404 1.356 . S
C397 C396 1.363 . S
C397 C403 1.363 1_545 S
C398 C399 1.363 . S
C398 C403 1.379 1_556 S
C398 N405 1.356 . S
C399 C398 1.363 . S
C399 C402 1.363 1_565 S
N400 C402 1.356 . S
N400 H412 0.984 . S
N400 H413 0.985 1_545 S
N401 C403 1.356 . S
N401 H406 0.984 1_565 S
N401 H407 0.985 . S
C402 C396 1.379 1_556 S
C402 C399 1.363 1_545 S
C402 N400 1.356 . S
C403 C397 1.363 1_565 S
C403 C398 1.379 1_554 S
C403 N401 1.356 . S
N404 C396 1.356 . S
N404 H410 0.984 . S
N404 H411 0.984 . S
N405 C398 1.356 . S
N405 H408 0.984 . S
N405 H409 0.985 . S
H406 N401 0.984 1_545 S
H407 N401 0.985 . S
H408 N405 0.984 . S
H409 N405 0.985 . S
H410 N404 0.984 . S
H411 N404 0.984 . S
H412 N400 0.984 . S
H413 N400 0.985 1_565 S
C414 C415 1.363 . S
C414 C420 1.379 . S
C414 N422 1.356 . S
C415 C414 1.363 . S
C415 C421 1.363 . S
C416 C417 1.363 . S
C416 C421 1.379 . S
C416 N423 1.356 . S
C417 C416 1.363 . S
C417 C420 1.363 . S
N418 C420 1.356 . S
N418 H430 0.984 . S
N418 H431 0.985 . S
N419 C421 1.356 . S
N419 H424 0.984 . S
N419 H425 0.985 . S
C420 C414 1.379 . S
C420 C417 1.363 . S
C420 N418 1.356 . S
C421 C415 1.363 . S
C421 C416 1.379 . S
C421 N419 1.356 . S
N422 C414 1.356 . S
N422 H428 0.984 . S
N422 H429 0.984 . S
N423 C416 1.356 . S
N423 H426 0.984 . S
N423 H427 0.985 . S
H424 N419 0.984 . S
H425 N419 0.985 . S
H426 N423 0.984 . S
H427 N423 0.985 . S
H428 N422 0.984 . S
H429 N422 0.984 . S
H430 N418 0.984 . S
H431 N418 0.985 . S
C432 C433 1.363 . S
C432 C438 1.379 . S
C432 N440 1.356 . S
C433 C432 1.363 . S
C433 C439 1.363 . S
C434 C435 1.363 . S
C434 C439 1.379 . S
C434 N441 1.356 . S
C435 C434 1.363 . S
C435 C438 1.363 . S
N436 C438 1.356 . S
N436 H448 0.984 . S
N436 H449 0.985 . S
N437 C439 1.356 . S
N437 H442 0.984 . S
N437 H443 0.985 . S
C438 C432 1.379 . S
C438 C435 1.363 . S
C438 N436 1.356 . S
C439 C433 1.363 . S
C439 C434 1.379 . S
C439 N437 1.356 . S
N440 C432 1.356 . S
N440 H446 0.984 . S
N440 H447 0.984 . S
N441 C434 1.356 . S
N441 H444 0.984 . S
N441 H445 0.985 . S
H442 N437 0.984 . S
H443 N437 0.985 . S
H444 N441 0.984 . S
H445 N441 0.985 . S
H446 N440 0.984 . S
H447 N440 0.984 . S
H448 N436 0.984 . S
H449 N436 0.985 . S
C450 C451 1.363 . S
C450 C456 1.379 . S
C450 N458 1.356 . S
C451 C450 1.363 . S
C451 C457 1.363 . S
C452 C453 1.363 . S
C452 C457 1.379 . S
C452 N459 1.356 . S
C453 C452 1.363 . S
C453 C456 1.363 . S
N454 C456 1.356 . S
N454 H466 0.984 . S
N454 H467 0.985 . S
N455 C457 1.356 . S
N455 H460 0.984 1_556 S
N455 H461 0.985 . S
C456 C450 1.379 . S
C456 C453 1.363 . S
C456 N454 1.356 . S
C457 C451 1.363 . S
C457 C452 1.379 . S
C457 N455 1.356 . S
N458 C450 1.356 . S
N458 H464 0.984 . S
N458 H465 0.984 . S
N459 C452 1.356 . S
N459 H462 0.984 . S
N459 H463 0.985 . S
H460 N455 0.984 1_554 S
H461 N455 0.985 . S
H462 N459 0.984 . S
H463 N459 0.985 . S
H464 N458 0.984 . S
H465 N458 0.984 . S
H466 N454 0.984 . S
H467 N454 0.985 . S
C468 C469 1.363 . S
C468 C474 1.379 . S
C468 N476 1.356 . S
C469 C468 1.363 . S
C469 C475 1.363 . S
C470 C471 1.363 . S
C470 C475 1.379 . S
C470 N477 1.356 . S
C471 C470 1.363 . S
C471 C474 1.363 . S
N472 C474 1.356 . S
N472 H484 0.984 . S
N472 H485 0.985 . S
N473 C475 1.356 . S
N473 H478 0.984 . S
N473 H479 0.985 . S
C474 C468 1.379 . S
C474 C471 1.363 . S
C474 N472 1.356 . S
C475 C469 1.363 . S
C475 C470 1.379 . S
C475 N473 1.356 . S
N476 C468 1.356 . S
N476 H482 0.984 . S
N476 H483 0.984 . S
N477 C470 1.356 . S
N477 H480 0.984 . S
N477 H481 0.985 . S
H478 N473 0.984 . S
H479 N473 0.985 . S
H480 N477 0.984 . S
H481 N477 0.985 . S
H482 N476 0.984 . S
H483 N476 0.984 . S
H484 N472 0.984 . S
H485 N472 0.985 . S
C486 C487 1.363 . S
C486 C492 1.379 . S
C486 N494 1.356 . S
C487 C486 1.363 . S
C487 C493 1.363 . S
C488 C489 1.363 . S
C488 C493 1.379 . S
C488 N495 1.356 . S
C489 C488 1.363 . S
C489 C492 1.363 . S
N490 C492 1.356 . S
N490 H502 0.984 . S
N490 H503 0.985 . S
N491 C493 1.356 . S
N491 H496 0.984 . S
N491 H497 0.985 . S
C492 C486 1.379 . S
C492 C489 1.363 . S
C492 N490 1.356 . S
C493 C487 1.363 . S
C493 C488 1.379 . S
C493 N491 1.356 . S
N494 C486 1.356 . S
N494 H500 0.984 . S
N494 H501 0.984 . S
N495 C488 1.356 . S
N495 H498 0.984 . S
N495 H499 0.985 . S
H496 N491 0.984 . S
H497 N491 0.985 . S
H498 N495 0.984 . S
H499 N495 0.985 . S
H500 N494 0.984 . S
H501 N494 0.984 . S
H502 N490 0.984 . S
H503 N490 0.985 . S
C504 C505 1.363 . S
C504 C510 1.379 . S
C504 N512 1.356 . S
C505 C504 1.363 . S
C505 C511 1.363 . S
C506 C507 1.363 . S
C506 C511 1.379 . S
C506 N513 1.356 . S
C507 C506 1.363 . S
C507 C510 1.363 . S
N508 C510 1.356 . S
N508 H520 0.984 . S
N508 H521 0.985 . S
N509 C511 1.356 . S
N509 H514 0.984 . S
N509 H515 0.985 . S
C510 C504 1.379 . S
C510 C507 1.363 . S
C510 N508 1.356 . S
C511 C505 1.363 . S
C511 C506 1.379 . S
C511 N509 1.356 . S
N512 C504 1.356 . S
N512 H518 0.984 . S
N512 H519 0.984 . S
N513 C506 1.356 . S
N513 H516 0.984 . S
N513 H517 0.985 . S
H514 N509 0.984 . S
H515 N509 0.985 . S
H516 N513 0.984 . S
H517 N513 0.985 . S
H518 N512 0.984 . S
H519 N512 0.984 . S
H520 N508 0.984 . S
H521 N508 0.985 . S
C522 C523 1.363 1_455 S
C522 C528 1.379 . S
C522 N530 1.356 . S
C523 C522 1.363 1_655 S
C523 C529 1.363 . S
C524 C525 1.363 1_655 S
C524 C529 1.379 . S
C524 N531 1.356 . S
C525 C524 1.363 1_455 S
C525 C528 1.363 . S
N526 C528 1.356 . S
N526 H538 0.984 . S
N526 H539 0.985 . S
N527 C529 1.356 . S
N527 H532 0.984 . S
N527 H533 0.985 . S
C528 C522 1.379 . S
C528 C525 1.363 . S
C528 N526 1.356 . S
C529 C523 1.363 . S
C529 C524 1.379 . S
C529 N527 1.356 . S
N530 C522 1.356 . S
N530 H536 0.984 . S
N530 H537 0.984 1_455 S
N531 C524 1.356 . S
N531 H534 0.984 1_655 S
N531 H535 0.985 . S
H532 N527 0.984 . S
H533 N527 0.985 . S
H534 N531 0.984 1_455 S
H535 N531 0.985 . S
H536 N530 0.984 . S
H537 N530 0.984 1_655 S
H538 N526 0.984 . S
H539 N526 0.985 . S
C540 C541 1.363 . S
C540 C546 1.379 . S
C540 N548 1.356 . S
C541 C540 1.363 . S
C541 C547 1.363 . S
C542 C543 1.363 . S
C542 C547 1.379 . S
C542 N549 1.356 . S
C543 C542 1.363 . S
C543 C546 1.363 . S
N544 C546 1.356 . S
N544 H556 0.984 . S
N544 H557 0.985 . S
N545 C547 1.356 . S
N545 H550 0.984 . S
N545 H551 0.985 . S
C546 C540 1.379 . S
C546 C543 1.363 . S
C546 N544 1.356 . S
C547 C541 1.363 . S
C547 C542 1.379 . S
C547 N545 1.356 . S
N548 C540 1.356 . S
N548 H554 0.984 . S
N548 H555 0.984 . S
N549 C542 1.356 . S
N549 H552 0.984 . S
N549 H553 0.985 . S
H550 N545 0.984 . S
H551 N545 0.985 . S
H552 N549 0.984 . S
H553 N549 0.985 . S
H554 N548 0.984 . S
H555 N548 0.984 . S
H556 N544 0.984 . S
H557 N544 0.985 . S
C558 C559 1.363 . S
C558 C564 1.379 . S
C558 N566 1.356 . S
C559 C558 1.363 . S
C559 C565 1.363 1_565 S
C560 C561 1.363 . S
C560 C565 1.379 . S
C560 N567 1.356 . S
C561 C560 1.363 . S
C561 C564 1.363 1_545 S
N562 C564 1.356 1_545 S
N562 H574 0.984 1_545 S
N562 H575 0.985 . S
N563 C565 1.356 1_565 S
N563 H568 0.984 . S
N563 H569 0.985 1_565 S
C564 C558 1.379 . S
C564 C561 1.363 1_565 S
C564 N562 1.356 1_565 S
C565 C559 1.363 1_545 S
C565 C560 1.379 . S
C565 N563 1.356 1_545 S
N566 C558 1.356 . S
N566 H572 0.984 . S
N566 H573 0.984 . S
N567 C560 1.356 . S
N567 H570 0.984 . S
N567 H571 0.985 . S
H568 N563 0.984 . S
H569 N563 0.985 1_545 S
H570 N567 0.984 . S
H571 N567 0.985 . S
H572 N566 0.984 . S
H573 N566 0.984 . S
H574 N562 0.984 1_565 S
H575 N562 0.985 . S
C576 C577 1.363 . S
C576 C582 1.379 . S
C576 N584 1.356 . S
C577 C576 1.363 . S
C577 C583 1.363 1_554 S
C578 C579 1.363 . S
C578 C583 1.379 . S
C578 N585 1.356 . S
C579 C578 1.363 . S
C579 C582 1.363 1_556 S
N580 C582 1.356 . S
N580 H592 0.984 . S
N580 H593 0.985 . S
N581 C583 1.356 . S
N581 H586 0.984 . S
N581 H587 0.985 . S
C582 C576 1.379 . S
C582 C579 1.363 1_554 S
C582 N580 1.356 . S
C583 C577 1.363 1_556 S
C583 C578 1.379 . S
C583 N581 1.356 . S
N584 C576 1.356 . S
N584 H590 0.984 . S
N584 H591 0.984 . S
N585 C578 1.356 . S
N585 H588 0.984 . S
N585 H589 0.985 . S
H586 N581 0.984 . S
H587 N581 0.985 . S
H588 N585 0.984 . S
H589 N585 0.985 . S
H590 N584 0.984 . S
H591 N584 0.984 . S
H592 N580 0.984 . S
H593 N580 0.985 . S
C594 C595 1.363 1_554 S
C594 C600 1.379 1_545 S
C594 N602 1.356 . S
C595 C594 1.363 1_556 S
C595 C601 1.363 . S
C596 C597 1.363 1_556 S
C596 C601 1.379 1_565 S
C596 N603 1.356 . S
C597 C596 1.363 1_554 S
C597 C600 1.363 . S
N598 C600 1.356 . S
N598 H610 0.984 . S
N598 H611 0.985 . S
N599 C601 1.356 . S
N599 H604 0.984 . S
N599 H605 0.985 . S
C600 C594 1.379 1_565 S
C600 C597 1.363 . S
C600 N598 1.356 . S
C601 C595 1.363 . S
C601 C596 1.379 1_545 S
C601 N599 1.356 . S
N602 C594 1.356 . S
N602 H608 0.984 . S
N602 H609 0.984 . S
N603 C596 1.356 . S
N603 H606 0.984 . S
N603 H607 0.985 . S
H604 N599 0.984 . S
H605 N599 0.985 . S
H606 N603 0.984 . S
H607 N603 0.985 . S
H608 N602 0.984 . S
H609 N602 0.984 . S
H610 N598 0.984 . S
H611 N598 0.985 . S
C612 C613 1.363 1_554 S
C612 C618 1.379 1_655 S
C612 N620 1.356 . S
C613 C612 1.363 1_556 S
C613 C619 1.363 . S
C614 C615 1.363 1_556 S
C614 C619 1.379 1_455 S
C614 N621 1.356 . S
C615 C614 1.363 1_554 S
C615 C618 1.363 . S
N616 C618 1.356 . S
N616 H628 0.984 . S
N616 H629 0.985 . S
N617 C619 1.356 . S
N617 H622 0.984 . S
N617 H623 0.985 . S
C618 C612 1.379 1_455 S
C618 C615 1.363 . S
C618 N616 1.356 . S
C619 C613 1.363 . S
C619 C614 1.379 1_655 S
C619 N617 1.356 . S
N620 C612 1.356 . S
N620 H626 0.984 . S
N620 H627 0.984 . S
N621 C614 1.356 . S
N621 H624 0.984 . S
N621 H625 0.985 . S
H622 N617 0.984 . S
H623 N617 0.985 . S
H624 N621 0.984 . S
H625 N621 0.985 . S
H626 N620 0.984 . S
H627 N620 0.984 . S
H628 N616 0.984 . S
H629 N616 0.985 . S
C630 C631 1.363 1_554 S
C630 C636 1.379 . S
C630 N638 1.356 . S
C631 C630 1.363 1_556 S
C631 C637 1.363 . S
C632 C633 1.363 1_556 S
C632 C637 1.379 . S
C632 N639 1.356 . S
C633 C632 1.363 1_554 S
C633 C636 1.363 . S
N634 C636 1.356 . S
N634 H646 0.984 . S
N634 H647 0.985 . S
N635 C637 1.356 . S
N635 H640 0.984 . S
N635 H641 0.985 . S
C636 C630 1.379 . S
C636 C633 1.363 . S
C636 N634 1.356 . S
C637 C631 1.363 . S
C637 C632 1.379 . S
C637 N635 1.356 . S
N638 C630 1.356 . S
N638 H644 0.984 . S
N638 H645 0.984 . S
N639 C632 1.356 . S
N639 H642 0.984 . S
N639 H643 0.985 . S
H640 N635 0.984 . S
H641 N635 0.985 . S
H642 N639 0.984 . S
H643 N639 0.985 . S
H644 N638 0.984 . S
H645 N638 0.984 . S
H646 N634 0.984 . S
H647 N634 0.985 . S
C648 C649 1.363 . S
C648 C654 1.379 1_565 S
C648 N656 1.356 . S
C649 C648 1.363 . S
C649 C655 1.363 1_554 S
C650 C651 1.363 . S
C650 C655 1.379 1_545 S
C650 N657 1.356 . S
C651 C650 1.363 . S
C651 C654 1.363 1_556 S
N652 C654 1.356 . S
N652 H664 0.984 . S
N652 H665 0.985 . S
N653 C655 1.356 . S
N653 H658 0.984 . S
N653 H659 0.985 . S
C654 C648 1.379 1_545 S
C654 C651 1.363 1_554 S
C654 N652 1.356 . S
C655 C649 1.363 1_556 S
C655 C650 1.379 1_565 S
C655 N653 1.356 . S
N656 C648 1.356 . S
N656 H662 0.984 . S
N656 H663 0.984 . S
N657 C650 1.356 . S
N657 H660 0.984 . S
N657 H661 0.985 . S
H658 N653 0.984 . S
H659 N653 0.985 . S
H660 N657 0.984 . S
H661 N657 0.985 . S
H662 N656 0.984 . S
H663 N656 0.984 . S
H664 N652 0.984 . S
H665 N652 0.985 . S
C666 C667 1.363 1_554 S
C666 C672 1.379 1_655 S
C666 N674 1.356 . S
C667 C666 1.363 1_556 S
C667 C673 1.363 . S
C668 C669 1.363 1_556 S
C668 C673 1.379 1_455 S
C668 N675 1.356 . S
C669 C668 1.363 1_554 S
C669 C672 1.363 . S
N670 C672 1.356 . S
N670 H682 0.984 . S
N670 H683 0.985 . S
N671 C673 1.356 . S
N671 H676 0.984 . S
N671 H677 0.985 . S
C672 C666 1.379 1_455 S
C672 C669 1.363 . S
C672 N670 1.356 . S
C673 C667 1.363 . S
C673 C668 1.379 1_655 S
C673 N671 1.356 . S
N674 C666 1.356 . S
N674 H680 0.984 . S
N674 H681 0.984 . S
N675 C668 1.356 . S
N675 H678 0.984 . S
N675 H679 0.985 . S
H676 N671 0.984 . S
H677 N671 0.985 . S
H678 N675 0.984 . S
H679 N675 0.985 . S
H680 N674 0.984 . S
H681 N674 0.984 . S
H682 N670 0.984 . S
H683 N670 0.985 . S
C684 C685 1.363 . S
C684 C690 1.379 . S
C684 N692 1.356 . S
C685 C684 1.363 . S
C685 C691 1.363 . S
C686 C687 1.363 . S
C686 C691 1.379 . S
C686 N693 1.356 . S
C687 C686 1.363 . S
C687 C690 1.363 . S
N688 C690 1.356 . S
N688 H700 0.984 . S
N688 H701 0.985 . S
N689 C691 1.356 . S
N689 H694 0.984 . S
N689 H695 0.985 . S
C690 C684 1.379 . S
C690 C687 1.363 . S
C690 N688 1.356 . S
C691 C685 1.363 . S
C691 C686 1.379 . S
C691 N689 1.356 . S
N692 C684 1.356 . S
N692 H698 0.984 . S
N692 H699 0.984 . S
N693 C686 1.356 . S
N693 H696 0.984 . S
N693 H697 0.985 . S
H694 N689 0.984 . S
H695 N689 0.985 . S
H696 N693 0.984 . S
H697 N693 0.985 . S
H698 N692 0.984 . S
H699 N692 0.984 . S
H700 N688 0.984 . S
H701 N688 0.985 . S
C702 C703 1.363 . S
C702 C708 1.379 . S
C702 N710 1.356 . S
C703 C702 1.363 . S
C703 C709 1.363 . S
C704 C705 1.363 . S
C704 C709 1.379 . S
C704 N711 1.356 . S
C705 C704 1.363 . S
C705 C708 1.363 . S
N706 C708 1.356 . S
N706 H718 0.984 . S
N706 H719 0.985 . S
N707 C709 1.356 . S
N707 H712 0.984 . S
N707 H713 0.985 . S
C708 C702 1.379 . S
C708 C705 1.363 . S
C708 N706 1.356 . S
C709 C703 1.363 . S
C709 C704 1.379 . S
C709 N707 1.356 . S
N710 C702 1.356 . S
N710 H716 0.984 . S
N710 H717 0.984 . S
N711 C704 1.356 . S
N711 H714 0.984 . S
N711 H715 0.985 . S
H712 N707 0.984 . S
H713 N707 0.985 . S
H714 N711 0.984 . S
H715 N711 0.985 . S
H716 N710 0.984 . S
H717 N710 0.984 . S
H718 N706 0.984 . S
H719 N706 0.985 . S
C720 C721 1.363 . S
C720 C726 1.379 . S
C720 N728 1.356 . S
C721 C720 1.363 . S
C721 C727 1.363 . S
C722 C723 1.363 . S
C722 C727 1.379 . S
C722 N729 1.356 . S
C723 C722 1.363 . S
C723 C726 1.363 . S
N724 C726 1.356 . S
N724 H736 0.984 . S
N724 H737 0.985 . S
N725 C727 1.356 . S
N725 H730 0.984 . S
N725 H731 0.985 . S
C726 C720 1.379 . S
C726 C723 1.363 . S
C726 N724 1.356 . S
C727 C721 1.363 . S
C727 C722 1.379 . S
C727 N725 1.356 . S
N728 C720 1.356 . S
N728 H734 0.984 . S
N728 H735 0.984 . S
N729 C722 1.356 . S
N729 H732 0.984 . S
N729 H733 0.985 . S
H730 N725 0.984 . S
H731 N725 0.985 . S
H732 N729 0.984 . S
H733 N729 0.985 . S
H734 N728 0.984 . S
H735 N728 0.984 . S
H736 N724 0.984 . S
H737 N724 0.985 . S
C738 C739 1.363 . S
C738 C744 1.379 . S
C738 N746 1.356 . S
C739 C738 1.363 . S
C739 C745 1.363 . S
C740 C741 1.363 . S
C740 C745 1.379 . S
C740 N747 1.356 . S
C741 C740 1.363 . S
C741 C744 1.363 . S
N742 C744 1.356 . S
N742 H754 0.984 . S
N742 H755 0.985 . S
N743 C745 1.356 . S
N743 H748 0.984 . S
N743 H749 0.985 . S
C744 C738 1.379 . S
C744 C741 1.363 . S
C744 N742 1.356 . S
C745 C739 1.363 . S
C745 C740 1.379 . S
C745 N743 1.356 . S
N746 C738 1.356 . S
N746 H752 0.984 . S
N746 H753 0.984 . S
N747 C740 1.356 . S
N747 H750 0.984 . S
N747 H751 0.985 . S
H748 N743 0.984 . S
H749 N743 0.985 . S
H750 N747 0.984 . S
H751 N747 0.985 . S
H752 N746 0.984 . S
H753 N746 0.984 . S
H754 N742 0.984 . S
H755 N742 0.985 . S
C756 C757 1.363 . S
C756 C762 1.379 . S
C756 N764 1.356 . S
C757 C756 1.363 . S
C757 C763 1.363 . S
C758 C759 1.363 . S
C758 C763 1.379 . S
C758 N765 1.356 . S
C759 C758 1.363 . S
C759 C762 1.363 . S
N760 C762 1.356 . S
N760 H772 0.984 . S
N760 H773 0.985 . S
N761 C763 1.356 . S
N761 H766 0.984 . S
N761 H767 0.985 . S
C762 C756 1.379 . S
C762 C759 1.363 . S
C762 N760 1.356 . S
C763 C757 1.363 . S
C763 C758 1.379 . S
C763 N761 1.356 . S
N764 C756 1.356 . S
N764 H770 0.984 . S
N764 H771 0.984 . S
N765 C758 1.356 . S
N765 H768 0.984 . S
N765 H769 0.985 . S
H766 N761 0.984 . S
H767 N761 0.985 . S
H768 N765 0.984 . S
H769 N765 0.985 . S
H770 N764 0.984 . S
H771 N764 0.984 . S
H772 N760 0.984 . S
H773 N760 0.985 . S
C774 C775 1.363 . S
C774 C780 1.379 . S
C774 N782 1.356 . S
C775 C774 1.363 . S
C775 C781 1.363 . S
C776 C777 1.363 . S
C776 C781 1.379 . S
C776 N783 1.356 . S
C777 C776 1.363 . S
C777 C780 1.363 . S
N778 C780 1.356 . S
N778 H790 0.984 . S
N778 H791 0.985 . S
N779 C781 1.356 . S
N779 H784 0.984 . S
N779 H785 0.985 . S
C780 C774 1.379 . S
C780 C777 1.363 . S
C780 N778 1.356 . S
C781 C775 1.363 . S
C781 C776 1.379 . S
C781 N779 1.356 . S
N782 C774 1.356 . S
N782 H788 0.984 . S
N782 H789 0.984 . S
N783 C776 1.356 . S
N783 H786 0.984 . S
N783 H787 0.985 . S
H784 N779 0.984 . S
H785 N779 0.985 . S
H786 N783 0.984 . S
H787 N783 0.985 . S
H788 N782 0.984 . S
H789 N782 0.984 . S
H790 N778 0.984 . S
H791 N778 0.985 . S
C792 C793 1.363 . S
C792 C798 1.379 . S
C792 N800 1.356 . S
C793 C792 1.363 . S
C793 C799 1.363 . S
C794 C795 1.363 . S
C794 C799 1.379 . S
C794 N801 1.356 . S
C795 C794 1.363 . S
C795 C798 1.363 . S
N796 C798 1.356 . S
N796 H808 0.984 . S
N796 H809 0.985 . S
N797 C799 1.356 . S
N797 H802 0.984 . S
N797 H803 0.985 . S
C798 C792 1.379 . S
C798 C795 1.363 . S
C798 N796 1.356 . S
C799 C793 1.363 . S
C799 C794 1.379 . S
C799 N797 1.356 . S
N800 C792 1.356 . S
N800 H806 0.984 . S
N800 H807 0.984 . S
N801 C794 1.356 . S
N801 H804 0.984 . S
N801 H805 0.985 . S
H802 N797 0.984 . S
H803 N797 0.985 . S
H804 N801 0.984 . S
H805 N801 0.985 . S
H806 N800 0.984 . S
H807 N800 0.984 . S
H808 N796 0.984 . S
H809 N796 0.985 . S
C810 C811 1.363 . S
C810 C816 1.379 . S
C810 N818 1.356 . S
C811 C810 1.363 . S
C811 C817 1.363 . S
C812 C813 1.363 . S
C812 C817 1.379 . S
C812 N819 1.356 . S
C813 C812 1.363 . S
C813 C816 1.363 . S
N814 C816 1.356 . S
N814 H826 0.984 . S
N814 H827 0.985 . S
N815 C817 1.356 . S
N815 H820 0.984 . S
N815 H821 0.985 . S
C816 C810 1.379 . S
C816 C813 1.363 . S
C816 N814 1.356 . S
C817 C811 1.363 . S
C817 C812 1.379 . S
C817 N815 1.356 . S
N818 C810 1.356 . S
N818 H824 0.984 . S
N818 H825 0.984 . S
N819 C812 1.356 . S
N819 H822 0.984 . S
N819 H823 0.985 . S
H820 N815 0.984 . S
H821 N815 0.985 . S
H822 N819 0.984 . S
H823 N819 0.985 . S
H824 N818 0.984 . S
H825 N818 0.984 . S
H826 N814 0.984 . S
H827 N814 0.985 . S
C828 C829 1.363 . S
C828 C834 1.379 . S
C828 N836 1.356 . S
C829 C828 1.363 . S
C829 C835 1.363 . S
C830 C831 1.363 . S
C830 C835 1.379 . S
C830 N837 1.356 . S
C831 C830 1.363 . S
C831 C834 1.363 . S
N832 C834 1.356 . S
N832 H844 0.984 . S
N832 H845 0.985 . S
N833 C835 1.356 . S
N833 H838 0.984 . S
N833 H839 0.985 . S
C834 C828 1.379 . S
C834 C831 1.363 . S
C834 N832 1.356 . S
C835 C829 1.363 . S
C835 C830 1.379 . S
C835 N833 1.356 . S
N836 C828 1.356 . S
N836 H842 0.984 . S
N836 H843 0.984 . S
N837 C830 1.356 . S
N837 H840 0.984 . S
N837 H841 0.985 . S
H838 N833 0.984 . S
H839 N833 0.985 . S
H840 N837 0.984 . S
H841 N837 0.985 . S
H842 N836 0.984 . S
H843 N836 0.984 . S
H844 N832 0.984 . S
H845 N832 0.985 . S
C846 C847 1.363 . S
C846 C852 1.379 . S
C846 N854 1.356 . S
C847 C846 1.363 . S
C847 C853 1.363 . S
C848 C849 1.363 . S
C848 C853 1.379 . S
C848 N855 1.356 . S
C849 C848 1.363 . S
C849 C852 1.363 . S
N850 C852 1.356 . S
N850 H862 0.984 . S
N850 H863 0.985 . S
N851 C853 1.356 . S
N851 H856 0.984 . S
N851 H857 0.985 . S
C852 C846 1.379 . S
C852 C849 1.363 . S
C852 N850 1.356 . S
C853 C847 1.363 . S
C853 C848 1.379 . S
C853 N851 1.356 . S
N854 C846 1.356 . S
N854 H860 0.984 . S
N854 H861 0.984 . S
N855 C848 1.356 . S
N855 H858 0.984 . S
N855 H859 0.985 . S
H856 N851 0.984 . S
H857 N851 0.985 . S
H858 N855 0.984 . S
H859 N855 0.985 . S
H860 N854 0.984 . S
H861 N854 0.984 . S
H862 N850 0.984 . S
H863 N850 0.985 . S
C864 C865 1.363 . S
C864 C870 1.379 . S
C864 N872 1.356 . S
C865 C864 1.363 . S
C865 C871 1.363 . S
C866 C867 1.363 . S
C866 C871 1.379 . S
C866 N873 1.356 . S
C867 C866 1.363 . S
C867 C870 1.363 . S
N868 C870 1.356 . S
N868 H880 0.984 . S
N868 H881 0.985 . S
N869 C871 1.356 . S
N869 H874 0.984 . S
N869 H875 0.985 . S
C870 C864 1.379 . S
C870 C867 1.363 . S
C870 N868 1.356 . S
C871 C865 1.363 . S
C871 C866 1.379 . S
C871 N869 1.356 . S
N872 C864 1.356 . S
N872 H878 0.984 . S
N872 H879 0.984 . S
N873 C866 1.356 . S
N873 H876 0.984 . S
N873 H877 0.985 . S
H874 N869 0.984 . S
H875 N869 0.985 . S
H876 N873 0.984 . S
H877 N873 0.985 . S
H878 N872 0.984 . S
H879 N872 0.984 . S
H880 N868 0.984 . S
H881 N868 0.985 . S
C882 C883 1.363 . S
C882 C888 1.379 . S
C882 N890 1.356 . S
C883 C882 1.363 . S
C883 C889 1.363 . S
C884 C885 1.363 . S
C884 C889 1.379 . S
C884 N891 1.356 . S
C885 C884 1.363 . S
C885 C888 1.363 . S
N886 C888 1.356 . S
N886 H898 0.984 . S
N886 H899 0.985 . S
N887 C889 1.356 . S
N887 H892 0.984 . S
N887 H893 0.985 . S
C888 C882 1.379 . S
C888 C885 1.363 . S
C888 N886 1.356 . S
C889 C883 1.363 . S
C889 C884 1.379 . S
C889 N887 1.356 . S
N890 C882 1.356 . S
N890 H896 0.984 . S
N890 H897 0.984 . S
N891 C884 1.356 . S
N891 H894 0.984 . S
N891 H895 0.985 . S
H892 N887 0.984 . S
H893 N887 0.985 . S
H894 N891 0.984 . S
H895 N891 0.985 . S
H896 N890 0.984 . S
H897 N890 0.984 . S
H898 N886 0.984 . S
H899 N886 0.985 . S
C253 C249 1.600 . S
C255 C11 1.600 . S
C271 C221 1.600 . S
C273 C25 1.600 . S
C289 C235 1.600 . S
C291 C39 1.600 . S
C307 C109 1.600 . S
C309 C53 1.600 . S
C325 C123 1.600 . S
C327 C67 1.600 . S
C343 C81 1.600 . S
C345 C95 1.600 . S
C361 C137 1.600 . S
C363 C193 1.600 . S
C379 C151 1.600 . S
C381 C207 1.600 . S
C397 C165 1.600 . S
C399 C179 1.600 . S
C415 C8 1.246 . S
C417 C246 1.246 . S
C433 C218 1.246 . S
C435 C22 1.246 . S
C451 C36 1.246 . S
C453 C232 1.246 . S
C469 C106 1.246 . S
C471 C50 1.246 . S
C487 C64 1.246 . S
C489 C120 1.246 . S
C505 C78 1.246 . S
C507 C92 1.246 . S
C523 C134 1.246 . S
C525 C190 1.246 . S
C541 C204 1.246 . S
C543 C148 1.246 . S
C559 C176 1.246 . S
C561 C162 1.246 . S
C577 C13 1.384 . S
C579 C55 1.384 . S
C595 C69 1.384 . S
C597 C27 1.384 . S
C613 C83 1.384 . S
C615 C41 1.384 . S
C631 C77 1.471 . S
C633 C21 1.471 . S
C649 C35 1.471 . S
C651 C49 1.471 . S
C667 C63 1.471 . S
C669 C7 1.471 . S
C685 C97 1.384 . S
C687 C139 1.384 . S
C703 C153 1.384 . S
C705 C111 1.384 . S
C721 C167 1.384 . S
C723 C125 1.384 . S
C739 C161 1.471 . S
C741 C105 1.471 . S
C757 C119 1.471 . S
C759 C133 1.471 . S
C775 C147 1.471 . S
C777 C91 1.471 . S
C793 C223 1.384 . S
C795 C181 1.384 . S
C811 C237 1.384 . S
C813 C195 1.384 . S
C829 C209 1.384 . S
C831 C251 1.384 . S
C847 C245 1.471 . S
C849 C189 1.471 . S
C865 C203 1.471 . S
C867 C217 1.471 . S
C883 C231 1.471 . S
C885 C175 1.471 . S
