# Generated by pormake.
# Topology uot, (4)-cn, num edge types: 1
# Building blocks:
#     Node 0, Type 0, BuildingBlock: ESEHIV_clean_sbu_0, # of connection points: 4
#     Node 1, Type 0, BuildingBlock: ESEHIV_clean_sbu_0, # of connection points: 4
#     Node 2, Type 0, BuildingBlock: ESEHIV_clean_sbu_0, # of connection points: 4
#     Node 3, Type 0, BuildingBlock: ESEHIV_clean_sbu_0, # of connection points: 4
#     Node 4, Type 0, BuildingBlock: ESEHIV_clean_sbu_0, # of connection points: 4
#     Node 5, Type 0, BuildingBlock: ESEHIV_clean_sbu_0, # of connection points: 4
#     Node 6, Type 0, BuildingBlock: ESEHIV_clean_sbu_0, # of connection points: 4
#     Node 7, Type 0, BuildingBlock: ESEHIV_clean_sbu_0, # of connection points: 4
#     Node 8, Type 0, BuildingBlock: ESEHIV_clean_sbu_0, # of connection points: 4
#     Node 9, Type 0, BuildingBlock: ESEHIV_clean_sbu_0, # of connection points: 4
#     Node 10, Type 0, BuildingBlock: ESEHIV_clean_sbu_0, # of connection points: 4
#     Node 11, Type 0, BuildingBlock: ESEHIV_clean_sbu_0, # of connection points: 4
#     Node 12, Type 0, BuildingBlock: ESEHIV_clean_sbu_0, # of connection points: 4
#     Node 13, Type 0, BuildingBlock: ESEHIV_clean_sbu_0, # of connection points: 4
#     Node 14, Type 0, BuildingBlock: ESEHIV_clean_sbu_0, # of connection points: 4
#     Node 15, Type 0, BuildingBlock: ESEHIV_clean_sbu_0, # of connection points: 4
#     Edge 16, Type (0, 0), BuildingBlock: OJICUG_clean_linker_0, # of connection points: 2
#     Edge 17, Type (0, 0), BuildingBlock: OJICUG_clean_linker_0, # of connection points: 2
#     Edge 18, Type (0, 0), BuildingBlock: OJICUG_clean_linker_0, # of connection points: 2
#     Edge 19, Type (0, 0), BuildingBlock: OJICUG_clean_linker_0, # of connection points: 2
#     Edge 20, Type (0, 0), BuildingBlock: OJICUG_clean_linker_0, # of connection points: 2
#     Edge 21, Type (0, 0), BuildingBlock: OJICUG_clean_linker_0, # of connection points: 2
#     Edge 22, Type (0, 0), BuildingBlock: OJICUG_clean_linker_0, # of connection points: 2
#     Edge 23, Type (0, 0), BuildingBlock: OJICUG_clean_linker_0, # of connection points: 2
#     Edge 24, Type (0, 0), BuildingBlock: OJICUG_clean_linker_0, # of connection points: 2
#     Edge 25, Type (0, 0), BuildingBlock: OJICUG_clean_linker_0, # of connection points: 2
#     Edge 26, Type (0, 0), BuildingBlock: OJICUG_clean_linker_0, # of connection points: 2
#     Edge 27, Type (0, 0), BuildingBlock: OJICUG_clean_linker_0, # of connection points: 2
#     Edge 28, Type (0, 0), BuildingBlock: OJICUG_clean_linker_0, # of connection points: 2
#     Edge 29, Type (0, 0), BuildingBlock: OJICUG_clean_linker_0, # of connection points: 2
#     Edge 30, Type (0, 0), BuildingBlock: OJICUG_clean_linker_0, # of connection points: 2
#     Edge 31, Type (0, 0), BuildingBlock: OJICUG_clean_linker_0, # of connection points: 2
#     Edge 32, Type (0, 0), BuildingBlock: OJICUG_clean_linker_0, # of connection points: 2
#     Edge 33, Type (0, 0), BuildingBlock: OJICUG_clean_linker_0, # of connection points: 2
#     Edge 34, Type (0, 0), BuildingBlock: OJICUG_clean_linker_0, # of connection points: 2
#     Edge 35, Type (0, 0), BuildingBlock: OJICUG_clean_linker_0, # of connection points: 2
#     Edge 36, Type (0, 0), BuildingBlock: OJICUG_clean_linker_0, # of connection points: 2
#     Edge 37, Type (0, 0), BuildingBlock: OJICUG_clean_linker_0, # of connection points: 2
#     Edge 38, Type (0, 0), BuildingBlock: OJICUG_clean_linker_0, # of connection points: 2
#     Edge 39, Type (0, 0), BuildingBlock: OJICUG_clean_linker_0, # of connection points: 2
#     Edge 40, Type (0, 0), BuildingBlock: OJICUG_clean_linker_0, # of connection points: 2
#     Edge 41, Type (0, 0), BuildingBlock: OJICUG_clean_linker_0, # of connection points: 2
#     Edge 42, Type (0, 0), BuildingBlock: OJICUG_clean_linker_0, # of connection points: 2
#     Edge 43, Type (0, 0), BuildingBlock: OJICUG_clean_linker_0, # of connection points: 2
#     Edge 44, Type (0, 0), BuildingBlock: OJICUG_clean_linker_0, # of connection points: 2
#     Edge 45, Type (0, 0), BuildingBlock: OJICUG_clean_linker_0, # of connection points: 2
#     Edge 46, Type (0, 0), BuildingBlock: OJICUG_clean_linker_0, # of connection points: 2
#     Edge 47, Type (0, 0), BuildingBlock: OJICUG_clean_linker_0, # of connection points: 2
# Relax obj value: 0.097
# Max RMSD: 0.251
# Mean RMSD: 0.251
data_MOF--net-uot--node1-ESEHIV_clean_sbu_0--edge1-OJICUG_clean_linker_0
_symmetry_space_group_name_H-M    P1
_symmetry_Int_Tables_number       1
_symmetry_cell_setting            triclinic
loop_
_symmetry_equiv_pos_as_xyz
'x, y, z'
_cell_length_a     36.278519
_cell_length_b     36.374714
_cell_length_c     33.82944
_cell_angle_alpha  89.544111
_cell_angle_beta   90.319195
_cell_angle_gamma 89.982357
loop_
_atom_site_label
_atom_site_type_symbol
_atom_site_fract_x
_atom_site_fract_y
_atom_site_fract_z
_atom_type_partial_charge
Cu0 Cu 0.22061 0.47745 0.36654 0.0
N1 N 0.21005 0.52316 0.34335 0.0
N2 N 0.18616 0.56783 0.30517 0.0
C3 C 0.18782 0.5312 0.31235 0.0
C4 C 0.20838 0.58317 0.33262 0.0
C5 C 0.22301 0.55565 0.35599 0.0
O6 O 0.18528 0.44122 0.348 0.0
C7 C 0.24803 0.49654 0.44145 0.0
O8 O 0.27795 0.50293 0.42083 0.0
H9 H 0.17307 0.51063 0.29562 0.0
H10 H 0.24135 0.55913 0.38097 0.0
N11 N 0.26754 0.46265 0.35008 0.0
N12 N 0.31973 0.43089 0.34119 0.0
C13 C 0.2862 0.43139 0.35861 0.0
C14 C 0.2898 0.4823 0.32636 0.0
C15 C 0.32188 0.46292 0.32085 0.0
C16 C 0.15059 0.44643 0.34629 0.0
O17 O 0.13669 0.4769 0.36053 0.0
H18 H 0.27558 0.40979 0.37754 0.0
H19 H 0.28308 0.50893 0.31382 0.0
O20 O 0.21961 0.48391 0.42387 0.0
H21 H 0.21286 0.61233 0.33652 0.0
H22 H 0.34478 0.47158 0.30265 0.0
Cu23 Cu 0.48075 0.81577 0.67761 0.0
N24 N 0.52626 0.82625 0.70131 0.0
N25 N 0.57066 0.84915 0.74022 0.0
C26 C 0.534 0.84776 0.73261 0.0
C27 C 0.58632 0.82754 0.71272 0.0
C28 C 0.55898 0.81353 0.68891 0.0
O29 O 0.44368 0.85042 0.69539 0.0
C30 C 0.50082 0.78966 0.60272 0.0
O31 O 0.50732 0.75952 0.62324 0.0
H32 H 0.51322 0.86213 0.74932 0.0
H33 H 0.56274 0.79569 0.66386 0.0
N34 N 0.46616 0.7686 0.69374 0.0
N35 N 0.43483 0.71604 0.70179 0.0
C36 C 0.43517 0.74982 0.68464 0.0
C37 C 0.4858 0.74616 0.71756 0.0
C38 C 0.46668 0.71385 0.72255 0.0
C39 C 0.44872 0.88499 0.69741 0.0
O40 O 0.47978 0.89914 0.68458 0.0
H41 H 0.41367 0.7605 0.66545 0.0
H42 H 0.51226 0.7529 0.73047 0.0
O43 O 0.48782 0.81762 0.62035 0.0
H44 H 0.61559 0.82305 0.70914 0.0
H45 H 0.47538 0.69073 0.74064 0.0
Cu46 Cu 0.81589 0.55877 0.3705 0.0
N47 N 0.82613 0.51336 0.34741 0.0
N48 N 0.84892 0.46934 0.30865 0.0
C49 C 0.84668 0.50592 0.31534 0.0
C50 C 0.82878 0.45341 0.33754 0.0
C51 C 0.81482 0.48054 0.36126 0.0
O52 O 0.85059 0.59549 0.35134 0.0
C53 C 0.79021 0.53826 0.44566 0.0
O54 O 0.75992 0.53204 0.42536 0.0
H55 H 0.85988 0.52689 0.29754 0.0
H56 H 0.79814 0.47655 0.38731 0.0
N57 N 0.76854 0.57348 0.35462 0.0
N58 N 0.71628 0.6054 0.34579 0.0
C59 C 0.75022 0.60484 0.3627 0.0
C60 C 0.74565 0.55377 0.33172 0.0
C61 C 0.71352 0.57326 0.32625 0.0
C62 C 0.88517 0.5903 0.34835 0.0
O63 O 0.89957 0.55939 0.3616 0.0
H64 H 0.76141 0.62652 0.3809 0.0
H65 H 0.75199 0.52707 0.31967 0.0
O66 O 0.81815 0.5515 0.42782 0.0
H67 H 0.82537 0.42415 0.34217 0.0
H68 H 0.69019 0.56461 0.30856 0.0
Cu69 Cu 0.56283 0.21455 0.67272 0.0
N70 N 0.51776 0.20343 0.69654 0.0
N71 N 0.47437 0.18029 0.73633 0.0
C72 C 0.51082 0.18178 0.72821 0.0
C73 C 0.458 0.20192 0.70878 0.0
C74 C 0.48475 0.21609 0.6844 0.0
O75 O 0.60011 0.1799 0.69093 0.0
C76 C 0.54155 0.24195 0.59815 0.0
O77 O 0.53515 0.27156 0.61899 0.0
H78 H 0.532 0.16749 0.74493 0.0
H79 H 0.48039 0.23411 0.65925 0.0
N80 N 0.57726 0.26145 0.68918 0.0
N81 N 0.60892 0.3135 0.69881 0.0
C82 C 0.60852 0.28019 0.68119 0.0
C83 C 0.55747 0.28344 0.71274 0.0
C84 C 0.5768 0.31543 0.7187 0.0
C85 C 0.59526 0.1453 0.69343 0.0
O86 O 0.56445 0.13095 0.68003 0.0
H87 H 0.63025 0.26971 0.66261 0.0
H88 H 0.53086 0.27654 0.72497 0.0
O89 O 0.55506 0.2137 0.61546 0.0
H90 H 0.42862 0.2064 0.70567 0.0
H91 H 0.56809 0.33805 0.73701 0.0
Cu92 Cu 0.22429 0.55685 0.68206 0.0
N93 N 0.21459 0.51155 0.70646 0.0
N94 N 0.19246 0.46781 0.74679 0.0
C95 C 0.19431 0.50432 0.73891 0.0
C96 C 0.21256 0.45172 0.71824 0.0
C97 C 0.22612 0.47867 0.69356 0.0
O98 O 0.18934 0.59332 0.70059 0.0
C99 C 0.24973 0.53633 0.60715 0.0
O100 O 0.27999 0.52982 0.62754 0.0
H101 H 0.18103 0.5254 0.75614 0.0
H102 H 0.24268 0.47451 0.66751 0.0
N103 N 0.2716 0.57211 0.69716 0.0
N104 N 0.324 0.60407 0.70375 0.0
C105 C 0.28991 0.60314 0.68724 0.0
C106 C 0.29466 0.55304 0.72084 0.0
C107 C 0.32688 0.57256 0.72494 0.0
C108 C 0.15479 0.58783 0.7034 0.0
O109 O 0.14076 0.55687 0.69042 0.0
H110 H 0.27867 0.62424 0.66792 0.0
H111 H 0.28841 0.52669 0.73424 0.0
O112 O 0.22181 0.54949 0.62488 0.0
H113 H 0.21622 0.42243 0.71447 0.0
H114 H 0.35042 0.56435 0.74271 0.0
Cu115 Cu 0.55982 0.81794 0.36174 0.0
N116 N 0.51409 0.82797 0.33811 0.0
N117 N 0.46932 0.85072 0.29918 0.0
C118 C 0.50603 0.84949 0.30655 0.0
C119 C 0.45397 0.82896 0.32711 0.0
C120 C 0.48154 0.81504 0.35093 0.0
O121 O 0.59642 0.85301 0.34313 0.0
C122 C 0.54024 0.79101 0.4368 0.0
O123 O 0.53387 0.7611 0.41637 0.0
H124 H 0.52663 0.86402 0.28951 0.0
H125 H 0.47804 0.79717 0.37631 0.0
N126 N 0.57499 0.77101 0.34621 0.0
N127 N 0.60641 0.71837 0.3401 0.0
C128 C 0.60557 0.75206 0.35681 0.0
C129 C 0.55614 0.74876 0.32185 0.0
C130 C 0.57534 0.71638 0.31805 0.0
C131 C 0.59121 0.88756 0.34027 0.0
O132 O 0.56018 0.90169 0.35301 0.0
H133 H 0.62633 0.76251 0.37688 0.0
H134 H 0.53012 0.75561 0.30789 0.0
O135 O 0.55295 0.8193 0.41903 0.0
H136 H 0.42475 0.82432 0.33101 0.0
H137 H 0.56718 0.6933 0.3 0.0
Cu138 Cu 0.82061 0.47159 0.68484 0.0
N139 N 0.83018 0.51667 0.70918 0.0
N140 N 0.85335 0.561 0.7476 0.0
C141 C 0.85321 0.52461 0.73941 0.0
C142 C 0.82935 0.57624 0.72158 0.0
C143 C 0.81519 0.54895 0.6981 0.0
O144 O 0.85654 0.43502 0.70201 0.0
C145 C 0.79276 0.49322 0.61052 0.0
O146 O 0.76276 0.49833 0.63134 0.0
H147 H 0.8696 0.50416 0.75489 0.0
H148 H 0.79573 0.55251 0.67407 0.0
N149 N 0.77397 0.45535 0.70068 0.0
N150 N 0.72156 0.42335 0.70657 0.0
C151 C 0.75508 0.42521 0.68928 0.0
C152 C 0.75187 0.47283 0.72617 0.0
C153 C 0.71962 0.45328 0.72983 0.0
C154 C 0.89114 0.4407 0.70281 0.0
O155 O 0.90413 0.47203 0.68923 0.0
H156 H 0.76541 0.40552 0.66822 0.0
H157 H 0.75874 0.49818 0.74099 0.0
O158 O 0.82139 0.48033 0.62771 0.0
H159 H 0.82329 0.60527 0.71869 0.0
H160 H 0.69666 0.4604 0.74858 0.0
Cu161 Cu 0.47792 0.21911 0.35753 0.0
N162 N 0.52331 0.20971 0.33356 0.0
N163 N 0.56775 0.18689 0.29513 0.0
C164 C 0.53119 0.18745 0.30301 0.0
C165 C 0.58318 0.20984 0.32169 0.0
C166 C 0.55582 0.22379 0.3452 0.0
O167 O 0.44126 0.18435 0.3386 0.0
C168 C 0.49867 0.24429 0.4327 0.0
O169 O 0.50448 0.27473 0.41255 0.0
H170 H 0.51058 0.1719 0.28707 0.0
H171 H 0.55945 0.24246 0.36961 0.0
N172 N 0.46235 0.26635 0.34246 0.0
N173 N 0.43051 0.3189 0.33645 0.0
C174 C 0.43175 0.28492 0.35309 0.0
C175 C 0.48079 0.28914 0.31815 0.0
C176 C 0.46135 0.32144 0.31441 0.0
C177 C 0.44615 0.14975 0.33672 0.0
O178 O 0.47673 0.13536 0.35094 0.0
H179 H 0.41122 0.27397 0.37307 0.0
H180 H 0.50667 0.28266 0.30409 0.0
O181 O 0.48573 0.21639 0.41476 0.0
H182 H 0.61236 0.21529 0.32491 0.0
H183 H 0.46914 0.34483 0.29635 0.0
Cu184 Cu 0.72398 0.97508 0.86288 0.0
N185 N 0.71396 0.02018 0.83806 0.0
N186 N 0.69098 0.06379 0.79785 0.0
C187 C 0.6923 0.02739 0.80637 0.0
C188 C 0.71282 0.07986 0.82517 0.0
C189 C 0.72687 0.05298 0.84979 0.0
O190 O 0.68895 0.93847 0.84458 0.0
C191 C 0.74977 0.99615 0.93778 0.0
O192 O 0.78002 1.00227 0.91761 0.0
H193 H 0.67773 1.00639 0.79008 0.0
H194 H 0.74483 0.05714 0.87497 0.0
N195 N 0.77122 0.95981 0.84797 0.0
N196 N 0.82349 0.92773 0.84094 0.0
C197 C 0.78962 0.92866 0.85759 0.0
C198 C 0.79401 0.97895 0.82433 0.0
C199 C 0.82613 0.95936 0.81997 0.0
C200 C 0.6543 0.94369 0.84227 0.0
O201 O 0.64026 0.97444 0.85566 0.0
H202 H 0.77855 0.90743 0.87671 0.0
H203 H 0.78761 1.00534 0.81104 0.0
O204 O 0.72177 0.98292 0.91997 0.0
H205 H 0.71739 0.1091 0.82811 0.0
H206 H 0.84938 0.9676 0.80207 0.0
Cu207 Cu 0.97641 0.32322 0.17851 0.0
N208 N 0.02156 0.33182 0.20373 0.0
N209 N 0.06607 0.35365 0.2432 0.0
C210 C 0.0294 0.35271 0.23549 0.0
C211 C 0.0816 0.33253 0.21517 0.0
C212 C 0.0542 0.31927 0.19096 0.0
O213 O 0.93885 0.35446 0.20123 0.0
C214 C 0.96099 0.3278 0.09541 0.0
O215 O 0.92803 0.31569 0.10474 0.0
H216 H 1.00873 0.36719 0.25224 0.0
H217 H 0.05779 0.30225 0.16519 0.0
N218 N 0.96376 0.27364 0.18595 0.0
N219 N 0.93316 0.2201 0.18968 0.0
C220 C 0.93111 0.25642 0.18047 0.0
C221 C 0.98699 0.2475 0.19924 0.0
C222 C 0.96837 0.2147 0.20162 0.0
C223 C 0.94249 0.3892 0.20316 0.0
O224 O 0.97157 0.40477 0.18721 0.0
H225 H 0.90653 0.27024 0.16986 0.0
H226 H 1.01552 0.25203 0.20717 0.0
O227 O 0.98446 0.33346 0.12273 0.0
H228 H 0.11086 0.32807 0.21139 0.0
H229 H 0.9799 0.18902 0.21227 0.0
Cu230 Cu 0.31971 0.05737 0.85809 0.0
N231 N 0.32591 1.01293 0.8314 0.0
N232 N 0.34855 0.96901 0.79225 0.0
C233 C 0.34977 1.00498 0.80224 0.0
C234 C 0.32254 0.95409 0.81589 0.0
C235 C 0.3087 0.98113 0.83984 0.0
O236 O 0.35736 0.09204 0.84163 0.0
C237 C 0.29224 0.03501 0.932 0.0
O238 O 0.262 0.03056 0.91104 0.0
H239 H 0.36795 0.0251 0.78904 0.0
H240 H 0.28827 0.9776 0.86268 0.0
N241 N 0.27471 0.07857 0.84311 0.0
N242 N 0.2263 0.11665 0.84034 0.0
C243 C 0.25581 0.1052 0.86173 0.0
C244 C 0.25658 0.07301 0.80888 0.0
C245 C 0.22672 0.09643 0.80708 0.0
C246 C 0.3918 0.08583 0.83955 0.0
O247 O 0.40501 0.05421 0.85225 0.0
H248 H 0.26419 0.11668 0.8898 0.0
H249 H 0.26502 0.0538 0.78642 0.0
O250 O 0.32099 0.04735 0.91495 0.0
H251 H 0.31502 0.92533 0.81713 0.0
H252 H 0.20686 0.0984 0.78316 0.0
Cu253 Cu 0.05655 0.72066 0.18331 0.0
N254 N 1.01123 0.71064 0.20737 0.0
N255 N 0.96721 0.68704 0.24622 0.0
C256 C 1.00374 0.68818 0.23825 0.0
C257 C 0.95138 0.70983 0.21936 0.0
C258 C 0.97848 0.72425 0.19558 0.0
O259 O 0.09346 0.68612 0.20257 0.0
C260 C 0.03636 0.74575 0.10743 0.0
O261 O 0.02966 0.77606 0.12699 0.0
H262 H 0.02463 0.67292 0.25437 0.0
H263 H 0.97453 0.74293 0.17091 0.0
N264 N 0.07176 0.76797 0.19768 0.0
N265 N 0.10374 0.82037 0.20332 0.0
C266 C 0.10273 0.78628 0.18752 0.0
C267 C 0.0528 0.79104 0.22083 0.0
C268 C 0.07233 0.82326 0.22433 0.0
C269 C 0.08886 0.65145 0.2043 0.0
O270 O 0.05841 0.63708 0.19 0.0
H271 H 0.12373 0.77504 0.16848 0.0
H272 H 0.02652 0.78481 0.23425 0.0
O273 O 0.0493 0.71798 0.12608 0.0
H274 H 0.92211 0.71485 0.21614 0.0
H275 H 0.06419 0.84682 0.24156 0.0
Cu276 Cu 0.7223 0.06003 0.17699 0.0
N277 N 0.71306 1.01497 0.20227 0.0
N278 N 0.6895 0.97088 0.24126 0.0
C279 C 0.69011 1.00728 0.2325 0.0
C280 C 0.71318 0.95536 0.21563 0.0
C281 C 0.72756 0.9825 0.19177 0.0
O282 O 0.68681 0.09644 0.1944 0.0
C283 C 0.74861 0.03867 0.10269 0.0
O284 O 0.77885 0.03318 0.12344 0.0
H285 H 0.67401 0.02789 0.2475 0.0
H286 H 0.74674 0.97871 0.1678 0.0
N287 N 0.76939 0.07639 0.19172 0.0
N288 N 0.82141 0.10916 0.19673 0.0
C289 C 0.78665 0.1081 0.18203 0.0
C290 C 0.79385 0.05711 0.21355 0.0
C291 C 0.82589 0.07712 0.21658 0.0
C292 C 0.65216 0.09116 0.196 0.0
O293 O 0.6383 0.06031 0.18252 0.0
H294 H 0.77439 0.12943 0.16374 0.0
H295 H 0.78886 0.03009 0.22596 0.0
O296 O 0.72027 0.05153 0.11993 0.0
H297 H 0.71878 0.92625 0.21318 0.0
H298 H 0.85061 0.06875 0.23231 0.0
Cu299 Cu 0.06243 0.32067 0.87273 0.0
N300 N 0.02599 0.32003 0.83337 0.0
N301 N 0.98461 0.33985 0.78879 0.0
C302 C 1.0106 0.34953 0.81548 0.0
C303 C 0.98362 0.30276 0.78997 0.0
C304 C 1.00931 0.29061 0.81737 0.0
O305 O 0.10163 0.3527 0.8542 0.0
C306 C 1.00917 0.32678 0.9326 0.0
O307 O 0.98924 0.30808 0.90723 0.0
H308 H 1.01769 0.37759 0.82254 0.0
H309 H 1.01523 0.26235 0.82534 0.0
N310 N 0.08136 0.27338 0.8813 0.0
N311 N 0.11743 0.22348 0.88044 0.0
C312 C 0.10966 0.25634 0.86326 0.0
C313 C 0.07085 0.25044 0.91052 0.0
C314 C 0.093 0.21974 0.9101 0.0
C315 C 0.09868 0.38757 0.8532 0.0
O316 O 0.06951 0.40309 0.86875 0.0
H317 H 0.12499 0.26831 0.839 0.0
H318 H 0.04906 0.25604 0.9313 0.0
O319 O 0.04159 0.33673 0.92283 0.0
H320 H 0.96579 0.28562 0.77218 0.0
H321 H 0.09129 0.19646 0.93015 0.0
Cu322 Cu 0.31556 0.97694 0.17461 0.0
N323 N 0.32626 0.02255 0.19722 0.0
N324 N 0.35001 0.06697 0.2351 0.0
C325 C 0.34825 0.03037 0.22835 0.0
C326 C 0.32812 0.08252 0.2072 0.0
C327 C 0.3136 0.05515 0.18401 0.0
O328 O 0.35027 0.94036 0.19432 0.0
C329 C 0.28965 0.99566 0.09851 0.0
O330 O 0.25928 1.00232 0.11816 0.0
H331 H 0.36272 1.00967 0.24554 0.0
H332 H 0.29547 0.0588 0.15881 0.0
N333 N 0.26819 0.96264 0.19039 0.0
N334 N 0.21555 0.9314 0.19883 0.0
C335 C 0.24944 0.9315 0.18218 0.0
C336 C 0.24562 0.98264 0.21312 0.0
C337 C 0.21327 0.96357 0.21834 0.0
C338 C 0.385 0.94519 0.19593 0.0
O339 O 0.39922 0.97547 0.18106 0.0
H340 H 0.26024 0.9097 0.16401 0.0
H341 H 0.25231 1.00928 0.22516 0.0
O342 O 0.31765 0.98317 0.11718 0.0
H343 H 0.32378 0.11172 0.20291 0.0
H344 H 0.19008 0.97255 0.23579 0.0
Cu345 Cu 0.98106 0.71603 0.86544 0.0
N346 N 0.02675 0.70595 0.84243 0.0
N347 N 0.07129 0.68292 0.80428 0.0
C348 C 0.03464 0.68416 0.81148 0.0
C349 C 0.08681 0.70496 0.83166 0.0
C350 C 0.05937 0.71905 0.855 0.0
O351 O 0.94474 0.68053 0.84748 0.0
C352 C 1.00024 0.7434 0.94025 0.0
O353 O 1.00673 0.77324 0.9193 0.0
H354 H 1.01394 0.66946 0.79476 0.0
H355 H 0.06301 0.73716 0.8799 0.0
N356 N 0.96558 0.76277 0.84855 0.0
N357 N 0.93387 0.81519 0.84058 0.0
C358 C 0.93489 0.78166 0.85826 0.0
C359 C 0.98429 0.78489 0.82378 0.0
C360 C 0.96493 0.81712 0.81884 0.0
C361 C 0.9503 0.64601 0.84594 0.0
O362 O 0.98144 0.63239 0.85964 0.0
H363 H 0.91417 0.77129 0.87836 0.0
H364 H 1.01034 0.77803 0.81029 0.0
O365 O 0.9878 0.715 0.92283 0.0
H366 H 0.11605 0.70969 0.8355 0.0
H367 H 0.97296 0.84004 0.8002 0.0
C368 C 0.38491 0.41155 0.33696 0.0
C369 C 0.34768 0.40253 0.34305 0.0
H370 H 0.4402 0.39243 0.3309 0.0
C371 C 0.3384 0.36537 0.34947 0.0
H372 H 0.39331 0.43987 0.33297 0.0
C373 C 0.3656 0.33788 0.34832 0.0
C374 C 0.40261 0.34699 0.3407 0.0
H375 H 0.31001 0.3574 0.3541 0.0
H376 H 0.35746 0.30946 0.3521 0.0
C377 C 0.41191 0.38425 0.33578 0.0
C378 C 0.36948 0.69686 0.69275 0.0
C379 C 0.4068 0.68788 0.69924 0.0
H380 H 0.31371 0.67726 0.68946 0.0
C381 C 0.41631 0.65071 0.70471 0.0
H382 H 0.36116 0.7252 0.6886 0.0
C383 C 0.38929 0.62341 0.70519 0.0
C384 C 0.35184 0.63236 0.70022 0.0
H385 H 0.44479 0.6426 0.70873 0.0
H386 H 0.39784 0.59517 0.70957 0.0
C387 C 0.34228 0.66937 0.69324 0.0
C388 C 0.67128 0.69876 0.35189 0.0
C389 C 0.63411 0.69 0.34444 0.0
H390 H 0.72676 0.67877 0.35774 0.0
C391 C 0.62442 0.65287 0.33989 0.0
H392 H 0.6797 0.72709 0.35537 0.0
C393 C 0.6512 0.62532 0.34134 0.0
C394 C 0.68858 0.63399 0.34728 0.0
H395 H 0.596 0.64498 0.33514 0.0
H396 H 0.64249 0.5971 0.33769 0.0
C397 C 0.69825 0.67104 0.35326 0.0
C398 C 0.67457 0.33208 0.69117 0.0
C399 C 0.63742 0.34132 0.69775 0.0
H400 H 0.73065 0.35097 0.68906 0.0
C401 C 0.62854 0.37831 0.70482 0.0
H402 H 0.68246 0.30388 0.68582 0.0
C403 C 0.65602 0.40508 0.7068 0.0
C404 C 0.69326 0.39578 0.70163 0.0
H405 H 0.60023 0.38672 0.70896 0.0
H406 H 0.64801 0.4332 0.71245 0.0
C407 C 0.70221 0.35906 0.69303 0.0
C408 C 0.88865 0.90803 0.83825 0.0
C409 C 0.8513 0.89928 0.84396 0.0
H410 H 0.94394 0.88855 0.83347 0.0
C411 C 0.84178 0.8623 0.8511 0.0
H412 H 0.89723 0.93623 0.83374 0.0
C413 C 0.86888 0.83468 0.85103 0.0
C414 C 0.90603 0.84348 0.84375 0.0
H415 H 0.81329 0.85453 0.85546 0.0
H416 H 0.86058 0.80636 0.85535 0.0
C417 C 0.91555 0.88059 0.83811 0.0
C418 C 0.83929 0.17495 0.19071 0.0
C419 C 0.84892 0.13749 0.19177 0.0
H420 H 0.85846 0.23077 0.18989 0.0
C421 C 0.88632 0.12791 0.18952 0.0
H422 H 0.81066 0.18313 0.19249 0.0
C423 C 0.91356 0.15493 0.18758 0.0
C424 C 0.90435 0.19252 0.18833 0.0
H425 H 0.89459 0.09931 0.18932 0.0
H426 H 0.94196 0.14613 0.18569 0.0
C427 C 0.86673 0.20221 0.18918 0.0
C428 C 0.16344 0.17642 0.8999 0.0
C429 C 0.14617 0.19783 0.87033 0.0
H430 H 0.20262 0.13399 0.91353 0.0
C431 C 0.15663 0.19293 0.83081 0.0
H432 H 0.15627 0.17987 0.93066 0.0
C433 C 0.18302 0.16644 0.82099 0.0
C434 C 0.19996 0.14473 0.85054 0.0
H435 H 0.1437 0.20891 0.80743 0.0
H436 H 0.19027 0.16302 0.79024 0.0
C437 C 0.1902 0.15037 0.89015 0.0
C438 C 0.1965 0.86602 0.19161 0.0
C439 C 0.1874 0.90327 0.19699 0.0
H440 H 0.17705 0.81027 0.18974 0.0
C441 C 0.15013 0.91264 0.20203 0.0
H442 H 0.22492 0.85778 0.18782 0.0
C443 C 0.12288 0.88558 0.20316 0.0
C444 C 0.13196 0.84822 0.19924 0.0
H445 H 0.14188 0.94105 0.2052 0.0
H446 H 0.09455 0.89402 0.20718 0.0
C447 C 0.16906 0.83877 0.19271 0.0
C448 C 0.13069 0.57153 0.26194 0.0
C449 C 0.16346 0.5872 0.27656 0.0
H450 H 0.08148 0.57941 0.22753 0.0
C451 C 0.17273 0.62308 0.2644 0.0
H452 H 0.12249 0.5441 0.27081 0.0
C453 C 0.14912 0.6434 0.23985 0.0
C454 C 0.11566 0.62832 0.22658 0.0
H455 H 0.19808 0.63578 0.27428 0.0
H456 H 0.1568 0.67127 0.23195 0.0
C457 C 0.10707 0.59186 0.23718 0.0
C458 C 0.62546 0.86106 0.78206 0.0
C459 C 0.58983 0.87102 0.76931 0.0
H460 H 0.67351 0.87583 0.81522 0.0
C461 C 0.57434 0.90371 0.78373 0.0
H462 H 0.63799 0.83572 0.77233 0.0
C463 C 0.59468 0.92666 0.80879 0.0
C464 C 0.63097 0.91745 0.81993 0.0
H465 H 0.54709 0.91239 0.77443 0.0
H466 H 0.58241 0.95226 0.81822 0.0
C467 C 0.64579 0.88399 0.80693 0.0
C468 C 0.92437 0.44791 0.23648 0.0
C469 C 0.91647 0.41115 0.22702 0.0
H470 H 0.90944 0.49515 0.27013 0.0
C471 C 0.88457 0.39485 0.24267 0.0
H472 H 0.94877 0.46131 0.22499 0.0
C473 C 0.86184 0.41437 0.2683 0.0
C474 C 0.87051 0.45063 0.27918 0.0
H475 H 0.87745 0.36671 0.23572 0.0
H476 H 0.83766 0.40078 0.27996 0.0
C477 C 0.90169 0.46741 0.26231 0.0
C478 C 0.4711 0.12504 0.77971 0.0
C479 C 0.45597 0.15847 0.7661 0.0
H480 H 0.46279 0.07579 0.81381 0.0
C481 C 0.42127 0.16924 0.78019 0.0
H482 H 0.49769 0.11584 0.76933 0.0
C483 C 0.40128 0.14635 0.8055 0.0
C484 C 0.41548 0.11205 0.81749 0.0
H485 H 0.40916 0.19516 0.77105 0.0
H486 H 0.37415 0.15515 0.81475 0.0
C487 C 0.45105 0.10204 0.80516 0.0
C488 C 0.14005 0.4661 0.79369 0.0
C489 C 0.17114 0.44925 0.77694 0.0
H490 H 0.09296 0.46 0.8311 0.0
C491 C 0.17986 0.41302 0.78853 0.0
H492 H 0.13226 0.49383 0.7854 0.0
C493 C 0.15714 0.3935 0.8145 0.0
C494 C 0.12519 0.40978 0.82982 0.0
H495 H 0.204 0.39939 0.77705 0.0
H496 H 0.16418 0.36531 0.82181 0.0
C497 C 0.11739 0.44661 0.81989 0.0
C498 C 0.39349 0.88576 0.23282 0.0
C499 C 0.40836 0.91902 0.21879 0.0
H500 H 0.40144 0.83762 0.2684 0.0
C501 C 0.44482 0.92807 0.22922 0.0
H502 H 0.36564 0.87773 0.22508 0.0
C503 C 0.46532 0.90515 0.25456 0.0
C504 C 0.44984 0.87262 0.26994 0.0
H505 H 0.45711 0.95353 0.21899 0.0
H506 H 0.49272 0.91373 0.26326 0.0
C507 C 0.41399 0.86283 0.25794 0.0
C508 C 0.86566 0.61551 0.78897 0.0
C509 C 0.8761 0.58045 0.77576 0.0
H510 H 0.88059 0.66347 0.82153 0.0
C511 C 0.91003 0.56586 0.78881 0.0
H512 H 0.83943 0.62734 0.78038 0.0
C513 C 0.93356 0.58653 0.81297 0.0
C514 C 0.92376 0.62228 0.82449 0.0
H515 H 0.91913 0.53909 0.77914 0.0
H516 H 0.96002 0.57499 0.82136 0.0
C517 C 0.88921 0.6362 0.81285 0.0
C518 C 0.59254 0.10807 0.22884 0.0
C519 C 0.6286 0.11756 0.21758 0.0
H520 H 0.545 0.1224 0.26266 0.0
C521 C 0.64299 0.15152 0.22971 0.0
H522 H 0.58063 0.08206 0.22008 0.0
C523 C 0.62248 0.17476 0.25385 0.0
C524 C 0.58709 0.16458 0.26677 0.0
H525 H 0.67052 0.1599 0.22127 0.0
H526 H 0.63468 0.20052 0.26286 0.0
C527 C 0.57203 0.13129 0.25321 0.0
C528 C 0.63611 0.06657 0.75369 0.0
C529 C 0.66886 0.08239 0.76816 0.0
H530 H 0.58726 0.07387 0.71858 0.0
C531 C 0.67861 0.11779 0.75481 0.0
H532 H 0.62757 0.03949 0.76344 0.0
C533 C 0.65541 0.13758 0.72931 0.0
C534 C 0.62189 0.12244 0.71628 0.0
H535 H 0.70397 0.13055 0.76455 0.0
H536 H 0.66339 0.16515 0.72058 0.0
C537 C 0.61291 0.08636 0.728 0.0
C538 C 0.14165 0.38725 0.31008 0.0
C539 C 0.12703 0.42057 0.32372 0.0
H540 H 0.13348 0.33951 0.27474 0.0
C541 C 0.0907 0.43004 0.313 0.0
H542 H 0.16939 0.37889 0.31805 0.0
C543 C 0.07013 0.40753 0.28769 0.0
C544 C 0.08543 0.375 0.27261 0.0
H545 H 0.07858 0.45555 0.32293 0.0
H546 H 0.04287 0.41644 0.27871 0.0
C547 C 0.12109 0.36474 0.28498 0.0
C548 C 0.36236 0.91461 0.75115 0.0
C549 C 0.37229 0.94959 0.7652 0.0
H550 H 0.37844 0.86697 0.71875 0.0
C551 C 0.40665 0.96423 0.75398 0.0
H552 H 0.33591 0.90266 0.75829 0.0
C553 C 0.4309 0.94385 0.73067 0.0
C554 C 0.42152 0.90825 0.71824 0.0
H555 H 0.41554 0.99087 0.76429 0.0
H556 H 0.45756 0.95552 0.72362 0.0
C557 C 0.38671 0.89415 0.72817 0.0
C558 C 0.9441 0.60796 0.31424 0.0
C559 C 0.90799 0.61691 0.32568 0.0
H560 H 0.99114 0.62293 0.27972 0.0
C561 C 0.8929 0.65056 0.31286 0.0
H562 H 0.95656 0.58221 0.32351 0.0
C563 C 0.91282 0.67402 0.28799 0.0
C564 C 0.94832 0.66441 0.27504 0.0
H565 H 0.8653 0.65853 0.32137 0.0
H566 H 0.90011 0.69953 0.2785 0.0
C567 C 0.96402 0.63141 0.28917 0.0
C568 C 0.63282 0.96693 0.28201 0.0
C569 C 0.66641 0.95172 0.26943 0.0
H570 H 0.5828 0.95875 0.31436 0.0
C571 C 0.67618 0.9164 0.28318 0.0
H572 H 0.6242 0.9939 0.27192 0.0
C573 C 0.65231 0.89614 0.30722 0.0
C574 C 0.6181 0.91072 0.31846 0.0
H575 H 0.70212 0.90406 0.27493 0.0
H576 H 0.66042 0.86868 0.31636 0.0
C577 C 0.60897 0.94668 0.3063 0.0
C578 C 0.90306 0.3787 0.73358 0.0
C579 C 0.91604 0.4137 0.72245 0.0
H580 H 0.91471 0.32778 0.76337 0.0
C581 C 0.9525 0.42334 0.73213 0.0
H582 H 0.87513 0.37038 0.72658 0.0
C583 C 0.97508 0.39897 0.75344 0.0
C584 C 0.96188 0.36425 0.76521 0.0
H585 H 0.9634 0.45007 0.72406 0.0
H586 H 1.0029 0.40735 0.76074 0.0
C587 C 0.92579 0.35419 0.75452 0.0
C588 C 0.4283 0.09042 0.30399 0.0
C589 C 0.4196 0.12681 0.31423 0.0
H590 H 0.41328 0.04294 0.27052 0.0
C591 C 0.3863 0.14201 0.30035 0.0
H592 H 0.45377 0.07786 0.3141 0.0
C593 C 0.36299 0.12192 0.27559 0.0
C594 C 0.3724 0.08612 0.26384 0.0
H595 H 0.37852 0.16982 0.30793 0.0
H596 H 0.33777 0.13472 0.26524 0.0
C597 C 0.40499 0.07031 0.27905 0.0
C598 C 0.14646 0.6476 0.73867 0.0
C599 C 0.13161 0.61411 0.72565 0.0
H600 H 0.13872 0.69603 0.77296 0.0
C601 C 0.09537 0.60494 0.73655 0.0
H602 H 0.17415 0.65573 0.73058 0.0
C603 C 0.07507 0.62801 0.7613 0.0
C604 C 0.09055 0.6608 0.77567 0.0
H605 H 0.08307 0.57932 0.72711 0.0
H606 H 0.04784 0.61937 0.77037 0.0
C607 C 0.12618 0.67066 0.76325 0.0
C608 C 0.28146 0.52102 0.5441 0.0
C609 C 0.2484 0.52681 0.56458 0.0
H610 H 0.30715 0.507 0.48958 0.0
C611 C 0.21477 0.52196 0.54436 0.0
H612 H 0.30786 0.52448 0.55872 0.0
C613 C 0.21435 0.51125 0.50454 0.0
C614 C 0.24757 0.50581 0.48409 0.0
H615 H 0.18882 0.52596 0.55942 0.0
H616 H 0.1881 0.50779 0.48962 0.0
C617 C 0.28105 0.51094 0.50437 0.0
C618 C 0.52567 0.82472 0.4998 0.0
C619 C 0.53099 0.79155 0.47947 0.0
H620 H 0.51116 0.85029 0.55466 0.0
C621 C 0.52585 0.75819 0.49992 0.0
H622 H 0.52917 0.85087 0.48476 0.0
C623 C 0.51587 0.75786 0.53971 0.0
C624 C 0.5102 0.79087 0.56008 0.0
H625 H 0.5297 0.73214 0.48521 0.0
H626 H 0.51239 0.73156 0.55447 0.0
C627 C 0.51506 0.82438 0.53969 0.0
C628 C 0.7588 0.52148 0.50873 0.0
C629 C 0.79175 0.52778 0.48813 0.0
H630 H 0.73339 0.50571 0.56309 0.0
C631 C 0.82549 0.52219 0.50802 0.0
H632 H 0.73233 0.52547 0.49435 0.0
C633 C 0.82611 0.51019 0.54761 0.0
C634 C 0.793 0.50413 0.56814 0.0
H635 H 0.85136 0.52653 0.49285 0.0
H636 H 0.85244 0.50611 0.56225 0.0
C637 C 0.75941 0.51007 0.54822 0.0
C638 C 0.51474 0.20915 0.49518 0.0
C639 C 0.50882 0.24276 0.47525 0.0
H640 H 0.53053 0.18237 0.54961 0.0
C641 C 0.51428 0.27566 0.49597 0.0
H642 H 0.51102 0.18333 0.47993 0.0
C643 C 0.52513 0.27511 0.53562 0.0
C644 C 0.53137 0.24165 0.5556 0.0
H645 H 0.51 0.30204 0.48158 0.0
H646 H 0.52881 0.30108 0.55059 0.0
C647 C 0.52621 0.2086 0.53494 0.0
C648 C 0.78136 0.02309 0.04035 0.0
C649 C 0.74794 0.02853 0.06027 0.0
H650 H 0.80801 1.00869 0.98651 0.0
C651 C 0.71466 0.02271 0.03968 0.0
H652 H 0.80751 0.0273 0.05525 0.0
C653 C 0.71496 1.01137 1.00006 0.0
C654 C 0.74854 1.00624 0.98019 0.0
H655 H 0.68845 0.02643 0.05431 0.0
H656 H 0.68897 1.00713 0.98486 0.0
C657 C 0.78165 1.01236 1.00084 0.0
C658 C 0.95961 0.32076 0.98357 0.0
C659 C 0.99568 0.33147 0.97363 0.0
H660 H 0.92029 0.31145 0.02953 0.0
C661 C 1.0193 0.34378 1.00382 0.0
H662 H 0.94058 0.3113 0.96106 0.0
C663 C 1.00764 0.34374 0.04324 0.0
C664 C 0.97205 0.33152 0.05334 0.0
H665 H 0.04723 0.35225 0.99723 0.0
H666 H 0.02691 0.35235 0.06591 0.0
C667 C 0.94792 0.32085 0.02291 0.0
C668 C 0.25881 0.01974 0.99437 0.0
C669 C 0.2924 0.02499 0.97464 0.0
H670 H 0.23172 1.00645 0.04856 0.0
C671 C 0.3255 0.0197 0.99584 0.0
H672 H 0.23279 0.02356 0.97902 0.0
C673 C 0.32487 1.00926 0.03591 0.0
C674 C 0.29114 1.0045 0.05563 0.0
H675 H 0.35184 0.02332 0.98141 0.0
H676 H 0.35074 1.00554 0.05157 0.0
C677 C 0.25819 1.00989 0.03434 0.0
C678 C 1.01335 0.77662 1.00306 0.0
C679 C 1.00872 0.74314 0.98321 0.0
H680 H 0.02556 0.80358 0.05746 0.0
C681 C 1.01364 0.7101 1.00451 0.0
H682 H 1.00976 0.80259 0.9876 0.0
C683 C 0.02337 0.71067 0.04476 0.0
C684 C 0.02771 0.7443 0.06454 0.0
H685 H 1.01051 0.68385 0.98997 0.0
H686 H 0.02701 0.68485 0.06048 0.0
C687 C 0.02244 0.77719 0.0432 0.0
loop_
_geom_bond_atom_site_label_1
_geom_bond_atom_site_label_2
_geom_bond_distance
_geom_bond_site_symmetry_2
_ccdc_geom_bond_type
Cu0 N1 1.999 . S
Cu0 O6 1.974 . S
Cu0 N11 1.985 . S
Cu0 O20 1.959 . S
N1 Cu0 1.999 . S
N1 C3 1.263 . S
N1 C5 1.389 . S
N2 C3 1.358 . S
N2 C4 1.400 . S
C3 N1 1.263 . S
C3 N2 1.358 . S
C3 H9 0.930 . S
C4 N2 1.400 . S
C4 C5 1.351 . S
C4 H21 0.930 . S
C5 N1 1.389 . S
C5 C4 1.351 . S
C5 H10 0.930 . S
O6 Cu0 1.974 . S
O6 C16 1.282 . S
C7 O8 1.261 . S
C7 O20 1.251 . S
O8 C7 1.261 . S
H9 C3 0.930 . S
H10 C5 0.930 . S
N11 Cu0 1.985 . S
N11 C13 1.335 . S
N11 C14 1.390 . S
N12 C13 1.345 . S
N12 C15 1.336 . S
C13 N11 1.335 . S
C13 N12 1.345 . S
C13 H18 0.930 . S
C14 N11 1.390 . S
C14 C15 1.346 . S
C14 H19 0.930 . S
C15 N12 1.336 . S
C15 C14 1.346 . S
C15 H22 0.929 . S
C16 O6 1.282 . S
C16 O17 1.216 . S
O17 C16 1.216 . S
H18 C13 0.930 . S
H19 C14 0.930 . S
O20 Cu0 1.959 . S
O20 C7 1.251 . S
H21 C4 0.930 . S
H22 C15 0.929 . S
Cu23 N24 1.999 . S
Cu23 O29 1.974 . S
Cu23 N34 1.985 . S
Cu23 O43 1.959 . S
N24 Cu23 1.999 . S
N24 C26 1.263 . S
N24 C28 1.389 . S
N25 C26 1.358 . S
N25 C27 1.400 . S
C26 N24 1.263 . S
C26 N25 1.358 . S
C26 H32 0.930 . S
C27 N25 1.400 . S
C27 C28 1.351 . S
C27 H44 0.930 . S
C28 N24 1.389 . S
C28 C27 1.351 . S
C28 H33 0.930 . S
O29 Cu23 1.974 . S
O29 C39 1.282 . S
C30 O31 1.261 . S
C30 O43 1.251 . S
O31 C30 1.261 . S
H32 C26 0.930 . S
H33 C28 0.930 . S
N34 Cu23 1.985 . S
N34 C36 1.335 . S
N34 C37 1.390 . S
N35 C36 1.345 . S
N35 C38 1.336 . S
C36 N34 1.335 . S
C36 N35 1.345 . S
C36 H41 0.930 . S
C37 N34 1.390 . S
C37 C38 1.346 . S
C37 H42 0.930 . S
C38 N35 1.336 . S
C38 C37 1.346 . S
C38 H45 0.929 . S
C39 O29 1.282 . S
C39 O40 1.216 . S
O40 C39 1.216 . S
H41 C36 0.930 . S
H42 C37 0.930 . S
O43 Cu23 1.959 . S
O43 C30 1.251 . S
H44 C27 0.930 . S
H45 C38 0.929 . S
Cu46 N47 1.999 . S
Cu46 O52 1.974 . S
Cu46 N57 1.985 . S
Cu46 O66 1.959 . S
N47 Cu46 1.999 . S
N47 C49 1.263 . S
N47 C51 1.389 . S
N48 C49 1.358 . S
N48 C50 1.400 . S
C49 N47 1.263 . S
C49 N48 1.358 . S
C49 H55 0.930 . S
C50 N48 1.400 . S
C50 C51 1.351 . S
C50 H67 0.930 . S
C51 N47 1.389 . S
C51 C50 1.351 . S
C51 H56 0.930 . S
O52 Cu46 1.974 . S
O52 C62 1.282 . S
C53 O54 1.261 . S
C53 O66 1.251 . S
O54 C53 1.261 . S
H55 C49 0.930 . S
H56 C51 0.930 . S
N57 Cu46 1.985 . S
N57 C59 1.335 . S
N57 C60 1.390 . S
N58 C59 1.345 . S
N58 C61 1.336 . S
C59 N57 1.335 . S
C59 N58 1.345 . S
C59 H64 0.930 . S
C60 N57 1.390 . S
C60 C61 1.346 . S
C60 H65 0.930 . S
C61 N58 1.336 . S
C61 C60 1.346 . S
C61 H68 0.929 . S
C62 O52 1.282 . S
C62 O63 1.216 . S
O63 C62 1.216 . S
H64 C59 0.930 . S
H65 C60 0.930 . S
O66 Cu46 1.959 . S
O66 C53 1.251 . S
H67 C50 0.930 . S
H68 C61 0.929 . S
Cu69 N70 1.999 . S
Cu69 O75 1.974 . S
Cu69 N80 1.985 . S
Cu69 O89 1.959 . S
N70 Cu69 1.999 . S
N70 C72 1.263 . S
N70 C74 1.389 . S
N71 C72 1.358 . S
N71 C73 1.400 . S
C72 N70 1.263 . S
C72 N71 1.358 . S
C72 H78 0.930 . S
C73 N71 1.400 . S
C73 C74 1.351 . S
C73 H90 0.930 . S
C74 N70 1.389 . S
C74 C73 1.351 . S
C74 H79 0.930 . S
O75 Cu69 1.974 . S
O75 C85 1.282 . S
C76 O77 1.261 . S
C76 O89 1.251 . S
O77 C76 1.261 . S
H78 C72 0.930 . S
H79 C74 0.930 . S
N80 Cu69 1.985 . S
N80 C82 1.335 . S
N80 C83 1.390 . S
N81 C82 1.345 . S
N81 C84 1.336 . S
C82 N80 1.335 . S
C82 N81 1.345 . S
C82 H87 0.930 . S
C83 N80 1.390 . S
C83 C84 1.346 . S
C83 H88 0.930 . S
C84 N81 1.336 . S
C84 C83 1.346 . S
C84 H91 0.929 . S
C85 O75 1.282 . S
C85 O86 1.216 . S
O86 C85 1.216 . S
H87 C82 0.930 . S
H88 C83 0.930 . S
O89 Cu69 1.959 . S
O89 C76 1.251 . S
H90 C73 0.930 . S
H91 C84 0.929 . S
Cu92 N93 1.999 . S
Cu92 O98 1.974 . S
Cu92 N103 1.985 . S
Cu92 O112 1.959 . S
N93 Cu92 1.999 . S
N93 C95 1.263 . S
N93 C97 1.389 . S
N94 C95 1.358 . S
N94 C96 1.400 . S
C95 N93 1.263 . S
C95 N94 1.358 . S
C95 H101 0.930 . S
C96 N94 1.400 . S
C96 C97 1.351 . S
C96 H113 0.930 . S
C97 N93 1.389 . S
C97 C96 1.351 . S
C97 H102 0.930 . S
O98 Cu92 1.974 . S
O98 C108 1.282 . S
C99 O100 1.261 . S
C99 O112 1.251 . S
O100 C99 1.261 . S
H101 C95 0.930 . S
H102 C97 0.930 . S
N103 Cu92 1.985 . S
N103 C105 1.335 . S
N103 C106 1.390 . S
N104 C105 1.345 . S
N104 C107 1.336 . S
C105 N103 1.335 . S
C105 N104 1.345 . S
C105 H110 0.930 . S
C106 N103 1.390 . S
C106 C107 1.346 . S
C106 H111 0.930 . S
C107 N104 1.336 . S
C107 C106 1.346 . S
C107 H114 0.929 . S
C108 O98 1.282 . S
C108 O109 1.216 . S
O109 C108 1.216 . S
H110 C105 0.930 . S
H111 C106 0.930 . S
O112 Cu92 1.959 . S
O112 C99 1.251 . S
H113 C96 0.930 . S
H114 C107 0.929 . S
Cu115 N116 1.999 . S
Cu115 O121 1.974 . S
Cu115 N126 1.985 . S
Cu115 O135 1.959 . S
N116 Cu115 1.999 . S
N116 C118 1.263 . S
N116 C120 1.389 . S
N117 C118 1.358 . S
N117 C119 1.400 . S
C118 N116 1.263 . S
C118 N117 1.358 . S
C118 H124 0.930 . S
C119 N117 1.400 . S
C119 C120 1.351 . S
C119 H136 0.930 . S
C120 N116 1.389 . S
C120 C119 1.351 . S
C120 H125 0.930 . S
O121 Cu115 1.974 . S
O121 C131 1.282 . S
C122 O123 1.261 . S
C122 O135 1.251 . S
O123 C122 1.261 . S
H124 C118 0.930 . S
H125 C120 0.930 . S
N126 Cu115 1.985 . S
N126 C128 1.335 . S
N126 C129 1.390 . S
N127 C128 1.345 . S
N127 C130 1.336 . S
C128 N126 1.335 . S
C128 N127 1.345 . S
C128 H133 0.930 . S
C129 N126 1.390 . S
C129 C130 1.346 . S
C129 H134 0.930 . S
C130 N127 1.336 . S
C130 C129 1.346 . S
C130 H137 0.929 . S
C131 O121 1.282 . S
C131 O132 1.216 . S
O132 C131 1.216 . S
H133 C128 0.930 . S
H134 C129 0.930 . S
O135 Cu115 1.959 . S
O135 C122 1.251 . S
H136 C119 0.930 . S
H137 C130 0.929 . S
Cu138 N139 1.999 . S
Cu138 O144 1.974 . S
Cu138 N149 1.985 . S
Cu138 O158 1.959 . S
N139 Cu138 1.999 . S
N139 C141 1.263 . S
N139 C143 1.389 . S
N140 C141 1.358 . S
N140 C142 1.400 . S
C141 N139 1.263 . S
C141 N140 1.358 . S
C141 H147 0.930 . S
C142 N140 1.400 . S
C142 C143 1.351 . S
C142 H159 0.930 . S
C143 N139 1.389 . S
C143 C142 1.351 . S
C143 H148 0.930 . S
O144 Cu138 1.974 . S
O144 C154 1.282 . S
C145 O146 1.261 . S
C145 O158 1.251 . S
O146 C145 1.261 . S
H147 C141 0.930 . S
H148 C143 0.930 . S
N149 Cu138 1.985 . S
N149 C151 1.335 . S
N149 C152 1.390 . S
N150 C151 1.345 . S
N150 C153 1.336 . S
C151 N149 1.335 . S
C151 N150 1.345 . S
C151 H156 0.930 . S
C152 N149 1.390 . S
C152 C153 1.346 . S
C152 H157 0.930 . S
C153 N150 1.336 . S
C153 C152 1.346 . S
C153 H160 0.929 . S
C154 O144 1.282 . S
C154 O155 1.216 . S
O155 C154 1.216 . S
H156 C151 0.930 . S
H157 C152 0.930 . S
O158 Cu138 1.959 . S
O158 C145 1.251 . S
H159 C142 0.930 . S
H160 C153 0.929 . S
Cu161 N162 1.999 . S
Cu161 O167 1.974 . S
Cu161 N172 1.985 . S
Cu161 O181 1.959 . S
N162 Cu161 1.999 . S
N162 C164 1.263 . S
N162 C166 1.389 . S
N163 C164 1.358 . S
N163 C165 1.400 . S
C164 N162 1.263 . S
C164 N163 1.358 . S
C164 H170 0.930 . S
C165 N163 1.400 . S
C165 C166 1.351 . S
C165 H182 0.930 . S
C166 N162 1.389 . S
C166 C165 1.351 . S
C166 H171 0.930 . S
O167 Cu161 1.974 . S
O167 C177 1.282 . S
C168 O169 1.261 . S
C168 O181 1.251 . S
O169 C168 1.261 . S
H170 C164 0.930 . S
H171 C166 0.930 . S
N172 Cu161 1.985 . S
N172 C174 1.335 . S
N172 C175 1.390 . S
N173 C174 1.345 . S
N173 C176 1.336 . S
C174 N172 1.335 . S
C174 N173 1.345 . S
C174 H179 0.930 . S
C175 N172 1.390 . S
C175 C176 1.346 . S
C175 H180 0.930 . S
C176 N173 1.336 . S
C176 C175 1.346 . S
C176 H183 0.929 . S
C177 O167 1.282 . S
C177 O178 1.216 . S
O178 C177 1.216 . S
H179 C174 0.930 . S
H180 C175 0.930 . S
O181 Cu161 1.959 . S
O181 C168 1.251 . S
H182 C165 0.930 . S
H183 C176 0.929 . S
Cu184 N185 1.999 1_565 S
Cu184 O190 1.974 . S
Cu184 N195 1.985 . S
Cu184 O204 1.959 . S
N185 Cu184 1.999 1_545 S
N185 C187 1.263 . S
N185 C189 1.389 . S
N186 C187 1.358 . S
N186 C188 1.400 . S
C187 N185 1.263 . S
C187 N186 1.358 . S
C187 H193 0.930 . S
C188 N186 1.400 . S
C188 C189 1.351 . S
C188 H205 0.930 . S
C189 N185 1.389 . S
C189 C188 1.351 . S
C189 H194 0.930 . S
O190 Cu184 1.974 . S
O190 C200 1.282 . S
C191 O192 1.261 . S
C191 O204 1.251 . S
O192 C191 1.261 . S
H193 C187 0.930 . S
H194 C189 0.930 . S
N195 Cu184 1.985 . S
N195 C197 1.335 . S
N195 C198 1.390 . S
N196 C197 1.345 . S
N196 C199 1.336 . S
C197 N195 1.335 . S
C197 N196 1.345 . S
C197 H202 0.930 . S
C198 N195 1.390 . S
C198 C199 1.346 . S
C198 H203 0.930 . S
C199 N196 1.336 . S
C199 C198 1.346 . S
C199 H206 0.929 . S
C200 O190 1.282 . S
C200 O201 1.216 . S
O201 C200 1.216 . S
H202 C197 0.930 . S
H203 C198 0.930 . S
O204 Cu184 1.959 . S
O204 C191 1.251 . S
H205 C188 0.930 . S
H206 C199 0.929 . S
Cu207 N208 1.999 1_655 S
Cu207 O213 1.974 . S
Cu207 N218 1.985 . S
Cu207 O227 1.959 . S
N208 Cu207 1.999 1_455 S
N208 C210 1.263 . S
N208 C212 1.389 . S
N209 C210 1.358 . S
N209 C211 1.400 . S
C210 N208 1.263 . S
C210 N209 1.358 . S
C210 H216 0.930 . S
C211 N209 1.400 . S
C211 C212 1.351 . S
C211 H228 0.930 . S
C212 N208 1.389 . S
C212 C211 1.351 . S
C212 H217 0.930 . S
O213 Cu207 1.974 . S
O213 C223 1.282 . S
C214 O215 1.261 . S
C214 O227 1.251 . S
O215 C214 1.261 . S
H216 C210 0.930 . S
H217 C212 0.930 . S
N218 Cu207 1.985 . S
N218 C220 1.335 . S
N218 C221 1.390 . S
N219 C220 1.345 . S
N219 C222 1.336 . S
C220 N218 1.335 . S
C220 N219 1.345 . S
C220 H225 0.930 . S
C221 N218 1.390 . S
C221 C222 1.346 . S
C221 H226 0.930 . S
C222 N219 1.336 . S
C222 C221 1.346 . S
C222 H229 0.929 . S
C223 O213 1.282 . S
C223 O224 1.216 . S
O224 C223 1.216 . S
H225 C220 0.930 . S
H226 C221 0.930 . S
O227 Cu207 1.959 . S
O227 C214 1.251 . S
H228 C211 0.930 . S
H229 C222 0.929 . S
Cu230 N231 1.999 1_545 S
Cu230 O236 1.974 . S
Cu230 N241 1.985 . S
Cu230 O250 1.959 . S
N231 Cu230 1.999 1_565 S
N231 C233 1.263 . S
N231 C235 1.389 . S
N232 C233 1.358 . S
N232 C234 1.400 . S
C233 N231 1.263 . S
C233 N232 1.358 . S
C233 H239 0.930 . S
C234 N232 1.400 . S
C234 C235 1.351 . S
C234 H251 0.930 . S
C235 N231 1.389 . S
C235 C234 1.351 . S
C235 H240 0.930 . S
O236 Cu230 1.974 . S
O236 C246 1.282 . S
C237 O238 1.261 . S
C237 O250 1.251 . S
O238 C237 1.261 . S
H239 C233 0.930 . S
H240 C235 0.930 . S
N241 Cu230 1.985 . S
N241 C243 1.335 . S
N241 C244 1.390 . S
N242 C243 1.345 . S
N242 C245 1.336 . S
C243 N241 1.335 . S
C243 N242 1.345 . S
C243 H248 0.930 . S
C244 N241 1.390 . S
C244 C245 1.346 . S
C244 H249 0.930 . S
C245 N242 1.336 . S
C245 C244 1.346 . S
C245 H252 0.929 . S
C246 O236 1.282 . S
C246 O247 1.216 . S
O247 C246 1.216 . S
H248 C243 0.930 . S
H249 C244 0.930 . S
O250 Cu230 1.959 . S
O250 C237 1.251 . S
H251 C234 0.930 . S
H252 C245 0.929 . S
Cu253 N254 1.999 1_455 S
Cu253 O259 1.974 . S
Cu253 N264 1.985 . S
Cu253 O273 1.959 . S
N254 Cu253 1.999 1_655 S
N254 C256 1.263 . S
N254 C258 1.389 . S
N255 C256 1.358 . S
N255 C257 1.400 . S
C256 N254 1.263 . S
C256 N255 1.358 . S
C256 H262 0.930 . S
C257 N255 1.400 . S
C257 C258 1.351 . S
C257 H274 0.930 . S
C258 N254 1.389 . S
C258 C257 1.351 . S
C258 H263 0.930 . S
O259 Cu253 1.974 . S
O259 C269 1.282 . S
C260 O261 1.261 . S
C260 O273 1.251 . S
O261 C260 1.261 . S
H262 C256 0.930 . S
H263 C258 0.930 . S
N264 Cu253 1.985 . S
N264 C266 1.335 . S
N264 C267 1.390 . S
N265 C266 1.345 . S
N265 C268 1.336 . S
C266 N264 1.335 . S
C266 N265 1.345 . S
C266 H271 0.930 . S
C267 N264 1.390 . S
C267 C268 1.346 . S
C267 H272 0.930 . S
C268 N265 1.336 . S
C268 C267 1.346 . S
C268 H275 0.929 . S
C269 O259 1.282 . S
C269 O270 1.216 . S
O270 C269 1.216 . S
H271 C266 0.930 . S
H272 C267 0.930 . S
O273 Cu253 1.959 . S
O273 C260 1.251 . S
H274 C257 0.930 . S
H275 C268 0.929 . S
Cu276 N277 1.999 1_545 S
Cu276 O282 1.974 . S
Cu276 N287 1.985 . S
Cu276 O296 1.959 . S
N277 Cu276 1.999 1_565 S
N277 C279 1.263 . S
N277 C281 1.389 . S
N278 C279 1.358 . S
N278 C280 1.400 . S
C279 N277 1.263 . S
C279 N278 1.358 . S
C279 H285 0.930 . S
C280 N278 1.400 . S
C280 C281 1.351 . S
C280 H297 0.930 . S
C281 N277 1.389 . S
C281 C280 1.351 . S
C281 H286 0.930 . S
O282 Cu276 1.974 . S
O282 C292 1.282 . S
C283 O284 1.261 . S
C283 O296 1.251 . S
O284 C283 1.261 . S
H285 C279 0.930 . S
H286 C281 0.930 . S
N287 Cu276 1.985 . S
N287 C289 1.335 . S
N287 C290 1.390 . S
N288 C289 1.345 . S
N288 C291 1.336 . S
C289 N287 1.335 . S
C289 N288 1.345 . S
C289 H294 0.930 . S
C290 N287 1.390 . S
C290 C291 1.346 . S
C290 H295 0.930 . S
C291 N288 1.336 . S
C291 C290 1.346 . S
C291 H298 0.929 . S
C292 O282 1.282 . S
C292 O293 1.216 . S
O293 C292 1.216 . S
H294 C289 0.930 . S
H295 C290 0.930 . S
O296 Cu276 1.959 . S
O296 C283 1.251 . S
H297 C280 0.930 . S
H298 C291 0.929 . S
Cu299 N300 1.999 1_455 S
Cu299 O305 1.974 . S
Cu299 N310 1.985 . S
Cu299 O319 1.959 . S
N300 Cu299 1.999 1_655 S
N300 C302 1.263 . S
N300 C304 1.389 . S
N301 C302 1.358 . S
N301 C303 1.400 . S
C302 N300 1.263 . S
C302 N301 1.358 . S
C302 H308 0.930 . S
C303 N301 1.400 . S
C303 C304 1.351 . S
C303 H320 0.930 . S
C304 N300 1.389 . S
C304 C303 1.351 . S
C304 H309 0.930 . S
O305 Cu299 1.974 . S
O305 C315 1.282 . S
C306 O307 1.261 . S
C306 O319 1.251 . S
O307 C306 1.261 . S
H308 C302 0.930 . S
H309 C304 0.930 . S
N310 Cu299 1.985 . S
N310 C312 1.335 . S
N310 C313 1.390 . S
N311 C312 1.345 . S
N311 C314 1.336 . S
C312 N310 1.335 . S
C312 N311 1.345 . S
C312 H317 0.930 . S
C313 N310 1.390 . S
C313 C314 1.346 . S
C313 H318 0.930 . S
C314 N311 1.336 . S
C314 C313 1.346 . S
C314 H321 0.929 . S
C315 O305 1.282 . S
C315 O316 1.216 . S
O316 C315 1.216 . S
H317 C312 0.930 . S
H318 C313 0.930 . S
O319 Cu299 1.959 . S
O319 C306 1.251 . S
H320 C303 0.930 . S
H321 C314 0.929 . S
Cu322 N323 1.999 1_565 S
Cu322 O328 1.974 . S
Cu322 N333 1.985 . S
Cu322 O342 1.959 . S
N323 Cu322 1.999 1_545 S
N323 C325 1.263 . S
N323 C327 1.389 . S
N324 C325 1.358 . S
N324 C326 1.400 . S
C325 N323 1.263 . S
C325 N324 1.358 . S
C325 H331 0.930 . S
C326 N324 1.400 . S
C326 C327 1.351 . S
C326 H343 0.930 . S
C327 N323 1.389 . S
C327 C326 1.351 . S
C327 H332 0.930 . S
O328 Cu322 1.974 . S
O328 C338 1.282 . S
C329 O330 1.261 . S
C329 O342 1.251 . S
O330 C329 1.261 . S
H331 C325 0.930 . S
H332 C327 0.930 . S
N333 Cu322 1.985 . S
N333 C335 1.335 . S
N333 C336 1.390 . S
N334 C335 1.345 . S
N334 C337 1.336 . S
C335 N333 1.335 . S
C335 N334 1.345 . S
C335 H340 0.930 . S
C336 N333 1.390 . S
C336 C337 1.346 . S
C336 H341 0.930 . S
C337 N334 1.336 . S
C337 C336 1.346 . S
C337 H344 0.929 . S
C338 O328 1.282 . S
C338 O339 1.216 . S
O339 C338 1.216 . S
H340 C335 0.930 . S
H341 C336 0.930 . S
O342 Cu322 1.959 . S
O342 C329 1.251 . S
H343 C326 0.930 . S
H344 C337 0.929 . S
Cu345 N346 1.999 1_655 S
Cu345 O351 1.974 . S
Cu345 N356 1.985 . S
Cu345 O365 1.959 . S
N346 Cu345 1.999 1_455 S
N346 C348 1.263 . S
N346 C350 1.389 . S
N347 C348 1.358 . S
N347 C349 1.400 . S
C348 N346 1.263 . S
C348 N347 1.358 . S
C348 H354 0.930 . S
C349 N347 1.400 . S
C349 C350 1.351 . S
C349 H366 0.930 . S
C350 N346 1.389 . S
C350 C349 1.351 . S
C350 H355 0.930 . S
O351 Cu345 1.974 . S
O351 C361 1.282 . S
C352 O353 1.261 . S
C352 O365 1.251 . S
O353 C352 1.261 . S
H354 C348 0.930 . S
H355 C350 0.930 . S
N356 Cu345 1.985 . S
N356 C358 1.335 . S
N356 C359 1.390 . S
N357 C358 1.345 . S
N357 C360 1.336 . S
C358 N356 1.335 . S
C358 N357 1.345 . S
C358 H363 0.930 . S
C359 N356 1.390 . S
C359 C360 1.346 . S
C359 H364 0.930 . S
C360 N357 1.336 . S
C360 C359 1.346 . S
C360 H367 0.929 . S
C361 O351 1.282 . S
C361 O362 1.216 . S
O362 C361 1.216 . S
H363 C358 0.930 . S
H364 C359 0.930 . S
O365 Cu345 1.959 . S
O365 C352 1.251 . S
H366 C349 0.930 . S
H367 C360 0.929 . S
C368 C369 1.387 . S
C368 H372 0.950 . S
C368 C377 1.390 . S
C369 C368 1.387 . S
C369 C371 1.387 . S
H370 C377 0.950 . S
C371 C369 1.387 . S
C371 C373 1.390 . S
C371 H375 0.950 . S
H372 C368 0.950 . S
C373 C371 1.390 . S
C373 C374 1.387 . S
C373 H376 0.950 . S
C374 C373 1.387 . S
C374 C377 1.387 . S
H375 C371 0.950 . S
H376 C373 0.950 . S
C377 C368 1.390 . S
C377 H370 0.950 . S
C377 C374 1.387 . S
C378 C379 1.387 . S
C378 H382 0.950 . S
C378 C387 1.390 . S
C379 C378 1.387 . S
C379 C381 1.387 . S
H380 C387 0.950 . S
C381 C379 1.387 . S
C381 C383 1.390 . S
C381 H385 0.950 . S
H382 C378 0.950 . S
C383 C381 1.390 . S
C383 C384 1.387 . S
C383 H386 0.950 . S
C384 C383 1.387 . S
C384 C387 1.387 . S
H385 C381 0.950 . S
H386 C383 0.950 . S
C387 C378 1.390 . S
C387 H380 0.950 . S
C387 C384 1.387 . S
C388 C389 1.387 . S
C388 H392 0.950 . S
C388 C397 1.390 . S
C389 C388 1.387 . S
C389 C391 1.387 . S
H390 C397 0.950 . S
C391 C389 1.387 . S
C391 C393 1.390 . S
C391 H395 0.950 . S
H392 C388 0.950 . S
C393 C391 1.390 . S
C393 C394 1.387 . S
C393 H396 0.950 . S
C394 C393 1.387 . S
C394 C397 1.387 . S
H395 C391 0.950 . S
H396 C393 0.950 . S
C397 C388 1.390 . S
C397 H390 0.950 . S
C397 C394 1.387 . S
C398 C399 1.387 . S
C398 H402 0.950 . S
C398 C407 1.390 . S
C399 C398 1.387 . S
C399 C401 1.387 . S
H400 C407 0.950 . S
C401 C399 1.387 . S
C401 C403 1.390 . S
C401 H405 0.950 . S
H402 C398 0.950 . S
C403 C401 1.390 . S
C403 C404 1.387 . S
C403 H406 0.950 . S
C404 C403 1.387 . S
C404 C407 1.387 . S
H405 C401 0.950 . S
H406 C403 0.950 . S
C407 C398 1.390 . S
C407 H400 0.950 . S
C407 C404 1.387 . S
C408 C409 1.387 . S
C408 H412 0.950 . S
C408 C417 1.390 . S
C409 C408 1.387 . S
C409 C411 1.387 . S
H410 C417 0.950 . S
C411 C409 1.387 . S
C411 C413 1.390 . S
C411 H415 0.950 . S
H412 C408 0.950 . S
C413 C411 1.390 . S
C413 C414 1.387 . S
C413 H416 0.950 . S
C414 C413 1.387 . S
C414 C417 1.387 . S
H415 C411 0.950 . S
H416 C413 0.950 . S
C417 C408 1.390 . S
C417 H410 0.950 . S
C417 C414 1.387 . S
C418 C419 1.387 . S
C418 H422 0.950 . S
C418 C427 1.390 . S
C419 C418 1.387 . S
C419 C421 1.387 . S
H420 C427 0.950 . S
C421 C419 1.387 . S
C421 C423 1.390 . S
C421 H425 0.950 . S
H422 C418 0.950 . S
C423 C421 1.390 . S
C423 C424 1.387 . S
C423 H426 0.950 . S
C424 C423 1.387 . S
C424 C427 1.387 . S
H425 C421 0.950 . S
H426 C423 0.950 . S
C427 C418 1.390 . S
C427 H420 0.950 . S
C427 C424 1.387 . S
C428 C429 1.387 . S
C428 H432 0.950 . S
C428 C437 1.390 . S
C429 C428 1.387 . S
C429 C431 1.387 . S
H430 C437 0.950 . S
C431 C429 1.387 . S
C431 C433 1.390 . S
C431 H435 0.950 . S
H432 C428 0.950 . S
C433 C431 1.390 . S
C433 C434 1.387 . S
C433 H436 0.950 . S
C434 C433 1.387 . S
C434 C437 1.387 . S
H435 C431 0.950 . S
H436 C433 0.950 . S
C437 C428 1.390 . S
C437 H430 0.950 . S
C437 C434 1.387 . S
C438 C439 1.387 . S
C438 H442 0.950 . S
C438 C447 1.390 . S
C439 C438 1.387 . S
C439 C441 1.387 . S
H440 C447 0.950 . S
C441 C439 1.387 . S
C441 C443 1.390 . S
C441 H445 0.950 . S
H442 C438 0.950 . S
C443 C441 1.390 . S
C443 C444 1.387 . S
C443 H446 0.950 . S
C444 C443 1.387 . S
C444 C447 1.387 . S
H445 C441 0.950 . S
H446 C443 0.950 . S
C447 C438 1.390 . S
C447 H440 0.950 . S
C447 C444 1.387 . S
C448 C449 1.387 . S
C448 H452 0.950 . S
C448 C457 1.390 . S
C449 C448 1.387 . S
C449 C451 1.387 . S
H450 C457 0.950 . S
C451 C449 1.387 . S
C451 C453 1.390 . S
C451 H455 0.950 . S
H452 C448 0.950 . S
C453 C451 1.390 . S
C453 C454 1.387 . S
C453 H456 0.950 . S
C454 C453 1.387 . S
C454 C457 1.387 . S
H455 C451 0.950 . S
H456 C453 0.950 . S
C457 C448 1.390 . S
C457 H450 0.950 . S
C457 C454 1.387 . S
C458 C459 1.387 . S
C458 H462 0.950 . S
C458 C467 1.390 . S
C459 C458 1.387 . S
C459 C461 1.387 . S
H460 C467 0.950 . S
C461 C459 1.387 . S
C461 C463 1.390 . S
C461 H465 0.950 . S
H462 C458 0.950 . S
C463 C461 1.390 . S
C463 C464 1.387 . S
C463 H466 0.950 . S
C464 C463 1.387 . S
C464 C467 1.387 . S
H465 C461 0.950 . S
H466 C463 0.950 . S
C467 C458 1.390 . S
C467 H460 0.950 . S
C467 C464 1.387 . S
C468 C469 1.387 . S
C468 H472 0.950 . S
C468 C477 1.390 . S
C469 C468 1.387 . S
C469 C471 1.387 . S
H470 C477 0.950 . S
C471 C469 1.387 . S
C471 C473 1.390 . S
C471 H475 0.950 . S
H472 C468 0.950 . S
C473 C471 1.390 . S
C473 C474 1.387 . S
C473 H476 0.950 . S
C474 C473 1.387 . S
C474 C477 1.387 . S
H475 C471 0.950 . S
H476 C473 0.950 . S
C477 C468 1.390 . S
C477 H470 0.950 . S
C477 C474 1.387 . S
C478 C479 1.387 . S
C478 H482 0.950 . S
C478 C487 1.390 . S
C479 C478 1.387 . S
C479 C481 1.387 . S
H480 C487 0.950 . S
C481 C479 1.387 . S
C481 C483 1.390 . S
C481 H485 0.950 . S
H482 C478 0.950 . S
C483 C481 1.390 . S
C483 C484 1.387 . S
C483 H486 0.950 . S
C484 C483 1.387 . S
C484 C487 1.387 . S
H485 C481 0.950 . S
H486 C483 0.950 . S
C487 C478 1.390 . S
C487 H480 0.950 . S
C487 C484 1.387 . S
C488 C489 1.387 . S
C488 H492 0.950 . S
C488 C497 1.390 . S
C489 C488 1.387 . S
C489 C491 1.387 . S
H490 C497 0.950 . S
C491 C489 1.387 . S
C491 C493 1.390 . S
C491 H495 0.950 . S
H492 C488 0.950 . S
C493 C491 1.390 . S
C493 C494 1.387 . S
C493 H496 0.950 . S
C494 C493 1.387 . S
C494 C497 1.387 . S
H495 C491 0.950 . S
H496 C493 0.950 . S
C497 C488 1.390 . S
C497 H490 0.950 . S
C497 C494 1.387 . S
C498 C499 1.387 . S
C498 H502 0.950 . S
C498 C507 1.390 . S
C499 C498 1.387 . S
C499 C501 1.387 . S
H500 C507 0.950 . S
C501 C499 1.387 . S
C501 C503 1.390 . S
C501 H505 0.950 . S
H502 C498 0.950 . S
C503 C501 1.390 . S
C503 C504 1.387 . S
C503 H506 0.950 . S
C504 C503 1.387 . S
C504 C507 1.387 . S
H505 C501 0.950 . S
H506 C503 0.950 . S
C507 C498 1.390 . S
C507 H500 0.950 . S
C507 C504 1.387 . S
C508 C509 1.387 . S
C508 H512 0.950 . S
C508 C517 1.390 . S
C509 C508 1.387 . S
C509 C511 1.387 . S
H510 C517 0.950 . S
C511 C509 1.387 . S
C511 C513 1.390 . S
C511 H515 0.950 . S
H512 C508 0.950 . S
C513 C511 1.390 . S
C513 C514 1.387 . S
C513 H516 0.950 . S
C514 C513 1.387 . S
C514 C517 1.387 . S
H515 C511 0.950 . S
H516 C513 0.950 . S
C517 C508 1.390 . S
C517 H510 0.950 . S
C517 C514 1.387 . S
C518 C519 1.387 . S
C518 H522 0.950 . S
C518 C527 1.390 . S
C519 C518 1.387 . S
C519 C521 1.387 . S
H520 C527 0.950 . S
C521 C519 1.387 . S
C521 C523 1.390 . S
C521 H525 0.950 . S
H522 C518 0.950 . S
C523 C521 1.390 . S
C523 C524 1.387 . S
C523 H526 0.950 . S
C524 C523 1.387 . S
C524 C527 1.387 . S
H525 C521 0.950 . S
H526 C523 0.950 . S
C527 C518 1.390 . S
C527 H520 0.950 . S
C527 C524 1.387 . S
C528 C529 1.387 . S
C528 H532 0.950 . S
C528 C537 1.390 . S
C529 C528 1.387 . S
C529 C531 1.387 . S
H530 C537 0.950 . S
C531 C529 1.387 . S
C531 C533 1.390 . S
C531 H535 0.950 . S
H532 C528 0.950 . S
C533 C531 1.390 . S
C533 C534 1.387 . S
C533 H536 0.950 . S
C534 C533 1.387 . S
C534 C537 1.387 . S
H535 C531 0.950 . S
H536 C533 0.950 . S
C537 C528 1.390 . S
C537 H530 0.950 . S
C537 C534 1.387 . S
C538 C539 1.387 . S
C538 H542 0.950 . S
C538 C547 1.390 . S
C539 C538 1.387 . S
C539 C541 1.387 . S
H540 C547 0.950 . S
C541 C539 1.387 . S
C541 C543 1.390 . S
C541 H545 0.950 . S
H542 C538 0.950 . S
C543 C541 1.390 . S
C543 C544 1.387 . S
C543 H546 0.950 . S
C544 C543 1.387 . S
C544 C547 1.387 . S
H545 C541 0.950 . S
H546 C543 0.950 . S
C547 C538 1.390 . S
C547 H540 0.950 . S
C547 C544 1.387 . S
C548 C549 1.387 . S
C548 H552 0.950 . S
C548 C557 1.390 . S
C549 C548 1.387 . S
C549 C551 1.387 . S
H550 C557 0.950 . S
C551 C549 1.387 . S
C551 C553 1.390 . S
C551 H555 0.950 . S
H552 C548 0.950 . S
C553 C551 1.390 . S
C553 C554 1.387 . S
C553 H556 0.950 . S
C554 C553 1.387 . S
C554 C557 1.387 . S
H555 C551 0.950 . S
H556 C553 0.950 . S
C557 C548 1.390 . S
C557 H550 0.950 . S
C557 C554 1.387 . S
C558 C559 1.387 . S
C558 H562 0.950 . S
C558 C567 1.390 . S
C559 C558 1.387 . S
C559 C561 1.387 . S
H560 C567 0.950 . S
C561 C559 1.387 . S
C561 C563 1.390 . S
C561 H565 0.950 . S
H562 C558 0.950 . S
C563 C561 1.390 . S
C563 C564 1.387 . S
C563 H566 0.950 . S
C564 C563 1.387 . S
C564 C567 1.387 . S
H565 C561 0.950 . S
H566 C563 0.950 . S
C567 C558 1.390 . S
C567 H560 0.950 . S
C567 C564 1.387 . S
C568 C569 1.387 . S
C568 H572 0.950 . S
C568 C577 1.390 . S
C569 C568 1.387 . S
C569 C571 1.387 . S
H570 C577 0.950 . S
C571 C569 1.387 . S
C571 C573 1.390 . S
C571 H575 0.950 . S
H572 C568 0.950 . S
C573 C571 1.390 . S
C573 C574 1.387 . S
C573 H576 0.950 . S
C574 C573 1.387 . S
C574 C577 1.387 . S
H575 C571 0.950 . S
H576 C573 0.950 . S
C577 C568 1.390 . S
C577 H570 0.950 . S
C577 C574 1.387 . S
C578 C579 1.387 . S
C578 H582 0.950 . S
C578 C587 1.390 . S
C579 C578 1.387 . S
C579 C581 1.387 . S
H580 C587 0.950 . S
C581 C579 1.387 . S
C581 C583 1.390 . S
C581 H585 0.950 . S
H582 C578 0.950 . S
C583 C581 1.390 . S
C583 C584 1.387 . S
C583 H586 0.950 . S
C584 C583 1.387 . S
C584 C587 1.387 . S
H585 C581 0.950 . S
H586 C583 0.950 . S
C587 C578 1.390 . S
C587 H580 0.950 . S
C587 C584 1.387 . S
C588 C589 1.387 . S
C588 H592 0.950 . S
C588 C597 1.390 . S
C589 C588 1.387 . S
C589 C591 1.387 . S
H590 C597 0.950 . S
C591 C589 1.387 . S
C591 C593 1.390 . S
C591 H595 0.950 . S
H592 C588 0.950 . S
C593 C591 1.390 . S
C593 C594 1.387 . S
C593 H596 0.950 . S
C594 C593 1.387 . S
C594 C597 1.387 . S
H595 C591 0.950 . S
H596 C593 0.950 . S
C597 C588 1.390 . S
C597 H590 0.950 . S
C597 C594 1.387 . S
C598 C599 1.387 . S
C598 H602 0.950 . S
C598 C607 1.390 . S
C599 C598 1.387 . S
C599 C601 1.387 . S
H600 C607 0.950 . S
C601 C599 1.387 . S
C601 C603 1.390 . S
C601 H605 0.950 . S
H602 C598 0.950 . S
C603 C601 1.390 . S
C603 C604 1.387 . S
C603 H606 0.950 . S
C604 C603 1.387 . S
C604 C607 1.387 . S
H605 C601 0.950 . S
H606 C603 0.950 . S
C607 C598 1.390 . S
C607 H600 0.950 . S
C607 C604 1.387 . S
C608 C609 1.387 . S
C608 H612 0.950 . S
C608 C617 1.390 . S
C609 C608 1.387 . S
C609 C611 1.387 . S
H610 C617 0.950 . S
C611 C609 1.387 . S
C611 C613 1.390 . S
C611 H615 0.950 . S
H612 C608 0.950 . S
C613 C611 1.390 . S
C613 C614 1.387 . S
C613 H616 0.950 . S
C614 C613 1.387 . S
C614 C617 1.387 . S
H615 C611 0.950 . S
H616 C613 0.950 . S
C617 C608 1.390 . S
C617 H610 0.950 . S
C617 C614 1.387 . S
C618 C619 1.387 . S
C618 H622 0.950 . S
C618 C627 1.390 . S
C619 C618 1.387 . S
C619 C621 1.387 . S
H620 C627 0.950 . S
C621 C619 1.387 . S
C621 C623 1.390 . S
C621 H625 0.950 . S
H622 C618 0.950 . S
C623 C621 1.390 . S
C623 C624 1.387 . S
C623 H626 0.950 . S
C624 C623 1.387 . S
C624 C627 1.387 . S
H625 C621 0.950 . S
H626 C623 0.950 . S
C627 C618 1.390 . S
C627 H620 0.950 . S
C627 C624 1.387 . S
C628 C629 1.387 . S
C628 H632 0.950 . S
C628 C637 1.390 . S
C629 C628 1.387 . S
C629 C631 1.387 . S
H630 C637 0.950 . S
C631 C629 1.387 . S
C631 C633 1.390 . S
C631 H635 0.950 . S
H632 C628 0.950 . S
C633 C631 1.390 . S
C633 C634 1.387 . S
C633 H636 0.950 . S
C634 C633 1.387 . S
C634 C637 1.387 . S
H635 C631 0.950 . S
H636 C633 0.950 . S
C637 C628 1.390 . S
C637 H630 0.950 . S
C637 C634 1.387 . S
C638 C639 1.387 . S
C638 H642 0.950 . S
C638 C647 1.390 . S
C639 C638 1.387 . S
C639 C641 1.387 . S
H640 C647 0.950 . S
C641 C639 1.387 . S
C641 C643 1.390 . S
C641 H645 0.950 . S
H642 C638 0.950 . S
C643 C641 1.390 . S
C643 C644 1.387 . S
C643 H646 0.950 . S
C644 C643 1.387 . S
C644 C647 1.387 . S
H645 C641 0.950 . S
H646 C643 0.950 . S
C647 C638 1.390 . S
C647 H640 0.950 . S
C647 C644 1.387 . S
C648 C649 1.387 . S
C648 H652 0.950 . S
C648 C657 1.390 1_544 S
C649 C648 1.387 . S
C649 C651 1.387 . S
H650 C657 0.950 . S
C651 C649 1.387 . S
C651 C653 1.390 1_544 S
C651 H655 0.950 . S
H652 C648 0.950 . S
C653 C651 1.390 1_566 S
C653 C654 1.387 . S
C653 H656 0.950 . S
C654 C653 1.387 . S
C654 C657 1.387 . S
H655 C651 0.950 . S
H656 C653 0.950 . S
C657 C648 1.390 1_566 S
C657 H650 0.950 . S
C657 C654 1.387 . S
C658 C659 1.387 . S
C658 H662 0.950 . S
C658 C667 1.390 1_656 S
C659 C658 1.387 . S
C659 C661 1.387 . S
H660 C667 0.950 . S
C661 C659 1.387 . S
C661 C663 1.390 1_656 S
C661 H665 0.950 . S
H662 C658 0.950 . S
C663 C661 1.390 1_454 S
C663 C664 1.387 . S
C663 H666 0.950 . S
C664 C663 1.387 . S
C664 C667 1.387 . S
H665 C661 0.950 . S
H666 C663 0.950 . S
C667 C658 1.390 1_454 S
C667 H660 0.950 . S
C667 C664 1.387 . S
C668 C669 1.387 . S
C668 H672 0.950 . S
C668 C677 1.390 1_546 S
C669 C668 1.387 . S
C669 C671 1.387 . S
H670 C677 0.950 . S
C671 C669 1.387 . S
C671 C673 1.390 1_546 S
C671 H675 0.950 . S
H672 C668 0.950 . S
C673 C671 1.390 1_564 S
C673 C674 1.387 . S
C673 H676 0.950 . S
C674 C673 1.387 . S
C674 C677 1.387 . S
H675 C671 0.950 . S
H676 C673 0.950 . S
C677 C668 1.390 1_564 S
C677 H670 0.950 . S
C677 C674 1.387 . S
C678 C679 1.387 . S
C678 H682 0.950 . S
C678 C687 1.390 1_456 S
C679 C678 1.387 . S
C679 C681 1.387 . S
H680 C687 0.950 . S
C681 C679 1.387 . S
C681 C683 1.390 1_456 S
C681 H685 0.950 . S
H682 C678 0.950 . S
C683 C681 1.390 1_654 S
C683 C684 1.387 . S
C683 H686 0.950 . S
C684 C683 1.387 . S
C684 C687 1.387 . S
H685 C681 0.950 . S
H686 C683 0.950 . S
C687 C678 1.390 1_654 S
C687 H680 0.950 . S
C687 C684 1.387 . S
C369 N12 1.673 . S
C374 N173 1.674 . S
C379 N35 1.673 . S
C384 N104 1.674 . S
C389 N127 1.673 . S
C394 N58 1.674 . S
C399 N81 1.673 . S
C404 N150 1.674 . S
C409 N196 1.673 . S
C414 N357 1.674 . S
C419 N288 1.674 . S
C424 N219 1.673 . S
C429 N311 1.673 . S
C434 N242 1.674 . S
C439 N334 1.674 . S
C444 N265 1.673 . S
C449 N2 1.710 . S
C454 C269 1.710 . S
C459 N25 1.712 . S
C464 C200 1.711 . S
C469 C223 1.711 . S
C474 N48 1.710 . S
C479 N71 1.712 . S
C484 C246 1.709 . S
C489 N94 1.711 . S
C494 C315 1.711 . S
C499 C338 1.711 . S
C504 N117 1.711 . S
C509 N140 1.713 . S
C514 C361 1.709 . S
C519 C292 1.709 . S
C524 N163 1.711 . S
C529 N186 1.710 . S
C534 C85 1.711 . S
C539 C16 1.711 . S
C544 N209 1.712 . S
C549 N232 1.713 . S
C554 C39 1.710 . S
C559 C62 1.709 . S
C564 N255 1.713 . S
C569 N278 1.711 . S
C574 C131 1.710 . S
C579 C154 1.711 . S
C584 N301 1.712 . S
C589 C177 1.710 . S
C594 N324 1.710 . S
C599 C108 1.710 . S
C604 N347 1.711 . S
C609 C99 1.927 . S
C614 C7 1.927 . S
C619 C122 1.927 . S
C624 C30 1.927 . S
C629 C53 1.927 . S
C634 C145 1.927 . S
C639 C168 1.927 . S
C644 C76 1.927 . S
C649 C283 1.927 . S
C654 C191 1.927 . S
C659 C306 1.928 1_655 S
C664 C214 1.928 1_455 S
C669 C237 1.927 . S
C674 C329 1.927 . S
C679 C352 1.928 1_455 S
C684 C260 1.928 1_655 S
