# Generated by pormake.
# Topology wls, (5)-cn, num edge types: 1
# Building blocks:
#     Node 0, Type 0, BuildingBlock: XOMCOT_clean_sbu_0, # of connection points: 5
#     Node 1, Type 0, BuildingBlock: XOMCOT_clean_sbu_0, # of connection points: 5
#     Node 2, Type 0, BuildingBlock: XOMCOT_clean_sbu_0, # of connection points: 5
#     Node 3, Type 0, BuildingBlock: XOMCOT_clean_sbu_0, # of connection points: 5
#     Node 4, Type 0, BuildingBlock: XOMCOT_clean_sbu_0, # of connection points: 5
#     Node 5, Type 0, BuildingBlock: XOMCOT_clean_sbu_0, # of connection points: 5
#     Node 6, Type 0, BuildingBlock: XOMCOT_clean_sbu_0, # of connection points: 5
#     Node 7, Type 0, BuildingBlock: XOMCOT_clean_sbu_0, # of connection points: 5
#     Node 8, Type 0, BuildingBlock: XOMCOT_clean_sbu_0, # of connection points: 5
#     Node 9, Type 0, BuildingBlock: XOMCOT_clean_sbu_0, # of connection points: 5
#     Node 10, Type 0, BuildingBlock: XOMCOT_clean_sbu_0, # of connection points: 5
#     Node 11, Type 0, BuildingBlock: XOMCOT_clean_sbu_0, # of connection points: 5
#     Node 12, Type 0, BuildingBlock: XOMCOT_clean_sbu_0, # of connection points: 5
#     Node 13, Type 0, BuildingBlock: XOMCOT_clean_sbu_0, # of connection points: 5
#     Node 14, Type 0, BuildingBlock: XOMCOT_clean_sbu_0, # of connection points: 5
#     Node 15, Type 0, BuildingBlock: XOMCOT_clean_sbu_0, # of connection points: 5
#     Node 16, Type 0, BuildingBlock: XOMCOT_clean_sbu_0, # of connection points: 5
#     Node 17, Type 0, BuildingBlock: XOMCOT_clean_sbu_0, # of connection points: 5
#     Node 18, Type 0, BuildingBlock: XOMCOT_clean_sbu_0, # of connection points: 5
#     Node 19, Type 0, BuildingBlock: XOMCOT_clean_sbu_0, # of connection points: 5
#     Node 20, Type 0, BuildingBlock: XOMCOT_clean_sbu_0, # of connection points: 5
#     Node 21, Type 0, BuildingBlock: XOMCOT_clean_sbu_0, # of connection points: 5
#     Node 22, Type 0, BuildingBlock: XOMCOT_clean_sbu_0, # of connection points: 5
#     Node 23, Type 0, BuildingBlock: XOMCOT_clean_sbu_0, # of connection points: 5
#     Node 24, Type 0, BuildingBlock: XOMCOT_clean_sbu_0, # of connection points: 5
#     Node 25, Type 0, BuildingBlock: XOMCOT_clean_sbu_0, # of connection points: 5
#     Node 26, Type 0, BuildingBlock: XOMCOT_clean_sbu_0, # of connection points: 5
#     Node 27, Type 0, BuildingBlock: XOMCOT_clean_sbu_0, # of connection points: 5
#     Node 28, Type 0, BuildingBlock: XOMCOT_clean_sbu_0, # of connection points: 5
#     Node 29, Type 0, BuildingBlock: XOMCOT_clean_sbu_0, # of connection points: 5
#     Node 30, Type 0, BuildingBlock: XOMCOT_clean_sbu_0, # of connection points: 5
#     Node 31, Type 0, BuildingBlock: XOMCOT_clean_sbu_0, # of connection points: 5
#     Node 32, Type 0, BuildingBlock: XOMCOT_clean_sbu_0, # of connection points: 5
#     Node 33, Type 0, BuildingBlock: XOMCOT_clean_sbu_0, # of connection points: 5
#     Node 34, Type 0, BuildingBlock: XOMCOT_clean_sbu_0, # of connection points: 5
#     Node 35, Type 0, BuildingBlock: XOMCOT_clean_sbu_0, # of connection points: 5
#     Edge 36, Type (0, 0), BuildingBlock: AJUNOK_clean_linker_0, # of connection points: 2
#     Edge 37, Type (0, 0), BuildingBlock: AJUNOK_clean_linker_0, # of connection points: 2
#     Edge 38, Type (0, 0), BuildingBlock: AJUNOK_clean_linker_0, # of connection points: 2
#     Edge 39, Type (0, 0), BuildingBlock: AJUNOK_clean_linker_0, # of connection points: 2
#     Edge 40, Type (0, 0), BuildingBlock: AJUNOK_clean_linker_0, # of connection points: 2
#     Edge 41, Type (0, 0), BuildingBlock: AJUNOK_clean_linker_0, # of connection points: 2
#     Edge 42, Type (0, 0), BuildingBlock: AJUNOK_clean_linker_0, # of connection points: 2
#     Edge 43, Type (0, 0), BuildingBlock: AJUNOK_clean_linker_0, # of connection points: 2
#     Edge 44, Type (0, 0), BuildingBlock: AJUNOK_clean_linker_0, # of connection points: 2
#     Edge 45, Type (0, 0), BuildingBlock: AJUNOK_clean_linker_0, # of connection points: 2
#     Edge 46, Type (0, 0), BuildingBlock: AJUNOK_clean_linker_0, # of connection points: 2
#     Edge 47, Type (0, 0), BuildingBlock: AJUNOK_clean_linker_0, # of connection points: 2
#     Edge 48, Type (0, 0), BuildingBlock: AJUNOK_clean_linker_0, # of connection points: 2
#     Edge 49, Type (0, 0), BuildingBlock: AJUNOK_clean_linker_0, # of connection points: 2
#     Edge 50, Type (0, 0), BuildingBlock: AJUNOK_clean_linker_0, # of connection points: 2
#     Edge 51, Type (0, 0), BuildingBlock: AJUNOK_clean_linker_0, # of connection points: 2
#     Edge 52, Type (0, 0), BuildingBlock: AJUNOK_clean_linker_0, # of connection points: 2
#     Edge 53, Type (0, 0), BuildingBlock: AJUNOK_clean_linker_0, # of connection points: 2
#     Edge 54, Type (0, 0), BuildingBlock: AJUNOK_clean_linker_0, # of connection points: 2
#     Edge 55, Type (0, 0), BuildingBlock: AJUNOK_clean_linker_0, # of connection points: 2
#     Edge 56, Type (0, 0), BuildingBlock: AJUNOK_clean_linker_0, # of connection points: 2
#     Edge 57, Type (0, 0), BuildingBlock: AJUNOK_clean_linker_0, # of connection points: 2
#     Edge 58, Type (0, 0), BuildingBlock: AJUNOK_clean_linker_0, # of connection points: 2
#     Edge 59, Type (0, 0), BuildingBlock: AJUNOK_clean_linker_0, # of connection points: 2
#     Edge 60, Type (0, 0), BuildingBlock: AJUNOK_clean_linker_0, # of connection points: 2
#     Edge 61, Type (0, 0), BuildingBlock: AJUNOK_clean_linker_0, # of connection points: 2
#     Edge 62, Type (0, 0), BuildingBlock: AJUNOK_clean_linker_0, # of connection points: 2
#     Edge 63, Type (0, 0), BuildingBlock: AJUNOK_clean_linker_0, # of connection points: 2
#     Edge 64, Type (0, 0), BuildingBlock: AJUNOK_clean_linker_0, # of connection points: 2
#     Edge 65, Type (0, 0), BuildingBlock: AJUNOK_clean_linker_0, # of connection points: 2
#     Edge 66, Type (0, 0), BuildingBlock: AJUNOK_clean_linker_0, # of connection points: 2
#     Edge 67, Type (0, 0), BuildingBlock: AJUNOK_clean_linker_0, # of connection points: 2
#     Edge 68, Type (0, 0), BuildingBlock: AJUNOK_clean_linker_0, # of connection points: 2
#     Edge 69, Type (0, 0), BuildingBlock: AJUNOK_clean_linker_0, # of connection points: 2
#     Edge 70, Type (0, 0), BuildingBlock: AJUNOK_clean_linker_0, # of connection points: 2
#     Edge 71, Type (0, 0), BuildingBlock: AJUNOK_clean_linker_0, # of connection points: 2
#     Edge 72, Type (0, 0), BuildingBlock: AJUNOK_clean_linker_0, # of connection points: 2
#     Edge 73, Type (0, 0), BuildingBlock: AJUNOK_clean_linker_0, # of connection points: 2
#     Edge 74, Type (0, 0), BuildingBlock: AJUNOK_clean_linker_0, # of connection points: 2
#     Edge 75, Type (0, 0), BuildingBlock: AJUNOK_clean_linker_0, # of connection points: 2
#     Edge 76, Type (0, 0), BuildingBlock: AJUNOK_clean_linker_0, # of connection points: 2
#     Edge 77, Type (0, 0), BuildingBlock: AJUNOK_clean_linker_0, # of connection points: 2
#     Edge 78, Type (0, 0), BuildingBlock: AJUNOK_clean_linker_0, # of connection points: 2
#     Edge 79, Type (0, 0), BuildingBlock: AJUNOK_clean_linker_0, # of connection points: 2
#     Edge 80, Type (0, 0), BuildingBlock: AJUNOK_clean_linker_0, # of connection points: 2
#     Edge 81, Type (0, 0), BuildingBlock: AJUNOK_clean_linker_0, # of connection points: 2
#     Edge 82, Type (0, 0), BuildingBlock: AJUNOK_clean_linker_0, # of connection points: 2
#     Edge 83, Type (0, 0), BuildingBlock: AJUNOK_clean_linker_0, # of connection points: 2
#     Edge 84, Type (0, 0), BuildingBlock: AJUNOK_clean_linker_0, # of connection points: 2
#     Edge 85, Type (0, 0), BuildingBlock: AJUNOK_clean_linker_0, # of connection points: 2
#     Edge 86, Type (0, 0), BuildingBlock: AJUNOK_clean_linker_0, # of connection points: 2
#     Edge 87, Type (0, 0), BuildingBlock: AJUNOK_clean_linker_0, # of connection points: 2
#     Edge 88, Type (0, 0), BuildingBlock: AJUNOK_clean_linker_0, # of connection points: 2
#     Edge 89, Type (0, 0), BuildingBlock: AJUNOK_clean_linker_0, # of connection points: 2
#     Edge 90, Type (0, 0), BuildingBlock: AJUNOK_clean_linker_0, # of connection points: 2
#     Edge 91, Type (0, 0), BuildingBlock: AJUNOK_clean_linker_0, # of connection points: 2
#     Edge 92, Type (0, 0), BuildingBlock: AJUNOK_clean_linker_0, # of connection points: 2
#     Edge 93, Type (0, 0), BuildingBlock: AJUNOK_clean_linker_0, # of connection points: 2
#     Edge 94, Type (0, 0), BuildingBlock: AJUNOK_clean_linker_0, # of connection points: 2
#     Edge 95, Type (0, 0), BuildingBlock: AJUNOK_clean_linker_0, # of connection points: 2
#     Edge 96, Type (0, 0), BuildingBlock: AJUNOK_clean_linker_0, # of connection points: 2
#     Edge 97, Type (0, 0), BuildingBlock: AJUNOK_clean_linker_0, # of connection points: 2
#     Edge 98, Type (0, 0), BuildingBlock: AJUNOK_clean_linker_0, # of connection points: 2
#     Edge 99, Type (0, 0), BuildingBlock: AJUNOK_clean_linker_0, # of connection points: 2
#     Edge 100, Type (0, 0), BuildingBlock: AJUNOK_clean_linker_0, # of connection points: 2
#     Edge 101, Type (0, 0), BuildingBlock: AJUNOK_clean_linker_0, # of connection points: 2
#     Edge 102, Type (0, 0), BuildingBlock: AJUNOK_clean_linker_0, # of connection points: 2
#     Edge 103, Type (0, 0), BuildingBlock: AJUNOK_clean_linker_0, # of connection points: 2
#     Edge 104, Type (0, 0), BuildingBlock: AJUNOK_clean_linker_0, # of connection points: 2
#     Edge 105, Type (0, 0), BuildingBlock: AJUNOK_clean_linker_0, # of connection points: 2
#     Edge 106, Type (0, 0), BuildingBlock: AJUNOK_clean_linker_0, # of connection points: 2
#     Edge 107, Type (0, 0), BuildingBlock: AJUNOK_clean_linker_0, # of connection points: 2
#     Edge 108, Type (0, 0), BuildingBlock: AJUNOK_clean_linker_0, # of connection points: 2
#     Edge 109, Type (0, 0), BuildingBlock: AJUNOK_clean_linker_0, # of connection points: 2
#     Edge 110, Type (0, 0), BuildingBlock: AJUNOK_clean_linker_0, # of connection points: 2
#     Edge 111, Type (0, 0), BuildingBlock: AJUNOK_clean_linker_0, # of connection points: 2
#     Edge 112, Type (0, 0), BuildingBlock: AJUNOK_clean_linker_0, # of connection points: 2
#     Edge 113, Type (0, 0), BuildingBlock: AJUNOK_clean_linker_0, # of connection points: 2
#     Edge 114, Type (0, 0), BuildingBlock: AJUNOK_clean_linker_0, # of connection points: 2
#     Edge 115, Type (0, 0), BuildingBlock: AJUNOK_clean_linker_0, # of connection points: 2
#     Edge 116, Type (0, 0), BuildingBlock: AJUNOK_clean_linker_0, # of connection points: 2
#     Edge 117, Type (0, 0), BuildingBlock: AJUNOK_clean_linker_0, # of connection points: 2
#     Edge 118, Type (0, 0), BuildingBlock: AJUNOK_clean_linker_0, # of connection points: 2
#     Edge 119, Type (0, 0), BuildingBlock: AJUNOK_clean_linker_0, # of connection points: 2
#     Edge 120, Type (0, 0), BuildingBlock: AJUNOK_clean_linker_0, # of connection points: 2
#     Edge 121, Type (0, 0), BuildingBlock: AJUNOK_clean_linker_0, # of connection points: 2
#     Edge 122, Type (0, 0), BuildingBlock: AJUNOK_clean_linker_0, # of connection points: 2
#     Edge 123, Type (0, 0), BuildingBlock: AJUNOK_clean_linker_0, # of connection points: 2
#     Edge 124, Type (0, 0), BuildingBlock: AJUNOK_clean_linker_0, # of connection points: 2
#     Edge 125, Type (0, 0), BuildingBlock: AJUNOK_clean_linker_0, # of connection points: 2
# Relax obj value: 0.265
# Max RMSD: 0.190
# Mean RMSD: 0.190
data_MOF--net-wls--node1-XOMCOT_clean_sbu_0--edge1-AJUNOK_clean_linker_0
_symmetry_space_group_name_H-M    P1
_symmetry_Int_Tables_number       1
_symmetry_cell_setting            triclinic
loop_
_symmetry_equiv_pos_as_xyz
'x, y, z'
_cell_length_a     59.776217
_cell_length_b     59.837824
_cell_length_c     27.158286
_cell_angle_alpha  89.931699
_cell_angle_beta   89.959126
_cell_angle_gamma 119.89132
loop_
_atom_site_label
_atom_site_type_symbol
_atom_site_fract_x
_atom_site_fract_y
_atom_site_fract_z
_atom_type_partial_charge
Co0 Co 0.27263 0.22343 0.08388 0.0
C1 C 0.2525 0.16593 0.07316 0.0
C2 C 0.27023 0.18136 0.14288 0.0
C3 C 0.26335 0.15579 0.14139 0.0
N4 N 0.26302 0.18787 0.10073 0.0
N5 N 0.25252 0.14596 0.09735 0.0
H6 H 0.2463 0.16489 0.03543 0.0
H7 H 0.28065 0.19456 0.17244 0.0
C8 C 0.25192 0.21926 0.19056 0.0
O9 O 0.23294 0.19691 0.17575 0.0
N10 N 0.28265 0.25782 0.06644 0.0
C11 C 0.27484 0.26623 1.02753 0.0
C12 C 0.28577 0.29254 1.03143 0.0
C13 C 0.29858 0.27857 0.09237 0.0
N14 N 0.30076 0.29988 0.07182 0.0
C15 C 0.22117 0.20059 0.03702 0.0
C16 C 0.20728 0.2323 0.08658 0.0
C17 C 0.19197 0.21802 0.0471 0.0
C18 C 0.19873 0.20142 1.02274 0.0
C19 C 0.22926 0.23111 0.09926 0.0
N20 N 0.23644 0.21557 0.07482 0.0
H21 H 0.22723 0.18948 1.01524 0.0
H22 H 0.24192 0.24513 0.12566 0.0
H23 H 0.26145 0.25401 0.9996 0.0
H24 H 0.30747 0.27801 0.12673 0.0
O25 O 0.28274 0.21956 1.01554 0.0
O26 O 0.3095 0.23275 0.07718 0.0
O27 O 0.27065 0.2322 0.1595 0.0
C28 C 0.30664 0.22904 1.02972 0.0
H29 H 0.26651 0.14534 0.17055 0.0
H30 H 0.28256 0.30517 1.00758 0.0
H31 H 0.20332 0.24588 0.10558 0.0
H32 H 0.18781 0.1905 0.99103 0.0
Co33 Co 0.80459 0.05695 0.07587 0.0
C34 C 0.86184 0.0954 0.06935 0.0
C35 C 0.84322 0.10138 0.13142 0.0
C36 C 0.86855 0.12091 0.13019 0.0
N37 N 0.83888 0.0851 0.09373 0.0
N38 N 0.88034 0.11738 0.09103 0.0
H39 H 0.86468 0.08794 0.03515 0.0
H40 H 0.82867 0.0996 0.15731 0.0
C41 C 0.80979 0.04401 0.18477 0.0
O42 O 0.83377 0.05124 0.17292 0.0
N43 N 0.77143 0.02966 0.05638 0.0
C44 C 0.76637 0.01641 1.01373 0.0
C45 C 0.74349 0.99363 1.01868 0.0
C46 C 0.75158 0.01519 0.08621 0.0
N47 N 0.73473 0.99282 0.06465 0.0
C48 C 0.82909 0.03077 1.02731 0.0
C49 C 0.8035 0.98645 0.08363 0.0
C50 C 0.81503 0.98509 0.04004 0.0
C51 C 0.82883 1.00792 1.01237 0.0
C52 C 0.80365 1.00905 0.09641 0.0
N53 N 0.81609 0.03117 0.06862 0.0
H54 H 0.83752 0.04723 1.00292 0.0
H55 H 0.79052 1.00694 0.12534 0.0
H56 H 0.77936 0.02197 0.9826 0.0
H57 H 0.74995 0.02049 0.12353 0.0
O58 O 0.80889 0.07076 1.00756 0.0
O59 O 0.79202 0.08199 0.06679 0.0
O60 O 0.79554 0.0465 0.15141 0.0
C61 C 0.79752 0.08369 1.01994 0.0
H62 H 0.8775 0.13689 0.15567 0.0
H63 H 0.7346 0.9784 0.99164 0.0
H64 H 0.79219 0.96928 0.10564 0.0
H65 H 0.83765 1.00763 0.97772 0.0
Co66 Co 0.97763 0.75715 0.08007 0.0
C67 C 0.94042 0.77744 0.06487 0.0
C68 C 0.9358 0.75817 0.13391 0.0
C69 C 0.91689 0.76477 0.13009 0.0
N70 N 0.95097 0.76635 0.09358 0.0
N71 N 0.91957 0.77679 0.08668 0.0
H72 H 0.94671 0.78436 1.02784 0.0
H73 H 0.93765 0.74709 0.16348 0.0
C74 C 0.99149 0.7776 0.18802 0.0
O75 O 0.98797 0.7966 0.17367 0.0
N76 N 1.00294 0.74761 0.06641 0.0
C77 C 1.01834 0.75359 1.02656 0.0
C78 C 0.03599 0.74565 0.03528 0.0
C79 C 1.01085 0.73599 0.09813 0.0
N80 N 0.03101 0.73459 0.08024 0.0
C81 C 1.00609 0.8073 1.03053 0.0
C82 C 0.05083 0.82337 0.08445 0.0
C83 C 0.05222 0.83718 0.04208 0.0
C84 C 0.0293 0.82938 1.0155 0.0
C85 C 0.02769 0.80155 0.09769 0.0
N86 N 1.00543 0.79333 0.07105 0.0
H87 H 0.98937 0.80027 1.00708 0.0
H88 H 0.02889 0.7898 0.12644 0.0
H89 H 1.01755 0.76402 0.99468 0.0
H90 H 1.00306 0.73015 0.13481 0.0
O91 O 0.96532 0.7473 1.01114 0.0
O92 O 0.95069 0.72005 0.07206 0.0
O93 O 0.98687 0.75946 0.15642 0.0
C94 C 0.95085 0.72333 1.02446 0.0
H95 H 0.90167 0.76024 0.15659 0.0
H96 H 0.05167 0.74845 1.01132 0.0
H97 H 0.06814 0.82817 0.10517 0.0
H98 H 0.02969 0.83912 0.98162 0.0
Co99 Co 0.2349 0.2697 0.49509 0.0
C100 C 0.1777 0.25149 0.50119 0.0
C101 C 0.19692 0.27743 0.44111 0.0
C102 C 0.17146 0.27127 0.44137 0.0
N103 N 0.20097 0.2649 0.47817 0.0
N104 N 0.15928 0.25515 0.47938 0.0
H105 H 0.17444 0.24018 0.5342 0.0
H106 H 0.21167 0.29046 0.41582 0.0
C107 C 0.22758 0.25058 0.3865 0.0
O108 O 0.20348 0.23509 0.39949 0.0
N109 N 0.26764 0.27403 0.51341 0.0
C110 C 0.27322 0.26749 0.55742 0.0
C111 C 0.29619 0.26765 0.55345 0.0
C112 C 0.28698 0.27793 0.48329 0.0
N113 N 0.30434 0.27369 0.50661 0.0
C114 C 0.2101 0.22063 0.54772 0.0
C115 C 0.23158 0.19801 0.49016 0.0
C116 C 0.22102 0.18671 0.53537 0.0
C117 C 0.20966 0.19794 0.56412 0.0
C118 C 0.23247 0.22086 0.47611 0.0
N119 N 0.22193 0.23235 0.50441 0.0
H120 H 0.20334 0.23015 0.57239 0.0
H121 H 0.24492 0.23062 0.44555 0.0
H122 H 0.26094 0.26191 0.58961 0.0
H123 H 0.28843 0.28372 0.44514 0.0
O124 O 0.23201 0.2807 0.56336 0.0
O125 O 0.24905 0.30769 0.50268 0.0
O126 O 0.24281 0.26694 0.41931 0.0
C127 C 0.24408 0.3048 0.54981 0.0
H128 H 0.16262 0.27834 0.41559 0.0
H129 H 0.30611 0.26357 0.58237 0.0
H130 H 0.24157 0.19068 0.4679 0.0
H131 H 0.20201 0.19025 0.60025 0.0
Co132 Co 0.76009 0.9716 0.48519 0.0
C133 C 0.78015 0.93442 0.49887 0.0
C134 C 0.7618 0.93078 0.42923 0.0
C135 C 0.76881 0.91219 0.43227 0.0
N136 N 0.76934 0.94524 0.47033 0.0
N137 N 0.7803 0.91421 0.47611 0.0
H138 H 0.7863 0.94011 0.53638 0.0
H139 H 0.7511 0.93303 0.39942 0.0
C140 C 0.78143 0.98672 0.3784 0.0
O141 O 0.80007 0.98285 0.39378 0.0
N142 N 0.75054 0.99675 0.50065 0.0
C143 C 0.75582 1.01084 0.54213 0.0
C144 C 0.7499 0.03003 0.53415 0.0
C145 C 0.74127 1.007 0.46865 0.0
N146 N 0.74116 0.02765 0.48756 0.0
C147 C 0.81064 0.99945 0.53405 0.0
C148 C 0.82669 0.04466 0.48166 0.0
C149 C 0.84098 0.04551 0.52287 0.0
C150 C 0.83319 0.02233 0.54859 0.0
C151 C 0.80448 0.02186 0.46886 0.0
N152 N 0.79631 0.99932 0.4946 0.0
H153 H 0.80372 0.98253 0.55693 0.0
H154 H 0.79262 0.02343 0.44084 0.0
H155 H 0.76454 1.00815 0.57482 0.0
H156 H 0.73615 1.00042 0.4312 0.0
O157 O 0.75027 0.95836 0.55356 0.0
O158 O 0.72305 0.94441 0.49259 0.0
O159 O 0.76273 0.98163 0.40908 0.0
C160 C 0.72638 0.94375 0.54001 0.0
H161 H 0.76523 0.89789 0.40437 0.0
H162 H 0.75226 0.04467 0.56025 0.0
H163 H 0.8316 0.06212 0.46133 0.0
H164 H 0.84337 0.02225 0.58149 0.0
Co165 Co 0.06456 0.80215 0.4881 0.0
C166 C 0.10157 0.85955 0.49724 0.0
C167 C 0.10544 0.84337 0.42955 0.0
C168 C 0.12426 0.86893 0.43109 0.0
N169 N 0.09081 0.83737 0.4705 0.0
N170 N 0.12207 0.87919 0.47375 0.0
H171 H 0.09568 0.86103 0.53414 0.0
H172 H 0.10318 0.8298 0.40104 0.0
C173 C 0.04823 0.80589 0.38074 0.0
O174 O 0.05306 0.82909 0.39321 0.0
N175 N 0.03978 0.76816 0.50663 0.0
C176 C 0.02383 0.76049 0.54596 0.0
C177 C 1.00827 0.73417 0.54352 0.0
C178 C 0.03462 0.74699 0.48187 0.0
N179 N 1.01556 0.7261 0.5036 0.0
C180 C 0.03667 0.82555 0.53464 0.0
C181 C 0.99133 0.79549 0.48323 0.0
C182 C 0.99048 0.80972 0.52304 0.0
C183 C 1.01374 0.82536 0.54848 0.0
C184 C 1.01414 0.79573 0.47152 0.0
N185 N 0.03679 0.81074 0.49642 0.0
H186 H 0.05366 0.836 0.55711 0.0
H187 H 1.01241 0.7814 0.44552 0.0
H188 H 0.02303 0.7732 0.5733 0.0
H189 H 0.04382 0.74695 0.44752 0.0
O190 O 0.07843 0.80633 0.55646 0.0
O191 O 0.09159 0.79214 0.49566 0.0
O192 O 0.05357 0.79297 0.41275 0.0
C193 C 0.09242 0.79622 0.54301 0.0
H194 H 0.13888 0.87908 0.40328 0.0
H195 H 0.99254 0.72202 0.56802 0.0
H196 H 0.97386 0.78241 0.4636 0.0
H197 H 1.014 0.83654 0.58002 0.0
Co198 Co 0.76532 0.80389 0.98839 0.0
C199 C 0.78708 0.86143 0.99905 0.0
C200 C 0.76895 0.84665 0.92928 0.0
C201 C 0.77636 0.8724 0.93155 0.0
N202 N 0.7759 0.83962 0.97119 0.0
N203 N 0.78784 0.88179 0.97521 0.0
H204 H 0.79297 0.86209 0.0369 0.0
H205 H 0.7579 0.83364 0.89993 0.0
C206 C 0.7828 0.8047 0.8788 0.0
O207 O 0.80425 0.82586 0.89017 0.0
N208 N 0.75465 0.76943 1.00646 0.0
C209 C 0.76252 0.76132 0.04573 0.0
C210 C 0.75205 0.7351 0.04209 0.0
C211 C 0.73911 0.74851 0.98049 0.0
N212 N 0.7373 0.72742 1.00136 0.0
C213 C 0.81751 0.8256 1.03079 0.0
C214 C 0.82886 0.79215 0.98077 0.0
C215 C 0.84499 0.8063 1.01958 0.0
C216 C 0.83958 0.82387 0.04392 0.0
C217 C 0.80716 0.79414 0.96942 0.0
N218 N 0.80126 0.81057 0.9941 0.0
H219 H 0.81246 0.83745 0.05279 0.0
H220 H 0.79369 0.78012 0.94394 0.0
H221 H 0.7759 0.77377 0.07345 0.0
H222 H 0.73058 0.74887 0.94555 0.0
O223 O 0.75754 0.80887 0.05777 0.0
O224 O 0.72891 0.79576 0.9994 0.0
O225 O 0.76475 0.7943 0.91231 0.0
C226 C 0.73331 0.79979 0.04656 0.0
H227 H 0.77246 0.88317 0.90414 0.0
H228 H 0.7557 0.72279 0.06604 0.0
H229 H 0.8319 0.77803 0.96149 0.0
H230 H 0.85124 0.83484 0.07493 0.0
Co231 Co 0.23224 0.97108 0.98807 0.0
C232 C 0.17526 0.93224 0.99806 0.0
C233 C 0.19254 0.92765 0.9324 0.0
C234 C 0.16726 0.90811 0.93441 0.0
N235 N 0.19768 0.94307 0.97185 0.0
N236 N 0.15633 0.91077 0.9758 0.0
H237 H 0.17313 0.93895 1.03371 0.0
H238 H 0.20652 0.93 0.9046 0.0
C239 C 0.22567 0.98521 0.88058 0.0
O240 O 0.20207 0.97883 0.89382 0.0
N241 N 0.26573 0.99812 1.00511 0.0
C242 C 0.27238 1.01258 0.04637 0.0
C243 C 0.29643 0.03375 0.03933 0.0
C244 C 0.28554 1.01013 0.97411 0.0
N245 N 0.30412 0.03222 0.99348 0.0
C246 C 0.20824 0.99638 0.04085 0.0
C247 C 0.2324 0.04135 0.98585 0.0
C248 C 0.22086 0.04181 1.03008 0.0
C249 C 0.20821 0.0188 0.05752 0.0
C250 C 0.23279 0.01916 0.97155 0.0
N251 N 0.22084 0.9967 0.99847 0.0
H252 H 0.20042 0.97971 0.06465 0.0
H253 H 0.24581 0.02171 0.94201 0.0
H254 H 0.26006 1.00874 0.07813 0.0
H255 H 0.28618 1.00311 0.93775 0.0
O256 O 0.22966 0.95714 0.05599 0.0
O257 O 0.245 0.94612 0.99376 0.0
O258 O 0.23992 0.98187 0.91255 0.0
C259 C 0.24082 0.94437 0.04114 0.0
H260 H 0.15776 0.89273 0.90784 0.0
H261 H 0.30708 0.04934 0.065 0.0
H262 H 0.24343 0.05892 0.96477 0.0
H263 H 0.19984 0.01859 0.09302 0.0
Co264 Co 0.06062 0.26915 0.98852 0.0
C265 C 0.09686 0.24741 1.00232 0.0
C266 C 0.10401 0.27045 0.93735 0.0
C267 C 0.12261 0.26342 0.94057 0.0
N268 N 0.08756 0.26032 0.97555 0.0
N269 N 0.11831 0.24893 0.9813 0.0
H270 H 0.08915 0.2384 0.03752 0.0
H271 H 0.1031 0.28299 0.90972 0.0
C272 C 0.04826 0.24849 0.88026 0.0
O273 O 0.05264 0.2301 0.895 0.0
N274 N 0.03476 0.27817 1.0015 0.0
C275 C 0.02131 0.27457 0.04345 0.0
C276 C 1.00176 0.27983 1.03411 0.0
C277 C 0.02353 0.28549 0.96767 0.0
N278 N 1.0031 0.2863 0.98611 0.0
C279 C 0.03173 0.22002 0.04119 0.0
C280 C 0.98782 0.20232 0.98401 0.0
C281 C 0.98574 0.1897 1.02839 0.0
C282 C 1.00829 0.1983 0.0567 0.0
C283 C 1.01115 0.22381 0.97033 0.0
N284 N 0.03302 0.2329 0.99858 0.0
H285 H 0.04811 0.22775 0.06571 0.0
H286 H 1.01021 0.23464 0.93962 0.0
H287 H 0.02487 0.26772 0.07779 0.0
H288 H 0.02941 0.28899 0.92958 0.0
O289 O 0.07326 0.27994 0.05736 0.0
O290 O 0.08735 0.30637 0.99522 0.0
O291 O 0.05172 0.26625 0.91191 0.0
C292 C 0.08766 0.30374 0.04292 0.0
H293 H 0.13867 0.26922 0.91548 0.0
H294 H 0.98782 0.27892 0.0606 0.0
H295 H 0.97083 0.19688 0.96173 0.0
H296 H 1.00741 0.18951 0.09205 0.0
Co297 Co 0.80878 0.76185 0.57322 0.0
C298 C 0.86432 0.77383 0.56159 0.0
C299 C 0.85693 0.78721 0.62944 0.0
C300 C 0.88263 0.7947 0.62764 0.0
N301 N 0.84507 0.77384 0.5885 0.0
N302 N 0.88748 0.78619 0.58532 0.0
H303 H 0.86161 0.76529 0.52544 0.0
H304 H 0.84795 0.7924 0.65811 0.0
C305 C 0.7848 0.77075 0.67057 0.0
O306 O 0.76929 0.77463 0.64213 0.0
N307 N 0.77354 0.75019 0.55756 0.0
C308 C 0.76288 0.75721 0.52116 0.0
C309 C 0.73655 0.74311 0.52594 0.0
C310 C 0.75383 0.73096 0.58154 0.0
N311 N 0.73119 0.72668 0.56374 0.0
C312 C 0.81917 0.80535 0.5115 0.0
C313 C 0.81765 0.83675 0.58429 0.0
C314 C 0.81452 0.84205 0.53523 0.0
C315 C 0.81686 0.82683 0.49853 0.0
C316 C 0.81984 0.81495 0.59556 0.0
N317 N 0.81772 0.79795 0.55957 0.0
H318 H 0.81938 0.79319 0.48238 0.0
H319 H 0.82226 0.81157 0.63354 0.0
H320 H 0.773 0.77155 0.49328 0.0
H321 H 0.75606 0.72177 0.61409 0.0
O322 O 0.8119 0.75045 0.50575 0.0
O323 O 0.80002 0.72478 0.56883 0.0
O324 O 0.80134 0.76539 0.64957 0.0
C325 C 0.80284 0.72687 0.52098 0.0
H326 H 0.89693 0.80653 0.65473 0.0
H327 H 0.72246 0.74552 0.50506 0.0
H328 H 0.81694 0.84843 0.61401 0.0
H329 H 0.81557 0.8307 0.45997 0.0
Co330 Co 0.27381 0.05665 0.57992 0.0
C331 C 0.25294 0.09368 0.5723 0.0
C332 C 0.27666 0.09954 0.63559 0.0
C333 C 0.26944 0.11802 0.6355 0.0
N334 N 0.26609 0.08389 0.59659 0.0
N335 N 0.25456 0.11459 0.59571 0.0
H336 H 0.24357 0.08659 0.53723 0.0
H337 H 0.28933 0.09794 0.66199 0.0
C338 C 0.25406 0.04302 0.68788 0.0
O339 O 0.23629 0.04857 0.67423 0.0
N340 N 0.28179 0.03056 0.56304 0.0
C341 C 0.27673 0.01734 0.52051 0.0
C342 C 0.28273 0.9981 0.52665 0.0
C343 C 0.29075 0.0196 0.59401 0.0
N344 N 0.29118 0.99949 0.57324 0.0
C345 C 0.22399 0.0295 0.52972 0.0
C346 C 0.20626 0.9846 0.58402 0.0
C347 C 0.19335 0.98353 0.54066 0.0
C348 C 0.20201 1.00651 0.51377 0.0
C349 C 0.22815 1.00747 0.59794 0.0
N350 N 0.2372 0.02984 0.57117 0.0
H351 H 0.23172 0.04623 0.50608 0.0
H352 H 0.23933 1.00574 0.6271 0.0
H353 H 0.26858 0.02095 0.48798 0.0
H354 H 0.29594 0.02565 0.63167 0.0
O355 O 0.28341 0.06995 0.51147 0.0
O356 O 0.31119 0.08274 0.5714 0.0
O357 O 0.27168 0.04652 0.65574 0.0
C358 C 0.30756 0.08357 0.52414 0.0
H359 H 0.27513 0.13317 0.66254 0.0
H360 H 0.28102 0.98436 0.49897 0.0
H361 H 0.20089 0.96717 0.60482 0.0
H362 H 0.19303 1.00632 0.47904 0.0
Co363 Co 0.97802 0.22379 0.57714 0.0
C364 C 0.94011 0.16675 0.56724 0.0
C365 C 0.9362 0.18313 0.63467 0.0
C366 C 0.91659 0.15794 0.6322 0.0
N367 N 0.95132 0.18877 0.59447 0.0
N368 N 0.91886 0.14757 0.5898 0.0
H369 H 0.94616 0.16525 0.53046 0.0
H370 H 0.93846 0.19685 0.66285 0.0
C371 C 0.99288 0.2198 0.68578 0.0
O372 O 0.98784 0.19646 0.67389 0.0
N373 N 1.00339 0.2577 0.55891 0.0
C374 C 1.01932 0.26505 0.51954 0.0
C375 C 0.03676 0.29093 0.52397 0.0
C376 C 1.01055 0.27874 0.58582 0.0
N377 N 0.03091 0.29911 0.56557 0.0
C378 C 1.00646 0.20118 0.52992 0.0
C379 C 0.05122 0.23086 0.58303 0.0
C380 C 0.05295 0.21864 0.54077 0.0
C381 C 0.03 0.2029 0.51469 0.0
C382 C 0.02793 0.22929 0.59594 0.0
N383 N 1.00561 0.21478 0.56976 0.0
H384 H 0.98964 0.19099 0.50684 0.0
H385 H 0.02928 0.24286 0.62331 0.0
H386 H 1.01891 0.25231 0.49092 0.0
H387 H 1.00182 0.27897 0.62064 0.0
O388 O 0.96468 0.21948 0.50846 0.0
O389 O 0.95125 0.23417 0.56793 0.0
O390 O 0.9883 0.2329 0.65286 0.0
C391 C 0.95058 0.22962 0.52078 0.0
H392 H 0.90107 0.14827 0.6586 0.0
H393 H 0.05264 0.30267 0.49944 0.0
H394 H 0.06847 0.24379 0.60344 0.0
H395 H 0.03058 0.19358 0.48095 0.0
Co396 Co 0.94156 0.55642 0.41414 0.0
C397 C 0.9227 0.49932 0.40301 0.0
C398 C 0.94283 0.51547 0.4706 0.0
C399 C 0.93707 0.4902 0.46802 0.0
N400 N 0.93356 0.52131 0.43035 0.0
N401 N 0.92452 0.47997 0.42552 0.0
H402 H 0.91517 0.49787 0.36629 0.0
H403 H 0.95403 0.52903 0.49915 0.0
C404 C 0.92089 0.55086 0.52123 0.0
O405 O 0.90301 0.52785 0.50678 0.0
N406 N 0.94995 0.59038 0.39718 0.0
C407 C 0.94157 0.59834 0.35843 0.0
C408 C 0.9521 0.62462 0.36188 0.0
C409 C 0.96576 0.61135 0.42262 0.0
N410 N 0.9674 0.63235 0.40184 0.0
C411 C 0.89036 0.53217 0.36684 0.0
C412 C 0.87387 0.561 0.41913 0.0
C413 C 0.85862 0.54625 0.37983 0.0
C414 C 0.86711 0.53151 0.35353 0.0
C415 C 0.89671 0.56132 0.43074 0.0
N416 N 0.90498 0.54693 0.40541 0.0
H417 H 0.89744 0.52232 0.34387 0.0
H418 H 0.90901 0.57559 0.45713 0.0
H419 H 0.92829 0.58586 0.33063 0.0
H420 H 0.9752 0.61116 0.45652 0.0
O421 O 0.9519 0.55337 0.34559 0.0
O422 O 0.97883 0.56739 0.40699 0.0
O423 O 0.93921 0.56464 0.48996 0.0
C424 C 0.97592 0.56377 0.3595 0.0
H425 H 0.94247 0.48028 0.49473 0.0
H426 H 0.94862 0.63699 0.3378 0.0
H427 H 0.86934 0.574 0.43876 0.0
H428 H 0.8564 0.52032 0.32187 0.0
Co429 Co 0.47238 0.38658 0.41908 0.0
C430 C 0.52975 0.42175 0.40667 0.0
C431 C 0.51448 0.43061 0.47055 0.0
C432 C 0.54056 0.4479 0.4678 0.0
N433 N 0.50767 0.41376 0.43301 0.0
N434 N 0.55021 0.44249 0.42759 0.0
H435 H 0.53085 0.41281 0.37286 0.0
H436 H 0.50127 0.43047 0.49795 0.0
C437 C 0.47987 0.37567 0.5301 0.0
O438 O 0.50393 0.38293 0.51889 0.0
N439 N 0.43783 0.35982 0.40399 0.0
C440 C 0.42446 0.35544 0.36165 0.0
C441 C 0.40067 0.33382 0.36754 0.0
C442 C 0.42243 0.34032 0.43394 0.0
N443 N 0.39956 0.32432 0.4131 0.0
C444 C 0.49015 0.35852 0.35955 0.0
C445 C 0.47463 0.31696 0.42235 0.0
C446 C 0.47987 0.31405 0.37346 0.0
C447 C 0.48849 0.33553 0.34216 0.0
C448 C 0.4757 0.33982 0.43777 0.0
N449 N 0.48284 0.36037 0.40651 0.0
H450 H 0.49518 0.37402 0.33367 0.0
H451 H 0.46788 0.33909 0.47348 0.0
H452 H 0.43099 0.3672 0.32884 0.0
H453 H 0.42759 0.33789 0.47074 0.0
O454 O 0.47526 0.40086 0.35133 0.0
O455 O 0.46097 0.41283 0.41359 0.0
O456 O 0.46523 0.3765 0.49542 0.0
C457 C 0.46533 0.41471 0.36622 0.0
H458 H 0.55154 0.46377 0.49274 0.0
H459 H 0.38498 0.3268 0.34138 0.0
H460 H 0.46735 0.30076 0.44753 0.0
H461 H 0.49264 0.33412 0.30383 0.0
Co462 Co 0.64558 0.09614 0.40245 0.0
C463 C 0.60461 0.11085 0.39483 0.0
C464 C 0.60509 0.09541 0.46589 0.0
C465 C 0.5864 0.1025 0.46573 0.0
N466 N 0.61663 0.10069 0.42156 0.0
N467 N 0.5859 0.11228 0.42105 0.0
H468 H 0.60933 0.11661 0.35679 0.0
H469 H 0.60996 0.08712 0.49654 0.0
C470 C 0.65864 0.08982 0.51328 0.0
O471 O 0.64537 0.06466 0.50835 0.0
N472 N 0.67447 0.09262 0.3816 0.0
C473 C 0.68092 0.0903 0.33492 0.0
C474 C 0.70218 0.08729 0.33601 0.0
C475 C 0.69233 0.09173 0.41002 0.0
N476 N 0.70925 0.08826 0.38329 0.0
C477 C 0.67513 0.13963 0.33989 0.0
C478 C 0.70354 0.17325 0.41426 0.0
C479 C 0.71436 0.17794 0.36674 0.0
C480 C 0.69886 0.16157 0.32883 0.0
C481 C 0.67975 0.15089 0.42378 0.0
N482 N 0.66709 0.13313 0.38752 0.0
H483 H 0.66471 0.12637 0.31049 0.0
H484 H 0.67253 0.14732 0.46103 0.0
H485 H 0.6703 0.08952 0.30218 0.0
H486 H 0.69179 0.09103 0.44965 0.0
O487 O 0.62934 0.08274 0.33724 0.0
O488 O 0.62299 0.05748 0.39942 0.0
O489 O 0.65986 0.10388 0.47577 0.0
C490 C 0.61913 0.05908 0.35242 0.0
H491 H 0.5743 0.10082 0.49678 0.0
H492 H 0.71026 0.08222 0.30517 0.0
H493 H 0.71379 0.18616 0.44438 0.0
H494 H 0.70579 0.16447 0.29122 0.0
Co495 Co 0.90048 0.60001 0.82496 0.0
C496 C 0.84333 0.5812 0.83621 0.0
C497 C 0.85999 0.60357 0.77083 0.0
C498 C 0.83459 0.59752 0.7737 0.0
N499 N 0.8656 0.59314 0.80953 0.0
N500 N 0.82402 0.58363 0.81498 0.0
H501 H 0.84153 0.57214 0.87153 0.0
H502 H 0.87372 0.61545 0.74291 0.0
C503 C 0.89356 0.57999 0.71695 0.0
O504 O 0.87006 0.56305 0.7311 0.0
N505 N 0.93423 0.6067 0.84183 0.0
C506 C 0.94031 0.59767 0.88214 0.0
C507 C 0.96413 0.60006 0.87502 0.0
C508 C 0.95441 0.61506 0.81146 0.0
N509 N 0.97282 0.61089 0.83043 0.0
C510 C 0.87704 0.55013 0.87617 0.0
C511 C 0.90308 0.53142 0.82101 0.0
C512 C 0.89178 0.51893 0.86506 0.0
C513 C 0.87785 0.52798 0.89224 0.0
C514 C 0.90223 0.55337 0.80688 0.0
N515 N 0.88964 0.56306 0.83421 0.0
H516 H 0.86862 0.5583 0.90023 0.0
H517 H 0.91503 0.56421 0.77735 0.0
H518 H 0.92747 0.58816 0.91282 0.0
H519 H 0.9552 0.62318 0.77547 0.0
O520 O 0.89766 0.61067 0.89341 0.0
O521 O 0.91262 0.63754 0.83195 0.0
O522 O 0.90815 0.59744 0.74885 0.0
C523 C 0.90836 0.63466 0.87931 0.0
H524 H 0.82474 0.60331 0.74764 0.0
H525 H 0.9735 0.59301 0.89954 0.0
H526 H 0.91468 0.52565 0.79966 0.0
H527 H 0.86939 0.5193 0.92738 0.0
Co528 Co 0.43027 0.30228 0.83141 0.0
C529 C 0.45033 0.26494 0.84359 0.0
C530 C 0.43359 0.26303 0.77281 0.0
C531 C 0.4406 0.24441 0.77498 0.0
N532 N 0.44003 0.27639 0.8153 0.0
N533 N 0.45089 0.24526 0.81959 0.0
H534 H 0.45596 0.26981 0.8816 0.0
H535 H 0.4236 0.266 0.74258 0.0
C536 C 0.45231 0.31993 0.72486 0.0
O537 O 0.47155 0.31673 0.73901 0.0
N538 N 0.42024 0.3269 0.84817 0.0
C539 C 0.4237 0.33925 0.89138 0.0
C540 C 0.41665 0.35773 0.88535 0.0
C541 C 0.41107 0.33755 0.8169 0.0
N542 N 0.40914 0.35673 0.83817 0.0
C543 C 0.48118 0.32973 0.87979 0.0
C544 C 0.49671 0.37568 0.83044 0.0
C545 C 0.51231 0.37581 0.86886 0.0
C546 C 0.50425 0.35226 0.89372 0.0
C547 C 0.47409 0.35315 0.81805 0.0
N548 N 0.46634 0.33019 0.84185 0.0
H549 H 0.47456 0.31247 0.90153 0.0
H550 H 0.46183 0.35507 0.79143 0.0
H551 H 0.43161 0.33567 0.92431 0.0
H552 H 0.4072 0.33231 0.77853 0.0
O553 O 0.42005 0.28823 0.89937 0.0
O554 O 0.39316 0.27486 0.83799 0.0
O555 O 0.43323 0.31333 0.75559 0.0
C556 C 0.39616 0.27395 0.88549 0.0
H557 H 0.4379 0.2309 0.74596 0.0
H558 H 0.41721 0.37084 0.91332 0.0
H559 H 0.50094 0.39337 0.81178 0.0
H560 H 0.51524 0.35141 0.92463 0.0
Co561 Co 0.72831 0.13544 0.81673 0.0
C562 C 0.76496 0.19222 0.82979 0.0
C563 C 0.76793 0.17894 0.75812 0.0
C564 C 0.78559 0.20491 0.76136 0.0
N565 N 0.75439 0.17097 0.80047 0.0
N566 N 0.78387 0.2133 0.80645 0.0
H567 H 0.75939 0.19225 0.86764 0.0
H568 H 0.76571 0.16662 0.72726 0.0
C569 C 0.71297 0.13726 0.70577 0.0
O570 O 0.71604 0.16022 0.71441 0.0
N571 N 0.70341 0.10137 0.83487 0.0
C572 C 0.6871 0.09401 0.87366 0.0
C573 C 0.67032 0.06798 0.87 0.0
C574 C 0.69727 0.08015 0.80927 0.0
N575 N 0.67708 0.0597 0.82969 0.0
C576 C 0.69964 0.15756 0.86396 0.0
C577 C 0.65475 0.1277 0.81135 0.0
C578 C 0.65326 0.14029 0.85329 0.0
C579 C 0.67623 0.15601 0.87917 0.0
C580 C 0.67808 0.12939 0.79798 0.0
N581 N 0.7004 0.14391 0.82415 0.0
H582 H 0.71642 0.16768 0.88707 0.0
H583 H 0.6769 0.11603 0.77026 0.0
H584 H 0.68675 0.10683 0.90127 0.0
H585 H 0.70654 0.07981 0.77525 0.0
O586 O 0.7416 0.1395 0.88551 0.0
O587 O 0.75544 0.12573 0.82505 0.0
O588 O 0.71831 0.12586 0.74111 0.0
C589 C 0.75589 0.12967 0.87236 0.0
H590 H 0.79939 0.21658 0.7333 0.0
H591 H 0.65414 0.0562 0.89389 0.0
H592 H 0.63739 0.11466 0.79136 0.0
H593 H 0.67577 0.1655 0.91276 0.0
Co594 Co 0.42865 0.13243 0.32067 0.0
C595 C 0.44624 0.18918 0.33119 0.0
C596 C 0.4316 0.1744 0.25934 0.0
C597 C 0.43832 0.19995 0.26072 0.0
N598 N 0.43695 0.16753 0.30308 0.0
N599 N 0.44716 0.20937 0.30611 0.0
H600 H 0.45125 0.18994 0.36963 0.0
H601 H 0.42274 0.16162 0.22848 0.0
C602 C 0.4478 0.13431 0.21145 0.0
O603 O 0.46884 0.15591 0.2226 0.0
N604 N 0.42065 0.09855 0.33956 0.0
C605 C 0.42894 0.09242 0.38093 0.0
C606 C 0.42664 0.06859 0.37467 0.0
C607 C 0.41277 0.07839 0.3095 0.0
N608 N 0.4171 0.06031 0.32928 0.0
C609 C 0.47923 0.15644 0.36874 0.0
C610 C 0.49681 0.12817 0.31751 0.0
C611 C 0.51065 0.14183 0.35881 0.0
C612 C 0.5018 0.15639 0.38446 0.0
C613 C 0.47413 0.12793 0.30432 0.0
N614 N 0.46533 0.14205 0.32918 0.0
H615 H 0.47182 0.16628 0.3909 0.0
H616 H 0.46244 0.11402 0.27696 0.0
H617 H 0.43805 0.10529 0.41165 0.0
H618 H 0.4051 0.07749 0.27306 0.0
O619 O 0.41902 0.13664 0.38908 0.0
O620 O 0.39151 0.12176 0.32867 0.0
O621 O 0.42979 0.12336 0.24487 0.0
C622 C 0.39492 0.12633 0.37585 0.0
H623 H 0.43677 0.21068 0.23014 0.0
H624 H 0.43279 0.05878 0.40012 0.0
H625 H 0.50231 0.1159 0.2978 0.0
H626 H 0.5116 0.16673 0.41751 0.0
Co627 Co 0.90011 0.30116 0.31887 0.0
C628 C 0.84272 0.26655 0.33447 0.0
C629 C 0.85583 0.26111 0.26437 0.0
C630 C 0.82963 0.24452 0.26769 0.0
N631 N 0.8641 0.27553 0.30555 0.0
N632 N 0.82134 0.24782 0.31174 0.0
H633 H 0.8427 0.27317 0.37143 0.0
H634 H 0.86809 0.26229 0.23401 0.0
C635 C 0.8936 0.31656 0.21189 0.0
O636 O 0.87144 0.31344 0.22774 0.0
N637 N 0.93509 0.32579 0.33323 0.0
C638 C 0.94462 0.33759 0.37668 0.0
C639 C 0.96965 0.35685 0.36944 0.0
C640 C 0.95408 0.33775 0.30047 0.0
N641 N 0.97523 0.35708 0.32124 0.0
C642 C 0.87992 0.33049 0.37071 0.0
C643 C 0.90818 0.37509 0.31623 0.0
C644 C 0.89602 0.37658 0.3589 0.0
C645 C 0.88117 0.35373 0.38586 0.0
C646 C 0.90665 0.35188 0.30276 0.0
N647 N 0.89265 0.3296 0.32942 0.0
H648 H 0.87055 0.3139 0.39457 0.0
H649 H 0.91919 0.35298 0.27331 0.0
H650 H 0.93388 0.3332 0.41076 0.0
H651 H 0.95205 0.33336 0.26163 0.0
O652 O 0.89721 0.28792 0.38742 0.0
O653 O 0.90934 0.27344 0.32554 0.0
O654 O 0.90687 0.31081 0.24225 0.0
C655 C 0.90622 0.27314 0.37323 0.0
H656 H 0.81764 0.23051 0.2403 0.0
H657 H 0.98251 0.36959 0.39745 0.0
H658 H 0.92048 0.39234 0.29515 0.0
H659 H 0.87209 0.35419 0.42005 0.0
Co660 Co 0.72681 0.59635 0.33718 0.0
C661 C 0.76291 0.57552 0.34169 0.0
C662 C 0.77153 0.60184 0.28149 0.0
C663 C 0.78964 0.59396 0.28241 0.0
N664 N 0.75477 0.5903 0.31861 0.0
N665 N 0.78442 0.57739 0.32037 0.0
H666 H 0.75312 0.56369 0.37334 0.0
H667 H 0.77106 0.61559 0.25628 0.0
C668 C 0.71441 0.60017 0.22422 0.0
O669 O 0.73088 0.62505 0.22461 0.0
N670 N 0.69911 0.60188 0.35726 0.0
C671 C 0.69342 0.60588 0.40346 0.0
C672 C 0.67393 0.6116 0.40119 0.0
C673 C 0.68273 0.60474 0.32791 0.0
N674 N 0.66733 0.61078 0.35365 0.0
C675 C 0.69537 0.55433 0.40227 0.0
C676 C 0.6693 0.51838 0.32966 0.0
C677 C 0.6574 0.51449 0.37613 0.0
C678 C 0.67175 0.53222 0.41336 0.0
C679 C 0.69288 0.54104 0.32001 0.0
N680 N 0.70438 0.5598 0.35503 0.0
H681 H 0.70514 0.56827 0.43103 0.0
H682 H 0.70108 0.54396 0.28357 0.0
H683 H 0.70373 0.60637 0.43647 0.0
H684 H 0.68374 0.60529 0.28826 0.0
O685 O 0.74413 0.61097 0.40147 0.0
O686 O 0.7506 0.63481 0.3369 0.0
O687 O 0.71148 0.58718 0.2645 0.0
C688 C 0.75508 0.63427 0.38394 0.0
H689 H 0.80602 0.60075 0.25783 0.0
H690 H 0.66698 0.61839 0.43124 0.0
H691 H 0.66012 0.50451 0.30038 0.0
H692 H 0.6641 0.53007 0.45028 0.0
Co693 Co 0.47301 0.09179 0.90486 0.0
C694 C 0.52903 0.10766 0.89582 0.0
C695 C 0.51197 0.08735 0.96313 0.0
C696 C 0.53745 0.09344 0.96183 0.0
N697 N 0.5066 0.09618 0.92181 0.0
N698 N 0.54823 0.10607 0.91942 0.0
H699 H 0.53108 0.11643 0.85998 0.0
H700 H 0.49823 0.07698 0.99212 0.0
C701 C 0.45287 0.10577 1.00176 0.0
O702 O 0.44222 0.11564 0.97332 0.0
N703 N 0.43997 0.08724 0.8866 0.0
C704 C 0.43353 0.09726 0.84821 0.0
C705 C 0.40844 0.09152 0.85388 0.0
C706 C 0.41818 0.07358 0.91222 0.0
N707 N 0.39902 0.07692 0.89463 0.0
C708 C 0.49138 0.13774 0.8456 0.0
C709 C 0.49173 0.16908 0.92045 0.0
C710 C 0.48782 0.17464 0.87206 0.0
C711 C 0.48998 0.15989 0.83412 0.0
C712 C 0.49309 0.14662 0.93003 0.0
N713 N 0.48891 0.12938 0.89316 0.0
H714 H 0.49067 0.12547 0.8158 0.0
H715 H 0.4956 0.14242 0.96753 0.0
H716 H 0.44579 0.1081 0.81799 0.0
H717 H 0.41692 0.0627 0.94499 0.0
O718 O 0.47501 0.0795 0.83752 0.0
O719 O 0.45775 0.05353 0.89967 0.0
O720 O 0.46604 0.09614 0.98102 0.0
C721 C 0.46246 0.05565 0.8524 0.0
H722 H 0.54733 0.08894 0.99017 0.0
H723 H 0.39856 0.09871 0.83113 0.0
H724 H 0.49174 0.18076 0.95088 0.0
H725 H 0.4884 0.16419 0.79595 0.0
Co726 Co 0.94014 0.38674 0.90604 0.0
C727 C 0.92125 0.42473 0.90785 0.0
C728 C 0.95356 0.43534 0.95573 0.0
C729 C 0.94759 0.45479 0.956 0.0
N730 N 0.93685 0.41624 0.92623 0.0
N731 N 0.92732 0.44832 0.9258 0.0
H732 H 0.90687 0.4146 0.87976 0.0
H733 H 0.96943 0.43538 0.97489 0.0
C734 C 0.92692 0.37696 1.02073 0.0
O735 O 0.92085 0.39522 1.02014 0.0
N736 N 0.94299 0.35784 0.88368 0.0
C737 C 0.94378 0.35091 0.83665 0.0
C738 C 0.94546 0.32887 0.83696 0.0
C739 C 0.9437 0.33975 0.91164 0.0
N740 N 0.9452 0.32192 0.88417 0.0
C741 C 0.89603 0.35889 0.84396 0.0
C742 C 0.86278 0.3275 0.91627 0.0
C743 C 0.8579 0.31844 0.86754 0.0
C744 C 0.87414 0.33543 0.83091 0.0
C745 C 0.88516 0.35088 0.92776 0.0
N746 N 0.90276 0.36529 0.8922 0.0
H747 H 0.90909 0.37044 0.81505 0.0
H748 H 0.88845 0.3563 0.96568 0.0
H749 H 0.94407 0.36151 0.8042 0.0
H750 H 0.94551 0.34066 0.95126 0.0
O751 O 0.95326 0.40355 0.84047 0.0
O752 O 0.9787 0.40887 0.90174 0.0
O753 O 0.93496 0.37196 0.97978 0.0
C754 C 0.97702 0.41358 0.85533 0.0
H755 H 0.95792 0.47273 0.97605 0.0
H756 H 0.94881 0.31989 0.80539 0.0
H757 H 0.84993 0.31621 0.94584 0.0
H758 H 0.87113 0.32996 0.79247 0.0
Co759 Co 0.64536 0.55676 0.92053 0.0
C760 C 0.60994 0.49924 0.91307 0.0
C761 C 0.60105 0.51619 0.97402 0.0
C762 C 0.58272 0.49042 0.9717 0.0
N763 N 0.61839 0.52182 0.9377 0.0
N764 N 0.58807 0.47955 0.93322 0.0
H765 H 0.61931 0.49739 0.8807 0.0
H766 H 0.60119 0.53015 0.99947 0.0
C767 C 0.65752 0.55366 1.03301 0.0
O768 O 0.65077 0.52939 1.02596 0.0
N769 N 0.67111 0.59045 0.90221 0.0
C770 C 0.68775 0.59768 0.86395 0.0
C771 C 0.70329 0.62402 0.86542 0.0
C772 C 0.67595 0.61195 0.92542 0.0
N773 N 0.69533 0.63255 0.90363 0.0
C774 C 0.67348 0.53492 0.87082 0.0
C775 C 0.71739 0.56073 0.92796 0.0
C776 C 0.71932 0.54999 0.88374 0.0
C777 C 0.69677 0.53623 0.85556 0.0
C778 C 0.69415 0.55933 0.94147 0.0
N779 N 0.67234 0.5469 0.91297 0.0
H780 H 0.65729 0.52672 0.84586 0.0
H781 H 0.69531 0.57142 0.97164 0.0
H782 H 0.68875 0.58478 0.83738 0.0
H783 H 0.66594 0.61249 0.95826 0.0
O784 O 0.63176 0.5528 0.8517 0.0
O785 O 0.61903 0.56766 0.91191 0.0
O786 O 0.65554 0.56649 0.99603 0.0
C787 C 0.61802 0.56326 0.86471 0.0
H788 H 0.56597 0.48073 0.99536 0.0
H789 H 0.71916 0.63593 0.84099 0.0
H790 H 0.73447 0.57227 0.94997 0.0
H791 H 0.69758 0.52829 0.82024 0.0
Co792 Co 0.60398 0.88921 0.74024 0.0
C793 C 0.58391 0.83224 0.72624 0.0
C794 C 0.60162 0.84601 0.79668 0.0
C795 C 0.59351 0.82009 0.79358 0.0
N796 N 0.595 0.85365 0.75516 0.0
N797 N 0.58247 0.81139 0.74929 0.0
H798 H 0.57748 0.83192 0.68894 0.0
H799 H 0.61218 0.85854 0.82699 0.0
C800 C 0.58399 0.8841 0.84816 0.0
O801 O 0.56523 0.86148 0.83395 0.0
N802 N 0.61292 0.92344 0.72381 0.0
C803 C 0.60499 0.93138 0.68434 0.0
C804 C 0.61447 0.95745 0.68863 0.0
C805 C 0.62741 0.94429 0.75075 0.0
N806 N 0.62848 0.96513 0.73024 0.0
C807 C 0.55361 0.86722 0.69117 0.0
C808 C 0.53774 0.89619 0.74474 0.0
C809 C 0.52408 0.88403 0.70223 0.0
C810 C 0.53169 0.86867 0.6759 0.0
C811 C 0.55949 0.89476 0.75793 0.0
N812 N 0.56763 0.88055 0.73154 0.0
H813 H 0.56061 0.85747 0.66776 0.0
H814 H 0.57142 0.90802 0.78598 0.0
H815 H 0.59264 0.91898 0.65541 0.0
H816 H 0.63627 0.94413 0.78541 0.0
O817 O 0.61399 0.88612 0.67155 0.0
O818 O 0.641 0.89942 0.73292 0.0
O819 O 0.60221 0.89735 0.81635 0.0
C820 C 0.63796 0.89598 0.68541 0.0
H821 H 0.59633 0.80865 0.82117 0.0
H822 H 0.6112 0.96971 0.66385 0.0
H823 H 0.53306 0.90885 0.76532 0.0
H824 H 0.52205 0.85948 0.64192 0.0
Co825 Co 0.13958 0.72189 0.7458 0.0
C826 C 0.19665 0.76037 0.73815 0.0
C827 C 0.18055 0.76105 0.80825 0.0
C828 C 0.20627 0.77948 0.80812 0.0
N829 N 0.17441 0.74852 0.76489 0.0
N830 N 0.21655 0.77953 0.76378 0.0
H831 H 0.19807 0.75585 0.70017 0.0
H832 H 0.16715 0.75741 0.83801 0.0
C833 C 0.1415 0.70452 0.85509 0.0
O834 O 0.16433 0.70763 0.84456 0.0
N835 N 0.10587 0.69621 0.72532 0.0
C836 C 0.10026 0.68207 0.68372 0.0
C837 C 0.0764 0.66046 0.68919 0.0
C838 C 0.08534 0.68373 0.75463 0.0
N839 N 0.06758 0.66141 0.7343 0.0
C840 C 0.16468 0.69568 0.69852 0.0
C841 C 0.13438 0.64953 0.74733 0.0
C842 C 0.14869 0.64935 0.70704 0.0
C843 C 0.16454 0.67297 0.68292 0.0
C844 C 0.13467 0.67211 0.76083 0.0
N845 N 0.14954 0.6951 0.73699 0.0
H846 H 0.17511 0.713 0.67683 0.0
H847 H 0.12011 0.66996 0.78657 0.0
H848 H 0.11353 0.68601 0.65352 0.0
H849 H 0.08403 0.69017 0.79115 0.0
O850 O 0.14468 0.7364 0.67798 0.0
O851 O 0.12871 0.74836 0.73763 0.0
O852 O 0.12963 0.71029 0.82124 0.0
C853 C 0.13402 0.74996 0.69064 0.0
H854 H 0.21652 0.79179 0.8389 0.0
H855 H 0.06699 0.64461 0.66352 0.0
H856 H 0.12106 0.63164 0.76563 0.0
H857 H 0.17529 0.67354 0.65039 0.0
Co858 Co 0.31324 0.42747 0.75283 0.0
C859 C 0.27496 0.44622 0.74451 0.0
C860 C 0.26815 0.42173 0.80707 0.0
C861 C 0.24927 0.42852 0.80559 0.0
N862 N 0.28457 0.43307 0.76928 0.0
N863 N 0.25337 0.44393 0.76623 0.0
H864 H 0.2828 0.45616 0.71015 0.0
H865 H 0.2696 0.40902 0.83362 0.0
C866 C 0.32519 0.44573 0.86254 0.0
O867 O 0.3174 0.46203 0.85056 0.0
N868 N 0.34115 0.42247 0.73481 0.0
C869 C 0.35337 0.42802 0.69087 0.0
C870 C 0.37393 0.42384 0.69444 0.0
C871 C 0.35441 0.41557 0.76455 0.0
N872 N 0.37462 0.41669 0.74108 0.0
C873 C 0.33839 0.47626 0.70035 0.0
C874 C 0.38237 0.49821 0.75805 0.0
C875 C 0.38355 0.50919 0.71222 0.0
C876 C 0.36096 0.49836 0.68355 0.0
C877 C 0.36006 0.47575 0.7724 0.0
N878 N 0.33813 0.46462 0.74397 0.0
H879 H 0.32216 0.46699 0.67563 0.0
H880 H 0.36235 0.46589 0.80326 0.0
H881 H 0.34769 0.43452 0.65853 0.0
H882 H 0.34889 0.40879 0.80193 0.0
O883 O 0.29978 0.41716 0.68437 0.0
O884 O 0.28892 0.38955 0.74415 0.0
O885 O 0.32365 0.42956 0.82878 0.0
C886 C 0.28742 0.39294 0.69701 0.0
H887 H 0.23348 0.42227 0.83149 0.0
H888 H 0.38676 0.42505 0.6651 0.0
H889 H 0.39959 0.50522 0.78041 0.0
H890 H 0.36123 0.50591 0.64716 0.0
Co891 Co 0.56899 0.93467 0.15387 0.0
C892 C 0.51147 0.91519 0.16216 0.0
C893 C 0.53007 0.94171 0.10261 0.0
C894 C 0.50452 0.93517 0.1037 0.0
N895 N 0.53457 0.92905 0.13872 0.0
N896 N 0.49262 0.91853 0.14116 0.0
H897 H 0.50877 0.90391 0.19501 0.0
H898 H 0.54459 0.9552 0.07749 0.0
C899 C 0.5606 0.91577 0.04492 0.0
O900 O 0.53669 0.90011 0.05878 0.0
N901 N 0.60238 0.94007 0.17019 0.0
C902 C 0.60808 0.93089 0.21078 0.0
C903 C 0.63118 0.9317 0.20333 0.0
C904 C 0.62213 0.94689 0.13922 0.0
N905 N 0.63989 0.94172 0.15821 0.0
C906 C 0.5463 0.88548 0.2065 0.0
C907 C 0.56811 0.86431 0.14613 0.0
C908 C 0.55997 0.85352 0.19282 0.0
C909 C 0.54772 0.86362 0.22244 0.0
C910 C 0.56758 0.88652 0.13288 0.0
N911 N 0.55707 0.89745 0.16269 0.0
H912 H 0.53915 0.89436 0.23189 0.0
H913 H 0.5791 0.89634 0.10138 0.0
H914 H 0.59544 0.92243 0.24213 0.0
H915 H 0.62313 0.95483 0.10297 0.0
O916 O 0.56667 0.94537 0.22271 0.0
O917 O 0.58214 0.9724 0.16166 0.0
O918 O 0.57612 0.93215 0.07744 0.0
C919 C 0.57776 0.96943 0.20897 0.0
H920 H 0.49546 0.94246 0.07893 0.0
H921 H 0.64002 0.92427 0.22822 0.0
H922 H 0.57708 0.857 0.12114 0.0
H923 H 0.54097 0.85594 0.25897 0.0
Co924 Co 0.10082 0.63883 0.16219 0.0
C925 C 0.12272 0.60336 0.15829 0.0
C926 C 0.08781 0.58937 0.1166 0.0
C927 C 0.09535 0.57107 0.11562 0.0
N928 N 0.10511 0.60985 0.14267 0.0
N929 N 0.11744 0.57981 0.14151 0.0
H930 H 0.13859 0.61523 0.1826 0.0
H931 H 0.0704 0.58754 0.10061 0.0
C932 C 0.11117 0.64654 0.04684 0.0
O933 O 0.11843 0.62916 0.04794 0.0
N934 N 0.09691 0.66717 0.18387 0.0
C935 C 0.09689 0.67485 0.23066 0.0
C936 C 0.09214 0.69505 0.22981 0.0
C937 C 0.09272 0.68298 0.15545 0.0
N938 N 0.08987 0.70013 0.18245 0.0
C939 C 0.14588 0.66808 0.22138 0.0
C940 C 0.17747 0.69986 0.14758 0.0
C941 C 0.1837 0.70852 0.19639 0.0
C942 C 0.16794 0.69155 0.23358 0.0
C943 C 0.1549 0.67648 0.13698 0.0
N944 N 0.13829 0.66163 0.17351 0.0
H945 H 0.13342 0.65644 0.25092 0.0
H946 H 0.15063 0.67148 0.099 0.0
H947 H 0.0988 0.66566 0.26339 0.0
H948 H 0.08925 0.68062 0.11624 0.0
O949 O 0.08927 0.62282 0.2286 0.0
O950 O 0.06248 0.61565 0.1688 0.0
O951 O 0.10411 0.65228 0.08807 0.0
C952 C 0.06521 0.61183 0.21521 0.0
H953 H 0.08448 0.55214 0.0993 0.0
H954 H 0.08844 0.70383 0.26129 0.0
H955 H 0.18938 0.71159 0.11736 0.0
H956 H 0.17135 0.697 0.27196 0.0
Co957 Co 0.39753 0.46919 0.16444 0.0
C958 C 0.43554 0.52644 0.1755 0.0
C959 C 0.43968 0.51017 0.10815 0.0
C960 C 0.45918 0.53541 0.11074 0.0
N961 N 0.42447 0.50439 0.14823 0.0
N962 N 0.45672 0.5458 0.15297 0.0
H963 H 0.42942 0.52788 0.21223 0.0
H964 H 0.43746 0.49654 0.0798 0.0
C965 C 0.38244 0.4744 0.05705 0.0
O966 O 0.3874 0.49743 0.07113 0.0
N967 N 0.37214 0.43509 0.18131 0.0
C968 C 0.35568 0.42704 0.21987 0.0
C969 C 0.33992 0.40078 0.21604 0.0
C970 C 0.36703 0.41416 0.15564 0.0
N971 N 0.34756 0.39309 0.17605 0.0
C972 C 0.37007 0.493 0.21128 0.0
C973 C 0.32494 0.4639 0.15887 0.0
C974 C 0.32416 0.4783 0.19855 0.0
C975 C 0.34728 0.49321 0.22488 0.0
C976 C 0.34763 0.46389 0.14715 0.0
N977 N 0.37019 0.47841 0.17256 0.0
H978 H 0.38695 0.50299 0.23421 0.0
H979 H 0.34587 0.44972 0.12068 0.0
H980 H 0.35473 0.43946 0.24769 0.0
H981 H 0.37667 0.41445 0.12166 0.0
O982 O 0.4105 0.47267 0.23317 0.0
O983 O 0.42408 0.45847 0.17307 0.0
O984 O 0.38725 0.46083 0.08846 0.0
C985 C 0.4244 0.46238 0.22045 0.0
H986 H 0.47462 0.54518 0.08423 0.0
H987 H 0.32391 0.3884 0.23979 0.0
H988 H 0.30751 0.45088 0.13909 0.0
H989 H 0.34752 0.50416 0.25679 0.0
Co990 Co 0.10132 0.46862 0.65632 0.0
C991 C 0.1197 0.52587 0.66585 0.0
C992 C 0.09935 0.5089 0.59884 0.0
C993 C 0.10556 0.53431 0.59975 0.0
N994 N 0.10849 0.50346 0.63971 0.0
N995 N 0.1181 0.54509 0.64205 0.0
H996 H 0.12767 0.52785 0.70232 0.0
H997 H 0.08827 0.49508 0.57055 0.0
C998 C 0.12163 0.47421 0.54847 0.0
O999 O 0.13952 0.49737 0.56217 0.0
N1000 N 0.09398 0.43491 0.67329 0.0
C1001 C 0.10284 0.42743 0.71207 0.0
C1002 C 0.0946 0.4016 0.70695 0.0
C1003 C 0.08017 0.41399 0.64606 0.0
N1004 N 0.08043 0.39362 0.66557 0.0
C1005 C 0.15117 0.49253 0.70671 0.0
C1006 C 0.16973 0.46531 0.65486 0.0
C1007 C 0.18243 0.47771 0.69798 0.0
C1008 C 0.17331 0.492 0.72363 0.0
C1009 C 0.14764 0.46582 0.63995 0.0
N1010 N 0.13815 0.47911 0.66561 0.0
H1011 H 0.14313 0.50156 0.72947 0.0
H1012 H 0.13656 0.45251 0.61126 0.0
H1013 H 0.11498 0.44001 0.74102 0.0
H1014 H 0.0707 0.41378 0.61193 0.0
O1015 O 0.09106 0.47164 0.72484 0.0
O1016 O 0.0637 0.45672 0.66433 0.0
O1017 O 0.10369 0.46041 0.58042 0.0
C1018 C 0.06692 0.46074 0.71173 0.0
H1019 H 0.10081 0.54402 0.57148 0.0
H1020 H 0.09866 0.38968 0.73114 0.0
H1021 H 0.17547 0.45327 0.63502 0.0
H1022 H 0.18215 0.50126 0.75809 0.0
Co1023 Co 0.5661 0.63509 0.66502 0.0
C1024 C 0.50943 0.59623 0.67375 0.0
C1025 C 0.52433 0.59885 0.6008 0.0
C1026 C 0.4984 0.58114 0.60059 0.0
N1027 N 0.53138 0.60852 0.64646 0.0
N1028 N 0.48888 0.57901 0.64655 0.0
H1029 H 0.50857 0.59961 0.71266 0.0
H1030 H 0.53707 0.60424 0.56937 0.0
C1031 C 0.58982 0.66975 0.5698 0.0
O1032 O 0.60334 0.68933 0.59922 0.0
N1033 N 0.60022 0.66056 0.68389 0.0
C1034 C 0.60908 0.67669 0.72294 0.0
C1035 C 0.63557 0.69003 0.72122 0.0
C1036 C 0.62117 0.66302 0.66131 0.0
N1037 N 0.64281 0.68101 0.68275 0.0
C1038 C 0.55258 0.66696 0.72359 0.0
C1039 C 0.54925 0.69554 0.64716 0.0
C1040 C 0.55326 0.70596 0.69494 0.0
C1041 C 0.55321 0.69029 0.73368 0.0
C1042 C 0.54908 0.67222 0.6388 0.0
N1043 N 0.55372 0.6598 0.67636 0.0
H1044 H 0.55377 0.65598 0.75403 0.0
H1045 H 0.54612 0.66486 0.60175 0.0
H1046 H 0.59771 0.67878 0.7513 0.0
H1047 H 0.62056 0.65283 0.62793 0.0
O1048 O 0.56209 0.62012 0.73219 0.0
O1049 O 0.57781 0.60897 0.67106 0.0
O1050 O 0.57454 0.64714 0.58954 0.0
C1051 C 0.57309 0.6071 0.71835 0.0
H1052 H 0.4874 0.57106 0.56836 0.0
H1053 H 0.64849 0.70556 0.74523 0.0
H1054 H 0.54686 0.70555 0.61617 0.0
H1055 H 0.55525 0.69661 0.77156 0.0
Co1056 Co 0.39109 0.93157 0.6533 0.0
C1057 C 0.43034 0.91384 0.65983 0.0
C1058 C 0.43675 0.93943 0.59924 0.0
C1059 C 0.45638 0.93373 0.60006 0.0
N1060 N 0.42018 0.92683 0.63626 0.0
N1061 N 0.4526 0.91784 0.63837 0.0
H1062 H 0.42241 0.90273 0.6931 0.0
H1063 H 0.43493 0.95236 0.57383 0.0
C1064 C 0.3798 0.91317 0.54434 0.0
O1065 O 0.38805 0.89733 0.55706 0.0
N1066 N 0.36276 0.93591 0.67159 0.0
C1067 C 0.35091 0.93046 0.7159 0.0
C1068 C 0.32994 0.93399 0.71277 0.0
C1069 C 0.34882 0.94208 0.64203 0.0
N1070 N 0.32858 0.94067 0.66607 0.0
C1071 C 0.36672 0.88306 0.7067 0.0
C1072 C 0.32253 0.86027 0.64961 0.0
C1073 C 0.32155 0.8498 0.69592 0.0
C1074 C 0.34424 0.86107 0.72429 0.0
C1075 C 0.34476 0.88266 0.63443 0.0
N1076 N 0.36675 0.89428 0.66267 0.0
H1077 H 0.38307 0.89263 0.73108 0.0
H1078 H 0.34233 0.89208 0.60298 0.0
H1079 H 0.35714 0.92451 0.74823 0.0
H1080 H 0.35386 0.94856 0.60434 0.0
O1081 O 0.40479 0.94222 0.72147 0.0
O1082 O 0.41491 0.96956 0.66133 0.0
O1083 O 0.38064 0.92919 0.57764 0.0
C1084 C 0.41684 0.96637 0.70838 0.0
H1085 H 0.47249 0.94108 0.57469 0.0
H1086 H 0.31733 0.9328 0.74253 0.0
H1087 H 0.30523 0.85289 0.62738 0.0
H1088 H 0.34414 0.85395 0.76102 0.0
Co1089 Co 0.14193 0.42778 0.24236 0.0
C1090 C 0.1994 0.44896 0.23841 0.0
C1091 C 0.1806 0.41931 0.29276 0.0
C1092 C 0.20649 0.42685 0.29193 0.0
N1093 N 0.17606 0.43324 0.25944 0.0
N1094 N 0.21846 0.44545 0.25755 0.0
H1095 H 0.20239 0.46258 0.20967 0.0
H1096 H 0.16592 0.40424 0.31537 0.0
C1097 C 0.14848 0.44585 0.35178 0.0
O1098 O 0.17269 0.4615 0.3397 0.0
N1099 N 0.1092 0.42296 0.22342 0.0
C1100 C 0.10302 0.4282 0.1787 0.0
C1101 C 0.0785 0.42458 0.181 0.0
C1102 C 0.08893 0.41685 0.25243 0.0
N1103 N 0.0702 0.41807 0.22761 0.0
C1104 C 0.16597 0.47677 0.18976 0.0
C1105 C 0.1433 0.49843 0.2465 0.0
C1106 C 0.15398 0.51007 0.20132 0.0
C1107 C 0.16632 0.49941 0.17354 0.0
C1108 C 0.14322 0.47601 0.26109 0.0
N1109 N 0.15423 0.46495 0.23303 0.0
H1110 H 0.17305 0.46753 0.1651 0.0
H1111 H 0.13107 0.46615 0.29197 0.0
H1112 H 0.11543 0.43417 0.14666 0.0
H1113 H 0.08733 0.41057 0.29029 0.0
O1114 O 0.14532 0.4171 0.17429 0.0
O1115 O 0.12822 0.38983 0.23454 0.0
O1116 O 0.1335 0.43005 0.31803 0.0
C1117 C 0.13329 0.39294 0.18746 0.0
H1118 H 0.2156 0.41849 0.31381 0.0
H1119 H 0.06726 0.42565 0.1508 0.0
H1120 H 0.13276 0.50514 0.2687 0.0
H1121 H 0.17507 0.50767 0.13836 0.0
Co1122 Co 0.61425 0.72552 0.25344 0.0
C1123 C 0.59258 0.761 0.23733 0.0
C1124 C 0.60168 0.75935 0.31303 0.0
C1125 C 0.59223 0.77609 0.30891 0.0
N1126 N 0.60134 0.74921 0.26844 0.0
N1127 N 0.58643 0.77709 0.26144 0.0
H1128 H 0.59143 0.75852 0.19779 0.0
H1129 H 0.60936 0.75589 0.3463 0.0
C1130 C 0.59337 0.70537 0.36051 0.0
O1131 O 0.57127 0.70291 0.34613 0.0
N1132 N 0.62712 0.703 0.23729 0.0
C1133 C 0.6237 0.69028 0.1945 0.0
C1134 C 0.63165 0.67254 0.20087 0.0
C1135 C 0.63747 0.69346 0.26854 0.0
N1136 N 0.6398 0.6744 0.24774 0.0
C1137 C 0.5623 0.69537 0.20955 0.0
C1138 C 0.55174 0.64936 0.25371 0.0
C1139 C 0.53466 0.64857 0.21786 0.0
C1140 C 0.53981 0.67209 0.19626 0.0
C1141 C 0.57358 0.67267 0.26597 0.0
N1142 N 0.57907 0.69557 0.24413 0.0
H1143 H 0.56685 0.71284 0.19 0.0
H1144 H 0.58691 0.67177 0.29145 0.0
H1145 H 0.61463 0.69266 0.16201 0.0
H1146 H 0.64124 0.69883 0.30691 0.0
O1147 O 0.62327 0.73902 0.18465 0.0
O1148 O 0.65031 0.75495 0.2455 0.0
O1149 O 0.61282 0.71569 0.32982 0.0
C1150 C 0.64696 0.75487 0.19792 0.0
H1151 H 0.59098 0.78771 0.33814 0.0
H1152 H 0.63066 0.65883 0.17377 0.0
H1153 H 0.54884 0.63175 0.27088 0.0
H1154 H 0.5274 0.67231 0.16748 0.0
Co1155 Co 0.3133 0.89262 0.23858 0.0
C1156 C 0.27645 0.83545 0.22658 0.0
C1157 C 0.27049 0.85067 0.29364 0.0
C1158 C 0.25287 0.82466 0.29172 0.0
N1159 N 0.28585 0.85747 0.25356 0.0
N1160 N 0.25657 0.81506 0.24963 0.0
H1161 H 0.28364 0.83427 0.19075 0.0
H1162 H 0.27185 0.8638 0.32233 0.0
C1163 C 0.32635 0.88576 0.34638 0.0
O1164 O 0.32118 0.86276 0.33166 0.0
N1165 N 0.3398 0.92656 0.22193 0.0
C1166 C 0.35499 0.93296 0.18166 0.0
C1167 C 0.37585 0.9571 0.18852 0.0
C1168 C 0.35099 0.94682 0.25204 0.0
N1169 N 0.37324 0.96563 0.23289 0.0
C1170 C 0.34082 0.86981 0.18868 0.0
C1171 C 0.3852 0.89618 0.2445 0.0
C1172 C 0.3866 0.88428 0.20151 0.0
C1173 C 0.36386 0.87042 0.17378 0.0
C1174 C 0.3623 0.89554 0.25747 0.0
N1175 N 0.34014 0.88257 0.23004 0.0
H1176 H 0.32444 0.86127 0.16424 0.0
H1177 H 0.36392 0.90849 0.2864 0.0
H1178 H 0.35213 0.9202 0.15118 0.0
H1179 H 0.34345 0.94738 0.28795 0.0
O1180 O 0.30023 0.88973 0.17004 0.0
O1181 O 0.28734 0.90411 0.23098 0.0
O1182 O 0.32292 0.90013 0.31473 0.0
C1183 C 0.28651 0.90008 0.18362 0.0
H1184 H 0.238 0.8137 0.31866 0.0
H1185 H 0.39222 0.96681 0.16404 0.0
H1186 H 0.40246 0.90795 0.2659 0.0
H1187 H 0.36432 0.86167 0.1392 0.0
C1188 C 0.21359 0.08008 0.03726 0.0
C1189 C 0.22729 0.06748 0.0509 0.0
C1190 C 0.222 0.10581 0.05181 0.0
C1191 C 0.24457 0.11999 0.08011 0.0
H1192 H 0.19646 0.07008 1.01471 0.0
H1193 H 0.21069 0.11461 0.04119 0.0
S1194 S 0.28894 0.09661 0.11966 0.0
N1195 N 0.26533 0.07168 0.09112 0.0
N1196 N 0.28149 0.11971 0.11725 0.0
C1197 C 0.25869 0.10764 0.09267 0.0
C1198 C 0.25 0.08155 0.07833 0.0
C1199 C 0.92379 0.12656 0.06144 0.0
C1200 C 0.90649 0.13519 0.07448 0.0
C1201 C 0.94976 0.14414 0.04838 0.0
C1202 C 0.95929 0.17097 0.04741 0.0
H1203 H 0.91727 0.10612 0.06203 0.0
H1204 H 0.96232 0.13669 0.03815 0.0
S1205 S 0.92167 0.20341 0.07554 0.0
N1206 N 0.90086 0.17247 0.0837 0.0
N1207 N 0.94907 0.20507 0.0592 0.0
C1208 C 0.94208 0.17969 0.05981 0.0
C1209 C 0.9159 0.16197 0.07333 0.0
C1210 C 0.8913 0.81693 0.03701 0.0
C1211 C 0.8645 0.79934 0.03797 0.0
C1212 C 0.90944 0.80934 0.05102 0.0
C1213 C 0.9014 0.78399 0.06706 0.0
H1214 H 0.89829 0.83654 1.02477 0.0
H1215 H 0.92981 0.82348 0.05038 0.0
S1216 S 0.8336 0.73066 0.07587 0.0
N1217 N 0.83113 0.75543 0.05601 0.0
N1218 N 0.8648 0.74142 0.08216 0.0
C1219 C 0.87471 0.76638 0.06799 0.0
C1220 C 0.85642 0.77397 0.05353 0.0
C1221 C 0.09018 0.21062 0.52203 0.0
C1222 C 0.07935 0.22685 0.52075 0.0
C1223 C 0.1164 0.21994 0.50928 0.0
C1224 C 0.13266 0.24577 0.49447 0.0
H1225 H 0.07852 0.19082 0.53408 0.0
H1226 H 0.12395 0.20685 0.51064 0.0
S1227 S 0.11382 0.29624 0.48745 0.0
N1228 N 0.08716 0.27004 0.50469 0.0
N1229 N 0.13585 0.28747 0.48144 0.0
C1230 C 0.1219 0.26205 0.49329 0.0
C1231 C 0.09546 0.25263 0.50623 0.0
C1232 C 0.78494 0.85376 0.4909 0.0
C1233 C 0.80628 0.86131 0.52218 0.0
C1234 C 0.77632 0.87087 0.47748 0.0
C1235 C 0.78868 0.89662 0.49421 0.0
H1236 H 0.77456 0.83423 0.47688 0.0
H1237 H 0.75965 0.86369 0.4537 0.0
S1238 S 0.84576 0.92638 0.5767 0.0
N1239 N 0.83959 0.89639 0.57003 0.0
N1240 N 0.82372 0.92876 0.54404 0.0
C1241 C 0.80991 0.90443 0.52612 0.0
C1242 C 0.81861 0.88679 0.5402 0.0
C1243 C 0.13062 0.92066 0.51214 0.0
C1244 C 0.13973 0.90513 0.49112 0.0
C1245 C 0.1478 0.94646 0.52637 0.0
C1246 C 0.1747 0.95757 0.52022 0.0
H1247 H 0.11008 0.91289 0.51706 0.0
H1248 H 0.14006 0.95762 0.54301 0.0
S1249 S 0.20858 0.92467 0.47098 0.0
N1250 N 0.17769 0.90268 0.4676 0.0
N1251 N 0.20956 0.95065 0.49407 0.0
C1252 C 0.18396 0.94212 0.49999 0.0
C1253 C 0.16663 0.91608 0.48548 0.0
C1254 C 0.82067 0.92606 1.00216 0.0
C1255 C 0.79472 0.90707 0.99407 0.0
C1256 C 0.82752 0.95162 1.0154 0.0
C1257 C 0.8086 0.95895 1.02129 0.0
H1258 H 0.83573 0.92121 0.99735 0.0
H1259 H 0.84763 0.96558 1.02177 0.0
S1260 S 0.73806 0.91636 1.004 0.0
N1261 N 0.7503 0.89751 0.99251 0.0
N1262 N 0.76285 0.94489 1.01755 0.0
C1263 C 0.78266 0.94 1.01321 0.0
C1264 C 0.77581 0.91428 0.99955 0.0
C1265 C 0.11362 0.90099 1.01051 0.0
C1266 C 0.13054 0.89263 0.99344 0.0
C1267 C 0.08791 0.88314 1.02456 0.0
C1268 C 0.07833 0.85633 1.02248 0.0
H1269 H 0.12021 0.92142 1.01229 0.0
H1270 H 0.07561 0.89034 0.03789 0.0
S1271 S 0.11507 0.82451 0.98326 0.0
N1272 N 0.13582 0.85561 0.97717 0.0
N1273 N 0.08807 0.8225 1.00343 0.0
C1274 C 0.09517 0.84787 1.00604 0.0
C1275 C 0.12108 0.86587 0.99157 0.0
C1276 C 0.16265 0.25729 0.99698 0.0
C1277 C 0.13577 0.24049 0.99971 0.0
C1278 C 0.18034 0.24947 1.01113 0.0
C1279 C 0.17212 0.22428 1.02802 0.0
H1280 H 0.17014 0.27687 0.98405 0.0
H1281 H 0.20077 0.26339 1.00907 0.0
S1282 S 0.10395 0.17244 0.04163 0.0
N1283 N 0.10181 0.19724 1.02048 0.0
N1284 N 0.13511 0.18244 0.04672 0.0
C1285 C 0.14532 0.20712 1.03071 0.0
C1286 C 0.12718 0.21524 1.01681 0.0
C1287 C 0.94661 0.80509 0.50627 0.0
C1288 C 0.96467 0.80533 0.54022 0.0
C1289 C 0.92125 0.79821 0.52063 0.0
C1290 C 0.91282 0.79119 0.56953 0.0
H1291 H 0.95214 0.8102 0.46814 0.0
H1292 H 0.9083 0.79883 0.49351 0.0
S1293 S 0.95135 0.7858 0.67145 0.0
N1294 N 0.97142 0.79609 0.62419 0.0
N1295 N 0.92411 0.7831 0.65101 0.0
C1296 C 0.93051 0.79084 0.60351 0.0
C1297 C 0.95628 0.79794 0.58897 0.0
C1298 C 0.25041 0.17537 0.58041 0.0
C1299 C 0.22708 0.16699 0.55511 0.0
C1300 C 0.25913 0.15821 0.59304 0.0
C1301 C 0.24499 0.13174 0.58092 0.0
H1302 H 0.26247 0.19562 0.58919 0.0
H1303 H 0.27754 0.16599 0.61155 0.0
S1304 S 0.1821 0.09994 0.51559 0.0
N1305 N 0.18979 0.13055 0.5184 0.0
N1306 N 0.20576 0.09805 0.54313 0.0
C1307 C 0.22141 0.12306 0.55593 0.0
C1308 C 0.21257 0.14069 0.54286 0.0
C1309 C 0.90661 0.10397 0.55702 0.0
C1310 C 0.89984 0.12254 0.57085 0.0
C1311 C 0.88759 0.07871 0.54301 0.0
C1312 C 0.86118 0.07131 0.54179 0.0
H1313 H 0.92666 0.10888 0.55799 0.0
H1314 H 0.89358 0.06505 0.53239 0.0
S1315 S 0.83356 0.11298 0.57321 0.0
N1316 N 0.86491 0.13172 0.58153 0.0
N1317 N 0.82954 0.08487 0.55518 0.0
C1318 C 0.85436 0.08986 0.55516 0.0
C1319 C 0.87355 0.11527 0.56967 0.0
C1320 C 0.88484 0.41158 0.37726 0.0
C1321 C 0.90267 0.40266 0.37802 0.0
C1322 C 0.89217 0.43715 0.39127 0.0
C1323 C 0.9175 0.45454 0.40706 0.0
H1324 H 0.86525 0.39887 0.36507 0.0
H1325 H 0.87788 0.44323 0.39064 0.0
S1326 S 0.97154 0.44087 0.41401 0.0
N1327 N 0.94685 0.41355 0.39458 0.0
N1328 N 0.96042 0.46099 0.42116 0.0
C1329 C 0.93539 0.44574 0.4077 0.0
C1330 C 0.92804 0.42001 0.39312 0.0
C1331 C 0.623 0.48083 0.43212 0.0
C1332 C 0.62998 0.49322 0.38577 0.0
C1333 C 0.59708 0.46351 0.4446 0.0
C1334 C 0.57683 0.45721 0.41112 0.0
H1335 H 0.63764 0.48497 0.45966 0.0
H1336 H 0.59272 0.4553 0.48129 0.0
S1337 S 0.5838 0.48367 0.28511 0.0
N1338 N 0.61365 0.49761 0.30625 0.0
N1339 N 0.56534 0.46437 0.3295 0.0
C1340 C 0.58338 0.46851 0.36412 0.0
C1341 C 0.60977 0.48657 0.3515 0.0
C1342 C 0.52653 0.12007 0.41679 0.0
C1343 C 0.53166 0.13739 0.37773 0.0
C1344 C 0.54425 0.11214 0.43046 0.0
C1345 C 0.56817 0.12124 0.40595 0.0
H1346 H 0.50816 0.11179 0.43582 0.0
H1347 H 0.53867 0.09813 0.4598 0.0
S1348 S 0.59138 0.16834 0.30248 0.0
N1349 N 0.5624 0.16391 0.31511 0.0
N1350 N 0.59623 0.15008 0.34173 0.0
C1351 C 0.57374 0.13916 0.36737 0.0
C1352 C 0.55542 0.14694 0.3531 0.0
C1353 C 0.75638 0.5415 0.86672 0.0
C1354 C 0.74565 0.55778 0.86389 0.0
C1355 C 0.78218 0.55012 0.85183 0.0
C1356 C 0.7981 0.57526 0.83323 0.0
H1357 H 0.7449 0.52213 0.88111 0.0
H1358 H 0.78962 0.53695 0.85418 0.0
S1359 S 0.7795 0.62574 0.82145 0.0
N1360 N 0.75329 0.60042 0.84304 0.0
N1361 N 0.8012 0.61653 0.81533 0.0
C1362 C 0.7875 0.59166 0.83087 0.0
C1363 C 0.76149 0.58297 0.84613 0.0
C1364 C 0.49157 0.21906 0.87537 0.0
C1365 C 0.47802 0.19288 0.86129 0.0
C1366 C 0.48228 0.23606 0.86334 0.0
C1367 C 0.459 0.22742 0.83718 0.0
H1368 H 0.50976 0.22658 0.89466 0.0
H1369 H 0.49374 0.25621 0.87316 0.0
S1370 S 0.41416 0.15977 0.79976 0.0
N1371 N 0.43879 0.15876 0.82479 0.0
N1372 N 0.42127 0.19015 0.80326 0.0
C1373 C 0.44472 0.20099 0.82548 0.0
C1374 C 0.45422 0.18391 0.83727 0.0
C1375 C 0.82276 0.28613 0.811 0.0
C1376 C 0.83709 0.29127 0.85499 0.0
C1377 C 0.80496 0.26076 0.79625 0.0
C1378 C 0.80022 0.23924 0.82507 0.0
H1379 H 0.82549 0.30186 0.78727 0.0
H1380 H 0.79492 0.25787 0.76161 0.0
S1381 S 0.83299 0.24124 0.94207 0.0
N1382 N 0.84564 0.27184 0.92621 0.0
N1383 N 0.81159 0.22457 0.89909 0.0
C1384 C 0.81389 0.24391 0.86946 0.0
C1385 C 0.83238 0.26973 0.88424 0.0
C1386 C 0.47475 0.24772 0.35875 0.0
C1387 C 0.45503 0.23536 0.32339 0.0
C1388 C 0.48317 0.27329 0.37418 0.0
C1389 C 0.47251 0.28774 0.35434 0.0
H1390 H 0.48393 0.23764 0.37428 0.0
H1391 H 0.49818 0.28187 0.40177 0.0
S1392 S 0.41817 0.26367 0.26601 0.0
N1393 N 0.42332 0.23921 0.27322 0.0
N1394 N 0.43983 0.28708 0.30068 0.0
C1395 C 0.45252 0.27551 0.31984 0.0
C1396 C 0.44364 0.24946 0.30476 0.0
C1397 C 0.7744 0.22944 0.29893 0.0
C1398 C 0.795 0.23323 0.32957 0.0
C1399 C 0.74852 0.21264 0.31229 0.0
C1400 C 0.74194 0.19845 0.35667 0.0
H1401 H 0.77843 0.23924 0.26375 0.0
H1402 H 0.73354 0.21037 0.28697 0.0
S1403 S 0.78901 0.20092 0.44922 0.0
N1404 N 0.80723 0.22158 0.40625 0.0
N1405 N 0.75888 0.1894 0.431 0.0
C1406 C 0.7625 0.2025 0.38813 0.0
C1407 C 0.78888 0.21997 0.37468 0.0
C1408 C 0.83357 0.55479 0.31453 0.0
C1409 C 0.83613 0.54933 0.36396 0.0
C1410 C 0.81595 0.56283 0.30053 0.0
C1411 C 0.80004 0.56596 0.33523 0.0
H1412 H 0.84619 0.55412 0.28666 0.0
H1413 H 0.81529 0.56724 0.2621 0.0
S1414 S 0.79717 0.55119 0.46893 0.0
N1415 N 0.81917 0.54487 0.44696 0.0
N1416 N 0.78711 0.56098 0.42137 0.0
C1417 C 0.80146 0.55919 0.38446 0.0
C1418 C 0.81921 0.5507 0.39856 0.0
C1419 C 0.58973 0.13927 0.88124 0.0
C1420 C 0.57448 0.11477 0.90298 0.0
C1421 C 0.61563 0.14812 0.86697 0.0
C1422 C 0.62713 0.13271 0.87363 0.0
H1423 H 0.58164 0.15173 0.87567 0.0
H1424 H 0.62654 0.16689 0.84979 0.0
S1425 S 0.59524 0.06655 0.92538 0.0
N1426 N 0.57283 0.07498 0.92817 0.0
N1427 N 0.62098 0.09151 0.90149 0.0
C1428 C 0.61201 0.10818 0.89475 0.0
C1429 C 0.58588 0.09926 0.90941 0.0
C1430 C 0.9341 0.49207 0.90923 0.0
C1431 C 0.9173 0.46519 0.91182 0.0
C1432 C 0.92529 0.50907 0.89603 0.0
C1433 C 0.89917 0.50017 0.88515 0.0
H1434 H 0.9545 0.50012 0.91633 0.0
H1435 H 0.93922 0.52947 0.89339 0.0
S1436 S 0.84681 0.43191 0.88776 0.0
N1437 N 0.87286 0.43061 0.90342 0.0
N1438 N 0.85639 0.4627 0.87843 0.0
C1439 C 0.88196 0.47346 0.88826 0.0
C1440 C 0.891 0.45597 0.90145 0.0
C1441 C 0.55624 0.43339 0.95057 0.0
C1442 C 0.57198 0.45294 0.91663 0.0
C1443 C 0.53818 0.40817 0.93532 0.0
C1444 C 0.53492 0.40112 0.88528 0.0
H1445 H 0.55742 0.43773 0.98947 0.0
H1446 H 0.52583 0.39446 0.96289 0.0
S1447 S 0.57299 0.44375 0.78144 0.0
N1448 N 0.5839 0.46253 0.83031 0.0
N1449 N 0.55094 0.4152 0.80214 0.0
C1450 C 0.55156 0.41999 0.85118 0.0
C1451 C 0.56981 0.44576 0.86664 0.0
C1452 C 0.54919 0.73866 0.74821 0.0
C1453 C 0.55842 0.73304 0.70474 0.0
C1454 C 0.55633 0.76413 0.7614 0.0
C1455 C 0.57263 0.78528 0.7314 0.0
H1456 H 0.53666 0.72327 0.77299 0.0
H1457 H 0.5494 0.76742 0.79596 0.0
S1458 S 0.60241 0.78199 0.61398 0.0
N1459 N 0.58529 0.75163 0.63186 0.0
N1460 N 0.59768 0.79909 0.65613 0.0
C1461 C 0.58131 0.78011 0.68709 0.0
C1462 C 0.57444 0.75417 0.67389 0.0
C1463 C 0.28102 0.80581 0.69755 0.0
C1464 C 0.29573 0.83089 0.71694 0.0
C1465 C 0.25529 0.78914 0.71291 0.0
C1466 C 0.243 0.797 0.74765 0.0
H1467 H 0.28941 0.79914 0.66993 0.0
H1468 H 0.24496 0.76994 0.69748 0.0
S1469 S 0.27233 0.86229 0.80411 0.0
N1470 N 0.29566 0.86336 0.76987 0.0
N1471 N 0.24747 0.83296 0.79719 0.0
C1472 C 0.25749 0.82241 0.76615 0.0
C1473 C 0.28372 0.83907 0.75115 0.0
C1474 C 0.20979 0.43955 0.76048 0.0
C1475 C 0.23649 0.45362 0.74996 0.0
C1476 C 0.19285 0.44818 0.74539 0.0
C1477 C 0.20171 0.47139 0.71929 0.0
H1478 H 0.20165 0.42126 0.77954 0.0
H1479 H 0.17243 0.43621 0.75315 0.0
S1480 S 0.26952 0.5162 0.68326 0.0
N1481 N 0.27089 0.49272 0.71266 0.0
N1482 N 0.23885 0.50852 0.68369 0.0
C1483 C 0.22825 0.48588 0.70878 0.0
C1484 C 0.24564 0.47711 0.72419 0.0
C1485 C 0.45439 0.92432 0.14931 0.0
C1486 C 0.46593 0.90892 0.15637 0.0
C1487 C 0.42854 0.91563 0.16219 0.0
C1488 C 0.41275 0.891 0.18246 0.0
H1489 H 0.46559 0.94362 0.13452 0.0
H1490 H 0.42094 0.92857 0.15713 0.0
S1491 S 0.43276 0.84264 0.20831 0.0
N1492 N 0.45892 0.86733 0.18469 0.0
N1493 N 0.4104 0.85122 0.20934 0.0
C1494 C 0.42377 0.87524 0.18967 0.0
C1495 C 0.45028 0.88413 0.17664 0.0
C1496 C 0.14101 0.56679 0.2001 0.0
C1497 C 0.13029 0.5652 0.15318 0.0
C1498 C 0.15009 0.55001 0.21424 0.0
C1499 C 0.149 0.53089 0.18215 0.0
H1500 H 0.14124 0.58024 0.22698 0.0
H1501 H 0.15725 0.55148 0.25141 0.0
S1502 S 0.1255 0.52076 0.053 0.0
N1503 N 0.12177 0.54478 0.07277 0.0
N1504 N 0.13776 0.5128 0.09976 0.0
C1505 C 0.13966 0.53013 0.13417 0.0
C1506 C 0.13055 0.5473 0.1197 0.0
C1507 C 0.50203 0.58038 0.16536 0.0
C1508 C 0.47541 0.57123 0.17124 0.0
C1509 C 0.52073 0.6054 0.1798 0.0
C1510 C 0.5138 0.62278 0.2 0.0
H1511 H 0.50849 0.56793 0.14971 0.0
H1512 H 0.54092 0.61125 0.17507 0.0
S1513 S 0.44685 0.60876 0.22297 0.0
N1514 N 0.44312 0.58174 0.19892 0.0
N1515 N 0.4783 0.62896 0.22537 0.0
C1516 C 0.48728 0.61404 0.20591 0.0
C1517 C 0.46813 0.58826 0.19187 0.0
C1518 C 0.15821 0.6127 0.69472 0.0
C1519 C 0.14247 0.6237 0.68619 0.0
C1520 C 0.1501 0.58688 0.68112 0.0
C1521 C 0.12596 0.57115 0.65849 0.0
H1522 H 0.17663 0.62392 0.71295 0.0
H1523 H 0.16284 0.57922 0.68798 0.0
S1524 S 0.07693 0.59043 0.6317 0.0
N1525 N 0.10133 0.61653 0.65564 0.0
N1526 N 0.08601 0.5685 0.63092 0.0
C1527 C 0.11007 0.58203 0.65043 0.0
C1528 C 0.11832 0.60811 0.66407 0.0
C1529 C 0.4252 0.55206 0.71551 0.0
C1530 C 0.40946 0.52828 0.69191 0.0
C1531 C 0.45103 0.56856 0.70065 0.0
C1532 C 0.46234 0.56175 0.66213 0.0
H1533 H 0.41756 0.55781 0.74608 0.0
H1534 H 0.4622 0.58678 0.71947 0.0
S1535 S 0.43009 0.49978 0.59317 0.0
N1536 N 0.40751 0.49801 0.63061 0.0
N1537 N 0.45586 0.52805 0.60395 0.0
C1538 C 0.44681 0.53762 0.63919 0.0
C1539 C 0.42049 0.52116 0.65376 0.0
C1540 C 0.4613 0.88339 0.66853 0.0
C1541 C 0.47025 0.9092 0.6544 0.0
C1542 C 0.47865 0.87477 0.68199 0.0
C1543 C 0.50555 0.89174 0.68222 0.0
H1544 H 0.44078 0.86977 0.66871 0.0
H1545 H 0.47099 0.85491 0.6933 0.0
S1546 S 0.53884 0.96135 0.65088 0.0
N1547 N 0.50791 0.95164 0.64337 0.0
N1548 N 0.54011 0.93554 0.66811 0.0
C1549 C 0.5146 0.91751 0.66841 0.0
C1550 C 0.49711 0.92621 0.65467 0.0
C1551 C 0.29011 0.46808 0.26383 0.0
C1552 C 0.29844 0.4747 0.21474 0.0
C1553 C 0.26433 0.45955 0.2777 0.0
C1554 C 0.24556 0.45724 0.24323 0.0
H1555 H 0.30327 0.4682 0.29138 0.0
H1556 H 0.25891 0.45412 0.31573 0.0
S1557 S 0.25808 0.47456 0.11061 0.0
N1558 N 0.28631 0.48057 0.13239 0.0
N1559 N 0.238 0.46387 0.15783 0.0
C1560 C 0.25401 0.46506 0.19446 0.0
C1561 C 0.2803 0.47388 0.18045 0.0
C1562 C 0.54879 0.81141 0.23642 0.0
C1563 C 0.56679 0.83378 0.2109 0.0
C1564 C 0.55503 0.79255 0.25168 0.0
C1565 C 0.57931 0.79509 0.24134 0.0
H1566 H 0.52971 0.80836 0.24437 0.0
H1567 H 0.54082 0.77586 0.27188 0.0
S1568 S 0.63446 0.85107 0.1818 0.0
N1569 N 0.61114 0.85826 0.18106 0.0
N1570 N 0.62195 0.82234 0.20777 0.0
C1571 C 0.59755 0.81739 0.21686 0.0
C1572 C 0.59153 0.8368 0.20217 0.0
C1573 C 0.2265 0.78244 0.18997 0.0
C1574 C 0.24122 0.78858 0.23332 0.0
C1575 C 0.20864 0.7566 0.17767 0.0
C1576 C 0.2049 0.7357 0.2079 0.0
H1577 H 0.22796 0.7978 0.16662 0.0
H1578 H 0.19693 0.75314 0.14509 0.0
S1579 S 0.24176 0.74184 0.32222 0.0
N1580 N 0.25249 0.77192 0.30457 0.0
N1581 N 0.22014 0.72357 0.28079 0.0
C1582 C 0.22069 0.74178 0.2501 0.0
C1583 C 0.23848 0.76808 0.2629 0.0
C1584 C 0.22581 0.21334 0.26846 0.0
C1585 C 0.24861 0.22912 0.24128 0.0
C1586 C 0.21999 0.22078 0.31396 0.0
C1587 C 0.2365 0.24463 0.33711 0.0
H1588 H 0.21167 0.19466 0.25429 0.0
H1589 H 0.20193 0.20718 0.33129 0.0
S1590 S 0.29945 0.29394 0.28378 0.0
N1591 N 0.28834 0.27053 0.24249 0.0
N1592 N 0.27769 0.28423 0.32838 0.0
C1593 C 0.25981 0.26074 0.31124 0.0
C1594 C 0.26571 0.25316 0.26373 0.0
C1595 C 0.81201 0.01537 0.25147 0.0
C1596 C 0.7993 0.02816 0.23265 0.0
C1597 C 0.80514 1.00164 0.29656 0.0
C1598 C 0.78506 0.99959 0.32732 0.0
H1599 H 0.82788 0.01598 0.23108 0.0
H1600 H 0.81634 0.99281 0.30771 0.0
S1601 S 0.74441 0.02874 0.29623 0.0
N1602 N 0.76444 0.03696 0.24889 0.0
N1603 N 0.75184 1.01165 0.33381 0.0
C1604 C 0.77153 1.01175 0.30877 0.0
C1605 C 0.77849 0.02576 0.26184 0.0
C1606 C 0.02289 0.77385 0.25063 0.0
C1607 C 1.00312 0.77977 0.23975 0.0
C1608 C 0.03665 0.78075 0.29672 0.0
C1609 C 0.03146 0.79403 0.3344 0.0
H1610 H 0.02869 0.76497 0.22246 0.0
H1611 H 0.05227 0.77674 0.30179 0.0
S1612 S 0.97951 0.81105 0.32778 0.0
N1613 N 0.9779 0.79762 0.2739 0.0
N1614 N 1.00309 0.81034 0.35791 0.0
C1615 C 1.0109 0.79872 0.32451 0.0
C1616 C 0.99704 0.79173 0.27829 0.0
C1617 C 0.76168 0.77557 0.74671 0.0
C1618 C 0.78382 0.77584 0.72626 0.0
C1619 C 0.76063 0.78327 0.79615 0.0
C1620 C 0.78189 0.79233 0.82844 0.0
H1621 H 0.74487 0.76979 0.72376 0.0
H1622 H 0.74334 0.78321 0.80832 0.0
S1623 S 0.84404 0.79534 0.79672 0.0
N1624 N 0.82696 0.78444 0.74571 0.0
N1625 N 0.82549 0.79952 0.83641 0.0
C1626 C 0.80384 0.79195 0.80916 0.0
C1627 C 0.80469 0.78358 0.75916 0.0
C1628 C 0.23191 0.02966 0.77146 0.0
C1629 C 0.25041 0.02985 0.73856 0.0
C1630 C 0.22499 0.01579 0.81641 0.0
C1631 C 0.2361 1.00105 0.83282 0.0
H1632 H 0.22202 0.0401 0.76211 0.0
H1633 H 0.21037 0.01662 0.83865 0.0
S1634 S 0.28621 0.99479 0.76269 0.0
N1635 N 0.28023 0.01372 0.72726 0.0
N1636 N 0.26757 0.98816 0.81187 0.0
C1637 C 0.25531 1.00151 0.8014 0.0
C1638 C 0.2623 0.01564 0.75468 0.0
C1639 C 1.00383 0.24502 0.76969 0.0
C1640 C 1.00924 0.23161 0.73262 0.0
C1641 C 1.0172 0.25194 0.81621 0.0
C1642 C 0.0368 0.24593 0.82819 0.0
H1643 H 0.98835 0.24915 0.76378 0.0
H1644 H 1.01126 0.26098 0.84379 0.0
S1645 S 0.06085 0.21422 0.74209 0.0
N1646 N 0.03758 0.215 0.7109 0.0
N1647 N 0.0621 0.2278 0.79562 0.0
C1648 C 0.04309 0.2338 0.79025 0.0
C1649 C 0.0296 0.22677 0.74361 0.0
C1650 C 0.89264 0.54503 0.59591 0.0
C1651 C 0.91638 0.56052 0.57125 0.0
C1652 C 0.88612 0.55199 0.64126 0.0
C1653 C 0.90278 0.57502 0.66681 0.0
H1654 H 0.87833 0.52694 0.57987 0.0
H1655 H 0.8674 0.53859 0.65659 0.0
S1656 S 0.96785 0.62345 0.62013 0.0
N1657 N 0.95699 0.60093 0.57707 0.0
N1658 N 0.94498 0.61373 0.66254 0.0
C1659 C 0.92685 0.59098 0.64309 0.0
C1660 C 0.93349 0.5839 0.59576 0.0
C1661 C 0.44529 0.34222 0.59156 0.0
C1662 C 0.47023 0.36361 0.58173 0.0
C1663 C 0.43864 0.32882 0.63815 0.0
C1664 C 0.45657 0.33599 0.67755 0.0
H1665 H 0.43111 0.33495 0.56239 0.0
H1666 H 0.4197 0.312 0.64238 0.0
S1667 S 0.5232 0.39239 0.67413 0.0
N1668 N 0.5118 0.3923 0.61878 0.0
N1669 N 0.49973 0.36768 0.70354 0.0
C1670 C 0.48096 0.35801 0.66862 0.0
C1671 C 0.48762 0.37155 0.6219 0.0
C1672 C 0.70029 0.13942 0.61578 0.0
C1673 C 0.70055 0.12436 0.65615 0.0
C1674 C 0.68727 0.12847 0.57048 0.0
C1675 C 0.67316 0.10154 0.56224 0.0
H1676 H 0.71024 0.16021 0.61918 0.0
H1677 H 0.68811 0.14142 0.54178 0.0
S1678 S 0.6669 0.05274 0.65551 0.0
N1679 N 0.68497 0.0805 0.68365 0.0
N1680 N 0.66067 0.06002 0.60039 0.0
C1681 C 0.67336 0.08618 0.60231 0.0
C1682 C 0.68687 0.09743 0.64832 0.0
C1683 C 0.42724 0.11662 0.12649 0.0
C1684 C 0.44703 0.12236 0.16092 0.0
C1685 C 0.42904 0.11027 0.07653 0.0
C1686 C 0.4504 0.10855 0.0577 0.0
H1687 H 0.41078 0.11841 0.13742 0.0
H1688 H 0.41363 0.10741 0.05185 0.0
S1689 S 0.50679 0.1198 0.13333 0.0
N1690 N 0.48848 0.12475 0.17238 0.0
N1691 N 0.49125 0.11206 0.08022 0.0
C1692 C 0.46971 0.11299 0.09248 0.0
C1693 C 0.46818 0.12007 0.14316 0.0
C1694 C 0.90071 0.35993 0.09971 0.0
C1695 C 0.91954 0.36006 0.06784 0.0
C1696 C 0.89307 0.34597 0.14458 0.0
C1697 C 0.90381 0.3311 0.16238 0.0
H1698 H 0.89132 0.3708 0.08987 0.0
H1699 H 0.87848 0.34726 0.16602 0.0
S1700 S 0.9542 0.32413 0.09458 0.0
N1701 N 0.9488 0.34315 0.05822 0.0
N1702 N 0.93497 0.31753 0.14285 0.0
C1703 C 0.92289 0.33093 0.1313 0.0
C1704 C 0.93047 0.34503 0.08438 0.0
C1705 C 0.68966 0.59225 0.08747 0.0
C1706 C 0.67026 0.56606 0.08286 0.0
C1707 C 0.70341 0.60275 0.13252 0.0
C1708 C 0.69872 0.58793 0.17643 0.0
H1709 H 0.69487 0.6047 0.0555 0.0
H1710 H 0.71823 0.62287 0.13257 0.0
S1711 S 0.64819 0.51883 0.18654 0.0
N1712 N 0.64631 0.52595 0.12848 0.0
N1713 N 0.67128 0.54554 0.21152 0.0
C1714 C 0.67877 0.56195 0.1726 0.0
C1715 C 0.66495 0.55118 0.12669 0.0
C1716 C 0.55185 0.88656 0.97073 0.0
C1717 C 0.56905 0.90989 0.99486 0.0
C1718 C 0.55744 0.87901 0.9251 0.0
C1719 C 0.58068 0.89416 0.8987 0.0
H1720 H 0.53343 0.87341 0.98743 0.0
H1721 H 0.54279 0.86075 0.91022 0.0
S1722 S 0.63333 0.95746 0.94373 0.0
N1723 N 0.6113 0.94833 0.9877 0.0
N1724 N 0.62153 0.93448 0.90157 0.0
C1725 C 0.59839 0.91774 0.92194 0.0
C1726 C 0.59273 0.92541 0.9696 0.0
C1727 C 0.12019 0.68682 0.99329 0.0
C1728 C 0.11446 0.6608 0.99741 0.0
C1729 C 0.12711 0.70055 0.94711 0.0
C1730 C 0.12843 0.68901 0.90224 0.0
H1731 H 0.12058 0.69712 1.02632 0.0
H1732 H 0.13262 0.72074 0.94708 0.0
S1733 S 0.11362 0.62099 0.89124 0.0
N1734 N 0.10907 0.62399 0.9502 0.0
N1735 N 0.12257 0.6494 0.8665 0.0
C1736 C 0.12197 0.6629 0.90608 0.0
C1737 C 0.11481 0.649 0.9524 0.0
C1738 C 0.35337 0.47589 0.99019 0.0
C1739 C 0.36722 0.4641 1.0083 0.0
C1740 C 0.33978 0.46905 0.94496 0.0
C1741 C 0.33889 0.44989 0.91306 0.0
H1742 H 0.35292 0.49098 1.01138 0.0
H1743 H 0.33003 0.47951 0.93473 0.0
S1744 S 0.37115 0.4118 0.94164 0.0
N1745 N 0.37834 0.43107 0.98985 0.0
N1746 N 0.35334 0.41858 0.90467 0.0
C1747 C 0.35228 0.43738 0.93065 0.0
C1748 C 0.36612 0.44428 0.97782 0.0
C1749 C 0.15793 0.4693 0.43416 0.0
C1750 C 0.13942 0.45013 0.4027 0.0
C1751 C 0.1516 0.47604 0.47999 0.0
C1752 C 0.12618 0.46408 0.49916 0.0
H1753 H 0.17801 0.47985 0.42313 0.0
H1754 H 0.16728 0.49114 0.50082 0.0
S1755 S 0.06947 0.41182 0.43386 0.0
N1756 N 0.09369 0.41874 0.39575 0.0
N1757 N 0.08196 0.431 0.48205 0.0
C1758 C 0.10722 0.4443 0.46905 0.0
C1759 C 0.11372 0.43753 0.42127 0.0
C1760 C 0.61496 0.70648 0.44446 0.0
C1761 C 0.59391 0.69426 0.41165 0.0
C1762 C 0.6136 0.69778 0.49411 0.0
C1763 C 0.59139 0.67593 0.51416 0.0
H1764 H 0.6323 0.72362 0.43247 0.0
H1765 H 0.63019 0.70878 0.51753 0.0
S1766 S 0.53146 0.63552 0.44314 0.0
N1767 N 0.55032 0.65793 0.40328 0.0
N1768 N 0.54825 0.64177 0.49458 0.0
C1769 C 0.5707 0.66291 0.48102 0.0
C1770 C 0.57185 0.67199 0.43079 0.0
C1771 C 0.36083 0.88597 0.46739 0.0
C1772 C 0.3661 0.90842 0.49394 0.0
C1773 C 0.34814 0.87946 0.42132 0.0
C1774 C 0.33972 0.8949 0.397 0.0
H1775 H 0.36643 0.87272 0.48246 0.0
H1776 H 0.34512 0.86179 0.40443 0.0
S1777 S 0.34837 0.95634 0.44868 0.0
N1778 N 0.36132 0.94646 0.49122 0.0
N1779 N 0.33805 0.93455 0.40428 0.0
C1780 C 0.34488 0.91769 0.42256 0.0
C1781 C 0.35773 0.92427 0.47064 0.0
C1782 C 0.32613 0.23684 0.94146 0.0
C1783 C 0.32963 0.23844 0.99335 0.0
C1784 C 0.34727 0.24745 0.90732 0.0
C1785 C 0.37348 0.26045 0.92254 0.0
H1786 H 0.30673 0.2277 0.92679 0.0
H1787 H 0.34292 0.24587 0.86836 0.0
S1788 S 0.39405 0.27009 0.05396 0.0
N1789 N 0.36224 0.25424 0.05743 0.0
N1790 N 0.40114 0.27374 0.99467 0.0
C1791 C 0.37722 0.26183 0.97432 0.0
C1792 C 0.35573 0.25105 1.00901 0.0
C1793 C 0.76522 0.12065 0.96126 0.0
C1794 C 0.76875 0.12001 0.90968 0.0
C1795 C 0.77494 0.10965 0.99618 0.0
C1796 C 0.78893 0.09726 0.98205 0.0
H1797 H 0.75427 0.12928 0.97502 0.0
H1798 H 0.77097 0.11051 0.03483 0.0
S1799 S 0.80442 0.09053 0.85196 0.0
N1800 N 0.78806 0.10596 0.84709 0.0
N1801 N 0.80605 0.08577 0.91144 0.0
C1802 C 0.793 0.09691 0.93066 0.0
C1803 C 0.78307 0.10806 0.89513 0.0
C1804 C 0.92528 0.67465 1.00192 0.0
C1805 C 0.93814 0.70089 0.98699 0.0
C1806 C 0.91531 0.65372 0.96755 0.0
C1807 C 0.9175 0.65749 0.91572 0.0
H1808 H 0.92327 0.67011 0.04084 0.0
H1809 H 0.90616 0.63427 0.98203 0.0
S1810 S 0.94881 0.72211 0.85584 0.0
N1811 N 0.95181 0.7289 0.91522 0.0
N1812 N 0.93348 0.69035 0.85198 0.0
C1813 C 0.92996 0.68362 0.90032 0.0
C1814 C 0.94008 0.7049 0.93526 0.0
C1815 C 0.26206 0.34429 0.67338 0.0
C1816 C 0.27487 0.37063 0.65905 0.0
C1817 C 0.2518 0.32354 0.63855 0.0
C1818 C 0.25373 0.32755 0.58675 0.0
H1819 H 0.26016 0.33953 0.7122 0.0
H1820 H 0.24262 0.30401 0.65263 0.0
S1821 S 0.28506 0.39251 0.52827 0.0
N1822 N 0.28832 0.39899 0.58778 0.0
N1823 N 0.26962 0.36077 0.52375 0.0
C1824 C 0.26628 0.35377 0.57195 0.0
C1825 C 0.27659 0.37489 0.60737 0.0
C1826 C 0.67779 0.9165 0.56248 0.0
C1827 C 0.70404 0.92964 0.57727 0.0
C1828 C 0.65689 0.90514 0.59696 0.0
C1829 C 0.66074 0.9061 0.64868 0.0
H1830 H 0.67321 0.91538 0.52368 0.0
H1831 H 0.63739 0.89595 0.58273 0.0
S1832 S 0.72545 0.93746 0.70801 0.0
N1833 N 0.73219 0.94215 0.64864 0.0
N1834 N 0.69366 0.92123 0.71212 0.0
C1835 C 0.68689 0.91877 0.66387 0.0
C1836 C 0.70815 0.93032 0.62883 0.0
C1837 C 0.11232 0.77685 0.66687 0.0
C1838 C 0.12555 0.76368 0.6527 0.0
C1839 C 0.10258 0.78785 0.63192 0.0
C1840 C 0.10529 0.78645 0.58021 0.0
H1841 H 0.10897 0.77833 0.70561 0.0
H1842 H 0.09226 0.79713 0.6458 0.0
S1843 S 0.13847 0.75445 0.52222 0.0
N1844 N 0.14088 0.75045 0.58177 0.0
N1845 N 0.12284 0.77062 0.51746 0.0
C1846 C 0.11878 0.77364 0.5656 0.0
C1847 C 0.12875 0.7625 0.60114 0.0
C1848 C 0.66469 0.76618 0.10854 0.0
C1849 C 0.66927 0.76881 0.16013 0.0
C1850 C 0.68505 0.7768 0.07275 0.0
C1851 C 0.71156 0.79082 0.08577 0.0
H1852 H 0.64503 0.75524 0.09536 0.0
H1853 H 0.67983 0.77339 1.03421 0.0
S1854 S 0.73491 0.80412 0.2154 0.0
N1855 N 0.70322 0.78738 0.2215 0.0
N1856 N 0.74073 0.80688 0.15559 0.0
C1857 C 0.7164 0.79397 0.13721 0.0
C1858 C 0.69566 0.7832 0.17366 0.0
C1859 C 0.2492 0.93286 0.12872 0.0
C1860 C 0.25077 0.93109 0.07683 0.0
C1861 C 0.26003 0.92243 0.16244 0.0
C1862 C 0.27314 0.90939 0.14674 0.0
H1863 H 0.2399 0.94293 0.14373 0.0
H1864 H 0.25843 0.92504 0.20147 0.0
S1865 S 0.28243 0.89853 1.01509 0.0
N1866 N 0.26648 0.91445 1.01212 0.0
N1867 N 0.28636 0.89512 0.07427 0.0
C1868 C 0.27445 0.9071 0.09496 0.0
C1869 C 0.26349 0.91777 0.06065 0.0
C1870 C 0.10878 0.34417 0.16526 0.0
C1871 C 0.12347 0.37033 0.15021 0.0
C1872 C 0.09806 0.32314 0.13107 0.0
C1873 C 0.10115 0.32669 0.07925 0.0
H1874 H 0.10511 0.33977 0.20411 0.0
H1875 H 0.08675 0.3038 0.14565 0.0
S1876 S 0.1381 0.39101 1.01909 0.0
N1877 N 0.14057 0.39801 0.07834 0.0
N1878 N 0.12074 0.35928 1.01542 0.0
C1879 C 0.11605 0.35272 0.06375 0.0
C1880 C 0.12702 0.37412 0.09854 0.0
C1881 C 0.7811 0.67773 0.50216 0.0
C1882 C 0.79273 0.70357 0.48515 0.0
C1883 C 0.76983 0.65599 0.46961 0.0
C1884 C 0.76915 0.65838 0.41756 0.0
H1885 H 0.78026 0.67412 0.54137 0.0
H1886 H 0.76104 0.63693 0.48583 0.0
S1887 S 0.79676 0.7214 0.35248 0.0
N1888 N 0.80272 0.72969 0.41104 0.0
N1889 N 0.78174 0.68959 0.35131 0.0
C1890 C 0.78089 0.68409 0.40002 0.0
C1891 C 0.7925 0.70625 0.43311 0.0
C1892 C 0.35608 0.10885 0.5 0.0
C1893 C 0.32972 0.09645 0.48604 0.0
C1894 C 0.37671 0.11897 0.46484 0.0
C1895 C 0.37247 0.11738 0.41318 0.0
H1896 H 0.36095 0.11035 0.5387 0.0
H1897 H 0.39629 0.1277 0.47852 0.0
S1898 S 0.30734 0.08751 0.35581 0.0
N1899 N 0.30106 0.08393 0.41542 0.0
N1900 N 0.33908 0.10252 0.35072 0.0
C1901 C 0.34623 0.10542 0.39879 0.0
C1902 C 0.32524 0.09517 0.43453 0.0
C1903 C 0.91426 0.26254 0.4618 0.0
C1904 C 0.91558 0.25976 0.4101 0.0
C1905 C 0.92474 0.25229 0.49675 0.0
C1906 C 0.93732 0.23849 0.48262 0.0
H1907 H 0.90545 0.27329 0.47571 0.0
H1908 H 0.92337 0.25575 0.53546 0.0
S1909 S 0.94583 0.22489 0.3522 0.0
N1910 N 0.93046 0.24133 0.34737 0.0
N1911 N 0.94978 0.22241 0.41175 0.0
C1912 C 0.93838 0.23518 0.43107 0.0
C1913 C 0.92771 0.24562 0.39549 0.0
C1914 C 1.01632 0.58592 0.23699 0.0
C1915 C 0.04252 0.59801 0.25202 0.0
C1916 C 0.99524 0.57437 0.27116 0.0
C1917 C 0.99884 0.57422 0.32286 0.0
H1918 H 1.01193 0.5856 0.19824 0.0
H1919 H 0.97582 0.5659 0.25675 0.0
S1920 S 0.06329 0.6032 0.38285 0.0
N1921 N 0.07029 0.60867 0.32368 0.0
N1922 N 0.03148 0.58762 0.38653 0.0
C1923 C 0.02492 0.58609 0.33829 0.0
C1924 C 0.04634 0.59769 0.30355 0.0
C1925 C 0.44929 0.43862 0.24369 0.0
C1926 C 0.43675 0.45238 0.25836 0.0
C1927 C 0.45888 0.42735 0.27824 0.0
C1928 C 0.4566 0.4289 0.33004 0.0
H1929 H 0.45134 0.43605 0.20482 0.0
H1930 H 0.4678 0.41678 0.26389 0.0
S1931 S 0.42591 0.463 0.38933 0.0
N1932 N 0.42319 0.46701 0.32989 0.0
N1933 N 0.44083 0.44611 0.39351 0.0
C1934 C 0.44444 0.44291 0.34524 0.0
C1935 C 0.43471 0.45446 0.31007 0.0
C1936 C 0.59659 1.00997 0.33151 0.0
C1937 C 0.60688 0.03596 0.31619 0.0
C1938 C 0.58679 0.98885 0.29742 0.0
C1939 C 0.58681 0.99223 0.24555 0.0
H1940 H 0.59636 1.00581 0.37037 0.0
H1941 H 0.57956 0.96962 0.31206 0.0
S1942 S 0.61113 0.05601 0.18484 0.0
N1943 N 0.61577 0.0632 0.24398 0.0
N1944 N 0.59806 0.0244 0.18153 0.0
C1945 C 0.59684 0.01807 0.22989 0.0
C1946 C 0.60659 0.03949 0.26446 0.0
C1947 C 0.4541 0.03606 0.76462 0.0
C1948 C 0.45207 0.03249 0.81651 0.0
C1949 C 0.44327 0.01504 0.73049 0.0
C1950 C 0.42978 0.98886 0.74571 0.0
H1951 H 0.46384 0.05547 0.74989 0.0
H1952 H 0.44532 0.01947 0.69152 0.0
S1953 S 0.41888 0.96809 0.87714 0.0
N1954 N 0.43522 0.99986 0.88065 0.0
N1955 N 0.41548 0.96108 0.81784 0.0
C1956 C 0.42792 0.98501 0.79751 0.0
C1957 C 0.43879 1.00642 0.83223 0.0
C1958 C 0.99701 0.42752 0.76809 0.0
C1959 C 1.0004 0.42729 0.81985 0.0
C1960 C 1.01816 0.43861 0.73406 0.0
C1961 C 0.04433 0.45055 0.74926 0.0
H1962 H 0.97764 0.41851 0.7533 0.0
H1963 H 1.01384 0.43749 0.69514 0.0
S1964 S 0.06465 0.45592 0.88045 0.0
N1965 N 0.03284 0.44066 0.88389 0.0
N1966 N 0.07187 0.4614 0.82133 0.0
C1967 C 0.048 0.4508 0.80099 0.0
C1968 C 0.02644 0.43932 0.83559 0.0
C1969 C 0.59676 0.58177 0.74103 0.0
C1970 C 0.58264 0.59398 0.75564 0.0
C1971 C 0.60732 0.57138 0.77569 0.0
C1972 C 0.60464 0.57255 0.82751 0.0
H1973 H 0.60014 0.58057 0.7022 0.0
H1974 H 0.61822 0.56278 0.76152 0.0
S1975 S 0.56945 0.6022 0.88657 0.0
N1976 N 0.56663 0.60608 0.82714 0.0
N1977 N 0.58619 0.58714 0.89075 0.0
C1978 C 0.59035 0.58446 0.8425 0.0
C1979 C 0.57954 0.59492 0.80732 0.0
C1980 C 0.3095 0.35748 0.13892 0.0
C1981 C 0.33534 0.36857 0.1535 0.0
C1982 C 0.29847 0.33551 0.10947 0.0
C1983 C 0.31311 0.3243 0.09468 0.0
H1984 H 0.29816 0.3663 0.14922 0.0
H1985 H 0.27834 0.32683 0.09923 0.0
S1986 S 0.38129 0.34613 0.12405 0.0
N1987 N 0.37519 0.36714 0.15155 0.0
N1988 N 0.35415 0.32529 0.09659 0.0
C1989 C 0.33883 0.33515 0.10936 0.0
C1990 C 0.35005 0.3575 0.13884 0.0
C1991 C 0.665 0.94851 0.08278 0.0
C1992 C 0.6635 0.94716 0.13455 0.0
C1993 C 0.68879 0.96149 0.05901 0.0
C1994 C 0.71163 0.97294 0.08643 0.0
H1995 H 0.64772 0.94128 0.06067 0.0
H1996 H 0.68921 0.96458 1.01965 0.0
S1997 S 0.7184 0.96674 0.22051 0.0
N1998 N 0.68702 0.95313 0.21125 0.0
N1999 N 0.73182 0.97601 0.16566 0.0
C2000 C 0.71049 0.96793 0.13712 0.0
C2001 C 0.6863 0.95528 0.16155 0.0
C2002 C 0.0878 0.73247 0.13164 0.0
C2003 C 0.0759 0.7118 0.16465 0.0
C2004 C 0.073 0.73989 0.10371 0.0
C2005 C 0.04596 0.72635 0.10755 0.0
H2006 H 0.1085 0.74221 0.12631 0.0
H2007 H 0.08267 0.75614 0.07887 0.0
S2008 S 1.00605 0.66934 0.18625 0.0
N2009 N 0.03615 0.67747 0.19904 0.0
N2010 N 1.00795 0.69051 0.145 0.0
C2011 C 0.03396 0.70554 0.14049 0.0
C2012 C 0.04907 0.6985 0.16957 0.0
C2013 C 0.35095 0.29644 0.51354 0.0
C2014 C 0.3288 0.27968 0.48722 0.0
C2015 C 0.37467 0.30948 0.48985 0.0
C2016 C 0.37695 0.30588 0.43916 0.0
H2017 H 0.34951 0.30153 0.5512 0.0
H2018 H 0.3906 0.32417 0.51068 0.0
S2019 S 0.3254 0.25774 0.35873 0.0
N2020 N 0.31085 0.25582 0.4116 0.0
N2021 N 0.35601 0.27975 0.3668 0.0
C2022 C 0.35543 0.28644 0.41436 0.0
C2023 C 0.33116 0.27342 0.43852 0.0
C2024 C 0.7167 0.03349 0.42189 0.0
C2025 C 0.73477 0.04415 0.46027 0.0
C2026 C 0.71041 0.04878 0.39335 0.0
C2027 C 0.72147 0.07513 0.40297 0.0
H2028 H 0.70668 0.01299 0.41464 0.0
H2029 H 0.69544 0.03965 0.3658 0.0
S2030 S 0.7708 0.11307 0.49645 0.0
N2031 N 0.76524 0.0833 0.50366 0.0
N2032 N 0.75163 0.11181 0.45141 0.0
C2033 C 0.73989 0.08632 0.44023 0.0
C2034 C 0.7469 0.07086 0.46878 0.0
C2035 C 0.96562 0.66826 0.43927 0.0
C2036 C 0.98007 0.65698 0.42372 0.0
C2037 C 0.97702 0.69034 0.46835 0.0
C2038 C 1.00302 0.70143 0.48181 0.0
H2039 H 0.94537 0.65951 0.42998 0.0
H2040 H 0.96583 0.69923 0.47923 0.0
S2041 S 0.0486 0.67889 0.44987 0.0
N2042 N 0.02114 0.65796 0.42352 0.0
N2043 N 0.04284 0.7 0.47791 0.0
C2044 C 1.01756 0.69031 0.46634 0.0
C2045 C 1.00598 0.66788 0.43716 0.0
C2046 C 0.74173 0.69202 0.96839 0.0
C2047 C 0.72634 0.70312 0.97805 0.0
C2048 C 0.732 0.66952 0.94069 0.0
C2049 C 0.70671 0.65778 0.92275 0.0
H2050 H 0.7614 0.70103 0.98171 0.0
H2051 H 0.74379 0.66069 0.93474 0.0
S2052 S 0.65919 0.67964 0.93785 0.0
N2053 N 0.68518 0.70134 0.96727 0.0
N2054 N 0.66664 0.65849 0.91554 0.0
C2055 C 0.69133 0.66884 0.93177 0.0
C2056 C 0.70123 0.69173 0.9595 0.0
C2057 C 0.37425 0.06755 0.97121 0.0
C2058 C 0.37529 0.0697 0.9195 0.0
C2059 C 0.3509 0.05735 0.9962 0.0
C2060 C 0.32798 0.04912 0.97017 0.0
H2061 H 0.39142 0.07279 0.9925 0.0
H2062 H 0.35054 0.05412 0.03551 0.0
S2063 S 0.32066 0.05569 0.8364 0.0
N2064 N 0.35169 0.06599 0.84403 0.0
N2065 N 0.30771 0.04784 0.89189 0.0
C2066 C 0.32895 0.05367 0.91931 0.0
C2067 C 0.35268 0.06373 0.89364 0.0
C2068 C 0.99683 0.30844 0.91629 0.0
C2069 C 0.98666 0.29255 0.95809 0.0
C2070 C 0.98193 0.31554 0.88858 0.0
C2071 C 0.95656 0.30768 0.90244 0.0
H2072 H 1.01687 0.31658 0.90594 0.0
H2073 H 0.99098 0.32911 0.85863 0.0
S2074 S 0.91961 0.26417 1.005 0.0
N2075 N 0.94844 0.26686 1.00859 0.0
N2076 N 0.92094 0.2822 0.95772 0.0
C2077 C 0.94562 0.29104 0.94262 0.0
C2078 C 0.9606 0.28311 0.97038 0.0
C2079 C 0.69771 0.72927 0.60957 0.0
C2080 C 0.7081 0.71445 0.59145 0.0
C2081 C 0.67736 0.7187 0.64298 0.0
C2082 C 0.66697 0.69309 0.65854 0.0
H2083 H 0.70573 0.74921 0.59852 0.0
H2084 H 0.66897 0.73014 0.65516 0.0
S2085 S 0.68802 0.64689 0.62245 0.0
N2086 N 0.70748 0.67362 0.59209 0.0
N2087 N 0.66836 0.6533 0.65444 0.0
C2088 C 0.6774 0.67824 0.64112 0.0
C2089 C 0.69824 0.68907 0.60754 0.0
C2090 C 0.32424 0.97847 0.66268 0.0
C2091 C 0.31508 0.95291 0.64907 0.0
C2092 C 0.31648 0.99352 0.63721 0.0
C2093 C 0.29875 0.98323 0.59809 0.0
H2094 H 0.33883 0.98726 0.69101 0.0
H2095 H 0.32522 0.01362 0.64732 0.0
S2096 S 0.26771 0.91598 0.55207 0.0
N2097 N 0.28734 0.91723 0.59615 0.0
N2098 N 0.27076 0.94497 0.54978 0.0
C2099 C 0.28853 0.95712 0.58572 0.0
C2100 C 0.29712 0.94202 0.61106 0.0
C2101 C 0.03007 0.33481 0.60539 0.0
C2102 C 0.04431 0.32366 0.58792 0.0
C2103 C 0.04197 0.3573 0.63283 0.0
C2104 C 0.06825 0.36888 0.644 0.0
H2105 H 1.00961 0.32591 0.59782 0.0
H2106 H 0.03076 0.36595 0.64506 0.0
S2107 S 0.11375 0.34702 0.60709 0.0
N2108 N 0.08572 0.32533 0.58367 0.0
N2109 N 0.10838 0.36827 0.63573 0.0
C2110 C 0.08273 0.35794 0.62709 0.0
C2111 C 0.07065 0.33511 0.59861 0.0
C2112 C 0.02144 0.63066 0.73049 0.0
C2113 C 0.04441 0.64248 0.75743 0.0
C2114 C 0.9978 0.6179 0.75478 0.0
C2115 C 0.99657 0.61713 0.80659 0.0
H2116 H 0.02168 0.63307 0.69093 0.0
H2117 H 0.98037 0.61011 0.73298 0.0
S2118 S 0.0519 0.63869 0.89213 0.0
N2119 N 0.06502 0.64701 0.83687 0.0
N2120 N 0.02046 0.62472 0.88324 0.0
C2121 C 1.01952 0.62599 0.8334 0.0
C2122 C 0.04356 0.63838 0.80849 0.0
C2123 C 0.38533 0.36328 0.77209 0.0
C2124 C 0.40208 0.37318 0.81271 0.0
C2125 C 0.37856 0.37871 0.74523 0.0
C2126 C 0.38777 0.40427 0.75891 0.0
H2127 H 0.37669 0.34321 0.76178 0.0
H2128 H 0.3646 0.37022 0.71577 0.0
S2129 S 0.43268 0.44018 0.85992 0.0
N2130 N 0.42913 0.41099 0.86288 0.0
N2131 N 0.4144 0.43948 0.8137 0.0
C2132 C 0.40473 0.41474 0.79852 0.0
C2133 C 0.41229 0.39925 0.82536 0.0
C2134 C 0.67776 0.02283 0.79536 0.0
C2135 C 0.66387 0.03517 0.80751 0.0
C2136 C 0.6662 1.00021 0.76827 0.0
C2137 C 0.64071 0.98982 0.75201 0.0
H2138 H 0.69766 0.0309 0.80681 0.0
H2139 H 0.67705 0.99059 0.76009 0.0
S2140 S 0.59679 0.01569 0.77306 0.0
N2141 N 0.62394 0.03629 0.80082 0.0
N2142 N 0.6019 0.99321 0.74922 0.0
C2143 C 0.62673 1.00218 0.76328 0.0
C2144 C 0.63842 0.02506 0.79149 0.0
C2145 C 0.40158 0.01416 0.33268 0.0
C2146 C 0.41257 0.03716 0.30577 0.0
C2147 C 0.39078 0.9906 0.30842 0.0
C2148 C 0.39027 0.98947 0.25662 0.0
H2149 H 0.39954 0.0143 0.37229 0.0
H2150 H 0.38135 0.97316 0.3303 0.0
S2151 S 0.42317 0.04492 0.17086 0.0
N2152 N 0.42814 0.05792 0.22617 0.0
N2153 N 0.40596 0.01348 0.17982 0.0
C2154 C 0.40398 1.01245 0.22971 0.0
C2155 C 0.41556 0.03643 0.2546 0.0
C2156 C 0.02736 0.38134 0.22693 0.0
C2157 C 0.04442 0.40603 0.24421 0.0
C2158 C 1.00475 0.36558 0.25236 0.0
C2159 C 0.99826 0.37433 0.29522 0.0
H2160 H 0.03262 0.37352 0.19591 0.0
H2161 H 0.99296 0.346 0.23949 0.0
S2162 S 0.03578 0.43945 0.35043 0.0
N2163 N 0.05349 0.43964 0.30354 0.0
N2164 N 1.00958 0.41068 0.35017 0.0
C2165 C 1.01454 0.39983 0.31082 0.0
C2166 C 0.03798 0.4156 0.28539 0.0
C2167 C 0.66361 0.66758 0.31319 0.0
C2168 C 0.64587 0.65752 0.27425 0.0
C2169 C 0.66886 0.65161 0.34208 0.0
C2170 C 0.65682 0.62516 0.33241 0.0
H2171 H 0.67388 0.68806 0.32079 0.0
H2172 H 0.68353 0.66016 0.37031 0.0
S2173 S 0.60804 0.58886 0.23705 0.0
N2174 N 0.61494 0.61905 0.2297 0.0
N2175 N 0.62627 0.58917 0.28303 0.0
C2176 C 0.63882 0.61466 0.29435 0.0
C2177 C 0.63304 0.63084 0.26528 0.0
loop_
_geom_bond_atom_site_label_1
_geom_bond_atom_site_label_2
_geom_bond_distance
_geom_bond_site_symmetry_2
_ccdc_geom_bond_type
Co0 N4 2.148 . S
Co0 N10 2.128 . S
Co0 N20 2.194 . S
Co0 O25 2.351 1_554 S
Co0 O26 2.155 . S
Co0 O27 2.096 . S
C1 N4 1.301 . S
C1 N5 1.328 . S
C1 H6 0.930 1_554 S
C2 C3 1.333 . S
C2 N4 1.317 . S
C2 H7 0.930 . S
C3 C2 1.333 . S
C3 N5 1.350 . S
C3 H29 0.931 . S
N4 Co0 2.148 . S
N4 C1 1.301 . S
N4 C2 1.317 . S
N5 C1 1.328 . S
N5 C3 1.350 . S
H6 C1 0.930 1_556 S
H7 C2 0.930 . S
C8 O9 1.224 . S
C8 O27 1.247 . S
O9 C8 1.224 . S
N10 Co0 2.128 . S
N10 C11 1.355 . S
N10 C13 1.311 . S
C11 N10 1.355 . S
C11 C12 1.363 . S
C11 H23 0.929 1_554 S
C12 C11 1.363 . S
C12 N14 1.375 . S
C12 H30 0.931 . S
C13 N10 1.311 . S
C13 N14 1.347 . S
C13 H24 0.929 . S
N14 C12 1.375 . S
N14 C13 1.347 . S
C15 C18 1.365 . S
C15 N20 1.328 1_556 S
C15 H21 0.929 . S
C16 C17 1.362 1_554 S
C16 C19 1.378 . S
C16 H31 0.929 . S
C17 C16 1.362 1_556 S
C17 C18 1.366 . S
C18 C15 1.365 . S
C18 C17 1.366 . S
C18 H32 0.930 . S
C19 C16 1.378 . S
C19 N20 1.315 . S
C19 H22 0.930 . S
N20 Co0 2.194 . S
N20 C15 1.328 1_554 S
N20 C19 1.315 . S
H21 C15 0.929 . S
H22 C19 0.930 . S
H23 C11 0.929 1_556 S
H24 C13 0.929 . S
O25 Co0 2.351 1_556 S
O25 C28 1.244 . S
O26 Co0 2.155 . S
O26 C28 1.240 1_554 S
O27 Co0 2.096 . S
O27 C8 1.247 . S
C28 O25 1.244 . S
C28 O26 1.240 1_556 S
H29 C3 0.931 . S
H30 C12 0.931 . S
H31 C16 0.929 . S
H32 C18 0.930 . S
Co33 N37 2.148 . S
Co33 N43 2.128 1_545 S
Co33 N53 2.194 1_545 S
Co33 O58 2.351 1_554 S
Co33 O59 2.155 . S
Co33 O60 2.096 . S
C34 N37 1.301 . S
C34 N38 1.328 . S
C34 H39 0.930 1_554 S
C35 C36 1.333 . S
C35 N37 1.317 . S
C35 H40 0.930 . S
C36 C35 1.333 . S
C36 N38 1.350 . S
C36 H62 0.931 . S
N37 Co33 2.148 . S
N37 C34 1.301 . S
N37 C35 1.317 . S
N38 C34 1.328 . S
N38 C36 1.350 . S
H39 C34 0.930 1_556 S
H40 C35 0.930 . S
C41 O42 1.224 . S
C41 O60 1.247 . S
O42 C41 1.224 . S
N43 Co33 2.128 1_565 S
N43 C44 1.355 . S
N43 C46 1.311 . S
C44 N43 1.355 . S
C44 C45 1.363 . S
C44 H56 0.929 1_554 S
C45 C44 1.363 . S
C45 N47 1.375 . S
C45 H63 0.931 . S
C46 N43 1.311 . S
C46 N47 1.347 . S
C46 H57 0.929 . S
N47 C45 1.375 . S
N47 C46 1.347 . S
C48 C51 1.365 . S
C48 N53 1.328 1_556 S
C48 H54 0.929 1_565 S
C49 C50 1.362 1_554 S
C49 C52 1.378 . S
C49 H64 0.929 . S
C50 C49 1.362 1_556 S
C50 C51 1.366 . S
C51 C48 1.365 . S
C51 C50 1.366 . S
C51 H65 0.930 . S
C52 C49 1.378 . S
C52 N53 1.315 . S
C52 H55 0.930 . S
N53 Co33 2.194 1_565 S
N53 C48 1.328 1_554 S
N53 C52 1.315 . S
H54 C48 0.929 1_545 S
H55 C52 0.930 . S
H56 C44 0.929 1_556 S
H57 C46 0.929 . S
O58 Co33 2.351 1_556 S
O58 C61 1.244 . S
O59 Co33 2.155 . S
O59 C61 1.240 1_554 S
O60 Co33 2.096 . S
O60 C41 1.247 . S
C61 O58 1.244 . S
C61 O59 1.240 1_556 S
H62 C36 0.931 . S
H63 C45 0.931 . S
H64 C49 0.929 . S
H65 C51 0.930 . S
Co66 N70 2.148 . S
Co66 N76 2.128 1_655 S
Co66 N86 2.194 1_655 S
Co66 O91 2.351 1_554 S
Co66 O92 2.155 . S
Co66 O93 2.096 . S
C67 N70 1.301 . S
C67 N71 1.328 . S
C67 H72 0.930 1_554 S
C68 C69 1.333 . S
C68 N70 1.317 . S
C68 H73 0.930 . S
C69 C68 1.333 . S
C69 N71 1.350 . S
C69 H95 0.931 . S
N70 Co66 2.148 . S
N70 C67 1.301 . S
N70 C68 1.317 . S
N71 C67 1.328 . S
N71 C69 1.350 . S
H72 C67 0.930 1_556 S
H73 C68 0.930 . S
C74 O75 1.224 . S
C74 O93 1.247 . S
O75 C74 1.224 . S
N76 Co66 2.128 1_455 S
N76 C77 1.355 . S
N76 C79 1.311 . S
C77 N76 1.355 . S
C77 C78 1.363 . S
C77 H89 0.929 1_554 S
C78 C77 1.363 . S
C78 N80 1.375 . S
C78 H96 0.931 . S
C79 N76 1.311 . S
C79 N80 1.347 . S
C79 H90 0.929 . S
N80 C78 1.375 . S
N80 C79 1.347 . S
C81 C84 1.365 . S
C81 N86 1.328 1_556 S
C81 H87 0.929 1_455 S
C82 C83 1.362 1_554 S
C82 C85 1.378 . S
C82 H97 0.929 . S
C83 C82 1.362 1_556 S
C83 C84 1.366 . S
C84 C81 1.365 . S
C84 C83 1.366 . S
C84 H98 0.930 . S
C85 C82 1.378 . S
C85 N86 1.315 . S
C85 H88 0.930 . S
N86 Co66 2.194 1_455 S
N86 C81 1.328 1_554 S
N86 C85 1.315 . S
H87 C81 0.929 1_655 S
H88 C85 0.930 . S
H89 C77 0.929 1_556 S
H90 C79 0.929 . S
O91 Co66 2.351 1_556 S
O91 C94 1.244 . S
O92 Co66 2.155 . S
O92 C94 1.240 1_554 S
O93 Co66 2.096 . S
O93 C74 1.247 . S
C94 O91 1.244 . S
C94 O92 1.240 1_556 S
H95 C69 0.931 . S
H96 C78 0.931 . S
H97 C82 0.929 . S
H98 C84 0.930 . S
Co99 N103 2.148 . S
Co99 N109 2.128 . S
Co99 N119 2.194 . S
Co99 O124 2.351 . S
Co99 O125 2.155 . S
Co99 O126 2.096 . S
C100 N103 1.301 . S
C100 N104 1.328 . S
C100 H105 0.930 . S
C101 C102 1.333 . S
C101 N103 1.317 . S
C101 H106 0.930 . S
C102 C101 1.333 . S
C102 N104 1.350 . S
C102 H128 0.931 . S
N103 Co99 2.148 . S
N103 C100 1.301 . S
N103 C101 1.317 . S
N104 C100 1.328 . S
N104 C102 1.350 . S
H105 C100 0.930 . S
H106 C101 0.930 . S
C107 O108 1.224 . S
C107 O126 1.247 . S
O108 C107 1.224 . S
N109 Co99 2.128 . S
N109 C110 1.355 . S
N109 C112 1.311 . S
C110 N109 1.355 . S
C110 C111 1.363 . S
C110 H122 0.929 . S
C111 C110 1.363 . S
C111 N113 1.375 . S
C111 H129 0.931 . S
C112 N109 1.311 . S
C112 N113 1.347 . S
C112 H123 0.929 . S
N113 C111 1.375 . S
N113 C112 1.347 . S
C114 C117 1.365 . S
C114 N119 1.328 . S
C114 H120 0.929 . S
C115 C116 1.362 . S
C115 C118 1.378 . S
C115 H130 0.929 . S
C116 C115 1.362 . S
C116 C117 1.366 . S
C117 C114 1.365 . S
C117 C116 1.366 . S
C117 H131 0.930 . S
C118 C115 1.378 . S
C118 N119 1.315 . S
C118 H121 0.930 . S
N119 Co99 2.194 . S
N119 C114 1.328 . S
N119 C118 1.315 . S
H120 C114 0.929 . S
H121 C118 0.930 . S
H122 C110 0.929 . S
H123 C112 0.929 . S
O124 Co99 2.351 . S
O124 C127 1.244 . S
O125 Co99 2.155 . S
O125 C127 1.240 . S
O126 Co99 2.096 . S
O126 C107 1.247 . S
C127 O124 1.244 . S
C127 O125 1.240 . S
H128 C102 0.931 . S
H129 C111 0.931 . S
H130 C115 0.929 . S
H131 C117 0.930 . S
Co132 N136 2.148 . S
Co132 N142 2.128 1_565 S
Co132 N152 2.194 1_565 S
Co132 O157 2.351 . S
Co132 O158 2.155 . S
Co132 O159 2.096 . S
C133 N136 1.301 . S
C133 N137 1.328 . S
C133 H138 0.930 . S
C134 C135 1.333 . S
C134 N136 1.317 . S
C134 H139 0.930 . S
C135 C134 1.333 . S
C135 N137 1.350 . S
C135 H161 0.931 . S
N136 Co132 2.148 . S
N136 C133 1.301 . S
N136 C134 1.317 . S
N137 C133 1.328 . S
N137 C135 1.350 . S
H138 C133 0.930 . S
H139 C134 0.930 . S
C140 O141 1.224 . S
C140 O159 1.247 . S
O141 C140 1.224 . S
N142 Co132 2.128 1_545 S
N142 C143 1.355 . S
N142 C145 1.311 . S
C143 N142 1.355 . S
C143 C144 1.363 . S
C143 H155 0.929 . S
C144 C143 1.363 . S
C144 N146 1.375 . S
C144 H162 0.931 . S
C145 N142 1.311 . S
C145 N146 1.347 . S
C145 H156 0.929 . S
N146 C144 1.375 . S
N146 C145 1.347 . S
C147 C150 1.365 . S
C147 N152 1.328 . S
C147 H153 0.929 1_545 S
C148 C149 1.362 . S
C148 C151 1.378 . S
C148 H163 0.929 . S
C149 C148 1.362 . S
C149 C150 1.366 . S
C150 C147 1.365 . S
C150 C149 1.366 . S
C150 H164 0.930 . S
C151 C148 1.378 . S
C151 N152 1.315 . S
C151 H154 0.930 . S
N152 Co132 2.194 1_545 S
N152 C147 1.328 . S
N152 C151 1.315 . S
H153 C147 0.929 1_565 S
H154 C151 0.930 . S
H155 C143 0.929 . S
H156 C145 0.929 . S
O157 Co132 2.351 . S
O157 C160 1.244 . S
O158 Co132 2.155 . S
O158 C160 1.240 . S
O159 Co132 2.096 . S
O159 C140 1.247 . S
C160 O157 1.244 . S
C160 O158 1.240 . S
H161 C135 0.931 . S
H162 C144 0.931 . S
H163 C148 0.929 . S
H164 C150 0.930 . S
Co165 N169 2.148 . S
Co165 N175 2.128 1_455 S
Co165 N185 2.194 1_455 S
Co165 O190 2.351 . S
Co165 O191 2.155 . S
Co165 O192 2.096 . S
C166 N169 1.301 . S
C166 N170 1.328 . S
C166 H171 0.930 . S
C167 C168 1.333 . S
C167 N169 1.317 . S
C167 H172 0.930 . S
C168 C167 1.333 . S
C168 N170 1.350 . S
C168 H194 0.931 . S
N169 Co165 2.148 . S
N169 C166 1.301 . S
N169 C167 1.317 . S
N170 C166 1.328 . S
N170 C168 1.350 . S
H171 C166 0.930 . S
H172 C167 0.930 . S
C173 O174 1.224 . S
C173 O192 1.247 . S
O174 C173 1.224 . S
N175 Co165 2.128 1_655 S
N175 C176 1.355 . S
N175 C178 1.311 . S
C176 N175 1.355 . S
C176 C177 1.363 . S
C176 H188 0.929 . S
C177 C176 1.363 . S
C177 N179 1.375 . S
C177 H195 0.931 . S
C178 N175 1.311 . S
C178 N179 1.347 . S
C178 H189 0.929 . S
N179 C177 1.375 . S
N179 C178 1.347 . S
C180 C183 1.365 . S
C180 N185 1.328 . S
C180 H186 0.929 1_655 S
C181 C182 1.362 . S
C181 C184 1.378 . S
C181 H196 0.929 . S
C182 C181 1.362 . S
C182 C183 1.366 . S
C183 C180 1.365 . S
C183 C182 1.366 . S
C183 H197 0.930 . S
C184 C181 1.378 . S
C184 N185 1.315 . S
C184 H187 0.930 . S
N185 Co165 2.194 1_655 S
N185 C180 1.328 . S
N185 C184 1.315 . S
H186 C180 0.929 1_455 S
H187 C184 0.930 . S
H188 C176 0.929 . S
H189 C178 0.929 . S
O190 Co165 2.351 . S
O190 C193 1.244 . S
O191 Co165 2.155 . S
O191 C193 1.240 . S
O192 Co165 2.096 . S
O192 C173 1.247 . S
C193 O190 1.244 . S
C193 O191 1.240 . S
H194 C168 0.931 . S
H195 C177 0.931 . S
H196 C181 0.929 . S
H197 C183 0.930 . S
Co198 N202 2.148 . S
Co198 N208 2.128 . S
Co198 N218 2.194 . S
Co198 O223 2.351 1_556 S
Co198 O224 2.155 . S
Co198 O225 2.096 . S
C199 N202 1.301 . S
C199 N203 1.328 . S
C199 H204 0.930 1_556 S
C200 C201 1.333 . S
C200 N202 1.317 . S
C200 H205 0.930 . S
C201 C200 1.333 . S
C201 N203 1.350 . S
C201 H227 0.931 . S
N202 Co198 2.148 . S
N202 C199 1.301 . S
N202 C200 1.317 . S
N203 C199 1.328 . S
N203 C201 1.350 . S
H204 C199 0.930 1_554 S
H205 C200 0.930 . S
C206 O207 1.224 . S
C206 O225 1.247 . S
O207 C206 1.224 . S
N208 Co198 2.128 . S
N208 C209 1.355 . S
N208 C211 1.311 . S
C209 N208 1.355 . S
C209 C210 1.363 . S
C209 H221 0.929 1_556 S
C210 C209 1.363 . S
C210 N212 1.375 . S
C210 H228 0.931 . S
C211 N208 1.311 . S
C211 N212 1.347 . S
C211 H222 0.929 . S
N212 C210 1.375 . S
N212 C211 1.347 . S
C213 C216 1.365 . S
C213 N218 1.328 1_554 S
C213 H219 0.929 . S
C214 C215 1.362 1_556 S
C214 C217 1.378 . S
C214 H229 0.929 . S
C215 C214 1.362 1_554 S
C215 C216 1.366 . S
C216 C213 1.365 . S
C216 C215 1.366 . S
C216 H230 0.930 . S
C217 C214 1.378 . S
C217 N218 1.315 . S
C217 H220 0.930 . S
N218 Co198 2.194 . S
N218 C213 1.328 1_556 S
N218 C217 1.315 . S
H219 C213 0.929 . S
H220 C217 0.930 . S
H221 C209 0.929 1_554 S
H222 C211 0.929 . S
O223 Co198 2.351 1_554 S
O223 C226 1.244 . S
O224 Co198 2.155 . S
O224 C226 1.240 1_556 S
O225 Co198 2.096 . S
O225 C206 1.247 . S
C226 O223 1.244 . S
C226 O224 1.240 1_554 S
H227 C201 0.931 . S
H228 C210 0.931 . S
H229 C214 0.929 . S
H230 C216 0.930 . S
Co231 N235 2.148 . S
Co231 N241 2.128 1_565 S
Co231 N251 2.194 1_565 S
Co231 O256 2.351 1_556 S
Co231 O257 2.155 . S
Co231 O258 2.096 . S
C232 N235 1.301 . S
C232 N236 1.328 . S
C232 H237 0.930 1_556 S
C233 C234 1.333 . S
C233 N235 1.317 . S
C233 H238 0.930 . S
C234 C233 1.333 . S
C234 N236 1.350 . S
C234 H260 0.931 . S
N235 Co231 2.148 . S
N235 C232 1.301 . S
N235 C233 1.317 . S
N236 C232 1.328 . S
N236 C234 1.350 . S
H237 C232 0.930 1_554 S
H238 C233 0.930 . S
C239 O240 1.224 . S
C239 O258 1.247 . S
O240 C239 1.224 . S
N241 Co231 2.128 1_545 S
N241 C242 1.355 . S
N241 C244 1.311 . S
C242 N241 1.355 . S
C242 C243 1.363 . S
C242 H254 0.929 1_556 S
C243 C242 1.363 . S
C243 N245 1.375 . S
C243 H261 0.931 . S
C244 N241 1.311 . S
C244 N245 1.347 . S
C244 H255 0.929 . S
N245 C243 1.375 . S
N245 C244 1.347 . S
C246 C249 1.365 . S
C246 N251 1.328 1_554 S
C246 H252 0.929 1_545 S
C247 C248 1.362 1_556 S
C247 C250 1.378 . S
C247 H262 0.929 . S
C248 C247 1.362 1_554 S
C248 C249 1.366 . S
C249 C246 1.365 . S
C249 C248 1.366 . S
C249 H263 0.930 . S
C250 C247 1.378 . S
C250 N251 1.315 . S
C250 H253 0.930 . S
N251 Co231 2.194 1_545 S
N251 C246 1.328 1_556 S
N251 C250 1.315 . S
H252 C246 0.929 1_565 S
H253 C250 0.930 . S
H254 C242 0.929 1_554 S
H255 C244 0.929 . S
O256 Co231 2.351 1_554 S
O256 C259 1.244 . S
O257 Co231 2.155 . S
O257 C259 1.240 1_556 S
O258 Co231 2.096 . S
O258 C239 1.247 . S
C259 O256 1.244 . S
C259 O257 1.240 1_554 S
H260 C234 0.931 . S
H261 C243 0.931 . S
H262 C247 0.929 . S
H263 C249 0.930 . S
Co264 N268 2.148 . S
Co264 N274 2.128 1_455 S
Co264 N284 2.194 1_455 S
Co264 O289 2.351 1_556 S
Co264 O290 2.155 . S
Co264 O291 2.096 . S
C265 N268 1.301 . S
C265 N269 1.328 . S
C265 H270 0.930 1_556 S
C266 C267 1.333 . S
C266 N268 1.317 . S
C266 H271 0.930 . S
C267 C266 1.333 . S
C267 N269 1.350 . S
C267 H293 0.931 . S
N268 Co264 2.148 . S
N268 C265 1.301 . S
N268 C266 1.317 . S
N269 C265 1.328 . S
N269 C267 1.350 . S
H270 C265 0.930 1_554 S
H271 C266 0.930 . S
C272 O273 1.224 . S
C272 O291 1.247 . S
O273 C272 1.224 . S
N274 Co264 2.128 1_655 S
N274 C275 1.355 . S
N274 C277 1.311 . S
C275 N274 1.355 . S
C275 C276 1.363 . S
C275 H287 0.929 1_556 S
C276 C275 1.363 . S
C276 N278 1.375 . S
C276 H294 0.931 . S
C277 N274 1.311 . S
C277 N278 1.347 . S
C277 H288 0.929 . S
N278 C276 1.375 . S
N278 C277 1.347 . S
C279 C282 1.365 . S
C279 N284 1.328 1_554 S
C279 H285 0.929 1_655 S
C280 C281 1.362 1_556 S
C280 C283 1.378 . S
C280 H295 0.929 . S
C281 C280 1.362 1_554 S
C281 C282 1.366 . S
C282 C279 1.365 . S
C282 C281 1.366 . S
C282 H296 0.930 . S
C283 C280 1.378 . S
C283 N284 1.315 . S
C283 H286 0.930 . S
N284 Co264 2.194 1_655 S
N284 C279 1.328 1_556 S
N284 C283 1.315 . S
H285 C279 0.929 1_455 S
H286 C283 0.930 . S
H287 C275 0.929 1_554 S
H288 C277 0.929 . S
O289 Co264 2.351 1_554 S
O289 C292 1.244 . S
O290 Co264 2.155 . S
O290 C292 1.240 1_556 S
O291 Co264 2.096 . S
O291 C272 1.247 . S
C292 O289 1.244 . S
C292 O290 1.240 1_554 S
H293 C267 0.931 . S
H294 C276 0.931 . S
H295 C280 0.929 . S
H296 C282 0.930 . S
Co297 N301 2.148 . S
Co297 N307 2.128 . S
Co297 N317 2.194 . S
Co297 O322 2.351 . S
Co297 O323 2.155 . S
Co297 O324 2.096 . S
C298 N301 1.301 . S
C298 N302 1.328 . S
C298 H303 0.930 . S
C299 C300 1.333 . S
C299 N301 1.317 . S
C299 H304 0.930 . S
C300 C299 1.333 . S
C300 N302 1.350 . S
C300 H326 0.931 . S
N301 Co297 2.148 . S
N301 C298 1.301 . S
N301 C299 1.317 . S
N302 C298 1.328 . S
N302 C300 1.350 . S
H303 C298 0.930 . S
H304 C299 0.930 . S
C305 O306 1.224 . S
C305 O324 1.247 . S
O306 C305 1.224 . S
N307 Co297 2.128 . S
N307 C308 1.355 . S
N307 C310 1.311 . S
C308 N307 1.355 . S
C308 C309 1.363 . S
C308 H320 0.929 . S
C309 C308 1.363 . S
C309 N311 1.375 . S
C309 H327 0.931 . S
C310 N307 1.311 . S
C310 N311 1.347 . S
C310 H321 0.929 . S
N311 C309 1.375 . S
N311 C310 1.347 . S
C312 C315 1.365 . S
C312 N317 1.328 . S
C312 H318 0.929 . S
C313 C314 1.362 . S
C313 C316 1.378 . S
C313 H328 0.929 . S
C314 C313 1.362 . S
C314 C315 1.366 . S
C315 C312 1.365 . S
C315 C314 1.366 . S
C315 H329 0.930 . S
C316 C313 1.378 . S
C316 N317 1.315 . S
C316 H319 0.930 . S
N317 Co297 2.194 . S
N317 C312 1.328 . S
N317 C316 1.315 . S
H318 C312 0.929 . S
H319 C316 0.930 . S
H320 C308 0.929 . S
H321 C310 0.929 . S
O322 Co297 2.351 . S
O322 C325 1.244 . S
O323 Co297 2.155 . S
O323 C325 1.240 . S
O324 Co297 2.096 . S
O324 C305 1.247 . S
C325 O322 1.244 . S
C325 O323 1.240 . S
H326 C300 0.931 . S
H327 C309 0.931 . S
H328 C313 0.929 . S
H329 C315 0.930 . S
Co330 N334 2.148 . S
Co330 N340 2.128 1_545 S
Co330 N350 2.194 1_545 S
Co330 O355 2.351 . S
Co330 O356 2.155 . S
Co330 O357 2.096 . S
C331 N334 1.301 . S
C331 N335 1.328 . S
C331 H336 0.930 . S
C332 C333 1.333 . S
C332 N334 1.317 . S
C332 H337 0.930 . S
C333 C332 1.333 . S
C333 N335 1.350 . S
C333 H359 0.931 . S
N334 Co330 2.148 . S
N334 C331 1.301 . S
N334 C332 1.317 . S
N335 C331 1.328 . S
N335 C333 1.350 . S
H336 C331 0.930 . S
H337 C332 0.930 . S
C338 O339 1.224 . S
C338 O357 1.247 . S
O339 C338 1.224 . S
N340 Co330 2.128 1_565 S
N340 C341 1.355 . S
N340 C343 1.311 . S
C341 N340 1.355 . S
C341 C342 1.363 . S
C341 H353 0.929 . S
C342 C341 1.363 . S
C342 N344 1.375 . S
C342 H360 0.931 . S
C343 N340 1.311 . S
C343 N344 1.347 . S
C343 H354 0.929 . S
N344 C342 1.375 . S
N344 C343 1.347 . S
C345 C348 1.365 . S
C345 N350 1.328 . S
C345 H351 0.929 1_565 S
C346 C347 1.362 . S
C346 C349 1.378 . S
C346 H361 0.929 . S
C347 C346 1.362 . S
C347 C348 1.366 . S
C348 C345 1.365 . S
C348 C347 1.366 . S
C348 H362 0.930 . S
C349 C346 1.378 . S
C349 N350 1.315 . S
C349 H352 0.930 . S
N350 Co330 2.194 1_565 S
N350 C345 1.328 . S
N350 C349 1.315 . S
H351 C345 0.929 1_545 S
H352 C349 0.930 . S
H353 C341 0.929 . S
H354 C343 0.929 . S
O355 Co330 2.351 . S
O355 C358 1.244 . S
O356 Co330 2.155 . S
O356 C358 1.240 . S
O357 Co330 2.096 . S
O357 C338 1.247 . S
C358 O355 1.244 . S
C358 O356 1.240 . S
H359 C333 0.931 . S
H360 C342 0.931 . S
H361 C346 0.929 . S
H362 C348 0.930 . S
Co363 N367 2.148 . S
Co363 N373 2.128 1_655 S
Co363 N383 2.194 1_655 S
Co363 O388 2.351 . S
Co363 O389 2.155 . S
Co363 O390 2.096 . S
C364 N367 1.301 . S
C364 N368 1.328 . S
C364 H369 0.930 . S
C365 C366 1.333 . S
C365 N367 1.317 . S
C365 H370 0.930 . S
C366 C365 1.333 . S
C366 N368 1.350 . S
C366 H392 0.931 . S
N367 Co363 2.148 . S
N367 C364 1.301 . S
N367 C365 1.317 . S
N368 C364 1.328 . S
N368 C366 1.350 . S
H369 C364 0.930 . S
H370 C365 0.930 . S
C371 O372 1.224 . S
C371 O390 1.247 . S
O372 C371 1.224 . S
N373 Co363 2.128 1_455 S
N373 C374 1.355 . S
N373 C376 1.311 . S
C374 N373 1.355 . S
C374 C375 1.363 . S
C374 H386 0.929 . S
C375 C374 1.363 . S
C375 N377 1.375 . S
C375 H393 0.931 . S
C376 N373 1.311 . S
C376 N377 1.347 . S
C376 H387 0.929 . S
N377 C375 1.375 . S
N377 C376 1.347 . S
C378 C381 1.365 . S
C378 N383 1.328 . S
C378 H384 0.929 1_455 S
C379 C380 1.362 . S
C379 C382 1.378 . S
C379 H394 0.929 . S
C380 C379 1.362 . S
C380 C381 1.366 . S
C381 C378 1.365 . S
C381 C380 1.366 . S
C381 H395 0.930 . S
C382 C379 1.378 . S
C382 N383 1.315 . S
C382 H385 0.930 . S
N383 Co363 2.194 1_455 S
N383 C378 1.328 . S
N383 C382 1.315 . S
H384 C378 0.929 1_655 S
H385 C382 0.930 . S
H386 C374 0.929 . S
H387 C376 0.929 . S
O388 Co363 2.351 . S
O388 C391 1.244 . S
O389 Co363 2.155 . S
O389 C391 1.240 . S
O390 Co363 2.096 . S
O390 C371 1.247 . S
C391 O388 1.244 . S
C391 O389 1.240 . S
H392 C366 0.931 . S
H393 C375 0.931 . S
H394 C379 0.929 . S
H395 C381 0.930 . S
Co396 N400 2.148 . S
Co396 N406 2.128 . S
Co396 N416 2.194 . S
Co396 O421 2.351 . S
Co396 O422 2.155 . S
Co396 O423 2.096 . S
C397 N400 1.301 . S
C397 N401 1.328 . S
C397 H402 0.930 . S
C398 C399 1.333 . S
C398 N400 1.317 . S
C398 H403 0.930 . S
C399 C398 1.333 . S
C399 N401 1.350 . S
C399 H425 0.931 . S
N400 Co396 2.148 . S
N400 C397 1.301 . S
N400 C398 1.317 . S
N401 C397 1.328 . S
N401 C399 1.350 . S
H402 C397 0.930 . S
H403 C398 0.930 . S
C404 O405 1.224 . S
C404 O423 1.247 . S
O405 C404 1.224 . S
N406 Co396 2.128 . S
N406 C407 1.355 . S
N406 C409 1.311 . S
C407 N406 1.355 . S
C407 C408 1.363 . S
C407 H419 0.929 . S
C408 C407 1.363 . S
C408 N410 1.375 . S
C408 H426 0.931 . S
C409 N406 1.311 . S
C409 N410 1.347 . S
C409 H420 0.929 . S
N410 C408 1.375 . S
N410 C409 1.347 . S
C411 C414 1.365 . S
C411 N416 1.328 . S
C411 H417 0.929 . S
C412 C413 1.362 . S
C412 C415 1.378 . S
C412 H427 0.929 . S
C413 C412 1.362 . S
C413 C414 1.366 . S
C414 C411 1.365 . S
C414 C413 1.366 . S
C414 H428 0.930 . S
C415 C412 1.378 . S
C415 N416 1.315 . S
C415 H418 0.930 . S
N416 Co396 2.194 . S
N416 C411 1.328 . S
N416 C415 1.315 . S
H417 C411 0.929 . S
H418 C415 0.930 . S
H419 C407 0.929 . S
H420 C409 0.929 . S
O421 Co396 2.351 . S
O421 C424 1.244 . S
O422 Co396 2.155 . S
O422 C424 1.240 . S
O423 Co396 2.096 . S
O423 C404 1.247 . S
C424 O421 1.244 . S
C424 O422 1.240 . S
H425 C399 0.931 . S
H426 C408 0.931 . S
H427 C412 0.929 . S
H428 C414 0.930 . S
Co429 N433 2.148 . S
Co429 N439 2.128 . S
Co429 N449 2.194 . S
Co429 O454 2.351 . S
Co429 O455 2.155 . S
Co429 O456 2.096 . S
C430 N433 1.301 . S
C430 N434 1.328 . S
C430 H435 0.930 . S
C431 C432 1.333 . S
C431 N433 1.317 . S
C431 H436 0.930 . S
C432 C431 1.333 . S
C432 N434 1.350 . S
C432 H458 0.931 . S
N433 Co429 2.148 . S
N433 C430 1.301 . S
N433 C431 1.317 . S
N434 C430 1.328 . S
N434 C432 1.350 . S
H435 C430 0.930 . S
H436 C431 0.930 . S
C437 O438 1.224 . S
C437 O456 1.247 . S
O438 C437 1.224 . S
N439 Co429 2.128 . S
N439 C440 1.355 . S
N439 C442 1.311 . S
C440 N439 1.355 . S
C440 C441 1.363 . S
C440 H452 0.929 . S
C441 C440 1.363 . S
C441 N443 1.375 . S
C441 H459 0.931 . S
C442 N439 1.311 . S
C442 N443 1.347 . S
C442 H453 0.929 . S
N443 C441 1.375 . S
N443 C442 1.347 . S
C444 C447 1.365 . S
C444 N449 1.328 . S
C444 H450 0.929 . S
C445 C446 1.362 . S
C445 C448 1.378 . S
C445 H460 0.929 . S
C446 C445 1.362 . S
C446 C447 1.366 . S
C447 C444 1.365 . S
C447 C446 1.366 . S
C447 H461 0.930 . S
C448 C445 1.378 . S
C448 N449 1.315 . S
C448 H451 0.930 . S
N449 Co429 2.194 . S
N449 C444 1.328 . S
N449 C448 1.315 . S
H450 C444 0.929 . S
H451 C448 0.930 . S
H452 C440 0.929 . S
H453 C442 0.929 . S
O454 Co429 2.351 . S
O454 C457 1.244 . S
O455 Co429 2.155 . S
O455 C457 1.240 . S
O456 Co429 2.096 . S
O456 C437 1.247 . S
C457 O454 1.244 . S
C457 O455 1.240 . S
H458 C432 0.931 . S
H459 C441 0.931 . S
H460 C445 0.929 . S
H461 C447 0.930 . S
Co462 N466 2.148 . S
Co462 N472 2.128 . S
Co462 N482 2.194 . S
Co462 O487 2.351 . S
Co462 O488 2.155 . S
Co462 O489 2.096 . S
C463 N466 1.301 . S
C463 N467 1.328 . S
C463 H468 0.930 . S
C464 C465 1.333 . S
C464 N466 1.317 . S
C464 H469 0.930 . S
C465 C464 1.333 . S
C465 N467 1.350 . S
C465 H491 0.931 . S
N466 Co462 2.148 . S
N466 C463 1.301 . S
N466 C464 1.317 . S
N467 C463 1.328 . S
N467 C465 1.350 . S
H468 C463 0.930 . S
H469 C464 0.930 . S
C470 O471 1.224 . S
C470 O489 1.247 . S
O471 C470 1.224 . S
N472 Co462 2.128 . S
N472 C473 1.355 . S
N472 C475 1.311 . S
C473 N472 1.355 . S
C473 C474 1.363 . S
C473 H485 0.929 . S
C474 C473 1.363 . S
C474 N476 1.375 . S
C474 H492 0.931 . S
C475 N472 1.311 . S
C475 N476 1.347 . S
C475 H486 0.929 . S
N476 C474 1.375 . S
N476 C475 1.347 . S
C477 C480 1.365 . S
C477 N482 1.328 . S
C477 H483 0.929 . S
C478 C479 1.362 . S
C478 C481 1.378 . S
C478 H493 0.929 . S
C479 C478 1.362 . S
C479 C480 1.366 . S
C480 C477 1.365 . S
C480 C479 1.366 . S
C480 H494 0.930 . S
C481 C478 1.378 . S
C481 N482 1.315 . S
C481 H484 0.930 . S
N482 Co462 2.194 . S
N482 C477 1.328 . S
N482 C481 1.315 . S
H483 C477 0.929 . S
H484 C481 0.930 . S
H485 C473 0.929 . S
H486 C475 0.929 . S
O487 Co462 2.351 . S
O487 C490 1.244 . S
O488 Co462 2.155 . S
O488 C490 1.240 . S
O489 Co462 2.096 . S
O489 C470 1.247 . S
C490 O487 1.244 . S
C490 O488 1.240 . S
H491 C465 0.931 . S
H492 C474 0.931 . S
H493 C478 0.929 . S
H494 C480 0.930 . S
Co495 N499 2.148 . S
Co495 N505 2.128 . S
Co495 N515 2.194 . S
Co495 O520 2.351 . S
Co495 O521 2.155 . S
Co495 O522 2.096 . S
C496 N499 1.301 . S
C496 N500 1.328 . S
C496 H501 0.930 . S
C497 C498 1.333 . S
C497 N499 1.317 . S
C497 H502 0.930 . S
C498 C497 1.333 . S
C498 N500 1.350 . S
C498 H524 0.931 . S
N499 Co495 2.148 . S
N499 C496 1.301 . S
N499 C497 1.317 . S
N500 C496 1.328 . S
N500 C498 1.350 . S
H501 C496 0.930 . S
H502 C497 0.930 . S
C503 O504 1.224 . S
C503 O522 1.247 . S
O504 C503 1.224 . S
N505 Co495 2.128 . S
N505 C506 1.355 . S
N505 C508 1.311 . S
C506 N505 1.355 . S
C506 C507 1.363 . S
C506 H518 0.929 . S
C507 C506 1.363 . S
C507 N509 1.375 . S
C507 H525 0.931 . S
C508 N505 1.311 . S
C508 N509 1.347 . S
C508 H519 0.929 . S
N509 C507 1.375 . S
N509 C508 1.347 . S
C510 C513 1.365 . S
C510 N515 1.328 . S
C510 H516 0.929 . S
C511 C512 1.362 . S
C511 C514 1.378 . S
C511 H526 0.929 . S
C512 C511 1.362 . S
C512 C513 1.366 . S
C513 C510 1.365 . S
C513 C512 1.366 . S
C513 H527 0.930 . S
C514 C511 1.378 . S
C514 N515 1.315 . S
C514 H517 0.930 . S
N515 Co495 2.194 . S
N515 C510 1.328 . S
N515 C514 1.315 . S
H516 C510 0.929 . S
H517 C514 0.930 . S
H518 C506 0.929 . S
H519 C508 0.929 . S
O520 Co495 2.351 . S
O520 C523 1.244 . S
O521 Co495 2.155 . S
O521 C523 1.240 . S
O522 Co495 2.096 . S
O522 C503 1.247 . S
C523 O520 1.244 . S
C523 O521 1.240 . S
H524 C498 0.931 . S
H525 C507 0.931 . S
H526 C511 0.929 . S
H527 C513 0.930 . S
Co528 N532 2.148 . S
Co528 N538 2.128 . S
Co528 N548 2.194 . S
Co528 O553 2.351 . S
Co528 O554 2.155 . S
Co528 O555 2.096 . S
C529 N532 1.301 . S
C529 N533 1.328 . S
C529 H534 0.930 . S
C530 C531 1.333 . S
C530 N532 1.317 . S
C530 H535 0.930 . S
C531 C530 1.333 . S
C531 N533 1.350 . S
C531 H557 0.931 . S
N532 Co528 2.148 . S
N532 C529 1.301 . S
N532 C530 1.317 . S
N533 C529 1.328 . S
N533 C531 1.350 . S
H534 C529 0.930 . S
H535 C530 0.930 . S
C536 O537 1.224 . S
C536 O555 1.247 . S
O537 C536 1.224 . S
N538 Co528 2.128 . S
N538 C539 1.355 . S
N538 C541 1.311 . S
C539 N538 1.355 . S
C539 C540 1.363 . S
C539 H551 0.929 . S
C540 C539 1.363 . S
C540 N542 1.375 . S
C540 H558 0.931 . S
C541 N538 1.311 . S
C541 N542 1.347 . S
C541 H552 0.929 . S
N542 C540 1.375 . S
N542 C541 1.347 . S
C543 C546 1.365 . S
C543 N548 1.328 . S
C543 H549 0.929 . S
C544 C545 1.362 . S
C544 C547 1.378 . S
C544 H559 0.929 . S
C545 C544 1.362 . S
C545 C546 1.366 . S
C546 C543 1.365 . S
C546 C545 1.366 . S
C546 H560 0.930 . S
C547 C544 1.378 . S
C547 N548 1.315 . S
C547 H550 0.930 . S
N548 Co528 2.194 . S
N548 C543 1.328 . S
N548 C547 1.315 . S
H549 C543 0.929 . S
H550 C547 0.930 . S
H551 C539 0.929 . S
H552 C541 0.929 . S
O553 Co528 2.351 . S
O553 C556 1.244 . S
O554 Co528 2.155 . S
O554 C556 1.240 . S
O555 Co528 2.096 . S
O555 C536 1.247 . S
C556 O553 1.244 . S
C556 O554 1.240 . S
H557 C531 0.931 . S
H558 C540 0.931 . S
H559 C544 0.929 . S
H560 C546 0.930 . S
Co561 N565 2.148 . S
Co561 N571 2.128 . S
Co561 N581 2.194 . S
Co561 O586 2.351 . S
Co561 O587 2.155 . S
Co561 O588 2.096 . S
C562 N565 1.301 . S
C562 N566 1.328 . S
C562 H567 0.930 . S
C563 C564 1.333 . S
C563 N565 1.317 . S
C563 H568 0.930 . S
C564 C563 1.333 . S
C564 N566 1.350 . S
C564 H590 0.931 . S
N565 Co561 2.148 . S
N565 C562 1.301 . S
N565 C563 1.317 . S
N566 C562 1.328 . S
N566 C564 1.350 . S
H567 C562 0.930 . S
H568 C563 0.930 . S
C569 O570 1.224 . S
C569 O588 1.247 . S
O570 C569 1.224 . S
N571 Co561 2.128 . S
N571 C572 1.355 . S
N571 C574 1.311 . S
C572 N571 1.355 . S
C572 C573 1.363 . S
C572 H584 0.929 . S
C573 C572 1.363 . S
C573 N575 1.375 . S
C573 H591 0.931 . S
C574 N571 1.311 . S
C574 N575 1.347 . S
C574 H585 0.929 . S
N575 C573 1.375 . S
N575 C574 1.347 . S
C576 C579 1.365 . S
C576 N581 1.328 . S
C576 H582 0.929 . S
C577 C578 1.362 . S
C577 C580 1.378 . S
C577 H592 0.929 . S
C578 C577 1.362 . S
C578 C579 1.366 . S
C579 C576 1.365 . S
C579 C578 1.366 . S
C579 H593 0.930 . S
C580 C577 1.378 . S
C580 N581 1.315 . S
C580 H583 0.930 . S
N581 Co561 2.194 . S
N581 C576 1.328 . S
N581 C580 1.315 . S
H582 C576 0.929 . S
H583 C580 0.930 . S
H584 C572 0.929 . S
H585 C574 0.929 . S
O586 Co561 2.351 . S
O586 C589 1.244 . S
O587 Co561 2.155 . S
O587 C589 1.240 . S
O588 Co561 2.096 . S
O588 C569 1.247 . S
C589 O586 1.244 . S
C589 O587 1.240 . S
H590 C564 0.931 . S
H591 C573 0.931 . S
H592 C577 0.929 . S
H593 C579 0.930 . S
Co594 N598 2.148 . S
Co594 N604 2.128 . S
Co594 N614 2.194 . S
Co594 O619 2.351 . S
Co594 O620 2.155 . S
Co594 O621 2.096 . S
C595 N598 1.301 . S
C595 N599 1.328 . S
C595 H600 0.930 . S
C596 C597 1.333 . S
C596 N598 1.317 . S
C596 H601 0.930 . S
C597 C596 1.333 . S
C597 N599 1.350 . S
C597 H623 0.931 . S
N598 Co594 2.148 . S
N598 C595 1.301 . S
N598 C596 1.317 . S
N599 C595 1.328 . S
N599 C597 1.350 . S
H600 C595 0.930 . S
H601 C596 0.930 . S
C602 O603 1.224 . S
C602 O621 1.247 . S
O603 C602 1.224 . S
N604 Co594 2.128 . S
N604 C605 1.355 . S
N604 C607 1.311 . S
C605 N604 1.355 . S
C605 C606 1.363 . S
C605 H617 0.929 . S
C606 C605 1.363 . S
C606 N608 1.375 . S
C606 H624 0.931 . S
C607 N604 1.311 . S
C607 N608 1.347 . S
C607 H618 0.929 . S
N608 C606 1.375 . S
N608 C607 1.347 . S
C609 C612 1.365 . S
C609 N614 1.328 . S
C609 H615 0.929 . S
C610 C611 1.362 . S
C610 C613 1.378 . S
C610 H625 0.929 . S
C611 C610 1.362 . S
C611 C612 1.366 . S
C612 C609 1.365 . S
C612 C611 1.366 . S
C612 H626 0.930 . S
C613 C610 1.378 . S
C613 N614 1.315 . S
C613 H616 0.930 . S
N614 Co594 2.194 . S
N614 C609 1.328 . S
N614 C613 1.315 . S
H615 C609 0.929 . S
H616 C613 0.930 . S
H617 C605 0.929 . S
H618 C607 0.929 . S
O619 Co594 2.351 . S
O619 C622 1.244 . S
O620 Co594 2.155 . S
O620 C622 1.240 . S
O621 Co594 2.096 . S
O621 C602 1.247 . S
C622 O619 1.244 . S
C622 O620 1.240 . S
H623 C597 0.931 . S
H624 C606 0.931 . S
H625 C610 0.929 . S
H626 C612 0.930 . S
Co627 N631 2.148 . S
Co627 N637 2.128 . S
Co627 N647 2.194 . S
Co627 O652 2.351 . S
Co627 O653 2.155 . S
Co627 O654 2.096 . S
C628 N631 1.301 . S
C628 N632 1.328 . S
C628 H633 0.930 . S
C629 C630 1.333 . S
C629 N631 1.317 . S
C629 H634 0.930 . S
C630 C629 1.333 . S
C630 N632 1.350 . S
C630 H656 0.931 . S
N631 Co627 2.148 . S
N631 C628 1.301 . S
N631 C629 1.317 . S
N632 C628 1.328 . S
N632 C630 1.350 . S
H633 C628 0.930 . S
H634 C629 0.930 . S
C635 O636 1.224 . S
C635 O654 1.247 . S
O636 C635 1.224 . S
N637 Co627 2.128 . S
N637 C638 1.355 . S
N637 C640 1.311 . S
C638 N637 1.355 . S
C638 C639 1.363 . S
C638 H650 0.929 . S
C639 C638 1.363 . S
C639 N641 1.375 . S
C639 H657 0.931 . S
C640 N637 1.311 . S
C640 N641 1.347 . S
C640 H651 0.929 . S
N641 C639 1.375 . S
N641 C640 1.347 . S
C642 C645 1.365 . S
C642 N647 1.328 . S
C642 H648 0.929 . S
C643 C644 1.362 . S
C643 C646 1.378 . S
C643 H658 0.929 . S
C644 C643 1.362 . S
C644 C645 1.366 . S
C645 C642 1.365 . S
C645 C644 1.366 . S
C645 H659 0.930 . S
C646 C643 1.378 . S
C646 N647 1.315 . S
C646 H649 0.930 . S
N647 Co627 2.194 . S
N647 C642 1.328 . S
N647 C646 1.315 . S
H648 C642 0.929 . S
H649 C646 0.930 . S
H650 C638 0.929 . S
H651 C640 0.929 . S
O652 Co627 2.351 . S
O652 C655 1.244 . S
O653 Co627 2.155 . S
O653 C655 1.240 . S
O654 Co627 2.096 . S
O654 C635 1.247 . S
C655 O652 1.244 . S
C655 O653 1.240 . S
H656 C630 0.931 . S
H657 C639 0.931 . S
H658 C643 0.929 . S
H659 C645 0.930 . S
Co660 N664 2.148 . S
Co660 N670 2.128 . S
Co660 N680 2.194 . S
Co660 O685 2.351 . S
Co660 O686 2.155 . S
Co660 O687 2.096 . S
C661 N664 1.301 . S
C661 N665 1.328 . S
C661 H666 0.930 . S
C662 C663 1.333 . S
C662 N664 1.317 . S
C662 H667 0.930 . S
C663 C662 1.333 . S
C663 N665 1.350 . S
C663 H689 0.931 . S
N664 Co660 2.148 . S
N664 C661 1.301 . S
N664 C662 1.317 . S
N665 C661 1.328 . S
N665 C663 1.350 . S
H666 C661 0.930 . S
H667 C662 0.930 . S
C668 O669 1.224 . S
C668 O687 1.247 . S
O669 C668 1.224 . S
N670 Co660 2.128 . S
N670 C671 1.355 . S
N670 C673 1.311 . S
C671 N670 1.355 . S
C671 C672 1.363 . S
C671 H683 0.929 . S
C672 C671 1.363 . S
C672 N674 1.375 . S
C672 H690 0.931 . S
C673 N670 1.311 . S
C673 N674 1.347 . S
C673 H684 0.929 . S
N674 C672 1.375 . S
N674 C673 1.347 . S
C675 C678 1.365 . S
C675 N680 1.328 . S
C675 H681 0.929 . S
C676 C677 1.362 . S
C676 C679 1.378 . S
C676 H691 0.929 . S
C677 C676 1.362 . S
C677 C678 1.366 . S
C678 C675 1.365 . S
C678 C677 1.366 . S
C678 H692 0.930 . S
C679 C676 1.378 . S
C679 N680 1.315 . S
C679 H682 0.930 . S
N680 Co660 2.194 . S
N680 C675 1.328 . S
N680 C679 1.315 . S
H681 C675 0.929 . S
H682 C679 0.930 . S
H683 C671 0.929 . S
H684 C673 0.929 . S
O685 Co660 2.351 . S
O685 C688 1.244 . S
O686 Co660 2.155 . S
O686 C688 1.240 . S
O687 Co660 2.096 . S
O687 C668 1.247 . S
C688 O685 1.244 . S
C688 O686 1.240 . S
H689 C663 0.931 . S
H690 C672 0.931 . S
H691 C676 0.929 . S
H692 C678 0.930 . S
Co693 N697 2.148 . S
Co693 N703 2.128 . S
Co693 N713 2.194 . S
Co693 O718 2.351 . S
Co693 O719 2.155 . S
Co693 O720 2.096 . S
C694 N697 1.301 . S
C694 N698 1.328 . S
C694 H699 0.930 . S
C695 C696 1.333 . S
C695 N697 1.317 . S
C695 H700 0.930 . S
C696 C695 1.333 . S
C696 N698 1.350 . S
C696 H722 0.931 . S
N697 Co693 2.148 . S
N697 C694 1.301 . S
N697 C695 1.317 . S
N698 C694 1.328 . S
N698 C696 1.350 . S
H699 C694 0.930 . S
H700 C695 0.930 . S
C701 O702 1.224 . S
C701 O720 1.247 . S
O702 C701 1.224 . S
N703 Co693 2.128 . S
N703 C704 1.355 . S
N703 C706 1.311 . S
C704 N703 1.355 . S
C704 C705 1.363 . S
C704 H716 0.929 . S
C705 C704 1.363 . S
C705 N707 1.375 . S
C705 H723 0.931 . S
C706 N703 1.311 . S
C706 N707 1.347 . S
C706 H717 0.929 . S
N707 C705 1.375 . S
N707 C706 1.347 . S
C708 C711 1.365 . S
C708 N713 1.328 . S
C708 H714 0.929 . S
C709 C710 1.362 . S
C709 C712 1.378 . S
C709 H724 0.929 . S
C710 C709 1.362 . S
C710 C711 1.366 . S
C711 C708 1.365 . S
C711 C710 1.366 . S
C711 H725 0.930 . S
C712 C709 1.378 . S
C712 N713 1.315 . S
C712 H715 0.930 . S
N713 Co693 2.194 . S
N713 C708 1.328 . S
N713 C712 1.315 . S
H714 C708 0.929 . S
H715 C712 0.930 . S
H716 C704 0.929 . S
H717 C706 0.929 . S
O718 Co693 2.351 . S
O718 C721 1.244 . S
O719 Co693 2.155 . S
O719 C721 1.240 . S
O720 Co693 2.096 . S
O720 C701 1.247 . S
C721 O718 1.244 . S
C721 O719 1.240 . S
H722 C696 0.931 . S
H723 C705 0.931 . S
H724 C709 0.929 . S
H725 C711 0.930 . S
Co726 N730 2.148 . S
Co726 N736 2.128 . S
Co726 N746 2.194 . S
Co726 O751 2.351 . S
Co726 O752 2.155 . S
Co726 O753 2.096 . S
C727 N730 1.301 . S
C727 N731 1.328 . S
C727 H732 0.930 . S
C728 C729 1.333 . S
C728 N730 1.317 . S
C728 H733 0.930 . S
C729 C728 1.333 . S
C729 N731 1.350 . S
C729 H755 0.931 . S
N730 Co726 2.148 . S
N730 C727 1.301 . S
N730 C728 1.317 . S
N731 C727 1.328 . S
N731 C729 1.350 . S
H732 C727 0.930 . S
H733 C728 0.930 . S
C734 O735 1.224 . S
C734 O753 1.247 . S
O735 C734 1.224 . S
N736 Co726 2.128 . S
N736 C737 1.355 . S
N736 C739 1.311 . S
C737 N736 1.355 . S
C737 C738 1.363 . S
C737 H749 0.929 . S
C738 C737 1.363 . S
C738 N740 1.375 . S
C738 H756 0.931 . S
C739 N736 1.311 . S
C739 N740 1.347 . S
C739 H750 0.929 . S
N740 C738 1.375 . S
N740 C739 1.347 . S
C741 C744 1.365 . S
C741 N746 1.328 . S
C741 H747 0.929 . S
C742 C743 1.362 . S
C742 C745 1.378 . S
C742 H757 0.929 . S
C743 C742 1.362 . S
C743 C744 1.366 . S
C744 C741 1.365 . S
C744 C743 1.366 . S
C744 H758 0.930 . S
C745 C742 1.378 . S
C745 N746 1.315 . S
C745 H748 0.930 . S
N746 Co726 2.194 . S
N746 C741 1.328 . S
N746 C745 1.315 . S
H747 C741 0.929 . S
H748 C745 0.930 . S
H749 C737 0.929 . S
H750 C739 0.929 . S
O751 Co726 2.351 . S
O751 C754 1.244 . S
O752 Co726 2.155 . S
O752 C754 1.240 . S
O753 Co726 2.096 . S
O753 C734 1.247 . S
C754 O751 1.244 . S
C754 O752 1.240 . S
H755 C729 0.931 . S
H756 C738 0.931 . S
H757 C742 0.929 . S
H758 C744 0.930 . S
Co759 N763 2.148 . S
Co759 N769 2.128 . S
Co759 N779 2.194 . S
Co759 O784 2.351 . S
Co759 O785 2.155 . S
Co759 O786 2.096 . S
C760 N763 1.301 . S
C760 N764 1.328 . S
C760 H765 0.930 . S
C761 C762 1.333 . S
C761 N763 1.317 . S
C761 H766 0.930 . S
C762 C761 1.333 . S
C762 N764 1.350 . S
C762 H788 0.931 . S
N763 Co759 2.148 . S
N763 C760 1.301 . S
N763 C761 1.317 . S
N764 C760 1.328 . S
N764 C762 1.350 . S
H765 C760 0.930 . S
H766 C761 0.930 . S
C767 O768 1.224 . S
C767 O786 1.247 . S
O768 C767 1.224 . S
N769 Co759 2.128 . S
N769 C770 1.355 . S
N769 C772 1.311 . S
C770 N769 1.355 . S
C770 C771 1.363 . S
C770 H782 0.929 . S
C771 C770 1.363 . S
C771 N773 1.375 . S
C771 H789 0.931 . S
C772 N769 1.311 . S
C772 N773 1.347 . S
C772 H783 0.929 . S
N773 C771 1.375 . S
N773 C772 1.347 . S
C774 C777 1.365 . S
C774 N779 1.328 . S
C774 H780 0.929 . S
C775 C776 1.362 . S
C775 C778 1.378 . S
C775 H790 0.929 . S
C776 C775 1.362 . S
C776 C777 1.366 . S
C777 C774 1.365 . S
C777 C776 1.366 . S
C777 H791 0.930 . S
C778 C775 1.378 . S
C778 N779 1.315 . S
C778 H781 0.930 . S
N779 Co759 2.194 . S
N779 C774 1.328 . S
N779 C778 1.315 . S
H780 C774 0.929 . S
H781 C778 0.930 . S
H782 C770 0.929 . S
H783 C772 0.929 . S
O784 Co759 2.351 . S
O784 C787 1.244 . S
O785 Co759 2.155 . S
O785 C787 1.240 . S
O786 Co759 2.096 . S
O786 C767 1.247 . S
C787 O784 1.244 . S
C787 O785 1.240 . S
H788 C762 0.931 . S
H789 C771 0.931 . S
H790 C775 0.929 . S
H791 C777 0.930 . S
Co792 N796 2.148 . S
Co792 N802 2.128 . S
Co792 N812 2.194 . S
Co792 O817 2.351 . S
Co792 O818 2.155 . S
Co792 O819 2.096 . S
C793 N796 1.301 . S
C793 N797 1.328 . S
C793 H798 0.930 . S
C794 C795 1.333 . S
C794 N796 1.317 . S
C794 H799 0.930 . S
C795 C794 1.333 . S
C795 N797 1.350 . S
C795 H821 0.931 . S
N796 Co792 2.148 . S
N796 C793 1.301 . S
N796 C794 1.317 . S
N797 C793 1.328 . S
N797 C795 1.350 . S
H798 C793 0.930 . S
H799 C794 0.930 . S
C800 O801 1.224 . S
C800 O819 1.247 . S
O801 C800 1.224 . S
N802 Co792 2.128 . S
N802 C803 1.355 . S
N802 C805 1.311 . S
C803 N802 1.355 . S
C803 C804 1.363 . S
C803 H815 0.929 . S
C804 C803 1.363 . S
C804 N806 1.375 . S
C804 H822 0.931 . S
C805 N802 1.311 . S
C805 N806 1.347 . S
C805 H816 0.929 . S
N806 C804 1.375 . S
N806 C805 1.347 . S
C807 C810 1.365 . S
C807 N812 1.328 . S
C807 H813 0.929 . S
C808 C809 1.362 . S
C808 C811 1.378 . S
C808 H823 0.929 . S
C809 C808 1.362 . S
C809 C810 1.366 . S
C810 C807 1.365 . S
C810 C809 1.366 . S
C810 H824 0.930 . S
C811 C808 1.378 . S
C811 N812 1.315 . S
C811 H814 0.930 . S
N812 Co792 2.194 . S
N812 C807 1.328 . S
N812 C811 1.315 . S
H813 C807 0.929 . S
H814 C811 0.930 . S
H815 C803 0.929 . S
H816 C805 0.929 . S
O817 Co792 2.351 . S
O817 C820 1.244 . S
O818 Co792 2.155 . S
O818 C820 1.240 . S
O819 Co792 2.096 . S
O819 C800 1.247 . S
C820 O817 1.244 . S
C820 O818 1.240 . S
H821 C795 0.931 . S
H822 C804 0.931 . S
H823 C808 0.929 . S
H824 C810 0.930 . S
Co825 N829 2.148 . S
Co825 N835 2.128 . S
Co825 N845 2.194 . S
Co825 O850 2.351 . S
Co825 O851 2.155 . S
Co825 O852 2.096 . S
C826 N829 1.301 . S
C826 N830 1.328 . S
C826 H831 0.930 . S
C827 C828 1.333 . S
C827 N829 1.317 . S
C827 H832 0.930 . S
C828 C827 1.333 . S
C828 N830 1.350 . S
C828 H854 0.931 . S
N829 Co825 2.148 . S
N829 C826 1.301 . S
N829 C827 1.317 . S
N830 C826 1.328 . S
N830 C828 1.350 . S
H831 C826 0.930 . S
H832 C827 0.930 . S
C833 O834 1.224 . S
C833 O852 1.247 . S
O834 C833 1.224 . S
N835 Co825 2.128 . S
N835 C836 1.355 . S
N835 C838 1.311 . S
C836 N835 1.355 . S
C836 C837 1.363 . S
C836 H848 0.929 . S
C837 C836 1.363 . S
C837 N839 1.375 . S
C837 H855 0.931 . S
C838 N835 1.311 . S
C838 N839 1.347 . S
C838 H849 0.929 . S
N839 C837 1.375 . S
N839 C838 1.347 . S
C840 C843 1.365 . S
C840 N845 1.328 . S
C840 H846 0.929 . S
C841 C842 1.362 . S
C841 C844 1.378 . S
C841 H856 0.929 . S
C842 C841 1.362 . S
C842 C843 1.366 . S
C843 C840 1.365 . S
C843 C842 1.366 . S
C843 H857 0.930 . S
C844 C841 1.378 . S
C844 N845 1.315 . S
C844 H847 0.930 . S
N845 Co825 2.194 . S
N845 C840 1.328 . S
N845 C844 1.315 . S
H846 C840 0.929 . S
H847 C844 0.930 . S
H848 C836 0.929 . S
H849 C838 0.929 . S
O850 Co825 2.351 . S
O850 C853 1.244 . S
O851 Co825 2.155 . S
O851 C853 1.240 . S
O852 Co825 2.096 . S
O852 C833 1.247 . S
C853 O850 1.244 . S
C853 O851 1.240 . S
H854 C828 0.931 . S
H855 C837 0.931 . S
H856 C841 0.929 . S
H857 C843 0.930 . S
Co858 N862 2.148 . S
Co858 N868 2.128 . S
Co858 N878 2.194 . S
Co858 O883 2.351 . S
Co858 O884 2.155 . S
Co858 O885 2.096 . S
C859 N862 1.301 . S
C859 N863 1.328 . S
C859 H864 0.930 . S
C860 C861 1.333 . S
C860 N862 1.317 . S
C860 H865 0.930 . S
C861 C860 1.333 . S
C861 N863 1.350 . S
C861 H887 0.931 . S
N862 Co858 2.148 . S
N862 C859 1.301 . S
N862 C860 1.317 . S
N863 C859 1.328 . S
N863 C861 1.350 . S
H864 C859 0.930 . S
H865 C860 0.930 . S
C866 O867 1.224 . S
C866 O885 1.247 . S
O867 C866 1.224 . S
N868 Co858 2.128 . S
N868 C869 1.355 . S
N868 C871 1.311 . S
C869 N868 1.355 . S
C869 C870 1.363 . S
C869 H881 0.929 . S
C870 C869 1.363 . S
C870 N872 1.375 . S
C870 H888 0.931 . S
C871 N868 1.311 . S
C871 N872 1.347 . S
C871 H882 0.929 . S
N872 C870 1.375 . S
N872 C871 1.347 . S
C873 C876 1.365 . S
C873 N878 1.328 . S
C873 H879 0.929 . S
C874 C875 1.362 . S
C874 C877 1.378 . S
C874 H889 0.929 . S
C875 C874 1.362 . S
C875 C876 1.366 . S
C876 C873 1.365 . S
C876 C875 1.366 . S
C876 H890 0.930 . S
C877 C874 1.378 . S
C877 N878 1.315 . S
C877 H880 0.930 . S
N878 Co858 2.194 . S
N878 C873 1.328 . S
N878 C877 1.315 . S
H879 C873 0.929 . S
H880 C877 0.930 . S
H881 C869 0.929 . S
H882 C871 0.929 . S
O883 Co858 2.351 . S
O883 C886 1.244 . S
O884 Co858 2.155 . S
O884 C886 1.240 . S
O885 Co858 2.096 . S
O885 C866 1.247 . S
C886 O883 1.244 . S
C886 O884 1.240 . S
H887 C861 0.931 . S
H888 C870 0.931 . S
H889 C874 0.929 . S
H890 C876 0.930 . S
Co891 N895 2.148 . S
Co891 N901 2.128 . S
Co891 N911 2.194 . S
Co891 O916 2.351 . S
Co891 O917 2.155 . S
Co891 O918 2.096 . S
C892 N895 1.301 . S
C892 N896 1.328 . S
C892 H897 0.930 . S
C893 C894 1.333 . S
C893 N895 1.317 . S
C893 H898 0.930 . S
C894 C893 1.333 . S
C894 N896 1.350 . S
C894 H920 0.931 . S
N895 Co891 2.148 . S
N895 C892 1.301 . S
N895 C893 1.317 . S
N896 C892 1.328 . S
N896 C894 1.350 . S
H897 C892 0.930 . S
H898 C893 0.930 . S
C899 O900 1.224 . S
C899 O918 1.247 . S
O900 C899 1.224 . S
N901 Co891 2.128 . S
N901 C902 1.355 . S
N901 C904 1.311 . S
C902 N901 1.355 . S
C902 C903 1.363 . S
C902 H914 0.929 . S
C903 C902 1.363 . S
C903 N905 1.375 . S
C903 H921 0.931 . S
C904 N901 1.311 . S
C904 N905 1.347 . S
C904 H915 0.929 . S
N905 C903 1.375 . S
N905 C904 1.347 . S
C906 C909 1.365 . S
C906 N911 1.328 . S
C906 H912 0.929 . S
C907 C908 1.362 . S
C907 C910 1.378 . S
C907 H922 0.929 . S
C908 C907 1.362 . S
C908 C909 1.366 . S
C909 C906 1.365 . S
C909 C908 1.366 . S
C909 H923 0.930 . S
C910 C907 1.378 . S
C910 N911 1.315 . S
C910 H913 0.930 . S
N911 Co891 2.194 . S
N911 C906 1.328 . S
N911 C910 1.315 . S
H912 C906 0.929 . S
H913 C910 0.930 . S
H914 C902 0.929 . S
H915 C904 0.929 . S
O916 Co891 2.351 . S
O916 C919 1.244 . S
O917 Co891 2.155 . S
O917 C919 1.240 . S
O918 Co891 2.096 . S
O918 C899 1.247 . S
C919 O916 1.244 . S
C919 O917 1.240 . S
H920 C894 0.931 . S
H921 C903 0.931 . S
H922 C907 0.929 . S
H923 C909 0.930 . S
Co924 N928 2.148 . S
Co924 N934 2.128 . S
Co924 N944 2.194 . S
Co924 O949 2.351 . S
Co924 O950 2.155 . S
Co924 O951 2.096 . S
C925 N928 1.301 . S
C925 N929 1.328 . S
C925 H930 0.930 . S
C926 C927 1.333 . S
C926 N928 1.317 . S
C926 H931 0.930 . S
C927 C926 1.333 . S
C927 N929 1.350 . S
C927 H953 0.931 . S
N928 Co924 2.148 . S
N928 C925 1.301 . S
N928 C926 1.317 . S
N929 C925 1.328 . S
N929 C927 1.350 . S
H930 C925 0.930 . S
H931 C926 0.930 . S
C932 O933 1.224 . S
C932 O951 1.247 . S
O933 C932 1.224 . S
N934 Co924 2.128 . S
N934 C935 1.355 . S
N934 C937 1.311 . S
C935 N934 1.355 . S
C935 C936 1.363 . S
C935 H947 0.929 . S
C936 C935 1.363 . S
C936 N938 1.375 . S
C936 H954 0.931 . S
C937 N934 1.311 . S
C937 N938 1.347 . S
C937 H948 0.929 . S
N938 C936 1.375 . S
N938 C937 1.347 . S
C939 C942 1.365 . S
C939 N944 1.328 . S
C939 H945 0.929 . S
C940 C941 1.362 . S
C940 C943 1.378 . S
C940 H955 0.929 . S
C941 C940 1.362 . S
C941 C942 1.366 . S
C942 C939 1.365 . S
C942 C941 1.366 . S
C942 H956 0.930 . S
C943 C940 1.378 . S
C943 N944 1.315 . S
C943 H946 0.930 . S
N944 Co924 2.194 . S
N944 C939 1.328 . S
N944 C943 1.315 . S
H945 C939 0.929 . S
H946 C943 0.930 . S
H947 C935 0.929 . S
H948 C937 0.929 . S
O949 Co924 2.351 . S
O949 C952 1.244 . S
O950 Co924 2.155 . S
O950 C952 1.240 . S
O951 Co924 2.096 . S
O951 C932 1.247 . S
C952 O949 1.244 . S
C952 O950 1.240 . S
H953 C927 0.931 . S
H954 C936 0.931 . S
H955 C940 0.929 . S
H956 C942 0.930 . S
Co957 N961 2.148 . S
Co957 N967 2.128 . S
Co957 N977 2.194 . S
Co957 O982 2.351 . S
Co957 O983 2.155 . S
Co957 O984 2.096 . S
C958 N961 1.301 . S
C958 N962 1.328 . S
C958 H963 0.930 . S
C959 C960 1.333 . S
C959 N961 1.317 . S
C959 H964 0.930 . S
C960 C959 1.333 . S
C960 N962 1.350 . S
C960 H986 0.931 . S
N961 Co957 2.148 . S
N961 C958 1.301 . S
N961 C959 1.317 . S
N962 C958 1.328 . S
N962 C960 1.350 . S
H963 C958 0.930 . S
H964 C959 0.930 . S
C965 O966 1.224 . S
C965 O984 1.247 . S
O966 C965 1.224 . S
N967 Co957 2.128 . S
N967 C968 1.355 . S
N967 C970 1.311 . S
C968 N967 1.355 . S
C968 C969 1.363 . S
C968 H980 0.929 . S
C969 C968 1.363 . S
C969 N971 1.375 . S
C969 H987 0.931 . S
C970 N967 1.311 . S
C970 N971 1.347 . S
C970 H981 0.929 . S
N971 C969 1.375 . S
N971 C970 1.347 . S
C972 C975 1.365 . S
C972 N977 1.328 . S
C972 H978 0.929 . S
C973 C974 1.362 . S
C973 C976 1.378 . S
C973 H988 0.929 . S
C974 C973 1.362 . S
C974 C975 1.366 . S
C975 C972 1.365 . S
C975 C974 1.366 . S
C975 H989 0.930 . S
C976 C973 1.378 . S
C976 N977 1.315 . S
C976 H979 0.930 . S
N977 Co957 2.194 . S
N977 C972 1.328 . S
N977 C976 1.315 . S
H978 C972 0.929 . S
H979 C976 0.930 . S
H980 C968 0.929 . S
H981 C970 0.929 . S
O982 Co957 2.351 . S
O982 C985 1.244 . S
O983 Co957 2.155 . S
O983 C985 1.240 . S
O984 Co957 2.096 . S
O984 C965 1.247 . S
C985 O982 1.244 . S
C985 O983 1.240 . S
H986 C960 0.931 . S
H987 C969 0.931 . S
H988 C973 0.929 . S
H989 C975 0.930 . S
Co990 N994 2.148 . S
Co990 N1000 2.128 . S
Co990 N1010 2.194 . S
Co990 O1015 2.351 . S
Co990 O1016 2.155 . S
Co990 O1017 2.096 . S
C991 N994 1.301 . S
C991 N995 1.328 . S
C991 H996 0.930 . S
C992 C993 1.333 . S
C992 N994 1.317 . S
C992 H997 0.930 . S
C993 C992 1.333 . S
C993 N995 1.350 . S
C993 H1019 0.931 . S
N994 Co990 2.148 . S
N994 C991 1.301 . S
N994 C992 1.317 . S
N995 C991 1.328 . S
N995 C993 1.350 . S
H996 C991 0.930 . S
H997 C992 0.930 . S
C998 O999 1.224 . S
C998 O1017 1.247 . S
O999 C998 1.224 . S
N1000 Co990 2.128 . S
N1000 C1001 1.355 . S
N1000 C1003 1.311 . S
C1001 N1000 1.355 . S
C1001 C1002 1.363 . S
C1001 H1013 0.929 . S
C1002 C1001 1.363 . S
C1002 N1004 1.375 . S
C1002 H1020 0.931 . S
C1003 N1000 1.311 . S
C1003 N1004 1.347 . S
C1003 H1014 0.929 . S
N1004 C1002 1.375 . S
N1004 C1003 1.347 . S
C1005 C1008 1.365 . S
C1005 N1010 1.328 . S
C1005 H1011 0.929 . S
C1006 C1007 1.362 . S
C1006 C1009 1.378 . S
C1006 H1021 0.929 . S
C1007 C1006 1.362 . S
C1007 C1008 1.366 . S
C1008 C1005 1.365 . S
C1008 C1007 1.366 . S
C1008 H1022 0.930 . S
C1009 C1006 1.378 . S
C1009 N1010 1.315 . S
C1009 H1012 0.930 . S
N1010 Co990 2.194 . S
N1010 C1005 1.328 . S
N1010 C1009 1.315 . S
H1011 C1005 0.929 . S
H1012 C1009 0.930 . S
H1013 C1001 0.929 . S
H1014 C1003 0.929 . S
O1015 Co990 2.351 . S
O1015 C1018 1.244 . S
O1016 Co990 2.155 . S
O1016 C1018 1.240 . S
O1017 Co990 2.096 . S
O1017 C998 1.247 . S
C1018 O1015 1.244 . S
C1018 O1016 1.240 . S
H1019 C993 0.931 . S
H1020 C1002 0.931 . S
H1021 C1006 0.929 . S
H1022 C1008 0.930 . S
Co1023 N1027 2.148 . S
Co1023 N1033 2.128 . S
Co1023 N1043 2.194 . S
Co1023 O1048 2.351 . S
Co1023 O1049 2.155 . S
Co1023 O1050 2.096 . S
C1024 N1027 1.301 . S
C1024 N1028 1.328 . S
C1024 H1029 0.930 . S
C1025 C1026 1.333 . S
C1025 N1027 1.317 . S
C1025 H1030 0.930 . S
C1026 C1025 1.333 . S
C1026 N1028 1.350 . S
C1026 H1052 0.931 . S
N1027 Co1023 2.148 . S
N1027 C1024 1.301 . S
N1027 C1025 1.317 . S
N1028 C1024 1.328 . S
N1028 C1026 1.350 . S
H1029 C1024 0.930 . S
H1030 C1025 0.930 . S
C1031 O1032 1.224 . S
C1031 O1050 1.247 . S
O1032 C1031 1.224 . S
N1033 Co1023 2.128 . S
N1033 C1034 1.355 . S
N1033 C1036 1.311 . S
C1034 N1033 1.355 . S
C1034 C1035 1.363 . S
C1034 H1046 0.929 . S
C1035 C1034 1.363 . S
C1035 N1037 1.375 . S
C1035 H1053 0.931 . S
C1036 N1033 1.311 . S
C1036 N1037 1.347 . S
C1036 H1047 0.929 . S
N1037 C1035 1.375 . S
N1037 C1036 1.347 . S
C1038 C1041 1.365 . S
C1038 N1043 1.328 . S
C1038 H1044 0.929 . S
C1039 C1040 1.362 . S
C1039 C1042 1.378 . S
C1039 H1054 0.929 . S
C1040 C1039 1.362 . S
C1040 C1041 1.366 . S
C1041 C1038 1.365 . S
C1041 C1040 1.366 . S
C1041 H1055 0.930 . S
C1042 C1039 1.378 . S
C1042 N1043 1.315 . S
C1042 H1045 0.930 . S
N1043 Co1023 2.194 . S
N1043 C1038 1.328 . S
N1043 C1042 1.315 . S
H1044 C1038 0.929 . S
H1045 C1042 0.930 . S
H1046 C1034 0.929 . S
H1047 C1036 0.929 . S
O1048 Co1023 2.351 . S
O1048 C1051 1.244 . S
O1049 Co1023 2.155 . S
O1049 C1051 1.240 . S
O1050 Co1023 2.096 . S
O1050 C1031 1.247 . S
C1051 O1048 1.244 . S
C1051 O1049 1.240 . S
H1052 C1026 0.931 . S
H1053 C1035 0.931 . S
H1054 C1039 0.929 . S
H1055 C1041 0.930 . S
Co1056 N1060 2.148 . S
Co1056 N1066 2.128 . S
Co1056 N1076 2.194 . S
Co1056 O1081 2.351 . S
Co1056 O1082 2.155 . S
Co1056 O1083 2.096 . S
C1057 N1060 1.301 . S
C1057 N1061 1.328 . S
C1057 H1062 0.930 . S
C1058 C1059 1.333 . S
C1058 N1060 1.317 . S
C1058 H1063 0.930 . S
C1059 C1058 1.333 . S
C1059 N1061 1.350 . S
C1059 H1085 0.931 . S
N1060 Co1056 2.148 . S
N1060 C1057 1.301 . S
N1060 C1058 1.317 . S
N1061 C1057 1.328 . S
N1061 C1059 1.350 . S
H1062 C1057 0.930 . S
H1063 C1058 0.930 . S
C1064 O1065 1.224 . S
C1064 O1083 1.247 . S
O1065 C1064 1.224 . S
N1066 Co1056 2.128 . S
N1066 C1067 1.355 . S
N1066 C1069 1.311 . S
C1067 N1066 1.355 . S
C1067 C1068 1.363 . S
C1067 H1079 0.929 . S
C1068 C1067 1.363 . S
C1068 N1070 1.375 . S
C1068 H1086 0.931 . S
C1069 N1066 1.311 . S
C1069 N1070 1.347 . S
C1069 H1080 0.929 . S
N1070 C1068 1.375 . S
N1070 C1069 1.347 . S
C1071 C1074 1.365 . S
C1071 N1076 1.328 . S
C1071 H1077 0.929 . S
C1072 C1073 1.362 . S
C1072 C1075 1.378 . S
C1072 H1087 0.929 . S
C1073 C1072 1.362 . S
C1073 C1074 1.366 . S
C1074 C1071 1.365 . S
C1074 C1073 1.366 . S
C1074 H1088 0.930 . S
C1075 C1072 1.378 . S
C1075 N1076 1.315 . S
C1075 H1078 0.930 . S
N1076 Co1056 2.194 . S
N1076 C1071 1.328 . S
N1076 C1075 1.315 . S
H1077 C1071 0.929 . S
H1078 C1075 0.930 . S
H1079 C1067 0.929 . S
H1080 C1069 0.929 . S
O1081 Co1056 2.351 . S
O1081 C1084 1.244 . S
O1082 Co1056 2.155 . S
O1082 C1084 1.240 . S
O1083 Co1056 2.096 . S
O1083 C1064 1.247 . S
C1084 O1081 1.244 . S
C1084 O1082 1.240 . S
H1085 C1059 0.931 . S
H1086 C1068 0.931 . S
H1087 C1072 0.929 . S
H1088 C1074 0.930 . S
Co1089 N1093 2.148 . S
Co1089 N1099 2.128 . S
Co1089 N1109 2.194 . S
Co1089 O1114 2.351 . S
Co1089 O1115 2.155 . S
Co1089 O1116 2.096 . S
C1090 N1093 1.301 . S
C1090 N1094 1.328 . S
C1090 H1095 0.930 . S
C1091 C1092 1.333 . S
C1091 N1093 1.317 . S
C1091 H1096 0.930 . S
C1092 C1091 1.333 . S
C1092 N1094 1.350 . S
C1092 H1118 0.931 . S
N1093 Co1089 2.148 . S
N1093 C1090 1.301 . S
N1093 C1091 1.317 . S
N1094 C1090 1.328 . S
N1094 C1092 1.350 . S
H1095 C1090 0.930 . S
H1096 C1091 0.930 . S
C1097 O1098 1.224 . S
C1097 O1116 1.247 . S
O1098 C1097 1.224 . S
N1099 Co1089 2.128 . S
N1099 C1100 1.355 . S
N1099 C1102 1.311 . S
C1100 N1099 1.355 . S
C1100 C1101 1.363 . S
C1100 H1112 0.929 . S
C1101 C1100 1.363 . S
C1101 N1103 1.375 . S
C1101 H1119 0.931 . S
C1102 N1099 1.311 . S
C1102 N1103 1.347 . S
C1102 H1113 0.929 . S
N1103 C1101 1.375 . S
N1103 C1102 1.347 . S
C1104 C1107 1.365 . S
C1104 N1109 1.328 . S
C1104 H1110 0.929 . S
C1105 C1106 1.362 . S
C1105 C1108 1.378 . S
C1105 H1120 0.929 . S
C1106 C1105 1.362 . S
C1106 C1107 1.366 . S
C1107 C1104 1.365 . S
C1107 C1106 1.366 . S
C1107 H1121 0.930 . S
C1108 C1105 1.378 . S
C1108 N1109 1.315 . S
C1108 H1111 0.930 . S
N1109 Co1089 2.194 . S
N1109 C1104 1.328 . S
N1109 C1108 1.315 . S
H1110 C1104 0.929 . S
H1111 C1108 0.930 . S
H1112 C1100 0.929 . S
H1113 C1102 0.929 . S
O1114 Co1089 2.351 . S
O1114 C1117 1.244 . S
O1115 Co1089 2.155 . S
O1115 C1117 1.240 . S
O1116 Co1089 2.096 . S
O1116 C1097 1.247 . S
C1117 O1114 1.244 . S
C1117 O1115 1.240 . S
H1118 C1092 0.931 . S
H1119 C1101 0.931 . S
H1120 C1105 0.929 . S
H1121 C1107 0.930 . S
Co1122 N1126 2.148 . S
Co1122 N1132 2.128 . S
Co1122 N1142 2.194 . S
Co1122 O1147 2.351 . S
Co1122 O1148 2.155 . S
Co1122 O1149 2.096 . S
C1123 N1126 1.301 . S
C1123 N1127 1.328 . S
C1123 H1128 0.930 . S
C1124 C1125 1.333 . S
C1124 N1126 1.317 . S
C1124 H1129 0.930 . S
C1125 C1124 1.333 . S
C1125 N1127 1.350 . S
C1125 H1151 0.931 . S
N1126 Co1122 2.148 . S
N1126 C1123 1.301 . S
N1126 C1124 1.317 . S
N1127 C1123 1.328 . S
N1127 C1125 1.350 . S
H1128 C1123 0.930 . S
H1129 C1124 0.930 . S
C1130 O1131 1.224 . S
C1130 O1149 1.247 . S
O1131 C1130 1.224 . S
N1132 Co1122 2.128 . S
N1132 C1133 1.355 . S
N1132 C1135 1.311 . S
C1133 N1132 1.355 . S
C1133 C1134 1.363 . S
C1133 H1145 0.929 . S
C1134 C1133 1.363 . S
C1134 N1136 1.375 . S
C1134 H1152 0.931 . S
C1135 N1132 1.311 . S
C1135 N1136 1.347 . S
C1135 H1146 0.929 . S
N1136 C1134 1.375 . S
N1136 C1135 1.347 . S
C1137 C1140 1.365 . S
C1137 N1142 1.328 . S
C1137 H1143 0.929 . S
C1138 C1139 1.362 . S
C1138 C1141 1.378 . S
C1138 H1153 0.929 . S
C1139 C1138 1.362 . S
C1139 C1140 1.366 . S
C1140 C1137 1.365 . S
C1140 C1139 1.366 . S
C1140 H1154 0.930 . S
C1141 C1138 1.378 . S
C1141 N1142 1.315 . S
C1141 H1144 0.930 . S
N1142 Co1122 2.194 . S
N1142 C1137 1.328 . S
N1142 C1141 1.315 . S
H1143 C1137 0.929 . S
H1144 C1141 0.930 . S
H1145 C1133 0.929 . S
H1146 C1135 0.929 . S
O1147 Co1122 2.351 . S
O1147 C1150 1.244 . S
O1148 Co1122 2.155 . S
O1148 C1150 1.240 . S
O1149 Co1122 2.096 . S
O1149 C1130 1.247 . S
C1150 O1147 1.244 . S
C1150 O1148 1.240 . S
H1151 C1125 0.931 . S
H1152 C1134 0.931 . S
H1153 C1138 0.929 . S
H1154 C1140 0.930 . S
Co1155 N1159 2.148 . S
Co1155 N1165 2.128 . S
Co1155 N1175 2.194 . S
Co1155 O1180 2.351 . S
Co1155 O1181 2.155 . S
Co1155 O1182 2.096 . S
C1156 N1159 1.301 . S
C1156 N1160 1.328 . S
C1156 H1161 0.930 . S
C1157 C1158 1.333 . S
C1157 N1159 1.317 . S
C1157 H1162 0.930 . S
C1158 C1157 1.333 . S
C1158 N1160 1.350 . S
C1158 H1184 0.931 . S
N1159 Co1155 2.148 . S
N1159 C1156 1.301 . S
N1159 C1157 1.317 . S
N1160 C1156 1.328 . S
N1160 C1158 1.350 . S
H1161 C1156 0.930 . S
H1162 C1157 0.930 . S
C1163 O1164 1.224 . S
C1163 O1182 1.247 . S
O1164 C1163 1.224 . S
N1165 Co1155 2.128 . S
N1165 C1166 1.355 . S
N1165 C1168 1.311 . S
C1166 N1165 1.355 . S
C1166 C1167 1.363 . S
C1166 H1178 0.929 . S
C1167 C1166 1.363 . S
C1167 N1169 1.375 . S
C1167 H1185 0.931 . S
C1168 N1165 1.311 . S
C1168 N1169 1.347 . S
C1168 H1179 0.929 . S
N1169 C1167 1.375 . S
N1169 C1168 1.347 . S
C1170 C1173 1.365 . S
C1170 N1175 1.328 . S
C1170 H1176 0.929 . S
C1171 C1172 1.362 . S
C1171 C1174 1.378 . S
C1171 H1186 0.929 . S
C1172 C1171 1.362 . S
C1172 C1173 1.366 . S
C1173 C1170 1.365 . S
C1173 C1172 1.366 . S
C1173 H1187 0.930 . S
C1174 C1171 1.378 . S
C1174 N1175 1.315 . S
C1174 H1177 0.930 . S
N1175 Co1155 2.194 . S
N1175 C1170 1.328 . S
N1175 C1174 1.315 . S
H1176 C1170 0.929 . S
H1177 C1174 0.930 . S
H1178 C1166 0.929 . S
H1179 C1168 0.929 . S
O1180 Co1155 2.351 . S
O1180 C1183 1.244 . S
O1181 Co1155 2.155 . S
O1181 C1183 1.240 . S
O1182 Co1155 2.096 . S
O1182 C1163 1.247 . S
C1183 O1180 1.244 . S
C1183 O1181 1.240 . S
H1184 C1158 0.931 . S
H1185 C1167 0.931 . S
H1186 C1171 0.929 . S
H1187 C1173 0.930 . S
C1188 C1189 1.369 1_556 S
C1188 C1190 1.419 . S
C1188 H1192 0.930 . S
C1189 C1188 1.369 1_554 S
C1189 C1198 1.429 . S
C1190 C1188 1.419 . S
C1190 C1191 1.363 1_556 S
C1190 H1193 0.929 . S
C1191 C1190 1.363 1_554 S
C1191 C1197 1.428 . S
H1192 C1188 0.930 . S
H1193 C1190 0.929 . S
S1194 N1195 1.613 . S
S1194 N1196 1.610 . S
N1195 S1194 1.613 . S
N1195 C1198 1.350 . S
N1196 S1194 1.610 . S
N1196 C1197 1.351 . S
C1197 C1191 1.428 . S
C1197 N1196 1.351 . S
C1197 C1198 1.434 . S
C1198 C1189 1.429 . S
C1198 N1195 1.350 . S
C1198 C1197 1.434 . S
C1199 C1200 1.369 1_556 S
C1199 C1201 1.419 . S
C1199 H1203 0.930 . S
C1200 C1199 1.369 1_554 S
C1200 C1209 1.429 . S
C1201 C1199 1.419 . S
C1201 C1202 1.363 1_556 S
C1201 H1204 0.929 . S
C1202 C1201 1.363 1_554 S
C1202 C1208 1.428 . S
H1203 C1199 0.930 . S
H1204 C1201 0.929 . S
S1205 N1206 1.613 . S
S1205 N1207 1.610 . S
N1206 S1205 1.613 . S
N1206 C1209 1.350 . S
N1207 S1205 1.610 . S
N1207 C1208 1.351 . S
C1208 C1202 1.428 . S
C1208 N1207 1.351 . S
C1208 C1209 1.434 . S
C1209 C1200 1.429 . S
C1209 N1206 1.350 . S
C1209 C1208 1.434 . S
C1210 C1211 1.369 . S
C1210 C1212 1.419 . S
C1210 H1214 0.930 . S
C1211 C1210 1.369 . S
C1211 C1220 1.429 . S
C1212 C1210 1.419 . S
C1212 C1213 1.363 . S
C1212 H1215 0.929 . S
C1213 C1212 1.363 . S
C1213 C1219 1.428 . S
H1214 C1210 0.930 . S
H1215 C1212 0.929 . S
S1216 N1217 1.613 . S
S1216 N1218 1.610 . S
N1217 S1216 1.613 . S
N1217 C1220 1.350 . S
N1218 S1216 1.610 . S
N1218 C1219 1.351 . S
C1219 C1213 1.428 . S
C1219 N1218 1.351 . S
C1219 C1220 1.434 . S
C1220 C1211 1.429 . S
C1220 N1217 1.350 . S
C1220 C1219 1.434 . S
C1221 C1222 1.369 . S
C1221 C1223 1.419 . S
C1221 H1225 0.930 . S
C1222 C1221 1.369 . S
C1222 C1231 1.429 . S
C1223 C1221 1.419 . S
C1223 C1224 1.363 . S
C1223 H1226 0.929 . S
C1224 C1223 1.363 . S
C1224 C1230 1.428 . S
H1225 C1221 0.930 . S
H1226 C1223 0.929 . S
S1227 N1228 1.613 . S
S1227 N1229 1.610 . S
N1228 S1227 1.613 . S
N1228 C1231 1.350 . S
N1229 S1227 1.610 . S
N1229 C1230 1.351 . S
C1230 C1224 1.428 . S
C1230 N1229 1.351 . S
C1230 C1231 1.434 . S
C1231 C1222 1.429 . S
C1231 N1228 1.350 . S
C1231 C1230 1.434 . S
C1232 C1233 1.369 . S
C1232 C1234 1.419 . S
C1232 H1236 0.930 . S
C1233 C1232 1.369 . S
C1233 C1242 1.429 . S
C1234 C1232 1.419 . S
C1234 C1235 1.363 . S
C1234 H1237 0.929 . S
C1235 C1234 1.363 . S
C1235 C1241 1.428 . S
H1236 C1232 0.930 . S
H1237 C1234 0.929 . S
S1238 N1239 1.613 . S
S1238 N1240 1.610 . S
N1239 S1238 1.613 . S
N1239 C1242 1.350 . S
N1240 S1238 1.610 . S
N1240 C1241 1.351 . S
C1241 C1235 1.428 . S
C1241 N1240 1.351 . S
C1241 C1242 1.434 . S
C1242 C1233 1.429 . S
C1242 N1239 1.350 . S
C1242 C1241 1.434 . S
C1243 C1244 1.369 . S
C1243 C1245 1.419 . S
C1243 H1247 0.930 . S
C1244 C1243 1.369 . S
C1244 C1253 1.429 . S
C1245 C1243 1.419 . S
C1245 C1246 1.363 . S
C1245 H1248 0.929 . S
C1246 C1245 1.363 . S
C1246 C1252 1.428 . S
H1247 C1243 0.930 . S
H1248 C1245 0.929 . S
S1249 N1250 1.613 . S
S1249 N1251 1.610 . S
N1250 S1249 1.613 . S
N1250 C1253 1.350 . S
N1251 S1249 1.610 . S
N1251 C1252 1.351 . S
C1252 C1246 1.428 . S
C1252 N1251 1.351 . S
C1252 C1253 1.434 . S
C1253 C1244 1.429 . S
C1253 N1250 1.350 . S
C1253 C1252 1.434 . S
C1254 C1255 1.369 . S
C1254 C1256 1.419 . S
C1254 H1258 0.930 . S
C1255 C1254 1.369 . S
C1255 C1264 1.429 1_556 S
C1256 C1254 1.419 . S
C1256 C1257 1.363 . S
C1256 H1259 0.929 . S
C1257 C1256 1.363 . S
C1257 C1263 1.419 1_556 S
H1258 C1254 0.930 . S
H1259 C1256 0.929 . S
S1260 N1261 1.613 . S
S1260 N1262 1.610 . S
N1261 S1260 1.613 . S
N1261 C1264 1.350 . S
N1262 S1260 1.610 . S
N1262 C1263 1.359 . S
C1263 C1257 1.419 1_554 S
C1263 N1262 1.359 . S
C1263 C1264 1.436 . S
C1264 C1255 1.429 1_554 S
C1264 N1261 1.350 . S
C1264 C1263 1.436 . S
C1265 C1266 1.369 . S
C1265 C1267 1.419 . S
C1265 H1269 0.930 . S
C1266 C1265 1.369 . S
C1266 C1275 1.429 1_556 S
C1267 C1265 1.419 . S
C1267 C1268 1.363 . S
C1267 H1270 0.929 . S
C1268 C1267 1.363 . S
C1268 C1274 1.428 1_556 S
H1269 C1265 0.930 . S
H1270 C1267 0.929 . S
S1271 N1272 1.613 . S
S1271 N1273 1.610 . S
N1272 S1271 1.613 . S
N1272 C1275 1.350 . S
N1273 S1271 1.610 . S
N1273 C1274 1.351 . S
C1274 C1268 1.428 1_554 S
C1274 N1273 1.351 . S
C1274 C1275 1.434 . S
C1275 C1266 1.429 1_554 S
C1275 N1272 1.350 . S
C1275 C1274 1.434 . S
C1276 C1277 1.369 1_554 S
C1276 C1278 1.419 . S
C1276 H1280 0.930 . S
C1277 C1276 1.369 1_556 S
C1277 C1286 1.429 . S
C1278 C1276 1.419 . S
C1278 C1279 1.363 1_554 S
C1278 H1281 0.929 . S
C1279 C1278 1.363 1_556 S
C1279 C1285 1.428 . S
H1280 C1276 0.930 . S
H1281 C1278 0.929 . S
S1282 N1283 1.613 . S
S1282 N1284 1.610 . S
N1283 S1282 1.613 . S
N1283 C1286 1.350 . S
N1284 S1282 1.610 . S
N1284 C1285 1.351 . S
C1285 C1279 1.428 . S
C1285 N1284 1.351 . S
C1285 C1286 1.434 . S
C1286 C1277 1.429 . S
C1286 N1283 1.350 . S
C1286 C1285 1.434 . S
C1287 C1288 1.369 . S
C1287 C1289 1.419 . S
C1287 H1291 0.930 . S
C1288 C1287 1.369 . S
C1288 C1297 1.429 . S
C1289 C1287 1.419 . S
C1289 C1290 1.363 . S
C1289 H1292 0.929 . S
C1290 C1289 1.363 . S
C1290 C1296 1.428 . S
H1291 C1287 0.930 . S
H1292 C1289 0.929 . S
S1293 N1294 1.613 . S
S1293 N1295 1.610 . S
N1294 S1293 1.613 . S
N1294 C1297 1.350 . S
N1295 S1293 1.610 . S
N1295 C1296 1.351 . S
C1296 C1290 1.428 . S
C1296 N1295 1.351 . S
C1296 C1297 1.434 . S
C1297 C1288 1.429 . S
C1297 N1294 1.350 . S
C1297 C1296 1.434 . S
C1298 C1299 1.369 . S
C1298 C1300 1.419 . S
C1298 H1302 0.930 . S
C1299 C1298 1.369 . S
C1299 C1308 1.429 . S
C1300 C1298 1.419 . S
C1300 C1301 1.363 . S
C1300 H1303 0.929 . S
C1301 C1300 1.363 . S
C1301 C1307 1.428 . S
H1302 C1298 0.930 . S
H1303 C1300 0.929 . S
S1304 N1305 1.613 . S
S1304 N1306 1.610 . S
N1305 S1304 1.613 . S
N1305 C1308 1.350 . S
N1306 S1304 1.610 . S
N1306 C1307 1.351 . S
C1307 C1301 1.428 . S
C1307 N1306 1.351 . S
C1307 C1308 1.434 . S
C1308 C1299 1.429 . S
C1308 N1305 1.350 . S
C1308 C1307 1.434 . S
C1309 C1310 1.369 . S
C1309 C1311 1.419 . S
C1309 H1313 0.930 . S
C1310 C1309 1.369 . S
C1310 C1319 1.429 . S
C1311 C1309 1.419 . S
C1311 C1312 1.363 . S
C1311 H1314 0.929 . S
C1312 C1311 1.363 . S
C1312 C1318 1.428 . S
H1313 C1309 0.930 . S
H1314 C1311 0.929 . S
S1315 N1316 1.613 . S
S1315 N1317 1.610 . S
N1316 S1315 1.613 . S
N1316 C1319 1.350 . S
N1317 S1315 1.610 . S
N1317 C1318 1.351 . S
C1318 C1312 1.428 . S
C1318 N1317 1.351 . S
C1318 C1319 1.434 . S
C1319 C1310 1.429 . S
C1319 N1316 1.350 . S
C1319 C1318 1.434 . S
C1320 C1321 1.369 . S
C1320 C1322 1.419 . S
C1320 H1324 0.930 . S
C1321 C1320 1.369 . S
C1321 C1330 1.429 . S
C1322 C1320 1.419 . S
C1322 C1323 1.363 . S
C1322 H1325 0.929 . S
C1323 C1322 1.363 . S
C1323 C1329 1.428 . S
H1324 C1320 0.930 . S
H1325 C1322 0.929 . S
S1326 N1327 1.613 . S
S1326 N1328 1.610 . S
N1327 S1326 1.613 . S
N1327 C1330 1.350 . S
N1328 S1326 1.610 . S
N1328 C1329 1.351 . S
C1329 C1323 1.428 . S
C1329 N1328 1.351 . S
C1329 C1330 1.434 . S
C1330 C1321 1.429 . S
C1330 N1327 1.350 . S
C1330 C1329 1.434 . S
C1331 C1332 1.369 . S
C1331 C1333 1.419 . S
C1331 H1335 0.930 . S
C1332 C1331 1.369 . S
C1332 C1341 1.429 . S
C1333 C1331 1.419 . S
C1333 C1334 1.363 . S
C1333 H1336 0.929 . S
C1334 C1333 1.363 . S
C1334 C1340 1.428 . S
H1335 C1331 0.930 . S
H1336 C1333 0.929 . S
S1337 N1338 1.613 . S
S1337 N1339 1.610 . S
N1338 S1337 1.613 . S
N1338 C1341 1.350 . S
N1339 S1337 1.610 . S
N1339 C1340 1.351 . S
C1340 C1334 1.428 . S
C1340 N1339 1.351 . S
C1340 C1341 1.434 . S
C1341 C1332 1.429 . S
C1341 N1338 1.350 . S
C1341 C1340 1.434 . S
C1342 C1343 1.369 . S
C1342 C1344 1.419 . S
C1342 H1346 0.930 . S
C1343 C1342 1.369 . S
C1343 C1352 1.429 . S
C1344 C1342 1.419 . S
C1344 C1345 1.363 . S
C1344 H1347 0.929 . S
C1345 C1344 1.363 . S
C1345 C1351 1.428 . S
H1346 C1342 0.930 . S
H1347 C1344 0.929 . S
S1348 N1349 1.613 . S
S1348 N1350 1.610 . S
N1349 S1348 1.613 . S
N1349 C1352 1.350 . S
N1350 S1348 1.610 . S
N1350 C1351 1.351 . S
C1351 C1345 1.428 . S
C1351 N1350 1.351 . S
C1351 C1352 1.434 . S
C1352 C1343 1.429 . S
C1352 N1349 1.350 . S
C1352 C1351 1.434 . S
C1353 C1354 1.369 . S
C1353 C1355 1.419 . S
C1353 H1357 0.930 . S
C1354 C1353 1.369 . S
C1354 C1363 1.429 . S
C1355 C1353 1.419 . S
C1355 C1356 1.363 . S
C1355 H1358 0.929 . S
C1356 C1355 1.363 . S
C1356 C1362 1.428 . S
H1357 C1353 0.930 . S
H1358 C1355 0.929 . S
S1359 N1360 1.613 . S
S1359 N1361 1.610 . S
N1360 S1359 1.613 . S
N1360 C1363 1.350 . S
N1361 S1359 1.610 . S
N1361 C1362 1.351 . S
C1362 C1356 1.428 . S
C1362 N1361 1.351 . S
C1362 C1363 1.434 . S
C1363 C1354 1.429 . S
C1363 N1360 1.350 . S
C1363 C1362 1.434 . S
C1364 C1365 1.369 . S
C1364 C1366 1.419 . S
C1364 H1368 0.930 . S
C1365 C1364 1.369 . S
C1365 C1374 1.429 . S
C1366 C1364 1.419 . S
C1366 C1367 1.363 . S
C1366 H1369 0.929 . S
C1367 C1366 1.363 . S
C1367 C1373 1.428 . S
H1368 C1364 0.930 . S
H1369 C1366 0.929 . S
S1370 N1371 1.613 . S
S1370 N1372 1.610 . S
N1371 S1370 1.613 . S
N1371 C1374 1.350 . S
N1372 S1370 1.610 . S
N1372 C1373 1.351 . S
C1373 C1367 1.428 . S
C1373 N1372 1.351 . S
C1373 C1374 1.434 . S
C1374 C1365 1.429 . S
C1374 N1371 1.350 . S
C1374 C1373 1.434 . S
C1375 C1376 1.369 . S
C1375 C1377 1.419 . S
C1375 H1379 0.930 . S
C1376 C1375 1.369 . S
C1376 C1385 1.429 . S
C1377 C1375 1.419 . S
C1377 C1378 1.363 . S
C1377 H1380 0.929 . S
C1378 C1377 1.363 . S
C1378 C1384 1.428 . S
H1379 C1375 0.930 . S
H1380 C1377 0.929 . S
S1381 N1382 1.613 . S
S1381 N1383 1.610 . S
N1382 S1381 1.613 . S
N1382 C1385 1.350 . S
N1383 S1381 1.610 . S
N1383 C1384 1.351 . S
C1384 C1378 1.428 . S
C1384 N1383 1.351 . S
C1384 C1385 1.434 . S
C1385 C1376 1.429 . S
C1385 N1382 1.350 . S
C1385 C1384 1.434 . S
C1386 C1387 1.369 . S
C1386 C1388 1.419 . S
C1386 H1390 0.930 . S
C1387 C1386 1.369 . S
C1387 C1396 1.429 . S
C1388 C1386 1.419 . S
C1388 C1389 1.363 . S
C1388 H1391 0.929 . S
C1389 C1388 1.363 . S
C1389 C1395 1.428 . S
H1390 C1386 0.930 . S
H1391 C1388 0.929 . S
S1392 N1393 1.613 . S
S1392 N1394 1.610 . S
N1393 S1392 1.613 . S
N1393 C1396 1.350 . S
N1394 S1392 1.610 . S
N1394 C1395 1.351 . S
C1395 C1389 1.428 . S
C1395 N1394 1.351 . S
C1395 C1396 1.434 . S
C1396 C1387 1.429 . S
C1396 N1393 1.350 . S
C1396 C1395 1.434 . S
C1397 C1398 1.369 . S
C1397 C1399 1.419 . S
C1397 H1401 0.930 . S
C1398 C1397 1.369 . S
C1398 C1407 1.429 . S
C1399 C1397 1.419 . S
C1399 C1400 1.363 . S
C1399 H1402 0.929 . S
C1400 C1399 1.363 . S
C1400 C1406 1.428 . S
H1401 C1397 0.930 . S
H1402 C1399 0.929 . S
S1403 N1404 1.613 . S
S1403 N1405 1.610 . S
N1404 S1403 1.613 . S
N1404 C1407 1.350 . S
N1405 S1403 1.610 . S
N1405 C1406 1.351 . S
C1406 C1400 1.428 . S
C1406 N1405 1.351 . S
C1406 C1407 1.434 . S
C1407 C1398 1.429 . S
C1407 N1404 1.350 . S
C1407 C1406 1.434 . S
C1408 C1409 1.369 . S
C1408 C1410 1.419 . S
C1408 H1412 0.930 . S
C1409 C1408 1.369 . S
C1409 C1418 1.429 . S
C1410 C1408 1.419 . S
C1410 C1411 1.363 . S
C1410 H1413 0.929 . S
C1411 C1410 1.363 . S
C1411 C1417 1.428 . S
H1412 C1408 0.930 . S
H1413 C1410 0.929 . S
S1414 N1415 1.613 . S
S1414 N1416 1.610 . S
N1415 S1414 1.613 . S
N1415 C1418 1.350 . S
N1416 S1414 1.610 . S
N1416 C1417 1.351 . S
C1417 C1411 1.428 . S
C1417 N1416 1.351 . S
C1417 C1418 1.434 . S
C1418 C1409 1.429 . S
C1418 N1415 1.350 . S
C1418 C1417 1.434 . S
C1419 C1420 1.369 . S
C1419 C1421 1.419 . S
C1419 H1423 0.930 . S
C1420 C1419 1.369 . S
C1420 C1429 1.429 . S
C1421 C1419 1.419 . S
C1421 C1422 1.363 . S
C1421 H1424 0.929 . S
C1422 C1421 1.363 . S
C1422 C1428 1.428 . S
H1423 C1419 0.930 . S
H1424 C1421 0.929 . S
S1425 N1426 1.613 . S
S1425 N1427 1.610 . S
N1426 S1425 1.613 . S
N1426 C1429 1.350 . S
N1427 S1425 1.610 . S
N1427 C1428 1.351 . S
C1428 C1422 1.428 . S
C1428 N1427 1.351 . S
C1428 C1429 1.434 . S
C1429 C1420 1.429 . S
C1429 N1426 1.350 . S
C1429 C1428 1.434 . S
C1430 C1431 1.369 . S
C1430 C1432 1.419 . S
C1430 H1434 0.930 . S
C1431 C1430 1.369 . S
C1431 C1440 1.429 . S
C1432 C1430 1.419 . S
C1432 C1433 1.363 . S
C1432 H1435 0.929 . S
C1433 C1432 1.363 . S
C1433 C1439 1.428 . S
H1434 C1430 0.930 . S
H1435 C1432 0.929 . S
S1436 N1437 1.613 . S
S1436 N1438 1.610 . S
N1437 S1436 1.613 . S
N1437 C1440 1.350 . S
N1438 S1436 1.610 . S
N1438 C1439 1.351 . S
C1439 C1433 1.428 . S
C1439 N1438 1.351 . S
C1439 C1440 1.434 . S
C1440 C1431 1.429 . S
C1440 N1437 1.350 . S
C1440 C1439 1.434 . S
C1441 C1442 1.369 . S
C1441 C1443 1.419 . S
C1441 H1445 0.930 . S
C1442 C1441 1.369 . S
C1442 C1451 1.429 . S
C1443 C1441 1.419 . S
C1443 C1444 1.363 . S
C1443 H1446 0.929 . S
C1444 C1443 1.363 . S
C1444 C1450 1.428 . S
H1445 C1441 0.930 . S
H1446 C1443 0.929 . S
S1447 N1448 1.613 . S
S1447 N1449 1.610 . S
N1448 S1447 1.613 . S
N1448 C1451 1.350 . S
N1449 S1447 1.610 . S
N1449 C1450 1.351 . S
C1450 C1444 1.428 . S
C1450 N1449 1.351 . S
C1450 C1451 1.434 . S
C1451 C1442 1.429 . S
C1451 N1448 1.350 . S
C1451 C1450 1.434 . S
C1452 C1453 1.369 . S
C1452 C1454 1.419 . S
C1452 H1456 0.930 . S
C1453 C1452 1.369 . S
C1453 C1462 1.429 . S
C1454 C1452 1.419 . S
C1454 C1455 1.363 . S
C1454 H1457 0.929 . S
C1455 C1454 1.363 . S
C1455 C1461 1.428 . S
H1456 C1452 0.930 . S
H1457 C1454 0.929 . S
S1458 N1459 1.613 . S
S1458 N1460 1.610 . S
N1459 S1458 1.613 . S
N1459 C1462 1.350 . S
N1460 S1458 1.610 . S
N1460 C1461 1.351 . S
C1461 C1455 1.428 . S
C1461 N1460 1.351 . S
C1461 C1462 1.434 . S
C1462 C1453 1.429 . S
C1462 N1459 1.350 . S
C1462 C1461 1.434 . S
C1463 C1464 1.369 . S
C1463 C1465 1.419 . S
C1463 H1467 0.930 . S
C1464 C1463 1.369 . S
C1464 C1473 1.429 . S
C1465 C1463 1.419 . S
C1465 C1466 1.363 . S
C1465 H1468 0.929 . S
C1466 C1465 1.363 . S
C1466 C1472 1.428 . S
H1467 C1463 0.930 . S
H1468 C1465 0.929 . S
S1469 N1470 1.613 . S
S1469 N1471 1.610 . S
N1470 S1469 1.613 . S
N1470 C1473 1.350 . S
N1471 S1469 1.610 . S
N1471 C1472 1.351 . S
C1472 C1466 1.428 . S
C1472 N1471 1.351 . S
C1472 C1473 1.434 . S
C1473 C1464 1.429 . S
C1473 N1470 1.350 . S
C1473 C1472 1.434 . S
C1474 C1475 1.369 . S
C1474 C1476 1.419 . S
C1474 H1478 0.930 . S
C1475 C1474 1.369 . S
C1475 C1484 1.429 . S
C1476 C1474 1.419 . S
C1476 C1477 1.363 . S
C1476 H1479 0.929 . S
C1477 C1476 1.363 . S
C1477 C1483 1.428 . S
H1478 C1474 0.930 . S
H1479 C1476 0.929 . S
S1480 N1481 1.613 . S
S1480 N1482 1.610 . S
N1481 S1480 1.613 . S
N1481 C1484 1.350 . S
N1482 S1480 1.610 . S
N1482 C1483 1.351 . S
C1483 C1477 1.428 . S
C1483 N1482 1.351 . S
C1483 C1484 1.434 . S
C1484 C1475 1.429 . S
C1484 N1481 1.350 . S
C1484 C1483 1.434 . S
C1485 C1486 1.369 . S
C1485 C1487 1.419 . S
C1485 H1489 0.930 . S
C1486 C1485 1.369 . S
C1486 C1495 1.429 . S
C1487 C1485 1.419 . S
C1487 C1488 1.363 . S
C1487 H1490 0.929 . S
C1488 C1487 1.363 . S
C1488 C1494 1.428 . S
H1489 C1485 0.930 . S
H1490 C1487 0.929 . S
S1491 N1492 1.613 . S
S1491 N1493 1.610 . S
N1492 S1491 1.613 . S
N1492 C1495 1.350 . S
N1493 S1491 1.610 . S
N1493 C1494 1.351 . S
C1494 C1488 1.428 . S
C1494 N1493 1.351 . S
C1494 C1495 1.434 . S
C1495 C1486 1.429 . S
C1495 N1492 1.350 . S
C1495 C1494 1.434 . S
C1496 C1497 1.369 . S
C1496 C1498 1.419 . S
C1496 H1500 0.930 . S
C1497 C1496 1.369 . S
C1497 C1506 1.429 . S
C1498 C1496 1.419 . S
C1498 C1499 1.363 . S
C1498 H1501 0.929 . S
C1499 C1498 1.363 . S
C1499 C1505 1.428 . S
H1500 C1496 0.930 . S
H1501 C1498 0.929 . S
S1502 N1503 1.613 . S
S1502 N1504 1.610 . S
N1503 S1502 1.613 . S
N1503 C1506 1.350 . S
N1504 S1502 1.610 . S
N1504 C1505 1.351 . S
C1505 C1499 1.428 . S
C1505 N1504 1.351 . S
C1505 C1506 1.434 . S
C1506 C1497 1.429 . S
C1506 N1503 1.350 . S
C1506 C1505 1.434 . S
C1507 C1508 1.369 . S
C1507 C1509 1.419 . S
C1507 H1511 0.930 . S
C1508 C1507 1.369 . S
C1508 C1517 1.429 . S
C1509 C1507 1.419 . S
C1509 C1510 1.363 . S
C1509 H1512 0.929 . S
C1510 C1509 1.363 . S
C1510 C1516 1.428 . S
H1511 C1507 0.930 . S
H1512 C1509 0.929 . S
S1513 N1514 1.613 . S
S1513 N1515 1.610 . S
N1514 S1513 1.613 . S
N1514 C1517 1.350 . S
N1515 S1513 1.610 . S
N1515 C1516 1.351 . S
C1516 C1510 1.428 . S
C1516 N1515 1.351 . S
C1516 C1517 1.434 . S
C1517 C1508 1.429 . S
C1517 N1514 1.350 . S
C1517 C1516 1.434 . S
C1518 C1519 1.369 . S
C1518 C1520 1.419 . S
C1518 H1522 0.930 . S
C1519 C1518 1.369 . S
C1519 C1528 1.429 . S
C1520 C1518 1.419 . S
C1520 C1521 1.363 . S
C1520 H1523 0.929 . S
C1521 C1520 1.363 . S
C1521 C1527 1.428 . S
H1522 C1518 0.930 . S
H1523 C1520 0.929 . S
S1524 N1525 1.613 . S
S1524 N1526 1.610 . S
N1525 S1524 1.613 . S
N1525 C1528 1.350 . S
N1526 S1524 1.610 . S
N1526 C1527 1.351 . S
C1527 C1521 1.428 . S
C1527 N1526 1.351 . S
C1527 C1528 1.434 . S
C1528 C1519 1.429 . S
C1528 N1525 1.350 . S
C1528 C1527 1.434 . S
C1529 C1530 1.369 . S
C1529 C1531 1.419 . S
C1529 H1533 0.930 . S
C1530 C1529 1.369 . S
C1530 C1539 1.429 . S
C1531 C1529 1.419 . S
C1531 C1532 1.363 . S
C1531 H1534 0.929 . S
C1532 C1531 1.363 . S
C1532 C1538 1.428 . S
H1533 C1529 0.930 . S
H1534 C1531 0.929 . S
S1535 N1536 1.613 . S
S1535 N1537 1.610 . S
N1536 S1535 1.613 . S
N1536 C1539 1.350 . S
N1537 S1535 1.610 . S
N1537 C1538 1.351 . S
C1538 C1532 1.428 . S
C1538 N1537 1.351 . S
C1538 C1539 1.434 . S
C1539 C1530 1.429 . S
C1539 N1536 1.350 . S
C1539 C1538 1.434 . S
C1540 C1541 1.369 . S
C1540 C1542 1.419 . S
C1540 H1544 0.930 . S
C1541 C1540 1.369 . S
C1541 C1550 1.429 . S
C1542 C1540 1.419 . S
C1542 C1543 1.363 . S
C1542 H1545 0.929 . S
C1543 C1542 1.363 . S
C1543 C1549 1.428 . S
H1544 C1540 0.930 . S
H1545 C1542 0.929 . S
S1546 N1547 1.613 . S
S1546 N1548 1.610 . S
N1547 S1546 1.613 . S
N1547 C1550 1.350 . S
N1548 S1546 1.610 . S
N1548 C1549 1.351 . S
C1549 C1543 1.428 . S
C1549 N1548 1.351 . S
C1549 C1550 1.434 . S
C1550 C1541 1.429 . S
C1550 N1547 1.350 . S
C1550 C1549 1.434 . S
C1551 C1552 1.369 . S
C1551 C1553 1.419 . S
C1551 H1555 0.930 . S
C1552 C1551 1.369 . S
C1552 C1561 1.429 . S
C1553 C1551 1.419 . S
C1553 C1554 1.363 . S
C1553 H1556 0.929 . S
C1554 C1553 1.363 . S
C1554 C1560 1.428 . S
H1555 C1551 0.930 . S
H1556 C1553 0.929 . S
S1557 N1558 1.613 . S
S1557 N1559 1.610 . S
N1558 S1557 1.613 . S
N1558 C1561 1.350 . S
N1559 S1557 1.610 . S
N1559 C1560 1.351 . S
C1560 C1554 1.428 . S
C1560 N1559 1.351 . S
C1560 C1561 1.434 . S
C1561 C1552 1.429 . S
C1561 N1558 1.350 . S
C1561 C1560 1.434 . S
C1562 C1563 1.369 . S
C1562 C1564 1.419 . S
C1562 H1566 0.930 . S
C1563 C1562 1.369 . S
C1563 C1572 1.429 . S
C1564 C1562 1.419 . S
C1564 C1565 1.363 . S
C1564 H1567 0.929 . S
C1565 C1564 1.363 . S
C1565 C1571 1.428 . S
H1566 C1562 0.930 . S
H1567 C1564 0.929 . S
S1568 N1569 1.613 . S
S1568 N1570 1.610 . S
N1569 S1568 1.613 . S
N1569 C1572 1.350 . S
N1570 S1568 1.610 . S
N1570 C1571 1.351 . S
C1571 C1565 1.428 . S
C1571 N1570 1.351 . S
C1571 C1572 1.434 . S
C1572 C1563 1.429 . S
C1572 N1569 1.350 . S
C1572 C1571 1.434 . S
C1573 C1574 1.369 . S
C1573 C1575 1.419 . S
C1573 H1577 0.930 . S
C1574 C1573 1.369 . S
C1574 C1583 1.429 . S
C1575 C1573 1.419 . S
C1575 C1576 1.363 . S
C1575 H1578 0.929 . S
C1576 C1575 1.363 . S
C1576 C1582 1.428 . S
H1577 C1573 0.930 . S
H1578 C1575 0.929 . S
S1579 N1580 1.613 . S
S1579 N1581 1.610 . S
N1580 S1579 1.613 . S
N1580 C1583 1.350 . S
N1581 S1579 1.610 . S
N1581 C1582 1.351 . S
C1582 C1576 1.428 . S
C1582 N1581 1.351 . S
C1582 C1583 1.434 . S
C1583 C1574 1.429 . S
C1583 N1580 1.350 . S
C1583 C1582 1.434 . S
C1584 C1585 1.369 . S
C1584 C1586 1.419 . S
C1584 H1588 0.930 . S
C1585 C1584 1.369 . S
C1585 C1594 1.429 . S
C1586 C1584 1.419 . S
C1586 C1587 1.363 . S
C1586 H1589 0.929 . S
C1587 C1586 1.363 . S
C1587 C1593 1.428 . S
H1588 C1584 0.930 . S
H1589 C1586 0.929 . S
S1590 N1591 1.613 . S
S1590 N1592 1.610 . S
N1591 S1590 1.613 . S
N1591 C1594 1.350 . S
N1592 S1590 1.610 . S
N1592 C1593 1.351 . S
C1593 C1587 1.428 . S
C1593 N1592 1.351 . S
C1593 C1594 1.434 . S
C1594 C1585 1.429 . S
C1594 N1591 1.350 . S
C1594 C1593 1.434 . S
C1595 C1596 1.369 1_565 S
C1595 C1597 1.419 . S
C1595 H1599 0.930 . S
C1596 C1595 1.369 1_545 S
C1596 C1605 1.429 . S
C1597 C1595 1.419 . S
C1597 C1598 1.363 . S
C1597 H1600 0.929 . S
C1598 C1597 1.363 . S
C1598 C1604 1.428 1_565 S
H1599 C1595 0.930 . S
H1600 C1597 0.929 . S
S1601 N1602 1.613 . S
S1601 N1603 1.610 . S
N1602 S1601 1.613 . S
N1602 C1605 1.350 . S
N1603 S1601 1.610 . S
N1603 C1604 1.351 . S
C1604 C1598 1.428 1_545 S
C1604 N1603 1.351 . S
C1604 C1605 1.434 . S
C1605 C1596 1.429 . S
C1605 N1602 1.350 . S
C1605 C1604 1.434 . S
C1606 C1607 1.369 1_455 S
C1606 C1608 1.419 . S
C1606 H1610 0.930 . S
C1607 C1606 1.369 1_655 S
C1607 C1616 1.429 . S
C1608 C1606 1.419 . S
C1608 C1609 1.363 . S
C1608 H1611 0.929 . S
C1609 C1608 1.363 . S
C1609 C1615 1.428 1_455 S
H1610 C1606 0.930 . S
H1611 C1608 0.929 . S
S1612 N1613 1.613 . S
S1612 N1614 1.610 . S
N1613 S1612 1.613 . S
N1613 C1616 1.350 . S
N1614 S1612 1.610 . S
N1614 C1615 1.351 . S
C1615 C1609 1.428 1_655 S
C1615 N1614 1.351 . S
C1615 C1616 1.434 . S
C1616 C1607 1.429 . S
C1616 N1613 1.350 . S
C1616 C1615 1.434 . S
C1617 C1618 1.369 . S
C1617 C1619 1.419 . S
C1617 H1621 0.930 . S
C1618 C1617 1.369 . S
C1618 C1627 1.429 . S
C1619 C1617 1.419 . S
C1619 C1620 1.363 . S
C1619 H1622 0.929 . S
C1620 C1619 1.363 . S
C1620 C1626 1.428 . S
H1621 C1617 0.930 . S
H1622 C1619 0.929 . S
S1623 N1624 1.613 . S
S1623 N1625 1.610 . S
N1624 S1623 1.613 . S
N1624 C1627 1.350 . S
N1625 S1623 1.610 . S
N1625 C1626 1.351 . S
C1626 C1620 1.428 . S
C1626 N1625 1.351 . S
C1626 C1627 1.434 . S
C1627 C1618 1.429 . S
C1627 N1624 1.350 . S
C1627 C1626 1.434 . S
C1628 C1629 1.369 . S
C1628 C1630 1.419 . S
C1628 H1632 0.930 . S
C1629 C1628 1.369 . S
C1629 C1638 1.429 1_545 S
C1630 C1628 1.419 . S
C1630 C1631 1.363 1_545 S
C1630 H1633 0.929 . S
C1631 C1630 1.363 1_565 S
C1631 C1637 1.428 . S
H1632 C1628 0.930 . S
H1633 C1630 0.929 . S
S1634 N1635 1.613 . S
S1634 N1636 1.610 . S
N1635 S1634 1.613 . S
N1635 C1638 1.350 . S
N1636 S1634 1.610 . S
N1636 C1637 1.351 . S
C1637 C1631 1.428 . S
C1637 N1636 1.351 . S
C1637 C1638 1.434 . S
C1638 C1629 1.429 1_565 S
C1638 N1635 1.350 . S
C1638 C1637 1.434 . S
C1639 C1640 1.369 . S
C1639 C1641 1.419 . S
C1639 H1643 0.930 . S
C1640 C1639 1.369 . S
C1640 C1649 1.429 1_655 S
C1641 C1639 1.419 . S
C1641 C1642 1.363 1_655 S
C1641 H1644 0.929 . S
C1642 C1641 1.363 1_455 S
C1642 C1648 1.428 . S
H1643 C1639 0.930 . S
H1644 C1641 0.929 . S
S1645 N1646 1.613 . S
S1645 N1647 1.610 . S
N1646 S1645 1.613 . S
N1646 C1649 1.350 . S
N1647 S1645 1.610 . S
N1647 C1648 1.351 . S
C1648 C1642 1.428 . S
C1648 N1647 1.351 . S
C1648 C1649 1.434 . S
C1649 C1640 1.429 1_455 S
C1649 N1646 1.350 . S
C1649 C1648 1.434 . S
C1650 C1651 1.369 . S
C1650 C1652 1.419 . S
C1650 H1654 0.930 . S
C1651 C1650 1.369 . S
C1651 C1660 1.429 . S
C1652 C1650 1.419 . S
C1652 C1653 1.363 . S
C1652 H1655 0.929 . S
C1653 C1652 1.363 . S
C1653 C1659 1.428 . S
H1654 C1650 0.930 . S
H1655 C1652 0.929 . S
S1656 N1657 1.613 . S
S1656 N1658 1.610 . S
N1657 S1656 1.613 . S
N1657 C1660 1.350 . S
N1658 S1656 1.610 . S
N1658 C1659 1.351 . S
C1659 C1653 1.428 . S
C1659 N1658 1.351 . S
C1659 C1660 1.434 . S
C1660 C1651 1.429 . S
C1660 N1657 1.350 . S
C1660 C1659 1.434 . S
C1661 C1662 1.369 . S
C1661 C1663 1.419 . S
C1661 H1665 0.930 . S
C1662 C1661 1.369 . S
C1662 C1671 1.429 . S
C1663 C1661 1.419 . S
C1663 C1664 1.363 . S
C1663 H1666 0.929 . S
C1664 C1663 1.363 . S
C1664 C1670 1.428 . S
H1665 C1661 0.930 . S
H1666 C1663 0.929 . S
S1667 N1668 1.613 . S
S1667 N1669 1.610 . S
N1668 S1667 1.613 . S
N1668 C1671 1.350 . S
N1669 S1667 1.610 . S
N1669 C1670 1.351 . S
C1670 C1664 1.428 . S
C1670 N1669 1.351 . S
C1670 C1671 1.434 . S
C1671 C1662 1.429 . S
C1671 N1668 1.350 . S
C1671 C1670 1.434 . S
C1672 C1673 1.369 . S
C1672 C1674 1.419 . S
C1672 H1676 0.930 . S
C1673 C1672 1.369 . S
C1673 C1682 1.429 . S
C1674 C1672 1.419 . S
C1674 C1675 1.363 . S
C1674 H1677 0.929 . S
C1675 C1674 1.363 . S
C1675 C1681 1.428 . S
H1676 C1672 0.930 . S
H1677 C1674 0.929 . S
S1678 N1679 1.613 . S
S1678 N1680 1.610 . S
N1679 S1678 1.613 . S
N1679 C1682 1.350 . S
N1680 S1678 1.610 . S
N1680 C1681 1.351 . S
C1681 C1675 1.428 . S
C1681 N1680 1.351 . S
C1681 C1682 1.434 . S
C1682 C1673 1.429 . S
C1682 N1679 1.350 . S
C1682 C1681 1.434 . S
C1683 C1684 1.369 . S
C1683 C1685 1.419 . S
C1683 H1687 0.930 . S
C1684 C1683 1.369 . S
C1684 C1693 1.429 . S
C1685 C1683 1.419 . S
C1685 C1686 1.363 . S
C1685 H1688 0.929 . S
C1686 C1685 1.363 . S
C1686 C1692 1.428 . S
H1687 C1683 0.930 . S
H1688 C1685 0.929 . S
S1689 N1690 1.613 . S
S1689 N1691 1.610 . S
N1690 S1689 1.613 . S
N1690 C1693 1.350 . S
N1691 S1689 1.610 . S
N1691 C1692 1.351 . S
C1692 C1686 1.428 . S
C1692 N1691 1.351 . S
C1692 C1693 1.434 . S
C1693 C1684 1.429 . S
C1693 N1690 1.350 . S
C1693 C1692 1.434 . S
C1694 C1695 1.369 . S
C1694 C1696 1.419 . S
C1694 H1698 0.930 . S
C1695 C1694 1.369 . S
C1695 C1704 1.429 . S
C1696 C1694 1.419 . S
C1696 C1697 1.363 . S
C1696 H1699 0.929 . S
C1697 C1696 1.363 . S
C1697 C1703 1.428 . S
H1698 C1694 0.930 . S
H1699 C1696 0.929 . S
S1700 N1701 1.613 . S
S1700 N1702 1.610 . S
N1701 S1700 1.613 . S
N1701 C1704 1.350 . S
N1702 S1700 1.610 . S
N1702 C1703 1.351 . S
C1703 C1697 1.428 . S
C1703 N1702 1.351 . S
C1703 C1704 1.434 . S
C1704 C1695 1.429 . S
C1704 N1701 1.350 . S
C1704 C1703 1.434 . S
C1705 C1706 1.369 . S
C1705 C1707 1.419 . S
C1705 H1709 0.930 . S
C1706 C1705 1.369 . S
C1706 C1715 1.429 . S
C1707 C1705 1.419 . S
C1707 C1708 1.363 . S
C1707 H1710 0.929 . S
C1708 C1707 1.363 . S
C1708 C1714 1.428 . S
H1709 C1705 0.930 . S
H1710 C1707 0.929 . S
S1711 N1712 1.613 . S
S1711 N1713 1.610 . S
N1712 S1711 1.613 . S
N1712 C1715 1.350 . S
N1713 S1711 1.610 . S
N1713 C1714 1.351 . S
C1714 C1708 1.428 . S
C1714 N1713 1.351 . S
C1714 C1715 1.434 . S
C1715 C1706 1.429 . S
C1715 N1712 1.350 . S
C1715 C1714 1.434 . S
C1716 C1717 1.369 . S
C1716 C1718 1.419 . S
C1716 H1720 0.930 . S
C1717 C1716 1.369 . S
C1717 C1726 1.429 . S
C1718 C1716 1.419 . S
C1718 C1719 1.363 . S
C1718 H1721 0.929 . S
C1719 C1718 1.363 . S
C1719 C1725 1.428 . S
H1720 C1716 0.930 . S
H1721 C1718 0.929 . S
S1722 N1723 1.613 . S
S1722 N1724 1.610 . S
N1723 S1722 1.613 . S
N1723 C1726 1.350 . S
N1724 S1722 1.610 . S
N1724 C1725 1.351 . S
C1725 C1719 1.428 . S
C1725 N1724 1.351 . S
C1725 C1726 1.434 . S
C1726 C1717 1.429 . S
C1726 N1723 1.350 . S
C1726 C1725 1.434 . S
C1727 C1728 1.369 . S
C1727 C1729 1.419 . S
C1727 H1731 0.930 . S
C1728 C1727 1.369 . S
C1728 C1737 1.429 . S
C1729 C1727 1.419 . S
C1729 C1730 1.363 . S
C1729 H1732 0.929 . S
C1730 C1729 1.363 . S
C1730 C1736 1.428 . S
H1731 C1727 0.930 . S
H1732 C1729 0.929 . S
S1733 N1734 1.613 . S
S1733 N1735 1.610 . S
N1734 S1733 1.613 . S
N1734 C1737 1.350 . S
N1735 S1733 1.610 . S
N1735 C1736 1.351 . S
C1736 C1730 1.428 . S
C1736 N1735 1.351 . S
C1736 C1737 1.434 . S
C1737 C1728 1.429 . S
C1737 N1734 1.350 . S
C1737 C1736 1.434 . S
C1738 C1739 1.369 . S
C1738 C1740 1.419 . S
C1738 H1742 0.930 . S
C1739 C1738 1.369 . S
C1739 C1748 1.429 . S
C1740 C1738 1.419 . S
C1740 C1741 1.363 . S
C1740 H1743 0.929 . S
C1741 C1740 1.363 . S
C1741 C1747 1.428 . S
H1742 C1738 0.930 . S
H1743 C1740 0.929 . S
S1744 N1745 1.613 . S
S1744 N1746 1.610 . S
N1745 S1744 1.613 . S
N1745 C1748 1.350 . S
N1746 S1744 1.610 . S
N1746 C1747 1.351 . S
C1747 C1741 1.428 . S
C1747 N1746 1.351 . S
C1747 C1748 1.434 . S
C1748 C1739 1.429 . S
C1748 N1745 1.350 . S
C1748 C1747 1.434 . S
C1749 C1750 1.369 . S
C1749 C1751 1.419 . S
C1749 H1753 0.930 . S
C1750 C1749 1.369 . S
C1750 C1759 1.429 . S
C1751 C1749 1.419 . S
C1751 C1752 1.363 . S
C1751 H1754 0.929 . S
C1752 C1751 1.363 . S
C1752 C1758 1.428 . S
H1753 C1749 0.930 . S
H1754 C1751 0.929 . S
S1755 N1756 1.613 . S
S1755 N1757 1.610 . S
N1756 S1755 1.613 . S
N1756 C1759 1.350 . S
N1757 S1755 1.610 . S
N1757 C1758 1.351 . S
C1758 C1752 1.428 . S
C1758 N1757 1.351 . S
C1758 C1759 1.434 . S
C1759 C1750 1.429 . S
C1759 N1756 1.350 . S
C1759 C1758 1.434 . S
C1760 C1761 1.369 . S
C1760 C1762 1.419 . S
C1760 H1764 0.930 . S
C1761 C1760 1.369 . S
C1761 C1770 1.429 . S
C1762 C1760 1.419 . S
C1762 C1763 1.363 . S
C1762 H1765 0.929 . S
C1763 C1762 1.363 . S
C1763 C1769 1.428 . S
H1764 C1760 0.930 . S
H1765 C1762 0.929 . S
S1766 N1767 1.613 . S
S1766 N1768 1.610 . S
N1767 S1766 1.613 . S
N1767 C1770 1.350 . S
N1768 S1766 1.610 . S
N1768 C1769 1.351 . S
C1769 C1763 1.428 . S
C1769 N1768 1.351 . S
C1769 C1770 1.434 . S
C1770 C1761 1.429 . S
C1770 N1767 1.350 . S
C1770 C1769 1.434 . S
C1771 C1772 1.369 . S
C1771 C1773 1.419 . S
C1771 H1775 0.930 . S
C1772 C1771 1.369 . S
C1772 C1781 1.429 . S
C1773 C1771 1.419 . S
C1773 C1774 1.363 . S
C1773 H1776 0.929 . S
C1774 C1773 1.363 . S
C1774 C1780 1.428 . S
H1775 C1771 0.930 . S
H1776 C1773 0.929 . S
S1777 N1778 1.613 . S
S1777 N1779 1.610 . S
N1778 S1777 1.613 . S
N1778 C1781 1.350 . S
N1779 S1777 1.610 . S
N1779 C1780 1.351 . S
C1780 C1774 1.428 . S
C1780 N1779 1.351 . S
C1780 C1781 1.434 . S
C1781 C1772 1.429 . S
C1781 N1778 1.350 . S
C1781 C1780 1.434 . S
C1782 C1783 1.369 . S
C1782 C1784 1.419 . S
C1782 H1786 0.930 . S
C1783 C1782 1.369 . S
C1783 C1792 1.429 . S
C1784 C1782 1.419 . S
C1784 C1785 1.363 . S
C1784 H1787 0.929 . S
C1785 C1784 1.363 . S
C1785 C1791 1.428 . S
H1786 C1782 0.930 . S
H1787 C1784 0.929 . S
S1788 N1789 1.613 . S
S1788 N1790 1.610 . S
N1789 S1788 1.613 . S
N1789 C1792 1.350 . S
N1790 S1788 1.610 . S
N1790 C1791 1.351 . S
C1791 C1785 1.428 . S
C1791 N1790 1.351 . S
C1791 C1792 1.434 . S
C1792 C1783 1.429 . S
C1792 N1789 1.350 . S
C1792 C1791 1.434 . S
C1793 C1794 1.369 . S
C1793 C1795 1.419 . S
C1793 H1797 0.930 . S
C1794 C1793 1.369 . S
C1794 C1803 1.429 . S
C1795 C1793 1.419 . S
C1795 C1796 1.363 . S
C1795 H1798 0.929 . S
C1796 C1795 1.363 . S
C1796 C1802 1.428 . S
H1797 C1793 0.930 . S
H1798 C1795 0.929 . S
S1799 N1800 1.613 . S
S1799 N1801 1.610 . S
N1800 S1799 1.613 . S
N1800 C1803 1.350 . S
N1801 S1799 1.610 . S
N1801 C1802 1.351 . S
C1802 C1796 1.428 . S
C1802 N1801 1.351 . S
C1802 C1803 1.434 . S
C1803 C1794 1.429 . S
C1803 N1800 1.350 . S
C1803 C1802 1.434 . S
C1804 C1805 1.369 . S
C1804 C1806 1.419 . S
C1804 H1808 0.930 . S
C1805 C1804 1.369 . S
C1805 C1814 1.429 . S
C1806 C1804 1.419 . S
C1806 C1807 1.363 . S
C1806 H1809 0.929 . S
C1807 C1806 1.363 . S
C1807 C1813 1.428 . S
H1808 C1804 0.930 . S
H1809 C1806 0.929 . S
S1810 N1811 1.613 . S
S1810 N1812 1.610 . S
N1811 S1810 1.613 . S
N1811 C1814 1.350 . S
N1812 S1810 1.610 . S
N1812 C1813 1.351 . S
C1813 C1807 1.428 . S
C1813 N1812 1.351 . S
C1813 C1814 1.434 . S
C1814 C1805 1.429 . S
C1814 N1811 1.350 . S
C1814 C1813 1.434 . S
C1815 C1816 1.369 . S
C1815 C1817 1.419 . S
C1815 H1819 0.930 . S
C1816 C1815 1.369 . S
C1816 C1825 1.429 . S
C1817 C1815 1.419 . S
C1817 C1818 1.363 . S
C1817 H1820 0.929 . S
C1818 C1817 1.363 . S
C1818 C1824 1.428 . S
H1819 C1815 0.930 . S
H1820 C1817 0.929 . S
S1821 N1822 1.613 . S
S1821 N1823 1.610 . S
N1822 S1821 1.613 . S
N1822 C1825 1.350 . S
N1823 S1821 1.610 . S
N1823 C1824 1.351 . S
C1824 C1818 1.428 . S
C1824 N1823 1.351 . S
C1824 C1825 1.434 . S
C1825 C1816 1.429 . S
C1825 N1822 1.350 . S
C1825 C1824 1.434 . S
C1826 C1827 1.369 . S
C1826 C1828 1.419 . S
C1826 H1830 0.930 . S
C1827 C1826 1.369 . S
C1827 C1836 1.429 . S
C1828 C1826 1.419 . S
C1828 C1829 1.363 . S
C1828 H1831 0.929 . S
C1829 C1828 1.363 . S
C1829 C1835 1.428 . S
H1830 C1826 0.930 . S
H1831 C1828 0.929 . S
S1832 N1833 1.613 . S
S1832 N1834 1.610 . S
N1833 S1832 1.613 . S
N1833 C1836 1.350 . S
N1834 S1832 1.610 . S
N1834 C1835 1.351 . S
C1835 C1829 1.428 . S
C1835 N1834 1.351 . S
C1835 C1836 1.434 . S
C1836 C1827 1.429 . S
C1836 N1833 1.350 . S
C1836 C1835 1.434 . S
C1837 C1838 1.369 . S
C1837 C1839 1.419 . S
C1837 H1841 0.930 . S
C1838 C1837 1.369 . S
C1838 C1847 1.429 . S
C1839 C1837 1.419 . S
C1839 C1840 1.363 . S
C1839 H1842 0.929 . S
C1840 C1839 1.363 . S
C1840 C1846 1.428 . S
H1841 C1837 0.930 . S
H1842 C1839 0.929 . S
S1843 N1844 1.613 . S
S1843 N1845 1.610 . S
N1844 S1843 1.613 . S
N1844 C1847 1.350 . S
N1845 S1843 1.610 . S
N1845 C1846 1.351 . S
C1846 C1840 1.428 . S
C1846 N1845 1.351 . S
C1846 C1847 1.434 . S
C1847 C1838 1.429 . S
C1847 N1844 1.350 . S
C1847 C1846 1.434 . S
C1848 C1849 1.369 . S
C1848 C1850 1.419 . S
C1848 H1852 0.930 . S
C1849 C1848 1.369 . S
C1849 C1858 1.429 . S
C1850 C1848 1.419 . S
C1850 C1851 1.363 . S
C1850 H1853 0.929 . S
C1851 C1850 1.363 . S
C1851 C1857 1.428 . S
H1852 C1848 0.930 . S
H1853 C1850 0.929 . S
S1854 N1855 1.613 . S
S1854 N1856 1.610 . S
N1855 S1854 1.613 . S
N1855 C1858 1.350 . S
N1856 S1854 1.610 . S
N1856 C1857 1.351 . S
C1857 C1851 1.428 . S
C1857 N1856 1.351 . S
C1857 C1858 1.434 . S
C1858 C1849 1.429 . S
C1858 N1855 1.350 . S
C1858 C1857 1.434 . S
C1859 C1860 1.369 . S
C1859 C1861 1.419 . S
C1859 H1863 0.930 . S
C1860 C1859 1.369 . S
C1860 C1869 1.429 . S
C1861 C1859 1.419 . S
C1861 C1862 1.363 . S
C1861 H1864 0.929 . S
C1862 C1861 1.363 . S
C1862 C1868 1.428 . S
H1863 C1859 0.930 . S
H1864 C1861 0.929 . S
S1865 N1866 1.613 . S
S1865 N1867 1.610 1_556 S
N1866 S1865 1.613 . S
N1866 C1869 1.350 1_556 S
N1867 S1865 1.610 1_554 S
N1867 C1868 1.351 . S
C1868 C1862 1.428 . S
C1868 N1867 1.351 . S
C1868 C1869 1.434 . S
C1869 C1860 1.429 . S
C1869 N1866 1.350 1_554 S
C1869 C1868 1.434 . S
C1870 C1871 1.369 . S
C1870 C1872 1.419 . S
C1870 H1874 0.930 . S
C1871 C1870 1.369 . S
C1871 C1880 1.429 . S
C1872 C1870 1.419 . S
C1872 C1873 1.363 . S
C1872 H1875 0.929 . S
C1873 C1872 1.363 . S
C1873 C1879 1.428 . S
H1874 C1870 0.930 . S
H1875 C1872 0.929 . S
S1876 N1877 1.613 1_556 S
S1876 N1878 1.610 . S
N1877 S1876 1.613 1_554 S
N1877 C1880 1.350 . S
N1878 S1876 1.610 . S
N1878 C1879 1.351 1_556 S
C1879 C1873 1.428 . S
C1879 N1878 1.351 1_554 S
C1879 C1880 1.434 . S
C1880 C1871 1.429 . S
C1880 N1877 1.350 . S
C1880 C1879 1.434 . S
C1881 C1882 1.369 . S
C1881 C1883 1.419 . S
C1881 H1885 0.930 . S
C1882 C1881 1.369 . S
C1882 C1891 1.429 . S
C1883 C1881 1.419 . S
C1883 C1884 1.363 . S
C1883 H1886 0.929 . S
C1884 C1883 1.363 . S
C1884 C1890 1.428 . S
H1885 C1881 0.930 . S
H1886 C1883 0.929 . S
S1887 N1888 1.613 . S
S1887 N1889 1.610 . S
N1888 S1887 1.613 . S
N1888 C1891 1.350 . S
N1889 S1887 1.610 . S
N1889 C1890 1.351 . S
C1890 C1884 1.428 . S
C1890 N1889 1.351 . S
C1890 C1891 1.434 . S
C1891 C1882 1.429 . S
C1891 N1888 1.350 . S
C1891 C1890 1.434 . S
C1892 C1893 1.369 . S
C1892 C1894 1.419 . S
C1892 H1896 0.930 . S
C1893 C1892 1.369 . S
C1893 C1902 1.429 . S
C1894 C1892 1.419 . S
C1894 C1895 1.363 . S
C1894 H1897 0.929 . S
C1895 C1894 1.363 . S
C1895 C1901 1.428 . S
H1896 C1892 0.930 . S
H1897 C1894 0.929 . S
S1898 N1899 1.613 . S
S1898 N1900 1.610 . S
N1899 S1898 1.613 . S
N1899 C1902 1.350 . S
N1900 S1898 1.610 . S
N1900 C1901 1.351 . S
C1901 C1895 1.428 . S
C1901 N1900 1.351 . S
C1901 C1902 1.434 . S
C1902 C1893 1.429 . S
C1902 N1899 1.350 . S
C1902 C1901 1.434 . S
C1903 C1904 1.369 . S
C1903 C1905 1.419 . S
C1903 H1907 0.930 . S
C1904 C1903 1.369 . S
C1904 C1913 1.429 . S
C1905 C1903 1.419 . S
C1905 C1906 1.363 . S
C1905 H1908 0.929 . S
C1906 C1905 1.363 . S
C1906 C1912 1.428 . S
H1907 C1903 0.930 . S
H1908 C1905 0.929 . S
S1909 N1910 1.613 . S
S1909 N1911 1.610 . S
N1910 S1909 1.613 . S
N1910 C1913 1.350 . S
N1911 S1909 1.610 . S
N1911 C1912 1.351 . S
C1912 C1906 1.428 . S
C1912 N1911 1.351 . S
C1912 C1913 1.434 . S
C1913 C1904 1.429 . S
C1913 N1910 1.350 . S
C1913 C1912 1.434 . S
C1914 C1915 1.384 . S
C1914 C1916 1.402 1_455 S
C1914 H1918 0.934 1_455 S
C1915 C1914 1.384 . S
C1915 C1924 1.429 . S
C1916 C1914 1.402 1_655 S
C1916 C1917 1.363 . S
C1916 H1919 0.929 . S
C1917 C1916 1.363 . S
C1917 C1923 1.416 1_655 S
H1918 C1914 0.934 1_655 S
H1919 C1916 0.929 . S
S1920 N1921 1.613 . S
S1920 N1922 1.610 . S
N1921 S1920 1.613 . S
N1921 C1924 1.350 . S
N1922 S1920 1.610 . S
N1922 C1923 1.351 . S
C1923 C1917 1.416 1_455 S
C1923 N1922 1.351 . S
C1923 C1924 1.449 . S
C1924 C1915 1.429 . S
C1924 N1921 1.350 . S
C1924 C1923 1.449 . S
C1925 C1926 1.369 . S
C1925 C1927 1.419 . S
C1925 H1929 0.930 . S
C1926 C1925 1.369 . S
C1926 C1935 1.429 . S
C1927 C1925 1.419 . S
C1927 C1928 1.363 . S
C1927 H1930 0.929 . S
C1928 C1927 1.363 . S
C1928 C1934 1.428 . S
H1929 C1925 0.930 . S
H1930 C1927 0.929 . S
S1931 N1932 1.613 . S
S1931 N1933 1.610 . S
N1932 S1931 1.613 . S
N1932 C1935 1.350 . S
N1933 S1931 1.610 . S
N1933 C1934 1.351 . S
C1934 C1928 1.428 . S
C1934 N1933 1.351 . S
C1934 C1935 1.434 . S
C1935 C1926 1.429 . S
C1935 N1932 1.350 . S
C1935 C1934 1.434 . S
C1936 C1937 1.369 . S
C1936 C1938 1.419 1_545 S
C1936 H1940 0.930 . S
C1937 C1936 1.369 . S
C1937 C1946 1.429 . S
C1938 C1936 1.419 1_565 S
C1938 C1939 1.363 . S
C1938 H1941 0.929 . S
C1939 C1938 1.363 . S
C1939 C1945 1.428 . S
H1940 C1936 0.930 . S
H1941 C1938 0.929 . S
S1942 N1943 1.613 . S
S1942 N1944 1.635 . S
N1943 S1942 1.613 . S
N1943 C1946 1.350 . S
N1944 S1942 1.635 . S
N1944 C1945 1.358 1_545 S
C1945 C1939 1.428 . S
C1945 N1944 1.358 1_565 S
C1945 C1946 1.434 1_565 S
C1946 C1937 1.429 . S
C1946 N1943 1.350 . S
C1946 C1945 1.434 1_545 S
C1947 C1948 1.369 . S
C1947 C1949 1.419 1_545 S
C1947 H1951 0.930 . S
C1948 C1947 1.369 . S
C1948 C1957 1.429 . S
C1949 C1947 1.419 1_565 S
C1949 C1950 1.363 . S
C1949 H1952 0.929 . S
C1950 C1949 1.363 . S
C1950 C1956 1.428 . S
H1951 C1947 0.930 . S
H1952 C1949 0.929 . S
S1953 N1954 1.613 1_565 S
S1953 N1955 1.610 . S
N1954 S1953 1.613 1_545 S
N1954 C1957 1.350 . S
N1955 S1953 1.610 . S
N1955 C1956 1.351 . S
C1956 C1950 1.428 . S
C1956 N1955 1.351 . S
C1956 C1957 1.434 1_565 S
C1957 C1948 1.429 . S
C1957 N1954 1.350 . S
C1957 C1956 1.434 1_545 S
C1958 C1959 1.369 . S
C1958 C1960 1.416 1_655 S
C1958 H1962 0.930 . S
C1959 C1958 1.369 . S
C1959 C1968 1.387 1_655 S
C1960 C1958 1.416 1_455 S
C1960 C1961 1.366 . S
C1960 H1963 0.924 1_455 S
C1961 C1960 1.366 . S
C1961 C1967 1.428 . S
H1962 C1958 0.930 . S
H1963 C1960 0.924 1_655 S
S1964 N1965 1.613 . S
S1964 N1966 1.610 . S
N1965 S1964 1.613 . S
N1965 C1968 1.360 . S
N1966 S1964 1.610 . S
N1966 C1967 1.351 . S
C1967 C1961 1.428 . S
C1967 N1966 1.351 . S
C1967 C1968 1.471 . S
C1968 C1959 1.387 1_455 S
C1968 N1965 1.360 . S
C1968 C1967 1.471 . S
C1969 C1970 1.369 . S
C1969 C1971 1.419 . S
C1969 H1973 0.930 . S
C1970 C1969 1.369 . S
C1970 C1979 1.429 . S
C1971 C1969 1.419 . S
C1971 C1972 1.363 . S
C1971 H1974 0.929 . S
C1972 C1971 1.363 . S
C1972 C1978 1.428 . S
H1973 C1969 0.930 . S
H1974 C1971 0.929 . S
S1975 N1976 1.613 . S
S1975 N1977 1.610 . S
N1976 S1975 1.613 . S
N1976 C1979 1.350 . S
N1977 S1975 1.610 . S
N1977 C1978 1.351 . S
C1978 C1972 1.428 . S
C1978 N1977 1.351 . S
C1978 C1979 1.434 . S
C1979 C1970 1.429 . S
C1979 N1976 1.350 . S
C1979 C1978 1.434 . S
C1980 C1981 1.369 . S
C1980 C1982 1.419 . S
C1980 H1984 0.930 . S
C1981 C1980 1.369 . S
C1981 C1990 1.429 . S
C1982 C1980 1.419 . S
C1982 C1983 1.363 . S
C1982 H1985 0.929 . S
C1983 C1982 1.363 . S
C1983 C1989 1.428 . S
H1984 C1980 0.930 . S
H1985 C1982 0.929 . S
S1986 N1987 1.613 . S
S1986 N1988 1.610 . S
N1987 S1986 1.613 . S
N1987 C1990 1.350 . S
N1988 S1986 1.610 . S
N1988 C1989 1.351 . S
C1989 C1983 1.428 . S
C1989 N1988 1.351 . S
C1989 C1990 1.434 . S
C1990 C1981 1.429 . S
C1990 N1987 1.350 . S
C1990 C1989 1.434 . S
C1991 C1992 1.369 . S
C1991 C1993 1.419 . S
C1991 H1995 0.930 . S
C1992 C1991 1.369 . S
C1992 C2001 1.429 . S
C1993 C1991 1.419 . S
C1993 C1994 1.363 . S
C1993 H1996 0.929 . S
C1994 C1993 1.363 . S
C1994 C2000 1.428 . S
H1995 C1991 0.930 . S
H1996 C1993 0.929 . S
S1997 N1998 1.613 . S
S1997 N1999 1.610 . S
N1998 S1997 1.613 . S
N1998 C2001 1.350 . S
N1999 S1997 1.610 . S
N1999 C2000 1.351 . S
C2000 C1994 1.428 . S
C2000 N1999 1.351 . S
C2000 C2001 1.434 . S
C2001 C1992 1.429 . S
C2001 N1998 1.350 . S
C2001 C2000 1.434 . S
C2002 C2003 1.369 . S
C2002 C2004 1.419 . S
C2002 H2006 0.930 . S
C2003 C2002 1.369 . S
C2003 C2012 1.429 . S
C2004 C2002 1.419 . S
C2004 C2005 1.363 . S
C2004 H2007 0.929 . S
C2005 C2004 1.363 . S
C2005 C2011 1.428 . S
H2006 C2002 0.930 . S
H2007 C2004 0.929 . S
S2008 N2009 1.613 . S
S2008 N2010 1.610 . S
N2009 S2008 1.613 . S
N2009 C2012 1.350 . S
N2010 S2008 1.610 . S
N2010 C2011 1.351 . S
C2011 C2005 1.428 . S
C2011 N2010 1.351 . S
C2011 C2012 1.434 . S
C2012 C2003 1.429 . S
C2012 N2009 1.350 . S
C2012 C2011 1.434 . S
C2013 C2014 1.369 . S
C2013 C2015 1.419 . S
C2013 H2017 0.930 . S
C2014 C2013 1.369 . S
C2014 C2023 1.429 . S
C2015 C2013 1.419 . S
C2015 C2016 1.363 . S
C2015 H2018 0.929 . S
C2016 C2015 1.363 . S
C2016 C2022 1.428 . S
H2017 C2013 0.930 . S
H2018 C2015 0.929 . S
S2019 N2020 1.613 . S
S2019 N2021 1.610 . S
N2020 S2019 1.613 . S
N2020 C2023 1.350 . S
N2021 S2019 1.610 . S
N2021 C2022 1.351 . S
C2022 C2016 1.428 . S
C2022 N2021 1.351 . S
C2022 C2023 1.434 . S
C2023 C2014 1.429 . S
C2023 N2020 1.350 . S
C2023 C2022 1.434 . S
C2024 C2025 1.369 . S
C2024 C2026 1.419 . S
C2024 H2028 0.930 . S
C2025 C2024 1.369 . S
C2025 C2034 1.429 . S
C2026 C2024 1.419 . S
C2026 C2027 1.363 . S
C2026 H2029 0.929 . S
C2027 C2026 1.363 . S
C2027 C2033 1.428 . S
H2028 C2024 0.930 . S
H2029 C2026 0.929 . S
S2030 N2031 1.613 . S
S2030 N2032 1.610 . S
N2031 S2030 1.613 . S
N2031 C2034 1.350 . S
N2032 S2030 1.610 . S
N2032 C2033 1.351 . S
C2033 C2027 1.428 . S
C2033 N2032 1.351 . S
C2033 C2034 1.434 . S
C2034 C2025 1.429 . S
C2034 N2031 1.350 . S
C2034 C2033 1.434 . S
C2035 C2036 1.369 . S
C2035 C2037 1.419 . S
C2035 H2039 0.930 . S
C2036 C2035 1.369 . S
C2036 C2045 1.429 . S
C2037 C2035 1.419 . S
C2037 C2038 1.363 . S
C2037 H2040 0.929 . S
C2038 C2037 1.363 . S
C2038 C2044 1.428 . S
H2039 C2035 0.930 . S
H2040 C2037 0.929 . S
S2041 N2042 1.613 . S
S2041 N2043 1.610 . S
N2042 S2041 1.613 . S
N2042 C2045 1.350 . S
N2043 S2041 1.610 . S
N2043 C2044 1.351 . S
C2044 C2038 1.428 . S
C2044 N2043 1.351 . S
C2044 C2045 1.434 . S
C2045 C2036 1.429 . S
C2045 N2042 1.350 . S
C2045 C2044 1.434 . S
C2046 C2047 1.369 . S
C2046 C2048 1.419 . S
C2046 H2050 0.930 . S
C2047 C2046 1.369 . S
C2047 C2056 1.429 . S
C2048 C2046 1.419 . S
C2048 C2049 1.363 . S
C2048 H2051 0.929 . S
C2049 C2048 1.363 . S
C2049 C2055 1.428 . S
H2050 C2046 0.930 . S
H2051 C2048 0.929 . S
S2052 N2053 1.613 . S
S2052 N2054 1.610 . S
N2053 S2052 1.613 . S
N2053 C2056 1.350 . S
N2054 S2052 1.610 . S
N2054 C2055 1.351 . S
C2055 C2049 1.428 . S
C2055 N2054 1.351 . S
C2055 C2056 1.434 . S
C2056 C2047 1.429 . S
C2056 N2053 1.350 . S
C2056 C2055 1.434 . S
C2057 C2058 1.369 . S
C2057 C2059 1.419 . S
C2057 H2061 0.930 . S
C2058 C2057 1.369 . S
C2058 C2067 1.429 . S
C2059 C2057 1.419 . S
C2059 C2060 1.363 . S
C2059 H2062 0.929 . S
C2060 C2059 1.363 . S
C2060 C2066 1.428 . S
H2061 C2057 0.930 . S
H2062 C2059 0.929 . S
S2063 N2064 1.613 . S
S2063 N2065 1.610 . S
N2064 S2063 1.613 . S
N2064 C2067 1.350 . S
N2065 S2063 1.610 . S
N2065 C2066 1.351 . S
C2066 C2060 1.428 . S
C2066 N2065 1.351 . S
C2066 C2067 1.434 . S
C2067 C2058 1.429 . S
C2067 N2064 1.350 . S
C2067 C2066 1.434 . S
C2068 C2069 1.369 . S
C2068 C2070 1.419 . S
C2068 H2072 0.930 . S
C2069 C2068 1.369 . S
C2069 C2078 1.429 . S
C2070 C2068 1.419 . S
C2070 C2071 1.363 . S
C2070 H2073 0.929 . S
C2071 C2070 1.363 . S
C2071 C2077 1.428 . S
H2072 C2068 0.930 . S
H2073 C2070 0.929 . S
S2074 N2075 1.613 1_554 S
S2074 N2076 1.610 1_554 S
N2075 S2074 1.613 1_556 S
N2075 C2078 1.350 . S
N2076 S2074 1.610 1_556 S
N2076 C2077 1.351 . S
C2077 C2071 1.428 . S
C2077 N2076 1.351 . S
C2077 C2078 1.434 . S
C2078 C2069 1.429 . S
C2078 N2075 1.350 . S
C2078 C2077 1.434 . S
C2079 C2080 1.369 . S
C2079 C2081 1.419 . S
C2079 H2083 0.930 . S
C2080 C2079 1.369 . S
C2080 C2089 1.429 . S
C2081 C2079 1.419 . S
C2081 C2082 1.363 . S
C2081 H2084 0.929 . S
C2082 C2081 1.363 . S
C2082 C2088 1.428 . S
H2083 C2079 0.930 . S
H2084 C2081 0.929 . S
S2085 N2086 1.613 . S
S2085 N2087 1.610 . S
N2086 S2085 1.613 . S
N2086 C2089 1.350 . S
N2087 S2085 1.610 . S
N2087 C2088 1.351 . S
C2088 C2082 1.428 . S
C2088 N2087 1.351 . S
C2088 C2089 1.434 . S
C2089 C2080 1.429 . S
C2089 N2086 1.350 . S
C2089 C2088 1.434 . S
C2090 C2091 1.369 . S
C2090 C2092 1.419 . S
C2090 H2094 0.930 . S
C2091 C2090 1.369 . S
C2091 C2100 1.429 . S
C2092 C2090 1.419 . S
C2092 C2093 1.363 . S
C2092 H2095 0.929 . S
C2093 C2092 1.363 . S
C2093 C2099 1.428 . S
H2094 C2090 0.930 . S
H2095 C2092 0.929 . S
S2096 N2097 1.613 . S
S2096 N2098 1.610 . S
N2097 S2096 1.613 . S
N2097 C2100 1.350 . S
N2098 S2096 1.610 . S
N2098 C2099 1.351 . S
C2099 C2093 1.428 . S
C2099 N2098 1.351 . S
C2099 C2100 1.434 . S
C2100 C2091 1.429 . S
C2100 N2097 1.350 . S
C2100 C2099 1.434 . S
C2101 C2102 1.369 . S
C2101 C2103 1.419 . S
C2101 H2105 0.930 . S
C2102 C2101 1.369 . S
C2102 C2111 1.429 . S
C2103 C2101 1.419 . S
C2103 C2104 1.363 . S
C2103 H2106 0.929 . S
C2104 C2103 1.363 . S
C2104 C2110 1.428 . S
H2105 C2101 0.930 . S
H2106 C2103 0.929 . S
S2107 N2108 1.613 . S
S2107 N2109 1.610 . S
N2108 S2107 1.613 . S
N2108 C2111 1.350 . S
N2109 S2107 1.610 . S
N2109 C2110 1.351 . S
C2110 C2104 1.428 . S
C2110 N2109 1.351 . S
C2110 C2111 1.434 . S
C2111 C2102 1.429 . S
C2111 N2108 1.350 . S
C2111 C2110 1.434 . S
C2112 C2113 1.369 . S
C2112 C2114 1.419 1_455 S
C2112 H2116 0.930 . S
C2113 C2112 1.369 . S
C2113 C2122 1.429 . S
C2114 C2112 1.419 1_655 S
C2114 C2115 1.363 . S
C2114 H2117 0.929 . S
C2115 C2114 1.363 . S
C2115 C2121 1.428 . S
H2116 C2112 0.930 . S
H2117 C2114 0.929 . S
S2118 N2119 1.613 1_655 S
S2118 N2120 1.610 . S
N2119 S2118 1.613 1_455 S
N2119 C2122 1.350 . S
N2120 S2118 1.610 . S
N2120 C2121 1.351 . S
C2121 C2115 1.428 . S
C2121 N2120 1.351 . S
C2121 C2122 1.434 1_655 S
C2122 C2113 1.429 . S
C2122 N2119 1.350 . S
C2122 C2121 1.434 1_455 S
C2123 C2124 1.369 . S
C2123 C2125 1.419 . S
C2123 H2127 0.930 . S
C2124 C2123 1.369 . S
C2124 C2133 1.429 . S
C2125 C2123 1.419 . S
C2125 C2126 1.363 . S
C2125 H2128 0.929 . S
C2126 C2125 1.363 . S
C2126 C2132 1.428 . S
H2127 C2123 0.930 . S
H2128 C2125 0.929 . S
S2129 N2130 1.613 . S
S2129 N2131 1.610 . S
N2130 S2129 1.613 . S
N2130 C2133 1.350 . S
N2131 S2129 1.610 . S
N2131 C2132 1.351 . S
C2132 C2126 1.428 . S
C2132 N2131 1.351 . S
C2132 C2133 1.434 . S
C2133 C2124 1.429 . S
C2133 N2130 1.350 . S
C2133 C2132 1.434 . S
C2134 C2135 1.369 . S
C2134 C2136 1.419 1_545 S
C2134 H2138 0.930 . S
C2135 C2134 1.369 . S
C2135 C2144 1.429 . S
C2136 C2134 1.419 1_565 S
C2136 C2137 1.363 . S
C2136 H2139 0.929 . S
C2137 C2136 1.363 . S
C2137 C2143 1.428 . S
H2138 C2134 0.930 . S
H2139 C2136 0.929 . S
S2140 N2141 1.613 . S
S2140 N2142 1.610 1_545 S
N2141 S2140 1.613 . S
N2141 C2144 1.350 . S
N2142 S2140 1.610 1_565 S
N2142 C2143 1.351 . S
C2143 C2137 1.428 . S
C2143 N2142 1.351 . S
C2143 C2144 1.434 1_565 S
C2144 C2135 1.429 . S
C2144 N2141 1.350 . S
C2144 C2143 1.434 1_545 S
C2145 C2146 1.369 . S
C2145 C2147 1.419 1_545 S
C2145 H2149 0.930 . S
C2146 C2145 1.369 . S
C2146 C2155 1.429 . S
C2147 C2145 1.419 1_565 S
C2147 C2148 1.363 . S
C2147 H2150 0.929 . S
C2148 C2147 1.363 . S
C2148 C2154 1.428 . S
H2149 C2145 0.930 . S
H2150 C2147 0.929 . S
S2151 N2152 1.613 1_565 S
S2151 N2153 1.610 . S
N2152 S2151 1.613 1_545 S
N2152 C2155 1.350 . S
N2153 S2151 1.610 . S
N2153 C2154 1.351 . S
C2154 C2148 1.428 . S
C2154 N2153 1.351 . S
C2154 C2155 1.434 1_565 S
C2155 C2146 1.429 . S
C2155 N2152 1.350 . S
C2155 C2154 1.434 1_545 S
C2156 C2157 1.369 . S
C2156 C2158 1.419 1_455 S
C2156 H2160 0.930 . S
C2157 C2156 1.369 . S
C2157 C2166 1.429 . S
C2158 C2156 1.419 1_655 S
C2158 C2159 1.363 . S
C2158 H2161 0.929 . S
C2159 C2158 1.363 . S
C2159 C2165 1.428 . S
H2160 C2156 0.930 . S
H2161 C2158 0.929 . S
S2162 N2163 1.613 1_655 S
S2162 N2164 1.610 . S
N2163 S2162 1.613 1_455 S
N2163 C2166 1.350 . S
N2164 S2162 1.610 . S
N2164 C2165 1.351 . S
C2165 C2159 1.428 . S
C2165 N2164 1.351 . S
C2165 C2166 1.434 1_655 S
C2166 C2157 1.429 . S
C2166 N2163 1.350 . S
C2166 C2165 1.434 1_455 S
C2167 C2168 1.369 . S
C2167 C2169 1.419 . S
C2167 H2171 0.930 . S
C2168 C2167 1.369 . S
C2168 C2177 1.429 . S
C2169 C2167 1.419 . S
C2169 C2170 1.363 . S
C2169 H2172 0.929 . S
C2170 C2169 1.363 . S
C2170 C2176 1.428 . S
H2171 C2167 0.930 . S
H2172 C2169 0.929 . S
S2173 N2174 1.613 . S
S2173 N2175 1.610 . S
N2174 S2173 1.613 . S
N2174 C2177 1.350 . S
N2175 S2173 1.610 . S
N2175 C2176 1.351 . S
C2176 C2170 1.428 . S
C2176 N2175 1.351 . S
C2176 C2177 1.434 . S
C2177 C2168 1.429 . S
C2177 N2174 1.350 . S
C2177 C2176 1.434 . S
C1189 C248 1.443 . S
C1191 N5 1.374 . S
C1200 N38 1.373 . S
C1202 C281 1.442 . S
C1211 C215 1.441 . S
C1213 N71 1.376 . S
C1222 C380 1.441 . S
C1224 N104 1.376 . S
C1233 C314 1.441 . S
C1235 N137 1.381 . S
C1244 N170 1.377 . S
C1246 C347 1.440 . S
C1255 N203 1.377 . S
C1257 C50 1.439 . S
C1266 N236 1.378 . S
C1268 C83 1.439 . S
C1277 N269 1.378 . S
C1279 C17 1.443 . S
C1288 C182 1.441 . S
C1290 N302 1.376 . S
C1299 C116 1.444 . S
C1301 N335 1.374 . S
C1310 N368 1.376 . S
C1312 C149 1.439 . S
C1321 C644 1.445 . S
C1323 N401 1.374 . S
C1332 C677 1.440 . S
C1334 N434 1.377 . S
C1343 C611 1.439 . S
C1345 N467 1.382 . S
C1354 C776 1.441 . S
C1356 N500 1.375 . S
C1365 C710 1.444 . S
C1367 N533 1.374 . S
C1376 C743 1.437 . S
C1378 N566 1.381 . S
C1387 N599 1.372 . S
C1389 C446 1.443 . S
C1398 N632 1.383 . S
C1400 C479 1.437 . S
C1409 C413 1.440 . S
C1411 N665 1.382 . S
C1420 N698 1.373 . S
C1422 C578 1.442 . S
C1431 N731 1.377 . S
C1433 C512 1.443 . S
C1442 N764 1.385 . S
C1444 C545 1.437 . S
C1453 C1040 1.440 . S
C1455 N797 1.377 . S
C1464 C1073 1.443 . S
C1466 N830 1.374 . S
C1475 N863 1.372 . S
C1477 C1007 1.443 . S
C1486 N896 1.373 . S
C1488 C1172 1.444 . S
C1497 N929 1.372 . S
C1499 C1106 1.443 . S
C1508 N962 1.372 . S
C1510 C1139 1.443 . S
C1519 C842 1.437 . S
C1521 N995 1.382 . S
C1530 C875 1.442 . S
C1532 N1028 1.374 . S
C1541 N1061 1.372 . S
C1543 C809 1.443 . S
C1552 C974 1.441 . S
C1554 N1094 1.381 . S
C1563 C908 1.437 . S
C1565 N1127 1.381 . S
C1574 N1160 1.375 . S
C1576 C941 1.443 . S
C1585 C8 1.740 . S
C1587 C107 1.743 . S
C1596 C41 1.746 . S
C1598 C140 1.738 . S
C1607 C74 1.742 . S
C1609 C173 1.740 . S
C1618 C305 1.741 . S
C1620 C206 1.742 . S
C1629 C338 1.738 . S
C1631 C239 1.745 . S
C1640 C371 1.740 . S
C1642 C272 1.743 . S
C1651 C404 1.739 . S
C1653 C503 1.744 . S
C1662 C437 1.743 . S
C1664 C536 1.740 . S
C1673 C569 1.738 . S
C1675 C470 1.745 . S
C1684 C602 1.743 . S
C1686 C701 1.740 1_554 S
C1695 C734 1.737 1_554 S
C1697 C635 1.745 . S
C1706 C767 1.746 1_554 S
C1708 C668 1.738 . S
C1717 C899 1.745 1_556 S
C1719 C800 1.739 . S
C1728 C932 1.745 1_556 S
C1730 C833 1.738 . S
C1739 C965 1.740 1_556 S
C1741 C866 1.744 . S
C1750 C1097 1.738 . S
C1752 C998 1.744 . S
C1761 C1130 1.744 . S
C1763 C1031 1.740 . S
C1772 C1064 1.741 . S
C1774 C1163 1.742 . S
C1783 C28 2.282 . S
C1785 C556 2.284 . S
C1794 C589 2.281 . S
C1796 C61 2.282 . S
C1805 C94 2.285 . S
C1807 C523 2.283 . S
C1816 C886 2.284 . S
C1818 C127 2.282 . S
C1827 C160 2.282 . S
C1829 C820 2.282 . S
C1838 C853 2.285 . S
C1840 C193 2.283 . S
C1849 C1150 2.281 . S
C1851 C226 2.283 . S
C1860 C259 2.282 . S
C1862 C1183 2.283 . S
C1871 C1117 2.283 . S
C1873 C292 2.282 . S
C1882 C325 2.284 . S
C1884 C688 2.283 . S
C1893 C358 2.285 . S
C1895 C622 2.283 . S
C1904 C655 2.283 . S
C1906 C391 2.284 . S
C1915 C952 2.284 . S
C1917 C424 2.282 . S
C1926 C985 2.285 . S
C1928 C457 2.283 . S
C1937 C490 2.284 . S
C1939 C919 2.282 . S
C1948 C721 2.281 . S
C1950 C1084 2.283 . S
C1959 C754 2.282 . S
C1961 C1018 2.284 . S
C1970 C1051 2.284 . S
C1972 C787 2.282 . S
C1981 N971 0.791 . S
C1983 N14 0.772 . S
C1992 N905 0.767 . S
C1994 N47 0.791 . S
C2003 N938 0.777 . S
C2005 N80 0.782 . S
C2014 N113 0.788 . S
C2016 N443 0.778 . S
C2025 N146 0.774 . S
C2027 N476 0.788 . S
C2036 N410 0.771 . S
C2038 N179 0.787 . S
C2047 N212 0.770 . S
C2049 N773 0.787 . S
C2058 N707 0.770 . S
C2060 N245 0.791 . S
C2069 N278 0.776 . S
C2071 N740 0.788 . S
C2080 N311 0.775 . S
C2082 N1037 0.782 . S
C2091 N1070 0.792 . S
C2093 N344 0.776 . S
C2102 N377 0.783 . S
C2104 N1004 0.784 . S
C2113 N839 0.795 . S
C2115 N509 0.771 . S
C2124 N542 0.769 . S
C2126 N872 0.791 . S
C2135 N575 0.772 . S
C2137 N806 0.790 . S
C2146 N608 0.794 . S
C2148 N1169 0.770 . S
C2157 N1103 0.795 . S
C2159 N641 0.771 . S
C2168 N1136 0.784 . S
C2170 N674 0.783 . S
