# Generated by pormake.
# Topology snp, (6)-cn, num edge types: 1
# Building blocks:
#     Node 0, Type 0, BuildingBlock: VOLQOD_clean_sbu_1, # of connection points: 6
#     Node 1, Type 0, BuildingBlock: VOLQOD_clean_sbu_1, # of connection points: 6
#     Node 2, Type 0, BuildingBlock: VOLQOD_clean_sbu_1, # of connection points: 6
#     Node 3, Type 0, BuildingBlock: VOLQOD_clean_sbu_1, # of connection points: 6
#     Edge 4, Type (0, 0), BuildingBlock: KIFKEQ_clean_linker_1, # of connection points: 2
#     Edge 5, Type (0, 0), BuildingBlock: KIFKEQ_clean_linker_1, # of connection points: 2
#     Edge 6, Type (0, 0), BuildingBlock: KIFKEQ_clean_linker_1, # of connection points: 2
#     Edge 7, Type (0, 0), BuildingBlock: KIFKEQ_clean_linker_1, # of connection points: 2
#     Edge 8, Type (0, 0), BuildingBlock: KIFKEQ_clean_linker_1, # of connection points: 2
#     Edge 9, Type (0, 0), BuildingBlock: KIFKEQ_clean_linker_1, # of connection points: 2
#     Edge 10, Type (0, 0), BuildingBlock: KIFKEQ_clean_linker_1, # of connection points: 2
#     Edge 11, Type (0, 0), BuildingBlock: KIFKEQ_clean_linker_1, # of connection points: 2
#     Edge 12, Type (0, 0), BuildingBlock: KIFKEQ_clean_linker_1, # of connection points: 2
#     Edge 13, Type (0, 0), BuildingBlock: KIFKEQ_clean_linker_1, # of connection points: 2
#     Edge 14, Type (0, 0), BuildingBlock: KIFKEQ_clean_linker_1, # of connection points: 2
#     Edge 15, Type (0, 0), BuildingBlock: KIFKEQ_clean_linker_1, # of connection points: 2
# Relax obj value: 0.790
# Max RMSD: 0.301
# Mean RMSD: 0.301
data_MOF--net-snp--node1-VOLQOD_clean_sbu_1--edge1-KIFKEQ_clean_linker_1
_symmetry_space_group_name_H-M    P1
_symmetry_Int_Tables_number       1
_symmetry_cell_setting            triclinic
loop_
_symmetry_equiv_pos_as_xyz
'x, y, z'
_cell_length_a     29.618291
_cell_length_b     30.158915
_cell_length_c     25.154771
_cell_angle_alpha  89.725223
_cell_angle_beta   89.983424
_cell_angle_gamma 102.99277
loop_
_atom_site_label
_atom_site_type_symbol
_atom_site_fract_x
_atom_site_fract_y
_atom_site_fract_z
_atom_type_partial_charge
O0 O 0.15415 0.0703 0.00752 0.0
Zn1 Zn 0.18778 0.0202 0.99547 0.0
O2 O 0.25361 0.04442 -0.00187 0.0
Zn3 Zn 0.28048 0.03039 0.93263 0.0
Zn4 Zn 0.26604 0.10968 0.00757 0.0
Zn5 Zn 0.28001 0.02232 0.05978 0.0
O6 O 0.33975 0.01115 0.94898 0.0
O7 O 0.3378 0.00379 0.03733 0.0
O8 O 0.16829 0.98544 0.92775 0.0
O9 O 0.23567 0.98221 0.89092 0.0
O10 O 0.29331 0.08647 0.88642 0.0
O11 O 0.27941 0.142 0.93744 0.0
O12 O 0.31624 0.13319 0.06042 0.0
O13 O 0.16855 0.97556 0.05568 0.0
O14 O 0.29765 0.07303 0.11308 0.0
O15 O 0.23401 0.97197 0.09675 0.0
C16 C 0.16756 0.10567 0.03601 0.0
C17 C 0.35767 0.00196 0.99265 0.0
C18 C 0.29052 0.12771 0.89276 0.0
C19 C 0.1915 0.97056 0.89195 0.0
C20 C 0.31501 0.11535 0.10649 0.0
C21 C 0.19017 0.95907 0.09183 0.0
O22 O 0.21029 0.1231 0.04302 0.0
O23 O 0.02407 0.19381 0.45459 0.0
Zn24 Zn 0.03526 0.25743 0.47468 0.0
O25 O 0.10106 0.27833 0.48125 0.0
Zn26 Zn 0.11023 0.31235 0.54605 0.0
Zn27 Zn 0.13276 0.22972 0.48502 0.0
Zn28 Zn 0.11825 0.31314 0.41751 0.0
O29 O 0.11254 0.37728 0.52532 0.0
O30 O 0.12198 0.37804 0.437 0.0
O31 O 0.00141 0.25427 0.54414 0.0
O32 O 0.05764 0.2873 0.5983 0.0
O33 O 0.16768 0.30371 0.58335 0.0
O34 O 0.17101 0.23564 0.55154 0.0
O35 O 0.17898 0.23582 0.42579 0.0
O36 O 0.00603 0.2854 0.41557 0.0
O37 O 0.1768 0.3008 0.38468 0.0
O38 O 0.06708 0.29464 0.36278 0.0
C39 C 0.0447 0.16185 0.46241 0.0
C40 C 0.11735 0.39815 0.48057 0.0
C41 C 0.18469 0.26843 0.58376 0.0
C42 C 0.01619 0.26486 0.59088 0.0
C43 C 0.1946 0.26633 0.39111 0.0
C44 C 0.02335 0.28809 0.36906 0.0
O45 O 0.08621 0.16925 0.47982 0.0
O46 O 0.91873 0.98403 0.01362 0.0
Zn47 Zn 0.8734 0.02291 -0.00193 0.0
O48 O 0.81156 0.9866 0.00201 0.0
Zn49 Zn 0.78177 -0.01183 0.93441 0.0
Zn50 Zn 0.81684 0.92613 0.01806 0.0
Zn51 Zn 0.77874 0.00142 0.06353 0.0
O52 O 0.71701 -0.00402 0.94911 0.0
O53 O 0.71672 0.00693 0.03704 0.0
O54 O 0.88638 0.0557 0.9278 0.0
O55 O 0.81814 0.03964 0.88708 0.0
O56 O 0.77881 0.92763 0.89748 0.0
O57 O 0.81544 0.88942 0.95249 0.0
O58 O 0.76493 0.89308 0.06258 0.0
O59 O 0.88175 0.07074 0.05462 0.0
O60 O 0.76593 0.94935 0.11851 0.0
O61 O 0.81479 0.05959 0.09831 0.0
C62 C 0.91319 0.95652 0.05285 0.0
C63 C 0.6965 0.0029 0.99195 0.0
C64 C 0.79502 0.89281 0.90858 0.0
C65 C 0.86049 0.06133 0.88903 0.0
C66 C 0.7559 0.90689 0.10803 0.0
C67 C 0.85632 0.08206 0.09066 0.0
O68 O 0.87341 0.93215 0.06359 0.0
O69 O 0.91903 0.85716 0.50016 0.0
Zn70 Zn 0.9536 0.80878 0.49705 0.0
O71 O 0.90883 0.75105 0.49848 0.0
Zn72 Zn 0.92359 0.71673 0.55943 0.0
Zn73 Zn 0.84535 0.75885 0.50696 0.0
Zn74 Zn 0.91285 0.72101 0.43058 0.0
O75 O 0.94285 0.66166 0.53246 0.0
O76 O 0.93313 0.6629 0.44443 0.0
O77 O -0.00349 0.81814 0.55941 0.0
O78 O 0.97592 0.75353 0.60444 0.0
O79 O 0.87009 0.70037 0.61055 0.0
O80 O 0.81591 0.73061 0.57385 0.0
O81 O 0.80605 0.73767 0.44394 0.0
O82 O -0.00779 0.81886 0.4307 0.0
O83 O 0.85328 0.71375 0.38815 0.0
O84 O 0.96205 0.75824 0.38252 0.0
C85 C 0.87716 0.85966 0.50653 0.0
C86 C 0.94517 0.64474 0.48647 0.0
C87 C 0.83011 0.70939 0.61188 0.0
C88 C 0.00121 0.79348 0.5992 0.0
C89 C 0.81419 0.72287 0.39854 0.0
C90 C -0.00897 0.79606 0.38815 0.0
O91 O 0.84422 0.82481 0.51097 0.0
H92 H -0.00205 0.9368 0.06318 0.0
H93 H 0.90353 0.00825 0.13622 0.0
H94 H 0.06286 -0.01082 0.10456 0.0
H95 H 0.96883 0.06297 0.17419 0.0
H96 H 0.17351 0.09076 0.14041 0.0
H97 H 0.10507 0.05338 0.19051 0.0
H98 H 0.01843 0.09834 0.07369 0.0
H99 H 0.08648 0.13216 0.02138 0.0
C100 C -0.00902 0.96184 0.0909 0.0
C101 C 0.94624 0.96907 0.09623 0.0
C102 C 0.02802 -0.00816 0.11483 0.0
C103 C 0.02058 0.03046 0.14167 0.0
C104 C 0.97525 0.03337 0.15393 0.0
C105 C 0.93803 0.00214 0.13193 0.0
C106 C 0.14 0.0955 0.12745 0.0
C107 C 0.13475 0.11314 0.07652 0.0
C108 C 0.10086 0.07415 0.1564 0.0
C109 C 0.05675 0.07234 0.1353 0.0
C110 C 0.05224 0.09943 0.09077 0.0
C111 C 0.09119 0.11882 0.06056 0.0
H112 H 0.88347 0.91814 0.58782 0.0
H113 H 0.85651 0.9028 0.41978 0.0
H114 H 0.91831 -0.00134 0.5743 0.0
H115 H 0.89255 0.98271 0.40557 0.0
H116 H 0.96665 0.13374 0.40427 0.0
H117 H 0.9067 0.06509 0.41951 0.0
H118 H -0.00382 0.01771 0.53163 0.0
H119 H 0.05563 0.08714 0.51778 0.0
C120 C 0.88225 0.93281 0.54856 0.0
C121 C 0.86816 0.90486 0.50465 0.0
C122 C 0.90307 0.97849 0.54059 0.0
C123 C 0.90995 -0.00402 0.48864 0.0
C124 C 0.8882 0.96984 0.44596 0.0
C125 C 0.867 0.92424 0.45411 0.0
C126 C 0.97374 0.10825 0.4316 0.0
C127 C 0.01553 0.11576 0.46034 0.0
C128 C 0.93928 0.06929 0.44056 0.0
C129 C 0.94621 0.03715 0.47818 0.0
C130 C -0.01066 0.04303 0.50394 0.0
C131 C 0.02383 0.0821 0.49506 0.0
H132 H 0.64558 0.02735 0.91061 0.0
H133 H 0.63478 0.97243 0.07017 0.0
H134 H 0.56212 0.02281 0.90998 0.0
H135 H 0.55169 0.96504 0.06857 0.0
H136 H 0.4172 0.01111 0.07582 0.0
H137 H 0.49849 0.01022 0.07391 0.0
H138 H 0.48744 0.97437 0.90729 0.0
H139 H 0.40589 0.97789 0.90867 0.0
C140 C 0.62523 0.0141 0.94533 0.0
C141 C 0.64655 0.00108 0.99077 0.0
C142 C 0.57742 0.01096 0.94484 0.0
C143 C 0.55011 -0.00623 0.98938 0.0
C144 C 0.57165 0.97961 0.03413 0.0
C145 C 0.61934 0.98378 0.03506 0.0
C146 C 0.43185 0.00239 0.03889 0.0
C147 C 0.40516 -0.00539 0.99236 0.0
C148 C 0.47861 0.00171 0.0378 0.0
C149 C 0.4997 -0.00776 0.9904 0.0
C150 C 0.47254 0.98266 0.94422 0.0
C151 C 0.42574 0.98419 0.9451 0.0
H152 H 0.11731 0.45826 0.56166 0.0
H153 H 0.09203 0.43983 0.39304 0.0
H154 H 0.07929 0.52196 0.56064 0.0
H155 H 0.05189 0.50121 0.39259 0.0
H156 H -0.00294 0.62886 0.40283 0.0
H157 H 0.04925 0.57721 0.40037 0.0
H158 H 0.0009 0.52568 0.55603 0.0
H159 H 0.95079 0.57943 0.55953 0.0
C160 C 0.10445 0.46837 0.52424 0.0
C161 C 0.10698 0.4436 0.47767 0.0
C162 C 0.08206 0.50439 0.52375 0.0
C163 C 0.06116 0.51571 0.4769 0.0
C164 C 0.0675 0.49355 0.42942 0.0
C165 C 0.09064 0.45818 0.4297 0.0
C166 C -0.00287 0.60595 0.43613 0.0
C167 C 0.9698 0.60786 0.48129 0.0
C168 C 0.02722 0.57649 0.43486 0.0
C169 C 0.02985 0.5477 0.47831 0.0
C170 C 0.00092 0.54839 0.52255 0.0
C171 C 0.97156 0.57854 0.52426 0.0
H172 H 0.20937 0.29389 0.28777 0.0
H173 H 0.2619 0.22053 0.4124 0.0
H174 H 0.25691 0.26545 0.22311 0.0
H175 H 0.31138 0.1938 0.34839 0.0
H176 H 0.33883 0.20878 0.10905 0.0
H177 H 0.32685 0.2564 0.18339 0.0
H178 H 0.29212 0.13694 0.28408 0.0
H179 H 0.30575 0.09006 0.21091 0.0
C180 C 0.2324 0.27302 0.30162 0.0
C181 C 0.23126 0.25864 0.35481 0.0
C182 C 0.25998 0.25683 0.26458 0.0
C183 C 0.28747 0.22648 0.28025 0.0
C184 C 0.28971 0.21601 0.33459 0.0
C185 C 0.26153 0.2315 0.37135 0.0
C186 C 0.33023 0.19294 0.14758 0.0
C187 C 0.32216 0.14539 0.15365 0.0
C188 C 0.32291 0.22024 0.19012 0.0
C189 C 0.30728 0.20052 0.23949 0.0
C190 C 0.30422 0.15363 0.24688 0.0
C191 C 0.31184 0.12647 0.20457 0.0
H192 H 0.03517 0.27643 0.69769 0.0
H193 H 0.93234 0.20401 0.58848 0.0
H194 H -0.00553 0.2315 0.77121 0.0
H195 H 0.89294 0.15802 0.66121 0.0
H196 H 0.81489 0.09488 0.80809 0.0
H197 H 0.84825 0.15018 0.7395 0.0
H198 H 0.98485 0.15674 0.80394 0.0
H199 H 0.95144 0.10309 0.87318 0.0
C200 C 0.00357 0.25141 0.68937 0.0
C201 C 0.98732 0.24386 0.63693 0.0
C202 C 0.98045 0.22516 0.73152 0.0
C203 C 0.94068 0.19035 0.72234 0.0
C204 C 0.92311 0.18458 0.67026 0.0
C205 C 0.94595 0.21106 0.62826 0.0
C206 C 0.85203 0.10822 0.80762 0.0
C207 C 0.88037 0.09436 0.84626 0.0
C208 C 0.87127 0.13993 0.76813 0.0
C209 C 0.91942 0.15836 0.76597 0.0
C210 C 0.9476 0.14433 0.80472 0.0
C211 C 0.92838 0.11303 0.84433 0.0
H212 H 0.8247 0.70796 0.29219 0.0
H213 H 0.73427 0.754 0.40389 0.0
H214 H 0.79229 0.74522 0.22039 0.0
H215 H 0.70237 0.79162 0.33189 0.0
H216 H 0.75182 0.92019 0.21573 0.0
H217 H 0.74758 0.8624 0.2849 0.0
H218 H 0.72497 0.7573 0.16562 0.0
H219 H 0.72892 0.81478 0.09646 0.0
C220 C 0.79666 0.7244 0.30124 0.0
C221 C 0.78312 0.72898 0.35412 0.0
C222 C 0.77805 0.74587 0.25997 0.0
C223 C 0.74563 0.77233 0.27085 0.0
C224 C 0.72799 0.77221 0.3226 0.0
C225 C 0.74618 0.75032 0.36377 0.0
C226 C 0.74446 0.8847 0.20434 0.0
C227 C 0.74169 0.87228 0.1505 0.0
C228 C 0.74187 0.8515 0.244 0.0
C229 C 0.73657 0.80534 0.23051 0.0
C230 C 0.72969 0.79263 0.17708 0.0
C231 C 0.73195 0.82569 0.13753 0.0
H232 H 0.07314 0.86783 0.59203 0.0
H233 H 0.00345 0.76501 0.70275 0.0
H234 H 0.12167 0.9063 0.66372 0.0
H235 H 0.05224 0.80376 0.7747 0.0
H236 H 0.10008 0.92627 0.89109 0.0
H237 H 0.05787 0.87873 0.821 0.0
H238 H 0.18352 0.89744 0.72837 0.0
H239 H 0.22597 0.94512 0.7985 0.0
C240 C 0.06857 0.85308 0.63156 0.0
C241 C 0.03426 0.8134 0.64167 0.0
C242 C 0.09658 0.87505 0.67261 0.0
C243 C 0.09066 0.8582 0.72491 0.0
C244 C 0.05732 0.81777 0.73484 0.0
C245 C 0.02963 0.7954 0.69357 0.0
C246 C 0.11886 0.92009 0.85595 0.0
C247 C 0.16642 0.93978 0.85036 0.0
C248 C 0.09468 0.89251 0.81596 0.0
C249 C 0.11735 0.88433 0.76916 0.0
C250 C 0.16504 0.90339 0.76385 0.0
C251 C 0.18937 0.93058 0.80413 0.0
H252 H 0.76675 0.89156 0.80509 0.0
H253 H 0.80738 0.80698 0.92711 0.0
H254 H 0.7597 0.82973 0.742 0.0
H255 H 0.7988 0.74442 0.86435 0.0
H256 H 0.86379 0.69551 0.71016 0.0
H257 H 0.84296 0.7299 0.79039 0.0
H258 H 0.72104 0.75536 0.71276 0.0
H259 H 0.74296 0.72226 0.63133 0.0
C260 C 0.77353 0.85954 0.81865 0.0
C261 C 0.7885 0.85453 0.87078 0.0
C262 C 0.76881 0.82372 0.78267 0.0
C263 C 0.77852 0.78188 0.79812 0.0
C264 C 0.79152 0.77628 0.85098 0.0
C265 C 0.79664 0.81225 0.88686 0.0
C266 C 0.83144 0.70658 0.71066 0.0
C267 C 0.80616 0.70805 0.66364 0.0
C268 C 0.81942 0.72646 0.75698 0.0
C269 C 0.78143 0.74728 0.75719 0.0
C270 C 0.7516 0.74126 0.71306 0.0
C271 C 0.76389 0.72179 0.66655 0.0
H272 H 0.22123 0.92875 0.18473 0.0
H273 H 0.09766 0.91852 0.08983 0.0
H274 H 0.17492 0.88461 0.25522 0.0
H275 H 0.05147 0.87493 0.16065 0.0
H276 H 0.06606 0.86777 0.39131 0.0
H277 H 0.11574 0.90161 0.3178 0.0
H278 H 0.03793 0.80111 0.2111 0.0
H279 H 0.98788 0.7671 0.28474 0.0
C280 C 0.18433 0.91663 0.17854 0.0
C281 C 0.16316 0.9275 0.13171 0.0
C282 C 0.15778 0.8916 0.21912 0.0
C283 C 0.10953 0.87659 0.21363 0.0
C284 C 0.08862 0.88572 0.16591 0.0
C285 C 0.11511 0.91095 0.12544 0.0
C286 C 0.05966 0.85262 0.35229 0.0
C287 C 0.02287 0.81478 0.34393 0.0
C288 C 0.08836 0.87186 0.31023 0.0
C289 C 0.08077 0.85399 0.25869 0.0
C290 C 0.04441 0.81578 0.25035 0.0
C291 C 0.01592 0.7962 0.29259 0.0
H292 H 0.25673 0.2267 0.57598 0.0
H293 H 0.18585 0.29691 0.6861 0.0
H294 H 0.30083 0.20411 0.64905 0.0
H295 H 0.22712 0.27185 0.75968 0.0
H296 H 0.29867 0.22012 0.88991 0.0
H297 H 0.2902 0.26622 0.81221 0.0
H298 H 0.27947 0.14787 0.71233 0.0
H299 H 0.29047 0.1031 0.78886 0.0
C300 C 0.25112 0.23774 0.61589 0.0
C301 C 0.21753 0.26288 0.62573 0.0
C302 C 0.27607 0.22457 0.65784 0.0
C303 C 0.26674 0.23496 0.71065 0.0
C304 C 0.2357 0.26333 0.71974 0.0
C305 C 0.21168 0.27755 0.67756 0.0
C306 C 0.29568 0.2044 0.85106 0.0
C307 C 0.29442 0.15778 0.84565 0.0
C308 C 0.29053 0.23074 0.80652 0.0
C309 C 0.28322 0.21077 0.75587 0.0
C310 C 0.28552 0.16491 0.75028 0.0
C311 C 0.29145 0.13889 0.79453 0.0
H312 H 0.9475 0.12344 0.10051 0.0
H313 H 0.81205 0.12787 0.16076 0.0
H314 H 0.98309 0.18152 0.16289 0.0
H315 H 0.84761 0.18839 0.22184 0.0
H316 H 0.04358 0.29821 0.26275 0.0
H317 H -0.00119 0.257 0.18993 0.0
H318 H 0.89001 0.19737 0.30058 0.0
H319 H 0.93345 0.24037 0.37222 0.0
C320 C 0.92516 0.13751 0.12644 0.0
C321 C 0.8769 0.12062 0.1259 0.0
C322 C 0.94564 0.1714 0.16205 0.0
C323 C 0.91841 0.1901 0.19767 0.0
C324 C 0.86987 0.1744 0.19571 0.0
C325 C 0.84937 0.13981 0.16052 0.0
C326 C 0.00948 0.27733 0.27112 0.0
C327 C -0.00764 0.2723 0.32339 0.0
C328 C 0.98396 0.2532 0.22947 0.0
C329 C 0.94113 0.22277 0.23932 0.0
C330 C 0.92258 0.22052 0.29102 0.0
C331 C 0.9477 0.24526 0.33241 0.0
loop_
_geom_bond_atom_site_label_1
_geom_bond_atom_site_label_2
_geom_bond_distance
_geom_bond_site_symmetry_2
_ccdc_geom_bond_type
O0 Zn1 1.953 1_545 S
O0 C16 1.225 1_556 S
Zn1 O0 1.953 1_565 S
Zn1 O2 1.949 1_566 S
Zn1 O8 1.919 . S
Zn1 O13 1.924 1_556 S
O2 Zn1 1.949 1_544 S
O2 Zn3 1.923 1_554 S
O2 Zn4 1.950 . S
O2 Zn5 1.945 . S
Zn3 O2 1.923 1_556 S
Zn3 O6 1.933 . S
Zn3 O9 1.941 . S
Zn3 O10 1.965 . S
Zn4 O2 1.950 . S
Zn4 O11 1.938 1_554 S
Zn4 O12 1.906 . S
Zn4 O22 1.953 . S
Zn5 O2 1.945 . S
Zn5 O7 1.932 . S
Zn5 O14 1.977 . S
Zn5 O15 1.910 1_545 S
O6 Zn3 1.933 . S
O6 C17 1.226 1_556 S
O7 Zn5 1.932 . S
O7 C17 1.307 . S
O8 Zn1 1.919 . S
O8 C19 1.253 . S
O9 Zn3 1.941 . S
O9 C19 1.283 1_545 S
O10 Zn3 1.965 . S
O10 C18 1.303 . S
O11 Zn4 1.938 1_556 S
O11 C18 1.247 . S
O12 Zn4 1.906 . S
O12 C20 1.304 . S
O13 Zn1 1.924 1_554 S
O13 C21 1.311 . S
O14 Zn5 1.977 . S
O14 C20 1.272 . S
O15 Zn5 1.910 1_565 S
O15 C21 1.231 . S
C16 O0 1.225 1_554 S
C16 O22 1.298 . S
C17 O6 1.226 1_554 S
C17 O7 1.307 . S
C18 O10 1.303 . S
C18 O11 1.247 . S
C19 O8 1.253 . S
C19 O9 1.283 1_565 S
C20 O12 1.304 . S
C20 O14 1.272 . S
C21 O13 1.311 . S
C21 O15 1.231 . S
O22 Zn4 1.953 . S
O22 C16 1.298 . S
O23 Zn24 1.953 1_455 S
O23 C39 1.225 . S
Zn24 O23 1.953 1_655 S
Zn24 O25 1.949 1_655 S
Zn24 O31 1.919 . S
Zn24 O36 1.924 . S
O25 Zn24 1.949 1_455 S
O25 Zn26 1.923 . S
O25 Zn27 1.950 . S
O25 Zn28 1.945 . S
Zn26 O25 1.923 . S
Zn26 O29 1.933 . S
Zn26 O32 1.941 . S
Zn26 O33 1.965 . S
Zn27 O25 1.950 . S
Zn27 O34 1.938 . S
Zn27 O35 1.906 . S
Zn27 O45 1.953 . S
Zn28 O25 1.945 . S
Zn28 O30 1.932 . S
Zn28 O37 1.977 . S
Zn28 O38 1.910 1_455 S
O29 Zn26 1.933 . S
O29 C40 1.226 . S
O30 Zn28 1.932 . S
O30 C40 1.307 . S
O31 Zn24 1.919 . S
O31 C42 1.253 . S
O32 Zn26 1.941 . S
O32 C42 1.283 1_455 S
O33 Zn26 1.965 . S
O33 C41 1.303 . S
O34 Zn27 1.938 . S
O34 C41 1.247 . S
O35 Zn27 1.906 . S
O35 C43 1.304 . S
O36 Zn24 1.924 . S
O36 C44 1.311 . S
O37 Zn28 1.977 . S
O37 C43 1.272 . S
O38 Zn28 1.910 1_655 S
O38 C44 1.231 . S
C39 O23 1.225 . S
C39 O45 1.298 . S
C40 O29 1.226 . S
C40 O30 1.307 . S
C41 O33 1.303 . S
C41 O34 1.247 . S
C42 O31 1.253 . S
C42 O32 1.283 1_655 S
C43 O35 1.304 . S
C43 O37 1.272 . S
C44 O36 1.311 . S
C44 O38 1.231 . S
O45 Zn27 1.953 . S
O45 C39 1.298 . S
O46 Zn47 1.953 . S
O46 C62 1.225 1_556 S
Zn47 O46 1.953 . S
Zn47 O48 1.950 1_556 S
Zn47 O54 1.919 . S
Zn47 O59 1.924 1_556 S
O48 Zn47 1.950 1_554 S
O48 Zn49 1.923 1_544 S
O48 Zn50 1.949 1_545 S
O48 Zn51 1.945 . S
Zn49 O48 1.923 1_566 S
Zn49 O52 1.933 . S
Zn49 O55 1.941 1_565 S
Zn49 O56 1.965 . S
Zn50 O48 1.949 1_565 S
Zn50 O57 1.938 1_554 S
Zn50 O58 1.906 . S
Zn50 O68 1.953 . S
Zn51 O48 1.945 . S
Zn51 O53 1.932 . S
Zn51 O60 1.977 1_545 S
Zn51 O61 1.910 . S
O52 Zn49 1.933 . S
O52 C63 1.226 1_556 S
O53 Zn51 1.932 . S
O53 C63 1.307 1_545 S
O54 Zn47 1.919 . S
O54 C65 1.253 . S
O55 Zn49 1.941 1_545 S
O55 C65 1.283 . S
O56 Zn49 1.965 . S
O56 C64 1.303 . S
O57 Zn50 1.938 1_556 S
O57 C64 1.247 . S
O58 Zn50 1.906 . S
O58 C66 1.304 . S
O59 Zn47 1.924 1_554 S
O59 C67 1.311 . S
O60 Zn51 1.977 1_565 S
O60 C66 1.272 . S
O61 Zn51 1.910 . S
O61 C67 1.231 . S
C62 O46 1.225 1_554 S
C62 O68 1.298 1_545 S
C63 O52 1.226 1_554 S
C63 O53 1.307 1_565 S
C64 O56 1.303 . S
C64 O57 1.247 . S
C65 O54 1.253 . S
C65 O55 1.283 . S
C66 O58 1.304 . S
C66 O60 1.272 . S
C67 O59 1.311 . S
C67 O61 1.231 . S
O68 Zn50 1.953 . S
O68 C62 1.298 1_565 S
O69 Zn70 1.953 . S
O69 C85 1.225 . S
Zn70 O69 1.953 . S
Zn70 O71 1.949 . S
Zn70 O77 1.919 . S
Zn70 O82 1.924 . S
O71 Zn70 1.949 . S
O71 Zn72 1.923 1_455 S
O71 Zn73 1.949 1_455 S
O71 Zn74 1.945 . S
Zn72 O71 1.923 1_655 S
Zn72 O75 1.933 . S
Zn72 O78 1.941 1_655 S
Zn72 O79 1.965 . S
Zn73 O71 1.949 1_655 S
Zn73 O80 1.938 . S
Zn73 O81 1.906 . S
Zn73 O91 1.953 . S
Zn74 O71 1.945 . S
Zn74 O76 1.932 . S
Zn74 O83 1.977 1_455 S
Zn74 O84 1.910 . S
O75 Zn72 1.933 . S
O75 C86 1.226 . S
O76 Zn74 1.932 . S
O76 C86 1.307 1_455 S
O77 Zn70 1.919 . S
O77 C88 1.253 . S
O78 Zn72 1.941 1_455 S
O78 C88 1.283 . S
O79 Zn72 1.965 . S
O79 C87 1.303 . S
O80 Zn73 1.938 . S
O80 C87 1.247 . S
O81 Zn73 1.906 . S
O81 C89 1.304 . S
O82 Zn70 1.924 . S
O82 C90 1.311 . S
O83 Zn74 1.977 1_655 S
O83 C89 1.272 . S
O84 Zn74 1.910 . S
O84 C90 1.231 . S
C85 O69 1.225 . S
C85 O91 1.298 1_455 S
C86 O75 1.226 . S
C86 O76 1.307 1_655 S
C87 O79 1.303 . S
C87 O80 1.247 . S
C88 O77 1.253 . S
C88 O78 1.283 . S
C89 O81 1.304 . S
C89 O83 1.272 . S
C90 O82 1.311 . S
C90 O84 1.231 . S
O91 Zn73 1.953 . S
O91 C85 1.298 1_655 S
H92 C100 0.950 . S
H93 C105 0.950 . S
H94 C102 0.950 . S
H95 C104 0.950 . S
H96 C106 0.950 . S
H97 C108 0.950 . S
H98 C110 0.950 1_565 S
H99 C111 0.950 . S
C100 H92 0.950 . S
C100 C101 1.386 1_556 S
C100 C102 1.391 . S
C101 C100 1.386 1_554 S
C101 C105 1.393 1_565 S
C102 H94 0.950 . S
C102 C100 1.391 . S
C102 C103 1.400 1_666 S
C103 C102 1.400 1_444 S
C103 C104 1.398 1_455 S
C103 C109 1.491 . S
C104 H95 0.950 . S
C104 C103 1.398 1_655 S
C104 C105 1.391 . S
C105 H93 0.950 . S
C105 C101 1.393 1_545 S
C105 C104 1.391 . S
C106 H96 0.950 . S
C106 C107 1.386 . S
C106 C108 1.391 . S
C107 C106 1.386 . S
C107 C111 1.393 1_554 S
C108 H97 0.950 . S
C108 C106 1.391 . S
C108 C109 1.400 . S
C109 C103 1.491 . S
C109 C108 1.400 . S
C109 C110 1.398 1_554 S
C110 H98 0.950 1_545 S
C110 C109 1.398 1_556 S
C110 C111 1.391 . S
C111 H99 0.950 . S
C111 C107 1.393 1_556 S
C111 C110 1.391 . S
H112 C120 0.950 . S
H113 C125 0.950 1_655 S
H114 C122 0.950 . S
H115 C124 0.950 . S
H116 C126 0.950 . S
H117 C128 0.950 . S
H118 C130 0.950 . S
H119 C131 0.950 . S
C120 H112 0.950 . S
C120 C121 1.386 1_455 S
C120 C122 1.391 . S
C121 C120 1.386 1_655 S
C121 C125 1.393 1_655 S
C122 H114 0.950 . S
C122 C120 1.391 . S
C122 C123 1.400 1_565 S
C123 C122 1.400 1_545 S
C123 C124 1.398 1_545 S
C123 C129 1.491 . S
C124 H115 0.950 . S
C124 C123 1.398 1_565 S
C124 C125 1.391 . S
C125 H113 0.950 1_455 S
C125 C121 1.393 1_455 S
C125 C124 1.391 . S
C126 H116 0.950 . S
C126 C127 1.386 . S
C126 C128 1.391 . S
C127 C126 1.386 . S
C127 C131 1.393 . S
C128 H117 0.950 . S
C128 C126 1.391 . S
C128 C129 1.400 . S
C129 C123 1.491 . S
C129 C128 1.400 . S
C129 C130 1.398 . S
C130 H118 0.950 . S
C130 C129 1.398 . S
C130 C131 1.391 . S
C131 H119 0.950 . S
C131 C127 1.393 . S
C131 C130 1.391 . S
H132 C140 0.950 . S
H133 C145 0.950 . S
H134 C142 0.950 . S
H135 C144 0.950 . S
H136 C146 0.950 . S
H137 C148 0.950 . S
H138 C150 0.952 . S
H139 C151 0.950 1_565 S
C140 H132 0.950 . S
C140 C141 1.386 1_556 S
C140 C142 1.391 . S
C141 C140 1.386 1_554 S
C141 C145 1.393 1_565 S
C142 H134 0.950 . S
C142 C140 1.391 . S
C142 C143 1.400 1_566 S
C143 C142 1.400 1_544 S
C143 C144 1.398 . S
C143 C149 1.491 . S
C144 H135 0.950 . S
C144 C143 1.398 . S
C144 C145 1.391 . S
C145 H133 0.950 . S
C145 C141 1.393 1_545 S
C145 C144 1.391 . S
C146 H136 0.950 . S
C146 C147 1.386 . S
C146 C148 1.391 . S
C147 C146 1.386 . S
C147 C151 1.393 1_554 S
C148 H137 0.950 . S
C148 C146 1.391 . S
C148 C149 1.400 . S
C149 C143 1.491 . S
C149 C148 1.400 . S
C149 C150 1.397 1_544 S
C150 H138 0.952 . S
C150 C149 1.397 1_566 S
C150 C151 1.390 1_565 S
C151 H139 0.950 1_545 S
C151 C147 1.393 1_556 S
C151 C150 1.390 1_545 S
H152 C160 0.950 . S
H153 C165 0.950 . S
H154 C162 0.950 1_655 S
H155 C164 0.950 . S
H156 C166 0.950 . S
H157 C168 0.950 . S
H158 C170 0.950 . S
H159 C171 0.950 . S
C160 H152 0.950 . S
C160 C161 1.386 . S
C160 C162 1.391 . S
C161 C160 1.386 . S
C161 C165 1.393 . S
C162 H154 0.950 1_455 S
C162 C160 1.391 . S
C162 C163 1.400 . S
C163 C162 1.400 . S
C163 C164 1.398 . S
C163 C169 1.491 . S
C164 H155 0.950 . S
C164 C163 1.398 . S
C164 C165 1.391 . S
C165 H153 0.950 . S
C165 C161 1.393 . S
C165 C164 1.391 . S
C166 H156 0.950 . S
C166 C167 1.386 1_455 S
C166 C168 1.391 . S
C167 C166 1.386 1_655 S
C167 C171 1.393 . S
C168 H157 0.950 . S
C168 C166 1.391 . S
C168 C169 1.400 . S
C169 C163 1.491 . S
C169 C168 1.400 . S
C169 C170 1.398 1_455 S
C170 H158 0.950 . S
C170 C169 1.398 1_655 S
C170 C171 1.391 . S
C171 H159 0.950 . S
C171 C167 1.393 . S
C171 C170 1.391 . S
H172 C180 0.950 . S
H173 C185 0.950 . S
H174 C182 0.950 . S
H175 C184 0.950 . S
H176 C186 0.950 . S
H177 C188 0.950 . S
H178 C190 0.950 . S
H179 C191 0.950 . S
C180 H172 0.950 . S
C180 C181 1.386 . S
C180 C182 1.391 . S
C181 C180 1.386 . S
C181 C185 1.393 . S
C182 H174 0.950 . S
C182 C180 1.391 . S
C182 C183 1.400 . S
C183 C182 1.400 . S
C183 C184 1.398 . S
C183 C189 1.491 . S
C184 H175 0.950 . S
C184 C183 1.398 . S
C184 C185 1.391 . S
C185 H173 0.950 . S
C185 C181 1.393 . S
C185 C184 1.391 . S
C186 H176 0.950 . S
C186 C187 1.386 . S
C186 C188 1.391 . S
C187 C186 1.386 . S
C187 C191 1.393 . S
C188 H177 0.950 . S
C188 C186 1.391 . S
C188 C189 1.400 . S
C189 C183 1.491 . S
C189 C188 1.400 . S
C189 C190 1.398 . S
C190 H178 0.950 . S
C190 C189 1.398 . S
C190 C191 1.391 . S
C191 H179 0.950 . S
C191 C187 1.393 . S
C191 C190 1.391 . S
H192 C200 0.950 . S
H193 C205 0.950 . S
H194 C202 0.950 . S
H195 C204 0.950 . S
H196 C206 0.950 . S
H197 C208 0.950 . S
H198 C210 0.950 . S
H199 C211 0.950 . S
C200 H192 0.950 . S
C200 C201 1.386 . S
C200 C202 1.391 . S
C201 C200 1.386 . S
C201 C205 1.393 . S
C202 H194 0.950 . S
C202 C200 1.391 . S
C202 C203 1.400 . S
C203 C202 1.400 . S
C203 C204 1.398 . S
C203 C209 1.491 . S
C204 H195 0.950 . S
C204 C203 1.398 . S
C204 C205 1.391 . S
C205 H193 0.950 . S
C205 C201 1.393 . S
C205 C204 1.391 . S
C206 H196 0.950 . S
C206 C207 1.386 . S
C206 C208 1.391 . S
C207 C206 1.386 . S
C207 C211 1.393 . S
C208 H197 0.950 . S
C208 C206 1.391 . S
C208 C209 1.400 . S
C209 C203 1.491 . S
C209 C208 1.400 . S
C209 C210 1.398 . S
C210 H198 0.950 . S
C210 C209 1.398 . S
C210 C211 1.391 . S
C211 H199 0.950 . S
C211 C207 1.393 . S
C211 C210 1.391 . S
H212 C220 0.950 . S
H213 C225 0.950 . S
H214 C222 0.950 . S
H215 C224 0.950 . S
H216 C226 0.950 . S
H217 C228 0.950 . S
H218 C230 0.950 . S
H219 C231 0.950 . S
C220 H212 0.950 . S
C220 C221 1.386 . S
C220 C222 1.391 . S
C221 C220 1.386 . S
C221 C225 1.393 . S
C222 H214 0.950 . S
C222 C220 1.391 . S
C222 C223 1.400 . S
C223 C222 1.400 . S
C223 C224 1.398 . S
C223 C229 1.491 . S
C224 H215 0.950 . S
C224 C223 1.398 . S
C224 C225 1.391 . S
C225 H213 0.950 . S
C225 C221 1.393 . S
C225 C224 1.391 . S
C226 H216 0.950 . S
C226 C227 1.386 . S
C226 C228 1.391 . S
C227 C226 1.386 . S
C227 C231 1.393 . S
C228 H217 0.950 . S
C228 C226 1.391 . S
C228 C229 1.400 . S
C229 C223 1.491 . S
C229 C228 1.400 . S
C229 C230 1.398 . S
C230 H218 0.950 . S
C230 C229 1.398 . S
C230 C231 1.391 . S
C231 H219 0.950 . S
C231 C227 1.393 . S
C231 C230 1.391 . S
H232 C240 0.950 . S
H233 C245 0.950 . S
H234 C242 0.950 . S
H235 C244 0.950 . S
H236 C246 0.950 . S
H237 C248 0.950 . S
H238 C250 0.950 . S
H239 C251 0.950 . S
C240 H232 0.950 . S
C240 C241 1.386 . S
C240 C242 1.391 . S
C241 C240 1.386 . S
C241 C245 1.393 . S
C242 H234 0.950 . S
C242 C240 1.391 . S
C242 C243 1.400 . S
C243 C242 1.400 . S
C243 C244 1.398 . S
C243 C249 1.491 . S
C244 H235 0.950 . S
C244 C243 1.398 . S
C244 C245 1.391 . S
C245 H233 0.950 . S
C245 C241 1.393 . S
C245 C244 1.391 . S
C246 H236 0.950 . S
C246 C247 1.386 . S
C246 C248 1.391 . S
C247 C246 1.386 . S
C247 C251 1.393 . S
C248 H237 0.950 . S
C248 C246 1.391 . S
C248 C249 1.400 . S
C249 C243 1.491 . S
C249 C248 1.400 . S
C249 C250 1.398 . S
C250 H238 0.950 . S
C250 C249 1.398 . S
C250 C251 1.391 . S
C251 H239 0.950 . S
C251 C247 1.393 . S
C251 C250 1.391 . S
H252 C260 0.950 . S
H253 C265 0.950 . S
H254 C262 0.950 . S
H255 C264 0.950 . S
H256 C266 0.950 . S
H257 C268 0.950 . S
H258 C270 0.950 . S
H259 C271 0.950 . S
C260 H252 0.950 . S
C260 C261 1.386 . S
C260 C262 1.391 . S
C261 C260 1.386 . S
C261 C265 1.393 . S
C262 H254 0.950 . S
C262 C260 1.391 . S
C262 C263 1.400 . S
C263 C262 1.400 . S
C263 C264 1.398 . S
C263 C269 1.491 . S
C264 H255 0.950 . S
C264 C263 1.398 . S
C264 C265 1.391 . S
C265 H253 0.950 . S
C265 C261 1.393 . S
C265 C264 1.391 . S
C266 H256 0.950 . S
C266 C267 1.386 . S
C266 C268 1.391 . S
C267 C266 1.386 . S
C267 C271 1.393 . S
C268 H257 0.950 . S
C268 C266 1.391 . S
C268 C269 1.400 . S
C269 C263 1.491 . S
C269 C268 1.400 . S
C269 C270 1.398 . S
C270 H258 0.950 . S
C270 C269 1.398 . S
C270 C271 1.391 . S
C271 H259 0.950 . S
C271 C267 1.393 . S
C271 C270 1.391 . S
H272 C280 0.950 . S
H273 C285 0.950 . S
H274 C282 0.950 . S
H275 C284 0.950 . S
H276 C286 0.950 . S
H277 C288 0.950 . S
H278 C290 0.950 . S
H279 C291 0.950 . S
C280 H272 0.950 . S
C280 C281 1.386 . S
C280 C282 1.391 . S
C281 C280 1.386 . S
C281 C285 1.393 . S
C282 H274 0.950 . S
C282 C280 1.391 . S
C282 C283 1.400 . S
C283 C282 1.400 . S
C283 C284 1.398 . S
C283 C289 1.491 . S
C284 H275 0.950 . S
C284 C283 1.398 . S
C284 C285 1.391 . S
C285 H273 0.950 . S
C285 C281 1.393 . S
C285 C284 1.391 . S
C286 H276 0.950 . S
C286 C287 1.386 . S
C286 C288 1.391 . S
C287 C286 1.386 . S
C287 C291 1.393 . S
C288 H277 0.950 . S
C288 C286 1.391 . S
C288 C289 1.400 . S
C289 C283 1.491 . S
C289 C288 1.400 . S
C289 C290 1.398 . S
C290 H278 0.950 . S
C290 C289 1.398 . S
C290 C291 1.391 . S
C291 H279 0.950 . S
C291 C287 1.393 . S
C291 C290 1.391 . S
H292 C300 0.950 . S
H293 C305 0.950 . S
H294 C302 0.950 . S
H295 C304 0.950 . S
H296 C306 0.950 . S
H297 C308 0.950 . S
H298 C310 0.950 . S
H299 C311 0.950 . S
C300 H292 0.950 . S
C300 C301 1.386 . S
C300 C302 1.391 . S
C301 C300 1.386 . S
C301 C305 1.393 . S
C302 H294 0.950 . S
C302 C300 1.391 . S
C302 C303 1.400 . S
C303 C302 1.400 . S
C303 C304 1.398 . S
C303 C309 1.491 . S
C304 H295 0.950 . S
C304 C303 1.398 . S
C304 C305 1.391 . S
C305 H293 0.950 . S
C305 C301 1.393 . S
C305 C304 1.391 . S
C306 H296 0.950 . S
C306 C307 1.386 . S
C306 C308 1.391 . S
C307 C306 1.386 . S
C307 C311 1.393 . S
C308 H297 0.950 . S
C308 C306 1.391 . S
C308 C309 1.400 . S
C309 C303 1.491 . S
C309 C308 1.400 . S
C309 C310 1.398 . S
C310 H298 0.950 . S
C310 C309 1.398 . S
C310 C311 1.391 . S
C311 H299 0.950 . S
C311 C307 1.393 . S
C311 C310 1.391 . S
H312 C320 0.950 . S
H313 C325 0.950 . S
H314 C322 0.950 . S
H315 C324 0.950 . S
H316 C326 0.950 . S
H317 C328 0.950 . S
H318 C330 0.950 . S
H319 C331 0.950 . S
C320 H312 0.950 . S
C320 C321 1.386 . S
C320 C322 1.391 . S
C321 C320 1.386 . S
C321 C325 1.393 . S
C322 H314 0.950 . S
C322 C320 1.391 . S
C322 C323 1.400 . S
C323 C322 1.400 . S
C323 C324 1.398 . S
C323 C329 1.491 . S
C324 H315 0.950 . S
C324 C323 1.398 . S
C324 C325 1.391 . S
C325 H313 0.950 . S
C325 C321 1.393 . S
C325 C324 1.391 . S
C326 H316 0.950 . S
C326 C327 1.386 . S
C326 C328 1.391 . S
C327 C326 1.386 . S
C327 C331 1.393 . S
C328 H317 0.950 . S
C328 C326 1.391 . S
C328 C329 1.400 . S
C329 C323 1.491 . S
C329 C328 1.400 . S
C329 C330 1.398 . S
C330 H318 0.950 . S
C330 C329 1.398 . S
C330 C331 1.391 . S
C331 H319 0.950 . S
C331 C327 1.393 . S
C331 C330 1.391 . S
C101 C62 0.391 1_565 S
C107 C16 0.393 . S
C121 C85 0.390 1_655 S
C127 C39 0.390 . S
C141 C63 0.807 . S
C147 C17 0.806 . S
C161 C40 0.813 . S
C167 C86 0.813 . S
C181 C43 1.563 . S
C187 C20 1.531 . S
C201 C42 1.610 . S
C207 C65 1.586 . S
C221 C89 1.563 . S
C227 C66 1.525 . S
C241 C88 1.589 . S
C247 C19 1.608 . S
C261 C64 1.122 . S
C267 C87 1.124 . S
C281 C21 1.148 . S
C287 C90 1.150 . S
C301 C41 1.123 . S
C307 C18 1.122 . S
C321 C67 1.157 . S
C327 C44 1.157 . S
