# Generated by pormake.
# Topology uos, (4)-cn, num edge types: 1
# Building blocks:
#     Node 0, Type 0, BuildingBlock: NAHDIM_clean_sbu_0, # of connection points: 4
#     Node 1, Type 0, BuildingBlock: NAHDIM_clean_sbu_0, # of connection points: 4
#     Node 2, Type 0, BuildingBlock: NAHDIM_clean_sbu_0, # of connection points: 4
#     Node 3, Type 0, BuildingBlock: NAHDIM_clean_sbu_0, # of connection points: 4
#     Node 4, Type 0, BuildingBlock: NAHDIM_clean_sbu_0, # of connection points: 4
#     Node 5, Type 0, BuildingBlock: NAHDIM_clean_sbu_0, # of connection points: 4
#     Node 6, Type 0, BuildingBlock: NAHDIM_clean_sbu_0, # of connection points: 4
#     Node 7, Type 0, BuildingBlock: NAHDIM_clean_sbu_0, # of connection points: 4
#     Node 8, Type 0, BuildingBlock: NAHDIM_clean_sbu_0, # of connection points: 4
#     Node 9, Type 0, BuildingBlock: NAHDIM_clean_sbu_0, # of connection points: 4
#     Node 10, Type 0, BuildingBlock: NAHDIM_clean_sbu_0, # of connection points: 4
#     Node 11, Type 0, BuildingBlock: NAHDIM_clean_sbu_0, # of connection points: 4
#     Node 12, Type 0, BuildingBlock: NAHDIM_clean_sbu_0, # of connection points: 4
#     Node 13, Type 0, BuildingBlock: NAHDIM_clean_sbu_0, # of connection points: 4
#     Node 14, Type 0, BuildingBlock: NAHDIM_clean_sbu_0, # of connection points: 4
#     Node 15, Type 0, BuildingBlock: NAHDIM_clean_sbu_0, # of connection points: 4
#     Node 16, Type 0, BuildingBlock: NAHDIM_clean_sbu_0, # of connection points: 4
#     Node 17, Type 0, BuildingBlock: NAHDIM_clean_sbu_0, # of connection points: 4
#     Node 18, Type 0, BuildingBlock: NAHDIM_clean_sbu_0, # of connection points: 4
#     Node 19, Type 0, BuildingBlock: NAHDIM_clean_sbu_0, # of connection points: 4
#     Node 20, Type 0, BuildingBlock: NAHDIM_clean_sbu_0, # of connection points: 4
#     Node 21, Type 0, BuildingBlock: NAHDIM_clean_sbu_0, # of connection points: 4
#     Node 22, Type 0, BuildingBlock: NAHDIM_clean_sbu_0, # of connection points: 4
#     Node 23, Type 0, BuildingBlock: NAHDIM_clean_sbu_0, # of connection points: 4
#     Node 24, Type 0, BuildingBlock: NAHDIM_clean_sbu_0, # of connection points: 4
#     Node 25, Type 0, BuildingBlock: NAHDIM_clean_sbu_0, # of connection points: 4
#     Node 26, Type 0, BuildingBlock: NAHDIM_clean_sbu_0, # of connection points: 4
#     Node 27, Type 0, BuildingBlock: NAHDIM_clean_sbu_0, # of connection points: 4
#     Node 28, Type 0, BuildingBlock: NAHDIM_clean_sbu_0, # of connection points: 4
#     Node 29, Type 0, BuildingBlock: NAHDIM_clean_sbu_0, # of connection points: 4
#     Node 30, Type 0, BuildingBlock: NAHDIM_clean_sbu_0, # of connection points: 4
#     Node 31, Type 0, BuildingBlock: NAHDIM_clean_sbu_0, # of connection points: 4
#     Edge 32, Type (0, 0), BuildingBlock: OJICUG_clean_linker_0, # of connection points: 2
#     Edge 33, Type (0, 0), BuildingBlock: OJICUG_clean_linker_0, # of connection points: 2
#     Edge 34, Type (0, 0), BuildingBlock: OJICUG_clean_linker_0, # of connection points: 2
#     Edge 35, Type (0, 0), BuildingBlock: OJICUG_clean_linker_0, # of connection points: 2
#     Edge 36, Type (0, 0), BuildingBlock: OJICUG_clean_linker_0, # of connection points: 2
#     Edge 37, Type (0, 0), BuildingBlock: OJICUG_clean_linker_0, # of connection points: 2
#     Edge 38, Type (0, 0), BuildingBlock: OJICUG_clean_linker_0, # of connection points: 2
#     Edge 39, Type (0, 0), BuildingBlock: OJICUG_clean_linker_0, # of connection points: 2
#     Edge 40, Type (0, 0), BuildingBlock: OJICUG_clean_linker_0, # of connection points: 2
#     Edge 41, Type (0, 0), BuildingBlock: OJICUG_clean_linker_0, # of connection points: 2
#     Edge 42, Type (0, 0), BuildingBlock: OJICUG_clean_linker_0, # of connection points: 2
#     Edge 43, Type (0, 0), BuildingBlock: OJICUG_clean_linker_0, # of connection points: 2
#     Edge 44, Type (0, 0), BuildingBlock: OJICUG_clean_linker_0, # of connection points: 2
#     Edge 45, Type (0, 0), BuildingBlock: OJICUG_clean_linker_0, # of connection points: 2
#     Edge 46, Type (0, 0), BuildingBlock: OJICUG_clean_linker_0, # of connection points: 2
#     Edge 47, Type (0, 0), BuildingBlock: OJICUG_clean_linker_0, # of connection points: 2
#     Edge 48, Type (0, 0), BuildingBlock: OJICUG_clean_linker_0, # of connection points: 2
#     Edge 49, Type (0, 0), BuildingBlock: OJICUG_clean_linker_0, # of connection points: 2
#     Edge 50, Type (0, 0), BuildingBlock: OJICUG_clean_linker_0, # of connection points: 2
#     Edge 51, Type (0, 0), BuildingBlock: OJICUG_clean_linker_0, # of connection points: 2
#     Edge 52, Type (0, 0), BuildingBlock: OJICUG_clean_linker_0, # of connection points: 2
#     Edge 53, Type (0, 0), BuildingBlock: OJICUG_clean_linker_0, # of connection points: 2
#     Edge 54, Type (0, 0), BuildingBlock: OJICUG_clean_linker_0, # of connection points: 2
#     Edge 55, Type (0, 0), BuildingBlock: OJICUG_clean_linker_0, # of connection points: 2
#     Edge 56, Type (0, 0), BuildingBlock: OJICUG_clean_linker_0, # of connection points: 2
#     Edge 57, Type (0, 0), BuildingBlock: OJICUG_clean_linker_0, # of connection points: 2
#     Edge 58, Type (0, 0), BuildingBlock: OJICUG_clean_linker_0, # of connection points: 2
#     Edge 59, Type (0, 0), BuildingBlock: OJICUG_clean_linker_0, # of connection points: 2
#     Edge 60, Type (0, 0), BuildingBlock: OJICUG_clean_linker_0, # of connection points: 2
#     Edge 61, Type (0, 0), BuildingBlock: OJICUG_clean_linker_0, # of connection points: 2
#     Edge 62, Type (0, 0), BuildingBlock: OJICUG_clean_linker_0, # of connection points: 2
#     Edge 63, Type (0, 0), BuildingBlock: OJICUG_clean_linker_0, # of connection points: 2
#     Edge 64, Type (0, 0), BuildingBlock: OJICUG_clean_linker_0, # of connection points: 2
#     Edge 65, Type (0, 0), BuildingBlock: OJICUG_clean_linker_0, # of connection points: 2
#     Edge 66, Type (0, 0), BuildingBlock: OJICUG_clean_linker_0, # of connection points: 2
#     Edge 67, Type (0, 0), BuildingBlock: OJICUG_clean_linker_0, # of connection points: 2
#     Edge 68, Type (0, 0), BuildingBlock: OJICUG_clean_linker_0, # of connection points: 2
#     Edge 69, Type (0, 0), BuildingBlock: OJICUG_clean_linker_0, # of connection points: 2
#     Edge 70, Type (0, 0), BuildingBlock: OJICUG_clean_linker_0, # of connection points: 2
#     Edge 71, Type (0, 0), BuildingBlock: OJICUG_clean_linker_0, # of connection points: 2
#     Edge 72, Type (0, 0), BuildingBlock: OJICUG_clean_linker_0, # of connection points: 2
#     Edge 73, Type (0, 0), BuildingBlock: OJICUG_clean_linker_0, # of connection points: 2
#     Edge 74, Type (0, 0), BuildingBlock: OJICUG_clean_linker_0, # of connection points: 2
#     Edge 75, Type (0, 0), BuildingBlock: OJICUG_clean_linker_0, # of connection points: 2
#     Edge 76, Type (0, 0), BuildingBlock: OJICUG_clean_linker_0, # of connection points: 2
#     Edge 77, Type (0, 0), BuildingBlock: OJICUG_clean_linker_0, # of connection points: 2
#     Edge 78, Type (0, 0), BuildingBlock: OJICUG_clean_linker_0, # of connection points: 2
#     Edge 79, Type (0, 0), BuildingBlock: OJICUG_clean_linker_0, # of connection points: 2
#     Edge 80, Type (0, 0), BuildingBlock: OJICUG_clean_linker_0, # of connection points: 2
#     Edge 81, Type (0, 0), BuildingBlock: OJICUG_clean_linker_0, # of connection points: 2
#     Edge 82, Type (0, 0), BuildingBlock: OJICUG_clean_linker_0, # of connection points: 2
#     Edge 83, Type (0, 0), BuildingBlock: OJICUG_clean_linker_0, # of connection points: 2
#     Edge 84, Type (0, 0), BuildingBlock: OJICUG_clean_linker_0, # of connection points: 2
#     Edge 85, Type (0, 0), BuildingBlock: OJICUG_clean_linker_0, # of connection points: 2
#     Edge 86, Type (0, 0), BuildingBlock: OJICUG_clean_linker_0, # of connection points: 2
#     Edge 87, Type (0, 0), BuildingBlock: OJICUG_clean_linker_0, # of connection points: 2
#     Edge 88, Type (0, 0), BuildingBlock: OJICUG_clean_linker_0, # of connection points: 2
#     Edge 89, Type (0, 0), BuildingBlock: OJICUG_clean_linker_0, # of connection points: 2
#     Edge 90, Type (0, 0), BuildingBlock: OJICUG_clean_linker_0, # of connection points: 2
#     Edge 91, Type (0, 0), BuildingBlock: OJICUG_clean_linker_0, # of connection points: 2
#     Edge 92, Type (0, 0), BuildingBlock: OJICUG_clean_linker_0, # of connection points: 2
#     Edge 93, Type (0, 0), BuildingBlock: OJICUG_clean_linker_0, # of connection points: 2
#     Edge 94, Type (0, 0), BuildingBlock: OJICUG_clean_linker_0, # of connection points: 2
#     Edge 95, Type (0, 0), BuildingBlock: OJICUG_clean_linker_0, # of connection points: 2
# Relax obj value: 0.049
# Max RMSD: 0.082
# Mean RMSD: 0.082
data_MOF--net-uos--node1-NAHDIM_clean_sbu_0--edge1-OJICUG_clean_linker_0
_symmetry_space_group_name_H-M    P1
_symmetry_Int_Tables_number       1
_symmetry_cell_setting            triclinic
loop_
_symmetry_equiv_pos_as_xyz
'x, y, z'
_cell_length_a     61.92352
_cell_length_b     61.962699
_cell_length_c     17.700958
_cell_angle_alpha  89.995158
_cell_angle_beta   90.003105
_cell_angle_gamma 90.025008
loop_
_atom_site_label
_atom_site_type_symbol
_atom_site_fract_x
_atom_site_fract_y
_atom_site_fract_z
_atom_type_partial_charge
C0 C 0.13963 0.14802 -0.00153 0.0
O1 O 0.12776 0.16081 0.0406 0.0
O2 O 0.15976 0.19161 0.10345 0.0
Zn3 Zn 0.16649 0.15975 0.11542 0.0
O4 O 0.14744 0.14626 0.19367 0.0
C5 C 0.20618 0.17247 0.18294 0.0
O6 O 0.19448 0.18988 0.1934 0.0
O7 O 0.1591 0.14453 0.01789 0.0
C8 C 0.14907 0.14968 0.26411 0.0
O9 O 0.16376 0.16322 0.28901 0.0
C10 C 0.14449 0.20155 0.13657 0.0
O11 O 0.13106 0.19072 0.17971 0.0
O12 O 0.19785 0.15645 0.1485 0.0
C13 C 0.09991 0.89035 0.2452 0.0
O14 O 0.08713 0.87829 0.28676 0.0
O15 O 0.05594 0.90993 0.34998 0.0
Zn16 Zn 0.08776 0.91688 0.36245 0.0
O17 O 0.10138 0.89787 0.44055 0.0
C18 C 0.07473 0.95643 0.43004 0.0
O19 O 0.05728 0.94471 0.43969 0.0
O20 O 0.10319 0.9098 0.26509 0.0
C21 C 0.09841 0.89991 0.51111 0.0
O22 O 0.08524 0.91492 0.53603 0.0
C23 C 0.04601 0.89478 0.38378 0.0
O24 O 0.05685 0.88161 0.42785 0.0
O25 O 0.09086 0.94818 0.39604 0.0
C26 C 0.35988 0.85028 0.49829 0.0
O27 O 0.37182 0.83735 0.53969 0.0
O28 O 0.33957 0.80641 0.60223 0.0
Zn29 Zn 0.33317 0.83828 0.61546 0.0
O30 O 0.35244 0.85146 0.69372 0.0
C31 C 0.29342 0.82578 0.68322 0.0
O32 O 0.30496 0.80826 0.69335 0.0
O33 O 0.34046 0.85373 0.51828 0.0
C34 C 0.35075 0.84809 0.76417 0.0
O35 O 0.33591 0.83472 0.78911 0.0
C36 C 0.35486 0.79611 0.63395 0.0
O37 O 0.36863 0.80657 0.67693 0.0
O38 O 0.30188 0.84178 0.64901 0.0
C39 C 0.39955 0.10931 0.748 0.0
O40 O 0.41232 0.12133 0.78974 0.0
O41 O 0.44356 0.08931 0.85285 0.0
Zn42 Zn 0.41168 0.08255 0.86492 0.0
O43 O 0.39815 0.10156 0.94321 0.0
C44 C 0.42439 0.04285 0.93225 0.0
O45 O 0.44188 0.05446 0.9424 0.0
O46 O 0.39631 0.08982 0.76759 0.0
C47 C 0.40125 0.0996 0.01373 0.0
O48 O 0.41452 0.08468 0.0386 0.0
C49 C 0.45349 0.10455 0.88619 0.0
O50 O 0.44261 0.11793 0.92936 0.0
O51 O 0.40835 0.05124 0.89807 0.0
C52 C 0.13975 0.85106 0.98425 0.0
O53 O 0.12777 0.83831 0.94227 0.0
O54 O 0.15959 0.80724 0.87992 0.0
Zn55 Zn 0.16654 0.83904 0.8675 0.0
O56 O 0.1476 0.85258 0.78911 0.0
C57 C 0.20633 0.82611 0.80098 0.0
O58 O 0.19466 0.80865 0.79091 0.0
O59 O 0.15924 0.8544 0.96481 0.0
C60 C 0.14943 0.84936 0.71863 0.0
O61 O 0.16425 0.83596 0.69377 0.0
C62 C 0.1443 0.79727 0.84695 0.0
O63 O 0.13099 0.80804 0.80314 0.0
O64 O 0.19793 0.84221 0.83473 0.0
C65 C 0.39957 0.88983 0.23738 0.0
O66 O 0.41242 0.87785 0.19585 0.0
O67 O 0.44349 0.90989 0.13285 0.0
Zn68 Zn 0.4116 0.91646 0.12011 0.0
O69 O 0.39824 0.89725 0.042 0.0
C70 C 0.42427 0.95605 0.05199 0.0
O71 O 0.44174 0.94441 0.04186 0.0
O72 O 0.39619 0.90926 0.21746 0.0
C73 C 0.40149 0.89902 0.9715 0.0
O74 O 0.4148 0.9139 0.9465 0.0
C75 C 0.45358 0.8947 0.09983 0.0
O76 O 0.44286 0.88123 0.05649 0.0
O77 O 0.40824 0.94773 0.08641 0.0
C78 C 0.35958 0.14875 0.4875 0.0
O79 O 0.37148 0.1617 0.44597 0.0
O80 O 0.33946 0.19224 0.38141 0.0
Zn81 Zn 0.33285 0.16033 0.36978 0.0
O82 O 0.35196 0.14683 0.29174 0.0
C83 C 0.2931 0.17281 0.30205 0.0
O84 O 0.30469 0.19031 0.2916 0.0
O85 O 0.34018 0.14515 0.46743 0.0
C86 C 0.35018 0.15008 0.22125 0.0
O87 O 0.33535 0.16345 0.1963 0.0
C88 C 0.35469 0.20221 0.34811 0.0
O89 O 0.36817 0.19137 0.3052 0.0
O90 O 0.30152 0.15686 0.33655 0.0
C91 C 0.09931 0.10903 0.73776 0.0
O92 O 0.08641 0.12111 0.69667 0.0
O93 O 0.05521 0.08919 0.63314 0.0
Zn94 Zn 0.08708 0.08254 0.62031 0.0
O95 O 0.10051 0.10169 0.54221 0.0
C96 C 0.07435 0.04293 0.55231 0.0
O97 O 0.0568 0.05449 0.54275 0.0
O98 O 0.10258 0.08961 0.71752 0.0
C99 C 0.0976 0.09956 0.47165 0.0
O100 O 0.08455 0.08444 0.44678 0.0
C101 C 0.04514 0.10429 0.59955 0.0
O102 O 0.05586 0.11759 0.55557 0.0
O103 O 0.0904 0.0513 0.58643 0.0
C104 C 0.85893 0.84903 0.98763 0.0
O105 O 0.87092 0.83614 0.94626 0.0
O106 O 0.83908 0.80543 0.8812 0.0
Zn107 Zn 0.83235 0.83731 0.86962 0.0
O108 O 0.85141 0.85096 0.7917 0.0
C109 C 0.79269 0.82458 0.80175 0.0
O110 O 0.80438 0.80717 0.79125 0.0
O111 O 0.83953 0.85251 0.96734 0.0
C112 C 0.84972 0.84767 0.7212 0.0
O113 O 0.83503 0.83414 0.69618 0.0
C114 C 0.85436 0.79553 0.84799 0.0
O115 O 0.86786 0.80644 0.80534 0.0
O116 O 0.80101 0.84059 0.83629 0.0
C117 C 0.8976 0.10863 0.73495 0.0
O118 O 0.9104 0.12068 0.69337 0.0
O119 O 0.94175 0.08878 0.63123 0.0
Zn120 Zn 0.9099 0.08202 0.61806 0.0
O121 O 0.8965 0.10112 0.5397 0.0
C122 C 0.92279 0.04242 0.55047 0.0
O123 O 0.94023 0.05413 0.54044 0.0
O124 O 0.89436 0.08916 0.7152 0.0
C125 C 0.8996 0.09921 0.46916 0.0
O126 O 0.9128 0.08423 0.44418 0.0
C127 C 0.95182 0.10395 0.59802 0.0
O128 O 0.94112 0.11725 0.55397 0.0
O129 O 0.9067 0.05072 0.58459 0.0
C130 C 0.6397 0.15112 0.49299 0.0
O131 O 0.6276 0.16416 0.45256 0.0
O132 O 0.65982 0.19522 0.38815 0.0
Zn133 Zn 0.66604 0.16327 0.37464 0.0
O134 O 0.64652 0.15013 0.29691 0.0
C135 C 0.70573 0.17547 0.30543 0.0
O136 O 0.69442 0.1932 0.29645 0.0
O137 O 0.65905 0.14772 0.47194 0.0
C138 C 0.64835 0.15327 0.22637 0.0
O139 O 0.66335 0.16644 0.20131 0.0
C140 C 0.64437 0.20544 0.35713 0.0
O141 O 0.63043 0.19488 0.31512 0.0
O142 O 0.69718 0.15954 0.33969 0.0
C143 C 0.60074 0.88948 0.23585 0.0
O144 O 0.58794 0.87768 0.19342 0.0
O145 O 0.55698 0.91013 0.13194 0.0
Zn146 Zn 0.58891 0.91663 0.11972 0.0
O147 O 0.60224 0.89759 0.04107 0.0
C148 C 0.57654 0.9565 0.05288 0.0
O149 O 0.55906 0.94491 0.04183 0.0
O150 O 0.60417 0.909 0.21699 0.0
C151 C 0.59892 0.89933 0.9706 0.0
O152 O 0.58554 0.91415 0.94566 0.0
C153 C 0.5469 0.89492 0.09899 0.0
O154 O 0.55761 0.88143 0.05575 0.0
O155 O 0.59247 0.94801 0.08733 0.0
C156 C 0.85795 0.14795 -0.00375 0.0
O157 O 0.87 0.16069 0.03799 0.0
O158 O 0.83855 0.19203 0.09917 0.0
Zn159 Zn 0.83145 0.16031 0.11311 0.0
O160 O 0.85054 0.14684 0.19139 0.0
C161 C 0.79209 0.17376 0.18123 0.0
O162 O 0.80404 0.19107 0.19047 0.0
O163 O 0.83846 0.14468 0.01598 0.0
C164 C 0.84877 0.15006 0.2619 0.0
O165 O 0.83395 0.16343 0.28692 0.0
C166 C 0.8538 0.20205 0.13218 0.0
O167 O 0.86692 0.1914 0.17697 0.0
O168 O 0.80012 0.15751 0.14728 0.0
C169 C 0.6009 0.11063 0.75385 0.0
O170 O 0.58804 0.12241 0.79602 0.0
O171 O 0.55706 0.08987 0.85696 0.0
Zn172 Zn 0.58901 0.08359 0.87017 0.0
O173 O 0.60208 0.10286 0.9488 0.0
C174 C 0.57665 0.04382 0.93772 0.0
O175 O 0.55919 0.05543 0.94858 0.0
O176 O 0.6044 0.09115 0.773 0.0
C177 C 0.59855 0.10134 0.01922 0.0
O178 O 0.58513 0.08655 0.04423 0.0
C179 C 0.54681 0.10505 0.88938 0.0
O180 O 0.55734 0.11867 0.93269 0.0
O181 O 0.5926 0.05227 0.90319 0.0
C182 C 0.63967 0.84898 0.49632 0.0
O183 O 0.62758 0.836 0.53704 0.0
O184 O 0.65929 0.80523 0.60308 0.0
Zn185 Zn 0.66609 0.83711 0.61482 0.0
O186 O 0.64702 0.85077 0.6927 0.0
C187 C 0.7058 0.82438 0.68243 0.0
O188 O 0.6942 0.80688 0.69248 0.0
O189 O 0.65903 0.85241 0.51719 0.0
C190 C 0.64904 0.84782 0.76327 0.0
O191 O 0.664 0.8346 0.78827 0.0
C192 C 0.64408 0.79534 0.63676 0.0
O193 O 0.63075 0.80624 0.68002 0.0
O194 O 0.6974 0.8404 0.64827 0.0
C195 C 0.89854 0.88885 0.24815 0.0
O196 O 0.91143 0.87695 0.28988 0.0
O197 O 0.94251 0.90923 0.35163 0.0
Zn198 Zn 0.91062 0.91573 0.36465 0.0
O199 O 0.89737 0.8966 0.44322 0.0
C200 C 0.92318 0.95552 0.43168 0.0
O201 O 0.94073 0.944 0.44176 0.0
O202 O 0.89516 0.90832 0.26762 0.0
C203 C 0.90037 0.89866 0.51375 0.0
O204 O 0.91339 0.91382 0.53861 0.0
C205 C 0.9527 0.89421 0.38518 0.0
O206 O 0.94211 0.8809 0.42949 0.0
O207 O 0.90716 0.94703 0.39772 0.0
C208 C 0.63769 0.6483 0.50381 0.0
O209 O 0.62599 0.66123 0.54601 0.0
O210 O 0.65865 0.69179 0.60777 0.0
Zn211 Zn 0.66491 0.65983 0.62024 0.0
O212 O 0.64579 0.64659 0.69904 0.0
C213 C 0.70493 0.67203 0.6865 0.0
O214 O 0.69334 0.68944 0.69847 0.0
O215 O 0.65715 0.64464 0.52297 0.0
C216 C 0.64736 0.65001 0.7695 0.0
O217 O 0.66212 0.66345 0.79459 0.0
C218 C 0.64356 0.70206 0.64066 0.0
O219 O 0.63 0.69155 0.68428 0.0
O220 O 0.69635 0.65616 0.65199 0.0
C221 C 0.62147 0.40541 0.75607 0.0
O222 O 0.63315 0.40205 0.81691 0.0
O223 O 0.55685 0.41026 0.85217 0.0
Zn224 Zn 0.58843 0.41768 0.8644 0.0
O225 O 0.60264 0.3978 0.93892 0.0
C226 C 0.57452 0.45638 0.93727 0.0
O227 O 0.55724 0.44433 0.94557 0.0
O228 O 0.60255 0.41317 0.76298 0.0
C229 C 0.59888 0.39876 0.00932 0.0
O230 O 0.58474 0.41281 0.03467 0.0
C231 C 0.54724 0.39393 0.87973 0.0
O232 O 0.55835 0.37954 0.91789 0.0
O233 O 0.59081 0.44864 0.9027 0.0
C234 C 0.85958 0.34907 0.98449 0.0
O235 O 0.87169 0.33613 0.02528 0.0
O236 O 0.84007 0.30524 0.09069 0.0
Zn237 Zn 0.8332 0.33705 0.10266 0.0
O238 O 0.85223 0.35072 0.18063 0.0
C239 C 0.79322 0.32398 0.16829 0.0
O240 O 0.80452 0.30621 0.17624 0.0
O241 O 0.8402 0.35243 0.0052 0.0
C242 C 0.84987 0.34808 0.25123 0.0
O243 O 0.83458 0.33521 0.27607 0.0
C244 C 0.85499 0.29525 0.12551 0.0
O245 O 0.86806 0.30605 0.17009 0.0
O246 O 0.8019 0.34021 0.13618 0.0
C247 C 0.90088 0.60974 0.23867 0.0
O248 O 0.914 0.62182 0.27885 0.0
O249 O 0.94474 0.58941 0.34455 0.0
Zn250 Zn 0.91274 0.58338 0.35744 0.0
O251 O 0.89959 0.60285 0.4352 0.0
C252 C 0.92468 0.54362 0.42608 0.0
O253 O 0.94233 0.55498 0.43654 0.0
O254 O 0.89734 0.59047 0.26003 0.0
C255 C 0.90287 0.60115 0.5057 0.0
O256 O 0.91621 0.58631 0.53076 0.0
C257 C 0.95507 0.60492 0.37475 0.0
O258 O 0.94457 0.6192 0.41548 0.0
O259 O 0.90885 0.55222 0.39142 0.0
C260 C 0.64574 0.36544 0.47391 0.0
O261 O 0.63066 0.36271 0.42262 0.0
O262 O 0.66121 0.30854 0.38565 0.0
Zn263 Zn 0.66853 0.33992 0.36669 0.0
O264 O 0.64909 0.35262 0.28737 0.0
C265 C 0.70727 0.32526 0.29567 0.0
O266 O 0.69543 0.30774 0.2902 0.0
O267 O 0.66421 0.35694 0.46332 0.0
C268 C 0.6506 0.34892 0.21705 0.0
O269 O 0.66544 0.33551 0.19242 0.0
C270 C 0.64504 0.29872 0.35774 0.0
O271 O 0.63099 0.30956 0.31712 0.0
O272 O 0.6994 0.34181 0.32814 0.0
C273 C 0.8984 0.38961 0.72392 0.0
O274 O 0.91117 0.37781 0.68145 0.0
O275 O 0.94216 0.40996 0.62061 0.0
Zn276 Zn 0.91031 0.41666 0.6079 0.0
O277 O 0.89686 0.39773 0.52916 0.0
C278 C 0.92324 0.45636 0.54146 0.0
O279 O 0.94052 0.44452 0.53033 0.0
O280 O 0.89498 0.40913 0.70508 0.0
C281 C 0.90017 0.39944 0.45868 0.0
O282 O 0.91365 0.41419 0.43373 0.0
C283 C 0.95233 0.3949 0.58718 0.0
O284 O 0.94175 0.38159 0.54286 0.0
O285 O 0.90714 0.44808 0.57567 0.0
C286 C 0.86022 0.64834 0.97789 0.0
O287 O 0.87196 0.66118 0.93544 0.0
O288 O 0.83918 0.69203 0.87489 0.0
Zn289 Zn 0.83296 0.66009 0.86198 0.0
O290 O 0.85217 0.64706 0.78315 0.0
C291 C 0.79295 0.6722 0.79556 0.0
O292 O 0.80447 0.68968 0.78395 0.0
O293 O 0.8407 0.64482 0.95907 0.0
C294 C 0.85073 0.65069 0.71279 0.0
O295 O 0.836 0.66418 0.68783 0.0
C296 C 0.85444 0.70228 0.84284 0.0
O297 O 0.86816 0.69177 0.79987 0.0
O298 O 0.80156 0.65633 0.82994 0.0
C299 C 0.59688 0.6096 0.2434 0.0
O300 O 0.58389 0.6217 0.20279 0.0
O301 O 0.55286 0.58954 0.13768 0.0
Zn302 Zn 0.58481 0.58309 0.12524 0.0
O303 O 0.59822 0.60231 0.04721 0.0
C304 C 0.57242 0.54291 0.05953 0.0
O305 O 0.55449 0.55395 0.0512 0.0
O306 O 0.60023 0.59024 0.2226 0.0
C307 C 0.59544 0.60012 0.97661 0.0
O308 O 0.5825 0.58491 0.95166 0.0
C309 C 0.54276 0.60484 0.10534 0.0
O310 O 0.55347 0.61848 0.06265 0.0
O311 O 0.58849 0.55184 0.0918 0.0
C312 C 0.35967 0.34912 0.48178 0.0
O313 O 0.37152 0.3362 0.44002 0.0
O314 O 0.33945 0.3056 0.3773 0.0
Zn315 Zn 0.33291 0.33746 0.3646 0.0
O316 O 0.35206 0.35087 0.28641 0.0
C317 C 0.29325 0.32488 0.29687 0.0
O318 O 0.30498 0.30752 0.28583 0.0
O319 O 0.34025 0.35273 0.46198 0.0
C320 C 0.35038 0.34756 0.21593 0.0
O321 O 0.33561 0.33413 0.1909 0.0
C322 C 0.35463 0.29545 0.34447 0.0
O323 O 0.3681 0.30606 0.3008 0.0
O324 O 0.30157 0.34085 0.33161 0.0
C325 C 0.38321 0.60412 0.21995 0.0
O326 O 0.38656 0.61921 0.16914 0.0
O327 O 0.43952 0.58828 0.13166 0.0
Zn328 Zn 0.40814 0.58088 0.11266 0.0
O329 O 0.39537 0.60016 0.03298 0.0
C330 C 0.42292 0.54196 0.0433 0.0
O331 O 0.44038 0.55386 0.03695 0.0
O332 O 0.39112 0.58542 0.20907 0.0
C333 C 0.39896 0.59854 0.9626 0.0
O334 O 0.41226 0.58361 0.93794 0.0
C335 C 0.44943 0.60427 0.10286 0.0
O336 O 0.43869 0.61808 0.06092 0.0
O337 O 0.40633 0.5499 0.07539 0.0
C338 C 0.15286 0.62913 0.98022 0.0
O339 O 0.15057 0.61715 0.91951 0.0
O340 O 0.15848 0.69408 0.88359 0.0
Zn341 Zn 0.1653 0.66233 0.87237 0.0
O342 O 0.14548 0.64855 0.79662 0.0
C343 C 0.20512 0.67546 0.80452 0.0
O344 O 0.19391 0.69333 0.79766 0.0
O345 O 0.15996 0.64831 0.97349 0.0
C346 C 0.14808 0.65095 0.72597 0.0
O347 O 0.16384 0.66327 0.70133 0.0
C348 C 0.14302 0.70403 0.85168 0.0
O349 O 0.12923 0.6932 0.80997 0.0
O350 O 0.19642 0.65918 0.83621 0.0
C351 C 0.09728 0.38858 0.74453 0.0
O352 O 0.08359 0.37689 0.70528 0.0
O353 O 0.05566 0.40941 0.62715 0.0
Zn354 Zn 0.08788 0.41475 0.62192 0.0
O355 O 0.10158 0.39527 0.54595 0.0
C356 C 0.07825 0.45956 0.60338 0.0
O357 O 0.06179 0.45392 0.64584 0.0
O358 O 0.1019 0.40745 0.72137 0.0
C359 C 0.09896 0.39779 0.47545 0.0
O360 O 0.08638 0.41338 0.45107 0.0
C361 C 0.04566 0.39411 0.5944 0.0
O362 O 0.05662 0.37981 0.55531 0.0
O363 O 0.09268 0.4456 0.58857 0.0
C364 C 0.34284 0.62878 0.5011 0.0
O365 O 0.34546 0.61677 0.56158 0.0
O366 O 0.33797 0.69329 0.59996 0.0
Zn367 Zn 0.33079 0.66159 0.61026 0.0
O368 O 0.3506 0.64718 0.68458 0.0
C369 C 0.29174 0.67484 0.68242 0.0
O370 O 0.30356 0.69224 0.6916 0.0
O371 O 0.33561 0.64788 0.50839 0.0
C372 C 0.34948 0.65073 0.7551 0.0
O373 O 0.33538 0.66478 0.78058 0.0
C374 C 0.35427 0.70286 0.62803 0.0
O375 O 0.36878 0.69164 0.66524 0.0
O376 O 0.29977 0.65876 0.64755 0.0
C377 C 0.11268 0.60334 0.26072 0.0
O378 O 0.10822 0.61851 0.31016 0.0
O379 O 0.05801 0.58659 0.35342 0.0
Zn380 Zn 0.08954 0.57978 0.37091 0.0
O381 O 0.10261 0.59957 0.4489 0.0
C382 C 0.0764 0.54243 0.45246 0.0
O383 O 0.05955 0.55496 0.46264 0.0
O384 O 0.1061 0.58421 0.27331 0.0
C385 C 0.09703 0.60051 0.51785 0.0
O386 O 0.08118 0.58828 0.54219 0.0
C387 C 0.04841 0.6036 0.37541 0.0
O388 O 0.05953 0.61885 0.40928 0.0
O389 O 0.09188 0.54917 0.41134 0.0
C390 C 0.13816 0.34898 0.00289 0.0
O391 O 0.12641 0.33641 0.04629 0.0
O392 O 0.15928 0.30492 0.10453 0.0
Zn393 Zn 0.16582 0.33678 0.11676 0.0
O394 O 0.14709 0.35014 0.19609 0.0
C395 C 0.20588 0.32441 0.18197 0.0
O396 O 0.19437 0.3069 0.19309 0.0
O397 O 0.15786 0.35207 0.02011 0.0
C398 C 0.14897 0.34677 0.26646 0.0
O399 O 0.1637 0.33322 0.29089 0.0
C400 C 0.14418 0.29478 0.13792 0.0
O401 O 0.1308 0.30541 0.18182 0.0
O402 O 0.19728 0.34035 0.14799 0.0
C403 C 0.39981 0.38818 0.74256 0.0
O404 O 0.41261 0.37614 0.78406 0.0
O405 O 0.4438 0.40825 0.84716 0.0
Zn406 Zn 0.41197 0.41492 0.85945 0.0
O407 O 0.39854 0.39594 0.9379 0.0
C408 C 0.42475 0.45518 0.92351 0.0
O409 O 0.44262 0.44405 0.93208 0.0
O410 O 0.39657 0.40765 0.76234 0.0
C411 C 0.40152 0.39805 0.00841 0.0
O412 O 0.41463 0.41316 0.03313 0.0
C413 C 0.45394 0.39307 0.88002 0.0
O414 O 0.44331 0.37956 0.92344 0.0
O415 O 0.40858 0.44626 0.89186 0.0
C416 C 0.26015 0.15247 0.25798 0.0
C417 C 0.27074 0.1721 0.27282 0.0
H418 H 0.2314 0.13709 0.21607 0.0
C419 C 0.26002 0.19155 0.25701 0.0
H420 H 0.2681 0.13723 0.26918 0.0
C421 C 0.23916 0.19146 0.22764 0.0
C422 C 0.22855 0.17193 0.21207 0.0
H423 H 0.26771 0.20695 0.26785 0.0
H424 H 0.23138 0.2068 0.21664 0.0
C425 C 0.23926 0.15238 0.22709 0.0
C426 C 0.05569 0.98924 0.4758 0.0
C427 C 0.07524 0.97871 0.45992 0.0
H428 H 0.04018 0.01763 0.51704 0.0
C429 C 0.0948 0.98938 0.4754 0.0
H430 H 0.04034 0.98148 0.46446 0.0
C431 C 0.0947 0.01016 0.50704 0.0
C432 C 0.07505 0.02067 0.52222 0.0
H433 H 0.11011 0.98157 0.46416 0.0
H434 H 0.10994 0.01809 0.51857 0.0
C435 C 0.05559 0.01 0.50596 0.0
C436 C 0.23947 0.84619 0.75718 0.0
C437 C 0.22875 0.82664 0.77221 0.0
H438 H 0.26836 0.86134 0.71545 0.0
C439 C 0.23939 0.80711 0.75706 0.0
H440 H 0.23158 0.86148 0.76788 0.0
C441 C 0.2603 0.80703 0.72808 0.0
C442 C 0.27103 0.82648 0.71225 0.0
H443 H 0.2316 0.79177 0.76809 0.0
H444 H 0.26801 0.79163 0.71753 0.0
C445 C 0.2604 0.84611 0.72669 0.0
C446 C 0.44323 0.00983 0.97717 0.0
C447 C 0.42374 0.02051 0.96155 0.0
H448 H 0.45857 0.98125 0.01756 0.0
C449 C 0.40412 0.00991 0.97666 0.0
H450 H 0.45862 0.01753 0.9661 0.0
C451 C 0.40409 0.98905 0.00768 0.0
C452 C 0.42369 0.97838 0.02256 0.0
H453 H 0.38886 0.01783 0.96561 0.0
H454 H 0.38881 0.98118 0.01896 0.0
C455 C 0.4432 0.989 0.00667 0.0
C456 C 0.75962 0.84471 0.75778 0.0
C457 C 0.77033 0.82514 0.77255 0.0
H458 H 0.73079 0.85991 0.71585 0.0
C459 C 0.75972 0.80563 0.75671 0.0
H460 H 0.76749 0.85999 0.76902 0.0
C461 C 0.73886 0.80558 0.72731 0.0
C462 C 0.72815 0.82504 0.71174 0.0
H463 H 0.7675 0.79028 0.76752 0.0
H464 H 0.73117 0.79019 0.71624 0.0
C465 C 0.73874 0.84466 0.72686 0.0
C466 C 0.94192 0.98865 0.47626 0.0
C467 C 0.92247 0.97788 0.46076 0.0
H468 H 0.95717 0.01733 0.51632 0.0
C469 C 0.90282 0.98842 0.47574 0.0
H470 H 0.95734 0.981 0.4653 0.0
C471 C 0.90272 0.00931 0.50649 0.0
C472 C 0.92228 0.02007 0.52126 0.0
H473 H 0.88758 0.98043 0.46477 0.0
H474 H 0.88741 0.01713 0.51765 0.0
C475 C 0.94183 0.00952 0.50551 0.0
C476 C 0.73815 0.15462 0.25951 0.0
C477 C 0.72793 0.17442 0.27469 0.0
H478 H 0.76648 0.13878 0.21626 0.0
C479 C 0.73885 0.19369 0.25788 0.0
H480 H 0.73004 0.13951 0.27145 0.0
C481 C 0.75957 0.19328 0.22727 0.0
C482 C 0.76982 0.17358 0.21147 0.0
H483 H 0.73145 0.20922 0.26892 0.0
H484 H 0.76752 0.20849 0.21557 0.0
C485 C 0.75889 0.1542 0.22743 0.0
C486 C 0.55775 0.01067 0.98123 0.0
C487 C 0.57726 0.02137 0.96602 0.0
H488 H 0.54232 0.98195 0.02013 0.0
C489 C 0.59685 0.01064 0.9804 0.0
H490 H 0.54237 0.01845 0.97069 0.0
C491 C 0.59682 0.98965 0.01029 0.0
C492 C 0.5772 0.97896 0.02471 0.0
H493 H 0.61213 0.01857 0.96962 0.0
H494 H 0.61208 0.98168 0.02101 0.0
C495 C 0.55772 0.9897 0.00956 0.0
C496 C 0.73834 0.69095 0.72754 0.0
C497 C 0.72756 0.67144 0.71318 0.0
H498 H 0.76731 0.70638 0.76428 0.0
C499 C 0.73838 0.65187 0.72675 0.0
H500 H 0.73048 0.7063 0.71755 0.0
C501 C 0.75957 0.65191 0.75509 0.0
C502 C 0.77034 0.67152 0.76869 0.0
H503 H 0.73039 0.63659 0.71658 0.0
H504 H 0.76761 0.63666 0.76529 0.0
C505 C 0.7595 0.69099 0.75428 0.0
C506 C 0.5939 0.48983 0.98201 0.0
C507 C 0.57457 0.47857 0.9682 0.0
H508 H 0.60848 0.51903 0.02343 0.0
C509 C 0.55483 0.48851 0.98587 0.0
H510 H 0.60935 0.4825 0.96932 0.0
C511 C 0.55433 0.5093 0.01583 0.0
C512 C 0.57356 0.52059 0.03009 0.0
H513 H 0.53964 0.48031 0.97587 0.0
H514 H 0.53878 0.51649 0.02815 0.0
C515 C 0.5934 0.51063 0.01342 0.0
C516 C 0.74018 0.34487 0.24779 0.0
C517 C 0.72928 0.32544 0.26319 0.0
H518 H 0.76895 0.35974 0.20407 0.0
C519 C 0.73941 0.3058 0.24567 0.0
H520 H 0.7327 0.36026 0.26028 0.0
C521 C 0.76006 0.30551 0.21438 0.0
C522 C 0.771 0.32485 0.1987 0.0
H523 H 0.73147 0.29054 0.25683 0.0
H524 H 0.76742 0.29003 0.20226 0.0
C525 C 0.76083 0.34458 0.21516 0.0
C526 C 0.94265 0.48933 0.49924 0.0
C527 C 0.92297 0.47885 0.51361 0.0
H528 H 0.95852 0.51787 0.46084 0.0
C529 C 0.90355 0.4898 0.49859 0.0
H530 H 0.9579 0.48137 0.51034 0.0
C531 C 0.90391 0.51079 0.46868 0.0
C532 C 0.92369 0.52123 0.45489 0.0
H533 H 0.88815 0.48203 0.50873 0.0
H534 H 0.88877 0.51891 0.45731 0.0
C535 C 0.94301 0.5103 0.47088 0.0
C536 C 0.26023 0.30583 0.25276 0.0
C537 C 0.2708 0.32537 0.26847 0.0
H538 H 0.23159 0.29031 0.21353 0.0
C539 C 0.25994 0.34491 0.25457 0.0
H540 H 0.26813 0.2905 0.26292 0.0
C541 C 0.23893 0.3448 0.22472 0.0
C542 C 0.22837 0.32515 0.20986 0.0
H543 H 0.26777 0.36022 0.26574 0.0
H544 H 0.23085 0.36002 0.21443 0.0
C545 C 0.23925 0.30572 0.22446 0.0
C546 C 0.40352 0.50862 -0.00175 0.0
C547 C 0.42289 0.51974 0.01271 0.0
H548 H 0.38883 0.47947 0.9571 0.0
C549 C 0.44261 0.5096 -0.0037 0.0
H550 H 0.38807 0.5161 0.00995 0.0
C551 C 0.44304 0.48873 0.96698 0.0
C552 C 0.42375 0.47757 0.95219 0.0
H553 H 0.45782 0.5177 0.00681 0.0
H554 H 0.45857 0.48137 0.95562 0.0
C555 C 0.40394 0.48775 0.96756 0.0
C556 C 0.25847 0.65491 0.72599 0.0
C557 C 0.26949 0.67441 0.7129 0.0
H558 H 0.22945 0.63984 0.76687 0.0
C559 C 0.25926 0.69396 0.73104 0.0
H560 H 0.26603 0.6396 0.71292 0.0
C561 C 0.23845 0.6941 0.76091 0.0
C562 C 0.22741 0.67469 0.7746 0.0
H563 H 0.26727 0.70927 0.72158 0.0
H564 H 0.23105 0.70952 0.77373 0.0
C565 C 0.23764 0.65504 0.7573 0.0
C566 C 0.06152 0.49556 0.57919 0.0
C567 C 0.07866 0.48113 0.56726 0.0
H568 H 0.04733 0.52597 0.55216 0.0
C569 C 0.09539 0.48712 0.51766 0.0
H570 H 0.04834 0.49149 0.61682 0.0
C571 C 0.09481 0.50705 0.48022 0.0
C572 C 0.07744 0.5213 0.49147 0.0
H573 H 0.10881 0.47632 0.50707 0.0
H574 H 0.10785 0.5112 0.44211 0.0
C575 C 0.0609 0.51535 0.54171 0.0
C576 C 0.13874 0.1191 0.89852 0.0
C577 C 0.12999 0.13789 0.93086 0.0
H578 H 0.1356 0.09482 0.81246 0.0
C579 C 0.11115 0.14679 0.89965 0.0
H580 H 0.15318 0.11182 0.9218 0.0
C581 C 0.1013 0.13727 0.83727 0.0
C582 C 0.10982 0.11839 0.80515 0.0
H583 H 0.10401 0.16127 0.92317 0.0
H584 H 0.08684 0.14467 0.81452 0.0
C585 C 0.1286 0.10929 0.83647 0.0
C586 C 0.13909 0.88007 0.0839 0.0
C587 C 0.1302 0.8613 0.05182 0.0
H588 H 0.13616 0.90441 0.16985 0.0
C589 C 0.11135 0.8525 0.08331 0.0
H590 H 0.15354 0.88727 0.06039 0.0
C591 C 0.10162 0.86209 0.14575 0.0
C592 C 0.11028 0.88094 0.17765 0.0
H593 H 0.10412 0.83804 0.05998 0.0
H594 H 0.08716 0.85476 0.16876 0.0
C595 C 0.12907 0.88995 0.14601 0.0
C596 C 0.3979 0.86147 0.33654 0.0
C597 C 0.38923 0.88035 0.30492 0.0
H598 H 0.39545 0.83733 0.42204 0.0
C599 C 0.37048 0.88934 0.33687 0.0
H600 H 0.41234 0.85416 0.31332 0.0
C601 C 0.36051 0.8794 0.39898 0.0
C602 C 0.36939 0.86059 0.43076 0.0
H603 H 0.36338 0.90382 0.31327 0.0
H604 H 0.34608 0.88657 0.42272 0.0
C605 C 0.38821 0.85182 0.39897 0.0
C606 C 0.39764 0.1378 0.64934 0.0
C607 C 0.38913 0.11879 0.68065 0.0
H608 H 0.39498 0.16201 0.56413 0.0
C609 C 0.37046 0.10968 0.64857 0.0
H610 H 0.41201 0.14522 0.67269 0.0
C611 C 0.3604 0.11959 0.58659 0.0
C612 C 0.36913 0.13851 0.55507 0.0
H613 H 0.36348 0.0951 0.67194 0.0
H614 H 0.34604 0.1123 0.56272 0.0
C615 C 0.38787 0.14743 0.58703 0.0
C616 C 0.85951 0.87822 0.08661 0.0
C617 C 0.86837 0.85934 0.05524 0.0
H618 H 0.8624 0.90276 0.17184 0.0
C619 C 0.88714 0.85056 0.08739 0.0
H620 H 0.84513 0.88541 0.06259 0.0
C621 C 0.89682 0.86028 0.14972 0.0
C622 C 0.88818 0.87925 0.18086 0.0
H623 H 0.89435 0.83602 0.06462 0.0
H624 H 0.91122 0.85297 0.17318 0.0
C625 C 0.86948 0.88822 0.14861 0.0
C626 C 0.85853 0.11891 0.89664 0.0
C627 C 0.86741 0.13771 0.92853 0.0
H628 H 0.86142 0.09454 0.81076 0.0
C629 C 0.8862 0.14654 0.89671 0.0
H630 H 0.84411 0.11169 0.92039 0.0
C631 C 0.89589 0.13695 0.83419 0.0
C632 C 0.88724 0.11806 0.8025 0.0
H633 H 0.89343 0.16103 0.91987 0.0
H634 H 0.91031 0.1443 0.81098 0.0
C635 C 0.8685 0.10902 0.83443 0.0
C636 C 0.62972 0.11154 0.65339 0.0
C637 C 0.61104 0.12036 0.68636 0.0
H638 H 0.65386 0.11465 0.56674 0.0
C639 C 0.60222 0.13931 0.65578 0.0
H640 H 0.63694 0.09701 0.67616 0.0
C641 C 0.6117 0.1492 0.59338 0.0
C642 C 0.63044 0.14059 0.56055 0.0
H643 H 0.58783 0.14651 0.67978 0.0
H644 H 0.60434 0.16373 0.57112 0.0
C645 C 0.63948 0.12171 0.59129 0.0
C646 C 0.61165 0.85082 0.39596 0.0
C647 C 0.63038 0.85948 0.42878 0.0
H648 H 0.58775 0.8535 0.30963 0.0
C649 C 0.63937 0.8784 0.39814 0.0
H650 H 0.60433 0.83626 0.41816 0.0
C651 C 0.62958 0.88857 0.33617 0.0
C652 C 0.6109 0.87972 0.30321 0.0
H653 H 0.65374 0.88549 0.4227 0.0
H654 H 0.63675 0.90314 0.31349 0.0
C655 C 0.60213 0.86072 0.33365 0.0
C656 C 0.60899 0.64716 0.40565 0.0
C657 C 0.62787 0.63821 0.43638 0.0
H658 H 0.58455 0.64516 0.32094 0.0
C659 C 0.63654 0.61944 0.40366 0.0
H660 H 0.60191 0.66163 0.42947 0.0
C661 C 0.62629 0.60971 0.34168 0.0
C662 C 0.60748 0.61887 0.3108 0.0
H663 H 0.65101 0.61212 0.42655 0.0
H664 H 0.63324 0.59526 0.31736 0.0
C665 C 0.59902 0.63771 0.34334 0.0
C666 C 0.61511 0.39824 0.61876 0.0
C667 C 0.62891 0.39736 0.68168 0.0
H668 H 0.60961 0.3889 0.50422 0.0
C669 C 0.64909 0.38716 0.67409 0.0
H670 H 0.59948 0.40602 0.62244 0.0
C671 C 0.65495 0.37731 0.6059 0.0
C672 C 0.64068 0.37739 0.54415 0.0
H673 H 0.66013 0.38623 0.72143 0.0
H674 H 0.67035 0.36909 0.60235 0.0
C675 C 0.6209 0.38833 0.55093 0.0
C676 C 0.86958 0.38865 0.82424 0.0
C677 C 0.88828 0.37986 0.79136 0.0
H678 H 0.84542 0.38551 0.91074 0.0
C679 C 0.89712 0.36091 0.82194 0.0
H680 H 0.86235 0.40318 0.80145 0.0
C681 C 0.88763 0.35101 0.88429 0.0
C682 C 0.86886 0.3596 0.91701 0.0
H683 H 0.91153 0.35374 0.79798 0.0
H684 H 0.895 0.33649 0.9066 0.0
C685 C 0.85981 0.37847 0.88626 0.0
C686 C 0.87138 0.60994 0.14072 0.0
C687 C 0.89033 0.61896 0.17111 0.0
H688 H 0.84659 0.61244 0.05615 0.0
C689 C 0.89898 0.63764 0.13793 0.0
H690 H 0.86429 0.59562 0.16554 0.0
C691 C 0.88905 0.64706 0.07552 0.0
C692 C 0.87002 0.63826 0.04531 0.0
H693 H 0.91356 0.64498 0.15993 0.0
H694 H 0.89627 0.6614 0.05124 0.0
C695 C 0.86118 0.61964 0.07863 0.0
C696 C 0.38799 0.35026 0.58117 0.0
C697 C 0.36927 0.35926 0.54942 0.0
H698 H 0.41216 0.35233 0.66678 0.0
C699 C 0.36058 0.37814 0.58126 0.0
H700 H 0.39507 0.33571 0.55802 0.0
C701 C 0.37068 0.38795 0.64335 0.0
C702 C 0.38934 0.37877 0.67521 0.0
H703 H 0.34623 0.38548 0.55755 0.0
H704 H 0.36374 0.40251 0.66696 0.0
C705 C 0.3978 0.3598 0.6436 0.0
C706 C 0.35092 0.6354 0.36456 0.0
C707 C 0.35105 0.62136 0.42689 0.0
H708 H 0.36093 0.64095 0.25074 0.0
C709 C 0.36061 0.60089 0.41898 0.0
H710 H 0.34365 0.65126 0.36851 0.0
C711 C 0.37055 0.59494 0.35105 0.0
C712 C 0.37121 0.60939 0.2899 0.0
H713 H 0.36095 0.58967 0.46587 0.0
H714 H 0.37825 0.57928 0.34724 0.0
C715 C 0.36092 0.62951 0.29699 0.0
C716 C 0.13573 0.60072 0.06209 0.0
C717 C 0.14458 0.62152 0.05414 0.0
H718 H 0.11876 0.57853 0.13383 0.0
C719 C 0.14401 0.63563 0.11622 0.0
H720 H 0.13594 0.58943 0.01538 0.0
C721 C 0.13406 0.62946 0.18356 0.0
C722 C 0.12455 0.60896 0.19079 0.0
H723 H 0.1507 0.65175 0.11225 0.0
H724 H 0.13352 0.64095 0.22961 0.0
C725 C 0.12587 0.59446 0.1299 0.0
C726 C 0.12724 0.3875 0.84039 0.0
C727 C 0.10771 0.37922 0.81204 0.0
H728 H 0.15256 0.38413 0.92253 0.0
C729 C 0.09848 0.36106 0.84673 0.0
H730 H 0.13479 0.40141 0.81434 0.0
C731 C 0.10849 0.35136 0.9085 0.0
C732 C 0.12814 0.35938 0.93646 0.0
H733 H 0.08344 0.3543 0.82625 0.0
H734 H 0.10086 0.3374 0.93394 0.0
C735 C 0.13749 0.37752 0.90179 0.0
C736 C 0.15816 0.25955 0.08901 0.0
C737 C 0.14297 0.27097 0.13238 0.0
H738 H 0.17049 0.22874 0.056 0.0
C739 C 0.12738 0.25935 0.17336 0.0
H740 H 0.17036 0.26799 0.05657 0.0
C741 C 0.12746 0.23677 0.17301 0.0
C742 C 0.14312 0.22536 0.13168 0.0
H743 H 0.11541 0.26765 0.20717 0.0
H744 H 0.11554 0.22829 0.20657 0.0
C745 C 0.15824 0.23701 0.08868 0.0
C746 C 0.98794 0.90811 0.33558 0.0
C747 C 0.97653 0.89303 0.3795 0.0
H748 H 0.01874 0.92043 0.30213 0.0
C749 C 0.9882 0.8776 0.421 0.0
H750 H 0.97947 0.92019 0.30273 0.0
C751 C 0.01079 0.87773 0.42065 0.0
C752 C 0.02218 0.8933 0.37878 0.0
H753 H 0.97991 0.86571 0.45525 0.0
H754 H 0.0193 0.86595 0.45465 0.0
C755 C 0.01049 0.90825 0.33523 0.0
C756 C 0.37206 0.7605 0.66492 0.0
C757 C 0.35592 0.77231 0.62732 0.0
H758 H 0.38431 0.72928 0.69433 0.0
C759 C 0.34009 0.76107 0.58621 0.0
H760 H 0.38453 0.76867 0.69694 0.0
C761 C 0.33995 0.73855 0.58481 0.0
C762 C 0.35567 0.7267 0.62435 0.0
H763 H 0.32745 0.76964 0.5564 0.0
H764 H 0.32722 0.73043 0.5539 0.0
C765 C 0.37195 0.73792 0.66338 0.0
C766 C 0.48867 0.12173 0.92264 0.0
C767 C 0.47733 0.10593 0.8817 0.0
H768 H 0.5195 0.13394 0.95693 0.0
C769 C 0.48907 0.0907 0.83956 0.0
H770 H 0.48012 0.13374 0.95555 0.0
C771 C 0.51163 0.09081 0.84037 0.0
C772 C 0.52298 0.10616 0.88333 0.0
H773 H 0.48086 0.07834 0.80721 0.0
H774 H 0.52014 0.07853 0.80861 0.0
C775 C 0.51126 0.12185 0.92344 0.0
C776 C 0.12684 0.76202 0.81286 0.0
C777 C 0.14268 0.7735 0.85323 0.0
H778 H 0.11442 0.73106 0.78098 0.0
C779 C 0.1577 0.76193 0.89686 0.0
H780 H 0.11499 0.77044 0.77886 0.0
C781 C 0.15737 0.7394 0.89807 0.0
C782 C 0.142 0.72789 0.85572 0.0
H783 H 0.17007 0.77025 0.92886 0.0
H784 H 0.1695 0.73103 0.93096 0.0
C785 C 0.1265 0.73944 0.81411 0.0
C786 C 0.48897 0.90878 0.14748 0.0
C787 C 0.47742 0.89349 0.10491 0.0
H788 H 0.51988 0.92117 0.17932 0.0
C789 C 0.48895 0.87781 0.06411 0.0
H790 H 0.4806 0.92106 0.17973 0.0
C791 C 0.51154 0.87787 0.06387 0.0
C792 C 0.52307 0.89362 0.10441 0.0
H793 H 0.48055 0.86576 0.03088 0.0
H794 H 0.51993 0.86587 0.03047 0.0
C795 C 0.51152 0.90885 0.14723 0.0
C796 C 0.34071 0.2377 0.39482 0.0
C797 C 0.35595 0.22604 0.35244 0.0
H798 H 0.3284 0.26868 0.42588 0.0
C799 C 0.37163 0.23745 0.31112 0.0
H800 H 0.32844 0.22943 0.42747 0.0
C801 C 0.3716 0.26002 0.31019 0.0
C802 C 0.3559 0.27165 0.35056 0.0
H803 H 0.38363 0.22896 0.27801 0.0
H804 H 0.3836 0.26832 0.27641 0.0
C805 C 0.34069 0.26024 0.3939 0.0
C806 C 0.98718 0.12097 0.56261 0.0
C807 C 0.97564 0.10535 0.60377 0.0
H808 H 0.01817 0.13298 0.52926 0.0
C809 C 0.98718 0.09031 0.6474 0.0
H810 H 0.97879 0.13283 0.52858 0.0
C811 C 0.00974 0.0904 0.6478 0.0
C812 C 0.02129 0.10553 0.60457 0.0
H813 H 0.97881 0.07809 0.67998 0.0
H814 H 0.01809 0.07824 0.68066 0.0
C815 C 0.00977 0.12105 0.56301 0.0
C816 C 0.84025 0.73741 0.89215 0.0
C817 C 0.85563 0.72608 0.84927 0.0
H818 H 0.82786 0.76814 0.92576 0.0
C819 C 0.87145 0.7378 0.80975 0.0
H820 H 0.82787 0.72889 0.92347 0.0
C821 C 0.87145 0.76038 0.81108 0.0
C822 C 0.85563 0.77169 0.85196 0.0
H823 H 0.88357 0.72958 0.77635 0.0
H824 H 0.88356 0.76893 0.77863 0.0
C825 C 0.84025 0.75994 0.89349 0.0
C826 C 0.62703 0.24093 0.32553 0.0
C827 C 0.64327 0.22927 0.36317 0.0
H828 H 0.61473 0.272 0.29472 0.0
C829 C 0.65916 0.24068 0.40347 0.0
H830 H 0.61451 0.23264 0.29419 0.0
C831 C 0.65928 0.26323 0.40378 0.0
C832 C 0.64352 0.27491 0.36385 0.0
H833 H 0.67186 0.23223 0.43333 0.0
H834 H 0.6721 0.27148 0.43381 0.0
C835 C 0.62715 0.26351 0.32591 0.0
C836 C 0.84109 0.25979 0.07811 0.0
C837 C 0.85612 0.2714 0.12164 0.0
H838 H 0.82864 0.22886 0.04698 0.0
C839 C 0.87134 0.25994 0.1648 0.0
H840 H 0.82918 0.2681 0.04403 0.0
C841 C 0.87102 0.23737 0.1665 0.0
C842 C 0.85548 0.2258 0.12511 0.0
H843 H 0.88317 0.26839 0.19883 0.0
H844 H 0.88263 0.22904 0.20176 0.0
C845 C 0.84078 0.23726 0.07983 0.0
C846 C 0.62685 0.73762 0.67495 0.0
C847 C 0.64247 0.72588 0.63458 0.0
H848 H 0.61501 0.76876 0.70703 0.0
C849 C 0.65776 0.7372 0.59122 0.0
H850 H 0.61481 0.7294 0.70875 0.0
C851 C 0.65787 0.75974 0.59021 0.0
C852 C 0.6427 0.7715 0.63255 0.0
H853 H 0.66999 0.72867 0.55926 0.0
H854 H 0.67019 0.76792 0.55753 0.0
C855 C 0.62696 0.76019 0.67395 0.0
C856 C 0.51172 0.40784 0.83323 0.0
C857 C 0.52342 0.39237 0.87444 0.0
H858 H 0.48072 0.42009 0.80219 0.0
C859 C 0.51205 0.37623 0.91362 0.0
H860 H 0.51995 0.42045 0.80212 0.0
C861 C 0.48945 0.37605 0.91378 0.0
C862 C 0.47778 0.39197 0.87459 0.0
H863 H 0.52058 0.36405 0.94583 0.0
H864 H 0.48115 0.36372 0.94603 0.0
C865 C 0.48918 0.40762 0.83322 0.0
C866 C 0.99069 0.62245 0.40376 0.0
C867 C 0.97893 0.60572 0.36923 0.0
H868 H 0.02187 0.63502 0.43233 0.0
C869 C 0.99026 0.5891 0.33255 0.0
H870 H 0.98246 0.63554 0.43228 0.0
C871 C 0.01282 0.58878 0.33272 0.0
C872 C 0.02459 0.60511 0.36935 0.0
H873 H 0.98173 0.57598 0.30522 0.0
H874 H 0.021 0.57544 0.30544 0.0
C875 C 0.01329 0.62217 0.4037 0.0
C876 C 0.98756 0.40892 0.63635 0.0
C877 C 0.97614 0.3936 0.5935 0.0
H878 H 0.01837 0.42107 0.67042 0.0
C879 C 0.98778 0.37773 0.554 0.0
H880 H 0.97911 0.42136 0.66757 0.0
C881 C 0.01037 0.37755 0.55568 0.0
C882 C 0.02178 0.39327 0.59679 0.0
H883 H 0.97948 0.36566 0.52058 0.0
H884 H 0.01886 0.36535 0.52351 0.0
C885 C 0.01011 0.40877 0.63793 0.0
C886 C 0.48476 0.62192 0.07084 0.0
C887 C 0.47323 0.60581 0.10965 0.0
H888 H 0.51576 0.63432 0.03921 0.0
C889 C 0.48479 0.59031 0.15122 0.0
H890 H 0.47637 0.63413 0.03839 0.0
C891 C 0.50735 0.59042 0.15169 0.0
C892 C 0.5189 0.60602 0.11055 0.0
H893 H 0.47643 0.5777 0.18197 0.0
H894 H 0.51571 0.5779 0.18282 0.0
C895 C 0.50736 0.62201 0.07125 0.0
C896 C 0.1199 0.12274 0.29003 0.0
C897 C 0.13503 0.1378 0.31722 0.0
H898 H 0.09617 0.09889 0.31742 0.0
C899 C 0.13702 0.14087 0.39547 0.0
H900 H 0.11791 0.12005 0.22997 0.0
C901 C 0.12451 0.12876 0.44557 0.0
C902 C 0.10978 0.11331 0.41842 0.0
H903 H 0.14846 0.1524 0.41817 0.0
H904 H 0.12666 0.13129 0.50565 0.0
C905 C 0.10742 0.11061 0.34013 0.0
C906 C 0.12537 0.87078 0.53709 0.0
C907 C 0.11054 0.88612 0.56428 0.0
H908 H 0.14926 0.8471 0.56446 0.0
C909 C 0.10797 0.8886 0.64258 0.0
H910 H 0.12768 0.86842 0.47699 0.0
C911 C 0.12033 0.87634 0.69266 0.0
C912 C 0.13554 0.86138 0.66546 0.0
H913 H 0.09664 0.90022 0.66531 0.0
H914 H 0.11817 0.87886 0.75274 0.0
C915 C 0.13775 0.85854 0.58718 0.0
C916 C 0.37466 0.86972 0.94566 0.0
C917 C 0.38952 0.88505 0.91841 0.0
H918 H 0.3508 0.84599 0.91838 0.0
C919 C 0.39224 0.88735 0.84011 0.0
H920 H 0.37224 0.86749 0.00576 0.0
C921 C 0.37996 0.875 0.79006 0.0
C922 C 0.36469 0.86009 0.81731 0.0
H923 H 0.4036 0.89895 0.81733 0.0
H924 H 0.38221 0.87741 0.72996 0.0
C925 C 0.36237 0.85738 0.89561 0.0
C926 C 0.3743 0.12874 0.03975 0.0
C927 C 0.38915 0.11341 0.06693 0.0
H928 H 0.35038 0.15238 0.06711 0.0
C929 C 0.39174 0.11094 0.14523 0.0
H930 H 0.37197 0.13109 0.97966 0.0
C931 C 0.37936 0.12318 0.19533 0.0
C932 C 0.36412 0.13811 0.16812 0.0
H933 H 0.40308 0.09934 0.16795 0.0
H934 H 0.38153 0.12066 0.25541 0.0
C935 C 0.36191 0.14095 0.08984 0.0
C936 C 0.87379 0.86917 0.53978 0.0
C937 C 0.8884 0.88472 0.56697 0.0
H938 H 0.85013 0.84523 0.5671 0.0
C939 C 0.89088 0.88729 0.64528 0.0
H940 H 0.87155 0.86673 0.47969 0.0
C941 C 0.8786 0.87493 0.69536 0.0
C942 C 0.86358 0.85977 0.66813 0.0
H943 H 0.90204 0.89908 0.66801 0.0
H944 H 0.88066 0.87754 0.75544 0.0
C945 C 0.86149 0.85683 0.58985 0.0
C946 C 0.87786 0.12303 0.28769 0.0
C947 C 0.86267 0.13801 0.31497 0.0
H948 H 0.90147 0.09906 0.31493 0.0
C949 C 0.86045 0.14079 0.39328 0.0
H950 H 0.88003 0.12056 0.22759 0.0
C951 C 0.87278 0.12848 0.44331 0.0
C952 C 0.88757 0.11311 0.41604 0.0
H953 H 0.84896 0.15225 0.41608 0.0
H954 H 0.87045 0.1308 0.50341 0.0
C955 C 0.89017 0.1107 0.33772 0.0
C956 C 0.63716 0.14347 0.09494 0.0
C957 C 0.63458 0.14106 0.17326 0.0
H958 H 0.62776 0.13288 0.98485 0.0
C959 C 0.61928 0.12619 0.20053 0.0
H960 H 0.64876 0.15483 0.07213 0.0
C961 C 0.60725 0.11356 0.15052 0.0
C962 C 0.61026 0.11556 0.07224 0.0
H963 H 0.61683 0.12399 0.26064 0.0
H964 H 0.59587 0.10199 0.17333 0.0
C965 C 0.62513 0.13086 0.04494 0.0
C966 C 0.62003 0.87492 0.78916 0.0
C967 C 0.63531 0.86004 0.8164 0.0
H968 H 0.59651 0.89898 0.81643 0.0
C969 C 0.63782 0.85753 0.89471 0.0
H970 H 0.61764 0.87719 0.72905 0.0
C971 C 0.62568 0.87001 0.94475 0.0
C972 C 0.61079 0.88529 0.91749 0.0
H973 H 0.6494 0.84616 0.91749 0.0
H974 H 0.62823 0.8679 0.00484 0.0
C975 C 0.6079 0.88743 0.8392 0.0
C976 C 0.62243 0.62928 0.95072 0.0
C977 C 0.60771 0.61383 0.92344 0.0
H978 H 0.64648 0.65285 0.92357 0.0
C979 C 0.60548 0.61108 0.84512 0.0
H980 H 0.62449 0.63185 0.01082 0.0
C981 C 0.61808 0.62315 0.79515 0.0
C982 C 0.6332 0.6382 0.82247 0.0
H983 H 0.59425 0.59936 0.82231 0.0
H984 H 0.61618 0.6204 0.73507 0.0
C985 C 0.63505 0.64133 0.90074 0.0
C986 C 0.62055 0.37481 0.19067 0.0
C987 C 0.63645 0.36058 0.16361 0.0
H988 H 0.59616 0.39795 0.16325 0.0
C989 C 0.63917 0.35824 0.08528 0.0
H990 H 0.61797 0.37692 0.25075 0.0
C991 C 0.62666 0.37033 0.03509 0.0
C992 C 0.61114 0.38498 0.06224 0.0
H993 H 0.65124 0.34737 0.06264 0.0
H994 H 0.62941 0.36844 0.97501 0.0
C995 C 0.60802 0.38688 0.14052 0.0
C996 C 0.87304 0.37044 0.43282 0.0
C997 C 0.8882 0.38547 0.4056 0.0
H998 H 0.84908 0.34681 0.40549 0.0
C999 C 0.8913 0.38741 0.32734 0.0
H1000 H 0.87032 0.36849 0.49289 0.0
C1001 C 0.87914 0.37493 0.27728 0.0
C1002 C 0.8636 0.36029 0.30446 0.0
H1003 H 0.90289 0.39877 0.3046 0.0
H1004 H 0.8817 0.37703 0.21719 0.0
C1005 C 0.86085 0.35799 0.38276 0.0
C1006 C 0.86301 0.64207 0.58149 0.0
C1007 C 0.86501 0.63906 0.65977 0.0
H1008 H 0.87349 0.63254 0.47139 0.0
C1009 C 0.88038 0.62427 0.6871 0.0
H1010 H 0.8514 0.65339 0.55867 0.0
C1011 C 0.89305 0.61231 0.63712 0.0
C1012 C 0.89063 0.61488 0.55879 0.0
H1013 H 0.8824 0.62165 0.74718 0.0
H1014 H 0.90445 0.60077 0.65994 0.0
C1015 C 0.87569 0.63011 0.5315 0.0
C1016 C 0.36232 0.35654 0.08462 0.0
C1017 C 0.36437 0.35954 0.16288 0.0
H1018 H 0.37254 0.36627 0.97446 0.0
C1019 C 0.37945 0.37464 0.1901 0.0
H1020 H 0.35091 0.34499 0.06187 0.0
C1021 C 0.39185 0.38688 0.14001 0.0
C1022 C 0.38943 0.38425 0.06171 0.0
H1023 H 0.38148 0.37728 0.25017 0.0
H1024 H 0.40307 0.39862 0.16272 0.0
C1025 C 0.37474 0.36876 0.03454 0.0
C1026 C 0.3897 0.61007 0.83086 0.0
C1027 C 0.38734 0.61274 0.90922 0.0
H1028 H 0.37962 0.62001 0.72064 0.0
C1029 C 0.37318 0.62869 0.93635 0.0
H1030 H 0.40051 0.59797 0.80816 0.0
C1031 C 0.36122 0.64134 0.88626 0.0
C1032 C 0.36315 0.6383 0.80795 0.0
H1033 H 0.37105 0.63124 -0.00356 0.0
H1034 H 0.3502 0.65325 0.90906 0.0
C1035 C 0.37771 0.62271 0.78073 0.0
C1036 C 0.1381 0.64016 0.59431 0.0
C1037 C 0.13414 0.63912 0.67234 0.0
H1038 H 0.12945 0.62884 0.48429 0.0
C1039 C 0.11718 0.62604 0.69887 0.0
H1040 H 0.15099 0.65012 0.57203 0.0
C1041 C 0.10479 0.61387 0.64854 0.0
C1042 C 0.10914 0.61446 0.5707 0.0
H1043 H 0.11366 0.62495 0.75869 0.0
H1044 H 0.09208 0.60369 0.67089 0.0
C1045 C 0.12575 0.62794 0.54402 0.0
C1046 C 0.12041 0.37425 0.29323 0.0
C1047 C 0.13528 0.35889 0.31999 0.0
H1048 H 0.09725 0.39858 0.32129 0.0
C1049 C 0.1374 0.35577 0.39818 0.0
H1050 H 0.11834 0.377 0.23323 0.0
C1051 C 0.12526 0.36813 0.44862 0.0
C1052 C 0.1108 0.38388 0.42188 0.0
H1053 H 0.14865 0.34402 0.42055 0.0
H1054 H 0.12749 0.36555 0.50864 0.0
C1055 C 0.10831 0.38664 0.34367 0.0
loop_
_geom_bond_atom_site_label_1
_geom_bond_atom_site_label_2
_geom_bond_distance
_geom_bond_site_symmetry_2
_ccdc_geom_bond_type
C0 O1 1.160 . S
C0 O7 1.185 . S
O1 C0 1.160 . S
O2 Zn3 1.899 . S
O2 C10 1.284 . S
Zn3 O2 1.899 . S
Zn3 O4 2.032 . S
Zn3 O7 2.086 . S
Zn3 O12 1.977 . S
O4 Zn3 2.032 . S
O4 C8 1.278 . S
C5 O6 1.203 . S
C5 O12 1.267 . S
O6 C5 1.203 . S
O7 C0 1.185 . S
O7 Zn3 2.086 . S
C8 O4 1.278 . S
C8 O9 1.211 . S
O9 C8 1.211 . S
C10 O2 1.284 . S
C10 O11 1.273 . S
O11 C10 1.273 . S
O12 Zn3 1.977 . S
O12 C5 1.267 . S
C13 O14 1.160 . S
C13 O20 1.185 . S
O14 C13 1.160 . S
O15 Zn16 1.899 . S
O15 C23 1.284 . S
Zn16 O15 1.899 . S
Zn16 O17 2.032 . S
Zn16 O20 2.086 . S
Zn16 O25 1.977 . S
O17 Zn16 2.032 . S
O17 C21 1.278 . S
C18 O19 1.203 . S
C18 O25 1.267 . S
O19 C18 1.203 . S
O20 C13 1.185 . S
O20 Zn16 2.086 . S
C21 O17 1.278 . S
C21 O22 1.211 . S
O22 C21 1.211 . S
C23 O15 1.284 . S
C23 O24 1.273 . S
O24 C23 1.273 . S
O25 Zn16 1.977 . S
O25 C18 1.267 . S
C26 O27 1.160 . S
C26 O33 1.185 . S
O27 C26 1.160 . S
O28 Zn29 1.899 . S
O28 C36 1.284 . S
Zn29 O28 1.899 . S
Zn29 O30 2.032 . S
Zn29 O33 2.086 . S
Zn29 O38 1.977 . S
O30 Zn29 2.032 . S
O30 C34 1.278 . S
C31 O32 1.203 . S
C31 O38 1.267 . S
O32 C31 1.203 . S
O33 C26 1.185 . S
O33 Zn29 2.086 . S
C34 O30 1.278 . S
C34 O35 1.211 . S
O35 C34 1.211 . S
C36 O28 1.284 . S
C36 O37 1.273 . S
O37 C36 1.273 . S
O38 Zn29 1.977 . S
O38 C31 1.267 . S
C39 O40 1.160 . S
C39 O46 1.185 . S
O40 C39 1.160 . S
O41 Zn42 1.899 . S
O41 C49 1.284 . S
Zn42 O41 1.899 . S
Zn42 O43 2.032 . S
Zn42 O46 2.086 . S
Zn42 O51 1.977 . S
O43 Zn42 2.032 . S
O43 C47 1.278 1_556 S
C44 O45 1.203 . S
C44 O51 1.267 . S
O45 C44 1.203 . S
O46 C39 1.185 . S
O46 Zn42 2.086 . S
C47 O43 1.278 1_554 S
C47 O48 1.211 . S
O48 C47 1.211 . S
C49 O41 1.284 . S
C49 O50 1.273 . S
O50 C49 1.273 . S
O51 Zn42 1.977 . S
O51 C44 1.267 . S
C52 O53 1.160 . S
C52 O59 1.185 . S
O53 C52 1.160 . S
O54 Zn55 1.899 . S
O54 C62 1.284 . S
Zn55 O54 1.899 . S
Zn55 O56 2.032 . S
Zn55 O59 2.086 . S
Zn55 O64 1.977 . S
O56 Zn55 2.032 . S
O56 C60 1.278 . S
C57 O58 1.203 . S
C57 O64 1.267 . S
O58 C57 1.203 . S
O59 C52 1.185 . S
O59 Zn55 2.086 . S
C60 O56 1.278 . S
C60 O61 1.211 . S
O61 C60 1.211 . S
C62 O54 1.284 . S
C62 O63 1.273 . S
O63 C62 1.273 . S
O64 Zn55 1.977 . S
O64 C57 1.267 . S
C65 O66 1.160 . S
C65 O72 1.185 . S
O66 C65 1.160 . S
O67 Zn68 1.899 . S
O67 C75 1.284 . S
Zn68 O67 1.899 . S
Zn68 O69 2.032 . S
Zn68 O72 2.086 . S
Zn68 O77 1.977 . S
O69 Zn68 2.032 . S
O69 C73 1.278 1_554 S
C70 O71 1.203 . S
C70 O77 1.267 . S
O71 C70 1.203 . S
O72 C65 1.185 . S
O72 Zn68 2.086 . S
C73 O69 1.278 1_556 S
C73 O74 1.211 . S
O74 C73 1.211 . S
C75 O67 1.284 . S
C75 O76 1.273 . S
O76 C75 1.273 . S
O77 Zn68 1.977 . S
O77 C70 1.267 . S
C78 O79 1.160 . S
C78 O85 1.185 . S
O79 C78 1.160 . S
O80 Zn81 1.899 . S
O80 C88 1.284 . S
Zn81 O80 1.899 . S
Zn81 O82 2.032 . S
Zn81 O85 2.086 . S
Zn81 O90 1.977 . S
O82 Zn81 2.032 . S
O82 C86 1.278 . S
C83 O84 1.203 . S
C83 O90 1.267 . S
O84 C83 1.203 . S
O85 C78 1.185 . S
O85 Zn81 2.086 . S
C86 O82 1.278 . S
C86 O87 1.211 . S
O87 C86 1.211 . S
C88 O80 1.284 . S
C88 O89 1.273 . S
O89 C88 1.273 . S
O90 Zn81 1.977 . S
O90 C83 1.267 . S
C91 O92 1.160 . S
C91 O98 1.185 . S
O92 C91 1.160 . S
O93 Zn94 1.899 . S
O93 C101 1.284 . S
Zn94 O93 1.899 . S
Zn94 O95 2.032 . S
Zn94 O98 2.086 . S
Zn94 O103 1.977 . S
O95 Zn94 2.032 . S
O95 C99 1.278 . S
C96 O97 1.203 . S
C96 O103 1.267 . S
O97 C96 1.203 . S
O98 C91 1.185 . S
O98 Zn94 2.086 . S
C99 O95 1.278 . S
C99 O100 1.211 . S
O100 C99 1.211 . S
C101 O93 1.284 . S
C101 O102 1.273 . S
O102 C101 1.273 . S
O103 Zn94 1.977 . S
O103 C96 1.267 . S
C104 O105 1.160 . S
C104 O111 1.185 . S
O105 C104 1.160 . S
O106 Zn107 1.899 . S
O106 C114 1.284 . S
Zn107 O106 1.899 . S
Zn107 O108 2.032 . S
Zn107 O111 2.086 . S
Zn107 O116 1.977 . S
O108 Zn107 2.032 . S
O108 C112 1.278 . S
C109 O110 1.203 . S
C109 O116 1.267 . S
O110 C109 1.203 . S
O111 C104 1.185 . S
O111 Zn107 2.086 . S
C112 O108 1.278 . S
C112 O113 1.211 . S
O113 C112 1.211 . S
C114 O106 1.284 . S
C114 O115 1.273 . S
O115 C114 1.273 . S
O116 Zn107 1.977 . S
O116 C109 1.267 . S
C117 O118 1.160 . S
C117 O124 1.185 . S
O118 C117 1.160 . S
O119 Zn120 1.899 . S
O119 C127 1.284 . S
Zn120 O119 1.899 . S
Zn120 O121 2.032 . S
Zn120 O124 2.086 . S
Zn120 O129 1.977 . S
O121 Zn120 2.032 . S
O121 C125 1.278 . S
C122 O123 1.203 . S
C122 O129 1.267 . S
O123 C122 1.203 . S
O124 C117 1.185 . S
O124 Zn120 2.086 . S
C125 O121 1.278 . S
C125 O126 1.211 . S
O126 C125 1.211 . S
C127 O119 1.284 . S
C127 O128 1.273 . S
O128 C127 1.273 . S
O129 Zn120 1.977 . S
O129 C122 1.267 . S
C130 O131 1.160 . S
C130 O137 1.185 . S
O131 C130 1.160 . S
O132 Zn133 1.899 . S
O132 C140 1.284 . S
Zn133 O132 1.899 . S
Zn133 O134 2.032 . S
Zn133 O137 2.086 . S
Zn133 O142 1.977 . S
O134 Zn133 2.032 . S
O134 C138 1.278 . S
C135 O136 1.203 . S
C135 O142 1.267 . S
O136 C135 1.203 . S
O137 C130 1.185 . S
O137 Zn133 2.086 . S
C138 O134 1.278 . S
C138 O139 1.211 . S
O139 C138 1.211 . S
C140 O132 1.284 . S
C140 O141 1.273 . S
O141 C140 1.273 . S
O142 Zn133 1.977 . S
O142 C135 1.267 . S
C143 O144 1.160 . S
C143 O150 1.185 . S
O144 C143 1.160 . S
O145 Zn146 1.899 . S
O145 C153 1.284 . S
Zn146 O145 1.899 . S
Zn146 O147 2.032 . S
Zn146 O150 2.086 . S
Zn146 O155 1.977 . S
O147 Zn146 2.032 . S
O147 C151 1.278 1_554 S
C148 O149 1.203 . S
C148 O155 1.267 . S
O149 C148 1.203 . S
O150 C143 1.185 . S
O150 Zn146 2.086 . S
C151 O147 1.278 1_556 S
C151 O152 1.211 . S
O152 C151 1.211 . S
C153 O145 1.284 . S
C153 O154 1.273 . S
O154 C153 1.273 . S
O155 Zn146 1.977 . S
O155 C148 1.267 . S
C156 O157 1.160 . S
C156 O163 1.185 . S
O157 C156 1.160 . S
O158 Zn159 1.899 . S
O158 C166 1.284 . S
Zn159 O158 1.899 . S
Zn159 O160 2.032 . S
Zn159 O163 2.086 . S
Zn159 O168 1.977 . S
O160 Zn159 2.032 . S
O160 C164 1.278 . S
C161 O162 1.203 . S
C161 O168 1.267 . S
O162 C161 1.203 . S
O163 C156 1.185 . S
O163 Zn159 2.086 . S
C164 O160 1.278 . S
C164 O165 1.211 . S
O165 C164 1.211 . S
C166 O158 1.284 . S
C166 O167 1.273 . S
O167 C166 1.273 . S
O168 Zn159 1.977 . S
O168 C161 1.267 . S
C169 O170 1.160 . S
C169 O176 1.185 . S
O170 C169 1.160 . S
O171 Zn172 1.899 . S
O171 C179 1.284 . S
Zn172 O171 1.899 . S
Zn172 O173 2.032 . S
Zn172 O176 2.086 . S
Zn172 O181 1.977 . S
O173 Zn172 2.032 . S
O173 C177 1.278 1_556 S
C174 O175 1.203 . S
C174 O181 1.267 . S
O175 C174 1.203 . S
O176 C169 1.185 . S
O176 Zn172 2.086 . S
C177 O173 1.278 1_554 S
C177 O178 1.211 . S
O178 C177 1.211 . S
C179 O171 1.284 . S
C179 O180 1.273 . S
O180 C179 1.273 . S
O181 Zn172 1.977 . S
O181 C174 1.267 . S
C182 O183 1.160 . S
C182 O189 1.185 . S
O183 C182 1.160 . S
O184 Zn185 1.899 . S
O184 C192 1.284 . S
Zn185 O184 1.899 . S
Zn185 O186 2.032 . S
Zn185 O189 2.086 . S
Zn185 O194 1.977 . S
O186 Zn185 2.032 . S
O186 C190 1.278 . S
C187 O188 1.203 . S
C187 O194 1.267 . S
O188 C187 1.203 . S
O189 C182 1.185 . S
O189 Zn185 2.086 . S
C190 O186 1.278 . S
C190 O191 1.211 . S
O191 C190 1.211 . S
C192 O184 1.284 . S
C192 O193 1.273 . S
O193 C192 1.273 . S
O194 Zn185 1.977 . S
O194 C187 1.267 . S
C195 O196 1.160 . S
C195 O202 1.185 . S
O196 C195 1.160 . S
O197 Zn198 1.899 . S
O197 C205 1.284 . S
Zn198 O197 1.899 . S
Zn198 O199 2.032 . S
Zn198 O202 2.086 . S
Zn198 O207 1.977 . S
O199 Zn198 2.032 . S
O199 C203 1.278 . S
C200 O201 1.203 . S
C200 O207 1.267 . S
O201 C200 1.203 . S
O202 C195 1.185 . S
O202 Zn198 2.086 . S
C203 O199 1.278 . S
C203 O204 1.211 . S
O204 C203 1.211 . S
C205 O197 1.284 . S
C205 O206 1.273 . S
O206 C205 1.273 . S
O207 Zn198 1.977 . S
O207 C200 1.267 . S
C208 O209 1.160 . S
C208 O215 1.185 . S
O209 C208 1.160 . S
O210 Zn211 1.899 . S
O210 C218 1.284 . S
Zn211 O210 1.899 . S
Zn211 O212 2.032 . S
Zn211 O215 2.086 . S
Zn211 O220 1.977 . S
O212 Zn211 2.032 . S
O212 C216 1.278 . S
C213 O214 1.203 . S
C213 O220 1.267 . S
O214 C213 1.203 . S
O215 C208 1.185 . S
O215 Zn211 2.086 . S
C216 O212 1.278 . S
C216 O217 1.211 . S
O217 C216 1.211 . S
C218 O210 1.284 . S
C218 O219 1.273 . S
O219 C218 1.273 . S
O220 Zn211 1.977 . S
O220 C213 1.267 . S
C221 O222 1.160 . S
C221 O228 1.185 . S
O222 C221 1.160 . S
O223 Zn224 1.899 . S
O223 C231 1.284 . S
Zn224 O223 1.899 . S
Zn224 O225 2.032 . S
Zn224 O228 2.086 . S
Zn224 O233 1.977 . S
O225 Zn224 2.032 . S
O225 C229 1.278 1_556 S
C226 O227 1.203 . S
C226 O233 1.267 . S
O227 C226 1.203 . S
O228 C221 1.185 . S
O228 Zn224 2.086 . S
C229 O225 1.278 1_554 S
C229 O230 1.211 . S
O230 C229 1.211 . S
C231 O223 1.284 . S
C231 O232 1.273 . S
O232 C231 1.273 . S
O233 Zn224 1.977 . S
O233 C226 1.267 . S
C234 O235 1.160 . S
C234 O241 1.185 . S
O235 C234 1.160 . S
O236 Zn237 1.899 . S
O236 C244 1.284 . S
Zn237 O236 1.899 . S
Zn237 O238 2.032 . S
Zn237 O241 2.086 . S
Zn237 O246 1.977 . S
O238 Zn237 2.032 . S
O238 C242 1.278 . S
C239 O240 1.203 . S
C239 O246 1.267 . S
O240 C239 1.203 . S
O241 C234 1.185 . S
O241 Zn237 2.086 . S
C242 O238 1.278 . S
C242 O243 1.211 . S
O243 C242 1.211 . S
C244 O236 1.284 . S
C244 O245 1.273 . S
O245 C244 1.273 . S
O246 Zn237 1.977 . S
O246 C239 1.267 . S
C247 O248 1.160 . S
C247 O254 1.185 . S
O248 C247 1.160 . S
O249 Zn250 1.899 . S
O249 C257 1.284 . S
Zn250 O249 1.899 . S
Zn250 O251 2.032 . S
Zn250 O254 2.086 . S
Zn250 O259 1.977 . S
O251 Zn250 2.032 . S
O251 C255 1.278 . S
C252 O253 1.203 . S
C252 O259 1.267 . S
O253 C252 1.203 . S
O254 C247 1.185 . S
O254 Zn250 2.086 . S
C255 O251 1.278 . S
C255 O256 1.211 . S
O256 C255 1.211 . S
C257 O249 1.284 . S
C257 O258 1.273 . S
O258 C257 1.273 . S
O259 Zn250 1.977 . S
O259 C252 1.267 . S
C260 O261 1.160 . S
C260 O267 1.185 . S
O261 C260 1.160 . S
O262 Zn263 1.899 . S
O262 C270 1.284 . S
Zn263 O262 1.899 . S
Zn263 O264 2.032 . S
Zn263 O267 2.086 . S
Zn263 O272 1.977 . S
O264 Zn263 2.032 . S
O264 C268 1.278 . S
C265 O266 1.203 . S
C265 O272 1.267 . S
O266 C265 1.203 . S
O267 C260 1.185 . S
O267 Zn263 2.086 . S
C268 O264 1.278 . S
C268 O269 1.211 . S
O269 C268 1.211 . S
C270 O262 1.284 . S
C270 O271 1.273 . S
O271 C270 1.273 . S
O272 Zn263 1.977 . S
O272 C265 1.267 . S
C273 O274 1.160 . S
C273 O280 1.185 . S
O274 C273 1.160 . S
O275 Zn276 1.899 . S
O275 C283 1.284 . S
Zn276 O275 1.899 . S
Zn276 O277 2.032 . S
Zn276 O280 2.086 . S
Zn276 O285 1.977 . S
O277 Zn276 2.032 . S
O277 C281 1.278 . S
C278 O279 1.203 . S
C278 O285 1.267 . S
O279 C278 1.203 . S
O280 C273 1.185 . S
O280 Zn276 2.086 . S
C281 O277 1.278 . S
C281 O282 1.211 . S
O282 C281 1.211 . S
C283 O275 1.284 . S
C283 O284 1.273 . S
O284 C283 1.273 . S
O285 Zn276 1.977 . S
O285 C278 1.267 . S
C286 O287 1.160 . S
C286 O293 1.185 . S
O287 C286 1.160 . S
O288 Zn289 1.899 . S
O288 C296 1.284 . S
Zn289 O288 1.899 . S
Zn289 O290 2.032 . S
Zn289 O293 2.086 . S
Zn289 O298 1.977 . S
O290 Zn289 2.032 . S
O290 C294 1.278 . S
C291 O292 1.203 . S
C291 O298 1.267 . S
O292 C291 1.203 . S
O293 C286 1.185 . S
O293 Zn289 2.086 . S
C294 O290 1.278 . S
C294 O295 1.211 . S
O295 C294 1.211 . S
C296 O288 1.284 . S
C296 O297 1.273 . S
O297 C296 1.273 . S
O298 Zn289 1.977 . S
O298 C291 1.267 . S
C299 O300 1.160 . S
C299 O306 1.185 . S
O300 C299 1.160 . S
O301 Zn302 1.899 . S
O301 C309 1.284 . S
Zn302 O301 1.899 . S
Zn302 O303 2.032 . S
Zn302 O306 2.086 . S
Zn302 O311 1.977 . S
O303 Zn302 2.032 . S
O303 C307 1.278 1_554 S
C304 O305 1.203 . S
C304 O311 1.267 . S
O305 C304 1.203 . S
O306 C299 1.185 . S
O306 Zn302 2.086 . S
C307 O303 1.278 1_556 S
C307 O308 1.211 . S
O308 C307 1.211 . S
C309 O301 1.284 . S
C309 O310 1.273 . S
O310 C309 1.273 . S
O311 Zn302 1.977 . S
O311 C304 1.267 . S
C312 O313 1.160 . S
C312 O319 1.185 . S
O313 C312 1.160 . S
O314 Zn315 1.899 . S
O314 C322 1.284 . S
Zn315 O314 1.899 . S
Zn315 O316 2.032 . S
Zn315 O319 2.086 . S
Zn315 O324 1.977 . S
O316 Zn315 2.032 . S
O316 C320 1.278 . S
C317 O318 1.203 . S
C317 O324 1.267 . S
O318 C317 1.203 . S
O319 C312 1.185 . S
O319 Zn315 2.086 . S
C320 O316 1.278 . S
C320 O321 1.211 . S
O321 C320 1.211 . S
C322 O314 1.284 . S
C322 O323 1.273 . S
O323 C322 1.273 . S
O324 Zn315 1.977 . S
O324 C317 1.267 . S
C325 O326 1.160 . S
C325 O332 1.185 . S
O326 C325 1.160 . S
O327 Zn328 1.899 . S
O327 C335 1.284 . S
Zn328 O327 1.899 . S
Zn328 O329 2.032 . S
Zn328 O332 2.086 . S
Zn328 O337 1.977 . S
O329 Zn328 2.032 . S
O329 C333 1.278 1_554 S
C330 O331 1.203 . S
C330 O337 1.267 . S
O331 C330 1.203 . S
O332 C325 1.185 . S
O332 Zn328 2.086 . S
C333 O329 1.278 1_556 S
C333 O334 1.211 . S
O334 C333 1.211 . S
C335 O327 1.284 . S
C335 O336 1.273 . S
O336 C335 1.273 . S
O337 Zn328 1.977 . S
O337 C330 1.267 . S
C338 O339 1.160 . S
C338 O345 1.185 . S
O339 C338 1.160 . S
O340 Zn341 1.899 . S
O340 C348 1.284 . S
Zn341 O340 1.899 . S
Zn341 O342 2.032 . S
Zn341 O345 2.086 . S
Zn341 O350 1.977 . S
O342 Zn341 2.032 . S
O342 C346 1.278 . S
C343 O344 1.203 . S
C343 O350 1.267 . S
O344 C343 1.203 . S
O345 C338 1.185 . S
O345 Zn341 2.086 . S
C346 O342 1.278 . S
C346 O347 1.211 . S
O347 C346 1.211 . S
C348 O340 1.284 . S
C348 O349 1.273 . S
O349 C348 1.273 . S
O350 Zn341 1.977 . S
O350 C343 1.267 . S
C351 O352 1.160 . S
C351 O358 1.185 . S
O352 C351 1.160 . S
O353 Zn354 1.899 . S
O353 C361 1.284 . S
Zn354 O353 1.899 . S
Zn354 O355 2.032 . S
Zn354 O358 2.086 . S
Zn354 O363 1.977 . S
O355 Zn354 2.032 . S
O355 C359 1.278 . S
C356 O357 1.203 . S
C356 O363 1.267 . S
O357 C356 1.203 . S
O358 C351 1.185 . S
O358 Zn354 2.086 . S
C359 O355 1.278 . S
C359 O360 1.211 . S
O360 C359 1.211 . S
C361 O353 1.284 . S
C361 O362 1.273 . S
O362 C361 1.273 . S
O363 Zn354 1.977 . S
O363 C356 1.267 . S
C364 O365 1.160 . S
C364 O371 1.185 . S
O365 C364 1.160 . S
O366 Zn367 1.899 . S
O366 C374 1.284 . S
Zn367 O366 1.899 . S
Zn367 O368 2.032 . S
Zn367 O371 2.086 . S
Zn367 O376 1.977 . S
O368 Zn367 2.032 . S
O368 C372 1.278 . S
C369 O370 1.203 . S
C369 O376 1.267 . S
O370 C369 1.203 . S
O371 C364 1.185 . S
O371 Zn367 2.086 . S
C372 O368 1.278 . S
C372 O373 1.211 . S
O373 C372 1.211 . S
C374 O366 1.284 . S
C374 O375 1.273 . S
O375 C374 1.273 . S
O376 Zn367 1.977 . S
O376 C369 1.267 . S
C377 O378 1.160 . S
C377 O384 1.185 . S
O378 C377 1.160 . S
O379 Zn380 1.899 . S
O379 C387 1.284 . S
Zn380 O379 1.899 . S
Zn380 O381 2.032 . S
Zn380 O384 2.086 . S
Zn380 O389 1.977 . S
O381 Zn380 2.032 . S
O381 C385 1.278 . S
C382 O383 1.203 . S
C382 O389 1.267 . S
O383 C382 1.203 . S
O384 C377 1.185 . S
O384 Zn380 2.086 . S
C385 O381 1.278 . S
C385 O386 1.211 . S
O386 C385 1.211 . S
C387 O379 1.284 . S
C387 O388 1.273 . S
O388 C387 1.273 . S
O389 Zn380 1.977 . S
O389 C382 1.267 . S
C390 O391 1.160 . S
C390 O397 1.185 . S
O391 C390 1.160 . S
O392 Zn393 1.899 . S
O392 C400 1.284 . S
Zn393 O392 1.899 . S
Zn393 O394 2.032 . S
Zn393 O397 2.086 . S
Zn393 O402 1.977 . S
O394 Zn393 2.032 . S
O394 C398 1.278 . S
C395 O396 1.203 . S
C395 O402 1.267 . S
O396 C395 1.203 . S
O397 C390 1.185 . S
O397 Zn393 2.086 . S
C398 O394 1.278 . S
C398 O399 1.211 . S
O399 C398 1.211 . S
C400 O392 1.284 . S
C400 O401 1.273 . S
O401 C400 1.273 . S
O402 Zn393 1.977 . S
O402 C395 1.267 . S
C403 O404 1.160 . S
C403 O410 1.185 . S
O404 C403 1.160 . S
O405 Zn406 1.899 . S
O405 C413 1.284 . S
Zn406 O405 1.899 . S
Zn406 O407 2.032 . S
Zn406 O410 2.086 . S
Zn406 O415 1.977 . S
O407 Zn406 2.032 . S
O407 C411 1.278 1_556 S
C408 O409 1.203 . S
C408 O415 1.267 . S
O409 C408 1.203 . S
O410 C403 1.185 . S
O410 Zn406 2.086 . S
C411 O407 1.278 1_554 S
C411 O412 1.211 . S
O412 C411 1.211 . S
C413 O405 1.284 . S
C413 O414 1.273 . S
O414 C413 1.273 . S
O415 Zn406 1.977 . S
O415 C408 1.267 . S
C416 C417 1.387 . S
C416 H420 0.950 . S
C416 C425 1.390 . S
C417 C416 1.387 . S
C417 C419 1.387 . S
H418 C425 0.950 . S
C419 C417 1.387 . S
C419 C421 1.390 . S
C419 H423 0.950 . S
H420 C416 0.950 . S
C421 C419 1.390 . S
C421 C422 1.387 . S
C421 H424 0.950 . S
C422 C421 1.387 . S
C422 C425 1.387 . S
H423 C419 0.950 . S
H424 C421 0.950 . S
C425 C416 1.390 . S
C425 H418 0.950 . S
C425 C422 1.387 . S
C426 C427 1.387 . S
C426 H430 0.950 . S
C426 C435 1.390 1_565 S
C427 C426 1.387 . S
C427 C429 1.387 . S
H428 C435 0.950 . S
C429 C427 1.387 . S
C429 C431 1.390 1_565 S
C429 H433 0.950 . S
H430 C426 0.950 . S
C431 C429 1.390 1_545 S
C431 C432 1.387 . S
C431 H434 0.950 . S
C432 C431 1.387 . S
C432 C435 1.387 . S
H433 C429 0.950 . S
H434 C431 0.950 . S
C435 C426 1.390 1_545 S
C435 H428 0.950 . S
C435 C432 1.387 . S
C436 C437 1.387 . S
C436 H440 0.950 . S
C436 C445 1.390 . S
C437 C436 1.387 . S
C437 C439 1.387 . S
H438 C445 0.950 . S
C439 C437 1.387 . S
C439 C441 1.390 . S
C439 H443 0.950 . S
H440 C436 0.950 . S
C441 C439 1.390 . S
C441 C442 1.387 . S
C441 H444 0.950 . S
C442 C441 1.387 . S
C442 C445 1.387 . S
H443 C439 0.950 . S
H444 C441 0.950 . S
C445 C436 1.390 . S
C445 H438 0.950 . S
C445 C442 1.387 . S
C446 C447 1.387 . S
C446 H450 0.950 . S
C446 C455 1.390 1_546 S
C447 C446 1.387 . S
C447 C449 1.387 . S
H448 C455 0.950 . S
C449 C447 1.387 . S
C449 C451 1.390 1_546 S
C449 H453 0.950 . S
H450 C446 0.950 . S
C451 C449 1.390 1_564 S
C451 C452 1.387 . S
C451 H454 0.950 . S
C452 C451 1.387 . S
C452 C455 1.387 . S
H453 C449 0.950 . S
H454 C451 0.950 . S
C455 C446 1.390 1_564 S
C455 H448 0.950 . S
C455 C452 1.387 . S
C456 C457 1.387 . S
C456 H460 0.950 . S
C456 C465 1.390 . S
C457 C456 1.387 . S
C457 C459 1.387 . S
H458 C465 0.950 . S
C459 C457 1.387 . S
C459 C461 1.390 . S
C459 H463 0.950 . S
H460 C456 0.950 . S
C461 C459 1.390 . S
C461 C462 1.387 . S
C461 H464 0.950 . S
C462 C461 1.387 . S
C462 C465 1.387 . S
H463 C459 0.950 . S
H464 C461 0.950 . S
C465 C456 1.390 . S
C465 H458 0.950 . S
C465 C462 1.387 . S
C466 C467 1.387 . S
C466 H470 0.950 . S
C466 C475 1.390 1_565 S
C467 C466 1.387 . S
C467 C469 1.387 . S
H468 C475 0.950 . S
C469 C467 1.387 . S
C469 C471 1.390 1_565 S
C469 H473 0.950 . S
H470 C466 0.950 . S
C471 C469 1.390 1_545 S
C471 C472 1.387 . S
C471 H474 0.950 . S
C472 C471 1.387 . S
C472 C475 1.387 . S
H473 C469 0.950 . S
H474 C471 0.950 . S
C475 C466 1.390 1_545 S
C475 H468 0.950 . S
C475 C472 1.387 . S
C476 C477 1.387 . S
C476 H480 0.950 . S
C476 C485 1.390 . S
C477 C476 1.387 . S
C477 C479 1.387 . S
H478 C485 0.950 . S
C479 C477 1.387 . S
C479 C481 1.390 . S
C479 H483 0.950 . S
H480 C476 0.950 . S
C481 C479 1.390 . S
C481 C482 1.387 . S
C481 H484 0.950 . S
C482 C481 1.387 . S
C482 C485 1.387 . S
H483 C479 0.950 . S
H484 C481 0.950 . S
C485 C476 1.390 . S
C485 H478 0.950 . S
C485 C482 1.387 . S
C486 C487 1.387 . S
C486 H490 0.950 . S
C486 C495 1.390 1_546 S
C487 C486 1.387 . S
C487 C489 1.387 . S
H488 C495 0.950 . S
C489 C487 1.387 . S
C489 C491 1.390 1_546 S
C489 H493 0.950 . S
H490 C486 0.950 . S
C491 C489 1.390 1_564 S
C491 C492 1.387 . S
C491 H494 0.950 . S
C492 C491 1.387 . S
C492 C495 1.387 . S
H493 C489 0.950 . S
H494 C491 0.950 . S
C495 C486 1.390 1_564 S
C495 H488 0.950 . S
C495 C492 1.387 . S
C496 C497 1.387 . S
C496 H500 0.950 . S
C496 C505 1.390 . S
C497 C496 1.387 . S
C497 C499 1.387 . S
H498 C505 0.950 . S
C499 C497 1.387 . S
C499 C501 1.390 . S
C499 H503 0.950 . S
H500 C496 0.950 . S
C501 C499 1.390 . S
C501 C502 1.387 . S
C501 H504 0.950 . S
C502 C501 1.387 . S
C502 C505 1.387 . S
H503 C499 0.950 . S
H504 C501 0.950 . S
C505 C496 1.390 . S
C505 H498 0.950 . S
C505 C502 1.387 . S
C506 C507 1.387 . S
C506 H510 0.950 . S
C506 C515 1.390 1_556 S
C507 C506 1.387 . S
C507 C509 1.387 . S
H508 C515 0.950 . S
C509 C507 1.387 . S
C509 C511 1.390 1_556 S
C509 H513 0.950 . S
H510 C506 0.950 . S
C511 C509 1.390 1_554 S
C511 C512 1.387 . S
C511 H514 0.950 . S
C512 C511 1.387 . S
C512 C515 1.387 . S
H513 C509 0.950 . S
H514 C511 0.950 . S
C515 C506 1.390 1_554 S
C515 H508 0.950 . S
C515 C512 1.387 . S
C516 C517 1.387 . S
C516 H520 0.950 . S
C516 C525 1.390 . S
C517 C516 1.387 . S
C517 C519 1.387 . S
H518 C525 0.950 . S
C519 C517 1.387 . S
C519 C521 1.390 . S
C519 H523 0.950 . S
H520 C516 0.950 . S
C521 C519 1.390 . S
C521 C522 1.387 . S
C521 H524 0.950 . S
C522 C521 1.387 . S
C522 C525 1.387 . S
H523 C519 0.950 . S
H524 C521 0.950 . S
C525 C516 1.390 . S
C525 H518 0.950 . S
C525 C522 1.387 . S
C526 C527 1.387 . S
C526 H530 0.950 . S
C526 C535 1.390 . S
C527 C526 1.387 . S
C527 C529 1.387 . S
H528 C535 0.950 . S
C529 C527 1.387 . S
C529 C531 1.390 . S
C529 H533 0.950 . S
H530 C526 0.950 . S
C531 C529 1.390 . S
C531 C532 1.387 . S
C531 H534 0.950 . S
C532 C531 1.387 . S
C532 C535 1.387 . S
H533 C529 0.950 . S
H534 C531 0.950 . S
C535 C526 1.390 . S
C535 H528 0.950 . S
C535 C532 1.387 . S
C536 C537 1.387 . S
C536 H540 0.950 . S
C536 C545 1.390 . S
C537 C536 1.387 . S
C537 C539 1.387 . S
H538 C545 0.950 . S
C539 C537 1.387 . S
C539 C541 1.390 . S
C539 H543 0.950 . S
H540 C536 0.950 . S
C541 C539 1.390 . S
C541 C542 1.387 . S
C541 H544 0.950 . S
C542 C541 1.387 . S
C542 C545 1.387 . S
H543 C539 0.950 . S
H544 C541 0.950 . S
C545 C536 1.390 . S
C545 H538 0.950 . S
C545 C542 1.387 . S
C546 C547 1.387 . S
C546 H550 0.950 . S
C546 C555 1.390 1_554 S
C547 C546 1.387 . S
C547 C549 1.387 . S
H548 C555 0.950 . S
C549 C547 1.387 . S
C549 C551 1.390 1_554 S
C549 H553 0.950 . S
H550 C546 0.950 . S
C551 C549 1.390 1_556 S
C551 C552 1.387 . S
C551 H554 0.950 . S
C552 C551 1.387 . S
C552 C555 1.387 . S
H553 C549 0.950 . S
H554 C551 0.950 . S
C555 C546 1.390 1_556 S
C555 H548 0.950 . S
C555 C552 1.387 . S
C556 C557 1.387 . S
C556 H560 0.950 . S
C556 C565 1.390 . S
C557 C556 1.387 . S
C557 C559 1.387 . S
H558 C565 0.950 . S
C559 C557 1.387 . S
C559 C561 1.390 . S
C559 H563 0.950 . S
H560 C556 0.950 . S
C561 C559 1.390 . S
C561 C562 1.387 . S
C561 H564 0.950 . S
C562 C561 1.387 . S
C562 C565 1.387 . S
H563 C559 0.950 . S
H564 C561 0.950 . S
C565 C556 1.390 . S
C565 H558 0.950 . S
C565 C562 1.387 . S
C566 C567 1.387 . S
C566 H570 0.950 . S
C566 C575 1.390 . S
C567 C566 1.387 . S
C567 C569 1.387 . S
H568 C575 0.950 . S
C569 C567 1.387 . S
C569 C571 1.390 . S
C569 H573 0.950 . S
H570 C566 0.950 . S
C571 C569 1.390 . S
C571 C572 1.387 . S
C571 H574 0.950 . S
C572 C571 1.387 . S
C572 C575 1.387 . S
H573 C569 0.950 . S
H574 C571 0.950 . S
C575 C566 1.390 . S
C575 H568 0.950 . S
C575 C572 1.387 . S
C576 C577 1.387 . S
C576 H580 0.950 . S
C576 C585 1.390 . S
C577 C576 1.387 . S
C577 C579 1.387 . S
H578 C585 0.950 . S
C579 C577 1.387 . S
C579 C581 1.390 . S
C579 H583 0.950 . S
H580 C576 0.950 . S
C581 C579 1.390 . S
C581 C582 1.387 . S
C581 H584 0.950 . S
C582 C581 1.387 . S
C582 C585 1.387 . S
H583 C579 0.950 . S
H584 C581 0.950 . S
C585 C576 1.390 . S
C585 H578 0.950 . S
C585 C582 1.387 . S
C586 C587 1.387 . S
C586 H590 0.950 . S
C586 C595 1.390 . S
C587 C586 1.387 . S
C587 C589 1.387 . S
H588 C595 0.950 . S
C589 C587 1.387 . S
C589 C591 1.390 . S
C589 H593 0.950 . S
H590 C586 0.950 . S
C591 C589 1.390 . S
C591 C592 1.387 . S
C591 H594 0.950 . S
C592 C591 1.387 . S
C592 C595 1.387 . S
H593 C589 0.950 . S
H594 C591 0.950 . S
C595 C586 1.390 . S
C595 H588 0.950 . S
C595 C592 1.387 . S
C596 C597 1.387 . S
C596 H600 0.950 . S
C596 C605 1.390 . S
C597 C596 1.387 . S
C597 C599 1.387 . S
H598 C605 0.950 . S
C599 C597 1.387 . S
C599 C601 1.390 . S
C599 H603 0.950 . S
H600 C596 0.950 . S
C601 C599 1.390 . S
C601 C602 1.387 . S
C601 H604 0.950 . S
C602 C601 1.387 . S
C602 C605 1.387 . S
H603 C599 0.950 . S
H604 C601 0.950 . S
C605 C596 1.390 . S
C605 H598 0.950 . S
C605 C602 1.387 . S
C606 C607 1.387 . S
C606 H610 0.950 . S
C606 C615 1.390 . S
C607 C606 1.387 . S
C607 C609 1.387 . S
H608 C615 0.950 . S
C609 C607 1.387 . S
C609 C611 1.390 . S
C609 H613 0.950 . S
H610 C606 0.950 . S
C611 C609 1.390 . S
C611 C612 1.387 . S
C611 H614 0.950 . S
C612 C611 1.387 . S
C612 C615 1.387 . S
H613 C609 0.950 . S
H614 C611 0.950 . S
C615 C606 1.390 . S
C615 H608 0.950 . S
C615 C612 1.387 . S
C616 C617 1.387 . S
C616 H620 0.950 . S
C616 C625 1.390 . S
C617 C616 1.387 . S
C617 C619 1.387 . S
H618 C625 0.950 . S
C619 C617 1.387 . S
C619 C621 1.390 . S
C619 H623 0.950 . S
H620 C616 0.950 . S
C621 C619 1.390 . S
C621 C622 1.387 . S
C621 H624 0.950 . S
C622 C621 1.387 . S
C622 C625 1.387 . S
H623 C619 0.950 . S
H624 C621 0.950 . S
C625 C616 1.390 . S
C625 H618 0.950 . S
C625 C622 1.387 . S
C626 C627 1.387 . S
C626 H630 0.950 . S
C626 C635 1.390 . S
C627 C626 1.387 . S
C627 C629 1.387 . S
H628 C635 0.950 . S
C629 C627 1.387 . S
C629 C631 1.390 . S
C629 H633 0.950 . S
H630 C626 0.950 . S
C631 C629 1.390 . S
C631 C632 1.387 . S
C631 H634 0.950 . S
C632 C631 1.387 . S
C632 C635 1.387 . S
H633 C629 0.950 . S
H634 C631 0.950 . S
C635 C626 1.390 . S
C635 H628 0.950 . S
C635 C632 1.387 . S
C636 C637 1.387 . S
C636 H640 0.950 . S
C636 C645 1.390 . S
C637 C636 1.387 . S
C637 C639 1.387 . S
H638 C645 0.950 . S
C639 C637 1.387 . S
C639 C641 1.390 . S
C639 H643 0.950 . S
H640 C636 0.950 . S
C641 C639 1.390 . S
C641 C642 1.387 . S
C641 H644 0.950 . S
C642 C641 1.387 . S
C642 C645 1.387 . S
H643 C639 0.950 . S
H644 C641 0.950 . S
C645 C636 1.390 . S
C645 H638 0.950 . S
C645 C642 1.387 . S
C646 C647 1.387 . S
C646 H650 0.950 . S
C646 C655 1.390 . S
C647 C646 1.387 . S
C647 C649 1.387 . S
H648 C655 0.950 . S
C649 C647 1.387 . S
C649 C651 1.390 . S
C649 H653 0.950 . S
H650 C646 0.950 . S
C651 C649 1.390 . S
C651 C652 1.387 . S
C651 H654 0.950 . S
C652 C651 1.387 . S
C652 C655 1.387 . S
H653 C649 0.950 . S
H654 C651 0.950 . S
C655 C646 1.390 . S
C655 H648 0.950 . S
C655 C652 1.387 . S
C656 C657 1.387 . S
C656 H660 0.950 . S
C656 C665 1.390 . S
C657 C656 1.387 . S
C657 C659 1.387 . S
H658 C665 0.950 . S
C659 C657 1.387 . S
C659 C661 1.390 . S
C659 H663 0.950 . S
H660 C656 0.950 . S
C661 C659 1.390 . S
C661 C662 1.387 . S
C661 H664 0.950 . S
C662 C661 1.387 . S
C662 C665 1.387 . S
H663 C659 0.950 . S
H664 C661 0.950 . S
C665 C656 1.390 . S
C665 H658 0.950 . S
C665 C662 1.387 . S
C666 C667 1.387 . S
C666 H670 0.950 . S
C666 C675 1.390 . S
C667 C666 1.387 . S
C667 C669 1.387 . S
H668 C675 0.950 . S
C669 C667 1.387 . S
C669 C671 1.390 . S
C669 H673 0.950 . S
H670 C666 0.950 . S
C671 C669 1.390 . S
C671 C672 1.387 . S
C671 H674 0.950 . S
C672 C671 1.387 . S
C672 C675 1.387 . S
H673 C669 0.950 . S
H674 C671 0.950 . S
C675 C666 1.390 . S
C675 H668 0.950 . S
C675 C672 1.387 . S
C676 C677 1.387 . S
C676 H680 0.950 . S
C676 C685 1.390 . S
C677 C676 1.387 . S
C677 C679 1.387 . S
H678 C685 0.950 . S
C679 C677 1.387 . S
C679 C681 1.390 . S
C679 H683 0.950 . S
H680 C676 0.950 . S
C681 C679 1.390 . S
C681 C682 1.387 . S
C681 H684 0.950 . S
C682 C681 1.387 . S
C682 C685 1.387 . S
H683 C679 0.950 . S
H684 C681 0.950 . S
C685 C676 1.390 . S
C685 H678 0.950 . S
C685 C682 1.387 . S
C686 C687 1.387 . S
C686 H690 0.950 . S
C686 C695 1.390 . S
C687 C686 1.387 . S
C687 C689 1.387 . S
H688 C695 0.950 . S
C689 C687 1.387 . S
C689 C691 1.390 . S
C689 H693 0.950 . S
H690 C686 0.950 . S
C691 C689 1.390 . S
C691 C692 1.387 . S
C691 H694 0.950 . S
C692 C691 1.387 . S
C692 C695 1.387 . S
H693 C689 0.950 . S
H694 C691 0.950 . S
C695 C686 1.390 . S
C695 H688 0.950 . S
C695 C692 1.387 . S
C696 C697 1.387 . S
C696 H700 0.950 . S
C696 C705 1.390 . S
C697 C696 1.387 . S
C697 C699 1.387 . S
H698 C705 0.950 . S
C699 C697 1.387 . S
C699 C701 1.390 . S
C699 H703 0.950 . S
H700 C696 0.950 . S
C701 C699 1.390 . S
C701 C702 1.387 . S
C701 H704 0.950 . S
C702 C701 1.387 . S
C702 C705 1.387 . S
H703 C699 0.950 . S
H704 C701 0.950 . S
C705 C696 1.390 . S
C705 H698 0.950 . S
C705 C702 1.387 . S
C706 C707 1.387 . S
C706 H710 0.950 . S
C706 C715 1.390 . S
C707 C706 1.387 . S
C707 C709 1.387 . S
H708 C715 0.950 . S
C709 C707 1.387 . S
C709 C711 1.390 . S
C709 H713 0.950 . S
H710 C706 0.950 . S
C711 C709 1.390 . S
C711 C712 1.387 . S
C711 H714 0.950 . S
C712 C711 1.387 . S
C712 C715 1.387 . S
H713 C709 0.950 . S
H714 C711 0.950 . S
C715 C706 1.390 . S
C715 H708 0.950 . S
C715 C712 1.387 . S
C716 C717 1.387 . S
C716 H720 0.950 . S
C716 C725 1.390 . S
C717 C716 1.387 . S
C717 C719 1.387 . S
H718 C725 0.950 . S
C719 C717 1.387 . S
C719 C721 1.390 . S
C719 H723 0.950 . S
H720 C716 0.950 . S
C721 C719 1.390 . S
C721 C722 1.387 . S
C721 H724 0.950 . S
C722 C721 1.387 . S
C722 C725 1.387 . S
H723 C719 0.950 . S
H724 C721 0.950 . S
C725 C716 1.390 . S
C725 H718 0.950 . S
C725 C722 1.387 . S
C726 C727 1.387 . S
C726 H730 0.950 . S
C726 C735 1.390 . S
C727 C726 1.387 . S
C727 C729 1.387 . S
H728 C735 0.950 . S
C729 C727 1.387 . S
C729 C731 1.390 . S
C729 H733 0.950 . S
H730 C726 0.950 . S
C731 C729 1.390 . S
C731 C732 1.387 . S
C731 H734 0.950 . S
C732 C731 1.387 . S
C732 C735 1.387 . S
H733 C729 0.950 . S
H734 C731 0.950 . S
C735 C726 1.390 . S
C735 H728 0.950 . S
C735 C732 1.387 . S
C736 C737 1.387 . S
C736 H740 0.950 . S
C736 C745 1.390 . S
C737 C736 1.387 . S
C737 C739 1.387 . S
H738 C745 0.950 . S
C739 C737 1.387 . S
C739 C741 1.390 . S
C739 H743 0.950 . S
H740 C736 0.950 . S
C741 C739 1.390 . S
C741 C742 1.387 . S
C741 H744 0.950 . S
C742 C741 1.387 . S
C742 C745 1.387 . S
H743 C739 0.950 . S
H744 C741 0.950 . S
C745 C736 1.390 . S
C745 H738 0.950 . S
C745 C742 1.387 . S
C746 C747 1.387 . S
C746 H750 0.950 . S
C746 C755 1.390 1_655 S
C747 C746 1.387 . S
C747 C749 1.387 . S
H748 C755 0.950 . S
C749 C747 1.387 . S
C749 C751 1.390 1_655 S
C749 H753 0.950 . S
H750 C746 0.950 . S
C751 C749 1.390 1_455 S
C751 C752 1.387 . S
C751 H754 0.950 . S
C752 C751 1.387 . S
C752 C755 1.387 . S
H753 C749 0.950 . S
H754 C751 0.950 . S
C755 C746 1.390 1_455 S
C755 H748 0.950 . S
C755 C752 1.387 . S
C756 C757 1.387 . S
C756 H760 0.950 . S
C756 C765 1.390 . S
C757 C756 1.387 . S
C757 C759 1.387 . S
H758 C765 0.950 . S
C759 C757 1.387 . S
C759 C761 1.390 . S
C759 H763 0.950 . S
H760 C756 0.950 . S
C761 C759 1.390 . S
C761 C762 1.387 . S
C761 H764 0.950 . S
C762 C761 1.387 . S
C762 C765 1.387 . S
H763 C759 0.950 . S
H764 C761 0.950 . S
C765 C756 1.390 . S
C765 H758 0.950 . S
C765 C762 1.387 . S
C766 C767 1.387 . S
C766 H770 0.950 . S
C766 C775 1.390 . S
C767 C766 1.387 . S
C767 C769 1.387 . S
H768 C775 0.950 . S
C769 C767 1.387 . S
C769 C771 1.390 . S
C769 H773 0.950 . S
H770 C766 0.950 . S
C771 C769 1.390 . S
C771 C772 1.387 . S
C771 H774 0.950 . S
C772 C771 1.387 . S
C772 C775 1.387 . S
H773 C769 0.950 . S
H774 C771 0.950 . S
C775 C766 1.390 . S
C775 H768 0.950 . S
C775 C772 1.387 . S
C776 C777 1.387 . S
C776 H780 0.950 . S
C776 C785 1.390 . S
C777 C776 1.387 . S
C777 C779 1.387 . S
H778 C785 0.950 . S
C779 C777 1.387 . S
C779 C781 1.390 . S
C779 H783 0.950 . S
H780 C776 0.950 . S
C781 C779 1.390 . S
C781 C782 1.387 . S
C781 H784 0.950 . S
C782 C781 1.387 . S
C782 C785 1.387 . S
H783 C779 0.950 . S
H784 C781 0.950 . S
C785 C776 1.390 . S
C785 H778 0.950 . S
C785 C782 1.387 . S
C786 C787 1.387 . S
C786 H790 0.950 . S
C786 C795 1.390 . S
C787 C786 1.387 . S
C787 C789 1.387 . S
H788 C795 0.950 . S
C789 C787 1.387 . S
C789 C791 1.390 . S
C789 H793 0.950 1_554 S
H790 C786 0.950 . S
C791 C789 1.390 . S
C791 C792 1.387 . S
C791 H794 0.948 1_554 S
C792 C791 1.387 . S
C792 C795 1.387 . S
H793 C789 0.950 1_556 S
H794 C791 0.948 1_556 S
C795 C786 1.390 . S
C795 H788 0.950 . S
C795 C792 1.387 . S
C796 C797 1.387 . S
C796 H800 0.950 . S
C796 C805 1.390 . S
C797 C796 1.387 . S
C797 C799 1.387 . S
H798 C805 0.950 . S
C799 C797 1.387 . S
C799 C801 1.390 . S
C799 H803 0.950 . S
H800 C796 0.950 . S
C801 C799 1.390 . S
C801 C802 1.387 . S
C801 H804 0.950 . S
C802 C801 1.387 . S
C802 C805 1.387 . S
H803 C799 0.950 . S
H804 C801 0.950 . S
C805 C796 1.390 . S
C805 H798 0.950 . S
C805 C802 1.387 . S
C806 C807 1.387 . S
C806 H810 0.950 . S
C806 C815 1.390 1_655 S
C807 C806 1.387 . S
C807 C809 1.387 . S
H808 C815 0.950 . S
C809 C807 1.387 . S
C809 C811 1.390 1_655 S
C809 H813 0.950 . S
H810 C806 0.950 . S
C811 C809 1.390 1_455 S
C811 C812 1.387 . S
C811 H814 0.950 . S
C812 C811 1.387 . S
C812 C815 1.387 . S
H813 C809 0.950 . S
H814 C811 0.950 . S
C815 C806 1.390 1_455 S
C815 H808 0.950 . S
C815 C812 1.387 . S
C816 C817 1.387 . S
C816 H820 0.950 . S
C816 C825 1.390 . S
C817 C816 1.387 . S
C817 C819 1.387 . S
H818 C825 0.950 . S
C819 C817 1.387 . S
C819 C821 1.390 . S
C819 H823 0.950 . S
H820 C816 0.950 . S
C821 C819 1.390 . S
C821 C822 1.387 . S
C821 H824 0.950 . S
C822 C821 1.387 . S
C822 C825 1.387 . S
H823 C819 0.950 . S
H824 C821 0.950 . S
C825 C816 1.390 . S
C825 H818 0.950 . S
C825 C822 1.387 . S
C826 C827 1.387 . S
C826 H830 0.950 . S
C826 C835 1.390 . S
C827 C826 1.387 . S
C827 C829 1.387 . S
H828 C835 0.950 . S
C829 C827 1.387 . S
C829 C831 1.390 . S
C829 H833 0.950 . S
H830 C826 0.950 . S
C831 C829 1.390 . S
C831 C832 1.387 . S
C831 H834 0.950 . S
C832 C831 1.387 . S
C832 C835 1.387 . S
H833 C829 0.950 . S
H834 C831 0.950 . S
C835 C826 1.390 . S
C835 H828 0.950 . S
C835 C832 1.387 . S
C836 C837 1.387 . S
C836 H840 0.950 . S
C836 C845 1.390 . S
C837 C836 1.387 . S
C837 C839 1.387 . S
H838 C845 0.950 . S
C839 C837 1.387 . S
C839 C841 1.390 . S
C839 H843 0.950 . S
H840 C836 0.950 . S
C841 C839 1.390 . S
C841 C842 1.387 . S
C841 H844 0.950 . S
C842 C841 1.387 . S
C842 C845 1.387 . S
H843 C839 0.950 . S
H844 C841 0.950 . S
C845 C836 1.390 . S
C845 H838 0.950 . S
C845 C842 1.387 . S
C846 C847 1.387 . S
C846 H850 0.950 . S
C846 C855 1.390 . S
C847 C846 1.387 . S
C847 C849 1.387 . S
H848 C855 0.950 . S
C849 C847 1.387 . S
C849 C851 1.390 . S
C849 H853 0.950 . S
H850 C846 0.950 . S
C851 C849 1.390 . S
C851 C852 1.387 . S
C851 H854 0.950 . S
C852 C851 1.387 . S
C852 C855 1.387 . S
H853 C849 0.950 . S
H854 C851 0.950 . S
C855 C846 1.390 . S
C855 H848 0.950 . S
C855 C852 1.387 . S
C856 C857 1.387 . S
C856 H860 0.950 . S
C856 C865 1.390 . S
C857 C856 1.387 . S
C857 C859 1.387 . S
H858 C865 0.950 . S
C859 C857 1.387 . S
C859 C861 1.390 . S
C859 H863 0.950 1_556 S
H860 C856 0.950 . S
C861 C859 1.390 . S
C861 C862 1.387 . S
C861 H864 0.950 1_556 S
C862 C861 1.387 . S
C862 C865 1.387 . S
H863 C859 0.950 1_554 S
H864 C861 0.950 1_554 S
C865 C856 1.390 . S
C865 H858 0.950 . S
C865 C862 1.387 . S
C866 C867 1.387 . S
C866 H870 0.950 . S
C866 C875 1.390 1_655 S
C867 C866 1.387 . S
C867 C869 1.387 . S
H868 C875 0.950 . S
C869 C867 1.387 . S
C869 C871 1.390 1_655 S
C869 H873 0.950 . S
H870 C866 0.950 . S
C871 C869 1.390 1_455 S
C871 C872 1.387 . S
C871 H874 0.950 . S
C872 C871 1.387 . S
C872 C875 1.387 . S
H873 C869 0.950 . S
H874 C871 0.950 . S
C875 C866 1.390 1_455 S
C875 H868 0.950 . S
C875 C872 1.387 . S
C876 C877 1.387 . S
C876 H880 0.950 . S
C876 C885 1.390 1_655 S
C877 C876 1.387 . S
C877 C879 1.387 . S
H878 C885 0.950 . S
C879 C877 1.387 . S
C879 C881 1.390 1_655 S
C879 H883 0.950 . S
H880 C876 0.950 . S
C881 C879 1.390 1_455 S
C881 C882 1.387 . S
C881 H884 0.950 . S
C882 C881 1.387 . S
C882 C885 1.387 . S
H883 C879 0.950 . S
H884 C881 0.950 . S
C885 C876 1.390 1_455 S
C885 H878 0.950 . S
C885 C882 1.387 . S
C886 C887 1.387 . S
C886 H890 0.950 1_554 S
C886 C895 1.390 . S
C887 C886 1.387 . S
C887 C889 1.387 . S
H888 C895 0.950 1_556 S
C889 C887 1.387 . S
C889 C891 1.390 . S
C889 H893 0.950 . S
H890 C886 0.950 1_556 S
C891 C889 1.390 . S
C891 C892 1.387 . S
C891 H894 0.950 . S
C892 C891 1.387 . S
C892 C895 1.387 . S
H893 C889 0.950 . S
H894 C891 0.950 . S
C895 C886 1.390 . S
C895 H888 0.950 1_554 S
C895 C892 1.387 . S
C896 C897 1.387 . S
C896 H900 0.950 . S
C896 C905 1.390 . S
C897 C896 1.387 . S
C897 C899 1.387 . S
H898 C905 0.950 . S
C899 C897 1.387 . S
C899 C901 1.390 . S
C899 H903 0.950 . S
H900 C896 0.950 . S
C901 C899 1.390 . S
C901 C902 1.387 . S
C901 H904 0.950 . S
C902 C901 1.387 . S
C902 C905 1.387 . S
H903 C899 0.950 . S
H904 C901 0.950 . S
C905 C896 1.390 . S
C905 H898 0.950 . S
C905 C902 1.387 . S
C906 C907 1.387 . S
C906 H910 0.950 . S
C906 C915 1.390 . S
C907 C906 1.387 . S
C907 C909 1.387 . S
H908 C915 0.950 . S
C909 C907 1.387 . S
C909 C911 1.390 . S
C909 H913 0.950 . S
H910 C906 0.950 . S
C911 C909 1.390 . S
C911 C912 1.387 . S
C911 H914 0.950 . S
C912 C911 1.387 . S
C912 C915 1.387 . S
H913 C909 0.950 . S
H914 C911 0.950 . S
C915 C906 1.390 . S
C915 H908 0.950 . S
C915 C912 1.387 . S
C916 C917 1.387 . S
C916 H920 0.950 . S
C916 C925 1.390 . S
C917 C916 1.387 . S
C917 C919 1.387 . S
H918 C925 0.950 . S
C919 C917 1.387 . S
C919 C921 1.390 . S
C919 H923 0.950 . S
H920 C916 0.950 . S
C921 C919 1.390 . S
C921 C922 1.387 . S
C921 H924 0.950 . S
C922 C921 1.387 . S
C922 C925 1.387 . S
H923 C919 0.950 . S
H924 C921 0.950 . S
C925 C916 1.390 . S
C925 H918 0.950 . S
C925 C922 1.387 . S
C926 C927 1.387 . S
C926 H930 0.950 . S
C926 C935 1.390 . S
C927 C926 1.387 . S
C927 C929 1.387 . S
H928 C935 0.950 . S
C929 C927 1.387 . S
C929 C931 1.390 . S
C929 H933 0.950 . S
H930 C926 0.950 . S
C931 C929 1.390 . S
C931 C932 1.387 . S
C931 H934 0.950 . S
C932 C931 1.387 . S
C932 C935 1.387 . S
H933 C929 0.950 . S
H934 C931 0.950 . S
C935 C926 1.390 . S
C935 H928 0.950 . S
C935 C932 1.387 . S
C936 C937 1.387 . S
C936 H940 0.950 . S
C936 C945 1.390 . S
C937 C936 1.387 . S
C937 C939 1.387 . S
H938 C945 0.950 . S
C939 C937 1.387 . S
C939 C941 1.390 . S
C939 H943 0.950 . S
H940 C936 0.950 . S
C941 C939 1.390 . S
C941 C942 1.387 . S
C941 H944 0.950 . S
C942 C941 1.387 . S
C942 C945 1.387 . S
H943 C939 0.950 . S
H944 C941 0.950 . S
C945 C936 1.390 . S
C945 H938 0.950 . S
C945 C942 1.387 . S
C946 C947 1.387 . S
C946 H950 0.950 . S
C946 C955 1.390 . S
C947 C946 1.387 . S
C947 C949 1.387 . S
H948 C955 0.950 . S
C949 C947 1.387 . S
C949 C951 1.390 . S
C949 H953 0.950 . S
H950 C946 0.950 . S
C951 C949 1.390 . S
C951 C952 1.387 . S
C951 H954 0.950 . S
C952 C951 1.387 . S
C952 C955 1.387 . S
H953 C949 0.950 . S
H954 C951 0.950 . S
C955 C946 1.390 . S
C955 H948 0.950 . S
C955 C952 1.387 . S
C956 C957 1.387 . S
C956 H960 0.950 . S
C956 C965 1.390 . S
C957 C956 1.387 . S
C957 C959 1.387 . S
H958 C965 0.950 . S
C959 C957 1.387 . S
C959 C961 1.390 . S
C959 H963 0.950 . S
H960 C956 0.950 . S
C961 C959 1.390 . S
C961 C962 1.387 . S
C961 H964 0.950 . S
C962 C961 1.387 . S
C962 C965 1.387 . S
H963 C959 0.950 . S
H964 C961 0.950 . S
C965 C956 1.390 . S
C965 H958 0.950 . S
C965 C962 1.387 . S
C966 C967 1.387 . S
C966 H970 0.950 . S
C966 C975 1.390 . S
C967 C966 1.387 . S
C967 C969 1.387 . S
H968 C975 0.950 . S
C969 C967 1.387 . S
C969 C971 1.390 . S
C969 H973 0.950 . S
H970 C966 0.950 . S
C971 C969 1.390 . S
C971 C972 1.387 . S
C971 H974 0.950 . S
C972 C971 1.387 . S
C972 C975 1.387 . S
H973 C969 0.950 . S
H974 C971 0.950 . S
C975 C966 1.390 . S
C975 H968 0.950 . S
C975 C972 1.387 . S
C976 C977 1.387 . S
C976 H980 0.950 . S
C976 C985 1.390 . S
C977 C976 1.387 . S
C977 C979 1.387 . S
H978 C985 0.950 . S
C979 C977 1.387 . S
C979 C981 1.390 . S
C979 H983 0.950 . S
H980 C976 0.950 . S
C981 C979 1.390 . S
C981 C982 1.387 . S
C981 H984 0.950 . S
C982 C981 1.387 . S
C982 C985 1.387 . S
H983 C979 0.950 . S
H984 C981 0.950 . S
C985 C976 1.390 . S
C985 H978 0.950 . S
C985 C982 1.387 . S
C986 C987 1.387 . S
C986 H990 0.950 . S
C986 C995 1.390 . S
C987 C986 1.387 . S
C987 C989 1.387 . S
H988 C995 0.950 . S
C989 C987 1.387 . S
C989 C991 1.390 . S
C989 H993 0.950 . S
H990 C986 0.950 . S
C991 C989 1.390 . S
C991 C992 1.387 . S
C991 H994 0.950 . S
C992 C991 1.387 . S
C992 C995 1.387 . S
H993 C989 0.950 . S
H994 C991 0.950 . S
C995 C986 1.390 . S
C995 H988 0.950 . S
C995 C992 1.387 . S
C996 C997 1.387 . S
C996 H1000 0.950 . S
C996 C1005 1.390 . S
C997 C996 1.387 . S
C997 C999 1.387 . S
H998 C1005 0.950 . S
C999 C997 1.387 . S
C999 C1001 1.390 . S
C999 H1003 0.950 . S
H1000 C996 0.950 . S
C1001 C999 1.390 . S
C1001 C1002 1.387 . S
C1001 H1004 0.950 . S
C1002 C1001 1.387 . S
C1002 C1005 1.387 . S
H1003 C999 0.950 . S
H1004 C1001 0.950 . S
C1005 C996 1.390 . S
C1005 H998 0.950 . S
C1005 C1002 1.387 . S
C1006 C1007 1.387 . S
C1006 H1010 0.950 . S
C1006 C1015 1.390 . S
C1007 C1006 1.387 . S
C1007 C1009 1.387 . S
H1008 C1015 0.950 . S
C1009 C1007 1.387 . S
C1009 C1011 1.390 . S
C1009 H1013 0.950 . S
H1010 C1006 0.950 . S
C1011 C1009 1.390 . S
C1011 C1012 1.387 . S
C1011 H1014 0.950 . S
C1012 C1011 1.387 . S
C1012 C1015 1.387 . S
H1013 C1009 0.950 . S
H1014 C1011 0.950 . S
C1015 C1006 1.390 . S
C1015 H1008 0.950 . S
C1015 C1012 1.387 . S
C1016 C1017 1.387 . S
C1016 H1020 0.950 . S
C1016 C1025 1.390 . S
C1017 C1016 1.387 . S
C1017 C1019 1.387 . S
H1018 C1025 0.950 . S
C1019 C1017 1.387 . S
C1019 C1021 1.390 . S
C1019 H1023 0.950 . S
H1020 C1016 0.950 . S
C1021 C1019 1.390 . S
C1021 C1022 1.387 . S
C1021 H1024 0.950 . S
C1022 C1021 1.387 . S
C1022 C1025 1.387 . S
H1023 C1019 0.950 . S
H1024 C1021 0.950 . S
C1025 C1016 1.390 . S
C1025 H1018 0.950 . S
C1025 C1022 1.387 . S
C1026 C1027 1.387 . S
C1026 H1030 0.950 . S
C1026 C1035 1.390 . S
C1027 C1026 1.387 . S
C1027 C1029 1.387 . S
H1028 C1035 0.950 . S
C1029 C1027 1.387 . S
C1029 C1031 1.390 . S
C1029 H1033 0.950 . S
H1030 C1026 0.950 . S
C1031 C1029 1.390 . S
C1031 C1032 1.387 . S
C1031 H1034 0.950 . S
C1032 C1031 1.387 . S
C1032 C1035 1.387 . S
H1033 C1029 0.950 . S
H1034 C1031 0.950 . S
C1035 C1026 1.390 . S
C1035 H1028 0.950 . S
C1035 C1032 1.387 . S
C1036 C1037 1.387 . S
C1036 H1040 0.950 . S
C1036 C1045 1.390 . S
C1037 C1036 1.387 . S
C1037 C1039 1.387 . S
H1038 C1045 0.950 . S
C1039 C1037 1.387 . S
C1039 C1041 1.390 . S
C1039 H1043 0.950 . S
H1040 C1036 0.950 . S
C1041 C1039 1.390 . S
C1041 C1042 1.387 . S
C1041 H1044 0.950 . S
C1042 C1041 1.387 . S
C1042 C1045 1.387 . S
H1043 C1039 0.950 . S
H1044 C1041 0.950 . S
C1045 C1036 1.390 . S
C1045 H1038 0.950 . S
C1045 C1042 1.387 . S
C1046 C1047 1.387 . S
C1046 H1050 0.950 . S
C1046 C1055 1.390 . S
C1047 C1046 1.387 . S
C1047 C1049 1.387 . S
H1048 C1055 0.950 . S
C1049 C1047 1.387 . S
C1049 C1051 1.390 . S
C1049 H1053 0.950 . S
H1050 C1046 0.950 . S
C1051 C1049 1.390 . S
C1051 C1052 1.387 . S
C1051 H1054 0.950 . S
C1052 C1051 1.387 . S
C1052 C1055 1.387 . S
H1053 C1049 0.950 . S
H1054 C1051 0.950 . S
C1055 C1046 1.390 . S
C1055 H1048 0.950 . S
C1055 C1052 1.387 . S
C417 C83 1.453 . S
C422 C5 1.453 . S
C427 C18 1.455 . S
C432 C96 1.455 . S
C437 C57 1.452 . S
C442 C31 1.452 . S
C447 C44 1.455 . S
C452 C70 1.455 . S
C457 C109 1.455 . S
C462 C187 1.455 . S
C467 C200 1.453 . S
C472 C122 1.453 . S
C477 C135 1.455 . S
C482 C161 1.455 . S
C487 C174 1.452 . S
C492 C148 1.452 . S
C497 C213 1.455 . S
C502 C291 1.455 . S
C507 C226 1.453 . S
C512 C304 1.453 . S
C517 C265 1.452 . S
C522 C239 1.452 . S
C527 C278 1.455 . S
C532 C252 1.455 . S
C537 C317 1.453 . S
C542 C395 1.453 . S
C547 C330 1.455 . S
C552 C408 1.455 . S
C557 C369 1.455 . S
C562 C343 1.455 . S
C567 C356 1.452 . S
C572 C382 1.452 . S
C577 C0 1.499 1_556 S
C582 C91 1.499 . S
C587 C52 1.500 1_554 S
C592 C13 1.498 . S
C597 C65 1.501 . S
C602 C26 1.499 . S
C607 C39 1.501 . S
C612 C78 1.499 . S
C617 C104 1.499 1_554 S
C622 C195 1.501 . S
C627 C156 1.499 1_556 S
C632 C117 1.501 . S
C637 C169 1.501 . S
C642 C130 1.499 . S
C647 C182 1.499 . S
C652 C143 1.499 . S
C657 C208 1.499 . S
C662 C299 1.501 . S
C667 C221 1.499 . S
C672 C260 1.501 . S
C677 C273 1.499 . S
C682 C234 1.499 1_556 S
C687 C247 1.500 . S
C692 C286 1.499 1_554 S
C697 C312 1.499 . S
C702 C403 1.499 . S
C707 C364 1.500 . S
C712 C325 1.498 . S
C717 C338 1.499 1_554 S
C722 C377 1.501 . S
C727 C351 1.499 . S
C732 C390 1.501 1_556 S
C737 C400 1.455 . S
C742 C10 1.455 . S
C747 C205 1.455 . S
C752 C23 1.455 . S
C757 C36 1.455 . S
C762 C374 1.455 . S
C767 C49 1.455 . S
C772 C179 1.455 . S
C777 C62 1.455 . S
C782 C348 1.455 . S
C787 C75 1.455 . S
C792 C153 1.455 . S
C797 C88 1.455 . S
C802 C322 1.455 . S
C807 C127 1.455 . S
C812 C101 1.455 . S
C817 C296 1.455 . S
C822 C114 1.455 . S
C827 C140 1.455 . S
C832 C270 1.455 . S
C837 C244 1.455 . S
C842 C166 1.455 . S
C847 C218 1.455 . S
C852 C192 1.455 . S
C857 C231 1.455 . S
C862 C413 1.455 . S
C867 C257 1.455 . S
C872 C387 1.455 . S
C877 C283 1.455 . S
C882 C361 1.455 . S
C887 C335 1.455 . S
C892 C309 1.455 . S
C897 C8 1.145 . S
C902 C99 1.143 . S
C907 C21 1.144 . S
C912 C60 1.142 . S
C917 C73 1.145 . S
C922 C34 1.144 . S
C927 C47 1.144 . S
C932 C86 1.142 . S
C937 C203 1.143 . S
C942 C112 1.145 . S
C947 C164 1.142 . S
C952 C125 1.144 . S
C957 C138 1.145 . S
C962 C177 1.143 . S
C967 C190 1.142 . S
C972 C151 1.144 . S
C977 C307 1.145 . S
C982 C216 1.144 . S
C987 C268 1.145 . S
C992 C229 1.142 . S
C997 C281 1.143 . S
C1002 C242 1.142 . S
C1007 C294 1.143 . S
C1012 C255 1.145 . S
C1017 C320 1.145 . S
C1022 C411 1.144 . S
C1027 C333 1.143 . S
C1032 C372 1.142 . S
C1037 C346 1.143 . S
C1042 C385 1.142 . S
C1047 C398 1.142 . S
C1052 C359 1.143 . S
