# Generated by pormake.
# Topology lta, (4)-cn, num edge types: 1
# Building blocks:
#     Node 0, Type 0, BuildingBlock: QUQFOY_clean_sbu_3, # of connection points: 4
#     Node 1, Type 0, BuildingBlock: QUQFOY_clean_sbu_3, # of connection points: 4
#     Node 2, Type 0, BuildingBlock: QUQFOY_clean_sbu_3, # of connection points: 4
#     Node 3, Type 0, BuildingBlock: QUQFOY_clean_sbu_3, # of connection points: 4
#     Node 4, Type 0, BuildingBlock: QUQFOY_clean_sbu_3, # of connection points: 4
#     Node 5, Type 0, BuildingBlock: QUQFOY_clean_sbu_3, # of connection points: 4
#     Node 6, Type 0, BuildingBlock: QUQFOY_clean_sbu_3, # of connection points: 4
#     Node 7, Type 0, BuildingBlock: QUQFOY_clean_sbu_3, # of connection points: 4
#     Node 8, Type 0, BuildingBlock: QUQFOY_clean_sbu_3, # of connection points: 4
#     Node 9, Type 0, BuildingBlock: QUQFOY_clean_sbu_3, # of connection points: 4
#     Node 10, Type 0, BuildingBlock: QUQFOY_clean_sbu_3, # of connection points: 4
#     Node 11, Type 0, BuildingBlock: QUQFOY_clean_sbu_3, # of connection points: 4
#     Node 12, Type 0, BuildingBlock: QUQFOY_clean_sbu_3, # of connection points: 4
#     Node 13, Type 0, BuildingBlock: QUQFOY_clean_sbu_3, # of connection points: 4
#     Node 14, Type 0, BuildingBlock: QUQFOY_clean_sbu_3, # of connection points: 4
#     Node 15, Type 0, BuildingBlock: QUQFOY_clean_sbu_3, # of connection points: 4
#     Node 16, Type 0, BuildingBlock: QUQFOY_clean_sbu_3, # of connection points: 4
#     Node 17, Type 0, BuildingBlock: QUQFOY_clean_sbu_3, # of connection points: 4
#     Node 18, Type 0, BuildingBlock: QUQFOY_clean_sbu_3, # of connection points: 4
#     Node 19, Type 0, BuildingBlock: QUQFOY_clean_sbu_3, # of connection points: 4
#     Node 20, Type 0, BuildingBlock: QUQFOY_clean_sbu_3, # of connection points: 4
#     Node 21, Type 0, BuildingBlock: QUQFOY_clean_sbu_3, # of connection points: 4
#     Node 22, Type 0, BuildingBlock: QUQFOY_clean_sbu_3, # of connection points: 4
#     Node 23, Type 0, BuildingBlock: QUQFOY_clean_sbu_3, # of connection points: 4
#     Edge 24, Type (0, 0), None
#     Edge 25, Type (0, 0), None
#     Edge 26, Type (0, 0), None
#     Edge 27, Type (0, 0), None
#     Edge 28, Type (0, 0), None
#     Edge 29, Type (0, 0), None
#     Edge 30, Type (0, 0), None
#     Edge 31, Type (0, 0), None
#     Edge 32, Type (0, 0), None
#     Edge 33, Type (0, 0), None
#     Edge 34, Type (0, 0), None
#     Edge 35, Type (0, 0), None
#     Edge 36, Type (0, 0), None
#     Edge 37, Type (0, 0), None
#     Edge 38, Type (0, 0), None
#     Edge 39, Type (0, 0), None
#     Edge 40, Type (0, 0), None
#     Edge 41, Type (0, 0), None
#     Edge 42, Type (0, 0), None
#     Edge 43, Type (0, 0), None
#     Edge 44, Type (0, 0), None
#     Edge 45, Type (0, 0), None
#     Edge 46, Type (0, 0), None
#     Edge 47, Type (0, 0), None
#     Edge 48, Type (0, 0), None
#     Edge 49, Type (0, 0), None
#     Edge 50, Type (0, 0), None
#     Edge 51, Type (0, 0), None
#     Edge 52, Type (0, 0), None
#     Edge 53, Type (0, 0), None
#     Edge 54, Type (0, 0), None
#     Edge 55, Type (0, 0), None
#     Edge 56, Type (0, 0), None
#     Edge 57, Type (0, 0), None
#     Edge 58, Type (0, 0), None
#     Edge 59, Type (0, 0), None
#     Edge 60, Type (0, 0), None
#     Edge 61, Type (0, 0), None
#     Edge 62, Type (0, 0), None
#     Edge 63, Type (0, 0), None
#     Edge 64, Type (0, 0), None
#     Edge 65, Type (0, 0), None
#     Edge 66, Type (0, 0), None
#     Edge 67, Type (0, 0), None
#     Edge 68, Type (0, 0), None
#     Edge 69, Type (0, 0), None
#     Edge 70, Type (0, 0), None
#     Edge 71, Type (0, 0), None
# Relax obj value: 0.264
# Max RMSD: 0.164
# Mean RMSD: 0.164
data_MOF--net-lta--node1-QUQFOY_clean_sbu_3--edge1-none
_symmetry_space_group_name_H-M    P1
_symmetry_Int_Tables_number       1
_symmetry_cell_setting            triclinic
loop_
_symmetry_equiv_pos_as_xyz
'x, y, z'
_cell_length_a     28.482357
_cell_length_b     28.485339
_cell_length_c     28.217528
_cell_angle_alpha  90.111084
_cell_angle_beta   90.112638
_cell_angle_gamma 89.940345
loop_
_atom_site_label
_atom_site_type_symbol
_atom_site_fract_x
_atom_site_fract_y
_atom_site_fract_z
_atom_type_partial_charge
C0 C 0.08166 0.3548 0.3727 0.0
O1 O 0.06214 0.38464 0.39956 0.0
Cd2 Cd 0.05734 0.38243 0.48263 0.0
O3 O 0.09791 0.31645 0.38935 0.0
Cd4 Cd 0.09282 0.27898 0.4704 0.0
C5 C -0.02357 0.29524 0.48322 0.0
O6 O 0.12727 0.34491 0.50784 0.0
O7 O 0.09233 0.30146 0.55834 0.0
O8 O 0.16915 0.24467 0.45939 0.0
C9 C 0.11933 0.33606 0.55077 0.0
O10 O -0.01215 0.33696 0.49415 0.0
C11 C 0.15728 0.20226 0.46474 0.0
O12 O 0.00695 0.26563 0.46907 0.0
O13 O 0.11411 0.194 0.47231 0.0
C14 C 0.60165 0.1159 0.35088 0.0
O15 O 0.60671 0.15125 0.37729 0.0
Cd16 Cd 0.6341 0.10358 0.44376 0.0
O17 O 0.61846 0.07781 0.36614 0.0
Cd18 Cd 0.647 0.09354 0.4534 0.0
C19 C 0.63527 -0.00657 0.44547 0.0
O20 O 0.57509 0.12972 0.49145 0.0
O21 O 0.60319 0.07145 0.52981 0.0
O22 O 0.68002 0.17399 0.45065 0.0
C23 C 0.57128 0.10244 0.52625 0.0
O24 O 0.60324 0.02219 0.43476 0.0
C25 C 0.72149 0.1622 0.46148 0.0
O26 O 0.67423 0.01022 0.45897 0.0
O27 O 0.72935 0.11889 0.46863 0.0
C28 C 0.8019 0.60521 0.35665 0.0
O29 O 0.7665 0.61047 0.38283 0.0
Cd30 Cd 0.81394 0.63863 0.44958 0.0
O31 O 0.84 0.62181 0.37225 0.0
Cd32 Cd 0.82378 0.6519 0.45901 0.0
C33 C 0.92429 0.6415 0.45096 0.0
O34 O 0.78787 0.58027 0.49808 0.0
O35 O 0.84599 0.60881 0.5363 0.0
O36 O 0.7431 0.68439 0.45294 0.0
C37 C 0.81515 0.57676 0.53304 0.0
O38 O 0.89598 0.60878 0.44128 0.0
C39 C 0.75397 0.72629 0.46299 0.0
O40 O 0.90688 0.68046 0.46369 0.0
O41 O 0.7969 0.73466 0.47191 0.0
C42 C 0.34559 0.83681 0.36974 0.0
O43 O 0.37607 0.85542 0.39657 0.0
Cd44 Cd 0.37413 0.86222 0.47942 0.0
O45 O 0.30664 0.82208 0.38643 0.0
Cd46 Cd 0.26929 0.82832 0.46814 0.0
C47 C 0.28801 0.94498 0.47845 0.0
O48 O 0.3352 0.79346 0.50513 0.0
O49 O 0.29246 0.82892 0.55604 0.0
O50 O 0.23444 0.7523 0.45732 0.0
C51 C 0.32677 0.80152 0.54816 0.0
O52 O 0.32972 0.93291 0.48887 0.0
C53 C 0.19214 0.76395 0.46418 0.0
O54 O 0.25748 0.91472 0.46578 0.0
O55 O 0.18392 0.80711 0.4722 0.0
C56 C 0.08288 0.57416 0.55882 0.0
O57 O 0.06422 0.54371 0.53201 0.0
Cd58 Cd 0.0575 0.5456 0.44915 0.0
O59 O 0.09767 0.61308 0.54211 0.0
Cd60 Cd 0.09141 0.65042 0.4604 0.0
C61 C -0.02526 0.6317 0.45004 0.0
O62 O 0.12629 0.58449 0.42345 0.0
O63 O 0.09085 0.62721 0.37251 0.0
O64 O 0.16743 0.68528 0.47121 0.0
C65 C 0.11824 0.5929 0.38042 0.0
O66 O -0.01319 0.59 0.43961 0.0
C67 C 0.15577 0.72758 0.46434 0.0
O68 O 0.005 0.66222 0.46274 0.0
O69 O 0.1126 0.73578 0.45633 0.0
C70 C 0.3145 0.11781 0.57184 0.0
O71 O 0.30924 0.1532 0.54566 0.0
Cd72 Cd 0.28109 0.10576 0.47891 0.0
O73 O 0.29791 0.07971 0.55623 0.0
Cd74 Cd 0.26781 0.09593 0.46947 0.0
C75 C 0.27822 -0.00457 0.47752 0.0
O76 O 0.33944 0.13183 0.4304 0.0
O77 O 0.31089 0.07373 0.39217 0.0
O78 O 0.23533 0.1766 0.47555 0.0
C79 C 0.34295 0.10457 0.39543 0.0
O80 O 0.31094 0.02373 0.48719 0.0
C81 C 0.19342 0.16574 0.4655 0.0
O82 O 0.23925 0.01284 0.4648 0.0
O83 O 0.18504 0.12282 0.45658 0.0
C84 C 0.80379 0.31807 0.57758 0.0
O85 O 0.76844 0.31302 0.55116 0.0
Cd86 Cd 0.81611 0.28561 0.48469 0.0
O87 O 0.84188 0.30123 0.56232 0.0
Cd88 Cd 0.82615 0.27271 0.47506 0.0
C89 C 0.92628 0.28443 0.48299 0.0
O90 O 0.78997 0.3446 0.437 0.0
O91 O 0.84826 0.31653 0.39866 0.0
O92 O 0.7457 0.23968 0.4778 0.0
C93 C 0.81726 0.34843 0.40221 0.0
O94 O 0.89751 0.31647 0.49371 0.0
C95 C 0.7575 0.19821 0.46696 0.0
O96 O 0.90949 0.24549 0.46949 0.0
O97 O 0.80082 0.19036 0.45981 0.0
C98 C 0.56488 0.83804 0.55574 0.0
O99 O 0.53502 0.85751 0.52887 0.0
Cd100 Cd 0.53726 0.86236 0.44581 0.0
O101 O 0.60326 0.82185 0.53913 0.0
Cd102 Cd 0.64075 0.82691 0.45808 0.0
C103 C 0.62448 0.94327 0.44525 0.0
O104 O 0.57483 0.79247 0.4206 0.0
O105 O 0.6183 0.82743 0.37012 0.0
O106 O 0.67504 0.75058 0.46908 0.0
C107 C 0.58369 0.80042 0.37768 0.0
O108 O 0.58275 0.93186 0.43434 0.0
C109 C 0.71746 0.76243 0.46374 0.0
O110 O 0.6541 0.91277 0.45939 0.0
O111 O 0.72573 0.8056 0.45619 0.0
C112 C 0.38962 0.09779 0.37448 0.0
O113 O 0.42323 0.09348 0.40366 0.0
Cd114 Cd 0.50078 0.07181 0.38645 0.0
O115 O 0.39658 0.09561 0.3297 0.0
Cd116 Cd 0.47165 0.09172 0.27882 0.0
C117 C 0.47914 -0.02248 0.30997 0.0
O118 O 0.5238 0.1301 0.33223 0.0
O119 O 0.55976 0.08357 0.28541 0.0
O120 O 0.45603 0.16719 0.24432 0.0
C121 C 0.56257 0.11488 0.31732 0.0
O122 O 0.49209 -0.0058 0.34986 0.0
C123 C 0.45973 0.15549 0.20119 0.0
O124 O 0.46789 0.00459 0.27571 0.0
O125 O 0.46631 0.11213 0.19233 0.0
C126 C 0.82336 0.39496 0.38114 0.0
O127 O 0.82689 0.42887 0.41007 0.0
Cd128 Cd 0.84705 0.50659 0.39228 0.0
O129 O 0.82562 0.40148 0.33635 0.0
Cd130 Cd 0.82773 0.47544 0.28481 0.0
C131 C 0.94148 0.4864 0.31593 0.0
O132 O 0.78815 0.52742 0.33756 0.0
O133 O 0.83378 0.56392 0.29059 0.0
O134 O 0.75313 0.4568 0.24964 0.0
C135 C 0.80278 0.56638 0.32273 0.0
O136 O 0.92479 0.49938 0.35574 0.0
C137 C 0.76551 0.45872 0.20664 0.0
O138 O 0.91451 0.47399 0.28194 0.0
O139 O 0.80874 0.46642 0.19837 0.0
C140 C 0.54578 0.7922 0.34336 0.0
O141 O 0.5158 0.76199 0.35525 0.0
Cd142 Cd 0.45595 0.81883 0.3685 0.0
O143 O 0.53208 0.82524 0.31628 0.0
Cd144 Cd 0.45258 0.82273 0.27251 0.0
C145 C 0.47313 0.92624 0.30623 0.0
O146 O 0.39316 0.78955 0.32514 0.0
O147 O 0.37217 0.85353 0.29337 0.0
O148 O 0.46348 0.74539 0.24184 0.0
C149 C 0.36281 0.82173 0.32332 0.0
O150 O 0.47178 0.90222 0.34447 0.0
C151 C 0.45956 0.75549 0.19828 0.0
O152 O 0.46685 0.90638 0.26622 0.0
O153 O 0.45274 0.79846 0.18761 0.0
C154 C 0.12703 0.55481 0.34641 0.0
O155 O 0.15665 0.52457 0.35939 0.0
Cd156 Cd 0.10061 0.46466 0.3741 0.0
O157 O 0.09457 0.54138 0.31839 0.0
Cd158 Cd 0.09573 0.46152 0.27545 0.0
C159 C -0.00724 0.48142 0.31185 0.0
O160 O 0.12867 0.40285 0.32869 0.0
O161 O 0.06463 0.38181 0.29656 0.0
O162 O 0.17225 0.46778 0.24214 0.0
C163 C 0.0965 0.37255 0.3266 0.0
O164 O 0.01718 0.48019 0.34995 0.0
C165 C 0.16041 0.46261 0.19913 0.0
O166 O 0.01211 0.47538 0.27162 0.0
O167 O 0.11675 0.45854 0.18993 0.0
C168 C 0.36485 0.79273 0.58219 0.0
O169 O 0.39507 0.76308 0.56925 0.0
Cd170 Cd 0.45497 0.81913 0.55446 0.0
O171 O 0.37831 0.82521 0.61017 0.0
Cd172 Cd 0.4582 0.82403 0.65308 0.0
C173 C 0.43829 0.92698 0.6167 0.0
O174 O 0.51683 0.79106 0.5998 0.0
O175 O 0.5379 0.85511 0.63189 0.0
O176 O 0.45193 0.74751 0.68638 0.0
C177 C 0.54715 0.82323 0.60186 0.0
O178 O 0.43948 0.90256 0.57861 0.0
C179 C 0.45713 0.75934 0.72939 0.0
O180 O 0.44435 0.90764 0.65693 0.0
O181 O 0.46123 0.80299 0.73859 0.0
C182 C 0.12756 0.37399 0.58507 0.0
O183 O 0.15774 0.40398 0.57314 0.0
Cd184 Cd 0.10091 0.46384 0.55994 0.0
O185 O 0.09454 0.38767 0.61219 0.0
Cd186 Cd 0.09702 0.46714 0.65598 0.0
C187 C -0.00649 0.44658 0.62221 0.0
O188 O 0.13017 0.52658 0.60337 0.0
O189 O 0.0662 0.54755 0.63518 0.0
O190 O 0.17436 0.45628 0.68667 0.0
C191 C 0.09799 0.55693 0.60523 0.0
O192 O 0.01752 0.44796 0.58397 0.0
C193 C 0.16426 0.46017 0.73022 0.0
O194 O 0.01336 0.45284 0.66223 0.0
O195 O 0.12128 0.46696 0.74089 0.0
C196 C 0.52475 0.09634 0.54734 0.0
O197 O 0.49083 0.0928 0.51842 0.0
Cd198 Cd 0.41311 0.07266 0.53623 0.0
O199 O 0.51824 0.0941 0.59213 0.0
Cd200 Cd 0.44428 0.09201 0.64369 0.0
C201 C 0.4333 -0.02174 0.61261 0.0
O202 O 0.39229 0.13157 0.59093 0.0
O203 O 0.35579 0.08595 0.63791 0.0
O204 O 0.46292 0.16661 0.67884 0.0
C205 C 0.35333 0.11694 0.60576 0.0
O206 O 0.42032 -0.00506 0.57279 0.0
C207 C 0.46102 0.15424 0.72185 0.0
O208 O 0.44573 0.00523 0.64659 0.0
O209 O 0.45332 0.11101 0.73013 0.0
C210 C 0.82193 0.53009 0.55398 0.0
O211 O 0.82624 0.49649 0.5248 0.0
Cd212 Cd 0.84792 0.41894 0.54199 0.0
O213 O 0.82411 0.52312 0.59876 0.0
Cd214 Cd 0.82801 0.44804 0.64962 0.0
C215 C 0.94222 0.44056 0.61847 0.0
O216 O 0.78962 0.39591 0.59621 0.0
O217 O 0.83614 0.35994 0.64304 0.0
O218 O 0.75255 0.46367 0.68415 0.0
C219 C 0.80483 0.35714 0.61112 0.0
O220 O 0.92554 0.42762 0.57858 0.0
C221 C 0.76426 0.45998 0.72727 0.0
O222 O 0.91515 0.4518 0.65273 0.0
O223 O 0.80763 0.4534 0.73612 0.0
C224 C 0.32547 0.35082 0.12096 0.0
O225 O 0.32282 0.3787 0.15558 0.0
Cd226 Cd 0.28894 0.44099 0.10702 0.0
O227 O 0.30548 0.36373 0.08314 0.0
Cd228 Cd 0.27363 0.45009 0.09589 0.0
C229 C 0.28803 0.43906 -0.00488 0.0
O230 O 0.34096 0.49551 0.13391 0.0
O231 O 0.31548 0.52501 0.06943 0.0
O232 O 0.23802 0.44584 0.17544 0.0
C233 C 0.34488 0.52723 0.10321 0.0
O234 O 0.3205 0.43129 0.02469 0.0
C235 C 0.19712 0.45827 0.1631 0.0
O236 O 0.24827 0.45072 0.01146 0.0
O237 O 0.19038 0.46664 0.11938 0.0
C238 C 0.37219 0.52839 0.83249 0.0
O239 O 0.40094 0.4959 0.84242 0.0
Cd240 Cd 0.38284 0.41745 0.85801 0.0
O241 O 0.32842 0.52003 0.82686 0.0
Cd242 Cd 0.28038 0.44428 0.82794 0.0
C243 C 0.298 0.43587 0.94429 0.0
O244 O 0.33798 0.39516 0.79093 0.0
O245 O 0.29284 0.35625 0.83623 0.0
O246 O 0.2443 0.46064 0.75249 0.0
C247 C 0.32556 0.35546 0.80577 0.0
O248 O 0.33864 0.42196 0.93184 0.0
C249 C 0.20196 0.45684 0.76552 0.0
O250 O 0.26781 0.44896 0.91371 0.0
O251 O 0.19466 0.44814 0.80902 0.0
C252 C 0.36105 0.31817 0.8051 0.0
O253 O 0.38859 0.31487 0.77037 0.0
Cd254 Cd 0.45127 0.28087 0.81897 0.0
O255 O 0.37436 0.29889 0.84312 0.0
Cd256 Cd 0.46002 0.26543 0.8295 0.0
C257 C 0.44948 0.27816 0.93111 0.0
O258 O 0.506 0.33303 0.79274 0.0
O259 O 0.53656 0.30565 0.85581 0.0
O260 O 0.45338 0.23254 0.74842 0.0
C261 C 0.53847 0.33596 0.82292 0.0
O262 O 0.44221 0.31111 0.90206 0.0
C263 C 0.46255 0.19037 0.75905 0.0
O264 O 0.46068 0.23853 0.914 0.0
O265 O 0.47117 0.18172 0.8024 0.0
C266 C 0.55889 0.38243 0.8314 0.0
O267 O 0.53001 0.41444 0.84247 0.0
Cd268 Cd 0.54709 0.49282 0.85989 0.0
O269 O 0.60258 0.3914 0.82562 0.0
Cd270 Cd 0.6503 0.46829 0.82903 0.0
C271 C 0.63222 0.47394 0.94625 0.0
O272 O 0.59158 0.51708 0.79362 0.0
O273 O 0.63693 0.556 0.83907 0.0
O274 O 0.68505 0.45619 0.75205 0.0
C275 C 0.60413 0.55676 0.80858 0.0
O276 O 0.59139 0.48729 0.93362 0.0
C277 C 0.72763 0.46132 0.76392 0.0
O278 O 0.66291 0.46217 0.91562 0.0
O279 O 0.73603 0.46784 0.8077 0.0
C280 C 0.56892 0.59426 0.80752 0.0
O281 O 0.54106 0.59693 0.77289 0.0
Cd282 Cd 0.47878 0.63081 0.82147 0.0
O283 O 0.55605 0.61425 0.84535 0.0
Cd284 Cd 0.46967 0.64611 0.83261 0.0
C285 C 0.48072 0.63171 0.93338 0.0
O286 O 0.42427 0.57878 0.79459 0.0
O287 O 0.39474 0.60427 0.85909 0.0
O288 O 0.47389 0.68173 0.75306 0.0
C289 C 0.39257 0.57487 0.82531 0.0
O290 O 0.48849 0.59925 0.90381 0.0
C291 C 0.46148 0.72263 0.76541 0.0
O292 O 0.46905 0.67146 0.91704 0.0
O293 O 0.45313 0.72936 0.80913 0.0
C294 C 0.60162 0.55873 0.12338 0.0
O295 O 0.60493 0.53118 0.1581 0.0
Cd296 Cd 0.63889 0.46848 0.10949 0.0
O297 O 0.62088 0.5454 0.08535 0.0
Cd298 Cd 0.65432 0.45973 0.09897 0.0
C299 C 0.64159 0.47027 -0.00264 0.0
O300 O 0.5867 0.41377 0.13572 0.0
O301 O 0.6141 0.3832 0.07268 0.0
O302 O 0.68721 0.46635 0.18006 0.0
C303 C 0.58378 0.3813 0.10555 0.0
O304 O 0.60865 0.47756 0.0264 0.0
C305 C 0.72938 0.45718 0.16943 0.0
O306 O 0.68123 0.45905 0.01448 0.0
O307 O 0.73803 0.44859 0.12608 0.0
C308 C 0.39137 0.54758 0.09602 0.0
O309 O 0.42385 0.51882 0.08607 0.0
Cd310 Cd 0.50232 0.53688 0.07048 0.0
O311 O 0.39974 0.59134 0.10166 0.0
Cd312 Cd 0.47551 0.63937 0.10057 0.0
C313 C 0.4839 0.62173 -0.01579 0.0
O314 O 0.52462 0.58174 0.13754 0.0
O315 O 0.56355 0.62696 0.0923 0.0
O316 O 0.45916 0.67544 0.17603 0.0
C317 C 0.5643 0.59419 0.1227 0.0
O318 O 0.49781 0.58109 -0.00334 0.0
C319 C 0.46291 0.71778 0.16299 0.0
O320 O 0.47082 0.65192 0.01479 0.0
O321 O 0.4716 0.72509 0.11948 0.0
C322 C 0.53731 0.36087 0.09707 0.0
O323 O 0.50529 0.38975 0.08599 0.0
Cd324 Cd 0.42691 0.37268 0.06856 0.0
O325 O 0.52834 0.31719 0.10286 0.0
Cd326 Cd 0.45144 0.26946 0.09945 0.0
C327 C 0.44579 0.28755 -0.01778 0.0
O328 O 0.40267 0.32821 0.13484 0.0
O329 O 0.36371 0.28282 0.08941 0.0
O330 O 0.46352 0.23471 0.17642 0.0
C331 C 0.36299 0.31564 0.11988 0.0
O332 O 0.43245 0.32837 -0.00516 0.0
C333 C 0.4584 0.19213 0.16455 0.0
O334 O 0.45757 0.25686 0.01286 0.0
O335 O 0.45189 0.18373 0.12077 0.0
loop_
_geom_bond_atom_site_label_1
_geom_bond_atom_site_label_2
_geom_bond_distance
_geom_bond_site_symmetry_2
_ccdc_geom_bond_type
C0 O1 1.306 . S
C0 O3 1.160 . S
O1 C0 1.306 . S
O1 Cd2 2.228 . S
Cd2 O1 2.228 . S
Cd2 O6 2.273 . S
Cd2 O10 2.277 . S
O3 C0 1.160 . S
O3 Cd4 2.203 . S
Cd4 O3 2.203 . S
Cd4 O6 2.411 . S
Cd4 O7 2.333 . S
Cd4 O8 2.352 . S
Cd4 O12 2.277 . S
Cd4 O13 2.356 . S
C5 O10 1.209 . S
C5 O12 1.226 . S
O6 Cd2 2.273 . S
O6 Cd4 2.411 . S
O6 C9 1.320 . S
O7 Cd4 2.333 . S
O7 C9 1.214 . S
O8 Cd4 2.352 . S
O8 C11 1.258 . S
C9 O6 1.320 . S
C9 O7 1.214 . S
O10 Cd2 2.277 . S
O10 C5 1.209 . S
C11 O8 1.258 . S
C11 O13 1.282 . S
O12 Cd4 2.277 . S
O12 C5 1.226 . S
O13 Cd4 2.356 . S
O13 C11 1.282 . S
C14 O15 1.306 . S
C14 O17 1.160 . S
O15 C14 1.306 . S
O15 Cd16 2.228 . S
Cd16 O15 2.228 . S
Cd16 O20 2.273 . S
Cd16 O24 2.277 . S
O17 C14 1.160 . S
O17 Cd18 2.203 . S
Cd18 O17 2.203 . S
Cd18 O20 2.411 . S
Cd18 O21 2.333 . S
Cd18 O22 2.352 . S
Cd18 O26 2.277 . S
Cd18 O27 2.356 . S
C19 O24 1.209 . S
C19 O26 1.226 . S
O20 Cd16 2.273 . S
O20 Cd18 2.411 . S
O20 C23 1.320 . S
O21 Cd18 2.333 . S
O21 C23 1.214 . S
O22 Cd18 2.352 . S
O22 C25 1.258 . S
C23 O20 1.320 . S
C23 O21 1.214 . S
O24 Cd16 2.277 . S
O24 C19 1.209 . S
C25 O22 1.258 . S
C25 O27 1.282 . S
O26 Cd18 2.277 . S
O26 C19 1.226 . S
O27 Cd18 2.356 . S
O27 C25 1.282 . S
C28 O29 1.306 . S
C28 O31 1.160 . S
O29 C28 1.306 . S
O29 Cd30 2.228 . S
Cd30 O29 2.228 . S
Cd30 O34 2.273 . S
Cd30 O38 2.277 . S
O31 C28 1.160 . S
O31 Cd32 2.203 . S
Cd32 O31 2.203 . S
Cd32 O34 2.411 . S
Cd32 O35 2.333 . S
Cd32 O36 2.352 . S
Cd32 O40 2.277 . S
Cd32 O41 2.356 . S
C33 O38 1.209 . S
C33 O40 1.226 . S
O34 Cd30 2.273 . S
O34 Cd32 2.411 . S
O34 C37 1.320 . S
O35 Cd32 2.333 . S
O35 C37 1.214 . S
O36 Cd32 2.352 . S
O36 C39 1.258 . S
C37 O34 1.320 . S
C37 O35 1.214 . S
O38 Cd30 2.277 . S
O38 C33 1.209 . S
C39 O36 1.258 . S
C39 O41 1.282 . S
O40 Cd32 2.277 . S
O40 C33 1.226 . S
O41 Cd32 2.356 . S
O41 C39 1.282 . S
C42 O43 1.306 . S
C42 O45 1.160 . S
O43 C42 1.306 . S
O43 Cd44 2.228 . S
Cd44 O43 2.228 . S
Cd44 O48 2.273 . S
Cd44 O52 2.277 . S
O45 C42 1.160 . S
O45 Cd46 2.203 . S
Cd46 O45 2.203 . S
Cd46 O48 2.411 . S
Cd46 O49 2.333 . S
Cd46 O50 2.352 . S
Cd46 O54 2.277 . S
Cd46 O55 2.356 . S
C47 O52 1.209 . S
C47 O54 1.226 . S
O48 Cd44 2.273 . S
O48 Cd46 2.411 . S
O48 C51 1.320 . S
O49 Cd46 2.333 . S
O49 C51 1.214 . S
O50 Cd46 2.352 . S
O50 C53 1.258 . S
C51 O48 1.320 . S
C51 O49 1.214 . S
O52 Cd44 2.277 . S
O52 C47 1.209 . S
C53 O50 1.258 . S
C53 O55 1.282 . S
O54 Cd46 2.277 . S
O54 C47 1.226 . S
O55 Cd46 2.356 . S
O55 C53 1.282 . S
C56 O57 1.306 . S
C56 O59 1.160 . S
O57 C56 1.306 . S
O57 Cd58 2.228 . S
Cd58 O57 2.228 . S
Cd58 O62 2.273 . S
Cd58 O66 2.277 . S
O59 C56 1.160 . S
O59 Cd60 2.203 . S
Cd60 O59 2.203 . S
Cd60 O62 2.411 . S
Cd60 O63 2.333 . S
Cd60 O64 2.352 . S
Cd60 O68 2.277 . S
Cd60 O69 2.356 . S
C61 O66 1.209 . S
C61 O68 1.226 . S
O62 Cd58 2.273 . S
O62 Cd60 2.411 . S
O62 C65 1.320 . S
O63 Cd60 2.333 . S
O63 C65 1.214 . S
O64 Cd60 2.352 . S
O64 C67 1.258 . S
C65 O62 1.320 . S
C65 O63 1.214 . S
O66 Cd58 2.277 . S
O66 C61 1.209 . S
C67 O64 1.258 . S
C67 O69 1.282 . S
O68 Cd60 2.277 . S
O68 C61 1.226 . S
O69 Cd60 2.356 . S
O69 C67 1.282 . S
C70 O71 1.306 . S
C70 O73 1.160 . S
O71 C70 1.306 . S
O71 Cd72 2.228 . S
Cd72 O71 2.228 . S
Cd72 O76 2.273 . S
Cd72 O80 2.277 . S
O73 C70 1.160 . S
O73 Cd74 2.203 . S
Cd74 O73 2.203 . S
Cd74 O76 2.411 . S
Cd74 O77 2.333 . S
Cd74 O78 2.352 . S
Cd74 O82 2.277 . S
Cd74 O83 2.356 . S
C75 O80 1.209 . S
C75 O82 1.226 . S
O76 Cd72 2.273 . S
O76 Cd74 2.411 . S
O76 C79 1.320 . S
O77 Cd74 2.333 . S
O77 C79 1.214 . S
O78 Cd74 2.352 . S
O78 C81 1.258 . S
C79 O76 1.320 . S
C79 O77 1.214 . S
O80 Cd72 2.277 . S
O80 C75 1.209 . S
C81 O78 1.258 . S
C81 O83 1.282 . S
O82 Cd74 2.277 . S
O82 C75 1.226 . S
O83 Cd74 2.356 . S
O83 C81 1.282 . S
C84 O85 1.306 . S
C84 O87 1.160 . S
O85 C84 1.306 . S
O85 Cd86 2.228 . S
Cd86 O85 2.228 . S
Cd86 O90 2.273 . S
Cd86 O94 2.277 . S
O87 C84 1.160 . S
O87 Cd88 2.203 . S
Cd88 O87 2.203 . S
Cd88 O90 2.411 . S
Cd88 O91 2.333 . S
Cd88 O92 2.352 . S
Cd88 O96 2.277 . S
Cd88 O97 2.356 . S
C89 O94 1.209 . S
C89 O96 1.226 . S
O90 Cd86 2.273 . S
O90 Cd88 2.411 . S
O90 C93 1.320 . S
O91 Cd88 2.333 . S
O91 C93 1.214 . S
O92 Cd88 2.352 . S
O92 C95 1.258 . S
C93 O90 1.320 . S
C93 O91 1.214 . S
O94 Cd86 2.277 . S
O94 C89 1.209 . S
C95 O92 1.258 . S
C95 O97 1.282 . S
O96 Cd88 2.277 . S
O96 C89 1.226 . S
O97 Cd88 2.356 . S
O97 C95 1.282 . S
C98 O99 1.306 . S
C98 O101 1.160 . S
O99 C98 1.306 . S
O99 Cd100 2.228 . S
Cd100 O99 2.228 . S
Cd100 O104 2.273 . S
Cd100 O108 2.277 . S
O101 C98 1.160 . S
O101 Cd102 2.203 . S
Cd102 O101 2.203 . S
Cd102 O104 2.411 . S
Cd102 O105 2.333 . S
Cd102 O106 2.352 . S
Cd102 O110 2.277 . S
Cd102 O111 2.356 . S
C103 O108 1.209 . S
C103 O110 1.226 . S
O104 Cd100 2.273 . S
O104 Cd102 2.411 . S
O104 C107 1.320 . S
O105 Cd102 2.333 . S
O105 C107 1.214 . S
O106 Cd102 2.352 . S
O106 C109 1.258 . S
C107 O104 1.320 . S
C107 O105 1.214 . S
O108 Cd100 2.277 . S
O108 C103 1.209 . S
C109 O106 1.258 . S
C109 O111 1.282 . S
O110 Cd102 2.277 . S
O110 C103 1.226 . S
O111 Cd102 2.356 . S
O111 C109 1.282 . S
C112 O113 1.306 . S
C112 O115 1.160 . S
O113 C112 1.306 . S
O113 Cd114 2.228 . S
Cd114 O113 2.228 . S
Cd114 O118 2.273 . S
Cd114 O122 2.277 . S
O115 C112 1.160 . S
O115 Cd116 2.203 . S
Cd116 O115 2.203 . S
Cd116 O118 2.411 . S
Cd116 O119 2.333 . S
Cd116 O120 2.352 . S
Cd116 O124 2.277 . S
Cd116 O125 2.356 . S
C117 O122 1.209 . S
C117 O124 1.226 . S
O118 Cd114 2.273 . S
O118 Cd116 2.411 . S
O118 C121 1.320 . S
O119 Cd116 2.333 . S
O119 C121 1.214 . S
O120 Cd116 2.352 . S
O120 C123 1.258 . S
C121 O118 1.320 . S
C121 O119 1.214 . S
O122 Cd114 2.277 . S
O122 C117 1.209 . S
C123 O120 1.258 . S
C123 O125 1.282 . S
O124 Cd116 2.277 . S
O124 C117 1.226 . S
O125 Cd116 2.356 . S
O125 C123 1.282 . S
C126 O127 1.306 . S
C126 O129 1.160 . S
O127 C126 1.306 . S
O127 Cd128 2.228 . S
Cd128 O127 2.228 . S
Cd128 O132 2.273 . S
Cd128 O136 2.277 . S
O129 C126 1.160 . S
O129 Cd130 2.203 . S
Cd130 O129 2.203 . S
Cd130 O132 2.411 . S
Cd130 O133 2.333 . S
Cd130 O134 2.352 . S
Cd130 O138 2.277 . S
Cd130 O139 2.356 . S
C131 O136 1.209 . S
C131 O138 1.226 . S
O132 Cd128 2.273 . S
O132 Cd130 2.411 . S
O132 C135 1.320 . S
O133 Cd130 2.333 . S
O133 C135 1.214 . S
O134 Cd130 2.352 . S
O134 C137 1.258 . S
C135 O132 1.320 . S
C135 O133 1.214 . S
O136 Cd128 2.277 . S
O136 C131 1.209 . S
C137 O134 1.258 . S
C137 O139 1.282 . S
O138 Cd130 2.277 . S
O138 C131 1.226 . S
O139 Cd130 2.356 . S
O139 C137 1.282 . S
C140 O141 1.306 . S
C140 O143 1.160 . S
O141 C140 1.306 . S
O141 Cd142 2.228 . S
Cd142 O141 2.228 . S
Cd142 O146 2.273 . S
Cd142 O150 2.277 . S
O143 C140 1.160 . S
O143 Cd144 2.203 . S
Cd144 O143 2.203 . S
Cd144 O146 2.411 . S
Cd144 O147 2.333 . S
Cd144 O148 2.352 . S
Cd144 O152 2.277 . S
Cd144 O153 2.356 . S
C145 O150 1.209 . S
C145 O152 1.226 . S
O146 Cd142 2.273 . S
O146 Cd144 2.411 . S
O146 C149 1.320 . S
O147 Cd144 2.333 . S
O147 C149 1.214 . S
O148 Cd144 2.352 . S
O148 C151 1.258 . S
C149 O146 1.320 . S
C149 O147 1.214 . S
O150 Cd142 2.277 . S
O150 C145 1.209 . S
C151 O148 1.258 . S
C151 O153 1.282 . S
O152 Cd144 2.277 . S
O152 C145 1.226 . S
O153 Cd144 2.356 . S
O153 C151 1.282 . S
C154 O155 1.306 . S
C154 O157 1.160 . S
O155 C154 1.306 . S
O155 Cd156 2.228 . S
Cd156 O155 2.228 . S
Cd156 O160 2.273 . S
Cd156 O164 2.277 . S
O157 C154 1.160 . S
O157 Cd158 2.203 . S
Cd158 O157 2.203 . S
Cd158 O160 2.411 . S
Cd158 O161 2.333 . S
Cd158 O162 2.352 . S
Cd158 O166 2.277 . S
Cd158 O167 2.356 . S
C159 O164 1.209 . S
C159 O166 1.226 . S
O160 Cd156 2.273 . S
O160 Cd158 2.411 . S
O160 C163 1.320 . S
O161 Cd158 2.333 . S
O161 C163 1.214 . S
O162 Cd158 2.352 . S
O162 C165 1.258 . S
C163 O160 1.320 . S
C163 O161 1.214 . S
O164 Cd156 2.277 . S
O164 C159 1.209 . S
C165 O162 1.258 . S
C165 O167 1.282 . S
O166 Cd158 2.277 . S
O166 C159 1.226 . S
O167 Cd158 2.356 . S
O167 C165 1.282 . S
C168 O169 1.306 . S
C168 O171 1.160 . S
O169 C168 1.306 . S
O169 Cd170 2.228 . S
Cd170 O169 2.228 . S
Cd170 O174 2.273 . S
Cd170 O178 2.277 . S
O171 C168 1.160 . S
O171 Cd172 2.203 . S
Cd172 O171 2.203 . S
Cd172 O174 2.411 . S
Cd172 O175 2.333 . S
Cd172 O176 2.352 . S
Cd172 O180 2.277 . S
Cd172 O181 2.356 . S
C173 O178 1.209 . S
C173 O180 1.226 . S
O174 Cd170 2.273 . S
O174 Cd172 2.411 . S
O174 C177 1.320 . S
O175 Cd172 2.333 . S
O175 C177 1.214 . S
O176 Cd172 2.352 . S
O176 C179 1.258 . S
C177 O174 1.320 . S
C177 O175 1.214 . S
O178 Cd170 2.277 . S
O178 C173 1.209 . S
C179 O176 1.258 . S
C179 O181 1.282 . S
O180 Cd172 2.277 . S
O180 C173 1.226 . S
O181 Cd172 2.356 . S
O181 C179 1.282 . S
C182 O183 1.306 . S
C182 O185 1.160 . S
O183 C182 1.306 . S
O183 Cd184 2.228 . S
Cd184 O183 2.228 . S
Cd184 O188 2.273 . S
Cd184 O192 2.277 . S
O185 C182 1.160 . S
O185 Cd186 2.203 . S
Cd186 O185 2.203 . S
Cd186 O188 2.411 . S
Cd186 O189 2.333 . S
Cd186 O190 2.352 . S
Cd186 O194 2.277 . S
Cd186 O195 2.356 . S
C187 O192 1.209 . S
C187 O194 1.226 . S
O188 Cd184 2.273 . S
O188 Cd186 2.411 . S
O188 C191 1.320 . S
O189 Cd186 2.333 . S
O189 C191 1.214 . S
O190 Cd186 2.352 . S
O190 C193 1.258 . S
C191 O188 1.320 . S
C191 O189 1.214 . S
O192 Cd184 2.277 . S
O192 C187 1.209 . S
C193 O190 1.258 . S
C193 O195 1.282 . S
O194 Cd186 2.277 . S
O194 C187 1.226 . S
O195 Cd186 2.356 . S
O195 C193 1.282 . S
C196 O197 1.306 . S
C196 O199 1.160 . S
O197 C196 1.306 . S
O197 Cd198 2.228 . S
Cd198 O197 2.228 . S
Cd198 O202 2.273 . S
Cd198 O206 2.277 . S
O199 C196 1.160 . S
O199 Cd200 2.203 . S
Cd200 O199 2.203 . S
Cd200 O202 2.411 . S
Cd200 O203 2.333 . S
Cd200 O204 2.352 . S
Cd200 O208 2.277 . S
Cd200 O209 2.356 . S
C201 O206 1.209 . S
C201 O208 1.226 . S
O202 Cd198 2.273 . S
O202 Cd200 2.411 . S
O202 C205 1.320 . S
O203 Cd200 2.333 . S
O203 C205 1.214 . S
O204 Cd200 2.352 . S
O204 C207 1.258 . S
C205 O202 1.320 . S
C205 O203 1.214 . S
O206 Cd198 2.277 . S
O206 C201 1.209 . S
C207 O204 1.258 . S
C207 O209 1.282 . S
O208 Cd200 2.277 . S
O208 C201 1.226 . S
O209 Cd200 2.356 . S
O209 C207 1.282 . S
C210 O211 1.306 . S
C210 O213 1.160 . S
O211 C210 1.306 . S
O211 Cd212 2.228 . S
Cd212 O211 2.228 . S
Cd212 O216 2.273 . S
Cd212 O220 2.277 . S
O213 C210 1.160 . S
O213 Cd214 2.203 . S
Cd214 O213 2.203 . S
Cd214 O216 2.411 . S
Cd214 O217 2.333 . S
Cd214 O218 2.352 . S
Cd214 O222 2.277 . S
Cd214 O223 2.356 . S
C215 O220 1.209 . S
C215 O222 1.226 . S
O216 Cd212 2.273 . S
O216 Cd214 2.411 . S
O216 C219 1.320 . S
O217 Cd214 2.333 . S
O217 C219 1.214 . S
O218 Cd214 2.352 . S
O218 C221 1.258 . S
C219 O216 1.320 . S
C219 O217 1.214 . S
O220 Cd212 2.277 . S
O220 C215 1.209 . S
C221 O218 1.258 . S
C221 O223 1.282 . S
O222 Cd214 2.277 . S
O222 C215 1.226 . S
O223 Cd214 2.356 . S
O223 C221 1.282 . S
C224 O225 1.306 . S
C224 O227 1.160 . S
O225 C224 1.306 . S
O225 Cd226 2.228 . S
Cd226 O225 2.228 . S
Cd226 O230 2.273 . S
Cd226 O234 2.277 . S
O227 C224 1.160 . S
O227 Cd228 2.203 . S
Cd228 O227 2.203 . S
Cd228 O230 2.411 . S
Cd228 O231 2.333 . S
Cd228 O232 2.352 . S
Cd228 O236 2.277 . S
Cd228 O237 2.356 . S
C229 O234 1.209 . S
C229 O236 1.226 . S
O230 Cd226 2.273 . S
O230 Cd228 2.411 . S
O230 C233 1.320 . S
O231 Cd228 2.333 . S
O231 C233 1.214 . S
O232 Cd228 2.352 . S
O232 C235 1.258 . S
C233 O230 1.320 . S
C233 O231 1.214 . S
O234 Cd226 2.277 . S
O234 C229 1.209 . S
C235 O232 1.258 . S
C235 O237 1.282 . S
O236 Cd228 2.277 . S
O236 C229 1.226 . S
O237 Cd228 2.356 . S
O237 C235 1.282 . S
C238 O239 1.306 . S
C238 O241 1.160 . S
O239 C238 1.306 . S
O239 Cd240 2.228 . S
Cd240 O239 2.228 . S
Cd240 O244 2.273 . S
Cd240 O248 2.277 . S
O241 C238 1.160 . S
O241 Cd242 2.203 . S
Cd242 O241 2.203 . S
Cd242 O244 2.411 . S
Cd242 O245 2.333 . S
Cd242 O246 2.352 . S
Cd242 O250 2.277 . S
Cd242 O251 2.356 . S
C243 O248 1.209 . S
C243 O250 1.226 . S
O244 Cd240 2.273 . S
O244 Cd242 2.411 . S
O244 C247 1.320 . S
O245 Cd242 2.333 . S
O245 C247 1.214 . S
O246 Cd242 2.352 . S
O246 C249 1.258 . S
C247 O244 1.320 . S
C247 O245 1.214 . S
O248 Cd240 2.277 . S
O248 C243 1.209 . S
C249 O246 1.258 . S
C249 O251 1.282 . S
O250 Cd242 2.277 . S
O250 C243 1.226 . S
O251 Cd242 2.356 . S
O251 C249 1.282 . S
C252 O253 1.306 . S
C252 O255 1.160 . S
O253 C252 1.306 . S
O253 Cd254 2.228 . S
Cd254 O253 2.228 . S
Cd254 O258 2.273 . S
Cd254 O262 2.277 . S
O255 C252 1.160 . S
O255 Cd256 2.203 . S
Cd256 O255 2.203 . S
Cd256 O258 2.411 . S
Cd256 O259 2.333 . S
Cd256 O260 2.352 . S
Cd256 O264 2.277 . S
Cd256 O265 2.356 . S
C257 O262 1.209 . S
C257 O264 1.226 . S
O258 Cd254 2.273 . S
O258 Cd256 2.411 . S
O258 C261 1.320 . S
O259 Cd256 2.333 . S
O259 C261 1.214 . S
O260 Cd256 2.352 . S
O260 C263 1.258 . S
C261 O258 1.320 . S
C261 O259 1.214 . S
O262 Cd254 2.277 . S
O262 C257 1.209 . S
C263 O260 1.258 . S
C263 O265 1.282 . S
O264 Cd256 2.277 . S
O264 C257 1.226 . S
O265 Cd256 2.356 . S
O265 C263 1.282 . S
C266 O267 1.306 . S
C266 O269 1.160 . S
O267 C266 1.306 . S
O267 Cd268 2.228 . S
Cd268 O267 2.228 . S
Cd268 O272 2.273 . S
Cd268 O276 2.277 . S
O269 C266 1.160 . S
O269 Cd270 2.203 . S
Cd270 O269 2.203 . S
Cd270 O272 2.411 . S
Cd270 O273 2.333 . S
Cd270 O274 2.352 . S
Cd270 O278 2.277 . S
Cd270 O279 2.356 . S
C271 O276 1.209 . S
C271 O278 1.226 . S
O272 Cd268 2.273 . S
O272 Cd270 2.411 . S
O272 C275 1.320 . S
O273 Cd270 2.333 . S
O273 C275 1.214 . S
O274 Cd270 2.352 . S
O274 C277 1.258 . S
C275 O272 1.320 . S
C275 O273 1.214 . S
O276 Cd268 2.277 . S
O276 C271 1.209 . S
C277 O274 1.258 . S
C277 O279 1.282 . S
O278 Cd270 2.277 . S
O278 C271 1.226 . S
O279 Cd270 2.356 . S
O279 C277 1.282 . S
C280 O281 1.306 . S
C280 O283 1.160 . S
O281 C280 1.306 . S
O281 Cd282 2.228 . S
Cd282 O281 2.228 . S
Cd282 O286 2.273 . S
Cd282 O290 2.277 . S
O283 C280 1.160 . S
O283 Cd284 2.203 . S
Cd284 O283 2.203 . S
Cd284 O286 2.411 . S
Cd284 O287 2.333 . S
Cd284 O288 2.352 . S
Cd284 O292 2.277 . S
Cd284 O293 2.356 . S
C285 O290 1.209 . S
C285 O292 1.226 . S
O286 Cd282 2.273 . S
O286 Cd284 2.411 . S
O286 C289 1.320 . S
O287 Cd284 2.333 . S
O287 C289 1.214 . S
O288 Cd284 2.352 . S
O288 C291 1.258 . S
C289 O286 1.320 . S
C289 O287 1.214 . S
O290 Cd282 2.277 . S
O290 C285 1.209 . S
C291 O288 1.258 . S
C291 O293 1.282 . S
O292 Cd284 2.277 . S
O292 C285 1.226 . S
O293 Cd284 2.356 . S
O293 C291 1.282 . S
C294 O295 1.306 . S
C294 O297 1.160 . S
O295 C294 1.306 . S
O295 Cd296 2.228 . S
Cd296 O295 2.228 . S
Cd296 O300 2.273 . S
Cd296 O304 2.277 . S
O297 C294 1.160 . S
O297 Cd298 2.203 . S
Cd298 O297 2.203 . S
Cd298 O300 2.411 . S
Cd298 O301 2.333 . S
Cd298 O302 2.352 . S
Cd298 O306 2.277 . S
Cd298 O307 2.356 . S
C299 O304 1.209 . S
C299 O306 1.226 . S
O300 Cd296 2.273 . S
O300 Cd298 2.411 . S
O300 C303 1.320 . S
O301 Cd298 2.333 . S
O301 C303 1.214 . S
O302 Cd298 2.352 . S
O302 C305 1.258 . S
C303 O300 1.320 . S
C303 O301 1.214 . S
O304 Cd296 2.277 . S
O304 C299 1.209 . S
C305 O302 1.258 . S
C305 O307 1.282 . S
O306 Cd298 2.277 . S
O306 C299 1.226 . S
O307 Cd298 2.356 . S
O307 C305 1.282 . S
C308 O309 1.306 . S
C308 O311 1.160 . S
O309 C308 1.306 . S
O309 Cd310 2.228 . S
Cd310 O309 2.228 . S
Cd310 O314 2.273 . S
Cd310 O318 2.277 . S
O311 C308 1.160 . S
O311 Cd312 2.203 . S
Cd312 O311 2.203 . S
Cd312 O314 2.411 . S
Cd312 O315 2.333 . S
Cd312 O316 2.352 . S
Cd312 O320 2.277 . S
Cd312 O321 2.356 . S
C313 O318 1.209 . S
C313 O320 1.226 . S
O314 Cd310 2.273 . S
O314 Cd312 2.411 . S
O314 C317 1.320 . S
O315 Cd312 2.333 . S
O315 C317 1.214 . S
O316 Cd312 2.352 . S
O316 C319 1.258 . S
C317 O314 1.320 . S
C317 O315 1.214 . S
O318 Cd310 2.277 . S
O318 C313 1.209 . S
C319 O316 1.258 . S
C319 O321 1.282 . S
O320 Cd312 2.277 . S
O320 C313 1.226 . S
O321 Cd312 2.356 . S
O321 C319 1.282 . S
C322 O323 1.306 . S
C322 O325 1.160 . S
O323 C322 1.306 . S
O323 Cd324 2.228 . S
Cd324 O323 2.228 . S
Cd324 O328 2.273 . S
Cd324 O332 2.277 . S
O325 C322 1.160 . S
O325 Cd326 2.203 . S
Cd326 O325 2.203 . S
Cd326 O328 2.411 . S
Cd326 O329 2.333 . S
Cd326 O330 2.352 . S
Cd326 O334 2.277 . S
Cd326 O335 2.356 . S
C327 O332 1.209 . S
C327 O334 1.226 . S
O328 Cd324 2.273 . S
O328 Cd326 2.411 . S
O328 C331 1.320 . S
O329 Cd326 2.333 . S
O329 C331 1.214 . S
O330 Cd326 2.352 . S
O330 C333 1.258 . S
C331 O328 1.320 . S
C331 O329 1.214 . S
O332 Cd324 2.277 . S
O332 C327 1.209 . S
C333 O330 1.258 . S
C333 O335 1.282 . S
O334 Cd326 2.277 . S
O334 C327 1.226 . S
O335 Cd326 2.356 . S
O335 C333 1.282 . S
C163 C0 1.571 . S
C14 C121 1.571 . S
C28 C135 1.571 . S
C42 C149 1.571 . S
C191 C56 1.571 . S
C70 C205 1.571 . S
C219 C84 1.571 . S
C177 C98 1.571 . S
C79 C112 1.571 . S
C93 C126 1.571 . S
C140 C107 1.571 . S
C65 C154 1.571 . S
C51 C168 1.571 . S
C182 C9 1.571 . S
C196 C23 1.571 . S
C210 C37 1.571 . S
C224 C331 1.571 . S
C289 C238 1.571 . S
C252 C247 1.571 . S
C266 C261 1.571 . S
C275 C280 1.571 . S
C294 C317 1.571 . S
C233 C308 1.571 . S
C303 C322 1.571 . S
C5 C89 1.527 1_455 S
C19 C103 1.527 1_545 S
C33 C61 1.527 1_655 S
C75 C47 1.527 1_545 S
C145 C117 1.527 1_565 S
C131 C159 1.527 1_655 S
C173 C201 1.527 1_565 S
C215 C187 1.527 1_655 S
C243 C229 1.527 1_556 S
C257 C327 1.527 1_556 S
C271 C299 1.527 1_556 S
C285 C313 1.527 1_556 S
C11 C81 1.101 . S
C25 C95 1.101 . S
C39 C109 1.101 . S
C67 C53 1.101 . S
C123 C333 1.101 . S
C137 C305 1.101 . S
C319 C151 1.101 . S
C165 C235 1.101 . S
C291 C179 1.101 . S
C249 C193 1.101 . S
C207 C263 1.101 . S
C277 C221 1.101 . S
