# Generated by pormake.
# Topology reo, (8)-cn, num edge types: 1
# Building blocks:
#     Node 0, Type 0, BuildingBlock: GIZVER_clean_sbu_0, # of connection points: 8
#     Node 1, Type 0, BuildingBlock: GIZVER_clean_sbu_0, # of connection points: 8
#     Node 2, Type 0, BuildingBlock: GIZVER_clean_sbu_0, # of connection points: 8
#     Edge 3, Type (0, 0), BuildingBlock: FUNLAD_clean_linker_1, # of connection points: 2
#     Edge 4, Type (0, 0), BuildingBlock: FUNLAD_clean_linker_1, # of connection points: 2
#     Edge 5, Type (0, 0), BuildingBlock: FUNLAD_clean_linker_1, # of connection points: 2
#     Edge 6, Type (0, 0), BuildingBlock: FUNLAD_clean_linker_1, # of connection points: 2
#     Edge 7, Type (0, 0), BuildingBlock: FUNLAD_clean_linker_1, # of connection points: 2
#     Edge 8, Type (0, 0), BuildingBlock: FUNLAD_clean_linker_1, # of connection points: 2
#     Edge 9, Type (0, 0), BuildingBlock: FUNLAD_clean_linker_1, # of connection points: 2
#     Edge 10, Type (0, 0), BuildingBlock: FUNLAD_clean_linker_1, # of connection points: 2
#     Edge 11, Type (0, 0), BuildingBlock: FUNLAD_clean_linker_1, # of connection points: 2
#     Edge 12, Type (0, 0), BuildingBlock: FUNLAD_clean_linker_1, # of connection points: 2
#     Edge 13, Type (0, 0), BuildingBlock: FUNLAD_clean_linker_1, # of connection points: 2
#     Edge 14, Type (0, 0), BuildingBlock: FUNLAD_clean_linker_1, # of connection points: 2
# Relax obj value: 0.090
# Max RMSD: 0.197
# Mean RMSD: 0.141
data_MOF--net-reo--node1-GIZVER_clean_sbu_0--edge1-FUNLAD_clean_linker_1
_symmetry_space_group_name_H-M    P1
_symmetry_Int_Tables_number       1
_symmetry_cell_setting            triclinic
loop_
_symmetry_equiv_pos_as_xyz
'x, y, z'
_cell_length_a     24.63788
_cell_length_b     25.968547
_cell_length_c     25.998528
_cell_angle_alpha  106.86675
_cell_angle_beta   94.680019
_cell_angle_gamma 79.371066
loop_
_atom_site_label
_atom_site_type_symbol
_atom_site_fract_x
_atom_site_fract_y
_atom_site_fract_z
_atom_type_partial_charge
Co0 Co 0.07198 0.97956 0.61941 0.0
Co1 Co 0.14365 1.02164 0.58425 0.0
Co2 Co 0.0314 0.03993 0.51929 0.0
O3 O 0.08485 0.98949 0.55176 0.0
H4 H 0.0983 0.95537 0.5257 0.0
O5 O 0.97771 0.08972 0.485 0.0
Co6 Co 0.99483 0.10482 0.41964 0.0
Co7 Co 0.92443 0.05451 0.4422 0.0
H8 H 0.96076 0.12213 0.51133 0.0
O9 O 0.21031 0.98072 0.59515 0.0
O10 O 0.13863 1.01155 0.65146 0.0
O11 O 0.13851 0.09801 0.59097 0.0
O12 O 0.04765 0.10981 0.57358 0.0
O13 O 0.09215 0.04077 0.47309 0.0
O14 O 1.0091 0.12417 0.36286 0.0
O15 O 0.9554 0.17417 0.43213 0.0
O16 O 0.04118 0.03598 0.39827 0.0
O17 O 1.01716 0.9698 0.46569 0.0
O18 O 0.93541 0.9764 0.42282 0.0
O19 O 0.92923 0.07426 0.38014 0.0
O20 O 0.85615 0.09223 0.43435 0.0
C21 C 0.09173 0.91728 0.65521 0.0
C22 C 0.97855 0.04985 0.61819 0.0
C23 C 0.09192 0.12867 0.59264 0.0
C24 C 0.18964 0.9877 0.64154 0.0
C25 C 0.97864 0.16972 0.38716 0.0
C26 C 0.08828 1.03112 0.42211 0.0
C27 C 0.98045 0.94845 0.43336 0.0
C28 C 0.87665 0.09187 0.38975 0.0
O29 O 0.06229 0.96366 0.68 0.0
O30 O 0.11105 0.91116 0.60813 0.0
O31 O 0.97126 0.03832 0.56703 0.0
O32 O 1.02717 0.04903 0.63866 0.0
Co33 Co 0.63533 1.01389 0.92439 0.0
Co34 Co 0.58769 0.11171 0.97435 0.0
Co35 Co 0.52923 0.03676 1.01368 0.0
O36 O 0.56231 0.04483 0.94992 0.0
H37 H 0.53548 0.0457 0.92079 0.0
O38 O 0.49461 1.0286 0.07755 0.0
Co39 Co 0.41846 0.05963 0.09658 0.0
Co40 Co 0.47 0.96122 0.05203 0.0
H41 H 0.51986 1.02955 0.10814 0.0
O42 O 0.61221 0.14837 0.93156 0.0
O43 O 0.66175 0.08248 0.96502 0.0
O44 O 0.58323 0.15003 0.05028 0.0
O45 O 0.58749 0.07007 0.06546 0.0
O46 O 0.48176 0.11008 0.02057 0.0
O47 O 0.35043 0.08668 0.11973 0.0
O48 O 0.4203 0.042 0.15997 0.0
O49 O 0.40475 0.08411 0.03418 0.0
O50 O 0.47185 1.00269 0.96187 0.0
O51 O 0.47822 0.9223 0.97665 0.0
O52 O 0.39516 0.98916 0.05762 0.0
O53 O 0.44374 0.92488 0.09386 0.0
C54 C 0.67654 1.01187 0.85738 0.0
C55 C 0.62944 0.95352 1.00146 0.0
C56 C 0.59849 0.11849 0.07964 0.0
C57 C 0.65931 0.12395 0.94597 0.0
C58 C 0.3689 0.06651 0.15921 0.0
C59 C 0.42929 0.11839 0.02328 0.0
C60 C 0.46306 0.95351 0.94694 0.0
C61 C 0.39695 0.94883 0.07818 0.0
O62 O 0.70153 0.98858 0.8931 0.0
O63 O 0.62527 0.036 0.86405 0.0
O64 O 0.57702 0.96388 1.00602 0.0
O65 O 0.65518 0.98313 0.98385 0.0
Co66 Co 1.00302 0.43755 0.07234 0.0
Co67 Co 0.92404 0.46574 1.00658 0.0
Co68 Co 1.02193 0.53482 1.0119 0.0
O69 O 0.97677 0.50232 0.05047 0.0
H70 H 0.95742 0.53035 0.07934 0.0
O71 O 0.06663 0.5685 0.97323 0.0
Co72 Co 0.04238 0.64201 0.96759 0.0
Co73 Co 0.12021 0.59685 0.02149 0.0
H74 H 0.08272 0.54322 0.94087 0.0
O75 O 0.8653 0.44003 0.02954 0.0
O76 O 0.95333 0.39888 0.01876 0.0
O77 O 0.92965 0.45749 0.93154 0.0
O78 O 1.01388 0.47991 0.93903 0.0
O79 O 0.95331 0.58519 0.99805 0.0
O80 O 1.02179 0.70774 0.95822 0.0
O81 O 0.08092 0.63756 0.90854 0.0
O82 O 0.99649 0.65591 0.02588 0.0
O83 O 0.02906 0.58827 0.0847 0.0
O84 O 0.11509 0.60444 0.09723 0.0
O85 O 0.10579 0.6671 1.01546 0.0
O86 O 0.18401 0.60381 0.99642 0.0
C87 C 0.98069 0.40744 0.1314 0.0
C88 C 0.09892 0.43551 0.0187 0.0
C89 C 0.97435 0.45818 0.91103 0.0
C90 C 0.90299 0.39748 0.02755 0.0
C91 C 0.05368 0.68752 0.91738 0.0
C92 C 0.95161 0.63696 1.01402 0.0
C93 C 0.068 0.60739 0.11515 0.0
C94 C 0.15821 0.65364 1.00402 0.0
O95 O 1.02092 0.38001 0.09963 0.0
O96 O 0.95418 0.45357 0.12501 0.0
O97 O 0.09229 0.48704 0.02667 0.0
O98 O 0.05833 0.41214 0.01985 0.0
H99 H 0.92753 0.40937 0.1967 0.0
C100 C 0.96271 0.38581 0.17286 0.0
H101 H 1.02148 0.3134 0.15648 0.0
H102 H 0.94394 0.32624 0.39986 0.0
H103 H 0.97995 0.4113 0.43156 0.0
H104 H 1.01262 0.45204 0.3676 0.0
H105 H 1.00831 0.40881 0.27169 0.0
C106 C 0.98763 0.33826 0.18148 0.0
C107 C 0.96705 0.31508 0.22115 0.0
C108 C 0.97174 0.33995 0.27735 0.0
C109 C 0.95572 0.31489 0.31453 0.0
C110 C 0.95807 0.34214 0.37016 0.0
C111 C 0.97819 0.3912 0.38884 0.0
C112 C 0.99637 0.41424 0.35281 0.0
C113 C 0.99336 0.3891 0.29773 0.0
H114 H 1.01409 0.22955 0.36239 0.0
C115 C 0.97529 0.21604 0.36434 0.0
H116 H 0.89442 0.21429 0.33223 0.0
H117 H 0.94687 0.25982 0.11658 0.0
H118 H 0.91141 0.17465 0.08498 0.0
H119 H 0.8875 0.12916 0.14905 0.0
H120 H 0.89944 0.1683 0.2449 0.0
C121 C 0.93173 0.2315 0.33426 0.0
C122 C 0.9379 0.26344 0.2958 0.0
C123 C 0.93065 0.24002 0.2395 0.0
C124 C 0.9451 0.26591 0.20234 0.0
C125 C 0.93755 0.24145 0.14651 0.0
C126 C 0.91705 0.19262 0.12777 0.0
C127 C 0.90353 0.16706 0.16386 0.0
C128 C 0.91039 0.19015 0.21897 0.0
H129 H 0.79365 0.10829 0.35479 0.0
C130 C 0.83728 0.10417 0.34745 0.0
H131 H 0.89585 0.10278 0.29251 0.0
H132 H 0.74129 1.03355 0.08649 0.0
H133 H 0.82779 0.97165 0.0625 0.0
H134 H 0.90615 0.97219 0.12799 0.0
H135 H 0.89932 0.03583 0.21695 0.0
C136 C 0.85229 0.108 0.30036 0.0
C137 C 0.80972 0.11384 0.25696 0.0
C138 C 0.81425 0.07518 0.20556 0.0
C139 C 0.76832 0.07335 0.1685 0.0
C140 C 0.7744 0.0357 0.1167 0.0
C141 C 0.82392 1.00016 0.10228 0.0
C142 C 0.86804 1.00051 0.13913 0.0
C143 C 0.86345 0.03727 0.19028 0.0
H144 H 0.65237 0.17362 0.1307 0.0
C145 C 0.64002 0.13392 0.1231 0.0
H146 H 0.65702 0.05736 0.13886 0.0
H147 H 0.79575 0.20646 0.34127 0.0
H148 H 0.71085 0.27169 0.36395 0.0
H149 H 0.62662 0.26039 0.30647 0.0
H150 H 0.62736 0.1855 0.22513 0.0
C151 C 0.66711 0.09822 0.14875 0.0
C152 C 0.71735 0.10851 0.18369 0.0
C153 C 0.71461 0.15055 0.23295 0.0
C154 C 0.76186 0.15473 0.26828 0.0
C155 C 0.75993 0.19976 0.31482 0.0
C156 C 0.71167 0.23765 0.32802 0.0
C157 C 0.66434 0.23142 0.29552 0.0
C158 C 0.66547 0.18833 0.24862 0.0
H159 H 0.03613 0.86949 0.41056 0.0
C160 C 0.99606 0.89122 0.40141 0.0
H161 H 0.92945 0.89145 0.34511 0.0
H162 H 0.07125 0.75482 0.14594 0.0
H163 H 0.04654 0.84315 0.12891 0.0
H164 H 0.99905 0.92247 0.19707 0.0
H165 H 0.97546 0.91369 0.28232 0.0
C166 C 0.96807 0.86896 0.3564 0.0
C167 C 0.99543 0.82027 0.31526 0.0
C168 C 1.00968 0.82643 0.26581 0.0
C169 C 0.03843 0.78111 0.22713 0.0
C170 C 0.05065 0.78808 0.17743 0.0
C171 C 0.03649 0.83859 0.16695 0.0
C172 C 1.00971 0.8832 0.20528 0.0
C173 C 0.99631 0.87747 0.25412 0.0
H174 H 1.01267 0.64253 0.18317 0.0
C175 C 0.05307 0.64277 0.16925 0.0
H176 H 0.11995 0.68557 0.18071 0.0
H177 H 0.96989 0.79325 0.40358 0.0
H178 H 0.99795 0.70563 0.42221 0.0
H179 H 0.05336 0.62872 0.35771 0.0
H180 H 0.08041 0.63876 0.27385 0.0
C181 C 0.08138 0.68236 0.19614 0.0
C182 C 0.05381 0.72993 0.23831 0.0
C183 C 0.04002 0.7239 0.28791 0.0
C184 C 1.00987 0.76885 0.326 0.0
C185 C 0.9944 0.761 0.37409 0.0
C186 C 1.00994 0.71084 0.38513 0.0
C187 C 0.041 0.66748 0.34874 0.0
C188 C 0.056 0.6737 0.30064 0.0
H189 H 0.29166 0.09912 0.20273 0.0
C190 C 0.329 0.06871 0.19953 0.0
H191 H 0.36791 0.99837 0.22187 0.0
H192 H 0.20692 0.08779 0.42602 0.0
H193 H 0.29065 0.1174 0.46951 0.0
H194 H 0.37349 0.1055 0.41728 0.0
H195 H 0.37219 0.06511 0.32058 0.0
C196 C 0.33214 1.03057 0.22569 0.0
C197 C 0.2847 1.02988 0.25782 0.0
C198 C 0.28716 0.0497 0.31462 0.0
C199 C 0.2402 0.05364 0.34513 0.0
C200 C 0.24215 0.07985 0.40109 0.0
C201 C 0.2899 0.09794 0.42662 0.0
C202 C 0.33647 0.09144 0.3972 0.0
C203 C 0.33521 0.06807 0.34178 0.0
H204 H 0.17706 0.99986 0.40681 0.0
C205 C 0.13928 1.02008 0.39154 0.0
H206 H 0.10295 0.06023 0.33462 0.0
H207 H 0.26475 0.99196 0.14953 0.0
H208 H 0.18289 0.95771 0.10542 0.0
H209 H 0.10575 0.95431 0.15852 0.0
H210 H 0.10925 0.98709 0.25575 0.0
C211 C 0.14091 0.03961 0.34912 0.0
C212 C 0.19214 1.03343 0.31894 0.0
C213 C 0.19063 1.01172 0.26209 0.0
C214 C 0.2361 1.01153 0.2315 0.0
C215 C 0.23181 0.99254 0.17471 0.0
C216 C 0.18499 0.9727 0.14885 0.0
C217 C 0.14159 0.97081 0.17873 0.0
C218 C 0.14412 0.98999 0.23462 0.0
H219 H 0.13477 0.83692 0.66339 0.0
C220 C 0.10375 0.87208 0.68071 0.0
H221 H 0.04551 0.90885 0.74127 0.0
H222 H 0.07191 0.65374 0.75179 0.0
H223 H 0.04214 0.63032 0.6579 0.0
H224 H 0.03038 0.69825 0.60668 0.0
H225 H 0.04937 0.78952 0.64855 0.0
C226 C 0.07597 0.87324 0.7237 0.0
C227 C 0.08737 0.82967 0.75212 0.0
C228 C 0.07523 0.77649 0.72712 0.0
C229 C 0.08039 0.73767 0.75722 0.0
C230 C 0.0685 0.68483 0.73104 0.0
C231 C 0.05119 0.67087 0.67718 0.0
C232 C 0.04465 0.70909 0.64832 0.0
C233 C 0.05615 0.76137 0.67283 0.0
H234 H 1.02791 0.7611 0.89038 0.0
C235 C 0.05735 0.72314 0.88292 0.0
H236 H 0.1245 0.67532 0.83613 0.0
H237 H 0.1207 0.92501 0.81049 0.0
H238 H 0.14699 0.94984 0.90526 0.0
H239 H 0.14699 0.88608 0.95955 0.0
H240 H 0.12186 0.79708 0.9192 0.0
C241 C 0.09506 0.71321 0.84523 0.0
C242 C 0.09474 0.75278 0.81295 0.0
C243 C 0.10673 0.80611 0.83788 0.0
C244 C 0.10462 0.84379 0.80708 0.0
C245 C 0.11991 0.89549 0.83237 0.0
C246 C 0.13534 0.91022 0.88669 0.0
C247 C 0.13544 0.87432 0.9172 0.0
C248 C 0.12116 0.82303 0.89335 0.0
H249 H 0.40104 0.90416 0.90333 0.0
C250 C 0.42139 0.93813 0.90398 0.0
H251 H 0.42237 1.00451 0.87342 0.0
H252 H 0.2424 0.87011 0.70506 0.0
H253 H 0.31308 0.78859 0.68732 0.0
H254 H 0.40248 0.78884 0.73765 0.0
H255 H 0.42119 0.86958 0.80675 0.0
C256 C 0.40287 0.96962 0.87134 0.0
C257 C 0.34912 0.96644 0.84113 0.0
C258 C 0.34045 0.91933 0.79925 0.0
C259 C 0.29039 0.92008 0.76796 0.0
C260 C 0.28093 0.87199 0.72821 0.0
C261 C 0.3209 0.82503 0.71794 0.0
C262 C 0.37113 0.82512 0.74645 0.0
C263 C 0.38117 0.8717 0.78643 0.0
H264 H 0.27033 0.96051 0.67551 0.0
C265 C 0.22658 0.97266 0.68401 0.0
H266 H 0.16609 0.98919 0.74242 0.0
H267 H 0.34745 0.05927 0.92563 0.0
H268 H 0.27538 0.13873 0.94395 0.0
H269 H 0.191 0.14156 0.88641 0.0
H270 H 0.17843 0.0647 0.8094 0.0
C271 C 0.20945 0.97606 0.73282 0.0
C272 C 0.25124 0.96888 0.77596 0.0
C273 C 0.25744 1.014 0.82088 0.0
C274 C 0.30639 1.01266 0.85373 0.0
C275 C 0.31171 0.05837 0.89849 0.0
C276 C 0.27044 0.10423 0.90978 0.0
C277 C 0.22297 0.1058 0.87724 0.0
C278 C 0.21637 0.06142 0.83312 0.0
H279 H 0.94799 0.40707 0.8332 0.0
C280 C 0.98287 0.42478 0.85489 0.0
H281 H 0.06887 0.42306 0.85518 0.0
H282 H 0.0942 0.17252 0.72308 0.0
H283 H 0.13957 0.16819 0.80789 0.0
H284 H 0.14168 0.25163 0.88303 0.0
H285 H 0.09742 0.33996 0.87361 0.0
C286 C 0.03286 0.40831 0.83296 0.0
C287 C 0.04124 0.3606 0.78419 0.0
C288 C 0.06948 0.30959 0.78967 0.0
C289 C 0.06973 0.26163 0.74584 0.0
C290 C 0.09467 0.21069 0.75391 0.0
C291 C 0.1205 0.20747 0.80281 0.0
C292 C 0.12153 0.25443 0.8451 0.0
C293 C 0.09601 0.30492 0.83903 0.0
H294 H 0.12751 0.20109 0.63795 0.0
C295 C 0.08887 0.18564 0.62612 0.0
H296 H 1.00333 0.19984 0.64014 0.0
H297 H 0.98942 0.45279 0.7586 0.0
H298 H 0.94575 0.4578 0.67252 0.0
H299 H 0.94672 0.37477 0.59624 0.0
H300 H 0.99141 0.2862 0.60547 0.0
C301 C 0.04236 0.21473 0.65039 0.0
C302 C 0.04372 0.26514 0.69581 0.0
C303 C 1.01733 0.31645 0.68983 0.0
C304 C 1.01629 0.36427 0.73397 0.0
C305 C 0.99033 0.41511 0.72666 0.0
C306 C 0.96544 0.41857 0.67741 0.0
C307 C 0.96605 0.37182 0.63443 0.0
C308 C 0.99173 0.32125 0.64028 0.0
H309 H 0.68217 1.02603 0.77827 0.0
C310 C 0.70646 1.01462 0.81128 0.0
H311 H 0.78643 0.99666 0.84399 0.0
H312 H 0.92695 0.93079 0.63792 0.0
H313 H 0.94001 0.84588 0.66214 0.0
H314 H 0.88464 0.83594 0.73246 0.0
H315 H 0.81637 0.91108 0.77957 0.0
C316 C 0.762 1.00788 0.81095 0.0
C317 C 0.79242 1.01354 0.76567 0.0
C318 C 0.83105 0.96865 0.73714 0.0
C319 C 0.86225 0.97398 0.69568 0.0
C320 C 0.90161 0.92885 0.66918 0.0
C321 C 0.9096 0.87982 0.68269 0.0
C322 C 0.8785 0.87427 0.72236 0.0
C323 C 0.83953 0.91788 0.74924 0.0
H324 H 0.94063 0.07483 0.69723 0.0
C325 C 0.93352 0.05525 0.65477 0.0
H326 H 0.88428 1.00574 0.59879 0.0
H327 H 0.72855 0.11088 0.81694 0.0
H328 H 0.71709 0.19582 0.79348 0.0
H329 H 0.76704 0.20305 0.7181 0.0
H330 H 0.82936 0.1251 0.66601 0.0
C331 C 0.88965 1.02965 0.64019 0.0
C332 C 0.85471 1.02407 0.68221 0.0
C333 C 0.81634 0.06905 0.71073 0.0
C334 C 0.78582 0.06415 0.75298 0.0
C335 C 0.75061 0.11105 0.78277 0.0
C336 C 0.74409 0.16044 0.7701 0.0
C337 C 0.77241 0.16459 0.72783 0.0
C338 C 0.80817 0.11959 0.69837 0.0
H339 H 0.18897 0.42285 0.03765 0.0
C340 C 0.15529 0.40282 0.0165 0.0
H341 H 0.12941 0.32943 0.97281 0.0
H342 H 0.40586 0.26375 1.00658 0.0
H343 H 0.41537 0.33142 0.96198 0.0
H344 H 0.33321 0.38788 0.93355 0.0
H345 H 0.24102 0.37825 0.95124 0.0
C346 C 0.16381 0.34827 0.99401 0.0
C347 C 0.21444 0.31069 1.0053 0.0
C348 C 0.26799 0.31426 0.99152 0.0
C349 C 0.31542 0.27877 1.00445 0.0
C350 C 0.36841 0.28698 0.99473 0.0
C351 C 0.37449 0.32613 0.96958 0.0
C352 C 0.32823 0.35813 0.95383 0.0
C353 C 0.27553 0.35247 0.9646 0.0
H354 H 0.39589 0.16769 0.96742 0.0
C355 C 0.39482 0.16512 1.00826 0.0
H356 H 0.35792 0.19468 0.08319 0.0
H357 H 0.11863 0.29354 0.04015 0.0
H358 H 0.10823 0.22051 0.07663 0.0
H359 H 0.18854 0.15218 0.08841 0.0
H360 H 0.27978 0.15741 0.06496 0.0
C361 C 0.35745 0.19938 0.04289 0.0
C362 C 0.30895 0.23678 0.0273 0.0
C363 C 0.25498 0.23167 0.03863 0.0
C364 C 0.20815 0.26936 0.02906 0.0
C365 C 0.15549 0.26493 0.04421 0.0
C366 C 0.14882 0.22326 0.06561 0.0
C367 C 0.19403 0.18499 0.07247 0.0
C368 C 0.24643 0.18888 0.05924 0.0
H369 H 0.23568 0.68161 0.99961 0.0
C370 C 0.19181 0.69548 1.0069 0.0
H371 H 0.12937 0.76399 0.0337 0.0
H372 H 0.3125 0.88824 0.17834 0.0
H373 H 0.25411 0.88018 0.24554 0.0
H374 H 0.17506 0.83092 0.21861 0.0
H375 H 0.15496 0.78838 0.1246 0.0
C376 C 0.1725 0.74911 0.0237 0.0
C377 C 0.21249 0.78774 0.03839 0.0
C378 C 0.22237 0.81396 0.09349 0.0
C379 C 0.26724 0.84309 0.109 0.0
C380 C 0.27854 0.86601 0.16442 0.0
C381 C 0.24539 0.86168 0.20339 0.0
C382 C 0.20085 0.83405 0.18823 0.0
C383 C 0.18958 0.81003 0.13405 0.0
H384 H 0.30857 0.94606 0.0608 0.0
C385 C 0.34634 0.9262 0.07655 0.0
H386 H 0.38491 0.85671 0.1006 0.0
H387 H 0.20474 0.74236 0.92932 0.0
H388 H 0.26003 0.75416 0.86206 0.0
H389 H 0.33506 0.80868 0.8886 0.0
H390 H 0.3554 0.85091 0.98232 0.0
C391 C 0.34756 0.87772 0.08543 0.0
C392 C 0.29994 0.84854 0.06924 0.0
C393 C 0.28873 0.82424 1.01391 0.0
C394 C 0.24541 0.7931 0.99854 0.0
C395 C 0.23645 0.76734 0.94325 0.0
C396 C 0.26811 0.77354 0.90415 0.0
C397 C 0.31024 0.80427 0.91908 0.0
C398 C 0.32111 0.82879 0.97322 0.0
H399 H 0.70458 0.18251 0.9303 0.0
C400 C 0.70854 0.14857 0.94772 0.0
H401 H 0.75637 0.10623 0.99879 0.0
H402 H 0.87281 0.29221 0.92925 0.0
H403 H 0.88891 0.22417 0.84321 0.0
H404 H 0.86281 0.13339 0.82658 0.0
H405 H 0.81757 0.11117 0.89562 0.0
C406 C 0.75329 0.13791 0.97858 0.0
C407 C 0.79134 0.17821 0.99517 0.0
C408 C 0.8192 0.18977 0.95554 0.0
C409 C 0.83652 0.24105 0.96621 0.0
C410 C 0.86049 0.25318 0.92429 0.0
C411 C 0.86976 0.21453 0.87451 0.0
C412 C 0.85476 0.16349 0.86502 0.0
C413 C 0.82895 0.15128 0.90471 0.0
H414 H 0.92433 0.31286 0.03163 0.0
C415 C 0.89 0.34584 0.03133 0.0
H416 H 0.80329 0.36757 0.02576 0.0
H417 H 0.75465 0.16046 0.08435 0.0
H418 H 0.75172 0.22206 0.17487 0.0
H419 H 0.78436 0.31029 0.19455 0.0
H420 H 0.81963 0.33777 0.12354 0.0
C421 C 0.8384 0.33568 0.02685 0.0
C422 C 0.8282 0.27923 0.01771 0.0
C423 C 0.80824 0.26395 0.05971 0.0
C424 C 0.78988 0.21299 0.04845 0.0
C425 C 0.76886 0.19888 0.09069 0.0
C426 C 0.76714 0.23377 0.14284 0.0
C427 C 0.7855 0.2835 0.15392 0.0
C428 C 0.80552 0.29882 0.11289 0.0
H429 H 0.90573 0.69382 0.97135 0.0
C430 C 0.90253 0.67434 1.00252 0.0
H431 H 0.85864 0.67697 0.06959 0.0
H432 H 0.74926 0.92487 0.10898 0.0
H433 H 0.80873 0.92753 0.1887 0.0
H434 H 0.87374 0.84555 0.19684 0.0
H435 H 0.87882 0.76025 0.1261 0.0
C436 C 0.85951 0.69285 0.03536 0.0
C437 C 0.81804 0.7417 0.03129 0.0
C438 C 0.81559 0.79137 0.07314 0.0
C439 C 0.77946 0.83928 0.06775 0.0
C440 C 0.77719 0.8879 0.1105 0.0
C441 C 0.81084 0.88986 0.15654 0.0
C442 C 0.84732 0.84367 0.16118 0.0
C443 C 0.84975 0.79488 0.12021 0.0
H444 H 0.6376 0.87792 0.02684 0.0
C445 C 0.6607 0.90441 1.01523 0.0
H446 H 0.73984 0.9167 1.0006 0.0
H447 H 0.80595 0.65205 0.94725 0.0
H448 H 0.74864 0.65051 0.86653 0.0
H449 H 0.69087 0.73481 0.85462 0.0
H450 H 0.6893 0.82096 0.92366 0.0
C451 C 0.71594 0.89019 1.01111 0.0
C452 C 0.74685 0.83811 0.02006 0.0
C453 C 0.74808 0.78817 0.97887 0.0
C454 C 0.7829 0.73979 0.98492 0.0
C455 C 0.78177 0.69025 0.94393 0.0
C456 C 0.74879 0.68874 0.89754 0.0
C457 C 0.71617 0.73618 0.8909 0.0
C458 C 0.71562 0.7854 0.93092 0.0
loop_
_geom_bond_atom_site_label_1
_geom_bond_atom_site_label_2
_geom_bond_distance
_geom_bond_site_symmetry_2
_ccdc_geom_bond_type
Co0 O3 2.042 . S
Co0 O10 2.264 . S
Co0 O29 2.286 . S
Co0 O30 2.069 . S
Co0 O32 2.015 1_455 S
Co1 O3 2.122 1_545 S
Co1 O9 2.073 1_545 S
Co1 O10 2.327 1_545 S
Co1 O11 1.976 . S
Co2 O3 2.087 1_545 S
Co2 O5 2.087 1_455 S
Co2 O12 2.111 . S
Co2 O13 2.143 . S
Co2 O17 2.111 1_445 S
Co2 O31 2.143 1_445 S
O3 Co0 2.042 . S
O3 Co1 2.122 1_565 S
O3 Co2 2.087 1_565 S
O3 H4 0.980 . S
H4 O3 0.980 . S
O5 Co2 2.087 1_655 S
O5 Co6 2.042 . S
O5 Co7 2.122 1_545 S
O5 H8 0.980 . S
Co6 O5 2.042 . S
Co6 O14 2.286 . S
Co6 O15 2.069 . S
Co6 O16 2.015 1_655 S
Co6 O19 2.264 . S
Co7 O5 2.122 1_565 S
Co7 O18 1.976 . S
Co7 O19 2.327 1_565 S
Co7 O20 2.073 1_565 S
H8 O5 0.980 . S
O9 Co1 2.073 1_565 S
O9 C24 1.245 . S
O10 Co0 2.264 . S
O10 Co1 2.327 1_565 S
O10 C24 1.257 . S
O11 Co1 1.976 . S
O11 C23 1.251 . S
O12 Co2 2.111 . S
O12 C23 1.274 . S
O13 Co2 2.143 . S
O13 C26 1.246 1_545 S
O14 Co6 2.286 . S
O14 C25 1.259 . S
O15 Co6 2.069 . S
O15 C25 1.289 . S
O16 Co6 2.015 1_455 S
O16 C26 1.257 1_545 S
O17 Co2 2.111 1_665 S
O17 C27 1.274 . S
O18 Co7 1.976 . S
O18 C27 1.251 . S
O19 Co6 2.264 . S
O19 Co7 2.327 1_545 S
O19 C28 1.257 . S
O20 Co7 2.073 1_545 S
O20 C28 1.245 . S
C21 O29 1.259 . S
C21 O30 1.289 . S
C22 O31 1.246 1_545 S
C22 O32 1.257 1_545 S
C23 O11 1.251 . S
C23 O12 1.274 . S
C24 O9 1.245 . S
C24 O10 1.257 . S
C25 O14 1.259 . S
C25 O15 1.289 . S
C26 O13 1.246 1_565 S
C26 O16 1.257 1_565 S
C27 O17 1.274 . S
C27 O18 1.251 . S
C28 O19 1.257 . S
C28 O20 1.245 . S
O29 Co0 2.286 . S
O29 C21 1.259 . S
O30 Co0 2.069 . S
O30 C21 1.289 . S
O31 Co2 2.143 1_665 S
O31 C22 1.246 1_565 S
O32 Co0 2.015 1_655 S
O32 C22 1.257 1_565 S
Co33 O36 2.042 . S
Co33 O43 2.264 . S
Co33 O62 2.286 1_545 S
Co33 O63 2.069 . S
Co33 O65 2.015 1_545 S
Co34 O36 2.122 1_554 S
Co34 O42 2.073 . S
Co34 O43 2.327 1_554 S
Co34 O44 1.976 . S
Co35 O36 2.087 1_554 S
Co35 O38 2.087 1_545 S
Co35 O45 2.111 . S
Co35 O46 2.143 . S
Co35 O50 2.111 1_544 S
Co35 O64 2.143 1_544 S
O36 Co33 2.042 . S
O36 Co34 2.122 1_556 S
O36 Co35 2.087 1_556 S
O36 H37 0.980 . S
H37 O36 0.980 . S
O38 Co35 2.087 1_565 S
O38 Co39 2.042 . S
O38 Co40 2.122 1_554 S
O38 H41 0.980 . S
Co39 O38 2.042 . S
Co39 O47 2.286 1_565 S
Co39 O48 2.069 . S
Co39 O49 2.015 1_565 S
Co39 O52 2.264 . S
Co40 O38 2.122 1_556 S
Co40 O51 1.976 . S
Co40 O52 2.327 1_556 S
Co40 O53 2.073 . S
H41 O38 0.980 . S
O42 Co34 2.073 . S
O42 C57 1.245 1_554 S
O43 Co33 2.264 . S
O43 Co34 2.327 1_556 S
O43 C57 1.257 . S
O44 Co34 1.976 . S
O44 C56 1.251 . S
O45 Co35 2.111 . S
O45 C56 1.274 . S
O46 Co35 2.143 . S
O46 C59 1.246 . S
O47 Co39 2.286 1_545 S
O47 C58 1.259 1_545 S
O48 Co39 2.069 . S
O48 C58 1.289 . S
O49 Co39 2.015 1_545 S
O49 C59 1.257 . S
O50 Co35 2.111 1_566 S
O50 C60 1.274 . S
O51 Co40 1.976 . S
O51 C60 1.251 . S
O52 Co39 2.264 . S
O52 Co40 2.327 1_554 S
O52 C61 1.257 . S
O53 Co40 2.073 . S
O53 C61 1.245 1_556 S
C54 O62 1.259 1_545 S
C54 O63 1.289 . S
C55 O64 1.246 . S
C55 O65 1.257 . S
C56 O44 1.251 . S
C56 O45 1.274 . S
C57 O42 1.245 1_556 S
C57 O43 1.257 . S
C58 O47 1.259 1_565 S
C58 O48 1.289 . S
C59 O46 1.246 . S
C59 O49 1.257 . S
C60 O50 1.274 . S
C60 O51 1.251 . S
C61 O52 1.257 . S
C61 O53 1.245 1_554 S
O62 Co33 2.286 1_565 S
O62 C54 1.259 1_565 S
O63 Co33 2.069 . S
O63 C54 1.289 . S
O64 Co35 2.143 1_566 S
O64 C55 1.246 . S
O65 Co33 2.015 1_565 S
O65 C55 1.257 . S
Co66 O69 2.042 . S
Co66 O76 2.264 . S
Co66 O95 2.286 1_655 S
Co66 O96 2.069 . S
Co66 O98 2.015 1_655 S
Co67 O69 2.122 1_556 S
Co67 O75 2.073 1_556 S
Co67 O76 2.327 1_556 S
Co67 O77 1.976 . S
Co68 O69 2.087 1_455 S
Co68 O71 2.087 1_554 S
Co68 O78 2.111 1_454 S
Co68 O79 2.143 1_454 S
Co68 O83 2.111 . S
Co68 O97 2.143 . S
O69 Co66 2.042 . S
O69 Co67 2.122 1_554 S
O69 Co68 2.087 1_655 S
O69 H70 0.980 . S
H70 O69 0.980 . S
O71 Co68 2.087 1_556 S
O71 Co72 2.042 . S
O71 Co73 2.122 1_556 S
O71 H74 0.980 . S
Co72 O71 2.042 . S
Co72 O80 2.286 1_455 S
Co72 O81 2.069 . S
Co72 O82 2.015 1_455 S
Co72 O85 2.264 . S
Co73 O71 2.122 1_554 S
Co73 O84 1.976 . S
Co73 O85 2.327 1_554 S
Co73 O86 2.073 1_554 S
H74 O71 0.980 . S
O75 Co67 2.073 1_554 S
O75 C90 1.245 . S
O76 Co66 2.264 . S
O76 Co67 2.327 1_554 S
O76 C90 1.257 . S
O77 Co67 1.976 . S
O77 C89 1.251 . S
O78 Co68 2.111 1_656 S
O78 C89 1.274 . S
O79 Co68 2.143 1_656 S
O79 C92 1.248 1_556 S
O80 Co72 2.286 1_655 S
O80 C91 1.259 1_655 S
O81 Co72 2.069 . S
O81 C91 1.289 . S
O82 Co72 2.015 1_655 S
O82 C92 1.252 1_556 S
O83 Co68 2.111 . S
O83 C93 1.274 . S
O84 Co73 1.976 . S
O84 C93 1.251 . S
O85 Co72 2.264 . S
O85 Co73 2.327 1_556 S
O85 C94 1.257 . S
O86 Co73 2.073 1_556 S
O86 C94 1.245 . S
C87 O95 1.259 1_655 S
C87 O96 1.289 . S
C88 O97 1.247 1_556 S
C88 O98 1.254 1_556 S
C89 O77 1.251 . S
C89 O78 1.274 . S
C90 O75 1.245 . S
C90 O76 1.257 . S
C91 O80 1.259 1_455 S
C91 O81 1.289 . S
C92 O79 1.248 1_554 S
C92 O82 1.252 1_554 S
C93 O83 1.274 . S
C93 O84 1.251 . S
C94 O85 1.257 . S
C94 O86 1.245 . S
O95 Co66 2.286 1_455 S
O95 C87 1.259 1_455 S
O96 Co66 2.069 . S
O96 C87 1.289 . S
O97 Co68 2.143 . S
O97 C88 1.247 1_554 S
O98 Co66 2.015 1_455 S
O98 C88 1.254 1_554 S
H99 C100 0.951 . S
C100 H99 0.951 . S
C100 C106 1.265 . S
H101 C106 0.950 1_455 S
H102 C110 0.949 . S
H103 C111 0.950 1_455 S
H104 C112 0.951 . S
H105 C113 0.943 1_455 S
C106 C100 1.265 . S
C106 H101 0.950 1_655 S
C106 C107 1.478 . S
C107 C106 1.478 . S
C107 C108 1.397 . S
C107 C124 1.394 . S
C108 C107 1.397 . S
C108 C109 1.438 . S
C108 C113 1.439 . S
C109 C108 1.438 . S
C109 C110 1.428 . S
C109 C122 1.394 . S
C110 H102 0.949 . S
C110 C109 1.428 . S
C110 C111 1.345 . S
C111 H103 0.950 1_655 S
C111 C110 1.345 . S
C111 C112 1.424 1_655 S
C112 H104 0.951 . S
C112 C111 1.424 1_455 S
C112 C113 1.345 1_455 S
C113 H105 0.943 1_655 S
C113 C108 1.439 . S
C113 C112 1.345 1_655 S
H114 C115 0.951 . S
C115 H114 0.951 . S
C115 C121 1.265 . S
H116 C121 0.950 . S
H117 C125 0.949 . S
H118 C126 0.950 . S
H119 C127 0.951 . S
H120 C128 0.951 . S
C121 C115 1.265 . S
C121 H116 0.950 . S
C121 C122 1.478 . S
C122 C109 1.394 . S
C122 C121 1.478 . S
C122 C123 1.397 . S
C123 C122 1.397 . S
C123 C124 1.438 . S
C123 C128 1.429 . S
C124 C107 1.394 . S
C124 C123 1.438 . S
C124 C125 1.428 . S
C125 H117 0.949 . S
C125 C124 1.428 . S
C125 C126 1.345 . S
C126 H118 0.950 . S
C126 C125 1.345 . S
C126 C127 1.424 . S
C127 H119 0.951 . S
C127 C126 1.424 . S
C127 C128 1.347 . S
C128 H120 0.951 . S
C128 C123 1.429 . S
C128 C127 1.347 . S
H129 C130 0.951 . S
C130 H129 0.951 . S
C130 C136 1.265 . S
H131 C136 0.950 . S
H132 C140 0.949 . S
H133 C141 0.950 . S
H134 C142 0.951 . S
H135 C143 0.951 . S
C136 C130 1.265 . S
C136 H131 0.950 . S
C136 C137 1.478 . S
C137 C136 1.478 . S
C137 C138 1.397 1_545 S
C137 C154 1.394 . S
C138 C137 1.397 1_565 S
C138 C139 1.438 . S
C138 C143 1.429 . S
C139 C138 1.438 . S
C139 C140 1.428 . S
C139 C152 1.394 1_565 S
C140 H132 0.949 . S
C140 C139 1.428 . S
C140 C141 1.345 . S
C141 H133 0.950 . S
C141 C140 1.345 . S
C141 C142 1.424 . S
C142 H134 0.951 . S
C142 C141 1.424 . S
C142 C143 1.347 . S
C143 H135 0.951 . S
C143 C138 1.429 . S
C143 C142 1.347 . S
H144 C145 0.951 1_565 S
C145 H144 0.951 1_545 S
C145 C151 1.265 . S
H146 C151 0.950 . S
H147 C155 0.949 . S
H148 C156 0.950 . S
H149 C157 0.951 . S
H150 C158 0.951 . S
C151 C145 1.265 . S
C151 H146 0.950 . S
C151 C152 1.478 . S
C152 C139 1.394 1_545 S
C152 C151 1.478 . S
C152 C153 1.397 . S
C153 C152 1.397 . S
C153 C154 1.438 . S
C153 C158 1.429 . S
C154 C137 1.394 . S
C154 C153 1.438 . S
C154 C155 1.428 . S
C155 H147 0.949 . S
C155 C154 1.428 . S
C155 C156 1.345 . S
C156 H148 0.950 . S
C156 C155 1.345 . S
C156 C157 1.424 . S
C157 H149 0.951 . S
C157 C156 1.424 . S
C157 C158 1.347 . S
C158 H150 0.951 . S
C158 C153 1.429 . S
C158 C157 1.347 . S
H159 C160 0.951 . S
C160 H159 0.951 . S
C160 C166 1.265 1_455 S
H161 C166 0.950 . S
H162 C170 0.949 . S
H163 C171 0.949 . S
H164 C172 0.951 . S
H165 C173 0.951 . S
C166 C160 1.265 1_655 S
C166 H161 0.950 . S
C166 C167 1.478 . S
C167 C166 1.478 . S
C167 C168 1.397 . S
C167 C184 1.394 1_655 S
C168 C167 1.397 . S
C168 C169 1.438 1_655 S
C168 C173 1.429 . S
C169 C168 1.438 1_455 S
C169 C170 1.428 . S
C169 C182 1.394 . S
C170 H162 0.949 . S
C170 C169 1.428 . S
C170 C171 1.344 . S
C171 H163 0.949 . S
C171 C170 1.344 . S
C171 C172 1.423 1_455 S
C172 H164 0.951 . S
C172 C171 1.423 1_655 S
C172 C173 1.347 . S
C173 H165 0.951 . S
C173 C168 1.429 . S
C173 C172 1.347 . S
H174 C175 0.951 . S
C175 H174 0.951 . S
C175 C181 1.265 1_655 S
H176 C181 0.950 . S
H177 C185 0.949 . S
H178 C186 0.950 . S
H179 C187 0.951 . S
H180 C188 0.951 . S
C181 C175 1.265 1_455 S
C181 H176 0.950 . S
C181 C182 1.478 . S
C182 C169 1.394 . S
C182 C181 1.478 . S
C182 C183 1.397 . S
C183 C182 1.397 . S
C183 C184 1.438 . S
C183 C188 1.429 . S
C184 C167 1.394 1_455 S
C184 C183 1.438 . S
C184 C185 1.428 1_455 S
C185 H177 0.949 . S
C185 C184 1.428 1_655 S
C185 C186 1.345 1_655 S
C186 H178 0.950 . S
C186 C185 1.345 1_455 S
C186 C187 1.424 . S
C187 H179 0.951 . S
C187 C186 1.424 . S
C187 C188 1.347 . S
C188 H180 0.951 . S
C188 C183 1.429 . S
C188 C187 1.347 . S
H189 C190 0.951 1_545 S
C190 H189 0.951 1_565 S
C190 C196 1.265 . S
H191 C196 0.950 . S
H192 C200 0.948 . S
H193 C201 0.950 1_545 S
H194 C202 0.951 . S
H195 C203 0.951 . S
C196 C190 1.265 . S
C196 H191 0.950 . S
C196 C197 1.478 . S
C197 C196 1.478 . S
C197 C198 1.397 . S
C197 C214 1.394 . S
C198 C197 1.397 . S
C198 C199 1.438 . S
C198 C203 1.429 . S
C199 C198 1.438 . S
C199 C200 1.429 1_565 S
C199 C212 1.394 . S
C200 H192 0.948 . S
C200 C199 1.429 1_545 S
C200 C201 1.345 1_545 S
C201 H193 0.950 1_565 S
C201 C200 1.345 1_565 S
C201 C202 1.423 . S
C202 H194 0.951 . S
C202 C201 1.423 . S
C202 C203 1.347 . S
C203 H195 0.951 . S
C203 C198 1.429 . S
C203 C202 1.347 . S
H204 C205 0.951 . S
C205 H204 0.951 . S
C205 C211 1.247 1_565 S
H206 C211 0.967 . S
H207 C215 0.949 . S
H208 C216 0.950 . S
H209 C217 0.951 . S
H210 C218 0.951 . S
C211 C205 1.247 1_545 S
C211 H206 0.967 . S
C211 C212 1.481 1_545 S
C212 C199 1.394 . S
C212 C211 1.481 1_565 S
C212 C213 1.397 . S
C213 C212 1.397 . S
C213 C214 1.438 . S
C213 C218 1.429 . S
C214 C197 1.394 . S
C214 C213 1.438 . S
C214 C215 1.428 . S
C215 H207 0.949 . S
C215 C214 1.428 . S
C215 C216 1.345 . S
C216 H208 0.950 . S
C216 C215 1.345 . S
C216 C217 1.424 . S
C217 H209 0.951 . S
C217 C216 1.424 . S
C217 C218 1.347 . S
C218 H210 0.951 . S
C218 C213 1.429 . S
C218 C217 1.347 . S
H219 C220 0.951 . S
C220 H219 0.951 . S
C220 C226 1.265 . S
H221 C226 0.950 . S
H222 C230 0.949 . S
H223 C231 0.950 . S
H224 C232 0.951 . S
H225 C233 0.951 . S
C226 C220 1.265 . S
C226 H221 0.950 . S
C226 C227 1.478 . S
C227 C226 1.478 . S
C227 C228 1.397 . S
C227 C244 1.394 . S
C228 C227 1.397 . S
C228 C229 1.438 . S
C228 C233 1.429 1_455 S
C229 C228 1.438 . S
C229 C230 1.428 1_455 S
C229 C242 1.394 . S
C230 H222 0.949 . S
C230 C229 1.428 1_655 S
C230 C231 1.345 . S
C231 H223 0.950 . S
C231 C230 1.345 . S
C231 C232 1.424 . S
C232 H224 0.951 . S
C232 C231 1.424 . S
C232 C233 1.347 . S
C233 H225 0.951 . S
C233 C228 1.429 1_655 S
C233 C232 1.347 . S
H234 C235 0.951 . S
C235 H234 0.951 . S
C235 C241 1.265 . S
H236 C241 0.950 . S
H237 C245 0.949 . S
H238 C246 0.950 . S
H239 C247 0.951 . S
H240 C248 0.951 . S
C241 C235 1.265 . S
C241 H236 0.950 . S
C241 C242 1.478 . S
C242 C229 1.394 . S
C242 C241 1.478 . S
C242 C243 1.397 . S
C243 C242 1.397 . S
C243 C244 1.438 . S
C243 C248 1.429 . S
C244 C227 1.394 . S
C244 C243 1.438 . S
C244 C245 1.428 . S
C245 H237 0.949 . S
C245 C244 1.428 . S
C245 C246 1.345 . S
C246 H238 0.950 . S
C246 C245 1.345 . S
C246 C247 1.424 . S
C247 H239 0.951 . S
C247 C246 1.424 . S
C247 C248 1.347 . S
C248 H240 0.951 . S
C248 C243 1.429 . S
C248 C247 1.347 . S
H249 C250 0.951 1_545 S
C250 H249 0.951 1_565 S
C250 C256 1.265 . S
H251 C256 0.950 . S
H252 C260 0.949 . S
H253 C261 0.950 . S
H254 C262 0.951 . S
H255 C263 0.951 . S
C256 C250 1.265 . S
C256 H251 0.950 . S
C256 C257 1.478 . S
C257 C256 1.478 . S
C257 C258 1.397 . S
C257 C274 1.394 1_565 S
C258 C257 1.397 . S
C258 C259 1.438 . S
C258 C263 1.429 . S
C259 C258 1.438 . S
C259 C260 1.428 . S
C259 C272 1.394 . S
C260 H252 0.949 . S
C260 C259 1.428 . S
C260 C261 1.345 . S
C261 H253 0.950 . S
C261 C260 1.345 . S
C261 C262 1.424 . S
C262 H254 0.951 . S
C262 C261 1.424 . S
C262 C263 1.347 . S
C263 H255 0.951 . S
C263 C258 1.429 . S
C263 C262 1.347 . S
H264 C265 0.951 . S
C265 H264 0.951 . S
C265 C271 1.265 . S
H266 C271 0.950 . S
H267 C275 0.949 . S
H268 C276 0.950 . S
H269 C277 0.951 . S
H270 C278 0.951 . S
C271 C265 1.265 . S
C271 H266 0.950 . S
C271 C272 1.478 . S
C272 C259 1.394 . S
C272 C271 1.478 . S
C272 C273 1.397 1_565 S
C273 C272 1.397 1_545 S
C273 C274 1.438 . S
C273 C278 1.429 . S
C274 C257 1.394 1_545 S
C274 C273 1.438 . S
C274 C275 1.428 . S
C275 H267 0.949 . S
C275 C274 1.428 . S
C275 C276 1.345 . S
C276 H268 0.950 . S
C276 C275 1.345 . S
C276 C277 1.424 . S
C277 H269 0.951 . S
C277 C276 1.424 . S
C277 C278 1.347 . S
C278 H270 0.951 . S
C278 C273 1.429 . S
C278 C277 1.347 . S
H279 C280 0.951 1_655 S
C280 H279 0.951 1_455 S
C280 C286 1.265 . S
H281 C286 0.950 . S
H282 C290 0.949 . S
H283 C291 0.950 . S
H284 C292 0.951 . S
H285 C293 0.951 . S
C286 C280 1.265 . S
C286 H281 0.950 . S
C286 C287 1.478 . S
C287 C286 1.478 . S
C287 C288 1.397 . S
C287 C304 1.394 1_455 S
C288 C287 1.397 . S
C288 C289 1.438 . S
C288 C293 1.429 . S
C289 C288 1.438 . S
C289 C290 1.428 . S
C289 C302 1.394 1_455 S
C290 H282 0.949 . S
C290 C289 1.428 . S
C290 C291 1.345 . S
C291 H283 0.950 . S
C291 C290 1.345 . S
C291 C292 1.424 . S
C292 H284 0.951 . S
C292 C291 1.424 . S
C292 C293 1.347 . S
C293 H285 0.951 . S
C293 C288 1.429 . S
C293 C292 1.347 . S
H294 C295 0.951 1_455 S
C295 H294 0.951 1_655 S
C295 C301 1.265 . S
H296 C301 0.950 . S
H297 C305 0.949 . S
H298 C306 0.950 . S
H299 C307 0.951 . S
H300 C308 0.951 . S
C301 C295 1.265 . S
C301 H296 0.950 . S
C301 C302 1.478 . S
C302 C289 1.394 1_655 S
C302 C301 1.478 . S
C302 C303 1.397 . S
C303 C302 1.397 . S
C303 C304 1.438 . S
C303 C308 1.429 . S
C304 C287 1.394 1_655 S
C304 C303 1.438 . S
C304 C305 1.428 . S
C305 H297 0.949 . S
C305 C304 1.428 . S
C305 C306 1.345 . S
C306 H298 0.950 . S
C306 C305 1.345 . S
C306 C307 1.424 . S
C307 H299 0.951 . S
C307 C306 1.424 . S
C307 C308 1.347 . S
C308 H300 0.951 . S
C308 C303 1.429 . S
C308 C307 1.347 . S
H309 C310 0.951 . S
C310 H309 0.951 . S
C310 C316 1.265 . S
H311 C316 0.950 1_565 S
H312 C320 0.949 . S
H313 C321 0.950 . S
H314 C322 0.951 . S
H315 C323 0.951 . S
C316 C310 1.265 . S
C316 H311 0.950 1_545 S
C316 C317 1.478 . S
C317 C316 1.478 . S
C317 C318 1.397 1_545 S
C317 C334 1.394 . S
C318 C317 1.397 1_565 S
C318 C319 1.438 . S
C318 C323 1.429 . S
C319 C318 1.438 . S
C319 C320 1.428 . S
C319 C332 1.394 1_565 S
C320 H312 0.949 . S
C320 C319 1.428 . S
C320 C321 1.345 . S
C321 H313 0.950 . S
C321 C320 1.345 . S
C321 C322 1.424 . S
C322 H314 0.951 . S
C322 C321 1.424 . S
C322 C323 1.347 . S
C323 H315 0.951 . S
C323 C318 1.429 . S
C323 C322 1.347 . S
H324 C325 0.951 . S
C325 H324 0.951 . S
C325 C331 1.265 . S
H326 C331 0.950 . S
H327 C335 0.949 . S
H328 C336 0.950 . S
H329 C337 0.951 . S
H330 C338 0.951 . S
C331 C325 1.265 . S
C331 H326 0.950 . S
C331 C332 1.478 . S
C332 C319 1.394 1_545 S
C332 C331 1.478 . S
C332 C333 1.397 . S
C333 C332 1.397 . S
C333 C334 1.438 . S
C333 C338 1.429 . S
C334 C317 1.394 . S
C334 C333 1.438 . S
C334 C335 1.428 . S
C335 H327 0.949 . S
C335 C334 1.428 . S
C335 C336 1.345 . S
C336 H328 0.950 . S
C336 C335 1.345 . S
C336 C337 1.424 . S
C337 H329 0.951 . S
C337 C336 1.424 . S
C337 C338 1.347 . S
C338 H330 0.951 . S
C338 C333 1.429 . S
C338 C337 1.347 . S
H339 C340 0.951 1_554 S
C340 H339 0.951 1_556 S
C340 C346 1.265 . S
H341 C346 0.950 . S
H342 C350 0.949 . S
H343 C351 0.950 . S
H344 C352 0.951 . S
H345 C353 0.951 . S
C346 C340 1.265 . S
C346 H341 0.950 . S
C346 C347 1.478 . S
C347 C346 1.478 . S
C347 C348 1.397 . S
C347 C364 1.394 1_556 S
C348 C347 1.397 . S
C348 C349 1.438 . S
C348 C353 1.429 . S
C349 C348 1.438 . S
C349 C350 1.428 . S
C349 C362 1.394 1_556 S
C350 H342 0.949 . S
C350 C349 1.428 . S
C350 C351 1.345 . S
C351 H343 0.950 . S
C351 C350 1.345 . S
C351 C352 1.424 . S
C352 H344 0.951 . S
C352 C351 1.424 . S
C352 C353 1.347 . S
C353 H345 0.951 . S
C353 C348 1.429 . S
C353 C352 1.347 . S
H354 C355 0.951 1_556 S
C355 H354 0.951 1_554 S
C355 C361 1.265 . S
H356 C361 0.950 . S
H357 C365 0.949 . S
H358 C366 0.950 . S
H359 C367 0.951 . S
H360 C368 0.951 . S
C361 C355 1.265 . S
C361 H356 0.950 . S
C361 C362 1.478 . S
C362 C349 1.394 1_554 S
C362 C361 1.478 . S
C362 C363 1.397 . S
C363 C362 1.397 . S
C363 C364 1.438 . S
C363 C368 1.429 . S
C364 C347 1.394 1_554 S
C364 C363 1.438 . S
C364 C365 1.428 . S
C365 H357 0.949 . S
C365 C364 1.428 . S
C365 C366 1.345 . S
C366 H358 0.950 . S
C366 C365 1.345 . S
C366 C367 1.424 . S
C367 H359 0.951 . S
C367 C366 1.424 . S
C367 C368 1.347 . S
C368 H360 0.951 . S
C368 C363 1.429 . S
C368 C367 1.347 . S
H369 C370 0.951 . S
C370 H369 0.951 . S
C370 C376 1.265 . S
H371 C376 0.950 . S
H372 C380 0.949 . S
H373 C381 0.950 . S
H374 C382 0.951 . S
H375 C383 0.951 . S
C376 C370 1.265 . S
C376 H371 0.950 . S
C376 C377 1.478 . S
C377 C376 1.478 . S
C377 C378 1.397 1_556 S
C377 C394 1.394 . S
C378 C377 1.397 1_554 S
C378 C379 1.438 . S
C378 C383 1.429 . S
C379 C378 1.438 . S
C379 C380 1.428 . S
C379 C392 1.394 . S
C380 H372 0.949 . S
C380 C379 1.428 . S
C380 C381 1.345 . S
C381 H373 0.950 . S
C381 C380 1.345 . S
C381 C382 1.424 . S
C382 H374 0.951 . S
C382 C381 1.424 . S
C382 C383 1.347 . S
C383 H375 0.951 . S
C383 C378 1.429 . S
C383 C382 1.347 . S
H384 C385 0.951 . S
C385 H384 0.951 . S
C385 C391 1.265 . S
H386 C391 0.950 . S
H387 C395 0.949 . S
H388 C396 0.950 . S
H389 C397 0.951 . S
H390 C398 0.951 . S
C391 C385 1.265 . S
C391 H386 0.950 . S
C391 C392 1.478 . S
C392 C379 1.394 . S
C392 C391 1.478 . S
C392 C393 1.397 1_554 S
C393 C392 1.397 1_556 S
C393 C394 1.438 . S
C393 C398 1.429 . S
C394 C377 1.394 . S
C394 C393 1.438 . S
C394 C395 1.428 . S
C395 H387 0.949 . S
C395 C394 1.428 . S
C395 C396 1.345 . S
C396 H388 0.950 . S
C396 C395 1.345 . S
C396 C397 1.424 . S
C397 H389 0.951 . S
C397 C396 1.424 . S
C397 C398 1.347 . S
C398 H390 0.951 . S
C398 C393 1.429 . S
C398 C397 1.347 . S
H399 C400 0.951 . S
C400 H399 0.951 . S
C400 C406 1.265 . S
H401 C406 0.950 . S
H402 C410 0.949 . S
H403 C411 0.950 . S
H404 C412 0.951 . S
H405 C413 0.951 . S
C406 C400 1.265 . S
C406 H401 0.950 . S
C406 C407 1.478 . S
C407 C406 1.478 . S
C407 C408 1.397 . S
C407 C424 1.394 1_556 S
C408 C407 1.397 . S
C408 C409 1.438 . S
C408 C413 1.429 . S
C409 C408 1.438 . S
C409 C410 1.428 . S
C409 C422 1.394 1_556 S
C410 H402 0.949 . S
C410 C409 1.428 . S
C410 C411 1.345 . S
C411 H403 0.950 . S
C411 C410 1.345 . S
C411 C412 1.424 . S
C412 H404 0.951 . S
C412 C411 1.424 . S
C412 C413 1.347 . S
C413 H405 0.951 . S
C413 C408 1.429 . S
C413 C412 1.347 . S
H414 C415 0.951 . S
C415 H414 0.951 . S
C415 C421 1.265 . S
H416 C421 0.950 . S
H417 C425 0.949 . S
H418 C426 0.950 . S
H419 C427 0.951 . S
H420 C428 0.951 . S
C421 C415 1.265 . S
C421 H416 0.950 . S
C421 C422 1.478 . S
C422 C409 1.394 1_554 S
C422 C421 1.478 . S
C422 C423 1.397 . S
C423 C422 1.397 . S
C423 C424 1.438 . S
C423 C428 1.429 . S
C424 C407 1.394 1_554 S
C424 C423 1.438 . S
C424 C425 1.428 . S
C425 H417 0.949 . S
C425 C424 1.428 . S
C425 C426 1.345 . S
C426 H418 0.950 . S
C426 C425 1.345 . S
C426 C427 1.424 . S
C427 H419 0.951 . S
C427 C426 1.424 . S
C427 C428 1.347 . S
C428 H420 0.951 . S
C428 C423 1.429 . S
C428 C427 1.347 . S
H429 C430 0.951 . S
C430 H429 0.951 . S
C430 C436 1.265 . S
H431 C436 0.950 . S
H432 C440 0.949 . S
H433 C441 0.950 . S
H434 C442 0.951 . S
H435 C443 0.951 . S
C436 C430 1.265 . S
C436 H431 0.950 . S
C436 C437 1.478 . S
C437 C436 1.478 . S
C437 C438 1.397 . S
C437 C454 1.394 1_554 S
C438 C437 1.397 . S
C438 C439 1.438 . S
C438 C443 1.429 . S
C439 C438 1.438 . S
C439 C440 1.428 . S
C439 C452 1.394 1_554 S
C440 H432 0.949 . S
C440 C439 1.428 . S
C440 C441 1.345 . S
C441 H433 0.950 . S
C441 C440 1.345 . S
C441 C442 1.424 . S
C442 H434 0.951 . S
C442 C441 1.424 . S
C442 C443 1.347 . S
C443 H435 0.951 . S
C443 C438 1.429 . S
C443 C442 1.347 . S
H444 C445 0.951 . S
C445 H444 0.951 . S
C445 C451 1.265 . S
H446 C451 0.950 . S
H447 C455 0.949 . S
H448 C456 0.950 . S
H449 C457 0.951 . S
H450 C458 0.951 . S
C451 C445 1.265 . S
C451 H446 0.950 . S
C451 C452 1.478 . S
C452 C439 1.394 1_556 S
C452 C451 1.478 . S
C452 C453 1.397 . S
C453 C452 1.397 . S
C453 C454 1.438 . S
C453 C458 1.429 . S
C454 C437 1.394 1_556 S
C454 C453 1.438 . S
C454 C455 1.428 . S
C455 H447 0.949 . S
C455 C454 1.428 . S
C455 C456 1.345 . S
C456 H448 0.950 . S
C456 C455 1.345 . S
C456 C457 1.424 . S
C457 H449 0.951 . S
C457 C456 1.424 . S
C457 C458 1.347 . S
C458 H450 0.951 . S
C458 C453 1.429 . S
C458 C457 1.347 . S
C100 C87 1.767 . S
C115 C25 1.666 . S
C130 C28 1.144 . S
C145 C56 1.124 . S
C160 C27 1.190 1_455 S
C175 C93 1.179 1_655 S
C190 C58 1.950 . S
C205 C26 1.887 . S
C220 C21 1.745 . S
C235 C91 1.728 . S
C250 C60 1.124 . S
C265 C24 1.143 . S
C280 C89 1.014 1_455 S
C295 C23 1.024 1_655 S
C310 C54 1.978 . S
C325 C22 1.801 . S
C340 C88 2.065 . S
C355 C59 2.118 . S
C370 C94 1.091 . S
C385 C61 1.117 . S
C400 C57 1.070 . S
C415 C90 1.086 . S
C430 C92 2.030 . S
C445 C55 2.156 . S
