# Generated by pormake.
# Topology wjo, (5)-cn, num edge types: 1
# Building blocks:
#     Node 0, Type 0, BuildingBlock: XOMCOT_clean_sbu_1, # of connection points: 5
#     Node 1, Type 0, BuildingBlock: XOMCOT_clean_sbu_1, # of connection points: 5
#     Node 2, Type 0, BuildingBlock: XOMCOT_clean_sbu_1, # of connection points: 5
#     Node 3, Type 0, BuildingBlock: XOMCOT_clean_sbu_1, # of connection points: 5
#     Node 4, Type 0, BuildingBlock: XOMCOT_clean_sbu_1, # of connection points: 5
#     Node 5, Type 0, BuildingBlock: XOMCOT_clean_sbu_1, # of connection points: 5
#     Node 6, Type 0, BuildingBlock: XOMCOT_clean_sbu_1, # of connection points: 5
#     Node 7, Type 0, BuildingBlock: XOMCOT_clean_sbu_1, # of connection points: 5
#     Node 8, Type 0, BuildingBlock: XOMCOT_clean_sbu_1, # of connection points: 5
#     Node 9, Type 0, BuildingBlock: XOMCOT_clean_sbu_1, # of connection points: 5
#     Node 10, Type 0, BuildingBlock: XOMCOT_clean_sbu_1, # of connection points: 5
#     Node 11, Type 0, BuildingBlock: XOMCOT_clean_sbu_1, # of connection points: 5
#     Edge 12, Type (0, 0), BuildingBlock: MIFKUJ_clean_linker_0, # of connection points: 2
#     Edge 13, Type (0, 0), BuildingBlock: MIFKUJ_clean_linker_0, # of connection points: 2
#     Edge 14, Type (0, 0), BuildingBlock: MIFKUJ_clean_linker_0, # of connection points: 2
#     Edge 15, Type (0, 0), BuildingBlock: MIFKUJ_clean_linker_0, # of connection points: 2
#     Edge 16, Type (0, 0), BuildingBlock: MIFKUJ_clean_linker_0, # of connection points: 2
#     Edge 17, Type (0, 0), BuildingBlock: MIFKUJ_clean_linker_0, # of connection points: 2
#     Edge 18, Type (0, 0), BuildingBlock: MIFKUJ_clean_linker_0, # of connection points: 2
#     Edge 19, Type (0, 0), BuildingBlock: MIFKUJ_clean_linker_0, # of connection points: 2
#     Edge 20, Type (0, 0), BuildingBlock: MIFKUJ_clean_linker_0, # of connection points: 2
#     Edge 21, Type (0, 0), BuildingBlock: MIFKUJ_clean_linker_0, # of connection points: 2
#     Edge 22, Type (0, 0), BuildingBlock: MIFKUJ_clean_linker_0, # of connection points: 2
#     Edge 23, Type (0, 0), BuildingBlock: MIFKUJ_clean_linker_0, # of connection points: 2
#     Edge 24, Type (0, 0), BuildingBlock: MIFKUJ_clean_linker_0, # of connection points: 2
#     Edge 25, Type (0, 0), BuildingBlock: MIFKUJ_clean_linker_0, # of connection points: 2
#     Edge 26, Type (0, 0), BuildingBlock: MIFKUJ_clean_linker_0, # of connection points: 2
#     Edge 27, Type (0, 0), BuildingBlock: MIFKUJ_clean_linker_0, # of connection points: 2
#     Edge 28, Type (0, 0), BuildingBlock: MIFKUJ_clean_linker_0, # of connection points: 2
#     Edge 29, Type (0, 0), BuildingBlock: MIFKUJ_clean_linker_0, # of connection points: 2
#     Edge 30, Type (0, 0), BuildingBlock: MIFKUJ_clean_linker_0, # of connection points: 2
#     Edge 31, Type (0, 0), BuildingBlock: MIFKUJ_clean_linker_0, # of connection points: 2
#     Edge 32, Type (0, 0), BuildingBlock: MIFKUJ_clean_linker_0, # of connection points: 2
#     Edge 33, Type (0, 0), BuildingBlock: MIFKUJ_clean_linker_0, # of connection points: 2
#     Edge 34, Type (0, 0), BuildingBlock: MIFKUJ_clean_linker_0, # of connection points: 2
#     Edge 35, Type (0, 0), BuildingBlock: MIFKUJ_clean_linker_0, # of connection points: 2
#     Edge 36, Type (0, 0), BuildingBlock: MIFKUJ_clean_linker_0, # of connection points: 2
#     Edge 37, Type (0, 0), BuildingBlock: MIFKUJ_clean_linker_0, # of connection points: 2
#     Edge 38, Type (0, 0), BuildingBlock: MIFKUJ_clean_linker_0, # of connection points: 2
#     Edge 39, Type (0, 0), BuildingBlock: MIFKUJ_clean_linker_0, # of connection points: 2
#     Edge 40, Type (0, 0), BuildingBlock: MIFKUJ_clean_linker_0, # of connection points: 2
#     Edge 41, Type (0, 0), BuildingBlock: MIFKUJ_clean_linker_0, # of connection points: 2
# Relax obj value: 0.387
# Max RMSD: 0.202
# Mean RMSD: 0.199
data_MOF--net-wjo--node1-XOMCOT_clean_sbu_1--edge1-MIFKUJ_clean_linker_0
_symmetry_space_group_name_H-M    P1
_symmetry_Int_Tables_number       1
_symmetry_cell_setting            triclinic
loop_
_symmetry_equiv_pos_as_xyz
'x, y, z'
_cell_length_a     60.04823
_cell_length_b     59.94157
_cell_length_c     35.5717
_cell_angle_alpha  90.001869
_cell_angle_beta   90.01233
_cell_angle_gamma 120.05975
loop_
_atom_site_label
_atom_site_type_symbol
_atom_site_fract_x
_atom_site_fract_y
_atom_site_fract_z
_atom_type_partial_charge
C0 C 0.23988 0.3519 0.8962 0.0
C1 C 0.2441 0.33415 0.87796 0.0
N2 N 0.24585 0.31869 0.90391 0.0
N3 N 0.23909 0.34779 0.93349 0.0
C4 C 0.24252 0.32729 0.93741 0.0
H5 H 0.23823 0.36734 0.88328 0.0
Co6 Co 0.23547 0.36861 0.96854 0.0
C7 C 0.26739 0.36752 0.03155 0.0
O8 O 0.28045 0.39286 0.03211 0.0
N9 N 0.23013 0.38929 0.00304 0.0
C10 C 0.2141 0.4131 0.02562 0.0
C11 C 0.21949 0.40377 0.99362 0.0
C12 C 0.22969 0.38909 0.04106 0.0
N13 N 0.22081 0.40395 0.05538 0.0
O14 O 0.20156 0.34177 0.9796 0.0
H15 H 0.2147 0.40632 0.96524 0.0
H16 H 0.23358 0.37667 0.05837 0.0
O17 O 0.24884 0.35573 0.00825 0.0
C18 C 0.18379 0.33964 0.95786 0.0
O19 O 0.19017 0.35409 0.92755 0.0
N20 N 0.26908 0.39576 0.95618 0.0
C21 C 0.31817 0.43658 0.93877 0.0
C22 C 0.31424 0.41188 0.94602 0.0
C23 C 0.28954 0.39169 0.95414 0.0
C24 C 0.27228 0.41915 0.94616 0.0
C25 C 0.29664 0.43991 0.93818 0.0
H26 H 0.28703 0.37285 0.9597 0.0
H27 H 0.25603 0.42201 0.94408 0.0
H28 H 0.24295 0.31911 0.96431 0.0
H29 H 0.24666 0.33342 0.84797 0.0
H30 H 0.20533 0.42505 0.02692 0.0
H31 H 0.33008 0.4081 0.94544 0.0
H32 H 0.29853 0.4585 0.93225 0.0
C33 C 0.88305 0.2399 0.06461 0.0
C34 C 0.90378 0.24227 0.04479 0.0
N35 N 0.92425 0.25183 0.06805 0.0
N36 N 0.89039 0.24797 0.10013 0.0
C37 C 0.91556 0.25501 0.10152 0.0
H38 H 0.86384 0.23297 0.05382 0.0
Co39 Co 0.86851 0.24886 0.13582 0.0
C40 C 0.90158 0.27928 0.19911 0.0
O41 O 0.88884 0.29181 0.20094 0.0
N42 N 0.84532 0.24857 0.17198 0.0
C43 C 0.81315 0.2483 0.20349 0.0
C44 C 0.82558 0.25325 0.1694 0.0
C45 C 0.84375 0.23993 0.20755 0.0
N46 N 0.82472 0.23998 0.22762 0.0
O47 O 0.85873 0.21466 0.15064 0.0
H48 H 0.81969 0.25906 0.14442 0.0
H49 H 0.85664 0.23382 0.21848 0.0
O50 O 0.89584 0.26198 0.17393 0.0
C51 C 0.83746 0.19679 0.1378 0.0
O52 O 0.82469 0.20282 0.11376 0.0
N53 N 0.87762 0.28229 0.11906 0.0
C54 C 0.88608 0.33033 0.09545 0.0
C55 C 0.90594 0.32788 0.11208 0.0
C56 C 0.90154 0.30355 0.12262 0.0
C57 C 0.85936 0.28387 0.09843 0.0
C58 C 0.8629 0.30774 0.08711 0.0
H59 H 0.91734 0.30205 0.13422 0.0
H60 H 0.84175 0.26648 0.09111 0.0
H61 H 0.9275 0.26302 0.12619 0.0
H62 H 0.90374 0.2373 0.01553 0.0
H63 H 0.79649 0.25013 0.20955 0.0
H64 H 0.92452 0.34459 0.11795 0.0
H65 H 0.84756 0.30847 0.07218 0.0
C66 C 0.66758 0.89353 0.23983 0.0
C67 C 0.68754 0.91647 0.22684 0.0
N68 N 0.69168 0.93507 0.25178 0.0
N69 N 0.6593 0.89761 0.27291 0.0
C70 C 0.67428 0.92317 0.27943 0.0
H71 H 0.65967 0.87496 0.22621 0.0
Co72 Co 0.63365 0.87163 0.30143 0.0
C73 C 0.63368 0.89555 0.37426 0.0
O74 O 0.60839 0.88261 0.37478 0.0
N75 N 0.60793 0.8445 0.3304 0.0
C76 C 0.57253 0.81244 0.35612 0.0
C77 C 0.58238 0.82862 0.32558 0.0
C78 C 0.61308 0.83683 0.3634 0.0
N79 N 0.59193 0.81777 0.38017 0.0
O80 O 0.65641 0.85907 0.31314 0.0
H81 H 0.5712 0.82859 0.30188 0.0
H82 H 0.63222 0.84574 0.37518 0.0
O83 O 0.64589 0.89333 0.34638 0.0
C84 C 0.65324 0.8391 0.29591 0.0
O85 O 0.63565 0.82912 0.26941 0.0
N86 N 0.61117 0.88375 0.28772 0.0
C87 C 0.57278 0.8947 0.26799 0.0
C88 C 0.59285 0.91121 0.29191 0.0
C89 C 0.61234 0.90582 0.30053 0.0
C90 C 0.5937 0.86944 0.2607 0.0
C91 C 0.57398 0.87428 0.25084 0.0
H92 H 0.62796 0.91926 0.31804 0.0
H93 H 0.59428 0.85328 0.24824 0.0
H94 H 0.67286 0.93286 0.3042 0.0
H95 H 0.69798 0.91934 0.20081 0.0
H96 H 0.55247 0.79838 0.36047 0.0
H97 H 0.59328 0.92795 0.30425 0.0
H98 H 0.55917 0.86143 0.23144 0.0
C99 C 0.76355 0.64659 0.39628 0.0
C100 C 0.76007 0.66505 0.37865 0.0
N101 N 0.75381 0.67725 0.40486 0.0
N102 N 0.7595 0.6471 0.43339 0.0
C103 C 0.75373 0.66602 0.43782 0.0
H104 H 0.76813 0.63319 0.38286 0.0
Co105 Co 0.7605 0.62456 0.46804 0.0
C106 C 0.73292 0.62769 0.53508 0.0
O107 O 0.72086 0.60245 0.53821 0.0
N108 N 0.76244 0.60195 0.50332 0.0
C109 C 0.75973 0.56926 0.53685 0.0
C110 C 0.75538 0.57669 0.50228 0.0
C111 C 0.77223 0.60953 0.53826 0.0
N112 N 0.77001 0.58996 0.55962 0.0
O113 O 0.79516 0.6494 0.48018 0.0
H114 H 0.7472 0.56396 0.47858 0.0
H115 H 0.78011 0.6291 0.54827 0.0
O116 O 0.74865 0.63875 0.50794 0.0
C117 C 0.81258 0.64789 0.46198 0.0
O118 O 0.80567 0.6308 0.43485 0.0
N119 N 0.72666 0.59986 0.4539 0.0
C120 C 0.6784 0.55966 0.43325 0.0
C121 C 0.68088 0.58191 0.45013 0.0
C122 C 0.70534 0.6021 0.45965 0.0
C123 C 0.72475 0.58003 0.43275 0.0
C124 C 0.70074 0.55923 0.42327 0.0
H125 H 0.70696 0.61931 0.47196 0.0
H126 H 0.74202 0.58003 0.42417 0.0
H127 H 0.74931 0.67133 0.46462 0.0
H128 H 0.7612 0.66854 0.34868 0.0
H129 H 0.75467 0.54988 0.54495 0.0
H130 H 0.66407 0.58336 0.45697 0.0
H131 H 0.69963 0.54287 0.40856 0.0
C132 C 0.11612 0.75712 0.556 0.0
C133 C 0.09431 0.75258 0.53692 0.0
N134 N 0.07544 0.74676 0.5622 0.0
N135 N 0.11103 0.75412 0.59308 0.0
C136 C 0.08614 0.7479 0.59607 0.0
H137 H 0.13453 0.7622 0.54372 0.0
Co138 Co 0.13489 0.75798 0.62912 0.0
C139 C 0.10594 0.7375 0.70024 0.0
O140 O 0.12034 0.7276 0.7096 0.0
N141 N 0.16009 0.76298 0.66545 0.0
C142 C 0.19133 0.76328 0.69952 0.0
C143 C 0.17758 0.7551 0.66659 0.0
C144 C 0.16455 0.77691 0.69739 0.0
N145 N 0.18295 0.77685 0.71916 0.0
O146 O 0.14473 0.79324 0.63447 0.0
H147 H 0.18041 0.74391 0.64546 0.0
H148 H 0.15381 0.78631 0.70494 0.0
O149 O 0.10931 0.74924 0.66893 0.0
C150 C 0.16522 0.80917 0.61745 0.0
O151 O 0.17676 0.8002 0.59596 0.0
N152 N 0.1257 0.72335 0.62154 0.0
C153 C 0.11785 0.67418 0.60805 0.0
C154 C 0.09892 0.67738 0.62618 0.0
C155 C 0.10304 0.70222 0.63214 0.0
C156 C 0.14267 0.72033 0.59982 0.0
C157 C 0.13958 0.69596 0.5937 0.0
H158 H 0.08793 0.70425 0.64512 0.0
H159 H 0.15927 0.73714 0.5883 0.0
H160 H 0.07585 0.74375 0.6224 0.0
H161 H 0.09259 0.75368 0.50678 0.0
H162 H 0.20571 0.75865 0.70872 0.0
H163 H 0.08143 0.66091 0.63648 0.0
H164 H 0.15411 0.69417 0.57814 0.0
C165 C 0.34541 0.11328 0.72636 0.0
C166 C 0.32669 0.0915 0.7088 0.0
N167 N 0.31816 0.07171 0.73319 0.0
N168 N 0.34854 0.10732 0.76173 0.0
C169 C 0.33177 0.08179 0.76508 0.0
H170 H 0.35633 0.13224 0.71399 0.0
Co171 Co 0.37198 0.13128 0.79499 0.0
C172 C 0.36894 0.10289 0.8648 0.0
O173 O 0.39413 0.11627 0.86798 0.0
N174 N 0.3956 0.15655 0.8284 0.0
C175 C 0.42948 0.18697 0.85949 0.0
C176 C 0.42123 0.17321 0.82645 0.0
C177 C 0.38873 0.1615 0.86224 0.0
N178 N 0.40892 0.17944 0.88195 0.0
O179 O 0.34787 0.1419 0.80759 0.0
H180 H 0.43356 0.17537 0.8031 0.0
H181 H 0.36935 0.15089 0.87324 0.0
O182 O 0.35793 0.10638 0.83643 0.0
C183 C 0.34692 0.15975 0.78968 0.0
O184 O 0.36173 0.17002 0.76016 0.0
N185 N 0.39579 0.12095 0.78097 0.0
C186 C 0.43529 0.11151 0.76203 0.0
C187 C 0.41406 0.09338 0.78269 0.0
C188 C 0.39404 0.09807 0.79079 0.0
C189 C 0.41463 0.13713 0.75685 0.0
C190 C 0.43492 0.13304 0.74748 0.0
H191 H 0.37744 0.08336 0.8054 0.0
H192 H 0.41454 0.15401 0.74629 0.0
H193 H 0.32955 0.07076 0.79028 0.0
H194 H 0.32039 0.09018 0.67996 0.0
H195 H 0.4491 0.20114 0.86662 0.0
H196 H 0.41308 0.07585 0.79277 0.0
H197 H 0.45066 0.14714 0.73048 0.0
C198 C 0.64512 0.76056 0.93087 0.0
C199 C 0.66287 0.75613 0.94882 0.0
N200 N 0.67344 0.74771 0.92311 0.0
N201 N 0.64442 0.75477 0.89416 0.0
C202 C 0.66203 0.74717 0.8902 0.0
H203 H 0.63287 0.76679 0.94388 0.0
Co204 Co 0.62111 0.7547 0.86014 0.0
C205 C 0.62509 0.7279 0.79283 0.0
O206 O 0.59986 0.71486 0.79015 0.0
N207 N 0.59741 0.75535 0.82539 0.0
C208 C 0.56339 0.75145 0.79436 0.0
C209 C 0.57212 0.74774 0.82821 0.0
C210 C 0.60371 0.76485 0.79005 0.0
N211 N 0.5833 0.76201 0.77026 0.0
O212 O 0.64474 0.78989 0.84825 0.0
H213 H 0.56033 0.73994 0.85289 0.0
H214 H 0.62283 0.7726 0.77845 0.0
O215 O 0.63584 0.7439 0.81979 0.0
C216 C 0.63821 0.80578 0.86027 0.0
O217 O 0.61698 0.79707 0.88007 0.0
N218 N 0.59765 0.72059 0.8745 0.0
C219 C 0.55814 0.67224 0.89578 0.0
C220 C 0.57997 0.67476 0.87762 0.0
C221 C 0.59989 0.69933 0.86781 0.0
C222 C 0.57843 0.71859 0.89707 0.0
C223 C 0.55794 0.69453 0.90695 0.0
H224 H 0.61679 0.70105 0.85439 0.0
H225 H 0.57853 0.73585 0.9062 0.0
H226 H 0.66557 0.74012 0.8642 0.0
H227 H 0.66735 0.75853 0.97853 0.0
H228 H 0.54383 0.74657 0.78797 0.0
H229 H 0.58121 0.65793 0.86991 0.0
H230 H 0.54189 0.69332 0.92259 0.0
C231 C 0.8924 0.67065 0.09053 0.0
C232 C 0.91501 0.68967 0.10594 0.0
N233 N 0.93466 0.69133 0.08553 0.0
N234 N 0.89778 0.66057 0.06037 0.0
C235 C 0.92374 0.6735 0.05812 0.0
H236 H 0.87322 0.66451 0.10071 0.0
Co237 Co 0.87309 0.63483 0.03025 0.0
C238 C 0.89783 0.63963 0.95576 0.0
O239 O 0.88445 0.61457 0.95053 0.0
N240 N 0.8471 0.60881 0.00016 0.0
C241 C 0.81699 0.57225 0.97401 0.0
C242 C 0.83329 0.5829 0.00422 0.0
C243 C 0.83792 0.61334 0.96805 0.0
N244 N 0.82002 0.59151 0.95133 0.0
O245 O 0.85905 0.65645 0.01905 0.0
H246 H 0.83485 0.572 0.02711 0.0
H247 H 0.84545 0.63232 0.95585 0.0
O248 O 0.89559 0.64948 0.98643 0.0
C249 C 0.83801 0.65179 0.03432 0.0
O250 O 0.82757 0.63344 0.0597 0.0
N251 N 0.88663 0.61331 0.04282 0.0
C252 C 0.89817 0.57478 0.0598 0.0
C253 C 0.91361 0.5947 0.03484 0.0
C254 C 0.90777 0.61402 0.02716 0.0
C255 C 0.87358 0.59614 0.0708 0.0
C256 C 0.87865 0.57633 0.07927 0.0
H257 H 0.92023 0.62915 0.00823 0.0
H258 H 0.85783 0.5967 0.08468 0.0
H259 H 0.93449 0.67018 0.03664 0.0
H260 H 0.91691 0.70099 0.13071 0.0
H261 H 0.80421 0.55191 0.96882 0.0
H262 H 0.92976 0.59507 0.02069 0.0
H263 H 0.86646 0.56164 0.09928 0.0
C264 C 0.24505 0.88663 0.27279 0.0
C265 C 0.24838 0.9076 0.29307 0.0
N266 N 0.25521 0.9274 0.26911 0.0
N267 N 0.24986 0.89318 0.23628 0.0
C268 C 0.25587 0.91812 0.23475 0.0
H269 H 0.23985 0.86785 0.28392 0.0
Co270 Co 0.24921 0.87069 0.20028 0.0
C271 C 0.27355 0.90169 0.13215 0.0
O272 O 0.28583 0.88887 0.12752 0.0
N273 N 0.24755 0.84677 0.16408 0.0
C274 C 0.24889 0.81562 0.13179 0.0
C275 C 0.25531 0.82914 0.16507 0.0
C276 C 0.23561 0.84276 0.13044 0.0
N277 N 0.23655 0.82432 0.10997 0.0
O278 O 0.21375 0.85911 0.19077 0.0
H279 H 0.26472 0.82573 0.1883 0.0
H280 H 0.22702 0.85385 0.1207 0.0
O281 O 0.25878 0.89689 0.16064 0.0
C282 C 0.19784 0.83663 0.20269 0.0
O283 O 0.20658 0.824 0.22218 0.0
N284 N 0.2838 0.88146 0.21205 0.0
C285 C 0.33317 0.89169 0.23011 0.0
C286 C 0.3295 0.91017 0.21143 0.0
C287 C 0.30454 0.90503 0.20387 0.0
C288 C 0.28698 0.86467 0.23411 0.0
C289 C 0.31155 0.86916 0.24294 0.0
H290 H 0.30212 0.92004 0.19126 0.0
H291 H 0.27026 0.84729 0.24402 0.0
H292 H 0.26143 0.92953 0.20929 0.0
H293 H 0.24597 0.90824 0.32314 0.0
H294 H 0.25284 0.80043 0.12442 0.0
H295 H 0.34578 0.9284 0.20281 0.0
H296 H 0.31358 0.85474 0.25851 0.0
C297 C 0.3538 0.24029 0.43929 0.0
C298 C 0.33576 0.24409 0.45744 0.0
N299 N 0.32191 0.24821 0.43134 0.0
N300 N 0.35138 0.24202 0.40196 0.0
C301 C 0.33173 0.2467 0.39789 0.0
H302 H 0.36791 0.23662 0.45238 0.0
Co303 Co 0.3721 0.23863 0.36668 0.0
C304 C 0.36929 0.26554 0.29925 0.0
O305 O 0.39441 0.27646 0.296 0.0
N306 N 0.39276 0.234 0.33072 0.0
C307 C 0.42303 0.23171 0.29755 0.0
C308 C 0.41734 0.23893 0.33127 0.0
C309 C 0.3838 0.22277 0.29681 0.0
N310 N 0.4019 0.22169 0.27568 0.0
O311 O 0.34591 0.20398 0.35791 0.0
H312 H 0.43067 0.24713 0.35426 0.0
H313 H 0.3642 0.21569 0.28771 0.0
O314 O 0.35773 0.25009 0.32652 0.0
C315 C 0.34669 0.18703 0.37844 0.0
O316 O 0.36433 0.19462 0.40483 0.0
N317 N 0.39819 0.27273 0.37785 0.0
C318 C 0.4389 0.32179 0.39581 0.0
C319 C 0.41587 0.31861 0.3807 0.0
C320 C 0.39558 0.29391 0.37261 0.0
C321 C 0.41885 0.2752 0.39724 0.0
C322 C 0.43983 0.2995 0.40524 0.0
H323 H 0.3778 0.29194 0.36221 0.0
H324 H 0.41916 0.25817 0.40636 0.0
H325 H 0.32509 0.24953 0.37101 0.0
H326 H 0.33301 0.24367 0.48754 0.0
H327 H 0.44157 0.23431 0.28959 0.0
H328 H 0.41338 0.335 0.37529 0.0
H329 H 0.4567 0.30061 0.41804 0.0
C330 C 0.1145 0.34553 0.60941 0.0
C331 C 0.09305 0.32661 0.62749 0.0
N332 N 0.07392 0.31532 0.60212 0.0
N333 N 0.10887 0.34607 0.57288 0.0
C334 C 0.08406 0.32728 0.5692 0.0
H335 H 0.13291 0.35845 0.62216 0.0
Co336 Co 0.13191 0.36893 0.5379 0.0
C337 C 0.09674 0.36979 0.48011 0.0
O338 O 0.10912 0.39512 0.48137 0.0
N339 N 0.15646 0.39153 0.50294 0.0
C340 C 0.19526 0.41689 0.47796 0.0
C341 C 0.1817 0.40708 0.51077 0.0
C342 C 0.15554 0.39125 0.4649 0.0
N343 N 0.17865 0.40695 0.44914 0.0
O344 O 0.13925 0.34316 0.52124 0.0
H345 H 0.19015 0.40967 0.5384 0.0
H346 H 0.13894 0.37805 0.44862 0.0
O347 O 0.10434 0.35724 0.50035 0.0
C348 C 0.15711 0.34216 0.53898 0.0
O349 O 0.16756 0.3574 0.56811 0.0
N350 N 0.12516 0.39493 0.55601 0.0
C351 C 0.1169 0.43494 0.57873 0.0
C352 C 0.09609 0.41031 0.57102 0.0
C353 C 0.10062 0.39052 0.56022 0.0
C354 C 0.14537 0.41794 0.56729 0.0
C355 C 0.14178 0.43834 0.5778 0.0
H356 H 0.08426 0.37188 0.55386 0.0
H357 H 0.16451 0.42083 0.56814 0.0
H358 H 0.0734 0.32268 0.54311 0.0
H359 H 0.09135 0.32223 0.65723 0.0
H360 H 0.21586 0.42944 0.47548 0.0
H361 H 0.07644 0.40636 0.57285 0.0
H362 H 0.15854 0.45679 0.58412 0.0
C363 C 0.77054 0.1144 0.76902 0.0
C364 C 0.76738 0.09237 0.78598 0.0
N365 N 0.75208 0.07217 0.7639 0.0
N366 N 0.75745 0.10809 0.73633 0.0
C367 C 0.74631 0.08219 0.73399 0.0
H368 H 0.78177 0.13384 0.77969 0.0
Co369 Co 0.75748 0.13196 0.70343 0.0
C370 C 0.73393 0.10366 0.63264 0.0
O371 O 0.7217 0.11659 0.62888 0.0
N372 N 0.75873 0.15719 0.67036 0.0
C373 C 0.75687 0.18931 0.64193 0.0
C374 C 0.75082 0.17459 0.67405 0.0
C375 C 0.77044 0.16258 0.63644 0.0
N376 N 0.76911 0.18157 0.61813 0.0
O377 O 0.79287 0.14424 0.69288 0.0
H378 H 0.74153 0.17697 0.69838 0.0
H379 H 0.77905 0.15197 0.62491 0.0
O380 O 0.74818 0.10747 0.66148 0.0
C381 C 0.80914 0.16564 0.70758 0.0
O382 O 0.80079 0.17734 0.72993 0.0
N383 N 0.72278 0.12035 0.71602 0.0
C384 C 0.67336 0.11035 0.7332 0.0
C385 C 0.677 0.09272 0.71205 0.0
C386 C 0.70191 0.09771 0.70471 0.0
C387 C 0.71952 0.13594 0.74054 0.0
C388 C 0.69493 0.13159 0.74905 0.0
H389 H 0.70411 0.08342 0.68943 0.0
H390 H 0.73621 0.15258 0.75221 0.0
H391 H 0.73454 0.07087 0.71063 0.0
H392 H 0.77534 0.09123 0.81275 0.0
H393 H 0.75266 0.2046 0.63673 0.0
H394 H 0.66073 0.07539 0.70091 0.0
H395 H 0.69292 0.14532 0.76641 0.0
H396 H 0.14784 0.40583 0.39309 0.0
H397 H 0.1567 0.40866 0.3255 0.0
H398 H 0.23105 0.41711 0.34797 0.0
H399 H 0.22262 0.41495 0.41561 0.0
H400 H 0.23364 0.44831 0.2921 0.0
H401 H 0.18095 0.36017 0.32418 0.0
H402 H 0.14392 0.32106 0.34996 0.0
H403 H 0.09372 0.32841 0.27129 0.0
H404 H 0.13033 0.36816 0.24596 0.0
H405 H 0.25207 0.40708 0.11189 0.0
H406 H 0.24596 0.41101 0.17911 0.0
H407 H 0.17637 0.41258 0.15488 0.0
H408 H 0.18246 0.40867 0.08744 0.0
H409 H 0.17155 0.37656 0.21113 0.0
H410 H 0.22644 0.46621 0.18032 0.0
H411 H 0.26516 0.5034 0.15373 0.0
H412 H 0.31294 0.48957 0.22885 0.0
H413 H 0.27451 0.45205 0.25553 0.0
C414 C 0.16604 0.40825 0.38359 0.0
C415 C 0.18443 0.40988 0.40958 0.0
C416 C 0.17101 0.40976 0.34507 0.0
C417 C 0.19416 0.41233 0.33177 0.0
C418 C 0.21295 0.41492 0.35765 0.0
C419 C 0.20814 0.41371 0.39626 0.0
C420 C 0.1984 0.41171 0.29084 0.0
C421 C 0.22019 0.43249 0.27448 0.0
C422 C 0.18065 0.39114 0.26778 0.0
C423 C 0.15841 0.36748 0.28356 0.0
C424 C 0.16197 0.35374 0.31278 0.0
C425 C 0.14104 0.33141 0.3273 0.0
C426 C 0.11645 0.32231 0.31239 0.0
C427 C 0.11278 0.33549 0.28285 0.0
C428 C 0.13361 0.35801 0.26852 0.0
C429 C 0.23552 0.40834 0.12096 0.0
C430 C 0.21771 0.40754 0.09458 0.0
C431 C 0.23215 0.41075 0.15924 0.0
C432 C 0.21081 0.41223 0.17182 0.0
C433 C 0.19302 0.41157 0.14558 0.0
C434 C 0.19658 0.40949 0.10717 0.0
C435 C 0.2065 0.41326 0.21255 0.0
C436 C 0.1848 0.39245 0.22884 0.0
C437 C 0.22448 0.43353 0.23558 0.0
C438 C 0.2476 0.45617 0.21968 0.0
C439 C 0.24522 0.47096 0.19095 0.0
C440 C 0.26711 0.49213 0.1759 0.0
C441 C 0.2915 0.49881 0.18952 0.0
C442 C 0.29404 0.48436 0.21829 0.0
C443 C 0.2722 0.46316 0.23342 0.0
H444 H 0.30843 0.5152 0.17784 0.0
H445 H 0.10025 0.30501 0.32364 0.0
H446 H 0.79606 0.25214 0.27348 0.0
H447 H 0.78724 0.24211 0.33994 0.0
H448 H 0.83188 0.20386 0.33857 0.0
H449 H 0.83957 0.21239 0.27164 0.0
H450 H 0.79025 0.17699 0.3788 0.0
H451 H 0.85648 0.26517 0.3747 0.0
H452 H 0.87782 0.31067 0.3549 0.0
H453 H 0.81616 0.31809 0.40264 0.0
H454 H 0.79429 0.27248 0.42226 0.0
H455 H 0.80433 0.1762 0.57694 0.0
H456 H 0.8142 0.18619 0.51051 0.0
H457 H 0.7624 0.21627 0.50568 0.0
H458 H 0.75172 0.20567 0.57186 0.0
H459 H 0.80882 0.24729 0.46921 0.0
H460 H 0.74367 0.15714 0.4748 0.0
H461 H 0.72569 0.11228 0.49646 0.0
H462 H 0.78923 0.10916 0.44676 0.0
H463 H 0.80794 0.15423 0.42558 0.0
C464 C 0.80374 0.24126 0.28696 0.0
C465 C 0.81873 0.23331 0.26682 0.0
C466 C 0.79891 0.2358 0.32522 0.0
C467 C 0.80929 0.22264 0.34442 0.0
C468 C 0.82378 0.21417 0.32439 0.0
C469 C 0.82839 0.21936 0.28602 0.0
C470 C 0.80507 0.21779 0.3854 0.0
C471 C 0.79463 0.19242 0.39861 0.0
C472 C 0.81055 0.23787 0.41124 0.0
C473 C 0.82364 0.26534 0.3996 0.0
C474 C 0.84738 0.27645 0.3807 0.0
C475 C 0.85959 0.30227 0.36956 0.0
C476 C 0.84831 0.31725 0.37742 0.0
C477 C 0.82485 0.30645 0.39652 0.0
C478 C 0.81255 0.28062 0.40769 0.0
C479 C 0.79485 0.18479 0.56187 0.0
C480 C 0.77694 0.18982 0.57989 0.0
C481 C 0.80065 0.1906 0.52389 0.0
C482 C 0.7888 0.20167 0.50317 0.0
C483 C 0.77173 0.20768 0.52125 0.0
C484 C 0.76574 0.20171 0.5592 0.0
C485 C 0.79383 0.20653 0.46243 0.0
C486 C 0.80446 0.2319 0.44932 0.0
C487 C 0.7889 0.18649 0.43681 0.0
C488 C 0.77737 0.1592 0.44898 0.0
C489 C 0.75394 0.14698 0.46877 0.0
C490 C 0.74361 0.12151 0.48096 0.0
C491 C 0.75639 0.10794 0.47316 0.0
C492 C 0.77942 0.11975 0.45292 0.0
C493 C 0.7899 0.14526 0.44083 0.0
H494 H 0.74846 0.0883 0.48279 0.0
H495 H 0.85779 0.33724 0.36877 0.0
H496 H 0.62894 0.83644 0.43484 0.0
H497 H 0.62518 0.82071 0.49837 0.0
H498 H 0.54754 0.76025 0.47617 0.0
H499 H 0.55116 0.77532 0.41152 0.0
H500 H 0.55196 0.7887 0.53991 0.0
H501 H 0.59158 0.74401 0.48895 0.0
H502 H 0.62311 0.73764 0.45315 0.0
H503 H 0.68368 0.79077 0.52573 0.0
H504 H 0.6526 0.79783 0.56161 0.0
H505 H 0.54269 0.73639 0.72327 0.0
H506 H 0.54229 0.74163 0.65525 0.0
H507 H 0.62185 0.80196 0.65873 0.0
H508 H 0.62235 0.79689 0.72686 0.0
H509 H 0.61309 0.76783 0.60262 0.0
H510 H 0.57399 0.81605 0.6483 0.0
H511 H 0.54238 0.8223 0.68414 0.0
H512 H 0.48075 0.762 0.62074 0.0
H513 H 0.51201 0.75517 0.58484 0.0
C514 C 0.61115 0.81945 0.44265 0.0
C515 C 0.5903 0.80731 0.4174 0.0
C516 C 0.60909 0.81049 0.47934 0.0
C517 C 0.58617 0.78924 0.49188 0.0
C518 C 0.56543 0.7767 0.46692 0.0
C519 C 0.56754 0.78549 0.42994 0.0
C520 C 0.58346 0.78164 0.53192 0.0
C521 C 0.56495 0.78357 0.55352 0.0
C522 C 0.60083 0.77554 0.54965 0.0
C523 C 0.61973 0.77162 0.52782 0.0
C524 C 0.61166 0.75456 0.49706 0.0
C525 C 0.62945 0.75078 0.47679 0.0
C526 C 0.65539 0.76382 0.48711 0.0
C527 C 0.66358 0.78069 0.51774 0.0
C528 C 0.64587 0.78457 0.53808 0.0
C529 C 0.55998 0.75106 0.7097 0.0
C530 C 0.58254 0.76629 0.73054 0.0
C531 C 0.55976 0.75393 0.67076 0.0
C532 C 0.58202 0.77224 0.65196 0.0
C533 C 0.60451 0.7876 0.67268 0.0
C534 C 0.60476 0.7847 0.7116 0.0
C535 C 0.58193 0.7754 0.61065 0.0
C536 C 0.59992 0.77265 0.58888 0.0
C537 C 0.5641 0.78077 0.5927 0.0
C538 C 0.54531 0.78491 0.61419 0.0
C539 C 0.55369 0.80398 0.64222 0.0
C540 C 0.53584 0.80766 0.6625 0.0
C541 C 0.50957 0.7925 0.6548 0.0
C542 C 0.5011 0.77369 0.62672 0.0
C543 C 0.51887 0.76993 0.60638 0.0
H544 H 0.49578 0.79538 0.67053 0.0
H545 H 0.66912 0.76083 0.47142 0.0
H546 H 0.78056 0.55783 0.59965 0.0
H547 H 0.78566 0.55754 0.66788 0.0
H548 H 0.77404 0.62268 0.6784 0.0
H549 H 0.76851 0.62286 0.61059 0.0
H550 H 0.81465 0.62866 0.72006 0.0
H551 H 0.72654 0.56411 0.70127 0.0
H552 H 0.69057 0.52508 0.67313 0.0
H553 H 0.72157 0.47945 0.71659 0.0
H554 H 0.75796 0.5183 0.74454 0.0
H555 H 0.80709 0.62403 0.91837 0.0
H556 H 0.79458 0.62324 0.8526 0.0
H557 H 0.79862 0.55415 0.83424 0.0
H558 H 0.81037 0.55455 0.90009 0.0
H559 H 0.75961 0.55106 0.79685 0.0
H560 H 0.84967 0.61603 0.81013 0.0
H561 H 0.88648 0.65524 0.83644 0.0
H562 H 0.85202 0.69988 0.80292 0.0
H563 H 0.81495 0.66092 0.77633 0.0
C564 C 0.779 0.57202 0.6165 0.0
C565 C 0.77427 0.59043 0.59956 0.0
C566 C 0.7819 0.57182 0.65545 0.0
C567 C 0.78 0.58996 0.67816 0.0
C568 C 0.77565 0.60857 0.66134 0.0
C569 C 0.77269 0.60875 0.62247 0.0
C570 C 0.7828 0.5897 0.71948 0.0
C571 C 0.80238 0.61182 0.73696 0.0
C572 C 0.76702 0.5676 0.74134 0.0
C573 C 0.7451 0.54417 0.72471 0.0
C574 C 0.7258 0.54579 0.70457 0.0
C575 C 0.70532 0.52369 0.6887 0.0
C576 C 0.70382 0.49981 0.69299 0.0
C577 C 0.72278 0.49797 0.71325 0.0
C578 C 0.74332 0.52002 0.72915 0.0
C579 C 0.80504 0.60858 0.90027 0.0
C580 C 0.80982 0.58943 0.91414 0.0
C581 C 0.798 0.60817 0.86274 0.0
C582 C 0.79623 0.58895 0.83826 0.0
C583 C 0.79991 0.5692 0.85256 0.0
C584 C 0.80655 0.56938 0.8902 0.0
C585 C 0.79172 0.58992 0.79744 0.0
C586 C 0.7718 0.56794 0.78001 0.0
C587 C 0.80723 0.61215 0.77555 0.0
C588 C 0.82945 0.63554 0.79161 0.0
C589 C 0.84987 0.63418 0.80859 0.0
C590 C 0.87079 0.65635 0.82352 0.0
C591 C 0.87154 0.67999 0.82158 0.0
C592 C 0.8514 0.68154 0.8045 0.0
C593 C 0.83046 0.65944 0.7894 0.0
H594 H 0.88776 0.69712 0.83319 0.0
H595 H 0.68794 0.48271 0.68068 0.0
H596 H 0.15532 0.78846 0.76835 0.0
H597 H 0.16475 0.79949 0.83464 0.0
H598 H 0.23451 0.79619 0.82429 0.0
H599 H 0.226 0.78629 0.75751 0.0
H600 H 0.19556 0.76221 0.88124 0.0
H601 H 0.24582 0.84953 0.8402 0.0
H602 H 0.25785 0.89136 0.81102 0.0
H603 H 0.1998 0.89587 0.87548 0.0
H604 H 0.18717 0.85386 0.90472 0.0
H605 H 0.25578 0.8052 0.05841 0.0
H606 H 0.24402 0.79669 0.9922 0.0
H607 H 0.18691 0.81938 0.00771 0.0
H608 H 0.19839 0.82772 0.07428 0.0
H609 H 0.21632 0.84281 0.94844 0.0
H610 H 0.16878 0.75663 0.99275 0.0
H611 H 0.16117 0.71764 0.02688 0.0
H612 H 0.21698 0.71245 0.95767 0.0
H613 H 0.22521 0.75165 0.92344 0.0
C614 C 0.17301 0.79066 0.77967 0.0
C615 C 0.18974 0.78614 0.75731 0.0
C616 C 0.17833 0.79696 0.81771 0.0
C617 C 0.20028 0.79862 0.83419 0.0
C618 C 0.21744 0.79497 0.81193 0.0
C619 C 0.21239 0.78909 0.77379 0.0
C620 C 0.20392 0.80141 0.87533 0.0
C621 C 0.20049 0.77996 0.89595 0.0
C622 C 0.20945 0.82431 0.89437 0.0
C623 C 0.21521 0.84826 0.87415 0.0
C624 C 0.23522 0.85914 0.84757 0.0
C625 C 0.24235 0.88304 0.83133 0.0
C626 C 0.22964 0.89629 0.84146 0.0
C627 C 0.20965 0.88559 0.86768 0.0
C628 C 0.20245 0.86171 0.88403 0.0
C629 C 0.24035 0.80788 0.04802 0.0
C630 C 0.2281 0.81723 0.07168 0.0
C631 C 0.23366 0.80303 0.01009 0.0
C632 C 0.21444 0.80724 0.99512 0.0
C633 C 0.2018 0.81606 0.01877 0.0
C634 C 0.20848 0.82091 0.05673 0.0
C635 C 0.20871 0.8039 0.9543 0.0
C636 C 0.21143 0.8251 0.93373 0.0
C637 C 0.20267 0.78084 0.93525 0.0
C638 C 0.19777 0.75722 0.95573 0.0
C639 C 0.17959 0.7473 0.985 0.0
C640 C 0.17513 0.72514 0.00433 0.0
C641 C 0.18862 0.71261 0.99451 0.0
C642 C 0.20656 0.72219 0.96527 0.0
C643 C 0.2111 0.74437 0.94586 0.0
H644 H 0.18514 0.69544 0.00951 0.0
H645 H 0.23519 0.91478 0.82883 0.0
H646 H 0.37063 0.18177 0.91831 0.0
H647 H 0.36818 0.18833 0.98582 0.0
H648 H 0.44379 0.19799 0.00103 0.0
H649 H 0.44621 0.19118 0.93364 0.0
H650 H 0.40685 0.16266 0.05088 0.0
H651 H 0.43718 0.24911 0.00612 0.0
H652 H 0.43561 0.28176 0.96582 0.0
H653 H 0.36133 0.2613 0.01042 0.0
H654 H 0.36232 0.22825 0.0507 0.0
H655 H 0.43258 0.20781 0.23821 0.0
H656 H 0.43189 0.19918 0.17132 0.0
H657 H 0.36502 0.20757 0.15775 0.0
H658 H 0.36674 0.2181 0.22407 0.0
H659 H 0.39579 0.23253 0.10591 0.0
H660 H 0.36223 0.14381 0.14506 0.0
H661 H 0.3606 0.10796 0.18172 0.0
H662 H 0.43722 0.13019 0.14606 0.0
H663 H 0.4392 0.166 0.10908 0.0
C664 C 0.38677 0.18546 0.93606 0.0
C665 C 0.40862 0.18599 0.92076 0.0
C666 C 0.3854 0.1893 0.97451 0.0
C667 C 0.40583 0.19368 0.9983 0.0
C668 C 0.42784 0.19465 0.98305 0.0
C669 C 0.42931 0.19102 0.94455 0.0
C670 C 0.40389 0.19633 0.03933 0.0
C671 C 0.40475 0.17811 0.06306 0.0
C672 C 0.40021 0.21593 0.0549 0.0
C673 C 0.39972 0.23603 0.03114 0.0
C674 C 0.42043 0.25144 0.00714 0.0
C675 C 0.41966 0.27004 0.98435 0.0
C676 C 0.39835 0.27354 0.98548 0.0
C677 C 0.37781 0.25853 0.00955 0.0
C678 C 0.37848 0.23988 0.0324 0.0
C679 C 0.41772 0.20788 0.2211 0.0
C680 C 0.39983 0.21383 0.23682 0.0
C681 C 0.41707 0.20246 0.18277 0.0
C682 C 0.39815 0.20229 0.15933 0.0
C683 C 0.37982 0.20753 0.17513 0.0
C684 C 0.38069 0.21332 0.21334 0.0
C685 C 0.39876 0.19879 0.11797 0.0
C686 C 0.3977 0.21692 0.09399 0.0
C687 C 0.40188 0.17886 0.10207 0.0
C688 C 0.40102 0.15781 0.12499 0.0
C689 C 0.37884 0.14124 0.14557 0.0
C690 C 0.37781 0.12089 0.16623 0.0
C691 C 0.39888 0.117 0.16656 0.0
C692 C 0.42095 0.13331 0.14595 0.0
C693 C 0.422 0.15356 0.12503 0.0
H694 H 0.39804 0.10125 0.18258 0.0
H695 H 0.39781 0.28792 0.96774 0.0
H696 H 0.26756 0.29998 0.95269 0.0
H697 H 0.28044 0.26812 0.93921 0.0
H698 H 0.25255 0.26109 0.82553 0.0
H699 H 0.23839 0.29177 0.83936 0.0
H700 H 0.24125 0.21606 0.84851 0.0
H701 H 0.31755 0.29865 0.84869 0.0
H702 H 0.35079 0.34109 0.87235 0.0
H703 H 0.36709 0.30455 0.96357 0.0
H704 H 0.33378 0.26185 0.94062 0.0
H705 H 0.3282 0.18597 0.75074 0.0
H706 H 0.30606 0.20764 0.77634 0.0
H707 H 0.31033 0.18157 0.88764 0.0
H708 H 0.33172 0.15914 0.86215 0.0
H709 H 0.33185 0.23964 0.87239 0.0
H710 H 0.25648 0.15521 0.86136 0.0
H711 H 0.22686 0.11525 0.82756 0.0
H712 H 0.21208 0.15902 0.74593 0.0
H713 H 0.24194 0.19931 0.77894 0.0
C714 C 0.2637 0.29133 0.92504 0.0
C715 C 0.2521 0.29871 0.89701 0.0
C716 C 0.27136 0.27329 0.91723 0.0
C717 C 0.26788 0.26248 0.88114 0.0
C718 C 0.25555 0.26918 0.85356 0.0
C719 C 0.2477 0.28701 0.86141 0.0
C720 C 0.27772 0.24485 0.87148 0.0
C721 C 0.26109 0.22131 0.85368 0.0
C722 C 0.30355 0.25147 0.87846 0.0
C723 C 0.32296 0.27709 0.8932 0.0
C724 C 0.32802 0.29968 0.87404 0.0
C725 C 0.34695 0.32377 0.88722 0.0
C726 C 0.36109 0.3255 0.91936 0.0
C727 C 0.3562 0.30315 0.93857 0.0
C728 C 0.33728 0.279 0.92552 0.0
C729 C 0.32407 0.18455 0.78057 0.0
C730 C 0.33164 0.17088 0.80445 0.0
C731 C 0.31142 0.19687 0.7951 0.0
C732 C 0.30658 0.19609 0.83379 0.0
C733 C 0.31383 0.18223 0.85768 0.0
C734 C 0.32595 0.1694 0.84304 0.0
C735 C 0.29545 0.21121 0.84933 0.0
C736 C 0.31189 0.23427 0.86804 0.0
C737 C 0.26971 0.20451 0.84222 0.0
C738 C 0.25163 0.1803 0.82244 0.0
C739 C 0.24711 0.15635 0.836 0.0
C740 C 0.23023 0.13363 0.81703 0.0
C741 C 0.21764 0.1346 0.78457 0.0
C742 C 0.22186 0.1583 0.77106 0.0
C743 C 0.23874 0.18108 0.78992 0.0
H744 H 0.20458 0.11699 0.76992 0.0
H745 H 0.37588 0.34417 0.92932 0.0
H746 H 0.14166 0.32837 0.91553 0.0
H747 H 0.09731 0.30992 0.937 0.0
H748 H 0.11962 0.29929 0.04784 0.0
H749 H 0.1642 0.31753 0.02642 0.0
H750 H 0.07161 0.259 0.02703 0.0
H751 H 0.11519 0.35082 0.03234 0.0
H752 H 0.14205 0.39499 0.00813 0.0
H753 H 0.08607 0.38035 0.92225 0.0
H754 H 0.05906 0.3359 0.94556 0.0
H755 H 0.9604 0.25249 0.11465 0.0
H756 H 0.0047 0.2646 0.09835 0.0
H757 H 0.99107 0.2779 0.98367 0.0
H758 H 0.94709 0.26636 -0.00013 0.0
H759 H 0.03592 0.31735 0.01154 0.0
H760 H 0.99294 0.22431 0.00687 0.0
H761 H 0.96686 0.18042 0.03255 0.0
H762 H 0.02232 0.19828 0.12047 0.0
H763 H 0.04856 0.24242 0.09558 0.0
C764 C 0.13711 0.32174 0.94433 0.0
C765 C 0.1565 0.32468 0.96939 0.0
C766 C 0.11175 0.31124 0.95657 0.0
C767 C 0.1053 0.30372 0.99419 0.0
C768 C 0.12425 0.30509 0.01873 0.0
C769 C 0.14969 0.31552 0.00644 0.0
C770 C 0.07925 0.29633 0.00824 0.0
C771 C 0.06389 0.27185 0.02414 0.0
C772 C 0.06919 0.3131 0.00432 0.0
C773 C 0.0852 0.33995 0.99051 0.0
C774 C 0.10868 0.35695 0.00813 0.0
C775 C 0.12393 0.38205 0.99459 0.0
C776 C 0.11579 0.39046 0.96363 0.0
C777 C 0.09236 0.3738 0.94621 0.0
C778 C 0.07706 0.34866 0.95959 0.0
C779 C 0.96689 0.25809 0.08602 0.0
C780 C 0.95018 0.25841 0.05854 0.0
C781 C 0.99213 0.26479 0.07668 0.0
C782 C 0.0011 0.27196 0.03973 0.0
C783 C 0.9845 0.27235 0.01232 0.0
C784 C 0.95929 0.26555 0.02158 0.0
C785 C 0.02798 0.27976 0.02954 0.0
C786 C 0.04361 0.30447 0.01455 0.0
C787 C 0.0383 0.26328 0.0347 0.0
C788 C 0.02256 0.23675 0.04961 0.0
C789 C 0.99946 0.21895 0.03187 0.0
C790 C 0.98467 0.19401 0.04624 0.0
C791 C 0.99289 0.18659 0.07819 0.0
C792 C 0.01595 0.20407 0.09576 0.0
C793 C 0.0308 0.22904 0.08152 0.0
H794 H 0.98142 0.16728 0.08927 0.0
H795 H 0.12763 0.4099 0.95317 0.0
H796 H 0.85618 0.1784 0.19268 0.0
H797 H 0.83595 0.13435 0.21747 0.0
H798 H 0.77224 0.11131 0.14118 0.0
H799 H 0.7924 0.15493 0.11593 0.0
H800 H 0.79057 0.10471 0.2526 0.0
H801 H 0.75121 0.05126 0.11084 0.0
H802 H 0.76323 0.05735 0.04376 0.0
H803 H 0.84275 0.10539 0.07356 0.0
H804 H 0.83125 0.0993 0.14081 0.0
H805 H 0.68616 0.97541 0.27293 0.0
H806 H 0.71653 0.0212 0.26114 0.0
H807 H 0.7701 0.00134 0.21239 0.0
H808 H 0.73959 0.95567 0.22337 0.0
H809 H 0.76298 0.03025 0.16671 0.0
H810 H 0.78302 0.03542 0.29686 0.0
H811 H 0.77818 0.03265 0.36582 0.0
H812 H 0.74502 0.08156 0.36253 0.0
H813 H 0.74935 0.0844 0.29349 0.0
C814 C 0.83797 0.16388 0.18098 0.0
C815 C 0.826 0.17011 0.1521 0.0
C816 C 0.82637 0.13878 0.19534 0.0
C817 C 0.80272 0.1195 0.18092 0.0
C818 C 0.79069 0.12577 0.15233 0.0
C819 C 0.80225 0.15076 0.13795 0.0
C820 C 0.7904 0.09274 0.19553 0.0
C821 C 0.78453 0.08834 0.23396 0.0
C822 C 0.78317 0.07152 0.17127 0.0
C823 C 0.79032 0.07498 0.13086 0.0
C824 C 0.77127 0.06301 0.10308 0.0
C825 C 0.77799 0.06649 0.06503 0.0
C826 C 0.80373 0.0818 0.0544 0.0
C827 C 0.82281 0.0936 0.08182 0.0
C828 C 0.8162 0.09017 0.11991 0.0
C829 C 0.70464 0.98093 0.26036 0.0
C830 C 0.71048 0.96204 0.24873 0.0
C831 C 0.72203 0.00708 0.25385 0.0
C832 C 0.74569 0.01477 0.23611 0.0
C833 C 0.75195 0.99591 0.22603 0.0
C834 C 0.73449 0.96983 0.23213 0.0
C835 C 0.76249 0.04192 0.22392 0.0
C836 C 0.7691 0.04646 0.18568 0.0
C837 C 0.77079 0.06319 0.24863 0.0
C838 C 0.76638 0.05998 0.28987 0.0
C839 C 0.77437 0.04531 0.31074 0.0
C840 C 0.77191 0.0439 0.3499 0.0
C841 C 0.76151 0.05711 0.36856 0.0
C842 C 0.75325 0.0715 0.34806 0.0
C843 C 0.75569 0.07299 0.30891 0.0
H844 H 0.75963 0.05601 0.39887 0.0
H845 H 0.80888 0.08449 0.02493 0.0
H846 H 0.72452 0.68925 0.4498 0.0
H847 H 0.71085 0.72056 0.43677 0.0
H848 H 0.75259 0.74039 0.33209 0.0
H849 H 0.76737 0.71002 0.34558 0.0
H850 H 0.7571 0.78272 0.3661 0.0
H851 H 0.68861 0.6964 0.33634 0.0
H852 H 0.65712 0.651 0.35048 0.0
H853 H 0.6219 0.67505 0.43404 0.0
H854 H 0.65352 0.7206 0.42091 0.0
H855 H 0.64983 0.79577 0.2655 0.0
H856 H 0.66956 0.77134 0.2884 0.0
H857 H 0.7065 0.8265 0.37776 0.0
H858 H 0.68688 0.85127 0.35485 0.0
H859 H 0.66297 0.74798 0.35609 0.0
H860 H 0.76444 0.82818 0.39648 0.0
H861 H 0.7957 0.87315 0.3794 0.0
H862 H 0.76419 0.86019 0.26789 0.0
H863 H 0.73299 0.81508 0.28418 0.0
C864 C 0.73125 0.70056 0.42432 0.0
C865 C 0.74689 0.69682 0.39852 0.0
C866 C 0.7232 0.71832 0.4168 0.0
C867 C 0.73033 0.73248 0.38319 0.0
C868 C 0.74675 0.72958 0.35814 0.0
C869 C 0.75494 0.71196 0.36571 0.0
C870 C 0.71955 0.74916 0.37287 0.0
C871 C 0.73651 0.77516 0.36416 0.0
C872 C 0.69268 0.73931 0.37019 0.0
C873 C 0.67364 0.7119 0.37798 0.0
C874 C 0.6743 0.692 0.35797 0.0
C875 C 0.65641 0.66624 0.36578 0.0
C876 C 0.63757 0.66014 0.39323 0.0
C877 C 0.63652 0.67979 0.41281 0.0
C878 C 0.65443 0.70559 0.40522 0.0
C879 C 0.66231 0.80288 0.28985 0.0
C880 C 0.66681 0.82549 0.30832 0.0
C881 C 0.67347 0.78881 0.30301 0.0
C882 C 0.68948 0.7971 0.33476 0.0
C883 C 0.69437 0.81988 0.35301 0.0
C884 C 0.68315 0.834 0.33987 0.0
C885 C 0.70051 0.78142 0.3489 0.0
C886 C 0.68356 0.75561 0.3585 0.0
C887 C 0.72734 0.7914 0.35205 0.0
C888 C 0.74621 0.81836 0.34171 0.0
C889 C 0.76425 0.83492 0.3683 0.0
C890 C 0.78194 0.86043 0.35875 0.0
C891 C 0.78187 0.86955 0.32262 0.0
C892 C 0.76416 0.85314 0.29591 0.0
C893 C 0.74644 0.82761 0.3053 0.0
H894 H 0.79557 0.88931 0.3153 0.0
H895 H 0.62375 0.64018 0.39924 0.0
H896 H 0.04276 0.75297 0.60816 0.0
H897 H 0.9981 0.74087 0.59481 0.0
H898 H 0.00392 0.7129 0.48558 0.0
H899 H 0.04838 0.72493 0.49868 0.0
H900 H 0.98062 0.74045 0.4803 0.0
H901 H 0.97519 0.67349 0.56169 0.0
H902 H 0.98263 0.65592 0.61996 0.0
H903 H 0.94006 0.68326 0.68287 0.0
H904 H 0.9332 0.70189 0.62522 0.0
H905 H 0.85415 0.65234 0.42452 0.0
H906 H 0.89886 0.67429 0.4452 0.0
H907 H 0.87792 0.69948 0.54594 0.0
H908 H 0.83282 0.67726 0.52548 0.0
H909 H 0.90854 0.67875 0.56093 0.0
H910 H 0.91109 0.74266 0.47855 0.0
H911 H 0.90329 0.75968 0.41999 0.0
H912 H 0.95014 0.73672 0.35874 0.0
H913 H 0.95793 0.71922 0.41684 0.0
C914 C 0.03448 0.74411 0.58139 0.0
C915 C 0.04918 0.73992 0.55447 0.0
C916 C 0.00895 0.73726 0.57377 0.0
C917 C 0.99759 0.72582 0.53926 0.0
C918 C 0.01231 0.72183 0.51231 0.0
C919 C 0.03778 0.72878 0.51982 0.0
C920 C 0.97032 0.71769 0.5309 0.0
C921 C 0.96486 0.72684 0.49784 0.0
C922 C 0.94976 0.70056 0.55443 0.0
C923 C 0.95403 0.68947 0.58917 0.0
C924 C 0.96774 0.67611 0.58803 0.0
C925 C 0.97188 0.66598 0.62098 0.0
C926 C 0.96203 0.66869 0.65517 0.0
C927 C 0.94791 0.68142 0.65644 0.0
C928 C 0.94395 0.69183 0.62365 0.0
C929 C 0.85903 0.66274 0.45092 0.0
C930 C 0.83993 0.66311 0.47331 0.0
C931 C 0.88465 0.67538 0.46265 0.0
C932 C 0.89178 0.68872 0.49696 0.0
C933 C 0.87283 0.68935 0.5193 0.0
C934 C 0.84712 0.67678 0.50747 0.0
C935 C 0.91891 0.70101 0.50986 0.0
C936 C 0.92434 0.69267 0.54374 0.0
C937 C 0.93947 0.71884 0.48708 0.0
C938 C 0.93495 0.72947 0.45206 0.0
C939 C 0.91958 0.74107 0.45255 0.0
C940 C 0.91519 0.75084 0.41944 0.0
C941 C 0.92618 0.74925 0.38565 0.0
C942 C 0.94163 0.73794 0.38493 0.0
C943 C 0.94608 0.72812 0.41796 0.0
H944 H 0.92275 0.75681 0.36005 0.0
H945 H 0.96521 0.6608 0.68064 0.0
H946 H 0.31722 0.02928 0.76152 0.0
H947 H 0.28806 0.98445 0.7431 0.0
H948 H 0.24751 0.00931 0.6696 0.0
H949 H 0.27683 0.05408 0.6875 0.0
H950 H 0.23786 0.95072 0.74543 0.0
H951 H 0.23138 0.97435 0.58889 0.0
H952 H 0.25711 0.00759 0.54171 0.0
H953 H 0.32633 0.0264 0.60193 0.0
H954 H 0.30108 0.99299 0.64907 0.0
H955 H 0.1459 0.83488 0.6572 0.0
H956 H 0.16895 0.88019 0.67642 0.0
H957 H 0.23672 0.89114 0.61807 0.0
H958 H 0.2136 0.84633 0.59766 0.0
H959 H 0.23233 0.93167 0.60882 0.0
H960 H 0.22929 0.88026 0.71479 0.0
H961 H 0.20596 0.84418 0.75887 0.0
H962 H 0.16277 0.87868 0.79926 0.0
H963 H 0.1858 0.91496 0.75509 0.0
C964 C 0.30184 0.02511 0.74188 0.0
C965 C 0.2995 0.04518 0.72553 0.0
C966 C 0.2852 0.9995 0.73136 0.0
C967 C 0.26589 0.99356 0.70445 0.0
C968 C 0.26262 0.01347 0.68977 0.0
C969 C 0.2794 0.03904 0.69996 0.0
C970 C 0.25021 0.96684 0.69001 0.0
C971 C 0.23659 0.94659 0.71556 0.0
C972 C 0.24887 0.9613 0.65107 0.0
C973 C 0.26428 0.98139 0.62277 0.0
C974 C 0.2521 0.98555 0.59201 0.0
C975 C 0.2666 0.00441 0.56526 0.0
C976 C 0.29332 0.01917 0.56892 0.0
C977 C 0.30562 0.01503 0.59922 0.0
C978 C 0.29122 0.99615 0.62597 0.0
C979 C 0.1656 0.84706 0.64806 0.0
C980 C 0.17798 0.837 0.62611 0.0
C981 C 0.1788 0.8729 0.65923 0.0
C982 C 0.20473 0.88895 0.64928 0.0
C983 C 0.21675 0.87915 0.62615 0.0
C984 C 0.20349 0.85347 0.61456 0.0
C985 C 0.21983 0.91562 0.66412 0.0
C986 C 0.23339 0.93586 0.63866 0.0
C987 C 0.22172 0.92101 0.70313 0.0
C988 C 0.20906 0.90016 0.73139 0.0
C989 C 0.21478 0.88012 0.73303 0.0
C990 C 0.2015 0.85955 0.75787 0.0
C991 C 0.18261 0.85893 0.78149 0.0
C992 C 0.17724 0.87908 0.78069 0.0
C993 C 0.19047 0.8997 0.75585 0.0
H994 H 0.17236 0.84303 0.80078 0.0
H995 H 0.30451 0.03378 0.5482 0.0
H996 H 0.79315 0.64644 0.06149 0.0
H997 H 0.76746 0.66375 0.03502 0.0
H998 H 0.82415 0.70203 0.94804 0.0
H999 H 0.85023 0.68491 0.97464 0.0
H1000 H 0.80671 0.73286 0.975 0.0
H1001 H 0.7702 0.64871 0.92599 0.0
H1002 H 0.75299 0.60176 0.92631 0.0
H1003 H 0.6911 0.59141 0.99823 0.0
H1004 H 0.70813 0.63837 0.9988 0.0
H1005 H 0.71113 0.75211 0.8766 0.0
H1006 H 0.74146 0.73662 0.88844 0.0
H1007 H 0.70582 0.70697 0.99608 0.0
H1008 H 0.67583 0.72267 0.98465 0.0
H1009 H 0.71472 0.6718 0.94689 0.0
H1010 H 0.75742 0.75918 0.99917 0.0
H1011 H 0.77562 0.80619 0.99407 0.0
H1012 H 0.82698 0.80967 0.90729 0.0
H1013 H 0.80879 0.76258 0.91155 0.0
C1014 C 0.80031 0.65869 0.0369 0.0
C1015 C 0.8237 0.66422 0.02012 0.0
C1016 C 0.78552 0.66846 0.02166 0.0
C1017 C 0.79368 0.68381 0.98917 0.0
C1018 C 0.81745 0.69013 0.97303 0.0
C1019 C 0.83232 0.68035 0.9883 0.0
C1020 C 0.77706 0.69289 0.97222 0.0
C1021 C 0.78673 0.71948 0.96819 0.0
C1022 C 0.75103 0.67544 0.96301 0.0
C1023 C 0.74057 0.64712 0.96266 0.0
C1024 C 0.75303 0.63646 0.94212 0.0
C1025 C 0.74329 0.60984 0.9421 0.0
C1026 C 0.72101 0.59363 0.96235 0.0
C1027 C 0.70837 0.604 0.98258 0.0
C1028 C 0.71804 0.63063 0.98271 0.0
C1029 C 0.70982 0.74227 0.90273 0.0
C1030 C 0.6913 0.73876 0.92987 0.0
C1031 C 0.72712 0.73349 0.90946 0.0
C1032 C 0.72582 0.72071 0.94313 0.0
C1033 C 0.70708 0.7168 0.96993 0.0
C1034 C 0.69014 0.72596 0.96353 0.0
C1035 C 0.74418 0.71168 0.95112 0.0
C1036 C 0.73481 0.68509 0.95324 0.0
C1037 C 0.77057 0.72908 0.95773 0.0
C1038 C 0.78154 0.75735 0.95535 0.0
C1039 C 0.77242 0.76994 0.97876 0.0
C1040 C 0.78277 0.7966 0.97608 0.0
C1041 C 0.80239 0.8109 0.95028 0.0
C1042 C 0.81175 0.79856 0.9272 0.0
C1043 C 0.80143 0.7719 0.92975 0.0
H1044 H 0.81038 0.83154 0.94826 0.0
H1045 H 0.71349 0.57302 0.96231 0.0
H1046 H 0.97223 0.67936 0.07818 0.0
H1047 H 0.01763 0.70644 0.09592 0.0
H1048 H 0.0035 0.7678 0.12683 0.0
H1049 H 0.95796 0.74058 0.10986 0.0
H1050 H 0.05235 0.7807 0.07998 0.0
H1051 H 0.00469 0.74007 0.19463 0.0
H1052 H 0.9741 0.70241 0.23198 0.0
H1053 H 0.0206 0.66735 0.21533 0.0
H1054 H 0.05127 0.70467 0.17737 0.0
H1055 H 0.16884 0.85807 0.18102 0.0
H1056 H 0.12394 0.8353 0.15984 0.0
H1057 H 0.12167 0.76256 0.17294 0.0
H1058 H 0.16575 0.78508 0.19609 0.0
H1059 H 0.07991 0.75641 0.19709 0.0
H1060 H 0.12806 0.7948 0.08456 0.0
H1061 H 0.15886 0.83014 0.0439 0.0
H1062 H 0.11295 0.86648 0.05079 0.0
H1063 H 0.08207 0.83159 0.09211 0.0
C1064 C 0.97893 0.69875 0.08827 0.0
C1065 C 0.96165 0.70789 0.09287 0.0
C1066 C 0.00477 0.71413 0.09843 0.0
C1067 C 0.01379 0.73905 0.11266 0.0
C1068 C 0.99684 0.74863 0.1158 0.0
C1069 C 0.97089 0.73306 0.10638 0.0
C1070 C 0.04049 0.75439 0.12663 0.0
C1071 C 0.05846 0.77569 0.10579 0.0
C1072 C 0.04838 0.74732 0.15973 0.0
C1073 C 0.0301 0.72501 0.18284 0.0
C1074 C 0.00825 0.72422 0.19864 0.0
C1075 C 0.99093 0.70296 0.21998 0.0
C1076 C 0.99536 0.68246 0.22593 0.0
C1077 C 0.01717 0.68322 0.21065 0.0
C1078 C 0.03453 0.70443 0.18925 0.0
C1079 C 0.15862 0.83721 0.17952 0.0
C1080 C 0.1707 0.82333 0.19037 0.0
C1081 C 0.13304 0.8242 0.16712 0.0
C1082 C 0.1194 0.79714 0.16416 0.0
C1083 C 0.13161 0.78338 0.17505 0.0
C1084 C 0.15686 0.7963 0.18829 0.0
C1085 C 0.09235 0.7829 0.15029 0.0
C1086 C 0.07411 0.76168 0.17123 0.0
C1087 C 0.08442 0.7898 0.1168 0.0
C1088 C 0.10289 0.81071 0.09176 0.0
C1089 C 0.12462 0.81041 0.07763 0.0
C1090 C 0.14209 0.83035 0.05444 0.0
C1091 C 0.1379 0.85055 0.04481 0.0
C1092 C 0.1162 0.85083 0.05832 0.0
C1093 C 0.0987 0.83098 0.08163 0.0
H1094 H 0.15146 0.86596 0.02684 0.0
H1095 H 0.98193 0.66602 0.24247 0.0
H1096 H 0.27793 0.95306 0.33295 0.0
H1097 H 0.2879 0.99644 0.35038 0.0
H1098 H 0.25658 0.00384 0.24496 0.0
H1099 H 0.24714 0.96041 0.22702 0.0
H1100 H 0.29892 0.04698 0.25982 0.0
H1101 H 0.2231 0.99243 0.33019 0.0
H1102 H 0.19494 0.95694 0.3728 0.0
H1103 H 0.24966 0.99226 0.46229 0.0
H1104 H 0.27834 0.02777 0.42007 0.0
H1105 H 0.31098 0.16455 0.32219 0.0
H1106 H 0.28819 0.11902 0.304 0.0
H1107 H 0.32314 0.10145 0.39674 0.0
H1108 H 0.34546 0.14665 0.41558 0.0
H1109 H 0.27308 0.06309 0.38494 0.0
H1110 H 0.35112 0.11326 0.31063 0.0
H1111 H 0.37749 0.15152 0.27119 0.0
H1112 H 0.31625 0.12505 0.1905 0.0
H1113 H 0.28941 0.08674 0.22966 0.0
C1114 C 0.273 0.96385 0.3136 0.0
C1115 C 0.2615 0.95324 0.2788 0.0
C1116 C 0.27864 0.98865 0.32362 0.0
C1117 C 0.27242 0.00324 0.29941 0.0
C1118 C 0.26141 0.9929 0.26424 0.0
C1119 C 0.25606 0.96814 0.25397 0.0
C1120 C 0.27792 0.0294 0.31081 0.0
C1121 C 0.29281 0.05034 0.28689 0.0
C1122 C 0.2702 0.03402 0.3463 0.0
C1123 C 0.25296 0.01269 0.37184 0.0
C1124 C 0.22922 0.99254 0.35887 0.0
C1125 C 0.21315 0.97243 0.38297 0.0
C1126 C 0.22053 0.97232 0.4202 0.0
C1127 C 0.24397 0.99236 0.43344 0.0
C1128 C 0.26013 0.0125 0.40944 0.0
C1129 C 0.31344 0.15091 0.33911 0.0
C1130 C 0.3303 0.15926 0.37004 0.0
C1131 C 0.30044 0.12492 0.32864 0.0
C1132 C 0.30432 0.10695 0.34868 0.0
C1133 C 0.31991 0.11499 0.38085 0.0
C1134 C 0.33278 0.1409 0.39144 0.0
C1135 C 0.29434 0.08038 0.33432 0.0
C1136 C 0.27875 0.05948 0.35768 0.0
C1137 C 0.30129 0.07575 0.29838 0.0
C1138 C 0.31824 0.09728 0.27311 0.0
C1139 C 0.34336 0.11555 0.28436 0.0
C1140 C 0.35831 0.13728 0.2622 0.0
C1141 C 0.3484 0.14079 0.22864 0.0
C1142 C 0.32376 0.12235 0.21671 0.0
C1143 C 0.30871 0.10058 0.23877 0.0
H1144 H 0.35992 0.15766 0.21167 0.0
H1145 H 0.20806 0.95673 0.43881 0.0
H1146 H 0.31458 0.26945 0.49393 0.0
H1147 H 0.28005 0.27858 0.50584 0.0
H1148 H 0.24844 0.24968 0.39592 0.0
H1149 H 0.28306 0.24027 0.38372 0.0
H1150 H 0.24943 0.29483 0.41196 0.0
H1151 H 0.21845 0.21359 0.47118 0.0
H1152 H 0.2204 0.18103 0.51117 0.0
H1153 H 0.23477 0.22907 0.6081 0.0
H1154 H 0.23329 0.26212 0.56861 0.0
H1155 H 0.14649 0.3149 0.47287 0.0
H1156 H 0.16786 0.29211 0.44845 0.0
H1157 H 0.21404 0.31167 0.54908 0.0
H1158 H 0.19266 0.33395 0.57375 0.0
H1159 H 0.19767 0.26293 0.52874 0.0
H1160 H 0.23617 0.34676 0.46678 0.0
H1161 H 0.2352 0.3798 0.42661 0.0
H1162 H 0.20632 0.32631 0.33455 0.0
H1163 H 0.20691 0.29285 0.37433 0.0
C1164 C 0.30017 0.26469 0.47238 0.0
C1165 C 0.30152 0.25385 0.43801 0.0
C1166 C 0.28043 0.26999 0.47922 0.0
C1167 C 0.26142 0.26442 0.45201 0.0
C1168 C 0.26288 0.25405 0.41734 0.0
C1169 C 0.28272 0.24875 0.41042 0.0
C1170 C 0.24042 0.26993 0.46009 0.0
C1171 C 0.23767 0.28741 0.43703 0.0
C1172 C 0.22515 0.26032 0.49286 0.0
C1173 C 0.22588 0.2404 0.51685 0.0
C1174 C 0.22219 0.2173 0.50098 0.0
C1175 C 0.22319 0.19874 0.52357 0.0
C1176 C 0.22774 0.20299 0.56214 0.0
C1177 C 0.23124 0.2258 0.57822 0.0
C1178 C 0.23028 0.24444 0.55575 0.0
C1179 C 0.16096 0.31402 0.48995 0.0
C1180 C 0.16797 0.32633 0.52519 0.0
C1181 C 0.17324 0.30112 0.47587 0.0
C1182 C 0.19274 0.30042 0.49678 0.0
C1183 C 0.19905 0.31194 0.53246 0.0
C1184 C 0.18685 0.32477 0.54648 0.0
C1185 C 0.20752 0.28868 0.48156 0.0
C1186 C 0.20901 0.26991 0.50323 0.0
C1187 C 0.22158 0.29711 0.44752 0.0
C1188 C 0.22126 0.31722 0.42365 0.0
C1189 C 0.22941 0.34198 0.43806 0.0
C1190 C 0.22897 0.36079 0.41535 0.0
C1191 C 0.22064 0.35513 0.37809 0.0
C1192 C 0.21274 0.33064 0.36344 0.0
C1193 C 0.21313 0.31176 0.38604 0.0
H1194 H 0.22046 0.36974 0.36049 0.0
H1195 H 0.22851 0.1886 0.57958 0.0
H1196 H 0.03198 0.31252 0.56953 0.0
H1197 H 0.98706 0.28345 0.58645 0.0
H1198 H 0.01096 0.24632 0.66807 0.0
H1199 H 0.05605 0.27606 0.65192 0.0
H1200 H 0.95459 0.23482 0.58501 0.0
H1201 H 0.97193 0.22821 0.74379 0.0
H1202 H 0.00342 0.25387 0.79303 0.0
H1203 H 0.02425 0.32338 0.73189 0.0
H1204 H 0.99267 0.29818 0.68258 0.0
H1205 H 0.83385 0.1458 0.66646 0.0
H1206 H 0.87922 0.16787 0.64794 0.0
H1207 H 0.89155 0.23648 0.70569 0.0
H1208 H 0.84666 0.21438 0.72522 0.0
H1209 H 0.92993 0.23011 0.71911 0.0
H1210 H 0.88533 0.23061 0.60763 0.0
H1211 H 0.85338 0.21212 0.55666 0.0
H1212 H 0.88546 0.16559 0.52139 0.0
H1213 H 0.91772 0.18393 0.57225 0.0
C1214 C 0.02761 0.29793 0.59072 0.0
C1215 C 0.04746 0.29663 0.60965 0.0
C1216 C 0.00193 0.28131 0.60039 0.0
C1217 C 0.99559 0.26292 0.62895 0.0
C1218 C 0.01537 0.26073 0.64655 0.0
C1219 C 0.0411 0.27766 0.63731 0.0
C1220 C 0.96844 0.24704 0.64145 0.0
C1221 C 0.94924 0.23366 0.61437 0.0
C1222 C 0.96128 0.24591 0.67965 0.0
C1223 C 0.98018 0.26127 0.7093 0.0
C1224 C 0.9832 0.24898 0.74093 0.0
C1225 C 0.00106 0.26344 0.76884 0.0
C1226 C 0.0159 0.29023 0.76552 0.0
C1227 C 0.01283 0.30263 0.73435 0.0
C1228 C 0.99497 0.28826 0.7064 0.0
C1229 C 0.8463 0.16554 0.67538 0.0
C1230 C 0.83667 0.17835 0.6973 0.0
C1231 C 0.87219 0.17818 0.6646 0.0
C1232 C 0.88878 0.20395 0.67506 0.0
C1233 C 0.8792 0.21658 0.69737 0.0
C1234 C 0.85346 0.20391 0.70845 0.0
C1235 C 0.91607 0.21804 0.66267 0.0
C1236 C 0.93531 0.23099 0.6898 0.0
C1237 C 0.92314 0.21963 0.62438 0.0
C1238 C 0.90371 0.2084 0.59398 0.0
C1239 C 0.88543 0.21628 0.58918 0.0
C1240 C 0.86729 0.20586 0.56026 0.0
C1241 C 0.86724 0.18753 0.53592 0.0
C1242 C 0.88546 0.17972 0.54033 0.0
C1243 C 0.90373 0.19018 0.56913 0.0
H1244 H 0.85317 0.17946 0.51355 0.0
H1245 H 0.02972 0.30138 0.78714 0.0
H1246 H 0.77857 0.0522 0.79753 0.0
H1247 H 0.76245 0.00671 0.81314 0.0
H1248 H 0.68909 0.98646 0.76387 0.0
H1249 H 0.70525 0.03178 0.7476 0.0
H1250 H 0.69073 0.96913 0.84369 0.0
H1251 H 0.72352 0.97378 0.71739 0.0
H1252 H 0.75755 0.99039 0.66918 0.0
H1253 H 0.80046 0.96451 0.73445 0.0
H1254 H 0.76685 0.94819 0.78339 0.0
H1255 H 0.6179 0.83592 0.84431 0.0
H1256 H 0.64051 0.88132 0.82699 0.0
H1257 H 0.71317 0.88315 0.83526 0.0
H1258 H 0.69016 0.83688 0.8502 0.0
H1259 H 0.71664 0.91175 0.78076 0.0
H1260 H 0.68985 0.90849 0.90632 0.0
H1261 H 0.66078 0.89422 0.96107 0.0
H1262 H 0.61386 0.92049 0.9079 0.0
H1263 H 0.64246 0.93461 0.85257 0.0
C1264 C 0.75905 0.03798 0.78994 0.0
C1265 C 0.7431 0.04543 0.77146 0.0
C1266 C 0.74995 0.01209 0.7987 0.0
C1267 C 0.72464 0.99337 0.7896 0.0
C1268 C 0.70871 0.00071 0.771 0.0
C1269 C 0.71797 0.0265 0.76158 0.0
C1270 C 0.71431 0.96621 0.80074 0.0
C1271 C 0.69613 0.95643 0.82975 0.0
C1272 C 0.72258 0.95025 0.78383 0.0
C1273 C 0.74274 0.96 0.75426 0.0
C1274 C 0.74031 0.97187 0.72165 0.0
C1275 C 0.75951 0.98119 0.69414 0.0
C1276 C 0.78119 0.97856 0.69878 0.0
C1277 C 0.78367 0.96657 0.7309 0.0
C1278 C 0.76453 0.95728 0.75853 0.0
C1279 C 0.63871 0.84602 0.84241 0.0
C1280 C 0.65237 0.83309 0.84906 0.0
C1281 C 0.65166 0.87204 0.83274 0.0
C1282 C 0.67867 0.88601 0.83101 0.0
C1283 C 0.69236 0.87291 0.83672 0.0
C1284 C 0.67926 0.84654 0.84534 0.0
C1285 C 0.69228 0.9142 0.82319 0.0
C1286 C 0.71124 0.92433 0.79503 0.0
C1287 C 0.68551 0.93086 0.84191 0.0
C1288 C 0.66821 0.92243 0.87515 0.0
C1289 C 0.67324 0.91107 0.90618 0.0
C1290 C 0.65685 0.90303 0.93734 0.0
C1291 C 0.63546 0.9064 0.93793 0.0
C1292 C 0.63043 0.91788 0.90739 0.0
C1293 C 0.64674 0.92593 0.87614 0.0
H1294 H 0.6228 0.90017 0.96209 0.0
H1295 H 0.79603 0.98576 0.67744 0.0
H1296 H 0.30948 0.3863 0.07672 0.0
H1297 H 0.32049 0.36266 0.12174 0.0
H1298 H 0.25051 0.29244 0.09465 0.0
H1299 H 0.23933 0.31598 0.04886 0.0
H1300 H 0.26668 0.30685 0.17929 0.0
H1301 H 0.29566 0.29332 0.05759 0.0
H1302 H 0.31784 0.31007 0.99696 0.0
H1303 H 0.38799 0.36073 0.0552 0.0
H1304 H 0.36617 0.34456 0.11611 0.0
H1305 H 0.31745 0.23936 0.28449 0.0
H1306 H 0.29449 0.25071 0.23811 0.0
H1307 H 0.36585 0.31901 0.20865 0.0
H1308 H 0.3888 0.30726 0.25345 0.0
H1309 H 0.34227 0.29769 0.14834 0.0
H1310 H 0.31745 0.31875 0.26587 0.0
H1311 H 0.29852 0.3106 0.32941 0.0
H1312 H 0.22514 0.25445 0.28455 0.0
H1313 H 0.24374 0.26197 0.22078 0.0
C1314 C 0.29631 0.36586 0.08037 0.0
C1315 C 0.27357 0.35299 0.05912 0.0
C1316 C 0.30262 0.35242 0.10617 0.0
C1317 C 0.28627 0.32589 0.11145 0.0
C1318 C 0.26326 0.31296 0.09098 0.0
C1319 C 0.25703 0.32639 0.06473 0.0
C1320 C 0.29435 0.3118 0.13693 0.0
C1321 C 0.2828 0.30419 0.17242 0.0
C1322 C 0.31584 0.30917 0.12807 0.0
C1323 C 0.32923 0.31784 0.09139 0.0
C1324 C 0.3158 0.30807 0.05744 0.0
C1325 C 0.3283 0.31746 0.02304 0.0
C1326 C 0.35427 0.33654 0.02231 0.0
C1327 C 0.36787 0.34599 0.05587 0.0
C1328 C 0.35546 0.33668 0.09031 0.0
C1329 C 0.32815 0.25678 0.26806 0.0
C1330 C 0.35492 0.27237 0.27242 0.0
C1331 C 0.31501 0.26331 0.2417 0.0
C1332 C 0.3284 0.2858 0.21995 0.0
C1333 C 0.35509 0.30145 0.22479 0.0
C1334 C 0.36821 0.29473 0.25052 0.0
C1335 C 0.31512 0.29322 0.19156 0.0
C1336 C 0.32571 0.29961 0.15528 0.0
C1337 C 0.29323 0.29539 0.20022 0.0
C1338 C 0.28208 0.29066 0.23861 0.0
C1339 C 0.29734 0.30447 0.2696 0.0
C1340 C 0.28666 0.3 0.30565 0.0
C1341 C 0.26066 0.28197 0.31103 0.0
C1342 C 0.24529 0.26837 0.28036 0.0
C1343 C 0.25589 0.27272 0.24425 0.0
H1344 H 0.2524 0.27863 0.33893 0.0
H1345 H 0.36388 0.34409 0.99579 0.0
H1346 H 0.92252 0.24959 0.21953 0.0
H1347 H 0.95615 0.25998 0.26698 0.0
H1348 H 0.96166 0.33364 0.28607 0.0
H1349 H 0.92802 0.32332 0.23952 0.0
H1350 H 0.01 0.33502 0.27668 0.0
H1351 H 0.92854 0.28852 0.34338 0.0
H1352 H 0.88577 0.25047 0.35419 0.0
H1353 H 0.92059 0.20415 0.37459 0.0
H1354 H 0.96357 0.24178 0.36279 0.0
H1355 H 0.07079 0.38965 0.44378 0.0
H1356 H 0.03696 0.36869 0.39687 0.0
H1357 H 0.03931 0.29834 0.40964 0.0
H1358 H 0.07304 0.31916 0.45759 0.0
H1359 H 0.98925 0.28934 0.3993 0.0
H1360 H 0.071 0.33682 0.34195 0.0
H1361 H 0.11378 0.3748 0.33336 0.0
H1362 H 0.07955 0.41819 0.29272 0.0
H1363 H 0.0363 0.38077 0.30322 0.0
C1364 C 0.93106 0.26804 0.23375 0.0
C1365 C 0.92263 0.28563 0.22599 0.0
C1366 C 0.95014 0.27389 0.26082 0.0
C1367 C 0.96125 0.29753 0.27997 0.0
C1368 C 0.9533 0.31531 0.27152 0.0
C1369 C 0.93401 0.30933 0.24504 0.0
C1370 C 0.98087 0.30395 0.30948 0.0
C1371 C 0.00551 0.32509 0.30352 0.0
C1372 C 0.97508 0.29038 0.34395 0.0
C1373 C 0.94926 0.26789 0.35167 0.0
C1374 C 0.92708 0.27017 0.34977 0.0
C1375 C 0.90279 0.24869 0.35615 0.0
C1376 C 0.90045 0.22491 0.36504 0.0
C1377 C 0.92242 0.22257 0.36762 0.0
C1378 C 0.94675 0.24396 0.36103 0.0
C1379 C 0.06403 0.36966 0.43689 0.0
C1380 C 0.07489 0.35618 0.45391 0.0
C1381 C 0.04463 0.35769 0.41013 0.0
C1382 C 0.03597 0.33212 0.39931 0.0
C1383 C 0.04581 0.31812 0.41754 0.0
C1384 C 0.06515 0.33008 0.44473 0.0
C1385 C 0.01815 0.32105 0.36695 0.0
C1386 C 0.99393 0.29901 0.37226 0.0
C1387 C 0.02435 0.33367 0.33163 0.0
C1388 C 0.05033 0.35597 0.32368 0.0
C1389 C 0.07253 0.3545 0.33148 0.0
C1390 C 0.09691 0.376 0.32633 0.0
C1391 C 0.09947 0.39891 0.31225 0.0
C1392 C 0.07756 0.40041 0.30356 0.0
C1393 C 0.05307 0.37908 0.30931 0.0
H1394 H 0.11841 0.41551 0.30813 0.0
H1395 H 0.88163 0.20832 0.36999 0.0
H1396 H 0.61537 0.9203 0.41711 0.0
H1397 H 0.63933 0.95525 0.4619 0.0
H1398 H 0.7072 0.94952 0.44301 0.0
H1399 H 0.68356 0.91504 0.39678 0.0
H1400 H 0.68071 0.95416 0.52941 0.0
H1401 H 0.72128 0.99094 0.40652 0.0
H1402 H 0.71581 0.99601 0.33909 0.0
H1403 H 0.67115 0.03182 0.36533 0.0
H1404 H 0.67536 0.02582 0.43305 0.0
H1405 H 0.75348 0.07086 0.63257 0.0
H1406 H 0.74335 0.03571 0.58828 0.0
H1407 H 0.69341 0.0552 0.52687 0.0
H1408 H 0.70398 0.09057 0.56999 0.0
H1409 H 0.7172 0.04291 0.47932 0.0
H1410 H 0.67262 0.0076 0.5944 0.0
H1411 H 0.66608 0.99707 0.66191 0.0
H1412 H 0.70704 0.9557 0.65207 0.0
H1413 H 0.71493 0.96704 0.58494 0.0
C1414 C 0.63533 0.92631 0.42269 0.0
C1415 C 0.64771 0.91513 0.40335 0.0
C1416 C 0.64894 0.94622 0.44826 0.0
C1417 C 0.67495 0.95492 0.45541 0.0
C1418 C 0.68712 0.94304 0.43754 0.0
C1419 C 0.67366 0.9235 0.41117 0.0
C1420 C 0.68949 0.97755 0.47984 0.0
C1421 C 0.6895 0.9737 0.51865 0.0
C1422 C 0.6997 0.00275 0.46548 0.0
C1423 C 0.69824 0.00747 0.42485 0.0
C1424 C 0.70987 0.99942 0.39793 0.0
C1425 C 0.70693 0.00242 0.35961 0.0
C1426 C 0.69296 0.01406 0.34787 0.0
C1427 C 0.6819 0.02273 0.37445 0.0
C1428 C 0.68446 0.01943 0.41281 0.0
C1429 C 0.74054 0.06777 0.6094 0.0
C1430 C 0.7293 0.08332 0.60505 0.0
C1431 C 0.7347 0.04763 0.58419 0.0
C1432 C 0.71732 0.04256 0.55453 0.0
C1433 C 0.70686 0.05868 0.5495 0.0
C1434 C 0.7128 0.07884 0.57441 0.0
C1435 C 0.70891 0.01987 0.52954 0.0
C1436 C 0.70958 0.02361 0.49046 0.0
C1437 C 0.69859 0.99448 0.54386 0.0
C1438 C 0.69482 0.98862 0.58471 0.0
C1439 C 0.68074 0.99674 0.60678 0.0
C1440 C 0.67679 0.99063 0.64503 0.0
C1441 C 0.68635 0.97593 0.66139 0.0
C1442 C 0.69994 0.96738 0.63954 0.0
C1443 C 0.70426 0.97375 0.60142 0.0
H1444 H 0.68303 0.971 0.69091 0.0
H1445 H 0.69082 0.01652 0.31822 0.0
H1446 H 0.70459 0.61051 0.59922 0.0
H1447 H 0.69377 0.63489 0.64299 0.0
H1448 H 0.73889 0.70394 0.57784 0.0
H1449 H 0.74977 0.67956 0.53354 0.0
H1450 H 0.72145 0.67648 0.68809 0.0
H1451 H 0.70442 0.73721 0.57931 0.0
H1452 H 0.69504 0.73686 0.51162 0.0
H1453 H 0.65742 0.65422 0.51048 0.0
H1454 H 0.66613 0.65405 0.57822 0.0
H1455 H 0.67768 0.75029 0.79005 0.0
H1456 H 0.703 0.74111 0.74515 0.0
H1457 H 0.63318 0.68598 0.68888 0.0
H1458 H 0.6079 0.69531 0.73291 0.0
H1459 H 0.66996 0.71394 0.63884 0.0
H1460 H 0.66247 0.66737 0.75509 0.0
H1461 H 0.66857 0.66521 0.82332 0.0
H1462 H 0.75013 0.71441 0.81021 0.0
H1463 H 0.74446 0.71709 0.7419 0.0
C1464 C 0.71233 0.6309 0.59419 0.0
C1465 C 0.72773 0.64301 0.56257 0.0
C1466 C 0.70629 0.64486 0.61945 0.0
C1467 C 0.71539 0.67117 0.61354 0.0
C1468 C 0.73151 0.68358 0.58272 0.0
C1469 C 0.73766 0.66961 0.55742 0.0
C1470 C 0.70638 0.68484 0.63842 0.0
C1471 C 0.71049 0.68499 0.67731 0.0
C1472 C 0.69202 0.69588 0.62432 0.0
C1473 C 0.68631 0.69567 0.58369 0.0
C1474 C 0.69411 0.71897 0.5646 0.0
C1475 C 0.68888 0.71886 0.52626 0.0
C1476 C 0.67577 0.69553 0.50678 0.0
C1477 C 0.66769 0.67227 0.5256 0.0
C1478 C 0.67277 0.67227 0.56396 0.0
C1479 C 0.66776 0.73634 0.76795 0.0
C1480 C 0.64076 0.72335 0.76523 0.0
C1481 C 0.68225 0.73113 0.74234 0.0
C1482 C 0.66994 0.71273 0.71386 0.0
C1483 C 0.64308 0.70032 0.71055 0.0
C1484 C 0.62864 0.70556 0.73596 0.0
C1485 C 0.68454 0.70506 0.68856 0.0
C1486 C 0.68153 0.70609 0.64957 0.0
C1487 C 0.69956 0.69475 0.7026 0.0
C1488 C 0.70302 0.69263 0.74349 0.0
C1489 C 0.68169 0.67781 0.7668 0.0
C1490 C 0.68507 0.67649 0.80547 0.0
C1491 C 0.70972 0.68971 0.82111 0.0
C1492 C 0.73105 0.7042 0.79806 0.0
C1493 C 0.72777 0.70561 0.75937 0.0
H1494 H 0.71229 0.68868 0.85105 0.0
H1495 H 0.67182 0.69547 0.47714 0.0
H1496 H 0.05565 0.71864 0.6824 0.0
H1497 H 0.02021 0.70811 0.72593 0.0
H1498 H 0.0744 0.73899 0.81798 0.0
H1499 H 0.10942 0.74742 0.77471 0.0
H1500 H 0.03845 0.69832 0.8405 0.0
H1501 H 0.0396 0.76861 0.77743 0.0
H1502 H 0.04003 0.79477 0.72369 0.0
H1503 H 0.96551 0.73412 0.68957 0.0
H1504 H 0.96484 0.70727 0.74266 0.0
H1505 H 0.94077 0.68677 0.96686 0.0
H1506 H 0.97613 0.71054 0.92234 0.0
H1507 H 0.93475 0.65293 0.83762 0.0
H1508 H 0.89974 0.62866 0.88216 0.0
H1509 H 0.96482 0.71189 0.81511 0.0
H1510 H 0.97071 0.64082 0.87622 0.0
H1511 H 0.9711 0.618 0.93373 0.0
H1512 H 0.03523 0.68772 0.97615 0.0
H1513 H 0.0349 0.71103 0.91908 0.0
C1514 C 0.05988 0.72341 0.71189 0.0
C1515 C 0.08507 0.73384 0.72544 0.0
C1516 C 0.03968 0.71759 0.73678 0.0
C1517 C 0.04454 0.72312 0.77537 0.0
C1518 C 0.07002 0.73442 0.78848 0.0
C1519 C 0.09004 0.73935 0.76381 0.0
C1520 C 0.023 0.71534 0.80249 0.0
C1521 C 0.02273 0.7019 0.83505 0.0
C1522 C 0.00215 0.71966 0.79567 0.0
C1523 C 0.00229 0.73581 0.76388 0.0
C1524 C 0.02338 0.76074 0.75831 0.0
C1525 C 0.02367 0.77568 0.72794 0.0
C1526 C 0.00286 0.76603 0.70311 0.0
C1527 C 0.98166 0.74147 0.70872 0.0
C1528 C 0.98131 0.72638 0.73896 0.0
C1529 C 0.93902 0.67941 0.93856 0.0
C1530 C 0.91764 0.65575 0.92802 0.0
C1531 C 0.95915 0.69305 0.91319 0.0
C1532 C 0.95787 0.68346 0.8768 0.0
C1533 C 0.93591 0.66066 0.86555 0.0
C1534 C 0.91608 0.64674 0.8911 0.0
C1535 C 0.9807 0.69512 0.85219 0.0
C1536 C 0.98099 0.709 0.82032 0.0
C1537 C 0.00194 0.69189 0.85997 0.0
C1538 C 0.00262 0.67769 0.89364 0.0
C1539 C 0.98478 0.6513 0.89794 0.0
C1540 C 0.98499 0.63828 0.93042 0.0
C1541 C 0.00313 0.65141 0.95862 0.0
C1542 C 0.02116 0.67757 0.95431 0.0
C1543 C 0.02098 0.69069 0.9219 0.0
H1544 H 0.00326 0.64131 0.98377 0.0
H1545 H 0.00312 0.77763 0.67961 0.0
H1546 H 0.25175 0.93258 0.13143 0.0
H1547 H 0.25957 0.96646 0.08576 0.0
H1548 H 0.31343 0.95129 0.02695 0.0
H1549 H 0.30543 0.91737 0.07155 0.0
H1550 H 0.30332 0.01054 0.06872 0.0
H1551 H 0.31296 0.96128 0.93468 0.0
H1552 H 0.29578 0.91762 0.90858 0.0
H1553 H 0.22715 0.89068 0.97448 0.0
H1554 H 0.2437 0.93436 0.00058 0.0
H1555 H 0.38633 0.09327 0.93004 0.0
H1556 H 0.36191 0.0599 0.97632 0.0
H1557 H 0.29262 0.03477 0.9115 0.0
H1558 H 0.31711 0.06811 0.86447 0.0
H1559 H 0.29914 0.99514 0.93117 0.0
H1560 H 0.29955 0.06511 0.99568 0.0
H1561 H 0.31959 0.10956 0.02004 0.0
H1562 H 0.36906 0.09546 0.09101 0.0
H1563 H 0.34942 0.05098 0.06703 0.0
C1564 C 0.26512 0.93639 0.1086 0.0
C1565 C 0.27787 0.92219 0.10504 0.0
C1566 C 0.26958 0.95575 0.08258 0.0
C1567 C 0.28673 0.96108 0.05255 0.0
C1568 C 0.29964 0.94711 0.04932 0.0
C1569 C 0.29515 0.92779 0.07508 0.0
C1570 C 0.29213 0.98187 0.02519 0.0
C1571 C 0.30209 0.00714 0.03865 0.0
C1572 C 0.29027 0.97739 0.98589 0.0
C1573 C 0.27968 0.95112 0.96978 0.0
C1574 C 0.29411 0.94612 0.94342 0.0
C1575 C 0.28451 0.92137 0.92867 0.0
C1576 C 0.26049 0.90142 0.94004 0.0
C1577 C 0.24584 0.90618 0.96588 0.0
C1578 C 0.25533 0.93094 0.98068 0.0
C1579 C 0.36587 0.08078 0.92562 0.0
C1580 C 0.35368 0.08326 0.89346 0.0
C1581 C 0.35188 0.06185 0.95234 0.0
C1582 C 0.32537 0.0451 0.94765 0.0
C1583 C 0.31304 0.04764 0.91576 0.0
C1584 C 0.32705 0.06666 0.88893 0.0
C1585 C 0.31122 0.02378 0.97473 0.0
C1586 C 0.2997 0.99844 0.96123 0.0
C1587 C 0.31176 0.02821 0.01389 0.0
C1588 C 0.323 0.05468 0.02949 0.0
C1589 C 0.3147 0.07149 0.0165 0.0
C1590 C 0.32598 0.09669 0.03027 0.0
C1591 C 0.34555 0.10532 0.05713 0.0
C1592 C 0.3538 0.08872 0.07039 0.0
C1593 C 0.34254 0.06348 0.0568 0.0
H1594 H 0.3543 0.12486 0.06762 0.0
H1595 H 0.25333 0.88229 0.92878 0.0
H1596 H 0.51013 0.65743 0.87156 0.0
H1597 H 0.47122 0.6157 0.8798 0.0
H1598 H 0.51473 0.58796 0.9408 0.0
H1599 H 0.55418 0.62967 0.93083 0.0
H1600 H 0.48165 0.5513 0.8977 0.0
H1601 H 0.47501 0.60697 0.9864 0.0
H1602 H 0.47597 0.64625 0.00939 0.0
H1603 H 0.41349 0.63182 0.93571 0.0
H1604 H 0.4124 0.59265 0.91187 0.0
H1605 H 0.36301 0.44679 0.97387 0.0
H1606 H 0.40565 0.48492 0.96668 0.0
H1607 H 0.37548 0.51542 0.88404 0.0
H1608 H 0.33304 0.47702 0.88985 0.0
H1609 H 0.40292 0.54951 0.94445 0.0
H1610 H 0.41208 0.49347 0.85518 0.0
H1611 H 0.41152 0.45361 0.83629 0.0
H1612 H 0.46974 0.46804 0.91826 0.0
H1613 H 0.47038 0.50782 0.93801 0.0
C1614 C 0.51134 0.64241 0.8868 0.0
C1615 C 0.53496 0.64674 0.90105 0.0
C1616 C 0.4891 0.61861 0.89164 0.0
C1617 C 0.48986 0.59887 0.91183 0.0
C1618 C 0.51363 0.60296 0.92537 0.0
C1619 C 0.53609 0.62672 0.91981 0.0
C1620 C 0.46572 0.57412 0.91863 0.0
C1621 C 0.46457 0.5509 0.90853 0.0
C1622 C 0.44333 0.57351 0.93266 0.0
C1623 C 0.44375 0.59695 0.94717 0.0
C1624 C 0.46157 0.61225 0.97494 0.0
C1625 C 0.46213 0.63449 0.98814 0.0
C1626 C 0.44483 0.64155 0.97397 0.0
C1627 C 0.42689 0.62634 0.94665 0.0
C1628 C 0.42627 0.60409 0.93332 0.0
C1629 C 0.36552 0.46131 0.95353 0.0
C1630 C 0.34448 0.45886 0.9326 0.0
C1631 C 0.38988 0.48314 0.94964 0.0
C1632 C 0.39362 0.50293 0.92491 0.0
C1633 C 0.37288 0.50036 0.90345 0.0
C1634 C 0.3486 0.47847 0.90701 0.0
C1635 C 0.4188 0.52697 0.92264 0.0
C1636 C 0.42011 0.55 0.93386 0.0
C1637 C 0.44136 0.52729 0.9104 0.0
C1638 C 0.44107 0.50347 0.89835 0.0
C1639 C 0.4246 0.48802 0.86941 0.0
C1640 C 0.4243 0.46547 0.8585 0.0
C1641 C 0.44052 0.45825 0.87614 0.0
C1642 C 0.45715 0.47363 0.90466 0.0
C1643 C 0.4575 0.49619 0.9157 0.0
H1644 H 0.44026 0.44078 0.86766 0.0
H1645 H 0.4453 0.65878 0.98422 0.0
H1646 H 0.85007 0.34508 0.10414 0.0
H1647 H 0.85532 0.38776 0.09484 0.0
H1648 H 0.93438 0.41724 0.06234 0.0
H1649 H 0.92917 0.37435 0.07074 0.0
H1650 H 0.92896 0.44879 0.1134 0.0
H1651 H 0.89177 0.40772 0.99636 0.0
H1652 H 0.86022 0.37323 0.95522 0.0
H1653 H 0.79982 0.38377 0.00042 0.0
H1654 H 0.83096 0.41809 0.04224 0.0
H1655 H 0.90752 0.54973 0.00345 0.0
H1656 H 0.90954 0.51017 0.00747 0.0
H1657 H 0.89619 0.50697 0.127 0.0
H1658 H 0.89487 0.5471 0.1234 0.0
H1659 H 0.87226 0.46349 0.0279 0.0
H1660 H 0.92616 0.47715 0.16873 0.0
H1661 H 0.95972 0.51237 0.20679 0.0
H1662 H 0.99087 0.55847 0.10749 0.0
H1663 H 0.95774 0.52341 0.06878 0.0
C1664 C 0.86847 0.36047 0.09434 0.0
C1665 C 0.88916 0.35617 0.08802 0.0
C1666 C 0.87147 0.38492 0.08927 0.0
C1667 C 0.8952 0.40562 0.07776 0.0
C1668 C 0.91593 0.40151 0.0714 0.0
C1669 C 0.91291 0.37699 0.0763 0.0
C1670 C 0.89831 0.43159 0.07276 0.0
C1671 C 0.91662 0.45206 0.09466 0.0
C1672 C 0.88245 0.43589 0.0479 0.0
C1673 C 0.86367 0.41533 0.02266 0.0
C1674 C 0.87173 0.40255 0.99774 0.0
C1675 C 0.85392 0.38305 0.97426 0.0
C1676 C 0.82802 0.37627 0.97527 0.0
C1677 C 0.81988 0.38903 0.9997 0.0
C1678 C 0.83761 0.40852 0.02327 0.0
C1679 C 0.90557 0.54097 0.03078 0.0
C1680 C 0.90116 0.55169 0.06317 0.0
C1681 C 0.90647 0.51819 0.03293 0.0
C1682 C 0.9031 0.50566 0.0675 0.0
C1683 C 0.8991 0.51646 0.10005 0.0
C1684 C 0.89815 0.53929 0.09792 0.0
C1685 C 0.90261 0.48067 0.06906 0.0
C1686 C 0.88469 0.46031 0.04657 0.0
C1687 C 0.91909 0.47662 0.09298 0.0
C1688 C 0.93929 0.49773 0.11593 0.0
C1689 C 0.94023 0.49477 0.15501 0.0
C1690 C 0.95917 0.51471 0.17669 0.0
C1691 C 0.97736 0.53767 0.15958 0.0
C1692 C 0.9767 0.54071 0.12073 0.0
C1693 C 0.95782 0.52082 0.09891 0.0
H1694 H 0.99199 0.55309 0.17642 0.0
H1695 H 0.81426 0.36117 0.95706 0.0
H1696 H 0.54867 0.89452 0.20238 0.0
H1697 H 0.50917 0.89694 0.19569 0.0
H1698 H 0.50552 0.90306 0.31605 0.0
H1699 H 0.54504 0.90103 0.32287 0.0
H1700 H 0.45875 0.86356 0.27933 0.0
H1701 H 0.52266 0.95415 0.2709 0.0
H1702 H 0.56123 0.99156 0.2444 0.0
H1703 H 0.52517 0.97608 0.13587 0.0
H1704 H 0.4865 0.93832 0.16163 0.0
H1705 H 0.35527 0.88679 0.29443 0.0
H1706 H 0.39749 0.89025 0.30092 0.0
H1707 H 0.41145 0.907 0.18239 0.0
H1708 H 0.36975 0.90467 0.17631 0.0
H1709 H 0.45373 0.93504 0.21724 0.0
H1710 H 0.39114 0.84535 0.22108 0.0
H1711 H 0.3524 0.80603 0.24298 0.0
H1712 H 0.38517 0.81656 0.35336 0.0
H1713 H 0.42397 0.85617 0.33224 0.0
C1714 C 0.5395 0.89658 0.22731 0.0
C1715 C 0.54993 0.89772 0.26311 0.0
C1716 C 0.51705 0.89802 0.22347 0.0
C1717 C 0.50454 0.90021 0.25541 0.0
C1718 C 0.51497 0.90142 0.29111 0.0
C1719 C 0.53759 0.90043 0.29492 0.0
C1720 C 0.48006 0.90034 0.25185 0.0
C1721 C 0.45762 0.87931 0.2662 0.0
C1722 C 0.47862 0.92049 0.23356 0.0
C1723 C 0.5018 0.94325 0.21811 0.0
C1724 C 0.52304 0.95857 0.24131 0.0
C1725 C 0.5449 0.97987 0.22644 0.0
C1726 C 0.54568 0.98615 0.18845 0.0
C1727 C 0.52456 0.97117 0.16527 0.0
C1728 C 0.50266 0.94983 0.18 0.0
C1729 C 0.36749 0.89138 0.2699 0.0
C1730 C 0.3593 0.89538 0.23487 0.0
C1731 C 0.39154 0.89322 0.27353 0.0
C1732 C 0.40749 0.89833 0.24196 0.0
C1733 C 0.39954 0.90301 0.20716 0.0
C1734 C 0.37573 0.90168 0.20369 0.0
C1735 C 0.43216 0.89824 0.24498 0.0
C1736 C 0.4547 0.91923 0.23043 0.0
C1737 C 0.43362 0.87773 0.26239 0.0
C1738 C 0.41035 0.85387 0.27517 0.0
C1739 C 0.39001 0.83938 0.25009 0.0
C1740 C 0.36805 0.81703 0.26236 0.0
C1741 C 0.3663 0.80884 0.29957 0.0
C1742 C 0.38654 0.82295 0.32456 0.0
C1743 C 0.40852 0.84534 0.31246 0.0
H1744 H 0.34928 0.79153 0.30901 0.0
H1745 H 0.56262 0.00265 0.17699 0.0
H1746 H 0.45375 0.3651 0.35277 0.0
H1747 H 0.49191 0.40733 0.35969 0.0
H1748 H 0.51551 0.38008 0.45553 0.0
H1749 H 0.47622 0.33844 0.45097 0.0
H1750 H 0.52697 0.42622 0.4689 0.0
H1751 H 0.54064 0.38535 0.36267 0.0
H1752 H 0.53094 0.36335 0.30125 0.0
H1753 H 0.53316 0.42894 0.24874 0.0
H1754 H 0.54255 0.45121 0.30998 0.0
H1755 H 0.66293 0.51085 0.45582 0.0
H1756 H 0.62021 0.47259 0.44911 0.0
H1757 H 0.59346 0.51793 0.39113 0.0
H1758 H 0.63618 0.55658 0.3986 0.0
H1759 H 0.58292 0.46537 0.35741 0.0
H1760 H 0.57263 0.50648 0.46797 0.0
H1761 H 0.58566 0.52702 0.53031 0.0
H1762 H 0.5807 0.45823 0.57546 0.0
H1763 H 0.56804 0.43743 0.51319 0.0
C1764 C 0.46666 0.36812 0.37592 0.0
C1765 C 0.46178 0.34803 0.40112 0.0
C1766 C 0.4888 0.39229 0.37944 0.0
C1767 C 0.50702 0.3968 0.40753 0.0
C1768 C 0.5019 0.37708 0.43337 0.0
C1769 C 0.47949 0.35306 0.43037 0.0
C1770 C 0.5316 0.42185 0.40969 0.0
C1771 C 0.53921 0.43459 0.4445 0.0
C1772 C 0.5476 0.43313 0.37784 0.0
C1773 C 0.54201 0.41982 0.34097 0.0
C1774 C 0.53887 0.395 0.33807 0.0
C1775 C 0.53346 0.38249 0.30329 0.0
C1776 C 0.53135 0.3947 0.27113 0.0
C1777 C 0.53474 0.41948 0.27368 0.0
C1778 C 0.54013 0.43206 0.30842 0.0
C1779 C 0.64797 0.51261 0.44146 0.0
C1780 C 0.65278 0.53658 0.42761 0.0
C1781 C 0.62362 0.49082 0.43779 0.0
C1782 C 0.6038 0.49255 0.41972 0.0
C1783 C 0.60861 0.51632 0.40518 0.0
C1784 C 0.63289 0.5383 0.40954 0.0
C1785 C 0.57804 0.46936 0.41643 0.0
C1786 C 0.57037 0.45699 0.38153 0.0
C1787 C 0.56228 0.45812 0.44829 0.0
C1788 C 0.56963 0.4705 0.48583 0.0
C1789 C 0.57455 0.49582 0.4911 0.0
C1790 C 0.58182 0.50749 0.52644 0.0
C1791 C 0.58407 0.49396 0.55681 0.0
C1792 C 0.57898 0.4687 0.55191 0.0
C1793 C 0.57173 0.45695 0.5166 0.0
H1794 H 0.5897 0.50303 0.58415 0.0
H1795 H 0.52716 0.38499 0.24423 0.0
H1796 H 0.07682 0.62914 0.58275 0.0
H1797 H 0.07366 0.58681 0.57828 0.0
H1798 H 0.1502 0.61908 0.62442 0.0
H1799 H 0.15372 0.66142 0.62738 0.0
H1800 H 0.14617 0.5899 0.56991 0.0
H1801 H 0.09267 0.57985 0.67631 0.0
H1802 H 0.05723 0.58048 0.71041 0.0
H1803 H 0.00237 0.52385 0.63461 0.0
H1804 H 0.03753 0.52313 0.59974 0.0
H1805 H 0.14385 0.47579 0.62684 0.0
H1806 H 0.14078 0.51476 0.6323 0.0
H1807 H 0.07734 0.48334 0.5543 0.0
H1808 H 0.08097 0.44476 0.54705 0.0
H1809 H 0.07273 0.51038 0.62261 0.0
H1810 H 0.12846 0.5211 0.51753 0.0
H1811 H 0.16495 0.52018 0.48732 0.0
H1812 H 0.21706 0.57612 0.56644 0.0
H1813 H 0.18078 0.57705 0.59751 0.0
C1814 C 0.0929 0.62707 0.59192 0.0
C1815 C 0.11554 0.64848 0.60527 0.0
C1816 C 0.09105 0.60289 0.58957 0.0
C1817 C 0.11157 0.59961 0.60148 0.0
C1818 C 0.13414 0.62107 0.61492 0.0
C1819 C 0.13615 0.64526 0.6166 0.0
C1820 C 0.10997 0.57407 0.59934 0.0
C1821 C 0.13021 0.57265 0.58187 0.0
C1822 C 0.08893 0.5513 0.61421 0.0
C1823 C 0.06776 0.55164 0.63519 0.0
C1824 C 0.07307 0.56767 0.66675 0.0
C1825 C 0.05303 0.56802 0.68624 0.0
C1826 C 0.02758 0.55227 0.67462 0.0
C1827 C 0.0221 0.53607 0.64354 0.0
C1828 C 0.04207 0.53567 0.62392 0.0
C1829 C 0.12927 0.47709 0.61069 0.0
C1830 C 0.1129 0.45716 0.58609 0.0
C1831 C 0.1274 0.4993 0.61416 0.0
C1832 C 0.10893 0.50189 0.59353 0.0
C1833 C 0.09164 0.48157 0.57055 0.0
C1834 C 0.09371 0.45948 0.56662 0.0
C1835 C 0.10905 0.52661 0.59383 0.0
C1836 C 0.08858 0.52777 0.61072 0.0
C1837 C 0.13002 0.54925 0.57898 0.0
C1838 C 0.15188 0.54894 0.56006 0.0
C1839 C 0.14767 0.53303 0.52868 0.0
C1840 C 0.16832 0.53254 0.51137 0.0
C1841 C 0.1933 0.54803 0.52502 0.0
C1842 C 0.19769 0.5641 0.55593 0.0
C1843 C 0.1771 0.56464 0.57339 0.0
H1844 H 0.20926 0.54762 0.51158 0.0
H1845 H 0.01209 0.55257 0.68974 0.0
H1846 H 0.64955 0.11392 0.7968 0.0
H1847 H 0.60749 0.1114 0.80096 0.0
H1848 H 0.59729 0.09857 0.68136 0.0
H1849 H 0.63904 0.10077 0.67708 0.0
H1850 H 0.58905 0.13903 0.71069 0.0
H1851 H 0.56394 0.0499 0.73274 0.0
H1852 H 0.56613 0.0147 0.7652 0.0
H1853 H 0.54657 0.03649 0.86969 0.0
H1854 H 0.54464 0.07208 0.83792 0.0
H1855 H 0.46105 0.11391 0.69731 0.0
H1856 H 0.50013 0.11089 0.69132 0.0
H1857 H 0.50097 0.10128 0.81154 0.0
H1858 H 0.46132 0.10302 0.81719 0.0
H1859 H 0.51424 0.07149 0.78101 0.0
H1860 H 0.54082 0.16063 0.76392 0.0
H1861 H 0.54054 0.19809 0.73576 0.0
H1862 H 0.55983 0.1799 0.62819 0.0
H1863 H 0.55988 0.14211 0.65563 0.0
C1864 C 0.63821 0.1104 0.7715 0.0
C1865 C 0.64744 0.10742 0.73666 0.0
C1866 C 0.61424 0.1089 0.77391 0.0
C1867 C 0.59935 0.10476 0.74145 0.0
C1868 C 0.60851 0.10173 0.70669 0.0
C1869 C 0.63224 0.10282 0.70436 0.0
C1870 C 0.57454 0.10433 0.74346 0.0
C1871 C 0.57253 0.1241 0.72562 0.0
C1872 C 0.55339 0.08529 0.76395 0.0
C1873 C 0.55441 0.06381 0.78302 0.0
C1874 C 0.56034 0.04733 0.7627 0.0
C1875 C 0.56148 0.02728 0.78096 0.0
C1876 C 0.55656 0.0234 0.81951 0.0
C1877 C 0.55041 0.03954 0.83984 0.0
C1878 C 0.54927 0.05964 0.82172 0.0
C1879 C 0.46958 0.11101 0.72232 0.0
C1880 C 0.45827 0.1087 0.75768 0.0
C1881 C 0.49197 0.10943 0.71897 0.0
C1882 C 0.50386 0.10635 0.75108 0.0
C1883 C 0.49223 0.10362 0.78633 0.0
C1884 C 0.46959 0.10464 0.78956 0.0
C1885 C 0.52857 0.1063 0.74823 0.0
C1886 C 0.53065 0.08646 0.76597 0.0
C1887 C 0.55002 0.12564 0.72831 0.0
C1888 C 0.55009 0.14839 0.71175 0.0
C1889 C 0.54482 0.16451 0.73421 0.0
C1890 C 0.54473 0.18582 0.71839 0.0
C1891 C 0.5501 0.19133 0.68019 0.0
C1892 C 0.55564 0.17558 0.65776 0.0
C1893 C 0.55572 0.15423 0.67343 0.0
H1894 H 0.55002 0.20783 0.66799 0.0
H1895 H 0.55745 0.00786 0.83359 0.0
loop_
_geom_bond_atom_site_label_1
_geom_bond_atom_site_label_2
_geom_bond_distance
_geom_bond_site_symmetry_2
_ccdc_geom_bond_type
C0 C1 1.351 . S
C0 N3 1.368 . S
C0 H5 0.931 . S
C1 C0 1.351 . S
C1 N2 1.373 . S
C1 H29 0.930 . S
N2 C1 1.373 . S
N2 C4 1.340 . S
N3 C0 1.368 . S
N3 C4 1.321 . S
N3 Co6 2.135 1_556 S
C4 N2 1.340 . S
C4 N3 1.321 . S
C4 H28 0.930 . S
H5 C0 0.931 . S
Co6 N3 2.135 1_554 S
Co6 N9 2.121 . S
Co6 O14 2.055 . S
Co6 O17 2.039 . S
Co6 N20 2.140 1_554 S
C7 O8 1.227 . S
C7 O17 1.265 . S
O8 C7 1.227 . S
N9 Co6 2.121 . S
N9 C11 1.375 . S
N9 C12 1.313 . S
C10 C11 1.338 . S
C10 N13 1.377 . S
C10 H30 0.930 . S
C11 N9 1.375 . S
C11 C10 1.338 . S
C11 H15 0.931 . S
C12 N9 1.313 . S
C12 N13 1.344 . S
C12 H16 0.930 . S
N13 C10 1.377 . S
N13 C12 1.344 . S
O14 Co6 2.055 . S
O14 C18 1.253 1_554 S
H15 C11 0.931 . S
H16 C12 0.930 . S
O17 Co6 2.039 . S
O17 C7 1.265 . S
C18 O14 1.253 1_556 S
C18 O19 1.227 . S
O19 C18 1.227 . S
N20 Co6 2.140 1_556 S
N20 C23 1.346 . S
N20 C24 1.345 . S
C21 C22 1.387 . S
C21 C25 1.391 . S
C22 C21 1.387 . S
C22 C23 1.369 . S
C22 H31 0.929 . S
C23 N20 1.346 . S
C23 C22 1.369 . S
C23 H26 0.928 . S
C24 N20 1.345 . S
C24 C25 1.371 . S
C24 H27 0.931 . S
C25 C21 1.391 . S
C25 C24 1.371 . S
C25 H32 0.930 . S
H26 C23 0.928 . S
H27 C24 0.931 . S
H28 C4 0.930 . S
H29 C1 0.930 . S
H30 C10 0.930 . S
H31 C22 0.929 . S
H32 C25 0.930 . S
C33 C34 1.351 . S
C33 N36 1.368 . S
C33 H38 0.931 . S
C34 C33 1.351 . S
C34 N35 1.373 . S
C34 H62 0.930 . S
N35 C34 1.373 . S
N35 C37 1.340 . S
N36 C33 1.368 . S
N36 C37 1.321 . S
N36 Co39 2.135 . S
C37 N35 1.340 . S
C37 N36 1.321 . S
C37 H61 0.930 . S
H38 C33 0.931 . S
Co39 N36 2.135 . S
Co39 N42 2.121 . S
Co39 O47 2.055 . S
Co39 O50 2.039 . S
Co39 N53 2.140 . S
C40 O41 1.227 . S
C40 O50 1.265 . S
O41 C40 1.227 . S
N42 Co39 2.121 . S
N42 C44 1.375 . S
N42 C45 1.313 . S
C43 C44 1.338 . S
C43 N46 1.377 . S
C43 H63 0.930 . S
C44 N42 1.375 . S
C44 C43 1.338 . S
C44 H48 0.931 . S
C45 N42 1.313 . S
C45 N46 1.344 . S
C45 H49 0.930 . S
N46 C43 1.377 . S
N46 C45 1.344 . S
O47 Co39 2.055 . S
O47 C51 1.253 . S
H48 C44 0.931 . S
H49 C45 0.930 . S
O50 Co39 2.039 . S
O50 C40 1.265 . S
C51 O47 1.253 . S
C51 O52 1.227 . S
O52 C51 1.227 . S
N53 Co39 2.140 . S
N53 C56 1.346 . S
N53 C57 1.345 . S
C54 C55 1.387 . S
C54 C58 1.391 . S
C55 C54 1.387 . S
C55 C56 1.369 . S
C55 H64 0.929 . S
C56 N53 1.346 . S
C56 C55 1.369 . S
C56 H59 0.928 . S
C57 N53 1.345 . S
C57 C58 1.371 . S
C57 H60 0.931 . S
C58 C54 1.391 . S
C58 C57 1.371 . S
C58 H65 0.930 . S
H59 C56 0.928 . S
H60 C57 0.931 . S
H61 C37 0.930 . S
H62 C34 0.930 . S
H63 C43 0.930 . S
H64 C55 0.929 . S
H65 C58 0.930 . S
C66 C67 1.351 . S
C66 N69 1.368 . S
C66 H71 0.931 . S
C67 C66 1.351 . S
C67 N68 1.373 . S
C67 H95 0.930 . S
N68 C67 1.373 . S
N68 C70 1.340 . S
N69 C66 1.368 . S
N69 C70 1.321 . S
N69 Co72 2.135 . S
C70 N68 1.340 . S
C70 N69 1.321 . S
C70 H94 0.930 . S
H71 C66 0.931 . S
Co72 N69 2.135 . S
Co72 N75 2.121 . S
Co72 O80 2.055 . S
Co72 O83 2.039 . S
Co72 N86 2.140 . S
C73 O74 1.227 . S
C73 O83 1.265 . S
O74 C73 1.227 . S
N75 Co72 2.121 . S
N75 C77 1.375 . S
N75 C78 1.313 . S
C76 C77 1.338 . S
C76 N79 1.377 . S
C76 H96 0.930 . S
C77 N75 1.375 . S
C77 C76 1.338 . S
C77 H81 0.931 . S
C78 N75 1.313 . S
C78 N79 1.344 . S
C78 H82 0.930 . S
N79 C76 1.377 . S
N79 C78 1.344 . S
O80 Co72 2.055 . S
O80 C84 1.253 . S
H81 C77 0.931 . S
H82 C78 0.930 . S
O83 Co72 2.039 . S
O83 C73 1.265 . S
C84 O80 1.253 . S
C84 O85 1.227 . S
O85 C84 1.227 . S
N86 Co72 2.140 . S
N86 C89 1.346 . S
N86 C90 1.345 . S
C87 C88 1.387 . S
C87 C91 1.391 . S
C88 C87 1.387 . S
C88 C89 1.369 . S
C88 H97 0.929 . S
C89 N86 1.346 . S
C89 C88 1.369 . S
C89 H92 0.928 . S
C90 N86 1.345 . S
C90 C91 1.371 . S
C90 H93 0.931 . S
C91 C87 1.391 . S
C91 C90 1.371 . S
C91 H98 0.930 . S
H92 C89 0.928 . S
H93 C90 0.931 . S
H94 C70 0.930 . S
H95 C67 0.930 . S
H96 C76 0.930 . S
H97 C88 0.929 . S
H98 C91 0.930 . S
C99 C100 1.351 . S
C99 N102 1.368 . S
C99 H104 0.931 . S
C100 C99 1.351 . S
C100 N101 1.373 . S
C100 H128 0.930 . S
N101 C100 1.373 . S
N101 C103 1.340 . S
N102 C99 1.368 . S
N102 C103 1.321 . S
N102 Co105 2.135 . S
C103 N101 1.340 . S
C103 N102 1.321 . S
C103 H127 0.930 . S
H104 C99 0.931 . S
Co105 N102 2.135 . S
Co105 N108 2.121 . S
Co105 O113 2.055 . S
Co105 O116 2.039 . S
Co105 N119 2.140 . S
C106 O107 1.227 . S
C106 O116 1.265 . S
O107 C106 1.227 . S
N108 Co105 2.121 . S
N108 C110 1.375 . S
N108 C111 1.313 . S
C109 C110 1.338 . S
C109 N112 1.377 . S
C109 H129 0.930 . S
C110 N108 1.375 . S
C110 C109 1.338 . S
C110 H114 0.931 . S
C111 N108 1.313 . S
C111 N112 1.344 . S
C111 H115 0.930 . S
N112 C109 1.377 . S
N112 C111 1.344 . S
O113 Co105 2.055 . S
O113 C117 1.253 . S
H114 C110 0.931 . S
H115 C111 0.930 . S
O116 Co105 2.039 . S
O116 C106 1.265 . S
C117 O113 1.253 . S
C117 O118 1.227 . S
O118 C117 1.227 . S
N119 Co105 2.140 . S
N119 C122 1.346 . S
N119 C123 1.345 . S
C120 C121 1.387 . S
C120 C124 1.391 . S
C121 C120 1.387 . S
C121 C122 1.369 . S
C121 H130 0.929 . S
C122 N119 1.346 . S
C122 C121 1.369 . S
C122 H125 0.928 . S
C123 N119 1.345 . S
C123 C124 1.371 . S
C123 H126 0.931 . S
C124 C120 1.391 . S
C124 C123 1.371 . S
C124 H131 0.930 . S
H125 C122 0.928 . S
H126 C123 0.931 . S
H127 C103 0.930 . S
H128 C100 0.930 . S
H129 C109 0.930 . S
H130 C121 0.929 . S
H131 C124 0.930 . S
C132 C133 1.351 . S
C132 N135 1.368 . S
C132 H137 0.931 . S
C133 C132 1.351 . S
C133 N134 1.373 . S
C133 H161 0.930 . S
N134 C133 1.373 . S
N134 C136 1.340 . S
N135 C132 1.368 . S
N135 C136 1.321 . S
N135 Co138 2.135 . S
C136 N134 1.340 . S
C136 N135 1.321 . S
C136 H160 0.930 . S
H137 C132 0.931 . S
Co138 N135 2.135 . S
Co138 N141 2.121 . S
Co138 O146 2.055 . S
Co138 O149 2.039 . S
Co138 N152 2.140 . S
C139 O140 1.227 . S
C139 O149 1.265 . S
O140 C139 1.227 . S
N141 Co138 2.121 . S
N141 C143 1.375 . S
N141 C144 1.313 . S
C142 C143 1.338 . S
C142 N145 1.377 . S
C142 H162 0.930 . S
C143 N141 1.375 . S
C143 C142 1.338 . S
C143 H147 0.931 . S
C144 N141 1.313 . S
C144 N145 1.344 . S
C144 H148 0.930 . S
N145 C142 1.377 . S
N145 C144 1.344 . S
O146 Co138 2.055 . S
O146 C150 1.253 . S
H147 C143 0.931 . S
H148 C144 0.930 . S
O149 Co138 2.039 . S
O149 C139 1.265 . S
C150 O146 1.253 . S
C150 O151 1.227 . S
O151 C150 1.227 . S
N152 Co138 2.140 . S
N152 C155 1.346 . S
N152 C156 1.345 . S
C153 C154 1.387 . S
C153 C157 1.391 . S
C154 C153 1.387 . S
C154 C155 1.369 . S
C154 H163 0.929 . S
C155 N152 1.346 . S
C155 C154 1.369 . S
C155 H158 0.928 . S
C156 N152 1.345 . S
C156 C157 1.371 . S
C156 H159 0.931 . S
C157 C153 1.391 . S
C157 C156 1.371 . S
C157 H164 0.930 . S
H158 C155 0.928 . S
H159 C156 0.931 . S
H160 C136 0.930 . S
H161 C133 0.930 . S
H162 C142 0.930 . S
H163 C154 0.929 . S
H164 C157 0.930 . S
C165 C166 1.351 . S
C165 N168 1.368 . S
C165 H170 0.931 . S
C166 C165 1.351 . S
C166 N167 1.373 . S
C166 H194 0.930 . S
N167 C166 1.373 . S
N167 C169 1.340 . S
N168 C165 1.368 . S
N168 C169 1.321 . S
N168 Co171 2.135 . S
C169 N167 1.340 . S
C169 N168 1.321 . S
C169 H193 0.930 . S
H170 C165 0.931 . S
Co171 N168 2.135 . S
Co171 N174 2.121 . S
Co171 O179 2.055 . S
Co171 O182 2.039 . S
Co171 N185 2.140 . S
C172 O173 1.227 . S
C172 O182 1.265 . S
O173 C172 1.227 . S
N174 Co171 2.121 . S
N174 C176 1.375 . S
N174 C177 1.313 . S
C175 C176 1.338 . S
C175 N178 1.377 . S
C175 H195 0.930 . S
C176 N174 1.375 . S
C176 C175 1.338 . S
C176 H180 0.931 . S
C177 N174 1.313 . S
C177 N178 1.344 . S
C177 H181 0.930 . S
N178 C175 1.377 . S
N178 C177 1.344 . S
O179 Co171 2.055 . S
O179 C183 1.253 . S
H180 C176 0.931 . S
H181 C177 0.930 . S
O182 Co171 2.039 . S
O182 C172 1.265 . S
C183 O179 1.253 . S
C183 O184 1.227 . S
O184 C183 1.227 . S
N185 Co171 2.140 . S
N185 C188 1.346 . S
N185 C189 1.345 . S
C186 C187 1.387 . S
C186 C190 1.391 . S
C187 C186 1.387 . S
C187 C188 1.369 . S
C187 H196 0.929 . S
C188 N185 1.346 . S
C188 C187 1.369 . S
C188 H191 0.928 . S
C189 N185 1.345 . S
C189 C190 1.371 . S
C189 H192 0.931 . S
C190 C186 1.391 . S
C190 C189 1.371 . S
C190 H197 0.930 . S
H191 C188 0.928 . S
H192 C189 0.931 . S
H193 C169 0.930 . S
H194 C166 0.930 . S
H195 C175 0.930 . S
H196 C187 0.929 . S
H197 C190 0.930 . S
C198 C199 1.351 . S
C198 N201 1.368 . S
C198 H203 0.931 . S
C199 C198 1.351 . S
C199 N200 1.373 . S
C199 H227 0.930 . S
N200 C199 1.373 . S
N200 C202 1.340 . S
N201 C198 1.368 . S
N201 C202 1.321 . S
N201 Co204 2.135 . S
C202 N200 1.340 . S
C202 N201 1.321 . S
C202 H226 0.930 . S
H203 C198 0.931 . S
Co204 N201 2.135 . S
Co204 N207 2.121 . S
Co204 O212 2.055 . S
Co204 O215 2.039 . S
Co204 N218 2.140 . S
C205 O206 1.227 . S
C205 O215 1.265 . S
O206 C205 1.227 . S
N207 Co204 2.121 . S
N207 C209 1.375 . S
N207 C210 1.313 . S
C208 C209 1.338 . S
C208 N211 1.377 . S
C208 H228 0.930 . S
C209 N207 1.375 . S
C209 C208 1.338 . S
C209 H213 0.931 . S
C210 N207 1.313 . S
C210 N211 1.344 . S
C210 H214 0.930 . S
N211 C208 1.377 . S
N211 C210 1.344 . S
O212 Co204 2.055 . S
O212 C216 1.253 . S
H213 C209 0.931 . S
H214 C210 0.930 . S
O215 Co204 2.039 . S
O215 C205 1.265 . S
C216 O212 1.253 . S
C216 O217 1.227 . S
O217 C216 1.227 . S
N218 Co204 2.140 . S
N218 C221 1.346 . S
N218 C222 1.345 . S
C219 C220 1.387 . S
C219 C223 1.391 . S
C220 C219 1.387 . S
C220 C221 1.369 . S
C220 H229 0.929 . S
C221 N218 1.346 . S
C221 C220 1.369 . S
C221 H224 0.928 . S
C222 N218 1.345 . S
C222 C223 1.371 . S
C222 H225 0.931 . S
C223 C219 1.391 . S
C223 C222 1.371 . S
C223 H230 0.930 . S
H224 C221 0.928 . S
H225 C222 0.931 . S
H226 C202 0.930 . S
H227 C199 0.930 . S
H228 C208 0.930 . S
H229 C220 0.929 . S
H230 C223 0.930 . S
C231 C232 1.351 . S
C231 N234 1.368 . S
C231 H236 0.931 . S
C232 C231 1.351 . S
C232 N233 1.373 . S
C232 H260 0.930 . S
N233 C232 1.373 . S
N233 C235 1.340 . S
N234 C231 1.368 . S
N234 C235 1.321 . S
N234 Co237 2.135 1_554 S
C235 N233 1.340 . S
C235 N234 1.321 . S
C235 H259 0.930 . S
H236 C231 0.931 . S
Co237 N234 2.135 1_556 S
Co237 N240 2.121 . S
Co237 O245 2.055 . S
Co237 O248 2.039 . S
Co237 N251 2.140 1_556 S
C238 O239 1.227 . S
C238 O248 1.265 . S
O239 C238 1.227 . S
N240 Co237 2.121 . S
N240 C242 1.375 . S
N240 C243 1.313 . S
C241 C242 1.338 . S
C241 N244 1.377 . S
C241 H261 0.930 . S
C242 N240 1.375 . S
C242 C241 1.338 . S
C242 H246 0.931 . S
C243 N240 1.313 . S
C243 N244 1.344 . S
C243 H247 0.930 . S
N244 C241 1.377 . S
N244 C243 1.344 . S
O245 Co237 2.055 . S
O245 C249 1.253 1_556 S
H246 C242 0.931 . S
H247 C243 0.930 . S
O248 Co237 2.039 . S
O248 C238 1.265 . S
C249 O245 1.253 1_554 S
C249 O250 1.227 . S
O250 C249 1.227 . S
N251 Co237 2.140 1_554 S
N251 C254 1.346 . S
N251 C255 1.345 . S
C252 C253 1.387 . S
C252 C256 1.391 . S
C253 C252 1.387 . S
C253 C254 1.369 . S
C253 H262 0.929 . S
C254 N251 1.346 . S
C254 C253 1.369 . S
C254 H257 0.928 . S
C255 N251 1.345 . S
C255 C256 1.371 . S
C255 H258 0.931 . S
C256 C252 1.391 . S
C256 C255 1.371 . S
C256 H263 0.930 . S
H257 C254 0.928 . S
H258 C255 0.931 . S
H259 C235 0.930 . S
H260 C232 0.930 . S
H261 C241 0.930 . S
H262 C253 0.929 . S
H263 C256 0.930 . S
C264 C265 1.351 . S
C264 N267 1.368 . S
C264 H269 0.931 . S
C265 C264 1.351 . S
C265 N266 1.373 . S
C265 H293 0.930 . S
N266 C265 1.373 . S
N266 C268 1.340 . S
N267 C264 1.368 . S
N267 C268 1.321 . S
N267 Co270 2.135 . S
C268 N266 1.340 . S
C268 N267 1.321 . S
C268 H292 0.930 . S
H269 C264 0.931 . S
Co270 N267 2.135 . S
Co270 N273 2.121 . S
Co270 O278 2.055 . S
Co270 O281 2.039 . S
Co270 N284 2.140 . S
C271 O272 1.227 . S
C271 O281 1.265 . S
O272 C271 1.227 . S
N273 Co270 2.121 . S
N273 C275 1.375 . S
N273 C276 1.313 . S
C274 C275 1.338 . S
C274 N277 1.377 . S
C274 H294 0.930 . S
C275 N273 1.375 . S
C275 C274 1.338 . S
C275 H279 0.931 . S
C276 N273 1.313 . S
C276 N277 1.344 . S
C276 H280 0.930 . S
N277 C274 1.377 . S
N277 C276 1.344 . S
O278 Co270 2.055 . S
O278 C282 1.253 . S
H279 C275 0.931 . S
H280 C276 0.930 . S
O281 Co270 2.039 . S
O281 C271 1.265 . S
C282 O278 1.253 . S
C282 O283 1.227 . S
O283 C282 1.227 . S
N284 Co270 2.140 . S
N284 C287 1.346 . S
N284 C288 1.345 . S
C285 C286 1.387 . S
C285 C289 1.391 . S
C286 C285 1.387 . S
C286 C287 1.369 . S
C286 H295 0.929 . S
C287 N284 1.346 . S
C287 C286 1.369 . S
C287 H290 0.928 . S
C288 N284 1.345 . S
C288 C289 1.371 . S
C288 H291 0.931 . S
C289 C285 1.391 . S
C289 C288 1.371 . S
C289 H296 0.930 . S
H290 C287 0.928 . S
H291 C288 0.931 . S
H292 C268 0.930 . S
H293 C265 0.930 . S
H294 C274 0.930 . S
H295 C286 0.929 . S
H296 C289 0.930 . S
C297 C298 1.351 . S
C297 N300 1.368 . S
C297 H302 0.931 . S
C298 C297 1.351 . S
C298 N299 1.373 . S
C298 H326 0.930 . S
N299 C298 1.373 . S
N299 C301 1.340 . S
N300 C297 1.368 . S
N300 C301 1.321 . S
N300 Co303 2.135 . S
C301 N299 1.340 . S
C301 N300 1.321 . S
C301 H325 0.930 . S
H302 C297 0.931 . S
Co303 N300 2.135 . S
Co303 N306 2.121 . S
Co303 O311 2.055 . S
Co303 O314 2.039 . S
Co303 N317 2.140 . S
C304 O305 1.227 . S
C304 O314 1.265 . S
O305 C304 1.227 . S
N306 Co303 2.121 . S
N306 C308 1.375 . S
N306 C309 1.313 . S
C307 C308 1.338 . S
C307 N310 1.377 . S
C307 H327 0.930 . S
C308 N306 1.375 . S
C308 C307 1.338 . S
C308 H312 0.931 . S
C309 N306 1.313 . S
C309 N310 1.344 . S
C309 H313 0.930 . S
N310 C307 1.377 . S
N310 C309 1.344 . S
O311 Co303 2.055 . S
O311 C315 1.253 . S
H312 C308 0.931 . S
H313 C309 0.930 . S
O314 Co303 2.039 . S
O314 C304 1.265 . S
C315 O311 1.253 . S
C315 O316 1.227 . S
O316 C315 1.227 . S
N317 Co303 2.140 . S
N317 C320 1.346 . S
N317 C321 1.345 . S
C318 C319 1.387 . S
C318 C322 1.391 . S
C319 C318 1.387 . S
C319 C320 1.369 . S
C319 H328 0.929 . S
C320 N317 1.346 . S
C320 C319 1.369 . S
C320 H323 0.928 . S
C321 N317 1.345 . S
C321 C322 1.371 . S
C321 H324 0.931 . S
C322 C318 1.391 . S
C322 C321 1.371 . S
C322 H329 0.930 . S
H323 C320 0.928 . S
H324 C321 0.931 . S
H325 C301 0.930 . S
H326 C298 0.930 . S
H327 C307 0.930 . S
H328 C319 0.929 . S
H329 C322 0.930 . S
C330 C331 1.351 . S
C330 N333 1.368 . S
C330 H335 0.931 . S
C331 C330 1.351 . S
C331 N332 1.373 . S
C331 H359 0.930 . S
N332 C331 1.373 . S
N332 C334 1.340 . S
N333 C330 1.368 . S
N333 C334 1.321 . S
N333 Co336 2.135 . S
C334 N332 1.340 . S
C334 N333 1.321 . S
C334 H358 0.930 . S
H335 C330 0.931 . S
Co336 N333 2.135 . S
Co336 N339 2.121 . S
Co336 O344 2.055 . S
Co336 O347 2.039 . S
Co336 N350 2.140 . S
C337 O338 1.227 . S
C337 O347 1.265 . S
O338 C337 1.227 . S
N339 Co336 2.121 . S
N339 C341 1.375 . S
N339 C342 1.313 . S
C340 C341 1.338 . S
C340 N343 1.377 . S
C340 H360 0.930 . S
C341 N339 1.375 . S
C341 C340 1.338 . S
C341 H345 0.931 . S
C342 N339 1.313 . S
C342 N343 1.344 . S
C342 H346 0.930 . S
N343 C340 1.377 . S
N343 C342 1.344 . S
O344 Co336 2.055 . S
O344 C348 1.253 . S
H345 C341 0.931 . S
H346 C342 0.930 . S
O347 Co336 2.039 . S
O347 C337 1.265 . S
C348 O344 1.253 . S
C348 O349 1.227 . S
O349 C348 1.227 . S
N350 Co336 2.140 . S
N350 C353 1.346 . S
N350 C354 1.345 . S
C351 C352 1.387 . S
C351 C355 1.391 . S
C352 C351 1.387 . S
C352 C353 1.369 . S
C352 H361 0.929 . S
C353 N350 1.346 . S
C353 C352 1.369 . S
C353 H356 0.928 . S
C354 N350 1.345 . S
C354 C355 1.371 . S
C354 H357 0.931 . S
C355 C351 1.391 . S
C355 C354 1.371 . S
C355 H362 0.930 . S
H356 C353 0.928 . S
H357 C354 0.931 . S
H358 C334 0.930 . S
H359 C331 0.930 . S
H360 C340 0.930 . S
H361 C352 0.929 . S
H362 C355 0.930 . S
C363 C364 1.351 . S
C363 N366 1.368 . S
C363 H368 0.931 . S
C364 C363 1.351 . S
C364 N365 1.373 . S
C364 H392 0.930 . S
N365 C364 1.373 . S
N365 C367 1.340 . S
N366 C363 1.368 . S
N366 C367 1.321 . S
N366 Co369 2.135 . S
C367 N365 1.340 . S
C367 N366 1.321 . S
C367 H391 0.930 . S
H368 C363 0.931 . S
Co369 N366 2.135 . S
Co369 N372 2.121 . S
Co369 O377 2.055 . S
Co369 O380 2.039 . S
Co369 N383 2.140 . S
C370 O371 1.227 . S
C370 O380 1.265 . S
O371 C370 1.227 . S
N372 Co369 2.121 . S
N372 C374 1.375 . S
N372 C375 1.313 . S
C373 C374 1.338 . S
C373 N376 1.377 . S
C373 H393 0.930 . S
C374 N372 1.375 . S
C374 C373 1.338 . S
C374 H378 0.931 . S
C375 N372 1.313 . S
C375 N376 1.344 . S
C375 H379 0.930 . S
N376 C373 1.377 . S
N376 C375 1.344 . S
O377 Co369 2.055 . S
O377 C381 1.253 . S
H378 C374 0.931 . S
H379 C375 0.930 . S
O380 Co369 2.039 . S
O380 C370 1.265 . S
C381 O377 1.253 . S
C381 O382 1.227 . S
O382 C381 1.227 . S
N383 Co369 2.140 . S
N383 C386 1.346 . S
N383 C387 1.345 . S
C384 C385 1.387 . S
C384 C388 1.391 . S
C385 C384 1.387 . S
C385 C386 1.369 . S
C385 H394 0.929 . S
C386 N383 1.346 . S
C386 C385 1.369 . S
C386 H389 0.928 . S
C387 N383 1.345 . S
C387 C388 1.371 . S
C387 H390 0.931 . S
C388 C384 1.391 . S
C388 C387 1.371 . S
C388 H395 0.930 . S
H389 C386 0.928 . S
H390 C387 0.931 . S
H391 C367 0.930 . S
H392 C364 0.930 . S
H393 C373 0.930 . S
H394 C385 0.929 . S
H395 C388 0.930 . S
H396 C414 0.951 . S
H397 C416 0.951 . S
H398 C418 0.950 . S
H399 C419 0.950 . S
H400 C421 0.950 . S
H401 C424 0.950 . S
H402 C425 0.950 . S
H403 C427 0.950 . S
H404 C428 0.950 . S
H405 C429 0.951 . S
H406 C431 0.951 . S
H407 C433 0.950 . S
H408 C434 0.950 . S
H409 C436 0.950 . S
H410 C439 0.950 . S
H411 C440 0.950 . S
H412 C442 0.950 . S
H413 C443 0.950 . S
C414 H396 0.951 . S
C414 C415 1.366 . S
C414 C416 1.388 . S
C415 C414 1.366 . S
C415 C419 1.385 . S
C416 H397 0.951 . S
C416 C414 1.388 . S
C416 C417 1.366 . S
C417 C416 1.366 . S
C417 C418 1.414 . S
C417 C420 1.499 . S
C418 H398 0.950 . S
C418 C417 1.414 . S
C418 C419 1.374 . S
C419 H399 0.950 . S
C419 C415 1.385 . S
C419 C418 1.374 . S
C420 C417 1.499 . S
C420 C421 1.373 . S
C420 C422 1.389 . S
C421 H400 0.950 . S
C421 C420 1.373 . S
C421 C437 1.377 . S
C422 C420 1.389 . S
C422 C423 1.524 . S
C422 C436 1.377 . S
C423 C422 1.524 . S
C423 C424 1.397 . S
C423 C428 1.363 . S
C424 H401 0.950 . S
C424 C423 1.397 . S
C424 C425 1.334 . S
C425 H402 0.950 . S
C425 C424 1.334 . S
C425 C426 1.287 . S
C426 C425 1.287 . S
C426 C427 1.524 . S
C426 H445 0.913 . S
C427 H403 0.950 . S
C427 C426 1.524 . S
C427 C428 1.415 . S
C428 H404 0.950 . S
C428 C423 1.363 . S
C428 C427 1.415 . S
C429 H405 0.951 . S
C429 C430 1.366 . S
C429 C431 1.388 . S
C430 C429 1.366 . S
C430 C434 1.385 . S
C431 H406 0.951 . S
C431 C429 1.388 . S
C431 C432 1.366 . S
C432 C431 1.366 . S
C432 C433 1.414 . S
C432 C435 1.499 . S
C433 H407 0.950 . S
C433 C432 1.414 . S
C433 C434 1.374 . S
C434 H408 0.950 . S
C434 C430 1.385 . S
C434 C433 1.374 . S
C435 C432 1.499 . S
C435 C436 1.373 . S
C435 C437 1.389 . S
C436 H409 0.950 . S
C436 C422 1.377 . S
C436 C435 1.373 . S
C437 C421 1.377 . S
C437 C435 1.389 . S
C437 C438 1.524 . S
C438 C437 1.524 . S
C438 C439 1.397 . S
C438 C443 1.363 . S
C439 H410 0.950 . S
C439 C438 1.397 . S
C439 C440 1.334 . S
C440 H411 0.950 . S
C440 C439 1.334 . S
C440 C441 1.287 . S
C441 C440 1.287 . S
C441 C442 1.524 . S
C441 H444 0.999 . S
C442 H412 0.950 . S
C442 C441 1.524 . S
C442 C443 1.415 . S
C443 H413 0.950 . S
C443 C438 1.363 . S
C443 C442 1.415 . S
H444 C441 0.999 . S
H445 C426 0.913 . S
H446 C464 0.951 . S
H447 C466 0.951 . S
H448 C468 0.950 . S
H449 C469 0.950 . S
H450 C471 0.950 . S
H451 C474 0.950 . S
H452 C475 0.950 . S
H453 C477 0.950 . S
H454 C478 0.950 . S
H455 C479 0.951 . S
H456 C481 0.951 . S
H457 C483 0.950 . S
H458 C484 0.950 . S
H459 C486 0.950 . S
H460 C489 0.950 . S
H461 C490 0.950 . S
H462 C492 0.950 . S
H463 C493 0.950 . S
C464 H446 0.951 . S
C464 C465 1.366 . S
C464 C466 1.388 . S
C465 C464 1.366 . S
C465 C469 1.385 . S
C466 H447 0.951 . S
C466 C464 1.388 . S
C466 C467 1.366 . S
C467 C466 1.366 . S
C467 C468 1.414 . S
C467 C470 1.499 . S
C468 H448 0.950 . S
C468 C467 1.414 . S
C468 C469 1.374 . S
C469 H449 0.950 . S
C469 C465 1.385 . S
C469 C468 1.374 . S
C470 C467 1.499 . S
C470 C471 1.373 . S
C470 C472 1.389 . S
C471 H450 0.950 . S
C471 C470 1.373 . S
C471 C487 1.377 . S
C472 C470 1.389 . S
C472 C473 1.524 . S
C472 C486 1.377 . S
C473 C472 1.524 . S
C473 C474 1.397 . S
C473 C478 1.363 . S
C474 H451 0.950 . S
C474 C473 1.397 . S
C474 C475 1.334 . S
C475 H452 0.950 . S
C475 C474 1.334 . S
C475 C476 1.287 . S
C476 C475 1.287 . S
C476 C477 1.524 . S
C476 H495 0.913 . S
C477 H453 0.950 . S
C477 C476 1.524 . S
C477 C478 1.415 . S
C478 H454 0.950 . S
C478 C473 1.363 . S
C478 C477 1.415 . S
C479 H455 0.951 . S
C479 C480 1.366 . S
C479 C481 1.388 . S
C480 C479 1.366 . S
C480 C484 1.385 . S
C481 H456 0.951 . S
C481 C479 1.388 . S
C481 C482 1.366 . S
C482 C481 1.366 . S
C482 C483 1.414 . S
C482 C485 1.499 . S
C483 H457 0.950 . S
C483 C482 1.414 . S
C483 C484 1.374 . S
C484 H458 0.950 . S
C484 C480 1.385 . S
C484 C483 1.374 . S
C485 C482 1.499 . S
C485 C486 1.373 . S
C485 C487 1.389 . S
C486 H459 0.950 . S
C486 C472 1.377 . S
C486 C485 1.373 . S
C487 C471 1.377 . S
C487 C485 1.389 . S
C487 C488 1.524 . S
C488 C487 1.524 . S
C488 C489 1.397 . S
C488 C493 1.363 . S
C489 H460 0.950 . S
C489 C488 1.397 . S
C489 C490 1.334 . S
C490 H461 0.950 . S
C490 C489 1.334 . S
C490 C491 1.287 . S
C491 C490 1.287 . S
C491 C492 1.524 . S
C491 H494 0.999 . S
C492 H462 0.950 . S
C492 C491 1.524 . S
C492 C493 1.415 . S
C493 H463 0.950 . S
C493 C488 1.363 . S
C493 C492 1.415 . S
H494 C491 0.999 . S
H495 C476 0.913 . S
H496 C514 0.951 . S
H497 C516 0.951 . S
H498 C518 0.950 . S
H499 C519 0.950 . S
H500 C521 0.950 . S
H501 C524 0.950 . S
H502 C525 0.950 . S
H503 C527 0.950 . S
H504 C528 0.950 . S
H505 C529 0.951 . S
H506 C531 0.951 . S
H507 C533 0.950 . S
H508 C534 0.950 . S
H509 C536 0.950 . S
H510 C539 0.950 . S
H511 C540 0.950 . S
H512 C542 0.950 . S
H513 C543 0.950 . S
C514 H496 0.951 . S
C514 C515 1.366 . S
C514 C516 1.388 . S
C515 C514 1.366 . S
C515 C519 1.385 . S
C516 H497 0.951 . S
C516 C514 1.388 . S
C516 C517 1.366 . S
C517 C516 1.366 . S
C517 C518 1.414 . S
C517 C520 1.499 . S
C518 H498 0.950 . S
C518 C517 1.414 . S
C518 C519 1.374 . S
C519 H499 0.950 . S
C519 C515 1.385 . S
C519 C518 1.374 . S
C520 C517 1.499 . S
C520 C521 1.373 . S
C520 C522 1.389 . S
C521 H500 0.950 . S
C521 C520 1.373 . S
C521 C537 1.377 . S
C522 C520 1.389 . S
C522 C523 1.524 . S
C522 C536 1.377 . S
C523 C522 1.524 . S
C523 C524 1.397 . S
C523 C528 1.363 . S
C524 H501 0.950 . S
C524 C523 1.397 . S
C524 C525 1.334 . S
C525 H502 0.950 . S
C525 C524 1.334 . S
C525 C526 1.287 . S
C526 C525 1.287 . S
C526 C527 1.524 . S
C526 H545 0.913 . S
C527 H503 0.950 . S
C527 C526 1.524 . S
C527 C528 1.415 . S
C528 H504 0.950 . S
C528 C523 1.363 . S
C528 C527 1.415 . S
C529 H505 0.951 . S
C529 C530 1.366 . S
C529 C531 1.388 . S
C530 C529 1.366 . S
C530 C534 1.385 . S
C531 H506 0.951 . S
C531 C529 1.388 . S
C531 C532 1.366 . S
C532 C531 1.366 . S
C532 C533 1.414 . S
C532 C535 1.499 . S
C533 H507 0.950 . S
C533 C532 1.414 . S
C533 C534 1.374 . S
C534 H508 0.950 . S
C534 C530 1.385 . S
C534 C533 1.374 . S
C535 C532 1.499 . S
C535 C536 1.373 . S
C535 C537 1.389 . S
C536 H509 0.950 . S
C536 C522 1.377 . S
C536 C535 1.373 . S
C537 C521 1.377 . S
C537 C535 1.389 . S
C537 C538 1.524 . S
C538 C537 1.524 . S
C538 C539 1.397 . S
C538 C543 1.363 . S
C539 H510 0.950 . S
C539 C538 1.397 . S
C539 C540 1.334 . S
C540 H511 0.950 . S
C540 C539 1.334 . S
C540 C541 1.287 . S
C541 C540 1.287 . S
C541 C542 1.524 . S
C541 H544 0.999 . S
C542 H512 0.950 . S
C542 C541 1.524 . S
C542 C543 1.415 . S
C543 H513 0.950 . S
C543 C538 1.363 . S
C543 C542 1.415 . S
H544 C541 0.999 . S
H545 C526 0.913 . S
H546 C564 0.951 . S
H547 C566 0.951 . S
H548 C568 0.950 . S
H549 C569 0.950 . S
H550 C571 0.950 . S
H551 C574 0.950 . S
H552 C575 0.950 . S
H553 C577 0.950 . S
H554 C578 0.950 . S
H555 C579 0.951 . S
H556 C581 0.951 . S
H557 C583 0.950 . S
H558 C584 0.950 . S
H559 C586 0.950 . S
H560 C589 0.950 . S
H561 C590 0.950 . S
H562 C592 0.950 . S
H563 C593 0.950 . S
C564 H546 0.951 . S
C564 C565 1.366 . S
C564 C566 1.388 . S
C565 C564 1.366 . S
C565 C569 1.385 . S
C566 H547 0.951 . S
C566 C564 1.388 . S
C566 C567 1.366 . S
C567 C566 1.366 . S
C567 C568 1.414 . S
C567 C570 1.499 . S
C568 H548 0.950 . S
C568 C567 1.414 . S
C568 C569 1.374 . S
C569 H549 0.950 . S
C569 C565 1.385 . S
C569 C568 1.374 . S
C570 C567 1.499 . S
C570 C571 1.373 . S
C570 C572 1.389 . S
C571 H550 0.950 . S
C571 C570 1.373 . S
C571 C587 1.377 . S
C572 C570 1.389 . S
C572 C573 1.524 . S
C572 C586 1.377 . S
C573 C572 1.524 . S
C573 C574 1.397 . S
C573 C578 1.363 . S
C574 H551 0.950 . S
C574 C573 1.397 . S
C574 C575 1.334 . S
C575 H552 0.950 . S
C575 C574 1.334 . S
C575 C576 1.287 . S
C576 C575 1.287 . S
C576 C577 1.524 . S
C576 H595 0.913 . S
C577 H553 0.950 . S
C577 C576 1.524 . S
C577 C578 1.415 . S
C578 H554 0.950 . S
C578 C573 1.363 . S
C578 C577 1.415 . S
C579 H555 0.951 . S
C579 C580 1.366 . S
C579 C581 1.388 . S
C580 C579 1.366 . S
C580 C584 1.385 . S
C581 H556 0.951 . S
C581 C579 1.388 . S
C581 C582 1.366 . S
C582 C581 1.366 . S
C582 C583 1.414 . S
C582 C585 1.499 . S
C583 H557 0.950 . S
C583 C582 1.414 . S
C583 C584 1.374 . S
C584 H558 0.950 . S
C584 C580 1.385 . S
C584 C583 1.374 . S
C585 C582 1.499 . S
C585 C586 1.373 . S
C585 C587 1.389 . S
C586 H559 0.950 . S
C586 C572 1.377 . S
C586 C585 1.373 . S
C587 C571 1.377 . S
C587 C585 1.389 . S
C587 C588 1.524 . S
C588 C587 1.524 . S
C588 C589 1.397 . S
C588 C593 1.363 . S
C589 H560 0.950 . S
C589 C588 1.397 . S
C589 C590 1.334 . S
C590 H561 0.950 . S
C590 C589 1.334 . S
C590 C591 1.287 . S
C591 C590 1.287 . S
C591 C592 1.524 . S
C591 H594 0.999 . S
C592 H562 0.950 . S
C592 C591 1.524 . S
C592 C593 1.415 . S
C593 H563 0.950 . S
C593 C588 1.363 . S
C593 C592 1.415 . S
H594 C591 0.999 . S
H595 C576 0.913 . S
H596 C614 0.951 . S
H597 C616 0.951 . S
H598 C618 0.950 . S
H599 C619 0.950 . S
H600 C621 0.950 . S
H601 C624 0.950 . S
H602 C625 0.950 . S
H603 C627 0.950 . S
H604 C628 0.950 . S
H605 C629 0.951 . S
H606 C631 0.951 1_556 S
H607 C633 0.950 1_556 S
H608 C634 0.950 . S
H609 C636 0.950 . S
H610 C639 0.950 . S
H611 C640 0.950 . S
H612 C642 0.950 . S
H613 C643 0.950 . S
C614 H596 0.951 . S
C614 C615 1.366 . S
C614 C616 1.388 . S
C615 C614 1.366 . S
C615 C619 1.385 . S
C616 H597 0.951 . S
C616 C614 1.388 . S
C616 C617 1.366 . S
C617 C616 1.366 . S
C617 C618 1.414 . S
C617 C620 1.499 . S
C618 H598 0.950 . S
C618 C617 1.414 . S
C618 C619 1.374 . S
C619 H599 0.950 . S
C619 C615 1.385 . S
C619 C618 1.374 . S
C620 C617 1.499 . S
C620 C621 1.373 . S
C620 C622 1.389 . S
C621 H600 0.950 . S
C621 C620 1.373 . S
C621 C637 1.377 . S
C622 C620 1.389 . S
C622 C623 1.524 . S
C622 C636 1.377 . S
C623 C622 1.524 . S
C623 C624 1.397 . S
C623 C628 1.363 . S
C624 H601 0.950 . S
C624 C623 1.397 . S
C624 C625 1.334 . S
C625 H602 0.950 . S
C625 C624 1.334 . S
C625 C626 1.287 . S
C626 C625 1.287 . S
C626 C627 1.524 . S
C626 H645 0.913 . S
C627 H603 0.950 . S
C627 C626 1.524 . S
C627 C628 1.415 . S
C628 H604 0.950 . S
C628 C623 1.363 . S
C628 C627 1.415 . S
C629 H605 0.951 . S
C629 C630 1.366 . S
C629 C631 1.388 . S
C630 C629 1.366 . S
C630 C634 1.385 . S
C631 H606 0.951 1_554 S
C631 C629 1.388 . S
C631 C632 1.366 1_554 S
C632 C631 1.366 1_556 S
C632 C633 1.414 1_556 S
C632 C635 1.499 . S
C633 H607 0.950 1_554 S
C633 C632 1.414 1_554 S
C633 C634 1.374 . S
C634 H608 0.950 . S
C634 C630 1.385 . S
C634 C633 1.374 . S
C635 C632 1.499 . S
C635 C636 1.373 . S
C635 C637 1.389 . S
C636 H609 0.950 . S
C636 C622 1.377 . S
C636 C635 1.373 . S
C637 C621 1.377 . S
C637 C635 1.389 . S
C637 C638 1.524 . S
C638 C637 1.524 . S
C638 C639 1.397 . S
C638 C643 1.363 . S
C639 H610 0.950 . S
C639 C638 1.397 . S
C639 C640 1.334 1_556 S
C640 H611 0.950 . S
C640 C639 1.334 1_554 S
C640 C641 1.287 . S
C641 C640 1.287 . S
C641 C642 1.524 1_554 S
C641 H644 0.999 . S
C642 H612 0.950 . S
C642 C641 1.524 1_556 S
C642 C643 1.415 . S
C643 H613 0.950 . S
C643 C638 1.363 . S
C643 C642 1.415 . S
H644 C641 0.999 . S
H645 C626 0.913 . S
H646 C664 0.951 . S
H647 C666 0.951 . S
H648 C668 0.950 1_554 S
H649 C669 0.950 . S
H650 C671 0.950 . S
H651 C674 0.950 . S
H652 C675 0.950 . S
H653 C677 0.950 . S
H654 C678 0.950 . S
H655 C679 0.951 . S
H656 C681 0.951 . S
H657 C683 0.950 . S
H658 C684 0.950 . S
H659 C686 0.950 . S
H660 C689 0.950 . S
H661 C690 0.950 . S
H662 C692 0.950 . S
H663 C693 0.950 . S
C664 H646 0.951 . S
C664 C665 1.366 . S
C664 C666 1.388 . S
C665 C664 1.366 . S
C665 C669 1.385 . S
C666 H647 0.951 . S
C666 C664 1.388 . S
C666 C667 1.366 1_556 S
C667 C666 1.366 1_554 S
C667 C668 1.414 1_554 S
C667 C670 1.499 . S
C668 H648 0.950 1_556 S
C668 C667 1.414 1_556 S
C668 C669 1.374 . S
C669 H649 0.950 . S
C669 C665 1.385 . S
C669 C668 1.374 . S
C670 C667 1.499 . S
C670 C671 1.373 . S
C670 C672 1.389 . S
C671 H650 0.950 . S
C671 C670 1.373 . S
C671 C687 1.377 . S
C672 C670 1.389 . S
C672 C673 1.524 . S
C672 C686 1.377 . S
C673 C672 1.524 . S
C673 C674 1.397 . S
C673 C678 1.363 . S
C674 H651 0.950 . S
C674 C673 1.397 . S
C674 C675 1.334 1_554 S
C675 H652 0.950 . S
C675 C674 1.334 1_556 S
C675 C676 1.287 . S
C676 C675 1.287 . S
C676 C677 1.524 1_556 S
C676 H695 0.913 . S
C677 H653 0.950 . S
C677 C676 1.524 1_554 S
C677 C678 1.415 . S
C678 H654 0.950 . S
C678 C673 1.363 . S
C678 C677 1.415 . S
C679 H655 0.951 . S
C679 C680 1.366 . S
C679 C681 1.388 . S
C680 C679 1.366 . S
C680 C684 1.385 . S
C681 H656 0.951 . S
C681 C679 1.388 . S
C681 C682 1.366 . S
C682 C681 1.366 . S
C682 C683 1.414 . S
C682 C685 1.499 . S
C683 H657 0.950 . S
C683 C682 1.414 . S
C683 C684 1.374 . S
C684 H658 0.950 . S
C684 C680 1.385 . S
C684 C683 1.374 . S
C685 C682 1.499 . S
C685 C686 1.373 . S
C685 C687 1.389 . S
C686 H659 0.950 . S
C686 C672 1.377 . S
C686 C685 1.373 . S
C687 C671 1.377 . S
C687 C685 1.389 . S
C687 C688 1.524 . S
C688 C687 1.524 . S
C688 C689 1.397 . S
C688 C693 1.363 . S
C689 H660 0.950 . S
C689 C688 1.397 . S
C689 C690 1.334 . S
C690 H661 0.950 . S
C690 C689 1.334 . S
C690 C691 1.287 . S
C691 C690 1.287 . S
C691 C692 1.524 . S
C691 H694 0.999 . S
C692 H662 0.950 . S
C692 C691 1.524 . S
C692 C693 1.415 . S
C693 H663 0.950 . S
C693 C688 1.363 . S
C693 C692 1.415 . S
H694 C691 0.999 . S
H695 C676 0.913 . S
H696 C714 0.951 . S
H697 C716 0.951 . S
H698 C718 0.950 . S
H699 C719 0.950 . S
H700 C721 0.950 . S
H701 C724 0.950 . S
H702 C725 0.950 . S
H703 C727 0.950 . S
H704 C728 0.950 . S
H705 C729 0.951 . S
H706 C731 0.951 . S
H707 C733 0.950 . S
H708 C734 0.950 . S
H709 C736 0.950 . S
H710 C739 0.950 . S
H711 C740 0.950 . S
H712 C742 0.950 . S
H713 C743 0.950 . S
C714 H696 0.951 . S
C714 C715 1.366 . S
C714 C716 1.388 . S
C715 C714 1.366 . S
C715 C719 1.385 . S
C716 H697 0.951 . S
C716 C714 1.388 . S
C716 C717 1.366 . S
C717 C716 1.366 . S
C717 C718 1.414 . S
C717 C720 1.499 . S
C718 H698 0.950 . S
C718 C717 1.414 . S
C718 C719 1.374 . S
C719 H699 0.950 . S
C719 C715 1.385 . S
C719 C718 1.374 . S
C720 C717 1.499 . S
C720 C721 1.373 . S
C720 C722 1.389 . S
C721 H700 0.950 . S
C721 C720 1.373 . S
C721 C737 1.377 . S
C722 C720 1.389 . S
C722 C723 1.524 . S
C722 C736 1.377 . S
C723 C722 1.524 . S
C723 C724 1.397 . S
C723 C728 1.363 . S
C724 H701 0.950 . S
C724 C723 1.397 . S
C724 C725 1.334 . S
C725 H702 0.950 . S
C725 C724 1.334 . S
C725 C726 1.287 . S
C726 C725 1.287 . S
C726 C727 1.524 . S
C726 H745 0.913 . S
C727 H703 0.950 . S
C727 C726 1.524 . S
C727 C728 1.415 . S
C728 H704 0.950 . S
C728 C723 1.363 . S
C728 C727 1.415 . S
C729 H705 0.951 . S
C729 C730 1.366 . S
C729 C731 1.388 . S
C730 C729 1.366 . S
C730 C734 1.385 . S
C731 H706 0.951 . S
C731 C729 1.388 . S
C731 C732 1.366 . S
C732 C731 1.366 . S
C732 C733 1.414 . S
C732 C735 1.499 . S
C733 H707 0.950 . S
C733 C732 1.414 . S
C733 C734 1.374 . S
C734 H708 0.950 . S
C734 C730 1.385 . S
C734 C733 1.374 . S
C735 C732 1.499 . S
C735 C736 1.373 . S
C735 C737 1.389 . S
C736 H709 0.950 . S
C736 C722 1.377 . S
C736 C735 1.373 . S
C737 C721 1.377 . S
C737 C735 1.389 . S
C737 C738 1.524 . S
C738 C737 1.524 . S
C738 C739 1.397 . S
C738 C743 1.363 . S
C739 H710 0.950 . S
C739 C738 1.397 . S
C739 C740 1.334 . S
C740 H711 0.950 . S
C740 C739 1.334 . S
C740 C741 1.287 . S
C741 C740 1.287 . S
C741 C742 1.524 . S
C741 H744 0.999 . S
C742 H712 0.950 . S
C742 C741 1.524 . S
C742 C743 1.415 . S
C743 H713 0.950 . S
C743 C738 1.363 . S
C743 C742 1.415 . S
H744 C741 0.999 . S
H745 C726 0.913 . S
H746 C764 0.951 . S
H747 C766 0.951 . S
H748 C768 0.950 . S
H749 C769 0.950 . S
H750 C771 0.950 . S
H751 C774 0.950 1_554 S
H752 C775 0.950 . S
H753 C777 0.950 . S
H754 C778 0.950 . S
H755 C779 0.951 . S
H756 C781 0.951 . S
H757 C783 0.947 1_456 S
H758 C784 0.950 1_556 S
H759 C786 0.950 1_556 S
H760 C789 0.950 . S
H761 C790 0.950 1_655 S
H762 C792 0.950 . S
H763 C793 0.950 . S
C764 H746 0.951 . S
C764 C765 1.366 . S
C764 C766 1.388 . S
C765 C764 1.366 . S
C765 C769 1.385 1_556 S
C766 H747 0.951 . S
C766 C764 1.388 . S
C766 C767 1.366 1_556 S
C767 C766 1.366 1_554 S
C767 C768 1.414 . S
C767 C770 1.499 . S
C768 H748 0.950 . S
C768 C767 1.414 . S
C768 C769 1.374 . S
C769 H749 0.950 . S
C769 C765 1.385 1_554 S
C769 C768 1.374 . S
C770 C767 1.499 . S
C770 C771 1.373 . S
C770 C772 1.389 1_554 S
C771 H750 0.950 . S
C771 C770 1.373 . S
C771 C787 1.377 . S
C772 C770 1.389 1_556 S
C772 C773 1.524 . S
C772 C786 1.377 1_556 S
C773 C772 1.524 . S
C773 C774 1.397 . S
C773 C778 1.363 . S
C774 H751 0.950 1_556 S
C774 C773 1.397 . S
C774 C775 1.334 . S
C775 H752 0.950 . S
C775 C774 1.334 . S
C775 C776 1.287 . S
C776 C775 1.287 . S
C776 C777 1.524 . S
C776 H795 0.913 . S
C777 H753 0.950 . S
C777 C776 1.524 . S
C777 C778 1.415 . S
C778 H754 0.950 . S
C778 C773 1.363 . S
C778 C777 1.415 . S
C779 H755 0.951 . S
C779 C780 1.366 . S
C779 C781 1.388 1_655 S
C780 C779 1.366 . S
C780 C784 1.385 . S
C781 H756 0.951 . S
C781 C779 1.388 1_455 S
C781 C782 1.366 . S
C782 C781 1.366 . S
C782 C783 1.407 1_455 S
C782 C785 1.499 . S
C783 H757 0.947 1_654 S
C783 C782 1.407 1_655 S
C783 C784 1.384 . S
C784 H758 0.950 1_554 S
C784 C780 1.385 . S
C784 C783 1.384 . S
C785 C782 1.499 . S
C785 C786 1.373 . S
C785 C787 1.389 . S
C786 H759 0.950 1_554 S
C786 C772 1.377 1_554 S
C786 C785 1.373 . S
C787 C771 1.377 . S
C787 C785 1.389 . S
C787 C788 1.524 . S
C788 C787 1.524 . S
C788 C789 1.397 . S
C788 C793 1.363 . S
C789 H760 0.950 . S
C789 C788 1.397 . S
C789 C790 1.334 . S
C790 H761 0.950 1_455 S
C790 C789 1.334 . S
C790 C791 1.287 . S
C791 C790 1.287 . S
C791 C792 1.524 . S
C791 H794 0.999 . S
C792 H762 0.950 . S
C792 C791 1.524 . S
C792 C793 1.415 . S
C793 H763 0.950 . S
C793 C788 1.363 . S
C793 C792 1.415 . S
H794 C791 0.999 . S
H795 C776 0.913 . S
H796 C814 0.951 . S
H797 C816 0.951 . S
H798 C818 0.950 . S
H799 C819 0.950 . S
H800 C821 0.950 . S
H801 C824 0.950 . S
H802 C825 0.950 . S
H803 C827 0.950 . S
H804 C828 0.950 . S
H805 C829 0.951 . S
H806 C831 0.951 . S
H807 C833 0.950 . S
H808 C834 0.950 . S
H809 C836 0.950 . S
H810 C839 0.950 . S
H811 C840 0.950 . S
H812 C842 0.950 . S
H813 C843 0.950 . S
C814 H796 0.951 . S
C814 C815 1.366 . S
C814 C816 1.388 . S
C815 C814 1.366 . S
C815 C819 1.385 . S
C816 H797 0.951 . S
C816 C814 1.388 . S
C816 C817 1.366 . S
C817 C816 1.366 . S
C817 C818 1.414 . S
C817 C820 1.499 . S
C818 H798 0.950 . S
C818 C817 1.414 . S
C818 C819 1.374 . S
C819 H799 0.950 . S
C819 C815 1.385 . S
C819 C818 1.374 . S
C820 C817 1.499 . S
C820 C821 1.373 . S
C820 C822 1.389 . S
C821 H800 0.950 . S
C821 C820 1.373 . S
C821 C837 1.377 . S
C822 C820 1.389 . S
C822 C823 1.524 . S
C822 C836 1.377 . S
C823 C822 1.524 . S
C823 C824 1.397 . S
C823 C828 1.363 . S
C824 H801 0.950 . S
C824 C823 1.397 . S
C824 C825 1.334 . S
C825 H802 0.950 . S
C825 C824 1.334 . S
C825 C826 1.287 . S
C826 C825 1.287 . S
C826 C827 1.524 . S
C826 H845 0.913 . S
C827 H803 0.950 . S
C827 C826 1.524 . S
C827 C828 1.415 . S
C828 H804 0.950 . S
C828 C823 1.363 . S
C828 C827 1.415 . S
C829 H805 0.951 . S
C829 C830 1.366 . S
C829 C831 1.388 1_565 S
C830 C829 1.366 . S
C830 C834 1.385 . S
C831 H806 0.951 . S
C831 C829 1.388 1_545 S
C831 C832 1.366 . S
C832 C831 1.366 . S
C832 C833 1.414 1_545 S
C832 C835 1.499 . S
C833 H807 0.950 . S
C833 C832 1.414 1_565 S
C833 C834 1.374 . S
C834 H808 0.950 . S
C834 C830 1.385 . S
C834 C833 1.374 . S
C835 C832 1.499 . S
C835 C836 1.373 . S
C835 C837 1.389 . S
C836 H809 0.950 . S
C836 C822 1.377 . S
C836 C835 1.373 . S
C837 C821 1.377 . S
C837 C835 1.389 . S
C837 C838 1.524 . S
C838 C837 1.524 . S
C838 C839 1.397 . S
C838 C843 1.363 . S
C839 H810 0.950 . S
C839 C838 1.397 . S
C839 C840 1.334 . S
C840 H811 0.950 . S
C840 C839 1.334 . S
C840 C841 1.287 . S
C841 C840 1.287 . S
C841 C842 1.524 . S
C841 H844 0.999 . S
C842 H812 0.950 . S
C842 C841 1.524 . S
C842 C843 1.415 . S
C843 H813 0.950 . S
C843 C838 1.363 . S
C843 C842 1.415 . S
H844 C841 0.999 . S
H845 C826 0.913 . S
H846 C864 0.951 . S
H847 C866 0.951 . S
H848 C868 0.950 . S
H849 C869 0.950 . S
H850 C871 0.950 . S
H851 C874 0.950 . S
H852 C875 0.950 . S
H853 C877 0.950 . S
H854 C878 0.950 . S
H855 C879 0.951 . S
H856 C881 0.951 . S
H857 C883 0.950 . S
H858 C884 0.950 . S
H859 C886 0.950 . S
H860 C889 0.950 . S
H861 C890 0.950 . S
H862 C892 0.950 . S
H863 C893 0.950 . S
C864 H846 0.951 . S
C864 C865 1.366 . S
C864 C866 1.388 . S
C865 C864 1.366 . S
C865 C869 1.385 . S
C866 H847 0.951 . S
C866 C864 1.388 . S
C866 C867 1.366 . S
C867 C866 1.366 . S
C867 C868 1.414 . S
C867 C870 1.499 . S
C868 H848 0.950 . S
C868 C867 1.414 . S
C868 C869 1.374 . S
C869 H849 0.950 . S
C869 C865 1.385 . S
C869 C868 1.374 . S
C870 C867 1.499 . S
C870 C871 1.373 . S
C870 C872 1.389 . S
C871 H850 0.950 . S
C871 C870 1.373 . S
C871 C887 1.377 . S
C872 C870 1.389 . S
C872 C873 1.524 . S
C872 C886 1.377 . S
C873 C872 1.524 . S
C873 C874 1.397 . S
C873 C878 1.363 . S
C874 H851 0.950 . S
C874 C873 1.397 . S
C874 C875 1.334 . S
C875 H852 0.950 . S
C875 C874 1.334 . S
C875 C876 1.287 . S
C876 C875 1.287 . S
C876 C877 1.524 . S
C876 H895 0.913 . S
C877 H853 0.950 . S
C877 C876 1.524 . S
C877 C878 1.415 . S
C878 H854 0.950 . S
C878 C873 1.363 . S
C878 C877 1.415 . S
C879 H855 0.951 . S
C879 C880 1.366 . S
C879 C881 1.388 . S
C880 C879 1.366 . S
C880 C884 1.385 . S
C881 H856 0.951 . S
C881 C879 1.388 . S
C881 C882 1.366 . S
C882 C881 1.366 . S
C882 C883 1.414 . S
C882 C885 1.499 . S
C883 H857 0.950 . S
C883 C882 1.414 . S
C883 C884 1.374 . S
C884 H858 0.950 . S
C884 C880 1.385 . S
C884 C883 1.374 . S
C885 C882 1.499 . S
C885 C886 1.373 . S
C885 C887 1.389 . S
C886 H859 0.950 . S
C886 C872 1.377 . S
C886 C885 1.373 . S
C887 C871 1.377 . S
C887 C885 1.389 . S
C887 C888 1.524 . S
C888 C887 1.524 . S
C888 C889 1.397 . S
C888 C893 1.363 . S
C889 H860 0.950 . S
C889 C888 1.397 . S
C889 C890 1.334 . S
C890 H861 0.950 . S
C890 C889 1.334 . S
C890 C891 1.287 . S
C891 C890 1.287 . S
C891 C892 1.524 . S
C891 H894 0.999 . S
C892 H862 0.950 . S
C892 C891 1.524 . S
C892 C893 1.415 . S
C893 H863 0.950 . S
C893 C888 1.363 . S
C893 C892 1.415 . S
H894 C891 0.999 . S
H895 C876 0.913 . S
H896 C914 0.951 . S
H897 C916 0.951 . S
H898 C918 0.950 . S
H899 C919 0.950 . S
H900 C921 0.950 . S
H901 C924 0.950 . S
H902 C925 0.950 . S
H903 C927 0.950 . S
H904 C928 0.950 . S
H905 C929 0.951 . S
H906 C931 0.951 . S
H907 C933 0.950 . S
H908 C934 0.950 . S
H909 C936 0.950 . S
H910 C939 0.950 . S
H911 C940 0.950 . S
H912 C942 0.950 . S
H913 C943 0.950 . S
C914 H896 0.951 . S
C914 C915 1.366 . S
C914 C916 1.388 1_455 S
C915 C914 1.366 . S
C915 C919 1.385 . S
C916 H897 0.951 . S
C916 C914 1.388 1_655 S
C916 C917 1.366 . S
C917 C916 1.366 . S
C917 C918 1.414 . S
C917 C920 1.499 . S
C918 H898 0.950 . S
C918 C917 1.414 . S
C918 C919 1.374 1_655 S
C919 H899 0.950 . S
C919 C915 1.385 . S
C919 C918 1.374 1_455 S
C920 C917 1.499 . S
C920 C921 1.373 . S
C920 C922 1.389 . S
C921 H900 0.950 . S
C921 C920 1.373 . S
C921 C937 1.377 . S
C922 C920 1.389 . S
C922 C923 1.524 . S
C922 C936 1.377 . S
C923 C922 1.524 . S
C923 C924 1.397 . S
C923 C928 1.363 . S
C924 H901 0.950 . S
C924 C923 1.397 . S
C924 C925 1.334 . S
C925 H902 0.950 . S
C925 C924 1.334 . S
C925 C926 1.287 . S
C926 C925 1.287 . S
C926 C927 1.524 . S
C926 H945 0.913 . S
C927 H903 0.950 . S
C927 C926 1.524 . S
C927 C928 1.415 . S
C928 H904 0.950 . S
C928 C923 1.363 . S
C928 C927 1.415 . S
C929 H905 0.951 . S
C929 C930 1.366 . S
C929 C931 1.388 . S
C930 C929 1.366 . S
C930 C934 1.385 . S
C931 H906 0.951 . S
C931 C929 1.388 . S
C931 C932 1.366 . S
C932 C931 1.366 . S
C932 C933 1.414 . S
C932 C935 1.499 . S
C933 H907 0.950 . S
C933 C932 1.414 . S
C933 C934 1.374 . S
C934 H908 0.950 . S
C934 C930 1.385 . S
C934 C933 1.374 . S
C935 C932 1.499 . S
C935 C936 1.373 . S
C935 C937 1.389 . S
C936 H909 0.950 . S
C936 C922 1.377 . S
C936 C935 1.373 . S
C937 C921 1.377 . S
C937 C935 1.389 . S
C937 C938 1.524 . S
C938 C937 1.524 . S
C938 C939 1.397 . S
C938 C943 1.363 . S
C939 H910 0.950 . S
C939 C938 1.397 . S
C939 C940 1.334 . S
C940 H911 0.950 . S
C940 C939 1.334 . S
C940 C941 1.287 . S
C941 C940 1.287 . S
C941 C942 1.524 . S
C941 H944 0.999 . S
C942 H912 0.950 . S
C942 C941 1.524 . S
C942 C943 1.415 . S
C943 H913 0.950 . S
C943 C938 1.363 . S
C943 C942 1.415 . S
H944 C941 0.999 . S
H945 C926 0.913 . S
H946 C964 0.951 . S
H947 C966 0.951 . S
H948 C968 0.950 . S
H949 C969 0.950 . S
H950 C971 0.950 . S
H951 C974 0.950 . S
H952 C975 0.950 . S
H953 C977 0.950 . S
H954 C978 0.950 . S
H955 C979 0.951 . S
H956 C981 0.951 . S
H957 C983 0.950 . S
H958 C984 0.950 . S
H959 C986 0.950 . S
H960 C989 0.950 . S
H961 C990 0.950 . S
H962 C992 0.950 . S
H963 C993 0.950 . S
C964 H946 0.951 . S
C964 C965 1.366 . S
C964 C966 1.388 1_545 S
C965 C964 1.366 . S
C965 C969 1.385 . S
C966 H947 0.951 . S
C966 C964 1.388 1_565 S
C966 C967 1.366 . S
C967 C966 1.366 . S
C967 C968 1.414 1_565 S
C967 C970 1.499 . S
C968 H948 0.950 . S
C968 C967 1.414 1_545 S
C968 C969 1.374 . S
C969 H949 0.950 . S
C969 C965 1.385 . S
C969 C968 1.374 . S
C970 C967 1.499 . S
C970 C971 1.373 . S
C970 C972 1.389 . S
C971 H950 0.950 . S
C971 C970 1.373 . S
C971 C987 1.377 . S
C972 C970 1.389 . S
C972 C973 1.524 . S
C972 C986 1.377 . S
C973 C972 1.524 . S
C973 C974 1.397 . S
C973 C978 1.363 . S
C974 H951 0.950 . S
C974 C973 1.397 . S
C974 C975 1.334 . S
C975 H952 0.950 . S
C975 C974 1.334 . S
C975 C976 1.287 . S
C976 C975 1.287 . S
C976 C977 1.524 . S
C976 H995 0.913 . S
C977 H953 0.950 . S
C977 C976 1.524 . S
C977 C978 1.415 . S
C978 H954 0.950 . S
C978 C973 1.363 . S
C978 C977 1.415 . S
C979 H955 0.951 . S
C979 C980 1.366 . S
C979 C981 1.388 . S
C980 C979 1.366 . S
C980 C984 1.385 . S
C981 H956 0.951 . S
C981 C979 1.388 . S
C981 C982 1.366 . S
C982 C981 1.366 . S
C982 C983 1.414 . S
C982 C985 1.499 . S
C983 H957 0.950 . S
C983 C982 1.414 . S
C983 C984 1.374 . S
C984 H958 0.950 . S
C984 C980 1.385 . S
C984 C983 1.374 . S
C985 C982 1.499 . S
C985 C986 1.373 . S
C985 C987 1.389 . S
C986 H959 0.950 . S
C986 C972 1.377 . S
C986 C985 1.373 . S
C987 C971 1.377 . S
C987 C985 1.389 . S
C987 C988 1.524 . S
C988 C987 1.524 . S
C988 C989 1.397 . S
C988 C993 1.363 . S
C989 H960 0.950 . S
C989 C988 1.397 . S
C989 C990 1.334 . S
C990 H961 0.950 . S
C990 C989 1.334 . S
C990 C991 1.287 . S
C991 C990 1.287 . S
C991 C992 1.524 . S
C991 H994 0.999 . S
C992 H962 0.950 . S
C992 C991 1.524 . S
C992 C993 1.415 . S
C993 H963 0.950 . S
C993 C988 1.363 . S
C993 C992 1.415 . S
H994 C991 0.999 . S
H995 C976 0.913 . S
H996 C1014 0.951 . S
H997 C1016 0.951 . S
H998 C1018 0.950 . S
H999 C1019 0.950 . S
H1000 C1021 0.950 . S
H1001 C1024 0.950 . S
H1002 C1025 0.950 . S
H1003 C1027 0.941 1_554 S
H1004 C1028 0.950 . S
H1005 C1029 0.951 . S
H1006 C1031 0.951 . S
H1007 C1033 0.950 1_554 S
H1008 C1034 0.950 . S
H1009 C1036 0.950 . S
H1010 C1039 0.950 . S
H1011 C1040 0.950 . S
H1012 C1042 0.950 . S
H1013 C1043 0.950 . S
C1014 H996 0.951 . S
C1014 C1015 1.366 . S
C1014 C1016 1.388 . S
C1015 C1014 1.366 . S
C1015 C1019 1.385 1_554 S
C1016 H997 0.951 . S
C1016 C1014 1.388 . S
C1016 C1017 1.366 1_554 S
C1017 C1016 1.366 1_556 S
C1017 C1018 1.414 . S
C1017 C1020 1.499 . S
C1018 H998 0.950 . S
C1018 C1017 1.414 . S
C1018 C1019 1.374 . S
C1019 H999 0.950 . S
C1019 C1015 1.385 1_556 S
C1019 C1018 1.374 . S
C1020 C1017 1.499 . S
C1020 C1021 1.373 . S
C1020 C1022 1.389 . S
C1021 H1000 0.950 . S
C1021 C1020 1.373 . S
C1021 C1037 1.377 . S
C1022 C1020 1.389 . S
C1022 C1023 1.524 . S
C1022 C1036 1.377 . S
C1023 C1022 1.524 . S
C1023 C1024 1.397 . S
C1023 C1028 1.363 1_556 S
C1024 H1001 0.950 . S
C1024 C1023 1.397 . S
C1024 C1025 1.334 . S
C1025 H1002 0.950 . S
C1025 C1024 1.334 . S
C1025 C1026 1.287 . S
C1026 C1025 1.287 . S
C1026 C1027 1.535 . S
C1026 H1045 0.913 . S
C1027 H1003 0.941 1_556 S
C1027 C1026 1.535 . S
C1027 C1028 1.414 1_556 S
C1028 H1004 0.950 . S
C1028 C1023 1.363 1_554 S
C1028 C1027 1.414 1_554 S
C1029 H1005 0.951 . S
C1029 C1030 1.366 . S
C1029 C1031 1.388 . S
C1030 C1029 1.366 . S
C1030 C1034 1.385 . S
C1031 H1006 0.951 . S
C1031 C1029 1.388 . S
C1031 C1032 1.366 . S
C1032 C1031 1.366 . S
C1032 C1033 1.414 . S
C1032 C1035 1.499 . S
C1033 H1007 0.950 1_556 S
C1033 C1032 1.414 . S
C1033 C1034 1.374 . S
C1034 H1008 0.950 . S
C1034 C1030 1.385 . S
C1034 C1033 1.374 . S
C1035 C1032 1.499 . S
C1035 C1036 1.373 . S
C1035 C1037 1.389 . S
C1036 H1009 0.950 . S
C1036 C1022 1.377 . S
C1036 C1035 1.373 . S
C1037 C1021 1.377 . S
C1037 C1035 1.389 . S
C1037 C1038 1.524 . S
C1038 C1037 1.524 . S
C1038 C1039 1.397 1_556 S
C1038 C1043 1.363 . S
C1039 H1010 0.950 . S
C1039 C1038 1.397 1_554 S
C1039 C1040 1.334 . S
C1040 H1011 0.950 . S
C1040 C1039 1.334 . S
C1040 C1041 1.287 1_554 S
C1041 C1040 1.287 1_556 S
C1041 C1042 1.524 . S
C1041 H1044 0.999 . S
C1042 H1012 0.950 . S
C1042 C1041 1.524 . S
C1042 C1043 1.415 . S
C1043 H1013 0.950 . S
C1043 C1038 1.363 . S
C1043 C1042 1.415 . S
H1044 C1041 0.999 . S
H1045 C1026 0.913 . S
H1046 C1064 0.951 . S
H1047 C1066 0.951 . S
H1048 C1068 0.950 1_455 S
H1049 C1069 0.950 . S
H1050 C1071 0.950 . S
H1051 C1074 0.950 . S
H1052 C1075 0.950 1_655 S
H1053 C1077 0.950 . S
H1054 C1078 0.950 . S
H1055 C1079 0.951 . S
H1056 C1081 0.951 . S
H1057 C1083 0.950 . S
H1058 C1084 0.950 . S
H1059 C1086 0.950 . S
H1060 C1089 0.950 . S
H1061 C1090 0.950 . S
H1062 C1092 0.950 . S
H1063 C1093 0.950 . S
C1064 H1046 0.951 . S
C1064 C1065 1.366 . S
C1064 C1066 1.388 1_655 S
C1065 C1064 1.366 . S
C1065 C1069 1.385 . S
C1066 H1047 0.951 . S
C1066 C1064 1.388 1_455 S
C1066 C1067 1.366 . S
C1067 C1066 1.366 . S
C1067 C1068 1.414 1_455 S
C1067 C1070 1.499 . S
C1068 H1048 0.950 1_655 S
C1068 C1067 1.414 1_655 S
C1068 C1069 1.374 . S
C1069 H1049 0.950 . S
C1069 C1065 1.385 . S
C1069 C1068 1.374 . S
C1070 C1067 1.499 . S
C1070 C1071 1.373 . S
C1070 C1072 1.389 . S
C1071 H1050 0.950 . S
C1071 C1070 1.373 . S
C1071 C1087 1.377 . S
C1072 C1070 1.389 . S
C1072 C1073 1.524 . S
C1072 C1086 1.377 . S
C1073 C1072 1.524 . S
C1073 C1074 1.397 . S
C1073 C1078 1.363 . S
C1074 H1051 0.950 . S
C1074 C1073 1.397 . S
C1074 C1075 1.334 . S
C1075 H1052 0.950 1_455 S
C1075 C1074 1.334 . S
C1075 C1076 1.287 . S
C1076 C1075 1.287 . S
C1076 C1077 1.524 . S
C1076 H1095 0.913 . S
C1077 H1053 0.950 . S
C1077 C1076 1.524 . S
C1077 C1078 1.415 . S
C1078 H1054 0.950 . S
C1078 C1073 1.363 . S
C1078 C1077 1.415 . S
C1079 H1055 0.951 . S
C1079 C1080 1.366 . S
C1079 C1081 1.388 . S
C1080 C1079 1.366 . S
C1080 C1084 1.385 . S
C1081 H1056 0.951 . S
C1081 C1079 1.388 . S
C1081 C1082 1.366 . S
C1082 C1081 1.366 . S
C1082 C1083 1.414 . S
C1082 C1085 1.499 . S
C1083 H1057 0.950 . S
C1083 C1082 1.414 . S
C1083 C1084 1.374 . S
C1084 H1058 0.950 . S
C1084 C1080 1.385 . S
C1084 C1083 1.374 . S
C1085 C1082 1.499 . S
C1085 C1086 1.373 . S
C1085 C1087 1.389 . S
C1086 H1059 0.950 . S
C1086 C1072 1.377 . S
C1086 C1085 1.373 . S
C1087 C1071 1.377 . S
C1087 C1085 1.389 . S
C1087 C1088 1.524 . S
C1088 C1087 1.524 . S
C1088 C1089 1.397 . S
C1088 C1093 1.363 . S
C1089 H1060 0.950 . S
C1089 C1088 1.397 . S
C1089 C1090 1.334 . S
C1090 H1061 0.950 . S
C1090 C1089 1.334 . S
C1090 C1091 1.287 . S
C1091 C1090 1.287 . S
C1091 C1092 1.524 . S
C1091 H1094 0.999 . S
C1092 H1062 0.950 . S
C1092 C1091 1.524 . S
C1092 C1093 1.415 . S
C1093 H1063 0.950 . S
C1093 C1088 1.363 . S
C1093 C1092 1.415 . S
H1094 C1091 0.999 . S
H1095 C1076 0.913 . S
H1096 C1114 0.951 . S
H1097 C1116 0.951 . S
H1098 C1118 0.909 1_545 S
H1099 C1119 0.950 . S
H1100 C1121 0.950 . S
H1101 C1124 0.950 . S
H1102 C1125 0.950 . S
H1103 C1127 0.950 . S
H1104 C1128 0.950 . S
H1105 C1129 0.951 . S
H1106 C1131 0.951 . S
H1107 C1133 0.950 . S
H1108 C1134 0.950 . S
H1109 C1136 0.950 . S
H1110 C1139 0.950 . S
H1111 C1140 0.950 . S
H1112 C1142 0.950 . S
H1113 C1143 0.950 . S
C1114 H1096 0.951 . S
C1114 C1115 1.366 . S
C1114 C1116 1.388 1_565 S
C1115 C1114 1.366 . S
C1115 C1119 1.385 . S
C1116 H1097 0.951 . S
C1116 C1114 1.388 1_545 S
C1116 C1117 1.366 . S
C1117 C1116 1.366 . S
C1117 C1118 1.408 1_545 S
C1117 C1120 1.499 . S
C1118 H1098 0.909 1_565 S
C1118 C1117 1.408 1_565 S
C1118 C1119 1.423 . S
C1119 H1099 0.950 . S
C1119 C1115 1.385 . S
C1119 C1118 1.423 . S
C1120 C1117 1.499 . S
C1120 C1121 1.373 . S
C1120 C1122 1.389 . S
C1121 H1100 0.950 . S
C1121 C1120 1.373 . S
C1121 C1137 1.377 . S
C1122 C1120 1.389 . S
C1122 C1123 1.524 . S
C1122 C1136 1.377 . S
C1123 C1122 1.524 . S
C1123 C1124 1.397 . S
C1123 C1128 1.363 . S
C1124 H1101 0.950 . S
C1124 C1123 1.397 . S
C1124 C1125 1.334 1_545 S
C1125 H1102 0.950 . S
C1125 C1124 1.334 1_565 S
C1125 C1126 1.287 1_565 S
C1126 C1125 1.287 1_545 S
C1126 C1127 1.524 . S
C1126 H1145 0.913 1_545 S
C1127 H1103 0.950 . S
C1127 C1126 1.524 . S
C1127 C1128 1.415 . S
C1128 H1104 0.950 . S
C1128 C1123 1.363 . S
C1128 C1127 1.415 . S
C1129 H1105 0.951 . S
C1129 C1130 1.366 . S
C1129 C1131 1.388 . S
C1130 C1129 1.366 . S
C1130 C1134 1.385 . S
C1131 H1106 0.951 . S
C1131 C1129 1.388 . S
C1131 C1132 1.366 . S
C1132 C1131 1.366 . S
C1132 C1133 1.414 . S
C1132 C1135 1.499 . S
C1133 H1107 0.950 . S
C1133 C1132 1.414 . S
C1133 C1134 1.374 . S
C1134 H1108 0.950 . S
C1134 C1130 1.385 . S
C1134 C1133 1.374 . S
C1135 C1132 1.499 . S
C1135 C1136 1.373 . S
C1135 C1137 1.389 . S
C1136 H1109 0.950 . S
C1136 C1122 1.377 . S
C1136 C1135 1.373 . S
C1137 C1121 1.377 . S
C1137 C1135 1.389 . S
C1137 C1138 1.524 . S
C1138 C1137 1.524 . S
C1138 C1139 1.397 . S
C1138 C1143 1.363 . S
C1139 H1110 0.950 . S
C1139 C1138 1.397 . S
C1139 C1140 1.334 . S
C1140 H1111 0.950 . S
C1140 C1139 1.334 . S
C1140 C1141 1.287 . S
C1141 C1140 1.287 . S
C1141 C1142 1.524 . S
C1141 H1144 0.999 . S
C1142 H1112 0.950 . S
C1142 C1141 1.524 . S
C1142 C1143 1.415 . S
C1143 H1113 0.950 . S
C1143 C1138 1.363 . S
C1143 C1142 1.415 . S
H1144 C1141 0.999 . S
H1145 C1126 0.913 1_565 S
H1146 C1164 0.951 . S
H1147 C1166 0.951 . S
H1148 C1168 0.950 . S
H1149 C1169 0.950 . S
H1150 C1171 0.950 . S
H1151 C1174 0.950 . S
H1152 C1175 0.950 . S
H1153 C1177 0.950 . S
H1154 C1178 0.950 . S
H1155 C1179 0.951 . S
H1156 C1181 0.951 . S
H1157 C1183 0.950 . S
H1158 C1184 0.950 . S
H1159 C1186 0.950 . S
H1160 C1189 0.950 . S
H1161 C1190 0.950 . S
H1162 C1192 0.950 . S
H1163 C1193 0.950 . S
C1164 H1146 0.951 . S
C1164 C1165 1.366 . S
C1164 C1166 1.388 . S
C1165 C1164 1.366 . S
C1165 C1169 1.385 . S
C1166 H1147 0.951 . S
C1166 C1164 1.388 . S
C1166 C1167 1.366 . S
C1167 C1166 1.366 . S
C1167 C1168 1.414 . S
C1167 C1170 1.499 . S
C1168 H1148 0.950 . S
C1168 C1167 1.414 . S
C1168 C1169 1.374 . S
C1169 H1149 0.950 . S
C1169 C1165 1.385 . S
C1169 C1168 1.374 . S
C1170 C1167 1.499 . S
C1170 C1171 1.373 . S
C1170 C1172 1.389 . S
C1171 H1150 0.950 . S
C1171 C1170 1.373 . S
C1171 C1187 1.377 . S
C1172 C1170 1.389 . S
C1172 C1173 1.524 . S
C1172 C1186 1.377 . S
C1173 C1172 1.524 . S
C1173 C1174 1.397 . S
C1173 C1178 1.363 . S
C1174 H1151 0.950 . S
C1174 C1173 1.397 . S
C1174 C1175 1.334 . S
C1175 H1152 0.950 . S
C1175 C1174 1.334 . S
C1175 C1176 1.287 . S
C1176 C1175 1.287 . S
C1176 C1177 1.524 . S
C1176 H1195 0.913 . S
C1177 H1153 0.950 . S
C1177 C1176 1.524 . S
C1177 C1178 1.415 . S
C1178 H1154 0.950 . S
C1178 C1173 1.363 . S
C1178 C1177 1.415 . S
C1179 H1155 0.951 . S
C1179 C1180 1.366 . S
C1179 C1181 1.388 . S
C1180 C1179 1.366 . S
C1180 C1184 1.385 . S
C1181 H1156 0.951 . S
C1181 C1179 1.388 . S
C1181 C1182 1.366 . S
C1182 C1181 1.366 . S
C1182 C1183 1.414 . S
C1182 C1185 1.499 . S
C1183 H1157 0.950 . S
C1183 C1182 1.414 . S
C1183 C1184 1.374 . S
C1184 H1158 0.950 . S
C1184 C1180 1.385 . S
C1184 C1183 1.374 . S
C1185 C1182 1.499 . S
C1185 C1186 1.373 . S
C1185 C1187 1.389 . S
C1186 H1159 0.950 . S
C1186 C1172 1.377 . S
C1186 C1185 1.373 . S
C1187 C1171 1.377 . S
C1187 C1185 1.389 . S
C1187 C1188 1.524 . S
C1188 C1187 1.524 . S
C1188 C1189 1.397 . S
C1188 C1193 1.363 . S
C1189 H1160 0.950 . S
C1189 C1188 1.397 . S
C1189 C1190 1.334 . S
C1190 H1161 0.950 . S
C1190 C1189 1.334 . S
C1190 C1191 1.287 . S
C1191 C1190 1.287 . S
C1191 C1192 1.524 . S
C1191 H1194 0.999 . S
C1192 H1162 0.950 . S
C1192 C1191 1.524 . S
C1192 C1193 1.415 . S
C1193 H1163 0.950 . S
C1193 C1188 1.363 . S
C1193 C1192 1.415 . S
H1194 C1191 0.999 . S
H1195 C1176 0.913 . S
H1196 C1214 0.951 . S
H1197 C1216 0.951 . S
H1198 C1218 0.950 1_655 S
H1199 C1219 0.950 . S
H1200 C1221 0.950 . S
H1201 C1224 0.950 . S
H1202 C1225 0.950 . S
H1203 C1227 0.950 . S
H1204 C1228 0.950 . S
H1205 C1229 0.951 . S
H1206 C1231 0.951 . S
H1207 C1233 0.950 . S
H1208 C1234 0.950 . S
H1209 C1236 0.950 . S
H1210 C1239 0.950 . S
H1211 C1240 0.950 . S
H1212 C1242 0.950 . S
H1213 C1243 0.950 . S
C1214 H1196 0.951 . S
C1214 C1215 1.366 . S
C1214 C1216 1.388 1_455 S
C1215 C1214 1.366 . S
C1215 C1219 1.385 . S
C1216 H1197 0.951 . S
C1216 C1214 1.388 1_655 S
C1216 C1217 1.366 . S
C1217 C1216 1.366 . S
C1217 C1218 1.414 1_655 S
C1217 C1220 1.499 . S
C1218 H1198 0.950 1_455 S
C1218 C1217 1.414 1_455 S
C1218 C1219 1.374 . S
C1219 H1199 0.950 . S
C1219 C1215 1.385 . S
C1219 C1218 1.374 . S
C1220 C1217 1.499 . S
C1220 C1221 1.373 . S
C1220 C1222 1.389 . S
C1221 H1200 0.950 . S
C1221 C1220 1.373 . S
C1221 C1237 1.377 . S
C1222 C1220 1.389 . S
C1222 C1223 1.524 . S
C1222 C1236 1.377 . S
C1223 C1222 1.524 . S
C1223 C1224 1.397 . S
C1223 C1228 1.363 . S
C1224 H1201 0.950 . S
C1224 C1223 1.397 . S
C1224 C1225 1.334 . S
C1225 H1202 0.950 . S
C1225 C1224 1.334 . S
C1225 C1226 1.287 . S
C1226 C1225 1.287 . S
C1226 C1227 1.524 . S
C1226 H1245 0.913 . S
C1227 H1203 0.950 . S
C1227 C1226 1.524 . S
C1227 C1228 1.415 . S
C1228 H1204 0.950 . S
C1228 C1223 1.363 . S
C1228 C1227 1.415 . S
C1229 H1205 0.951 . S
C1229 C1230 1.366 . S
C1229 C1231 1.388 . S
C1230 C1229 1.366 . S
C1230 C1234 1.385 . S
C1231 H1206 0.951 . S
C1231 C1229 1.388 . S
C1231 C1232 1.366 . S
C1232 C1231 1.366 . S
C1232 C1233 1.414 . S
C1232 C1235 1.499 . S
C1233 H1207 0.950 . S
C1233 C1232 1.414 . S
C1233 C1234 1.374 . S
C1234 H1208 0.950 . S
C1234 C1230 1.385 . S
C1234 C1233 1.374 . S
C1235 C1232 1.499 . S
C1235 C1236 1.373 . S
C1235 C1237 1.389 . S
C1236 H1209 0.950 . S
C1236 C1222 1.377 . S
C1236 C1235 1.373 . S
C1237 C1221 1.377 . S
C1237 C1235 1.389 . S
C1237 C1238 1.524 . S
C1238 C1237 1.524 . S
C1238 C1239 1.397 . S
C1238 C1243 1.363 . S
C1239 H1210 0.950 . S
C1239 C1238 1.397 . S
C1239 C1240 1.334 . S
C1240 H1211 0.950 . S
C1240 C1239 1.334 . S
C1240 C1241 1.287 . S
C1241 C1240 1.287 . S
C1241 C1242 1.524 . S
C1241 H1244 0.999 . S
C1242 H1212 0.950 . S
C1242 C1241 1.524 . S
C1242 C1243 1.415 . S
C1243 H1213 0.950 . S
C1243 C1238 1.363 . S
C1243 C1242 1.415 . S
H1244 C1241 0.999 . S
H1245 C1226 0.913 . S
H1246 C1264 0.951 . S
H1247 C1266 0.939 1_565 S
H1248 C1268 0.950 . S
H1249 C1269 0.950 . S
H1250 C1271 0.950 . S
H1251 C1274 0.950 . S
H1252 C1275 0.950 . S
H1253 C1277 0.950 . S
H1254 C1278 0.950 . S
H1255 C1279 0.951 . S
H1256 C1281 0.951 . S
H1257 C1283 0.950 . S
H1258 C1284 0.950 . S
H1259 C1286 0.950 . S
H1260 C1289 0.950 . S
H1261 C1290 0.950 . S
H1262 C1292 0.950 . S
H1263 C1293 0.950 . S
C1264 H1246 0.951 . S
C1264 C1265 1.366 . S
C1264 C1266 1.403 . S
C1265 C1264 1.366 . S
C1265 C1269 1.385 . S
C1266 H1247 0.939 1_545 S
C1266 C1264 1.403 . S
C1266 C1267 1.362 1_545 S
C1267 C1266 1.362 1_565 S
C1267 C1268 1.414 . S
C1267 C1270 1.499 . S
C1268 H1248 0.950 . S
C1268 C1267 1.414 . S
C1268 C1269 1.374 1_565 S
C1269 H1249 0.950 . S
C1269 C1265 1.385 . S
C1269 C1268 1.374 1_545 S
C1270 C1267 1.499 . S
C1270 C1271 1.373 . S
C1270 C1272 1.389 . S
C1271 H1250 0.950 . S
C1271 C1270 1.373 . S
C1271 C1287 1.377 . S
C1272 C1270 1.389 . S
C1272 C1273 1.524 . S
C1272 C1286 1.377 . S
C1273 C1272 1.524 . S
C1273 C1274 1.397 . S
C1273 C1278 1.363 . S
C1274 H1251 0.950 . S
C1274 C1273 1.397 . S
C1274 C1275 1.334 . S
C1275 H1252 0.950 . S
C1275 C1274 1.334 . S
C1275 C1276 1.287 . S
C1276 C1275 1.287 . S
C1276 C1277 1.524 . S
C1276 H1295 0.913 . S
C1277 H1253 0.950 . S
C1277 C1276 1.524 . S
C1277 C1278 1.415 . S
C1278 H1254 0.950 . S
C1278 C1273 1.363 . S
C1278 C1277 1.415 . S
C1279 H1255 0.951 . S
C1279 C1280 1.366 . S
C1279 C1281 1.388 . S
C1280 C1279 1.366 . S
C1280 C1284 1.385 . S
C1281 H1256 0.951 . S
C1281 C1279 1.388 . S
C1281 C1282 1.366 . S
C1282 C1281 1.366 . S
C1282 C1283 1.414 . S
C1282 C1285 1.499 . S
C1283 H1257 0.950 . S
C1283 C1282 1.414 . S
C1283 C1284 1.374 . S
C1284 H1258 0.950 . S
C1284 C1280 1.385 . S
C1284 C1283 1.374 . S
C1285 C1282 1.499 . S
C1285 C1286 1.373 . S
C1285 C1287 1.389 . S
C1286 H1259 0.950 . S
C1286 C1272 1.377 . S
C1286 C1285 1.373 . S
C1287 C1271 1.377 . S
C1287 C1285 1.389 . S
C1287 C1288 1.524 . S
C1288 C1287 1.524 . S
C1288 C1289 1.397 . S
C1288 C1293 1.363 . S
C1289 H1260 0.950 . S
C1289 C1288 1.397 . S
C1289 C1290 1.334 . S
C1290 H1261 0.950 . S
C1290 C1289 1.334 . S
C1290 C1291 1.287 . S
C1291 C1290 1.287 . S
C1291 C1292 1.524 . S
C1291 H1294 0.999 . S
C1292 H1262 0.950 . S
C1292 C1291 1.524 . S
C1292 C1293 1.415 . S
C1293 H1263 0.950 . S
C1293 C1288 1.363 . S
C1293 C1292 1.415 . S
H1294 C1291 0.999 . S
H1295 C1276 0.913 . S
H1296 C1314 0.951 . S
H1297 C1316 0.951 . S
H1298 C1318 0.950 . S
H1299 C1319 0.950 . S
H1300 C1321 0.950 . S
H1301 C1324 0.950 . S
H1302 C1325 0.950 . S
H1303 C1327 0.950 . S
H1304 C1328 0.950 . S
H1305 C1329 0.951 . S
H1306 C1331 0.951 . S
H1307 C1333 0.950 . S
H1308 C1334 0.950 . S
H1309 C1336 0.950 . S
H1310 C1339 0.950 . S
H1311 C1340 0.950 . S
H1312 C1342 0.950 . S
H1313 C1343 0.950 . S
C1314 H1296 0.951 . S
C1314 C1315 1.366 . S
C1314 C1316 1.388 . S
C1315 C1314 1.366 . S
C1315 C1319 1.385 . S
C1316 H1297 0.951 . S
C1316 C1314 1.388 . S
C1316 C1317 1.366 . S
C1317 C1316 1.366 . S
C1317 C1318 1.414 . S
C1317 C1320 1.499 . S
C1318 H1298 0.950 . S
C1318 C1317 1.414 . S
C1318 C1319 1.374 . S
C1319 H1299 0.950 . S
C1319 C1315 1.385 . S
C1319 C1318 1.374 . S
C1320 C1317 1.499 . S
C1320 C1321 1.373 . S
C1320 C1322 1.389 . S
C1321 H1300 0.950 . S
C1321 C1320 1.373 . S
C1321 C1337 1.377 . S
C1322 C1320 1.389 . S
C1322 C1323 1.524 . S
C1322 C1336 1.377 . S
C1323 C1322 1.524 . S
C1323 C1324 1.397 . S
C1323 C1328 1.363 . S
C1324 H1301 0.950 . S
C1324 C1323 1.397 . S
C1324 C1325 1.334 . S
C1325 H1302 0.950 . S
C1325 C1324 1.334 . S
C1325 C1326 1.287 . S
C1326 C1325 1.287 . S
C1326 C1327 1.524 . S
C1326 H1345 0.913 . S
C1327 H1303 0.950 . S
C1327 C1326 1.524 . S
C1327 C1328 1.415 . S
C1328 H1304 0.950 . S
C1328 C1323 1.363 . S
C1328 C1327 1.415 . S
C1329 H1305 0.951 . S
C1329 C1330 1.366 . S
C1329 C1331 1.388 . S
C1330 C1329 1.366 . S
C1330 C1334 1.385 . S
C1331 H1306 0.951 . S
C1331 C1329 1.388 . S
C1331 C1332 1.366 . S
C1332 C1331 1.366 . S
C1332 C1333 1.414 . S
C1332 C1335 1.499 . S
C1333 H1307 0.950 . S
C1333 C1332 1.414 . S
C1333 C1334 1.374 . S
C1334 H1308 0.950 . S
C1334 C1330 1.385 . S
C1334 C1333 1.374 . S
C1335 C1332 1.499 . S
C1335 C1336 1.373 . S
C1335 C1337 1.389 . S
C1336 H1309 0.950 . S
C1336 C1322 1.377 . S
C1336 C1335 1.373 . S
C1337 C1321 1.377 . S
C1337 C1335 1.389 . S
C1337 C1338 1.524 . S
C1338 C1337 1.524 . S
C1338 C1339 1.397 . S
C1338 C1343 1.363 . S
C1339 H1310 0.950 . S
C1339 C1338 1.397 . S
C1339 C1340 1.334 . S
C1340 H1311 0.950 . S
C1340 C1339 1.334 . S
C1340 C1341 1.287 . S
C1341 C1340 1.287 . S
C1341 C1342 1.524 . S
C1341 H1344 0.999 . S
C1342 H1312 0.950 . S
C1342 C1341 1.524 . S
C1342 C1343 1.415 . S
C1343 H1313 0.950 . S
C1343 C1338 1.363 . S
C1343 C1342 1.415 . S
H1344 C1341 0.999 . S
H1345 C1326 0.913 . S
H1346 C1364 0.951 . S
H1347 C1366 0.951 . S
H1348 C1368 0.950 . S
H1349 C1369 0.950 . S
H1350 C1371 0.950 . S
H1351 C1374 0.950 . S
H1352 C1375 0.950 . S
H1353 C1377 0.950 . S
H1354 C1378 0.950 . S
H1355 C1379 0.951 . S
H1356 C1381 0.951 . S
H1357 C1383 0.950 . S
H1358 C1384 0.950 . S
H1359 C1386 0.935 . S
H1360 C1389 0.950 . S
H1361 C1390 0.950 . S
H1362 C1392 0.950 . S
H1363 C1393 0.950 . S
C1364 H1346 0.951 . S
C1364 C1365 1.366 . S
C1364 C1366 1.388 . S
C1365 C1364 1.366 . S
C1365 C1369 1.385 . S
C1366 H1347 0.951 . S
C1366 C1364 1.388 . S
C1366 C1367 1.366 . S
C1367 C1366 1.366 . S
C1367 C1368 1.414 . S
C1367 C1370 1.499 . S
C1368 H1348 0.950 . S
C1368 C1367 1.414 . S
C1368 C1369 1.374 . S
C1369 H1349 0.950 . S
C1369 C1365 1.385 . S
C1369 C1368 1.374 . S
C1370 C1367 1.499 . S
C1370 C1371 1.373 1_655 S
C1370 C1372 1.389 . S
C1371 H1350 0.950 . S
C1371 C1370 1.373 1_455 S
C1371 C1387 1.377 . S
C1372 C1370 1.389 . S
C1372 C1373 1.524 . S
C1372 C1386 1.407 . S
C1373 C1372 1.524 . S
C1373 C1374 1.397 . S
C1373 C1378 1.363 . S
C1374 H1351 0.950 . S
C1374 C1373 1.397 . S
C1374 C1375 1.334 . S
C1375 H1352 0.950 . S
C1375 C1374 1.334 . S
C1375 C1376 1.287 . S
C1376 C1375 1.287 . S
C1376 C1377 1.524 . S
C1376 H1395 0.913 . S
C1377 H1353 0.950 . S
C1377 C1376 1.524 . S
C1377 C1378 1.415 . S
C1378 H1354 0.950 . S
C1378 C1373 1.363 . S
C1378 C1377 1.415 . S
C1379 H1355 0.951 . S
C1379 C1380 1.366 . S
C1379 C1381 1.388 . S
C1380 C1379 1.366 . S
C1380 C1384 1.385 . S
C1381 H1356 0.951 . S
C1381 C1379 1.388 . S
C1381 C1382 1.366 . S
C1382 C1381 1.366 . S
C1382 C1383 1.414 . S
C1382 C1385 1.499 . S
C1383 H1357 0.950 . S
C1383 C1382 1.414 . S
C1383 C1384 1.374 . S
C1384 H1358 0.950 . S
C1384 C1380 1.385 . S
C1384 C1383 1.374 . S
C1385 C1382 1.499 . S
C1385 C1386 1.361 1_455 S
C1385 C1387 1.389 . S
C1386 H1359 0.935 . S
C1386 C1372 1.407 . S
C1386 C1385 1.361 1_655 S
C1387 C1371 1.377 . S
C1387 C1385 1.389 . S
C1387 C1388 1.524 . S
C1388 C1387 1.524 . S
C1388 C1389 1.397 . S
C1388 C1393 1.363 . S
C1389 H1360 0.950 . S
C1389 C1388 1.397 . S
C1389 C1390 1.334 . S
C1390 H1361 0.950 . S
C1390 C1389 1.334 . S
C1390 C1391 1.287 . S
C1391 C1390 1.287 . S
C1391 C1392 1.524 . S
C1391 H1394 0.999 . S
C1392 H1362 0.950 . S
C1392 C1391 1.524 . S
C1392 C1393 1.415 . S
C1393 H1363 0.950 . S
C1393 C1388 1.363 . S
C1393 C1392 1.415 . S
H1394 C1391 0.999 . S
H1395 C1376 0.913 . S
H1396 C1414 0.951 . S
H1397 C1416 0.951 . S
H1398 C1418 0.950 . S
H1399 C1419 0.950 . S
H1400 C1421 0.950 . S
H1401 C1424 0.950 . S
H1402 C1425 0.950 . S
H1403 C1427 0.950 . S
H1404 C1428 0.950 . S
H1405 C1429 0.951 . S
H1406 C1431 0.951 . S
H1407 C1433 0.950 . S
H1408 C1434 0.950 . S
H1409 C1436 0.950 . S
H1410 C1439 0.950 . S
H1411 C1440 0.950 . S
H1412 C1442 0.950 . S
H1413 C1443 0.950 . S
C1414 H1396 0.951 . S
C1414 C1415 1.366 . S
C1414 C1416 1.388 . S
C1415 C1414 1.366 . S
C1415 C1419 1.385 . S
C1416 H1397 0.951 . S
C1416 C1414 1.388 . S
C1416 C1417 1.366 . S
C1417 C1416 1.366 . S
C1417 C1418 1.414 . S
C1417 C1420 1.499 . S
C1418 H1398 0.950 . S
C1418 C1417 1.414 . S
C1418 C1419 1.374 . S
C1419 H1399 0.950 . S
C1419 C1415 1.385 . S
C1419 C1418 1.374 . S
C1420 C1417 1.499 . S
C1420 C1421 1.373 . S
C1420 C1422 1.389 1_565 S
C1421 H1400 0.950 . S
C1421 C1420 1.373 . S
C1421 C1437 1.377 . S
C1422 C1420 1.389 1_545 S
C1422 C1423 1.524 . S
C1422 C1436 1.377 . S
C1423 C1422 1.524 . S
C1423 C1424 1.397 . S
C1423 C1428 1.363 . S
C1424 H1401 0.950 . S
C1424 C1423 1.397 . S
C1424 C1425 1.334 . S
C1425 H1402 0.950 . S
C1425 C1424 1.334 . S
C1425 C1426 1.287 . S
C1426 C1425 1.287 . S
C1426 C1427 1.524 . S
C1426 H1445 0.913 . S
C1427 H1403 0.950 . S
C1427 C1426 1.524 . S
C1427 C1428 1.415 . S
C1428 H1404 0.950 . S
C1428 C1423 1.363 . S
C1428 C1427 1.415 . S
C1429 H1405 0.951 . S
C1429 C1430 1.366 . S
C1429 C1431 1.388 . S
C1430 C1429 1.366 . S
C1430 C1434 1.385 . S
C1431 H1406 0.951 . S
C1431 C1429 1.388 . S
C1431 C1432 1.366 . S
C1432 C1431 1.366 . S
C1432 C1433 1.414 . S
C1432 C1435 1.499 . S
C1433 H1407 0.950 . S
C1433 C1432 1.414 . S
C1433 C1434 1.374 . S
C1434 H1408 0.950 . S
C1434 C1430 1.385 . S
C1434 C1433 1.374 . S
C1435 C1432 1.499 . S
C1435 C1436 1.373 . S
C1435 C1437 1.389 1_545 S
C1436 H1409 0.950 . S
C1436 C1422 1.377 . S
C1436 C1435 1.373 . S
C1437 C1421 1.377 . S
C1437 C1435 1.389 1_565 S
C1437 C1438 1.524 . S
C1438 C1437 1.524 . S
C1438 C1439 1.397 . S
C1438 C1443 1.363 . S
C1439 H1410 0.950 . S
C1439 C1438 1.397 . S
C1439 C1440 1.334 . S
C1440 H1411 0.950 . S
C1440 C1439 1.334 . S
C1440 C1441 1.287 . S
C1441 C1440 1.287 . S
C1441 C1442 1.524 . S
C1441 H1444 0.999 . S
C1442 H1412 0.950 . S
C1442 C1441 1.524 . S
C1442 C1443 1.415 . S
C1443 H1413 0.950 . S
C1443 C1438 1.363 . S
C1443 C1442 1.415 . S
H1444 C1441 0.999 . S
H1445 C1426 0.913 . S
H1446 C1464 0.951 . S
H1447 C1466 0.951 . S
H1448 C1468 0.950 . S
H1449 C1469 0.950 . S
H1450 C1471 0.950 . S
H1451 C1474 0.950 . S
H1452 C1475 0.950 . S
H1453 C1477 0.950 . S
H1454 C1478 0.950 . S
H1455 C1479 0.951 . S
H1456 C1481 0.951 . S
H1457 C1483 0.950 . S
H1458 C1484 0.950 . S
H1459 C1486 0.950 . S
H1460 C1489 0.950 . S
H1461 C1490 0.950 . S
H1462 C1492 0.950 . S
H1463 C1493 0.950 . S
C1464 H1446 0.951 . S
C1464 C1465 1.366 . S
C1464 C1466 1.388 . S
C1465 C1464 1.366 . S
C1465 C1469 1.385 . S
C1466 H1447 0.951 . S
C1466 C1464 1.388 . S
C1466 C1467 1.366 . S
C1467 C1466 1.366 . S
C1467 C1468 1.414 . S
C1467 C1470 1.499 . S
C1468 H1448 0.950 . S
C1468 C1467 1.414 . S
C1468 C1469 1.374 . S
C1469 H1449 0.950 . S
C1469 C1465 1.385 . S
C1469 C1468 1.374 . S
C1470 C1467 1.499 . S
C1470 C1471 1.373 . S
C1470 C1472 1.389 . S
C1471 H1450 0.950 . S
C1471 C1470 1.373 . S
C1471 C1487 1.377 . S
C1472 C1470 1.389 . S
C1472 C1473 1.524 . S
C1472 C1486 1.377 . S
C1473 C1472 1.524 . S
C1473 C1474 1.397 . S
C1473 C1478 1.363 . S
C1474 H1451 0.950 . S
C1474 C1473 1.397 . S
C1474 C1475 1.334 . S
C1475 H1452 0.950 . S
C1475 C1474 1.334 . S
C1475 C1476 1.287 . S
C1476 C1475 1.287 . S
C1476 C1477 1.524 . S
C1476 H1495 0.913 . S
C1477 H1453 0.950 . S
C1477 C1476 1.524 . S
C1477 C1478 1.415 . S
C1478 H1454 0.950 . S
C1478 C1473 1.363 . S
C1478 C1477 1.415 . S
C1479 H1455 0.951 . S
C1479 C1480 1.366 . S
C1479 C1481 1.388 . S
C1480 C1479 1.366 . S
C1480 C1484 1.385 . S
C1481 H1456 0.951 . S
C1481 C1479 1.388 . S
C1481 C1482 1.366 . S
C1482 C1481 1.366 . S
C1482 C1483 1.414 . S
C1482 C1485 1.499 . S
C1483 H1457 0.950 . S
C1483 C1482 1.414 . S
C1483 C1484 1.374 . S
C1484 H1458 0.950 . S
C1484 C1480 1.385 . S
C1484 C1483 1.374 . S
C1485 C1482 1.499 . S
C1485 C1486 1.373 . S
C1485 C1487 1.389 . S
C1486 H1459 0.950 . S
C1486 C1472 1.377 . S
C1486 C1485 1.373 . S
C1487 C1471 1.377 . S
C1487 C1485 1.389 . S
C1487 C1488 1.524 . S
C1488 C1487 1.524 . S
C1488 C1489 1.397 . S
C1488 C1493 1.363 . S
C1489 H1460 0.950 . S
C1489 C1488 1.397 . S
C1489 C1490 1.334 . S
C1490 H1461 0.950 . S
C1490 C1489 1.334 . S
C1490 C1491 1.287 . S
C1491 C1490 1.287 . S
C1491 C1492 1.524 . S
C1491 H1494 0.999 . S
C1492 H1462 0.950 . S
C1492 C1491 1.524 . S
C1492 C1493 1.415 . S
C1493 H1463 0.950 . S
C1493 C1488 1.363 . S
C1493 C1492 1.415 . S
H1494 C1491 0.999 . S
H1495 C1476 0.913 . S
H1496 C1514 0.951 . S
H1497 C1516 0.951 . S
H1498 C1518 0.950 . S
H1499 C1519 0.950 . S
H1500 C1521 0.950 . S
H1501 C1524 0.950 . S
H1502 C1525 0.950 . S
H1503 C1527 0.950 . S
H1504 C1528 0.950 . S
H1505 C1529 0.951 . S
H1506 C1531 0.951 . S
H1507 C1533 0.950 . S
H1508 C1534 0.950 . S
H1509 C1536 0.950 . S
H1510 C1539 0.950 . S
H1511 C1540 0.950 1_655 S
H1512 C1542 0.950 . S
H1513 C1543 0.950 . S
C1514 H1496 0.951 . S
C1514 C1515 1.366 . S
C1514 C1516 1.388 . S
C1515 C1514 1.366 . S
C1515 C1519 1.385 . S
C1516 H1497 0.951 . S
C1516 C1514 1.388 . S
C1516 C1517 1.366 . S
C1517 C1516 1.366 . S
C1517 C1518 1.414 . S
C1517 C1520 1.499 . S
C1518 H1498 0.950 . S
C1518 C1517 1.414 . S
C1518 C1519 1.374 . S
C1519 H1499 0.950 . S
C1519 C1515 1.385 . S
C1519 C1518 1.374 . S
C1520 C1517 1.499 . S
C1520 C1521 1.373 . S
C1520 C1522 1.389 1_455 S
C1521 H1500 0.950 . S
C1521 C1520 1.373 . S
C1521 C1537 1.377 . S
C1522 C1520 1.389 1_655 S
C1522 C1523 1.524 . S
C1522 C1536 1.377 . S
C1523 C1522 1.524 . S
C1523 C1524 1.397 1_655 S
C1523 C1528 1.363 . S
C1524 H1501 0.950 . S
C1524 C1523 1.397 1_455 S
C1524 C1525 1.334 . S
C1525 H1502 0.950 . S
C1525 C1524 1.334 . S
C1525 C1526 1.287 1_455 S
C1526 C1525 1.287 1_655 S
C1526 C1527 1.524 . S
C1526 H1545 0.913 . S
C1527 H1503 0.950 . S
C1527 C1526 1.524 . S
C1527 C1528 1.415 . S
C1528 H1504 0.950 . S
C1528 C1523 1.363 . S
C1528 C1527 1.415 . S
C1529 H1505 0.951 . S
C1529 C1530 1.366 . S
C1529 C1531 1.388 . S
C1530 C1529 1.366 . S
C1530 C1534 1.385 . S
C1531 H1506 0.951 . S
C1531 C1529 1.388 . S
C1531 C1532 1.366 . S
C1532 C1531 1.366 . S
C1532 C1533 1.414 . S
C1532 C1535 1.499 . S
C1533 H1507 0.950 . S
C1533 C1532 1.414 . S
C1533 C1534 1.374 . S
C1534 H1508 0.950 . S
C1534 C1530 1.385 . S
C1534 C1533 1.374 . S
C1535 C1532 1.499 . S
C1535 C1536 1.373 . S
C1535 C1537 1.389 1_655 S
C1536 H1509 0.950 . S
C1536 C1522 1.377 . S
C1536 C1535 1.373 . S
C1537 C1521 1.377 . S
C1537 C1535 1.389 1_455 S
C1537 C1538 1.524 . S
C1538 C1537 1.524 . S
C1538 C1539 1.397 1_455 S
C1538 C1543 1.363 . S
C1539 H1510 0.950 . S
C1539 C1538 1.397 1_655 S
C1539 C1540 1.334 1_655 S
C1540 H1511 0.950 1_455 S
C1540 C1539 1.334 1_455 S
C1540 C1541 1.287 . S
C1541 C1540 1.287 . S
C1541 C1542 1.524 . S
C1541 H1544 0.999 . S
C1542 H1512 0.950 . S
C1542 C1541 1.524 . S
C1542 C1543 1.415 . S
C1543 H1513 0.950 . S
C1543 C1538 1.363 . S
C1543 C1542 1.415 . S
H1544 C1541 0.999 . S
H1545 C1526 0.913 . S
H1546 C1564 0.951 . S
H1547 C1566 0.951 . S
H1548 C1568 0.950 . S
H1549 C1569 0.950 . S
H1550 C1571 0.950 . S
H1551 C1574 0.950 . S
H1552 C1575 0.950 1_554 S
H1553 C1577 0.950 . S
H1554 C1578 0.950 . S
H1555 C1579 0.951 . S
H1556 C1581 0.951 . S
H1557 C1583 0.950 . S
H1558 C1584 0.950 . S
H1559 C1586 0.950 . S
H1560 C1589 0.950 . S
H1561 C1590 0.950 1_556 S
H1562 C1592 0.950 . S
H1563 C1593 0.950 . S
C1564 H1546 0.951 . S
C1564 C1565 1.366 . S
C1564 C1566 1.388 . S
C1565 C1564 1.366 . S
C1565 C1569 1.385 . S
C1566 H1547 0.951 . S
C1566 C1564 1.388 . S
C1566 C1567 1.366 . S
C1567 C1566 1.366 . S
C1567 C1568 1.414 . S
C1567 C1570 1.499 . S
C1568 H1548 0.950 . S
C1568 C1567 1.414 . S
C1568 C1569 1.374 . S
C1569 H1549 0.950 . S
C1569 C1565 1.385 . S
C1569 C1568 1.374 . S
C1570 C1567 1.499 . S
C1570 C1571 1.373 1_565 S
C1570 C1572 1.389 1_554 S
C1571 H1550 0.950 . S
C1571 C1570 1.373 1_545 S
C1571 C1587 1.377 . S
C1572 C1570 1.389 1_556 S
C1572 C1573 1.524 . S
C1572 C1586 1.377 . S
C1573 C1572 1.524 . S
C1573 C1574 1.397 1_556 S
C1573 C1578 1.363 . S
C1574 H1551 0.950 . S
C1574 C1573 1.397 1_554 S
C1574 C1575 1.334 1_554 S
C1575 H1552 0.950 1_556 S
C1575 C1574 1.334 1_556 S
C1575 C1576 1.287 . S
C1576 C1575 1.287 . S
C1576 C1577 1.524 . S
C1576 H1595 0.913 . S
C1577 H1553 0.950 . S
C1577 C1576 1.524 . S
C1577 C1578 1.415 . S
C1578 H1554 0.950 . S
C1578 C1573 1.363 . S
C1578 C1577 1.415 . S
C1579 H1555 0.951 . S
C1579 C1580 1.366 . S
C1579 C1581 1.388 . S
C1580 C1579 1.366 . S
C1580 C1584 1.385 . S
C1581 H1556 0.951 . S
C1581 C1579 1.388 . S
C1581 C1582 1.366 . S
C1582 C1581 1.366 . S
C1582 C1583 1.414 . S
C1582 C1585 1.499 . S
C1583 H1557 0.950 . S
C1583 C1582 1.414 . S
C1583 C1584 1.374 . S
C1584 H1558 0.950 . S
C1584 C1580 1.385 . S
C1584 C1583 1.374 . S
C1585 C1582 1.499 . S
C1585 C1586 1.373 1_545 S
C1585 C1587 1.389 1_556 S
C1586 H1559 0.950 . S
C1586 C1572 1.377 . S
C1586 C1585 1.373 1_565 S
C1587 C1571 1.377 . S
C1587 C1585 1.389 1_554 S
C1587 C1588 1.524 . S
C1588 C1587 1.524 . S
C1588 C1589 1.397 1_554 S
C1588 C1593 1.363 . S
C1589 H1560 0.950 . S
C1589 C1588 1.397 1_556 S
C1589 C1590 1.334 1_556 S
C1590 H1561 0.950 1_554 S
C1590 C1589 1.334 1_554 S
C1590 C1591 1.287 . S
C1591 C1590 1.287 . S
C1591 C1592 1.524 . S
C1591 H1594 0.999 . S
C1592 H1562 0.950 . S
C1592 C1591 1.524 . S
C1592 C1593 1.415 . S
C1593 H1563 0.950 . S
C1593 C1588 1.363 . S
C1593 C1592 1.415 . S
H1594 C1591 0.999 . S
H1595 C1576 0.913 . S
H1596 C1614 0.951 . S
H1597 C1616 0.951 . S
H1598 C1618 0.950 . S
H1599 C1619 0.950 . S
H1600 C1621 0.950 . S
H1601 C1624 0.950 . S
H1602 C1625 0.950 . S
H1603 C1627 0.950 . S
H1604 C1628 0.950 . S
H1605 C1629 0.951 . S
H1606 C1631 0.951 . S
H1607 C1633 0.950 . S
H1608 C1634 0.950 . S
H1609 C1636 0.950 . S
H1610 C1639 0.950 . S
H1611 C1640 0.950 . S
H1612 C1642 0.950 . S
H1613 C1643 0.950 . S
C1614 H1596 0.951 . S
C1614 C1615 1.366 . S
C1614 C1616 1.388 . S
C1615 C1614 1.366 . S
C1615 C1619 1.385 . S
C1616 H1597 0.951 . S
C1616 C1614 1.388 . S
C1616 C1617 1.366 . S
C1617 C1616 1.366 . S
C1617 C1618 1.414 . S
C1617 C1620 1.499 . S
C1618 H1598 0.950 . S
C1618 C1617 1.414 . S
C1618 C1619 1.374 . S
C1619 H1599 0.950 . S
C1619 C1615 1.385 . S
C1619 C1618 1.374 . S
C1620 C1617 1.499 . S
C1620 C1621 1.373 . S
C1620 C1622 1.389 . S
C1621 H1600 0.950 . S
C1621 C1620 1.373 . S
C1621 C1637 1.377 . S
C1622 C1620 1.389 . S
C1622 C1623 1.524 . S
C1622 C1636 1.377 . S
C1623 C1622 1.524 . S
C1623 C1624 1.397 . S
C1623 C1628 1.363 . S
C1624 H1601 0.950 . S
C1624 C1623 1.397 . S
C1624 C1625 1.334 . S
C1625 H1602 0.950 . S
C1625 C1624 1.334 . S
C1625 C1626 1.287 . S
C1626 C1625 1.287 . S
C1626 C1627 1.524 . S
C1626 H1645 0.913 . S
C1627 H1603 0.950 . S
C1627 C1626 1.524 . S
C1627 C1628 1.415 . S
C1628 H1604 0.950 . S
C1628 C1623 1.363 . S
C1628 C1627 1.415 . S
C1629 H1605 0.951 . S
C1629 C1630 1.366 . S
C1629 C1631 1.388 . S
C1630 C1629 1.366 . S
C1630 C1634 1.385 . S
C1631 H1606 0.951 . S
C1631 C1629 1.388 . S
C1631 C1632 1.366 . S
C1632 C1631 1.366 . S
C1632 C1633 1.414 . S
C1632 C1635 1.499 . S
C1633 H1607 0.950 . S
C1633 C1632 1.414 . S
C1633 C1634 1.374 . S
C1634 H1608 0.950 . S
C1634 C1630 1.385 . S
C1634 C1633 1.374 . S
C1635 C1632 1.499 . S
C1635 C1636 1.373 . S
C1635 C1637 1.389 . S
C1636 H1609 0.950 . S
C1636 C1622 1.377 . S
C1636 C1635 1.373 . S
C1637 C1621 1.377 . S
C1637 C1635 1.389 . S
C1637 C1638 1.524 . S
C1638 C1637 1.524 . S
C1638 C1639 1.397 . S
C1638 C1643 1.363 . S
C1639 H1610 0.950 . S
C1639 C1638 1.397 . S
C1639 C1640 1.334 . S
C1640 H1611 0.950 . S
C1640 C1639 1.334 . S
C1640 C1641 1.287 . S
C1641 C1640 1.287 . S
C1641 C1642 1.524 . S
C1641 H1644 0.999 . S
C1642 H1612 0.950 . S
C1642 C1641 1.524 . S
C1642 C1643 1.415 . S
C1643 H1613 0.950 . S
C1643 C1638 1.363 . S
C1643 C1642 1.415 . S
H1644 C1641 0.999 . S
H1645 C1626 0.913 . S
H1646 C1664 0.951 . S
H1647 C1666 0.951 . S
H1648 C1668 0.950 . S
H1649 C1669 0.950 . S
H1650 C1671 0.950 . S
H1651 C1674 0.950 . S
H1652 C1675 0.950 . S
H1653 C1677 0.950 . S
H1654 C1678 0.950 . S
H1655 C1679 0.951 . S
H1656 C1681 0.951 . S
H1657 C1683 0.950 . S
H1658 C1684 0.950 . S
H1659 C1686 0.950 . S
H1660 C1689 0.950 . S
H1661 C1690 0.950 . S
H1662 C1692 0.950 . S
H1663 C1693 0.950 . S
C1664 H1646 0.951 . S
C1664 C1665 1.366 . S
C1664 C1666 1.388 . S
C1665 C1664 1.366 . S
C1665 C1669 1.385 . S
C1666 H1647 0.951 . S
C1666 C1664 1.388 . S
C1666 C1667 1.366 . S
C1667 C1666 1.366 . S
C1667 C1668 1.414 . S
C1667 C1670 1.499 . S
C1668 H1648 0.950 . S
C1668 C1667 1.414 . S
C1668 C1669 1.374 . S
C1669 H1649 0.950 . S
C1669 C1665 1.385 . S
C1669 C1668 1.374 . S
C1670 C1667 1.499 . S
C1670 C1671 1.373 . S
C1670 C1672 1.389 . S
C1671 H1650 0.950 . S
C1671 C1670 1.373 . S
C1671 C1687 1.377 . S
C1672 C1670 1.389 . S
C1672 C1673 1.524 . S
C1672 C1686 1.377 . S
C1673 C1672 1.524 . S
C1673 C1674 1.397 . S
C1673 C1678 1.363 . S
C1674 H1651 0.950 . S
C1674 C1673 1.397 . S
C1674 C1675 1.334 1_554 S
C1675 H1652 0.950 . S
C1675 C1674 1.334 1_556 S
C1675 C1676 1.287 . S
C1676 C1675 1.287 . S
C1676 C1677 1.524 1_556 S
C1676 H1695 0.913 . S
C1677 H1653 0.950 . S
C1677 C1676 1.524 1_554 S
C1677 C1678 1.415 . S
C1678 H1654 0.950 . S
C1678 C1673 1.363 . S
C1678 C1677 1.415 . S
C1679 H1655 0.951 . S
C1679 C1680 1.366 . S
C1679 C1681 1.388 . S
C1680 C1679 1.366 . S
C1680 C1684 1.385 . S
C1681 H1656 0.951 . S
C1681 C1679 1.388 . S
C1681 C1682 1.366 . S
C1682 C1681 1.366 . S
C1682 C1683 1.414 . S
C1682 C1685 1.499 . S
C1683 H1657 0.950 . S
C1683 C1682 1.414 . S
C1683 C1684 1.374 . S
C1684 H1658 0.950 . S
C1684 C1680 1.385 . S
C1684 C1683 1.374 . S
C1685 C1682 1.499 . S
C1685 C1686 1.373 . S
C1685 C1687 1.389 . S
C1686 H1659 0.950 . S
C1686 C1672 1.377 . S
C1686 C1685 1.373 . S
C1687 C1671 1.377 . S
C1687 C1685 1.389 . S
C1687 C1688 1.524 . S
C1688 C1687 1.524 . S
C1688 C1689 1.397 . S
C1688 C1693 1.363 . S
C1689 H1660 0.950 . S
C1689 C1688 1.397 . S
C1689 C1690 1.334 . S
C1690 H1661 0.950 . S
C1690 C1689 1.334 . S
C1690 C1691 1.287 . S
C1691 C1690 1.287 . S
C1691 C1692 1.524 . S
C1691 H1694 0.999 . S
C1692 H1662 0.950 . S
C1692 C1691 1.524 . S
C1692 C1693 1.415 . S
C1693 H1663 0.950 . S
C1693 C1688 1.363 . S
C1693 C1692 1.415 . S
H1694 C1691 0.999 . S
H1695 C1676 0.913 . S
H1696 C1714 0.951 . S
H1697 C1716 0.951 . S
H1698 C1718 0.950 . S
H1699 C1719 0.950 . S
H1700 C1721 0.950 . S
H1701 C1724 0.950 . S
H1702 C1725 0.950 . S
H1703 C1727 0.950 . S
H1704 C1728 0.950 . S
H1705 C1729 0.951 . S
H1706 C1731 0.951 . S
H1707 C1733 0.950 . S
H1708 C1734 0.950 . S
H1709 C1736 0.950 . S
H1710 C1739 0.950 . S
H1711 C1740 0.950 . S
H1712 C1742 0.950 . S
H1713 C1743 0.950 . S
C1714 H1696 0.951 . S
C1714 C1715 1.366 . S
C1714 C1716 1.388 . S
C1715 C1714 1.366 . S
C1715 C1719 1.385 . S
C1716 H1697 0.951 . S
C1716 C1714 1.388 . S
C1716 C1717 1.366 . S
C1717 C1716 1.366 . S
C1717 C1718 1.414 . S
C1717 C1720 1.499 . S
C1718 H1698 0.950 . S
C1718 C1717 1.414 . S
C1718 C1719 1.374 . S
C1719 H1699 0.950 . S
C1719 C1715 1.385 . S
C1719 C1718 1.374 . S
C1720 C1717 1.499 . S
C1720 C1721 1.373 . S
C1720 C1722 1.389 . S
C1721 H1700 0.950 . S
C1721 C1720 1.373 . S
C1721 C1737 1.377 . S
C1722 C1720 1.389 . S
C1722 C1723 1.524 . S
C1722 C1736 1.377 . S
C1723 C1722 1.524 . S
C1723 C1724 1.397 . S
C1723 C1728 1.363 . S
C1724 H1701 0.950 . S
C1724 C1723 1.397 . S
C1724 C1725 1.334 . S
C1725 H1702 0.950 . S
C1725 C1724 1.334 . S
C1725 C1726 1.287 . S
C1726 C1725 1.287 . S
C1726 C1727 1.524 . S
C1726 H1745 0.913 . S
C1727 H1703 0.950 . S
C1727 C1726 1.524 . S
C1727 C1728 1.415 . S
C1728 H1704 0.950 . S
C1728 C1723 1.363 . S
C1728 C1727 1.415 . S
C1729 H1705 0.951 . S
C1729 C1730 1.366 . S
C1729 C1731 1.388 . S
C1730 C1729 1.366 . S
C1730 C1734 1.385 . S
C1731 H1706 0.951 . S
C1731 C1729 1.388 . S
C1731 C1732 1.366 . S
C1732 C1731 1.366 . S
C1732 C1733 1.414 . S
C1732 C1735 1.499 . S
C1733 H1707 0.950 . S
C1733 C1732 1.414 . S
C1733 C1734 1.374 . S
C1734 H1708 0.950 . S
C1734 C1730 1.385 . S
C1734 C1733 1.374 . S
C1735 C1732 1.499 . S
C1735 C1736 1.373 . S
C1735 C1737 1.389 . S
C1736 H1709 0.950 . S
C1736 C1722 1.377 . S
C1736 C1735 1.373 . S
C1737 C1721 1.377 . S
C1737 C1735 1.389 . S
C1737 C1738 1.524 . S
C1738 C1737 1.524 . S
C1738 C1739 1.397 . S
C1738 C1743 1.363 . S
C1739 H1710 0.950 . S
C1739 C1738 1.397 . S
C1739 C1740 1.334 . S
C1740 H1711 0.950 . S
C1740 C1739 1.334 . S
C1740 C1741 1.287 . S
C1741 C1740 1.287 . S
C1741 C1742 1.524 . S
C1741 H1744 0.999 . S
C1742 H1712 0.950 . S
C1742 C1741 1.524 . S
C1742 C1743 1.415 . S
C1743 H1713 0.950 . S
C1743 C1738 1.363 . S
C1743 C1742 1.415 . S
H1744 C1741 0.999 . S
H1745 C1726 0.913 . S
H1746 C1764 0.951 . S
H1747 C1766 0.951 . S
H1748 C1768 0.950 . S
H1749 C1769 0.950 . S
H1750 C1771 0.950 . S
H1751 C1774 0.950 . S
H1752 C1775 0.950 . S
H1753 C1777 0.950 . S
H1754 C1778 0.950 . S
H1755 C1779 0.951 . S
H1756 C1781 0.951 . S
H1757 C1783 0.950 . S
H1758 C1784 0.950 . S
H1759 C1786 0.950 . S
H1760 C1789 0.950 . S
H1761 C1790 0.950 . S
H1762 C1792 0.950 . S
H1763 C1793 0.950 . S
C1764 H1746 0.951 . S
C1764 C1765 1.366 . S
C1764 C1766 1.388 . S
C1765 C1764 1.366 . S
C1765 C1769 1.385 . S
C1766 H1747 0.951 . S
C1766 C1764 1.388 . S
C1766 C1767 1.366 . S
C1767 C1766 1.366 . S
C1767 C1768 1.414 . S
C1767 C1770 1.499 . S
C1768 H1748 0.950 . S
C1768 C1767 1.414 . S
C1768 C1769 1.374 . S
C1769 H1749 0.950 . S
C1769 C1765 1.385 . S
C1769 C1768 1.374 . S
C1770 C1767 1.499 . S
C1770 C1771 1.373 . S
C1770 C1772 1.389 . S
C1771 H1750 0.950 . S
C1771 C1770 1.373 . S
C1771 C1787 1.377 . S
C1772 C1770 1.389 . S
C1772 C1773 1.524 . S
C1772 C1786 1.377 . S
C1773 C1772 1.524 . S
C1773 C1774 1.397 . S
C1773 C1778 1.363 . S
C1774 H1751 0.950 . S
C1774 C1773 1.397 . S
C1774 C1775 1.334 . S
C1775 H1752 0.950 . S
C1775 C1774 1.334 . S
C1775 C1776 1.287 . S
C1776 C1775 1.287 . S
C1776 C1777 1.524 . S
C1776 H1795 0.913 . S
C1777 H1753 0.950 . S
C1777 C1776 1.524 . S
C1777 C1778 1.415 . S
C1778 H1754 0.950 . S
C1778 C1773 1.363 . S
C1778 C1777 1.415 . S
C1779 H1755 0.951 . S
C1779 C1780 1.366 . S
C1779 C1781 1.388 . S
C1780 C1779 1.366 . S
C1780 C1784 1.385 . S
C1781 H1756 0.951 . S
C1781 C1779 1.388 . S
C1781 C1782 1.366 . S
C1782 C1781 1.366 . S
C1782 C1783 1.414 . S
C1782 C1785 1.499 . S
C1783 H1757 0.950 . S
C1783 C1782 1.414 . S
C1783 C1784 1.374 . S
C1784 H1758 0.950 . S
C1784 C1780 1.385 . S
C1784 C1783 1.374 . S
C1785 C1782 1.499 . S
C1785 C1786 1.373 . S
C1785 C1787 1.389 . S
C1786 H1759 0.950 . S
C1786 C1772 1.377 . S
C1786 C1785 1.373 . S
C1787 C1771 1.377 . S
C1787 C1785 1.389 . S
C1787 C1788 1.524 . S
C1788 C1787 1.524 . S
C1788 C1789 1.397 . S
C1788 C1793 1.363 . S
C1789 H1760 0.950 . S
C1789 C1788 1.397 . S
C1789 C1790 1.334 . S
C1790 H1761 0.950 . S
C1790 C1789 1.334 . S
C1790 C1791 1.287 . S
C1791 C1790 1.287 . S
C1791 C1792 1.524 . S
C1791 H1794 0.999 . S
C1792 H1762 0.950 . S
C1792 C1791 1.524 . S
C1792 C1793 1.415 . S
C1793 H1763 0.950 . S
C1793 C1788 1.363 . S
C1793 C1792 1.415 . S
H1794 C1791 0.999 . S
H1795 C1776 0.913 . S
H1796 C1814 0.951 . S
H1797 C1816 0.951 . S
H1798 C1818 0.950 . S
H1799 C1819 0.950 . S
H1800 C1821 0.950 . S
H1801 C1824 0.950 . S
H1802 C1825 0.950 . S
H1803 C1827 0.950 . S
H1804 C1828 0.950 . S
H1805 C1829 0.951 . S
H1806 C1831 0.951 . S
H1807 C1833 0.950 . S
H1808 C1834 0.950 . S
H1809 C1836 0.950 . S
H1810 C1839 0.950 . S
H1811 C1840 0.950 . S
H1812 C1842 0.950 . S
H1813 C1843 0.950 . S
C1814 H1796 0.951 . S
C1814 C1815 1.366 . S
C1814 C1816 1.388 . S
C1815 C1814 1.366 . S
C1815 C1819 1.385 . S
C1816 H1797 0.951 . S
C1816 C1814 1.388 . S
C1816 C1817 1.366 . S
C1817 C1816 1.366 . S
C1817 C1818 1.414 . S
C1817 C1820 1.499 . S
C1818 H1798 0.950 . S
C1818 C1817 1.414 . S
C1818 C1819 1.374 . S
C1819 H1799 0.950 . S
C1819 C1815 1.385 . S
C1819 C1818 1.374 . S
C1820 C1817 1.499 . S
C1820 C1821 1.373 . S
C1820 C1822 1.389 . S
C1821 H1800 0.950 . S
C1821 C1820 1.373 . S
C1821 C1837 1.377 . S
C1822 C1820 1.389 . S
C1822 C1823 1.524 . S
C1822 C1836 1.377 . S
C1823 C1822 1.524 . S
C1823 C1824 1.397 . S
C1823 C1828 1.363 . S
C1824 H1801 0.950 . S
C1824 C1823 1.397 . S
C1824 C1825 1.334 . S
C1825 H1802 0.950 . S
C1825 C1824 1.334 . S
C1825 C1826 1.287 . S
C1826 C1825 1.287 . S
C1826 C1827 1.524 . S
C1826 H1845 0.913 . S
C1827 H1803 0.950 . S
C1827 C1826 1.524 . S
C1827 C1828 1.415 . S
C1828 H1804 0.950 . S
C1828 C1823 1.363 . S
C1828 C1827 1.415 . S
C1829 H1805 0.951 . S
C1829 C1830 1.366 . S
C1829 C1831 1.388 . S
C1830 C1829 1.366 . S
C1830 C1834 1.385 . S
C1831 H1806 0.951 . S
C1831 C1829 1.388 . S
C1831 C1832 1.366 . S
C1832 C1831 1.366 . S
C1832 C1833 1.414 . S
C1832 C1835 1.499 . S
C1833 H1807 0.950 . S
C1833 C1832 1.414 . S
C1833 C1834 1.374 . S
C1834 H1808 0.950 . S
C1834 C1830 1.385 . S
C1834 C1833 1.374 . S
C1835 C1832 1.499 . S
C1835 C1836 1.373 . S
C1835 C1837 1.389 . S
C1836 H1809 0.950 . S
C1836 C1822 1.377 . S
C1836 C1835 1.373 . S
C1837 C1821 1.377 . S
C1837 C1835 1.389 . S
C1837 C1838 1.524 . S
C1838 C1837 1.524 . S
C1838 C1839 1.397 . S
C1838 C1843 1.363 . S
C1839 H1810 0.950 . S
C1839 C1838 1.397 . S
C1839 C1840 1.334 . S
C1840 H1811 0.950 . S
C1840 C1839 1.334 . S
C1840 C1841 1.287 . S
C1841 C1840 1.287 . S
C1841 C1842 1.524 . S
C1841 H1844 0.999 . S
C1842 H1812 0.950 . S
C1842 C1841 1.524 . S
C1842 C1843 1.415 . S
C1843 H1813 0.950 . S
C1843 C1838 1.363 . S
C1843 C1842 1.415 . S
H1844 C1841 0.999 . S
H1845 C1826 0.913 . S
H1846 C1864 0.951 . S
H1847 C1866 0.951 . S
H1848 C1868 0.950 . S
H1849 C1869 0.950 . S
H1850 C1871 0.950 . S
H1851 C1874 0.950 . S
H1852 C1875 0.950 . S
H1853 C1877 0.950 . S
H1854 C1878 0.950 . S
H1855 C1879 0.951 . S
H1856 C1881 0.951 . S
H1857 C1883 0.950 . S
H1858 C1884 0.950 . S
H1859 C1886 0.950 . S
H1860 C1889 0.950 . S
H1861 C1890 0.950 . S
H1862 C1892 0.950 . S
H1863 C1893 0.950 . S
C1864 H1846 0.951 . S
C1864 C1865 1.366 . S
C1864 C1866 1.388 . S
C1865 C1864 1.366 . S
C1865 C1869 1.385 . S
C1866 H1847 0.951 . S
C1866 C1864 1.388 . S
C1866 C1867 1.366 . S
C1867 C1866 1.366 . S
C1867 C1868 1.414 . S
C1867 C1870 1.499 . S
C1868 H1848 0.950 . S
C1868 C1867 1.414 . S
C1868 C1869 1.374 . S
C1869 H1849 0.950 . S
C1869 C1865 1.385 . S
C1869 C1868 1.374 . S
C1870 C1867 1.499 . S
C1870 C1871 1.373 . S
C1870 C1872 1.389 . S
C1871 H1850 0.950 . S
C1871 C1870 1.373 . S
C1871 C1887 1.377 . S
C1872 C1870 1.389 . S
C1872 C1873 1.524 . S
C1872 C1886 1.377 . S
C1873 C1872 1.524 . S
C1873 C1874 1.397 . S
C1873 C1878 1.363 . S
C1874 H1851 0.950 . S
C1874 C1873 1.397 . S
C1874 C1875 1.334 . S
C1875 H1852 0.950 . S
C1875 C1874 1.334 . S
C1875 C1876 1.287 . S
C1876 C1875 1.287 . S
C1876 C1877 1.524 . S
C1876 H1895 0.913 . S
C1877 H1853 0.950 . S
C1877 C1876 1.524 . S
C1877 C1878 1.415 . S
C1878 H1854 0.950 . S
C1878 C1873 1.363 . S
C1878 C1877 1.415 . S
C1879 H1855 0.951 . S
C1879 C1880 1.366 . S
C1879 C1881 1.388 . S
C1880 C1879 1.366 . S
C1880 C1884 1.385 . S
C1881 H1856 0.951 . S
C1881 C1879 1.388 . S
C1881 C1882 1.366 . S
C1882 C1881 1.366 . S
C1882 C1883 1.414 . S
C1882 C1885 1.499 . S
C1883 H1857 0.950 . S
C1883 C1882 1.414 . S
C1883 C1884 1.374 . S
C1884 H1858 0.950 . S
C1884 C1880 1.385 . S
C1884 C1883 1.374 . S
C1885 C1882 1.499 . S
C1885 C1886 1.373 . S
C1885 C1887 1.389 . S
C1886 H1859 0.950 . S
C1886 C1872 1.377 . S
C1886 C1885 1.373 . S
C1887 C1871 1.377 . S
C1887 C1885 1.389 . S
C1887 C1888 1.524 . S
C1888 C1887 1.524 . S
C1888 C1889 1.397 . S
C1888 C1893 1.363 . S
C1889 H1860 0.950 . S
C1889 C1888 1.397 . S
C1889 C1890 1.334 . S
C1890 H1861 0.950 . S
C1890 C1889 1.334 . S
C1890 C1891 1.287 . S
C1891 C1890 1.287 . S
C1891 C1892 1.524 . S
C1891 H1894 0.999 . S
C1892 H1862 0.950 . S
C1892 C1891 1.524 . S
C1892 C1893 1.415 . S
C1893 H1863 0.950 . S
C1893 C1888 1.363 . S
C1893 C1892 1.415 . S
H1894 C1891 0.999 . S
H1895 C1876 0.913 . S
C415 N343 0.793 . S
C430 N13 0.790 . S
C465 N46 0.890 . S
C480 N376 0.891 . S
C515 N79 0.889 . S
C530 N211 0.887 . S
C565 N112 0.792 . S
C580 N244 0.791 . S
C615 N145 0.888 . S
C630 N277 0.888 . S
C665 N178 0.888 . S
C680 N310 0.888 . S
C715 N2 1.681 . S
C730 C183 1.660 . S
C765 C18 1.675 . S
C780 N35 1.682 . S
C815 C51 1.698 . S
C830 N68 1.711 . S
C865 N101 1.704 . S
C880 C84 1.693 . S
C915 N134 1.774 . S
C930 C117 1.757 . S
C965 N167 1.720 . S
C980 C150 1.700 . S
C1015 C249 1.675 . S
C1030 N200 1.682 . S
C1065 N233 1.681 . S
C1080 C282 1.660 . S
C1115 N266 1.720 . S
C1130 C315 1.700 . S
C1165 N299 1.774 . S
C1180 C348 1.758 . S
C1215 N332 1.703 . S
C1230 C381 1.692 . S
C1265 N365 1.711 . S
C1280 C216 1.698 . S
C1315 C7 0.349 . S
C1330 C304 0.350 . S
C1365 C40 0.519 . S
C1380 C337 0.520 . S
C1415 C73 0.477 . S
C1430 C370 0.476 . S
C1465 C106 0.519 . S
C1480 C205 0.519 . S
C1515 C139 0.352 . S
C1530 C238 0.347 . S
C1565 C271 0.431 . S
C1580 C172 0.430 . S
C1615 C219 1.250 . S
C1630 C21 1.253 . S
C1665 C54 1.250 . S
C1680 C252 1.253 . S
C1715 C87 1.267 . S
C1730 C285 1.266 . S
C1765 C318 1.288 . S
C1780 C120 1.289 . S
C1815 C153 1.288 . S
C1830 C351 1.289 . S
C1865 C384 1.267 . S
C1880 C186 1.266 . S
