# Generated by pormake.
# Topology vcu, (8)-cn, num edge types: 1
# Building blocks:
#     Node 0, Type 0, BuildingBlock: TAGTUT_clean_sbu_3, # of connection points: 8
#     Node 1, Type 0, BuildingBlock: TAGTUT_clean_sbu_3, # of connection points: 8
#     Node 2, Type 0, BuildingBlock: TAGTUT_clean_sbu_3, # of connection points: 8
#     Node 3, Type 0, BuildingBlock: TAGTUT_clean_sbu_3, # of connection points: 8
#     Node 4, Type 0, BuildingBlock: TAGTUT_clean_sbu_3, # of connection points: 8
#     Node 5, Type 0, BuildingBlock: TAGTUT_clean_sbu_3, # of connection points: 8
#     Node 6, Type 0, BuildingBlock: TAGTUT_clean_sbu_3, # of connection points: 8
#     Node 7, Type 0, BuildingBlock: TAGTUT_clean_sbu_3, # of connection points: 8
#     Edge 8, Type (0, 0), BuildingBlock: XUDNAN_clean_linker_2, # of connection points: 2
#     Edge 9, Type (0, 0), BuildingBlock: XUDNAN_clean_linker_2, # of connection points: 2
#     Edge 10, Type (0, 0), BuildingBlock: XUDNAN_clean_linker_2, # of connection points: 2
#     Edge 11, Type (0, 0), BuildingBlock: XUDNAN_clean_linker_2, # of connection points: 2
#     Edge 12, Type (0, 0), BuildingBlock: XUDNAN_clean_linker_2, # of connection points: 2
#     Edge 13, Type (0, 0), BuildingBlock: XUDNAN_clean_linker_2, # of connection points: 2
#     Edge 14, Type (0, 0), BuildingBlock: XUDNAN_clean_linker_2, # of connection points: 2
#     Edge 15, Type (0, 0), BuildingBlock: XUDNAN_clean_linker_2, # of connection points: 2
#     Edge 16, Type (0, 0), BuildingBlock: XUDNAN_clean_linker_2, # of connection points: 2
#     Edge 17, Type (0, 0), BuildingBlock: XUDNAN_clean_linker_2, # of connection points: 2
#     Edge 18, Type (0, 0), BuildingBlock: XUDNAN_clean_linker_2, # of connection points: 2
#     Edge 19, Type (0, 0), BuildingBlock: XUDNAN_clean_linker_2, # of connection points: 2
#     Edge 20, Type (0, 0), BuildingBlock: XUDNAN_clean_linker_2, # of connection points: 2
#     Edge 21, Type (0, 0), BuildingBlock: XUDNAN_clean_linker_2, # of connection points: 2
#     Edge 22, Type (0, 0), BuildingBlock: XUDNAN_clean_linker_2, # of connection points: 2
#     Edge 23, Type (0, 0), BuildingBlock: XUDNAN_clean_linker_2, # of connection points: 2
#     Edge 24, Type (0, 0), BuildingBlock: XUDNAN_clean_linker_2, # of connection points: 2
#     Edge 25, Type (0, 0), BuildingBlock: XUDNAN_clean_linker_2, # of connection points: 2
#     Edge 26, Type (0, 0), BuildingBlock: XUDNAN_clean_linker_2, # of connection points: 2
#     Edge 27, Type (0, 0), BuildingBlock: XUDNAN_clean_linker_2, # of connection points: 2
#     Edge 28, Type (0, 0), BuildingBlock: XUDNAN_clean_linker_2, # of connection points: 2
#     Edge 29, Type (0, 0), BuildingBlock: XUDNAN_clean_linker_2, # of connection points: 2
#     Edge 30, Type (0, 0), BuildingBlock: XUDNAN_clean_linker_2, # of connection points: 2
#     Edge 31, Type (0, 0), BuildingBlock: XUDNAN_clean_linker_2, # of connection points: 2
#     Edge 32, Type (0, 0), BuildingBlock: XUDNAN_clean_linker_2, # of connection points: 2
#     Edge 33, Type (0, 0), BuildingBlock: XUDNAN_clean_linker_2, # of connection points: 2
#     Edge 34, Type (0, 0), BuildingBlock: XUDNAN_clean_linker_2, # of connection points: 2
#     Edge 35, Type (0, 0), BuildingBlock: XUDNAN_clean_linker_2, # of connection points: 2
#     Edge 36, Type (0, 0), BuildingBlock: XUDNAN_clean_linker_2, # of connection points: 2
#     Edge 37, Type (0, 0), BuildingBlock: XUDNAN_clean_linker_2, # of connection points: 2
#     Edge 38, Type (0, 0), BuildingBlock: XUDNAN_clean_linker_2, # of connection points: 2
#     Edge 39, Type (0, 0), BuildingBlock: XUDNAN_clean_linker_2, # of connection points: 2
# Relax obj value: 0.234
# Max RMSD: 0.292
# Mean RMSD: 0.290
data_MOF--net-vcu--node1-TAGTUT_clean_sbu_3--edge1-XUDNAN_clean_linker_2
_symmetry_space_group_name_H-M    P1
_symmetry_Int_Tables_number       1
_symmetry_cell_setting            triclinic
loop_
_symmetry_equiv_pos_as_xyz
'x, y, z'
_cell_length_a     18.698026
_cell_length_b     32.873252
_cell_length_c     49.822053
_cell_angle_alpha  89.966705
_cell_angle_beta   89.965229
_cell_angle_gamma 90.063148
loop_
_atom_site_label
_atom_site_type_symbol
_atom_site_fract_x
_atom_site_fract_y
_atom_site_fract_z
_atom_type_partial_charge
C0 C 0.41864 0.38491 0.32786 0.0
C1 C 0.61177 0.33637 0.39257 0.0
C2 C 0.43604 0.28385 0.43812 0.0
Mg3 Mg 0.25894 0.41243 0.3376 0.0
Mg4 Mg 0.21196 0.45265 0.39578 0.0
O5 O 0.24797 0.40713 0.3777 0.0
Mg6 Mg 0.34709 0.39071 0.38693 0.0
O7 O 0.44688 0.37122 0.39282 0.0
Mg8 Mg 0.4442 0.31686 0.37381 0.0
Mg9 Mg 0.48589 0.3696 0.42695 0.0
C10 C 0.25653 0.39444 0.44357 0.0
O11 O 0.37772 0.45267 0.40667 0.0
O12 O 0.13616 0.41985 0.3373 0.0
O13 O 0.44967 0.4284 0.43952 0.0
O14 O 0.27677 0.48285 0.33924 0.0
O15 O 0.10931 0.4486 0.37705 0.0
O16 O 0.26946 0.50507 0.38146 0.0
O17 O 0.32267 0.32783 0.37156 0.0
O18 O 0.24851 0.34088 0.33753 0.0
C19 C 0.28274 0.31567 0.3525 0.0
C20 C 0.0906 0.43333 0.35444 0.0
O21 O 0.30325 0.37658 0.42869 0.0
O22 O 0.56721 0.31749 0.37739 0.0
O23 O 0.22236 0.42635 0.4359 0.0
O24 O 0.43673 0.27852 0.41275 0.0
O25 O 0.59185 0.35776 0.41276 0.0
O26 O 0.44613 0.31876 0.44836 0.0
O27 O 0.3791 0.40504 0.34391 0.0
O28 O 0.45075 0.35251 0.3351 0.0
C29 C 0.28435 0.51108 0.35676 0.0
C30 C 0.4116 0.45667 0.42905 0.0
C31 C 0.10562 0.04485 0.92994 0.0
C32 C 0.29219 0.95498 0.88228 0.0
C33 C 0.40275 0.06967 0.86521 0.0
Mg34 Mg 0.05348 0.13642 0.91919 0.0
Mg35 Mg 0.0566 0.18073 0.85898 0.0
O36 O 0.108 0.15228 0.88631 0.0
Mg37 Mg 0.16428 0.09946 0.88021 0.0
O38 O 0.21616 0.04646 0.87718 0.0
Mg39 Mg 0.27309 0.04642 0.91123 0.0
Mg40 Mg 0.26294 0.03034 0.84589 0.0
C41 C 0.20289 0.16559 0.83858 0.0
O42 O 0.09724 0.07994 0.84435 0.0
O43 O 0.0278 0.20459 0.92306 0.0
O44 O 0.17244 0.04165 0.81924 0.0
O45 O 0.94541 0.12568 0.89616 0.0
O46 O 0.04243 0.236 0.88309 0.0
O47 O 0.95485 0.15099 0.85482 0.0
O48 O 0.23762 0.11407 0.91462 0.0
O49 O 0.16033 0.14684 0.94096 0.0
C50 C 0.22357 0.13398 0.9359 0.0
C51 C 0.02943 0.23674 0.90844 0.0
O52 O 0.23481 0.13632 0.85068 0.0
O53 O 0.29415 0.97763 0.9033 0.0
O54 O 0.13864 0.15981 0.83097 0.0
O55 O 0.37891 0.0644 0.88908 0.0
O56 O 0.28153 0.9693 0.8587 0.0
O57 O 0.36398 0.06204 0.84469 0.0
O58 O 0.09165 0.0704 0.91128 0.0
O59 O 0.16851 0.03016 0.93281 0.0
C60 C 0.91921 0.13227 0.87282 0.0
C61 C 0.11206 0.05941 0.82318 0.0
C62 C 0.76344 0.19615 0.62862 0.0
C63 C 0.57504 0.07842 0.62312 0.0
C64 C 0.77049 0.9997 0.62533 0.0
Mg65 Mg 0.92772 0.19591 0.61166 0.0
Mg66 Mg 0.97406 0.14549 0.55817 0.0
O67 O 0.93468 0.14178 0.59204 0.0
Mg68 Mg 0.83393 0.12157 0.59552 0.0
O69 O 0.73446 0.10365 0.60311 0.0
Mg70 Mg 0.74087 0.09835 0.64329 0.0
Mg71 Mg 0.7023 0.05746 0.58483 0.0
C72 C 0.91422 0.05495 0.55751 0.0
O73 O 0.78995 0.13683 0.55378 0.0
O74 O 0.05042 0.19651 0.61073 0.0
O75 O 0.72712 0.08002 0.54482 0.0
O76 O 0.93342 0.23478 0.57246 0.0
O77 O 0.07814 0.16283 0.57279 0.0
O78 O 0.91684 0.19284 0.5387 0.0
O79 O 0.86142 0.10602 0.63824 0.0
O80 O 0.92839 0.15873 0.65054 0.0
C81 C 0.8979 0.12485 0.65579 0.0
C82 C 0.09638 0.18177 0.59423 0.0
O83 O 0.86996 0.06012 0.57699 0.0
O84 O 0.61883 0.09048 0.64133 0.0
O85 O 0.95218 0.08366 0.54744 0.0
O86 O 0.75953 0.02733 0.643 0.0
O87 O 0.59586 0.06342 0.60065 0.0
O88 O 0.75864 0.00603 0.60051 0.0
O89 O 0.8064 0.18424 0.61049 0.0
O90 O 0.72859 0.17048 0.64311 0.0
C91 C 0.93093 0.22832 0.54721 0.0
C92 C 0.74557 0.11664 0.53917 0.0
C93 C 0.78479 0.39096 0.03917 0.0
C94 C 0.55929 0.29383 0.03965 0.0
C95 C 0.47953 0.37368 0.10155 0.0
Mg96 Mg 0.83587 0.45675 0.08592 0.0
Mg97 Mg 0.82473 0.43273 0.15105 0.0
O98 O 0.78335 0.43171 0.11705 0.0
Mg99 Mg 0.72551 0.38794 0.10035 0.0
O100 O 0.66375 0.34873 0.07989 0.0
Mg101 Mg 0.61217 0.38803 0.05583 0.0
Mg102 Mg 0.60145 0.31345 0.09777 0.0
C103 C 0.67264 0.39336 0.16347 0.0
O104 O 0.77962 0.3292 0.11956 0.0
O105 O 0.84401 0.51612 0.11191 0.0
O106 O 0.67986 0.29023 0.12459 0.0
O107 O 0.94079 0.43206 0.10367 0.0
O108 O 0.82474 0.49774 0.15479 0.0
O109 O 0.93304 0.41053 0.14616 0.0
O110 O 0.66021 0.43786 0.08113 0.0
O111 O 0.73632 0.48545 0.06858 0.0
C112 C 0.67312 0.47184 0.07014 0.0
C113 C 0.83211 0.52505 0.13668 0.0
O114 O 0.6565 0.38791 0.13862 0.0
O115 O 0.56742 0.33156 0.03357 0.0
O116 O 0.73517 0.40433 0.17149 0.0
O117 O 0.50909 0.39102 0.08145 0.0
O118 O 0.57165 0.27957 0.06308 0.0
O119 O 0.50791 0.34309 0.11293 0.0
O120 O 0.80294 0.39435 0.06399 0.0
O121 O 0.71883 0.38704 0.03227 0.0
C122 C 0.96898 0.41656 0.1247 0.0
C123 C 0.74653 0.29716 0.12845 0.0
C124 C 0.75369 0.66099 0.55769 0.0
C125 C 0.54696 0.76746 0.57526 0.0
C126 C 0.4508 0.67102 0.62264 0.0
Mg127 Mg 0.80134 0.58191 0.59125 0.0
Mg128 Mg 0.78902 0.57467 0.65805 0.0
O129 O 0.7475 0.59171 0.62559 0.0
Mg130 Mg 0.69454 0.64346 0.61704 0.0
O131 O 0.63887 0.69233 0.60478 0.0
Mg132 Mg 0.58247 0.66786 0.57469 0.0
Mg133 Mg 0.58467 0.72376 0.62864 0.0
C134 C 0.64143 0.61495 0.67778 0.0
O135 O 0.75976 0.69144 0.64212 0.0
O136 O 0.81458 0.51459 0.60477 0.0
O137 O 0.67178 0.73352 0.65658 0.0
O138 O 0.90878 0.60077 0.61226 0.0
O139 O 0.79426 0.50968 0.64912 0.0
O140 O 0.89587 0.60101 0.65688 0.0
O141 O 0.62063 0.60616 0.58961 0.0
O142 O 0.69626 0.56385 0.56982 0.0
C143 C 0.63339 0.57853 0.57237 0.0
C144 C 0.80573 0.49326 0.62617 0.0
O145 O 0.62886 0.63148 0.65484 0.0
O146 O 0.55286 0.73309 0.5633 0.0
O147 O 0.70008 0.59621 0.68345 0.0
O148 O 0.47506 0.66194 0.59932 0.0
O149 O 0.55611 0.77157 0.60062 0.0
O150 O 0.4884 0.69157 0.63917 0.0
O151 O 0.76912 0.64902 0.58132 0.0
O152 O 0.69014 0.67199 0.55125 0.0
C153 C 0.93414 0.60673 0.63586 0.0
C154 C 0.73806 0.72322 0.65519 0.0
C155 C 0.68633 0.8773 0.052 0.0
C156 C 0.90466 0.77169 0.06252 0.0
C157 C 0.991 0.86087 0.11571 0.0
Mg158 Mg 0.63534 0.94605 0.09693 0.0
Mg159 Mg 0.65481 0.93115 0.16304 0.0
O160 O 0.6924 0.92701 0.12818 0.0
Mg161 Mg 0.74642 0.88103 0.11236 0.0
O162 O 0.80303 0.83771 0.09444 0.0
Mg163 Mg 0.86014 0.8704 0.06793 0.0
Mg164 Mg 0.86063 0.80761 0.11752 0.0
C165 C 0.80719 0.89211 0.17424 0.0
O166 O 0.68624 0.82722 0.1339 0.0
O167 O 0.62538 0.00813 0.11988 0.0
O168 O 0.78336 0.7919 0.14721 0.0
O169 O 0.53278 0.92011 0.11609 0.0
O170 O 0.65233 0.99672 0.16324 0.0
O171 O 0.54734 0.90607 0.15966 0.0
O172 O 0.81666 0.92701 0.08924 0.0
O173 O 0.73392 0.97239 0.07894 0.0
C174 C 0.79819 0.96009 0.0778 0.0
C175 C 0.64043 0.02102 0.14364 0.0
O176 O 0.81674 0.88442 0.14925 0.0
O177 O 0.89602 0.80686 0.05144 0.0
O178 O 0.7474 0.90466 0.18403 0.0
O179 O 0.96851 0.8727 0.09269 0.0
O180 O 0.89389 0.76554 0.08759 0.0
O181 O 0.95191 0.8392 0.13085 0.0
O182 O 0.66865 0.88281 0.0767 0.0
O183 O 0.75158 0.87061 0.04493 0.0
C184 C 0.50849 0.90695 0.13848 0.0
C185 C 0.71574 0.79773 0.14697 0.0
C186 C 0.26942 0.86623 0.43638 0.0
C187 C 0.06676 0.75838 0.42292 0.0
C188 C 0.97792 0.84302 0.36738 0.0
Mg189 Mg 0.32896 0.93646 0.39913 0.0
Mg190 Mg 0.32617 0.9379 0.33286 0.0
O191 O 0.27877 0.9239 0.36448 0.0
Mg192 Mg 0.22216 0.87387 0.37424 0.0
O193 O 0.16308 0.82761 0.38867 0.0
Mg194 Mg 0.10337 0.85738 0.41581 0.0
Mg195 Mg 0.11273 0.79105 0.36702 0.0
C196 C 0.18462 0.89424 0.31033 0.0
O197 O 0.29006 0.82293 0.3533 0.0
O198 O 0.34901 1.00161 0.38339 0.0
O199 O 0.20372 0.77751 0.34161 0.0
O200 O 0.43733 0.91286 0.38122 0.0
O201 O 0.33239 0.00329 0.3388 0.0
O202 O 0.42825 0.90911 0.3365 0.0
O203 O 0.14613 0.91576 0.39716 0.0
O204 O 0.22243 0.95842 0.41663 0.0
C205 C 0.15905 0.94452 0.41358 0.0
C206 C 0.34263 0.02129 0.36127 0.0
O207 O 0.16312 0.88038 0.33322 0.0
O208 O 0.07047 0.79493 0.43178 0.0
O209 O 0.24425 0.91312 0.30712 0.0
O210 O 0.00177 0.85763 0.38939 0.0
O211 O 0.08151 0.74912 0.39853 0.0
O212 O 0.01576 0.81913 0.35304 0.0
O213 O 0.29043 0.87229 0.4123 0.0
O214 O 0.20394 0.8585 0.44196 0.0
C215 C 0.46352 0.90391 0.35816 0.0
C216 C 0.26901 0.78989 0.34159 0.0
C217 C 0.32201 0.53103 0.93367 0.0
C218 C 0.13312 0.45162 0.87926 0.0
C219 C 0.02546 0.57172 0.87417 0.0
Mg220 Mg 0.37601 0.6222 0.93104 0.0
Mg221 Mg 0.38044 0.67439 0.87369 0.0
O222 O 0.32449 0.64408 0.89874 0.0
Mg223 Mg 0.26661 0.59375 0.88778 0.0
O224 O 0.21124 0.54254 0.88035 0.0
Mg225 Mg 0.15698 0.53709 0.91485 0.0
Mg226 Mg 0.15715 0.53346 0.84906 0.0
C227 C 0.23375 0.66653 0.85032 0.0
O228 O 0.32984 0.58065 0.84864 0.0
O229 O 0.40466 0.68933 0.94009 0.0
O230 O 0.24128 0.55499 0.82253 0.0
O231 O 0.48263 0.61686 0.90902 0.0
O232 O 0.3983 0.72516 0.9015 0.0
O233 O 0.4824 0.64451 0.86825 0.0
O234 O 0.19419 0.60275 0.9236 0.0
O235 O 0.27014 0.62771 0.95382 0.0
C236 C 0.20742 0.61646 0.94693 0.0
C237 C 0.40872 0.72306 0.92704 0.0
O238 O 0.19939 0.63768 0.86203 0.0
O239 O 0.13228 0.47104 0.90163 0.0
O240 O 0.29883 0.66059 0.84368 0.0
O241 O 0.05497 0.56171 0.89624 0.0
O242 O 0.14171 0.46956 0.85661 0.0
O243 O 0.0562 0.56566 0.8517 0.0
O244 O 0.33848 0.55863 0.91672 0.0
O245 O 0.25929 0.5157 0.93438 0.0
C246 C 0.51396 0.62517 0.88695 0.0
C247 C 0.30452 0.56979 0.82564 0.0
H248 H 0.9827 0.4492 0.38948 0.0
H249 H 0.02705 0.39127 0.3129 0.0
H250 H 0.90871 0.35773 0.31462 0.0
H251 H 0.91042 0.36435 0.41939 0.0
H252 H 0.84404 0.39122 0.4387 0.0
H253 H 0.92605 0.41625 0.42948 0.0
H254 H 0.85586 0.47445 0.40618 0.0
H255 H 0.7735 0.4505 0.41628 0.0
H256 H 0.78905 0.46212 0.3814 0.0
H257 H 0.78959 0.3255 0.32733 0.0
H258 H 0.67402 0.30447 0.34708 0.0
H259 H 0.7176 0.37975 0.41686 0.0
C260 C 0.96711 0.4305 0.37257 0.0
C261 C 0.01436 0.42286 0.35107 0.0
C262 C 0.99159 0.39781 0.32954 0.0
C263 C 0.92478 0.37831 0.33046 0.0
C264 C 0.88197 0.38422 0.35304 0.0
C265 C 0.90192 0.41025 0.37347 0.0
C266 C 0.84933 0.40956 0.39642 0.0
C267 C 0.88459 0.39444 0.42252 0.0
C268 C 0.81487 0.45165 0.40028 0.0
C269 C 0.79644 0.37896 0.38579 0.0
C270 C 0.81579 0.36464 0.36076 0.0
C271 C 0.77381 0.33663 0.34689 0.0
C272 C 0.70863 0.32454 0.35841 0.0
C273 C 0.68659 0.34048 0.38354 0.0
C274 C 0.73269 0.36679 0.3977 0.0
H275 H 0.50667 0.08253 0.9038 0.0
H276 H 0.47216 0.08365 0.81757 0.0
H277 H 0.60016 0.09805 0.8105 0.0
H278 H 0.63851 0.16412 0.9051 0.0
H279 H 0.69104 0.14069 0.93118 0.0
H280 H 0.59612 0.13158 0.92954 0.0
H281 H 0.61951 0.05399 0.92813 0.0
H282 H 0.71453 0.06285 0.92945 0.0
H283 H 0.67689 0.03331 0.90245 0.0
H284 H 0.73234 0.11014 0.81243 0.0
H285 H 0.85879 0.1233 0.8234 0.0
H286 H 0.80941 0.11464 0.90833 0.0
C287 C 0.52577 0.08619 0.88342 0.0
C288 C 0.47882 0.08191 0.86123 0.0
C289 C 0.50656 0.08679 0.83493 0.0
C290 C 0.57941 0.09487 0.83068 0.0
C291 C 0.62425 0.09809 0.8529 0.0
C292 C 0.59854 0.09425 0.87878 0.0
C293 C 0.6585 0.099 0.89913 0.0
C294 C 0.64524 0.13605 0.9173 0.0
C295 C 0.66789 0.05996 0.91577 0.0
C296 C 0.72193 0.10594 0.88061 0.0
C297 C 0.70079 0.10522 0.85403 0.0
C298 C 0.7494 0.11099 0.83317 0.0
C299 C 0.8212 0.1185 0.83961 0.0
C300 C 0.84423 0.12025 0.86668 0.0
C301 C 0.79378 0.11325 0.88742 0.0
H302 H 0.20942 0.15733 0.56369 0.0
H303 H 0.15305 0.1983 0.64383 0.0
H304 H 0.27055 0.17544 0.66043 0.0
H305 H 0.28622 0.06816 0.58231 0.0
H306 H 0.35765 0.06847 0.558 0.0
H307 H 0.27545 0.09468 0.55088 0.0
H308 H 0.34392 0.16237 0.54294 0.0
H309 H 0.42673 0.13595 0.54889 0.0
H310 H 0.40507 0.18062 0.56817 0.0
H311 H 0.38769 0.14013 0.6693 0.0
H312 H 0.50385 0.10429 0.66827 0.0
H313 H 0.47762 0.08369 0.5827 0.0
C314 C 0.2225 0.16275 0.58457 0.0
C315 C 0.17192 0.17938 0.60248 0.0
C316 C 0.1911 0.1858 0.62968 0.0
C317 C 0.2575 0.17262 0.63936 0.0
C318 C 0.30398 0.15358 0.6215 0.0
C319 C 0.28806 0.1496 0.59454 0.0
C320 C 0.34499 0.1259 0.57979 0.0
C321 C 0.31419 0.08701 0.56701 0.0
C322 C 0.38239 0.15281 0.55872 0.0
C323 C 0.39423 0.11599 0.60287 0.0
C324 C 0.37017 0.13243 0.62672 0.0
C325 C 0.40742 0.12738 0.6507 0.0
C326 C 0.47285 0.10659 0.64998 0.0
C327 C 0.49964 0.09091 0.62547 0.0
C328 C 0.45839 0.09468 0.60188 0.0
H329 H 0.06337 0.35295 0.13483 0.0
H330 H 0.05067 0.48176 0.11659 0.0
H331 H 0.18188 0.48597 0.11484 0.0
H332 H 0.2336 0.35789 0.17487 0.0
H333 H 0.26694 0.3109 0.16111 0.0
H334 H 0.17198 0.31844 0.16498 0.0
H335 H 0.1534 0.30301 0.11445 0.0
H336 H 0.24809 0.29541 0.11048 0.0
H337 H 0.20228 0.33207 0.0898 0.0
H338 H 0.31009 0.47598 0.10965 0.0
H339 H 0.43181 0.45147 0.10053 0.0
H340 H 0.36756 0.3289 0.1219 0.0
C341 C 0.08875 0.38204 0.13111 0.0
C342 C 0.0475 0.41714 0.12597 0.0
C343 C 0.08181 0.45462 0.12055 0.0
C344 C 0.15618 0.45738 0.11969 0.0
C345 C 0.19574 0.42232 0.12426 0.0
C346 C 0.16376 0.38528 0.12987 0.0
C347 C 0.21957 0.35178 0.13136 0.0
C348 C 0.22322 0.33369 0.15978 0.0
C349 C 0.20495 0.31862 0.11026 0.0
C350 C 0.28697 0.3757 0.12479 0.0
C351 C 0.27166 0.41643 0.12118 0.0
C352 C 0.3232 0.4443 0.11288 0.0
C353 C 0.39216 0.43011 0.1076 0.0
C354 C 0.40918 0.38851 0.11067 0.0
C355 C 0.35628 0.36108 0.11998 0.0
H356 H 0.34354 0.63927 0.59037 0.0
H357 H 0.38685 0.67912 0.67184 0.0
H358 H 0.26115 0.66618 0.684 0.0
H359 H 0.1707 0.68478 0.58496 0.0
H360 H 0.1326 0.64366 0.56577 0.0
H361 H 0.22702 0.65396 0.56376 0.0
H362 H 0.25344 0.57934 0.57737 0.0
H363 H 0.15886 0.56923 0.57938 0.0
H364 H 0.21545 0.55927 0.6079 0.0
H365 H 0.12925 0.65121 0.68719 0.0
H366 H 0.00166 0.63411 0.68132 0.0
H367 H 0.04144 0.60585 0.5975 0.0
C368 C 0.32689 0.64481 0.61086 0.0
C369 C 0.37584 0.65998 0.63017 0.0
C370 C 0.35103 0.6673 0.65666 0.0
C371 C 0.27944 0.66012 0.66378 0.0
C372 C 0.23249 0.64586 0.64421 0.0
C373 C 0.25514 0.63817 0.61829 0.0
C374 C 0.19311 0.62392 0.60095 0.0
C375 C 0.18015 0.65338 0.57748 0.0
C376 C 0.20599 0.58035 0.59081 0.0
C377 C 0.13197 0.62534 0.62108 0.0
C378 C 0.15607 0.63781 0.64595 0.0
C379 C 0.10982 0.64136 0.6678 0.0
C380 C 0.03722 0.63161 0.66424 0.0
C381 C 0.01087 0.61872 0.63895 0.0
C382 C 0.05934 0.61585 0.61708 0.0
H383 H 0.40621 0.91593 0.09931 0.0
H384 H 0.43595 0.87312 0.18108 0.0
H385 H 0.30647 0.85874 0.18421 0.0
H386 H 0.23897 0.96598 0.11037 0.0
H387 H 0.20187 0.95199 0.07828 0.0
H388 H 0.29714 0.95785 0.082 0.0
H389 H 0.31673 0.88463 0.06422 0.0
H390 H 0.22155 0.87876 0.0602 0.0
H391 H 0.2711 0.84277 0.08017 0.0
H392 H 0.17498 0.84837 0.17835 0.0
H393 H 0.05007 0.84157 0.16409 0.0
H394 H 0.10319 0.89461 0.0867 0.0
C395 C 0.38584 0.90319 0.11786 0.0
C396 C 0.43165 0.89552 0.13997 0.0
C397 C 0.40226 0.87917 0.16386 0.0
C398 C 0.32871 0.87099 0.16584 0.0
C399 C 0.28519 0.87951 0.14381 0.0
C400 C 0.31257 0.89516 0.12025 0.0
C401 C 0.25397 0.90187 0.09961 0.0
C402 C 0.24763 0.94712 0.09213 0.0
C403 C 0.26659 0.87543 0.07457 0.0
C404 C 0.18913 0.88754 0.11529 0.0
C405 C 0.20864 0.87467 0.14069 0.0
C406 C 0.15904 0.85872 0.15862 0.0
C407 C 0.08783 0.85529 0.15031 0.0
C408 C 0.06589 0.86852 0.12445 0.0
C409 C 0.11758 0.88509 0.10679 0.0
H410 H 0.87991 0.89138 0.39357 0.0
H411 H 0.90147 0.80732 0.32698 0.0
H412 H 0.77332 0.81503 0.31682 0.0
H413 H 0.71256 0.85081 0.41585 0.0
H414 H 0.67702 0.89915 0.4264 0.0
H415 H 0.77215 0.8906 0.42685 0.0
H416 H 0.7918 0.95377 0.39662 0.0
H417 H 0.6968 0.96278 0.39626 0.0
H418 H 0.74493 0.95748 0.3651 0.0
H419 H 0.64273 0.83133 0.31413 0.0
H420 H 0.51742 0.85335 0.3199 0.0
H421 H 0.57741 0.92102 0.39119 0.0
C422 C 0.85805 0.8751 0.37655 0.0
C423 C 0.90179 0.85002 0.36028 0.0
C424 C 0.87012 0.8282 0.33886 0.0
C425 C 0.79701 0.83193 0.33319 0.0
C426 C 0.75556 0.8567 0.34967 0.0
C427 C 0.78468 0.8776 0.37109 0.0
C428 C 0.72736 0.90015 0.38668 0.0
C429 C 0.72198 0.88421 0.41566 0.0
C430 C 0.74104 0.94628 0.38612 0.0
C431 C 0.66157 0.88887 0.37053 0.0
C432 C 0.67924 0.86402 0.34916 0.0
C433 C 0.62813 0.85058 0.33087 0.0
C434 C 0.55716 0.86322 0.33431 0.0
C435 C 0.53767 0.88858 0.3561 0.0
C436 C 0.59058 0.90112 0.3746 0.0
H437 H 0.91029 0.56463 0.83942 0.0
H438 H 0.98055 0.62142 0.91358 0.0
H439 H 0.85801 0.64442 0.92241 0.0
H440 H 0.76955 0.64386 0.82302 0.0
H441 H 0.70876 0.60621 0.81 0.0
H442 H 0.80387 0.59871 0.80703 0.0
H443 H 0.79102 0.52908 0.83089 0.0
H444 H 0.69614 0.53678 0.83421 0.0
H445 H 0.74965 0.52676 0.86356 0.0
H446 H 0.7305 0.65157 0.92767 0.0
H447 H 0.59936 0.65131 0.92616 0.0
H448 H 0.60481 0.59384 0.84776 0.0
C449 C 0.89997 0.5831 0.85699 0.0
C450 C 0.9547 0.59123 0.87586 0.0
C451 C 0.93928 0.61469 0.89896 0.0
C452 C 0.86995 0.62801 0.90415 0.0
C453 C 0.81659 0.61804 0.88593 0.0
C454 C 0.83033 0.59688 0.86253 0.0
C455 C 0.76117 0.58849 0.8474 0.0
C456 C 0.76086 0.61066 0.82025 0.0
C457 C 0.7488 0.54254 0.84382 0.0
C458 C 0.70682 0.60686 0.86657 0.0
C459 C 0.7407 0.62364 0.88861 0.0
C460 C 0.70319 0.63943 0.91028 0.0
C461 C 0.62877 0.63873 0.90935 0.0
C462 C 0.5924 0.62273 0.88681 0.0
C463 C 0.63172 0.60677 0.86499 0.0
H464 H 0.66887 0.43558 0.21003 0.0
H465 H 0.54728 0.34938 0.16254 0.0
H466 H 0.45148 0.34987 0.19692 0.0
H467 H 0.63726 0.3925 0.2713 0.0
H468 H 0.63198 0.43993 0.28934 0.0
H469 H 0.68344 0.43695 0.25901 0.0
H470 H 0.60967 0.49673 0.23918 0.0
H471 H 0.55686 0.49919 0.26944 0.0
H472 H 0.51363 0.49274 0.23739 0.0
H473 H 0.38013 0.35168 0.23951 0.0
H474 H 0.34361 0.35125 0.28727 0.0
H475 H 0.50994 0.4382 0.30581 0.0
C476 C 0.62189 0.41695 0.20671 0.0
C477 C 0.61526 0.39233 0.18368 0.0
C478 C 0.55282 0.36871 0.17996 0.0
C479 C 0.49818 0.36901 0.1993 0.0
C480 C 0.50665 0.39368 0.22189 0.0
C481 C 0.56704 0.41726 0.22557 0.0
C482 C 0.56721 0.43803 0.25259 0.0
C483 C 0.63385 0.4261 0.26902 0.0
C484 C 0.56148 0.48443 0.24945 0.0
C485 C 0.49956 0.42045 0.26439 0.0
C486 C 0.46427 0.39571 0.24616 0.0
C487 C 0.40579 0.37194 0.25366 0.0
C488 C 0.38513 0.37203 0.2807 0.0
C489 C 0.42284 0.39579 0.2996 0.0
C490 C 0.47868 0.42136 0.29126 0.0
H491 H 0.03787 0.12356 0.80404 0.0
H492 H 0.07147 0.99433 0.79302 0.0
H493 H 0.99418 0.99576 0.75273 0.0
H494 H 0.85407 0.13311 0.77267 0.0
H495 H 0.87898 0.17993 0.75631 0.0
H496 H 0.91704 0.16719 0.78845 0.0
H497 H 0.04431 0.17507 0.76875 0.0
H498 H 0.0071 0.18783 0.73665 0.0
H499 H 0.06903 0.14606 0.73947 0.0
H500 H 0.92949 0.01262 0.71092 0.0
H501 H 0.897 0.04422 0.66773 0.0
H502 H 0.91972 0.16396 0.70328 0.0
C503 C 0.02666 0.09538 0.79367 0.0
C504 C 0.05922 0.05874 0.80159 0.0
C505 C 0.04601 0.02256 0.78716 0.0
C506 C 0.00179 0.02308 0.7645 0.0
C507 C 0.97255 0.06015 0.75647 0.0
C508 C 0.98508 0.09579 0.77049 0.0
C509 C 0.96127 0.13274 0.75476 0.0
C510 C 0.89911 0.1545 0.76891 0.0
C511 C 0.02418 0.1621 0.7496 0.0
C512 C 0.93654 0.11247 0.72922 0.0
C513 C 0.9406 0.07054 0.73105 0.0
C514 C 0.92503 0.04535 0.70936 0.0
C515 C 0.90675 0.06356 0.68495 0.0
C516 C 0.90633 0.10643 0.68237 0.0
C517 C 0.91971 0.13109 0.70489 0.0
H518 H 0.64893 0.60958 0.73307 0.0
H519 H 0.50017 0.61533 0.66624 0.0
H520 H 0.39946 0.6066 0.69736 0.0
H521 H 0.55908 0.53419 0.77055 0.0
H522 H 0.57546 0.55669 0.80295 0.0
H523 H 0.63667 0.5658 0.77568 0.0
H524 H 0.61988 0.64392 0.78168 0.0
H525 H 0.55892 0.63454 0.80906 0.0
H526 H 0.53102 0.66497 0.7809 0.0
H527 H 0.31659 0.59206 0.73374 0.0
H528 H 0.25172 0.57649 0.77519 0.0
H529 H 0.45053 0.58265 0.8203 0.0
C530 C 0.59502 0.60964 0.72514 0.0
C531 C 0.58222 0.61358 0.69727 0.0
C532 C 0.51111 0.61328 0.68753 0.0
C533 C 0.45353 0.60812 0.70501 0.0
C534 C 0.46779 0.604 0.73224 0.0
C535 C 0.53639 0.60525 0.74245 0.0
C536 C 0.53586 0.59949 0.77271 0.0
C537 C 0.57935 0.56181 0.78095 0.0
C538 C 0.56306 0.638 0.78694 0.0
C539 C 0.45648 0.59323 0.77756 0.0
C540 C 0.41866 0.59614 0.75382 0.0
C541 C 0.34528 0.59005 0.75255 0.0
C542 C 0.30907 0.5809 0.77626 0.0
C543 C 0.34605 0.57813 0.80103 0.0
C544 C 0.42084 0.58465 0.80169 0.0
H545 H 0.81985 0.86902 0.22745 0.0
H546 H 0.93794 0.91758 0.15952 0.0
H547 H 0.04726 0.9201 0.18678 0.0
H548 H 0.90608 0.9278 0.2773 0.0
H549 H 0.91273 0.88888 0.30251 0.0
H550 H 0.8407 0.88747 0.27852 0.0
H551 H 0.87427 0.81593 0.26489 0.0
H552 H 0.95248 0.8134 0.28608 0.0
H553 H 0.96104 0.80546 0.25068 0.0
H554 H 0.14373 0.91483 0.21939 0.0
H555 H 0.22139 0.91243 0.25884 0.0
H556 H 0.04363 0.8684 0.30724 0.0
C557 C 0.86903 0.87974 0.21837 0.0
C558 C 0.87117 0.89221 0.19126 0.0
C559 C 0.9359 0.90673 0.18004 0.0
C560 C 0.9982 0.90835 0.19532 0.0
C561 C 0.99525 0.89453 0.22161 0.0
C562 C 0.93256 0.88094 0.23327 0.0
C563 C 0.94485 0.86912 0.26231 0.0
C564 C 0.89826 0.8948 0.28128 0.0
C565 C 0.93218 0.8233 0.26624 0.0
C566 C 0.0235 0.8795 0.26523 0.0
C567 C 0.05143 0.89323 0.24123 0.0
C568 C 0.12256 0.90449 0.23843 0.0
C569 C 0.1662 0.90299 0.26108 0.0
C570 C 0.13849 0.89069 0.28636 0.0
C571 C 0.06639 0.87797 0.28828 0.0
H572 H 0.70096 0.11856 0.48619 0.0
H573 H 0.65873 0.16669 0.56563 0.0
H574 H 0.55044 0.20074 0.5489 0.0
H575 H 0.65839 0.20861 0.45223 0.0
H576 H 0.61893 0.18396 0.4235 0.0
H577 H 0.68548 0.15791 0.44294 0.0
H578 H 0.59634 0.09808 0.44955 0.0
H579 H 0.52868 0.12504 0.43088 0.0
H580 H 0.51014 0.10765 0.46449 0.0
H581 H 0.45558 0.2346 0.52395 0.0
H582 H 0.3975 0.27896 0.49076 0.0
H583 H 0.49911 0.21158 0.42644 0.0
C584 C 0.66869 0.13642 0.49985 0.0
C585 C 0.68831 0.14076 0.527 0.0
C586 C 0.64509 0.16399 0.54456 0.0
C587 C 0.58273 0.18266 0.5354 0.0
C588 C 0.56427 0.1779 0.50856 0.0
C589 C 0.60664 0.15618 0.49084 0.0
C590 C 0.58015 0.16113 0.46229 0.0
C591 C 0.63921 0.179 0.44419 0.0
C592 C 0.55217 0.12055 0.45116 0.0
C593 C 0.5193 0.19097 0.46667 0.0
C594 C 0.50915 0.19868 0.49368 0.0
C595 C 0.46203 0.22847 0.50275 0.0
C596 C 0.42884 0.2534 0.48375 0.0
C597 C 0.44368 0.24856 0.45609 0.0
C598 C 0.48541 0.21523 0.44742 0.0
H599 H 0.76374 0.3741 0.98599 0.0
H600 H 0.93132 0.38942 0.04538 0.0
H601 H 0.02008 0.36461 0.01252 0.0
H602 H 0.81654 0.28303 0.96394 0.0
H603 H 0.7942 0.29023 0.92907 0.0
H604 H 0.7479 0.31869 0.95438 0.0
H605 H 0.78417 0.38609 0.93098 0.0
H606 H 0.83076 0.35765 0.90544 0.0
H607 H 0.8772 0.39635 0.92423 0.0
H608 H 0.08481 0.32493 0.97733 0.0
H609 H 0.11824 0.27297 0.94377 0.0
H610 H 0.90984 0.28349 0.90688 0.0
C611 C 0.81947 0.37368 0.99187 0.0
C612 C 0.84041 0.38388 0.01834 0.0
C613 C 0.91382 0.38207 0.02523 0.0
C614 C 0.96474 0.36813 0.00662 0.0
C615 C 0.94165 0.35657 0.98107 0.0
C616 C 0.87068 0.35962 0.97362 0.0
C617 C 0.85747 0.3399 0.94656 0.0
C618 C 0.80075 0.30596 0.94864 0.0
C619 C 0.83615 0.37192 0.92556 0.0
C620 C 0.93104 0.32285 0.94068 0.0
C621 C 0.97941 0.33376 0.96048 0.0
C622 C 0.04813 0.31734 0.9613 0.0
C623 C 0.06681 0.28795 0.94214 0.0
C624 C 0.01725 0.2755 0.92236 0.0
C625 C 0.94951 0.29406 0.92109 0.0
H626 H 0.93632 0.31024 0.53258 0.0
H627 H 0.05053 0.19563 0.52721 0.0
H628 H 0.15572 0.23079 0.50942 0.0
H629 H 0.00136 0.34381 0.46768 0.0
H630 H 0.00539 0.39677 0.47688 0.0
H631 H 0.94192 0.36362 0.49298 0.0
H632 H 0.99357 0.38473 0.53925 0.0
H633 H 0.05869 0.417 0.52309 0.0
H634 H 0.08754 0.37774 0.5459 0.0
H635 H 0.24874 0.27628 0.49328 0.0
H636 H 0.31292 0.32578 0.46553 0.0
H637 H 0.13687 0.4109 0.47426 0.0
C638 C 0.98349 0.29279 0.52748 0.0
C639 C 0.9859 0.25034 0.5318 0.0
C640 C 0.04791 0.22824 0.52447 0.0
C641 C 0.10834 0.24797 0.5146 0.0
C642 C 0.10541 0.28982 0.51123 0.0
C643 C 0.04387 0.31189 0.51622 0.0
C644 C 0.05254 0.35546 0.50657 0.0
C645 C 0.99705 0.36549 0.48473 0.0
C646 C 0.0478 0.3855 0.53012 0.0
C647 C 0.12802 0.35383 0.49519 0.0
C648 C 0.15808 0.31601 0.4992 0.0
C649 C 0.22591 0.30607 0.48984 0.0
C650 C 0.26226 0.33458 0.47418 0.0
C651 C 0.22993 0.3721 0.46738 0.0
C652 C 0.16346 0.38264 0.47923 0.0
H653 H 0.43835 0.30657 0.01158 0.0
H654 H 0.60616 0.21843 0.0258 0.0
H655 H 0.54105 0.16789 -0.00189 0.0
H656 H 0.30019 0.23829 0.02121 0.0
H657 H 0.24086 0.25985 0.99651 0.0
H658 H 0.30627 0.29153 0.01277 0.0
H659 H 0.35969 0.31266 0.96654 0.0
H660 H 0.29166 0.28241 0.95059 0.0
H661 H 0.38461 0.27368 0.94287 0.0
H662 H 0.45414 0.12634 0.97089 0.0
H663 H 0.34919 0.09582 0.94803 0.0
H664 H 0.23397 0.20949 0.95683 0.0
C665 C 0.46238 0.27709 0.00796 0.0
C666 C 0.52764 0.26634 0.01999 0.0
C667 C 0.55655 0.22706 0.01613 0.0
C668 C 0.52004 0.19833 0.00053 0.0
C669 C 0.45433 0.20939 0.98957 0.0
C670 C 0.42564 0.24781 0.9932 0.0
C671 C 0.35055 0.2506 0.98222 0.0
C672 C 0.29631 0.26064 0.00452 0.0
C673 C 0.34646 0.28166 0.95917 0.0
C674 C 0.34115 0.20765 0.97215 0.0
C675 C 0.40195 0.18452 0.97606 0.0
C676 C 0.40604 0.14404 0.96786 0.0
C677 C 0.34637 0.12693 0.95511 0.0
C678 C 0.28349 0.15013 0.95143 0.0
C679 C 0.28087 0.19082 0.96016 0.0
H680 H 0.40764 0.84127 0.43845 0.0
H681 H 0.24185 0.90035 0.48462 0.0
H682 H 0.31873 0.89913 0.52479 0.0
H683 H 0.44021 0.77068 0.48267 0.0
H684 H 0.5356 0.76624 0.47821 0.0
H685 H 0.48155 0.78541 0.45141 0.0
H686 H 0.55839 0.85103 0.44966 0.0
H687 H 0.6131 0.83185 0.47664 0.0
H688 H 0.57074 0.88085 0.47965 0.0
H689 H 0.39738 0.87748 0.56121 0.0
H690 H 0.46283 0.83085 0.59121 0.0
H691 H 0.57501 0.7809 0.52265 0.0
C692 C 0.38942 0.85562 0.45678 0.0
C693 C 0.31978 0.87149 0.45864 0.0
C694 C 0.29565 0.88855 0.483 0.0
C695 C 0.33925 0.8883 0.50578 0.0
C696 C 0.40667 0.8705 0.50386 0.0
C697 C 0.43176 0.85439 0.47991 0.0
C698 C 0.498 0.82888 0.4844 0.0
C699 C 0.48813 0.78525 0.47357 0.0
C700 C 0.56396 0.84939 0.47185 0.0
C701 C 0.50176 0.82982 0.51475 0.0
C702 C 0.45115 0.85579 0.52551 0.0
C703 C 0.43848 0.85786 0.5531 0.0
C704 C 0.47578 0.83125 0.57001 0.0
C705 C 0.52343 0.80237 0.55908 0.0
C706 C 0.539 0.80304 0.53138 0.0
H707 H 0.93347 0.76941 0.00833 0.0
H708 H 0.94028 0.6961 0.0809 0.0
H709 H 0.00255 0.64205 0.05641 0.0
H710 H 0.91346 0.67998 0.96091 0.0
H711 H 0.96911 0.70373 0.93581 0.0
H712 H 0.91373 0.73453 0.95738 0.0
H713 H 0.02429 0.77582 0.97272 0.0
H714 H 0.08011 0.74594 0.95103 0.0
H715 H 0.10056 0.74935 0.98631 0.0
H716 H 0.08676 0.60377 0.02784 0.0
H717 H 0.17756 0.58086 0.99487 0.0
H718 H 0.10841 0.67447 0.93959 0.0
C719 C 0.94626 0.74153 0.01886 0.0
C720 C 0.93234 0.73725 0.04656 0.0
C721 C 0.95038 0.70032 0.05968 0.0
C722 C 0.98558 0.66922 0.04592 0.0
C723 C 0.00104 0.67501 0.0189 0.0
C724 C 0.98072 0.70985 0.00531 0.0
C725 C 0.00919 0.70985 0.97687 0.0
C726 C 0.94771 0.70684 0.95652 0.0
C727 C 0.05634 0.74745 0.97145 0.0
C728 C 0.05279 0.67111 0.97734 0.0
C729 C 0.04673 0.65117 0.00169 0.0
C730 C 0.09 0.61807 0.00831 0.0
C731 C 0.14143 0.60537 0.98966 0.0
C732 C 0.14785 0.62547 0.96477 0.0
C733 C 0.10215 0.65796 0.95826 0.0
H734 H 0.06618 0.76053 0.47741 0.0
H735 H 2e-05 0.68702 0.40954 0.0
H736 H 0.92762 0.64414 0.43985 0.0
H737 H 0.06051 0.67418 0.52942 0.0
H738 H 0.02752 0.70854 0.55475 0.0
H739 H 0.08882 0.72659 0.52942 0.0
H740 H -0.00083 0.78295 0.51603 0.0
H741 H 0.93726 0.76541 0.541 0.0
H742 H 0.90942 0.76903 0.50644 0.0
H743 H 0.84095 0.62156 0.47432 0.0
H744 H 0.75413 0.61676 0.51139 0.0
H745 H 0.87736 0.70368 0.55747 0.0
C746 C 0.03861 0.73443 0.4691 0.0
C747 C 0.03829 0.72709 0.44119 0.0
C748 C 0.00135 0.69293 0.43092 0.0
C749 C 0.96015 0.66841 0.448 0.0
C750 C 0.95807 0.67802 0.47526 0.0
C751 C 0.99776 0.70964 0.48589 0.0
C752 C 0.97943 0.71704 0.51508 0.0
C753 C 0.04284 0.70594 0.53326 0.0
C754 C 0.95483 0.7612 0.51988 0.0
C755 C 0.91869 0.68715 0.51853 0.0
C756 C 0.90832 0.66426 0.49554 0.0
C757 C 0.84974 0.63843 0.49267 0.0
C758 C 0.80005 0.63638 0.51364 0.0
C759 C 0.8093 0.6601 0.53702 0.0
C760 C 0.87025 0.68481 0.53985 0.0
H761 H 0.40906 0.73466 0.98148 0.0
H762 H 0.46514 0.79376 0.90647 0.0
H763 H 0.5264 0.84821 0.93175 0.0
H764 H 0.38716 0.83215 0.022 0.0
H765 H 0.42424 0.80825 0.05141 0.0
H766 H 0.37307 0.7786 0.02778 0.0
H767 H 0.47918 0.72849 0.02281 0.0
H768 H 0.53062 0.7579 0.04624 0.0
H769 H 0.56581 0.7478 0.01322 0.0
H770 H 0.60395 0.88642 0.96421 0.0
H771 H 0.68245 0.90848 0.00144 0.0
H772 H 0.56943 0.82829 0.05584 0.0
C773 C 0.43229 0.75972 0.97036 0.0
C774 C 0.43261 0.75977 0.94195 0.0
C775 C 0.46392 0.79305 0.9282 0.0
C776 C 0.49884 0.82417 0.94243 0.0
C777 C 0.50038 0.82218 0.97042 0.0
C778 C 0.46638 0.79127 0.98428 0.0
C779 C 0.48113 0.79401 0.01417 0.0
C780 C 0.4123 0.80384 0.02975 0.0
C781 C 0.51629 0.75474 0.0247 0.0
C782 C 0.53267 0.8296 0.01479 0.0
C783 C 0.54242 0.84578 0.98938 0.0
C784 C 0.59484 0.87504 0.98431 0.0
C785 C 0.63923 0.88739 0.00553 0.0
C786 C 0.63038 0.87093 0.03156 0.0
C787 C 0.57513 0.84257 0.03636 0.0
H788 H 0.37928 0.08276 0.32525 0.0
H789 H 0.27316 0.05951 0.40132 0.0
H790 H 0.2344 0.13073 0.40335 0.0
H791 H 0.44551 0.18286 0.34554 0.0
H792 H 0.43613 0.20473 0.31254 0.0
H793 H 0.4529 0.15108 0.31618 0.0
H794 H 0.33962 0.1358 0.28796 0.0
H795 H 0.3217 0.18946 0.28481 0.0
H796 H 0.25453 0.156 0.29852 0.0
H797 H 0.20303 0.20241 0.39721 0.0
H798 H 0.20216 0.27608 0.38808 0.0
H799 H 0.33582 0.25737 0.31809 0.0
C800 C 0.34836 0.09291 0.34236 0.0
C801 C 0.32925 0.06555 0.36313 0.0
C802 C 0.28916 0.07993 0.38532 0.0
C803 C 0.266 0.12026 0.38651 0.0
C804 C 0.28434 0.14625 0.3656 0.0
C805 C 0.32638 0.13375 0.34433 0.0
C806 C 0.34324 0.16938 0.32589 0.0
C807 C 0.42425 0.1775 0.325 0.0
C808 C 0.31295 0.16221 0.29761 0.0
C809 C 0.30364 0.20354 0.34012 0.0
C810 C 0.26879 0.18898 0.36265 0.0
C811 C 0.22978 0.21425 0.37959 0.0
C812 C 0.2289 0.25592 0.3741 0.0
C813 C 0.26717 0.27196 0.35204 0.0
C814 C 0.30404 0.24547 0.3345 0.0
H815 H 0.17416 0.23471 0.81203 0.0
H816 H 0.25409 0.18977 0.88814 0.0
H817 H 0.23864 0.25817 0.90791 0.0
H818 H 0.25331 0.33733 0.81617 0.0
H819 H 0.17642 0.35998 0.8003 0.0
H820 H 0.20164 0.30857 0.79224 0.0
H821 H 0.0737 0.28461 0.80499 0.0
H822 H 0.04897 0.33572 0.81398 0.0
H823 H 0.03963 0.2952 0.83811 0.0
H824 H 0.20243 0.33045 0.92017 0.0
H825 H 0.1679 0.40287 0.92204 0.0
H826 H 0.11229 0.39915 0.83748 0.0
C827 C 0.19102 0.23969 0.83258 0.0
C828 C 0.21574 0.20717 0.84848 0.0
C829 C 0.23605 0.21445 0.87546 0.0
C830 C 0.22666 0.2531 0.88694 0.0
C831 C 0.19803 0.28398 0.87101 0.0
C832 C 0.18223 0.27785 0.84423 0.0
C833 C 0.15022 0.31535 0.8315 0.0
C834 C 0.19828 0.33126 0.80872 0.0
C835 C 0.0736 0.3072 0.82157 0.0
C836 C 0.15029 0.34374 0.85529 0.0
C837 C 0.17717 0.32505 0.87801 0.0
C838 C 0.18173 0.34542 0.90246 0.0
C839 C 0.16125 0.38646 0.90336 0.0
C840 C 0.13759 0.40674 0.87984 0.0
C841 C 0.13019 0.38457 0.85578 0.0
H842 H 0.82989 0.43119 0.66324 0.0
H843 H 0.75625 0.45443 0.58199 0.0
H844 H 0.72496 0.3823 0.57691 0.0
H845 H 0.91176 0.33365 0.6469 0.0
H846 H 0.88904 0.3105 0.67858 0.0
H847 H 0.90281 0.36464 0.67655 0.0
H848 H 0.77709 0.37615 0.69705 0.0
H849 H 0.76247 0.32198 0.69862 0.0
H850 H 0.69994 0.35401 0.68099 0.0
H851 H 0.69829 0.30926 0.58023 0.0
H852 H 0.69876 0.23544 0.58861 0.0
H853 H 0.79663 0.2553 0.66635 0.0
C854 C 0.80753 0.42093 0.64437 0.0
C855 C 0.79551 0.44865 0.62302 0.0
C856 C 0.76666 0.43394 0.59857 0.0
C857 C 0.74785 0.39301 0.59556 0.0
C858 C 0.75909 0.36669 0.61702 0.0
C859 C 0.78995 0.3796 0.64072 0.0
C860 C 0.80096 0.3438 0.65969 0.0
C861 C 0.88089 0.33779 0.66578 0.0
C862 C 0.75752 0.34933 0.68563 0.0
C863 C 0.77136 0.30898 0.64288 0.0
C864 C 0.74618 0.32337 0.61857 0.0
C865 C 0.71759 0.29759 0.59921 0.0
C866 C 0.71743 0.25576 0.60424 0.0
C867 C 0.74604 0.23988 0.62834 0.0
C868 C 0.77223 0.26684 0.64818 0.0
H869 H 0.68965 0.07424 0.10548 0.0
H870 H 0.64133 0.06514 0.19044 0.0
H871 H 0.69374 0.13343 0.19767 0.0
H872 H 0.85997 0.12611 0.11319 0.0
H873 H 0.84735 0.15761 0.08395 0.0
H874 H 0.80715 0.10779 0.08545 0.0
H875 H 0.68129 0.13848 0.07692 0.0
H876 H 0.72194 0.18782 0.07411 0.0
H877 H 0.65046 0.17967 0.0978 0.0
H878 H 0.74252 0.20513 0.19477 0.0
H879 H 0.76525 0.27596 0.18069 0.0
H880 H 0.79534 0.2357 0.09896 0.0
C881 C 0.68893 0.08683 0.12556 0.0
C882 C 0.66022 0.06448 0.14734 0.0
C883 C 0.66218 0.08181 0.17339 0.0
C884 C 0.69274 0.12037 0.17774 0.0
C885 C 0.72269 0.14097 0.15595 0.0
C886 C 0.72048 0.12488 0.13034 0.0
C887 C 0.75357 0.15376 0.11013 0.0
C888 C 0.82102 0.13519 0.09744 0.0
C889 C 0.69855 0.16566 0.08849 0.0
C890 C 0.77237 0.18942 0.12817 0.0
C891 C 0.75503 0.18125 0.15463 0.0
C892 C 0.75803 0.21152 0.17426 0.0
C893 C 0.77282 0.25171 0.16624 0.0
C894 C 0.78395 0.26123 0.13886 0.0
C895 C 0.79031 0.22904 0.12019 0.0
H896 H 0.72088 0.78539 0.69081 0.0
H897 H 0.86421 0.73976 0.62953 0.0
H898 H 0.90783 0.80929 0.62143 0.0
H899 H 0.65834 0.86019 0.65714 0.0
H900 H 0.65065 0.89829 0.68299 0.0
H901 H 0.64986 0.84546 0.69188 0.0
H902 H 0.75715 0.85555 0.72391 0.0
H903 H 0.75703 0.90909 0.71596 0.0
H904 H 0.83754 0.87966 0.71176 0.0
H905 H 0.90384 0.88258 0.60906 0.0
H906 H 0.86869 0.95341 0.59913 0.0
H907 H 0.73018 0.95381 0.66882 0.0
C908 C 0.765 0.78972 0.677 0.0
C909 C 0.78883 0.75701 0.66078 0.0
C910 C 0.84555 0.76398 0.6425 0.0
C911 C 0.87016 0.8037 0.63752 0.0
C912 C 0.83913 0.83595 0.65157 0.0
C913 C 0.78959 0.82927 0.67173 0.0
C914 C 0.75603 0.86902 0.68091 0.0
C915 C 0.67393 0.86814 0.67803 0.0
C916 C 0.77829 0.87892 0.70985 0.0
C917 C 0.78971 0.89861 0.66126 0.0
C918 C 0.83842 0.87905 0.64479 0.0
C919 C 0.8681 0.89853 0.62251 0.0
C920 C 0.84734 0.93866 0.61687 0.0
C921 C 0.79767 0.9592 0.63349 0.0
C922 C 0.76996 0.93919 0.65632 0.0
H923 H 0.78224 0.58511 0.10313 0.0
H924 H 0.82855 0.55929 0.18678 0.0
H925 H 0.7705 0.6237 0.19991 0.0
H926 H 0.81516 0.69224 0.10651 0.0
H927 H 0.74514 0.70416 0.08295 0.0
H928 H 0.78913 0.65568 0.08139 0.0
H929 H 0.66458 0.62077 0.08519 0.0
H930 H 0.62113 0.66949 0.0882 0.0
H931 H 0.60854 0.63136 0.11379 0.0
H932 H 0.7155 0.69295 0.20367 0.0
H933 H 0.6909 0.76579 0.19652 0.0
H934 H 0.66735 0.74423 0.11146 0.0
C935 C 0.78124 0.59324 0.12419 0.0
C936 C 0.81056 0.56714 0.1439 0.0
C937 C 0.80693 0.57882 0.17127 0.0
C938 C 0.7731 0.6151 0.17897 0.0
C939 C 0.74209 0.63924 0.15914 0.0
C940 C 0.74681 0.6291 0.13228 0.0
C941 C 0.71313 0.66156 0.11479 0.0
C942 C 0.76892 0.67948 0.09528 0.0
C943 C 0.64797 0.64477 0.0996 0.0
C944 C 0.69061 0.69221 0.13597 0.0
C945 C 0.70686 0.67845 0.16149 0.0
C946 C 0.70098 0.70372 0.18389 0.0
C947 C 0.68507 0.74502 0.17978 0.0
C948 C 0.67618 0.76051 0.1535 0.0
C949 C 0.67119 0.73289 0.13184 0.0
H950 H 0.32547 0.57546 0.38843 0.0
H951 H 0.29806 0.53968 0.30526 0.0
H952 H 0.32642 0.60962 0.29088 0.0
H953 H 0.23991 0.66559 0.38445 0.0
H954 H 0.29783 0.69304 0.407 0.0
H955 H 0.29006 0.63887 0.40983 0.0
H956 H 0.42767 0.6325 0.40476 0.0
H957 H 0.43529 0.68696 0.40133 0.0
H958 H 0.47133 0.65404 0.37577 0.0
H959 H 0.32852 0.68491 0.2863 0.0
H960 H 0.30022 0.75761 0.29259 0.0
H961 H 0.33919 0.74572 0.37766 0.0
C962 C 0.32722 0.58207 0.36715 0.0
C963 C 0.30926 0.55198 0.34801 0.0
C964 C 0.31175 0.56205 0.32036 0.0
C965 C 0.32833 0.60173 0.31196 0.0
C966 C 0.34398 0.63098 0.33137 0.0
C967 C 0.34443 0.62147 0.35842 0.0
C968 C 0.3544 0.65927 0.37541 0.0
C969 C 0.29182 0.66449 0.3953 0.0
C970 C 0.42648 0.65811 0.39019 0.0
C971 C 0.35417 0.69189 0.35382 0.0
C972 C 0.34964 0.6749 0.32845 0.0
C973 C 0.33514 0.6987 0.30586 0.0
C974 C 0.32006 0.7402 0.30949 0.0
C975 C 0.32054 0.75752 0.33543 0.0
C976 C 0.34265 0.73363 0.35747 0.0
H977 H 0.26245 0.73403 0.8222 0.0
H978 H 0.17992 0.69275 0.89882 0.0
H979 H 0.19243 0.76253 0.917 0.0
H980 H 0.3954 0.79593 0.84831 0.0
H981 H 0.38806 0.83501 0.82306 0.0
H982 H 0.36416 0.78336 0.8151 0.0
H983 H 0.23713 0.80596 0.80034 0.0
H984 H 0.26161 0.85789 0.80717 0.0
H985 H 0.18352 0.83614 0.82286 0.0
H986 H 0.22519 0.83663 0.92743 0.0
H987 H 0.25574 0.91 0.92687 0.0
H988 H 0.32138 0.89935 0.84362 0.0
C989 C 0.24439 0.74008 0.84248 0.0
C990 C 0.21905 0.70841 0.85895 0.0
C991 C 0.19767 0.71696 0.88566 0.0
C992 C 0.20577 0.75632 0.89626 0.0
C993 C 0.23506 0.78641 0.87981 0.0
C994 C 0.25257 0.77878 0.85332 0.0
C995 C 0.2854 0.81544 0.83992 0.0
C996 C 0.36284 0.8069 0.83109 0.0
C997 C 0.23914 0.82971 0.81618 0.0
C998 C 0.28327 0.84524 0.86288 0.0
C999 C 0.25488 0.82806 0.88587 0.0
C1000 C 0.24719 0.85039 0.90949 0.0
C1001 C 0.26551 0.89189 0.90909 0.0
C1002 C 0.29079 0.91033 0.88516 0.0
C1003 C 0.30212 0.88616 0.8622 0.0
H1004 H 0.51621 0.52834 0.56756 0.0
H1005 H 0.64069 0.61846 0.52512 0.0
H1006 H 0.56519 0.611 0.48547 0.0
H1007 H 0.50687 0.46198 0.51667 0.0
H1008 H 0.41686 0.4443 0.52255 0.0
H1009 H 0.46768 0.46531 0.54968 0.0
H1010 H 0.36612 0.51757 0.55821 0.0
H1011 H 0.31593 0.49703 0.53042 0.0
H1012 H 0.33736 0.55048 0.53137 0.0
H1013 H 0.49617 0.5842 0.44779 0.0
H1014 H 0.4525 0.53365 0.41495 0.0
H1015 H 0.36796 0.46075 0.47991 0.0
C1016 C 0.52571 0.54725 0.55012 0.0
C1017 C 0.58379 0.57455 0.54951 0.0
C1018 C 0.59619 0.598 0.52622 0.0
C1019 C 0.55281 0.59416 0.50356 0.0
C1020 C 0.49658 0.56655 0.50438 0.0
C1021 C 0.48286 0.54332 0.52706 0.0
C1022 C 0.42769 0.51085 0.52108 0.0
C1023 C 0.45656 0.46812 0.52786 0.0
C1024 C 0.35762 0.51951 0.53617 0.0
C1025 C 0.41827 0.517 0.49106 0.0
C1026 C 0.45587 0.55054 0.48201 0.0
C1027 C 0.46465 0.55856 0.4546 0.0
C1028 C 0.43921 0.52995 0.43598 0.0
C1029 C 0.40639 0.4939 0.44509 0.0
C1030 C 0.39131 0.48889 0.47268 0.0
H1031 H 0.92959 0.93588 0.05739 0.0
H1032 H 0.77523 0.03478 0.05674 0.0
H1033 H 0.83955 0.06704 0.01968 0.0
H1034 H 0.08717 0.00246 0.04005 0.0
H1035 H 0.12756 0.96333 0.01977 0.0
H1036 H 0.07372 0.94964 0.04841 0.0
H1037 H 0.99475 0.90467 0.01776 0.0
H1038 H 0.04708 0.91892 0.9889 0.0
H1039 H 0.95176 0.92706 0.98893 0.0
H1040 H 0.9025 0.08123 0.97806 0.0
H1041 H 0.98225 0.08715 0.93942 0.0
H1042 H 0.10698 0.98482 0.96848 0.0
C1043 C 0.91045 0.96475 0.04987 0.0
C1044 C 0.84641 0.98221 0.05953 0.0
C1045 C 0.82331 0.02027 0.0493 0.0
C1046 C 0.85947 0.039 0.02825 0.0
C1047 C 0.91969 0.01987 0.01808 0.0
C1048 C 0.94681 0.98442 0.02897 0.0
C1049 C 0.01229 0.97035 0.01358 0.0
C1050 C 0.07915 0.97154 0.03152 0.0
C1051 C 0.00072 0.92773 0.00159 0.0
C1052 C 0.01538 0.00267 0.99185 0.0
C1053 C 0.96079 0.03051 0.99482 0.0
C1054 C 0.94743 0.06074 0.976 0.0
C1055 C 0.99314 0.06381 0.954 0.0
C1056 C 0.05266 0.0376 0.95135 0.0
C1057 C 0.06307 0.0061 0.97034 0.0
H1058 H 0.03566 0.01356 0.55702 0.0
H1059 H 0.81917 0.01247 0.52698 0.0
H1060 H 0.858 0.97143 0.48805 0.0
H1061 H 0.10478 0.04157 0.50165 0.0
H1062 H 0.18824 0.01423 0.50263 0.0
H1063 H 0.14312 0.02637 0.53332 0.0
H1064 H 0.13494 0.9501 0.5478 0.0
H1065 H 0.18868 0.93967 0.51871 0.0
H1066 H 0.10538 0.91292 0.52361 0.0
H1067 H 0.9255 0.94826 0.44706 0.0
H1068 H 0.01294 0.93975 0.4101 0.0
H1069 H 0.18617 0.96476 0.46554 0.0
C1070 C 0.99578 0.00178 0.54328 0.0
C1071 C 0.92453 0.01513 0.54508 0.0
C1072 C 0.87362 1.0013 0.52626 0.0
C1073 C 0.89563 0.97846 0.50389 0.0
C1074 C 0.96843 0.96992 0.50095 0.0
C1075 C 0.01761 0.98051 0.52053 0.0
C1076 C 0.09366 0.97636 0.51055 0.0
C1077 C 0.13471 0.01705 0.51213 0.0
C1078 C 0.13292 0.94269 0.52605 0.0
C1079 C 0.07985 0.96422 0.48181 0.0
C1080 C 0.00759 0.95947 0.47675 0.0
C1081 C 0.98221 0.95111 0.45099 0.0
C1082 C 0.03204 0.94685 0.43007 0.0
C1083 C 0.10608 0.95216 0.43493 0.0
C1084 C 0.12984 0.96096 0.46115 0.0
H1085 H 0.67779 0.50447 0.01959 0.0
H1086 H 0.53876 0.48155 0.08748 0.0
H1087 H 0.43383 0.50125 0.06035 0.0
H1088 H 0.5686 0.59191 0.99 0.0
H1089 H 0.58693 0.57526 0.95623 0.0
H1090 H 0.65238 0.56745 0.98229 0.0
H1091 H 0.65412 0.49049 0.97116 0.0
H1092 H 0.58779 0.49789 0.94551 0.0
H1093 H 0.57175 0.46195 0.97219 0.0
H1094 H 0.34557 0.51006 0.02521 0.0
H1095 H 0.27468 0.51581 0.98402 0.0
H1096 H 0.46868 0.53549 0.93771 0.0
C1097 C 0.62545 0.50534 0.0289 0.0
C1098 C 0.61523 0.49163 0.05547 0.0
C1099 C 0.54641 0.49178 0.06702 0.0
C1100 C 0.48702 0.50311 0.05187 0.0
C1101 C 0.49798 0.51452 0.02529 0.0
C1102 C 0.56537 0.51658 0.01391 0.0
C1103 C 0.56089 0.52591 0.98412 0.0
C1104 C 0.59416 0.56762 0.9778 0.0
C1105 C 0.59568 0.49203 0.96727 0.0
C1106 C 0.48049 0.52664 0.98045 0.0
C1107 C 0.44565 0.52032 0.00457 0.0
C1108 C 0.37191 0.51597 0.00625 0.0
C1109 C 0.33229 0.51871 0.98266 0.0
C1110 C 0.36645 0.52587 0.9577 0.0
C1111 C 0.44146 0.53026 0.9566 0.0
loop_
_geom_bond_atom_site_label_1
_geom_bond_atom_site_label_2
_geom_bond_distance
_geom_bond_site_symmetry_2
_ccdc_geom_bond_type
C0 O27 1.312 . S
C0 O28 1.208 . S
C1 O22 1.331 . S
C1 O25 1.244 . S
C2 O24 1.264 . S
C2 O26 1.273 . S
Mg3 O5 1.936 . S
Mg3 O12 2.081 . S
Mg3 O14 2.023 . S
Mg3 O18 2.031 . S
Mg3 O27 2.291 . S
Mg4 O5 1.963 . S
Mg4 O15 1.942 . S
Mg4 O16 1.955 . S
Mg4 O23 1.986 . S
O5 Mg3 1.936 . S
O5 Mg4 1.963 . S
O5 Mg6 1.915 . S
Mg6 O5 1.915 . S
Mg6 O7 1.915 . S
Mg6 O11 2.013 . S
Mg6 O17 2.114 . S
Mg6 O21 2.013 . S
Mg6 O27 2.114 . S
O7 Mg6 1.915 . S
O7 Mg8 1.936 . S
O7 Mg9 1.963 . S
Mg8 O7 1.936 . S
Mg8 O17 2.291 . S
Mg8 O22 2.081 . S
Mg8 O24 2.023 . S
Mg8 O28 2.031 . S
Mg9 O7 1.963 . S
Mg9 O13 1.986 . S
Mg9 O25 1.942 . S
Mg9 O26 1.955 . S
C10 O21 1.191 . S
C10 O23 1.307 . S
O11 Mg6 2.013 . S
O11 C30 1.191 . S
O12 Mg3 2.081 . S
O12 C20 1.331 . S
O13 Mg9 1.986 . S
O13 C30 1.307 . S
O14 Mg3 2.023 . S
O14 C29 1.264 . S
O15 Mg4 1.942 . S
O15 C20 1.244 . S
O16 Mg4 1.955 . S
O16 C29 1.273 . S
O17 Mg6 2.114 . S
O17 Mg8 2.291 . S
O17 C19 1.312 . S
O18 Mg3 2.031 . S
O18 C19 1.208 . S
C19 O17 1.312 . S
C19 O18 1.208 . S
C20 O12 1.331 . S
C20 O15 1.244 . S
O21 Mg6 2.013 . S
O21 C10 1.191 . S
O22 C1 1.331 . S
O22 Mg8 2.081 . S
O23 Mg4 1.986 . S
O23 C10 1.307 . S
O24 C2 1.264 . S
O24 Mg8 2.023 . S
O25 C1 1.244 . S
O25 Mg9 1.942 . S
O26 C2 1.273 . S
O26 Mg9 1.955 . S
O27 C0 1.312 . S
O27 Mg3 2.291 . S
O27 Mg6 2.114 . S
O28 C0 1.208 . S
O28 Mg8 2.031 . S
C29 O14 1.264 . S
C29 O16 1.273 . S
C30 O11 1.191 . S
C30 O13 1.307 . S
C31 O58 1.312 . S
C31 O59 1.208 . S
C32 O53 1.331 . S
C32 O56 1.244 . S
C33 O55 1.264 . S
C33 O57 1.273 . S
Mg34 O36 1.936 1_655 S
Mg34 O43 2.081 . S
Mg34 O45 2.023 . S
Mg34 O49 2.031 1_655 S
Mg34 O58 2.291 1_655 S
Mg35 O36 1.963 1_655 S
Mg35 O46 1.942 . S
Mg35 O47 1.955 . S
Mg35 O54 1.986 1_655 S
O36 Mg34 1.936 1_455 S
O36 Mg35 1.963 1_455 S
O36 Mg37 1.915 . S
Mg37 O36 1.915 . S
Mg37 O38 1.915 . S
Mg37 O42 2.013 . S
Mg37 O48 2.114 . S
Mg37 O52 2.013 . S
Mg37 O58 2.114 . S
O38 Mg37 1.915 . S
O38 Mg39 1.936 . S
O38 Mg40 1.963 . S
Mg39 O38 1.936 . S
Mg39 O48 2.291 . S
Mg39 O53 2.081 . S
Mg39 O55 2.023 . S
Mg39 O59 2.031 . S
Mg40 O38 1.963 . S
Mg40 O44 1.986 . S
Mg40 O56 1.942 . S
Mg40 O57 1.955 . S
C41 O52 1.191 . S
C41 O54 1.307 . S
O42 Mg37 2.013 . S
O42 C61 1.191 . S
O43 Mg34 2.081 . S
O43 C51 1.331 . S
O44 Mg40 1.986 . S
O44 C61 1.307 . S
O45 Mg34 2.023 . S
O45 C60 1.264 . S
O46 Mg35 1.942 . S
O46 C51 1.244 . S
O47 Mg35 1.955 . S
O47 C60 1.273 . S
O48 Mg37 2.114 . S
O48 Mg39 2.291 . S
O48 C50 1.312 . S
O49 Mg34 2.031 1_455 S
O49 C50 1.208 . S
C50 O48 1.312 . S
C50 O49 1.208 . S
C51 O43 1.331 . S
C51 O46 1.244 . S
O52 Mg37 2.013 . S
O52 C41 1.191 . S
O53 C32 1.331 . S
O53 Mg39 2.081 . S
O54 Mg35 1.986 1_455 S
O54 C41 1.307 . S
O55 C33 1.264 . S
O55 Mg39 2.023 . S
O56 C32 1.244 . S
O56 Mg40 1.942 . S
O57 C33 1.273 . S
O57 Mg40 1.955 . S
O58 C31 1.312 . S
O58 Mg34 2.291 1_455 S
O58 Mg37 2.114 . S
O59 C31 1.208 . S
O59 Mg39 2.031 . S
C60 O45 1.264 . S
C60 O47 1.273 . S
C61 O42 1.191 . S
C61 O44 1.307 . S
C62 O89 1.312 . S
C62 O90 1.208 . S
C63 O84 1.331 . S
C63 O87 1.244 . S
C64 O86 1.264 . S
C64 O88 1.273 . S
Mg65 O67 1.936 1_455 S
Mg65 O74 2.081 . S
Mg65 O76 2.023 . S
Mg65 O80 2.031 . S
Mg65 O89 2.291 1_455 S
Mg66 O67 1.963 1_455 S
Mg66 O77 1.942 . S
Mg66 O78 1.955 . S
Mg66 O85 1.986 . S
O67 Mg65 1.936 1_655 S
O67 Mg66 1.963 1_655 S
O67 Mg68 1.915 . S
Mg68 O67 1.915 . S
Mg68 O69 1.915 . S
Mg68 O73 2.013 . S
Mg68 O79 2.114 . S
Mg68 O83 2.013 . S
Mg68 O89 2.114 . S
O69 Mg68 1.915 . S
O69 Mg70 1.936 . S
O69 Mg71 1.963 . S
Mg70 O69 1.936 . S
Mg70 O79 2.291 . S
Mg70 O84 2.081 . S
Mg70 O86 2.023 . S
Mg70 O90 2.031 . S
Mg71 O69 1.963 . S
Mg71 O75 1.986 . S
Mg71 O87 1.942 . S
Mg71 O88 1.955 . S
C72 O83 1.191 . S
C72 O85 1.307 1_655 S
O73 Mg68 2.013 . S
O73 C92 1.191 . S
O74 Mg65 2.081 . S
O74 C82 1.331 . S
O75 Mg71 1.986 . S
O75 C92 1.307 . S
O76 Mg65 2.023 . S
O76 C91 1.264 . S
O77 Mg66 1.942 . S
O77 C82 1.244 . S
O78 Mg66 1.955 . S
O78 C91 1.273 . S
O79 Mg68 2.114 . S
O79 Mg70 2.291 . S
O79 C81 1.312 . S
O80 Mg65 2.031 . S
O80 C81 1.206 1_455 S
C81 O79 1.312 . S
C81 O80 1.206 1_655 S
C82 O74 1.331 . S
C82 O77 1.244 . S
O83 Mg68 2.013 . S
O83 C72 1.191 . S
O84 C63 1.331 . S
O84 Mg70 2.081 . S
O85 Mg66 1.986 . S
O85 C72 1.307 1_455 S
O86 C64 1.264 . S
O86 Mg70 2.023 . S
O87 C63 1.244 . S
O87 Mg71 1.942 . S
O88 C64 1.273 . S
O88 Mg71 1.955 . S
O89 C62 1.312 . S
O89 Mg65 2.291 1_655 S
O89 Mg68 2.114 . S
O90 C62 1.208 . S
O90 Mg70 2.031 . S
C91 O76 1.264 . S
C91 O78 1.273 . S
C92 O73 1.191 . S
C92 O75 1.307 . S
C93 O120 1.312 . S
C93 O121 1.208 . S
C94 O115 1.331 . S
C94 O118 1.244 . S
C95 O117 1.264 . S
C95 O119 1.273 . S
Mg96 O98 1.936 . S
Mg96 O105 2.081 . S
Mg96 O107 2.023 . S
Mg96 O111 2.031 . S
Mg96 O120 2.291 . S
Mg97 O98 1.963 . S
Mg97 O108 1.942 . S
Mg97 O109 1.955 . S
Mg97 O116 1.986 . S
O98 Mg96 1.936 . S
O98 Mg97 1.963 . S
O98 Mg99 1.915 . S
Mg99 O98 1.915 . S
Mg99 O100 1.915 . S
Mg99 O104 2.013 . S
Mg99 O110 2.114 . S
Mg99 O114 2.013 . S
Mg99 O120 2.114 . S
O100 Mg99 1.915 . S
O100 Mg101 1.936 . S
O100 Mg102 1.963 . S
Mg101 O100 1.936 . S
Mg101 O110 2.291 . S
Mg101 O115 2.081 . S
Mg101 O117 2.023 . S
Mg101 O121 2.031 . S
Mg102 O100 1.963 . S
Mg102 O106 1.986 . S
Mg102 O118 1.942 . S
Mg102 O119 1.955 . S
C103 O114 1.191 . S
C103 O116 1.307 . S
O104 Mg99 2.013 . S
O104 C123 1.191 . S
O105 Mg96 2.081 . S
O105 C113 1.331 . S
O106 Mg102 1.986 . S
O106 C123 1.307 . S
O107 Mg96 2.023 . S
O107 C122 1.264 . S
O108 Mg97 1.942 . S
O108 C113 1.244 . S
O109 Mg97 1.955 . S
O109 C122 1.273 . S
O110 Mg99 2.114 . S
O110 Mg101 2.291 . S
O110 C112 1.312 . S
O111 Mg96 2.031 . S
O111 C112 1.208 . S
C112 O110 1.312 . S
C112 O111 1.208 . S
C113 O105 1.331 . S
C113 O108 1.244 . S
O114 Mg99 2.013 . S
O114 C103 1.191 . S
O115 C94 1.331 . S
O115 Mg101 2.081 . S
O116 Mg97 1.986 . S
O116 C103 1.307 . S
O117 C95 1.264 . S
O117 Mg101 2.023 . S
O118 C94 1.244 . S
O118 Mg102 1.942 . S
O119 C95 1.273 . S
O119 Mg102 1.955 . S
O120 C93 1.312 . S
O120 Mg96 2.291 . S
O120 Mg99 2.114 . S
O121 C93 1.208 . S
O121 Mg101 2.031 . S
C122 O107 1.264 . S
C122 O109 1.273 . S
C123 O104 1.191 . S
C123 O106 1.307 . S
C124 O151 1.312 . S
C124 O152 1.208 . S
C125 O146 1.331 . S
C125 O149 1.244 . S
C126 O148 1.264 . S
C126 O150 1.273 . S
Mg127 O129 1.936 . S
Mg127 O136 2.081 . S
Mg127 O138 2.023 . S
Mg127 O142 2.031 . S
Mg127 O151 2.291 . S
Mg128 O129 1.963 . S
Mg128 O139 1.942 . S
Mg128 O140 1.955 . S
Mg128 O147 1.986 . S
O129 Mg127 1.936 . S
O129 Mg128 1.963 . S
O129 Mg130 1.915 . S
Mg130 O129 1.915 . S
Mg130 O131 1.915 . S
Mg130 O135 2.013 . S
Mg130 O141 2.114 . S
Mg130 O145 2.013 . S
Mg130 O151 2.114 . S
O131 Mg130 1.915 . S
O131 Mg132 1.936 . S
O131 Mg133 1.963 . S
Mg132 O131 1.936 . S
Mg132 O141 2.291 . S
Mg132 O146 2.081 . S
Mg132 O148 2.023 . S
Mg132 O152 2.031 . S
Mg133 O131 1.963 . S
Mg133 O137 1.986 . S
Mg133 O149 1.942 . S
Mg133 O150 1.955 . S
C134 O145 1.191 . S
C134 O147 1.307 . S
O135 Mg130 2.013 . S
O135 C154 1.191 . S
O136 Mg127 2.081 . S
O136 C144 1.331 . S
O137 Mg133 1.986 . S
O137 C154 1.307 . S
O138 Mg127 2.023 . S
O138 C153 1.264 . S
O139 Mg128 1.942 . S
O139 C144 1.244 . S
O140 Mg128 1.955 . S
O140 C153 1.273 . S
O141 Mg130 2.114 . S
O141 Mg132 2.291 . S
O141 C143 1.312 . S
O142 Mg127 2.031 . S
O142 C143 1.208 . S
C143 O141 1.312 . S
C143 O142 1.208 . S
C144 O136 1.331 . S
C144 O139 1.244 . S
O145 Mg130 2.013 . S
O145 C134 1.191 . S
O146 C125 1.331 . S
O146 Mg132 2.081 . S
O147 Mg128 1.986 . S
O147 C134 1.307 . S
O148 C126 1.264 . S
O148 Mg132 2.023 . S
O149 C125 1.244 . S
O149 Mg133 1.942 . S
O150 C126 1.273 . S
O150 Mg133 1.955 . S
O151 C124 1.312 . S
O151 Mg127 2.291 . S
O151 Mg130 2.114 . S
O152 C124 1.208 . S
O152 Mg132 2.031 . S
C153 O138 1.264 . S
C153 O140 1.273 . S
C154 O135 1.191 . S
C154 O137 1.307 . S
C155 O182 1.312 . S
C155 O183 1.208 . S
C156 O177 1.331 . S
C156 O180 1.244 . S
C157 O179 1.264 . S
C157 O181 1.273 . S
Mg158 O160 1.936 . S
Mg158 O167 2.081 . S
Mg158 O169 2.023 . S
Mg158 O173 2.031 . S
Mg158 O182 2.291 . S
Mg159 O160 1.963 . S
Mg159 O170 1.942 . S
Mg159 O171 1.955 . S
Mg159 O178 1.986 . S
O160 Mg158 1.936 . S
O160 Mg159 1.963 . S
O160 Mg161 1.915 . S
Mg161 O160 1.915 . S
Mg161 O162 1.915 . S
Mg161 O166 2.013 . S
Mg161 O172 2.114 . S
Mg161 O176 2.013 . S
Mg161 O182 2.114 . S
O162 Mg161 1.915 . S
O162 Mg163 1.936 1_655 S
O162 Mg164 1.963 1_655 S
Mg163 O162 1.936 1_455 S
Mg163 O172 2.291 1_455 S
Mg163 O177 2.081 . S
Mg163 O179 2.023 . S
Mg163 O183 2.031 1_455 S
Mg164 O162 1.963 1_455 S
Mg164 O168 1.986 1_455 S
Mg164 O180 1.942 . S
Mg164 O181 1.955 . S
C165 O176 1.191 . S
C165 O178 1.307 . S
O166 Mg161 2.013 . S
O166 C185 1.191 . S
O167 Mg158 2.081 . S
O167 C175 1.331 . S
O168 Mg164 1.986 1_655 S
O168 C185 1.307 . S
O169 Mg158 2.023 . S
O169 C184 1.264 . S
O170 Mg159 1.942 . S
O170 C175 1.244 . S
O171 Mg159 1.955 . S
O171 C184 1.273 . S
O172 Mg161 2.114 . S
O172 Mg163 2.291 1_655 S
O172 C174 1.312 . S
O173 Mg158 2.031 . S
O173 C174 1.208 . S
C174 O172 1.312 . S
C174 O173 1.208 . S
C175 O167 1.331 . S
C175 O170 1.244 . S
O176 Mg161 2.013 . S
O176 C165 1.191 . S
O177 C156 1.331 . S
O177 Mg163 2.081 . S
O178 Mg159 1.986 . S
O178 C165 1.307 . S
O179 C157 1.264 . S
O179 Mg163 2.023 . S
O180 C156 1.244 . S
O180 Mg164 1.942 . S
O181 C157 1.273 . S
O181 Mg164 1.955 . S
O182 C155 1.312 . S
O182 Mg158 2.291 . S
O182 Mg161 2.114 . S
O183 C155 1.208 . S
O183 Mg163 2.031 1_655 S
C184 O169 1.264 . S
C184 O171 1.273 . S
C185 O166 1.191 . S
C185 O168 1.307 . S
C186 O213 1.312 . S
C186 O214 1.208 . S
C187 O208 1.331 . S
C187 O211 1.244 . S
C188 O210 1.264 . S
C188 O212 1.273 . S
Mg189 O191 1.936 . S
Mg189 O198 2.081 . S
Mg189 O200 2.023 . S
Mg189 O204 2.031 . S
Mg189 O213 2.291 . S
Mg190 O191 1.963 . S
Mg190 O201 1.942 . S
Mg190 O202 1.955 . S
Mg190 O209 1.986 . S
O191 Mg189 1.936 . S
O191 Mg190 1.963 . S
O191 Mg192 1.915 . S
Mg192 O191 1.915 . S
Mg192 O193 1.915 . S
Mg192 O197 2.013 . S
Mg192 O203 2.114 . S
Mg192 O207 2.013 . S
Mg192 O213 2.114 . S
O193 Mg192 1.915 . S
O193 Mg194 1.936 1_455 S
O193 Mg195 1.963 1_455 S
Mg194 O193 1.936 1_655 S
Mg194 O203 2.291 1_655 S
Mg194 O208 2.081 . S
Mg194 O210 2.023 . S
Mg194 O214 2.031 1_655 S
Mg195 O193 1.963 1_655 S
Mg195 O199 1.986 1_655 S
Mg195 O211 1.942 . S
Mg195 O212 1.955 . S
C196 O207 1.191 . S
C196 O209 1.307 . S
O197 Mg192 2.013 . S
O197 C216 1.191 . S
O198 Mg189 2.081 . S
O198 C206 1.331 . S
O199 Mg195 1.986 1_455 S
O199 C216 1.307 . S
O200 Mg189 2.023 . S
O200 C215 1.264 . S
O201 Mg190 1.942 . S
O201 C206 1.244 . S
O202 Mg190 1.955 . S
O202 C215 1.273 . S
O203 Mg192 2.114 . S
O203 Mg194 2.291 1_455 S
O203 C205 1.312 . S
O204 Mg189 2.031 . S
O204 C205 1.208 . S
C205 O203 1.312 . S
C205 O204 1.208 . S
C206 O198 1.331 . S
C206 O201 1.244 . S
O207 Mg192 2.013 . S
O207 C196 1.191 . S
O208 C187 1.331 . S
O208 Mg194 2.081 . S
O209 Mg190 1.986 . S
O209 C196 1.307 . S
O210 C188 1.264 . S
O210 Mg194 2.023 . S
O211 C187 1.244 . S
O211 Mg195 1.942 . S
O212 C188 1.273 . S
O212 Mg195 1.955 . S
O213 C186 1.312 . S
O213 Mg189 2.291 . S
O213 Mg192 2.114 . S
O214 C186 1.208 . S
O214 Mg194 2.031 1_455 S
C215 O200 1.264 . S
C215 O202 1.273 . S
C216 O197 1.191 . S
C216 O199 1.307 . S
C217 O244 1.312 . S
C217 O245 1.208 . S
C218 O239 1.331 . S
C218 O242 1.244 . S
C219 O241 1.264 . S
C219 O243 1.273 . S
Mg220 O222 1.936 . S
Mg220 O229 2.081 . S
Mg220 O231 2.023 . S
Mg220 O235 2.031 . S
Mg220 O244 2.291 . S
Mg221 O222 1.963 . S
Mg221 O232 1.942 . S
Mg221 O233 1.955 . S
Mg221 O240 1.986 . S
O222 Mg220 1.936 . S
O222 Mg221 1.963 . S
O222 Mg223 1.915 . S
Mg223 O222 1.915 . S
Mg223 O224 1.915 . S
Mg223 O228 2.013 . S
Mg223 O234 2.114 . S
Mg223 O238 2.013 . S
Mg223 O244 2.114 . S
O224 Mg223 1.915 . S
O224 Mg225 1.936 . S
O224 Mg226 1.963 . S
Mg225 O224 1.936 . S
Mg225 O234 2.291 . S
Mg225 O239 2.081 . S
Mg225 O241 2.023 . S
Mg225 O245 2.031 . S
Mg226 O224 1.963 . S
Mg226 O230 1.986 . S
Mg226 O242 1.942 . S
Mg226 O243 1.955 . S
C227 O238 1.191 . S
C227 O240 1.307 . S
O228 Mg223 2.013 . S
O228 C247 1.191 . S
O229 Mg220 2.081 . S
O229 C237 1.331 . S
O230 Mg226 1.986 . S
O230 C247 1.307 . S
O231 Mg220 2.023 . S
O231 C246 1.264 . S
O232 Mg221 1.942 . S
O232 C237 1.244 . S
O233 Mg221 1.955 . S
O233 C246 1.273 . S
O234 Mg223 2.114 . S
O234 Mg225 2.291 . S
O234 C236 1.312 . S
O235 Mg220 2.031 . S
O235 C236 1.208 . S
C236 O234 1.312 . S
C236 O235 1.208 . S
C237 O229 1.331 . S
C237 O232 1.244 . S
O238 Mg223 2.013 . S
O238 C227 1.191 . S
O239 C218 1.331 . S
O239 Mg225 2.081 . S
O240 Mg221 1.986 . S
O240 C227 1.307 . S
O241 C219 1.264 . S
O241 Mg225 2.023 . S
O242 C218 1.244 . S
O242 Mg226 1.942 . S
O243 C219 1.273 . S
O243 Mg226 1.955 . S
O244 C217 1.312 . S
O244 Mg220 2.291 . S
O244 Mg223 2.114 . S
O245 C217 1.208 . S
O245 Mg225 2.031 . S
C246 O231 1.264 . S
C246 O233 1.273 . S
C247 O228 1.191 . S
C247 O230 1.307 . S
H248 C260 0.930 . S
H249 C262 0.930 . S
H250 C263 0.930 . S
H251 C267 0.959 . S
H252 C267 0.959 . S
H253 C267 0.961 . S
H254 C268 0.960 . S
H255 C268 0.961 . S
H256 C268 0.959 . S
H257 C271 0.929 . S
H258 C272 0.931 . S
H259 C274 0.930 . S
C260 H248 0.930 . S
C260 C261 1.399 . S
C260 C265 1.399 1_455 S
C261 C260 1.399 . S
C261 C262 1.376 . S
C262 H249 0.930 . S
C262 C261 1.376 . S
C262 C263 1.388 1_455 S
C263 H250 0.930 . S
C263 C262 1.388 1_655 S
C263 C264 1.390 . S
C264 C263 1.390 . S
C264 C265 1.394 . S
C264 C270 1.465 . S
C265 C260 1.399 1_655 S
C265 C264 1.394 . S
C265 C266 1.516 . S
C266 C265 1.516 . S
C266 C267 1.502 . S
C266 C268 1.561 . S
C266 C269 1.526 . S
C267 H251 0.959 . S
C267 H252 0.959 . S
C267 H253 0.961 . S
C267 C266 1.502 . S
C268 H254 0.960 . S
C268 H255 0.961 . S
C268 H256 0.959 . S
C268 C266 1.561 . S
C269 C266 1.526 . S
C269 C270 1.396 . S
C269 C274 1.390 . S
C270 C264 1.465 . S
C270 C269 1.396 . S
C270 C271 1.399 . S
C271 H257 0.929 . S
C271 C270 1.399 . S
C271 C272 1.385 . S
C272 H258 0.931 . S
C272 C271 1.385 . S
C272 C273 1.389 . S
C273 C272 1.389 . S
C273 C274 1.387 . S
C274 H259 0.930 . S
C274 C269 1.390 . S
C274 C273 1.387 . S
H275 C287 0.930 . S
H276 C289 0.930 . S
H277 C290 0.930 . S
H278 C294 0.959 . S
H279 C294 0.959 . S
H280 C294 0.961 . S
H281 C295 0.960 . S
H282 C295 0.961 . S
H283 C295 0.959 . S
H284 C298 0.929 . S
H285 C299 0.931 . S
H286 C301 0.930 . S
C287 H275 0.930 . S
C287 C288 1.399 . S
C287 C292 1.399 . S
C288 C287 1.399 . S
C288 C289 1.376 . S
C289 H276 0.930 . S
C289 C288 1.376 . S
C289 C290 1.388 . S
C290 H277 0.930 . S
C290 C289 1.388 . S
C290 C291 1.390 . S
C291 C290 1.390 . S
C291 C292 1.394 . S
C291 C297 1.465 . S
C292 C287 1.399 . S
C292 C291 1.394 . S
C292 C293 1.516 . S
C293 C292 1.516 . S
C293 C294 1.502 . S
C293 C295 1.561 . S
C293 C296 1.526 . S
C294 H278 0.959 . S
C294 H279 0.959 . S
C294 H280 0.961 . S
C294 C293 1.502 . S
C295 H281 0.960 . S
C295 H282 0.961 . S
C295 H283 0.959 . S
C295 C293 1.561 . S
C296 C293 1.526 . S
C296 C297 1.396 . S
C296 C301 1.390 . S
C297 C291 1.465 . S
C297 C296 1.396 . S
C297 C298 1.399 . S
C298 H284 0.929 . S
C298 C297 1.399 . S
C298 C299 1.385 . S
C299 H285 0.931 . S
C299 C298 1.385 . S
C299 C300 1.389 . S
C300 C299 1.389 . S
C300 C301 1.387 . S
C301 H286 0.930 . S
C301 C296 1.390 . S
C301 C300 1.387 . S
H302 C314 0.930 . S
H303 C316 0.930 . S
H304 C317 0.930 . S
H305 C321 0.959 . S
H306 C321 0.959 . S
H307 C321 0.961 . S
H308 C322 0.960 . S
H309 C322 0.961 . S
H310 C322 0.959 . S
H311 C325 0.929 . S
H312 C326 0.931 . S
H313 C328 0.930 . S
C314 H302 0.930 . S
C314 C315 1.399 . S
C314 C319 1.399 . S
C315 C314 1.399 . S
C315 C316 1.376 . S
C316 H303 0.930 . S
C316 C315 1.376 . S
C316 C317 1.388 . S
C317 H304 0.930 . S
C317 C316 1.388 . S
C317 C318 1.390 . S
C318 C317 1.390 . S
C318 C319 1.394 . S
C318 C324 1.465 . S
C319 C314 1.399 . S
C319 C318 1.394 . S
C319 C320 1.516 . S
C320 C319 1.516 . S
C320 C321 1.502 . S
C320 C322 1.561 . S
C320 C323 1.526 . S
C321 H305 0.959 . S
C321 H306 0.959 . S
C321 H307 0.961 . S
C321 C320 1.502 . S
C322 H308 0.960 . S
C322 H309 0.961 . S
C322 H310 0.959 . S
C322 C320 1.561 . S
C323 C320 1.526 . S
C323 C324 1.396 . S
C323 C328 1.390 . S
C324 C318 1.465 . S
C324 C323 1.396 . S
C324 C325 1.399 . S
C325 H311 0.929 . S
C325 C324 1.399 . S
C325 C326 1.385 . S
C326 H312 0.931 . S
C326 C325 1.385 . S
C326 C327 1.389 . S
C327 C326 1.389 . S
C327 C328 1.387 . S
C328 H313 0.930 . S
C328 C323 1.390 . S
C328 C327 1.387 . S
H329 C341 0.930 . S
H330 C343 0.930 . S
H331 C344 0.930 . S
H332 C348 0.959 . S
H333 C348 0.959 . S
H334 C348 0.961 . S
H335 C349 0.960 . S
H336 C349 0.961 . S
H337 C349 0.959 . S
H338 C352 0.929 . S
H339 C353 0.931 . S
H340 C355 0.930 . S
C341 H329 0.930 . S
C341 C342 1.399 . S
C341 C346 1.399 1_655 S
C342 C341 1.399 . S
C342 C343 1.376 . S
C343 H330 0.930 . S
C343 C342 1.376 . S
C343 C344 1.388 1_655 S
C344 H331 0.930 . S
C344 C343 1.388 1_455 S
C344 C345 1.390 . S
C345 C344 1.390 . S
C345 C346 1.394 . S
C345 C351 1.465 . S
C346 C341 1.399 1_455 S
C346 C345 1.394 . S
C346 C347 1.516 . S
C347 C346 1.516 . S
C347 C348 1.502 . S
C347 C349 1.561 . S
C347 C350 1.526 . S
C348 H332 0.959 . S
C348 H333 0.959 . S
C348 H334 0.961 . S
C348 C347 1.502 . S
C349 H335 0.960 . S
C349 H336 0.961 . S
C349 H337 0.959 . S
C349 C347 1.561 . S
C350 C347 1.526 . S
C350 C351 1.396 . S
C350 C355 1.390 . S
C351 C345 1.465 . S
C351 C350 1.396 . S
C351 C352 1.399 . S
C352 H338 0.929 . S
C352 C351 1.399 . S
C352 C353 1.385 . S
C353 H339 0.931 . S
C353 C352 1.385 . S
C353 C354 1.389 . S
C354 C353 1.389 . S
C354 C355 1.387 . S
C355 H340 0.930 . S
C355 C350 1.390 . S
C355 C354 1.387 . S
H356 C368 0.930 . S
H357 C370 0.930 . S
H358 C371 0.930 . S
H359 C375 0.959 . S
H360 C375 0.959 . S
H361 C375 0.961 . S
H362 C376 0.960 . S
H363 C376 0.961 . S
H364 C376 0.959 . S
H365 C379 0.929 . S
H366 C380 0.931 . S
H367 C382 0.930 . S
C368 H356 0.930 . S
C368 C369 1.399 . S
C368 C373 1.399 . S
C369 C368 1.399 . S
C369 C370 1.376 . S
C370 H357 0.930 . S
C370 C369 1.376 . S
C370 C371 1.388 . S
C371 H358 0.930 . S
C371 C370 1.388 . S
C371 C372 1.390 . S
C372 C371 1.390 . S
C372 C373 1.394 . S
C372 C378 1.465 . S
C373 C368 1.399 . S
C373 C372 1.394 . S
C373 C374 1.516 . S
C374 C373 1.516 . S
C374 C375 1.502 . S
C374 C376 1.561 . S
C374 C377 1.526 . S
C375 H359 0.959 . S
C375 H360 0.959 . S
C375 H361 0.961 . S
C375 C374 1.502 . S
C376 H362 0.960 . S
C376 H363 0.961 . S
C376 H364 0.959 . S
C376 C374 1.561 . S
C377 C374 1.526 . S
C377 C378 1.396 . S
C377 C382 1.390 1_455 S
C378 C372 1.465 . S
C378 C377 1.396 . S
C378 C379 1.399 . S
C379 H365 0.929 . S
C379 C378 1.399 . S
C379 C380 1.385 1_455 S
C380 H366 0.931 . S
C380 C379 1.385 1_655 S
C380 C381 1.389 . S
C381 C380 1.389 . S
C381 C382 1.387 . S
C382 H367 0.930 . S
C382 C377 1.390 1_655 S
C382 C381 1.387 . S
H383 C395 0.930 . S
H384 C397 0.930 . S
H385 C398 0.930 . S
H386 C402 0.959 . S
H387 C402 0.959 . S
H388 C402 0.961 . S
H389 C403 0.960 . S
H390 C403 0.961 . S
H391 C403 0.959 . S
H392 C406 0.929 . S
H393 C407 0.931 . S
H394 C409 0.930 . S
C395 H383 0.930 . S
C395 C396 1.399 . S
C395 C400 1.399 . S
C396 C395 1.399 . S
C396 C397 1.376 . S
C397 H384 0.930 . S
C397 C396 1.376 . S
C397 C398 1.388 . S
C398 H385 0.930 . S
C398 C397 1.388 . S
C398 C399 1.390 . S
C399 C398 1.390 . S
C399 C400 1.394 . S
C399 C405 1.465 . S
C400 C395 1.399 . S
C400 C399 1.394 . S
C400 C401 1.516 . S
C401 C400 1.516 . S
C401 C402 1.502 . S
C401 C403 1.561 . S
C401 C404 1.526 . S
C402 H386 0.959 . S
C402 H387 0.959 . S
C402 H388 0.961 . S
C402 C401 1.502 . S
C403 H389 0.960 . S
C403 H390 0.961 . S
C403 H391 0.959 . S
C403 C401 1.561 . S
C404 C401 1.526 . S
C404 C405 1.396 . S
C404 C409 1.390 . S
C405 C399 1.465 . S
C405 C404 1.396 . S
C405 C406 1.399 . S
C406 H392 0.929 . S
C406 C405 1.399 . S
C406 C407 1.385 . S
C407 H393 0.931 . S
C407 C406 1.385 . S
C407 C408 1.389 . S
C408 C407 1.389 . S
C408 C409 1.387 . S
C409 H394 0.930 . S
C409 C404 1.390 . S
C409 C408 1.387 . S
H410 C422 0.930 . S
H411 C424 0.930 . S
H412 C425 0.930 . S
H413 C429 0.959 . S
H414 C429 0.959 . S
H415 C429 0.961 . S
H416 C430 0.960 . S
H417 C430 0.961 . S
H418 C430 0.959 . S
H419 C433 0.929 . S
H420 C434 0.931 . S
H421 C436 0.930 . S
C422 H410 0.930 . S
C422 C423 1.399 . S
C422 C427 1.399 . S
C423 C422 1.399 . S
C423 C424 1.376 . S
C424 H411 0.930 . S
C424 C423 1.376 . S
C424 C425 1.388 . S
C425 H412 0.930 . S
C425 C424 1.388 . S
C425 C426 1.390 . S
C426 C425 1.390 . S
C426 C427 1.394 . S
C426 C432 1.465 . S
C427 C422 1.399 . S
C427 C426 1.394 . S
C427 C428 1.516 . S
C428 C427 1.516 . S
C428 C429 1.502 . S
C428 C430 1.561 . S
C428 C431 1.526 . S
C429 H413 0.959 . S
C429 H414 0.959 . S
C429 H415 0.961 . S
C429 C428 1.502 . S
C430 H416 0.960 . S
C430 H417 0.961 . S
C430 H418 0.959 . S
C430 C428 1.561 . S
C431 C428 1.526 . S
C431 C432 1.396 . S
C431 C436 1.390 . S
C432 C426 1.465 . S
C432 C431 1.396 . S
C432 C433 1.399 . S
C433 H419 0.929 . S
C433 C432 1.399 . S
C433 C434 1.385 . S
C434 H420 0.931 . S
C434 C433 1.385 . S
C434 C435 1.389 . S
C435 C434 1.389 . S
C435 C436 1.387 . S
C436 H421 0.930 . S
C436 C431 1.390 . S
C436 C435 1.387 . S
H437 C449 0.930 . S
H438 C451 0.930 . S
H439 C452 0.930 . S
H440 C456 0.959 . S
H441 C456 0.959 . S
H442 C456 0.961 . S
H443 C457 0.960 . S
H444 C457 0.961 . S
H445 C457 0.959 . S
H446 C460 0.929 . S
H447 C461 0.931 . S
H448 C463 0.930 . S
C449 H437 0.930 . S
C449 C450 1.399 . S
C449 C454 1.399 1_455 S
C450 C449 1.399 . S
C450 C451 1.376 . S
C451 H438 0.930 . S
C451 C450 1.376 . S
C451 C452 1.388 1_455 S
C452 H439 0.930 . S
C452 C451 1.388 1_655 S
C452 C453 1.390 . S
C453 C452 1.390 . S
C453 C454 1.394 . S
C453 C459 1.465 . S
C454 C449 1.399 1_655 S
C454 C453 1.394 . S
C454 C455 1.516 . S
C455 C454 1.516 . S
C455 C456 1.502 . S
C455 C457 1.561 . S
C455 C458 1.526 . S
C456 H440 0.959 . S
C456 H441 0.959 . S
C456 H442 0.961 . S
C456 C455 1.502 . S
C457 H443 0.960 . S
C457 H444 0.961 . S
C457 H445 0.959 . S
C457 C455 1.561 . S
C458 C455 1.526 . S
C458 C459 1.396 . S
C458 C463 1.390 . S
C459 C453 1.465 . S
C459 C458 1.396 . S
C459 C460 1.399 . S
C460 H446 0.929 . S
C460 C459 1.399 . S
C460 C461 1.385 . S
C461 H447 0.931 . S
C461 C460 1.385 . S
C461 C462 1.389 . S
C462 C461 1.389 . S
C462 C463 1.387 . S
C463 H448 0.930 . S
C463 C458 1.390 . S
C463 C462 1.387 . S
H464 C476 0.930 . S
H465 C478 0.930 . S
H466 C479 0.930 . S
H467 C483 0.959 . S
H468 C483 0.959 . S
H469 C483 0.961 . S
H470 C484 0.960 . S
H471 C484 0.961 . S
H472 C484 0.959 . S
H473 C487 0.929 . S
H474 C488 0.931 . S
H475 C490 0.930 . S
C476 H464 0.930 . S
C476 C477 1.399 . S
C476 C481 1.399 . S
C477 C476 1.399 . S
C477 C478 1.376 . S
C478 H465 0.930 . S
C478 C477 1.376 . S
C478 C479 1.388 . S
C479 H466 0.930 . S
C479 C478 1.388 . S
C479 C480 1.390 . S
C480 C479 1.390 . S
C480 C481 1.394 . S
C480 C486 1.465 . S
C481 C476 1.399 . S
C481 C480 1.394 . S
C481 C482 1.516 . S
C482 C481 1.516 . S
C482 C483 1.502 . S
C482 C484 1.561 . S
C482 C485 1.526 . S
C483 H467 0.959 . S
C483 H468 0.959 . S
C483 H469 0.961 . S
C483 C482 1.502 . S
C484 H470 0.960 . S
C484 H471 0.961 . S
C484 H472 0.959 . S
C484 C482 1.561 . S
C485 C482 1.526 . S
C485 C486 1.396 . S
C485 C490 1.390 . S
C486 C480 1.465 . S
C486 C485 1.396 . S
C486 C487 1.399 . S
C487 H473 0.929 . S
C487 C486 1.399 . S
C487 C488 1.385 . S
C488 H474 0.931 . S
C488 C487 1.385 . S
C488 C489 1.389 . S
C489 C488 1.389 . S
C489 C490 1.387 . S
C490 H475 0.930 . S
C490 C485 1.390 . S
C490 C489 1.387 . S
H491 C503 0.930 1_655 S
H492 C505 0.930 . S
H493 C506 0.930 . S
H494 C510 0.959 . S
H495 C510 0.959 . S
H496 C510 0.961 . S
H497 C511 0.960 . S
H498 C511 0.961 . S
H499 C511 0.959 . S
H500 C514 0.929 . S
H501 C515 0.931 . S
H502 C517 0.930 . S
C503 H491 0.930 1_455 S
C503 C504 1.399 . S
C503 C508 1.399 . S
C504 C503 1.399 . S
C504 C505 1.376 . S
C505 H492 0.930 . S
C505 C504 1.376 . S
C505 C506 1.388 . S
C506 H493 0.930 . S
C506 C505 1.388 . S
C506 C507 1.390 . S
C507 C506 1.390 . S
C507 C508 1.394 . S
C507 C513 1.465 . S
C508 C503 1.399 . S
C508 C507 1.394 . S
C508 C509 1.516 1_455 S
C509 C508 1.516 1_655 S
C509 C510 1.502 . S
C509 C511 1.561 1_655 S
C509 C512 1.526 . S
C510 H494 0.959 . S
C510 H495 0.959 . S
C510 H496 0.961 . S
C510 C509 1.502 . S
C511 H497 0.960 . S
C511 H498 0.961 . S
C511 H499 0.959 . S
C511 C509 1.561 1_455 S
C512 C509 1.526 . S
C512 C513 1.396 1_655 S
C512 C517 1.390 . S
C513 C507 1.465 . S
C513 C512 1.396 1_455 S
C513 C514 1.399 . S
C514 H500 0.929 . S
C514 C513 1.399 . S
C514 C515 1.385 . S
C515 H501 0.931 . S
C515 C514 1.385 . S
C515 C516 1.389 1_455 S
C516 C515 1.389 1_655 S
C516 C517 1.387 . S
C517 H502 0.930 . S
C517 C512 1.390 . S
C517 C516 1.387 . S
H518 C530 0.930 . S
H519 C532 0.930 . S
H520 C533 0.930 . S
H521 C537 0.959 . S
H522 C537 0.959 . S
H523 C537 0.961 . S
H524 C538 0.960 . S
H525 C538 0.961 . S
H526 C538 0.959 . S
H527 C541 0.929 . S
H528 C542 0.931 . S
H529 C544 0.930 . S
C530 H518 0.930 . S
C530 C531 1.399 . S
C530 C535 1.399 . S
C531 C530 1.399 . S
C531 C532 1.376 . S
C532 H519 0.930 . S
C532 C531 1.376 . S
C532 C533 1.388 . S
C533 H520 0.930 . S
C533 C532 1.388 . S
C533 C534 1.390 . S
C534 C533 1.390 . S
C534 C535 1.394 . S
C534 C540 1.465 . S
C535 C530 1.399 . S
C535 C534 1.394 . S
C535 C536 1.516 . S
C536 C535 1.516 . S
C536 C537 1.502 . S
C536 C538 1.561 . S
C536 C539 1.526 . S
C537 H521 0.959 . S
C537 H522 0.959 . S
C537 H523 0.961 . S
C537 C536 1.502 . S
C538 H524 0.960 . S
C538 H525 0.961 . S
C538 H526 0.959 . S
C538 C536 1.561 . S
C539 C536 1.526 . S
C539 C540 1.396 . S
C539 C544 1.390 . S
C540 C534 1.465 . S
C540 C539 1.396 . S
C540 C541 1.399 . S
C541 H527 0.929 . S
C541 C540 1.399 . S
C541 C542 1.385 . S
C542 H528 0.931 . S
C542 C541 1.385 . S
C542 C543 1.389 . S
C543 C542 1.389 . S
C543 C544 1.387 . S
C544 H529 0.930 . S
C544 C539 1.390 . S
C544 C543 1.387 . S
H545 C557 0.930 . S
H546 C559 0.930 . S
H547 C560 0.930 . S
H548 C564 0.959 . S
H549 C564 0.959 . S
H550 C564 0.961 . S
H551 C565 0.960 . S
H552 C565 0.961 . S
H553 C565 0.959 . S
H554 C568 0.929 . S
H555 C569 0.931 . S
H556 C571 0.930 1_655 S
C557 H545 0.930 . S
C557 C558 1.399 . S
C557 C562 1.399 . S
C558 C557 1.399 . S
C558 C559 1.376 1_655 S
C559 H546 0.930 . S
C559 C558 1.376 1_455 S
C559 C560 1.388 . S
C560 H547 0.930 . S
C560 C559 1.388 . S
C560 C561 1.390 . S
C561 C560 1.390 . S
C561 C562 1.394 1_455 S
C561 C567 1.465 . S
C562 C557 1.399 . S
C562 C561 1.394 1_655 S
C562 C563 1.516 . S
C563 C562 1.516 . S
C563 C564 1.502 . S
C563 C565 1.561 1_655 S
C563 C566 1.526 1_655 S
C564 H548 0.959 . S
C564 H549 0.959 . S
C564 H550 0.961 . S
C564 C563 1.502 . S
C565 H551 0.960 . S
C565 H552 0.961 . S
C565 H553 0.959 . S
C565 C563 1.561 1_455 S
C566 C563 1.526 1_455 S
C566 C567 1.396 . S
C566 C571 1.390 . S
C567 C561 1.465 . S
C567 C566 1.396 . S
C567 C568 1.399 . S
C568 H554 0.929 . S
C568 C567 1.399 . S
C568 C569 1.385 . S
C569 H555 0.931 . S
C569 C568 1.385 . S
C569 C570 1.389 . S
C570 C569 1.389 . S
C570 C571 1.387 . S
C571 H556 0.930 1_455 S
C571 C566 1.390 . S
C571 C570 1.387 . S
H572 C584 0.930 . S
H573 C586 0.930 . S
H574 C587 0.930 . S
H575 C591 0.959 . S
H576 C591 0.959 . S
H577 C591 0.961 . S
H578 C592 0.960 . S
H579 C592 0.961 . S
H580 C592 0.959 . S
H581 C595 0.929 . S
H582 C596 0.931 . S
H583 C598 0.930 . S
C584 H572 0.930 . S
C584 C585 1.399 . S
C584 C589 1.399 . S
C585 C584 1.399 . S
C585 C586 1.376 . S
C586 H573 0.930 . S
C586 C585 1.376 . S
C586 C587 1.388 . S
C587 H574 0.930 . S
C587 C586 1.388 . S
C587 C588 1.390 . S
C588 C587 1.390 . S
C588 C589 1.394 . S
C588 C594 1.465 . S
C589 C584 1.399 . S
C589 C588 1.394 . S
C589 C590 1.516 . S
C590 C589 1.516 . S
C590 C591 1.502 . S
C590 C592 1.561 . S
C590 C593 1.526 . S
C591 H575 0.959 . S
C591 H576 0.959 . S
C591 H577 0.961 . S
C591 C590 1.502 . S
C592 H578 0.960 . S
C592 H579 0.961 . S
C592 H580 0.959 . S
C592 C590 1.561 . S
C593 C590 1.526 . S
C593 C594 1.396 . S
C593 C598 1.390 . S
C594 C588 1.465 . S
C594 C593 1.396 . S
C594 C595 1.399 . S
C595 H581 0.929 . S
C595 C594 1.399 . S
C595 C596 1.385 . S
C596 H582 0.931 . S
C596 C595 1.385 . S
C596 C597 1.389 . S
C597 C596 1.389 . S
C597 C598 1.387 . S
C598 H583 0.930 . S
C598 C593 1.390 . S
C598 C597 1.387 . S
H599 C611 0.930 . S
H600 C613 0.930 . S
H601 C614 0.930 . S
H602 C618 0.959 . S
H603 C618 0.959 . S
H604 C618 0.961 . S
H605 C619 0.960 . S
H606 C619 0.961 . S
H607 C619 0.959 . S
H608 C622 0.904 1_554 S
H609 C623 0.931 1_455 S
H610 C625 0.930 . S
C611 H599 0.930 . S
C611 C612 1.399 . S
C611 C616 1.383 1_554 S
C612 C611 1.399 . S
C612 C613 1.376 . S
C613 H600 0.930 . S
C613 C612 1.376 . S
C613 C614 1.388 . S
C614 H601 0.930 . S
C614 C613 1.388 . S
C614 C615 1.390 . S
C615 C614 1.390 . S
C615 C616 1.375 1_554 S
C615 C621 1.465 1_554 S
C616 C611 1.383 1_556 S
C616 C615 1.375 1_556 S
C616 C617 1.550 . S
C617 C616 1.550 . S
C617 C618 1.502 . S
C617 C619 1.561 . S
C617 C620 1.526 . S
C618 H602 0.959 . S
C618 H603 0.959 . S
C618 H604 0.961 . S
C618 C617 1.502 . S
C619 H605 0.960 . S
C619 H606 0.961 . S
C619 H607 0.959 . S
C619 C617 1.561 . S
C620 C617 1.526 . S
C620 C621 1.396 . S
C620 C625 1.390 . S
C621 C615 1.465 1_556 S
C621 C620 1.396 . S
C621 C622 1.403 . S
C622 H608 0.904 1_556 S
C622 C621 1.403 . S
C622 C623 1.407 . S
C623 H609 0.931 1_655 S
C623 C622 1.407 . S
C623 C624 1.389 . S
C624 C623 1.389 . S
C624 C625 1.387 . S
C625 H610 0.930 . S
C625 C620 1.390 . S
C625 C624 1.387 . S
H626 C638 0.930 . S
H627 C640 0.930 . S
H628 C641 0.930 . S
H629 C645 0.959 . S
H630 C645 0.959 . S
H631 C645 0.961 . S
H632 C646 0.960 . S
H633 C646 0.961 . S
H634 C646 0.959 . S
H635 C649 0.929 . S
H636 C650 0.931 . S
H637 C652 0.930 . S
C638 H626 0.930 . S
C638 C639 1.399 . S
C638 C643 1.399 . S
C639 C638 1.399 . S
C639 C640 1.376 . S
C640 H627 0.930 . S
C640 C639 1.376 . S
C640 C641 1.388 . S
C641 H628 0.930 . S
C641 C640 1.388 . S
C641 C642 1.390 . S
C642 C641 1.390 . S
C642 C643 1.394 . S
C642 C648 1.465 . S
C643 C638 1.399 . S
C643 C642 1.394 . S
C643 C644 1.516 . S
C644 C643 1.516 . S
C644 C645 1.502 . S
C644 C646 1.561 . S
C644 C647 1.526 . S
C645 H629 0.959 . S
C645 H630 0.959 . S
C645 H631 0.961 . S
C645 C644 1.502 . S
C646 H632 0.960 . S
C646 H633 0.961 . S
C646 H634 0.959 . S
C646 C644 1.561 . S
C647 C644 1.526 . S
C647 C648 1.396 . S
C647 C652 1.390 . S
C648 C642 1.465 . S
C648 C647 1.396 . S
C648 C649 1.399 . S
C649 H635 0.929 . S
C649 C648 1.399 . S
C649 C650 1.385 . S
C650 H636 0.931 . S
C650 C649 1.385 . S
C650 C651 1.389 . S
C651 C650 1.389 . S
C651 C652 1.387 . S
C652 H637 0.930 . S
C652 C647 1.390 . S
C652 C651 1.387 . S
H653 C665 0.930 . S
H654 C667 0.930 . S
H655 C668 0.930 . S
H656 C672 0.959 . S
H657 C672 0.959 1_556 S
H658 C672 0.961 . S
H659 C673 0.960 . S
H660 C673 0.961 . S
H661 C673 0.959 . S
H662 C676 0.929 . S
H663 C677 0.931 . S
H664 C679 0.930 . S
C665 H653 0.930 . S
C665 C666 1.399 . S
C665 C670 1.399 . S
C666 C665 1.399 . S
C666 C667 1.376 . S
C667 H654 0.930 . S
C667 C666 1.376 . S
C667 C668 1.388 . S
C668 H655 0.930 . S
C668 C667 1.388 . S
C668 C669 1.390 . S
C669 C668 1.390 . S
C669 C670 1.394 . S
C669 C675 1.465 1_554 S
C670 C665 1.399 . S
C670 C669 1.394 . S
C670 C671 1.516 1_554 S
C671 C670 1.516 1_556 S
C671 C672 1.502 1_556 S
C671 C673 1.561 . S
C671 C674 1.526 . S
C672 H656 0.959 . S
C672 H657 0.959 1_554 S
C672 H658 0.961 . S
C672 C671 1.502 1_554 S
C673 H659 0.960 . S
C673 H660 0.961 . S
C673 H661 0.959 . S
C673 C671 1.561 . S
C674 C671 1.526 . S
C674 C675 1.396 . S
C674 C679 1.390 . S
C675 C669 1.465 1_556 S
C675 C674 1.396 . S
C675 C676 1.399 . S
C676 H662 0.929 . S
C676 C675 1.399 . S
C676 C677 1.385 . S
C677 H663 0.931 . S
C677 C676 1.385 . S
C677 C678 1.389 . S
C678 C677 1.389 . S
C678 C679 1.387 . S
C679 H664 0.930 . S
C679 C674 1.390 . S
C679 C678 1.387 . S
H680 C692 0.930 . S
H681 C694 0.930 . S
H682 C695 0.930 . S
H683 C699 0.959 . S
H684 C699 0.959 . S
H685 C699 0.961 . S
H686 C700 0.960 . S
H687 C700 0.961 . S
H688 C700 0.959 . S
H689 C703 0.929 . S
H690 C704 0.931 . S
H691 C706 0.930 . S
C692 H680 0.930 . S
C692 C693 1.399 . S
C692 C697 1.399 . S
C693 C692 1.399 . S
C693 C694 1.376 . S
C694 H681 0.930 . S
C694 C693 1.376 . S
C694 C695 1.388 . S
C695 H682 0.930 . S
C695 C694 1.388 . S
C695 C696 1.390 . S
C696 C695 1.390 . S
C696 C697 1.394 . S
C696 C702 1.465 . S
C697 C692 1.399 . S
C697 C696 1.394 . S
C697 C698 1.516 . S
C698 C697 1.516 . S
C698 C699 1.502 . S
C698 C700 1.561 . S
C698 C701 1.526 . S
C699 H683 0.959 . S
C699 H684 0.959 . S
C699 H685 0.961 . S
C699 C698 1.502 . S
C700 H686 0.960 . S
C700 H687 0.961 . S
C700 H688 0.959 . S
C700 C698 1.561 . S
C701 C698 1.526 . S
C701 C702 1.396 . S
C701 C706 1.390 . S
C702 C696 1.465 . S
C702 C701 1.396 . S
C702 C703 1.399 . S
C703 H689 0.929 . S
C703 C702 1.399 . S
C703 C704 1.385 . S
C704 H690 0.931 . S
C704 C703 1.385 . S
C704 C705 1.389 . S
C705 C704 1.389 . S
C705 C706 1.387 . S
C706 H691 0.930 . S
C706 C701 1.390 . S
C706 C705 1.387 . S
H707 C719 0.930 . S
H708 C721 0.930 . S
H709 C722 0.930 . S
H710 C726 0.959 . S
H711 C726 0.959 . S
H712 C726 0.961 . S
H713 C727 0.960 . S
H714 C727 0.961 . S
H715 C727 0.959 1_554 S
H716 C730 0.929 . S
H717 C731 0.931 . S
H718 C733 0.930 . S
C719 H707 0.930 . S
C719 C720 1.399 . S
C719 C724 1.399 . S
C720 C719 1.399 . S
C720 C721 1.376 . S
C721 H708 0.930 . S
C721 C720 1.376 . S
C721 C722 1.388 . S
C722 H709 0.930 . S
C722 C721 1.388 . S
C722 C723 1.390 . S
C723 C722 1.390 . S
C723 C724 1.394 . S
C723 C729 1.465 . S
C724 C719 1.399 . S
C724 C723 1.394 . S
C724 C725 1.516 1_554 S
C725 C724 1.516 1_556 S
C725 C726 1.502 . S
C725 C727 1.561 . S
C725 C728 1.526 . S
C726 H710 0.959 . S
C726 H711 0.959 . S
C726 H712 0.961 . S
C726 C725 1.502 . S
C727 H713 0.960 . S
C727 H714 0.961 . S
C727 H715 0.959 1_556 S
C727 C725 1.561 . S
C728 C725 1.526 . S
C728 C729 1.396 1_556 S
C728 C733 1.390 . S
C729 C723 1.465 . S
C729 C728 1.396 1_554 S
C729 C730 1.399 . S
C730 H716 0.929 . S
C730 C729 1.399 . S
C730 C731 1.385 1_554 S
C731 H717 0.931 . S
C731 C730 1.385 1_556 S
C731 C732 1.389 . S
C732 C731 1.389 . S
C732 C733 1.387 . S
C733 H718 0.930 . S
C733 C728 1.390 . S
C733 C732 1.387 . S
H734 C746 0.930 . S
H735 C748 0.930 . S
H736 C749 0.930 . S
H737 C753 0.959 . S
H738 C753 0.959 . S
H739 C753 0.961 . S
H740 C754 0.960 . S
H741 C754 0.961 . S
H742 C754 0.959 . S
H743 C757 0.929 . S
H744 C758 0.931 . S
H745 C760 0.930 . S
C746 H734 0.930 . S
C746 C747 1.399 . S
C746 C751 1.399 . S
C747 C746 1.399 . S
C747 C748 1.376 . S
C748 H735 0.930 . S
C748 C747 1.376 . S
C748 C749 1.388 . S
C749 H736 0.930 . S
C749 C748 1.388 . S
C749 C750 1.390 . S
C750 C749 1.390 . S
C750 C751 1.394 . S
C750 C756 1.465 . S
C751 C746 1.399 . S
C751 C750 1.394 . S
C751 C752 1.516 . S
C752 C751 1.516 . S
C752 C753 1.502 . S
C752 C754 1.561 . S
C752 C755 1.526 . S
C753 H737 0.959 . S
C753 H738 0.959 . S
C753 H739 0.961 . S
C753 C752 1.502 . S
C754 H740 0.960 . S
C754 H741 0.961 . S
C754 H742 0.959 . S
C754 C752 1.561 . S
C755 C752 1.526 . S
C755 C756 1.396 . S
C755 C760 1.390 . S
C756 C750 1.465 . S
C756 C755 1.396 . S
C756 C757 1.399 . S
C757 H743 0.929 . S
C757 C756 1.399 . S
C757 C758 1.385 . S
C758 H744 0.931 . S
C758 C757 1.385 . S
C758 C759 1.389 . S
C759 C758 1.389 . S
C759 C760 1.387 . S
C760 H745 0.930 . S
C760 C755 1.390 . S
C760 C759 1.387 . S
H761 C773 0.930 . S
H762 C775 0.930 . S
H763 C776 0.930 . S
H764 C780 0.959 . S
H765 C780 0.959 . S
H766 C780 0.961 . S
H767 C781 0.960 . S
H768 C781 0.961 1_554 S
H769 C781 0.959 . S
H770 C784 0.929 . S
H771 C785 0.931 . S
H772 C787 0.930 . S
C773 H761 0.930 . S
C773 C774 1.399 . S
C773 C778 1.399 . S
C774 C773 1.399 . S
C774 C775 1.376 . S
C775 H762 0.930 . S
C775 C774 1.376 . S
C775 C776 1.388 . S
C776 H763 0.930 . S
C776 C775 1.388 . S
C776 C777 1.390 . S
C777 C776 1.390 . S
C777 C778 1.394 . S
C777 C783 1.465 . S
C778 C773 1.399 . S
C778 C777 1.394 . S
C778 C779 1.516 1_556 S
C779 C778 1.516 1_554 S
C779 C780 1.502 . S
C779 C781 1.561 1_554 S
C779 C782 1.526 . S
C780 H764 0.959 . S
C780 H765 0.959 . S
C780 H766 0.961 . S
C780 C779 1.502 . S
C781 H767 0.960 . S
C781 H768 0.961 1_556 S
C781 H769 0.959 . S
C781 C779 1.561 1_556 S
C782 C779 1.526 . S
C782 C783 1.396 1_554 S
C782 C787 1.390 . S
C783 C777 1.465 . S
C783 C782 1.396 1_556 S
C783 C784 1.399 . S
C784 H770 0.929 . S
C784 C783 1.399 . S
C784 C785 1.385 1_556 S
C785 H771 0.931 . S
C785 C784 1.385 1_554 S
C785 C786 1.389 . S
C786 C785 1.389 . S
C786 C787 1.387 . S
C787 H772 0.930 . S
C787 C782 1.390 . S
C787 C786 1.387 . S
H788 C800 0.930 . S
H789 C802 0.930 . S
H790 C803 0.930 . S
H791 C807 0.959 . S
H792 C807 0.959 . S
H793 C807 0.961 . S
H794 C808 0.960 . S
H795 C808 0.961 . S
H796 C808 0.959 . S
H797 C811 0.929 . S
H798 C812 0.931 . S
H799 C814 0.930 . S
C800 H788 0.930 . S
C800 C801 1.399 . S
C800 C805 1.399 . S
C801 C800 1.399 . S
C801 C802 1.376 . S
C802 H789 0.930 . S
C802 C801 1.376 . S
C802 C803 1.388 . S
C803 H790 0.930 . S
C803 C802 1.388 . S
C803 C804 1.390 . S
C804 C803 1.390 . S
C804 C805 1.394 . S
C804 C810 1.465 . S
C805 C800 1.399 . S
C805 C804 1.394 . S
C805 C806 1.516 . S
C806 C805 1.516 . S
C806 C807 1.502 . S
C806 C808 1.561 . S
C806 C809 1.526 . S
C807 H791 0.959 . S
C807 H792 0.959 . S
C807 H793 0.961 . S
C807 C806 1.502 . S
C808 H794 0.960 . S
C808 H795 0.961 . S
C808 H796 0.959 . S
C808 C806 1.561 . S
C809 C806 1.526 . S
C809 C810 1.396 . S
C809 C814 1.390 . S
C810 C804 1.465 . S
C810 C809 1.396 . S
C810 C811 1.399 . S
C811 H797 0.929 . S
C811 C810 1.399 . S
C811 C812 1.385 . S
C812 H798 0.931 . S
C812 C811 1.385 . S
C812 C813 1.389 . S
C813 C812 1.389 . S
C813 C814 1.387 . S
C814 H799 0.930 . S
C814 C809 1.390 . S
C814 C813 1.387 . S
H815 C827 0.930 . S
H816 C829 0.930 . S
H817 C830 0.930 . S
H818 C834 0.959 . S
H819 C834 0.959 . S
H820 C834 0.961 . S
H821 C835 0.960 . S
H822 C835 0.961 . S
H823 C835 0.959 . S
H824 C838 0.929 . S
H825 C839 0.931 . S
H826 C841 0.930 . S
C827 H815 0.930 . S
C827 C828 1.399 . S
C827 C832 1.399 . S
C828 C827 1.399 . S
C828 C829 1.376 . S
C829 H816 0.930 . S
C829 C828 1.376 . S
C829 C830 1.388 . S
C830 H817 0.930 . S
C830 C829 1.388 . S
C830 C831 1.390 . S
C831 C830 1.390 . S
C831 C832 1.394 . S
C831 C837 1.465 . S
C832 C827 1.399 . S
C832 C831 1.394 . S
C832 C833 1.516 . S
C833 C832 1.516 . S
C833 C834 1.502 . S
C833 C835 1.561 . S
C833 C836 1.526 . S
C834 H818 0.959 . S
C834 H819 0.959 . S
C834 H820 0.961 . S
C834 C833 1.502 . S
C835 H821 0.960 . S
C835 H822 0.961 . S
C835 H823 0.959 . S
C835 C833 1.561 . S
C836 C833 1.526 . S
C836 C837 1.396 . S
C836 C841 1.390 . S
C837 C831 1.465 . S
C837 C836 1.396 . S
C837 C838 1.399 . S
C838 H824 0.929 . S
C838 C837 1.399 . S
C838 C839 1.385 . S
C839 H825 0.931 . S
C839 C838 1.385 . S
C839 C840 1.389 . S
C840 C839 1.389 . S
C840 C841 1.387 . S
C841 H826 0.930 . S
C841 C836 1.390 . S
C841 C840 1.387 . S
H842 C854 0.930 . S
H843 C856 0.930 . S
H844 C857 0.930 . S
H845 C861 0.959 . S
H846 C861 0.959 . S
H847 C861 0.961 . S
H848 C862 0.960 . S
H849 C862 0.961 . S
H850 C862 0.959 . S
H851 C865 0.929 . S
H852 C866 0.931 . S
H853 C868 0.930 . S
C854 H842 0.930 . S
C854 C855 1.399 . S
C854 C859 1.399 . S
C855 C854 1.399 . S
C855 C856 1.376 . S
C856 H843 0.930 . S
C856 C855 1.376 . S
C856 C857 1.388 . S
C857 H844 0.930 . S
C857 C856 1.388 . S
C857 C858 1.390 . S
C858 C857 1.390 . S
C858 C859 1.394 . S
C858 C864 1.465 . S
C859 C854 1.399 . S
C859 C858 1.394 . S
C859 C860 1.516 . S
C860 C859 1.516 . S
C860 C861 1.502 . S
C860 C862 1.561 . S
C860 C863 1.526 . S
C861 H845 0.959 . S
C861 H846 0.959 . S
C861 H847 0.961 . S
C861 C860 1.502 . S
C862 H848 0.960 . S
C862 H849 0.961 . S
C862 H850 0.959 . S
C862 C860 1.561 . S
C863 C860 1.526 . S
C863 C864 1.396 . S
C863 C868 1.390 . S
C864 C858 1.465 . S
C864 C863 1.396 . S
C864 C865 1.399 . S
C865 H851 0.929 . S
C865 C864 1.399 . S
C865 C866 1.385 . S
C866 H852 0.931 . S
C866 C865 1.385 . S
C866 C867 1.389 . S
C867 C866 1.389 . S
C867 C868 1.387 . S
C868 H853 0.930 . S
C868 C863 1.390 . S
C868 C867 1.387 . S
H869 C881 0.930 . S
H870 C883 0.930 . S
H871 C884 0.930 . S
H872 C888 0.959 . S
H873 C888 0.959 . S
H874 C888 0.961 . S
H875 C889 0.960 . S
H876 C889 0.961 . S
H877 C889 0.959 . S
H878 C892 0.929 . S
H879 C893 0.931 . S
H880 C895 0.930 . S
C881 H869 0.930 . S
C881 C882 1.399 . S
C881 C886 1.399 . S
C882 C881 1.399 . S
C882 C883 1.376 . S
C883 H870 0.930 . S
C883 C882 1.376 . S
C883 C884 1.388 . S
C884 H871 0.930 . S
C884 C883 1.388 . S
C884 C885 1.390 . S
C885 C884 1.390 . S
C885 C886 1.394 . S
C885 C891 1.465 . S
C886 C881 1.399 . S
C886 C885 1.394 . S
C886 C887 1.516 . S
C887 C886 1.516 . S
C887 C888 1.502 . S
C887 C889 1.561 . S
C887 C890 1.526 . S
C888 H872 0.959 . S
C888 H873 0.959 . S
C888 H874 0.961 . S
C888 C887 1.502 . S
C889 H875 0.960 . S
C889 H876 0.961 . S
C889 H877 0.959 . S
C889 C887 1.561 . S
C890 C887 1.526 . S
C890 C891 1.396 . S
C890 C895 1.390 . S
C891 C885 1.465 . S
C891 C890 1.396 . S
C891 C892 1.399 . S
C892 H878 0.929 . S
C892 C891 1.399 . S
C892 C893 1.385 . S
C893 H879 0.931 . S
C893 C892 1.385 . S
C893 C894 1.389 . S
C894 C893 1.389 . S
C894 C895 1.387 . S
C895 H880 0.930 . S
C895 C890 1.390 . S
C895 C894 1.387 . S
H896 C908 0.930 . S
H897 C910 0.930 . S
H898 C911 0.930 . S
H899 C915 0.959 . S
H900 C915 0.959 . S
H901 C915 0.961 . S
H902 C916 0.960 . S
H903 C916 0.961 . S
H904 C916 0.959 . S
H905 C919 0.929 . S
H906 C920 0.931 . S
H907 C922 0.930 . S
C908 H896 0.930 . S
C908 C909 1.399 . S
C908 C913 1.399 . S
C909 C908 1.399 . S
C909 C910 1.376 . S
C910 H897 0.930 . S
C910 C909 1.376 . S
C910 C911 1.388 . S
C911 H898 0.930 . S
C911 C910 1.388 . S
C911 C912 1.390 . S
C912 C911 1.390 . S
C912 C913 1.394 . S
C912 C918 1.465 . S
C913 C908 1.399 . S
C913 C912 1.394 . S
C913 C914 1.516 . S
C914 C913 1.516 . S
C914 C915 1.502 . S
C914 C916 1.561 . S
C914 C917 1.526 . S
C915 H899 0.959 . S
C915 H900 0.959 . S
C915 H901 0.961 . S
C915 C914 1.502 . S
C916 H902 0.960 . S
C916 H903 0.961 . S
C916 H904 0.959 . S
C916 C914 1.561 . S
C917 C914 1.526 . S
C917 C918 1.396 . S
C917 C922 1.390 . S
C918 C912 1.465 . S
C918 C917 1.396 . S
C918 C919 1.399 . S
C919 H905 0.929 . S
C919 C918 1.399 . S
C919 C920 1.385 . S
C920 H906 0.931 . S
C920 C919 1.385 . S
C920 C921 1.389 . S
C921 C920 1.389 . S
C921 C922 1.387 . S
C922 H907 0.930 . S
C922 C917 1.390 . S
C922 C921 1.387 . S
H923 C935 0.930 . S
H924 C937 0.930 . S
H925 C938 0.930 . S
H926 C942 0.959 . S
H927 C942 0.959 . S
H928 C942 0.961 . S
H929 C943 0.960 . S
H930 C943 0.961 . S
H931 C943 0.959 . S
H932 C946 0.929 . S
H933 C947 0.931 . S
H934 C949 0.930 . S
C935 H923 0.930 . S
C935 C936 1.399 . S
C935 C940 1.399 . S
C936 C935 1.399 . S
C936 C937 1.376 . S
C937 H924 0.930 . S
C937 C936 1.376 . S
C937 C938 1.388 . S
C938 H925 0.930 . S
C938 C937 1.388 . S
C938 C939 1.390 . S
C939 C938 1.390 . S
C939 C940 1.394 . S
C939 C945 1.465 . S
C940 C935 1.399 . S
C940 C939 1.394 . S
C940 C941 1.516 . S
C941 C940 1.516 . S
C941 C942 1.502 . S
C941 C943 1.561 . S
C941 C944 1.526 . S
C942 H926 0.959 . S
C942 H927 0.959 . S
C942 H928 0.961 . S
C942 C941 1.502 . S
C943 H929 0.960 . S
C943 H930 0.961 . S
C943 H931 0.959 . S
C943 C941 1.561 . S
C944 C941 1.526 . S
C944 C945 1.396 . S
C944 C949 1.390 . S
C945 C939 1.465 . S
C945 C944 1.396 . S
C945 C946 1.399 . S
C946 H932 0.929 . S
C946 C945 1.399 . S
C946 C947 1.385 . S
C947 H933 0.931 . S
C947 C946 1.385 . S
C947 C948 1.389 . S
C948 C947 1.389 . S
C948 C949 1.387 . S
C949 H934 0.930 . S
C949 C944 1.390 . S
C949 C948 1.387 . S
H950 C962 0.930 . S
H951 C964 0.930 . S
H952 C965 0.930 . S
H953 C969 0.959 . S
H954 C969 0.959 . S
H955 C969 0.961 . S
H956 C970 0.960 . S
H957 C970 0.961 . S
H958 C970 0.959 . S
H959 C973 0.929 . S
H960 C974 0.931 . S
H961 C976 0.930 . S
C962 H950 0.930 . S
C962 C963 1.399 . S
C962 C967 1.399 . S
C963 C962 1.399 . S
C963 C964 1.376 . S
C964 H951 0.930 . S
C964 C963 1.376 . S
C964 C965 1.388 . S
C965 H952 0.930 . S
C965 C964 1.388 . S
C965 C966 1.390 . S
C966 C965 1.390 . S
C966 C967 1.394 . S
C966 C972 1.465 . S
C967 C962 1.399 . S
C967 C966 1.394 . S
C967 C968 1.516 . S
C968 C967 1.516 . S
C968 C969 1.502 . S
C968 C970 1.561 . S
C968 C971 1.526 . S
C969 H953 0.959 . S
C969 H954 0.959 . S
C969 H955 0.961 . S
C969 C968 1.502 . S
C970 H956 0.960 . S
C970 H957 0.961 . S
C970 H958 0.959 . S
C970 C968 1.561 . S
C971 C968 1.526 . S
C971 C972 1.396 . S
C971 C976 1.390 . S
C972 C966 1.465 . S
C972 C971 1.396 . S
C972 C973 1.399 . S
C973 H959 0.929 . S
C973 C972 1.399 . S
C973 C974 1.385 . S
C974 H960 0.931 . S
C974 C973 1.385 . S
C974 C975 1.389 . S
C975 C974 1.389 . S
C975 C976 1.387 . S
C976 H961 0.930 . S
C976 C971 1.390 . S
C976 C975 1.387 . S
H977 C989 0.930 . S
H978 C991 0.930 . S
H979 C992 0.930 . S
H980 C996 0.959 . S
H981 C996 0.959 . S
H982 C996 0.961 . S
H983 C997 0.960 . S
H984 C997 0.961 . S
H985 C997 0.959 . S
H986 C1000 0.929 . S
H987 C1001 0.931 . S
H988 C1003 0.930 . S
C989 H977 0.930 . S
C989 C990 1.399 . S
C989 C994 1.399 . S
C990 C989 1.399 . S
C990 C991 1.376 . S
C991 H978 0.930 . S
C991 C990 1.376 . S
C991 C992 1.388 . S
C992 H979 0.930 . S
C992 C991 1.388 . S
C992 C993 1.390 . S
C993 C992 1.390 . S
C993 C994 1.394 . S
C993 C999 1.465 . S
C994 C989 1.399 . S
C994 C993 1.394 . S
C994 C995 1.516 . S
C995 C994 1.516 . S
C995 C996 1.502 . S
C995 C997 1.561 . S
C995 C998 1.526 . S
C996 H980 0.959 . S
C996 H981 0.959 . S
C996 H982 0.961 . S
C996 C995 1.502 . S
C997 H983 0.960 . S
C997 H984 0.961 . S
C997 H985 0.959 . S
C997 C995 1.561 . S
C998 C995 1.526 . S
C998 C999 1.396 . S
C998 C1003 1.390 . S
C999 C993 1.465 . S
C999 C998 1.396 . S
C999 C1000 1.399 . S
C1000 H986 0.929 . S
C1000 C999 1.399 . S
C1000 C1001 1.385 . S
C1001 H987 0.931 . S
C1001 C1000 1.385 . S
C1001 C1002 1.389 . S
C1002 C1001 1.389 . S
C1002 C1003 1.387 . S
C1003 H988 0.930 . S
C1003 C998 1.390 . S
C1003 C1002 1.387 . S
H1004 C1016 0.930 . S
H1005 C1018 0.930 . S
H1006 C1019 0.930 . S
H1007 C1023 0.959 . S
H1008 C1023 0.959 . S
H1009 C1023 0.961 . S
H1010 C1024 0.960 . S
H1011 C1024 0.961 . S
H1012 C1024 0.959 . S
H1013 C1027 0.929 . S
H1014 C1028 0.931 . S
H1015 C1030 0.930 . S
C1016 H1004 0.930 . S
C1016 C1017 1.399 . S
C1016 C1021 1.399 . S
C1017 C1016 1.399 . S
C1017 C1018 1.376 . S
C1018 H1005 0.930 . S
C1018 C1017 1.376 . S
C1018 C1019 1.388 . S
C1019 H1006 0.930 . S
C1019 C1018 1.388 . S
C1019 C1020 1.390 . S
C1020 C1019 1.390 . S
C1020 C1021 1.394 . S
C1020 C1026 1.465 . S
C1021 C1016 1.399 . S
C1021 C1020 1.394 . S
C1021 C1022 1.516 . S
C1022 C1021 1.516 . S
C1022 C1023 1.502 . S
C1022 C1024 1.561 . S
C1022 C1025 1.526 . S
C1023 H1007 0.959 . S
C1023 H1008 0.959 . S
C1023 H1009 0.961 . S
C1023 C1022 1.502 . S
C1024 H1010 0.960 . S
C1024 H1011 0.961 . S
C1024 H1012 0.959 . S
C1024 C1022 1.561 . S
C1025 C1022 1.526 . S
C1025 C1026 1.396 . S
C1025 C1030 1.390 . S
C1026 C1020 1.465 . S
C1026 C1025 1.396 . S
C1026 C1027 1.399 . S
C1027 H1013 0.929 . S
C1027 C1026 1.399 . S
C1027 C1028 1.385 . S
C1028 H1014 0.931 . S
C1028 C1027 1.385 . S
C1028 C1029 1.389 . S
C1029 C1028 1.389 . S
C1029 C1030 1.387 . S
C1030 H1015 0.930 . S
C1030 C1025 1.390 . S
C1030 C1029 1.387 . S
H1031 C1043 0.930 . S
H1032 C1045 0.930 . S
H1033 C1046 0.930 1_455 S
H1034 C1050 0.959 . S
H1035 C1050 0.959 . S
H1036 C1050 0.961 1_655 S
H1037 C1051 0.960 . S
H1038 C1051 0.961 . S
H1039 C1051 0.959 . S
H1040 C1054 0.929 . S
H1041 C1055 0.931 . S
H1042 C1057 0.930 1_565 S
C1043 H1031 0.930 . S
C1043 C1044 1.399 . S
C1043 C1048 1.399 . S
C1044 C1043 1.399 . S
C1044 C1045 1.376 1_565 S
C1045 H1032 0.930 . S
C1045 C1044 1.376 1_545 S
C1045 C1046 1.388 . S
C1046 H1033 0.930 1_655 S
C1046 C1045 1.388 . S
C1046 C1047 1.390 . S
C1047 C1046 1.390 . S
C1047 C1048 1.394 1_545 S
C1047 C1053 1.465 1_654 S
C1048 C1043 1.399 . S
C1048 C1047 1.394 1_565 S
C1048 C1049 1.516 1_554 S
C1049 C1048 1.516 1_556 S
C1049 C1050 1.502 1_655 S
C1049 C1051 1.561 . S
C1049 C1052 1.526 . S
C1050 H1034 0.959 . S
C1050 H1035 0.959 . S
C1050 H1036 0.961 1_455 S
C1050 C1049 1.502 1_455 S
C1051 H1037 0.960 . S
C1051 H1038 0.961 . S
C1051 H1039 0.959 . S
C1051 C1049 1.561 . S
C1052 C1049 1.526 . S
C1052 C1053 1.396 1_665 S
C1052 C1057 1.390 1_665 S
C1053 C1047 1.465 1_456 S
C1053 C1052 1.396 1_445 S
C1053 C1054 1.399 . S
C1054 H1040 0.929 . S
C1054 C1053 1.399 . S
C1054 C1055 1.385 . S
C1055 H1041 0.931 . S
C1055 C1054 1.385 . S
C1055 C1056 1.389 . S
C1056 C1055 1.389 . S
C1056 C1057 1.387 . S
C1057 H1042 0.930 1_545 S
C1057 C1052 1.390 1_445 S
C1057 C1056 1.387 . S
H1058 C1070 0.930 1_565 S
H1059 C1072 0.930 . S
H1060 C1073 0.930 . S
H1061 C1077 0.959 . S
H1062 C1077 0.959 . S
H1063 C1077 0.961 . S
H1064 C1078 0.960 . S
H1065 C1078 0.961 . S
H1066 C1078 0.959 1_655 S
H1067 C1081 0.929 . S
H1068 C1082 0.931 1_545 S
H1069 C1084 0.930 . S
C1070 H1058 0.930 1_545 S
C1070 C1071 1.399 1_455 S
C1070 C1075 1.399 1_545 S
C1071 C1070 1.399 1_655 S
C1071 C1072 1.376 . S
C1072 H1059 0.930 . S
C1072 C1071 1.376 . S
C1072 C1073 1.388 . S
C1073 H1060 0.930 . S
C1073 C1072 1.388 . S
C1073 C1074 1.390 . S
C1074 C1073 1.390 . S
C1074 C1075 1.394 1_645 S
C1074 C1080 1.465 . S
C1075 C1070 1.399 1_565 S
C1075 C1074 1.394 1_465 S
C1075 C1076 1.516 . S
C1076 C1075 1.516 . S
C1076 C1077 1.502 . S
C1076 C1078 1.561 . S
C1076 C1079 1.526 . S
C1077 H1061 0.959 . S
C1077 H1062 0.959 . S
C1077 H1063 0.961 . S
C1077 C1076 1.502 . S
C1078 H1064 0.960 . S
C1078 H1065 0.961 . S
C1078 H1066 0.959 1_455 S
C1078 C1076 1.561 . S
C1079 C1076 1.526 . S
C1079 C1080 1.396 1_465 S
C1079 C1084 1.390 . S
C1080 C1074 1.465 . S
C1080 C1079 1.396 1_645 S
C1080 C1081 1.399 . S
C1081 H1067 0.929 . S
C1081 C1080 1.399 . S
C1081 C1082 1.385 1_545 S
C1082 H1068 0.931 1_565 S
C1082 C1081 1.385 1_565 S
C1082 C1083 1.389 1_655 S
C1083 C1082 1.389 1_455 S
C1083 C1084 1.387 . S
C1084 H1069 0.930 . S
C1084 C1079 1.390 . S
C1084 C1083 1.387 . S
H1085 C1097 0.930 . S
H1086 C1099 0.930 . S
H1087 C1100 0.930 . S
H1088 C1104 0.959 . S
H1089 C1104 0.959 . S
H1090 C1104 0.961 . S
H1091 C1105 0.960 . S
H1092 C1105 0.961 1_556 S
H1093 C1105 0.959 1_556 S
H1094 C1108 0.929 . S
H1095 C1109 0.931 . S
H1096 C1111 0.930 . S
C1097 H1085 0.930 . S
C1097 C1098 1.399 . S
C1097 C1102 1.399 . S
C1098 C1097 1.399 . S
C1098 C1099 1.376 . S
C1099 H1086 0.930 . S
C1099 C1098 1.376 . S
C1099 C1100 1.388 . S
C1100 H1087 0.930 . S
C1100 C1099 1.388 . S
C1100 C1101 1.390 . S
C1101 C1100 1.390 . S
C1101 C1102 1.394 . S
C1101 C1107 1.465 1_554 S
C1102 C1097 1.399 . S
C1102 C1101 1.394 . S
C1102 C1103 1.516 . S
C1103 C1102 1.516 . S
C1103 C1104 1.502 . S
C1103 C1105 1.561 . S
C1103 C1106 1.526 1_554 S
C1104 H1088 0.959 . S
C1104 H1089 0.959 . S
C1104 H1090 0.961 . S
C1104 C1103 1.502 . S
C1105 H1091 0.960 . S
C1105 H1092 0.961 1_554 S
C1105 H1093 0.959 1_554 S
C1105 C1103 1.561 . S
C1106 C1103 1.526 1_556 S
C1106 C1107 1.396 . S
C1106 C1111 1.390 . S
C1107 C1101 1.465 1_556 S
C1107 C1106 1.396 . S
C1107 C1108 1.399 . S
C1108 H1094 0.929 . S
C1108 C1107 1.399 . S
C1108 C1109 1.385 . S
C1109 H1095 0.931 . S
C1109 C1108 1.385 . S
C1109 C1110 1.389 . S
C1110 C1109 1.389 . S
C1110 C1111 1.387 . S
C1111 H1096 0.930 . S
C1111 C1106 1.390 . S
C1111 C1110 1.387 . S
C261 C20 1.150 . S
C273 C1 1.086 . S
C288 C33 1.659 . S
C300 C60 1.617 . S
C315 C82 1.137 . S
C327 C63 1.096 . S
C342 C122 1.616 . S
C354 C95 1.659 . S
C369 C126 1.627 . S
C381 C153 1.661 . S
C396 C184 1.667 . S
C408 C157 1.612 . S
C423 C188 1.626 . S
C435 C215 1.661 . S
C450 C219 1.637 . S
C462 C246 1.624 . S
C477 C103 1.410 . S
C489 C0 1.332 . S
C504 C61 1.368 . S
C516 C81 1.431 . S
C531 C134 1.338 . S
C543 C247 1.280 . S
C558 C165 1.336 . S
C570 C196 1.284 . S
C585 C92 1.057 . S
C597 C2 1.060 . S
C612 C93 1.067 . S
C624 C51 0.985 . S
C639 C91 0.976 . S
C651 C10 1.158 . S
C666 C94 1.061 . S
C678 C50 1.053 . S
C693 C186 0.999 . S
C705 C125 0.955 . S
C720 C156 0.963 . S
C732 C236 1.025 . S
C747 C187 0.957 . S
C759 C124 0.999 . S
C774 C237 0.984 . S
C786 C155 1.026 . S
C801 C206 1.865 1_545 S
C813 C19 1.901 . S
C828 C41 1.695 . S
C840 C218 1.765 . S
C855 C144 1.857 . S
C867 C62 1.903 . S
C882 C175 1.791 1_545 S
C894 C123 1.725 . S
C909 C154 1.941 . S
C921 C64 1.970 1_565 S
C936 C113 1.806 . S
C948 C185 1.736 . S
C963 C29 2.009 . S
C975 C216 1.963 . S
C990 C227 1.748 . S
C1002 C32 1.776 1_565 S
C1017 C143 1.100 . S
C1029 C30 1.150 . S
C1044 C174 1.172 . S
C1056 C31 1.060 . S
C1071 C72 1.038 . S
C1083 C205 1.171 . S
C1098 C112 1.064 . S
C1110 C217 1.164 . S
