# Generated by pormake.
# Topology zfu, (5)-cn, num edge types: 1
# Building blocks:
#     Node 0, Type 0, BuildingBlock: XOMCOT_clean_sbu_1, # of connection points: 5
#     Node 1, Type 0, BuildingBlock: XOMCOT_clean_sbu_1, # of connection points: 5
#     Node 2, Type 0, BuildingBlock: XOMCOT_clean_sbu_1, # of connection points: 5
#     Node 3, Type 0, BuildingBlock: XOMCOT_clean_sbu_1, # of connection points: 5
#     Node 4, Type 0, BuildingBlock: XOMCOT_clean_sbu_1, # of connection points: 5
#     Node 5, Type 0, BuildingBlock: XOMCOT_clean_sbu_1, # of connection points: 5
#     Node 6, Type 0, BuildingBlock: XOMCOT_clean_sbu_1, # of connection points: 5
#     Node 7, Type 0, BuildingBlock: XOMCOT_clean_sbu_1, # of connection points: 5
#     Edge 8, Type (0, 0), BuildingBlock: MIFKUJ_clean_linker_0, # of connection points: 2
#     Edge 9, Type (0, 0), BuildingBlock: MIFKUJ_clean_linker_0, # of connection points: 2
#     Edge 10, Type (0, 0), BuildingBlock: MIFKUJ_clean_linker_0, # of connection points: 2
#     Edge 11, Type (0, 0), BuildingBlock: MIFKUJ_clean_linker_0, # of connection points: 2
#     Edge 12, Type (0, 0), BuildingBlock: MIFKUJ_clean_linker_0, # of connection points: 2
#     Edge 13, Type (0, 0), BuildingBlock: MIFKUJ_clean_linker_0, # of connection points: 2
#     Edge 14, Type (0, 0), BuildingBlock: MIFKUJ_clean_linker_0, # of connection points: 2
#     Edge 15, Type (0, 0), BuildingBlock: MIFKUJ_clean_linker_0, # of connection points: 2
#     Edge 16, Type (0, 0), BuildingBlock: MIFKUJ_clean_linker_0, # of connection points: 2
#     Edge 17, Type (0, 0), BuildingBlock: MIFKUJ_clean_linker_0, # of connection points: 2
#     Edge 18, Type (0, 0), BuildingBlock: MIFKUJ_clean_linker_0, # of connection points: 2
#     Edge 19, Type (0, 0), BuildingBlock: MIFKUJ_clean_linker_0, # of connection points: 2
#     Edge 20, Type (0, 0), BuildingBlock: MIFKUJ_clean_linker_0, # of connection points: 2
#     Edge 21, Type (0, 0), BuildingBlock: MIFKUJ_clean_linker_0, # of connection points: 2
#     Edge 22, Type (0, 0), BuildingBlock: MIFKUJ_clean_linker_0, # of connection points: 2
#     Edge 23, Type (0, 0), BuildingBlock: MIFKUJ_clean_linker_0, # of connection points: 2
#     Edge 24, Type (0, 0), BuildingBlock: MIFKUJ_clean_linker_0, # of connection points: 2
#     Edge 25, Type (0, 0), BuildingBlock: MIFKUJ_clean_linker_0, # of connection points: 2
#     Edge 26, Type (0, 0), BuildingBlock: MIFKUJ_clean_linker_0, # of connection points: 2
#     Edge 27, Type (0, 0), BuildingBlock: MIFKUJ_clean_linker_0, # of connection points: 2
# Relax obj value: 0.122
# Max RMSD: 0.159
# Mean RMSD: 0.159
data_MOF--net-zfu--node1-XOMCOT_clean_sbu_1--edge1-MIFKUJ_clean_linker_0
_symmetry_space_group_name_H-M    P1
_symmetry_Int_Tables_number       1
_symmetry_cell_setting            triclinic
loop_
_symmetry_equiv_pos_as_xyz
'x, y, z'
_cell_length_a     50.278846
_cell_length_b     50.281645
_cell_length_c     33.684375
_cell_angle_alpha  90.058219
_cell_angle_beta   89.980085
_cell_angle_gamma 90.100905
loop_
_atom_site_label
_atom_site_type_symbol
_atom_site_fract_x
_atom_site_fract_y
_atom_site_fract_z
_atom_type_partial_charge
C0 C 0.44084 0.70026 0.96824 0.0
C1 C 0.45756 0.67907 0.97364 0.0
N2 N 0.48134 0.68828 0.98616 0.0
N3 N 0.45384 0.72293 0.97699 0.0
C4 C 0.47861 0.71508 0.98768 0.0
H5 H 0.4203 0.69922 0.95885 0.0
Co6 Co 0.4367 0.7557 0.97482 0.0
C7 C 0.47507 0.79526 0.00431 0.0
O8 O 0.45527 0.80507 0.025 0.0
N9 N 0.418 0.78936 0.97155 0.0
C10 C 0.3907 0.82349 0.98342 0.0
C11 C 0.40247 0.80133 0.99919 0.0
C12 C 0.41537 0.80538 0.93922 0.0
N13 N 0.39848 0.82593 0.94543 0.0
O14 O 0.44062 0.75475 0.91817 0.0
H15 H 0.39981 0.79494 0.02946 0.0
H16 H 0.42483 0.80156 0.91099 0.0
O17 O 0.47101 0.77484 0.98226 0.0
C18 C 0.4181 0.74703 0.9048 0.0
O19 O 0.39801 0.74523 0.92964 0.0
N20 N 0.43014 0.75262 0.02935 0.0
C21 C 0.41346 0.73543 0.10402 0.0
C22 C 0.44012 0.74255 0.09749 0.0
C23 C 0.44819 0.7509 0.05961 0.0
C24 C 0.40455 0.74452 0.03504 0.0
C25 C 0.39562 0.73659 0.07222 0.0
H26 H 0.46905 0.75457 0.05433 0.0
H27 H 0.391 0.74394 0.01013 0.0
H28 H 0.49404 0.72861 0.99742 0.0
H29 H 0.45252 0.65843 0.96852 0.0
H30 H 0.37729 0.83671 0.99894 0.0
H31 H 0.45465 0.74101 0.12111 0.0
H32 H 0.37514 0.73023 0.07559 0.0
C33 C 0.82861 0.94417 0.22891 0.0
C34 C 0.85015 0.96064 0.23365 0.0
N35 N 0.84186 0.98606 0.23096 0.0
N36 N 0.80664 0.95893 0.22319 0.0
C37 C 0.81531 0.98446 0.22432 0.0
H38 H 0.82889 0.92267 0.22961 0.0
Co39 Co 0.77313 0.94335 0.21619 0.0
C40 C 0.73521 0.98317 0.24776 0.0
O41 O 0.72369 0.96395 0.26762 0.0
N42 N 0.73888 0.92627 0.20807 0.0
C43 C 0.70133 0.90319 0.21771 0.0
C44 C 0.72337 0.91391 0.23543 0.0
C45 C 0.72549 0.92209 0.17343 0.0
N46 N 0.70266 0.90818 0.17867 0.0
O47 O 0.7764 0.95029 0.16067 0.0
H48 H 0.72726 0.91281 0.26689 0.0
H49 H 0.73214 0.9291 0.14476 0.0
O50 O 0.75563 0.97812 0.22627 0.0
C51 C 0.78792 0.92929 0.14809 0.0
O52 O 0.79013 0.90898 0.17237 0.0
N53 N 0.77384 0.9339 0.26978 0.0
C54 C 0.79715 0.91386 0.3385 0.0
C55 C 0.79085 0.94101 0.33558 0.0
C56 C 0.77933 0.95077 0.30058 0.0
C57 C 0.77867 0.90735 0.2732 0.0
C58 C 0.78959 0.89685 0.30757 0.0
H59 H 0.77754 0.97202 0.29679 0.0
H60 H 0.77582 0.89445 0.24785 0.0
H61 H 0.80239 1.00149 0.22101 0.0
H62 H 0.87045 0.95424 0.23823 0.0
H63 H 0.68568 0.89211 0.23238 0.0
H64 H 0.79679 0.95487 0.35858 0.0
H65 H 0.79378 0.87574 0.30873 0.0
C66 C 0.58964 0.33066 0.49075 0.0
C67 C 0.57273 0.35185 0.49478 0.0
N68 N 0.54748 0.34271 0.49526 0.0
N69 N 0.57536 0.30806 0.48892 0.0
C70 C 0.54968 0.31594 0.49167 0.0
H71 H 0.61113 0.33155 0.48977 0.0
Co72 Co 0.59182 0.27511 0.48445 0.0
C73 C 0.55293 0.23585 0.51413 0.0
O74 O 0.57262 0.22502 0.53379 0.0
N75 N 0.6099 0.24125 0.4789 0.0
C76 C 0.63545 0.20565 0.48983 0.0
C77 C 0.62452 0.22799 0.50631 0.0
C78 C 0.61257 0.226 0.44567 0.0
N79 N 0.6281 0.20438 0.45157 0.0
O80 O 0.5865 0.27708 0.42835 0.0
H81 H 0.62697 0.2335 0.53703 0.0
H82 H 0.6034 0.23058 0.41748 0.0
O83 O 0.55734 0.25656 0.49293 0.0
C84 C 0.60842 0.28586 0.41435 0.0
O85 O 0.62899 0.28786 0.43822 0.0
N86 N 0.59952 0.27711 0.53868 0.0
C87 C 0.61702 0.29499 0.61259 0.0
C88 C 0.59012 0.28859 0.60651 0.0
C89 C 0.58166 0.27988 0.56901 0.0
C90 C 0.62548 0.28402 0.54404 0.0
C91 C 0.63479 0.29228 0.58086 0.0
H92 H 0.56063 0.27714 0.56384 0.0
H93 H 0.63895 0.28382 0.519 0.0
H94 H 0.53299 0.30235 0.49095 0.0
H95 H 0.57881 0.37238 0.49806 0.0
H96 H 0.6484 0.19171 0.50478 0.0
H97 H 0.57568 0.29122 0.63004 0.0
H98 H 0.65548 0.298 0.5838 0.0
C99 C 0.19729 0.08109 0.72044 0.0
C100 C 0.17538 0.06478 0.72363 0.0
N101 N 0.18364 0.03932 0.72205 0.0
N102 N 0.21929 0.06604 0.7166 0.0
C103 C 0.21033 0.04063 0.71771 0.0
H104 H 0.19725 0.10259 0.72124 0.0
Co105 Co 0.25384 0.07956 0.71145 0.0
C106 C 0.28623 0.03104 0.70245 0.0
O107 O 0.29674 0.04055 0.66968 0.0
N108 N 0.28893 0.09335 0.70633 0.0
C109 C 0.3313 0.10256 0.72009 0.0
C110 C 0.30895 0.08904 0.73227 0.0
C111 C 0.29982 0.10951 0.67842 0.0
N112 N 0.32556 0.11546 0.68617 0.0
O113 O 0.25102 0.07461 0.65526 0.0
H114 H 0.30741 0.07676 0.75852 0.0
H115 H 0.28916 0.11718 0.65311 0.0
O116 O 0.26855 0.04444 0.72079 0.0
C117 C 0.24069 0.09653 0.64395 0.0
O118 O 0.23777 0.11573 0.67009 0.0
N119 N 0.25397 0.08709 0.76547 0.0
C120 C 0.2362 0.10574 0.83844 0.0
C121 C 0.23874 0.07829 0.83162 0.0
C122 C 0.24767 0.06929 0.79459 0.0
C123 C 0.25369 0.1137 0.77278 0.0
C124 C 0.24515 0.12346 0.80924 0.0
H125 H 0.24707 0.04824 0.78821 0.0
H126 H 0.25806 0.12752 0.74906 0.0
H127 H 0.22304 0.02338 0.71512 0.0
H128 H 0.15501 0.07117 0.72762 0.0
H129 H 0.35045 0.10252 0.73478 0.0
H130 H 0.23186 0.06398 0.85334 0.0
H131 H 0.24393 0.14478 0.81357 0.0
C132 C 0.94434 0.82426 0.76877 0.0
C133 C 0.96067 0.84549 0.76094 0.0
N134 N 0.9861 0.83793 0.76665 0.0
N135 N 0.95918 0.8032 0.77953 0.0
C136 C 0.98461 0.81215 0.77824 0.0
H137 H 0.92289 0.8241 0.76647 0.0
Co138 Co 0.94371 0.7702 0.79128 0.0
C139 C 0.98577 0.7303 0.77728 0.0
O140 O 0.96739 0.71501 0.76175 0.0
N141 N 0.92644 0.73665 0.80409 0.0
C142 C 0.90137 0.69998 0.79958 0.0
C143 C 0.91434 0.71944 0.7788 0.0
C144 C 0.92039 0.72655 0.84055 0.0
N145 N 0.9049 0.70451 0.83849 0.0
O146 O 0.9456 0.77943 0.84653 0.0
H147 H 0.91488 0.7204 0.74681 0.0
H148 H 0.92617 0.73573 0.86828 0.0
O149 O 0.97936 0.75319 0.79103 0.0
C150 C 0.92325 0.79128 0.85041 0.0
O151 O 0.90578 0.78886 0.82159 0.0
N152 N 0.93896 0.76518 0.73676 0.0
C153 C 0.92567 0.78344 0.66143 0.0
C154 C 0.95208 0.77663 0.67031 0.0
C155 C 0.95843 0.76764 0.70859 0.0
C156 C 0.91306 0.76999 0.72736 0.0
C157 C 0.90592 0.77844 0.68971 0.0
H158 H 0.97914 0.76581 0.71661 0.0
H159 H 0.89802 0.76946 0.75026 0.0
H160 H 1.00168 0.79991 0.7849 0.0
H161 H 0.95414 0.86509 0.75205 0.0
H162 H 0.89004 0.68373 0.78692 0.0
H163 H 0.96791 0.78057 0.6493 0.0
H164 H 0.88528 0.78318 0.68386 0.0
C165 C 0.69825 0.45159 0.04442 0.0
C166 C 0.67577 0.46688 0.04028 0.0
N167 N 0.68212 0.49242 0.04824 0.0
N168 N 0.71878 0.46731 0.05495 0.0
C169 C 0.70835 0.49208 0.05717 0.0
H170 H 0.69973 0.43041 0.03928 0.0
Co171 Co 0.75364 0.45543 0.06217 0.0
C172 C 0.7831 0.50524 0.0778 0.0
O173 O 0.79252 0.49525 0.11096 0.0
N174 N 0.78907 0.44336 0.06931 0.0
C175 C 0.83251 0.43814 0.05947 0.0
C176 C 0.80993 0.45082 0.04664 0.0
C177 C 0.79962 0.42597 0.09575 0.0
N178 N 0.82607 0.4224 0.09038 0.0
O179 O 0.74845 0.45808 0.11841 0.0
H180 H 0.80883 0.46476 0.02227 0.0
H181 H 0.7882 0.41577 0.11823 0.0
O182 O 0.76687 0.49161 0.05693 0.0
C183 C 0.73876 0.43531 0.12706 0.0
O184 O 0.73724 0.4172 0.09897 0.0
N185 N 0.75639 0.45001 0.00765 0.0
C186 C 0.74495 0.43367 0.93054 0.0
C187 C 0.74476 0.46081 0.94058 0.0
C188 C 0.75058 0.46864 0.97952 0.0
C189 C 0.75822 0.42381 0.99787 0.0
C190 C 0.75282 0.41522 0.95942 0.0
H191 H 0.74823 0.48928 0.98772 0.0
H192 H 0.7619 0.40923 0.02081 0.0
H193 H 0.71976 0.50955 0.06508 0.0
H194 H 0.65643 0.45979 0.03091 0.0
H195 H 0.85226 0.44074 0.04727 0.0
H196 H 0.73881 0.47569 0.91912 0.0
H197 H 0.75276 0.39407 0.95334 0.0
C198 C 0.07946 0.19726 0.30633 0.0
C199 C 0.06198 0.17641 0.30322 0.0
N200 N 0.03771 0.18611 0.29426 0.0
N201 N 0.06651 0.22019 0.29945 0.0
C202 C 0.04104 0.21283 0.29202 0.0
H203 H 0.1005 0.19582 0.31257 0.0
Co204 Co 0.08452 0.2526 0.29982 0.0
C205 C 0.0477 0.29127 0.26452 0.0
O206 O 0.06824 0.29989 0.24427 0.0
N207 N 0.10421 0.28591 0.30117 0.0
C208 C 0.13256 0.31883 0.2869 0.0
C209 C 0.11985 0.29669 0.2726 0.0
C210 C 0.10787 0.30255 0.33264 0.0
N211 N 0.1254 0.32242 0.32499 0.0
O212 O 0.0798 0.25365 0.35628 0.0
H213 H 0.12197 0.28945 0.24263 0.0
H214 H 0.09868 0.29964 0.36131 0.0
O215 O 0.05081 0.27216 0.28929 0.0
C216 C 0.10199 0.24521 0.36981 0.0
O217 O 0.12188 0.24204 0.34496 0.0
N218 N 0.09182 0.2473 0.24596 0.0
C219 C 0.10816 0.22396 0.17494 0.0
C220 C 0.08187 0.23282 0.1796 0.0
C221 C 0.07389 0.24396 0.21583 0.0
C222 C 0.11729 0.23856 0.24177 0.0
C223 C 0.12604 0.22746 0.20636 0.0
H224 H 0.05305 0.24811 0.22034 0.0
H225 H 0.13079 0.23958 0.2667 0.0
H226 H 0.02532 0.2267 0.28495 0.0
H227 H 0.06702 0.1556 0.30621 0.0
H228 H 0.14616 0.33124 0.27027 0.0
H229 H 0.06728 0.2297 0.15641 0.0
H230 H 0.1465 0.22092 0.20409 0.0
C231 C 0.32955 0.57967 0.53356 0.0
C232 C 0.35203 0.56433 0.52982 0.0
N233 N 0.34614 0.53921 0.54099 0.0
N234 N 0.30943 0.56438 0.54681 0.0
C235 C 0.32013 0.53991 0.55135 0.0
H236 H 0.32778 0.60054 0.52631 0.0
Co237 Co 0.27457 0.57595 0.5547 0.0
C238 C 0.24544 0.5254 0.56673 0.0
O239 O 0.2357 0.53424 0.60044 0.0
N240 N 0.23922 0.58772 0.56255 0.0
C241 C 0.19563 0.59262 0.55404 0.0
C242 C 0.21825 0.58067 0.5398 0.0
C243 C 0.22878 0.60432 0.59021 0.0
N244 N 0.2022 0.60749 0.58584 0.0
O245 O 0.27957 0.57144 0.61065 0.0
H246 H 0.21933 0.56753 0.51439 0.0
H247 H 0.24023 0.61363 0.61353 0.0
O248 O 0.26155 0.53988 0.54698 0.0
C249 C 0.28999 0.59341 0.62168 0.0
O250 O 0.29244 0.61265 0.59556 0.0
N251 N 0.27187 0.58291 0.50053 0.0
C252 C 0.28356 0.60088 0.42435 0.0
C253 C 0.28325 0.57352 0.43284 0.0
C254 C 0.27734 0.56488 0.47133 0.0
C255 C 0.27039 0.60935 0.49221 0.0
C256 C 0.27595 0.61876 0.45424 0.0
H257 H 0.27941 0.54402 0.47831 0.0
H258 H 0.26691 0.62341 0.51598 0.0
H259 H 0.309 0.52296 0.56207 0.0
H260 H 0.37103 0.57114 0.51866 0.0
H261 H 0.17588 0.5907 0.54157 0.0
H262 H 0.28895 0.55907 0.41056 0.0
H263 H 0.27637 0.64004 0.4493 0.0
H264 H 0.62859 0.49277 0.05745 0.0
H265 H 0.59854 0.53018 0.0477 0.0
H266 H 0.66537 0.58153 0.02364 0.0
H267 H 0.69575 0.54393 0.03305 0.0
H268 H 0.62678 0.60643 0.07016 0.0
H269 H 0.63063 0.5591 0.94768 0.0
H270 H 0.62948 0.51968 0.90412 0.0
H271 H 0.54872 0.50422 0.93874 0.0
H272 H 0.54953 0.54332 0.98301 0.0
H273 H 0.53378 0.70263 0.98442 0.0
H274 H 0.57218 0.67357 0.99683 0.0
H275 H 0.51897 0.60864 0.02343 0.0
H276 H 0.48095 0.6373 0.01178 0.0
H277 H 0.55589 0.59448 0.96931 0.0
H278 H 0.55324 0.64178 0.09419 0.0
H279 H 0.5554 0.68108 0.13785 0.0
H280 H 0.63495 0.69721 0.09815 0.0
H281 H 0.633 0.65843 0.05333 0.0
C282 C 0.63699 0.51195 0.04997 0.0
C283 C 0.66463 0.51516 0.04553 0.0
C284 C 0.61975 0.53339 0.04456 0.0
C285 C 0.62965 0.5586 0.03432 0.0
C286 C 0.65728 0.56225 0.03145 0.0
C287 C 0.67462 0.54072 0.03691 0.0
C288 C 0.61083 0.58058 0.02504 0.0
C289 C 0.61153 0.60408 0.04765 0.0
C290 C 0.59088 0.57748 0.99576 0.0
C291 C 0.59022 0.55405 0.96889 0.0
C292 C 0.61269 0.54719 0.94622 0.0
C293 C 0.61209 0.52491 0.92137 0.0
C294 C 0.58906 0.50943 0.91872 0.0
C295 C 0.56656 0.51622 0.94084 0.0
C296 C 0.56706 0.53846 0.96579 0.0
C297 C 0.53031 0.68227 0.99342 0.0
C298 C 0.50419 0.67223 0.99638 0.0
C299 C 0.55228 0.66566 0.00046 0.0
C300 C 0.54847 0.63881 0.01076 0.0
C301 C 0.52245 0.62915 0.01502 0.0
C302 C 0.50066 0.64561 0.00811 0.0
C303 C 0.57114 0.62003 0.01537 0.0
C304 C 0.57127 0.59708 0.99157 0.0
C305 C 0.59185 0.62383 0.04337 0.0
C306 C 0.59282 0.6474 0.0699 0.0
C307 C 0.57106 0.65391 0.09429 0.0
C308 C 0.57227 0.67607 0.11934 0.0
C309 C 0.59528 0.69166 0.12072 0.0
C310 C 0.61714 0.68511 0.09707 0.0
C311 C 0.61595 0.6631 0.07171 0.0
H312 H 0.59618 0.7088 0.14013 0.0
H313 H 0.58863 0.49218 0.89946 0.0
H314 H 0.02648 0.13746 0.32418 0.0
H315 H 0.98944 0.10859 0.30671 0.0
H316 H 0.957 0.1699 0.23175 0.0
H317 H 0.99475 0.19904 0.24847 0.0
H318 H 0.91781 0.14062 0.2797 0.0
H319 H 0.9866 0.12417 0.18551 0.0
H320 H 0.03251 0.11592 0.16287 0.0
H321 H 0.03469 0.04346 0.23012 0.0
H322 H 0.98892 0.05146 0.25361 0.0
H323 H 0.8331 0.03552 0.20023 0.0
H324 H 0.86268 0.07434 0.20507 0.0
H325 H 0.91757 0.02856 0.27557 0.0
H326 H 0.88826 0.99019 0.27136 0.0
H327 H 0.94309 0.05495 0.21697 0.0
H328 H 0.87619 0.07422 0.31637 0.0
H329 H 0.83016 0.0818 0.3384 0.0
H330 H 0.82416 0.14917 0.26063 0.0
H331 H 0.87008 0.14153 0.23736 0.0
C332 C 1.01163 0.14491 0.30383 0.0
C333 C 1.014 0.17045 0.28712 0.0
C334 C 0.99031 0.12838 0.29406 0.0
C335 C 0.97067 0.1369 0.26745 0.0
C336 C 0.97202 0.16289 0.25224 0.0
C337 C 0.99358 0.17953 0.2619 0.0
C338 C 0.94981 0.11775 0.25447 0.0
C339 C 0.92318 0.12213 0.26517 0.0
C340 C 0.95685 0.09354 0.23578 0.0
C341 C 0.98436 0.08851 0.22152 0.0
C342 C 0.99693 0.10657 0.1957 0.0
C343 C 0.02292 0.10193 0.18267 0.0
C344 C 0.03652 0.07921 0.1951 0.0
C345 C 0.02413 0.06106 0.22051 0.0
C346 C 0.99815 0.06561 0.23365 0.0
C347 C 0.85133 0.03383 0.21707 0.0
C348 C 0.85835 1.00954 0.23502 0.0
C349 C 0.86828 0.05602 0.21971 0.0
C350 C 0.89247 0.05436 0.24054 0.0
C351 C 0.89922 0.03029 0.25892 0.0
C352 C 0.88239 1.00825 0.25635 0.0
C353 C 0.91117 0.07733 0.24341 0.0
C354 C 0.93752 0.07365 0.23075 0.0
C355 C 0.90379 0.10212 0.26014 0.0
C356 C 0.87644 0.1071 0.27475 0.0
C357 C 0.86499 0.09053 0.30373 0.0
C358 C 0.83891 0.09486 0.31647 0.0
C359 C 0.82418 0.11595 0.30089 0.0
C360 C 0.83556 0.1328 0.27261 0.0
C361 C 0.86162 0.12847 0.2596 0.0
H362 H 0.80397 0.11926 0.31076 0.0
H363 H 0.05664 0.07565 0.185 0.0
H364 H 0.54225 0.3956 0.48096 0.0
H365 H 0.50372 0.42333 0.49383 0.0
H366 H 0.45897 0.35453 0.53078 0.0
H367 H 0.4981 0.32634 0.51951 0.0
H368 H 0.43256 0.39546 0.47379 0.0
H369 H 0.47457 0.38651 0.60101 0.0
H370 H 0.51289 0.38579 0.64664 0.0
H371 H 0.53065 0.46705 0.6177 0.0
H372 H 0.49268 0.46812 0.57136 0.0
H373 H 0.3325 0.48657 0.54035 0.0
H374 H 0.36256 0.44853 0.53757 0.0
H375 H 0.42991 0.50176 0.53552 0.0
H376 H 0.40022 0.5397 0.54043 0.0
H377 H 0.44068 0.46215 0.58184 0.0
H378 H 0.40365 0.47019 0.44981 0.0
H379 H 0.36736 0.47193 0.40063 0.0
H380 H 0.34172 0.39383 0.43533 0.0
H381 H 0.3777 0.39177 0.48508 0.0
C382 C 0.52444 0.38616 0.49218 0.0
C383 C 0.52366 0.35862 0.4998 0.0
C384 C 0.50228 0.40212 0.49919 0.0
C385 C 0.47859 0.39103 0.51349 0.0
C386 C 0.47713 0.36345 0.51967 0.0
C387 C 0.49953 0.34737 0.51311 0.0
C388 C 0.45605 0.40889 0.52328 0.0
C389 C 0.43392 0.40966 0.49798 0.0
C390 C 0.45822 0.42775 0.55427 0.0
C391 C 0.48088 0.42732 0.58249 0.0
C392 C 0.48677 0.40416 0.60413 0.0
C393 C 0.50841 0.4037 0.63016 0.0
C394 C 0.52422 0.42634 0.63501 0.0
C395 C 0.51839 0.44952 0.6139 0.0
C396 C 0.49679 0.45007 0.58778 0.0
C397 C 0.35369 0.49027 0.53987 0.0
C398 C 0.36377 0.51645 0.54036 0.0
C399 C 0.3709 0.4684 0.53783 0.0
C400 C 0.39857 0.47218 0.53571 0.0
C401 C 0.40866 0.49822 0.53698 0.0
C402 C 0.39155 0.52003 0.53937 0.0
C403 C 0.41726 0.4493 0.53176 0.0
C404 C 0.43884 0.44765 0.55813 0.0
C405 C 0.41465 0.42981 0.5015 0.0
C406 C 0.39315 0.43096 0.47146 0.0
C407 C 0.39015 0.45347 0.44713 0.0
C408 C 0.36966 0.4545 0.41914 0.0
C409 C 0.35219 0.43304 0.41495 0.0
C410 C 0.35523 0.41046 0.43867 0.0
C411 C 0.37568 0.40935 0.46675 0.0
H412 H 0.33633 0.43388 0.39327 0.0
H413 H 0.54097 0.42595 0.65518 0.0
H414 H 0.03518 0.83188 0.80014 0.0
H415 H 0.07384 0.86115 0.79173 0.0
H416 H 0.02851 0.91071 0.71228 0.0
H417 H 0.99056 0.88118 0.71907 0.0
H418 H 0.07632 0.90531 0.68416 0.0
H419 H 0.03926 0.92635 0.81312 0.0
H420 H 0.02496 0.91642 0.88158 0.0
H421 H 0.10415 0.89137 0.91093 0.0
H422 H 0.11884 0.90085 0.84245 0.0
H423 H 0.13328 0.03336 0.69545 0.0
H424 H 0.10471 0.99423 0.70247 0.0
H425 H 0.16783 0.95283 0.76292 0.0
H426 H 0.19663 0.99212 0.75589 0.0
H427 H 0.11742 0.94888 0.80128 0.0
H428 H 0.15511 0.93436 0.67307 0.0
H429 H 0.16847 0.94628 0.60494 0.0
H430 H 0.08689 0.96076 0.57432 0.0
H431 H 0.07305 0.94931 0.64246 0.0
C432 C 0.03356 0.84882 0.78053 0.0
C433 C 1.0095 0.85428 0.76075 0.0
C434 C 0.05563 0.86571 0.77601 0.0
C435 C 0.05405 0.88846 0.75181 0.0
C436 C 0.03031 0.89342 0.73125 0.0
C437 C 1.00841 0.87658 0.73557 0.0
C438 C 0.07664 0.90759 0.74804 0.0
C439 C 0.08518 0.91489 0.70983 0.0
C440 C 0.08886 0.91967 0.78145 0.0
C441 C 0.08006 0.91398 0.82257 0.0
C442 C 0.05356 0.91852 0.8341 0.0
C443 C 0.0454 0.91301 0.87291 0.0
C444 C 0.06361 0.90319 0.90055 0.0
C445 C 0.09005 0.89892 0.88946 0.0
C446 C 0.09831 0.90436 0.85066 0.0
C447 C 0.14108 0.01595 0.71027 0.0
C448 C 0.16721 0.01583 0.7251 0.0
C449 C 0.12479 0.99354 0.71406 0.0
C450 C 0.13417 0.97054 0.73303 0.0
C451 C 0.16022 0.97034 0.74809 0.0
C452 C 0.17669 0.9927 0.74381 0.0
C453 C 0.1164 0.94704 0.73746 0.0
C454 C 0.10882 0.93895 0.77571 0.0
C455 C 0.10487 0.93438 0.7041 0.0
C456 C 0.11307 0.94115 0.66299 0.0
C457 C 0.14003 0.94028 0.6519 0.0
C458 C 0.14769 0.94693 0.61326 0.0
C459 C 0.12855 0.95432 0.58534 0.0
C460 C 0.10169 0.95504 0.59598 0.0
C461 C 0.09393 0.94844 0.63461 0.0
H462 H 0.13451 0.95946 0.55543 0.0
H463 H 0.05725 0.89895 0.93059 0.0
H464 H 0.32835 0.58368 0.3863 0.0
H465 H 0.35144 0.60517 0.33109 0.0
H466 H 0.28914 0.66382 0.32374 0.0
H467 H 0.26555 0.64201 0.37834 0.0
H468 H 0.30645 0.64874 0.25048 0.0
H469 H 0.34557 0.677 0.37429 0.0
H470 H 0.36693 0.67004 0.43933 0.0
H471 H 0.4325 0.63076 0.38257 0.0
H472 H 0.41132 0.63714 0.31719 0.0
H473 H 0.36969 0.75023 0.14594 0.0
H474 H 0.34934 0.72667 0.2017 0.0
H475 H 0.41506 0.67162 0.20341 0.0
H476 H 0.43573 0.69549 0.1478 0.0
H477 H 0.39733 0.68276 0.2784 0.0
H478 H 0.35921 0.65561 0.15452 0.0
H479 H 0.33813 0.66255 0.08928 0.0
H480 H 0.27087 0.69907 0.14579 0.0
H481 H 0.29177 0.69274 0.21136 0.0
C482 C 0.31917 0.60071 0.37224 0.0
C483 C 0.29514 0.6112 0.3868 0.0
C484 C 0.33257 0.61316 0.34099 0.0
C485 C 0.32227 0.6364 0.32384 0.0
C486 C 0.29754 0.64602 0.33675 0.0
C487 C 0.28414 0.6336 0.36802 0.0
C488 C 0.33779 0.65144 0.29383 0.0
C489 C 0.32621 0.6564 0.25672 0.0
C490 C 0.36384 0.6609 0.30167 0.0
C491 C 0.37672 0.6573 0.3409 0.0
C492 C 0.36445 0.66671 0.3757 0.0
C493 C 0.37653 0.66289 0.41263 0.0
C494 C 0.40102 0.6499 0.41509 0.0
C495 C 0.41351 0.64078 0.38062 0.0
C496 C 0.40148 0.6445 0.34362 0.0
C497 C 0.38003 0.73341 0.15876 0.0
C498 C 0.40415 0.72452 0.14242 0.0
C499 C 0.36836 0.71991 0.19046 0.0
C500 C 0.38036 0.697 0.20603 0.0
C501 C 0.40538 0.68916 0.19165 0.0
C502 C 0.41722 0.70285 0.16003 0.0
C503 C 0.36584 0.68031 0.23524 0.0
C504 C 0.37762 0.675 0.27211 0.0
C505 C 0.33998 0.67043 0.22717 0.0
C506 C 0.32716 0.67389 0.18783 0.0
C507 C 0.34 0.66527 0.15302 0.0
C508 C 0.32808 0.66909 0.11598 0.0
C509 C 0.3032 0.68129 0.11338 0.0
C510 C 0.29016 0.68964 0.14784 0.0
C511 C 0.30202 0.68592 0.18496 0.0
H512 H 0.294 0.68424 0.08468 0.0
H513 H 0.41035 0.64696 0.44371 0.0
H514 H 0.79443 0.92446 0.41865 0.0
H515 H 0.822 0.90496 0.47136 0.0
H516 H 0.86603 0.86066 0.38357 0.0
H517 H 0.83909 0.88018 0.33116 0.0
H518 H 0.84881 0.82915 0.44384 0.0
H519 H 0.8944 0.91243 0.42846 0.0
H520 H 0.89814 0.96128 0.42528 0.0
H521 H 0.86981 0.96744 0.5452 0.0
H522 H 0.86553 0.91862 0.54891 0.0
H523 H 0.93971 0.77455 0.58343 0.0
H524 H 0.92419 0.79949 0.52501 0.0
H525 H 0.88041 0.85255 0.60166 0.0
H526 H 0.89641 0.8285 0.65946 0.0
H527 H 0.90137 0.87979 0.54306 0.0
H528 H 0.85058 0.79851 0.55652 0.0
H529 H 0.84465 0.7499 0.56095 0.0
H530 H 0.88042 0.7404 0.44603 0.0
H531 H 0.88686 0.78898 0.44117 0.0
C532 C 0.81017 0.91077 0.41068 0.0
C533 C 0.81423 0.90346 0.37087 0.0
C534 C 0.82589 0.89967 0.44072 0.0
C535 C 0.846 0.8813 0.43128 0.0
C536 C 0.85048 0.87458 0.39151 0.0
C537 C 0.83491 0.88565 0.36164 0.0
C538 C 0.86167 0.86805 0.46276 0.0
C539 C 0.86066 0.8402 0.46515 0.0
C540 C 0.87673 0.88251 0.49091 0.0
C541 C 0.87942 0.91187 0.48883 0.0
C542 C 0.88876 0.92421 0.45405 0.0
C543 C 0.89102 0.9519 0.45217 0.0
C544 C 0.88415 0.96746 0.48498 0.0
C545 C 0.87509 0.95536 0.51979 0.0
C546 C 0.87277 0.92768 0.52181 0.0
C547 C 0.92708 0.79176 0.58761 0.0
C548 C 0.91871 0.7992 0.6258 0.0
C549 C 0.91814 0.80591 0.55435 0.0
C550 C 0.90075 0.82761 0.55898 0.0
C551 C 0.89368 0.83584 0.59728 0.0
C552 C 0.90259 0.82185 0.63028 0.0
C553 C 0.88828 0.84089 0.52438 0.0
C554 C 0.8898 0.86874 0.52141 0.0
C555 C 0.87343 0.82647 0.49587 0.0
C556 C 0.86949 0.79731 0.49869 0.0
C557 C 0.85736 0.78603 0.53234 0.0
C558 C 0.85388 0.7585 0.5349 0.0
C559 C 0.86223 0.74206 0.50385 0.0
C560 C 0.87401 0.75315 0.4701 0.0
C561 C 0.87758 0.78067 0.46741 0.0
H562 H 0.85951 0.72075 0.50588 0.0
H563 H 0.88591 0.98889 0.48347 0.0
H564 H 0.7637 0.39368 0.88295 0.0
H565 H 0.74065 0.37245 0.82753 0.0
H566 H 0.67757 0.43022 0.83641 0.0
H567 H 0.70008 0.45099 0.89283 0.0
H568 H 0.65772 0.38123 0.83404 0.0
H569 H 0.72079 0.43017 0.75729 0.0
H570 H 0.76509 0.44659 0.73755 0.0
H571 H 0.7904 0.36663 0.71376 0.0
H572 H 0.74635 0.34968 0.73389 0.0
H573 H 0.59483 0.33607 0.65411 0.0
H574 H 0.61525 0.36128 0.70845 0.0
H575 H 0.68165 0.30702 0.70895 0.0
H576 H 0.66143 0.28196 0.65449 0.0
H577 H 0.69834 0.35725 0.70473 0.0
H578 H 0.63566 0.3084 0.78478 0.0
H579 H 0.59119 0.29226 0.80424 0.0
H580 H 0.56493 0.3727 0.82112 0.0
H581 H 0.60917 0.38933 0.80125 0.0
C582 C 0.74509 0.40208 0.87277 0.0
C583 C 0.73372 0.424 0.89236 0.0
C584 C 0.732 0.39002 0.84091 0.0
C585 C 0.70739 0.39978 0.8277 0.0
C586 C 0.69653 0.42234 0.84611 0.0
C587 C 0.7096 0.4344 0.87805 0.0
C588 C 0.69225 0.38532 0.79656 0.0
C589 C 0.66643 0.37639 0.80546 0.0
C590 C 0.70379 0.37851 0.75962 0.0
C591 C 0.73032 0.38864 0.74742 0.0
C592 C 0.73586 0.41606 0.74814 0.0
C593 C 0.76092 0.42547 0.73683 0.0
C594 C 0.78056 0.40766 0.72449 0.0
C595 C 0.77517 0.3804 0.72335 0.0
C596 C 0.75015 0.37089 0.73467 0.0
C597 C 0.61341 0.32913 0.6666 0.0
C598 C 0.62659 0.3071 0.65009 0.0
C599 C 0.62512 0.3436 0.69752 0.0
C600 C 0.65004 0.33608 0.71269 0.0
C601 C 0.66253 0.31331 0.6975 0.0
C602 C 0.65093 0.29895 0.66654 0.0
C603 C 0.66401 0.35281 0.74247 0.0
C604 C 0.68959 0.36222 0.73323 0.0
C605 C 0.65221 0.36009 0.77902 0.0
C606 C 0.62564 0.35011 0.79112 0.0
C607 C 0.62034 0.32265 0.79233 0.0
C608 C 0.59519 0.31341 0.8035 0.0
C609 C 0.57522 0.33144 0.8138 0.0
C610 C 0.5804 0.35875 0.81308 0.0
C611 C 0.60551 0.3681 0.8019 0.0
H612 H 0.55576 0.32425 0.82244 0.0
H613 H 0.79995 0.41499 0.71574 0.0
H614 H 0.19805 0.14388 0.83843 0.0
H615 H 0.17351 0.16174 0.89475 0.0
H616 H 0.21505 0.1084 0.97338 0.0
H617 H 0.23988 0.09022 0.91661 0.0
H618 H 0.16135 0.11166 0.99044 0.0
H619 H 0.23377 0.17243 0.96794 0.0
H620 H 0.26228 0.20202 0.92793 0.0
H621 H 0.19481 0.25081 0.90019 0.0
H622 H 0.1658 0.22128 0.93959 0.0
H623 H 0.13772 0.17873 0.17135 0.0
H624 H 0.15571 0.15699 0.11259 0.0
H625 H 0.1157 0.21396 0.03789 0.0
H626 H 0.09822 0.23649 0.0971 0.0
H627 H 0.16689 0.20857 0.0174 0.0
H628 H 0.09469 0.14939 0.04305 0.0
H629 H 0.06623 0.12026 0.08387 0.0
H630 H 0.13258 0.06875 0.10608 0.0
H631 H 0.16158 0.09781 0.06593 0.0
C632 C 0.20224 0.13611 0.86775 0.0
C633 C 0.22134 0.11604 0.87324 0.0
C634 C 0.18807 0.14626 0.89987 0.0
C635 C 0.19278 0.13672 0.9383 0.0
C636 C 0.21123 0.11609 0.94391 0.0
C637 C 0.22541 0.10579 0.91157 0.0
C638 C 0.1788 0.14889 0.9725 0.0
C639 C 0.16279 0.13278 0.99672 0.0
C640 C 0.18012 0.17659 0.97988 0.0
C641 C 0.19758 0.1945 0.95642 0.0
C642 C 0.22497 0.18936 0.95307 0.0
C643 C 0.24123 0.20614 0.93054 0.0
C644 C 0.23035 0.22825 0.91145 0.0
C645 C 0.2032 0.23366 0.91495 0.0
C646 C 0.18685 0.21693 0.93741 0.0
C647 C 0.13274 0.18668 0.14242 0.0
C648 C 0.11684 0.20954 0.1388 0.0
C649 C 0.14278 0.17402 0.10883 0.0
C650 C 0.13688 0.18371 0.07084 0.0
C651 C 0.12043 0.20613 0.06699 0.0
C652 C 0.11035 0.21888 0.10073 0.0
C653 C 0.1494 0.17138 0.03551 0.0
C654 C 0.16524 0.18747 0.01106 0.0
C655 C 0.14786 0.14369 0.02798 0.0
C656 C 0.13037 0.12592 0.05169 0.0
C657 C 0.10327 0.13195 0.05684 0.0
C658 C 0.08703 0.11544 0.07985 0.0
C659 C 0.0976 0.0927 0.09762 0.0
C660 C 0.12442 0.08638 0.09232 0.0
C661 C 0.14076 0.10286 0.0694 0.0
H662 H 0.085 0.07995 0.11544 0.0
H663 H 0.24297 0.24121 0.89401 0.0
H664 H 0.27162 0.62619 0.67846 0.0
H665 H 0.29952 0.64854 0.72772 0.0
H666 H 0.36446 0.59603 0.699 0.0
H667 H 0.33624 0.57331 0.64995 0.0
H668 H 0.36353 0.61488 0.78197 0.0
H669 H 0.36208 0.64812 0.64796 0.0
H670 H 0.33941 0.66219 0.58659 0.0
H671 H 0.30008 0.72479 0.65038 0.0
H672 H 0.32213 0.71075 0.71233 0.0
H673 H 0.44971 0.71151 0.86525 0.0
H674 H 0.43437 0.68171 0.81198 0.0
H675 H 0.36104 0.72593 0.80439 0.0
H676 H 0.3765 0.7557 0.85658 0.0
H677 H 0.3735 0.70768 0.73375 0.0
H678 H 0.36951 0.6716 0.86793 0.0
H679 H 0.38985 0.65739 0.93109 0.0
H680 H 0.43799 0.60064 0.86862 0.0
H681 H 0.41821 0.61482 0.805 0.0
C682 C 0.29132 0.61842 0.68439 0.0
C683 C 0.30169 0.59779 0.66104 0.0
C684 C 0.30737 0.63138 0.71218 0.0
C685 C 0.33422 0.62427 0.71644 0.0
C686 C 0.3438 0.6018 0.69621 0.0
C687 C 0.3276 0.58866 0.66849 0.0
C688 C 0.35286 0.64291 0.73648 0.0
C689 C 0.36612 0.63502 0.77113 0.0
C690 C 0.35623 0.66922 0.7223 0.0
C691 C 0.34364 0.67828 0.68482 0.0
C692 C 0.34851 0.66481 0.64893 0.0
C693 C 0.33576 0.67277 0.61405 0.0
C694 C 0.3183 0.69436 0.61459 0.0
C695 C 0.31362 0.70808 0.65001 0.0
C696 C 0.32625 0.70014 0.68501 0.0
C697 C 0.43094 0.71558 0.85069 0.0
C698 C 0.41428 0.7359 0.86478 0.0
C699 C 0.42197 0.6983 0.82075 0.0
C700 C 0.39622 0.70114 0.80487 0.0
C701 C 0.38088 0.72316 0.81623 0.0
C702 C 0.38978 0.74028 0.84597 0.0
C703 C 0.38364 0.68002 0.7801 0.0
C704 C 0.37144 0.6874 0.74432 0.0
C705 C 0.38117 0.65335 0.79344 0.0
C706 C 0.39261 0.64445 0.83172 0.0
C707 C 0.38452 0.65617 0.86768 0.0
C708 C 0.39595 0.64814 0.90354 0.0
C709 C 0.41524 0.62817 0.90385 0.0
C710 C 0.42308 0.61614 0.86832 0.0
C711 C 0.41178 0.62416 0.83235 0.0
H712 H 0.42406 0.62196 0.93164 0.0
H713 H 0.30842 0.70047 0.58757 0.0
H714 H 0.841 0.93042 0.1473 0.0
H715 H 0.86938 0.91296 0.09513 0.0
H716 H 0.80154 0.90777 0.01684 0.0
H717 H 0.77273 0.9241 0.07055 0.0
H718 H 0.82397 0.86288 0.01824 0.0
H719 H 0.85881 0.95024 0.00049 0.0
H720 H 0.87803 0.99345 0.02002 0.0
H721 H 0.94687 0.95398 0.0668 0.0
H722 H 0.92791 0.91047 0.04803 0.0
H723 H 0.89062 0.8332 0.84443 0.0
H724 H 0.87468 0.86228 0.89657 0.0
H725 H 0.92594 0.8234 0.98096 0.0
H726 H 0.94224 0.7934 0.92795 0.0
H727 H 0.91511 0.88981 0.97812 0.0
H728 H 0.87618 0.80106 0.99339 0.0
H729 H 0.85708 0.76075 0.96295 0.0
H730 H 0.79391 0.80715 0.91262 0.0
H731 H 0.81324 0.84792 0.94161 0.0
C732 C 0.83236 0.92666 0.11838 0.0
C733 C 0.80482 0.92899 0.1126 0.0
C734 C 0.84864 0.91662 0.08844 0.0
C735 C 0.83777 0.90906 0.05175 0.0
C736 C 0.81045 0.91342 0.0449 0.0
C737 C 0.79402 0.92315 0.07526 0.0
C738 C 0.85409 0.89339 0.02312 0.0
C739 C 0.84378 0.86907 0.00937 0.0
C740 C 0.88029 0.9009 0.01196 0.0
C741 C 0.89181 0.92706 0.02315 0.0
C742 C 0.87796 0.95074 0.01521 0.0
C743 C 0.88882 0.9753 0.0261 0.0
C744 C 0.91362 0.97645 0.04473 0.0
C745 C 0.92765 0.95305 0.0524 0.0
C746 C 0.91686 0.92844 0.04159 0.0
C747 C 0.89882 0.8308 0.87395 0.0
C748 C 0.91727 0.81055 0.88234 0.0
C749 C 0.88982 0.84771 0.90361 0.0
C750 C 0.899 0.84487 0.94249 0.0
C751 C 0.91875 0.82587 0.95089 0.0
C752 C 0.92793 0.80873 0.9208 0.0
C753 C 0.88491 0.85963 0.97413 0.0
C754 C 0.89546 0.88373 0.98792 0.0
C755 C 0.85876 0.85225 0.98492 0.0
C756 C 0.84631 0.82757 0.96937 0.0
C757 C 0.85833 0.8027 0.9756 0.0
C758 C 0.84747 0.77977 0.95857 0.0
C759 C 0.8243 0.78139 0.93581 0.0
C760 C 0.81188 0.80593 0.93021 0.0
C761 C 0.8228 0.82896 0.94689 0.0
H762 H 0.81596 0.76363 0.92253 0.0
H763 H 0.922 0.99548 0.05314 0.0
H764 H 0.69813 0.45976 0.16663 0.0
H765 H 0.66931 0.4378 0.21588 0.0
H766 H 0.72387 0.37178 0.22086 0.0
H767 H 0.75232 0.39351 0.1719 0.0
H768 H 0.67311 0.35708 0.19826 0.0
H769 H 0.71541 0.41086 0.2999 0.0
H770 H 0.72872 0.45303 0.33164 0.0
H771 H 0.6468 0.47633 0.34044 0.0
H772 H 0.63302 0.4344 0.30822 0.0
H773 H 0.64515 0.27409 0.35921 0.0
H774 H 0.66009 0.30346 0.30612 0.0
H775 H 0.59446 0.35631 0.33001 0.0
H776 H 0.57943 0.32657 0.38353 0.0
H777 H 0.64164 0.38236 0.33256 0.0
H778 H 0.59882 0.32596 0.24005 0.0
H779 H 0.58507 0.28379 0.20878 0.0
H780 H 0.66651 0.26583 0.18157 0.0
H781 H 0.68083 0.30771 0.21318 0.0
C782 C 0.70455 0.44123 0.1799 0.0
C783 C 0.72756 0.42842 0.16602 0.0
C784 C 0.68794 0.42853 0.2076 0.0
C785 C 0.69428 0.40296 0.22159 0.0
C786 C 0.71847 0.39137 0.21021 0.0
C787 C 0.7349 0.40395 0.18266 0.0
C788 C 0.67478 0.38676 0.24436 0.0
C789 C 0.66633 0.36253 0.22775 0.0
C790 C 0.66492 0.39446 0.28194 0.0
C791 C 0.67321 0.41966 0.30117 0.0
C792 C 0.70025 0.42509 0.30821 0.0
C793 C 0.70788 0.44892 0.32639 0.0
C794 C 0.68863 0.46739 0.33791 0.0
C795 C 0.6617 0.46203 0.3314 0.0
C796 C 0.65397 0.43823 0.31321 0.0
C797 C 0.6332 0.2913 0.35181 0.0
C798 C 0.61088 0.29784 0.37477 0.0
C799 C 0.64182 0.30821 0.32161 0.0
C800 C 0.62841 0.33215 0.31396 0.0
C801 C 0.60506 0.33792 0.33528 0.0
C802 C 0.59623 0.32074 0.36536 0.0
C803 C 0.64084 0.35212 0.28712 0.0
C804 C 0.64793 0.3771 0.30277 0.0
C805 C 0.64938 0.3452 0.24846 0.0
C806 C 0.64091 0.31998 0.22919 0.0
C807 C 0.61383 0.31295 0.22764 0.0
C808 C 0.60593 0.28909 0.20981 0.0
C809 C 0.6249 0.27212 0.19324 0.0
C810 C 0.65183 0.279 0.1944 0.0
C811 C 0.65985 0.30283 0.21221 0.0
H812 H 0.61875 0.25366 0.17946 0.0
H813 H 0.69457 0.48583 0.352 0.0
H814 H 0.07461 0.20421 0.40315 0.0
H815 H 0.0942 0.17328 0.45138 0.0
H816 H 0.15892 0.22815 0.47081 0.0
H817 H 0.13945 0.25885 0.42284 0.0
H818 H 0.17406 0.17843 0.43882 0.0
H819 H 0.11951 0.21389 0.545 0.0
H820 H 0.07703 0.22532 0.57732 0.0
H821 H 0.05275 0.14346 0.57255 0.0
H822 H 0.09497 0.13159 0.53967 0.0
H823 H 0.25565 0.13439 0.59269 0.0
H824 H 0.22728 0.15415 0.54221 0.0
H825 H 0.17013 0.0909 0.55817 0.0
H826 H 0.19872 0.07126 0.60959 0.0
H827 H 0.14653 0.13744 0.56619 0.0
H828 H 0.20216 0.10044 0.46749 0.0
H829 H 0.24396 0.08781 0.43423 0.0
H830 H 0.26504 0.17015 0.42173 0.0
H831 H 0.22356 0.18331 0.45543 0.0
C832 C 0.0921 0.21032 0.41962 0.0
C833 C 0.10541 0.234 0.40973 0.0
C834 C 0.1035 0.19247 0.44672 0.0
C835 C 0.12825 0.19826 0.46415 0.0
C836 C 0.13993 0.22322 0.45747 0.0
C837 C 0.12859 0.24093 0.43051 0.0
C838 C 0.144 0.17727 0.48433 0.0
C839 C 0.16817 0.16959 0.46687 0.0
C840 C 0.13562 0.16475 0.51972 0.0
C841 C 0.11025 0.17191 0.53941 0.0
C842 C 0.105 0.19837 0.55045 0.0
C843 C 0.08099 0.20492 0.56897 0.0
C844 C 0.06216 0.18515 0.57686 0.0
C845 C 0.06733 0.15877 0.56635 0.0
C846 C 0.0913 0.15211 0.5478 0.0
C847 C 0.23771 0.12395 0.58388 0.0
C848 C 0.22964 0.101 0.60422 0.0
C849 C 0.22134 0.13535 0.55516 0.0
C850 C 0.19649 0.12404 0.54615 0.0
C851 C 0.18923 0.09996 0.56449 0.0
C852 C 0.20576 0.08846 0.59329 0.0
C853 C 0.17723 0.1393 0.52148 0.0
C854 C 0.15232 0.14587 0.53783 0.0
C855 C 0.18476 0.15062 0.48469 0.0
C856 C 0.20975 0.14285 0.4642 0.0
C857 C 0.21578 0.11586 0.45789 0.0
C858 C 0.23941 0.10861 0.43891 0.0
C859 C 0.25716 0.12816 0.42591 0.0
C860 C 0.25127 0.15503 0.4318 0.0
C861 C 0.22767 0.1624 0.45078 0.0
H862 H 0.27545 0.1225 0.41124 0.0
H863 H 0.04359 0.19026 0.59121 0.0
H864 H 0.35124 0.85189 0.94772 0.0
H865 H 0.33424 0.88403 0.90038 0.0
H866 H 0.40509 0.87528 0.82944 0.0
H867 H 0.42282 0.84338 0.87783 0.0
H868 H 0.39088 0.92732 0.83655 0.0
H869 H 0.34731 0.84694 0.79955 0.0
H870 H 0.3217 0.80566 0.80985 0.0
H871 H 0.25522 0.85104 0.85224 0.0
H872 H 0.28057 0.8926 0.84278 0.0
H873 H 0.33111 1.0034 0.68147 0.0
H874 H 0.35138 0.96588 0.71644 0.0
H875 H 0.28701 0.9663 0.80107 0.0
H876 H 0.26651 1.00358 0.76615 0.0
H877 H 0.30051 0.91581 0.7798 0.0
H878 H 0.34599 0.9955 0.82262 0.0
H879 H 0.37163 0.03679 0.81247 0.0
H880 H 0.43475 0.99218 0.75835 0.0
H881 H 0.40927 0.95064 0.76763 0.0
C882 C 0.36349 0.85691 0.9224 0.0
C883 C 0.38855 0.84501 0.91686 0.0
C884 C 0.35352 0.87514 0.89498 0.0
C885 C 0.36816 0.88186 0.86096 0.0
C886 C 0.39334 0.8703 0.85536 0.0
C887 C 0.40338 0.85193 0.88292 0.0
C888 C 0.35704 0.9012 0.83185 0.0
C889 C 0.37135 0.92454 0.82349 0.0
C890 C 0.33135 0.89784 0.81523 0.0
C891 C 0.31593 0.87289 0.82071 0.0
C892 C 0.32729 0.84812 0.81133 0.0
C893 C 0.31281 0.82467 0.81698 0.0
C894 C 0.28686 0.82573 0.83175 0.0
C895 C 0.27532 0.85025 0.84081 0.0
C896 C 0.28973 0.87377 0.83527 0.0
C897 C 0.32108 0.99532 0.70725 0.0
C898 C 0.29726 1.00667 0.72114 0.0
C899 C 0.33279 0.97394 0.72735 0.0
C900 C 0.32092 0.96347 0.76173 0.0
C901 C 0.2966 0.97407 0.77471 0.0
C902 C 0.28495 0.99549 0.75475 0.0
C903 C 0.33415 0.94209 0.78511 0.0
C904 C 0.32019 0.9184 0.79242 0.0
C905 C 0.36017 0.9451 0.80067 0.0
C906 C 0.37559 0.97002 0.7954 0.0
C907 C 0.36524 0.99453 0.80827 0.0
C908 C 0.37976 0.01797 0.80272 0.0
C909 C 0.40477 0.01712 0.78467 0.0
C910 C 0.41535 0.99281 0.77225 0.0
C911 C 0.40089 0.96931 0.77766 0.0
H912 H 0.41599 0.03529 0.7804 0.0
H913 H 0.27569 0.80755 0.83611 0.0
H914 H 0.52276 0.78298 0.9668 0.0
H915 H 0.56672 0.80291 0.98001 0.0
H916 H 0.53177 0.85278 0.0703 0.0
H917 H 0.48849 0.83402 0.05656 0.0
H918 H 0.56471 0.88109 0.02906 0.0
H919 H 0.56757 0.79182 0.08932 0.0
H920 H 0.56455 0.74303 0.08208 0.0
H921 H 0.62952 0.74418 0.99935 0.0
H922 H 0.63271 0.79301 0.00577 0.0
H923 H 0.64955 0.90838 0.18696 0.0
H924 H 0.61659 0.88958 0.14164 0.0
H925 H 0.67891 0.86839 0.05959 0.0
H926 H 0.71224 0.88763 0.1053 0.0
H927 H 0.63975 0.82587 0.07709 0.0
H928 H 0.64249 0.91524 0.03049 0.0
H929 H 0.64353 0.9641 0.03662 0.0
H930 H 0.56702 0.9629 0.09326 0.0
H931 H 0.56569 0.91399 0.08803 0.0
C932 C 0.52454 0.79833 0.98924 0.0
C933 C 0.50201 0.80685 0.01054 0.0
C934 C 0.54968 0.80964 0.9969 0.0
C935 C 0.55271 0.82934 0.02639 0.0
C936 C 0.53012 0.83783 0.04722 0.0
C937 C 0.50522 0.82688 0.03936 0.0
C938 C 0.57905 0.84111 0.0372 0.0
C939 C 0.58112 0.86896 0.03943 0.0
C940 C 0.60099 0.82546 0.04944 0.0
C941 C 0.60019 0.79603 0.04769 0.0
C942 C 0.58122 0.78163 0.06964 0.0
C943 C 0.57944 0.754 0.06561 0.0
C944 C 0.5967 0.74056 0.04003 0.0
C945 C 0.61609 0.75465 0.01899 0.0
C946 C 0.61791 0.78229 0.02284 0.0
C947 C 0.65622 0.89992 0.15912 0.0
C948 C 0.68342 0.89951 0.14961 0.0
C949 C 0.63739 0.88918 0.13323 0.0
C950 C 0.64525 0.87753 0.09722 0.0
C951 C 0.67242 0.87724 0.08725 0.0
C952 C 0.69137 0.88844 0.1131 0.0
C953 C 0.62459 0.86572 0.07083 0.0
C954 C 0.62362 0.83797 0.06572 0.0
C955 C 0.6035 0.88143 0.05609 0.0
C956 C 0.60405 0.91091 0.05898 0.0
C957 C 0.62596 0.92537 0.04447 0.0
C958 C 0.62659 0.95308 0.04776 0.0
C959 C 0.60537 0.96659 0.06535 0.0
C960 C 0.58344 0.95241 0.07962 0.0
C961 C 0.58272 0.92469 0.07643 0.0
H962 H 0.6059 0.98804 0.06789 0.0
H963 H 0.59502 0.71924 0.03643 0.0
H964 H 0.76301 0.03064 0.24693 0.0
H965 H 0.74648 0.07418 0.26966 0.0
H966 H 0.66836 0.04034 0.28639 0.0
H967 H 0.68462 0.99736 0.26383 0.0
H968 H 0.66404 0.09023 0.25973 0.0
H969 H 0.71455 0.04248 0.35925 0.0
H970 H 0.75448 0.02199 0.38855 0.0
H971 H 0.79479 0.09731 0.38541 0.0
H972 H 0.75552 0.118 0.35446 0.0
H973 H 0.63929 0.15291 0.46662 0.0
H974 H 0.65871 0.1205 0.42136 0.0
H975 H 0.65666 0.17817 0.3267 0.0
H976 H 0.6371 0.21096 0.37238 0.0
H977 H 0.70529 0.12205 0.38477 0.0
H978 H 0.65152 0.14221 0.23748 0.0
H979 H 0.6088 0.15994 0.21305 0.0
H980 H 0.57039 0.13539 0.32086 0.0
H981 H 0.61278 0.11725 0.34569 0.0
C982 C 0.74219 0.03277 0.25447 0.0
C983 C 0.72515 1.01056 0.25393 0.0
C984 C 0.73277 0.05759 0.26765 0.0
C985 C 0.70618 0.06052 0.28018 0.0
C986 C 0.68889 0.03871 0.27691 0.0
C987 C 0.69828 1.01405 0.26419 0.0
C988 C 0.69658 0.08503 0.3006 0.0
C989 C 0.67333 0.09748 0.28673 0.0
C990 C 0.7084 0.09436 0.33618 0.0
C991 C 0.73226 0.08168 0.35379 0.0
C992 C 0.7321 0.05457 0.36411 0.0
C993 C 0.75463 0.04291 0.381 0.0
C994 C 0.77726 0.05828 0.38848 0.0
C995 C 0.77738 0.08534 0.37915 0.0
C996 C 0.75504 0.09702 0.36176 0.0
C997 C 0.64292 0.15875 0.43618 0.0
C998 C 0.63683 0.18461 0.42324 0.0
C999 C 0.65406 0.14018 0.41028 0.0
C1000 C 0.65939 0.14686 0.37063 0.0
C1001 C 0.65263 0.17245 0.35711 0.0
C1002 C 0.64134 0.19115 0.38317 0.0
C1003 C 0.6725 0.12691 0.34432 0.0
C1004 C 0.69642 0.11534 0.35714 0.0
C1005 C 0.66102 0.11807 0.30827 0.0
C1006 C 0.63539 0.12872 0.2936 0.0
C1007 C 0.63394 0.14058 0.25592 0.0
C1008 C 0.60979 0.15069 0.24201 0.0
C1009 C 0.58692 0.14889 0.26546 0.0
C1010 C 0.58814 0.13688 0.30281 0.0
C1011 C 0.61223 0.12672 0.31683 0.0
H1012 H 0.56825 0.15674 0.25465 0.0
H1013 H 0.79465 0.04926 0.40174 0.0
H1014 H 0.50416 0.25768 0.4937 0.0
H1015 H 0.45984 0.24045 0.51148 0.0
H1016 H 0.49645 0.17296 0.56841 0.0
H1017 H 0.54003 0.1894 0.55004 0.0
H1018 H 0.45419 0.15682 0.53113 0.0
H1019 H 0.47563 0.23111 0.62011 0.0
H1020 H 0.48649 0.2783 0.63231 0.0
H1021 H 0.41346 0.30186 0.57654 0.0
H1022 H 0.40233 0.25478 0.56365 0.0
H1023 H 0.36617 0.14568 0.71371 0.0
H1024 H 0.39899 0.17019 0.67454 0.0
H1025 H 0.35871 0.14703 0.56691 0.0
H1026 H 0.32582 0.12225 0.60611 0.0
H1027 H 0.39736 0.21156 0.61954 0.0
H1028 H 0.4086 0.13154 0.49943 0.0
H1029 H 0.40078 0.08346 0.48987 0.0
H1030 H 0.41252 0.0701 0.61454 0.0
H1031 H 0.42076 0.118 0.62468 0.0
C1032 C 0.50264 0.23899 0.50947 0.0
C1033 C 0.52571 0.22508 0.52071 0.0
C1034 C 0.47732 0.22922 0.51983 0.0
C1035 C 0.47472 0.20549 0.54176 0.0
C1036 C 0.49775 0.19124 0.55149 0.0
C1037 C 0.52281 0.20084 0.54111 0.0
C1038 C 0.44854 0.19567 0.55686 0.0
C1039 C 0.44156 0.16898 0.54992 0.0
C1040 C 0.43199 0.21133 0.58164 0.0
C1041 C 0.43827 0.23949 0.59062 0.0
C1042 C 0.46193 0.24637 0.61041 0.0
C1043 C 0.46814 0.27309 0.61741 0.0
C1044 C 0.45071 0.29307 0.6051 0.0
C1045 C 0.42696 0.28636 0.58599 0.0
C1046 C 0.42067 0.25968 0.57887 0.0
C1047 C 0.36421 0.14588 0.68172 0.0
C1048 C 0.34353 0.13174 0.66304 0.0
C1049 C 0.38284 0.16016 0.65936 0.0
C1050 C 0.38143 0.1604 0.61775 0.0
C1051 C 0.36026 0.14709 0.59898 0.0
C1052 C 0.34143 0.13298 0.62141 0.0
C1053 C 0.40345 0.17264 0.59434 0.0
C1054 C 0.4096 0.19968 0.59982 0.0
C1055 C 0.41953 0.15723 0.56865 0.0
C1056 C 0.41492 0.12836 0.56284 0.0
C1057 C 0.40955 0.11831 0.52475 0.0
C1058 C 0.40506 0.0911 0.51924 0.0
C1059 C 0.40604 0.07375 0.5516 0.0
C1060 C 0.41165 0.08356 0.58952 0.0
C1061 C 0.4162 0.11074 0.59517 0.0
H1062 H 0.40253 0.05271 0.54728 0.0
H1063 H 0.4556 0.31375 0.61041 0.0
H1064 H 0.85621 0.68199 0.83768 0.0
H1065 H 0.8366 0.65315 0.88782 0.0
H1066 H 0.90563 0.66401 0.96212 0.0
H1067 H 0.92564 0.69299 0.91113 0.0
H1068 H 0.89189 0.61144 0.95544 0.0
H1069 H 0.84575 0.69039 0.99455 0.0
H1070 H 0.81949 0.73141 0.9868 0.0
H1071 H 0.75714 0.68719 0.92982 0.0
H1072 H 0.78279 0.64575 0.93807 0.0
H1073 H 0.82679 0.53312 0.1036 0.0
H1074 H 0.84816 0.57124 0.07147 0.0
H1075 H 0.78704 0.57151 0.9817 0.0
H1076 H 0.76543 0.53365 0.0138 0.0
H1077 H 0.79954 0.62172 0.00509 0.0
H1078 H 0.8469 0.54283 0.96454 0.0
H1079 H 0.87223 0.50161 0.97609 0.0
H1080 H 0.93311 0.54613 0.0361 0.0
H1081 H 0.90791 0.58761 0.02545 0.0
C1082 C 0.86723 0.67837 0.86474 0.0
C1083 C 0.8926 0.6896 0.87027 0.0
C1084 C 0.85585 0.66205 0.89364 0.0
C1085 C 0.86947 0.6565 0.92902 0.0
C1086 C 0.89466 0.66807 0.93513 0.0
C1087 C 0.90603 0.68472 0.90615 0.0
C1088 C 0.85779 0.63727 0.95793 0.0
C1089 C 0.87194 0.614 0.9671 0.0
C1090 C 0.83154 0.64019 0.97253 0.0
C1091 C 0.81627 0.66505 0.96663 0.0
C1092 C 0.82653 0.68946 0.9801 0.0
C1093 C 0.81172 0.71277 0.97572 0.0
C1094 C 0.78679 0.71198 0.95745 0.0
C1095 C 0.77648 0.6878 0.94387 0.0
C1096 C 0.79106 0.66437 0.94863 0.0
C1097 C 0.81767 0.5415 0.07733 0.0
C1098 C 0.79446 0.53016 0.06115 0.0
C1099 C 0.83004 0.56322 0.05884 0.0
C1100 C 0.81945 0.57405 0.02381 0.0
C1101 C 0.79566 0.56347 0.00859 0.0
C1102 C 0.78336 0.54173 0.02694 0.0
C1103 C 0.83347 0.59576 0.00208 0.0
C1104 C 0.81968 0.61939 0.99407 0.0
C1105 C 0.86006 0.59313 0.98864 0.0
C1106 C 0.87538 0.56827 0.99461 0.0
C1107 C 0.86559 0.54381 0.98046 0.0
C1108 C 0.87993 0.5204 0.98681 0.0
C1109 C 0.90422 0.52124 0.00692 0.0
C1110 C 0.91426 0.54551 0.0206 0.0
C1111 C 0.89996 0.56897 0.01441 0.0
H1112 H 0.91529 0.5031 0.01182 0.0
H1113 H 0.77541 0.73008 0.95399 0.0
H1114 H 1.00051 0.29105 0.30761 0.0
H1115 H 0.95797 0.31167 0.28784 0.0
H1116 H 0.99271 0.33421 0.17562 0.0
H1117 H 0.03459 0.31469 0.19526 0.0
H1118 H 0.96882 0.37499 0.20609 0.0
H1119 H 0.94735 0.2814 0.18808 0.0
H1120 H 0.94108 0.23528 0.21127 0.0
H1121 H 0.88153 0.26151 0.29384 0.0
H1122 H 0.88776 0.30786 0.27155 0.0
H1123 H 0.87237 0.40085 0.06481 0.0
H1124 H 0.90495 0.37658 0.10401 0.0
H1125 H 0.85365 0.38096 0.20631 0.0
H1126 H 0.82081 0.40584 0.16719 0.0
H1127 H 0.88145 0.32957 0.19536 0.0
H1128 H 0.90029 0.42317 0.20516 0.0
H1129 H 0.90671 0.46831 0.17821 0.0
H1130 H 0.97224 0.44067 0.10768 0.0
H1131 H 0.96596 0.39526 0.13375 0.0
C1132 C 0.99888 0.30034 0.27873 0.0
C1133 C 0.02107 0.30158 0.25332 0.0
C1134 C 0.97459 0.31206 0.26739 0.0
C1135 C 0.97211 0.32473 0.23024 0.0
C1136 C 0.99408 0.325 0.20462 0.0
C1137 C 0.01814 0.31374 0.216 0.0
C1138 C 0.94734 0.33864 0.21743 0.0
C1139 C 0.94977 0.36494 0.20379 0.0
C1140 C 0.92215 0.32599 0.21543 0.0
C1141 C 0.91825 0.29813 0.22851 0.0
C1142 C 0.93307 0.27736 0.2114 0.0
C1143 C 0.9295 0.25117 0.22435 0.0
C1144 C 0.91098 0.24548 0.2541 0.0
C1145 C 0.89591 0.26596 0.27087 0.0
C1146 C 0.89945 0.29218 0.25809 0.0
C1147 C 0.8679 0.39677 0.09562 0.0
C1148 C 0.84408 0.4058 0.11291 0.0
C1149 C 0.88651 0.38266 0.11795 0.0
C1150 C 0.88189 0.37719 0.15821 0.0
C1151 C 0.85761 0.38494 0.17527 0.0
C1152 C 0.83887 0.39918 0.15284 0.0
C1153 C 0.90353 0.36529 0.18253 0.0
C1154 C 0.90044 0.33963 0.19843 0.0
C1155 C 0.92833 0.37834 0.18634 0.0
C1156 C 0.93256 0.40578 0.17129 0.0
C1157 C 0.91599 0.42669 0.18376 0.0
C1158 C 0.9196 0.45233 0.16864 0.0
C1159 C 0.93985 0.45735 0.14121 0.0
C1160 C 0.95657 0.43675 0.12894 0.0
C1161 C 0.95302 0.41107 0.14392 0.0
H1162 H 0.94259 0.4772 0.1295 0.0
H1163 H 0.90825 0.22521 0.26408 0.0
H1164 H 0.26491 0.4983 0.50262 0.0
H1165 H 0.24365 0.46195 0.46637 0.0
H1166 H 0.17946 0.46104 0.5513 0.0
H1167 H 0.20088 0.49722 0.58821 0.0
H1168 H 0.19187 0.41066 0.52723 0.0
H1169 H 0.17252 0.49396 0.46483 0.0
H1170 H 0.18406 0.53753 0.43598 0.0
H1171 H 0.23013 0.49894 0.34541 0.0
H1172 H 0.21925 0.45513 0.37416 0.0
H1173 H 0.10352 0.34072 0.39411 0.0
H1174 H 0.12259 0.37377 0.43958 0.0
H1175 H 0.19102 0.38156 0.36331 0.0
H1176 H 0.17254 0.3486 0.31841 0.0
H1177 H 0.17303 0.42954 0.38543 0.0
H1178 H 0.19366 0.34635 0.44944 0.0
H1179 H 0.18279 0.30284 0.47908 0.0
H1180 H 0.13401 0.34125 0.5666 0.0
H1181 H 0.14424 0.38499 0.53705 0.0
C1182 C 0.24642 0.4902 0.5139 0.0
C1183 C 0.23444 0.50095 0.54806 0.0
C1184 C 0.23425 0.46941 0.49307 0.0
C1185 C 0.20963 0.4591 0.50558 0.0
C1186 C 0.19836 0.46874 0.54093 0.0
C1187 C 0.21065 0.48946 0.562 0.0
C1188 C 0.19499 0.43958 0.48032 0.0
C1189 C 0.18742 0.41491 0.49638 0.0
C1190 C 0.1893 0.44499 0.43993 0.0
C1191 C 0.19522 0.47127 0.42183 0.0
C1192 C 0.1852 0.49477 0.43886 0.0
C1193 C 0.19164 0.51951 0.42254 0.0
C1194 C 0.20787 0.52101 0.38893 0.0
C1195 C 0.21759 0.49775 0.37147 0.0
C1196 C 0.21127 0.47295 0.38774 0.0
C1197 C 0.12269 0.34931 0.38712 0.0
C1198 C 0.13628 0.34197 0.35221 0.0
C1199 C 0.13358 0.36827 0.41316 0.0
C1200 C 0.15831 0.38017 0.40494 0.0
C1201 C 0.17184 0.37287 0.37021 0.0
C1202 C 0.16107 0.354 0.34434 0.0
C1203 C 0.17034 0.40036 0.43205 0.0
C1204 C 0.17733 0.42528 0.41634 0.0
C1205 C 0.1754 0.39515 0.47269 0.0
C1206 C 0.16947 0.36891 0.49075 0.0
C1207 C 0.18045 0.3455 0.47481 0.0
C1208 C 0.17443 0.3208 0.49162 0.0
C1209 C 0.15766 0.31927 0.52463 0.0
C1210 C 0.14696 0.34246 0.54098 0.0
C1211 C 0.15286 0.36721 0.52422 0.0
H1212 H 0.15302 0.30013 0.53759 0.0
H1213 H 0.21287 0.54018 0.37639 0.0
H1214 H 0.21335 0.65257 0.62771 0.0
H1215 H 0.18192 0.67956 0.66628 0.0
H1216 H 0.11901 0.6243 0.63777 0.0
H1217 H 0.15008 0.59762 0.59923 0.0
H1218 H 0.10194 0.67278 0.62727 0.0
H1219 H 0.15063 0.62705 0.73093 0.0
H1220 H 0.19106 0.61441 0.76779 0.0
H1221 H 0.20672 0.69655 0.79401 0.0
H1222 H 0.16653 0.7097 0.75684 0.0
H1223 H 1.00392 0.68007 0.76918 0.0
H1224 H 0.04707 0.66606 0.744 0.0
H1225 H 0.07466 0.74722 0.74651 0.0
H1226 H 0.03093 0.76166 0.77147 0.0
H1227 H 0.11342 0.69502 0.76985 0.0
H1228 H 0.06147 0.73976 0.66793 0.0
H1229 H 0.01878 0.74965 0.63511 0.0
H1230 H 1.00856 0.66687 0.60743 0.0
H1231 H 0.05092 0.65644 0.64096 0.0
C1232 C 0.19287 0.64609 0.62999 0.0
C1233 C 0.18422 0.623 0.61009 0.0
C1234 C 0.17489 0.66155 0.65204 0.0
C1235 C 0.148 0.65401 0.65506 0.0
C1236 C 0.13954 0.63076 0.63566 0.0
C1237 C 0.15736 0.61549 0.6135 0.0
C1238 C 0.12826 0.67023 0.67767 0.0
C1239 C 0.10465 0.6777 0.65838 0.0
C1240 C 0.13179 0.6773 0.71814 0.0
C1241 C 0.15578 0.66937 0.74072 0.0
C1242 C 0.16281 0.64243 0.74431 0.0
C1243 C 0.18566 0.63517 0.76529 0.0
C1244 C 0.2015 0.65467 0.78311 0.0
C1245 C 0.19446 0.68147 0.78011 0.0
C1246 C 0.17165 0.68884 0.75912 0.0
C1247 C 0.01931 0.69496 0.76538 0.0
C1248 C 1.01386 0.72205 0.7719 0.0
C1249 C 0.04403 0.68685 0.75113 0.0
C1250 C 0.06397 0.70558 0.74316 0.0
C1251 C 0.05951 0.73244 0.75269 0.0
C1252 C 0.03454 0.74066 0.76698 0.0
C1253 C 0.08732 0.69706 0.71938 0.0
C1254 C 0.1113 0.6908 0.73843 0.0
C1255 C 0.08424 0.691 0.67865 0.0
C1256 C 0.05925 0.69731 0.65723 0.0
C1257 C 0.05002 0.72365 0.6551 0.0
C1258 C 0.02589 0.72936 0.63637 0.0
C1259 C 1.01094 0.7089 0.61925 0.0
C1260 C 0.02015 0.6827 0.62073 0.0
C1261 C 0.04422 0.67688 0.63958 0.0
H1262 H 0.99225 0.71334 0.60479 0.0
H1263 H 0.21918 0.64902 0.79933 0.0
loop_
_geom_bond_atom_site_label_1
_geom_bond_atom_site_label_2
_geom_bond_distance
_geom_bond_site_symmetry_2
_ccdc_geom_bond_type
C0 C1 1.351 . S
C0 N3 1.368 . S
C0 H5 0.931 . S
C1 C0 1.351 . S
C1 N2 1.373 . S
C1 H29 0.930 . S
N2 C1 1.373 . S
N2 C4 1.340 . S
N3 C0 1.368 . S
N3 C4 1.322 . S
N3 Co6 2.135 . S
C4 N2 1.340 . S
C4 N3 1.322 . S
C4 H28 0.929 1_556 S
H5 C0 0.931 . S
Co6 N3 2.135 . S
Co6 N9 2.121 . S
Co6 O14 2.055 . S
Co6 O17 2.039 . S
Co6 N20 2.140 1_556 S
C7 O8 1.227 . S
C7 O17 1.265 1_554 S
O8 C7 1.227 . S
N9 Co6 2.121 . S
N9 C11 1.375 1_556 S
N9 C12 1.313 . S
C10 C11 1.338 . S
C10 N13 1.377 1_554 S
C10 H30 0.930 . S
C11 N9 1.375 1_554 S
C11 C10 1.338 . S
C11 H15 0.931 . S
C12 N9 1.313 . S
C12 N13 1.344 . S
C12 H16 0.930 . S
N13 C10 1.377 1_556 S
N13 C12 1.344 . S
O14 Co6 2.055 . S
O14 C18 1.253 . S
H15 C11 0.931 . S
H16 C12 0.930 . S
O17 Co6 2.039 . S
O17 C7 1.265 1_556 S
C18 O14 1.253 . S
C18 O19 1.227 . S
O19 C18 1.227 . S
N20 Co6 2.140 1_554 S
N20 C23 1.346 . S
N20 C24 1.345 . S
C21 C22 1.387 . S
C21 C25 1.391 . S
C22 C21 1.387 . S
C22 C23 1.369 . S
C22 H31 0.929 . S
C23 N20 1.346 . S
C23 C22 1.369 . S
C23 H26 0.928 . S
C24 N20 1.345 . S
C24 C25 1.371 . S
C24 H27 0.931 . S
C25 C21 1.391 . S
C25 C24 1.371 . S
C25 H32 0.930 . S
H26 C23 0.928 . S
H27 C24 0.931 . S
H28 C4 0.929 1_554 S
H29 C1 0.930 . S
H30 C10 0.930 . S
H31 C22 0.929 . S
H32 C25 0.930 . S
C33 C34 1.351 . S
C33 N36 1.368 . S
C33 H38 0.931 . S
C34 C33 1.351 . S
C34 N35 1.373 . S
C34 H62 0.930 . S
N35 C34 1.373 . S
N35 C37 1.340 . S
N36 C33 1.368 . S
N36 C37 1.321 . S
N36 Co39 2.135 . S
C37 N35 1.340 . S
C37 N36 1.321 . S
C37 H61 0.930 . S
H38 C33 0.931 . S
Co39 N36 2.135 . S
Co39 N42 2.121 . S
Co39 O47 2.055 . S
Co39 O50 2.039 . S
Co39 N53 2.140 . S
C40 O41 1.227 . S
C40 O50 1.265 . S
O41 C40 1.227 . S
N42 Co39 2.121 . S
N42 C44 1.375 . S
N42 C45 1.313 . S
C43 C44 1.338 . S
C43 N46 1.377 . S
C43 H63 0.930 . S
C44 N42 1.375 . S
C44 C43 1.338 . S
C44 H48 0.931 . S
C45 N42 1.313 . S
C45 N46 1.344 . S
C45 H49 0.930 . S
N46 C43 1.377 . S
N46 C45 1.344 . S
O47 Co39 2.055 . S
O47 C51 1.253 . S
H48 C44 0.931 . S
H49 C45 0.930 . S
O50 Co39 2.039 . S
O50 C40 1.265 . S
C51 O47 1.253 . S
C51 O52 1.227 . S
O52 C51 1.227 . S
N53 Co39 2.140 . S
N53 C56 1.346 . S
N53 C57 1.345 . S
C54 C55 1.387 . S
C54 C58 1.391 . S
C55 C54 1.387 . S
C55 C56 1.369 . S
C55 H64 0.929 . S
C56 N53 1.346 . S
C56 C55 1.369 . S
C56 H59 0.928 . S
C57 N53 1.345 . S
C57 C58 1.371 . S
C57 H60 0.931 . S
C58 C54 1.391 . S
C58 C57 1.371 . S
C58 H65 0.930 . S
H59 C56 0.928 . S
H60 C57 0.931 . S
H61 C37 0.930 . S
H62 C34 0.930 . S
H63 C43 0.930 . S
H64 C55 0.929 . S
H65 C58 0.930 . S
C66 C67 1.351 . S
C66 N69 1.368 . S
C66 H71 0.931 . S
C67 C66 1.351 . S
C67 N68 1.373 . S
C67 H95 0.930 . S
N68 C67 1.373 . S
N68 C70 1.340 . S
N69 C66 1.368 . S
N69 C70 1.321 . S
N69 Co72 2.135 . S
C70 N68 1.340 . S
C70 N69 1.321 . S
C70 H94 0.930 . S
H71 C66 0.931 . S
Co72 N69 2.135 . S
Co72 N75 2.121 . S
Co72 O80 2.055 . S
Co72 O83 2.039 . S
Co72 N86 2.140 . S
C73 O74 1.227 . S
C73 O83 1.265 . S
O74 C73 1.227 . S
N75 Co72 2.121 . S
N75 C77 1.375 . S
N75 C78 1.313 . S
C76 C77 1.338 . S
C76 N79 1.377 . S
C76 H96 0.930 . S
C77 N75 1.375 . S
C77 C76 1.338 . S
C77 H81 0.931 . S
C78 N75 1.313 . S
C78 N79 1.344 . S
C78 H82 0.930 . S
N79 C76 1.377 . S
N79 C78 1.344 . S
O80 Co72 2.055 . S
O80 C84 1.253 . S
H81 C77 0.931 . S
H82 C78 0.930 . S
O83 Co72 2.039 . S
O83 C73 1.265 . S
C84 O80 1.253 . S
C84 O85 1.227 . S
O85 C84 1.227 . S
N86 Co72 2.140 . S
N86 C89 1.346 . S
N86 C90 1.345 . S
C87 C88 1.387 . S
C87 C91 1.391 . S
C88 C87 1.387 . S
C88 C89 1.369 . S
C88 H97 0.929 . S
C89 N86 1.346 . S
C89 C88 1.369 . S
C89 H92 0.928 . S
C90 N86 1.345 . S
C90 C91 1.371 . S
C90 H93 0.931 . S
C91 C87 1.391 . S
C91 C90 1.371 . S
C91 H98 0.930 . S
H92 C89 0.928 . S
H93 C90 0.931 . S
H94 C70 0.930 . S
H95 C67 0.930 . S
H96 C76 0.930 . S
H97 C88 0.929 . S
H98 C91 0.930 . S
C99 C100 1.351 . S
C99 N102 1.368 . S
C99 H104 0.931 . S
C100 C99 1.351 . S
C100 N101 1.373 . S
C100 H128 0.930 . S
N101 C100 1.373 . S
N101 C103 1.340 . S
N102 C99 1.368 . S
N102 C103 1.321 . S
N102 Co105 2.135 . S
C103 N101 1.340 . S
C103 N102 1.321 . S
C103 H127 0.930 . S
H104 C99 0.931 . S
Co105 N102 2.135 . S
Co105 N108 2.121 . S
Co105 O113 2.055 . S
Co105 O116 2.039 . S
Co105 N119 2.140 . S
C106 O107 1.227 . S
C106 O116 1.265 . S
O107 C106 1.227 . S
N108 Co105 2.121 . S
N108 C110 1.375 . S
N108 C111 1.313 . S
C109 C110 1.338 . S
C109 N112 1.377 . S
C109 H129 0.930 . S
C110 N108 1.375 . S
C110 C109 1.338 . S
C110 H114 0.931 . S
C111 N108 1.313 . S
C111 N112 1.344 . S
C111 H115 0.930 . S
N112 C109 1.377 . S
N112 C111 1.344 . S
O113 Co105 2.055 . S
O113 C117 1.253 . S
H114 C110 0.931 . S
H115 C111 0.930 . S
O116 Co105 2.039 . S
O116 C106 1.265 . S
C117 O113 1.253 . S
C117 O118 1.227 . S
O118 C117 1.227 . S
N119 Co105 2.140 . S
N119 C122 1.346 . S
N119 C123 1.345 . S
C120 C121 1.387 . S
C120 C124 1.391 . S
C121 C120 1.387 . S
C121 C122 1.369 . S
C121 H130 0.929 . S
C122 N119 1.346 . S
C122 C121 1.369 . S
C122 H125 0.928 . S
C123 N119 1.345 . S
C123 C124 1.371 . S
C123 H126 0.931 . S
C124 C120 1.391 . S
C124 C123 1.371 . S
C124 H131 0.930 . S
H125 C122 0.928 . S
H126 C123 0.931 . S
H127 C103 0.930 . S
H128 C100 0.930 . S
H129 C109 0.930 . S
H130 C121 0.929 . S
H131 C124 0.930 . S
C132 C133 1.351 . S
C132 N135 1.368 . S
C132 H137 0.931 . S
C133 C132 1.351 . S
C133 N134 1.373 . S
C133 H161 0.930 . S
N134 C133 1.373 . S
N134 C136 1.340 . S
N135 C132 1.368 . S
N135 C136 1.321 . S
N135 Co138 2.135 . S
C136 N134 1.340 . S
C136 N135 1.321 . S
C136 H160 0.930 . S
H137 C132 0.931 . S
Co138 N135 2.135 . S
Co138 N141 2.121 . S
Co138 O146 2.055 . S
Co138 O149 2.039 . S
Co138 N152 2.140 . S
C139 O140 1.227 . S
C139 O149 1.265 . S
O140 C139 1.227 . S
N141 Co138 2.121 . S
N141 C143 1.375 . S
N141 C144 1.313 . S
C142 C143 1.338 . S
C142 N145 1.377 . S
C142 H162 0.930 . S
C143 N141 1.375 . S
C143 C142 1.338 . S
C143 H147 0.931 . S
C144 N141 1.313 . S
C144 N145 1.344 . S
C144 H148 0.930 . S
N145 C142 1.377 . S
N145 C144 1.344 . S
O146 Co138 2.055 . S
O146 C150 1.253 . S
H147 C143 0.931 . S
H148 C144 0.930 . S
O149 Co138 2.039 . S
O149 C139 1.265 . S
C150 O146 1.253 . S
C150 O151 1.227 . S
O151 C150 1.227 . S
N152 Co138 2.140 . S
N152 C155 1.346 . S
N152 C156 1.345 . S
C153 C154 1.387 . S
C153 C157 1.391 . S
C154 C153 1.387 . S
C154 C155 1.369 . S
C154 H163 0.929 . S
C155 N152 1.346 . S
C155 C154 1.369 . S
C155 H158 0.928 . S
C156 N152 1.345 . S
C156 C157 1.371 . S
C156 H159 0.931 . S
C157 C153 1.391 . S
C157 C156 1.371 . S
C157 H164 0.930 . S
H158 C155 0.928 . S
H159 C156 0.931 . S
H160 C136 0.930 . S
H161 C133 0.930 . S
H162 C142 0.930 . S
H163 C154 0.929 . S
H164 C157 0.930 . S
C165 C166 1.351 . S
C165 N168 1.368 . S
C165 H170 0.931 . S
C166 C165 1.351 . S
C166 N167 1.373 . S
C166 H194 0.930 . S
N167 C166 1.373 . S
N167 C169 1.340 . S
N168 C165 1.368 . S
N168 C169 1.321 . S
N168 Co171 2.135 . S
C169 N167 1.340 . S
C169 N168 1.321 . S
C169 H193 0.930 . S
H170 C165 0.931 . S
Co171 N168 2.135 . S
Co171 N174 2.121 . S
Co171 O179 2.055 . S
Co171 O182 2.039 . S
Co171 N185 2.140 1_554 S
C172 O173 1.227 1_554 S
C172 O182 1.265 . S
O173 C172 1.227 1_556 S
N174 Co171 2.121 . S
N174 C176 1.375 . S
N174 C177 1.313 . S
C175 C176 1.338 . S
C175 N178 1.377 . S
C175 H195 0.930 . S
C176 N174 1.375 . S
C176 C175 1.338 . S
C176 H180 0.931 1_554 S
C177 N174 1.313 . S
C177 N178 1.344 . S
C177 H181 0.930 . S
N178 C175 1.377 . S
N178 C177 1.344 . S
O179 Co171 2.055 . S
O179 C183 1.253 . S
H180 C176 0.931 1_556 S
H181 C177 0.930 . S
O182 Co171 2.039 . S
O182 C172 1.265 . S
C183 O179 1.253 . S
C183 O184 1.227 . S
O184 C183 1.227 . S
N185 Co171 2.140 1_556 S
N185 C188 1.346 . S
N185 C189 1.345 . S
C186 C187 1.387 . S
C186 C190 1.391 . S
C187 C186 1.387 . S
C187 C188 1.369 . S
C187 H196 0.929 . S
C188 N185 1.346 . S
C188 C187 1.369 . S
C188 H191 0.928 . S
C189 N185 1.345 . S
C189 C190 1.371 . S
C189 H192 0.931 1_556 S
C190 C186 1.391 . S
C190 C189 1.371 . S
C190 H197 0.930 . S
H191 C188 0.928 . S
H192 C189 0.931 1_554 S
H193 C169 0.930 . S
H194 C166 0.930 . S
H195 C175 0.930 . S
H196 C187 0.929 . S
H197 C190 0.930 . S
C198 C199 1.351 . S
C198 N201 1.368 . S
C198 H203 0.931 . S
C199 C198 1.351 . S
C199 N200 1.373 . S
C199 H227 0.930 . S
N200 C199 1.373 . S
N200 C202 1.340 . S
N201 C198 1.368 . S
N201 C202 1.321 . S
N201 Co204 2.135 . S
C202 N200 1.340 . S
C202 N201 1.321 . S
C202 H226 0.930 . S
H203 C198 0.931 . S
Co204 N201 2.135 . S
Co204 N207 2.121 . S
Co204 O212 2.055 . S
Co204 O215 2.039 . S
Co204 N218 2.140 . S
C205 O206 1.227 . S
C205 O215 1.265 . S
O206 C205 1.227 . S
N207 Co204 2.121 . S
N207 C209 1.375 . S
N207 C210 1.313 . S
C208 C209 1.338 . S
C208 N211 1.377 . S
C208 H228 0.930 . S
C209 N207 1.375 . S
C209 C208 1.338 . S
C209 H213 0.931 . S
C210 N207 1.313 . S
C210 N211 1.344 . S
C210 H214 0.930 . S
N211 C208 1.377 . S
N211 C210 1.344 . S
O212 Co204 2.055 . S
O212 C216 1.253 . S
H213 C209 0.931 . S
H214 C210 0.930 . S
O215 Co204 2.039 . S
O215 C205 1.265 . S
C216 O212 1.253 . S
C216 O217 1.227 . S
O217 C216 1.227 . S
N218 Co204 2.140 . S
N218 C221 1.346 . S
N218 C222 1.345 . S
C219 C220 1.387 . S
C219 C223 1.391 . S
C220 C219 1.387 . S
C220 C221 1.369 . S
C220 H229 0.929 . S
C221 N218 1.346 . S
C221 C220 1.369 . S
C221 H224 0.928 . S
C222 N218 1.345 . S
C222 C223 1.371 . S
C222 H225 0.931 . S
C223 C219 1.391 . S
C223 C222 1.371 . S
C223 H230 0.930 . S
H224 C221 0.928 . S
H225 C222 0.931 . S
H226 C202 0.930 . S
H227 C199 0.930 . S
H228 C208 0.930 . S
H229 C220 0.929 . S
H230 C223 0.930 . S
C231 C232 1.351 . S
C231 N234 1.368 . S
C231 H236 0.931 . S
C232 C231 1.351 . S
C232 N233 1.373 . S
C232 H260 0.930 . S
N233 C232 1.373 . S
N233 C235 1.340 . S
N234 C231 1.368 . S
N234 C235 1.321 . S
N234 Co237 2.135 . S
C235 N233 1.340 . S
C235 N234 1.321 . S
C235 H259 0.930 . S
H236 C231 0.931 . S
Co237 N234 2.135 . S
Co237 N240 2.121 . S
Co237 O245 2.055 . S
Co237 O248 2.039 . S
Co237 N251 2.140 . S
C238 O239 1.227 . S
C238 O248 1.265 . S
O239 C238 1.227 . S
N240 Co237 2.121 . S
N240 C242 1.375 . S
N240 C243 1.313 . S
C241 C242 1.338 . S
C241 N244 1.377 . S
C241 H261 0.930 . S
C242 N240 1.375 . S
C242 C241 1.338 . S
C242 H246 0.931 . S
C243 N240 1.313 . S
C243 N244 1.344 . S
C243 H247 0.930 . S
N244 C241 1.377 . S
N244 C243 1.344 . S
O245 Co237 2.055 . S
O245 C249 1.253 . S
H246 C242 0.931 . S
H247 C243 0.930 . S
O248 Co237 2.039 . S
O248 C238 1.265 . S
C249 O245 1.253 . S
C249 O250 1.227 . S
O250 C249 1.227 . S
N251 Co237 2.140 . S
N251 C254 1.346 . S
N251 C255 1.345 . S
C252 C253 1.387 . S
C252 C256 1.391 . S
C253 C252 1.387 . S
C253 C254 1.369 . S
C253 H262 0.929 . S
C254 N251 1.346 . S
C254 C253 1.369 . S
C254 H257 0.928 . S
C255 N251 1.345 . S
C255 C256 1.371 . S
C255 H258 0.931 . S
C256 C252 1.391 . S
C256 C255 1.371 . S
C256 H263 0.930 . S
H257 C254 0.928 . S
H258 C255 0.931 . S
H259 C235 0.930 . S
H260 C232 0.930 . S
H261 C241 0.930 . S
H262 C253 0.929 . S
H263 C256 0.930 . S
H264 C282 0.951 . S
H265 C284 0.951 . S
H266 C286 0.950 . S
H267 C287 0.950 . S
H268 C289 0.950 . S
H269 C292 0.950 . S
H270 C293 0.950 . S
H271 C295 0.950 . S
H272 C296 0.950 . S
H273 C297 0.951 . S
H274 C299 0.951 . S
H275 C301 0.950 . S
H276 C302 0.950 . S
H277 C304 0.950 . S
H278 C307 0.950 . S
H279 C308 0.950 . S
H280 C310 0.950 . S
H281 C311 0.950 . S
C282 H264 0.951 . S
C282 C283 1.366 . S
C282 C284 1.388 . S
C283 C282 1.366 . S
C283 C287 1.385 1_554 S
C284 H265 0.951 . S
C284 C282 1.388 . S
C284 C285 1.366 . S
C285 C284 1.366 . S
C285 C286 1.414 1_554 S
C285 C288 1.499 . S
C286 H266 0.950 . S
C286 C285 1.414 1_556 S
C286 C287 1.374 . S
C287 H267 0.950 . S
C287 C283 1.385 1_556 S
C287 C286 1.374 . S
C288 C285 1.499 . S
C288 C289 1.373 . S
C288 C290 1.389 1_554 S
C289 H268 0.950 . S
C289 C288 1.373 . S
C289 C305 1.377 . S
C290 C288 1.389 1_556 S
C290 C291 1.524 . S
C290 C304 1.377 . S
C291 C290 1.524 . S
C291 C292 1.397 . S
C291 C296 1.363 . S
C292 H269 0.950 . S
C292 C291 1.397 . S
C292 C293 1.334 . S
C293 H270 0.950 . S
C293 C292 1.334 . S
C293 C294 1.287 . S
C294 C293 1.287 . S
C294 C295 1.524 . S
C294 H313 0.913 . S
C295 H271 0.950 . S
C295 C294 1.524 . S
C295 C296 1.415 . S
C296 H272 0.950 . S
C296 C291 1.363 . S
C296 C295 1.415 . S
C297 H273 0.951 . S
C297 C298 1.366 1_556 S
C297 C299 1.388 . S
C298 C297 1.366 1_554 S
C298 C302 1.385 . S
C299 H274 0.951 . S
C299 C297 1.388 . S
C299 C300 1.366 1_556 S
C300 C299 1.366 1_554 S
C300 C301 1.414 . S
C300 C303 1.499 . S
C301 H275 0.950 . S
C301 C300 1.414 . S
C301 C302 1.374 . S
C302 H276 0.950 . S
C302 C298 1.385 . S
C302 C301 1.374 . S
C303 C300 1.499 . S
C303 C304 1.373 1_554 S
C303 C305 1.389 . S
C304 H277 0.950 . S
C304 C290 1.377 . S
C304 C303 1.373 1_556 S
C305 C289 1.377 . S
C305 C303 1.389 . S
C305 C306 1.524 . S
C306 C305 1.524 . S
C306 C307 1.397 . S
C306 C311 1.363 . S
C307 H278 0.950 . S
C307 C306 1.397 . S
C307 C308 1.334 . S
C308 H279 0.950 . S
C308 C307 1.334 . S
C308 C309 1.287 . S
C309 C308 1.287 . S
C309 C310 1.524 . S
C309 H312 0.999 . S
C310 H280 0.950 . S
C310 C309 1.524 . S
C310 C311 1.415 . S
C311 H281 0.950 . S
C311 C306 1.363 . S
C311 C310 1.415 . S
H312 C309 0.999 . S
H313 C294 0.913 . S
H314 C332 0.951 1_455 S
H315 C334 0.951 . S
H316 C336 0.950 . S
H317 C337 0.950 . S
H318 C339 0.950 . S
H319 C342 0.950 . S
H320 C343 0.950 . S
H321 C345 0.950 . S
H322 C346 0.950 . S
H323 C347 0.951 . S
H324 C349 0.951 . S
H325 C351 0.950 . S
H326 C352 0.950 1_565 S
H327 C354 0.950 . S
H328 C357 0.950 . S
H329 C358 0.950 . S
H330 C360 0.950 . S
H331 C361 0.950 . S
C332 H314 0.951 1_655 S
C332 C333 1.366 . S
C332 C334 1.388 . S
C333 C332 1.366 . S
C333 C337 1.385 . S
C334 H315 0.951 . S
C334 C332 1.388 . S
C334 C335 1.366 . S
C335 C334 1.366 . S
C335 C336 1.414 . S
C335 C338 1.499 . S
C336 H316 0.950 . S
C336 C335 1.414 . S
C336 C337 1.374 . S
C337 H317 0.950 . S
C337 C333 1.385 . S
C337 C336 1.374 . S
C338 C335 1.499 . S
C338 C339 1.373 . S
C338 C340 1.389 . S
C339 H318 0.950 . S
C339 C338 1.373 . S
C339 C355 1.377 . S
C340 C338 1.389 . S
C340 C341 1.524 . S
C340 C354 1.377 . S
C341 C340 1.524 . S
C341 C342 1.397 . S
C341 C346 1.363 . S
C342 H319 0.950 . S
C342 C341 1.397 . S
C342 C343 1.334 1_655 S
C343 H320 0.950 . S
C343 C342 1.334 1_455 S
C343 C344 1.287 . S
C344 C343 1.287 . S
C344 C345 1.524 . S
C344 H363 0.913 . S
C345 H321 0.950 . S
C345 C344 1.524 . S
C345 C346 1.415 1_455 S
C346 H322 0.950 . S
C346 C341 1.363 . S
C346 C345 1.415 1_655 S
C347 H323 0.951 . S
C347 C348 1.366 . S
C347 C349 1.388 . S
C348 C347 1.366 . S
C348 C352 1.385 . S
C349 H324 0.951 . S
C349 C347 1.388 . S
C349 C350 1.366 . S
C350 C349 1.366 . S
C350 C351 1.414 . S
C350 C353 1.499 . S
C351 H325 0.950 . S
C351 C350 1.414 . S
C351 C352 1.374 . S
C352 H326 0.950 1_545 S
C352 C348 1.385 . S
C352 C351 1.374 . S
C353 C350 1.499 . S
C353 C354 1.373 . S
C353 C355 1.389 . S
C354 H327 0.950 . S
C354 C340 1.377 . S
C354 C353 1.373 . S
C355 C339 1.377 . S
C355 C353 1.389 . S
C355 C356 1.524 . S
C356 C355 1.524 . S
C356 C357 1.397 . S
C356 C361 1.363 . S
C357 H328 0.950 . S
C357 C356 1.397 . S
C357 C358 1.334 . S
C358 H329 0.950 . S
C358 C357 1.334 . S
C358 C359 1.287 . S
C359 C358 1.287 . S
C359 C360 1.524 . S
C359 H362 0.999 . S
C360 H330 0.950 . S
C360 C359 1.524 . S
C360 C361 1.415 . S
C361 H331 0.950 . S
C361 C356 1.363 . S
C361 C360 1.415 . S
H362 C359 0.999 . S
H363 C344 0.913 . S
H364 C382 0.951 . S
H365 C384 0.951 . S
H366 C386 0.950 . S
H367 C387 0.950 . S
H368 C389 0.950 . S
H369 C392 0.950 . S
H370 C393 0.950 . S
H371 C395 0.950 . S
H372 C396 0.950 . S
H373 C397 0.951 . S
H374 C399 0.951 . S
H375 C401 0.950 . S
H376 C402 0.950 . S
H377 C404 0.950 . S
H378 C407 0.950 . S
H379 C408 0.950 . S
H380 C410 0.950 . S
H381 C411 0.950 . S
C382 H364 0.951 . S
C382 C383 1.366 . S
C382 C384 1.388 . S
C383 C382 1.366 . S
C383 C387 1.385 . S
C384 H365 0.951 . S
C384 C382 1.388 . S
C384 C385 1.366 . S
C385 C384 1.366 . S
C385 C386 1.414 . S
C385 C388 1.499 . S
C386 H366 0.950 . S
C386 C385 1.414 . S
C386 C387 1.374 . S
C387 H367 0.950 . S
C387 C383 1.385 . S
C387 C386 1.374 . S
C388 C385 1.499 . S
C388 C389 1.373 . S
C388 C390 1.389 . S
C389 H368 0.950 . S
C389 C388 1.373 . S
C389 C405 1.377 . S
C390 C388 1.389 . S
C390 C391 1.524 . S
C390 C404 1.377 . S
C391 C390 1.524 . S
C391 C392 1.397 . S
C391 C396 1.363 . S
C392 H369 0.950 . S
C392 C391 1.397 . S
C392 C393 1.334 . S
C393 H370 0.950 . S
C393 C392 1.334 . S
C393 C394 1.287 . S
C394 C393 1.287 . S
C394 C395 1.524 . S
C394 H413 0.913 . S
C395 H371 0.950 . S
C395 C394 1.524 . S
C395 C396 1.415 . S
C396 H372 0.950 . S
C396 C391 1.363 . S
C396 C395 1.415 . S
C397 H373 0.951 . S
C397 C398 1.366 . S
C397 C399 1.388 . S
C398 C397 1.366 . S
C398 C402 1.385 . S
C399 H374 0.951 . S
C399 C397 1.388 . S
C399 C400 1.366 . S
C400 C399 1.366 . S
C400 C401 1.414 . S
C400 C403 1.499 . S
C401 H375 0.950 . S
C401 C400 1.414 . S
C401 C402 1.374 . S
C402 H376 0.950 . S
C402 C398 1.385 . S
C402 C401 1.374 . S
C403 C400 1.499 . S
C403 C404 1.373 . S
C403 C405 1.389 . S
C404 H377 0.950 . S
C404 C390 1.377 . S
C404 C403 1.373 . S
C405 C389 1.377 . S
C405 C403 1.389 . S
C405 C406 1.524 . S
C406 C405 1.524 . S
C406 C407 1.397 . S
C406 C411 1.363 . S
C407 H378 0.950 . S
C407 C406 1.397 . S
C407 C408 1.334 . S
C408 H379 0.950 . S
C408 C407 1.334 . S
C408 C409 1.287 . S
C409 C408 1.287 . S
C409 C410 1.524 . S
C409 H412 0.999 . S
C410 H380 0.950 . S
C410 C409 1.524 . S
C410 C411 1.415 . S
C411 H381 0.950 . S
C411 C406 1.363 . S
C411 C410 1.415 . S
H412 C409 0.999 . S
H413 C394 0.913 . S
H414 C432 0.951 . S
H415 C434 0.951 . S
H416 C436 0.950 . S
H417 C437 0.933 1_655 S
H418 C439 0.950 . S
H419 C442 0.950 . S
H420 C443 0.950 . S
H421 C445 0.950 . S
H422 C446 0.950 . S
H423 C447 0.952 1_545 S
H424 C449 0.951 . S
H425 C451 0.950 . S
H426 C452 0.950 . S
H427 C454 0.950 . S
H428 C457 0.950 . S
H429 C458 0.950 . S
H430 C460 0.950 . S
H431 C461 0.950 . S
C432 H414 0.951 . S
C432 C433 1.366 . S
C432 C434 1.388 . S
C433 C432 1.366 . S
C433 C437 1.385 . S
C434 H415 0.951 . S
C434 C432 1.388 . S
C434 C435 1.366 . S
C435 C434 1.366 . S
C435 C436 1.414 . S
C435 C438 1.499 . S
C436 H416 0.950 . S
C436 C435 1.414 . S
C436 C437 1.374 . S
C437 H417 0.933 1_455 S
C437 C433 1.385 . S
C437 C436 1.374 . S
C438 C435 1.499 . S
C438 C439 1.373 . S
C438 C440 1.389 . S
C439 H418 0.950 . S
C439 C438 1.373 . S
C439 C455 1.377 . S
C440 C438 1.389 . S
C440 C441 1.524 . S
C440 C454 1.377 . S
C441 C440 1.524 . S
C441 C442 1.397 . S
C441 C446 1.363 . S
C442 H419 0.950 . S
C442 C441 1.397 . S
C442 C443 1.334 1_455 S
C443 H420 0.950 . S
C443 C442 1.334 1_655 S
C443 C444 1.294 . S
C444 C443 1.294 . S
C444 C445 1.491 1_655 S
C444 H463 0.943 . S
C445 H421 0.950 . S
C445 C444 1.491 1_455 S
C445 C446 1.415 . S
C446 H422 0.950 . S
C446 C441 1.363 . S
C446 C445 1.415 . S
C447 H423 0.952 1_565 S
C447 C448 1.366 . S
C447 C449 1.388 . S
C448 C447 1.366 . S
C448 C452 1.385 . S
C449 H424 0.951 . S
C449 C447 1.388 . S
C449 C450 1.366 . S
C450 C449 1.366 . S
C450 C451 1.414 . S
C450 C453 1.499 . S
C451 H425 0.950 . S
C451 C450 1.414 . S
C451 C452 1.374 . S
C452 H426 0.950 . S
C452 C448 1.385 . S
C452 C451 1.374 . S
C453 C450 1.499 . S
C453 C454 1.373 . S
C453 C455 1.389 . S
C454 H427 0.950 . S
C454 C440 1.377 . S
C454 C453 1.373 . S
C455 C439 1.377 . S
C455 C453 1.389 . S
C455 C456 1.524 . S
C456 C455 1.524 . S
C456 C457 1.397 . S
C456 C461 1.363 . S
C457 H428 0.950 . S
C457 C456 1.397 . S
C457 C458 1.334 . S
C458 H429 0.950 . S
C458 C457 1.334 . S
C458 C459 1.287 . S
C459 C458 1.287 . S
C459 C460 1.524 . S
C459 H462 0.999 . S
C460 H430 0.950 . S
C460 C459 1.524 . S
C460 C461 1.415 . S
C461 H431 0.950 . S
C461 C456 1.363 . S
C461 C460 1.415 . S
H462 C459 0.999 . S
H463 C444 0.943 . S
H464 C482 0.951 . S
H465 C484 0.951 . S
H466 C486 0.950 . S
H467 C487 0.950 . S
H468 C489 0.950 . S
H469 C492 0.950 . S
H470 C493 0.950 . S
H471 C495 0.950 . S
H472 C496 0.950 . S
H473 C497 0.951 . S
H474 C499 0.951 . S
H475 C501 0.950 . S
H476 C502 0.950 . S
H477 C504 0.950 . S
H478 C507 0.950 . S
H479 C508 0.950 . S
H480 C510 0.950 . S
H481 C511 0.950 . S
C482 H464 0.951 . S
C482 C483 1.366 . S
C482 C484 1.388 . S
C483 C482 1.366 . S
C483 C487 1.385 . S
C484 H465 0.951 . S
C484 C482 1.388 . S
C484 C485 1.366 . S
C485 C484 1.366 . S
C485 C486 1.414 . S
C485 C488 1.499 . S
C486 H466 0.950 . S
C486 C485 1.414 . S
C486 C487 1.374 . S
C487 H467 0.950 . S
C487 C483 1.385 . S
C487 C486 1.374 . S
C488 C485 1.499 . S
C488 C489 1.373 . S
C488 C490 1.389 . S
C489 H468 0.950 . S
C489 C488 1.373 . S
C489 C505 1.377 . S
C490 C488 1.389 . S
C490 C491 1.524 . S
C490 C504 1.377 . S
C491 C490 1.524 . S
C491 C492 1.397 . S
C491 C496 1.363 . S
C492 H469 0.950 . S
C492 C491 1.397 . S
C492 C493 1.334 . S
C493 H470 0.950 . S
C493 C492 1.334 . S
C493 C494 1.287 . S
C494 C493 1.287 . S
C494 C495 1.524 . S
C494 H513 0.913 . S
C495 H471 0.950 . S
C495 C494 1.524 . S
C495 C496 1.415 . S
C496 H472 0.950 . S
C496 C491 1.363 . S
C496 C495 1.415 . S
C497 H473 0.951 . S
C497 C498 1.366 . S
C497 C499 1.388 . S
C498 C497 1.366 . S
C498 C502 1.385 . S
C499 H474 0.951 . S
C499 C497 1.388 . S
C499 C500 1.366 . S
C500 C499 1.366 . S
C500 C501 1.414 . S
C500 C503 1.499 . S
C501 H475 0.950 . S
C501 C500 1.414 . S
C501 C502 1.374 . S
C502 H476 0.950 . S
C502 C498 1.385 . S
C502 C501 1.374 . S
C503 C500 1.499 . S
C503 C504 1.373 . S
C503 C505 1.389 . S
C504 H477 0.950 . S
C504 C490 1.377 . S
C504 C503 1.373 . S
C505 C489 1.377 . S
C505 C503 1.389 . S
C505 C506 1.524 . S
C506 C505 1.524 . S
C506 C507 1.397 . S
C506 C511 1.363 . S
C507 H478 0.950 . S
C507 C506 1.397 . S
C507 C508 1.334 . S
C508 H479 0.950 . S
C508 C507 1.334 . S
C508 C509 1.287 . S
C509 C508 1.287 . S
C509 C510 1.524 . S
C509 H512 0.999 . S
C510 H480 0.950 . S
C510 C509 1.524 . S
C510 C511 1.415 . S
C511 H481 0.950 . S
C511 C506 1.363 . S
C511 C510 1.415 . S
H512 C509 0.999 . S
H513 C494 0.913 . S
H514 C532 0.951 . S
H515 C534 0.951 . S
H516 C536 0.950 . S
H517 C537 0.950 . S
H518 C539 0.950 . S
H519 C542 0.950 . S
H520 C543 0.950 . S
H521 C545 0.950 . S
H522 C546 0.950 . S
H523 C547 0.951 . S
H524 C549 0.951 . S
H525 C551 0.950 . S
H526 C552 0.950 . S
H527 C554 0.950 . S
H528 C557 0.950 . S
H529 C558 0.950 . S
H530 C560 0.950 . S
H531 C561 0.950 . S
C532 H514 0.951 . S
C532 C533 1.366 . S
C532 C534 1.388 . S
C533 C532 1.366 . S
C533 C537 1.385 . S
C534 H515 0.951 . S
C534 C532 1.388 . S
C534 C535 1.366 . S
C535 C534 1.366 . S
C535 C536 1.414 . S
C535 C538 1.499 . S
C536 H516 0.950 . S
C536 C535 1.414 . S
C536 C537 1.374 . S
C537 H517 0.950 . S
C537 C533 1.385 . S
C537 C536 1.374 . S
C538 C535 1.499 . S
C538 C539 1.373 . S
C538 C540 1.389 . S
C539 H518 0.950 . S
C539 C538 1.373 . S
C539 C555 1.377 . S
C540 C538 1.389 . S
C540 C541 1.524 . S
C540 C554 1.377 . S
C541 C540 1.524 . S
C541 C542 1.397 . S
C541 C546 1.363 . S
C542 H519 0.950 . S
C542 C541 1.397 . S
C542 C543 1.334 . S
C543 H520 0.950 . S
C543 C542 1.334 . S
C543 C544 1.287 . S
C544 C543 1.287 . S
C544 C545 1.524 . S
C544 H563 0.913 . S
C545 H521 0.950 . S
C545 C544 1.524 . S
C545 C546 1.415 . S
C546 H522 0.950 . S
C546 C541 1.363 . S
C546 C545 1.415 . S
C547 H523 0.951 . S
C547 C548 1.366 . S
C547 C549 1.388 . S
C548 C547 1.366 . S
C548 C552 1.385 . S
C549 H524 0.951 . S
C549 C547 1.388 . S
C549 C550 1.366 . S
C550 C549 1.366 . S
C550 C551 1.414 . S
C550 C553 1.499 . S
C551 H525 0.950 . S
C551 C550 1.414 . S
C551 C552 1.374 . S
C552 H526 0.950 . S
C552 C548 1.385 . S
C552 C551 1.374 . S
C553 C550 1.499 . S
C553 C554 1.373 . S
C553 C555 1.389 . S
C554 H527 0.950 . S
C554 C540 1.377 . S
C554 C553 1.373 . S
C555 C539 1.377 . S
C555 C553 1.389 . S
C555 C556 1.524 . S
C556 C555 1.524 . S
C556 C557 1.397 . S
C556 C561 1.363 . S
C557 H528 0.950 . S
C557 C556 1.397 . S
C557 C558 1.334 . S
C558 H529 0.950 . S
C558 C557 1.334 . S
C558 C559 1.287 . S
C559 C558 1.287 . S
C559 C560 1.524 . S
C559 H562 0.999 . S
C560 H530 0.950 . S
C560 C559 1.524 . S
C560 C561 1.415 . S
C561 H531 0.950 . S
C561 C556 1.363 . S
C561 C560 1.415 . S
H562 C559 0.999 . S
H563 C544 0.913 . S
H564 C582 0.951 . S
H565 C584 0.951 . S
H566 C586 0.950 . S
H567 C587 0.950 . S
H568 C589 0.950 . S
H569 C592 0.950 . S
H570 C593 0.950 . S
H571 C595 0.950 . S
H572 C596 0.950 . S
H573 C597 0.951 . S
H574 C599 0.951 . S
H575 C601 0.950 . S
H576 C602 0.950 . S
H577 C604 0.950 . S
H578 C607 0.950 . S
H579 C608 0.950 . S
H580 C610 0.950 . S
H581 C611 0.950 . S
C582 H564 0.951 . S
C582 C583 1.366 . S
C582 C584 1.388 . S
C583 C582 1.366 . S
C583 C587 1.385 . S
C584 H565 0.951 . S
C584 C582 1.388 . S
C584 C585 1.366 . S
C585 C584 1.366 . S
C585 C586 1.414 . S
C585 C588 1.499 . S
C586 H566 0.950 . S
C586 C585 1.414 . S
C586 C587 1.374 . S
C587 H567 0.950 . S
C587 C583 1.385 . S
C587 C586 1.374 . S
C588 C585 1.499 . S
C588 C589 1.373 . S
C588 C590 1.389 . S
C589 H568 0.950 . S
C589 C588 1.373 . S
C589 C605 1.377 . S
C590 C588 1.389 . S
C590 C591 1.524 . S
C590 C604 1.377 . S
C591 C590 1.524 . S
C591 C592 1.397 . S
C591 C596 1.363 . S
C592 H569 0.950 . S
C592 C591 1.397 . S
C592 C593 1.334 . S
C593 H570 0.950 . S
C593 C592 1.334 . S
C593 C594 1.287 . S
C594 C593 1.287 . S
C594 C595 1.524 . S
C594 H613 0.913 . S
C595 H571 0.950 . S
C595 C594 1.524 . S
C595 C596 1.415 . S
C596 H572 0.950 . S
C596 C591 1.363 . S
C596 C595 1.415 . S
C597 H573 0.951 . S
C597 C598 1.366 . S
C597 C599 1.388 . S
C598 C597 1.366 . S
C598 C602 1.385 . S
C599 H574 0.951 . S
C599 C597 1.388 . S
C599 C600 1.366 . S
C600 C599 1.366 . S
C600 C601 1.414 . S
C600 C603 1.499 . S
C601 H575 0.950 . S
C601 C600 1.414 . S
C601 C602 1.374 . S
C602 H576 0.950 . S
C602 C598 1.385 . S
C602 C601 1.374 . S
C603 C600 1.499 . S
C603 C604 1.373 . S
C603 C605 1.389 . S
C604 H577 0.950 . S
C604 C590 1.377 . S
C604 C603 1.373 . S
C605 C589 1.377 . S
C605 C603 1.389 . S
C605 C606 1.524 . S
C606 C605 1.524 . S
C606 C607 1.397 . S
C606 C611 1.363 . S
C607 H578 0.950 . S
C607 C606 1.397 . S
C607 C608 1.334 . S
C608 H579 0.950 . S
C608 C607 1.334 . S
C608 C609 1.287 . S
C609 C608 1.287 . S
C609 C610 1.524 . S
C609 H612 0.999 . S
C610 H580 0.950 . S
C610 C609 1.524 . S
C610 C611 1.415 . S
C611 H581 0.950 . S
C611 C606 1.363 . S
C611 C610 1.415 . S
H612 C609 0.999 . S
H613 C594 0.913 . S
H614 C632 0.951 . S
H615 C634 0.951 . S
H616 C636 0.950 . S
H617 C637 0.950 . S
H618 C639 0.950 . S
H619 C642 0.950 . S
H620 C643 0.950 . S
H621 C645 0.950 . S
H622 C646 0.950 . S
H623 C647 0.951 . S
H624 C649 0.951 . S
H625 C651 0.950 . S
H626 C652 0.950 . S
H627 C654 0.950 . S
H628 C657 0.950 . S
H629 C658 0.950 . S
H630 C660 0.950 . S
H631 C661 0.950 . S
C632 H614 0.951 . S
C632 C633 1.366 . S
C632 C634 1.388 . S
C633 C632 1.366 . S
C633 C637 1.385 . S
C634 H615 0.951 . S
C634 C632 1.388 . S
C634 C635 1.366 . S
C635 C634 1.366 . S
C635 C636 1.414 . S
C635 C638 1.499 . S
C636 H616 0.950 . S
C636 C635 1.414 . S
C636 C637 1.374 . S
C637 H617 0.950 . S
C637 C633 1.385 . S
C637 C636 1.374 . S
C638 C635 1.499 . S
C638 C639 1.373 1_556 S
C638 C640 1.389 . S
C639 H618 0.950 . S
C639 C638 1.373 1_554 S
C639 C655 1.377 . S
C640 C638 1.389 . S
C640 C641 1.524 . S
C640 C654 1.377 1_556 S
C641 C640 1.524 . S
C641 C642 1.397 . S
C641 C646 1.363 . S
C642 H619 0.950 . S
C642 C641 1.397 . S
C642 C643 1.334 . S
C643 H620 0.950 . S
C643 C642 1.334 . S
C643 C644 1.287 . S
C644 C643 1.287 . S
C644 C645 1.524 . S
C644 H663 0.913 . S
C645 H621 0.950 . S
C645 C644 1.524 . S
C645 C646 1.415 . S
C646 H622 0.950 . S
C646 C641 1.363 . S
C646 C645 1.415 . S
C647 H623 0.951 . S
C647 C648 1.366 . S
C647 C649 1.388 . S
C648 C647 1.366 . S
C648 C652 1.385 . S
C649 H624 0.951 . S
C649 C647 1.388 . S
C649 C650 1.366 . S
C650 C649 1.366 . S
C650 C651 1.414 . S
C650 C653 1.499 . S
C651 H625 0.950 . S
C651 C650 1.414 . S
C651 C652 1.374 . S
C652 H626 0.950 . S
C652 C648 1.385 . S
C652 C651 1.374 . S
C653 C650 1.499 . S
C653 C654 1.373 . S
C653 C655 1.389 . S
C654 H627 0.950 . S
C654 C640 1.377 1_554 S
C654 C653 1.373 . S
C655 C639 1.377 . S
C655 C653 1.389 . S
C655 C656 1.524 . S
C656 C655 1.524 . S
C656 C657 1.397 . S
C656 C661 1.363 . S
C657 H628 0.950 . S
C657 C656 1.397 . S
C657 C658 1.334 . S
C658 H629 0.950 . S
C658 C657 1.334 . S
C658 C659 1.287 . S
C659 C658 1.287 . S
C659 C660 1.524 . S
C659 H662 0.999 . S
C660 H630 0.950 . S
C660 C659 1.524 . S
C660 C661 1.415 . S
C661 H631 0.950 . S
C661 C656 1.363 . S
C661 C660 1.415 . S
H662 C659 0.999 . S
H663 C644 0.913 . S
H664 C682 0.951 . S
H665 C684 0.951 . S
H666 C686 0.950 . S
H667 C687 0.950 . S
H668 C689 0.950 . S
H669 C692 0.950 . S
H670 C693 0.950 . S
H671 C695 0.950 . S
H672 C696 0.950 . S
H673 C697 0.951 . S
H674 C699 0.951 . S
H675 C701 0.950 . S
H676 C702 0.950 . S
H677 C704 0.950 . S
H678 C707 0.950 . S
H679 C708 0.950 . S
H680 C710 0.950 . S
H681 C711 0.950 . S
C682 H664 0.951 . S
C682 C683 1.366 . S
C682 C684 1.388 . S
C683 C682 1.366 . S
C683 C687 1.385 . S
C684 H665 0.951 . S
C684 C682 1.388 . S
C684 C685 1.366 . S
C685 C684 1.366 . S
C685 C686 1.414 . S
C685 C688 1.499 . S
C686 H666 0.950 . S
C686 C685 1.414 . S
C686 C687 1.374 . S
C687 H667 0.950 . S
C687 C683 1.385 . S
C687 C686 1.374 . S
C688 C685 1.499 . S
C688 C689 1.373 . S
C688 C690 1.389 . S
C689 H668 0.950 . S
C689 C688 1.373 . S
C689 C705 1.377 . S
C690 C688 1.389 . S
C690 C691 1.524 . S
C690 C704 1.377 . S
C691 C690 1.524 . S
C691 C692 1.397 . S
C691 C696 1.363 . S
C692 H669 0.950 . S
C692 C691 1.397 . S
C692 C693 1.334 . S
C693 H670 0.950 . S
C693 C692 1.334 . S
C693 C694 1.287 . S
C694 C693 1.287 . S
C694 C695 1.524 . S
C694 H713 0.913 . S
C695 H671 0.950 . S
C695 C694 1.524 . S
C695 C696 1.415 . S
C696 H672 0.950 . S
C696 C691 1.363 . S
C696 C695 1.415 . S
C697 H673 0.951 . S
C697 C698 1.366 . S
C697 C699 1.388 . S
C698 C697 1.366 . S
C698 C702 1.385 . S
C699 H674 0.951 . S
C699 C697 1.388 . S
C699 C700 1.366 . S
C700 C699 1.366 . S
C700 C701 1.414 . S
C700 C703 1.499 . S
C701 H675 0.950 . S
C701 C700 1.414 . S
C701 C702 1.374 . S
C702 H676 0.950 . S
C702 C698 1.385 . S
C702 C701 1.374 . S
C703 C700 1.499 . S
C703 C704 1.373 . S
C703 C705 1.389 . S
C704 H677 0.950 . S
C704 C690 1.377 . S
C704 C703 1.373 . S
C705 C689 1.377 . S
C705 C703 1.389 . S
C705 C706 1.524 . S
C706 C705 1.524 . S
C706 C707 1.397 . S
C706 C711 1.363 . S
C707 H678 0.950 . S
C707 C706 1.397 . S
C707 C708 1.334 . S
C708 H679 0.950 . S
C708 C707 1.334 . S
C708 C709 1.287 . S
C709 C708 1.287 . S
C709 C710 1.524 . S
C709 H712 0.999 . S
C710 H680 0.950 . S
C710 C709 1.524 . S
C710 C711 1.415 . S
C711 H681 0.950 . S
C711 C706 1.363 . S
C711 C710 1.415 . S
H712 C709 0.999 . S
H713 C694 0.913 . S
H714 C732 0.951 . S
H715 C734 0.951 . S
H716 C736 0.950 . S
H717 C737 0.950 . S
H718 C739 0.950 . S
H719 C742 0.950 . S
H720 C743 0.950 . S
H721 C745 0.950 . S
H722 C746 0.950 . S
H723 C747 0.951 . S
H724 C749 0.951 . S
H725 C751 0.950 . S
H726 C752 0.950 . S
H727 C754 0.950 . S
H728 C757 0.950 . S
H729 C758 0.950 . S
H730 C760 0.950 . S
H731 C761 0.950 . S
C732 H714 0.951 . S
C732 C733 1.366 . S
C732 C734 1.388 . S
C733 C732 1.366 . S
C733 C737 1.385 . S
C734 H715 0.951 . S
C734 C732 1.388 . S
C734 C735 1.366 . S
C735 C734 1.366 . S
C735 C736 1.414 . S
C735 C738 1.499 . S
C736 H716 0.950 . S
C736 C735 1.414 . S
C736 C737 1.374 . S
C737 H717 0.950 . S
C737 C733 1.385 . S
C737 C736 1.374 . S
C738 C735 1.499 . S
C738 C739 1.373 . S
C738 C740 1.389 . S
C739 H718 0.950 . S
C739 C738 1.373 . S
C739 C755 1.377 1_554 S
C740 C738 1.389 . S
C740 C741 1.524 . S
C740 C754 1.377 . S
C741 C740 1.524 . S
C741 C742 1.397 . S
C741 C746 1.363 . S
C742 H719 0.950 . S
C742 C741 1.397 . S
C742 C743 1.334 . S
C743 H720 0.950 . S
C743 C742 1.334 . S
C743 C744 1.287 . S
C744 C743 1.287 . S
C744 C745 1.524 . S
C744 H763 0.913 . S
C745 H721 0.950 . S
C745 C744 1.524 . S
C745 C746 1.415 . S
C746 H722 0.950 . S
C746 C741 1.363 . S
C746 C745 1.415 . S
C747 H723 0.951 . S
C747 C748 1.366 . S
C747 C749 1.388 . S
C748 C747 1.366 . S
C748 C752 1.385 . S
C749 H724 0.951 . S
C749 C747 1.388 . S
C749 C750 1.366 . S
C750 C749 1.366 . S
C750 C751 1.414 . S
C750 C753 1.499 . S
C751 H725 0.950 . S
C751 C750 1.414 . S
C751 C752 1.374 . S
C752 H726 0.950 . S
C752 C748 1.385 . S
C752 C751 1.374 . S
C753 C750 1.499 . S
C753 C754 1.373 1_556 S
C753 C755 1.389 . S
C754 H727 0.950 . S
C754 C740 1.377 . S
C754 C753 1.373 1_554 S
C755 C739 1.377 1_556 S
C755 C753 1.389 . S
C755 C756 1.524 . S
C756 C755 1.524 . S
C756 C757 1.397 . S
C756 C761 1.363 . S
C757 H728 0.950 . S
C757 C756 1.397 . S
C757 C758 1.334 . S
C758 H729 0.950 . S
C758 C757 1.334 . S
C758 C759 1.287 . S
C759 C758 1.287 . S
C759 C760 1.524 . S
C759 H762 0.999 . S
C760 H730 0.950 . S
C760 C759 1.524 . S
C760 C761 1.415 . S
C761 H731 0.950 . S
C761 C756 1.363 . S
C761 C760 1.415 . S
H762 C759 0.999 . S
H763 C744 0.913 . S
H764 C782 0.951 . S
H765 C784 0.951 . S
H766 C786 0.950 . S
H767 C787 0.950 . S
H768 C789 0.950 . S
H769 C792 0.950 . S
H770 C793 0.950 . S
H771 C795 0.950 . S
H772 C796 0.950 . S
H773 C797 0.951 . S
H774 C799 0.951 . S
H775 C801 0.950 . S
H776 C802 0.950 . S
H777 C804 0.950 . S
H778 C807 0.950 . S
H779 C808 0.950 . S
H780 C810 0.950 . S
H781 C811 0.950 . S
C782 H764 0.951 . S
C782 C783 1.366 . S
C782 C784 1.388 . S
C783 C782 1.366 . S
C783 C787 1.385 . S
C784 H765 0.951 . S
C784 C782 1.388 . S
C784 C785 1.366 . S
C785 C784 1.366 . S
C785 C786 1.414 . S
C785 C788 1.499 . S
C786 H766 0.950 . S
C786 C785 1.414 . S
C786 C787 1.374 . S
C787 H767 0.950 . S
C787 C783 1.385 . S
C787 C786 1.374 . S
C788 C785 1.499 . S
C788 C789 1.373 . S
C788 C790 1.389 . S
C789 H768 0.950 . S
C789 C788 1.373 . S
C789 C805 1.377 . S
C790 C788 1.389 . S
C790 C791 1.524 . S
C790 C804 1.377 . S
C791 C790 1.524 . S
C791 C792 1.397 . S
C791 C796 1.363 . S
C792 H769 0.950 . S
C792 C791 1.397 . S
C792 C793 1.334 . S
C793 H770 0.950 . S
C793 C792 1.334 . S
C793 C794 1.287 . S
C794 C793 1.287 . S
C794 C795 1.524 . S
C794 H813 0.913 . S
C795 H771 0.950 . S
C795 C794 1.524 . S
C795 C796 1.415 . S
C796 H772 0.950 . S
C796 C791 1.363 . S
C796 C795 1.415 . S
C797 H773 0.951 . S
C797 C798 1.366 . S
C797 C799 1.388 . S
C798 C797 1.366 . S
C798 C802 1.385 . S
C799 H774 0.951 . S
C799 C797 1.388 . S
C799 C800 1.366 . S
C800 C799 1.366 . S
C800 C801 1.414 . S
C800 C803 1.499 . S
C801 H775 0.950 . S
C801 C800 1.414 . S
C801 C802 1.374 . S
C802 H776 0.950 . S
C802 C798 1.385 . S
C802 C801 1.374 . S
C803 C800 1.499 . S
C803 C804 1.373 . S
C803 C805 1.389 . S
C804 H777 0.950 . S
C804 C790 1.377 . S
C804 C803 1.373 . S
C805 C789 1.377 . S
C805 C803 1.389 . S
C805 C806 1.524 . S
C806 C805 1.524 . S
C806 C807 1.397 . S
C806 C811 1.363 . S
C807 H778 0.950 . S
C807 C806 1.397 . S
C807 C808 1.334 . S
C808 H779 0.950 . S
C808 C807 1.334 . S
C808 C809 1.287 . S
C809 C808 1.287 . S
C809 C810 1.524 . S
C809 H812 0.999 . S
C810 H780 0.950 . S
C810 C809 1.524 . S
C810 C811 1.415 . S
C811 H781 0.950 . S
C811 C806 1.363 . S
C811 C810 1.415 . S
H812 C809 0.999 . S
H813 C794 0.913 . S
H814 C832 0.951 . S
H815 C834 0.951 . S
H816 C836 0.950 . S
H817 C837 0.950 . S
H818 C839 0.950 . S
H819 C842 0.950 . S
H820 C843 0.950 . S
H821 C845 0.950 . S
H822 C846 0.950 . S
H823 C847 0.951 . S
H824 C849 0.951 . S
H825 C851 0.950 . S
H826 C852 0.950 . S
H827 C854 0.950 . S
H828 C857 0.950 . S
H829 C858 0.950 . S
H830 C860 0.950 . S
H831 C861 0.950 . S
C832 H814 0.951 . S
C832 C833 1.366 . S
C832 C834 1.388 . S
C833 C832 1.366 . S
C833 C837 1.385 . S
C834 H815 0.951 . S
C834 C832 1.388 . S
C834 C835 1.366 . S
C835 C834 1.366 . S
C835 C836 1.414 . S
C835 C838 1.499 . S
C836 H816 0.950 . S
C836 C835 1.414 . S
C836 C837 1.374 . S
C837 H817 0.950 . S
C837 C833 1.385 . S
C837 C836 1.374 . S
C838 C835 1.499 . S
C838 C839 1.373 . S
C838 C840 1.389 . S
C839 H818 0.950 . S
C839 C838 1.373 . S
C839 C855 1.377 . S
C840 C838 1.389 . S
C840 C841 1.524 . S
C840 C854 1.377 . S
C841 C840 1.524 . S
C841 C842 1.397 . S
C841 C846 1.363 . S
C842 H819 0.950 . S
C842 C841 1.397 . S
C842 C843 1.334 . S
C843 H820 0.950 . S
C843 C842 1.334 . S
C843 C844 1.287 . S
C844 C843 1.287 . S
C844 C845 1.524 . S
C844 H863 0.913 . S
C845 H821 0.950 . S
C845 C844 1.524 . S
C845 C846 1.415 . S
C846 H822 0.950 . S
C846 C841 1.363 . S
C846 C845 1.415 . S
C847 H823 0.951 . S
C847 C848 1.366 . S
C847 C849 1.388 . S
C848 C847 1.366 . S
C848 C852 1.385 . S
C849 H824 0.951 . S
C849 C847 1.388 . S
C849 C850 1.366 . S
C850 C849 1.366 . S
C850 C851 1.414 . S
C850 C853 1.499 . S
C851 H825 0.950 . S
C851 C850 1.414 . S
C851 C852 1.374 . S
C852 H826 0.950 . S
C852 C848 1.385 . S
C852 C851 1.374 . S
C853 C850 1.499 . S
C853 C854 1.373 . S
C853 C855 1.389 . S
C854 H827 0.950 . S
C854 C840 1.377 . S
C854 C853 1.373 . S
C855 C839 1.377 . S
C855 C853 1.389 . S
C855 C856 1.524 . S
C856 C855 1.524 . S
C856 C857 1.397 . S
C856 C861 1.363 . S
C857 H828 0.950 . S
C857 C856 1.397 . S
C857 C858 1.334 . S
C858 H829 0.950 . S
C858 C857 1.334 . S
C858 C859 1.287 . S
C859 C858 1.287 . S
C859 C860 1.524 . S
C859 H862 0.999 . S
C860 H830 0.950 . S
C860 C859 1.524 . S
C860 C861 1.415 . S
C861 H831 0.950 . S
C861 C856 1.363 . S
C861 C860 1.415 . S
H862 C859 0.999 . S
H863 C844 0.913 . S
H864 C882 0.951 . S
H865 C884 0.951 . S
H866 C886 0.950 . S
H867 C887 0.950 . S
H868 C889 0.950 . S
H869 C892 0.950 . S
H870 C893 0.950 . S
H871 C895 0.950 . S
H872 C896 0.950 . S
H873 C897 0.951 . S
H874 C899 0.951 . S
H875 C901 0.950 . S
H876 C902 0.950 1_545 S
H877 C904 0.950 . S
H878 C907 0.950 . S
H879 C908 0.950 1_545 S
H880 C910 0.950 . S
H881 C911 0.950 . S
C882 H864 0.951 . S
C882 C883 1.366 . S
C882 C884 1.388 . S
C883 C882 1.366 . S
C883 C887 1.385 . S
C884 H865 0.951 . S
C884 C882 1.388 . S
C884 C885 1.366 . S
C885 C884 1.366 . S
C885 C886 1.414 . S
C885 C888 1.499 . S
C886 H866 0.950 . S
C886 C885 1.414 . S
C886 C887 1.374 . S
C887 H867 0.950 . S
C887 C883 1.385 . S
C887 C886 1.374 . S
C888 C885 1.499 . S
C888 C889 1.373 . S
C888 C890 1.389 . S
C889 H868 0.950 . S
C889 C888 1.373 . S
C889 C905 1.377 . S
C890 C888 1.389 . S
C890 C891 1.524 . S
C890 C904 1.377 . S
C891 C890 1.524 . S
C891 C892 1.397 . S
C891 C896 1.363 . S
C892 H869 0.950 . S
C892 C891 1.397 . S
C892 C893 1.334 . S
C893 H870 0.950 . S
C893 C892 1.334 . S
C893 C894 1.287 . S
C894 C893 1.287 . S
C894 C895 1.524 . S
C894 H913 0.913 . S
C895 H871 0.950 . S
C895 C894 1.524 . S
C895 C896 1.415 . S
C896 H872 0.950 . S
C896 C891 1.363 . S
C896 C895 1.415 . S
C897 H873 0.951 . S
C897 C898 1.366 . S
C897 C899 1.388 . S
C898 C897 1.366 . S
C898 C902 1.385 . S
C899 H874 0.951 . S
C899 C897 1.388 . S
C899 C900 1.366 . S
C900 C899 1.366 . S
C900 C901 1.414 . S
C900 C903 1.499 . S
C901 H875 0.950 . S
C901 C900 1.414 . S
C901 C902 1.374 . S
C902 H876 0.950 1_565 S
C902 C898 1.385 . S
C902 C901 1.374 . S
C903 C900 1.499 . S
C903 C904 1.373 . S
C903 C905 1.389 . S
C904 H877 0.950 . S
C904 C890 1.377 . S
C904 C903 1.373 . S
C905 C889 1.377 . S
C905 C903 1.389 . S
C905 C906 1.524 . S
C906 C905 1.524 . S
C906 C907 1.397 . S
C906 C911 1.363 . S
C907 H878 0.950 . S
C907 C906 1.397 . S
C907 C908 1.334 . S
C908 H879 0.950 1_565 S
C908 C907 1.334 . S
C908 C909 1.287 . S
C909 C908 1.287 . S
C909 C910 1.524 . S
C909 H912 0.999 . S
C910 H880 0.950 . S
C910 C909 1.524 . S
C910 C911 1.415 . S
C911 H881 0.950 . S
C911 C906 1.363 . S
C911 C910 1.415 . S
H912 C909 0.999 . S
H913 C894 0.913 . S
H914 C932 0.951 1_556 S
H915 C934 0.951 . S
H916 C936 0.950 . S
H917 C937 0.950 . S
H918 C939 0.950 . S
H919 C942 0.950 . S
H920 C943 0.950 . S
H921 C945 0.950 . S
H922 C946 0.950 . S
H923 C947 0.951 . S
H924 C949 0.951 . S
H925 C951 0.950 . S
H926 C952 0.950 . S
H927 C954 0.950 . S
H928 C957 0.950 . S
H929 C958 0.950 . S
H930 C960 0.950 . S
H931 C961 0.950 . S
C932 H914 0.951 1_554 S
C932 C933 1.366 . S
C932 C934 1.388 . S
C933 C932 1.366 . S
C933 C937 1.385 . S
C934 H915 0.951 . S
C934 C932 1.388 . S
C934 C935 1.366 . S
C935 C934 1.366 . S
C935 C936 1.414 . S
C935 C938 1.499 . S
C936 H916 0.950 . S
C936 C935 1.414 . S
C936 C937 1.374 . S
C937 H917 0.950 . S
C937 C933 1.385 . S
C937 C936 1.374 . S
C938 C935 1.499 . S
C938 C939 1.373 . S
C938 C940 1.389 . S
C939 H918 0.950 . S
C939 C938 1.373 . S
C939 C955 1.377 . S
C940 C938 1.389 . S
C940 C941 1.524 . S
C940 C954 1.377 . S
C941 C940 1.524 . S
C941 C942 1.397 . S
C941 C946 1.363 . S
C942 H919 0.950 . S
C942 C941 1.397 . S
C942 C943 1.334 . S
C943 H920 0.950 . S
C943 C942 1.334 . S
C943 C944 1.287 . S
C944 C943 1.287 . S
C944 C945 1.524 . S
C944 H963 0.913 . S
C945 H921 0.950 . S
C945 C944 1.524 . S
C945 C946 1.415 . S
C946 H922 0.950 . S
C946 C941 1.363 . S
C946 C945 1.415 . S
C947 H923 0.951 . S
C947 C948 1.366 . S
C947 C949 1.388 . S
C948 C947 1.366 . S
C948 C952 1.385 . S
C949 H924 0.951 . S
C949 C947 1.388 . S
C949 C950 1.366 . S
C950 C949 1.366 . S
C950 C951 1.414 . S
C950 C953 1.499 . S
C951 H925 0.950 . S
C951 C950 1.414 . S
C951 C952 1.374 . S
C952 H926 0.950 . S
C952 C948 1.385 . S
C952 C951 1.374 . S
C953 C950 1.499 . S
C953 C954 1.373 . S
C953 C955 1.389 . S
C954 H927 0.950 . S
C954 C940 1.377 . S
C954 C953 1.373 . S
C955 C939 1.377 . S
C955 C953 1.389 . S
C955 C956 1.524 . S
C956 C955 1.524 . S
C956 C957 1.397 . S
C956 C961 1.363 . S
C957 H928 0.950 . S
C957 C956 1.397 . S
C957 C958 1.334 . S
C958 H929 0.950 . S
C958 C957 1.334 . S
C958 C959 1.287 . S
C959 C958 1.287 . S
C959 C960 1.524 . S
C959 H962 0.999 . S
C960 H930 0.950 . S
C960 C959 1.524 . S
C960 C961 1.415 . S
C961 H931 0.950 . S
C961 C956 1.363 . S
C961 C960 1.415 . S
H962 C959 0.999 . S
H963 C944 0.913 . S
H964 C982 0.951 . S
H965 C984 0.951 . S
H966 C986 0.950 . S
H967 C987 0.968 . S
H968 C989 0.950 . S
H969 C992 0.950 . S
H970 C993 0.950 . S
H971 C995 0.950 . S
H972 C996 0.950 . S
H973 C997 0.951 . S
H974 C999 0.951 . S
H975 C1001 0.950 . S
H976 C1002 0.950 . S
H977 C1004 0.950 . S
H978 C1007 0.950 . S
H979 C1008 0.950 . S
H980 C1010 0.950 . S
H981 C1011 0.950 . S
C982 H964 0.951 . S
C982 C983 1.366 . S
C982 C984 1.388 . S
C983 C982 1.366 . S
C983 C987 1.383 1_545 S
C984 H965 0.951 . S
C984 C982 1.388 . S
C984 C985 1.366 . S
C985 C984 1.366 . S
C985 C986 1.414 . S
C985 C988 1.499 . S
C986 H966 0.950 . S
C986 C985 1.414 . S
C986 C987 1.358 1_545 S
C987 H967 0.968 . S
C987 C983 1.383 1_565 S
C987 C986 1.358 1_565 S
C988 C985 1.499 . S
C988 C989 1.373 . S
C988 C990 1.389 . S
C989 H968 0.950 . S
C989 C988 1.373 . S
C989 C1005 1.377 . S
C990 C988 1.389 . S
C990 C991 1.524 . S
C990 C1004 1.377 . S
C991 C990 1.524 . S
C991 C992 1.397 . S
C991 C996 1.363 . S
C992 H969 0.950 . S
C992 C991 1.397 . S
C992 C993 1.334 . S
C993 H970 0.950 . S
C993 C992 1.334 . S
C993 C994 1.287 . S
C994 C993 1.287 . S
C994 C995 1.524 . S
C994 H1013 0.913 . S
C995 H971 0.950 . S
C995 C994 1.524 . S
C995 C996 1.415 . S
C996 H972 0.950 . S
C996 C991 1.363 . S
C996 C995 1.415 . S
C997 H973 0.951 . S
C997 C998 1.366 . S
C997 C999 1.388 . S
C998 C997 1.366 . S
C998 C1002 1.385 . S
C999 H974 0.951 . S
C999 C997 1.388 . S
C999 C1000 1.366 . S
C1000 C999 1.366 . S
C1000 C1001 1.414 . S
C1000 C1003 1.499 . S
C1001 H975 0.950 . S
C1001 C1000 1.414 . S
C1001 C1002 1.374 . S
C1002 H976 0.950 . S
C1002 C998 1.385 . S
C1002 C1001 1.374 . S
C1003 C1000 1.499 . S
C1003 C1004 1.373 . S
C1003 C1005 1.389 . S
C1004 H977 0.950 . S
C1004 C990 1.377 . S
C1004 C1003 1.373 . S
C1005 C989 1.377 . S
C1005 C1003 1.389 . S
C1005 C1006 1.524 . S
C1006 C1005 1.524 . S
C1006 C1007 1.397 . S
C1006 C1011 1.363 . S
C1007 H978 0.950 . S
C1007 C1006 1.397 . S
C1007 C1008 1.334 . S
C1008 H979 0.950 . S
C1008 C1007 1.334 . S
C1008 C1009 1.287 . S
C1009 C1008 1.287 . S
C1009 C1010 1.524 . S
C1009 H1012 0.999 . S
C1010 H980 0.950 . S
C1010 C1009 1.524 . S
C1010 C1011 1.415 . S
C1011 H981 0.950 . S
C1011 C1006 1.363 . S
C1011 C1010 1.415 . S
H1012 C1009 0.999 . S
H1013 C994 0.913 . S
H1014 C1032 0.951 . S
H1015 C1034 0.951 . S
H1016 C1036 0.950 . S
H1017 C1037 0.950 . S
H1018 C1039 0.950 . S
H1019 C1042 0.950 . S
H1020 C1043 0.950 . S
H1021 C1045 0.950 . S
H1022 C1046 0.950 . S
H1023 C1047 0.951 . S
H1024 C1049 0.951 . S
H1025 C1051 0.950 . S
H1026 C1052 0.950 . S
H1027 C1054 0.950 . S
H1028 C1057 0.950 . S
H1029 C1058 0.950 . S
H1030 C1060 0.950 . S
H1031 C1061 0.950 . S
C1032 H1014 0.951 . S
C1032 C1033 1.366 . S
C1032 C1034 1.388 . S
C1033 C1032 1.366 . S
C1033 C1037 1.385 . S
C1034 H1015 0.951 . S
C1034 C1032 1.388 . S
C1034 C1035 1.366 . S
C1035 C1034 1.366 . S
C1035 C1036 1.414 . S
C1035 C1038 1.499 . S
C1036 H1016 0.950 . S
C1036 C1035 1.414 . S
C1036 C1037 1.374 . S
C1037 H1017 0.950 . S
C1037 C1033 1.385 . S
C1037 C1036 1.374 . S
C1038 C1035 1.499 . S
C1038 C1039 1.373 . S
C1038 C1040 1.389 . S
C1039 H1018 0.950 . S
C1039 C1038 1.373 . S
C1039 C1055 1.377 . S
C1040 C1038 1.389 . S
C1040 C1041 1.524 . S
C1040 C1054 1.377 . S
C1041 C1040 1.524 . S
C1041 C1042 1.397 . S
C1041 C1046 1.363 . S
C1042 H1019 0.950 . S
C1042 C1041 1.397 . S
C1042 C1043 1.334 . S
C1043 H1020 0.950 . S
C1043 C1042 1.334 . S
C1043 C1044 1.287 . S
C1044 C1043 1.287 . S
C1044 C1045 1.524 . S
C1044 H1063 0.913 . S
C1045 H1021 0.950 . S
C1045 C1044 1.524 . S
C1045 C1046 1.415 . S
C1046 H1022 0.950 . S
C1046 C1041 1.363 . S
C1046 C1045 1.415 . S
C1047 H1023 0.951 . S
C1047 C1048 1.366 . S
C1047 C1049 1.388 . S
C1048 C1047 1.366 . S
C1048 C1052 1.385 . S
C1049 H1024 0.951 . S
C1049 C1047 1.388 . S
C1049 C1050 1.366 . S
C1050 C1049 1.366 . S
C1050 C1051 1.414 . S
C1050 C1053 1.499 . S
C1051 H1025 0.950 . S
C1051 C1050 1.414 . S
C1051 C1052 1.374 . S
C1052 H1026 0.950 . S
C1052 C1048 1.385 . S
C1052 C1051 1.374 . S
C1053 C1050 1.499 . S
C1053 C1054 1.373 . S
C1053 C1055 1.389 . S
C1054 H1027 0.950 . S
C1054 C1040 1.377 . S
C1054 C1053 1.373 . S
C1055 C1039 1.377 . S
C1055 C1053 1.389 . S
C1055 C1056 1.524 . S
C1056 C1055 1.524 . S
C1056 C1057 1.397 . S
C1056 C1061 1.363 . S
C1057 H1028 0.950 . S
C1057 C1056 1.397 . S
C1057 C1058 1.334 . S
C1058 H1029 0.950 . S
C1058 C1057 1.334 . S
C1058 C1059 1.287 . S
C1059 C1058 1.287 . S
C1059 C1060 1.524 . S
C1059 H1062 0.999 . S
C1060 H1030 0.950 . S
C1060 C1059 1.524 . S
C1060 C1061 1.415 . S
C1061 H1031 0.950 . S
C1061 C1056 1.363 . S
C1061 C1060 1.415 . S
H1062 C1059 0.999 . S
H1063 C1044 0.913 . S
H1064 C1082 0.951 . S
H1065 C1084 0.951 . S
H1066 C1086 0.950 . S
H1067 C1087 0.950 . S
H1068 C1089 0.950 . S
H1069 C1092 0.950 . S
H1070 C1093 0.950 . S
H1071 C1095 0.950 . S
H1072 C1096 0.950 . S
H1073 C1097 0.951 . S
H1074 C1099 0.951 . S
H1075 C1101 0.950 . S
H1076 C1102 0.950 . S
H1077 C1104 0.950 . S
H1078 C1107 0.950 . S
H1079 C1108 0.950 . S
H1080 C1110 0.950 . S
H1081 C1111 0.950 . S
C1082 H1064 0.951 . S
C1082 C1083 1.366 . S
C1082 C1084 1.388 . S
C1083 C1082 1.366 . S
C1083 C1087 1.385 . S
C1084 H1065 0.951 . S
C1084 C1082 1.388 . S
C1084 C1085 1.366 . S
C1085 C1084 1.366 . S
C1085 C1086 1.414 . S
C1085 C1088 1.499 . S
C1086 H1066 0.950 . S
C1086 C1085 1.414 . S
C1086 C1087 1.374 . S
C1087 H1067 0.950 . S
C1087 C1083 1.385 . S
C1087 C1086 1.374 . S
C1088 C1085 1.499 . S
C1088 C1089 1.373 . S
C1088 C1090 1.389 . S
C1089 H1068 0.950 . S
C1089 C1088 1.373 . S
C1089 C1105 1.377 . S
C1090 C1088 1.389 . S
C1090 C1091 1.524 . S
C1090 C1104 1.377 . S
C1091 C1090 1.524 . S
C1091 C1092 1.397 . S
C1091 C1096 1.363 . S
C1092 H1069 0.950 . S
C1092 C1091 1.397 . S
C1092 C1093 1.334 . S
C1093 H1070 0.950 . S
C1093 C1092 1.334 . S
C1093 C1094 1.287 . S
C1094 C1093 1.287 . S
C1094 C1095 1.524 . S
C1094 H1113 0.913 . S
C1095 H1071 0.950 . S
C1095 C1094 1.524 . S
C1095 C1096 1.415 . S
C1096 H1072 0.950 . S
C1096 C1091 1.363 . S
C1096 C1095 1.415 . S
C1097 H1073 0.951 . S
C1097 C1098 1.366 1_554 S
C1097 C1099 1.388 1_554 S
C1098 C1097 1.366 1_556 S
C1098 C1102 1.385 . S
C1099 H1074 0.951 . S
C1099 C1097 1.388 1_556 S
C1099 C1100 1.366 . S
C1100 C1099 1.366 . S
C1100 C1101 1.414 . S
C1100 C1103 1.499 . S
C1101 H1075 0.950 . S
C1101 C1100 1.414 . S
C1101 C1102 1.374 . S
C1102 H1076 0.950 . S
C1102 C1098 1.385 . S
C1102 C1101 1.374 . S
C1103 C1100 1.499 . S
C1103 C1104 1.373 . S
C1103 C1105 1.389 . S
C1104 H1077 0.950 . S
C1104 C1090 1.377 . S
C1104 C1103 1.373 . S
C1105 C1089 1.377 . S
C1105 C1103 1.389 . S
C1105 C1106 1.524 . S
C1106 C1105 1.524 . S
C1106 C1107 1.397 . S
C1106 C1111 1.363 . S
C1107 H1078 0.950 . S
C1107 C1106 1.397 . S
C1107 C1108 1.334 . S
C1108 H1079 0.950 . S
C1108 C1107 1.334 . S
C1108 C1109 1.287 . S
C1109 C1108 1.287 . S
C1109 C1110 1.524 . S
C1109 H1112 0.999 . S
C1110 H1080 0.950 . S
C1110 C1109 1.524 . S
C1110 C1111 1.415 . S
C1111 H1081 0.950 . S
C1111 C1106 1.363 . S
C1111 C1110 1.415 . S
H1112 C1109 0.999 . S
H1113 C1094 0.913 . S
H1114 C1132 0.951 . S
H1115 C1134 0.951 . S
H1116 C1136 0.950 . S
H1117 C1137 0.950 1_455 S
H1118 C1139 0.950 . S
H1119 C1142 0.950 . S
H1120 C1143 0.950 . S
H1121 C1145 0.950 . S
H1122 C1146 0.950 . S
H1123 C1147 0.951 . S
H1124 C1149 0.951 . S
H1125 C1151 0.950 . S
H1126 C1152 0.950 . S
H1127 C1154 0.950 . S
H1128 C1157 0.950 . S
H1129 C1158 0.950 . S
H1130 C1160 0.950 . S
H1131 C1161 0.950 . S
C1132 H1114 0.951 . S
C1132 C1133 1.366 . S
C1132 C1134 1.388 . S
C1133 C1132 1.366 . S
C1133 C1137 1.385 . S
C1134 H1115 0.951 . S
C1134 C1132 1.388 . S
C1134 C1135 1.366 . S
C1135 C1134 1.366 . S
C1135 C1136 1.414 . S
C1135 C1138 1.499 . S
C1136 H1116 0.950 . S
C1136 C1135 1.414 . S
C1136 C1137 1.374 . S
C1137 H1117 0.950 1_655 S
C1137 C1133 1.385 . S
C1137 C1136 1.374 . S
C1138 C1135 1.499 . S
C1138 C1139 1.373 . S
C1138 C1140 1.389 . S
C1139 H1118 0.950 . S
C1139 C1138 1.373 . S
C1139 C1155 1.377 . S
C1140 C1138 1.389 . S
C1140 C1141 1.524 . S
C1140 C1154 1.377 . S
C1141 C1140 1.524 . S
C1141 C1142 1.397 . S
C1141 C1146 1.363 . S
C1142 H1119 0.950 . S
C1142 C1141 1.397 . S
C1142 C1143 1.334 . S
C1143 H1120 0.950 . S
C1143 C1142 1.334 . S
C1143 C1144 1.287 . S
C1144 C1143 1.287 . S
C1144 C1145 1.524 . S
C1144 H1163 0.913 . S
C1145 H1121 0.950 . S
C1145 C1144 1.524 . S
C1145 C1146 1.415 . S
C1146 H1122 0.950 . S
C1146 C1141 1.363 . S
C1146 C1145 1.415 . S
C1147 H1123 0.951 . S
C1147 C1148 1.366 . S
C1147 C1149 1.388 . S
C1148 C1147 1.366 . S
C1148 C1152 1.385 . S
C1149 H1124 0.951 . S
C1149 C1147 1.388 . S
C1149 C1150 1.366 . S
C1150 C1149 1.366 . S
C1150 C1151 1.414 . S
C1150 C1153 1.499 . S
C1151 H1125 0.950 . S
C1151 C1150 1.414 . S
C1151 C1152 1.374 . S
C1152 H1126 0.950 . S
C1152 C1148 1.385 . S
C1152 C1151 1.374 . S
C1153 C1150 1.499 . S
C1153 C1154 1.373 . S
C1153 C1155 1.389 . S
C1154 H1127 0.950 . S
C1154 C1140 1.377 . S
C1154 C1153 1.373 . S
C1155 C1139 1.377 . S
C1155 C1153 1.389 . S
C1155 C1156 1.524 . S
C1156 C1155 1.524 . S
C1156 C1157 1.397 . S
C1156 C1161 1.363 . S
C1157 H1128 0.950 . S
C1157 C1156 1.397 . S
C1157 C1158 1.334 . S
C1158 H1129 0.950 . S
C1158 C1157 1.334 . S
C1158 C1159 1.287 . S
C1159 C1158 1.287 . S
C1159 C1160 1.524 . S
C1159 H1162 0.999 . S
C1160 H1130 0.950 . S
C1160 C1159 1.524 . S
C1160 C1161 1.415 . S
C1161 H1131 0.950 . S
C1161 C1156 1.363 . S
C1161 C1160 1.415 . S
H1162 C1159 0.999 . S
H1163 C1144 0.913 . S
H1164 C1182 0.951 . S
H1165 C1184 0.951 . S
H1166 C1186 0.950 . S
H1167 C1187 0.950 . S
H1168 C1189 0.950 . S
H1169 C1192 0.950 . S
H1170 C1193 0.950 . S
H1171 C1195 0.950 . S
H1172 C1196 0.950 . S
H1173 C1197 0.951 . S
H1174 C1199 0.951 . S
H1175 C1201 0.950 . S
H1176 C1202 0.950 . S
H1177 C1204 0.950 . S
H1178 C1207 0.950 . S
H1179 C1208 0.950 . S
H1180 C1210 0.950 . S
H1181 C1211 0.950 . S
C1182 H1164 0.951 . S
C1182 C1183 1.366 . S
C1182 C1184 1.388 . S
C1183 C1182 1.366 . S
C1183 C1187 1.385 . S
C1184 H1165 0.951 . S
C1184 C1182 1.388 . S
C1184 C1185 1.366 . S
C1185 C1184 1.366 . S
C1185 C1186 1.414 . S
C1185 C1188 1.499 . S
C1186 H1166 0.950 . S
C1186 C1185 1.414 . S
C1186 C1187 1.374 . S
C1187 H1167 0.950 . S
C1187 C1183 1.385 . S
C1187 C1186 1.374 . S
C1188 C1185 1.499 . S
C1188 C1189 1.373 . S
C1188 C1190 1.389 . S
C1189 H1168 0.950 . S
C1189 C1188 1.373 . S
C1189 C1205 1.377 . S
C1190 C1188 1.389 . S
C1190 C1191 1.524 . S
C1190 C1204 1.377 . S
C1191 C1190 1.524 . S
C1191 C1192 1.397 . S
C1191 C1196 1.363 . S
C1192 H1169 0.950 . S
C1192 C1191 1.397 . S
C1192 C1193 1.334 . S
C1193 H1170 0.950 . S
C1193 C1192 1.334 . S
C1193 C1194 1.287 . S
C1194 C1193 1.287 . S
C1194 C1195 1.524 . S
C1194 H1213 0.913 . S
C1195 H1171 0.950 . S
C1195 C1194 1.524 . S
C1195 C1196 1.415 . S
C1196 H1172 0.950 . S
C1196 C1191 1.363 . S
C1196 C1195 1.415 . S
C1197 H1173 0.951 . S
C1197 C1198 1.366 . S
C1197 C1199 1.388 . S
C1198 C1197 1.366 . S
C1198 C1202 1.385 . S
C1199 H1174 0.951 . S
C1199 C1197 1.388 . S
C1199 C1200 1.366 . S
C1200 C1199 1.366 . S
C1200 C1201 1.414 . S
C1200 C1203 1.499 . S
C1201 H1175 0.950 . S
C1201 C1200 1.414 . S
C1201 C1202 1.374 . S
C1202 H1176 0.950 . S
C1202 C1198 1.385 . S
C1202 C1201 1.374 . S
C1203 C1200 1.499 . S
C1203 C1204 1.373 . S
C1203 C1205 1.389 . S
C1204 H1177 0.950 . S
C1204 C1190 1.377 . S
C1204 C1203 1.373 . S
C1205 C1189 1.377 . S
C1205 C1203 1.389 . S
C1205 C1206 1.524 . S
C1206 C1205 1.524 . S
C1206 C1207 1.397 . S
C1206 C1211 1.363 . S
C1207 H1178 0.950 . S
C1207 C1206 1.397 . S
C1207 C1208 1.334 . S
C1208 H1179 0.950 . S
C1208 C1207 1.334 . S
C1208 C1209 1.287 . S
C1209 C1208 1.287 . S
C1209 C1210 1.524 . S
C1209 H1212 0.999 . S
C1210 H1180 0.950 . S
C1210 C1209 1.524 . S
C1210 C1211 1.415 . S
C1211 H1181 0.950 . S
C1211 C1206 1.363 . S
C1211 C1210 1.415 . S
H1212 C1209 0.999 . S
H1213 C1194 0.913 . S
H1214 C1232 0.951 . S
H1215 C1234 0.951 . S
H1216 C1236 0.950 . S
H1217 C1237 0.950 . S
H1218 C1239 0.950 . S
H1219 C1242 0.950 . S
H1220 C1243 0.950 . S
H1221 C1245 0.950 . S
H1222 C1246 0.950 . S
H1223 C1247 0.972 . S
H1224 C1249 0.951 . S
H1225 C1251 0.950 . S
H1226 C1252 0.950 . S
H1227 C1254 0.950 . S
H1228 C1257 0.950 . S
H1229 C1258 0.950 . S
H1230 C1260 0.950 . S
H1231 C1261 0.950 . S
C1232 H1214 0.951 . S
C1232 C1233 1.366 . S
C1232 C1234 1.388 . S
C1233 C1232 1.366 . S
C1233 C1237 1.385 . S
C1234 H1215 0.951 . S
C1234 C1232 1.388 . S
C1234 C1235 1.366 . S
C1235 C1234 1.366 . S
C1235 C1236 1.414 . S
C1235 C1238 1.499 . S
C1236 H1216 0.950 . S
C1236 C1235 1.414 . S
C1236 C1237 1.374 . S
C1237 H1217 0.950 . S
C1237 C1233 1.385 . S
C1237 C1236 1.374 . S
C1238 C1235 1.499 . S
C1238 C1239 1.373 . S
C1238 C1240 1.389 . S
C1239 H1218 0.950 . S
C1239 C1238 1.373 . S
C1239 C1255 1.377 . S
C1240 C1238 1.389 . S
C1240 C1241 1.524 . S
C1240 C1254 1.377 . S
C1241 C1240 1.524 . S
C1241 C1242 1.397 . S
C1241 C1246 1.363 . S
C1242 H1219 0.950 . S
C1242 C1241 1.397 . S
C1242 C1243 1.334 . S
C1243 H1220 0.950 . S
C1243 C1242 1.334 . S
C1243 C1244 1.287 . S
C1244 C1243 1.287 . S
C1244 C1245 1.524 . S
C1244 H1263 0.913 . S
C1245 H1221 0.950 . S
C1245 C1244 1.524 . S
C1245 C1246 1.415 . S
C1246 H1222 0.950 . S
C1246 C1241 1.363 . S
C1246 C1245 1.415 . S
C1247 H1223 0.972 . S
C1247 C1248 1.363 1_655 S
C1247 C1249 1.369 1_655 S
C1248 C1247 1.363 1_455 S
C1248 C1252 1.385 . S
C1249 H1224 0.951 . S
C1249 C1247 1.369 1_455 S
C1249 C1250 1.366 . S
C1250 C1249 1.366 . S
C1250 C1251 1.414 . S
C1250 C1253 1.499 . S
C1251 H1225 0.950 . S
C1251 C1250 1.414 . S
C1251 C1252 1.374 . S
C1252 H1226 0.950 . S
C1252 C1248 1.385 . S
C1252 C1251 1.374 . S
C1253 C1250 1.499 . S
C1253 C1254 1.373 . S
C1253 C1255 1.389 . S
C1254 H1227 0.950 . S
C1254 C1240 1.377 . S
C1254 C1253 1.373 . S
C1255 C1239 1.377 . S
C1255 C1253 1.389 . S
C1255 C1256 1.524 . S
C1256 C1255 1.524 . S
C1256 C1257 1.397 . S
C1256 C1261 1.363 . S
C1257 H1228 0.950 . S
C1257 C1256 1.397 . S
C1257 C1258 1.334 . S
C1258 H1229 0.950 . S
C1258 C1257 1.334 . S
C1258 C1259 1.287 . S
C1259 C1258 1.287 . S
C1259 C1260 1.524 . S
C1259 H1262 0.999 . S
C1260 H1230 0.950 . S
C1260 C1259 1.524 . S
C1260 C1261 1.415 . S
C1261 H1231 0.950 . S
C1261 C1256 1.363 . S
C1261 C1260 1.415 . S
H1262 C1259 0.999 . S
H1263 C1244 0.913 . S
C283 N167 1.237 . S
C298 N2 1.237 1_554 S
C333 N200 1.237 1_655 S
C348 N35 1.237 1_545 S
C383 N68 1.237 . S
C398 N233 1.236 . S
C433 N134 1.238 1_455 S
C448 N101 1.237 1_565 S
C483 C252 0.763 . S
C498 C21 0.763 . S
C533 C54 0.763 . S
C548 C153 0.762 . S
C583 C186 0.763 . S
C598 C87 0.763 . S
C633 C120 0.762 . S
C648 C219 0.763 . S
C683 C249 1.490 . S
C698 C18 1.489 . S
C733 C51 1.489 . S
C748 C150 1.489 . S
C783 C183 1.489 . S
C798 C84 1.489 . S
C833 C216 1.489 . S
C848 C117 1.489 . S
C883 N13 1.681 . S
C898 C106 1.682 1_565 S
C933 C7 1.683 . S
C948 N46 1.682 . S
C983 C40 1.683 1_545 S
C998 N79 1.682 . S
C1033 C73 1.683 . S
C1048 N112 1.682 . S
C1083 N145 1.681 . S
C1098 C172 1.682 1_556 S
C1133 C205 1.682 1_655 S
C1148 N178 1.682 . S
C1183 C238 1.683 . S
C1198 N211 1.682 . S
C1233 N244 1.682 . S
C1248 C139 1.683 1_455 S
