# Generated by pormake.
# Topology wkj, (6)-cn, num edge types: 1
# Building blocks:
#     Node 0, Type 0, BuildingBlock: BETDEL_clean_sbu_0, # of connection points: 6
#     Node 1, Type 0, BuildingBlock: BETDEL_clean_sbu_0, # of connection points: 6
#     Node 2, Type 0, BuildingBlock: BETDEL_clean_sbu_0, # of connection points: 6
#     Node 3, Type 0, BuildingBlock: BETDEL_clean_sbu_0, # of connection points: 6
#     Node 4, Type 0, BuildingBlock: BETDEL_clean_sbu_0, # of connection points: 6
#     Node 5, Type 0, BuildingBlock: BETDEL_clean_sbu_0, # of connection points: 6
#     Node 6, Type 0, BuildingBlock: BETDEL_clean_sbu_0, # of connection points: 6
#     Node 7, Type 0, BuildingBlock: BETDEL_clean_sbu_0, # of connection points: 6
#     Node 8, Type 0, BuildingBlock: BETDEL_clean_sbu_0, # of connection points: 6
#     Node 9, Type 0, BuildingBlock: BETDEL_clean_sbu_0, # of connection points: 6
#     Node 10, Type 0, BuildingBlock: BETDEL_clean_sbu_0, # of connection points: 6
#     Node 11, Type 0, BuildingBlock: BETDEL_clean_sbu_0, # of connection points: 6
#     Edge 12, Type (0, 0), BuildingBlock: CIFDUS_clean_linker_0, # of connection points: 2
#     Edge 13, Type (0, 0), BuildingBlock: CIFDUS_clean_linker_0, # of connection points: 2
#     Edge 14, Type (0, 0), BuildingBlock: CIFDUS_clean_linker_0, # of connection points: 2
#     Edge 15, Type (0, 0), BuildingBlock: CIFDUS_clean_linker_0, # of connection points: 2
#     Edge 16, Type (0, 0), BuildingBlock: CIFDUS_clean_linker_0, # of connection points: 2
#     Edge 17, Type (0, 0), BuildingBlock: CIFDUS_clean_linker_0, # of connection points: 2
#     Edge 18, Type (0, 0), BuildingBlock: CIFDUS_clean_linker_0, # of connection points: 2
#     Edge 19, Type (0, 0), BuildingBlock: CIFDUS_clean_linker_0, # of connection points: 2
#     Edge 20, Type (0, 0), BuildingBlock: CIFDUS_clean_linker_0, # of connection points: 2
#     Edge 21, Type (0, 0), BuildingBlock: CIFDUS_clean_linker_0, # of connection points: 2
#     Edge 22, Type (0, 0), BuildingBlock: CIFDUS_clean_linker_0, # of connection points: 2
#     Edge 23, Type (0, 0), BuildingBlock: CIFDUS_clean_linker_0, # of connection points: 2
#     Edge 24, Type (0, 0), BuildingBlock: CIFDUS_clean_linker_0, # of connection points: 2
#     Edge 25, Type (0, 0), BuildingBlock: CIFDUS_clean_linker_0, # of connection points: 2
#     Edge 26, Type (0, 0), BuildingBlock: CIFDUS_clean_linker_0, # of connection points: 2
#     Edge 27, Type (0, 0), BuildingBlock: CIFDUS_clean_linker_0, # of connection points: 2
#     Edge 28, Type (0, 0), BuildingBlock: CIFDUS_clean_linker_0, # of connection points: 2
#     Edge 29, Type (0, 0), BuildingBlock: CIFDUS_clean_linker_0, # of connection points: 2
#     Edge 30, Type (0, 0), BuildingBlock: CIFDUS_clean_linker_0, # of connection points: 2
#     Edge 31, Type (0, 0), BuildingBlock: CIFDUS_clean_linker_0, # of connection points: 2
#     Edge 32, Type (0, 0), BuildingBlock: CIFDUS_clean_linker_0, # of connection points: 2
#     Edge 33, Type (0, 0), BuildingBlock: CIFDUS_clean_linker_0, # of connection points: 2
#     Edge 34, Type (0, 0), BuildingBlock: CIFDUS_clean_linker_0, # of connection points: 2
#     Edge 35, Type (0, 0), BuildingBlock: CIFDUS_clean_linker_0, # of connection points: 2
#     Edge 36, Type (0, 0), BuildingBlock: CIFDUS_clean_linker_0, # of connection points: 2
#     Edge 37, Type (0, 0), BuildingBlock: CIFDUS_clean_linker_0, # of connection points: 2
#     Edge 38, Type (0, 0), BuildingBlock: CIFDUS_clean_linker_0, # of connection points: 2
#     Edge 39, Type (0, 0), BuildingBlock: CIFDUS_clean_linker_0, # of connection points: 2
#     Edge 40, Type (0, 0), BuildingBlock: CIFDUS_clean_linker_0, # of connection points: 2
#     Edge 41, Type (0, 0), BuildingBlock: CIFDUS_clean_linker_0, # of connection points: 2
#     Edge 42, Type (0, 0), BuildingBlock: CIFDUS_clean_linker_0, # of connection points: 2
#     Edge 43, Type (0, 0), BuildingBlock: CIFDUS_clean_linker_0, # of connection points: 2
#     Edge 44, Type (0, 0), BuildingBlock: CIFDUS_clean_linker_0, # of connection points: 2
#     Edge 45, Type (0, 0), BuildingBlock: CIFDUS_clean_linker_0, # of connection points: 2
#     Edge 46, Type (0, 0), BuildingBlock: CIFDUS_clean_linker_0, # of connection points: 2
#     Edge 47, Type (0, 0), BuildingBlock: CIFDUS_clean_linker_0, # of connection points: 2
# Relax obj value: 0.387
# Max RMSD: 0.193
# Mean RMSD: 0.193
data_MOF--net-wkj--node1-BETDEL_clean_sbu_0--edge1-CIFDUS_clean_linker_0
_symmetry_space_group_name_H-M    P1
_symmetry_Int_Tables_number       1
_symmetry_cell_setting            triclinic
loop_
_symmetry_equiv_pos_as_xyz
'x, y, z'
_cell_length_a     43.388893
_cell_length_b     43.177275
_cell_length_c     22.76123
_cell_angle_alpha  90.1006
_cell_angle_beta   89.894839
_cell_angle_gamma 119.77556
loop_
_atom_site_label
_atom_site_type_symbol
_atom_site_fract_x
_atom_site_fract_y
_atom_site_fract_z
_atom_type_partial_charge
Dy0 Dy 0.3895 0.0599 0.34206 0.0
C1 C 0.52174 0.15348 0.23355 0.0
C2 C 0.33217 0.02482 0.41427 0.0
Dy3 Dy 0.46663 0.10041 0.29244 0.0
O4 O 0.3381 0.01127 0.36749 0.0
O5 O 0.35663 0.05799 0.41899 0.0
O6 O 0.37486 0.09158 0.28181 0.0
O7 O 0.42644 0.11405 0.31662 0.0
C8 C 0.4069 0.1187 0.28139 0.0
C9 C 0.45107 0.04399 0.35657 0.0
O10 O 0.47856 0.12132 0.38499 0.0
O11 O 0.42415 0.07911 0.42451 0.0
O12 O 0.52201 0.12596 0.25641 0.0
O13 O 0.49104 0.15115 0.24146 0.0
O14 O 0.48396 0.06936 0.34958 0.0
O15 O 0.43074 0.04809 0.32251 0.0
O16 O 0.38232 0.02583 0.26152 0.0
O17 O 0.43635 0.0631 0.21482 0.0
C18 C 0.45795 0.10472 0.43091 0.0
C19 C 0.40392 0.03395 0.21506 0.0
Dy20 Dy 0.2989 0.39097 0.69918 0.0
C21 C 0.37544 0.51289 0.5614 0.0
C22 C 0.26046 0.33889 0.77931 0.0
Dy23 Dy 0.34802 0.45947 0.64133 0.0
O24 O 0.25562 0.36529 0.76599 0.0
O25 O 0.28591 0.34034 0.74695 0.0
O26 O 0.25757 0.38091 0.63371 0.0
O27 O 0.29147 0.43357 0.66239 0.0
C28 C 0.26624 0.41415 0.62814 0.0
C29 C 0.37798 0.43314 0.71309 0.0
O30 O 0.34794 0.48543 0.72543 0.0
O31 O 0.3234 0.43182 0.77565 0.0
O32 O 0.39065 0.49529 0.57961 0.0
O33 O 0.34578 0.50227 0.58931 0.0
O34 O 0.39187 0.46718 0.70271 0.0
O35 O 0.35335 0.41594 0.67764 0.0
O36 O 0.31523 0.36932 0.61951 0.0
O37 O 0.3366 0.42126 0.56563 0.0
C38 C 0.34043 0.46762 0.77544 0.0
C39 C 0.32767 0.3872 0.56896 0.0
Dy40 Dy 0.86694 0.34009 1.01685 0.0
C41 C 0.7644 0.35619 0.88546 0.0
C42 C 0.89741 0.3208 0.10233 0.0
Dy43 Dy 0.81946 0.36121 0.94866 0.0
O44 O 0.86367 0.30825 0.09564 0.0
O45 O 0.91512 0.34413 1.0615 0.0
O46 O 0.84981 0.2925 0.95962 0.0
O47 O 0.81408 0.31062 0.97827 0.0
C48 C 0.81871 0.28838 0.94888 0.0
C49 C 0.8667 0.4125 1.01593 0.0
O50 O 0.79489 0.35417 1.03852 0.0
O51 O 0.84033 0.35338 0.09064 0.0
O52 O 0.79562 0.38458 0.88856 0.0
O53 O 0.76389 0.33032 0.91465 0.0
O54 O 0.83799 0.41243 0.99925 0.0
O55 O 0.8705 0.38931 0.98847 0.0
O56 O 0.90352 0.36726 0.93993 0.0
O57 O 0.86084 0.36783 0.87831 0.0
C58 C 0.81109 0.3559 0.08887 0.0
C59 C 0.89361 0.37277 0.8872 0.0
Dy60 Dy 0.51829 0.89411 0.36344 0.0
C61 C 0.39727 0.79149 0.2341 0.0
C62 C 0.57989 0.9418 0.4183 0.0
Dy63 Dy 0.44707 0.84466 0.30103 0.0
O64 O 0.57377 0.91203 0.39446 0.0
O65 O 0.55283 0.94621 0.40911 0.0
O66 O 0.52376 0.84619 0.37897 0.0
O67 O 0.49925 0.84966 0.30171 0.0
C68 C 0.50717 0.83009 0.3316 0.0
C69 C 0.44318 0.88826 0.37794 0.0
O70 O 0.43806 0.81891 0.39177 0.0
O71 O 0.48338 0.86723 0.44161 0.0
O72 O 0.39895 0.82202 0.2438 0.0
O73 O 0.42315 0.79023 0.26039 0.0
O74 O 0.4152 0.8591 0.36083 0.0
O75 O 0.46972 0.89518 0.34597 0.0
O76 O 0.52871 0.92305 0.2758 0.0
O77 O 0.47461 0.88655 0.22882 0.0
C78 C 0.45355 0.83588 0.44168 0.0
C79 C 0.50701 0.91547 0.22972 0.0
Dy80 Dy 0.61144 0.55846 0.6786 0.0
C81 C 0.60213 0.44482 0.53762 0.0
C82 C 0.62597 0.60998 0.75922 0.0
Dy83 Dy 0.59908 0.49666 0.60236 0.0
O84 O 0.63962 0.58926 0.75844 0.0
O85 O 0.60273 0.60152 0.71727 0.0
O86 O 0.66561 0.58864 0.63759 0.0
O87 O 0.64337 0.53403 0.65435 0.0
C88 C 0.66972 0.5611 0.63363 0.0
C89 C 0.54113 0.50219 0.61185 0.0
O90 O 0.58061 0.46742 0.69151 0.0
O91 O 0.58618 0.51476 0.74836 0.0
O92 O 0.5786 0.43933 0.57764 0.0
O93 O 0.62472 0.47876 0.53452 0.0
O94 O 0.55077 0.49337 0.56347 0.0
O95 O 0.56458 0.50969 0.65041 0.0
O96 O 0.59729 0.57562 0.5945 0.0
O97 O 0.6106 0.54066 0.53441 0.0
C98 C 0.57642 0.4803 0.74292 0.0
C99 C 0.60286 0.5668 0.54119 0.0
Dy100 Dy 0.0551 0.60432 1.01337 0.0
C101 C 0.15167 0.57959 0.88017 0.0
C102 C 0.02636 0.62686 0.09737 0.0
Dy103 Dy 0.09802 0.57689 0.94475 0.0
O104 O 0.05955 0.63604 0.09335 0.0
O105 O 0.00839 0.60513 1.05489 0.0
O106 O 0.08058 0.65388 0.9597 0.0
O107 O 0.1094 0.62809 0.98109 0.0
C108 C 0.11002 0.65346 0.95289 0.0
C109 C 0.04538 0.52757 1.0065 0.0
O110 O 0.12262 0.58479 1.03444 0.0
O111 O 0.07627 0.58437 0.08589 0.0
O112 O 0.13127 0.55345 0.9147 0.0
O113 O 0.14081 0.60265 0.87741 0.0
O114 O 0.07157 0.52318 0.98918 0.0
O115 O 0.04617 0.55373 0.98101 0.0
O116 O 0.01929 0.5821 0.93381 0.0
O117 O 0.05749 0.572 0.8744 0.0
C118 C 0.10518 0.58127 0.08423 0.0
C119 C 0.02734 0.57314 0.88207 0.0
Dy120 Dy 0.87419 0.52358 0.46013 0.0
C121 C 0.76693 0.42464 0.6087 0.0
C122 C 0.90788 0.57069 0.37212 0.0
Dy123 Dy 0.82257 0.45758 0.53424 0.0
O124 O 0.87397 0.5497 0.3762 0.0
O125 O 0.92405 0.56597 0.41648 0.0
O126 O 0.85247 0.55444 0.50672 0.0
O127 O 0.81965 0.49992 0.48862 0.0
C128 C 0.82113 0.52679 0.51264 0.0
C129 C 0.87149 0.45002 0.47987 0.0
O130 O 0.79923 0.43879 0.4439 0.0
O131 O 0.8491 0.47991 0.39178 0.0
O132 O 0.77901 0.40813 0.57617 0.0
O133 O 0.7867 0.45888 0.60295 0.0
O134 O 0.84297 0.4221 0.49993 0.0
O135 O 0.87423 0.47842 0.49999 0.0
O136 O 0.90871 0.53508 0.54111 0.0
O137 O 0.86653 0.49055 0.60209 0.0
C138 C 0.81794 0.44996 0.39433 0.0
C139 C 0.89889 0.51908 0.59357 0.0
Dy140 Dy 0.328 0.88712 0.78667 0.0
C141 C 0.32107 0.78087 0.9425 0.0
C142 C 0.32174 0.93034 0.7068 0.0
Dy143 Dy 0.33894 0.83276 0.86029 0.0
O144 O 0.30671 0.89594 0.70286 0.0
O145 O 0.34103 0.94152 0.754 0.0
O146 O 0.27522 0.86731 0.83104 0.0
O147 O 0.29488 0.83247 0.81527 0.0
C148 C 0.27025 0.83542 0.83855 0.0
C149 C 0.39552 0.87871 0.80339 0.0
O150 O 0.33232 0.80816 0.76956 0.0
O151 O 0.34116 0.85834 0.71684 0.0
O152 O 0.3488 0.79307 0.90843 0.0
O153 O 0.30359 0.79734 0.93155 0.0
O154 O 0.39277 0.84904 0.82297 0.0
O155 O 0.37211 0.88446 0.82542 0.0
O156 O 0.35077 0.9207 0.86825 0.0
O157 O 0.34973 0.87668 0.92873 0.0
C158 C 0.33897 0.82656 0.71947 0.0
C159 C 0.35481 0.90967 0.92081 0.0
Dy160 Dy 0.39549 0.33392 0.11248 0.0
C161 C 0.52076 0.37064 0.24186 0.0
C162 C 0.33164 0.30992 1.05835 0.0
Dy163 Dy 0.46061 0.35928 0.18453 0.0
O164 O 0.34418 0.29012 0.07688 0.0
O165 O 0.35411 0.34326 1.06942 0.0
O166 O 0.40441 0.29065 0.07784 0.0
O167 O 0.4168 0.30665 0.16567 0.0
C168 C 0.41721 0.28626 0.12638 0.0
C169 C 0.44454 0.41012 0.16168 0.0
O170 O 0.48402 0.36863 0.09043 0.0
O171 O 0.43544 0.36257 1.03838 0.0
O172 O 0.51807 0.39357 0.20873 0.0
O173 O 0.49053 0.34115 0.24299 0.0
O174 O 0.45456 0.40526 0.21306 0.0
O175 O 0.44075 0.38542 0.12836 0.0
O176 O 0.37621 0.34146 0.2027 0.0
O177 O 0.42303 0.34866 0.26083 0.0
C178 C 0.46981 0.37202 1.0401 0.0
C179 C 0.39102 0.34529 0.25561 0.0
Dy180 Dy 0.04536 0.42239 0.46555 0.0
C181 C 0.15487 0.53808 0.59215 0.0
C182 C 0.0121 0.37148 0.38232 0.0
Dy183 Dy 0.09645 0.49167 0.53125 0.0
O184 O 0.04612 0.39094 0.38858 0.0
O185 O -0.00427 0.37939 0.42259 0.0
O186 O 0.06289 0.39301 0.52435 0.0
O187 O 0.09918 0.44573 0.49915 0.0
C188 C 0.0947 0.41983 0.53053 0.0
C189 C 0.04872 0.4964 0.46686 0.0
O190 O 0.12084 0.50476 0.44094 0.0
O191 O 0.07168 0.46148 0.39103 0.0
O192 O 0.13248 0.54596 0.56812 0.0
O193 O 0.14373 0.50423 0.58666 0.0
O194 O 0.07797 0.52488 0.48232 0.0
O195 O 0.04483 0.46953 0.49455 0.0
O196 O 0.01063 0.41556 0.54431 0.0
O197 O 0.05396 0.46096 0.60272 0.0
C198 C 0.10278 0.49143 0.39153 0.0
C199 C 0.0211 0.4328 0.59568 0.0
Dy200 Dy 0.58983 0.06143 0.79841 0.0
C201 C 0.56818 0.16067 0.92986 0.0
C202 C 0.61722 0.03691 0.7146 0.0
Dy203 Dy 0.56201 0.10648 0.86132 0.0
O204 O 0.62845 0.06999 0.72735 0.0
O205 O 0.59088 0.01632 0.74915 0.0
O206 O 0.63804 0.08905 0.85524 0.0
O207 O 0.61233 0.11648 0.82571 0.0
C208 C 0.63752 0.11884 0.85625 0.0
C209 C 0.51379 0.0529 0.80094 0.0
O210 O 0.56666 0.12773 0.76892 0.0
O211 O 0.57105 0.08191 0.7226 0.0
O212 O 0.53908 0.13745 0.90382 0.0
O213 O 0.59332 0.15336 0.91983 0.0
O214 O 0.50956 0.07993 0.81472 0.0
O215 O 0.53937 0.05379 0.82847 0.0
O216 O 0.56815 0.027 0.8799 0.0
O217 O 0.5571 0.06666 0.93413 0.0
C218 C 0.5659 0.1098 0.7207 0.0
C219 C 0.5587 0.03637 0.93001 0.0
Dy220 Dy 0.54704 0.65313 0.10211 0.0
C221 C 0.42878 0.55778 0.2351 0.0
C222 C 0.59637 0.69536 1.02134 0.0
Dy223 Dy 0.48738 0.59473 0.16805 0.0
O224 O 0.566 0.69372 1.02994 0.0
O225 O 0.59999 0.67464 1.05876 0.0
O226 O 0.54799 0.6925 0.16564 0.0
O227 O 0.49909 0.64817 0.14207 0.0
C228 C 0.51408 0.67518 0.17479 0.0
C229 C 0.53815 0.58153 0.12658 0.0
O230 O 0.45791 0.58008 0.0839 0.0
O231 O 0.50532 0.62231 1.02899 0.0
O232 O 0.4426 0.54323 0.20191 0.0
O233 O 0.44676 0.59225 0.23045 0.0
O234 O 0.52082 0.56813 0.17536 0.0
O235 O 0.52456 0.59729 0.10125 0.0
O236 O 0.57498 0.64531 0.183 0.0
O237 O 0.52529 0.6214 0.24181 0.0
C238 C 0.47194 0.59463 1.03273 0.0
C239 C 0.55976 0.63428 0.23587 0.0
H240 H 0.38123 0.12981 0.18082 0.0
H241 H 0.45525 0.18406 0.32148 0.0
H242 H 0.46755 0.24179 0.28247 0.0
H243 H 0.45249 0.27594 0.21404 0.0
H244 H 0.38136 0.22248 1.06981 0.0
H245 H 0.37294 0.1651 0.10383 0.0
C246 C 0.40025 0.15439 0.20238 0.0
C247 C 0.41685 0.15305 0.25423 0.0
C248 C 0.40762 0.18738 0.17916 0.0
C249 C 0.44202 0.18475 0.28159 0.0
C250 C 0.44901 0.21765 0.25943 0.0
C251 C 0.43574 0.25183 0.18957 0.0
C252 C 0.41726 0.25318 0.14023 0.0
C253 C 0.43131 0.21918 0.20908 0.0
C254 C 0.3958 0.22191 0.10818 0.0
C255 C 0.39081 0.18913 0.12777 0.0
H256 H 0.19665 0.37461 0.64596 0.0
H257 H 0.27618 0.47435 0.57154 0.0
H258 H 0.22955 0.48653 0.53722 0.0
H259 H 0.16572 0.46593 0.52288 0.0
H260 H 0.0874 0.3665 0.60088 0.0
H261 H 0.13427 0.35691 0.63973 0.0
C262 C 0.20377 0.39903 0.62216 0.0
C263 C 0.23946 0.42332 0.61004 0.0
C264 C 0.17713 0.40576 0.60342 0.0
C265 C 0.24867 0.45528 0.58074 0.0
C266 C 0.22208 0.46213 0.56117 0.0
C267 C 0.15906 0.44255 0.54931 0.0
C268 C 0.12333 0.41681 0.55889 0.0
C269 C 0.18617 0.43722 0.57153 0.0
C270 C 0.11481 0.38648 0.59271 0.0
C271 C 0.14152 0.38097 0.61484 0.0
H272 H 0.75993 0.27611 0.89048 0.0
H273 H 0.81194 0.22281 0.96512 0.0
H274 H 0.75961 0.16483 0.94457 0.0
H275 H 0.69807 0.12979 0.90868 0.0
H276 H 0.646 0.18459 0.8378 0.0
H277 H 0.69857 0.24194 0.85727 0.0
C278 C 0.75939 0.252 0.90376 0.0
C279 C 0.78908 0.25374 0.9307 0.0
C280 C 0.72904 0.21916 0.89341 0.0
C281 C 0.78915 0.22204 0.94424 0.0
C282 C 0.75919 0.18897 0.93306 0.0
C283 C 0.69826 0.15435 0.89794 0.0
C284 C 0.66826 0.15312 0.87244 0.0
C285 C 0.72879 0.18726 0.90838 0.0
C286 C 0.66872 0.18497 0.85819 0.0
C287 C 0.69886 0.21775 0.86869 0.0
H288 H 0.51325 0.69085 0.28733 0.0
H289 H 0.47924 0.7025 0.11537 0.0
H290 H 0.47069 0.75129 0.15077 0.0
H291 H 0.48357 0.79696 0.22642 0.0
H292 H 0.51741 0.78458 0.3987 0.0
H293 H 0.51535 0.72953 0.36771 0.0
C294 C 0.50245 0.70316 0.25861 0.0
C295 C 0.49664 0.69351 0.1994 0.0
C296 C 0.49836 0.73142 0.27902 0.0
C297 C 0.48322 0.70951 0.16156 0.0
C298 C 0.4788 0.73762 0.18161 0.0
C299 C 0.48937 0.78157 0.25757 0.0
C300 C 0.50094 0.79476 0.31439 0.0
C301 C 0.48792 0.74984 0.23957 0.0
C302 C 0.50889 0.77501 0.35436 0.0
C303 C 0.50759 0.74351 0.33684 0.0
H304 H 0.67566 0.50418 0.60576 0.0
H305 H 0.73528 0.61896 0.61578 0.0
H306 H 0.78877 0.61849 0.58194 0.0
H307 H 0.81781 0.58483 0.54861 0.0
H308 H 0.75396 0.47123 0.52081 0.0
H309 H 0.70228 0.47165 0.56165 0.0
C310 C 0.70013 0.52912 0.59926 0.0
C311 C 0.70168 0.5615 0.61234 0.0
C312 C 0.72986 0.5287 0.57708 0.0
C313 C 0.73368 0.5937 0.60542 0.0
C314 C 0.76412 0.59343 0.58618 0.0
C315 C 0.79256 0.56024 0.55167 0.0
C316 C 0.7899 0.5278 0.53445 0.0
C317 C 0.76244 0.56101 0.57174 0.0
C318 C 0.7569 0.49626 0.53643 0.0
C319 C 0.72729 0.49651 0.55915 0.0
H320 H 0.25778 0.76855 0.85388 0.0
H321 H 0.20821 0.83363 0.86623 0.0
H322 H 0.1527 0.78161 0.89832 0.0
H323 H 0.11937 0.71817 0.92504 0.0
H324 H 0.17418 0.65795 0.93482 0.0
H325 H 0.22738 0.70797 0.89303 0.0
C326 C 0.23523 0.77167 0.86539 0.0
C327 C 0.23716 0.80487 0.8592 0.0
C328 C 0.2045 0.7425 0.88716 0.0
C329 C 0.20729 0.80826 0.87151 0.0
C330 C 0.17568 0.77862 0.88977 0.0
C331 C 0.14293 0.71598 0.91772 0.0
C332 C 0.14245 0.68389 0.92993 0.0
C333 C 0.17412 0.74568 0.89803 0.0
C334 C 0.17341 0.68171 0.92251 0.0
C335 C 0.20395 0.71047 0.89954 0.0
H336 H 0.61375 0.18366 1.01991 0.0
H337 H 0.52403 0.18769 0.94789 0.0
H338 H 0.50973 0.20135 1.04495 0.0
H339 H 0.51017 0.18972 0.14943 0.0
H340 H 0.59033 0.16895 0.21968 0.0
H341 H 0.6219 0.18548 0.12587 0.0
C342 C 0.59198 0.18904 1.02525 0.0
C343 C 0.56912 0.18354 0.97802 0.0
C344 C 0.58186 0.19302 0.08178 0.0
C345 C 0.54138 0.19107 0.98447 0.0
C346 C 0.53308 0.19854 1.03998 0.0
C347 C 0.53534 0.19025 0.14474 0.0
C348 C 0.54747 0.17701 0.18996 0.0
C349 C 0.55109 0.19611 0.0893 0.0
C350 C 0.58027 0.17832 0.18446 0.0
C351 C 0.59808 0.18747 0.13076 0.0
H352 H 0.40782 0.58826 0.31719 0.0
H353 H 0.39911 0.48792 0.26572 0.0
H354 H 0.37897 0.46436 0.36442 0.0
H355 H 0.37417 0.47616 0.46787 0.0
H356 H 0.38456 0.57664 0.5216 0.0
H357 H 0.39455 0.59702 0.4188 0.0
C358 C 0.4005 0.56089 0.32719 0.0
C359 C 0.40552 0.53996 0.28511 0.0
C360 C 0.39055 0.54822 0.38445 0.0
C361 C 0.39561 0.50446 0.29787 0.0
C362 C 0.38456 0.49119 0.35433 0.0
C363 C 0.37864 0.50254 0.4568 0.0
C364 C 0.3801 0.52567 0.5013 0.0
C365 C 0.38387 0.51354 0.39843 0.0
C366 C 0.38438 0.5591 0.48736 0.0
C367 C 0.3898 0.57048 0.42892 0.0
H368 H 0.74136 0.40196 0.86187 0.0
H369 H 0.72994 0.30077 0.8109 0.0
H370 H 0.71442 0.30843 0.71129 0.0
H371 H 0.72964 0.35462 0.63641 0.0
H372 H 0.74627 0.45799 0.68747 0.0
H373 H 0.73221 0.43838 0.78903 0.0
C374 C 0.73339 0.38079 0.82959 0.0
C375 C 0.73801 0.35169 0.84189 0.0
C376 C 0.7262 0.38628 0.77202 0.0
C377 C 0.72695 0.3237 0.80133 0.0
C378 C 0.71855 0.32833 0.74417 0.0
C379 C 0.72836 0.37214 0.66938 0.0
C380 C 0.74123 0.40818 0.65631 0.0
C381 C 0.72197 0.3612 0.72802 0.0
C382 C 0.738 0.43045 0.69786 0.0
C383 C 0.73017 0.41935 0.75599 0.0
H384 H 0.36016 0.75146 0.97945 0.0
H385 H 0.27319 0.76758 1.02924 0.0
H386 H 0.28421 0.76234 0.13261 0.0
H387 H 0.33033 0.77304 0.20517 0.0
H388 H 0.41789 0.75806 0.15601 0.0
H389 H 0.39457 0.74203 1.05624 0.0
C390 C 0.34268 0.7522 1.0129 0.0
C391 C 0.31713 0.76162 0.99752 0.0
C392 C 0.34983 0.75016 0.07233 0.0
C393 C 0.29381 0.76144 1.04056 0.0
C394 C 0.30025 0.75872 0.09972 0.0
C395 C 0.34325 0.76458 0.17319 0.0
C396 C 0.37612 0.76766 0.18654 0.0
C397 C 0.33005 0.75619 0.11589 0.0
C398 C 0.39264 0.75616 0.14588 0.0
C399 C 0.3795 0.74738 0.08873 0.0
H400 H 0.51732 0.33715 0.34393 0.0
H401 H 0.58727 0.42791 0.23794 0.0
H402 H 0.62626 0.45552 0.32225 0.0
H403 H 0.63137 0.4603 0.42935 0.0
H404 H 0.5565 0.37317 0.53706 0.0
H405 H 0.52926 0.33719 0.44934 0.0
C406 C 0.54181 0.36234 0.3389 0.0
C407 C 0.54925 0.38085 0.28537 0.0
C408 C 0.56293 0.37895 0.38839 0.0
C409 C 0.58094 0.41343 0.2791 0.0
C410 C 0.60309 0.42932 0.32739 0.0
C411 C 0.60999 0.43294 0.43363 0.0
C412 C 0.59542 0.41956 0.48925 0.0
C413 C 0.59307 0.41335 0.38295 0.0
C414 C 0.56785 0.38409 0.49446 0.0
C415 C 0.55205 0.36366 0.44428 0.0
H416 H 0.18973 0.62888 0.79896 0.0
H417 H 0.1729 0.52989 0.87299 0.0
H418 H 0.19162 0.51511 0.78114 0.0
H419 H 0.18539 0.51839 0.67532 0.0
H420 H 0.18632 0.61038 0.60042 0.0
H421 H 0.20338 0.64093 0.6949 0.0
C422 C 0.19167 0.60482 0.79549 0.0
C423 C 0.17795 0.57932 0.84032 0.0
C424 C 0.19911 0.5951 0.74111 0.0
C425 C 0.18199 0.54909 0.83744 0.0
C426 C 0.1925 0.54057 0.78482 0.0
C427 C 0.19107 0.54579 0.67931 0.0
C428 C 0.18259 0.56155 0.63304 0.0
C429 C 0.19689 0.56137 0.73493 0.0
C430 C 0.19135 0.59741 0.6369 0.0
C431 C 0.20075 0.61469 0.69103 0.0
H432 H 0.33956 0.89933 1.04044 0.0
H433 H 0.40027 -0.01857 0.91365 0.0
H434 H 0.42196 0.02656 0.99127 0.0
H435 H 0.42327 0.04383 0.09639 0.0
H436 H 0.35843 0.96219 0.22139 0.0
H437 H 0.33923 0.91685 0.14467 0.0
C438 C 0.35765 0.92706 1.02978 0.0
C439 C 0.36819 0.93656 0.9706 0.0
C440 C 0.36937 0.95348 0.07492 0.0
C441 C 0.3914 0.97296 0.95828 0.0
C442 C 0.40396 -0.001 1.00295 0.0
C443 C 0.40494 0.01615 0.10693 0.0
C444 C 0.39247 0.00692 0.16543 0.0
C445 C 0.39304 -0.01023 1.06162 0.0
C446 C 0.36847 0.97062 0.17726 0.0
C447 C 0.35745 0.94439 0.13313 0.0
H448 H 0.39137 0.32696 0.37358 0.0
H449 H 0.35218 0.37912 0.25913 0.0
H450 H 0.32877 0.39572 0.34375 0.0
H451 H 0.32158 0.39841 0.45155 0.0
H452 H 0.35516 0.34171 0.56654 0.0
H453 H 0.37791 0.32387 0.4817 0.0
C454 C 0.37734 0.34159 0.36702 0.0
C455 C 0.37377 0.35166 0.30903 0.0
C456 C 0.36275 0.35035 0.41656 0.0
C457 C 0.35527 0.37057 0.30236 0.0
C458 C 0.34193 0.38031 0.35113 0.0
C459 C 0.33326 0.38154 0.45812 0.0
C460 C 0.3362 0.37128 0.51613 0.0
C461 C 0.34571 0.37069 0.40859 0.0
C462 C 0.35178 0.34961 0.52296 0.0
C463 C 0.36517 0.33965 0.47415 0.0
H464 H 0.03031 0.44003 0.71764 0.0
H465 H 0.94896 0.39887 0.58451 0.0
H466 H 0.90304 0.37823 0.66005 0.0
H467 H 0.88473 0.37013 0.76529 0.0
H468 H -0.03408 0.40802 0.89858 0.0
H469 H 0.01194 0.43111 0.82305 0.0
C470 C 0.00257 0.42667 0.70504 0.0
C471 C -0.00637 0.42119 0.64456 0.0
C472 C -0.02432 0.41387 0.74942 0.0
C473 C 0.95718 0.40345 0.6301 0.0
C474 C 0.93061 0.39157 0.6736 0.0
C475 C 0.91246 0.38348 0.77795 0.0
C476 C 0.92129 0.38698 0.83846 0.0
C477 C 0.93935 0.39633 0.73362 0.0
C478 C 0.95774 0.40439 0.85298 0.0
C479 C -0.01563 0.41783 0.80947 0.0
H480 H 0.49195 0.90386 0.10954 0.0
H481 H 0.54971 -0.0121 0.23505 0.0
H482 H 0.5691 0.03237 0.15669 0.0
H483 H 0.57053 0.04844 1.05078 0.0
H484 H 0.51797 0.9639 0.92411 0.0
H485 H 0.49611 0.91963 1.00305 0.0
C486 C 0.50879 0.93188 0.11987 0.0
C487 C 0.51909 0.94206 0.17912 0.0
C488 C 0.52101 0.95772 0.07361 0.0
C489 C 0.54131 -0.02122 0.19051 0.0
C490 C 0.55243 0.00448 0.14538 0.0
C491 C 0.55426 0.02035 1.04039 0.0
C492 C 0.54597 0.00994 0.98073 0.0
C493 C 0.54259 -0.00555 0.08651 0.0
C494 C 0.5251 0.9731 0.96898 0.0
C495 C 0.51243 0.94756 1.01445 0.0
H496 H 0.62768 0.57565 0.42442 0.0
H497 H 0.56057 0.59643 0.53899 0.0
H498 H 0.54414 0.62143 0.45747 0.0
H499 H 0.54543 0.63478 0.35242 0.0
H500 H 0.61405 0.61801 0.23591 0.0
H501 H 0.63349 0.59511 0.31838 0.0
C502 C 0.60966 0.58586 0.43163 0.0
C503 C 0.59543 0.58375 0.48877 0.0
C504 C 0.60058 0.6013 0.3838 0.0
C505 C 0.57228 0.59756 0.49642 0.0
C506 C 0.56268 0.61195 0.44944 0.0
C507 C 0.56527 0.62687 0.34504 0.0
C508 C 0.57824 0.62844 0.28739 0.0
C509 C 0.57634 0.61374 0.39286 0.0
C510 C 0.60381 0.61773 0.27942 0.0
C511 C 0.61466 0.60417 0.32678 0.0
H512 H 0.03595 0.57775 0.76023 0.0
H513 H 0.9554 0.54 0.89486 0.0
H514 H 0.90907 0.51917 0.82004 0.0
H515 H 0.89038 0.51174 0.71516 0.0
H516 H -0.02891 0.55365 0.58071 0.0
H517 H 0.01732 0.5724 0.65534 0.0
C518 C 0.00828 0.56493 0.77326 0.0
C519 C -0.00039 0.56063 0.83386 0.0
C520 C -0.0187 0.55367 0.72944 0.0
C521 C -0.03668 0.5441 0.84909 0.0
C522 C 0.93656 0.532 0.80604 0.0
C523 C 0.91806 0.52503 0.70208 0.0
C524 C 0.92676 0.53115 0.64159 0.0
C525 C 0.94506 0.5367 0.74589 0.0
C526 C -0.03689 0.54867 0.6264 0.0
C527 C -0.01018 0.55938 0.66935 0.0
H528 H 0.49016 0.03268 0.43653 0.0
H529 H 0.38307 -0.00661 0.37681 0.0
H530 H 0.36488 0.93506 0.41693 0.0
H531 H 0.38772 0.89391 0.41514 0.0
H532 H 0.49752 0.93191 0.45206 0.0
H533 H 0.50661 -0.00948 0.47802 0.0
C534 C 0.46261 0.01159 0.43477 0.0
C535 C 0.43835 0.01601 0.4008 0.0
C536 C 0.45328 -0.02281 0.45278 0.0
C537 C 0.40233 -0.01022 0.40111 0.0
C538 C 0.39197 0.95626 0.42388 0.0
C539 C 0.4131 0.91461 0.43187 0.0
C540 C 0.44311 0.91102 0.4253 0.0
C541 C 0.41835 0.94876 0.4416 0.0
C542 C 0.47522 0.93623 0.45088 0.0
C543 C 0.48018 0.96953 0.46634 0.0
H544 H 0.38996 0.38091 0.67512 0.0
H545 H 0.41066 0.44862 0.82378 0.0
H546 H 0.47409 0.48132 0.80027 0.0
H547 H 0.51521 0.50469 0.71667 0.0
H548 H 0.48779 0.44603 0.55293 0.0
H549 H 0.43335 0.399 0.59664 0.0
C550 C 0.409 0.40215 0.70325 0.0
C551 C 0.3966 0.41765 0.74372 0.0
C552 C 0.44298 0.42481 0.68166 0.0
C553 C 0.42026 0.43987 0.78692 0.0
C554 C 0.45612 0.45951 0.77215 0.0
C555 C 0.49718 0.48172 0.6905 0.0
C556 C 0.50492 0.47911 0.63156 0.0
C557 C 0.46637 0.45496 0.71571 0.0
C558 C 0.48174 0.44907 0.59804 0.0
C559 C 0.45126 0.42164 0.6234 0.0
H560 H 0.91145 0.40034 0.07804 0.0
H561 H 0.8783 0.478 1.05122 0.0
H562 H 0.93783 0.52597 0.07604 0.0
H563 H -0.00064 0.54312 1.05666 0.0
H564 H 0.03221 0.46407 1.05439 0.0
H565 H -0.02608 0.41926 0.09116 0.0
C566 C 0.91715 0.42772 0.08005 0.0
C567 C 0.8922 0.43648 1.0589 0.0
C568 C 0.95202 0.45479 0.08733 0.0
C569 C 0.89814 0.47126 1.06496 0.0
C570 C 0.93222 0.49858 0.07851 0.0
C571 C -0.00597 0.51642 1.06641 0.0
C572 C 0.01842 0.5058 1.04949 0.0
C573 C 0.95985 0.49061 0.08199 0.0
C574 C 0.01271 0.47197 1.06475 0.0
C575 C -0.02054 0.44649 0.08563 0.0
H576 H -0.00218 0.43798 0.41614 0.0
H577 H 0.04146 0.5517 0.42422 0.0
H578 H -0.01654 0.54454 0.39955 0.0
H579 H 0.92103 0.50606 0.42198 0.0
H580 H 0.87826 0.39303 0.44438 0.0
H581 H 0.9341 0.39851 0.40936 0.0
C582 C -0.00532 0.46109 0.41028 0.0
C583 C 0.0224 0.4949 0.42576 0.0
C584 C 0.96083 0.45628 0.40326 0.0
C585 C 0.01957 0.52525 0.41488 0.0
C586 C -0.0136 0.52105 0.40134 0.0
C587 C 0.92366 0.48256 0.41722 0.0
C588 C 0.8971 0.44971 0.4389 0.0
C589 C 0.95655 0.48667 0.40286 0.0
C590 C 0.89938 0.41884 0.43009 0.0
C591 C 0.93124 0.42207 0.41025 0.0
H592 H 0.38753 0.92274 0.7311 0.0
H593 H 0.45959 0.88503 0.77502 0.0
H594 H 0.50978 0.94202 0.74449 0.0
H595 H 0.52903 0.00477 0.7582 0.0
H596 H 0.45474 0.04287 0.74158 0.0
H597 H 0.40972 -0.0154 0.70508 0.0
C598 C 0.41409 0.92652 0.73123 0.0
C599 C 0.42076 0.90162 0.75919 0.0
C600 C 0.44239 0.96018 0.71946 0.0
C601 C 0.45453 0.90511 0.75625 0.0
C602 C 0.48311 0.93772 0.73909 0.0
C603 C 0.5035 0.00062 0.74394 0.0
C604 C 0.4938 0.02638 0.75626 0.0
C605 C 0.47724 0.96644 0.72897 0.0
C606 C 0.46168 0.02221 0.73522 0.0
C607 C 0.43607 -0.01105 0.7145 0.0
H608 H 0.52042 0.55046 1.01956 0.0
H609 H 0.59641 0.57325 0.15534 0.0
H610 H 0.56944 0.50988 0.17886 0.0
H611 H 0.51153 0.45656 0.18873 0.0
H612 H 0.42645 0.43745 1.06981 0.0
H613 H 0.46645 0.49214 1.01567 0.0
C614 C 0.53167 0.54092 1.05273 0.0
C615 C 0.55531 0.56519 0.09376 0.0
C616 C 0.51148 0.50593 0.07269 0.0
C617 C 0.5745 0.55411 0.12879 0.0
C618 C 0.55834 0.51814 0.14363 0.0
C619 C 0.50144 0.46457 0.15161 0.0
C620 C 0.46557 0.44497 0.13559 0.0
C621 C 0.52431 0.49518 0.12124 0.0
C622 C 0.45352 0.45402 0.08486 0.0
C623 C 0.47655 0.48436 1.053 0.0
H624 H 0.28609 0.90892 0.60463 0.0
H625 H 0.3507 0.00251 0.70938 0.0
H626 H 0.35118 0.04069 0.62969 0.0
H627 H 0.34118 0.04723 0.52625 0.0
H628 H 0.28339 0.95385 0.41756 0.0
H629 H 0.27059 0.91551 0.50368 0.0
C630 C 0.29979 0.93766 0.61024 0.0
C631 C 0.31873 0.95309 0.66213 0.0
C632 C 0.30078 0.95931 0.56378 0.0
C633 C 0.33624 -0.00977 0.66937 0.0
C634 C 0.33643 0.01198 0.62397 0.0
C635 C 0.32475 0.01852 0.52172 0.0
C636 C 0.31348 0.00323 0.4658 0.0
C637 C 0.3198 -0.00319 0.57037 0.0
C638 C 0.29229 0.96609 0.46036 0.0
C639 C 0.28545 0.94422 0.50938 0.0
H640 H 0.28844 0.33721 1.03826 0.0
H641 H 0.31221 0.25627 0.98033 0.0
H642 H 0.28186 0.25057 0.88752 0.0
H643 H 0.26418 0.28111 0.81513 0.0
H644 H 0.23823 0.36032 0.87438 0.0
H645 H 0.25228 0.3531 0.97508 0.0
C646 C 0.28563 0.31736 1.00615 0.0
C647 C 0.30328 0.29804 1.01471 0.0
C648 C 0.26807 0.31416 0.95299 0.0
C649 C 0.2991 0.2718 0.97389 0.0
C650 C 0.28195 0.26866 0.92068 0.0
C651 C 0.25996 0.29543 0.85058 0.0
C652 C 0.25167 0.32213 0.83749 0.0
C653 C 0.26856 0.29151 0.90834 0.0
C654 C 0.24536 0.34006 0.88349 0.0
C655 C 0.25379 0.33628 0.94109 0.0
H656 H -0.03399 0.33975 0.12242 0.0
H657 H 0.86253 0.29157 0.2036 0.0
H658 H 0.88902 0.2976 0.30016 0.0
H659 H 0.94229 0.32705 0.36194 0.0
H660 H 0.04572 0.37369 0.28088 0.0
H661 H 0.01861 0.35699 0.18393 0.0
C662 C 0.94933 0.32969 0.16117 0.0
C663 C 0.91269 0.31608 0.15649 0.0
C664 C -0.0353 0.33324 0.21658 0.0
C665 C 0.891 0.30255 0.20651 0.0
C666 C 0.90609 0.30612 0.26177 0.0
C667 C 0.95873 0.33248 0.3231 0.0
C668 C -0.00429 0.35217 0.32801 0.0
C669 C 0.94302 0.323 0.2675 0.0
C670 C 0.01702 0.35878 0.27783 0.0
C671 C 0.0016 0.34949 0.22234 0.0
H672 H 0.6052 0.97104 0.68183 0.0
H673 H 0.64748 0.0792 0.62066 0.0
H674 H 0.64641 0.06012 0.51982 0.0
H675 H 0.62118 0.01084 0.4485 0.0
H676 H 0.58293 0.9033 0.50854 0.0
H677 H 0.59561 0.92395 0.61015 0.0
C678 C 0.6152 -0.00955 0.64651 0.0
C679 C 0.62545 0.02614 0.65818 0.0
C680 C 0.61505 -0.02058 0.58838 0.0
C681 C 0.63898 0.05137 0.61251 0.0
C682 C 0.63828 0.04052 0.55469 0.0
C683 C 0.61734 -0.00767 0.4837 0.0
C684 C 0.60105 0.95582 0.47167 0.0
C685 C 0.62466 0.00437 0.54191 0.0
C686 C 0.59583 0.93172 0.51715 0.0
C687 C 0.60256 0.94341 0.57534 0.0
H688 H 0.65523 0.69308 0.99241 0.0
H689 H 0.57567 0.71422 0.92077 0.0
H690 H 0.5829 0.69409 0.82417 0.0
H691 H 0.59871 0.65431 0.77024 0.0
H692 H 0.67421 0.62853 0.84629 0.0
H693 H 0.68157 0.66619 0.93085 0.0
C694 C 0.64068 0.69478 0.95496 0.0
C695 C 0.61391 0.70345 0.9638 0.0
C696 C 0.64317 0.68081 0.90088 0.0
C697 C 0.59592 0.70675 0.91506 0.0
C698 C 0.59956 0.6946 0.86002 0.0
C699 C 0.6173 0.65766 0.8048 0.0
C700 C 0.63491 0.63785 0.80347 0.0
C701 C 0.62085 0.67877 0.85396 0.0
C702 C 0.65962 0.64287 0.84746 0.0
C703 C 0.664 0.66451 0.89566 0.0
H704 H 0.95794 0.60884 0.11475 0.0
H705 H 0.06019 0.65622 0.19963 0.0
H706 H 0.03212 0.64821 0.2955 0.0
H707 H -0.0221 0.61633 0.35492 0.0
H708 H 0.87573 0.56913 0.26972 0.0
H709 H 0.9043 0.58903 0.17433 0.0
C710 C -0.02596 0.61841 0.15416 0.0
C711 C 0.01073 0.63214 0.15074 0.0
C712 C 0.95773 0.61325 0.20909 0.0
C713 C 0.03166 0.64505 0.20161 0.0
C714 C 0.01566 0.64029 0.25646 0.0
C715 C -0.03797 0.61135 0.31556 0.0
C716 C 0.92504 0.5906 0.31869 0.0
C717 C -0.02139 0.62261 0.26081 0.0
C718 C 0.90444 0.58467 0.26793 0.0
C719 C 0.9207 0.59591 0.21336 0.0
H720 H 0.52636 0.12269 0.45711 0.0
H721 H 0.4268 0.09689 0.53904 0.0
H722 H 0.4526 0.10015 0.63616 0.0
H723 H 0.50272 0.10688 0.69813 0.0
H724 H 0.5995 0.12522 0.61474 0.0
H725 H 0.57601 0.12883 0.51862 0.0
C726 C 0.51048 0.11852 0.49625 0.0
C727 C 0.47476 0.11032 0.49045 0.0
C728 C 0.52518 0.11909 0.55204 0.0
C729 C 0.45439 0.10374 0.54189 0.0
C730 C 0.46917 0.1055 0.59758 0.0
C731 C 0.51891 0.11247 0.65899 0.0
C732 C 0.55332 0.11684 0.66388 0.0
C733 C 0.50445 0.1128 0.60331 0.0
C734 C 0.57336 0.1226 0.61242 0.0
C735 C 0.55978 0.12441 0.55735 0.0
H736 H 0.39699 0.53597 0.78391 0.0
H737 H 0.32706 0.44551 0.89083 0.0
H738 H 0.36076 0.47707 0.97857 0.0
H739 H 0.41117 0.52943 1.02491 0.0
H740 H 0.48332 0.61865 0.91768 0.0
H741 H 0.44779 0.58844 0.83046 0.0
C742 C 0.38861 0.52323 0.82646 0.0
C743 C 0.35875 0.48829 0.83027 0.0
C744 C 0.40884 0.5413 0.87686 0.0
C745 C 0.34934 0.47229 0.88607 0.0
C746 C 0.36883 0.49037 0.93641 0.0
C747 C 0.41917 0.54263 0.98264 0.0
C748 C 0.45008 0.57681 0.97862 0.0
C749 C 0.39879 0.52477 0.93235 0.0
C750 C 0.45986 0.59268 0.92277 0.0
C751 C 0.43942 0.57531 0.8727 0.0
H752 H 0.81368 0.34081 0.20537 0.0
H753 H 0.79127 0.40649 0.09062 0.0
H754 H 0.79001 0.44108 0.17458 0.0
H755 H 0.80117 0.45664 0.28057 0.0
H756 H 0.81658 0.3868 0.39651 0.0
H757 H 0.8145 0.35004 0.31314 0.0
C758 C 0.80759 0.36209 0.19898 0.0
C759 C 0.80255 0.3709 0.14155 0.0
C760 C 0.80599 0.38149 0.24795 0.0
C761 C 0.79485 0.39872 0.13418 0.0
C762 C 0.79444 0.41883 0.18228 0.0
C763 C 0.8031 0.43282 0.28757 0.0
C764 C 0.80895 0.42444 0.34473 0.0
C765 C 0.80075 0.41102 0.23933 0.0
C766 C 0.81172 0.39366 0.35311 0.0
C767 C 0.81074 0.3727 0.3053 0.0
H768 H 0.38286 0.81111 0.46131 0.0
H769 H 0.48051 0.83802 0.55052 0.0
H770 H 0.45158 0.83173 0.64568 0.0
H771 H 0.40058 0.82584 0.70342 0.0
H772 H 0.30537 0.80634 0.61371 0.0
H773 H 0.33067 0.80188 0.51969 0.0
C774 C 0.39746 0.81442 0.50163 0.0
C775 C 0.43374 0.8243 0.49858 0.0
C776 C 0.38097 0.81235 0.55645 0.0
C777 C 0.45252 0.82985 0.55145 0.0
C778 C 0.43599 0.82649 0.60598 0.0
C779 C 0.38495 0.81938 0.66351 0.0
C780 C 0.35062 0.81528 0.66588 0.0
C781 C 0.40049 0.81867 0.6091 0.0
C782 C 0.33137 0.80858 0.61335 0.0
C783 C 0.34605 0.80641 0.55945 0.0
H784 H 0.58576 0.48859 0.86451 0.0
H785 H 0.51662 0.41459 0.73374 0.0
H786 H 0.47735 0.3754 0.81116 0.0
H787 H 0.46117 0.36191 0.91787 0.0
H788 H 0.53379 0.43312 1.0482 0.0
H789 H 0.57233 0.47266 0.97074 0.0
C790 C 0.56238 0.46364 0.85281 0.0
C791 C 0.55477 0.45479 0.79236 0.0
C792 C 0.5401 0.44032 0.89828 0.0
C793 C 0.52394 0.4222 0.77916 0.0
C794 C 0.50114 0.3997 0.82381 0.0
C795 C 0.48563 0.38584 0.92942 0.0
C796 C 0.4943 0.39395 0.98985 0.0
C797 C 0.50874 0.40836 0.8838 0.0
C798 C 0.52631 0.42545 1.00284 0.0
C799 C 0.54846 0.44839 0.95817 0.0
H800 H 0.10283 0.47435 0.27536 0.0
H801 H 0.12224 0.56153 0.39046 0.0
H802 H 0.12557 0.598 0.30618 0.0
H803 H 0.11764 0.60334 0.19926 0.0
H804 H 0.1063 0.51929 0.08349 0.0
H805 H 0.10544 0.48376 0.16751 0.0
C806 C 0.10869 0.50164 0.28176 0.0
C807 C 0.11228 0.51512 0.33923 0.0
C808 C 0.11175 0.52306 0.2327 0.0
C809 C 0.11973 0.55054 0.34678 0.0
C810 C 0.12136 0.5714 0.29851 0.0
C811 C 0.11587 0.57763 0.19253 0.0
C812 C 0.112 0.564 0.13515 0.0
C813 C 0.1167 0.55773 0.24123 0.0
C814 C 0.10959 0.53056 0.12709 0.0
C815 C 0.10888 0.51007 0.17525 0.0
loop_
_geom_bond_atom_site_label_1
_geom_bond_atom_site_label_2
_geom_bond_distance
_geom_bond_site_symmetry_2
_ccdc_geom_bond_type
Dy0 O4 2.398 . S
Dy0 O5 2.491 . S
Dy0 O6 2.403 . S
Dy0 O7 2.664 . S
Dy0 O11 2.326 . S
Dy0 O15 2.310 . S
Dy0 O16 2.351 . S
C1 O12 1.185 . S
C1 O13 1.355 . S
C2 O4 1.185 . S
C2 O5 1.355 . S
Dy3 O7 2.310 . S
Dy3 O10 2.351 . S
Dy3 O12 2.398 . S
Dy3 O13 2.491 . S
Dy3 O14 2.403 . S
Dy3 O15 2.664 . S
Dy3 O17 2.326 . S
O4 Dy0 2.398 . S
O4 C2 1.185 . S
O5 Dy0 2.491 . S
O5 C2 1.355 . S
O6 Dy0 2.403 . S
O6 C8 1.254 . S
O7 Dy0 2.664 . S
O7 Dy3 2.310 . S
O7 C8 1.268 . S
C8 O6 1.254 . S
C8 O7 1.268 . S
C9 O14 1.254 . S
C9 O15 1.268 . S
O10 Dy3 2.351 . S
O10 C18 1.249 . S
O11 Dy0 2.326 . S
O11 C18 1.267 . S
O12 C1 1.185 . S
O12 Dy3 2.398 . S
O13 C1 1.355 . S
O13 Dy3 2.491 . S
O14 Dy3 2.403 . S
O14 C9 1.254 . S
O15 Dy0 2.310 . S
O15 Dy3 2.664 . S
O15 C9 1.268 . S
O16 Dy0 2.351 . S
O16 C19 1.249 . S
O17 Dy3 2.326 . S
O17 C19 1.267 . S
C18 O10 1.249 . S
C18 O11 1.267 . S
C19 O16 1.249 . S
C19 O17 1.267 . S
Dy20 O24 2.398 . S
Dy20 O25 2.491 . S
Dy20 O26 2.403 . S
Dy20 O27 2.664 . S
Dy20 O31 2.326 . S
Dy20 O35 2.310 . S
Dy20 O36 2.351 . S
C21 O32 1.185 . S
C21 O33 1.355 . S
C22 O24 1.185 . S
C22 O25 1.355 . S
Dy23 O27 2.310 . S
Dy23 O30 2.351 . S
Dy23 O32 2.398 . S
Dy23 O33 2.491 . S
Dy23 O34 2.403 . S
Dy23 O35 2.664 . S
Dy23 O37 2.326 . S
O24 Dy20 2.398 . S
O24 C22 1.185 . S
O25 Dy20 2.491 . S
O25 C22 1.355 . S
O26 Dy20 2.403 . S
O26 C28 1.254 . S
O27 Dy20 2.664 . S
O27 Dy23 2.310 . S
O27 C28 1.268 . S
C28 O26 1.254 . S
C28 O27 1.268 . S
C29 O34 1.254 . S
C29 O35 1.268 . S
O30 Dy23 2.351 . S
O30 C38 1.249 . S
O31 Dy20 2.326 . S
O31 C38 1.267 . S
O32 C21 1.185 . S
O32 Dy23 2.398 . S
O33 C21 1.355 . S
O33 Dy23 2.491 . S
O34 Dy23 2.403 . S
O34 C29 1.254 . S
O35 Dy20 2.310 . S
O35 Dy23 2.664 . S
O35 C29 1.268 . S
O36 Dy20 2.351 . S
O36 C39 1.249 . S
O37 Dy23 2.326 . S
O37 C39 1.267 . S
C38 O30 1.249 . S
C38 O31 1.267 . S
C39 O36 1.249 . S
C39 O37 1.267 . S
Dy40 O44 2.398 1_556 S
Dy40 O45 2.491 1_556 S
Dy40 O46 2.403 . S
Dy40 O47 2.664 . S
Dy40 O51 2.335 . S
Dy40 O55 2.310 . S
Dy40 O56 2.351 . S
C41 O52 1.185 . S
C41 O53 1.355 . S
C42 O44 1.185 . S
C42 O45 1.355 . S
Dy43 O47 2.310 . S
Dy43 O50 2.351 . S
Dy43 O52 2.398 . S
Dy43 O53 2.491 . S
Dy43 O54 2.403 . S
Dy43 O55 2.664 . S
Dy43 O57 2.326 . S
O44 Dy40 2.398 1_554 S
O44 C42 1.185 . S
O45 Dy40 2.491 1_554 S
O45 C42 1.355 . S
O46 Dy40 2.403 . S
O46 C48 1.254 . S
O47 Dy40 2.664 . S
O47 Dy43 2.310 . S
O47 C48 1.268 . S
C48 O46 1.254 . S
C48 O47 1.268 . S
C49 O54 1.254 . S
C49 O55 1.268 . S
O50 Dy43 2.351 . S
O50 C58 1.266 . S
O51 Dy40 2.335 . S
O51 C58 1.267 . S
O52 C41 1.185 . S
O52 Dy43 2.398 . S
O53 C41 1.355 . S
O53 Dy43 2.491 . S
O54 Dy43 2.403 . S
O54 C49 1.254 . S
O55 Dy40 2.310 . S
O55 Dy43 2.664 . S
O55 C49 1.268 . S
O56 Dy40 2.351 . S
O56 C59 1.249 . S
O57 Dy43 2.326 . S
O57 C59 1.267 . S
C58 O50 1.266 . S
C58 O51 1.267 . S
C59 O56 1.249 . S
C59 O57 1.267 . S
Dy60 O64 2.398 . S
Dy60 O65 2.491 . S
Dy60 O66 2.403 . S
Dy60 O67 2.664 . S
Dy60 O71 2.326 . S
Dy60 O75 2.310 . S
Dy60 O76 2.351 . S
C61 O72 1.185 . S
C61 O73 1.355 . S
C62 O64 1.185 . S
C62 O65 1.355 . S
Dy63 O67 2.310 . S
Dy63 O70 2.351 . S
Dy63 O72 2.398 . S
Dy63 O73 2.491 . S
Dy63 O74 2.403 . S
Dy63 O75 2.664 . S
Dy63 O77 2.326 . S
O64 Dy60 2.398 . S
O64 C62 1.185 . S
O65 Dy60 2.491 . S
O65 C62 1.355 . S
O66 Dy60 2.403 . S
O66 C68 1.254 . S
O67 Dy60 2.664 . S
O67 Dy63 2.310 . S
O67 C68 1.268 . S
C68 O66 1.254 . S
C68 O67 1.268 . S
C69 O74 1.254 . S
C69 O75 1.268 . S
O70 Dy63 2.351 . S
O70 C78 1.249 . S
O71 Dy60 2.326 . S
O71 C78 1.267 . S
O72 C61 1.185 . S
O72 Dy63 2.398 . S
O73 C61 1.355 . S
O73 Dy63 2.491 . S
O74 Dy63 2.403 . S
O74 C69 1.254 . S
O75 Dy60 2.310 . S
O75 Dy63 2.664 . S
O75 C69 1.268 . S
O76 Dy60 2.351 . S
O76 C79 1.249 . S
O77 Dy63 2.326 . S
O77 C79 1.267 . S
C78 O70 1.249 . S
C78 O71 1.267 . S
C79 O76 1.249 . S
C79 O77 1.267 . S
Dy80 O84 2.398 . S
Dy80 O85 2.491 . S
Dy80 O86 2.403 . S
Dy80 O87 2.664 . S
Dy80 O91 2.326 . S
Dy80 O95 2.310 . S
Dy80 O96 2.351 . S
C81 O92 1.185 . S
C81 O93 1.355 . S
C82 O84 1.185 . S
C82 O85 1.355 . S
Dy83 O87 2.310 . S
Dy83 O90 2.351 . S
Dy83 O92 2.398 . S
Dy83 O93 2.491 . S
Dy83 O94 2.403 . S
Dy83 O95 2.664 . S
Dy83 O97 2.326 . S
O84 Dy80 2.398 . S
O84 C82 1.185 . S
O85 Dy80 2.491 . S
O85 C82 1.355 . S
O86 Dy80 2.403 . S
O86 C88 1.254 . S
O87 Dy80 2.664 . S
O87 Dy83 2.310 . S
O87 C88 1.268 . S
C88 O86 1.254 . S
C88 O87 1.268 . S
C89 O94 1.254 . S
C89 O95 1.268 . S
O90 Dy83 2.351 . S
O90 C98 1.249 . S
O91 Dy80 2.326 . S
O91 C98 1.267 . S
O92 C81 1.185 . S
O92 Dy83 2.398 . S
O93 C81 1.355 . S
O93 Dy83 2.491 . S
O94 Dy83 2.403 . S
O94 C89 1.254 . S
O95 Dy80 2.310 . S
O95 Dy83 2.664 . S
O95 C89 1.268 . S
O96 Dy80 2.351 . S
O96 C99 1.249 . S
O97 Dy83 2.326 . S
O97 C99 1.267 . S
C98 O90 1.249 . S
C98 O91 1.267 . S
C99 O96 1.249 . S
C99 O97 1.267 . S
Dy100 O104 2.398 1_556 S
Dy100 O105 2.491 1_556 S
Dy100 O106 2.403 . S
Dy100 O107 2.664 . S
Dy100 O111 2.335 . S
Dy100 O115 2.310 . S
Dy100 O116 2.351 . S
C101 O112 1.185 . S
C101 O113 1.355 . S
C102 O104 1.185 . S
C102 O105 1.355 . S
Dy103 O107 2.310 . S
Dy103 O110 2.351 . S
Dy103 O112 2.398 . S
Dy103 O113 2.491 . S
Dy103 O114 2.403 . S
Dy103 O115 2.664 . S
Dy103 O117 2.326 . S
O104 Dy100 2.398 1_554 S
O104 C102 1.185 . S
O105 Dy100 2.491 1_554 S
O105 C102 1.355 . S
O106 Dy100 2.403 . S
O106 C108 1.254 . S
O107 Dy100 2.664 . S
O107 Dy103 2.310 . S
O107 C108 1.268 . S
C108 O106 1.254 . S
C108 O107 1.268 . S
C109 O114 1.254 . S
C109 O115 1.268 . S
O110 Dy103 2.351 . S
O110 C118 1.266 . S
O111 Dy100 2.335 . S
O111 C118 1.267 . S
O112 C101 1.185 . S
O112 Dy103 2.398 . S
O113 C101 1.355 . S
O113 Dy103 2.491 . S
O114 Dy103 2.403 . S
O114 C109 1.254 . S
O115 Dy100 2.310 . S
O115 Dy103 2.664 . S
O115 C109 1.268 . S
O116 Dy100 2.351 . S
O116 C119 1.249 . S
O117 Dy103 2.326 . S
O117 C119 1.267 . S
C118 O110 1.266 . S
C118 O111 1.267 . S
C119 O116 1.249 . S
C119 O117 1.267 . S
Dy120 O124 2.398 . S
Dy120 O125 2.491 . S
Dy120 O126 2.403 . S
Dy120 O127 2.664 . S
Dy120 O131 2.326 . S
Dy120 O135 2.310 . S
Dy120 O136 2.351 . S
C121 O132 1.185 . S
C121 O133 1.355 . S
C122 O124 1.185 . S
C122 O125 1.355 . S
Dy123 O127 2.310 . S
Dy123 O130 2.351 . S
Dy123 O132 2.398 . S
Dy123 O133 2.491 . S
Dy123 O134 2.403 . S
Dy123 O135 2.664 . S
Dy123 O137 2.326 . S
O124 Dy120 2.398 . S
O124 C122 1.185 . S
O125 Dy120 2.491 . S
O125 C122 1.355 . S
O126 Dy120 2.403 . S
O126 C128 1.254 . S
O127 Dy120 2.664 . S
O127 Dy123 2.310 . S
O127 C128 1.268 . S
C128 O126 1.254 . S
C128 O127 1.268 . S
C129 O134 1.254 . S
C129 O135 1.268 . S
O130 Dy123 2.351 . S
O130 C138 1.249 . S
O131 Dy120 2.326 . S
O131 C138 1.267 . S
O132 C121 1.185 . S
O132 Dy123 2.398 . S
O133 C121 1.355 . S
O133 Dy123 2.491 . S
O134 Dy123 2.403 . S
O134 C129 1.254 . S
O135 Dy120 2.310 . S
O135 Dy123 2.664 . S
O135 C129 1.268 . S
O136 Dy120 2.351 . S
O136 C139 1.249 . S
O137 Dy123 2.326 . S
O137 C139 1.267 . S
C138 O130 1.249 . S
C138 O131 1.267 . S
C139 O136 1.249 . S
C139 O137 1.267 . S
Dy140 O144 2.398 . S
Dy140 O145 2.491 . S
Dy140 O146 2.403 . S
Dy140 O147 2.664 . S
Dy140 O151 2.326 . S
Dy140 O155 2.310 . S
Dy140 O156 2.351 . S
C141 O152 1.185 . S
C141 O153 1.355 . S
C142 O144 1.185 . S
C142 O145 1.355 . S
Dy143 O147 2.310 . S
Dy143 O150 2.351 . S
Dy143 O152 2.398 . S
Dy143 O153 2.491 . S
Dy143 O154 2.403 . S
Dy143 O155 2.664 . S
Dy143 O157 2.326 . S
O144 Dy140 2.398 . S
O144 C142 1.185 . S
O145 Dy140 2.491 . S
O145 C142 1.355 . S
O146 Dy140 2.403 . S
O146 C148 1.254 . S
O147 Dy140 2.664 . S
O147 Dy143 2.310 . S
O147 C148 1.268 . S
C148 O146 1.254 . S
C148 O147 1.268 . S
C149 O154 1.254 . S
C149 O155 1.268 . S
O150 Dy143 2.351 . S
O150 C158 1.249 . S
O151 Dy140 2.326 . S
O151 C158 1.267 . S
O152 C141 1.185 . S
O152 Dy143 2.398 . S
O153 C141 1.355 . S
O153 Dy143 2.491 . S
O154 Dy143 2.403 . S
O154 C149 1.254 . S
O155 Dy140 2.310 . S
O155 Dy143 2.664 . S
O155 C149 1.268 . S
O156 Dy140 2.351 . S
O156 C159 1.249 . S
O157 Dy143 2.326 . S
O157 C159 1.267 . S
C158 O150 1.249 . S
C158 O151 1.267 . S
C159 O156 1.249 . S
C159 O157 1.267 . S
Dy160 O164 2.398 1_554 S
Dy160 O165 2.491 1_554 S
Dy160 O166 2.403 . S
Dy160 O167 2.664 . S
Dy160 O171 2.335 . S
Dy160 O175 2.310 . S
Dy160 O176 2.351 . S
C161 O172 1.185 . S
C161 O173 1.355 . S
C162 O164 1.185 . S
C162 O165 1.355 . S
Dy163 O167 2.310 . S
Dy163 O170 2.351 . S
Dy163 O172 2.398 . S
Dy163 O173 2.491 . S
Dy163 O174 2.403 . S
Dy163 O175 2.664 . S
Dy163 O177 2.326 . S
O164 Dy160 2.398 1_556 S
O164 C162 1.185 . S
O165 Dy160 2.491 1_556 S
O165 C162 1.355 . S
O166 Dy160 2.403 . S
O166 C168 1.254 . S
O167 Dy160 2.664 . S
O167 Dy163 2.310 . S
O167 C168 1.268 . S
C168 O166 1.254 . S
C168 O167 1.268 . S
C169 O174 1.254 . S
C169 O175 1.268 . S
O170 Dy163 2.351 . S
O170 C178 1.266 . S
O171 Dy160 2.335 . S
O171 C178 1.267 . S
O172 C161 1.185 . S
O172 Dy163 2.398 . S
O173 C161 1.355 . S
O173 Dy163 2.491 . S
O174 Dy163 2.403 . S
O174 C169 1.254 . S
O175 Dy160 2.310 . S
O175 Dy163 2.664 . S
O175 C169 1.268 . S
O176 Dy160 2.351 . S
O176 C179 1.249 . S
O177 Dy163 2.326 . S
O177 C179 1.267 . S
C178 O170 1.266 . S
C178 O171 1.267 . S
C179 O176 1.249 . S
C179 O177 1.267 . S
Dy180 O184 2.398 . S
Dy180 O185 2.491 . S
Dy180 O186 2.403 . S
Dy180 O187 2.664 . S
Dy180 O191 2.326 . S
Dy180 O195 2.310 . S
Dy180 O196 2.351 . S
C181 O192 1.185 . S
C181 O193 1.355 . S
C182 O184 1.185 . S
C182 O185 1.355 . S
Dy183 O187 2.310 . S
Dy183 O190 2.351 . S
Dy183 O192 2.398 . S
Dy183 O193 2.491 . S
Dy183 O194 2.403 . S
Dy183 O195 2.664 . S
Dy183 O197 2.326 . S
O184 Dy180 2.398 . S
O184 C182 1.185 . S
O185 Dy180 2.491 . S
O185 C182 1.355 . S
O186 Dy180 2.403 . S
O186 C188 1.254 . S
O187 Dy180 2.664 . S
O187 Dy183 2.310 . S
O187 C188 1.268 . S
C188 O186 1.254 . S
C188 O187 1.268 . S
C189 O194 1.254 . S
C189 O195 1.268 . S
O190 Dy183 2.351 . S
O190 C198 1.249 . S
O191 Dy180 2.326 . S
O191 C198 1.267 . S
O192 C181 1.185 . S
O192 Dy183 2.398 . S
O193 C181 1.355 . S
O193 Dy183 2.491 . S
O194 Dy183 2.403 . S
O194 C189 1.254 . S
O195 Dy180 2.310 . S
O195 Dy183 2.664 . S
O195 C189 1.268 . S
O196 Dy180 2.351 . S
O196 C199 1.249 . S
O197 Dy183 2.326 . S
O197 C199 1.267 . S
C198 O190 1.249 . S
C198 O191 1.267 . S
C199 O196 1.249 . S
C199 O197 1.267 . S
Dy200 O204 2.398 . S
Dy200 O205 2.491 . S
Dy200 O206 2.403 . S
Dy200 O207 2.664 . S
Dy200 O211 2.326 . S
Dy200 O215 2.310 . S
Dy200 O216 2.351 . S
C201 O212 1.185 . S
C201 O213 1.355 . S
C202 O204 1.185 . S
C202 O205 1.355 . S
Dy203 O207 2.310 . S
Dy203 O210 2.351 . S
Dy203 O212 2.398 . S
Dy203 O213 2.491 . S
Dy203 O214 2.403 . S
Dy203 O215 2.664 . S
Dy203 O217 2.326 . S
O204 Dy200 2.398 . S
O204 C202 1.185 . S
O205 Dy200 2.491 . S
O205 C202 1.355 . S
O206 Dy200 2.403 . S
O206 C208 1.254 . S
O207 Dy200 2.664 . S
O207 Dy203 2.310 . S
O207 C208 1.268 . S
C208 O206 1.254 . S
C208 O207 1.268 . S
C209 O214 1.254 . S
C209 O215 1.268 . S
O210 Dy203 2.351 . S
O210 C218 1.249 . S
O211 Dy200 2.326 . S
O211 C218 1.267 . S
O212 C201 1.185 . S
O212 Dy203 2.398 . S
O213 C201 1.355 . S
O213 Dy203 2.491 . S
O214 Dy203 2.403 . S
O214 C209 1.254 . S
O215 Dy200 2.310 . S
O215 Dy203 2.664 . S
O215 C209 1.268 . S
O216 Dy200 2.351 . S
O216 C219 1.249 . S
O217 Dy203 2.326 . S
O217 C219 1.267 . S
C218 O210 1.249 . S
C218 O211 1.267 . S
C219 O216 1.249 . S
C219 O217 1.267 . S
Dy220 O224 2.398 1_554 S
Dy220 O225 2.491 1_554 S
Dy220 O226 2.403 . S
Dy220 O227 2.664 . S
Dy220 O231 2.335 . S
Dy220 O235 2.310 . S
Dy220 O236 2.351 . S
C221 O232 1.185 . S
C221 O233 1.355 . S
C222 O224 1.185 . S
C222 O225 1.355 . S
Dy223 O227 2.310 . S
Dy223 O230 2.351 . S
Dy223 O232 2.398 . S
Dy223 O233 2.491 . S
Dy223 O234 2.403 . S
Dy223 O235 2.664 . S
Dy223 O237 2.326 . S
O224 Dy220 2.398 1_556 S
O224 C222 1.185 . S
O225 Dy220 2.491 1_556 S
O225 C222 1.355 . S
O226 Dy220 2.403 . S
O226 C228 1.254 . S
O227 Dy220 2.664 . S
O227 Dy223 2.310 . S
O227 C228 1.268 . S
C228 O226 1.254 . S
C228 O227 1.268 . S
C229 O234 1.254 . S
C229 O235 1.268 . S
O230 Dy223 2.351 . S
O230 C238 1.266 . S
O231 Dy220 2.335 . S
O231 C238 1.267 . S
O232 C221 1.185 . S
O232 Dy223 2.398 . S
O233 C221 1.355 . S
O233 Dy223 2.491 . S
O234 Dy223 2.403 . S
O234 C229 1.254 . S
O235 Dy220 2.310 . S
O235 Dy223 2.664 . S
O235 C229 1.268 . S
O236 Dy220 2.351 . S
O236 C239 1.249 . S
O237 Dy223 2.326 . S
O237 C239 1.267 . S
C238 O230 1.266 . S
C238 O231 1.267 . S
C239 O236 1.249 . S
C239 O237 1.267 . S
H240 C246 0.930 . S
H241 C249 0.930 . S
H242 C250 0.930 . S
H243 C251 0.930 . S
H244 C254 0.930 . S
H245 C255 0.930 . S
C246 H240 0.930 . S
C246 C247 1.355 . S
C246 C248 1.415 . S
C247 C246 1.355 . S
C247 C249 1.419 . S
C248 C246 1.415 . S
C248 C253 1.425 . S
C248 C255 1.409 . S
C249 H241 0.930 . S
C249 C247 1.419 . S
C249 C250 1.362 . S
C250 H242 0.930 . S
C250 C249 1.362 . S
C250 C253 1.409 . S
C251 H243 0.930 . S
C251 C252 1.355 . S
C251 C253 1.415 . S
C252 C251 1.355 . S
C252 C254 1.419 . S
C253 C248 1.425 . S
C253 C250 1.409 . S
C253 C251 1.415 . S
C254 H244 0.930 . S
C254 C252 1.419 . S
C254 C255 1.362 . S
C255 H245 0.930 . S
C255 C248 1.409 . S
C255 C254 1.362 . S
H256 C262 0.930 . S
H257 C265 0.930 . S
H258 C266 0.930 . S
H259 C267 0.930 . S
H260 C270 0.930 . S
H261 C271 0.930 . S
C262 H256 0.930 . S
C262 C263 1.355 . S
C262 C264 1.415 . S
C263 C262 1.355 . S
C263 C265 1.419 . S
C264 C262 1.415 . S
C264 C269 1.425 . S
C264 C271 1.409 . S
C265 H257 0.930 . S
C265 C263 1.419 . S
C265 C266 1.362 . S
C266 H258 0.930 . S
C266 C265 1.362 . S
C266 C269 1.409 . S
C267 H259 0.930 . S
C267 C268 1.355 . S
C267 C269 1.415 . S
C268 C267 1.355 . S
C268 C270 1.419 . S
C269 C264 1.425 . S
C269 C266 1.409 . S
C269 C267 1.415 . S
C270 H260 0.930 . S
C270 C268 1.419 . S
C270 C271 1.362 . S
C271 H261 0.930 . S
C271 C264 1.409 . S
C271 C270 1.362 . S
H272 C278 0.930 . S
H273 C281 0.930 . S
H274 C282 0.930 . S
H275 C283 0.930 . S
H276 C286 0.930 . S
H277 C287 0.930 . S
C278 H272 0.930 . S
C278 C279 1.355 . S
C278 C280 1.415 . S
C279 C278 1.355 . S
C279 C281 1.419 . S
C280 C278 1.415 . S
C280 C285 1.425 . S
C280 C287 1.409 . S
C281 H273 0.930 . S
C281 C279 1.419 . S
C281 C282 1.362 . S
C282 H274 0.930 . S
C282 C281 1.362 . S
C282 C285 1.409 . S
C283 H275 0.930 . S
C283 C284 1.355 . S
C283 C285 1.415 . S
C284 C283 1.355 . S
C284 C286 1.419 . S
C285 C280 1.425 . S
C285 C282 1.409 . S
C285 C283 1.415 . S
C286 H276 0.930 . S
C286 C284 1.419 . S
C286 C287 1.362 . S
C287 H277 0.930 . S
C287 C280 1.409 . S
C287 C286 1.362 . S
H288 C294 0.930 . S
H289 C297 0.930 . S
H290 C298 0.930 . S
H291 C299 0.930 . S
H292 C302 0.930 . S
H293 C303 0.930 . S
C294 H288 0.930 . S
C294 C295 1.355 . S
C294 C296 1.415 . S
C295 C294 1.355 . S
C295 C297 1.419 . S
C296 C294 1.415 . S
C296 C301 1.425 . S
C296 C303 1.409 . S
C297 H289 0.930 . S
C297 C295 1.419 . S
C297 C298 1.362 . S
C298 H290 0.930 . S
C298 C297 1.362 . S
C298 C301 1.409 . S
C299 H291 0.930 . S
C299 C300 1.355 . S
C299 C301 1.415 . S
C300 C299 1.355 . S
C300 C302 1.419 . S
C301 C296 1.425 . S
C301 C298 1.409 . S
C301 C299 1.415 . S
C302 H292 0.930 . S
C302 C300 1.419 . S
C302 C303 1.362 . S
C303 H293 0.930 . S
C303 C296 1.409 . S
C303 C302 1.362 . S
H304 C310 0.930 . S
H305 C313 0.930 . S
H306 C314 0.930 . S
H307 C315 0.930 . S
H308 C318 0.930 . S
H309 C319 0.930 . S
C310 H304 0.930 . S
C310 C311 1.355 . S
C310 C312 1.415 . S
C311 C310 1.355 . S
C311 C313 1.419 . S
C312 C310 1.415 . S
C312 C317 1.425 . S
C312 C319 1.409 . S
C313 H305 0.930 . S
C313 C311 1.419 . S
C313 C314 1.362 . S
C314 H306 0.930 . S
C314 C313 1.362 . S
C314 C317 1.409 . S
C315 H307 0.930 . S
C315 C316 1.355 . S
C315 C317 1.415 . S
C316 C315 1.355 . S
C316 C318 1.419 . S
C317 C312 1.425 . S
C317 C314 1.409 . S
C317 C315 1.415 . S
C318 H308 0.930 . S
C318 C316 1.419 . S
C318 C319 1.362 . S
C319 H309 0.930 . S
C319 C312 1.409 . S
C319 C318 1.362 . S
H320 C326 0.930 . S
H321 C329 0.930 . S
H322 C330 0.930 . S
H323 C331 0.930 . S
H324 C334 0.930 . S
H325 C335 0.930 . S
C326 H320 0.930 . S
C326 C327 1.355 . S
C326 C328 1.415 . S
C327 C326 1.355 . S
C327 C329 1.419 . S
C328 C326 1.415 . S
C328 C333 1.425 . S
C328 C335 1.409 . S
C329 H321 0.930 . S
C329 C327 1.419 . S
C329 C330 1.362 . S
C330 H322 0.930 . S
C330 C329 1.362 . S
C330 C333 1.409 . S
C331 H323 0.930 . S
C331 C332 1.355 . S
C331 C333 1.415 . S
C332 C331 1.355 . S
C332 C334 1.419 . S
C333 C328 1.425 . S
C333 C330 1.409 . S
C333 C331 1.415 . S
C334 H324 0.930 . S
C334 C332 1.419 . S
C334 C335 1.362 . S
C335 H325 0.930 . S
C335 C328 1.409 . S
C335 C334 1.362 . S
H336 C342 0.930 . S
H337 C345 0.930 . S
H338 C346 0.930 1_554 S
H339 C347 0.930 . S
H340 C350 0.930 . S
H341 C351 0.930 1_556 S
C342 H336 0.930 . S
C342 C343 1.355 . S
C342 C344 1.415 . S
C343 C342 1.355 . S
C343 C345 1.419 . S
C344 C342 1.415 . S
C344 C349 1.425 1_556 S
C344 C351 1.409 1_556 S
C345 H337 0.930 . S
C345 C343 1.419 . S
C345 C346 1.362 . S
C346 H338 0.930 1_556 S
C346 C345 1.362 . S
C346 C349 1.409 1_556 S
C347 H339 0.930 . S
C347 C348 1.355 . S
C347 C349 1.415 . S
C348 C347 1.355 . S
C348 C350 1.419 . S
C349 C344 1.425 1_554 S
C349 C346 1.409 1_554 S
C349 C347 1.415 . S
C350 H340 0.930 . S
C350 C348 1.419 . S
C350 C351 1.362 . S
C351 H341 0.930 1_554 S
C351 C344 1.409 1_554 S
C351 C350 1.362 . S
H352 C358 0.930 . S
H353 C361 0.930 . S
H354 C362 0.930 . S
H355 C363 0.930 . S
H356 C366 0.930 . S
H357 C367 0.930 . S
C358 H352 0.930 . S
C358 C359 1.355 . S
C358 C360 1.415 . S
C359 C358 1.355 . S
C359 C361 1.419 . S
C360 C358 1.415 . S
C360 C365 1.425 . S
C360 C367 1.409 . S
C361 H353 0.930 . S
C361 C359 1.419 . S
C361 C362 1.362 . S
C362 H354 0.930 . S
C362 C361 1.362 . S
C362 C365 1.409 . S
C363 H355 0.930 . S
C363 C364 1.355 . S
C363 C365 1.415 . S
C364 C363 1.355 . S
C364 C366 1.419 . S
C365 C360 1.425 . S
C365 C362 1.409 . S
C365 C363 1.415 . S
C366 H356 0.930 . S
C366 C364 1.419 . S
C366 C367 1.362 . S
C367 H357 0.930 . S
C367 C360 1.409 . S
C367 C366 1.362 . S
H368 C374 0.930 . S
H369 C377 0.930 . S
H370 C378 0.930 . S
H371 C379 0.930 . S
H372 C382 0.930 . S
H373 C383 0.930 . S
C374 H368 0.930 . S
C374 C375 1.355 . S
C374 C376 1.415 . S
C375 C374 1.355 . S
C375 C377 1.419 . S
C376 C374 1.415 . S
C376 C381 1.425 . S
C376 C383 1.409 . S
C377 H369 0.930 . S
C377 C375 1.419 . S
C377 C378 1.362 . S
C378 H370 0.930 . S
C378 C377 1.362 . S
C378 C381 1.409 . S
C379 H371 0.930 . S
C379 C380 1.355 . S
C379 C381 1.415 . S
C380 C379 1.355 . S
C380 C382 1.419 . S
C381 C376 1.425 . S
C381 C378 1.409 . S
C381 C379 1.415 . S
C382 H372 0.930 . S
C382 C380 1.419 . S
C382 C383 1.362 . S
C383 H373 0.930 . S
C383 C376 1.409 . S
C383 C382 1.362 . S
H384 C390 0.930 . S
H385 C393 0.930 . S
H386 C394 0.930 . S
H387 C395 0.930 . S
H388 C398 0.930 . S
H389 C399 0.930 . S
C390 H384 0.930 . S
C390 C391 1.355 . S
C390 C392 1.415 . S
C391 C390 1.355 . S
C391 C393 1.419 . S
C392 C390 1.415 . S
C392 C397 1.425 1_556 S
C392 C399 1.409 . S
C393 H385 0.930 . S
C393 C391 1.419 . S
C393 C394 1.362 1_556 S
C394 H386 0.930 . S
C394 C393 1.362 1_554 S
C394 C397 1.409 . S
C395 H387 0.930 . S
C395 C396 1.355 . S
C395 C397 1.415 . S
C396 C395 1.355 . S
C396 C398 1.419 . S
C397 C392 1.425 1_554 S
C397 C394 1.409 . S
C397 C395 1.415 . S
C398 H388 0.930 . S
C398 C396 1.419 . S
C398 C399 1.362 1_554 S
C399 H389 0.930 . S
C399 C392 1.409 . S
C399 C398 1.362 1_556 S
H400 C406 0.930 . S
H401 C409 0.930 . S
H402 C410 0.930 . S
H403 C411 0.930 . S
H404 C414 0.930 . S
H405 C415 0.930 . S
C406 H400 0.930 . S
C406 C407 1.355 . S
C406 C408 1.415 . S
C407 C406 1.355 . S
C407 C409 1.419 . S
C408 C406 1.415 . S
C408 C413 1.425 . S
C408 C415 1.409 . S
C409 H401 0.930 . S
C409 C407 1.419 . S
C409 C410 1.362 . S
C410 H402 0.930 . S
C410 C409 1.362 . S
C410 C413 1.409 . S
C411 H403 0.930 . S
C411 C412 1.355 . S
C411 C413 1.415 . S
C412 C411 1.355 . S
C412 C414 1.419 . S
C413 C408 1.425 . S
C413 C410 1.409 . S
C413 C411 1.415 . S
C414 H404 0.930 . S
C414 C412 1.419 . S
C414 C415 1.362 . S
C415 H405 0.930 . S
C415 C408 1.409 . S
C415 C414 1.362 . S
H416 C422 0.930 . S
H417 C425 0.930 . S
H418 C426 0.930 . S
H419 C427 0.930 . S
H420 C430 0.930 . S
H421 C431 0.930 . S
C422 H416 0.930 . S
C422 C423 1.355 . S
C422 C424 1.415 . S
C423 C422 1.355 . S
C423 C425 1.419 . S
C424 C422 1.415 . S
C424 C429 1.425 . S
C424 C431 1.409 . S
C425 H417 0.930 . S
C425 C423 1.419 . S
C425 C426 1.362 . S
C426 H418 0.930 . S
C426 C425 1.362 . S
C426 C429 1.409 . S
C427 H419 0.930 . S
C427 C428 1.355 . S
C427 C429 1.415 . S
C428 C427 1.355 . S
C428 C430 1.419 . S
C429 C424 1.425 . S
C429 C426 1.409 . S
C429 C427 1.415 . S
C430 H420 0.930 . S
C430 C428 1.419 . S
C430 C431 1.362 . S
C431 H421 0.930 . S
C431 C424 1.409 . S
C431 C430 1.362 . S
H432 C438 0.930 . S
H433 C441 0.930 . S
H434 C442 0.930 . S
H435 C443 0.930 . S
H436 C446 0.930 . S
H437 C447 0.930 . S
C438 H432 0.930 . S
C438 C439 1.355 . S
C438 C440 1.417 1_556 S
C439 C438 1.355 . S
C439 C441 1.419 . S
C440 C438 1.417 1_554 S
C440 C445 1.425 1_564 S
C440 C447 1.407 . S
C441 H433 0.930 . S
C441 C439 1.419 . S
C441 C442 1.362 1_565 S
C442 H434 0.930 . S
C442 C441 1.362 1_545 S
C442 C445 1.407 . S
C443 H435 0.930 . S
C443 C444 1.355 . S
C443 C445 1.416 1_554 S
C444 C443 1.355 . S
C444 C446 1.419 . S
C445 C440 1.425 1_546 S
C445 C442 1.407 . S
C445 C443 1.416 1_556 S
C446 H436 0.930 . S
C446 C444 1.419 . S
C446 C447 1.362 1_545 S
C447 H437 0.930 . S
C447 C440 1.407 . S
C447 C446 1.362 1_565 S
H448 C454 0.930 . S
H449 C457 0.930 . S
H450 C458 0.930 . S
H451 C459 0.930 . S
H452 C462 0.930 . S
H453 C463 0.930 . S
C454 H448 0.930 . S
C454 C455 1.355 . S
C454 C456 1.415 . S
C455 C454 1.355 . S
C455 C457 1.419 . S
C456 C454 1.415 . S
C456 C461 1.425 . S
C456 C463 1.409 . S
C457 H449 0.930 . S
C457 C455 1.419 . S
C457 C458 1.362 . S
C458 H450 0.930 . S
C458 C457 1.362 . S
C458 C461 1.409 . S
C459 H451 0.930 . S
C459 C460 1.355 . S
C459 C461 1.415 . S
C460 C459 1.355 . S
C460 C462 1.419 . S
C461 C456 1.425 . S
C461 C458 1.409 . S
C461 C459 1.415 . S
C462 H452 0.930 . S
C462 C460 1.419 . S
C462 C463 1.362 . S
C463 H453 0.930 . S
C463 C456 1.409 . S
C463 C462 1.362 . S
H464 C470 0.930 . S
H465 C473 0.930 . S
H466 C474 0.930 . S
H467 C475 0.930 . S
H468 C478 0.930 . S
H469 C479 0.930 . S
C470 H464 0.930 . S
C470 C471 1.355 . S
C470 C472 1.404 1_455 S
C471 C470 1.355 . S
C471 C473 1.419 . S
C472 C470 1.404 1_655 S
C472 C477 1.394 1_655 S
C472 C479 1.436 . S
C473 H465 0.930 . S
C473 C471 1.419 . S
C473 C474 1.362 . S
C474 H466 0.930 . S
C474 C473 1.362 . S
C474 C477 1.436 . S
C475 H467 0.930 . S
C475 C476 1.355 . S
C475 C477 1.404 1_655 S
C476 C475 1.355 . S
C476 C478 1.419 . S
C477 C472 1.394 1_455 S
C477 C474 1.436 . S
C477 C475 1.404 1_455 S
C478 H468 0.930 . S
C478 C476 1.419 . S
C478 C479 1.362 . S
C479 H469 0.930 . S
C479 C472 1.436 . S
C479 C478 1.362 . S
H480 C486 0.930 . S
H481 C489 0.930 . S
H482 C490 0.930 . S
H483 C491 0.930 . S
H484 C494 0.930 . S
H485 C495 0.930 . S
C486 H480 0.930 . S
C486 C487 1.355 . S
C486 C488 1.415 1_554 S
C487 C486 1.355 . S
C487 C489 1.419 1_565 S
C488 C486 1.415 1_556 S
C488 C493 1.425 1_566 S
C488 C495 1.409 . S
C489 H481 0.930 . S
C489 C487 1.419 1_545 S
C489 C490 1.362 . S
C490 H482 0.930 . S
C490 C489 1.362 . S
C490 C493 1.409 . S
C491 H483 0.930 . S
C491 C492 1.355 . S
C491 C493 1.415 1_556 S
C492 C491 1.355 . S
C492 C494 1.419 1_545 S
C493 C488 1.425 1_544 S
C493 C490 1.409 . S
C493 C491 1.415 1_554 S
C494 H484 0.930 . S
C494 C492 1.419 1_565 S
C494 C495 1.362 . S
C495 H485 0.930 . S
C495 C488 1.409 . S
C495 C494 1.362 . S
H496 C502 0.930 . S
H497 C505 0.930 . S
H498 C506 0.930 . S
H499 C507 0.930 . S
H500 C510 0.930 . S
H501 C511 0.930 . S
C502 H496 0.930 . S
C502 C503 1.355 . S
C502 C504 1.415 . S
C503 C502 1.355 . S
C503 C505 1.419 . S
C504 C502 1.415 . S
C504 C509 1.425 . S
C504 C511 1.409 . S
C505 H497 0.930 . S
C505 C503 1.419 . S
C505 C506 1.362 . S
C506 H498 0.930 . S
C506 C505 1.362 . S
C506 C509 1.409 . S
C507 H499 0.930 . S
C507 C508 1.355 . S
C507 C509 1.415 . S
C508 C507 1.355 . S
C508 C510 1.419 . S
C509 C504 1.425 . S
C509 C506 1.409 . S
C509 C507 1.415 . S
C510 H500 0.930 . S
C510 C508 1.419 . S
C510 C511 1.362 . S
C511 H501 0.930 . S
C511 C504 1.409 . S
C511 C510 1.362 . S
H512 C518 0.929 . S
H513 C521 0.930 . S
H514 C522 0.930 . S
H515 C523 0.929 . S
H516 C526 0.930 . S
H517 C527 0.930 . S
C518 H512 0.929 . S
C518 C519 1.355 . S
C518 C520 1.415 1_455 S
C519 C518 1.355 . S
C519 C521 1.419 . S
C520 C518 1.415 1_655 S
C520 C525 1.425 1_655 S
C520 C527 1.409 . S
C521 H513 0.930 . S
C521 C519 1.419 . S
C521 C522 1.362 . S
C522 H514 0.930 . S
C522 C521 1.362 . S
C522 C525 1.409 . S
C523 H515 0.929 . S
C523 C524 1.355 . S
C523 C525 1.415 1_655 S
C524 C523 1.355 . S
C524 C526 1.419 . S
C525 C520 1.425 1_455 S
C525 C522 1.409 . S
C525 C523 1.415 1_455 S
C526 H516 0.930 . S
C526 C524 1.419 . S
C526 C527 1.362 . S
C527 H517 0.930 . S
C527 C520 1.409 . S
C527 C526 1.362 . S
H528 C534 0.930 . S
H529 C537 0.930 . S
H530 C538 0.930 . S
H531 C539 0.930 . S
H532 C542 0.930 . S
H533 C543 0.930 . S
C534 H528 0.930 . S
C534 C535 1.355 . S
C534 C536 1.415 . S
C535 C534 1.355 . S
C535 C537 1.419 1_545 S
C536 C534 1.415 . S
C536 C541 1.425 1_545 S
C536 C543 1.409 . S
C537 H529 0.930 . S
C537 C535 1.419 1_565 S
C537 C538 1.362 . S
C538 H530 0.930 . S
C538 C537 1.362 . S
C538 C541 1.409 . S
C539 H531 0.930 . S
C539 C540 1.355 . S
C539 C541 1.415 . S
C540 C539 1.355 . S
C540 C542 1.419 1_565 S
C541 C536 1.425 1_565 S
C541 C538 1.409 . S
C541 C539 1.415 . S
C542 H532 0.930 . S
C542 C540 1.419 1_545 S
C542 C543 1.362 . S
C543 H533 0.930 . S
C543 C536 1.409 . S
C543 C542 1.362 . S
H544 C550 0.930 . S
H545 C553 0.930 . S
H546 C554 0.930 . S
H547 C555 0.930 . S
H548 C558 0.930 . S
H549 C559 0.930 . S
C550 H544 0.930 . S
C550 C551 1.355 . S
C550 C552 1.415 . S
C551 C550 1.355 . S
C551 C553 1.419 . S
C552 C550 1.415 . S
C552 C557 1.425 . S
C552 C559 1.409 . S
C553 H545 0.930 . S
C553 C551 1.419 . S
C553 C554 1.362 . S
C554 H546 0.930 . S
C554 C553 1.362 . S
C554 C557 1.409 . S
C555 H547 0.930 . S
C555 C556 1.355 . S
C555 C557 1.415 . S
C556 C555 1.355 . S
C556 C558 1.419 . S
C557 C552 1.425 . S
C557 C554 1.409 . S
C557 C555 1.415 . S
C558 H548 0.930 . S
C558 C556 1.419 . S
C558 C559 1.362 . S
C559 H549 0.930 . S
C559 C552 1.409 . S
C559 C558 1.362 . S
H560 C566 0.930 . S
H561 C569 0.930 . S
H562 C570 0.930 . S
H563 C571 0.930 . S
H564 C574 0.930 . S
H565 C575 0.930 1_554 S
C566 H560 0.930 . S
C566 C567 1.355 . S
C566 C568 1.415 . S
C567 C566 1.355 . S
C567 C569 1.419 . S
C568 C566 1.415 . S
C568 C573 1.425 1_655 S
C568 C575 1.409 . S
C569 H561 0.930 . S
C569 C567 1.419 . S
C569 C570 1.362 1_655 S
C570 H562 0.930 . S
C570 C569 1.362 1_455 S
C570 C573 1.409 . S
C571 H563 0.930 . S
C571 C572 1.355 . S
C571 C573 1.415 . S
C572 C571 1.355 . S
C572 C574 1.419 . S
C573 C568 1.425 1_455 S
C573 C570 1.409 . S
C573 C571 1.415 . S
C574 H564 0.930 . S
C574 C572 1.419 . S
C574 C575 1.362 1_455 S
C575 H565 0.930 1_556 S
C575 C568 1.409 . S
C575 C574 1.362 1_655 S
H576 C582 0.930 . S
H577 C585 0.930 . S
H578 C586 0.930 . S
H579 C587 0.930 . S
H580 C590 0.930 . S
H581 C591 0.930 . S
C582 H576 0.930 . S
C582 C583 1.355 . S
C582 C584 1.415 1_455 S
C583 C582 1.355 . S
C583 C585 1.419 . S
C584 C582 1.415 1_655 S
C584 C589 1.425 1_655 S
C584 C591 1.409 . S
C585 H577 0.930 . S
C585 C583 1.419 . S
C585 C586 1.362 . S
C586 H578 0.930 . S
C586 C585 1.362 . S
C586 C589 1.409 . S
C587 H579 0.930 . S
C587 C588 1.355 . S
C587 C589 1.415 1_655 S
C588 C587 1.355 . S
C588 C590 1.419 . S
C589 C584 1.425 1_455 S
C589 C586 1.409 . S
C589 C587 1.415 1_455 S
C590 H580 0.930 . S
C590 C588 1.419 . S
C590 C591 1.362 . S
C591 H581 0.930 . S
C591 C584 1.409 . S
C591 C590 1.362 . S
H592 C598 0.930 1_545 S
H593 C601 0.930 . S
H594 C602 0.930 . S
H595 C603 0.930 1_565 S
H596 C606 0.930 . S
H597 C607 0.930 . S
C598 H592 0.930 1_565 S
C598 C599 1.355 . S
C598 C600 1.415 1_565 S
C599 C598 1.355 . S
C599 C601 1.419 . S
C600 C598 1.415 1_545 S
C600 C605 1.425 1_545 S
C600 C607 1.409 . S
C601 H593 0.930 . S
C601 C599 1.419 . S
C601 C602 1.362 . S
C602 H594 0.930 . S
C602 C601 1.362 . S
C602 C605 1.409 . S
C603 H595 0.930 1_545 S
C603 C604 1.355 . S
C603 C605 1.415 1_545 S
C604 C603 1.355 . S
C604 C606 1.419 . S
C605 C600 1.425 1_565 S
C605 C602 1.409 . S
C605 C603 1.415 1_565 S
C606 H596 0.930 . S
C606 C604 1.419 . S
C606 C607 1.362 . S
C607 H597 0.930 . S
C607 C600 1.409 . S
C607 C606 1.362 . S
H608 C614 0.930 . S
H609 C617 0.930 . S
H610 C618 0.930 . S
H611 C619 0.930 . S
H612 C622 0.930 . S
H613 C623 0.930 1_556 S
C614 H608 0.930 . S
C614 C615 1.355 . S
C614 C616 1.415 . S
C615 C614 1.355 . S
C615 C617 1.419 . S
C616 C614 1.415 . S
C616 C621 1.425 . S
C616 C623 1.409 . S
C617 H609 0.930 . S
C617 C615 1.419 . S
C617 C618 1.362 . S
C618 H610 0.930 . S
C618 C617 1.362 . S
C618 C621 1.409 . S
C619 H611 0.930 . S
C619 C620 1.355 . S
C619 C621 1.415 . S
C620 C619 1.355 . S
C620 C622 1.419 . S
C621 C616 1.425 . S
C621 C618 1.409 . S
C621 C619 1.415 . S
C622 H612 0.930 . S
C622 C620 1.419 . S
C622 C623 1.362 . S
C623 H613 0.930 1_554 S
C623 C616 1.409 . S
C623 C622 1.362 . S
H624 C630 0.930 . S
H625 C633 0.930 . S
H626 C634 0.930 . S
H627 C635 0.930 . S
H628 C638 0.930 . S
H629 C639 0.930 . S
C630 H624 0.930 . S
C630 C631 1.355 . S
C630 C632 1.415 . S
C631 C630 1.355 . S
C631 C633 1.419 . S
C632 C630 1.415 . S
C632 C637 1.425 1_565 S
C632 C639 1.409 . S
C633 H625 0.930 . S
C633 C631 1.419 . S
C633 C634 1.362 1_565 S
C634 H626 0.930 . S
C634 C633 1.362 1_545 S
C634 C637 1.409 . S
C635 H627 0.930 . S
C635 C636 1.355 . S
C635 C637 1.415 . S
C636 C635 1.355 . S
C636 C638 1.419 . S
C637 C632 1.425 1_545 S
C637 C634 1.409 . S
C637 C635 1.415 . S
C638 H628 0.930 . S
C638 C636 1.419 . S
C638 C639 1.362 1_545 S
C639 H629 0.930 . S
C639 C632 1.409 . S
C639 C638 1.362 1_565 S
H640 C646 0.930 . S
H641 C649 0.930 . S
H642 C650 0.930 . S
H643 C651 0.930 . S
H644 C654 0.930 . S
H645 C655 0.930 . S
C646 H640 0.930 . S
C646 C647 1.355 . S
C646 C648 1.415 . S
C647 C646 1.355 . S
C647 C649 1.419 . S
C648 C646 1.415 . S
C648 C653 1.425 . S
C648 C655 1.409 . S
C649 H641 0.930 . S
C649 C647 1.419 . S
C649 C650 1.362 . S
C650 H642 0.930 . S
C650 C649 1.362 . S
C650 C653 1.409 . S
C651 H643 0.930 . S
C651 C652 1.355 . S
C651 C653 1.415 . S
C652 C651 1.355 . S
C652 C654 1.419 . S
C653 C648 1.425 . S
C653 C650 1.409 . S
C653 C651 1.415 . S
C654 H644 0.930 . S
C654 C652 1.419 . S
C654 C655 1.362 . S
C655 H645 0.930 . S
C655 C648 1.409 . S
C655 C654 1.362 . S
H656 C662 0.930 1_455 S
H657 C665 0.930 . S
H658 C666 0.930 . S
H659 C667 0.930 1_655 S
H660 C670 0.930 . S
H661 C671 0.930 . S
C662 H656 0.930 1_655 S
C662 C663 1.355 . S
C662 C664 1.415 1_655 S
C663 C662 1.355 . S
C663 C665 1.419 . S
C664 C662 1.415 1_455 S
C664 C669 1.425 1_455 S
C664 C671 1.409 . S
C665 H657 0.930 . S
C665 C663 1.419 . S
C665 C666 1.362 . S
C666 H658 0.930 . S
C666 C665 1.362 . S
C666 C669 1.409 . S
C667 H659 0.930 1_455 S
C667 C668 1.355 . S
C667 C669 1.415 1_455 S
C668 C667 1.355 . S
C668 C670 1.419 . S
C669 C664 1.425 1_655 S
C669 C666 1.409 . S
C669 C667 1.415 1_655 S
C670 H660 0.930 . S
C670 C668 1.419 . S
C670 C671 1.362 . S
C671 H661 0.930 . S
C671 C664 1.409 . S
C671 C670 1.362 . S
H672 C678 0.930 . S
H673 C681 0.930 . S
H674 C682 0.930 1_565 S
H675 C683 0.930 . S
H676 C686 0.930 . S
H677 C687 0.930 1_545 S
C678 H672 0.930 . S
C678 C679 1.355 . S
C678 C680 1.415 . S
C679 C678 1.355 . S
C679 C681 1.419 . S
C680 C678 1.415 . S
C680 C685 1.425 1_545 S
C680 C687 1.409 1_545 S
C681 H673 0.930 . S
C681 C679 1.419 . S
C681 C682 1.362 . S
C682 H674 0.930 1_545 S
C682 C681 1.362 . S
C682 C685 1.409 1_545 S
C683 H675 0.930 . S
C683 C684 1.355 . S
C683 C685 1.415 . S
C684 C683 1.355 . S
C684 C686 1.419 . S
C685 C680 1.425 1_565 S
C685 C682 1.409 1_565 S
C685 C683 1.415 . S
C686 H676 0.930 . S
C686 C684 1.419 . S
C686 C687 1.362 . S
C687 H677 0.930 1_565 S
C687 C680 1.409 1_565 S
C687 C686 1.362 . S
H688 C694 0.930 . S
H689 C697 0.930 . S
H690 C698 0.930 . S
H691 C699 0.930 . S
H692 C702 0.930 . S
H693 C703 0.930 . S
C694 H688 0.930 . S
C694 C695 1.355 . S
C694 C696 1.415 . S
C695 C694 1.355 . S
C695 C697 1.419 . S
C696 C694 1.415 . S
C696 C701 1.425 . S
C696 C703 1.409 . S
C697 H689 0.930 . S
C697 C695 1.419 . S
C697 C698 1.362 . S
C698 H690 0.930 . S
C698 C697 1.362 . S
C698 C701 1.409 . S
C699 H691 0.930 . S
C699 C700 1.355 . S
C699 C701 1.415 . S
C700 C699 1.355 . S
C700 C702 1.419 . S
C701 C696 1.425 . S
C701 C698 1.409 . S
C701 C699 1.415 . S
C702 H692 0.930 . S
C702 C700 1.419 . S
C702 C703 1.362 . S
C703 H693 0.930 . S
C703 C696 1.409 . S
C703 C702 1.362 . S
H704 C710 0.930 . S
H705 C713 0.930 . S
H706 C714 0.930 . S
H707 C715 0.930 . S
H708 C718 0.930 . S
H709 C719 0.930 . S
C710 H704 0.930 . S
C710 C711 1.355 . S
C710 C712 1.415 . S
C711 C710 1.355 . S
C711 C713 1.419 . S
C712 C710 1.415 . S
C712 C717 1.425 1_455 S
C712 C719 1.409 1_455 S
C713 H705 0.930 . S
C713 C711 1.419 . S
C713 C714 1.362 . S
C714 H706 0.930 . S
C714 C713 1.362 . S
C714 C717 1.409 1_455 S
C715 H707 0.930 . S
C715 C716 1.355 . S
C715 C717 1.415 . S
C716 C715 1.355 . S
C716 C718 1.419 . S
C717 C712 1.425 1_655 S
C717 C714 1.409 1_655 S
C717 C715 1.415 . S
C718 H708 0.930 . S
C718 C716 1.419 . S
C718 C719 1.362 . S
C719 H709 0.930 . S
C719 C712 1.409 1_655 S
C719 C718 1.362 . S
H720 C726 0.930 . S
H721 C729 0.930 . S
H722 C730 0.930 . S
H723 C731 0.930 . S
H724 C734 0.930 . S
H725 C735 0.930 . S
C726 H720 0.930 . S
C726 C727 1.355 . S
C726 C728 1.415 . S
C727 C726 1.355 . S
C727 C729 1.419 . S
C728 C726 1.415 . S
C728 C733 1.425 . S
C728 C735 1.409 . S
C729 H721 0.930 . S
C729 C727 1.419 . S
C729 C730 1.362 . S
C730 H722 0.930 . S
C730 C729 1.362 . S
C730 C733 1.409 . S
C731 H723 0.930 . S
C731 C732 1.355 . S
C731 C733 1.415 . S
C732 C731 1.355 . S
C732 C734 1.419 . S
C733 C728 1.425 . S
C733 C730 1.409 . S
C733 C731 1.415 . S
C734 H724 0.930 . S
C734 C732 1.419 . S
C734 C735 1.362 . S
C735 H725 0.930 . S
C735 C728 1.409 . S
C735 C734 1.362 . S
H736 C742 0.930 . S
H737 C745 0.930 . S
H738 C746 0.930 . S
H739 C747 0.930 . S
H740 C750 0.930 . S
H741 C751 0.930 . S
C742 H736 0.930 . S
C742 C743 1.355 . S
C742 C744 1.415 . S
C743 C742 1.355 . S
C743 C745 1.419 . S
C744 C742 1.415 . S
C744 C749 1.425 . S
C744 C751 1.409 . S
C745 H737 0.930 . S
C745 C743 1.419 . S
C745 C746 1.362 . S
C746 H738 0.930 . S
C746 C745 1.362 . S
C746 C749 1.409 . S
C747 H739 0.930 . S
C747 C748 1.355 . S
C747 C749 1.415 . S
C748 C747 1.355 . S
C748 C750 1.419 . S
C749 C744 1.425 . S
C749 C746 1.409 . S
C749 C747 1.415 . S
C750 H740 0.930 . S
C750 C748 1.419 . S
C750 C751 1.362 . S
C751 H741 0.930 . S
C751 C744 1.409 . S
C751 C750 1.362 . S
H752 C758 0.930 . S
H753 C761 0.930 . S
H754 C762 0.930 . S
H755 C763 0.930 . S
H756 C766 0.930 . S
H757 C767 0.930 . S
C758 H752 0.930 . S
C758 C759 1.355 . S
C758 C760 1.415 . S
C759 C758 1.355 . S
C759 C761 1.419 . S
C760 C758 1.415 . S
C760 C765 1.425 . S
C760 C767 1.409 . S
C761 H753 0.930 . S
C761 C759 1.419 . S
C761 C762 1.362 . S
C762 H754 0.930 . S
C762 C761 1.362 . S
C762 C765 1.409 . S
C763 H755 0.930 . S
C763 C764 1.355 . S
C763 C765 1.415 . S
C764 C763 1.355 . S
C764 C766 1.419 . S
C765 C760 1.425 . S
C765 C762 1.409 . S
C765 C763 1.415 . S
C766 H756 0.930 . S
C766 C764 1.419 . S
C766 C767 1.362 . S
C767 H757 0.930 . S
C767 C760 1.409 . S
C767 C766 1.362 . S
H768 C774 0.930 . S
H769 C777 0.930 . S
H770 C778 0.930 . S
H771 C779 0.930 . S
H772 C782 0.930 . S
H773 C783 0.930 . S
C774 H768 0.930 . S
C774 C775 1.355 . S
C774 C776 1.415 . S
C775 C774 1.355 . S
C775 C777 1.419 . S
C776 C774 1.415 . S
C776 C781 1.425 . S
C776 C783 1.409 . S
C777 H769 0.930 . S
C777 C775 1.419 . S
C777 C778 1.362 . S
C778 H770 0.930 . S
C778 C777 1.362 . S
C778 C781 1.409 . S
C779 H771 0.930 . S
C779 C780 1.355 . S
C779 C781 1.415 . S
C780 C779 1.355 . S
C780 C782 1.419 . S
C781 C776 1.425 . S
C781 C778 1.409 . S
C781 C779 1.415 . S
C782 H772 0.930 . S
C782 C780 1.419 . S
C782 C783 1.362 . S
C783 H773 0.930 . S
C783 C776 1.409 . S
C783 C782 1.362 . S
H784 C790 0.930 . S
H785 C793 0.930 . S
H786 C794 0.930 . S
H787 C795 0.930 . S
H788 C798 0.930 . S
H789 C799 0.930 . S
C790 H784 0.930 . S
C790 C791 1.355 . S
C790 C792 1.415 . S
C791 C790 1.355 . S
C791 C793 1.419 . S
C792 C790 1.415 . S
C792 C797 1.425 . S
C792 C799 1.409 . S
C793 H785 0.930 . S
C793 C791 1.419 . S
C793 C794 1.362 . S
C794 H786 0.930 . S
C794 C793 1.362 . S
C794 C797 1.409 . S
C795 H787 0.930 . S
C795 C796 1.355 . S
C795 C797 1.415 . S
C796 C795 1.355 . S
C796 C798 1.419 . S
C797 C792 1.425 . S
C797 C794 1.409 . S
C797 C795 1.415 . S
C798 H788 0.930 . S
C798 C796 1.419 . S
C798 C799 1.362 . S
C799 H789 0.930 . S
C799 C792 1.409 . S
C799 C798 1.362 . S
H800 C806 0.930 . S
H801 C809 0.930 . S
H802 C810 0.930 . S
H803 C811 0.930 . S
H804 C814 0.930 . S
H805 C815 0.930 . S
C806 H800 0.930 . S
C806 C807 1.355 . S
C806 C808 1.415 . S
C807 C806 1.355 . S
C807 C809 1.419 . S
C808 C806 1.415 . S
C808 C813 1.425 . S
C808 C815 1.409 . S
C809 H801 0.930 . S
C809 C807 1.419 . S
C809 C810 1.362 . S
C810 H802 0.930 . S
C810 C809 1.362 . S
C810 C813 1.409 . S
C811 H803 0.930 . S
C811 C812 1.355 . S
C811 C813 1.415 . S
C812 C811 1.355 . S
C812 C814 1.419 . S
C813 C808 1.425 . S
C813 C810 1.409 . S
C813 C811 1.415 . S
C814 H804 0.930 . S
C814 C812 1.419 . S
C814 C815 1.362 . S
C815 H805 0.930 . S
C815 C808 1.409 . S
C815 C814 1.362 . S
C247 C8 1.303 . S
C252 C168 1.266 . S
C263 C28 1.319 . S
C268 C188 1.279 . S
C279 C48 1.308 . S
C284 C208 1.317 . S
C295 C228 1.311 . S
C300 C68 1.270 . S
C311 C88 1.272 . S
C316 C128 1.276 . S
C327 C148 1.320 . S
C332 C108 1.303 . S
C343 C201 0.651 . S
C348 C1 0.594 . S
C359 C221 0.546 . S
C364 C21 0.526 . S
C375 C41 0.667 . S
C380 C121 0.615 . S
C391 C141 0.688 . S
C396 C61 0.685 . S
C407 C161 0.526 . S
C412 C81 0.552 . S
C423 C101 0.586 . S
C428 C181 0.645 . S
C439 C159 2.152 . S
C444 C19 2.175 . S
C455 C179 2.173 . S
C460 C39 2.202 . S
C471 C199 2.202 . S
C476 C59 2.169 . S
C487 C79 2.176 . S
C492 C219 2.152 . S
C503 C99 2.155 . S
C508 C239 2.194 . S
C519 C119 2.199 . S
C524 C139 2.182 . S
C535 C9 0.756 . S
C540 C69 0.785 . S
C551 C29 0.678 . S
C556 C89 0.591 . S
C567 C49 0.665 . S
C572 C109 0.749 . S
C583 C189 0.567 . S
C588 C129 0.638 . S
C599 C149 0.561 . S
C604 C209 0.589 . S
C615 C229 0.660 . S
C620 C169 0.745 . S
C631 C142 0.937 . S
C636 C2 0.921 . S
C647 C162 1.012 . S
C652 C22 0.989 . S
C663 C42 1.022 . S
C668 C182 1.009 . S
C679 C202 0.956 . S
C684 C62 0.932 . S
C695 C222 1.013 . S
C700 C82 1.022 . S
C711 C102 0.979 . S
C716 C122 1.005 . S
C727 C18 2.546 . S
C732 C218 2.553 . S
C743 C38 2.553 . S
C748 C238 2.526 1_556 S
C759 C58 2.528 1_554 S
C764 C138 2.539 . S
C775 C78 2.547 . S
C780 C158 2.552 . S
C791 C98 2.545 . S
C796 C178 2.521 1_556 S
C807 C198 2.546 . S
C812 C118 2.521 1_554 S
