# Generated by pormake.
# Topology uoi, (4)-cn, num edge types: 1
# Building blocks:
#     Node 0, Type 0, BuildingBlock: GALJAG_clean_sbu_0, # of connection points: 4
#     Node 1, Type 0, BuildingBlock: GALJAG_clean_sbu_0, # of connection points: 4
#     Node 2, Type 0, BuildingBlock: GALJAG_clean_sbu_0, # of connection points: 4
#     Node 3, Type 0, BuildingBlock: GALJAG_clean_sbu_0, # of connection points: 4
#     Node 4, Type 0, BuildingBlock: GALJAG_clean_sbu_0, # of connection points: 4
#     Node 5, Type 0, BuildingBlock: GALJAG_clean_sbu_0, # of connection points: 4
#     Node 6, Type 0, BuildingBlock: GALJAG_clean_sbu_0, # of connection points: 4
#     Node 7, Type 0, BuildingBlock: GALJAG_clean_sbu_0, # of connection points: 4
#     Node 8, Type 0, BuildingBlock: GALJAG_clean_sbu_0, # of connection points: 4
#     Node 9, Type 0, BuildingBlock: GALJAG_clean_sbu_0, # of connection points: 4
#     Node 10, Type 0, BuildingBlock: GALJAG_clean_sbu_0, # of connection points: 4
#     Node 11, Type 0, BuildingBlock: GALJAG_clean_sbu_0, # of connection points: 4
#     Node 12, Type 0, BuildingBlock: GALJAG_clean_sbu_0, # of connection points: 4
#     Node 13, Type 0, BuildingBlock: GALJAG_clean_sbu_0, # of connection points: 4
#     Node 14, Type 0, BuildingBlock: GALJAG_clean_sbu_0, # of connection points: 4
#     Node 15, Type 0, BuildingBlock: GALJAG_clean_sbu_0, # of connection points: 4
#     Node 16, Type 0, BuildingBlock: GALJAG_clean_sbu_0, # of connection points: 4
#     Node 17, Type 0, BuildingBlock: GALJAG_clean_sbu_0, # of connection points: 4
#     Node 18, Type 0, BuildingBlock: GALJAG_clean_sbu_0, # of connection points: 4
#     Node 19, Type 0, BuildingBlock: GALJAG_clean_sbu_0, # of connection points: 4
#     Node 20, Type 0, BuildingBlock: GALJAG_clean_sbu_0, # of connection points: 4
#     Node 21, Type 0, BuildingBlock: GALJAG_clean_sbu_0, # of connection points: 4
#     Node 22, Type 0, BuildingBlock: GALJAG_clean_sbu_0, # of connection points: 4
#     Node 23, Type 0, BuildingBlock: GALJAG_clean_sbu_0, # of connection points: 4
#     Node 24, Type 0, BuildingBlock: GALJAG_clean_sbu_0, # of connection points: 4
#     Node 25, Type 0, BuildingBlock: GALJAG_clean_sbu_0, # of connection points: 4
#     Node 26, Type 0, BuildingBlock: GALJAG_clean_sbu_0, # of connection points: 4
#     Node 27, Type 0, BuildingBlock: GALJAG_clean_sbu_0, # of connection points: 4
#     Node 28, Type 0, BuildingBlock: GALJAG_clean_sbu_0, # of connection points: 4
#     Node 29, Type 0, BuildingBlock: GALJAG_clean_sbu_0, # of connection points: 4
#     Node 30, Type 0, BuildingBlock: GALJAG_clean_sbu_0, # of connection points: 4
#     Node 31, Type 0, BuildingBlock: GALJAG_clean_sbu_0, # of connection points: 4
#     Edge 32, Type (0, 0), BuildingBlock: XIVTED_clean_linker_0, # of connection points: 2
#     Edge 33, Type (0, 0), BuildingBlock: XIVTED_clean_linker_0, # of connection points: 2
#     Edge 34, Type (0, 0), BuildingBlock: XIVTED_clean_linker_0, # of connection points: 2
#     Edge 35, Type (0, 0), BuildingBlock: XIVTED_clean_linker_0, # of connection points: 2
#     Edge 36, Type (0, 0), BuildingBlock: XIVTED_clean_linker_0, # of connection points: 2
#     Edge 37, Type (0, 0), BuildingBlock: XIVTED_clean_linker_0, # of connection points: 2
#     Edge 38, Type (0, 0), BuildingBlock: XIVTED_clean_linker_0, # of connection points: 2
#     Edge 39, Type (0, 0), BuildingBlock: XIVTED_clean_linker_0, # of connection points: 2
#     Edge 40, Type (0, 0), BuildingBlock: XIVTED_clean_linker_0, # of connection points: 2
#     Edge 41, Type (0, 0), BuildingBlock: XIVTED_clean_linker_0, # of connection points: 2
#     Edge 42, Type (0, 0), BuildingBlock: XIVTED_clean_linker_0, # of connection points: 2
#     Edge 43, Type (0, 0), BuildingBlock: XIVTED_clean_linker_0, # of connection points: 2
#     Edge 44, Type (0, 0), BuildingBlock: XIVTED_clean_linker_0, # of connection points: 2
#     Edge 45, Type (0, 0), BuildingBlock: XIVTED_clean_linker_0, # of connection points: 2
#     Edge 46, Type (0, 0), BuildingBlock: XIVTED_clean_linker_0, # of connection points: 2
#     Edge 47, Type (0, 0), BuildingBlock: XIVTED_clean_linker_0, # of connection points: 2
#     Edge 48, Type (0, 0), BuildingBlock: XIVTED_clean_linker_0, # of connection points: 2
#     Edge 49, Type (0, 0), BuildingBlock: XIVTED_clean_linker_0, # of connection points: 2
#     Edge 50, Type (0, 0), BuildingBlock: XIVTED_clean_linker_0, # of connection points: 2
#     Edge 51, Type (0, 0), BuildingBlock: XIVTED_clean_linker_0, # of connection points: 2
#     Edge 52, Type (0, 0), BuildingBlock: XIVTED_clean_linker_0, # of connection points: 2
#     Edge 53, Type (0, 0), BuildingBlock: XIVTED_clean_linker_0, # of connection points: 2
#     Edge 54, Type (0, 0), BuildingBlock: XIVTED_clean_linker_0, # of connection points: 2
#     Edge 55, Type (0, 0), BuildingBlock: XIVTED_clean_linker_0, # of connection points: 2
#     Edge 56, Type (0, 0), BuildingBlock: XIVTED_clean_linker_0, # of connection points: 2
#     Edge 57, Type (0, 0), BuildingBlock: XIVTED_clean_linker_0, # of connection points: 2
#     Edge 58, Type (0, 0), BuildingBlock: XIVTED_clean_linker_0, # of connection points: 2
#     Edge 59, Type (0, 0), BuildingBlock: XIVTED_clean_linker_0, # of connection points: 2
#     Edge 60, Type (0, 0), BuildingBlock: XIVTED_clean_linker_0, # of connection points: 2
#     Edge 61, Type (0, 0), BuildingBlock: XIVTED_clean_linker_0, # of connection points: 2
#     Edge 62, Type (0, 0), BuildingBlock: XIVTED_clean_linker_0, # of connection points: 2
#     Edge 63, Type (0, 0), BuildingBlock: XIVTED_clean_linker_0, # of connection points: 2
#     Edge 64, Type (0, 0), BuildingBlock: XIVTED_clean_linker_0, # of connection points: 2
#     Edge 65, Type (0, 0), BuildingBlock: XIVTED_clean_linker_0, # of connection points: 2
#     Edge 66, Type (0, 0), BuildingBlock: XIVTED_clean_linker_0, # of connection points: 2
#     Edge 67, Type (0, 0), BuildingBlock: XIVTED_clean_linker_0, # of connection points: 2
#     Edge 68, Type (0, 0), BuildingBlock: XIVTED_clean_linker_0, # of connection points: 2
#     Edge 69, Type (0, 0), BuildingBlock: XIVTED_clean_linker_0, # of connection points: 2
#     Edge 70, Type (0, 0), BuildingBlock: XIVTED_clean_linker_0, # of connection points: 2
#     Edge 71, Type (0, 0), BuildingBlock: XIVTED_clean_linker_0, # of connection points: 2
#     Edge 72, Type (0, 0), BuildingBlock: XIVTED_clean_linker_0, # of connection points: 2
#     Edge 73, Type (0, 0), BuildingBlock: XIVTED_clean_linker_0, # of connection points: 2
#     Edge 74, Type (0, 0), BuildingBlock: XIVTED_clean_linker_0, # of connection points: 2
#     Edge 75, Type (0, 0), BuildingBlock: XIVTED_clean_linker_0, # of connection points: 2
#     Edge 76, Type (0, 0), BuildingBlock: XIVTED_clean_linker_0, # of connection points: 2
#     Edge 77, Type (0, 0), BuildingBlock: XIVTED_clean_linker_0, # of connection points: 2
#     Edge 78, Type (0, 0), BuildingBlock: XIVTED_clean_linker_0, # of connection points: 2
#     Edge 79, Type (0, 0), BuildingBlock: XIVTED_clean_linker_0, # of connection points: 2
#     Edge 80, Type (0, 0), BuildingBlock: XIVTED_clean_linker_0, # of connection points: 2
#     Edge 81, Type (0, 0), BuildingBlock: XIVTED_clean_linker_0, # of connection points: 2
#     Edge 82, Type (0, 0), BuildingBlock: XIVTED_clean_linker_0, # of connection points: 2
#     Edge 83, Type (0, 0), BuildingBlock: XIVTED_clean_linker_0, # of connection points: 2
#     Edge 84, Type (0, 0), BuildingBlock: XIVTED_clean_linker_0, # of connection points: 2
#     Edge 85, Type (0, 0), BuildingBlock: XIVTED_clean_linker_0, # of connection points: 2
#     Edge 86, Type (0, 0), BuildingBlock: XIVTED_clean_linker_0, # of connection points: 2
#     Edge 87, Type (0, 0), BuildingBlock: XIVTED_clean_linker_0, # of connection points: 2
#     Edge 88, Type (0, 0), BuildingBlock: XIVTED_clean_linker_0, # of connection points: 2
#     Edge 89, Type (0, 0), BuildingBlock: XIVTED_clean_linker_0, # of connection points: 2
#     Edge 90, Type (0, 0), BuildingBlock: XIVTED_clean_linker_0, # of connection points: 2
#     Edge 91, Type (0, 0), BuildingBlock: XIVTED_clean_linker_0, # of connection points: 2
#     Edge 92, Type (0, 0), BuildingBlock: XIVTED_clean_linker_0, # of connection points: 2
#     Edge 93, Type (0, 0), BuildingBlock: XIVTED_clean_linker_0, # of connection points: 2
#     Edge 94, Type (0, 0), BuildingBlock: XIVTED_clean_linker_0, # of connection points: 2
#     Edge 95, Type (0, 0), BuildingBlock: XIVTED_clean_linker_0, # of connection points: 2
# Relax obj value: 0.180
# Max RMSD: 0.417
# Mean RMSD: 0.267
data_MOF--net-uoi--node1-GALJAG_clean_sbu_0--edge1-XIVTED_clean_linker_0
_symmetry_space_group_name_H-M    P1
_symmetry_Int_Tables_number       1
_symmetry_cell_setting            triclinic
loop_
_symmetry_equiv_pos_as_xyz
'x, y, z'
_cell_length_a     44.606036
_cell_length_b     68.90265
_cell_length_c     23.746872
_cell_angle_alpha  89.950521
_cell_angle_beta   89.990682
_cell_angle_gamma 89.97738
loop_
_atom_site_label
_atom_site_type_symbol
_atom_site_fract_x
_atom_site_fract_y
_atom_site_fract_z
_atom_type_partial_charge
In0 In 0.32739 0.20186 0.23052 0.0
O1 O 0.28569 0.2046 0.17575 0.0
O2 O 0.30902 0.17721 0.18141 0.0
C3 C 0.34982 0.22989 0.29423 0.0
C4 C 0.36485 0.20705 0.14552 0.0
C5 C 0.30358 0.18394 0.31883 0.0
O6 O 0.3255 0.23223 0.26687 0.0
O7 O 0.36259 0.21354 0.28824 0.0
O8 O 0.32954 0.17926 0.30076 0.0
O9 O 0.29036 0.1974 0.29213 0.0
C10 C 0.28742 0.18686 0.16077 0.0
O11 O 0.3659 0.19152 0.17466 0.0
O12 O 0.34578 0.21962 0.16077 0.0
In13 In 0.09779 0.89169 0.64845 0.0
O14 O 0.12957 0.86622 0.63054 0.0
O15 O 0.13831 0.89328 0.59116 0.0
C16 C 0.07021 0.877 0.74017 0.0
C17 C 0.05419 0.88935 0.57054 0.0
C18 C 0.1127 0.9276 0.68377 0.0
O19 O 0.09818 0.87985 0.73912 0.0
O20 O 0.05694 0.88065 0.69466 0.0
O21 O 0.10133 0.92449 0.63595 0.0
O22 O 0.11697 0.91262 0.71322 0.0
C23 C 0.14564 0.87574 0.59658 0.0
O24 O 0.05839 0.9044 0.59988 0.0
O25 O 0.07219 0.87559 0.58015 0.0
In26 In 0.16675 0.80033 0.72871 0.0
O27 O 0.12893 0.81259 0.6731 0.0
O28 O 0.14521 0.78355 0.66014 0.0
C29 C 0.19079 0.81922 0.81509 0.0
C30 C 0.21065 0.81176 0.66102 0.0
C31 C 0.14387 0.77251 0.79338 0.0
O32 O 0.16504 0.82403 0.79642 0.0
O33 O 0.20331 0.80503 0.79079 0.0
O34 O 0.16786 0.76987 0.76536 0.0
O35 O 0.13185 0.7891 0.78813 0.0
C36 C 0.12743 0.79687 0.64508 0.0
O37 O 0.20858 0.79409 0.67626 0.0
O38 O 0.19046 0.82303 0.6794 0.0
In39 In 0.41307 0.09967 0.14935 0.0
O40 O 0.45387 0.09374 0.09321 0.0
O41 O 0.44014 0.12299 0.10472 0.0
C42 C 0.39202 0.06365 0.16838 0.0
C43 C 0.36654 0.11597 0.09533 0.0
C44 C 0.43666 0.10645 0.25145 0.0
O45 O 0.41008 0.06741 0.12877 0.0
O46 O 0.38395 0.07816 0.19716 0.0
O47 O 0.41513 0.1165 0.23271 0.0
O48 O 0.44619 0.09351 0.21855 0.0
C49 C 0.45826 0.11141 0.08184 0.0
O50 O 0.37711 0.12313 0.14013 0.0
O51 O 0.3787 0.10036 0.07955 0.0
In52 In 0.32897 0.80326 0.25085 0.0
O53 O 0.36685 0.81199 0.31078 0.0
O54 O 0.34511 0.78407 0.31871 0.0
C55 C 0.30054 0.81896 0.16444 0.0
C56 C 0.28712 0.81703 0.31833 0.0
C57 C 0.35685 0.77829 0.18478 0.0
O58 O 0.32501 0.82632 0.18256 0.0
O59 O 0.29141 0.80379 0.18963 0.0
O60 O 0.33308 0.77372 0.21146 0.0
O61 O 0.36632 0.79554 0.19194 0.0
C62 C 0.36478 0.7958 0.33681 0.0
O63 O 0.28725 0.79923 0.30367 0.0
O64 O 0.30827 0.82748 0.29905 0.0
In65 In 0.39362 0.88975 0.32248 0.0
O66 O 0.36548 0.86315 0.34783 0.0
O67 O 0.35372 0.89046 0.38194 0.0
C68 C 0.41471 0.87544 0.22461 0.0
C69 C 0.44111 0.89042 0.39253 0.0
C70 C 0.37833 0.9261 0.29084 0.0
O71 O 0.38768 0.88043 0.2308 0.0
O72 O 0.43049 0.87668 0.26846 0.0
O73 O 0.38862 0.92224 0.33909 0.0
O74 O 0.37491 0.91158 0.25919 0.0
C75 C 0.34882 0.87251 0.38096 0.0
O76 O 0.43273 0.90504 0.36465 0.0
O77 O 0.42584 0.87527 0.38437 0.0
In78 In 0.18141 0.19911 0.77324 0.0
O79 O 0.14337 0.18816 0.82942 0.0
O80 O 0.16299 0.21636 0.84397 0.0
C81 C 0.20588 0.18254 0.68355 0.0
C82 C 0.22356 0.18466 0.83953 0.0
C83 C 0.15602 0.22637 0.71049 0.0
O84 O 0.18069 0.17669 0.7026 0.0
O85 O 0.21794 0.19653 0.70982 0.0
O86 O 0.1803 0.22958 0.73723 0.0
O87 O 0.14489 0.20953 0.71641 0.0
C88 C 0.14399 0.20367 0.85865 0.0
O89 O 0.22365 0.20257 0.826 0.0
O90 O 0.20218 0.17459 0.81987 0.0
In91 In 0.1009 0.09849 0.86344 0.0
O92 O 0.13336 0.12434 0.86408 0.0
O93 O 0.14397 0.09943 0.91298 0.0
C94 C 0.06679 0.10404 0.77244 0.0
C95 C 0.06311 0.10966 0.94566 0.0
C96 C 0.11637 0.06211 0.83525 0.0
O97 O 0.09154 0.11284 0.77837 0.0
O98 O 0.05976 0.09273 0.81213 0.0
O99 O 0.10077 0.06588 0.87837 0.0
O100 O 0.12481 0.07675 0.80737 0.0
C101 C 0.15103 0.11643 0.89878 0.0
O102 O 0.07843 0.09428 0.94911 0.0
O103 O 0.06682 0.11925 0.90109 0.0
In104 In 0.66682 0.80551 0.77447 0.0
O105 O 0.71009 0.80214 0.82542 0.0
O106 O 0.68751 0.82966 0.82332 0.0
C107 C 0.65397 0.77479 0.71057 0.0
C108 C 0.62861 0.79996 0.85919 0.0
C109 C 0.67957 0.82686 0.68391 0.0
O110 O 0.67854 0.77587 0.7376 0.0
O111 O 0.63614 0.78887 0.7176 0.0
O112 O 0.65329 0.8269 0.70478 0.0
O113 O 0.69866 0.81665 0.70973 0.0
C114 C 0.70934 0.81974 0.84147 0.0
O115 O 0.62869 0.8159 0.83222 0.0
O116 O 0.64674 0.78723 0.84187 0.0
In117 In 0.89572 0.11619 0.34781 0.0
O118 O 0.91314 0.10092 0.42603 0.0
O119 O 0.9284 0.12966 0.41 0.0
C120 C 0.89255 0.08039 0.30227 0.0
C121 C 0.84639 0.13239 0.39383 0.0
C122 C 0.92513 0.13294 0.26168 0.0
O123 O 0.91528 0.08661 0.3281 0.0
O124 O 0.87091 0.09222 0.29956 0.0
O125 O 0.89811 0.12763 0.25694 0.0
O126 O 0.93598 0.13095 0.31025 0.0
C127 C 0.92937 0.11493 0.44151 0.0
O128 O 0.86531 0.14229 0.36673 0.0
O129 O 0.85141 0.11442 0.39404 0.0
In130 In 0.84609 0.19948 0.25797 0.0
O131 O 0.8809 0.18491 0.31635 0.0
O132 O 0.87034 0.21507 0.326 0.0
C133 C 0.8228 0.17978 0.17208 0.0
C134 C 0.79907 0.1916 0.32296 0.0
C135 C 0.86968 0.22711 0.19306 0.0
O136 O 0.84824 0.17499 0.19216 0.0
O137 O 0.81034 0.19431 0.19455 0.0
O138 O 0.846 0.23 0.22163 0.0
O139 O 0.88123 0.21039 0.19805 0.0
C140 C 0.88506 0.20061 0.3434 0.0
O141 O 0.80425 0.20889 0.30698 0.0
O142 O 0.81788 0.17899 0.30713 0.0
In143 In 0.59235 0.91028 0.83432 0.0
O144 O 0.55222 0.91707 0.89127 0.0
O145 O 0.56409 0.88753 0.87883 0.0
C146 C 0.61424 0.94617 0.81674 0.0
C147 C 0.63771 0.89228 0.88748 0.0
C148 C 0.5682 0.90443 0.73222 0.0
O149 O 0.59679 0.94225 0.85715 0.0
O150 O 0.62149 0.93183 0.78649 0.0
O151 O 0.59036 0.89456 0.74907 0.0
O152 O 0.5584 0.91671 0.76691 0.0
C153 C 0.54679 0.89949 0.90223 0.0
O154 O 0.62521 0.88503 0.84461 0.0
O155 O 0.62832 0.90886 0.90137 0.0
In156 In 0.66667 0.19731 0.75726 0.0
O157 O 0.62932 0.18753 0.69767 0.0
O158 O 0.64875 0.21618 0.69018 0.0
C159 C 0.69891 0.18266 0.84056 0.0
C160 C 0.70822 0.18507 0.68694 0.0
C161 C 0.63693 0.22101 0.82452 0.0
O162 O 0.67487 0.17425 0.82433 0.0
O163 O 0.70552 0.1984 0.81552 0.0
O164 O 0.65997 0.22653 0.79714 0.0
O165 O 0.62915 0.20338 0.81772 0.0
C166 C 0.63008 0.2038 0.67185 0.0
O167 O 0.70738 0.20272 0.70303 0.0
O168 O 0.68781 0.17398 0.70614 0.0
In169 In 0.61024 0.12008 0.6612 0.0
O170 O 0.63875 0.14647 0.63449 0.0
O171 O 0.64886 0.11905 0.5993 0.0
C172 C 0.59061 0.13458 0.75992 0.0
C173 C 0.56194 0.11951 0.59316 0.0
C174 C 0.62573 0.08353 0.69098 0.0
O175 O 0.61745 0.12934 0.75265 0.0
O176 O 0.57434 0.13354 0.71665 0.0
O177 O 0.61472 0.08763 0.6435 0.0
O178 O 0.62972 0.09791 0.72295 0.0
C179 C 0.65433 0.13693 0.59994 0.0
O180 O 0.56995 0.10509 0.62226 0.0
O181 O 0.57791 0.13448 0.59936 0.0
In182 In 0.8014 0.8011 0.23115 0.0
O183 O 0.83902 0.80933 0.17205 0.0
O184 O 0.81583 0.78186 0.16151 0.0
C185 C 0.77104 0.81534 0.31718 0.0
C186 C 0.76408 0.81835 0.16139 0.0
C187 C 0.83253 0.77724 0.29575 0.0
O188 O 0.79553 0.82309 0.30071 0.0
O189 O 0.76254 0.80031 0.29037 0.0
O190 O 0.80858 0.77178 0.27099 0.0
O191 O 0.84034 0.79481 0.28769 0.0
C192 C 0.83592 0.79357 0.14443 0.0
O193 O 0.76079 0.80048 0.17444 0.0
O194 O 0.78612 0.82714 0.184 0.0
In195 In 0.89685 0.90443 0.14944 0.0
O196 O 0.8662 0.87799 0.1393 0.0
O197 O 0.85284 0.90461 0.10176 0.0
C198 C 0.91187 0.89056 0.25191 0.0
C199 C 0.93716 0.89729 0.06715 0.0
C200 C 0.89438 0.94327 0.1645 0.0
O201 O 0.8942 0.90466 0.24536 0.0
O202 O 0.92051 0.88276 0.20676 0.0
O203 O 0.91773 0.93469 0.14774 0.0
O204 O 0.87214 0.93232 0.17263 0.0
C205 C 0.84739 0.88683 0.10893 0.0
O206 O 0.9096 0.89969 0.05781 0.0
O207 O 0.94476 0.89922 0.11798 0.0
In208 In 0.83034 0.70469 0.71843 0.0
O209 O 0.86881 0.69605 0.65953 0.0
O210 O 0.84753 0.72399 0.65126 0.0
C211 C 0.81081 0.68501 0.80714 0.0
C212 C 0.78859 0.68969 0.65249 0.0
C213 C 0.84924 0.7328 0.78548 0.0
O214 O 0.83694 0.68185 0.78728 0.0
O215 O 0.7953 0.69768 0.78171 0.0
O216 O 0.82502 0.73446 0.75744 0.0
O217 O 0.86388 0.71722 0.77784 0.0
C218 C 0.86703 0.71217 0.63338 0.0
O219 O 0.78706 0.70735 0.66805 0.0
O220 O 0.81119 0.68022 0.66968 0.0
In221 In 0.60965 0.39536 0.11803 0.0
O222 O 0.63181 0.36538 0.10558 0.0
O223 O 0.65337 0.3904 0.0728 0.0
C224 C 0.56969 0.39078 0.20151 0.0
C225 C 0.57361 0.39564 0.02751 0.0
C226 C 0.63455 0.42791 0.15978 0.0
O227 O 0.5941 0.38136 0.20107 0.0
O228 O 0.56569 0.40178 0.15979 0.0
O229 O 0.62218 0.42723 0.112 0.0
O230 O 0.63546 0.41191 0.18582 0.0
C231 C 0.65322 0.37219 0.07691 0.0
O232 O 0.58984 0.40994 0.04077 0.0
O233 O 0.5757 0.38115 0.05979 0.0
In234 In 0.66488 0.28997 0.24625 0.0
O235 O 0.62481 0.29995 0.19406 0.0
O236 O 0.64427 0.27159 0.1806 0.0
C237 C 0.69397 0.30757 0.32866 0.0
C238 C 0.70363 0.30417 0.17255 0.0
C239 C 0.64131 0.26403 0.31601 0.0
O240 O 0.66796 0.31334 0.31372 0.0
O241 O 0.7044 0.29302 0.3024 0.0
O242 O 0.66423 0.26002 0.28608 0.0
O243 O 0.63067 0.28102 0.30995 0.0
C244 C 0.62461 0.28401 0.16681 0.0
O245 O 0.70513 0.28647 0.18815 0.0
O246 O 0.6824 0.3141 0.19355 0.0
In247 In 0.89906 0.59798 0.63866 0.0
O248 O 0.87357 0.62675 0.62944 0.0
O249 O 0.85433 0.60131 0.59471 0.0
C250 C 0.93859 0.60613 0.71996 0.0
C251 C 0.93504 0.60043 0.5482 0.0
C252 C 0.87967 0.56372 0.67956 0.0
O253 O 0.9123 0.61307 0.72092 0.0
O254 O 0.94432 0.59522 0.67875 0.0
O255 O 0.88991 0.56568 0.63034 0.0
O256 O 0.8783 0.57921 0.7079 0.0
C257 C 0.8527 0.61943 0.60063 0.0
O258 O 0.92041 0.58526 0.55979 0.0
O259 O 0.93127 0.61434 0.58188 0.0
In260 In 0.83484 0.28653 0.75576 0.0
O261 O 0.87223 0.3 0.8087 0.0
O262 O 0.85651 0.27109 0.82701 0.0
C263 C 0.80941 0.30448 0.66923 0.0
C264 C 0.79164 0.29923 0.82329 0.0
C265 C 0.86035 0.25916 0.69258 0.0
O266 O 0.83495 0.3099 0.6874 0.0
O267 O 0.79781 0.29 0.69387 0.0
O268 O 0.83634 0.2558 0.71998 0.0
O269 O 0.87095 0.27614 0.69776 0.0
C270 C 0.87396 0.28492 0.83953 0.0
O271 O 0.79285 0.28136 0.80948 0.0
O272 O 0.81238 0.3099 0.80403 0.0
In273 In 0.8875 0.39199 0.85974 0.0
O274 O 0.90806 0.39901 0.94509 0.0
O275 O 0.92611 0.37526 0.8986 0.0
C276 C 0.87594 0.42936 0.83309 0.0
C277 C 0.84105 0.37168 0.90317 0.0
C278 C 0.91616 0.38304 0.76392 0.0
O279 O 0.89399 0.42465 0.87171 0.0
O280 O 0.86341 0.41527 0.80876 0.0
O281 O 0.88783 0.38317 0.76646 0.0
O282 O 0.92942 0.387 0.80927 0.0
C283 C 0.92699 0.38538 0.94277 0.0
O284 O 0.8604 0.36381 0.87193 0.0
O285 O 0.84421 0.3897 0.90904 0.0
In286 In 0.68665 0.70859 0.25816 0.0
O287 O 0.72853 0.70918 0.3117 0.0
O288 O 0.70346 0.68243 0.30239 0.0
C289 C 0.65787 0.73547 0.19945 0.0
C290 C 0.65449 0.71329 0.34983 0.0
C291 C 0.71317 0.69313 0.16919 0.0
O292 O 0.68311 0.73895 0.22253 0.0
O293 O 0.64745 0.71847 0.20675 0.0
O294 O 0.68811 0.68662 0.18703 0.0
O295 O 0.72399 0.70749 0.19589 0.0
C296 C 0.72561 0.69125 0.32434 0.0
O297 O 0.64982 0.6988 0.31757 0.0
O298 O 0.6743 0.72538 0.33415 0.0
In299 In 0.60579 0.5914 0.36881 0.0
O300 O 0.58452 0.58041 0.45004 0.0
O301 O 0.57184 0.60838 0.42047 0.0
C302 C 0.62966 0.55776 0.33255 0.0
C303 C 0.65122 0.61373 0.40573 0.0
C304 C 0.56797 0.59616 0.28232 0.0
O305 O 0.61487 0.55906 0.37778 0.0
O306 O 0.63312 0.57358 0.30633 0.0
O307 O 0.59179 0.60605 0.28636 0.0
O308 O 0.56357 0.58423 0.32173 0.0
C309 C 0.56887 0.59546 0.45764 0.0
O310 O 0.63086 0.62048 0.37439 0.0
O311 O 0.64922 0.59582 0.41557 0.0
In312 In 0.17074 0.29325 0.27226 0.0
O313 O 0.2136 0.29142 0.32394 0.0
O314 O 0.18956 0.31856 0.31738 0.0
C315 C 0.14704 0.26539 0.20982 0.0
C316 C 0.1353 0.28803 0.3601 0.0
C317 C 0.19421 0.31047 0.18286 0.0
O318 O 0.17143 0.2628 0.23679 0.0
O319 O 0.13475 0.2819 0.21572 0.0
O320 O 0.20722 0.29688 0.20939 0.0
O321 O 0.16847 0.3155 0.20126 0.0
C322 C 0.21195 0.30936 0.33681 0.0
O323 O 0.13302 0.30335 0.33025 0.0
O324 O 0.15464 0.2757 0.34437 0.0
In325 In 0.38898 0.60363 0.86831 0.0
O326 O 0.36682 0.63358 0.88015 0.0
O327 O 0.34717 0.60887 0.91888 0.0
C328 C 0.42841 0.60762 0.78388 0.0
C329 C 0.42634 0.6034 0.95681 0.0
C330 C 0.36184 0.57182 0.82711 0.0
O331 O 0.40477 0.61781 0.78579 0.0
O332 O 0.43187 0.59608 0.82454 0.0
O333 O 0.37505 0.57205 0.87412 0.0
O334 O 0.36126 0.58792 0.8016 0.0
C335 C 0.3468 0.62701 0.91266 0.0
O336 O 0.41016 0.58901 0.94416 0.0
O337 O 0.42364 0.61791 0.92478 0.0
In338 In 0.32693 0.70899 0.75777 0.0
O339 O 0.36692 0.69999 0.81133 0.0
O340 O 0.34537 0.7278 0.8246 0.0
C341 C 0.29702 0.69325 0.67336 0.0
C342 C 0.28897 0.69334 0.82999 0.0
C343 C 0.35268 0.73434 0.68953 0.0
O344 O 0.32223 0.68632 0.68909 0.0
O345 O 0.28764 0.708 0.70023 0.0
O346 O 0.32956 0.7388 0.71842 0.0
O347 O 0.36247 0.71712 0.6958 0.0
C348 C 0.36577 0.71591 0.83873 0.0
O349 O 0.28682 0.7112 0.81618 0.0
O350 O 0.31037 0.6839 0.80764 0.0
In351 In 0.09293 0.39313 0.34978 0.0
O352 O 0.12766 0.36899 0.35825 0.0
O353 O 0.1316 0.3939 0.41099 0.0
C354 C 0.06795 0.37517 0.26053 0.0
C355 C 0.05412 0.39109 0.43662 0.0
C356 C 0.10401 0.42939 0.31193 0.0
O357 O 0.09364 0.38279 0.25763 0.0
O358 O 0.05622 0.37571 0.30862 0.0
O359 O 0.07792 0.42258 0.31689 0.0
O360 O 0.12471 0.41804 0.32696 0.0
C361 C 0.14153 0.37736 0.39785 0.0
O362 O 0.05706 0.40632 0.40754 0.0
O363 O 0.07105 0.37731 0.42259 0.0
In364 In 0.16511 0.71107 0.23316 0.0
O365 O 0.12961 0.69756 0.17591 0.0
O366 O 0.14542 0.72663 0.16021 0.0
C367 C 0.18855 0.69341 0.3221 0.0
C368 C 0.21018 0.69868 0.16993 0.0
C369 C 0.13844 0.73833 0.29464 0.0
O370 O 0.16341 0.6879 0.30219 0.0
O371 O 0.20074 0.70775 0.29781 0.0
O372 O 0.16315 0.74159 0.26945 0.0
O373 O 0.12751 0.7215 0.28774 0.0
C374 C 0.1287 0.71272 0.14527 0.0
O375 O 0.20809 0.71659 0.18288 0.0
O376 O 0.18942 0.68778 0.18797 0.0
In377 In 0.11316 0.6008 0.13441 0.0
O378 O 0.13796 0.62985 0.12947 0.0
O379 O 0.16062 0.60447 0.10222 0.0
C380 C 0.07647 0.60595 0.22253 0.0
C381 C 0.08075 0.60795 0.04146 0.0
C382 C 0.1249 0.56328 0.15711 0.0
O383 O 0.10321 0.61209 0.22363 0.0
O384 O 0.06873 0.59789 0.17727 0.0
O385 O 0.10917 0.56874 0.1159 0.0
O386 O 0.13608 0.57688 0.186 0.0
C387 C 0.16095 0.62269 0.10654 0.0
O388 O 0.10002 0.59456 0.04395 0.0
O389 O 0.07797 0.61785 0.0858 0.0
In390 In 0.32158 0.29592 0.73305 0.0
O391 O 0.35889 0.30725 0.67661 0.0
O392 O 0.33983 0.27884 0.66188 0.0
C393 C 0.29421 0.31184 0.82048 0.0
C394 C 0.28125 0.3106 0.66372 0.0
C395 C 0.34832 0.26941 0.79643 0.0
O396 O 0.31959 0.31817 0.80377 0.0
O397 O 0.28341 0.29764 0.79316 0.0
O398 O 0.32436 0.26559 0.76934 0.0
O399 O 0.35857 0.2865 0.79045 0.0
C400 C 0.35814 0.29191 0.64665 0.0
O401 O 0.28027 0.29275 0.6781 0.0
O402 O 0.30239 0.32057 0.68482 0.0
In403 In 0.39331 0.40971 0.61706 0.0
O404 O 0.41494 0.42036 0.53569 0.0
O405 O 0.42687 0.39231 0.56571 0.0
C406 C 0.36849 0.44304 0.65307 0.0
C407 C 0.34761 0.38755 0.58096 0.0
C408 C 0.4312 0.40505 0.70353 0.0
O409 O 0.3838 0.442 0.60839 0.0
O410 O 0.3652 0.42716 0.679 0.0
O411 O 0.40781 0.39479 0.69869 0.0
O412 O 0.43513 0.41739 0.665 0.0
C413 C 0.43019 0.40512 0.52833 0.0
O414 O 0.36753 0.38095 0.61353 0.0
O415 O 0.35025 0.40528 0.56905 0.0
H416 H 0.17875 0.16729 0.58982 0.0
H417 H 0.33164 0.16946 0.41267 0.0
H418 H 0.2653 0.18071 0.66056 0.0
H419 H 0.24429 0.18019 0.34142 0.0
H420 H 0.30771 0.16233 0.50369 0.0
H421 H 0.20309 0.16082 0.49873 0.0
C422 C 0.20291 0.16836 0.5865 0.0
C423 C 0.22007 0.17476 0.63226 0.0
C424 C 0.29381 0.16584 0.4677 0.0
C425 C 0.2479 0.16736 0.52911 0.0
C426 C 0.30742 0.16979 0.41585 0.0
C427 C 0.28988 0.17565 0.36995 0.0
C428 C 0.2625 0.16752 0.47311 0.0
C429 C 0.25859 0.17597 0.37618 0.0
C430 C 0.21675 0.16478 0.53463 0.0
C431 C 0.25128 0.17604 0.62589 0.0
N432 N 0.24589 0.17214 0.42694 0.0
N433 N 0.26419 0.17253 0.57515 0.0
H434 H 0.11447 0.96156 0.62419 0.0
H435 H 0.10911 0.02842 0.89452 0.0
H436 H 0.1242 0.93842 0.79211 0.0
H437 H 0.13543 0.05034 0.73159 0.0
H438 H 0.113 0.99529 0.85801 0.0
H439 H 0.12044 0.99437 0.66219 0.0
C440 C 0.11809 0.96339 0.66898 0.0
C441 C 0.11871 0.94731 0.70514 0.0
C442 C 0.11828 0.00735 0.83048 0.0
C443 C 0.12518 0.98468 0.74887 0.0
C444 C 0.11601 0.02623 0.85125 0.0
C445 C 0.12184 0.0421 0.81592 0.0
C446 C 0.12585 0.00437 0.77373 0.0
C447 C 0.13074 0.03849 0.76022 0.0
C448 C 0.1216 0.98208 0.6906 0.0
C449 C 0.12356 0.95046 0.7628 0.0
N450 N 0.13209 0.01999 0.74058 0.0
N451 N 0.12624 0.96881 0.78302 0.0
H452 H 0.32068 0.84238 0.07841 0.0
H453 H 0.24952 0.82787 0.82442 0.0
H454 H 0.24175 0.81329 0.1408 0.0
H455 H 0.16617 0.8304 0.91577 0.0
H456 H 0.27665 0.83512 0.91089 0.0
H457 H 0.29318 0.85059 0.99189 0.0
C458 C 0.29749 0.83796 0.07415 0.0
C459 C 0.28365 0.82676 0.11602 0.0
C460 C 0.2524 0.83487 0.912 0.0
C461 C 0.2523 0.83579 0.01755 0.0
C462 C 0.23691 0.83061 0.86262 0.0
C463 C 0.20565 0.82853 0.86329 0.0
C464 C 0.23651 0.83662 0.96277 0.0
C465 C 0.19029 0.83202 0.91367 0.0
C466 C 0.28188 0.84249 0.02469 0.0
C467 C 0.25346 0.82157 0.10886 0.0
N468 N 0.20597 0.83539 0.9619 0.0
N469 N 0.23889 0.82598 0.06039 0.0
H470 H 0.36573 0.05112 0.26562 0.0
H471 H 0.37131 0.93874 0.18261 0.0
H472 H 0.39895 0.03062 0.1057 0.0
H473 H 0.375 0.95915 0.35419 0.0
H474 H 0.36936 0.97248 0.15004 0.0
H475 H 0.35692 0.01746 0.29436 0.0
C476 C 0.37076 0.03955 0.23624 0.0
C477 C 0.38331 0.04363 0.18335 0.0
C478 C 0.37028 0.96953 0.19481 0.0
C479 C 0.37319 0.00519 0.2159 0.0
C480 C 0.37124 0.95032 0.21345 0.0
C481 C 0.37352 0.94619 0.27117 0.0
C482 C 0.37118 0.98469 0.23423 0.0
C483 C 0.37345 0.96173 0.3093 0.0
C484 C 0.36586 0.02037 0.25279 0.0
C485 C 0.38945 0.02808 0.147 0.0
N486 N 0.37238 0.98031 0.29016 0.0
N487 N 0.38439 0.00952 0.164 0.0
H488 H 0.71358 0.80636 0.34622 0.0
H489 H 0.73126 0.84463 0.65414 0.0
H490 H 0.78883 0.84142 0.39766 0.0
H491 H 0.64624 0.82589 0.58763 0.0
H492 H 0.75056 0.84766 0.55832 0.0
H493 H 0.68665 0.81628 0.43096 0.0
C494 C 0.72433 0.8163 0.37518 0.0
C495 C 0.75366 0.82286 0.3654 0.0
C496 C 0.72741 0.84342 0.56437 0.0
C497 C 0.72299 0.83422 0.46268 0.0
C498 C 0.71635 0.84183 0.61906 0.0
C499 C 0.6872 0.83498 0.6285 0.0
C500 C 0.70944 0.83756 0.51895 0.0
C501 C 0.6688 0.83134 0.5819 0.0
C502 C 0.70886 0.82208 0.42338 0.0
C503 C 0.76636 0.8359 0.40389 0.0
N504 N 0.68048 0.83219 0.529 0.0
N505 N 0.75114 0.84091 0.45136 0.0
H506 H 0.84401 0.06051 0.26074 0.0
H507 H 0.9416 0.96841 0.1678 0.0
H508 H 0.93946 0.05573 0.28679 0.0
H509 H 0.84578 0.9657 0.19142 0.0
H510 H 0.94075 0.00243 0.1969 0.0
H511 H 0.84382 0.02751 0.22166 0.0
C512 C 0.8649 0.05255 0.25801 0.0
C513 C 0.89176 0.06079 0.27724 0.0
C514 C 0.91989 0.99442 0.19546 0.0
C515 C 0.89176 0.02329 0.23232 0.0
C516 C 0.92034 0.97503 0.17861 0.0
C517 C 0.89374 0.96422 0.17749 0.0
C518 C 0.8926 0.00311 0.21085 0.0
C519 C 0.86682 0.97352 0.19199 0.0
C520 C 0.86477 0.03375 0.23586 0.0
C521 C 0.91822 0.04988 0.27276 0.0
N522 N 0.86692 0.99245 0.20817 0.0
N523 N 0.91756 0.03172 0.25069 0.0
H524 H 0.68556 0.15607 0.92372 0.0
H525 H 0.76643 0.1659 0.17043 0.0
H526 H 0.7571 0.19191 0.85944 0.0
H527 H 0.84451 0.17338 0.06607 0.0
H528 H 0.73638 0.15967 0.08668 0.0
H529 H 0.71767 0.14709 0.00376 0.0
C530 C 0.70806 0.1619 0.92626 0.0
C531 C 0.71846 0.1751 0.88577 0.0
C532 C 0.76027 0.16181 0.08182 0.0
C533 C 0.75511 0.16512 0.9769 0.0
C534 C 0.77743 0.16539 0.12975 0.0
C535 C 0.80792 0.16998 0.12486 0.0
C536 C 0.77363 0.16333 0.02845 0.0
C537 C 0.82111 0.16962 0.07141 0.0
C538 C 0.72631 0.15689 0.97206 0.0
C539 C 0.74794 0.18203 0.89049 0.0
N540 N 0.80368 0.16687 0.025 0.0
N541 N 0.76512 0.17707 0.93538 0.0
H542 H 0.60896 0.9787 0.88197 0.0
H543 H 0.62839 0.05091 0.62583 0.0
H544 H 0.63834 0.95941 0.71822 0.0
H545 H 0.63407 0.0702 0.79827 0.0
H546 H 0.63135 0.01723 0.65839 0.0
H547 H 0.61742 0.01235 0.85265 0.0
C548 C 0.61755 0.98155 0.8401 0.0
C549 C 0.62284 0.96628 0.80237 0.0
C550 C 0.63235 0.02884 0.68905 0.0
C551 C 0.63206 0.00468 0.76826 0.0
C552 C 0.63059 0.04804 0.6705 0.0
C553 C 0.63087 0.06332 0.70945 0.0
C554 C 0.63379 0.0249 0.74704 0.0
C555 C 0.6338 0.05882 0.76685 0.0
C556 C 0.62241 0.00074 0.82342 0.0
C557 C 0.63398 0.97076 0.74863 0.0
N558 N 0.63472 0.04 0.78401 0.0
N559 N 0.63781 0.98957 0.73288 0.0
H560 H 0.84189 0.678 0.90428 0.0
H561 H 0.68999 0.6713 0.08286 0.0
H562 H 0.75383 0.67424 0.83049 0.0
H563 H 0.77231 0.69657 0.14367 0.0
H564 H 0.71606 0.66179 0.99592 0.0
H565 H 0.81935 0.67361 -0.00209 0.0
C566 C 0.81798 0.6755 0.90769 0.0
C567 C 0.79957 0.67662 0.86004 0.0
C568 C 0.72846 0.66914 0.02881 0.0
C569 C 0.77374 0.67186 0.96615 0.0
C570 C 0.71363 0.67454 0.07829 0.0
C571 C 0.72893 0.68503 0.11987 0.0
C572 C 0.75882 0.67404 0.02149 0.0
C573 C 0.75957 0.6888 0.11209 0.0
C574 C 0.8051 0.67322 0.96101 0.0
C575 C 0.76867 0.67361 0.86654 0.0
N576 N 0.77346 0.68344 0.06368 0.0
N577 N 0.75664 0.67159 0.91871 0.0
H578 H 0.65127 0.55018 0.2271 0.0
H579 H 0.64748 0.43501 0.27047 0.0
H580 H 0.62965 0.52241 0.38488 0.0
H581 H 0.6413 0.4631 0.10843 0.0
H582 H 0.65381 0.46685 0.31476 0.0
H583 H 0.66038 0.51822 0.18545 0.0
C584 C 0.64892 0.53738 0.25323 0.0
C585 C 0.63937 0.5389 0.30933 0.0
C586 C 0.65151 0.46599 0.26943 0.0
C587 C 0.64973 0.50238 0.26202 0.0
C588 C 0.64806 0.44784 0.24411 0.0
C589 C 0.64356 0.44647 0.18578 0.0
C590 C 0.65068 0.48283 0.23608 0.0
C591 C 0.64444 0.46355 0.15362 0.0
C592 C 0.65401 0.51916 0.22938 0.0
C593 C 0.6367 0.52185 0.34129 0.0
N594 N 0.64767 0.48104 0.17924 0.0
N595 N 0.64164 0.50427 0.31707 0.0
H596 H 0.6722 0.3241 0.42532 0.0
H597 H 0.83341 0.31992 0.57268 0.0
H598 H 0.75431 0.30986 0.33888 0.0
H599 H 0.74966 0.3095 0.6581 0.0
H600 H 0.80524 0.32857 0.48707 0.0
H601 H 0.70147 0.33119 0.51064 0.0
C602 C 0.69642 0.32302 0.42391 0.0
C603 C 0.71093 0.31609 0.37566 0.0
C604 C 0.79311 0.32484 0.52507 0.0
C605 C 0.74431 0.32417 0.47213 0.0
C606 C 0.80913 0.32 0.57377 0.0
C607 C 0.79372 0.31372 0.62181 0.0
C608 C 0.76162 0.32362 0.52519 0.0
C609 C 0.76229 0.31398 0.62136 0.0
C610 C 0.71306 0.32697 0.47249 0.0
C611 C 0.74232 0.31486 0.37578 0.0
N612 N 0.74724 0.31866 0.57361 0.0
N613 N 0.75798 0.31865 0.42349 0.0
H614 H 0.8927 0.46256 0.88794 0.0
H615 H 0.86856 0.53012 0.6228 0.0
H616 H 0.8492 0.44227 0.7368 0.0
H617 H 0.87568 0.55355 0.79065 0.0
H618 H 0.86297 0.49761 0.66299 0.0
H619 H 0.88852 0.49595 0.85297 0.0
C620 C 0.88206 0.46516 0.84764 0.0
C621 C 0.87139 0.44966 0.81507 0.0
C622 C 0.86537 0.50989 0.69106 0.0
C623 C 0.86689 0.48766 0.77463 0.0
C624 C 0.8686 0.52842 0.66816 0.0
C625 C 0.87265 0.54449 0.70351 0.0
C626 C 0.86685 0.50737 0.74968 0.0
C627 C 0.87252 0.54152 0.76198 0.0
C628 C 0.87959 0.48419 0.82782 0.0
C629 C 0.85772 0.45381 0.76322 0.0
N630 N 0.87013 0.52325 0.78329 0.0
N631 N 0.85621 0.4724 0.74426 0.0
H632 H 0.23427 0.31194 0.83922 0.0
H633 H 0.25346 0.31578 0.16409 0.0
H634 H 0.31824 0.3284 0.91528 0.0
H635 H 0.16694 0.32339 0.08632 0.0
H636 H 0.27753 0.32314 0.07424 0.0
H637 H 0.20869 0.31871 0.92798 0.0
C638 C 0.24723 0.31732 0.8745 0.0
C639 C 0.27842 0.31941 0.87034 0.0
C640 C 0.2533 0.32365 0.07693 0.0
C641 C 0.24942 0.32683 0.97227 0.0
C642 C 0.23956 0.3194 0.12814 0.0
C643 C 0.20822 0.31881 0.1322 0.0
C644 C 0.23555 0.32679 0.02903 0.0
C645 C 0.19119 0.32369 0.08471 0.0
C646 C 0.2326 0.32126 0.92507 0.0
C647 C 0.29415 0.32656 0.91697 0.0
N648 N 0.20509 0.32704 0.03458 0.0
N649 N 0.27956 0.32961 0.96653 0.0
H650 H 0.34506 0.45009 0.7574 0.0
H651 H 0.34809 0.56528 0.71653 0.0
H652 H 0.36803 0.47846 0.60118 0.0
H653 H 0.35377 0.53668 0.87789 0.0
H654 H 0.3413 0.53361 0.67146 0.0
H655 H 0.33439 0.48183 0.79908 0.0
C656 C 0.34738 0.46297 0.7316 0.0
C657 C 0.35783 0.4617 0.67601 0.0
C658 C 0.34353 0.53433 0.71683 0.0
C659 C 0.34566 0.49796 0.72333 0.0
C660 C 0.34723 0.55238 0.74259 0.0
C661 C 0.35187 0.55353 0.80091 0.0
C662 C 0.34425 0.51739 0.74976 0.0
C663 C 0.35059 0.53639 0.8327 0.0
C664 C 0.34137 0.48107 0.75545 0.0
C665 C 0.36035 0.47884 0.64441 0.0
N666 N 0.34718 0.51899 0.80665 0.0
N667 N 0.35455 0.49629 0.66867 0.0
H668 H 0.24736 0.68539 0.33321 0.0
H669 H 0.31686 0.66974 0.58767 0.0
H670 H 0.16337 0.68228 0.42234 0.0
H671 H 0.23823 0.69936 0.64936 0.0
H672 H 0.28953 0.6618 0.50096 0.0
H673 H 0.27392 0.6781 0.42031 0.0
C674 C 0.23451 0.68255 0.37108 0.0
C675 C 0.20324 0.68444 0.37097 0.0
C676 C 0.27826 0.66995 0.53365 0.0
C677 C 0.23341 0.67627 0.47109 0.0
C678 C 0.29376 0.67434 0.58323 0.0
C679 C 0.27998 0.68561 0.62497 0.0
C680 C 0.24885 0.6769 0.52617 0.0
C681 C 0.24989 0.69102 0.61754 0.0
C682 C 0.24967 0.67825 0.42079 0.0
C683 C 0.18753 0.6808 0.42091 0.0
N684 N 0.23542 0.68676 0.56885 0.0
N685 N 0.20288 0.6774 0.4695 0.0
H686 H 0.15495 0.4515 0.32054 0.0
H687 H 0.09453 0.53299 0.11124 0.0
H688 H 0.0661 0.45127 0.24873 0.0
H689 H 0.15839 0.54673 0.24178 0.0
H690 H 0.09169 0.49983 0.14689 0.0
H691 H 0.16342 0.48383 0.27924 0.0
C692 C 0.1373 0.45824 0.29603 0.0
C693 C 0.10973 0.44882 0.28818 0.0
C694 C 0.10651 0.51007 0.16744 0.0
C695 C 0.11948 0.4853 0.24026 0.0
C696 C 0.10831 0.52896 0.14694 0.0
C697 C 0.12657 0.54267 0.1739 0.0
C698 C 0.12333 0.50473 0.21486 0.0
C699 C 0.14393 0.53661 0.22 0.0
C700 C 0.14214 0.47662 0.27266 0.0
C701 C 0.08759 0.45811 0.25612 0.0
N702 N 0.14184 0.51803 0.23924 0.0
N703 N 0.09302 0.47579 0.23304 0.0
H704 H 0.19369 0.10125 0.96741 0.0
H705 H 0.24788 0.2041 0.08664 0.0
H706 H 0.16274 0.15542 0.89768 0.0
H707 H 0.279 0.1484 0.14583 0.0
H708 H 0.21587 0.18734 0.01758 0.0
H709 H 0.22673 0.119 0.0303 0.0
C710 C 0.19409 0.11695 0.96502 0.0
C711 C 0.1751 0.12697 0.92812 0.0
C712 C 0.22969 0.17886 0.0459 0.0
C713 C 0.21224 0.1475 0.00139 0.0
C714 C 0.24778 0.18839 0.08536 0.0
C715 C 0.26621 0.17759 0.12159 0.0
C716 C 0.23022 0.15847 0.04302 0.0
C717 C 0.26535 0.1573 0.11835 0.0
C718 C 0.21277 0.12712 0.00135 0.0
C719 C 0.17675 0.14727 0.92639 0.0
N720 N 0.24779 0.14844 0.07969 0.0
N721 N 0.19468 0.15696 0.96325 0.0
H722 H 0.27296 0.85503 0.33127 0.0
H723 H 0.16193 0.83752 0.59075 0.0
H724 H 0.24986 0.7979 0.39173 0.0
H725 H 0.181 0.89357 0.51869 0.0
H726 H 0.19375 0.82238 0.51891 0.0
H727 H 0.23862 0.86916 0.39952 0.0
C728 C 0.2604 0.84545 0.35871 0.0
C729 C 0.26433 0.8253 0.3562 0.0
C730 C 0.19101 0.83799 0.51893 0.0
C731 C 0.22503 0.84136 0.43481 0.0
C732 C 0.17287 0.84659 0.55985 0.0
C733 C 0.16837 0.86671 0.55992 0.0
C734 C 0.20544 0.84974 0.47889 0.0
C735 C 0.18372 0.87796 0.52005 0.0
C736 C 0.24078 0.85352 0.39771 0.0
C737 C 0.24742 0.81353 0.39245 0.0
N738 N 0.20155 0.86932 0.48119 0.0
N739 N 0.2286 0.82176 0.4307 0.0
H740 H 0.31277 0.89016 0.45787 0.0
H741 H 0.2465 0.79171 0.58655 0.0
H742 H 0.33757 0.83374 0.39521 0.0
H743 H 0.22888 0.849 0.65186 0.0
H744 H 0.28182 0.80602 0.51855 0.0
H745 H 0.28208 0.8747 0.52972 0.0
C746 C 0.31174 0.87446 0.45922 0.0
C747 C 0.32797 0.86316 0.42084 0.0
C748 C 0.27041 0.81538 0.54823 0.0
C749 C 0.29326 0.84526 0.50388 0.0
C750 C 0.25041 0.80722 0.58705 0.0
C751 C 0.23458 0.81925 0.62425 0.0
C752 C 0.27446 0.83563 0.54706 0.0
C753 C 0.24037 0.83923 0.6234 0.0
C754 C 0.2944 0.86561 0.50062 0.0
C755 C 0.32582 0.8429 0.42467 0.0
N756 N 0.25963 0.84679 0.58518 0.0
N757 N 0.30882 0.83453 0.46559 0.0
H758 H 0.26252 0.2022 0.91375 0.0
H759 H 0.33529 0.10096 0.00735 0.0
H760 H 0.23693 0.14646 0.84647 0.0
H761 H 0.3471 0.1536 0.10298 0.0
H762 H 0.3021 0.11828 0.94318 0.0
H763 H 0.29801 0.18569 0.97719 0.0
C764 C 0.2646 0.18655 0.912 0.0
C765 C 0.24666 0.17563 0.8753 0.0
C766 C 0.31189 0.1261 0.97819 0.0
C767 C 0.2868 0.15679 0.94717 0.0
C768 C 0.33073 0.11618 0.01499 0.0
C769 C 0.34397 0.12591 0.06039 0.0
C770 C 0.30653 0.14598 0.9863 0.0
C771 C 0.33731 0.14561 0.06834 0.0
C772 C 0.28468 0.17715 0.94825 0.0
C773 C 0.25013 0.15541 0.87453 0.0
N774 N 0.31923 0.15509 0.03125 0.0
N775 N 0.2697 0.14667 0.90998 0.0
H776 H 0.80565 0.90304 0.03975 0.0
H777 H 0.7477 0.80161 0.91576 0.0
H778 H 0.83631 0.84777 0.10292 0.0
H779 H 0.72136 0.85794 0.85357 0.0
H780 H 0.78074 0.81763 0.98451 0.0
H781 H 0.77298 0.8862 0.97384 0.0
C782 C 0.80525 0.88732 0.04015 0.0
C783 C 0.82394 0.87676 0.07639 0.0
C784 C 0.76786 0.82642 0.95546 0.0
C785 C 0.7871 0.85731 -7e-05 0.0
C786 C 0.74917 0.8173 0.91616 0.0
C787 C 0.73168 0.82851 0.87939 0.0
C788 C 0.76891 0.84682 0.95756 0.0
C789 C 0.73426 0.84876 0.88157 0.0
C790 C 0.7868 0.87768 0.00208 0.0
C791 C 0.82239 0.85643 0.07528 0.0
N792 N 0.75238 0.85724 0.92009 0.0
N793 N 0.80445 0.84734 0.03722 0.0
H794 H 0.72263 0.14747 0.66681 0.0
H795 H 0.83547 0.17099 0.41426 0.0
H796 H 0.74485 0.2059 0.61637 0.0
H797 H 0.80559 0.11351 0.45905 0.0
H798 H 0.80447 0.18437 0.48982 0.0
H799 H 0.75601 0.135 0.59431 0.0
C800 C 0.73483 0.15768 0.64074 0.0
C801 C 0.73083 0.17773 0.64716 0.0
C802 C 0.80467 0.16884 0.48299 0.0
C803 C 0.76901 0.16356 0.56374 0.0
C804 C 0.82239 0.1612 0.4399 0.0
C805 C 0.82362 0.1411 0.43111 0.0
C806 C 0.78774 0.15625 0.51688 0.0
C807 C 0.80546 0.12911 0.46446 0.0
C808 C 0.75383 0.15056 0.59921 0.0
C809 C 0.74729 0.19032 0.61256 0.0
N810 N 0.78837 0.13686 0.50596 0.0
N811 N 0.76557 0.18302 0.57189 0.0
H812 H 0.68649 0.1186 0.51906 0.0
H813 H 0.76623 0.2136 0.39801 0.0
H814 H 0.66865 0.17559 0.58622 0.0
H815 H 0.77321 0.15632 0.32598 0.0
H816 H 0.72795 0.20125 0.46381 0.0
H817 H 0.71743 0.13314 0.44643 0.0
C818 C 0.68901 0.13424 0.51845 0.0
C819 C 0.67472 0.14592 0.55853 0.0
C820 C 0.73759 0.19152 0.43295 0.0
C821 C 0.70996 0.16283 0.4745 0.0
C822 C 0.75928 0.19857 0.39541 0.0
C823 C 0.77308 0.18586 0.35727 0.0
C824 C 0.72986 0.17172 0.43174 0.0
C825 C 0.76342 0.16653 0.35537 0.0
C826 C 0.70652 0.14258 0.47655 0.0
C827 C 0.67876 0.1661 0.55543 0.0
N828 N 0.74266 0.16004 0.39236 0.0
N829 N 0.69612 0.17397 0.51415 0.0
H830 H 0.67554 0.90682 0.96659 0.0
H831 H 0.72406 0.80267 0.08605 0.0
H832 H 0.64675 0.85301 0.89137 0.0
H833 H 0.75864 0.85724 0.14695 0.0
H834 H 0.69341 0.82046 0.01727 0.0
H835 H 0.70537 0.88853 0.03437 0.0
C836 C 0.67575 0.89112 0.96409 0.0
C837 C 0.65877 0.88139 0.92333 0.0
C838 C 0.7076 0.8285 0.04596 0.0
C839 C 0.69217 0.86029 0.00175 0.0
C840 C 0.72499 0.81837 0.08523 0.0
C841 C 0.744 0.82852 0.12189 0.0
C842 C 0.70921 0.84887 0.04385 0.0
C843 C 0.74443 0.84884 0.11918 0.0
C844 C 0.69262 0.88067 0.003 0.0
C845 C 0.65975 0.86105 0.92196 0.0
N846 N 0.72734 0.85832 0.08084 0.0
N847 N 0.67599 0.85113 0.96101 0.0
H848 H 0.69806 0.60138 0.46865 0.0
H849 H 0.74928 0.70606 0.57633 0.0
H850 H 0.65409 0.65366 0.41168 0.0
H851 H 0.77601 0.6515 0.65014 0.0
H852 H 0.71529 0.6883 0.51283 0.0
H853 H 0.72959 0.62071 0.52996 0.0
C854 C 0.69524 0.617 0.46868 0.0
C855 C 0.67327 0.62591 0.4354 0.0
C856 C 0.72835 0.68032 0.54348 0.0
C857 C 0.70907 0.64824 0.50658 0.0
C858 C 0.74764 0.69042 0.57962 0.0
C859 C 0.76564 0.68014 0.61784 0.0
C860 C 0.7272 0.65994 0.54615 0.0
C861 C 0.7628 0.65994 0.62071 0.0
C862 C 0.71307 0.62805 0.50419 0.0
C863 C 0.67077 0.64623 0.43685 0.0
N864 N 0.74411 0.65053 0.58521 0.0
N865 N 0.68841 0.65677 0.47227 0.0
H866 H 0.69742 0.38497 0.0084 0.0
H867 H 0.75428 0.28166 0.90152 0.0
H868 H 0.65598 0.33224 0.06785 0.0
H869 H 0.77435 0.33661 0.82291 0.0
H870 H 0.71844 0.29843 0.96423 0.0
H871 H 0.72754 0.36617 0.94369 0.0
C872 C 0.69479 0.36934 0.00813 0.0
C873 C 0.67401 0.36016 0.0434 0.0
C874 C 0.73049 0.30667 0.93267 0.0
C875 C 0.70856 0.33832 0.96843 0.0
C876 C 0.75083 0.29714 0.89699 0.0
C877 C 0.76756 0.30785 0.8577 0.0
C878 C 0.72711 0.32693 0.92853 0.0
C879 C 0.7623 0.32783 0.85323 0.0
C880 C 0.71184 0.35857 0.9706 0.0
C881 C 0.67166 0.33983 0.04103 0.0
N882 N 0.74278 0.33668 0.88839 0.0
N883 N 0.68883 0.32951 0.00411 0.0
H884 H 0.71433 0.34253 0.16047 0.0
H885 H 0.83344 0.33215 0.91013 0.0
H886 H 0.74269 0.28669 0.0979 0.0
H887 H 0.79973 0.38627 0.9755 0.0
H888 H 0.80238 0.31462 0.97913 0.0
H889 H 0.74841 0.35825 0.09536 0.0
C890 C 0.72785 0.33355 0.13294 0.0
C891 C 0.72549 0.31328 0.13418 0.0
C892 C 0.80186 0.33033 0.97827 0.0
C893 C 0.76468 0.33128 0.05869 0.0
C894 C 0.81946 0.34029 0.93886 0.0
C895 C 0.81938 0.36065 0.93756 0.0
C896 C 0.78394 0.3409 0.01607 0.0
C897 C 0.80055 0.37057 0.97496 0.0
C898 C 0.74741 0.34255 0.09573 0.0
C899 C 0.7438 0.30238 0.09797 0.0
N900 N 0.78374 0.36061 0.01267 0.0
N901 N 0.76254 0.31155 0.0612 0.0
H902 H 0.72949 0.65246 0.3415 0.0
H903 H 0.85043 0.65908 0.5893 0.0
H904 H 0.76692 0.7069 0.39739 0.0
H905 H 0.8071 0.6063 0.53522 0.0
H906 H 0.8201 0.67728 0.52076 0.0
H907 H 0.75991 0.63552 0.41052 0.0
C908 C 0.74427 0.66086 0.36825 0.0
C909 C 0.74569 0.68111 0.36381 0.0
C910 C 0.81745 0.66172 0.52395 0.0
C911 C 0.78025 0.66178 0.44409 0.0
C912 C 0.83435 0.65137 0.56347 0.0
C913 C 0.83135 0.63115 0.56763 0.0
C914 C 0.79765 0.65169 0.4884 0.0
C915 C 0.81022 0.62187 0.5333 0.0
C916 C 0.76162 0.65116 0.40783 0.0
C917 C 0.76525 0.69124 0.39949 0.0
N918 N 0.79439 0.63218 0.49488 0.0
N919 N 0.78171 0.68145 0.43855 0.0
H920 H 0.30013 0.39951 0.51871 0.0
H921 H 0.25262 0.29383 0.41202 0.0
H922 H 0.34497 0.34783 0.57714 0.0
H923 H 0.22197 0.34791 0.34056 0.0
H924 H 0.28593 0.31225 0.47527 0.0
H925 H 0.26839 0.37967 0.45888 0.0
C926 C 0.3031 0.3839 0.51924 0.0
C927 C 0.32537 0.37526 0.55236 0.0
C928 C 0.27203 0.31998 0.44533 0.0
C929 C 0.28957 0.35239 0.48273 0.0
C930 C 0.25317 0.30951 0.40927 0.0
C931 C 0.23433 0.31942 0.37167 0.0
C932 C 0.27176 0.34039 0.44344 0.0
C933 C 0.23582 0.33971 0.3695 0.0
C934 C 0.28516 0.37257 0.48463 0.0
C935 C 0.32808 0.35497 0.55182 0.0
N936 N 0.25401 0.34948 0.40509 0.0
N937 N 0.31051 0.34416 0.51702 0.0
H938 H 0.34225 0.66691 0.91468 0.0
H939 H 0.23123 0.66231 0.17884 0.0
H940 H 0.30756 0.61495 0.9921 0.0
H941 H 0.24583 0.71578 0.08832 0.0
H942 H 0.26763 0.64631 0.11917 0.0
H943 H 0.31382 0.68648 0.98363 0.0
C944 C 0.32877 0.65969 0.94621 0.0
C945 C 0.32742 0.63935 0.94803 0.0
C946 C 0.26322 0.66159 0.11231 0.0
C947 C 0.29535 0.66132 0.02658 0.0
C948 C 0.24239 0.67074 0.14649 0.0
C949 C 0.23524 0.69029 0.13783 0.0
C950 C 0.27687 0.67193 0.06831 0.0
C951 C 0.25071 0.70061 0.09592 0.0
C952 C 0.31269 0.6708 0.98548 0.0
C953 C 0.30929 0.63059 0.98892 0.0
N954 N 0.27064 0.6912 0.06192 0.0
N955 N 0.29413 0.6416 0.02645 0.0
H956 H 0.27976 0.65475 0.84162 0.0
H957 H 0.16292 0.66233 0.09573 0.0
H958 H 0.25102 0.71002 0.90779 0.0
H959 H 0.20849 0.60995 0.04523 0.0
H960 H 0.19251 0.68059 0.02609 0.0
H961 H 0.24911 0.63837 0.9115 0.0
C962 C 0.26681 0.66346 0.8708 0.0
C963 C 0.26821 0.68376 0.86947 0.0
C964 C 0.19604 0.66512 0.03057 0.0
C965 C 0.23309 0.66504 0.9502 0.0
C966 C 0.1794 0.65476 0.07052 0.0
C967 C 0.18297 0.63459 0.07556 0.0
C968 C 0.21624 0.65514 0.99567 0.0
C969 C 0.20484 0.62546 0.04253 0.0
C970 C 0.24932 0.65408 0.91083 0.0
C971 C 0.25066 0.69431 0.90779 0.0
N972 N 0.22038 0.63576 0.00366 0.0
N973 N 0.2339 0.6848 0.94706 0.0
H974 H 0.24061 0.29275 0.59349 0.0
H975 H 0.1795 0.39394 0.47338 0.0
H976 H 0.2728 0.34902 0.64553 0.0
H977 H 0.15561 0.33881 0.40044 0.0
H978 H 0.21276 0.37727 0.53893 0.0
H979 H 0.20678 0.30883 0.52626 0.0
C980 C 0.24039 0.30845 0.59102 0.0
C981 C 0.25957 0.31959 0.62484 0.0
C982 C 0.2003 0.36875 0.50863 0.0
C983 C 0.22121 0.33796 0.54866 0.0
C984 C 0.18147 0.37829 0.47095 0.0
C985 C 0.16474 0.36767 0.43175 0.0
C986 C 0.2021 0.3484 0.50768 0.0
C987 C 0.16812 0.34745 0.43032 0.0
C988 C 0.2212 0.31759 0.55267 0.0
C989 C 0.25851 0.33985 0.62006 0.0
N990 N 0.18621 0.3384 0.46825 0.0
N991 N 0.23967 0.34836 0.58276 0.0
H992 H 0.36056 0.18387 0.05406 0.0
H993 H 0.3978 0.27514 0.86168 0.0
H994 H 0.40012 0.23699 0.11306 0.0
H995 H 0.33 0.23248 0.82323 0.0
H996 H 0.4148 0.25494 0.93994 0.0
H997 H 0.36633 0.19518 0.95677 0.0
C998 C 0.37199 0.19742 0.04628 0.0
C999 C 0.37995 0.20951 0.09119 0.0
C1000 C 0.3966 0.24983 0.91366 0.0
C1001 C 0.38607 0.22275 0.98092 0.0
C1002 C 0.38682 0.26134 0.86903 0.0
C1003 C 0.36199 0.25567 0.83672 0.0
C1004 C 0.38145 0.23251 0.9261 0.0
C1005 C 0.34892 0.23754 0.8477 0.0
C1006 C 0.37488 0.20401 0.9909 0.0
C1007 C 0.39385 0.22725 0.07928 0.0
N1008 N 0.35852 0.22671 0.89211 0.0
N1009 N 0.3961 0.23349 0.02523 0.0
H1010 H 0.95096 0.86122 0.27663 0.0
H1011 H 0.00874 0.91508 0.55145 0.0
H1012 H 0.90567 0.91029 0.35084 0.0
H1013 H 0.04375 0.8599 0.49609 0.0
H1014 H 0.96898 0.91252 0.4811 0.0
H1015 H 0.98246 0.85876 0.36053 0.0
C1016 C 0.94722 0.87121 0.31112 0.0
C1017 C 0.92595 0.88612 0.30658 0.0
C1018 C 0.9852 0.90089 0.48459 0.0
C1019 C 0.96227 0.88367 0.40203 0.0
C1020 C 0.008 0.9024 0.52452 0.0
C1021 C 0.02969 0.88777 0.52916 0.0
C1022 C 0.98428 0.88471 0.44865 0.0
C1023 C 0.02755 0.87158 0.4936 0.0
C1024 C 0.96529 0.86986 0.35891 0.0
C1025 C 0.92196 0.89865 0.3525 0.0
N1026 N 0.0054 0.87056 0.45446 0.0
N1027 N 0.94031 0.89734 0.39796 0.0
H1028 H 0.08453 0.73504 0.34783 0.0
H1029 H 0.09442 0.76564 0.61691 0.0
H1030 H 0.1609 0.77311 0.3324 0.0
H1031 H 0.1223 0.82142 0.55453 0.0
H1032 H 0.08486 0.75516 0.5209 0.0
H1033 H 0.06684 0.75425 0.42762 0.0
C1034 C 0.09737 0.74762 0.3607 0.0
C1035 C 0.12471 0.75217 0.33454 0.0
C1036 C 0.09192 0.76999 0.5279 0.0
C1037 C 0.10481 0.77395 0.4263 0.0
C1038 C 0.0973 0.77598 0.58292 0.0
C1039 C 0.10978 0.79427 0.59337 0.0
C1040 C 0.09995 0.78222 0.48298 0.0
C1041 C 0.11339 0.80707 0.54799 0.0
C1042 C 0.08726 0.75852 0.40632 0.0
C1043 C 0.14002 0.76888 0.35213 0.0
N1044 N 0.10969 0.80054 0.49434 0.0
N1045 N 0.13012 0.77899 0.39768 0.0
H1046 H 0.61116 0.12043 0.85988 0.0
H1047 H 0.46105 0.14608 0.02689 0.0
H1048 H 0.5393 0.15396 0.78688 0.0
H1049 H 0.50854 0.09197 0.04748 0.0
H1050 H 0.49788 0.15602 0.9559 0.0
H1051 H 0.58205 0.11755 0.94713 0.0
C1052 C 0.58971 0.12774 0.86289 0.0
C1053 C 0.57742 0.13732 0.81615 0.0
C1054 C 0.50038 0.1421 0.97658 0.0
C1055 C 0.54424 0.13404 0.91519 0.0
C1056 C 0.47947 0.13641 0.01701 0.0
C1057 C 0.48168 0.1181 0.04256 0.0
C1058 C 0.52395 0.12953 0.96252 0.0
C1059 C 0.50592 0.10612 0.02826 0.0
C1060 C 0.57304 0.1259 0.91236 0.0
C1061 C 0.54941 0.14634 0.82197 0.0
N1062 N 0.52617 0.11205 0.98905 0.0
N1063 N 0.53361 0.14437 0.87053 0.0
H1064 H 0.33752 0.77221 0.66709 0.0
H1065 H 0.38071 0.8199 0.42489 0.0
H1066 H 0.39788 0.72655 0.61582 0.0
H1067 H 0.38531 0.76062 0.36799 0.0
H1068 H 0.38718 0.80853 0.52237 0.0
H1069 H 0.35406 0.79157 0.58633 0.0
C1070 C 0.35477 0.76646 0.63966 0.0
C1071 C 0.36596 0.74762 0.64753 0.0
C1072 C 0.38737 0.79811 0.48826 0.0
C1073 C 0.38517 0.76969 0.55568 0.0
C1074 C 0.38375 0.80458 0.43274 0.0
C1075 C 0.38094 0.79104 0.38903 0.0
C1076 C 0.38914 0.77807 0.499 0.0
C1077 C 0.38652 0.77145 0.40094 0.0
C1078 C 0.36447 0.77762 0.59394 0.0
C1079 C 0.38835 0.7409 0.61089 0.0
N1080 N 0.38995 0.76551 0.45494 0.0
N1081 N 0.39666 0.75173 0.56577 0.0
H1082 H 0.46586 0.8607 0.4538 0.0
H1083 H 0.53794 0.93185 0.6742 0.0
H1084 H 0.47119 0.92258 0.42729 0.0
H1085 H 0.5673 0.87231 0.66355 0.0
H1086 H 0.51181 0.92815 0.58484 0.0
H1087 H 0.50196 0.86374 0.53132 0.0
C1088 C 0.47491 0.87487 0.46385 0.0
C1089 C 0.46534 0.89146 0.43458 0.0
C1090 C 0.5242 0.91592 0.6016 0.0
C1091 C 0.50614 0.89501 0.52303 0.0
C1092 C 0.53897 0.918 0.65273 0.0
C1093 C 0.55457 0.90231 0.67621 0.0
C1094 C 0.52444 0.89789 0.57423 0.0
C1095 C 0.55546 0.88473 0.64659 0.0
C1096 C 0.49553 0.87657 0.50787 0.0
C1097 C 0.47781 0.90944 0.44902 0.0
N1098 N 0.54013 0.88286 0.59729 0.0
N1099 N 0.49725 0.91078 0.49274 0.0
H1100 H 0.10835 0.234 0.88503 0.0
H1101 H 0.16857 0.22897 0.18643 0.0
H1102 H 0.14391 0.18076 0.95199 0.0
H1103 H 0.09909 0.26951 0.13971 0.0
H1104 H 0.15479 0.20871 0.1059 0.0
H1105 H 0.09766 0.24495 0.98067 0.0
C1106 C 0.11272 0.22427 0.91996 0.0
C1107 C 0.12706 0.20648 0.91094 0.0
C1108 C 0.14204 0.22179 0.11413 0.0
C1109 C 0.11656 0.21924 0.02038 0.0
C1110 C 0.15001 0.23339 0.15995 0.0
C1111 C 0.13539 0.25114 0.16897 0.0
C1112 C 0.11971 0.2282 0.07671 0.0
C1113 C 0.11131 0.25609 0.13371 0.0
C1114 C 0.10685 0.23055 0.97461 0.0
C1115 C 0.13278 0.1945 0.95736 0.0
N1116 N 0.10466 0.24491 0.08839 0.0
N1117 N 0.12839 0.20134 0.01041 0.0
H1118 H 0.01324 0.13224 0.93447 0.0
H1119 H 0.98506 0.13967 0.26351 0.0
H1120 H 0.0666 0.10189 0.05785 0.0
H1121 H 0.91027 0.1341 0.14922 0.0
H1122 H 0.01938 0.13694 0.18398 0.0
H1123 H 0.97899 0.14266 0.00992 0.0
C1124 C 0.01779 0.12789 0.97748 0.0
C1125 C 0.04256 0.11611 0.99025 0.0
C1126 C 0.99543 0.1367 0.17634 0.0
C1127 C 0.00433 0.12838 0.07589 0.0
C1128 C 0.97579 0.1384 0.22151 0.0
C1129 C 0.94476 0.13676 0.21298 0.0
C1130 C 0.98398 0.13367 0.12219 0.0
C1131 C 0.93406 0.13524 0.15757 0.0
C1132 C 0.99832 0.13382 0.02018 0.0
C1133 C 0.04757 0.11082 0.04638 0.0
N1134 N 0.95374 0.13352 0.11402 0.0
N1135 N 0.0287 0.11712 0.08731 0.0
H1136 H 0.59257 0.77029 0.88954 0.0
H1137 H 0.6022 0.73243 0.15257 0.0
H1138 H 0.6351 0.8218 0.95316 0.0
H1139 H 0.67866 0.77065 0.16185 0.0
H1140 H 0.58085 0.75299 0.07899 0.0
H1141 H 0.58885 0.75777 0.98496 0.0
C1142 C 0.5996 0.77943 0.92423 0.0
C1143 C 0.61398 0.79711 0.91382 0.0
C1144 C 0.60226 0.75692 0.09714 0.0
C1145 C 0.61102 0.78264 0.02333 0.0
C1146 C 0.6144 0.74525 0.1394 0.0
C1147 C 0.64265 0.74955 0.16219 0.0
C1148 C 0.61874 0.77283 0.0769 0.0
C1149 C 0.65709 0.7666 0.14461 0.0
C1150 C 0.59766 0.77225 0.97898 0.0
C1151 C 0.62356 0.8082 0.95983 0.0
N1152 N 0.64519 0.77745 0.10228 0.0
N1153 N 0.62286 0.80049 0.01257 0.0
H1154 H 0.07203 0.1301 0.68526 0.0
H1155 H 0.93113 0.08637 0.5207 0.0
H1156 H 0.01671 0.08345 0.748 0.0
H1157 H 0.97197 0.14097 0.47531 0.0
H1158 H 0.96476 0.08415 0.60139 0.0
H1159 H 0.03801 0.13346 0.60445 0.0
C1160 C 0.05278 0.12059 0.68195 0.0
C1161 C 0.04713 0.10648 0.72319 0.0
C1162 C 0.96632 0.09667 0.57395 0.0
C1163 C 0.00843 0.11017 0.6315 0.0
C1164 C 0.94715 0.09792 0.52788 0.0
C1165 C 0.94882 0.11387 0.49143 0.0
C1166 C 0.98751 0.11139 0.58338 0.0
C1167 C 0.96997 0.12845 0.5026 0.0
C1168 C 0.03337 0.12254 0.63608 0.0
C1169 C 0.02189 0.09454 0.71717 0.0
N1170 N 0.98865 0.12682 0.54756 0.0
N1171 N 0.00356 0.09662 0.67213 0.0
H1172 H 0.83952 0.22314 0.66064 0.0
H1173 H 0.92006 0.2301 0.37881 0.0
H1174 H 0.91272 0.26313 0.63506 0.0
H1175 H 0.88467 0.17502 0.43248 0.0
H1176 H 0.92434 0.24002 0.47671 0.0
H1177 H 0.85895 0.20314 0.58324 0.0
C1178 C 0.85999 0.22749 0.63959 0.0
C1179 C 0.87414 0.24505 0.65341 0.0
C1180 C 0.91628 0.22554 0.46754 0.0
C1181 C 0.8964 0.22233 0.56519 0.0
C1182 C 0.91417 0.2198 0.41152 0.0
C1183 C 0.9008 0.20205 0.3977 0.0
C1184 C 0.90394 0.2137 0.50976 0.0
C1185 C 0.89373 0.1892 0.44155 0.0
C1186 C 0.87118 0.21602 0.59568 0.0
C1187 C 0.90072 0.24992 0.62507 0.0
N1188 N 0.89411 0.19558 0.49586 0.0
N1189 N 0.91063 0.23885 0.58166 0.0
H1190 H 0.46616 0.85594 0.19963 0.0
H1191 H 0.49785 0.9201 0.9373 0.0
H1192 H 0.39552 0.88989 0.12418 0.0
H1193 H 0.54213 0.8648 0.95658 0.0
H1194 H 0.46076 0.91008 0.00785 0.0
H1195 H 0.49506 0.85877 0.11227 0.0
C1196 C 0.45644 0.86355 0.16409 0.0
C1197 C 0.42854 0.87274 0.16894 0.0
C1198 C 0.47837 0.90006 0.99594 0.0
C1199 C 0.46173 0.87662 0.07017 0.0
C1200 C 0.4996 0.90581 0.95612 0.0
C1201 C 0.52309 0.89329 0.94152 0.0
C1202 C 0.48118 0.88187 0.0222 0.0
C1203 C 0.52433 0.87489 0.96682 0.0
C1204 C 0.47292 0.8652 0.11441 0.0
C1205 C 0.41694 0.88253 0.12193 0.0
N1206 N 0.50394 0.86984 0.00671 0.0
N1207 N 0.43393 0.88463 0.07482 0.0
H1208 H 0.65943 0.22682 0.34109 0.0
H1209 H 0.61661 0.17894 0.58445 0.0
H1210 H 0.59531 0.27078 0.38868 0.0
H1211 H 0.60761 0.2383 0.63857 0.0
H1212 H 0.61091 0.18971 0.48608 0.0
H1213 H 0.64376 0.2074 0.42253 0.0
C1214 C 0.64158 0.23217 0.36784 0.0
C1215 C 0.62901 0.25058 0.35869 0.0
C1216 C 0.60953 0.20026 0.51975 0.0
C1217 C 0.61079 0.22844 0.45125 0.0
C1218 C 0.61261 0.19412 0.57574 0.0
C1219 C 0.61404 0.20793 0.61901 0.0
C1220 C 0.60674 0.22019 0.50811 0.0
C1221 C 0.60748 0.2273 0.60603 0.0
C1222 C 0.6324 0.22098 0.41395 0.0
C1223 C 0.60591 0.25679 0.39456 0.0
N1224 N 0.60451 0.23291 0.55163 0.0
N1225 N 0.59808 0.24596 0.43998 0.0
H1226 H 0.43724 0.13927 0.31719 0.0
H1227 H 0.5306 0.0874 0.562 0.0
H1228 H 0.46597 0.07949 0.31314 0.0
H1229 H 0.53807 0.14883 0.52912 0.0
H1230 H 0.49496 0.08467 0.4844 0.0
H1231 H 0.46326 0.14323 0.40807 0.0
C1232 C 0.44871 0.12698 0.33577 0.0
C1233 C 0.44982 0.1091 0.30769 0.0
C1234 C 0.50417 0.09878 0.4946 0.0
C1235 C 0.47886 0.11338 0.41092 0.0
C1236 C 0.5244 0.10037 0.53896 0.0
C1237 C 0.53754 0.11833 0.55147 0.0
C1238 C 0.49683 0.11529 0.4628 0.0
C1239 C 0.52862 0.13468 0.52038 0.0
C1240 C 0.46355 0.12924 0.38728 0.0
C1241 C 0.46492 0.09358 0.33323 0.0
N1242 N 0.50889 0.13277 0.47707 0.0
N1243 N 0.47882 0.09608 0.38341 0.0
H1244 H 0.83811 0.81652 0.05203 0.0
H1245 H 0.89474 0.72904 0.861 0.0
H1246 H 0.86686 0.76119 0.1162 0.0
H1247 H 0.82342 0.76784 0.81151 0.0
H1248 H 0.90231 0.74829 0.9461 0.0
H1249 H 0.85054 0.80581 0.95619 0.0
C1250 C 0.84828 0.80248 0.04602 0.0
C1251 C 0.85158 0.78972 0.09147 0.0
C1252 C 0.88551 0.75281 0.91587 0.0
C1253 C 0.86582 0.77739 0.98323 0.0
C1254 C 0.88114 0.74188 0.86731 0.0
C1255 C 0.85797 0.74665 0.82979 0.0
C1256 C 0.86679 0.76871 0.92662 0.0
C1257 C 0.84122 0.76352 0.83987 0.0
C1258 C 0.85509 0.7963 0.99154 0.0
C1259 C 0.86411 0.77141 0.08191 0.0
N1260 N 0.84569 0.77386 0.88789 0.0
N1261 N 0.87064 0.76571 0.02864 0.0
H1262 H 0.01245 0.8651 0.74851 0.0
H1263 H 0.99839 0.89388 0.07356 0.0
H1264 H 0.08874 0.88136 0.84963 0.0
H1265 H 0.9239 0.88756 0.9591 0.0
H1266 H 0.03262 0.88422 -0.00247 0.0
H1267 H 0.98076 0.86683 0.83186 0.0
C1268 C 0.02264 0.86865 0.78863 0.0
C1269 C 0.05315 0.87332 0.79218 0.0
C1270 C 0.00876 0.88489 0.98928 0.0
C1271 C 0.01687 0.8758 0.88759 0.0
C1272 C 0.98927 0.89046 0.03248 0.0
C1273 C 0.95834 0.89171 0.02233 0.0
C1274 C 0.99711 0.8804 0.9359 0.0
C1275 C 0.94762 0.88698 0.9686 0.0
C1276 C 0.00449 0.86977 0.83615 0.0
C1277 C 0.06526 0.8777 0.84519 0.0
N1278 N 0.96697 0.88157 0.92746 0.0
N1279 N 0.04695 0.87915 0.89086 0.0
H1280 H 0.88151 0.78639 0.35923 0.0
H1281 H 0.86907 0.68941 0.53985 0.0
H1282 H 0.82204 0.73888 0.32007 0.0
H1283 H 0.89637 0.74498 0.60437 0.0
H1284 H 0.87052 0.70274 0.44387 0.0
H1285 H 0.90451 0.76661 0.43297 0.0
C1286 C 0.87359 0.77169 0.36552 0.0
C1287 C 0.84934 0.76441 0.3344 0.0
C1288 C 0.87733 0.71177 0.47891 0.0
C1289 C 0.87577 0.74171 0.41835 0.0
C1290 C 0.87677 0.70412 0.53349 0.0
C1291 C 0.88196 0.71629 0.57966 0.0
C1292 C 0.88381 0.73156 0.47114 0.0
C1293 C 0.89196 0.73523 0.56959 0.0
C1294 C 0.88682 0.7604 0.40747 0.0
C1295 C 0.84032 0.74517 0.34383 0.0
N1296 N 0.89205 0.74242 0.51641 0.0
N1297 N 0.85326 0.73455 0.38559 0.0
H1298 H 0.47983 0.42756 0.72462 0.0
H1299 H 0.53212 0.3684 -0.00303 0.0
H1300 H 0.43107 0.37821 0.78912 0.0
H1301 H 0.56848 0.42394 0.94793 0.0
H1302 H 0.49736 0.37003 0.91726 0.0
H1303 H 0.51502 0.42472 0.80247 0.0
C1304 C 0.47655 0.41609 0.75523 0.0
C1305 C 0.45248 0.40312 0.75057 0.0
C1306 C 0.51296 0.38183 0.92399 0.0
C1307 C 0.49277 0.39976 0.83989 0.0
C1308 C 0.53284 0.38089 0.96929 0.0
C1309 C 0.55313 0.39608 0.97895 0.0
C1310 C 0.51361 0.39802 0.88805 0.0
C1311 C 0.55314 0.41194 0.94201 0.0
C1312 C 0.49664 0.4145 0.79975 0.0
C1313 C 0.44932 0.38853 0.79137 0.0
N1314 N 0.53369 0.41248 0.89815 0.0
N1315 N 0.46931 0.38722 0.83445 0.0
H1316 H 0.61933 0.30729 0.07492 0.0
H1317 H 0.59151 0.21166 0.89685 0.0
H1318 H 0.59151 0.25225 0.14293 0.0
H1319 H 0.64732 0.25954 0.84446 0.0
H1320 H 0.57276 0.23142 0.97475 0.0
H1321 H 0.60975 0.29499 0.97964 0.0
C1322 C 0.60974 0.29298 0.06983 0.0
C1323 C 0.60658 0.28061 0.11624 0.0
C1324 C 0.58862 0.23772 0.94545 0.0
C1325 C 0.59601 0.26641 0.00844 0.0
C1326 C 0.5994 0.22645 0.9011 0.0
C1327 C 0.6216 0.23382 0.86514 0.0
C1328 C 0.60016 0.25646 0.95385 0.0
C1329 C 0.63068 0.25316 0.87204 0.0
C1330 C 0.6046 0.28588 0.01556 0.0
C1331 C 0.59441 0.26212 0.10781 0.0
N1332 N 0.62029 0.26373 0.91621 0.0
N1333 N 0.59007 0.25542 0.05477 0.0
H1334 H 0.93971 0.57537 0.46002 0.0
H1335 H 0.08336 0.62532 0.32318 0.0
H1336 H 0.97721 0.62824 0.52723 0.0
H1337 H 0.0227 0.58808 0.23166 0.0
H1338 H 0.04855 0.62464 0.40365 0.0
H1339 H 0.97442 0.5775 0.38068 0.0
C1340 C 0.95526 0.58743 0.45799 0.0
C1341 C 0.95559 0.60169 0.49993 0.0
C1342 C 0.04294 0.61673 0.36569 0.0
C1343 C 0.99543 0.60415 0.4098 0.0
C1344 C 0.06274 0.6171 0.32 0.0
C1345 C 0.05585 0.60675 0.27088 0.0
C1346 C 0.01651 0.60569 0.36212 0.0
C1347 C 0.02889 0.59631 0.26872 0.0
C1348 C 0.97498 0.58868 0.4127 0.0
C1349 C 0.9762 0.61701 0.49543 0.0
N1350 N 0.01033 0.59594 0.3138 0.0
N1351 N 0.99548 0.6178 0.45119 0.0
H1352 H 0.91379 0.25734 0.87006 0.0
H1353 H 0.84774 0.26332 0.168 0.0
H1354 H 0.87021 0.30914 0.92934 0.0
H1355 H 0.91841 0.22322 0.12478 0.0
H1356 H 0.86199 0.28352 0.08752 0.0
H1357 H 0.9243 0.24809 0.96717 0.0
C1358 C 0.90761 0.26719 0.9037 0.0
C1359 C 0.89101 0.28395 0.89213 0.0
C1360 C 0.87488 0.27056 0.09647 0.0
C1361 C 0.90119 0.27296 0.0033 0.0
C1362 C 0.86664 0.25898 0.14227 0.0
C1363 C 0.88143 0.24134 0.15215 0.0
C1364 C 0.89772 0.26424 0.06 0.0
C1365 C 0.90598 0.23652 0.11797 0.0
C1366 C 0.91332 0.26184 0.95924 0.0
C1367 C 0.88305 0.29611 0.9369 0.0
N1368 N 0.91295 0.24768 0.07273 0.0
N1369 N 0.88731 0.29007 0.99086 0.0
H1370 H 0.92044 0.3937 0.05388 0.0
H1371 H 0.08462 0.37614 0.149 0.0
H1372 H 0.98163 0.36773 0.93507 0.0
H1373 H 0.01008 0.36314 0.25874 0.0
H1374 H 0.05014 0.37543 0.06819 0.0
H1375 H 0.95586 0.38644 0.1298 0.0
C1376 C 0.94139 0.38653 0.04389 0.0
C1377 C 0.94827 0.38131 0.98846 0.0
C1378 C 0.04163 0.37233 0.10996 0.0
C1379 C 0.98876 0.37316 0.07445 0.0
C1380 C 0.06123 0.37266 0.15592 0.0
C1381 C 0.05007 0.36997 0.21062 0.0
C1382 C 0.01083 0.36973 0.11943 0.0
C1383 C 0.01958 0.36553 0.21735 0.0
C1384 C 0.96141 0.38224 0.0871 0.0
C1385 C 0.9756 0.37192 0.97753 0.0
N1386 N 0.00088 0.366 0.17243 0.0
N1387 N 0.99518 0.36835 0.0202 0.0
H1388 H 0.60974 0.7366 0.38764 0.0
H1389 H 0.68943 0.744 0.67892 0.0
H1390 H 0.67524 0.69462 0.44098 0.0
H1391 H 0.60404 0.77116 0.64566 0.0
H1392 H 0.6817 0.72295 0.59705 0.0
H1393 H 0.603 0.74658 0.48578 0.0
C1394 C 0.62171 0.72894 0.42057 0.0
C1395 C 0.6426 0.71458 0.40702 0.0
C1396 C 0.66436 0.73324 0.60842 0.0
C1397 C 0.63648 0.72653 0.51848 0.0
C1398 C 0.66882 0.74527 0.65509 0.0
C1399 C 0.6476 0.75956 0.66847 0.0
C1400 C 0.63874 0.73578 0.57465 0.0
C1401 C 0.62121 0.76052 0.63637 0.0
C1402 C 0.61813 0.73471 0.47649 0.0
C1403 C 0.65844 0.70547 0.45054 0.0
N1404 N 0.61778 0.74907 0.59038 0.0
N1405 N 0.65557 0.71188 0.50438 0.0
H1406 H 0.56364 0.57181 0.54912 0.0
H1407 H 0.42688 0.62975 0.68715 0.0
H1408 H 0.52817 0.62445 0.47637 0.0
H1409 H 0.47864 0.58584 0.77316 0.0
H1410 H 0.46175 0.62761 0.60714 0.0
H1411 H 0.53005 0.5759 0.62932 0.0
C1412 C 0.54875 0.58423 0.55008 0.0
C1413 C 0.54865 0.59781 0.5062 0.0
C1414 C 0.46548 0.61856 0.64379 0.0
C1415 C 0.5101 0.60261 0.59771 0.0
C1416 C 0.44565 0.6198 0.68933 0.0
C1417 C 0.44985 0.60791 0.73665 0.0
C1418 C 0.48936 0.60525 0.64574 0.0
C1419 C 0.47447 0.59524 0.73745 0.0
C1420 C 0.52964 0.58661 0.59593 0.0
C1421 C 0.52894 0.61366 0.50952 0.0
N1422 N 0.49314 0.59417 0.6926 0.0
N1423 N 0.51031 0.61561 0.55449 0.0
H1424 H 0.17618 0.26287 0.68343 0.0
H1425 H 0.0996 0.25841 0.39293 0.0
H1426 H 0.10583 0.22182 0.64659 0.0
H1427 H 0.14161 0.31067 0.45235 0.0
H1428 H 0.09435 0.24735 0.49012 0.0
H1429 H 0.15871 0.28311 0.60521 0.0
C1430 C 0.15672 0.25831 0.6596 0.0
C1431 C 0.14284 0.24045 0.67066 0.0
C1432 C 0.10376 0.26159 0.48232 0.0
C1433 C 0.12287 0.26338 0.58115 0.0
C1434 C 0.10644 0.26796 0.42683 0.0
C1435 C 0.12088 0.28551 0.41502 0.0
C1436 C 0.11677 0.27254 0.52585 0.0
C1437 C 0.13005 0.29718 0.46005 0.0
C1438 C 0.14665 0.2699 0.61511 0.0
C1439 C 0.11755 0.23531 0.63885 0.0
N1440 N 0.12869 0.29025 0.51359 0.0
N1441 N 0.10874 0.24652 0.59485 0.0
H1442 H 0.51884 0.57399 0.2628 0.0
H1443 H 0.46785 0.63083 0.98578 0.0
H1444 H 0.56901 0.62211 0.19439 0.0
H1445 H 0.43207 0.57535 0.03695 0.0
H1446 H 0.50257 0.62974 0.06568 0.0
H1447 H 0.48411 0.57623 0.18413 0.0
C1448 C 0.52252 0.58508 0.23117 0.0
C1449 C 0.54686 0.59788 0.23496 0.0
C1450 C 0.48712 0.61782 0.05931 0.0
C1451 C 0.50711 0.60052 0.14465 0.0
C1452 C 0.46728 0.61845 0.01391 0.0
C1453 C 0.44713 0.60314 0.00488 0.0
C1454 C 0.48653 0.60184 0.096 0.0
C1455 C 0.4473 0.58744 0.04238 0.0
C1456 C 0.5027 0.58631 0.18616 0.0
C1457 C 0.55053 0.61195 0.19284 0.0
N1458 N 0.46666 0.58722 0.08638 0.0
N1459 N 0.53078 0.61293 0.14928 0.0
H1460 H 0.34365 0.7401 0.16507 0.0
H1461 H 0.39719 0.74848 0.86088 0.0
H1462 H 0.40229 0.78636 0.11145 0.0
H1463 H 0.3728 0.69319 0.93159 0.0
H1464 H 0.40837 0.76045 0.95511 0.0
H1465 H 0.36093 0.72051 0.08567 0.0
C1466 C 0.36059 0.74599 0.13718 0.0
C1467 C 0.37101 0.76504 0.14392 0.0
C1468 C 0.40155 0.74547 0.9502 0.0
C1469 C 0.39072 0.74283 0.05295 0.0
C1470 C 0.39539 0.73861 0.8963 0.0
C1471 C 0.38376 0.71993 0.88896 0.0
C1472 C 0.39479 0.73376 -0.00303 0.0
C1473 C 0.38153 0.70772 0.9359 0.0
C1474 C 0.37061 0.73476 0.09206 0.0
C1475 C 0.39325 0.77186 0.10713 0.0
N1476 N 0.38598 0.71505 0.98838 0.0
N1477 N 0.40187 0.76093 0.06245 0.0
H1478 H 0.00508 0.41387 0.45828 0.0
H1479 H 0.97078 0.3665 0.75309 0.0
H1480 H 0.0529 0.36345 0.51815 0.0
H1481 H 0.90074 0.39429 0.6573 0.0
H1482 H 0.00294 0.36698 0.66981 0.0
H1483 H 0.96827 0.40937 0.53422 0.0
C1484 C 0.00785 0.40192 0.4875 0.0
C1485 C 0.03208 0.38907 0.48235 0.0
C1486 C 0.98038 0.3727 0.66669 0.0
C1487 C 0.99038 0.38389 0.56859 0.0
C1488 C 0.96206 0.3724 0.71406 0.0
C1489 C 0.93316 0.3803 0.71164 0.0
C1490 C 0.97 0.38146 0.61705 0.0
C1491 C 0.92286 0.3879 0.66041 0.0
C1492 C 0.98675 0.39926 0.53032 0.0
C1493 C 0.03455 0.37371 0.52081 0.0
N1494 N 0.94152 0.38862 0.61511 0.0
N1495 N 0.01412 0.37165 0.56268 0.0
H1496 H 0.08849 0.73943 0.11017 0.0
H1497 H 0.16696 0.73676 0.82082 0.0
H1498 H 0.13825 0.68945 0.05513 0.0
H1499 H 0.09336 0.77544 0.85717 0.0
H1500 H 0.15109 0.71604 0.89915 0.0
H1501 H 0.08201 0.74928 0.01227 0.0
C1502 C 0.09686 0.73006 0.07707 0.0
C1503 C 0.11391 0.71364 0.09031 0.0
C1504 C 0.13799 0.72881 0.88914 0.0
C1505 C 0.10837 0.72536 0.97858 0.0
C1506 C 0.14714 0.74069 0.84458 0.0
C1507 C 0.13188 0.75807 0.83341 0.0
C1508 C 0.11368 0.73455 0.92301 0.0
C1509 C 0.10616 0.76237 0.86507 0.0
C1510 C 0.09349 0.73576 0.02114 0.0
C1511 C 0.12484 0.70214 0.04627 0.0
N1512 N 0.09822 0.7509 0.90908 0.0
N1513 N 0.12275 0.70854 0.99223 0.0
H1514 H 0.9968 0.59493 0.71921 0.0
H1515 H 0.03143 0.63133 0.03173 0.0
H1516 H 0.93171 0.62544 0.8205 0.0
H1517 H 0.08693 0.59143 0.93815 0.0
H1518 H 0.99786 0.63389 0.9503 0.0
H1519 H 0.03332 0.59834 0.79443 0.0
C1520 C 0.99023 0.60244 0.75732 0.0
C1521 C 0.96109 0.6097 0.76403 0.0
C1522 C 0.01751 0.6247 0.94757 0.0
C1523 C 0.00285 0.61359 0.85058 0.0
C1524 C 0.03669 0.62328 0.99385 0.0
C1525 C 0.06179 0.61102 0.99163 0.0
C1526 C 0.02373 0.6139 0.89887 0.0
C1527 C 0.06766 0.60092 0.94171 0.0
C1528 C 0.01112 0.60438 0.80028 0.0
C1529 C 0.95392 0.61952 0.81395 0.0
N1530 N 0.04869 0.60253 0.89738 0.0
N1531 N 0.97466 0.62105 0.85572 0.0
H1532 H 0.34721 0.31404 0.55558 0.0
H1533 H 0.39989 0.22716 0.35951 0.0
H1534 H 0.39781 0.2646 0.61202 0.0
H1535 H 0.32568 0.26527 0.32214 0.0
H1536 H 0.41342 0.24793 0.43872 0.0
H1537 H 0.35433 0.30363 0.45786 0.0
C1538 C 0.36134 0.30165 0.54702 0.0
C1539 C 0.37238 0.29032 0.59136 0.0
C1540 C 0.39453 0.25195 0.41251 0.0
C1541 C 0.37967 0.27787 0.48064 0.0
C1542 C 0.38675 0.2401 0.36731 0.0
C1543 C 0.36119 0.24428 0.335 0.0
C1544 C 0.37665 0.26808 0.42553 0.0
C1545 C 0.34527 0.26137 0.34658 0.0
C1546 C 0.36494 0.29549 0.49144 0.0
C1547 C 0.38929 0.2738 0.57865 0.0
N1548 N 0.35298 0.27252 0.39154 0.0
N1549 N 0.39212 0.2679 0.52437 0.0
H1550 H 0.43511 0.42803 0.43519 0.0
H1551 H 0.5724 0.36994 0.30055 0.0
H1552 H 0.4708 0.37598 0.51104 0.0
H1553 H 0.51808 0.41132 0.2097 0.0
H1554 H 0.53766 0.37253 0.38068 0.0
H1555 H 0.46829 0.42321 0.35467 0.0
C1556 C 0.44997 0.4156 0.43486 0.0
C1557 C 0.45024 0.40239 0.47969 0.0
C1558 C 0.53333 0.3809 0.34292 0.0
C1559 C 0.48832 0.39676 0.38785 0.0
C1560 C 0.55308 0.3794 0.29731 0.0
C1561 C 0.54815 0.39048 0.24861 0.0
C1562 C 0.50882 0.3937 0.33968 0.0
C1563 C 0.52283 0.40255 0.24649 0.0
C1564 C 0.46883 0.41279 0.38883 0.0
C1565 C 0.4699 0.38649 0.47714 0.0
N1566 N 0.50429 0.40394 0.29147 0.0
N1567 N 0.4883 0.38414 0.43201 0.0
loop_
_geom_bond_atom_site_label_1
_geom_bond_atom_site_label_2
_geom_bond_distance
_geom_bond_site_symmetry_2
_ccdc_geom_bond_type
In0 O1 2.294 . S
In0 O2 2.326 . S
In0 O6 2.266 . S
In0 O7 2.326 . S
In0 O8 2.266 . S
In0 O9 2.326 . S
In0 O11 2.294 . S
In0 O12 2.326 . S
O1 In0 2.294 . S
O1 C10 1.240 . S
O2 In0 2.326 . S
O2 C10 1.252 . S
C3 O6 1.252 . S
C3 O7 1.260 . S
C4 O11 1.240 . S
C4 O12 1.252 . S
C5 O8 1.252 . S
C5 O9 1.260 . S
O6 In0 2.266 . S
O6 C3 1.252 . S
O7 In0 2.326 . S
O7 C3 1.260 . S
O8 In0 2.266 . S
O8 C5 1.252 . S
O9 In0 2.326 . S
O9 C5 1.260 . S
C10 O1 1.240 . S
C10 O2 1.252 . S
O11 In0 2.294 . S
O11 C4 1.240 . S
O12 In0 2.326 . S
O12 C4 1.252 . S
In13 O14 2.294 . S
In13 O15 2.326 . S
In13 O19 2.266 . S
In13 O20 2.326 . S
In13 O21 2.266 . S
In13 O22 2.326 . S
In13 O24 2.294 . S
In13 O25 2.326 . S
O14 In13 2.294 . S
O14 C23 1.240 . S
O15 In13 2.326 . S
O15 C23 1.252 . S
C16 O19 1.252 . S
C16 O20 1.260 . S
C17 O24 1.240 . S
C17 O25 1.252 . S
C18 O21 1.252 . S
C18 O22 1.260 . S
O19 In13 2.266 . S
O19 C16 1.252 . S
O20 In13 2.326 . S
O20 C16 1.260 . S
O21 In13 2.266 . S
O21 C18 1.252 . S
O22 In13 2.326 . S
O22 C18 1.260 . S
C23 O14 1.240 . S
C23 O15 1.252 . S
O24 In13 2.294 . S
O24 C17 1.240 . S
O25 In13 2.326 . S
O25 C17 1.252 . S
In26 O27 2.294 . S
In26 O28 2.326 . S
In26 O32 2.266 . S
In26 O33 2.326 . S
In26 O34 2.266 . S
In26 O35 2.326 . S
In26 O37 2.294 . S
In26 O38 2.326 . S
O27 In26 2.294 . S
O27 C36 1.240 . S
O28 In26 2.326 . S
O28 C36 1.252 . S
C29 O32 1.252 . S
C29 O33 1.260 . S
C30 O37 1.240 . S
C30 O38 1.252 . S
C31 O34 1.252 . S
C31 O35 1.260 . S
O32 In26 2.266 . S
O32 C29 1.252 . S
O33 In26 2.326 . S
O33 C29 1.260 . S
O34 In26 2.266 . S
O34 C31 1.252 . S
O35 In26 2.326 . S
O35 C31 1.260 . S
C36 O27 1.240 . S
C36 O28 1.252 . S
O37 In26 2.294 . S
O37 C30 1.240 . S
O38 In26 2.326 . S
O38 C30 1.252 . S
In39 O40 2.294 . S
In39 O41 2.326 . S
In39 O45 2.266 . S
In39 O46 2.326 . S
In39 O47 2.266 . S
In39 O48 2.326 . S
In39 O50 2.294 . S
In39 O51 2.326 . S
O40 In39 2.294 . S
O40 C49 1.240 . S
O41 In39 2.326 . S
O41 C49 1.252 . S
C42 O45 1.252 . S
C42 O46 1.260 . S
C43 O50 1.240 . S
C43 O51 1.252 . S
C44 O47 1.252 . S
C44 O48 1.260 . S
O45 In39 2.266 . S
O45 C42 1.252 . S
O46 In39 2.326 . S
O46 C42 1.260 . S
O47 In39 2.266 . S
O47 C44 1.252 . S
O48 In39 2.326 . S
O48 C44 1.260 . S
C49 O40 1.240 . S
C49 O41 1.252 . S
O50 In39 2.294 . S
O50 C43 1.240 . S
O51 In39 2.326 . S
O51 C43 1.252 . S
In52 O53 2.294 . S
In52 O54 2.326 . S
In52 O58 2.266 . S
In52 O59 2.326 . S
In52 O60 2.266 . S
In52 O61 2.326 . S
In52 O63 2.294 . S
In52 O64 2.326 . S
O53 In52 2.294 . S
O53 C62 1.240 . S
O54 In52 2.326 . S
O54 C62 1.252 . S
C55 O58 1.252 . S
C55 O59 1.260 . S
C56 O63 1.240 . S
C56 O64 1.252 . S
C57 O60 1.252 . S
C57 O61 1.260 . S
O58 In52 2.266 . S
O58 C55 1.252 . S
O59 In52 2.326 . S
O59 C55 1.260 . S
O60 In52 2.266 . S
O60 C57 1.252 . S
O61 In52 2.326 . S
O61 C57 1.260 . S
C62 O53 1.240 . S
C62 O54 1.252 . S
O63 In52 2.294 . S
O63 C56 1.240 . S
O64 In52 2.326 . S
O64 C56 1.252 . S
In65 O66 2.294 . S
In65 O67 2.326 . S
In65 O71 2.266 . S
In65 O72 2.326 . S
In65 O73 2.266 . S
In65 O74 2.326 . S
In65 O76 2.294 . S
In65 O77 2.326 . S
O66 In65 2.294 . S
O66 C75 1.240 . S
O67 In65 2.326 . S
O67 C75 1.252 . S
C68 O71 1.252 . S
C68 O72 1.260 . S
C69 O76 1.240 . S
C69 O77 1.252 . S
C70 O73 1.252 . S
C70 O74 1.260 . S
O71 In65 2.266 . S
O71 C68 1.252 . S
O72 In65 2.326 . S
O72 C68 1.260 . S
O73 In65 2.266 . S
O73 C70 1.252 . S
O74 In65 2.326 . S
O74 C70 1.260 . S
C75 O66 1.240 . S
C75 O67 1.252 . S
O76 In65 2.294 . S
O76 C69 1.240 . S
O77 In65 2.326 . S
O77 C69 1.252 . S
In78 O79 2.294 . S
In78 O80 2.326 . S
In78 O84 2.266 . S
In78 O85 2.326 . S
In78 O86 2.266 . S
In78 O87 2.326 . S
In78 O89 2.294 . S
In78 O90 2.326 . S
O79 In78 2.294 . S
O79 C88 1.240 . S
O80 In78 2.326 . S
O80 C88 1.252 . S
C81 O84 1.252 . S
C81 O85 1.260 . S
C82 O89 1.240 . S
C82 O90 1.252 . S
C83 O86 1.252 . S
C83 O87 1.260 . S
O84 In78 2.266 . S
O84 C81 1.252 . S
O85 In78 2.326 . S
O85 C81 1.260 . S
O86 In78 2.266 . S
O86 C83 1.252 . S
O87 In78 2.326 . S
O87 C83 1.260 . S
C88 O79 1.240 . S
C88 O80 1.252 . S
O89 In78 2.294 . S
O89 C82 1.240 . S
O90 In78 2.326 . S
O90 C82 1.252 . S
In91 O92 2.294 . S
In91 O93 2.326 . S
In91 O97 2.266 . S
In91 O98 2.326 . S
In91 O99 2.266 . S
In91 O100 2.326 . S
In91 O102 2.294 . S
In91 O103 2.326 . S
O92 In91 2.294 . S
O92 C101 1.240 . S
O93 In91 2.326 . S
O93 C101 1.252 . S
C94 O97 1.252 . S
C94 O98 1.260 . S
C95 O102 1.240 . S
C95 O103 1.252 . S
C96 O99 1.252 . S
C96 O100 1.260 . S
O97 In91 2.266 . S
O97 C94 1.252 . S
O98 In91 2.326 . S
O98 C94 1.260 . S
O99 In91 2.266 . S
O99 C96 1.252 . S
O100 In91 2.326 . S
O100 C96 1.260 . S
C101 O92 1.240 . S
C101 O93 1.252 . S
O102 In91 2.294 . S
O102 C95 1.240 . S
O103 In91 2.326 . S
O103 C95 1.252 . S
In104 O105 2.294 . S
In104 O106 2.326 . S
In104 O110 2.266 . S
In104 O111 2.326 . S
In104 O112 2.266 . S
In104 O113 2.326 . S
In104 O115 2.294 . S
In104 O116 2.326 . S
O105 In104 2.294 . S
O105 C114 1.240 . S
O106 In104 2.326 . S
O106 C114 1.252 . S
C107 O110 1.252 . S
C107 O111 1.260 . S
C108 O115 1.240 . S
C108 O116 1.252 . S
C109 O112 1.252 . S
C109 O113 1.260 . S
O110 In104 2.266 . S
O110 C107 1.252 . S
O111 In104 2.326 . S
O111 C107 1.260 . S
O112 In104 2.266 . S
O112 C109 1.252 . S
O113 In104 2.326 . S
O113 C109 1.260 . S
C114 O105 1.240 . S
C114 O106 1.252 . S
O115 In104 2.294 . S
O115 C108 1.240 . S
O116 In104 2.326 . S
O116 C108 1.252 . S
In117 O118 2.294 . S
In117 O119 2.326 . S
In117 O123 2.266 . S
In117 O124 2.326 . S
In117 O125 2.266 . S
In117 O126 2.326 . S
In117 O128 2.294 . S
In117 O129 2.326 . S
O118 In117 2.294 . S
O118 C127 1.240 . S
O119 In117 2.326 . S
O119 C127 1.252 . S
C120 O123 1.252 . S
C120 O124 1.260 . S
C121 O128 1.240 . S
C121 O129 1.252 . S
C122 O125 1.252 . S
C122 O126 1.260 . S
O123 In117 2.266 . S
O123 C120 1.252 . S
O124 In117 2.326 . S
O124 C120 1.260 . S
O125 In117 2.266 . S
O125 C122 1.252 . S
O126 In117 2.326 . S
O126 C122 1.260 . S
C127 O118 1.240 . S
C127 O119 1.252 . S
O128 In117 2.294 . S
O128 C121 1.240 . S
O129 In117 2.326 . S
O129 C121 1.252 . S
In130 O131 2.294 . S
In130 O132 2.326 . S
In130 O136 2.266 . S
In130 O137 2.326 . S
In130 O138 2.266 . S
In130 O139 2.326 . S
In130 O141 2.294 . S
In130 O142 2.326 . S
O131 In130 2.294 . S
O131 C140 1.240 . S
O132 In130 2.326 . S
O132 C140 1.252 . S
C133 O136 1.252 . S
C133 O137 1.260 . S
C134 O141 1.240 . S
C134 O142 1.252 . S
C135 O138 1.252 . S
C135 O139 1.260 . S
O136 In130 2.266 . S
O136 C133 1.252 . S
O137 In130 2.326 . S
O137 C133 1.260 . S
O138 In130 2.266 . S
O138 C135 1.252 . S
O139 In130 2.326 . S
O139 C135 1.260 . S
C140 O131 1.240 . S
C140 O132 1.252 . S
O141 In130 2.294 . S
O141 C134 1.240 . S
O142 In130 2.326 . S
O142 C134 1.252 . S
In143 O144 2.294 . S
In143 O145 2.326 . S
In143 O149 2.266 . S
In143 O150 2.326 . S
In143 O151 2.266 . S
In143 O152 2.326 . S
In143 O154 2.294 . S
In143 O155 2.326 . S
O144 In143 2.294 . S
O144 C153 1.240 . S
O145 In143 2.326 . S
O145 C153 1.252 . S
C146 O149 1.252 . S
C146 O150 1.260 . S
C147 O154 1.240 . S
C147 O155 1.252 . S
C148 O151 1.252 . S
C148 O152 1.260 . S
O149 In143 2.266 . S
O149 C146 1.252 . S
O150 In143 2.326 . S
O150 C146 1.260 . S
O151 In143 2.266 . S
O151 C148 1.252 . S
O152 In143 2.326 . S
O152 C148 1.260 . S
C153 O144 1.240 . S
C153 O145 1.252 . S
O154 In143 2.294 . S
O154 C147 1.240 . S
O155 In143 2.326 . S
O155 C147 1.252 . S
In156 O157 2.294 . S
In156 O158 2.326 . S
In156 O162 2.266 . S
In156 O163 2.326 . S
In156 O164 2.266 . S
In156 O165 2.326 . S
In156 O167 2.294 . S
In156 O168 2.326 . S
O157 In156 2.294 . S
O157 C166 1.240 . S
O158 In156 2.326 . S
O158 C166 1.252 . S
C159 O162 1.252 . S
C159 O163 1.260 . S
C160 O167 1.240 . S
C160 O168 1.252 . S
C161 O164 1.252 . S
C161 O165 1.260 . S
O162 In156 2.266 . S
O162 C159 1.252 . S
O163 In156 2.326 . S
O163 C159 1.260 . S
O164 In156 2.266 . S
O164 C161 1.252 . S
O165 In156 2.326 . S
O165 C161 1.260 . S
C166 O157 1.240 . S
C166 O158 1.252 . S
O167 In156 2.294 . S
O167 C160 1.240 . S
O168 In156 2.326 . S
O168 C160 1.252 . S
In169 O170 2.294 . S
In169 O171 2.326 . S
In169 O175 2.266 . S
In169 O176 2.326 . S
In169 O177 2.266 . S
In169 O178 2.326 . S
In169 O180 2.294 . S
In169 O181 2.326 . S
O170 In169 2.294 . S
O170 C179 1.240 . S
O171 In169 2.326 . S
O171 C179 1.252 . S
C172 O175 1.252 . S
C172 O176 1.260 . S
C173 O180 1.240 . S
C173 O181 1.252 . S
C174 O177 1.252 . S
C174 O178 1.260 . S
O175 In169 2.266 . S
O175 C172 1.252 . S
O176 In169 2.326 . S
O176 C172 1.260 . S
O177 In169 2.266 . S
O177 C174 1.252 . S
O178 In169 2.326 . S
O178 C174 1.260 . S
C179 O170 1.240 . S
C179 O171 1.252 . S
O180 In169 2.294 . S
O180 C173 1.240 . S
O181 In169 2.326 . S
O181 C173 1.252 . S
In182 O183 2.294 . S
In182 O184 2.326 . S
In182 O188 2.266 . S
In182 O189 2.326 . S
In182 O190 2.266 . S
In182 O191 2.326 . S
In182 O193 2.294 . S
In182 O194 2.326 . S
O183 In182 2.294 . S
O183 C192 1.240 . S
O184 In182 2.326 . S
O184 C192 1.252 . S
C185 O188 1.252 . S
C185 O189 1.260 . S
C186 O193 1.240 . S
C186 O194 1.252 . S
C187 O190 1.252 . S
C187 O191 1.260 . S
O188 In182 2.266 . S
O188 C185 1.252 . S
O189 In182 2.326 . S
O189 C185 1.260 . S
O190 In182 2.266 . S
O190 C187 1.252 . S
O191 In182 2.326 . S
O191 C187 1.260 . S
C192 O183 1.240 . S
C192 O184 1.252 . S
O193 In182 2.294 . S
O193 C186 1.240 . S
O194 In182 2.326 . S
O194 C186 1.252 . S
In195 O196 2.294 . S
In195 O197 2.326 . S
In195 O201 2.266 . S
In195 O202 2.326 . S
In195 O203 2.266 . S
In195 O204 2.326 . S
In195 O206 2.294 . S
In195 O207 2.326 . S
O196 In195 2.294 . S
O196 C205 1.240 . S
O197 In195 2.326 . S
O197 C205 1.252 . S
C198 O201 1.252 . S
C198 O202 1.260 . S
C199 O206 1.240 . S
C199 O207 1.252 . S
C200 O203 1.252 . S
C200 O204 1.260 . S
O201 In195 2.266 . S
O201 C198 1.252 . S
O202 In195 2.326 . S
O202 C198 1.260 . S
O203 In195 2.266 . S
O203 C200 1.252 . S
O204 In195 2.326 . S
O204 C200 1.260 . S
C205 O196 1.240 . S
C205 O197 1.252 . S
O206 In195 2.294 . S
O206 C199 1.240 . S
O207 In195 2.326 . S
O207 C199 1.252 . S
In208 O209 2.294 . S
In208 O210 2.326 . S
In208 O214 2.266 . S
In208 O215 2.326 . S
In208 O216 2.266 . S
In208 O217 2.326 . S
In208 O219 2.294 . S
In208 O220 2.326 . S
O209 In208 2.294 . S
O209 C218 1.240 . S
O210 In208 2.326 . S
O210 C218 1.252 . S
C211 O214 1.252 . S
C211 O215 1.260 . S
C212 O219 1.240 . S
C212 O220 1.252 . S
C213 O216 1.252 . S
C213 O217 1.260 . S
O214 In208 2.266 . S
O214 C211 1.252 . S
O215 In208 2.326 . S
O215 C211 1.260 . S
O216 In208 2.266 . S
O216 C213 1.252 . S
O217 In208 2.326 . S
O217 C213 1.260 . S
C218 O209 1.240 . S
C218 O210 1.252 . S
O219 In208 2.294 . S
O219 C212 1.240 . S
O220 In208 2.326 . S
O220 C212 1.252 . S
In221 O222 2.294 . S
In221 O223 2.326 . S
In221 O227 2.266 . S
In221 O228 2.326 . S
In221 O229 2.266 . S
In221 O230 2.326 . S
In221 O232 2.294 . S
In221 O233 2.326 . S
O222 In221 2.294 . S
O222 C231 1.240 . S
O223 In221 2.326 . S
O223 C231 1.252 . S
C224 O227 1.252 . S
C224 O228 1.260 . S
C225 O232 1.240 . S
C225 O233 1.252 . S
C226 O229 1.252 . S
C226 O230 1.260 . S
O227 In221 2.266 . S
O227 C224 1.252 . S
O228 In221 2.326 . S
O228 C224 1.260 . S
O229 In221 2.266 . S
O229 C226 1.252 . S
O230 In221 2.326 . S
O230 C226 1.260 . S
C231 O222 1.240 . S
C231 O223 1.252 . S
O232 In221 2.294 . S
O232 C225 1.240 . S
O233 In221 2.326 . S
O233 C225 1.252 . S
In234 O235 2.294 . S
In234 O236 2.326 . S
In234 O240 2.266 . S
In234 O241 2.326 . S
In234 O242 2.266 . S
In234 O243 2.326 . S
In234 O245 2.294 . S
In234 O246 2.326 . S
O235 In234 2.294 . S
O235 C244 1.240 . S
O236 In234 2.326 . S
O236 C244 1.252 . S
C237 O240 1.252 . S
C237 O241 1.260 . S
C238 O245 1.240 . S
C238 O246 1.252 . S
C239 O242 1.252 . S
C239 O243 1.260 . S
O240 In234 2.266 . S
O240 C237 1.252 . S
O241 In234 2.326 . S
O241 C237 1.260 . S
O242 In234 2.266 . S
O242 C239 1.252 . S
O243 In234 2.326 . S
O243 C239 1.260 . S
C244 O235 1.240 . S
C244 O236 1.252 . S
O245 In234 2.294 . S
O245 C238 1.240 . S
O246 In234 2.326 . S
O246 C238 1.252 . S
In247 O248 2.294 . S
In247 O249 2.326 . S
In247 O253 2.266 . S
In247 O254 2.326 . S
In247 O255 2.266 . S
In247 O256 2.326 . S
In247 O258 2.294 . S
In247 O259 2.326 . S
O248 In247 2.294 . S
O248 C257 1.240 . S
O249 In247 2.326 . S
O249 C257 1.252 . S
C250 O253 1.252 . S
C250 O254 1.260 . S
C251 O258 1.240 . S
C251 O259 1.252 . S
C252 O255 1.252 . S
C252 O256 1.260 . S
O253 In247 2.266 . S
O253 C250 1.252 . S
O254 In247 2.326 . S
O254 C250 1.260 . S
O255 In247 2.266 . S
O255 C252 1.252 . S
O256 In247 2.326 . S
O256 C252 1.260 . S
C257 O248 1.240 . S
C257 O249 1.252 . S
O258 In247 2.294 . S
O258 C251 1.240 . S
O259 In247 2.326 . S
O259 C251 1.252 . S
In260 O261 2.294 . S
In260 O262 2.326 . S
In260 O266 2.266 . S
In260 O267 2.326 . S
In260 O268 2.266 . S
In260 O269 2.326 . S
In260 O271 2.294 . S
In260 O272 2.326 . S
O261 In260 2.294 . S
O261 C270 1.240 . S
O262 In260 2.326 . S
O262 C270 1.252 . S
C263 O266 1.252 . S
C263 O267 1.260 . S
C264 O271 1.240 . S
C264 O272 1.252 . S
C265 O268 1.252 . S
C265 O269 1.260 . S
O266 In260 2.266 . S
O266 C263 1.252 . S
O267 In260 2.326 . S
O267 C263 1.260 . S
O268 In260 2.266 . S
O268 C265 1.252 . S
O269 In260 2.326 . S
O269 C265 1.260 . S
C270 O261 1.240 . S
C270 O262 1.252 . S
O271 In260 2.294 . S
O271 C264 1.240 . S
O272 In260 2.326 . S
O272 C264 1.252 . S
In273 O274 2.294 . S
In273 O275 2.326 . S
In273 O279 2.266 . S
In273 O280 2.326 . S
In273 O281 2.266 . S
In273 O282 2.326 . S
In273 O284 2.294 . S
In273 O285 2.326 . S
O274 In273 2.294 . S
O274 C283 1.240 . S
O275 In273 2.326 . S
O275 C283 1.252 . S
C276 O279 1.252 . S
C276 O280 1.260 . S
C277 O284 1.240 . S
C277 O285 1.252 . S
C278 O281 1.252 . S
C278 O282 1.260 . S
O279 In273 2.266 . S
O279 C276 1.252 . S
O280 In273 2.326 . S
O280 C276 1.260 . S
O281 In273 2.266 . S
O281 C278 1.252 . S
O282 In273 2.326 . S
O282 C278 1.260 . S
C283 O274 1.240 . S
C283 O275 1.252 . S
O284 In273 2.294 . S
O284 C277 1.240 . S
O285 In273 2.326 . S
O285 C277 1.252 . S
In286 O287 2.294 . S
In286 O288 2.326 . S
In286 O292 2.266 . S
In286 O293 2.326 . S
In286 O294 2.266 . S
In286 O295 2.326 . S
In286 O297 2.294 . S
In286 O298 2.326 . S
O287 In286 2.294 . S
O287 C296 1.240 . S
O288 In286 2.326 . S
O288 C296 1.252 . S
C289 O292 1.252 . S
C289 O293 1.260 . S
C290 O297 1.240 . S
C290 O298 1.252 . S
C291 O294 1.252 . S
C291 O295 1.260 . S
O292 In286 2.266 . S
O292 C289 1.252 . S
O293 In286 2.326 . S
O293 C289 1.260 . S
O294 In286 2.266 . S
O294 C291 1.252 . S
O295 In286 2.326 . S
O295 C291 1.260 . S
C296 O287 1.240 . S
C296 O288 1.252 . S
O297 In286 2.294 . S
O297 C290 1.240 . S
O298 In286 2.326 . S
O298 C290 1.252 . S
In299 O300 2.294 . S
In299 O301 2.326 . S
In299 O305 2.266 . S
In299 O306 2.326 . S
In299 O307 2.266 . S
In299 O308 2.326 . S
In299 O310 2.294 . S
In299 O311 2.326 . S
O300 In299 2.294 . S
O300 C309 1.240 . S
O301 In299 2.326 . S
O301 C309 1.252 . S
C302 O305 1.252 . S
C302 O306 1.260 . S
C303 O310 1.240 . S
C303 O311 1.252 . S
C304 O307 1.252 . S
C304 O308 1.260 . S
O305 In299 2.266 . S
O305 C302 1.252 . S
O306 In299 2.326 . S
O306 C302 1.260 . S
O307 In299 2.266 . S
O307 C304 1.252 . S
O308 In299 2.326 . S
O308 C304 1.260 . S
C309 O300 1.240 . S
C309 O301 1.252 . S
O310 In299 2.294 . S
O310 C303 1.240 . S
O311 In299 2.326 . S
O311 C303 1.252 . S
In312 O313 2.294 . S
In312 O314 2.326 . S
In312 O318 2.266 . S
In312 O319 2.326 . S
In312 O320 2.266 . S
In312 O321 2.326 . S
In312 O323 2.294 . S
In312 O324 2.326 . S
O313 In312 2.294 . S
O313 C322 1.240 . S
O314 In312 2.326 . S
O314 C322 1.252 . S
C315 O318 1.252 . S
C315 O319 1.260 . S
C316 O323 1.240 . S
C316 O324 1.252 . S
C317 O320 1.252 . S
C317 O321 1.260 . S
O318 In312 2.266 . S
O318 C315 1.252 . S
O319 In312 2.326 . S
O319 C315 1.260 . S
O320 In312 2.266 . S
O320 C317 1.252 . S
O321 In312 2.326 . S
O321 C317 1.260 . S
C322 O313 1.240 . S
C322 O314 1.252 . S
O323 In312 2.294 . S
O323 C316 1.240 . S
O324 In312 2.326 . S
O324 C316 1.252 . S
In325 O326 2.294 . S
In325 O327 2.326 . S
In325 O331 2.266 . S
In325 O332 2.326 . S
In325 O333 2.266 . S
In325 O334 2.326 . S
In325 O336 2.294 . S
In325 O337 2.326 . S
O326 In325 2.294 . S
O326 C335 1.240 . S
O327 In325 2.326 . S
O327 C335 1.252 . S
C328 O331 1.252 . S
C328 O332 1.260 . S
C329 O336 1.240 . S
C329 O337 1.252 . S
C330 O333 1.252 . S
C330 O334 1.260 . S
O331 In325 2.266 . S
O331 C328 1.252 . S
O332 In325 2.326 . S
O332 C328 1.260 . S
O333 In325 2.266 . S
O333 C330 1.252 . S
O334 In325 2.326 . S
O334 C330 1.260 . S
C335 O326 1.240 . S
C335 O327 1.252 . S
O336 In325 2.294 . S
O336 C329 1.240 . S
O337 In325 2.326 . S
O337 C329 1.252 . S
In338 O339 2.294 . S
In338 O340 2.326 . S
In338 O344 2.266 . S
In338 O345 2.326 . S
In338 O346 2.266 . S
In338 O347 2.326 . S
In338 O349 2.294 . S
In338 O350 2.326 . S
O339 In338 2.294 . S
O339 C348 1.240 . S
O340 In338 2.326 . S
O340 C348 1.252 . S
C341 O344 1.252 . S
C341 O345 1.260 . S
C342 O349 1.240 . S
C342 O350 1.252 . S
C343 O346 1.252 . S
C343 O347 1.260 . S
O344 In338 2.266 . S
O344 C341 1.252 . S
O345 In338 2.326 . S
O345 C341 1.260 . S
O346 In338 2.266 . S
O346 C343 1.252 . S
O347 In338 2.326 . S
O347 C343 1.260 . S
C348 O339 1.240 . S
C348 O340 1.252 . S
O349 In338 2.294 . S
O349 C342 1.240 . S
O350 In338 2.326 . S
O350 C342 1.252 . S
In351 O352 2.294 . S
In351 O353 2.326 . S
In351 O357 2.266 . S
In351 O358 2.326 . S
In351 O359 2.266 . S
In351 O360 2.326 . S
In351 O362 2.294 . S
In351 O363 2.326 . S
O352 In351 2.294 . S
O352 C361 1.240 . S
O353 In351 2.326 . S
O353 C361 1.252 . S
C354 O357 1.252 . S
C354 O358 1.260 . S
C355 O362 1.240 . S
C355 O363 1.252 . S
C356 O359 1.252 . S
C356 O360 1.260 . S
O357 In351 2.266 . S
O357 C354 1.252 . S
O358 In351 2.326 . S
O358 C354 1.260 . S
O359 In351 2.266 . S
O359 C356 1.252 . S
O360 In351 2.326 . S
O360 C356 1.260 . S
C361 O352 1.240 . S
C361 O353 1.252 . S
O362 In351 2.294 . S
O362 C355 1.240 . S
O363 In351 2.326 . S
O363 C355 1.252 . S
In364 O365 2.294 . S
In364 O366 2.326 . S
In364 O370 2.266 . S
In364 O371 2.326 . S
In364 O372 2.266 . S
In364 O373 2.326 . S
In364 O375 2.294 . S
In364 O376 2.326 . S
O365 In364 2.294 . S
O365 C374 1.240 . S
O366 In364 2.326 . S
O366 C374 1.252 . S
C367 O370 1.252 . S
C367 O371 1.260 . S
C368 O375 1.240 . S
C368 O376 1.252 . S
C369 O372 1.252 . S
C369 O373 1.260 . S
O370 In364 2.266 . S
O370 C367 1.252 . S
O371 In364 2.326 . S
O371 C367 1.260 . S
O372 In364 2.266 . S
O372 C369 1.252 . S
O373 In364 2.326 . S
O373 C369 1.260 . S
C374 O365 1.240 . S
C374 O366 1.252 . S
O375 In364 2.294 . S
O375 C368 1.240 . S
O376 In364 2.326 . S
O376 C368 1.252 . S
In377 O378 2.294 . S
In377 O379 2.326 . S
In377 O383 2.266 . S
In377 O384 2.326 . S
In377 O385 2.266 . S
In377 O386 2.326 . S
In377 O388 2.294 . S
In377 O389 2.326 . S
O378 In377 2.294 . S
O378 C387 1.240 . S
O379 In377 2.326 . S
O379 C387 1.252 . S
C380 O383 1.252 . S
C380 O384 1.260 . S
C381 O388 1.240 . S
C381 O389 1.252 . S
C382 O385 1.252 . S
C382 O386 1.260 . S
O383 In377 2.266 . S
O383 C380 1.252 . S
O384 In377 2.326 . S
O384 C380 1.260 . S
O385 In377 2.266 . S
O385 C382 1.252 . S
O386 In377 2.326 . S
O386 C382 1.260 . S
C387 O378 1.240 . S
C387 O379 1.252 . S
O388 In377 2.294 . S
O388 C381 1.240 . S
O389 In377 2.326 . S
O389 C381 1.252 . S
In390 O391 2.294 . S
In390 O392 2.326 . S
In390 O396 2.266 . S
In390 O397 2.326 . S
In390 O398 2.266 . S
In390 O399 2.326 . S
In390 O401 2.294 . S
In390 O402 2.326 . S
O391 In390 2.294 . S
O391 C400 1.240 . S
O392 In390 2.326 . S
O392 C400 1.252 . S
C393 O396 1.252 . S
C393 O397 1.260 . S
C394 O401 1.240 . S
C394 O402 1.252 . S
C395 O398 1.252 . S
C395 O399 1.260 . S
O396 In390 2.266 . S
O396 C393 1.252 . S
O397 In390 2.326 . S
O397 C393 1.260 . S
O398 In390 2.266 . S
O398 C395 1.252 . S
O399 In390 2.326 . S
O399 C395 1.260 . S
C400 O391 1.240 . S
C400 O392 1.252 . S
O401 In390 2.294 . S
O401 C394 1.240 . S
O402 In390 2.326 . S
O402 C394 1.252 . S
In403 O404 2.294 . S
In403 O405 2.326 . S
In403 O409 2.266 . S
In403 O410 2.326 . S
In403 O411 2.266 . S
In403 O412 2.326 . S
In403 O414 2.294 . S
In403 O415 2.326 . S
O404 In403 2.294 . S
O404 C413 1.240 . S
O405 In403 2.326 . S
O405 C413 1.252 . S
C406 O409 1.252 . S
C406 O410 1.260 . S
C407 O414 1.240 . S
C407 O415 1.252 . S
C408 O411 1.252 . S
C408 O412 1.260 . S
O409 In403 2.266 . S
O409 C406 1.252 . S
O410 In403 2.326 . S
O410 C406 1.260 . S
O411 In403 2.266 . S
O411 C408 1.252 . S
O412 In403 2.326 . S
O412 C408 1.260 . S
C413 O404 1.240 . S
C413 O405 1.252 . S
O414 In403 2.294 . S
O414 C407 1.240 . S
O415 In403 2.326 . S
O415 C407 1.252 . S
H416 C422 0.930 . S
H417 C426 0.930 . S
H418 C431 0.929 . S
H419 C429 0.929 . S
H420 C424 0.929 . S
H421 C430 0.929 . S
C422 H416 0.930 . S
C422 C423 1.367 . S
C422 C430 1.378 . S
C423 C422 1.367 . S
C423 C431 1.433 . S
C424 H420 0.929 . S
C424 C426 1.378 . S
C424 C428 1.350 . S
C425 C428 1.463 . S
C425 C430 1.350 . S
C425 N433 1.427 . S
C426 H417 0.930 . S
C426 C424 1.378 . S
C426 C427 1.367 . S
C427 C426 1.367 . S
C427 C429 1.433 . S
C428 C424 1.350 . S
C428 C425 1.463 . S
C428 N432 1.427 . S
C429 H419 0.929 . S
C429 C427 1.433 . S
C429 N432 1.384 . S
C430 H421 0.929 . S
C430 C422 1.378 . S
C430 C425 1.350 . S
C431 H418 0.929 . S
C431 C423 1.433 . S
C431 N433 1.384 . S
N432 C428 1.427 . S
N432 C429 1.384 . S
N433 C425 1.427 . S
N433 C431 1.384 . S
H434 C440 0.930 . S
H435 C444 0.930 . S
H436 C449 0.929 . S
H437 C447 0.929 . S
H438 C442 0.929 . S
H439 C448 0.929 . S
C440 H434 0.930 . S
C440 C441 1.367 . S
C440 C448 1.378 . S
C441 C440 1.367 . S
C441 C449 1.433 . S
C442 H438 0.929 . S
C442 C444 1.378 . S
C442 C446 1.350 . S
C443 C446 1.463 1_565 S
C443 C448 1.350 . S
C443 N451 1.427 . S
C444 H435 0.930 . S
C444 C442 1.378 . S
C444 C445 1.367 . S
C445 C444 1.367 . S
C445 C447 1.433 . S
C446 C442 1.350 . S
C446 C443 1.463 1_545 S
C446 N450 1.427 . S
C447 H437 0.929 . S
C447 C445 1.433 . S
C447 N450 1.384 . S
C448 H439 0.929 . S
C448 C440 1.378 . S
C448 C443 1.350 . S
C449 H436 0.929 . S
C449 C441 1.433 . S
C449 N451 1.384 . S
N450 C446 1.427 . S
N450 C447 1.384 . S
N451 C443 1.427 . S
N451 C449 1.384 . S
H452 C458 0.930 . S
H453 C462 0.930 . S
H454 C467 0.929 . S
H455 C465 0.929 . S
H456 C460 0.929 . S
H457 C466 0.929 . S
C458 H452 0.930 . S
C458 C459 1.367 . S
C458 C466 1.378 . S
C459 C458 1.367 . S
C459 C467 1.433 . S
C460 H456 0.929 . S
C460 C462 1.378 . S
C460 C464 1.350 . S
C461 C464 1.463 1_554 S
C461 C466 1.350 . S
C461 N469 1.427 . S
C462 H453 0.930 . S
C462 C460 1.378 . S
C462 C463 1.367 . S
C463 C462 1.367 . S
C463 C465 1.433 . S
C464 C460 1.350 . S
C464 C461 1.463 1_556 S
C464 N468 1.427 . S
C465 H455 0.929 . S
C465 C463 1.433 . S
C465 N468 1.384 . S
C466 H457 0.929 . S
C466 C458 1.378 . S
C466 C461 1.350 . S
C467 H454 0.929 . S
C467 C459 1.433 . S
C467 N469 1.384 . S
N468 C464 1.427 . S
N468 C465 1.384 . S
N469 C461 1.427 . S
N469 C467 1.384 . S
H470 C476 0.930 . S
H471 C480 0.930 . S
H472 C485 0.929 . S
H473 C483 0.929 . S
H474 C478 0.929 . S
H475 C484 0.929 . S
C476 H470 0.930 . S
C476 C477 1.367 . S
C476 C484 1.378 . S
C477 C476 1.367 . S
C477 C485 1.433 . S
C478 H474 0.929 . S
C478 C480 1.378 . S
C478 C482 1.350 . S
C479 C482 1.463 1_545 S
C479 C484 1.350 . S
C479 N487 1.427 . S
C480 H471 0.930 . S
C480 C478 1.378 . S
C480 C481 1.367 . S
C481 C480 1.367 . S
C481 C483 1.433 . S
C482 C478 1.350 . S
C482 C479 1.463 1_565 S
C482 N486 1.427 . S
C483 H473 0.929 . S
C483 C481 1.433 . S
C483 N486 1.384 . S
C484 H475 0.929 . S
C484 C476 1.378 . S
C484 C479 1.350 . S
C485 H472 0.929 . S
C485 C477 1.433 . S
C485 N487 1.384 . S
N486 C482 1.427 . S
N486 C483 1.384 . S
N487 C479 1.427 . S
N487 C485 1.384 . S
H488 C494 0.930 . S
H489 C498 0.930 . S
H490 C503 0.929 . S
H491 C501 0.929 . S
H492 C496 0.929 . S
H493 C502 0.929 . S
C494 H488 0.930 . S
C494 C495 1.367 . S
C494 C502 1.378 . S
C495 C494 1.367 . S
C495 C503 1.433 . S
C496 H492 0.929 . S
C496 C498 1.378 . S
C496 C500 1.350 . S
C497 C500 1.463 . S
C497 C502 1.350 . S
C497 N505 1.427 . S
C498 H489 0.930 . S
C498 C496 1.378 . S
C498 C499 1.367 . S
C499 C498 1.367 . S
C499 C501 1.433 . S
C500 C496 1.350 . S
C500 C497 1.463 . S
C500 N504 1.427 . S
C501 H491 0.929 . S
C501 C499 1.433 . S
C501 N504 1.384 . S
C502 H493 0.929 . S
C502 C494 1.378 . S
C502 C497 1.350 . S
C503 H490 0.929 . S
C503 C495 1.433 . S
C503 N505 1.384 . S
N504 C500 1.427 . S
N504 C501 1.384 . S
N505 C497 1.427 . S
N505 C503 1.384 . S
H506 C512 0.930 . S
H507 C516 0.930 . S
H508 C521 0.929 . S
H509 C519 0.929 . S
H510 C514 0.929 . S
H511 C520 0.929 . S
C512 H506 0.930 . S
C512 C513 1.367 . S
C512 C520 1.378 . S
C513 C512 1.367 . S
C513 C521 1.433 . S
C514 H510 0.929 . S
C514 C516 1.378 . S
C514 C518 1.350 . S
C515 C518 1.463 1_545 S
C515 C520 1.350 . S
C515 N523 1.427 . S
C516 H507 0.930 . S
C516 C514 1.378 . S
C516 C517 1.367 . S
C517 C516 1.367 . S
C517 C519 1.433 . S
C518 C514 1.350 . S
C518 C515 1.463 1_565 S
C518 N522 1.427 . S
C519 H509 0.929 . S
C519 C517 1.433 . S
C519 N522 1.384 . S
C520 H511 0.929 . S
C520 C512 1.378 . S
C520 C515 1.350 . S
C521 H508 0.929 . S
C521 C513 1.433 . S
C521 N523 1.384 . S
N522 C518 1.427 . S
N522 C519 1.384 . S
N523 C515 1.427 . S
N523 C521 1.384 . S
H524 C530 0.930 . S
H525 C534 0.930 . S
H526 C539 0.929 . S
H527 C537 0.929 . S
H528 C532 0.929 1_556 S
H529 C538 0.929 1_554 S
C530 H524 0.930 . S
C530 C531 1.367 . S
C530 C538 1.378 . S
C531 C530 1.367 . S
C531 C539 1.433 . S
C532 H528 0.929 1_554 S
C532 C534 1.378 . S
C532 C536 1.350 . S
C533 C536 1.463 1_556 S
C533 C538 1.350 . S
C533 N541 1.427 . S
C534 H525 0.930 . S
C534 C532 1.378 . S
C534 C535 1.367 . S
C535 C534 1.367 . S
C535 C537 1.433 . S
C536 C532 1.350 . S
C536 C533 1.463 1_554 S
C536 N540 1.427 . S
C537 H527 0.929 . S
C537 C535 1.433 . S
C537 N540 1.384 . S
C538 H529 0.929 1_556 S
C538 C530 1.378 . S
C538 C533 1.350 . S
C539 H526 0.929 . S
C539 C531 1.433 . S
C539 N541 1.384 . S
N540 C536 1.427 . S
N540 C537 1.384 . S
N541 C533 1.427 . S
N541 C539 1.384 . S
H542 C548 0.930 . S
H543 C552 0.930 . S
H544 C557 0.929 . S
H545 C555 0.929 . S
H546 C550 0.929 . S
H547 C556 0.929 . S
C548 H542 0.930 . S
C548 C549 1.367 . S
C548 C556 1.378 . S
C549 C548 1.367 . S
C549 C557 1.433 . S
C550 H546 0.929 . S
C550 C552 1.378 . S
C550 C554 1.350 . S
C551 C554 1.463 1_565 S
C551 C556 1.350 . S
C551 N559 1.427 . S
C552 H543 0.930 . S
C552 C550 1.378 . S
C552 C553 1.367 . S
C553 C552 1.367 . S
C553 C555 1.433 . S
C554 C550 1.350 . S
C554 C551 1.463 1_545 S
C554 N558 1.427 . S
C555 H545 0.929 . S
C555 C553 1.433 . S
C555 N558 1.384 . S
C556 H547 0.929 . S
C556 C548 1.378 . S
C556 C551 1.350 . S
C557 H544 0.929 . S
C557 C549 1.433 . S
C557 N559 1.384 . S
N558 C554 1.427 . S
N558 C555 1.384 . S
N559 C551 1.427 . S
N559 C557 1.384 . S
H560 C566 0.930 . S
H561 C570 0.930 . S
H562 C575 0.929 . S
H563 C573 0.929 . S
H564 C568 0.931 . S
H565 C574 0.931 . S
C566 H560 0.930 . S
C566 C567 1.367 . S
C566 C574 1.376 1_556 S
C567 C566 1.367 . S
C567 C575 1.433 . S
C568 H564 0.931 . S
C568 C570 1.376 1_556 S
C568 C572 1.349 1_556 S
C569 C572 1.463 1_556 S
C569 C574 1.349 1_556 S
C569 N577 1.427 . S
C570 H561 0.930 . S
C570 C568 1.376 1_554 S
C570 C571 1.367 . S
C571 C570 1.367 . S
C571 C573 1.433 . S
C572 C568 1.349 1_554 S
C572 C569 1.463 1_554 S
C572 N576 1.427 . S
C573 H563 0.929 . S
C573 C571 1.433 . S
C573 N576 1.384 . S
C574 H565 0.931 . S
C574 C566 1.376 1_554 S
C574 C569 1.349 1_554 S
C575 H562 0.929 . S
C575 C567 1.433 . S
C575 N577 1.384 . S
N576 C572 1.427 . S
N576 C573 1.384 . S
N577 C569 1.427 . S
N577 C575 1.384 . S
H578 C584 0.930 . S
H579 C588 0.930 . S
H580 C593 0.929 . S
H581 C591 0.929 . S
H582 C586 0.929 . S
H583 C592 0.929 . S
C584 H578 0.930 . S
C584 C585 1.367 . S
C584 C592 1.378 . S
C585 C584 1.367 . S
C585 C593 1.433 . S
C586 H582 0.929 . S
C586 C588 1.378 . S
C586 C590 1.350 . S
C587 C590 1.463 . S
C587 C592 1.350 . S
C587 N595 1.427 . S
C588 H579 0.930 . S
C588 C586 1.378 . S
C588 C589 1.367 . S
C589 C588 1.367 . S
C589 C591 1.433 . S
C590 C586 1.350 . S
C590 C587 1.463 . S
C590 N594 1.427 . S
C591 H581 0.929 . S
C591 C589 1.433 . S
C591 N594 1.384 . S
C592 H583 0.929 . S
C592 C584 1.378 . S
C592 C587 1.350 . S
C593 H580 0.929 . S
C593 C585 1.433 . S
C593 N595 1.384 . S
N594 C590 1.427 . S
N594 C591 1.384 . S
N595 C587 1.427 . S
N595 C593 1.384 . S
H596 C602 0.930 . S
H597 C606 0.930 . S
H598 C611 0.929 . S
H599 C609 0.929 . S
H600 C604 0.929 . S
H601 C610 0.929 . S
C602 H596 0.930 . S
C602 C603 1.367 . S
C602 C610 1.378 . S
C603 C602 1.367 . S
C603 C611 1.433 . S
C604 H600 0.929 . S
C604 C606 1.378 . S
C604 C608 1.350 . S
C605 C608 1.463 . S
C605 C610 1.350 . S
C605 N613 1.427 . S
C606 H597 0.930 . S
C606 C604 1.378 . S
C606 C607 1.367 . S
C607 C606 1.367 . S
C607 C609 1.433 . S
C608 C604 1.350 . S
C608 C605 1.463 . S
C608 N612 1.427 . S
C609 H599 0.929 . S
C609 C607 1.433 . S
C609 N612 1.384 . S
C610 H601 0.929 . S
C610 C602 1.378 . S
C610 C605 1.350 . S
C611 H598 0.929 . S
C611 C603 1.433 . S
C611 N613 1.384 . S
N612 C608 1.427 . S
N612 C609 1.384 . S
N613 C605 1.427 . S
N613 C611 1.384 . S
H614 C620 0.930 . S
H615 C624 0.930 . S
H616 C629 0.929 . S
H617 C627 0.929 . S
H618 C622 0.929 . S
H619 C628 0.929 . S
C620 H614 0.930 . S
C620 C621 1.367 . S
C620 C628 1.378 . S
C621 C620 1.367 . S
C621 C629 1.433 . S
C622 H618 0.929 . S
C622 C624 1.378 . S
C622 C626 1.350 . S
C623 C626 1.463 . S
C623 C628 1.350 . S
C623 N631 1.427 . S
C624 H615 0.930 . S
C624 C622 1.378 . S
C624 C625 1.367 . S
C625 C624 1.367 . S
C625 C627 1.433 . S
C626 C622 1.350 . S
C626 C623 1.463 . S
C626 N630 1.427 . S
C627 H617 0.929 . S
C627 C625 1.433 . S
C627 N630 1.384 . S
C628 H619 0.929 . S
C628 C620 1.378 . S
C628 C623 1.350 . S
C629 H616 0.929 . S
C629 C621 1.433 . S
C629 N631 1.384 . S
N630 C626 1.427 . S
N630 C627 1.384 . S
N631 C623 1.427 . S
N631 C629 1.384 . S
H632 C638 0.930 . S
H633 C642 0.930 . S
H634 C647 0.929 . S
H635 C645 0.929 . S
H636 C640 0.929 . S
H637 C646 0.929 . S
C638 H632 0.930 . S
C638 C639 1.367 . S
C638 C646 1.378 . S
C639 C638 1.367 . S
C639 C647 1.433 . S
C640 H636 0.929 . S
C640 C642 1.378 . S
C640 C644 1.350 . S
C641 C644 1.463 1_556 S
C641 C646 1.350 . S
C641 N649 1.427 . S
C642 H633 0.930 . S
C642 C640 1.378 . S
C642 C643 1.367 . S
C643 C642 1.367 . S
C643 C645 1.433 . S
C644 C640 1.350 . S
C644 C641 1.463 1_554 S
C644 N648 1.427 . S
C645 H635 0.929 . S
C645 C643 1.433 . S
C645 N648 1.384 . S
C646 H637 0.929 . S
C646 C638 1.378 . S
C646 C641 1.350 . S
C647 H634 0.929 . S
C647 C639 1.433 . S
C647 N649 1.384 . S
N648 C644 1.427 . S
N648 C645 1.384 . S
N649 C641 1.427 . S
N649 C647 1.384 . S
H650 C656 0.930 . S
H651 C660 0.930 . S
H652 C665 0.929 . S
H653 C663 0.929 . S
H654 C658 0.929 . S
H655 C664 0.929 . S
C656 H650 0.930 . S
C656 C657 1.367 . S
C656 C664 1.378 . S
C657 C656 1.367 . S
C657 C665 1.433 . S
C658 H654 0.929 . S
C658 C660 1.378 . S
C658 C662 1.350 . S
C659 C662 1.463 . S
C659 C664 1.350 . S
C659 N667 1.427 . S
C660 H651 0.930 . S
C660 C658 1.378 . S
C660 C661 1.367 . S
C661 C660 1.367 . S
C661 C663 1.433 . S
C662 C658 1.350 . S
C662 C659 1.463 . S
C662 N666 1.427 . S
C663 H653 0.929 . S
C663 C661 1.433 . S
C663 N666 1.384 . S
C664 H655 0.929 . S
C664 C656 1.378 . S
C664 C659 1.350 . S
C665 H652 0.929 . S
C665 C657 1.433 . S
C665 N667 1.384 . S
N666 C662 1.427 . S
N666 C663 1.384 . S
N667 C659 1.427 . S
N667 C665 1.384 . S
H668 C674 0.930 . S
H669 C678 0.930 . S
H670 C683 0.929 . S
H671 C681 0.929 . S
H672 C676 0.929 . S
H673 C682 0.929 . S
C674 H668 0.930 . S
C674 C675 1.367 . S
C674 C682 1.378 . S
C675 C674 1.367 . S
C675 C683 1.433 . S
C676 H672 0.929 . S
C676 C678 1.378 . S
C676 C680 1.350 . S
C677 C680 1.463 . S
C677 C682 1.350 . S
C677 N685 1.427 . S
C678 H669 0.930 . S
C678 C676 1.378 . S
C678 C679 1.367 . S
C679 C678 1.367 . S
C679 C681 1.433 . S
C680 C676 1.350 . S
C680 C677 1.463 . S
C680 N684 1.427 . S
C681 H671 0.929 . S
C681 C679 1.433 . S
C681 N684 1.384 . S
C682 H673 0.929 . S
C682 C674 1.378 . S
C682 C677 1.350 . S
C683 H670 0.929 . S
C683 C675 1.433 . S
C683 N685 1.384 . S
N684 C680 1.427 . S
N684 C681 1.384 . S
N685 C677 1.427 . S
N685 C683 1.384 . S
H686 C692 0.930 . S
H687 C696 0.930 . S
H688 C701 0.929 . S
H689 C699 0.929 . S
H690 C694 0.929 . S
H691 C700 0.929 . S
C692 H686 0.930 . S
C692 C693 1.367 . S
C692 C700 1.378 . S
C693 C692 1.367 . S
C693 C701 1.433 . S
C694 H690 0.929 . S
C694 C696 1.378 . S
C694 C698 1.350 . S
C695 C698 1.463 . S
C695 C700 1.350 . S
C695 N703 1.427 . S
C696 H687 0.930 . S
C696 C694 1.378 . S
C696 C697 1.367 . S
C697 C696 1.367 . S
C697 C699 1.433 . S
C698 C694 1.350 . S
C698 C695 1.463 . S
C698 N702 1.427 . S
C699 H689 0.929 . S
C699 C697 1.433 . S
C699 N702 1.384 . S
C700 H691 0.929 . S
C700 C692 1.378 . S
C700 C695 1.350 . S
C701 H688 0.929 . S
C701 C693 1.433 . S
C701 N703 1.384 . S
N702 C698 1.427 . S
N702 C699 1.384 . S
N703 C695 1.427 . S
N703 C701 1.384 . S
H704 C710 0.930 . S
H705 C714 0.930 . S
H706 C719 0.929 . S
H707 C717 0.929 . S
H708 C712 0.929 . S
H709 C718 0.929 . S
C710 H704 0.930 . S
C710 C711 1.367 . S
C710 C718 1.378 . S
C711 C710 1.367 . S
C711 C719 1.433 1_556 S
C712 H708 0.929 . S
C712 C714 1.378 . S
C712 C716 1.350 . S
C713 C716 1.463 . S
C713 C718 1.350 1_554 S
C713 N721 1.427 . S
C714 H705 0.930 . S
C714 C712 1.378 . S
C714 C715 1.367 . S
C715 C714 1.367 . S
C715 C717 1.433 . S
C716 C712 1.350 . S
C716 C713 1.463 . S
C716 N720 1.427 . S
C717 H707 0.929 . S
C717 C715 1.433 . S
C717 N720 1.384 . S
C718 H709 0.929 . S
C718 C710 1.378 . S
C718 C713 1.350 1_556 S
C719 H706 0.929 . S
C719 C711 1.433 1_554 S
C719 N721 1.384 . S
N720 C716 1.427 . S
N720 C717 1.384 . S
N721 C713 1.427 . S
N721 C719 1.384 . S
H722 C728 0.930 . S
H723 C732 0.930 . S
H724 C737 0.929 . S
H725 C735 0.929 . S
H726 C730 0.929 . S
H727 C736 0.929 . S
C728 H722 0.930 . S
C728 C729 1.367 . S
C728 C736 1.378 . S
C729 C728 1.367 . S
C729 C737 1.433 . S
C730 H726 0.929 . S
C730 C732 1.378 . S
C730 C734 1.350 . S
C731 C734 1.463 . S
C731 C736 1.350 . S
C731 N739 1.427 . S
C732 H723 0.930 . S
C732 C730 1.378 . S
C732 C733 1.367 . S
C733 C732 1.367 . S
C733 C735 1.433 . S
C734 C730 1.350 . S
C734 C731 1.463 . S
C734 N738 1.427 . S
C735 H725 0.929 . S
C735 C733 1.433 . S
C735 N738 1.384 . S
C736 H727 0.929 . S
C736 C728 1.378 . S
C736 C731 1.350 . S
C737 H724 0.929 . S
C737 C729 1.433 . S
C737 N739 1.384 . S
N738 C734 1.427 . S
N738 C735 1.384 . S
N739 C731 1.427 . S
N739 C737 1.384 . S
H740 C746 0.930 . S
H741 C750 0.930 . S
H742 C755 0.929 . S
H743 C753 0.929 . S
H744 C748 0.929 . S
H745 C754 0.929 . S
C746 H740 0.930 . S
C746 C747 1.367 . S
C746 C754 1.378 . S
C747 C746 1.367 . S
C747 C755 1.433 . S
C748 H744 0.929 . S
C748 C750 1.378 . S
C748 C752 1.350 . S
C749 C752 1.463 . S
C749 C754 1.350 . S
C749 N757 1.427 . S
C750 H741 0.930 . S
C750 C748 1.378 . S
C750 C751 1.367 . S
C751 C750 1.367 . S
C751 C753 1.433 . S
C752 C748 1.350 . S
C752 C749 1.463 . S
C752 N756 1.427 . S
C753 H743 0.929 . S
C753 C751 1.433 . S
C753 N756 1.384 . S
C754 H745 0.929 . S
C754 C746 1.378 . S
C754 C749 1.350 . S
C755 H742 0.929 . S
C755 C747 1.433 . S
C755 N757 1.384 . S
N756 C752 1.427 . S
N756 C753 1.384 . S
N757 C749 1.427 . S
N757 C755 1.384 . S
H758 C764 0.930 . S
H759 C768 0.930 . S
H760 C773 0.929 . S
H761 C771 0.929 . S
H762 C766 0.929 . S
H763 C772 0.929 . S
C764 H758 0.930 . S
C764 C765 1.367 . S
C764 C772 1.378 . S
C765 C764 1.367 . S
C765 C773 1.433 . S
C766 H762 0.929 . S
C766 C768 1.378 . S
C766 C770 1.350 1_554 S
C767 C770 1.463 . S
C767 C772 1.350 . S
C767 N775 1.427 . S
C768 H759 0.930 . S
C768 C766 1.378 . S
C768 C769 1.367 . S
C769 C768 1.367 . S
C769 C771 1.433 1_554 S
C770 C766 1.350 1_556 S
C770 C767 1.463 . S
C770 N774 1.427 . S
C771 H761 0.929 . S
C771 C769 1.433 1_556 S
C771 N774 1.384 . S
C772 H763 0.929 . S
C772 C764 1.378 . S
C772 C767 1.350 . S
C773 H760 0.929 . S
C773 C765 1.433 . S
C773 N775 1.384 . S
N774 C770 1.427 . S
N774 C771 1.384 . S
N775 C767 1.427 . S
N775 C773 1.384 . S
H776 C782 0.930 . S
H777 C786 0.930 . S
H778 C791 0.929 . S
H779 C789 0.929 . S
H780 C784 0.929 . S
H781 C790 0.929 . S
C782 H776 0.930 . S
C782 C783 1.367 . S
C782 C790 1.378 1_554 S
C783 C782 1.367 . S
C783 C791 1.433 . S
C784 H780 0.929 . S
C784 C786 1.378 . S
C784 C788 1.350 . S
C785 C788 1.463 . S
C785 C790 1.350 . S
C785 N793 1.427 . S
C786 H777 0.930 . S
C786 C784 1.378 . S
C786 C787 1.367 . S
C787 C786 1.367 . S
C787 C789 1.433 . S
C788 C784 1.350 . S
C788 C785 1.463 . S
C788 N792 1.427 . S
C789 H779 0.929 . S
C789 C787 1.433 . S
C789 N792 1.384 . S
C790 H781 0.929 . S
C790 C782 1.378 1_556 S
C790 C785 1.350 . S
C791 H778 0.929 . S
C791 C783 1.433 . S
C791 N793 1.384 1_554 S
N792 C788 1.427 . S
N792 C789 1.384 . S
N793 C785 1.427 . S
N793 C791 1.384 1_556 S
H794 C800 0.930 . S
H795 C804 0.930 . S
H796 C809 0.929 . S
H797 C807 0.929 . S
H798 C802 0.929 . S
H799 C808 0.929 . S
C800 H794 0.930 . S
C800 C801 1.367 . S
C800 C808 1.378 . S
C801 C800 1.367 . S
C801 C809 1.433 . S
C802 H798 0.929 . S
C802 C804 1.378 . S
C802 C806 1.350 . S
C803 C806 1.463 . S
C803 C808 1.350 . S
C803 N811 1.427 . S
C804 H795 0.930 . S
C804 C802 1.378 . S
C804 C805 1.367 . S
C805 C804 1.367 . S
C805 C807 1.433 . S
C806 C802 1.350 . S
C806 C803 1.463 . S
C806 N810 1.427 . S
C807 H797 0.929 . S
C807 C805 1.433 . S
C807 N810 1.384 . S
C808 H799 0.929 . S
C808 C800 1.378 . S
C808 C803 1.350 . S
C809 H796 0.929 . S
C809 C801 1.433 . S
C809 N811 1.384 . S
N810 C806 1.427 . S
N810 C807 1.384 . S
N811 C803 1.427 . S
N811 C809 1.384 . S
H812 C818 0.930 . S
H813 C822 0.930 . S
H814 C827 0.929 . S
H815 C825 0.929 . S
H816 C820 0.929 . S
H817 C826 0.929 . S
C818 H812 0.930 . S
C818 C819 1.367 . S
C818 C826 1.378 . S
C819 C818 1.367 . S
C819 C827 1.433 . S
C820 H816 0.929 . S
C820 C822 1.378 . S
C820 C824 1.350 . S
C821 C824 1.463 . S
C821 C826 1.350 . S
C821 N829 1.427 . S
C822 H813 0.930 . S
C822 C820 1.378 . S
C822 C823 1.367 . S
C823 C822 1.367 . S
C823 C825 1.433 . S
C824 C820 1.350 . S
C824 C821 1.463 . S
C824 N828 1.427 . S
C825 H815 0.929 . S
C825 C823 1.433 . S
C825 N828 1.384 . S
C826 H817 0.929 . S
C826 C818 1.378 . S
C826 C821 1.350 . S
C827 H814 0.929 . S
C827 C819 1.433 . S
C827 N829 1.384 . S
N828 C824 1.427 . S
N828 C825 1.384 . S
N829 C821 1.427 . S
N829 C827 1.384 . S
H830 C836 0.930 . S
H831 C840 0.930 . S
H832 C845 0.929 . S
H833 C843 0.929 . S
H834 C838 0.929 . S
H835 C844 0.929 . S
C836 H830 0.930 . S
C836 C837 1.367 1_554 S
C836 C844 1.378 . S
C837 C836 1.367 1_556 S
C837 C845 1.433 . S
C838 H834 0.929 . S
C838 C840 1.378 . S
C838 C842 1.350 . S
C839 C842 1.463 . S
C839 C844 1.350 . S
C839 N847 1.427 1_554 S
C840 H831 0.930 . S
C840 C838 1.378 . S
C840 C841 1.367 . S
C841 C840 1.367 . S
C841 C843 1.433 . S
C842 C838 1.350 . S
C842 C839 1.463 . S
C842 N846 1.427 . S
C843 H833 0.929 . S
C843 C841 1.433 . S
C843 N846 1.384 . S
C844 H835 0.929 . S
C844 C836 1.378 . S
C844 C839 1.350 . S
C845 H832 0.929 . S
C845 C837 1.433 . S
C845 N847 1.384 . S
N846 C842 1.427 . S
N846 C843 1.384 . S
N847 C839 1.427 1_556 S
N847 C845 1.384 . S
H848 C854 0.930 . S
H849 C858 0.930 . S
H850 C863 0.929 . S
H851 C861 0.929 . S
H852 C856 0.929 . S
H853 C862 0.929 . S
C854 H848 0.930 . S
C854 C855 1.367 . S
C854 C862 1.378 . S
C855 C854 1.367 . S
C855 C863 1.433 . S
C856 H852 0.929 . S
C856 C858 1.378 . S
C856 C860 1.350 . S
C857 C860 1.463 . S
C857 C862 1.350 . S
C857 N865 1.427 . S
C858 H849 0.930 . S
C858 C856 1.378 . S
C858 C859 1.367 . S
C859 C858 1.367 . S
C859 C861 1.433 . S
C860 C856 1.350 . S
C860 C857 1.463 . S
C860 N864 1.427 . S
C861 H851 0.929 . S
C861 C859 1.433 . S
C861 N864 1.384 . S
C862 H853 0.929 . S
C862 C854 1.378 . S
C862 C857 1.350 . S
C863 H850 0.929 . S
C863 C855 1.433 . S
C863 N865 1.384 . S
N864 C860 1.427 . S
N864 C861 1.384 . S
N865 C857 1.427 . S
N865 C863 1.384 . S
H866 C872 0.930 . S
H867 C876 0.930 . S
H868 C881 0.929 . S
H869 C879 0.929 . S
H870 C874 0.929 . S
H871 C880 0.929 . S
C872 H866 0.930 . S
C872 C873 1.367 . S
C872 C880 1.378 . S
C873 C872 1.367 . S
C873 C881 1.433 1_554 S
C874 H870 0.929 . S
C874 C876 1.378 . S
C874 C878 1.350 . S
C875 C878 1.463 . S
C875 C880 1.350 1_556 S
C875 N883 1.427 . S
C876 H867 0.930 . S
C876 C874 1.378 . S
C876 C877 1.367 . S
C877 C876 1.367 . S
C877 C879 1.433 . S
C878 C874 1.350 . S
C878 C875 1.463 . S
C878 N882 1.427 . S
C879 H869 0.929 . S
C879 C877 1.433 . S
C879 N882 1.384 . S
C880 H871 0.929 . S
C880 C872 1.378 . S
C880 C875 1.350 1_554 S
C881 H868 0.929 . S
C881 C873 1.433 1_556 S
C881 N883 1.384 . S
N882 C878 1.427 . S
N882 C879 1.384 . S
N883 C875 1.427 . S
N883 C881 1.384 . S
H884 C890 0.930 . S
H885 C894 0.930 . S
H886 C899 0.929 . S
H887 C897 0.929 . S
H888 C892 0.929 . S
H889 C898 0.929 . S
C890 H884 0.930 . S
C890 C891 1.367 . S
C890 C898 1.378 . S
C891 C890 1.367 . S
C891 C899 1.433 . S
C892 H888 0.929 . S
C892 C894 1.378 . S
C892 C896 1.350 1_556 S
C893 C896 1.463 . S
C893 C898 1.350 . S
C893 N901 1.427 . S
C894 H885 0.930 . S
C894 C892 1.378 . S
C894 C895 1.367 . S
C895 C894 1.367 . S
C895 C897 1.433 1_556 S
C896 C892 1.350 1_554 S
C896 C893 1.463 . S
C896 N900 1.427 . S
C897 H887 0.929 . S
C897 C895 1.433 1_554 S
C897 N900 1.384 . S
C898 H889 0.929 . S
C898 C890 1.378 . S
C898 C893 1.350 . S
C899 H886 0.929 . S
C899 C891 1.433 . S
C899 N901 1.384 . S
N900 C896 1.427 . S
N900 C897 1.384 . S
N901 C893 1.427 . S
N901 C899 1.384 . S
H902 C908 0.930 . S
H903 C912 0.930 . S
H904 C917 0.929 . S
H905 C915 0.929 . S
H906 C910 0.929 . S
H907 C916 0.929 . S
C908 H902 0.930 . S
C908 C909 1.367 . S
C908 C916 1.378 . S
C909 C908 1.367 . S
C909 C917 1.433 . S
C910 H906 0.929 . S
C910 C912 1.378 . S
C910 C914 1.350 . S
C911 C914 1.463 . S
C911 C916 1.350 . S
C911 N919 1.427 . S
C912 H903 0.930 . S
C912 C910 1.378 . S
C912 C913 1.367 . S
C913 C912 1.367 . S
C913 C915 1.433 . S
C914 C910 1.350 . S
C914 C911 1.463 . S
C914 N918 1.427 . S
C915 H905 0.929 . S
C915 C913 1.433 . S
C915 N918 1.384 . S
C916 H907 0.929 . S
C916 C908 1.378 . S
C916 C911 1.350 . S
C917 H904 0.929 . S
C917 C909 1.433 . S
C917 N919 1.384 . S
N918 C914 1.427 . S
N918 C915 1.384 . S
N919 C911 1.427 . S
N919 C917 1.384 . S
H920 C926 0.930 . S
H921 C930 0.930 . S
H922 C935 0.929 . S
H923 C933 0.929 . S
H924 C928 0.929 . S
H925 C934 0.929 . S
C926 H920 0.930 . S
C926 C927 1.367 . S
C926 C934 1.378 . S
C927 C926 1.367 . S
C927 C935 1.433 . S
C928 H924 0.929 . S
C928 C930 1.378 . S
C928 C932 1.350 . S
C929 C932 1.463 . S
C929 C934 1.350 . S
C929 N937 1.427 . S
C930 H921 0.930 . S
C930 C928 1.378 . S
C930 C931 1.367 . S
C931 C930 1.367 . S
C931 C933 1.433 . S
C932 C928 1.350 . S
C932 C929 1.463 . S
C932 N936 1.427 . S
C933 H923 0.929 . S
C933 C931 1.433 . S
C933 N936 1.384 . S
C934 H925 0.929 . S
C934 C926 1.378 . S
C934 C929 1.350 . S
C935 H922 0.929 . S
C935 C927 1.433 . S
C935 N937 1.384 . S
N936 C932 1.427 . S
N936 C933 1.384 . S
N937 C929 1.427 . S
N937 C935 1.384 . S
H938 C944 0.930 . S
H939 C948 0.930 . S
H940 C953 0.929 . S
H941 C951 0.929 . S
H942 C946 0.929 . S
H943 C952 0.929 . S
C944 H938 0.930 . S
C944 C945 1.367 . S
C944 C952 1.378 . S
C945 C944 1.367 . S
C945 C953 1.433 1_556 S
C946 H942 0.929 . S
C946 C948 1.378 . S
C946 C950 1.350 . S
C947 C950 1.463 . S
C947 C952 1.350 1_554 S
C947 N955 1.427 . S
C948 H939 0.930 . S
C948 C946 1.378 . S
C948 C949 1.367 . S
C949 C948 1.367 . S
C949 C951 1.433 . S
C950 C946 1.350 . S
C950 C947 1.463 . S
C950 N954 1.427 . S
C951 H941 0.929 . S
C951 C949 1.433 . S
C951 N954 1.384 . S
C952 H943 0.929 . S
C952 C944 1.378 . S
C952 C947 1.350 1_556 S
C953 H940 0.929 . S
C953 C945 1.433 1_554 S
C953 N955 1.384 . S
N954 C950 1.427 . S
N954 C951 1.384 . S
N955 C947 1.427 . S
N955 C953 1.384 . S
H956 C962 0.930 . S
H957 C966 0.930 . S
H958 C971 0.929 . S
H959 C969 0.929 . S
H960 C964 0.929 . S
H961 C970 0.929 . S
C962 H956 0.930 . S
C962 C963 1.367 . S
C962 C970 1.378 . S
C963 C962 1.367 . S
C963 C971 1.433 . S
C964 H960 0.929 . S
C964 C966 1.378 . S
C964 C968 1.350 1_554 S
C965 C968 1.463 . S
C965 C970 1.350 . S
C965 N973 1.427 . S
C966 H957 0.930 . S
C966 C964 1.378 . S
C966 C967 1.367 . S
C967 C966 1.367 . S
C967 C969 1.433 1_554 S
C968 C964 1.350 1_556 S
C968 C965 1.463 . S
C968 N972 1.427 . S
C969 H959 0.929 . S
C969 C967 1.433 1_556 S
C969 N972 1.384 . S
C970 H961 0.929 . S
C970 C962 1.378 . S
C970 C965 1.350 . S
C971 H958 0.929 . S
C971 C963 1.433 . S
C971 N973 1.384 . S
N972 C968 1.427 . S
N972 C969 1.384 . S
N973 C965 1.427 . S
N973 C971 1.384 . S
H974 C980 0.930 . S
H975 C984 0.930 . S
H976 C989 0.929 . S
H977 C987 0.929 . S
H978 C982 0.929 . S
H979 C988 0.929 . S
C980 H974 0.930 . S
C980 C981 1.367 . S
C980 C988 1.378 . S
C981 C980 1.367 . S
C981 C989 1.433 . S
C982 H978 0.929 . S
C982 C984 1.378 . S
C982 C986 1.350 . S
C983 C986 1.463 . S
C983 C988 1.350 . S
C983 N991 1.427 . S
C984 H975 0.930 . S
C984 C982 1.378 . S
C984 C985 1.367 . S
C985 C984 1.367 . S
C985 C987 1.433 . S
C986 C982 1.350 . S
C986 C983 1.463 . S
C986 N990 1.427 . S
C987 H977 0.929 . S
C987 C985 1.433 . S
C987 N990 1.384 . S
C988 H979 0.929 . S
C988 C980 1.378 . S
C988 C983 1.350 . S
C989 H976 0.929 . S
C989 C981 1.433 . S
C989 N991 1.384 . S
N990 C986 1.427 . S
N990 C987 1.384 . S
N991 C983 1.427 . S
N991 C989 1.384 . S
H992 C998 0.930 . S
H993 C1002 0.930 . S
H994 C1007 0.929 . S
H995 C1005 0.929 . S
H996 C1000 0.929 1_554 S
H997 C1006 0.929 . S
C998 H992 0.930 . S
C998 C999 1.367 . S
C998 C1006 1.378 1_554 S
C999 C998 1.367 . S
C999 C1007 1.433 . S
C1000 H996 0.929 1_556 S
C1000 C1002 1.378 . S
C1000 C1004 1.350 . S
C1001 C1004 1.463 1_554 S
C1001 C1006 1.350 1_554 S
C1001 N1009 1.427 . S
C1002 H993 0.930 . S
C1002 C1000 1.378 . S
C1002 C1003 1.367 . S
C1003 C1002 1.367 . S
C1003 C1005 1.433 . S
C1004 C1000 1.350 . S
C1004 C1001 1.463 1_556 S
C1004 N1008 1.427 . S
C1005 H995 0.929 . S
C1005 C1003 1.433 . S
C1005 N1008 1.384 . S
C1006 H997 0.929 . S
C1006 C998 1.378 1_556 S
C1006 C1001 1.350 1_556 S
C1007 H994 0.929 . S
C1007 C999 1.433 . S
C1007 N1009 1.384 . S
N1008 C1004 1.427 . S
N1008 C1005 1.384 . S
N1009 C1001 1.427 . S
N1009 C1007 1.384 . S
H1010 C1016 0.930 . S
H1011 C1020 0.930 . S
H1012 C1025 0.929 . S
H1013 C1023 0.929 . S
H1014 C1018 0.929 1_655 S
H1015 C1024 0.929 1_455 S
C1016 H1010 0.930 . S
C1016 C1017 1.367 . S
C1016 C1024 1.378 . S
C1017 C1016 1.367 . S
C1017 C1025 1.433 . S
C1018 H1014 0.929 1_455 S
C1018 C1020 1.378 . S
C1018 C1022 1.350 . S
C1019 C1022 1.463 1_655 S
C1019 C1024 1.350 . S
C1019 N1027 1.427 . S
C1020 H1011 0.930 . S
C1020 C1018 1.378 . S
C1020 C1021 1.367 . S
C1021 C1020 1.367 . S
C1021 C1023 1.433 . S
C1022 C1018 1.350 . S
C1022 C1019 1.463 1_455 S
C1022 N1026 1.427 . S
C1023 H1013 0.929 . S
C1023 C1021 1.433 . S
C1023 N1026 1.384 . S
C1024 H1015 0.929 1_655 S
C1024 C1016 1.378 . S
C1024 C1019 1.350 . S
C1025 H1012 0.929 . S
C1025 C1017 1.433 . S
C1025 N1027 1.384 . S
N1026 C1022 1.427 . S
N1026 C1023 1.384 . S
N1027 C1019 1.427 . S
N1027 C1025 1.384 . S
H1028 C1034 0.930 . S
H1029 C1038 0.930 . S
H1030 C1043 0.929 . S
H1031 C1041 0.929 . S
H1032 C1036 0.929 . S
H1033 C1042 0.929 . S
C1034 H1028 0.930 . S
C1034 C1035 1.367 . S
C1034 C1042 1.378 . S
C1035 C1034 1.367 . S
C1035 C1043 1.433 . S
C1036 H1032 0.929 . S
C1036 C1038 1.378 . S
C1036 C1040 1.350 . S
C1037 C1040 1.463 . S
C1037 C1042 1.350 . S
C1037 N1045 1.427 . S
C1038 H1029 0.930 . S
C1038 C1036 1.378 . S
C1038 C1039 1.367 . S
C1039 C1038 1.367 . S
C1039 C1041 1.433 . S
C1040 C1036 1.350 . S
C1040 C1037 1.463 . S
C1040 N1044 1.427 . S
C1041 H1031 0.929 . S
C1041 C1039 1.433 . S
C1041 N1044 1.384 . S
C1042 H1033 0.929 . S
C1042 C1034 1.378 . S
C1042 C1037 1.350 . S
C1043 H1030 0.929 . S
C1043 C1035 1.433 . S
C1043 N1045 1.384 . S
N1044 C1040 1.427 . S
N1044 C1041 1.384 . S
N1045 C1037 1.427 . S
N1045 C1043 1.384 . S
H1046 C1052 0.930 . S
H1047 C1056 0.930 . S
H1048 C1061 0.929 . S
H1049 C1059 0.929 1_554 S
H1050 C1054 0.929 . S
H1051 C1060 0.929 . S
C1052 H1046 0.930 . S
C1052 C1053 1.367 . S
C1052 C1060 1.378 . S
C1053 C1052 1.367 . S
C1053 C1061 1.433 . S
C1054 H1050 0.929 . S
C1054 C1056 1.378 . S
C1054 C1058 1.350 . S
C1055 C1058 1.463 . S
C1055 C1060 1.350 . S
C1055 N1063 1.427 . S
C1056 H1047 0.930 . S
C1056 C1054 1.378 . S
C1056 C1057 1.367 . S
C1057 C1056 1.367 . S
C1057 C1059 1.433 . S
C1058 C1054 1.350 . S
C1058 C1055 1.463 . S
C1058 N1062 1.427 . S
C1059 H1049 0.929 1_556 S
C1059 C1057 1.433 . S
C1059 N1062 1.384 . S
C1060 H1051 0.929 . S
C1060 C1052 1.378 . S
C1060 C1055 1.350 . S
C1061 H1048 0.929 . S
C1061 C1053 1.433 . S
C1061 N1063 1.384 . S
N1062 C1058 1.427 . S
N1062 C1059 1.384 . S
N1063 C1055 1.427 . S
N1063 C1061 1.384 . S
H1064 C1070 0.930 . S
H1065 C1074 0.930 . S
H1066 C1079 0.929 . S
H1067 C1077 0.929 . S
H1068 C1072 0.929 . S
H1069 C1078 0.929 . S
C1070 H1064 0.930 . S
C1070 C1071 1.367 . S
C1070 C1078 1.378 . S
C1071 C1070 1.367 . S
C1071 C1079 1.433 . S
C1072 H1068 0.929 . S
C1072 C1074 1.378 . S
C1072 C1076 1.350 . S
C1073 C1076 1.463 . S
C1073 C1078 1.350 . S
C1073 N1081 1.427 . S
C1074 H1065 0.930 . S
C1074 C1072 1.378 . S
C1074 C1075 1.367 . S
C1075 C1074 1.367 . S
C1075 C1077 1.433 . S
C1076 C1072 1.350 . S
C1076 C1073 1.463 . S
C1076 N1080 1.427 . S
C1077 H1067 0.929 . S
C1077 C1075 1.433 . S
C1077 N1080 1.384 . S
C1078 H1069 0.929 . S
C1078 C1070 1.378 . S
C1078 C1073 1.350 . S
C1079 H1066 0.929 . S
C1079 C1071 1.433 . S
C1079 N1081 1.384 . S
N1080 C1076 1.427 . S
N1080 C1077 1.384 . S
N1081 C1073 1.427 . S
N1081 C1079 1.384 . S
H1082 C1088 0.930 . S
H1083 C1092 0.930 . S
H1084 C1097 0.929 . S
H1085 C1095 0.929 . S
H1086 C1090 0.929 . S
H1087 C1096 0.929 . S
C1088 H1082 0.930 . S
C1088 C1089 1.367 . S
C1088 C1096 1.378 . S
C1089 C1088 1.367 . S
C1089 C1097 1.433 . S
C1090 H1086 0.929 . S
C1090 C1092 1.378 . S
C1090 C1094 1.350 . S
C1091 C1094 1.463 . S
C1091 C1096 1.350 . S
C1091 N1099 1.427 . S
C1092 H1083 0.930 . S
C1092 C1090 1.378 . S
C1092 C1093 1.367 . S
C1093 C1092 1.367 . S
C1093 C1095 1.433 . S
C1094 C1090 1.350 . S
C1094 C1091 1.463 . S
C1094 N1098 1.427 . S
C1095 H1085 0.929 . S
C1095 C1093 1.433 . S
C1095 N1098 1.384 . S
C1096 H1087 0.929 . S
C1096 C1088 1.378 . S
C1096 C1091 1.350 . S
C1097 H1084 0.929 . S
C1097 C1089 1.433 . S
C1097 N1099 1.384 . S
N1098 C1094 1.427 . S
N1098 C1095 1.384 . S
N1099 C1091 1.427 . S
N1099 C1097 1.384 . S
H1100 C1106 0.930 . S
H1101 C1110 0.930 . S
H1102 C1115 0.929 . S
H1103 C1113 0.929 . S
H1104 C1108 0.929 . S
H1105 C1114 0.929 . S
C1106 H1100 0.930 . S
C1106 C1107 1.367 . S
C1106 C1114 1.378 . S
C1107 C1106 1.367 . S
C1107 C1115 1.433 . S
C1108 H1104 0.929 . S
C1108 C1110 1.378 . S
C1108 C1112 1.350 . S
C1109 C1112 1.463 1_556 S
C1109 C1114 1.350 . S
C1109 N1117 1.427 . S
C1110 H1101 0.930 . S
C1110 C1108 1.378 . S
C1110 C1111 1.367 . S
C1111 C1110 1.367 . S
C1111 C1113 1.433 . S
C1112 C1108 1.350 . S
C1112 C1109 1.463 1_554 S
C1112 N1116 1.427 . S
C1113 H1103 0.929 . S
C1113 C1111 1.433 . S
C1113 N1116 1.384 . S
C1114 H1105 0.929 . S
C1114 C1106 1.378 . S
C1114 C1109 1.350 . S
C1115 H1102 0.929 . S
C1115 C1107 1.433 . S
C1115 N1117 1.384 . S
N1116 C1112 1.427 . S
N1116 C1113 1.384 . S
N1117 C1109 1.427 . S
N1117 C1115 1.384 . S
H1118 C1124 0.930 . S
H1119 C1128 0.930 . S
H1120 C1133 0.929 . S
H1121 C1131 0.929 . S
H1122 C1126 0.929 1_455 S
H1123 C1132 0.929 1_655 S
C1124 H1118 0.930 . S
C1124 C1125 1.367 . S
C1124 C1132 1.378 . S
C1125 C1124 1.367 . S
C1125 C1133 1.433 . S
C1126 H1122 0.929 1_655 S
C1126 C1128 1.378 . S
C1126 C1130 1.350 . S
C1127 C1130 1.463 1_455 S
C1127 C1132 1.350 . S
C1127 N1135 1.427 . S
C1128 H1119 0.930 . S
C1128 C1126 1.378 . S
C1128 C1129 1.367 . S
C1129 C1128 1.367 . S
C1129 C1131 1.433 . S
C1130 C1126 1.350 . S
C1130 C1127 1.463 1_655 S
C1130 N1134 1.427 . S
C1131 H1121 0.929 . S
C1131 C1129 1.433 . S
C1131 N1134 1.384 . S
C1132 H1123 0.929 1_455 S
C1132 C1124 1.378 . S
C1132 C1127 1.350 . S
C1133 H1120 0.929 . S
C1133 C1125 1.433 . S
C1133 N1135 1.384 . S
N1134 C1130 1.427 . S
N1134 C1131 1.384 . S
N1135 C1127 1.427 . S
N1135 C1133 1.384 . S
H1136 C1142 0.930 . S
H1137 C1146 0.930 . S
H1138 C1151 0.929 . S
H1139 C1149 0.929 . S
H1140 C1144 0.929 . S
H1141 C1150 0.929 . S
C1142 H1136 0.930 . S
C1142 C1143 1.367 . S
C1142 C1150 1.378 . S
C1143 C1142 1.367 . S
C1143 C1151 1.433 . S
C1144 H1140 0.929 . S
C1144 C1146 1.378 . S
C1144 C1148 1.350 . S
C1145 C1148 1.463 1_556 S
C1145 C1150 1.350 . S
C1145 N1153 1.430 . S
C1146 H1137 0.930 . S
C1146 C1144 1.378 . S
C1146 C1147 1.367 . S
C1147 C1146 1.367 . S
C1147 C1149 1.433 . S
C1148 C1144 1.350 . S
C1148 C1145 1.463 1_554 S
C1148 N1152 1.427 . S
C1149 H1139 0.929 . S
C1149 C1147 1.433 . S
C1149 N1152 1.384 . S
C1150 H1141 0.929 . S
C1150 C1142 1.378 . S
C1150 C1145 1.350 . S
C1151 H1138 0.929 . S
C1151 C1143 1.433 . S
C1151 N1153 1.394 . S
N1152 C1148 1.427 . S
N1152 C1149 1.384 . S
N1153 C1145 1.430 . S
N1153 C1151 1.394 . S
H1154 C1160 0.930 . S
H1155 C1164 0.930 . S
H1156 C1169 0.929 . S
H1157 C1167 0.929 . S
H1158 C1162 0.929 . S
H1159 C1168 0.929 . S
C1160 H1154 0.930 . S
C1160 C1161 1.367 . S
C1160 C1168 1.378 . S
C1161 C1160 1.367 . S
C1161 C1169 1.433 . S
C1162 H1158 0.929 . S
C1162 C1164 1.378 . S
C1162 C1166 1.350 . S
C1163 C1166 1.463 1_455 S
C1163 C1168 1.350 . S
C1163 N1171 1.427 . S
C1164 H1155 0.930 . S
C1164 C1162 1.378 . S
C1164 C1165 1.367 . S
C1165 C1164 1.367 . S
C1165 C1167 1.433 . S
C1166 C1162 1.350 . S
C1166 C1163 1.463 1_655 S
C1166 N1170 1.427 . S
C1167 H1157 0.929 . S
C1167 C1165 1.433 . S
C1167 N1170 1.384 . S
C1168 H1159 0.929 . S
C1168 C1160 1.378 . S
C1168 C1163 1.350 . S
C1169 H1156 0.929 . S
C1169 C1161 1.433 . S
C1169 N1171 1.384 . S
N1170 C1166 1.427 . S
N1170 C1167 1.384 . S
N1171 C1163 1.427 . S
N1171 C1169 1.384 . S
H1172 C1178 0.930 . S
H1173 C1182 0.930 . S
H1174 C1187 0.929 . S
H1175 C1185 0.929 . S
H1176 C1180 0.929 . S
H1177 C1186 0.929 . S
C1178 H1172 0.930 . S
C1178 C1179 1.367 . S
C1178 C1186 1.378 . S
C1179 C1178 1.367 . S
C1179 C1187 1.433 . S
C1180 H1176 0.929 . S
C1180 C1182 1.378 . S
C1180 C1184 1.350 . S
C1181 C1184 1.463 . S
C1181 C1186 1.350 . S
C1181 N1189 1.427 . S
C1182 H1173 0.930 . S
C1182 C1180 1.378 . S
C1182 C1183 1.367 . S
C1183 C1182 1.367 . S
C1183 C1185 1.433 . S
C1184 C1180 1.350 . S
C1184 C1181 1.463 . S
C1184 N1188 1.427 . S
C1185 H1175 0.929 . S
C1185 C1183 1.433 . S
C1185 N1188 1.384 . S
C1186 H1177 0.929 . S
C1186 C1178 1.378 . S
C1186 C1181 1.350 . S
C1187 H1174 0.929 . S
C1187 C1179 1.433 . S
C1187 N1189 1.384 . S
N1188 C1184 1.427 . S
N1188 C1185 1.384 . S
N1189 C1181 1.427 . S
N1189 C1187 1.384 . S
H1190 C1196 0.930 . S
H1191 C1200 0.930 . S
H1192 C1205 0.929 . S
H1193 C1203 0.929 . S
H1194 C1198 0.929 . S
H1195 C1204 0.929 . S
C1196 H1190 0.930 . S
C1196 C1197 1.367 . S
C1196 C1204 1.378 . S
C1197 C1196 1.367 . S
C1197 C1205 1.433 . S
C1198 H1194 0.929 . S
C1198 C1200 1.378 . S
C1198 C1202 1.350 . S
C1199 C1202 1.463 . S
C1199 C1204 1.350 . S
C1199 N1207 1.427 . S
C1200 H1191 0.930 . S
C1200 C1198 1.378 . S
C1200 C1201 1.367 . S
C1201 C1200 1.367 . S
C1201 C1203 1.433 . S
C1202 C1198 1.350 . S
C1202 C1199 1.463 . S
C1202 N1206 1.427 . S
C1203 H1193 0.929 . S
C1203 C1201 1.433 . S
C1203 N1206 1.384 . S
C1204 H1195 0.929 . S
C1204 C1196 1.378 . S
C1204 C1199 1.350 . S
C1205 H1192 0.929 . S
C1205 C1197 1.433 . S
C1205 N1207 1.384 . S
N1206 C1202 1.427 . S
N1206 C1203 1.384 . S
N1207 C1199 1.427 . S
N1207 C1205 1.384 . S
H1208 C1214 0.930 . S
H1209 C1218 0.930 . S
H1210 C1223 0.929 . S
H1211 C1221 0.929 . S
H1212 C1216 0.929 . S
H1213 C1222 0.929 . S
C1214 H1208 0.930 . S
C1214 C1215 1.367 . S
C1214 C1222 1.378 . S
C1215 C1214 1.367 . S
C1215 C1223 1.433 . S
C1216 H1212 0.929 . S
C1216 C1218 1.378 . S
C1216 C1220 1.350 . S
C1217 C1220 1.463 . S
C1217 C1222 1.350 . S
C1217 N1225 1.427 . S
C1218 H1209 0.930 . S
C1218 C1216 1.378 . S
C1218 C1219 1.367 . S
C1219 C1218 1.367 . S
C1219 C1221 1.433 . S
C1220 C1216 1.350 . S
C1220 C1217 1.463 . S
C1220 N1224 1.427 . S
C1221 H1211 0.929 . S
C1221 C1219 1.433 . S
C1221 N1224 1.384 . S
C1222 H1213 0.929 . S
C1222 C1214 1.378 . S
C1222 C1217 1.350 . S
C1223 H1210 0.929 . S
C1223 C1215 1.433 . S
C1223 N1225 1.384 . S
N1224 C1220 1.427 . S
N1224 C1221 1.384 . S
N1225 C1217 1.427 . S
N1225 C1223 1.384 . S
H1226 C1232 0.930 . S
H1227 C1236 0.930 . S
H1228 C1241 0.929 . S
H1229 C1239 0.929 . S
H1230 C1234 0.929 . S
H1231 C1240 0.929 . S
C1232 H1226 0.930 . S
C1232 C1233 1.367 . S
C1232 C1240 1.378 . S
C1233 C1232 1.367 . S
C1233 C1241 1.433 . S
C1234 H1230 0.929 . S
C1234 C1236 1.378 . S
C1234 C1238 1.350 . S
C1235 C1238 1.463 . S
C1235 C1240 1.350 . S
C1235 N1243 1.427 . S
C1236 H1227 0.930 . S
C1236 C1234 1.378 . S
C1236 C1237 1.367 . S
C1237 C1236 1.367 . S
C1237 C1239 1.433 . S
C1238 C1234 1.350 . S
C1238 C1235 1.463 . S
C1238 N1242 1.427 . S
C1239 H1229 0.929 . S
C1239 C1237 1.433 . S
C1239 N1242 1.384 . S
C1240 H1231 0.929 . S
C1240 C1232 1.378 . S
C1240 C1235 1.350 . S
C1241 H1228 0.929 . S
C1241 C1233 1.433 . S
C1241 N1243 1.384 . S
N1242 C1238 1.427 . S
N1242 C1239 1.384 . S
N1243 C1235 1.427 . S
N1243 C1241 1.384 . S
H1244 C1250 0.930 . S
H1245 C1254 0.930 . S
H1246 C1259 0.929 . S
H1247 C1257 0.929 . S
H1248 C1252 0.929 . S
H1249 C1258 0.929 . S
C1250 H1244 0.930 . S
C1250 C1251 1.367 . S
C1250 C1258 1.378 . S
C1251 C1250 1.367 . S
C1251 C1259 1.433 . S
C1252 H1248 0.929 . S
C1252 C1254 1.378 . S
C1252 C1256 1.350 . S
C1253 C1256 1.463 1_554 S
C1253 C1258 1.350 . S
C1253 N1261 1.427 . S
C1254 H1245 0.930 . S
C1254 C1252 1.378 . S
C1254 C1255 1.367 . S
C1255 C1254 1.367 . S
C1255 C1257 1.433 . S
C1256 C1252 1.350 . S
C1256 C1253 1.463 1_556 S
C1256 N1260 1.427 . S
C1257 H1247 0.929 . S
C1257 C1255 1.433 . S
C1257 N1260 1.384 . S
C1258 H1249 0.929 . S
C1258 C1250 1.378 . S
C1258 C1253 1.350 . S
C1259 H1246 0.929 . S
C1259 C1251 1.433 . S
C1259 N1261 1.384 . S
N1260 C1256 1.427 . S
N1260 C1257 1.384 . S
N1261 C1253 1.427 . S
N1261 C1259 1.384 . S
H1262 C1268 0.930 . S
H1263 C1272 0.930 1_554 S
H1264 C1277 0.929 . S
H1265 C1275 0.929 . S
H1266 C1270 0.929 1_455 S
H1267 C1276 0.929 1_655 S
C1268 H1262 0.930 . S
C1268 C1269 1.367 . S
C1268 C1276 1.378 . S
C1269 C1268 1.367 . S
C1269 C1277 1.433 . S
C1270 H1266 0.929 1_655 S
C1270 C1272 1.378 . S
C1270 C1274 1.350 . S
C1271 C1274 1.463 1_455 S
C1271 C1276 1.350 . S
C1271 N1279 1.427 . S
C1272 H1263 0.930 1_556 S
C1272 C1270 1.378 . S
C1272 C1273 1.367 . S
C1273 C1272 1.367 . S
C1273 C1275 1.433 . S
C1274 C1270 1.350 . S
C1274 C1271 1.463 1_655 S
C1274 N1278 1.427 . S
C1275 H1265 0.929 . S
C1275 C1273 1.433 . S
C1275 N1278 1.384 . S
C1276 H1267 0.929 1_455 S
C1276 C1268 1.378 . S
C1276 C1271 1.350 . S
C1277 H1264 0.929 . S
C1277 C1269 1.433 . S
C1277 N1279 1.384 . S
N1278 C1274 1.427 . S
N1278 C1275 1.384 . S
N1279 C1271 1.427 . S
N1279 C1277 1.384 . S
H1280 C1286 0.930 . S
H1281 C1290 0.930 . S
H1282 C1295 0.929 . S
H1283 C1293 0.929 . S
H1284 C1288 0.929 . S
H1285 C1294 0.929 . S
C1286 H1280 0.930 . S
C1286 C1287 1.367 . S
C1286 C1294 1.378 . S
C1287 C1286 1.367 . S
C1287 C1295 1.433 . S
C1288 H1284 0.929 . S
C1288 C1290 1.378 . S
C1288 C1292 1.350 . S
C1289 C1292 1.463 . S
C1289 C1294 1.350 . S
C1289 N1297 1.427 . S
C1290 H1281 0.930 . S
C1290 C1288 1.378 . S
C1290 C1291 1.367 . S
C1291 C1290 1.367 . S
C1291 C1293 1.433 . S
C1292 C1288 1.350 . S
C1292 C1289 1.463 . S
C1292 N1296 1.427 . S
C1293 H1283 0.929 . S
C1293 C1291 1.433 . S
C1293 N1296 1.384 . S
C1294 H1285 0.929 . S
C1294 C1286 1.378 . S
C1294 C1289 1.350 . S
C1295 H1282 0.929 . S
C1295 C1287 1.433 . S
C1295 N1297 1.384 . S
N1296 C1292 1.427 . S
N1296 C1293 1.384 . S
N1297 C1289 1.427 . S
N1297 C1295 1.384 . S
H1298 C1304 0.930 . S
H1299 C1308 0.930 . S
H1300 C1313 0.929 . S
H1301 C1311 0.929 . S
H1302 C1306 0.929 . S
H1303 C1312 0.929 . S
C1304 H1298 0.930 . S
C1304 C1305 1.367 . S
C1304 C1312 1.378 . S
C1305 C1304 1.367 . S
C1305 C1313 1.433 . S
C1306 H1302 0.929 . S
C1306 C1308 1.378 . S
C1306 C1310 1.350 . S
C1307 C1310 1.463 . S
C1307 C1312 1.350 . S
C1307 N1315 1.427 . S
C1308 H1299 0.930 . S
C1308 C1306 1.378 . S
C1308 C1309 1.367 . S
C1309 C1308 1.367 . S
C1309 C1311 1.433 . S
C1310 C1306 1.350 . S
C1310 C1307 1.463 . S
C1310 N1314 1.427 . S
C1311 H1301 0.929 . S
C1311 C1309 1.433 . S
C1311 N1314 1.384 . S
C1312 H1303 0.929 . S
C1312 C1304 1.378 . S
C1312 C1307 1.350 . S
C1313 H1300 0.929 . S
C1313 C1305 1.433 . S
C1313 N1315 1.384 . S
N1314 C1310 1.427 . S
N1314 C1311 1.384 . S
N1315 C1307 1.427 . S
N1315 C1313 1.384 . S
H1316 C1322 0.930 . S
H1317 C1326 0.930 . S
H1318 C1331 0.929 . S
H1319 C1329 0.929 . S
H1320 C1324 0.929 1_554 S
H1321 C1330 0.934 . S
C1322 H1316 0.930 . S
C1322 C1323 1.367 . S
C1322 C1330 1.374 1_554 S
C1323 C1322 1.367 . S
C1323 C1331 1.433 . S
C1324 H1320 0.929 1_556 S
C1324 C1326 1.378 . S
C1324 C1328 1.350 . S
C1325 C1328 1.463 1_554 S
C1325 C1330 1.349 1_554 S
C1325 N1333 1.427 . S
C1326 H1317 0.930 . S
C1326 C1324 1.378 . S
C1326 C1327 1.367 . S
C1327 C1326 1.367 . S
C1327 C1329 1.433 . S
C1328 C1324 1.350 . S
C1328 C1325 1.463 1_556 S
C1328 N1332 1.427 . S
C1329 H1319 0.929 . S
C1329 C1327 1.433 . S
C1329 N1332 1.384 . S
C1330 H1321 0.934 . S
C1330 C1322 1.374 1_556 S
C1330 C1325 1.349 1_556 S
C1331 H1318 0.929 . S
C1331 C1323 1.433 . S
C1331 N1333 1.384 . S
N1332 C1328 1.427 . S
N1332 C1329 1.384 . S
N1333 C1325 1.427 . S
N1333 C1331 1.384 . S
H1334 C1340 0.930 . S
H1335 C1344 0.930 . S
H1336 C1349 0.929 . S
H1337 C1347 0.929 . S
H1338 C1342 0.929 . S
H1339 C1348 0.929 . S
C1340 H1334 0.930 . S
C1340 C1341 1.367 . S
C1340 C1348 1.378 . S
C1341 C1340 1.367 . S
C1341 C1349 1.433 . S
C1342 H1338 0.929 . S
C1342 C1344 1.378 . S
C1342 C1346 1.350 . S
C1343 C1346 1.463 1_655 S
C1343 C1348 1.350 . S
C1343 N1351 1.427 . S
C1344 H1335 0.930 . S
C1344 C1342 1.378 . S
C1344 C1345 1.367 . S
C1345 C1344 1.367 . S
C1345 C1347 1.433 . S
C1346 C1342 1.350 . S
C1346 C1343 1.463 1_455 S
C1346 N1350 1.427 . S
C1347 H1337 0.929 . S
C1347 C1345 1.433 . S
C1347 N1350 1.384 . S
C1348 H1339 0.929 . S
C1348 C1340 1.378 . S
C1348 C1343 1.350 . S
C1349 H1336 0.929 . S
C1349 C1341 1.433 . S
C1349 N1351 1.384 . S
N1350 C1346 1.427 . S
N1350 C1347 1.384 . S
N1351 C1343 1.427 . S
N1351 C1349 1.384 . S
H1352 C1358 0.930 . S
H1353 C1362 0.930 . S
H1354 C1367 0.929 . S
H1355 C1365 0.929 . S
H1356 C1360 0.929 . S
H1357 C1366 0.927 1_554 S
C1358 H1352 0.930 . S
C1358 C1359 1.367 . S
C1358 C1366 1.378 . S
C1359 C1358 1.367 . S
C1359 C1367 1.433 . S
C1360 H1356 0.929 . S
C1360 C1362 1.378 . S
C1360 C1364 1.350 . S
C1361 C1364 1.463 1_556 S
C1361 C1366 1.350 . S
C1361 N1369 1.427 . S
C1362 H1353 0.930 . S
C1362 C1360 1.378 . S
C1362 C1363 1.367 . S
C1363 C1362 1.367 . S
C1363 C1365 1.433 . S
C1364 C1360 1.350 . S
C1364 C1361 1.463 1_554 S
C1364 N1368 1.427 . S
C1365 H1355 0.929 . S
C1365 C1363 1.433 . S
C1365 N1368 1.384 . S
C1366 H1357 0.927 1_556 S
C1366 C1358 1.378 . S
C1366 C1361 1.350 . S
C1367 H1354 0.929 . S
C1367 C1359 1.433 . S
C1367 N1369 1.384 . S
N1368 C1364 1.427 . S
N1368 C1365 1.384 . S
N1369 C1361 1.427 . S
N1369 C1367 1.384 . S
H1370 C1376 0.930 . S
H1371 C1380 0.930 . S
H1372 C1385 0.929 1_556 S
H1373 C1383 0.929 . S
H1374 C1378 0.929 . S
H1375 C1384 0.929 . S
C1376 H1370 0.930 . S
C1376 C1377 1.367 . S
C1376 C1384 1.378 . S
C1377 C1376 1.367 . S
C1377 C1385 1.433 . S
C1378 H1374 0.929 . S
C1378 C1380 1.378 . S
C1378 C1382 1.350 . S
C1379 C1382 1.463 1_655 S
C1379 C1384 1.350 . S
C1379 N1387 1.423 1_655 S
C1380 H1371 0.930 . S
C1380 C1378 1.378 . S
C1380 C1381 1.367 . S
C1381 C1380 1.367 . S
C1381 C1383 1.433 . S
C1382 C1378 1.350 . S
C1382 C1379 1.463 1_455 S
C1382 N1386 1.424 1_455 S
C1383 H1373 0.929 . S
C1383 C1381 1.433 . S
C1383 N1386 1.378 1_455 S
C1384 H1375 0.929 . S
C1384 C1376 1.378 . S
C1384 C1379 1.350 . S
C1385 H1372 0.929 1_554 S
C1385 C1377 1.433 . S
C1385 N1387 1.375 1_655 S
N1386 C1382 1.424 1_655 S
N1386 C1383 1.378 1_655 S
N1387 C1379 1.423 1_455 S
N1387 C1385 1.375 1_455 S
H1388 C1394 0.930 . S
H1389 C1398 0.930 . S
H1390 C1403 0.929 . S
H1391 C1401 0.929 . S
H1392 C1396 0.929 . S
H1393 C1402 0.929 . S
C1394 H1388 0.930 . S
C1394 C1395 1.367 . S
C1394 C1402 1.378 . S
C1395 C1394 1.367 . S
C1395 C1403 1.433 . S
C1396 H1392 0.929 . S
C1396 C1398 1.378 . S
C1396 C1400 1.350 . S
C1397 C1400 1.463 . S
C1397 C1402 1.350 . S
C1397 N1405 1.427 . S
C1398 H1389 0.930 . S
C1398 C1396 1.378 . S
C1398 C1399 1.367 . S
C1399 C1398 1.367 . S
C1399 C1401 1.433 . S
C1400 C1396 1.350 . S
C1400 C1397 1.463 . S
C1400 N1404 1.427 . S
C1401 H1391 0.929 . S
C1401 C1399 1.433 . S
C1401 N1404 1.384 . S
C1402 H1393 0.929 . S
C1402 C1394 1.378 . S
C1402 C1397 1.350 . S
C1403 H1390 0.929 . S
C1403 C1395 1.433 . S
C1403 N1405 1.384 . S
N1404 C1400 1.427 . S
N1404 C1401 1.384 . S
N1405 C1397 1.427 . S
N1405 C1403 1.384 . S
H1406 C1412 0.930 . S
H1407 C1416 0.930 . S
H1408 C1421 0.929 . S
H1409 C1419 0.929 . S
H1410 C1414 0.929 . S
H1411 C1420 0.929 . S
C1412 H1406 0.930 . S
C1412 C1413 1.367 . S
C1412 C1420 1.378 . S
C1413 C1412 1.367 . S
C1413 C1421 1.433 . S
C1414 H1410 0.929 . S
C1414 C1416 1.378 . S
C1414 C1418 1.350 . S
C1415 C1418 1.463 . S
C1415 C1420 1.350 . S
C1415 N1423 1.427 . S
C1416 H1407 0.930 . S
C1416 C1414 1.378 . S
C1416 C1417 1.367 . S
C1417 C1416 1.367 . S
C1417 C1419 1.433 . S
C1418 C1414 1.350 . S
C1418 C1415 1.463 . S
C1418 N1422 1.427 . S
C1419 H1409 0.929 . S
C1419 C1417 1.433 . S
C1419 N1422 1.384 . S
C1420 H1411 0.929 . S
C1420 C1412 1.378 . S
C1420 C1415 1.350 . S
C1421 H1408 0.929 . S
C1421 C1413 1.433 . S
C1421 N1423 1.384 . S
N1422 C1418 1.427 . S
N1422 C1419 1.384 . S
N1423 C1415 1.427 . S
N1423 C1421 1.384 . S
H1424 C1430 0.930 . S
H1425 C1434 0.930 . S
H1426 C1439 0.929 . S
H1427 C1437 0.929 . S
H1428 C1432 0.929 . S
H1429 C1438 0.929 . S
C1430 H1424 0.930 . S
C1430 C1431 1.367 . S
C1430 C1438 1.378 . S
C1431 C1430 1.367 . S
C1431 C1439 1.433 . S
C1432 H1428 0.929 . S
C1432 C1434 1.378 . S
C1432 C1436 1.350 . S
C1433 C1436 1.463 . S
C1433 C1438 1.350 . S
C1433 N1441 1.427 . S
C1434 H1425 0.930 . S
C1434 C1432 1.378 . S
C1434 C1435 1.367 . S
C1435 C1434 1.367 . S
C1435 C1437 1.433 . S
C1436 C1432 1.350 . S
C1436 C1433 1.463 . S
C1436 N1440 1.427 . S
C1437 H1427 0.929 . S
C1437 C1435 1.433 . S
C1437 N1440 1.384 . S
C1438 H1429 0.929 . S
C1438 C1430 1.378 . S
C1438 C1433 1.350 . S
C1439 H1426 0.929 . S
C1439 C1431 1.433 . S
C1439 N1441 1.384 . S
N1440 C1436 1.427 . S
N1440 C1437 1.384 . S
N1441 C1433 1.427 . S
N1441 C1439 1.384 . S
H1442 C1448 0.930 . S
H1443 C1452 0.930 . S
H1444 C1457 0.929 . S
H1445 C1455 0.929 . S
H1446 C1450 0.929 . S
H1447 C1456 0.929 . S
C1448 H1442 0.930 . S
C1448 C1449 1.367 . S
C1448 C1456 1.378 . S
C1449 C1448 1.367 . S
C1449 C1457 1.433 . S
C1450 H1446 0.929 . S
C1450 C1452 1.378 . S
C1450 C1454 1.350 . S
C1451 C1454 1.463 . S
C1451 C1456 1.350 . S
C1451 N1459 1.427 . S
C1452 H1443 0.930 . S
C1452 C1450 1.378 . S
C1452 C1453 1.367 . S
C1453 C1452 1.367 . S
C1453 C1455 1.433 . S
C1454 C1450 1.350 . S
C1454 C1451 1.463 . S
C1454 N1458 1.427 . S
C1455 H1445 0.929 . S
C1455 C1453 1.433 . S
C1455 N1458 1.384 . S
C1456 H1447 0.929 . S
C1456 C1448 1.378 . S
C1456 C1451 1.350 . S
C1457 H1444 0.929 . S
C1457 C1449 1.433 . S
C1457 N1459 1.384 . S
N1458 C1454 1.427 . S
N1458 C1455 1.384 . S
N1459 C1451 1.427 . S
N1459 C1457 1.384 . S
H1460 C1466 0.930 . S
H1461 C1470 0.930 . S
H1462 C1475 0.929 . S
H1463 C1473 0.929 . S
H1464 C1468 0.929 . S
H1465 C1474 0.929 . S
C1466 H1460 0.930 . S
C1466 C1467 1.367 . S
C1466 C1474 1.378 . S
C1467 C1466 1.367 . S
C1467 C1475 1.433 . S
C1468 H1464 0.929 . S
C1468 C1470 1.378 . S
C1468 C1472 1.350 . S
C1469 C1472 1.463 1_554 S
C1469 C1474 1.350 . S
C1469 N1477 1.427 . S
C1470 H1461 0.930 . S
C1470 C1468 1.378 . S
C1470 C1471 1.367 . S
C1471 C1470 1.367 . S
C1471 C1473 1.433 . S
C1472 C1468 1.350 . S
C1472 C1469 1.463 1_556 S
C1472 N1476 1.427 . S
C1473 H1463 0.929 . S
C1473 C1471 1.433 . S
C1473 N1476 1.384 . S
C1474 H1465 0.929 . S
C1474 C1466 1.378 . S
C1474 C1469 1.350 . S
C1475 H1462 0.929 . S
C1475 C1467 1.433 . S
C1475 N1477 1.384 . S
N1476 C1472 1.427 . S
N1476 C1473 1.384 . S
N1477 C1469 1.427 . S
N1477 C1475 1.384 . S
H1478 C1484 0.930 . S
H1479 C1488 0.930 . S
H1480 C1493 0.929 . S
H1481 C1491 0.929 . S
H1482 C1486 0.929 1_455 S
H1483 C1492 0.929 1_655 S
C1484 H1478 0.930 . S
C1484 C1485 1.367 . S
C1484 C1492 1.378 . S
C1485 C1484 1.367 . S
C1485 C1493 1.433 . S
C1486 H1482 0.929 1_655 S
C1486 C1488 1.378 . S
C1486 C1490 1.350 . S
C1487 C1490 1.463 1_455 S
C1487 C1492 1.350 . S
C1487 N1495 1.427 . S
C1488 H1479 0.930 . S
C1488 C1486 1.378 . S
C1488 C1489 1.367 . S
C1489 C1488 1.367 . S
C1489 C1491 1.433 . S
C1490 C1486 1.350 . S
C1490 C1487 1.463 1_655 S
C1490 N1494 1.427 . S
C1491 H1481 0.929 . S
C1491 C1489 1.433 . S
C1491 N1494 1.384 . S
C1492 H1483 0.929 1_455 S
C1492 C1484 1.378 . S
C1492 C1487 1.350 . S
C1493 H1480 0.929 . S
C1493 C1485 1.433 . S
C1493 N1495 1.384 . S
N1494 C1490 1.427 . S
N1494 C1491 1.384 . S
N1495 C1487 1.427 . S
N1495 C1493 1.384 . S
H1496 C1502 0.930 . S
H1497 C1506 0.930 . S
H1498 C1511 0.929 . S
H1499 C1509 0.929 . S
H1500 C1504 0.929 . S
H1501 C1510 0.929 . S
C1502 H1496 0.930 . S
C1502 C1503 1.367 . S
C1502 C1510 1.378 . S
C1503 C1502 1.367 . S
C1503 C1511 1.433 . S
C1504 H1500 0.929 . S
C1504 C1506 1.378 . S
C1504 C1508 1.350 . S
C1505 C1508 1.463 1_554 S
C1505 C1510 1.350 . S
C1505 N1513 1.427 1_554 S
C1506 H1497 0.930 . S
C1506 C1504 1.378 . S
C1506 C1507 1.367 . S
C1507 C1506 1.367 . S
C1507 C1509 1.433 . S
C1508 C1504 1.350 . S
C1508 C1505 1.463 1_556 S
C1508 N1512 1.427 . S
C1509 H1499 0.929 . S
C1509 C1507 1.433 . S
C1509 N1512 1.384 . S
C1510 H1501 0.929 . S
C1510 C1502 1.378 . S
C1510 C1505 1.350 . S
C1511 H1498 0.929 . S
C1511 C1503 1.433 . S
C1511 N1513 1.384 1_554 S
N1512 C1508 1.427 . S
N1512 C1509 1.384 . S
N1513 C1505 1.427 1_556 S
N1513 C1511 1.384 1_556 S
H1514 C1520 0.930 . S
H1515 C1524 0.936 . S
H1516 C1529 0.929 . S
H1517 C1527 0.929 . S
H1518 C1522 0.929 1_655 S
H1519 C1528 0.929 1_455 S
C1520 H1514 0.930 . S
C1520 C1521 1.367 . S
C1520 C1528 1.378 . S
C1521 C1520 1.367 . S
C1521 C1529 1.433 . S
C1522 H1518 0.929 1_455 S
C1522 C1524 1.378 . S
C1522 C1526 1.350 . S
C1523 C1526 1.463 1_655 S
C1523 C1528 1.350 . S
C1523 N1531 1.427 . S
C1524 H1515 0.936 . S
C1524 C1522 1.378 . S
C1524 C1525 1.367 . S
C1525 C1524 1.367 . S
C1525 C1527 1.433 . S
C1526 C1522 1.350 . S
C1526 C1523 1.463 1_455 S
C1526 N1530 1.427 . S
C1527 H1517 0.929 . S
C1527 C1525 1.433 . S
C1527 N1530 1.384 . S
C1528 H1519 0.929 1_655 S
C1528 C1520 1.378 . S
C1528 C1523 1.350 . S
C1529 H1516 0.929 . S
C1529 C1521 1.433 . S
C1529 N1531 1.384 . S
N1530 C1526 1.427 . S
N1530 C1527 1.384 . S
N1531 C1523 1.427 . S
N1531 C1529 1.384 . S
H1532 C1538 0.930 . S
H1533 C1542 0.930 . S
H1534 C1547 0.929 . S
H1535 C1545 0.929 . S
H1536 C1540 0.929 . S
H1537 C1546 0.929 . S
C1538 H1532 0.930 . S
C1538 C1539 1.367 . S
C1538 C1546 1.378 . S
C1539 C1538 1.367 . S
C1539 C1547 1.433 . S
C1540 H1536 0.929 . S
C1540 C1542 1.378 . S
C1540 C1544 1.350 . S
C1541 C1544 1.463 . S
C1541 C1546 1.350 . S
C1541 N1549 1.427 . S
C1542 H1533 0.930 . S
C1542 C1540 1.378 . S
C1542 C1543 1.367 . S
C1543 C1542 1.367 . S
C1543 C1545 1.433 . S
C1544 C1540 1.350 . S
C1544 C1541 1.463 . S
C1544 N1548 1.427 . S
C1545 H1535 0.929 . S
C1545 C1543 1.433 . S
C1545 N1548 1.384 . S
C1546 H1537 0.929 . S
C1546 C1538 1.378 . S
C1546 C1541 1.350 . S
C1547 H1534 0.929 . S
C1547 C1539 1.433 . S
C1547 N1549 1.384 . S
N1548 C1544 1.427 . S
N1548 C1545 1.384 . S
N1549 C1541 1.427 . S
N1549 C1547 1.384 . S
H1550 C1556 0.930 . S
H1551 C1560 0.930 . S
H1552 C1565 0.929 . S
H1553 C1563 0.929 . S
H1554 C1558 0.929 . S
H1555 C1564 0.929 . S
C1556 H1550 0.930 . S
C1556 C1557 1.367 . S
C1556 C1564 1.378 . S
C1557 C1556 1.367 . S
C1557 C1565 1.433 . S
C1558 H1554 0.929 . S
C1558 C1560 1.378 . S
C1558 C1562 1.350 . S
C1559 C1562 1.463 . S
C1559 C1564 1.350 . S
C1559 N1567 1.427 . S
C1560 H1551 0.930 . S
C1560 C1558 1.378 . S
C1560 C1561 1.367 . S
C1561 C1560 1.367 . S
C1561 C1563 1.433 . S
C1562 C1558 1.350 . S
C1562 C1559 1.463 . S
C1562 N1566 1.427 . S
C1563 H1553 0.929 . S
C1563 C1561 1.433 . S
C1563 N1566 1.384 . S
C1564 H1555 0.929 . S
C1564 C1556 1.378 . S
C1564 C1559 1.350 . S
C1565 H1552 0.929 . S
C1565 C1557 1.433 . S
C1565 N1567 1.384 . S
N1566 C1562 1.427 . S
N1566 C1563 1.384 . S
N1567 C1559 1.427 . S
N1567 C1565 1.384 . S
C423 C81 2.124 . S
C427 C5 2.116 . S
C441 C18 1.436 . S
C445 C96 1.430 . S
C459 C55 2.108 . S
C463 C29 2.121 . S
C477 C42 1.431 . S
C481 C70 1.438 . S
C495 C185 2.107 . S
C499 C109 2.111 . S
C513 C120 1.438 . S
C517 C200 1.429 . S
C531 C159 2.115 . S
C535 C133 2.124 . S
C549 C146 1.435 . S
C553 C174 1.431 . S
C567 C211 2.124 . S
C571 C291 2.119 . S
C585 C302 1.438 . S
C589 C226 1.432 . S
C603 C237 2.120 . S
C607 C263 2.123 . S
C621 C276 1.431 . S
C625 C252 1.434 . S
C639 C393 2.114 . S
C643 C317 2.106 . S
C657 C406 1.436 . S
C661 C330 1.434 . S
C675 C367 2.122 . S
C679 C341 2.109 . S
C693 C356 1.437 . S
C697 C382 1.429 . S
C711 C101 1.287 . S
C715 C10 1.293 . S
C729 C56 1.293 . S
C733 C23 1.285 . S
C747 C75 1.280 . S
C751 C30 1.292 . S
C765 C82 1.293 . S
C769 C43 1.288 . S
C783 C205 1.285 . S
C787 C114 1.292 . S
C801 C160 1.293 . S
C805 C121 1.287 . S
C819 C179 1.284 . S
C823 C134 1.292 . S
C837 C147 1.281 . S
C841 C186 1.292 . S
C855 C303 1.283 . S
C859 C212 1.292 . S
C873 C231 1.287 . S
C877 C264 1.293 . S
C891 C238 1.293 . S
C895 C277 1.287 . S
C909 C296 1.293 . S
C913 C257 1.284 . S
C927 C407 1.287 . S
C931 C322 1.293 . S
C945 C335 1.287 . S
C949 C368 1.293 . S
C963 C342 1.293 . S
C967 C387 1.286 . S
C981 C394 1.293 . S
C985 C361 1.285 . S
C999 C4 1.799 . S
C1003 C395 1.969 . S
C1017 C198 1.352 . S
C1021 C17 1.351 . S
C1035 C369 1.972 . S
C1039 C36 1.787 . S
C1053 C172 1.347 . S
C1057 C49 1.357 1_556 S
C1071 C343 1.971 . S
C1075 C62 1.803 . S
C1089 C69 1.358 . S
C1093 C148 1.346 . S
C1107 C88 1.798 . S
C1111 C315 1.974 . S
C1125 C95 1.357 1_554 S
C1129 C122 1.345 . S
C1143 C108 1.786 . S
C1147 C289 1.971 . S
C1161 C94 1.353 . S
C1165 C127 1.352 . S
C1179 C265 1.974 . S
C1183 C140 1.796 . S
C1197 C68 1.352 . S
C1201 C153 1.351 1_554 S
C1215 C239 1.972 . S
C1219 C166 1.804 . S
C1233 C44 1.353 . S
C1237 C173 1.352 . S
C1251 C192 1.785 . S
C1255 C213 1.971 . S
C1269 C16 1.345 . S
C1273 C199 1.356 1_556 S
C1287 C187 1.969 . S
C1291 C218 1.787 . S
C1305 C408 1.346 . S
C1309 C225 1.358 1_556 S
C1323 C244 1.796 . S
C1327 C161 1.969 . S
C1341 C251 1.351 . S
C1345 C380 1.353 . S
C1359 C270 1.804 . S
C1363 C135 1.973 . S
C1377 C283 1.354 1_554 S
C1381 C354 1.352 . S
C1395 C290 1.804 . S
C1399 C107 1.973 . S
C1413 C309 1.354 . S
C1417 C328 1.352 . S
C1431 C83 1.974 . S
C1435 C316 1.794 . S
C1449 C304 1.345 . S
C1453 C329 1.357 1_554 S
C1467 C57 1.974 . S
C1471 C348 1.801 . S
C1485 C355 1.351 . S
C1489 C278 1.352 . S
C1503 C374 1.788 . S
C1507 C31 1.972 . S
C1521 C250 1.345 . S
C1525 C381 1.357 1_556 S
C1539 C400 1.785 . S
C1543 C3 1.970 . S
C1557 C413 1.355 . S
C1561 C224 1.350 . S
