# Generated by pormake.
# Topology zfs, (5)-cn, num edge types: 1
# Building blocks:
#     Node 0, Type 0, BuildingBlock: BEQFEK_clean_sbu_0, # of connection points: 5
#     Node 1, Type 0, BuildingBlock: BEQFEK_clean_sbu_0, # of connection points: 5
#     Node 2, Type 0, BuildingBlock: BEQFEK_clean_sbu_0, # of connection points: 5
#     Node 3, Type 0, BuildingBlock: BEQFEK_clean_sbu_0, # of connection points: 5
#     Node 4, Type 0, BuildingBlock: BEQFEK_clean_sbu_0, # of connection points: 5
#     Node 5, Type 0, BuildingBlock: BEQFEK_clean_sbu_0, # of connection points: 5
#     Node 6, Type 0, BuildingBlock: BEQFEK_clean_sbu_0, # of connection points: 5
#     Node 7, Type 0, BuildingBlock: BEQFEK_clean_sbu_0, # of connection points: 5
#     Edge 8, Type (0, 0), BuildingBlock: KIFKEQ_clean_linker_1, # of connection points: 2
#     Edge 9, Type (0, 0), BuildingBlock: KIFKEQ_clean_linker_1, # of connection points: 2
#     Edge 10, Type (0, 0), BuildingBlock: KIFKEQ_clean_linker_1, # of connection points: 2
#     Edge 11, Type (0, 0), BuildingBlock: KIFKEQ_clean_linker_1, # of connection points: 2
#     Edge 12, Type (0, 0), BuildingBlock: KIFKEQ_clean_linker_1, # of connection points: 2
#     Edge 13, Type (0, 0), BuildingBlock: KIFKEQ_clean_linker_1, # of connection points: 2
#     Edge 14, Type (0, 0), BuildingBlock: KIFKEQ_clean_linker_1, # of connection points: 2
#     Edge 15, Type (0, 0), BuildingBlock: KIFKEQ_clean_linker_1, # of connection points: 2
#     Edge 16, Type (0, 0), BuildingBlock: KIFKEQ_clean_linker_1, # of connection points: 2
#     Edge 17, Type (0, 0), BuildingBlock: KIFKEQ_clean_linker_1, # of connection points: 2
#     Edge 18, Type (0, 0), BuildingBlock: KIFKEQ_clean_linker_1, # of connection points: 2
#     Edge 19, Type (0, 0), BuildingBlock: KIFKEQ_clean_linker_1, # of connection points: 2
#     Edge 20, Type (0, 0), BuildingBlock: KIFKEQ_clean_linker_1, # of connection points: 2
#     Edge 21, Type (0, 0), BuildingBlock: KIFKEQ_clean_linker_1, # of connection points: 2
#     Edge 22, Type (0, 0), BuildingBlock: KIFKEQ_clean_linker_1, # of connection points: 2
#     Edge 23, Type (0, 0), BuildingBlock: KIFKEQ_clean_linker_1, # of connection points: 2
#     Edge 24, Type (0, 0), BuildingBlock: KIFKEQ_clean_linker_1, # of connection points: 2
#     Edge 25, Type (0, 0), BuildingBlock: KIFKEQ_clean_linker_1, # of connection points: 2
#     Edge 26, Type (0, 0), BuildingBlock: KIFKEQ_clean_linker_1, # of connection points: 2
#     Edge 27, Type (0, 0), BuildingBlock: KIFKEQ_clean_linker_1, # of connection points: 2
# Relax obj value: 0.289
# Max RMSD: 0.155
# Mean RMSD: 0.155
data_MOF--net-zfs--node1-BEQFEK_clean_sbu_0--edge1-KIFKEQ_clean_linker_1
_symmetry_space_group_name_H-M    P1
_symmetry_Int_Tables_number       1
_symmetry_cell_setting            triclinic
loop_
_symmetry_equiv_pos_as_xyz
'x, y, z'
_cell_length_a     32.780576
_cell_length_b     32.801006
_cell_length_c     42.629399
_cell_angle_alpha  90.011007
_cell_angle_beta   90.026714
_cell_angle_gamma 89.968394
loop_
_atom_site_label
_atom_site_type_symbol
_atom_site_fract_x
_atom_site_fract_y
_atom_site_fract_z
_atom_type_partial_charge
Co0 Co 0.06917 0.2742 0.25455 0.0
Co1 Co 1.00057 0.28085 0.20499 0.0
C2 C 0.0383 0.35472 0.23723 0.0
O3 O 0.06483 0.33359 0.2515 0.0
O4 O 0.01165 0.33775 0.21993 0.0
C5 C 0.14738 0.28243 0.28408 0.0
O6 O 0.1567 0.30721 0.26099 0.0
C7 C 0.99061 0.30743 0.14169 0.0
C8 C 0.93378 0.27847 0.12531 0.0
C9 C 0.9672 0.30087 0.11518 0.0
N10 N 0.97281 0.28875 0.16615 0.0
N11 N 0.93825 0.27225 0.15645 0.0
C12 C 0.03062 0.3295 0.14355 0.0
H13 H 0.03182 0.34858 0.16489 0.0
H14 H 0.05591 0.30711 0.14489 0.0
H15 H 0.0353 0.34943 0.12283 0.0
C16 C 0.11008 0.22678 0.20322 0.0
N17 N 0.07945 0.24957 0.2152 0.0
N18 N 0.04858 0.24936 0.1955 0.0
C19 C 0.05783 0.22464 0.17115 0.0
C20 C 0.09745 0.21048 0.17475 0.0
C21 C 0.14931 0.21795 0.21981 0.0
H22 H 0.14303 0.2093 0.24448 0.0
H23 H 0.16839 0.24585 0.21992 0.0
H24 H 0.16649 0.19306 0.20812 0.0
O25 O 0.01829 0.25049 0.27323 0.0
O26 O 0.96828 0.25214 0.2379 0.0
H27 H 0.99683 0.21291 0.15503 0.0
H28 H 0.03525 0.18179 0.13663 0.0
C29 C 0.02846 0.21259 0.1459 0.0
H30 H 0.03097 0.23422 0.12615 0.0
H31 H 0.91904 0.25477 0.17058 0.0
O32 O 0.1131 0.26446 0.28466 0.0
C33 C 0.9815 0.24282 0.2652 0.0
Co34 Co 0.74128 0.06932 0.50319 0.0
Co35 Co 0.73301 0.99971 0.45433 0.0
C36 C 0.66002 0.03962 0.48704 0.0
O37 O 0.68161 0.06498 0.50221 0.0
O38 O 0.67645 0.01357 0.46885 0.0
C39 C 0.7329 0.14231 0.5409 0.0
O40 O 0.69391 0.14153 0.53382 0.0
C41 C 0.70693 0.98841 0.391 0.0
C42 C 0.73578 0.931 0.37577 0.0
C43 C 0.71389 0.96437 0.36488 0.0
N44 N 0.72491 0.97096 0.41595 0.0
N45 N 0.74134 0.93608 0.40693 0.0
C46 C 0.68514 0.02862 0.39204 0.0
H47 H 0.70772 0.05375 0.39291 0.0
H48 H 0.66528 0.03276 0.37119 0.0
H49 H 0.66604 0.03072 0.41331 0.0
C50 C 0.78578 0.10889 0.45063 0.0
N51 N 0.76391 0.07805 0.4631 0.0
N52 N 0.76488 0.04668 0.444 0.0
C53 C 0.78951 0.05573 0.41956 0.0
C54 C 0.80269 0.09578 0.42251 0.0
C55 C 0.79306 0.14877 0.46668 0.0
H56 H 0.8129 0.1437 0.48741 0.0
H57 H 0.76362 0.16133 0.47515 0.0
H58 H 0.80803 0.17105 0.45085 0.0
O59 O 0.76514 0.01891 0.52231 0.0
O60 O 0.76133 0.9679 0.48798 0.0
H61 H 0.80117 0.99444 0.40408 0.0
H62 H 0.83349 0.03238 0.38632 0.0
C63 C 0.80223 0.02596 0.39482 0.0
H64 H 0.78145 0.02856 0.3745 0.0
H65 H 0.75846 0.91709 0.42152 0.0
O66 O 0.75659 0.11491 0.53033 0.0
C67 C 0.77175 0.98174 0.51488 0.0
Co68 Co 0.94861 0.74285 0.75357 0.0
Co69 Co 0.01689 0.73587 0.7036 0.0
C70 C 0.97836 0.66224 0.73655 0.0
O71 O 0.95192 0.68336 0.75098 0.0
O72 O 1.00494 0.6792 0.71912 0.0
C73 C 0.87771 0.73294 0.79312 0.0
O74 O 0.87985 0.69395 0.78633 0.0
C75 C 0.02588 0.70937 0.64022 0.0
C76 C 0.08282 0.73783 0.62361 0.0
C77 C 0.04902 0.7159 0.61358 0.0
N78 N 0.04422 0.72759 0.66466 0.0
N79 N 0.07882 0.74382 0.65482 0.0
C80 C 0.9857 0.68767 0.64226 0.0
H81 H 0.96058 0.71028 0.6431 0.0
H82 H 0.98101 0.66728 0.62179 0.0
H83 H 0.98418 0.66921 0.66391 0.0
C84 C 0.90739 0.7884 0.70205 0.0
N85 N 0.93869 0.76655 0.71395 0.0
N86 N 0.96932 0.76734 0.69416 0.0
C87 C 0.95943 0.79191 0.66988 0.0
C88 C 0.9195 0.80519 0.67362 0.0
C89 C 0.86792 0.79546 0.71878 0.0
H90 H 0.87353 0.8151 0.73954 0.0
H91 H 0.8557 0.76594 0.72733 0.0
H92 H 0.84515 0.8105 0.70337 0.0
O93 O 1.00028 0.76515 0.77244 0.0
O94 O 0.04923 0.76504 0.73612 0.0
H95 H 0.02019 0.80357 0.65318 0.0
H96 H 0.98158 0.83569 0.63602 0.0
C97 C 0.98835 0.80451 0.64452 0.0
H98 H 0.98513 0.78361 0.62434 0.0
H99 H 0.09837 0.76103 0.66889 0.0
O100 O 0.90373 0.75753 0.78175 0.0
C101 C 0.03677 0.77317 0.76383 0.0
Co102 Co 0.27528 0.94629 0.00413 0.0
Co103 Co 0.28288 0.01571 0.95479 0.0
C104 C 0.35633 0.97755 0.98741 0.0
O105 O 0.33495 0.95191 0.00243 0.0
O106 O 0.3397 1.00342 0.96922 0.0
C107 C 0.28709 0.88606 0.05166 0.0
O108 O 0.32196 0.90476 0.05642 0.0
C109 C 0.30895 0.02752 0.89147 0.0
C110 C 0.27839 0.0839 0.87595 0.0
C111 C 0.30139 0.05117 0.86524 0.0
N112 N 0.29029 0.04452 0.91631 0.0
N113 N 0.27281 0.07882 0.9071 0.0
C114 C 0.33197 0.98799 0.89265 0.0
H115 H 0.3102 0.96218 0.89363 0.0
H116 H 0.3519 0.98431 0.87181 0.0
H117 H 0.35121 0.98665 0.91389 0.0
C118 C 0.23021 0.90626 0.95203 0.0
N119 N 0.25218 0.93724 0.96424 0.0
N120 N 0.2523 0.96788 0.94442 0.0
C121 C 0.22902 0.95786 0.91942 0.0
C122 C 0.21518 0.91823 0.92301 0.0
C123 C 0.22319 0.86644 0.9682 0.0
H124 H 0.20117 0.87107 0.98765 0.0
H125 H 0.25223 0.85531 0.97849 0.0
H126 H 0.21082 0.84323 0.95181 0.0
O127 O 0.25066 0.99606 0.02343 0.0
O128 O 0.25388 0.04676 0.98873 0.0
H129 H 0.21467 0.01868 0.90408 0.0
H130 H 0.18409 0.97909 0.88631 0.0
C131 C 0.2151 0.98716 0.89474 0.0
H132 H 0.23594 0.98558 0.87444 0.0
H133 H 0.25502 0.09734 0.92156 0.0
O134 O 0.26271 0.89934 0.03088 0.0
C135 C 0.24361 0.03306 0.01572 0.0
Co136 Co 0.06945 0.74057 0.2502 0.0
Co137 Co 0.99859 0.73456 0.29813 0.0
C138 C 0.03812 0.66034 0.26701 0.0
O139 O 0.06538 0.68121 0.25336 0.0
O140 O 0.0107 0.67758 0.28348 0.0
C141 C 0.1296 0.72861 0.20286 0.0
O142 O 0.11022 0.69417 0.19786 0.0
C143 C 0.98557 0.70734 0.3608 0.0
C144 C 0.93066 0.73997 0.37694 0.0
C145 C 0.96253 0.71549 0.38725 0.0
N146 N 0.9691 0.72707 0.33626 0.0
N147 N 0.93558 0.74573 0.34579 0.0
C148 C 0.02416 0.68284 0.35904 0.0
H149 H 0.05038 0.70336 0.35453 0.0
H150 H 0.02962 0.66534 0.3809 0.0
H151 H 0.02224 0.66089 0.33939 0.0
C152 C 0.10844 0.78615 0.30254 0.0
N153 N 0.07751 0.76456 0.28988 0.0
N154 N 0.04605 0.76558 0.30888 0.0
C155 C 0.05514 0.79001 0.33344 0.0
C156 C 0.0953 0.80299 0.33067 0.0
C157 C 0.14856 0.79301 0.28671 0.0
H158 H 0.14386 0.81311 0.26609 0.0
H159 H 0.16076 0.76351 0.27807 0.0
H160 H 0.17095 0.8075 0.30274 0.0
O161 O 0.01921 0.76344 0.22939 0.0
O162 O 0.96842 0.7635 0.26421 0.0
H163 H 0.99409 0.8042 0.34804 0.0
H164 H 0.03306 0.83296 0.36809 0.0
C165 C 0.02524 0.80281 0.35806 0.0
H166 H 0.02572 0.78048 0.37743 0.0
H167 H 0.91775 0.76462 0.33163 0.0
O168 O 0.11677 0.75294 0.22382 0.0
C169 C 0.98229 0.7716 0.23687 0.0
Co170 Co 0.27276 0.07044 0.49732 0.0
Co171 Co 0.2815 1.00269 0.54793 0.0
C172 C 0.35424 0.04056 0.51409 0.0
O173 O 0.33255 0.06545 0.49853 0.0
O174 O 0.33795 0.01526 0.53291 0.0
C175 C 0.2833 0.14001 0.45662 0.0
O176 O 0.32251 0.13626 0.46224 0.0
C177 C 0.30815 0.99291 0.6114 0.0
C178 C 0.27911 0.93608 0.62759 0.0
C179 C 0.30141 0.96949 0.63787 0.0
N180 N 0.28968 0.97509 0.58682 0.0
N181 N 0.2731 0.94055 0.59642 0.0
C182 C 0.33033 0.03285 0.60972 0.0
H183 H 0.34853 0.03469 0.58796 0.0
H184 H 0.30805 0.05827 0.60942 0.0
H185 H 0.35107 0.03678 0.63007 0.0
C186 C 0.22804 0.11186 0.5491 0.0
N187 N 0.25002 0.08063 0.53723 0.0
N188 N 0.25056 0.05056 0.55756 0.0
C189 C 0.22759 0.06118 0.58257 0.0
C190 C 0.21349 0.10065 0.57845 0.0
C191 C 0.22063 0.15121 0.53233 0.0
H192 H 0.19893 0.14586 0.51278 0.0
H193 H 0.24964 0.16242 0.52209 0.0
H194 H 0.2078 0.17464 0.54831 0.0
O195 O 0.24868 0.0197 0.47939 0.0
O196 O 0.25244 0.97008 0.51491 0.0
H197 H 0.18322 0.04047 0.61624 0.0
H198 H 0.23521 0.03529 0.62815 0.0
C199 C 0.21433 0.03257 0.60792 0.0
H200 H 0.21439 1.00072 0.59929 0.0
H201 H 0.25569 0.92137 0.58221 0.0
O202 O 0.2582 0.11541 0.46915 0.0
C203 C 0.24194 0.98291 0.48772 0.0
Co204 Co 0.94958 0.27579 0.75078 0.0
Co205 Co 0.0191 0.28363 0.79959 0.0
C206 C 0.97919 0.35667 0.76663 0.0
O207 O 0.95242 0.33533 0.75275 0.0
O208 O 1.0063 0.33997 0.78376 0.0
C209 C 0.8761 0.28346 0.71353 0.0
O210 O 0.87555 0.32202 0.72184 0.0
C211 C 0.03015 0.31188 0.8623 0.0
C212 C 0.08599 0.28132 0.879 0.0
C213 C 0.05317 0.30477 0.88896 0.0
N214 N 0.04757 0.2925 0.83799 0.0
N215 N 0.08159 0.27508 0.84786 0.0
C216 C 0.9908 0.33507 0.86012 0.0
H217 H 0.96508 0.31345 0.85724 0.0
H218 H 0.98559 0.35408 0.88127 0.0
H219 H 0.99125 0.35535 0.8394 0.0
C220 C 0.90984 0.23089 0.80317 0.0
N221 N 0.94078 0.25262 0.79068 0.0
N222 N 0.97187 0.25224 0.81008 0.0
C223 C 0.96256 0.22816 0.83477 0.0
C224 C 0.92261 0.2147 0.83164 0.0
C225 C 0.87009 0.2233 0.78697 0.0
H226 H 0.87551 0.20394 0.76603 0.0
H227 H 0.85716 0.2527 0.77877 0.0
H228 H 0.84795 0.20779 0.80261 0.0
O229 O 1.00091 0.25359 0.73125 0.0
O230 O 0.05078 0.25417 0.76682 0.0
H231 H 0.02357 0.21572 0.85053 0.0
H232 H 0.9848 0.18568 0.86965 0.0
C233 C 0.99207 0.21613 0.85992 0.0
H234 H 0.99025 0.23829 0.87938 0.0
H235 H 0.10023 0.25671 0.83393 0.0
O236 O 0.9044 0.26022 0.72329 0.0
C237 C 0.03766 0.24578 0.73933 0.0
Co238 Co 0.74298 0.94626 0.9954 0.0
Co239 Co 0.73616 0.0123 0.04713 0.0
C240 C 0.6622 0.97645 0.01418 0.0
O241 O 0.68345 0.95178 0.99815 0.0
O242 O 0.67902 1.00131 0.03304 0.0
C243 C 0.73389 0.86903 0.96471 0.0
O244 O 0.70947 0.85923 0.98791 0.0
C245 C 0.71099 0.02154 0.11104 0.0
C246 C 0.74019 0.0784 0.12708 0.0
C247 C 0.71794 0.04503 0.13745 0.0
N248 N 0.7293 0.03931 0.08639 0.0
N249 N 0.74599 0.07384 0.0959 0.0
C250 C 0.68859 0.98171 0.10944 0.0
H251 H 0.67026 0.97989 0.08774 0.0
H252 H 0.71075 0.95618 0.10909 0.0
H253 H 0.66795 0.9779 0.12986 0.0
C254 C 0.79104 0.90334 0.04552 0.0
N255 N 0.76785 0.93433 0.03452 0.0
N256 N 0.76705 0.96372 0.05552 0.0
C257 C 0.79066 0.95274 0.08009 0.0
C258 C 0.80563 0.91386 0.07502 0.0
C259 C 0.80009 0.86504 0.0278 0.0
H260 H 0.77218 0.846 0.02692 0.0
H261 H 0.82478 0.8472 0.03916 0.0
H262 H 0.80901 0.8726 0.0034 0.0
O263 O 0.76713 0.99708 0.97786 0.0
O264 O 0.76475 0.04562 0.01429 0.0
H265 H 0.83472 0.97255 0.11442 0.0
H266 H 0.7826 0.9773 0.12607 0.0
C267 C 0.80368 0.98062 0.10603 0.0
H268 H 0.80372 0.0127 0.09794 0.0
H269 H 0.76315 0.09308 0.08157 0.0
O270 O 0.75204 0.90321 0.96448 0.0
C271 C 0.77451 0.03351 0.98676 0.0
H272 H 0.97748 0.60642 0.28246 0.0
H273 H 0.09871 0.61249 0.24288 0.0
H274 H 0.97726 0.53249 0.27491 0.0
H275 H 0.0984 0.53876 0.23557 0.0
H276 H 0.09819 0.40225 0.26274 0.0
H277 H 0.09778 0.47597 0.27023 0.0
H278 H 0.97794 0.48276 0.22856 0.0
H279 H 0.97826 0.40887 0.22083 0.0
C280 C 1.0041 0.59203 0.27226 0.0
C281 C 0.0381 0.6154 0.26327 0.0
C282 C 1.00384 0.54975 0.26777 0.0
C283 C 0.0378 0.52992 0.25463 0.0
C284 C 0.07193 0.5532 0.24596 0.0
C285 C 0.072 0.59546 0.25005 0.0
C286 C 0.07173 0.4194 0.25511 0.0
C287 C 0.03824 0.39963 0.24118 0.0
C288 C 0.07161 0.46165 0.25931 0.0
C289 C 0.03781 0.48507 0.25003 0.0
C290 C 1.00424 0.46539 0.23619 0.0
C291 C 1.00457 0.42314 0.23159 0.0
H292 H 0.60243 0.0094 0.44683 0.0
H293 H 0.61611 0.07107 0.53581 0.0
H294 H 0.52822 0.01045 0.45325 0.0
H295 H 0.54197 0.07117 0.54242 0.0
H296 H 0.41193 0.01171 0.55476 0.0
H297 H 0.48609 0.01227 0.54815 0.0
H298 H 0.47214 0.06961 0.4577 0.0
H299 H 0.39799 0.07 0.46448 0.0
C300 C 0.58964 0.02306 0.46776 0.0
C301 C 0.61512 0.04019 0.4908 0.0
C302 C 0.54722 0.02378 0.47135 0.0
C303 C 0.52954 0.04084 0.49833 0.0
C304 C 0.55494 0.05767 0.52148 0.0
C305 C 0.59729 0.05775 0.5176 0.0
C306 C 0.42466 0.02451 0.53349 0.0
C307 C 0.39912 0.04086 0.51016 0.0
C308 C 0.46705 0.02495 0.5298 0.0
C309 C 0.48467 0.04093 0.50241 0.0
C310 C 0.45922 0.05694 0.47895 0.0
C311 C 0.41686 0.05731 0.48293 0.0
H312 H 0.03847 0.60818 0.72023 0.0
H313 H 0.91832 0.61457 0.76169 0.0
H314 H 0.0388 0.53427 0.72776 0.0
H315 H 0.91872 0.54079 0.76897 0.0
H316 H 0.91858 0.404 0.74176 0.0
H317 H 0.91857 0.47776 0.73423 0.0
H318 H 0.03932 0.48483 0.77428 0.0
H319 H 0.0394 0.41098 0.78207 0.0
C320 C 0.0121 0.59386 0.73084 0.0
C321 C 0.97839 0.61731 0.74039 0.0
C322 C 0.01242 0.55159 0.73531 0.0
C323 C 0.97881 0.53183 0.74898 0.0
C324 C 0.94493 0.55518 0.75818 0.0
C325 C 0.94482 0.59746 0.75412 0.0
C326 C 0.94514 0.42123 0.74901 0.0
C327 C 0.97901 0.40156 0.76252 0.0
C328 C 0.94503 0.46349 0.74481 0.0
C329 C 0.97896 0.48699 0.75362 0.0
C330 C 0.01289 0.4674 0.76702 0.0
C331 C 0.01281 0.42516 0.77164 0.0
H332 H 0.41381 0.00849 0.94749 0.0
H333 H 0.40032 0.94655 0.03634 0.0
H334 H 0.48799 1.00789 0.95407 0.0
H335 H 0.47443 0.94686 0.0431 0.0
H336 H 0.60501 1.00509 0.05543 0.0
H337 H 0.53075 1.00508 0.04907 0.0
H338 H 0.54373 0.94895 0.95808 0.0
H339 H 0.61785 0.94807 0.96457 0.0
C340 C 0.42663 0.99489 0.96844 0.0
C341 C 0.40121 0.97747 0.99135 0.0
C342 C 0.46904 0.99444 0.97212 0.0
C343 C 0.48678 0.97738 0.99909 0.0
C344 C 0.46143 0.96039 0.02217 0.0
C345 C 0.41908 0.96005 0.0182 0.0
C346 C 0.59202 0.9927 0.03409 0.0
C347 C 0.61728 0.97654 0.01051 0.0
C348 C 0.54958 0.99257 0.03054 0.0
C349 C 0.53167 0.9771 0.00307 0.0
C350 C 0.55686 0.96127 0.97939 0.0
C351 C 0.59922 0.9606 0.98321 0.0
H352 H 0.3275 0.18919 0.41713 0.0
H353 H 0.20441 0.16065 0.44613 0.0
H354 H 0.3005 0.23565 0.37719 0.0
H355 H 0.17777 0.20565 0.40625 0.0
H356 H 0.1316 0.2979 0.34464 0.0
H357 H 0.17086 0.2748 0.38984 0.0
H358 H 0.26334 0.22688 0.32757 0.0
H359 H 0.22465 0.25227 0.28238 0.0
C360 C 0.29479 0.19318 0.41522 0.0
C361 C 0.26804 0.17102 0.43453 0.0
C362 C 0.27939 0.21961 0.39232 0.0
C363 C 0.23705 0.22445 0.38861 0.0
C364 C 0.21057 0.20334 0.40881 0.0
C365 C 0.22586 0.17708 0.43151 0.0
C366 C 0.16098 0.28355 0.34083 0.0
C367 C 0.17523 0.27635 0.31039 0.0
C368 C 0.18332 0.27014 0.36658 0.0
C369 C 0.21967 0.24813 0.36222 0.0
C370 C 0.23553 0.24388 0.3317 0.0
C371 C 0.21344 0.25818 0.30586 0.0
H372 H 0.81245 0.15924 0.55183 0.0
H373 H 0.69048 0.19276 0.58076 0.0
H374 H 0.84064 0.19903 0.59472 0.0
H375 H 0.71939 0.23315 0.62401 0.0
H376 H 0.82307 0.32602 0.67575 0.0
H377 H 0.78232 0.29795 0.63235 0.0
H378 H 0.82205 0.17671 0.65698 0.0
H379 H 0.86219 0.20404 0.70002 0.0
C380 C 0.79166 0.17562 0.56704 0.0
C381 C 0.74923 0.17221 0.56338 0.0
C382 C 0.80785 0.19845 0.59147 0.0
C383 C 0.782 0.21846 0.61262 0.0
C384 C 0.7397 0.2178 0.6078 0.0
C385 C 0.72331 0.19471 0.5832 0.0
C386 C 0.82234 0.29333 0.67224 0.0
C387 C 0.84641 0.26725 0.69081 0.0
C388 C 0.79905 0.27742 0.64755 0.0
C389 C 0.79979 0.23544 0.64139 0.0
C390 C 0.82156 0.20929 0.66125 0.0
C391 C 0.84457 0.22499 0.68578 0.0
H392 H 0.72095 0.88662 0.90407 0.0
H393 H 0.76125 0.79072 0.96595 0.0
H394 H 0.74422 0.8476 0.85884 0.0
H395 H 0.78685 0.75221 0.92076 0.0
H396 H 0.82569 0.68924 0.83079 0.0
H397 H 0.77867 0.71661 0.87023 0.0
H398 H 0.81398 0.83899 0.84414 0.0
H399 H 0.85956 0.81205 0.80481 0.0
C400 C 0.73416 0.8567 0.90778 0.0
C401 C 0.73988 0.84157 0.93816 0.0
C402 C 0.74765 0.83447 0.88201 0.0
C403 C 0.7683 0.79734 0.88631 0.0
C404 C 0.77094 0.78066 0.91668 0.0
C405 C 0.75651 0.80264 0.94252 0.0
C406 C 0.82277 0.72198 0.83325 0.0
C407 C 0.84655 0.74852 0.81494 0.0
C408 C 0.79601 0.73758 0.85585 0.0
C409 C 0.79246 0.77992 0.86021 0.0
C410 C 0.81527 0.80624 0.84103 0.0
C411 C 0.84187 0.79076 0.81865 0.0
H412 H 0.32215 0.86076 0.10654 0.0
H413 H 0.22325 0.83455 0.04253 0.0
H414 H 0.29417 0.81157 0.14382 0.0
H415 H 0.19527 0.78605 0.07973 0.0
H416 H 0.15377 0.69405 0.14751 0.0
H417 H 0.20284 0.72198 0.11011 0.0
H418 H 0.23072 0.8193 0.17498 0.0
H419 H 0.18234 0.79135 0.21231 0.0
C420 C 0.29494 0.84396 0.10018 0.0
C421 C 0.27435 0.85208 0.07196 0.0
C422 C 0.27897 0.81587 0.1215 0.0
C423 C 0.24242 0.79528 0.11475 0.0
C424 C 0.22368 0.80116 0.08548 0.0
C425 C 0.23945 0.82935 0.06431 0.0
C426 C 0.17108 0.72088 0.15402 0.0
C427 C 0.16364 0.74108 0.1825 0.0
C428 C 0.19909 0.73682 0.13262 0.0
C429 C 0.22027 0.77296 0.13955 0.0
C430 C 0.21512 0.79122 0.16908 0.0
C431 C 0.18701 0.77547 0.19032 0.0
H432 H 0.92108 0.32897 0.06642 0.0
H433 H 0.04156 0.28495 0.08934 0.0
H434 H 0.94204 0.33692 0.01162 0.0
H435 H 0.06199 0.29124 0.0352 0.0
H436 H 0.09957 0.32948 0.93858 0.0
H437 H 0.07852 0.33526 0.9935 0.0
H438 H 0.9572 0.29528 0.96815 0.0
H439 H 0.97774 0.29116 0.91392 0.0
C440 C 0.952 0.32116 0.05975 0.0
C441 C 0.9798 0.30703 0.08224 0.0
C442 C 0.96404 0.32551 0.02841 0.0
C443 C 1.00389 0.31494 0.01893 0.0
C444 C 0.03149 0.30077 0.04163 0.0
C445 C 0.01962 0.29694 0.07282 0.0
C446 C 0.06832 0.32255 0.94488 0.0
C447 C 0.04024 0.31057 0.92187 0.0
C448 C 0.05623 0.32562 0.97629 0.0
C449 C 0.01602 0.31585 0.98533 0.0
C450 C 0.98804 0.30409 0.96211 0.0
C451 C 0.99998 0.30155 0.93084 0.0
H452 H 0.69099 0.09232 0.18582 0.0
H453 H 0.73238 0.97066 0.1639 0.0
H454 H 0.68326 0.07251 0.24086 0.0
H455 H 0.72624 0.95131 0.21831 0.0
H456 H 0.68818 0.91702 0.31607 0.0
H457 H 0.6825 0.93663 0.26079 0.0
H458 H 0.72575 0.0575 0.28392 0.0
H459 H 0.72989 0.03841 0.33842 0.0
C460 C 0.69825 0.06138 0.19276 0.0
C461 C 0.71162 0.03295 0.17048 0.0
C462 C 0.69403 0.04999 0.22423 0.0
C463 C 0.70399 0.01016 0.23408 0.0
C464 C 0.71725 0.98186 0.2116 0.0
C465 C 0.72095 0.9931 0.18024 0.0
C466 C 0.69591 0.94786 0.30919 0.0
C467 C 0.70874 0.97628 0.33167 0.0
C468 C 0.69288 0.95912 0.27759 0.0
C469 C 0.70346 0.99882 0.26785 0.0
C470 C 0.71625 0.02707 0.29052 0.0
C471 C 0.7188 0.01597 0.32196 0.0
H472 H 0.97431 0.73211 0.58826 0.0
H473 H 0.09458 0.68844 0.56436 0.0
H474 H 0.95353 0.72709 0.53411 0.0
H475 H 0.07323 0.68164 0.50957 0.0
H476 H 0.03783 0.72862 0.41249 0.0
H477 H 0.05822 0.72397 0.46674 0.0
H478 H 0.93652 0.68472 0.49167 0.0
H479 H 0.91561 0.69127 0.43674 0.0
C480 C 0.99613 0.72042 0.57153 0.0
C481 C 0.03602 0.71014 0.58067 0.0
C482 C 0.98404 0.71734 0.54031 0.0
C483 C 0.01149 0.70369 0.51733 0.0
C484 C 0.05135 0.69276 0.52657 0.0
C485 C 0.06362 0.69642 0.55791 0.0
C486 C 0.01543 0.71845 0.42935 0.0
C487 C 0.97514 0.70979 0.42026 0.0
C488 C 0.0273 0.71552 0.46062 0.0
C489 C 0.99922 0.70365 0.48372 0.0
C490 C 0.95891 0.69441 0.47457 0.0
C491 C 0.94689 0.69792 0.44315 0.0
H492 H 0.28684 0.04414 0.66397 0.0
H493 H 0.3279 0.92261 0.68665 0.0
H494 H 0.29178 0.06369 0.71834 0.0
H495 H 0.33474 0.94273 0.74169 0.0
H496 H 0.28747 0.97663 0.83885 0.0
H497 H 0.29246 0.95744 0.78444 0.0
H498 H 0.33355 0.07908 0.76136 0.0
H499 H 0.32663 0.09884 0.8165 0.0
C500 C 0.29796 0.02176 0.68047 0.0
C501 C 0.30746 0.98185 0.67091 0.0
C502 C 0.30102 0.03314 0.71184 0.0
C503 C 0.3139 1.00498 0.73457 0.0
C504 C 0.32418 0.96514 0.72491 0.0
C505 C 0.32051 0.95358 0.69342 0.0
C506 C 0.29813 0.99928 0.8224 0.0
C507 C 0.30715 0.03923 0.83208 0.0
C508 C 0.30125 0.98809 0.791 0.0
C509 C 0.31373 0.0165 0.76834 0.0
C510 C 0.32337 0.05646 0.77809 0.0
C511 C 0.31964 0.06781 0.80963 0.0
H512 H 0.08219 0.13138 0.15922 0.0
H513 H 0.165 0.23058 0.14116 0.0
H514 H 0.11758 0.08955 0.12031 0.0
H515 H 0.20131 0.18859 0.10251 0.0
H516 H 0.21519 0.01208 0.07373 0.0
H517 H 0.18193 0.05494 0.11243 0.0
H518 H 0.19148 0.15815 0.05001 0.0
H519 H 0.22559 0.11511 0.01105 0.0
C520 C 0.10815 0.14408 0.14692 0.0
C521 C 0.12076 0.18417 0.15289 0.0
C522 C 0.12863 0.12012 0.12478 0.0
C523 C 0.16228 0.13571 0.10812 0.0
C524 C 0.1752 0.17579 0.11454 0.0
C525 C 0.15474 0.19969 0.13684 0.0
C526 C 0.21031 0.0439 0.06807 0.0
C527 C 0.22309 0.06 0.03907 0.0
C528 C 0.19096 0.06849 0.09033 0.0
C529 C 0.18379 0.11 0.08437 0.0
C530 C 0.19683 0.12636 0.0555 0.0
C531 C 0.21617 0.10162 0.03307 0.0
H532 H 0.90014 0.22281 0.25915 0.0
H533 H 1.00125 0.21644 0.32408 0.0
H534 H 0.85672 0.18826 0.29753 0.0
H535 H 0.95793 0.18269 0.36225 0.0
H536 H 0.78177 0.16163 0.38729 0.0
H537 H 0.82416 0.19822 0.34912 0.0
H538 H 0.92477 0.11746 0.37 0.0
H539 H 0.88249 0.08178 0.40846 0.0
C540 C 0.91311 0.21421 0.28157 0.0
C541 C 0.95431 0.22237 0.28837 0.0
C542 C 0.88814 0.19461 0.30365 0.0
C543 C 0.90385 0.18251 0.33298 0.0
C544 C 0.94493 0.19096 0.33977 0.0
C545 C 0.96976 0.21061 0.31784 0.0
C546 C 0.81307 0.15206 0.38372 0.0
C547 C 0.82896 0.11891 0.40058 0.0
C548 C 0.83721 0.17268 0.36172 0.0
C549 C 0.87788 0.16073 0.35635 0.0
C550 C 0.89376 0.12777 0.37369 0.0
C551 C 0.86955 0.10713 0.39555 0.0
H552 H 0.79095 0.9 0.50994 0.0
H553 H 0.79858 1.00247 0.57342 0.0
H554 H 0.82529 0.85715 0.54888 0.0
H555 H 0.83201 0.95976 0.61214 0.0
H556 H 0.93281 0.88488 0.65913 0.0
H557 H 0.8968 0.9265 0.62042 0.0
H558 H 0.81594 0.82563 0.6008 0.0
H559 H 0.85292 0.78387 0.63923 0.0
C560 C 0.79977 0.91339 0.53215 0.0
C561 C 0.79206 0.95483 0.53836 0.0
C562 C 0.81924 0.88875 0.55458 0.0
C563 C 0.83162 0.905 0.58366 0.0
C564 C 0.82355 0.9463 0.58987 0.0
C565 C 0.80409 0.9708 0.5676 0.0
C566 C 0.90729 0.87177 0.64651 0.0
C567 C 0.89565 0.83126 0.65194 0.0
C568 C 0.88647 0.89559 0.62447 0.0
C569 C 0.85344 0.87944 0.60736 0.0
C570 C 0.84153 0.83891 0.61321 0.0
C571 C 0.86236 0.81512 0.63538 0.0
H572 H 0.09906 0.82682 0.75257 0.0
H573 H 0.03732 0.76311 0.82718 0.0
H574 H 0.14168 0.86166 0.79095 0.0
H575 H 0.08169 0.79517 0.86554 0.0
H576 H 0.13886 0.88709 0.93158 0.0
H577 H 0.09618 0.85251 0.89299 0.0
H578 H 0.19447 0.86013 0.82536 0.0
H579 H 0.23528 0.89751 0.86351 0.0
C580 C 0.09516 0.81974 0.77721 0.0
C581 C 0.06473 0.79241 0.78685 0.0
C582 C 0.11983 0.83952 0.79937 0.0
C583 C 0.11548 0.83162 0.83178 0.0
C584 C 0.08558 0.80324 0.84112 0.0
C585 C 0.06025 0.7844 0.81903 0.0
C586 C 0.15108 0.88113 0.90842 0.0
C587 C 0.19022 0.89469 0.90043 0.0
C588 C 0.12681 0.86101 0.88622 0.0
C589 C 0.14153 0.85307 0.85566 0.0
C590 C 0.18131 0.86622 0.84815 0.0
C591 C 0.20506 0.88727 0.87012 0.0
H592 H 0.16093 0.78201 0.36628 0.0
H593 H 0.08136 0.88273 0.34463 0.0
H594 H 0.19729 0.8244 0.40465 0.0
H595 H 0.11672 0.92497 0.38326 0.0
H596 H 0.22228 0.90142 0.49432 0.0
H597 H 0.18778 0.85747 0.45614 0.0
H598 H 0.18163 0.95806 0.39097 0.0
H599 H 0.21515 1.0018 0.42886 0.0
C600 C 0.15138 0.8133 0.36978 0.0
C601 C 0.1184 0.82922 0.3527 0.0
C602 C 0.17186 0.83745 0.3919 0.0
C603 C 0.15991 0.87812 0.39718 0.0
C604 C 0.12708 0.89397 0.37965 0.0
C605 C 0.10662 0.86979 0.35766 0.0
C606 C 0.21352 0.91411 0.47186 0.0
C607 C 0.22142 0.95529 0.46486 0.0
C608 C 0.19395 0.88886 0.44988 0.0
C609 C 0.18169 0.90425 0.42049 0.0
C610 C 0.18995 0.94528 0.41351 0.0
C611 C 0.20948 0.97037 0.43531 0.0
H612 H 0.13669 0.13115 0.57064 0.0
H613 H 0.23511 0.12307 0.63725 0.0
H614 H 0.09461 0.16585 0.60958 0.0
H615 H 0.19486 0.16054 0.67568 0.0
H616 H 0.10109 0.19308 0.74983 0.0
H617 H 0.14311 0.15849 0.71095 0.0
H618 H 0.07979 0.22319 0.63698 0.0
H619 H 0.03606 0.255 0.6759 0.0
C620 C 0.14949 0.13769 0.59353 0.0
C621 C 0.18901 0.12471 0.60103 0.0
C622 C 0.12555 0.15786 0.61593 0.0
C623 C 0.14097 0.16641 0.6462 0.0
C624 C 0.18116 0.15395 0.65316 0.0
C625 C 0.20459 0.13287 0.63101 0.0
C626 C 0.09631 0.19981 0.72522 0.0
C627 C 0.06515 0.22658 0.71594 0.0
C628 C 0.12065 0.18019 0.70276 0.0
C629 C 0.11522 0.18767 0.67038 0.0
C630 C 0.08455 0.21546 0.66138 0.0
C631 C 0.05957 0.23415 0.68378 0.0
H632 H 0.85643 0.23539 0.86672 0.0
H633 H 0.93698 0.13516 0.84586 0.0
H634 H 0.81976 0.19277 0.90475 0.0
H635 H 0.90118 0.09266 0.88408 0.0
H636 H 0.79422 0.1149 0.99414 0.0
H637 H 0.82914 0.15929 0.9565 0.0
H638 H 0.83564 0.05956 0.89056 0.0
H639 H 0.8016 0.01542 0.92786 0.0
C640 C 0.86613 0.20416 0.87032 0.0
C641 C 0.89945 0.18842 0.85356 0.0
C642 C 0.84546 0.17989 0.89225 0.0
C643 C 0.85754 0.13928 0.89758 0.0
C644 C 0.89075 0.12363 0.8804 0.0
C645 C 0.91143 0.14794 0.85864 0.0
C646 C 0.80313 0.10249 0.97162 0.0
C647 C 0.79516 0.06145 0.96422 0.0
C648 C 0.82294 0.12799 0.94996 0.0
C649 C 0.83544 0.11294 0.92053 0.0
C650 C 0.82711 0.07205 0.91315 0.0
C651 C 0.80728 0.04674 0.93461 0.0
H652 H 0.98926 0.76749 0.17318 0.0
H653 H 0.91453 0.81904 0.24644 0.0
H654 H 0.94581 0.79864 0.13369 0.0
H655 H 0.87236 0.8526 0.2071 0.0
H656 H 0.78187 0.88298 0.13087 0.0
H657 H 0.82302 0.84642 0.16936 0.0
H658 H 0.9281 0.85778 0.10849 0.0
H659 H 0.88561 0.89188 0.06937 0.0
C660 C 0.96369 0.7859 0.18085 0.0
C661 C 0.95535 0.79074 0.21299 0.0
C662 C 0.93882 0.80414 0.15813 0.0
C663 C 0.90532 0.82857 0.16684 0.0
C664 C 0.89717 0.83344 0.19915 0.0
C665 C 0.92157 0.81441 0.22187 0.0
C666 C 0.81367 0.87692 0.12571 0.0
C667 C 0.83058 0.88957 0.09713 0.0
C668 C 0.83754 0.85645 0.14792 0.0
C669 C 0.87931 0.84904 0.14245 0.0
C670 C 0.89603 0.86193 0.11357 0.0
C671 C 0.87183 0.88168 0.09108 0.0
loop_
_geom_bond_atom_site_label_1
_geom_bond_atom_site_label_2
_geom_bond_distance
_geom_bond_site_symmetry_2
_ccdc_geom_bond_type
Co0 O3 1.970 . S
Co0 N17 1.989 . S
Co0 O25 1.967 . S
Co0 O32 1.920 . S
Co1 O4 1.966 . S
Co1 N10 2.022 . S
Co1 N18 1.993 . S
Co1 O26 1.941 . S
C2 O3 1.258 . S
C2 O4 1.263 . S
O3 Co0 1.970 . S
O3 C2 1.258 . S
O4 Co1 1.966 . S
O4 C2 1.263 . S
C5 O6 1.235 . S
C5 O32 1.289 . S
O6 C5 1.235 . S
C7 C9 1.400 . S
C7 N10 1.351 . S
C7 C12 1.501 . S
C8 C9 1.387 . S
C8 N11 1.341 . S
C9 C7 1.400 . S
C9 C8 1.387 . S
N10 Co1 2.022 . S
N10 C7 1.351 . S
N10 N11 1.365 . S
N11 C8 1.341 . S
N11 N10 1.365 . S
N11 H31 0.862 . S
C12 C7 1.501 . S
C12 H13 0.961 . S
C12 H14 0.961 . S
C12 H15 0.960 . S
H13 C12 0.961 . S
H14 C12 0.961 . S
H15 C12 0.960 . S
C16 N17 1.342 . S
C16 C20 1.401 . S
C16 C21 1.499 . S
N17 Co0 1.989 . S
N17 C16 1.342 . S
N17 N18 1.388 . S
N18 Co1 1.993 . S
N18 N17 1.388 . S
N18 C19 1.346 . S
C19 N18 1.346 . S
C19 C20 1.396 . S
C19 C29 1.510 . S
C20 C16 1.401 . S
C20 C19 1.396 . S
C21 C16 1.499 . S
C21 H22 0.959 . S
C21 H23 0.960 . S
C21 H24 0.961 . S
H22 C21 0.959 . S
H23 C21 0.960 . S
H24 C21 0.961 . S
O25 Co0 1.967 . S
O25 C33 1.258 . S
O26 Co1 1.941 . S
O26 C33 1.266 . S
H27 C29 0.959 . S
H28 C29 0.961 . S
C29 C19 1.510 . S
C29 H27 0.959 . S
C29 H28 0.961 . S
C29 H30 0.960 . S
H30 C29 0.960 . S
H31 N11 0.862 . S
O32 Co0 1.920 . S
O32 C5 1.289 . S
C33 O25 1.258 . S
C33 O26 1.266 . S
Co34 O37 1.970 . S
Co34 N51 1.989 . S
Co34 O59 1.967 . S
Co34 O66 1.920 . S
Co35 O38 1.966 . S
Co35 N44 2.022 . S
Co35 N52 1.993 . S
Co35 O60 1.941 . S
C36 O37 1.258 . S
C36 O38 1.263 . S
O37 Co34 1.970 . S
O37 C36 1.258 . S
O38 Co35 1.966 . S
O38 C36 1.263 . S
C39 O40 1.235 . S
C39 O66 1.289 . S
O40 C39 1.235 . S
C41 C43 1.400 . S
C41 N44 1.351 . S
C41 C46 1.501 . S
C42 C43 1.387 . S
C42 N45 1.341 . S
C43 C41 1.400 . S
C43 C42 1.387 . S
N44 Co35 2.022 . S
N44 C41 1.351 . S
N44 N45 1.365 . S
N45 C42 1.341 . S
N45 N44 1.365 . S
N45 H65 0.862 . S
C46 C41 1.501 . S
C46 H47 0.961 . S
C46 H48 0.961 . S
C46 H49 0.960 . S
H47 C46 0.961 . S
H48 C46 0.961 . S
H49 C46 0.960 . S
C50 N51 1.342 . S
C50 C54 1.401 . S
C50 C55 1.499 . S
N51 Co34 1.989 . S
N51 C50 1.342 . S
N51 N52 1.388 . S
N52 Co35 1.993 . S
N52 N51 1.388 . S
N52 C53 1.346 . S
C53 N52 1.346 . S
C53 C54 1.396 . S
C53 C63 1.510 . S
C54 C50 1.401 . S
C54 C53 1.396 . S
C55 C50 1.499 . S
C55 H56 0.959 . S
C55 H57 0.960 . S
C55 H58 0.961 . S
H56 C55 0.959 . S
H57 C55 0.960 . S
H58 C55 0.961 . S
O59 Co34 1.967 . S
O59 C67 1.258 . S
O60 Co35 1.941 . S
O60 C67 1.266 . S
H61 C63 0.959 . S
H62 C63 0.961 . S
C63 C53 1.510 . S
C63 H61 0.959 . S
C63 H62 0.961 . S
C63 H64 0.960 . S
H64 C63 0.960 . S
H65 N45 0.862 . S
O66 Co34 1.920 . S
O66 C39 1.289 . S
C67 O59 1.258 . S
C67 O60 1.266 . S
Co68 O71 1.970 . S
Co68 N85 1.989 . S
Co68 O93 1.967 . S
Co68 O100 1.920 . S
Co69 O72 1.966 . S
Co69 N78 2.022 . S
Co69 N86 1.993 . S
Co69 O94 1.941 . S
C70 O71 1.258 . S
C70 O72 1.263 . S
O71 Co68 1.970 . S
O71 C70 1.258 . S
O72 Co69 1.966 . S
O72 C70 1.263 . S
C73 O74 1.235 . S
C73 O100 1.289 . S
O74 C73 1.235 . S
C75 C77 1.400 . S
C75 N78 1.351 . S
C75 C80 1.501 . S
C76 C77 1.387 . S
C76 N79 1.341 . S
C77 C75 1.400 . S
C77 C76 1.387 . S
N78 Co69 2.022 . S
N78 C75 1.351 . S
N78 N79 1.365 . S
N79 C76 1.341 . S
N79 N78 1.365 . S
N79 H99 0.862 . S
C80 C75 1.501 . S
C80 H81 0.961 . S
C80 H82 0.961 . S
C80 H83 0.960 . S
H81 C80 0.961 . S
H82 C80 0.961 . S
H83 C80 0.960 . S
C84 N85 1.342 . S
C84 C88 1.401 . S
C84 C89 1.499 . S
N85 Co68 1.989 . S
N85 C84 1.342 . S
N85 N86 1.388 . S
N86 Co69 1.993 . S
N86 N85 1.388 . S
N86 C87 1.346 . S
C87 N86 1.346 . S
C87 C88 1.396 . S
C87 C97 1.510 . S
C88 C84 1.401 . S
C88 C87 1.396 . S
C89 C84 1.499 . S
C89 H90 0.959 . S
C89 H91 0.960 . S
C89 H92 0.961 . S
H90 C89 0.959 . S
H91 C89 0.960 . S
H92 C89 0.961 . S
O93 Co68 1.967 . S
O93 C101 1.258 . S
O94 Co69 1.941 . S
O94 C101 1.266 . S
H95 C97 0.959 . S
H96 C97 0.961 . S
C97 C87 1.510 . S
C97 H95 0.959 . S
C97 H96 0.961 . S
C97 H98 0.960 . S
H98 C97 0.960 . S
H99 N79 0.862 . S
O100 Co68 1.920 . S
O100 C73 1.289 . S
C101 O93 1.258 . S
C101 O94 1.266 . S
Co102 O105 1.970 . S
Co102 N119 1.989 . S
Co102 O127 1.967 1_556 S
Co102 O134 1.920 1_556 S
Co103 O106 1.966 . S
Co103 N112 2.022 . S
Co103 N120 1.993 . S
Co103 O128 1.941 . S
C104 O105 1.258 . S
C104 O106 1.263 . S
O105 Co102 1.970 . S
O105 C104 1.258 . S
O106 Co103 1.966 . S
O106 C104 1.263 . S
C107 O108 1.235 . S
C107 O134 1.289 . S
O108 C107 1.235 . S
C109 C111 1.400 . S
C109 N112 1.351 . S
C109 C114 1.501 . S
C110 C111 1.387 . S
C110 N113 1.341 . S
C111 C109 1.400 . S
C111 C110 1.387 . S
N112 Co103 2.022 . S
N112 C109 1.351 . S
N112 N113 1.365 . S
N113 C110 1.341 . S
N113 N112 1.365 . S
N113 H133 0.862 . S
C114 C109 1.501 . S
C114 H115 0.961 . S
C114 H116 0.961 . S
C114 H117 0.960 . S
H115 C114 0.961 . S
H116 C114 0.961 . S
H117 C114 0.960 . S
C118 N119 1.342 . S
C118 C122 1.401 . S
C118 C123 1.499 . S
N119 Co102 1.989 . S
N119 C118 1.342 . S
N119 N120 1.388 . S
N120 Co103 1.993 . S
N120 N119 1.388 . S
N120 C121 1.346 . S
C121 N120 1.346 . S
C121 C122 1.396 . S
C121 C131 1.510 . S
C122 C118 1.401 . S
C122 C121 1.396 . S
C123 C118 1.499 . S
C123 H124 0.959 . S
C123 H125 0.960 . S
C123 H126 0.961 . S
H124 C123 0.959 . S
H125 C123 0.960 . S
H126 C123 0.961 . S
O127 Co102 1.967 1_554 S
O127 C135 1.258 1_554 S
O128 Co103 1.941 . S
O128 C135 1.266 . S
H129 C131 0.959 . S
H130 C131 0.961 . S
C131 C121 1.510 . S
C131 H129 0.959 . S
C131 H130 0.961 . S
C131 H132 0.960 . S
H132 C131 0.960 . S
H133 N113 0.862 . S
O134 Co102 1.920 1_554 S
O134 C107 1.289 . S
C135 O127 1.258 1_556 S
C135 O128 1.266 . S
Co136 O139 1.970 . S
Co136 N153 1.989 . S
Co136 O161 1.967 . S
Co136 O168 1.920 . S
Co137 O140 1.966 . S
Co137 N146 2.022 . S
Co137 N154 1.993 . S
Co137 O162 1.941 . S
C138 O139 1.258 . S
C138 O140 1.263 . S
O139 Co136 1.970 . S
O139 C138 1.258 . S
O140 Co137 1.966 . S
O140 C138 1.263 . S
C141 O142 1.235 . S
C141 O168 1.289 . S
O142 C141 1.235 . S
C143 C145 1.400 . S
C143 N146 1.351 . S
C143 C148 1.501 . S
C144 C145 1.387 . S
C144 N147 1.341 . S
C145 C143 1.400 . S
C145 C144 1.387 . S
N146 Co137 2.022 . S
N146 C143 1.351 . S
N146 N147 1.365 . S
N147 C144 1.341 . S
N147 N146 1.365 . S
N147 H167 0.862 . S
C148 C143 1.501 . S
C148 H149 0.961 . S
C148 H150 0.961 . S
C148 H151 0.960 . S
H149 C148 0.961 . S
H150 C148 0.961 . S
H151 C148 0.960 . S
C152 N153 1.342 . S
C152 C156 1.401 . S
C152 C157 1.499 . S
N153 Co136 1.989 . S
N153 C152 1.342 . S
N153 N154 1.388 . S
N154 Co137 1.993 . S
N154 N153 1.388 . S
N154 C155 1.346 . S
C155 N154 1.346 . S
C155 C156 1.396 . S
C155 C165 1.510 . S
C156 C152 1.401 . S
C156 C155 1.396 . S
C157 C152 1.499 . S
C157 H158 0.959 . S
C157 H159 0.960 . S
C157 H160 0.961 . S
H158 C157 0.959 . S
H159 C157 0.960 . S
H160 C157 0.961 . S
O161 Co136 1.967 . S
O161 C169 1.258 . S
O162 Co137 1.941 . S
O162 C169 1.266 . S
H163 C165 0.959 . S
H164 C165 0.961 . S
C165 C155 1.510 . S
C165 H163 0.959 . S
C165 H164 0.961 . S
C165 H166 0.960 . S
H166 C165 0.960 . S
H167 N147 0.862 . S
O168 Co136 1.920 . S
O168 C141 1.289 . S
C169 O161 1.258 . S
C169 O162 1.266 . S
Co170 O173 1.970 . S
Co170 N187 1.989 . S
Co170 O195 1.967 . S
Co170 O202 1.920 . S
Co171 O174 1.966 . S
Co171 N180 2.022 . S
Co171 N188 1.993 . S
Co171 O196 1.941 . S
C172 O173 1.258 . S
C172 O174 1.263 . S
O173 Co170 1.970 . S
O173 C172 1.258 . S
O174 Co171 1.966 . S
O174 C172 1.263 . S
C175 O176 1.235 . S
C175 O202 1.289 . S
O176 C175 1.235 . S
C177 C179 1.400 . S
C177 N180 1.351 . S
C177 C182 1.501 . S
C178 C179 1.387 . S
C178 N181 1.341 . S
C179 C177 1.400 . S
C179 C178 1.387 . S
N180 Co171 2.022 . S
N180 C177 1.351 . S
N180 N181 1.365 . S
N181 C178 1.341 . S
N181 N180 1.365 . S
N181 H201 0.862 . S
C182 C177 1.501 . S
C182 H183 0.961 . S
C182 H184 0.961 . S
C182 H185 0.960 . S
H183 C182 0.961 . S
H184 C182 0.961 . S
H185 C182 0.960 . S
C186 N187 1.342 . S
C186 C190 1.401 . S
C186 C191 1.499 . S
N187 Co170 1.989 . S
N187 C186 1.342 . S
N187 N188 1.388 . S
N188 Co171 1.993 . S
N188 N187 1.388 . S
N188 C189 1.346 . S
C189 N188 1.346 . S
C189 C190 1.396 . S
C189 C199 1.510 . S
C190 C186 1.401 . S
C190 C189 1.396 . S
C191 C186 1.499 . S
C191 H192 0.959 . S
C191 H193 0.960 . S
C191 H194 0.961 . S
H192 C191 0.959 . S
H193 C191 0.960 . S
H194 C191 0.961 . S
O195 Co170 1.967 . S
O195 C203 1.258 . S
O196 Co171 1.941 . S
O196 C203 1.266 . S
H197 C199 0.959 . S
H198 C199 0.961 . S
C199 C189 1.510 . S
C199 H197 0.959 . S
C199 H198 0.961 . S
C199 H200 0.960 . S
H200 C199 0.960 . S
H201 N181 0.862 . S
O202 Co170 1.920 . S
O202 C175 1.289 . S
C203 O195 1.258 . S
C203 O196 1.266 . S
Co204 O207 1.970 . S
Co204 N221 1.989 . S
Co204 O229 1.967 . S
Co204 O236 1.920 . S
Co205 O208 1.966 . S
Co205 N214 2.022 . S
Co205 N222 1.993 . S
Co205 O230 1.941 . S
C206 O207 1.258 . S
C206 O208 1.263 . S
O207 Co204 1.970 . S
O207 C206 1.258 . S
O208 Co205 1.966 . S
O208 C206 1.263 . S
C209 O210 1.235 . S
C209 O236 1.289 . S
O210 C209 1.235 . S
C211 C213 1.400 . S
C211 N214 1.351 . S
C211 C216 1.501 . S
C212 C213 1.387 . S
C212 N215 1.341 . S
C213 C211 1.400 . S
C213 C212 1.387 . S
N214 Co205 2.022 . S
N214 C211 1.351 . S
N214 N215 1.365 . S
N215 C212 1.341 . S
N215 N214 1.365 . S
N215 H235 0.862 . S
C216 C211 1.501 . S
C216 H217 0.961 . S
C216 H218 0.961 . S
C216 H219 0.960 . S
H217 C216 0.961 . S
H218 C216 0.961 . S
H219 C216 0.960 . S
C220 N221 1.342 . S
C220 C224 1.401 . S
C220 C225 1.499 . S
N221 Co204 1.989 . S
N221 C220 1.342 . S
N221 N222 1.388 . S
N222 Co205 1.993 . S
N222 N221 1.388 . S
N222 C223 1.346 . S
C223 N222 1.346 . S
C223 C224 1.396 . S
C223 C233 1.510 . S
C224 C220 1.401 . S
C224 C223 1.396 . S
C225 C220 1.499 . S
C225 H226 0.959 . S
C225 H227 0.960 . S
C225 H228 0.961 . S
H226 C225 0.959 . S
H227 C225 0.960 . S
H228 C225 0.961 . S
O229 Co204 1.967 . S
O229 C237 1.258 . S
O230 Co205 1.941 . S
O230 C237 1.266 . S
H231 C233 0.959 . S
H232 C233 0.961 . S
C233 C223 1.510 . S
C233 H231 0.959 . S
C233 H232 0.961 . S
C233 H234 0.960 . S
H234 C233 0.960 . S
H235 N215 0.862 . S
O236 Co204 1.920 . S
O236 C209 1.289 . S
C237 O229 1.258 . S
C237 O230 1.266 . S
Co238 O241 1.970 . S
Co238 N255 1.989 . S
Co238 O263 1.967 1_554 S
Co238 O270 1.920 1_554 S
Co239 O242 1.966 . S
Co239 N248 2.022 . S
Co239 N256 1.993 . S
Co239 O264 1.941 . S
C240 O241 1.258 . S
C240 O242 1.263 . S
O241 Co238 1.970 . S
O241 C240 1.258 . S
O242 Co239 1.966 . S
O242 C240 1.263 . S
C243 O244 1.235 . S
C243 O270 1.289 . S
O244 C243 1.235 . S
C245 C247 1.400 . S
C245 N248 1.351 . S
C245 C250 1.501 . S
C246 C247 1.387 . S
C246 N249 1.341 . S
C247 C245 1.400 . S
C247 C246 1.387 . S
N248 Co239 2.022 . S
N248 C245 1.351 . S
N248 N249 1.365 . S
N249 C246 1.341 . S
N249 N248 1.365 . S
N249 H269 0.862 . S
C250 C245 1.501 . S
C250 H251 0.961 . S
C250 H252 0.961 . S
C250 H253 0.960 . S
H251 C250 0.961 . S
H252 C250 0.961 . S
H253 C250 0.960 . S
C254 N255 1.342 . S
C254 C258 1.401 . S
C254 C259 1.499 . S
N255 Co238 1.989 . S
N255 C254 1.342 . S
N255 N256 1.388 . S
N256 Co239 1.993 . S
N256 N255 1.388 . S
N256 C257 1.346 . S
C257 N256 1.346 . S
C257 C258 1.396 . S
C257 C267 1.510 . S
C258 C254 1.401 . S
C258 C257 1.396 . S
C259 C254 1.499 . S
C259 H260 0.959 . S
C259 H261 0.960 . S
C259 H262 0.961 . S
H260 C259 0.959 . S
H261 C259 0.960 . S
H262 C259 0.961 . S
O263 Co238 1.967 1_556 S
O263 C271 1.258 1_556 S
O264 Co239 1.941 . S
O264 C271 1.266 . S
H265 C267 0.959 . S
H266 C267 0.961 . S
C267 C257 1.510 . S
C267 H265 0.959 . S
C267 H266 0.961 . S
C267 H268 0.960 . S
H268 C267 0.960 . S
H269 N249 0.862 . S
O270 Co238 1.920 1_556 S
O270 C243 1.289 . S
C271 O263 1.258 1_554 S
C271 O264 1.266 . S
H272 C280 0.950 . S
H273 C285 0.950 . S
H274 C282 0.950 . S
H275 C284 0.950 . S
H276 C286 0.950 . S
H277 C288 0.950 . S
H278 C290 0.950 . S
H279 C291 0.950 . S
C280 H272 0.950 . S
C280 C281 1.386 . S
C280 C282 1.391 . S
C281 C280 1.386 . S
C281 C285 1.393 . S
C282 H274 0.950 . S
C282 C280 1.391 . S
C282 C283 1.400 . S
C283 C282 1.400 . S
C283 C284 1.398 . S
C283 C289 1.491 . S
C284 H275 0.950 . S
C284 C283 1.398 . S
C284 C285 1.391 . S
C285 H273 0.950 . S
C285 C281 1.393 . S
C285 C284 1.391 . S
C286 H276 0.950 . S
C286 C287 1.386 . S
C286 C288 1.391 . S
C287 C286 1.386 . S
C287 C291 1.393 . S
C288 H277 0.950 . S
C288 C286 1.391 . S
C288 C289 1.400 . S
C289 C283 1.491 . S
C289 C288 1.400 . S
C289 C290 1.398 . S
C290 H278 0.950 . S
C290 C289 1.398 . S
C290 C291 1.391 . S
C291 H279 0.950 . S
C291 C287 1.393 . S
C291 C290 1.391 . S
H292 C300 0.950 . S
H293 C305 0.950 . S
H294 C302 0.950 . S
H295 C304 0.950 . S
H296 C306 0.950 . S
H297 C308 0.950 . S
H298 C310 0.950 . S
H299 C311 0.950 . S
C300 H292 0.950 . S
C300 C301 1.386 . S
C300 C302 1.391 . S
C301 C300 1.386 . S
C301 C305 1.393 . S
C302 H294 0.950 . S
C302 C300 1.391 . S
C302 C303 1.400 . S
C303 C302 1.400 . S
C303 C304 1.398 . S
C303 C309 1.491 . S
C304 H295 0.950 . S
C304 C303 1.398 . S
C304 C305 1.391 . S
C305 H293 0.950 . S
C305 C301 1.393 . S
C305 C304 1.391 . S
C306 H296 0.950 . S
C306 C307 1.386 . S
C306 C308 1.391 . S
C307 C306 1.386 . S
C307 C311 1.393 . S
C308 H297 0.950 . S
C308 C306 1.391 . S
C308 C309 1.400 . S
C309 C303 1.491 . S
C309 C308 1.400 . S
C309 C310 1.398 . S
C310 H298 0.950 . S
C310 C309 1.398 . S
C310 C311 1.391 . S
C311 H299 0.950 . S
C311 C307 1.393 . S
C311 C310 1.391 . S
H312 C320 0.950 . S
H313 C325 0.950 . S
H314 C322 0.950 . S
H315 C324 0.950 . S
H316 C326 0.950 . S
H317 C328 0.950 . S
H318 C330 0.950 . S
H319 C331 0.950 . S
C320 H312 0.950 . S
C320 C321 1.386 . S
C320 C322 1.391 . S
C321 C320 1.386 . S
C321 C325 1.393 . S
C322 H314 0.950 . S
C322 C320 1.391 . S
C322 C323 1.400 . S
C323 C322 1.400 . S
C323 C324 1.398 . S
C323 C329 1.491 . S
C324 H315 0.950 . S
C324 C323 1.398 . S
C324 C325 1.391 . S
C325 H313 0.950 . S
C325 C321 1.393 . S
C325 C324 1.391 . S
C326 H316 0.950 . S
C326 C327 1.386 . S
C326 C328 1.391 . S
C327 C326 1.386 . S
C327 C331 1.393 . S
C328 H317 0.950 . S
C328 C326 1.391 . S
C328 C329 1.400 . S
C329 C323 1.491 . S
C329 C328 1.400 . S
C329 C330 1.398 . S
C330 H318 0.950 . S
C330 C329 1.398 . S
C330 C331 1.391 . S
C331 H319 0.950 . S
C331 C327 1.393 . S
C331 C330 1.391 . S
H332 C340 0.950 . S
H333 C345 0.950 . S
H334 C342 0.950 . S
H335 C344 0.950 . S
H336 C346 0.950 . S
H337 C348 0.950 . S
H338 C350 0.950 . S
H339 C351 0.950 . S
C340 H332 0.950 . S
C340 C341 1.386 . S
C340 C342 1.391 . S
C341 C340 1.386 . S
C341 C345 1.393 1_556 S
C342 H334 0.950 . S
C342 C340 1.391 . S
C342 C343 1.400 . S
C343 C342 1.400 . S
C343 C344 1.398 1_556 S
C343 C349 1.491 1_556 S
C344 H335 0.950 . S
C344 C343 1.398 1_554 S
C344 C345 1.391 . S
C345 H333 0.950 . S
C345 C341 1.393 1_554 S
C345 C344 1.391 . S
C346 H336 0.950 . S
C346 C347 1.386 . S
C346 C348 1.391 . S
C347 C346 1.386 . S
C347 C351 1.393 1_554 S
C348 H337 0.950 . S
C348 C346 1.391 . S
C348 C349 1.400 . S
C349 C343 1.491 1_554 S
C349 C348 1.400 . S
C349 C350 1.398 1_554 S
C350 H338 0.950 . S
C350 C349 1.398 1_556 S
C350 C351 1.391 . S
C351 H339 0.950 . S
C351 C347 1.393 1_556 S
C351 C350 1.391 . S
H352 C360 0.950 . S
H353 C365 0.950 . S
H354 C362 0.950 . S
H355 C364 0.950 . S
H356 C366 0.950 . S
H357 C368 0.950 . S
H358 C370 0.950 . S
H359 C371 0.950 . S
C360 H352 0.950 . S
C360 C361 1.386 . S
C360 C362 1.391 . S
C361 C360 1.386 . S
C361 C365 1.393 . S
C362 H354 0.950 . S
C362 C360 1.391 . S
C362 C363 1.400 . S
C363 C362 1.400 . S
C363 C364 1.398 . S
C363 C369 1.491 . S
C364 H355 0.950 . S
C364 C363 1.398 . S
C364 C365 1.391 . S
C365 H353 0.950 . S
C365 C361 1.393 . S
C365 C364 1.391 . S
C366 H356 0.950 . S
C366 C367 1.386 . S
C366 C368 1.391 . S
C367 C366 1.386 . S
C367 C371 1.393 . S
C368 H357 0.950 . S
C368 C366 1.391 . S
C368 C369 1.400 . S
C369 C363 1.491 . S
C369 C368 1.400 . S
C369 C370 1.398 . S
C370 H358 0.950 . S
C370 C369 1.398 . S
C370 C371 1.391 . S
C371 H359 0.950 . S
C371 C367 1.393 . S
C371 C370 1.391 . S
H372 C380 0.950 . S
H373 C385 0.950 . S
H374 C382 0.950 . S
H375 C384 0.950 . S
H376 C386 0.950 . S
H377 C388 0.950 . S
H378 C390 0.950 . S
H379 C391 0.950 . S
C380 H372 0.950 . S
C380 C381 1.386 . S
C380 C382 1.391 . S
C381 C380 1.386 . S
C381 C385 1.393 . S
C382 H374 0.950 . S
C382 C380 1.391 . S
C382 C383 1.400 . S
C383 C382 1.400 . S
C383 C384 1.398 . S
C383 C389 1.491 . S
C384 H375 0.950 . S
C384 C383 1.398 . S
C384 C385 1.391 . S
C385 H373 0.950 . S
C385 C381 1.393 . S
C385 C384 1.391 . S
C386 H376 0.950 . S
C386 C387 1.386 . S
C386 C388 1.391 . S
C387 C386 1.386 . S
C387 C391 1.393 . S
C388 H377 0.950 . S
C388 C386 1.391 . S
C388 C389 1.400 . S
C389 C383 1.491 . S
C389 C388 1.400 . S
C389 C390 1.398 . S
C390 H378 0.950 . S
C390 C389 1.398 . S
C390 C391 1.391 . S
C391 H379 0.950 . S
C391 C387 1.393 . S
C391 C390 1.391 . S
H392 C400 0.950 . S
H393 C405 0.950 . S
H394 C402 0.950 . S
H395 C404 0.950 . S
H396 C406 0.950 . S
H397 C408 0.950 . S
H398 C410 0.950 . S
H399 C411 0.950 . S
C400 H392 0.950 . S
C400 C401 1.386 . S
C400 C402 1.391 . S
C401 C400 1.386 . S
C401 C405 1.393 . S
C402 H394 0.950 . S
C402 C400 1.391 . S
C402 C403 1.400 . S
C403 C402 1.400 . S
C403 C404 1.398 . S
C403 C409 1.491 . S
C404 H395 0.950 . S
C404 C403 1.398 . S
C404 C405 1.391 . S
C405 H393 0.950 . S
C405 C401 1.393 . S
C405 C404 1.391 . S
C406 H396 0.950 . S
C406 C407 1.386 . S
C406 C408 1.391 . S
C407 C406 1.386 . S
C407 C411 1.393 . S
C408 H397 0.950 . S
C408 C406 1.391 . S
C408 C409 1.400 . S
C409 C403 1.491 . S
C409 C408 1.400 . S
C409 C410 1.398 . S
C410 H398 0.950 . S
C410 C409 1.398 . S
C410 C411 1.391 . S
C411 H399 0.950 . S
C411 C407 1.393 . S
C411 C410 1.391 . S
H412 C420 0.950 . S
H413 C425 0.950 . S
H414 C422 0.950 . S
H415 C424 0.950 . S
H416 C426 0.950 . S
H417 C428 0.950 . S
H418 C430 0.950 . S
H419 C431 0.950 . S
C420 H412 0.950 . S
C420 C421 1.386 . S
C420 C422 1.391 . S
C421 C420 1.386 . S
C421 C425 1.393 . S
C422 H414 0.950 . S
C422 C420 1.391 . S
C422 C423 1.400 . S
C423 C422 1.400 . S
C423 C424 1.398 . S
C423 C429 1.491 . S
C424 H415 0.950 . S
C424 C423 1.398 . S
C424 C425 1.391 . S
C425 H413 0.950 . S
C425 C421 1.393 . S
C425 C424 1.391 . S
C426 H416 0.950 . S
C426 C427 1.386 . S
C426 C428 1.391 . S
C427 C426 1.386 . S
C427 C431 1.393 . S
C428 H417 0.950 . S
C428 C426 1.391 . S
C428 C429 1.400 . S
C429 C423 1.491 . S
C429 C428 1.400 . S
C429 C430 1.398 . S
C430 H418 0.950 . S
C430 C429 1.398 . S
C430 C431 1.391 . S
C431 H419 0.950 . S
C431 C427 1.393 . S
C431 C430 1.391 . S
H432 C440 0.950 1_655 S
H433 C445 0.950 . S
H434 C442 0.950 . S
H435 C444 0.950 . S
H436 C446 0.950 1_455 S
H437 C448 0.950 . S
H438 C450 0.950 . S
H439 C451 0.950 . S
C440 H432 0.950 1_455 S
C440 C441 1.386 . S
C440 C442 1.391 1_455 S
C441 C440 1.386 . S
C441 C445 1.393 . S
C442 H434 0.950 . S
C442 C440 1.391 1_655 S
C442 C443 1.400 1_655 S
C443 C442 1.400 1_455 S
C443 C444 1.398 . S
C443 C449 1.491 1_454 S
C444 H435 0.950 . S
C444 C443 1.398 . S
C444 C445 1.391 . S
C445 H433 0.950 . S
C445 C441 1.393 . S
C445 C444 1.391 . S
C446 H436 0.950 1_655 S
C446 C447 1.386 . S
C446 C448 1.391 1_655 S
C447 C446 1.386 . S
C447 C451 1.393 . S
C448 H437 0.950 . S
C448 C446 1.391 1_455 S
C448 C449 1.400 1_455 S
C449 C443 1.491 1_656 S
C449 C448 1.400 1_655 S
C449 C450 1.398 . S
C450 H438 0.950 . S
C450 C449 1.398 . S
C450 C451 1.391 . S
C451 H439 0.950 . S
C451 C447 1.393 . S
C451 C450 1.391 . S
H452 C460 0.950 1_545 S
H453 C465 0.950 . S
H454 C462 0.950 . S
H455 C464 0.950 . S
H456 C466 0.950 1_565 S
H457 C468 0.950 . S
H458 C470 0.950 . S
H459 C471 0.950 . S
C460 H452 0.950 1_565 S
C460 C461 1.386 . S
C460 C462 1.391 1_565 S
C461 C460 1.386 . S
C461 C465 1.393 . S
C462 H454 0.950 . S
C462 C460 1.391 1_545 S
C462 C463 1.400 1_545 S
C463 C462 1.400 1_565 S
C463 C464 1.398 . S
C463 C469 1.491 1_565 S
C464 H455 0.950 . S
C464 C463 1.398 . S
C464 C465 1.391 . S
C465 H453 0.950 . S
C465 C461 1.393 . S
C465 C464 1.391 . S
C466 H456 0.950 1_545 S
C466 C467 1.386 . S
C466 C468 1.391 1_545 S
C467 C466 1.386 . S
C467 C471 1.393 . S
C468 H457 0.950 . S
C468 C466 1.391 1_565 S
C468 C469 1.400 1_565 S
C469 C463 1.491 1_545 S
C469 C468 1.400 1_545 S
C469 C470 1.398 . S
C470 H458 0.950 . S
C470 C469 1.398 . S
C470 C471 1.391 . S
C471 H459 0.950 . S
C471 C467 1.393 . S
C471 C470 1.391 . S
H472 C480 0.950 . S
H473 C485 0.950 1_455 S
H474 C482 0.950 . S
H475 C484 0.950 . S
H476 C486 0.950 . S
H477 C488 0.950 . S
H478 C490 0.950 . S
H479 C491 0.950 1_655 S
C480 H472 0.950 . S
C480 C481 1.386 . S
C480 C482 1.391 . S
C481 C480 1.386 . S
C481 C485 1.393 . S
C482 H474 0.950 . S
C482 C480 1.391 . S
C482 C483 1.400 . S
C483 C482 1.400 . S
C483 C484 1.398 1_655 S
C483 C489 1.491 1_655 S
C484 H475 0.950 . S
C484 C483 1.398 1_455 S
C484 C485 1.391 1_455 S
C485 H473 0.950 1_655 S
C485 C481 1.393 . S
C485 C484 1.391 1_655 S
C486 H476 0.950 . S
C486 C487 1.386 . S
C486 C488 1.391 . S
C487 C486 1.386 . S
C487 C491 1.393 . S
C488 H477 0.950 . S
C488 C486 1.391 . S
C488 C489 1.400 . S
C489 C483 1.491 1_455 S
C489 C488 1.400 . S
C489 C490 1.398 1_455 S
C490 H478 0.950 . S
C490 C489 1.398 1_655 S
C490 C491 1.391 1_655 S
C491 H479 0.950 1_455 S
C491 C487 1.393 . S
C491 C490 1.391 1_455 S
H492 C500 0.950 . S
H493 C505 0.950 . S
H494 C502 0.950 . S
H495 C504 0.950 . S
H496 C506 0.950 . S
H497 C508 0.950 . S
H498 C510 0.950 . S
H499 C511 0.950 . S
C500 H492 0.950 . S
C500 C501 1.386 . S
C500 C502 1.391 . S
C501 C500 1.386 . S
C501 C505 1.393 . S
C502 H494 0.950 . S
C502 C500 1.391 . S
C502 C503 1.400 . S
C503 C502 1.400 . S
C503 C504 1.398 1_545 S
C503 C509 1.491 1_545 S
C504 H495 0.950 . S
C504 C503 1.398 1_565 S
C504 C505 1.391 1_565 S
C505 H493 0.950 . S
C505 C501 1.393 . S
C505 C504 1.391 1_545 S
C506 H496 0.950 . S
C506 C507 1.386 . S
C506 C508 1.391 . S
C507 C506 1.386 . S
C507 C511 1.393 . S
C508 H497 0.950 . S
C508 C506 1.391 . S
C508 C509 1.400 . S
C509 C503 1.491 1_565 S
C509 C508 1.400 . S
C509 C510 1.398 1_565 S
C510 H498 0.950 . S
C510 C509 1.398 1_545 S
C510 C511 1.391 1_545 S
C511 H499 0.950 . S
C511 C507 1.393 . S
C511 C510 1.391 1_565 S
H512 C520 0.950 . S
H513 C525 0.950 . S
H514 C522 0.950 . S
H515 C524 0.950 . S
H516 C526 0.950 . S
H517 C528 0.950 . S
H518 C530 0.950 . S
H519 C531 0.950 . S
C520 H512 0.950 . S
C520 C521 1.386 . S
C520 C522 1.391 . S
C521 C520 1.386 . S
C521 C525 1.393 . S
C522 H514 0.950 . S
C522 C520 1.391 . S
C522 C523 1.400 . S
C523 C522 1.400 . S
C523 C524 1.398 . S
C523 C529 1.491 . S
C524 H515 0.950 . S
C524 C523 1.398 . S
C524 C525 1.391 . S
C525 H513 0.950 . S
C525 C521 1.393 . S
C525 C524 1.391 . S
C526 H516 0.950 . S
C526 C527 1.386 . S
C526 C528 1.391 . S
C527 C526 1.386 . S
C527 C531 1.393 . S
C528 H517 0.950 . S
C528 C526 1.391 . S
C528 C529 1.400 . S
C529 C523 1.491 . S
C529 C528 1.400 . S
C529 C530 1.398 . S
C530 H518 0.950 . S
C530 C529 1.398 . S
C530 C531 1.391 . S
C531 H519 0.950 . S
C531 C527 1.393 . S
C531 C530 1.391 . S
H532 C540 0.950 . S
H533 C545 0.950 1_455 S
H534 C542 0.950 . S
H535 C544 0.950 . S
H536 C546 0.950 . S
H537 C548 0.950 . S
H538 C550 0.950 . S
H539 C551 0.950 . S
C540 H532 0.950 . S
C540 C541 1.386 . S
C540 C542 1.391 . S
C541 C540 1.386 . S
C541 C545 1.393 . S
C542 H534 0.950 . S
C542 C540 1.391 . S
C542 C543 1.400 . S
C543 C542 1.400 . S
C543 C544 1.398 . S
C543 C549 1.491 . S
C544 H535 0.950 . S
C544 C543 1.398 . S
C544 C545 1.391 . S
C545 H533 0.950 1_655 S
C545 C541 1.393 . S
C545 C544 1.391 . S
C546 H536 0.950 . S
C546 C547 1.386 . S
C546 C548 1.391 . S
C547 C546 1.386 . S
C547 C551 1.393 . S
C548 H537 0.950 . S
C548 C546 1.391 . S
C548 C549 1.400 . S
C549 C543 1.491 . S
C549 C548 1.400 . S
C549 C550 1.398 . S
C550 H538 0.950 . S
C550 C549 1.398 . S
C550 C551 1.391 . S
C551 H539 0.950 . S
C551 C547 1.393 . S
C551 C550 1.391 . S
H552 C560 0.950 . S
H553 C565 0.950 1_545 S
H554 C562 0.950 . S
H555 C564 0.950 . S
H556 C566 0.950 . S
H557 C568 0.950 . S
H558 C570 0.950 . S
H559 C571 0.950 . S
C560 H552 0.950 . S
C560 C561 1.386 . S
C560 C562 1.391 . S
C561 C560 1.386 . S
C561 C565 1.393 . S
C562 H554 0.950 . S
C562 C560 1.391 . S
C562 C563 1.400 . S
C563 C562 1.400 . S
C563 C564 1.398 . S
C563 C569 1.491 . S
C564 H555 0.950 . S
C564 C563 1.398 . S
C564 C565 1.391 . S
C565 H553 0.950 1_565 S
C565 C561 1.393 . S
C565 C564 1.391 . S
C566 H556 0.950 . S
C566 C567 1.386 . S
C566 C568 1.391 . S
C567 C566 1.386 . S
C567 C571 1.393 . S
C568 H557 0.950 . S
C568 C566 1.391 . S
C568 C569 1.400 . S
C569 C563 1.491 . S
C569 C568 1.400 . S
C569 C570 1.398 . S
C570 H558 0.950 . S
C570 C569 1.398 . S
C570 C571 1.391 . S
C571 H559 0.950 . S
C571 C567 1.393 . S
C571 C570 1.391 . S
H572 C580 0.950 . S
H573 C585 0.950 1_655 S
H574 C582 0.950 . S
H575 C584 0.950 . S
H576 C586 0.950 . S
H577 C588 0.950 . S
H578 C590 0.950 . S
H579 C591 0.950 . S
C580 H572 0.950 . S
C580 C581 1.386 . S
C580 C582 1.391 . S
C581 C580 1.386 . S
C581 C585 1.393 . S
C582 H574 0.950 . S
C582 C580 1.391 . S
C582 C583 1.400 . S
C583 C582 1.400 . S
C583 C584 1.398 . S
C583 C589 1.491 . S
C584 H575 0.950 . S
C584 C583 1.398 . S
C584 C585 1.391 . S
C585 H573 0.950 1_455 S
C585 C581 1.393 . S
C585 C584 1.391 . S
C586 H576 0.950 . S
C586 C587 1.386 . S
C586 C588 1.391 . S
C587 C586 1.386 . S
C587 C591 1.393 . S
C588 H577 0.950 . S
C588 C586 1.391 . S
C588 C589 1.400 . S
C589 C583 1.491 . S
C589 C588 1.400 . S
C589 C590 1.398 . S
C590 H578 0.950 . S
C590 C589 1.398 . S
C590 C591 1.391 . S
C591 H579 0.950 . S
C591 C587 1.393 . S
C591 C590 1.391 . S
H592 C600 0.950 . S
H593 C605 0.950 . S
H594 C602 0.950 . S
H595 C604 0.950 . S
H596 C606 0.950 . S
H597 C608 0.950 . S
H598 C610 0.950 . S
H599 C611 0.950 . S
C600 H592 0.950 . S
C600 C601 1.386 . S
C600 C602 1.391 . S
C601 C600 1.386 . S
C601 C605 1.393 . S
C602 H594 0.950 . S
C602 C600 1.391 . S
C602 C603 1.400 . S
C603 C602 1.400 . S
C603 C604 1.398 . S
C603 C609 1.491 . S
C604 H595 0.950 . S
C604 C603 1.398 . S
C604 C605 1.391 . S
C605 H593 0.950 . S
C605 C601 1.393 . S
C605 C604 1.391 . S
C606 H596 0.950 . S
C606 C607 1.386 . S
C606 C608 1.391 . S
C607 C606 1.386 . S
C607 C611 1.393 . S
C608 H597 0.950 . S
C608 C606 1.391 . S
C608 C609 1.400 . S
C609 C603 1.491 . S
C609 C608 1.400 . S
C609 C610 1.398 . S
C610 H598 0.950 . S
C610 C609 1.398 . S
C610 C611 1.391 . S
C611 H599 0.950 . S
C611 C607 1.393 . S
C611 C610 1.391 . S
H612 C620 0.950 . S
H613 C625 0.950 . S
H614 C622 0.950 . S
H615 C624 0.950 . S
H616 C626 0.950 . S
H617 C628 0.950 . S
H618 C630 0.950 . S
H619 C631 0.950 1_655 S
C620 H612 0.950 . S
C620 C621 1.386 . S
C620 C622 1.391 . S
C621 C620 1.386 . S
C621 C625 1.393 . S
C622 H614 0.950 . S
C622 C620 1.391 . S
C622 C623 1.400 . S
C623 C622 1.400 . S
C623 C624 1.398 . S
C623 C629 1.491 . S
C624 H615 0.950 . S
C624 C623 1.398 . S
C624 C625 1.391 . S
C625 H613 0.950 . S
C625 C621 1.393 . S
C625 C624 1.391 . S
C626 H616 0.950 . S
C626 C627 1.386 . S
C626 C628 1.391 . S
C627 C626 1.386 . S
C627 C631 1.393 . S
C628 H617 0.950 . S
C628 C626 1.391 . S
C628 C629 1.400 . S
C629 C623 1.491 . S
C629 C628 1.400 . S
C629 C630 1.398 . S
C630 H618 0.950 . S
C630 C629 1.398 . S
C630 C631 1.391 . S
C631 H619 0.950 1_455 S
C631 C627 1.393 . S
C631 C630 1.391 . S
H632 C640 0.950 . S
H633 C645 0.950 . S
H634 C642 0.950 . S
H635 C644 0.950 . S
H636 C646 0.950 . S
H637 C648 0.950 . S
H638 C650 0.950 . S
H639 C651 0.950 . S
C640 H632 0.950 . S
C640 C641 1.386 . S
C640 C642 1.391 . S
C641 C640 1.386 . S
C641 C645 1.393 . S
C642 H634 0.950 . S
C642 C640 1.391 . S
C642 C643 1.400 . S
C643 C642 1.400 . S
C643 C644 1.398 . S
C643 C649 1.491 . S
C644 H635 0.950 . S
C644 C643 1.398 . S
C644 C645 1.391 . S
C645 H633 0.950 . S
C645 C641 1.393 . S
C645 C644 1.391 . S
C646 H636 0.950 . S
C646 C647 1.386 . S
C646 C648 1.391 . S
C647 C646 1.386 . S
C647 C651 1.393 . S
C648 H637 0.950 . S
C648 C646 1.391 . S
C648 C649 1.400 . S
C649 C643 1.491 . S
C649 C648 1.400 . S
C649 C650 1.398 . S
C650 H638 0.950 . S
C650 C649 1.398 . S
C650 C651 1.391 . S
C651 H639 0.950 . S
C651 C647 1.393 . S
C651 C650 1.391 . S
H652 C660 0.950 1_455 S
H653 C665 0.950 . S
H654 C662 0.950 . S
H655 C664 0.950 . S
H656 C666 0.950 . S
H657 C668 0.950 . S
H658 C670 0.950 . S
H659 C671 0.950 . S
C660 H652 0.950 1_655 S
C660 C661 1.386 . S
C660 C662 1.391 . S
C661 C660 1.386 . S
C661 C665 1.393 . S
C662 H654 0.950 . S
C662 C660 1.391 . S
C662 C663 1.400 . S
C663 C662 1.400 . S
C663 C664 1.398 . S
C663 C669 1.491 . S
C664 H655 0.950 . S
C664 C663 1.398 . S
C664 C665 1.391 . S
C665 H653 0.950 . S
C665 C661 1.393 . S
C665 C664 1.391 . S
C666 H656 0.950 . S
C666 C667 1.386 . S
C666 C668 1.391 . S
C667 C666 1.386 . S
C667 C671 1.393 . S
C668 H657 0.950 . S
C668 C666 1.391 . S
C668 C669 1.400 . S
C669 C663 1.491 . S
C669 C668 1.400 . S
C669 C670 1.398 . S
C670 H658 0.950 . S
C670 C669 1.398 . S
C670 C671 1.391 . S
C671 H659 0.950 . S
C671 C667 1.393 . S
C671 C670 1.391 . S
C281 C138 1.065 . S
C287 C2 1.065 . S
C301 C36 1.066 . S
C307 C172 1.067 . S
C321 C70 1.065 . S
C327 C206 1.066 . S
C341 C104 1.066 . S
C347 C240 1.068 . S
C361 C175 0.720 . S
C367 C5 0.724 . S
C381 C39 0.726 . S
C387 C209 0.728 . S
C401 C243 0.725 . S
C407 C73 0.728 . S
C421 C107 0.721 . S
C427 C141 0.725 . S
C441 C9 0.788 . S
C447 C213 0.740 . S
C461 C247 0.803 . S
C467 C43 0.754 . S
C481 C77 0.747 . S
C487 C145 0.798 . S
C501 C179 0.743 . S
C507 C111 0.765 . S
C521 C20 2.383 . S
C527 C135 2.386 1_544 S
C541 C33 2.386 1_655 S
C547 C54 2.384 . S
C561 C67 2.388 1_565 S
C567 C88 2.387 . S
C581 C101 2.388 1_455 S
C587 C122 2.386 . S
C601 C156 2.385 . S
C607 C203 2.390 1_565 S
C621 C190 2.382 . S
C627 C237 2.387 1_455 S
C641 C224 2.386 . S
C647 C271 2.390 1_546 S
C661 C169 2.389 1_655 S
C667 C258 2.383 . S
