# Generated by pormake.
# Topology lon, (4)-cn, num edge types: 1
# Building blocks:
#     Node 0, Type 0, BuildingBlock: KUFVIS_clean_sbu_0, # of connection points: 4
#     Node 1, Type 0, BuildingBlock: KUFVIS_clean_sbu_0, # of connection points: 4
#     Node 2, Type 0, BuildingBlock: KUFVIS_clean_sbu_0, # of connection points: 4
#     Node 3, Type 0, BuildingBlock: KUFVIS_clean_sbu_0, # of connection points: 4
#     Edge 4, Type (0, 0), BuildingBlock: XUDNAN_clean_linker_2, # of connection points: 2
#     Edge 5, Type (0, 0), BuildingBlock: XUDNAN_clean_linker_2, # of connection points: 2
#     Edge 6, Type (0, 0), BuildingBlock: XUDNAN_clean_linker_2, # of connection points: 2
#     Edge 7, Type (0, 0), BuildingBlock: XUDNAN_clean_linker_2, # of connection points: 2
#     Edge 8, Type (0, 0), BuildingBlock: XUDNAN_clean_linker_2, # of connection points: 2
#     Edge 9, Type (0, 0), BuildingBlock: XUDNAN_clean_linker_2, # of connection points: 2
#     Edge 10, Type (0, 0), BuildingBlock: XUDNAN_clean_linker_2, # of connection points: 2
#     Edge 11, Type (0, 0), BuildingBlock: XUDNAN_clean_linker_2, # of connection points: 2
# Relax obj value: 0.048
# Max RMSD: 0.108
# Mean RMSD: 0.089
data_MOF--net-lon--node1-KUFVIS_clean_sbu_0--edge1-XUDNAN_clean_linker_2
_symmetry_space_group_name_H-M    P1
_symmetry_Int_Tables_number       1
_symmetry_cell_setting            triclinic
loop_
_symmetry_equiv_pos_as_xyz
'x, y, z'
_cell_length_a     24.259429
_cell_length_b     23.616869
_cell_length_c     40.437242
_cell_angle_alpha  100.15137
_cell_angle_beta   90.105026
_cell_angle_gamma 120.83949
loop_
_atom_site_label
_atom_site_type_symbol
_atom_site_fract_x
_atom_site_fract_y
_atom_site_fract_z
_atom_type_partial_charge
Mn0 Mn 0.34465 0.69379 0.0879 0.0
Mn1 Mn 0.33191 0.65568 1.00241 0.0
C2 C 0.25559 0.67508 0.05595 0.0
C3 C 0.33143 0.66161 0.13996 0.0
C4 C 0.42052 0.7964 0.04385 0.0
O5 O 0.40901 0.66388 0.07877 0.0
O6 O 0.39107 0.63271 0.02181 0.0
C7 C 0.26671 0.50722 0.99235 0.0
N8 N 0.2675 0.56274 0.98659 0.0
C9 C 0.16822 0.49423 0.94969 0.0
C10 C 0.16666 0.43632 0.95497 0.0
C11 C 0.21585 0.44286 0.9766 0.0
C12 C 0.21972 0.55698 0.96637 0.0
H13 H 0.30471 0.51198 1.00872 0.0
C14 C 0.41779 0.63789 0.05039 0.0
O15 O 0.37356 0.72261 0.13717 0.0
O16 O 0.29631 0.61901 0.11263 0.0
N17 N 0.27481 0.67415 0.98021 0.0
C18 C 0.28404 0.73495 0.97723 0.0
C19 C 0.23896 0.7372 0.95651 0.0
C20 C 0.18527 0.67698 0.93875 0.0
C21 C 0.17726 0.61503 0.94179 0.0
C22 C 0.22386 0.61594 0.96275 0.0
H23 H 0.32525 0.78141 0.99068 0.0
O24 O 0.27048 0.70875 0.08696 0.0
O25 O 0.29276 0.65328 0.04487 0.0
O26 O 0.40386 0.78215 0.07259 0.0
O27 O 0.39795 0.75269 0.01616 0.0
C28 C 0.12502 0.55244 0.92472 0.0
C29 C 0.12057 0.4921 0.92861 0.0
H30 H 0.12766 0.38659 0.94274 0.0
H31 H 0.21477 0.3984 0.98096 0.0
H32 H 0.2456 0.78524 0.95424 0.0
H33 H 0.15049 0.6789 0.92288 0.0
H34 H 0.08801 0.55013 0.90852 0.0
H35 H 0.08013 0.44428 0.91539 0.0
Mn36 Mn 0.7363 0.36085 0.58109 0.0
Mn37 Mn 0.57619 0.28504 0.58809 0.0
C38 C 0.67142 0.24374 0.57347 0.0
C39 C 0.8311 0.40072 0.55392 0.0
C40 C 0.67612 0.35393 0.64849 0.0
O41 O 0.71746 0.43393 0.57357 0.0
O42 O 0.61237 0.37891 0.5824 0.0
C43 C 0.5306 0.28371 0.51988 0.0
N44 N 0.52897 0.25003 0.54433 0.0
C45 C 0.43429 0.14879 0.51509 0.0
C46 C 0.43472 0.18219 0.48957 0.0
C47 C 0.48371 0.24974 0.49174 0.0
C48 C 0.48373 0.18428 0.54175 0.0
H49 H 0.56669 0.33634 0.52206 0.0
C50 C 0.66298 0.4304 0.57589 0.0
O51 O 0.83161 0.42206 0.58571 0.0
O52 O 0.77467 0.35997 0.53675 0.0
N53 N 0.53348 0.1936 0.5933 0.0
C54 C 0.53857 0.16894 0.62044 0.0
C55 C 0.49498 0.10112 0.62137 0.0
C56 C 0.44516 0.06004 0.59497 0.0
C57 C 0.4399 0.08714 0.5678 0.0
C58 C 0.4862 0.15433 0.56762 0.0
H59 H 0.57634 0.20042 0.64091 0.0
O60 O 0.73254 0.2748 0.58367 0.0
O61 O 0.64912 0.28161 0.56871 0.0
O62 O 0.72447 0.37662 0.63158 0.0
O63 O 0.6182 0.31728 0.63472 0.0
C64 C 0.38877 0.05107 0.5417 0.0
C65 C 0.38542 0.08242 0.51575 0.0
H66 H 0.39755 0.15656 0.46829 0.0
H67 H 0.48436 0.27602 0.47222 0.0
H68 H 0.49927 0.08084 0.64257 0.0
H69 H 0.4107 1.00809 0.59607 0.0
H70 H 0.35115 0.99989 0.54198 0.0
H71 H 0.34455 0.05602 0.49677 0.0
Mn72 Mn 0.3796 0.64945 0.44915 0.0
Mn73 Mn 0.28452 0.71167 0.43775 0.0
C74 C 0.42351 0.76681 0.45654 0.0
C75 C 0.43746 0.61655 0.47981 0.0
C76 C 0.32153 0.6423 0.37999 0.0
O77 O 0.2891 0.57175 0.45561 0.0
O78 O 0.23291 0.62207 0.44912 0.0
C79 C 0.2437 0.72794 0.50591 0.0
N80 N 0.27189 0.75467 0.47899 0.0
C81 C 0.2607 0.85049 0.49684 0.0
C82 C 0.23232 0.82466 0.52508 0.0
C83 C 0.22477 0.76363 0.52992 0.0
C84 C 0.28245 0.81497 0.47506 0.0
H85 H 0.23437 0.67911 0.50852 0.0
C86 C 0.23655 0.57275 0.45529 0.0
O87 O 0.42076 0.59479 0.44765 0.0
O88 O 0.41715 0.65456 0.49515 0.0
N89 N 0.32792 0.79843 0.42657 0.0
C90 C 0.35709 0.81661 0.39831 0.0
C91 C 0.36853 0.87647 0.3897 0.0
C92 C 0.34779 0.91559 0.40962 0.0
C93 C 0.31871 0.8961 0.43884 0.0
C94 C 0.31155 0.8378 0.44703 0.0
H95 H 0.37101 0.78536 0.38237 0.0
O96 O 0.45802 0.74003 0.44802 0.0
O97 O 0.36367 0.72381 0.45924 0.0
O98 O 0.35624 0.63069 0.39788 0.0
O99 O 0.29203 0.67083 0.39276 0.0
C100 C 0.29345 0.93018 0.45914 0.0
C101 C 0.26512 0.90797 0.48836 0.0
H102 H 0.21523 0.85066 0.54288 0.0
H103 H 0.20221 0.74294 0.55142 0.0
H104 H 0.39146 0.89133 0.36724 0.0
H105 H 0.35459 0.96056 0.40232 0.0
H106 H 0.29444 0.97268 0.45196 0.0
H107 H 0.24597 0.93484 0.50383 0.0
Mn108 Mn 0.66623 0.33383 0.94656 0.0
Mn109 Mn 0.70557 0.40273 0.03009 0.0
C110 C 0.59819 0.35934 0.97689 0.0
C111 C 0.67768 0.35056 0.8912 0.0
C112 C 0.65492 0.25482 1.00088 0.0
O113 O 0.76197 0.36695 0.95396 0.0
O114 O 0.7844 0.42362 1.00812 0.0
C115 C 0.77773 0.54742 0.0273 0.0
N116 N 0.72789 0.49455 0.03805 0.0
C117 C 0.69628 0.56687 0.07047 0.0
C118 C 0.74778 0.62226 0.0601 0.0
C119 C 0.78828 0.61236 0.03816 0.0
C120 C 0.68776 0.50327 0.05854 0.0
H121 H 0.80946 0.54015 1.01077 0.0
C122 C 0.80115 0.40611 0.98008 0.0
O123 O 0.66109 0.29254 0.89814 0.0
O124 O 0.68657 0.39814 0.91615 0.0
N125 N 0.63349 0.38723 0.05475 0.0
C126 C 0.5881 0.32916 0.06382 0.0
C127 C 0.5437 0.33045 0.08572 0.0
C128 C 0.54721 0.39159 0.09862 0.0
C129 C 0.59531 0.45099 0.08962 0.0
C130 C 0.63814 0.44659 0.06763 0.0
H131 H 0.58576 0.28218 0.05449 0.0
O132 O 0.57656 0.31751 0.94789 0.0
O133 O 0.65873 0.3857 0.98666 0.0
O134 O 0.64258 0.25497 0.97014 0.0
O135 O 0.68159 0.30792 0.02427 0.0
C136 C 0.60265 0.51444 0.10174 0.0
C137 C 0.6531 0.57233 0.09219 0.0
H138 H 0.75634 0.67252 0.0686 0.0
H139 H 0.82785 0.65478 0.02987 0.0
H140 H 0.50706 0.28447 0.09278 0.0
H141 H 0.51287 0.39237 0.1155 0.0
H142 H 0.56986 0.5193 0.1185 0.0
H143 H 0.65829 0.62085 0.1017 0.0
H144 H 0.31276 0.72348 0.19819 0.0
H145 H 0.33581 0.55617 0.15578 0.0
H146 H 0.33379 0.52952 0.21273 0.0
H147 H 0.4071 0.77735 0.27645 0.0
H148 H 0.35392 0.79584 0.3007 0.0
H149 H 0.35723 0.80097 0.2568 0.0
H150 H 0.23356 0.71681 0.24485 0.0
H151 H 0.22989 0.71186 0.28881 0.0
H152 H 0.19889 0.6361 0.25671 0.0
H153 H 0.34074 0.53036 0.27647 0.0
H154 H 0.34101 0.54869 0.33891 0.0
H155 H 0.29798 0.70506 0.33637 0.0
C156 C 0.31683 0.68093 0.20096 0.0
C157 C 0.32476 0.64194 0.17296 0.0
C158 C 0.32944 0.58629 0.17717 0.0
C159 C 0.32861 0.57107 0.20935 0.0
C160 C 0.32128 0.611 0.23671 0.0
C161 C 0.31393 0.66381 0.23257 0.0
C162 C 0.30465 0.69778 0.26557 0.0
C163 C 0.35896 0.77238 0.27545 0.0
C164 C 0.23776 0.69014 0.26387 0.0
C165 C 0.3094 0.65702 0.28913 0.0
C166 C 0.32 0.60782 0.27233 0.0
C167 C 0.33114 0.56786 0.28974 0.0
C168 C 0.33137 0.57866 0.32516 0.0
C169 C 0.31912 0.62796 0.3426 0.0
C170 C 0.30709 0.66661 0.324 0.0
H171 H 0.60033 0.27465 0.69126 0.0
H172 H 0.77783 0.46362 0.6903 0.0
H173 H 0.79682 0.48454 0.75269 0.0
H174 H 0.5511 0.32406 0.76878 0.0
H175 H 0.52264 0.2451 0.78167 0.0
H176 H 0.52142 0.24748 0.73741 0.0
H177 H 0.58928 0.19091 0.72886 0.0
H178 H 0.59074 0.18827 0.77308 0.0
H179 H 0.6654 0.22873 0.7544 0.0
H180 H 0.7929 0.48631 0.81562 0.0
H181 H 0.77333 0.46359 0.87329 0.0
H182 H 0.60584 0.26692 0.83171 0.0
C183 C 0.64322 0.32051 0.70402 0.0
C184 C 0.68746 0.36773 0.68586 0.0
C185 C 0.74324 0.42685 0.70371 0.0
C186 C 0.75431 0.43915 0.73911 0.0
C187 C 0.70989 0.39108 0.75614 0.0
C188 C 0.65601 0.33243 0.73908 0.0
C189 C 0.61763 0.28688 0.76292 0.0
C190 C 0.54915 0.27523 0.76268 0.0
C191 C 0.61568 0.21973 0.7543 0.0
C192 C 0.65788 0.32933 0.79626 0.0
C193 C 0.71033 0.38978 0.79188 0.0
C194 C 0.75253 0.43882 0.81925 0.0
C195 C 0.74096 0.42561 0.85185 0.0
C196 C 0.68861 0.3633 0.8567 0.0
C197 C 0.64683 0.31448 0.82853 0.0
H198 H 0.51447 0.6464 1.01351 0.0
H199 H 0.38707 0.53889 0.08445 0.0
H200 H 0.41688 0.45213 0.07196 0.0
H201 H 0.48491 0.50288 0.95275 0.0
H202 H 0.56721 0.53964 0.94283 0.0
H203 H 0.53568 0.59292 0.95743 0.0
H204 H 0.63013 0.65988 1.00291 0.0
H205 H 0.66192 0.60529 0.99369 0.0
H206 H 0.63957 0.62176 0.03527 0.0
H207 H 0.44172 0.36564 0.04124 0.0
H208 H 0.49303 0.30557 1.01206 0.0
H209 H 0.62034 0.4807 0.97107 0.0
C210 C 0.49467 0.60572 0.02718 0.0
C211 C 0.44928 0.59919 0.05015 0.0
C212 C 0.42307 0.54501 0.06727 0.0
C213 C 0.43879 0.49508 0.05991 0.0
C214 C 0.48171 0.50135 0.03598 0.0
C215 C 0.51123 0.5566 0.02088 0.0
C216 C 0.55757 0.55254 0.99707 0.0
C217 C 0.53496 0.54663 0.96036 0.0
C218 C 0.62646 0.6133 1.00785 0.0
C219 C 0.55072 0.48722 1.00189 0.0
C220 C 0.50377 0.45644 0.02276 0.0
C221 C 0.48087 0.39044 0.02622 0.0
C222 C 0.50993 0.35675 1.00964 0.0
C223 C 0.56279 0.39064 0.99142 0.0
C224 C 0.58216 0.45565 0.98661 0.0
H225 H 0.11208 0.52689 0.43278 0.0
H226 H 0.22758 0.5062 0.50616 0.0
H227 H 0.13159 0.44958 0.53669 0.0
H228 H 0.0306 0.57245 0.48824 0.0
H229 H 0.95356 0.52787 0.46286 0.0
H230 H 0.02651 0.55389 0.44279 0.0
H231 H 0.98301 0.43117 0.4113 0.0
H232 H 0.90892 0.40464 0.43054 0.0
H233 H 0.95457 0.36508 0.43494 0.0
H234 H 0.03051 0.41817 0.56524 0.0
H235 H 0.92716 0.39751 0.58543 0.0
H236 H 0.87375 0.43288 0.49223 0.0
C237 C 0.11645 0.50762 0.45442 0.0
C238 C 0.17725 0.52013 0.46684 0.0
C239 C 0.18139 0.49576 0.49571 0.0
C240 C 0.12715 0.46423 0.5134 0.0
C241 C 0.06892 0.45638 0.50154 0.0
C242 C 0.06277 0.47573 0.47214 0.0
C243 C 0.99652 0.46665 0.46616 0.0
C244 C 1.00218 0.53423 0.46495 0.0
C245 C 0.9585 0.41371 0.43381 0.0
C246 C 0.96685 0.44132 0.4974 0.0
C247 C 1.00965 0.43603 0.5175 0.0
C248 C 0.99612 0.42041 0.54926 0.0
C249 C 0.93746 0.40933 0.56063 0.0
C250 C 0.8922 0.41295 0.54027 0.0
C251 C 0.90687 0.42846 0.50802 0.0
H252 H 0.57613 0.12496 0.96373 0.0
H253 H 0.68545 0.23781 0.06196 0.0
H254 H 0.64252 0.13226 0.08213 0.0
H255 H 0.4365 1.00666 0.99406 0.0
H256 H 0.41909 0.93554 0.96121 0.0
H257 H 0.46263 0.01935 0.95287 0.0
H258 H 0.55641 1.00279 0.93422 0.0
H259 H 0.51288 0.91861 0.94223 0.0
H260 H 0.59376 0.97779 0.9624 0.0
H261 H 0.57995 0.01704 0.09399 0.0
H262 H 0.50577 0.89724 0.09542 0.0
H263 H 0.44015 0.85703 0.98922 0.0
C264 C 0.59213 0.1274 0.98924 0.0
C265 C 0.6343 0.19002 1.01116 0.0
C266 C 0.6532 0.19077 0.04456 0.0
C267 C 0.62915 0.13096 0.05634 0.0
C268 C 0.58658 0.07043 0.03443 0.0
C269 C 0.56868 0.0679 1.00148 0.0
C270 C 0.51991 0.99609 0.98375 0.0
C271 C 0.45575 0.98903 0.97231 0.0
C272 C 0.54741 0.97243 0.95388 0.0
C273 C 0.51247 0.9592 1.01213 0.0
C274 C 0.55136 1.00313 0.04113 0.0
C275 C 0.54994 0.98185 0.0713 0.0
C276 C 0.50743 0.91376 0.07191 0.0
C277 C 0.46722 0.86758 0.04245 0.0
C278 C 0.47061 0.89078 1.0121 0.0
H279 H 0.56537 0.4529 0.59197 0.0
H280 H 0.73298 0.5223 0.53614 0.0
H281 H 0.69823 0.58771 0.50984 0.0
H282 H 0.45721 0.4234 0.52699 0.0
H283 H 0.4102 0.45008 0.55217 0.0
H284 H 0.45354 0.41864 0.57101 0.0
H285 H 0.51342 0.52856 0.61673 0.0
H286 H 0.46953 0.5602 0.5984 0.0
H287 H 0.55657 0.60871 0.60411 0.0
H288 H 0.63507 0.62882 0.48252 0.0
H289 H 0.55468 0.65106 0.46014 0.0
H290 H 0.42898 0.55782 0.5348 0.0
C291 C 0.59612 0.48358 0.57504 0.0
C292 C 0.65244 0.48269 0.56636 0.0
C293 C 0.69044 0.52289 0.54369 0.0
C294 C 0.67069 0.55984 0.52844 0.0
C295 C 0.61326 0.55684 0.53643 0.0
C296 C 0.57716 0.52064 0.55971 0.0
C297 C 0.5148 0.52107 0.56203 0.0
C298 C 0.45546 0.44904 0.55248 0.0
C299 C 0.51353 0.55678 0.59743 0.0
C300 C 0.52033 0.56175 0.53573 0.0
C301 C 0.5776 0.58192 0.52129 0.0
C302 C 0.59099 0.61468 0.49425 0.0
C303 C 0.54494 0.62689 0.48163 0.0
C304 C 0.4863 0.60727 0.49615 0.0
C305 C 0.47421 0.575 0.52386 0.0
H306 H 0.16084 0.5456 0.04931 0.0
H307 H 0.20216 0.73671 0.02895 0.0
H308 H 0.09291 0.68021 0.99764 0.0
H309 H 0.04577 0.42217 0.97609 0.0
H310 H 0.99713 0.36885 1.00375 0.0
H311 H 0.08284 0.42435 0.01544 0.0
H312 H 0.05098 0.46953 0.07222 0.0
H313 H 0.96659 0.41698 0.05681 0.0
H314 H 1.00258 0.5068 0.06991 0.0
H315 H 0.98223 0.60108 0.966 0.0
H316 H 0.86531 0.51634 0.95355 0.0
H317 H 0.89073 0.38287 1.00405 0.0
C318 C 0.14696 0.57497 0.03757 0.0
C319 C 0.19024 0.6443 0.03944 0.0
C320 C 0.1699 0.68285 0.02626 0.0
C321 C 0.10839 0.65115 1.00841 0.0
C322 C 0.0676 0.58174 1.00551 0.0
C323 C 0.08492 0.54479 0.02118 0.0
C324 C 0.02777 0.47491 0.02086 0.0
C325 C 0.0393 0.41944 1.003 0.0
C326 C 1.01098 0.4666 0.05709 0.0
C327 C 0.97653 0.47691 1.0007 0.0
C328 C 1.00095 0.53844 0.99139 0.0
C329 C 0.96251 0.55276 0.97314 0.0
C330 C 0.89659 0.50417 0.96576 0.0
C331 C 0.8702 0.44304 0.97719 0.0
C332 C 0.91065 0.42853 0.99417 0.0
H333 H 0.60929 0.17151 0.51059 0.0
H334 H 0.6533 0.14979 0.60974 0.0
H335 H 0.58794 0.02544 0.59109 0.0
H336 H 0.44708 0.01867 0.48435 0.0
H337 H 0.46978 1.00811 0.44245 0.0
H338 H 0.50717 0.09095 0.46882 0.0
H339 H 0.6165 0.09634 0.4553 0.0
H340 H 0.57352 1.00945 0.43338 0.0
H341 H 0.6326 0.03698 0.46889 0.0
H342 H 0.51132 0.90431 0.56274 0.0
H343 H 0.44958 0.79352 0.52366 0.0
H344 H 0.47295 0.89266 0.43969 0.0
C345 C 0.60415 0.14023 0.5284 0.0
C346 C 0.6335 0.16964 0.56209 0.0
C347 C 0.62943 0.12781 0.58418 0.0
C348 C 0.59228 0.05733 0.57382 0.0
C349 C 0.56248 0.02968 0.54068 0.0
C350 C 0.57008 0.06975 0.51791 0.0
C351 C 0.54111 0.02731 0.48255 0.0
C352 C 0.48813 0.03697 0.4688 0.0
C353 C 0.5941 0.04349 0.45862 0.0
C354 C 0.51314 0.95684 0.48932 0.0
C355 C 0.52519 0.95966 0.52321 0.0
C356 C 0.5023 0.90153 0.53611 0.0
C357 C 0.46708 0.8389 0.51377 0.0
C358 C 0.45599 0.83456 0.4788 0.0
C359 C 0.47969 0.89439 0.46635 0.0
loop_
_geom_bond_atom_site_label_1
_geom_bond_atom_site_label_2
_geom_bond_distance
_geom_bond_site_symmetry_2
_ccdc_geom_bond_type
Mn0 O5 2.095 . S
Mn0 O15 2.162 . S
Mn0 O16 2.297 . S
Mn0 O24 2.385 . S
Mn0 O25 2.209 . S
Mn0 O26 2.094 . S
Mn1 O6 2.121 1_556 S
Mn1 N8 2.257 . S
Mn1 N17 2.282 . S
Mn1 O25 2.215 1_556 S
Mn1 O27 2.117 1_556 S
C2 O24 1.234 . S
C2 O25 1.283 . S
C3 O15 1.281 . S
C3 O16 1.236 . S
C4 O26 1.240 . S
C4 O27 1.264 . S
O5 Mn0 2.095 . S
O5 C14 1.250 . S
O6 Mn1 2.121 1_554 S
O6 C14 1.258 . S
C7 N8 1.326 . S
C7 C11 1.460 . S
C7 H13 0.929 . S
N8 Mn1 2.257 . S
N8 C7 1.326 . S
N8 C12 1.362 . S
C9 C10 1.258 . S
C9 C12 1.431 . S
C9 C29 1.449 . S
C10 C9 1.258 . S
C10 C11 1.477 . S
C10 H30 0.931 . S
C11 C7 1.460 . S
C11 C10 1.477 . S
C11 H31 0.930 . S
C12 N8 1.362 . S
C12 C9 1.431 . S
C12 C22 1.476 . S
H13 C7 0.929 . S
C14 O5 1.250 . S
C14 O6 1.258 . S
O15 Mn0 2.162 . S
O15 C3 1.281 . S
O16 Mn0 2.297 . S
O16 C3 1.236 . S
N17 Mn1 2.282 . S
N17 C18 1.328 . S
N17 C22 1.318 . S
C18 N17 1.328 . S
C18 C19 1.457 . S
C18 H23 0.929 . S
C19 C18 1.457 . S
C19 C20 1.291 . S
C19 H32 0.931 . S
C20 C19 1.291 . S
C20 C21 1.373 . S
C20 H33 0.929 . S
C21 C20 1.373 . S
C21 C22 1.396 . S
C21 C28 1.403 . S
C22 C12 1.476 . S
C22 N17 1.318 . S
C22 C21 1.396 . S
H23 C18 0.929 . S
O24 Mn0 2.385 . S
O24 C2 1.234 . S
O25 Mn0 2.209 . S
O25 Mn1 2.215 1_554 S
O25 C2 1.283 . S
O26 Mn0 2.094 . S
O26 C4 1.240 . S
O27 Mn1 2.117 1_554 S
O27 C4 1.264 . S
C28 C21 1.403 . S
C28 C29 1.399 . S
C28 H34 0.929 . S
C29 C9 1.449 . S
C29 C28 1.399 . S
C29 H35 0.930 . S
H30 C10 0.931 . S
H31 C11 0.930 . S
H32 C19 0.931 . S
H33 C20 0.929 . S
H34 C28 0.929 . S
H35 C29 0.930 . S
Mn36 O41 2.095 . S
Mn36 O51 2.162 . S
Mn36 O52 2.297 . S
Mn36 O60 2.385 . S
Mn36 O61 2.209 . S
Mn36 O62 2.094 . S
Mn37 O42 2.121 . S
Mn37 N44 2.257 . S
Mn37 N53 2.282 . S
Mn37 O61 2.215 . S
Mn37 O63 2.117 . S
C38 O60 1.234 . S
C38 O61 1.283 . S
C39 O51 1.281 . S
C39 O52 1.236 . S
C40 O62 1.240 . S
C40 O63 1.264 . S
O41 Mn36 2.095 . S
O41 C50 1.250 . S
O42 Mn37 2.121 . S
O42 C50 1.258 . S
C43 N44 1.326 . S
C43 C47 1.460 . S
C43 H49 0.929 . S
N44 Mn37 2.257 . S
N44 C43 1.326 . S
N44 C48 1.362 . S
C45 C46 1.258 . S
C45 C48 1.431 . S
C45 C65 1.449 . S
C46 C45 1.258 . S
C46 C47 1.477 . S
C46 H66 0.931 . S
C47 C43 1.460 . S
C47 C46 1.477 . S
C47 H67 0.930 . S
C48 N44 1.362 . S
C48 C45 1.431 . S
C48 C58 1.476 . S
H49 C43 0.929 . S
C50 O41 1.250 . S
C50 O42 1.258 . S
O51 Mn36 2.162 . S
O51 C39 1.281 . S
O52 Mn36 2.297 . S
O52 C39 1.236 . S
N53 Mn37 2.282 . S
N53 C54 1.328 . S
N53 C58 1.318 . S
C54 N53 1.328 . S
C54 C55 1.457 . S
C54 H59 0.929 . S
C55 C54 1.457 . S
C55 C56 1.291 . S
C55 H68 0.931 . S
C56 C55 1.291 . S
C56 C57 1.373 . S
C56 H69 0.929 . S
C57 C56 1.373 . S
C57 C58 1.396 . S
C57 C64 1.403 . S
C58 C48 1.476 . S
C58 N53 1.318 . S
C58 C57 1.396 . S
H59 C54 0.929 . S
O60 Mn36 2.385 . S
O60 C38 1.234 . S
O61 Mn36 2.209 . S
O61 Mn37 2.215 . S
O61 C38 1.283 . S
O62 Mn36 2.094 . S
O62 C40 1.240 . S
O63 Mn37 2.117 . S
O63 C40 1.264 . S
C64 C57 1.403 . S
C64 C65 1.399 . S
C64 H70 0.929 1_545 S
C65 C45 1.449 . S
C65 C64 1.399 . S
C65 H71 0.930 1_545 S
H66 C46 0.931 . S
H67 C47 0.930 . S
H68 C55 0.931 . S
H69 C56 0.929 . S
H70 C64 0.929 1_565 S
H71 C65 0.930 1_565 S
Mn72 O77 2.095 . S
Mn72 O87 2.162 . S
Mn72 O88 2.297 . S
Mn72 O96 2.385 . S
Mn72 O97 2.209 . S
Mn72 O98 2.094 . S
Mn73 O78 2.121 . S
Mn73 N80 2.257 . S
Mn73 N89 2.282 . S
Mn73 O97 2.215 . S
Mn73 O99 2.117 . S
C74 O96 1.234 . S
C74 O97 1.283 . S
C75 O87 1.281 . S
C75 O88 1.236 . S
C76 O98 1.240 . S
C76 O99 1.264 . S
O77 Mn72 2.095 . S
O77 C86 1.250 . S
O78 Mn73 2.121 . S
O78 C86 1.258 . S
C79 N80 1.326 . S
C79 C83 1.460 . S
C79 H85 0.929 . S
N80 Mn73 2.257 . S
N80 C79 1.326 . S
N80 C84 1.362 . S
C81 C82 1.258 . S
C81 C84 1.431 . S
C81 C101 1.449 . S
C82 C81 1.258 . S
C82 C83 1.477 . S
C82 H102 0.931 . S
C83 C79 1.460 . S
C83 C82 1.477 . S
C83 H103 0.930 . S
C84 N80 1.362 . S
C84 C81 1.431 . S
C84 C94 1.476 . S
H85 C79 0.929 . S
C86 O77 1.250 . S
C86 O78 1.258 . S
O87 Mn72 2.162 . S
O87 C75 1.281 . S
O88 Mn72 2.297 . S
O88 C75 1.236 . S
N89 Mn73 2.282 . S
N89 C90 1.328 . S
N89 C94 1.318 . S
C90 N89 1.328 . S
C90 C91 1.457 . S
C90 H95 0.929 . S
C91 C90 1.457 . S
C91 C92 1.291 . S
C91 H104 0.931 . S
C92 C91 1.291 . S
C92 C93 1.373 . S
C92 H105 0.929 . S
C93 C92 1.373 . S
C93 C94 1.396 . S
C93 C100 1.403 . S
C94 C84 1.476 . S
C94 N89 1.318 . S
C94 C93 1.396 . S
H95 C90 0.929 . S
O96 Mn72 2.385 . S
O96 C74 1.234 . S
O97 Mn72 2.209 . S
O97 Mn73 2.215 . S
O97 C74 1.283 . S
O98 Mn72 2.094 . S
O98 C76 1.240 . S
O99 Mn73 2.117 . S
O99 C76 1.264 . S
C100 C93 1.403 . S
C100 C101 1.399 . S
C100 H106 0.929 1_565 S
C101 C81 1.449 . S
C101 C100 1.399 . S
C101 H107 0.930 1_565 S
H102 C82 0.931 . S
H103 C83 0.930 . S
H104 C91 0.931 . S
H105 C92 0.929 . S
H106 C100 0.929 1_545 S
H107 C101 0.930 1_545 S
Mn108 O113 2.095 . S
Mn108 O123 2.162 . S
Mn108 O124 2.297 . S
Mn108 O132 2.385 . S
Mn108 O133 2.209 . S
Mn108 O134 2.094 . S
Mn109 O114 2.121 1_554 S
Mn109 N116 2.257 . S
Mn109 N125 2.282 . S
Mn109 O133 2.215 1_554 S
Mn109 O135 2.117 1_554 S
C110 O132 1.234 . S
C110 O133 1.283 . S
C111 O123 1.281 . S
C111 O124 1.236 . S
C112 O134 1.240 . S
C112 O135 1.264 . S
O113 Mn108 2.095 . S
O113 C122 1.250 . S
O114 Mn109 2.121 1_556 S
O114 C122 1.258 . S
C115 N116 1.326 . S
C115 C119 1.460 . S
C115 H121 0.929 . S
N116 Mn109 2.257 . S
N116 C115 1.326 . S
N116 C120 1.362 . S
C117 C118 1.258 . S
C117 C120 1.431 . S
C117 C137 1.449 . S
C118 C117 1.258 . S
C118 C119 1.477 . S
C118 H138 0.931 . S
C119 C115 1.460 . S
C119 C118 1.477 . S
C119 H139 0.930 . S
C120 N116 1.362 . S
C120 C117 1.431 . S
C120 C130 1.476 . S
H121 C115 0.929 . S
C122 O113 1.250 . S
C122 O114 1.258 . S
O123 Mn108 2.162 . S
O123 C111 1.281 . S
O124 Mn108 2.297 . S
O124 C111 1.236 . S
N125 Mn109 2.282 . S
N125 C126 1.328 . S
N125 C130 1.318 . S
C126 N125 1.328 . S
C126 C127 1.457 . S
C126 H131 0.929 . S
C127 C126 1.457 . S
C127 C128 1.291 . S
C127 H140 0.931 . S
C128 C127 1.291 . S
C128 C129 1.373 . S
C128 H141 0.929 . S
C129 C128 1.373 . S
C129 C130 1.396 . S
C129 C136 1.403 . S
C130 C120 1.476 . S
C130 N125 1.318 . S
C130 C129 1.396 . S
H131 C126 0.929 . S
O132 Mn108 2.385 . S
O132 C110 1.234 . S
O133 Mn108 2.209 . S
O133 Mn109 2.215 1_556 S
O133 C110 1.283 . S
O134 Mn108 2.094 . S
O134 C112 1.240 . S
O135 Mn109 2.117 1_556 S
O135 C112 1.264 . S
C136 C129 1.403 . S
C136 C137 1.399 . S
C136 H142 0.929 . S
C137 C117 1.449 . S
C137 C136 1.399 . S
C137 H143 0.930 . S
H138 C118 0.931 . S
H139 C119 0.930 . S
H140 C127 0.931 . S
H141 C128 0.929 . S
H142 C136 0.929 . S
H143 C137 0.930 . S
H144 C156 0.930 . S
H145 C158 0.930 . S
H146 C159 0.930 . S
H147 C163 0.959 . S
H148 C163 0.959 . S
H149 C163 0.961 . S
H150 C164 0.960 . S
H151 C164 0.961 . S
H152 C164 0.959 . S
H153 C167 0.929 . S
H154 C168 0.931 . S
H155 C170 0.930 . S
C156 H144 0.930 . S
C156 C157 1.399 . S
C156 C161 1.399 . S
C157 C156 1.399 . S
C157 C158 1.376 . S
C158 H145 0.930 . S
C158 C157 1.376 . S
C158 C159 1.388 . S
C159 H146 0.930 . S
C159 C158 1.388 . S
C159 C160 1.390 . S
C160 C159 1.390 . S
C160 C161 1.394 . S
C160 C166 1.465 . S
C161 C156 1.399 . S
C161 C160 1.394 . S
C161 C162 1.516 . S
C162 C161 1.516 . S
C162 C163 1.502 . S
C162 C164 1.561 . S
C162 C165 1.526 . S
C163 H147 0.959 . S
C163 H148 0.959 . S
C163 H149 0.961 . S
C163 C162 1.502 . S
C164 H150 0.960 . S
C164 H151 0.961 . S
C164 H152 0.959 . S
C164 C162 1.561 . S
C165 C162 1.526 . S
C165 C166 1.396 . S
C165 C170 1.390 . S
C166 C160 1.465 . S
C166 C165 1.396 . S
C166 C167 1.399 . S
C167 H153 0.929 . S
C167 C166 1.399 . S
C167 C168 1.385 . S
C168 H154 0.931 . S
C168 C167 1.385 . S
C168 C169 1.389 . S
C169 C168 1.389 . S
C169 C170 1.387 . S
C170 H155 0.930 . S
C170 C165 1.390 . S
C170 C169 1.387 . S
H171 C183 0.930 . S
H172 C185 0.930 . S
H173 C186 0.930 . S
H174 C190 0.959 . S
H175 C190 0.959 . S
H176 C190 0.961 . S
H177 C191 0.960 . S
H178 C191 0.961 . S
H179 C191 0.959 . S
H180 C194 0.929 . S
H181 C195 0.931 . S
H182 C197 0.930 . S
C183 H171 0.930 . S
C183 C184 1.399 . S
C183 C188 1.399 . S
C184 C183 1.399 . S
C184 C185 1.376 . S
C185 H172 0.930 . S
C185 C184 1.376 . S
C185 C186 1.388 . S
C186 H173 0.930 . S
C186 C185 1.388 . S
C186 C187 1.390 . S
C187 C186 1.390 . S
C187 C188 1.394 . S
C187 C193 1.465 . S
C188 C183 1.399 . S
C188 C187 1.394 . S
C188 C189 1.516 . S
C189 C188 1.516 . S
C189 C190 1.502 . S
C189 C191 1.561 . S
C189 C192 1.526 . S
C190 H174 0.959 . S
C190 H175 0.959 . S
C190 H176 0.961 . S
C190 C189 1.502 . S
C191 H177 0.960 . S
C191 H178 0.961 . S
C191 H179 0.959 . S
C191 C189 1.561 . S
C192 C189 1.526 . S
C192 C193 1.396 . S
C192 C197 1.390 . S
C193 C187 1.465 . S
C193 C192 1.396 . S
C193 C194 1.399 . S
C194 H180 0.929 . S
C194 C193 1.399 . S
C194 C195 1.385 . S
C195 H181 0.931 . S
C195 C194 1.385 . S
C195 C196 1.389 . S
C196 C195 1.389 . S
C196 C197 1.387 . S
C197 H182 0.930 . S
C197 C192 1.390 . S
C197 C196 1.387 . S
H198 C210 0.930 . S
H199 C212 0.930 . S
H200 C213 0.930 . S
H201 C217 0.959 . S
H202 C217 0.959 . S
H203 C217 0.961 . S
H204 C218 0.960 . S
H205 C218 0.961 . S
H206 C218 0.959 . S
H207 C221 0.929 . S
H208 C222 0.931 . S
H209 C224 0.930 1_554 S
C210 H198 0.930 . S
C210 C211 1.399 . S
C210 C215 1.399 . S
C211 C210 1.399 . S
C211 C212 1.376 1_554 S
C212 H199 0.930 . S
C212 C211 1.376 1_556 S
C212 C213 1.388 . S
C213 H200 0.930 . S
C213 C212 1.388 . S
C213 C214 1.390 . S
C214 C213 1.390 . S
C214 C215 1.394 1_556 S
C214 C220 1.465 . S
C215 C210 1.399 . S
C215 C214 1.394 1_554 S
C215 C216 1.516 . S
C216 C215 1.516 . S
C216 C217 1.502 . S
C216 C218 1.561 . S
C216 C219 1.504 1_554 S
C217 H201 0.959 . S
C217 H202 0.959 . S
C217 H203 0.961 . S
C217 C216 1.502 . S
C218 H204 0.960 . S
C218 H205 0.961 . S
C218 H206 0.959 . S
C218 C216 1.561 . S
C219 C216 1.504 1_556 S
C219 C220 1.417 . S
C219 C224 1.393 . S
C220 C214 1.465 . S
C220 C219 1.417 . S
C220 C221 1.399 . S
C221 H207 0.929 . S
C221 C220 1.399 . S
C221 C222 1.385 . S
C222 H208 0.931 . S
C222 C221 1.385 . S
C222 C223 1.389 . S
C223 C222 1.389 . S
C223 C224 1.387 . S
C224 H209 0.930 1_556 S
C224 C219 1.393 . S
C224 C223 1.387 . S
H225 C237 0.930 . S
H226 C239 0.930 . S
H227 C240 0.930 . S
H228 C244 0.959 . S
H229 C244 0.959 . S
H230 C244 0.961 . S
H231 C245 0.960 1_455 S
H232 C245 0.961 . S
H233 C245 0.959 1_455 S
H234 C248 0.929 . S
H235 C249 0.931 . S
H236 C251 0.930 . S
C237 H225 0.930 . S
C237 C238 1.399 . S
C237 C242 1.399 . S
C238 C237 1.399 . S
C238 C239 1.376 . S
C239 H226 0.930 . S
C239 C238 1.376 . S
C239 C240 1.388 . S
C240 H227 0.930 . S
C240 C239 1.388 . S
C240 C241 1.390 . S
C241 C240 1.390 . S
C241 C242 1.394 . S
C241 C247 1.465 . S
C242 C237 1.399 . S
C242 C241 1.394 . S
C242 C243 1.516 . S
C243 C242 1.516 . S
C243 C244 1.502 1_455 S
C243 C245 1.561 1_455 S
C243 C246 1.526 1_455 S
C244 H228 0.959 . S
C244 H229 0.959 . S
C244 H230 0.961 . S
C244 C243 1.502 1_655 S
C245 H231 0.960 1_655 S
C245 H232 0.961 . S
C245 H233 0.959 1_655 S
C245 C243 1.561 1_655 S
C246 C243 1.526 1_655 S
C246 C247 1.396 1_655 S
C246 C251 1.390 . S
C247 C241 1.465 . S
C247 C246 1.396 1_455 S
C247 C248 1.399 . S
C248 H234 0.929 . S
C248 C247 1.399 . S
C248 C249 1.385 1_455 S
C249 H235 0.931 . S
C249 C248 1.385 1_655 S
C249 C250 1.389 . S
C250 C249 1.389 . S
C250 C251 1.387 . S
C251 H236 0.930 . S
C251 C246 1.390 . S
C251 C250 1.387 . S
H252 C264 0.930 . S
H253 C266 0.930 . S
H254 C267 0.930 . S
H255 C271 0.959 . S
H256 C271 0.959 . S
H257 C271 0.961 . S
H258 C272 0.960 . S
H259 C272 0.961 . S
H260 C272 0.959 . S
H261 C275 0.929 1_545 S
H262 C276 0.931 . S
H263 C278 0.930 . S
C264 H252 0.930 . S
C264 C265 1.399 . S
C264 C269 1.399 . S
C265 C264 1.399 . S
C265 C266 1.376 1_556 S
C266 H253 0.930 . S
C266 C265 1.376 1_554 S
C266 C267 1.388 . S
C267 H254 0.930 . S
C267 C266 1.388 . S
C267 C268 1.390 . S
C268 C267 1.390 . S
C268 C269 1.394 1_554 S
C268 C274 1.465 1_545 S
C269 C264 1.399 . S
C269 C268 1.394 1_556 S
C269 C270 1.516 1_545 S
C270 C269 1.516 1_565 S
C270 C271 1.502 . S
C270 C272 1.561 . S
C270 C273 1.526 . S
C271 H255 0.959 . S
C271 H256 0.959 . S
C271 H257 0.961 . S
C271 C270 1.502 . S
C272 H258 0.960 . S
C272 H259 0.961 . S
C272 H260 0.959 . S
C272 C270 1.561 . S
C273 C270 1.526 . S
C273 C274 1.396 1_556 S
C273 C278 1.390 . S
C274 C268 1.465 1_565 S
C274 C273 1.396 1_554 S
C274 C275 1.399 . S
C275 H261 0.929 1_565 S
C275 C274 1.399 . S
C275 C276 1.385 . S
C276 H262 0.931 . S
C276 C275 1.385 . S
C276 C277 1.389 . S
C277 C276 1.389 . S
C277 C278 1.387 1_554 S
C278 H263 0.930 . S
C278 C273 1.390 . S
C278 C277 1.387 1_556 S
H279 C291 0.930 . S
H280 C293 0.930 . S
H281 C294 0.930 . S
H282 C298 0.959 . S
H283 C298 0.959 . S
H284 C298 0.961 . S
H285 C299 0.960 . S
H286 C299 0.961 . S
H287 C299 0.959 . S
H288 C302 0.929 . S
H289 C303 0.931 . S
H290 C305 0.930 . S
C291 H279 0.930 . S
C291 C292 1.399 . S
C291 C296 1.399 . S
C292 C291 1.399 . S
C292 C293 1.376 . S
C293 H280 0.930 . S
C293 C292 1.376 . S
C293 C294 1.388 . S
C294 H281 0.930 . S
C294 C293 1.388 . S
C294 C295 1.390 . S
C295 C294 1.390 . S
C295 C296 1.394 . S
C295 C301 1.465 . S
C296 C291 1.399 . S
C296 C295 1.394 . S
C296 C297 1.516 . S
C297 C296 1.516 . S
C297 C298 1.502 . S
C297 C299 1.561 . S
C297 C300 1.526 . S
C298 H282 0.959 . S
C298 H283 0.959 . S
C298 H284 0.961 . S
C298 C297 1.502 . S
C299 H285 0.960 . S
C299 H286 0.961 . S
C299 H287 0.959 . S
C299 C297 1.561 . S
C300 C297 1.526 . S
C300 C301 1.396 . S
C300 C305 1.390 . S
C301 C295 1.465 . S
C301 C300 1.396 . S
C301 C302 1.399 . S
C302 H288 0.929 . S
C302 C301 1.399 . S
C302 C303 1.385 . S
C303 H289 0.931 . S
C303 C302 1.385 . S
C303 C304 1.389 . S
C304 C303 1.389 . S
C304 C305 1.387 . S
C305 H290 0.930 . S
C305 C300 1.390 . S
C305 C304 1.387 . S
H306 C318 0.930 . S
H307 C320 0.930 . S
H308 C321 0.930 . S
H309 C325 0.959 . S
H310 C325 0.959 . S
H311 C325 0.961 1_455 S
H312 C326 0.960 . S
H313 C326 0.961 . S
H314 C326 0.959 . S
H315 C329 0.931 . S
H316 C330 0.931 . S
H317 C332 0.930 . S
C318 H306 0.930 . S
C318 C319 1.399 . S
C318 C323 1.399 . S
C319 C318 1.399 . S
C319 C320 1.376 . S
C320 H307 0.930 . S
C320 C319 1.376 . S
C320 C321 1.388 . S
C321 H308 0.930 . S
C321 C320 1.388 . S
C321 C322 1.387 1_455 S
C322 C321 1.387 1_655 S
C322 C323 1.380 1_655 S
C322 C328 1.481 . S
C323 C318 1.399 . S
C323 C322 1.380 1_455 S
C323 C324 1.520 1_455 S
C324 C323 1.520 1_655 S
C324 C325 1.485 1_554 S
C324 C326 1.582 . S
C324 C327 1.520 1_554 S
C325 H309 0.959 . S
C325 H310 0.959 . S
C325 H311 0.961 1_655 S
C325 C324 1.485 1_556 S
C326 H312 0.960 . S
C326 H313 0.961 . S
C326 H314 0.959 . S
C326 C324 1.582 . S
C327 C324 1.520 1_556 S
C327 C328 1.396 1_556 S
C327 C332 1.390 . S
C328 C322 1.481 . S
C328 C327 1.396 1_554 S
C328 C329 1.401 . S
C329 H315 0.931 . S
C329 C328 1.401 . S
C329 C330 1.382 1_554 S
C330 H316 0.931 . S
C330 C329 1.382 1_556 S
C330 C331 1.389 . S
C331 C330 1.389 . S
C331 C332 1.387 . S
C332 H317 0.930 . S
C332 C327 1.390 . S
C332 C331 1.387 . S
H333 C345 0.930 . S
H334 C347 0.930 . S
H335 C348 0.930 . S
H336 C352 0.959 . S
H337 C352 0.959 1_565 S
H338 C352 0.961 . S
H339 C353 0.960 . S
H340 C353 0.961 1_565 S
H341 C353 0.959 . S
H342 C356 0.929 . S
H343 C357 0.931 . S
H344 C359 0.930 . S
C345 H333 0.930 . S
C345 C346 1.399 . S
C345 C350 1.399 . S
C346 C345 1.399 . S
C346 C347 1.376 . S
C347 H334 0.930 . S
C347 C346 1.376 . S
C347 C348 1.388 . S
C348 H335 0.930 . S
C348 C347 1.388 . S
C348 C349 1.390 . S
C349 C348 1.390 . S
C349 C350 1.394 . S
C349 C355 1.465 1_545 S
C350 C345 1.399 . S
C350 C349 1.394 . S
C350 C351 1.516 . S
C351 C350 1.516 . S
C351 C352 1.502 . S
C351 C353 1.561 . S
C351 C354 1.526 1_545 S
C352 H336 0.959 . S
C352 H337 0.959 1_545 S
C352 H338 0.961 . S
C352 C351 1.502 . S
C353 H339 0.960 . S
C353 H340 0.961 1_545 S
C353 H341 0.959 . S
C353 C351 1.561 . S
C354 C351 1.526 1_565 S
C354 C355 1.396 . S
C354 C359 1.390 . S
C355 C349 1.465 1_565 S
C355 C354 1.396 . S
C355 C356 1.399 . S
C356 H342 0.929 . S
C356 C355 1.399 . S
C356 C357 1.385 . S
C357 H343 0.931 . S
C357 C356 1.385 . S
C357 C358 1.389 . S
C358 C357 1.389 . S
C358 C359 1.387 . S
C359 H344 0.930 . S
C359 C354 1.390 . S
C359 C358 1.387 . S
C157 C3 1.498 . S
C169 C76 1.499 . S
C184 C40 1.522 . S
C196 C111 1.511 . S
C211 C14 1.348 . S
C223 C110 1.411 . S
C238 C86 1.544 . S
C250 C39 1.599 . S
C265 C112 1.661 . S
C277 C4 1.671 . S
C292 C50 1.568 . S
C304 C75 1.600 . S
C319 C2 1.408 . S
C331 C122 1.365 . S
C346 C38 1.336 . S
C358 C74 1.355 . S
