# Generated by pormake.
# Topology sra, (4)-cn, num edge types: 1
# Building blocks:
#     Node 0, Type 0, BuildingBlock: TATPOV_clean_sbu_0, # of connection points: 4
#     Node 1, Type 0, BuildingBlock: TATPOV_clean_sbu_0, # of connection points: 4
#     Node 2, Type 0, BuildingBlock: TATPOV_clean_sbu_0, # of connection points: 4
#     Node 3, Type 0, BuildingBlock: TATPOV_clean_sbu_0, # of connection points: 4
#     Node 4, Type 0, BuildingBlock: TATPOV_clean_sbu_0, # of connection points: 4
#     Node 5, Type 0, BuildingBlock: TATPOV_clean_sbu_0, # of connection points: 4
#     Node 6, Type 0, BuildingBlock: TATPOV_clean_sbu_0, # of connection points: 4
#     Node 7, Type 0, BuildingBlock: TATPOV_clean_sbu_0, # of connection points: 4
#     Edge 8, Type (0, 0), BuildingBlock: FUNLAD_clean_linker_0, # of connection points: 2
#     Edge 9, Type (0, 0), BuildingBlock: FUNLAD_clean_linker_0, # of connection points: 2
#     Edge 10, Type (0, 0), BuildingBlock: FUNLAD_clean_linker_0, # of connection points: 2
#     Edge 11, Type (0, 0), BuildingBlock: FUNLAD_clean_linker_0, # of connection points: 2
#     Edge 12, Type (0, 0), BuildingBlock: FUNLAD_clean_linker_0, # of connection points: 2
#     Edge 13, Type (0, 0), BuildingBlock: FUNLAD_clean_linker_0, # of connection points: 2
#     Edge 14, Type (0, 0), BuildingBlock: FUNLAD_clean_linker_0, # of connection points: 2
#     Edge 15, Type (0, 0), BuildingBlock: FUNLAD_clean_linker_0, # of connection points: 2
#     Edge 16, Type (0, 0), BuildingBlock: FUNLAD_clean_linker_0, # of connection points: 2
#     Edge 17, Type (0, 0), BuildingBlock: FUNLAD_clean_linker_0, # of connection points: 2
#     Edge 18, Type (0, 0), BuildingBlock: FUNLAD_clean_linker_0, # of connection points: 2
#     Edge 19, Type (0, 0), BuildingBlock: FUNLAD_clean_linker_0, # of connection points: 2
#     Edge 20, Type (0, 0), BuildingBlock: FUNLAD_clean_linker_0, # of connection points: 2
#     Edge 21, Type (0, 0), BuildingBlock: FUNLAD_clean_linker_0, # of connection points: 2
#     Edge 22, Type (0, 0), BuildingBlock: FUNLAD_clean_linker_0, # of connection points: 2
#     Edge 23, Type (0, 0), BuildingBlock: FUNLAD_clean_linker_0, # of connection points: 2
# Relax obj value: 0.056
# Max RMSD: 0.068
# Mean RMSD: 0.068
data_MOF--net-sra--node1-TATPOV_clean_sbu_0--edge1-FUNLAD_clean_linker_0
_symmetry_space_group_name_H-M    P1
_symmetry_Int_Tables_number       1
_symmetry_cell_setting            triclinic
loop_
_symmetry_equiv_pos_as_xyz
'x, y, z'
_cell_length_a     31.380926
_cell_length_b     50.294475
_cell_length_c     47.301322
_cell_angle_alpha  90.231945
_cell_angle_beta   90.786767
_cell_angle_gamma 90.053678
loop_
_atom_site_label
_atom_site_type_symbol
_atom_site_fract_x
_atom_site_fract_y
_atom_site_fract_z
_atom_type_partial_charge
Zn0 Zn 0.00032 0.1107 0.2263 0.0
Zn1 Zn -0.00063 0.08427 0.17755 0.0
O2 O 0.05682 0.0731 0.19521 0.0
O3 O 0.05888 0.09652 0.23464 0.0
O4 O -0.00258 0.06403 0.1406 0.0
O5 O 0.95068 0.09019 0.24016 0.0
O6 O 0.94658 0.06996 0.19885 0.0
C7 C 0.07596 0.08001 0.21801 0.0
C8 C -0.00577 0.14543 0.17884 0.0
O9 O -0.00155 0.12374 0.16513 0.0
O10 O -0.00802 0.14521 0.20554 0.0
C11 C 0.02812 0.06576 0.12343 0.0
O12 O 0.06079 0.08104 0.13004 0.0
C13 C 0.93258 0.07364 0.22378 0.0
Zn14 Zn 0.04701 0.41041 0.2318 0.0
Zn15 Zn 0.03241 0.43785 0.18504 0.0
O16 O 0.97976 0.44697 0.20904 0.0
O17 O -0.00983 0.42179 0.24647 0.0
O18 O 0.02243 0.45821 0.14869 0.0
O19 O 0.09747 0.43278 0.24156 0.0
O20 O 0.08995 0.45319 0.20067 0.0
C21 C 0.96753 0.43838 0.23295 0.0
C22 C 0.04232 0.37673 0.18348 0.0
O23 O 0.03217 0.39858 0.17161 0.0
O24 O 0.05294 0.37643 0.20939 0.0
C25 C 0.04231 0.45175 0.12643 0.0
O26 O 0.06978 0.43207 0.12761 0.0
C27 C 0.11022 0.44977 0.22396 0.0
Zn28 Zn 0.04117 0.90159 0.79135 0.0
Zn29 Zn 0.03437 0.92276 0.84288 0.0
O30 O 0.08712 0.94125 0.826 0.0
O31 O 0.08898 0.92631 0.78224 0.0
O32 O 0.03002 0.94021 0.88123 0.0
O33 O 0.98129 0.91257 0.7818 0.0
O34 O 0.97705 0.93206 0.82342 0.0
C35 C 0.10386 0.94121 0.80159 0.0
C36 C 0.05104 0.86311 0.83603 0.0
O37 O 0.0423 0.88285 0.85192 0.0
O38 O 0.0537 0.86619 0.80954 0.0
C39 C 0.06177 0.93977 0.89822 0.0
O40 O 0.09661 0.92733 0.89059 0.0
C41 C 0.9606 0.92635 0.79934 0.0
Zn42 Zn 0.03065 0.59753 0.78381 0.0
Zn43 Zn 0.02475 0.57309 0.83239 0.0
O44 O 0.96307 0.57004 0.81621 0.0
O45 O 0.96769 0.59439 0.77781 0.0
O46 O 0.02405 0.55299 0.86934 0.0
O47 O 0.06906 0.56998 0.7677 0.0
O48 O 0.07113 0.55246 0.81021 0.0
C49 C 0.94562 0.58057 0.79445 0.0
C50 C 0.0553 0.63094 0.83012 0.0
O51 O 0.04198 0.61136 0.84458 0.0
O52 O 0.05595 0.62948 0.80342 0.0
C53 C 0.00726 0.56185 0.89181 0.0
O54 O -0.01222 0.58496 0.89122 0.0
C55 C 0.08386 0.55287 0.78469 0.0
Zn56 Zn 0.47854 0.6129 0.73122 0.0
Zn57 Zn 0.49275 0.58403 0.68591 0.0
O58 O 0.55108 0.58161 0.70657 0.0
O59 O 0.54071 0.60989 0.7415 0.0
O60 O 0.49912 0.56268 0.64989 0.0
O61 O 0.43742 0.58632 0.74617 0.0
O62 O 0.44333 0.56448 0.70604 0.0
C63 C 0.56509 0.59437 0.72815 0.0
C64 C 0.46577 0.64304 0.6817 0.0
O65 O 0.48075 0.62191 0.67067 0.0
O66 O 0.45816 0.64384 0.70788 0.0
C67 C 0.52588 0.56902 0.63112 0.0
O68 O 0.55132 0.58938 0.63575 0.0
C69 C 0.42639 0.56719 0.73025 0.0
Zn70 Zn 0.51203 0.91013 0.72908 0.0
Zn71 Zn 0.51449 0.93379 0.67849 0.0
O72 O 0.46382 0.95238 0.69756 0.0
O73 O 0.46226 0.93318 0.73934 0.0
O74 O 0.51839 0.95199 0.64071 0.0
O75 O 0.57044 0.9229 0.73885 0.0
O76 O 0.57391 0.94121 0.69675 0.0
C77 C 0.44751 0.95001 0.72195 0.0
C78 C 0.50059 0.87361 0.68252 0.0
O79 O 0.50262 0.89466 0.66772 0.0
O80 O 0.50453 0.87478 0.70918 0.0
C81 C 0.48855 0.94984 0.62239 0.0
O82 O 0.45468 0.93569 0.62846 0.0
C83 C 0.59095 0.93597 0.72074 0.0
Zn84 Zn 0.52074 0.40053 0.30326 0.0
Zn85 Zn 0.52342 0.43161 0.34735 0.0
O86 O 0.5835 0.43679 0.33081 0.0
O87 O 0.58388 0.40491 0.29875 0.0
O88 O 0.52393 0.45449 0.3827 0.0
O89 O 0.48036 0.4246 0.28283 0.0
O90 O 0.47377 0.44693 0.32262 0.0
C91 C 0.60315 0.42309 0.31239 0.0
C92 C 0.50294 0.37187 0.35258 0.0
O93 O 0.51474 0.39383 0.36377 0.0
O94 O 0.49866 0.36997 0.32603 0.0
C95 C 0.5554 0.45298 0.39987 0.0
O96 O 0.58715 0.43702 0.39381 0.0
C97 C 0.46254 0.44278 0.29691 0.0
Zn98 Zn 0.51503 0.11445 0.29384 0.0
Zn99 Zn 0.51501 0.08392 0.33975 0.0
O100 O 0.45823 0.07411 0.32034 0.0
O101 O 0.45635 0.10103 0.28374 0.0
O102 O 0.51502 0.06164 0.37507 0.0
O103 O 0.5648 0.09461 0.27884 0.0
O104 O 0.56797 0.07087 0.31784 0.0
C105 C 0.4393 0.08292 0.2983 0.0
C106 C 0.52114 0.145 0.34458 0.0
O107 O 0.51636 0.12224 0.35585 0.0
O108 O 0.52366 0.14713 0.31801 0.0
C109 C 0.5447 0.06401 0.39347 0.0
O110 O 0.57605 0.08069 0.38876 0.0
C111 C 0.58237 0.07661 0.2935 0.0
C112 C 0.06303 0.3294 0.17611 0.0
C113 C 0.03759 0.35118 0.16827 0.0
C114 C 0.05373 0.30396 0.16582 0.0
C115 C 0.01825 0.2997 0.14785 0.0
C116 C -0.00593 0.32168 0.13893 0.0
C117 C 0.00406 0.3473 0.1487 0.0
C118 C 0.00203 0.2724 0.1424 0.0
C119 C 0.02777 0.25105 0.14107 0.0
C120 C 0.01229 0.22355 0.14585 0.0
C121 C 0.03452 0.20193 0.13432 0.0
C122 C 0.02598 0.17594 0.14321 0.0
C123 C -0.00395 0.17135 0.16445 0.0
H124 H 0.96298 0.2348 0.17539 0.0
C125 C 0.97237 0.1928 0.17493 0.0
C126 C 0.98008 0.21861 0.16555 0.0
H127 H 0.94925 0.18975 0.19142 0.0
H128 H 0.08903 0.33186 0.1912 0.0
H129 H 0.07251 0.28745 0.17367 0.0
H130 H 0.96632 0.31888 0.12536 0.0
H131 H -0.01628 0.36373 0.1425 0.0
H132 H 0.96767 0.2696 0.14199 0.0
H133 H 0.06191 0.25388 0.13891 0.0
H134 H 0.0598 0.20526 0.11936 0.0
H135 H 0.04499 0.15973 0.13504 0.0
C136 C 0.08245 0.81785 0.83305 0.0
C137 C 0.05753 0.83624 0.84786 0.0
C138 C 0.08551 0.79156 0.84199 0.0
C139 C 0.06348 0.78288 0.86597 0.0
C140 C 0.03928 0.8014 0.88123 0.0
C141 C 0.03681 0.828 0.87249 0.0
C142 C 0.06106 0.75407 0.87274 0.0
C143 C 0.09313 0.73726 0.86671 0.0
C144 C 0.08693 0.7083 0.86197 0.0
C145 C 0.11209 0.69599 0.84143 0.0
C146 C 0.10289 0.67028 0.83213 0.0
C147 C 0.06905 0.65597 0.84376 0.0
H148 H 0.03526 0.70207 0.89136 0.0
C149 C 0.04602 0.66726 0.86606 0.0
C150 C 0.05462 0.6934 0.87497 0.0
H151 H 0.01982 0.65652 0.87539 0.0
H152 H 0.09881 0.82362 0.814 0.0
H153 H 0.10334 0.77781 0.82907 0.0
H154 H 0.0215 0.79513 0.89951 0.0
H155 H 0.01715 0.84175 0.88421 0.0
H156 H 0.03056 0.74644 0.87962 0.0
H157 H 0.12355 0.74554 0.8604 0.0
H158 H 0.13736 0.70689 0.8312 0.0
H159 H 0.12136 0.6619 0.81508 0.0
C160 C 0.43498 0.6881 0.67379 0.0
C161 C 0.46312 0.66797 0.66539 0.0
C162 C 0.43932 0.71392 0.66346 0.0
C163 C 0.4724 0.72018 0.64483 0.0
C164 C 0.49848 0.6996 0.63484 0.0
C165 C 0.49352 0.6736 0.64473 0.0
C166 C 0.48551 0.74819 0.64037 0.0
C167 C 0.45847 0.76886 0.64212 0.0
C168 C 0.47369 0.7961 0.64885 0.0
C169 C 0.45191 0.81836 0.63815 0.0
C170 C 0.46234 0.84399 0.64779 0.0
C171 C 0.49354 0.8475 0.66905 0.0
H172 H 0.52302 0.78314 0.67833 0.0
C173 C 0.51584 0.82531 0.6793 0.0
C174 C 0.50637 0.79992 0.6691 0.0
H175 H 0.53998 0.82756 0.69575 0.0
H176 H 0.41124 0.68426 0.68969 0.0
H177 H 0.41908 0.72929 0.67207 0.0
H178 H 0.5244 0.70394 0.62066 0.0
H179 H 0.51583 0.65848 0.63802 0.0
H180 H 0.51949 0.75208 0.63872 0.0
H181 H 0.42427 0.7655 0.64132 0.0
H182 H 0.42619 0.81585 0.62285 0.0
H183 H 0.44451 0.86085 0.63977 0.0
C184 C 0.47151 0.32729 0.36117 0.0
C185 C 0.5 0.34743 0.36954 0.0
C186 C 0.47565 0.30165 0.37203 0.0
C187 C 0.50898 0.29556 0.39114 0.0
C188 C 0.5355 0.31619 0.40106 0.0
C189 C 0.53067 0.34206 0.39065 0.0
C190 C 0.52177 0.26753 0.39605 0.0
C191 C 0.4941 0.24711 0.39436 0.0
C192 C 0.50762 0.2198 0.38665 0.0
C193 C 0.48311 0.19789 0.39501 0.0
C194 C 0.48993 0.17274 0.38305 0.0
C195 C 0.52038 0.16943 0.36184 0.0
H196 H 0.55903 0.23242 0.35944 0.0
C197 C 0.54619 0.19102 0.35445 0.0
C198 C 0.54022 0.21589 0.36693 0.0
H199 H 0.56976 0.18893 0.33806 0.0
H200 H 0.44767 0.33096 0.34486 0.0
H201 H 0.45509 0.28624 0.36343 0.0
H202 H 0.56164 0.31197 0.41555 0.0
H203 H 0.55329 0.35722 0.39726 0.0
H204 H 0.55574 0.26341 0.39755 0.0
H205 H 0.46007 0.25093 0.39537 0.0
H206 H 0.45745 0.20048 0.40986 0.0
H207 H 0.46934 0.1564 0.38886 0.0
C208 C 0.37911 0.07989 0.26346 0.0
C209 C 0.3971 0.07244 0.2896 0.0
C210 C 0.33816 0.07169 0.25574 0.0
C211 C 0.31417 0.05571 0.27398 0.0
C212 C 0.33257 0.04765 0.29978 0.0
C213 C 0.37378 0.05577 0.30747 0.0
C214 C 0.26833 0.05034 0.2684 0.0
C215 C 0.25023 0.05186 0.24247 0.0
C216 C 0.20369 0.05512 0.23776 0.0
C217 C 0.18622 0.0504 0.21069 0.0
C218 C 0.144 0.0574 0.20441 0.0
C219 C 0.11879 0.06963 0.22503 0.0
H220 H 0.19001 0.07104 0.27956 0.0
C221 C 0.13578 0.07341 0.25237 0.0
C222 C 0.17769 0.0663 0.25868 0.0
H223 H 0.1171 0.08268 0.26878 0.0
H224 H 0.39625 0.09268 0.24915 0.0
H225 H 0.32488 0.0791 0.23608 0.0
H226 H 0.31459 0.03562 0.31437 0.0
H227 H 0.38679 0.04967 0.32775 0.0
H228 H 0.24854 0.04675 0.28665 0.0
H229 H 0.27026 0.05263 0.22394 0.0
H230 H 0.20569 0.0421 0.19411 0.0
H231 H 0.13175 0.05425 0.18313 0.0
C232 C 0.66767 0.45257 0.30966 0.0
C233 C 0.64891 0.42725 0.30741 0.0
C234 C 0.71094 0.45602 0.3036 0.0
C235 C 0.73602 0.43404 0.29593 0.0
C236 C 0.71739 0.40874 0.29455 0.0
C237 C 0.67419 0.40543 0.29981 0.0
C238 C 0.78193 0.43637 0.28988 0.0
C239 C 0.7989 0.45664 0.27533 0.0
C240 C 0.84382 0.45558 0.26601 0.0
C241 C 0.85447 0.46439 0.23887 0.0
C242 C 0.89531 0.45982 0.22826 0.0
C243 C 0.92611 0.44653 0.24479 0.0
H244 H 0.86877 0.43788 0.30458 0.0
C245 C 0.91615 0.43949 0.27267 0.0
C246 C 0.87557 0.44405 0.28319 0.0
H247 H 0.9394 0.42974 0.28622 0.0
H248 H 0.64876 0.46967 0.31555 0.0
H249 H 0.72483 0.47569 0.30529 0.0
H250 H 0.7362 0.39151 0.28891 0.0
H251 H 0.66062 0.38565 0.2982 0.0
H252 H 0.80158 0.41919 0.2949 0.0
H253 H 0.7785 0.47248 0.26743 0.0
H254 H 0.83059 0.47358 0.22536 0.0
H255 H 0.90215 0.4657 0.20679 0.0
C256 C 0.15583 0.96051 0.76797 0.0
C257 C 0.14258 0.95695 0.79596 0.0
C258 C 0.19571 0.97132 0.76233 0.0
C259 C 0.22336 0.97888 0.78463 0.0
C260 C 0.20894 0.97691 0.81255 0.0
C261 C 0.16878 0.96621 0.8182 0.0
C262 C 0.26928 0.98417 0.77982 0.0
C263 C 0.28521 0.99097 0.75448 0.0
C264 C 0.33036 0.98616 0.74662 0.0
C265 C 0.34003 0.98348 0.71779 0.0
C266 C 0.37944 0.97334 0.70946 0.0
C267 C 0.4097 0.96557 0.7299 0.0
H268 H 0.35765 0.984 0.78919 0.0
C269 C 0.4016 0.97048 0.75855 0.0
C270 C 0.3626 0.981 0.76685 0.0
H271 H 0.42495 0.96532 0.7747 0.0
H272 H 0.13618 0.95375 0.75035 0.0
H273 H 0.20559 0.97184 0.74054 0.0
H274 H 0.22966 0.9824 0.83014 0.0
H275 H 0.1594 0.96377 0.83999 0.0
H276 H 0.29053 0.97906 0.79719 0.0
H277 H 0.26347 0.99679 0.73757 0.0
H278 H 0.3161 0.98762 0.70167 0.0
H279 H 0.38506 0.96997 0.68718 0.0
C280 C 0.63555 0.57047 0.72962 0.0
C281 C 0.61013 0.59224 0.73738 0.0
C282 C 0.67831 0.56916 0.73849 0.0
C283 C 0.69633 0.58985 0.75484 0.0
C284 C 0.67092 0.61154 0.76242 0.0
C285 C 0.62822 0.6126 0.7541 0.0
C286 C 0.7422 0.5907 0.7624 0.0
C287 C 0.76587 0.56908 0.76827 0.0
C288 C 0.81206 0.57153 0.77485 0.0
C289 C 0.83128 0.55538 0.79554 0.0
C290 C 0.87469 0.55833 0.80236 0.0
C291 C 0.89961 0.57713 0.7881 0.0
H292 H 0.82363 0.60225 0.74379 0.0
C293 C 0.88033 0.59277 0.76694 0.0
C294 C 0.83719 0.59001 0.7604 0.0
H295 H 0.89853 0.60733 0.75537 0.0
H296 H 0.62242 0.55452 0.71673 0.0
H297 H 0.69748 0.55245 0.73182 0.0
H298 H 0.68422 0.62784 0.77475 0.0
H299 H 0.60962 0.62975 0.76029 0.0
H300 H 0.7567 0.61029 0.7643 0.0
H301 H 0.75098 0.54961 0.76941 0.0
H302 H 0.81256 0.54083 0.80677 0.0
H303 H 0.88872 0.54584 0.81859 0.0
C304 C 0.65144 0.94027 0.75512 0.0
C305 C 0.6353 0.94395 0.72756 0.0
C306 C 0.69425 0.94496 0.76145 0.0
C307 C 0.72213 0.95371 0.74038 0.0
C308 C 0.70568 0.95832 0.71303 0.0
C309 C 0.66261 0.95361 0.70667 0.0
C310 C 0.76896 0.95504 0.74538 0.0
C311 C 0.78712 0.95591 0.77139 0.0
C312 C 0.83303 0.95059 0.77699 0.0
C313 C 0.85077 0.9575 0.80346 0.0
C314 C 0.89247 0.95011 0.81069 0.0
C315 C 0.91717 0.93546 0.79161 0.0
H316 H 0.84553 0.92973 0.73751 0.0
C317 C 0.89968 0.92896 0.76495 0.0
C318 C 0.85813 0.93631 0.75775 0.0
H319 H 0.91774 0.91762 0.74973 0.0
H320 H 0.63128 0.9329 0.77177 0.0
H321 H 0.70543 0.94036 0.78259 0.0
H322 H 0.72648 0.96482 0.69632 0.0
H323 H 0.65113 0.95663 0.68523 0.0
H324 H 0.78895 0.95403 0.72687 0.0
H325 H 0.7675 0.95966 0.78969 0.0
H326 H 0.83202 0.96821 0.81883 0.0
H327 H 0.90501 0.95545 0.8314 0.0
C328 C 0.3692 0.53315 0.72045 0.0
C329 C 0.39227 0.54912 0.73971 0.0
C330 C 0.33277 0.51945 0.72916 0.0
C331 C 0.31888 0.52158 0.75733 0.0
C332 C 0.34435 0.53558 0.77693 0.0
C333 C 0.3804 0.5493 0.76824 0.0
C334 C 0.27607 0.51273 0.76671 0.0
C335 C 0.24245 0.50992 0.7489 0.0
C336 C 0.19772 0.51407 0.75807 0.0
C337 C 0.16854 0.52406 0.73805 0.0
C338 C 0.1299 0.53489 0.74658 0.0
C339 C 0.11937 0.53577 0.77535 0.0
H340 H 0.20563 0.5034 0.80242 0.0
C341 C 0.14617 0.52297 0.79504 0.0
C342 C 0.18501 0.5121 0.78648 0.0
H343 H 0.1385 0.52284 0.8173 0.0
H344 H 0.37804 0.53226 0.69841 0.0
H345 H 0.31503 0.50804 0.71355 0.0
H346 H 0.33493 0.53732 0.79882 0.0
H347 H 0.39803 0.56095 0.78378 0.0
H348 H 0.2706 0.51379 0.78927 0.0
H349 H 0.24766 0.51006 0.72628 0.0
H350 H 0.17697 0.52542 0.71596 0.0
H351 H 0.10948 0.54404 0.73074 0.0
C352 C 0.64666 0.04706 0.29896 0.0
C353 C 0.61983 0.06275 0.28187 0.0
C354 C 0.68432 0.03647 0.28801 0.0
C355 C 0.69568 0.0415 0.25977 0.0
C356 C 0.66712 0.05547 0.24232 0.0
C357 C 0.62983 0.06609 0.25322 0.0
C358 C 0.73837 0.0353 0.24822 0.0
C359 C 0.77362 0.03331 0.26461 0.0
C360 C 0.81703 0.03865 0.25377 0.0
C361 C 0.84711 0.0495 0.27271 0.0
C362 C 0.8853 0.05987 0.26294 0.0
C363 C 0.89461 0.05935 0.23396 0.0
H364 H 0.80611 0.02694 0.20989 0.0
C365 C 0.86628 0.04644 0.2152 0.0
C366 C 0.82774 0.03612 0.22502 0.0
H367 H 0.87299 0.0453 0.19283 0.0
H368 H 0.63937 0.04374 0.32098 0.0
H369 H 0.7047 0.02496 0.30192 0.0
H370 H 0.67468 0.05943 0.22044 0.0
H371 H 0.60941 0.07759 0.23926 0.0
H372 H 0.74172 0.03741 0.22554 0.0
H373 H 0.77046 0.03281 0.28741 0.0
H374 H 0.84007 0.05142 0.29499 0.0
H375 H 0.9069 0.06913 0.27809 0.0
C376 C 0.17881 0.47175 0.21032 0.0
C377 C 0.14915 0.46498 0.23105 0.0
C378 C 0.21898 0.48171 0.21833 0.0
C379 C 0.22965 0.48529 0.24716 0.0
C380 C 0.19841 0.4808 0.26748 0.0
C381 C 0.1588 0.47046 0.25956 0.0
C382 C 0.27381 0.49069 0.25734 0.0
C383 C 0.30791 0.48021 0.24442 0.0
C384 C 0.35047 0.47629 0.2582 0.0
C385 C 0.35773 0.47917 0.2876 0.0
C386 C 0.39556 0.46987 0.30015 0.0
C387 C 0.42655 0.45733 0.28367 0.0
H388 H 0.37873 0.46325 0.21901 0.0
C389 C 0.4206 0.45624 0.25418 0.0
C390 C 0.38311 0.46565 0.24165 0.0
H391 H 0.44418 0.44703 0.24081 0.0
H392 H 0.17194 0.4679 0.18818 0.0
H393 H 0.24197 0.48574 0.20204 0.0
H394 H 0.20559 0.48362 0.28977 0.0
H395 H 0.13619 0.46581 0.27594 0.0
H396 H 0.27731 0.4997 0.27809 0.0
H397 H 0.30344 0.47102 0.22377 0.0
H398 H 0.3337 0.48707 0.30141 0.0
H399 H 0.3993 0.47104 0.32292 0.0
C400 C 0.06181 0.05205 0.07788 0.0
C401 C 0.0274 0.05053 0.09652 0.0
C402 C 0.06143 0.03756 0.05259 0.0
C403 C 0.02664 0.02103 0.04542 0.0
C404 C -0.00801 0.01987 0.06385 0.0
C405 C -0.0076 0.03433 0.08917 0.0
C406 C 0.02477 1.00546 0.01858 0.0
C407 C 0.05974 0.99762 1.00454 0.0
C408 C 0.05842 0.98215 0.97762 0.0
C409 C 0.09494 0.96803 0.96962 0.0
C410 C 0.0958 0.95399 0.94408 0.0
C411 C 0.06017 0.95389 0.92575 0.0
H412 H -0.00571 0.99325 0.96415 0.0
C413 C 0.02353 0.96799 0.93369 0.0
C414 C 0.02266 0.98204 0.95928 0.0
H415 H -0.00436 0.9685 0.91996 0.0
H416 H 0.08911 0.06453 0.08275 0.0
H417 H 0.08814 0.03978 0.03858 0.0
H418 H 0.96458 1.00754 0.05875 0.0
H419 H 0.96526 0.03279 0.10297 0.0
H420 H -0.00652 0.99928 0.01101 0.0
H421 H 0.09103 1.00173 0.01362 0.0
H422 H 0.12306 0.9679 0.98318 0.0
H423 H 0.12461 0.94342 0.93861 0.0
C424 C -0.00581 0.55673 0.94382 0.0
C425 C 0.01179 0.54691 0.91867 0.0
C426 C 0.00019 0.54319 0.96938 0.0
C427 C 0.02386 0.51941 0.97032 0.0
C428 C 0.04124 0.50962 0.94514 0.0
C429 C 0.03515 0.52309 0.91962 0.0
C430 C 0.03299 0.50482 0.9971 0.0
C431 C 0.00932 0.50689 0.02064 0.0
C432 C 0.01874 0.49234 0.04747 0.0
C433 C -0.00069 0.50099 0.07247 0.0
C434 C 0.00695 0.48794 0.09813 0.0
C435 C 0.03421 0.46581 0.09938 0.0
H436 H 0.06027 0.46184 0.03003 0.0
C437 C 0.05337 0.45695 0.07437 0.0
C438 C 0.04561 0.46991 0.04872 0.0
H439 H 0.07416 0.43977 0.0745 0.0
H440 H 0.97628 0.57513 0.94388 0.0
H441 H -0.01281 0.55189 0.98833 0.0
H442 H 0.05981 0.49146 0.94519 0.0
H443 H 0.04929 0.51497 0.9007 0.0
H444 H 0.0604 0.49174 0.99698 0.0
H445 H 0.98185 0.51997 0.02059 0.0
H446 H 0.97821 0.51803 0.07222 0.0
H447 H -0.00848 0.49524 0.11697 0.0
C448 C 0.51952 0.48194 0.43586 0.0
C449 C 0.55597 0.46831 0.42672 0.0
C450 C 0.51993 0.49567 0.46167 0.0
C451 C 0.55691 0.49613 0.47888 0.0
C452 C 0.59354 0.48303 0.4694 0.0
C453 C 0.59302 0.4691 0.44376 0.0
C454 C 0.55885 0.51057 0.50639 0.0
C455 C 0.52462 0.51428 0.52287 0.0
C456 C 0.52667 0.52805 0.55079 0.0
C457 C 0.49583 0.52207 0.57104 0.0
C458 C 0.49603 0.53499 0.59728 0.0
C459 C 0.5268 0.5545 0.60376 0.0
H460 H 0.58115 0.55329 0.54197 0.0
C461 C 0.5576 0.5606 0.58346 0.0
C462 C 0.55756 0.54755 0.55727 0.0
H463 H 0.58156 0.57566 0.58767 0.0
H464 H 0.49052 0.48185 0.42316 0.0
H465 H 0.49144 0.50619 0.46785 0.0
H466 H 0.62258 0.48327 0.48206 0.0
H467 H 0.62175 0.45897 0.4373 0.0
H468 H 0.59008 0.51687 0.51401 0.0
H469 H 0.49421 0.50567 0.51647 0.0
H470 H 0.47148 0.5073 0.56657 0.0
H471 H 0.47167 0.52989 0.61234 0.0
C472 C 0.52828 0.97805 0.58791 0.0
C473 C 0.49208 0.96292 0.59449 0.0
C474 C 0.53166 0.99033 0.56156 0.0
C475 C 0.49893 0.9876 0.54106 0.0
C476 C 0.4626 0.97273 0.54782 0.0
C477 C 0.45924 0.96044 0.57416 0.0
C478 C 0.50061 1.00062 0.51285 0.0
C479 C 0.53697 0.00868 0.50061 0.0
C480 C 0.53826 0.02218 0.47268 0.0
C481 C 0.57337 0.03841 0.46658 0.0
C482 C 0.57566 0.05181 0.44081 0.0
C483 C 0.543 0.04907 0.42037 0.0
H484 H 0.47914 1.00591 0.4553 0.0
C485 C 0.50834 0.03231 0.42613 0.0
C486 C 0.50601 0.01895 0.45195 0.0
H487 H 0.48283 0.02954 0.41074 0.0
H488 H 0.55401 0.98056 0.60319 0.0
H489 H 0.5596 1.0023 0.55773 0.0
H490 H 0.43672 0.97046 0.5326 0.0
H491 H 0.43083 0.94901 0.57855 0.0
H492 H 0.4704 1.00346 0.50185 0.0
H493 H 0.56724 1.00596 0.51156 0.0
H494 H 0.5989 0.04106 0.482 0.0
H495 H 0.60293 0.06445 0.43702 0.0
loop_
_geom_bond_atom_site_label_1
_geom_bond_atom_site_label_2
_geom_bond_distance
_geom_bond_site_symmetry_2
_ccdc_geom_bond_type
Zn0 O3 2.031 . S
Zn0 O5 2.049 1_455 S
Zn0 O10 2.067 . S
Zn1 O2 1.962 . S
Zn1 O4 1.986 . S
Zn1 O6 1.996 1_455 S
Zn1 O9 1.943 . S
O2 Zn1 1.962 . S
O2 C7 1.254 . S
O3 Zn0 2.031 . S
O3 C7 1.269 . S
O4 Zn1 1.986 . S
O4 C11 1.262 . S
O5 Zn0 2.049 1_655 S
O5 C13 1.260 . S
O6 Zn1 1.996 1_655 S
O6 C13 1.257 . S
C7 O2 1.254 . S
C7 O3 1.269 . S
C8 O9 1.249 . S
C8 O10 1.270 . S
O9 Zn1 1.943 . S
O9 C8 1.249 . S
O10 Zn0 2.067 . S
O10 C8 1.270 . S
C11 O4 1.262 . S
C11 O12 1.232 . S
O12 C11 1.232 . S
C13 O5 1.260 . S
C13 O6 1.257 . S
Zn14 O17 2.031 1_455 S
Zn14 O19 2.049 . S
Zn14 O24 2.067 . S
Zn15 O16 1.962 1_455 S
Zn15 O18 1.986 . S
Zn15 O20 1.996 . S
Zn15 O23 1.943 . S
O16 Zn15 1.962 1_655 S
O16 C21 1.254 . S
O17 Zn14 2.031 1_655 S
O17 C21 1.269 . S
O18 Zn15 1.986 . S
O18 C25 1.262 . S
O19 Zn14 2.049 . S
O19 C27 1.260 . S
O20 Zn15 1.996 . S
O20 C27 1.257 . S
C21 O16 1.254 . S
C21 O17 1.269 . S
C22 O23 1.249 . S
C22 O24 1.270 . S
O23 Zn15 1.943 . S
O23 C22 1.249 . S
O24 Zn14 2.067 . S
O24 C22 1.270 . S
C25 O18 1.262 . S
C25 O26 1.232 . S
O26 C25 1.232 . S
C27 O19 1.260 . S
C27 O20 1.257 . S
Zn28 O31 2.031 . S
Zn28 O33 2.049 1_455 S
Zn28 O38 2.067 . S
Zn29 O30 1.962 . S
Zn29 O32 1.986 . S
Zn29 O34 1.996 1_455 S
Zn29 O37 1.943 . S
O30 Zn29 1.962 . S
O30 C35 1.254 . S
O31 Zn28 2.031 . S
O31 C35 1.269 . S
O32 Zn29 1.986 . S
O32 C39 1.262 . S
O33 Zn28 2.049 1_655 S
O33 C41 1.260 . S
O34 Zn29 1.996 1_655 S
O34 C41 1.257 . S
C35 O30 1.254 . S
C35 O31 1.269 . S
C36 O37 1.249 . S
C36 O38 1.270 . S
O37 Zn29 1.943 . S
O37 C36 1.249 . S
O38 Zn28 2.067 . S
O38 C36 1.270 . S
C39 O32 1.262 . S
C39 O40 1.232 . S
O40 C39 1.232 . S
C41 O33 1.260 . S
C41 O34 1.257 . S
Zn42 O45 2.031 1_455 S
Zn42 O47 2.049 . S
Zn42 O52 2.067 . S
Zn43 O44 1.962 1_455 S
Zn43 O46 1.986 . S
Zn43 O48 1.996 . S
Zn43 O51 1.943 . S
O44 Zn43 1.962 1_655 S
O44 C49 1.254 . S
O45 Zn42 2.031 1_655 S
O45 C49 1.269 . S
O46 Zn43 1.986 . S
O46 C53 1.262 . S
O47 Zn42 2.049 . S
O47 C55 1.260 . S
O48 Zn43 1.996 . S
O48 C55 1.257 . S
C49 O44 1.254 . S
C49 O45 1.269 . S
C50 O51 1.249 . S
C50 O52 1.270 . S
O51 Zn43 1.943 . S
O51 C50 1.249 . S
O52 Zn42 2.067 . S
O52 C50 1.270 . S
C53 O46 1.262 . S
C53 O54 1.232 . S
O54 C53 1.232 . S
C55 O47 1.260 . S
C55 O48 1.257 . S
Zn56 O59 2.031 . S
Zn56 O61 2.049 . S
Zn56 O66 2.067 . S
Zn57 O58 1.962 . S
Zn57 O60 1.986 . S
Zn57 O62 1.996 . S
Zn57 O65 1.943 . S
O58 Zn57 1.962 . S
O58 C63 1.254 . S
O59 Zn56 2.031 . S
O59 C63 1.269 . S
O60 Zn57 1.986 . S
O60 C67 1.262 . S
O61 Zn56 2.049 . S
O61 C69 1.260 . S
O62 Zn57 1.996 . S
O62 C69 1.257 . S
C63 O58 1.254 . S
C63 O59 1.269 . S
C64 O65 1.249 . S
C64 O66 1.270 . S
O65 Zn57 1.943 . S
O65 C64 1.249 . S
O66 Zn56 2.067 . S
O66 C64 1.270 . S
C67 O60 1.262 . S
C67 O68 1.232 . S
O68 C67 1.232 . S
C69 O61 1.260 . S
C69 O62 1.257 . S
Zn70 O73 2.031 . S
Zn70 O75 2.049 . S
Zn70 O80 2.067 . S
Zn71 O72 1.962 . S
Zn71 O74 1.986 . S
Zn71 O76 1.996 . S
Zn71 O79 1.943 . S
O72 Zn71 1.962 . S
O72 C77 1.254 . S
O73 Zn70 2.031 . S
O73 C77 1.269 . S
O74 Zn71 1.986 . S
O74 C81 1.262 . S
O75 Zn70 2.049 . S
O75 C83 1.260 . S
O76 Zn71 1.996 . S
O76 C83 1.257 . S
C77 O72 1.254 . S
C77 O73 1.269 . S
C78 O79 1.249 . S
C78 O80 1.270 . S
O79 Zn71 1.943 . S
O79 C78 1.249 . S
O80 Zn70 2.067 . S
O80 C78 1.270 . S
C81 O74 1.262 . S
C81 O82 1.232 . S
O82 C81 1.232 . S
C83 O75 1.260 . S
C83 O76 1.257 . S
Zn84 O87 2.031 . S
Zn84 O89 2.049 . S
Zn84 O94 2.067 . S
Zn85 O86 1.962 . S
Zn85 O88 1.986 . S
Zn85 O90 1.996 . S
Zn85 O93 1.943 . S
O86 Zn85 1.962 . S
O86 C91 1.254 . S
O87 Zn84 2.031 . S
O87 C91 1.269 . S
O88 Zn85 1.986 . S
O88 C95 1.262 . S
O89 Zn84 2.049 . S
O89 C97 1.260 . S
O90 Zn85 1.996 . S
O90 C97 1.257 . S
C91 O86 1.254 . S
C91 O87 1.269 . S
C92 O93 1.249 . S
C92 O94 1.270 . S
O93 Zn85 1.943 . S
O93 C92 1.249 . S
O94 Zn84 2.067 . S
O94 C92 1.270 . S
C95 O88 1.262 . S
C95 O96 1.232 . S
O96 C95 1.232 . S
C97 O89 1.260 . S
C97 O90 1.257 . S
Zn98 O101 2.031 . S
Zn98 O103 2.049 . S
Zn98 O108 2.067 . S
Zn99 O100 1.962 . S
Zn99 O102 1.986 . S
Zn99 O104 1.996 . S
Zn99 O107 1.943 . S
O100 Zn99 1.962 . S
O100 C105 1.254 . S
O101 Zn98 2.031 . S
O101 C105 1.269 . S
O102 Zn99 1.986 . S
O102 C109 1.262 . S
O103 Zn98 2.049 . S
O103 C111 1.260 . S
O104 Zn99 1.996 . S
O104 C111 1.257 . S
C105 O100 1.254 . S
C105 O101 1.269 . S
C106 O107 1.249 . S
C106 O108 1.270 . S
O107 Zn99 1.943 . S
O107 C106 1.249 . S
O108 Zn98 2.067 . S
O108 C106 1.270 . S
C109 O102 1.262 . S
C109 O110 1.232 . S
O110 C109 1.232 . S
C111 O103 1.260 . S
C111 O104 1.257 . S
C112 C113 1.386 . S
C112 C114 1.383 . S
C112 H128 0.951 . S
C113 C112 1.386 . S
C113 C117 1.383 . S
C114 C112 1.383 . S
C114 C115 1.402 . S
C114 H129 0.951 . S
C115 C114 1.402 . S
C115 C116 1.375 . S
C115 C118 1.481 . S
C116 C115 1.375 . S
C116 C117 1.367 . S
C116 H130 0.951 1_455 S
C117 C113 1.383 . S
C117 C116 1.367 . S
C117 H131 0.950 1_455 S
C118 C115 1.481 . S
C118 C119 1.297 . S
C118 H132 0.950 . S
C119 C118 1.297 . S
C119 C120 1.479 . S
C119 H133 0.950 . S
C120 C119 1.479 . S
C120 C121 1.375 . S
C120 C126 1.404 . S
C121 C120 1.375 . S
C121 C122 1.369 . S
C121 H134 0.950 . S
C122 C121 1.369 . S
C122 C123 1.392 . S
C122 H135 0.951 . S
C123 C122 1.392 . S
C123 C125 1.384 . S
H124 C126 0.949 . S
C125 C123 1.384 . S
C125 C126 1.385 . S
C125 H127 0.950 . S
C126 C120 1.404 . S
C126 H124 0.949 . S
C126 C125 1.385 . S
H127 C125 0.950 . S
H128 C112 0.951 . S
H129 C114 0.951 . S
H130 C116 0.951 1_655 S
H131 C117 0.950 1_655 S
H132 C118 0.950 . S
H133 C119 0.950 . S
H134 C121 0.950 . S
H135 C122 0.951 . S
C136 C137 1.386 . S
C136 C138 1.383 . S
C136 H152 0.951 . S
C137 C136 1.386 . S
C137 C141 1.383 . S
C138 C136 1.383 . S
C138 C139 1.402 . S
C138 H153 0.951 . S
C139 C138 1.402 . S
C139 C140 1.375 . S
C139 C142 1.481 . S
C140 C139 1.375 . S
C140 C141 1.367 . S
C140 H154 0.951 . S
C141 C137 1.383 . S
C141 C140 1.367 . S
C141 H155 0.950 . S
C142 C139 1.481 . S
C142 C143 1.297 . S
C142 H156 0.950 . S
C143 C142 1.297 . S
C143 C144 1.479 . S
C143 H157 0.950 . S
C144 C143 1.479 . S
C144 C145 1.375 . S
C144 C150 1.404 . S
C145 C144 1.375 . S
C145 C146 1.369 . S
C145 H158 0.950 . S
C146 C145 1.369 . S
C146 C147 1.392 . S
C146 H159 0.951 . S
C147 C146 1.392 . S
C147 C149 1.384 . S
H148 C150 0.949 . S
C149 C147 1.384 . S
C149 C150 1.385 . S
C149 H151 0.950 . S
C150 C144 1.404 . S
C150 H148 0.949 . S
C150 C149 1.385 . S
H151 C149 0.950 . S
H152 C136 0.951 . S
H153 C138 0.951 . S
H154 C140 0.951 . S
H155 C141 0.950 . S
H156 C142 0.950 . S
H157 C143 0.950 . S
H158 C145 0.950 . S
H159 C146 0.951 . S
C160 C161 1.386 . S
C160 C162 1.383 . S
C160 H176 0.951 . S
C161 C160 1.386 . S
C161 C165 1.383 . S
C162 C160 1.383 . S
C162 C163 1.402 . S
C162 H177 0.951 . S
C163 C162 1.402 . S
C163 C164 1.375 . S
C163 C166 1.481 . S
C164 C163 1.375 . S
C164 C165 1.367 . S
C164 H178 0.951 . S
C165 C161 1.383 . S
C165 C164 1.367 . S
C165 H179 0.950 . S
C166 C163 1.481 . S
C166 C167 1.297 . S
C166 H180 0.950 . S
C167 C166 1.297 . S
C167 C168 1.479 . S
C167 H181 0.950 . S
C168 C167 1.479 . S
C168 C169 1.375 . S
C168 C174 1.404 . S
C169 C168 1.375 . S
C169 C170 1.369 . S
C169 H182 0.950 . S
C170 C169 1.369 . S
C170 C171 1.392 . S
C170 H183 0.951 . S
C171 C170 1.392 . S
C171 C173 1.384 . S
H172 C174 0.949 . S
C173 C171 1.384 . S
C173 C174 1.385 . S
C173 H175 0.950 . S
C174 C168 1.404 . S
C174 H172 0.949 . S
C174 C173 1.385 . S
H175 C173 0.950 . S
H176 C160 0.951 . S
H177 C162 0.951 . S
H178 C164 0.951 . S
H179 C165 0.950 . S
H180 C166 0.950 . S
H181 C167 0.950 . S
H182 C169 0.950 . S
H183 C170 0.951 . S
C184 C185 1.386 . S
C184 C186 1.383 . S
C184 H200 0.951 . S
C185 C184 1.386 . S
C185 C189 1.383 . S
C186 C184 1.383 . S
C186 C187 1.402 . S
C186 H201 0.951 . S
C187 C186 1.402 . S
C187 C188 1.375 . S
C187 C190 1.481 . S
C188 C187 1.375 . S
C188 C189 1.367 . S
C188 H202 0.951 . S
C189 C185 1.383 . S
C189 C188 1.367 . S
C189 H203 0.950 . S
C190 C187 1.481 . S
C190 C191 1.297 . S
C190 H204 0.950 . S
C191 C190 1.297 . S
C191 C192 1.479 . S
C191 H205 0.950 . S
C192 C191 1.479 . S
C192 C193 1.375 . S
C192 C198 1.404 . S
C193 C192 1.375 . S
C193 C194 1.369 . S
C193 H206 0.950 . S
C194 C193 1.369 . S
C194 C195 1.392 . S
C194 H207 0.951 . S
C195 C194 1.392 . S
C195 C197 1.384 . S
H196 C198 0.949 . S
C197 C195 1.384 . S
C197 C198 1.385 . S
C197 H199 0.950 . S
C198 C192 1.404 . S
C198 H196 0.949 . S
C198 C197 1.385 . S
H199 C197 0.950 . S
H200 C184 0.951 . S
H201 C186 0.951 . S
H202 C188 0.951 . S
H203 C189 0.950 . S
H204 C190 0.950 . S
H205 C191 0.950 . S
H206 C193 0.950 . S
H207 C194 0.951 . S
C208 C209 1.386 . S
C208 C210 1.383 . S
C208 H224 0.951 . S
C209 C208 1.386 . S
C209 C213 1.383 . S
C210 C208 1.383 . S
C210 C211 1.402 . S
C210 H225 0.951 . S
C211 C210 1.402 . S
C211 C212 1.375 . S
C211 C214 1.481 . S
C212 C211 1.375 . S
C212 C213 1.367 . S
C212 H226 0.951 . S
C213 C209 1.383 . S
C213 C212 1.367 . S
C213 H227 0.950 . S
C214 C211 1.481 . S
C214 C215 1.297 . S
C214 H228 0.950 . S
C215 C214 1.297 . S
C215 C216 1.479 . S
C215 H229 0.950 . S
C216 C215 1.479 . S
C216 C217 1.375 . S
C216 C222 1.404 . S
C217 C216 1.375 . S
C217 C218 1.369 . S
C217 H230 0.950 . S
C218 C217 1.369 . S
C218 C219 1.392 . S
C218 H231 0.951 . S
C219 C218 1.392 . S
C219 C221 1.384 . S
H220 C222 0.949 . S
C221 C219 1.384 . S
C221 C222 1.385 . S
C221 H223 0.950 . S
C222 C216 1.404 . S
C222 H220 0.949 . S
C222 C221 1.385 . S
H223 C221 0.950 . S
H224 C208 0.951 . S
H225 C210 0.951 . S
H226 C212 0.951 . S
H227 C213 0.950 . S
H228 C214 0.950 . S
H229 C215 0.950 . S
H230 C217 0.950 . S
H231 C218 0.951 . S
C232 C233 1.386 . S
C232 C234 1.383 . S
C232 H248 0.951 . S
C233 C232 1.386 . S
C233 C237 1.383 . S
C234 C232 1.383 . S
C234 C235 1.402 . S
C234 H249 0.951 . S
C235 C234 1.402 . S
C235 C236 1.375 . S
C235 C238 1.481 . S
C236 C235 1.375 . S
C236 C237 1.367 . S
C236 H250 0.951 . S
C237 C233 1.383 . S
C237 C236 1.367 . S
C237 H251 0.950 . S
C238 C235 1.481 . S
C238 C239 1.297 . S
C238 H252 0.950 . S
C239 C238 1.297 . S
C239 C240 1.479 . S
C239 H253 0.950 . S
C240 C239 1.479 . S
C240 C241 1.375 . S
C240 C246 1.404 . S
C241 C240 1.375 . S
C241 C242 1.369 . S
C241 H254 0.950 . S
C242 C241 1.369 . S
C242 C243 1.392 . S
C242 H255 0.951 . S
C243 C242 1.392 . S
C243 C245 1.384 . S
H244 C246 0.949 . S
C245 C243 1.384 . S
C245 C246 1.385 . S
C245 H247 0.950 . S
C246 C240 1.404 . S
C246 H244 0.949 . S
C246 C245 1.385 . S
H247 C245 0.950 . S
H248 C232 0.951 . S
H249 C234 0.951 . S
H250 C236 0.951 . S
H251 C237 0.950 . S
H252 C238 0.950 . S
H253 C239 0.950 . S
H254 C241 0.950 . S
H255 C242 0.951 . S
C256 C257 1.386 . S
C256 C258 1.383 . S
C256 H272 0.951 . S
C257 C256 1.386 . S
C257 C261 1.383 . S
C258 C256 1.383 . S
C258 C259 1.402 . S
C258 H273 0.951 . S
C259 C258 1.402 . S
C259 C260 1.375 . S
C259 C262 1.481 . S
C260 C259 1.375 . S
C260 C261 1.367 . S
C260 H274 0.951 . S
C261 C257 1.383 . S
C261 C260 1.367 . S
C261 H275 0.950 . S
C262 C259 1.481 . S
C262 C263 1.297 . S
C262 H276 0.950 . S
C263 C262 1.297 . S
C263 C264 1.479 . S
C263 H277 0.950 . S
C264 C263 1.479 . S
C264 C265 1.375 . S
C264 C270 1.404 . S
C265 C264 1.375 . S
C265 C266 1.369 . S
C265 H278 0.950 . S
C266 C265 1.369 . S
C266 C267 1.392 . S
C266 H279 0.951 . S
C267 C266 1.392 . S
C267 C269 1.384 . S
H268 C270 0.949 . S
C269 C267 1.384 . S
C269 C270 1.385 . S
C269 H271 0.950 . S
C270 C264 1.404 . S
C270 H268 0.949 . S
C270 C269 1.385 . S
H271 C269 0.950 . S
H272 C256 0.951 . S
H273 C258 0.951 . S
H274 C260 0.951 . S
H275 C261 0.950 . S
H276 C262 0.950 . S
H277 C263 0.950 . S
H278 C265 0.950 . S
H279 C266 0.951 . S
C280 C281 1.386 . S
C280 C282 1.383 . S
C280 H296 0.951 . S
C281 C280 1.386 . S
C281 C285 1.383 . S
C282 C280 1.383 . S
C282 C283 1.402 . S
C282 H297 0.951 . S
C283 C282 1.402 . S
C283 C284 1.375 . S
C283 C286 1.481 . S
C284 C283 1.375 . S
C284 C285 1.367 . S
C284 H298 0.951 . S
C285 C281 1.383 . S
C285 C284 1.367 . S
C285 H299 0.950 . S
C286 C283 1.481 . S
C286 C287 1.297 . S
C286 H300 0.950 . S
C287 C286 1.297 . S
C287 C288 1.479 . S
C287 H301 0.950 . S
C288 C287 1.479 . S
C288 C289 1.375 . S
C288 C294 1.404 . S
C289 C288 1.375 . S
C289 C290 1.369 . S
C289 H302 0.950 . S
C290 C289 1.369 . S
C290 C291 1.392 . S
C290 H303 0.951 . S
C291 C290 1.392 . S
C291 C293 1.384 . S
H292 C294 0.949 . S
C293 C291 1.384 . S
C293 C294 1.385 . S
C293 H295 0.950 . S
C294 C288 1.404 . S
C294 H292 0.949 . S
C294 C293 1.385 . S
H295 C293 0.950 . S
H296 C280 0.951 . S
H297 C282 0.951 . S
H298 C284 0.951 . S
H299 C285 0.950 . S
H300 C286 0.950 . S
H301 C287 0.950 . S
H302 C289 0.950 . S
H303 C290 0.951 . S
C304 C305 1.386 . S
C304 C306 1.383 . S
C304 H320 0.951 . S
C305 C304 1.386 . S
C305 C309 1.383 . S
C306 C304 1.383 . S
C306 C307 1.402 . S
C306 H321 0.951 . S
C307 C306 1.402 . S
C307 C308 1.375 . S
C307 C310 1.481 . S
C308 C307 1.375 . S
C308 C309 1.367 . S
C308 H322 0.951 . S
C309 C305 1.383 . S
C309 C308 1.367 . S
C309 H323 0.950 . S
C310 C307 1.481 . S
C310 C311 1.297 . S
C310 H324 0.950 . S
C311 C310 1.297 . S
C311 C312 1.479 . S
C311 H325 0.950 . S
C312 C311 1.479 . S
C312 C313 1.375 . S
C312 C318 1.404 . S
C313 C312 1.375 . S
C313 C314 1.369 . S
C313 H326 0.950 . S
C314 C313 1.369 . S
C314 C315 1.392 . S
C314 H327 0.951 . S
C315 C314 1.392 . S
C315 C317 1.384 . S
H316 C318 0.949 . S
C317 C315 1.384 . S
C317 C318 1.385 . S
C317 H319 0.950 . S
C318 C312 1.404 . S
C318 H316 0.949 . S
C318 C317 1.385 . S
H319 C317 0.950 . S
H320 C304 0.951 . S
H321 C306 0.951 . S
H322 C308 0.951 . S
H323 C309 0.950 . S
H324 C310 0.950 . S
H325 C311 0.950 . S
H326 C313 0.950 . S
H327 C314 0.951 . S
C328 C329 1.386 . S
C328 C330 1.383 . S
C328 H344 0.951 . S
C329 C328 1.386 . S
C329 C333 1.383 . S
C330 C328 1.383 . S
C330 C331 1.402 . S
C330 H345 0.951 . S
C331 C330 1.402 . S
C331 C332 1.375 . S
C331 C334 1.481 . S
C332 C331 1.375 . S
C332 C333 1.367 . S
C332 H346 0.951 . S
C333 C329 1.383 . S
C333 C332 1.367 . S
C333 H347 0.950 . S
C334 C331 1.481 . S
C334 C335 1.297 . S
C334 H348 0.950 . S
C335 C334 1.297 . S
C335 C336 1.479 . S
C335 H349 0.950 . S
C336 C335 1.479 . S
C336 C337 1.375 . S
C336 C342 1.404 . S
C337 C336 1.375 . S
C337 C338 1.369 . S
C337 H350 0.950 . S
C338 C337 1.369 . S
C338 C339 1.392 . S
C338 H351 0.951 . S
C339 C338 1.392 . S
C339 C341 1.384 . S
H340 C342 0.949 . S
C341 C339 1.384 . S
C341 C342 1.385 . S
C341 H343 0.950 . S
C342 C336 1.404 . S
C342 H340 0.949 . S
C342 C341 1.385 . S
H343 C341 0.950 . S
H344 C328 0.951 . S
H345 C330 0.951 . S
H346 C332 0.951 . S
H347 C333 0.950 . S
H348 C334 0.950 . S
H349 C335 0.950 . S
H350 C337 0.950 . S
H351 C338 0.951 . S
C352 C353 1.386 . S
C352 C354 1.383 . S
C352 H368 0.951 . S
C353 C352 1.386 . S
C353 C357 1.383 . S
C354 C352 1.383 . S
C354 C355 1.402 . S
C354 H369 0.951 . S
C355 C354 1.402 . S
C355 C356 1.375 . S
C355 C358 1.481 . S
C356 C355 1.375 . S
C356 C357 1.367 . S
C356 H370 0.951 . S
C357 C353 1.383 . S
C357 C356 1.367 . S
C357 H371 0.950 . S
C358 C355 1.481 . S
C358 C359 1.297 . S
C358 H372 0.950 . S
C359 C358 1.297 . S
C359 C360 1.479 . S
C359 H373 0.950 . S
C360 C359 1.479 . S
C360 C361 1.375 . S
C360 C366 1.404 . S
C361 C360 1.375 . S
C361 C362 1.369 . S
C361 H374 0.950 . S
C362 C361 1.369 . S
C362 C363 1.392 . S
C362 H375 0.951 . S
C363 C362 1.392 . S
C363 C365 1.384 . S
H364 C366 0.949 . S
C365 C363 1.384 . S
C365 C366 1.385 . S
C365 H367 0.950 . S
C366 C360 1.404 . S
C366 H364 0.949 . S
C366 C365 1.385 . S
H367 C365 0.950 . S
H368 C352 0.951 . S
H369 C354 0.951 . S
H370 C356 0.951 . S
H371 C357 0.950 . S
H372 C358 0.950 . S
H373 C359 0.950 . S
H374 C361 0.950 . S
H375 C362 0.951 . S
C376 C377 1.386 . S
C376 C378 1.383 . S
C376 H392 0.951 . S
C377 C376 1.386 . S
C377 C381 1.383 . S
C378 C376 1.383 . S
C378 C379 1.402 . S
C378 H393 0.951 . S
C379 C378 1.402 . S
C379 C380 1.375 . S
C379 C382 1.481 . S
C380 C379 1.375 . S
C380 C381 1.367 . S
C380 H394 0.951 . S
C381 C377 1.383 . S
C381 C380 1.367 . S
C381 H395 0.950 . S
C382 C379 1.481 . S
C382 C383 1.297 . S
C382 H396 0.950 . S
C383 C382 1.297 . S
C383 C384 1.479 . S
C383 H397 0.950 . S
C384 C383 1.479 . S
C384 C385 1.375 . S
C384 C390 1.404 . S
C385 C384 1.375 . S
C385 C386 1.369 . S
C385 H398 0.950 . S
C386 C385 1.369 . S
C386 C387 1.392 . S
C386 H399 0.951 . S
C387 C386 1.392 . S
C387 C389 1.384 . S
H388 C390 0.949 . S
C389 C387 1.384 . S
C389 C390 1.385 . S
C389 H391 0.950 . S
C390 C384 1.404 . S
C390 H388 0.949 . S
C390 C389 1.385 . S
H391 C389 0.950 . S
H392 C376 0.951 . S
H393 C378 0.951 . S
H394 C380 0.951 . S
H395 C381 0.950 . S
H396 C382 0.950 . S
H397 C383 0.950 . S
H398 C385 0.950 . S
H399 C386 0.951 . S
C400 C401 1.386 . S
C400 C402 1.383 . S
C400 H416 0.951 . S
C401 C400 1.386 . S
C401 C405 1.383 1_455 S
C402 C400 1.383 . S
C402 C403 1.402 . S
C402 H417 0.951 . S
C403 C402 1.402 . S
C403 C404 1.375 1_455 S
C403 C406 1.481 1_545 S
C404 C403 1.375 1_655 S
C404 C405 1.367 . S
C404 H418 0.951 1_545 S
C405 C401 1.383 1_655 S
C405 C404 1.367 . S
C405 H419 0.950 . S
C406 C403 1.481 1_565 S
C406 C407 1.297 1_554 S
C406 H420 0.950 1_455 S
C407 C406 1.297 1_556 S
C407 C408 1.479 . S
C407 H421 0.950 . S
C408 C407 1.479 . S
C408 C409 1.375 . S
C408 C414 1.404 . S
C409 C408 1.375 . S
C409 C410 1.369 . S
C409 H422 0.950 . S
C410 C409 1.369 . S
C410 C411 1.392 . S
C410 H423 0.951 . S
C411 C410 1.392 . S
C411 C413 1.384 . S
H412 C414 0.949 1_655 S
C413 C411 1.384 . S
C413 C414 1.385 . S
C413 H415 0.950 1_455 S
C414 C408 1.404 . S
C414 H412 0.949 1_455 S
C414 C413 1.385 . S
H415 C413 0.950 1_655 S
H416 C400 0.951 . S
H417 C402 0.951 . S
H418 C404 0.951 1_565 S
H419 C405 0.950 . S
H420 C406 0.950 1_655 S
H421 C407 0.950 . S
H422 C409 0.950 . S
H423 C410 0.951 . S
C424 C425 1.386 . S
C424 C426 1.383 . S
C424 H440 0.951 . S
C425 C424 1.386 . S
C425 C429 1.383 . S
C426 C424 1.383 . S
C426 C427 1.402 . S
C426 H441 0.951 . S
C427 C426 1.402 . S
C427 C428 1.375 . S
C427 C430 1.481 . S
C428 C427 1.375 . S
C428 C429 1.367 . S
C428 H442 0.951 . S
C429 C425 1.383 . S
C429 C428 1.367 . S
C429 H443 0.950 . S
C430 C427 1.481 . S
C430 C431 1.297 1_556 S
C430 H444 0.950 . S
C431 C430 1.297 1_554 S
C431 C432 1.479 . S
C431 H445 0.950 1_455 S
C432 C431 1.479 . S
C432 C433 1.375 . S
C432 C438 1.404 . S
C433 C432 1.375 . S
C433 C434 1.369 . S
C433 H446 0.950 1_455 S
C434 C433 1.369 . S
C434 C435 1.392 . S
C434 H447 0.951 1_455 S
C435 C434 1.392 . S
C435 C437 1.384 . S
H436 C438 0.949 . S
C437 C435 1.384 . S
C437 C438 1.385 . S
C437 H439 0.950 . S
C438 C432 1.404 . S
C438 H436 0.949 . S
C438 C437 1.385 . S
H439 C437 0.950 . S
H440 C424 0.951 . S
H441 C426 0.951 . S
H442 C428 0.951 . S
H443 C429 0.950 . S
H444 C430 0.950 . S
H445 C431 0.950 1_655 S
H446 C433 0.950 1_655 S
H447 C434 0.951 1_655 S
C448 C449 1.386 . S
C448 C450 1.383 . S
C448 H464 0.951 . S
C449 C448 1.386 . S
C449 C453 1.383 . S
C450 C448 1.383 . S
C450 C451 1.402 . S
C450 H465 0.951 . S
C451 C450 1.402 . S
C451 C452 1.375 . S
C451 C454 1.481 . S
C452 C451 1.375 . S
C452 C453 1.367 . S
C452 H466 0.951 . S
C453 C449 1.383 . S
C453 C452 1.367 . S
C453 H467 0.950 . S
C454 C451 1.481 . S
C454 C455 1.297 . S
C454 H468 0.950 . S
C455 C454 1.297 . S
C455 C456 1.479 . S
C455 H469 0.950 . S
C456 C455 1.479 . S
C456 C457 1.375 . S
C456 C462 1.404 . S
C457 C456 1.375 . S
C457 C458 1.369 . S
C457 H470 0.950 . S
C458 C457 1.369 . S
C458 C459 1.392 . S
C458 H471 0.951 . S
C459 C458 1.392 . S
C459 C461 1.384 . S
H460 C462 0.949 . S
C461 C459 1.384 . S
C461 C462 1.385 . S
C461 H463 0.950 . S
C462 C456 1.404 . S
C462 H460 0.949 . S
C462 C461 1.385 . S
H463 C461 0.950 . S
H464 C448 0.951 . S
H465 C450 0.951 . S
H466 C452 0.951 . S
H467 C453 0.950 . S
H468 C454 0.950 . S
H469 C455 0.950 . S
H470 C457 0.950 . S
H471 C458 0.951 . S
C472 C473 1.386 . S
C472 C474 1.383 . S
C472 H488 0.951 . S
C473 C472 1.386 . S
C473 C477 1.383 . S
C474 C472 1.383 . S
C474 C475 1.402 . S
C474 H489 0.951 1_565 S
C475 C474 1.402 . S
C475 C476 1.375 . S
C475 C478 1.481 . S
C476 C475 1.375 . S
C476 C477 1.367 . S
C476 H490 0.951 . S
C477 C473 1.383 . S
C477 C476 1.367 . S
C477 H491 0.950 . S
C478 C475 1.481 . S
C478 C479 1.272 1_565 S
C478 H492 0.950 . S
C479 C478 1.272 1_545 S
C479 C480 1.494 . S
C479 H493 0.963 . S
C480 C479 1.494 . S
C480 C481 1.375 . S
C480 C486 1.404 . S
C481 C480 1.375 . S
C481 C482 1.369 . S
C481 H494 0.950 . S
C482 C481 1.369 . S
C482 C483 1.392 . S
C482 H495 0.951 . S
C483 C482 1.392 . S
C483 C485 1.384 . S
H484 C486 0.949 1_565 S
C485 C483 1.384 . S
C485 C486 1.385 . S
C485 H487 0.950 . S
C486 C480 1.404 . S
C486 H484 0.949 1_545 S
C486 C485 1.385 . S
H487 C485 0.950 . S
H488 C472 0.951 . S
H489 C474 0.951 1_545 S
H490 C476 0.951 . S
H491 C477 0.950 . S
H492 C478 0.950 . S
H493 C479 0.963 . S
H494 C481 0.950 . S
H495 C482 0.951 . S
C113 C22 1.390 . S
C123 C8 1.404 . S
C137 C36 1.439 . S
C147 C50 1.393 . S
C161 C64 1.389 . S
C171 C78 1.405 . S
C185 C92 1.433 . S
C195 C106 1.352 . S
C209 C105 1.511 . S
C219 C7 1.515 . S
C233 C91 1.503 . S
C243 C21 1.488 . S
C257 C35 1.513 . S
C267 C77 1.515 . S
C281 C63 1.489 . S
C291 C49 1.470 . S
C305 C83 1.153 . S
C315 C41 1.238 . S
C329 C69 1.185 . S
C339 C55 1.229 . S
C353 C111 1.151 . S
C363 C13 1.269 . S
C377 C27 1.241 . S
C387 C97 1.117 . S
C401 C11 1.338 . S
C411 C39 1.314 . S
C425 C53 1.334 . S
C435 C25 1.310 . S
C449 C95 1.327 . S
C459 C67 1.335 . S
C473 C81 1.332 . S
C483 C109 1.342 . S
