# Generated by pormake.
# Topology una, (4)-cn, num edge types: 1
# Building blocks:
#     Node 0, Type 0, BuildingBlock: QUQFOY_clean_sbu_3, # of connection points: 4
#     Node 1, Type 0, BuildingBlock: QUQFOY_clean_sbu_3, # of connection points: 4
#     Node 2, Type 0, BuildingBlock: QUQFOY_clean_sbu_3, # of connection points: 4
#     Node 3, Type 0, BuildingBlock: QUQFOY_clean_sbu_3, # of connection points: 4
#     Node 4, Type 0, BuildingBlock: QUQFOY_clean_sbu_3, # of connection points: 4
#     Node 5, Type 0, BuildingBlock: QUQFOY_clean_sbu_3, # of connection points: 4
#     Node 6, Type 0, BuildingBlock: QUQFOY_clean_sbu_3, # of connection points: 4
#     Node 7, Type 0, BuildingBlock: QUQFOY_clean_sbu_3, # of connection points: 4
#     Node 8, Type 0, BuildingBlock: QUQFOY_clean_sbu_3, # of connection points: 4
#     Node 9, Type 0, BuildingBlock: QUQFOY_clean_sbu_3, # of connection points: 4
#     Node 10, Type 0, BuildingBlock: QUQFOY_clean_sbu_3, # of connection points: 4
#     Node 11, Type 0, BuildingBlock: QUQFOY_clean_sbu_3, # of connection points: 4
#     Edge 12, Type (0, 0), BuildingBlock: OJICUG_clean_linker_0, # of connection points: 2
#     Edge 13, Type (0, 0), BuildingBlock: OJICUG_clean_linker_0, # of connection points: 2
#     Edge 14, Type (0, 0), BuildingBlock: OJICUG_clean_linker_0, # of connection points: 2
#     Edge 15, Type (0, 0), BuildingBlock: OJICUG_clean_linker_0, # of connection points: 2
#     Edge 16, Type (0, 0), BuildingBlock: OJICUG_clean_linker_0, # of connection points: 2
#     Edge 17, Type (0, 0), BuildingBlock: OJICUG_clean_linker_0, # of connection points: 2
#     Edge 18, Type (0, 0), BuildingBlock: OJICUG_clean_linker_0, # of connection points: 2
#     Edge 19, Type (0, 0), BuildingBlock: OJICUG_clean_linker_0, # of connection points: 2
#     Edge 20, Type (0, 0), BuildingBlock: OJICUG_clean_linker_0, # of connection points: 2
#     Edge 21, Type (0, 0), BuildingBlock: OJICUG_clean_linker_0, # of connection points: 2
#     Edge 22, Type (0, 0), BuildingBlock: OJICUG_clean_linker_0, # of connection points: 2
#     Edge 23, Type (0, 0), BuildingBlock: OJICUG_clean_linker_0, # of connection points: 2
#     Edge 24, Type (0, 0), BuildingBlock: OJICUG_clean_linker_0, # of connection points: 2
#     Edge 25, Type (0, 0), BuildingBlock: OJICUG_clean_linker_0, # of connection points: 2
#     Edge 26, Type (0, 0), BuildingBlock: OJICUG_clean_linker_0, # of connection points: 2
#     Edge 27, Type (0, 0), BuildingBlock: OJICUG_clean_linker_0, # of connection points: 2
#     Edge 28, Type (0, 0), BuildingBlock: OJICUG_clean_linker_0, # of connection points: 2
#     Edge 29, Type (0, 0), BuildingBlock: OJICUG_clean_linker_0, # of connection points: 2
#     Edge 30, Type (0, 0), BuildingBlock: OJICUG_clean_linker_0, # of connection points: 2
#     Edge 31, Type (0, 0), BuildingBlock: OJICUG_clean_linker_0, # of connection points: 2
#     Edge 32, Type (0, 0), BuildingBlock: OJICUG_clean_linker_0, # of connection points: 2
#     Edge 33, Type (0, 0), BuildingBlock: OJICUG_clean_linker_0, # of connection points: 2
#     Edge 34, Type (0, 0), BuildingBlock: OJICUG_clean_linker_0, # of connection points: 2
#     Edge 35, Type (0, 0), BuildingBlock: OJICUG_clean_linker_0, # of connection points: 2
# Relax obj value: 0.025
# Max RMSD: 0.043
# Mean RMSD: 0.043
data_MOF--net-una--node1-QUQFOY_clean_sbu_3--edge1-OJICUG_clean_linker_0
_symmetry_space_group_name_H-M    P1
_symmetry_Int_Tables_number       1
_symmetry_cell_setting            triclinic
loop_
_symmetry_equiv_pos_as_xyz
'x, y, z'
_cell_length_a     44.511808
_cell_length_b     44.235759
_cell_length_c     17.001762
_cell_angle_alpha  90.246719
_cell_angle_beta   89.765396
_cell_angle_gamma 120.199
loop_
_atom_site_label
_atom_site_type_symbol
_atom_site_fract_x
_atom_site_fract_y
_atom_site_fract_z
_atom_type_partial_charge
C0 C 0.18176 0.47688 0.91052 0.0
O1 O 0.18898 0.50596 0.94118 0.0
Cd2 Cd 0.15773 0.51151 0.04724 0.0
O3 O 0.15493 0.44858 0.93255 0.0
Cd4 Cd 0.10438 0.42977 0.02434 0.0
C5 C 0.16168 0.45084 0.17208 0.0
O6 O 0.09911 0.48132 0.00631 0.0
O7 O 0.07478 0.45248 0.11119 0.0
O8 O 0.07218 0.39778 0.90798 0.0
C9 C 0.08002 0.47716 0.06514 0.0
O10 O 0.16932 0.48167 0.15239 0.0
C11 C 0.04767 0.37208 0.94381 0.0
O12 O 0.13913 0.42437 0.13309 0.0
O13 O 0.05048 0.37159 0.01822 0.0
C14 C 0.69389 0.18909 0.0544 0.0
O15 O 0.67268 0.19734 0.08345 0.0
Cd16 Cd 0.6412 0.17186 0.19924 0.0
O17 O 0.69611 0.1635 0.08222 0.0
Cd18 Cd 0.66606 0.11553 0.18206 0.0
C19 C 0.71123 0.18002 0.31149 0.0
O20 O 0.61007 0.11157 0.16833 0.0
O21 O 0.61551 0.0892 0.27505 0.0
O22 O 0.66292 0.08049 0.06832 0.0
C23 C 0.59586 0.09418 0.22967 0.0
O24 O 0.6891 0.18867 0.29082 0.0
C25 C 0.66417 0.05644 0.10578 0.0
O26 O 0.71032 0.15298 0.28194 0.0
O27 O 0.66843 0.06058 0.17985 0.0
C28 C 0.49653 0.70254 0.24148 0.0
O29 O 0.46762 0.68075 0.27229 0.0
Cd30 Cd 0.46111 0.64324 0.37713 0.0
O31 O 0.52461 0.7038 0.2629 0.0
Cd32 Cd 0.54276 0.67153 0.3543 0.0
C33 C 0.52166 0.70788 0.50303 0.0
O34 O 0.49112 0.61476 0.33521 0.0
O35 O 0.5194 0.61868 0.44 0.0
O36 O 0.57529 0.67115 0.23907 0.0
C37 C 0.49464 0.59947 0.39394 0.0
O38 O 0.49098 0.68464 0.48319 0.0
C39 C 0.60069 0.67262 0.27591 0.0
O40 O 0.54793 0.71184 0.46372 0.0
O41 O 0.60064 0.67598 0.35029 0.0
C42 C 0.78538 0.50284 0.38968 0.0
O43 O 0.77835 0.47339 0.41731 0.0
Cd44 Cd 0.80523 0.46834 0.53146 0.0
O45 O 0.81038 0.53114 0.41779 0.0
Cd46 Cd 0.85873 0.55054 0.51618 0.0
C47 C 0.79485 0.52849 0.64793 0.0
O48 O 0.86521 0.4996 0.50113 0.0
O49 O 0.88642 0.52796 0.60844 0.0
O50 O 0.89252 0.58301 0.40216 0.0
C51 C 0.88268 0.50361 0.56258 0.0
O52 O 0.78751 0.4979 0.62629 0.0
C53 C 0.91624 0.60882 0.43941 0.0
O54 O 0.82074 0.55546 0.61777 0.0
O55 O 0.91238 0.60903 0.5136 0.0
C56 C 0.27129 0.79243 0.55632 0.0
O57 O 0.29281 0.78451 0.58429 0.0
Cd58 Cd 0.32496 0.81063 0.69897 0.0
O59 O 0.26901 0.81801 0.58459 0.0
Cd60 Cd 0.29915 0.86631 0.68391 0.0
C61 C 0.2552 0.80211 0.8142 0.0
O62 O 0.35537 0.87086 0.66845 0.0
O63 O 0.34984 0.89323 0.77575 0.0
O64 O 0.30182 0.90098 0.57071 0.0
C65 C 0.36957 0.88841 0.72973 0.0
O66 O 0.27757 0.79382 0.79259 0.0
C67 C 0.30046 0.925 0.60862 0.0
O68 O 0.25549 0.82877 0.78476 0.0
O69 O 0.29626 0.92094 0.68271 0.0
C70 C 0.4657 0.27751 0.75097 0.0
O71 O 0.49443 0.29937 0.78221 0.0
Cd72 Cd 0.50031 0.33714 0.88663 0.0
O73 O 0.43749 0.27624 0.77186 0.0
Cd74 Cd 0.41878 0.3085 0.86285 0.0
C75 C 0.43951 0.27278 0.01229 0.0
O76 O 0.47022 0.36521 0.84373 0.0
O77 O 0.44194 0.3615 0.94889 0.0
O78 O 0.38696 0.30864 0.74675 0.0
C79 C 0.46659 0.38064 0.90243 0.0
O80 O 0.47022 0.29616 -0.0071 0.0
C81 C 0.36144 0.30749 0.78291 0.0
O82 O 0.41335 0.26843 0.97233 0.0
O83 O 0.36103 0.30429 0.85734 0.0
C84 C 0.495 0.79231 -0.00239 0.0
O85 O 0.46561 0.78455 0.9695 0.0
Cd86 Cd 0.45968 0.8107 0.85513 0.0
O87 O 0.52294 0.81779 0.96968 0.0
Cd88 Cd 0.54128 0.86615 0.87087 0.0
C89 C 0.52074 0.80182 0.73991 0.0
O90 O 0.48975 0.87092 0.88628 0.0
O91 O 0.51759 0.8931 0.77912 0.0
O92 O 0.57328 0.90085 -0.0155 0.0
C93 C 0.4931 0.88842 0.82511 0.0
O94 O 0.49014 0.7937 0.76146 0.0
C95 C 0.59865 0.92486 0.94688 0.0
O96 O 0.54719 0.82842 0.7696 0.0
O97 O 0.59883 0.92077 0.87275 0.0
C98 C 0.6951 0.50355 0.14715 0.0
O99 O 0.67306 0.4744 0.11724 0.0
Cd100 Cd 0.63628 0.46868 0.01171 0.0
O101 O 0.69674 0.53185 0.12477 0.0
Cd102 Cd 0.66495 0.55036 0.03311 0.0
C103 C 0.701 0.5286 0.8854 0.0
O104 O 0.60789 0.49911 0.05228 0.0
O105 O 0.61282 0.52766 0.94681 0.0
O106 O 0.66474 0.58302 0.14852 0.0
C107 C 0.59316 0.50326 -0.00663 0.0
O108 O 0.67773 0.49787 0.90571 0.0
C109 C 0.6662 0.60862 0.11189 0.0
O110 O 0.70497 0.55523 0.92394 0.0
O111 O 0.66968 0.60873 0.03752 0.0
C112 C 0.1796 0.70312 0.31143 0.0
O113 O 0.18638 0.68105 0.28056 0.0
Cd114 Cd 0.15501 0.64374 0.17536 0.0
O115 O 0.153 0.70475 0.28991 0.0
Cd116 Cd 0.10248 0.67282 0.19827 0.0
C117 C 0.15991 0.7087 0.05005 0.0
O118 O 0.09654 0.61577 0.217 0.0
O119 O 0.07285 0.62012 0.11154 0.0
O120 O 0.06981 0.67265 0.31369 0.0
C121 C 0.07779 0.60066 0.15791 0.0
O122 O 0.16702 0.68522 0.06971 0.0
C123 C 0.04587 0.67416 0.277 0.0
O124 O 0.13778 0.71297 0.08936 0.0
O125 O 0.04925 0.67759 0.20266 0.0
C126 C 0.46875 0.18914 0.50374 0.0
O127 O 0.49825 0.19756 0.47479 0.0
Cd128 Cd 0.50429 0.17213 0.35862 0.0
O129 O 0.44103 0.16346 0.4756 0.0
Cd130 Cd 0.42329 0.11554 0.37524 0.0
C131 C 0.44217 0.1799 0.24661 0.0
O132 O 0.47548 0.11183 0.3889 0.0
O133 O 0.4476 0.08926 0.28207 0.0
O134 O 0.39151 0.08054 0.48864 0.0
C135 C 0.47229 0.09437 0.32745 0.0
O136 O 0.47301 0.18875 0.2673 0.0
C137 C 0.36623 0.05646 0.45097 0.0
O138 O 0.41617 0.15277 0.27586 0.0
O139 O 0.36607 0.06054 0.37693 0.0
C140 C 0.27239 0.47778 0.66502 0.0
O141 O 0.29462 0.50722 0.63681 0.0
Cd142 Cd 0.32629 0.51203 0.52177 0.0
O143 O 0.26924 0.44949 0.63699 0.0
Cd144 Cd 0.29809 0.4298 0.53822 0.0
C145 C 0.25558 0.45107 0.40756 0.0
O146 O 0.35523 0.48106 0.55198 0.0
O147 O 0.34845 0.45236 0.44523 0.0
O148 O 0.29954 0.3981 0.65324 0.0
C149 C 0.36885 0.477 0.49057 0.0
O150 O 0.27868 0.48176 0.42871 0.0
C151 C 0.29774 0.37218 0.61686 0.0
O152 O 0.25486 0.42426 0.43749 0.0
O153 O 0.29381 0.37153 0.54261 0.0
C154 C 0.78501 0.27797 0.80839 0.0
O155 O 0.77787 0.29963 0.77735 0.0
Cd156 Cd 0.80941 0.33754 0.67323 0.0
O157 O 0.81208 0.27695 0.78748 0.0
Cd158 Cd 0.86295 0.30947 0.6967 0.0
C159 C 0.80638 0.27337 0.54692 0.0
O160 O 0.86762 0.36601 0.71611 0.0
O161 O 0.89275 0.36255 0.61162 0.0
O162 O 0.8951 0.30975 0.81262 0.0
C163 C 0.88675 0.38153 0.65772 0.0
O164 O 0.79879 0.29657 0.56659 0.0
C165 C 0.91943 0.30856 0.77633 0.0
O166 O 0.82837 0.26928 0.58674 0.0
O167 O 0.9166 0.30539 0.70186 0.0
C168 C 0.18521 0.41777 0.24842 0.0
C169 C 0.18167 0.44744 0.23807 0.0
H170 H 0.21154 0.39532 0.31046 0.0
C171 C 0.20047 0.47638 0.28779 0.0
H172 H 0.17111 0.39504 0.211 0.0
C173 C 0.22352 0.47668 0.34313 0.0
C174 C 0.22857 0.44795 0.35146 0.0
H175 H 0.19815 0.49953 0.28272 0.0
H176 H 0.23784 0.49996 0.3789 0.0
C177 C 0.20845 0.41798 0.30502 0.0
C178 C 0.77059 0.26149 0.4268 0.0
C179 C 0.78682 0.25006 0.47996 0.0
H180 H 0.73466 0.24868 0.33302 0.0
C181 C 0.7806 0.21561 0.47268 0.0
H182 H 0.77512 0.28794 0.4296 0.0
C183 C 0.75695 0.19263 0.41603 0.0
C184 C 0.73914 0.20381 0.36653 0.0
H185 H 0.79267 0.206 0.51289 0.0
H186 H 0.75152 0.16588 0.41326 0.0
C187 C 0.74714 0.23879 0.37135 0.0
C188 C 0.55413 0.76519 0.5789 0.0
C189 C 0.52513 0.73134 0.56966 0.0
H190 H 0.57579 0.81457 0.64033 0.0
C191 C 0.49676 0.72063 0.62094 0.0
H192 H 0.5764 0.77425 0.54021 0.0
C193 C 0.49627 0.74345 0.67666 0.0
C194 C 0.52422 0.77787 0.68373 0.0
H195 H 0.47418 0.69465 0.6167 0.0
H196 H 0.47342 0.73408 0.71363 0.0
C197 C 0.55372 0.7883 0.63584 0.0
C198 C 0.78028 0.5616 0.74995 0.0
C199 C 0.77091 0.53129 0.70503 0.0
H200 H 0.76547 0.58486 0.84301 0.0
C201 C 0.73758 0.50207 0.71555 0.0
H202 H 0.80568 0.58464 0.74282 0.0
C203 C 0.71479 0.50232 0.77131 0.0
C204 C 0.72444 0.53172 0.8193 0.0
H205 H 0.72899 0.47848 0.68108 0.0
H206 H 0.68967 0.47883 0.77794 0.0
C207 C 0.75722 0.56177 0.80696 0.0
C208 C 0.22116 0.74387 0.87725 0.0
C209 C 0.22774 0.77831 0.87019 0.0
H210 H 0.19423 0.69516 0.93692 0.0
C211 C 0.20871 0.78892 0.91784 0.0
H212 H 0.23461 0.73437 0.84046 0.0
C213 C 0.18508 0.76594 0.97451 0.0
C214 C 0.18009 0.73205 -0.01627 0.0
H215 H 0.213 0.81522 0.91334 0.0
H216 H 0.17189 0.77513 0.013 0.0
C217 C 0.19773 0.72117 0.9327 0.0
C218 C 0.46459 0.23863 0.18753 0.0
C219 C 0.43782 0.20355 0.19189 0.0
H220 H 0.48539 0.28775 0.12988 0.0
C221 C 0.40881 0.19215 0.14225 0.0
H222 H 0.48695 0.24867 0.22601 0.0
C223 C 0.40792 0.21502 0.08587 0.0
C224 C 0.43594 0.24956 0.07901 0.0
H225 H 0.38764 0.16532 0.14468 0.0
H226 H 0.38623 0.20524 0.04551 0.0
C227 C 0.46362 0.26122 0.13235 0.0
C228 C 0.07218 0.52764 0.03154 0.0
C229 C 0.07291 0.50514 0.08868 0.0
H230 H 0.07214 0.57523 0.00867 0.0
C231 C 0.07071 0.51207 0.16849 0.0
H232 H 0.07371 0.52277 0.96955 0.0
C233 C 0.07048 0.54242 0.19086 0.0
C234 C 0.07162 0.56588 0.13381 0.0
H235 H 0.0713 0.49523 0.21378 0.0
H236 H 0.07075 0.54822 0.25293 0.0
C237 C 0.07113 0.55756 0.05388 0.0
C238 C 0.53799 0.08743 0.19867 0.0
C239 C 0.56153 0.08835 0.2549 0.0
H240 H 0.49068 0.08772 0.17751 0.0
C241 C 0.5534 0.08728 0.33506 0.0
H242 H 0.54359 0.08809 0.13642 0.0
C243 C 0.52346 0.08773 0.35851 0.0
C244 C 0.50076 0.08847 0.30227 0.0
H245 H 0.57108 0.08805 0.37967 0.0
H246 H 0.51864 0.08862 0.42076 0.0
C247 C 0.50767 0.0871 0.22212 0.0
C248 C 0.428 0.52678 0.52154 0.0
C249 C 0.40371 0.50474 0.46522 0.0
H250 H 0.47647 0.5737 0.54307 0.0
C251 C 0.4117 0.51185 0.38506 0.0
H252 H 0.42251 0.52177 0.58378 0.0
C253 C 0.44228 0.54193 0.36181 0.0
C254 C 0.46574 0.56494 0.41825 0.0
H255 H 0.39343 0.49536 0.34041 0.0
H256 H 0.44699 0.54787 0.29968 0.0
C257 C 0.45893 0.55642 0.49827 0.0
C258 C 0.89257 0.45414 0.53085 0.0
C259 C 0.88999 0.476 0.58746 0.0
H260 H 0.89456 0.40745 0.50878 0.0
C261 C 0.89076 0.46882 0.66753 0.0
H262 H 0.89219 0.45921 0.46868 0.0
C263 C 0.89148 0.43885 0.69042 0.0
C264 C 0.89224 0.41601 0.63371 0.0
H265 H 0.88874 0.48517 0.7124 0.0
H266 H 0.89014 0.43284 0.7525 0.0
C267 C 0.89408 0.42461 0.55378 0.0
C268 C 0.41222 0.89584 0.8343 0.0
C269 C 0.40398 0.89448 0.75429 0.0
H270 H 0.44706 0.89475 0.91935 0.0
C271 C 0.42747 0.89527 0.69762 0.0
H272 H 0.39458 0.89519 0.87924 0.0
C273 C 0.45781 0.89566 0.72051 0.0
C274 C 0.46478 0.8945 0.80052 0.0
H275 H 0.42179 0.8944 0.63547 0.0
H276 H 0.47472 0.89487 0.67557 0.0
C277 C 0.44218 0.89547 0.8572 0.0
C278 C 0.51791 0.43854 0.86887 0.0
C279 C 0.49543 0.41528 0.92623 0.0
H280 H 0.56623 0.48531 0.84524 0.0
C281 C 0.50337 0.42358 0.00605 0.0
H282 H 0.51231 0.43274 0.80689 0.0
C283 C 0.53456 0.45326 0.02794 0.0
C284 C 0.55792 0.47554 0.97046 0.0
H285 H 0.48659 0.40605 0.05148 0.0
H286 H 0.54101 0.4581 0.08983 0.0
C287 C 0.54871 0.46864 0.8908 0.0
C288 C 0.22139 0.44498 0.75606 0.0
C289 C 0.24959 0.47676 0.72968 0.0
H290 H 0.17755 0.41997 0.83385 0.0
C291 C 0.2554 0.50817 0.76409 0.0
H292 H 0.21619 0.42033 0.73059 0.0
C293 C 0.23344 0.50797 0.8228 0.0
C294 C 0.20496 0.47635 0.84868 0.0
H295 H 0.2769 0.53314 0.74545 0.0
H296 H 0.23876 0.5328 0.84749 0.0
C297 C 0.19921 0.44478 0.81499 0.0
C298 C 0.74493 0.20688 0.9638 0.0
C299 C 0.71663 0.21028 -0.01098 0.0
H300 H 0.78908 0.22583 0.88695 0.0
C301 C 0.71073 0.23534 0.95303 0.0
H302 H 0.75017 0.18783 -0.00946 0.0
C303 C 0.7328 0.25689 0.8942 0.0
C304 C 0.76151 0.25411 0.86976 0.0
H305 H 0.6891 0.23859 0.97064 0.0
H306 H 0.72743 0.27603 0.86844 0.0
C307 C 0.76726 0.2287 0.90473 0.0
C308 C 0.52831 0.75217 0.14598 0.0
C309 C 0.49703 0.72639 0.18016 0.0
H310 H 0.55237 0.7936 0.06148 0.0
C311 C 0.46557 0.72336 0.15527 0.0
H312 H 0.55299 0.75523 0.16411 0.0
C313 C 0.46522 0.74515 0.09703 0.0
C314 C 0.49632 0.77067 0.06204 0.0
H315 H 0.44095 0.70392 0.18035 0.0
H316 H 0.44036 0.74173 0.07917 0.0
C317 C 0.52797 0.7742 0.08747 0.0
C318 C 0.73781 0.4724 0.29174 0.0
C319 C 0.76347 0.50384 0.32574 0.0
H320 H 0.69637 0.4477 0.20945 0.0
C321 C 0.76695 0.53559 0.29973 0.0
H322 H 0.73441 0.44744 0.31011 0.0
C323 C 0.74482 0.53574 0.24158 0.0
C324 C 0.71894 0.50415 0.20832 0.0
H325 H 0.78643 0.56026 0.32491 0.0
H326 H 0.7479 0.56053 0.22296 0.0
C327 C 0.7159 0.47255 0.23384 0.0
C328 C 0.19787 0.75284 0.40742 0.0
C329 C 0.2031 0.72687 0.37299 0.0
H330 H 0.21554 0.7943 0.49238 0.0
C331 C 0.23134 0.72353 0.39787 0.0
H332 H 0.1764 0.75615 0.3893 0.0
C333 C 0.25356 0.74519 0.45639 0.0
C334 C 0.24826 0.77091 0.49164 0.0
H335 H 0.23629 0.70392 0.37258 0.0
H336 H 0.27486 0.74154 0.47425 0.0
C337 C 0.22034 0.77475 0.4662 0.0
C338 C 0.4345 0.22819 0.65406 0.0
C339 C 0.46557 0.25377 0.68932 0.0
H340 H 0.41098 0.18733 0.56773 0.0
C341 C 0.49717 0.25685 0.66484 0.0
H342 H 0.40971 0.22509 0.67187 0.0
C343 C 0.49789 0.23542 0.60568 0.0
C344 C 0.46702 0.21021 0.56941 0.0
H345 H 0.52162 0.27612 0.69081 0.0
H346 H 0.52285 0.2389 0.58804 0.0
C347 C 0.43521 0.20651 0.59467 0.0
C348 C -0.01655 0.33025 0.94224 0.0
C349 C 0.01524 0.34761 0.90158 0.0
H350 H 0.92791 0.30403 0.93408 0.0
C351 C 0.0149 0.34621 0.81885 0.0
H352 H -0.01721 0.33087 0.0059 0.0
C353 C -0.01658 0.3304 0.77761 0.0
C354 C 0.95167 0.31622 0.81832 0.0
H355 H 0.03899 0.35921 0.78581 0.0
H356 H -0.0159 0.3318 0.71398 0.0
C357 C 0.95197 0.31496 0.90101 0.0
C358 C 0.62529 0.95964 0.06943 0.0
C359 C 0.6233 0.95808 -0.01322 0.0
H360 H 0.64071 -0.00779 0.17223 0.0
C361 C 0.64047 0.9894 0.94398 0.0
H362 H 0.61245 0.93591 0.10404 0.0
C363 C 0.65625 0.02167 -0.01688 0.0
C364 C 0.65568 0.02323 0.06578 0.0
H365 H 0.6394 0.9891 0.88033 0.0
H366 H 0.66711 0.04539 0.94851 0.0
C367 C 0.64158 -0.00809 0.10857 0.0
C368 C 0.65893 0.6351 0.23585 0.0
C369 C 0.65819 0.63336 0.15315 0.0
H370 H 0.64204 0.64986 0.33991 0.0
C371 C 0.64394 0.65056 0.11165 0.0
H372 H 0.66988 0.62223 0.26951 0.0
C373 C 0.62754 0.66597 0.15205 0.0
C374 C 0.6256 0.66499 0.23473 0.0
H375 H 0.64292 0.64967 0.04798 0.0
H376 H 0.61452 0.67673 0.11837 0.0
C377 C 0.64304 0.65103 0.27626 0.0
C378 C 0.01221 0.66692 0.40084 0.0
C379 C 0.01328 0.6663 0.31812 0.0
H380 H 0.9804 0.64996 0.50452 0.0
C381 C -0.01809 0.6523 0.27629 0.0
H382 H 0.03597 0.67769 0.43475 0.0
C383 C 0.95007 0.63598 0.31632 0.0
C384 C 0.94898 0.63388 0.39895 0.0
H385 H -0.01818 0.65139 0.21261 0.0
H386 H 0.92629 0.6231 0.28235 0.0
C387 C 0.98035 0.65112 0.4409 0.0
C388 C 0.32435 -0.00807 0.4476 0.0
C389 C 0.34156 0.02327 0.49068 0.0
H390 H 0.29756 0.93594 0.45159 0.0
C391 C 0.33949 0.02176 0.57332 0.0
H392 H 0.32547 -0.00779 0.38393 0.0
C393 C 0.32307 0.98951 0.61216 0.0
C394 C 0.30893 0.95817 0.56906 0.0
H395 H 0.35234 0.04549 0.60815 0.0
H396 H 0.32388 0.98924 0.67581 0.0
C397 C 0.30844 0.95968 0.48643 0.0
C398 C 0.30416 0.34574 0.74103 0.0
C399 C 0.30546 0.34744 0.65835 0.0
H400 H 0.32008 0.33078 0.8456 0.0
C401 C 0.3198 0.33004 0.61728 0.0
H402 H 0.29312 0.35876 0.77434 0.0
C403 C 0.33569 0.31442 0.65821 0.0
C404 C 0.33702 0.31537 0.74095 0.0
H405 H 0.32124 0.3309 0.55365 0.0
H406 H 0.34879 0.30347 0.62493 0.0
C407 C 0.31953 0.3296 0.78194 0.0
loop_
_geom_bond_atom_site_label_1
_geom_bond_atom_site_label_2
_geom_bond_distance
_geom_bond_site_symmetry_2
_ccdc_geom_bond_type
C0 O1 1.306 . S
C0 O3 1.160 . S
O1 C0 1.306 . S
O1 Cd2 2.228 1_556 S
Cd2 O1 2.228 1_554 S
Cd2 O6 2.273 . S
Cd2 O10 2.277 . S
O3 C0 1.160 . S
O3 Cd4 2.203 1_556 S
Cd4 O3 2.203 1_554 S
Cd4 O6 2.411 . S
Cd4 O7 2.333 . S
Cd4 O8 2.352 1_554 S
Cd4 O12 2.277 . S
Cd4 O13 2.356 . S
C5 O10 1.209 . S
C5 O12 1.226 . S
O6 Cd2 2.273 . S
O6 Cd4 2.411 . S
O6 C9 1.320 . S
O7 Cd4 2.333 . S
O7 C9 1.214 . S
O8 Cd4 2.352 1_556 S
O8 C11 1.258 . S
C9 O6 1.320 . S
C9 O7 1.214 . S
O10 Cd2 2.277 . S
O10 C5 1.209 . S
C11 O8 1.258 . S
C11 O13 1.282 1_556 S
O12 Cd4 2.277 . S
O12 C5 1.226 . S
O13 Cd4 2.356 . S
O13 C11 1.282 1_554 S
C14 O15 1.306 . S
C14 O17 1.160 . S
O15 C14 1.306 . S
O15 Cd16 2.228 . S
Cd16 O15 2.228 . S
Cd16 O20 2.273 . S
Cd16 O24 2.277 . S
O17 C14 1.160 . S
O17 Cd18 2.203 . S
Cd18 O17 2.203 . S
Cd18 O20 2.411 . S
Cd18 O21 2.333 . S
Cd18 O22 2.352 . S
Cd18 O26 2.277 . S
Cd18 O27 2.356 . S
C19 O24 1.209 . S
C19 O26 1.226 . S
O20 Cd16 2.273 . S
O20 Cd18 2.411 . S
O20 C23 1.320 . S
O21 Cd18 2.333 . S
O21 C23 1.214 . S
O22 Cd18 2.352 . S
O22 C25 1.258 . S
C23 O20 1.320 . S
C23 O21 1.214 . S
O24 Cd16 2.277 . S
O24 C19 1.209 . S
C25 O22 1.258 . S
C25 O27 1.282 . S
O26 Cd18 2.277 . S
O26 C19 1.226 . S
O27 Cd18 2.356 . S
O27 C25 1.282 . S
C28 O29 1.306 . S
C28 O31 1.160 . S
O29 C28 1.306 . S
O29 Cd30 2.228 . S
Cd30 O29 2.228 . S
Cd30 O34 2.273 . S
Cd30 O38 2.277 . S
O31 C28 1.160 . S
O31 Cd32 2.203 . S
Cd32 O31 2.203 . S
Cd32 O34 2.411 . S
Cd32 O35 2.333 . S
Cd32 O36 2.352 . S
Cd32 O40 2.277 . S
Cd32 O41 2.356 . S
C33 O38 1.209 . S
C33 O40 1.226 . S
O34 Cd30 2.273 . S
O34 Cd32 2.411 . S
O34 C37 1.320 . S
O35 Cd32 2.333 . S
O35 C37 1.214 . S
O36 Cd32 2.352 . S
O36 C39 1.258 . S
C37 O34 1.320 . S
C37 O35 1.214 . S
O38 Cd30 2.277 . S
O38 C33 1.209 . S
C39 O36 1.258 . S
C39 O41 1.282 . S
O40 Cd32 2.277 . S
O40 C33 1.226 . S
O41 Cd32 2.356 . S
O41 C39 1.282 . S
C42 O43 1.306 . S
C42 O45 1.160 . S
O43 C42 1.306 . S
O43 Cd44 2.228 . S
Cd44 O43 2.228 . S
Cd44 O48 2.273 . S
Cd44 O52 2.277 . S
O45 C42 1.160 . S
O45 Cd46 2.203 . S
Cd46 O45 2.203 . S
Cd46 O48 2.411 . S
Cd46 O49 2.333 . S
Cd46 O50 2.352 . S
Cd46 O54 2.277 . S
Cd46 O55 2.356 . S
C47 O52 1.209 . S
C47 O54 1.226 . S
O48 Cd44 2.273 . S
O48 Cd46 2.411 . S
O48 C51 1.320 . S
O49 Cd46 2.333 . S
O49 C51 1.214 . S
O50 Cd46 2.352 . S
O50 C53 1.258 . S
C51 O48 1.320 . S
C51 O49 1.214 . S
O52 Cd44 2.277 . S
O52 C47 1.209 . S
C53 O50 1.258 . S
C53 O55 1.282 . S
O54 Cd46 2.277 . S
O54 C47 1.226 . S
O55 Cd46 2.356 . S
O55 C53 1.282 . S
C56 O57 1.306 . S
C56 O59 1.160 . S
O57 C56 1.306 . S
O57 Cd58 2.228 . S
Cd58 O57 2.228 . S
Cd58 O62 2.273 . S
Cd58 O66 2.277 . S
O59 C56 1.160 . S
O59 Cd60 2.203 . S
Cd60 O59 2.203 . S
Cd60 O62 2.411 . S
Cd60 O63 2.333 . S
Cd60 O64 2.352 . S
Cd60 O68 2.277 . S
Cd60 O69 2.356 . S
C61 O66 1.209 . S
C61 O68 1.226 . S
O62 Cd58 2.273 . S
O62 Cd60 2.411 . S
O62 C65 1.320 . S
O63 Cd60 2.333 . S
O63 C65 1.214 . S
O64 Cd60 2.352 . S
O64 C67 1.258 . S
C65 O62 1.320 . S
C65 O63 1.214 . S
O66 Cd58 2.277 . S
O66 C61 1.209 . S
C67 O64 1.258 . S
C67 O69 1.282 . S
O68 Cd60 2.277 . S
O68 C61 1.226 . S
O69 Cd60 2.356 . S
O69 C67 1.282 . S
C70 O71 1.306 . S
C70 O73 1.160 . S
O71 C70 1.306 . S
O71 Cd72 2.228 . S
Cd72 O71 2.228 . S
Cd72 O76 2.273 . S
Cd72 O80 2.277 . S
O73 C70 1.160 . S
O73 Cd74 2.203 . S
Cd74 O73 2.203 . S
Cd74 O76 2.411 . S
Cd74 O77 2.333 . S
Cd74 O78 2.352 . S
Cd74 O82 2.277 . S
Cd74 O83 2.356 . S
C75 O80 1.209 1_554 S
C75 O82 1.226 1_554 S
O76 Cd72 2.273 . S
O76 Cd74 2.411 . S
O76 C79 1.320 . S
O77 Cd74 2.333 . S
O77 C79 1.214 . S
O78 Cd74 2.352 . S
O78 C81 1.258 . S
C79 O76 1.320 . S
C79 O77 1.214 . S
O80 Cd72 2.277 . S
O80 C75 1.209 1_556 S
C81 O78 1.258 . S
C81 O83 1.282 . S
O82 Cd74 2.277 . S
O82 C75 1.226 1_556 S
O83 Cd74 2.356 . S
O83 C81 1.282 . S
C84 O85 1.306 1_554 S
C84 O87 1.160 1_554 S
O85 C84 1.306 1_556 S
O85 Cd86 2.228 . S
Cd86 O85 2.228 . S
Cd86 O90 2.273 . S
Cd86 O94 2.277 . S
O87 C84 1.160 1_556 S
O87 Cd88 2.203 . S
Cd88 O87 2.203 . S
Cd88 O90 2.411 . S
Cd88 O91 2.333 . S
Cd88 O92 2.352 . S
Cd88 O96 2.277 . S
Cd88 O97 2.356 . S
C89 O94 1.209 . S
C89 O96 1.226 . S
O90 Cd86 2.273 . S
O90 Cd88 2.411 . S
O90 C93 1.320 . S
O91 Cd88 2.333 . S
O91 C93 1.214 . S
O92 Cd88 2.352 . S
O92 C95 1.258 . S
C93 O90 1.320 . S
C93 O91 1.214 . S
O94 Cd86 2.277 . S
O94 C89 1.209 . S
C95 O92 1.258 . S
C95 O97 1.282 . S
O96 Cd88 2.277 . S
O96 C89 1.226 . S
O97 Cd88 2.356 . S
O97 C95 1.282 . S
C98 O99 1.306 . S
C98 O101 1.160 . S
O99 C98 1.306 . S
O99 Cd100 2.228 . S
Cd100 O99 2.228 . S
Cd100 O104 2.273 . S
Cd100 O108 2.277 1_554 S
O101 C98 1.160 . S
O101 Cd102 2.203 . S
Cd102 O101 2.203 . S
Cd102 O104 2.411 . S
Cd102 O105 2.333 1_554 S
Cd102 O106 2.352 . S
Cd102 O110 2.277 1_554 S
Cd102 O111 2.356 . S
C103 O108 1.209 . S
C103 O110 1.226 . S
O104 Cd100 2.273 . S
O104 Cd102 2.411 . S
O104 C107 1.320 . S
O105 Cd102 2.333 1_556 S
O105 C107 1.214 1_556 S
O106 Cd102 2.352 . S
O106 C109 1.258 . S
C107 O104 1.320 . S
C107 O105 1.214 1_554 S
O108 Cd100 2.277 1_556 S
O108 C103 1.209 . S
C109 O106 1.258 . S
C109 O111 1.282 . S
O110 Cd102 2.277 1_556 S
O110 C103 1.226 . S
O111 Cd102 2.356 . S
O111 C109 1.282 . S
C112 O113 1.306 . S
C112 O115 1.160 . S
O113 C112 1.306 . S
O113 Cd114 2.228 . S
Cd114 O113 2.228 . S
Cd114 O118 2.273 . S
Cd114 O122 2.277 . S
O115 C112 1.160 . S
O115 Cd116 2.203 . S
Cd116 O115 2.203 . S
Cd116 O118 2.411 . S
Cd116 O119 2.333 . S
Cd116 O120 2.352 . S
Cd116 O124 2.277 . S
Cd116 O125 2.356 . S
C117 O122 1.209 . S
C117 O124 1.226 . S
O118 Cd114 2.273 . S
O118 Cd116 2.411 . S
O118 C121 1.320 . S
O119 Cd116 2.333 . S
O119 C121 1.214 . S
O120 Cd116 2.352 . S
O120 C123 1.258 . S
C121 O118 1.320 . S
C121 O119 1.214 . S
O122 Cd114 2.277 . S
O122 C117 1.209 . S
C123 O120 1.258 . S
C123 O125 1.282 . S
O124 Cd116 2.277 . S
O124 C117 1.226 . S
O125 Cd116 2.356 . S
O125 C123 1.282 . S
C126 O127 1.306 . S
C126 O129 1.160 . S
O127 C126 1.306 . S
O127 Cd128 2.228 . S
Cd128 O127 2.228 . S
Cd128 O132 2.273 . S
Cd128 O136 2.277 . S
O129 C126 1.160 . S
O129 Cd130 2.203 . S
Cd130 O129 2.203 . S
Cd130 O132 2.411 . S
Cd130 O133 2.333 . S
Cd130 O134 2.352 . S
Cd130 O138 2.277 . S
Cd130 O139 2.356 . S
C131 O136 1.209 . S
C131 O138 1.226 . S
O132 Cd128 2.273 . S
O132 Cd130 2.411 . S
O132 C135 1.320 . S
O133 Cd130 2.333 . S
O133 C135 1.214 . S
O134 Cd130 2.352 . S
O134 C137 1.258 . S
C135 O132 1.320 . S
C135 O133 1.214 . S
O136 Cd128 2.277 . S
O136 C131 1.209 . S
C137 O134 1.258 . S
C137 O139 1.282 . S
O138 Cd130 2.277 . S
O138 C131 1.226 . S
O139 Cd130 2.356 . S
O139 C137 1.282 . S
C140 O141 1.306 . S
C140 O143 1.160 . S
O141 C140 1.306 . S
O141 Cd142 2.228 . S
Cd142 O141 2.228 . S
Cd142 O146 2.273 . S
Cd142 O150 2.277 . S
O143 C140 1.160 . S
O143 Cd144 2.203 . S
Cd144 O143 2.203 . S
Cd144 O146 2.411 . S
Cd144 O147 2.333 . S
Cd144 O148 2.352 . S
Cd144 O152 2.277 . S
Cd144 O153 2.356 . S
C145 O150 1.209 . S
C145 O152 1.226 . S
O146 Cd142 2.273 . S
O146 Cd144 2.411 . S
O146 C149 1.320 . S
O147 Cd144 2.333 . S
O147 C149 1.214 . S
O148 Cd144 2.352 . S
O148 C151 1.258 . S
C149 O146 1.320 . S
C149 O147 1.214 . S
O150 Cd142 2.277 . S
O150 C145 1.209 . S
C151 O148 1.258 . S
C151 O153 1.282 . S
O152 Cd144 2.277 . S
O152 C145 1.226 . S
O153 Cd144 2.356 . S
O153 C151 1.282 . S
C154 O155 1.306 . S
C154 O157 1.160 . S
O155 C154 1.306 . S
O155 Cd156 2.228 . S
Cd156 O155 2.228 . S
Cd156 O160 2.273 . S
Cd156 O164 2.277 . S
O157 C154 1.160 . S
O157 Cd158 2.203 . S
Cd158 O157 2.203 . S
Cd158 O160 2.411 . S
Cd158 O161 2.333 . S
Cd158 O162 2.352 . S
Cd158 O166 2.277 . S
Cd158 O167 2.356 . S
C159 O164 1.209 . S
C159 O166 1.226 . S
O160 Cd156 2.273 . S
O160 Cd158 2.411 . S
O160 C163 1.320 . S
O161 Cd158 2.333 . S
O161 C163 1.214 . S
O162 Cd158 2.352 . S
O162 C165 1.258 . S
C163 O160 1.320 . S
C163 O161 1.214 . S
O164 Cd156 2.277 . S
O164 C159 1.209 . S
C165 O162 1.258 . S
C165 O167 1.282 . S
O166 Cd158 2.277 . S
O166 C159 1.226 . S
O167 Cd158 2.356 . S
O167 C165 1.282 . S
C168 C169 1.387 . S
C168 H172 0.950 . S
C168 C177 1.390 . S
C169 C168 1.387 . S
C169 C171 1.387 . S
H170 C177 0.950 . S
C171 C169 1.387 . S
C171 C173 1.390 . S
C171 H175 0.950 . S
H172 C168 0.950 . S
C173 C171 1.390 . S
C173 C174 1.387 . S
C173 H176 0.950 . S
C174 C173 1.387 . S
C174 C177 1.387 . S
H175 C171 0.950 . S
H176 C173 0.950 . S
C177 C168 1.390 . S
C177 H170 0.950 . S
C177 C174 1.387 . S
C178 C179 1.387 . S
C178 H182 0.950 . S
C178 C187 1.390 . S
C179 C178 1.387 . S
C179 C181 1.387 . S
H180 C187 0.950 . S
C181 C179 1.387 . S
C181 C183 1.390 . S
C181 H185 0.950 . S
H182 C178 0.950 . S
C183 C181 1.390 . S
C183 C184 1.387 . S
C183 H186 0.950 . S
C184 C183 1.387 . S
C184 C187 1.387 . S
H185 C181 0.950 . S
H186 C183 0.950 . S
C187 C178 1.390 . S
C187 H180 0.950 . S
C187 C184 1.387 . S
C188 C189 1.387 . S
C188 H192 0.950 . S
C188 C197 1.390 . S
C189 C188 1.387 . S
C189 C191 1.387 . S
H190 C197 0.950 . S
C191 C189 1.387 . S
C191 C193 1.390 . S
C191 H195 0.950 . S
H192 C188 0.950 . S
C193 C191 1.390 . S
C193 C194 1.387 . S
C193 H196 0.950 . S
C194 C193 1.387 . S
C194 C197 1.387 . S
H195 C191 0.950 . S
H196 C193 0.950 . S
C197 C188 1.390 . S
C197 H190 0.950 . S
C197 C194 1.387 . S
C198 C199 1.387 . S
C198 H202 0.950 . S
C198 C207 1.390 . S
C199 C198 1.387 . S
C199 C201 1.387 . S
H200 C207 0.950 . S
C201 C199 1.387 . S
C201 C203 1.390 . S
C201 H205 0.950 . S
H202 C198 0.950 . S
C203 C201 1.390 . S
C203 C204 1.387 . S
C203 H206 0.950 . S
C204 C203 1.387 . S
C204 C207 1.387 . S
H205 C201 0.950 . S
H206 C203 0.950 . S
C207 C198 1.390 . S
C207 H200 0.950 . S
C207 C204 1.387 . S
C208 C209 1.387 . S
C208 H212 0.950 . S
C208 C217 1.390 . S
C209 C208 1.387 . S
C209 C211 1.387 . S
H210 C217 0.950 . S
C211 C209 1.387 . S
C211 C213 1.390 1_556 S
C211 H215 0.950 . S
H212 C208 0.950 . S
C213 C211 1.390 1_554 S
C213 C214 1.387 . S
C213 H216 0.950 . S
C214 C213 1.387 . S
C214 C217 1.387 1_554 S
H215 C211 0.950 . S
H216 C213 0.950 . S
C217 C208 1.390 . S
C217 H210 0.950 . S
C217 C214 1.387 1_556 S
C218 C219 1.387 . S
C218 H222 0.950 . S
C218 C227 1.390 . S
C219 C218 1.387 . S
C219 C221 1.387 . S
H220 C227 0.950 . S
C221 C219 1.387 . S
C221 C223 1.390 . S
C221 H225 0.950 . S
H222 C218 0.950 . S
C223 C221 1.390 . S
C223 C224 1.387 . S
C223 H226 0.950 1_554 S
C224 C223 1.387 . S
C224 C227 1.387 . S
H225 C221 0.950 . S
H226 C223 0.950 1_556 S
C227 C218 1.390 . S
C227 H220 0.950 . S
C227 C224 1.387 . S
C228 C229 1.387 . S
C228 H232 0.950 . S
C228 C237 1.390 . S
C229 C228 1.387 . S
C229 C231 1.387 . S
H230 C237 0.950 . S
C231 C229 1.387 . S
C231 C233 1.390 . S
C231 H235 0.950 . S
H232 C228 0.950 . S
C233 C231 1.390 . S
C233 C234 1.387 . S
C233 H236 0.950 . S
C234 C233 1.387 . S
C234 C237 1.387 . S
H235 C231 0.950 . S
H236 C233 0.950 . S
C237 C228 1.390 . S
C237 H230 0.950 . S
C237 C234 1.387 . S
C238 C239 1.387 . S
C238 H242 0.950 . S
C238 C247 1.390 . S
C239 C238 1.387 . S
C239 C241 1.387 . S
H240 C247 0.950 . S
C241 C239 1.387 . S
C241 C243 1.390 . S
C241 H245 0.950 . S
H242 C238 0.950 . S
C243 C241 1.390 . S
C243 C244 1.387 . S
C243 H246 0.950 . S
C244 C243 1.387 . S
C244 C247 1.387 . S
H245 C241 0.950 . S
H246 C243 0.950 . S
C247 C238 1.390 . S
C247 H240 0.950 . S
C247 C244 1.387 . S
C248 C249 1.387 . S
C248 H252 0.950 . S
C248 C257 1.390 . S
C249 C248 1.387 . S
C249 C251 1.387 . S
H250 C257 0.950 . S
C251 C249 1.387 . S
C251 C253 1.390 . S
C251 H255 0.950 . S
H252 C248 0.950 . S
C253 C251 1.390 . S
C253 C254 1.387 . S
C253 H256 0.950 . S
C254 C253 1.387 . S
C254 C257 1.387 . S
H255 C251 0.950 . S
H256 C253 0.950 . S
C257 C248 1.390 . S
C257 H250 0.950 . S
C257 C254 1.387 . S
C258 C259 1.387 . S
C258 H262 0.950 . S
C258 C267 1.390 . S
C259 C258 1.387 . S
C259 C261 1.387 . S
H260 C267 0.950 . S
C261 C259 1.387 . S
C261 C263 1.390 . S
C261 H265 0.950 . S
H262 C258 0.950 . S
C263 C261 1.390 . S
C263 C264 1.387 . S
C263 H266 0.950 . S
C264 C263 1.387 . S
C264 C267 1.387 . S
H265 C261 0.950 . S
H266 C263 0.950 . S
C267 C258 1.390 . S
C267 H260 0.950 . S
C267 C264 1.387 . S
C268 C269 1.387 . S
C268 H272 0.950 . S
C268 C277 1.390 . S
C269 C268 1.387 . S
C269 C271 1.387 . S
H270 C277 0.950 . S
C271 C269 1.387 . S
C271 C273 1.390 . S
C271 H275 0.950 . S
H272 C268 0.950 . S
C273 C271 1.390 . S
C273 C274 1.387 . S
C273 H276 0.950 . S
C274 C273 1.387 . S
C274 C277 1.387 . S
H275 C271 0.950 . S
H276 C273 0.950 . S
C277 C268 1.390 . S
C277 H270 0.950 . S
C277 C274 1.387 . S
C278 C279 1.387 . S
C278 H282 0.950 . S
C278 C287 1.390 . S
C279 C278 1.387 . S
C279 C281 1.387 1_556 S
H280 C287 0.950 . S
C281 C279 1.387 1_554 S
C281 C283 1.390 . S
C281 H285 0.950 . S
H282 C278 0.950 . S
C283 C281 1.390 . S
C283 C284 1.387 1_554 S
C283 H286 0.950 . S
C284 C283 1.387 1_556 S
C284 C287 1.387 . S
H285 C281 0.950 . S
H286 C283 0.950 . S
C287 C278 1.390 . S
C287 H280 0.950 . S
C287 C284 1.387 . S
C288 C289 1.387 . S
C288 H292 0.950 . S
C288 C297 1.390 . S
C289 C288 1.387 . S
C289 C291 1.387 . S
H290 C297 0.950 . S
C291 C289 1.387 . S
C291 C293 1.390 . S
C291 H295 0.950 . S
H292 C288 0.950 . S
C293 C291 1.390 . S
C293 C294 1.387 . S
C293 H296 0.950 . S
C294 C293 1.387 . S
C294 C297 1.387 . S
H295 C291 0.950 . S
H296 C293 0.950 . S
C297 C288 1.390 . S
C297 H290 0.950 . S
C297 C294 1.387 . S
C298 C299 1.387 1_556 S
C298 H302 0.950 . S
C298 C307 1.390 . S
C299 C298 1.387 1_554 S
C299 C301 1.387 . S
H300 C307 0.950 . S
C301 C299 1.387 . S
C301 C303 1.390 1_554 S
C301 H305 0.950 . S
H302 C298 0.950 . S
C303 C301 1.390 1_556 S
C303 C304 1.387 . S
C303 H306 0.950 . S
C304 C303 1.387 . S
C304 C307 1.387 . S
H305 C301 0.950 . S
H306 C303 0.950 . S
C307 C298 1.390 . S
C307 H300 0.950 . S
C307 C304 1.387 . S
C308 C309 1.387 . S
C308 H312 0.950 . S
C308 C317 1.390 . S
C309 C308 1.387 . S
C309 C311 1.387 . S
H310 C317 0.950 . S
C311 C309 1.387 . S
C311 C313 1.390 . S
C311 H315 0.950 . S
H312 C308 0.950 . S
C313 C311 1.390 . S
C313 C314 1.387 . S
C313 H316 0.950 1_554 S
C314 C313 1.387 . S
C314 C317 1.387 . S
H315 C311 0.950 . S
H316 C313 0.950 1_556 S
C317 C308 1.390 . S
C317 H310 0.950 . S
C317 C314 1.387 . S
C318 C319 1.387 . S
C318 H322 0.950 . S
C318 C327 1.390 . S
C319 C318 1.387 . S
C319 C321 1.387 . S
H320 C327 0.950 . S
C321 C319 1.387 . S
C321 C323 1.390 . S
C321 H325 0.950 . S
H322 C318 0.950 . S
C323 C321 1.390 . S
C323 C324 1.387 . S
C323 H326 0.950 . S
C324 C323 1.387 . S
C324 C327 1.387 . S
H325 C321 0.950 . S
H326 C323 0.950 . S
C327 C318 1.390 . S
C327 H320 0.950 . S
C327 C324 1.387 . S
C328 C329 1.387 . S
C328 H332 0.950 . S
C328 C337 1.390 . S
C329 C328 1.387 . S
C329 C331 1.387 . S
H330 C337 0.950 . S
C331 C329 1.387 . S
C331 C333 1.390 . S
C331 H335 0.950 . S
H332 C328 0.950 . S
C333 C331 1.390 . S
C333 C334 1.387 . S
C333 H336 0.950 . S
C334 C333 1.387 . S
C334 C337 1.387 . S
H335 C331 0.950 . S
H336 C333 0.950 . S
C337 C328 1.390 . S
C337 H330 0.950 . S
C337 C334 1.387 . S
C338 C339 1.387 . S
C338 H342 0.950 . S
C338 C347 1.390 . S
C339 C338 1.387 . S
C339 C341 1.387 . S
H340 C347 0.950 . S
C341 C339 1.387 . S
C341 C343 1.390 . S
C341 H345 0.950 . S
H342 C338 0.950 . S
C343 C341 1.390 . S
C343 C344 1.387 . S
C343 H346 0.950 . S
C344 C343 1.387 . S
C344 C347 1.387 . S
H345 C341 0.950 . S
H346 C343 0.950 . S
C347 C338 1.390 . S
C347 H340 0.950 . S
C347 C344 1.387 . S
C348 C349 1.387 1_655 S
C348 H352 0.950 1_556 S
C348 C357 1.390 . S
C349 C348 1.387 1_455 S
C349 C351 1.387 . S
H350 C357 0.950 . S
C351 C349 1.387 . S
C351 C353 1.390 . S
C351 H355 0.950 . S
H352 C348 0.950 1_554 S
C353 C351 1.390 . S
C353 C354 1.387 1_455 S
C353 H356 0.950 . S
C354 C353 1.387 1_655 S
C354 C357 1.387 . S
H355 C351 0.950 . S
H356 C353 0.950 . S
C357 C348 1.390 . S
C357 H350 0.950 . S
C357 C354 1.387 . S
C358 C359 1.387 1_554 S
C358 H362 0.950 . S
C358 C367 1.390 1_565 S
C359 C358 1.387 1_556 S
C359 C361 1.387 1_556 S
H360 C367 0.950 . S
C361 C359 1.387 1_554 S
C361 C363 1.390 1_565 S
C361 H365 0.950 . S
H362 C358 0.950 . S
C363 C361 1.390 1_545 S
C363 C364 1.387 . S
C363 H366 0.950 . S
C364 C363 1.387 . S
C364 C367 1.387 . S
H365 C361 0.950 . S
H366 C363 0.950 . S
C367 C358 1.390 1_545 S
C367 H360 0.950 . S
C367 C364 1.387 . S
C368 C369 1.387 . S
C368 H372 0.950 . S
C368 C377 1.390 . S
C369 C368 1.387 . S
C369 C371 1.387 . S
H370 C377 0.950 . S
C371 C369 1.387 . S
C371 C373 1.390 . S
C371 H375 0.950 . S
H372 C368 0.950 . S
C373 C371 1.390 . S
C373 C374 1.387 . S
C373 H376 0.950 . S
C374 C373 1.387 . S
C374 C377 1.387 . S
H375 C371 0.950 . S
H376 C373 0.950 . S
C377 C368 1.390 . S
C377 H370 0.950 . S
C377 C374 1.387 . S
C378 C379 1.387 . S
C378 H382 0.950 . S
C378 C387 1.390 1_455 S
C379 C378 1.387 . S
C379 C381 1.387 . S
H380 C387 0.950 . S
C381 C379 1.387 . S
C381 C383 1.390 1_455 S
C381 H385 0.950 . S
H382 C378 0.950 . S
C383 C381 1.390 1_655 S
C383 C384 1.387 . S
C383 H386 0.950 . S
C384 C383 1.387 . S
C384 C387 1.387 . S
H385 C381 0.950 . S
H386 C383 0.950 . S
C387 C378 1.390 1_655 S
C387 H380 0.950 . S
C387 C384 1.387 . S
C388 C389 1.387 . S
C388 H392 0.950 . S
C388 C397 1.390 1_545 S
C389 C388 1.387 . S
C389 C391 1.387 . S
H390 C397 0.950 . S
C391 C389 1.387 . S
C391 C393 1.390 1_545 S
C391 H395 0.950 . S
H392 C388 0.950 . S
C393 C391 1.390 1_565 S
C393 C394 1.387 . S
C393 H396 0.950 . S
C394 C393 1.387 . S
C394 C397 1.387 . S
H395 C391 0.950 . S
H396 C393 0.950 . S
C397 C388 1.390 1_565 S
C397 H390 0.950 . S
C397 C394 1.387 . S
C398 C399 1.387 . S
C398 H402 0.950 . S
C398 C407 1.390 . S
C399 C398 1.387 . S
C399 C401 1.387 . S
H400 C407 0.950 . S
C401 C399 1.387 . S
C401 C403 1.390 . S
C401 H405 0.950 . S
H402 C398 0.950 . S
C403 C401 1.390 . S
C403 C404 1.387 . S
C403 H406 0.950 . S
C404 C403 1.387 . S
C404 C407 1.387 . S
H405 C401 0.950 . S
H406 C403 0.950 . S
C407 C398 1.390 . S
C407 H400 0.950 . S
C407 C404 1.387 . S
C169 C5 1.516 . S
C174 C145 1.516 . S
C179 C159 1.515 . S
C184 C19 1.515 . S
C189 C33 1.516 . S
C194 C89 1.516 . S
C199 C47 1.516 . S
C204 C103 1.516 . S
C209 C61 1.515 . S
C214 C117 1.515 . S
C219 C131 1.516 . S
C224 C75 1.515 . S
C229 C9 1.575 . S
C234 C121 1.574 . S
C239 C23 1.574 . S
C244 C135 1.574 . S
C249 C149 1.575 . S
C254 C37 1.574 . S
C259 C51 1.575 . S
C264 C163 1.574 . S
C269 C65 1.575 . S
C274 C93 1.575 . S
C279 C79 1.574 . S
C284 C107 1.574 1_556 S
C289 C140 1.348 . S
C294 C0 1.348 . S
C299 C14 1.349 . S
C304 C154 1.348 . S
C309 C28 1.348 . S
C314 C84 1.349 . S
C319 C42 1.349 . S
C324 C98 1.349 . S
C329 C112 1.348 . S
C334 C56 1.349 . S
C339 C70 1.349 . S
C344 C126 1.348 . S
C349 C11 1.460 . S
C354 C165 1.459 . S
C359 C95 1.459 . S
C364 C25 1.459 . S
C369 C109 1.459 . S
C374 C39 1.459 . S
C379 C123 1.459 . S
C384 C53 1.459 . S
C389 C137 1.459 . S
C394 C67 1.459 . S
C399 C151 1.459 . S
C404 C81 1.459 . S
