# Generated by pormake.
# Topology wlj, (5)-cn, num edge types: 1
# Building blocks:
#     Node 0, Type 0, BuildingBlock: XOMCOT_clean_sbu_0, # of connection points: 5
#     Node 1, Type 0, BuildingBlock: XOMCOT_clean_sbu_0, # of connection points: 5
#     Node 2, Type 0, BuildingBlock: XOMCOT_clean_sbu_0, # of connection points: 5
#     Node 3, Type 0, BuildingBlock: XOMCOT_clean_sbu_0, # of connection points: 5
#     Node 4, Type 0, BuildingBlock: XOMCOT_clean_sbu_0, # of connection points: 5
#     Node 5, Type 0, BuildingBlock: XOMCOT_clean_sbu_0, # of connection points: 5
#     Edge 6, Type (0, 0), BuildingBlock: UVAHIK_clean_linker_0, # of connection points: 2
#     Edge 7, Type (0, 0), BuildingBlock: UVAHIK_clean_linker_0, # of connection points: 2
#     Edge 8, Type (0, 0), BuildingBlock: UVAHIK_clean_linker_0, # of connection points: 2
#     Edge 9, Type (0, 0), BuildingBlock: UVAHIK_clean_linker_0, # of connection points: 2
#     Edge 10, Type (0, 0), BuildingBlock: UVAHIK_clean_linker_0, # of connection points: 2
#     Edge 11, Type (0, 0), BuildingBlock: UVAHIK_clean_linker_0, # of connection points: 2
#     Edge 12, Type (0, 0), BuildingBlock: UVAHIK_clean_linker_0, # of connection points: 2
#     Edge 13, Type (0, 0), BuildingBlock: UVAHIK_clean_linker_0, # of connection points: 2
#     Edge 14, Type (0, 0), BuildingBlock: UVAHIK_clean_linker_0, # of connection points: 2
#     Edge 15, Type (0, 0), BuildingBlock: UVAHIK_clean_linker_0, # of connection points: 2
#     Edge 16, Type (0, 0), BuildingBlock: UVAHIK_clean_linker_0, # of connection points: 2
#     Edge 17, Type (0, 0), BuildingBlock: UVAHIK_clean_linker_0, # of connection points: 2
#     Edge 18, Type (0, 0), BuildingBlock: UVAHIK_clean_linker_0, # of connection points: 2
#     Edge 19, Type (0, 0), BuildingBlock: UVAHIK_clean_linker_0, # of connection points: 2
#     Edge 20, Type (0, 0), BuildingBlock: UVAHIK_clean_linker_0, # of connection points: 2
# Relax obj value: 0.141
# Max RMSD: 0.206
# Mean RMSD: 0.206
data_MOF--net-wlj--node1-XOMCOT_clean_sbu_0--edge1-UVAHIK_clean_linker_0
_symmetry_space_group_name_H-M    P1
_symmetry_Int_Tables_number       1
_symmetry_cell_setting            triclinic
loop_
_symmetry_equiv_pos_as_xyz
'x, y, z'
_cell_length_a     32.381397
_cell_length_b     32.298178
_cell_length_c     69.3317
_cell_angle_alpha  89.906743
_cell_angle_beta   90.208354
_cell_angle_gamma 119.86891
loop_
_atom_site_label
_atom_site_type_symbol
_atom_site_fract_x
_atom_site_fract_y
_atom_site_fract_z
_atom_type_partial_charge
Co0 Co 0.55583 0.30156 0.2502 0.0
C1 C 0.51683 0.35762 0.23042 0.0
C2 C 0.52524 0.31012 0.21135 0.0
C3 C 0.5097 0.33573 0.20075 0.0
N4 N 0.52968 0.32364 0.22998 0.0
N5 N 0.50453 0.36564 0.21274 0.0
H6 H 0.5183 0.37767 0.24311 0.0
H7 H 0.53443 0.28461 0.20567 0.0
C8 C 0.52232 0.19712 0.23945 0.0
O9 O 0.55021 0.1937 0.25232 0.0
N10 N 0.58255 0.28041 0.27049 0.0
C11 C 0.62909 0.29856 0.27462 0.0
C12 C 0.63344 0.27263 0.28942 0.0
C13 C 0.55916 0.2457 0.28371 0.0
N14 N 0.58945 0.23874 0.29498 0.0
C15 C 0.63729 0.37036 0.23033 0.0
C16 C 0.67294 0.31247 0.21868 0.0
C17 C 0.6995 0.36165 0.21513 0.0
C18 C 0.68066 0.39047 0.22073 0.0
C19 C 0.62953 0.29369 0.22848 0.0
N20 N 0.61266 0.32278 0.23451 0.0
H21 H 0.6237 0.39336 0.23474 0.0
H22 H 0.61108 0.25635 0.2318 0.0
H23 H 0.65813 0.32785 0.26708 0.0
H24 H 0.52075 0.22408 0.28415 0.0
O25 O 0.57689 0.35934 0.26469 0.0
O26 O 0.5059 0.29471 0.26775 0.0
O27 O 0.52188 0.23628 0.23715 0.0
C28 C 0.53581 0.3383 0.27321 0.0
H29 H 0.5033 0.33294 0.18535 0.0
H30 H 0.66669 0.27692 0.29487 0.0
H31 H 0.68646 0.28907 0.21463 0.0
H32 H 0.69962 0.42852 0.21792 0.0
Co33 Co 0.71464 0.25441 0.91848 0.0
C34 C 0.64883 0.15976 0.89923 0.0
C35 C 0.72207 0.17787 0.90032 0.0
C36 C 0.69601 0.13238 0.89334 0.0
N37 N 0.69304 0.19592 0.90365 0.0
N38 N 0.65003 0.12094 0.89271 0.0
H39 H 0.61612 0.15966 0.90214 0.0
H40 H 0.75961 0.19568 0.9038 0.0
C41 C 0.7809 0.28165 0.88563 0.0
O42 O 0.74244 0.25867 0.87492 0.0
N43 N 0.73815 0.31134 0.93394 0.0
C44 C 0.71428 0.33291 0.94022 0.0
C45 C 0.74485 0.37182 0.95127 0.0
C46 C 0.78241 0.33681 0.9413 0.0
N47 N 0.78765 0.37412 0.95197 0.0
C48 C 0.64039 0.2586 0.89726 0.0
C49 C 0.6975 0.34699 0.88063 0.0
C50 C 0.64863 0.32258 0.87652 0.0
C51 C 0.61995 0.27799 0.88513 0.0
C52 C 0.71656 0.32603 0.89272 0.0
N53 N 0.68837 0.28142 0.90028 0.0
H54 H 0.61718 0.22628 0.90489 0.0
H55 H 0.75398 0.34624 0.89632 0.0
H56 H 0.67726 0.32094 0.93712 0.0
H57 H 0.81015 0.32805 0.93883 0.0
O58 O 0.66037 0.22218 0.93512 0.0
O59 O 0.72865 0.22294 0.93934 0.0
O60 O 0.77718 0.28438 0.90393 0.0
C61 C 0.68502 0.20779 0.94498 0.0
H62 H 0.70959 0.10885 0.88961 0.0
H63 H 0.73582 0.39577 0.95863 0.0
H64 H 0.72078 0.38201 0.87461 0.0
H65 H 0.58169 0.25896 0.88308 0.0
Co66 Co 0.75644 0.46699 0.58453 0.0
C67 C 0.84149 0.48862 0.561 0.0
C68 C 0.80497 0.52389 0.54999 0.0
C69 C 0.84308 0.53479 0.53825 0.0
N70 N 0.80363 0.49463 0.56422 0.0
N71 N 0.86598 0.51279 0.54523 0.0
H72 H 0.85086 0.46685 0.56982 0.0
H73 H 0.7802 0.53676 0.54808 0.0
C74 C 0.67522 0.47701 0.56931 0.0
O75 O 0.64661 0.43279 0.57485 0.0
N76 N 0.70951 0.44085 0.60517 0.0
C77 C 0.69319 0.39974 0.61515 0.0
C78 C 0.65936 0.39605 0.6281 0.0
C79 C 0.68708 0.46259 0.61301 0.0
N80 N 0.65522 0.43544 0.6266 0.0
C81 C 0.72151 0.36858 0.57511 0.0
C82 C 0.68274 0.36857 0.53958 0.0
C83 C 0.67767 0.32559 0.54667 0.0
C84 C 0.69857 0.32639 0.5645 0.0
C85 C 0.70636 0.41016 0.55069 0.0
N86 N 0.7226 0.40918 0.56885 0.0
H87 H 0.73971 0.36863 0.58813 0.0
H88 H 0.71174 0.44312 0.54449 0.0
H89 H 0.70508 0.37419 0.61367 0.0
H90 H 0.69288 0.49705 0.60835 0.0
O91 O 0.79682 0.44971 0.5986 0.0
O92 O 0.79855 0.51872 0.60177 0.0
O93 O 0.72004 0.49653 0.57245 0.0
C94 C 0.81575 0.4913 0.60677 0.0
H95 H 0.85384 0.55797 0.52575 0.0
H96 H 0.63963 0.36672 0.63796 0.0
H97 H 0.66849 0.37019 0.52563 0.0
H98 H 0.69827 0.29489 0.57006 0.0
Co99 Co 0.29711 0.54782 0.75442 0.0
C100 C 0.36117 0.51703 0.77411 0.0
C101 C 0.28803 0.46228 0.77183 0.0
C102 C 0.31334 0.44217 0.77903 0.0
N103 N 0.31741 0.50955 0.76913 0.0
N104 N 0.35928 0.47646 0.78039 0.0
H105 H 0.39415 0.54977 0.7718 0.0
H106 H 0.25079 0.44297 0.76782 0.0
C107 C 0.22819 0.50615 0.78627 0.0
O108 O 0.2658 0.52082 0.79745 0.0
N109 N 0.27499 0.58275 0.73903 0.0
C110 C 0.30076 0.62721 0.73186 0.0
C111 C 0.27099 0.6373 0.72103 0.0
C112 C 0.23021 0.56636 0.73257 0.0
N113 N 0.22665 0.59901 0.72157 0.0
C114 C 0.36929 0.62409 0.7771 0.0
C115 C 0.31086 0.65457 0.79305 0.0
C116 C 0.35931 0.67849 0.79791 0.0
C117 C 0.38867 0.66297 0.78965 0.0
C118 C 0.29285 0.61544 0.78054 0.0
N119 N 0.32164 0.59941 0.7733 0.0
H120 H 0.39317 0.61543 0.76975 0.0
H121 H 0.25579 0.59864 0.77638 0.0
H122 H 0.33851 0.65046 0.73424 0.0
H123 H 0.20108 0.53079 0.73546 0.0
O124 O 0.35291 0.57149 0.73863 0.0
O125 O 0.28524 0.50438 0.73299 0.0
O126 O 0.23334 0.51398 0.76807 0.0
C127 C 0.32937 0.53354 0.72811 0.0
H128 H 0.29927 0.4048 0.78243 0.0
H129 H 0.28113 0.6703 0.71344 0.0
H130 H 0.28713 0.66607 0.79877 0.0
H131 H 0.42672 0.68188 0.79229 0.0
Co132 Co 0.46332 0.75765 0.42336 0.0
C133 C 0.48578 0.84483 0.44589 0.0
C134 C 0.51246 0.80353 0.45985 0.0
C135 C 0.52424 0.84315 0.47094 0.0
N136 N 0.48808 0.80432 0.44414 0.0
N137 N 0.50767 0.86911 0.46208 0.0
H138 H 0.46853 0.85656 0.43562 0.0
H139 H 0.52158 0.7764 0.46319 0.0
C140 C 0.47496 0.6772 0.43852 0.0
O141 O 0.43151 0.64784 0.43237 0.0
N142 N 0.4398 0.71149 0.40225 0.0
C143 C 0.40038 0.69699 0.39131 0.0
C144 C 0.39767 0.66413 0.37804 0.0
C145 C 0.46177 0.68898 0.39463 0.0
N146 N 0.43606 0.65871 0.38026 0.0
C147 C 0.36416 0.7204 0.43118 0.0
C148 C 0.36121 0.67916 0.46643 0.0
C149 C 0.31889 0.6741 0.45869 0.0
C150 C 0.32113 0.69616 0.44101 0.0
C151 C 0.40372 0.70405 0.45608 0.0
N152 N 0.40436 0.72174 0.43805 0.0
H153 H 0.36511 0.73945 0.41831 0.0
H154 H 0.43601 0.70922 0.4628 0.0
H155 H 0.37559 0.70991 0.39225 0.0
H156 H 0.4954 0.6938 0.39984 0.0
O157 O 0.4458 0.79739 0.40888 0.0
O158 O 0.51607 0.80157 0.4071 0.0
O159 O 0.49341 0.72219 0.43583 0.0
C160 C 0.48809 0.81753 0.40145 0.0
H161 H 0.5446 0.85284 0.48422 0.0
H162 H 0.36985 0.64617 0.36737 0.0
H163 H 0.3616 0.66403 0.48033 0.0
H164 H 0.29007 0.69588 0.435 0.0
Co165 Co 0.2584 0.71598 0.0881 0.0
C166 C 0.17893 0.65332 0.11427 0.0
C167 C 0.19703 0.72695 0.1158 0.0
C168 C 0.16015 0.70113 0.12823 0.0
N169 N 0.2092 0.69719 0.10723 0.0
N170 N 0.14877 0.65496 0.12726 0.0
H171 H 0.17882 0.62108 0.10993 0.0
H172 H 0.21295 0.76467 0.11284 0.0
C173 C 0.33744 0.80672 0.10468 0.0
O174 O 0.36697 0.79141 0.10021 0.0
N175 N 0.30753 0.73673 0.06833 0.0
C176 C 0.32187 0.71103 0.05781 0.0
C177 C 0.35697 0.74106 0.04525 0.0
C178 C 0.3322 0.78142 0.06104 0.0
N179 N 0.36367 0.78544 0.04741 0.0
C180 C 0.29454 0.6541 0.09872 0.0
C181 C 0.32375 0.6887 0.13562 0.0
C182 C 0.33191 0.65258 0.12877 0.0
C183 C 0.31607 0.6347 0.11019 0.0
C184 C 0.30218 0.70734 0.12354 0.0
N185 N 0.2904 0.69195 0.10489 0.0
H186 H 0.27951 0.63713 0.08517 0.0
H187 H 0.29442 0.73372 0.12935 0.0
H188 H 0.30717 0.67295 0.05843 0.0
H189 H 0.32771 0.81075 0.06587 0.0
O190 O 0.21925 0.65823 0.07398 0.0
O191 O 0.21819 0.7257 0.0698 0.0
O192 O 0.29319 0.78149 0.10049 0.0
C193 C 0.20124 0.68099 0.06509 0.0
H194 H 0.14181 0.71494 0.13681 0.0
H195 H 0.37541 0.73075 0.03503 0.0
H196 H 0.33404 0.70257 0.15012 0.0
H197 H 0.31906 0.60492 0.10469 0.0
C198 C 0.47808 0.16319 0.20828 0.0
C199 C 0.49612 0.15689 0.22584 0.0
C200 C 0.45818 0.12626 0.19465 0.0
C201 C 0.39961 0.03466 0.17127 0.0
H202 H 0.46207 0.95932 0.1664 0.0
C203 C 0.32258 0.8616 0.12543 0.0
C204 C 0.35477 0.85098 0.11618 0.0
C205 C 0.33906 0.90106 0.13773 0.0
C206 C 0.44449 0.98031 0.16734 0.0
H207 H 0.50446 0.10582 0.24338 0.0
H208 H 0.46876 0.04139 0.21999 0.0
H209 H 0.49096 0.02317 0.18996 0.0
H210 H 0.42961 0.87493 0.11182 0.0
H211 H 0.45838 0.94428 0.13281 0.0
H212 H 0.35392 0.99234 0.14819 0.0
C213 C 0.47142 0.07527 0.21637 0.0
C214 C 0.4606 0.01654 0.18114 0.0
C215 C 0.49164 0.11218 0.22987 0.0
C216 C 0.40383 0.88176 0.11889 0.0
C217 C 0.42031 0.92141 0.13104 0.0
C218 C 0.38357 0.99843 0.15736 0.0
C219 C 0.45553 0.08214 0.19838 0.0
C220 C 0.43821 0.04398 0.18341 0.0
C221 C 0.38815 0.93103 0.14095 0.0
C222 C 0.40575 0.97069 0.15526 0.0
H223 H 0.48081 0.19711 0.20474 0.0
H224 H 0.44647 0.13292 0.18093 0.0
H225 H 0.38133 0.05489 0.17268 0.0
H226 H 0.28454 0.83858 0.1237 0.0
H227 H 0.3132 0.90701 0.14523 0.0
C228 C 0.17428 0.4548 0.81224 0.0
C229 C 0.18057 0.48053 0.79511 0.0
C230 C 0.13025 0.43224 0.82146 0.0
C231 C 0.02497 0.44012 0.83 0.0
H232 H 0.96523 0.30593 0.84358 0.0
C233 C 0.86738 0.34423 0.88401 0.0
C234 C 0.82784 0.30376 0.87618 0.0
C235 C 0.91079 0.36636 0.87409 0.0
C236 C 0.98164 0.34344 0.83991 0.0
H237 H 0.14594 0.50293 0.77411 0.0
H238 H 0.06856 0.46421 0.79069 0.0
H239 H 0.03963 0.34312 0.82524 0.0
H240 H 0.80287 0.25385 0.85225 0.0
H241 H 0.8789 0.29156 0.83534 0.0
H242 H 0.96738 0.44057 0.84508 0.0
C243 C 0.09787 0.46128 0.79676 0.0
C244 C 0.02404 0.36463 0.82944 0.0
C245 C 0.14185 0.48307 0.78725 0.0
C246 C 0.83272 0.28514 0.85858 0.0
C247 C 0.87619 0.30655 0.84893 0.0
C248 C 0.98299 0.41911 0.84082 0.0
C249 C 0.09184 0.43573 0.81395 0.0
C250 C 0.04596 0.41308 0.82434 0.0
C251 C 0.91545 0.34759 0.85648 0.0
C252 C 0.96093 0.37055 0.84579 0.0
H253 H 0.20351 0.45211 0.81857 0.0
H254 H 0.12648 0.41291 0.83473 0.0
H255 H 0.04155 0.47766 0.82636 0.0
H256 H 0.86442 0.35939 0.89751 0.0
H257 H 0.94077 0.3979 0.88021 0.0
C258 C 0.47709 0.61008 0.45567 0.0
C259 C 0.50014 0.65855 0.45047 0.0
C260 C 0.49919 0.59271 0.46797 0.0
C261 C 0.59406 0.63174 0.505 0.0
H262 H 0.57368 0.50389 0.49767 0.0
C263 C 0.68589 0.54909 0.55111 0.0
C264 C 0.65641 0.50155 0.55705 0.0
C265 C 0.66894 0.5706 0.53818 0.0
C266 C 0.57942 0.53954 0.49998 0.0
H267 H 0.56514 0.72662 0.45381 0.0
H268 H 0.60417 0.69604 0.47504 0.0
H269 H 0.54199 0.53698 0.47416 0.0
H270 H 0.58553 0.43988 0.55449 0.0
H271 H 0.55618 0.47734 0.53201 0.0
H272 H 0.6319 0.63412 0.53083 0.0
C273 C 0.56856 0.67163 0.46986 0.0
C274 C 0.5612 0.55852 0.48652 0.0
C275 C 0.54631 0.68909 0.45758 0.0
C276 C 0.60929 0.47649 0.55019 0.0
C277 C 0.59253 0.49782 0.53718 0.0
C278 C 0.61264 0.61282 0.51842 0.0
C279 C 0.5451 0.62325 0.47533 0.0
C280 C 0.5676 0.60458 0.48899 0.0
C281 C 0.62232 0.54485 0.53082 0.0
C282 C 0.60485 0.56622 0.5162 0.0
H283 H 0.44143 0.58555 0.45057 0.0
H284 H 0.47966 0.55544 0.4721 0.0
H285 H 0.59926 0.66711 0.5075 0.0
H286 H 0.72234 0.56946 0.55616 0.0
H287 H 0.69274 0.60688 0.5335 0.0
C288 C 0.38911 0.62227 0.13256 0.0
C289 C 0.35549 0.63225 0.14085 0.0
C290 C 0.40897 0.59988 0.14326 0.0
C291 C 0.38452 0.52027 0.18479 0.0
H292 H 0.51536 0.5516 0.17662 0.0
C293 C 0.46665 0.41411 0.22026 0.0
C294 C 0.49144 0.40075 0.20738 0.0
C295 C 0.45269 0.44707 0.21466 0.0
C296 C 0.47872 0.54238 0.17904 0.0
H297 H 0.31717 0.62749 0.16709 0.0
H298 H 0.35238 0.58859 0.18596 0.0
H299 H 0.48682 0.60202 0.16257 0.0
H300 H 0.5224 0.41276 0.17883 0.0
H301 H 0.49799 0.46976 0.16907 0.0
H302 H 0.37634 0.46001 0.20098 0.0
C303 C 0.363 0.59783 0.17107 0.0
C304 C 0.46235 0.57123 0.17098 0.0
C305 C 0.34319 0.62051 0.16033 0.0
C306 C 0.50281 0.42177 0.18899 0.0
C307 C 0.48931 0.45491 0.18348 0.0
C308 C 0.401 0.49144 0.19293 0.0
C309 C 0.3958 0.58684 0.16258 0.0
C310 C 0.41471 0.55984 0.17332 0.0
C311 C 0.46387 0.46778 0.19618 0.0
C312 C 0.44795 0.50151 0.18971 0.0
H313 H 0.39971 0.63132 0.11765 0.0
H314 H 0.43362 0.59145 0.13616 0.0
H315 H 0.34752 0.51022 0.18675 0.0
H316 H 0.4572 0.39833 0.23448 0.0
H317 H 0.43328 0.45645 0.22478 0.0
C318 C 0.36904 0.75748 0.80819 0.0
C319 C 0.38009 0.72087 0.81074 0.0
C320 C 0.39249 0.7995 0.81907 0.0
C321 C 0.50535 0.87045 0.84524 0.0
H322 H 0.44665 0.9412 0.86491 0.0
C323 C 0.61211 0.03352 0.89245 0.0
C324 C 0.61088 0.07501 0.88746 0.0
C325 C 0.57854 0.98936 0.885 0.0
C326 C 0.46348 0.92191 0.85938 0.0
H327 H 0.42191 0.69817 0.82748 0.0
H328 H 0.46228 0.77097 0.84661 0.0
H329 H 0.39762 0.86488 0.84832 0.0
H330 H 0.57195 0.1027 0.8718 0.0
H331 H 0.51291 0.02488 0.85838 0.0
H332 H 0.57104 0.92711 0.85603 0.0
C333 C 0.4365 0.76791 0.83588 0.0
C334 C 0.43548 0.87828 0.84989 0.0
C335 C 0.41334 0.72616 0.82496 0.0
C336 C 0.57349 0.07109 0.87583 0.0
C337 C 0.53984 0.02666 0.8682 0.0
C338 C 0.53312 0.91372 0.8547 0.0
C339 C 0.42728 0.80559 0.83273 0.0
C340 C 0.45614 0.85191 0.84285 0.0
C341 C 0.54309 0.98562 0.87221 0.0
C342 C 0.51256 0.9398 0.86204 0.0
H343 H 0.34377 0.75449 0.79724 0.0
H344 H 0.38479 0.82795 0.8162 0.0
H345 H 0.5227 0.85183 0.83953 0.0
H346 H 0.63998 0.03551 0.90175 0.0
H347 H 0.58122 0.95823 0.88879 0.0
C348 C 0.9148 0.51605 0.51767 0.0
C349 C 0.9091 0.51701 0.53765 0.0
C350 C 0.95851 0.52606 0.50996 0.0
C351 C 0.07908 0.54476 0.52219 0.0
H352 H 0.11287 0.62056 0.47541 0.0
C353 C 0.27017 0.65196 0.48918 0.0
C354 C 0.27278 0.64783 0.46907 0.0
C355 C 0.22594 0.6308 0.49846 0.0
C356 C 0.10378 0.59905 0.48838 0.0
H357 H 0.94367 0.52747 0.56538 0.0
H358 H 0.02113 0.54687 0.55195 0.0
H359 H 0.03548 0.59338 0.48988 0.0
H360 H 0.23116 0.61534 0.44322 0.0
H361 H 0.15431 0.57957 0.45933 0.0
H362 H 0.1489 0.55247 0.52082 0.0
C363 C 0.99157 0.53725 0.54218 0.0
C364 C 0.05924 0.58314 0.49665 0.0
C365 C 0.94734 0.52626 0.54991 0.0
C366 C 0.2304 0.62027 0.45863 0.0
C367 C 0.18639 0.59959 0.46785 0.0
C368 C 0.12414 0.56134 0.514 0.0
C369 C 0.99799 0.53845 0.52206 0.0
C370 C 0.04596 0.5553 0.51354 0.0
C371 C 0.18365 0.6055 0.48776 0.0
C372 C 0.1366 0.5882 0.4969 0.0
H373 H 0.88548 0.50831 0.508 0.0
H374 H 0.96155 0.52505 0.49444 0.0
H375 H 0.07004 0.5232 0.53513 0.0
H376 H 0.30207 0.67317 0.49764 0.0
H377 H 0.22471 0.63604 0.51383 0.0
C378 C 0.63864 0.39184 0.86634 0.0
C379 C 0.62691 0.34395 0.86402 0.0
C380 C 0.61489 0.41047 0.85563 0.0
C381 C 0.50108 0.36939 0.83012 0.0
H382 H 0.56106 0.49802 0.80943 0.0
C383 C 0.39636 0.42613 0.78158 0.0
C384 C 0.39785 0.46915 0.78621 0.0
C385 C 0.42936 0.4152 0.78948 0.0
C386 C 0.54388 0.46214 0.81525 0.0
H387 H 0.5833 0.27895 0.8479 0.0
H388 H 0.5424 0.31146 0.82907 0.0
H389 H 0.60956 0.47022 0.82624 0.0
H390 H 0.43676 0.53589 0.80169 0.0
H391 H 0.49492 0.51659 0.81581 0.0
H392 H 0.43559 0.36107 0.8193 0.0
C393 C 0.56897 0.33434 0.8395 0.0
C394 C 0.57157 0.44623 0.82488 0.0
C395 C 0.59244 0.31571 0.85025 0.0
C396 C 0.43498 0.50251 0.79793 0.0
C397 C 0.46812 0.49143 0.80598 0.0
C398 C 0.47362 0.38516 0.82051 0.0
C399 C 0.57909 0.3816 0.84236 0.0
C400 C 0.55045 0.39946 0.83226 0.0
C401 C 0.46457 0.44692 0.80231 0.0
C402 C 0.49467 0.43149 0.81279 0.0
H403 H 0.66485 0.41435 0.87695 0.0
H404 H 0.62329 0.44689 0.85829 0.0
H405 H 0.48339 0.33366 0.83608 0.0
H406 H 0.36878 0.4003 0.7722 0.0
H407 H 0.42648 0.38118 0.78597 0.0
C408 C 0.65632 0.27972 0.51535 0.0
C409 C 0.65205 0.28031 0.53552 0.0
C410 C 0.63407 0.23652 0.50519 0.0
C411 C 0.54222 0.1077 0.51031 0.0
H412 H 0.6153 0.08953 0.47041 0.0
C413 C 0.51426 0.92413 0.48798 0.0
C414 C 0.51479 0.91469 0.46826 0.0
C415 C 0.52462 0.96938 0.49422 0.0
C416 C 0.59415 0.09431 0.4813 0.0
H417 H 0.61931 0.23595 0.56066 0.0
H418 H 0.58232 0.16099 0.54318 0.0
H419 H 0.64569 0.16816 0.48497 0.0
H420 H 0.52602 0.9448 0.43954 0.0
H421 H 0.54509 0.02466 0.4505 0.0
H422 H 0.4919 0.03312 0.50725 0.0
C423 C 0.60214 0.19376 0.53508 0.0
C424 C 0.61146 0.1394 0.48964 0.0
C425 C 0.62405 0.23683 0.54518 0.0
C426 C 0.525 0.95114 0.45482 0.0
C427 C 0.53621 0.99677 0.46108 0.0
C428 C 0.52524 0.06256 0.50214 0.0
C429 C 0.60715 0.19292 0.51496 0.0
C430 C 0.5862 0.14644 0.50455 0.0
C431 C 0.53644 0.00635 0.48087 0.0
C432 C 0.55148 0.05523 0.48783 0.0
H433 H 0.67787 0.31248 0.50744 0.0
H434 H 0.63828 0.2373 0.48968 0.0
H435 H 0.52121 0.112 0.52141 0.0
H436 H 0.50622 0.89652 0.49859 0.0
H437 H 0.52496 0.97588 0.50956 0.0
C438 C 0.09791 0.62339 0.15579 0.0
C439 C 0.10957 0.61621 0.13711 0.0
C440 C 0.05542 0.58973 0.16431 0.0
C441 C 0.95372 0.46711 0.16233 0.0
H442 H 0.88685 0.52796 0.18385 0.0
C443 C 0.75668 0.36523 0.18975 0.0
C444 C 0.74767 0.38381 0.20653 0.0
C445 C 0.8016 0.38918 0.181 0.0
C446 C 0.90519 0.51034 0.17812 0.0
H447 H 0.08767 0.56686 0.11311 0.0
H448 H 0.01245 0.50746 0.12805 0.0
H449 H 0.96464 0.57662 0.16947 0.0
H450 H 0.77924 0.43974 0.22807 0.0
H451 H 0.85725 0.48098 0.21304 0.0
H452 H 0.89366 0.40057 0.17118 0.0
C453 C 0.0365 0.53921 0.1361 0.0
C454 C 0.94981 0.53826 0.16987 0.0
C455 C 0.07945 0.57305 0.12758 0.0
C456 C 0.78485 0.42526 0.21488 0.0
C457 C 0.82951 0.4489 0.20626 0.0
C458 C 0.90878 0.43895 0.17072 0.0
C459 C 0.02336 0.54819 0.15427 0.0
C460 C 0.975 0.51714 0.16219 0.0
C461 C 0.83814 0.4319 0.18896 0.0
C462 C 0.88448 0.46046 0.17901 0.0
H463 H 0.12102 0.656 0.16355 0.0
H464 H 0.0468 0.59706 0.17852 0.0
H465 H 0.97232 0.44993 0.15644 0.0
H466 H 0.72857 0.33327 0.18305 0.0
H467 H 0.80718 0.37527 0.16766 0.0
C468 C 0.55084 0.89554 0.38755 0.0
C469 C 0.50329 0.85842 0.38823 0.0
C470 C 0.56306 0.93712 0.37695 0.0
C471 C 0.52244 0.98503 0.33755 0.0
H472 H 0.5908 0.10605 0.36444 0.0
C473 C 0.53495 0.15535 0.30547 0.0
C474 C 0.57835 0.19844 0.30739 0.0
C475 C 0.52677 0.11463 0.31574 0.0
C476 C 0.57229 0.07273 0.35658 0.0
H477 H 0.4317 0.8346 0.37784 0.0
H478 H 0.45318 0.90624 0.35901 0.0
H479 H 0.57814 0.03304 0.38024 0.0
H480 H 0.64599 0.23261 0.32263 0.0
H481 H 0.63251 0.16153 0.33987 0.0
H482 H 0.51696 0.02425 0.3138 0.0
C483 C 0.48097 0.90362 0.36671 0.0
C484 C 0.5651 0.0309 0.36566 0.0
C485 C 0.46867 0.86267 0.37754 0.0
C486 C 0.61247 0.20003 0.32047 0.0
C487 C 0.60449 0.1592 0.33058 0.0
C488 C 0.53009 0.02683 0.32838 0.0
C489 C 0.52807 0.94168 0.36658 0.0
C490 C 0.5396 0.98656 0.35632 0.0
C491 C 0.56187 0.11566 0.32809 0.0
C492 C 0.55459 0.07124 0.33784 0.0
H493 H 0.57809 0.8933 0.39583 0.0
H494 H 0.59971 0.96589 0.37701 0.0
H495 H 0.50303 0.95138 0.32994 0.0
H496 H 0.50775 0.1523 0.29554 0.0
H497 H 0.49301 0.08212 0.31377 0.0
C498 C 0.83725 0.45381 0.96694 0.0
C499 C 0.82954 0.40796 0.96252 0.0
C500 C 0.87752 0.4862 0.97746 0.0
C501 C 0.96708 0.4897 0.01154 0.0
H502 H 0.04126 0.62345 0.99749 0.0
C503 C 0.15014 0.60945 0.04508 0.0
C504 C 0.16158 0.65538 0.05124 0.0
C505 C 0.11008 0.58223 0.03365 0.0
C506 C 0.02058 0.58633 1.00173 0.0
H507 H 0.8584 0.36046 0.96583 0.0
H508 H 0.92859 0.41687 0.98382 0.0
H509 H 0.96998 0.56997 0.97882 0.0
H510 H 0.1408 0.70951 0.04965 0.0
H511 H 0.06999 0.66147 0.02963 0.0
H512 H 0.01726 0.50564 0.03437 0.0
C513 C 0.90333 0.42773 0.97931 0.0
C514 C 0.97977 0.55568 0.99103 0.0
C515 C 0.86328 0.3955 0.96877 0.0
C516 C 0.13291 0.67426 0.04509 0.0
C517 C 0.09244 0.64677 0.03362 0.0
C518 C 0.00763 0.52019 0.0222 0.0
C519 C 0.91084 0.47337 0.98391 0.0
C520 C 0.95295 0.50684 0.99567 0.0
C521 C 0.08004 0.59999 0.02813 0.0
C522 C 0.03537 0.56872 0.01726 0.0
H523 H 0.8123 0.4648 0.96219 0.0
H524 H 0.8821 0.52097 0.98084 0.0
H525 H 0.94664 0.45257 0.01581 0.0
H526 H 0.17176 0.59399 0.04936 0.0
H527 H 0.10235 0.54688 0.0293 0.0
C528 C 0.39699 0.55932 0.70541 0.0
C529 C 0.35452 0.5223 0.7131 0.0
C530 C 0.42649 0.54919 0.69416 0.0
C531 C 0.43482 0.45385 0.66753 0.0
H532 H 0.56881 0.53124 0.68047 0.0
C533 C 0.57739 0.40688 0.64263 0.0
C534 C 0.62119 0.44478 0.63622 0.0
C535 C 0.54357 0.41578 0.65123 0.0
C536 C 0.53163 0.50965 0.6765 0.0
H537 H 0.30839 0.44562 0.71433 0.0
H538 H 0.36039 0.42763 0.69478 0.0
H539 H 0.51099 0.54735 0.69588 0.0
H540 H 0.66381 0.52185 0.63414 0.0
H541 H 0.60475 0.53736 0.64899 0.0
H542 H 0.4558 0.41578 0.64829 0.0
C543 C 0.37061 0.46462 0.69726 0.0
C544 C 0.49838 0.51894 0.68531 0.0
C545 C 0.34073 0.47486 0.70841 0.0
C546 C 0.6304 0.49181 0.63876 0.0
C547 C 0.59666 0.50071 0.64744 0.0
C548 C 0.46818 0.44446 0.65872 0.0
C549 C 0.4146 0.50171 0.69052 0.0
C550 C 0.44956 0.49138 0.68088 0.0
C551 C 0.55277 0.4628 0.65374 0.0
C552 C 0.51702 0.47239 0.66307 0.0
H553 H 0.40835 0.59628 0.70867 0.0
H554 H 0.45941 0.57868 0.68878 0.0
H555 H 0.39759 0.43216 0.66368 0.0
H556 H 0.56878 0.37021 0.64068 0.0
H557 H 0.51034 0.38578 0.6561 0.0
C558 C 0.13925 0.56399 0.71995 0.0
C559 C 0.18452 0.59332 0.71197 0.0
C560 C 0.09821 0.55696 0.71032 0.0
C561 C 0.05544 0.6036 0.67013 0.0
H562 H 0.94708 0.47524 0.6711 0.0
C563 C 0.87449 0.47556 0.62368 0.0
C564 C 0.85608 0.50623 0.6204 0.0
C565 C 0.91304 0.4887 0.63607 0.0
C566 C 0.97705 0.51128 0.67057 0.0
H567 H 0.22221 0.63855 0.68768 0.0
H568 H 0.15072 0.62551 0.67063 0.0
H569 H 0.0175 0.49374 0.6899 0.0
H570 H 0.8639 0.57502 0.6276 0.0
H571 H 0.93137 0.59797 0.64967 0.0
H572 H 0.0154 0.6203 0.65001 0.0
C573 C 0.1468 0.60875 0.68456 0.0
C574 C 0.01735 0.52211 0.68162 0.0
C575 C 0.18788 0.61614 0.69429 0.0
C576 C 0.87725 0.55059 0.62987 0.0
C577 C 0.91602 0.56379 0.64241 0.0
C578 C 0.01508 0.59264 0.65896 0.0
C579 C 0.10133 0.57868 0.69235 0.0
C580 C 0.05738 0.56827 0.6814 0.0
C581 C 0.93428 0.53284 0.64569 0.0
C582 C 0.97566 0.54609 0.6588 0.0
H583 H 0.13554 0.54662 0.73371 0.0
H584 H 0.06399 0.5344 0.71701 0.0
H585 H 0.08525 0.63973 0.66981 0.0
H586 H 0.85943 0.44128 0.6165 0.0
H587 H 0.92669 0.46437 0.63784 0.0
C588 C 0.476 0.35185 0.29108 0.0
C589 C 0.52352 0.36515 0.2871 0.0
C590 C 0.46546 0.38151 0.30231 0.0
C591 C 0.52027 0.50825 0.31742 0.0
H592 H 0.41562 0.46091 0.35364 0.0
C593 C 0.49259 0.63409 0.36815 0.0
C594 C 0.44573 0.62531 0.37022 0.0
C595 C 0.50161 0.60127 0.35859 0.0
C596 C 0.44476 0.47465 0.34345 0.0
H597 H 0.59718 0.41831 0.29264 0.0
H598 H 0.579 0.46894 0.31253 0.0
H599 H 0.43155 0.40449 0.33632 0.0
H600 H 0.37156 0.57441 0.36419 0.0
H601 H 0.38735 0.51768 0.34734 0.0
H602 H 0.53359 0.5783 0.32453 0.0
C603 C 0.54972 0.43661 0.30656 0.0
C604 C 0.45384 0.4423 0.33351 0.0
C605 C 0.56016 0.40733 0.29527 0.0
C606 C 0.40813 0.58273 0.36262 0.0
C607 C 0.41712 0.54984 0.35317 0.0
C608 C 0.51133 0.5405 0.32739 0.0
C609 C 0.50229 0.42481 0.30984 0.0
C610 C 0.49186 0.45873 0.32041 0.0
C611 C 0.46396 0.55874 0.35099 0.0
C612 C 0.47353 0.52416 0.34055 0.0
H613 H 0.44705 0.31966 0.28486 0.0
H614 H 0.42851 0.3714 0.30447 0.0
H615 H 0.54918 0.52223 0.30712 0.0
H616 H 0.52237 0.66656 0.37373 0.0
H617 H 0.5381 0.60903 0.35731 0.0
C618 C 0.61855 0.16348 0.96809 0.0
C619 C 0.66169 0.17126 0.96015 0.0
C620 C 0.59167 0.12416 0.97995 0.0
C621 C 0.56777 1.00236 0.98786 0.0
H622 H 0.49685 0.00657 0.03203 0.0
C623 C 0.44209 0.833 0.03167 0.0
C624 C 0.39894 0.82864 0.03807 0.0
C625 C 0.47723 0.87557 0.0234 0.0
C626 C 0.51603 1.00467 0.01961 0.0
H627 H 0.71146 0.14495 0.95896 0.0
H628 H 0.66426 0.07579 0.97978 0.0
H629 H 0.55477 0.08076 0.0165 0.0
H630 H 0.35855 0.86545 0.04032 0.0
H631 H 0.4194 0.93938 0.02571 0.0
H632 H 0.52819 0.92628 0.99059 0.0
C633 C 0.65127 0.10022 0.97675 0.0
C634 C 0.54941 0.04724 0.01078 0.0
C635 C 0.67852 0.14002 0.96501 0.0
C636 C 0.39159 0.86776 0.03581 0.0
C637 C 0.42663 0.91027 0.02748 0.0
C638 C 0.53421 0.95974 0.99663 0.0
C639 C 0.60706 0.09136 0.98403 0.0
C640 C 0.57525 0.04657 0.99465 0.0
C641 C 0.47005 0.91485 0.02126 0.0
C642 C 0.50744 0.9603 0.01248 0.0
H643 H 0.60463 0.18691 0.96457 0.0
H644 H 0.55764 0.11821 0.98516 0.0
H645 H 0.58654 1.00055 0.97527 0.0
H646 H 0.44929 0.8039 0.03347 0.0
H647 H 0.51042 0.87797 0.01903 0.0
loop_
_geom_bond_atom_site_label_1
_geom_bond_atom_site_label_2
_geom_bond_distance
_geom_bond_site_symmetry_2
_ccdc_geom_bond_type
Co0 N4 2.148 . S
Co0 N10 2.128 . S
Co0 N20 2.194 . S
Co0 O25 2.351 . S
Co0 O26 2.155 . S
Co0 O27 2.096 . S
C1 N4 1.301 . S
C1 N5 1.328 . S
C1 H6 0.930 . S
C2 C3 1.333 . S
C2 N4 1.317 . S
C2 H7 0.930 . S
C3 C2 1.333 . S
C3 N5 1.350 . S
C3 H29 0.931 . S
N4 Co0 2.148 . S
N4 C1 1.301 . S
N4 C2 1.317 . S
N5 C1 1.328 . S
N5 C3 1.350 . S
H6 C1 0.930 . S
H7 C2 0.930 . S
C8 O9 1.224 . S
C8 O27 1.247 . S
O9 C8 1.224 . S
N10 Co0 2.128 . S
N10 C11 1.355 . S
N10 C13 1.311 . S
C11 N10 1.355 . S
C11 C12 1.363 . S
C11 H23 0.929 . S
C12 C11 1.363 . S
C12 N14 1.375 . S
C12 H30 0.931 . S
C13 N10 1.311 . S
C13 N14 1.347 . S
C13 H24 0.929 . S
N14 C12 1.375 . S
N14 C13 1.347 . S
C15 C18 1.365 . S
C15 N20 1.328 . S
C15 H21 0.929 . S
C16 C17 1.362 . S
C16 C19 1.378 . S
C16 H31 0.929 . S
C17 C16 1.362 . S
C17 C18 1.366 . S
C18 C15 1.365 . S
C18 C17 1.366 . S
C18 H32 0.930 . S
C19 C16 1.378 . S
C19 N20 1.315 . S
C19 H22 0.930 . S
N20 Co0 2.194 . S
N20 C15 1.328 . S
N20 C19 1.315 . S
H21 C15 0.929 . S
H22 C19 0.930 . S
H23 C11 0.929 . S
H24 C13 0.929 . S
O25 Co0 2.351 . S
O25 C28 1.244 . S
O26 Co0 2.155 . S
O26 C28 1.240 . S
O27 Co0 2.096 . S
O27 C8 1.247 . S
C28 O25 1.244 . S
C28 O26 1.240 . S
H29 C3 0.931 . S
H30 C12 0.931 . S
H31 C16 0.929 . S
H32 C18 0.930 . S
Co33 N37 2.148 . S
Co33 N43 2.128 . S
Co33 N53 2.194 . S
Co33 O58 2.351 . S
Co33 O59 2.155 . S
Co33 O60 2.096 . S
C34 N37 1.301 . S
C34 N38 1.328 . S
C34 H39 0.930 . S
C35 C36 1.333 . S
C35 N37 1.317 . S
C35 H40 0.930 . S
C36 C35 1.333 . S
C36 N38 1.350 . S
C36 H62 0.931 . S
N37 Co33 2.148 . S
N37 C34 1.301 . S
N37 C35 1.317 . S
N38 C34 1.328 . S
N38 C36 1.350 . S
H39 C34 0.930 . S
H40 C35 0.930 . S
C41 O42 1.224 . S
C41 O60 1.247 . S
O42 C41 1.224 . S
N43 Co33 2.128 . S
N43 C44 1.355 . S
N43 C46 1.311 . S
C44 N43 1.355 . S
C44 C45 1.363 . S
C44 H56 0.929 . S
C45 C44 1.363 . S
C45 N47 1.375 . S
C45 H63 0.931 . S
C46 N43 1.311 . S
C46 N47 1.347 . S
C46 H57 0.929 . S
N47 C45 1.375 . S
N47 C46 1.347 . S
C48 C51 1.365 . S
C48 N53 1.328 . S
C48 H54 0.929 . S
C49 C50 1.362 . S
C49 C52 1.378 . S
C49 H64 0.929 . S
C50 C49 1.362 . S
C50 C51 1.366 . S
C51 C48 1.365 . S
C51 C50 1.366 . S
C51 H65 0.930 . S
C52 C49 1.378 . S
C52 N53 1.315 . S
C52 H55 0.930 . S
N53 Co33 2.194 . S
N53 C48 1.328 . S
N53 C52 1.315 . S
H54 C48 0.929 . S
H55 C52 0.930 . S
H56 C44 0.929 . S
H57 C46 0.929 . S
O58 Co33 2.351 . S
O58 C61 1.244 . S
O59 Co33 2.155 . S
O59 C61 1.240 . S
O60 Co33 2.096 . S
O60 C41 1.247 . S
C61 O58 1.244 . S
C61 O59 1.240 . S
H62 C36 0.931 . S
H63 C45 0.931 . S
H64 C49 0.929 . S
H65 C51 0.930 . S
Co66 N70 2.148 . S
Co66 N76 2.128 . S
Co66 N86 2.194 . S
Co66 O91 2.351 . S
Co66 O92 2.155 . S
Co66 O93 2.096 . S
C67 N70 1.301 . S
C67 N71 1.328 . S
C67 H72 0.930 . S
C68 C69 1.333 . S
C68 N70 1.317 . S
C68 H73 0.930 . S
C69 C68 1.333 . S
C69 N71 1.350 . S
C69 H95 0.931 . S
N70 Co66 2.148 . S
N70 C67 1.301 . S
N70 C68 1.317 . S
N71 C67 1.328 . S
N71 C69 1.350 . S
H72 C67 0.930 . S
H73 C68 0.930 . S
C74 O75 1.224 . S
C74 O93 1.247 . S
O75 C74 1.224 . S
N76 Co66 2.128 . S
N76 C77 1.355 . S
N76 C79 1.311 . S
C77 N76 1.355 . S
C77 C78 1.363 . S
C77 H89 0.929 . S
C78 C77 1.363 . S
C78 N80 1.375 . S
C78 H96 0.931 . S
C79 N76 1.311 . S
C79 N80 1.347 . S
C79 H90 0.929 . S
N80 C78 1.375 . S
N80 C79 1.347 . S
C81 C84 1.365 . S
C81 N86 1.328 . S
C81 H87 0.929 . S
C82 C83 1.362 . S
C82 C85 1.378 . S
C82 H97 0.929 . S
C83 C82 1.362 . S
C83 C84 1.366 . S
C84 C81 1.365 . S
C84 C83 1.366 . S
C84 H98 0.930 . S
C85 C82 1.378 . S
C85 N86 1.315 . S
C85 H88 0.930 . S
N86 Co66 2.194 . S
N86 C81 1.328 . S
N86 C85 1.315 . S
H87 C81 0.929 . S
H88 C85 0.930 . S
H89 C77 0.929 . S
H90 C79 0.929 . S
O91 Co66 2.351 . S
O91 C94 1.244 . S
O92 Co66 2.155 . S
O92 C94 1.240 . S
O93 Co66 2.096 . S
O93 C74 1.247 . S
C94 O91 1.244 . S
C94 O92 1.240 . S
H95 C69 0.931 . S
H96 C78 0.931 . S
H97 C82 0.929 . S
H98 C84 0.930 . S
Co99 N103 2.148 . S
Co99 N109 2.128 . S
Co99 N119 2.194 . S
Co99 O124 2.351 . S
Co99 O125 2.155 . S
Co99 O126 2.096 . S
C100 N103 1.301 . S
C100 N104 1.328 . S
C100 H105 0.930 . S
C101 C102 1.333 . S
C101 N103 1.317 . S
C101 H106 0.930 . S
C102 C101 1.333 . S
C102 N104 1.350 . S
C102 H128 0.931 . S
N103 Co99 2.148 . S
N103 C100 1.301 . S
N103 C101 1.317 . S
N104 C100 1.328 . S
N104 C102 1.350 . S
H105 C100 0.930 . S
H106 C101 0.930 . S
C107 O108 1.224 . S
C107 O126 1.247 . S
O108 C107 1.224 . S
N109 Co99 2.128 . S
N109 C110 1.355 . S
N109 C112 1.311 . S
C110 N109 1.355 . S
C110 C111 1.363 . S
C110 H122 0.929 . S
C111 C110 1.363 . S
C111 N113 1.375 . S
C111 H129 0.931 . S
C112 N109 1.311 . S
C112 N113 1.347 . S
C112 H123 0.929 . S
N113 C111 1.375 . S
N113 C112 1.347 . S
C114 C117 1.365 . S
C114 N119 1.328 . S
C114 H120 0.929 . S
C115 C116 1.362 . S
C115 C118 1.378 . S
C115 H130 0.929 . S
C116 C115 1.362 . S
C116 C117 1.366 . S
C117 C114 1.365 . S
C117 C116 1.366 . S
C117 H131 0.930 . S
C118 C115 1.378 . S
C118 N119 1.315 . S
C118 H121 0.930 . S
N119 Co99 2.194 . S
N119 C114 1.328 . S
N119 C118 1.315 . S
H120 C114 0.929 . S
H121 C118 0.930 . S
H122 C110 0.929 . S
H123 C112 0.929 . S
O124 Co99 2.351 . S
O124 C127 1.244 . S
O125 Co99 2.155 . S
O125 C127 1.240 . S
O126 Co99 2.096 . S
O126 C107 1.247 . S
C127 O124 1.244 . S
C127 O125 1.240 . S
H128 C102 0.931 . S
H129 C111 0.931 . S
H130 C115 0.929 . S
H131 C117 0.930 . S
Co132 N136 2.148 . S
Co132 N142 2.128 . S
Co132 N152 2.194 . S
Co132 O157 2.351 . S
Co132 O158 2.155 . S
Co132 O159 2.096 . S
C133 N136 1.301 . S
C133 N137 1.328 . S
C133 H138 0.930 . S
C134 C135 1.333 . S
C134 N136 1.317 . S
C134 H139 0.930 . S
C135 C134 1.333 . S
C135 N137 1.350 . S
C135 H161 0.931 . S
N136 Co132 2.148 . S
N136 C133 1.301 . S
N136 C134 1.317 . S
N137 C133 1.328 . S
N137 C135 1.350 . S
H138 C133 0.930 . S
H139 C134 0.930 . S
C140 O141 1.224 . S
C140 O159 1.247 . S
O141 C140 1.224 . S
N142 Co132 2.128 . S
N142 C143 1.355 . S
N142 C145 1.311 . S
C143 N142 1.355 . S
C143 C144 1.363 . S
C143 H155 0.929 . S
C144 C143 1.363 . S
C144 N146 1.375 . S
C144 H162 0.931 . S
C145 N142 1.311 . S
C145 N146 1.347 . S
C145 H156 0.929 . S
N146 C144 1.375 . S
N146 C145 1.347 . S
C147 C150 1.365 . S
C147 N152 1.328 . S
C147 H153 0.929 . S
C148 C149 1.362 . S
C148 C151 1.378 . S
C148 H163 0.929 . S
C149 C148 1.362 . S
C149 C150 1.366 . S
C150 C147 1.365 . S
C150 C149 1.366 . S
C150 H164 0.930 . S
C151 C148 1.378 . S
C151 N152 1.315 . S
C151 H154 0.930 . S
N152 Co132 2.194 . S
N152 C147 1.328 . S
N152 C151 1.315 . S
H153 C147 0.929 . S
H154 C151 0.930 . S
H155 C143 0.929 . S
H156 C145 0.929 . S
O157 Co132 2.351 . S
O157 C160 1.244 . S
O158 Co132 2.155 . S
O158 C160 1.240 . S
O159 Co132 2.096 . S
O159 C140 1.247 . S
C160 O157 1.244 . S
C160 O158 1.240 . S
H161 C135 0.931 . S
H162 C144 0.931 . S
H163 C148 0.929 . S
H164 C150 0.930 . S
Co165 N169 2.148 . S
Co165 N175 2.128 . S
Co165 N185 2.194 . S
Co165 O190 2.351 . S
Co165 O191 2.155 . S
Co165 O192 2.096 . S
C166 N169 1.301 . S
C166 N170 1.328 . S
C166 H171 0.930 . S
C167 C168 1.333 . S
C167 N169 1.317 . S
C167 H172 0.930 . S
C168 C167 1.333 . S
C168 N170 1.350 . S
C168 H194 0.931 . S
N169 Co165 2.148 . S
N169 C166 1.301 . S
N169 C167 1.317 . S
N170 C166 1.328 . S
N170 C168 1.350 . S
H171 C166 0.930 . S
H172 C167 0.930 . S
C173 O174 1.224 . S
C173 O192 1.247 . S
O174 C173 1.224 . S
N175 Co165 2.128 . S
N175 C176 1.355 . S
N175 C178 1.311 . S
C176 N175 1.355 . S
C176 C177 1.363 . S
C176 H188 0.929 . S
C177 C176 1.363 . S
C177 N179 1.375 . S
C177 H195 0.931 . S
C178 N175 1.311 . S
C178 N179 1.347 . S
C178 H189 0.929 . S
N179 C177 1.375 . S
N179 C178 1.347 . S
C180 C183 1.365 . S
C180 N185 1.328 . S
C180 H186 0.929 . S
C181 C182 1.362 . S
C181 C184 1.378 . S
C181 H196 0.929 . S
C182 C181 1.362 . S
C182 C183 1.366 . S
C183 C180 1.365 . S
C183 C182 1.366 . S
C183 H197 0.930 . S
C184 C181 1.378 . S
C184 N185 1.315 . S
C184 H187 0.930 . S
N185 Co165 2.194 . S
N185 C180 1.328 . S
N185 C184 1.315 . S
H186 C180 0.929 . S
H187 C184 0.930 . S
H188 C176 0.929 . S
H189 C178 0.929 . S
O190 Co165 2.351 . S
O190 C193 1.244 . S
O191 Co165 2.155 . S
O191 C193 1.240 . S
O192 Co165 2.096 . S
O192 C173 1.247 . S
C193 O190 1.244 . S
C193 O191 1.240 . S
H194 C168 0.931 . S
H195 C177 0.931 . S
H196 C181 0.929 . S
H197 C183 0.930 . S
C198 C199 1.349 . S
C198 C200 1.327 . S
C198 H223 0.950 . S
C199 C198 1.349 . S
C199 C215 1.349 . S
C200 C198 1.327 . S
C200 C219 1.429 . S
C200 H224 0.950 . S
C201 C218 1.574 1_545 S
C201 C220 1.368 . S
C201 H225 0.949 . S
H202 C206 0.949 . S
C203 C204 1.349 . S
C203 C205 1.327 . S
C203 H226 0.950 . S
C204 C203 1.349 . S
C204 C216 1.349 . S
C205 C203 1.327 . S
C205 C221 1.429 . S
C205 H227 0.950 . S
C206 H202 0.949 . S
C206 C214 1.574 1_565 S
C206 C222 1.368 . S
H207 C215 0.950 . S
H208 C213 0.950 . S
H209 C214 0.949 . S
H210 C216 0.950 . S
H211 C217 0.950 . S
H212 C218 0.949 . S
C213 H208 0.950 . S
C213 C215 1.327 . S
C213 C219 1.429 . S
C214 C206 1.574 1_545 S
C214 H209 0.949 . S
C214 C220 1.368 . S
C215 C199 1.349 . S
C215 H207 0.950 . S
C215 C213 1.327 . S
C216 C204 1.349 . S
C216 H210 0.950 . S
C216 C217 1.327 . S
C217 H211 0.950 . S
C217 C216 1.327 . S
C217 C221 1.429 . S
C218 C201 1.574 1_565 S
C218 H212 0.949 . S
C218 C222 1.368 . S
C219 C200 1.429 . S
C219 C213 1.429 . S
C219 C220 1.523 . S
C220 C201 1.368 . S
C220 C214 1.368 . S
C220 C219 1.523 . S
C221 C205 1.429 . S
C221 C217 1.429 . S
C221 C222 1.523 . S
C222 C206 1.368 . S
C222 C218 1.368 . S
C222 C221 1.523 . S
H223 C198 0.950 . S
H224 C200 0.950 . S
H225 C201 0.949 . S
H226 C203 0.950 . S
H227 C205 0.950 . S
C228 C229 1.349 . S
C228 C230 1.327 . S
C228 H253 0.950 . S
C229 C228 1.349 . S
C229 C245 1.349 . S
C230 C228 1.327 . S
C230 C249 1.429 . S
C230 H254 0.950 . S
C231 C248 1.574 1_455 S
C231 C250 1.368 . S
C231 H255 0.949 . S
H232 C236 0.949 . S
C233 C234 1.349 . S
C233 C235 1.327 . S
C233 H256 0.950 . S
C234 C233 1.349 . S
C234 C246 1.349 . S
C235 C233 1.327 . S
C235 C251 1.429 . S
C235 H257 0.950 . S
C236 H232 0.949 . S
C236 C244 1.574 1_655 S
C236 C252 1.368 . S
H237 C245 0.950 . S
H238 C243 0.950 . S
H239 C244 0.949 . S
H240 C246 0.950 . S
H241 C247 0.950 . S
H242 C248 0.949 . S
C243 H238 0.950 . S
C243 C245 1.327 . S
C243 C249 1.429 . S
C244 C236 1.574 1_455 S
C244 H239 0.949 . S
C244 C250 1.368 . S
C245 C229 1.349 . S
C245 H237 0.950 . S
C245 C243 1.327 . S
C246 C234 1.349 . S
C246 H240 0.950 . S
C246 C247 1.327 . S
C247 H241 0.950 . S
C247 C246 1.327 . S
C247 C251 1.429 . S
C248 C231 1.574 1_655 S
C248 H242 0.949 . S
C248 C252 1.368 . S
C249 C230 1.429 . S
C249 C243 1.429 . S
C249 C250 1.523 . S
C250 C231 1.368 . S
C250 C244 1.368 . S
C250 C249 1.523 . S
C251 C235 1.429 . S
C251 C247 1.429 . S
C251 C252 1.523 . S
C252 C236 1.368 . S
C252 C248 1.368 . S
C252 C251 1.523 . S
H253 C228 0.950 . S
H254 C230 0.950 . S
H255 C231 0.949 . S
H256 C233 0.950 . S
H257 C235 0.950 . S
C258 C259 1.349 . S
C258 C260 1.327 . S
C258 H283 0.950 . S
C259 C258 1.349 . S
C259 C275 1.349 . S
C260 C258 1.327 . S
C260 C279 1.429 . S
C260 H284 0.950 . S
C261 C278 1.574 . S
C261 C280 1.368 . S
C261 H285 0.949 . S
H262 C266 0.949 . S
C263 C264 1.349 . S
C263 C265 1.327 . S
C263 H286 0.950 . S
C264 C263 1.349 . S
C264 C276 1.349 . S
C265 C263 1.327 . S
C265 C281 1.429 . S
C265 H287 0.950 . S
C266 H262 0.949 . S
C266 C274 1.574 . S
C266 C282 1.368 . S
H267 C275 0.950 . S
H268 C273 0.950 . S
H269 C274 0.949 . S
H270 C276 0.950 . S
H271 C277 0.950 . S
H272 C278 0.949 . S
C273 H268 0.950 . S
C273 C275 1.327 . S
C273 C279 1.429 . S
C274 C266 1.574 . S
C274 H269 0.949 . S
C274 C280 1.368 . S
C275 C259 1.349 . S
C275 H267 0.950 . S
C275 C273 1.327 . S
C276 C264 1.349 . S
C276 H270 0.950 . S
C276 C277 1.327 . S
C277 H271 0.950 . S
C277 C276 1.327 . S
C277 C281 1.429 . S
C278 C261 1.574 . S
C278 H272 0.949 . S
C278 C282 1.368 . S
C279 C260 1.429 . S
C279 C273 1.429 . S
C279 C280 1.523 . S
C280 C261 1.368 . S
C280 C274 1.368 . S
C280 C279 1.523 . S
C281 C265 1.429 . S
C281 C277 1.429 . S
C281 C282 1.523 . S
C282 C266 1.368 . S
C282 C278 1.368 . S
C282 C281 1.523 . S
H283 C258 0.950 . S
H284 C260 0.950 . S
H285 C261 0.949 . S
H286 C263 0.950 . S
H287 C265 0.950 . S
C288 C289 1.349 . S
C288 C290 1.327 . S
C288 H313 0.950 . S
C289 C288 1.349 . S
C289 C305 1.349 . S
C290 C288 1.327 . S
C290 C309 1.429 . S
C290 H314 0.950 . S
C291 C308 1.574 . S
C291 C310 1.368 . S
C291 H315 0.949 . S
H292 C296 0.949 . S
C293 C294 1.349 . S
C293 C295 1.327 . S
C293 H316 0.950 . S
C294 C293 1.349 . S
C294 C306 1.349 . S
C295 C293 1.327 . S
C295 C311 1.429 . S
C295 H317 0.950 . S
C296 H292 0.949 . S
C296 C304 1.574 . S
C296 C312 1.368 . S
H297 C305 0.950 . S
H298 C303 0.950 . S
H299 C304 0.949 . S
H300 C306 0.950 . S
H301 C307 0.950 . S
H302 C308 0.949 . S
C303 H298 0.950 . S
C303 C305 1.327 . S
C303 C309 1.429 . S
C304 C296 1.574 . S
C304 H299 0.949 . S
C304 C310 1.368 . S
C305 C289 1.349 . S
C305 H297 0.950 . S
C305 C303 1.327 . S
C306 C294 1.349 . S
C306 H300 0.950 . S
C306 C307 1.327 . S
C307 H301 0.950 . S
C307 C306 1.327 . S
C307 C311 1.429 . S
C308 C291 1.574 . S
C308 H302 0.949 . S
C308 C312 1.368 . S
C309 C290 1.429 . S
C309 C303 1.429 . S
C309 C310 1.523 . S
C310 C291 1.368 . S
C310 C304 1.368 . S
C310 C309 1.523 . S
C311 C295 1.429 . S
C311 C307 1.429 . S
C311 C312 1.523 . S
C312 C296 1.368 . S
C312 C308 1.368 . S
C312 C311 1.523 . S
H313 C288 0.950 . S
H314 C290 0.950 . S
H315 C291 0.949 . S
H316 C293 0.950 . S
H317 C295 0.950 . S
C318 C319 1.349 . S
C318 C320 1.327 . S
C318 H343 0.950 . S
C319 C318 1.349 . S
C319 C335 1.349 . S
C320 C318 1.327 . S
C320 C339 1.429 . S
C320 H344 0.950 . S
C321 C338 1.574 . S
C321 C340 1.368 . S
C321 H345 0.949 . S
H322 C326 0.949 . S
C323 C324 1.349 . S
C323 C325 1.327 1_545 S
C323 H346 0.950 . S
C324 C323 1.349 . S
C324 C336 1.349 . S
C325 C323 1.327 1_565 S
C325 C341 1.429 . S
C325 H347 0.950 . S
C326 H322 0.949 . S
C326 C334 1.574 . S
C326 C342 1.368 . S
H327 C335 0.950 . S
H328 C333 0.950 . S
H329 C334 0.949 . S
H330 C336 0.950 . S
H331 C337 0.950 . S
H332 C338 0.949 . S
C333 H328 0.950 . S
C333 C335 1.327 . S
C333 C339 1.429 . S
C334 C326 1.574 . S
C334 H329 0.949 . S
C334 C340 1.368 . S
C335 C319 1.349 . S
C335 H327 0.950 . S
C335 C333 1.327 . S
C336 C324 1.349 . S
C336 H330 0.950 . S
C336 C337 1.327 . S
C337 H331 0.950 . S
C337 C336 1.327 . S
C337 C341 1.429 1_545 S
C338 C321 1.574 . S
C338 H332 0.949 . S
C338 C342 1.368 . S
C339 C320 1.429 . S
C339 C333 1.429 . S
C339 C340 1.523 . S
C340 C321 1.368 . S
C340 C334 1.368 . S
C340 C339 1.523 . S
C341 C325 1.429 . S
C341 C337 1.429 1_565 S
C341 C342 1.523 . S
C342 C326 1.368 . S
C342 C338 1.368 . S
C342 C341 1.523 . S
H343 C318 0.950 . S
H344 C320 0.950 . S
H345 C321 0.949 . S
H346 C323 0.950 . S
H347 C325 0.950 . S
C348 C349 1.349 . S
C348 C350 1.327 . S
C348 H373 0.950 . S
C349 C348 1.349 . S
C349 C365 1.349 . S
C350 C348 1.327 . S
C350 C369 1.429 1_655 S
C350 H374 0.950 . S
C351 C368 1.574 . S
C351 C370 1.368 . S
C351 H375 0.949 . S
H352 C356 0.949 . S
C353 C354 1.349 . S
C353 C355 1.327 . S
C353 H376 0.950 . S
C354 C353 1.349 . S
C354 C366 1.349 . S
C355 C353 1.327 . S
C355 C371 1.429 . S
C355 H377 0.950 . S
C356 H352 0.949 . S
C356 C364 1.574 . S
C356 C372 1.368 . S
H357 C365 0.950 . S
H358 C363 0.950 . S
H359 C364 0.949 . S
H360 C366 0.950 . S
H361 C367 0.950 . S
H362 C368 0.949 . S
C363 H358 0.950 . S
C363 C365 1.327 1_455 S
C363 C369 1.429 . S
C364 C356 1.574 . S
C364 H359 0.949 . S
C364 C370 1.368 . S
C365 C349 1.349 . S
C365 H357 0.950 . S
C365 C363 1.327 1_655 S
C366 C354 1.349 . S
C366 H360 0.950 . S
C366 C367 1.327 . S
C367 H361 0.950 . S
C367 C366 1.327 . S
C367 C371 1.429 . S
C368 C351 1.574 . S
C368 H362 0.949 . S
C368 C372 1.368 . S
C369 C350 1.429 1_455 S
C369 C363 1.429 . S
C369 C370 1.523 . S
C370 C351 1.368 . S
C370 C364 1.368 . S
C370 C369 1.523 . S
C371 C355 1.429 . S
C371 C367 1.429 . S
C371 C372 1.523 . S
C372 C356 1.368 . S
C372 C368 1.368 . S
C372 C371 1.523 . S
H373 C348 0.950 . S
H374 C350 0.950 . S
H375 C351 0.949 . S
H376 C353 0.950 . S
H377 C355 0.950 . S
C378 C379 1.349 . S
C378 C380 1.327 . S
C378 H403 0.950 . S
C379 C378 1.349 . S
C379 C395 1.349 . S
C380 C378 1.327 . S
C380 C399 1.429 . S
C380 H404 0.950 . S
C381 C398 1.574 . S
C381 C400 1.368 . S
C381 H405 0.949 . S
H382 C386 0.949 . S
C383 C384 1.349 . S
C383 C385 1.327 . S
C383 H406 0.950 . S
C384 C383 1.349 . S
C384 C396 1.349 . S
C385 C383 1.327 . S
C385 C401 1.429 . S
C385 H407 0.950 . S
C386 H382 0.949 . S
C386 C394 1.574 . S
C386 C402 1.368 . S
H387 C395 0.950 . S
H388 C393 0.950 . S
H389 C394 0.949 . S
H390 C396 0.950 . S
H391 C397 0.950 . S
H392 C398 0.949 . S
C393 H388 0.950 . S
C393 C395 1.327 . S
C393 C399 1.429 . S
C394 C386 1.574 . S
C394 H389 0.949 . S
C394 C400 1.368 . S
C395 C379 1.349 . S
C395 H387 0.950 . S
C395 C393 1.327 . S
C396 C384 1.349 . S
C396 H390 0.950 . S
C396 C397 1.327 . S
C397 H391 0.950 . S
C397 C396 1.327 . S
C397 C401 1.429 . S
C398 C381 1.574 . S
C398 H392 0.949 . S
C398 C402 1.368 . S
C399 C380 1.429 . S
C399 C393 1.429 . S
C399 C400 1.523 . S
C400 C381 1.368 . S
C400 C394 1.368 . S
C400 C399 1.523 . S
C401 C385 1.429 . S
C401 C397 1.429 . S
C401 C402 1.523 . S
C402 C386 1.368 . S
C402 C398 1.368 . S
C402 C401 1.523 . S
H403 C378 0.950 . S
H404 C380 0.950 . S
H405 C381 0.949 . S
H406 C383 0.950 . S
H407 C385 0.950 . S
C408 C409 1.349 . S
C408 C410 1.327 . S
C408 H433 0.950 . S
C409 C408 1.349 . S
C409 C425 1.349 . S
C410 C408 1.327 . S
C410 C429 1.429 . S
C410 H434 0.950 . S
C411 C428 1.574 . S
C411 C430 1.368 . S
C411 H435 0.949 . S
H412 C416 0.949 . S
C413 C414 1.349 . S
C413 C415 1.327 . S
C413 H436 0.950 . S
C414 C413 1.349 . S
C414 C426 1.349 . S
C415 C413 1.327 . S
C415 C431 1.429 1_565 S
C415 H437 0.950 . S
C416 H412 0.949 . S
C416 C424 1.574 . S
C416 C432 1.368 . S
H417 C425 0.950 . S
H418 C423 0.950 . S
H419 C424 0.949 . S
H420 C426 0.950 . S
H421 C427 0.950 . S
H422 C428 0.949 . S
C423 H418 0.950 . S
C423 C425 1.327 . S
C423 C429 1.429 . S
C424 C416 1.574 . S
C424 H419 0.949 . S
C424 C430 1.368 . S
C425 C409 1.349 . S
C425 H417 0.950 . S
C425 C423 1.327 . S
C426 C414 1.349 . S
C426 H420 0.950 . S
C426 C427 1.327 1_565 S
C427 H421 0.950 . S
C427 C426 1.327 1_545 S
C427 C431 1.429 . S
C428 C411 1.574 . S
C428 H422 0.949 . S
C428 C432 1.368 . S
C429 C410 1.429 . S
C429 C423 1.429 . S
C429 C430 1.523 . S
C430 C411 1.368 . S
C430 C424 1.368 . S
C430 C429 1.523 . S
C431 C415 1.429 1_545 S
C431 C427 1.429 . S
C431 C432 1.523 . S
C432 C416 1.368 . S
C432 C428 1.368 . S
C432 C431 1.523 . S
H433 C408 0.950 . S
H434 C410 0.950 . S
H435 C411 0.949 . S
H436 C413 0.950 . S
H437 C415 0.950 . S
C438 C439 1.349 . S
C438 C440 1.327 . S
C438 H463 0.950 . S
C439 C438 1.349 . S
C439 C455 1.349 . S
C440 C438 1.327 . S
C440 C459 1.429 1_455 S
C440 H464 0.950 . S
C441 C458 1.574 . S
C441 C460 1.368 . S
C441 H465 0.949 . S
H442 C446 0.949 . S
C443 C444 1.349 . S
C443 C445 1.327 . S
C443 H466 0.950 . S
C444 C443 1.349 . S
C444 C456 1.349 . S
C445 C443 1.327 . S
C445 C461 1.429 . S
C445 H467 0.950 . S
C446 H442 0.949 . S
C446 C454 1.574 . S
C446 C462 1.368 . S
H447 C455 0.950 . S
H448 C453 0.950 . S
H449 C454 0.949 . S
H450 C456 0.950 . S
H451 C457 0.950 . S
H452 C458 0.949 . S
C453 H448 0.950 . S
C453 C455 1.327 1_655 S
C453 C459 1.429 . S
C454 C446 1.574 . S
C454 H449 0.949 . S
C454 C460 1.368 . S
C455 C439 1.349 . S
C455 H447 0.950 . S
C455 C453 1.327 1_455 S
C456 C444 1.349 . S
C456 H450 0.950 . S
C456 C457 1.327 . S
C457 H451 0.950 . S
C457 C456 1.327 . S
C457 C461 1.429 . S
C458 C441 1.574 . S
C458 H452 0.949 . S
C458 C462 1.368 . S
C459 C440 1.429 1_655 S
C459 C453 1.429 . S
C459 C460 1.523 . S
C460 C441 1.368 . S
C460 C454 1.368 . S
C460 C459 1.523 . S
C461 C445 1.429 . S
C461 C457 1.429 . S
C461 C462 1.523 . S
C462 C446 1.368 . S
C462 C458 1.368 . S
C462 C461 1.523 . S
H463 C438 0.950 . S
H464 C440 0.950 . S
H465 C441 0.949 . S
H466 C443 0.950 . S
H467 C445 0.950 . S
C468 C469 1.349 . S
C468 C470 1.327 . S
C468 H493 0.950 . S
C469 C468 1.349 . S
C469 C485 1.349 . S
C470 C468 1.327 . S
C470 C489 1.429 . S
C470 H494 0.950 . S
C471 C488 1.574 1_565 S
C471 C490 1.368 . S
C471 H495 0.949 . S
H472 C476 0.949 . S
C473 C474 1.349 . S
C473 C475 1.327 . S
C473 H496 0.950 . S
C474 C473 1.349 . S
C474 C486 1.349 . S
C475 C473 1.327 . S
C475 C491 1.429 . S
C475 H497 0.950 . S
C476 H472 0.949 . S
C476 C484 1.574 . S
C476 C492 1.368 . S
H477 C485 0.950 . S
H478 C483 0.950 . S
H479 C484 0.949 . S
H480 C486 0.950 . S
H481 C487 0.950 . S
H482 C488 0.949 . S
C483 H478 0.950 . S
C483 C485 1.327 . S
C483 C489 1.429 . S
C484 C476 1.574 . S
C484 H479 0.949 . S
C484 C490 1.368 1_545 S
C485 C469 1.349 . S
C485 H477 0.950 . S
C485 C483 1.327 . S
C486 C474 1.349 . S
C486 H480 0.950 . S
C486 C487 1.327 . S
C487 H481 0.950 . S
C487 C486 1.327 . S
C487 C491 1.429 . S
C488 C471 1.574 1_545 S
C488 H482 0.949 . S
C488 C492 1.368 . S
C489 C470 1.429 . S
C489 C483 1.429 . S
C489 C490 1.523 . S
C490 C471 1.368 . S
C490 C484 1.368 1_565 S
C490 C489 1.523 . S
C491 C475 1.429 . S
C491 C487 1.429 . S
C491 C492 1.523 . S
C492 C476 1.368 . S
C492 C488 1.368 . S
C492 C491 1.523 . S
H493 C468 0.950 . S
H494 C470 0.950 . S
H495 C471 0.949 . S
H496 C473 0.950 . S
H497 C475 0.950 . S
C498 C499 1.349 . S
C498 C500 1.327 . S
C498 H523 0.950 . S
C499 C498 1.349 . S
C499 C515 1.349 . S
C500 C498 1.327 . S
C500 C519 1.429 . S
C500 H524 0.950 . S
C501 C518 1.574 . S
C501 C520 1.368 1_554 S
C501 H525 0.949 . S
H502 C506 0.947 1_556 S
C503 C504 1.349 . S
C503 C505 1.327 . S
C503 H526 0.950 . S
C504 C503 1.349 . S
C504 C516 1.349 . S
C505 C503 1.327 . S
C505 C521 1.429 . S
C505 H527 0.950 . S
C506 H502 0.947 1_554 S
C506 C514 1.544 1_454 S
C506 C522 1.401 . S
H507 C515 0.950 . S
H508 C513 0.950 . S
H509 C514 0.949 . S
H510 C516 0.950 . S
H511 C517 0.950 . S
H512 C518 0.949 1_455 S
C513 H508 0.950 . S
C513 C515 1.327 . S
C513 C519 1.429 . S
C514 C506 1.544 1_656 S
C514 H509 0.949 . S
C514 C520 1.368 . S
C515 C499 1.349 . S
C515 H507 0.950 . S
C515 C513 1.327 . S
C516 C504 1.349 . S
C516 H510 0.950 . S
C516 C517 1.327 . S
C517 H511 0.950 . S
C517 C516 1.327 . S
C517 C521 1.429 . S
C518 C501 1.574 . S
C518 H512 0.949 1_655 S
C518 C522 1.368 1_655 S
C519 C500 1.429 . S
C519 C513 1.429 . S
C519 C520 1.523 . S
C520 C501 1.368 1_556 S
C520 C514 1.368 . S
C520 C519 1.523 . S
C521 C505 1.429 . S
C521 C517 1.429 . S
C521 C522 1.523 . S
C522 C506 1.401 . S
C522 C518 1.368 1_455 S
C522 C521 1.523 . S
H523 C498 0.950 . S
H524 C500 0.950 . S
H525 C501 0.949 . S
H526 C503 0.950 . S
H527 C505 0.950 . S
C528 C529 1.349 . S
C528 C530 1.327 . S
C528 H553 0.950 . S
C529 C528 1.349 . S
C529 C545 1.349 . S
C530 C528 1.327 . S
C530 C549 1.429 . S
C530 H554 0.950 . S
C531 C548 1.574 . S
C531 C550 1.368 . S
C531 H555 0.949 . S
H532 C536 0.949 . S
C533 C534 1.349 . S
C533 C535 1.327 . S
C533 H556 0.950 . S
C534 C533 1.349 . S
C534 C546 1.349 . S
C535 C533 1.327 . S
C535 C551 1.429 . S
C535 H557 0.950 . S
C536 H532 0.949 . S
C536 C544 1.574 . S
C536 C552 1.368 . S
H537 C545 0.950 . S
H538 C543 0.950 . S
H539 C544 0.949 . S
H540 C546 0.950 . S
H541 C547 0.950 . S
H542 C548 0.949 . S
C543 H538 0.950 . S
C543 C545 1.327 . S
C543 C549 1.429 . S
C544 C536 1.574 . S
C544 H539 0.949 . S
C544 C550 1.368 . S
C545 C529 1.349 . S
C545 H537 0.950 . S
C545 C543 1.327 . S
C546 C534 1.349 . S
C546 H540 0.950 . S
C546 C547 1.327 . S
C547 H541 0.950 . S
C547 C546 1.327 . S
C547 C551 1.429 . S
C548 C531 1.574 . S
C548 H542 0.949 . S
C548 C552 1.368 . S
C549 C530 1.429 . S
C549 C543 1.429 . S
C549 C550 1.523 . S
C550 C531 1.368 . S
C550 C544 1.368 . S
C550 C549 1.523 . S
C551 C535 1.429 . S
C551 C547 1.429 . S
C551 C552 1.523 . S
C552 C536 1.368 . S
C552 C548 1.368 . S
C552 C551 1.523 . S
H553 C528 0.950 . S
H554 C530 0.950 . S
H555 C531 0.949 . S
H556 C533 0.950 . S
H557 C535 0.950 . S
C558 C559 1.349 . S
C558 C560 1.327 . S
C558 H583 0.950 . S
C559 C558 1.349 . S
C559 C575 1.349 . S
C560 C558 1.327 . S
C560 C579 1.429 . S
C560 H584 0.950 . S
C561 C578 1.574 . S
C561 C580 1.368 . S
C561 H585 0.949 . S
H562 C566 0.949 . S
C563 C564 1.349 . S
C563 C565 1.327 . S
C563 H586 0.950 . S
C564 C563 1.349 . S
C564 C576 1.349 . S
C565 C563 1.327 . S
C565 C581 1.429 . S
C565 H587 0.950 . S
C566 H562 0.949 . S
C566 C574 1.574 1_655 S
C566 C582 1.368 . S
H567 C575 0.950 . S
H568 C573 0.950 . S
H569 C574 0.949 . S
H570 C576 0.950 . S
H571 C577 0.950 . S
H572 C578 0.949 . S
C573 H568 0.950 . S
C573 C575 1.327 . S
C573 C579 1.429 . S
C574 C566 1.574 1_455 S
C574 H569 0.949 . S
C574 C580 1.368 . S
C575 C559 1.349 . S
C575 H567 0.950 . S
C575 C573 1.327 . S
C576 C564 1.349 . S
C576 H570 0.950 . S
C576 C577 1.327 . S
C577 H571 0.950 . S
C577 C576 1.327 . S
C577 C581 1.429 . S
C578 C561 1.574 . S
C578 H572 0.949 . S
C578 C582 1.368 1_455 S
C579 C560 1.429 . S
C579 C573 1.429 . S
C579 C580 1.523 . S
C580 C561 1.368 . S
C580 C574 1.368 . S
C580 C579 1.523 . S
C581 C565 1.429 . S
C581 C577 1.429 . S
C581 C582 1.523 . S
C582 C566 1.368 . S
C582 C578 1.368 1_655 S
C582 C581 1.523 . S
H583 C558 0.950 . S
H584 C560 0.950 . S
H585 C561 0.949 . S
H586 C563 0.950 . S
H587 C565 0.950 . S
C588 C589 1.349 . S
C588 C590 1.327 . S
C588 H613 0.950 . S
C589 C588 1.349 . S
C589 C605 1.349 . S
C590 C588 1.327 . S
C590 C609 1.429 . S
C590 H614 0.950 . S
C591 C608 1.574 . S
C591 C610 1.368 . S
C591 H615 0.949 . S
H592 C596 0.949 . S
C593 C594 1.349 . S
C593 C595 1.327 . S
C593 H616 0.950 . S
C594 C593 1.349 . S
C594 C606 1.349 . S
C595 C593 1.327 . S
C595 C611 1.429 . S
C595 H617 0.950 . S
C596 H592 0.949 . S
C596 C604 1.574 . S
C596 C612 1.368 . S
H597 C605 0.950 . S
H598 C603 0.950 . S
H599 C604 0.949 . S
H600 C606 0.950 . S
H601 C607 0.950 . S
H602 C608 0.949 . S
C603 H598 0.950 . S
C603 C605 1.327 . S
C603 C609 1.429 . S
C604 C596 1.574 . S
C604 H599 0.949 . S
C604 C610 1.368 . S
C605 C589 1.349 . S
C605 H597 0.950 . S
C605 C603 1.327 . S
C606 C594 1.349 . S
C606 H600 0.950 . S
C606 C607 1.327 . S
C607 H601 0.950 . S
C607 C606 1.327 . S
C607 C611 1.429 . S
C608 C591 1.574 . S
C608 H602 0.949 . S
C608 C612 1.368 . S
C609 C590 1.429 . S
C609 C603 1.429 . S
C609 C610 1.523 . S
C610 C591 1.368 . S
C610 C604 1.368 . S
C610 C609 1.523 . S
C611 C595 1.429 . S
C611 C607 1.429 . S
C611 C612 1.523 . S
C612 C596 1.368 . S
C612 C608 1.368 . S
C612 C611 1.523 . S
H613 C588 0.950 . S
H614 C590 0.950 . S
H615 C591 0.949 . S
H616 C593 0.950 . S
H617 C595 0.950 . S
C618 C619 1.349 . S
C618 C620 1.327 . S
C618 H643 0.950 . S
C619 C618 1.349 . S
C619 C635 1.349 . S
C620 C618 1.327 . S
C620 C639 1.429 . S
C620 H644 0.950 . S
C621 C638 1.574 . S
C621 C640 1.368 1_565 S
C621 H645 0.949 . S
H622 C626 0.949 . S
C623 C624 1.349 . S
C623 C625 1.327 . S
C623 H646 0.950 . S
C624 C623 1.349 . S
C624 C636 1.349 . S
C625 C623 1.327 . S
C625 C641 1.429 . S
C625 H647 0.950 . S
C626 H622 0.949 . S
C626 C634 1.574 1_564 S
C626 C642 1.368 . S
H627 C635 0.950 . S
H628 C633 0.950 . S
H629 C634 0.949 . S
H630 C636 0.950 . S
H631 C637 0.950 . S
H632 C638 0.949 . S
C633 H628 0.950 . S
C633 C635 1.327 . S
C633 C639 1.429 . S
C634 C626 1.574 1_546 S
C634 H629 0.949 . S
C634 C640 1.368 . S
C635 C619 1.349 . S
C635 H627 0.950 . S
C635 C633 1.327 . S
C636 C624 1.349 . S
C636 H630 0.950 . S
C636 C637 1.327 . S
C637 H631 0.950 . S
C637 C636 1.327 . S
C637 C641 1.429 . S
C638 C621 1.574 . S
C638 H632 0.949 . S
C638 C642 1.368 1_556 S
C639 C620 1.429 . S
C639 C633 1.429 . S
C639 C640 1.523 . S
C640 C621 1.368 1_545 S
C640 C634 1.368 . S
C640 C639 1.523 . S
C641 C625 1.429 . S
C641 C637 1.429 . S
C641 C642 1.523 . S
C642 C626 1.368 . S
C642 C638 1.368 1_554 S
C642 C641 1.523 . S
H643 C618 0.950 . S
H644 C620 0.950 . S
H645 C621 0.949 . S
H646 C623 0.950 . S
H647 C625 0.950 . S
C199 C8 1.251 . S
C204 C173 1.251 . S
C229 C107 1.251 . S
C234 C41 1.251 . S
C259 C140 1.251 . S
C264 C74 1.251 . S
C289 C182 1.123 . S
C294 N5 1.100 . S
C319 C116 1.122 . S
C324 N38 1.100 . S
C349 N71 1.100 . S
C354 C149 1.123 . S
C379 C50 1.123 . S
C384 N104 1.100 . S
C409 C83 1.123 . S
C414 N137 1.100 . S
C439 N170 1.100 . S
C444 C17 1.122 . S
C469 C160 1.678 . S
C474 N14 1.657 . S
C499 N47 1.657 . S
C504 C193 1.678 . S
C529 C127 1.678 . S
C534 N80 1.657 . S
C559 N113 1.657 . S
C564 C94 1.678 . S
C589 C28 1.678 . S
C594 N146 1.657 . S
C619 C61 1.678 . S
C624 N179 1.657 . S
