# Generated by pormake.
# Topology sxb, (6)-cn, num edge types: 1
# Building blocks:
#     Node 0, Type 0, BuildingBlock: UKALOJ_clean_sbu_0, # of connection points: 6
#     Node 1, Type 0, BuildingBlock: UKALOJ_clean_sbu_0, # of connection points: 6
#     Node 2, Type 0, BuildingBlock: UKALOJ_clean_sbu_0, # of connection points: 6
#     Node 3, Type 0, BuildingBlock: UKALOJ_clean_sbu_0, # of connection points: 6
#     Edge 4, Type (0, 0), BuildingBlock: MIFKUJ_clean_linker_0, # of connection points: 2
#     Edge 5, Type (0, 0), BuildingBlock: MIFKUJ_clean_linker_0, # of connection points: 2
#     Edge 6, Type (0, 0), BuildingBlock: MIFKUJ_clean_linker_0, # of connection points: 2
#     Edge 7, Type (0, 0), BuildingBlock: MIFKUJ_clean_linker_0, # of connection points: 2
#     Edge 8, Type (0, 0), BuildingBlock: MIFKUJ_clean_linker_0, # of connection points: 2
#     Edge 9, Type (0, 0), BuildingBlock: MIFKUJ_clean_linker_0, # of connection points: 2
#     Edge 10, Type (0, 0), BuildingBlock: MIFKUJ_clean_linker_0, # of connection points: 2
#     Edge 11, Type (0, 0), BuildingBlock: MIFKUJ_clean_linker_0, # of connection points: 2
#     Edge 12, Type (0, 0), BuildingBlock: MIFKUJ_clean_linker_0, # of connection points: 2
#     Edge 13, Type (0, 0), BuildingBlock: MIFKUJ_clean_linker_0, # of connection points: 2
#     Edge 14, Type (0, 0), BuildingBlock: MIFKUJ_clean_linker_0, # of connection points: 2
#     Edge 15, Type (0, 0), BuildingBlock: MIFKUJ_clean_linker_0, # of connection points: 2
# Relax obj value: 0.101
# Max RMSD: 0.145
# Mean RMSD: 0.145
data_MOF--net-sxb--node1-UKALOJ_clean_sbu_0--edge1-MIFKUJ_clean_linker_0
_symmetry_space_group_name_H-M    P1
_symmetry_Int_Tables_number       1
_symmetry_cell_setting            triclinic
loop_
_symmetry_equiv_pos_as_xyz
'x, y, z'
_cell_length_a     18.378902
_cell_length_b     35.116708
_cell_length_c     49.424774
_cell_angle_alpha  98.196571
_cell_angle_beta   89.823045
_cell_angle_gamma 90.38757
loop_
_atom_site_label
_atom_site_type_symbol
_atom_site_fract_x
_atom_site_fract_y
_atom_site_fract_z
_atom_type_partial_charge
Zn0 Zn -0.00767 0.03176 0.05169 0.0
O1 O 0.03798 0.97642 0.05018 0.0
C2 C 0.1313 0.06445 0.04124 0.0
Zn3 Zn 0.00544 0.02967 1.00672 0.0
C4 C 0.06097 0.95899 0.02747 0.0
O5 O 0.0544 0.97483 1.00601 0.0
C6 C 0.93677 0.10228 0.03095 0.0
O7 O 0.90468 0.00327 0.99688 0.0
O8 O 0.8908 0.00654 0.04125 0.0
N9 N 0.03209 0.0289 0.96649 0.0
C10 C -0.00694 0.03261 0.94395 0.0
C11 C 0.10451 0.02751 0.93192 0.0
N12 N 0.10123 0.02567 0.95891 0.0
N13 N 0.03734 0.03173 0.92203 0.0
C14 C 0.00141 0.02846 0.11464 0.0
C15 C 0.89037 0.03837 0.12601 0.0
N16 N 0.96463 0.03339 0.09184 0.0
N17 N 0.89579 0.03964 0.09902 0.0
N18 N 0.95589 0.03155 0.13637 0.0
H19 H 0.09916 0.00424 0.09508 0.0
H20 H 0.09125 -6e-05 0.13105 0.0
H21 H 0.11251 0.04569 0.12043 0.0
C22 C 0.08057 0.01872 0.11526 0.0
C23 C 0.91262 0.03918 0.94372 0.0
H24 H 0.89379 0.05435 0.96367 0.0
H25 H 0.88437 0.01093 0.93979 0.0
H26 H 0.89768 0.05617 0.92731 0.0
O27 O 0.95666 0.08414 1.00806 0.0
O28 O 0.94649 0.08725 0.05257 0.0
C29 C 0.8661 -0.00258 0.01723 0.0
O30 O 0.09421 0.05683 0.06152 0.0
O31 O 0.10567 0.05643 0.01726 0.0
Zn32 Zn 0.02861 0.02166 0.55053 0.0
O33 O 0.92786 0.04942 0.55377 0.0
C34 C 0.95452 0.94851 0.53308 0.0
Zn35 Zn 0.01938 0.01204 0.50518 0.0
C36 C 0.89284 0.05341 0.53224 0.0
O37 O 0.91893 0.04021 0.50896 0.0
C38 C 0.15713 0.98208 0.5232 0.0
O39 O 0.07198 0.06432 0.50099 0.0
O40 O 0.07897 0.07447 0.54577 0.0
N41 N 0.006 -0.00186 0.46396 0.0
C42 C -0.00095 0.0189 0.44318 0.0
C43 C -0.005 0.95965 0.42606 0.0
N44 N 0.0033 0.96138 0.45324 0.0
N45 N -0.00757 0.99534 0.41919 0.0
C46 C 0.00667 0.02782 0.61386 0.0
C47 C 0.10665 0.05448 0.62804 0.0
N48 N 0.04591 0.0336 0.59167 0.0
N49 N 0.10794 0.05012 0.60057 0.0
N50 N 0.04386 0.04061 0.63703 0.0
H51 H 0.90409 0.01478 0.5932 0.0
H52 H 0.8979 0.02519 0.62999 0.0
H53 H 0.93414 0.98001 0.61377 0.0
C54 C 0.93116 0.01127 0.61262 0.0
C55 C -0.00568 0.06188 0.44664 0.0
H56 H 0.96827 0.07296 0.46644 0.0
H57 H 0.96283 0.07144 0.42974 0.0
H58 H 0.05005 0.07415 0.44645 0.0
O59 O 0.12056 0.98474 0.50183 0.0
O60 O 0.13019 0.99439 0.54647 0.0
C61 C 0.09067 0.08571 0.52281 0.0
O62 O 0.97685 0.96894 0.55479 0.0
O63 O 0.96632 0.95982 0.51017 0.0
Zn64 Zn 0.49321 0.53459 0.05313 0.0
O65 O 0.54483 0.48186 0.05654 0.0
C66 C 0.62959 0.56339 0.0335 0.0
Zn67 Zn 0.49819 0.52375 1.00772 0.0
C68 C 0.55974 0.45946 0.03474 0.0
O69 O 0.54534 0.46985 1.01175 0.0
C70 C 0.43074 0.5988 0.02604 0.0
O71 O 0.39563 0.49774 1.00535 0.0
O72 O 0.3919 0.50702 0.0503 0.0
N73 N 0.51351 0.5121 0.96649 0.0
C74 C 0.47294 0.51612 0.94438 0.0
C75 C 0.57836 0.49776 0.93006 0.0
N76 N 0.57871 0.50041 0.95746 0.0
N77 N 0.51257 0.50729 0.92133 0.0
C78 C 0.47506 0.52648 0.11501 0.0
C79 C 0.4771 0.58539 0.13303 0.0
N80 N 0.48311 0.54782 0.09456 0.0
N81 N 0.48433 0.58437 0.10584 0.0
N82 N 0.4715 0.54944 0.13934 0.0
H83 H 0.43993 0.47344 0.09112 0.0
H84 H 0.43374 0.47414 0.12773 0.0
H85 H 0.52103 0.47028 0.11095 0.0
C86 C 0.46647 0.4836 0.11096 0.0
C87 C 0.39666 0.531 0.94534 0.0
H88 H 0.37758 0.5394 0.96659 0.0
H89 H 0.35988 0.50832 0.93502 0.0
H90 H 0.39364 0.55603 0.93399 0.0
O91 O 0.45085 0.57781 1.00424 0.0
O92 O 0.44169 0.58733 0.04893 0.0
C93 C 0.36258 0.49428 0.0275 0.0
O94 O 0.59473 0.56177 0.05548 0.0
O95 O 0.60108 0.54971 1.01082 0.0
Zn96 Zn 0.46424 0.53588 0.55358 0.0
O97 O 0.3644 0.56317 0.56258 0.0
C98 C 0.39326 0.46389 0.53033 0.0
Zn99 Zn 0.45187 0.5335 0.50859 0.0
C100 C 0.32648 0.56934 0.54228 0.0
O101 O 0.35134 0.56016 0.51827 0.0
C102 C 0.58908 0.49962 0.51999 0.0
O103 O 0.50196 0.58758 0.50888 0.0
O104 O 0.51599 0.58999 0.55319 0.0
N105 N 0.4253 0.53032 0.46829 0.0
C106 C 0.46297 0.53244 0.44509 0.0
C107 C 0.35106 0.52475 0.43424 0.0
N108 N 0.35592 0.52548 0.46143 0.0
N109 N 0.41745 0.52891 0.42342 0.0
C110 C 0.45231 0.52921 0.61597 0.0
C111 C 0.55411 0.55357 0.63017 0.0
N112 N 0.48841 0.539 0.59412 0.0
N113 N 0.55163 0.554 0.60303 0.0
N114 N 0.49259 0.53811 0.63891 0.0
H115 H 0.34732 0.51872 0.59656 0.0
H116 H 0.34579 0.52395 0.63347 0.0
H117 H 0.3805 0.48081 0.61368 0.0
C118 C 0.37692 0.51251 0.61484 0.0
C119 C 0.54316 0.53995 0.444 0.0
H120 H 0.55669 0.5562 0.42694 0.0
H121 H 0.57205 0.51204 0.44057 0.0
H122 H 0.56251 0.55625 0.46353 0.0
O123 O 0.55242 0.50697 0.49963 0.0
O124 O 0.5638 0.50838 0.54401 0.0
C125 C 0.52568 0.60494 0.53148 0.0
O126 O 0.41365 0.48189 0.5532 0.0
O127 O 0.40293 0.47904 0.50873 0.0
H128 H 0.40825 0.63558 0.9814 0.0
H129 H 0.34502 0.69655 0.98017 0.0
H130 H 0.3055 0.7064 0.06694 0.0
H131 H 0.36841 0.64576 0.0684 0.0
H132 H 0.18376 0.72103 0.03919 0.0
H133 H 0.4348 0.75913 0.0427 0.0
H134 H 0.56326 0.75954 0.02829 0.0
H135 H 0.49996 0.79241 0.95137 0.0
H136 H 0.37087 0.7914 0.96509 0.0
H137 H 0.08276 0.91697 0.06926 0.0
H138 H 0.14359 0.85496 0.0671 0.0
H139 H 0.18004 0.85287 0.98065 0.0
H140 H 0.1199 0.91513 0.98264 0.0
H141 H 0.30131 0.83349 1.00621 0.0
H142 H 0.05005 0.79414 1.00247 0.0
H143 H 0.92211 0.79637 0.01782 0.0
H144 H -0.01254 0.76883 0.09603 0.0
H145 H 0.11579 0.76615 0.08107 0.0
C146 C 0.3863 0.65081 1.00023 0.0
C147 C 0.39361 0.63587 0.02501 0.0
C148 C 0.35036 0.68567 0.9995 0.0
C149 C 0.32094 0.7061 0.0235 0.0
C150 C 0.32778 0.69111 0.04819 0.0
C151 C 0.36404 0.65648 0.04898 0.0
C152 C 0.28212 0.7429 0.02299 0.0
C153 C 0.20974 0.74572 0.0322 0.0
C154 C 0.31546 0.77486 1.01331 0.0
C155 C 0.39299 0.77462 1.00477 0.0
C156 C 0.44813 0.76591 0.02255 0.0
C157 C 0.52111 0.76635 1.01454 0.0
C158 C 0.53975 0.77583 0.98888 0.0
C159 C 0.48543 0.78492 0.97119 0.0
C160 C 0.41234 0.78438 0.97907 0.0
C161 C 0.10338 0.90327 0.04974 0.0
C162 C 0.09622 0.92096 0.0261 0.0
C163 C 0.13791 0.86773 0.04853 0.0
C164 C 0.16564 0.84908 0.02365 0.0
C165 C 0.15887 0.86672 1.00004 0.0
C166 C 0.12428 0.90226 1.00122 0.0
C167 C 0.20318 0.81158 0.02243 0.0
C168 C 0.27526 0.80865 1.01295 0.0
C169 C 0.1697 0.77952 0.03185 0.0
C170 C 0.0925 0.78023 0.04072 0.0
C171 C 0.03711 0.78862 0.02296 0.0
C172 C 0.96452 0.78984 0.03156 0.0
C173 C 0.94667 0.78271 0.05788 0.0
C174 C 0.00136 0.77418 0.07561 0.0
C175 C 0.07398 0.77264 0.06705 0.0
H176 H 0.89047 0.78377 0.06454 0.0
H177 H 0.59629 0.77627 0.98275 0.0
H178 H 0.62129 0.43346 0.07898 0.0
H179 H 0.68205 0.37185 0.08012 0.0
H180 H 0.63541 0.33849 0.99453 0.0
H181 H 0.57498 0.4 0.99313 0.0
H182 H 0.61141 0.27888 0.02656 0.0
H183 H 0.79344 0.37155 1.01066 0.0
H184 H 0.85615 0.43396 0.02103 0.0
H185 H 0.92676 0.40445 0.09808 0.0
H186 H 0.86172 0.34224 0.08862 0.0
H187 H 0.87333 0.13301 0.98921 0.0
H188 H 0.80708 0.1937 0.99208 0.0
H189 H 0.85171 0.21724 0.07847 0.0
H190 H 0.91716 0.15625 0.07591 0.0
H191 H 0.87521 0.28144 0.04826 0.0
H192 H 0.69534 0.1873 0.06318 0.0
H193 H 0.63029 0.12547 0.0526 0.0
H194 H 0.5569 0.15755 0.97665 0.0
H195 H 0.62333 0.21927 0.98645 0.0
C196 C 0.62351 0.41291 0.06046 0.0
C197 C 0.5938 0.4217 0.03592 0.0
C198 C 0.65821 0.37776 0.06114 0.0
C199 C 0.66337 0.35076 0.03737 0.0
C200 C 0.63178 0.35894 1.01309 0.0
C201 C 0.59775 0.3942 1.01231 0.0
C202 C 0.70521 0.31488 0.0374 0.0
C203 C 0.66917 0.27938 0.03108 0.0
C204 C 0.78033 0.31571 0.04373 0.0
C205 C 0.82177 0.35245 0.0491 0.0
C206 C 0.82168 0.37849 0.02995 0.0
C207 C 0.85756 0.41389 0.03569 0.0
C208 C 0.89528 0.42329 0.06025 0.0
C209 C 0.89728 0.3972 0.0791 0.0
C210 C 0.86068 0.36189 0.0736 0.0
C211 C 0.86948 0.15121 1.00879 0.0
C212 C 0.90027 0.13986 0.03236 0.0
C213 C 0.83148 0.18577 1.01039 0.0
C214 C 0.82436 0.20973 0.03551 0.0
C215 C 0.85674 0.19906 0.05892 0.0
C216 C 0.8938 0.16419 0.05743 0.0
C217 C 0.78143 0.24548 0.03734 0.0
C218 C 0.81734 0.28094 0.04394 0.0
C219 C 0.70623 0.2446 0.0312 0.0
C220 C 0.66511 0.20777 0.02541 0.0
C221 C 0.66597 0.18104 0.04409 0.0
C222 C 0.62879 0.146 0.03823 0.0
C223 C 0.5896 0.13751 1.01392 0.0
C224 C 0.58741 0.16412 0.99545 0.0
C225 C 0.6249 0.19914 1.00113 0.0
H226 H 0.56076 0.11038 1.00942 0.0
H227 H 0.92326 0.4507 0.0646 0.0
H228 H 0.11357 0.14233 0.5656 0.0
H229 H 0.16374 0.20643 0.56432 0.0
H230 H 0.19046 0.18051 0.4769 0.0
H231 H 0.14088 0.11574 0.478 0.0
H232 H 0.31022 0.2174 0.50255 0.0
H233 H 0.05313 0.23505 0.50098 0.0
H234 H 0.9262 0.22896 0.51613 0.0
H235 H 0.97874 0.29271 0.59441 0.0
H236 H 0.10635 0.29867 0.57988 0.0
H237 H 0.36916 0.41256 0.48441 0.0
H238 H 0.31615 0.34814 0.48148 0.0
H239 H 0.28901 0.36353 0.56907 0.0
H240 H 0.34193 0.42819 0.57225 0.0
H241 H 0.16666 0.3321 0.54042 0.0
H242 H 0.42526 0.31159 0.54226 0.0
H243 H 0.55197 0.31758 0.52681 0.0
H244 H 0.49538 0.25931 0.44724 0.0
H245 H 0.36798 0.25349 0.46211 0.0
C246 C 0.13027 0.15013 0.54607 0.0
C247 C 0.12302 0.12404 0.52186 0.0
C248 C 0.15865 0.18683 0.54538 0.0
C249 C 0.17977 0.19828 0.52047 0.0
C250 C 0.17406 0.17215 0.4963 0.0
C251 C 0.14551 0.1353 0.49695 0.0
C252 C 0.20755 0.23771 0.51992 0.0
C253 C 0.27846 0.24253 0.51038 0.0
C254 C 0.16633 0.27034 0.53062 0.0
C255 C 0.0895 0.26701 0.53941 0.0
C256 C 0.03778 0.24751 0.52151 0.0
C257 C 0.96567 0.24412 0.52997 0.0
C258 C 0.94445 0.26036 0.55624 0.0
C259 C -0.00472 0.28011 0.57408 0.0
C260 C 0.0675 0.28353 0.56573 0.0
C261 C 0.35183 0.40229 0.50307 0.0
C262 C 0.36 0.42532 0.5286 0.0
C263 C 0.32174 0.36548 0.50133 0.0
C264 C 0.2994 0.3511 0.52508 0.0
C265 C 0.30618 0.37423 0.55055 0.0
C266 C 0.33667 0.41101 0.55233 0.0
C267 C 0.26954 0.31172 0.52336 0.0
C268 C 0.1982 0.30695 0.53244 0.0
C269 C 0.31028 0.27918 0.51216 0.0
C270 C 0.38692 0.28248 0.50321 0.0
C271 C 0.43968 0.30036 0.5214 0.0
C272 C 0.51166 0.30367 0.51276 0.0
C273 C 0.53167 0.28894 0.48603 0.0
C274 C 0.47977 0.27077 0.46792 0.0
C275 C 0.40768 0.26743 0.47645 0.0
H276 H 0.58742 0.29152 0.47938 0.0
H277 H 0.8886 0.25771 0.56276 0.0
H278 H 0.90608 0.89726 0.49018 0.0
H279 H 0.83001 0.84051 0.4917 0.0
H280 H 0.82861 0.86259 0.57983 0.0
H281 H 0.90537 0.91961 0.57852 0.0
H282 H 0.85509 0.78766 0.56106 0.0
H283 H 0.66389 0.87757 0.54545 0.0
H284 H 0.5998 0.92582 0.52282 0.0
H285 H 0.61969 0.85357 0.44541 0.0
H286 H 0.68181 0.80435 0.46781 0.0
H287 H 0.57217 0.65287 0.57667 0.0
H288 H 0.64773 0.7106 0.57801 0.0
H289 H 0.65194 0.69587 0.48985 0.0
H290 H 0.57616 0.63815 0.4883 0.0
H291 H 0.62202 0.76821 0.51043 0.0
H292 H 0.81683 0.6803 0.5237 0.0
H293 H 0.88208 0.63064 0.54446 0.0
H294 H 0.85789 0.69702 0.62392 0.0
H295 H 0.79474 0.74778 0.60338 0.0
C296 C 0.88972 0.89011 0.50993 0.0
C297 C 0.91167 0.91301 0.53425 0.0
C298 C 0.84563 0.85783 0.51074 0.0
C299 C 0.82253 0.84777 0.53586 0.0
C300 C 0.84544 0.87008 0.56022 0.0
C301 C 0.88948 0.90253 0.55944 0.0
C302 C 0.77713 0.81294 0.53654 0.0
C303 C 0.80342 0.78371 0.55043 0.0
C304 C 0.71101 0.80719 0.52195 0.0
C305 C 0.67789 0.83756 0.50822 0.0
C306 C 0.65509 0.87219 0.52357 0.0
C307 C 0.61864 0.89954 0.51082 0.0
C308 C 0.60601 0.89283 0.48265 0.0
C309 C 0.62955 0.85871 0.46721 0.0
C310 C 0.66484 0.83097 0.47994 0.0
C311 C 0.58913 0.66192 0.55755 0.0
C312 C 0.56812 0.64096 0.53236 0.0
C313 C 0.63291 0.69471 0.55837 0.0
C314 C 0.65635 0.70717 0.53404 0.0
C315 C 0.63468 0.68661 0.50887 0.0
C316 C 0.59108 0.65376 0.50803 0.0
C317 C 0.70012 0.74284 0.5348 0.0
C318 C 0.67347 0.77223 0.52121 0.0
C319 C 0.76614 0.74857 0.54946 0.0
C320 C 0.80054 0.71751 0.56209 0.0
C321 C 0.82499 0.68411 0.54562 0.0
C322 C 0.86204 0.65593 0.55732 0.0
C323 C 0.87363 0.66051 0.58554 0.0
C324 C 0.84873 0.69347 0.60208 0.0
C325 C 0.81286 0.7221 0.5904 0.0
H326 H 0.90221 0.63865 0.59459 0.0
H327 H 0.5777 0.91392 0.47276 0.0
H328 H 0.22143 0.05514 0.08347 0.0
H329 H 0.35341 0.04944 0.07973 0.0
H330 H 0.34742 0.09082 1.00166 0.0
H331 H 0.21545 0.09642 1.00516 0.0
H332 H 0.39384 0.01657 0.9982 0.0
H333 H 0.44731 0.13757 0.05098 0.0
H334 H 0.44228 0.18977 0.08993 0.0
H335 H 0.52506 0.11373 0.14312 0.0
H336 H 0.52986 0.06089 0.10452 0.0
H337 H 0.77852 0.00793 0.97458 0.0
H338 H 0.64725 0.01714 0.97798 0.0
H339 H 0.64674 0.97715 0.05658 0.0
H340 H 0.77811 0.96817 0.05343 0.0
H341 H 0.60456 0.05216 0.05908 0.0
H342 H 0.54563 0.93051 1.00682 0.0
H343 H 0.55126 0.8783 0.96783 0.0
H344 H 0.47931 0.95587 0.91381 0.0
H345 H 0.4738 0.00865 0.95247 0.0
C346 C 0.24853 0.06476 0.06614 0.0
C347 C 0.2084 0.07524 0.04426 0.0
C348 C 0.32396 0.06144 0.06401 0.0
C349 C 0.35951 0.06902 0.04016 0.0
C350 C 0.32047 0.08444 0.02004 0.0
C351 C 0.24523 0.08767 0.02211 0.0
C352 C 0.43286 0.05367 0.03387 0.0
C353 C 0.44044 0.02489 1.01119 0.0
C354 C 0.49232 0.06359 0.05146 0.0
C355 C 0.48818 0.0951 0.07487 0.0
C356 C 0.46358 0.13181 0.07104 0.0
C357 C 0.46107 0.16157 0.09304 0.0
C358 C 0.48311 0.15504 0.119 0.0
C359 C 0.50791 0.11874 0.123 0.0
C360 C 0.51067 0.08888 0.10105 0.0
C361 C 0.75002 -0.00066 0.99196 0.0
C362 C 0.78839 0.98819 1.01404 0.0
C363 C 0.675 0.00473 0.99392 0.0
C364 C 0.638 -0.00153 0.01777 0.0
C365 C 0.67487 0.98253 0.03818 0.0
C366 C 0.74974 0.97728 0.03629 0.0
C367 C 0.5653 0.01495 0.02354 0.0
C368 C 0.55791 0.04392 0.0461 0.0
C369 C 0.50597 0.00519 1.00587 0.0
C370 C 0.51001 0.97364 0.98251 0.0
C371 C 0.53169 0.93654 0.98659 0.0
C372 C 0.53465 0.9068 0.96456 0.0
C373 C 0.51589 0.9138 0.93835 0.0
C374 C 0.49392 0.95051 0.93412 0.0
C375 C 0.49073 0.98033 0.9561 0.0
H376 H 0.51821 0.89074 0.92132 0.0
H377 H 0.48114 0.17813 0.13601 0.0
H378 H 0.24932 0.96773 0.5637 0.0
H379 H 0.38019 0.98015 0.56407 0.0
H380 H 0.3727 0.99363 0.47873 0.0
H381 H 0.24263 0.97998 0.47789 0.0
H382 H 0.50424 0.96886 0.49248 0.0
H383 H 0.33555 0.06854 0.52688 0.0
H384 H 0.23506 0.09536 0.55653 0.0
H385 H 0.36381 0.08732 0.62774 0.0
H386 H 0.46457 0.05919 0.59852 0.0
H387 H 0.81079 0.07756 0.49216 0.0
H388 H 0.67804 0.07537 0.49056 0.0
H389 H 0.67164 0.05502 0.57459 0.0
H390 H 0.80376 0.05856 0.57668 0.0
H391 H 0.54458 0.08674 0.55939 0.0
H392 H 0.70922 0.98326 0.52576 0.0
H393 H 0.81011 0.95524 0.49684 0.0
H394 H 0.68971 0.96956 0.42474 0.0
H395 H 0.58874 -0.00104 0.45332 0.0
C396 C 0.2761 0.97165 0.54472 0.0
C397 C 0.23556 0.9741 0.52099 0.0
C398 C 0.35074 0.97897 0.54501 0.0
C399 C 0.38501 0.98942 0.52173 0.0
C400 C 0.34675 0.98628 0.49702 0.0
C401 C 0.27231 0.9784 0.4966 0.0
C402 C 0.45609 0.00936 0.52411 0.0
C403 C 0.51302 0.99475 0.50691 0.0
C404 C 0.46698 0.04335 0.54294 0.0
C405 C 0.40738 0.06144 0.56051 0.0
C406 C 0.34237 0.07231 0.54886 0.0
C407 C 0.2853 0.08774 0.5656 0.0
C408 C 0.29298 0.09315 0.59399 0.0
C409 C 0.35789 0.08311 0.60573 0.0
C410 C 0.41498 0.06734 0.5891 0.0
C411 C 0.7809 0.0744 0.51065 0.0
C412 C 0.81722 0.06668 0.53421 0.0
C413 C 0.70516 0.07327 0.50973 0.0
C414 C 0.66578 0.06346 0.53212 0.0
C415 C 0.70141 0.06204 0.55698 0.0
C416 C 0.77707 0.06385 0.55808 0.0
C417 C 0.59296 0.04587 0.52803 0.0
C418 C 0.53567 0.06094 0.54484 0.0
C419 C 0.58181 0.0122 0.50892 0.0
C420 C 0.64174 0.99372 0.49168 0.0
C421 C 0.70449 0.98078 0.50374 0.0
C422 C 0.76167 0.96458 0.48741 0.0
C423 C 0.75639 0.96055 0.45897 0.0
C424 C 0.69379 0.97275 0.44679 0.0
C425 C 0.6366 0.98928 0.46305 0.0
H426 H 0.80079 0.94799 0.44637 0.0
H427 H 0.24865 0.10512 0.60689 0.0
H428 H 0.71744 0.57392 0.07829 0.0
H429 H 0.84837 0.56411 0.07725 0.0
H430 H 0.84947 0.56342 0.98987 0.0
H431 H 0.71809 0.5727 0.99062 0.0
H432 H 0.89137 0.49549 1.00444 0.0
H433 H 0.95031 0.6285 0.03024 0.0
H434 H 0.94348 0.69273 0.05767 0.0
H435 H 0.01403 0.64585 0.12875 0.0
H436 H 0.02029 0.58118 0.10182 0.0
H437 H 0.27274 0.48243 0.98329 0.0
H438 H 0.14084 0.48745 0.98536 0.0
H439 H 0.14642 0.48533 0.07241 0.0
H440 H 0.27866 0.48057 0.07061 0.0
H441 H 0.10014 0.55348 0.05902 0.0
H442 H 0.0486 0.42112 0.03302 0.0
H443 H 0.05174 0.35628 1.00647 0.0
H444 H 0.96617 0.40046 0.93652 0.0
H445 H 0.96326 0.46575 0.96253 0.0
C446 C 0.74587 0.57336 0.059 0.0
C447 C 0.70752 0.57287 0.03441 0.0
C448 C 0.82079 0.56778 0.05845 0.0
C449 C 0.85791 0.56233 0.0334 0.0
C450 C 0.82118 0.5671 1.00933 0.0
C451 C 0.74626 0.5725 1.00983 0.0
C452 C 0.93038 0.54471 0.03176 0.0
C453 C 0.93766 0.50837 0.01596 0.0
C454 C -0.01092 0.56102 0.04777 0.0
C455 C -0.01492 0.59989 0.06405 0.0
C456 C 0.96373 0.6318 0.05178 0.0
C457 C 0.96015 0.66833 0.06723 0.0
C458 C 0.97815 0.67335 0.09496 0.0
C459 C 2e-05 0.6419 0.10727 0.0
C460 C 0.00367 0.60531 0.09192 0.0
C461 C 0.24578 0.48134 1.00269 0.0
C462 C 0.28582 0.48252 0.02696 0.0
C463 C 0.1703 0.48408 1.00382 0.0
C464 C 0.13455 0.48756 0.02914 0.0
C465 C 0.17361 0.48314 0.05277 0.0
C466 C 0.24905 0.48048 0.05168 0.0
C467 C 0.0613 0.50416 0.03165 0.0
C468 C 0.05385 0.54039 0.04758 0.0
C469 C 0.00246 0.48765 0.01579 0.0
C470 C 0.00642 0.44856 0.99971 0.0
C471 C 0.03147 0.4172 1.01185 0.0
C472 C 0.03284 0.38028 0.99693 0.0
C473 C 0.00937 0.37426 0.9698 0.0
C474 C -0.01561 0.40516 0.95754 0.0
C475 C -0.01728 0.44214 0.97239 0.0
H476 H 0.01039 0.34564 0.95829 0.0
H477 H 0.97521 0.7016 0.10693 0.0
H478 H 0.23968 0.56057 0.58581 0.0
H479 H 0.10871 0.5492 0.58284 0.0
H480 H 0.10618 0.58612 0.50326 0.0
H481 H 0.23745 0.59672 0.50576 0.0
H482 H 0.97793 0.58132 0.57161 0.0
H483 H 0.02651 0.51431 0.45939 0.0
H484 H 0.12846 0.48931 0.42953 0.0
H485 H 0.24457 0.46116 0.49915 0.0
H486 H 0.14296 0.4851 0.5293 0.0
H487 H 0.67924 0.5085 0.47748 0.0
H488 H 0.81108 0.51527 0.48119 0.0
H489 H 0.80459 0.47363 0.55918 0.0
H490 H 0.67249 0.46736 0.55585 0.0
H491 H 0.93872 0.47861 0.49274 0.0
H492 H 0.89452 0.54642 0.60532 0.0
H493 H 0.79634 0.57334 0.63629 0.0
H494 H 0.67265 0.5987 0.56765 0.0
H495 H 0.77093 0.57354 0.53642 0.0
C496 C 0.21084 0.56786 0.56819 0.0
C497 C 0.24878 0.57832 0.54562 0.0
C498 C 0.13599 0.56126 0.56651 0.0
C499 C 0.09885 0.56547 0.54239 0.0
C500 C 0.13471 0.58178 0.52172 0.0
C501 C 0.20954 0.588 0.52325 0.0
C502 C 0.02719 0.54698 0.537 0.0
C503 C 0.9693 0.55862 0.55458 0.0
C504 C 0.01662 0.51734 0.51468 0.0
C505 C 0.07738 0.50189 0.49662 0.0
C506 C 0.07366 0.50256 0.46829 0.0
C507 C 0.13141 0.48854 0.45131 0.0
C508 C 0.19301 0.47364 0.46245 0.0
C509 C 0.19692 0.47264 0.49055 0.0
C510 C 0.13926 0.48644 0.50759 0.0
C511 C 0.70614 0.49908 0.49481 0.0
C512 C 0.66581 0.48859 0.5168 0.0
C513 C 0.78151 0.503 0.49692 0.0
C514 C 0.81665 0.49621 0.5209 0.0
C515 C 0.77777 0.4798 0.54081 0.0
C516 C 0.70244 0.4762 0.53885 0.0
C517 C 0.88912 0.51314 0.52727 0.0
C518 C 0.94728 0.50118 0.50987 0.0
C519 C 0.89998 0.54231 0.54991 0.0
C520 C 0.8398 0.55743 0.56847 0.0
C521 C 0.8464 0.55783 0.59684 0.0
C522 C 0.79085 0.57301 0.61446 0.0
C523 C 0.72835 0.58786 0.60395 0.0
C524 C 0.72112 0.5874 0.57579 0.0
C525 C 0.77673 0.5726 0.5581 0.0
H526 H 0.68563 0.59982 0.61763 0.0
H527 H 0.23767 0.4628 0.44929 0.0
H528 H 0.07619 0.04569 0.39619 0.0
H529 H 0.0775 0.05467 0.34789 0.0
H530 H 0.9017 0.97245 0.33191 0.0
H531 H 0.90161 0.96308 0.38008 0.0
H532 H 0.00458 0.95647 0.29559 0.0
H533 H 0.87807 0.07154 0.3335 0.0
H534 H 0.86125 0.13242 0.36446 0.0
H535 H 0.05402 0.17906 0.33203 0.0
H536 H 0.07255 0.11822 0.30112 0.0
H537 H 0.87475 0.99128 0.16749 0.0
H538 H 0.89116 0.98708 0.21609 0.0
H539 H 0.08247 0.05921 0.21747 0.0
H540 H 0.06539 0.06374 0.16868 0.0
H541 H -0.01396 0.08171 0.26074 0.0
H542 H 0.10512 0.96695 0.21997 0.0
H543 H 0.11743 0.90615 0.18857 0.0
H544 H 0.93337 0.85889 0.22627 0.0
H545 H 0.91923 0.91963 0.25764 0.0
C546 C 0.03676 0.03036 0.38242 0.0
C547 C -0.01205 0.00417 0.39177 0.0
C548 C 0.03769 0.03534 0.35484 0.0
C549 C -0.0107 0.01444 0.33627 0.0
C550 C 0.93964 0.98882 0.34581 0.0
C551 C 0.93928 0.9836 0.37326 0.0
C552 C -0.00774 0.01772 0.30666 0.0
C553 C -0.00026 0.98385 0.288 0.0
C554 C -0.01162 0.05354 0.29673 0.0
C555 C 0.97714 0.09018 0.31522 0.0
C556 C 0.9172 0.09467 0.33313 0.0
C557 C 0.9073 0.12918 0.35064 0.0
C558 C 0.95665 0.15955 0.35027 0.0
C559 C 0.0159 0.15549 0.33233 0.0
C560 C 0.02611 0.12101 0.3148 0.0
C561 C 0.92063 0.0059 0.17817 0.0
C562 C 0.96956 0.02723 0.16436 0.0
C563 C 0.9301 0.00344 0.20584 0.0
C564 C -0.0115 0.02249 0.22028 0.0
C565 C 0.03739 0.04407 0.2066 0.0
C566 C 0.02815 0.04629 0.17875 0.0
C567 C -0.00335 0.02041 0.24983 0.0
C568 C -0.0085 0.05444 0.26843 0.0
C569 C 0.00212 0.98471 0.25975 0.0
C570 C 0.01082 0.94798 0.24104 0.0
C571 C 0.06693 0.9437 0.22144 0.0
C572 C 0.07429 0.90922 0.20366 0.0
C573 C 0.02614 0.8787 0.20539 0.0
C574 C 0.97062 0.88256 0.22494 0.0
C575 C 0.96296 0.917 0.24276 0.0
H576 H 0.03191 0.85203 0.1916 0.0
H577 H 0.94889 0.18625 0.36384 0.0
H578 H 0.93645 0.99121 0.89009 0.0
H579 H 0.91625 0.99316 0.84109 0.0
H580 H 0.08151 0.08122 0.84236 0.0
H581 H 0.10201 0.07891 0.89113 0.0
H582 H 0.95122 0.09425 0.81224 0.0
H583 H 0.12978 0.99491 0.82154 0.0
H584 H 0.17101 0.93552 0.83789 0.0
H585 H -0.00588 0.87252 0.7957 0.0
H586 H 0.95126 0.93173 0.77942 0.0
H587 H 0.081 0.09454 0.67889 0.0
H588 H 0.06012 0.09307 0.72743 0.0
H589 H 0.94281 0.98576 0.70831 0.0
H590 H 0.96914 0.9856 0.65988 0.0
H591 H 0.02715 0.97995 0.74775 0.0
H592 H 0.85648 0.07568 0.7328 0.0
H593 H 0.81113 0.13428 0.71649 0.0
H594 H 0.96211 0.20319 0.76892 0.0
H595 H 0.00912 0.14496 0.78527 0.0
C596 C 0.9672 0.01143 0.8799 0.0
C597 C 0.0203 0.03516 0.89418 0.0
C598 C 0.95598 0.01241 0.85202 0.0
C599 C -0.00258 0.03736 0.8382 0.0
C600 C 0.04875 0.06195 0.85272 0.0
C601 C 0.06066 0.06053 0.88042 0.0
C602 C -0.0088 0.03632 0.80827 0.0
C603 C 0.96787 0.06938 0.79803 0.0
C604 C 0.01078 0.00337 0.78989 0.0
C605 C 0.03682 0.9678 0.79956 0.0
C606 C 0.09931 0.96846 0.81596 0.0
C607 C 0.12305 0.93483 0.82517 0.0
C608 C 0.08507 0.90029 0.81792 0.0
C609 C 0.02339 0.89931 0.80136 0.0
C610 C -0.00063 0.93288 0.79212 0.0
C611 C 0.0502 0.0708 0.68504 0.0
C612 C 0.02489 0.0408 0.66538 0.0
C613 C 0.03752 0.07018 0.71281 0.0
C614 C -0.00203 0.03985 0.72163 0.0
C615 C 0.97245 0.00981 0.70204 0.0
C616 C -0.01363 0.01008 0.67422 0.0
C617 C -0.01183 0.0383 0.75135 0.0
C618 C 0.00879 0.00472 0.76169 0.0
C619 C 0.96504 0.07067 0.76979 0.0
C620 C 0.93662 0.10587 0.76014 0.0
C621 C 0.88033 0.1033 0.74073 0.0
C622 C 0.85429 0.13646 0.7315 0.0
C623 C 0.88379 0.17243 0.74164 0.0
C624 C 0.9393 0.17531 0.76108 0.0
C625 C 0.96559 0.14223 0.77038 0.0
H626 H 0.86357 0.19806 0.73445 0.0
H627 H 0.10354 0.87428 0.82507 0.0
H628 H 0.52395 0.49124 0.39247 0.0
H629 H 0.53954 0.48815 0.34284 0.0
H630 H 0.35648 0.56398 0.34049 0.0
H631 H 0.34075 0.56666 0.38987 0.0
H632 H 0.34433 0.5043 0.30184 0.0
H633 H 0.53502 0.59447 0.33448 0.0
H634 H 0.6456 0.61601 0.36056 0.0
H635 H 0.76633 0.52337 0.31566 0.0
H636 H 0.65611 0.50097 0.28956 0.0
H637 H 0.38132 0.58181 0.17855 0.0
H638 H 0.37666 0.57002 0.22621 0.0
H639 H 0.54499 0.4848 0.20945 0.0
H640 H 0.5496 0.49676 0.16161 0.0
H641 H 0.57117 0.53889 0.25616 0.0
H642 H 0.38093 0.45398 0.21971 0.0
H643 H 0.26973 0.43463 0.19338 0.0
H644 H 0.14717 0.51948 0.24541 0.0
H645 H 0.25788 0.53977 0.27182 0.0
C646 C 0.48834 0.5079 0.38136 0.0
C647 C 0.43189 0.52972 0.39493 0.0
C648 C 0.49691 0.50596 0.35303 0.0
C649 C 0.44936 0.526 0.33794 0.0
C650 C 0.39364 0.54815 0.35165 0.0
C651 C 0.38485 0.54985 0.37981 0.0
C652 C 0.45563 0.52332 0.30778 0.0
C653 C 0.39382 0.51214 0.29189 0.0
C654 C 0.52087 0.53228 0.29468 0.0
C655 C 0.58714 0.54578 0.31031 0.0
C656 C 0.585 0.57851 0.33033 0.0
C657 C 0.64763 0.59091 0.34509 0.0
C658 C 0.7129 0.571 0.33983 0.0
C659 C 0.7157 0.53872 0.31975 0.0
C660 C 0.65319 0.52616 0.30496 0.0
C661 C 0.4165 0.56022 0.18505 0.0
C662 C 0.46488 0.53972 0.16648 0.0
C663 C 0.41379 0.55344 0.21216 0.0
C664 C 0.46004 0.52628 0.22126 0.0
C665 C 0.50853 0.50567 0.20274 0.0
C666 C 0.51063 0.51219 0.17546 0.0
C667 C 0.45929 0.52099 0.25045 0.0
C668 C 0.52207 0.53054 0.26612 0.0
C669 C 0.3948 0.51079 0.2634 0.0
C670 C 0.32791 0.49858 0.24764 0.0
C671 C 0.3304 0.46873 0.22541 0.0
C672 C 0.26742 0.45755 0.21049 0.0
C673 C 0.20146 0.47586 0.21769 0.0
C674 C 0.19832 0.50533 0.23986 0.0
C675 C 0.26116 0.51665 0.25483 0.0
H676 H 0.15275 0.46715 0.20611 0.0
H677 H 0.76134 0.58065 0.35127 0.0
H678 H 0.53104 0.5877 0.68299 0.0
H679 H 0.51765 0.57897 0.73096 0.0
H680 H 0.40616 0.47121 0.70677 0.0
H681 H 0.4226 0.4788 0.65861 0.0
H682 H 0.34823 0.5324 0.75743 0.0
H683 H 0.55043 0.45261 0.72002 0.0
H684 H 0.663 0.44126 0.69286 0.0
H685 H 0.76827 0.53467 0.74384 0.0
H686 H 0.65582 0.54696 0.77103 0.0
H687 H 0.40237 0.47363 0.89038 0.0
H688 H 0.38294 0.47637 0.84146 0.0
H689 H 0.56603 0.55417 0.84165 0.0
H690 H 0.58622 0.55027 0.89006 0.0
H691 H 0.57858 0.50037 0.80096 0.0
H692 H 0.38315 0.58275 0.83772 0.0
H693 H 0.27196 0.59977 0.86468 0.0
H694 H 0.15505 0.50836 0.81603 0.0
H695 H 0.26591 0.49045 0.78901 0.0
C696 C 0.50293 0.56235 0.68789 0.0
C697 C 0.47677 0.53432 0.66698 0.0
C698 C 0.49497 0.55753 0.71525 0.0
C699 C 0.46038 0.52465 0.72228 0.0
C700 C 0.43192 0.49709 0.70164 0.0
C701 C 0.44083 0.50165 0.67413 0.0
C702 C 0.46106 0.51777 0.75106 0.0
C703 C 0.398 0.52464 0.76699 0.0
C704 C 0.52657 0.50862 0.76342 0.0
C705 C 0.59454 0.50092 0.74737 0.0
C706 C 0.59738 0.47094 0.72527 0.0
C707 C 0.6612 0.46429 0.70991 0.0
C708 C 0.7227 0.48729 0.71657 0.0
C709 C 0.72057 0.5169 0.73868 0.0
C710 C 0.65684 0.5237 0.75409 0.0
C711 C 0.43722 0.4918 0.87992 0.0
C712 C 0.49538 0.51199 0.89374 0.0
C713 C 0.42631 0.49336 0.85205 0.0
C714 C 0.47289 0.51562 0.83784 0.0
C715 C 0.52964 0.53662 0.85206 0.0
C716 C 0.54105 0.53458 0.87966 0.0
C717 C 0.46585 0.5157 0.8079 0.0
C718 C 0.52811 0.50756 0.7916 0.0
C719 C 0.39972 0.52419 0.7954 0.0
C720 C 0.33303 0.53497 0.81157 0.0
C721 C 0.33389 0.56607 0.83292 0.0
C722 C 0.2709 0.57592 0.84819 0.0
C723 C 0.20654 0.55508 0.84213 0.0
C724 C 0.20498 0.52442 0.82074 0.0
C725 C 0.26786 0.51442 0.80543 0.0
H726 H 0.15782 0.56275 0.85397 0.0
H727 H 0.77205 0.48211 0.70465 0.0
loop_
_geom_bond_atom_site_label_1
_geom_bond_atom_site_label_2
_geom_bond_distance
_geom_bond_site_symmetry_2
_ccdc_geom_bond_type
Zn0 O1 2.055 1_645 S
Zn0 O8 2.046 1_545 S
Zn0 N16 2.036 . S
Zn0 O28 2.053 . S
Zn0 O30 2.066 1_655 S
O1 Zn0 2.055 1_465 S
O1 C4 1.259 . S
C2 O30 1.256 . S
C2 O31 1.244 1_554 S
Zn3 O5 2.046 1_545 S
Zn3 O7 2.055 1_445 S
Zn3 N9 2.034 . S
Zn3 O27 2.066 1_455 S
Zn3 O31 2.053 . S
C4 O1 1.259 . S
C4 O5 1.254 1_554 S
O5 Zn3 2.046 1_565 S
O5 C4 1.254 1_556 S
C6 O27 1.256 1_554 S
C6 O28 1.244 . S
O7 Zn3 2.055 1_665 S
O7 C29 1.259 1_556 S
O8 Zn0 2.046 1_565 S
O8 C29 1.254 . S
N9 Zn3 2.034 . S
N9 C10 1.307 1_455 S
N9 N12 1.398 1_545 S
C10 N9 1.307 1_655 S
C10 N13 1.367 1_655 S
C10 C23 1.481 . S
C11 N12 1.299 1_545 S
C11 N13 1.379 . S
N12 N9 1.398 1_565 S
N12 C11 1.299 1_565 S
N13 C10 1.367 1_455 S
N13 C11 1.379 . S
C14 N16 1.298 1_455 S
C14 N18 1.367 . S
C14 C22 1.481 1_545 S
C15 N17 1.299 . S
C15 N18 1.379 1_655 S
N16 Zn0 2.036 . S
N16 C14 1.298 1_655 S
N16 N17 1.398 . S
N17 C15 1.299 . S
N17 N16 1.398 . S
N18 C14 1.367 . S
N18 C15 1.379 1_455 S
H19 C22 0.980 . S
H20 C22 0.981 . S
H21 C22 0.981 . S
C22 C14 1.481 1_565 S
C22 H19 0.980 . S
C22 H20 0.981 . S
C22 H21 0.981 . S
C23 C10 1.481 . S
C23 H24 0.980 . S
C23 H25 0.981 . S
C23 H26 0.981 . S
H24 C23 0.980 . S
H25 C23 0.981 . S
H26 C23 0.981 . S
O27 Zn3 2.066 1_655 S
O27 C6 1.256 1_556 S
O28 Zn0 2.053 . S
O28 C6 1.244 . S
C29 O7 1.259 1_554 S
C29 O8 1.254 . S
O30 Zn0 2.066 1_455 S
O30 C2 1.256 . S
O31 C2 1.244 1_556 S
O31 Zn3 2.053 . S
Zn32 O33 2.055 1_455 S
Zn32 O40 2.046 . S
Zn32 N48 2.036 . S
Zn32 O60 2.053 . S
Zn32 O62 2.066 1_455 S
O33 Zn32 2.055 1_655 S
O33 C36 1.259 . S
C34 O62 1.256 1_565 S
C34 O63 1.244 . S
Zn35 O37 2.046 . S
Zn35 O39 2.055 1_655 S
Zn35 N41 2.036 . S
Zn35 O59 2.066 1_655 S
Zn35 O63 2.053 1_545 S
C36 O33 1.259 . S
C36 O37 1.254 . S
O37 Zn35 2.046 . S
O37 C36 1.254 . S
C38 O59 1.256 . S
C38 O60 1.244 . S
O39 Zn35 2.055 1_455 S
O39 C61 1.259 . S
O40 Zn32 2.046 . S
O40 C61 1.254 . S
N41 Zn35 2.036 . S
N41 C42 1.298 1_655 S
N41 N44 1.398 . S
C42 N41 1.298 1_455 S
C42 N45 1.367 . S
C42 C55 1.481 . S
C43 N44 1.299 . S
C43 N45 1.379 1_655 S
N44 N41 1.398 . S
N44 C43 1.299 . S
N45 C42 1.367 . S
N45 C43 1.379 1_455 S
C46 N48 1.298 1_655 S
C46 N50 1.367 1_655 S
C46 C54 1.481 . S
C47 N49 1.299 . S
C47 N50 1.379 . S
N48 Zn32 2.036 . S
N48 C46 1.298 1_455 S
N48 N49 1.398 . S
N49 C47 1.299 . S
N49 N48 1.398 . S
N50 C46 1.367 1_455 S
N50 C47 1.379 . S
H51 C54 0.980 . S
H52 C54 0.981 . S
H53 C54 0.981 . S
C54 C46 1.481 . S
C54 H51 0.980 . S
C54 H52 0.981 . S
C54 H53 0.981 . S
C55 C42 1.481 . S
C55 H56 0.980 . S
C55 H57 0.981 . S
C55 H58 0.981 . S
H56 C55 0.980 . S
H57 C55 0.981 . S
H58 C55 0.981 . S
O59 Zn35 2.066 1_455 S
O59 C38 1.256 . S
O60 Zn32 2.053 . S
O60 C38 1.244 . S
C61 O39 1.259 . S
C61 O40 1.254 . S
O62 Zn32 2.066 1_655 S
O62 C34 1.256 1_545 S
O63 C34 1.244 . S
O63 Zn35 2.053 1_565 S
Zn64 O65 2.055 . S
Zn64 O72 2.046 . S
Zn64 N80 2.036 . S
Zn64 O92 2.053 . S
Zn64 O94 2.066 . S
O65 Zn64 2.055 . S
O65 C68 1.259 . S
C66 O94 1.256 . S
C66 O95 1.244 1_554 S
Zn67 O69 2.046 . S
Zn67 O71 2.055 . S
Zn67 N73 2.036 . S
Zn67 O91 2.066 . S
Zn67 O95 2.053 . S
C68 O65 1.259 . S
C68 O69 1.254 1_554 S
O69 Zn67 2.046 . S
O69 C68 1.254 1_556 S
C70 O91 1.256 1_554 S
C70 O92 1.244 . S
O71 Zn67 2.055 . S
O71 C93 1.259 1_556 S
O72 Zn64 2.046 . S
O72 C93 1.254 . S
N73 Zn67 2.036 . S
N73 C74 1.298 . S
N73 N76 1.398 . S
C74 N73 1.298 . S
C74 N77 1.367 . S
C74 C87 1.481 . S
C75 N76 1.299 . S
C75 N77 1.379 . S
N76 N73 1.398 . S
N76 C75 1.299 . S
N77 C74 1.367 . S
N77 C75 1.379 . S
C78 N80 1.298 . S
C78 N82 1.367 . S
C78 C86 1.481 . S
C79 N81 1.299 . S
C79 N82 1.379 . S
N80 Zn64 2.036 . S
N80 C78 1.298 . S
N80 N81 1.398 . S
N81 C79 1.299 . S
N81 N80 1.398 . S
N82 C78 1.367 . S
N82 C79 1.379 . S
H83 C86 0.980 . S
H84 C86 0.981 . S
H85 C86 0.981 . S
C86 C78 1.481 . S
C86 H83 0.980 . S
C86 H84 0.981 . S
C86 H85 0.981 . S
C87 C74 1.481 . S
C87 H88 0.980 . S
C87 H89 0.981 . S
C87 H90 0.981 . S
H88 C87 0.980 . S
H89 C87 0.981 . S
H90 C87 0.981 . S
O91 Zn67 2.066 . S
O91 C70 1.256 1_556 S
O92 Zn64 2.053 . S
O92 C70 1.244 . S
C93 O71 1.259 1_554 S
C93 O72 1.254 . S
O94 Zn64 2.066 . S
O94 C66 1.256 . S
O95 C66 1.244 1_556 S
O95 Zn67 2.053 . S
Zn96 O97 2.055 . S
Zn96 O104 2.046 . S
Zn96 N112 2.036 . S
Zn96 O124 2.053 . S
Zn96 O126 2.066 . S
O97 Zn96 2.055 . S
O97 C100 1.259 . S
C98 O126 1.256 . S
C98 O127 1.244 . S
Zn99 O101 2.046 . S
Zn99 O103 2.055 . S
Zn99 N105 2.036 . S
Zn99 O123 2.066 . S
Zn99 O127 2.053 . S
C100 O97 1.259 . S
C100 O101 1.254 . S
O101 Zn99 2.046 . S
O101 C100 1.254 . S
C102 O123 1.256 . S
C102 O124 1.244 . S
O103 Zn99 2.055 . S
O103 C125 1.259 . S
O104 Zn96 2.046 . S
O104 C125 1.254 . S
N105 Zn99 2.036 . S
N105 C106 1.298 . S
N105 N108 1.398 . S
C106 N105 1.298 . S
C106 N109 1.367 . S
C106 C119 1.481 . S
C107 N108 1.299 . S
C107 N109 1.379 . S
N108 N105 1.398 . S
N108 C107 1.299 . S
N109 C106 1.367 . S
N109 C107 1.379 . S
C110 N112 1.298 . S
C110 N114 1.367 . S
C110 C118 1.481 . S
C111 N113 1.299 . S
C111 N114 1.379 . S
N112 Zn96 2.036 . S
N112 C110 1.298 . S
N112 N113 1.398 . S
N113 C111 1.299 . S
N113 N112 1.398 . S
N114 C110 1.367 . S
N114 C111 1.379 . S
H115 C118 0.980 . S
H116 C118 0.981 . S
H117 C118 0.981 . S
C118 C110 1.481 . S
C118 H115 0.980 . S
C118 H116 0.981 . S
C118 H117 0.981 . S
C119 C106 1.481 . S
C119 H120 0.980 . S
C119 H121 0.981 . S
C119 H122 0.981 . S
H120 C119 0.980 . S
H121 C119 0.981 . S
H122 C119 0.981 . S
O123 Zn99 2.066 . S
O123 C102 1.256 . S
O124 Zn96 2.053 . S
O124 C102 1.244 . S
C125 O103 1.259 . S
C125 O104 1.254 . S
O126 Zn96 2.066 . S
O126 C98 1.256 . S
O127 C98 1.244 . S
O127 Zn99 2.053 . S
H128 C146 0.951 1_556 S
H129 C148 0.951 1_556 S
H130 C150 0.950 . S
H131 C151 0.950 . S
H132 C153 0.950 1_556 S
H133 C156 0.950 . S
H134 C157 0.950 . S
H135 C159 0.950 . S
H136 C160 0.950 . S
H137 C161 0.951 . S
H138 C163 0.951 . S
H139 C165 0.961 . S
H140 C166 0.959 . S
H141 C168 0.950 . S
H142 C171 0.950 . S
H143 C172 0.950 . S
H144 C174 0.950 . S
H145 C175 0.950 1_554 S
C146 H128 0.951 1_554 S
C146 C147 1.366 . S
C146 C148 1.388 . S
C147 C146 1.366 . S
C147 C151 1.385 . S
C148 H129 0.951 1_554 S
C148 C146 1.388 . S
C148 C149 1.366 . S
C149 C148 1.366 . S
C149 C150 1.414 . S
C149 C152 1.499 . S
C150 H130 0.950 . S
C150 C149 1.414 . S
C150 C151 1.374 . S
C151 H131 0.950 . S
C151 C147 1.385 . S
C151 C150 1.374 . S
C152 C149 1.499 . S
C152 C153 1.373 . S
C152 C154 1.389 . S
C153 H132 0.950 1_554 S
C153 C152 1.373 . S
C153 C169 1.376 1_554 S
C154 C152 1.389 . S
C154 C155 1.524 . S
C154 C168 1.377 . S
C155 C154 1.524 . S
C155 C156 1.397 . S
C155 C160 1.363 . S
C156 H133 0.950 . S
C156 C155 1.397 . S
C156 C157 1.334 . S
C157 H134 0.950 . S
C157 C156 1.334 . S
C157 C158 1.287 . S
C158 C157 1.287 . S
C158 C159 1.524 . S
C158 H177 0.913 . S
C159 H135 0.950 . S
C159 C158 1.524 . S
C159 C160 1.415 . S
C160 H136 0.950 . S
C160 C155 1.363 . S
C160 C159 1.415 . S
C161 H137 0.951 . S
C161 C162 1.366 . S
C161 C163 1.388 . S
C162 C161 1.366 . S
C162 C166 1.378 1_554 S
C163 H138 0.951 . S
C163 C161 1.388 . S
C163 C164 1.366 . S
C164 C163 1.366 . S
C164 C165 1.400 1_554 S
C164 C167 1.499 . S
C165 H139 0.961 . S
C165 C164 1.400 1_556 S
C165 C166 1.375 . S
C166 H140 0.959 . S
C166 C162 1.378 1_556 S
C166 C165 1.375 . S
C167 C164 1.499 . S
C167 C168 1.373 . S
C167 C169 1.388 1_554 S
C168 H141 0.950 . S
C168 C154 1.377 . S
C168 C167 1.373 . S
C169 C153 1.376 1_556 S
C169 C167 1.388 1_556 S
C169 C170 1.527 . S
C170 C169 1.527 . S
C170 C171 1.397 . S
C170 C175 1.363 . S
C171 H142 0.950 . S
C171 C170 1.397 . S
C171 C172 1.334 . S
C172 H143 0.950 . S
C172 C171 1.334 . S
C172 C173 1.287 1_455 S
C173 C172 1.287 1_655 S
C173 C174 1.524 . S
C173 H176 0.999 . S
C174 H144 0.950 . S
C174 C173 1.524 . S
C174 C175 1.415 1_655 S
C175 H145 0.950 1_556 S
C175 C170 1.363 . S
C175 C174 1.415 1_455 S
H176 C173 0.999 . S
H177 C158 0.913 . S
H178 C196 0.951 . S
H179 C198 0.951 . S
H180 C200 0.950 . S
H181 C201 0.950 . S
H182 C203 0.950 . S
H183 C206 0.950 . S
H184 C207 0.950 . S
H185 C209 0.950 . S
H186 C210 0.950 . S
H187 C211 0.951 . S
H188 C213 0.951 . S
H189 C215 0.950 . S
H190 C216 0.950 . S
H191 C218 0.950 . S
H192 C221 0.950 . S
H193 C222 0.950 . S
H194 C224 0.950 . S
H195 C225 0.950 . S
C196 H178 0.951 . S
C196 C197 1.366 . S
C196 C198 1.388 . S
C197 C196 1.366 . S
C197 C201 1.385 1_554 S
C198 H179 0.951 . S
C198 C196 1.388 . S
C198 C199 1.366 . S
C199 C198 1.366 . S
C199 C200 1.414 1_554 S
C199 C202 1.499 . S
C200 H180 0.950 . S
C200 C199 1.414 1_556 S
C200 C201 1.374 . S
C201 H181 0.950 . S
C201 C197 1.385 1_556 S
C201 C200 1.374 . S
C202 C199 1.499 . S
C202 C203 1.373 . S
C202 C204 1.389 . S
C203 H182 0.950 . S
C203 C202 1.373 . S
C203 C219 1.377 . S
C204 C202 1.389 . S
C204 C205 1.524 . S
C204 C218 1.377 . S
C205 C204 1.524 . S
C205 C206 1.397 1_554 S
C205 C210 1.363 . S
C206 H183 0.950 . S
C206 C205 1.397 1_556 S
C206 C207 1.334 . S
C207 H184 0.950 . S
C207 C206 1.334 . S
C207 C208 1.287 1_556 S
C208 C207 1.287 1_554 S
C208 C209 1.524 . S
C208 H227 0.916 . S
C209 H185 0.950 . S
C209 C208 1.524 . S
C209 C210 1.415 . S
C210 H186 0.950 . S
C210 C205 1.363 . S
C210 C209 1.415 . S
C211 H187 0.951 . S
C211 C212 1.366 1_556 S
C211 C213 1.388 . S
C212 C211 1.366 1_554 S
C212 C216 1.385 . S
C213 H188 0.951 . S
C213 C211 1.388 . S
C213 C214 1.366 1_556 S
C214 C213 1.366 1_554 S
C214 C215 1.414 . S
C214 C217 1.499 . S
C215 H189 0.950 . S
C215 C214 1.414 . S
C215 C216 1.374 . S
C216 H190 0.950 . S
C216 C212 1.385 . S
C216 C215 1.374 . S
C217 C214 1.499 . S
C217 C218 1.373 . S
C217 C219 1.389 . S
C218 H191 0.950 . S
C218 C204 1.377 . S
C218 C217 1.373 . S
C219 C203 1.377 . S
C219 C217 1.389 . S
C219 C220 1.524 . S
C220 C219 1.524 . S
C220 C221 1.397 . S
C220 C225 1.363 1_554 S
C221 H192 0.950 . S
C221 C220 1.397 . S
C221 C222 1.334 . S
C222 H193 0.950 . S
C222 C221 1.334 . S
C222 C223 1.287 . S
C223 C222 1.287 . S
C223 C224 1.524 1_554 S
C223 H226 0.999 . S
C224 H194 0.950 . S
C224 C223 1.524 1_556 S
C224 C225 1.415 . S
C225 H195 0.950 . S
C225 C220 1.363 1_556 S
C225 C224 1.415 . S
H226 C223 0.999 . S
H227 C208 0.916 . S
H228 C246 0.951 . S
H229 C248 0.951 . S
H230 C250 0.950 . S
H231 C251 0.950 . S
H232 C253 0.950 . S
H233 C256 0.950 . S
H234 C257 0.950 . S
H235 C259 0.950 . S
H236 C260 0.950 . S
H237 C261 0.951 . S
H238 C263 0.951 . S
H239 C265 0.950 . S
H240 C266 0.950 . S
H241 C268 0.950 . S
H242 C271 0.950 . S
H243 C272 0.950 . S
H244 C274 0.950 . S
H245 C275 0.950 . S
C246 H228 0.951 . S
C246 C247 1.366 . S
C246 C248 1.388 . S
C247 C246 1.366 . S
C247 C251 1.385 . S
C248 H229 0.951 . S
C248 C246 1.388 . S
C248 C249 1.366 . S
C249 C248 1.366 . S
C249 C250 1.414 . S
C249 C252 1.499 . S
C250 H230 0.950 . S
C250 C249 1.414 . S
C250 C251 1.374 . S
C251 H231 0.950 . S
C251 C247 1.385 . S
C251 C250 1.374 . S
C252 C249 1.499 . S
C252 C253 1.373 . S
C252 C254 1.389 . S
C253 H232 0.950 . S
C253 C252 1.373 . S
C253 C269 1.377 . S
C254 C252 1.389 . S
C254 C255 1.524 . S
C254 C268 1.377 . S
C255 C254 1.524 . S
C255 C256 1.397 . S
C255 C260 1.363 . S
C256 H233 0.950 . S
C256 C255 1.397 . S
C256 C257 1.334 . S
C257 H234 0.950 . S
C257 C256 1.334 . S
C257 C258 1.287 1_455 S
C258 C257 1.287 1_655 S
C258 C259 1.524 . S
C258 H277 0.913 . S
C259 H235 0.950 . S
C259 C258 1.524 . S
C259 C260 1.415 1_655 S
C260 H236 0.950 . S
C260 C255 1.363 . S
C260 C259 1.415 1_455 S
C261 H237 0.951 . S
C261 C262 1.366 . S
C261 C263 1.388 . S
C262 C261 1.366 . S
C262 C266 1.385 . S
C263 H238 0.951 . S
C263 C261 1.388 . S
C263 C264 1.366 . S
C264 C263 1.366 . S
C264 C265 1.414 . S
C264 C267 1.499 . S
C265 H239 0.950 . S
C265 C264 1.414 . S
C265 C266 1.374 . S
C266 H240 0.950 . S
C266 C262 1.385 . S
C266 C265 1.374 . S
C267 C264 1.499 . S
C267 C268 1.373 . S
C267 C269 1.389 . S
C268 H241 0.950 . S
C268 C254 1.377 . S
C268 C267 1.373 . S
C269 C253 1.377 . S
C269 C267 1.389 . S
C269 C270 1.524 . S
C270 C269 1.524 . S
C270 C271 1.397 . S
C270 C275 1.363 . S
C271 H242 0.950 . S
C271 C270 1.397 . S
C271 C272 1.334 . S
C272 H243 0.950 . S
C272 C271 1.334 . S
C272 C273 1.287 . S
C273 C272 1.287 . S
C273 C274 1.524 . S
C273 H276 0.999 . S
C274 H244 0.950 . S
C274 C273 1.524 . S
C274 C275 1.415 . S
C275 H245 0.950 . S
C275 C270 1.363 . S
C275 C274 1.415 . S
H276 C273 0.999 . S
H277 C258 0.913 . S
H278 C296 0.951 1_455 S
H279 C298 0.951 . S
H280 C300 0.950 . S
H281 C301 0.950 . S
H282 C303 0.950 . S
H283 C306 0.950 . S
H284 C307 0.950 . S
H285 C309 0.950 . S
H286 C310 0.950 . S
H287 C311 0.951 . S
H288 C313 0.951 . S
H289 C315 0.950 . S
H290 C316 0.950 . S
H291 C318 0.950 . S
H292 C321 0.950 . S
H293 C322 0.950 . S
H294 C324 0.950 . S
H295 C325 0.950 . S
C296 H278 0.951 1_655 S
C296 C297 1.366 . S
C296 C298 1.388 . S
C297 C296 1.366 . S
C297 C301 1.385 . S
C298 H279 0.951 . S
C298 C296 1.388 . S
C298 C299 1.366 . S
C299 C298 1.366 . S
C299 C300 1.414 . S
C299 C302 1.499 . S
C300 H280 0.950 . S
C300 C299 1.414 . S
C300 C301 1.374 . S
C301 H281 0.950 . S
C301 C297 1.385 . S
C301 C300 1.374 . S
C302 C299 1.499 . S
C302 C303 1.373 . S
C302 C304 1.389 . S
C303 H282 0.950 . S
C303 C302 1.373 . S
C303 C319 1.377 . S
C304 C302 1.389 . S
C304 C305 1.524 . S
C304 C318 1.377 . S
C305 C304 1.524 . S
C305 C306 1.397 . S
C305 C310 1.363 . S
C306 H283 0.950 . S
C306 C305 1.397 . S
C306 C307 1.334 . S
C307 H284 0.950 . S
C307 C306 1.334 . S
C307 C308 1.287 . S
C308 C307 1.287 . S
C308 C309 1.524 . S
C308 H327 0.913 . S
C309 H285 0.950 . S
C309 C308 1.524 . S
C309 C310 1.415 . S
C310 H286 0.950 . S
C310 C305 1.363 . S
C310 C309 1.415 . S
C311 H287 0.951 . S
C311 C312 1.366 . S
C311 C313 1.388 . S
C312 C311 1.366 . S
C312 C316 1.385 . S
C313 H288 0.951 . S
C313 C311 1.388 . S
C313 C314 1.366 . S
C314 C313 1.366 . S
C314 C315 1.414 . S
C314 C317 1.499 . S
C315 H289 0.950 . S
C315 C314 1.414 . S
C315 C316 1.374 . S
C316 H290 0.950 . S
C316 C312 1.385 . S
C316 C315 1.374 . S
C317 C314 1.499 . S
C317 C318 1.373 . S
C317 C319 1.389 . S
C318 H291 0.950 . S
C318 C304 1.377 . S
C318 C317 1.373 . S
C319 C303 1.377 . S
C319 C317 1.389 . S
C319 C320 1.524 . S
C320 C319 1.524 . S
C320 C321 1.397 . S
C320 C325 1.363 . S
C321 H292 0.950 . S
C321 C320 1.397 . S
C321 C322 1.334 . S
C322 H293 0.950 . S
C322 C321 1.334 . S
C322 C323 1.287 . S
C323 C322 1.287 . S
C323 C324 1.524 . S
C323 H326 0.999 . S
C324 H294 0.950 . S
C324 C323 1.524 . S
C324 C325 1.415 . S
C325 H295 0.950 . S
C325 C320 1.363 . S
C325 C324 1.415 . S
H326 C323 0.999 . S
H327 C308 0.913 . S
H328 C346 0.951 . S
H329 C348 0.951 . S
H330 C350 0.950 . S
H331 C351 0.950 . S
H332 C353 0.950 . S
H333 C356 0.968 . S
H334 C357 0.950 1_545 S
H335 C359 0.950 . S
H336 C360 0.950 . S
H337 C361 0.951 . S
H338 C363 0.951 . S
H339 C365 0.950 . S
H340 C366 0.950 . S
H341 C368 0.950 . S
H342 C371 0.950 1_565 S
H343 C372 0.950 . S
H344 C374 0.950 . S
H345 C375 0.950 . S
C346 H328 0.951 . S
C346 C347 1.366 1_565 S
C346 C348 1.388 . S
C347 C346 1.366 1_545 S
C347 C351 1.385 . S
C348 H329 0.951 . S
C348 C346 1.388 . S
C348 C349 1.366 1_565 S
C349 C348 1.366 1_545 S
C349 C350 1.414 . S
C349 C352 1.499 . S
C350 H330 0.950 . S
C350 C349 1.414 . S
C350 C351 1.374 . S
C351 H331 0.950 . S
C351 C347 1.385 . S
C351 C350 1.374 . S
C352 C349 1.499 . S
C352 C353 1.373 1_554 S
C352 C354 1.389 1_545 S
C353 H332 0.950 . S
C353 C352 1.373 1_556 S
C353 C369 1.377 . S
C354 C352 1.389 1_565 S
C354 C355 1.524 . S
C354 C368 1.377 . S
C355 C354 1.524 . S
C355 C356 1.387 1_565 S
C355 C360 1.363 . S
C356 H333 0.968 . S
C356 C355 1.387 1_545 S
C356 C357 1.326 1_545 S
C357 H334 0.950 1_565 S
C357 C356 1.326 1_565 S
C357 C358 1.287 . S
C358 C357 1.287 . S
C358 C359 1.524 . S
C358 H377 0.913 . S
C359 H335 0.950 . S
C359 C358 1.524 . S
C359 C360 1.415 . S
C360 H336 0.950 . S
C360 C355 1.363 . S
C360 C359 1.415 . S
C361 H337 0.951 . S
C361 C362 1.366 1_545 S
C361 C363 1.388 . S
C362 C361 1.366 1_565 S
C362 C366 1.385 . S
C363 H338 0.951 . S
C363 C361 1.388 . S
C363 C364 1.366 . S
C364 C363 1.366 . S
C364 C365 1.414 1_545 S
C364 C367 1.499 . S
C365 H339 0.950 . S
C365 C364 1.414 1_565 S
C365 C366 1.374 . S
C366 H340 0.950 . S
C366 C362 1.385 . S
C366 C365 1.374 . S
C367 C364 1.499 . S
C367 C368 1.373 1_545 S
C367 C369 1.389 1_554 S
C368 H341 0.950 . S
C368 C354 1.377 . S
C368 C367 1.373 1_565 S
C369 C353 1.377 . S
C369 C367 1.389 1_556 S
C369 C370 1.524 . S
C370 C369 1.524 . S
C370 C371 1.397 . S
C370 C375 1.363 . S
C371 H342 0.950 1_545 S
C371 C370 1.397 . S
C371 C372 1.334 . S
C372 H343 0.950 . S
C372 C371 1.334 . S
C372 C373 1.287 . S
C373 C372 1.287 . S
C373 C374 1.524 . S
C373 H376 0.999 . S
C374 H344 0.950 . S
C374 C373 1.524 . S
C374 C375 1.415 . S
C375 H345 0.950 . S
C375 C370 1.363 . S
C375 C374 1.415 . S
H376 C373 0.999 . S
H377 C358 0.913 . S
H378 C396 0.951 . S
H379 C398 0.951 . S
H380 C400 0.950 . S
H381 C401 0.950 . S
H382 C403 0.950 . S
H383 C406 0.950 . S
H384 C407 0.950 . S
H385 C409 0.950 . S
H386 C410 0.950 . S
H387 C411 0.951 . S
H388 C413 0.951 . S
H389 C415 0.950 . S
H390 C416 0.950 . S
H391 C418 0.950 . S
H392 C421 0.950 . S
H393 C422 0.950 . S
H394 C424 0.950 . S
H395 C425 0.950 . S
C396 H378 0.951 . S
C396 C397 1.366 . S
C396 C398 1.388 . S
C397 C396 1.366 . S
C397 C401 1.385 . S
C398 H379 0.951 . S
C398 C396 1.388 . S
C398 C399 1.366 . S
C399 C398 1.366 . S
C399 C400 1.414 . S
C399 C402 1.499 . S
C400 H380 0.950 . S
C400 C399 1.414 . S
C400 C401 1.374 . S
C401 H381 0.950 . S
C401 C397 1.385 . S
C401 C400 1.374 . S
C402 C399 1.499 . S
C402 C403 1.373 . S
C402 C404 1.389 . S
C403 H382 0.950 . S
C403 C402 1.373 . S
C403 C419 1.377 . S
C404 C402 1.389 . S
C404 C405 1.524 . S
C404 C418 1.377 . S
C405 C404 1.524 . S
C405 C406 1.397 . S
C405 C410 1.363 . S
C406 H383 0.950 . S
C406 C405 1.397 . S
C406 C407 1.334 . S
C407 H384 0.950 . S
C407 C406 1.334 . S
C407 C408 1.287 . S
C408 C407 1.287 . S
C408 C409 1.524 . S
C408 H427 0.913 . S
C409 H385 0.950 . S
C409 C408 1.524 . S
C409 C410 1.415 . S
C410 H386 0.950 . S
C410 C405 1.363 . S
C410 C409 1.415 . S
C411 H387 0.951 . S
C411 C412 1.366 . S
C411 C413 1.388 . S
C412 C411 1.366 . S
C412 C416 1.385 . S
C413 H388 0.951 . S
C413 C411 1.388 . S
C413 C414 1.366 . S
C414 C413 1.366 . S
C414 C415 1.414 . S
C414 C417 1.499 . S
C415 H389 0.950 . S
C415 C414 1.414 . S
C415 C416 1.374 . S
C416 H390 0.950 . S
C416 C412 1.385 . S
C416 C415 1.374 . S
C417 C414 1.499 . S
C417 C418 1.373 . S
C417 C419 1.389 . S
C418 H391 0.950 . S
C418 C404 1.377 . S
C418 C417 1.373 . S
C419 C403 1.377 . S
C419 C417 1.389 . S
C419 C420 1.524 1_545 S
C420 C419 1.524 1_565 S
C420 C421 1.397 . S
C420 C425 1.363 . S
C421 H392 0.950 . S
C421 C420 1.397 . S
C421 C422 1.334 . S
C422 H393 0.950 . S
C422 C421 1.334 . S
C422 C423 1.287 . S
C423 C422 1.287 . S
C423 C424 1.524 . S
C423 H426 0.999 . S
C424 H394 0.950 . S
C424 C423 1.524 . S
C424 C425 1.415 . S
C425 H395 0.950 . S
C425 C420 1.363 . S
C425 C424 1.415 . S
H426 C423 0.999 . S
H427 C408 0.913 . S
H428 C446 0.951 . S
H429 C448 0.951 . S
H430 C450 0.950 . S
H431 C451 0.950 . S
H432 C453 0.950 . S
H433 C456 0.950 . S
H434 C457 0.950 . S
H435 C459 0.950 . S
H436 C460 0.950 . S
H437 C461 0.951 . S
H438 C463 0.951 . S
H439 C465 0.950 . S
H440 C466 0.950 . S
H441 C468 0.950 . S
H442 C471 0.950 . S
H443 C472 0.950 . S
H444 C474 0.950 . S
H445 C475 0.950 . S
C446 H428 0.951 . S
C446 C447 1.366 . S
C446 C448 1.388 . S
C447 C446 1.366 . S
C447 C451 1.385 . S
C448 H429 0.951 . S
C448 C446 1.388 . S
C448 C449 1.366 . S
C449 C448 1.366 . S
C449 C450 1.414 . S
C449 C452 1.499 . S
C450 H430 0.950 . S
C450 C449 1.414 . S
C450 C451 1.374 . S
C451 H431 0.950 . S
C451 C447 1.385 . S
C451 C450 1.374 . S
C452 C449 1.499 . S
C452 C453 1.373 1_554 S
C452 C454 1.389 . S
C453 H432 0.950 . S
C453 C452 1.373 1_556 S
C453 C469 1.377 1_655 S
C454 C452 1.389 . S
C454 C455 1.524 . S
C454 C468 1.377 1_655 S
C455 C454 1.524 . S
C455 C456 1.397 . S
C455 C460 1.363 . S
C456 H433 0.950 . S
C456 C455 1.397 . S
C456 C457 1.334 . S
C457 H434 0.950 . S
C457 C456 1.334 . S
C457 C458 1.287 . S
C458 C457 1.287 . S
C458 C459 1.524 . S
C458 H477 0.913 . S
C459 H435 0.950 . S
C459 C458 1.524 . S
C459 C460 1.415 . S
C460 H436 0.950 . S
C460 C455 1.363 . S
C460 C459 1.415 . S
C461 H437 0.951 . S
C461 C462 1.366 . S
C461 C463 1.388 . S
C462 C461 1.366 . S
C462 C466 1.385 . S
C463 H438 0.951 . S
C463 C461 1.388 . S
C463 C464 1.366 . S
C464 C463 1.366 . S
C464 C465 1.414 . S
C464 C467 1.499 . S
C465 H439 0.950 . S
C465 C464 1.414 . S
C465 C466 1.374 . S
C466 H440 0.950 . S
C466 C462 1.385 . S
C466 C465 1.374 . S
C467 C464 1.499 . S
C467 C468 1.373 . S
C467 C469 1.389 1_554 S
C468 H441 0.950 . S
C468 C454 1.377 1_455 S
C468 C467 1.373 . S
C469 C453 1.377 1_455 S
C469 C467 1.389 1_556 S
C469 C470 1.524 . S
C470 C469 1.524 . S
C470 C471 1.397 . S
C470 C475 1.363 . S
C471 H442 0.950 . S
C471 C470 1.397 . S
C471 C472 1.334 . S
C472 H443 0.950 . S
C472 C471 1.334 . S
C472 C473 1.287 . S
C473 C472 1.287 . S
C473 C474 1.524 . S
C473 H476 0.999 . S
C474 H444 0.950 . S
C474 C473 1.524 . S
C474 C475 1.415 . S
C475 H445 0.950 . S
C475 C470 1.363 . S
C475 C474 1.415 . S
H476 C473 0.999 . S
H477 C458 0.913 . S
H478 C496 0.951 . S
H479 C498 0.951 . S
H480 C500 0.950 . S
H481 C501 0.950 . S
H482 C503 0.950 . S
H483 C506 0.950 . S
H484 C507 0.950 . S
H485 C509 0.950 . S
H486 C510 0.950 . S
H487 C511 0.951 . S
H488 C513 0.951 . S
H489 C515 0.950 . S
H490 C516 0.950 . S
H491 C518 0.950 . S
H492 C521 0.950 . S
H493 C522 0.950 . S
H494 C524 0.950 . S
H495 C525 0.950 . S
C496 H478 0.951 . S
C496 C497 1.366 . S
C496 C498 1.388 . S
C497 C496 1.366 . S
C497 C501 1.385 . S
C498 H479 0.951 . S
C498 C496 1.388 . S
C498 C499 1.366 . S
C499 C498 1.366 . S
C499 C500 1.414 . S
C499 C502 1.499 . S
C500 H480 0.950 . S
C500 C499 1.414 . S
C500 C501 1.374 . S
C501 H481 0.950 . S
C501 C497 1.385 . S
C501 C500 1.374 . S
C502 C499 1.499 . S
C502 C503 1.373 . S
C502 C504 1.389 . S
C503 H482 0.950 . S
C503 C502 1.373 . S
C503 C519 1.377 1_455 S
C504 C502 1.389 . S
C504 C505 1.524 . S
C504 C518 1.377 1_455 S
C505 C504 1.524 . S
C505 C506 1.397 . S
C505 C510 1.363 . S
C506 H483 0.950 . S
C506 C505 1.397 . S
C506 C507 1.334 . S
C507 H484 0.950 . S
C507 C506 1.334 . S
C507 C508 1.287 . S
C508 C507 1.287 . S
C508 C509 1.524 . S
C508 H527 0.913 . S
C509 H485 0.950 . S
C509 C508 1.524 . S
C509 C510 1.415 . S
C510 H486 0.950 . S
C510 C505 1.363 . S
C510 C509 1.415 . S
C511 H487 0.951 . S
C511 C512 1.366 . S
C511 C513 1.388 . S
C512 C511 1.366 . S
C512 C516 1.385 . S
C513 H488 0.951 . S
C513 C511 1.388 . S
C513 C514 1.366 . S
C514 C513 1.366 . S
C514 C515 1.414 . S
C514 C517 1.499 . S
C515 H489 0.950 . S
C515 C514 1.414 . S
C515 C516 1.374 . S
C516 H490 0.950 . S
C516 C512 1.385 . S
C516 C515 1.374 . S
C517 C514 1.499 . S
C517 C518 1.373 . S
C517 C519 1.389 . S
C518 H491 0.950 . S
C518 C504 1.377 1_655 S
C518 C517 1.373 . S
C519 C503 1.377 1_655 S
C519 C517 1.389 . S
C519 C520 1.524 . S
C520 C519 1.524 . S
C520 C521 1.397 . S
C520 C525 1.363 . S
C521 H492 0.950 . S
C521 C520 1.397 . S
C521 C522 1.334 . S
C522 H493 0.950 . S
C522 C521 1.334 . S
C522 C523 1.287 . S
C523 C522 1.287 . S
C523 C524 1.524 . S
C523 H526 0.999 . S
C524 H494 0.950 . S
C524 C523 1.524 . S
C524 C525 1.415 . S
C525 H495 0.950 . S
C525 C520 1.363 . S
C525 C524 1.415 . S
H526 C523 0.999 . S
H527 C508 0.913 . S
H528 C546 0.951 . S
H529 C548 0.951 . S
H530 C550 0.950 1_565 S
H531 C551 0.947 1_565 S
H532 C553 0.950 . S
H533 C556 0.950 . S
H534 C557 0.950 . S
H535 C559 0.950 . S
H536 C560 0.950 . S
H537 C561 0.951 1_565 S
H538 C563 0.951 1_565 S
H539 C565 0.950 . S
H540 C566 0.950 . S
H541 C568 0.950 . S
H542 C571 0.950 . S
H543 C572 0.950 . S
H544 C574 0.950 . S
H545 C575 0.950 . S
C546 H528 0.951 . S
C546 C547 1.366 . S
C546 C548 1.388 . S
C547 C546 1.366 . S
C547 C551 1.385 1_455 S
C548 H529 0.951 . S
C548 C546 1.388 . S
C548 C549 1.366 . S
C549 C548 1.366 . S
C549 C550 1.414 1_455 S
C549 C552 1.499 . S
C550 H530 0.950 1_545 S
C550 C549 1.414 1_655 S
C550 C551 1.374 . S
C551 H531 0.947 1_545 S
C551 C547 1.385 1_655 S
C551 C550 1.374 . S
C552 C549 1.499 . S
C552 C553 1.373 1_545 S
C552 C554 1.389 . S
C553 H532 0.950 . S
C553 C552 1.373 1_565 S
C553 C569 1.377 . S
C554 C552 1.389 . S
C554 C555 1.524 . S
C554 C568 1.377 . S
C555 C554 1.524 . S
C555 C556 1.397 1_455 S
C555 C560 1.363 . S
C556 H533 0.950 . S
C556 C555 1.397 1_655 S
C556 C557 1.334 . S
C557 H534 0.950 . S
C557 C556 1.334 . S
C557 C558 1.287 1_655 S
C558 C557 1.287 1_455 S
C558 C559 1.524 . S
C558 H577 0.913 . S
C559 H535 0.950 . S
C559 C558 1.524 . S
C559 C560 1.415 . S
C560 H536 0.950 . S
C560 C555 1.363 . S
C560 C559 1.415 . S
C561 H537 0.951 1_545 S
C561 C562 1.366 1_655 S
C561 C563 1.388 . S
C562 C561 1.366 1_455 S
C562 C566 1.385 . S
C563 H538 0.951 1_545 S
C563 C561 1.388 . S
C563 C564 1.366 1_655 S
C564 C563 1.366 1_455 S
C564 C565 1.414 . S
C564 C567 1.499 . S
C565 H539 0.950 . S
C565 C564 1.414 . S
C565 C566 1.374 . S
C566 H540 0.950 . S
C566 C562 1.385 . S
C566 C565 1.374 . S
C567 C564 1.499 . S
C567 C568 1.373 . S
C567 C569 1.389 1_545 S
C568 H541 0.950 . S
C568 C554 1.377 . S
C568 C567 1.373 . S
C569 C553 1.377 . S
C569 C567 1.389 1_565 S
C569 C570 1.524 . S
C570 C569 1.524 . S
C570 C571 1.397 . S
C570 C575 1.363 1_455 S
C571 H542 0.950 . S
C571 C570 1.397 . S
C571 C572 1.334 . S
C572 H543 0.950 . S
C572 C571 1.334 . S
C572 C573 1.287 . S
C573 C572 1.287 . S
C573 C574 1.524 1_455 S
C573 H576 0.999 . S
C574 H544 0.950 . S
C574 C573 1.524 1_655 S
C574 C575 1.415 . S
C575 H545 0.950 . S
C575 C570 1.363 1_655 S
C575 C574 1.415 . S
H576 C573 0.999 . S
H577 C558 0.913 . S
H578 C596 0.951 . S
H579 C598 0.951 . S
H580 C600 0.950 . S
H581 C601 0.950 . S
H582 C603 0.950 . S
H583 C606 0.950 1_455 S
H584 C607 0.950 1_455 S
H585 C609 0.950 . S
H586 C610 0.950 . S
H587 C611 0.951 . S
H588 C613 0.951 . S
H589 C615 0.950 . S
H590 C616 0.950 . S
H591 C618 0.950 1_565 S
H592 C621 0.950 . S
H593 C622 0.950 1_655 S
H594 C624 0.950 . S
H595 C625 0.950 . S
C596 H578 0.951 . S
C596 C597 1.366 . S
C596 C598 1.388 . S
C597 C596 1.366 . S
C597 C601 1.385 1_655 S
C598 H579 0.951 . S
C598 C596 1.388 . S
C598 C599 1.366 . S
C599 C598 1.366 . S
C599 C600 1.414 1_655 S
C599 C602 1.499 . S
C600 H580 0.950 . S
C600 C599 1.414 1_455 S
C600 C601 1.374 . S
C601 H581 0.950 . S
C601 C597 1.385 1_455 S
C601 C600 1.374 . S
C602 C599 1.499 . S
C602 C603 1.373 1_655 S
C602 C604 1.389 1_545 S
C603 H582 0.950 . S
C603 C602 1.373 1_455 S
C603 C619 1.377 . S
C604 C602 1.389 1_565 S
C604 C605 1.524 . S
C604 C618 1.377 1_565 S
C605 C604 1.524 . S
C605 C606 1.397 . S
C605 C610 1.363 . S
C606 H583 0.950 1_655 S
C606 C605 1.397 . S
C606 C607 1.334 . S
C607 H584 0.950 1_655 S
C607 C606 1.334 . S
C607 C608 1.287 . S
C608 C607 1.287 . S
C608 C609 1.524 . S
C608 H627 0.913 . S
C609 H585 0.950 . S
C609 C608 1.524 . S
C609 C610 1.415 . S
C610 H586 0.950 . S
C610 C605 1.363 . S
C610 C609 1.415 . S
C611 H587 0.951 . S
C611 C612 1.366 1_455 S
C611 C613 1.388 . S
C612 C611 1.366 1_655 S
C612 C616 1.385 . S
C613 H588 0.951 . S
C613 C611 1.388 . S
C613 C614 1.366 1_455 S
C614 C613 1.366 1_655 S
C614 C615 1.414 . S
C614 C617 1.499 . S
C615 H589 0.950 . S
C615 C614 1.414 . S
C615 C616 1.374 . S
C616 H590 0.950 . S
C616 C612 1.385 . S
C616 C615 1.374 . S
C617 C614 1.499 . S
C617 C618 1.373 . S
C617 C619 1.389 1_655 S
C618 H591 0.950 1_545 S
C618 C604 1.377 1_545 S
C618 C617 1.373 . S
C619 C603 1.377 . S
C619 C617 1.389 1_455 S
C619 C620 1.524 . S
C620 C619 1.524 . S
C620 C621 1.397 1_455 S
C620 C625 1.363 . S
C621 H592 0.950 . S
C621 C620 1.397 1_655 S
C621 C622 1.334 1_655 S
C622 H593 0.950 1_455 S
C622 C621 1.334 1_455 S
C622 C623 1.287 . S
C623 C622 1.287 . S
C623 C624 1.524 . S
C623 H626 0.999 . S
C624 H594 0.950 . S
C624 C623 1.524 . S
C624 C625 1.415 . S
C625 H595 0.950 . S
C625 C620 1.363 . S
C625 C624 1.415 . S
H626 C623 0.999 . S
H627 C608 0.913 . S
H628 C646 0.951 . S
H629 C648 0.951 . S
H630 C650 0.950 . S
H631 C651 0.950 . S
H632 C653 0.950 . S
H633 C656 0.950 . S
H634 C657 0.950 . S
H635 C659 0.950 . S
H636 C660 0.950 . S
H637 C661 0.951 . S
H638 C663 0.951 . S
H639 C665 0.950 . S
H640 C666 0.950 . S
H641 C668 0.950 . S
H642 C671 0.950 . S
H643 C672 0.950 . S
H644 C674 0.950 . S
H645 C675 0.950 . S
C646 H628 0.951 . S
C646 C647 1.366 . S
C646 C648 1.388 . S
C647 C646 1.366 . S
C647 C651 1.385 . S
C648 H629 0.951 . S
C648 C646 1.388 . S
C648 C649 1.366 . S
C649 C648 1.366 . S
C649 C650 1.414 . S
C649 C652 1.499 . S
C650 H630 0.950 . S
C650 C649 1.414 . S
C650 C651 1.374 . S
C651 H631 0.950 . S
C651 C647 1.385 . S
C651 C650 1.374 . S
C652 C649 1.499 . S
C652 C653 1.373 . S
C652 C654 1.389 . S
C653 H632 0.950 . S
C653 C652 1.373 . S
C653 C669 1.377 . S
C654 C652 1.389 . S
C654 C655 1.524 . S
C654 C668 1.377 . S
C655 C654 1.524 . S
C655 C656 1.397 . S
C655 C660 1.363 . S
C656 H633 0.950 . S
C656 C655 1.397 . S
C656 C657 1.334 . S
C657 H634 0.950 . S
C657 C656 1.334 . S
C657 C658 1.287 . S
C658 C657 1.287 . S
C658 C659 1.524 . S
C658 H677 0.913 . S
C659 H635 0.950 . S
C659 C658 1.524 . S
C659 C660 1.415 . S
C660 H636 0.950 . S
C660 C655 1.363 . S
C660 C659 1.415 . S
C661 H637 0.951 . S
C661 C662 1.366 . S
C661 C663 1.388 . S
C662 C661 1.366 . S
C662 C666 1.385 . S
C663 H638 0.951 . S
C663 C661 1.388 . S
C663 C664 1.366 . S
C664 C663 1.366 . S
C664 C665 1.414 . S
C664 C667 1.499 . S
C665 H639 0.950 . S
C665 C664 1.414 . S
C665 C666 1.374 . S
C666 H640 0.950 . S
C666 C662 1.385 . S
C666 C665 1.374 . S
C667 C664 1.499 . S
C667 C668 1.373 . S
C667 C669 1.389 . S
C668 H641 0.950 . S
C668 C654 1.377 . S
C668 C667 1.373 . S
C669 C653 1.377 . S
C669 C667 1.389 . S
C669 C670 1.524 . S
C670 C669 1.524 . S
C670 C671 1.397 . S
C670 C675 1.363 . S
C671 H642 0.950 . S
C671 C670 1.397 . S
C671 C672 1.334 . S
C672 H643 0.950 . S
C672 C671 1.334 . S
C672 C673 1.287 . S
C673 C672 1.287 . S
C673 C674 1.524 . S
C673 H676 0.999 . S
C674 H644 0.950 . S
C674 C673 1.524 . S
C674 C675 1.415 . S
C675 H645 0.950 . S
C675 C670 1.363 . S
C675 C674 1.415 . S
H676 C673 0.999 . S
H677 C658 0.913 . S
H678 C696 0.951 . S
H679 C698 0.951 . S
H680 C700 0.950 . S
H681 C701 0.950 . S
H682 C703 0.950 . S
H683 C706 0.950 . S
H684 C707 0.950 . S
H685 C709 0.950 . S
H686 C710 0.950 . S
H687 C711 0.951 . S
H688 C713 0.951 . S
H689 C715 0.950 . S
H690 C716 0.950 . S
H691 C718 0.950 . S
H692 C721 0.950 . S
H693 C722 0.950 . S
H694 C724 0.950 . S
H695 C725 0.950 . S
C696 H678 0.951 . S
C696 C697 1.366 . S
C696 C698 1.388 . S
C697 C696 1.366 . S
C697 C701 1.385 . S
C698 H679 0.951 . S
C698 C696 1.388 . S
C698 C699 1.366 . S
C699 C698 1.366 . S
C699 C700 1.414 . S
C699 C702 1.499 . S
C700 H680 0.950 . S
C700 C699 1.414 . S
C700 C701 1.374 . S
C701 H681 0.950 . S
C701 C697 1.385 . S
C701 C700 1.374 . S
C702 C699 1.499 . S
C702 C703 1.373 . S
C702 C704 1.389 . S
C703 H682 0.950 . S
C703 C702 1.373 . S
C703 C719 1.377 . S
C704 C702 1.389 . S
C704 C705 1.524 . S
C704 C718 1.377 . S
C705 C704 1.524 . S
C705 C706 1.397 . S
C705 C710 1.363 . S
C706 H683 0.950 . S
C706 C705 1.397 . S
C706 C707 1.334 . S
C707 H684 0.950 . S
C707 C706 1.334 . S
C707 C708 1.287 . S
C708 C707 1.287 . S
C708 C709 1.524 . S
C708 H727 0.913 . S
C709 H685 0.950 . S
C709 C708 1.524 . S
C709 C710 1.415 . S
C710 H686 0.950 . S
C710 C705 1.363 . S
C710 C709 1.415 . S
C711 H687 0.951 . S
C711 C712 1.366 . S
C711 C713 1.388 . S
C712 C711 1.366 . S
C712 C716 1.385 . S
C713 H688 0.951 . S
C713 C711 1.388 . S
C713 C714 1.366 . S
C714 C713 1.366 . S
C714 C715 1.414 . S
C714 C717 1.499 . S
C715 H689 0.950 . S
C715 C714 1.414 . S
C715 C716 1.374 . S
C716 H690 0.950 . S
C716 C712 1.385 . S
C716 C715 1.374 . S
C717 C714 1.499 . S
C717 C718 1.373 . S
C717 C719 1.389 . S
C718 H691 0.950 . S
C718 C704 1.377 . S
C718 C717 1.373 . S
C719 C703 1.377 . S
C719 C717 1.389 . S
C719 C720 1.524 . S
C720 C719 1.524 . S
C720 C721 1.397 . S
C720 C725 1.363 . S
C721 H692 0.950 . S
C721 C720 1.397 . S
C721 C722 1.334 . S
C722 H693 0.950 . S
C722 C721 1.334 . S
C722 C723 1.287 . S
C723 C722 1.287 . S
C723 C724 1.524 . S
C723 H726 0.999 . S
C724 H694 0.950 . S
C724 C723 1.524 . S
C724 C725 1.415 . S
C725 H695 0.950 . S
C725 C720 1.363 . S
C725 C724 1.415 . S
H726 C723 0.999 . S
H727 C708 0.913 . S
C147 C70 1.554 . S
C162 C4 1.560 . S
C197 C68 1.560 . S
C212 C6 1.554 . S
C247 C61 1.560 . S
C262 C98 1.554 . S
C297 C34 1.554 . S
C312 C125 1.560 . S
C347 C2 0.709 . S
C362 C29 0.708 . S
C397 C38 0.709 . S
C412 C36 0.708 . S
C447 C66 0.709 . S
C462 C93 0.708 . S
C497 C100 0.708 . S
C512 C102 0.709 . S
C547 N45 1.475 . S
C562 N18 1.475 . S
C597 N13 1.455 1_655 S
C612 N50 1.455 1_655 S
C647 N109 1.475 . S
C662 N82 1.475 . S
C697 N114 1.455 . S
C712 N77 1.454 . S
