# Generated by pormake.
# Topology irl, (4)-cn, num edge types: 1
# Building blocks:
#     Node 0, Type 0, BuildingBlock: NAHDIM_clean_sbu_0, # of connection points: 4
#     Node 1, Type 0, BuildingBlock: NAHDIM_clean_sbu_0, # of connection points: 4
#     Node 2, Type 0, BuildingBlock: NAHDIM_clean_sbu_0, # of connection points: 4
#     Node 3, Type 0, BuildingBlock: NAHDIM_clean_sbu_0, # of connection points: 4
#     Node 4, Type 0, BuildingBlock: NAHDIM_clean_sbu_0, # of connection points: 4
#     Node 5, Type 0, BuildingBlock: NAHDIM_clean_sbu_0, # of connection points: 4
#     Node 6, Type 0, BuildingBlock: NAHDIM_clean_sbu_0, # of connection points: 4
#     Node 7, Type 0, BuildingBlock: NAHDIM_clean_sbu_0, # of connection points: 4
#     Edge 8, Type (0, 0), BuildingBlock: XUDNAN_clean_linker_2, # of connection points: 2
#     Edge 9, Type (0, 0), BuildingBlock: XUDNAN_clean_linker_2, # of connection points: 2
#     Edge 10, Type (0, 0), BuildingBlock: XUDNAN_clean_linker_2, # of connection points: 2
#     Edge 11, Type (0, 0), BuildingBlock: XUDNAN_clean_linker_2, # of connection points: 2
#     Edge 12, Type (0, 0), BuildingBlock: XUDNAN_clean_linker_2, # of connection points: 2
#     Edge 13, Type (0, 0), BuildingBlock: XUDNAN_clean_linker_2, # of connection points: 2
#     Edge 14, Type (0, 0), BuildingBlock: XUDNAN_clean_linker_2, # of connection points: 2
#     Edge 15, Type (0, 0), BuildingBlock: XUDNAN_clean_linker_2, # of connection points: 2
#     Edge 16, Type (0, 0), BuildingBlock: XUDNAN_clean_linker_2, # of connection points: 2
#     Edge 17, Type (0, 0), BuildingBlock: XUDNAN_clean_linker_2, # of connection points: 2
#     Edge 18, Type (0, 0), BuildingBlock: XUDNAN_clean_linker_2, # of connection points: 2
#     Edge 19, Type (0, 0), BuildingBlock: XUDNAN_clean_linker_2, # of connection points: 2
#     Edge 20, Type (0, 0), BuildingBlock: XUDNAN_clean_linker_2, # of connection points: 2
#     Edge 21, Type (0, 0), BuildingBlock: XUDNAN_clean_linker_2, # of connection points: 2
#     Edge 22, Type (0, 0), BuildingBlock: XUDNAN_clean_linker_2, # of connection points: 2
#     Edge 23, Type (0, 0), BuildingBlock: XUDNAN_clean_linker_2, # of connection points: 2
# Relax obj value: 0.190
# Max RMSD: 0.180
# Mean RMSD: 0.180
data_MOF--net-irl--node1-NAHDIM_clean_sbu_0--edge1-XUDNAN_clean_linker_2
_symmetry_space_group_name_H-M    P1
_symmetry_Int_Tables_number       1
_symmetry_cell_setting            triclinic
loop_
_symmetry_equiv_pos_as_xyz
'x, y, z'
_cell_length_a     40.183141
_cell_length_b     36.145501
_cell_length_c     26.342755
_cell_angle_alpha  89.76556
_cell_angle_beta   89.941139
_cell_angle_gamma 90.225295
loop_
_atom_site_label
_atom_site_type_symbol
_atom_site_fract_x
_atom_site_fract_y
_atom_site_fract_z
_atom_type_partial_charge
C0 C 0.11449 0.19642 0.98808 0.0
O1 O 0.09938 0.22382 0.9648 0.0
O2 O 0.03164 0.20592 0.06328 0.0
Zn3 Zn 0.04723 0.17584 0.00431 0.0
O4 O 0.03536 0.19978 0.93829 0.0
C5 C 0.99249 0.12807 0.01814 0.0
O6 O 0.97848 0.16068 0.02261 0.0
O7 O 0.09706 0.17078 0.0081 0.0
C8 C 0.0149 0.22609 0.93203 0.0
O9 O -0.00113 0.23953 0.97129 0.0
C10 C 0.04393 0.23575 0.08055 0.0
O11 O 0.06966 0.25108 0.05788 0.0
O12 O 0.02357 0.1265 0.00908 0.0
C13 C 0.84854 0.78039 0.08306 0.0
O14 O 0.86552 0.78792 0.12436 0.0
O15 O 0.9363 0.77963 0.09239 0.0
Zn16 Zn 0.9105 0.79972 0.03315 0.0
O17 O 0.92777 0.78164 0.96604 0.0
C18 C 0.89486 0.87879 0.04618 0.0
O19 O 0.86535 0.86743 0.06123 0.0
O20 O 0.86239 0.78453 0.03998 0.0
C21 C 0.95079 0.75824 0.95881 0.0
O22 O 0.96545 0.74272 -0.00204 0.0
C23 C 0.93497 0.74642 0.10834 0.0
O24 O 0.91696 0.72199 0.08366 0.0
O25 O 0.91649 0.85514 0.03302 0.0
C26 C 0.13652 0.79038 0.49345 0.0
O27 O 0.12879 0.8208 0.46873 0.0
O28 O 0.04271 0.77174 0.45908 0.0
Zn29 Zn 0.06625 0.78821 0.52211 0.0
O30 O 0.04701 0.76397 0.58424 0.0
C31 C 0.05391 0.86377 0.49071 0.0
O32 O 0.05188 0.84855 0.44561 0.0
O33 O 0.11411 0.77314 0.51809 0.0
C34 C 0.02069 0.77611 0.60492 0.0
O35 O 0.00474 0.80364 0.58331 0.0
C36 C 0.03925 0.7385 0.4445 0.0
O37 O 0.05077 0.71145 0.47283 0.0
O38 O 0.06112 0.84362 0.52882 0.0
C39 C 0.86763 0.21192 0.48791 0.0
O40 O 0.88422 0.24331 0.48586 0.0
O41 O 0.95004 0.20893 0.43173 0.0
Zn42 Zn 0.93319 0.18679 0.49664 0.0
O43 O 0.94354 0.21905 0.55606 0.0
C44 C 0.96186 0.11476 0.47367 0.0
O45 O 0.95521 0.12377 0.42639 0.0
O46 O 0.88369 0.18189 0.49219 0.0
C47 C 0.9727 0.21906 0.57445 0.0
O48 O -0.00405 0.19958 0.55196 0.0
C49 C 0.96521 0.23966 0.42689 0.0
O50 O 0.97159 0.25978 0.46715 0.0
O51 O 0.95424 0.13703 0.50899 0.0
C52 C 0.62043 0.68949 0.03459 0.0
O53 O 0.59631 0.68366 0.06738 0.0
O54 O 0.53717 0.72021 0.00637 0.0
Zn55 Zn 0.56672 0.6909 0.96036 0.0
O56 O 0.56738 0.71361 0.89092 0.0
C57 C 0.53623 0.62249 -0.00559 0.0
O58 O 0.53837 0.6385 0.03897 0.0
O59 O 0.61357 0.69178 0.98758 0.0
C60 C 0.54128 0.72706 0.87111 0.0
O61 O 0.51337 0.72658 0.89713 0.0
C62 C 0.54687 0.7489 0.02987 0.0
O63 O 0.57719 0.76155 0.02243 0.0
O64 O 0.54775 0.63915 0.95552 0.0
C65 C 0.35241 0.25512 0.01381 0.0
O66 O 0.37792 0.23435 0.02626 0.0
O67 O 0.42275 0.28969 0.07497 0.0
Zn68 Zn 0.40517 0.30536 0.0069 0.0
O69 O 0.42984 0.28044 0.95019 0.0
C70 C 0.42411 0.38169 0.02955 0.0
O71 O 0.43113 0.36829 0.07468 0.0
O72 O 0.35746 0.28901 0.00303 0.0
C73 C 0.45524 0.29628 0.93112 0.0
O74 O 0.46613 0.3272 0.95134 0.0
C75 C 0.45294 0.28157 0.08344 0.0
O76 O 0.4746 0.28317 0.04613 0.0
O77 O 0.4109 0.36062 -0.00341 0.0
C78 C 0.62876 0.2651 0.50216 0.0
O79 O 0.60264 0.24316 0.50337 0.0
O80 O 0.5499 0.29634 0.45504 0.0
Zn81 Zn 0.57806 0.3197 0.50882 0.0
O82 O 0.5597 0.30839 0.57798 0.0
C83 C 0.55068 0.39217 0.50436 0.0
O84 O 0.52516 0.37431 0.52398 0.0
O85 O 0.62454 0.2999 0.50415 0.0
C86 C 0.54297 0.27921 0.58714 0.0
O87 O 0.53693 0.25585 0.55018 0.0
C88 C 0.56216 0.29384 0.41076 0.0
O89 O 0.59278 0.30539 0.40281 0.0
O90 O 0.57741 0.37458 0.49567 0.0
C91 C 0.37442 0.73578 0.45491 0.0
O92 O 0.38962 0.76453 0.43467 0.0
O93 O 0.44676 0.7312 0.38242 0.0
Zn94 Zn 0.44031 0.70799 0.45128 0.0
O95 O 0.46271 0.7356 0.50791 0.0
C96 C 0.48341 0.64707 0.42494 0.0
O97 O 0.49692 0.67206 0.3949 0.0
O98 O 0.39128 0.70715 0.4658 0.0
C99 C 0.49407 0.73578 0.51403 0.0
O100 O 0.51311 0.72022 0.47973 0.0
C101 C 0.46711 0.75654 0.36957 0.0
O102 O 0.48747 0.77062 0.40338 0.0
O103 O 0.45824 0.65581 0.45159 0.0
H104 H 0.95443 0.9109 0.01963 0.0
H105 H 0.85425 0.93711 0.06963 0.0
H106 H 0.86837 0.00368 0.0674 0.0
H107 H -0.00368 0.98104 0.09154 0.0
H108 H 0.0266 0.9909 0.04274 0.0
H109 H 0.00849 0.94537 0.0477 0.0
H110 H 0.98933 0.9494 0.95394 0.0
H111 H 0.00738 0.99495 0.94867 0.0
H112 H 0.96408 0.98783 0.93367 0.0
H113 H 0.89332 0.06726 0.05947 0.0
H114 H 0.92742 0.12347 0.04762 0.0
H115 H 0.01163 0.05575 0.00362 0.0
C116 C 0.93539 0.93059 0.03007 0.0
C117 C 0.90317 0.91875 0.04476 0.0
C118 C 0.87907 0.94548 0.05822 0.0
C119 C 0.88685 0.98335 0.05705 0.0
C120 C 0.91884 0.99402 0.04241 0.0
C121 C 0.94273 0.96844 0.02922 0.0
C122 C 0.9753 0.98716 0.01516 0.0
C123 C 0.00332 0.97542 0.05146 0.0
C124 C 0.98455 0.97937 0.95955 0.0
C125 C 0.96602 0.02733 0.02264 0.0
C126 C 0.93331 0.03066 0.0382 0.0
C127 C 0.91897 0.06499 0.04732 0.0
C128 C 0.93857 0.09677 0.0404 0.0
C129 C 0.97223 0.09406 0.02469 0.0
C130 C 0.98603 0.05877 0.01575 0.0
H131 H 0.03225 0.91272 0.4182 0.0
H132 H 0.05432 0.90359 0.57911 0.0
H133 H 0.03504 0.9677 0.59164 0.0
H134 H 0.05658 0.00979 0.40345 0.0
H135 H 0.02344 0.01948 0.35936 0.0
H136 H 0.04102 0.97376 0.36263 0.0
H137 H 0.98231 0.94624 0.37894 0.0
H138 H 0.96458 0.99185 0.37604 0.0
H139 H 0.95787 0.96319 0.4313 0.0
H140 H 0.01036 0.03141 0.58749 0.0
H141 H 0.98339 0.09077 0.5667 0.0
H142 H 0.97746 0.05826 0.40842 0.0
C143 C 0.03349 0.92431 0.45599 0.0
C144 C 0.0449 0.90312 0.49767 0.0
C145 C 0.04578 0.9193 0.54656 0.0
C146 C 0.03487 0.95569 0.55407 0.0
C147 C 0.02326 0.97557 0.5123 0.0
C148 C 0.02268 0.96055 0.46417 0.0
C149 C 0.00795 0.98732 0.426 0.0
C150 C 0.0338 0.99823 0.38547 0.0
C151 C 0.9763 0.97118 0.40166 0.0
C152 C -9e-05 0.01958 0.46031 0.0
C153 C 0.00904 0.01229 0.50991 0.0
C154 C 0.00331 0.03753 0.54873 0.0
C155 C 0.98788 0.07114 0.53653 0.0
C156 C 0.97831 0.07923 0.48591 0.0
C157 C 0.98458 0.05303 0.44742 0.0
H158 H 0.51795 0.5743 0.07025 0.0
H159 H 0.51445 0.58975 0.90682 0.0
H160 H 0.48276 0.53138 0.89854 0.0
H161 H 0.52981 0.4758 0.06713 0.0
H162 H 0.50471 0.4672 0.12271 0.0
H163 H 0.52634 0.51063 0.11561 0.0
H164 H 0.47063 0.54559 0.12672 0.0
H165 H 0.44878 0.50223 0.1334 0.0
H166 H 0.43616 0.53499 0.08544 0.0
H167 H 0.45084 0.47168 0.90822 0.0
H168 H 0.42527 0.41236 0.93423 0.0
H169 H 0.45095 0.43512 0.09116 0.0
C170 C 0.51051 0.56544 0.0327 0.0
C171 C 0.51858 0.58667 0.98918 0.0
C172 C 0.50863 0.57392 0.94069 0.0
C173 C 0.49047 0.5409 0.93562 0.0
C174 C 0.48266 0.52083 0.97935 0.0
C175 C 0.49267 0.5324 0.0269 0.0
C176 C 0.48208 0.50507 0.06764 0.0
C177 C 0.51255 0.48871 0.09486 0.0
C178 C 0.45797 0.52306 0.10553 0.0
C179 C 0.46456 0.4763 0.03557 0.0
C180 C 0.46489 0.48607 0.98481 0.0
C181 C 0.45043 0.46373 0.94786 0.0
C182 C 0.43583 0.43014 0.96308 0.0
C183 C 0.43603 0.41906 0.01477 0.0
C184 C 0.45028 0.4428 0.05139 0.0
H185 H 0.49915 0.43917 0.52553 0.0
H186 H 0.5947 0.43403 0.4488 0.0
H187 H 0.58768 0.49857 0.41966 0.0
H188 H 0.45711 0.49296 0.43212 0.0
H189 H 0.43386 0.51977 0.47741 0.0
H190 H 0.44666 0.47345 0.49321 0.0
H191 H 0.4765 0.49773 0.57371 0.0
H192 H 0.4636 0.54411 0.55836 0.0
H193 H 0.50708 0.53413 0.56772 0.0
H194 H 0.56923 0.56284 0.39619 0.0
H195 H 0.54233 0.62353 0.38437 0.0
H196 H 0.45936 0.58702 0.478 0.0
C197 C 0.5187 0.45164 0.50282 0.0
C198 C 0.54746 0.43151 0.48937 0.0
C199 C 0.57249 0.44892 0.45969 0.0
C200 C 0.56869 0.48553 0.44284 0.0
C201 C 0.53984 0.50441 0.45627 0.0
C202 C 0.51542 0.48819 0.48597 0.0
C203 C 0.48687 0.51456 0.49525 0.0
C204 C 0.4542 0.49926 0.47317 0.0
C205 C 0.48332 0.52314 0.55214 0.0
C206 C 0.49893 0.54808 0.46579 0.0
C207 C 0.52947 0.54161 0.44344 0.0
C208 C 0.54539 0.56829 0.41372 0.0
C209 C 0.52984 0.60265 0.4071 0.0
C210 C 0.49875 0.61009 0.4303 0.0
C211 C 0.48315 0.58227 0.45986 0.0
H212 H 0.99026 0.21081 0.13357 0.0
H213 H 0.0703 0.29167 0.13893 0.0
H214 H 0.05388 0.30793 0.22661 0.0
H215 H 0.9299 0.26166 0.21514 0.0
H216 H 0.91578 0.21916 0.24418 0.0
H217 H 0.93 0.2193 0.17925 0.0
H218 H 0.97258 0.16801 0.20131 0.0
H219 H 0.95883 0.16793 0.26619 0.0
H220 H 0.00215 0.17569 0.25166 0.0
H221 H 0.0333 0.30878 0.3177 0.0
H222 H 0.01076 0.29401 0.40298 0.0
H223 H 0.94564 0.21151 0.33617 0.0
C224 C 0.00388 0.23266 0.15256 0.0
C225 C 0.03155 0.25 0.12946 0.0
C226 C 0.04887 0.27817 0.15585 0.0
C227 C 0.03969 0.28761 0.20561 0.0
C228 C 0.01299 0.26886 0.22797 0.0
C229 C 0.99517 0.2422 0.20195 0.0
C230 C 0.96987 0.2232 0.23561 0.0
C231 C 0.93428 0.23134 0.21746 0.0
C232 C 0.97627 0.18125 0.23888 0.0
C233 C 0.97715 0.24213 0.28532 0.0
C234 C 0.00159 0.26891 0.28019 0.0
C235 C 0.01377 0.2883 0.32197 0.0
C236 C 0.00089 0.27969 0.37022 0.0
C237 C 0.97654 0.25157 0.3761 0.0
C238 C 0.96422 0.23318 0.33289 0.0
H239 H 0.02044 0.78917 0.37322 0.0
H240 H 0.02289 0.67101 0.40315 0.0
H241 H -0.00279 0.65946 0.31922 0.0
H242 H 0.94216 0.79093 0.30928 0.0
H243 H 0.95511 0.82594 0.26443 0.0
H244 H 0.97351 0.82436 0.32667 0.0
H245 H 0.03221 0.82046 0.28617 0.0
H246 H 0.014 0.82189 0.22376 0.0
H247 H 0.04104 0.78427 0.24127 0.0
H248 H 0.96993 0.66154 0.23186 0.0
H249 H 0.94439 0.67702 0.14894 0.0
H250 H 0.96207 0.79364 0.17752 0.0
C251 C 0.01555 0.7608 0.36236 0.0
C252 C 0.02357 0.73097 0.39483 0.0
C253 C 0.01691 0.69429 0.37888 0.0
C254 C 0.00236 0.68748 0.33131 0.0
C255 C 0.99485 0.71763 0.30021 0.0
C256 C 0.00133 0.75354 0.31517 0.0
C257 C 0.99115 0.78122 0.27503 0.0
C258 C 0.96386 0.80712 0.29506 0.0
C259 C 0.02141 0.80324 0.2554 0.0
C260 C 0.97779 0.75534 0.23501 0.0
C261 C 0.97997 0.71877 0.25009 0.0
C262 C 0.96827 0.69009 0.21959 0.0
C263 C 0.95381 0.69913 0.17261 0.0
C264 C 0.95143 0.73649 0.15663 0.0
C265 C 0.96382 0.76477 0.1883 0.0
H266 H 0.96988 0.8015 0.66458 0.0
H267 H 0.04955 0.72076 0.66085 0.0
H268 H 0.03703 0.70327 0.7495 0.0
H269 H 0.98521 0.83347 0.78601 0.0
H270 H 0.94219 0.83971 0.80332 0.0
H271 H 0.95448 0.84254 0.73776 0.0
H272 H 0.91171 0.79142 0.71478 0.0
H273 H 0.89909 0.78859 0.78037 0.0
H274 H 0.91286 0.74765 0.74778 0.0
H275 H 0.01984 0.69943 0.84131 0.0
H276 H -0.00172 0.70859 0.92827 0.0
H277 H 0.92978 0.79148 0.87113 0.0
C278 C 0.98423 0.77955 0.68196 0.0
C279 C 0.01064 0.76246 0.65571 0.0
C280 C 0.02911 0.73419 0.68013 0.0
C281 C 0.02217 0.72401 0.73048 0.0
C282 C -0.00348 0.74212 0.75571 0.0
C283 C 0.97764 0.76906 0.73211 0.0
C284 C 0.95296 0.78605 0.76854 0.0
C285 C 0.9591 0.82791 0.77424 0.0
C286 C 0.91702 0.77793 0.75187 0.0
C287 C 0.96161 0.76528 0.81668 0.0
C288 C 0.98656 0.73981 0.80849 0.0
C289 C -5e-05 0.7189 0.84805 0.0
C290 C 0.98761 0.72437 0.89732 0.0
C291 C 0.96226 0.75063 0.90652 0.0
C292 C 0.94893 0.77092 0.86538 0.0
H293 H 0.05015 0.21083 0.84652 0.0
H294 H 0.9634 0.27021 0.90014 0.0
H295 H 0.94816 0.28477 0.81137 0.0
H296 H 0.06725 0.27082 0.73212 0.0
H297 H 0.0795 0.2312 0.69531 0.0
H298 H 0.08693 0.23198 0.76279 0.0
H299 H 0.05457 0.17016 0.77275 0.0
H300 H 0.047 0.16924 0.70564 0.0
H301 H 0.0125 0.16695 0.74935 0.0
H302 H 0.93728 0.28299 0.71775 0.0
H303 H 0.93177 0.26534 0.62771 0.0
H304 H 0.02635 0.20813 0.63582 0.0
C305 C 0.02839 0.22773 0.83973 0.0
C306 C 0.00789 0.23935 0.88012 0.0
C307 C 0.97953 0.26118 0.8697 0.0
C308 C 0.97077 0.26968 0.81943 0.0
C309 C 0.99098 0.25668 0.78032 0.0
C310 C 0.01945 0.23653 0.79003 0.0
C311 C 0.03497 0.22219 0.74169 0.0
C312 C 0.06919 0.24013 0.73244 0.0
C313 C 0.03736 0.17964 0.74243 0.0
C314 C 0.00975 0.23555 0.70337 0.0
C315 C 0.98489 0.25603 0.72617 0.0
C316 C 0.957 0.26779 0.69927 0.0
C317 C 0.95403 0.25751 0.6482 0.0
C318 C 0.97873 0.2355 0.62478 0.0
C319 C 0.00738 0.22554 0.65239 0.0
H320 H 0.56884 0.78089 0.11717 0.0
H321 H 0.47947 0.74533 0.03904 0.0
H322 H 0.44664 0.75611 0.1167 0.0
H323 H 0.55414 0.73356 0.22383 0.0
H324 H 0.57048 0.76676 0.26829 0.0
H325 H 0.58545 0.76649 0.20408 0.0
H326 H 0.56942 0.83543 0.19342 0.0
H327 H 0.55465 0.8361 0.25809 0.0
H328 H 0.52748 0.84992 0.20707 0.0
H329 H 0.42618 0.75755 0.2047 0.0
H330 H 0.41924 0.75007 0.29714 0.0
H331 H 0.52171 0.78419 0.32 0.0
C332 C 0.54211 0.77712 0.11583 0.0
C333 C 0.52651 0.76281 0.07211 0.0
C334 C 0.49174 0.75664 0.07216 0.0
C335 C 0.4729 0.76285 0.11601 0.0
C336 C 0.48924 0.77528 0.15939 0.0
C337 C 0.52305 0.7827 0.1596 0.0
C338 C 0.53547 0.79006 0.21293 0.0
C339 C 0.56298 0.76257 0.22814 0.0
C340 C 0.54745 0.83028 0.21818 0.0
C341 C 0.50382 0.78344 0.24292 0.0
C342 C 0.4773 0.7758 0.21116 0.0
C343 C 0.44647 0.76447 0.22996 0.0
C344 C 0.44283 0.76007 0.28248 0.0
C345 C 0.46988 0.76687 0.31556 0.0
C346 C 0.50042 0.77973 0.29558 0.0
H347 H 0.58065 0.28744 0.31135 0.0
H348 H 0.49622 0.27423 0.41288 0.0
H349 H 0.4599 0.26179 0.33937 0.0
H350 H 0.54018 0.33655 0.21896 0.0
H351 H 0.56107 0.31584 0.16563 0.0
H352 H 0.5814 0.31774 0.2263 0.0
H353 H 0.58938 0.24661 0.22512 0.0
H354 H 0.5692 0.24448 0.16411 0.0
H355 H 0.55379 0.21683 0.21623 0.0
H356 H 0.43165 0.25969 0.25501 0.0
H357 H 0.41373 0.26645 0.16591 0.0
H358 H 0.51675 0.28013 0.11948 0.0
C359 C 0.55469 0.28105 0.31829 0.0
C360 C 0.54126 0.28179 0.36781 0.0
C361 C 0.50708 0.27369 0.37524 0.0
C362 C 0.48626 0.26649 0.33375 0.0
C363 C 0.50013 0.26706 0.28525 0.0
C364 C 0.53363 0.27373 0.27737 0.0
C365 C 0.54184 0.27587 0.22136 0.0
C366 C 0.55699 0.31375 0.20727 0.0
C367 C 0.56492 0.24405 0.20579 0.0
C368 C 0.50747 0.27105 0.19897 0.0
C369 C 0.48382 0.26549 0.23642 0.0
C370 C 0.45 0.2633 0.22528 0.0
C371 C 0.44006 0.26735 0.1746 0.0
C372 C 0.46389 0.27364 0.13579 0.0
C373 C 0.49802 0.27477 0.14819 0.0
H374 H 0.50258 0.3304 0.87301 0.0
H375 H 0.43976 0.23252 0.87992 0.0
H376 H 0.45918 0.21444 0.79454 0.0
H377 H 0.48615 0.35238 0.7479 0.0
H378 H 0.5275 0.36858 0.73285 0.0
H379 H 0.51243 0.37107 0.79704 0.0
H380 H 0.56305 0.33314 0.82846 0.0
H381 H 0.57852 0.33082 0.76432 0.0
H382 H 0.57179 0.28888 0.8002 0.0
H383 H 0.48115 0.21058 0.70511 0.0
H384 H 0.50452 0.22076 0.61935 0.0
H385 H 0.55201 0.32176 0.67162 0.0
C386 C 0.49347 0.30469 0.85718 0.0
C387 C 0.46976 0.28279 0.88317 0.0
C388 C 0.45805 0.24966 0.86072 0.0
C389 C 0.46897 0.23914 0.8123 0.0
C390 C 0.49166 0.26198 0.78709 0.0
C391 C 0.50394 0.29393 0.80895 0.0
C392 C 0.5261 0.31518 0.7726 0.0
C393 C 0.51219 0.35409 0.76198 0.0
C394 C 0.562 0.3171 0.79259 0.0
C395 C 0.52363 0.29075 0.72635 0.0
C396 C 0.50399 0.25997 0.73554 0.0
C397 C 0.49691 0.23434 0.69765 0.0
C398 C 0.5102 0.24042 0.64904 0.0
C399 C 0.5301 0.27204 0.6388 0.0
C400 C 0.53703 0.29723 0.67824 0.0
H401 H 0.48794 0.74516 0.81164 0.0
H402 H 0.59556 0.73557 0.80921 0.0
H403 H 0.59561 0.74808 0.71713 0.0
H404 H 0.47368 0.6969 0.70375 0.0
H405 H 0.43935 0.72432 0.68105 0.0
H406 H 0.44817 0.72228 0.7478 0.0
H407 H 0.45283 0.7938 0.75055 0.0
H408 H 0.44394 0.79606 0.68353 0.0
H409 H 0.48117 0.81735 0.70816 0.0
H410 H 0.58347 0.75096 0.62451 0.0
H411 H 0.55993 0.74337 0.53867 0.0
H412 H 0.46031 0.75187 0.60122 0.0
C413 C 0.5116 0.74684 0.79205 0.0
C414 C 0.54173 0.7395 0.81761 0.0
C415 C 0.57214 0.74118 0.79042 0.0
C416 C 0.57245 0.74849 0.73814 0.0
C417 C 0.5422 0.75442 0.71372 0.0
C418 C 0.51233 0.75399 0.73986 0.0
C419 C 0.48305 0.75679 0.70398 0.0
C420 C 0.45972 0.72307 0.70947 0.0
C421 C 0.46414 0.79318 0.71204 0.0
C422 C 0.50103 0.75683 0.65349 0.0
C423 C 0.53516 0.75622 0.6599 0.0
C424 C 0.55683 0.7523 0.61892 0.0
C425 C 0.54322 0.74789 0.57031 0.0
C426 C 0.50831 0.74722 0.56323 0.0
C427 C 0.48711 0.75295 0.60524 0.0
H428 H 0.295 0.28796 0.98009 0.0
H429 H 0.33326 0.18595 0.04477 0.0
H430 H 0.27674 0.15906 0.04345 0.0
H431 H 0.21807 0.28864 0.04808 0.0
H432 H 0.19431 0.30661 -0.00446 0.0
H433 H 0.2379 0.31757 0.00095 0.0
H434 H 0.24813 0.29167 0.91065 0.0
H435 H 0.20455 0.28056 0.90502 0.0
H436 H 0.23535 0.24504 0.89612 0.0
H437 H 0.21566 0.14391 0.03742 0.0
H438 H 0.15462 0.14152 0.02579 0.0
H439 H 0.15697 0.25287 0.96333 0.0
C440 C 0.29153 0.25996 -0.00606 0.0
C441 C 0.31854 0.23909 0.0126 0.0
C442 C 0.31294 0.20248 0.03023 0.0
C443 C 0.28093 0.18693 0.02965 0.0
C444 C 0.25485 0.20826 0.01104 0.0
C445 C 0.2598 0.24393 -0.00665 0.0
C446 C 0.22755 0.26102 0.97549 0.0
C447 C 0.21896 0.29549 0.0069 0.0
C448 C 0.22899 0.27009 0.91843 0.0
C449 C 0.20365 0.22952 0.98633 0.0
C450 C 0.21983 0.19933 0.00684 0.0
C451 C 0.20272 0.1673 0.02111 0.0
C452 C 0.16809 0.16621 0.0144 0.0
C453 C 0.15107 0.19692 -0.00653 0.0
C454 C 0.16925 0.2288 0.97904 0.0
H455 H 0.67484 0.70749 0.97665 0.0
H456 H 0.64274 0.69253 0.13288 0.0
H457 H 0.69811 0.71299 0.16254 0.0
H458 H 0.76052 0.67716 -0.00535 0.0
H459 H 0.7769 0.71106 0.95081 0.0
H460 H 0.73545 0.693 0.94223 0.0
H461 H 0.71213 0.75976 0.94296 0.0
H462 H 0.75343 0.778 0.95201 0.0
H463 H 0.72084 0.78936 -0.00373 0.0
H464 H 0.75612 0.73842 0.17503 0.0
H465 H 0.81295 0.76445 0.16933 0.0
H466 H 0.80649 0.76283 0.0048 0.0
C467 C 0.67953 0.70799 0.01711 0.0
C468 C 0.65445 0.69829 0.05244 0.0
C469 C 0.66159 0.69966 0.10507 0.0
C470 C 0.69295 0.71132 0.1223 0.0
C471 C 0.71687 0.72138 0.08642 0.0
C472 C 0.71059 0.71957 0.03492 0.0
C473 C 0.74015 0.73293 0.00418 0.0
C474 C 0.75408 0.70167 0.97102 0.0
C475 C 0.73108 0.76704 0.97197 0.0
C476 C 0.76396 0.74293 0.04642 0.0
C477 C 0.75014 0.73603 0.09358 0.0
C478 C 0.76727 0.74373 0.13829 0.0
C479 C 0.7995 0.75863 0.13465 0.0
C480 C 0.8142 0.76567 0.08663 0.0
C481 C 0.79603 0.75772 0.04209 0.0
H482 H 0.19197 0.82217 0.44999 0.0
H483 H 0.15874 0.72555 0.53486 0.0
H484 H 0.2158 0.70085 0.53347 0.0
H485 H 0.25041 0.77468 0.36966 0.0
H486 H 0.28052 0.81177 0.37042 0.0
H487 H 0.23691 0.82181 0.37759 0.0
H488 H 0.24915 0.85564 0.46215 0.0
H489 H 0.2928 0.84571 0.45523 0.0
H490 H 0.27103 0.83163 0.51201 0.0
H491 H 0.2763 0.6864 0.52277 0.0
H492 H 0.33658 0.68396 0.50487 0.0
H493 H 0.33053 0.79028 0.42806 0.0
C494 C 0.19666 0.7958 0.46821 0.0
C495 C 0.17085 0.77581 0.49249 0.0
C496 C 0.17809 0.74143 0.51604 0.0
C497 C 0.21042 0.7271 0.51542 0.0
C498 C 0.23527 0.7475 0.49121 0.0
C499 C 0.22883 0.78112 0.46812 0.0
C500 C 0.26013 0.79765 0.4452 0.0
C501 C 0.25678 0.8017 0.38728 0.0
C502 C 0.26878 0.83486 0.47016 0.0
C503 C 0.28513 0.76808 0.45915 0.0
C504 C 0.27026 0.73933 0.48549 0.0
C505 C 0.28827 0.70877 0.5022 0.0
C506 C 0.32247 0.70762 0.49181 0.0
C507 C 0.33828 0.73694 0.46516 0.0
C508 C 0.31922 0.76748 0.44866 0.0
H509 H 0.68774 0.303 0.49482 0.0
H510 H 0.64625 0.19195 0.5009 0.0
H511 H 0.70288 0.16598 0.49545 0.0
H512 H 0.7536 0.28303 0.4056 0.0
H513 H 0.78302 0.31348 0.43599 0.0
H514 H 0.73915 0.32322 0.43927 0.0
H515 H 0.74235 0.32443 0.53755 0.0
H516 H 0.78621 0.31474 0.53457 0.0
H517 H 0.75901 0.28505 0.57103 0.0
H518 H 0.76423 0.15223 0.49157 0.0
H519 H 0.82572 0.15183 0.48959 0.0
H520 H 0.82647 0.27196 0.48538 0.0
C521 C 0.6905 0.27321 0.49486 0.0
C522 C 0.66258 0.2495 0.49831 0.0
C523 C 0.66729 0.21067 0.49826 0.0
C524 C 0.69934 0.19564 0.49513 0.0
C525 C 0.72634 0.21983 0.4919 0.0
C526 C 0.72223 0.25777 0.49166 0.0
C527 C 0.75532 0.27775 0.48856 0.0
C528 C 0.75791 0.30072 0.43943 0.0
C529 C 0.76105 0.3019 0.53574 0.0
C530 C 0.77872 0.24511 0.48763 0.0
C531 C 0.76156 0.21193 0.48943 0.0
C532 C 0.77795 0.17803 0.48994 0.0
C533 C 0.81285 0.1781 0.48883 0.0
C534 C 0.83089 0.21185 0.48727 0.0
C535 C 0.81344 0.24568 0.48636 0.0
loop_
_geom_bond_atom_site_label_1
_geom_bond_atom_site_label_2
_geom_bond_distance
_geom_bond_site_symmetry_2
_ccdc_geom_bond_type
C0 O1 1.160 . S
C0 O7 1.185 1_554 S
O1 C0 1.160 . S
O2 Zn3 1.899 . S
O2 C10 1.284 . S
Zn3 O2 1.899 . S
Zn3 O4 2.032 1_554 S
Zn3 O7 2.086 1_554 S
Zn3 O12 1.977 1_554 S
O4 Zn3 2.032 1_556 S
O4 C8 1.278 . S
C5 O6 1.203 . S
C5 O12 1.267 1_554 S
O6 C5 1.203 . S
O7 C0 1.185 1_556 S
O7 Zn3 2.086 1_556 S
C8 O4 1.278 . S
C8 O9 1.211 . S
O9 C8 1.211 . S
C10 O2 1.284 . S
C10 O11 1.273 . S
O11 C10 1.273 . S
O12 Zn3 1.977 1_556 S
O12 C5 1.267 1_556 S
C13 O14 1.160 . S
C13 O20 1.185 1_554 S
O14 C13 1.160 . S
O15 Zn16 1.899 . S
O15 C23 1.284 . S
Zn16 O15 1.899 . S
Zn16 O17 2.032 1_554 S
Zn16 O20 2.086 1_554 S
Zn16 O25 1.977 1_554 S
O17 Zn16 2.032 1_556 S
O17 C21 1.278 . S
C18 O19 1.203 . S
C18 O25 1.267 1_554 S
O19 C18 1.203 . S
O20 C13 1.185 1_556 S
O20 Zn16 2.086 1_556 S
C21 O17 1.278 . S
C21 O22 1.211 . S
O22 C21 1.211 . S
C23 O15 1.284 . S
C23 O24 1.273 . S
O24 C23 1.273 . S
O25 Zn16 1.977 1_556 S
O25 C18 1.267 1_556 S
C26 O27 1.160 . S
C26 O33 1.185 . S
O27 C26 1.160 . S
O28 Zn29 1.899 . S
O28 C36 1.284 . S
Zn29 O28 1.899 . S
Zn29 O30 2.032 . S
Zn29 O33 2.086 . S
Zn29 O38 1.977 . S
O30 Zn29 2.032 . S
O30 C34 1.278 . S
C31 O32 1.203 . S
C31 O38 1.267 . S
O32 C31 1.203 . S
O33 C26 1.185 . S
O33 Zn29 2.086 . S
C34 O30 1.278 . S
C34 O35 1.211 . S
O35 C34 1.211 . S
C36 O28 1.284 . S
C36 O37 1.273 . S
O37 C36 1.273 . S
O38 Zn29 1.977 . S
O38 C31 1.267 . S
C39 O40 1.160 . S
C39 O46 1.185 . S
O40 C39 1.160 . S
O41 Zn42 1.899 . S
O41 C49 1.284 . S
Zn42 O41 1.899 . S
Zn42 O43 2.032 . S
Zn42 O46 2.086 . S
Zn42 O51 1.977 . S
O43 Zn42 2.032 . S
O43 C47 1.278 . S
C44 O45 1.203 . S
C44 O51 1.267 . S
O45 C44 1.203 . S
O46 C39 1.185 . S
O46 Zn42 2.086 . S
C47 O43 1.278 . S
C47 O48 1.211 . S
O48 C47 1.211 . S
C49 O41 1.284 . S
C49 O50 1.273 . S
O50 C49 1.273 . S
O51 Zn42 1.977 . S
O51 C44 1.267 . S
C52 O53 1.160 . S
C52 O59 1.185 1_554 S
O53 C52 1.160 . S
O54 Zn55 1.899 . S
O54 C62 1.284 . S
Zn55 O54 1.899 . S
Zn55 O56 2.032 1_554 S
Zn55 O59 2.086 1_554 S
Zn55 O64 1.977 1_554 S
O56 Zn55 2.032 1_556 S
O56 C60 1.278 . S
C57 O58 1.203 . S
C57 O64 1.267 1_554 S
O58 C57 1.203 . S
O59 C52 1.185 1_556 S
O59 Zn55 2.086 1_556 S
C60 O56 1.278 . S
C60 O61 1.211 . S
O61 C60 1.211 . S
C62 O54 1.284 . S
C62 O63 1.273 . S
O63 C62 1.273 . S
O64 Zn55 1.977 1_556 S
O64 C57 1.267 1_556 S
C65 O66 1.160 . S
C65 O72 1.185 1_554 S
O66 C65 1.160 . S
O67 Zn68 1.899 . S
O67 C75 1.284 . S
Zn68 O67 1.899 . S
Zn68 O69 2.032 1_554 S
Zn68 O72 2.086 1_554 S
Zn68 O77 1.977 1_554 S
O69 Zn68 2.032 1_556 S
O69 C73 1.278 . S
C70 O71 1.203 . S
C70 O77 1.267 1_554 S
O71 C70 1.203 . S
O72 C65 1.185 1_556 S
O72 Zn68 2.086 1_556 S
C73 O69 1.278 . S
C73 O74 1.211 . S
O74 C73 1.211 . S
C75 O67 1.284 . S
C75 O76 1.273 . S
O76 C75 1.273 . S
O77 Zn68 1.977 1_556 S
O77 C70 1.267 1_556 S
C78 O79 1.160 . S
C78 O85 1.185 . S
O79 C78 1.160 . S
O80 Zn81 1.899 . S
O80 C88 1.284 . S
Zn81 O80 1.899 . S
Zn81 O82 2.032 . S
Zn81 O85 2.086 . S
Zn81 O90 1.977 . S
O82 Zn81 2.032 . S
O82 C86 1.278 . S
C83 O84 1.203 . S
C83 O90 1.267 . S
O84 C83 1.203 . S
O85 C78 1.185 . S
O85 Zn81 2.086 . S
C86 O82 1.278 . S
C86 O87 1.211 . S
O87 C86 1.211 . S
C88 O80 1.284 . S
C88 O89 1.273 . S
O89 C88 1.273 . S
O90 Zn81 1.977 . S
O90 C83 1.267 . S
C91 O92 1.160 . S
C91 O98 1.185 . S
O92 C91 1.160 . S
O93 Zn94 1.899 . S
O93 C101 1.284 . S
Zn94 O93 1.899 . S
Zn94 O95 2.032 . S
Zn94 O98 2.086 . S
Zn94 O103 1.977 . S
O95 Zn94 2.032 . S
O95 C99 1.278 . S
C96 O97 1.203 . S
C96 O103 1.267 . S
O97 C96 1.203 . S
O98 C91 1.185 . S
O98 Zn94 2.086 . S
C99 O95 1.278 . S
C99 O100 1.211 . S
O100 C99 1.211 . S
C101 O93 1.284 . S
C101 O102 1.273 . S
O102 C101 1.273 . S
O103 Zn94 1.977 . S
O103 C96 1.267 . S
H104 C116 0.930 . S
H105 C118 0.930 . S
H106 C119 0.930 . S
H107 C123 0.959 . S
H108 C123 0.959 1_545 S
H109 C123 0.961 . S
H110 C124 0.960 1_565 S
H111 C124 0.961 . S
H112 C124 0.959 . S
H113 C127 0.929 . S
H114 C128 0.931 . S
H115 C130 0.930 . S
C116 H104 0.930 . S
C116 C117 1.399 1_556 S
C116 C121 1.399 . S
C117 C116 1.399 1_554 S
C117 C118 1.376 . S
C118 H105 0.930 . S
C118 C117 1.376 . S
C118 C119 1.388 . S
C119 H106 0.930 . S
C119 C118 1.388 . S
C119 C120 1.390 . S
C120 C119 1.390 . S
C120 C121 1.394 1_554 S
C120 C126 1.465 1_565 S
C121 C116 1.399 . S
C121 C120 1.394 1_556 S
C121 C122 1.516 1_655 S
C122 C121 1.516 1_455 S
C122 C123 1.502 . S
C122 C124 1.561 1_465 S
C122 C125 1.526 1_565 S
C123 H107 0.959 . S
C123 H108 0.959 1_565 S
C123 H109 0.961 . S
C123 C122 1.502 . S
C124 H110 0.960 1_545 S
C124 H111 0.961 . S
C124 H112 0.959 . S
C124 C122 1.561 1_645 S
C125 C122 1.526 1_545 S
C125 C126 1.396 1_456 S
C125 C130 1.390 . S
C126 C120 1.465 1_545 S
C126 C125 1.396 1_654 S
C126 C127 1.399 . S
C127 H113 0.929 . S
C127 C126 1.399 . S
C127 C128 1.385 1_655 S
C128 H114 0.931 . S
C128 C127 1.385 1_455 S
C128 C129 1.389 . S
C129 C128 1.389 . S
C129 C130 1.387 1_554 S
C130 H115 0.930 . S
C130 C125 1.390 . S
C130 C129 1.387 1_556 S
H131 C143 0.930 . S
H132 C145 0.930 . S
H133 C146 0.930 . S
H134 C150 0.959 . S
H135 C150 0.959 . S
H136 C150 0.980 . S
H137 C151 0.960 1_455 S
H138 C151 0.961 1_545 S
H139 C151 0.959 . S
H140 C154 0.929 . S
H141 C155 0.931 . S
H142 C157 0.930 . S
C143 H131 0.930 . S
C143 C144 1.399 . S
C143 C148 1.399 . S
C144 C143 1.399 . S
C144 C145 1.376 . S
C145 H132 0.930 . S
C145 C144 1.376 . S
C145 C146 1.388 1_455 S
C146 H133 0.930 . S
C146 C145 1.388 1_655 S
C146 C147 1.390 . S
C147 C146 1.390 . S
C147 C148 1.394 1_655 S
C147 C153 1.465 1_565 S
C148 C143 1.399 . S
C148 C147 1.394 1_455 S
C148 C149 1.516 1_565 S
C149 C148 1.516 1_545 S
C149 C150 1.502 . S
C149 C151 1.561 1_445 S
C149 C152 1.526 1_455 S
C150 H134 0.959 . S
C150 H135 0.959 . S
C150 H136 0.980 . S
C150 C149 1.502 . S
C151 H137 0.960 1_655 S
C151 H138 0.961 1_565 S
C151 H139 0.959 . S
C151 C149 1.561 1_665 S
C152 C149 1.526 1_655 S
C152 C153 1.396 . S
C152 C157 1.390 . S
C153 C147 1.465 1_545 S
C153 C152 1.396 . S
C153 C154 1.399 . S
C154 H140 0.929 . S
C154 C153 1.399 . S
C154 C155 1.385 . S
C155 H141 0.931 . S
C155 C154 1.385 . S
C155 C156 1.389 . S
C156 C155 1.389 . S
C156 C157 1.387 . S
C157 H142 0.930 . S
C157 C152 1.390 . S
C157 C156 1.387 . S
H158 C170 0.930 . S
H159 C172 0.930 . S
H160 C173 0.930 . S
H161 C177 0.959 . S
H162 C177 0.959 . S
H163 C177 0.961 . S
H164 C178 0.960 . S
H165 C178 0.961 . S
H166 C178 0.959 . S
H167 C181 0.929 . S
H168 C182 0.931 . S
H169 C184 0.930 . S
C170 H158 0.930 . S
C170 C171 1.399 . S
C170 C175 1.399 . S
C171 C170 1.399 . S
C171 C172 1.376 1_554 S
C172 H159 0.930 . S
C172 C171 1.376 1_556 S
C172 C173 1.388 . S
C173 H160 0.930 . S
C173 C172 1.388 . S
C173 C174 1.390 . S
C174 C173 1.390 . S
C174 C175 1.394 1_556 S
C174 C180 1.465 . S
C175 C170 1.399 . S
C175 C174 1.394 1_554 S
C175 C176 1.516 . S
C176 C175 1.516 . S
C176 C177 1.502 . S
C176 C178 1.561 . S
C176 C179 1.526 . S
C177 H161 0.959 . S
C177 H162 0.959 . S
C177 H163 0.961 . S
C177 C176 1.502 . S
C178 H164 0.960 . S
C178 H165 0.961 . S
C178 H166 0.959 . S
C178 C176 1.561 . S
C179 C176 1.526 . S
C179 C180 1.396 1_554 S
C179 C184 1.390 . S
C180 C174 1.465 . S
C180 C179 1.396 1_556 S
C180 C181 1.399 . S
C181 H167 0.929 . S
C181 C180 1.399 . S
C181 C182 1.385 . S
C182 H168 0.931 . S
C182 C181 1.385 . S
C182 C183 1.389 1_556 S
C183 C182 1.389 1_554 S
C183 C184 1.387 . S
C184 H169 0.930 . S
C184 C179 1.390 . S
C184 C183 1.387 . S
H185 C197 0.930 . S
H186 C199 0.930 . S
H187 C200 0.930 . S
H188 C204 0.959 . S
H189 C204 0.959 . S
H190 C204 0.961 . S
H191 C205 0.960 . S
H192 C205 0.961 . S
H193 C205 0.959 . S
H194 C208 0.929 . S
H195 C209 0.931 . S
H196 C211 0.930 . S
C197 H185 0.930 . S
C197 C198 1.399 . S
C197 C202 1.399 . S
C198 C197 1.399 . S
C198 C199 1.376 . S
C199 H186 0.930 . S
C199 C198 1.376 . S
C199 C200 1.388 . S
C200 H187 0.930 . S
C200 C199 1.388 . S
C200 C201 1.390 . S
C201 C200 1.390 . S
C201 C202 1.394 . S
C201 C207 1.465 . S
C202 C197 1.399 . S
C202 C201 1.394 . S
C202 C203 1.516 . S
C203 C202 1.516 . S
C203 C204 1.502 . S
C203 C205 1.561 . S
C203 C206 1.526 . S
C204 H188 0.959 . S
C204 H189 0.959 . S
C204 H190 0.961 . S
C204 C203 1.502 . S
C205 H191 0.960 . S
C205 H192 0.961 . S
C205 H193 0.959 . S
C205 C203 1.561 . S
C206 C203 1.526 . S
C206 C207 1.396 . S
C206 C211 1.390 . S
C207 C201 1.465 . S
C207 C206 1.396 . S
C207 C208 1.399 . S
C208 H194 0.929 . S
C208 C207 1.399 . S
C208 C209 1.385 . S
C209 H195 0.931 . S
C209 C208 1.385 . S
C209 C210 1.389 . S
C210 C209 1.389 . S
C210 C211 1.387 . S
C211 H196 0.930 . S
C211 C206 1.390 . S
C211 C210 1.387 . S
H212 C224 0.927 1_655 S
H213 C226 0.930 . S
H214 C227 0.930 . S
H215 C231 0.959 . S
H216 C231 0.959 . S
H217 C231 0.961 . S
H218 C232 0.960 . S
H219 C232 0.961 1_655 S
H220 C232 0.959 . S
H221 C235 0.929 . S
H222 C236 0.931 . S
H223 C238 0.930 . S
C224 H212 0.927 1_455 S
C224 C225 1.402 . S
C224 C229 1.398 1_455 S
C225 C224 1.402 . S
C225 C226 1.376 . S
C226 H213 0.930 . S
C226 C225 1.376 . S
C226 C227 1.388 . S
C227 H214 0.930 . S
C227 C226 1.388 . S
C227 C228 1.390 . S
C228 C227 1.390 . S
C228 C229 1.381 1_455 S
C228 C234 1.465 . S
C229 C224 1.398 1_655 S
C229 C228 1.381 1_655 S
C229 C230 1.528 . S
C230 C229 1.528 . S
C230 C231 1.502 . S
C230 C232 1.561 1_655 S
C230 C233 1.526 . S
C231 H215 0.959 . S
C231 H216 0.959 . S
C231 H217 0.961 . S
C231 C230 1.502 . S
C232 H218 0.960 . S
C232 H219 0.961 1_455 S
C232 H220 0.959 . S
C232 C230 1.561 1_455 S
C233 C230 1.526 . S
C233 C234 1.396 1_655 S
C233 C238 1.390 . S
C234 C228 1.465 . S
C234 C233 1.396 1_455 S
C234 C235 1.399 . S
C235 H221 0.929 . S
C235 C234 1.399 . S
C235 C236 1.385 . S
C236 H222 0.931 . S
C236 C235 1.385 . S
C236 C237 1.389 1_455 S
C237 C236 1.389 1_655 S
C237 C238 1.387 . S
C238 H223 0.930 . S
C238 C233 1.390 . S
C238 C237 1.387 . S
H239 C251 0.930 . S
H240 C253 0.930 . S
H241 C254 0.930 . S
H242 C258 0.959 . S
H243 C258 0.959 . S
H244 C258 0.961 . S
H245 C259 0.960 . S
H246 C259 0.961 . S
H247 C259 0.959 . S
H248 C262 0.929 . S
H249 C263 0.931 . S
H250 C265 0.930 . S
C251 H239 0.930 . S
C251 C252 1.399 . S
C251 C256 1.399 . S
C252 C251 1.399 . S
C252 C253 1.376 . S
C253 H240 0.930 . S
C253 C252 1.376 . S
C253 C254 1.388 . S
C254 H241 0.930 . S
C254 C253 1.388 . S
C254 C255 1.390 . S
C255 C254 1.390 . S
C255 C256 1.394 . S
C255 C261 1.465 . S
C256 C251 1.399 . S
C256 C255 1.394 . S
C256 C257 1.516 1_455 S
C257 C256 1.516 1_655 S
C257 C258 1.502 . S
C257 C259 1.561 1_655 S
C257 C260 1.526 . S
C258 H242 0.959 . S
C258 H243 0.959 . S
C258 H244 0.961 . S
C258 C257 1.502 . S
C259 H245 0.960 . S
C259 H246 0.961 . S
C259 H247 0.959 . S
C259 C257 1.561 1_455 S
C260 C257 1.526 . S
C260 C261 1.396 1_655 S
C260 C265 1.390 . S
C261 C255 1.465 . S
C261 C260 1.396 1_455 S
C261 C262 1.399 . S
C262 H248 0.929 . S
C262 C261 1.399 . S
C262 C263 1.385 1_455 S
C263 H249 0.931 . S
C263 C262 1.385 1_655 S
C263 C264 1.389 . S
C264 C263 1.389 . S
C264 C265 1.387 . S
C265 H250 0.930 . S
C265 C260 1.390 . S
C265 C264 1.387 . S
H266 C278 0.930 . S
H267 C280 0.930 . S
H268 C281 0.930 . S
H269 C285 0.959 . S
H270 C285 0.959 . S
H271 C285 0.961 . S
H272 C286 0.960 . S
H273 C286 0.961 . S
H274 C286 0.959 . S
H275 C289 0.929 . S
H276 C290 0.931 . S
H277 C292 0.930 . S
C278 H266 0.930 . S
C278 C279 1.399 . S
C278 C283 1.399 . S
C279 C278 1.399 . S
C279 C280 1.376 . S
C280 H267 0.930 . S
C280 C279 1.376 . S
C280 C281 1.388 . S
C281 H268 0.930 . S
C281 C280 1.388 . S
C281 C282 1.390 . S
C282 C281 1.390 . S
C282 C283 1.394 . S
C282 C288 1.465 . S
C283 C278 1.399 . S
C283 C282 1.394 . S
C283 C284 1.516 1_455 S
C284 C283 1.516 1_655 S
C284 C285 1.502 . S
C284 C286 1.561 1_655 S
C284 C287 1.526 . S
C285 H269 0.959 . S
C285 H270 0.959 . S
C285 H271 0.961 . S
C285 C284 1.502 . S
C286 H272 0.960 . S
C286 H273 0.961 . S
C286 H274 0.959 . S
C286 C284 1.561 1_455 S
C287 C284 1.526 . S
C287 C288 1.396 1_655 S
C287 C292 1.390 . S
C288 C282 1.465 . S
C288 C287 1.396 1_455 S
C288 C289 1.399 . S
C289 H275 0.929 . S
C289 C288 1.399 . S
C289 C290 1.385 1_455 S
C290 H276 0.931 . S
C290 C289 1.385 1_655 S
C290 C291 1.389 . S
C291 C290 1.389 . S
C291 C292 1.387 . S
C292 H277 0.930 . S
C292 C287 1.390 . S
C292 C291 1.387 . S
H293 C305 0.930 . S
H294 C307 0.930 . S
H295 C308 0.930 . S
H296 C312 0.959 . S
H297 C312 0.959 . S
H298 C312 0.961 . S
H299 C313 0.960 . S
H300 C313 0.961 . S
H301 C313 0.959 . S
H302 C316 0.929 . S
H303 C317 0.931 . S
H304 C319 0.930 1_455 S
C305 H293 0.930 . S
C305 C306 1.399 . S
C305 C310 1.399 . S
C306 C305 1.399 . S
C306 C307 1.376 1_455 S
C307 H294 0.930 . S
C307 C306 1.376 1_655 S
C307 C308 1.388 . S
C308 H295 0.930 . S
C308 C307 1.388 . S
C308 C309 1.390 . S
C309 C308 1.390 . S
C309 C310 1.394 1_655 S
C309 C315 1.465 . S
C310 C305 1.399 . S
C310 C309 1.394 1_455 S
C310 C311 1.516 . S
C311 C310 1.516 . S
C311 C312 1.502 . S
C311 C313 1.561 1_455 S
C311 C314 1.526 1_455 S
C312 H296 0.959 . S
C312 H297 0.959 . S
C312 H298 0.961 . S
C312 C311 1.502 . S
C313 H299 0.960 . S
C313 H300 0.961 . S
C313 H301 0.959 . S
C313 C311 1.561 1_655 S
C314 C311 1.526 1_655 S
C314 C315 1.396 . S
C314 C319 1.390 . S
C315 C309 1.465 . S
C315 C314 1.396 . S
C315 C316 1.399 . S
C316 H302 0.929 . S
C316 C315 1.399 . S
C316 C317 1.385 . S
C317 H303 0.931 . S
C317 C316 1.385 . S
C317 C318 1.389 . S
C318 C317 1.389 . S
C318 C319 1.387 . S
C319 H304 0.930 1_655 S
C319 C314 1.390 . S
C319 C318 1.387 . S
H320 C332 0.930 . S
H321 C334 0.930 . S
H322 C335 0.930 . S
H323 C339 0.959 . S
H324 C339 0.959 . S
H325 C339 0.961 . S
H326 C340 0.960 . S
H327 C340 0.961 . S
H328 C340 0.959 . S
H329 C343 0.929 . S
H330 C344 0.931 . S
H331 C346 0.930 . S
C332 H320 0.930 . S
C332 C333 1.399 . S
C332 C337 1.399 . S
C333 C332 1.399 . S
C333 C334 1.376 . S
C334 H321 0.930 . S
C334 C333 1.376 . S
C334 C335 1.388 . S
C335 H322 0.930 . S
C335 C334 1.388 . S
C335 C336 1.390 . S
C336 C335 1.390 . S
C336 C337 1.394 . S
C336 C342 1.465 . S
C337 C332 1.399 . S
C337 C336 1.394 . S
C337 C338 1.516 . S
C338 C337 1.516 . S
C338 C339 1.502 . S
C338 C340 1.561 . S
C338 C341 1.526 . S
C339 H323 0.959 . S
C339 H324 0.959 . S
C339 H325 0.961 . S
C339 C338 1.502 . S
C340 H326 0.960 . S
C340 H327 0.961 . S
C340 H328 0.959 . S
C340 C338 1.561 . S
C341 C338 1.526 . S
C341 C342 1.396 . S
C341 C346 1.390 . S
C342 C336 1.465 . S
C342 C341 1.396 . S
C342 C343 1.399 . S
C343 H329 0.929 . S
C343 C342 1.399 . S
C343 C344 1.385 . S
C344 H330 0.931 . S
C344 C343 1.385 . S
C344 C345 1.389 . S
C345 C344 1.389 . S
C345 C346 1.387 . S
C346 H331 0.930 . S
C346 C341 1.390 . S
C346 C345 1.387 . S
H347 C359 0.930 . S
H348 C361 0.930 . S
H349 C362 0.930 . S
H350 C366 0.959 . S
H351 C366 0.959 . S
H352 C366 0.961 . S
H353 C367 0.960 . S
H354 C367 0.961 . S
H355 C367 0.959 . S
H356 C370 0.929 . S
H357 C371 0.931 . S
H358 C373 0.930 . S
C359 H347 0.930 . S
C359 C360 1.399 . S
C359 C364 1.399 . S
C360 C359 1.399 . S
C360 C361 1.376 . S
C361 H348 0.930 . S
C361 C360 1.376 . S
C361 C362 1.388 . S
C362 H349 0.930 . S
C362 C361 1.388 . S
C362 C363 1.390 . S
C363 C362 1.390 . S
C363 C364 1.394 . S
C363 C369 1.465 . S
C364 C359 1.399 . S
C364 C363 1.394 . S
C364 C365 1.516 . S
C365 C364 1.516 . S
C365 C366 1.502 . S
C365 C367 1.561 . S
C365 C368 1.526 . S
C366 H350 0.959 . S
C366 H351 0.959 . S
C366 H352 0.961 . S
C366 C365 1.502 . S
C367 H353 0.960 . S
C367 H354 0.961 . S
C367 H355 0.959 . S
C367 C365 1.561 . S
C368 C365 1.526 . S
C368 C369 1.396 . S
C368 C373 1.390 . S
C369 C363 1.465 . S
C369 C368 1.396 . S
C369 C370 1.399 . S
C370 H356 0.929 . S
C370 C369 1.399 . S
C370 C371 1.385 . S
C371 H357 0.931 . S
C371 C370 1.385 . S
C371 C372 1.389 . S
C372 C371 1.389 . S
C372 C373 1.387 . S
C373 H358 0.930 . S
C373 C368 1.390 . S
C373 C372 1.387 . S
H374 C386 0.930 . S
H375 C388 0.930 . S
H376 C389 0.930 . S
H377 C393 0.959 . S
H378 C393 0.959 . S
H379 C393 0.961 . S
H380 C394 0.960 . S
H381 C394 0.961 . S
H382 C394 0.959 . S
H383 C397 0.929 . S
H384 C398 0.931 . S
H385 C400 0.930 . S
C386 H374 0.930 . S
C386 C387 1.399 . S
C386 C391 1.399 . S
C387 C386 1.399 . S
C387 C388 1.376 . S
C388 H375 0.930 . S
C388 C387 1.376 . S
C388 C389 1.388 . S
C389 H376 0.930 . S
C389 C388 1.388 . S
C389 C390 1.390 . S
C390 C389 1.390 . S
C390 C391 1.394 . S
C390 C396 1.465 . S
C391 C386 1.399 . S
C391 C390 1.394 . S
C391 C392 1.516 . S
C392 C391 1.516 . S
C392 C393 1.502 . S
C392 C394 1.561 . S
C392 C395 1.526 . S
C393 H377 0.959 . S
C393 H378 0.959 . S
C393 H379 0.961 . S
C393 C392 1.502 . S
C394 H380 0.960 . S
C394 H381 0.961 . S
C394 H382 0.959 . S
C394 C392 1.561 . S
C395 C392 1.526 . S
C395 C396 1.396 . S
C395 C400 1.390 . S
C396 C390 1.465 . S
C396 C395 1.396 . S
C396 C397 1.399 . S
C397 H383 0.929 . S
C397 C396 1.399 . S
C397 C398 1.385 . S
C398 H384 0.931 . S
C398 C397 1.385 . S
C398 C399 1.389 . S
C399 C398 1.389 . S
C399 C400 1.387 . S
C400 H385 0.930 . S
C400 C395 1.390 . S
C400 C399 1.387 . S
H401 C413 0.930 . S
H402 C415 0.930 . S
H403 C416 0.930 . S
H404 C420 0.959 . S
H405 C420 0.959 . S
H406 C420 0.961 . S
H407 C421 0.960 . S
H408 C421 0.961 . S
H409 C421 0.959 . S
H410 C424 0.929 . S
H411 C425 0.931 . S
H412 C427 0.930 . S
C413 H401 0.930 . S
C413 C414 1.399 . S
C413 C418 1.399 . S
C414 C413 1.399 . S
C414 C415 1.376 . S
C415 H402 0.930 . S
C415 C414 1.376 . S
C415 C416 1.388 . S
C416 H403 0.930 . S
C416 C415 1.388 . S
C416 C417 1.390 . S
C417 C416 1.390 . S
C417 C418 1.394 . S
C417 C423 1.465 . S
C418 C413 1.399 . S
C418 C417 1.394 . S
C418 C419 1.516 . S
C419 C418 1.516 . S
C419 C420 1.502 . S
C419 C421 1.561 . S
C419 C422 1.526 . S
C420 H404 0.959 . S
C420 H405 0.959 . S
C420 H406 0.961 . S
C420 C419 1.502 . S
C421 H407 0.960 . S
C421 H408 0.961 . S
C421 H409 0.959 . S
C421 C419 1.561 . S
C422 C419 1.526 . S
C422 C423 1.396 . S
C422 C427 1.390 . S
C423 C417 1.465 . S
C423 C422 1.396 . S
C423 C424 1.399 . S
C424 H410 0.929 . S
C424 C423 1.399 . S
C424 C425 1.385 . S
C425 H411 0.931 . S
C425 C424 1.385 . S
C425 C426 1.389 . S
C426 C425 1.389 . S
C426 C427 1.387 . S
C427 H412 0.930 . S
C427 C422 1.390 . S
C427 C426 1.387 . S
H428 C440 0.930 . S
H429 C442 0.930 . S
H430 C443 0.930 . S
H431 C447 0.959 . S
H432 C447 0.959 . S
H433 C447 0.961 . S
H434 C448 0.960 . S
H435 C448 0.961 . S
H436 C448 0.959 . S
H437 C451 0.929 . S
H438 C452 0.931 . S
H439 C454 0.930 . S
C440 H428 0.930 . S
C440 C441 1.399 1_556 S
C440 C445 1.399 . S
C441 C440 1.399 1_554 S
C441 C442 1.376 . S
C442 H429 0.930 . S
C442 C441 1.376 . S
C442 C443 1.388 . S
C443 H430 0.930 . S
C443 C442 1.388 . S
C443 C444 1.390 . S
C444 C443 1.390 . S
C444 C445 1.394 1_554 S
C444 C450 1.465 . S
C445 C440 1.399 . S
C445 C444 1.394 1_556 S
C445 C446 1.516 . S
C446 C445 1.516 . S
C446 C447 1.502 . S
C446 C448 1.561 . S
C446 C449 1.526 . S
C447 H431 0.959 . S
C447 H432 0.959 . S
C447 H433 0.961 . S
C447 C446 1.502 . S
C448 H434 0.960 . S
C448 H435 0.961 . S
C448 H436 0.959 . S
C448 C446 1.561 . S
C449 C446 1.526 . S
C449 C450 1.396 1_556 S
C449 C454 1.390 . S
C450 C444 1.465 . S
C450 C449 1.396 1_554 S
C450 C451 1.399 . S
C451 H437 0.929 . S
C451 C450 1.399 . S
C451 C452 1.385 . S
C452 H438 0.931 . S
C452 C451 1.385 . S
C452 C453 1.389 . S
C453 C452 1.389 . S
C453 C454 1.387 1_554 S
C454 H439 0.930 . S
C454 C449 1.390 . S
C454 C453 1.387 1_556 S
H455 C467 0.930 . S
H456 C469 0.930 . S
H457 C470 0.930 . S
H458 C474 0.959 . S
H459 C474 0.959 . S
H460 C474 0.961 . S
H461 C475 0.960 . S
H462 C475 0.961 . S
H463 C475 0.959 . S
H464 C478 0.929 . S
H465 C479 0.931 . S
H466 C481 0.930 . S
C467 H455 0.930 . S
C467 C468 1.399 1_556 S
C467 C472 1.399 . S
C468 C467 1.399 1_554 S
C468 C469 1.376 . S
C469 H456 0.930 . S
C469 C468 1.376 . S
C469 C470 1.388 . S
C470 H457 0.930 . S
C470 C469 1.388 . S
C470 C471 1.390 . S
C471 C470 1.390 . S
C471 C472 1.394 1_554 S
C471 C477 1.465 . S
C472 C467 1.399 . S
C472 C471 1.394 1_556 S
C472 C473 1.516 . S
C473 C472 1.516 . S
C473 C474 1.502 . S
C473 C475 1.561 . S
C473 C476 1.526 . S
C474 H458 0.959 . S
C474 H459 0.959 . S
C474 H460 0.961 . S
C474 C473 1.502 . S
C475 H461 0.960 . S
C475 H462 0.961 . S
C475 H463 0.959 . S
C475 C473 1.561 . S
C476 C473 1.526 . S
C476 C477 1.396 1_556 S
C476 C481 1.390 . S
C477 C471 1.465 . S
C477 C476 1.396 1_554 S
C477 C478 1.399 . S
C478 H464 0.929 . S
C478 C477 1.399 . S
C478 C479 1.385 . S
C479 H465 0.931 . S
C479 C478 1.385 . S
C479 C480 1.389 . S
C480 C479 1.389 . S
C480 C481 1.387 1_554 S
C481 H466 0.930 . S
C481 C476 1.390 . S
C481 C480 1.387 1_556 S
H482 C494 0.930 . S
H483 C496 0.930 . S
H484 C497 0.930 . S
H485 C501 0.959 . S
H486 C501 0.959 . S
H487 C501 0.961 . S
H488 C502 0.960 . S
H489 C502 0.961 . S
H490 C502 0.959 . S
H491 C505 0.929 . S
H492 C506 0.931 . S
H493 C508 0.930 . S
C494 H482 0.930 . S
C494 C495 1.399 . S
C494 C499 1.399 . S
C495 C494 1.399 . S
C495 C496 1.376 . S
C496 H483 0.930 . S
C496 C495 1.376 . S
C496 C497 1.388 . S
C497 H484 0.930 . S
C497 C496 1.388 . S
C497 C498 1.390 . S
C498 C497 1.390 . S
C498 C499 1.394 . S
C498 C504 1.465 . S
C499 C494 1.399 . S
C499 C498 1.394 . S
C499 C500 1.516 . S
C500 C499 1.516 . S
C500 C501 1.502 . S
C500 C502 1.561 . S
C500 C503 1.526 . S
C501 H485 0.959 . S
C501 H486 0.959 . S
C501 H487 0.961 . S
C501 C500 1.502 . S
C502 H488 0.960 . S
C502 H489 0.961 . S
C502 H490 0.959 . S
C502 C500 1.561 . S
C503 C500 1.526 . S
C503 C504 1.396 . S
C503 C508 1.390 . S
C504 C498 1.465 . S
C504 C503 1.396 . S
C504 C505 1.399 . S
C505 H491 0.929 . S
C505 C504 1.399 . S
C505 C506 1.385 . S
C506 H492 0.931 . S
C506 C505 1.385 . S
C506 C507 1.389 . S
C507 C506 1.389 . S
C507 C508 1.387 . S
C508 H493 0.930 . S
C508 C503 1.390 . S
C508 C507 1.387 . S
H509 C521 0.930 . S
H510 C523 0.930 . S
H511 C524 0.930 . S
H512 C528 0.959 . S
H513 C528 0.959 . S
H514 C528 0.961 . S
H515 C529 0.960 . S
H516 C529 0.961 . S
H517 C529 0.959 . S
H518 C532 0.929 . S
H519 C533 0.931 . S
H520 C535 0.930 . S
C521 H509 0.930 . S
C521 C522 1.399 . S
C521 C526 1.399 . S
C522 C521 1.399 . S
C522 C523 1.376 . S
C523 H510 0.930 . S
C523 C522 1.376 . S
C523 C524 1.388 . S
C524 H511 0.930 . S
C524 C523 1.388 . S
C524 C525 1.390 . S
C525 C524 1.390 . S
C525 C526 1.394 . S
C525 C531 1.465 . S
C526 C521 1.399 . S
C526 C525 1.394 . S
C526 C527 1.516 . S
C527 C526 1.516 . S
C527 C528 1.502 . S
C527 C529 1.561 . S
C527 C530 1.526 . S
C528 H512 0.959 . S
C528 H513 0.959 . S
C528 H514 0.961 . S
C528 C527 1.502 . S
C529 H515 0.960 . S
C529 H516 0.961 . S
C529 H517 0.959 . S
C529 C527 1.561 . S
C530 C527 1.526 . S
C530 C531 1.396 . S
C530 C535 1.390 . S
C531 C525 1.465 . S
C531 C530 1.396 . S
C531 C532 1.399 . S
C532 H518 0.929 . S
C532 C531 1.399 . S
C532 C533 1.385 . S
C533 H519 0.931 . S
C533 C532 1.385 . S
C533 C534 1.389 . S
C534 C533 1.389 . S
C534 C535 1.387 . S
C535 H520 0.930 . S
C535 C530 1.390 . S
C535 C534 1.387 . S
C117 C18 1.485 . S
C129 C5 1.442 . S
C144 C31 1.449 . S
C156 C44 1.496 . S
C171 C57 1.456 . S
C183 C70 1.491 . S
C198 C83 1.483 . S
C210 C96 1.443 . S
C225 C10 1.186 . S
C237 C49 1.203 . S
C252 C36 1.192 . S
C264 C23 1.204 . S
C279 C34 1.046 . S
C291 C21 1.041 . S
C306 C8 1.146 . S
C318 C47 1.153 . S
C333 C62 1.178 . S
C345 C101 1.162 . S
C360 C88 1.172 . S
C372 C75 1.162 . S
C387 C73 1.162 . S
C399 C86 1.164 . S
C414 C60 1.047 . S
C426 C99 1.041 . S
C441 C65 1.496 . S
C453 C0 1.496 . S
C468 C52 1.492 . S
C480 C13 1.493 . S
C495 C26 1.541 . S
C507 C91 1.541 . S
C522 C78 1.541 . S
C534 C39 1.540 . S
