# Generated by pormake.
# Topology mok, (4)-cn, num edge types: 1
# Building blocks:
#     Node 0, Type 0, BuildingBlock: QUQFOY_clean_sbu_3, # of connection points: 4
#     Node 1, Type 0, BuildingBlock: QUQFOY_clean_sbu_3, # of connection points: 4
#     Node 2, Type 0, BuildingBlock: QUQFOY_clean_sbu_3, # of connection points: 4
#     Node 3, Type 0, BuildingBlock: QUQFOY_clean_sbu_3, # of connection points: 4
#     Node 4, Type 0, BuildingBlock: QUQFOY_clean_sbu_3, # of connection points: 4
#     Node 5, Type 0, BuildingBlock: QUQFOY_clean_sbu_3, # of connection points: 4
#     Node 6, Type 0, BuildingBlock: QUQFOY_clean_sbu_3, # of connection points: 4
#     Node 7, Type 0, BuildingBlock: QUQFOY_clean_sbu_3, # of connection points: 4
#     Edge 8, Type (0, 0), BuildingBlock: FUNLAD_clean_linker_0, # of connection points: 2
#     Edge 9, Type (0, 0), BuildingBlock: FUNLAD_clean_linker_0, # of connection points: 2
#     Edge 10, Type (0, 0), BuildingBlock: FUNLAD_clean_linker_0, # of connection points: 2
#     Edge 11, Type (0, 0), BuildingBlock: FUNLAD_clean_linker_0, # of connection points: 2
#     Edge 12, Type (0, 0), BuildingBlock: FUNLAD_clean_linker_0, # of connection points: 2
#     Edge 13, Type (0, 0), BuildingBlock: FUNLAD_clean_linker_0, # of connection points: 2
#     Edge 14, Type (0, 0), BuildingBlock: FUNLAD_clean_linker_0, # of connection points: 2
#     Edge 15, Type (0, 0), BuildingBlock: FUNLAD_clean_linker_0, # of connection points: 2
#     Edge 16, Type (0, 0), BuildingBlock: FUNLAD_clean_linker_0, # of connection points: 2
#     Edge 17, Type (0, 0), BuildingBlock: FUNLAD_clean_linker_0, # of connection points: 2
#     Edge 18, Type (0, 0), BuildingBlock: FUNLAD_clean_linker_0, # of connection points: 2
#     Edge 19, Type (0, 0), BuildingBlock: FUNLAD_clean_linker_0, # of connection points: 2
#     Edge 20, Type (0, 0), BuildingBlock: FUNLAD_clean_linker_0, # of connection points: 2
#     Edge 21, Type (0, 0), BuildingBlock: FUNLAD_clean_linker_0, # of connection points: 2
#     Edge 22, Type (0, 0), BuildingBlock: FUNLAD_clean_linker_0, # of connection points: 2
#     Edge 23, Type (0, 0), BuildingBlock: FUNLAD_clean_linker_0, # of connection points: 2
# Relax obj value: 0.013
# Max RMSD: 0.032
# Mean RMSD: 0.032
data_MOF--net-mok--node1-QUQFOY_clean_sbu_3--edge1-FUNLAD_clean_linker_0
_symmetry_space_group_name_H-M    P1
_symmetry_Int_Tables_number       1
_symmetry_cell_setting            triclinic
loop_
_symmetry_equiv_pos_as_xyz
'x, y, z'
_cell_length_a     64.169054
_cell_length_b     18.806721
_cell_length_c     32.537796
_cell_angle_alpha  89.892691
_cell_angle_beta   89.954233
_cell_angle_gamma 89.943852
loop_
_atom_site_label
_atom_site_type_symbol
_atom_site_fract_x
_atom_site_fract_y
_atom_site_fract_z
_atom_type_partial_charge
C0 C 0.61882 0.39967 0.09993 0.0
O1 O 0.62129 0.45384 0.07713 0.0
Cd2 Cd 0.62593 0.44072 0.00424 0.0
O3 O 0.61732 0.33804 0.08425 0.0
Cd4 Cd 0.61568 0.27938 0.01712 0.0
C5 C 0.66604 0.31823 0.00159 0.0
O6 O 0.59738 0.3718 0.97877 0.0
O7 O 0.61247 0.28996 0.94286 0.0
O8 O 0.58536 0.22558 0.04742 0.0
C9 C 0.60045 0.34348 0.94396 0.0
O10 O 0.65941 0.38077 -0.00599 0.0
C11 C 0.5892 0.16243 0.03617 0.0
O12 O 0.65366 0.26969 0.01393 0.0
O13 O 0.60607 0.15219 0.01643 0.0
C14 C 0.39323 0.55387 0.0419 0.0
O15 O 0.38786 0.51235 0.01307 0.0
Cd16 Cd 0.38436 0.55497 0.94374 0.0
O17 O 0.39809 0.61814 0.03427 0.0
Cd18 Cd 0.40262 0.70376 0.97798 0.0
C19 C 0.35053 0.69464 0.96361 0.0
O20 O 0.41514 0.62059 0.92703 0.0
O21 O 0.40616 0.72428 0.90442 0.0
O22 O 0.43549 0.73015 0.01048 0.0
C23 C 0.41386 0.6635 0.89701 0.0
O24 O 0.35414 0.63365 0.94813 0.0
C25 C 0.43331 0.79718 0.01043 0.0
O26 O 0.36526 0.73167 0.97889 0.0
O27 O 0.41633 0.82168 -0.00403 0.0
C28 C 0.5849 0.53347 0.46325 0.0
O29 O 0.59083 0.48983 0.49069 0.0
Cd30 Cd 0.59741 0.52869 0.55996 0.0
O31 O 0.58083 0.59763 0.47254 0.0
Cd32 Cd 0.5787 0.67992 0.53051 0.0
C33 C 0.63107 0.66645 0.53572 0.0
O34 O 0.56876 0.59774 0.58439 0.0
O35 O 0.58083 0.69909 0.60432 0.0
O36 O 0.54419 0.70671 0.50573 0.0
C37 C 0.57316 0.63914 0.61387 0.0
O38 O 0.6277 0.60604 0.55228 0.0
C39 C 0.54639 0.77371 0.5047 0.0
O40 O 0.61609 0.70429 0.52188 0.0
O41 O 0.56408 0.79823 0.5153 0.0
C42 C 0.37109 0.45403 0.41424 0.0
O43 O 0.36558 0.5028 0.43889 0.0
Cd44 Cd 0.36043 0.4787 0.51064 0.0
O45 O 0.37468 0.39147 0.4274 0.0
Cd46 Cd 0.37581 0.32292 0.49164 0.0
C47 C 0.32403 0.34451 0.50509 0.0
O48 O 0.39063 0.41592 0.53477 0.0
O49 O 0.37903 0.32241 0.56597 0.0
O50 O 0.40798 0.27855 0.46272 0.0
C51 C 0.38882 0.38079 0.56789 0.0
O52 O 0.32865 0.4081 0.51489 0.0
C53 C 0.40483 0.21361 0.47113 0.0
O54 O 0.33809 0.3015 0.49283 0.0
O55 O 0.38752 0.19825 0.48803 0.0
C56 C 0.1131 0.9159 0.0832 0.0
O57 O 0.11681 0.96722 0.05889 0.0
Cd58 Cd 0.12266 0.94705 0.98689 0.0
O59 O 0.11101 0.85304 0.06942 0.0
Cd60 Cd 0.11006 0.78745 0.00411 0.0
C61 C 0.16133 0.81953 -0.00889 0.0
O62 O 0.09388 0.87889 0.96134 0.0
O63 O 0.10704 0.78844 0.92969 0.0
O64 O 0.07881 0.73581 0.03272 0.0
C65 C 0.09654 0.84547 0.9279 0.0
O66 O 0.15574 0.88282 0.98242 0.0
C67 C 0.08333 0.67172 0.02458 0.0
O68 O 0.14795 0.77332 0.00231 0.0
O69 O 0.10088 0.66042 0.00755 0.0
C70 C 0.88789 0.04868 0.03567 0.0
O71 O 0.88188 0.00534 0.00823 0.0
Cd72 Cd 0.88213 0.03463 0.93603 0.0
O73 O 0.89504 0.10942 0.02575 0.0
Cd74 Cd 0.90253 0.18321 0.96534 0.0
C75 C 0.85077 0.18204 0.94368 0.0
O76 O 0.91488 0.08905 0.92077 0.0
O77 O 0.9092 0.19049 0.89167 0.0
O78 O 0.93464 0.21567 -0.00031 0.0
C79 C 0.91563 0.12695 0.88852 0.0
O80 O 0.85351 0.11964 0.92948 0.0
C81 C 0.9323 0.28231 -0.00453 0.0
O82 O 0.86556 0.21577 0.96104 0.0
O83 O 0.91573 0.30334 0.97777 0.0
C84 C 0.09097 0.0765 0.44895 0.0
O85 O 0.09648 0.02964 0.47492 0.0
Cd86 Cd 0.10225 0.05816 0.54584 0.0
O87 O 0.08668 0.13945 0.46056 0.0
Cd88 Cd 0.0835 0.21171 0.52341 0.0
C89 C 0.13582 0.20044 0.53153 0.0
O90 O 0.07207 0.11891 0.57056 0.0
O91 O 0.08232 0.21729 0.598 0.0
O92 O 0.05032 0.24592 0.49411 0.0
C93 C 0.07447 0.15601 0.60274 0.0
O94 O 0.13251 0.13684 0.54344 0.0
C95 C 0.05197 0.31176 0.50182 0.0
O96 O 0.12077 0.24028 0.52017 0.0
O97 O 0.06883 0.33226 0.51859 0.0
C98 C 0.85842 0.90855 0.40205 0.0
O99 O 0.85382 0.96177 0.42426 0.0
Cd100 Cd 0.85318 0.95546 0.49813 0.0
O101 O 0.86331 0.84944 0.41849 0.0
Cd102 Cd 0.86801 0.79567 0.48664 0.0
C103 C 0.81738 0.82153 0.51066 0.0
O104 O 0.88484 0.89848 0.5186 0.0
O105 O 0.87627 0.81189 0.55883 0.0
O106 O 0.89688 0.73962 0.45097 0.0
C107 C 0.88534 0.87118 0.55424 0.0
O108 O 0.82249 0.88606 0.51672 0.0
C109 C 0.89524 0.67988 0.46879 0.0
O110 O 0.83042 0.77683 0.49627 0.0
O111 O 0.88025 0.67246 0.49398 0.0
C112 C 0.82248 0.25419 0.976 0.0
C113 C 0.82955 0.21228 0.94313 0.0
C114 C 0.80155 0.27456 0.97832 0.0
C115 C 0.7875 0.25462 0.94731 0.0
C116 C 0.79482 0.21626 0.91333 0.0
C117 C 0.81561 0.1942 0.91158 0.0
C118 C 0.76508 0.27228 0.95015 0.0
C119 C 0.75432 0.26368 0.98531 0.0
C120 C 0.73161 0.27704 0.9882 0.0
C121 C 0.71938 0.23429 0.01411 0.0
C122 C 0.69795 0.24642 0.01779 0.0
C123 C 0.68849 0.30284 -0.00355 0.0
H124 H 0.73122 0.36785 0.94699 0.0
C125 C 0.7008 0.34607 0.97084 0.0
C126 C 0.72212 0.33305 0.96654 0.0
H127 H 0.69396 0.39003 0.95403 0.0
H128 H 0.8329 0.2686 0.00081 0.0
H129 H 0.79632 0.30535 0.00447 0.0
H130 H 0.78427 0.20093 0.88893 0.0
H131 H 0.82071 0.16212 0.88583 0.0
H132 H 0.75695 0.28653 0.92202 0.0
H133 H 0.76214 0.24185 0.01216 0.0
H134 H 0.7264 0.19109 0.03131 0.0
H135 H 0.68889 0.21259 0.03799 0.0
C136 C 0.19844 0.8507 0.97528 0.0
C137 C 0.18366 0.80007 0.98808 0.0
C138 C 0.2195 0.83268 0.97198 0.0
C139 C 0.22632 0.76355 0.98171 0.0
C140 C 0.21154 0.71287 -0.00578 0.0
C141 C 0.19046 0.73089 -0.00247 0.0
C142 C 0.24846 0.74138 0.97742 0.0
C143 C 0.26466 0.78706 0.97756 0.0
C144 C 0.28665 0.76364 0.97266 0.0
C145 C 0.30273 0.80538 0.9892 0.0
C146 C 0.32355 0.78392 0.98578 0.0
C147 C 0.32872 0.72045 0.96538 0.0
H148 H 0.28008 0.66925 0.93643 0.0
C149 C 0.31265 0.68001 0.94765 0.0
C150 C 0.2919 0.70141 0.95108 0.0
H151 H 0.31604 0.63131 0.93122 0.0
H152 H 0.19375 0.90437 0.96741 0.0
H153 H 0.23021 0.87278 0.96094 0.0
H154 H 0.21631 0.65902 0.00152 0.0
H155 H 0.17951 0.69049 0.00735 0.0
H156 H 0.25147 0.68464 0.97562 0.0
H157 H 0.26197 0.84313 0.98339 0.0
H158 H 0.29914 0.8541 0.00546 0.0
H159 H 0.33554 0.81652 -0.00038 0.0
C160 C 0.78567 0.74903 0.49496 0.0
C161 C 0.79576 0.79972 0.51952 0.0
C162 C 0.76465 0.73297 0.50163 0.0
C163 C 0.75357 0.76622 0.53359 0.0
C164 C 0.76389 0.81478 0.55905 0.0
C165 C 0.7847 0.83232 0.55167 0.0
C166 C 0.73141 0.74977 0.54166 0.0
C167 C 0.71737 0.74291 0.51125 0.0
C168 C 0.69514 0.72656 0.51935 0.0
C169 C 0.67968 0.75468 0.49346 0.0
C170 C 0.65868 0.73757 0.49966 0.0
C171 C 0.65288 0.69047 0.53121 0.0
H172 H 0.70084 0.65682 0.57137 0.0
C173 C 0.66838 0.66254 0.55714 0.0
C174 C 0.68927 0.68064 0.55143 0.0
H175 H 0.6644 0.62595 0.58167 0.0
H176 H 0.79387 0.7233 0.46993 0.0
H177 H 0.75712 0.69418 0.48208 0.0
H178 H 0.7557 0.84042 0.58411 0.0
H179 H 0.79217 0.87131 0.57119 0.0
H180 H 0.72631 0.74783 0.5735 0.0
H181 H 0.7221 0.75246 0.47963 0.0
H182 H 0.68387 0.78983 0.46837 0.0
H183 H 0.64709 0.75936 0.47897 0.0
C184 C 0.17402 0.18323 0.5435 0.0
C185 C 0.15759 0.22655 0.52955 0.0
C186 C 0.19467 0.20574 0.54023 0.0
C187 C 0.19945 0.27204 0.52253 0.0
C188 C 0.18303 0.31617 0.50956 0.0
C189 C 0.16231 0.29364 0.51288 0.0
C190 C 0.22128 0.29763 0.51836 0.0
C191 C 0.23788 0.25363 0.51643 0.0
C192 C 0.25981 0.2787 0.51315 0.0
C193 C 0.27511 0.2317 0.49837 0.0
C194 C 0.29597 0.25276 0.49564 0.0
C195 C 0.302 0.32131 0.50789 0.0
H196 H 0.25484 0.38413 0.53882 0.0
C197 C 0.28672 0.36807 0.5231 0.0
C198 C 0.26591 0.34701 0.52589 0.0
H199 H 0.29082 0.42107 0.53324 0.0
H200 H 0.17097 0.13157 0.55699 0.0
H201 H 0.20675 0.17124 0.55211 0.0
H202 H 0.18625 0.36792 0.49633 0.0
H203 H 0.15005 0.32847 0.50197 0.0
H204 H 0.22351 0.35455 0.51508 0.0
H205 H 0.23542 0.19655 0.51571 0.0
H206 H 0.2709 0.17849 0.48875 0.0
H207 H 0.30733 0.2153 0.48391 0.0
C208 C 0.61221 0.47437 0.16218 0.0
C209 C 0.6166 0.4077 0.14484 0.0
C210 C 0.60866 0.48065 0.20436 0.0
C211 C 0.60956 0.42035 0.22997 0.0
C212 C 0.61476 0.35435 0.21291 0.0
C213 C 0.61804 0.34786 0.17068 0.0
C214 C 0.60562 0.42521 0.27467 0.0
C215 C 0.59143 0.47023 0.29046 0.0
C216 C 0.58812 0.48088 0.33516 0.0
C217 C 0.57888 0.54464 0.34805 0.0
C218 C 0.57708 0.56032 0.38973 0.0
C219 C 0.58434 0.51221 0.41957 0.0
H220 H 0.60077 0.37979 0.35646 0.0
C221 C 0.59247 0.44645 0.40684 0.0
C222 C 0.59432 0.43078 0.36501 0.0
H223 H 0.59799 0.40792 0.4291 0.0
H224 H 0.61112 0.52148 0.14309 0.0
H225 H 0.60538 0.5328 0.21685 0.0
H226 H 0.61584 0.30741 0.23216 0.0
H227 H 0.62158 0.29582 0.15827 0.0
H228 H 0.61458 0.39029 0.29451 0.0
H229 H 0.58246 0.5037 0.26971 0.0
H230 H 0.5737 0.58373 0.32577 0.0
H231 H 0.57051 0.6112 0.39846 0.0
C232 C 0.40065 0.57346 0.11627 0.0
C233 C 0.39286 0.52935 0.08505 0.0
C234 C 0.39878 0.55384 0.15741 0.0
C235 C 0.38884 0.48993 0.16831 0.0
C236 C 0.38193 0.44424 0.1371 0.0
C237 C 0.38386 0.46381 0.0958 0.0
C238 C 0.38555 0.46954 0.21187 0.0
C239 C 0.38351 0.51798 0.24208 0.0
C240 C 0.38001 0.49938 0.28588 0.0
C241 C 0.37197 0.55157 0.31233 0.0
C242 C 0.3689 0.53694 0.35399 0.0
C243 C 0.3739 0.46972 0.37008 0.0
H244 H 0.39208 0.39123 0.2832 0.0
C245 C 0.38205 0.41755 0.34365 0.0
C246 C 0.38519 0.43226 0.30208 0.0
H247 H 0.3863 0.36542 0.35513 0.0
H248 H 0.40801 0.62377 0.10902 0.0
H249 H 0.40515 0.589 0.18049 0.0
H250 H 0.37452 0.39417 0.14471 0.0
H251 H 0.37781 0.42845 0.07244 0.0
H252 H 0.38351 0.41341 0.21849 0.0
H253 H 0.38351 0.57419 0.23437 0.0
H254 H 0.36802 0.60392 0.30074 0.0
H255 H 0.36266 0.57836 0.37355 0.0
C256 C 0.42651 0.57234 0.84722 0.0
C257 C 0.41807 0.64001 0.85462 0.0
C258 C 0.4283 0.54678 0.80715 0.0
C259 C 0.42139 0.58819 0.77375 0.0
C260 C 0.41429 0.65762 0.78104 0.0
C261 C 0.4126 0.68333 0.82111 0.0
C262 C 0.42007 0.55946 0.73142 0.0
C263 C 0.41703 0.48984 0.72385 0.0
C264 C 0.4113 0.4615 0.68289 0.0
C265 C 0.40068 0.39639 0.68115 0.0
C266 C 0.39357 0.36983 0.64373 0.0
C267 C 0.39703 0.40777 0.60718 0.0
H268 H 0.42426 0.54727 0.64583 0.0
C269 C 0.40831 0.47168 0.60858 0.0
C270 C 0.41549 0.4982 0.64605 0.0
H271 H 0.41151 0.50147 0.58076 0.0
H272 H 0.43127 0.53834 0.87245 0.0
H273 H 0.43473 0.49416 0.80263 0.0
H274 H 0.40914 0.69098 0.75581 0.0
H275 H 0.40627 0.7361 0.82585 0.0
H276 H 0.41891 0.5978 0.70657 0.0
H277 H 0.41637 0.45267 0.74938 0.0
H278 H 0.39739 0.3667 0.70898 0.0
H279 H 0.38509 0.32005 0.64359 0.0
C280 C 0.60259 0.36456 0.86853 0.0
C281 C 0.59231 0.3759 0.90604 0.0
C282 C 0.59566 0.39836 0.83292 0.0
C283 C 0.5781 0.44293 0.83408 0.0
C284 C 0.56728 0.45201 0.87112 0.0
C285 C 0.57454 0.41958 0.90708 0.0
C286 C 0.5713 0.48096 0.79676 0.0
C287 C 0.58513 0.51696 0.77381 0.0
C288 C 0.57965 0.55263 0.73486 0.0
C289 C 0.59042 0.61447 0.72363 0.0
C290 C 0.5874 0.64494 0.68499 0.0
C291 C 0.57397 0.61279 0.65647 0.0
H292 H 0.55724 0.4737 0.71473 0.0
C293 C 0.56278 0.55183 0.66805 0.0
C294 C 0.56546 0.52222 0.70711 0.0
H295 H 0.55236 0.52602 0.64656 0.0
H296 H 0.6163 0.33102 0.86689 0.0
H297 H 0.60404 0.38977 0.80443 0.0
H298 H 0.55363 0.48587 0.87246 0.0
H299 H 0.56626 0.4286 0.93563 0.0
H300 H 0.55482 0.48183 0.78913 0.0
H301 H 0.60116 0.52141 0.78434 0.0
H302 H 0.60152 0.63843 0.74451 0.0
H303 H 0.59633 0.69173 0.67682 0.0
C304 C 0.10967 -0.0019 0.14342 0.0
C305 C 0.11095 0.92862 0.12782 0.0
C306 C 0.10732 0.00957 0.18559 0.0
C307 C 0.10626 0.95165 0.21296 0.0
C308 C 0.10797 0.88242 0.19745 0.0
C309 C 0.11011 0.87091 0.15531 0.0
C310 C 0.10419 0.9615 0.25794 0.0
C311 C 0.0939 0.01671 0.27473 0.0
C312 C 0.09223 0.02892 0.31972 0.0
C313 C 0.08719 0.09746 0.33351 0.0
C314 C 0.08634 0.11252 0.37545 0.0
C315 C 0.09044 0.05914 0.40465 0.0
H316 H 0.09868 0.92053 0.33992 0.0
C317 C 0.09476 0.98988 0.39097 0.0
C318 C 0.09555 0.97475 0.34898 0.0
H319 H 0.09773 0.94733 0.41268 0.0
H320 H 0.11041 0.04368 0.12307 0.0
H321 H 0.10674 0.06378 0.19662 0.0
H322 H 0.10743 0.83699 0.21797 0.0
H323 H 0.1112 0.81668 0.14436 0.0
H324 H 0.1112 0.92112 0.27733 0.0
H325 H 0.08679 0.05613 0.25471 0.0
H326 H 0.08433 0.14003 0.31173 0.0
H327 H 0.08284 0.16643 0.3849 0.0
C328 C 0.85526 0.9814 0.33778 0.0
C329 C 0.85904 0.91552 0.35679 0.0
C330 C 0.85722 0.98869 0.29524 0.0
C331 C 0.86312 0.93023 0.27088 0.0
C332 C 0.86601 0.86383 0.28966 0.0
C333 C 0.8641 0.85654 0.33219 0.0
C334 C 0.86653 0.93682 0.22596 0.0
C335 C 0.8733 -0.00254 0.20847 0.0
C336 C 0.87774 0.00578 0.16393 0.0
C337 C 0.88976 0.06416 0.15135 0.0
C338 C 0.89356 0.07671 0.1098 0.0
C339 C 0.88537 0.03116 0.0797 0.0
H340 H 0.86001 0.9147 0.142 0.0
C341 C 0.87365 0.97182 0.09217 0.0
C342 C 0.86976 0.95939 0.13386 0.0
H343 H 0.86695 0.93612 0.0697 0.0
H344 H 0.85107 0.02766 0.35578 0.0
H345 H 0.85408 0.04013 0.28162 0.0
H346 H 0.87029 0.81781 0.27152 0.0
H347 H 0.86694 0.80482 0.34579 0.0
H348 H 0.86487 0.889 0.20766 0.0
H349 H 0.87671 0.04283 0.22795 0.0
H350 H 0.89607 0.10083 0.17377 0.0
H351 H 0.90267 0.12293 0.10129 0.0
C352 C 0.89658 0.87412 0.62753 0.0
C353 C 0.89452 0.90892 0.58954 0.0
C354 C 0.904 0.91058 0.66179 0.0
C355 C 0.90955 0.98277 0.65875 0.0
C356 C 0.9078 0.01723 0.62061 0.0
C357 C 0.90052 0.98051 0.58618 0.0
C358 C 0.91494 0.02502 0.69565 0.0
C359 C 0.9236 0.99611 0.72949 0.0
C360 C 0.92449 0.03286 0.76982 0.0
C361 C 0.92569 0.99105 0.80553 0.0
C362 C 0.92365 0.02196 0.84429 0.0
C363 C 0.92043 0.09551 0.84808 0.0
H364 H 0.92261 0.14181 0.74725 0.0
C365 C 0.92061 0.13807 0.81258 0.0
C366 C 0.92273 0.10718 0.7738 0.0
H367 H 0.91858 0.19514 0.81463 0.0
H368 H 0.89204 0.81898 0.63106 0.0
H369 H 0.90444 0.8827 0.69089 0.0
H370 H 0.91172 0.07302 0.61761 0.0
H371 H 0.89904 0.00874 0.55729 0.0
H372 H 0.91031 0.08048 0.69531 0.0
H373 H 0.92844 0.94076 0.72883 0.0
H374 H 0.92728 0.93379 0.80344 0.0
H375 H 0.9238 0.98781 0.87113 0.0
C376 C 0.07733 0.9371 0.88684 0.0
C377 C 0.08897 0.87386 0.88832 0.0
C378 C 0.07106 0.96559 0.84913 0.0
C379 C 0.07651 0.93161 0.81211 0.0
C380 C 0.08741 0.86694 0.81383 0.0
C381 C 0.09363 0.83841 0.85149 0.0
C382 C 0.0718 0.96249 0.77113 0.0
C383 C 0.06884 0.03257 0.76472 0.0
C384 C 0.06803 0.06468 0.72304 0.0
C385 C 0.07429 0.13567 0.71827 0.0
C386 C 0.07581 0.16602 0.67922 0.0
C387 C 0.07097 0.126 0.64411 0.0
H388 H 0.05635 0.97189 0.69053 0.0
C389 C 0.06361 0.05617 0.64893 0.0
C390 C 0.06205 0.02583 0.68803 0.0
H391 H 0.05942 0.02443 0.62245 0.0
H392 H 0.07322 0.96501 0.91479 0.0
H393 H 0.06201 0.01412 0.84929 0.0
H394 H 0.09165 0.83925 0.78586 0.0
H395 H 0.10241 0.78919 0.85163 0.0
H396 H 0.07308 0.92701 0.74497 0.0
H397 H 0.0694 0.06903 0.7905 0.0
H398 H 0.07875 0.16709 0.74472 0.0
H399 H 0.08132 0.22026 0.67654 0.0
C400 C 0.46899 0.8141 0.03938 0.0
C401 C 0.45042 0.84392 0.02422 0.0
C402 C 0.48601 0.85725 0.04878 0.0
C403 C 0.48484 0.93124 0.04297 0.0
C404 C 0.46595 0.96131 0.02975 0.0
C405 C 0.4489 0.91809 0.02028 0.0
C406 C 0.50302 0.97852 0.04975 0.0
C407 C 0.52296 0.95658 0.046 0.0
C408 C 0.54088 0.00635 0.04777 0.0
C409 C 0.559 0.99073 0.02524 0.0
C410 C 0.57529 0.04 0.02283 0.0
C411 C 0.57373 0.10558 0.04316 0.0
H412 H 0.52669 0.08255 0.08944 0.0
C413 C 0.55619 0.11913 0.06784 0.0
C414 C 0.53999 0.06996 0.07031 0.0
H415 H 0.55469 0.1687 0.0845 0.0
H416 H 0.47056 0.75713 0.04329 0.0
H417 H 0.50002 0.8323 0.0604 0.0
H418 H 0.46455 0.01828 0.02551 0.0
H419 H 0.43476 0.94266 0.0089 0.0
H420 H 0.49974 0.03463 0.05425 0.0
H421 H 0.52625 0.90196 0.03741 0.0
H422 H 0.56021 0.94157 0.00808 0.0
H423 H 0.58867 0.02793 0.00376 0.0
C424 C 0.53032 0.89456 0.49638 0.0
C425 C 0.52875 0.82031 0.49327 0.0
C426 C 0.51302 0.93774 0.48838 0.0
C427 C 0.49382 0.90738 0.47674 0.0
C428 C 0.49245 0.83326 0.473 0.0
C429 C 0.5097 0.79022 0.48103 0.0
C430 C 0.47456 0.95034 0.47121 0.0
C431 C 0.47463 0.02049 0.46295 0.0
C432 C 0.45549 0.06513 0.46136 0.0
C433 C 0.45677 0.13254 0.44299 0.0
C434 C 0.43994 0.17948 0.44455 0.0
C435 C 0.4214 0.16016 0.4647 0.0
H436 H 0.43506 0.99422 0.49586 0.0
C437 C 0.41975 0.09182 0.4818 0.0
C438 C 0.43665 0.04484 0.48039 0.0
H439 H 0.40573 0.07566 0.49783 0.0
H440 H 0.54474 0.91924 0.50605 0.0
H441 H 0.51464 0.99443 0.49282 0.0
H442 H 0.47788 0.80837 0.46437 0.0
H443 H 0.50796 0.73313 0.47833 0.0
H444 H 0.45984 0.92232 0.4736 0.0
H445 H 0.48934 0.04699 0.45684 0.0
H446 H 0.47106 0.14975 0.42824 0.0
H447 H 0.4417 0.2318 0.43102 0.0
C448 C 0.04939 0.62921 0.0528 0.0
C449 C 0.06806 0.61434 0.03191 0.0
C450 C 0.03368 0.57817 0.05548 0.0
C451 C 0.03623 0.51127 0.03688 0.0
C452 C 0.05539 0.49492 0.01822 0.0
C453 C 0.07117 0.54603 0.01563 0.0
C454 C 0.01905 0.45848 0.03517 0.0
C455 C -0.00122 0.47753 0.03494 0.0
C456 C 0.98148 0.42666 0.02778 0.0
C457 C 0.96271 0.45237 0.01123 0.0
C458 C 0.94649 0.4058 0.00161 0.0
C459 C 0.94866 0.3325 0.00869 0.0
H460 H -0.00279 0.33204 0.0506 0.0
C461 C 0.96709 0.30707 0.02691 0.0
C462 C 0.98331 0.35362 0.03648 0.0
H463 H 0.96913 0.25092 0.03322 0.0
H464 H 0.04666 0.68101 0.0663 0.0
H465 H 0.0195 0.59178 0.07167 0.0
H466 H 0.05787 0.4434 0.00418 0.0
H467 H 0.08545 0.53287 -0.00043 0.0
H468 H 0.02335 0.40342 0.02983 0.0
H469 H -0.00535 0.53349 0.03625 0.0
H470 H 0.96079 0.5085 0.00466 0.0
H471 H 0.93244 0.42709 0.98784 0.0
C472 C 0.0177 0.33946 0.46919 0.0
C473 C 0.03432 0.36056 0.49447 0.0
C474 C -0.00017 0.38155 0.46584 0.0
C475 C -0.00182 0.44535 0.48805 0.0
C476 C 0.01497 0.46712 0.51264 0.0
C477 C 0.03298 0.42555 0.51548 0.0
C478 C 0.97863 0.48738 0.48855 0.0
C479 C 0.9655 0.49114 0.4564 0.0
C480 C 0.94623 0.53421 0.45827 0.0
C481 C 0.94097 0.57838 0.42511 0.0
C482 C 0.92387 0.6242 0.4279 0.0
C483 C 0.91138 0.62481 0.46341 0.0
H484 H 0.93681 0.49798 0.51879 0.0
C485 C 0.91588 0.57726 0.49552 0.0
C486 C 0.9333 0.53279 0.49315 0.0
H487 H 0.90654 0.57681 0.52327 0.0
H488 H 0.01827 0.28946 0.45275 0.0
H489 H 0.98703 0.36246 0.44725 0.0
H490 H 0.01401 0.51593 0.53019 0.0
H491 H 0.04548 0.44288 0.53544 0.0
H492 H 0.9753 0.51841 0.51596 0.0
H493 H 0.96966 0.46671 0.42729 0.0
H494 H 0.95063 0.5797 0.39779 0.0
H495 H 0.92067 0.66023 0.40266 0.0
loop_
_geom_bond_atom_site_label_1
_geom_bond_atom_site_label_2
_geom_bond_distance
_geom_bond_site_symmetry_2
_ccdc_geom_bond_type
C0 O1 1.306 . S
C0 O3 1.160 . S
O1 C0 1.306 . S
O1 Cd2 2.228 . S
Cd2 O1 2.228 . S
Cd2 O6 2.273 1_554 S
Cd2 O10 2.277 . S
O3 C0 1.160 . S
O3 Cd4 2.203 . S
Cd4 O3 2.203 . S
Cd4 O6 2.411 1_554 S
Cd4 O7 2.333 1_554 S
Cd4 O8 2.352 . S
Cd4 O12 2.277 . S
Cd4 O13 2.356 . S
C5 O10 1.209 . S
C5 O12 1.226 . S
O6 Cd2 2.273 1_556 S
O6 Cd4 2.411 1_556 S
O6 C9 1.320 . S
O7 Cd4 2.333 1_556 S
O7 C9 1.214 . S
O8 Cd4 2.352 . S
O8 C11 1.258 . S
C9 O6 1.320 . S
C9 O7 1.214 . S
O10 Cd2 2.277 . S
O10 C5 1.209 . S
C11 O8 1.258 . S
C11 O13 1.282 . S
O12 Cd4 2.277 . S
O12 C5 1.226 . S
O13 Cd4 2.356 . S
O13 C11 1.282 . S
C14 O15 1.306 . S
C14 O17 1.160 . S
O15 C14 1.306 . S
O15 Cd16 2.228 . S
Cd16 O15 2.228 . S
Cd16 O20 2.273 1_554 S
Cd16 O24 2.277 . S
O17 C14 1.160 . S
O17 Cd18 2.203 . S
Cd18 O17 2.203 . S
Cd18 O20 2.411 1_554 S
Cd18 O21 2.333 1_554 S
Cd18 O22 2.352 . S
Cd18 O26 2.277 . S
Cd18 O27 2.356 . S
C19 O24 1.209 . S
C19 O26 1.226 . S
O20 Cd16 2.273 1_556 S
O20 Cd18 2.411 1_556 S
O20 C23 1.320 . S
O21 Cd18 2.333 1_556 S
O21 C23 1.214 . S
O22 Cd18 2.352 . S
O22 C25 1.258 . S
C23 O20 1.320 . S
C23 O21 1.214 . S
O24 Cd16 2.277 . S
O24 C19 1.209 . S
C25 O22 1.258 . S
C25 O27 1.282 . S
O26 Cd18 2.277 . S
O26 C19 1.226 . S
O27 Cd18 2.356 . S
O27 C25 1.282 . S
C28 O29 1.306 . S
C28 O31 1.160 . S
O29 C28 1.306 . S
O29 Cd30 2.228 . S
Cd30 O29 2.228 . S
Cd30 O34 2.273 . S
Cd30 O38 2.277 . S
O31 C28 1.160 . S
O31 Cd32 2.203 . S
Cd32 O31 2.203 . S
Cd32 O34 2.411 . S
Cd32 O35 2.333 . S
Cd32 O36 2.352 . S
Cd32 O40 2.277 . S
Cd32 O41 2.356 . S
C33 O38 1.209 . S
C33 O40 1.226 . S
O34 Cd30 2.273 . S
O34 Cd32 2.411 . S
O34 C37 1.320 . S
O35 Cd32 2.333 . S
O35 C37 1.214 . S
O36 Cd32 2.352 . S
O36 C39 1.258 . S
C37 O34 1.320 . S
C37 O35 1.214 . S
O38 Cd30 2.277 . S
O38 C33 1.209 . S
C39 O36 1.258 . S
C39 O41 1.282 . S
O40 Cd32 2.277 . S
O40 C33 1.226 . S
O41 Cd32 2.356 . S
O41 C39 1.282 . S
C42 O43 1.306 . S
C42 O45 1.160 . S
O43 C42 1.306 . S
O43 Cd44 2.228 . S
Cd44 O43 2.228 . S
Cd44 O48 2.273 . S
Cd44 O52 2.277 . S
O45 C42 1.160 . S
O45 Cd46 2.203 . S
Cd46 O45 2.203 . S
Cd46 O48 2.411 . S
Cd46 O49 2.333 . S
Cd46 O50 2.352 . S
Cd46 O54 2.277 . S
Cd46 O55 2.356 . S
C47 O52 1.209 . S
C47 O54 1.226 . S
O48 Cd44 2.273 . S
O48 Cd46 2.411 . S
O48 C51 1.320 . S
O49 Cd46 2.333 . S
O49 C51 1.214 . S
O50 Cd46 2.352 . S
O50 C53 1.258 . S
C51 O48 1.320 . S
C51 O49 1.214 . S
O52 Cd44 2.277 . S
O52 C47 1.209 . S
C53 O50 1.258 . S
C53 O55 1.282 . S
O54 Cd46 2.277 . S
O54 C47 1.226 . S
O55 Cd46 2.356 . S
O55 C53 1.282 . S
C56 O57 1.306 . S
C56 O59 1.160 . S
O57 C56 1.306 . S
O57 Cd58 2.228 . S
Cd58 O57 2.228 . S
Cd58 O62 2.273 1_554 S
Cd58 O66 2.277 . S
O59 C56 1.160 . S
O59 Cd60 2.203 . S
Cd60 O59 2.203 . S
Cd60 O62 2.411 1_554 S
Cd60 O63 2.333 1_554 S
Cd60 O64 2.352 . S
Cd60 O68 2.277 . S
Cd60 O69 2.356 . S
C61 O66 1.209 . S
C61 O68 1.226 . S
O62 Cd58 2.273 1_556 S
O62 Cd60 2.411 1_556 S
O62 C65 1.320 . S
O63 Cd60 2.333 1_556 S
O63 C65 1.214 . S
O64 Cd60 2.352 . S
O64 C67 1.258 . S
C65 O62 1.320 . S
C65 O63 1.214 . S
O66 Cd58 2.277 . S
O66 C61 1.209 . S
C67 O64 1.258 . S
C67 O69 1.282 . S
O68 Cd60 2.277 . S
O68 C61 1.226 . S
O69 Cd60 2.356 . S
O69 C67 1.282 . S
C70 O71 1.306 . S
C70 O73 1.160 . S
O71 C70 1.306 . S
O71 Cd72 2.228 . S
Cd72 O71 2.228 . S
Cd72 O76 2.273 1_554 S
Cd72 O80 2.277 . S
O73 C70 1.160 . S
O73 Cd74 2.203 . S
Cd74 O73 2.203 . S
Cd74 O76 2.411 1_554 S
Cd74 O77 2.333 1_554 S
Cd74 O78 2.352 . S
Cd74 O82 2.277 . S
Cd74 O83 2.356 . S
C75 O80 1.209 . S
C75 O82 1.226 . S
O76 Cd72 2.273 1_556 S
O76 Cd74 2.411 1_556 S
O76 C79 1.320 . S
O77 Cd74 2.333 1_556 S
O77 C79 1.214 . S
O78 Cd74 2.352 . S
O78 C81 1.258 . S
C79 O76 1.320 . S
C79 O77 1.214 . S
O80 Cd72 2.277 . S
O80 C75 1.209 . S
C81 O78 1.258 . S
C81 O83 1.282 . S
O82 Cd74 2.277 . S
O82 C75 1.226 . S
O83 Cd74 2.356 . S
O83 C81 1.282 . S
C84 O85 1.306 . S
C84 O87 1.160 . S
O85 C84 1.306 . S
O85 Cd86 2.228 . S
Cd86 O85 2.228 . S
Cd86 O90 2.273 . S
Cd86 O94 2.277 . S
O87 C84 1.160 . S
O87 Cd88 2.203 . S
Cd88 O87 2.203 . S
Cd88 O90 2.411 . S
Cd88 O91 2.333 . S
Cd88 O92 2.352 . S
Cd88 O96 2.277 . S
Cd88 O97 2.356 . S
C89 O94 1.209 . S
C89 O96 1.226 . S
O90 Cd86 2.273 . S
O90 Cd88 2.411 . S
O90 C93 1.320 . S
O91 Cd88 2.333 . S
O91 C93 1.214 . S
O92 Cd88 2.352 . S
O92 C95 1.258 . S
C93 O90 1.320 . S
C93 O91 1.214 . S
O94 Cd86 2.277 . S
O94 C89 1.209 . S
C95 O92 1.258 . S
C95 O97 1.282 . S
O96 Cd88 2.277 . S
O96 C89 1.226 . S
O97 Cd88 2.356 . S
O97 C95 1.282 . S
C98 O99 1.306 . S
C98 O101 1.160 . S
O99 C98 1.306 . S
O99 Cd100 2.228 . S
Cd100 O99 2.228 . S
Cd100 O104 2.273 . S
Cd100 O108 2.277 . S
O101 C98 1.160 . S
O101 Cd102 2.203 . S
Cd102 O101 2.203 . S
Cd102 O104 2.411 . S
Cd102 O105 2.333 . S
Cd102 O106 2.352 . S
Cd102 O110 2.277 . S
Cd102 O111 2.356 . S
C103 O108 1.209 . S
C103 O110 1.226 . S
O104 Cd100 2.273 . S
O104 Cd102 2.411 . S
O104 C107 1.320 . S
O105 Cd102 2.333 . S
O105 C107 1.214 . S
O106 Cd102 2.352 . S
O106 C109 1.258 . S
C107 O104 1.320 . S
C107 O105 1.214 . S
O108 Cd100 2.277 . S
O108 C103 1.209 . S
C109 O106 1.258 . S
C109 O111 1.282 . S
O110 Cd102 2.277 . S
O110 C103 1.226 . S
O111 Cd102 2.356 . S
O111 C109 1.282 . S
C112 C113 1.386 . S
C112 C114 1.383 . S
C112 H128 0.951 . S
C113 C112 1.386 . S
C113 C117 1.383 1_554 S
C114 C112 1.383 . S
C114 C115 1.402 1_554 S
C114 H129 0.951 . S
C115 C114 1.402 1_556 S
C115 C116 1.375 . S
C115 C118 1.481 . S
C116 C115 1.375 . S
C116 C117 1.367 . S
C116 H130 0.951 . S
C117 C113 1.383 1_556 S
C117 C116 1.367 . S
C117 H131 0.950 . S
C118 C115 1.481 . S
C118 C119 1.297 1_556 S
C118 H132 0.950 . S
C119 C118 1.297 1_554 S
C119 C120 1.479 . S
C119 H133 0.950 . S
C120 C119 1.479 . S
C120 C121 1.375 . S
C120 C126 1.404 1_554 S
C121 C120 1.375 . S
C121 C122 1.369 . S
C121 H134 0.950 . S
C122 C121 1.369 . S
C122 C123 1.392 . S
C122 H135 0.951 . S
C123 C122 1.392 . S
C123 C125 1.384 1_554 S
H124 C126 0.949 . S
C125 C123 1.384 1_556 S
C125 C126 1.385 . S
C125 H127 0.950 . S
C126 C120 1.404 1_556 S
C126 H124 0.949 . S
C126 C125 1.385 . S
H127 C125 0.950 . S
H128 C112 0.951 . S
H129 C114 0.951 . S
H130 C116 0.951 . S
H131 C117 0.950 . S
H132 C118 0.950 . S
H133 C119 0.950 . S
H134 C121 0.950 . S
H135 C122 0.951 . S
C136 C137 1.386 1_556 S
C136 C138 1.383 . S
C136 H152 0.951 . S
C137 C136 1.386 1_554 S
C137 C141 1.383 . S
C138 C136 1.383 . S
C138 C139 1.402 1_556 S
C138 H153 0.951 . S
C139 C138 1.402 1_554 S
C139 C140 1.375 . S
C139 C142 1.481 . S
C140 C139 1.375 . S
C140 C141 1.367 . S
C140 H154 0.951 . S
C141 C137 1.383 . S
C141 C140 1.367 . S
C141 H155 0.950 . S
C142 C139 1.481 . S
C142 C143 1.297 . S
C142 H156 0.950 . S
C143 C142 1.297 . S
C143 C144 1.479 . S
C143 H157 0.950 1_554 S
C144 C143 1.479 . S
C144 C145 1.375 1_554 S
C144 C150 1.404 . S
C145 C144 1.375 1_556 S
C145 C146 1.369 . S
C145 H158 0.950 . S
C146 C145 1.369 . S
C146 C147 1.392 1_556 S
C146 H159 0.951 . S
C147 C146 1.392 1_554 S
C147 C149 1.384 . S
H148 C150 0.949 . S
C149 C147 1.384 . S
C149 C150 1.385 . S
C149 H151 0.950 . S
C150 C144 1.404 . S
C150 H148 0.949 . S
C150 C149 1.385 . S
H151 C149 0.950 . S
H152 C136 0.951 . S
H153 C138 0.951 . S
H154 C140 0.951 . S
H155 C141 0.950 . S
H156 C142 0.950 . S
H157 C143 0.950 1_556 S
H158 C145 0.950 . S
H159 C146 0.951 . S
C160 C161 1.386 . S
C160 C162 1.383 . S
C160 H176 0.951 . S
C161 C160 1.386 . S
C161 C165 1.383 . S
C162 C160 1.383 . S
C162 C163 1.402 . S
C162 H177 0.951 . S
C163 C162 1.402 . S
C163 C164 1.375 . S
C163 C166 1.481 . S
C164 C163 1.375 . S
C164 C165 1.367 . S
C164 H178 0.951 . S
C165 C161 1.383 . S
C165 C164 1.367 . S
C165 H179 0.950 . S
C166 C163 1.481 . S
C166 C167 1.297 . S
C166 H180 0.950 . S
C167 C166 1.297 . S
C167 C168 1.479 . S
C167 H181 0.950 . S
C168 C167 1.479 . S
C168 C169 1.375 . S
C168 C174 1.404 . S
C169 C168 1.375 . S
C169 C170 1.369 . S
C169 H182 0.950 . S
C170 C169 1.369 . S
C170 C171 1.392 . S
C170 H183 0.951 . S
C171 C170 1.392 . S
C171 C173 1.384 . S
H172 C174 0.949 . S
C173 C171 1.384 . S
C173 C174 1.385 . S
C173 H175 0.950 . S
C174 C168 1.404 . S
C174 H172 0.949 . S
C174 C173 1.385 . S
H175 C173 0.950 . S
H176 C160 0.951 . S
H177 C162 0.951 . S
H178 C164 0.951 . S
H179 C165 0.950 . S
H180 C166 0.950 . S
H181 C167 0.950 . S
H182 C169 0.950 . S
H183 C170 0.951 . S
C184 C185 1.386 . S
C184 C186 1.383 . S
C184 H200 0.951 . S
C185 C184 1.386 . S
C185 C189 1.383 . S
C186 C184 1.383 . S
C186 C187 1.402 . S
C186 H201 0.951 . S
C187 C186 1.402 . S
C187 C188 1.375 . S
C187 C190 1.481 . S
C188 C187 1.375 . S
C188 C189 1.367 . S
C188 H202 0.951 . S
C189 C185 1.383 . S
C189 C188 1.367 . S
C189 H203 0.950 . S
C190 C187 1.481 . S
C190 C191 1.297 . S
C190 H204 0.950 . S
C191 C190 1.297 . S
C191 C192 1.479 . S
C191 H205 0.950 . S
C192 C191 1.479 . S
C192 C193 1.375 . S
C192 C198 1.404 . S
C193 C192 1.375 . S
C193 C194 1.369 . S
C193 H206 0.950 . S
C194 C193 1.369 . S
C194 C195 1.392 . S
C194 H207 0.951 . S
C195 C194 1.392 . S
C195 C197 1.384 . S
H196 C198 0.949 . S
C197 C195 1.384 . S
C197 C198 1.385 . S
C197 H199 0.950 . S
C198 C192 1.404 . S
C198 H196 0.949 . S
C198 C197 1.385 . S
H199 C197 0.950 . S
H200 C184 0.951 . S
H201 C186 0.951 . S
H202 C188 0.951 . S
H203 C189 0.950 . S
H204 C190 0.950 . S
H205 C191 0.950 . S
H206 C193 0.950 . S
H207 C194 0.951 . S
C208 C209 1.386 . S
C208 C210 1.383 . S
C208 H224 0.951 . S
C209 C208 1.386 . S
C209 C213 1.383 . S
C210 C208 1.383 . S
C210 C211 1.402 . S
C210 H225 0.951 . S
C211 C210 1.402 . S
C211 C212 1.375 . S
C211 C214 1.481 . S
C212 C211 1.375 . S
C212 C213 1.367 . S
C212 H226 0.951 . S
C213 C209 1.383 . S
C213 C212 1.367 . S
C213 H227 0.950 . S
C214 C211 1.481 . S
C214 C215 1.297 . S
C214 H228 0.950 . S
C215 C214 1.297 . S
C215 C216 1.479 . S
C215 H229 0.950 . S
C216 C215 1.479 . S
C216 C217 1.375 . S
C216 C222 1.404 . S
C217 C216 1.375 . S
C217 C218 1.369 . S
C217 H230 0.950 . S
C218 C217 1.369 . S
C218 C219 1.392 . S
C218 H231 0.951 . S
C219 C218 1.392 . S
C219 C221 1.384 . S
H220 C222 0.949 . S
C221 C219 1.384 . S
C221 C222 1.385 . S
C221 H223 0.950 . S
C222 C216 1.404 . S
C222 H220 0.949 . S
C222 C221 1.385 . S
H223 C221 0.950 . S
H224 C208 0.951 . S
H225 C210 0.951 . S
H226 C212 0.951 . S
H227 C213 0.950 . S
H228 C214 0.950 . S
H229 C215 0.950 . S
H230 C217 0.950 . S
H231 C218 0.951 . S
C232 C233 1.386 . S
C232 C234 1.383 . S
C232 H248 0.951 . S
C233 C232 1.386 . S
C233 C237 1.383 . S
C234 C232 1.383 . S
C234 C235 1.402 . S
C234 H249 0.951 . S
C235 C234 1.402 . S
C235 C236 1.375 . S
C235 C238 1.481 . S
C236 C235 1.375 . S
C236 C237 1.367 . S
C236 H250 0.951 . S
C237 C233 1.383 . S
C237 C236 1.367 . S
C237 H251 0.950 . S
C238 C235 1.481 . S
C238 C239 1.297 . S
C238 H252 0.950 . S
C239 C238 1.297 . S
C239 C240 1.479 . S
C239 H253 0.950 . S
C240 C239 1.479 . S
C240 C241 1.375 . S
C240 C246 1.404 . S
C241 C240 1.375 . S
C241 C242 1.369 . S
C241 H254 0.950 . S
C242 C241 1.369 . S
C242 C243 1.392 . S
C242 H255 0.951 . S
C243 C242 1.392 . S
C243 C245 1.384 . S
H244 C246 0.949 . S
C245 C243 1.384 . S
C245 C246 1.385 . S
C245 H247 0.950 . S
C246 C240 1.404 . S
C246 H244 0.949 . S
C246 C245 1.385 . S
H247 C245 0.950 . S
H248 C232 0.951 . S
H249 C234 0.951 . S
H250 C236 0.951 . S
H251 C237 0.950 . S
H252 C238 0.950 . S
H253 C239 0.950 . S
H254 C241 0.950 . S
H255 C242 0.951 . S
C256 C257 1.386 . S
C256 C258 1.383 . S
C256 H272 0.951 . S
C257 C256 1.386 . S
C257 C261 1.383 . S
C258 C256 1.383 . S
C258 C259 1.402 . S
C258 H273 0.951 . S
C259 C258 1.402 . S
C259 C260 1.375 . S
C259 C262 1.481 . S
C260 C259 1.375 . S
C260 C261 1.367 . S
C260 H274 0.951 . S
C261 C257 1.383 . S
C261 C260 1.367 . S
C261 H275 0.950 . S
C262 C259 1.481 . S
C262 C263 1.297 . S
C262 H276 0.950 . S
C263 C262 1.297 . S
C263 C264 1.479 . S
C263 H277 0.950 . S
C264 C263 1.479 . S
C264 C265 1.375 . S
C264 C270 1.404 . S
C265 C264 1.375 . S
C265 C266 1.369 . S
C265 H278 0.950 . S
C266 C265 1.369 . S
C266 C267 1.392 . S
C266 H279 0.951 . S
C267 C266 1.392 . S
C267 C269 1.384 . S
H268 C270 0.949 . S
C269 C267 1.384 . S
C269 C270 1.385 . S
C269 H271 0.950 . S
C270 C264 1.404 . S
C270 H268 0.949 . S
C270 C269 1.385 . S
H271 C269 0.950 . S
H272 C256 0.951 . S
H273 C258 0.951 . S
H274 C260 0.951 . S
H275 C261 0.950 . S
H276 C262 0.950 . S
H277 C263 0.950 . S
H278 C265 0.950 . S
H279 C266 0.951 . S
C280 C281 1.386 . S
C280 C282 1.383 . S
C280 H296 0.951 . S
C281 C280 1.386 . S
C281 C285 1.383 . S
C282 C280 1.383 . S
C282 C283 1.402 . S
C282 H297 0.951 . S
C283 C282 1.402 . S
C283 C284 1.375 . S
C283 C286 1.481 . S
C284 C283 1.375 . S
C284 C285 1.367 . S
C284 H298 0.951 . S
C285 C281 1.383 . S
C285 C284 1.367 . S
C285 H299 0.950 . S
C286 C283 1.481 . S
C286 C287 1.297 . S
C286 H300 0.950 . S
C287 C286 1.297 . S
C287 C288 1.479 . S
C287 H301 0.950 . S
C288 C287 1.479 . S
C288 C289 1.375 . S
C288 C294 1.404 . S
C289 C288 1.375 . S
C289 C290 1.369 . S
C289 H302 0.950 . S
C290 C289 1.369 . S
C290 C291 1.392 . S
C290 H303 0.951 . S
C291 C290 1.392 . S
C291 C293 1.384 . S
H292 C294 0.949 . S
C293 C291 1.384 . S
C293 C294 1.385 . S
C293 H295 0.950 . S
C294 C288 1.404 . S
C294 H292 0.949 . S
C294 C293 1.385 . S
H295 C293 0.950 . S
H296 C280 0.951 . S
H297 C282 0.951 . S
H298 C284 0.951 . S
H299 C285 0.950 . S
H300 C286 0.950 . S
H301 C287 0.950 . S
H302 C289 0.950 . S
H303 C290 0.951 . S
C304 C305 1.386 . S
C304 C306 1.383 . S
C304 H320 0.951 1_565 S
C305 C304 1.386 . S
C305 C309 1.383 . S
C306 C304 1.383 . S
C306 C307 1.402 . S
C306 H321 0.951 1_565 S
C307 C306 1.402 . S
C307 C308 1.375 . S
C307 C310 1.481 . S
C308 C307 1.375 . S
C308 C309 1.367 . S
C308 H322 0.951 . S
C309 C305 1.383 . S
C309 C308 1.367 . S
C309 H323 0.950 . S
C310 C307 1.481 . S
C310 C311 1.297 1_565 S
C310 H324 0.950 . S
C311 C310 1.297 1_545 S
C311 C312 1.479 . S
C311 H325 0.950 . S
C312 C311 1.479 . S
C312 C313 1.375 . S
C312 C318 1.404 . S
C313 C312 1.375 . S
C313 C314 1.369 . S
C313 H326 0.950 . S
C314 C313 1.369 . S
C314 C315 1.392 . S
C314 H327 0.951 . S
C315 C314 1.392 . S
C315 C317 1.384 . S
H316 C318 0.949 1_565 S
C317 C315 1.384 . S
C317 C318 1.385 . S
C317 H319 0.950 . S
C318 C312 1.404 . S
C318 H316 0.949 1_545 S
C318 C317 1.385 . S
H319 C317 0.950 . S
H320 C304 0.951 1_545 S
H321 C306 0.951 1_545 S
H322 C308 0.951 . S
H323 C309 0.950 . S
H324 C310 0.950 . S
H325 C311 0.950 . S
H326 C313 0.950 . S
H327 C314 0.951 . S
C328 C329 1.386 . S
C328 C330 1.383 . S
C328 H344 0.951 1_565 S
C329 C328 1.386 . S
C329 C333 1.383 . S
C330 C328 1.383 . S
C330 C331 1.402 . S
C330 H345 0.951 1_565 S
C331 C330 1.402 . S
C331 C332 1.375 . S
C331 C334 1.481 . S
C332 C331 1.375 . S
C332 C333 1.367 . S
C332 H346 0.951 . S
C333 C329 1.383 . S
C333 C332 1.367 . S
C333 H347 0.950 . S
C334 C331 1.481 . S
C334 C335 1.297 1_565 S
C334 H348 0.950 . S
C335 C334 1.297 1_545 S
C335 C336 1.479 . S
C335 H349 0.950 . S
C336 C335 1.479 . S
C336 C337 1.375 . S
C336 C342 1.404 1_545 S
C337 C336 1.375 . S
C337 C338 1.369 . S
C337 H350 0.950 . S
C338 C337 1.369 . S
C338 C339 1.392 . S
C338 H351 0.951 . S
C339 C338 1.392 . S
C339 C341 1.384 . S
H340 C342 0.949 . S
C341 C339 1.384 . S
C341 C342 1.385 1_545 S
C341 H343 0.950 1_545 S
C342 C336 1.404 1_565 S
C342 H340 0.949 . S
C342 C341 1.385 1_565 S
H343 C341 0.950 1_565 S
H344 C328 0.951 1_545 S
H345 C330 0.951 1_545 S
H346 C332 0.951 . S
H347 C333 0.950 . S
H348 C334 0.950 . S
H349 C335 0.950 . S
H350 C337 0.950 . S
H351 C338 0.951 . S
C352 C353 1.386 . S
C352 C354 1.383 . S
C352 H368 0.951 . S
C353 C352 1.386 . S
C353 C357 1.383 . S
C354 C352 1.383 . S
C354 C355 1.402 . S
C354 H369 0.951 . S
C355 C354 1.402 . S
C355 C356 1.375 1_565 S
C355 C358 1.481 1_565 S
C356 C355 1.375 1_545 S
C356 C357 1.367 1_545 S
C356 H370 0.951 . S
C357 C353 1.383 . S
C357 C356 1.367 1_565 S
C357 H371 0.950 1_565 S
C358 C355 1.481 1_545 S
C358 C359 1.297 1_545 S
C358 H372 0.950 . S
C359 C358 1.297 1_565 S
C359 C360 1.479 1_565 S
C359 H373 0.950 . S
C360 C359 1.479 1_545 S
C360 C361 1.375 1_545 S
C360 C366 1.404 . S
C361 C360 1.375 1_565 S
C361 C362 1.369 1_565 S
C361 H374 0.950 . S
C362 C361 1.369 1_545 S
C362 C363 1.392 . S
C362 H375 0.951 1_545 S
C363 C362 1.392 . S
C363 C365 1.384 . S
H364 C366 0.949 . S
C365 C363 1.384 . S
C365 C366 1.385 . S
C365 H367 0.950 . S
C366 C360 1.404 . S
C366 H364 0.949 . S
C366 C365 1.385 . S
H367 C365 0.950 . S
H368 C352 0.951 . S
H369 C354 0.951 . S
H370 C356 0.951 . S
H371 C357 0.950 1_545 S
H372 C358 0.950 . S
H373 C359 0.950 . S
H374 C361 0.950 . S
H375 C362 0.951 1_565 S
C376 C377 1.386 . S
C376 C378 1.383 . S
C376 H392 0.951 1_565 S
C377 C376 1.386 . S
C377 C381 1.383 . S
C378 C376 1.383 . S
C378 C379 1.402 . S
C378 H393 0.951 1_565 S
C379 C378 1.402 . S
C379 C380 1.375 . S
C379 C382 1.481 . S
C380 C379 1.375 . S
C380 C381 1.367 . S
C380 H394 0.951 . S
C381 C377 1.383 . S
C381 C380 1.367 . S
C381 H395 0.950 . S
C382 C379 1.481 . S
C382 C383 1.297 1_565 S
C382 H396 0.950 . S
C383 C382 1.297 1_545 S
C383 C384 1.479 . S
C383 H397 0.950 . S
C384 C383 1.479 . S
C384 C385 1.375 . S
C384 C390 1.404 1_545 S
C385 C384 1.375 . S
C385 C386 1.369 . S
C385 H398 0.950 . S
C386 C385 1.369 . S
C386 C387 1.392 . S
C386 H399 0.951 . S
C387 C386 1.392 . S
C387 C389 1.384 . S
H388 C390 0.949 . S
C389 C387 1.384 . S
C389 C390 1.385 1_545 S
C389 H391 0.950 1_545 S
C390 C384 1.404 1_565 S
C390 H388 0.949 . S
C390 C389 1.385 1_565 S
H391 C389 0.950 1_565 S
H392 C376 0.951 1_545 S
H393 C378 0.951 1_545 S
H394 C380 0.951 . S
H395 C381 0.950 . S
H396 C382 0.950 . S
H397 C383 0.950 . S
H398 C385 0.950 . S
H399 C386 0.951 . S
C400 C401 1.386 1_556 S
C400 C402 1.383 . S
C400 H416 0.951 . S
C401 C400 1.386 1_554 S
C401 C405 1.383 . S
C402 C400 1.383 . S
C402 C403 1.402 1_556 S
C402 H417 0.951 . S
C403 C402 1.402 1_554 S
C403 C404 1.375 . S
C403 C406 1.481 1_565 S
C404 C403 1.375 . S
C404 C405 1.367 . S
C404 H418 0.951 1_565 S
C405 C401 1.383 . S
C405 C404 1.367 . S
C405 H419 0.950 . S
C406 C403 1.481 1_545 S
C406 C407 1.297 1_554 S
C406 H420 0.950 . S
C407 C406 1.297 1_556 S
C407 C408 1.479 . S
C407 H421 0.950 1_545 S
C408 C407 1.479 . S
C408 C409 1.375 . S
C408 C414 1.404 1_556 S
C409 C408 1.375 . S
C409 C410 1.369 . S
C409 H422 0.950 . S
C410 C409 1.369 . S
C410 C411 1.392 1_556 S
C410 H423 0.951 . S
C411 C410 1.392 1_554 S
C411 C413 1.384 . S
H412 C414 0.949 . S
C413 C411 1.384 . S
C413 C414 1.385 . S
C413 H415 0.950 . S
C414 C408 1.404 1_554 S
C414 H412 0.949 . S
C414 C413 1.385 . S
H415 C413 0.950 . S
H416 C400 0.951 . S
H417 C402 0.951 . S
H418 C404 0.951 1_545 S
H419 C405 0.950 . S
H420 C406 0.950 . S
H421 C407 0.950 1_565 S
H422 C409 0.950 . S
H423 C410 0.951 . S
C424 C425 1.386 . S
C424 C426 1.383 . S
C424 H440 0.951 . S
C425 C424 1.386 . S
C425 C429 1.383 . S
C426 C424 1.383 . S
C426 C427 1.402 . S
C426 H441 0.949 1_565 S
C427 C426 1.402 . S
C427 C428 1.375 . S
C427 C430 1.481 . S
C428 C427 1.375 . S
C428 C429 1.367 . S
C428 H442 0.951 . S
C429 C425 1.383 . S
C429 C428 1.367 . S
C429 H443 0.950 . S
C430 C427 1.481 . S
C430 C431 1.297 1_565 S
C430 H444 0.950 . S
C431 C430 1.297 1_545 S
C431 C432 1.479 . S
C431 H445 0.950 . S
C432 C431 1.479 . S
C432 C433 1.375 . S
C432 C438 1.404 . S
C433 C432 1.375 . S
C433 C434 1.369 . S
C433 H446 0.950 . S
C434 C433 1.369 . S
C434 C435 1.392 . S
C434 H447 0.951 . S
C435 C434 1.392 . S
C435 C437 1.384 . S
H436 C438 0.949 . S
C437 C435 1.384 . S
C437 C438 1.385 . S
C437 H439 0.950 . S
C438 C432 1.404 . S
C438 H436 0.949 . S
C438 C437 1.385 . S
H439 C437 0.950 . S
H440 C424 0.951 . S
H441 C426 0.949 1_545 S
H442 C428 0.951 . S
H443 C429 0.950 . S
H444 C430 0.950 . S
H445 C431 0.950 . S
H446 C433 0.950 . S
H447 C434 0.951 . S
C448 C449 1.386 . S
C448 C450 1.383 . S
C448 H464 0.951 . S
C449 C448 1.386 . S
C449 C453 1.383 . S
C450 C448 1.383 . S
C450 C451 1.402 1_554 S
C450 H465 0.951 . S
C451 C450 1.402 1_556 S
C451 C452 1.374 1_556 S
C451 C454 1.481 . S
C452 C451 1.374 1_554 S
C452 C453 1.368 . S
C452 H466 0.951 1_554 S
C453 C449 1.383 . S
C453 C452 1.368 . S
C453 H467 0.950 . S
C454 C451 1.481 . S
C454 C455 1.297 1_455 S
C454 H468 0.950 . S
C455 C454 1.297 1_655 S
C455 C456 1.479 . S
C455 H469 0.950 . S
C456 C455 1.479 . S
C456 C457 1.375 . S
C456 C462 1.404 . S
C457 C456 1.375 . S
C457 C458 1.369 1_556 S
C457 H470 0.950 . S
C458 C457 1.369 1_554 S
C458 C459 1.392 . S
C458 H471 0.951 . S
C459 C458 1.392 . S
C459 C461 1.384 1_554 S
H460 C462 0.949 . S
C461 C459 1.384 1_556 S
C461 C462 1.385 . S
C461 H463 0.950 . S
C462 C456 1.404 . S
C462 H460 0.949 . S
C462 C461 1.385 . S
H463 C461 0.950 . S
H464 C448 0.951 . S
H465 C450 0.951 . S
H466 C452 0.951 1_556 S
H467 C453 0.950 . S
H468 C454 0.950 . S
H469 C455 0.950 . S
H470 C457 0.950 . S
H471 C458 0.951 . S
C472 C473 1.386 . S
C472 C474 1.383 . S
C472 H488 0.951 . S
C473 C472 1.386 . S
C473 C477 1.383 . S
C474 C472 1.383 . S
C474 C475 1.402 . S
C474 H489 0.951 . S
C475 C474 1.402 . S
C475 C476 1.375 . S
C475 C478 1.481 . S
C476 C475 1.375 . S
C476 C477 1.367 . S
C476 H490 0.951 . S
C477 C473 1.383 . S
C477 C476 1.367 . S
C477 H491 0.950 . S
C478 C475 1.481 . S
C478 C479 1.297 1_455 S
C478 H492 0.950 1_455 S
C479 C478 1.297 1_655 S
C479 C480 1.479 . S
C479 H493 0.950 . S
C480 C479 1.479 . S
C480 C481 1.375 . S
C480 C486 1.404 . S
C481 C480 1.375 . S
C481 C482 1.369 . S
C481 H494 0.950 . S
C482 C481 1.369 . S
C482 C483 1.392 . S
C482 H495 0.951 . S
C483 C482 1.392 . S
C483 C485 1.384 . S
H484 C486 0.949 . S
C485 C483 1.384 . S
C485 C486 1.385 . S
C485 H487 0.950 . S
C486 C480 1.404 . S
C486 H484 0.949 . S
C486 C485 1.385 . S
H487 C485 0.950 . S
H488 C472 0.951 . S
H489 C474 0.951 . S
H490 C476 0.951 . S
H491 C477 0.950 . S
H492 C478 0.950 1_655 S
H493 C479 0.950 . S
H494 C481 0.950 . S
H495 C482 0.951 . S
C113 C75 1.497 . S
C123 C5 1.480 . S
C137 C61 1.494 . S
C147 C19 1.496 . S
C161 C103 1.499 . S
C171 C33 1.480 . S
C185 C89 1.498 . S
C195 C47 1.493 . S
C209 C0 1.404 . S
C219 C28 1.407 . S
C233 C14 1.395 . S
C243 C42 1.377 . S
C257 C23 1.388 . S
C267 C51 1.392 . S
C281 C9 1.393 . S
C291 C37 1.410 . S
C305 C56 1.411 . S
C315 C84 1.412 . S
C329 C98 1.407 . S
C339 C70 1.410 . S
C353 C107 1.408 . S
C363 C79 1.396 . S
C377 C65 1.388 . S
C387 C93 1.391 . S
C401 C25 1.486 . S
C411 C11 1.488 . S
C425 C39 1.500 . S
C435 C53 1.494 . S
C449 C67 1.487 . S
C459 C81 1.481 . S
C473 C95 1.496 . S
C483 C109 1.474 . S
