# Generated by pormake.
# Topology vcn, (7)-cn, num edge types: 1
# Building blocks:
#     Node 0, Type 0, BuildingBlock: HICVOG_clean_sbu_0, # of connection points: 7
#     Node 1, Type 0, BuildingBlock: HICVOG_clean_sbu_0, # of connection points: 7
#     Node 2, Type 0, BuildingBlock: HICVOG_clean_sbu_0, # of connection points: 7
#     Node 3, Type 0, BuildingBlock: HICVOG_clean_sbu_0, # of connection points: 7
#     Node 4, Type 0, BuildingBlock: HICVOG_clean_sbu_0, # of connection points: 7
#     Node 5, Type 0, BuildingBlock: HICVOG_clean_sbu_0, # of connection points: 7
#     Node 6, Type 0, BuildingBlock: HICVOG_clean_sbu_0, # of connection points: 7
#     Node 7, Type 0, BuildingBlock: HICVOG_clean_sbu_0, # of connection points: 7
#     Edge 8, Type (0, 0), BuildingBlock: TEMPAE_clean_linker_10, # of connection points: 2
#     Edge 9, Type (0, 0), BuildingBlock: TEMPAE_clean_linker_10, # of connection points: 2
#     Edge 10, Type (0, 0), BuildingBlock: TEMPAE_clean_linker_10, # of connection points: 2
#     Edge 11, Type (0, 0), BuildingBlock: TEMPAE_clean_linker_10, # of connection points: 2
#     Edge 12, Type (0, 0), BuildingBlock: TEMPAE_clean_linker_10, # of connection points: 2
#     Edge 13, Type (0, 0), BuildingBlock: TEMPAE_clean_linker_10, # of connection points: 2
#     Edge 14, Type (0, 0), BuildingBlock: TEMPAE_clean_linker_10, # of connection points: 2
#     Edge 15, Type (0, 0), BuildingBlock: TEMPAE_clean_linker_10, # of connection points: 2
#     Edge 16, Type (0, 0), BuildingBlock: TEMPAE_clean_linker_10, # of connection points: 2
#     Edge 17, Type (0, 0), BuildingBlock: TEMPAE_clean_linker_10, # of connection points: 2
#     Edge 18, Type (0, 0), BuildingBlock: TEMPAE_clean_linker_10, # of connection points: 2
#     Edge 19, Type (0, 0), BuildingBlock: TEMPAE_clean_linker_10, # of connection points: 2
#     Edge 20, Type (0, 0), BuildingBlock: TEMPAE_clean_linker_10, # of connection points: 2
#     Edge 21, Type (0, 0), BuildingBlock: TEMPAE_clean_linker_10, # of connection points: 2
#     Edge 22, Type (0, 0), BuildingBlock: TEMPAE_clean_linker_10, # of connection points: 2
#     Edge 23, Type (0, 0), BuildingBlock: TEMPAE_clean_linker_10, # of connection points: 2
#     Edge 24, Type (0, 0), BuildingBlock: TEMPAE_clean_linker_10, # of connection points: 2
#     Edge 25, Type (0, 0), BuildingBlock: TEMPAE_clean_linker_10, # of connection points: 2
#     Edge 26, Type (0, 0), BuildingBlock: TEMPAE_clean_linker_10, # of connection points: 2
#     Edge 27, Type (0, 0), BuildingBlock: TEMPAE_clean_linker_10, # of connection points: 2
#     Edge 28, Type (0, 0), BuildingBlock: TEMPAE_clean_linker_10, # of connection points: 2
#     Edge 29, Type (0, 0), BuildingBlock: TEMPAE_clean_linker_10, # of connection points: 2
#     Edge 30, Type (0, 0), BuildingBlock: TEMPAE_clean_linker_10, # of connection points: 2
#     Edge 31, Type (0, 0), BuildingBlock: TEMPAE_clean_linker_10, # of connection points: 2
#     Edge 32, Type (0, 0), BuildingBlock: TEMPAE_clean_linker_10, # of connection points: 2
#     Edge 33, Type (0, 0), BuildingBlock: TEMPAE_clean_linker_10, # of connection points: 2
#     Edge 34, Type (0, 0), BuildingBlock: TEMPAE_clean_linker_10, # of connection points: 2
#     Edge 35, Type (0, 0), BuildingBlock: TEMPAE_clean_linker_10, # of connection points: 2
# Relax obj value: 0.238
# Max RMSD: 0.224
# Mean RMSD: 0.224
data_MOF--net-vcn--node1-HICVOG_clean_sbu_0--edge1-TEMPAE_clean_linker_10
_symmetry_space_group_name_H-M    P1
_symmetry_Int_Tables_number       1
_symmetry_cell_setting            triclinic
loop_
_symmetry_equiv_pos_as_xyz
'x, y, z'
_cell_length_a     40.849152
_cell_length_b     63.64101
_cell_length_c     14.604711
_cell_angle_alpha  89.990253
_cell_angle_beta   90.036816
_cell_angle_gamma 90.004597
loop_
_atom_site_label
_atom_site_type_symbol
_atom_site_fract_x
_atom_site_fract_y
_atom_site_fract_z
_atom_type_partial_charge
Zn0 Zn 0.11648 0.38041 0.14364 0.0
C1 C 0.06002 0.3361 0.02919 0.0
N2 N 0.06767 0.34622 0.95158 0.0
C3 C 0.08249 0.36372 0.98182 0.0
N4 N 0.08455 0.36418 0.07423 0.0
N5 N 0.06989 0.34687 0.1039 0.0
C6 C 0.07863 0.30894 0.298 0.0
O7 O 0.10362 0.32153 0.28404 0.0
O8 O 0.11795 0.40995 0.09282 0.0
Zn9 Zn 0.04787 0.34418 0.22057 0.0
N10 N 0.15852 0.36667 0.12446 0.0
C11 C 0.18737 0.33759 0.06152 0.0
C12 C 0.15824 0.3481 0.07827 0.0
C13 C 0.18705 0.37485 0.15742 0.0
N14 N 0.2157 0.3457 0.09398 0.0
C15 C 0.21672 0.36399 0.14234 0.0
O16 O 0.06766 0.36186 0.31946 0.0
C17 C 0.08935 0.37524 0.34167 0.0
O18 O 0.10894 0.38286 0.28238 0.0
H19 H 0.13562 0.34132 0.05451 0.0
H20 H 0.18623 0.38922 0.19674 0.0
C21 C 0.97455 0.34427 0.21688 0.0
C22 C 0.94493 0.35351 0.18712 0.0
C23 C 0.97486 0.38217 0.12525 0.0
C24 C 1.00392 0.37311 0.15474 0.0
N25 N 1.00346 0.35426 0.19857 0.0
N26 N 0.94621 0.37218 0.14175 0.0
H27 H 0.97464 0.32927 0.25184 0.0
C28 C 0.09763 0.42328 0.12406 0.0
O29 O 0.07636 0.41718 0.18608 0.0
O30 O 0.05024 0.31463 0.27161 0.0
H31 H 0.02696 0.38089 0.14146 0.0
H32 H 0.18747 0.32292 0.02409 0.0
H33 H 0.97501 0.39704 0.0893 0.0
Zn34 Zn 0.54022 0.62002 0.63157 0.0
C35 C 0.59167 0.66694 0.51885 0.0
N36 N 0.58326 0.65746 0.44035 0.0
C37 C 0.57007 0.63931 0.46906 0.0
N38 N 0.56971 0.63785 0.56146 0.0
N39 N 0.58391 0.65517 0.59257 0.0
C40 C 0.58107 0.69101 0.80805 0.0
O41 O 0.55872 0.67641 0.81945 0.0
O42 O 0.54221 0.59061 0.58089 0.0
Zn43 Zn 0.60806 0.65735 0.70621 0.0
N44 N 0.49627 0.63114 0.61216 0.0
C45 C 0.46321 0.65764 0.54347 0.0
C46 C 0.49383 0.64956 0.56524 0.0
C47 C 0.46892 0.62093 0.64211 0.0
N48 N 0.43605 0.64737 0.57196 0.0
C49 C 0.43783 0.6293 0.62152 0.0
O50 O 0.59039 0.63881 0.80621 0.0
C51 C 0.5688 0.62536 0.8286 0.0
O52 O 0.54866 0.61801 0.76997 0.0
H53 H 0.5154 0.65799 0.54404 0.0
H54 H 0.47138 0.60647 0.68052 0.0
C55 C 0.6814 0.65762 0.70274 0.0
C56 C 0.71128 0.64955 0.66871 0.0
C57 C 0.68192 0.62314 0.58837 0.0
C58 C 0.65263 0.631 0.62227 0.0
N59 N 0.65265 0.64824 0.67727 0.0
N60 N 0.71037 0.63259 0.61202 0.0
H61 H 0.68101 0.67125 0.74699 0.0
C62 C 0.56425 0.57813 0.6096 0.0
O63 O 0.58563 0.58497 0.66989 0.0
O64 O 0.60581 0.68701 0.75778 0.0
H65 H 0.62983 0.6235 0.60392 0.0
H66 H 0.46101 0.67209 0.50493 0.0
H67 H 0.68208 0.6096 0.54362 0.0
Zn68 Zn 0.04767 0.65288 0.81897 0.0
C69 C 0.08437 0.6344 0.05733 0.0
N70 N 0.06971 0.65202 0.08694 0.0
C71 C 0.06134 0.66174 1.00894 0.0
N72 N 0.07048 0.65058 0.93473 0.0
N73 N 0.08567 0.6335 0.96485 0.0
C74 C 0.09774 0.57527 0.92185 0.0
O75 O 0.07435 0.58197 0.86738 0.0
O76 O 0.04844 0.68282 0.76954 0.0
Zn77 Zn 0.1179 0.61753 0.89511 0.0
N78 N 1.00371 0.64177 0.84064 0.0
C79 C 0.97682 0.61255 0.90896 0.0
C80 C 1.0053 0.62326 0.88685 0.0
C81 C 0.97422 0.65003 0.81429 0.0
N82 N 0.94763 0.62055 0.88248 0.0
C83 C 0.94507 0.63894 0.83526 0.0
O84 O 0.1098 0.61484 0.75673 0.0
C85 C 0.08974 0.62207 0.69766 0.0
O86 O 0.06768 0.6352 0.71988 0.0
H87 H 0.02875 0.61675 0.90593 0.0
H88 H 0.9736 0.66456 0.7759 0.0
C89 C 0.18844 0.62407 0.87775 0.0
C90 C 0.2178 0.63537 0.89171 0.0
C91 C 0.18812 0.66099 0.97612 0.0
C92 C 0.15927 0.65007 0.96041 0.0
N93 N 0.15985 0.63168 0.91291 0.0
N94 N 0.21647 0.65347 0.94136 0.0
H95 H 0.18791 0.60982 0.83752 0.0
C96 C 0.07346 0.6875 0.72142 0.0
O97 O 0.09674 0.67345 0.71154 0.0
O98 O 0.12008 0.58804 0.94593 0.0
H99 H 0.13662 0.65645 0.98579 0.0
H100 H 0.97786 0.59784 0.94599 0.0
H101 H 0.18796 0.67553 0.01451 0.0
Zn102 Zn 0.60769 0.34793 0.31094 0.0
C103 C 0.56991 0.36524 0.5498 0.0
N104 N 0.58398 0.34733 0.57809 0.0
C105 C 0.59284 0.33811 0.49939 0.0
N106 N 0.58447 0.34981 0.42601 0.0
N107 N 0.56945 0.36682 0.45745 0.0
C108 C 0.56303 0.42602 0.41164 0.0
O109 O 0.58462 0.41905 0.35234 0.0
O110 O 0.60722 0.3181 0.25962 0.0
Zn111 Zn 0.53905 0.38427 0.38845 0.0
N112 N 0.65138 0.35916 0.33516 0.0
C113 C 0.6775 0.38809 0.40795 0.0
C114 C 0.64929 0.37747 0.38271 0.0
C115 C 0.6811 0.35108 0.31011 0.0
N116 N 0.70693 0.38023 0.38308 0.0
C117 C 0.71003 0.36209 0.3343 0.0
O118 O 0.54622 0.38647 0.24948 0.0
C119 C 0.56598 0.37904 0.19017 0.0
O120 O 0.58789 0.36579 0.21226 0.0
H121 H 0.62566 0.38385 0.40066 0.0
H122 H 0.68205 0.33673 0.27056 0.0
C123 C 0.46787 0.38261 0.38289 0.0
C124 C 0.43721 0.37375 0.40425 0.0
C125 C 0.46397 0.34528 0.4777 0.0
C126 C 0.49418 0.35382 0.45484 0.0
N127 N 0.49571 0.37255 0.40999 0.0
N128 N 0.43631 0.35538 0.45193 0.0
H129 H 0.46963 0.3973 0.34585 0.0
C130 C 0.58233 0.31358 0.21058 0.0
O131 O 0.55907 0.32765 0.20107 0.0
O132 O 0.54064 0.41368 0.43922 0.0
H133 H 0.51616 0.3455 0.47355 0.0
H134 H 0.67608 0.40261 0.44622 0.0
H135 H 0.46249 0.33058 0.51472 0.0
Zn136 Zn 0.61677 0.88416 0.12844 0.0
C137 C 0.56239 0.83827 0.01728 0.0
N138 N 0.57125 0.8475 0.93859 0.0
C139 C 0.58547 0.86537 0.96687 0.0
N140 N 0.58605 0.86689 0.05923 0.0
N141 N 0.57089 0.84994 0.09068 0.0
C142 C 0.57309 0.81406 0.30627 0.0
O143 O 0.59639 0.82813 0.31503 0.0
O144 O 0.61585 0.9136 0.07765 0.0
Zn145 Zn 0.54752 0.84819 0.20558 0.0
N146 N 0.66002 0.87212 0.10766 0.0
C147 C 0.69137 0.84473 0.03941 0.0
C148 C 0.66129 0.85351 0.06181 0.0
C149 C 0.68801 0.88182 0.13613 0.0
N150 N 0.71918 0.8545 0.06647 0.0
C151 C 0.71855 0.87273 0.1151 0.0
O152 O 0.56721 0.86614 0.30424 0.0
C153 C 0.58931 0.87925 0.3264 0.0
O154 O 0.60936 0.88644 0.26729 0.0
H155 H 0.63918 0.84547 0.04198 0.0
H156 H 0.68647 0.89642 0.1739 0.0
C157 C 0.47417 0.85091 0.20777 0.0
C158 C 0.44497 0.86172 0.18465 0.0
C159 C 0.47668 0.8878 0.10889 0.0
C160 C 0.50521 0.87737 0.13306 0.0
N161 N 0.50365 0.85914 0.18135 0.0
N162 N 0.44749 0.87983 0.13541 0.0
H163 H 0.4736 0.83661 0.24779 0.0
C164 C 0.59415 0.92629 0.1065 0.0
O165 O 0.57266 0.91964 0.16681 0.0
O166 O 0.54813 0.81849 0.25739 0.0
H167 H 0.52866 0.88386 0.11388 0.0
H168 H 0.69264 0.83014 1.00164 0.0
H169 H 0.47768 0.90229 0.07021 0.0
Zn170 Zn 0.04029 0.11744 0.63266 0.0
C171 C 0.09895 0.15936 0.50777 0.0
N172 N 0.09568 0.14633 0.43615 0.0
C173 C 0.08027 0.12959 0.4711 0.0
N174 N 0.07395 0.13212 0.5614 0.0
N175 N 0.08677 0.15055 0.58495 0.0
C176 C 0.07569 0.1903 0.79387 0.0
O177 O 0.0534 0.17563 0.80433 0.0
O178 O 0.03602 0.08729 0.59035 0.0
Zn179 Zn 0.10619 0.15582 0.70461 0.0
N180 N 0.99912 0.1323 0.61215 0.0
C181 C 0.97217 0.16148 0.54357 0.0
C182 C 1.00053 0.15018 0.56123 0.0
C183 C 0.9702 0.12556 0.64858 0.0
N184 N 0.94347 0.15478 0.5794 0.0
C185 C 0.94129 0.13718 0.63219 0.0
O186 O 0.08631 0.13866 0.80652 0.0
C187 C 0.06588 0.12457 0.82978 0.0
O188 O 0.04776 0.11557 0.77069 0.0
H189 H 0.02346 0.15569 0.53374 0.0
H190 H 0.97015 0.11169 0.69129 0.0
C191 C 0.18069 0.15542 0.70326 0.0
C192 C 0.20988 0.14372 0.68986 0.0
C193 C 0.17788 0.11307 0.66301 0.0
C194 C 0.14946 0.12454 0.6763 0.0
N195 N 0.15112 0.1454 0.69544 0.0
N196 N 0.20714 0.12287 0.67006 0.0
H197 H 0.18141 0.17207 0.71808 0.0
C198 C 0.06122 0.07649 0.57046 0.0
O199 O 0.09027 0.08529 0.57381 0.0
O200 O 0.10144 0.18612 0.74795 0.0
H201 H 0.12591 0.11688 0.671 0.0
H202 H 0.97297 0.1756 0.50238 0.0
H203 H 0.17677 0.09647 0.64729 0.0
Zn204 Zn 0.54815 0.15704 0.80793 0.0
C205 C 0.58516 0.13879 0.04703 0.0
N206 N 0.57119 0.15666 0.07623 0.0
C207 C 0.56243 0.16617 0.99808 0.0
N208 N 0.57066 0.15461 0.92411 0.0
N209 N 0.58568 0.1375 0.95461 0.0
C210 C 0.59485 0.07832 0.90636 0.0
O211 O 0.57341 0.08498 0.84586 0.0
O212 O 0.54936 0.18685 0.75823 0.0
Zn213 Zn 0.61689 0.12056 0.88524 0.0
N214 N 0.50412 0.14592 0.82734 0.0
C215 C 0.47801 0.11484 0.88029 0.0
C216 C 0.50623 0.12598 0.85993 0.0
C217 C 0.47435 0.15531 0.81333 0.0
N218 N 0.44854 0.12403 0.86674 0.0
C219 C 0.44535 0.14397 0.8338 0.0
O220 O 0.60958 0.11833 0.74647 0.0
C221 C 0.59003 0.12597 0.68707 0.0
O222 O 0.56829 0.13932 0.70919 0.0
H223 H 0.52995 0.11882 0.87017 0.0
H224 H 0.47344 0.17126 0.78795 0.0
C225 C 0.68821 0.12352 0.87758 0.0
C226 C 0.71855 0.13303 0.89772 0.0
C227 C 0.69067 0.16094 0.97204 0.0
C228 C 0.6608 0.15172 0.9506 0.0
N229 N 0.65998 0.13298 0.90579 0.0
N230 N 0.71871 0.15143 0.94524 0.0
H231 H 0.68701 0.10879 0.84073 0.0
C232 C 0.57475 0.19126 0.7112 0.0
O233 O 0.59801 0.17712 0.70358 0.0
O234 O 0.61647 0.09105 0.9356 0.0
H235 H 0.63849 0.15955 0.97032 0.0
H236 H 0.47944 0.09897 0.90651 0.0
H237 H 0.69159 0.17567 1.00893 0.0
Zn238 Zn 0.10818 0.84319 0.31952 0.0
C239 C 0.07225 0.86359 0.55469 0.0
N240 N 0.08573 0.84573 0.58586 0.0
C241 C 0.09299 0.83533 0.50869 0.0
N242 N 0.08441 0.84636 0.43352 0.0
N243 N 0.0706 0.86404 0.46216 0.0
C244 C 0.06082 0.92055 0.45351 0.0
O245 O 0.08974 0.9116 0.44953 0.0
O246 O 0.10542 0.81324 0.27119 0.0
Zn247 Zn 0.039 0.87992 0.38952 0.0
N248 N 0.15301 0.85225 0.34651 0.0
C249 C 0.18256 0.87785 0.43208 0.0
C250 C 0.15319 0.86981 0.39955 0.0
C251 C 0.18169 0.84271 0.3216 0.0
N252 N 0.21093 0.86825 0.40901 0.0
C253 C 0.21167 0.85096 0.35423 0.0
O254 O 0.04856 0.88183 0.25257 0.0
C255 C 0.06885 0.8745 0.19451 0.0
O256 O 0.09063 0.86121 0.21743 0.0
H257 H 0.13049 0.87743 0.4174 0.0
H258 H 0.18116 0.82882 0.27888 0.0
C259 C 0.96864 0.87381 0.36916 0.0
C260 C 0.93891 0.86289 0.38275 0.0
C261 C 0.9676 0.8371 0.46897 0.0
C262 C 0.99679 0.84771 0.45411 0.0
N263 N 0.99687 0.86597 0.40558 0.0
N264 N 0.93958 0.84486 0.43298 0.0
H265 H 0.9697 0.888 0.32859 0.0
C266 C 0.08044 0.8091 0.22194 0.0
O267 O 0.05813 0.82371 0.21015 0.0
O268 O 0.03548 0.90992 0.43336 0.0
H269 H 0.01914 0.84127 0.48133 0.0
H270 H 0.18286 0.89165 0.47529 0.0
H271 H 0.96722 0.82265 0.50802 0.0
C272 C 0.40193 0.38861 0.2799 0.0
C273 C 0.40583 0.3826 0.37159 0.0
C274 C 0.37049 0.39091 0.24192 0.0
C275 C 0.34259 0.38719 0.29727 0.0
C276 C 0.34661 0.38359 0.39225 0.0
C277 C 0.37821 0.38118 0.42808 0.0
C278 C 0.36733 0.39491 0.14048 0.0
C279 C 0.31762 0.37982 0.4542 0.0
C280 C 0.25552 0.39186 0.20416 0.0
C281 C 0.2488 0.37085 0.18084 0.0
C282 C 0.28616 0.39766 0.24079 0.0
C283 C 0.31056 0.38214 0.25384 0.0
C284 C 0.30406 0.36106 0.22905 0.0
C285 C 0.27342 0.35573 0.19329 0.0
C286 C 0.29233 0.42029 0.26626 0.0
C287 C 0.32932 0.34392 0.24175 0.0
H288 H 0.4232 0.38962 0.23577 0.0
H289 H 0.38123 0.37675 0.49931 0.0
H290 H 0.36275 0.37979 0.10485 0.0
H291 H 0.34637 0.40546 0.12565 0.0
H292 H 0.38998 0.40196 0.1117 0.0
H293 H 0.32435 0.38134 0.52763 0.0
H294 H 0.29751 0.39098 0.43879 0.0
H295 H 0.30814 0.36369 0.44268 0.0
H296 H 0.23714 0.40385 0.19315 0.0
H297 H 0.26867 0.33944 0.17621 0.0
H298 H 0.31452 0.42617 0.23078 0.0
H299 H 0.29702 0.42152 0.34089 0.0
H300 H 0.27135 0.43063 0.24854 0.0
H301 H 0.35223 0.34809 0.20529 0.0
H302 H 0.32073 0.32845 0.21595 0.0
H303 H 0.33538 0.34225 0.31546 0.0
C304 C 0.25764 0.60831 0.82845 0.0
C305 C 0.24984 0.62921 0.85091 0.0
C306 C 0.28841 0.60314 0.79093 0.0
C307 C 0.31184 0.61919 0.77598 0.0
C308 C 0.30415 0.6402 0.79932 0.0
C309 C 0.27342 0.64489 0.83608 0.0
C310 C 0.29584 0.58058 0.76706 0.0
C311 C 0.32827 0.6579 0.78434 0.0
C312 C 0.40354 0.61462 0.74854 0.0
C313 C 0.40689 0.62017 0.65614 0.0
C314 C 0.37233 0.61192 0.78746 0.0
C315 C 0.34407 0.61475 0.73236 0.0
C316 C 0.34764 0.61796 0.63699 0.0
C317 C 0.37902 0.62079 0.60022 0.0
C318 C 0.36966 0.60838 0.88932 0.0
C319 C 0.3183 0.62079 0.57529 0.0
H320 H 0.24003 0.59594 0.84116 0.0
H321 H 0.26778 0.66111 0.85234 0.0
H322 H 0.30133 0.57922 0.69291 0.0
H323 H 0.31794 0.57524 0.80464 0.0
H324 H 0.27519 0.56989 0.78376 0.0
H325 H 0.31881 0.67327 0.8088 0.0
H326 H 0.35154 0.65451 0.82068 0.0
H327 H 0.33401 0.65933 0.71036 0.0
H328 H 0.425 0.61424 0.79221 0.0
H329 H 0.3816 0.62488 0.52848 0.0
H330 H 0.34946 0.59734 0.90549 0.0
H331 H 0.36412 0.62354 0.92349 0.0
H332 H 0.39281 0.60212 0.91848 0.0
H333 H 0.29886 0.60925 0.59204 0.0
H334 H 0.3249 0.61909 0.50187 0.0
H335 H 0.30797 0.63674 0.58564 0.0
C336 C 0.76792 0.65966 0.62507 0.0
C337 C 0.74399 0.65798 0.69354 0.0
C338 C 0.80124 0.66162 0.64706 0.0
C339 C 0.81106 0.66153 0.74004 0.0
C340 C 0.78673 0.66187 0.80946 0.0
C341 C 0.75339 0.66014 0.78536 0.0
C342 C 0.82606 0.66153 0.57052 0.0
C343 C 0.796 0.66186 0.90943 0.0
C344 C 0.88795 0.63007 0.79009 0.0
C345 C 0.91165 0.64565 0.80571 0.0
C346 C 0.85543 0.63516 0.76931 0.0
C347 C 0.84588 0.6565 0.76355 0.0
C348 C 0.86966 0.67244 0.77771 0.0
C349 C 0.90233 0.66684 0.79865 0.0
C350 C 0.83122 0.61754 0.75378 0.0
C351 C 0.86045 0.69536 0.77217 0.0
H352 H 0.76072 0.65809 0.5539 0.0
H353 H 0.73506 0.65867 0.83861 0.0
H354 H 0.84617 0.67278 0.58469 0.0
H355 H 0.83706 0.64563 0.56494 0.0
H356 H 0.81476 0.66556 0.50357 0.0
H357 H 0.77494 0.6661 0.95384 0.0
H358 H 0.80455 0.64593 0.9291 0.0
H359 H 0.81637 0.67299 0.9226 0.0
H360 H 0.89482 0.61364 0.79433 0.0
H361 H 0.92022 0.67904 0.81186 0.0
H362 H 0.82081 0.61865 0.68376 0.0
H363 H 0.81061 0.61889 0.80286 0.0
H364 H 0.84251 0.60177 0.76192 0.0
H365 H 0.84833 0.69874 0.7058 0.0
H366 H 0.88203 0.70584 0.77962 0.0
H367 H 0.84262 0.69915 0.82699 0.0
C368 C 0.90182 0.33997 0.29416 0.0
C369 C 0.91211 0.34443 0.20476 0.0
C370 C 0.86825 0.33778 0.3146 0.0
C371 C 0.84466 0.33999 0.24381 0.0
C372 C 0.8554 0.34213 0.15213 0.0
C373 C 0.88893 0.34452 0.13392 0.0
C374 C 0.858 0.33542 0.41325 0.0
C375 C 0.83136 0.34424 0.07412 0.0
C376 C 0.75272 0.33448 0.29218 0.0
C377 C 0.74379 0.35555 0.30692 0.0
C378 C 0.78547 0.32897 0.27195 0.0
C379 C 0.80977 0.34486 0.26677 0.0
C380 C 0.80073 0.36608 0.28088 0.0
C381 C 0.76811 0.37109 0.3003 0.0
C382 C 0.79414 0.30619 0.25708 0.0
C383 C 0.82558 0.38366 0.27545 0.0
H384 H 0.91962 0.34007 0.34925 0.0
H385 H 0.89686 0.34789 0.06459 0.0
H386 H 0.84977 0.35089 0.43974 0.0
H387 H 0.83717 0.32433 0.41959 0.0
H388 H 0.87849 0.32979 0.45688 0.0
H389 H 0.84327 0.34167 1.00667 0.0
H390 H 0.81089 0.33292 0.08166 0.0
H391 H 0.82076 0.3603 0.07466 0.0
H392 H 0.73442 0.32225 0.2984 0.0
H393 H 0.76166 0.38745 0.3104 0.0
H394 H 0.81161 0.30098 0.31064 0.0
H395 H 0.8065 0.3042 0.19003 0.0
H396 H 0.77228 0.29582 0.25914 0.0
H397 H 0.84571 0.38082 0.32497 0.0
H398 H 0.81468 0.39928 0.29027 0.0
H399 H 0.83656 0.38416 0.20603 0.0
C400 C 0.77773 0.87984 0.09226 0.0
C401 C 0.75007 0.88123 0.14865 0.0
C402 C 0.80934 0.88207 0.12831 0.0
C403 C 0.81336 0.88544 0.22344 0.0
C404 C 0.78544 0.88902 0.27893 0.0
C405 C 0.75399 0.88692 0.2407 0.0
C406 C 0.83833 0.87847 0.06621 0.0
C407 C 0.78859 0.89274 0.38056 0.0
C408 C 0.88284 0.85423 0.32768 0.0
C409 C 0.90713 0.86951 0.3416 0.0
C410 C 0.85227 0.8594 0.29097 0.0
C411 C 0.84549 0.88048 0.26667 0.0
C412 C 0.86965 0.89613 0.28057 0.0
C413 C 0.90022 0.89049 0.31818 0.0
C414 C 0.82731 0.84213 0.27721 0.0
C415 C 0.86321 0.91876 0.25555 0.0
H416 H 0.77471 0.87564 0.02078 0.0
H417 H 0.73269 0.88789 0.28475 0.0
H418 H 0.85839 0.88964 0.082 0.0
H419 H 0.84789 0.86234 0.07719 0.0
H420 H 0.8316 0.88012 0.99283 0.0
H421 H 0.76584 0.89952 0.40992 0.0
H422 H 0.79352 0.87756 0.41531 0.0
H423 H 0.80935 0.90341 0.39581 0.0
H424 H 0.88778 0.83796 0.34473 0.0
H425 H 0.91835 0.90257 0.33024 0.0
H426 H 0.82134 0.84061 0.20338 0.0
H427 H 0.80429 0.84605 0.31368 0.0
H428 H 0.83612 0.82665 0.30234 0.0
H429 H 0.85745 0.92 0.18151 0.0
H430 H 0.88445 0.92908 0.27095 0.0
H431 H 0.84157 0.92465 0.29352 0.0
C432 C 0.88513 0.14769 0.68086 0.0
C433 C 0.9088 0.13178 0.67281 0.0
C434 C 0.8541 0.14367 0.71741 0.0
C435 C 0.84618 0.12317 0.74764 0.0
C436 C 0.86965 0.10689 0.73941 0.0
C437 C 0.90068 0.11135 0.7018 0.0
C438 C 0.8299 0.16158 0.72487 0.0
C439 C 0.86202 0.08485 0.77085 0.0
C440 C 0.77806 0.12691 0.92091 0.0
C441 C 0.75034 0.12468 0.8651 0.0
C442 C 0.80968 0.12423 0.88549 0.0
C443 C 0.81371 0.11951 0.79147 0.0
C444 C 0.78575 0.11534 0.7368 0.0
C445 C 0.75429 0.11793 0.7744 0.0
C446 C 0.8387 0.12856 0.94674 0.0
C447 C 0.78891 0.11022 0.63634 0.0
H448 H 0.89091 0.16356 0.65941 0.0
H449 H 0.91826 0.09875 0.69435 0.0
H450 H 0.80681 0.15747 0.6891 0.0
H451 H 0.82382 0.16443 0.79785 0.0
H452 H 0.83948 0.17642 0.69515 0.0
H453 H 0.88254 0.07381 0.75763 0.0
H454 H 0.85666 0.08485 0.84531 0.0
H455 H 0.83981 0.07894 0.73547 0.0
H456 H 0.77508 0.13194 0.99136 0.0
H457 H 0.73298 0.11634 0.73067 0.0
H458 H 0.84889 0.14428 0.93034 0.0
H459 H 0.85836 0.11684 0.93521 0.0
H460 H 0.83185 0.12835 0.02035 0.0
H461 H 0.79457 0.12481 0.59787 0.0
H462 H 0.76595 0.10343 0.60822 0.0
H463 H 0.80926 0.09901 0.62435 0.0
C464 C 0.25214 0.16818 0.76108 0.0
C465 C 0.24377 0.15243 0.69783 0.0
C466 C 0.28531 0.17266 0.78101 0.0
C467 C 0.31053 0.16084 0.73825 0.0
C468 C 0.30209 0.14624 0.66909 0.0
C469 C 0.26904 0.14244 0.64924 0.0
C470 C 0.2932 0.18904 0.85223 0.0
C471 C 0.32782 0.13313 0.62153 0.0
C472 C 0.40338 0.16744 0.75404 0.0
C473 C 0.41126 0.15212 0.81988 0.0
C474 C 0.37039 0.17201 0.7322 0.0
C475 C 0.34477 0.16066 0.7754 0.0
C476 C 0.35263 0.14631 0.8461 0.0
C477 C 0.38551 0.14247 0.86799 0.0
C478 C 0.36316 0.18808 0.65907 0.0
C479 C 0.32643 0.13365 0.89404 0.0
H480 H 0.23301 0.1761 0.79907 0.0
H481 H 0.26297 0.13059 0.59867 0.0
H482 H 0.29757 0.18125 0.91907 0.0
H483 H 0.31572 0.19783 0.83378 0.0
H484 H 0.27271 0.20035 0.86087 0.0
H485 H 0.31747 0.1236 0.56473 0.0
H486 H 0.34742 0.14329 0.59347 0.0
H487 H 0.33933 0.1223 0.67173 0.0
H488 H 0.42273 0.17514 0.71612 0.0
H489 H 0.39101 0.13098 0.92059 0.0
H490 H 0.34053 0.197 0.67518 0.0
H491 H 0.35936 0.18001 0.59263 0.0
H492 H 0.38376 0.19932 0.65085 0.0
H493 H 0.3072 0.14417 0.92169 0.0
H494 H 0.3364 0.12408 0.95124 0.0
H495 H 0.31453 0.12291 0.84423 0.0
C496 C 0.38751 0.87052 0.22659 0.0
C497 C 0.41155 0.855 0.21405 0.0
C498 C 0.35508 0.86535 0.2479 0.0
C499 C 0.34594 0.84401 0.25732 0.0
C500 C 0.37001 0.82814 0.24588 0.0
C501 C 0.40259 0.83381 0.2244 0.0
C502 C 0.33053 0.88291 0.26043 0.0
C503 C 0.36123 0.80522 0.25517 0.0
C504 C 0.26852 0.84142 0.39798 0.0
C505 C 0.24434 0.84242 0.32986 0.0
C506 C 0.3018 0.83953 0.37552 0.0
C507 C 0.31129 0.83892 0.28235 0.0
C508 C 0.28674 0.83781 0.21361 0.0
C509 C 0.25346 0.83954 0.23821 0.0
C510 C 0.32687 0.8405 0.4514 0.0
C511 C 0.29567 0.837 0.1135 0.0
H512 H 0.39408 0.88695 0.21972 0.0
H513 H 0.42072 0.82165 0.21352 0.0
H514 H 0.30989 0.88093 0.21176 0.0
H515 H 0.32022 0.88236 0.33066 0.0
H516 H 0.3415 0.89868 0.24942 0.0
H517 H 0.38291 0.79482 0.24804 0.0
H518 H 0.34968 0.80227 0.32269 0.0
H519 H 0.34303 0.8009 0.20201 0.0
H520 H 0.26155 0.84353 0.46903 0.0
H521 H 0.23493 0.84048 0.1852 0.0
H522 H 0.3376 0.85652 0.45395 0.0
H523 H 0.34713 0.82928 0.43874 0.0
H524 H 0.31587 0.83701 0.51927 0.0
H525 H 0.3037 0.85283 0.09085 0.0
H526 H 0.27458 0.83212 0.07042 0.0
H527 H 0.3163 0.826 0.10176 0.0
C528 C 0.12189 0.54593 0.01499 0.0
C529 C 0.09838 0.55301 0.95205 0.0
C530 C 0.12279 0.5248 0.04292 0.0
C531 C 0.09969 0.51039 1.00692 0.0
C532 C 0.07595 0.51744 0.94331 0.0
C533 C 0.07554 0.53864 0.91685 0.0
C534 C 0.14835 0.5179 0.11132 0.0
C535 C 0.05087 0.50259 0.90338 0.0
C536 C 0.11737 0.45167 0.01825 0.0
C537 C 0.09833 0.4455 0.09351 0.0
C538 C 0.11819 0.47275 0.98946 0.0
C539 C 0.0997 0.48803 0.03744 0.0
C540 C 0.08056 0.48189 0.11365 0.0
C541 C 0.08001 0.46072 0.14048 0.0
C542 C 0.13867 0.47865 0.90739 0.0
C543 C 0.06055 0.4977 0.16675 0.0
H544 H 0.13957 0.55693 0.04273 0.0
H545 H 0.05731 0.54393 0.86806 0.0
H546 H 0.13628 0.51159 0.17355 0.0
H547 H 0.16339 0.50505 0.08195 0.0
H548 H 0.16484 0.53096 0.13185 0.0
H549 H 0.03451 0.51045 0.85319 0.0
H550 H 0.06332 0.48928 0.86882 0.0
H551 H 0.03562 0.49587 0.95897 0.0
H552 H 0.13147 0.43999 0.98133 0.0
H553 H 0.06532 0.45612 0.19892 0.0
H554 H 0.15691 0.49077 0.92694 0.0
H555 H 0.12287 0.48559 0.85347 0.0
H556 H 0.15182 0.46495 0.87799 0.0
H557 H 0.07662 0.51041 0.19295 0.0
H558 H 0.04752 0.49046 0.22557 0.0
H559 H 0.04221 0.50512 0.121 0.0
C560 C 0.54277 0.45531 0.5114 0.0
C561 C 0.56403 0.44818 0.4427 0.0
C562 C 0.54289 0.47644 0.53925 0.0
C563 C 0.56472 0.49078 0.49724 0.0
C564 C 0.58644 0.48364 0.42849 0.0
C565 C 0.5859 0.46243 0.40225 0.0
C566 C 0.51952 0.48343 0.61328 0.0
C567 C 0.61011 0.49845 0.38215 0.0
C568 C 0.54455 0.54908 0.50768 0.0
C569 C 0.56495 0.55594 0.57897 0.0
C570 C 0.54432 0.52794 0.48011 0.0
C571 C 0.56488 0.51329 0.52514 0.0
C572 C 0.58569 0.52015 0.59667 0.0
C573 C 0.58556 0.54139 0.6225 0.0
C574 C 0.52197 0.52126 0.40304 0.0
C575 C 0.60795 0.505 0.64637 0.0
H576 H 0.52593 0.44438 0.54338 0.0
H577 H 0.60241 0.45707 0.3491 0.0
H578 H 0.53335 0.49043 0.6711 0.0
H579 H 0.50296 0.49578 0.58621 0.0
H580 H 0.5044 0.47027 0.63991 0.0
H581 H 0.62547 0.4904 0.33013 0.0
H582 H 0.59646 0.51135 0.34816 0.0
H583 H 0.62645 0.50576 0.43384 0.0
H584 H 0.52869 0.56024 0.47336 0.0
H585 H 0.60136 0.54654 0.67776 0.0
H586 H 0.50455 0.50915 0.42786 0.0
H587 H 0.53651 0.51404 0.34714 0.0
H588 H 0.50778 0.53462 0.37439 0.0
H589 H 0.59325 0.49231 0.67835 0.0
H590 H 0.62264 0.51284 0.70055 0.0
H591 H 0.62493 0.49744 0.5971 0.0
C592 C 0.57301 0.04168 0.8962 0.0
C593 C 0.59442 0.05613 0.93721 0.0
C594 C 0.57277 0.02048 0.92269 0.0
C595 C 0.59437 0.01354 0.99223 0.0
C596 C 0.61585 0.02808 0.03454 0.0
C597 C 0.61565 0.0492 1.00646 0.0
C598 C 0.54947 0.00547 0.87602 0.0
C599 C 0.6391 0.02131 0.10934 0.0
C600 C 0.57315 0.96312 0.11835 0.0
C601 C 0.59383 0.94849 0.07573 0.0
C602 C 0.57318 0.98434 0.09208 0.0
C603 C 0.59426 0.99109 0.02107 0.0
C604 C 0.61498 0.97638 0.97711 0.0
C605 C 0.61456 0.95525 1.00507 0.0
C606 C 0.55072 0.99954 0.14058 0.0
C607 C 0.63763 0.98295 0.90065 0.0
H608 H 0.55652 0.04687 0.8426 0.0
H609 H 0.63216 0.06028 0.03881 0.0
H610 H 0.56338 0.99252 0.84331 0.0
H611 H 0.53291 0.99826 0.92734 0.0
H612 H 0.53433 0.01334 0.8229 0.0
H613 H 0.65412 0.03455 0.13559 0.0
H614 H 0.62516 0.01444 0.16725 0.0
H615 H 0.65574 0.0089 0.08325 0.0
H616 H 0.55709 0.95805 0.17311 0.0
H617 H 0.63049 0.94403 0.97146 0.0
H618 H 0.53381 0.00694 0.09057 0.0
H619 H 0.56526 0.01235 0.17228 0.0
H620 H 0.53594 0.9918 0.19479 0.0
H621 H 0.62328 0.98996 0.8438 0.0
H622 H 0.65209 0.96957 0.87326 0.0
H623 H 0.6548 0.9952 0.92553 0.0
C624 C 0.07947 0.95245 0.53778 0.0
C625 C 0.05813 0.94315 0.47463 0.0
C626 C 0.07825 0.97413 0.55525 0.0
C627 C 0.05598 0.9869 0.50574 0.0
C628 C 0.03431 0.97752 0.44194 0.0
C629 C 0.03527 0.95567 0.42834 0.0
C630 C 0.101 0.9834 0.62605 0.0
C631 C 0.0109 0.99062 0.38586 0.0
C632 C 0.03553 0.04141 0.59626 0.0
C633 C 0.0583 0.05389 0.54947 0.0
C634 C 0.03452 0.01956 0.58293 0.0
C635 C 0.05603 0.01012 0.51894 0.0
C636 C 0.0782 0.02285 0.46895 0.0
C637 C 0.07947 0.04454 0.48609 0.0
C638 C 0.01121 0.00649 0.63944 0.0
C639 C 0.10078 0.01353 0.39795 0.0
H640 H 0.097 0.94271 0.57397 0.0
H641 H 0.01898 0.94848 0.37877 0.0
H642 H 0.11878 0.99406 0.59239 0.0
H643 H 0.08689 0.99291 0.67603 0.0
H644 H 0.11483 0.97112 0.66387 0.0
H645 H 0.99556 0.9809 0.33948 0.0
H646 H 0.99456 0.99978 0.43147 0.0
H647 H 0.02486 0.00208 0.34395 0.0
H648 H 0.01938 0.04865 0.646 0.0
H649 H 0.09692 0.05425 0.44947 0.0
H650 H 0.02523 0.99503 0.6812 0.0
H651 H 0.99473 0.99735 0.59414 0.0
H652 H 0.99601 0.01625 0.68601 0.0
H653 H 0.11855 0.00282 0.43144 0.0
H654 H 0.11463 0.02577 0.36 0.0
H655 H 0.08654 0.00405 0.34809 0.0
C656 C 0.03077 0.3058 0.96188 0.0
C657 C 0.05315 0.3134 0.0265 0.0
C658 C 0.03174 0.28477 0.93283 0.0
C659 C 0.05592 0.27111 0.96876 0.0
C660 C 0.07716 0.27837 0.0387 0.0
C661 C 0.07549 0.29947 0.06666 0.0
C662 C 0.00869 0.27771 0.85808 0.0
C663 C 0.10292 0.26431 0.08065 0.0
C664 C 0.04945 0.21284 0.91335 0.0
C665 C 0.07111 0.21093 0.8391 0.0
C666 C 0.04471 0.2322 0.95759 0.0
C667 C 0.06141 0.2502 0.92543 0.0
C668 C 0.08349 0.24833 0.85092 0.0
C669 C 0.08828 0.22868 0.80928 0.0
C670 C 0.02211 0.23339 0.03914 0.0
C671 C 0.10213 0.26713 0.81537 0.0
H672 H 0.01404 0.3167 0.92917 0.0
H673 H 0.09383 0.30553 0.11324 0.0
H674 H 0.02269 0.27521 0.79387 0.0
H675 H 0.99712 0.26251 0.87652 0.0
H676 H 0.98912 0.28943 0.84457 0.0
H677 H 0.12304 0.27356 0.11207 0.0
H678 H 0.09142 0.2546 0.13492 0.0
H679 H 0.11383 0.25349 0.02958 0.0
H680 H 0.03648 0.19908 0.9379 0.0
H681 H 0.10515 0.22723 0.75265 0.0
H682 H 1.0024 0.24501 0.02613 0.0
H683 H 0.03597 0.23888 0.10001 0.0
H684 H 0.01076 0.21797 0.05541 0.0
H685 H 0.08468 0.27915 0.78989 0.0
H686 H 0.11917 0.26294 0.75906 0.0
H687 H 0.11647 0.27439 0.87164 0.0
C688 C 0.61832 0.69803 0.45068 0.0
C689 C 0.59849 0.68965 0.51978 0.0
C690 C 0.6163 0.71933 0.4266 0.0
C691 C 0.59376 0.73251 0.47265 0.0
C692 C 0.57576 0.72452 0.54796 0.0
C693 C 0.57815 0.70307 0.57013 0.0
C694 C 0.63629 0.72725 0.34676 0.0
C695 C 0.55187 0.73812 0.5999 0.0
C696 C 0.59987 0.79095 0.42247 0.0
C697 C 0.5767 0.79342 0.35213 0.0
C698 C 0.60489 0.7714 0.46475 0.0
C699 C 0.58659 0.75381 0.43528 0.0
C700 C 0.56269 0.75628 0.36548 0.0
C701 C 0.55793 0.77609 0.32499 0.0
C702 C 0.63049 0.76947 0.53895 0.0
C703 C 0.54279 0.73786 0.33158 0.0
H704 H 0.63362 0.68755 0.41073 0.0
H705 H 0.56178 0.69648 0.62093 0.0
H706 H 0.61991 0.73032 0.28759 0.0
H707 H 0.64846 0.74229 0.36446 0.0
H708 H 0.65526 0.71576 0.32525 0.0
H709 H 0.54274 0.73027 0.66286 0.0
H710 H 0.56344 0.75324 0.61945 0.0
H711 H 0.53064 0.74182 0.5553 0.0
H712 H 0.61431 0.80432 0.44439 0.0
H713 H 0.54015 0.77787 0.27039 0.0
H714 H 0.65133 0.75996 0.51335 0.0
H715 H 0.62035 0.76119 0.59945 0.0
H716 H 0.63996 0.78502 0.56116 0.0
H717 H 0.55913 0.72639 0.29715 0.0
H718 H 0.52347 0.7427 0.28233 0.0
H719 H 0.53104 0.72965 0.39001 0.0
C720 C 0.05258 0.78575 0.10843 0.0
C721 C 0.07599 0.78828 0.17813 0.0
C722 C 0.04726 0.76614 0.06702 0.0
C723 C 0.06552 0.74853 0.09665 0.0
C724 C 0.08947 0.75102 0.16626 0.0
C725 C 0.0945 0.77089 0.20594 0.0
C726 C 0.02159 0.76417 0.99305 0.0
C727 C 0.10935 0.7326 0.20029 0.0
C728 C 0.03444 0.69259 0.07903 0.0
C729 C 0.05441 0.68446 1.00964 0.0
C730 C 0.0362 0.71385 0.10397 0.0
C731 C 0.05862 0.72725 0.05859 0.0
C732 C 0.07682 0.7195 0.98322 0.0
C733 C 0.07469 0.6981 0.96016 0.0
C734 C 0.01603 0.72152 0.18389 0.0
C735 C 0.10064 0.73331 0.93208 0.0
H736 H 0.03829 0.79916 0.08604 0.0
H737 H 0.11246 0.7727 0.26006 0.0
H738 H 0.03193 0.75627 0.93185 0.0
H739 H 1.00111 0.75426 0.01807 0.0
H740 H 0.01158 0.77967 0.97206 0.0
H741 H 0.09295 0.72103 0.23385 0.0
H742 H 0.12138 0.72453 0.14198 0.0
H743 H 0.12845 0.73741 0.25025 0.0
H744 H 0.01921 0.68195 0.11841 0.0
H745 H 0.09121 0.6917 0.90931 0.0
H746 H 1.00376 0.73656 0.1667 0.0
H747 H 0.0323 0.72451 0.24338 0.0
H748 H 0.99712 0.70991 0.20468 0.0
H749 H 0.08888 0.74836 0.91245 0.0
H750 H 0.11013 0.72559 0.86924 0.0
H751 H 0.12167 0.73713 0.97726 0.0
C752 C 0.60213 0.21426 0.59594 0.0
C753 C 0.57878 0.21189 0.66576 0.0
C754 C 0.60735 0.23377 0.5536 0.0
C755 C 0.58908 0.25141 0.58262 0.0
C756 C 0.56508 0.24905 0.65212 0.0
C757 C 0.56011 0.22927 0.69258 0.0
C758 C 0.63303 0.23561 0.47968 0.0
C759 C 0.54523 0.26753 0.68554 0.0
C760 C 0.62035 0.30724 0.56663 0.0
C761 C 0.60025 0.3155 0.49781 0.0
C762 C 0.61866 0.28593 0.59063 0.0
C763 C 0.59621 0.27264 0.54471 0.0
C764 C 0.57805 0.28052 0.46945 0.0
C765 C 0.58008 0.30197 0.44744 0.0
C766 C 0.63878 0.27812 0.67049 0.0
C767 C 0.55428 0.26678 0.41764 0.0
H768 H 0.6165 0.20083 0.57432 0.0
H769 H 0.5422 0.22754 0.74683 0.0
H770 H 0.62295 0.24382 0.41887 0.0
H771 H 0.65384 0.24515 0.50529 0.0
H772 H 0.64251 0.22003 0.45793 0.0
H773 H 0.52602 0.26279 0.73523 0.0
H774 H 0.56163 0.27908 0.71928 0.0
H775 H 0.53335 0.2756 0.62693 0.0
H776 H 0.6355 0.31781 0.60662 0.0
H777 H 0.56349 0.30848 0.39694 0.0
H778 H 0.65094 0.26306 0.65313 0.0
H779 H 0.62249 0.27514 0.72988 0.0
H780 H 0.65778 0.28965 0.69152 0.0
H781 H 0.56601 0.25171 0.39818 0.0
H782 H 0.54502 0.27457 0.35465 0.0
H783 H 0.53311 0.263 0.46228 0.0
C784 C 0.55342 0.71419 0.92254 0.0
C785 C 0.57675 0.71175 0.85267 0.0
C786 C 0.54805 0.73377 0.96415 0.0
C787 C 0.56619 0.75143 0.93459 0.0
C788 C 0.59015 0.749 0.865 0.0
C789 C 0.59521 0.72918 0.82509 0.0
C790 C 0.52237 0.73567 0.03804 0.0
C791 C 0.60991 0.76748 0.83101 0.0
C792 C 0.535 0.80732 0.94992 0.0
C793 C 0.55505 0.81562 0.01878 0.0
C794 C 0.53666 0.78599 0.92616 0.0
C795 C 0.55908 0.77271 0.97224 0.0
C796 C 0.57724 0.78063 0.04742 0.0
C797 C 0.5752 0.8021 0.06928 0.0
C798 C 0.51651 0.77814 0.84646 0.0
C799 C 0.60104 0.76693 0.09933 0.0
H800 H 0.53917 0.70075 0.94473 0.0
H801 H 0.61311 0.72743 0.77084 0.0
H802 H 0.53258 0.74372 0.09906 0.0
H803 H 0.50172 0.74539 1.01268 0.0
H804 H 0.51262 0.72013 0.05939 0.0
H805 H 0.62919 0.7627 0.78164 0.0
H806 H 0.59346 0.77892 0.79672 0.0
H807 H 0.62169 0.77569 0.88939 0.0
H808 H 0.51986 0.81788 0.90979 0.0
H809 H 0.59176 0.80862 0.11981 0.0
H810 H 0.50441 0.76307 0.86396 0.0
H811 H 0.53276 0.77517 0.78698 0.0
H812 H 0.49747 0.78965 0.8255 0.0
H813 H 0.5894 0.75182 0.11864 0.0
H814 H 0.6102 0.77472 0.16244 0.0
H815 H 0.62227 0.76323 0.05481 0.0
C816 C 0.06185 0.28002 0.40403 0.0
C817 C 0.08412 0.28819 0.3405 0.0
C818 C 0.06717 0.26027 0.44466 0.0
C819 C 0.09443 0.248 0.41719 0.0
C820 C 0.11722 0.25643 0.35397 0.0
C821 C 0.11225 0.27669 0.3186 0.0
C822 C 0.04311 0.25224 0.51483 0.0
C823 C 0.14559 0.24357 0.31865 0.0
C824 C 0.11637 0.19685 0.54121 0.0
C825 C 0.09854 0.18227 0.48963 0.0
C826 C 0.11523 0.21847 0.51923 0.0
C827 C 0.09624 0.22539 0.44345 0.0
C828 C 0.07869 0.21057 0.39077 0.0
C829 C 0.07976 0.18937 0.41516 0.0
C830 C 0.13442 0.2339 0.57628 0.0
C831 C 0.05894 0.21702 0.30769 0.0
H832 H 0.04048 0.28917 0.42269 0.0
H833 H 0.1297 0.28318 0.27043 0.0
H834 H 0.0285 0.23923 0.48504 0.0
H835 H 0.05631 0.24587 0.57522 0.0
H836 H 0.02603 0.26473 0.53817 0.0
H837 H 0.16315 0.25321 0.27856 0.0
H838 H 0.15891 0.23592 0.37576 0.0
H839 H 0.1361 0.2309 0.27364 0.0
H840 H 0.13163 0.19135 0.59687 0.0
H841 H 0.06566 0.17822 0.37513 0.0
H842 H 0.1177 0.2461 0.60378 0.0
H843 H 0.15275 0.2421 0.53319 0.0
H844 H 0.14741 0.22616 0.63398 0.0
H845 H 0.04824 0.20333 0.27113 0.0
H846 H 0.0746 0.22585 0.25898 0.0
H847 H 0.03871 0.2276 0.32854 0.0
C848 C 0.55555 0.29029 0.09502 0.0
C849 C 0.57868 0.29284 0.16542 0.0
C850 C 0.55043 0.27068 0.05341 0.0
C851 C 0.56859 0.25308 0.08355 0.0
C852 C 0.59244 0.25562 0.15346 0.0
C853 C 0.5973 0.2755 0.1933 0.0
C854 C 0.5249 0.26868 0.97904 0.0
C855 C 0.61221 0.23721 0.18807 0.0
C856 C 0.53629 0.19737 0.06723 0.0
C857 C 0.55599 0.18895 0.99789 0.0
C858 C 0.53866 0.21862 0.09197 0.0
C859 C 0.56142 0.23174 0.04635 0.0
C860 C 0.57939 0.22372 0.97108 0.0
C861 C 0.57668 0.20232 0.94832 0.0
C862 C 0.51871 0.22656 0.17181 0.0
C863 C 0.60355 0.23723 0.91966 0.0
H864 H 0.54121 0.30366 0.0725 0.0
H865 H 0.61505 0.27734 0.24796 0.0
H866 H 0.53526 0.26058 0.91838 0.0
H867 H 0.50422 0.25897 1.00418 0.0
H868 H 0.51518 0.28419 0.95718 0.0
H869 H 0.63158 0.2421 0.23706 0.0
H870 H 0.59578 0.22588 0.22302 0.0
H871 H 0.62388 0.22884 0.12998 0.0
H872 H 0.52079 0.18693 0.1068 0.0
H873 H 0.59304 0.19569 0.89764 0.0
H874 H 0.5066 0.24163 0.15408 0.0
H875 H 0.5351 0.22961 0.23098 0.0
H876 H 0.49968 0.21511 0.19333 0.0
H877 H 0.59221 0.25242 0.90005 0.0
H878 H 0.61273 0.22937 0.85676 0.0
H879 H 0.62474 0.24081 0.96463 0.0
C880 C 0.10045 0.71119 0.60791 0.0
C881 C 0.0771 0.70836 0.67745 0.0
C882 C 0.10539 0.73091 0.56711 0.0
C883 C 0.08681 0.74832 0.59723 0.0
C884 C 0.0628 0.74551 0.6664 0.0
C885 C 0.05814 0.72553 0.70544 0.0
C886 C 0.1311 0.73321 0.49351 0.0
C887 C 0.04259 0.76372 0.70093 0.0
C888 C 0.11829 0.80424 0.58172 0.0
C889 C 0.09883 0.81249 0.51142 0.0
C890 C 0.11604 0.78301 0.60678 0.0
C891 C 0.09362 0.76975 0.56056 0.0
C892 C 0.07574 0.77764 0.4848 0.0
C893 C 0.07835 0.79902 0.46166 0.0
C894 C 0.13586 0.77519 0.68718 0.0
C895 C 0.05191 0.76397 0.43286 0.0
H896 H 0.11506 0.69796 0.58535 0.0
H897 H 0.04023 0.72348 0.75945 0.0
H898 H 0.12075 0.74128 0.43269 0.0
H899 H 0.15148 0.74309 0.5194 0.0
H900 H 0.14124 0.71781 0.47168 0.0
H901 H 0.02325 0.75863 0.74957 0.0
H902 H 0.05872 0.77518 0.73624 0.0
H903 H 0.03084 0.77202 0.64274 0.0
H904 H 0.13367 0.81476 0.62129 0.0
H905 H 0.0622 0.80553 0.41008 0.0
H906 H 0.1484 0.76027 0.66959 0.0
H907 H 0.11933 0.77191 0.74573 0.0
H908 H 0.15453 0.78681 0.70956 0.0
H909 H 0.0424 0.77187 0.37041 0.0
H910 H 0.0309 0.75999 0.47778 0.0
H911 H 0.06371 0.74899 0.41244 0.0
C912 C 0.08205 0.39471 0.88053 0.0
C913 C 0.09932 0.37759 0.91641 0.0
C914 C 0.08632 0.40079 0.78855 0.0
C915 C 0.10787 0.38915 0.73181 0.0
C916 C 0.1292 0.37431 0.77256 0.0
C917 C 0.12461 0.3687 0.86458 0.0
C918 C 0.06441 0.41758 0.74929 0.0
C919 C 0.15322 0.36187 0.71591 0.0
C920 C 0.07388 0.3698 0.50544 0.0
C921 C 0.09282 0.38064 0.44064 0.0
C922 C 0.07803 0.37302 0.59959 0.0
C923 C 0.10149 0.38776 0.63109 0.0
C924 C 0.11978 0.39951 0.56635 0.0
C925 C 0.11548 0.39566 0.47182 0.0
C926 C 0.05794 0.35996 0.66544 0.0
C927 C 0.14465 0.41562 0.59628 0.0
H928 H 0.06237 0.40159 0.92032 0.0
H929 H 0.13779 0.35529 0.89172 0.0
H930 H 0.07719 0.42657 0.69487 0.0
H931 H 0.04251 0.41009 0.71828 0.0
H932 H 0.05601 0.42863 0.80326 0.0
H933 H 0.17195 0.35406 0.75937 0.0
H934 H 0.13982 0.34955 0.67725 0.0
H935 H 0.16577 0.37211 0.66558 0.0
H936 H 0.05621 0.35819 0.48281 0.0
H937 H 0.13018 0.40423 0.4226 0.0
H938 H 0.04384 0.37033 0.71196 0.0
H939 H 0.07434 0.35015 0.7084 0.0
H940 H 0.04044 0.3494 0.62972 0.0
H941 H 0.137 0.42367 0.66019 0.0
H942 H 0.14875 0.42762 0.5422 0.0
H943 H 0.16834 0.40768 0.60966 0.0
C944 C 0.52984 0.63368 0.34729 0.0
C945 C 0.55443 0.62509 0.40272 0.0
C946 C 0.52658 0.62765 0.25535 0.0
C947 C 0.54848 0.61264 0.21839 0.0
C948 C 0.56931 0.60133 0.27855 0.0
C949 C 0.57228 0.60784 0.3704 0.0
C950 C 0.50333 0.6398 0.19497 0.0
C951 C 0.59173 0.58436 0.24337 0.0
C952 C 0.54273 0.60498 0.95879 0.0
C953 C 0.56548 0.61993 0.9276 0.0
C954 C 0.53799 0.60141 0.05333 0.0
C955 C 0.55589 0.6134 0.1181 0.0
C956 C 0.57962 0.62797 0.08668 0.0
C957 C 0.58425 0.63089 0.99249 0.0
C958 C 0.51296 0.58539 0.08316 0.0
C959 C 0.5993 0.64128 0.15258 0.0
H960 H 0.51616 0.64714 0.37195 0.0
H961 H 0.59142 0.6012 0.41299 0.0
H962 H 0.51728 0.65179 0.15592 0.0
H963 H 0.49123 0.62926 0.14489 0.0
H964 H 0.48419 0.64797 0.23562 0.0
H965 H 0.59932 0.57356 0.29927 0.0
H966 H 0.57972 0.57512 0.18835 0.0
H967 H 0.61407 0.59169 0.21425 0.0
H968 H 0.52817 0.59631 0.90953 0.0
H969 H 0.60198 0.64245 0.96986 0.0
H970 H 0.48912 0.59334 0.09408 0.0
H971 H 0.52012 0.57769 0.14833 0.0
H972 H 0.50938 0.57312 0.02998 0.0
H973 H 0.58263 0.65137 0.19341 0.0
H974 H 0.61719 0.65159 0.11702 0.0
H975 H 0.61289 0.63109 0.2011 0.0
C976 C 0.08449 0.60324 0.15766 0.0
C977 C 0.10134 0.62067 0.12306 0.0
C978 C 0.0885 0.59708 0.24965 0.0
C979 C 0.10937 0.60893 0.30765 0.0
C980 C 0.13036 0.62415 0.26828 0.0
C981 C 0.12605 0.62984 0.17624 0.0
C982 C 0.06699 0.57992 0.28744 0.0
C983 C 0.15363 0.63687 0.32632 0.0
C984 C 0.07409 0.62736 0.53383 0.0
C985 C 0.09333 0.61672 0.59868 0.0
C986 C 0.07853 0.62433 0.43967 0.0
C987 C 0.10259 0.60999 0.40822 0.0
C988 C 0.12114 0.5984 0.47298 0.0
C989 C 0.11654 0.60206 0.56752 0.0
C990 C 0.05815 0.63721 0.37378 0.0
C991 C 0.14664 0.58271 0.44307 0.0
H992 H 0.06525 0.59615 0.11681 0.0
H993 H 0.13892 0.64347 0.14999 0.0
H994 H 0.0798 0.57103 0.34218 0.0
H995 H 0.04467 0.58703 0.31766 0.0
H996 H 0.05928 0.56882 0.23278 0.0
H997 H 0.17225 0.64506 0.2839 0.0
H998 H 0.13959 0.64889 0.36491 0.0
H999 H 0.16635 0.62673 0.37677 0.0
H1000 H 0.05602 0.63869 0.55645 0.0
H1001 H 0.13148 0.59367 0.61676 0.0
H1002 H 0.04464 0.62671 0.32635 0.0
H1003 H 0.07432 0.64738 0.33177 0.0
H1004 H 0.04013 0.64739 0.40942 0.0
H1005 H 0.13934 0.57461 0.37894 0.0
H1006 H 0.15113 0.57073 0.49699 0.0
H1007 H 0.17004 0.59103 0.43006 0.0
C1008 C 0.52903 0.36963 0.67084 0.0
C1009 C 0.55321 0.37892 0.61623 0.0
C1010 C 0.52487 0.37565 0.76248 0.0
C1011 C 0.54551 0.3913 0.80009 0.0
C1012 C 0.5658 0.40318 0.74061 0.0
C1013 C 0.56967 0.39669 0.64899 0.0
C1014 C 0.5022 0.36288 0.82209 0.0
C1015 C 0.58683 0.4208 0.77645 0.0
C1016 C 0.53862 0.39866 0.05966 0.0
C1017 C 0.56226 0.38432 0.09114 0.0
C1018 C 0.53385 0.40214 0.96503 0.0
C1019 C 0.55268 0.39069 0.90053 0.0
C1020 C 0.57726 0.37674 0.93231 0.0
C1021 C 0.58184 0.37389 0.02652 0.0
C1022 C 0.50782 0.41745 0.93482 0.0
C1023 C 0.59798 0.36403 0.86673 0.0
H1024 H 0.51646 0.35576 0.64591 0.0
H1025 H 0.5885 0.40388 0.60704 0.0
H1026 H 0.51677 0.35125 0.86154 0.0
H1027 H 0.48925 0.37307 0.87179 0.0
H1028 H 0.48376 0.35421 0.78077 0.0
H1029 H 0.59382 0.43182 0.72076 0.0
H1030 H 0.57398 0.42967 0.83109 0.0
H1031 H 0.60958 0.41415 0.80624 0.0
H1032 H 0.52343 0.40692 0.10871 0.0
H1033 H 0.6003 0.36283 0.04937 0.0
H1034 H 0.48454 0.40885 0.92355 0.0
H1035 H 0.51455 0.42535 0.86974 0.0
H1036 H 0.50335 0.42961 0.98794 0.0
H1037 H 0.58212 0.35351 0.82543 0.0
H1038 H 0.61646 0.35421 0.9026 0.0
H1039 H 0.611 0.37461 0.81864 0.0
C1040 C 0.5859 0.89683 0.86775 0.0
C1041 C 0.60225 0.879 0.90038 0.0
C1042 C 0.58975 0.90331 0.77612 0.0
C1043 C 0.60989 0.89139 0.71648 0.0
C1044 C 0.63043 0.87566 0.75393 0.0
C1045 C 0.62631 0.86965 0.84561 0.0
C1046 C 0.56883 0.92102 0.74045 0.0
C1047 C 0.65295 0.86282 0.69415 0.0
C1048 C 0.57332 0.87419 0.49004 0.0
C1049 C 0.593 0.88454 0.42543 0.0
C1050 C 0.57795 0.877 0.58426 0.0
C1051 C 0.60266 0.89084 0.61606 0.0
C1052 C 0.6216 0.90223 0.55156 0.0
C1053 C 0.61678 0.89879 0.45693 0.0
C1054 C 0.55713 0.86434 0.64983 0.0
C1055 C 0.64776 0.91745 0.58179 0.0
H1056 H 0.56717 0.90407 0.90985 0.0
H1057 H 0.6388 0.85574 0.87045 0.0
H1058 H 0.58172 0.92986 0.68578 0.0
H1059 H 0.54601 0.91445 0.71076 0.0
H1060 H 0.56197 0.93204 0.79623 0.0
H1061 H 0.67132 0.85407 0.73532 0.0
H1062 H 0.63825 0.85127 0.65466 0.0
H1063 H 0.66597 0.87299 0.64447 0.0
H1064 H 0.55476 0.8632 0.46718 0.0
H1065 H 0.63205 0.90699 0.40789 0.0
H1066 H 0.54423 0.87496 0.69802 0.0
H1067 H 0.57291 0.85375 0.69103 0.0
H1068 H 0.53854 0.85461 0.61396 0.0
H1069 H 0.64112 0.92535 0.64692 0.0
H1070 H 0.65231 0.92961 0.52871 0.0
H1071 H 0.67097 0.90877 0.59293 0.0
C1072 C 0.03575 0.12078 0.36523 0.0
C1073 C 0.06504 0.11459 0.40723 0.0
C1074 C 0.03026 0.11698 0.27162 0.0
C1075 C 0.05451 0.10646 0.21963 0.0
C1076 C 0.08111 0.09688 0.26591 0.0
C1077 C 0.08619 0.10121 0.35927 0.0
C1078 C 1.00116 0.12723 0.22629 0.0
C1079 C 0.10705 0.08485 0.21454 0.0
C1080 C 0.04523 0.10163 0.95923 0.0
C1081 C 0.06261 0.11939 0.92897 0.0
C1082 C 0.04243 0.09696 0.05347 0.0
C1083 C 0.05694 0.11052 0.11891 0.0
C1084 C 0.07423 0.12854 0.08848 0.0
C1085 C 0.07696 0.13265 0.99447 0.0
C1086 C 0.02392 0.0776 0.08297 0.0
C1087 C 0.08986 0.14368 0.15537 0.0
H1088 H 0.01946 0.13132 0.40119 0.0
H1089 H 0.10905 0.09651 0.39105 0.0
H1090 H 0.99164 0.11747 0.16932 0.0
H1091 H 0.9811 0.1301 0.2761 0.0
H1092 H 0.00877 0.1426 0.19737 0.0
H1093 H 0.12065 0.07406 0.26076 0.0
H1094 H 0.09624 0.07559 0.15773 0.0
H1095 H 0.1248 0.09612 0.18455 0.0
H1096 H 0.03402 0.09128 0.9093 0.0
H1097 H 0.09018 0.14652 0.97235 0.0
H1098 H 1.00189 0.08225 0.12242 0.0
H1099 H 0.03931 0.06784 0.12893 0.0
H1100 H 0.01605 0.06787 0.02376 0.0
H1101 H 0.07107 0.15008 0.20257 0.0
H1102 H 0.10209 0.15706 0.12054 0.0
H1103 H 0.10834 0.13535 0.19762 0.0
C1104 C 0.62666 0.13408 0.16626 0.0
C1105 C 0.60196 0.12498 0.1128 0.0
C1106 C 0.63097 0.12826 0.25813 0.0
C1107 C 0.60993 0.11301 0.2971 0.0
C1108 C 0.58907 0.10124 0.23877 0.0
C1109 C 0.5851 0.10751 0.1469 0.0
C1110 C 0.65427 0.14087 0.31649 0.0
C1111 C 0.56752 0.08405 0.27615 0.0
C1112 C 0.61687 0.106 0.55691 0.0
C1113 C 0.59373 0.1207 0.58806 0.0
C1114 C 0.62152 0.10237 0.46238 0.0
C1115 C 0.60306 0.11402 0.39762 0.0
C1116 C 0.57906 0.12839 0.42906 0.0
C1117 C 0.57459 0.13141 0.52321 0.0
C1118 C 0.64698 0.08665 0.4325 0.0
C1119 C 0.55876 0.14133 0.36317 0.0
H1120 H 0.63955 0.14773 0.14035 0.0
H1121 H 0.56588 0.10046 0.10582 0.0
H1122 H 0.64026 0.15289 0.35525 0.0
H1123 H 0.66692 0.13066 0.36679 0.0
H1124 H 0.67294 0.14907 0.27428 0.0
H1125 H 0.55984 0.073 0.22125 0.0
H1126 H 0.58028 0.07511 0.3308 0.0
H1127 H 0.54518 0.09114 0.30637 0.0
H1128 H 0.63172 0.09754 0.60617 0.0
H1129 H 0.55656 0.14276 0.54582 0.0
H1130 H 0.67047 0.09492 0.42022 0.0
H1131 H 0.6398 0.07866 0.36801 0.0
H1132 H 0.65126 0.07458 0.48618 0.0
H1133 H 0.57499 0.15152 0.32141 0.0
H1134 H 0.54072 0.15151 0.3988 0.0
H1135 H 0.54528 0.13088 0.31551 0.0
C1136 C 0.03036 0.87126 0.66966 0.0
C1137 C 0.0574 0.87841 0.61966 0.0
C1138 C 0.02659 0.87657 0.7624 0.0
C1139 C 0.05035 0.88946 0.80525 0.0
C1140 C 0.07411 0.89969 0.75047 0.0
C1141 C 0.07771 0.89376 0.65831 0.0
C1142 C 1.00036 0.86563 0.81723 0.0
C1143 C 0.09887 0.91444 0.79209 0.0
C1144 C 0.04495 0.89616 0.06536 0.0
C1145 C 0.06538 0.87979 0.09563 0.0
C1146 C 0.04052 0.90015 0.97109 0.0
C1147 C 0.0562 0.88712 0.90576 0.0
C1148 C 0.07714 0.87078 0.93626 0.0
C1149 C 0.08165 0.86748 0.03023 0.0
C1150 C 0.0184 0.91792 0.94203 0.0
C1151 C 0.09429 0.85629 0.86959 0.0
H1152 H 0.01485 0.85917 0.64048 0.0
H1153 H 0.09907 0.89904 0.62077 0.0
H1154 H 0.01132 0.85204 0.85379 0.0
H1155 H 0.98981 0.87634 0.86928 0.0
H1156 H 0.98033 0.8597 0.77267 0.0
H1157 H 0.10968 0.92497 0.73947 0.0
H1158 H 0.0876 0.92416 0.84671 0.0
H1159 H 0.11896 0.90513 0.82336 0.0
H1160 H 0.03227 0.90579 0.11521 0.0
H1161 H 0.09734 0.85471 0.05237 0.0
H1162 H 0.99373 0.91158 0.92639 0.0
H1163 H 0.0277 0.92579 0.87942 0.0
H1164 H 0.01575 0.92982 0.99717 0.0
H1165 H 0.07599 0.84807 0.82629 0.0
H1166 H 0.10949 0.84425 0.90464 0.0
H1167 H 0.11036 0.86552 0.82345 0.0
loop_
_geom_bond_atom_site_label_1
_geom_bond_atom_site_label_2
_geom_bond_distance
_geom_bond_site_symmetry_2
_ccdc_geom_bond_type
Zn0 N4 2.020 . S
Zn0 O8 2.019 . S
Zn0 N10 2.119 . S
Zn0 O18 1.975 . S
C1 N2 1.334 1_554 S
C1 N5 1.336 . S
N2 C1 1.334 1_556 S
N2 C3 1.334 . S
C3 N2 1.334 . S
C3 N4 1.336 1_556 S
N4 Zn0 2.020 . S
N4 C3 1.336 1_554 S
N4 N5 1.354 . S
N5 C1 1.336 . S
N5 N4 1.354 . S
N5 Zn9 2.020 . S
C6 O7 1.244 . S
C6 O30 1.257 . S
O7 C6 1.244 . S
O8 Zn0 2.019 . S
O8 C28 1.257 . S
Zn9 N5 2.020 . S
Zn9 O16 1.975 . S
Zn9 N25 2.119 . S
Zn9 O30 2.019 . S
N10 Zn0 2.119 . S
N10 C12 1.334 . S
N10 C13 1.328 . S
C11 C12 1.391 . S
C11 N14 1.329 . S
C11 H32 0.930 . S
C12 N10 1.334 . S
C12 C11 1.391 . S
C12 H19 0.930 . S
C13 N10 1.328 . S
C13 C15 1.392 . S
C13 H20 0.930 . S
N14 C11 1.329 . S
N14 C15 1.331 . S
C15 C13 1.392 . S
C15 N14 1.331 . S
O16 Zn9 1.975 . S
O16 C17 1.252 . S
C17 O16 1.252 . S
C17 O18 1.252 . S
O18 Zn0 1.975 . S
O18 C17 1.252 . S
H19 C12 0.930 . S
H20 C13 0.930 . S
C21 C22 1.424 . S
C21 N25 1.300 1_655 S
C21 H27 0.926 1_655 S
C22 C21 1.424 . S
C22 N26 1.331 . S
C23 C24 1.391 1_655 S
C23 N26 1.329 . S
C23 H33 0.930 . S
C24 C23 1.391 1_455 S
C24 N25 1.334 . S
C24 H31 0.930 . S
N25 Zn9 2.119 . S
N25 C21 1.300 1_455 S
N25 C24 1.334 . S
N26 C22 1.331 . S
N26 C23 1.329 . S
H27 C21 0.926 1_455 S
C28 O8 1.257 . S
C28 O29 1.244 . S
O29 C28 1.244 . S
O30 C6 1.257 . S
O30 Zn9 2.019 . S
H31 C24 0.930 . S
H32 C11 0.930 . S
H33 C23 0.930 . S
Zn34 N38 2.020 . S
Zn34 O42 2.019 . S
Zn34 N44 2.119 . S
Zn34 O52 1.975 . S
C35 N36 1.334 . S
C35 N39 1.336 . S
N36 C35 1.334 . S
N36 C37 1.334 . S
C37 N36 1.334 . S
C37 N38 1.336 . S
N38 Zn34 2.020 . S
N38 C37 1.336 . S
N38 N39 1.354 . S
N39 C35 1.336 . S
N39 N38 1.354 . S
N39 Zn43 2.020 . S
C40 O41 1.244 . S
C40 O64 1.257 . S
O41 C40 1.244 . S
O42 Zn34 2.019 . S
O42 C62 1.257 . S
Zn43 N39 2.020 . S
Zn43 O50 1.975 . S
Zn43 N59 2.119 . S
Zn43 O64 2.019 . S
N44 Zn34 2.119 . S
N44 C46 1.334 . S
N44 C47 1.328 . S
C45 C46 1.391 . S
C45 N48 1.329 . S
C45 H66 0.930 . S
C46 N44 1.334 . S
C46 C45 1.391 . S
C46 H53 0.930 . S
C47 N44 1.328 . S
C47 C49 1.392 . S
C47 H54 0.930 . S
N48 C45 1.329 . S
N48 C49 1.331 . S
C49 C47 1.392 . S
C49 N48 1.331 . S
O50 Zn43 1.975 . S
O50 C51 1.252 . S
C51 O50 1.252 . S
C51 O52 1.252 . S
O52 Zn34 1.975 . S
O52 C51 1.252 . S
H53 C46 0.930 . S
H54 C47 0.930 . S
C55 C56 1.392 . S
C55 N59 1.328 . S
C55 H61 0.930 . S
C56 C55 1.392 . S
C56 N60 1.331 . S
C57 C58 1.391 . S
C57 N60 1.329 . S
C57 H67 0.930 . S
C58 C57 1.391 . S
C58 N59 1.334 . S
C58 H65 0.930 . S
N59 Zn43 2.119 . S
N59 C55 1.328 . S
N59 C58 1.334 . S
N60 C56 1.331 . S
N60 C57 1.329 . S
H61 C55 0.930 . S
C62 O42 1.257 . S
C62 O63 1.244 . S
O63 C62 1.244 . S
O64 C40 1.257 . S
O64 Zn43 2.019 . S
H65 C58 0.930 . S
H66 C45 0.930 . S
H67 C57 0.930 . S
Zn68 N72 2.020 . S
Zn68 O76 2.019 . S
Zn68 N78 2.119 . S
Zn68 O86 1.975 . S
C69 N70 1.334 . S
C69 N73 1.336 1_554 S
N70 C69 1.334 . S
N70 C71 1.334 1_554 S
C71 N70 1.334 1_556 S
C71 N72 1.336 . S
N72 Zn68 2.020 . S
N72 C71 1.336 . S
N72 N73 1.354 . S
N73 C69 1.336 1_556 S
N73 N72 1.354 . S
N73 Zn77 2.020 . S
C74 O75 1.244 . S
C74 O98 1.257 . S
O75 C74 1.244 . S
O76 Zn68 2.019 . S
O76 C96 1.257 . S
Zn77 N73 2.020 . S
Zn77 O84 1.975 . S
Zn77 N93 2.119 . S
Zn77 O98 2.019 . S
N78 Zn68 2.119 . S
N78 C80 1.334 . S
N78 C81 1.300 1_455 S
C79 C80 1.391 1_655 S
C79 N82 1.329 . S
C79 H100 0.930 . S
C80 N78 1.334 . S
C80 C79 1.391 1_455 S
C80 H87 0.930 . S
C81 N78 1.300 1_655 S
C81 C83 1.424 . S
C81 H88 0.926 1_655 S
N82 C79 1.329 . S
N82 C83 1.331 . S
C83 C81 1.424 . S
C83 N82 1.331 . S
O84 Zn77 1.975 . S
O84 C85 1.252 . S
C85 O84 1.252 . S
C85 O86 1.252 . S
O86 Zn68 1.975 . S
O86 C85 1.252 . S
H87 C80 0.930 . S
H88 C81 0.926 1_455 S
C89 C90 1.392 . S
C89 N93 1.328 . S
C89 H95 0.930 . S
C90 C89 1.392 . S
C90 N94 1.331 . S
C91 C92 1.391 . S
C91 N94 1.329 . S
C91 H101 0.930 . S
C92 C91 1.391 . S
C92 N93 1.334 . S
C92 H99 0.930 . S
N93 Zn77 2.119 . S
N93 C89 1.328 . S
N93 C92 1.334 . S
N94 C90 1.331 . S
N94 C91 1.329 . S
H95 C89 0.930 . S
C96 O76 1.257 . S
C96 O97 1.244 . S
O97 C96 1.244 . S
O98 C74 1.257 . S
O98 Zn77 2.019 . S
H99 C92 0.930 . S
H100 C79 0.930 . S
H101 C91 0.930 . S
Zn102 N106 2.020 . S
Zn102 O110 2.019 . S
Zn102 N112 2.119 . S
Zn102 O120 1.975 . S
C103 N104 1.334 . S
C103 N107 1.336 . S
N104 C103 1.334 . S
N104 C105 1.334 . S
C105 N104 1.334 . S
C105 N106 1.336 . S
N106 Zn102 2.020 . S
N106 C105 1.336 . S
N106 N107 1.354 . S
N107 C103 1.336 . S
N107 N106 1.354 . S
N107 Zn111 2.020 . S
C108 O109 1.244 . S
C108 O132 1.257 . S
O109 C108 1.244 . S
O110 Zn102 2.019 . S
O110 C130 1.257 . S
Zn111 N107 2.020 . S
Zn111 O118 1.975 . S
Zn111 N127 2.119 . S
Zn111 O132 2.019 . S
N112 Zn102 2.119 . S
N112 C114 1.334 . S
N112 C115 1.328 . S
C113 C114 1.391 . S
C113 N116 1.329 . S
C113 H134 0.930 . S
C114 N112 1.334 . S
C114 C113 1.391 . S
C114 H121 0.930 . S
C115 N112 1.328 . S
C115 C117 1.392 . S
C115 H122 0.930 . S
N116 C113 1.329 . S
N116 C117 1.331 . S
C117 C115 1.392 . S
C117 N116 1.331 . S
O118 Zn111 1.975 . S
O118 C119 1.252 . S
C119 O118 1.252 . S
C119 O120 1.252 . S
O120 Zn102 1.975 . S
O120 C119 1.252 . S
H121 C114 0.930 . S
H122 C115 0.930 . S
C123 C124 1.392 . S
C123 N127 1.328 . S
C123 H129 0.930 . S
C124 C123 1.392 . S
C124 N128 1.331 . S
C125 C126 1.391 . S
C125 N128 1.329 . S
C125 H135 0.930 . S
C126 C125 1.391 . S
C126 N127 1.334 . S
C126 H133 0.930 . S
N127 Zn111 2.119 . S
N127 C123 1.328 . S
N127 C126 1.334 . S
N128 C124 1.331 . S
N128 C125 1.329 . S
H129 C123 0.930 . S
C130 O110 1.257 . S
C130 O131 1.244 . S
O131 C130 1.244 . S
O132 C108 1.257 . S
O132 Zn111 2.019 . S
H133 C126 0.930 . S
H134 C113 0.930 . S
H135 C125 0.930 . S
Zn136 N140 2.020 . S
Zn136 O144 2.019 . S
Zn136 N146 2.119 . S
Zn136 O154 1.975 . S
C137 N138 1.334 1_554 S
C137 N141 1.336 . S
N138 C137 1.334 1_556 S
N138 C139 1.334 . S
C139 N138 1.334 . S
C139 N140 1.336 1_556 S
N140 Zn136 2.020 . S
N140 C139 1.336 1_554 S
N140 N141 1.354 . S
N141 C137 1.336 . S
N141 N140 1.354 . S
N141 Zn145 2.020 . S
C142 O143 1.244 . S
C142 O166 1.257 . S
O143 C142 1.244 . S
O144 Zn136 2.019 . S
O144 C164 1.257 . S
Zn145 N141 2.020 . S
Zn145 O152 1.975 . S
Zn145 N161 2.119 . S
Zn145 O166 2.019 . S
N146 Zn136 2.119 . S
N146 C148 1.334 . S
N146 C149 1.328 . S
C147 C148 1.391 . S
C147 N150 1.329 . S
C147 H168 0.930 . S
C148 N146 1.334 . S
C148 C147 1.391 . S
C148 H155 0.930 . S
C149 N146 1.328 . S
C149 C151 1.392 . S
C149 H156 0.930 . S
N150 C147 1.329 . S
N150 C151 1.331 . S
C151 C149 1.392 . S
C151 N150 1.331 . S
O152 Zn145 1.975 . S
O152 C153 1.252 . S
C153 O152 1.252 . S
C153 O154 1.252 . S
O154 Zn136 1.975 . S
O154 C153 1.252 . S
H155 C148 0.930 . S
H156 C149 0.930 . S
C157 C158 1.392 . S
C157 N161 1.328 . S
C157 H163 0.930 . S
C158 C157 1.392 . S
C158 N162 1.331 . S
C159 C160 1.391 . S
C159 N162 1.329 . S
C159 H169 0.930 . S
C160 C159 1.391 . S
C160 N161 1.334 . S
C160 H167 0.930 . S
N161 Zn145 2.119 . S
N161 C157 1.328 . S
N161 C160 1.334 . S
N162 C158 1.331 . S
N162 C159 1.329 . S
H163 C157 0.930 . S
C164 O144 1.257 . S
C164 O165 1.244 . S
O165 C164 1.244 . S
O166 C142 1.257 . S
O166 Zn145 2.019 . S
H167 C160 0.930 . S
H168 C147 0.930 . S
H169 C159 0.930 . S
Zn170 N174 2.020 . S
Zn170 O178 2.028 . S
Zn170 N180 2.119 1_455 S
Zn170 O188 1.975 . S
C171 N172 1.334 . S
C171 N175 1.336 . S
N172 C171 1.334 . S
N172 C173 1.334 . S
C173 N172 1.334 . S
C173 N174 1.336 . S
N174 Zn170 2.020 . S
N174 C173 1.336 . S
N174 N175 1.354 . S
N175 C171 1.336 . S
N175 N174 1.354 . S
N175 Zn179 2.020 . S
C176 O177 1.244 . S
C176 O200 1.257 . S
O177 C176 1.244 . S
O178 Zn170 2.028 . S
O178 C198 1.279 . S
Zn179 N175 2.020 . S
Zn179 O186 1.975 . S
Zn179 N195 2.119 . S
Zn179 O200 2.019 . S
N180 Zn170 2.119 1_655 S
N180 C182 1.334 . S
N180 C183 1.328 . S
C181 C182 1.391 . S
C181 N184 1.329 . S
C181 H202 0.930 . S
C182 N180 1.334 . S
C182 C181 1.391 . S
C182 H189 0.930 . S
C183 N180 1.328 . S
C183 C185 1.392 . S
C183 H190 0.930 . S
N184 C181 1.329 . S
N184 C185 1.331 . S
C185 C183 1.392 . S
C185 N184 1.331 . S
O186 Zn179 1.975 . S
O186 C187 1.252 . S
C187 O186 1.252 . S
C187 O188 1.252 . S
O188 Zn170 1.975 . S
O188 C187 1.252 . S
H189 C182 0.930 . S
H190 C183 0.930 . S
C191 C192 1.392 . S
C191 N195 1.328 . S
C191 H197 0.930 . S
C192 C191 1.392 . S
C192 N196 1.331 . S
C193 C194 1.391 . S
C193 N196 1.329 . S
C193 H203 0.930 . S
C194 C193 1.391 . S
C194 N195 1.334 . S
C194 H201 0.930 . S
N195 Zn179 2.119 . S
N195 C191 1.328 . S
N195 C194 1.334 . S
N196 C192 1.331 . S
N196 C193 1.329 . S
H197 C191 0.930 . S
C198 O178 1.279 . S
C198 O199 1.244 . S
O199 C198 1.244 . S
O200 C176 1.257 . S
O200 Zn179 2.019 . S
H201 C194 0.930 . S
H202 C181 0.930 . S
H203 C193 0.930 . S
Zn204 N208 2.020 . S
Zn204 O212 2.019 . S
Zn204 N214 2.119 . S
Zn204 O222 1.975 . S
C205 N206 1.334 . S
C205 N209 1.336 1_554 S
N206 C205 1.334 . S
N206 C207 1.334 1_554 S
C207 N206 1.334 1_556 S
C207 N208 1.336 . S
N208 Zn204 2.020 . S
N208 C207 1.336 . S
N208 N209 1.354 . S
N209 C205 1.336 1_556 S
N209 N208 1.354 . S
N209 Zn213 2.020 . S
C210 O211 1.244 . S
C210 O234 1.257 . S
O211 C210 1.244 . S
O212 Zn204 2.019 . S
O212 C232 1.257 . S
Zn213 N209 2.020 . S
Zn213 O220 1.975 . S
Zn213 N229 2.119 . S
Zn213 O234 2.019 . S
N214 Zn204 2.119 . S
N214 C216 1.334 . S
N214 C217 1.328 . S
C215 C216 1.391 . S
C215 N218 1.329 . S
C215 H236 0.930 . S
C216 N214 1.334 . S
C216 C215 1.391 . S
C216 H223 0.930 . S
C217 N214 1.328 . S
C217 C219 1.392 . S
C217 H224 0.930 . S
N218 C215 1.329 . S
N218 C219 1.331 . S
C219 C217 1.392 . S
C219 N218 1.331 . S
O220 Zn213 1.975 . S
O220 C221 1.252 . S
C221 O220 1.252 . S
C221 O222 1.252 . S
O222 Zn204 1.975 . S
O222 C221 1.252 . S
H223 C216 0.930 . S
H224 C217 0.930 . S
C225 C226 1.392 . S
C225 N229 1.328 . S
C225 H231 0.930 . S
C226 C225 1.392 . S
C226 N230 1.331 . S
C227 C228 1.391 . S
C227 N230 1.329 . S
C227 H237 0.930 . S
C228 C227 1.391 . S
C228 N229 1.334 . S
C228 H235 0.930 . S
N229 Zn213 2.119 . S
N229 C225 1.328 . S
N229 C228 1.334 . S
N230 C226 1.331 . S
N230 C227 1.329 . S
H231 C225 0.930 . S
C232 O212 1.257 . S
C232 O233 1.244 . S
O233 C232 1.244 . S
O234 C210 1.257 . S
O234 Zn213 2.019 . S
H235 C228 0.930 . S
H236 C215 0.930 . S
H237 C227 0.930 . S
Zn238 N242 2.020 . S
Zn238 O246 2.019 . S
Zn238 N248 2.119 . S
Zn238 O256 1.975 . S
C239 N240 1.334 . S
C239 N243 1.336 . S
N240 C239 1.334 . S
N240 C241 1.334 . S
C241 N240 1.334 . S
C241 N242 1.336 . S
N242 Zn238 2.020 . S
N242 C241 1.336 . S
N242 N243 1.354 . S
N243 C239 1.336 . S
N243 N242 1.354 . S
N243 Zn247 2.020 . S
C244 O245 1.244 . S
C244 O268 1.278 . S
O245 C244 1.244 . S
O246 Zn238 2.019 . S
O246 C266 1.257 . S
Zn247 N243 2.020 . S
Zn247 O254 1.975 . S
Zn247 N263 2.119 1_455 S
Zn247 O268 2.028 . S
N248 Zn238 2.119 . S
N248 C250 1.334 . S
N248 C251 1.328 . S
C249 C250 1.391 . S
C249 N252 1.329 . S
C249 H270 0.930 . S
C250 N248 1.334 . S
C250 C249 1.391 . S
C250 H257 0.930 . S
C251 N248 1.328 . S
C251 C253 1.392 . S
C251 H258 0.930 . S
N252 C249 1.329 . S
N252 C253 1.331 . S
C253 C251 1.392 . S
C253 N252 1.331 . S
O254 Zn247 1.975 . S
O254 C255 1.252 . S
C255 O254 1.252 . S
C255 O256 1.252 . S
O256 Zn238 1.975 . S
O256 C255 1.252 . S
H257 C250 0.930 . S
H258 C251 0.930 . S
C259 C260 1.392 . S
C259 N263 1.328 . S
C259 H265 0.930 . S
C260 C259 1.392 . S
C260 N264 1.331 . S
C261 C262 1.391 . S
C261 N264 1.329 . S
C261 H271 0.930 . S
C262 C261 1.391 . S
C262 N263 1.334 . S
C262 H269 0.930 . S
N263 Zn247 2.119 1_655 S
N263 C259 1.328 . S
N263 C262 1.334 . S
N264 C260 1.331 . S
N264 C261 1.329 . S
H265 C259 0.930 . S
C266 O246 1.257 . S
C266 O267 1.244 . S
O267 C266 1.244 . S
O268 C244 1.278 . S
O268 Zn247 2.028 . S
H269 C262 0.930 . S
H270 C249 0.930 . S
H271 C261 0.930 . S
C272 C273 1.391 . S
C272 C274 1.394 . S
C272 H288 0.931 . S
C273 C272 1.391 . S
C273 C277 1.376 . S
C274 C272 1.394 . S
C274 C275 1.369 . S
C274 C278 1.531 . S
C275 C274 1.369 . S
C275 C276 1.410 . S
C275 C283 1.503 . S
C276 C275 1.410 . S
C276 C277 1.392 . S
C276 C279 1.511 . S
C277 C273 1.376 . S
C277 C276 1.392 . S
C277 H289 0.929 . S
C278 C274 1.531 . S
C278 H290 0.960 . S
C278 H291 0.962 . S
C278 H292 0.960 . S
C279 C276 1.511 . S
C279 H293 0.961 . S
C279 H294 0.961 . S
C279 H295 0.961 . S
C280 C281 1.370 . S
C280 C282 1.363 . S
C280 H296 0.931 . S
C281 C280 1.370 . S
C281 C285 1.408 . S
C282 C280 1.363 . S
C282 C283 1.370 . S
C282 C286 1.524 . S
C283 C275 1.503 . S
C283 C282 1.370 . S
C283 C284 1.403 . S
C284 C283 1.403 . S
C284 C285 1.404 . S
C284 C287 1.539 . S
C285 C281 1.408 . S
C285 C284 1.404 . S
C285 H297 0.930 . S
C286 C282 1.524 . S
C286 H298 0.956 . S
C286 H299 0.961 . S
C286 H300 0.961 . S
C287 C284 1.539 . S
C287 H301 0.958 . S
C287 H302 0.961 . S
C287 H303 0.960 . S
H288 C272 0.931 . S
H289 C277 0.929 . S
H290 C278 0.960 . S
H291 C278 0.962 . S
H292 C278 0.960 . S
H293 C279 0.961 . S
H294 C279 0.961 . S
H295 C279 0.961 . S
H296 C280 0.931 . S
H297 C285 0.930 . S
H298 C286 0.956 . S
H299 C286 0.961 . S
H300 C286 0.961 . S
H301 C287 0.958 . S
H302 C287 0.961 . S
H303 C287 0.960 . S
C304 C305 1.391 . S
C304 C306 1.394 . S
C304 H320 0.931 . S
C305 C304 1.391 . S
C305 C309 1.376 . S
C306 C304 1.394 . S
C306 C307 1.369 . S
C306 C310 1.531 . S
C307 C306 1.369 . S
C307 C308 1.410 . S
C307 C315 1.503 . S
C308 C307 1.410 . S
C308 C309 1.392 . S
C308 C311 1.511 . S
C309 C305 1.376 . S
C309 C308 1.392 . S
C309 H321 0.929 . S
C310 C306 1.531 . S
C310 H322 0.960 . S
C310 H323 0.962 . S
C310 H324 0.960 . S
C311 C308 1.511 . S
C311 H325 0.961 . S
C311 H326 0.961 . S
C311 H327 0.961 . S
C312 C313 1.370 . S
C312 C314 1.363 . S
C312 H328 0.931 . S
C313 C312 1.370 . S
C313 C317 1.408 . S
C314 C312 1.363 . S
C314 C315 1.370 . S
C314 C318 1.524 . S
C315 C307 1.503 . S
C315 C314 1.370 . S
C315 C316 1.403 . S
C316 C315 1.403 . S
C316 C317 1.404 . S
C316 C319 1.539 . S
C317 C313 1.408 . S
C317 C316 1.404 . S
C317 H329 0.930 . S
C318 C314 1.524 . S
C318 H330 0.956 . S
C318 H331 0.961 . S
C318 H332 0.961 . S
C319 C316 1.539 . S
C319 H333 0.958 . S
C319 H334 0.961 . S
C319 H335 0.960 . S
H320 C304 0.931 . S
H321 C309 0.929 . S
H322 C310 0.960 . S
H323 C310 0.962 . S
H324 C310 0.960 . S
H325 C311 0.961 . S
H326 C311 0.961 . S
H327 C311 0.961 . S
H328 C312 0.931 . S
H329 C317 0.930 . S
H330 C318 0.956 . S
H331 C318 0.961 . S
H332 C318 0.961 . S
H333 C319 0.958 . S
H334 C319 0.961 . S
H335 C319 0.960 . S
C336 C337 1.391 . S
C336 C338 1.394 . S
C336 H352 0.931 . S
C337 C336 1.391 . S
C337 C341 1.376 . S
C338 C336 1.394 . S
C338 C339 1.369 . S
C338 C342 1.531 . S
C339 C338 1.369 . S
C339 C340 1.410 . S
C339 C347 1.503 . S
C340 C339 1.410 . S
C340 C341 1.392 . S
C340 C343 1.511 . S
C341 C337 1.376 . S
C341 C340 1.392 . S
C341 H353 0.929 . S
C342 C338 1.531 . S
C342 H354 0.960 . S
C342 H355 0.962 . S
C342 H356 0.960 . S
C343 C340 1.511 . S
C343 H357 0.961 . S
C343 H358 0.961 . S
C343 H359 0.961 . S
C344 C345 1.370 . S
C344 C346 1.363 . S
C344 H360 0.931 . S
C345 C344 1.370 . S
C345 C349 1.408 . S
C346 C344 1.363 . S
C346 C347 1.370 . S
C346 C350 1.524 . S
C347 C339 1.503 . S
C347 C346 1.370 . S
C347 C348 1.403 . S
C348 C347 1.403 . S
C348 C349 1.404 . S
C348 C351 1.539 . S
C349 C345 1.408 . S
C349 C348 1.404 . S
C349 H361 0.930 . S
C350 C346 1.524 . S
C350 H362 0.956 . S
C350 H363 0.961 . S
C350 H364 0.961 . S
C351 C348 1.539 . S
C351 H365 0.958 . S
C351 H366 0.961 . S
C351 H367 0.960 . S
H352 C336 0.931 . S
H353 C341 0.929 . S
H354 C342 0.960 . S
H355 C342 0.962 . S
H356 C342 0.960 . S
H357 C343 0.961 . S
H358 C343 0.961 . S
H359 C343 0.961 . S
H360 C344 0.931 . S
H361 C349 0.930 . S
H362 C350 0.956 . S
H363 C350 0.961 . S
H364 C350 0.961 . S
H365 C351 0.958 . S
H366 C351 0.961 . S
H367 C351 0.960 . S
C368 C369 1.391 . S
C368 C370 1.394 . S
C368 H384 0.931 . S
C369 C368 1.391 . S
C369 C373 1.376 . S
C370 C368 1.394 . S
C370 C371 1.369 . S
C370 C374 1.531 . S
C371 C370 1.369 . S
C371 C372 1.410 . S
C371 C379 1.503 . S
C372 C371 1.410 . S
C372 C373 1.392 . S
C372 C375 1.511 . S
C373 C369 1.376 . S
C373 C372 1.392 . S
C373 H385 0.929 . S
C374 C370 1.531 . S
C374 H386 0.960 . S
C374 H387 0.962 . S
C374 H388 0.960 . S
C375 C372 1.511 . S
C375 H389 0.961 . S
C375 H390 0.961 . S
C375 H391 0.961 . S
C376 C377 1.370 . S
C376 C378 1.363 . S
C376 H392 0.931 . S
C377 C376 1.370 . S
C377 C381 1.408 . S
C378 C376 1.363 . S
C378 C379 1.370 . S
C378 C382 1.524 . S
C379 C371 1.503 . S
C379 C378 1.370 . S
C379 C380 1.403 . S
C380 C379 1.403 . S
C380 C381 1.404 . S
C380 C383 1.539 . S
C381 C377 1.408 . S
C381 C380 1.404 . S
C381 H393 0.930 . S
C382 C378 1.524 . S
C382 H394 0.956 . S
C382 H395 0.961 . S
C382 H396 0.961 . S
C383 C380 1.539 . S
C383 H397 0.958 . S
C383 H398 0.961 . S
C383 H399 0.960 . S
H384 C368 0.931 . S
H385 C373 0.929 . S
H386 C374 0.960 . S
H387 C374 0.962 . S
H388 C374 0.960 . S
H389 C375 0.961 . S
H390 C375 0.961 . S
H391 C375 0.961 . S
H392 C376 0.931 . S
H393 C381 0.930 . S
H394 C382 0.956 . S
H395 C382 0.961 . S
H396 C382 0.961 . S
H397 C383 0.958 . S
H398 C383 0.961 . S
H399 C383 0.960 . S
C400 C401 1.391 . S
C400 C402 1.394 . S
C400 H416 0.931 . S
C401 C400 1.391 . S
C401 C405 1.376 . S
C402 C400 1.394 . S
C402 C403 1.369 . S
C402 C406 1.531 . S
C403 C402 1.369 . S
C403 C404 1.410 . S
C403 C411 1.503 . S
C404 C403 1.410 . S
C404 C405 1.392 . S
C404 C407 1.511 . S
C405 C401 1.376 . S
C405 C404 1.392 . S
C405 H417 0.929 . S
C406 C402 1.531 . S
C406 H418 0.960 . S
C406 H419 0.962 . S
C406 H420 0.960 . S
C407 C404 1.511 . S
C407 H421 0.961 . S
C407 H422 0.961 . S
C407 H423 0.961 . S
C408 C409 1.370 . S
C408 C410 1.363 . S
C408 H424 0.931 . S
C409 C408 1.370 . S
C409 C413 1.408 . S
C410 C408 1.363 . S
C410 C411 1.370 . S
C410 C414 1.524 . S
C411 C403 1.503 . S
C411 C410 1.370 . S
C411 C412 1.403 . S
C412 C411 1.403 . S
C412 C413 1.404 . S
C412 C415 1.539 . S
C413 C409 1.408 . S
C413 C412 1.404 . S
C413 H425 0.930 . S
C414 C410 1.524 . S
C414 H426 0.956 . S
C414 H427 0.961 . S
C414 H428 0.961 . S
C415 C412 1.539 . S
C415 H429 0.958 . S
C415 H430 0.961 . S
C415 H431 0.960 . S
H416 C400 0.931 . S
H417 C405 0.929 . S
H418 C406 0.960 . S
H419 C406 0.962 . S
H420 C406 0.960 . S
H421 C407 0.961 . S
H422 C407 0.961 . S
H423 C407 0.961 . S
H424 C408 0.931 . S
H425 C413 0.930 . S
H426 C414 0.956 . S
H427 C414 0.961 . S
H428 C414 0.961 . S
H429 C415 0.958 . S
H430 C415 0.961 . S
H431 C415 0.960 . S
C432 C433 1.391 . S
C432 C434 1.394 . S
C432 H448 0.931 . S
C433 C432 1.391 . S
C433 C437 1.376 . S
C434 C432 1.394 . S
C434 C435 1.369 . S
C434 C438 1.531 . S
C435 C434 1.369 . S
C435 C436 1.410 . S
C435 C443 1.503 . S
C436 C435 1.410 . S
C436 C437 1.392 . S
C436 C439 1.511 . S
C437 C433 1.376 . S
C437 C436 1.392 . S
C437 H449 0.929 . S
C438 C434 1.531 . S
C438 H450 0.960 . S
C438 H451 0.962 . S
C438 H452 0.960 . S
C439 C436 1.511 . S
C439 H453 0.961 . S
C439 H454 0.961 . S
C439 H455 0.961 . S
C440 C441 1.370 . S
C440 C442 1.363 . S
C440 H456 0.931 . S
C441 C440 1.370 . S
C441 C445 1.408 . S
C442 C440 1.363 . S
C442 C443 1.370 . S
C442 C446 1.524 . S
C443 C435 1.503 . S
C443 C442 1.370 . S
C443 C444 1.403 . S
C444 C443 1.403 . S
C444 C445 1.404 . S
C444 C447 1.539 . S
C445 C441 1.408 . S
C445 C444 1.404 . S
C445 H457 0.930 . S
C446 C442 1.524 . S
C446 H458 0.956 . S
C446 H459 0.961 . S
C446 H460 0.961 . S
C447 C444 1.539 . S
C447 H461 0.958 . S
C447 H462 0.961 . S
C447 H463 0.960 . S
H448 C432 0.931 . S
H449 C437 0.929 . S
H450 C438 0.960 . S
H451 C438 0.962 . S
H452 C438 0.960 . S
H453 C439 0.961 . S
H454 C439 0.961 . S
H455 C439 0.961 . S
H456 C440 0.931 . S
H457 C445 0.930 . S
H458 C446 0.956 . S
H459 C446 0.961 . S
H460 C446 0.961 . S
H461 C447 0.958 . S
H462 C447 0.961 . S
H463 C447 0.960 . S
C464 C465 1.391 . S
C464 C466 1.394 . S
C464 H480 0.931 . S
C465 C464 1.391 . S
C465 C469 1.376 . S
C466 C464 1.394 . S
C466 C467 1.369 . S
C466 C470 1.531 . S
C467 C466 1.369 . S
C467 C468 1.410 . S
C467 C475 1.503 . S
C468 C467 1.410 . S
C468 C469 1.392 . S
C468 C471 1.511 . S
C469 C465 1.376 . S
C469 C468 1.392 . S
C469 H481 0.929 . S
C470 C466 1.531 . S
C470 H482 0.960 . S
C470 H483 0.962 . S
C470 H484 0.960 . S
C471 C468 1.511 . S
C471 H485 0.961 . S
C471 H486 0.961 . S
C471 H487 0.961 . S
C472 C473 1.370 . S
C472 C474 1.363 . S
C472 H488 0.931 . S
C473 C472 1.370 . S
C473 C477 1.408 . S
C474 C472 1.363 . S
C474 C475 1.370 . S
C474 C478 1.524 . S
C475 C467 1.503 . S
C475 C474 1.370 . S
C475 C476 1.403 . S
C476 C475 1.403 . S
C476 C477 1.404 . S
C476 C479 1.539 . S
C477 C473 1.408 . S
C477 C476 1.404 . S
C477 H489 0.930 . S
C478 C474 1.524 . S
C478 H490 0.956 . S
C478 H491 0.961 . S
C478 H492 0.961 . S
C479 C476 1.539 . S
C479 H493 0.958 . S
C479 H494 0.961 . S
C479 H495 0.960 . S
H480 C464 0.931 . S
H481 C469 0.929 . S
H482 C470 0.960 . S
H483 C470 0.962 . S
H484 C470 0.960 . S
H485 C471 0.961 . S
H486 C471 0.961 . S
H487 C471 0.961 . S
H488 C472 0.931 . S
H489 C477 0.930 . S
H490 C478 0.956 . S
H491 C478 0.961 . S
H492 C478 0.961 . S
H493 C479 0.958 . S
H494 C479 0.961 . S
H495 C479 0.960 . S
C496 C497 1.391 . S
C496 C498 1.394 . S
C496 H512 0.931 . S
C497 C496 1.391 . S
C497 C501 1.376 . S
C498 C496 1.394 . S
C498 C499 1.369 . S
C498 C502 1.531 . S
C499 C498 1.369 . S
C499 C500 1.410 . S
C499 C507 1.503 . S
C500 C499 1.410 . S
C500 C501 1.392 . S
C500 C503 1.511 . S
C501 C497 1.376 . S
C501 C500 1.392 . S
C501 H513 0.929 . S
C502 C498 1.531 . S
C502 H514 0.960 . S
C502 H515 0.962 . S
C502 H516 0.960 . S
C503 C500 1.511 . S
C503 H517 0.961 . S
C503 H518 0.961 . S
C503 H519 0.961 . S
C504 C505 1.370 . S
C504 C506 1.363 . S
C504 H520 0.931 . S
C505 C504 1.370 . S
C505 C509 1.408 . S
C506 C504 1.363 . S
C506 C507 1.370 . S
C506 C510 1.524 . S
C507 C499 1.503 . S
C507 C506 1.370 . S
C507 C508 1.403 . S
C508 C507 1.403 . S
C508 C509 1.404 . S
C508 C511 1.539 . S
C509 C505 1.408 . S
C509 C508 1.404 . S
C509 H521 0.930 . S
C510 C506 1.524 . S
C510 H522 0.956 . S
C510 H523 0.961 . S
C510 H524 0.961 . S
C511 C508 1.539 . S
C511 H525 0.958 . S
C511 H526 0.961 . S
C511 H527 0.960 . S
H512 C496 0.931 . S
H513 C501 0.929 . S
H514 C502 0.960 . S
H515 C502 0.962 . S
H516 C502 0.960 . S
H517 C503 0.961 . S
H518 C503 0.961 . S
H519 C503 0.961 . S
H520 C504 0.931 . S
H521 C509 0.930 . S
H522 C510 0.956 . S
H523 C510 0.961 . S
H524 C510 0.961 . S
H525 C511 0.958 . S
H526 C511 0.961 . S
H527 C511 0.960 . S
C528 C529 1.391 . S
C528 C530 1.394 1_556 S
C528 H544 0.931 1_556 S
C529 C528 1.391 . S
C529 C533 1.376 . S
C530 C528 1.394 1_554 S
C530 C531 1.369 . S
C530 C534 1.531 . S
C531 C530 1.369 . S
C531 C532 1.410 1_554 S
C531 C539 1.503 . S
C532 C531 1.410 1_556 S
C532 C533 1.392 . S
C532 C535 1.511 . S
C533 C529 1.376 . S
C533 C532 1.392 . S
C533 H545 0.929 . S
C534 C530 1.531 . S
C534 H546 0.960 . S
C534 H547 0.962 . S
C534 H548 0.960 . S
C535 C532 1.511 . S
C535 H549 0.961 . S
C535 H550 0.961 . S
C535 H551 0.961 . S
C536 C537 1.370 1_556 S
C536 C538 1.363 . S
C536 H552 0.931 . S
C537 C536 1.370 1_554 S
C537 C541 1.408 . S
C538 C536 1.363 . S
C538 C539 1.370 1_556 S
C538 C542 1.524 . S
C539 C531 1.503 . S
C539 C538 1.370 1_554 S
C539 C540 1.403 . S
C540 C539 1.403 . S
C540 C541 1.404 . S
C540 C543 1.539 . S
C541 C537 1.408 . S
C541 C540 1.404 . S
C541 H553 0.930 . S
C542 C538 1.524 . S
C542 H554 0.956 . S
C542 H555 0.961 . S
C542 H556 0.961 . S
C543 C540 1.539 . S
C543 H557 0.958 . S
C543 H558 0.961 . S
C543 H559 0.960 . S
H544 C528 0.931 1_554 S
H545 C533 0.929 . S
H546 C534 0.960 . S
H547 C534 0.962 . S
H548 C534 0.960 . S
H549 C535 0.961 . S
H550 C535 0.961 . S
H551 C535 0.961 . S
H552 C536 0.931 . S
H553 C541 0.930 . S
H554 C542 0.956 . S
H555 C542 0.961 . S
H556 C542 0.961 . S
H557 C543 0.958 . S
H558 C543 0.961 . S
H559 C543 0.960 . S
C560 C561 1.391 . S
C560 C562 1.394 . S
C560 H576 0.931 . S
C561 C560 1.391 . S
C561 C565 1.376 . S
C562 C560 1.394 . S
C562 C563 1.369 . S
C562 C566 1.531 . S
C563 C562 1.369 . S
C563 C564 1.410 . S
C563 C571 1.503 . S
C564 C563 1.410 . S
C564 C565 1.392 . S
C564 C567 1.511 . S
C565 C561 1.376 . S
C565 C564 1.392 . S
C565 H577 0.929 . S
C566 C562 1.531 . S
C566 H578 0.960 . S
C566 H579 0.962 . S
C566 H580 0.960 . S
C567 C564 1.511 . S
C567 H581 0.961 . S
C567 H582 0.961 . S
C567 H583 0.961 . S
C568 C569 1.370 . S
C568 C570 1.363 . S
C568 H584 0.931 . S
C569 C568 1.370 . S
C569 C573 1.408 . S
C570 C568 1.363 . S
C570 C571 1.370 . S
C570 C574 1.524 . S
C571 C563 1.503 . S
C571 C570 1.370 . S
C571 C572 1.403 . S
C572 C571 1.403 . S
C572 C573 1.404 . S
C572 C575 1.539 . S
C573 C569 1.408 . S
C573 C572 1.404 . S
C573 H585 0.930 . S
C574 C570 1.524 . S
C574 H586 0.956 . S
C574 H587 0.961 . S
C574 H588 0.961 . S
C575 C572 1.539 . S
C575 H589 0.958 . S
C575 H590 0.961 . S
C575 H591 0.960 . S
H576 C560 0.931 . S
H577 C565 0.929 . S
H578 C566 0.960 . S
H579 C566 0.962 . S
H580 C566 0.960 . S
H581 C567 0.961 . S
H582 C567 0.961 . S
H583 C567 0.961 . S
H584 C568 0.931 . S
H585 C573 0.930 . S
H586 C574 0.956 . S
H587 C574 0.961 . S
H588 C574 0.961 . S
H589 C575 0.958 . S
H590 C575 0.961 . S
H591 C575 0.960 . S
C592 C593 1.391 . S
C592 C594 1.394 . S
C592 H608 0.931 . S
C593 C592 1.391 . S
C593 C597 1.376 . S
C594 C592 1.394 . S
C594 C595 1.369 . S
C594 C598 1.531 . S
C595 C594 1.369 . S
C595 C596 1.410 1_556 S
C595 C603 1.503 1_546 S
C596 C595 1.410 1_554 S
C596 C597 1.392 1_554 S
C596 C599 1.511 . S
C597 C593 1.376 . S
C597 C596 1.392 1_556 S
C597 H609 0.929 1_556 S
C598 C594 1.531 . S
C598 H610 0.960 1_545 S
C598 H611 0.962 . S
C598 H612 0.960 . S
C599 C596 1.511 . S
C599 H613 0.961 . S
C599 H614 0.961 . S
C599 H615 0.961 . S
C600 C601 1.370 . S
C600 C602 1.363 . S
C600 H616 0.931 . S
C601 C600 1.370 . S
C601 C605 1.408 1_554 S
C602 C600 1.363 . S
C602 C603 1.370 . S
C602 C606 1.550 . S
C603 C595 1.503 1_564 S
C603 C602 1.370 . S
C603 C604 1.403 1_554 S
C604 C603 1.403 1_556 S
C604 C605 1.404 . S
C604 C607 1.539 . S
C605 C601 1.408 1_556 S
C605 C604 1.404 . S
C605 H617 0.930 . S
C606 C602 1.550 . S
C606 H618 0.944 1_565 S
C606 H619 0.933 1_565 S
C606 H620 0.976 . S
C607 C604 1.539 . S
C607 H621 0.958 . S
C607 H622 0.961 . S
C607 H623 0.960 . S
H608 C592 0.931 . S
H609 C597 0.929 1_554 S
H610 C598 0.960 1_565 S
H611 C598 0.962 . S
H612 C598 0.960 . S
H613 C599 0.961 . S
H614 C599 0.961 . S
H615 C599 0.961 . S
H616 C600 0.931 . S
H617 C605 0.930 . S
H618 C606 0.944 1_545 S
H619 C606 0.933 1_545 S
H620 C606 0.976 . S
H621 C607 0.958 . S
H622 C607 0.961 . S
H623 C607 0.960 . S
C624 C625 1.391 . S
C624 C626 1.394 . S
C624 H640 0.931 . S
C625 C624 1.391 . S
C625 C629 1.376 . S
C626 C624 1.394 . S
C626 C627 1.369 . S
C626 C630 1.531 . S
C627 C626 1.369 . S
C627 C628 1.410 . S
C627 C635 1.503 1_565 S
C628 C627 1.410 . S
C628 C629 1.392 . S
C628 C631 1.512 1_565 S
C629 C625 1.376 . S
C629 C628 1.392 . S
C629 H641 0.929 . S
C630 C626 1.531 . S
C630 H642 0.960 . S
C630 H643 0.962 . S
C630 H644 0.960 . S
C631 C628 1.512 1_545 S
C631 H645 0.961 1_445 S
C631 H646 0.961 . S
C631 H647 0.960 . S
C632 C633 1.351 1_655 S
C632 C634 1.362 1_655 S
C632 H648 0.953 . S
C633 C632 1.351 1_455 S
C633 C637 1.408 . S
C634 C632 1.362 1_455 S
C634 C635 1.398 . S
C634 C638 1.499 1_455 S
C635 C627 1.503 1_545 S
C635 C634 1.398 . S
C635 C636 1.403 . S
C636 C635 1.403 . S
C636 C637 1.404 . S
C636 C639 1.539 . S
C637 C633 1.408 . S
C637 C636 1.404 . S
C637 H649 0.930 . S
C638 C634 1.499 1_655 S
C638 H650 0.956 1_545 S
C638 H651 0.961 1_545 S
C638 H652 0.961 . S
C639 C636 1.539 . S
C639 H653 0.958 . S
C639 H654 0.961 . S
C639 H655 0.960 . S
H640 C624 0.931 . S
H641 C629 0.929 . S
H642 C630 0.960 . S
H643 C630 0.962 . S
H644 C630 0.960 . S
H645 C631 0.961 1_665 S
H646 C631 0.961 . S
H647 C631 0.960 . S
H648 C632 0.953 . S
H649 C637 0.930 . S
H650 C638 0.956 1_565 S
H651 C638 0.961 1_565 S
H652 C638 0.961 . S
H653 C639 0.958 . S
H654 C639 0.961 . S
H655 C639 0.960 . S
C656 C657 1.391 . S
C656 C658 1.394 . S
C656 H672 0.931 . S
C657 C656 1.391 . S
C657 C661 1.376 . S
C658 C656 1.394 . S
C658 C659 1.369 . S
C658 C662 1.531 . S
C659 C658 1.369 . S
C659 C660 1.410 . S
C659 C667 1.503 . S
C660 C659 1.410 . S
C660 C661 1.392 . S
C660 C663 1.511 . S
C661 C657 1.376 . S
C661 C660 1.392 . S
C661 H673 0.929 1_556 S
C662 C658 1.531 . S
C662 H674 0.960 . S
C662 H675 0.962 . S
C662 H676 0.960 . S
C663 C660 1.511 . S
C663 H677 0.961 1_556 S
C663 H678 0.961 . S
C663 H679 0.961 . S
C664 C665 1.370 . S
C664 C666 1.363 . S
C664 H680 0.931 . S
C665 C664 1.370 . S
C665 C669 1.408 . S
C666 C664 1.363 . S
C666 C667 1.370 . S
C666 C670 1.524 1_556 S
C667 C659 1.503 . S
C667 C666 1.370 . S
C667 C668 1.403 . S
C668 C667 1.403 . S
C668 C669 1.404 . S
C668 C671 1.539 . S
C669 C665 1.408 . S
C669 C668 1.404 . S
C669 H681 0.930 . S
C670 C666 1.524 1_554 S
C670 H682 0.956 . S
C670 H683 0.961 . S
C670 H684 0.961 . S
C671 C668 1.539 . S
C671 H685 0.958 . S
C671 H686 0.961 . S
C671 H687 0.960 . S
H672 C656 0.931 . S
H673 C661 0.929 1_554 S
H674 C662 0.960 . S
H675 C662 0.962 . S
H676 C662 0.960 . S
H677 C663 0.961 1_554 S
H678 C663 0.961 . S
H679 C663 0.961 . S
H680 C664 0.931 . S
H681 C669 0.930 . S
H682 C670 0.956 . S
H683 C670 0.961 . S
H684 C670 0.961 . S
H685 C671 0.958 . S
H686 C671 0.961 . S
H687 C671 0.960 . S
C688 C689 1.391 . S
C688 C690 1.394 . S
C688 H704 0.931 . S
C689 C688 1.391 . S
C689 C693 1.376 . S
C690 C688 1.394 . S
C690 C691 1.369 . S
C690 C694 1.531 . S
C691 C690 1.369 . S
C691 C692 1.410 . S
C691 C699 1.503 . S
C692 C691 1.410 . S
C692 C693 1.392 . S
C692 C695 1.511 . S
C693 C689 1.376 . S
C693 C692 1.392 . S
C693 H705 0.929 . S
C694 C690 1.531 . S
C694 H706 0.960 . S
C694 H707 0.962 . S
C694 H708 0.960 . S
C695 C692 1.511 . S
C695 H709 0.961 . S
C695 H710 0.961 . S
C695 H711 0.961 . S
C696 C697 1.370 . S
C696 C698 1.363 . S
C696 H712 0.931 . S
C697 C696 1.370 . S
C697 C701 1.408 . S
C698 C696 1.363 . S
C698 C699 1.370 . S
C698 C702 1.524 . S
C699 C691 1.503 . S
C699 C698 1.370 . S
C699 C700 1.403 . S
C700 C699 1.403 . S
C700 C701 1.404 . S
C700 C703 1.539 . S
C701 C697 1.408 . S
C701 C700 1.404 . S
C701 H713 0.930 . S
C702 C698 1.524 . S
C702 H714 0.956 . S
C702 H715 0.961 . S
C702 H716 0.961 . S
C703 C700 1.539 . S
C703 H717 0.958 . S
C703 H718 0.961 . S
C703 H719 0.960 . S
H704 C688 0.931 . S
H705 C693 0.929 . S
H706 C694 0.960 . S
H707 C694 0.962 . S
H708 C694 0.960 . S
H709 C695 0.961 . S
H710 C695 0.961 . S
H711 C695 0.961 . S
H712 C696 0.931 . S
H713 C701 0.930 . S
H714 C702 0.956 . S
H715 C702 0.961 . S
H716 C702 0.961 . S
H717 C703 0.958 . S
H718 C703 0.961 . S
H719 C703 0.960 . S
C720 C721 1.391 . S
C720 C722 1.394 . S
C720 H736 0.931 . S
C721 C720 1.391 . S
C721 C725 1.376 . S
C722 C720 1.394 . S
C722 C723 1.369 . S
C722 C726 1.531 1_554 S
C723 C722 1.369 . S
C723 C724 1.410 . S
C723 C731 1.503 . S
C724 C723 1.410 . S
C724 C725 1.392 . S
C724 C727 1.511 . S
C725 C721 1.376 . S
C725 C724 1.392 . S
C725 H737 0.929 . S
C726 C722 1.531 1_556 S
C726 H738 0.960 . S
C726 H739 0.962 . S
C726 H740 0.960 . S
C727 C724 1.511 . S
C727 H741 0.961 . S
C727 H742 0.961 . S
C727 H743 0.961 . S
C728 C729 1.370 1_554 S
C728 C730 1.363 . S
C728 H744 0.931 . S
C729 C728 1.370 1_556 S
C729 C733 1.408 1_556 S
C730 C728 1.363 . S
C730 C731 1.370 . S
C730 C734 1.524 . S
C731 C723 1.503 . S
C731 C730 1.370 . S
C731 C732 1.403 . S
C732 C731 1.403 . S
C732 C733 1.404 . S
C732 C735 1.539 . S
C733 C729 1.408 1_554 S
C733 C732 1.404 . S
C733 H745 0.930 1_554 S
C734 C730 1.524 . S
C734 H746 0.956 . S
C734 H747 0.961 . S
C734 H748 0.961 1_455 S
C735 C732 1.539 . S
C735 H749 0.958 . S
C735 H750 0.961 . S
C735 H751 0.960 . S
H736 C720 0.931 . S
H737 C725 0.929 . S
H738 C726 0.960 . S
H739 C726 0.962 . S
H740 C726 0.960 . S
H741 C727 0.961 . S
H742 C727 0.961 . S
H743 C727 0.961 . S
H744 C728 0.931 . S
H745 C733 0.930 1_556 S
H746 C734 0.956 . S
H747 C734 0.961 . S
H748 C734 0.961 1_655 S
H749 C735 0.958 . S
H750 C735 0.961 . S
H751 C735 0.960 . S
C752 C753 1.391 . S
C752 C754 1.394 . S
C752 H768 0.931 . S
C753 C752 1.391 . S
C753 C757 1.376 . S
C754 C752 1.394 . S
C754 C755 1.369 . S
C754 C758 1.531 . S
C755 C754 1.369 . S
C755 C756 1.410 . S
C755 C763 1.503 . S
C756 C755 1.410 . S
C756 C757 1.392 . S
C756 C759 1.511 . S
C757 C753 1.376 . S
C757 C756 1.392 . S
C757 H769 0.929 . S
C758 C754 1.531 . S
C758 H770 0.960 . S
C758 H771 0.962 . S
C758 H772 0.960 . S
C759 C756 1.511 . S
C759 H773 0.961 . S
C759 H774 0.961 . S
C759 H775 0.961 . S
C760 C761 1.370 . S
C760 C762 1.363 . S
C760 H776 0.931 . S
C761 C760 1.370 . S
C761 C765 1.408 . S
C762 C760 1.363 . S
C762 C763 1.370 . S
C762 C766 1.524 . S
C763 C755 1.503 . S
C763 C762 1.370 . S
C763 C764 1.403 . S
C764 C763 1.403 . S
C764 C765 1.404 . S
C764 C767 1.539 . S
C765 C761 1.408 . S
C765 C764 1.404 . S
C765 H777 0.930 . S
C766 C762 1.524 . S
C766 H778 0.956 . S
C766 H779 0.961 . S
C766 H780 0.961 . S
C767 C764 1.539 . S
C767 H781 0.958 . S
C767 H782 0.961 . S
C767 H783 0.960 . S
H768 C752 0.931 . S
H769 C757 0.929 . S
H770 C758 0.960 . S
H771 C758 0.962 . S
H772 C758 0.960 . S
H773 C759 0.961 . S
H774 C759 0.961 . S
H775 C759 0.961 . S
H776 C760 0.931 . S
H777 C765 0.930 . S
H778 C766 0.956 . S
H779 C766 0.961 . S
H780 C766 0.961 . S
H781 C767 0.958 . S
H782 C767 0.961 . S
H783 C767 0.960 . S
C784 C785 1.391 . S
C784 C786 1.394 . S
C784 H800 0.931 . S
C785 C784 1.391 . S
C785 C789 1.376 . S
C786 C784 1.394 . S
C786 C787 1.369 . S
C786 C790 1.531 1_556 S
C787 C786 1.369 . S
C787 C788 1.410 . S
C787 C795 1.503 . S
C788 C787 1.410 . S
C788 C789 1.392 . S
C788 C791 1.511 . S
C789 C785 1.376 . S
C789 C788 1.392 . S
C789 H801 0.929 . S
C790 C786 1.531 1_554 S
C790 H802 0.960 . S
C790 H803 0.962 . S
C790 H804 0.960 . S
C791 C788 1.511 . S
C791 H805 0.961 . S
C791 H806 0.961 . S
C791 H807 0.961 . S
C792 C793 1.370 1_556 S
C792 C794 1.363 . S
C792 H808 0.931 . S
C793 C792 1.370 1_554 S
C793 C797 1.408 . S
C794 C792 1.363 . S
C794 C795 1.370 . S
C794 C798 1.524 . S
C795 C787 1.503 . S
C795 C794 1.370 . S
C795 C796 1.403 . S
C796 C795 1.403 . S
C796 C797 1.404 1_556 S
C796 C799 1.539 1_556 S
C797 C793 1.408 . S
C797 C796 1.404 1_554 S
C797 H809 0.930 . S
C798 C794 1.524 . S
C798 H810 0.956 . S
C798 H811 0.961 . S
C798 H812 0.961 . S
C799 C796 1.539 1_554 S
C799 H813 0.958 . S
C799 H814 0.961 . S
C799 H815 0.960 1_554 S
H800 C784 0.931 . S
H801 C789 0.929 . S
H802 C790 0.960 . S
H803 C790 0.962 . S
H804 C790 0.960 . S
H805 C791 0.961 . S
H806 C791 0.961 . S
H807 C791 0.961 . S
H808 C792 0.931 . S
H809 C797 0.930 . S
H810 C798 0.956 . S
H811 C798 0.961 . S
H812 C798 0.961 . S
H813 C799 0.958 . S
H814 C799 0.961 . S
H815 C799 0.960 1_556 S
C816 C817 1.391 . S
C816 C818 1.394 . S
C816 H832 0.931 . S
C817 C816 1.391 . S
C817 C821 1.376 . S
C818 C816 1.394 . S
C818 C819 1.369 . S
C818 C822 1.531 . S
C819 C818 1.369 . S
C819 C820 1.410 . S
C819 C827 1.503 . S
C820 C819 1.410 . S
C820 C821 1.392 . S
C820 C823 1.511 . S
C821 C817 1.376 . S
C821 C820 1.392 . S
C821 H833 0.929 . S
C822 C818 1.531 . S
C822 H834 0.960 . S
C822 H835 0.962 . S
C822 H836 0.960 1_455 S
C823 C820 1.511 . S
C823 H837 0.961 . S
C823 H838 0.961 . S
C823 H839 0.961 . S
C824 C825 1.370 . S
C824 C826 1.363 . S
C824 H840 0.931 . S
C825 C824 1.370 . S
C825 C829 1.408 . S
C826 C824 1.363 . S
C826 C827 1.370 . S
C826 C830 1.524 . S
C827 C819 1.503 . S
C827 C826 1.370 . S
C827 C828 1.403 . S
C828 C827 1.403 . S
C828 C829 1.404 . S
C828 C831 1.539 . S
C829 C825 1.408 . S
C829 C828 1.404 . S
C829 H841 0.930 . S
C830 C826 1.524 . S
C830 H842 0.956 . S
C830 H843 0.961 . S
C830 H844 0.961 . S
C831 C828 1.539 . S
C831 H845 0.958 . S
C831 H846 0.961 . S
C831 H847 0.960 . S
H832 C816 0.931 . S
H833 C821 0.929 . S
H834 C822 0.960 . S
H835 C822 0.962 . S
H836 C822 0.960 1_655 S
H837 C823 0.961 . S
H838 C823 0.961 . S
H839 C823 0.961 . S
H840 C824 0.931 . S
H841 C829 0.930 . S
H842 C830 0.956 . S
H843 C830 0.961 . S
H844 C830 0.961 . S
H845 C831 0.958 . S
H846 C831 0.961 . S
H847 C831 0.960 . S
C848 C849 1.391 . S
C848 C850 1.394 . S
C848 H864 0.931 . S
C849 C848 1.391 . S
C849 C853 1.376 . S
C850 C848 1.394 . S
C850 C851 1.369 . S
C850 C854 1.531 1_554 S
C851 C850 1.369 . S
C851 C852 1.410 . S
C851 C859 1.503 . S
C852 C851 1.410 . S
C852 C853 1.392 . S
C852 C855 1.511 . S
C853 C849 1.376 . S
C853 C852 1.392 . S
C853 H865 0.929 . S
C854 C850 1.531 1_556 S
C854 H866 0.960 . S
C854 H867 0.962 1_556 S
C854 H868 0.960 . S
C855 C852 1.511 . S
C855 H869 0.961 . S
C855 H870 0.961 . S
C855 H871 0.961 . S
C856 C857 1.370 1_554 S
C856 C858 1.363 . S
C856 H872 0.931 . S
C857 C856 1.370 1_556 S
C857 C861 1.408 . S
C858 C856 1.363 . S
C858 C859 1.370 . S
C858 C862 1.524 . S
C859 C851 1.503 . S
C859 C858 1.370 . S
C859 C860 1.403 1_554 S
C860 C859 1.403 1_556 S
C860 C861 1.404 . S
C860 C863 1.539 . S
C861 C857 1.408 . S
C861 C860 1.404 . S
C861 H873 0.930 . S
C862 C858 1.524 . S
C862 H874 0.956 . S
C862 H875 0.961 . S
C862 H876 0.961 . S
C863 C860 1.539 . S
C863 H877 0.958 . S
C863 H878 0.961 . S
C863 H879 0.960 . S
H864 C848 0.931 . S
H865 C853 0.929 . S
H866 C854 0.960 . S
H867 C854 0.962 1_554 S
H868 C854 0.960 . S
H869 C855 0.961 . S
H870 C855 0.961 . S
H871 C855 0.961 . S
H872 C856 0.931 . S
H873 C861 0.930 . S
H874 C862 0.956 . S
H875 C862 0.961 . S
H876 C862 0.961 . S
H877 C863 0.958 . S
H878 C863 0.961 . S
H879 C863 0.960 . S
C880 C881 1.391 . S
C880 C882 1.394 . S
C880 H896 0.931 . S
C881 C880 1.391 . S
C881 C885 1.376 . S
C882 C880 1.394 . S
C882 C883 1.369 . S
C882 C886 1.531 . S
C883 C882 1.369 . S
C883 C884 1.410 . S
C883 C891 1.503 . S
C884 C883 1.410 . S
C884 C885 1.392 . S
C884 C887 1.511 . S
C885 C881 1.376 . S
C885 C884 1.392 . S
C885 H897 0.929 . S
C886 C882 1.531 . S
C886 H898 0.960 . S
C886 H899 0.962 . S
C886 H900 0.960 . S
C887 C884 1.511 . S
C887 H901 0.961 . S
C887 H902 0.961 . S
C887 H903 0.961 . S
C888 C889 1.370 . S
C888 C890 1.363 . S
C888 H904 0.931 . S
C889 C888 1.370 . S
C889 C893 1.408 . S
C890 C888 1.363 . S
C890 C891 1.370 . S
C890 C894 1.524 . S
C891 C883 1.503 . S
C891 C890 1.370 . S
C891 C892 1.403 . S
C892 C891 1.403 . S
C892 C893 1.404 . S
C892 C895 1.539 . S
C893 C889 1.408 . S
C893 C892 1.404 . S
C893 H905 0.930 . S
C894 C890 1.524 . S
C894 H906 0.956 . S
C894 H907 0.961 . S
C894 H908 0.961 . S
C895 C892 1.539 . S
C895 H909 0.958 . S
C895 H910 0.961 1_455 S
C895 H911 0.960 . S
H896 C880 0.931 . S
H897 C885 0.929 . S
H898 C886 0.960 . S
H899 C886 0.962 . S
H900 C886 0.960 . S
H901 C887 0.961 . S
H902 C887 0.961 . S
H903 C887 0.961 . S
H904 C888 0.931 . S
H905 C893 0.930 . S
H906 C894 0.956 . S
H907 C894 0.961 . S
H908 C894 0.961 . S
H909 C895 0.958 . S
H910 C895 0.961 1_655 S
H911 C895 0.960 . S
C912 C913 1.391 . S
C912 C914 1.394 . S
C912 H928 0.931 . S
C913 C912 1.391 . S
C913 C917 1.376 . S
C914 C912 1.394 . S
C914 C915 1.369 . S
C914 C918 1.531 . S
C915 C914 1.369 . S
C915 C916 1.410 . S
C915 C923 1.503 . S
C916 C915 1.410 . S
C916 C917 1.392 . S
C916 C919 1.511 . S
C917 C913 1.376 . S
C917 C916 1.392 . S
C917 H929 0.929 . S
C918 C914 1.531 . S
C918 H930 0.960 . S
C918 H931 0.962 . S
C918 H932 0.960 . S
C919 C916 1.511 . S
C919 H933 0.961 . S
C919 H934 0.961 . S
C919 H935 0.961 . S
C920 C921 1.370 . S
C920 C922 1.363 . S
C920 H936 0.931 . S
C921 C920 1.370 . S
C921 C925 1.408 . S
C922 C920 1.363 . S
C922 C923 1.370 . S
C922 C926 1.524 . S
C923 C915 1.503 . S
C923 C922 1.370 . S
C923 C924 1.403 . S
C924 C923 1.403 . S
C924 C925 1.404 . S
C924 C927 1.539 . S
C925 C921 1.408 . S
C925 C924 1.404 . S
C925 H937 0.930 . S
C926 C922 1.524 . S
C926 H938 0.956 . S
C926 H939 0.961 . S
C926 H940 0.961 . S
C927 C924 1.539 . S
C927 H941 0.958 . S
C927 H942 0.961 . S
C927 H943 0.960 . S
H928 C912 0.931 . S
H929 C917 0.929 . S
H930 C918 0.960 . S
H931 C918 0.962 . S
H932 C918 0.960 . S
H933 C919 0.961 . S
H934 C919 0.961 . S
H935 C919 0.961 . S
H936 C920 0.931 . S
H937 C925 0.930 . S
H938 C926 0.956 . S
H939 C926 0.961 . S
H940 C926 0.961 . S
H941 C927 0.958 . S
H942 C927 0.961 . S
H943 C927 0.960 . S
C944 C945 1.391 . S
C944 C946 1.394 . S
C944 H960 0.931 . S
C945 C944 1.391 . S
C945 C949 1.376 . S
C946 C944 1.394 . S
C946 C947 1.369 . S
C946 C950 1.531 . S
C947 C946 1.369 . S
C947 C948 1.410 . S
C947 C955 1.503 . S
C948 C947 1.410 . S
C948 C949 1.392 . S
C948 C951 1.511 . S
C949 C945 1.376 . S
C949 C948 1.392 . S
C949 H961 0.929 . S
C950 C946 1.531 . S
C950 H962 0.960 . S
C950 H963 0.962 . S
C950 H964 0.960 . S
C951 C948 1.511 . S
C951 H965 0.961 . S
C951 H966 0.961 . S
C951 H967 0.961 . S
C952 C953 1.370 . S
C952 C954 1.363 1_556 S
C952 H968 0.931 . S
C953 C952 1.370 . S
C953 C957 1.408 . S
C954 C952 1.363 1_554 S
C954 C955 1.370 . S
C954 C958 1.524 . S
C955 C947 1.503 . S
C955 C954 1.370 . S
C955 C956 1.403 . S
C956 C955 1.403 . S
C956 C957 1.404 1_554 S
C956 C959 1.539 . S
C957 C953 1.408 . S
C957 C956 1.404 1_556 S
C957 H969 0.930 . S
C958 C954 1.524 . S
C958 H970 0.956 . S
C958 H971 0.961 . S
C958 H972 0.961 . S
C959 C956 1.539 . S
C959 H973 0.958 . S
C959 H974 0.961 . S
C959 H975 0.960 . S
H960 C944 0.931 . S
H961 C949 0.929 . S
H962 C950 0.960 . S
H963 C950 0.962 . S
H964 C950 0.960 . S
H965 C951 0.961 . S
H966 C951 0.961 . S
H967 C951 0.961 . S
H968 C952 0.931 . S
H969 C957 0.930 . S
H970 C958 0.956 . S
H971 C958 0.961 . S
H972 C958 0.961 . S
H973 C959 0.958 . S
H974 C959 0.961 . S
H975 C959 0.960 . S
C976 C977 1.391 . S
C976 C978 1.394 . S
C976 H992 0.931 . S
C977 C976 1.391 . S
C977 C981 1.376 . S
C978 C976 1.394 . S
C978 C979 1.369 . S
C978 C982 1.531 . S
C979 C978 1.369 . S
C979 C980 1.410 . S
C979 C987 1.503 . S
C980 C979 1.410 . S
C980 C981 1.392 . S
C980 C983 1.511 . S
C981 C977 1.376 . S
C981 C980 1.392 . S
C981 H993 0.929 . S
C982 C978 1.531 . S
C982 H994 0.960 . S
C982 H995 0.962 . S
C982 H996 0.960 . S
C983 C980 1.511 . S
C983 H997 0.961 . S
C983 H998 0.961 . S
C983 H999 0.961 . S
C984 C985 1.370 . S
C984 C986 1.363 . S
C984 H1000 0.931 . S
C985 C984 1.370 . S
C985 C989 1.408 . S
C986 C984 1.363 . S
C986 C987 1.370 . S
C986 C990 1.524 . S
C987 C979 1.503 . S
C987 C986 1.370 . S
C987 C988 1.403 . S
C988 C987 1.403 . S
C988 C989 1.404 . S
C988 C991 1.539 . S
C989 C985 1.408 . S
C989 C988 1.404 . S
C989 H1001 0.930 . S
C990 C986 1.524 . S
C990 H1002 0.956 . S
C990 H1003 0.961 . S
C990 H1004 0.961 . S
C991 C988 1.539 . S
C991 H1005 0.958 . S
C991 H1006 0.961 . S
C991 H1007 0.960 . S
H992 C976 0.931 . S
H993 C981 0.929 . S
H994 C982 0.960 . S
H995 C982 0.962 . S
H996 C982 0.960 . S
H997 C983 0.961 . S
H998 C983 0.961 . S
H999 C983 0.961 . S
H1000 C984 0.931 . S
H1001 C989 0.930 . S
H1002 C990 0.956 . S
H1003 C990 0.961 . S
H1004 C990 0.961 . S
H1005 C991 0.958 . S
H1006 C991 0.961 . S
H1007 C991 0.960 . S
C1008 C1009 1.391 . S
C1008 C1010 1.394 . S
C1008 H1024 0.931 . S
C1009 C1008 1.391 . S
C1009 C1013 1.376 . S
C1010 C1008 1.394 . S
C1010 C1011 1.369 . S
C1010 C1014 1.531 . S
C1011 C1010 1.369 . S
C1011 C1012 1.410 . S
C1011 C1019 1.503 . S
C1012 C1011 1.410 . S
C1012 C1013 1.392 . S
C1012 C1015 1.511 . S
C1013 C1009 1.376 . S
C1013 C1012 1.392 . S
C1013 H1025 0.929 . S
C1014 C1010 1.531 . S
C1014 H1026 0.960 . S
C1014 H1027 0.962 . S
C1014 H1028 0.960 . S
C1015 C1012 1.511 . S
C1015 H1029 0.961 . S
C1015 H1030 0.961 . S
C1015 H1031 0.961 . S
C1016 C1017 1.370 . S
C1016 C1018 1.363 1_554 S
C1016 H1032 0.931 . S
C1017 C1016 1.370 . S
C1017 C1021 1.408 . S
C1018 C1016 1.363 1_556 S
C1018 C1019 1.370 . S
C1018 C1022 1.524 . S
C1019 C1011 1.503 . S
C1019 C1018 1.370 . S
C1019 C1020 1.403 . S
C1020 C1019 1.403 . S
C1020 C1021 1.404 1_556 S
C1020 C1023 1.539 . S
C1021 C1017 1.408 . S
C1021 C1020 1.404 1_554 S
C1021 H1033 0.930 . S
C1022 C1018 1.524 . S
C1022 H1034 0.956 . S
C1022 H1035 0.961 . S
C1022 H1036 0.961 . S
C1023 C1020 1.539 . S
C1023 H1037 0.958 . S
C1023 H1038 0.961 . S
C1023 H1039 0.960 . S
H1024 C1008 0.931 . S
H1025 C1013 0.929 . S
H1026 C1014 0.960 . S
H1027 C1014 0.962 . S
H1028 C1014 0.960 . S
H1029 C1015 0.961 . S
H1030 C1015 0.961 . S
H1031 C1015 0.961 . S
H1032 C1016 0.931 . S
H1033 C1021 0.930 . S
H1034 C1022 0.956 . S
H1035 C1022 0.961 . S
H1036 C1022 0.961 . S
H1037 C1023 0.958 . S
H1038 C1023 0.961 . S
H1039 C1023 0.960 . S
C1040 C1041 1.391 . S
C1040 C1042 1.394 . S
C1040 H1056 0.931 . S
C1041 C1040 1.391 . S
C1041 C1045 1.376 . S
C1042 C1040 1.394 . S
C1042 C1043 1.369 . S
C1042 C1046 1.531 . S
C1043 C1042 1.369 . S
C1043 C1044 1.410 . S
C1043 C1051 1.503 . S
C1044 C1043 1.410 . S
C1044 C1045 1.392 . S
C1044 C1047 1.511 . S
C1045 C1041 1.376 . S
C1045 C1044 1.392 . S
C1045 H1057 0.929 . S
C1046 C1042 1.531 . S
C1046 H1058 0.960 . S
C1046 H1059 0.962 . S
C1046 H1060 0.960 . S
C1047 C1044 1.511 . S
C1047 H1061 0.961 . S
C1047 H1062 0.961 . S
C1047 H1063 0.961 . S
C1048 C1049 1.370 . S
C1048 C1050 1.363 . S
C1048 H1064 0.931 . S
C1049 C1048 1.370 . S
C1049 C1053 1.408 . S
C1050 C1048 1.363 . S
C1050 C1051 1.370 . S
C1050 C1054 1.524 . S
C1051 C1043 1.503 . S
C1051 C1050 1.370 . S
C1051 C1052 1.403 . S
C1052 C1051 1.403 . S
C1052 C1053 1.404 . S
C1052 C1055 1.539 . S
C1053 C1049 1.408 . S
C1053 C1052 1.404 . S
C1053 H1065 0.930 . S
C1054 C1050 1.524 . S
C1054 H1066 0.956 . S
C1054 H1067 0.961 . S
C1054 H1068 0.961 . S
C1055 C1052 1.539 . S
C1055 H1069 0.958 . S
C1055 H1070 0.961 . S
C1055 H1071 0.960 . S
H1056 C1040 0.931 . S
H1057 C1045 0.929 . S
H1058 C1046 0.960 . S
H1059 C1046 0.962 . S
H1060 C1046 0.960 . S
H1061 C1047 0.961 . S
H1062 C1047 0.961 . S
H1063 C1047 0.961 . S
H1064 C1048 0.931 . S
H1065 C1053 0.930 . S
H1066 C1054 0.956 . S
H1067 C1054 0.961 . S
H1068 C1054 0.961 . S
H1069 C1055 0.958 . S
H1070 C1055 0.961 . S
H1071 C1055 0.960 . S
C1072 C1073 1.391 . S
C1072 C1074 1.394 . S
C1072 H1088 0.931 . S
C1073 C1072 1.391 . S
C1073 C1077 1.376 . S
C1074 C1072 1.394 . S
C1074 C1075 1.369 . S
C1074 C1078 1.531 . S
C1075 C1074 1.369 . S
C1075 C1076 1.410 . S
C1075 C1083 1.503 . S
C1076 C1075 1.410 . S
C1076 C1077 1.392 . S
C1076 C1079 1.511 . S
C1077 C1073 1.376 . S
C1077 C1076 1.392 . S
C1077 H1089 0.929 . S
C1078 C1074 1.531 . S
C1078 H1090 0.960 . S
C1078 H1091 0.962 . S
C1078 H1092 0.960 . S
C1079 C1076 1.511 . S
C1079 H1093 0.961 . S
C1079 H1094 0.961 . S
C1079 H1095 0.961 . S
C1080 C1081 1.370 . S
C1080 C1082 1.363 1_556 S
C1080 H1096 0.931 1_455 S
C1081 C1080 1.370 . S
C1081 C1085 1.408 . S
C1082 C1080 1.363 1_554 S
C1082 C1083 1.370 . S
C1082 C1086 1.524 1_455 S
C1083 C1075 1.503 . S
C1083 C1082 1.370 . S
C1083 C1084 1.403 . S
C1084 C1083 1.403 . S
C1084 C1085 1.404 1_554 S
C1084 C1087 1.539 . S
C1085 C1081 1.408 . S
C1085 C1084 1.404 1_556 S
C1085 H1097 0.930 . S
C1086 C1082 1.524 1_655 S
C1086 H1098 0.956 . S
C1086 H1099 0.961 . S
C1086 H1100 0.961 . S
C1087 C1084 1.539 . S
C1087 H1101 0.958 . S
C1087 H1102 0.961 . S
C1087 H1103 0.960 . S
H1088 C1072 0.931 . S
H1089 C1077 0.929 . S
H1090 C1078 0.960 . S
H1091 C1078 0.962 . S
H1092 C1078 0.960 . S
H1093 C1079 0.961 . S
H1094 C1079 0.961 . S
H1095 C1079 0.961 . S
H1096 C1080 0.931 1_655 S
H1097 C1085 0.930 . S
H1098 C1086 0.956 . S
H1099 C1086 0.961 . S
H1100 C1086 0.961 . S
H1101 C1087 0.958 . S
H1102 C1087 0.961 . S
H1103 C1087 0.960 . S
C1104 C1105 1.391 . S
C1104 C1106 1.394 . S
C1104 H1120 0.931 . S
C1105 C1104 1.391 . S
C1105 C1109 1.376 . S
C1106 C1104 1.394 . S
C1106 C1107 1.369 . S
C1106 C1110 1.531 . S
C1107 C1106 1.369 . S
C1107 C1108 1.410 . S
C1107 C1115 1.503 . S
C1108 C1107 1.410 . S
C1108 C1109 1.392 . S
C1108 C1111 1.511 . S
C1109 C1105 1.376 . S
C1109 C1108 1.392 . S
C1109 H1121 0.929 . S
C1110 C1106 1.531 . S
C1110 H1122 0.960 . S
C1110 H1123 0.962 . S
C1110 H1124 0.960 . S
C1111 C1108 1.511 . S
C1111 H1125 0.961 . S
C1111 H1126 0.961 . S
C1111 H1127 0.961 . S
C1112 C1113 1.370 . S
C1112 C1114 1.363 . S
C1112 H1128 0.931 . S
C1113 C1112 1.370 . S
C1113 C1117 1.408 . S
C1114 C1112 1.363 . S
C1114 C1115 1.370 . S
C1114 C1118 1.524 . S
C1115 C1107 1.503 . S
C1115 C1114 1.370 . S
C1115 C1116 1.403 . S
C1116 C1115 1.403 . S
C1116 C1117 1.404 . S
C1116 C1119 1.539 . S
C1117 C1113 1.408 . S
C1117 C1116 1.404 . S
C1117 H1129 0.930 . S
C1118 C1114 1.524 . S
C1118 H1130 0.956 . S
C1118 H1131 0.961 . S
C1118 H1132 0.961 . S
C1119 C1116 1.539 . S
C1119 H1133 0.958 . S
C1119 H1134 0.961 . S
C1119 H1135 0.960 . S
H1120 C1104 0.931 . S
H1121 C1109 0.929 . S
H1122 C1110 0.960 . S
H1123 C1110 0.962 . S
H1124 C1110 0.960 . S
H1125 C1111 0.961 . S
H1126 C1111 0.961 . S
H1127 C1111 0.961 . S
H1128 C1112 0.931 . S
H1129 C1117 0.930 . S
H1130 C1118 0.956 . S
H1131 C1118 0.961 . S
H1132 C1118 0.961 . S
H1133 C1119 0.958 . S
H1134 C1119 0.961 . S
H1135 C1119 0.960 . S
C1136 C1137 1.391 1_655 S
C1136 C1138 1.394 1_655 S
C1136 H1152 0.931 . S
C1137 C1136 1.391 1_455 S
C1137 C1141 1.376 . S
C1138 C1136 1.394 1_455 S
C1138 C1139 1.369 . S
C1138 C1142 1.531 1_455 S
C1139 C1138 1.369 . S
C1139 C1140 1.410 . S
C1139 C1147 1.503 . S
C1140 C1139 1.410 . S
C1140 C1141 1.392 . S
C1140 C1143 1.511 . S
C1141 C1137 1.376 . S
C1141 C1140 1.392 . S
C1141 H1153 0.929 . S
C1142 C1138 1.531 1_655 S
C1142 H1154 0.960 . S
C1142 H1155 0.962 . S
C1142 H1156 0.960 . S
C1143 C1140 1.511 . S
C1143 H1157 0.961 . S
C1143 H1158 0.961 . S
C1143 H1159 0.961 . S
C1144 C1145 1.370 . S
C1144 C1146 1.363 1_554 S
C1144 H1160 0.931 . S
C1145 C1144 1.370 . S
C1145 C1149 1.408 . S
C1146 C1144 1.363 1_556 S
C1146 C1147 1.370 . S
C1146 C1150 1.524 . S
C1147 C1139 1.503 . S
C1147 C1146 1.370 . S
C1147 C1148 1.403 . S
C1148 C1147 1.403 . S
C1148 C1149 1.404 1_556 S
C1148 C1151 1.539 . S
C1149 C1145 1.408 . S
C1149 C1148 1.404 1_554 S
C1149 H1161 0.930 . S
C1150 C1146 1.524 . S
C1150 H1162 0.956 . S
C1150 H1163 0.961 . S
C1150 H1164 0.961 . S
C1151 C1148 1.539 . S
C1151 H1165 0.958 . S
C1151 H1166 0.961 . S
C1151 H1167 0.960 . S
H1152 C1136 0.931 . S
H1153 C1141 0.929 . S
H1154 C1142 0.960 . S
H1155 C1142 0.962 . S
H1156 C1142 0.960 . S
H1157 C1143 0.961 . S
H1158 C1143 0.961 . S
H1159 C1143 0.961 . S
H1160 C1144 0.931 . S
H1161 C1149 0.930 . S
H1162 C1150 0.956 . S
H1163 C1150 0.961 . S
H1164 C1150 0.961 . S
H1165 C1151 0.958 . S
H1166 C1151 0.961 . S
H1167 C1151 0.960 . S
C273 C124 0.714 . S
C281 C15 0.742 . S
C305 C90 0.774 . S
C313 C49 0.808 . S
C337 C56 2.622 . S
C345 C83 2.611 . S
C369 C22 2.584 . S
C377 C117 2.599 . S
C401 C151 0.818 . S
C409 C260 0.811 . S
C433 C185 0.850 . S
C441 C226 0.770 . S
C465 C192 2.596 . S
C473 C219 2.599 . S
C497 C158 2.587 . S
C505 C253 2.609 . S
C529 C74 1.487 . S
C537 C28 1.494 . S
C561 C108 1.485 . S
C569 C62 1.493 . S
C593 C210 1.495 . S
C601 C164 1.495 . S
C625 C244 1.486 . S
C633 C198 1.492 . S
C657 C1 1.136 1_556 S
C665 C176 1.239 . S
C689 C35 1.141 . S
C697 C142 1.238 . S
C721 C266 1.241 . S
C729 C71 1.159 . S
C753 C232 1.241 . S
C761 C105 1.188 . S
C785 C40 1.242 . S
C793 C137 1.164 . S
C817 C6 1.233 . S
C825 C171 1.163 . S
C849 C130 1.243 . S
C857 C207 1.170 . S
C881 C96 1.242 . S
C889 C241 1.161 . S
C913 C3 1.521 . S
C921 C17 1.659 . S
C945 C37 1.465 . S
C953 C51 1.640 . S
C977 C69 1.541 . S
C985 C85 1.655 . S
C1009 C103 1.445 . S
C1017 C119 1.648 . S
C1041 C139 1.536 . S
C1049 C153 1.657 . S
C1073 C173 1.462 . S
C1081 C187 1.653 . S
C1105 C205 1.446 . S
C1113 C221 1.648 . S
C1137 C239 1.454 . S
C1145 C255 1.640 . S
