# Generated by pormake.
# Topology sme, (6)-cn, num edge types: 1
# Building blocks:
#     Node 0, Type 0, BuildingBlock: OJICUG_clean_sbu_0, # of connection points: 6
#     Node 1, Type 0, BuildingBlock: OJICUG_clean_sbu_0, # of connection points: 6
#     Node 2, Type 0, BuildingBlock: OJICUG_clean_sbu_0, # of connection points: 6
#     Node 3, Type 0, BuildingBlock: OJICUG_clean_sbu_0, # of connection points: 6
#     Node 4, Type 0, BuildingBlock: OJICUG_clean_sbu_0, # of connection points: 6
#     Node 5, Type 0, BuildingBlock: OJICUG_clean_sbu_0, # of connection points: 6
#     Node 6, Type 0, BuildingBlock: OJICUG_clean_sbu_0, # of connection points: 6
#     Node 7, Type 0, BuildingBlock: OJICUG_clean_sbu_0, # of connection points: 6
#     Node 8, Type 0, BuildingBlock: OJICUG_clean_sbu_0, # of connection points: 6
#     Node 9, Type 0, BuildingBlock: OJICUG_clean_sbu_0, # of connection points: 6
#     Node 10, Type 0, BuildingBlock: OJICUG_clean_sbu_0, # of connection points: 6
#     Node 11, Type 0, BuildingBlock: OJICUG_clean_sbu_0, # of connection points: 6
#     Node 12, Type 0, BuildingBlock: OJICUG_clean_sbu_0, # of connection points: 6
#     Node 13, Type 0, BuildingBlock: OJICUG_clean_sbu_0, # of connection points: 6
#     Node 14, Type 0, BuildingBlock: OJICUG_clean_sbu_0, # of connection points: 6
#     Node 15, Type 0, BuildingBlock: OJICUG_clean_sbu_0, # of connection points: 6
#     Node 16, Type 0, BuildingBlock: OJICUG_clean_sbu_0, # of connection points: 6
#     Node 17, Type 0, BuildingBlock: OJICUG_clean_sbu_0, # of connection points: 6
#     Edge 18, Type (0, 0), BuildingBlock: UVAHIK_clean_linker_0, # of connection points: 2
#     Edge 19, Type (0, 0), BuildingBlock: UVAHIK_clean_linker_0, # of connection points: 2
#     Edge 20, Type (0, 0), BuildingBlock: UVAHIK_clean_linker_0, # of connection points: 2
#     Edge 21, Type (0, 0), BuildingBlock: UVAHIK_clean_linker_0, # of connection points: 2
#     Edge 22, Type (0, 0), BuildingBlock: UVAHIK_clean_linker_0, # of connection points: 2
#     Edge 23, Type (0, 0), BuildingBlock: UVAHIK_clean_linker_0, # of connection points: 2
#     Edge 24, Type (0, 0), BuildingBlock: UVAHIK_clean_linker_0, # of connection points: 2
#     Edge 25, Type (0, 0), BuildingBlock: UVAHIK_clean_linker_0, # of connection points: 2
#     Edge 26, Type (0, 0), BuildingBlock: UVAHIK_clean_linker_0, # of connection points: 2
#     Edge 27, Type (0, 0), BuildingBlock: UVAHIK_clean_linker_0, # of connection points: 2
#     Edge 28, Type (0, 0), BuildingBlock: UVAHIK_clean_linker_0, # of connection points: 2
#     Edge 29, Type (0, 0), BuildingBlock: UVAHIK_clean_linker_0, # of connection points: 2
#     Edge 30, Type (0, 0), BuildingBlock: UVAHIK_clean_linker_0, # of connection points: 2
#     Edge 31, Type (0, 0), BuildingBlock: UVAHIK_clean_linker_0, # of connection points: 2
#     Edge 32, Type (0, 0), BuildingBlock: UVAHIK_clean_linker_0, # of connection points: 2
#     Edge 33, Type (0, 0), BuildingBlock: UVAHIK_clean_linker_0, # of connection points: 2
#     Edge 34, Type (0, 0), BuildingBlock: UVAHIK_clean_linker_0, # of connection points: 2
#     Edge 35, Type (0, 0), BuildingBlock: UVAHIK_clean_linker_0, # of connection points: 2
#     Edge 36, Type (0, 0), BuildingBlock: UVAHIK_clean_linker_0, # of connection points: 2
#     Edge 37, Type (0, 0), BuildingBlock: UVAHIK_clean_linker_0, # of connection points: 2
#     Edge 38, Type (0, 0), BuildingBlock: UVAHIK_clean_linker_0, # of connection points: 2
#     Edge 39, Type (0, 0), BuildingBlock: UVAHIK_clean_linker_0, # of connection points: 2
#     Edge 40, Type (0, 0), BuildingBlock: UVAHIK_clean_linker_0, # of connection points: 2
#     Edge 41, Type (0, 0), BuildingBlock: UVAHIK_clean_linker_0, # of connection points: 2
#     Edge 42, Type (0, 0), BuildingBlock: UVAHIK_clean_linker_0, # of connection points: 2
#     Edge 43, Type (0, 0), BuildingBlock: UVAHIK_clean_linker_0, # of connection points: 2
#     Edge 44, Type (0, 0), BuildingBlock: UVAHIK_clean_linker_0, # of connection points: 2
#     Edge 45, Type (0, 0), BuildingBlock: UVAHIK_clean_linker_0, # of connection points: 2
#     Edge 46, Type (0, 0), BuildingBlock: UVAHIK_clean_linker_0, # of connection points: 2
#     Edge 47, Type (0, 0), BuildingBlock: UVAHIK_clean_linker_0, # of connection points: 2
#     Edge 48, Type (0, 0), BuildingBlock: UVAHIK_clean_linker_0, # of connection points: 2
#     Edge 49, Type (0, 0), BuildingBlock: UVAHIK_clean_linker_0, # of connection points: 2
#     Edge 50, Type (0, 0), BuildingBlock: UVAHIK_clean_linker_0, # of connection points: 2
#     Edge 51, Type (0, 0), BuildingBlock: UVAHIK_clean_linker_0, # of connection points: 2
#     Edge 52, Type (0, 0), BuildingBlock: UVAHIK_clean_linker_0, # of connection points: 2
#     Edge 53, Type (0, 0), BuildingBlock: UVAHIK_clean_linker_0, # of connection points: 2
#     Edge 54, Type (0, 0), BuildingBlock: UVAHIK_clean_linker_0, # of connection points: 2
#     Edge 55, Type (0, 0), BuildingBlock: UVAHIK_clean_linker_0, # of connection points: 2
#     Edge 56, Type (0, 0), BuildingBlock: UVAHIK_clean_linker_0, # of connection points: 2
#     Edge 57, Type (0, 0), BuildingBlock: UVAHIK_clean_linker_0, # of connection points: 2
#     Edge 58, Type (0, 0), BuildingBlock: UVAHIK_clean_linker_0, # of connection points: 2
#     Edge 59, Type (0, 0), BuildingBlock: UVAHIK_clean_linker_0, # of connection points: 2
#     Edge 60, Type (0, 0), BuildingBlock: UVAHIK_clean_linker_0, # of connection points: 2
#     Edge 61, Type (0, 0), BuildingBlock: UVAHIK_clean_linker_0, # of connection points: 2
#     Edge 62, Type (0, 0), BuildingBlock: UVAHIK_clean_linker_0, # of connection points: 2
#     Edge 63, Type (0, 0), BuildingBlock: UVAHIK_clean_linker_0, # of connection points: 2
#     Edge 64, Type (0, 0), BuildingBlock: UVAHIK_clean_linker_0, # of connection points: 2
#     Edge 65, Type (0, 0), BuildingBlock: UVAHIK_clean_linker_0, # of connection points: 2
#     Edge 66, Type (0, 0), BuildingBlock: UVAHIK_clean_linker_0, # of connection points: 2
#     Edge 67, Type (0, 0), BuildingBlock: UVAHIK_clean_linker_0, # of connection points: 2
#     Edge 68, Type (0, 0), BuildingBlock: UVAHIK_clean_linker_0, # of connection points: 2
#     Edge 69, Type (0, 0), BuildingBlock: UVAHIK_clean_linker_0, # of connection points: 2
#     Edge 70, Type (0, 0), BuildingBlock: UVAHIK_clean_linker_0, # of connection points: 2
#     Edge 71, Type (0, 0), BuildingBlock: UVAHIK_clean_linker_0, # of connection points: 2
# Relax obj value: 0.180
# Max RMSD: 0.201
# Mean RMSD: 0.201
data_MOF--net-sme--node1-OJICUG_clean_sbu_0--edge1-UVAHIK_clean_linker_0
_symmetry_space_group_name_H-M    P1
_symmetry_Int_Tables_number       1
_symmetry_cell_setting            triclinic
loop_
_symmetry_equiv_pos_as_xyz
'x, y, z'
_cell_length_a     58.558181
_cell_length_b     58.559967
_cell_length_c     50.07042
_cell_angle_alpha  89.978745
_cell_angle_beta   90.024682
_cell_angle_gamma 120.07375
loop_
_atom_site_label
_atom_site_type_symbol
_atom_site_fract_x
_atom_site_fract_y
_atom_site_fract_z
_atom_type_partial_charge
Sc0 Sc 0.02789 0.28884 0.80278 0.0
Sc1 Sc 0.02953 0.23472 0.77447 0.0
Sc2 Sc 0.03361 0.24295 0.84394 0.0
O3 O 0.03011 0.25547 0.80707 0.0
C4 C 0.07547 0.30459 0.84352 0.0
C5 C 0.06161 0.29286 0.7506 0.0
C6 C 0.07112 0.22914 0.80942 0.0
C7 C 0.98432 0.2488 0.76225 0.0
C8 C -0.00186 0.26865 0.85865 0.0
C9 C 0.99341 0.18919 0.81677 0.0
O10 O 0.0626 0.31046 0.82704 0.0
O11 O 0.05497 0.26864 0.75058 0.0
O12 O 0.06022 0.22992 0.83102 0.0
O13 O 0.99344 0.26888 0.77758 0.0
O14 O 0.0081 0.25422 0.86359 0.0
O15 O 0.00358 0.19776 0.79388 0.0
O16 O 0.00238 0.28127 0.83687 0.0
O17 O -0.00473 0.23487 0.75928 0.0
O18 O 0.00038 0.20374 0.83755 0.0
O19 O 0.05348 0.30275 0.76818 0.0
O20 O 0.06752 0.28112 0.8516 0.0
O21 O 0.06408 0.23313 0.78671 0.0
Sc22 Sc 0.87059 0.8626 0.7743 0.0
Sc23 Sc 0.86398 0.8583 0.84397 0.0
Sc24 Sc 0.81602 0.80749 0.80359 0.0
O25 O 0.8502 0.84262 0.80727 0.0
C26 C 0.81203 0.83797 0.75202 0.0
C27 C 0.87777 0.91018 0.81007 0.0
C28 C 0.80273 0.83993 0.84566 0.0
C29 C 0.91669 0.87071 0.81499 0.0
C30 C 0.8542 0.80267 0.76164 0.0
C31 C 0.83753 0.79707 0.85833 0.0
O32 O 0.83635 0.85531 0.75156 0.0
O33 O 0.87631 0.89795 0.83151 0.0
O34 O 0.79558 0.82148 0.82854 0.0
O35 O 0.90775 0.87224 0.7923 0.0
O36 O 0.83461 0.79206 0.77764 0.0
O37 O 0.85319 0.82134 0.86292 0.0
O38 O 0.86847 0.82753 0.75849 0.0
O39 O 0.90274 0.864 0.83615 0.0
O40 O 0.82352 0.78905 0.83732 0.0
O41 O 0.87438 0.89955 0.78718 0.0
O42 O 0.80223 0.81982 0.7695 0.0
O43 O 0.82648 0.85435 0.85344 0.0
Sc44 Sc 0.29761 0.07638 0.80407 0.0
Sc45 Sc 0.24108 0.07216 0.77444 0.0
Sc46 Sc 0.24489 0.06954 0.84411 0.0
O47 O 0.26138 0.07292 0.80755 0.0
C48 C 0.26671 0.02923 0.84532 0.0
C49 C 0.26932 0.04188 0.75181 0.0
C50 C 0.19456 0.02934 0.8094 0.0
C51 C 0.30003 0.11888 0.76288 0.0
C52 C 0.30553 0.10708 0.85934 0.0
C53 C 0.2286 0.10699 0.8152 0.0
O54 O 0.28498 0.04176 0.82827 0.0
O55 O 0.25092 0.04732 0.75156 0.0
O56 O 0.20606 0.0405 0.83102 0.0
O57 O 0.31142 0.11071 0.77883 0.0
O58 O 0.28101 0.09729 0.86348 0.0
O59 O 0.22824 0.09694 0.7926 0.0
O60 O 0.31443 0.10191 0.83846 0.0
O61 O 0.27513 0.10693 0.75934 0.0
O62 O 0.23658 0.10116 0.83644 0.0
O63 O 0.28739 0.05099 0.76939 0.0
O64 O 0.25125 0.0372 0.85346 0.0
O65 O 0.20535 0.03721 0.78667 0.0
Sc66 Sc 0.0644 0.82587 0.20644 0.0
Sc67 Sc 0.06372 0.87978 0.23641 0.0
Sc68 Sc 0.0618 0.87432 0.16649 0.0
O69 O 0.06349 0.86003 0.20309 0.0
C70 C 0.09662 0.84797 0.15188 0.0
C71 C 0.10718 0.86322 0.24886 0.0
C72 C 0.10212 0.92656 0.19647 0.0
C73 C 0.02969 0.82107 0.25808 0.0
C74 C 0.01879 0.8129 0.16411 0.0
C75 C 0.02383 0.88789 0.20074 0.0
O76 O 0.0901 0.83356 0.17261 0.0
O77 O 0.09645 0.87728 0.25242 0.0
O78 O 0.09484 0.91316 0.17493 0.0
O79 O 0.03837 0.81158 0.24065 0.0
O80 O 0.02805 0.83668 0.15634 0.0
O81 O 0.0307 0.88375 0.22348 0.0
O82 O 0.03012 0.80599 0.18144 0.0
O83 O 0.03634 0.84528 0.25851 0.0
O84 O 0.0346 0.88681 0.17914 0.0
O85 O 0.09846 0.8441 0.23231 0.0
O86 O 0.08838 0.86396 0.14744 0.0
O87 O 0.09161 0.9171 0.21902 0.0
Sc88 Sc 0.22616 0.2535 0.23596 0.0
Sc89 Sc 0.23333 0.25555 0.1664 0.0
Sc90 Sc 0.27888 0.30925 0.20561 0.0
O91 O 0.2461 0.27295 0.20265 0.0
C92 C 0.23869 0.31263 0.24599 0.0
C93 C 0.17947 0.24071 0.19401 0.0
C94 C 0.25675 0.31603 0.14967 0.0
C95 C 0.22188 0.20583 0.20289 0.0
C96 C 0.28485 0.28201 0.25874 0.0
C97 C 0.29535 0.27737 0.16588 0.0
O98 O 0.22524 0.28779 0.2497 0.0
O99 O 0.19371 0.24842 0.17304 0.0
O100 O 0.26984 0.32546 0.17105 0.0
O101 O 0.22549 0.21754 0.22518 0.0
O102 O 0.29404 0.29928 0.24037 0.0
O103 O 0.27188 0.261 0.15842 0.0
O104 O 0.26076 0.26409 0.25965 0.0
O105 O 0.22219 0.21669 0.18084 0.0
O106 O 0.30095 0.29654 0.18169 0.0
O107 O 0.18865 0.24025 0.21692 0.0
O108 O 0.25862 0.32357 0.23048 0.0
O109 O 0.24288 0.29139 0.14559 0.0
Sc110 Sc 0.85431 0.04834 0.23219 0.0
Sc111 Sc 0.84841 0.04596 0.16257 0.0
Sc112 Sc 0.79619 0.04001 0.20273 0.0
O113 O 0.83275 0.0445 0.19917 0.0
C114 C 0.79637 0.001 0.24671 0.0
C115 C 0.86596 0.01099 0.19378 0.0
C116 C 0.78739 0.00734 0.149 0.0
C117 C 0.89963 0.0883 0.19473 0.0
C118 C 0.82476 0.07802 0.25283 0.0
C119 C 0.82584 0.08546 0.15922 0.0
O120 O 0.82137 0.01397 0.24969 0.0
O121 O 0.85626 0.0145 0.17238 0.0
O122 O 0.77893 0.0124 0.1702 0.0
O123 O 0.8888 0.08315 0.21759 0.0
O124 O 0.80623 0.0669 0.23591 0.0
O125 O 0.842 0.078 0.15201 0.0
O126 O 0.84413 0.07403 0.25338 0.0
O127 O 0.88805 0.07486 0.1741 0.0
O128 O 0.80751 0.07305 0.17631 0.0
O129 O 0.8677 0.02318 0.21544 0.0
O130 O 0.78408 0.00742 0.23 0.0
O131 O 0.81181 0.01791 0.14386 0.0
Sc132 Sc 0.69545 0.62315 0.13554 0.0
Sc133 Sc 0.69727 0.5687 0.10816 0.0
Sc134 Sc 0.70241 0.57859 0.17762 0.0
O135 O 0.69822 0.5901 0.14046 0.0
C136 C 0.74338 0.64061 0.17598 0.0
C137 C 0.72912 0.62621 0.08345 0.0
C138 C 0.73986 0.5643 0.14354 0.0
C139 C 0.65196 0.5828 0.09557 0.0
C140 C 0.66607 0.60325 0.19184 0.0
C141 C 0.66157 0.52411 0.15107 0.0
O142 O 0.7307 0.64574 0.15859 0.0
O143 O 0.72362 0.60233 0.08448 0.0
O144 O 0.73049 0.5675 0.16512 0.0
O145 O 0.66036 0.60237 0.11148 0.0
O146 O 0.67555 0.58837 0.19655 0.0
O147 O 0.67036 0.53246 0.12773 0.0
O148 O 0.67097 0.61651 0.17039 0.0
O149 O 0.66365 0.56963 0.09214 0.0
O150 O 0.67024 0.53854 0.17186 0.0
O151 O 0.71999 0.63598 0.10011 0.0
O152 O 0.73539 0.6175 0.18517 0.0
O153 O 0.73093 0.5655 0.12075 0.0
Sc154 Sc 0.47998 0.14252 0.1372 0.0
Sc155 Sc 0.53454 0.19653 0.10706 0.0
Sc156 Sc 0.529 0.19314 0.17709 0.0
O157 O 0.51456 0.17727 0.14047 0.0
C158 C 0.46769 0.17514 0.17994 0.0
C159 C 0.47589 0.17278 0.0855 0.0
C160 C 0.54277 0.24471 0.14274 0.0
C161 C 0.51672 0.13619 0.09481 0.0
C162 C 0.50227 0.1319 0.19142 0.0
C163 C 0.58128 0.20497 0.14695 0.0
O164 O 0.46055 0.15723 0.16223 0.0
O165 O 0.50026 0.18989 0.08485 0.0
O166 O 0.54098 0.23264 0.1644 0.0
O167 O 0.49757 0.12618 0.11131 0.0
O168 O 0.51879 0.15604 0.19579 0.0
O169 O 0.57169 0.20553 0.12433 0.0
O170 O 0.48745 0.1243 0.17096 0.0
O171 O 0.53129 0.16094 0.09119 0.0
O172 O 0.56799 0.1993 0.16853 0.0
O173 O 0.46606 0.15476 0.10311 0.0
O174 O 0.4915 0.18922 0.18781 0.0
O175 O 0.53938 0.23387 0.11996 0.0
Sc176 Sc 0.96434 0.41011 0.13708 0.0
Sc177 Sc 0.91013 0.41063 0.10727 0.0
Sc178 Sc 0.91129 0.40307 0.17672 0.0
O179 O 0.92874 0.40814 0.14038 0.0
C180 C 0.93062 0.36086 0.17532 0.0
C181 C 0.93606 0.37869 0.08321 0.0
C182 C 0.86103 0.36752 0.13971 0.0
C183 C 0.97045 0.45556 0.09802 0.0
C184 C 0.97186 0.43772 0.1941 0.0
C185 C 0.89967 0.44522 0.1503 0.0
O186 O 0.94971 0.37404 0.1593 0.0
O187 O 0.91836 0.38515 0.08325 0.0
O188 O 0.87233 0.37644 0.162 0.0
O189 O 0.98054 0.44593 0.11382 0.0
O190 O 0.94732 0.42825 0.19786 0.0
O191 O 0.89972 0.43673 0.12693 0.0
O192 O 0.98097 0.43361 0.17275 0.0
O193 O 0.94574 0.44473 0.0937 0.0
O194 O 0.90515 0.43633 0.17112 0.0
O195 O 0.95383 0.38646 0.10109 0.0
O196 O 0.91539 0.36899 0.18379 0.0
O197 O 0.87265 0.37659 0.11754 0.0
Sc198 Sc 0.72782 0.20919 0.56882 0.0
Sc199 Sc 0.72701 0.20467 0.49871 0.0
Sc200 Sc 0.73177 0.15739 0.5384 0.0
O201 O 0.72904 0.19052 0.53525 0.0
C202 C 0.7734 0.19511 0.58076 0.0
C203 C 0.76578 0.25712 0.52987 0.0
C204 C 0.76317 0.18032 0.4834 0.0
C205 C 0.68734 0.21619 0.53258 0.0
C206 C 0.6964 0.15062 0.59021 0.0
C207 C 0.68554 0.14263 0.49656 0.0
O208 O 0.76056 0.20695 0.58556 0.0
O209 O 0.75845 0.24423 0.50801 0.0
O210 O 0.75613 0.16517 0.50356 0.0
O211 O 0.69504 0.21328 0.55541 0.0
O212 O 0.70762 0.14287 0.57381 0.0
O213 O 0.6948 0.16617 0.48792 0.0
O214 O 0.69984 0.1738 0.58955 0.0
O215 O 0.69786 0.21461 0.51102 0.0
O216 O 0.6967 0.13635 0.5147 0.0
O217 O 0.75577 0.24695 0.55239 0.0
O218 O 0.76662 0.17737 0.56286 0.0
O219 O 0.75541 0.19678 0.47971 0.0
Sc220 Sc 0.89094 0.58571 0.56841 0.0
Sc221 Sc 0.90188 0.58749 0.49913 0.0
Sc222 Sc 0.94572 0.64092 0.53979 0.0
O223 O 0.91277 0.60481 0.53575 0.0
C224 C 0.90503 0.64541 0.57826 0.0
C225 C 0.84688 0.57436 0.5239 0.0
C226 C 0.92578 0.64805 0.48258 0.0
C227 C 0.88725 0.53735 0.53618 0.0
C228 C 0.94861 0.61223 0.59338 0.0
C229 C 0.96385 0.60932 0.50164 0.0
O230 O 0.89141 0.62064 0.58211 0.0
O231 O 0.86172 0.57932 0.50355 0.0
O232 O 0.93839 0.65729 0.50426 0.0
O233 O 0.88811 0.54855 0.55819 0.0
O234 O 0.95862 0.63015 0.57566 0.0
O235 O 0.94081 0.59339 0.49286 0.0
O236 O 0.92446 0.59431 0.5932 0.0
O237 O 0.89076 0.54884 0.51382 0.0
O238 O 0.96872 0.62802 0.51778 0.0
O239 O 0.85477 0.57521 0.54775 0.0
O240 O 0.9251 0.65605 0.56295 0.0
O241 O 0.91178 0.62344 0.47826 0.0
Sc242 Sc 0.51907 0.37208 0.57054 0.0
Sc243 Sc 0.51781 0.38061 0.50104 0.0
Sc244 Sc 0.46494 0.37316 0.54124 0.0
O245 O 0.50053 0.37514 0.53756 0.0
C246 C 0.45855 0.32792 0.58042 0.0
C247 C 0.52918 0.33774 0.52721 0.0
C248 C 0.45732 0.34526 0.48422 0.0
C249 C 0.56813 0.41571 0.53788 0.0
C250 C 0.49422 0.40485 0.59475 0.0
C251 C 0.49749 0.42209 0.50246 0.0
O252 O 0.48321 0.33898 0.58494 0.0
O253 O 0.52561 0.34833 0.50655 0.0
O254 O 0.44839 0.35014 0.50528 0.0
O255 O 0.55726 0.40478 0.55983 0.0
O256 O 0.47583 0.39642 0.57748 0.0
O257 O 0.51233 0.41377 0.49336 0.0
O258 O 0.51226 0.39883 0.59421 0.0
O259 O 0.55634 0.40862 0.51559 0.0
O260 O 0.4793 0.40938 0.51948 0.0
O261 O 0.52768 0.34474 0.55088 0.0
O262 O 0.44849 0.3371 0.56406 0.0
O263 O 0.48179 0.35418 0.48053 0.0
Sc264 Sc 0.36078 0.95557 0.46988 0.0
Sc265 Sc 0.3649 0.90322 0.44052 0.0
Sc266 Sc 0.37008 0.91137 0.51016 0.0
O267 O 0.36505 0.92331 0.47356 0.0
C268 C 0.40977 0.97364 0.50916 0.0
C269 C 0.39466 0.96137 0.41714 0.0
C270 C 0.40838 0.89942 0.4746 0.0
C271 C 0.31774 0.9151 0.42981 0.0
C272 C 0.33268 0.93423 0.52646 0.0
C273 C 0.33037 0.85705 0.48267 0.0
O274 O 0.39637 0.97861 0.49248 0.0
O275 O 0.39059 0.93794 0.41768 0.0
O276 O 0.39866 0.90126 0.49657 0.0
O277 O 0.32543 0.93411 0.44635 0.0
O278 O 0.34299 0.91998 0.53053 0.0
O279 O 0.33911 0.86602 0.45944 0.0
O280 O 0.3367 0.94752 0.50519 0.0
O281 O 0.33044 0.90308 0.42538 0.0
O282 O 0.33843 0.87125 0.50368 0.0
O283 O 0.38446 0.96977 0.43408 0.0
O284 O 0.40247 0.9505 0.51788 0.0
O285 O 0.39939 0.90134 0.45214 0.0
Sc286 Sc 0.20322 0.52978 0.44161 0.0
Sc287 Sc 0.19751 0.52627 0.51159 0.0
Sc288 Sc 0.15019 0.47423 0.47179 0.0
O289 O 0.18369 0.50996 0.47501 0.0
C290 C 0.14435 0.50344 0.42001 0.0
C291 C 0.20967 0.57735 0.47711 0.0
C292 C 0.13569 0.50578 0.51393 0.0
C293 C 0.25043 0.53994 0.48171 0.0
C294 C 0.1883 0.47011 0.42949 0.0
C295 C 0.17287 0.46537 0.52662 0.0
O296 O 0.16838 0.52158 0.41944 0.0
O297 O 0.20828 0.56535 0.49869 0.0
O298 O 0.12932 0.48763 0.4966 0.0
O299 O 0.24072 0.54024 0.45907 0.0
O300 O 0.16927 0.45927 0.44608 0.0
O301 O 0.18823 0.48978 0.53092 0.0
O302 O 0.20169 0.49495 0.42576 0.0
O303 O 0.23703 0.53372 0.50327 0.0
O304 O 0.15869 0.4569 0.50576 0.0
O305 O 0.20661 0.56663 0.45431 0.0
O306 O 0.13536 0.48529 0.43751 0.0
O307 O 0.15935 0.52089 0.52171 0.0
Sc308 Sc 0.5796 0.74663 0.43938 0.0
Sc309 Sc 0.58096 0.74072 0.50913 0.0
Sc310 Sc 0.63376 0.74657 0.46988 0.0
O311 O 0.59823 0.74479 0.47282 0.0
C312 C 0.60504 0.71375 0.41679 0.0
C313 C 0.53049 0.70439 0.4727 0.0
C314 C 0.60049 0.69865 0.50974 0.0
C315 C 0.56978 0.78255 0.48115 0.0
C316 C 0.63997 0.79102 0.42935 0.0
C317 C 0.6416 0.77587 0.52593 0.0
O318 O 0.58738 0.72027 0.41635 0.0
O319 O 0.54199 0.71356 0.49485 0.0
O320 O 0.61928 0.71118 0.49322 0.0
O321 O 0.5699 0.77368 0.45801 0.0
O322 O 0.65003 0.78179 0.44567 0.0
O323 O 0.6171 0.76665 0.52969 0.0
O324 O 0.61526 0.78012 0.42502 0.0
O325 O 0.57467 0.77371 0.50236 0.0
O326 O 0.65058 0.77099 0.50493 0.0
O327 O 0.54194 0.71317 0.45039 0.0
O328 O 0.62289 0.72195 0.43461 0.0
O329 O 0.58531 0.70702 0.51768 0.0
Sc330 Sc 0.39814 0.49224 0.87283 0.0
Sc331 Sc 0.39688 0.54631 0.90202 0.0
Sc332 Sc 0.39289 0.53866 0.83223 0.0
O333 O 0.39614 0.52578 0.86902 0.0
C334 C 0.42888 0.51356 0.81755 0.0
C335 C 0.4412 0.53092 0.91442 0.0
C336 C 0.43349 0.59214 0.86039 0.0
C337 C 0.36369 0.48779 0.92457 0.0
C338 C 0.35124 0.47698 0.83138 0.0
C339 C 0.35539 0.5526 0.86697 0.0
O340 O 0.42395 0.50026 0.83896 0.0
O341 O 0.43031 0.54486 0.9177 0.0
O342 O 0.42569 0.57803 0.83932 0.0
O343 O 0.37223 0.47821 0.90707 0.0
O344 O 0.35942 0.50052 0.82347 0.0
O345 O 0.36341 0.54982 0.88968 0.0
O346 O 0.36367 0.47095 0.84824 0.0
O347 O 0.37033 0.51202 0.92503 0.0
O348 O 0.36538 0.55051 0.84525 0.0
O349 O 0.43234 0.5114 0.8984 0.0
O350 O 0.41921 0.52828 0.81273 0.0
O351 O 0.42387 0.58326 0.88339 0.0
Sc352 Sc 0.5546 0.91727 0.9026 0.0
Sc353 Sc 0.56739 0.92333 0.8335 0.0
Sc354 Sc 0.60902 0.97471 0.87726 0.0
O355 O 0.57691 0.93854 0.87108 0.0
C356 C 0.5666 0.97601 0.91523 0.0
C357 C 0.51172 0.90872 0.85758 0.0
C358 C 0.59177 0.98459 0.81983 0.0
C359 C 0.55202 0.87112 0.86742 0.0
C360 C 0.61127 0.94367 0.92935 0.0
C361 C 0.62911 0.94487 0.83933 0.0
O362 O 0.55396 0.95109 0.9185 0.0
O363 O 0.52712 0.91543 0.83743 0.0
O364 O 0.60339 0.99265 0.84213 0.0
O365 O 0.55273 0.88105 0.89017 0.0
O366 O 0.62098 0.96294 0.91312 0.0
O367 O 0.60679 0.92933 0.82865 0.0
O368 O 0.58761 0.92484 0.92766 0.0
O369 O 0.55556 0.88385 0.84587 0.0
O370 O 0.63292 0.96302 0.85575 0.0
O371 O 0.5191 0.90758 0.88122 0.0
O372 O 0.58662 0.98781 0.9 0.0
O373 O 0.57797 0.96025 0.81422 0.0
Sc374 Sc 0.18736 0.71151 0.90206 0.0
Sc375 Sc 0.18137 0.7129 0.83232 0.0
Sc376 Sc 0.12985 0.7063 0.87394 0.0
O377 O 0.16609 0.71003 0.86942 0.0
C378 C 0.12838 0.66522 0.91579 0.0
C379 C 0.19708 0.67463 0.86134 0.0
C380 C 0.12045 0.67537 0.81858 0.0
C381 C 0.23336 0.75291 0.86492 0.0
C382 C 0.16003 0.74229 0.92505 0.0
C383 C 0.15949 0.75319 0.83221 0.0
O384 O 0.15327 0.67817 0.91948 0.0
O385 O 0.19027 0.68176 0.84011 0.0
O386 O 0.11219 0.68115 0.83951 0.0
O387 O 0.22367 0.74504 0.88807 0.0
O388 O 0.14069 0.7311 0.90899 0.0
O389 O 0.17437 0.74489 0.82308 0.0
O390 O 0.17964 0.73866 0.92394 0.0
O391 O 0.22052 0.74222 0.84377 0.0
O392 O 0.14209 0.74109 0.85017 0.0
O393 O 0.19759 0.68439 0.8842 0.0
O394 O 0.11659 0.67188 0.89875 0.0
O395 O 0.14481 0.68458 0.81404 0.0
C396 C 0.20085 0.12387 0.79571 0.0
C397 C 0.21775 0.12503 0.81626 0.0
C398 C 0.18991 0.14015 0.79602 0.0
C399 C 0.17428 0.18067 0.84067 0.0
H400 H 0.15685 0.19989 0.77272 0.0
C401 C 0.09201 0.20624 0.83194 0.0
C402 C 0.09228 0.22246 0.81114 0.0
C403 C 0.11144 0.19917 0.8336 0.0
C404 C 0.16193 0.19531 0.79199 0.0
H405 H 0.23653 0.14445 0.85333 0.0
H406 H 0.2179 0.17379 0.85353 0.0
H407 H 0.1848 0.1805 0.77374 0.0
H408 H 0.11368 0.24489 0.77632 0.0
H409 H 0.14847 0.23365 0.77982 0.0
H410 H 0.15228 0.19651 0.859 0.0
C411 C 0.21279 0.1598 0.83735 0.0
C412 C 0.17767 0.18365 0.79254 0.0
C413 C 0.22354 0.14308 0.83723 0.0
C414 C 0.11282 0.23206 0.79236 0.0
C415 C 0.13269 0.2255 0.79437 0.0
C416 C 0.159 0.1929 0.84017 0.0
C417 C 0.19582 0.15852 0.81667 0.0
C418 C 0.18312 0.17513 0.81676 0.0
C419 C 0.13208 0.20863 0.81483 0.0
C420 C 0.15173 0.19946 0.81574 0.0
H421 H 0.19553 0.1099 0.77944 0.0
H422 H 0.17627 0.1378 0.78022 0.0
H423 H 0.17809 0.1745 0.85974 0.0
H424 H 0.07628 0.19836 0.8466 0.0
H425 H 0.1097 0.18562 0.84923 0.0
C426 C 0.96737 0.14776 0.84391 0.0
C427 C 0.97392 0.16062 0.81903 0.0
C428 C 0.95189 0.1202 0.84528 0.0
C429 C 0.90854 0.06017 0.8048 0.0
H430 H 0.93653 0.02694 0.85104 0.0
C431 C 0.88778 0.95346 0.78937 0.0
C432 C 0.88412 0.93805 0.81224 0.0
C433 C 0.89496 0.98006 0.7918 0.0
C434 C 0.92817 0.03584 0.83829 0.0
H435 H 0.96782 0.15468 0.77621 0.0
H436 H 0.94138 0.10707 0.77861 0.0
H437 H 0.9547 0.07444 0.85332 0.0
H438 H 0.88426 0.93845 0.85566 0.0
H439 H 0.89668 0.98458 0.85974 0.0
H440 H 0.88258 0.02153 0.78921 0.0
C441 C 0.94796 0.11806 0.79711 0.0
C442 C 0.93853 0.0631 0.83968 0.0
C443 C 0.9634 0.14547 0.79574 0.0
C444 C 0.88716 0.94971 0.83755 0.0
C445 C 0.89437 0.97623 0.83995 0.0
C446 C 0.89825 0.03289 0.80334 0.0
C447 C 0.94255 0.10501 0.82181 0.0
C448 C 0.92917 0.07569 0.82263 0.0
C449 C 0.89868 0.99181 0.81713 0.0
C450 C 0.90823 0.02048 0.8198 0.0
H451 H 0.97506 0.15883 0.86224 0.0
H452 H 0.94774 0.11076 0.86467 0.0
H453 H 0.90059 0.06918 0.79167 0.0
H454 H 0.88555 0.94514 0.76958 0.0
H455 H 0.89836 0.99161 0.77382 0.0
C456 C 0.95776 0.88286 0.84148 0.0
C457 C 0.94501 0.87875 0.81668 0.0
C458 C 0.98514 0.89363 0.8427 0.0
C459 C 0.04456 0.91048 0.80137 0.0
H460 H 0.07953 0.96869 0.85112 0.0
C461 C 0.15169 -0.00385 0.78807 0.0
C462 C 0.16718 0.00684 0.81112 0.0
C463 C 0.1252 0.97637 0.7902 0.0
C464 C 0.07014 0.95221 0.8374 0.0
H465 H 0.95092 0.88121 0.7737 0.0
H466 H -0.00166 0.90026 0.77589 0.0
H467 H 0.03187 0.94057 0.85293 0.0
H468 H 0.16728 0.004 0.8544 0.0
H469 H 0.12132 0.9696 0.85797 0.0
H470 H 0.08293 0.92287 0.78525 0.0
C471 C 0.98732 0.89503 0.79441 0.0
C472 C 0.04278 0.93601 0.8385 0.0
C473 C 0.96005 0.8843 0.79318 0.0
C474 C 0.15588 -0.00347 0.83621 0.0
C475 C 0.12949 0.97682 0.83832 0.0
C476 C 0.07196 0.92677 0.80021 0.0
C477 C 0.00029 0.90043 0.81916 0.0
C478 C 0.02959 0.91526 0.82018 0.0
C479 C 0.11371 0.96689 0.8154 0.0
C480 C 0.08498 0.94808 0.81793 0.0
H481 H 0.94677 0.87866 0.85997 0.0
H482 H -0.00547 0.89721 0.86209 0.0
H483 H 0.03503 0.89441 0.78721 0.0
H484 H 0.15976 0.00357 0.76844 0.0
H485 H 0.11347 0.96926 0.77218 0.0
C486 C 0.98341 0.88704 0.2188 0.0
C487 C 0.00301 0.89512 0.1991 0.0
C488 C 0.9641 0.89442 0.21721 0.0
C489 C 0.93681 0.9258 0.17117 0.0
H490 H 0.91471 0.94221 0.23782 0.0
C491 C 0.87094 0.97407 0.17383 0.0
C492 C 0.8772 0.99324 0.19373 0.0
C493 C 0.88235 0.95794 0.17424 0.0
C494 C 0.92082 0.93797 0.21895 0.0
H495 H 0.01782 0.9173 0.16233 0.0
H496 H 0.98531 0.93133 0.16027 0.0
H497 H 0.94258 0.92268 0.23868 0.0
H498 H 0.90081 0.01081 0.22933 0.0
H499 H 0.92119 0.98385 0.22942 0.0
H500 H 0.91666 0.94307 0.15152 0.0
C501 C 0.98394 0.91842 0.17643 0.0
C502 C 0.9365 0.92623 0.21944 0.0
C503 C 0.00283 0.91057 0.17773 0.0
C504 C 0.89515 -0.00401 0.21387 0.0
C505 C 0.90676 0.98027 0.21406 0.0
C506 C 0.92154 0.93806 0.17068 0.0
C507 C 0.96431 0.91057 0.19619 0.0
C508 C 0.94523 0.92047 0.19557 0.0
C509 C 0.9005 0.96092 0.19437 0.0
C510 C 0.91388 0.94491 0.1946 0.0
H511 H 0.98287 0.87486 0.23534 0.0
H512 H 0.94906 0.88745 0.23253 0.0
H513 H 0.94246 0.92104 0.15231 0.0
H514 H 0.85714 0.97143 0.15808 0.0
H515 H 0.87685 0.94311 0.15885 0.0
C516 C 0.12766 0.9697 0.17201 0.0
C517 C 0.12243 0.95491 0.19563 0.0
C518 C 0.1436 -0.00276 0.17262 0.0
C519 C 0.16249 0.05163 0.21989 0.0
H520 H 0.21067 0.09508 0.16419 0.0
C521 C 0.21566 0.16493 0.22602 0.0
C522 C 0.21605 0.17807 0.20238 0.0
C523 C 0.20841 0.13825 0.22548 0.0
C524 C 0.19716 0.0832 0.17984 0.0
H525 H 0.13167 0.95718 0.23789 0.0
H526 H 0.15959 0.00489 0.23879 0.0
H527 H 0.19069 0.04709 0.16206 0.0
H528 H 0.20995 0.17353 0.15945 0.0
H529 H 0.19685 0.12713 0.15866 0.0
H530 H 0.16817 0.08739 0.2373 0.0
C531 C 0.15084 0.99539 0.21998 0.0
C532 C 0.18575 0.05574 0.17861 0.0
C533 C 0.1349 0.96801 0.21941 0.0
C534 C 0.20984 0.1641 0.1781 0.0
C535 C 0.2025 0.13745 0.17758 0.0
C536 C 0.17377 0.07898 0.22106 0.0
C537 C 0.15465 0.01041 0.19682 0.0
C538 C 0.16814 0.03965 0.19855 0.0
C539 C 0.2013 0.12407 0.2013 0.0
C540 C 0.19106 0.09513 0.20094 0.0
H541 H 0.11833 0.9602 0.15338 0.0
H542 H 0.14611 0.00828 0.15444 0.0
H543 H 0.1486 0.03979 0.23531 0.0
H544 H 0.22055 0.17511 0.24504 0.0
H545 H 0.20811 0.12865 0.24407 0.0
C546 C 0.13934 0.23617 0.1702 0.0
C547 C 0.1507 0.23058 0.19216 0.0
C548 C 0.11198 0.22606 0.16912 0.0
C549 C 0.05155 0.19351 0.21228 0.0
H550 H 0.01504 0.16702 0.14504 0.0
C551 C 0.93818 0.13127 0.20975 0.0
C552 C 0.92731 0.1098 0.19205 0.0
C553 C 0.96477 0.15084 0.2077 0.0
C554 C 0.02486 0.17409 0.16407 0.0
H555 H 0.14211 0.20949 0.22986 0.0
H556 H 0.09503 0.19128 0.22749 0.0
H557 H 0.06297 0.19158 0.14579 0.0
H558 H 0.93561 0.09209 0.15816 0.0
H559 H 0.98197 0.12509 0.15548 0.0
H560 H 0.0138 0.17429 0.23093 0.0
C561 C 0.107 0.20426 0.21156 0.0
C562 C 0.05247 0.18864 0.16441 0.0
C563 C 0.13416 0.21459 0.21281 0.0
C564 C 0.94338 0.10851 0.172 0.0
C565 C 0.97003 0.12768 0.17032 0.0
C566 C 0.02406 0.17854 0.21201 0.0
C567 C 0.09545 0.20992 0.18982 0.0
C568 C 0.0662 0.19786 0.18866 0.0
C569 C 0.98125 0.14902 0.18831 0.0
C570 C 0.01029 0.16798 0.188 0.0
H571 H 0.15158 0.24849 0.15401 0.0
H572 H 0.10383 0.23099 0.15214 0.0
H573 H 0.06135 0.20096 0.23126 0.0
H574 H 0.92615 0.13294 0.22519 0.0
H575 H 0.9724 0.16722 0.22154 0.0
C576 C 0.88399 0.47083 0.17772 0.0
C577 C 0.89107 0.46503 0.15288 0.0
C578 C 0.87241 0.48674 0.17915 0.0
C579 C 0.85801 0.53197 0.13885 0.0
H580 H 0.79604 0.50432 0.18401 0.0
C581 C 0.77266 0.55371 0.12268 0.0
C582 C 0.76145 0.55805 0.14557 0.0
C583 C 0.79187 0.54626 0.12511 0.0
C584 C 0.81349 0.51253 0.17154 0.0
H585 H 0.89309 0.4729 0.11026 0.0
H586 H 0.87262 0.49985 0.11272 0.0
H587 H 0.82457 0.48529 0.18654 0.0
H588 H 0.7625 0.55887 0.189 0.0
H589 H 0.79572 0.54584 0.19304 0.0
H590 H 0.84616 0.55852 0.12315 0.0
C591 C 0.87613 0.49246 0.13118 0.0
C592 C 0.82996 0.50171 0.17309 0.0
C593 C 0.88769 0.4767 0.12976 0.0
C594 C 0.77046 0.55549 0.17087 0.0
C595 C 0.78948 0.54793 0.17326 0.0
C596 C 0.84139 0.54264 0.13715 0.0
C597 C 0.86773 0.49718 0.15577 0.0
C598 C 0.85221 0.51098 0.15646 0.0
C599 C 0.80013 0.54287 0.15046 0.0
C600 C 0.81877 0.53279 0.15323 0.0
H601 H 0.88643 0.4623 0.19593 0.0
H602 H 0.86657 0.49035 0.19849 0.0
H603 H 0.87522 0.53991 0.12606 0.0
H604 H 0.76627 0.55556 0.1029 0.0
H605 H 0.79963 0.54231 0.10716 0.0
C606 C 0.54912 0.28645 0.12161 0.0
C607 C 0.54977 0.27276 0.14438 0.0
C608 C 0.55681 0.3132 0.12321 0.0
C609 C 0.5711 0.36739 0.17135 0.0
H610 H 0.61469 0.41167 0.11342 0.0
C611 C 0.63937 0.48156 0.17693 0.0
C612 C 0.64158 0.49581 0.15356 0.0
C613 C 0.62396 0.45395 0.17705 0.0
C614 C 0.60222 0.39956 0.1296 0.0
H615 H 0.55856 0.27645 0.18686 0.0
H616 H 0.57254 0.32302 0.18942 0.0
H617 H 0.59594 0.36421 0.1107 0.0
H618 H 0.62743 0.49263 0.11288 0.0
H619 H 0.60048 0.44481 0.11326 0.0
H620 H 0.57829 0.40318 0.19054 0.0
C621 C 0.56561 0.31306 0.17042 0.0
C622 C 0.59139 0.37229 0.12801 0.0
C623 C 0.55776 0.28632 0.16888 0.0
C624 C 0.62654 0.48217 0.13107 0.0
C625 C 0.61115 0.45476 0.13123 0.0
C626 C 0.58213 0.39479 0.17302 0.0
C627 C 0.56551 0.32692 0.14756 0.0
C628 C 0.57577 0.35584 0.14888 0.0
C629 C 0.61049 0.44028 0.15384 0.0
C630 C 0.59783 0.41114 0.15214 0.0
H631 H 0.54283 0.27658 0.10249 0.0
H632 H 0.55605 0.32316 0.10529 0.0
H633 H 0.55891 0.35527 0.18765 0.0
H634 H 0.65075 0.49154 0.19455 0.0
H635 H 0.62381 0.44327 0.19478 0.0
C636 C 0.62291 0.21434 0.12395 0.0
C637 C 0.60974 0.21343 0.14778 0.0
C638 C 0.65034 0.22649 0.12324 0.0
C639 C 0.711 0.25317 0.16403 0.0
H640 H 0.74143 0.30324 0.10574 0.0
C641 C 0.81914 0.33794 0.16432 0.0
C642 C 0.83297 0.34614 0.13999 0.0
C643 C 0.79243 0.31876 0.16484 0.0
C644 C 0.73338 0.28903 0.12186 0.0
H645 H 0.61505 0.223 0.18998 0.0
H646 H 0.66324 0.24441 0.1887 0.0
H647 H 0.69392 0.2743 0.10805 0.0
H648 H 0.8296 0.33979 0.09715 0.0
H649 H 0.783 0.30592 0.09809 0.0
H650 H 0.75055 0.26811 0.17796 0.0
C651 C 0.65218 0.23562 0.17058 0.0
C652 C 0.70608 0.27245 0.12322 0.0
C653 C 0.62459 0.22337 0.17132 0.0
C654 C 0.81953 0.33413 0.11621 0.0
C655 C 0.79277 0.31478 0.11676 0.0
C656 C 0.7384 0.26969 0.16259 0.0
C657 C 0.66535 0.23808 0.14631 0.0
C658 C 0.69454 0.25449 0.14443 0.0
C659 C 0.77881 0.3071 0.14106 0.0
C660 C 0.74991 0.28805 0.14163 0.0
H661 H 0.61207 0.20649 0.10552 0.0
H662 H 0.65988 0.22752 0.10438 0.0
H663 H 0.70269 0.23936 0.18047 0.0
H664 H 0.82876 0.34673 0.18307 0.0
H665 H 0.7823 0.31369 0.18387 0.0
C666 C 0.65139 0.22172 0.55354 0.0
C667 C 0.66602 0.22282 0.53085 0.0
C668 C 0.6325 0.22961 0.55208 0.0
C669 C 0.59398 0.24629 0.50427 0.0
H670 H 0.59309 0.28819 0.56373 0.0
C671 C 0.54994 0.31618 0.50092 0.0
C672 C 0.53741 0.31772 0.52425 0.0
C673 C 0.56183 0.30052 0.50036 0.0
C674 C 0.59279 0.27621 0.5471 0.0
H675 H 0.67166 0.23248 0.48859 0.0
H676 H 0.63937 0.24685 0.48625 0.0
H677 H 0.62104 0.2686 0.56584 0.0
H678 H 0.52547 0.30217 0.56437 0.0
H679 H 0.54589 0.27489 0.56324 0.0
H680 H 0.56623 0.25484 0.48527 0.0
C681 C 0.64206 0.23942 0.50509 0.0
C682 C 0.60879 0.26488 0.54834 0.0
C683 C 0.66077 0.23132 0.5065 0.0
C684 C 0.53537 0.30183 0.54623 0.0
C685 C 0.54715 0.28624 0.54565 0.0
C686 C 0.57806 0.25784 0.50296 0.0
C687 C 0.62794 0.23904 0.52794 0.0
C688 C 0.6097 0.24983 0.52693 0.0
C689 C 0.56132 0.28613 0.5231 0.0
C690 C 0.57734 0.27294 0.52438 0.0
H691 H 0.65471 0.21501 0.57255 0.0
H692 H 0.62162 0.22854 0.56997 0.0
H693 H 0.59393 0.23456 0.48754 0.0
H694 H 0.55185 0.32817 0.48366 0.0
H695 H 0.57264 0.30083 0.48269 0.0
C696 C 0.79161 0.30056 0.50585 0.0
C697 C 0.78553 0.2857 0.52952 0.0
C698 C 0.80726 0.32812 0.50665 0.0
C699 C 0.82351 0.38242 0.55308 0.0
H700 H 0.87601 0.42592 0.50052 0.0
C701 C 0.8778 0.49575 0.5602 0.0
C702 C 0.88075 0.50938 0.53618 0.0
C703 C 0.86993 0.4689 0.55993 0.0
C704 C 0.86126 0.41404 0.51526 0.0
H705 H 0.7929 0.28803 0.57225 0.0
H706 H 0.82011 0.33577 0.5735 0.0
H707 H 0.85553 0.3779 0.49827 0.0
H708 H 0.8784 0.50548 0.49295 0.0
H709 H 0.86415 0.45883 0.49258 0.0
H710 H 0.82842 0.4182 0.56963 0.0
C711 C 0.81233 0.32625 0.55445 0.0
C712 C 0.84958 0.38656 0.51396 0.0
C713 C 0.79677 0.29884 0.55367 0.0
C714 C 0.87636 0.49569 0.51189 0.0
C715 C 0.86835 0.46888 0.51163 0.0
C716 C 0.83501 0.4098 0.55428 0.0
C717 C 0.81709 0.34126 0.53112 0.0
C718 C 0.8305 0.37047 0.53281 0.0
C719 C 0.86467 0.45503 0.53564 0.0
C720 C 0.8539 0.42599 0.5353 0.0
H721 H 0.7833 0.29105 0.48692 0.0
H722 H 0.81056 0.3392 0.48834 0.0
H723 H 0.80851 0.37054 0.56762 0.0
H724 H 0.88123 0.50569 0.57926 0.0
H725 H 0.86773 0.45895 0.5788 0.0
C726 C 0.6057 0.45608 0.51766 0.0
C727 C 0.59617 0.43663 0.5377 0.0
C728 C 0.63267 0.47419 0.51554 0.0
C729 C 0.69538 0.4787 0.52581 0.0
H730 H 0.72653 0.55483 0.52379 0.0
C731 C 0.80456 0.54771 0.49904 0.0
C732 C 0.81855 0.56493 0.5201 0.0
C733 C 0.77697 0.53457 0.49863 0.0
C734 C 0.71798 0.53359 0.52411 0.0
H735 H 0.60724 0.42124 0.5716 0.0
H736 H 0.65463 0.45254 0.56738 0.0
H737 H 0.67866 0.5266 0.5301 0.0
H738 H 0.81495 0.58348 0.55608 0.0
H739 H 0.76676 0.56117 0.55481 0.0
H740 H 0.7345 0.48553 0.51955 0.0
C741 C 0.64109 0.45385 0.55357 0.0
C742 C 0.69074 0.51753 0.52774 0.0
C743 C 0.61403 0.4361 0.55607 0.0
C744 C 0.8046 0.57025 0.53964 0.0
C745 C 0.77709 0.55758 0.53889 0.0
C746 C 0.72246 0.49469 0.5216 0.0
C747 C 0.65062 0.47279 0.53307 0.0
C748 C 0.67931 0.48997 0.52897 0.0
C749 C 0.76303 0.53896 0.51892 0.0
C750 C 0.73403 0.52226 0.52096 0.0
H751 H 0.59232 0.45699 0.50331 0.0
H752 H 0.63961 0.48859 0.49955 0.0
H753 H 0.68694 0.45747 0.52643 0.0
H754 H 0.81483 0.54312 0.48386 0.0
H755 H 0.76647 0.52033 0.48298 0.0
C756 C 0.56276 0.81706 0.45994 0.0
C757 C 0.5618 0.80282 0.48295 0.0
C758 C 0.55121 0.83286 0.45977 0.0
C759 C 0.50554 0.84283 0.45879 0.0
H760 H 0.50716 0.8883 0.51586 0.0
C761 C 0.44387 0.89413 0.45216 0.0
C762 C 0.43041 0.89382 0.47551 0.0
C763 C 0.46358 0.88731 0.45309 0.0
C764 C 0.50638 0.87553 0.49982 0.0
H765 H 0.54966 0.79555 0.52444 0.0
H766 H 0.5292 0.82319 0.52409 0.0
H767 H 0.53558 0.86885 0.51835 0.0
H768 H 0.42772 0.88677 0.51831 0.0
H769 H 0.4614 0.87426 0.51974 0.0
H770 H 0.47579 0.84852 0.44065 0.0
C771 C 0.539 0.82209 0.50621 0.0
C772 C 0.52269 0.86446 0.50126 0.0
C773 C 0.55068 0.80624 0.5064 0.0
C774 C 0.43765 0.88725 0.49989 0.0
C775 C 0.45718 0.88025 0.50077 0.0
C776 C 0.48915 0.8537 0.45744 0.0
C777 C 0.53836 0.83478 0.48258 0.0
C778 C 0.52232 0.84788 0.48081 0.0
C779 C 0.47015 0.87983 0.47734 0.0
C780 C 0.48917 0.87001 0.47802 0.0
H781 H 0.57162 0.81526 0.44165 0.0
H782 H 0.55155 0.84288 0.44146 0.0
H783 H 0.50442 0.82972 0.44294 0.0
H784 H 0.439 0.89936 0.4331 0.0
H785 H 0.4735 0.88766 0.43472 0.0
C786 C 0.30017 0.81333 0.46168 0.0
C787 C 0.31105 0.82843 0.48494 0.0
C788 C 0.28442 0.78596 0.46305 0.0
C789 C 0.2738 0.73047 0.50554 0.0
H790 H 0.21696 0.68998 0.45554 0.0
C791 C 0.21913 0.61707 0.50423 0.0
C792 C 0.21603 0.60522 0.47901 0.0
C793 C 0.22694 0.64374 0.50643 0.0
C794 C 0.23285 0.70104 0.46955 0.0
H795 H 0.31261 0.82654 0.52812 0.0
H796 H 0.28472 0.77856 0.53056 0.0
H797 H 0.23638 0.73784 0.45784 0.0
H798 H 0.21783 0.61213 0.43629 0.0
H799 H 0.23164 0.65889 0.44018 0.0
H800 H 0.27053 0.69376 0.51698 0.0
C801 C 0.28884 0.78802 0.51118 0.0
C802 C 0.24397 0.72844 0.47091 0.0
C803 C 0.30467 0.81553 0.50981 0.0
C804 C 0.22008 0.62059 0.45601 0.0
C805 C 0.22785 0.64735 0.45824 0.0
C806 C 0.26259 0.70309 0.50428 0.0
C807 C 0.27901 0.77288 0.48774 0.0
C808 C 0.26493 0.74354 0.48857 0.0
C809 C 0.2318 0.65929 0.48349 0.0
C810 C 0.24229 0.68813 0.48598 0.0
H811 H 0.30444 0.82254 0.44216 0.0
H812 H 0.27749 0.77499 0.44457 0.0
H813 H 0.29018 0.74147 0.51904 0.0
H814 H 0.21594 0.60586 0.52244 0.0
H815 H 0.22942 0.65227 0.52615 0.0
C816 C 0.29387 0.55944 0.50606 0.0
C817 C 0.27907 0.54916 0.48255 0.0
C818 C 0.32151 0.57219 0.5053 0.0
C819 C 0.37526 0.6094 0.4578 0.0
H820 H 0.42021 0.60566 0.51237 0.0
C821 C 0.48867 0.67092 0.44972 0.0
C822 C 0.50239 0.68311 0.47332 0.0
C823 C 0.46188 0.65168 0.45058 0.0
C824 C 0.40792 0.60708 0.49705 0.0
H825 H 0.28156 0.54222 0.44031 0.0
H826 H 0.32941 0.56411 0.43914 0.0
H827 H 0.37239 0.57675 0.5152 0.0
H828 H 0.49862 0.68413 0.51642 0.0
H829 H 0.45211 0.65127 0.51777 0.0
H830 H 0.41044 0.64015 0.44001 0.0
C831 C 0.31982 0.56296 0.458 0.0
C832 C 0.38054 0.59048 0.49869 0.0
C833 C 0.29235 0.55032 0.45873 0.0
C834 C 0.48879 0.6752 0.4978 0.0
C835 C 0.46205 0.65612 0.49863 0.0
C836 C 0.40254 0.62606 0.45624 0.0
C837 C 0.33476 0.57482 0.48104 0.0
C838 C 0.36392 0.59154 0.47911 0.0
C839 C 0.44816 0.64428 0.47503 0.0
C840 C 0.41925 0.62527 0.47593 0.0
H841 H 0.28425 0.55888 0.52471 0.0
H842 H 0.33251 0.58118 0.52339 0.0
H843 H 0.36297 0.61106 0.44264 0.0
H844 H 0.49854 0.67636 0.43054 0.0
H845 H 0.4519 0.64268 0.43204 0.0
C846 C 0.21227 0.64803 0.83494 0.0
C847 C 0.20649 0.65537 0.85965 0.0
C848 C 0.22414 0.63238 0.83393 0.0
C849 C 0.24041 0.58938 0.87535 0.0
H850 H 0.29987 0.61384 0.82707 0.0
C851 C 0.32372 0.5643 0.88854 0.0
C852 C 0.33422 0.55948 0.86537 0.0
C853 C 0.30504 0.5725 0.88662 0.0
C854 C 0.28309 0.60647 0.84041 0.0
H855 H 0.20738 0.65072 0.90263 0.0
H856 H 0.22823 0.624 0.90084 0.0
H857 H 0.27195 0.63361 0.82518 0.0
H858 H 0.33239 0.55856 0.82199 0.0
H859 H 0.29993 0.5727 0.8188 0.0
H860 H 0.25214 0.56275 0.89107 0.0
C861 C 0.22349 0.63007 0.8822 0.0
C862 C 0.267 0.61776 0.83926 0.0
C863 C 0.21169 0.64565 0.88321 0.0
C864 C 0.32499 0.56231 0.84031 0.0
C865 C 0.30642 0.57053 0.83842 0.0
C866 C 0.25658 0.57815 0.87656 0.0
C867 C 0.23038 0.62367 0.8576 0.0
C868 C 0.24568 0.60964 0.85697 0.0
C869 C 0.29651 0.5761 0.86151 0.0
C870 C 0.2783 0.5868 0.85932 0.0
H871 H 0.20846 0.65507 0.8164 0.0
H872 H 0.22886 0.62748 0.81462 0.0
H873 H 0.22391 0.58236 0.88901 0.0
H874 H 0.33032 0.56231 0.90816 0.0
H875 H 0.29793 0.57683 0.90481 0.0
C876 C 0.54419 0.83191 0.84028 0.0
C877 C 0.54598 0.84335 0.86549 0.0
C878 C 0.53683 0.80535 0.838 0.0
C879 C 0.53038 0.74801 0.87518 0.0
H880 H 0.47512 0.70748 0.82372 0.0
C881 C 0.46369 0.63561 0.88183 0.0
C882 C 0.45333 0.62063 0.8584 0.0
C883 C 0.47953 0.66297 0.88065 0.0
C884 C 0.49096 0.71851 0.83778 0.0
H885 H 0.54227 0.83583 0.90815 0.0
H886 H 0.52931 0.78929 0.90411 0.0
H887 H 0.49408 0.75508 0.82602 0.0
H888 H 0.45299 0.62271 0.81516 0.0
H889 H 0.48111 0.67068 0.81307 0.0
H890 H 0.52702 0.71136 0.88718 0.0
C891 C 0.53375 0.80106 0.88613 0.0
C892 C 0.50176 0.74583 0.83918 0.0
C893 C 0.54104 0.82769 0.88843 0.0
C894 C 0.46049 0.63363 0.8336 0.0
C895 C 0.47645 0.66114 0.83242 0.0
C896 C 0.5197 0.72068 0.87367 0.0
C897 C 0.53116 0.78953 0.86085 0.0
C898 C 0.52125 0.76082 0.8582 0.0
C899 C 0.4856 0.67618 0.856 0.0
C900 C 0.49947 0.70552 0.8553 0.0
H901 H 0.54804 0.84334 0.82213 0.0
H902 H 0.53536 0.79712 0.81828 0.0
H903 H 0.54567 0.75911 0.88976 0.0
H904 H 0.45881 0.62631 0.90131 0.0
H905 H 0.48594 0.67384 0.89924 0.0
C906 C 0.27698 0.7871 0.88437 0.0
C907 C 0.26106 0.77466 0.86197 0.0
C908 C 0.3036 0.80626 0.88116 0.0
C909 C 0.35824 0.82522 0.83452 0.0
H910 H 0.39362 0.88888 0.8772 0.0
C911 C 0.47114 0.89326 0.82893 0.0
C912 C 0.48354 0.90071 0.854 0.0
C913 C 0.44374 0.88239 0.82681 0.0
C914 C 0.38405 0.87114 0.86517 0.0
H915 H 0.26055 0.77352 0.81854 0.0
H916 H 0.30675 0.80666 0.81315 0.0
H917 H 0.34579 0.86059 0.88041 0.0
H918 H 0.47711 0.90426 0.89617 0.0
H919 H 0.42988 0.88507 0.89255 0.0
H920 H 0.39642 0.83497 0.82012 0.0
C921 C 0.29873 0.80142 0.83316 0.0
C922 C 0.35667 0.85497 0.86705 0.0
C923 C 0.27219 0.78246 0.83632 0.0
C924 C 0.46823 0.89847 0.87655 0.0
C925 C 0.44103 0.88769 0.87444 0.0
C926 C 0.38562 0.84124 0.83281 0.0
C927 C 0.31483 0.81324 0.85551 0.0
C928 C 0.34355 0.8316 0.85208 0.0
C929 C 0.4283 0.87891 0.84969 0.0
C930 C 0.39895 0.86412 0.84854 0.0
H931 H 0.26907 0.78166 0.90439 0.0
H932 H 0.31561 0.81494 0.89879 0.0
H933 H 0.3487 0.80719 0.82291 0.0
H934 H 0.48238 0.89483 0.81117 0.0
H935 H 0.43458 0.87617 0.80737 0.0
C936 C 0.07973 0.29839 0.70412 0.0
C937 C 0.07809 0.30982 0.72824 0.0
C938 C 0.09327 0.31419 0.68217 0.0
C939 C 0.14406 0.38078 0.6617 0.0
H940 H 0.1048 0.36454 0.59536 0.0
C941 C 0.17608 0.45549 0.57478 0.0
C942 C 0.16863 0.44638 0.54844 0.0
C943 C 0.1681 0.43778 0.59618 0.0
C944 C 0.11642 0.36914 0.61345 0.0
H945 H 0.09037 0.34696 0.74844 0.0
H946 H 0.1145 0.37458 0.71018 0.0
H947 H 0.08546 0.33579 0.63382 0.0
H948 H 0.1485 0.41127 0.52391 0.0
H949 H 0.13563 0.38032 0.56105 0.0
H950 H 0.17522 0.41388 0.6414 0.0
C951 C 0.10508 0.35333 0.7083 0.0
C952 C 0.10518 0.35266 0.6356 0.0
C953 C 0.09115 0.3375 0.73015 0.0
C954 C 0.1544 0.419 0.54394 0.0
C955 C 0.14677 0.40124 0.56535 0.0
C956 C 0.15553 0.39705 0.63941 0.0
C957 C 0.10588 0.34182 0.68393 0.0
C958 C 0.1187 0.35851 0.66006 0.0
C959 C 0.15278 0.41038 0.59189 0.0
C960 C 0.14171 0.39173 0.61503 0.0
H961 H 0.06986 0.27715 0.70188 0.0
H962 H 0.09371 0.30479 0.6637 0.0
H963 H 0.15505 0.38559 0.68024 0.0
H964 H 0.18687 0.47642 0.57911 0.0
H965 H 0.17292 0.44579 0.61619 0.0
C966 C 0.68745 0.80132 0.54542 0.0
C967 C 0.65997 0.79005 0.5484 0.0
C968 C 0.7042 0.81092 0.56767 0.0
C969 C 0.70318 0.79767 0.63863 0.0
H970 H 0.76933 0.86384 0.64261 0.0
C971 C 0.76721 0.82452 0.73338 0.0
C972 C 0.79473 0.83759 0.73013 0.0
C973 C 0.75077 0.82197 0.71193 0.0
C974 C 0.75109 0.84512 0.64176 0.0
H975 H 0.62887 0.78142 0.57714 0.0
H976 H 0.65802 0.79778 0.61572 0.0
H977 H 0.74126 0.85386 0.60318 0.0
H978 H 0.82658 0.8587 0.70186 0.0
H979 H 0.79802 0.85337 0.66428 0.0
H980 H 0.71319 0.78808 0.67632 0.0
C981 C 0.66654 0.7991 0.59618 0.0
C982 C 0.73497 0.83951 0.61918 0.0
C983 C 0.64987 0.78986 0.57397 0.0
C984 C 0.80546 0.84867 0.70511 0.0
C985 C 0.789 0.8457 0.68352 0.0
C986 C 0.71943 0.80303 0.66094 0.0
C987 C 0.69379 0.80914 0.59338 0.0
C988 C 0.71083 0.81574 0.61743 0.0
C989 C 0.76135 0.83193 0.68647 0.0
C990 C 0.74366 0.82683 0.66291 0.0
H991 H 0.69595 0.80187 0.52605 0.0
H992 H 0.72515 0.81853 0.56495 0.0
H993 H 0.68488 0.77898 0.63764 0.0
H994 H 0.75833 0.816 0.75248 0.0
H995 H 0.72968 0.81189 0.71532 0.0
C996 C 0.28677 0.01435 0.73134 0.0
C997 C 0.2706 0.02571 0.72963 0.0
C998 C 0.28921 0.0007 0.70955 0.0
C999 C 0.28654 -0.00073 0.63696 0.0
H1000 H 0.28178 0.93104 0.64301 0.0
C1001 C 0.30375 0.95098 0.54479 0.0
C1002 C 0.31831 0.93814 0.54883 0.0
C1003 C 0.29368 0.95817 0.56656 0.0
C1004 C 0.2835 0.95024 0.64096 0.0
H1005 H 0.24395 0.03118 0.70372 0.0
H1006 H 0.24867 0.00785 0.66572 0.0
H1007 H 0.27341 0.95068 0.68211 0.0
H1008 H 0.33277 0.92191 0.57905 0.0
H1009 H 0.31618 0.93515 0.61671 0.0
H1010 H 0.29787 -0.00026 0.59638 0.0
C1011 C 0.25933 0.00941 0.68396 0.0
C1012 C 0.27857 0.9614 0.66339 0.0
C1013 C 0.25655 0.02265 0.70581 0.0
C1014 C 0.32152 0.93163 0.57509 0.0
C1015 C 0.31184 0.93918 0.59682 0.0
C1016 C 0.2919 0.98836 0.61467 0.0
C1017 C 0.27587 -0.00148 0.68549 0.0
C1018 C 0.28017 0.98609 0.66163 0.0
C1019 C 0.29828 0.9531 0.59295 0.0
C1020 C 0.29063 0.96374 0.61633 0.0
H1021 H 0.2978 0.01626 0.74939 0.0
H1022 H 0.30221 0.9926 0.71122 0.0
H1023 H 0.28821 0.01849 0.63511 0.0
H1024 H 0.30071 0.95611 0.52484 0.0
H1025 H 0.28274 0.96821 0.56264 0.0
C1026 C 0.46939 0.18306 0.03842 0.0
C1027 C 0.45864 0.1724 0.06356 0.0
C1028 C 0.45297 0.17994 0.01674 0.0
C1029 C 0.38327 0.13746 0.99442 0.0
H1030 H 0.40575 0.18702 0.93544 0.0
C1031 C 0.31409 0.12302 0.90677 0.0
C1032 C 0.32405 0.12217 0.88142 0.0
C1033 C 0.33081 0.13284 0.92889 0.0
C1034 C 0.39927 0.17303 0.95179 0.0
H1035 H 0.42224 0.15145 0.08602 0.0
H1036 H 0.39366 0.14714 0.0487 0.0
H1037 H 0.4337 0.19756 0.97504 0.0
H1038 H 0.35991 0.13284 0.85932 0.0
H1039 H 0.3892 0.15051 0.89806 0.0
H1040 H 0.34864 0.11322 0.97129 0.0
C1041 C 0.41473 0.15698 0.04529 0.0
C1042 C 0.41533 0.17895 0.97447 0.0
C1043 C 0.43114 0.15965 0.06684 0.0
C1044 C 0.3515 0.13309 0.8785 0.0
C1045 C 0.36831 0.14326 0.90067 0.0
C1046 C 0.36709 0.1318 0.97201 0.0
C1047 C 0.42534 0.16646 0.01972 0.0
C1048 C 0.40767 0.16111 0.99607 0.0
C1049 C 0.35798 0.14242 0.92623 0.0
C1050 C 0.37497 0.1494 0.95037 0.0
H1051 H 0.4905 0.19281 0.03515 0.0
H1052 H 0.46203 0.18723 0.99744 0.0
H1053 H 0.37684 0.12283 0.01014 0.0
H1054 H 0.29312 0.11492 0.9099 0.0
H1055 H 0.32236 0.13226 0.9483 0.0
C1056 C 0.98571 0.26632 0.90691 0.0
C1057 C 0.98384 0.27346 0.8805 0.0
C1058 C 0.97601 0.27436 0.92823 0.0
C1059 C 0.95868 0.32564 0.94539 0.0
H1060 H 0.93605 0.28656 0.01191 0.0
C1061 C 0.92415 0.36155 0.03632 0.0
C1062 C 0.93692 0.36276 0.06055 0.0
C1063 C 0.92664 0.34837 0.0142 0.0
C1064 C 0.94237 0.29769 0.99345 0.0
H1065 H 0.96867 0.2933 0.8558 0.0
H1066 H 0.95074 0.3064 0.89287 0.0
H1067 H 0.94442 0.2667 0.97303 0.0
H1068 H 0.96153 0.35015 0.08071 0.0
H1069 H 0.9654 0.32665 0.04216 0.0
H1070 H 0.9562 0.35645 0.9659 0.0
C1071 C 0.96059 0.29536 0.89723 0.0
C1072 C 0.9473 0.28639 0.97114 0.0
C1073 C 0.97065 0.2876 0.87587 0.0
C1074 C 0.95151 0.34969 0.06235 0.0
C1075 C 0.95363 0.33612 0.04032 0.0
C1076 C 0.95333 0.33673 0.96757 0.0
C1077 C 0.96378 0.28948 0.92381 0.0
C1078 C 0.95599 0.30038 0.94688 0.0
C1079 C 0.94157 0.33569 0.01589 0.0
C1080 C 0.94552 0.32305 0.99195 0.0
H1081 H -0.00414 0.25557 0.91135 0.0
H1082 H 0.97926 0.26969 0.94828 0.0
H1083 H 0.96581 0.33735 0.92737 0.0
H1084 H 0.91282 0.37144 0.03417 0.0
H1085 H 0.91699 0.3482 0.99568 0.0
C1086 C 0.74697 0.63095 0.03698 0.0
C1087 C 0.74536 0.6428 0.06082 0.0
C1088 C 0.76016 0.64638 0.01471 0.0
C1089 C 0.81044 0.7123 0.99284 0.0
H1090 H 0.7696 0.69601 0.92754 0.0
C1091 C 0.84109 0.78679 0.9062 0.0
C1092 C 0.83302 0.77782 0.87994 0.0
C1093 C 0.83336 0.76902 0.9275 0.0
C1094 C 0.78165 0.7006 0.94531 0.0
H1095 H 0.75731 0.68023 0.08024 0.0
H1096 H 0.78098 0.70721 0.04144 0.0
H1097 H 0.75098 0.66757 0.96636 0.0
H1098 H 0.81188 0.74286 0.85538 0.0
H1099 H 0.79941 0.71173 0.89236 0.0
H1100 H 0.84134 0.745 0.97189 0.0
C1101 C 0.77175 0.68594 0.04002 0.0
C1102 C 0.77082 0.68432 0.96766 0.0
C1103 C 0.75811 0.67049 0.06217 0.0
C1104 C 0.81828 0.75048 0.87536 0.0
C1105 C 0.81089 0.73263 0.89668 0.0
C1106 C 0.82151 0.72833 0.97034 0.0
C1107 C 0.77249 0.674 0.01593 0.0
C1108 C 0.78491 0.69026 0.99177 0.0
C1109 C 0.81767 0.74168 0.92318 0.0
C1110 C 0.80708 0.72304 0.94635 0.0
H1111 H 0.73728 0.60968 0.0352 0.0
H1112 H 0.76055 0.6367 0.99643 0.0
H1113 H 0.82184 0.71714 0.01112 0.0
H1114 H 0.8523 0.8077 0.91061 0.0
H1115 H 0.83873 0.77698 0.94749 0.0
C1116 C 0.9421 0.6939 0.4647 0.0
C1117 C 0.92977 0.66654 0.46033 0.0
C1118 C 0.94879 0.7114 0.44316 0.0
C1119 C 0.93944 0.71424 0.36914 0.0
H1120 H 0.00681 0.77903 0.37447 0.0
C1121 C 0.00109 0.77608 0.27822 0.0
C1122 C 0.01294 0.8037 0.28009 0.0
C1123 C 0.98763 0.75996 0.30005 0.0
C1124 C 0.9878 0.76116 0.37277 0.0
H1125 H 0.91413 0.63618 0.42976 0.0
H1126 H 0.92648 0.66647 0.39247 0.0
H1127 H 0.9894 0.75006 0.41305 0.0
H1128 H 0.01921 0.83587 0.30629 0.0
H1129 H -0.00392 0.80772 0.3444 0.0
H1130 H 0.93873 0.72502 0.32829 0.0
C1131 C 0.93046 0.67458 0.41246 0.0
C1132 C 0.97768 0.74454 0.39498 0.0
C1133 C 0.92345 0.6571 0.43397 0.0
C1134 C 0.0103 0.8147 0.30407 0.0
C1135 C -0.00281 0.79861 0.32599 0.0
C1136 C 0.9498 0.7307 0.3468 0.0
C1137 C 0.94369 0.70204 0.41666 0.0
C1138 C 0.95344 0.72069 0.39347 0.0
C1139 C 0.98604 0.77111 0.32435 0.0
C1140 C 0.97418 0.75425 0.34834 0.0
H1141 H 0.94708 0.70187 0.48474 0.0
H1142 H 0.95835 0.73233 0.44734 0.0
H1143 H 0.92049 0.69638 0.36723 0.0
H1144 H 0.00267 0.76693 0.26005 0.0
H1145 H 0.97934 0.73883 0.29824 0.0
C1146 C 0.33012 0.29744 0.27743 0.0
C1147 C 0.3026 0.28376 0.28082 0.0
C1148 C 0.34685 0.30055 0.29881 0.0
C1149 C 0.34736 0.27721 0.36867 0.0
H1150 H 0.41329 0.34362 0.37281 0.0
C1151 C 0.41144 0.32002 0.46479 0.0
C1152 C 0.43893 0.3315 0.46165 0.0
C1153 C 0.39462 0.31076 0.44258 0.0
C1154 C 0.39506 0.32485 0.37181 0.0
H1155 H 0.27109 0.26238 0.30937 0.0
H1156 H 0.30011 0.26866 0.3468 0.0
H1157 H 0.3846 0.33459 0.33443 0.0
H1158 H 0.46999 0.34097 0.43259 0.0
H1159 H 0.44069 0.32517 0.39407 0.0
H1160 H 0.35763 0.26825 0.40691 0.0
C1161 C 0.30893 0.27636 0.3275 0.0
C1162 C 0.3786 0.31955 0.34967 0.0
C1163 C 0.2922 0.27286 0.30599 0.0
C1164 C 0.44898 0.33232 0.43589 0.0
C1165 C 0.43222 0.32342 0.41372 0.0
C1166 C 0.36368 0.28274 0.39106 0.0
C1167 C 0.33655 0.2905 0.32433 0.0
C1168 C 0.35446 0.29565 0.34771 0.0
C1169 C 0.40495 0.3131 0.41674 0.0
C1170 C 0.38772 0.30662 0.39283 0.0
H1171 H 0.33877 0.30584 0.25822 0.0
H1172 H 0.36792 0.31097 0.29527 0.0
H1173 H 0.32922 0.25839 0.3678 0.0
H1174 H 0.40298 0.31901 0.48429 0.0
H1175 H 0.37366 0.30293 0.44548 0.0
C1176 C 0.78553 0.19161 0.43838 0.0
C1177 C 0.77787 0.17594 0.46163 0.0
C1178 C 0.79487 0.1844 0.416 0.0
C1179 C 0.78533 0.12475 0.38382 0.0
H1180 H 0.84506 0.17043 0.33901 0.0
C1181 C 0.79809 0.09298 0.27899 0.0
C1182 C 0.82243 0.09438 0.2742 0.0
C1183 C 0.79477 0.1056 0.30109 0.0
C1184 C 0.82834 0.1575 0.35139 0.0
H1185 H 0.77584 0.14133 0.47996 0.0
H1186 H 0.79181 0.12879 0.44093 0.0
H1187 H 0.83687 0.18786 0.38037 0.0
H1188 H 0.86281 0.11149 0.2882 0.0
H1189 H 0.85703 0.13396 0.32661 0.0
H1190 H 0.77644 0.09454 0.35486 0.0
C1191 C 0.79039 0.14653 0.44002 0.0
C1192 C 0.82362 0.16747 0.37494 0.0
C1193 C 0.78137 0.15385 0.46245 0.0
C1194 C 0.84376 0.10988 0.29134 0.0
C1195 C 0.84051 0.12284 0.31328 0.0
C1196 C 0.78976 0.11496 0.36016 0.0
C1197 C 0.79649 0.16126 0.41631 0.0
C1198 C 0.80213 0.1511 0.39146 0.0
C1199 C 0.81579 0.12025 0.31875 0.0
C1200 C 0.81129 0.13119 0.34368 0.0
H1201 H 0.78321 0.2088 0.43702 0.0
H1202 H 0.79943 0.19613 0.39797 0.0
H1203 H 0.76844 0.11175 0.39598 0.0
H1204 H 0.78122 0.08128 0.26627 0.0
H1205 H 0.77557 0.10351 0.30468 0.0
C1206 C 0.74086 0.97718 0.13324 0.0
C1207 C 0.76808 0.99154 0.1278 0.0
C1208 C 0.72249 0.96616 0.11243 0.0
C1209 C 0.7164 0.95304 0.03842 0.0
H1210 H 0.65417 0.95979 0.04632 0.0
C1211 C 0.65572 0.95869 0.94981 0.0
C1212 C 0.62805 0.94378 0.95165 0.0
C1213 C 0.67156 0.96009 0.9714 0.0
C1214 C 0.67128 0.95746 0.04392 0.0
H1215 H 0.79723 0.00446 0.09612 0.0
H1216 H 0.76547 0.98615 0.06007 0.0
H1217 H 0.68389 0.96964 0.08402 0.0
H1218 H 0.59536 0.91833 0.97752 0.0
H1219 H 0.62312 0.92132 0.01545 0.0
H1220 H 0.70423 0.94223 0.99772 0.0
C1221 C 0.75811 0.98276 0.08035 0.0
C1222 C 0.68833 0.96297 0.06562 0.0
C1223 C 0.77645 0.99342 0.10115 0.0
C1224 C 0.61661 0.92994 0.97543 0.0
C1225 C 0.63247 0.93174 0.99719 0.0
C1226 C 0.69954 0.94795 0.0166 0.0
C1227 C 0.73081 0.96954 0.08559 0.0
C1228 C 0.71136 0.96118 0.06313 0.0
C1229 C 0.6601 0.94699 0.99546 0.0
C1230 C 0.67696 0.95039 0.01905 0.0
H1231 H 0.73369 0.97514 0.15353 0.0
H1232 H 0.7017 0.95553 0.11742 0.0
H1233 H 0.73354 0.95085 0.03576 0.0
H1234 H 0.66516 0.96947 0.93174 0.0
H1235 H 0.6928 0.97214 0.96955 0.0
C1236 C 0.13594 0.76084 0.95037 0.0
C1237 C 0.15875 0.7589 0.94687 0.0
C1238 C 0.13364 0.77456 0.97208 0.0
C1239 C 0.16014 0.79779 0.04009 0.0
H1240 H 0.12028 0.83405 0.03384 0.0
C1241 C 0.12027 0.85983 0.10766 0.0
C1242 C 0.11175 0.84366 0.13051 0.0
C1243 C 0.13069 0.8533 0.08571 0.0
C1244 C 0.13185 0.82441 0.03599 0.0
H1245 H 0.19746 0.77083 0.96322 0.0
H1246 H 0.19365 0.79522 1.00081 0.0
H1247 H 0.1299 0.81664 0.99407 0.0
H1248 H 0.10881 0.80857 0.14851 0.0
H1249 H 0.12639 0.79695 0.11024 0.0
H1250 H 0.16237 0.80589 0.08201 0.0
C1251 C 0.17728 0.78562 0.987 0.0
C1252 C 0.13703 0.81403 0.01314 0.0
C1253 C 0.17954 0.77177 0.9653 0.0
C1254 C 0.11521 0.82157 0.13134 0.0
C1255 C 0.12543 0.81493 0.10932 0.0
C1256 C 0.15508 0.80832 0.06296 0.0
C1257 C 0.15414 0.78693 0.99089 0.0
C1258 C 0.1508 0.80012 0.01491 0.0
C1259 C 0.13269 0.83032 0.08591 0.0
C1260 C 0.14045 0.82137 0.06131 0.0
H1261 H 0.11944 0.75115 0.93671 0.0
H1262 H 0.11535 0.77473 0.97454 0.0
H1263 H 0.17063 0.78706 0.04235 0.0
H1264 H 0.11814 0.87713 0.10635 0.0
H1265 H 0.13663 0.86599 0.06832 0.0
C1266 C 0.34624 0.48078 0.97145 0.0
C1267 C 0.34681 0.47029 0.94637 0.0
C1268 C 0.33271 0.4641 0.99291 0.0
C1269 C 0.30638 0.39454 0.015 0.0
H1270 H 0.27638 0.41523 0.07271 0.0
C1271 C 0.25085 0.32404 0.10158 0.0
C1272 C 0.26035 0.33424 0.12724 0.0
C1273 C 0.25795 0.34075 0.07943 0.0
C1274 C 0.28471 0.40925 0.05672 0.0
H1275 H 0.3323 0.43408 0.92376 0.0
H1276 H 0.30774 0.40506 0.96068 0.0
H1277 H 0.29447 0.44366 0.03351 0.0
H1278 H 0.28335 0.37039 0.14977 0.0
H1279 H 0.29535 0.3996 0.11098 0.0
H1280 H 0.29625 0.35998 0.03809 0.0
C1281 C 0.3186 0.42613 0.96423 0.0
C1282 C 0.29523 0.42558 0.03428 0.0
C1283 C 0.33252 0.44278 0.94292 0.0
C1284 C 0.27573 0.3618 0.13034 0.0
C1285 C 0.28258 0.37857 0.10814 0.0
C1286 C 0.29552 0.37809 0.03718 0.0
C1287 C 0.31902 0.43648 0.98975 0.0
C1288 C 0.30644 0.41857 0.01315 0.0
C1289 C 0.27443 0.36812 0.08235 0.0
C1290 C 0.28474 0.38531 0.05837 0.0
H1291 H 0.35719 0.50189 0.97484 0.0
H1292 H 0.33388 0.47294 0.01221 0.0
H1293 H 0.31537 0.38863 0.99964 0.0
H1294 H 0.23889 0.30297 0.09831 0.0
H1295 H 0.25109 0.33217 0.05983 0.0
C1296 C 0.09901 0.48776 0.4014 0.0
C1297 C 0.12654 0.50214 0.39817 0.0
C1298 C 0.08222 0.48445 0.37999 0.0
C1299 C 0.0812 0.50761 0.31009 0.0
H1300 H 0.01669 0.43992 0.30561 0.0
C1301 C 0.01768 0.46356 0.21366 0.0
C1302 C 0.99013 0.4514 0.2168 0.0
C1303 C 0.03448 0.47306 0.2359 0.0
C1304 C 0.03452 0.45903 0.3067 0.0
H1305 H 0.15801 0.5247 0.36994 0.0
H1306 H 0.12895 0.51809 0.33245 0.0
H1307 H 0.04537 0.44984 0.34415 0.0
H1308 H 0.9589 0.44085 0.24592 0.0
H1309 H 0.98813 0.45704 0.28446 0.0
H1310 H 0.07056 0.51603 0.27177 0.0
C1311 C 0.12012 0.50996 0.35164 0.0
C1312 C 0.05097 0.46485 0.32894 0.0
C1313 C 0.13688 0.51368 0.3732 0.0
C1314 C 0.97996 0.45003 0.24261 0.0
C1315 C -0.00332 0.45917 0.26479 0.0
C1316 C 0.0649 0.50156 0.28759 0.0
C1317 C 0.0925 0.49495 0.35457 0.0
C1318 C 0.07459 0.48924 0.33105 0.0
C1319 C 0.02406 0.47028 0.26177 0.0
C1320 C 0.04135 0.47722 0.2857 0.0
H1321 H 0.09038 0.47884 0.42045 0.0
H1322 H 0.06114 0.47338 0.38339 0.0
H1323 H 0.09892 0.52677 0.31105 0.0
H1324 H 0.02625 0.46501 0.19412 0.0
H1325 H 0.05552 0.4815 0.23299 0.0
C1326 C 0.59511 0.69735 0.36958 0.0
C1327 C 0.60591 0.69736 0.39467 0.0
C1328 C 0.59809 0.68397 0.34792 0.0
C1329 C 0.63989 0.65612 0.32543 0.0
H1330 H 0.58899 0.62767 0.26765 0.0
C1331 C 0.65107 0.5977 0.2395 0.0
C1332 C 0.65172 0.60784 0.21382 0.0
C1333 C 0.64199 0.60564 0.26141 0.0
C1334 C 0.60335 0.63557 0.28365 0.0
H1335 H 0.62709 0.68214 0.41703 0.0
H1336 H 0.6312 0.65776 0.37976 0.0
H1337 H 0.57955 0.64632 0.30695 0.0
H1338 H 0.64146 0.63291 0.19094 0.0
H1339 H 0.62505 0.64633 0.22936 0.0
H1340 H 0.66335 0.6448 0.3023 0.0
C1341 C 0.62135 0.66896 0.37636 0.0
C1342 C 0.59807 0.64642 0.30615 0.0
C1343 C 0.61881 0.68278 0.39788 0.0
C1344 C 0.64134 0.62475 0.21039 0.0
C1345 C 0.6319 0.63243 0.23237 0.0
C1346 C 0.6449 0.64488 0.30321 0.0
C1347 C 0.61155 0.66982 0.35087 0.0
C1348 C 0.61637 0.65705 0.32732 0.0
C1349 C 0.63297 0.6236 0.2582 0.0
C1350 C 0.62679 0.63463 0.28203 0.0
H1351 H 0.58523 0.70857 0.36636 0.0
H1352 H 0.59059 0.68554 0.32866 0.0
H1353 H 0.65486 0.66464 0.3408 0.0
H1354 H 0.65875 0.58456 0.24302 0.0
H1355 H 0.64271 0.59827 0.28106 0.0
C1356 C 0.47558 0.08672 0.21154 0.0
C1357 C 0.49778 0.11225 0.21261 0.0
C1358 C 0.46867 0.06968 0.23344 0.0
C1359 C 0.47733 0.07225 0.30676 0.0
H1360 H 0.43973 -0.00393 0.29991 0.0
C1361 C 0.42388 0.97145 0.37676 0.0
C1362 C 0.41094 0.97926 0.39517 0.0
C1363 C 0.43782 0.98769 0.35516 0.0
C1364 C 0.45051 0.0173 0.30231 0.0
H1365 H 0.53117 0.13906 0.23706 0.0
H1366 H 0.51953 0.10909 0.27491 0.0
H1367 H 0.45923 0.02344 0.26052 0.0
H1368 H 0.403 0.01065 0.40536 0.0
H1369 H 0.42672 0.03856 0.36762 0.0
H1370 H 0.46893 0.06615 0.34856 0.0
C1371 C 0.50699 0.10252 0.2574 0.0
C1372 C 0.46143 0.03304 0.27959 0.0
C1373 C 0.5138 0.11965 0.23556 0.0
C1374 C 0.41277 0.00396 0.3917 0.0
C1375 C 0.42657 0.02011 0.37006 0.0
C1376 C 0.46655 0.05652 0.32947 0.0
C1377 C 0.48389 0.07759 0.25695 0.0
C1378 C 0.47459 0.06074 0.28142 0.0
C1379 C 0.4391 0.01212 0.35134 0.0
C1380 C 0.45256 0.02883 0.3275 0.0
H1381 H 0.4627 0.08028 0.19427 0.0
H1382 H 0.45062 0.05078 0.23234 0.0
H1383 H 0.48703 0.09347 0.30902 0.0
H1384 H 0.42305 0.95264 0.37885 0.0
H1385 H 0.44755 0.98104 0.34142 0.0
C1386 C 0.68283 0.11027 0.61814 0.0
C1387 C 0.68063 0.1326 0.6123 0.0
C1388 C 0.67056 0.09486 0.64065 0.0
C1389 C 0.66074 0.08141 0.69996 0.0
H1390 H 0.58673 0.05228 0.71746 0.0
C1391 C 0.61872 0.03005 0.80046 0.0
C1392 C 0.59713 0.00421 0.79835 0.0
C1393 C 0.62672 0.04718 0.77857 0.0
C1394 C 0.60745 0.0604 0.71283 0.0
H1395 H 0.66264 0.1554 0.62504 0.0
H1396 H 0.64068 0.12794 0.6642 0.0
H1397 H 0.60472 0.07865 0.67661 0.0
H1398 H 0.56596 0.97689 0.77195 0.0
H1399 H 0.57974 0.00707 0.73389 0.0
H1400 H 0.66365 0.06336 0.73599 0.0
C1401 C 0.65219 0.12267 0.65133 0.0
C1402 C 0.61773 0.07553 0.68957 0.0
C1403 C 0.66483 0.13841 0.62896 0.0
C1404 C 0.58273 -0.00342 0.77429 0.0
C1405 C 0.59055 0.01389 0.75248 0.0
C1406 C 0.65061 0.06674 0.72335 0.0
C1407 C 0.65546 0.10111 0.65772 0.0
C1408 C 0.64442 0.08589 0.68276 0.0
C1409 C 0.61313 0.03906 0.75415 0.0
C1410 C 0.62382 0.05588 0.72996 0.0
H1411 H 0.69481 0.10515 0.60583 0.0
H1412 H 0.67318 0.07817 0.64495 0.0
H1413 H 0.68143 0.08934 0.69532 0.0
H1414 H 0.6303 0.03666 0.81862 0.0
H1415 H 0.64403 0.06658 0.7805 0.0
C1416 C 0.11069 0.65919 0.77125 0.0
C1417 C 0.10137 0.66043 0.79684 0.0
C1418 C 0.09354 0.64977 0.74942 0.0
C1419 C 0.02451 0.61145 0.72758 0.0
H1420 H 0.04758 0.66192 0.66945 0.0
C1421 C 0.95465 0.60294 0.64104 0.0
C1422 C 0.96559 0.61318 0.61585 0.0
C1423 C 0.97092 0.60602 0.66287 0.0
C1424 C 0.04093 0.64722 0.68511 0.0
H1425 H 0.06615 0.65076 0.81966 0.0
H1426 H 0.0361 0.63377 0.78144 0.0
H1427 H 0.07606 0.67059 0.70787 0.0
H1428 H 0.0021 0.63338 0.59348 0.0
H1429 H 0.03037 0.63762 0.63101 0.0
H1430 H 0.98956 0.58776 0.70466 0.0
C1431 C 0.05682 0.64043 0.77841 0.0
C1432 C 0.0573 0.65233 0.70728 0.0
C1433 C 0.07407 0.6502 0.80029 0.0
C1434 C 0.99308 0.62558 0.61272 0.0
C1435 C 0.00932 0.62819 0.63438 0.0
C1436 C 0.00825 0.60606 0.70513 0.0
C1437 C 0.06656 0.64098 0.75262 0.0
C1438 C 0.04924 0.6346 0.72881 0.0
C1439 C -0.00143 0.61901 0.65997 0.0
C1440 C 0.01616 0.62397 0.68359 0.0
H1441 H 0.13151 0.66676 0.76772 0.0
H1442 H 0.10152 0.6501 0.72982 0.0
H1443 H 0.01787 0.59738 0.74387 0.0
H1444 H 0.93353 0.59343 0.64416 0.0
H1445 H 0.96179 0.59896 0.68219 0.0
C1446 C 0.50665 0.42262 0.64142 0.0
C1447 C 0.49366 0.42109 0.61726 0.0
C1448 C 0.50418 0.43593 0.66346 0.0
C1449 C 0.4876 0.48619 0.6839 0.0
H1450 H 0.46415 0.44658 0.75 0.0
C1451 C 0.44205 0.51629 0.76947 0.0
C1452 C 0.44375 0.50923 0.79595 0.0
C1453 C 0.45234 0.50859 0.74837 0.0
C1454 C 0.47128 0.45829 0.73198 0.0
H1455 H 0.46877 0.43333 0.59707 0.0
H1456 H 0.46495 0.45703 0.63542 0.0
H1457 H 0.47462 0.42783 0.71178 0.0
H1458 H 0.45923 0.48995 0.82105 0.0
H1459 H 0.47818 0.47749 0.78442 0.0
H1460 H 0.48463 0.51682 0.70399 0.0
C1461 C 0.47686 0.44773 0.63731 0.0
C1462 C 0.47714 0.4474 0.70998 0.0
C1463 C 0.47895 0.43403 0.6154 0.0
C1464 C 0.45736 0.49555 0.8009 0.0
C1465 C 0.46801 0.48817 0.77979 0.0
C1466 C 0.48215 0.4973 0.70603 0.0
C1467 C 0.48907 0.44843 0.66171 0.0
C1468 C 0.48493 0.46103 0.68558 0.0
C1469 C 0.465 0.49392 0.75312 0.0
C1470 C 0.47341 0.48331 0.73028 0.0
H1471 H 0.51807 0.41282 0.64361 0.0
H1472 H 0.51394 0.4363 0.68198 0.0
H1473 H 0.49388 0.49728 0.66542 0.0
H1474 H 0.43157 0.52666 0.76479 0.0
H1475 H 0.44921 0.51316 0.72823 0.0
C1476 C 0.12014 0.31824 0.86211 0.0
C1477 C 0.10291 0.32514 0.84963 0.0
C1478 C 0.14735 0.33539 0.86129 0.0
C1479 C 0.1997 0.40331 0.84495 0.0
H1480 H 0.23729 0.36835 0.8204 0.0
C1481 C 0.30705 0.46357 0.81167 0.0
C1482 C 0.32397 0.45651 0.82453 0.0
C1483 C 0.27982 0.4464 0.81181 0.0
C1484 C 0.22707 0.37835 0.82734 0.0
H1485 H 0.10065 0.35669 0.8292 0.0
H1486 H 0.14802 0.38646 0.82779 0.0
H1487 H 0.19049 0.34217 0.83128 0.0
H1488 H 0.32579 0.42468 0.84488 0.0
H1489 H 0.2784 0.39489 0.84514 0.0
H1490 H 0.23628 0.43948 0.84105 0.0
C1491 C 0.14053 0.36774 0.838 0.0
C1492 C 0.20036 0.36339 0.83378 0.0
C1493 C 0.11333 0.3506 0.83878 0.0
C1494 C 0.31332 0.43089 0.83503 0.0
C1495 C 0.28612 0.41374 0.83514 0.0
C1496 C 0.22641 0.41827 0.8385 0.0
C1497 C 0.15781 0.35978 0.84814 0.0
C1498 C 0.18643 0.37571 0.84272 0.0
C1499 C 0.26907 0.42184 0.82467 0.0
C1500 C 0.24036 0.40594 0.82965 0.0
H1501 H 0.11282 0.2989 0.8709 0.0
H1502 H 0.16025 0.32906 0.86986 0.0
H1503 H 0.18949 0.41331 0.85193 0.0
H1504 H 0.31456 0.48304 0.80312 0.0
H1505 H 0.26711 0.45286 0.803 0.0
C1506 C 0.79334 0.87531 0.85803 0.0
C1507 C 0.78378 0.84849 0.85281 0.0
C1508 C 0.77625 0.88529 0.8585 0.0
C1509 C 0.7376 0.90356 0.86542 0.0
H1510 H 0.67683 0.87077 0.81857 0.0
C1511 C 0.66547 0.94193 0.86075 0.0
C1512 C 0.64998 0.93788 0.83791 0.0
C1513 C 0.68183 0.93122 0.86255 0.0
C1514 C 0.69404 0.88057 0.83129 0.0
H1515 H 0.74861 0.8106 0.84626 0.0
H1516 H 0.71827 0.82767 0.84922 0.0
H1517 H 0.7042 0.85089 0.82382 0.0
H1518 H 0.64027 0.92037 0.7985 0.0
H1519 H 0.67091 0.90346 0.80055 0.0
H1520 H 0.72929 0.9346 0.87084 0.0
C1521 C 0.73919 0.84131 0.85149 0.0
C1522 C 0.70941 0.86871 0.83491 0.0
C1523 C 0.75649 0.83141 0.85021 0.0
C1524 C 0.65217 0.92391 0.81625 0.0
C1525 C 0.66941 0.91389 0.81769 0.0
C1526 C 0.72294 0.91592 0.86098 0.0
C1527 C 0.74898 0.86859 0.85463 0.0
C1528 C 0.73142 0.88005 0.85207 0.0
C1529 C 0.68402 0.9169 0.84116 0.0
C1530 C 0.70071 0.90448 0.84414 0.0
H1531 H 0.81432 0.88912 0.85973 0.0
H1532 H 0.78488 0.90644 0.86038 0.0
H1533 H 0.75394 0.91273 0.87929 0.0
H1534 H 0.66374 0.95197 0.87815 0.0
H1535 H 0.69183 0.93334 0.88134 0.0
C1536 C 0.18966 0.79732 0.81193 0.0
C1537 C 0.16611 0.78046 0.82559 0.0
C1538 C 0.20005 0.82458 0.8125 0.0
C1539 C 0.18638 0.87779 0.83088 0.0
H1540 H 0.25998 0.91447 0.8524 0.0
C1541 C 0.23622 0.98502 0.86526 0.0
C1542 C 0.25992 0.00189 0.85186 0.0
C1543 C 0.22575 0.95775 0.86459 0.0
C1544 C 0.23948 0.90453 0.84628 0.0
H1545 H 0.13346 0.77888 0.84777 0.0
H1546 H 0.15162 0.82634 0.84871 0.0
H1547 H 0.23824 0.86769 0.84123 0.0
H1548 H 0.29272 0.00345 0.82999 0.0
H1549 H 0.27442 0.956 0.82885 0.0
H1550 H 0.18762 0.91463 0.83592 0.0
C1551 C 0.16218 0.81853 0.8378 0.0
C1552 C 0.22708 0.87781 0.83967 0.0
C1553 C 0.15179 0.79127 0.83728 0.0
C1554 C 0.27429 0.99106 0.84031 0.0
C1555 C 0.26381 0.9638 0.83966 0.0
C1556 C 0.19879 0.90452 0.83748 0.0
C1557 C 0.18702 0.83547 0.82655 0.0
C1558 C 0.20041 0.86418 0.83188 0.0
C1559 C 0.23885 0.94685 0.85067 0.0
C1560 C 0.22545 0.91815 0.84528 0.0
H1561 H 0.20111 0.7897 0.80247 0.0
H1562 H 0.21894 0.83721 0.80307 0.0
H1563 H 0.16587 0.86784 0.82479 0.0
H1564 H 0.22473 0.99265 0.87463 0.0
H1565 H 0.20677 0.94513 0.87387 0.0
C1566 C 0.45181 0.29238 0.61241 0.0
C1567 C 0.44096 0.30429 0.59638 0.0
C1568 C 0.43595 0.27209 0.62993 0.0
C1569 C 0.36749 0.22221 0.6456 0.0
H1570 H 0.39529 0.22799 0.71721 0.0
C1571 C 0.30439 0.15324 0.73032 0.0
C1572 C 0.31641 0.1425 0.74636 0.0
C1573 C 0.31939 0.17386 0.71272 0.0
C1574 C 0.38737 0.22598 0.69725 0.0
H1575 H 0.40465 0.30334 0.58532 0.0
H1576 H 0.37687 0.26777 0.61611 0.0
H1577 H 0.42149 0.26121 0.68384 0.0
H1578 H 0.35382 0.14567 0.75709 0.0
H1579 H 0.37997 0.18155 0.72616 0.0
H1580 H 0.33343 0.18686 0.65897 0.0
C1581 C 0.39771 0.27422 0.61499 0.0
C1582 C 0.40235 0.24497 0.67814 0.0
C1583 C 0.41363 0.29459 0.59739 0.0
C1584 C 0.34393 0.1535 0.74508 0.0
C1585 C 0.35893 0.17411 0.7274 0.0
C1586 C 0.3525 0.20318 0.66472 0.0
C1587 C 0.40887 0.26321 0.63185 0.0
C1588 C 0.39264 0.24318 0.65209 0.0
C1589 C 0.34674 0.18419 0.71073 0.0
C1590 C 0.36234 0.20482 0.69071 0.0
H1591 H 0.47273 0.29909 0.61191 0.0
H1592 H 0.44497 0.26355 0.64225 0.0
H1593 H 0.35963 0.22023 0.62561 0.0
H1594 H 0.28327 0.14545 0.73098 0.0
H1595 H 0.30952 0.18158 0.70051 0.0
C1596 C 0.80638 0.22335 0.61524 0.0
C1597 C 0.79659 0.20171 0.5977 0.0
C1598 C 0.82694 0.2286 0.63276 0.0
C1599 C 0.87946 0.24286 0.65807 0.0
H1600 H 0.87554 0.1839 0.69735 0.0
C1601 C 0.95007 0.21975 0.72907 0.0
C1602 C 0.96069 0.24197 0.7459 0.0
C1603 C 0.92926 0.2144 0.71188 0.0
C1604 C 0.87702 0.20054 0.68638 0.0
H1605 H 0.80129 0.16905 0.5843 0.0
H1606 H 0.8374 0.17837 0.61492 0.0
H1607 H 0.84198 0.17595 0.66399 0.0
H1608 H 0.95699 0.27545 0.75851 0.0
H1609 H 0.92036 0.26586 0.72862 0.0
H1610 H 0.91455 0.26745 0.68034 0.0
C1611 C 0.82886 0.19105 0.61523 0.0
C1612 C 0.85787 0.19597 0.66724 0.0
C1613 C 0.80833 0.18585 0.59757 0.0
C1614 C 0.94939 0.25824 0.74575 0.0
C1615 C 0.92853 0.25286 0.72849 0.0
C1616 C 0.89864 0.24743 0.67717 0.0
C1617 C 0.83815 0.2123 0.63318 0.0
C1618 C 0.8589 0.21709 0.65291 0.0
C1619 C 0.91852 0.23111 0.71111 0.0
C1620 C 0.89763 0.22631 0.69152 0.0
H1621 H 0.7979 0.23608 0.61581 0.0
H1622 H 0.83354 0.24499 0.64652 0.0
H1623 H 0.8809 0.25948 0.64711 0.0
H1624 H 0.9582 0.20672 0.72868 0.0
H1625 H 0.92216 0.19763 0.69856 0.0
C1626 C 0.88322 0.79682 0.72917 0.0
C1627 C 0.86008 0.7856 0.74468 0.0
C1628 C 0.88781 0.78146 0.71114 0.0
C1629 C 0.86841 0.71313 0.69364 0.0
H1630 H 0.89414 0.743 0.62338 0.0
C1631 C 0.87426 0.65102 0.60845 0.0
C1632 C 0.89795 0.66241 0.59382 0.0
C1633 C 0.86879 0.66631 0.62571 0.0
C1634 C 0.88716 0.7345 0.64297 0.0
H1635 H 0.82405 0.74918 0.75402 0.0
H1636 H 0.83206 0.72233 0.72231 0.0
H1637 H 0.88674 0.76878 0.65694 0.0
H1638 H 0.9339 0.69909 0.58495 0.0
H1639 H 0.92433 0.72582 0.6153 0.0
H1640 H 0.8689 0.67888 0.67971 0.0
C1641 C 0.84668 0.74304 0.72429 0.0
C1642 C 0.88296 0.74925 0.6622 0.0
C1643 C 0.84208 0.75843 0.74242 0.0
C1644 C 0.91548 0.68971 0.59591 0.0
C1645 C 0.90998 0.70503 0.61326 0.0
C1646 C 0.8726 0.69839 0.67442 0.0
C1647 C 0.86938 0.75453 0.70815 0.0
C1648 C 0.87362 0.73874 0.68776 0.0
C1649 C 0.88685 0.69333 0.62876 0.0
C1650 C 0.88203 0.70893 0.6489 0.0
H1651 H 0.8977 0.81763 0.7306 0.0
H1652 H 0.90576 0.79074 0.69939 0.0
H1653 H 0.86153 0.70466 0.71327 0.0
H1654 H 0.86013 0.63011 0.60707 0.0
H1655 H 0.85054 0.65688 0.63697 0.0
C1656 C 0.98042 0.76697 0.16537 0.0
C1657 C 0.99153 0.79316 0.1564 0.0
C1658 C 0.95318 0.75015 0.16491 0.0
C1659 C 0.89387 0.75543 0.16969 0.0
H1660 H 0.85773 0.67953 0.16038 0.0
C1661 C 0.78065 0.68692 0.17113 0.0
C1662 C 0.77074 0.66147 0.18187 0.0
C1663 C 0.80778 0.70435 0.16992 0.0
C1664 C 0.86767 0.70068 0.16341 0.0
H1665 H 0.98293 0.82123 0.13706 0.0
H1666 H 0.93537 0.7916 0.13585 0.0
H1667 H 0.90438 0.7059 0.14905 0.0
H1668 H 0.78149 0.63555 0.2025 0.0
H1669 H 0.8288 0.66619 0.20064 0.0
H1670 H 0.85707 0.75014 0.18401 0.0
C1671 C 0.94775 0.7844 0.14394 0.0
C1672 C 0.89429 0.71577 0.15674 0.0
C1673 C 0.97504 0.80127 0.14439 0.0
C1674 C 0.78841 0.65488 0.19385 0.0
C1675 C 0.81554 0.67231 0.19255 0.0
C1676 C 0.8672 0.74033 0.17628 0.0
C1677 C 0.93652 0.75913 0.15535 0.0
C1678 C 0.90772 0.74328 0.15997 0.0
C1679 C 0.82546 0.69667 0.17946 0.0
C1680 C 0.85392 0.7128 0.17342 0.0
H1681 H 0.99256 0.75997 0.1745 0.0
H1682 H 0.94513 0.73077 0.17383 0.0
H1683 H 0.90382 0.77654 0.17293 0.0
H1684 H 0.76759 0.69275 0.16195 0.0
H1685 H 0.81489 0.72308 0.15982 0.0
C1686 C 0.34187 0.28705 0.17054 0.0
C1687 C 0.3163 0.27098 0.16024 0.0
C1688 C 0.35942 0.27755 0.17229 0.0
C1689 C 0.35601 0.21433 0.18135 0.0
H1690 H 0.4317 0.25376 0.17044 0.0
C1691 C 0.42182 0.16761 0.1798 0.0
C1692 C 0.44825 0.18288 0.18801 0.0
C1693 C 0.40511 0.17811 0.18039 0.0
C1694 C 0.41064 0.24269 0.17409 0.0
H1695 H 0.29033 0.23355 0.1408 0.0
H1696 H 0.32115 0.21725 0.1436 0.0
H1697 H 0.40517 0.27376 0.15873 0.0
H1698 H 0.47695 0.22003 0.20618 0.0
H1699 H 0.4475 0.23812 0.20763 0.0
H1700 H 0.3614 0.18326 0.19671 0.0
C1701 C 0.32726 0.23688 0.15098 0.0
C1702 C 0.39547 0.25406 0.16714 0.0
C1703 C 0.30972 0.24637 0.14914 0.0
C1704 C 0.45677 0.2078 0.19947 0.0
C1705 C 0.44001 0.21831 0.20004 0.0
C1706 C 0.37117 0.203 0.18839 0.0
C1707 C 0.35174 0.25188 0.16373 0.0
C1708 C 0.36798 0.23986 0.17043 0.0
C1709 C 0.41445 0.20404 0.18932 0.0
C1710 C 0.39862 0.21696 0.18461 0.0
H1711 H 0.34772 0.30622 0.17904 0.0
H1712 H 0.37824 0.2896 0.18209 0.0
H1713 H 0.33491 0.20318 0.18474 0.0
H1714 H 0.41453 0.14823 0.17112 0.0
H1715 H 0.3855 0.16659 0.172 0.0
C1716 C 0.85539 0.12922 0.13796 0.0
C1717 C 0.83177 0.11227 0.15146 0.0
C1718 C 0.86521 0.15639 0.13783 0.0
C1719 C 0.85041 0.20921 0.15455 0.0
H1720 H 0.92307 0.24598 0.17913 0.0
C1721 C 0.89839 0.31564 0.19194 0.0
C1722 C 0.92294 0.33301 0.18024 0.0
C1723 C 0.88782 0.2884 0.19004 0.0
C1724 C 0.90285 0.23604 0.17211 0.0
H1725 H 0.7983 0.1103 0.17233 0.0
H1726 H 0.81551 0.15761 0.17209 0.0
H1727 H 0.90212 0.19943 0.16733 0.0
H1728 H 0.95681 0.33533 0.15989 0.0
H1729 H 0.93834 0.28795 0.1566 0.0
H1730 H 0.85114 0.24584 0.1594 0.0
C1731 C 0.82656 0.14995 0.16187 0.0
C1732 C 0.89091 0.20945 0.16514 0.0
C1733 C 0.81672 0.12277 0.16204 0.0
C1734 C 0.93776 0.32257 0.16894 0.0
C1735 C 0.92718 0.29534 0.16706 0.0
C1736 C 0.86238 0.23584 0.16148 0.0
C1737 C 0.85154 0.16708 0.15103 0.0
C1738 C 0.86456 0.19576 0.15632 0.0
C1739 C 0.90164 0.27802 0.17656 0.0
C1740 C 0.88869 0.24949 0.17041 0.0
H1741 H 0.86735 0.12182 0.12926 0.0
H1742 H 0.88423 0.16916 0.1287 0.0
H1743 H 0.83013 0.19917 0.1477 0.0
H1744 H 0.8865 0.32295 0.201 0.0
H1745 H 0.86835 0.27546 0.19815 0.0
C1746 C 0.75323 0.96606 0.26563 0.0
C1747 C 0.78089 0.97827 0.26464 0.0
C1748 C 0.73889 0.94617 0.28422 0.0
C1749 C 0.74215 0.89748 0.32808 0.0
H1750 H 0.6872 0.90143 0.36743 0.0
C1751 C 0.68516 0.82577 0.41428 0.0
C1752 C 0.65762 0.81488 0.41365 0.0
C1753 C 0.70143 0.84702 0.39772 0.0
C1754 C 0.70236 0.89996 0.35649 0.0
H1755 H 0.81505 0.9784 0.28183 0.0
H1756 H 0.78994 0.94372 0.3142 0.0
H1757 H 0.71271 0.93488 0.33398 0.0
H1758 H 0.62572 0.81843 0.39576 0.0
H1759 H 0.65396 0.85507 0.36689 0.0
H1760 H 0.73155 0.86234 0.35034 0.0
C1761 C 0.7794 0.94955 0.30057 0.0
C1762 C 0.71691 0.91906 0.3373 0.0
C1763 C 0.79377 0.96951 0.28208 0.0
C1764 C 0.64682 0.82622 0.39674 0.0
C1765 C 0.66305 0.8474 0.38028 0.0
C1766 C 0.72753 0.8783 0.34723 0.0
C1767 C 0.75187 0.93797 0.30211 0.0
C1768 C 0.73678 0.91787 0.32273 0.0
C1769 C 0.69048 0.85783 0.38033 0.0
C1770 C 0.7073 0.87921 0.36145 0.0
H1771 H 0.74265 0.97224 0.25248 0.0
H1772 H 0.71761 0.93727 0.2847 0.0
H1773 H 0.75723 0.89598 0.317 0.0
H1774 H 0.69414 0.81756 0.42711 0.0
H1775 H 0.72256 0.85488 0.39841 0.0
C1776 C 0.1402 0.85149 0.26634 0.0
C1777 C 0.12998 0.86869 0.26594 0.0
C1778 C 0.16022 0.85562 0.28427 0.0
C1779 C 0.18867 0.88779 0.34849 0.0
H1780 H 0.24824 0.88032 0.32722 0.0
C1781 C 0.2817 0.92293 0.41362 0.0
C1782 C 0.29369 0.9073 0.41385 0.0
C1783 C 0.26051 0.91677 0.39655 0.0
C1784 C 0.23153 0.88212 0.33356 0.0
H1785 H 0.13362 0.90437 0.28335 0.0
H1786 H 0.16857 0.91161 0.31426 0.0
H1787 H 0.21427 0.87276 0.29455 0.0
H1788 H 0.29191 0.87214 0.39728 0.0
H1789 H 0.25484 0.86133 0.36785 0.0
H1790 H 0.20597 0.89726 0.38746 0.0
C1791 C 0.16073 0.89464 0.30112 0.0
C1792 C 0.21212 0.87783 0.31484 0.0
C1793 C 0.1408 0.89055 0.28325 0.0
C1794 C 0.28337 0.88482 0.39741 0.0
C1795 C 0.2622 0.87866 0.38042 0.0
C1796 C 0.20806 0.89205 0.36722 0.0
C1797 C 0.17036 0.87702 0.30211 0.0
C1798 C 0.19061 0.88082 0.32207 0.0
C1799 C 0.25087 0.89483 0.37945 0.0
C1800 C 0.22976 0.8894 0.35991 0.0
H1801 H 0.1323 0.83444 0.25331 0.0
H1802 H 0.16721 0.84166 0.28468 0.0
H1803 H 0.17205 0.88979 0.35474 0.0
H1804 H 0.28916 0.94039 0.426 0.0
H1805 H 0.25229 0.92972 0.3961 0.0
C1806 C 0.17748 0.42573 0.41172 0.0
C1807 C 0.19445 0.45321 0.41256 0.0
C1808 C 0.18221 0.41028 0.39381 0.0
C1809 C 0.23381 0.41032 0.35154 0.0
H1810 H 0.17451 0.35805 0.31025 0.0
C1811 C 0.24835 0.35704 0.26247 0.0
C1812 C 0.23169 0.3295 0.26192 0.0
C1813 C 0.24311 0.37253 0.27982 0.0
C1814 C 0.19122 0.37245 0.32176 0.0
H1815 H 0.23028 0.48583 0.39595 0.0
H1816 H 0.23831 0.45892 0.36478 0.0
H1817 H 0.16727 0.3835 0.34436 0.0
H1818 H 0.19573 0.29683 0.27824 0.0
H1819 H 0.18682 0.32382 0.3085 0.0
H1820 H 0.25775 0.39927 0.329 0.0
C1821 C 0.22144 0.4493 0.37799 0.0
C1822 C 0.18706 0.38692 0.34135 0.0
C1823 C 0.21671 0.46474 0.39579 0.0
C1824 C 0.20908 0.31796 0.27823 0.0
C1825 C 0.20385 0.33344 0.29549 0.0
C1826 C 0.23796 0.39586 0.33197 0.0
C1827 C 0.20405 0.42198 0.37654 0.0
C1828 C 0.20832 0.40601 0.35641 0.0
C1829 C 0.22109 0.3608 0.29684 0.0
C1830 C 0.21672 0.37678 0.31688 0.0
H1831 H 0.16019 0.41622 0.42439 0.0
H1832 H 0.16868 0.38918 0.39336 0.0
H1833 H 0.25051 0.42469 0.36307 0.0
H1834 H 0.26586 0.36659 0.25011 0.0
H1835 H 0.25651 0.39365 0.28016 0.0
C1836 C 0.97737 0.49126 0.06604 0.0
C1837 C 0.98813 0.47966 0.08265 0.0
C1838 C -0.0064 0.51241 0.04953 0.0
C1839 C 0.05765 0.54225 0.0157 0.0
H1840 H 0.04387 0.59949 1.00235 0.0
C1841 C 0.12493 0.63304 0.95071 0.0
C1842 C 0.11246 0.6423 0.93335 0.0
C1843 C 0.11022 0.61303 0.96903 0.0
C1844 C 0.04776 0.58347 0.00569 0.0
H1845 H 0.0246 0.48197 0.09568 0.0
H1846 H 0.05301 0.51922 0.06694 0.0
H1847 H 0.01823 0.56639 0.03607 0.0
H1848 H 0.07457 0.63712 0.92109 0.0
H1849 H 0.0489 0.60204 0.95304 0.0
H1850 H 0.08718 0.55937 0.98526 0.0
C1851 C 0.03191 0.51157 0.06647 0.0
C1852 C 0.03315 0.56458 0.02504 0.0
C1853 C 0.01564 0.49036 0.08307 0.0
C1854 C 0.08483 0.63051 0.93419 0.0
C1855 C 0.07014 0.61057 0.95263 0.0
C1856 C 0.07233 0.5612 0.9964 0.0
C1857 C 0.02098 0.52253 0.04924 0.0
C1858 C 0.03777 0.54363 0.03008 0.0
C1859 C 0.08274 0.60191 0.97047 0.0
C1860 C 0.06736 0.58186 0.99105 0.0
H1861 H 0.95628 0.48363 0.06524 0.0
H1862 H 0.98453 0.52021 0.03629 0.0
H1863 H 0.0614 0.52611 0.01884 0.0
H1864 H 0.14617 0.64158 0.95055 0.0
H1865 H 0.12048 0.60684 0.98264 0.0
C1866 C 0.47525 0.55917 0.94812 0.0
C1867 C 0.46436 0.537 0.93123 0.0
C1868 C 0.49555 0.56382 0.96575 0.0
C1869 C 0.54735 0.54742 0.97956 0.0
H1870 H 0.54183 0.56784 0.05194 0.0
C1871 C 0.61768 0.55322 0.06268 0.0
C1872 C 0.62832 0.5757 0.07914 0.0
C1873 C 0.59686 0.54762 0.04539 0.0
C1874 C 0.54376 0.56238 0.03175 0.0
H1875 H 0.46693 0.50276 0.91908 0.0
H1876 H 0.50239 0.51089 0.95004 0.0
H1877 H 0.50784 0.56031 0.0193 0.0
H1878 H 0.62474 0.60945 0.09093 0.0
H1879 H 0.58844 0.59971 0.06055 0.0
H1880 H 0.58333 0.54958 0.99198 0.0
C1881 C 0.49522 0.52472 0.94947 0.0
C1882 C 0.52433 0.5581 0.01306 0.0
C1883 C 0.47486 0.52004 0.93178 0.0
C1884 C 0.61702 0.59196 0.07855 0.0
C1885 C 0.59617 0.58635 0.0612 0.0
C1886 C 0.56679 0.55171 0.99825 0.0
C1887 C 0.50546 0.54643 0.96692 0.0
C1888 C 0.52599 0.55068 0.98674 0.0
C1889 C 0.58617 0.56435 0.04415 0.0
C1890 C 0.56522 0.55929 0.02452 0.0
H1891 H 0.46784 0.57281 0.94808 0.0
H1892 H 0.50342 0.58101 0.97858 0.0
H1893 H 0.54931 0.54203 0.95935 0.0
H1894 H 0.6257 0.54009 0.06278 0.0
H1895 H 0.58922 0.53025 0.03285 0.0
C1896 C 0.54318 0.12894 0.06027 0.0
C1897 C 0.52152 0.1184 0.07782 0.0
C1898 C 0.54659 0.11266 0.04244 0.0
C1899 C 0.52832 0.04405 0.02922 0.0
H1900 H 0.54712 0.069 0.95631 0.0
C1901 C 0.53565 0.97955 0.94711 0.0
C1902 C 0.55836 0.99196 0.931 0.0
C1903 C 0.5291 0.99441 0.96385 0.0
C1904 C 0.54203 0.06186 0.97662 0.0
H1905 H 0.48693 0.08228 0.09096 0.0
H1906 H 0.49296 0.05381 0.05965 0.0
H1907 H 0.54023 0.09588 0.98892 0.0
H1908 H 0.59143 0.02983 0.91914 0.0
H1909 H 0.58008 0.0557 0.94858 0.0
H1910 H 0.53045 0.01019 0.01702 0.0
C1911 C 0.50728 0.07472 0.05984 0.0
C1912 C 0.53813 0.07723 0.99528 0.0
C1913 C 0.50383 0.09104 0.07773 0.0
C1914 C 0.57381 0.01963 0.93128 0.0
C1915 C 0.56725 0.03448 0.94807 0.0
C1916 C 0.53226 0.02868 0.01056 0.0
C1917 C 0.52845 0.08548 0.04174 0.0
C1918 C 0.53152 0.0686 0.02182 0.0
C1919 C 0.54509 0.02197 0.96484 0.0
C1920 C 0.53939 0.03756 0.98415 0.0
H1921 H 0.55736 0.14989 0.05994 0.0
H1922 H 0.5634 0.12139 0.02908 0.0
H1923 H 0.52347 0.03705 0.0496 0.0
H1924 H 0.52314 0.95828 0.9472 0.0
H1925 H 0.51165 0.9843 0.97624 0.0
C1926 C 0.64686 0.09694 0.49929 0.0
C1927 C 0.65838 0.12263 0.4888 0.0
C1928 C 0.61958 0.08031 0.49862 0.0
C1929 C 0.56083 0.08674 0.49961 0.0
H1930 H 0.52384 0.0104 0.49511 0.0
C1931 C 0.44734 0.01949 0.50215 0.0
C1932 C 0.43721 0.99469 0.51452 0.0
C1933 C 0.47453 0.03659 0.50053 0.0
C1934 C 0.534 0.03171 0.49678 0.0
H1935 H 0.65051 0.1498 0.4665 0.0
H1936 H 0.60291 0.1205 0.46496 0.0
H1937 H 0.57059 0.03557 0.48387 0.0
H1938 H 0.44765 0.96985 0.53767 0.0
H1939 H 0.49502 -0.0001 0.53508 0.0
H1940 H 0.52417 0.08282 0.51255 0.0
C1941 C 0.61499 0.11359 0.4744 0.0
C1942 C 0.5607 0.04609 0.49015 0.0
C1943 C 0.6423 0.13025 0.47507 0.0
C1944 C 0.45473 0.98862 0.52768 0.0
C1945 C 0.4819 0.0057 0.52599 0.0
C1946 C 0.53409 0.07234 0.50617 0.0
C1947 C 0.60331 0.089 0.48732 0.0
C1948 C 0.57444 0.07375 0.4917 0.0
C1949 C 0.49203 0.02922 0.51131 0.0
C1950 C 0.52051 0.04468 0.50507 0.0
H1951 H 0.65867 0.09029 0.50976 0.0
H1952 H 0.61119 0.06145 0.50871 0.0
H1953 H 0.57101 0.10802 0.50153 0.0
H1954 H 0.43443 0.02495 0.492 0.0
H1955 H 0.48181 0.05468 0.4892 0.0
C1956 C 0.97901 0.57924 0.4839 0.0
C1957 C 0.98492 0.60288 0.49687 0.0
C1958 C -0.00376 0.56938 0.48573 0.0
C1959 C 0.06326 0.58494 0.50511 0.0
H1960 H 0.02764 0.51152 0.5272 0.0
C1961 C 0.12279 0.53623 0.53538 0.0
C1962 C 0.11545 0.51259 0.52165 0.0
C1963 C 0.1058 0.54645 0.53618 0.0
C1964 C 0.03784 0.53199 0.52098 0.0
H1965 H 0.01495 0.63611 0.51942 0.0
H1966 H 0.04496 0.61888 0.52247 0.0
H1967 H 0.00178 0.53245 0.51643 0.0
H1968 H 0.08331 0.47964 0.50074 0.0
H1969 H 0.0539 0.49754 0.50202 0.0
H1970 H 0.09931 0.58442 0.50931 0.0
C1971 C 0.02688 0.60787 0.51114 0.0
C1972 C 0.02306 0.54392 0.51462 0.0
C1973 C 0.00963 0.61773 0.50938 0.0
C1974 C 0.08974 0.49805 0.51123 0.0
C1975 C 0.07279 0.50828 0.51203 0.0
C1976 C 0.07805 0.57299 0.51139 0.0
C1977 C 0.01977 0.58305 0.50038 0.0
C1978 C 0.03562 0.57044 0.50642 0.0
C1979 C 0.08115 0.53317 0.52338 0.0
C1980 C 0.06548 0.54634 0.51923 0.0
H1981 H 0.96029 0.5674 0.47385 0.0
H1982 H 0.99062 0.55048 0.47668 0.0
H1983 H 0.07342 0.60537 0.49875 0.0
H1984 H 0.14232 0.54783 0.54391 0.0
H1985 H 0.11247 0.56539 0.54566 0.0
C1986 C 0.56933 0.65444 0.5293 0.0
C1987 C 0.59334 0.67126 0.51639 0.0
C1988 C 0.55928 0.62722 0.52954 0.0
C1989 C 0.57509 0.57461 0.51563 0.0
H1990 H 0.50203 0.5354 0.49253 0.0
C1991 C 0.52848 0.46674 0.48373 0.0
C1992 C 0.50451 0.44958 0.49655 0.0
C1993 C 0.53843 0.49393 0.48413 0.0
C1994 C 0.52238 0.54607 0.49912 0.0
H1995 H 0.62689 0.67286 0.49604 0.0
H1996 H 0.6093 0.6255 0.49642 0.0
H1997 H 0.52239 0.5825 0.50175 0.0
H1998 H 0.47097 0.4474 0.51746 0.0
H1999 H 0.48838 0.49477 0.51811 0.0
H2000 H 0.5751 0.53819 0.51289 0.0
C2001 C 0.59817 0.6333 0.50623 0.0
C2002 C 0.53399 0.57297 0.5046 0.0
C2003 C 0.60822 0.6605 0.50597 0.0
C2004 C 0.48959 0.46003 0.50758 0.0
C2005 C 0.49954 0.48722 0.50792 0.0
C2006 C 0.56348 0.54772 0.51012 0.0
C2007 C 0.5731 0.61634 0.517 0.0
C2008 C 0.56047 0.58751 0.5129 0.0
C2009 C 0.52455 0.50446 0.4972 0.0
C2010 C 0.53704 0.53321 0.50174 0.0
H2011 H 0.55743 0.66203 0.53776 0.0
H2012 H 0.54017 0.6146 0.53855 0.0
H2013 H 0.59545 0.58527 0.52219 0.0
H2014 H 0.54042 0.45939 0.47486 0.0
H2015 H 0.55751 0.50679 0.47517 0.0
loop_
_geom_bond_atom_site_label_1
_geom_bond_atom_site_label_2
_geom_bond_distance
_geom_bond_site_symmetry_2
_ccdc_geom_bond_type
Sc0 O3 2.025 . S
Sc0 O10 2.105 . S
Sc0 O13 2.105 . S
Sc0 O16 2.105 . S
Sc0 O19 2.105 . S
Sc1 O3 2.025 . S
Sc1 O11 2.105 . S
Sc1 O15 2.105 . S
Sc1 O17 2.105 . S
Sc1 O21 2.105 . S
Sc2 O3 2.025 . S
Sc2 O12 2.105 . S
Sc2 O14 2.105 . S
Sc2 O18 2.105 . S
Sc2 O20 2.105 . S
O3 Sc0 2.025 . S
O3 Sc1 2.025 . S
O3 Sc2 2.025 . S
C4 O10 1.268 . S
C4 O20 1.268 . S
C5 O11 1.268 . S
C5 O19 1.268 . S
C6 O12 1.268 . S
C6 O21 1.268 . S
C7 O13 1.268 . S
C7 O17 1.268 . S
C8 O14 1.268 . S
C8 O16 1.268 . S
C9 O15 1.268 . S
C9 O18 1.268 . S
O10 Sc0 2.105 . S
O10 C4 1.268 . S
O11 Sc1 2.105 . S
O11 C5 1.268 . S
O12 Sc2 2.105 . S
O12 C6 1.268 . S
O13 Sc0 2.105 . S
O13 C7 1.268 . S
O14 Sc2 2.105 . S
O14 C8 1.268 . S
O15 Sc1 2.105 . S
O15 C9 1.268 . S
O16 Sc0 2.105 . S
O16 C8 1.268 . S
O17 Sc1 2.105 . S
O17 C7 1.268 . S
O18 Sc2 2.105 . S
O18 C9 1.268 . S
O19 Sc0 2.105 . S
O19 C5 1.268 . S
O20 Sc2 2.105 . S
O20 C4 1.268 . S
O21 Sc1 2.105 . S
O21 C6 1.268 . S
Sc22 O25 2.025 . S
Sc22 O32 2.105 . S
Sc22 O35 2.105 . S
Sc22 O38 2.105 . S
Sc22 O41 2.105 . S
Sc23 O25 2.025 . S
Sc23 O33 2.105 . S
Sc23 O37 2.105 . S
Sc23 O39 2.105 . S
Sc23 O43 2.105 . S
Sc24 O25 2.025 . S
Sc24 O34 2.105 . S
Sc24 O36 2.105 . S
Sc24 O40 2.105 . S
Sc24 O42 2.105 . S
O25 Sc22 2.025 . S
O25 Sc23 2.025 . S
O25 Sc24 2.025 . S
C26 O32 1.268 . S
C26 O42 1.268 . S
C27 O33 1.268 . S
C27 O41 1.268 . S
C28 O34 1.268 . S
C28 O43 1.268 . S
C29 O35 1.268 . S
C29 O39 1.268 . S
C30 O36 1.268 . S
C30 O38 1.268 . S
C31 O37 1.268 . S
C31 O40 1.268 . S
O32 Sc22 2.105 . S
O32 C26 1.268 . S
O33 Sc23 2.105 . S
O33 C27 1.268 . S
O34 Sc24 2.105 . S
O34 C28 1.268 . S
O35 Sc22 2.105 . S
O35 C29 1.268 . S
O36 Sc24 2.105 . S
O36 C30 1.268 . S
O37 Sc23 2.105 . S
O37 C31 1.268 . S
O38 Sc22 2.105 . S
O38 C30 1.268 . S
O39 Sc23 2.105 . S
O39 C29 1.268 . S
O40 Sc24 2.105 . S
O40 C31 1.268 . S
O41 Sc22 2.105 . S
O41 C27 1.268 . S
O42 Sc24 2.105 . S
O42 C26 1.268 . S
O43 Sc23 2.105 . S
O43 C28 1.268 . S
Sc44 O47 2.025 . S
Sc44 O54 2.105 . S
Sc44 O57 2.105 . S
Sc44 O60 2.105 . S
Sc44 O63 2.105 . S
Sc45 O47 2.025 . S
Sc45 O55 2.105 . S
Sc45 O59 2.105 . S
Sc45 O61 2.105 . S
Sc45 O65 2.105 . S
Sc46 O47 2.025 . S
Sc46 O56 2.105 . S
Sc46 O58 2.105 . S
Sc46 O62 2.105 . S
Sc46 O64 2.105 . S
O47 Sc44 2.025 . S
O47 Sc45 2.025 . S
O47 Sc46 2.025 . S
C48 O54 1.268 . S
C48 O64 1.268 . S
C49 O55 1.268 . S
C49 O63 1.268 . S
C50 O56 1.268 . S
C50 O65 1.268 . S
C51 O57 1.268 . S
C51 O61 1.268 . S
C52 O58 1.268 . S
C52 O60 1.268 . S
C53 O59 1.268 . S
C53 O62 1.268 . S
O54 Sc44 2.105 . S
O54 C48 1.268 . S
O55 Sc45 2.105 . S
O55 C49 1.268 . S
O56 Sc46 2.105 . S
O56 C50 1.268 . S
O57 Sc44 2.105 . S
O57 C51 1.268 . S
O58 Sc46 2.105 . S
O58 C52 1.268 . S
O59 Sc45 2.105 . S
O59 C53 1.268 . S
O60 Sc44 2.105 . S
O60 C52 1.268 . S
O61 Sc45 2.105 . S
O61 C51 1.268 . S
O62 Sc46 2.105 . S
O62 C53 1.268 . S
O63 Sc44 2.105 . S
O63 C49 1.268 . S
O64 Sc46 2.105 . S
O64 C48 1.268 . S
O65 Sc45 2.105 . S
O65 C50 1.268 . S
Sc66 O69 2.025 . S
Sc66 O76 2.105 . S
Sc66 O79 2.105 . S
Sc66 O82 2.105 . S
Sc66 O85 2.105 . S
Sc67 O69 2.025 . S
Sc67 O77 2.105 . S
Sc67 O81 2.105 . S
Sc67 O83 2.105 . S
Sc67 O87 2.105 . S
Sc68 O69 2.025 . S
Sc68 O78 2.105 . S
Sc68 O80 2.105 . S
Sc68 O84 2.105 . S
Sc68 O86 2.105 . S
O69 Sc66 2.025 . S
O69 Sc67 2.025 . S
O69 Sc68 2.025 . S
C70 O76 1.268 . S
C70 O86 1.268 . S
C71 O77 1.268 . S
C71 O85 1.268 . S
C72 O78 1.268 . S
C72 O87 1.268 . S
C73 O79 1.268 . S
C73 O83 1.268 . S
C74 O80 1.268 . S
C74 O82 1.268 . S
C75 O81 1.268 . S
C75 O84 1.268 . S
O76 Sc66 2.105 . S
O76 C70 1.268 . S
O77 Sc67 2.105 . S
O77 C71 1.268 . S
O78 Sc68 2.105 . S
O78 C72 1.268 . S
O79 Sc66 2.105 . S
O79 C73 1.268 . S
O80 Sc68 2.105 . S
O80 C74 1.268 . S
O81 Sc67 2.105 . S
O81 C75 1.268 . S
O82 Sc66 2.105 . S
O82 C74 1.268 . S
O83 Sc67 2.105 . S
O83 C73 1.268 . S
O84 Sc68 2.105 . S
O84 C75 1.268 . S
O85 Sc66 2.105 . S
O85 C71 1.268 . S
O86 Sc68 2.105 . S
O86 C70 1.268 . S
O87 Sc67 2.105 . S
O87 C72 1.268 . S
Sc88 O91 2.025 . S
Sc88 O98 2.105 . S
Sc88 O101 2.105 . S
Sc88 O104 2.105 . S
Sc88 O107 2.105 . S
Sc89 O91 2.025 . S
Sc89 O99 2.105 . S
Sc89 O103 2.105 . S
Sc89 O105 2.105 . S
Sc89 O109 2.105 . S
Sc90 O91 2.025 . S
Sc90 O100 2.105 . S
Sc90 O102 2.105 . S
Sc90 O106 2.105 . S
Sc90 O108 2.105 . S
O91 Sc88 2.025 . S
O91 Sc89 2.025 . S
O91 Sc90 2.025 . S
C92 O98 1.268 . S
C92 O108 1.268 . S
C93 O99 1.268 . S
C93 O107 1.268 . S
C94 O100 1.268 . S
C94 O109 1.268 . S
C95 O101 1.268 . S
C95 O105 1.268 . S
C96 O102 1.268 . S
C96 O104 1.268 . S
C97 O103 1.268 . S
C97 O106 1.268 . S
O98 Sc88 2.105 . S
O98 C92 1.268 . S
O99 Sc89 2.105 . S
O99 C93 1.268 . S
O100 Sc90 2.105 . S
O100 C94 1.268 . S
O101 Sc88 2.105 . S
O101 C95 1.268 . S
O102 Sc90 2.105 . S
O102 C96 1.268 . S
O103 Sc89 2.105 . S
O103 C97 1.268 . S
O104 Sc88 2.105 . S
O104 C96 1.268 . S
O105 Sc89 2.105 . S
O105 C95 1.268 . S
O106 Sc90 2.105 . S
O106 C97 1.268 . S
O107 Sc88 2.105 . S
O107 C93 1.268 . S
O108 Sc90 2.105 . S
O108 C92 1.268 . S
O109 Sc89 2.105 . S
O109 C94 1.268 . S
Sc110 O113 2.025 . S
Sc110 O120 2.105 . S
Sc110 O123 2.105 . S
Sc110 O126 2.105 . S
Sc110 O129 2.105 . S
Sc111 O113 2.025 . S
Sc111 O121 2.105 . S
Sc111 O125 2.105 . S
Sc111 O127 2.105 . S
Sc111 O131 2.105 . S
Sc112 O113 2.025 . S
Sc112 O122 2.105 . S
Sc112 O124 2.105 . S
Sc112 O128 2.105 . S
Sc112 O130 2.105 . S
O113 Sc110 2.025 . S
O113 Sc111 2.025 . S
O113 Sc112 2.025 . S
C114 O120 1.268 . S
C114 O130 1.268 . S
C115 O121 1.268 . S
C115 O129 1.268 . S
C116 O122 1.268 . S
C116 O131 1.268 . S
C117 O123 1.268 . S
C117 O127 1.268 . S
C118 O124 1.268 . S
C118 O126 1.268 . S
C119 O125 1.268 . S
C119 O128 1.268 . S
O120 Sc110 2.105 . S
O120 C114 1.268 . S
O121 Sc111 2.105 . S
O121 C115 1.268 . S
O122 Sc112 2.105 . S
O122 C116 1.268 . S
O123 Sc110 2.105 . S
O123 C117 1.268 . S
O124 Sc112 2.105 . S
O124 C118 1.268 . S
O125 Sc111 2.105 . S
O125 C119 1.268 . S
O126 Sc110 2.105 . S
O126 C118 1.268 . S
O127 Sc111 2.105 . S
O127 C117 1.268 . S
O128 Sc112 2.105 . S
O128 C119 1.268 . S
O129 Sc110 2.105 . S
O129 C115 1.268 . S
O130 Sc112 2.105 . S
O130 C114 1.268 . S
O131 Sc111 2.105 . S
O131 C116 1.268 . S
Sc132 O135 2.025 . S
Sc132 O142 2.105 . S
Sc132 O145 2.105 . S
Sc132 O148 2.105 . S
Sc132 O151 2.105 . S
Sc133 O135 2.025 . S
Sc133 O143 2.105 . S
Sc133 O147 2.105 . S
Sc133 O149 2.105 . S
Sc133 O153 2.105 . S
Sc134 O135 2.025 . S
Sc134 O144 2.105 . S
Sc134 O146 2.105 . S
Sc134 O150 2.105 . S
Sc134 O152 2.105 . S
O135 Sc132 2.025 . S
O135 Sc133 2.025 . S
O135 Sc134 2.025 . S
C136 O142 1.268 . S
C136 O152 1.268 . S
C137 O143 1.268 . S
C137 O151 1.268 . S
C138 O144 1.268 . S
C138 O153 1.268 . S
C139 O145 1.268 . S
C139 O149 1.268 . S
C140 O146 1.268 . S
C140 O148 1.268 . S
C141 O147 1.268 . S
C141 O150 1.268 . S
O142 Sc132 2.105 . S
O142 C136 1.268 . S
O143 Sc133 2.105 . S
O143 C137 1.268 . S
O144 Sc134 2.105 . S
O144 C138 1.268 . S
O145 Sc132 2.105 . S
O145 C139 1.268 . S
O146 Sc134 2.105 . S
O146 C140 1.268 . S
O147 Sc133 2.105 . S
O147 C141 1.268 . S
O148 Sc132 2.105 . S
O148 C140 1.268 . S
O149 Sc133 2.105 . S
O149 C139 1.268 . S
O150 Sc134 2.105 . S
O150 C141 1.268 . S
O151 Sc132 2.105 . S
O151 C137 1.268 . S
O152 Sc134 2.105 . S
O152 C136 1.268 . S
O153 Sc133 2.105 . S
O153 C138 1.268 . S
Sc154 O157 2.025 . S
Sc154 O164 2.105 . S
Sc154 O167 2.105 . S
Sc154 O170 2.105 . S
Sc154 O173 2.105 . S
Sc155 O157 2.025 . S
Sc155 O165 2.105 . S
Sc155 O169 2.105 . S
Sc155 O171 2.105 . S
Sc155 O175 2.105 . S
Sc156 O157 2.025 . S
Sc156 O166 2.105 . S
Sc156 O168 2.105 . S
Sc156 O172 2.105 . S
Sc156 O174 2.105 . S
O157 Sc154 2.025 . S
O157 Sc155 2.025 . S
O157 Sc156 2.025 . S
C158 O164 1.268 . S
C158 O174 1.268 . S
C159 O165 1.268 . S
C159 O173 1.268 . S
C160 O166 1.268 . S
C160 O175 1.268 . S
C161 O167 1.268 . S
C161 O171 1.268 . S
C162 O168 1.268 . S
C162 O170 1.268 . S
C163 O169 1.268 . S
C163 O172 1.268 . S
O164 Sc154 2.105 . S
O164 C158 1.268 . S
O165 Sc155 2.105 . S
O165 C159 1.268 . S
O166 Sc156 2.105 . S
O166 C160 1.268 . S
O167 Sc154 2.105 . S
O167 C161 1.268 . S
O168 Sc156 2.105 . S
O168 C162 1.268 . S
O169 Sc155 2.105 . S
O169 C163 1.268 . S
O170 Sc154 2.105 . S
O170 C162 1.268 . S
O171 Sc155 2.105 . S
O171 C161 1.268 . S
O172 Sc156 2.105 . S
O172 C163 1.268 . S
O173 Sc154 2.105 . S
O173 C159 1.268 . S
O174 Sc156 2.105 . S
O174 C158 1.268 . S
O175 Sc155 2.105 . S
O175 C160 1.268 . S
Sc176 O179 2.025 . S
Sc176 O186 2.105 . S
Sc176 O189 2.105 . S
Sc176 O192 2.105 . S
Sc176 O195 2.105 . S
Sc177 O179 2.025 . S
Sc177 O187 2.105 . S
Sc177 O191 2.105 . S
Sc177 O193 2.105 . S
Sc177 O197 2.105 . S
Sc178 O179 2.025 . S
Sc178 O188 2.105 . S
Sc178 O190 2.105 . S
Sc178 O194 2.105 . S
Sc178 O196 2.105 . S
O179 Sc176 2.025 . S
O179 Sc177 2.025 . S
O179 Sc178 2.025 . S
C180 O186 1.268 . S
C180 O196 1.268 . S
C181 O187 1.268 . S
C181 O195 1.268 . S
C182 O188 1.268 . S
C182 O197 1.268 . S
C183 O189 1.268 . S
C183 O193 1.268 . S
C184 O190 1.268 . S
C184 O192 1.268 . S
C185 O191 1.268 . S
C185 O194 1.268 . S
O186 Sc176 2.105 . S
O186 C180 1.268 . S
O187 Sc177 2.105 . S
O187 C181 1.268 . S
O188 Sc178 2.105 . S
O188 C182 1.268 . S
O189 Sc176 2.105 . S
O189 C183 1.268 . S
O190 Sc178 2.105 . S
O190 C184 1.268 . S
O191 Sc177 2.105 . S
O191 C185 1.268 . S
O192 Sc176 2.105 . S
O192 C184 1.268 . S
O193 Sc177 2.105 . S
O193 C183 1.268 . S
O194 Sc178 2.105 . S
O194 C185 1.268 . S
O195 Sc176 2.105 . S
O195 C181 1.268 . S
O196 Sc178 2.105 . S
O196 C180 1.268 . S
O197 Sc177 2.105 . S
O197 C182 1.268 . S
Sc198 O201 2.025 . S
Sc198 O208 2.105 . S
Sc198 O211 2.105 . S
Sc198 O214 2.105 . S
Sc198 O217 2.105 . S
Sc199 O201 2.025 . S
Sc199 O209 2.105 . S
Sc199 O213 2.105 . S
Sc199 O215 2.105 . S
Sc199 O219 2.105 . S
Sc200 O201 2.025 . S
Sc200 O210 2.105 . S
Sc200 O212 2.105 . S
Sc200 O216 2.105 . S
Sc200 O218 2.105 . S
O201 Sc198 2.025 . S
O201 Sc199 2.025 . S
O201 Sc200 2.025 . S
C202 O208 1.268 . S
C202 O218 1.268 . S
C203 O209 1.268 . S
C203 O217 1.268 . S
C204 O210 1.268 . S
C204 O219 1.268 . S
C205 O211 1.268 . S
C205 O215 1.268 . S
C206 O212 1.268 . S
C206 O214 1.268 . S
C207 O213 1.268 . S
C207 O216 1.268 . S
O208 Sc198 2.105 . S
O208 C202 1.268 . S
O209 Sc199 2.105 . S
O209 C203 1.268 . S
O210 Sc200 2.105 . S
O210 C204 1.268 . S
O211 Sc198 2.105 . S
O211 C205 1.268 . S
O212 Sc200 2.105 . S
O212 C206 1.268 . S
O213 Sc199 2.105 . S
O213 C207 1.268 . S
O214 Sc198 2.105 . S
O214 C206 1.268 . S
O215 Sc199 2.105 . S
O215 C205 1.268 . S
O216 Sc200 2.105 . S
O216 C207 1.268 . S
O217 Sc198 2.105 . S
O217 C203 1.268 . S
O218 Sc200 2.105 . S
O218 C202 1.268 . S
O219 Sc199 2.105 . S
O219 C204 1.268 . S
Sc220 O223 2.025 . S
Sc220 O230 2.105 . S
Sc220 O233 2.105 . S
Sc220 O236 2.105 . S
Sc220 O239 2.105 . S
Sc221 O223 2.025 . S
Sc221 O231 2.105 . S
Sc221 O235 2.105 . S
Sc221 O237 2.105 . S
Sc221 O241 2.105 . S
Sc222 O223 2.025 . S
Sc222 O232 2.105 . S
Sc222 O234 2.105 . S
Sc222 O238 2.105 . S
Sc222 O240 2.105 . S
O223 Sc220 2.025 . S
O223 Sc221 2.025 . S
O223 Sc222 2.025 . S
C224 O230 1.268 . S
C224 O240 1.268 . S
C225 O231 1.268 . S
C225 O239 1.268 . S
C226 O232 1.268 . S
C226 O241 1.268 . S
C227 O233 1.268 . S
C227 O237 1.268 . S
C228 O234 1.268 . S
C228 O236 1.268 . S
C229 O235 1.268 . S
C229 O238 1.268 . S
O230 Sc220 2.105 . S
O230 C224 1.268 . S
O231 Sc221 2.105 . S
O231 C225 1.268 . S
O232 Sc222 2.105 . S
O232 C226 1.268 . S
O233 Sc220 2.105 . S
O233 C227 1.268 . S
O234 Sc222 2.105 . S
O234 C228 1.268 . S
O235 Sc221 2.105 . S
O235 C229 1.268 . S
O236 Sc220 2.105 . S
O236 C228 1.268 . S
O237 Sc221 2.105 . S
O237 C227 1.268 . S
O238 Sc222 2.105 . S
O238 C229 1.268 . S
O239 Sc220 2.105 . S
O239 C225 1.268 . S
O240 Sc222 2.105 . S
O240 C224 1.268 . S
O241 Sc221 2.105 . S
O241 C226 1.268 . S
Sc242 O245 2.025 . S
Sc242 O252 2.105 . S
Sc242 O255 2.105 . S
Sc242 O258 2.105 . S
Sc242 O261 2.105 . S
Sc243 O245 2.025 . S
Sc243 O253 2.105 . S
Sc243 O257 2.105 . S
Sc243 O259 2.105 . S
Sc243 O263 2.105 . S
Sc244 O245 2.025 . S
Sc244 O254 2.105 . S
Sc244 O256 2.105 . S
Sc244 O260 2.105 . S
Sc244 O262 2.105 . S
O245 Sc242 2.025 . S
O245 Sc243 2.025 . S
O245 Sc244 2.025 . S
C246 O252 1.268 . S
C246 O262 1.268 . S
C247 O253 1.268 . S
C247 O261 1.268 . S
C248 O254 1.268 . S
C248 O263 1.268 . S
C249 O255 1.268 . S
C249 O259 1.268 . S
C250 O256 1.268 . S
C250 O258 1.268 . S
C251 O257 1.268 . S
C251 O260 1.268 . S
O252 Sc242 2.105 . S
O252 C246 1.268 . S
O253 Sc243 2.105 . S
O253 C247 1.268 . S
O254 Sc244 2.105 . S
O254 C248 1.268 . S
O255 Sc242 2.105 . S
O255 C249 1.268 . S
O256 Sc244 2.105 . S
O256 C250 1.268 . S
O257 Sc243 2.105 . S
O257 C251 1.268 . S
O258 Sc242 2.105 . S
O258 C250 1.268 . S
O259 Sc243 2.105 . S
O259 C249 1.268 . S
O260 Sc244 2.105 . S
O260 C251 1.268 . S
O261 Sc242 2.105 . S
O261 C247 1.268 . S
O262 Sc244 2.105 . S
O262 C246 1.268 . S
O263 Sc243 2.105 . S
O263 C248 1.268 . S
Sc264 O267 2.025 . S
Sc264 O274 2.105 . S
Sc264 O277 2.105 . S
Sc264 O280 2.105 . S
Sc264 O283 2.105 . S
Sc265 O267 2.025 . S
Sc265 O275 2.105 . S
Sc265 O279 2.105 . S
Sc265 O281 2.105 . S
Sc265 O285 2.105 . S
Sc266 O267 2.025 . S
Sc266 O276 2.105 . S
Sc266 O278 2.105 . S
Sc266 O282 2.105 . S
Sc266 O284 2.105 . S
O267 Sc264 2.025 . S
O267 Sc265 2.025 . S
O267 Sc266 2.025 . S
C268 O274 1.268 . S
C268 O284 1.268 . S
C269 O275 1.268 . S
C269 O283 1.268 . S
C270 O276 1.268 . S
C270 O285 1.268 . S
C271 O277 1.268 . S
C271 O281 1.268 . S
C272 O278 1.268 . S
C272 O280 1.268 . S
C273 O279 1.268 . S
C273 O282 1.268 . S
O274 Sc264 2.105 . S
O274 C268 1.268 . S
O275 Sc265 2.105 . S
O275 C269 1.268 . S
O276 Sc266 2.105 . S
O276 C270 1.268 . S
O277 Sc264 2.105 . S
O277 C271 1.268 . S
O278 Sc266 2.105 . S
O278 C272 1.268 . S
O279 Sc265 2.105 . S
O279 C273 1.268 . S
O280 Sc264 2.105 . S
O280 C272 1.268 . S
O281 Sc265 2.105 . S
O281 C271 1.268 . S
O282 Sc266 2.105 . S
O282 C273 1.268 . S
O283 Sc264 2.105 . S
O283 C269 1.268 . S
O284 Sc266 2.105 . S
O284 C268 1.268 . S
O285 Sc265 2.105 . S
O285 C270 1.268 . S
Sc286 O289 2.025 . S
Sc286 O296 2.105 . S
Sc286 O299 2.105 . S
Sc286 O302 2.105 . S
Sc286 O305 2.105 . S
Sc287 O289 2.025 . S
Sc287 O297 2.105 . S
Sc287 O301 2.105 . S
Sc287 O303 2.105 . S
Sc287 O307 2.105 . S
Sc288 O289 2.025 . S
Sc288 O298 2.105 . S
Sc288 O300 2.105 . S
Sc288 O304 2.105 . S
Sc288 O306 2.105 . S
O289 Sc286 2.025 . S
O289 Sc287 2.025 . S
O289 Sc288 2.025 . S
C290 O296 1.268 . S
C290 O306 1.268 . S
C291 O297 1.268 . S
C291 O305 1.268 . S
C292 O298 1.268 . S
C292 O307 1.268 . S
C293 O299 1.268 . S
C293 O303 1.268 . S
C294 O300 1.268 . S
C294 O302 1.268 . S
C295 O301 1.268 . S
C295 O304 1.268 . S
O296 Sc286 2.105 . S
O296 C290 1.268 . S
O297 Sc287 2.105 . S
O297 C291 1.268 . S
O298 Sc288 2.105 . S
O298 C292 1.268 . S
O299 Sc286 2.105 . S
O299 C293 1.268 . S
O300 Sc288 2.105 . S
O300 C294 1.268 . S
O301 Sc287 2.105 . S
O301 C295 1.268 . S
O302 Sc286 2.105 . S
O302 C294 1.268 . S
O303 Sc287 2.105 . S
O303 C293 1.268 . S
O304 Sc288 2.105 . S
O304 C295 1.268 . S
O305 Sc286 2.105 . S
O305 C291 1.268 . S
O306 Sc288 2.105 . S
O306 C290 1.268 . S
O307 Sc287 2.105 . S
O307 C292 1.268 . S
Sc308 O311 2.025 . S
Sc308 O318 2.105 . S
Sc308 O321 2.105 . S
Sc308 O324 2.105 . S
Sc308 O327 2.105 . S
Sc309 O311 2.025 . S
Sc309 O319 2.105 . S
Sc309 O323 2.105 . S
Sc309 O325 2.105 . S
Sc309 O329 2.105 . S
Sc310 O311 2.025 . S
Sc310 O320 2.105 . S
Sc310 O322 2.105 . S
Sc310 O326 2.105 . S
Sc310 O328 2.105 . S
O311 Sc308 2.025 . S
O311 Sc309 2.025 . S
O311 Sc310 2.025 . S
C312 O318 1.268 . S
C312 O328 1.268 . S
C313 O319 1.268 . S
C313 O327 1.268 . S
C314 O320 1.268 . S
C314 O329 1.268 . S
C315 O321 1.268 . S
C315 O325 1.268 . S
C316 O322 1.268 . S
C316 O324 1.268 . S
C317 O323 1.268 . S
C317 O326 1.268 . S
O318 Sc308 2.105 . S
O318 C312 1.268 . S
O319 Sc309 2.105 . S
O319 C313 1.268 . S
O320 Sc310 2.105 . S
O320 C314 1.268 . S
O321 Sc308 2.105 . S
O321 C315 1.268 . S
O322 Sc310 2.105 . S
O322 C316 1.268 . S
O323 Sc309 2.105 . S
O323 C317 1.268 . S
O324 Sc308 2.105 . S
O324 C316 1.268 . S
O325 Sc309 2.105 . S
O325 C315 1.268 . S
O326 Sc310 2.105 . S
O326 C317 1.268 . S
O327 Sc308 2.105 . S
O327 C313 1.268 . S
O328 Sc310 2.105 . S
O328 C312 1.268 . S
O329 Sc309 2.105 . S
O329 C314 1.268 . S
Sc330 O333 2.025 . S
Sc330 O340 2.105 . S
Sc330 O343 2.105 . S
Sc330 O346 2.105 . S
Sc330 O349 2.105 . S
Sc331 O333 2.025 . S
Sc331 O341 2.105 . S
Sc331 O345 2.105 . S
Sc331 O347 2.105 . S
Sc331 O351 2.105 . S
Sc332 O333 2.025 . S
Sc332 O342 2.105 . S
Sc332 O344 2.105 . S
Sc332 O348 2.105 . S
Sc332 O350 2.105 . S
O333 Sc330 2.025 . S
O333 Sc331 2.025 . S
O333 Sc332 2.025 . S
C334 O340 1.268 . S
C334 O350 1.268 . S
C335 O341 1.268 . S
C335 O349 1.268 . S
C336 O342 1.268 . S
C336 O351 1.268 . S
C337 O343 1.268 . S
C337 O347 1.268 . S
C338 O344 1.268 . S
C338 O346 1.268 . S
C339 O345 1.268 . S
C339 O348 1.268 . S
O340 Sc330 2.105 . S
O340 C334 1.268 . S
O341 Sc331 2.105 . S
O341 C335 1.268 . S
O342 Sc332 2.105 . S
O342 C336 1.268 . S
O343 Sc330 2.105 . S
O343 C337 1.268 . S
O344 Sc332 2.105 . S
O344 C338 1.268 . S
O345 Sc331 2.105 . S
O345 C339 1.268 . S
O346 Sc330 2.105 . S
O346 C338 1.268 . S
O347 Sc331 2.105 . S
O347 C337 1.268 . S
O348 Sc332 2.105 . S
O348 C339 1.268 . S
O349 Sc330 2.105 . S
O349 C335 1.268 . S
O350 Sc332 2.105 . S
O350 C334 1.268 . S
O351 Sc331 2.105 . S
O351 C336 1.268 . S
Sc352 O355 2.025 . S
Sc352 O362 2.105 . S
Sc352 O365 2.105 . S
Sc352 O368 2.105 . S
Sc352 O371 2.105 . S
Sc353 O355 2.025 . S
Sc353 O363 2.105 . S
Sc353 O367 2.105 . S
Sc353 O369 2.105 . S
Sc353 O373 2.105 . S
Sc354 O355 2.025 . S
Sc354 O364 2.105 . S
Sc354 O366 2.105 . S
Sc354 O370 2.105 . S
Sc354 O372 2.105 . S
O355 Sc352 2.025 . S
O355 Sc353 2.025 . S
O355 Sc354 2.025 . S
C356 O362 1.268 . S
C356 O372 1.268 . S
C357 O363 1.268 . S
C357 O371 1.268 . S
C358 O364 1.268 . S
C358 O373 1.268 . S
C359 O365 1.268 . S
C359 O369 1.268 . S
C360 O366 1.268 . S
C360 O368 1.268 . S
C361 O367 1.268 . S
C361 O370 1.268 . S
O362 Sc352 2.105 . S
O362 C356 1.268 . S
O363 Sc353 2.105 . S
O363 C357 1.268 . S
O364 Sc354 2.105 . S
O364 C358 1.268 . S
O365 Sc352 2.105 . S
O365 C359 1.268 . S
O366 Sc354 2.105 . S
O366 C360 1.268 . S
O367 Sc353 2.105 . S
O367 C361 1.268 . S
O368 Sc352 2.105 . S
O368 C360 1.268 . S
O369 Sc353 2.105 . S
O369 C359 1.268 . S
O370 Sc354 2.105 . S
O370 C361 1.268 . S
O371 Sc352 2.105 . S
O371 C357 1.268 . S
O372 Sc354 2.105 . S
O372 C356 1.268 . S
O373 Sc353 2.105 . S
O373 C358 1.268 . S
Sc374 O377 2.025 . S
Sc374 O384 2.105 . S
Sc374 O387 2.105 . S
Sc374 O390 2.105 . S
Sc374 O393 2.105 . S
Sc375 O377 2.025 . S
Sc375 O385 2.105 . S
Sc375 O389 2.105 . S
Sc375 O391 2.105 . S
Sc375 O395 2.105 . S
Sc376 O377 2.025 . S
Sc376 O386 2.105 . S
Sc376 O388 2.105 . S
Sc376 O392 2.105 . S
Sc376 O394 2.105 . S
O377 Sc374 2.025 . S
O377 Sc375 2.025 . S
O377 Sc376 2.025 . S
C378 O384 1.268 . S
C378 O394 1.268 . S
C379 O385 1.268 . S
C379 O393 1.268 . S
C380 O386 1.268 . S
C380 O395 1.268 . S
C381 O387 1.268 . S
C381 O391 1.268 . S
C382 O388 1.268 . S
C382 O390 1.268 . S
C383 O389 1.268 . S
C383 O392 1.268 . S
O384 Sc374 2.105 . S
O384 C378 1.268 . S
O385 Sc375 2.105 . S
O385 C379 1.268 . S
O386 Sc376 2.105 . S
O386 C380 1.268 . S
O387 Sc374 2.105 . S
O387 C381 1.268 . S
O388 Sc376 2.105 . S
O388 C382 1.268 . S
O389 Sc375 2.105 . S
O389 C383 1.268 . S
O390 Sc374 2.105 . S
O390 C382 1.268 . S
O391 Sc375 2.105 . S
O391 C381 1.268 . S
O392 Sc376 2.105 . S
O392 C383 1.268 . S
O393 Sc374 2.105 . S
O393 C379 1.268 . S
O394 Sc376 2.105 . S
O394 C378 1.268 . S
O395 Sc375 2.105 . S
O395 C380 1.268 . S
C396 C397 1.349 . S
C396 C398 1.327 . S
C396 H421 0.950 . S
C397 C396 1.349 . S
C397 C413 1.349 . S
C398 C396 1.327 . S
C398 C417 1.429 . S
C398 H422 0.950 . S
C399 C416 1.574 . S
C399 C418 1.368 . S
C399 H423 0.949 . S
H400 C404 0.949 . S
C401 C402 1.349 . S
C401 C403 1.327 . S
C401 H424 0.950 . S
C402 C401 1.349 . S
C402 C414 1.349 . S
C403 C401 1.327 . S
C403 C419 1.429 . S
C403 H425 0.950 . S
C404 H400 0.949 . S
C404 C412 1.574 . S
C404 C420 1.368 . S
H405 C413 0.950 . S
H406 C411 0.950 . S
H407 C412 0.949 . S
H408 C414 0.950 . S
H409 C415 0.950 . S
H410 C416 0.949 . S
C411 H406 0.950 . S
C411 C413 1.327 . S
C411 C417 1.429 . S
C412 C404 1.574 . S
C412 H407 0.949 . S
C412 C418 1.368 . S
C413 C397 1.349 . S
C413 H405 0.950 . S
C413 C411 1.327 . S
C414 C402 1.349 . S
C414 H408 0.950 . S
C414 C415 1.327 . S
C415 H409 0.950 . S
C415 C414 1.327 . S
C415 C419 1.429 . S
C416 C399 1.574 . S
C416 H410 0.949 . S
C416 C420 1.368 . S
C417 C398 1.429 . S
C417 C411 1.429 . S
C417 C418 1.523 . S
C418 C399 1.368 . S
C418 C412 1.368 . S
C418 C417 1.523 . S
C419 C403 1.429 . S
C419 C415 1.429 . S
C419 C420 1.523 . S
C420 C404 1.368 . S
C420 C416 1.368 . S
C420 C419 1.523 . S
H421 C396 0.950 . S
H422 C398 0.950 . S
H423 C399 0.949 . S
H424 C401 0.950 . S
H425 C403 0.950 . S
C426 C427 1.349 . S
C426 C428 1.327 . S
C426 H451 0.950 . S
C427 C426 1.349 . S
C427 C443 1.349 1_655 S
C428 C426 1.327 . S
C428 C447 1.429 . S
C428 H452 0.950 . S
C429 C446 1.574 . S
C429 C448 1.368 . S
C429 H453 0.949 . S
H430 C434 0.949 . S
C431 C432 1.349 . S
C431 C433 1.327 . S
C431 H454 0.950 . S
C432 C431 1.349 . S
C432 C444 1.349 . S
C433 C431 1.327 . S
C433 C449 1.429 1_565 S
C433 H455 0.950 1_565 S
C434 H430 0.949 . S
C434 C442 1.574 . S
C434 C450 1.368 . S
H435 C443 0.950 . S
H436 C441 0.950 . S
H437 C442 0.949 . S
H438 C444 0.950 . S
H439 C445 0.950 . S
H440 C446 0.949 . S
C441 H436 0.950 . S
C441 C443 1.327 1_655 S
C441 C447 1.429 . S
C442 C434 1.574 . S
C442 H437 0.949 . S
C442 C448 1.368 . S
C443 C427 1.349 1_455 S
C443 H435 0.950 . S
C443 C441 1.327 1_455 S
C444 C432 1.349 . S
C444 H438 0.950 . S
C444 C445 1.327 . S
C445 H439 0.950 . S
C445 C444 1.327 . S
C445 C449 1.429 1_565 S
C446 C429 1.574 . S
C446 H440 0.949 . S
C446 C450 1.368 . S
C447 C428 1.429 . S
C447 C441 1.429 . S
C447 C448 1.523 . S
C448 C429 1.368 . S
C448 C442 1.368 . S
C448 C447 1.523 . S
C449 C433 1.429 1_545 S
C449 C445 1.429 1_545 S
C449 C450 1.523 . S
C450 C434 1.368 . S
C450 C446 1.368 . S
C450 C449 1.523 . S
H451 C426 0.950 . S
H452 C428 0.950 . S
H453 C429 0.949 . S
H454 C431 0.950 . S
H455 C433 0.950 1_545 S
C456 C457 1.349 . S
C456 C458 1.327 . S
C456 H481 0.950 . S
C457 C456 1.349 . S
C457 C473 1.349 . S
C458 C456 1.327 . S
C458 C477 1.429 . S
C458 H482 0.950 . S
C459 C476 1.574 . S
C459 C478 1.368 . S
C459 H483 0.949 . S
H460 C464 0.949 . S
C461 C462 1.349 . S
C461 C463 1.327 1_545 S
C461 H484 0.950 . S
C462 C461 1.349 . S
C462 C474 1.349 1_545 S
C463 C461 1.327 1_565 S
C463 C479 1.429 . S
C463 H485 0.950 . S
C464 H460 0.949 . S
C464 C472 1.574 . S
C464 C480 1.368 . S
H465 C473 0.950 . S
H466 C471 0.950 . S
H467 C472 0.949 . S
H468 C474 0.950 . S
H469 C475 0.950 . S
H470 C476 0.949 . S
C471 H466 0.950 . S
C471 C473 1.327 . S
C471 C477 1.429 . S
C472 C464 1.574 . S
C472 H467 0.949 . S
C472 C478 1.368 . S
C473 C457 1.349 . S
C473 H465 0.950 . S
C473 C471 1.327 . S
C474 C462 1.349 1_565 S
C474 H468 0.950 . S
C474 C475 1.327 . S
C475 H469 0.950 . S
C475 C474 1.327 . S
C475 C479 1.429 . S
C476 C459 1.574 . S
C476 H470 0.949 . S
C476 C480 1.368 . S
C477 C458 1.429 . S
C477 C471 1.429 . S
C477 C478 1.523 1_655 S
C478 C459 1.368 . S
C478 C472 1.368 . S
C478 C477 1.523 1_455 S
C479 C463 1.429 . S
C479 C475 1.429 . S
C479 C480 1.523 . S
C480 C464 1.368 . S
C480 C476 1.368 . S
C480 C479 1.523 . S
H481 C456 0.950 . S
H482 C458 0.950 . S
H483 C459 0.949 . S
H484 C461 0.950 . S
H485 C463 0.950 . S
C486 C487 1.349 1_455 S
C486 C488 1.327 1_455 S
C486 H511 0.950 . S
C487 C486 1.349 1_655 S
C487 C503 1.349 . S
C488 C486 1.327 1_655 S
C488 C507 1.429 . S
C488 H512 0.950 1_655 S
C489 C506 1.574 . S
C489 C508 1.368 . S
C489 H513 0.949 . S
H490 C494 0.949 . S
C491 C492 1.349 1_565 S
C491 C493 1.327 . S
C491 H514 0.950 . S
C492 C491 1.349 1_545 S
C492 C504 1.349 . S
C493 C491 1.327 . S
C493 C509 1.429 . S
C493 H515 0.950 . S
C494 H490 0.949 . S
C494 C502 1.574 . S
C494 C510 1.368 . S
H495 C503 0.950 . S
H496 C501 0.950 . S
H497 C502 0.949 . S
H498 C504 0.950 . S
H499 C505 0.950 . S
H500 C506 0.949 . S
C501 H496 0.950 . S
C501 C503 1.327 . S
C501 C507 1.429 . S
C502 C494 1.574 . S
C502 H497 0.949 . S
C502 C508 1.368 . S
C503 C487 1.349 . S
C503 H495 0.950 . S
C503 C501 1.327 . S
C504 C492 1.349 . S
C504 H498 0.950 . S
C504 C505 1.327 . S
C505 H499 0.950 . S
C505 C504 1.327 . S
C505 C509 1.429 1_545 S
C506 C489 1.574 . S
C506 H500 0.949 . S
C506 C510 1.368 . S
C507 C488 1.429 . S
C507 C501 1.429 . S
C507 C508 1.523 . S
C508 C489 1.368 . S
C508 C502 1.368 . S
C508 C507 1.523 . S
C509 C493 1.429 . S
C509 C505 1.429 1_565 S
C509 C510 1.523 . S
C510 C494 1.368 . S
C510 C506 1.368 . S
C510 C509 1.523 . S
H511 C486 0.950 . S
H512 C488 0.950 1_455 S
H513 C489 0.949 . S
H514 C491 0.950 . S
H515 C493 0.950 . S
C516 C517 1.349 . S
C516 C518 1.327 . S
C516 H541 0.950 . S
C517 C516 1.349 . S
C517 C533 1.349 . S
C518 C516 1.327 . S
C518 C537 1.429 1_565 S
C518 H542 0.950 1_565 S
C519 C536 1.574 . S
C519 C538 1.368 . S
C519 H543 0.949 . S
H520 C524 0.949 . S
C521 C522 1.349 . S
C521 C523 1.327 . S
C521 H544 0.950 . S
C522 C521 1.349 . S
C522 C534 1.349 . S
C523 C521 1.327 . S
C523 C539 1.429 . S
C523 H545 0.950 . S
C524 H520 0.949 . S
C524 C532 1.574 . S
C524 C540 1.368 . S
H525 C533 0.950 . S
H526 C531 0.950 . S
H527 C532 0.949 . S
H528 C534 0.950 . S
H529 C535 0.950 . S
H530 C536 0.949 . S
C531 H526 0.950 . S
C531 C533 1.327 . S
C531 C537 1.429 1_565 S
C532 C524 1.574 . S
C532 H527 0.949 . S
C532 C538 1.368 . S
C533 C517 1.349 . S
C533 H525 0.950 . S
C533 C531 1.327 . S
C534 C522 1.349 . S
C534 H528 0.950 . S
C534 C535 1.327 . S
C535 H529 0.950 . S
C535 C534 1.327 . S
C535 C539 1.429 . S
C536 C519 1.574 . S
C536 H530 0.949 . S
C536 C540 1.368 . S
C537 C518 1.429 1_545 S
C537 C531 1.429 1_545 S
C537 C538 1.523 . S
C538 C519 1.368 . S
C538 C532 1.368 . S
C538 C537 1.523 . S
C539 C523 1.429 . S
C539 C535 1.429 . S
C539 C540 1.523 . S
C540 C524 1.368 . S
C540 C536 1.368 . S
C540 C539 1.523 . S
H541 C516 0.950 . S
H542 C518 0.950 1_545 S
H543 C519 0.949 . S
H544 C521 0.950 . S
H545 C523 0.950 . S
C546 C547 1.349 . S
C546 C548 1.327 . S
C546 H571 0.950 . S
C547 C546 1.349 . S
C547 C563 1.349 . S
C548 C546 1.327 . S
C548 C567 1.429 . S
C548 H572 0.950 . S
C549 C566 1.574 . S
C549 C568 1.368 . S
C549 H573 0.949 . S
H550 C554 0.949 . S
C551 C552 1.349 . S
C551 C553 1.327 . S
C551 H574 0.950 . S
C552 C551 1.349 . S
C552 C564 1.349 . S
C553 C551 1.327 . S
C553 C569 1.429 . S
C553 H575 0.950 . S
C554 H550 0.949 . S
C554 C562 1.574 . S
C554 C570 1.368 . S
H555 C563 0.950 . S
H556 C561 0.950 . S
H557 C562 0.949 . S
H558 C564 0.950 . S
H559 C565 0.950 . S
H560 C566 0.949 . S
C561 H556 0.950 . S
C561 C563 1.327 . S
C561 C567 1.429 . S
C562 C554 1.574 . S
C562 H557 0.949 . S
C562 C568 1.368 . S
C563 C547 1.349 . S
C563 H555 0.950 . S
C563 C561 1.327 . S
C564 C552 1.349 . S
C564 H558 0.950 . S
C564 C565 1.327 . S
C565 H559 0.950 . S
C565 C564 1.327 . S
C565 C569 1.429 . S
C566 C549 1.574 . S
C566 H560 0.949 . S
C566 C570 1.368 . S
C567 C548 1.429 . S
C567 C561 1.429 . S
C567 C568 1.523 . S
C568 C549 1.368 . S
C568 C562 1.368 . S
C568 C567 1.523 . S
C569 C553 1.429 . S
C569 C565 1.429 . S
C569 C570 1.523 1_655 S
C570 C554 1.368 . S
C570 C566 1.368 . S
C570 C569 1.523 1_455 S
H571 C546 0.950 . S
H572 C548 0.950 . S
H573 C549 0.949 . S
H574 C551 0.950 . S
H575 C553 0.950 . S
C576 C577 1.349 . S
C576 C578 1.327 . S
C576 H601 0.950 . S
C577 C576 1.349 . S
C577 C593 1.349 . S
C578 C576 1.327 . S
C578 C597 1.429 . S
C578 H602 0.950 . S
C579 C596 1.574 . S
C579 C598 1.368 . S
C579 H603 0.949 . S
H580 C584 0.949 . S
C581 C582 1.349 . S
C581 C583 1.327 . S
C581 H604 0.950 . S
C582 C581 1.349 . S
C582 C594 1.349 . S
C583 C581 1.327 . S
C583 C599 1.429 . S
C583 H605 0.950 . S
C584 H580 0.949 . S
C584 C592 1.574 . S
C584 C600 1.368 . S
H585 C593 0.950 . S
H586 C591 0.950 . S
H587 C592 0.949 . S
H588 C594 0.950 . S
H589 C595 0.950 . S
H590 C596 0.949 . S
C591 H586 0.950 . S
C591 C593 1.327 . S
C591 C597 1.429 . S
C592 C584 1.574 . S
C592 H587 0.949 . S
C592 C598 1.368 . S
C593 C577 1.349 . S
C593 H585 0.950 . S
C593 C591 1.327 . S
C594 C582 1.349 . S
C594 H588 0.950 . S
C594 C595 1.327 . S
C595 H589 0.950 . S
C595 C594 1.327 . S
C595 C599 1.429 . S
C596 C579 1.574 . S
C596 H590 0.949 . S
C596 C600 1.368 . S
C597 C578 1.429 . S
C597 C591 1.429 . S
C597 C598 1.523 . S
C598 C579 1.368 . S
C598 C592 1.368 . S
C598 C597 1.523 . S
C599 C583 1.429 . S
C599 C595 1.429 . S
C599 C600 1.523 . S
C600 C584 1.368 . S
C600 C596 1.368 . S
C600 C599 1.523 . S
H601 C576 0.950 . S
H602 C578 0.950 . S
H603 C579 0.949 . S
H604 C581 0.950 . S
H605 C583 0.950 . S
C606 C607 1.349 . S
C606 C608 1.327 . S
C606 H631 0.950 . S
C607 C606 1.349 . S
C607 C623 1.349 . S
C608 C606 1.327 . S
C608 C627 1.429 . S
C608 H632 0.950 . S
C609 C626 1.574 . S
C609 C628 1.368 . S
C609 H633 0.949 . S
H610 C614 0.949 . S
C611 C612 1.349 . S
C611 C613 1.327 . S
C611 H634 0.950 . S
C612 C611 1.349 . S
C612 C624 1.349 . S
C613 C611 1.327 . S
C613 C629 1.429 . S
C613 H635 0.950 . S
C614 H610 0.949 . S
C614 C622 1.574 . S
C614 C630 1.368 . S
H615 C623 0.950 . S
H616 C621 0.950 . S
H617 C622 0.949 . S
H618 C624 0.950 . S
H619 C625 0.950 . S
H620 C626 0.949 . S
C621 H616 0.950 . S
C621 C623 1.327 . S
C621 C627 1.429 . S
C622 C614 1.574 . S
C622 H617 0.949 . S
C622 C628 1.368 . S
C623 C607 1.349 . S
C623 H615 0.950 . S
C623 C621 1.327 . S
C624 C612 1.349 . S
C624 H618 0.950 . S
C624 C625 1.327 . S
C625 H619 0.950 . S
C625 C624 1.327 . S
C625 C629 1.429 . S
C626 C609 1.574 . S
C626 H620 0.949 . S
C626 C630 1.368 . S
C627 C608 1.429 . S
C627 C621 1.429 . S
C627 C628 1.523 . S
C628 C609 1.368 . S
C628 C622 1.368 . S
C628 C627 1.523 . S
C629 C613 1.429 . S
C629 C625 1.429 . S
C629 C630 1.523 . S
C630 C614 1.368 . S
C630 C626 1.368 . S
C630 C629 1.523 . S
H631 C606 0.950 . S
H632 C608 0.950 . S
H633 C609 0.949 . S
H634 C611 0.950 . S
H635 C613 0.950 . S
C636 C637 1.349 . S
C636 C638 1.327 . S
C636 H661 0.950 . S
C637 C636 1.349 . S
C637 C653 1.349 . S
C638 C636 1.327 . S
C638 C657 1.429 . S
C638 H662 0.950 . S
C639 C656 1.574 . S
C639 C658 1.368 . S
C639 H663 0.949 . S
H640 C644 0.949 . S
C641 C642 1.349 . S
C641 C643 1.327 . S
C641 H664 0.950 . S
C642 C641 1.349 . S
C642 C654 1.349 . S
C643 C641 1.327 . S
C643 C659 1.429 . S
C643 H665 0.950 . S
C644 H640 0.949 . S
C644 C652 1.574 . S
C644 C660 1.368 . S
H645 C653 0.950 . S
H646 C651 0.950 . S
H647 C652 0.949 . S
H648 C654 0.950 . S
H649 C655 0.950 . S
H650 C656 0.949 . S
C651 H646 0.950 . S
C651 C653 1.327 . S
C651 C657 1.429 . S
C652 C644 1.574 . S
C652 H647 0.949 . S
C652 C658 1.368 . S
C653 C637 1.349 . S
C653 H645 0.950 . S
C653 C651 1.327 . S
C654 C642 1.349 . S
C654 H648 0.950 . S
C654 C655 1.327 . S
C655 H649 0.950 . S
C655 C654 1.327 . S
C655 C659 1.429 . S
C656 C639 1.574 . S
C656 H650 0.949 . S
C656 C660 1.368 . S
C657 C638 1.429 . S
C657 C651 1.429 . S
C657 C658 1.523 . S
C658 C639 1.368 . S
C658 C652 1.368 . S
C658 C657 1.523 . S
C659 C643 1.429 . S
C659 C655 1.429 . S
C659 C660 1.523 . S
C660 C644 1.368 . S
C660 C656 1.368 . S
C660 C659 1.523 . S
H661 C636 0.950 . S
H662 C638 0.950 . S
H663 C639 0.949 . S
H664 C641 0.950 . S
H665 C643 0.950 . S
C666 C667 1.349 . S
C666 C668 1.327 . S
C666 H691 0.950 . S
C667 C666 1.349 . S
C667 C683 1.349 . S
C668 C666 1.327 . S
C668 C687 1.429 . S
C668 H692 0.950 . S
C669 C686 1.574 . S
C669 C688 1.368 . S
C669 H693 0.949 . S
H670 C674 0.949 . S
C671 C672 1.349 . S
C671 C673 1.327 . S
C671 H694 0.950 . S
C672 C671 1.349 . S
C672 C684 1.349 . S
C673 C671 1.327 . S
C673 C689 1.429 . S
C673 H695 0.950 . S
C674 H670 0.949 . S
C674 C682 1.574 . S
C674 C690 1.368 . S
H675 C683 0.950 . S
H676 C681 0.950 . S
H677 C682 0.949 . S
H678 C684 0.950 . S
H679 C685 0.950 . S
H680 C686 0.949 . S
C681 H676 0.950 . S
C681 C683 1.327 . S
C681 C687 1.429 . S
C682 C674 1.574 . S
C682 H677 0.949 . S
C682 C688 1.368 . S
C683 C667 1.349 . S
C683 H675 0.950 . S
C683 C681 1.327 . S
C684 C672 1.349 . S
C684 H678 0.950 . S
C684 C685 1.327 . S
C685 H679 0.950 . S
C685 C684 1.327 . S
C685 C689 1.429 . S
C686 C669 1.574 . S
C686 H680 0.949 . S
C686 C690 1.368 . S
C687 C668 1.429 . S
C687 C681 1.429 . S
C687 C688 1.523 . S
C688 C669 1.368 . S
C688 C682 1.368 . S
C688 C687 1.523 . S
C689 C673 1.429 . S
C689 C685 1.429 . S
C689 C690 1.523 . S
C690 C674 1.368 . S
C690 C686 1.368 . S
C690 C689 1.523 . S
H691 C666 0.950 . S
H692 C668 0.950 . S
H693 C669 0.949 . S
H694 C671 0.950 . S
H695 C673 0.950 . S
C696 C697 1.349 . S
C696 C698 1.327 . S
C696 H721 0.950 . S
C697 C696 1.349 . S
C697 C713 1.349 . S
C698 C696 1.327 . S
C698 C717 1.429 . S
C698 H722 0.950 . S
C699 C716 1.574 . S
C699 C718 1.368 . S
C699 H723 0.949 . S
H700 C704 0.949 . S
C701 C702 1.349 . S
C701 C703 1.327 . S
C701 H724 0.950 . S
C702 C701 1.349 . S
C702 C714 1.349 . S
C703 C701 1.327 . S
C703 C719 1.429 . S
C703 H725 0.950 . S
C704 H700 0.949 . S
C704 C712 1.574 . S
C704 C720 1.368 . S
H705 C713 0.950 . S
H706 C711 0.950 . S
H707 C712 0.949 . S
H708 C714 0.950 . S
H709 C715 0.950 . S
H710 C716 0.949 . S
C711 H706 0.950 . S
C711 C713 1.327 . S
C711 C717 1.429 . S
C712 C704 1.574 . S
C712 H707 0.949 . S
C712 C718 1.368 . S
C713 C697 1.349 . S
C713 H705 0.950 . S
C713 C711 1.327 . S
C714 C702 1.349 . S
C714 H708 0.950 . S
C714 C715 1.327 . S
C715 H709 0.950 . S
C715 C714 1.327 . S
C715 C719 1.429 . S
C716 C699 1.574 . S
C716 H710 0.949 . S
C716 C720 1.368 . S
C717 C698 1.429 . S
C717 C711 1.429 . S
C717 C718 1.523 . S
C718 C699 1.368 . S
C718 C712 1.368 . S
C718 C717 1.523 . S
C719 C703 1.429 . S
C719 C715 1.429 . S
C719 C720 1.523 . S
C720 C704 1.368 . S
C720 C716 1.368 . S
C720 C719 1.523 . S
H721 C696 0.950 . S
H722 C698 0.950 . S
H723 C699 0.949 . S
H724 C701 0.950 . S
H725 C703 0.950 . S
C726 C727 1.349 . S
C726 C728 1.327 . S
C726 H751 0.950 . S
C727 C726 1.349 . S
C727 C743 1.349 . S
C728 C726 1.327 . S
C728 C747 1.429 . S
C728 H752 0.950 . S
C729 C746 1.574 . S
C729 C748 1.368 . S
C729 H753 0.949 . S
H730 C734 0.949 . S
C731 C732 1.349 . S
C731 C733 1.327 . S
C731 H754 0.950 . S
C732 C731 1.349 . S
C732 C744 1.349 . S
C733 C731 1.327 . S
C733 C749 1.429 . S
C733 H755 0.950 . S
C734 H730 0.949 . S
C734 C742 1.574 . S
C734 C750 1.368 . S
H735 C743 0.950 . S
H736 C741 0.950 . S
H737 C742 0.949 . S
H738 C744 0.950 . S
H739 C745 0.950 . S
H740 C746 0.949 . S
C741 H736 0.950 . S
C741 C743 1.327 . S
C741 C747 1.429 . S
C742 C734 1.574 . S
C742 H737 0.949 . S
C742 C748 1.368 . S
C743 C727 1.349 . S
C743 H735 0.950 . S
C743 C741 1.327 . S
C744 C732 1.349 . S
C744 H738 0.950 . S
C744 C745 1.327 . S
C745 H739 0.950 . S
C745 C744 1.327 . S
C745 C749 1.429 . S
C746 C729 1.574 . S
C746 H740 0.949 . S
C746 C750 1.368 . S
C747 C728 1.429 . S
C747 C741 1.429 . S
C747 C748 1.523 . S
C748 C729 1.368 . S
C748 C742 1.368 . S
C748 C747 1.523 . S
C749 C733 1.429 . S
C749 C745 1.429 . S
C749 C750 1.523 . S
C750 C734 1.368 . S
C750 C746 1.368 . S
C750 C749 1.523 . S
H751 C726 0.950 . S
H752 C728 0.950 . S
H753 C729 0.949 . S
H754 C731 0.950 . S
H755 C733 0.950 . S
C756 C757 1.349 . S
C756 C758 1.327 . S
C756 H781 0.950 . S
C757 C756 1.349 . S
C757 C773 1.349 . S
C758 C756 1.327 . S
C758 C777 1.429 . S
C758 H782 0.950 . S
C759 C776 1.574 . S
C759 C778 1.368 . S
C759 H783 0.949 . S
H760 C764 0.949 . S
C761 C762 1.349 . S
C761 C763 1.327 . S
C761 H784 0.950 . S
C762 C761 1.349 . S
C762 C774 1.349 . S
C763 C761 1.327 . S
C763 C779 1.429 . S
C763 H785 0.950 . S
C764 H760 0.949 . S
C764 C772 1.574 . S
C764 C780 1.368 . S
H765 C773 0.950 . S
H766 C771 0.950 . S
H767 C772 0.949 . S
H768 C774 0.950 . S
H769 C775 0.950 . S
H770 C776 0.949 . S
C771 H766 0.950 . S
C771 C773 1.327 . S
C771 C777 1.429 . S
C772 C764 1.574 . S
C772 H767 0.949 . S
C772 C778 1.368 . S
C773 C757 1.349 . S
C773 H765 0.950 . S
C773 C771 1.327 . S
C774 C762 1.349 . S
C774 H768 0.950 . S
C774 C775 1.327 . S
C775 H769 0.950 . S
C775 C774 1.327 . S
C775 C779 1.429 . S
C776 C759 1.574 . S
C776 H770 0.949 . S
C776 C780 1.368 . S
C777 C758 1.429 . S
C777 C771 1.429 . S
C777 C778 1.523 . S
C778 C759 1.368 . S
C778 C772 1.368 . S
C778 C777 1.523 . S
C779 C763 1.429 . S
C779 C775 1.429 . S
C779 C780 1.523 . S
C780 C764 1.368 . S
C780 C776 1.368 . S
C780 C779 1.523 . S
H781 C756 0.950 . S
H782 C758 0.950 . S
H783 C759 0.949 . S
H784 C761 0.950 . S
H785 C763 0.950 . S
C786 C787 1.349 . S
C786 C788 1.327 . S
C786 H811 0.950 . S
C787 C786 1.349 . S
C787 C803 1.349 . S
C788 C786 1.327 . S
C788 C807 1.429 . S
C788 H812 0.950 . S
C789 C806 1.574 . S
C789 C808 1.368 . S
C789 H813 0.949 . S
H790 C794 0.949 . S
C791 C792 1.349 . S
C791 C793 1.327 . S
C791 H814 0.950 . S
C792 C791 1.349 . S
C792 C804 1.349 . S
C793 C791 1.327 . S
C793 C809 1.429 . S
C793 H815 0.950 . S
C794 H790 0.949 . S
C794 C802 1.574 . S
C794 C810 1.368 . S
H795 C803 0.950 . S
H796 C801 0.950 . S
H797 C802 0.949 . S
H798 C804 0.950 . S
H799 C805 0.950 . S
H800 C806 0.949 . S
C801 H796 0.950 . S
C801 C803 1.327 . S
C801 C807 1.429 . S
C802 C794 1.574 . S
C802 H797 0.949 . S
C802 C808 1.368 . S
C803 C787 1.349 . S
C803 H795 0.950 . S
C803 C801 1.327 . S
C804 C792 1.349 . S
C804 H798 0.950 . S
C804 C805 1.327 . S
C805 H799 0.950 . S
C805 C804 1.327 . S
C805 C809 1.429 . S
C806 C789 1.574 . S
C806 H800 0.949 . S
C806 C810 1.368 . S
C807 C788 1.429 . S
C807 C801 1.429 . S
C807 C808 1.523 . S
C808 C789 1.368 . S
C808 C802 1.368 . S
C808 C807 1.523 . S
C809 C793 1.429 . S
C809 C805 1.429 . S
C809 C810 1.523 . S
C810 C794 1.368 . S
C810 C806 1.368 . S
C810 C809 1.523 . S
H811 C786 0.950 . S
H812 C788 0.950 . S
H813 C789 0.949 . S
H814 C791 0.950 . S
H815 C793 0.950 . S
C816 C817 1.349 . S
C816 C818 1.327 . S
C816 H841 0.950 . S
C817 C816 1.349 . S
C817 C833 1.349 . S
C818 C816 1.327 . S
C818 C837 1.429 . S
C818 H842 0.950 . S
C819 C836 1.574 . S
C819 C838 1.368 . S
C819 H843 0.949 . S
H820 C824 0.949 . S
C821 C822 1.349 . S
C821 C823 1.327 . S
C821 H844 0.950 . S
C822 C821 1.349 . S
C822 C834 1.349 . S
C823 C821 1.327 . S
C823 C839 1.429 . S
C823 H845 0.950 . S
C824 H820 0.949 . S
C824 C832 1.574 . S
C824 C840 1.368 . S
H825 C833 0.950 . S
H826 C831 0.950 . S
H827 C832 0.949 . S
H828 C834 0.950 . S
H829 C835 0.950 . S
H830 C836 0.949 . S
C831 H826 0.950 . S
C831 C833 1.327 . S
C831 C837 1.429 . S
C832 C824 1.574 . S
C832 H827 0.949 . S
C832 C838 1.368 . S
C833 C817 1.349 . S
C833 H825 0.950 . S
C833 C831 1.327 . S
C834 C822 1.349 . S
C834 H828 0.950 . S
C834 C835 1.327 . S
C835 H829 0.950 . S
C835 C834 1.327 . S
C835 C839 1.429 . S
C836 C819 1.574 . S
C836 H830 0.949 . S
C836 C840 1.368 . S
C837 C818 1.429 . S
C837 C831 1.429 . S
C837 C838 1.523 . S
C838 C819 1.368 . S
C838 C832 1.368 . S
C838 C837 1.523 . S
C839 C823 1.429 . S
C839 C835 1.429 . S
C839 C840 1.523 . S
C840 C824 1.368 . S
C840 C836 1.368 . S
C840 C839 1.523 . S
H841 C816 0.950 . S
H842 C818 0.950 . S
H843 C819 0.949 . S
H844 C821 0.950 . S
H845 C823 0.950 . S
C846 C847 1.349 . S
C846 C848 1.327 . S
C846 H871 0.950 . S
C847 C846 1.349 . S
C847 C863 1.349 . S
C848 C846 1.327 . S
C848 C867 1.429 . S
C848 H872 0.950 . S
C849 C866 1.574 . S
C849 C868 1.368 . S
C849 H873 0.949 . S
H850 C854 0.949 . S
C851 C852 1.349 . S
C851 C853 1.327 . S
C851 H874 0.950 . S
C852 C851 1.349 . S
C852 C864 1.349 . S
C853 C851 1.327 . S
C853 C869 1.429 . S
C853 H875 0.950 . S
C854 H850 0.949 . S
C854 C862 1.574 . S
C854 C870 1.368 . S
H855 C863 0.950 . S
H856 C861 0.950 . S
H857 C862 0.949 . S
H858 C864 0.950 . S
H859 C865 0.950 . S
H860 C866 0.949 . S
C861 H856 0.950 . S
C861 C863 1.327 . S
C861 C867 1.429 . S
C862 C854 1.574 . S
C862 H857 0.949 . S
C862 C868 1.368 . S
C863 C847 1.349 . S
C863 H855 0.950 . S
C863 C861 1.327 . S
C864 C852 1.349 . S
C864 H858 0.950 . S
C864 C865 1.327 . S
C865 H859 0.950 . S
C865 C864 1.327 . S
C865 C869 1.429 . S
C866 C849 1.574 . S
C866 H860 0.949 . S
C866 C870 1.368 . S
C867 C848 1.429 . S
C867 C861 1.429 . S
C867 C868 1.523 . S
C868 C849 1.368 . S
C868 C862 1.368 . S
C868 C867 1.523 . S
C869 C853 1.429 . S
C869 C865 1.429 . S
C869 C870 1.523 . S
C870 C854 1.368 . S
C870 C866 1.368 . S
C870 C869 1.523 . S
H871 C846 0.950 . S
H872 C848 0.950 . S
H873 C849 0.949 . S
H874 C851 0.950 . S
H875 C853 0.950 . S
C876 C877 1.349 . S
C876 C878 1.327 . S
C876 H901 0.950 . S
C877 C876 1.349 . S
C877 C893 1.349 . S
C878 C876 1.327 . S
C878 C897 1.429 . S
C878 H902 0.950 . S
C879 C896 1.574 . S
C879 C898 1.368 . S
C879 H903 0.949 . S
H880 C884 0.949 . S
C881 C882 1.349 . S
C881 C883 1.327 . S
C881 H904 0.950 . S
C882 C881 1.349 . S
C882 C894 1.349 . S
C883 C881 1.327 . S
C883 C899 1.429 . S
C883 H905 0.950 . S
C884 H880 0.949 . S
C884 C892 1.574 . S
C884 C900 1.368 . S
H885 C893 0.950 . S
H886 C891 0.950 . S
H887 C892 0.949 . S
H888 C894 0.950 . S
H889 C895 0.950 . S
H890 C896 0.949 . S
C891 H886 0.950 . S
C891 C893 1.327 . S
C891 C897 1.429 . S
C892 C884 1.574 . S
C892 H887 0.949 . S
C892 C898 1.368 . S
C893 C877 1.349 . S
C893 H885 0.950 . S
C893 C891 1.327 . S
C894 C882 1.349 . S
C894 H888 0.950 . S
C894 C895 1.327 . S
C895 H889 0.950 . S
C895 C894 1.327 . S
C895 C899 1.429 . S
C896 C879 1.574 . S
C896 H890 0.949 . S
C896 C900 1.368 . S
C897 C878 1.429 . S
C897 C891 1.429 . S
C897 C898 1.523 . S
C898 C879 1.368 . S
C898 C892 1.368 . S
C898 C897 1.523 . S
C899 C883 1.429 . S
C899 C895 1.429 . S
C899 C900 1.523 . S
C900 C884 1.368 . S
C900 C896 1.368 . S
C900 C899 1.523 . S
H901 C876 0.950 . S
H902 C878 0.950 . S
H903 C879 0.949 . S
H904 C881 0.950 . S
H905 C883 0.950 . S
C906 C907 1.349 . S
C906 C908 1.327 . S
C906 H931 0.950 . S
C907 C906 1.349 . S
C907 C923 1.349 . S
C908 C906 1.327 . S
C908 C927 1.429 . S
C908 H932 0.950 . S
C909 C926 1.574 . S
C909 C928 1.368 . S
C909 H933 0.949 . S
H910 C914 0.949 . S
C911 C912 1.349 . S
C911 C913 1.327 . S
C911 H934 0.950 . S
C912 C911 1.349 . S
C912 C924 1.349 . S
C913 C911 1.327 . S
C913 C929 1.429 . S
C913 H935 0.950 . S
C914 H910 0.949 . S
C914 C922 1.574 . S
C914 C930 1.368 . S
H915 C923 0.950 . S
H916 C921 0.950 . S
H917 C922 0.949 . S
H918 C924 0.950 . S
H919 C925 0.950 . S
H920 C926 0.949 . S
C921 H916 0.950 . S
C921 C923 1.327 . S
C921 C927 1.429 . S
C922 C914 1.574 . S
C922 H917 0.949 . S
C922 C928 1.368 . S
C923 C907 1.349 . S
C923 H915 0.950 . S
C923 C921 1.327 . S
C924 C912 1.349 . S
C924 H918 0.950 . S
C924 C925 1.327 . S
C925 H919 0.950 . S
C925 C924 1.327 . S
C925 C929 1.429 . S
C926 C909 1.574 . S
C926 H920 0.949 . S
C926 C930 1.368 . S
C927 C908 1.429 . S
C927 C921 1.429 . S
C927 C928 1.523 . S
C928 C909 1.368 . S
C928 C922 1.368 . S
C928 C927 1.523 . S
C929 C913 1.429 . S
C929 C925 1.429 . S
C929 C930 1.523 . S
C930 C914 1.368 . S
C930 C926 1.368 . S
C930 C929 1.523 . S
H931 C906 0.950 . S
H932 C908 0.950 . S
H933 C909 0.949 . S
H934 C911 0.950 . S
H935 C913 0.950 . S
C936 C937 1.349 . S
C936 C938 1.327 . S
C936 H961 0.950 . S
C937 C936 1.349 . S
C937 C953 1.349 . S
C938 C936 1.327 . S
C938 C957 1.429 . S
C938 H962 0.950 . S
C939 C956 1.574 . S
C939 C958 1.368 . S
C939 H963 0.949 . S
H940 C944 0.949 . S
C941 C942 1.349 . S
C941 C943 1.327 . S
C941 H964 0.950 . S
C942 C941 1.349 . S
C942 C954 1.349 . S
C943 C941 1.327 . S
C943 C959 1.429 . S
C943 H965 0.950 . S
C944 H940 0.949 . S
C944 C952 1.574 . S
C944 C960 1.368 . S
H945 C953 0.950 . S
H946 C951 0.950 . S
H947 C952 0.949 . S
H948 C954 0.950 . S
H949 C955 0.950 . S
H950 C956 0.949 . S
C951 H946 0.950 . S
C951 C953 1.327 . S
C951 C957 1.429 . S
C952 C944 1.574 . S
C952 H947 0.949 . S
C952 C958 1.368 . S
C953 C937 1.349 . S
C953 H945 0.950 . S
C953 C951 1.327 . S
C954 C942 1.349 . S
C954 H948 0.950 . S
C954 C955 1.327 . S
C955 H949 0.950 . S
C955 C954 1.327 . S
C955 C959 1.429 . S
C956 C939 1.574 . S
C956 H950 0.949 . S
C956 C960 1.368 . S
C957 C938 1.429 . S
C957 C951 1.429 . S
C957 C958 1.523 . S
C958 C939 1.368 . S
C958 C952 1.368 . S
C958 C957 1.523 . S
C959 C943 1.429 . S
C959 C955 1.429 . S
C959 C960 1.523 . S
C960 C944 1.368 . S
C960 C956 1.368 . S
C960 C959 1.523 . S
H961 C936 0.950 . S
H962 C938 0.950 . S
H963 C939 0.949 . S
H964 C941 0.950 . S
H965 C943 0.950 . S
C966 C967 1.349 . S
C966 C968 1.327 . S
C966 H991 0.950 . S
C967 C966 1.349 . S
C967 C983 1.349 . S
C968 C966 1.327 . S
C968 C987 1.429 . S
C968 H992 0.950 . S
C969 C986 1.574 . S
C969 C988 1.368 . S
C969 H993 0.949 . S
H970 C974 0.949 . S
C971 C972 1.349 . S
C971 C973 1.327 . S
C971 H994 0.950 . S
C972 C971 1.349 . S
C972 C984 1.349 . S
C973 C971 1.327 . S
C973 C989 1.429 . S
C973 H995 0.950 . S
C974 H970 0.949 . S
C974 C982 1.574 . S
C974 C990 1.368 . S
H975 C983 0.950 . S
H976 C981 0.950 . S
H977 C982 0.949 . S
H978 C984 0.950 . S
H979 C985 0.950 . S
H980 C986 0.949 . S
C981 H976 0.950 . S
C981 C983 1.327 . S
C981 C987 1.429 . S
C982 C974 1.574 . S
C982 H977 0.949 . S
C982 C988 1.368 . S
C983 C967 1.349 . S
C983 H975 0.950 . S
C983 C981 1.327 . S
C984 C972 1.349 . S
C984 H978 0.950 . S
C984 C985 1.327 . S
C985 H979 0.950 . S
C985 C984 1.327 . S
C985 C989 1.429 . S
C986 C969 1.574 . S
C986 H980 0.949 . S
C986 C990 1.368 . S
C987 C968 1.429 . S
C987 C981 1.429 . S
C987 C988 1.523 . S
C988 C969 1.368 . S
C988 C982 1.368 . S
C988 C987 1.523 . S
C989 C973 1.429 . S
C989 C985 1.429 . S
C989 C990 1.523 . S
C990 C974 1.368 . S
C990 C986 1.368 . S
C990 C989 1.523 . S
H991 C966 0.950 . S
H992 C968 0.950 . S
H993 C969 0.949 . S
H994 C971 0.950 . S
H995 C973 0.950 . S
C996 C997 1.349 1_565 S
C996 C998 1.327 . S
C996 H1021 0.950 . S
C997 C996 1.349 1_545 S
C997 C1013 1.349 . S
C998 C996 1.327 . S
C998 C1017 1.414 1_565 S
C998 H1022 0.950 . S
C999 C1016 1.574 . S
C999 C1018 1.368 1_545 S
C999 H1023 0.949 . S
H1000 C1004 0.949 . S
C1001 C1002 1.349 . S
C1001 C1003 1.327 . S
C1001 H1024 0.950 . S
C1002 C1001 1.349 . S
C1002 C1014 1.349 . S
C1003 C1001 1.327 . S
C1003 C1019 1.429 . S
C1003 H1025 0.951 1_565 S
C1004 H1000 0.949 . S
C1004 C1012 1.574 . S
C1004 C1020 1.368 . S
H1005 C1013 0.950 . S
H1006 C1011 0.950 . S
H1007 C1012 0.949 . S
H1008 C1014 0.950 . S
H1009 C1015 0.950 . S
H1010 C1016 0.949 . S
C1011 H1006 0.950 . S
C1011 C1013 1.327 . S
C1011 C1017 1.476 . S
C1012 C1004 1.574 . S
C1012 H1007 0.949 . S
C1012 C1018 1.368 . S
C1013 C997 1.349 . S
C1013 H1005 0.950 . S
C1013 C1011 1.327 . S
C1014 C1002 1.349 . S
C1014 H1008 0.950 . S
C1014 C1015 1.327 . S
C1015 H1009 0.950 . S
C1015 C1014 1.327 . S
C1015 C1019 1.429 . S
C1016 C999 1.574 . S
C1016 H1010 0.949 . S
C1016 C1020 1.368 1_545 S
C1017 C998 1.414 1_545 S
C1017 C1011 1.476 . S
C1017 C1018 1.494 1_545 S
C1018 C999 1.368 1_565 S
C1018 C1012 1.368 . S
C1018 C1017 1.494 1_565 S
C1019 C1003 1.429 . S
C1019 C1015 1.429 . S
C1019 C1020 1.523 . S
C1020 C1004 1.368 . S
C1020 C1016 1.368 1_565 S
C1020 C1019 1.523 . S
H1021 C996 0.950 . S
H1022 C998 0.950 . S
H1023 C999 0.949 . S
H1024 C1001 0.950 . S
H1025 C1003 0.951 1_545 S
C1026 C1027 1.319 1_556 S
C1026 C1028 1.327 . S
C1026 H1051 0.950 . S
C1027 C1026 1.319 1_554 S
C1027 C1043 1.353 . S
C1028 C1026 1.327 . S
C1028 C1047 1.429 . S
C1028 H1052 0.950 . S
C1029 C1046 1.574 . S
C1029 C1048 1.368 . S
C1029 H1053 0.949 . S
H1030 C1034 0.949 . S
C1031 C1032 1.349 . S
C1031 C1033 1.327 . S
C1031 H1054 0.950 . S
C1032 C1031 1.349 . S
C1032 C1044 1.349 . S
C1033 C1031 1.327 . S
C1033 C1049 1.429 . S
C1033 H1055 0.950 . S
C1034 H1030 0.949 . S
C1034 C1042 1.574 . S
C1034 C1050 1.368 . S
H1035 C1043 0.950 . S
H1036 C1041 0.950 . S
H1037 C1042 0.949 . S
H1038 C1044 0.950 . S
H1039 C1045 0.950 . S
H1040 C1046 0.949 . S
C1041 H1036 0.950 . S
C1041 C1043 1.327 1_556 S
C1041 C1047 1.429 . S
C1042 C1034 1.574 . S
C1042 H1037 0.949 . S
C1042 C1048 1.368 . S
C1043 C1027 1.353 . S
C1043 H1035 0.950 . S
C1043 C1041 1.327 1_554 S
C1044 C1032 1.349 . S
C1044 H1038 0.950 . S
C1044 C1045 1.327 . S
C1045 H1039 0.950 . S
C1045 C1044 1.327 . S
C1045 C1049 1.429 . S
C1046 C1029 1.574 . S
C1046 H1040 0.949 . S
C1046 C1050 1.368 . S
C1047 C1028 1.429 . S
C1047 C1041 1.429 . S
C1047 C1048 1.523 . S
C1048 C1029 1.368 . S
C1048 C1042 1.368 . S
C1048 C1047 1.523 . S
C1049 C1033 1.429 . S
C1049 C1045 1.429 . S
C1049 C1050 1.523 . S
C1050 C1034 1.368 . S
C1050 C1046 1.368 . S
C1050 C1049 1.523 . S
H1051 C1026 0.950 . S
H1052 C1028 0.950 . S
H1053 C1029 0.949 . S
H1054 C1031 0.950 . S
H1055 C1033 0.950 . S
C1056 C1057 1.349 . S
C1056 C1058 1.327 . S
C1056 H1081 0.950 . S
C1057 C1056 1.349 . S
C1057 C1073 1.375 . S
C1058 C1056 1.327 . S
C1058 C1077 1.429 1_455 S
C1058 H1082 0.950 . S
C1059 C1076 1.574 . S
C1059 C1078 1.368 . S
C1059 H1083 0.949 . S
H1060 C1064 0.949 . S
C1061 C1062 1.316 1_556 S
C1061 C1063 1.327 . S
C1061 H1084 0.950 . S
C1062 C1061 1.316 1_554 S
C1062 C1074 1.356 . S
C1063 C1061 1.327 . S
C1063 C1079 1.429 . S
C1063 H1085 0.950 . S
C1064 H1060 0.949 . S
C1064 C1072 1.574 . S
C1064 C1080 1.368 . S
H1065 C1073 0.943 1_655 S
H1066 C1071 0.950 . S
H1067 C1072 0.949 . S
H1068 C1074 0.950 . S
H1069 C1075 0.950 . S
H1070 C1076 0.949 . S
C1071 H1066 0.950 . S
C1071 C1073 1.308 1_655 S
C1071 C1077 1.429 . S
C1072 C1064 1.574 . S
C1072 H1067 0.949 . S
C1072 C1078 1.368 . S
C1073 C1057 1.375 . S
C1073 H1065 0.943 1_455 S
C1073 C1071 1.308 1_455 S
C1074 C1062 1.356 . S
C1074 H1068 0.950 . S
C1074 C1075 1.327 1_554 S
C1075 H1069 0.950 . S
C1075 C1074 1.327 1_556 S
C1075 C1079 1.429 . S
C1076 C1059 1.574 . S
C1076 H1070 0.949 . S
C1076 C1080 1.368 . S
C1077 C1058 1.429 1_655 S
C1077 C1071 1.429 . S
C1077 C1078 1.523 . S
C1078 C1059 1.368 . S
C1078 C1072 1.368 . S
C1078 C1077 1.523 . S
C1079 C1063 1.429 . S
C1079 C1075 1.429 . S
C1079 C1080 1.523 . S
C1080 C1064 1.368 . S
C1080 C1076 1.368 . S
C1080 C1079 1.523 . S
H1081 C1056 0.950 . S
H1082 C1058 0.950 . S
H1083 C1059 0.949 . S
H1084 C1061 0.950 . S
H1085 C1063 0.950 . S
C1086 C1087 1.318 1_556 S
C1086 C1088 1.327 . S
C1086 H1111 0.950 . S
C1087 C1086 1.318 1_554 S
C1087 C1103 1.354 . S
C1088 C1086 1.327 . S
C1088 C1107 1.429 . S
C1088 H1112 0.950 . S
C1089 C1106 1.574 . S
C1089 C1108 1.368 . S
C1089 H1113 0.949 . S
H1090 C1094 0.949 . S
C1091 C1092 1.349 . S
C1091 C1093 1.327 . S
C1091 H1114 0.950 . S
C1092 C1091 1.349 . S
C1092 C1104 1.349 . S
C1093 C1091 1.327 . S
C1093 C1109 1.429 . S
C1093 H1115 0.950 . S
C1094 H1090 0.949 . S
C1094 C1102 1.574 . S
C1094 C1110 1.368 . S
H1095 C1103 0.950 . S
H1096 C1101 0.950 . S
H1097 C1102 0.949 . S
H1098 C1104 0.950 . S
H1099 C1105 0.950 . S
H1100 C1106 0.949 . S
C1101 H1096 0.950 . S
C1101 C1103 1.327 1_556 S
C1101 C1107 1.429 . S
C1102 C1094 1.574 . S
C1102 H1097 0.949 . S
C1102 C1108 1.368 . S
C1103 C1087 1.354 . S
C1103 H1095 0.950 . S
C1103 C1101 1.327 1_554 S
C1104 C1092 1.349 . S
C1104 H1098 0.950 . S
C1104 C1105 1.327 . S
C1105 H1099 0.950 . S
C1105 C1104 1.327 . S
C1105 C1109 1.429 . S
C1106 C1089 1.574 . S
C1106 H1100 0.949 . S
C1106 C1110 1.368 . S
C1107 C1088 1.429 . S
C1107 C1101 1.429 . S
C1107 C1108 1.523 . S
C1108 C1089 1.368 . S
C1108 C1102 1.368 . S
C1108 C1107 1.523 . S
C1109 C1093 1.429 . S
C1109 C1105 1.429 . S
C1109 C1110 1.523 . S
C1110 C1094 1.368 . S
C1110 C1106 1.368 . S
C1110 C1109 1.523 . S
H1111 C1086 0.950 . S
H1112 C1088 0.950 . S
H1113 C1089 0.949 . S
H1114 C1091 0.950 . S
H1115 C1093 0.950 . S
C1116 C1117 1.349 . S
C1116 C1118 1.327 . S
C1116 H1141 0.950 . S
C1117 C1116 1.349 . S
C1117 C1133 1.349 . S
C1118 C1116 1.327 . S
C1118 C1137 1.429 . S
C1118 H1142 0.950 . S
C1119 C1136 1.574 . S
C1119 C1138 1.368 . S
C1119 H1143 0.949 . S
H1120 C1124 0.949 . S
C1121 C1122 1.349 1_655 S
C1121 C1123 1.327 . S
C1121 H1144 0.950 . S
C1122 C1121 1.349 1_455 S
C1122 C1134 1.349 . S
C1123 C1121 1.327 . S
C1123 C1139 1.429 . S
C1123 H1145 0.950 . S
C1124 H1120 0.949 . S
C1124 C1132 1.574 1_455 S
C1124 C1140 1.368 1_455 S
H1125 C1133 0.950 . S
H1126 C1131 0.950 . S
H1127 C1132 0.949 1_455 S
H1128 C1134 0.950 . S
H1129 C1135 0.950 . S
H1130 C1136 0.949 . S
C1131 H1126 0.950 . S
C1131 C1133 1.327 . S
C1131 C1137 1.429 . S
C1132 C1124 1.574 1_655 S
C1132 H1127 0.949 1_655 S
C1132 C1138 1.368 . S
C1133 C1117 1.349 . S
C1133 H1125 0.950 . S
C1133 C1131 1.327 . S
C1134 C1122 1.349 . S
C1134 H1128 0.950 . S
C1134 C1135 1.327 . S
C1135 H1129 0.950 . S
C1135 C1134 1.327 . S
C1135 C1139 1.429 1_455 S
C1136 C1119 1.574 . S
C1136 H1130 0.949 . S
C1136 C1140 1.368 . S
C1137 C1118 1.429 . S
C1137 C1131 1.429 . S
C1137 C1138 1.523 . S
C1138 C1119 1.368 . S
C1138 C1132 1.368 . S
C1138 C1137 1.523 . S
C1139 C1123 1.429 . S
C1139 C1135 1.429 1_655 S
C1139 C1140 1.523 . S
C1140 C1124 1.368 1_655 S
C1140 C1136 1.368 . S
C1140 C1139 1.523 . S
H1141 C1116 0.950 . S
H1142 C1118 0.950 . S
H1143 C1119 0.949 . S
H1144 C1121 0.950 . S
H1145 C1123 0.950 . S
C1146 C1147 1.349 . S
C1146 C1148 1.327 . S
C1146 H1171 0.950 . S
C1147 C1146 1.349 . S
C1147 C1163 1.349 . S
C1148 C1146 1.327 . S
C1148 C1167 1.429 . S
C1148 H1172 0.950 . S
C1149 C1166 1.574 . S
C1149 C1168 1.368 . S
C1149 H1173 0.949 . S
H1150 C1154 0.949 . S
C1151 C1152 1.349 . S
C1151 C1153 1.327 . S
C1151 H1174 0.950 . S
C1152 C1151 1.349 . S
C1152 C1164 1.349 . S
C1153 C1151 1.327 . S
C1153 C1169 1.429 . S
C1153 H1175 0.950 . S
C1154 H1150 0.949 . S
C1154 C1162 1.574 . S
C1154 C1170 1.368 . S
H1155 C1163 0.950 . S
H1156 C1161 0.950 . S
H1157 C1162 0.949 . S
H1158 C1164 0.950 . S
H1159 C1165 0.950 . S
H1160 C1166 0.949 . S
C1161 H1156 0.950 . S
C1161 C1163 1.327 . S
C1161 C1167 1.429 . S
C1162 C1154 1.574 . S
C1162 H1157 0.949 . S
C1162 C1168 1.368 . S
C1163 C1147 1.349 . S
C1163 H1155 0.950 . S
C1163 C1161 1.327 . S
C1164 C1152 1.349 . S
C1164 H1158 0.950 . S
C1164 C1165 1.327 . S
C1165 H1159 0.950 . S
C1165 C1164 1.327 . S
C1165 C1169 1.429 . S
C1166 C1149 1.574 . S
C1166 H1160 0.949 . S
C1166 C1170 1.368 . S
C1167 C1148 1.429 . S
C1167 C1161 1.429 . S
C1167 C1168 1.523 . S
C1168 C1149 1.368 . S
C1168 C1162 1.368 . S
C1168 C1167 1.523 . S
C1169 C1153 1.429 . S
C1169 C1165 1.429 . S
C1169 C1170 1.523 . S
C1170 C1154 1.368 . S
C1170 C1166 1.368 . S
C1170 C1169 1.523 . S
H1171 C1146 0.950 . S
H1172 C1148 0.950 . S
H1173 C1149 0.949 . S
H1174 C1151 0.950 . S
H1175 C1153 0.950 . S
C1176 C1177 1.349 . S
C1176 C1178 1.327 . S
C1176 H1201 0.950 . S
C1177 C1176 1.349 . S
C1177 C1193 1.349 . S
C1178 C1176 1.327 . S
C1178 C1197 1.429 . S
C1178 H1202 0.950 . S
C1179 C1196 1.574 . S
C1179 C1198 1.368 . S
C1179 H1203 0.949 . S
H1180 C1184 0.949 . S
C1181 C1182 1.349 . S
C1181 C1183 1.327 . S
C1181 H1204 0.950 . S
C1182 C1181 1.349 . S
C1182 C1194 1.349 . S
C1183 C1181 1.327 . S
C1183 C1199 1.429 . S
C1183 H1205 0.950 . S
C1184 H1180 0.949 . S
C1184 C1192 1.574 . S
C1184 C1200 1.368 . S
H1185 C1193 0.950 . S
H1186 C1191 0.950 . S
H1187 C1192 0.949 . S
H1188 C1194 0.950 . S
H1189 C1195 0.950 . S
H1190 C1196 0.949 . S
C1191 H1186 0.950 . S
C1191 C1193 1.327 . S
C1191 C1197 1.429 . S
C1192 C1184 1.574 . S
C1192 H1187 0.949 . S
C1192 C1198 1.368 . S
C1193 C1177 1.349 . S
C1193 H1185 0.950 . S
C1193 C1191 1.327 . S
C1194 C1182 1.349 . S
C1194 H1188 0.950 . S
C1194 C1195 1.327 . S
C1195 H1189 0.950 . S
C1195 C1194 1.327 . S
C1195 C1199 1.429 . S
C1196 C1179 1.574 . S
C1196 H1190 0.949 . S
C1196 C1200 1.368 . S
C1197 C1178 1.429 . S
C1197 C1191 1.429 . S
C1197 C1198 1.523 . S
C1198 C1179 1.368 . S
C1198 C1192 1.368 . S
C1198 C1197 1.523 . S
C1199 C1183 1.429 . S
C1199 C1195 1.429 . S
C1199 C1200 1.523 . S
C1200 C1184 1.368 . S
C1200 C1196 1.368 . S
C1200 C1199 1.523 . S
H1201 C1176 0.950 . S
H1202 C1178 0.950 . S
H1203 C1179 0.949 . S
H1204 C1181 0.950 . S
H1205 C1183 0.950 . S
C1206 C1207 1.349 . S
C1206 C1208 1.327 1_545 S
C1206 H1231 0.950 . S
C1207 C1206 1.349 . S
C1207 C1223 1.349 . S
C1208 C1206 1.327 1_565 S
C1208 C1227 1.437 1_565 S
C1208 H1232 0.948 . S
C1209 C1226 1.574 . S
C1209 C1228 1.368 . S
C1209 H1233 0.949 1_565 S
H1210 C1214 0.949 . S
C1211 C1212 1.348 . S
C1211 C1213 1.327 1_556 S
C1211 H1234 0.950 . S
C1212 C1211 1.348 . S
C1212 C1224 1.351 1_556 S
C1213 C1211 1.327 1_554 S
C1213 C1229 1.429 . S
C1213 H1235 0.950 . S
C1214 H1210 0.949 . S
C1214 C1222 1.574 . S
C1214 C1230 1.368 . S
H1215 C1223 0.950 . S
H1216 C1221 0.950 . S
H1217 C1222 0.949 . S
H1218 C1224 0.950 . S
H1219 C1225 0.950 . S
H1220 C1226 0.949 . S
C1221 H1216 0.950 . S
C1221 C1223 1.327 . S
C1221 C1227 1.424 . S
C1222 C1214 1.574 . S
C1222 H1217 0.949 . S
C1222 C1228 1.368 . S
C1223 C1207 1.349 . S
C1223 H1215 0.950 . S
C1223 C1221 1.327 . S
C1224 C1212 1.351 1_554 S
C1224 H1218 0.950 . S
C1224 C1225 1.327 . S
C1225 H1219 0.950 . S
C1225 C1224 1.327 . S
C1225 C1229 1.429 . S
C1226 C1209 1.574 . S
C1226 H1220 0.949 . S
C1226 C1230 1.368 . S
C1227 C1208 1.437 1_545 S
C1227 C1221 1.424 . S
C1227 C1228 1.524 1_545 S
C1228 C1209 1.368 . S
C1228 C1222 1.368 . S
C1228 C1227 1.524 1_565 S
C1229 C1213 1.429 . S
C1229 C1225 1.429 . S
C1229 C1230 1.523 . S
C1230 C1214 1.368 . S
C1230 C1226 1.368 . S
C1230 C1229 1.523 . S
H1231 C1206 0.950 . S
H1232 C1208 0.948 . S
H1233 C1209 0.949 1_545 S
H1234 C1211 0.950 . S
H1235 C1213 0.950 . S
C1236 C1237 1.350 1_554 S
C1236 C1238 1.327 . S
C1236 H1261 0.950 . S
C1237 C1236 1.350 1_556 S
C1237 C1253 1.350 1_556 S
C1238 C1236 1.327 . S
C1238 C1257 1.429 . S
C1238 H1262 0.950 . S
C1239 C1256 1.574 . S
C1239 C1258 1.368 . S
C1239 H1263 0.949 . S
H1240 C1244 0.949 . S
C1241 C1242 1.349 . S
C1241 C1243 1.327 . S
C1241 H1264 0.950 . S
C1242 C1241 1.349 . S
C1242 C1254 1.349 . S
C1243 C1241 1.327 . S
C1243 C1259 1.429 . S
C1243 H1265 0.950 . S
C1244 H1240 0.949 . S
C1244 C1252 1.574 . S
C1244 C1260 1.368 . S
H1245 C1253 0.939 1_556 S
H1246 C1251 0.950 . S
H1247 C1252 0.949 . S
H1248 C1254 0.950 . S
H1249 C1255 0.950 . S
H1250 C1256 0.949 . S
C1251 H1246 0.950 . S
C1251 C1253 1.327 . S
C1251 C1257 1.429 . S
C1252 C1244 1.574 . S
C1252 H1247 0.949 . S
C1252 C1258 1.368 . S
C1253 C1237 1.350 1_554 S
C1253 H1245 0.939 1_554 S
C1253 C1251 1.327 . S
C1254 C1242 1.349 . S
C1254 H1248 0.950 . S
C1254 C1255 1.327 . S
C1255 H1249 0.950 . S
C1255 C1254 1.327 . S
C1255 C1259 1.429 . S
C1256 C1239 1.574 . S
C1256 H1250 0.949 . S
C1256 C1260 1.368 . S
C1257 C1238 1.429 . S
C1257 C1251 1.429 . S
C1257 C1258 1.523 . S
C1258 C1239 1.368 . S
C1258 C1252 1.368 . S
C1258 C1257 1.523 . S
C1259 C1243 1.429 . S
C1259 C1255 1.429 . S
C1259 C1260 1.523 . S
C1260 C1244 1.368 . S
C1260 C1256 1.368 . S
C1260 C1259 1.523 . S
H1261 C1236 0.950 . S
H1262 C1238 0.950 . S
H1263 C1239 0.949 . S
H1264 C1241 0.950 . S
H1265 C1243 0.950 . S
C1266 C1267 1.351 1_554 S
C1266 C1268 1.327 . S
C1266 H1291 0.950 . S
C1267 C1266 1.351 1_556 S
C1267 C1283 1.349 1_556 S
C1268 C1266 1.327 . S
C1268 C1287 1.429 . S
C1268 H1292 0.950 . S
C1269 C1286 1.574 . S
C1269 C1288 1.368 . S
C1269 H1293 0.949 . S
H1270 C1274 0.949 . S
C1271 C1272 1.349 . S
C1271 C1273 1.327 . S
C1271 H1294 0.950 . S
C1272 C1271 1.349 . S
C1272 C1284 1.349 . S
C1273 C1271 1.327 . S
C1273 C1289 1.429 . S
C1273 H1295 0.950 . S
C1274 H1270 0.949 . S
C1274 C1282 1.574 . S
C1274 C1290 1.368 . S
H1275 C1283 0.950 1_556 S
H1276 C1281 0.950 . S
H1277 C1282 0.949 . S
H1278 C1284 0.950 . S
H1279 C1285 0.950 . S
H1280 C1286 0.949 . S
C1281 H1276 0.950 . S
C1281 C1283 1.327 . S
C1281 C1287 1.429 . S
C1282 C1274 1.574 . S
C1282 H1277 0.949 . S
C1282 C1288 1.368 . S
C1283 C1267 1.349 1_554 S
C1283 H1275 0.950 1_554 S
C1283 C1281 1.327 . S
C1284 C1272 1.349 . S
C1284 H1278 0.950 . S
C1284 C1285 1.327 . S
C1285 H1279 0.950 . S
C1285 C1284 1.327 . S
C1285 C1289 1.429 . S
C1286 C1269 1.574 . S
C1286 H1280 0.949 . S
C1286 C1290 1.368 . S
C1287 C1268 1.429 . S
C1287 C1281 1.429 . S
C1287 C1288 1.523 . S
C1288 C1269 1.368 . S
C1288 C1282 1.368 . S
C1288 C1287 1.523 . S
C1289 C1273 1.429 . S
C1289 C1285 1.429 . S
C1289 C1290 1.523 . S
C1290 C1274 1.368 . S
C1290 C1286 1.368 . S
C1290 C1289 1.523 . S
H1291 C1266 0.950 . S
H1292 C1268 0.950 . S
H1293 C1269 0.949 . S
H1294 C1271 0.950 . S
H1295 C1273 0.950 . S
C1296 C1297 1.349 . S
C1296 C1298 1.327 . S
C1296 H1321 0.950 . S
C1297 C1296 1.349 . S
C1297 C1313 1.349 . S
C1298 C1296 1.327 . S
C1298 C1317 1.429 . S
C1298 H1322 0.950 . S
C1299 C1316 1.574 . S
C1299 C1318 1.368 . S
C1299 H1323 0.949 . S
H1300 C1304 0.949 . S
C1301 C1302 1.349 1_455 S
C1301 C1303 1.327 . S
C1301 H1324 0.950 . S
C1302 C1301 1.349 1_655 S
C1302 C1314 1.349 . S
C1303 C1301 1.327 . S
C1303 C1319 1.429 . S
C1303 H1325 0.950 . S
C1304 H1300 0.949 . S
C1304 C1312 1.574 . S
C1304 C1320 1.368 . S
H1305 C1313 0.950 . S
H1306 C1311 0.950 . S
H1307 C1312 0.949 . S
H1308 C1314 0.950 . S
H1309 C1315 0.950 . S
H1310 C1316 0.949 . S
C1311 H1306 0.950 . S
C1311 C1313 1.327 . S
C1311 C1317 1.429 . S
C1312 C1304 1.574 . S
C1312 H1307 0.949 . S
C1312 C1318 1.368 . S
C1313 C1297 1.349 . S
C1313 H1305 0.950 . S
C1313 C1311 1.327 . S
C1314 C1302 1.349 . S
C1314 H1308 0.950 . S
C1314 C1315 1.327 . S
C1315 H1309 0.950 . S
C1315 C1314 1.327 . S
C1315 C1319 1.429 1_655 S
C1316 C1299 1.574 . S
C1316 H1310 0.949 . S
C1316 C1320 1.368 . S
C1317 C1298 1.429 . S
C1317 C1311 1.429 . S
C1317 C1318 1.523 . S
C1318 C1299 1.368 . S
C1318 C1312 1.368 . S
C1318 C1317 1.523 . S
C1319 C1303 1.429 . S
C1319 C1315 1.429 1_455 S
C1319 C1320 1.523 . S
C1320 C1304 1.368 . S
C1320 C1316 1.368 . S
C1320 C1319 1.523 . S
H1321 C1296 0.950 . S
H1322 C1298 0.950 . S
H1323 C1299 0.949 . S
H1324 C1301 0.950 . S
H1325 C1303 0.950 . S
C1326 C1327 1.349 . S
C1326 C1328 1.327 . S
C1326 H1351 0.950 . S
C1327 C1326 1.349 . S
C1327 C1343 1.349 . S
C1328 C1326 1.327 . S
C1328 C1347 1.429 . S
C1328 H1352 0.950 . S
C1329 C1346 1.574 . S
C1329 C1348 1.368 . S
C1329 H1353 0.949 . S
H1330 C1334 0.949 . S
C1331 C1332 1.349 . S
C1331 C1333 1.327 . S
C1331 H1354 0.950 . S
C1332 C1331 1.349 . S
C1332 C1344 1.349 . S
C1333 C1331 1.327 . S
C1333 C1349 1.429 . S
C1333 H1355 0.950 . S
C1334 H1330 0.949 . S
C1334 C1342 1.574 . S
C1334 C1350 1.368 . S
H1335 C1343 0.950 . S
H1336 C1341 0.950 . S
H1337 C1342 0.949 . S
H1338 C1344 0.950 . S
H1339 C1345 0.950 . S
H1340 C1346 0.949 . S
C1341 H1336 0.950 . S
C1341 C1343 1.327 . S
C1341 C1347 1.429 . S
C1342 C1334 1.574 . S
C1342 H1337 0.949 . S
C1342 C1348 1.368 . S
C1343 C1327 1.349 . S
C1343 H1335 0.950 . S
C1343 C1341 1.327 . S
C1344 C1332 1.349 . S
C1344 H1338 0.950 . S
C1344 C1345 1.327 . S
C1345 H1339 0.950 . S
C1345 C1344 1.327 . S
C1345 C1349 1.429 . S
C1346 C1329 1.574 . S
C1346 H1340 0.949 . S
C1346 C1350 1.368 . S
C1347 C1328 1.429 . S
C1347 C1341 1.429 . S
C1347 C1348 1.523 . S
C1348 C1329 1.368 . S
C1348 C1342 1.368 . S
C1348 C1347 1.523 . S
C1349 C1333 1.429 . S
C1349 C1345 1.429 . S
C1349 C1350 1.523 . S
C1350 C1334 1.368 . S
C1350 C1346 1.368 . S
C1350 C1349 1.523 . S
H1351 C1326 0.950 . S
H1352 C1328 0.950 . S
H1353 C1329 0.949 . S
H1354 C1331 0.950 . S
H1355 C1333 0.950 . S
C1356 C1357 1.349 . S
C1356 C1358 1.327 . S
C1356 H1381 0.950 . S
C1357 C1356 1.349 . S
C1357 C1373 1.349 . S
C1358 C1356 1.327 . S
C1358 C1377 1.429 . S
C1358 H1382 0.950 . S
C1359 C1376 1.574 . S
C1359 C1378 1.368 . S
C1359 H1383 0.949 . S
H1360 C1364 0.949 . S
C1361 C1362 1.349 . S
C1361 C1363 1.327 1_565 S
C1361 H1384 0.950 . S
C1362 C1361 1.349 . S
C1362 C1374 1.349 1_565 S
C1363 C1361 1.327 1_545 S
C1363 C1379 1.429 . S
C1363 H1385 0.950 . S
C1364 H1360 0.949 . S
C1364 C1372 1.574 . S
C1364 C1380 1.368 . S
H1365 C1373 0.950 . S
H1366 C1371 0.950 . S
H1367 C1372 0.949 . S
H1368 C1374 0.962 1_565 S
H1369 C1375 0.950 . S
H1370 C1376 0.949 . S
C1371 H1366 0.950 . S
C1371 C1373 1.327 . S
C1371 C1377 1.429 . S
C1372 C1364 1.574 . S
C1372 H1367 0.949 . S
C1372 C1378 1.368 . S
C1373 C1357 1.349 . S
C1373 H1365 0.950 . S
C1373 C1371 1.327 . S
C1374 C1362 1.349 1_545 S
C1374 H1368 0.962 1_545 S
C1374 C1375 1.327 . S
C1375 H1369 0.950 . S
C1375 C1374 1.327 . S
C1375 C1379 1.429 . S
C1376 C1359 1.574 . S
C1376 H1370 0.949 . S
C1376 C1380 1.368 . S
C1377 C1358 1.429 . S
C1377 C1371 1.429 . S
C1377 C1378 1.523 . S
C1378 C1359 1.368 . S
C1378 C1372 1.368 . S
C1378 C1377 1.523 . S
C1379 C1363 1.429 . S
C1379 C1375 1.429 . S
C1379 C1380 1.523 . S
C1380 C1364 1.368 . S
C1380 C1376 1.368 . S
C1380 C1379 1.523 . S
H1381 C1356 0.950 . S
H1382 C1358 0.950 . S
H1383 C1359 0.949 . S
H1384 C1361 0.950 . S
H1385 C1363 0.950 . S
C1386 C1387 1.349 . S
C1386 C1388 1.327 . S
C1386 H1411 0.950 . S
C1387 C1386 1.349 . S
C1387 C1403 1.349 . S
C1388 C1386 1.327 . S
C1388 C1407 1.429 . S
C1388 H1412 0.950 . S
C1389 C1406 1.574 . S
C1389 C1408 1.368 . S
C1389 H1413 0.949 . S
H1390 C1394 0.949 . S
C1391 C1392 1.349 1_545 S
C1391 C1393 1.327 . S
C1391 H1414 0.950 . S
C1392 C1391 1.349 1_565 S
C1392 C1404 1.349 . S
C1393 C1391 1.327 . S
C1393 C1409 1.429 . S
C1393 H1415 0.950 . S
C1394 H1390 0.949 . S
C1394 C1402 1.574 . S
C1394 C1410 1.368 . S
H1395 C1403 0.950 . S
H1396 C1401 0.950 . S
H1397 C1402 0.949 . S
H1398 C1404 0.950 . S
H1399 C1405 0.950 1_565 S
H1400 C1406 0.949 . S
C1401 H1396 0.950 . S
C1401 C1403 1.327 . S
C1401 C1407 1.429 . S
C1402 C1394 1.574 . S
C1402 H1397 0.949 . S
C1402 C1408 1.368 . S
C1403 C1387 1.349 . S
C1403 H1395 0.950 . S
C1403 C1401 1.327 . S
C1404 C1392 1.349 . S
C1404 H1398 0.950 . S
C1404 C1405 1.319 1_565 S
C1405 H1399 0.950 1_545 S
C1405 C1404 1.319 1_545 S
C1405 C1409 1.436 . S
C1406 C1389 1.574 . S
C1406 H1400 0.949 . S
C1406 C1410 1.368 . S
C1407 C1388 1.429 . S
C1407 C1401 1.429 . S
C1407 C1408 1.523 . S
C1408 C1389 1.368 . S
C1408 C1402 1.368 . S
C1408 C1407 1.523 . S
C1409 C1393 1.429 . S
C1409 C1405 1.436 . S
C1409 C1410 1.523 . S
C1410 C1394 1.368 . S
C1410 C1406 1.368 . S
C1410 C1409 1.523 . S
H1411 C1386 0.950 . S
H1412 C1388 0.950 . S
H1413 C1389 0.949 . S
H1414 C1391 0.950 . S
H1415 C1393 0.950 . S
C1416 C1417 1.349 . S
C1416 C1418 1.327 . S
C1416 H1441 0.950 . S
C1417 C1416 1.349 . S
C1417 C1433 1.349 . S
C1418 C1416 1.327 . S
C1418 C1437 1.429 . S
C1418 H1442 0.950 . S
C1419 C1436 1.574 . S
C1419 C1438 1.368 . S
C1419 H1443 0.949 . S
H1420 C1424 0.949 . S
C1421 C1422 1.349 . S
C1421 C1423 1.327 1_655 S
C1421 H1444 0.950 . S
C1422 C1421 1.349 . S
C1422 C1434 1.349 . S
C1423 C1421 1.327 1_455 S
C1423 C1439 1.429 . S
C1423 H1445 0.950 . S
C1424 H1420 0.949 . S
C1424 C1432 1.574 . S
C1424 C1440 1.368 . S
H1425 C1433 0.950 . S
H1426 C1431 0.950 . S
H1427 C1432 0.949 . S
H1428 C1434 0.950 . S
H1429 C1435 0.950 . S
H1430 C1436 0.949 . S
C1431 H1426 0.950 . S
C1431 C1433 1.327 . S
C1431 C1437 1.429 . S
C1432 C1424 1.574 . S
C1432 H1427 0.949 . S
C1432 C1438 1.368 . S
C1433 C1417 1.349 . S
C1433 H1425 0.950 . S
C1433 C1431 1.327 . S
C1434 C1422 1.349 . S
C1434 H1428 0.950 . S
C1434 C1435 1.327 1_655 S
C1435 H1429 0.950 . S
C1435 C1434 1.327 1_455 S
C1435 C1439 1.429 . S
C1436 C1419 1.574 . S
C1436 H1430 0.949 . S
C1436 C1440 1.368 . S
C1437 C1418 1.429 . S
C1437 C1431 1.429 . S
C1437 C1438 1.523 . S
C1438 C1419 1.368 . S
C1438 C1432 1.368 . S
C1438 C1437 1.523 . S
C1439 C1423 1.429 . S
C1439 C1435 1.429 . S
C1439 C1440 1.523 . S
C1440 C1424 1.368 . S
C1440 C1436 1.368 . S
C1440 C1439 1.523 . S
H1441 C1416 0.950 . S
H1442 C1418 0.950 . S
H1443 C1419 0.949 . S
H1444 C1421 0.950 . S
H1445 C1423 0.950 . S
C1446 C1447 1.349 . S
C1446 C1448 1.327 . S
C1446 H1471 0.950 . S
C1447 C1446 1.349 . S
C1447 C1463 1.349 . S
C1448 C1446 1.327 . S
C1448 C1467 1.429 . S
C1448 H1472 0.950 . S
C1449 C1466 1.574 . S
C1449 C1468 1.368 . S
C1449 H1473 0.949 . S
H1450 C1454 0.949 . S
C1451 C1452 1.349 . S
C1451 C1453 1.327 . S
C1451 H1474 0.950 . S
C1452 C1451 1.349 . S
C1452 C1464 1.349 . S
C1453 C1451 1.327 . S
C1453 C1469 1.429 . S
C1453 H1475 0.950 . S
C1454 H1450 0.949 . S
C1454 C1462 1.574 . S
C1454 C1470 1.368 . S
H1455 C1463 0.950 . S
H1456 C1461 0.950 . S
H1457 C1462 0.949 . S
H1458 C1464 0.950 . S
H1459 C1465 0.950 . S
H1460 C1466 0.949 . S
C1461 H1456 0.950 . S
C1461 C1463 1.327 . S
C1461 C1467 1.429 . S
C1462 C1454 1.574 . S
C1462 H1457 0.949 . S
C1462 C1468 1.368 . S
C1463 C1447 1.349 . S
C1463 H1455 0.950 . S
C1463 C1461 1.327 . S
C1464 C1452 1.349 . S
C1464 H1458 0.950 . S
C1464 C1465 1.327 . S
C1465 H1459 0.950 . S
C1465 C1464 1.327 . S
C1465 C1469 1.429 . S
C1466 C1449 1.574 . S
C1466 H1460 0.949 . S
C1466 C1470 1.368 . S
C1467 C1448 1.429 . S
C1467 C1461 1.429 . S
C1467 C1468 1.523 . S
C1468 C1449 1.368 . S
C1468 C1462 1.368 . S
C1468 C1467 1.523 . S
C1469 C1453 1.429 . S
C1469 C1465 1.429 . S
C1469 C1470 1.523 . S
C1470 C1454 1.368 . S
C1470 C1466 1.368 . S
C1470 C1469 1.523 . S
H1471 C1446 0.950 . S
H1472 C1448 0.950 . S
H1473 C1449 0.949 . S
H1474 C1451 0.950 . S
H1475 C1453 0.950 . S
C1476 C1477 1.349 . S
C1476 C1478 1.327 . S
C1476 H1501 0.950 . S
C1477 C1476 1.349 . S
C1477 C1493 1.349 . S
C1478 C1476 1.327 . S
C1478 C1497 1.429 . S
C1478 H1502 0.950 . S
C1479 C1496 1.574 . S
C1479 C1498 1.368 . S
C1479 H1503 0.949 . S
H1480 C1484 0.949 . S
C1481 C1482 1.349 . S
C1481 C1483 1.327 . S
C1481 H1504 0.950 . S
C1482 C1481 1.349 . S
C1482 C1494 1.349 . S
C1483 C1481 1.327 . S
C1483 C1499 1.429 . S
C1483 H1505 0.950 . S
C1484 H1480 0.949 . S
C1484 C1492 1.574 . S
C1484 C1500 1.368 . S
H1485 C1493 0.950 . S
H1486 C1491 0.950 . S
H1487 C1492 0.949 . S
H1488 C1494 0.950 . S
H1489 C1495 0.950 . S
H1490 C1496 0.949 . S
C1491 H1486 0.950 . S
C1491 C1493 1.327 . S
C1491 C1497 1.429 . S
C1492 C1484 1.574 . S
C1492 H1487 0.949 . S
C1492 C1498 1.368 . S
C1493 C1477 1.349 . S
C1493 H1485 0.950 . S
C1493 C1491 1.327 . S
C1494 C1482 1.349 . S
C1494 H1488 0.950 . S
C1494 C1495 1.327 . S
C1495 H1489 0.950 . S
C1495 C1494 1.327 . S
C1495 C1499 1.429 . S
C1496 C1479 1.574 . S
C1496 H1490 0.949 . S
C1496 C1500 1.368 . S
C1497 C1478 1.429 . S
C1497 C1491 1.429 . S
C1497 C1498 1.523 . S
C1498 C1479 1.368 . S
C1498 C1492 1.368 . S
C1498 C1497 1.523 . S
C1499 C1483 1.429 . S
C1499 C1495 1.429 . S
C1499 C1500 1.523 . S
C1500 C1484 1.368 . S
C1500 C1496 1.368 . S
C1500 C1499 1.523 . S
H1501 C1476 0.950 . S
H1502 C1478 0.950 . S
H1503 C1479 0.949 . S
H1504 C1481 0.950 . S
H1505 C1483 0.950 . S
C1506 C1507 1.349 . S
C1506 C1508 1.327 . S
C1506 H1531 0.950 . S
C1507 C1506 1.349 . S
C1507 C1523 1.349 . S
C1508 C1506 1.327 . S
C1508 C1527 1.429 . S
C1508 H1532 0.950 . S
C1509 C1526 1.574 . S
C1509 C1528 1.368 . S
C1509 H1533 0.949 . S
H1510 C1514 0.949 . S
C1511 C1512 1.349 . S
C1511 C1513 1.327 . S
C1511 H1534 0.950 . S
C1512 C1511 1.349 . S
C1512 C1524 1.349 . S
C1513 C1511 1.327 . S
C1513 C1529 1.429 . S
C1513 H1535 0.950 . S
C1514 H1510 0.949 . S
C1514 C1522 1.574 . S
C1514 C1530 1.368 . S
H1515 C1523 0.950 . S
H1516 C1521 0.950 . S
H1517 C1522 0.949 . S
H1518 C1524 0.950 . S
H1519 C1525 0.950 . S
H1520 C1526 0.949 . S
C1521 H1516 0.950 . S
C1521 C1523 1.327 . S
C1521 C1527 1.429 . S
C1522 C1514 1.574 . S
C1522 H1517 0.949 . S
C1522 C1528 1.368 . S
C1523 C1507 1.349 . S
C1523 H1515 0.950 . S
C1523 C1521 1.327 . S
C1524 C1512 1.349 . S
C1524 H1518 0.950 . S
C1524 C1525 1.327 . S
C1525 H1519 0.950 . S
C1525 C1524 1.327 . S
C1525 C1529 1.429 . S
C1526 C1509 1.574 . S
C1526 H1520 0.949 . S
C1526 C1530 1.368 . S
C1527 C1508 1.429 . S
C1527 C1521 1.429 . S
C1527 C1528 1.523 . S
C1528 C1509 1.368 . S
C1528 C1522 1.368 . S
C1528 C1527 1.523 . S
C1529 C1513 1.429 . S
C1529 C1525 1.429 . S
C1529 C1530 1.523 . S
C1530 C1514 1.368 . S
C1530 C1526 1.368 . S
C1530 C1529 1.523 . S
H1531 C1506 0.950 . S
H1532 C1508 0.950 . S
H1533 C1509 0.949 . S
H1534 C1511 0.950 . S
H1535 C1513 0.950 . S
C1536 C1537 1.349 . S
C1536 C1538 1.327 . S
C1536 H1561 0.950 . S
C1537 C1536 1.349 . S
C1537 C1553 1.349 . S
C1538 C1536 1.327 . S
C1538 C1557 1.429 . S
C1538 H1562 0.950 . S
C1539 C1556 1.574 . S
C1539 C1558 1.368 . S
C1539 H1563 0.949 . S
H1540 C1544 0.949 . S
C1541 C1542 1.349 . S
C1541 C1543 1.327 . S
C1541 H1564 0.950 1_565 S
C1542 C1541 1.349 . S
C1542 C1554 1.349 . S
C1543 C1541 1.327 . S
C1543 C1559 1.429 . S
C1543 H1565 0.950 . S
C1544 H1540 0.949 . S
C1544 C1552 1.574 . S
C1544 C1560 1.368 . S
H1545 C1553 0.950 . S
H1546 C1551 0.950 . S
H1547 C1552 0.949 . S
H1548 C1554 0.950 . S
H1549 C1555 0.950 . S
H1550 C1556 0.949 . S
C1551 H1546 0.950 . S
C1551 C1553 1.327 . S
C1551 C1557 1.429 . S
C1552 C1544 1.574 . S
C1552 H1547 0.949 . S
C1552 C1558 1.368 . S
C1553 C1537 1.349 . S
C1553 H1545 0.950 . S
C1553 C1551 1.327 . S
C1554 C1542 1.349 . S
C1554 H1548 0.950 . S
C1554 C1555 1.327 . S
C1555 H1549 0.950 . S
C1555 C1554 1.327 . S
C1555 C1559 1.429 . S
C1556 C1539 1.574 . S
C1556 H1550 0.949 . S
C1556 C1560 1.368 . S
C1557 C1538 1.429 . S
C1557 C1551 1.429 . S
C1557 C1558 1.523 . S
C1558 C1539 1.368 . S
C1558 C1552 1.368 . S
C1558 C1557 1.523 . S
C1559 C1543 1.429 . S
C1559 C1555 1.429 . S
C1559 C1560 1.523 . S
C1560 C1544 1.368 . S
C1560 C1556 1.368 . S
C1560 C1559 1.523 . S
H1561 C1536 0.950 . S
H1562 C1538 0.950 . S
H1563 C1539 0.949 . S
H1564 C1541 0.950 1_545 S
H1565 C1543 0.950 . S
C1566 C1567 1.349 . S
C1566 C1568 1.327 . S
C1566 H1591 0.950 . S
C1567 C1566 1.349 . S
C1567 C1583 1.349 . S
C1568 C1566 1.327 . S
C1568 C1587 1.429 . S
C1568 H1592 0.950 . S
C1569 C1586 1.574 . S
C1569 C1588 1.368 . S
C1569 H1593 0.949 . S
H1570 C1574 0.949 . S
C1571 C1572 1.349 . S
C1571 C1573 1.327 . S
C1571 H1594 0.950 . S
C1572 C1571 1.349 . S
C1572 C1584 1.349 . S
C1573 C1571 1.327 . S
C1573 C1589 1.429 . S
C1573 H1595 0.950 . S
C1574 H1570 0.949 . S
C1574 C1582 1.574 . S
C1574 C1590 1.368 . S
H1575 C1583 0.950 . S
H1576 C1581 0.950 . S
H1577 C1582 0.949 . S
H1578 C1584 0.950 . S
H1579 C1585 0.950 . S
H1580 C1586 0.949 . S
C1581 H1576 0.950 . S
C1581 C1583 1.327 . S
C1581 C1587 1.429 . S
C1582 C1574 1.574 . S
C1582 H1577 0.949 . S
C1582 C1588 1.368 . S
C1583 C1567 1.349 . S
C1583 H1575 0.950 . S
C1583 C1581 1.327 . S
C1584 C1572 1.349 . S
C1584 H1578 0.950 . S
C1584 C1585 1.327 . S
C1585 H1579 0.950 . S
C1585 C1584 1.327 . S
C1585 C1589 1.429 . S
C1586 C1569 1.574 . S
C1586 H1580 0.949 . S
C1586 C1590 1.368 . S
C1587 C1568 1.429 . S
C1587 C1581 1.429 . S
C1587 C1588 1.523 . S
C1588 C1569 1.368 . S
C1588 C1582 1.368 . S
C1588 C1587 1.523 . S
C1589 C1573 1.429 . S
C1589 C1585 1.429 . S
C1589 C1590 1.523 . S
C1590 C1574 1.368 . S
C1590 C1586 1.368 . S
C1590 C1589 1.523 . S
H1591 C1566 0.950 . S
H1592 C1568 0.950 . S
H1593 C1569 0.949 . S
H1594 C1571 0.950 . S
H1595 C1573 0.950 . S
C1596 C1597 1.349 . S
C1596 C1598 1.327 . S
C1596 H1621 0.950 . S
C1597 C1596 1.349 . S
C1597 C1613 1.349 . S
C1598 C1596 1.327 . S
C1598 C1617 1.429 . S
C1598 H1622 0.950 . S
C1599 C1616 1.574 . S
C1599 C1618 1.368 . S
C1599 H1623 0.949 . S
H1600 C1604 0.949 . S
C1601 C1602 1.349 . S
C1601 C1603 1.327 . S
C1601 H1624 0.950 . S
C1602 C1601 1.349 . S
C1602 C1614 1.349 . S
C1603 C1601 1.327 . S
C1603 C1619 1.429 . S
C1603 H1625 0.950 . S
C1604 H1600 0.949 . S
C1604 C1612 1.574 . S
C1604 C1620 1.368 . S
H1605 C1613 0.950 . S
H1606 C1611 0.950 . S
H1607 C1612 0.949 . S
H1608 C1614 0.950 . S
H1609 C1615 0.950 . S
H1610 C1616 0.949 . S
C1611 H1606 0.950 . S
C1611 C1613 1.327 . S
C1611 C1617 1.429 . S
C1612 C1604 1.574 . S
C1612 H1607 0.949 . S
C1612 C1618 1.368 . S
C1613 C1597 1.349 . S
C1613 H1605 0.950 . S
C1613 C1611 1.327 . S
C1614 C1602 1.349 . S
C1614 H1608 0.950 . S
C1614 C1615 1.327 . S
C1615 H1609 0.950 . S
C1615 C1614 1.327 . S
C1615 C1619 1.429 . S
C1616 C1599 1.574 . S
C1616 H1610 0.949 . S
C1616 C1620 1.368 . S
C1617 C1598 1.429 . S
C1617 C1611 1.429 . S
C1617 C1618 1.523 . S
C1618 C1599 1.368 . S
C1618 C1612 1.368 . S
C1618 C1617 1.523 . S
C1619 C1603 1.429 . S
C1619 C1615 1.429 . S
C1619 C1620 1.523 . S
C1620 C1604 1.368 . S
C1620 C1616 1.368 . S
C1620 C1619 1.523 . S
H1621 C1596 0.950 . S
H1622 C1598 0.950 . S
H1623 C1599 0.949 . S
H1624 C1601 0.950 . S
H1625 C1603 0.950 . S
C1626 C1627 1.349 . S
C1626 C1628 1.327 . S
C1626 H1651 0.950 . S
C1627 C1626 1.349 . S
C1627 C1643 1.349 . S
C1628 C1626 1.327 . S
C1628 C1647 1.429 . S
C1628 H1652 0.950 . S
C1629 C1646 1.574 . S
C1629 C1648 1.368 . S
C1629 H1653 0.949 . S
H1630 C1634 0.949 . S
C1631 C1632 1.349 . S
C1631 C1633 1.327 . S
C1631 H1654 0.950 . S
C1632 C1631 1.349 . S
C1632 C1644 1.349 . S
C1633 C1631 1.327 . S
C1633 C1649 1.429 . S
C1633 H1655 0.950 . S
C1634 H1630 0.949 . S
C1634 C1642 1.574 . S
C1634 C1650 1.368 . S
H1635 C1643 0.950 . S
H1636 C1641 0.950 . S
H1637 C1642 0.949 . S
H1638 C1644 0.950 . S
H1639 C1645 0.950 . S
H1640 C1646 0.949 . S
C1641 H1636 0.950 . S
C1641 C1643 1.327 . S
C1641 C1647 1.429 . S
C1642 C1634 1.574 . S
C1642 H1637 0.949 . S
C1642 C1648 1.368 . S
C1643 C1627 1.349 . S
C1643 H1635 0.950 . S
C1643 C1641 1.327 . S
C1644 C1632 1.349 . S
C1644 H1638 0.950 . S
C1644 C1645 1.327 . S
C1645 H1639 0.950 . S
C1645 C1644 1.327 . S
C1645 C1649 1.429 . S
C1646 C1629 1.574 . S
C1646 H1640 0.949 . S
C1646 C1650 1.368 . S
C1647 C1628 1.429 . S
C1647 C1641 1.429 . S
C1647 C1648 1.523 . S
C1648 C1629 1.368 . S
C1648 C1642 1.368 . S
C1648 C1647 1.523 . S
C1649 C1633 1.429 . S
C1649 C1645 1.429 . S
C1649 C1650 1.523 . S
C1650 C1634 1.368 . S
C1650 C1646 1.368 . S
C1650 C1649 1.523 . S
H1651 C1626 0.950 . S
H1652 C1628 0.950 . S
H1653 C1629 0.949 . S
H1654 C1631 0.950 . S
H1655 C1633 0.950 . S
C1656 C1657 1.349 . S
C1656 C1658 1.327 . S
C1656 H1681 0.950 . S
C1657 C1656 1.349 . S
C1657 C1673 1.349 . S
C1658 C1656 1.327 . S
C1658 C1677 1.429 . S
C1658 H1682 0.950 . S
C1659 C1676 1.574 . S
C1659 C1678 1.368 . S
C1659 H1683 0.949 . S
H1660 C1664 0.949 . S
C1661 C1662 1.349 . S
C1661 C1663 1.327 . S
C1661 H1684 0.950 . S
C1662 C1661 1.349 . S
C1662 C1674 1.349 . S
C1663 C1661 1.327 . S
C1663 C1679 1.429 . S
C1663 H1685 0.950 . S
C1664 H1660 0.949 . S
C1664 C1672 1.574 . S
C1664 C1680 1.368 . S
H1665 C1673 0.950 . S
H1666 C1671 0.950 . S
H1667 C1672 0.949 . S
H1668 C1674 0.950 . S
H1669 C1675 0.950 . S
H1670 C1676 0.949 . S
C1671 H1666 0.950 . S
C1671 C1673 1.327 . S
C1671 C1677 1.429 . S
C1672 C1664 1.574 . S
C1672 H1667 0.949 . S
C1672 C1678 1.368 . S
C1673 C1657 1.349 . S
C1673 H1665 0.950 . S
C1673 C1671 1.327 . S
C1674 C1662 1.349 . S
C1674 H1668 0.950 . S
C1674 C1675 1.327 . S
C1675 H1669 0.950 . S
C1675 C1674 1.327 . S
C1675 C1679 1.429 . S
C1676 C1659 1.574 . S
C1676 H1670 0.949 . S
C1676 C1680 1.368 . S
C1677 C1658 1.429 . S
C1677 C1671 1.429 . S
C1677 C1678 1.523 . S
C1678 C1659 1.368 . S
C1678 C1672 1.368 . S
C1678 C1677 1.523 . S
C1679 C1663 1.429 . S
C1679 C1675 1.429 . S
C1679 C1680 1.523 . S
C1680 C1664 1.368 . S
C1680 C1676 1.368 . S
C1680 C1679 1.523 . S
H1681 C1656 0.950 . S
H1682 C1658 0.950 . S
H1683 C1659 0.949 . S
H1684 C1661 0.950 . S
H1685 C1663 0.950 . S
C1686 C1687 1.349 . S
C1686 C1688 1.327 . S
C1686 H1711 0.950 . S
C1687 C1686 1.349 . S
C1687 C1703 1.349 . S
C1688 C1686 1.327 . S
C1688 C1707 1.429 . S
C1688 H1712 0.950 . S
C1689 C1706 1.574 . S
C1689 C1708 1.368 . S
C1689 H1713 0.949 . S
H1690 C1694 0.949 . S
C1691 C1692 1.349 . S
C1691 C1693 1.327 . S
C1691 H1714 0.950 . S
C1692 C1691 1.349 . S
C1692 C1704 1.349 . S
C1693 C1691 1.327 . S
C1693 C1709 1.429 . S
C1693 H1715 0.950 . S
C1694 H1690 0.949 . S
C1694 C1702 1.574 . S
C1694 C1710 1.368 . S
H1695 C1703 0.950 . S
H1696 C1701 0.950 . S
H1697 C1702 0.949 . S
H1698 C1704 0.950 . S
H1699 C1705 0.950 . S
H1700 C1706 0.949 . S
C1701 H1696 0.950 . S
C1701 C1703 1.327 . S
C1701 C1707 1.429 . S
C1702 C1694 1.574 . S
C1702 H1697 0.949 . S
C1702 C1708 1.368 . S
C1703 C1687 1.349 . S
C1703 H1695 0.950 . S
C1703 C1701 1.327 . S
C1704 C1692 1.349 . S
C1704 H1698 0.950 . S
C1704 C1705 1.327 . S
C1705 H1699 0.950 . S
C1705 C1704 1.327 . S
C1705 C1709 1.429 . S
C1706 C1689 1.574 . S
C1706 H1700 0.949 . S
C1706 C1710 1.368 . S
C1707 C1688 1.429 . S
C1707 C1701 1.429 . S
C1707 C1708 1.523 . S
C1708 C1689 1.368 . S
C1708 C1702 1.368 . S
C1708 C1707 1.523 . S
C1709 C1693 1.429 . S
C1709 C1705 1.429 . S
C1709 C1710 1.523 . S
C1710 C1694 1.368 . S
C1710 C1706 1.368 . S
C1710 C1709 1.523 . S
H1711 C1686 0.950 . S
H1712 C1688 0.950 . S
H1713 C1689 0.949 . S
H1714 C1691 0.950 . S
H1715 C1693 0.950 . S
C1716 C1717 1.349 . S
C1716 C1718 1.327 . S
C1716 H1741 0.950 . S
C1717 C1716 1.349 . S
C1717 C1733 1.349 . S
C1718 C1716 1.327 . S
C1718 C1737 1.429 . S
C1718 H1742 0.950 . S
C1719 C1736 1.574 . S
C1719 C1738 1.368 . S
C1719 H1743 0.949 . S
H1720 C1724 0.949 . S
C1721 C1722 1.349 . S
C1721 C1723 1.327 . S
C1721 H1744 0.950 . S
C1722 C1721 1.349 . S
C1722 C1734 1.349 . S
C1723 C1721 1.327 . S
C1723 C1739 1.429 . S
C1723 H1745 0.950 . S
C1724 H1720 0.949 . S
C1724 C1732 1.574 . S
C1724 C1740 1.368 . S
H1725 C1733 0.950 . S
H1726 C1731 0.950 . S
H1727 C1732 0.949 . S
H1728 C1734 0.950 . S
H1729 C1735 0.950 . S
H1730 C1736 0.949 . S
C1731 H1726 0.950 . S
C1731 C1733 1.327 . S
C1731 C1737 1.429 . S
C1732 C1724 1.574 . S
C1732 H1727 0.949 . S
C1732 C1738 1.368 . S
C1733 C1717 1.349 . S
C1733 H1725 0.950 . S
C1733 C1731 1.327 . S
C1734 C1722 1.349 . S
C1734 H1728 0.950 . S
C1734 C1735 1.327 . S
C1735 H1729 0.950 . S
C1735 C1734 1.327 . S
C1735 C1739 1.429 . S
C1736 C1719 1.574 . S
C1736 H1730 0.949 . S
C1736 C1740 1.368 . S
C1737 C1718 1.429 . S
C1737 C1731 1.429 . S
C1737 C1738 1.523 . S
C1738 C1719 1.368 . S
C1738 C1732 1.368 . S
C1738 C1737 1.523 . S
C1739 C1723 1.429 . S
C1739 C1735 1.429 . S
C1739 C1740 1.523 . S
C1740 C1724 1.368 . S
C1740 C1736 1.368 . S
C1740 C1739 1.523 . S
H1741 C1716 0.950 . S
H1742 C1718 0.950 . S
H1743 C1719 0.949 . S
H1744 C1721 0.950 . S
H1745 C1723 0.950 . S
C1746 C1747 1.349 . S
C1746 C1748 1.327 . S
C1746 H1771 0.950 . S
C1747 C1746 1.349 . S
C1747 C1763 1.349 . S
C1748 C1746 1.327 . S
C1748 C1767 1.429 . S
C1748 H1772 0.950 . S
C1749 C1766 1.574 . S
C1749 C1768 1.368 . S
C1749 H1773 0.949 . S
H1750 C1754 0.949 . S
C1751 C1752 1.349 . S
C1751 C1753 1.327 . S
C1751 H1774 0.950 . S
C1752 C1751 1.349 . S
C1752 C1764 1.349 . S
C1753 C1751 1.327 . S
C1753 C1769 1.429 . S
C1753 H1775 0.950 . S
C1754 H1750 0.949 . S
C1754 C1762 1.574 . S
C1754 C1770 1.368 . S
H1755 C1763 0.950 1_545 S
H1756 C1761 0.950 . S
H1757 C1762 0.949 . S
H1758 C1764 0.950 . S
H1759 C1765 0.950 . S
H1760 C1766 0.949 . S
C1761 H1756 0.950 . S
C1761 C1763 1.327 . S
C1761 C1767 1.429 . S
C1762 C1754 1.574 . S
C1762 H1757 0.949 . S
C1762 C1768 1.368 . S
C1763 C1747 1.349 . S
C1763 H1755 0.950 1_565 S
C1763 C1761 1.327 . S
C1764 C1752 1.349 . S
C1764 H1758 0.950 . S
C1764 C1765 1.327 . S
C1765 H1759 0.950 . S
C1765 C1764 1.327 . S
C1765 C1769 1.429 . S
C1766 C1749 1.574 . S
C1766 H1760 0.949 . S
C1766 C1770 1.368 . S
C1767 C1748 1.429 . S
C1767 C1761 1.429 . S
C1767 C1768 1.523 . S
C1768 C1749 1.368 . S
C1768 C1762 1.368 . S
C1768 C1767 1.523 . S
C1769 C1753 1.429 . S
C1769 C1765 1.429 . S
C1769 C1770 1.523 . S
C1770 C1754 1.368 . S
C1770 C1766 1.368 . S
C1770 C1769 1.523 . S
H1771 C1746 0.950 . S
H1772 C1748 0.950 . S
H1773 C1749 0.949 . S
H1774 C1751 0.950 . S
H1775 C1753 0.950 . S
C1776 C1777 1.349 . S
C1776 C1778 1.327 . S
C1776 H1801 0.950 . S
C1777 C1776 1.349 . S
C1777 C1793 1.349 . S
C1778 C1776 1.327 . S
C1778 C1797 1.429 . S
C1778 H1802 0.950 . S
C1779 C1796 1.574 . S
C1779 C1798 1.368 . S
C1779 H1803 0.949 . S
H1780 C1784 0.949 . S
C1781 C1782 1.349 . S
C1781 C1783 1.327 . S
C1781 H1804 0.950 . S
C1782 C1781 1.349 . S
C1782 C1794 1.349 . S
C1783 C1781 1.327 . S
C1783 C1799 1.429 . S
C1783 H1805 0.950 . S
C1784 H1780 0.949 . S
C1784 C1792 1.574 . S
C1784 C1800 1.368 . S
H1785 C1793 0.950 . S
H1786 C1791 0.950 . S
H1787 C1792 0.949 . S
H1788 C1794 0.950 . S
H1789 C1795 0.950 . S
H1790 C1796 0.949 . S
C1791 H1786 0.950 . S
C1791 C1793 1.327 . S
C1791 C1797 1.429 . S
C1792 C1784 1.574 . S
C1792 H1787 0.949 . S
C1792 C1798 1.368 . S
C1793 C1777 1.349 . S
C1793 H1785 0.950 . S
C1793 C1791 1.327 . S
C1794 C1782 1.349 . S
C1794 H1788 0.950 . S
C1794 C1795 1.327 . S
C1795 H1789 0.950 . S
C1795 C1794 1.327 . S
C1795 C1799 1.429 . S
C1796 C1779 1.574 . S
C1796 H1790 0.949 . S
C1796 C1800 1.368 . S
C1797 C1778 1.429 . S
C1797 C1791 1.429 . S
C1797 C1798 1.523 . S
C1798 C1779 1.368 . S
C1798 C1792 1.368 . S
C1798 C1797 1.523 . S
C1799 C1783 1.429 . S
C1799 C1795 1.429 . S
C1799 C1800 1.523 . S
C1800 C1784 1.368 . S
C1800 C1796 1.368 . S
C1800 C1799 1.523 . S
H1801 C1776 0.950 . S
H1802 C1778 0.950 . S
H1803 C1779 0.949 . S
H1804 C1781 0.950 . S
H1805 C1783 0.950 . S
C1806 C1807 1.349 . S
C1806 C1808 1.327 . S
C1806 H1831 0.950 . S
C1807 C1806 1.349 . S
C1807 C1823 1.349 . S
C1808 C1806 1.327 . S
C1808 C1827 1.429 . S
C1808 H1832 0.950 . S
C1809 C1826 1.574 . S
C1809 C1828 1.368 . S
C1809 H1833 0.949 . S
H1810 C1814 0.949 . S
C1811 C1812 1.349 . S
C1811 C1813 1.327 . S
C1811 H1834 0.950 . S
C1812 C1811 1.349 . S
C1812 C1824 1.349 . S
C1813 C1811 1.327 . S
C1813 C1829 1.429 . S
C1813 H1835 0.950 . S
C1814 H1810 0.949 . S
C1814 C1822 1.574 . S
C1814 C1830 1.368 . S
H1815 C1823 0.950 . S
H1816 C1821 0.950 . S
H1817 C1822 0.949 . S
H1818 C1824 0.950 . S
H1819 C1825 0.950 . S
H1820 C1826 0.949 . S
C1821 H1816 0.950 . S
C1821 C1823 1.327 . S
C1821 C1827 1.429 . S
C1822 C1814 1.574 . S
C1822 H1817 0.949 . S
C1822 C1828 1.368 . S
C1823 C1807 1.349 . S
C1823 H1815 0.950 . S
C1823 C1821 1.327 . S
C1824 C1812 1.349 . S
C1824 H1818 0.950 . S
C1824 C1825 1.327 . S
C1825 H1819 0.950 . S
C1825 C1824 1.327 . S
C1825 C1829 1.429 . S
C1826 C1809 1.574 . S
C1826 H1820 0.949 . S
C1826 C1830 1.368 . S
C1827 C1808 1.429 . S
C1827 C1821 1.429 . S
C1827 C1828 1.523 . S
C1828 C1809 1.368 . S
C1828 C1822 1.368 . S
C1828 C1827 1.523 . S
C1829 C1813 1.429 . S
C1829 C1825 1.429 . S
C1829 C1830 1.523 . S
C1830 C1814 1.368 . S
C1830 C1826 1.368 . S
C1830 C1829 1.523 . S
H1831 C1806 0.950 . S
H1832 C1808 0.950 . S
H1833 C1809 0.949 . S
H1834 C1811 0.950 . S
H1835 C1813 0.950 . S
C1836 C1837 1.349 . S
C1836 C1838 1.327 . S
C1836 H1861 0.950 . S
C1837 C1836 1.349 . S
C1837 C1853 1.349 1_655 S
C1838 C1836 1.327 . S
C1838 C1857 1.429 1_655 S
C1838 H1862 0.950 1_554 S
C1839 C1856 1.574 . S
C1839 C1858 1.368 . S
C1839 H1863 0.949 . S
H1840 C1844 0.949 . S
C1841 C1842 1.349 . S
C1841 C1843 1.327 . S
C1841 H1864 0.950 . S
C1842 C1841 1.349 . S
C1842 C1854 1.349 . S
C1843 C1841 1.327 . S
C1843 C1859 1.429 . S
C1843 H1865 0.950 1_556 S
C1844 H1840 0.949 . S
C1844 C1852 1.574 . S
C1844 C1860 1.368 . S
H1845 C1853 0.950 . S
H1846 C1851 0.950 . S
H1847 C1852 0.949 . S
H1848 C1854 0.950 . S
H1849 C1855 0.950 . S
H1850 C1856 0.949 . S
C1851 H1846 0.950 . S
C1851 C1853 1.327 . S
C1851 C1857 1.429 . S
C1852 C1844 1.574 . S
C1852 H1847 0.949 . S
C1852 C1858 1.368 1_556 S
C1853 C1837 1.349 1_455 S
C1853 H1845 0.950 . S
C1853 C1851 1.327 . S
C1854 C1842 1.349 . S
C1854 H1848 0.950 . S
C1854 C1855 1.327 . S
C1855 H1849 0.950 . S
C1855 C1854 1.327 . S
C1855 C1859 1.429 . S
C1856 C1839 1.574 . S
C1856 H1850 0.949 . S
C1856 C1860 1.368 1_554 S
C1857 C1838 1.429 1_455 S
C1857 C1851 1.429 . S
C1857 C1858 1.523 . S
C1858 C1839 1.368 . S
C1858 C1852 1.368 1_554 S
C1858 C1857 1.523 . S
C1859 C1843 1.429 . S
C1859 C1855 1.429 . S
C1859 C1860 1.523 . S
C1860 C1844 1.368 . S
C1860 C1856 1.368 1_556 S
C1860 C1859 1.523 . S
H1861 C1836 0.950 . S
H1862 C1838 0.950 1_556 S
H1863 C1839 0.949 . S
H1864 C1841 0.950 . S
H1865 C1843 0.950 1_554 S
C1866 C1867 1.349 . S
C1866 C1868 1.327 . S
C1866 H1891 0.950 . S
C1867 C1866 1.349 . S
C1867 C1883 1.349 . S
C1868 C1866 1.327 . S
C1868 C1887 1.429 . S
C1868 H1892 0.950 . S
C1869 C1886 1.574 1_556 S
C1869 C1888 1.368 . S
C1869 H1893 0.949 . S
H1870 C1874 0.949 . S
C1871 C1872 1.349 . S
C1871 C1873 1.327 . S
C1871 H1894 0.950 . S
C1872 C1871 1.349 . S
C1872 C1884 1.349 . S
C1873 C1871 1.327 . S
C1873 C1889 1.429 . S
C1873 H1895 0.950 . S
C1874 H1870 0.949 . S
C1874 C1882 1.574 1_554 S
C1874 C1890 1.368 . S
H1875 C1883 0.950 . S
H1876 C1881 0.950 . S
H1877 C1882 0.949 . S
H1878 C1884 0.950 . S
H1879 C1885 0.950 . S
H1880 C1886 0.949 . S
C1881 H1876 0.950 . S
C1881 C1883 1.327 . S
C1881 C1887 1.429 . S
C1882 C1874 1.574 1_556 S
C1882 H1877 0.949 . S
C1882 C1888 1.368 . S
C1883 C1867 1.349 . S
C1883 H1875 0.950 . S
C1883 C1881 1.327 . S
C1884 C1872 1.349 . S
C1884 H1878 0.950 . S
C1884 C1885 1.327 . S
C1885 H1879 0.950 . S
C1885 C1884 1.327 . S
C1885 C1889 1.429 . S
C1886 C1869 1.574 1_554 S
C1886 H1880 0.949 . S
C1886 C1890 1.368 . S
C1887 C1868 1.429 . S
C1887 C1881 1.429 . S
C1887 C1888 1.523 . S
C1888 C1869 1.368 . S
C1888 C1882 1.368 . S
C1888 C1887 1.523 . S
C1889 C1873 1.429 . S
C1889 C1885 1.429 . S
C1889 C1890 1.523 . S
C1890 C1874 1.368 . S
C1890 C1886 1.368 . S
C1890 C1889 1.523 . S
H1891 C1866 0.950 . S
H1892 C1868 0.950 . S
H1893 C1869 0.949 . S
H1894 C1871 0.950 . S
H1895 C1873 0.950 . S
C1896 C1897 1.349 . S
C1896 C1898 1.327 . S
C1896 H1921 0.950 . S
C1897 C1896 1.349 . S
C1897 C1913 1.349 . S
C1898 C1896 1.327 . S
C1898 C1917 1.429 . S
C1898 H1922 0.950 . S
C1899 C1916 1.567 1_554 S
C1899 C1918 1.368 . S
C1899 H1923 0.949 . S
H1900 C1904 0.949 . S
C1901 C1902 1.349 . S
C1901 C1903 1.327 . S
C1901 H1924 0.950 . S
C1902 C1901 1.349 . S
C1902 C1914 1.349 1_565 S
C1903 C1901 1.327 . S
C1903 C1919 1.429 1_565 S
C1903 H1925 0.950 . S
C1904 H1900 0.949 . S
C1904 C1912 1.574 1_556 S
C1904 C1920 1.368 . S
H1905 C1913 0.950 . S
H1906 C1911 0.950 . S
H1907 C1912 0.949 . S
H1908 C1914 0.950 . S
H1909 C1915 0.950 . S
H1910 C1916 0.950 . S
C1911 H1906 0.950 . S
C1911 C1913 1.327 . S
C1911 C1917 1.429 . S
C1912 C1904 1.574 1_554 S
C1912 H1907 0.949 . S
C1912 C1918 1.368 . S
C1913 C1897 1.349 . S
C1913 H1905 0.950 . S
C1913 C1911 1.327 . S
C1914 C1902 1.349 1_545 S
C1914 H1908 0.950 . S
C1914 C1915 1.327 . S
C1915 H1909 0.950 . S
C1915 C1914 1.327 . S
C1915 C1919 1.429 . S
C1916 C1899 1.567 1_556 S
C1916 H1910 0.950 . S
C1916 C1920 1.374 . S
C1917 C1898 1.429 . S
C1917 C1911 1.429 . S
C1917 C1918 1.523 . S
C1918 C1899 1.368 . S
C1918 C1912 1.368 . S
C1918 C1917 1.523 . S
C1919 C1903 1.429 1_545 S
C1919 C1915 1.429 . S
C1919 C1920 1.523 . S
C1920 C1904 1.368 . S
C1920 C1916 1.374 . S
C1920 C1919 1.523 . S
H1921 C1896 0.950 . S
H1922 C1898 0.950 . S
H1923 C1899 0.949 . S
H1924 C1901 0.950 . S
H1925 C1903 0.950 . S
C1926 C1927 1.349 . S
C1926 C1928 1.327 . S
C1926 H1951 0.950 . S
C1927 C1926 1.349 . S
C1927 C1943 1.349 . S
C1928 C1926 1.327 . S
C1928 C1947 1.429 . S
C1928 H1952 0.950 . S
C1929 C1946 1.574 . S
C1929 C1948 1.368 . S
C1929 H1953 0.949 . S
H1930 C1934 0.949 . S
C1931 C1932 1.348 . S
C1931 C1933 1.326 1_565 S
C1931 H1954 0.952 . S
C1932 C1931 1.348 . S
C1932 C1944 1.361 . S
C1933 C1931 1.326 1_545 S
C1933 C1949 1.429 . S
C1933 H1955 0.950 . S
C1934 H1930 0.949 . S
C1934 C1942 1.574 . S
C1934 C1950 1.368 . S
H1935 C1943 0.950 . S
H1936 C1941 0.950 . S
H1937 C1942 0.949 . S
H1938 C1944 0.947 . S
H1939 C1945 0.950 . S
H1940 C1946 0.949 . S
C1941 H1936 0.950 . S
C1941 C1943 1.327 . S
C1941 C1947 1.429 . S
C1942 C1934 1.574 . S
C1942 H1937 0.949 . S
C1942 C1948 1.368 . S
C1943 C1927 1.349 . S
C1943 H1935 0.950 . S
C1943 C1941 1.327 . S
C1944 C1932 1.361 . S
C1944 H1938 0.947 . S
C1944 C1945 1.320 1_565 S
C1945 H1939 0.950 . S
C1945 C1944 1.320 1_545 S
C1945 C1949 1.429 . S
C1946 C1929 1.574 . S
C1946 H1940 0.949 . S
C1946 C1950 1.368 . S
C1947 C1928 1.429 . S
C1947 C1941 1.429 . S
C1947 C1948 1.523 . S
C1948 C1929 1.368 . S
C1948 C1942 1.368 . S
C1948 C1947 1.523 . S
C1949 C1933 1.429 . S
C1949 C1945 1.429 . S
C1949 C1950 1.523 . S
C1950 C1934 1.368 . S
C1950 C1946 1.368 . S
C1950 C1949 1.523 . S
H1951 C1926 0.950 . S
H1952 C1928 0.950 . S
H1953 C1929 0.949 . S
H1954 C1931 0.952 . S
H1955 C1933 0.950 . S
C1956 C1957 1.349 . S
C1956 C1958 1.327 . S
C1956 H1981 0.950 . S
C1957 C1956 1.349 . S
C1957 C1973 1.349 1_655 S
C1958 C1956 1.327 . S
C1958 C1977 1.429 1_655 S
C1958 H1982 0.950 . S
C1959 C1976 1.574 . S
C1959 C1978 1.368 . S
C1959 H1983 0.949 . S
H1960 C1964 0.949 . S
C1961 C1962 1.349 . S
C1961 C1963 1.327 . S
C1961 H1984 0.950 . S
C1962 C1961 1.349 . S
C1962 C1974 1.349 . S
C1963 C1961 1.327 . S
C1963 C1979 1.429 . S
C1963 H1985 0.950 . S
C1964 H1960 0.949 . S
C1964 C1972 1.574 . S
C1964 C1980 1.368 . S
H1965 C1973 0.950 . S
H1966 C1971 0.950 . S
H1967 C1972 0.949 . S
H1968 C1974 0.950 . S
H1969 C1975 0.950 . S
H1970 C1976 0.949 . S
C1971 H1966 0.950 . S
C1971 C1973 1.327 . S
C1971 C1977 1.429 . S
C1972 C1964 1.574 . S
C1972 H1967 0.949 . S
C1972 C1978 1.368 . S
C1973 C1957 1.349 1_455 S
C1973 H1965 0.950 . S
C1973 C1971 1.327 . S
C1974 C1962 1.349 . S
C1974 H1968 0.950 . S
C1974 C1975 1.327 . S
C1975 H1969 0.950 . S
C1975 C1974 1.327 . S
C1975 C1979 1.429 . S
C1976 C1959 1.574 . S
C1976 H1970 0.949 . S
C1976 C1980 1.368 . S
C1977 C1958 1.429 1_455 S
C1977 C1971 1.429 . S
C1977 C1978 1.523 . S
C1978 C1959 1.368 . S
C1978 C1972 1.368 . S
C1978 C1977 1.523 . S
C1979 C1963 1.429 . S
C1979 C1975 1.429 . S
C1979 C1980 1.523 . S
C1980 C1964 1.368 . S
C1980 C1976 1.368 . S
C1980 C1979 1.523 . S
H1981 C1956 0.950 . S
H1982 C1958 0.950 . S
H1983 C1959 0.949 . S
H1984 C1961 0.950 . S
H1985 C1963 0.950 . S
C1986 C1987 1.349 . S
C1986 C1988 1.327 . S
C1986 H2011 0.950 . S
C1987 C1986 1.349 . S
C1987 C2003 1.349 . S
C1988 C1986 1.327 . S
C1988 C2007 1.429 . S
C1988 H2012 0.950 . S
C1989 C2006 1.574 . S
C1989 C2008 1.368 . S
C1989 H2013 0.949 . S
H1990 C1994 0.949 . S
C1991 C1992 1.349 . S
C1991 C1993 1.327 . S
C1991 H2014 0.950 . S
C1992 C1991 1.349 . S
C1992 C2004 1.349 . S
C1993 C1991 1.327 . S
C1993 C2009 1.429 . S
C1993 H2015 0.950 . S
C1994 H1990 0.949 . S
C1994 C2002 1.574 . S
C1994 C2010 1.368 . S
H1995 C2003 0.950 . S
H1996 C2001 0.950 . S
H1997 C2002 0.949 . S
H1998 C2004 0.950 . S
H1999 C2005 0.950 . S
H2000 C2006 0.949 . S
C2001 H1996 0.950 . S
C2001 C2003 1.327 . S
C2001 C2007 1.429 . S
C2002 C1994 1.574 . S
C2002 H1997 0.949 . S
C2002 C2008 1.368 . S
C2003 C1987 1.349 . S
C2003 H1995 0.950 . S
C2003 C2001 1.327 . S
C2004 C1992 1.349 . S
C2004 H1998 0.950 . S
C2004 C2005 1.327 . S
C2005 H1999 0.950 . S
C2005 C2004 1.327 . S
C2005 C2009 1.429 . S
C2006 C1989 1.574 . S
C2006 H2000 0.949 . S
C2006 C2010 1.368 . S
C2007 C1988 1.429 . S
C2007 C2001 1.429 . S
C2007 C2008 1.523 . S
C2008 C1989 1.368 . S
C2008 C2002 1.368 . S
C2008 C2007 1.523 . S
C2009 C1993 1.429 . S
C2009 C2005 1.429 . S
C2009 C2010 1.523 . S
C2010 C1994 1.368 . S
C2010 C2006 1.368 . S
C2010 C2009 1.523 . S
H2011 C1986 0.950 . S
H2012 C1988 0.950 . S
H2013 C1989 0.949 . S
H2014 C1991 0.950 . S
H2015 C1993 0.950 . S
C397 C53 1.331 . S
C402 C6 1.331 . S
C427 C9 1.331 1_655 S
C432 C27 1.331 . S
C457 C29 1.331 . S
C462 C50 1.331 . S
C487 C75 1.331 1_655 S
C492 C115 1.331 . S
C517 C72 1.331 . S
C522 C95 1.331 . S
C547 C93 1.331 . S
C552 C117 1.331 . S
C577 C185 1.331 . S
C582 C138 1.331 . S
C607 C160 1.331 . S
C612 C141 1.331 . S
C637 C163 1.331 . S
C642 C182 1.331 . S
C667 C205 1.331 . S
C672 C247 1.331 . S
C697 C203 1.331 . S
C702 C227 1.331 . S
C727 C249 1.331 . S
C732 C225 1.331 . S
C757 C315 1.331 . S
C762 C270 1.331 . S
C787 C273 1.331 . S
C792 C291 1.331 . S
C817 C293 1.331 . S
C822 C313 1.331 . S
C847 C379 1.331 . S
C852 C339 1.331 . S
C877 C359 1.331 . S
C882 C336 1.331 . S
C907 C381 1.331 . S
C912 C357 1.331 . S
C937 C5 1.896 . S
C942 C295 1.896 . S
C967 C317 1.896 . S
C972 C26 1.896 . S
C997 C49 1.896 . S
C1002 C272 1.896 . S
C1027 C159 1.922 . S
C1032 C52 1.896 . S
C1057 C8 1.896 . S
C1062 C181 1.922 . S
C1087 C137 1.922 . S
C1092 C31 1.896 . S
C1117 C226 1.896 . S
C1122 C73 1.896 . S
C1147 C96 1.896 . S
C1152 C248 1.896 . S
C1177 C204 1.896 . S
C1182 C118 1.896 . S
C1207 C116 1.896 . S
C1212 C360 1.894 . S
C1237 C382 1.894 . S
C1242 C70 1.896 . S
C1267 C337 1.894 . S
C1272 C94 1.896 . S
C1297 C290 1.896 . S
C1302 C184 1.896 . S
C1327 C312 1.896 . S
C1332 C140 1.896 . S
C1357 C162 1.896 . S
C1362 C269 1.896 . S
C1387 C206 1.896 . S
C1392 C358 1.896 . S
C1417 C380 1.896 . S
C1422 C228 1.896 . S
C1447 C250 1.896 . S
C1452 C334 1.896 . S
C1477 C4 0.940 . S
C1482 C338 0.940 . S
C1507 C28 0.940 . S
C1512 C361 0.940 . S
C1537 C383 0.940 . S
C1542 C48 0.940 1_565 S
C1567 C246 0.940 . S
C1572 C51 0.940 . S
C1597 C202 0.940 . S
C1602 C7 0.940 1_655 S
C1627 C30 0.940 . S
C1632 C224 0.940 . S
C1657 C74 0.940 1_655 S
C1662 C136 0.940 . S
C1687 C97 0.940 . S
C1692 C158 0.940 . S
C1717 C119 0.940 . S
C1722 C180 0.940 . S
C1747 C114 0.940 1_565 S
C1752 C316 0.940 . S
C1777 C71 0.939 . S
C1782 C271 0.939 . S
C1807 C294 0.940 . S
C1812 C92 0.940 . S
C1837 C183 0.940 . S
C1842 C378 0.940 . S
C1867 C335 0.940 . S
C1872 C139 0.940 . S
C1897 C161 0.940 . S
C1902 C356 0.940 . S
C1927 C207 0.940 . S
C1932 C268 0.940 . S
C1957 C229 0.940 . S
C1962 C292 0.940 . S
C1987 C314 0.940 . S
C1992 C251 0.940 . S
