# Generated by pormake.
# Topology ecf, (8)-cn, num edge types: 1
# Building blocks:
#     Node 0, Type 0, BuildingBlock: AJUNOK_clean_sbu_0, # of connection points: 8
#     Node 1, Type 0, BuildingBlock: AJUNOK_clean_sbu_0, # of connection points: 8
#     Node 2, Type 0, BuildingBlock: AJUNOK_clean_sbu_0, # of connection points: 8
#     Node 3, Type 0, BuildingBlock: AJUNOK_clean_sbu_0, # of connection points: 8
#     Node 4, Type 0, BuildingBlock: AJUNOK_clean_sbu_0, # of connection points: 8
#     Node 5, Type 0, BuildingBlock: AJUNOK_clean_sbu_0, # of connection points: 8
#     Edge 6, Type (0, 0), BuildingBlock: XIVTED_clean_linker_0, # of connection points: 2
#     Edge 7, Type (0, 0), BuildingBlock: XIVTED_clean_linker_0, # of connection points: 2
#     Edge 8, Type (0, 0), BuildingBlock: XIVTED_clean_linker_0, # of connection points: 2
#     Edge 9, Type (0, 0), BuildingBlock: XIVTED_clean_linker_0, # of connection points: 2
#     Edge 10, Type (0, 0), BuildingBlock: XIVTED_clean_linker_0, # of connection points: 2
#     Edge 11, Type (0, 0), BuildingBlock: XIVTED_clean_linker_0, # of connection points: 2
#     Edge 12, Type (0, 0), BuildingBlock: XIVTED_clean_linker_0, # of connection points: 2
#     Edge 13, Type (0, 0), BuildingBlock: XIVTED_clean_linker_0, # of connection points: 2
#     Edge 14, Type (0, 0), BuildingBlock: XIVTED_clean_linker_0, # of connection points: 2
#     Edge 15, Type (0, 0), BuildingBlock: XIVTED_clean_linker_0, # of connection points: 2
#     Edge 16, Type (0, 0), BuildingBlock: XIVTED_clean_linker_0, # of connection points: 2
#     Edge 17, Type (0, 0), BuildingBlock: XIVTED_clean_linker_0, # of connection points: 2
#     Edge 18, Type (0, 0), BuildingBlock: XIVTED_clean_linker_0, # of connection points: 2
#     Edge 19, Type (0, 0), BuildingBlock: XIVTED_clean_linker_0, # of connection points: 2
#     Edge 20, Type (0, 0), BuildingBlock: XIVTED_clean_linker_0, # of connection points: 2
#     Edge 21, Type (0, 0), BuildingBlock: XIVTED_clean_linker_0, # of connection points: 2
#     Edge 22, Type (0, 0), BuildingBlock: XIVTED_clean_linker_0, # of connection points: 2
#     Edge 23, Type (0, 0), BuildingBlock: XIVTED_clean_linker_0, # of connection points: 2
#     Edge 24, Type (0, 0), BuildingBlock: XIVTED_clean_linker_0, # of connection points: 2
#     Edge 25, Type (0, 0), BuildingBlock: XIVTED_clean_linker_0, # of connection points: 2
#     Edge 26, Type (0, 0), BuildingBlock: XIVTED_clean_linker_0, # of connection points: 2
#     Edge 27, Type (0, 0), BuildingBlock: XIVTED_clean_linker_0, # of connection points: 2
#     Edge 28, Type (0, 0), BuildingBlock: XIVTED_clean_linker_0, # of connection points: 2
#     Edge 29, Type (0, 0), BuildingBlock: XIVTED_clean_linker_0, # of connection points: 2
# Relax obj value: 0.407
# Max RMSD: 0.282
# Mean RMSD: 0.282
data_MOF--net-ecf--node1-AJUNOK_clean_sbu_0--edge1-XIVTED_clean_linker_0
_symmetry_space_group_name_H-M    P1
_symmetry_Int_Tables_number       1
_symmetry_cell_setting            triclinic
loop_
_symmetry_equiv_pos_as_xyz
'x, y, z'
_cell_length_a     40.068079
_cell_length_b     40.041554
_cell_length_c     23.76515
_cell_angle_alpha  89.963595
_cell_angle_beta   90.023299
_cell_angle_gamma 120.01921
loop_
_atom_site_label
_atom_site_type_symbol
_atom_site_fract_x
_atom_site_fract_y
_atom_site_fract_z
_atom_type_partial_charge
Cd0 Cd 0.12785 0.32348 0.23534 0.0
Cd1 Cd 0.19908 0.32408 0.33745 0.0
C2 C 0.06038 0.23845 0.26431 0.0
N3 N 0.09385 0.25569 0.23454 0.0
C4 C 0.08451 0.19405 0.20723 0.0
C5 C 0.05135 0.17586 0.24068 0.0
C6 C 0.03902 0.1985 0.26885 0.0
C7 C 0.10571 0.23425 0.20522 0.0
H8 H 0.04993 0.25561 0.28437 0.0
H9 H 0.13129 0.24786 0.17975 0.0
C10 C 0.20471 0.30975 0.18691 0.0
C11 C 0.25263 0.40326 0.27126 0.0
C12 C 0.27796 0.44282 0.2657 0.0
C13 C 0.27843 0.46839 0.30663 0.0
C14 C 0.25244 0.45315 0.35185 0.0
C15 C 0.22756 0.41329 0.35575 0.0
N16 N 0.22758 0.38932 0.31522 0.0
H17 H 0.25427 0.38369 0.24174 0.0
H18 H 0.20907 0.40128 0.39211 0.0
C19 C 0.18257 0.23964 0.30713 0.0
N20 N 0.16508 0.2564 0.33493 0.0
C21 C 0.11094 0.19442 0.35587 0.0
C22 C 0.12724 0.17687 0.3239 0.0
C23 C 0.16374 0.19986 0.29999 0.0
C24 C 0.13021 0.23452 0.36023 0.0
H25 H 0.21128 0.25708 0.29045 0.0
H26 H 0.1171 0.24767 0.3841 0.0
C27 C 0.10861 0.30982 0.38642 0.0
C28 C 0.08269 0.34371 0.16861 0.0
N29 N 0.16382 0.38888 0.25746 0.0
C30 C 0.15243 0.4026 0.30134 0.0
C31 C 0.16638 0.44211 0.30695 0.0
C32 C 0.19148 0.46785 0.26615 0.0
C33 C 0.20246 0.45282 0.22094 0.0
C34 C 0.18778 0.41301 0.217 0.0
C35 C 0.26396 0.34396 0.40524 0.0
O36 O 0.17734 0.31624 0.17506 0.0
O37 O 0.21441 0.31084 0.23829 0.0
O38 O 0.14252 0.3166 0.39865 0.0
O39 O 0.1001 0.3105 0.33488 0.0
O40 O 0.11236 0.34447 0.14871 0.0
O41 O 0.07165 0.32908 0.21695 0.0
O42 O 0.23392 0.34223 0.42554 0.0
O43 O 0.26192 0.332 0.35545 0.0
H44 H 0.13123 0.38291 0.33079 0.0
H45 H 0.19451 0.40118 0.1807 0.0
H46 H 0.09427 0.17747 0.18354 0.0
H47 H 0.01272 0.1854 0.29343 0.0
H48 H 0.29832 0.453 0.23117 0.0
H49 H 0.2519 0.47169 0.38454 0.0
H50 H 0.08336 0.17749 0.37641 0.0
H51 H 0.17787 0.18713 0.27679 0.0
H52 H 0.15601 0.45211 0.34145 0.0
H53 H 0.22156 0.4715 0.18834 0.0
Cd54 Cd 0.87491 0.2075 0.84053 0.0
Cd55 Cd 0.80647 0.13315 0.73968 0.0
C56 C 0.94837 0.19887 0.81722 0.0
N57 N 0.91302 0.17836 0.84142 0.0
C58 C 0.92356 0.1255 0.85847 0.0
C59 C 0.95831 0.1446 0.82869 0.0
C60 C 0.97123 0.18219 0.80928 0.0
C61 C 0.90084 0.14269 0.86346 0.0
H62 H 0.95853 0.22797 0.80276 0.0
H63 H 0.87336 0.12702 0.88407 0.0
C64 C 0.80065 0.11453 0.88982 0.0
C65 C 0.75415 0.16109 0.80564 0.0
C66 C 0.72815 0.17468 0.80891 0.0
C67 C 0.72574 0.19641 0.76435 0.0
C68 C 0.75089 0.20541 0.71849 0.0
C69 C 0.77671 0.19157 0.71721 0.0
N70 N 0.7781 0.17009 0.76055 0.0
H71 H 0.75378 0.14187 0.83779 0.0
H72 H 0.79436 0.19632 0.68034 0.0
C73 C 0.82241 0.06506 0.77173 0.0
N74 N 0.8402 0.09921 0.7436 0.0
C75 C 0.89493 0.09175 0.72612 0.0
C76 C 0.8786 0.05843 0.7594 0.0
C77 C 0.84148 0.04458 0.78125 0.0
C78 C 0.87544 0.11221 0.71952 0.0
H79 H 0.79342 0.0537 0.7873 0.0
H80 H 0.88886 0.13838 0.69534 0.0
C81 C 0.89696 0.20945 0.69081 0.0
C82 C 0.91675 0.27238 0.91015 0.0
N83 N 0.83988 0.2372 0.81317 0.0
C84 C 0.8509 0.26043 0.76703 0.0
C85 C 0.83731 0.2861 0.75849 0.0
C86 C 0.81291 0.28877 0.79854 0.0
C87 C 0.802 0.26436 0.84575 0.0
C88 C 0.81642 0.23922 0.85273 0.0
C89 C 0.74217 0.08813 0.67106 0.0
O90 O 0.82703 0.14904 0.90121 0.0
O91 O 0.79127 0.10529 0.83857 0.0
O92 O 0.86349 0.18135 0.67909 0.0
O93 O 0.9048 0.22063 0.74183 0.0
O94 O 0.88745 0.2423 0.92845 0.0
O95 O 0.92869 0.27058 0.86163 0.0
O96 O 0.77245 0.11639 0.65115 0.0
O97 O 0.74363 0.07827 0.72113 0.0
H98 H 0.87157 0.26042 0.73799 0.0
H99 H 0.80981 0.22206 0.89061 0.0
H100 H 0.91324 0.09698 0.87553 0.0
H101 H 0.99867 0.19844 0.78792 0.0
H102 H 0.70846 0.16619 0.8442 0.0
H103 H 0.74951 0.22165 0.68299 0.0
H104 H 0.92286 0.10249 0.70678 0.0
H105 H 0.82716 0.01796 0.80508 0.0
H106 H 0.84759 0.30511 0.72236 0.0
H107 H 0.78326 0.26527 0.87777 0.0
Cd108 Cd 0.66546 0.80128 0.2326 0.0
Cd109 Cd 0.67697 0.8746 0.33544 0.0
C110 C 0.73704 0.79011 0.23195 0.0
N111 N 0.7288 0.8181 0.21855 0.0
C112 C 0.79449 0.8615 0.19422 0.0
C113 C 0.80402 0.83361 0.21043 0.0
C114 C 0.77457 0.79731 0.22856 0.0
C115 C 0.7563 0.85305 0.19865 0.0
H116 H 0.71456 0.76249 0.24716 0.0
H117 H 0.74908 0.87486 0.18799 0.0
C118 C 0.69256 0.89917 0.18971 0.0
C119 C 0.59932 0.85258 0.26671 0.0
C120 C 0.56025 0.84067 0.26079 0.0
C121 C 0.53376 0.81704 0.30205 0.0
C122 C 0.54764 0.80543 0.34806 0.0
C123 C 0.58705 0.81829 0.3525 0.0
N124 N 0.61189 0.84077 0.31155 0.0
H125 H 0.61966 0.87272 0.23682 0.0
H126 H 0.5981 0.81133 0.38953 0.0
C127 C 0.76153 0.94332 0.31083 0.0
N128 N 0.74373 0.90511 0.3235 0.0
C129 C 0.80353 0.9056 0.31693 0.0
C130 C 0.82174 0.94417 0.30003 0.0
C131 C 0.80059 0.96333 0.29766 0.0
C132 C 0.76401 0.88623 0.32734 0.0
H133 H 0.74507 0.95801 0.3094 0.0
H134 H 0.74979 0.85604 0.337 0.0
C135 C 0.69057 0.79714 0.38044 0.0
C136 C 0.63572 0.73927 0.15516 0.0
N137 N 0.60131 0.7712 0.26157 0.0
C138 C 0.58984 0.74708 0.30671 0.0
C139 C 0.55075 0.72085 0.31551 0.0
C140 C 0.52317 0.71867 0.27672 0.0
C141 C 0.53595 0.74433 0.23088 0.0
C142 C 0.57531 0.76992 0.22355 0.0
C143 C 0.66074 0.91888 0.41032 0.0
O144 O 0.68162 0.864 0.17771 0.0
O145 O 0.69333 0.90845 0.24111 0.0
O146 O 0.686 0.82561 0.39308 0.0
O147 O 0.68627 0.78609 0.32907 0.0
O148 O 0.6423 0.77245 0.14042 0.0
O149 O 0.64509 0.73583 0.20473 0.0
O150 O 0.66489 0.89135 0.42802 0.0
O151 O 0.66881 0.92846 0.35934 0.0
H152 H 0.61106 0.74683 0.33443 0.0
H153 H 0.58534 0.78792 0.1864 0.0
H154 H 0.81639 0.88984 0.18015 0.0
H155 H 0.78059 0.77517 0.24283 0.0
H156 H 0.55128 0.8515 0.2256 0.0
H157 H 0.52843 0.78732 0.38099 0.0
H158 H 0.81929 0.89023 0.32007 0.0
H159 H 0.8142 0.99349 0.28593 0.0
H160 H 0.54256 0.70098 0.35053 0.0
H161 H 0.51589 0.74394 0.2 0.0
Cd162 Cd 0.80465 0.68092 0.83523 0.0
Cd163 Cd 0.87831 0.68059 0.73727 0.0
C164 C 0.82238 0.765 0.80157 0.0
N165 N 0.83934 0.74851 0.83141 0.0
C166 C 0.89295 0.81069 0.8528 0.0
C167 C 0.87745 0.82796 0.81837 0.0
C168 C 0.84133 0.80469 0.79347 0.0
C169 C 0.8736 0.77063 0.8581 0.0
H170 H 0.79399 0.7474 0.78393 0.0
H171 H 0.88618 0.75768 0.88371 0.0
C172 C 0.89418 0.69503 0.88997 0.0
C173 C 0.85099 0.60157 0.80467 0.0
C174 C 0.83675 0.56207 0.81129 0.0
C175 C 0.81251 0.53611 0.77002 0.0
C176 C 0.80245 0.55094 0.72345 0.0
C177 C 0.81742 0.59078 0.71851 0.0
N178 N 0.8408 0.61515 0.75923 0.0
H179 H 0.87164 0.62138 0.83459 0.0
H180 H 0.81153 0.60245 0.68118 0.0
C181 C 0.9461 0.76439 0.76827 0.0
N182 N 0.91268 0.74818 0.7384 0.0
C183 C 0.92324 0.81064 0.71355 0.0
C184 C 0.95604 0.82776 0.74791 0.0
C185 C 0.96786 0.80418 0.77456 0.0
C186 C 0.90149 0.77052 0.71005 0.0
H187 H 0.95605 0.74648 0.78733 0.0
H188 H 0.8759 0.75766 0.68453 0.0
C189 C 0.80307 0.69506 0.68257 0.0
C190 C 0.73805 0.66555 0.89657 0.0
N191 N 0.77556 0.61514 0.81448 0.0
C192 C 0.75149 0.60154 0.76939 0.0
C193 C 0.72577 0.56208 0.76342 0.0
C194 C 0.72395 0.53616 0.80489 0.0
C195 C 0.74919 0.55104 0.85109 0.0
C196 C 0.77444 0.59085 0.85546 0.0
C197 C 0.92824 0.6632 0.67622 0.0
O198 O 0.86014 0.68864 0.9005 0.0
O199 O 0.90339 0.6938 0.83891 0.0
O200 O 0.83077 0.68875 0.67216 0.0
O201 O 0.79248 0.69368 0.73357 0.0
O202 O 0.76583 0.66453 0.92035 0.0
O203 O 0.74297 0.67705 0.84616 0.0
O204 O 0.89957 0.66254 0.65256 0.0
O205 O 0.93527 0.67516 0.72638 0.0
H206 H 0.75081 0.62134 0.73926 0.0
H207 H 0.79227 0.60255 0.89251 0.0
H208 H 0.92007 0.82776 0.87436 0.0
H209 H 0.82759 0.81711 0.76856 0.0
H210 H 0.84637 0.55226 0.84695 0.0
H211 H 0.78399 0.53209 0.69049 0.0
H212 H 0.91397 0.82793 0.69073 0.0
H213 H 0.99396 0.8164 0.79956 0.0
H214 H 0.70611 0.55234 0.72804 0.0
H215 H 0.74885 0.53228 0.88418 0.0
Cd216 Cd 0.19946 0.87392 0.23755 0.0
Cd217 Cd 0.13691 0.80031 0.34054 0.0
C218 C 0.18369 0.94264 0.26102 0.0
N219 N 0.16323 0.90463 0.24723 0.0
C220 C 0.10426 0.90599 0.25004 0.0
C221 C 0.12458 0.94435 0.26787 0.0
C222 C 0.16476 0.96296 0.27278 0.0
C223 C 0.12422 0.88626 0.24107 0.0
H224 H 0.21474 0.95694 0.26434 0.0
H225 H 0.10816 0.85623 0.23055 0.0
C226 C 0.10872 0.7965 0.19196 0.0
C227 C 0.15893 0.74662 0.2665 0.0
C228 C 0.17188 0.72046 0.25777 0.0
C229 C 0.19714 0.7182 0.29674 0.0
C230 C 0.2098 0.74372 0.34271 0.0
C231 C 0.19595 0.76926 0.34996 0.0
N232 N 0.17136 0.77061 0.31176 0.0
H233 H 0.13753 0.74637 0.23864 0.0
H234 H 0.20372 0.78713 0.3872 0.0
C235 C 0.0544 0.78949 0.33764 0.0
N236 N 0.09043 0.81748 0.35187 0.0
C237 C 0.06801 0.8613 0.37241 0.0
C238 C 0.03087 0.83351 0.35476 0.0
C239 C 0.02421 0.79697 0.33823 0.0
C240 C 0.09768 0.85264 0.37042 0.0
H241 H 0.04939 0.76169 0.32357 0.0
H242 H 0.12655 0.87442 0.38186 0.0
C243 C 0.20708 0.89782 0.38396 0.0
C244 C 0.26125 0.91919 0.16486 0.0
N245 N 0.23084 0.84032 0.26232 0.0
C246 C 0.25506 0.85219 0.30733 0.0
C247 C 0.28227 0.84036 0.31362 0.0
C248 C 0.28531 0.81673 0.27257 0.0
C249 C 0.25993 0.805 0.22645 0.0
C250 C 0.23334 0.81779 0.22162 0.0
C251 C 0.10379 0.738 0.41754 0.0
O252 O 0.14181 0.82494 0.17935 0.0
O253 O 0.10183 0.78552 0.24337 0.0
O254 O 0.18285 0.86272 0.39634 0.0
O255 O 0.21567 0.90681 0.33248 0.0
O256 O 0.23075 0.89044 0.14642 0.0
O257 O 0.26084 0.92926 0.2151 0.0
O258 O 0.13028 0.77109 0.4327 0.0
O259 O 0.0914 0.73478 0.36775 0.0
H260 H 0.25474 0.87235 0.33704 0.0
H261 H 0.21544 0.81075 0.18449 0.0
H262 H 0.07326 0.89107 0.24499 0.0
H263 H 0.18129 0.99294 0.28538 0.0
H264 H 0.16035 0.70069 0.22264 0.0
H265 H 0.22935 0.74325 0.37375 0.0
H266 H 0.07436 0.88977 0.38561 0.0
H267 H 0.99642 0.7748 0.32288 0.0
H268 H 0.30197 0.85127 0.3489 0.0
H269 H 0.26113 0.78685 0.1937 0.0
Cd270 Cd 0.33293 0.13295 0.83532 0.0
Cd271 Cd 0.33292 0.2044 0.73534 0.0
C272 C 0.2492 0.06187 0.80991 0.0
N273 N 0.26531 0.09752 0.83356 0.0
C274 C 0.20297 0.0905 0.84703 0.0
C275 C 0.1863 0.05568 0.81735 0.0
C276 C 0.20971 0.04077 0.80011 0.0
C277 C 0.24286 0.11148 0.8537 0.0
H278 H 0.26714 0.05011 0.79726 0.0
H279 H 0.25545 0.13905 0.8741 0.0
C280 C 0.31668 0.208 0.8856 0.0
C281 C 0.41138 0.25509 0.80904 0.0
C282 C 0.4507 0.28126 0.81628 0.0
C283 C 0.4769 0.28693 0.77284 0.0
C284 C 0.46249 0.26463 0.72373 0.0
C285 C 0.42294 0.23916 0.71803 0.0
N286 N 0.39826 0.2344 0.76061 0.0
H287 H 0.39133 0.25288 0.84108 0.0
H288 H 0.41169 0.22383 0.67886 0.0
C289 C 0.25089 0.19546 0.76179 0.0
N290 N 0.26553 0.17521 0.73619 0.0
C291 C 0.20193 0.12268 0.71898 0.0
C292 C 0.18654 0.14146 0.75015 0.0
C293 C 0.21139 0.17874 0.77039 0.0
C294 C 0.24181 0.13986 0.71337 0.0
H295 H 0.26993 0.22442 0.77664 0.0
H296 H 0.2534 0.12443 0.69151 0.0
C297 C 0.3135 0.11116 0.68659 0.0
C298 C 0.3536 0.08873 0.90386 0.0
N299 N 0.39738 0.1677 0.80622 0.0
C300 C 0.40823 0.16033 0.75566 0.0
C301 C 0.44691 0.17281 0.74454 0.0
C302 C 0.47484 0.19126 0.78684 0.0
C303 C 0.4628 0.1988 0.83858 0.0
C304 C 0.42381 0.18652 0.84745 0.0
C305 C 0.35483 0.2689 0.66532 0.0
O306 O 0.32401 0.18108 0.89692 0.0
O307 O 0.31779 0.21809 0.8344 0.0
O308 O 0.32123 0.14549 0.67479 0.0
O309 O 0.31562 0.10274 0.7377 0.0
O310 O 0.35265 0.11765 0.92345 0.0
O311 O 0.34116 0.07836 0.85438 0.0
O312 O 0.35259 0.23827 0.64643 0.0
O313 O 0.34293 0.26785 0.7149 0.0
H314 H 0.38702 0.14401 0.72411 0.0
H315 H 0.41429 0.19023 0.88836 0.0
H316 H 0.18566 0.10222 0.86269 0.0
H317 H 0.1976 0.0131 0.77914 0.0
H318 H 0.45999 0.29843 0.85428 0.0
H319 H 0.48136 0.26752 0.68919 0.0
H320 H 0.18352 0.09441 0.70125 0.0
H321 H 0.2004 0.1948 0.79273 0.0
H322 H 0.45448 0.16699 0.70347 0.0
H323 H 0.48273 0.21204 0.87315 0.0
H324 H 0.19777 0.51575 0.17897 0.0
H325 H 0.20484 0.67643 0.38238 0.0
H326 H 0.21143 0.51488 0.35905 0.0
H327 H 0.21089 0.68768 0.20139 0.0
H328 H 0.21292 0.62033 0.37431 0.0
H329 H 0.20827 0.58114 0.18554 0.0
C330 C 0.2037 0.52951 0.21983 0.0
C331 C 0.20319 0.50945 0.26865 0.0
C332 C 0.21295 0.63529 0.33633 0.0
C333 C 0.21444 0.58426 0.27655 0.0
C334 C 0.20862 0.66766 0.34089 0.0
C335 C 0.20684 0.68686 0.29243 0.0
C336 C 0.21513 0.62155 0.28291 0.0
C337 C 0.21122 0.6734 0.23988 0.0
C338 C 0.20944 0.56685 0.22357 0.0
C339 C 0.21063 0.52881 0.32044 0.0
N340 N 0.21471 0.64135 0.2365 0.0
N341 N 0.21548 0.5649 0.32309 0.0
H342 H 0.54292 0.24935 0.83338 0.0
H343 H 0.67586 0.18228 0.67808 0.0
H344 H 0.49955 0.1507 0.72245 0.0
H345 H 0.70216 0.22859 0.84641 0.0
H346 H 0.61761 0.18746 0.67923 0.0
H347 H 0.60741 0.25688 0.82541 0.0
C348 C 0.5467 0.22936 0.80722 0.0
C349 C 0.5152 0.19918 0.77872 0.0
C350 C 0.63642 0.19698 0.71562 0.0
C351 C 0.58927 0.20874 0.76811 0.0
C352 C 0.66978 0.19433 0.71485 0.0
C353 C 0.69371 0.20486 0.76234 0.0
C354 C 0.62705 0.21067 0.76395 0.0
C355 C 0.68418 0.21983 0.80918 0.0
C356 C 0.58361 0.23393 0.80252 0.0
C357 C 0.52255 0.17494 0.74439 0.0
N358 N 0.65142 0.22222 0.80894 0.0
N359 N 0.55866 0.18031 0.74005 0.0
H360 H 0.31994 0.51602 0.39401 0.0
H361 H 0.47359 0.67722 0.19107 0.0
H362 H 0.30542 0.51575 0.21399 0.0
H363 H 0.479 0.6878 0.37214 0.0
H364 H 0.40936 0.6212 0.19906 0.0
H365 H 0.37485 0.58142 0.3877 0.0
C366 C 0.32778 0.52992 0.35323 0.0
C367 C 0.30824 0.51003 0.30433 0.0
C368 C 0.42436 0.636 0.23708 0.0
C369 C 0.37182 0.58484 0.29673 0.0
C370 C 0.46109 0.66833 0.23257 0.0
C371 C 0.48214 0.68732 0.28106 0.0
C372 C 0.40847 0.62209 0.29048 0.0
C373 C 0.46433 0.67368 0.33361 0.0
C374 C 0.35938 0.56726 0.34963 0.0
C375 C 0.32016 0.52956 0.25265 0.0
N376 N 0.42876 0.64169 0.33694 0.0
N377 N 0.35141 0.56564 0.25013 0.0
H378 H 0.79506 0.31559 0.70283 0.0
H379 H 0.7911 0.48941 0.86353 0.0
H380 H 0.80656 0.33227 0.88281 0.0
H381 H 0.80832 0.48801 0.68445 0.0
H382 H 0.78277 0.42471 0.87029 0.0
H383 H 0.78636 0.37172 0.69486 0.0
C384 C 0.79552 0.33083 0.74072 0.0
C385 C 0.80212 0.31933 0.79351 0.0
C386 C 0.78796 0.43842 0.82943 0.0
C387 C 0.79162 0.38338 0.78465 0.0
C388 C 0.79283 0.47542 0.82554 0.0
C389 C 0.80109 0.49457 0.77347 0.0
C390 C 0.79122 0.42025 0.7809 0.0
C391 C 0.80195 0.47449 0.72549 0.0
C392 C 0.79037 0.36278 0.73612 0.0
C393 C 0.80137 0.33971 0.84122 0.0
N394 N 0.79752 0.43864 0.73045 0.0
N395 N 0.79659 0.37086 0.83558 0.0
H396 H 0.3285 0.81231 0.18609 0.0
H397 H 0.48637 0.81283 0.38874 0.0
H398 H 0.31463 0.79997 0.36643 0.0
H399 H 0.48738 0.79969 0.20853 0.0
H400 H 0.42192 0.80446 0.38175 0.0
H401 H 0.3846 0.80403 0.19327 0.0
C402 C 0.33674 0.80718 0.22717 0.0
C403 C 0.31683 0.80724 0.27581 0.0
C404 C 0.43604 0.80298 0.34377 0.0
C405 C 0.38197 0.79863 0.28438 0.0
C406 C 0.47287 0.80751 0.34774 0.0
C407 C 0.49272 0.80739 0.29906 0.0
C408 C 0.41891 0.79865 0.2907 0.0
C409 C 0.47367 0.80092 0.24709 0.0
C410 C 0.36906 0.80271 0.23125 0.0
C411 C 0.32952 0.80106 0.32789 0.0
N412 N 0.43808 0.79726 0.24423 0.0
N413 N 0.36148 0.79745 0.33085 0.0
H414 H 0.52361 0.33348 0.68777 0.0
H415 H 0.68143 0.48789 0.89155 0.0
H416 H 0.52436 0.31342 0.86629 0.0
H417 H 0.69648 0.48947 0.7115 0.0
H418 H 0.62575 0.42299 0.88403 0.0
H419 H 0.58799 0.3891 0.69576 0.0
C420 C 0.53744 0.34016 0.7286 0.0
C421 C 0.51802 0.31851 0.77652 0.0
C422 C 0.64153 0.43735 0.84625 0.0
C423 C 0.59198 0.38351 0.7861 0.0
C424 C 0.67358 0.47442 0.8505 0.0
C425 C 0.69354 0.49462 0.80196 0.0
C426 C 0.62899 0.42038 0.79303 0.0
C427 C 0.68147 0.47555 0.74994 0.0
C428 C 0.5743 0.3723 0.73313 0.0
C429 C 0.53762 0.32959 0.82833 0.0
N430 N 0.64975 0.43981 0.74679 0.0
N431 N 0.57325 0.36155 0.83185 0.0
H432 H 0.1149 0.1377 0.22573 0.0
H433 H 0.1217 0.9739 0.36893 0.0
H434 H 0.09467 0.12063 0.40433 0.0
H435 H 0.08258 0.96271 0.19748 0.0
H436 H 0.10125 0.02117 0.38611 0.0
H437 H 0.0922 0.06931 0.21456 0.0
C438 C 0.10485 0.11928 0.26245 0.0
C439 C 0.10721 0.13476 0.3161 0.0
C440 C 0.09601 0.0076 0.34515 0.0
C441 C 0.08253 0.05675 0.30405 0.0
C442 C 0.10796 0.98094 0.33535 0.0
C443 C 0.1046 0.96554 0.28145 0.0
C444 C 0.08195 0.01972 0.30011 0.0
C445 C 0.08613 0.97472 0.23933 0.0
C446 C 0.09167 0.08015 0.25609 0.0
C447 C 0.09367 0.10971 0.36234 0.0
N448 N 0.07641 0.00217 0.24908 0.0
N449 N 0.08294 0.07196 0.35552 0.0
H450 H 0.97862 0.10421 0.90074 0.0
H451 H 0.12588 0.10301 0.67754 0.0
H452 H 0.9889 0.14158 0.7281 0.0
H453 H 0.15288 0.13687 0.85141 0.0
H454 H 0.05817 0.08308 0.69686 0.0
H455 H 0.02502 0.08247 0.88125 0.0
C456 C 0.98983 0.10687 0.85849 0.0
C457 C 0.98081 0.12552 0.81625 0.0
C458 C 0.07888 0.09369 0.73099 0.0
C459 C 0.03248 0.10003 0.79365 0.0
C460 C 0.11736 0.10517 0.72002 0.0
C461 C 0.14496 0.12251 0.76266 0.0
C462 C 0.06826 0.09915 0.785 0.0
C463 C 0.13253 0.12438 0.81712 0.0
C464 C 0.01599 0.09432 0.84741 0.0
C465 C 0.99573 0.12799 0.76208 0.0
N466 N 0.0951 0.11331 0.82663 0.0
N467 N 0.0212 0.11579 0.75243 0.0
H468 H 0.02664 0.12211 0.15632 0.0
H469 H 0.88287 0.9593 0.36695 0.0
H470 H 0.02447 0.13351 0.33653 0.0
H471 H 0.85304 0.97617 0.19925 0.0
H472 H 0.95064 0.00681 0.34735 0.0
H473 H 0.97892 0.05316 0.16549 0.0
C474 C 0.01701 0.10988 0.19784 0.0
C475 C 0.02877 0.1335 0.2457 0.0
C476 C 0.92936 0.99914 0.31436 0.0
C477 C 0.97536 0.05534 0.25639 0.0
C478 C 0.89091 0.97226 0.32554 0.0
C479 C 0.86274 0.96505 0.28505 0.0
C480 C 0.93922 0.01848 0.2624 0.0
C481 C 0.87419 0.982 0.23181 0.0
C482 C 0.98999 0.07069 0.203 0.0
C483 C 0.01563 0.11638 0.29856 0.0
N484 N 0.91164 0.00854 0.2222 0.0
N485 N 0.9893 0.07837 0.30248 0.0
H486 H 0.88642 0.03083 0.86035 0.0
H487 H 0.88777 0.86537 0.7186 0.0
H488 H 0.9181 0.03845 0.6854 0.0
H489 H 0.91382 0.8861 0.89559 0.0
H490 H 0.91165 0.93365 0.70465 0.0
H491 H 0.90938 0.98583 0.87622 0.0
C492 C 0.89906 0.02367 0.82548 0.0
C493 C 0.89947 0.03754 0.77117 0.0
C494 C 0.91324 0.92362 0.74636 0.0
C495 C 0.9247 0.98508 0.78866 0.0
C496 C 0.89934 0.88449 0.75439 0.0
C497 C 0.89809 0.86999 0.80853 0.0
C498 C 0.92428 0.94814 0.7932 0.0
C499 C 0.91374 0.8961 0.8533 0.0
C500 C 0.91243 0.99812 0.83463 0.0
C501 C 0.91663 0.02777 0.72771 0.0
N502 N 0.92517 0.93389 0.84495 0.0
N503 N 0.92751 1.0011 0.73699 0.0
H504 H 0.83435 0.78762 0.18575 0.0
H505 H 0.03791 0.90206 0.31836 0.0
H506 H 0.86618 0.90094 0.24795 0.0
H507 H 0.95329 0.78721 0.37128 0.0
H508 H 0.98643 0.90938 0.27503 0.0
H509 H 0.89334 0.7944 0.22638 0.0
C510 C 0.85406 0.81422 0.20706 0.0
C511 C 0.84449 0.84299 0.21614 0.0
C512 C 0.97942 0.88287 0.29678 0.0
C513 C 0.91168 0.85093 0.26165 0.0
C514 C 0.00861 0.87868 0.32179 0.0
C515 C 1.00016 0.84321 0.34586 0.0
C516 C 0.94203 0.85117 0.29583 0.0
C517 C 0.96141 0.81433 0.35062 0.0
C518 C 0.88747 0.81795 0.23031 0.0
C519 C 0.87192 0.87761 0.24175 0.0
N520 N 0.93383 0.81851 0.3243 0.0
N521 N 0.90425 0.88047 0.26488 0.0
H522 H 0.12527 0.03891 0.88677 0.0
H523 H 0.97976 0.88489 0.66838 0.0
H524 H 0.15336 0.02562 0.71607 0.0
H525 H 0.98323 0.86642 0.84666 0.0
H526 H 0.02692 0.9535 0.68247 0.0
H527 H 0.05709 0.99351 0.86649 0.0
C528 C 0.11695 0.02727 0.8447 0.0
C529 C 0.14487 0.03486 0.80349 0.0
C530 C 0.01618 0.93447 0.71858 0.0
C531 C 0.06767 0.98398 0.78004 0.0
C532 C 0.98952 0.89545 0.7106 0.0
C533 C 0.97836 0.86992 0.75629 0.0
C534 C 0.03115 0.94773 0.77259 0.0
C535 C 0.99161 0.88501 0.81018 0.0
C536 C 0.07819 1.00162 0.83314 0.0
C537 C 0.1327 0.01955 0.74942 0.0
N538 N 0.01768 0.92288 0.81678 0.0
N539 N 0.09498 0.99431 0.73943 0.0
H540 H 0.19799 0.31038 0.0701 0.0
H541 H 0.316 0.1997 1.0023 0.0
H542 H 0.25351 0.2796 0.19882 0.0
H543 H 0.28452 0.2551 0.87423 0.0
H544 H 0.29052 0.22532 0.07423 0.0
H545 H 0.22608 0.28739 0.9983 0.0
C546 C 0.21618 0.29902 0.08356 0.0
C547 C 0.22327 0.29744 0.14142 0.0
C548 C 0.28929 0.23205 1.03041 0.0
C549 C 0.25551 0.26999 0.05808 0.0
C550 C 0.30397 0.21736 0.98901 0.0
C551 C 0.30294 0.22515 0.93129 0.0
C552 C 0.2726 0.25449 1.01475 0.0
C553 C 0.28646 0.24823 0.91771 0.0
C554 C 0.23229 0.28577 0.04223 0.0
C555 C 0.24713 0.28191 0.15522 0.0
N556 N 0.27194 0.26167 0.95859 0.0
N557 N 0.26198 0.26876 0.11438 0.0
H558 H 0.97578 0.25821 0.70391 0.0
H559 H 0.02986 0.2791 0.37312 0.0
H560 H 0.89096 0.20021 0.57413 0.0
H561 H 0.1151 0.31102 0.50373 0.0
H562 H 0.97932 0.25592 0.44527 0.0
H563 H 0.02659 0.28304 0.6319 0.0
C564 C 0.96756 0.25084 0.66032 0.0
C565 C 0.92837 0.22689 0.64588 0.0
C566 C 0.00905 0.26809 0.45837 0.0
C567 C 0.98757 0.25592 0.56173 0.0
C568 C 0.03824 0.28161 0.41691 0.0
C569 C 0.07747 0.29743 0.43152 0.0
C570 C 0.01851 0.27054 0.51591 0.0
C571 C 0.08564 0.2993 0.48969 0.0
C572 C 0.99689 0.26502 0.61897 0.0
C573 C 0.92038 0.2185 0.58802 0.0
N574 N 0.05674 0.28631 0.52926 0.0
N575 N 0.94938 0.23298 0.54858 0.0
H576 H 0.68961 0.89201 0.07254 0.0
H577 H 0.80961 0.12153 1.00666 0.0
H578 H 0.72897 0.97863 0.2023 0.0
H579 H 0.75178 0.03561 0.87815 0.0
H580 H 0.78299 0.07006 0.07818 0.0
H581 H 0.71446 0.94358 1.00116 0.0
C582 C 0.70329 0.92174 0.08632 0.0
C583 C 0.70666 0.93036 0.14433 0.0
C584 C 0.77596 0.0624 1.03435 0.0
C585 C 0.73611 0.99056 0.06149 0.0
C586 C 0.79121 0.092 0.99319 0.0
C587 C 0.78306 0.08355 0.93547 0.0
C588 C 0.75246 0.02342 1.01844 0.0
C589 C 0.75902 0.04415 0.92165 0.0
C590 C 0.71759 0.95139 0.04524 0.0
C591 C 0.72515 0.96998 0.15855 0.0
N592 N 0.74494 0.01597 0.96229 0.0
N593 N 0.73912 0.99818 0.11794 0.0
H594 H 0.81149 0.69547 0.56545 0.0
H595 H 0.69168 0.80433 0.49679 0.0
H596 H 0.75328 0.72414 0.69244 0.0
H597 H 0.72353 0.75035 0.36726 0.0
H598 H 0.71745 0.77866 0.56791 0.0
H599 H 0.7835 0.7182 0.49268 0.0
C600 C 0.79277 0.70632 0.57836 0.0
C601 C 0.78491 0.70738 0.6361 0.0
C602 C 0.71874 0.77219 0.52401 0.0
C603 C 0.75277 0.73452 0.55157 0.0
C604 C 0.70388 0.78695 0.48298 0.0
C605 C 0.70481 0.77956 0.42507 0.0
C606 C 0.73564 0.75005 0.50798 0.0
C607 C 0.72153 0.75678 0.41094 0.0
C608 C 0.7767 0.71941 0.53644 0.0
C609 C 0.76036 0.72226 0.64906 0.0
N610 N 0.73632 0.74324 0.4516 0.0
N611 N 0.74563 0.73525 0.60774 0.0
H612 H 0.8862 0.69523 1.00711 0.0
H613 H 0.11488 0.80372 0.07559 0.0
H614 H 0.97306 0.72419 0.87996 0.0
H615 H 0.02897 0.74987 0.20512 0.0
H616 H 0.06346 0.77822 1.00447 0.0
H617 H 0.93691 0.71782 0.07981 0.0
C618 C 0.91577 0.70613 0.99414 0.0
C619 C 0.92468 0.70731 0.93638 0.0
C620 C 0.05568 0.77174 0.04837 0.0
C621 C 0.98397 0.73427 1.02084 0.0
C622 C 0.08528 0.78639 0.0894 0.0
C623 C 0.07693 0.77898 0.14731 0.0
C624 C 0.01662 0.74968 0.06441 0.0
C625 C 0.03742 0.75629 0.16144 0.0
C626 C 0.94493 0.71913 0.03603 0.0
C627 C 0.96411 0.72222 0.92336 0.0
N628 N 0.00911 0.74286 0.12079 0.0
N629 N 0.99183 0.73512 0.96464 0.0
H630 H 0.28386 0.03253 0.70009 0.0
H631 H 0.24954 0.97702 0.36977 0.0
H632 H 0.30973 0.11675 0.56956 0.0
H633 H 0.20347 0.89173 0.50156 0.0
H634 H 0.27537 0.02802 0.44128 0.0
H635 H 0.25865 0.9815 0.62861 0.0
C636 C 0.28458 0.04059 0.65643 0.0
C637 C 0.29941 0.0797 0.64166 0.0
C638 C 0.25973 0.9982 0.4548 0.0
C639 C 0.27003 0.02011 0.55801 0.0
C640 C 0.24494 0.96875 0.4137 0.0
C641 C 0.22411 0.92934 0.42882 0.0
C642 C 0.25433 0.98889 0.5125 0.0
C643 C 0.21923 0.92131 0.48712 0.0
C644 C 0.2699 0.0111 0.61536 0.0
C645 C 0.29891 0.08742 0.58372 0.0
N646 N 0.23421 0.95052 0.52632 0.0
N647 N 0.28475 0.05823 0.54452 0.0
H648 H 0.67787 0.67365 0.86017 0.0
H649 H 0.62386 0.66685 0.17378 0.0
H650 H 0.71527 0.63095 0.99915 0.0
H651 H 0.61538 0.73842 0.04522 0.0
H652 H 0.62269 0.62348 0.1009 0.0
H653 H 0.62413 0.6667 0.91735 0.0
C654 C 0.67438 0.66219 0.90242 0.0
C655 C 0.70206 0.65484 0.92633 0.0
C656 C 0.61976 0.64797 0.08876 0.0
C657 C 0.64081 0.64653 0.99119 0.0
C658 C 0.6207 0.67289 0.13027 0.0
C659 C 0.62221 0.70742 0.11487 0.0
C660 C 0.62127 0.65844 1.03206 0.0
C661 C 0.61631 0.71302 0.05843 0.0
C662 C 0.64348 0.65781 0.93471 0.0
C663 C 0.69548 0.63867 0.98022 0.0
N664 N 0.61729 0.68934 1.01863 0.0
N665 N 0.66592 0.63587 1.01143 0.0
H666 H 0.04302 0.66584 0.39816 0.0
H667 H 0.99617 0.67033 0.71235 0.0
H668 H 0.12303 0.73636 0.52737 0.0
H669 H 0.91582 0.62843 0.57371 0.0
H670 H 0.04274 0.66344 0.65458 0.0
H671 H 1.00084 0.62181 0.47057 0.0
C672 C 0.0522 0.67152 0.4417 0.0
C673 C 0.08522 0.70591 0.45747 0.0
C674 C 0.01449 0.65469 0.63742 0.0
C675 C 0.03724 0.65617 0.53976 0.0
C676 C 0.98808 0.65902 0.67006 0.0
C677 C 0.95309 0.65196 0.6464 0.0
C678 C 0.00581 0.6438 0.58082 0.0
C679 C 0.94334 0.63596 0.59245 0.0
C680 C 0.02825 0.64623 0.48293 0.0
C681 C 0.0967 0.71107 0.51391 0.0
N682 N 0.97 0.63325 0.56087 0.0
N683 N 0.07207 0.68701 0.55346 0.0
H684 H 0.35285 0.02227 0.87573 0.0
H685 H 0.32929 0.98318 0.19261 0.0
H686 H 0.3859 0.10655 1.0084 0.0
H687 H 0.27253 0.90115 0.05865 0.0
H688 H 0.38088 0.02402 0.12763 0.0
H689 H 0.35781 0.97832 0.94178 0.0
C690 C 0.36191 0.03181 0.91853 0.0
C691 C 0.36634 0.06681 0.93806 0.0
C692 C 0.35767 0.99656 0.11287 0.0
C693 C 0.37173 0.01696 1.01315 0.0
C694 C 0.32797 0.97354 0.14966 0.0
C695 C 0.29554 0.94015 0.12964 0.0
C696 C 0.35413 0.98639 0.05577 0.0
C697 C 0.29609 0.92788 0.07473 0.0
C698 C 0.36517 0.00691 0.95599 0.0
C699 C 0.37997 0.07871 0.99278 0.0
N700 N 0.3245 0.95157 0.03911 0.0
N701 N 0.38115 0.05329 1.02911 0.0
H702 H 0.35687 0.33632 0.69147 0.0
H703 H 0.33074 0.34587 0.37551 0.0
H704 H 0.387 0.28129 0.56087 0.0
H705 H 0.27904 0.37822 0.5083 0.0
H706 H 0.38343 0.35759 0.43888 0.0
H707 H 0.36383 0.38534 0.62406 0.0
C708 C 0.36568 0.33499 0.64882 0.0
C709 C 0.36866 0.30339 0.63027 0.0
C710 C 0.36112 0.36321 0.45365 0.0
C711 C 0.37624 0.35872 0.55356 0.0
C712 C 0.3308 0.356 0.41779 0.0
C713 C 0.29936 0.35854 0.43829 0.0
C714 C 0.35908 0.37183 0.51038 0.0
C715 C 0.30172 0.37369 0.49212 0.0
C716 C 0.37011 0.36322 0.61056 0.0
C717 C 0.38209 0.30403 0.57573 0.0
N718 N 0.33062 0.37881 0.52699 0.0
N719 N 0.38434 0.33072 0.5386 0.0
H720 H 0.10535 0.38644 0.07228 0.0
H721 H 0.89407 0.28761 1.01054 0.0
H722 H 0.01382 0.33806 0.19508 0.0
H723 H 0.98532 0.33724 0.88743 0.0
H724 H 0.9362 0.33612 0.07816 0.0
H725 H 0.06465 0.39971 1.01097 0.0
C726 C 0.07673 0.37891 0.08648 0.0
C727 C 0.0617 0.35868 0.13679 0.0
C728 C 0.94681 0.33712 0.03591 0.0
C729 C 0.015 0.3731 0.06691 0.0
C730 C 0.92285 0.30914 0.99754 0.0
C731 C 0.93745 0.30691 0.94504 0.0
C732 C 0.98582 0.36145 1.0221 0.0
C733 C 0.97389 0.33668 0.92891 0.0
C734 C 0.05367 0.38698 0.05186 0.0
C735 C 0.02556 0.35171 0.15495 0.0
N736 N 0.99743 0.36213 0.96805 0.0
N737 N 0.00286 0.35785 0.11919 0.0
H738 H 0.72816 0.10741 0.56747 0.0
H739 H 0.6463 0.97668 0.38245 0.0
H740 H 0.67588 0.02187 0.69832 0.0
H741 H 0.6414 0.90471 0.52109 0.0
H742 H 0.6357 0.01723 0.44816 0.0
H743 H 0.67864 0.06463 0.5029 0.0
C744 C 0.70569 0.0797 0.58277 0.0
C745 C 0.70745 0.06682 0.6368 0.0
C746 C 0.63678 0.9925 0.46424 0.0
C747 C 0.65051 0.01737 0.56332 0.0
C748 C 0.64296 0.96944 0.4268 0.0
C749 C 0.64754 0.93912 0.44727 0.0
C750 C 0.6368 0.98579 0.52226 0.0
C751 C 0.64041 0.92932 0.50419 0.0
C752 C 0.67677 0.05528 0.54604 0.0
C753 C 0.67664 0.03183 0.65572 0.0
N754 N 0.63639 0.95327 0.54006 0.0
N755 N 0.64994 0.00765 0.61838 0.0
loop_
_geom_bond_atom_site_label_1
_geom_bond_atom_site_label_2
_geom_bond_distance
_geom_bond_site_symmetry_2
_ccdc_geom_bond_type
Cd0 N3 2.334 . S
Cd0 N29 2.304 . S
Cd0 O36 2.268 . S
Cd0 O39 2.273 . S
Cd0 O40 2.417 . S
Cd0 O41 2.330 . S
Cd1 N16 2.304 . S
Cd1 N20 2.334 . S
Cd1 O37 2.273 . S
Cd1 O38 2.268 . S
Cd1 O42 2.417 . S
Cd1 O43 2.330 . S
C2 N3 1.332 . S
C2 C6 1.381 . S
C2 H8 0.931 . S
N3 Cd0 2.334 . S
N3 C2 1.332 . S
N3 C7 1.328 . S
C4 C5 1.396 . S
C4 C7 1.378 . S
C4 H46 0.931 . S
C5 C4 1.396 . S
C5 C6 1.382 . S
C6 C2 1.381 . S
C6 C5 1.382 . S
C6 H47 0.930 . S
C7 N3 1.328 . S
C7 C4 1.378 . S
C7 H9 0.930 . S
H8 C2 0.931 . S
H9 C7 0.930 . S
C10 O36 1.238 . S
C10 O37 1.253 . S
C11 C12 1.379 . S
C11 N16 1.337 . S
C11 H17 0.929 . S
C12 C11 1.379 . S
C12 C13 1.380 . S
C12 H48 0.929 . S
C13 C12 1.380 . S
C13 C14 1.399 . S
C14 C13 1.399 . S
C14 C15 1.376 . S
C14 H49 0.931 . S
C15 C14 1.376 . S
C15 N16 1.338 . S
C15 H18 0.930 . S
N16 Cd1 2.304 . S
N16 C11 1.337 . S
N16 C15 1.338 . S
H17 C11 0.929 . S
H18 C15 0.930 . S
C19 N20 1.332 . S
C19 C23 1.381 . S
C19 H25 0.931 . S
N20 Cd1 2.334 . S
N20 C19 1.332 . S
N20 C24 1.328 . S
C21 C22 1.396 . S
C21 C24 1.378 . S
C21 H50 0.931 . S
C22 C21 1.396 . S
C22 C23 1.382 . S
C23 C19 1.381 . S
C23 C22 1.382 . S
C23 H51 0.930 . S
C24 N20 1.328 . S
C24 C21 1.378 . S
C24 H26 0.930 . S
H25 C19 0.931 . S
H26 C24 0.930 . S
C27 O38 1.238 . S
C27 O39 1.253 . S
C28 O40 1.239 . S
C28 O41 1.230 . S
N29 Cd0 2.304 . S
N29 C30 1.337 . S
N29 C34 1.338 . S
C30 N29 1.337 . S
C30 C31 1.379 . S
C30 H44 0.929 . S
C31 C30 1.379 . S
C31 C32 1.380 . S
C31 H52 0.929 . S
C32 C31 1.380 . S
C32 C33 1.399 . S
C33 C32 1.399 . S
C33 C34 1.376 . S
C33 H53 0.931 . S
C34 N29 1.338 . S
C34 C33 1.376 . S
C34 H45 0.930 . S
C35 O42 1.239 . S
C35 O43 1.230 . S
O36 Cd0 2.268 . S
O36 C10 1.238 . S
O37 Cd1 2.273 . S
O37 C10 1.253 . S
O38 Cd1 2.268 . S
O38 C27 1.238 . S
O39 Cd0 2.273 . S
O39 C27 1.253 . S
O40 Cd0 2.417 . S
O40 C28 1.239 . S
O41 Cd0 2.330 . S
O41 C28 1.230 . S
O42 Cd1 2.417 . S
O42 C35 1.239 . S
O43 Cd1 2.330 . S
O43 C35 1.230 . S
H44 C30 0.929 . S
H45 C34 0.930 . S
H46 C4 0.931 . S
H47 C6 0.930 . S
H48 C12 0.929 . S
H49 C14 0.931 . S
H50 C21 0.931 . S
H51 C23 0.930 . S
H52 C31 0.929 . S
H53 C33 0.931 . S
Cd54 N57 2.334 . S
Cd54 N83 2.304 . S
Cd54 O90 2.268 . S
Cd54 O93 2.273 . S
Cd54 O94 2.417 . S
Cd54 O95 2.330 . S
Cd55 N70 2.304 . S
Cd55 N74 2.334 . S
Cd55 O91 2.273 . S
Cd55 O92 2.268 . S
Cd55 O96 2.417 . S
Cd55 O97 2.330 . S
C56 N57 1.332 . S
C56 C60 1.381 . S
C56 H62 0.931 . S
N57 Cd54 2.334 . S
N57 C56 1.332 . S
N57 C61 1.328 . S
C58 C59 1.396 . S
C58 C61 1.378 . S
C58 H100 0.931 . S
C59 C58 1.396 . S
C59 C60 1.382 . S
C60 C56 1.381 . S
C60 C59 1.382 . S
C60 H101 0.930 . S
C61 N57 1.328 . S
C61 C58 1.378 . S
C61 H63 0.930 . S
H62 C56 0.931 . S
H63 C61 0.930 . S
C64 O90 1.238 . S
C64 O91 1.253 . S
C65 C66 1.379 . S
C65 N70 1.337 . S
C65 H71 0.929 . S
C66 C65 1.379 . S
C66 C67 1.380 . S
C66 H102 0.929 . S
C67 C66 1.380 . S
C67 C68 1.399 . S
C68 C67 1.399 . S
C68 C69 1.376 . S
C68 H103 0.931 . S
C69 C68 1.376 . S
C69 N70 1.338 . S
C69 H72 0.930 . S
N70 Cd55 2.304 . S
N70 C65 1.337 . S
N70 C69 1.338 . S
H71 C65 0.929 . S
H72 C69 0.930 . S
C73 N74 1.332 . S
C73 C77 1.381 . S
C73 H79 0.931 . S
N74 Cd55 2.334 . S
N74 C73 1.332 . S
N74 C78 1.328 . S
C75 C76 1.396 . S
C75 C78 1.378 . S
C75 H104 0.931 . S
C76 C75 1.396 . S
C76 C77 1.382 . S
C77 C73 1.381 . S
C77 C76 1.382 . S
C77 H105 0.930 . S
C78 N74 1.328 . S
C78 C75 1.378 . S
C78 H80 0.930 . S
H79 C73 0.931 . S
H80 C78 0.930 . S
C81 O92 1.238 . S
C81 O93 1.253 . S
C82 O94 1.239 . S
C82 O95 1.230 . S
N83 Cd54 2.304 . S
N83 C84 1.337 . S
N83 C88 1.338 . S
C84 N83 1.337 . S
C84 C85 1.379 . S
C84 H98 0.929 . S
C85 C84 1.379 . S
C85 C86 1.380 . S
C85 H106 0.929 . S
C86 C85 1.380 . S
C86 C87 1.399 . S
C87 C86 1.399 . S
C87 C88 1.376 . S
C87 H107 0.931 . S
C88 N83 1.338 . S
C88 C87 1.376 . S
C88 H99 0.930 . S
C89 O96 1.239 . S
C89 O97 1.230 . S
O90 Cd54 2.268 . S
O90 C64 1.238 . S
O91 Cd55 2.273 . S
O91 C64 1.253 . S
O92 Cd55 2.268 . S
O92 C81 1.238 . S
O93 Cd54 2.273 . S
O93 C81 1.253 . S
O94 Cd54 2.417 . S
O94 C82 1.239 . S
O95 Cd54 2.330 . S
O95 C82 1.230 . S
O96 Cd55 2.417 . S
O96 C89 1.239 . S
O97 Cd55 2.330 . S
O97 C89 1.230 . S
H98 C84 0.929 . S
H99 C88 0.930 . S
H100 C58 0.931 . S
H101 C60 0.930 . S
H102 C66 0.929 . S
H103 C68 0.931 . S
H104 C75 0.931 . S
H105 C77 0.930 . S
H106 C85 0.929 . S
H107 C87 0.931 . S
Cd108 N111 2.334 . S
Cd108 N137 2.304 . S
Cd108 O144 2.268 . S
Cd108 O147 2.273 . S
Cd108 O148 2.417 . S
Cd108 O149 2.330 . S
Cd109 N124 2.304 . S
Cd109 N128 2.334 . S
Cd109 O145 2.273 . S
Cd109 O146 2.268 . S
Cd109 O150 2.417 . S
Cd109 O151 2.330 . S
C110 N111 1.332 . S
C110 C114 1.381 . S
C110 H116 0.931 . S
N111 Cd108 2.334 . S
N111 C110 1.332 . S
N111 C115 1.328 . S
C112 C113 1.396 . S
C112 C115 1.378 . S
C112 H154 0.931 . S
C113 C112 1.396 . S
C113 C114 1.382 . S
C114 C110 1.381 . S
C114 C113 1.382 . S
C114 H155 0.930 . S
C115 N111 1.328 . S
C115 C112 1.378 . S
C115 H117 0.930 . S
H116 C110 0.931 . S
H117 C115 0.930 . S
C118 O144 1.238 . S
C118 O145 1.253 . S
C119 C120 1.379 . S
C119 N124 1.337 . S
C119 H125 0.929 . S
C120 C119 1.379 . S
C120 C121 1.380 . S
C120 H156 0.929 . S
C121 C120 1.380 . S
C121 C122 1.399 . S
C122 C121 1.399 . S
C122 C123 1.376 . S
C122 H157 0.931 . S
C123 C122 1.376 . S
C123 N124 1.338 . S
C123 H126 0.930 . S
N124 Cd109 2.304 . S
N124 C119 1.337 . S
N124 C123 1.338 . S
H125 C119 0.929 . S
H126 C123 0.930 . S
C127 N128 1.332 . S
C127 C131 1.381 . S
C127 H133 0.931 . S
N128 Cd109 2.334 . S
N128 C127 1.332 . S
N128 C132 1.328 . S
C129 C130 1.396 . S
C129 C132 1.378 . S
C129 H158 0.931 . S
C130 C129 1.396 . S
C130 C131 1.382 . S
C131 C127 1.381 . S
C131 C130 1.382 . S
C131 H159 0.930 . S
C132 N128 1.328 . S
C132 C129 1.378 . S
C132 H134 0.930 . S
H133 C127 0.931 . S
H134 C132 0.930 . S
C135 O146 1.238 . S
C135 O147 1.253 . S
C136 O148 1.239 . S
C136 O149 1.230 . S
N137 Cd108 2.304 . S
N137 C138 1.337 . S
N137 C142 1.338 . S
C138 N137 1.337 . S
C138 C139 1.379 . S
C138 H152 0.929 . S
C139 C138 1.379 . S
C139 C140 1.380 . S
C139 H160 0.929 . S
C140 C139 1.380 . S
C140 C141 1.399 . S
C141 C140 1.399 . S
C141 C142 1.376 . S
C141 H161 0.931 . S
C142 N137 1.338 . S
C142 C141 1.376 . S
C142 H153 0.930 . S
C143 O150 1.239 . S
C143 O151 1.230 . S
O144 Cd108 2.268 . S
O144 C118 1.238 . S
O145 Cd109 2.273 . S
O145 C118 1.253 . S
O146 Cd109 2.268 . S
O146 C135 1.238 . S
O147 Cd108 2.273 . S
O147 C135 1.253 . S
O148 Cd108 2.417 . S
O148 C136 1.239 . S
O149 Cd108 2.330 . S
O149 C136 1.230 . S
O150 Cd109 2.417 . S
O150 C143 1.239 . S
O151 Cd109 2.330 . S
O151 C143 1.230 . S
H152 C138 0.929 . S
H153 C142 0.930 . S
H154 C112 0.931 . S
H155 C114 0.930 . S
H156 C120 0.929 . S
H157 C122 0.931 . S
H158 C129 0.931 . S
H159 C131 0.930 . S
H160 C139 0.929 . S
H161 C141 0.931 . S
Cd162 N165 2.334 . S
Cd162 N191 2.304 . S
Cd162 O198 2.268 . S
Cd162 O201 2.273 . S
Cd162 O202 2.417 . S
Cd162 O203 2.330 . S
Cd163 N178 2.304 . S
Cd163 N182 2.334 . S
Cd163 O199 2.273 . S
Cd163 O200 2.268 . S
Cd163 O204 2.417 . S
Cd163 O205 2.330 . S
C164 N165 1.332 . S
C164 C168 1.381 . S
C164 H170 0.931 . S
N165 Cd162 2.334 . S
N165 C164 1.332 . S
N165 C169 1.328 . S
C166 C167 1.396 . S
C166 C169 1.378 . S
C166 H208 0.931 . S
C167 C166 1.396 . S
C167 C168 1.382 . S
C168 C164 1.381 . S
C168 C167 1.382 . S
C168 H209 0.930 . S
C169 N165 1.328 . S
C169 C166 1.378 . S
C169 H171 0.930 . S
H170 C164 0.931 . S
H171 C169 0.930 . S
C172 O198 1.238 . S
C172 O199 1.253 . S
C173 C174 1.379 . S
C173 N178 1.337 . S
C173 H179 0.929 . S
C174 C173 1.379 . S
C174 C175 1.380 . S
C174 H210 0.929 . S
C175 C174 1.380 . S
C175 C176 1.399 . S
C176 C175 1.399 . S
C176 C177 1.376 . S
C176 H211 0.931 . S
C177 C176 1.376 . S
C177 N178 1.338 . S
C177 H180 0.930 . S
N178 Cd163 2.304 . S
N178 C173 1.337 . S
N178 C177 1.338 . S
H179 C173 0.929 . S
H180 C177 0.930 . S
C181 N182 1.332 . S
C181 C185 1.381 . S
C181 H187 0.931 . S
N182 Cd163 2.334 . S
N182 C181 1.332 . S
N182 C186 1.328 . S
C183 C184 1.396 . S
C183 C186 1.378 . S
C183 H212 0.931 . S
C184 C183 1.396 . S
C184 C185 1.382 . S
C185 C181 1.381 . S
C185 C184 1.382 . S
C185 H213 0.930 . S
C186 N182 1.328 . S
C186 C183 1.378 . S
C186 H188 0.930 . S
H187 C181 0.931 . S
H188 C186 0.930 . S
C189 O200 1.238 . S
C189 O201 1.253 . S
C190 O202 1.239 . S
C190 O203 1.230 . S
N191 Cd162 2.304 . S
N191 C192 1.337 . S
N191 C196 1.338 . S
C192 N191 1.337 . S
C192 C193 1.379 . S
C192 H206 0.929 . S
C193 C192 1.379 . S
C193 C194 1.380 . S
C193 H214 0.929 . S
C194 C193 1.380 . S
C194 C195 1.399 . S
C195 C194 1.399 . S
C195 C196 1.376 . S
C195 H215 0.931 . S
C196 N191 1.338 . S
C196 C195 1.376 . S
C196 H207 0.930 . S
C197 O204 1.239 . S
C197 O205 1.230 . S
O198 Cd162 2.268 . S
O198 C172 1.238 . S
O199 Cd163 2.273 . S
O199 C172 1.253 . S
O200 Cd163 2.268 . S
O200 C189 1.238 . S
O201 Cd162 2.273 . S
O201 C189 1.253 . S
O202 Cd162 2.417 . S
O202 C190 1.239 . S
O203 Cd162 2.330 . S
O203 C190 1.230 . S
O204 Cd163 2.417 . S
O204 C197 1.239 . S
O205 Cd163 2.330 . S
O205 C197 1.230 . S
H206 C192 0.929 . S
H207 C196 0.930 . S
H208 C166 0.931 . S
H209 C168 0.930 . S
H210 C174 0.929 . S
H211 C176 0.931 . S
H212 C183 0.931 . S
H213 C185 0.930 . S
H214 C193 0.929 . S
H215 C195 0.931 . S
Cd216 N219 2.334 . S
Cd216 N245 2.304 . S
Cd216 O252 2.268 . S
Cd216 O255 2.273 . S
Cd216 O256 2.417 . S
Cd216 O257 2.330 . S
Cd217 N232 2.304 . S
Cd217 N236 2.334 . S
Cd217 O253 2.273 . S
Cd217 O254 2.268 . S
Cd217 O258 2.417 . S
Cd217 O259 2.330 . S
C218 N219 1.332 . S
C218 C222 1.381 . S
C218 H224 0.931 . S
N219 Cd216 2.334 . S
N219 C218 1.332 . S
N219 C223 1.328 . S
C220 C221 1.396 . S
C220 C223 1.378 . S
C220 H262 0.931 . S
C221 C220 1.396 . S
C221 C222 1.382 . S
C222 C218 1.381 . S
C222 C221 1.382 . S
C222 H263 0.930 . S
C223 N219 1.328 . S
C223 C220 1.378 . S
C223 H225 0.930 . S
H224 C218 0.931 . S
H225 C223 0.930 . S
C226 O252 1.238 . S
C226 O253 1.253 . S
C227 C228 1.379 . S
C227 N232 1.337 . S
C227 H233 0.929 . S
C228 C227 1.379 . S
C228 C229 1.380 . S
C228 H264 0.929 . S
C229 C228 1.380 . S
C229 C230 1.399 . S
C230 C229 1.399 . S
C230 C231 1.376 . S
C230 H265 0.931 . S
C231 C230 1.376 . S
C231 N232 1.338 . S
C231 H234 0.930 . S
N232 Cd217 2.304 . S
N232 C227 1.337 . S
N232 C231 1.338 . S
H233 C227 0.929 . S
H234 C231 0.930 . S
C235 N236 1.332 . S
C235 C239 1.381 . S
C235 H241 0.931 . S
N236 Cd217 2.334 . S
N236 C235 1.332 . S
N236 C240 1.328 . S
C237 C238 1.396 . S
C237 C240 1.378 . S
C237 H266 0.931 . S
C238 C237 1.396 . S
C238 C239 1.382 . S
C239 C235 1.381 . S
C239 C238 1.382 . S
C239 H267 0.930 . S
C240 N236 1.328 . S
C240 C237 1.378 . S
C240 H242 0.930 . S
H241 C235 0.931 . S
H242 C240 0.930 . S
C243 O254 1.238 . S
C243 O255 1.253 . S
C244 O256 1.239 . S
C244 O257 1.230 . S
N245 Cd216 2.304 . S
N245 C246 1.337 . S
N245 C250 1.338 . S
C246 N245 1.337 . S
C246 C247 1.379 . S
C246 H260 0.929 . S
C247 C246 1.379 . S
C247 C248 1.380 . S
C247 H268 0.929 . S
C248 C247 1.380 . S
C248 C249 1.399 . S
C249 C248 1.399 . S
C249 C250 1.376 . S
C249 H269 0.931 . S
C250 N245 1.338 . S
C250 C249 1.376 . S
C250 H261 0.930 . S
C251 O258 1.239 . S
C251 O259 1.230 . S
O252 Cd216 2.268 . S
O252 C226 1.238 . S
O253 Cd217 2.273 . S
O253 C226 1.253 . S
O254 Cd217 2.268 . S
O254 C243 1.238 . S
O255 Cd216 2.273 . S
O255 C243 1.253 . S
O256 Cd216 2.417 . S
O256 C244 1.239 . S
O257 Cd216 2.330 . S
O257 C244 1.230 . S
O258 Cd217 2.417 . S
O258 C251 1.239 . S
O259 Cd217 2.330 . S
O259 C251 1.230 . S
H260 C246 0.929 . S
H261 C250 0.930 . S
H262 C220 0.931 . S
H263 C222 0.930 . S
H264 C228 0.929 . S
H265 C230 0.931 . S
H266 C237 0.931 . S
H267 C239 0.930 . S
H268 C247 0.929 . S
H269 C249 0.931 . S
Cd270 N273 2.334 . S
Cd270 N299 2.304 . S
Cd270 O306 2.268 . S
Cd270 O309 2.273 . S
Cd270 O310 2.417 . S
Cd270 O311 2.330 . S
Cd271 N286 2.304 . S
Cd271 N290 2.334 . S
Cd271 O307 2.273 . S
Cd271 O308 2.268 . S
Cd271 O312 2.417 . S
Cd271 O313 2.330 . S
C272 N273 1.332 . S
C272 C276 1.381 . S
C272 H278 0.931 . S
N273 Cd270 2.334 . S
N273 C272 1.332 . S
N273 C277 1.328 . S
C274 C275 1.396 . S
C274 C277 1.378 . S
C274 H316 0.931 . S
C275 C274 1.396 . S
C275 C276 1.382 . S
C276 C272 1.381 . S
C276 C275 1.382 . S
C276 H317 0.930 . S
C277 N273 1.328 . S
C277 C274 1.378 . S
C277 H279 0.930 . S
H278 C272 0.931 . S
H279 C277 0.930 . S
C280 O306 1.238 . S
C280 O307 1.253 . S
C281 C282 1.379 . S
C281 N286 1.337 . S
C281 H287 0.929 . S
C282 C281 1.379 . S
C282 C283 1.380 . S
C282 H318 0.929 . S
C283 C282 1.380 . S
C283 C284 1.399 . S
C284 C283 1.399 . S
C284 C285 1.376 . S
C284 H319 0.931 . S
C285 C284 1.376 . S
C285 N286 1.338 . S
C285 H288 0.930 . S
N286 Cd271 2.304 . S
N286 C281 1.337 . S
N286 C285 1.338 . S
H287 C281 0.929 . S
H288 C285 0.930 . S
C289 N290 1.332 . S
C289 C293 1.381 . S
C289 H295 0.931 . S
N290 Cd271 2.334 . S
N290 C289 1.332 . S
N290 C294 1.328 . S
C291 C292 1.396 . S
C291 C294 1.378 . S
C291 H320 0.931 . S
C292 C291 1.396 . S
C292 C293 1.382 . S
C293 C289 1.381 . S
C293 C292 1.382 . S
C293 H321 0.930 . S
C294 N290 1.328 . S
C294 C291 1.378 . S
C294 H296 0.930 . S
H295 C289 0.931 . S
H296 C294 0.930 . S
C297 O308 1.238 . S
C297 O309 1.253 . S
C298 O310 1.239 . S
C298 O311 1.230 . S
N299 Cd270 2.304 . S
N299 C300 1.337 . S
N299 C304 1.338 . S
C300 N299 1.337 . S
C300 C301 1.379 . S
C300 H314 0.929 . S
C301 C300 1.379 . S
C301 C302 1.380 . S
C301 H322 0.929 . S
C302 C301 1.380 . S
C302 C303 1.399 . S
C303 C302 1.399 . S
C303 C304 1.376 . S
C303 H323 0.931 . S
C304 N299 1.338 . S
C304 C303 1.376 . S
C304 H315 0.930 . S
C305 O312 1.239 . S
C305 O313 1.230 . S
O306 Cd270 2.268 . S
O306 C280 1.238 . S
O307 Cd271 2.273 . S
O307 C280 1.253 . S
O308 Cd271 2.268 . S
O308 C297 1.238 . S
O309 Cd270 2.273 . S
O309 C297 1.253 . S
O310 Cd270 2.417 . S
O310 C298 1.239 . S
O311 Cd270 2.330 . S
O311 C298 1.230 . S
O312 Cd271 2.417 . S
O312 C305 1.239 . S
O313 Cd271 2.330 . S
O313 C305 1.230 . S
H314 C300 0.929 . S
H315 C304 0.930 . S
H316 C274 0.931 . S
H317 C276 0.930 . S
H318 C282 0.929 . S
H319 C284 0.931 . S
H320 C291 0.931 . S
H321 C293 0.930 . S
H322 C301 0.929 . S
H323 C303 0.931 . S
H324 C330 0.930 . S
H325 C334 0.930 . S
H326 C339 0.929 . S
H327 C337 0.929 . S
H328 C332 0.929 . S
H329 C338 0.929 . S
C330 H324 0.930 . S
C330 C331 1.367 . S
C330 C338 1.378 . S
C331 C330 1.367 . S
C331 C339 1.433 . S
C332 H328 0.929 . S
C332 C334 1.378 . S
C332 C336 1.350 . S
C333 C336 1.463 . S
C333 C338 1.350 . S
C333 N341 1.427 . S
C334 H325 0.930 . S
C334 C332 1.378 . S
C334 C335 1.367 . S
C335 C334 1.367 . S
C335 C337 1.433 . S
C336 C332 1.350 . S
C336 C333 1.463 . S
C336 N340 1.427 . S
C337 H327 0.929 . S
C337 C335 1.433 . S
C337 N340 1.384 . S
C338 H329 0.929 . S
C338 C330 1.378 . S
C338 C333 1.350 . S
C339 H326 0.929 . S
C339 C331 1.433 . S
C339 N341 1.384 . S
N340 C336 1.427 . S
N340 C337 1.384 . S
N341 C333 1.427 . S
N341 C339 1.384 . S
H342 C348 0.930 . S
H343 C352 0.930 . S
H344 C357 0.929 . S
H345 C355 0.929 . S
H346 C350 0.929 . S
H347 C356 0.929 . S
C348 H342 0.930 . S
C348 C349 1.367 . S
C348 C356 1.378 . S
C349 C348 1.367 . S
C349 C357 1.433 . S
C350 H346 0.929 . S
C350 C352 1.378 . S
C350 C354 1.350 . S
C351 C354 1.463 . S
C351 C356 1.350 . S
C351 N359 1.427 . S
C352 H343 0.930 . S
C352 C350 1.378 . S
C352 C353 1.367 . S
C353 C352 1.367 . S
C353 C355 1.433 . S
C354 C350 1.350 . S
C354 C351 1.463 . S
C354 N358 1.427 . S
C355 H345 0.929 . S
C355 C353 1.433 . S
C355 N358 1.384 . S
C356 H347 0.929 . S
C356 C348 1.378 . S
C356 C351 1.350 . S
C357 H344 0.929 . S
C357 C349 1.433 . S
C357 N359 1.384 . S
N358 C354 1.427 . S
N358 C355 1.384 . S
N359 C351 1.427 . S
N359 C357 1.384 . S
H360 C366 0.930 . S
H361 C370 0.930 . S
H362 C375 0.929 . S
H363 C373 0.929 . S
H364 C368 0.929 . S
H365 C374 0.929 . S
C366 H360 0.930 . S
C366 C367 1.367 . S
C366 C374 1.378 . S
C367 C366 1.367 . S
C367 C375 1.433 . S
C368 H364 0.929 . S
C368 C370 1.378 . S
C368 C372 1.350 . S
C369 C372 1.463 . S
C369 C374 1.350 . S
C369 N377 1.427 . S
C370 H361 0.930 . S
C370 C368 1.378 . S
C370 C371 1.367 . S
C371 C370 1.367 . S
C371 C373 1.433 . S
C372 C368 1.350 . S
C372 C369 1.463 . S
C372 N376 1.427 . S
C373 H363 0.929 . S
C373 C371 1.433 . S
C373 N376 1.384 . S
C374 H365 0.929 . S
C374 C366 1.378 . S
C374 C369 1.350 . S
C375 H362 0.929 . S
C375 C367 1.433 . S
C375 N377 1.384 . S
N376 C372 1.427 . S
N376 C373 1.384 . S
N377 C369 1.427 . S
N377 C375 1.384 . S
H378 C384 0.930 . S
H379 C388 0.930 . S
H380 C393 0.929 . S
H381 C391 0.929 . S
H382 C386 0.929 . S
H383 C392 0.929 . S
C384 H378 0.930 . S
C384 C385 1.367 . S
C384 C392 1.378 . S
C385 C384 1.367 . S
C385 C393 1.433 . S
C386 H382 0.929 . S
C386 C388 1.378 . S
C386 C390 1.350 . S
C387 C390 1.463 . S
C387 C392 1.350 . S
C387 N395 1.427 . S
C388 H379 0.930 . S
C388 C386 1.378 . S
C388 C389 1.367 . S
C389 C388 1.367 . S
C389 C391 1.433 . S
C390 C386 1.350 . S
C390 C387 1.463 . S
C390 N394 1.427 . S
C391 H381 0.929 . S
C391 C389 1.433 . S
C391 N394 1.384 . S
C392 H383 0.929 . S
C392 C384 1.378 . S
C392 C387 1.350 . S
C393 H380 0.929 . S
C393 C385 1.433 . S
C393 N395 1.384 . S
N394 C390 1.427 . S
N394 C391 1.384 . S
N395 C387 1.427 . S
N395 C393 1.384 . S
H396 C402 0.930 . S
H397 C406 0.930 . S
H398 C411 0.929 . S
H399 C409 0.929 . S
H400 C404 0.929 . S
H401 C410 0.929 . S
C402 H396 0.930 . S
C402 C403 1.367 . S
C402 C410 1.378 . S
C403 C402 1.367 . S
C403 C411 1.433 . S
C404 H400 0.929 . S
C404 C406 1.378 . S
C404 C408 1.350 . S
C405 C408 1.463 . S
C405 C410 1.350 . S
C405 N413 1.427 . S
C406 H397 0.930 . S
C406 C404 1.378 . S
C406 C407 1.367 . S
C407 C406 1.367 . S
C407 C409 1.433 . S
C408 C404 1.350 . S
C408 C405 1.463 . S
C408 N412 1.427 . S
C409 H399 0.929 . S
C409 C407 1.433 . S
C409 N412 1.384 . S
C410 H401 0.929 . S
C410 C402 1.378 . S
C410 C405 1.350 . S
C411 H398 0.929 . S
C411 C403 1.433 . S
C411 N413 1.384 . S
N412 C408 1.427 . S
N412 C409 1.384 . S
N413 C405 1.427 . S
N413 C411 1.384 . S
H414 C420 0.930 . S
H415 C424 0.930 . S
H416 C429 0.929 . S
H417 C427 0.929 . S
H418 C422 0.929 . S
H419 C428 0.929 . S
C420 H414 0.930 . S
C420 C421 1.367 . S
C420 C428 1.378 . S
C421 C420 1.367 . S
C421 C429 1.433 . S
C422 H418 0.929 . S
C422 C424 1.378 . S
C422 C426 1.350 . S
C423 C426 1.463 . S
C423 C428 1.350 . S
C423 N431 1.427 . S
C424 H415 0.930 . S
C424 C422 1.378 . S
C424 C425 1.367 . S
C425 C424 1.367 . S
C425 C427 1.433 . S
C426 C422 1.350 . S
C426 C423 1.463 . S
C426 N430 1.427 . S
C427 H417 0.929 . S
C427 C425 1.433 . S
C427 N430 1.384 . S
C428 H419 0.929 . S
C428 C420 1.378 . S
C428 C423 1.350 . S
C429 H416 0.929 . S
C429 C421 1.433 . S
C429 N431 1.384 . S
N430 C426 1.427 . S
N430 C427 1.384 . S
N431 C423 1.427 . S
N431 C429 1.384 . S
H432 C438 0.930 . S
H433 C442 0.930 . S
H434 C447 0.929 . S
H435 C445 0.929 . S
H436 C440 0.929 . S
H437 C446 0.929 . S
C438 H432 0.930 . S
C438 C439 1.367 . S
C438 C446 1.378 . S
C439 C438 1.367 . S
C439 C447 1.433 . S
C440 H436 0.929 . S
C440 C442 1.378 1_545 S
C440 C444 1.350 . S
C441 C444 1.463 . S
C441 C446 1.350 . S
C441 N449 1.427 . S
C442 H433 0.930 . S
C442 C440 1.378 1_565 S
C442 C443 1.367 . S
C443 C442 1.367 . S
C443 C445 1.433 1_565 S
C444 C440 1.350 . S
C444 C441 1.463 . S
C444 N448 1.427 . S
C445 H435 0.929 . S
C445 C443 1.433 1_545 S
C445 N448 1.384 . S
C446 H437 0.929 . S
C446 C438 1.378 . S
C446 C441 1.350 . S
C447 H434 0.929 . S
C447 C439 1.433 . S
C447 N449 1.384 . S
N448 C444 1.427 . S
N448 C445 1.384 . S
N449 C441 1.427 . S
N449 C447 1.384 . S
H450 C456 0.930 . S
H451 C460 0.930 . S
H452 C465 0.929 . S
H453 C463 0.929 . S
H454 C458 0.929 . S
H455 C464 0.929 . S
C456 H450 0.930 . S
C456 C457 1.367 . S
C456 C464 1.378 1_655 S
C457 C456 1.367 . S
C457 C465 1.433 . S
C458 H454 0.929 . S
C458 C460 1.378 . S
C458 C462 1.350 . S
C459 C462 1.463 . S
C459 C464 1.350 . S
C459 N467 1.427 . S
C460 H451 0.930 . S
C460 C458 1.378 . S
C460 C461 1.367 . S
C461 C460 1.367 . S
C461 C463 1.433 . S
C462 C458 1.350 . S
C462 C459 1.463 . S
C462 N466 1.427 . S
C463 H453 0.929 . S
C463 C461 1.433 . S
C463 N466 1.384 . S
C464 H455 0.929 . S
C464 C456 1.378 1_455 S
C464 C459 1.350 . S
C465 H452 0.929 . S
C465 C457 1.433 . S
C465 N467 1.384 1_655 S
N466 C462 1.427 . S
N466 C463 1.384 . S
N467 C459 1.427 . S
N467 C465 1.384 1_455 S
H468 C474 0.930 . S
H469 C478 0.930 . S
H470 C483 0.929 . S
H471 C481 0.929 . S
H472 C476 0.929 . S
H473 C482 0.929 . S
C474 H468 0.930 . S
C474 C475 1.367 . S
C474 C482 1.378 1_455 S
C475 C474 1.367 . S
C475 C483 1.433 . S
C476 H472 0.929 . S
C476 C478 1.378 . S
C476 C480 1.350 . S
C477 C480 1.463 . S
C477 C482 1.350 . S
C477 N485 1.427 . S
C478 H469 0.930 . S
C478 C476 1.378 . S
C478 C479 1.367 1_545 S
C479 C478 1.367 1_565 S
C479 C481 1.433 . S
C480 C476 1.350 . S
C480 C477 1.463 . S
C480 N484 1.427 . S
C481 H471 0.929 . S
C481 C479 1.433 . S
C481 N484 1.384 1_565 S
C482 H473 0.929 . S
C482 C474 1.378 1_655 S
C482 C477 1.350 . S
C483 H470 0.929 . S
C483 C475 1.433 . S
C483 N485 1.384 1_455 S
N484 C480 1.427 . S
N484 C481 1.384 1_545 S
N485 C477 1.427 . S
N485 C483 1.384 1_655 S
H486 C492 0.930 . S
H487 C496 0.930 . S
H488 C501 0.929 . S
H489 C499 0.929 . S
H490 C494 0.929 . S
H491 C500 0.929 . S
C492 H486 0.930 . S
C492 C493 1.367 . S
C492 C500 1.378 1_545 S
C493 C492 1.367 . S
C493 C501 1.433 1_545 S
C494 H490 0.929 . S
C494 C496 1.378 . S
C494 C498 1.350 . S
C495 C498 1.463 . S
C495 C500 1.350 . S
C495 N503 1.427 . S
C496 H487 0.930 . S
C496 C494 1.378 . S
C496 C497 1.367 . S
C497 C496 1.367 . S
C497 C499 1.433 . S
C498 C494 1.350 . S
C498 C495 1.463 . S
C498 N502 1.427 . S
C499 H489 0.929 . S
C499 C497 1.433 . S
C499 N502 1.384 . S
C500 H491 0.929 . S
C500 C492 1.378 1_565 S
C500 C495 1.350 . S
C501 H488 0.929 . S
C501 C493 1.433 1_565 S
C501 N503 1.384 . S
N502 C498 1.427 . S
N502 C499 1.384 . S
N503 C495 1.427 . S
N503 C501 1.384 . S
H504 C510 0.930 . S
H505 C514 0.930 . S
H506 C519 0.929 . S
H507 C517 0.929 . S
H508 C512 0.929 . S
H509 C518 0.929 . S
C510 H504 0.930 . S
C510 C511 1.367 . S
C510 C518 1.378 . S
C511 C510 1.367 . S
C511 C519 1.433 . S
C512 H508 0.929 . S
C512 C514 1.378 1_655 S
C512 C516 1.350 . S
C513 C516 1.463 . S
C513 C518 1.350 . S
C513 N521 1.427 . S
C514 H505 0.930 . S
C514 C512 1.378 1_455 S
C514 C515 1.367 . S
C515 C514 1.367 . S
C515 C517 1.433 1_455 S
C516 C512 1.350 . S
C516 C513 1.463 . S
C516 N520 1.427 . S
C517 H507 0.929 . S
C517 C515 1.433 1_655 S
C517 N520 1.384 . S
C518 H509 0.929 . S
C518 C510 1.378 . S
C518 C513 1.350 . S
C519 H506 0.929 . S
C519 C511 1.433 . S
C519 N521 1.384 . S
N520 C516 1.427 . S
N520 C517 1.384 . S
N521 C513 1.427 . S
N521 C519 1.384 . S
H522 C528 0.930 . S
H523 C532 0.932 1_655 S
H524 C537 0.929 . S
H525 C535 0.929 . S
H526 C530 0.929 . S
H527 C536 0.929 . S
C528 H522 0.930 . S
C528 C529 1.367 . S
C528 C536 1.378 1_545 S
C529 C528 1.367 . S
C529 C537 1.433 . S
C530 H526 0.929 . S
C530 C532 1.378 . S
C530 C534 1.350 . S
C531 C534 1.463 . S
C531 C536 1.350 . S
C531 N539 1.427 . S
C532 H523 0.932 1_455 S
C532 C530 1.378 . S
C532 C533 1.367 1_455 S
C533 C532 1.367 1_655 S
C533 C535 1.433 . S
C534 C530 1.350 . S
C534 C531 1.463 . S
C534 N538 1.427 . S
C535 H525 0.929 . S
C535 C533 1.433 . S
C535 N538 1.384 1_655 S
C536 H527 0.929 . S
C536 C528 1.378 1_565 S
C536 C531 1.350 . S
C537 H524 0.929 . S
C537 C529 1.433 . S
C537 N539 1.384 1_545 S
N538 C534 1.427 . S
N538 C535 1.384 1_455 S
N539 C531 1.427 . S
N539 C537 1.384 1_565 S
H540 C546 0.930 . S
H541 C550 0.930 . S
H542 C555 0.929 . S
H543 C553 0.929 . S
H544 C548 0.929 1_554 S
H545 C554 0.929 1_556 S
C546 H540 0.930 . S
C546 C547 1.367 . S
C546 C554 1.378 . S
C547 C546 1.367 . S
C547 C555 1.433 . S
C548 H544 0.929 1_556 S
C548 C550 1.378 . S
C548 C552 1.350 . S
C549 C552 1.463 1_554 S
C549 C554 1.350 . S
C549 N557 1.427 . S
C550 H541 0.930 . S
C550 C548 1.378 . S
C550 C551 1.367 . S
C551 C550 1.367 . S
C551 C553 1.433 . S
C552 C548 1.350 . S
C552 C549 1.463 1_556 S
C552 N556 1.427 . S
C553 H543 0.929 . S
C553 C551 1.433 . S
C553 N556 1.384 . S
C554 H545 0.929 1_554 S
C554 C546 1.378 . S
C554 C549 1.350 . S
C555 H542 0.929 . S
C555 C547 1.433 . S
C555 N557 1.384 . S
N556 C552 1.427 . S
N556 C553 1.384 . S
N557 C549 1.427 . S
N557 C555 1.384 . S
H558 C564 0.930 . S
H559 C568 0.930 . S
H560 C573 0.929 . S
H561 C571 0.929 . S
H562 C566 0.929 1_655 S
H563 C572 0.929 1_455 S
C564 H558 0.930 . S
C564 C565 1.367 . S
C564 C572 1.378 . S
C565 C564 1.367 . S
C565 C573 1.433 . S
C566 H562 0.929 1_455 S
C566 C568 1.378 . S
C566 C570 1.350 . S
C567 C570 1.463 1_655 S
C567 C572 1.350 . S
C567 N575 1.427 . S
C568 H559 0.930 . S
C568 C566 1.378 . S
C568 C569 1.367 . S
C569 C568 1.367 . S
C569 C571 1.433 . S
C570 C566 1.350 . S
C570 C567 1.463 1_455 S
C570 N574 1.427 . S
C571 H561 0.929 . S
C571 C569 1.433 . S
C571 N574 1.384 . S
C572 H563 0.929 1_655 S
C572 C564 1.378 . S
C572 C567 1.350 . S
C573 H560 0.929 . S
C573 C565 1.433 . S
C573 N575 1.384 . S
N574 C570 1.427 . S
N574 C571 1.384 . S
N575 C567 1.427 . S
N575 C573 1.384 . S
H576 C582 0.930 . S
H577 C586 0.930 . S
H578 C591 0.929 . S
H579 C589 0.929 . S
H580 C584 0.929 1_554 S
H581 C590 0.929 1_556 S
C582 H576 0.930 . S
C582 C583 1.367 . S
C582 C590 1.378 . S
C583 C582 1.367 . S
C583 C591 1.433 . S
C584 H580 0.929 1_556 S
C584 C586 1.378 . S
C584 C588 1.350 . S
C585 C588 1.463 1_564 S
C585 C590 1.350 . S
C585 N593 1.427 . S
C586 H577 0.930 . S
C586 C584 1.378 . S
C586 C587 1.367 . S
C587 C586 1.367 . S
C587 C589 1.433 . S
C588 C584 1.350 . S
C588 C585 1.463 1_546 S
C588 N592 1.427 . S
C589 H579 0.929 . S
C589 C587 1.433 . S
C589 N592 1.384 . S
C590 H581 0.929 1_554 S
C590 C582 1.378 . S
C590 C585 1.350 . S
C591 H578 0.929 . S
C591 C583 1.433 . S
C591 N593 1.384 . S
N592 C588 1.427 . S
N592 C589 1.384 . S
N593 C585 1.427 . S
N593 C591 1.384 . S
H594 C600 0.930 . S
H595 C604 0.930 . S
H596 C609 0.929 . S
H597 C607 0.929 . S
H598 C602 0.929 . S
H599 C608 0.929 . S
C600 H594 0.930 . S
C600 C601 1.367 . S
C600 C608 1.378 . S
C601 C600 1.367 . S
C601 C609 1.433 . S
C602 H598 0.929 . S
C602 C604 1.378 . S
C602 C606 1.350 . S
C603 C606 1.463 . S
C603 C608 1.350 . S
C603 N611 1.427 . S
C604 H595 0.930 . S
C604 C602 1.378 . S
C604 C605 1.367 . S
C605 C604 1.367 . S
C605 C607 1.433 . S
C606 C602 1.350 . S
C606 C603 1.463 . S
C606 N610 1.427 . S
C607 H597 0.929 . S
C607 C605 1.433 . S
C607 N610 1.384 . S
C608 H599 0.929 . S
C608 C600 1.378 . S
C608 C603 1.350 . S
C609 H596 0.929 . S
C609 C601 1.433 . S
C609 N611 1.384 . S
N610 C606 1.427 . S
N610 C607 1.384 . S
N611 C603 1.427 . S
N611 C609 1.384 . S
H612 C618 0.930 . S
H613 C622 0.930 . S
H614 C627 0.929 . S
H615 C625 0.929 . S
H616 C620 0.929 1_556 S
H617 C626 0.929 1_554 S
C618 H612 0.930 . S
C618 C619 1.367 . S
C618 C626 1.378 . S
C619 C618 1.367 . S
C619 C627 1.433 . S
C620 H616 0.929 1_554 S
C620 C622 1.378 . S
C620 C624 1.350 . S
C621 C624 1.463 1_656 S
C621 C626 1.350 . S
C621 N629 1.427 . S
C622 H613 0.930 . S
C622 C620 1.378 . S
C622 C623 1.367 . S
C623 C622 1.367 . S
C623 C625 1.433 . S
C624 C620 1.350 . S
C624 C621 1.463 1_454 S
C624 N628 1.427 . S
C625 H615 0.929 . S
C625 C623 1.433 . S
C625 N628 1.384 . S
C626 H617 0.929 1_556 S
C626 C618 1.378 . S
C626 C621 1.350 . S
C627 H614 0.929 . S
C627 C619 1.433 . S
C627 N629 1.384 . S
N628 C624 1.427 . S
N628 C625 1.384 . S
N629 C621 1.427 . S
N629 C627 1.384 . S
H630 C636 0.930 . S
H631 C640 0.930 . S
H632 C645 0.929 . S
H633 C643 0.929 . S
H634 C638 0.929 1_545 S
H635 C644 0.929 1_565 S
C636 H630 0.930 . S
C636 C637 1.367 . S
C636 C644 1.378 . S
C637 C636 1.367 . S
C637 C645 1.433 . S
C638 H634 0.929 1_565 S
C638 C640 1.378 . S
C638 C642 1.350 . S
C639 C642 1.463 1_545 S
C639 C644 1.350 . S
C639 N647 1.427 . S
C640 H631 0.930 . S
C640 C638 1.378 . S
C640 C641 1.367 . S
C641 C640 1.367 . S
C641 C643 1.433 . S
C642 C638 1.350 . S
C642 C639 1.463 1_565 S
C642 N646 1.427 . S
C643 H633 0.929 . S
C643 C641 1.433 . S
C643 N646 1.384 . S
C644 H635 0.929 1_545 S
C644 C636 1.378 . S
C644 C639 1.350 . S
C645 H632 0.929 . S
C645 C637 1.433 . S
C645 N647 1.384 . S
N646 C642 1.427 . S
N646 C643 1.384 . S
N647 C639 1.427 . S
N647 C645 1.384 . S
H648 C654 0.930 . S
H649 C658 0.930 . S
H650 C663 0.929 . S
H651 C661 0.929 . S
H652 C656 0.929 . S
H653 C662 0.929 . S
C654 H648 0.930 . S
C654 C655 1.367 . S
C654 C662 1.378 . S
C655 C654 1.367 . S
C655 C663 1.433 . S
C656 H652 0.929 . S
C656 C658 1.378 . S
C656 C660 1.350 . S
C657 C660 1.463 1_556 S
C657 C662 1.350 . S
C657 N665 1.427 . S
C658 H649 0.930 . S
C658 C656 1.378 . S
C658 C659 1.367 . S
C659 C658 1.367 . S
C659 C661 1.433 . S
C660 C656 1.350 . S
C660 C657 1.463 1_554 S
C660 N664 1.427 . S
C661 H651 0.929 . S
C661 C659 1.433 . S
C661 N664 1.384 . S
C662 H653 0.929 . S
C662 C654 1.378 . S
C662 C657 1.350 . S
C663 H650 0.929 . S
C663 C655 1.433 . S
C663 N665 1.384 . S
N664 C660 1.427 . S
N664 C661 1.384 . S
N665 C657 1.427 . S
N665 C663 1.384 . S
H666 C672 0.930 . S
H667 C676 0.930 . S
H668 C681 0.929 . S
H669 C679 0.929 . S
H670 C674 0.929 1_455 S
H671 C680 0.929 1_655 S
C672 H666 0.930 . S
C672 C673 1.367 . S
C672 C680 1.378 . S
C673 C672 1.367 . S
C673 C681 1.433 . S
C674 H670 0.929 1_655 S
C674 C676 1.378 . S
C674 C678 1.350 . S
C675 C678 1.463 1_455 S
C675 C680 1.350 . S
C675 N683 1.427 . S
C676 H667 0.930 . S
C676 C674 1.378 . S
C676 C677 1.367 . S
C677 C676 1.367 . S
C677 C679 1.433 . S
C678 C674 1.350 . S
C678 C675 1.463 1_655 S
C678 N682 1.427 . S
C679 H669 0.929 . S
C679 C677 1.433 . S
C679 N682 1.384 . S
C680 H671 0.929 1_455 S
C680 C672 1.378 . S
C680 C675 1.350 . S
C681 H668 0.929 . S
C681 C673 1.433 . S
C681 N683 1.384 . S
N682 C678 1.427 . S
N682 C679 1.384 . S
N683 C675 1.427 . S
N683 C681 1.384 . S
H684 C690 0.930 . S
H685 C694 0.930 . S
H686 C699 0.929 . S
H687 C697 0.929 . S
H688 C692 0.929 . S
H689 C698 0.929 . S
C690 H684 0.930 . S
C690 C691 1.367 . S
C690 C698 1.378 1_545 S
C691 C690 1.367 . S
C691 C699 1.433 . S
C692 H688 0.929 . S
C692 C694 1.378 1_545 S
C692 C696 1.350 1_545 S
C693 C696 1.463 1_546 S
C693 C698 1.350 1_545 S
C693 N701 1.427 . S
C694 H685 0.930 . S
C694 C692 1.378 1_565 S
C694 C695 1.367 . S
C695 C694 1.367 . S
C695 C697 1.433 . S
C696 C692 1.350 1_565 S
C696 C693 1.463 1_564 S
C696 N700 1.427 . S
C697 H687 0.929 . S
C697 C695 1.433 . S
C697 N700 1.384 . S
C698 H689 0.929 . S
C698 C690 1.378 1_565 S
C698 C693 1.350 1_565 S
C699 H686 0.929 . S
C699 C691 1.433 . S
C699 N701 1.384 . S
N700 C696 1.427 . S
N700 C697 1.384 . S
N701 C693 1.427 . S
N701 C699 1.384 . S
H702 C708 0.930 . S
H703 C712 0.930 . S
H704 C717 0.929 . S
H705 C715 0.929 . S
H706 C710 0.929 . S
H707 C716 0.929 . S
C708 H702 0.930 . S
C708 C709 1.367 . S
C708 C716 1.378 . S
C709 C708 1.367 . S
C709 C717 1.433 . S
C710 H706 0.929 . S
C710 C712 1.378 . S
C710 C714 1.350 . S
C711 C714 1.463 . S
C711 C716 1.350 . S
C711 N719 1.427 . S
C712 H703 0.930 . S
C712 C710 1.378 . S
C712 C713 1.367 . S
C713 C712 1.367 . S
C713 C715 1.433 . S
C714 C710 1.350 . S
C714 C711 1.463 . S
C714 N718 1.427 . S
C715 H705 0.929 . S
C715 C713 1.433 . S
C715 N718 1.384 . S
C716 H707 0.929 . S
C716 C708 1.378 . S
C716 C711 1.350 . S
C717 H704 0.929 . S
C717 C709 1.433 . S
C717 N719 1.384 . S
N718 C714 1.427 . S
N718 C715 1.384 . S
N719 C711 1.427 . S
N719 C717 1.384 . S
H720 C726 0.930 . S
H721 C730 0.930 . S
H722 C735 0.929 . S
H723 C733 0.929 . S
H724 C728 0.929 . S
H725 C734 0.929 . S
C726 H720 0.930 . S
C726 C727 1.367 . S
C726 C734 1.378 . S
C727 C726 1.367 . S
C727 C735 1.433 . S
C728 H724 0.929 . S
C728 C730 1.378 . S
C728 C732 1.350 . S
C729 C732 1.463 1_454 S
C729 C734 1.350 . S
C729 N737 1.427 . S
C730 H721 0.930 . S
C730 C728 1.378 . S
C730 C731 1.367 . S
C731 C730 1.367 . S
C731 C733 1.433 . S
C732 C728 1.350 . S
C732 C729 1.463 1_656 S
C732 N736 1.427 . S
C733 H723 0.929 . S
C733 C731 1.433 . S
C733 N736 1.384 . S
C734 H725 0.929 . S
C734 C726 1.378 . S
C734 C729 1.350 . S
C735 H722 0.929 . S
C735 C727 1.433 . S
C735 N737 1.384 . S
N736 C732 1.427 . S
N736 C733 1.384 . S
N737 C729 1.427 . S
N737 C735 1.384 . S
H738 C744 0.930 . S
H739 C748 0.930 . S
H740 C753 0.929 . S
H741 C751 0.929 . S
H742 C746 0.929 . S
H743 C752 0.929 . S
C744 H738 0.930 . S
C744 C745 1.367 . S
C744 C752 1.378 . S
C745 C744 1.367 . S
C745 C753 1.433 . S
C746 H742 0.929 . S
C746 C748 1.378 . S
C746 C750 1.350 . S
C747 C750 1.463 1_545 S
C747 C752 1.350 . S
C747 N755 1.427 . S
C748 H739 0.930 . S
C748 C746 1.378 . S
C748 C749 1.367 . S
C749 C748 1.367 . S
C749 C751 1.433 . S
C750 C746 1.350 . S
C750 C747 1.463 1_565 S
C750 N754 1.427 . S
C751 H741 0.929 . S
C751 C749 1.433 . S
C751 N754 1.384 . S
C752 H743 0.929 . S
C752 C744 1.378 . S
C752 C747 1.350 . S
C753 H740 0.929 . S
C753 C745 1.433 . S
C753 N755 1.384 . S
N754 C750 1.427 . S
N754 C751 1.384 . S
N755 C747 1.427 . S
N755 C753 1.384 . S
C331 C32 2.010 . S
C335 C229 2.011 . S
C349 C302 2.015 . S
C353 C67 2.005 . S
C367 C13 2.007 . S
C371 C140 2.014 . S
C385 C86 2.008 . S
C389 C175 2.008 . S
C403 C248 2.011 . S
C407 C121 2.010 . S
C421 C283 2.007 . S
C425 C194 2.014 . S
C439 C22 1.103 . S
C443 C221 1.118 . S
C457 C59 1.121 . S
C461 C292 1.112 . S
C475 C5 1.122 . S
C479 C130 1.109 . S
C493 C76 1.117 . S
C497 C167 1.103 . S
C511 C113 1.103 . S
C515 C238 1.122 . S
C529 C275 1.120 . S
C533 C184 1.113 . S
C547 C10 2.596 . S
C551 C280 2.599 . S
C565 C81 2.594 . S
C569 C27 2.592 . S
C583 C118 2.597 . S
C587 C64 2.599 . S
C601 C189 2.599 . S
C605 C135 2.596 . S
C619 C172 2.600 . S
C623 C226 2.599 . S
C637 C297 2.592 . S
C641 C243 2.594 . S
C655 C190 0.686 . S
C659 C136 0.699 . S
C673 C251 0.684 . S
C677 C197 0.701 . S
C691 C298 0.698 . S
C695 C244 0.688 . S
C709 C305 0.681 . S
C713 C35 0.703 . S
C727 C28 0.700 . S
C731 C82 0.681 . S
C745 C89 0.702 . S
C749 C143 0.680 . S
