# Generated by pormake.
# Topology umc, (4)-cn, num edge types: 1
# Building blocks:
#     Node 0, Type 0, BuildingBlock: ICAMEG_clean_sbu_1, # of connection points: 4
#     Node 1, Type 0, BuildingBlock: ICAMEG_clean_sbu_1, # of connection points: 4
#     Node 2, Type 0, BuildingBlock: ICAMEG_clean_sbu_1, # of connection points: 4
#     Node 3, Type 0, BuildingBlock: ICAMEG_clean_sbu_1, # of connection points: 4
#     Node 4, Type 0, BuildingBlock: ICAMEG_clean_sbu_1, # of connection points: 4
#     Node 5, Type 0, BuildingBlock: ICAMEG_clean_sbu_1, # of connection points: 4
#     Node 6, Type 0, BuildingBlock: ICAMEG_clean_sbu_1, # of connection points: 4
#     Node 7, Type 0, BuildingBlock: ICAMEG_clean_sbu_1, # of connection points: 4
#     Node 8, Type 0, BuildingBlock: ICAMEG_clean_sbu_1, # of connection points: 4
#     Node 9, Type 0, BuildingBlock: ICAMEG_clean_sbu_1, # of connection points: 4
#     Node 10, Type 0, BuildingBlock: ICAMEG_clean_sbu_1, # of connection points: 4
#     Node 11, Type 0, BuildingBlock: ICAMEG_clean_sbu_1, # of connection points: 4
#     Node 12, Type 0, BuildingBlock: ICAMEG_clean_sbu_1, # of connection points: 4
#     Node 13, Type 0, BuildingBlock: ICAMEG_clean_sbu_1, # of connection points: 4
#     Node 14, Type 0, BuildingBlock: ICAMEG_clean_sbu_1, # of connection points: 4
#     Node 15, Type 0, BuildingBlock: ICAMEG_clean_sbu_1, # of connection points: 4
#     Edge 16, Type (0, 0), BuildingBlock: ZUJKAS_clean_linker_0, # of connection points: 2
#     Edge 17, Type (0, 0), BuildingBlock: ZUJKAS_clean_linker_0, # of connection points: 2
#     Edge 18, Type (0, 0), BuildingBlock: ZUJKAS_clean_linker_0, # of connection points: 2
#     Edge 19, Type (0, 0), BuildingBlock: ZUJKAS_clean_linker_0, # of connection points: 2
#     Edge 20, Type (0, 0), BuildingBlock: ZUJKAS_clean_linker_0, # of connection points: 2
#     Edge 21, Type (0, 0), BuildingBlock: ZUJKAS_clean_linker_0, # of connection points: 2
#     Edge 22, Type (0, 0), BuildingBlock: ZUJKAS_clean_linker_0, # of connection points: 2
#     Edge 23, Type (0, 0), BuildingBlock: ZUJKAS_clean_linker_0, # of connection points: 2
#     Edge 24, Type (0, 0), BuildingBlock: ZUJKAS_clean_linker_0, # of connection points: 2
#     Edge 25, Type (0, 0), BuildingBlock: ZUJKAS_clean_linker_0, # of connection points: 2
#     Edge 26, Type (0, 0), BuildingBlock: ZUJKAS_clean_linker_0, # of connection points: 2
#     Edge 27, Type (0, 0), BuildingBlock: ZUJKAS_clean_linker_0, # of connection points: 2
#     Edge 28, Type (0, 0), BuildingBlock: ZUJKAS_clean_linker_0, # of connection points: 2
#     Edge 29, Type (0, 0), BuildingBlock: ZUJKAS_clean_linker_0, # of connection points: 2
#     Edge 30, Type (0, 0), BuildingBlock: ZUJKAS_clean_linker_0, # of connection points: 2
#     Edge 31, Type (0, 0), BuildingBlock: ZUJKAS_clean_linker_0, # of connection points: 2
#     Edge 32, Type (0, 0), BuildingBlock: ZUJKAS_clean_linker_0, # of connection points: 2
#     Edge 33, Type (0, 0), BuildingBlock: ZUJKAS_clean_linker_0, # of connection points: 2
#     Edge 34, Type (0, 0), BuildingBlock: ZUJKAS_clean_linker_0, # of connection points: 2
#     Edge 35, Type (0, 0), BuildingBlock: ZUJKAS_clean_linker_0, # of connection points: 2
#     Edge 36, Type (0, 0), BuildingBlock: ZUJKAS_clean_linker_0, # of connection points: 2
#     Edge 37, Type (0, 0), BuildingBlock: ZUJKAS_clean_linker_0, # of connection points: 2
#     Edge 38, Type (0, 0), BuildingBlock: ZUJKAS_clean_linker_0, # of connection points: 2
#     Edge 39, Type (0, 0), BuildingBlock: ZUJKAS_clean_linker_0, # of connection points: 2
#     Edge 40, Type (0, 0), BuildingBlock: ZUJKAS_clean_linker_0, # of connection points: 2
#     Edge 41, Type (0, 0), BuildingBlock: ZUJKAS_clean_linker_0, # of connection points: 2
#     Edge 42, Type (0, 0), BuildingBlock: ZUJKAS_clean_linker_0, # of connection points: 2
#     Edge 43, Type (0, 0), BuildingBlock: ZUJKAS_clean_linker_0, # of connection points: 2
#     Edge 44, Type (0, 0), BuildingBlock: ZUJKAS_clean_linker_0, # of connection points: 2
#     Edge 45, Type (0, 0), BuildingBlock: ZUJKAS_clean_linker_0, # of connection points: 2
#     Edge 46, Type (0, 0), BuildingBlock: ZUJKAS_clean_linker_0, # of connection points: 2
#     Edge 47, Type (0, 0), BuildingBlock: ZUJKAS_clean_linker_0, # of connection points: 2
# Relax obj value: 0.052
# Max RMSD: 0.131
# Mean RMSD: 0.131
data_MOF--net-umc--node1-ICAMEG_clean_sbu_1--edge1-ZUJKAS_clean_linker_0
_symmetry_space_group_name_H-M    P1
_symmetry_Int_Tables_number       1
_symmetry_cell_setting            triclinic
loop_
_symmetry_equiv_pos_as_xyz
'x, y, z'
_cell_length_a     64.527782
_cell_length_b     43.296304
_cell_length_c     78.254145
_cell_angle_alpha  90.008553
_cell_angle_beta   90.000538
_cell_angle_gamma 90.062031
loop_
_atom_site_label
_atom_site_type_symbol
_atom_site_fract_x
_atom_site_fract_y
_atom_site_fract_z
_atom_type_partial_charge
Co0 Co 0.34653 0.03154 0.37173 0.0
Co1 Co 0.36351 0.10314 0.35809 0.0
O2 O 0.34749 0.0765 0.37323 0.0
C3 C 0.3618 0.04457 0.40631 0.0
O4 O 0.37483 0.06372 0.39897 0.0
C5 C 0.32065 0.1254 0.35489 0.0
O6 O 0.31503 0.09642 0.3532 0.0
O7 O 0.35292 0.0812 0.33756 0.0
O8 O 0.34412 0.03344 0.34629 0.0
H9 H 0.41107 0.12661 0.30893 0.0
H10 H 0.31764 0.06452 0.39487 0.0
O11 O 0.34907 0.02912 0.39724 0.0
H12 H 0.27309 0.00804 0.35427 0.0
H13 H 0.32431 0.92578 0.3912 0.0
H14 H 0.36529 0.98441 0.34901 0.0
H15 H 0.31115 0.00394 0.3525 0.0
H16 H 0.32564 0.98271 0.39232 0.0
O17 O 0.33967 0.13235 0.35688 0.0
H18 H 0.39116 0.09293 0.32836 0.0
H19 H 0.36914 0.17132 0.35544 0.0
H20 H 0.36426 0.92753 0.34733 0.0
H21 H 0.27964 0.06909 0.39718 0.0
H22 H 0.34366 0.89783 0.36853 0.0
H23 H 0.2571 0.04079 0.37674 0.0
O24 O 0.37725 0.02885 0.3697 0.0
H25 H 0.35707 0.15497 0.4153 0.0
H26 H 0.40551 0.12237 0.37002 0.0
H27 H 0.41912 0.14779 0.39591 0.0
H28 H 0.39483 0.16428 0.41877 0.0
H29 H 0.34413 0.12927 0.38926 0.0
H30 H 0.38868 0.20588 0.33622 0.0
H31 H 0.4099 0.18353 0.31281 0.0
O32 O 0.38756 0.07453 0.35903 0.0
C33 C 0.34658 0.05376 0.33464 0.0
C34 C 0.40194 0.13662 0.31912 0.0
C35 C 0.38935 0.18111 0.33443 0.0
N36 N 0.37915 0.13014 0.3431 0.0
C37 C 0.39068 0.11766 0.33019 0.0
C38 C 0.37828 0.16144 0.34524 0.0
C39 C 0.40126 0.16856 0.32129 0.0
C40 C 0.30793 0.0519 0.38604 0.0
N41 N 0.3166 0.03387 0.37362 0.0
C42 C 0.28643 0.05467 0.38736 0.0
C43 C 0.27379 0.03883 0.37587 0.0
C44 C 0.28275 0.02046 0.36326 0.0
C45 C 0.30431 0.01828 0.3623 0.0
C46 C 0.33331 0.93846 0.38187 0.0
C47 C 0.35618 0.97165 0.35821 0.0
C48 C 0.33415 0.97068 0.38246 0.0
N49 N 0.3454 0.98684 0.37066 0.0
C50 C 0.35571 0.93944 0.35723 0.0
C51 C 0.34416 0.9228 0.36914 0.0
C52 C 0.3912 0.04705 0.364 0.0
C53 C 0.3678 0.14798 0.4054 0.0
C54 C 0.39483 0.12947 0.37992 0.0
C55 C 0.40263 0.14389 0.39453 0.0
C56 C 0.38899 0.15315 0.40735 0.0
N57 N 0.37403 0.12448 0.3781 0.0
C58 C 0.36056 0.13354 0.3906 0.0
Co59 Co 0.64886 0.9683 0.37265 0.0
Co60 Co 0.63216 0.89665 0.35883 0.0
O61 O 0.6481 0.9233 0.37403 0.0
C62 C 0.63367 0.95479 0.40717 0.0
O63 O 0.62068 0.9357 0.39975 0.0
C64 C 0.67506 0.8745 0.35556 0.0
O65 O 0.6807 0.90349 0.35395 0.0
O66 O 0.64276 0.91877 0.33836 0.0
O67 O 0.65126 0.9666 0.34719 0.0
H68 H 0.58481 0.87322 0.30953 0.0
H69 H 0.67791 0.9354 0.39568 0.0
O70 O 0.64634 0.97045 0.39816 0.0
H71 H 0.72219 0.9926 0.3552 0.0
H72 H 0.67069 0.07408 0.39238 0.0
H73 H 0.62993 0.01544 0.35004 0.0
H74 H 0.68411 0.99634 0.35346 0.0
H75 H 0.66957 0.01713 0.39336 0.0
O76 O 0.65605 0.86755 0.35758 0.0
H77 H 0.6046 0.90689 0.32906 0.0
H78 H 0.62665 0.82846 0.35607 0.0
H79 H 0.63076 0.07235 0.3485 0.0
H80 H 0.71593 0.93119 0.39796 0.0
H81 H 0.65126 0.10204 0.36978 0.0
H82 H 0.73834 0.95985 0.37759 0.0
O83 O 0.61812 0.97076 0.37064 0.0
H84 H 0.63861 0.84464 0.41598 0.0
H85 H 0.59019 0.87715 0.37068 0.0
H86 H 0.57658 0.8516 0.39652 0.0
H87 H 0.60087 0.83517 0.4194 0.0
H88 H 0.65154 0.87047 0.38998 0.0
H89 H 0.60722 0.79391 0.33676 0.0
H90 H 0.58605 0.81629 0.31333 0.0
O91 O 0.60805 0.92511 0.35978 0.0
C92 C 0.64894 0.94629 0.3355 0.0
C93 C 0.59392 0.8632 0.31973 0.0
C94 C 0.60652 0.81868 0.335 0.0
N95 N 0.61662 0.86966 0.34377 0.0
C96 C 0.60511 0.88215 0.33085 0.0
C97 C 0.61752 0.83835 0.34587 0.0
C98 C 0.59464 0.83125 0.32186 0.0
C99 C 0.68756 0.94817 0.38687 0.0
N100 N 0.6788 0.9662 0.3745 0.0
C101 C 0.70908 0.9456 0.38818 0.0
C102 C 0.72164 0.96165 0.37673 0.0
C103 C 0.71259 0.98001 0.36416 0.0
C104 C 0.69102 0.98199 0.36321 0.0
C105 C 0.66174 0.0614 0.38302 0.0
C106 C 0.63899 0.02821 0.35928 0.0
C107 C 0.66101 0.02917 0.38353 0.0
N108 N 0.64983 0.01301 0.37169 0.0
C109 C 0.63935 0.06042 0.35837 0.0
C110 C 0.65084 0.07707 0.37033 0.0
C111 C 0.60427 0.9525 0.36484 0.0
C112 C 0.62788 0.85161 0.40607 0.0
C113 C 0.60085 0.87007 0.38058 0.0
C114 C 0.59306 0.85557 0.39517 0.0
C115 C 0.6067 0.84634 0.408 0.0
N116 N 0.62165 0.87515 0.37879 0.0
C117 C 0.63512 0.86611 0.39129 0.0
Co118 Co 0.34677 0.96683 0.12411 0.0
Co119 Co 0.36312 0.89613 0.13949 0.0
O120 O 0.34731 0.92178 0.12373 0.0
C121 C 0.36192 0.95065 0.08992 0.0
O122 O 0.37482 0.93203 0.09777 0.0
C123 C 0.32011 0.87474 0.14329 0.0
O124 O 0.31467 0.90389 0.14438 0.0
O125 O 0.35276 0.91987 0.15947 0.0
O126 O 0.34436 0.96703 0.14958 0.0
H127 H 0.41055 0.87584 0.18914 0.0
H128 H 0.31756 0.93246 0.10183 0.0
O129 O 0.34932 0.96706 0.09857 0.0
H130 H 0.27357 0.99298 0.14097 0.0
H131 H 0.3255 0.07124 0.102 0.0
H132 H 0.36593 0.01545 0.14565 0.0
H133 H 0.31166 0.99657 0.14262 0.0
H134 H 0.32633 0.01426 0.1023 0.0
O135 O 0.33906 0.86743 0.14141 0.0
H136 H 0.3909 0.90826 0.16893 0.0
H137 H 0.36819 0.82814 0.14378 0.0
H138 H 0.3654 0.07243 0.14591 0.0
H139 H 0.27952 0.92834 0.09965 0.0
H140 H 0.34507 0.10069 0.12396 0.0
H141 H 0.25726 0.95868 0.11935 0.0
O142 O 0.37752 0.96919 0.12608 0.0
H143 H 0.35615 0.83999 0.08357 0.0
H144 H 0.40493 0.87526 0.12801 0.0
H145 H 0.41828 0.84766 0.10274 0.0
H146 H 0.39382 0.82982 0.0803 0.0
H147 H 0.34347 0.86788 0.10899 0.0
H148 H 0.38747 0.79483 0.1638 0.0
H149 H 0.40891 0.81869 0.18665 0.0
O150 O 0.3874 0.92422 0.13784 0.0
C151 C 0.34668 0.94761 0.16171 0.0
C152 C 0.40132 0.86517 0.17921 0.0
C153 C 0.38835 0.81971 0.165 0.0
N154 N 0.37855 0.8701 0.15511 0.0
C155 C 0.39021 0.88341 0.1677 0.0
C156 C 0.37743 0.83867 0.15373 0.0
C157 C 0.40038 0.83311 0.17781 0.0
C158 C 0.30797 0.94595 0.11034 0.0
N159 N 0.31682 0.96484 0.12229 0.0
C160 C 0.28644 0.94343 0.10909 0.0
C161 C 0.27396 0.96043 0.12017 0.0
C162 C 0.2831 0.97966 0.13231 0.0
C163 C 0.30468 0.98156 0.1332 0.0
C164 C 0.33438 0.05919 0.11165 0.0
C165 C 0.35695 0.0276 0.13613 0.0
C166 C 0.33494 0.02694 0.11186 0.0
N167 N 0.34603 0.01158 0.12406 0.0
C168 C 0.35675 0.05985 0.13631 0.0
C169 C 0.34536 0.0757 0.12398 0.0
C170 C 0.39129 0.95121 0.13221 0.0
C171 C 0.36696 0.84756 0.09329 0.0
C172 C 0.39418 0.86758 0.1183 0.0
C173 C 0.40183 0.85192 0.10403 0.0
C174 C 0.3881 0.84191 0.09145 0.0
N175 N 0.37343 0.87305 0.12001 0.0
C176 C 0.35986 0.86324 0.10774 0.0
Co177 Co 0.64891 0.03269 0.12497 0.0
Co178 Co 0.63165 0.10305 0.14017 0.0
O179 O 0.64784 0.07771 0.12452 0.0
C180 C 0.63369 0.04833 0.09073 0.0
O181 O 0.6206 0.06674 0.09852 0.0
C182 C 0.67444 0.12517 0.14419 0.0
O183 O 0.68001 0.0961 0.14536 0.0
O184 O 0.64207 0.0796 0.16023 0.0
O185 O 0.65126 0.03269 0.15044 0.0
H186 H 0.5836 0.12251 0.18952 0.0
H187 H 0.67776 0.06771 0.10269 0.0
O188 O 0.64642 0.03223 0.09943 0.0
H189 H 0.72238 0.00859 0.14199 0.0
H190 H 0.67146 0.92872 0.10307 0.0
H191 H 0.63026 0.98371 0.14655 0.0
H192 H 0.68432 0.00398 0.14358 0.0
H193 H 0.66996 0.98567 0.10328 0.0
O194 O 0.65545 0.13224 0.1422 0.0
H195 H 0.60373 0.09044 0.16945 0.0
H196 H 0.62595 0.17094 0.14439 0.0
H197 H 0.63146 0.92675 0.14691 0.0
H198 H 0.71574 0.07284 0.10057 0.0
H199 H 0.65218 0.89889 0.12505 0.0
H200 H 0.73832 0.04322 0.12035 0.0
O201 O 0.6182 0.02955 0.1269 0.0
H202 H 0.63854 0.15919 0.08425 0.0
H203 H 0.58975 0.12297 0.12844 0.0
H204 H 0.57633 0.15023 0.10308 0.0
H205 H 0.60081 0.16853 0.08077 0.0
H206 H 0.65128 0.13164 0.10976 0.0
H207 H 0.60618 0.2039 0.16427 0.0
H208 H 0.58476 0.17968 0.187 0.0
O209 O 0.60767 0.07441 0.13842 0.0
C210 C 0.64854 0.05207 0.16254 0.0
C211 C 0.59282 0.13334 0.17964 0.0
C212 C 0.60552 0.17902 0.16548 0.0
N213 N 0.61586 0.1288 0.15569 0.0
C214 C 0.6042 0.1153 0.16821 0.0
C215 C 0.61671 0.16024 0.15429 0.0
C216 C 0.5935 0.16541 0.17822 0.0
C217 C 0.68749 0.05451 0.11123 0.0
N218 N 0.67884 0.03545 0.12318 0.0
C219 C 0.70898 0.05761 0.11002 0.0
C220 C 0.72164 0.04102 0.12114 0.0
C221 C 0.7127 0.0216 0.13329 0.0
C222 C 0.69115 0.01913 0.13415 0.0
C223 C 0.66241 0.9406 0.11268 0.0
C224 C 0.63942 0.97174 0.13707 0.0
C225 C 0.66147 0.97282 0.11284 0.0
N226 N 0.65017 0.98796 0.125 0.0
C227 C 0.63999 0.93949 0.1373 0.0
C228 C 0.6516 0.92388 0.12502 0.0
C229 C 0.60415 0.04723 0.13289 0.0
C230 C 0.62773 0.15141 0.09392 0.0
C231 C 0.6005 0.13086 0.11879 0.0
C232 C 0.59281 0.14632 0.10447 0.0
C233 C 0.60655 0.1566 0.09196 0.0
N234 N 0.62129 0.12586 0.12062 0.0
C235 C 0.63486 0.13592 0.10842 0.0
Co236 Co 0.64869 0.96781 0.62492 0.0
Co237 Co 0.6324 0.89597 0.63871 0.0
O238 O 0.64814 0.92279 0.62348 0.0
C239 C 0.63352 0.95433 0.5904 0.0
O240 O 0.62059 0.93516 0.59783 0.0
C241 C 0.67529 0.87378 0.64167 0.0
O242 O 0.68101 0.90274 0.64328 0.0
O243 O 0.64327 0.9179 0.65913 0.0
O244 O 0.65102 0.96608 0.65039 0.0
H245 H 0.58564 0.8721 0.68832 0.0
H246 H 0.67796 0.9354 0.60185 0.0
O247 O 0.64619 0.97001 0.5994 0.0
H248 H 0.72184 0.99268 0.6426 0.0
H249 H 0.67015 0.07385 0.60537 0.0
H250 H 0.62936 0.01471 0.64746 0.0
H251 H 0.68374 0.99601 0.64428 0.0
H252 H 0.6693 0.01689 0.60434 0.0
O253 O 0.65627 0.8669 0.63971 0.0
H254 H 0.60523 0.90594 0.66875 0.0
H255 H 0.6269 0.82775 0.6413 0.0
H256 H 0.62991 0.07162 0.64905 0.0
H257 H 0.716 0.9316 0.59964 0.0
H258 H 0.65042 0.10156 0.62789 0.0
H259 H 0.73821 0.9603 0.62015 0.0
O260 O 0.61795 0.96994 0.6269 0.0
H261 H 0.63827 0.84443 0.58139 0.0
H262 H 0.5903 0.87642 0.62713 0.0
H263 H 0.57645 0.85103 0.60132 0.0
H264 H 0.6005 0.83486 0.57822 0.0
H265 H 0.65145 0.87011 0.60735 0.0
H266 H 0.60767 0.79303 0.66066 0.0
H267 H 0.58679 0.81521 0.68433 0.0
O268 O 0.60825 0.92436 0.63803 0.0
C269 C 0.64916 0.94556 0.66202 0.0
C270 C 0.59463 0.86217 0.67802 0.0
C271 C 0.60702 0.81779 0.66251 0.0
N272 N 0.61704 0.86883 0.65382 0.0
C273 C 0.6057 0.88121 0.66688 0.0
C274 C 0.6179 0.83755 0.65161 0.0
C275 C 0.5953 0.83025 0.67578 0.0
C276 C 0.68752 0.9482 0.61071 0.0
N277 N 0.67864 0.96603 0.62312 0.0
C278 C 0.70905 0.94585 0.60945 0.0
C279 C 0.7215 0.96193 0.62097 0.0
C280 C 0.71233 0.98008 0.63358 0.0
C281 C 0.69075 0.98184 0.63449 0.0
C282 C 0.6612 0.06105 0.61468 0.0
C283 C 0.63843 0.02759 0.63828 0.0
C284 C 0.66062 0.02882 0.61414 0.0
N285 N 0.64944 0.01253 0.62593 0.0
C286 C 0.63863 0.0598 0.63921 0.0
C287 C 0.65013 0.07659 0.62733 0.0
C288 C 0.60427 0.95161 0.63287 0.0
C289 C 0.62764 0.85129 0.59139 0.0
C290 C 0.60087 0.86947 0.61713 0.0
C291 C 0.59293 0.85506 0.60256 0.0
C292 C 0.60644 0.84597 0.58961 0.0
N293 N 0.62168 0.87462 0.61878 0.0
C294 C 0.63502 0.86571 0.60615 0.0
Co295 Co 0.34629 0.02718 0.62382 0.0
Co296 Co 0.363 0.09876 0.63765 0.0
O297 O 0.34739 0.07214 0.62223 0.0
C298 C 0.36241 0.03994 0.58951 0.0
O299 O 0.37547 0.0587 0.59711 0.0
C300 C 0.32032 0.12204 0.63969 0.0
O301 O 0.31431 0.09324 0.64149 0.0
O302 O 0.35124 0.07744 0.65793 0.0
O303 O 0.34339 0.02926 0.64926 0.0
H304 H 0.40842 0.12223 0.68817 0.0
H305 H 0.3179 0.06003 0.60021 0.0
O306 O 0.34934 0.02467 0.59835 0.0
H307 H 0.2725 0.00416 0.64041 0.0
H308 H 0.32419 0.92143 0.60424 0.0
H309 H 0.36458 0.98009 0.64682 0.0
H310 H 0.31052 0.0 0.6427 0.0
H311 H 0.32567 0.97835 0.60306 0.0
O312 O 0.33945 0.12846 0.63799 0.0
H313 H 0.38909 0.08858 0.66832 0.0
H314 H 0.36923 0.16686 0.64004 0.0
H315 H 0.36339 0.92321 0.64858 0.0
H316 H 0.27996 0.06465 0.59737 0.0
H317 H 0.34308 0.89351 0.62718 0.0
H318 H 0.25699 0.03665 0.6176 0.0
O319 O 0.37694 0.02436 0.62628 0.0
H320 H 0.3596 0.1495 0.57998 0.0
H321 H 0.40569 0.11689 0.62689 0.0
H322 H 0.42067 0.14144 0.60127 0.0
H323 H 0.39757 0.15793 0.57759 0.0
H324 H 0.34527 0.12466 0.60578 0.0
H325 H 0.38822 0.20139 0.65965 0.0
H326 H 0.40806 0.17908 0.68388 0.0
O327 O 0.38682 0.0697 0.63762 0.0
C328 C 0.34508 0.04992 0.66083 0.0
C329 C 0.3999 0.13222 0.67762 0.0
C330 C 0.38854 0.17666 0.66163 0.0
N331 N 0.3782 0.12573 0.65296 0.0
C332 C 0.38897 0.11328 0.66632 0.0
C333 C 0.37778 0.157 0.65059 0.0
C334 C 0.39967 0.16412 0.67522 0.0
C335 C 0.308 0.04754 0.60895 0.0
N336 N 0.31641 0.02964 0.62154 0.0
C337 C 0.28653 0.05035 0.60733 0.0
C338 C 0.27366 0.03467 0.6187 0.0
C339 C 0.28235 0.01645 0.63151 0.0
C340 C 0.30389 0.01423 0.63276 0.0
C341 C 0.33306 0.93412 0.61366 0.0
C342 C 0.3556 0.96732 0.63754 0.0
C343 C 0.33398 0.96634 0.61304 0.0
N344 N 0.34504 0.9825 0.62495 0.0
C345 C 0.35503 0.93512 0.63856 0.0
C346 C 0.34365 0.91847 0.62654 0.0
C347 C 0.39064 0.04235 0.63254 0.0
C348 C 0.36982 0.14251 0.59024 0.0
C349 C 0.39553 0.12399 0.61664 0.0
C350 C 0.4041 0.13793 0.60217 0.0
C351 C 0.39113 0.14719 0.58889 0.0
N352 N 0.37461 0.11948 0.61786 0.0
C353 C 0.36179 0.12856 0.60491 0.0
Co354 Co 0.64924 0.03119 0.87321 0.0
Co355 Co 0.63269 0.10045 0.85626 0.0
O356 O 0.64819 0.07622 0.8729 0.0
C357 C 0.63396 0.04828 0.90724 0.0
O358 O 0.62073 0.06616 0.89924 0.0
C359 C 0.67529 0.12417 0.8538 0.0
O360 O 0.6814 0.0953 0.85286 0.0
O361 O 0.64496 0.07681 0.83703 0.0
O362 O 0.65152 0.0296 0.84772 0.0
H363 H 0.58831 0.11661 0.80427 0.0
H364 H 0.67825 0.06716 0.89485 0.0
O365 O 0.64685 0.03212 0.89873 0.0
H366 H 0.72258 0.00578 0.85639 0.0
H367 H 0.67174 0.9284 0.89677 0.0
H368 H 0.63024 0.9811 0.85264 0.0
H369 H 0.68451 0.00134 0.85494 0.0
H370 H 0.67038 0.98531 0.89558 0.0
O371 O 0.65611 0.13052 0.85512 0.0
H372 H 0.60745 0.08593 0.82562 0.0
H373 H 0.62602 0.16795 0.85118 0.0
H374 H 0.6313 0.92415 0.85326 0.0
H375 H 0.71627 0.07215 0.89682 0.0
H376 H 0.65217 0.89744 0.87545 0.0
H377 H 0.73869 0.04138 0.87745 0.0
O378 O 0.61855 0.02828 0.87145 0.0
H379 H 0.63456 0.15892 0.91171 0.0
H380 H 0.58965 0.11887 0.86575 0.0
H381 H 0.57397 0.14651 0.89008 0.0
H382 H 0.59648 0.16675 0.91328 0.0
H383 H 0.64958 0.13093 0.88722 0.0
H384 H 0.60722 0.19955 0.83004 0.0
H385 H 0.58812 0.17386 0.80641 0.0
O386 O 0.60899 0.07093 0.85708 0.0
C387 C 0.65044 0.04869 0.83531 0.0
C388 C 0.5965 0.12808 0.81455 0.0
C389 C 0.60714 0.17463 0.829 0.0
N390 N 0.61765 0.12513 0.83973 0.0
C391 C 0.60731 0.11082 0.8267 0.0
C392 C 0.61778 0.15662 0.84091 0.0
C393 C 0.59642 0.16019 0.81574 0.0
C394 C 0.68792 0.05347 0.8865 0.0
N395 N 0.67918 0.03387 0.87486 0.0
C396 C 0.70943 0.05649 0.88762 0.0
C397 C 0.722 0.03925 0.87674 0.0
C398 C 0.71297 0.01929 0.86491 0.0
C399 C 0.6914 0.01691 0.86412 0.0
C400 C 0.66263 0.93977 0.88702 0.0
C401 C 0.63946 0.96963 0.86226 0.0
C402 C 0.66177 0.97198 0.8863 0.0
N403 N 0.65038 0.98647 0.87396 0.0
C404 C 0.63995 0.93738 0.86258 0.0
C405 C 0.65165 0.92241 0.87505 0.0
C406 C 0.60503 0.04485 0.86391 0.0
C407 C 0.62459 0.15029 0.90165 0.0
C408 C 0.59955 0.12759 0.8758 0.0
C409 C 0.59059 0.14326 0.88953 0.0
C410 C 0.60322 0.15464 0.90254 0.0
N411 N 0.62053 0.12343 0.87503 0.0
C412 C 0.63302 0.13455 0.88772 0.0
Co413 Co 0.34635 0.96777 0.87236 0.0
Co414 Co 0.3637 0.89888 0.85544 0.0
O415 O 0.34787 0.92277 0.87203 0.0
C416 C 0.36174 0.95083 0.90637 0.0
O417 O 0.37521 0.93338 0.89834 0.0
C418 C 0.32133 0.87447 0.85274 0.0
O419 O 0.31505 0.90326 0.85187 0.0
O420 O 0.35139 0.92234 0.83618 0.0
O421 O 0.34406 0.96931 0.84686 0.0
H422 H 0.40861 0.88369 0.80368 0.0
H423 H 0.31771 0.93106 0.89396 0.0
O424 O 0.34873 0.96681 0.89789 0.0
H425 H 0.27276 0.99146 0.85553 0.0
H426 H 0.32276 0.06997 0.89599 0.0
H427 H 0.36475 0.01832 0.85177 0.0
H428 H 0.31078 0.99682 0.85411 0.0
H429 H 0.32476 0.0131 0.89478 0.0
O430 O 0.34054 0.86838 0.85413 0.0
H431 H 0.38904 0.91396 0.82495 0.0
H432 H 0.371 0.83153 0.85035 0.0
H433 H 0.36305 0.07524 0.85241 0.0
H434 H 0.27976 0.92516 0.89591 0.0
H435 H 0.34193 0.10142 0.87464 0.0
H436 H 0.25701 0.95543 0.87656 0.0
O437 O 0.37702 0.97142 0.87062 0.0
H438 H 0.3619 0.84039 0.91088 0.0
H439 H 0.40682 0.88126 0.86516 0.0
H440 H 0.42254 0.85396 0.88959 0.0
H441 H 0.40003 0.83332 0.91267 0.0
H442 H 0.34682 0.86803 0.88629 0.0
H443 H 0.39024 0.80034 0.82928 0.0
H444 H 0.4093 0.82645 0.80578 0.0
O445 O 0.38712 0.92886 0.85642 0.0
C446 C 0.3455 0.95027 0.83444 0.0
C447 C 0.40045 0.87205 0.8139 0.0
C448 C 0.39011 0.82527 0.82826 0.0
N449 N 0.37909 0.87454 0.83897 0.0
C450 C 0.3894 0.88907 0.82601 0.0
C451 C 0.37922 0.84304 0.84014 0.0
C452 C 0.4008 0.83994 0.81508 0.0
C453 C 0.30791 0.94454 0.88562 0.0
N454 N 0.31644 0.96437 0.874 0.0
C455 C 0.28643 0.941 0.88673 0.0
C456 C 0.27368 0.95796 0.87585 0.0
C457 C 0.2825 0.97817 0.86404 0.0
C458 C 0.30404 0.98106 0.86327 0.0
C459 C 0.33198 0.05883 0.88622 0.0
C460 C 0.35543 0.02956 0.86142 0.0
C461 C 0.33321 0.02665 0.88549 0.0
N462 N 0.34472 0.01244 0.87313 0.0
C463 C 0.35457 0.06179 0.86175 0.0
C464 C 0.34273 0.07647 0.87423 0.0
C465 C 0.39076 0.9551 0.86318 0.0
C466 C 0.37186 0.84919 0.90088 0.0
C467 C 0.39691 0.87234 0.87516 0.0
C468 C 0.40591 0.85687 0.88894 0.0
C469 C 0.39326 0.84527 0.90188 0.0
N470 N 0.37591 0.87609 0.87426 0.0
C471 C 0.36341 0.86473 0.88688 0.0
Co472 Co 0.84623 0.52979 0.37223 0.0
Co473 Co 0.86349 0.60025 0.35734 0.0
O474 O 0.84786 0.57475 0.37332 0.0
C475 C 0.86212 0.54322 0.40654 0.0
O476 O 0.87563 0.56118 0.39888 0.0
C477 C 0.82126 0.6254 0.35603 0.0
O478 O 0.81473 0.59683 0.35438 0.0
O479 O 0.85055 0.57905 0.33757 0.0
O480 O 0.84367 0.53085 0.34671 0.0
H481 H 0.90719 0.62049 0.30539 0.0
H482 H 0.8179 0.56421 0.39519 0.0
O483 O 0.84889 0.52819 0.39775 0.0
H484 H 0.7724 0.50792 0.35523 0.0
H485 H 0.82262 0.4254 0.39282 0.0
H486 H 0.86433 0.48135 0.35001 0.0
H487 H 0.8104 0.50275 0.35334 0.0
H488 H 0.82475 0.48231 0.39336 0.0
O489 O 0.84054 0.63109 0.3574 0.0
H490 H 0.88794 0.58821 0.32597 0.0
H491 H 0.8712 0.66794 0.35439 0.0
H492 H 0.8625 0.42445 0.3489 0.0
H493 H 0.77998 0.56987 0.39763 0.0
H494 H 0.84152 0.39612 0.37042 0.0
H495 H 0.75696 0.54167 0.37751 0.0
O496 O 0.87685 0.52627 0.37014 0.0
H497 H 0.86337 0.65263 0.41464 0.0
H498 H 0.90695 0.61632 0.36693 0.0
H499 H 0.92342 0.64073 0.39197 0.0
H500 H 0.90158 0.65908 0.41605 0.0
H501 H 0.84754 0.62787 0.38941 0.0
H502 H 0.89014 0.70113 0.33406 0.0
H503 H 0.90838 0.67739 0.30938 0.0
O504 O 0.88673 0.56999 0.35692 0.0
C505 C 0.84474 0.55128 0.33496 0.0
C506 C 0.89939 0.6311 0.31613 0.0
C507 C 0.88979 0.67636 0.33221 0.0
N508 N 0.87866 0.62615 0.34146 0.0
C509 C 0.88852 0.61293 0.32785 0.0
C510 C 0.87907 0.65746 0.34367 0.0
C511 C 0.90002 0.66303 0.31837 0.0
C512 C 0.80798 0.55163 0.38651 0.0
N513 N 0.81634 0.53305 0.3742 0.0
C514 C 0.78652 0.55502 0.3879 0.0
C515 C 0.77362 0.53923 0.37659 0.0
C516 C 0.78227 0.52031 0.36408 0.0
C517 C 0.8038 0.51752 0.36305 0.0
C518 C 0.83178 0.43749 0.38335 0.0
C519 C 0.85506 0.46917 0.35934 0.0
C520 C 0.83307 0.4697 0.38361 0.0
N521 N 0.8445 0.48511 0.37163 0.0
C522 C 0.85414 0.43696 0.35868 0.0
C523 C 0.84238 0.42107 0.37077 0.0
C524 C 0.89045 0.54319 0.36291 0.0
C525 C 0.87304 0.64482 0.4042 0.0
C526 C 0.89734 0.62423 0.37736 0.0
C527 C 0.90675 0.63808 0.39149 0.0
C528 C 0.89449 0.64839 0.405 0.0
N529 N 0.87629 0.62082 0.37668 0.0
C530 C 0.86416 0.63092 0.38985 0.0
Co531 Co 0.14903 0.46973 0.37263 0.0
Co532 Co 0.13195 0.39916 0.35773 0.0
O533 O 0.14747 0.42477 0.37372 0.0
C534 C 0.133 0.45617 0.40688 0.0
O535 O 0.11953 0.43826 0.39914 0.0
C536 C 0.17425 0.37431 0.35651 0.0
O537 O 0.18068 0.40294 0.35485 0.0
O538 O 0.14488 0.42041 0.33797 0.0
O539 O 0.15171 0.46864 0.34711 0.0
H540 H 0.0884 0.37856 0.30574 0.0
H541 H 0.17731 0.43543 0.39568 0.0
O542 O 0.14624 0.4713 0.39814 0.0
H543 H 0.22289 0.49186 0.35586 0.0
H544 H 0.17234 0.57422 0.39328 0.0
H545 H 0.13096 0.51807 0.35032 0.0
H546 H 0.1849 0.4969 0.35384 0.0
H547 H 0.1703 0.51731 0.39383 0.0
O548 O 0.15499 0.36847 0.35784 0.0
H549 H 0.10753 0.411 0.32632 0.0
H550 H 0.12444 0.33143 0.3548 0.0
H551 H 0.13271 0.57497 0.34921 0.0
H552 H 0.21523 0.42991 0.39823 0.0
H553 H 0.15352 0.60341 0.3708 0.0
H554 H 0.23829 0.45818 0.37819 0.0
O555 O 0.11841 0.47313 0.37042 0.0
H556 H 0.13208 0.34697 0.41507 0.0
H557 H 0.08852 0.38285 0.36726 0.0
H558 H 0.07205 0.35844 0.3923 0.0
H559 H 0.09388 0.34031 0.41643 0.0
H560 H 0.1479 0.37171 0.38985 0.0
H561 H 0.10562 0.29808 0.33445 0.0
H562 H 0.08736 0.32167 0.30975 0.0
O563 O 0.10863 0.42928 0.35727 0.0
C564 C 0.15069 0.44818 0.33537 0.0
C565 C 0.09621 0.36802 0.31649 0.0
C566 C 0.1059 0.32285 0.3326 0.0
N567 N 0.11688 0.37314 0.34184 0.0
C568 C 0.10701 0.38628 0.32822 0.0
C569 C 0.11655 0.34183 0.34406 0.0
C570 C 0.09566 0.3361 0.31874 0.0
C571 C 0.18725 0.44805 0.38703 0.0
N572 N 0.17891 0.46658 0.37469 0.0
C573 C 0.20871 0.44473 0.38848 0.0
C574 C 0.22163 0.46056 0.37722 0.0
C575 C 0.213 0.47944 0.36468 0.0
C576 C 0.19148 0.48216 0.36358 0.0
C577 C 0.16326 0.56209 0.38378 0.0
C578 C 0.14016 0.5303 0.35969 0.0
C579 C 0.16202 0.52988 0.38404 0.0
N580 N 0.15068 0.51442 0.37202 0.0
C581 C 0.14104 0.56251 0.35903 0.0
C582 C 0.1527 0.57845 0.37116 0.0
C583 C 0.10485 0.45611 0.3632 0.0
C584 C 0.12241 0.35467 0.40461 0.0
C585 C 0.09813 0.37502 0.37771 0.0
C586 C 0.08871 0.36117 0.39184 0.0
C587 C 0.10097 0.35099 0.40538 0.0
N588 N 0.11917 0.37855 0.37706 0.0
C589 C 0.13129 0.36856 0.39026 0.0
Co590 Co 0.84654 0.46696 0.12386 0.0
Co591 Co 0.86375 0.39807 0.14087 0.0
O592 O 0.84808 0.42197 0.12418 0.0
C593 C 0.86237 0.45005 0.08999 0.0
O594 O 0.87579 0.43271 0.09814 0.0
C595 C 0.82139 0.37362 0.14332 0.0
O596 O 0.81507 0.4024 0.14411 0.0
O597 O 0.85119 0.42148 0.16005 0.0
O598 O 0.84392 0.46846 0.14935 0.0
H599 H 0.90808 0.38289 0.19297 0.0
H600 H 0.81818 0.43025 0.102 0.0
O601 O 0.84923 0.466 0.09835 0.0
H602 H 0.77273 0.49055 0.14009 0.0
H603 H 0.82317 0.56914 0.10008 0.0
H604 H 0.86465 0.51753 0.14462 0.0
H605 H 0.81073 0.49593 0.14184 0.0
H606 H 0.8252 0.51227 0.10128 0.0
O607 O 0.84062 0.36756 0.142 0.0
H608 H 0.88871 0.41315 0.17157 0.0
H609 H 0.87106 0.33074 0.14596 0.0
H610 H 0.86292 0.57445 0.14399 0.0
H611 H 0.78026 0.42434 0.09972 0.0
H612 H 0.84205 0.60061 0.1216 0.0
H613 H 0.75726 0.45456 0.1189 0.0
O614 O 0.87718 0.47067 0.12587 0.0
H615 H 0.86258 0.33971 0.08537 0.0
H616 H 0.90698 0.38054 0.13145 0.0
H617 H 0.92299 0.35335 0.10712 0.0
H618 H 0.90074 0.33272 0.08385 0.0
H619 H 0.84722 0.36725 0.10988 0.0
H620 H 0.89011 0.29955 0.16715 0.0
H621 H 0.90886 0.32566 0.19082 0.0
O622 O 0.88713 0.42806 0.14009 0.0
C623 C 0.84523 0.44939 0.16176 0.0
C624 C 0.90004 0.37125 0.18267 0.0
C625 C 0.88994 0.32447 0.16819 0.0
N626 N 0.87897 0.37374 0.15743 0.0
C627 C 0.88911 0.38827 0.17049 0.0
C628 C 0.87916 0.34224 0.15625 0.0
C629 C 0.90046 0.33914 0.18147 0.0
C630 C 0.80827 0.44371 0.11027 0.0
N631 N 0.81665 0.46352 0.12197 0.0
C632 C 0.78681 0.44016 0.10897 0.0
C633 C 0.77392 0.45709 0.11975 0.0
C634 C 0.78259 0.47728 0.13165 0.0
C635 C 0.80411 0.48018 0.13261 0.0
C636 C 0.83228 0.55801 0.10992 0.0
C637 C 0.85544 0.52876 0.13491 0.0
C638 C 0.83352 0.52583 0.11064 0.0
N639 N 0.84489 0.51164 0.1231 0.0
C640 C 0.85456 0.56099 0.13458 0.0
C641 C 0.84287 0.57565 0.122 0.0
C642 C 0.89083 0.45432 0.1334 0.0
C643 C 0.87243 0.3485 0.09546 0.0
C644 C 0.89719 0.37164 0.12138 0.0
C645 C 0.90634 0.35622 0.10764 0.0
C646 C 0.89385 0.34463 0.0946 0.0
N647 N 0.87617 0.37533 0.12213 0.0
C648 C 0.86382 0.36399 0.1094 0.0
Co649 Co 0.14934 0.53161 0.12415 0.0
Co650 Co 0.13162 0.60011 0.14126 0.0
O651 O 0.14738 0.57656 0.12449 0.0
C652 C 0.13325 0.5482 0.09031 0.0
O653 O 0.11972 0.56531 0.0985 0.0
C654 C 0.17373 0.62551 0.14337 0.0
O655 O 0.18032 0.59688 0.14424 0.0
O656 O 0.14459 0.57703 0.16036 0.0
O657 O 0.15204 0.53013 0.14965 0.0
H658 H 0.0876 0.61433 0.19363 0.0
H659 H 0.17729 0.56892 0.10225 0.0
O660 O 0.14656 0.53253 0.09865 0.0
H661 H 0.22341 0.50953 0.14023 0.0
H662 H 0.17356 0.42993 0.10028 0.0
H663 H 0.13174 0.48066 0.14492 0.0
H664 H 0.18547 0.50335 0.14204 0.0
H665 H 0.17103 0.48676 0.10151 0.0
O666 O 0.15443 0.63116 0.14221 0.0
H667 H 0.10708 0.5845 0.17211 0.0
H668 H 0.12367 0.66728 0.1464 0.0
H669 H 0.13398 0.42379 0.14425 0.0
H670 H 0.21515 0.57564 0.09992 0.0
H671 H 0.15502 0.39807 0.12181 0.0
H672 H 0.23848 0.54589 0.11904 0.0
O673 O 0.11875 0.52731 0.12622 0.0
H674 H 0.13161 0.65848 0.08576 0.0
H675 H 0.08812 0.61661 0.13213 0.0
H676 H 0.07158 0.64343 0.10792 0.0
H677 H 0.09337 0.66458 0.08451 0.0
H678 H 0.1475 0.63128 0.11016 0.0
H679 H 0.10451 0.69805 0.16771 0.0
H680 H 0.08623 0.67154 0.1915 0.0
O681 O 0.10853 0.56957 0.14064 0.0
C682 C 0.15072 0.54921 0.16206 0.0
C683 C 0.09543 0.62614 0.18328 0.0
C684 C 0.10494 0.67314 0.16875 0.0
N685 N 0.1163 0.62412 0.15792 0.0
C686 C 0.10642 0.60937 0.17103 0.0
C687 C 0.11579 0.6556 0.15674 0.0
C688 C 0.09469 0.65824 0.18209 0.0
C689 C 0.18735 0.55566 0.11049 0.0
N690 N 0.17919 0.53566 0.1222 0.0
C691 C 0.20877 0.55966 0.10917 0.0
C692 C 0.22185 0.543 0.11991 0.0
C693 C 0.21341 0.52261 0.13182 0.0
C694 C 0.19191 0.51925 0.13281 0.0
C695 C 0.16438 0.44087 0.11014 0.0
C696 C 0.14103 0.46963 0.13518 0.0
C697 C 0.16286 0.47302 0.11088 0.0
N698 N 0.15139 0.48698 0.12337 0.0
C699 C 0.14219 0.43742 0.13484 0.0
C700 C 0.15398 0.42301 0.12223 0.0
C701 C 0.10501 0.54331 0.13387 0.0
C702 C 0.12196 0.64945 0.09591 0.0
C703 C 0.09771 0.62574 0.122 0.0
C704 C 0.08826 0.64095 0.10833 0.0
C705 C 0.1005 0.65283 0.0952 0.0
N706 N 0.11877 0.62253 0.1226 0.0
C707 C 0.13087 0.63416 0.1098 0.0
Co708 Co 0.14861 0.46643 0.62474 0.0
Co709 Co 0.13214 0.39501 0.63897 0.0
O710 O 0.14778 0.42142 0.62346 0.0
C711 C 0.13312 0.4527 0.59035 0.0
O712 O 0.11994 0.43411 0.59794 0.0
C713 C 0.17487 0.37197 0.64132 0.0
O714 O 0.18085 0.40082 0.64293 0.0
O715 O 0.14369 0.41684 0.65916 0.0
O716 O 0.1511 0.46501 0.65023 0.0
H717 H 0.08643 0.37234 0.68941 0.0
H718 H 0.17756 0.43336 0.60168 0.0
O719 O 0.14599 0.46827 0.59922 0.0
H720 H 0.22201 0.49066 0.642 0.0
H721 H 0.17054 0.57193 0.60465 0.0
H722 H 0.1297 0.51388 0.64717 0.0
H723 H 0.18394 0.49445 0.64383 0.0
H724 H 0.16935 0.51497 0.60387 0.0
O725 O 0.15576 0.36545 0.63961 0.0
H726 H 0.10582 0.40568 0.66945 0.0
H727 H 0.12605 0.32692 0.64174 0.0
H728 H 0.13059 0.5708 0.64852 0.0
H729 H 0.21557 0.42909 0.59931 0.0
H730 H 0.15113 0.6002 0.62715 0.0
H731 H 0.23806 0.4578 0.6196 0.0
O732 O 0.11791 0.46895 0.62685 0.0
H733 H 0.13612 0.34326 0.58159 0.0
H734 H 0.08959 0.37631 0.62811 0.0
H735 H 0.07487 0.35121 0.60255 0.0
H736 H 0.0982 0.33451 0.57905 0.0
H737 H 0.15018 0.36864 0.60733 0.0
H738 H 0.107 0.2927 0.66148 0.0
H739 H 0.08695 0.31541 0.68548 0.0
O740 O 0.10824 0.42389 0.63863 0.0
C741 C 0.14954 0.44456 0.66192 0.0
C742 C 0.09505 0.36217 0.67897 0.0
C743 C 0.10662 0.31747 0.6633 0.0
N744 N 0.1169 0.36827 0.65437 0.0
C745 C 0.10601 0.38094 0.6676 0.0
C746 C 0.1174 0.33696 0.65219 0.0
C747 C 0.09537 0.33023 0.67676 0.0
C748 C 0.18725 0.44616 0.61045 0.0
N749 N 0.17854 0.46426 0.62282 0.0
C750 C 0.20876 0.44355 0.60909 0.0
C751 C 0.22137 0.45963 0.6205 0.0
C752 C 0.21237 0.47806 0.63307 0.0
C753 C 0.19081 0.48007 0.63407 0.0
C754 C 0.16158 0.55937 0.61406 0.0
C755 C 0.13878 0.52652 0.6379 0.0
C756 C 0.16082 0.52714 0.61366 0.0
N757 N 0.14962 0.51115 0.62556 0.0
C758 C 0.13917 0.55874 0.6387 0.0
C759 C 0.15068 0.57522 0.62669 0.0
C760 C 0.10428 0.451 0.63324 0.0
C761 C 0.12581 0.35034 0.59176 0.0
C762 C 0.09985 0.36911 0.61794 0.0
C763 C 0.09142 0.35487 0.60351 0.0
C764 C 0.10452 0.34549 0.59034 0.0
N765 N 0.12074 0.37381 0.61924 0.0
C766 C 0.13369 0.3646 0.6064 0.0
Co767 Co 0.84665 0.52957 0.62428 0.0
Co768 Co 0.8638 0.60087 0.63818 0.0
O769 O 0.84797 0.57452 0.62278 0.0
C770 C 0.8627 0.54251 0.58998 0.0
O771 O 0.87598 0.56083 0.59764 0.0
C772 C 0.82125 0.62454 0.64049 0.0
O773 O 0.81515 0.59579 0.64228 0.0
O774 O 0.85209 0.57952 0.65847 0.0
O775 O 0.84383 0.53152 0.64972 0.0
H776 H 0.90973 0.62357 0.68849 0.0
H777 H 0.81835 0.56296 0.60081 0.0
O778 O 0.84958 0.52727 0.59879 0.0
H779 H 0.77279 0.50731 0.64098 0.0
H780 H 0.82392 0.42424 0.60451 0.0
H781 H 0.86471 0.48209 0.64716 0.0
H782 H 0.81079 0.50268 0.64318 0.0
H783 H 0.82572 0.48115 0.60344 0.0
O784 O 0.84039 0.63081 0.63868 0.0
H785 H 0.89007 0.59024 0.6687 0.0
H786 H 0.87036 0.66889 0.64066 0.0
H787 H 0.8632 0.42522 0.64879 0.0
H788 H 0.78043 0.56806 0.59808 0.0
H789 H 0.84269 0.39592 0.62735 0.0
H790 H 0.75738 0.54017 0.61829 0.0
O791 O 0.87729 0.52634 0.62669 0.0
H792 H 0.86022 0.65176 0.58056 0.0
H793 H 0.90649 0.61869 0.62724 0.0
H794 H 0.92141 0.64312 0.60156 0.0
H795 H 0.89821 0.65982 0.57799 0.0
H796 H 0.84597 0.62705 0.60642 0.0
H797 H 0.88967 0.70311 0.66023 0.0
H798 H 0.9096 0.68045 0.68431 0.0
O799 O 0.88748 0.57157 0.63799 0.0
C800 C 0.84573 0.55209 0.66133 0.0
C801 C 0.90116 0.63371 0.67801 0.0
C802 C 0.88988 0.67836 0.66216 0.0
N803 N 0.87924 0.62759 0.65346 0.0
C804 C 0.89005 0.61495 0.66674 0.0
C805 C 0.87895 0.65888 0.65115 0.0
C806 C 0.90106 0.66563 0.67567 0.0
C807 C 0.80842 0.55051 0.60955 0.0
N808 N 0.81677 0.53241 0.62207 0.0
C809 C 0.78696 0.55359 0.60798 0.0
C810 C 0.77404 0.53798 0.61935 0.0
C811 C 0.78267 0.51955 0.63209 0.0
C812 C 0.8042 0.51706 0.63328 0.0
C813 C 0.83287 0.43675 0.61394 0.0
C814 C 0.85564 0.4695 0.63785 0.0
C815 C 0.83398 0.46896 0.61338 0.0
N816 N 0.84516 0.4849 0.62532 0.0
C817 C 0.8549 0.4373 0.63881 0.0
C818 C 0.8434 0.42088 0.62677 0.0
C819 C 0.89112 0.54416 0.63291 0.0
C820 C 0.87048 0.64467 0.59077 0.0
C821 C 0.89629 0.6259 0.61704 0.0
C822 C 0.90483 0.63976 0.60254 0.0
C823 C 0.8918 0.64914 0.58932 0.0
N824 N 0.87536 0.62159 0.61836 0.0
C825 C 0.86249 0.6308 0.60548 0.0
Co826 Co 0.1487 0.53257 0.87283 0.0
Co827 Co 0.13219 0.60149 0.85543 0.0
O828 O 0.14764 0.57757 0.87225 0.0
C829 C 0.13329 0.55039 0.90671 0.0
O830 O 0.12 0.56796 0.89855 0.0
C831 C 0.17481 0.62508 0.85296 0.0
O832 O 0.18088 0.59618 0.85217 0.0
O833 O 0.14453 0.57748 0.83638 0.0
O834 O 0.1511 0.53048 0.84734 0.0
H835 H 0.08798 0.6167 0.80326 0.0
H836 H 0.17761 0.56902 0.89433 0.0
O837 O 0.14621 0.53406 0.89834 0.0
H838 H 0.22213 0.50689 0.85638 0.0
H839 H 0.17113 0.43029 0.8971 0.0
H840 H 0.12984 0.48205 0.85249 0.0
H841 H 0.18406 0.50238 0.85485 0.0
H842 H 0.16974 0.48718 0.89556 0.0
O843 O 0.15563 0.63151 0.85418 0.0
H844 H 0.10705 0.58641 0.82483 0.0
H845 H 0.12557 0.66889 0.84995 0.0
H846 H 0.13093 0.42511 0.85346 0.0
H847 H 0.21561 0.57408 0.89637 0.0
H848 H 0.15169 0.39888 0.8759 0.0
H849 H 0.23813 0.54294 0.87727 0.0
O850 O 0.11802 0.5296 0.87099 0.0
H851 H 0.13389 0.6609 0.91058 0.0
H852 H 0.08913 0.62012 0.86472 0.0
H853 H 0.07337 0.64818 0.88887 0.0
H854 H 0.09581 0.66879 0.91202 0.0
H855 H 0.14899 0.63251 0.88627 0.0
H856 H 0.10685 0.70011 0.82858 0.0
H857 H 0.08781 0.67398 0.80507 0.0
O858 O 0.10849 0.57199 0.85637 0.0
C859 C 0.15005 0.54934 0.83482 0.0
C860 C 0.09615 0.62835 0.81349 0.0
C861 C 0.10676 0.67516 0.82769 0.0
N862 N 0.11721 0.62586 0.83873 0.0
C863 C 0.10691 0.61131 0.82577 0.0
C864 C 0.11736 0.65737 0.83973 0.0
C865 C 0.09608 0.66049 0.8145 0.0
C866 C 0.18732 0.55516 0.88609 0.0
N867 N 0.17864 0.53531 0.87455 0.0
C868 C 0.20882 0.55823 0.88726 0.0
C869 C 0.22145 0.54078 0.87652 0.0
C870 C 0.21247 0.52056 0.86479 0.0
C871 C 0.19091 0.51815 0.86396 0.0
C872 C 0.16206 0.44145 0.88725 0.0
C873 C 0.13901 0.47078 0.86222 0.0
C874 C 0.16118 0.47364 0.88633 0.0
N875 N 0.14986 0.48788 0.87386 0.0
C876 C 0.13952 0.43855 0.86274 0.0
C877 C 0.15116 0.42384 0.87534 0.0
C878 C 0.10452 0.54603 0.86333 0.0
C879 C 0.12396 0.65212 0.90055 0.0
C880 C 0.099 0.62901 0.87475 0.0
C881 C 0.08999 0.64492 0.88838 0.0
C882 C 0.10259 0.65649 0.90136 0.0
N883 N 0.11998 0.62482 0.87404 0.0
C884 C 0.13243 0.63615 0.88671 0.0
Co885 Co 0.84606 0.46776 0.87255 0.0
Co886 Co 0.86341 0.39921 0.85522 0.0
O887 O 0.8477 0.42278 0.87203 0.0
C888 C 0.86186 0.45055 0.9064 0.0
O889 O 0.87528 0.43323 0.89822 0.0
C890 C 0.82108 0.37453 0.85275 0.0
O891 O 0.81469 0.40328 0.85202 0.0
O892 O 0.85081 0.42284 0.83615 0.0
O893 O 0.84352 0.46963 0.84708 0.0
H894 H 0.90777 0.38504 0.80305 0.0
H895 H 0.81773 0.43061 0.8942 0.0
O896 O 0.8487 0.46649 0.89806 0.0
H897 H 0.77224 0.49124 0.85632 0.0
H898 H 0.82243 0.56951 0.89675 0.0
H899 H 0.86414 0.5187 0.85206 0.0
H900 H 0.81023 0.49683 0.85465 0.0
H901 H 0.82457 0.51266 0.8953 0.0
O902 O 0.84033 0.36857 0.85397 0.0
H903 H 0.88836 0.41488 0.8246 0.0
H904 H 0.87084 0.33198 0.84979 0.0
H905 H 0.86229 0.5756 0.85294 0.0
H906 H 0.77981 0.42447 0.89638 0.0
H907 H 0.84132 0.60136 0.87542 0.0
H908 H 0.7568 0.45486 0.87731 0.0
O909 O 0.8767 0.47162 0.87062 0.0
H910 H 0.86242 0.3399 0.9104 0.0
H911 H 0.90669 0.38176 0.86453 0.0
H912 H 0.92278 0.3542 0.8887 0.0
H913 H 0.90059 0.33305 0.91185 0.0
H914 H 0.84698 0.36783 0.88607 0.0
H915 H 0.88993 0.30121 0.82843 0.0
H916 H 0.90864 0.32778 0.80489 0.0
O917 O 0.88676 0.42933 0.85614 0.0
C918 C 0.84487 0.45078 0.83457 0.0
C919 C 0.89976 0.3732 0.81328 0.0
C920 C 0.88972 0.32615 0.82752 0.0
N921 N 0.87868 0.3752 0.83853 0.0
C922 C 0.8888 0.38998 0.82556 0.0
C923 C 0.87892 0.34369 0.83956 0.0
C924 C 0.90022 0.34107 0.81432 0.0
C925 C 0.80781 0.44413 0.88598 0.0
N926 N 0.81618 0.46416 0.87438 0.0
C927 C 0.78635 0.44047 0.88722 0.0
C928 C 0.77345 0.45749 0.87649 0.0
C929 C 0.78211 0.47789 0.86471 0.0
C930 C 0.80363 0.48092 0.8638 0.0
C931 C 0.83159 0.55855 0.88688 0.0
C932 C 0.85488 0.52976 0.86181 0.0
C933 C 0.83289 0.52639 0.88601 0.0
N934 N 0.84432 0.51242 0.87352 0.0
C935 C 0.85394 0.56197 0.86228 0.0
C936 C 0.84218 0.57641 0.8749 0.0
C937 C 0.8904 0.45549 0.863 0.0
C938 C 0.87225 0.34892 0.90036 0.0
C939 C 0.89693 0.37263 0.87456 0.0
C940 C 0.90613 0.35701 0.8882 0.0
C941 C 0.89367 0.34513 0.90118 0.0
N942 N 0.8759 0.37625 0.87384 0.0
C943 C 0.86358 0.36463 0.88651 0.0
H944 H 0.33774 0.00614 0.42578 0.0
H945 H 0.33741 0.00164 0.45696 0.0
H946 H 0.38489 0.07152 0.46052 0.0
H947 H 0.38551 0.07602 0.4294 0.0
H948 H 0.39219 0.01842 0.48085 0.0
H949 H 0.31285 0.06554 0.49032 0.0
H950 H 0.31483 0.03388 0.47556 0.0
H951 H 0.32693 0.07013 0.47055 0.0
C952 C 0.3481 0.02058 0.4332 0.0
C953 C 0.36162 0.04149 0.42512 0.0
C954 C 0.34782 0.01807 0.451 0.0
C955 C 0.36093 0.03654 0.46101 0.0
C956 C 0.3746 0.05714 0.45299 0.0
H957 H 0.38691 0.07126 0.56697 0.0
H958 H 0.38657 0.06796 0.53584 0.0
C959 C 0.37492 0.05967 0.43521 0.0
C960 C 0.36061 0.03433 0.47987 0.0
H961 H 0.33037 0.04768 0.51488 0.0
C962 C 0.37868 0.02476 0.48831 0.0
C963 C 0.34291 0.04249 0.48951 0.0
C964 C 0.32331 0.05383 0.48109 0.0
C965 C 0.37955 0.0232 0.5062 0.0
C966 C 0.36199 0.03197 0.51586 0.0
C967 C 0.34379 0.04096 0.50741 0.0
C968 C 0.36246 0.03323 0.53475 0.0
C969 C 0.3992 0.01197 0.5146 0.0
C970 C 0.34868 0.01528 0.54443 0.0
C971 C 0.34875 0.0172 0.56227 0.0
C972 C 0.36252 0.0373 0.57068 0.0
C973 C 0.37623 0.05535 0.5609 0.0
C974 C 0.37614 0.05339 0.5431 0.0
H975 H 0.40879 0.99809 0.50566 0.0
H976 H 0.40854 0.03217 0.51872 0.0
H977 H 0.3957 0.99775 0.52605 0.0
H978 H 0.3379 -0.00024 0.53818 0.0
H979 H 0.33795 0.00308 0.56943 0.0
H980 H 0.65778 0.99206 0.57066 0.0
H981 H 0.65789 0.99618 0.53944 0.0
H982 H 0.60997 0.9269 0.53644 0.0
H983 H 0.60958 0.92278 0.56754 0.0
H984 H 0.66581 0.94899 0.51557 0.0
H985 H 0.58699 0.99761 0.50713 0.0
H986 H 0.60021 0.99757 0.52747 0.0
H987 H 0.5876 0.96314 0.51988 0.0
C988 C 0.64717 0.97784 0.56335 0.0
C989 C 0.63357 0.95723 0.57158 0.0
C990 C 0.64727 0.98022 0.54554 0.0
C991 C 0.6337 0.96222 0.53568 0.0
C992 C 0.62024 0.94149 0.54384 0.0
H993 H 0.61024 0.92256 0.4301 0.0
H994 H 0.61106 0.9262 0.46124 0.0
C995 C 0.62012 0.93907 0.56163 0.0
C996 C 0.63409 0.96416 0.51681 0.0
H997 H 0.60362 0.97848 0.48206 0.0
C998 C 0.65231 0.95576 0.50821 0.0
C999 C 0.61643 0.97302 0.50731 0.0
C1000 C 0.59675 0.98364 0.5159 0.0
C1001 C 0.65311 0.95487 0.4903 0.0
C1002 C 0.6353 0.96308 0.4808 0.0
C1003 C 0.61722 0.9721 0.48941 0.0
C1004 C 0.63486 0.96142 0.46193 0.0
C1005 C 0.67275 0.9441 0.48169 0.0
C1006 C 0.64782 0.9803 0.45201 0.0
C1007 C 0.64742 0.97827 0.43419 0.0
C1008 C 0.63393 0.95744 0.426 0.0
C1009 C 0.62079 0.93886 0.436 0.0
C1010 C 0.62123 0.9409 0.45379 0.0
H1011 H 0.68333 0.93226 0.49076 0.0
H1012 H 0.66917 0.92809 0.471 0.0
H1013 H 0.68105 0.96436 0.47633 0.0
H1014 H 0.65819 0.99667 0.45806 0.0
H1015 H 0.65766 0.99301 0.42685 0.0
H1016 H 0.3857 0.91731 0.06775 0.0
H1017 H 0.38519 0.91908 0.03655 0.0
H1018 H 0.33699 0.98795 0.03812 0.0
H1019 H 0.33756 0.9867 0.06938 0.0
H1020 H 0.35163 0.90647 0.01494 0.0
H1021 H 0.38038 0.02647 0.00619 0.0
H1022 H 0.38272 0.006 0.02619 0.0
H1023 H 0.35836 0.02276 0.02009 0.0
C1024 C 0.37508 0.93302 0.06149 0.0
C1025 C 0.36175 0.95201 0.07105 0.0
C1026 C 0.3748 0.93394 0.04366 0.0
C1027 C 0.36127 0.95394 0.03506 0.0
C1028 C 0.34784 0.9728 0.04453 0.0
H1029 H 0.33698 0.98576 0.92716 0.0
H1030 H 0.33633 0.98619 0.95844 0.0
C1031 C 0.34811 0.97193 0.06239 0.0
C1032 C 0.36081 0.95425 0.01615 0.0
H1033 H 0.36911 0.00011 0.98133 0.0
C1034 C 0.3555 0.9269 0.00757 0.0
C1035 C 0.36579 0.981 0.00663 0.0
C1036 C 0.37231 0.01069 0.0152 0.0
C1037 C 0.35488 0.92563 0.98967 0.0
C1038 C 0.36004 0.95229 0.98014 0.0
C1039 C 0.36517 0.97973 0.98871 0.0
C1040 C 0.36052 0.95202 0.96125 0.0
C1041 C 0.34841 0.89591 0.98111 0.0
C1042 C 0.37453 0.93294 0.95252 0.0
C1043 C 0.37496 0.9326 0.93468 0.0
C1044 C 0.36143 0.9515 0.92525 0.0
C1045 C 0.34756 0.97087 0.93405 0.0
C1046 C 0.34718 0.97119 0.9519 0.0
H1047 H 0.3399 0.88046 0.99003 0.0
H1048 H 0.33842 0.90055 0.96985 0.0
H1049 H 0.36242 0.88348 0.97664 0.0
H1050 H 0.38522 0.91839 0.95953 0.0
H1051 H 0.38586 0.91748 0.92831 0.0
H1052 H 0.6584 0.01266 0.92791 0.0
H1053 H 0.65823 0.01058 0.95915 0.0
H1054 H 0.60984 0.07916 0.96049 0.0
H1055 H 0.60972 0.08123 0.92928 0.0
H1056 H 0.66554 0.05902 0.9823 0.0
H1057 H 0.5868 0.00951 0.99061 0.0
H1058 H 0.60031 0.0089 0.97041 0.0
H1059 H 0.5876 0.04353 0.9775 0.0
C1060 C 0.64765 0.02721 0.93484 0.0
C1061 C 0.63397 0.04697 0.92611 0.0
C1062 C 0.64759 0.02599 0.95268 0.0
C1063 C 0.6338 0.04435 0.96208 0.0
C1064 C 0.62029 0.06433 0.95343 0.0
H1065 H 0.60997 0.0815 0.06844 0.0
H1066 H 0.61068 0.07962 0.03723 0.0
C1067 C 0.62033 0.06557 0.9356 0.0
C1068 C 0.63392 0.04328 0.98098 0.0
H1069 H 0.60346 0.0283 0.01566 0.0
C1070 C 0.65204 0.05209 0.98962 0.0
C1071 C 0.61626 0.0342 0.99043 0.0
C1072 C 0.59669 0.02322 0.9818 0.0
C1073 C 0.65279 0.05289 0.00754 0.0
C1074 C 0.63505 0.04417 0.01699 0.0
C1075 C 0.61701 0.03504 0.00834 0.0
C1076 C 0.63474 0.04495 0.03588 0.0
C1077 C 0.67235 0.0639 0.0162 0.0
C1078 C 0.64789 0.02579 0.04543 0.0
C1079 C 0.64754 0.02679 0.06328 0.0
C1080 C 0.63394 0.04686 0.07186 0.0
C1081 C 0.62063 0.06576 0.06223 0.0
C1082 C 0.621 0.06474 0.0444 0.0
H1083 H 0.68272 0.07642 0.00722 0.0
H1084 H 0.66867 0.07937 0.0271 0.0
H1085 H 0.68094 0.04368 0.02125 0.0
H1086 H 0.65834 0.00996 0.03907 0.0
H1087 H 0.65792 0.01183 0.07033 0.0
H1088 H 0.88724 0.57401 0.56755 0.0
H1089 H 0.88621 0.57223 0.53639 0.0
H1090 H 0.83652 0.50565 0.53844 0.0
H1091 H 0.83756 0.50695 0.56973 0.0
H1092 H 0.86851 0.49088 0.51488 0.0
H1093 H 0.84061 0.61119 0.50673 0.0
H1094 H 0.86339 0.60785 0.51977 0.0
H1095 H 0.83941 0.59112 0.52693 0.0
C1096 C 0.8761 0.55891 0.56142 0.0
C1097 C 0.86242 0.54069 0.57112 0.0
C1098 C 0.87546 0.55808 0.5436 0.0
C1099 C 0.86106 0.5392 0.53515 0.0
C1100 C 0.84765 0.52051 0.54476 0.0
H1101 H 0.83695 0.50759 0.42669 0.0
H1102 H 0.83629 0.50535 0.45794 0.0
C1103 C 0.84827 0.52132 0.56262 0.0
C1104 C 0.86014 0.53894 0.51627 0.0
H1105 H 0.85217 0.58539 0.48167 0.0
C1106 C 0.86478 0.51144 0.50759 0.0
C1107 C 0.85523 0.56582 0.50684 0.0
C1108 C 0.84918 0.59561 0.51552 0.0
C1109 C 0.86527 0.51036 0.48966 0.0
C1110 C 0.8607 0.5374 0.48025 0.0
C1111 C 0.85576 0.56475 0.48894 0.0
C1112 C 0.86132 0.53807 0.46136 0.0
C1113 C 0.87128 0.48061 0.48093 0.0
C1114 C 0.87537 0.55762 0.45297 0.0
C1115 C 0.87573 0.55909 0.43516 0.0
C1116 C 0.86195 0.54113 0.4254 0.0
C1117 C 0.84784 0.5216 0.43384 0.0
C1118 C 0.84751 0.52014 0.45169 0.0
H1119 H 0.87885 0.46422 0.4899 0.0
H1120 H 0.85716 0.46932 0.47578 0.0
H1121 H 0.88197 0.48512 0.47009 0.0
H1122 H 0.88607 0.57176 0.46024 0.0
H1123 H 0.88672 0.57447 0.42906 0.0
H1124 H 0.10883 0.42108 0.56776 0.0
H1125 H 0.10977 0.42347 0.5366 0.0
H1126 H 0.15906 0.49067 0.53897 0.0
H1127 H 0.15809 0.48878 0.57025 0.0
H1128 H 0.12707 0.50571 0.5157 0.0
H1129 H 0.15515 0.38579 0.50637 0.0
H1130 H 0.13239 0.38857 0.51947 0.0
H1131 H 0.15634 0.40523 0.52676 0.0
C1132 C 0.11987 0.43642 0.56169 0.0
C1133 C 0.13345 0.45467 0.57149 0.0
C1134 C 0.12046 0.4376 0.54388 0.0
C1135 C 0.13471 0.45686 0.53552 0.0
C1136 C 0.14804 0.47552 0.54522 0.0
H1137 H 0.15819 0.49146 0.42722 0.0
H1138 H 0.15899 0.49293 0.45848 0.0
C1139 C 0.14747 0.47438 0.56307 0.0
C1140 C 0.13551 0.45764 0.51663 0.0
H1141 H 0.14334 0.41222 0.48158 0.0
C1142 C 0.13078 0.48538 0.50821 0.0
C1143 C 0.1404 0.43105 0.50694 0.0
C1144 C 0.14655 0.40103 0.51532 0.0
C1145 C 0.13019 0.48697 0.49029 0.0
C1146 C 0.13474 0.46022 0.48063 0.0
C1147 C 0.13977 0.43263 0.48906 0.0
C1148 C 0.134 0.46009 0.46173 0.0
C1149 C 0.1241 0.51695 0.48186 0.0
C1150 C 0.11992 0.44075 0.45324 0.0
C1151 C 0.11947 0.43972 0.43541 0.0
C1152 C 0.1332 0.45793 0.42574 0.0
C1153 C 0.14733 0.47728 0.4343 0.0
C1154 C 0.14775 0.47829 0.45215 0.0
H1155 H 0.11659 0.53307 0.491 0.0
H1156 H 0.13818 0.5284 0.47673 0.0
H1157 H 0.11335 0.51273 0.47103 0.0
H1158 H 0.10927 0.4264 0.46043 0.0
H1159 H 0.10847 0.42446 0.42924 0.0
H1160 H 0.83694 0.4847 0.92744 0.0
H1161 H 0.83688 0.48537 0.95869 0.0
H1162 H 0.88662 0.41894 0.95933 0.0
H1163 H 0.88666 0.41776 0.9281 0.0
H1164 H 0.85361 0.4046 0.98144 0.0
H1165 H 0.88025 0.52569 0.99005 0.0
H1166 H 0.8581 0.5212 0.97635 0.0
H1167 H 0.88265 0.50538 0.96999 0.0
C1168 C 0.84793 0.47031 0.93421 0.0
C1169 C 0.86188 0.45129 0.92528 0.0
C1170 C 0.84795 0.47087 0.95207 0.0
C1171 C 0.86196 0.45257 0.96128 0.0
C1172 C 0.87578 0.43338 0.95242 0.0
H1173 H 0.88715 0.41726 0.06828 0.0
H1174 H 0.88676 0.41787 0.03706 0.0
C1175 C 0.87579 0.43279 0.93458 0.0
C1176 C 0.86186 0.45274 0.98019 0.0
H1177 H 0.86947 0.49899 0.01497 0.0
C1178 C 0.85715 0.42519 0.98879 0.0
C1179 C 0.86642 0.47969 0.98969 0.0
C1180 C 0.87232 0.50964 0.98109 0.0
C1181 C 0.85662 0.42393 0.00669 0.0
C1182 C 0.86128 0.45083 0.0162 0.0
C1183 C 0.8659 0.47843 0.00761 0.0
C1184 C 0.86163 0.45072 0.0351 0.0
C1185 C 0.8507 0.39398 0.01528 0.0
C1186 C 0.84796 0.46959 0.04432 0.0
C1187 C 0.8482 0.46945 0.06218 0.0
C1188 C 0.86224 0.45057 0.0711 0.0
C1189 C 0.8761 0.43199 0.0618 0.0
C1190 C 0.87582 0.43215 0.04396 0.0
H1191 H 0.8425 0.37815 0.00637 0.0
H1192 H 0.86494 0.38215 0.01976 0.0
H1193 H 0.84062 0.39823 0.02653 0.0
H1194 H 0.83696 0.4842 0.03769 0.0
H1195 H 0.83736 0.48409 0.06896 0.0
H1196 H 0.10839 0.58097 0.06866 0.0
H1197 H 0.10855 0.58014 0.03742 0.0
H1198 H 0.15844 0.51396 0.03797 0.0
H1199 H 0.15827 0.51431 0.06922 0.0
H1200 H 0.14176 0.59492 0.0155 0.0
H1201 H 0.1152 0.47393 0.00629 0.0
H1202 H 0.11262 0.49401 0.0264 0.0
H1203 H 0.13724 0.47832 0.02011 0.0
C1204 C 0.11932 0.56606 0.06215 0.0
C1205 C 0.13324 0.54755 0.07143 0.0
C1206 C 0.1194 0.56568 0.04431 0.0
C1207 C 0.1333 0.54668 0.03542 0.0
C1208 C 0.14732 0.52834 0.04461 0.0
H1209 H 0.15817 0.51612 0.92771 0.0
H1210 H 0.15851 0.51582 0.95898 0.0
C1211 C 0.14727 0.5287 0.06247 0.0
C1212 C 0.1335 0.54677 0.01651 0.0
H1213 H 0.12602 0.50101 0.98152 0.0
C1214 C 0.13826 0.57444 0.00805 0.0
C1215 C 0.12898 0.51996 0.00688 0.0
C1216 C 0.12304 0.4899 0.01534 0.0
C1217 C 0.13887 0.57595 0.99015 0.0
C1218 C 0.13424 0.54919 0.98051 0.0
C1219 C 0.12957 0.52147 0.98898 0.0
C1220 C 0.134 0.54954 0.9616 0.0
C1221 C 0.14486 0.60601 0.98172 0.0
C1222 C 0.11992 0.56833 0.95276 0.0
C1223 C 0.11969 0.56861 0.93491 0.0
C1224 C 0.13345 0.54991 0.92559 0.0
C1225 C 0.14739 0.53085 0.93451 0.0
C1226 C 0.1476 0.5306 0.95236 0.0
H1227 H 0.15308 0.62166 0.99071 0.0
H1228 H 0.15494 0.6019 0.97045 0.0
H1229 H 0.13064 0.61798 0.97728 0.0
H1230 H 0.10902 0.58266 0.95967 0.0
H1231 H 0.10871 0.58348 0.92845 0.0
H1232 H 0.58819 0.00729 0.37654 0.0
H1233 H 0.55181 0.02334 0.37633 0.0
H1234 H 0.53473 0.93757 0.35209 0.0
H1235 H 0.57085 0.92137 0.35206 0.0
H1236 H 0.51719 0.99083 0.33693 0.0
H1237 H 0.50558 0.98715 0.40732 0.0
H1238 H 0.52727 0.00978 0.40014 0.0
H1239 H 0.52727 0.96872 0.3969 0.0
C1240 C 0.57671 0.99184 0.37115 0.0
C1241 C 0.58246 0.96296 0.36441 0.0
C1242 C 0.55594 0.00098 0.37113 0.0
C1243 C 0.54063 0.98141 0.36441 0.0
C1244 C 0.54634 0.95289 0.35741 0.0
H1245 H 0.40691 0.99202 0.37562 0.0
H1246 H 0.44316 0.97534 0.37531 0.0
C1247 C 0.56703 0.9437 0.35744 0.0
C1248 C 0.51862 0.99062 0.36442 0.0
H1249 H 0.4778 0.00655 0.3907 0.0
C1250 C 0.50855 0.99428 0.34867 0.0
C1251 C 0.5074 0.99461 0.37978 0.0
C1252 C 0.51732 0.98964 0.39702 0.0
C1253 C 0.48754 0.00229 0.34785 0.0
C1254 C 0.47646 0.00707 0.36321 0.0
C1255 C 0.48644 0.00298 0.37897 0.0
C1256 C 0.45457 0.01688 0.36315 0.0
C1257 C 0.47729 0.00523 0.3306 0.0
C1258 C 0.44913 0.0458 0.35653 0.0
C1259 C 0.42853 0.05541 0.35668 0.0
C1260 C 0.41295 0.0363 0.36355 0.0
C1261 C 0.41849 0.00727 0.3702 0.0
C1262 C 0.43917 0.99772 0.37007 0.0
H1263 H 0.48638 0.99356 0.32042 0.0
H1264 H 0.46142 0.99527 0.33083 0.0
H1265 H 0.476 0.03004 0.32721 0.0
H1266 H 0.46088 0.06109 0.35138 0.0
H1267 H 0.42489 0.07794 0.35147 0.0
H1268 H 0.40748 0.00561 0.11999 0.0
H1269 H 0.4439 0.02152 0.11995 0.0
H1270 H 0.46088 0.93618 0.14463 0.0
H1271 H 0.42472 0.92015 0.14495 0.0
H1272 H 0.47854 0.98902 0.1595 0.0
H1273 H 0.49004 0.9856 0.08912 0.0
H1274 H 0.46847 0.00845 0.09625 0.0
H1275 H 0.46824 0.9674 0.09952 0.0
C1276 C 0.41895 0.99021 0.12541 0.0
C1277 C 0.41315 0.96152 0.13239 0.0
C1278 C 0.43975 -0.00073 0.12528 0.0
C1279 C 0.45503 0.97978 0.13206 0.0
C1280 C 0.44928 0.95143 0.13925 0.0
H1281 H 0.58879 0.99232 0.12069 0.0
H1282 H 0.55264 0.97503 0.12082 0.0
C1283 C 0.42857 0.94233 0.13939 0.0
C1284 C 0.47705 0.98902 0.13201 0.0
H1285 H 0.51775 0.00556 0.10571 0.0
C1286 C 0.48715 0.99262 0.14776 0.0
C1287 C 0.48822 0.99319 0.11664 0.0
C1288 C 0.4783 0.98822 0.0994 0.0
C1289 C 0.50814 0.00081 0.14856 0.0
C1290 C 0.51915 0.00587 0.1332 0.0
C1291 C 0.50916 0.00178 0.11744 0.0
C1292 C 0.54096 0.0161 0.13326 0.0
C1293 C 0.51842 0.00365 0.16581 0.0
C1294 C 0.5462 0.04497 0.14008 0.0
C1295 C 0.56674 0.05491 0.14005 0.0
C1296 C 0.58246 0.0362 0.13309 0.0
C1297 C 0.57711 0.00726 0.12619 0.0
C1298 C 0.55649 0.99736 0.12621 0.0
H1299 H 0.50946 0.99156 0.17593 0.0
H1300 H 0.53437 0.99408 0.1655 0.0
H1301 H 0.51947 0.02842 0.16935 0.0
H1302 H 0.53435 0.05994 0.14532 0.0
H1303 H 0.57023 0.07737 0.14544 0.0
H1304 H 0.57095 0.91931 0.6449 0.0
H1305 H 0.53473 0.93484 0.64477 0.0
H1306 H 0.55147 0.02227 0.62224 0.0
H1307 H 0.58796 0.00683 0.62205 0.0
H1308 H 0.51634 0.98577 0.66062 0.0
H1309 H 0.50625 0.98816 0.59007 0.0
H1310 H 0.52811 0.96981 0.60026 0.0
H1311 H 0.52735 0.01109 0.59809 0.0
C1312 C 0.56704 0.94186 0.63986 0.0
C1313 C 0.58241 0.96174 0.63335 0.0
C1314 C 0.5463 0.95067 0.63984 0.0
C1315 C 0.54046 0.97946 0.63328 0.0
C1316 C 0.5557 -0.00031 0.62706 0.0
H1317 H 0.42361 0.07233 0.64686 0.0
H1318 H 0.45969 0.05596 0.64731 0.0
C1319 C 0.57653 0.99089 0.62706 0.0
C1320 C 0.51837 0.98822 0.63318 0.0
H1321 H 0.47796 0.00565 0.60678 0.0
C1322 C 0.50792 0.99012 0.64886 0.0
C1323 C 0.50745 0.99339 0.61778 0.0
C1324 C 0.51776 0.99028 0.60056 0.0
C1325 C 0.4868 0.99749 0.64958 0.0
C1326 C 0.47602 0.00345 0.63422 0.0
C1327 C 0.48638 0.00115 0.61852 0.0
C1328 C 0.45405 0.01277 0.63422 0.0
C1329 C 0.47613 0.99848 0.66673 0.0
C1330 C 0.43901 0.99399 0.62649 0.0
C1331 C 0.41828 0.00326 0.62616 0.0
C1332 C 0.41236 0.03164 0.63342 0.0
C1333 C 0.42757 0.05031 0.64117 0.0
C1334 C 0.44821 0.04097 0.64152 0.0
H1335 H 0.48513 0.98606 0.67669 0.0
H1336 H 0.47445 0.02288 0.67083 0.0
H1337 H 0.4604 0.98814 0.66595 0.0
H1338 H 0.44333 0.97217 0.62073 0.0
H1339 H 0.40699 0.98838 0.62005 0.0
H1340 H 0.58601 0.00464 0.88582 0.0
H1341 H 0.54945 0.98963 0.88604 0.0
H1342 H 0.53875 0.04514 0.84109 0.0
H1343 H 0.57498 0.06125 0.84125 0.0
H1344 H 0.50959 0.05499 0.86372 0.0
H1345 H 0.51993 0.92864 0.85651 0.0
H1346 H 0.53309 0.94369 0.8749 0.0
H1347 H 0.54102 0.95554 0.85383 0.0
C1348 C 0.57589 0.01337 0.8759 0.0
C1349 C 0.58335 0.03402 0.86348 0.0
C1350 C 0.55502 0.00467 0.87598 0.0
C1351 C 0.54143 0.01584 0.86341 0.0
C1352 C 0.54895 0.0362 0.85091 0.0
H1353 H 0.42099 0.93956 0.84051 0.0
H1354 H 0.45712 0.95613 0.84058 0.0
C1355 C 0.56968 0.04534 0.85099 0.0
C1356 C 0.51918 0.00733 0.86354 0.0
H1357 H 0.48598 0.94599 0.86335 0.0
C1358 C 0.50441 0.03115 0.86355 0.0
C1359 C 0.51245 0.97623 0.86312 0.0
C1360 C 0.52745 0.94958 0.86191 0.0
C1361 C 0.48311 0.02476 0.86313 0.0
C1362 C 0.47639 0.99365 0.86334 0.0
C1363 C 0.49115 0.96984 0.86334 0.0
C1364 C 0.45415 0.98511 0.863 0.0
C1365 C 0.46812 0.05142 0.86196 0.0
C1366 C 0.4404 0.996 0.87554 0.0
C1367 C 0.41958 0.98703 0.87533 0.0
C1368 C 0.41233 0.96639 0.86282 0.0
C1369 C 0.42614 0.95544 0.85033 0.0
C1370 C 0.4468 0.96484 0.85037 0.0
H1371 H 0.4757 0.07246 0.85673 0.0
H1372 H 0.45464 0.04559 0.85376 0.0
H1373 H 0.46235 0.05709 0.87494 0.0
H1374 H 0.44582 0.01097 0.88568 0.0
H1375 H 0.40935 0.99549 0.88525 0.0
H1376 H 0.91986 0.55945 0.33968 0.0
H1377 H 0.95608 0.54342 0.33895 0.0
H1378 H 0.94629 0.48747 0.38389 0.0
H1379 H 0.90973 0.50237 0.38422 0.0
H1380 H 0.98535 0.5538 0.36116 0.0
H1381 H 0.97614 0.42723 0.35434 0.0
H1382 H 0.95474 0.45357 0.35183 0.0
H1383 H 0.96303 0.44185 0.37283 0.0
C1384 C 0.92536 0.5434 0.34928 0.0
C1385 C 0.91197 0.53199 0.36195 0.0
C1386 C 0.94607 0.53431 0.34886 0.0
C1387 C 0.95387 0.51392 0.36123 0.0
C1388 C 0.94051 0.50252 0.37393 0.0
H1389 H 0.08552 0.49728 0.38429 0.0
H1390 H 0.04895 0.51213 0.38386 0.0
C1391 C 0.91965 0.51115 0.37416 0.0
C1392 C 0.97618 0.50591 0.36121 0.0
H1393 H 0.00993 0.44536 0.36149 0.0
C1394 C 0.99073 0.53007 0.36111 0.0
C1395 C 0.98319 0.47497 0.36094 0.0
C1396 C 0.96845 0.44794 0.35981 0.0
C1397 C 0.01209 0.52419 0.3608 0.0
C1398 C 0.01909 0.49325 0.36126 0.0
C1399 C 0.00455 0.46909 0.3613 0.0
C1400 C 0.04141 0.48524 0.36134 0.0
C1401 C 0.02683 0.55119 0.35951 0.0
C1402 C 0.04922 0.46463 0.3491 0.0
C1403 C 0.06993 0.45557 0.34957 0.0
C1404 C 0.08331 0.46723 0.36219 0.0
C1405 C 0.07561 0.48828 0.37427 0.0
C1406 C 0.05475 0.4969 0.37399 0.0
H1407 H 0.01914 0.57179 0.35392 0.0
H1408 H 0.03225 0.55754 0.37251 0.0
H1409 H 0.04055 0.5454 0.35158 0.0
H1410 H 0.03922 0.45533 0.33923 0.0
H1411 H 0.07545 0.43935 0.34007 0.0
H1412 H 0.07507 0.558 0.15694 0.0
H1413 H 0.03891 0.54162 0.15689 0.0
H1414 H 0.04981 0.48793 0.11129 0.0
H1415 H 0.08632 0.50325 0.11169 0.0
H1416 H 0.01013 0.55284 0.134 0.0
H1417 H 0.01967 0.42609 0.13996 0.0
H1418 H 0.04086 0.45265 0.14314 0.0
H1419 H 0.03313 0.44173 0.12187 0.0
C1420 C 0.06984 0.54238 0.14702 0.0
C1421 C 0.08353 0.53175 0.13436 0.0
C1422 C 0.04916 0.53309 0.14699 0.0
C1423 C 0.0417 0.51327 0.1342 0.0
C1424 C 0.05534 0.50258 0.12154 0.0
H1425 H 0.90967 0.49488 0.11156 0.0
H1426 H 0.94623 0.50996 0.1113 0.0
C1427 C 0.07617 0.51144 0.12173 0.0
C1428 C 0.01942 0.50504 0.13382 0.0
H1429 H 0.98586 0.44417 0.13326 0.0
C1430 C 0.00481 0.52906 0.13392 0.0
C1431 C 0.01252 0.47402 0.13389 0.0
C1432 C 0.02736 0.44715 0.13489 0.0
C1433 C 0.98347 0.52296 0.13416 0.0
C1434 C 0.97657 0.49196 0.13367 0.0
C1435 C 0.99118 0.46794 0.1335 0.0
C1436 C 0.9543 0.48373 0.13391 0.0
C1437 C 0.96863 0.54978 0.13546 0.0
C1438 C 0.9468 0.46347 0.14646 0.0
C1439 C 0.92609 0.45433 0.14642 0.0
C1440 C 0.9124 0.46554 0.13391 0.0
C1441 C 0.91981 0.48622 0.12149 0.0
C1442 C 0.94067 0.49495 0.12137 0.0
H1443 H 0.9763 0.57065 0.1408 0.0
H1444 H 0.96288 0.55571 0.12251 0.0
H1445 H 0.95511 0.54396 0.14364 0.0
H1446 H 0.95703 0.45453 0.15626 0.0
H1447 H 0.92082 0.43841 0.15617 0.0
H1448 H 0.90687 0.48898 0.62152 0.0
H1449 H 0.94306 0.47208 0.62233 0.0
H1450 H 0.96048 0.55757 0.64671 0.0
H1451 H 0.92455 0.5746 0.64617 0.0
H1452 H 0.97765 0.50272 0.60735 0.0
H1453 H 0.9859 0.49059 0.67766 0.0
H1454 H 0.96099 0.49258 0.66719 0.0
H1455 H 0.97573 0.5272 0.67087 0.0
C1456 C 0.91836 0.50411 0.62717 0.0
C1457 C 0.91277 0.53314 0.63379 0.0
C1458 C 0.93901 0.49443 0.62759 0.0
C1459 C 0.9543 0.51348 0.63476 0.0
C1460 C 0.9488 0.54236 0.6414 0.0
H1461 H 0.08781 0.50525 0.62117 0.0
H1462 H 0.05134 0.52082 0.62146 0.0
C1463 C 0.92824 0.55208 0.64098 0.0
C1464 C 0.9762 0.50372 0.63484 0.0
H1465 H 0.01693 0.48866 0.66131 0.0
C1466 C 0.98625 0.49948 0.61913 0.0
C1467 C 0.98724 0.49937 0.65025 0.0
C1468 C 0.9769 0.50238 0.66747 0.0
C1469 C 0.00727 0.49142 0.61841 0.0
C1470 C 0.01846 0.48798 0.63382 0.0
C1471 C 0.00831 0.49173 0.64953 0.0
C1472 C 0.04055 0.47921 0.63394 0.0
C1473 C 0.01726 0.4862 0.60121 0.0
C1474 C 0.0465 0.45111 0.64129 0.0
C1475 C 0.06724 0.44222 0.64124 0.0
C1476 C 0.08247 0.46136 0.63388 0.0
C1477 C 0.07648 0.48989 0.62685 0.0
C1478 C 0.05566 0.49876 0.62691 0.0
H1479 H 0.00554 0.48299 0.59096 0.0
H1480 H 0.02688 0.50658 0.59789 0.0
H1481 H 0.02752 0.46563 0.60152 0.0
H1482 H 0.03504 0.43583 0.64686 0.0
H1483 H 0.07125 0.42017 0.64687 0.0
H1484 H 0.08555 0.50573 0.88523 0.0
H1485 H 0.04901 0.49061 0.88544 0.0
H1486 H 0.03821 0.5462 0.84055 0.0
H1487 H 0.07442 0.5624 0.84069 0.0
H1488 H 0.00905 0.5559 0.86324 0.0
H1489 H 0.01957 0.42962 0.85582 0.0
H1490 H 0.03275 0.44463 0.8742 0.0
H1491 H 0.04061 0.45662 0.85314 0.0
C1492 C 0.07541 0.51446 0.87531 0.0
C1493 C 0.08285 0.53516 0.86291 0.0
C1494 C 0.05456 0.50569 0.8754 0.0
C1495 C 0.04094 0.51686 0.86284 0.0
C1496 C 0.04843 0.53727 0.85035 0.0
H1497 H 0.9205 0.44028 0.84014 0.0
H1498 H 0.9566 0.45702 0.84007 0.0
C1499 C 0.06915 0.54646 0.85043 0.0
C1500 C 0.01871 0.50827 0.86297 0.0
H1501 H 0.9856 0.44682 0.86275 0.0
C1502 C 0.00391 0.53204 0.86305 0.0
C1503 C 0.01203 0.47715 0.86251 0.0
C1504 C 0.02707 0.45056 0.86123 0.0
C1505 C 0.98261 0.52558 0.86267 0.0
C1506 C 0.97594 0.49445 0.86284 0.0
C1507 C 0.99074 0.47069 0.86277 0.0
C1508 C 0.95371 0.48583 0.86257 0.0
C1509 C 0.96758 0.5522 0.86158 0.0
C1510 C 0.94003 0.49658 0.87519 0.0
C1511 C 0.91923 0.48751 0.87506 0.0
C1512 C 0.91193 0.46691 0.86255 0.0
C1513 C 0.92568 0.45612 0.84997 0.0
C1514 C 0.94632 0.46562 0.84993 0.0
H1515 H 0.97509 0.57328 0.85636 0.0
H1516 H 0.95407 0.54635 0.85341 0.0
H1517 H 0.96185 0.55777 0.87459 0.0
H1518 H 0.94549 0.5115 0.88534 0.0
H1519 H 0.90905 0.49585 0.88505 0.0
H1520 H 0.16577 0.31263 0.35789 0.0
H1521 H 0.19047 0.26997 0.35815 0.0
H1522 H 0.2412 0.33476 0.35582 0.0
H1523 H 0.2166 0.37779 0.3557 0.0
H1524 H 0.22095 0.25666 0.33287 0.0
H1525 H 0.25544 0.27824 0.39686 0.0
H1526 H 0.23109 0.29496 0.39025 0.0
H1527 H 0.25511 0.31101 0.38276 0.0
C1528 C 0.18218 0.31789 0.35751 0.0
C1529 C 0.18925 0.34861 0.35679 0.0
C1530 C 0.19624 0.29346 0.35764 0.0
C1531 C 0.21759 0.2993 0.35719 0.0
C1532 C 0.22474 0.32988 0.35644 0.0
H1533 H 0.3276 0.18749 0.35523 0.0
H1534 H 0.30192 0.22876 0.35547 0.0
C1535 C 0.21068 0.35439 0.35628 0.0
C1536 C 0.23233 0.27326 0.35705 0.0
H1537 H 0.27147 0.23993 0.37975 0.0
C1538 C 0.23195 0.25284 0.34313 0.0
C1539 C 0.24657 0.26849 0.3705 0.0
C1540 C 0.24705 0.28914 0.38603 0.0
C1541 C 0.24586 0.22805 0.3421 0.0
C1542 C 0.26018 0.22335 0.35552 0.0
C1543 C 0.26043 0.24366 0.3695 0.0
C1544 C 0.27548 0.198 0.35511 0.0
C1545 C 0.24547 0.20764 0.32647 0.0
C1546 C 0.26907 0.16702 0.35493 0.0
C1547 C 0.28373 0.14328 0.35472 0.0
C1548 C 0.30501 0.15023 0.35482 0.0
C1549 C 0.31133 0.18133 0.35513 0.0
C1550 C 0.29669 0.20497 0.35528 0.0
H1551 H 0.23715 0.21871 0.31566 0.0
H1552 H 0.26144 0.20187 0.32226 0.0
H1553 H 0.23736 0.18575 0.32959 0.0
H1554 H 0.25274 0.16121 0.35515 0.0
H1555 H 0.27839 0.11955 0.35465 0.0
H1556 H 0.71734 0.88014 0.35457 0.0
H1557 H 0.7429 0.83826 0.35418 0.0
H1558 H 0.69357 0.77106 0.35568 0.0
H1559 H 0.66798 0.81245 0.35596 0.0
H1560 H 0.7473 0.78953 0.37927 0.0
H1561 H 0.72967 0.74474 0.31434 0.0
H1562 H 0.72196 0.78279 0.32135 0.0
H1563 H 0.7075 0.7494 0.32799 0.0
C1564 C 0.71195 0.85644 0.35471 0.0
C1565 C 0.69065 0.8496 0.3552 0.0
C1566 C 0.72655 0.83261 0.35452 0.0
C1567 C 0.72004 0.80168 0.35466 0.0
C1568 C 0.69884 0.79481 0.35526 0.0
H1569 H 0.7789 0.62231 0.35529 0.0
H1570 H 0.75447 0.66557 0.35552 0.0
C1571 C 0.68426 0.81853 0.35551 0.0
C1572 C 0.73535 0.7764 0.35464 0.0
H1573 H 0.75154 0.71388 0.33174 0.0
C1574 C 0.74838 0.77308 0.36885 0.0
C1575 C 0.73654 0.75501 0.34103 0.0
C1576 C 0.72331 0.7582 0.32523 0.0
C1577 C 0.76234 0.74837 0.37 0.0
C1578 C 0.76348 0.72689 0.35641 0.0
C1579 C 0.75053 0.73036 0.34215 0.0
C1580 C 0.77823 0.70083 0.35663 0.0
C1581 C 0.77536 0.74504 0.38591 0.0
C1582 C 0.79961 0.70646 0.357 0.0
C1583 C 0.81356 0.6819 0.3569 0.0
C1584 C 0.80637 0.65124 0.35627 0.0
C1585 C 0.78492 0.64566 0.35578 0.0
C1586 C 0.77096 0.6703 0.35591 0.0
H1587 H 0.76879 0.75829 0.3968 0.0
H1588 H 0.77674 0.72042 0.38973 0.0
H1589 H 0.79116 0.75404 0.38336 0.0
H1590 H 0.80552 0.72989 0.35718 0.0
H1591 H 0.83 0.68701 0.35719 0.0
H1592 H 0.16494 0.68711 0.14316 0.0
H1593 H 0.18944 0.7301 0.14292 0.0
H1594 H 0.24049 0.6659 0.14368 0.0
H1595 H 0.21609 0.62256 0.14374 0.0
H1596 H 0.22061 0.74376 0.16735 0.0
H1597 H 0.25308 0.7229 0.10261 0.0
H1598 H 0.22912 0.70564 0.10978 0.0
H1599 H 0.25353 0.69002 0.11661 0.0
C1600 C 0.18138 0.68206 0.14323 0.0
C1601 C 0.1886 0.65141 0.14343 0.0
C1602 C 0.19533 0.70667 0.14312 0.0
C1603 C 0.2167 0.70109 0.14307 0.0
C1604 C 0.22401 0.67059 0.14343 0.0
H1605 H 0.3267 0.81262 0.14348 0.0
H1606 H 0.3008 0.77161 0.14379 0.0
C1607 C 0.21006 0.6459 0.14356 0.0
C1608 C 0.23134 0.7273 0.14295 0.0
H1609 H 0.26975 0.76098 0.11952 0.0
C1610 C 0.23131 0.74769 0.15688 0.0
C1611 C 0.24515 0.73226 0.12921 0.0
C1612 C 0.24518 0.71174 0.11361 0.0
C1613 C 0.24519 0.77259 0.15765 0.0
C1614 C 0.25914 0.77737 0.14398 0.0
C1615 C 0.259 0.75715 0.12997 0.0
C1616 C 0.27454 0.8026 0.14419 0.0
C1617 C 0.24521 0.79303 0.17327 0.0
C1618 C 0.26828 0.83364 0.14423 0.0
C1619 C 0.28307 0.85725 0.14411 0.0
C1620 C 0.30431 0.8501 0.14382 0.0
C1621 C 0.31046 0.81894 0.14372 0.0
C1622 C 0.2957 0.79544 0.14388 0.0
H1623 H 0.23691 0.78216 0.18417 0.0
H1624 H 0.2613 0.79847 0.17732 0.0
H1625 H 0.23732 0.8151 0.1702 0.0
H1626 H 0.25198 0.83957 0.14415 0.0
H1627 H 0.27786 0.88103 0.14404 0.0
H1628 H 0.66764 0.18728 0.14395 0.0
H1629 H 0.69344 0.22848 0.14417 0.0
H1630 H 0.7424 0.16084 0.14599 0.0
H1631 H 0.71665 0.11921 0.14561 0.0
H1632 H 0.72462 0.23995 0.16922 0.0
H1633 H 0.75735 0.21664 0.10472 0.0
H1634 H 0.73272 0.2012 0.11161 0.0
H1635 H 0.75643 0.18415 0.11901 0.0
C1636 C 0.68389 0.18108 0.14438 0.0
C1637 C 0.69012 0.14996 0.14472 0.0
C1638 C 0.69859 0.20467 0.14453 0.0
C1639 C 0.71976 0.19762 0.1449 0.0
C1640 C 0.72609 0.16665 0.14544 0.0
H1641 H 0.82969 0.31189 0.14356 0.0
H1642 H 0.80489 0.26935 0.14453 0.0
C1643 C 0.71138 0.14295 0.14532 0.0
C1644 C 0.73512 0.22287 0.14487 0.0
H1645 H 0.77353 0.2557 0.12107 0.0
C1646 C 0.73534 0.24346 0.15871 0.0
C1647 C 0.74898 0.22725 0.13111 0.0
C1648 C 0.74885 0.20633 0.11568 0.0
C1649 C 0.74928 0.26828 0.15925 0.0
C1650 C 0.76304 0.27282 0.14541 0.0
C1651 C 0.7629 0.2521 0.13163 0.0
C1652 C 0.77785 0.29882 0.14504 0.0
C1653 C 0.74942 0.2891 0.17472 0.0
C1654 C 0.77078 0.32945 0.14484 0.0
C1655 C 0.78491 0.3539 0.14432 0.0
C1656 C 0.80632 0.34801 0.14389 0.0
C1657 C 0.8133 0.31723 0.14393 0.0
C1658 C 0.79917 0.29288 0.14447 0.0
H1659 H 0.74173 0.27808 0.18586 0.0
H1660 H 0.76552 0.2954 0.17836 0.0
H1661 H 0.74093 0.31068 0.17169 0.0
H1662 H 0.75434 0.33444 0.14492 0.0
H1663 H 0.77906 0.37734 0.14417 0.0
H1664 H 0.66794 0.81187 0.64218 0.0
H1665 H 0.69331 0.77023 0.64239 0.0
H1666 H 0.74297 0.837 0.64162 0.0
H1667 H 0.7176 0.87908 0.64168 0.0
H1668 H 0.72328 0.75766 0.61809 0.0
H1669 H 0.75859 0.78069 0.68161 0.0
H1670 H 0.73436 0.79775 0.675 0.0
H1671 H 0.7585 0.81314 0.66731 0.0
C1672 C 0.68425 0.81779 0.64213 0.0
C1673 C 0.69079 0.84879 0.64199 0.0
C1674 C 0.69871 0.79394 0.64225 0.0
C1675 C 0.71996 0.80058 0.64224 0.0
C1676 C 0.7266 0.83146 0.64198 0.0
H1677 H 0.82925 0.68626 0.63867 0.0
H1678 H 0.8043 0.72854 0.63876 0.0
C1679 C 0.71211 0.85544 0.64194 0.0
C1680 C 0.73504 0.77498 0.642 0.0
H1681 H 0.77443 0.74203 0.66461 0.0
C1682 C 0.73444 0.75415 0.62827 0.0
C1683 C 0.74951 0.77056 0.65534 0.0
C1684 C 0.75023 0.79153 0.67074 0.0
C1685 C 0.74814 0.72912 0.62741 0.0
C1686 C 0.76258 0.72471 0.64074 0.0
C1687 C 0.76326 0.74557 0.65444 0.0
C1688 C 0.77742 0.69884 0.64057 0.0
C1689 C 0.74732 0.70792 0.61211 0.0
C1690 C 0.77048 0.66819 0.64169 0.0
C1691 C 0.7847 0.64388 0.64164 0.0
C1692 C 0.80606 0.64996 0.64053 0.0
C1693 C 0.8129 0.68077 0.6395 0.0
C1694 C 0.7987 0.70498 0.63958 0.0
H1695 H 0.73857 0.71832 0.60133 0.0
H1696 H 0.76319 0.70213 0.60765 0.0
H1697 H 0.73948 0.68607 0.61577 0.0
H1698 H 0.75408 0.66311 0.64271 0.0
H1699 H 0.77896 0.62041 0.64248 0.0
H1700 H 0.16706 0.31015 0.64116 0.0
H1701 H 0.19214 0.2681 0.64116 0.0
H1702 H 0.24227 0.33408 0.64113 0.0
H1703 H 0.21722 0.37656 0.6414 0.0
H1704 H 0.22244 0.25542 0.61704 0.0
H1705 H 0.25682 0.2769 0.68106 0.0
H1706 H 0.2328 0.29436 0.67428 0.0
H1707 H 0.25714 0.30965 0.66697 0.0
C1708 C 0.18342 0.31581 0.64123 0.0
C1709 C 0.19018 0.3467 0.64138 0.0
C1710 C 0.1977 0.29172 0.64121 0.0
C1711 C 0.21899 0.29803 0.64137 0.0
C1712 C 0.22586 0.3288 0.64136 0.0
H1713 H 0.32813 0.18381 0.63809 0.0
H1714 H 0.30306 0.22591 0.63813 0.0
C1715 C 0.21155 0.353 0.64144 0.0
C1716 C 0.23392 0.27222 0.64116 0.0
H1717 H 0.27289 0.23859 0.66395 0.0
C1718 C 0.23344 0.25164 0.62731 0.0
C1719 C 0.24816 0.26741 0.65463 0.0
C1720 C 0.24871 0.28806 0.67016 0.0
C1721 C 0.24709 0.22654 0.62642 0.0
C1722 C 0.26136 0.22182 0.63986 0.0
C1723 C 0.26186 0.24238 0.6537 0.0
C1724 C 0.27625 0.19603 0.63962 0.0
C1725 C 0.24645 0.20563 0.611 0.0
C1726 C 0.26938 0.16532 0.64056 0.0
C1727 C 0.28368 0.1411 0.64055 0.0
C1728 C 0.30503 0.14734 0.63965 0.0
C1729 C 0.31179 0.1782 0.63876 0.0
C1730 C 0.29752 0.20231 0.63881 0.0
H1731 H 0.23773 0.21617 0.60024 0.0
H1732 H 0.26237 0.20007 0.60658 0.0
H1733 H 0.23868 0.18365 0.6145 0.0
H1734 H 0.25299 0.16013 0.64144 0.0
H1735 H 0.27801 0.11758 0.64127 0.0
H1736 H 0.71763 0.11982 0.85302 0.0
H1737 H 0.7427 0.16238 0.85309 0.0
H1738 H 0.69258 0.22818 0.85404 0.0
H1739 H 0.66748 0.18604 0.85415 0.0
H1740 H 0.74658 0.21102 0.82918 0.0
H1741 H 0.72921 0.25509 0.89425 0.0
H1742 H 0.72104 0.21738 0.88703 0.0
H1743 H 0.70686 0.25124 0.88073 0.0
C1744 C 0.71196 0.14335 0.85327 0.0
C1745 C 0.69058 0.14956 0.85364 0.0
C1746 C 0.72628 0.16759 0.85332 0.0
C1747 C 0.71944 0.19833 0.85384 0.0
C1748 C 0.69814 0.20458 0.854 0.0
H1749 H 0.77872 0.37807 0.85246 0.0
H1750 H 0.75402 0.33505 0.85216 0.0
C1751 C 0.68384 0.18044 0.85397 0.0
C1752 C 0.73453 0.22401 0.8538 0.0
H1753 H 0.75067 0.28659 0.87676 0.0
C1754 C 0.7476 0.22746 0.83961 0.0
C1755 C 0.7357 0.24539 0.86743 0.0
C1756 C 0.7226 0.24202 0.8833 0.0
C1757 C 0.76159 0.25217 0.83853 0.0
C1758 C 0.76269 0.27362 0.85212 0.0
C1759 C 0.74967 0.27013 0.86633 0.0
C1760 C 0.77758 0.29954 0.852 0.0
C1761 C 0.77479 0.2555 0.82271 0.0
C1762 C 0.79893 0.29367 0.85221 0.0
C1763 C 0.81304 0.31808 0.85238 0.0
C1764 C 0.80603 0.34884 0.85241 0.0
C1765 C 0.7846 0.35465 0.85233 0.0
C1766 C 0.77048 0.33015 0.85219 0.0
H1767 H 0.76849 0.24192 0.81184 0.0
H1768 H 0.77601 0.28009 0.8188 0.0
H1769 H 0.79064 0.24693 0.82547 0.0
H1770 H 0.80468 0.27017 0.8524 0.0
H1771 H 0.82944 0.31279 0.85254 0.0
H1772 H 0.21714 0.62053 0.85245 0.0
H1773 H 0.2423 0.66297 0.85261 0.0
H1774 H 0.19232 0.72901 0.85303 0.0
H1775 H 0.16712 0.68699 0.85305 0.0
H1776 H 0.24656 0.71153 0.82864 0.0
H1777 H 0.22853 0.75583 0.89355 0.0
H1778 H 0.22038 0.71813 0.8863 0.0
H1779 H 0.20635 0.75202 0.87985 0.0
C1780 C 0.21151 0.64409 0.8526 0.0
C1781 C 0.19015 0.6504 0.8528 0.0
C1782 C 0.22589 0.66826 0.8527 0.0
C1783 C 0.21911 0.69903 0.8531 0.0
C1784 C 0.19783 0.70539 0.85308 0.0
H1785 H 0.27899 0.87834 0.85209 0.0
H1786 H 0.25415 0.83552 0.85161 0.0
C1787 C 0.18347 0.68132 0.85299 0.0
C1788 C 0.23426 0.72463 0.85317 0.0
H1789 H 0.25033 0.78711 0.87623 0.0
C1790 C 0.2475 0.72797 0.83908 0.0
C1791 C 0.23533 0.74601 0.8668 0.0
C1792 C 0.22203 0.74275 0.88256 0.0
C1793 C 0.2616 0.75258 0.8381 0.0
C1794 C 0.2626 0.77403 0.8517 0.0
C1795 C 0.2494 0.77065 0.86581 0.0
C1796 C 0.27759 0.79982 0.8517 0.0
C1797 C 0.275 0.75579 0.8224 0.0
C1798 C 0.29891 0.79378 0.85211 0.0
C1799 C 0.3131 0.81808 0.85238 0.0
C1800 C 0.30619 0.84889 0.85232 0.0
C1801 C 0.28479 0.85487 0.85204 0.0
C1802 C 0.27059 0.83048 0.8518 0.0
H1803 H 0.2688 0.74223 0.81148 0.0
H1804 H 0.27634 0.78037 0.81849 0.0
H1805 H 0.29079 0.74712 0.8253 0.0
H1806 H 0.30457 0.77024 0.85237 0.0
H1807 H 0.32948 0.81267 0.85268 0.0
H1808 H 0.35391 0.08763 0.3057 0.0
H1809 H 0.35006 0.07096 0.27606 0.0
H1810 H 0.32693 0.98271 0.29305 0.0
H1811 H 0.33067 0.99904 0.32278 0.0
H1812 H 0.37085 0.01787 0.26242 0.0
H1813 H 0.28526 0.01052 0.2553 0.0
H1814 H 0.29759 0.03299 0.27191 0.0
H1815 H 0.29586 0.99175 0.27384 0.0
C1816 C 0.34773 0.06481 0.30319 0.0
C1817 C 0.34263 0.04467 0.31668 0.0
C1818 C 0.34555 0.05535 0.28623 0.0
C1819 C 0.33803 0.02576 0.28241 0.0
C1820 C 0.33245 0.00584 0.29576 0.0
H1821 H 0.35422 0.91617 0.19143 0.0
H1822 H 0.35082 0.93538 0.22064 0.0
C1823 C 0.33471 0.01519 0.31275 0.0
C1824 C 0.33764 0.01487 0.26451 0.0
H1825 H 0.30556 0.98977 0.23267 0.0
C1826 C 0.35658 0.01186 0.25588 0.0
C1827 C 0.31897 0.00719 0.25606 0.0
C1828 C 0.29821 0.01096 0.26465 0.0
C1829 C 0.35739 0.0008 0.23907 0.0
C1830 C 0.33878 0.99249 0.23075 0.0
C1831 C 0.31978 0.99601 0.23922 0.0
C1832 C 0.33899 0.98008 0.21319 0.0
C1833 C 0.3781 0.99807 0.23025 0.0
C1834 C 0.33304 0.99876 0.19942 0.0
C1835 C 0.33505 0.98798 0.18267 0.0
C1836 C 0.34291 0.95821 0.17945 0.0
C1837 C 0.34814 0.9392 0.19339 0.0
C1838 C 0.34623 0.9501 0.21011 0.0
H1839 H 0.39066 0.00982 0.23749 0.0
H1840 H 0.38221 0.97329 0.22894 0.0
H1841 H 0.37731 0.00811 0.21721 0.0
H1842 H 0.32743 0.022 0.20163 0.0
H1843 H 0.33083 0.00322 0.17227 0.0
H1844 H 0.66513 0.99704 0.17323 0.0
H1845 H 0.6686 0.9785 0.20263 0.0
H1846 H 0.64383 0.06442 0.22143 0.0
H1847 H 0.64034 0.08339 0.19218 0.0
H1848 H 0.68979 0.01127 0.23368 0.0
H1849 H 0.60492 0.98908 0.23822 0.0
H1850 H 0.61833 0.9912 0.21799 0.0
H1851 H 0.61295 0.02585 0.22973 0.0
C1852 C 0.66062 0.01218 0.1836 0.0
C1853 C 0.65234 0.04168 0.1803 0.0
C1854 C 0.66267 0.00154 0.20037 0.0
C1855 C 0.65635 0.02008 0.21408 0.0
C1856 C 0.6487 0.04981 0.21093 0.0
H1857 H 0.6644 0.00138 0.32374 0.0
H1858 H 0.66812 0.01782 0.29403 0.0
C1859 C 0.64675 0.06057 0.1942 0.0
C1860 C 0.65661 0.00775 0.23165 0.0
H1861 H 0.62467 0.98167 0.26324 0.0
C1862 C 0.67561 0.00471 0.24019 0.0
C1863 C 0.63806 0.999 0.23992 0.0
C1864 C 0.61736 0.00119 0.23104 0.0
C1865 C 0.67647 0.99358 0.25704 0.0
C1866 C 0.65784 0.98547 0.26543 0.0
C1867 C 0.63891 0.98801 0.25674 0.0
C1868 C 0.65748 0.97456 0.28332 0.0
C1869 C 0.69723 0.99033 0.2657 0.0
C1870 C 0.65023 0.9448 0.2871 0.0
C1871 C 0.64806 0.93528 0.30405 0.0
C1872 C 0.6529 0.95551 0.31756 0.0
C1873 C 0.66056 0.98516 0.31368 0.0
C1874 C 0.66281 0.99458 0.29671 0.0
H1875 H 0.71021 0.99106 0.25638 0.0
H1876 H 0.69933 0.0096 0.27489 0.0
H1877 H 0.69805 0.96833 0.27296 0.0
H1878 H 0.64592 0.92911 0.27691 0.0
H1879 H 0.64208 0.91232 0.30653 0.0
H1880 H 0.65789 0.98907 0.82527 0.0
H1881 H 0.66215 0.96983 0.79611 0.0
H1882 H 0.65718 0.06267 0.77666 0.0
H1883 H 0.65285 0.08228 0.80571 0.0
H1884 H 0.6311 0.98041 0.76977 0.0
H1885 H 0.70887 0.02522 0.75189 0.0
H1886 H 0.70078 0.02049 0.77385 0.0
H1887 H 0.69162 0.05273 0.76157 0.0
C1888 C 0.65798 0.00551 0.81484 0.0
C1889 C 0.65494 0.03725 0.81786 0.0
C1890 C 0.66042 0.99444 0.79819 0.0
C1891 C 0.66017 0.01489 0.78431 0.0
C1892 C 0.65774 0.04661 0.78727 0.0
H1893 H 0.65594 0.00374 0.67465 0.0
H1894 H 0.65979 0.0189 0.70454 0.0
C1895 C 0.65515 0.05772 0.80388 0.0
C1896 C 0.66061 0.00287 0.76664 0.0
H1897 H 0.68826 0.00447 0.72948 0.0
C1898 C 0.64368 0.98534 0.76098 0.0
C1899 C 0.67697 0.00969 0.75526 0.0
C1900 C 0.69571 0.02786 0.76092 0.0
C1901 C 0.64234 0.97513 0.74401 0.0
C1902 C 0.6587 0.98196 0.73256 0.0
C1903 C 0.67578 -0.00081 0.73831 0.0
C1904 C 0.65794 0.9723 0.71441 0.0
C1905 C 0.62305 0.95818 0.73838 0.0
C1906 C 0.6562 0.94099 0.71003 0.0
C1907 C 0.65377 0.93222 0.69297 0.0
C1908 C 0.65334 0.95462 0.67994 0.0
C1909 C 0.65609 0.98588 0.68433 0.0
C1910 C 0.65833 0.99461 0.70142 0.0
H1911 H 0.60993 0.96202 0.74732 0.0
H1912 H 0.6182 0.96556 0.7254 0.0
H1913 H 0.62627 0.93302 0.73803 0.0
H1914 H 0.65639 0.92334 0.71983 0.0
H1915 H 0.65196 0.90791 0.69004 0.0
H1916 H 0.34502 0.91692 0.8047 0.0
H1917 H 0.34035 0.93643 0.77567 0.0
H1918 H 0.33094 0.02832 0.79538 0.0
H1919 H 0.33558 0.00919 0.82453 0.0
H1920 H 0.30555 0.97352 0.76055 0.0
H1921 H 0.38225 0.03266 0.76191 0.0
H1922 H 0.37553 0.00231 0.77674 0.0
H1923 H 0.36488 0.04026 0.7794 0.0
C1924 C 0.34177 0.94125 0.80293 0.0
C1925 C 0.34088 0.96153 0.81698 0.0
C1926 C 0.33905 0.9523 0.78632 0.0
C1927 C 0.3355 0.98379 0.78345 0.0
C1928 C 0.33385 0.00395 0.7974 0.0
H1929 H 0.3424 0.08799 0.68868 0.0
H1930 H 0.33722 0.07313 0.71846 0.0
C1931 C 0.33648 0.99293 0.81403 0.0
C1932 C 0.33472 0.99572 0.76578 0.0
H1933 H 0.36265 0.03717 0.73676 0.0
C1934 C 0.31794 0.98758 0.75531 0.0
C1935 C 0.35093 0.01406 0.7591 0.0
C1936 C 0.36953 0.02277 0.76977 0.0
C1937 C 0.31693 0.99739 0.73823 0.0
C1938 C 0.33341 0.01514 0.73141 0.0
C1939 C 0.35002 0.02363 0.74201 0.0
C1940 C 0.33429 0.02426 0.71317 0.0
C1941 C 0.29815 0.98895 0.72773 0.0
C1942 C 0.33423 0.00173 0.70027 0.0
C1943 C 0.33704 0.01015 0.68319 0.0
C1944 C 0.34031 0.04125 0.67871 0.0
C1945 C 0.33999 0.06382 0.69165 0.0
C1946 C 0.33702 0.05539 0.7087 0.0
H1947 H 0.28447 0.98433 0.73598 0.0
H1948 H 0.29415 0.00757 0.71855 0.0
H1949 H 0.30147 0.9676 0.72039 0.0
H1950 H 0.33268 0.9775 0.70345 0.0
H1951 H 0.3373 0.99213 0.67359 0.0
H1952 H 0.84322 0.4155 0.19126 0.0
H1953 H 0.83807 0.43462 0.22029 0.0
H1954 H 0.83122 0.52732 0.20102 0.0
H1955 H 0.83634 0.50855 0.17185 0.0
H1956 H 0.86191 0.51877 0.22737 0.0
H1957 H 0.78565 0.46844 0.24508 0.0
H1958 H 0.80376 0.44193 0.23563 0.0
H1959 H 0.79377 0.47337 0.22314 0.0
C1960 C 0.84034 0.43992 0.19311 0.0
C1961 C 0.84028 0.4605 0.17919 0.0
C1962 C 0.83726 0.45074 0.20973 0.0
C1963 C 0.83405 0.48229 0.21274 0.0
C1964 C 0.83353 0.50283 0.19889 0.0
H1965 H 0.83941 0.58881 0.30718 0.0
H1966 H 0.8347 0.57326 0.27745 0.0
C1967 C 0.83648 0.49203 0.18225 0.0
C1968 C 0.83318 0.49412 0.23044 0.0
H1969 H 0.80574 0.48997 0.26765 0.0
C1970 C 0.84953 0.51281 0.23615 0.0
C1971 C 0.8171 0.48596 0.24183 0.0
C1972 C 0.79896 0.46652 0.23613 0.0
C1973 C 0.85056 0.52288 0.25315 0.0
C1974 C 0.83449 0.51469 0.26461 0.0
C1975 C 0.81799 0.49628 0.25882 0.0
C1976 C 0.835 0.52422 0.28278 0.0
C1977 C 0.86929 0.54116 0.25882 0.0
C1978 C 0.83564 0.50182 0.29572 0.0
C1979 C 0.83804 0.51061 0.31279 0.0
C1980 C 0.83993 0.542 0.31719 0.0
C1981 C 0.83831 0.56441 0.30424 0.0
C1982 C 0.83571 0.55559 0.28721 0.0
H1983 H 0.88249 0.53845 0.24983 0.0
H1984 H 0.86523 0.56604 0.2593 0.0
H1985 H 0.87444 0.53395 0.27176 0.0
H1986 H 0.83497 0.47747 0.29256 0.0
H1987 H 0.83912 0.49274 0.32243 0.0
H1988 H 0.1563 0.50667 0.32276 0.0
H1989 H 0.16061 0.52178 0.29288 0.0
H1990 H 0.16106 0.42591 0.27793 0.0
H1991 H 0.1562 0.41052 0.30766 0.0
H1992 H 0.19004 0.50914 0.26809 0.0
H1993 H 0.11341 0.46048 0.25005 0.0
H1994 H 0.12132 0.46515 0.272 0.0
H1995 H 0.13062 0.43297 0.25965 0.0
C1996 C 0.15745 0.48876 0.31315 0.0
C1997 C 0.15557 0.45739 0.31759 0.0
C1998 C 0.15995 0.49745 0.29607 0.0
C1999 C 0.16069 0.47498 0.28317 0.0
C2000 C 0.15998 0.44364 0.28765 0.0
H2001 H 0.15973 0.49009 0.17219 0.0
H2002 H 0.16486 0.47142 0.20137 0.0
C2003 C 0.15729 0.4349 0.30468 0.0
C2004 C 0.16131 0.48439 0.26498 0.0
H2005 H 0.13411 0.48003 0.22764 0.0
C2006 C 0.17784 0.50275 0.25922 0.0
C2007 C 0.1453 0.47611 0.25347 0.0
C2008 C 0.12656 0.45785 0.2591 0.0
C2009 C 0.17883 0.51296 0.2422 0.0
C2010 C 0.16281 0.50471 0.23077 0.0
C2011 C 0.14644 0.48606 0.23646 0.0
C2012 C 0.16201 0.51649 0.21305 0.0
C2013 C 0.197 0.53235 0.23654 0.0
C2014 C 0.15881 0.54802 0.21001 0.0
C2015 C 0.15573 0.55879 0.19339 0.0
C2016 C 0.15577 0.53816 0.17948 0.0
C2017 C 0.1596 0.50665 0.18256 0.0
C2018 C 0.16255 0.4959 0.19922 0.0
H2019 H 0.21027 0.53044 0.24553 0.0
H2020 H 0.20224 0.52546 0.22357 0.0
H2021 H 0.19222 0.55694 0.23601 0.0
H2022 H 0.15799 0.56418 0.22056 0.0
H2023 H 0.15284 0.5832 0.19152 0.0
H2024 H 0.15786 0.48964 0.8251 0.0
H2025 H 0.16247 0.47001 0.79605 0.0
H2026 H 0.15711 0.56249 0.77615 0.0
H2027 H 0.15246 0.58247 0.80507 0.0
H2028 H 0.13181 0.47924 0.76959 0.0
H2029 H 0.20902 0.52594 0.75166 0.0
H2030 H 0.20081 0.5217 0.77362 0.0
H2031 H 0.19142 0.55335 0.76098 0.0
C2032 C 0.15794 0.50592 0.81459 0.0
C2033 C 0.1547 0.53766 0.81744 0.0
C2034 C 0.16059 0.49462 0.79801 0.0
C2035 C 0.16034 0.51485 0.78403 0.0
C2036 C 0.15769 0.54658 0.78682 0.0
H2037 H 0.15588 0.50292 0.67444 0.0
H2038 H 0.15984 0.51827 0.7043 0.0
C2039 C 0.1549 0.55791 0.80337 0.0
C2040 C 0.161 0.50259 0.76641 0.0
H2041 H 0.18859 0.50477 0.72922 0.0
C2042 C 0.14431 0.48449 0.76079 0.0
C2043 C 0.17726 0.5098 0.75499 0.0
C2044 C 0.19576 0.52856 0.76059 0.0
C2045 C 0.14311 0.47411 0.74385 0.0
C2046 C 0.15935 0.48138 0.73236 0.0
C2047 C 0.1762 0.49916 0.73806 0.0
C2048 C 0.15867 0.47166 0.71422 0.0
C2049 C 0.12405 0.45653 0.73826 0.0
C2050 C 0.1573 0.44029 0.70986 0.0
C2051 C 0.15481 0.43142 0.69283 0.0
C2052 C 0.15394 0.45376 0.67979 0.0
C2053 C 0.15637 0.4851 0.68414 0.0
C2054 C 0.15867 0.49394 0.7012 0.0
H2055 H 0.1109 0.45997 0.74723 0.0
H2056 H 0.11905 0.46372 0.72528 0.0
H2057 H 0.12763 0.43148 0.73792 0.0
H2058 H 0.1578 0.42267 0.71967 0.0
H2059 H 0.15326 0.40706 0.68993 0.0
H2060 H 0.83743 0.49438 0.67399 0.0
H2061 H 0.83252 0.47969 0.7038 0.0
H2062 H 0.8379 0.57513 0.719 0.0
H2063 H 0.84338 0.59005 0.68926 0.0
H2064 H 0.8628 0.53856 0.73738 0.0
H2065 H 0.78414 0.48738 0.73608 0.0
H2066 H 0.80108 0.47035 0.72055 0.0
H2067 H 0.79418 0.5105 0.71875 0.0
C2068 C 0.83731 0.51235 0.68362 0.0
C2069 C 0.84089 0.5434 0.6792 0.0
C2070 C 0.83432 0.5039 0.70067 0.0
C2071 C 0.83452 0.52636 0.71361 0.0
C2072 C 0.83758 0.55745 0.7092 0.0
H2073 H 0.83501 0.50989 0.82495 0.0
H2074 H 0.83048 0.5295 0.79588 0.0
C2075 C 0.84073 0.56591 0.69218 0.0
C2076 C 0.8334 0.51715 0.73182 0.0
H2077 H 0.80497 0.4758 0.7607 0.0
C2078 C 0.85001 0.52522 0.74253 0.0
C2079 C 0.81671 0.49969 0.73852 0.0
C2080 C 0.79793 0.49174 0.72791 0.0
C2081 C 0.85071 0.51546 0.7596 0.0
C2082 C 0.8343 0.49736 0.76614 0.0
C2083 C 0.81752 0.48967 0.75557 0.0
C2084 C 0.83491 0.48513 0.78375 0.0
C2085 C 0.86931 0.5237 0.77038 0.0
C2086 C 0.83833 0.45357 0.78647 0.0
C2087 C 0.84099 0.44224 0.80303 0.0
C2088 C 0.84016 0.4623 0.81717 0.0
C2089 C 0.83586 0.49378 0.81438 0.0
C2090 C 0.83328 0.50508 0.79779 0.0
H2091 H 0.88213 0.53358 0.76264 0.0
H2092 H 0.86471 0.54105 0.78011 0.0
H2093 H 0.87514 0.50301 0.77725 0.0
H2094 H 0.8396 0.43787 0.77574 0.0
H2095 H 0.84418 0.41786 0.80468 0.0
loop_
_geom_bond_atom_site_label_1
_geom_bond_atom_site_label_2
_geom_bond_distance
_geom_bond_site_symmetry_2
_ccdc_geom_bond_type
Co0 O2 2.143 . S
Co0 O8 2.074 . S
Co0 O11 2.093 . S
Co0 O24 2.097 . S
Co0 N41 2.151 1_545 S
Co0 N49 2.214 1_545 S
Co1 O2 2.160 . S
Co1 O7 2.058 . S
Co1 O17 2.057 . S
Co1 O32 2.037 . S
Co1 N36 2.145 . S
Co1 N57 2.257 . S
O2 Co0 2.143 . S
O2 Co1 2.160 . S
C3 O4 1.278 . S
C3 O11 1.224 . S
O4 C3 1.278 . S
C5 O6 1.245 . S
C5 O17 1.232 . S
O6 C5 1.245 . S
O7 Co1 2.058 . S
O7 C33 1.269 . S
O8 Co0 2.074 . S
O8 C33 1.257 . S
H9 C34 0.930 . S
H10 C40 0.930 . S
O11 Co0 2.093 . S
O11 C3 1.224 . S
H12 C44 0.929 . S
H13 C46 0.930 . S
H14 C47 0.930 . S
H15 C45 0.929 . S
H16 C48 0.928 . S
O17 Co1 2.057 . S
O17 C5 1.232 . S
H18 C37 0.929 . S
H19 C38 0.929 . S
H20 C50 0.931 . S
H21 C42 0.929 1_545 S
H22 C51 0.930 . S
H23 C43 0.931 . S
O24 Co0 2.097 . S
O24 C52 1.214 . S
H25 C53 0.929 . S
H26 C54 0.929 . S
H27 C55 0.930 . S
H28 C56 0.929 . S
H29 C58 0.930 . S
H30 C35 0.930 . S
H31 C39 0.930 . S
O32 Co1 2.037 . S
O32 C52 1.234 . S
C33 O7 1.269 . S
C33 O8 1.257 . S
C34 H9 0.930 . S
C34 C37 1.388 . S
C34 C39 1.418 . S
C35 H30 0.930 . S
C35 C38 1.404 . S
C35 C39 1.353 . S
N36 Co1 2.145 . S
N36 C37 1.397 . S
N36 C38 1.334 . S
C37 H18 0.929 . S
C37 C34 1.388 . S
C37 N36 1.397 . S
C38 H19 0.929 . S
C38 C35 1.404 . S
C38 N36 1.334 . S
C39 H31 0.930 . S
C39 C34 1.418 . S
C39 C35 1.353 . S
C40 H10 0.930 . S
C40 N41 1.330 1_545 S
C40 C42 1.446 1_545 S
N41 Co0 2.151 1_565 S
N41 C40 1.330 1_565 S
N41 C45 1.418 . S
C42 H21 0.929 1_565 S
C42 C40 1.446 1_565 S
C42 C43 1.332 . S
C43 H23 0.931 . S
C43 C42 1.332 . S
C43 C44 1.267 . S
C44 H12 0.929 . S
C44 C43 1.267 . S
C44 C45 1.251 . S
C45 H15 0.929 . S
C45 N41 1.418 . S
C45 C44 1.251 . S
C46 H13 0.930 . S
C46 C48 1.406 . S
C46 C51 1.261 . S
C47 H14 0.930 . S
C47 N49 1.325 . S
C47 C50 1.357 . S
C48 H16 0.928 . S
C48 C46 1.406 . S
C48 N49 1.261 . S
N49 Co0 2.214 1_565 S
N49 C47 1.325 . S
N49 C48 1.261 . S
C50 H20 0.931 . S
C50 C47 1.357 . S
C50 C51 1.312 . S
C51 H22 0.930 . S
C51 C46 1.261 . S
C51 C50 1.312 . S
C52 O24 1.214 . S
C52 O32 1.234 . S
C53 H25 0.929 . S
C53 C56 1.391 . S
C53 C58 1.391 . S
C54 H26 0.929 . S
C54 C55 1.390 . S
C54 N57 1.391 . S
C55 H27 0.930 . S
C55 C54 1.390 . S
C55 C56 1.392 . S
C56 H28 0.929 . S
C56 C53 1.391 . S
C56 C55 1.392 . S
N57 Co1 2.257 . S
N57 C54 1.391 . S
N57 C58 1.388 . S
C58 H29 0.930 . S
C58 C53 1.391 . S
C58 N57 1.388 . S
Co59 O61 2.143 . S
Co59 O67 2.074 . S
Co59 O70 2.093 . S
Co59 O83 2.097 . S
Co59 N100 2.151 1_565 S
Co59 N108 2.214 1_565 S
Co60 O61 2.160 . S
Co60 O66 2.058 . S
Co60 O76 2.057 . S
Co60 O91 2.037 . S
Co60 N95 2.145 . S
Co60 N116 2.257 . S
O61 Co59 2.143 . S
O61 Co60 2.160 . S
C62 O63 1.278 . S
C62 O70 1.224 . S
O63 C62 1.278 . S
C64 O65 1.245 . S
C64 O76 1.232 . S
O65 C64 1.245 . S
O66 Co60 2.058 . S
O66 C92 1.269 . S
O67 Co59 2.074 . S
O67 C92 1.257 . S
H68 C93 0.930 . S
H69 C99 0.930 . S
O70 Co59 2.093 . S
O70 C62 1.224 . S
H71 C103 0.929 . S
H72 C105 0.930 . S
H73 C106 0.930 . S
H74 C104 0.929 . S
H75 C107 0.928 . S
O76 Co60 2.057 . S
O76 C64 1.232 . S
H77 C96 0.929 . S
H78 C97 0.929 . S
H79 C109 0.931 . S
H80 C101 0.929 1_565 S
H81 C110 0.930 . S
H82 C102 0.931 . S
O83 Co59 2.097 . S
O83 C111 1.214 . S
H84 C112 0.929 . S
H85 C113 0.929 . S
H86 C114 0.930 . S
H87 C115 0.929 . S
H88 C117 0.930 . S
H89 C94 0.930 . S
H90 C98 0.930 . S
O91 Co60 2.037 . S
O91 C111 1.234 . S
C92 O66 1.269 . S
C92 O67 1.257 . S
C93 H68 0.930 . S
C93 C96 1.388 . S
C93 C98 1.418 . S
C94 H89 0.930 . S
C94 C97 1.404 . S
C94 C98 1.353 . S
N95 Co60 2.145 . S
N95 C96 1.397 . S
N95 C97 1.334 . S
C96 H77 0.929 . S
C96 C93 1.388 . S
C96 N95 1.397 . S
C97 H78 0.929 . S
C97 C94 1.404 . S
C97 N95 1.334 . S
C98 H90 0.930 . S
C98 C93 1.418 . S
C98 C94 1.353 . S
C99 H69 0.930 . S
C99 N100 1.330 1_565 S
C99 C101 1.446 1_565 S
N100 Co59 2.151 1_545 S
N100 C99 1.330 1_545 S
N100 C104 1.418 . S
C101 H80 0.929 1_545 S
C101 C99 1.446 1_545 S
C101 C102 1.332 . S
C102 H82 0.931 . S
C102 C101 1.332 . S
C102 C103 1.267 . S
C103 H71 0.929 . S
C103 C102 1.267 . S
C103 C104 1.251 . S
C104 H74 0.929 . S
C104 N100 1.418 . S
C104 C103 1.251 . S
C105 H72 0.930 . S
C105 C107 1.406 . S
C105 C110 1.261 . S
C106 H73 0.930 . S
C106 N108 1.325 . S
C106 C109 1.357 . S
C107 H75 0.928 . S
C107 C105 1.406 . S
C107 N108 1.261 . S
N108 Co59 2.214 1_545 S
N108 C106 1.325 . S
N108 C107 1.261 . S
C109 H79 0.931 . S
C109 C106 1.357 . S
C109 C110 1.312 . S
C110 H81 0.930 . S
C110 C105 1.261 . S
C110 C109 1.312 . S
C111 O83 1.214 . S
C111 O91 1.234 . S
C112 H84 0.929 . S
C112 C115 1.391 . S
C112 C117 1.391 . S
C113 H85 0.929 . S
C113 C114 1.390 . S
C113 N116 1.391 . S
C114 H86 0.930 . S
C114 C113 1.390 . S
C114 C115 1.392 . S
C115 H87 0.929 . S
C115 C112 1.391 . S
C115 C114 1.392 . S
N116 Co60 2.257 . S
N116 C113 1.391 . S
N116 C117 1.388 . S
C117 H88 0.930 . S
C117 C112 1.391 . S
C117 N116 1.388 . S
Co118 O120 2.143 . S
Co118 O126 2.074 . S
Co118 O129 2.093 . S
Co118 O142 2.097 . S
Co118 N159 2.151 1_565 S
Co118 N167 2.214 1_565 S
Co119 O120 2.160 . S
Co119 O125 2.058 . S
Co119 O135 2.057 . S
Co119 O150 2.037 . S
Co119 N154 2.145 . S
Co119 N175 2.257 . S
O120 Co118 2.143 . S
O120 Co119 2.160 . S
C121 O122 1.278 . S
C121 O129 1.224 . S
O122 C121 1.278 . S
C123 O124 1.245 . S
C123 O135 1.232 . S
O124 C123 1.245 . S
O125 Co119 2.058 . S
O125 C151 1.269 . S
O126 Co118 2.074 . S
O126 C151 1.257 . S
H127 C152 0.930 . S
H128 C158 0.930 . S
O129 Co118 2.093 . S
O129 C121 1.224 . S
H130 C162 0.929 . S
H131 C164 0.930 . S
H132 C165 0.930 . S
H133 C163 0.929 . S
H134 C166 0.928 . S
O135 Co119 2.057 . S
O135 C123 1.232 . S
H136 C155 0.929 . S
H137 C156 0.929 . S
H138 C168 0.931 . S
H139 C160 0.929 1_565 S
H140 C169 0.930 . S
H141 C161 0.931 . S
O142 Co118 2.097 . S
O142 C170 1.214 . S
H143 C171 0.929 . S
H144 C172 0.929 . S
H145 C173 0.930 . S
H146 C174 0.929 . S
H147 C176 0.930 . S
H148 C153 0.930 . S
H149 C157 0.930 . S
O150 Co119 2.037 . S
O150 C170 1.234 . S
C151 O125 1.269 . S
C151 O126 1.257 . S
C152 H127 0.930 . S
C152 C155 1.388 . S
C152 C157 1.418 . S
C153 H148 0.930 . S
C153 C156 1.404 . S
C153 C157 1.353 . S
N154 Co119 2.145 . S
N154 C155 1.397 . S
N154 C156 1.334 . S
C155 H136 0.929 . S
C155 C152 1.388 . S
C155 N154 1.397 . S
C156 H137 0.929 . S
C156 C153 1.404 . S
C156 N154 1.334 . S
C157 H149 0.930 . S
C157 C152 1.418 . S
C157 C153 1.353 . S
C158 H128 0.930 . S
C158 N159 1.330 1_565 S
C158 C160 1.446 1_565 S
N159 Co118 2.151 1_545 S
N159 C158 1.330 1_545 S
N159 C163 1.418 . S
C160 H139 0.929 1_545 S
C160 C158 1.446 1_545 S
C160 C161 1.332 . S
C161 H141 0.931 . S
C161 C160 1.332 . S
C161 C162 1.267 . S
C162 H130 0.929 . S
C162 C161 1.267 . S
C162 C163 1.251 . S
C163 H133 0.929 . S
C163 N159 1.418 . S
C163 C162 1.251 . S
C164 H131 0.930 . S
C164 C166 1.406 . S
C164 C169 1.261 . S
C165 H132 0.930 . S
C165 N167 1.325 . S
C165 C168 1.357 . S
C166 H134 0.928 . S
C166 C164 1.406 . S
C166 N167 1.261 . S
N167 Co118 2.214 1_545 S
N167 C165 1.325 . S
N167 C166 1.261 . S
C168 H138 0.931 . S
C168 C165 1.357 . S
C168 C169 1.312 . S
C169 H140 0.930 . S
C169 C164 1.261 . S
C169 C168 1.312 . S
C170 O142 1.214 . S
C170 O150 1.234 . S
C171 H143 0.929 . S
C171 C174 1.391 . S
C171 C176 1.391 . S
C172 H144 0.929 . S
C172 C173 1.390 . S
C172 N175 1.391 . S
C173 H145 0.930 . S
C173 C172 1.390 . S
C173 C174 1.392 . S
C174 H146 0.929 . S
C174 C171 1.391 . S
C174 C173 1.392 . S
N175 Co119 2.257 . S
N175 C172 1.391 . S
N175 C176 1.388 . S
C176 H147 0.930 . S
C176 C171 1.391 . S
C176 N175 1.388 . S
Co177 O179 2.143 . S
Co177 O185 2.074 . S
Co177 O188 2.093 . S
Co177 O201 2.097 . S
Co177 N218 2.151 1_545 S
Co177 N226 2.214 1_545 S
Co178 O179 2.160 . S
Co178 O184 2.058 . S
Co178 O194 2.057 . S
Co178 O209 2.037 . S
Co178 N213 2.145 . S
Co178 N234 2.257 . S
O179 Co177 2.143 . S
O179 Co178 2.160 . S
C180 O181 1.278 . S
C180 O188 1.224 . S
O181 C180 1.278 . S
C182 O183 1.245 . S
C182 O194 1.232 . S
O183 C182 1.245 . S
O184 Co178 2.058 . S
O184 C210 1.269 . S
O185 Co177 2.074 . S
O185 C210 1.257 . S
H186 C211 0.930 . S
H187 C217 0.930 . S
O188 Co177 2.093 . S
O188 C180 1.224 . S
H189 C221 0.929 . S
H190 C223 0.930 . S
H191 C224 0.930 . S
H192 C222 0.929 . S
H193 C225 0.928 . S
O194 Co178 2.057 . S
O194 C182 1.232 . S
H195 C214 0.929 . S
H196 C215 0.929 . S
H197 C227 0.931 . S
H198 C219 0.929 1_545 S
H199 C228 0.930 . S
H200 C220 0.931 . S
O201 Co177 2.097 . S
O201 C229 1.214 . S
H202 C230 0.929 . S
H203 C231 0.929 . S
H204 C232 0.930 . S
H205 C233 0.929 . S
H206 C235 0.930 . S
H207 C212 0.930 . S
H208 C216 0.930 . S
O209 Co178 2.037 . S
O209 C229 1.234 . S
C210 O184 1.269 . S
C210 O185 1.257 . S
C211 H186 0.930 . S
C211 C214 1.388 . S
C211 C216 1.418 . S
C212 H207 0.930 . S
C212 C215 1.404 . S
C212 C216 1.353 . S
N213 Co178 2.145 . S
N213 C214 1.397 . S
N213 C215 1.334 . S
C214 H195 0.929 . S
C214 C211 1.388 . S
C214 N213 1.397 . S
C215 H196 0.929 . S
C215 C212 1.404 . S
C215 N213 1.334 . S
C216 H208 0.930 . S
C216 C211 1.418 . S
C216 C212 1.353 . S
C217 H187 0.930 . S
C217 N218 1.330 1_545 S
C217 C219 1.446 1_545 S
N218 Co177 2.151 1_565 S
N218 C217 1.330 1_565 S
N218 C222 1.418 . S
C219 H198 0.929 1_565 S
C219 C217 1.446 1_565 S
C219 C220 1.332 . S
C220 H200 0.931 . S
C220 C219 1.332 . S
C220 C221 1.267 . S
C221 H189 0.929 . S
C221 C220 1.267 . S
C221 C222 1.251 . S
C222 H192 0.929 . S
C222 N218 1.418 . S
C222 C221 1.251 . S
C223 H190 0.930 . S
C223 C225 1.406 . S
C223 C228 1.261 . S
C224 H191 0.930 . S
C224 N226 1.325 . S
C224 C227 1.357 . S
C225 H193 0.928 . S
C225 C223 1.406 . S
C225 N226 1.261 . S
N226 Co177 2.214 1_565 S
N226 C224 1.325 . S
N226 C225 1.261 . S
C227 H197 0.931 . S
C227 C224 1.357 . S
C227 C228 1.312 . S
C228 H199 0.930 . S
C228 C223 1.261 . S
C228 C227 1.312 . S
C229 O201 1.214 . S
C229 O209 1.234 . S
C230 H202 0.929 . S
C230 C233 1.391 . S
C230 C235 1.391 . S
C231 H203 0.929 . S
C231 C232 1.390 . S
C231 N234 1.391 . S
C232 H204 0.930 . S
C232 C231 1.390 . S
C232 C233 1.392 . S
C233 H205 0.929 . S
C233 C230 1.391 . S
C233 C232 1.392 . S
N234 Co178 2.257 . S
N234 C231 1.391 . S
N234 C235 1.388 . S
C235 H206 0.930 . S
C235 C230 1.391 . S
C235 N234 1.388 . S
Co236 O238 2.143 . S
Co236 O244 2.074 . S
Co236 O247 2.093 . S
Co236 O260 2.097 . S
Co236 N277 2.151 1_565 S
Co236 N285 2.214 1_565 S
Co237 O238 2.160 . S
Co237 O243 2.058 . S
Co237 O253 2.057 . S
Co237 O268 2.037 . S
Co237 N272 2.145 . S
Co237 N293 2.257 . S
O238 Co236 2.143 . S
O238 Co237 2.160 . S
C239 O240 1.278 . S
C239 O247 1.224 . S
O240 C239 1.278 . S
C241 O242 1.245 . S
C241 O253 1.232 . S
O242 C241 1.245 . S
O243 Co237 2.058 . S
O243 C269 1.269 . S
O244 Co236 2.074 . S
O244 C269 1.257 . S
H245 C270 0.930 . S
H246 C276 0.930 . S
O247 Co236 2.093 . S
O247 C239 1.224 . S
H248 C280 0.929 . S
H249 C282 0.930 . S
H250 C283 0.930 . S
H251 C281 0.929 . S
H252 C284 0.928 . S
O253 Co237 2.057 . S
O253 C241 1.232 . S
H254 C273 0.929 . S
H255 C274 0.929 . S
H256 C286 0.931 . S
H257 C278 0.929 1_565 S
H258 C287 0.930 . S
H259 C279 0.931 . S
O260 Co236 2.097 . S
O260 C288 1.214 . S
H261 C289 0.929 . S
H262 C290 0.929 . S
H263 C291 0.930 . S
H264 C292 0.929 . S
H265 C294 0.930 . S
H266 C271 0.930 . S
H267 C275 0.930 . S
O268 Co237 2.037 . S
O268 C288 1.234 . S
C269 O243 1.269 . S
C269 O244 1.257 . S
C270 H245 0.930 . S
C270 C273 1.388 . S
C270 C275 1.418 . S
C271 H266 0.930 . S
C271 C274 1.404 . S
C271 C275 1.353 . S
N272 Co237 2.145 . S
N272 C273 1.397 . S
N272 C274 1.334 . S
C273 H254 0.929 . S
C273 C270 1.388 . S
C273 N272 1.397 . S
C274 H255 0.929 . S
C274 C271 1.404 . S
C274 N272 1.334 . S
C275 H267 0.930 . S
C275 C270 1.418 . S
C275 C271 1.353 . S
C276 H246 0.930 . S
C276 N277 1.330 1_565 S
C276 C278 1.446 1_565 S
N277 Co236 2.151 1_545 S
N277 C276 1.330 1_545 S
N277 C281 1.418 . S
C278 H257 0.929 1_545 S
C278 C276 1.446 1_545 S
C278 C279 1.332 . S
C279 H259 0.931 . S
C279 C278 1.332 . S
C279 C280 1.267 . S
C280 H248 0.929 . S
C280 C279 1.267 . S
C280 C281 1.251 . S
C281 H251 0.929 . S
C281 N277 1.418 . S
C281 C280 1.251 . S
C282 H249 0.930 . S
C282 C284 1.406 . S
C282 C287 1.261 . S
C283 H250 0.930 . S
C283 N285 1.325 . S
C283 C286 1.357 . S
C284 H252 0.928 . S
C284 C282 1.406 . S
C284 N285 1.261 . S
N285 Co236 2.214 1_545 S
N285 C283 1.325 . S
N285 C284 1.261 . S
C286 H256 0.931 . S
C286 C283 1.357 . S
C286 C287 1.312 . S
C287 H258 0.930 . S
C287 C282 1.261 . S
C287 C286 1.312 . S
C288 O260 1.214 . S
C288 O268 1.234 . S
C289 H261 0.929 . S
C289 C292 1.391 . S
C289 C294 1.391 . S
C290 H262 0.929 . S
C290 C291 1.390 . S
C290 N293 1.391 . S
C291 H263 0.930 . S
C291 C290 1.390 . S
C291 C292 1.392 . S
C292 H264 0.929 . S
C292 C289 1.391 . S
C292 C291 1.392 . S
N293 Co237 2.257 . S
N293 C290 1.391 . S
N293 C294 1.388 . S
C294 H265 0.930 . S
C294 C289 1.391 . S
C294 N293 1.388 . S
Co295 O297 2.143 . S
Co295 O303 2.074 . S
Co295 O306 2.093 . S
Co295 O319 2.097 . S
Co295 N336 2.151 1_545 S
Co295 N344 2.214 1_545 S
Co296 O297 2.160 . S
Co296 O302 2.058 . S
Co296 O312 2.057 . S
Co296 O327 2.037 . S
Co296 N331 2.145 . S
Co296 N352 2.257 . S
O297 Co295 2.143 . S
O297 Co296 2.160 . S
C298 O299 1.278 . S
C298 O306 1.224 . S
O299 C298 1.278 . S
C300 O301 1.245 . S
C300 O312 1.232 . S
O301 C300 1.245 . S
O302 Co296 2.058 . S
O302 C328 1.269 . S
O303 Co295 2.074 . S
O303 C328 1.257 . S
H304 C329 0.930 . S
H305 C335 0.930 . S
O306 Co295 2.093 . S
O306 C298 1.224 . S
H307 C339 0.929 . S
H308 C341 0.930 . S
H309 C342 0.930 . S
H310 C340 0.929 . S
H311 C343 0.928 . S
O312 Co296 2.057 . S
O312 C300 1.232 . S
H313 C332 0.929 . S
H314 C333 0.929 . S
H315 C345 0.931 . S
H316 C337 0.929 1_545 S
H317 C346 0.930 . S
H318 C338 0.931 . S
O319 Co295 2.097 . S
O319 C347 1.214 . S
H320 C348 0.929 . S
H321 C349 0.929 . S
H322 C350 0.930 . S
H323 C351 0.929 . S
H324 C353 0.930 . S
H325 C330 0.930 . S
H326 C334 0.930 . S
O327 Co296 2.037 . S
O327 C347 1.234 . S
C328 O302 1.269 . S
C328 O303 1.257 . S
C329 H304 0.930 . S
C329 C332 1.388 . S
C329 C334 1.418 . S
C330 H325 0.930 . S
C330 C333 1.404 . S
C330 C334 1.353 . S
N331 Co296 2.145 . S
N331 C332 1.397 . S
N331 C333 1.334 . S
C332 H313 0.929 . S
C332 C329 1.388 . S
C332 N331 1.397 . S
C333 H314 0.929 . S
C333 C330 1.404 . S
C333 N331 1.334 . S
C334 H326 0.930 . S
C334 C329 1.418 . S
C334 C330 1.353 . S
C335 H305 0.930 . S
C335 N336 1.330 1_545 S
C335 C337 1.446 1_545 S
N336 Co295 2.151 1_565 S
N336 C335 1.330 1_565 S
N336 C340 1.418 . S
C337 H316 0.929 1_565 S
C337 C335 1.446 1_565 S
C337 C338 1.332 . S
C338 H318 0.931 . S
C338 C337 1.332 . S
C338 C339 1.267 . S
C339 H307 0.929 . S
C339 C338 1.267 . S
C339 C340 1.251 . S
C340 H310 0.929 . S
C340 N336 1.418 . S
C340 C339 1.251 . S
C341 H308 0.930 . S
C341 C343 1.406 . S
C341 C346 1.261 . S
C342 H309 0.930 . S
C342 N344 1.325 . S
C342 C345 1.357 . S
C343 H311 0.928 . S
C343 C341 1.406 . S
C343 N344 1.261 . S
N344 Co295 2.214 1_565 S
N344 C342 1.325 . S
N344 C343 1.261 . S
C345 H315 0.931 . S
C345 C342 1.357 . S
C345 C346 1.312 . S
C346 H317 0.930 . S
C346 C341 1.261 . S
C346 C345 1.312 . S
C347 O319 1.214 . S
C347 O327 1.234 . S
C348 H320 0.929 . S
C348 C351 1.391 . S
C348 C353 1.391 . S
C349 H321 0.929 . S
C349 C350 1.390 . S
C349 N352 1.391 . S
C350 H322 0.930 . S
C350 C349 1.390 . S
C350 C351 1.392 . S
C351 H323 0.929 . S
C351 C348 1.391 . S
C351 C350 1.392 . S
N352 Co296 2.257 . S
N352 C349 1.391 . S
N352 C353 1.388 . S
C353 H324 0.930 . S
C353 C348 1.391 . S
C353 N352 1.388 . S
Co354 O356 2.143 . S
Co354 O362 2.074 . S
Co354 O365 2.093 . S
Co354 O378 2.097 . S
Co354 N395 2.151 1_545 S
Co354 N403 2.214 1_545 S
Co355 O356 2.160 . S
Co355 O361 2.058 . S
Co355 O371 2.057 . S
Co355 O386 2.037 . S
Co355 N390 2.145 . S
Co355 N411 2.257 . S
O356 Co354 2.143 . S
O356 Co355 2.160 . S
C357 O358 1.278 . S
C357 O365 1.224 . S
O358 C357 1.278 . S
C359 O360 1.245 . S
C359 O371 1.232 . S
O360 C359 1.245 . S
O361 Co355 2.058 . S
O361 C387 1.269 . S
O362 Co354 2.074 . S
O362 C387 1.257 . S
H363 C388 0.930 . S
H364 C394 0.930 . S
O365 Co354 2.093 . S
O365 C357 1.224 . S
H366 C398 0.929 . S
H367 C400 0.930 . S
H368 C401 0.930 . S
H369 C399 0.929 . S
H370 C402 0.928 . S
O371 Co355 2.057 . S
O371 C359 1.232 . S
H372 C391 0.929 . S
H373 C392 0.929 . S
H374 C404 0.931 . S
H375 C396 0.929 1_545 S
H376 C405 0.930 . S
H377 C397 0.931 . S
O378 Co354 2.097 . S
O378 C406 1.214 . S
H379 C407 0.929 . S
H380 C408 0.929 . S
H381 C409 0.930 . S
H382 C410 0.929 . S
H383 C412 0.930 . S
H384 C389 0.930 . S
H385 C393 0.930 . S
O386 Co355 2.037 . S
O386 C406 1.234 . S
C387 O361 1.269 . S
C387 O362 1.257 . S
C388 H363 0.930 . S
C388 C391 1.388 . S
C388 C393 1.418 . S
C389 H384 0.930 . S
C389 C392 1.404 . S
C389 C393 1.353 . S
N390 Co355 2.145 . S
N390 C391 1.397 . S
N390 C392 1.334 . S
C391 H372 0.929 . S
C391 C388 1.388 . S
C391 N390 1.397 . S
C392 H373 0.929 . S
C392 C389 1.404 . S
C392 N390 1.334 . S
C393 H385 0.930 . S
C393 C388 1.418 . S
C393 C389 1.353 . S
C394 H364 0.930 . S
C394 N395 1.330 1_545 S
C394 C396 1.446 1_545 S
N395 Co354 2.151 1_565 S
N395 C394 1.330 1_565 S
N395 C399 1.418 . S
C396 H375 0.929 1_565 S
C396 C394 1.446 1_565 S
C396 C397 1.332 . S
C397 H377 0.931 . S
C397 C396 1.332 . S
C397 C398 1.267 . S
C398 H366 0.929 . S
C398 C397 1.267 . S
C398 C399 1.251 . S
C399 H369 0.929 . S
C399 N395 1.418 . S
C399 C398 1.251 . S
C400 H367 0.930 . S
C400 C402 1.406 . S
C400 C405 1.261 . S
C401 H368 0.930 . S
C401 N403 1.325 . S
C401 C404 1.357 . S
C402 H370 0.928 . S
C402 C400 1.406 . S
C402 N403 1.261 . S
N403 Co354 2.214 1_565 S
N403 C401 1.325 . S
N403 C402 1.261 . S
C404 H374 0.931 . S
C404 C401 1.357 . S
C404 C405 1.312 . S
C405 H376 0.930 . S
C405 C400 1.261 . S
C405 C404 1.312 . S
C406 O378 1.214 . S
C406 O386 1.234 . S
C407 H379 0.929 . S
C407 C410 1.391 . S
C407 C412 1.391 . S
C408 H380 0.929 . S
C408 C409 1.390 . S
C408 N411 1.391 . S
C409 H381 0.930 . S
C409 C408 1.390 . S
C409 C410 1.392 . S
C410 H382 0.929 . S
C410 C407 1.391 . S
C410 C409 1.392 . S
N411 Co355 2.257 . S
N411 C408 1.391 . S
N411 C412 1.388 . S
C412 H383 0.930 . S
C412 C407 1.391 . S
C412 N411 1.388 . S
Co413 O415 2.143 . S
Co413 O421 2.074 . S
Co413 O424 2.093 . S
Co413 O437 2.097 . S
Co413 N454 2.151 1_565 S
Co413 N462 2.214 1_565 S
Co414 O415 2.160 . S
Co414 O420 2.058 . S
Co414 O430 2.057 . S
Co414 O445 2.037 . S
Co414 N449 2.145 . S
Co414 N470 2.257 . S
O415 Co413 2.143 . S
O415 Co414 2.160 . S
C416 O417 1.278 . S
C416 O424 1.224 . S
O417 C416 1.278 . S
C418 O419 1.245 . S
C418 O430 1.232 . S
O419 C418 1.245 . S
O420 Co414 2.058 . S
O420 C446 1.269 . S
O421 Co413 2.074 . S
O421 C446 1.257 . S
H422 C447 0.930 . S
H423 C453 0.930 . S
O424 Co413 2.093 . S
O424 C416 1.224 . S
H425 C457 0.929 . S
H426 C459 0.930 . S
H427 C460 0.930 . S
H428 C458 0.929 . S
H429 C461 0.928 . S
O430 Co414 2.057 . S
O430 C418 1.232 . S
H431 C450 0.929 . S
H432 C451 0.929 . S
H433 C463 0.931 . S
H434 C455 0.929 1_565 S
H435 C464 0.930 . S
H436 C456 0.931 . S
O437 Co413 2.097 . S
O437 C465 1.214 . S
H438 C466 0.929 . S
H439 C467 0.929 . S
H440 C468 0.930 . S
H441 C469 0.929 . S
H442 C471 0.930 . S
H443 C448 0.930 . S
H444 C452 0.930 . S
O445 Co414 2.037 . S
O445 C465 1.234 . S
C446 O420 1.269 . S
C446 O421 1.257 . S
C447 H422 0.930 . S
C447 C450 1.388 . S
C447 C452 1.418 . S
C448 H443 0.930 . S
C448 C451 1.404 . S
C448 C452 1.353 . S
N449 Co414 2.145 . S
N449 C450 1.397 . S
N449 C451 1.334 . S
C450 H431 0.929 . S
C450 C447 1.388 . S
C450 N449 1.397 . S
C451 H432 0.929 . S
C451 C448 1.404 . S
C451 N449 1.334 . S
C452 H444 0.930 . S
C452 C447 1.418 . S
C452 C448 1.353 . S
C453 H423 0.930 . S
C453 N454 1.330 1_565 S
C453 C455 1.446 1_565 S
N454 Co413 2.151 1_545 S
N454 C453 1.330 1_545 S
N454 C458 1.418 . S
C455 H434 0.929 1_545 S
C455 C453 1.446 1_545 S
C455 C456 1.332 . S
C456 H436 0.931 . S
C456 C455 1.332 . S
C456 C457 1.267 . S
C457 H425 0.929 . S
C457 C456 1.267 . S
C457 C458 1.251 . S
C458 H428 0.929 . S
C458 N454 1.418 . S
C458 C457 1.251 . S
C459 H426 0.930 . S
C459 C461 1.406 . S
C459 C464 1.261 . S
C460 H427 0.930 . S
C460 N462 1.325 . S
C460 C463 1.357 . S
C461 H429 0.928 . S
C461 C459 1.406 . S
C461 N462 1.261 . S
N462 Co413 2.214 1_545 S
N462 C460 1.325 . S
N462 C461 1.261 . S
C463 H433 0.931 . S
C463 C460 1.357 . S
C463 C464 1.312 . S
C464 H435 0.930 . S
C464 C459 1.261 . S
C464 C463 1.312 . S
C465 O437 1.214 . S
C465 O445 1.234 . S
C466 H438 0.929 . S
C466 C469 1.391 . S
C466 C471 1.391 . S
C467 H439 0.929 . S
C467 C468 1.390 . S
C467 N470 1.391 . S
C468 H440 0.930 . S
C468 C467 1.390 . S
C468 C469 1.392 . S
C469 H441 0.929 . S
C469 C466 1.391 . S
C469 C468 1.392 . S
N470 Co414 2.257 . S
N470 C467 1.391 . S
N470 C471 1.388 . S
C471 H442 0.930 . S
C471 C466 1.391 . S
C471 N470 1.388 . S
Co472 O474 2.143 . S
Co472 O480 2.074 . S
Co472 O483 2.093 . S
Co472 O496 2.097 . S
Co472 N513 2.151 . S
Co472 N521 2.214 . S
Co473 O474 2.160 . S
Co473 O479 2.058 . S
Co473 O489 2.057 . S
Co473 O504 2.037 . S
Co473 N508 2.145 . S
Co473 N529 2.257 . S
O474 Co472 2.143 . S
O474 Co473 2.160 . S
C475 O476 1.278 . S
C475 O483 1.224 . S
O476 C475 1.278 . S
C477 O478 1.245 . S
C477 O489 1.232 . S
O478 C477 1.245 . S
O479 Co473 2.058 . S
O479 C505 1.269 . S
O480 Co472 2.074 . S
O480 C505 1.257 . S
H481 C506 0.930 . S
H482 C512 0.930 . S
O483 Co472 2.093 . S
O483 C475 1.224 . S
H484 C516 0.929 . S
H485 C518 0.930 . S
H486 C519 0.930 . S
H487 C517 0.929 . S
H488 C520 0.928 . S
O489 Co473 2.057 . S
O489 C477 1.232 . S
H490 C509 0.929 . S
H491 C510 0.929 . S
H492 C522 0.931 . S
H493 C514 0.929 . S
H494 C523 0.930 . S
H495 C515 0.931 . S
O496 Co472 2.097 . S
O496 C524 1.214 . S
H497 C525 0.929 . S
H498 C526 0.929 . S
H499 C527 0.930 . S
H500 C528 0.929 . S
H501 C530 0.930 . S
H502 C507 0.930 . S
H503 C511 0.930 . S
O504 Co473 2.037 . S
O504 C524 1.234 . S
C505 O479 1.269 . S
C505 O480 1.257 . S
C506 H481 0.930 . S
C506 C509 1.388 . S
C506 C511 1.418 . S
C507 H502 0.930 . S
C507 C510 1.404 . S
C507 C511 1.353 . S
N508 Co473 2.145 . S
N508 C509 1.397 . S
N508 C510 1.334 . S
C509 H490 0.929 . S
C509 C506 1.388 . S
C509 N508 1.397 . S
C510 H491 0.929 . S
C510 C507 1.404 . S
C510 N508 1.334 . S
C511 H503 0.930 . S
C511 C506 1.418 . S
C511 C507 1.353 . S
C512 H482 0.930 . S
C512 N513 1.330 . S
C512 C514 1.446 . S
N513 Co472 2.151 . S
N513 C512 1.330 . S
N513 C517 1.418 . S
C514 H493 0.929 . S
C514 C512 1.446 . S
C514 C515 1.332 . S
C515 H495 0.931 . S
C515 C514 1.332 . S
C515 C516 1.267 . S
C516 H484 0.929 . S
C516 C515 1.267 . S
C516 C517 1.251 . S
C517 H487 0.929 . S
C517 N513 1.418 . S
C517 C516 1.251 . S
C518 H485 0.930 . S
C518 C520 1.406 . S
C518 C523 1.261 . S
C519 H486 0.930 . S
C519 N521 1.325 . S
C519 C522 1.357 . S
C520 H488 0.928 . S
C520 C518 1.406 . S
C520 N521 1.261 . S
N521 Co472 2.214 . S
N521 C519 1.325 . S
N521 C520 1.261 . S
C522 H492 0.931 . S
C522 C519 1.357 . S
C522 C523 1.312 . S
C523 H494 0.930 . S
C523 C518 1.261 . S
C523 C522 1.312 . S
C524 O496 1.214 . S
C524 O504 1.234 . S
C525 H497 0.929 . S
C525 C528 1.391 . S
C525 C530 1.391 . S
C526 H498 0.929 . S
C526 C527 1.390 . S
C526 N529 1.391 . S
C527 H499 0.930 . S
C527 C526 1.390 . S
C527 C528 1.392 . S
C528 H500 0.929 . S
C528 C525 1.391 . S
C528 C527 1.392 . S
N529 Co473 2.257 . S
N529 C526 1.391 . S
N529 C530 1.388 . S
C530 H501 0.930 . S
C530 C525 1.391 . S
C530 N529 1.388 . S
Co531 O533 2.143 . S
Co531 O539 2.074 . S
Co531 O542 2.093 . S
Co531 O555 2.097 . S
Co531 N572 2.151 . S
Co531 N580 2.214 . S
Co532 O533 2.160 . S
Co532 O538 2.058 . S
Co532 O548 2.057 . S
Co532 O563 2.037 . S
Co532 N567 2.145 . S
Co532 N588 2.257 . S
O533 Co531 2.143 . S
O533 Co532 2.160 . S
C534 O535 1.278 . S
C534 O542 1.224 . S
O535 C534 1.278 . S
C536 O537 1.245 . S
C536 O548 1.232 . S
O537 C536 1.245 . S
O538 Co532 2.058 . S
O538 C564 1.269 . S
O539 Co531 2.074 . S
O539 C564 1.257 . S
H540 C565 0.930 . S
H541 C571 0.930 . S
O542 Co531 2.093 . S
O542 C534 1.224 . S
H543 C575 0.929 . S
H544 C577 0.930 . S
H545 C578 0.930 . S
H546 C576 0.929 . S
H547 C579 0.928 . S
O548 Co532 2.057 . S
O548 C536 1.232 . S
H549 C568 0.929 . S
H550 C569 0.929 . S
H551 C581 0.931 . S
H552 C573 0.929 . S
H553 C582 0.930 . S
H554 C574 0.931 . S
O555 Co531 2.097 . S
O555 C583 1.214 . S
H556 C584 0.929 . S
H557 C585 0.929 . S
H558 C586 0.930 . S
H559 C587 0.929 . S
H560 C589 0.930 . S
H561 C566 0.930 . S
H562 C570 0.930 . S
O563 Co532 2.037 . S
O563 C583 1.234 . S
C564 O538 1.269 . S
C564 O539 1.257 . S
C565 H540 0.930 . S
C565 C568 1.388 . S
C565 C570 1.418 . S
C566 H561 0.930 . S
C566 C569 1.404 . S
C566 C570 1.353 . S
N567 Co532 2.145 . S
N567 C568 1.397 . S
N567 C569 1.334 . S
C568 H549 0.929 . S
C568 C565 1.388 . S
C568 N567 1.397 . S
C569 H550 0.929 . S
C569 C566 1.404 . S
C569 N567 1.334 . S
C570 H562 0.930 . S
C570 C565 1.418 . S
C570 C566 1.353 . S
C571 H541 0.930 . S
C571 N572 1.330 . S
C571 C573 1.446 . S
N572 Co531 2.151 . S
N572 C571 1.330 . S
N572 C576 1.418 . S
C573 H552 0.929 . S
C573 C571 1.446 . S
C573 C574 1.332 . S
C574 H554 0.931 . S
C574 C573 1.332 . S
C574 C575 1.267 . S
C575 H543 0.929 . S
C575 C574 1.267 . S
C575 C576 1.251 . S
C576 H546 0.929 . S
C576 N572 1.418 . S
C576 C575 1.251 . S
C577 H544 0.930 . S
C577 C579 1.406 . S
C577 C582 1.261 . S
C578 H545 0.930 . S
C578 N580 1.325 . S
C578 C581 1.357 . S
C579 H547 0.928 . S
C579 C577 1.406 . S
C579 N580 1.261 . S
N580 Co531 2.214 . S
N580 C578 1.325 . S
N580 C579 1.261 . S
C581 H551 0.931 . S
C581 C578 1.357 . S
C581 C582 1.312 . S
C582 H553 0.930 . S
C582 C577 1.261 . S
C582 C581 1.312 . S
C583 O555 1.214 . S
C583 O563 1.234 . S
C584 H556 0.929 . S
C584 C587 1.391 . S
C584 C589 1.391 . S
C585 H557 0.929 . S
C585 C586 1.390 . S
C585 N588 1.391 . S
C586 H558 0.930 . S
C586 C585 1.390 . S
C586 C587 1.392 . S
C587 H559 0.929 . S
C587 C584 1.391 . S
C587 C586 1.392 . S
N588 Co532 2.257 . S
N588 C585 1.391 . S
N588 C589 1.388 . S
C589 H560 0.930 . S
C589 C584 1.391 . S
C589 N588 1.388 . S
Co590 O592 2.143 . S
Co590 O598 2.074 . S
Co590 O601 2.093 . S
Co590 O614 2.097 . S
Co590 N631 2.151 . S
Co590 N639 2.214 . S
Co591 O592 2.160 . S
Co591 O597 2.058 . S
Co591 O607 2.057 . S
Co591 O622 2.037 . S
Co591 N626 2.145 . S
Co591 N647 2.257 . S
O592 Co590 2.143 . S
O592 Co591 2.160 . S
C593 O594 1.278 . S
C593 O601 1.224 . S
O594 C593 1.278 . S
C595 O596 1.245 . S
C595 O607 1.232 . S
O596 C595 1.245 . S
O597 Co591 2.058 . S
O597 C623 1.269 . S
O598 Co590 2.074 . S
O598 C623 1.257 . S
H599 C624 0.930 . S
H600 C630 0.930 . S
O601 Co590 2.093 . S
O601 C593 1.224 . S
H602 C634 0.929 . S
H603 C636 0.930 . S
H604 C637 0.930 . S
H605 C635 0.929 . S
H606 C638 0.928 . S
O607 Co591 2.057 . S
O607 C595 1.232 . S
H608 C627 0.929 . S
H609 C628 0.929 . S
H610 C640 0.931 . S
H611 C632 0.929 . S
H612 C641 0.930 . S
H613 C633 0.931 . S
O614 Co590 2.097 . S
O614 C642 1.214 . S
H615 C643 0.929 . S
H616 C644 0.929 . S
H617 C645 0.930 . S
H618 C646 0.929 . S
H619 C648 0.930 . S
H620 C625 0.930 . S
H621 C629 0.930 . S
O622 Co591 2.037 . S
O622 C642 1.234 . S
C623 O597 1.269 . S
C623 O598 1.257 . S
C624 H599 0.930 . S
C624 C627 1.388 . S
C624 C629 1.418 . S
C625 H620 0.930 . S
C625 C628 1.404 . S
C625 C629 1.353 . S
N626 Co591 2.145 . S
N626 C627 1.397 . S
N626 C628 1.334 . S
C627 H608 0.929 . S
C627 C624 1.388 . S
C627 N626 1.397 . S
C628 H609 0.929 . S
C628 C625 1.404 . S
C628 N626 1.334 . S
C629 H621 0.930 . S
C629 C624 1.418 . S
C629 C625 1.353 . S
C630 H600 0.930 . S
C630 N631 1.330 . S
C630 C632 1.446 . S
N631 Co590 2.151 . S
N631 C630 1.330 . S
N631 C635 1.418 . S
C632 H611 0.929 . S
C632 C630 1.446 . S
C632 C633 1.332 . S
C633 H613 0.931 . S
C633 C632 1.332 . S
C633 C634 1.267 . S
C634 H602 0.929 . S
C634 C633 1.267 . S
C634 C635 1.251 . S
C635 H605 0.929 . S
C635 N631 1.418 . S
C635 C634 1.251 . S
C636 H603 0.930 . S
C636 C638 1.406 . S
C636 C641 1.261 . S
C637 H604 0.930 . S
C637 N639 1.325 . S
C637 C640 1.357 . S
C638 H606 0.928 . S
C638 C636 1.406 . S
C638 N639 1.261 . S
N639 Co590 2.214 . S
N639 C637 1.325 . S
N639 C638 1.261 . S
C640 H610 0.931 . S
C640 C637 1.357 . S
C640 C641 1.312 . S
C641 H612 0.930 . S
C641 C636 1.261 . S
C641 C640 1.312 . S
C642 O614 1.214 . S
C642 O622 1.234 . S
C643 H615 0.929 . S
C643 C646 1.391 . S
C643 C648 1.391 . S
C644 H616 0.929 . S
C644 C645 1.390 . S
C644 N647 1.391 . S
C645 H617 0.930 . S
C645 C644 1.390 . S
C645 C646 1.392 . S
C646 H618 0.929 . S
C646 C643 1.391 . S
C646 C645 1.392 . S
N647 Co591 2.257 . S
N647 C644 1.391 . S
N647 C648 1.388 . S
C648 H619 0.930 . S
C648 C643 1.391 . S
C648 N647 1.388 . S
Co649 O651 2.143 . S
Co649 O657 2.074 . S
Co649 O660 2.093 . S
Co649 O673 2.097 . S
Co649 N690 2.151 . S
Co649 N698 2.214 . S
Co650 O651 2.160 . S
Co650 O656 2.058 . S
Co650 O666 2.057 . S
Co650 O681 2.037 . S
Co650 N685 2.145 . S
Co650 N706 2.257 . S
O651 Co649 2.143 . S
O651 Co650 2.160 . S
C652 O653 1.278 . S
C652 O660 1.224 . S
O653 C652 1.278 . S
C654 O655 1.245 . S
C654 O666 1.232 . S
O655 C654 1.245 . S
O656 Co650 2.058 . S
O656 C682 1.269 . S
O657 Co649 2.074 . S
O657 C682 1.257 . S
H658 C683 0.930 . S
H659 C689 0.930 . S
O660 Co649 2.093 . S
O660 C652 1.224 . S
H661 C693 0.929 . S
H662 C695 0.930 . S
H663 C696 0.930 . S
H664 C694 0.929 . S
H665 C697 0.928 . S
O666 Co650 2.057 . S
O666 C654 1.232 . S
H667 C686 0.929 . S
H668 C687 0.929 . S
H669 C699 0.931 . S
H670 C691 0.929 . S
H671 C700 0.930 . S
H672 C692 0.931 . S
O673 Co649 2.097 . S
O673 C701 1.214 . S
H674 C702 0.929 . S
H675 C703 0.929 . S
H676 C704 0.930 . S
H677 C705 0.929 . S
H678 C707 0.930 . S
H679 C684 0.930 . S
H680 C688 0.930 . S
O681 Co650 2.037 . S
O681 C701 1.234 . S
C682 O656 1.269 . S
C682 O657 1.257 . S
C683 H658 0.930 . S
C683 C686 1.388 . S
C683 C688 1.418 . S
C684 H679 0.930 . S
C684 C687 1.404 . S
C684 C688 1.353 . S
N685 Co650 2.145 . S
N685 C686 1.397 . S
N685 C687 1.334 . S
C686 H667 0.929 . S
C686 C683 1.388 . S
C686 N685 1.397 . S
C687 H668 0.929 . S
C687 C684 1.404 . S
C687 N685 1.334 . S
C688 H680 0.930 . S
C688 C683 1.418 . S
C688 C684 1.353 . S
C689 H659 0.930 . S
C689 N690 1.330 . S
C689 C691 1.446 . S
N690 Co649 2.151 . S
N690 C689 1.330 . S
N690 C694 1.418 . S
C691 H670 0.929 . S
C691 C689 1.446 . S
C691 C692 1.332 . S
C692 H672 0.931 . S
C692 C691 1.332 . S
C692 C693 1.267 . S
C693 H661 0.929 . S
C693 C692 1.267 . S
C693 C694 1.251 . S
C694 H664 0.929 . S
C694 N690 1.418 . S
C694 C693 1.251 . S
C695 H662 0.930 . S
C695 C697 1.406 . S
C695 C700 1.261 . S
C696 H663 0.930 . S
C696 N698 1.325 . S
C696 C699 1.357 . S
C697 H665 0.928 . S
C697 C695 1.406 . S
C697 N698 1.261 . S
N698 Co649 2.214 . S
N698 C696 1.325 . S
N698 C697 1.261 . S
C699 H669 0.931 . S
C699 C696 1.357 . S
C699 C700 1.312 . S
C700 H671 0.930 . S
C700 C695 1.261 . S
C700 C699 1.312 . S
C701 O673 1.214 . S
C701 O681 1.234 . S
C702 H674 0.929 . S
C702 C705 1.391 . S
C702 C707 1.391 . S
C703 H675 0.929 . S
C703 C704 1.390 . S
C703 N706 1.391 . S
C704 H676 0.930 . S
C704 C703 1.390 . S
C704 C705 1.392 . S
C705 H677 0.929 . S
C705 C702 1.391 . S
C705 C704 1.392 . S
N706 Co650 2.257 . S
N706 C703 1.391 . S
N706 C707 1.388 . S
C707 H678 0.930 . S
C707 C702 1.391 . S
C707 N706 1.388 . S
Co708 O710 2.143 . S
Co708 O716 2.074 . S
Co708 O719 2.093 . S
Co708 O732 2.097 . S
Co708 N749 2.151 . S
Co708 N757 2.214 . S
Co709 O710 2.160 . S
Co709 O715 2.058 . S
Co709 O725 2.057 . S
Co709 O740 2.037 . S
Co709 N744 2.145 . S
Co709 N765 2.257 . S
O710 Co708 2.143 . S
O710 Co709 2.160 . S
C711 O712 1.278 . S
C711 O719 1.224 . S
O712 C711 1.278 . S
C713 O714 1.245 . S
C713 O725 1.232 . S
O714 C713 1.245 . S
O715 Co709 2.058 . S
O715 C741 1.269 . S
O716 Co708 2.074 . S
O716 C741 1.257 . S
H717 C742 0.930 . S
H718 C748 0.930 . S
O719 Co708 2.093 . S
O719 C711 1.224 . S
H720 C752 0.929 . S
H721 C754 0.930 . S
H722 C755 0.930 . S
H723 C753 0.929 . S
H724 C756 0.928 . S
O725 Co709 2.057 . S
O725 C713 1.232 . S
H726 C745 0.929 . S
H727 C746 0.929 . S
H728 C758 0.931 . S
H729 C750 0.929 . S
H730 C759 0.930 . S
H731 C751 0.931 . S
O732 Co708 2.097 . S
O732 C760 1.214 . S
H733 C761 0.929 . S
H734 C762 0.929 . S
H735 C763 0.930 . S
H736 C764 0.929 . S
H737 C766 0.930 . S
H738 C743 0.930 . S
H739 C747 0.930 . S
O740 Co709 2.037 . S
O740 C760 1.234 . S
C741 O715 1.269 . S
C741 O716 1.257 . S
C742 H717 0.930 . S
C742 C745 1.388 . S
C742 C747 1.418 . S
C743 H738 0.930 . S
C743 C746 1.404 . S
C743 C747 1.353 . S
N744 Co709 2.145 . S
N744 C745 1.397 . S
N744 C746 1.334 . S
C745 H726 0.929 . S
C745 C742 1.388 . S
C745 N744 1.397 . S
C746 H727 0.929 . S
C746 C743 1.404 . S
C746 N744 1.334 . S
C747 H739 0.930 . S
C747 C742 1.418 . S
C747 C743 1.353 . S
C748 H718 0.930 . S
C748 N749 1.330 . S
C748 C750 1.446 . S
N749 Co708 2.151 . S
N749 C748 1.330 . S
N749 C753 1.418 . S
C750 H729 0.929 . S
C750 C748 1.446 . S
C750 C751 1.332 . S
C751 H731 0.931 . S
C751 C750 1.332 . S
C751 C752 1.267 . S
C752 H720 0.929 . S
C752 C751 1.267 . S
C752 C753 1.251 . S
C753 H723 0.929 . S
C753 N749 1.418 . S
C753 C752 1.251 . S
C754 H721 0.930 . S
C754 C756 1.406 . S
C754 C759 1.261 . S
C755 H722 0.930 . S
C755 N757 1.325 . S
C755 C758 1.357 . S
C756 H724 0.928 . S
C756 C754 1.406 . S
C756 N757 1.261 . S
N757 Co708 2.214 . S
N757 C755 1.325 . S
N757 C756 1.261 . S
C758 H728 0.931 . S
C758 C755 1.357 . S
C758 C759 1.312 . S
C759 H730 0.930 . S
C759 C754 1.261 . S
C759 C758 1.312 . S
C760 O732 1.214 . S
C760 O740 1.234 . S
C761 H733 0.929 . S
C761 C764 1.391 . S
C761 C766 1.391 . S
C762 H734 0.929 . S
C762 C763 1.390 . S
C762 N765 1.391 . S
C763 H735 0.930 . S
C763 C762 1.390 . S
C763 C764 1.392 . S
C764 H736 0.929 . S
C764 C761 1.391 . S
C764 C763 1.392 . S
N765 Co709 2.257 . S
N765 C762 1.391 . S
N765 C766 1.388 . S
C766 H737 0.930 . S
C766 C761 1.391 . S
C766 N765 1.388 . S
Co767 O769 2.143 . S
Co767 O775 2.074 . S
Co767 O778 2.093 . S
Co767 O791 2.097 . S
Co767 N808 2.151 . S
Co767 N816 2.214 . S
Co768 O769 2.160 . S
Co768 O774 2.058 . S
Co768 O784 2.057 . S
Co768 O799 2.037 . S
Co768 N803 2.145 . S
Co768 N824 2.257 . S
O769 Co767 2.143 . S
O769 Co768 2.160 . S
C770 O771 1.278 . S
C770 O778 1.224 . S
O771 C770 1.278 . S
C772 O773 1.245 . S
C772 O784 1.232 . S
O773 C772 1.245 . S
O774 Co768 2.058 . S
O774 C800 1.269 . S
O775 Co767 2.074 . S
O775 C800 1.257 . S
H776 C801 0.930 . S
H777 C807 0.930 . S
O778 Co767 2.093 . S
O778 C770 1.224 . S
H779 C811 0.929 . S
H780 C813 0.930 . S
H781 C814 0.930 . S
H782 C812 0.929 . S
H783 C815 0.928 . S
O784 Co768 2.057 . S
O784 C772 1.232 . S
H785 C804 0.929 . S
H786 C805 0.929 . S
H787 C817 0.931 . S
H788 C809 0.929 . S
H789 C818 0.930 . S
H790 C810 0.931 . S
O791 Co767 2.097 . S
O791 C819 1.214 . S
H792 C820 0.929 . S
H793 C821 0.929 . S
H794 C822 0.930 . S
H795 C823 0.929 . S
H796 C825 0.930 . S
H797 C802 0.930 . S
H798 C806 0.930 . S
O799 Co768 2.037 . S
O799 C819 1.234 . S
C800 O774 1.269 . S
C800 O775 1.257 . S
C801 H776 0.930 . S
C801 C804 1.388 . S
C801 C806 1.418 . S
C802 H797 0.930 . S
C802 C805 1.404 . S
C802 C806 1.353 . S
N803 Co768 2.145 . S
N803 C804 1.397 . S
N803 C805 1.334 . S
C804 H785 0.929 . S
C804 C801 1.388 . S
C804 N803 1.397 . S
C805 H786 0.929 . S
C805 C802 1.404 . S
C805 N803 1.334 . S
C806 H798 0.930 . S
C806 C801 1.418 . S
C806 C802 1.353 . S
C807 H777 0.930 . S
C807 N808 1.330 . S
C807 C809 1.446 . S
N808 Co767 2.151 . S
N808 C807 1.330 . S
N808 C812 1.418 . S
C809 H788 0.929 . S
C809 C807 1.446 . S
C809 C810 1.332 . S
C810 H790 0.931 . S
C810 C809 1.332 . S
C810 C811 1.267 . S
C811 H779 0.929 . S
C811 C810 1.267 . S
C811 C812 1.251 . S
C812 H782 0.929 . S
C812 N808 1.418 . S
C812 C811 1.251 . S
C813 H780 0.930 . S
C813 C815 1.406 . S
C813 C818 1.261 . S
C814 H781 0.930 . S
C814 N816 1.325 . S
C814 C817 1.357 . S
C815 H783 0.928 . S
C815 C813 1.406 . S
C815 N816 1.261 . S
N816 Co767 2.214 . S
N816 C814 1.325 . S
N816 C815 1.261 . S
C817 H787 0.931 . S
C817 C814 1.357 . S
C817 C818 1.312 . S
C818 H789 0.930 . S
C818 C813 1.261 . S
C818 C817 1.312 . S
C819 O791 1.214 . S
C819 O799 1.234 . S
C820 H792 0.929 . S
C820 C823 1.391 . S
C820 C825 1.391 . S
C821 H793 0.929 . S
C821 C822 1.390 . S
C821 N824 1.391 . S
C822 H794 0.930 . S
C822 C821 1.390 . S
C822 C823 1.392 . S
C823 H795 0.929 . S
C823 C820 1.391 . S
C823 C822 1.392 . S
N824 Co768 2.257 . S
N824 C821 1.391 . S
N824 C825 1.388 . S
C825 H796 0.930 . S
C825 C820 1.391 . S
C825 N824 1.388 . S
Co826 O828 2.143 . S
Co826 O834 2.074 . S
Co826 O837 2.093 . S
Co826 O850 2.097 . S
Co826 N867 2.151 . S
Co826 N875 2.214 . S
Co827 O828 2.160 . S
Co827 O833 2.058 . S
Co827 O843 2.057 . S
Co827 O858 2.037 . S
Co827 N862 2.145 . S
Co827 N883 2.257 . S
O828 Co826 2.143 . S
O828 Co827 2.160 . S
C829 O830 1.278 . S
C829 O837 1.224 . S
O830 C829 1.278 . S
C831 O832 1.245 . S
C831 O843 1.232 . S
O832 C831 1.245 . S
O833 Co827 2.058 . S
O833 C859 1.269 . S
O834 Co826 2.074 . S
O834 C859 1.257 . S
H835 C860 0.930 . S
H836 C866 0.930 . S
O837 Co826 2.093 . S
O837 C829 1.224 . S
H838 C870 0.929 . S
H839 C872 0.930 . S
H840 C873 0.930 . S
H841 C871 0.929 . S
H842 C874 0.928 . S
O843 Co827 2.057 . S
O843 C831 1.232 . S
H844 C863 0.929 . S
H845 C864 0.929 . S
H846 C876 0.931 . S
H847 C868 0.929 . S
H848 C877 0.930 . S
H849 C869 0.931 . S
O850 Co826 2.097 . S
O850 C878 1.214 . S
H851 C879 0.929 . S
H852 C880 0.929 . S
H853 C881 0.930 . S
H854 C882 0.929 . S
H855 C884 0.930 . S
H856 C861 0.930 . S
H857 C865 0.930 . S
O858 Co827 2.037 . S
O858 C878 1.234 . S
C859 O833 1.269 . S
C859 O834 1.257 . S
C860 H835 0.930 . S
C860 C863 1.388 . S
C860 C865 1.418 . S
C861 H856 0.930 . S
C861 C864 1.404 . S
C861 C865 1.353 . S
N862 Co827 2.145 . S
N862 C863 1.397 . S
N862 C864 1.334 . S
C863 H844 0.929 . S
C863 C860 1.388 . S
C863 N862 1.397 . S
C864 H845 0.929 . S
C864 C861 1.404 . S
C864 N862 1.334 . S
C865 H857 0.930 . S
C865 C860 1.418 . S
C865 C861 1.353 . S
C866 H836 0.930 . S
C866 N867 1.330 . S
C866 C868 1.446 . S
N867 Co826 2.151 . S
N867 C866 1.330 . S
N867 C871 1.418 . S
C868 H847 0.929 . S
C868 C866 1.446 . S
C868 C869 1.332 . S
C869 H849 0.931 . S
C869 C868 1.332 . S
C869 C870 1.267 . S
C870 H838 0.929 . S
C870 C869 1.267 . S
C870 C871 1.251 . S
C871 H841 0.929 . S
C871 N867 1.418 . S
C871 C870 1.251 . S
C872 H839 0.930 . S
C872 C874 1.406 . S
C872 C877 1.261 . S
C873 H840 0.930 . S
C873 N875 1.325 . S
C873 C876 1.357 . S
C874 H842 0.928 . S
C874 C872 1.406 . S
C874 N875 1.261 . S
N875 Co826 2.214 . S
N875 C873 1.325 . S
N875 C874 1.261 . S
C876 H846 0.931 . S
C876 C873 1.357 . S
C876 C877 1.312 . S
C877 H848 0.930 . S
C877 C872 1.261 . S
C877 C876 1.312 . S
C878 O850 1.214 . S
C878 O858 1.234 . S
C879 H851 0.929 . S
C879 C882 1.391 . S
C879 C884 1.391 . S
C880 H852 0.929 . S
C880 C881 1.390 . S
C880 N883 1.391 . S
C881 H853 0.930 . S
C881 C880 1.390 . S
C881 C882 1.392 . S
C882 H854 0.929 . S
C882 C879 1.391 . S
C882 C881 1.392 . S
N883 Co827 2.257 . S
N883 C880 1.391 . S
N883 C884 1.388 . S
C884 H855 0.930 . S
C884 C879 1.391 . S
C884 N883 1.388 . S
Co885 O887 2.143 . S
Co885 O893 2.074 . S
Co885 O896 2.093 . S
Co885 O909 2.097 . S
Co885 N926 2.151 . S
Co885 N934 2.214 . S
Co886 O887 2.160 . S
Co886 O892 2.058 . S
Co886 O902 2.057 . S
Co886 O917 2.037 . S
Co886 N921 2.145 . S
Co886 N942 2.257 . S
O887 Co885 2.143 . S
O887 Co886 2.160 . S
C888 O889 1.278 . S
C888 O896 1.224 . S
O889 C888 1.278 . S
C890 O891 1.245 . S
C890 O902 1.232 . S
O891 C890 1.245 . S
O892 Co886 2.058 . S
O892 C918 1.269 . S
O893 Co885 2.074 . S
O893 C918 1.257 . S
H894 C919 0.930 . S
H895 C925 0.930 . S
O896 Co885 2.093 . S
O896 C888 1.224 . S
H897 C929 0.929 . S
H898 C931 0.930 . S
H899 C932 0.930 . S
H900 C930 0.929 . S
H901 C933 0.928 . S
O902 Co886 2.057 . S
O902 C890 1.232 . S
H903 C922 0.929 . S
H904 C923 0.929 . S
H905 C935 0.931 . S
H906 C927 0.929 . S
H907 C936 0.930 . S
H908 C928 0.931 . S
O909 Co885 2.097 . S
O909 C937 1.214 . S
H910 C938 0.929 . S
H911 C939 0.929 . S
H912 C940 0.930 . S
H913 C941 0.929 . S
H914 C943 0.930 . S
H915 C920 0.930 . S
H916 C924 0.930 . S
O917 Co886 2.037 . S
O917 C937 1.234 . S
C918 O892 1.269 . S
C918 O893 1.257 . S
C919 H894 0.930 . S
C919 C922 1.388 . S
C919 C924 1.418 . S
C920 H915 0.930 . S
C920 C923 1.404 . S
C920 C924 1.353 . S
N921 Co886 2.145 . S
N921 C922 1.397 . S
N921 C923 1.334 . S
C922 H903 0.929 . S
C922 C919 1.388 . S
C922 N921 1.397 . S
C923 H904 0.929 . S
C923 C920 1.404 . S
C923 N921 1.334 . S
C924 H916 0.930 . S
C924 C919 1.418 . S
C924 C920 1.353 . S
C925 H895 0.930 . S
C925 N926 1.330 . S
C925 C927 1.446 . S
N926 Co885 2.151 . S
N926 C925 1.330 . S
N926 C930 1.418 . S
C927 H906 0.929 . S
C927 C925 1.446 . S
C927 C928 1.332 . S
C928 H908 0.931 . S
C928 C927 1.332 . S
C928 C929 1.267 . S
C929 H897 0.929 . S
C929 C928 1.267 . S
C929 C930 1.251 . S
C930 H900 0.929 . S
C930 N926 1.418 . S
C930 C929 1.251 . S
C931 H898 0.930 . S
C931 C933 1.406 . S
C931 C936 1.261 . S
C932 H899 0.930 . S
C932 N934 1.325 . S
C932 C935 1.357 . S
C933 H901 0.928 . S
C933 C931 1.406 . S
C933 N934 1.261 . S
N934 Co885 2.214 . S
N934 C932 1.325 . S
N934 C933 1.261 . S
C935 H905 0.931 . S
C935 C932 1.357 . S
C935 C936 1.312 . S
C936 H907 0.930 . S
C936 C931 1.261 . S
C936 C935 1.312 . S
C937 O909 1.214 . S
C937 O917 1.234 . S
C938 H910 0.929 . S
C938 C941 1.391 . S
C938 C943 1.391 . S
C939 H911 0.929 . S
C939 C940 1.390 . S
C939 N942 1.391 . S
C940 H912 0.930 . S
C940 C939 1.390 . S
C940 C941 1.392 . S
C941 H913 0.929 . S
C941 C938 1.391 . S
C941 C940 1.392 . S
N942 Co886 2.257 . S
N942 C939 1.391 . S
N942 C943 1.388 . S
C943 H914 0.930 . S
C943 C938 1.391 . S
C943 N942 1.388 . S
H944 C952 0.948 . S
H945 C954 0.942 . S
H946 C956 0.930 . S
H947 C959 0.929 . S
H948 C962 0.930 . S
H949 C964 0.960 . S
H950 C964 0.960 1_565 S
H951 C964 0.960 . S
C952 H944 0.948 . S
C952 C953 1.377 . S
C952 C954 1.384 . S
C953 C952 1.377 . S
C953 C959 1.390 . S
C954 H945 0.942 . S
C954 C952 1.384 . S
C954 C955 1.372 . S
C955 C954 1.372 . S
C955 C956 1.400 . S
C955 C960 1.490 . S
C956 H946 0.930 . S
C956 C955 1.400 . S
C956 C959 1.386 . S
H957 C973 0.930 . S
H958 C974 0.931 . S
C959 H947 0.929 . S
C959 C953 1.390 . S
C959 C956 1.386 . S
C960 C955 1.490 . S
C960 C962 1.395 . S
C960 C963 1.403 . S
H961 C967 0.930 . S
C962 H948 0.930 . S
C962 C960 1.395 . S
C962 C965 1.403 . S
C963 C960 1.403 . S
C963 C964 1.524 . S
C963 C967 1.400 . S
C964 H949 0.960 . S
C964 H950 0.960 1_545 S
C964 H951 0.960 . S
C964 C963 1.524 . S
C965 C962 1.403 . S
C965 C966 1.392 . S
C965 C969 1.495 . S
C966 C965 1.392 . S
C966 C967 1.385 . S
C966 C968 1.478 . S
C967 H961 0.930 . S
C967 C963 1.400 . S
C967 C966 1.385 . S
C968 C966 1.478 . S
C968 C970 1.381 . S
C968 C974 1.383 . S
C969 C965 1.495 . S
C969 H975 0.959 . S
C969 H976 0.961 . S
C969 H977 0.960 . S
C970 C968 1.381 . S
C970 C971 1.394 . S
C970 H978 0.933 1_545 S
C971 C970 1.394 . S
C971 C972 1.383 . S
C971 H979 0.929 1_545 S
C972 C971 1.383 . S
C972 C973 1.377 . S
C973 H957 0.930 . S
C973 C972 1.377 . S
C973 C974 1.379 . S
C974 H958 0.931 . S
C974 C968 1.383 . S
C974 C973 1.379 . S
H975 C969 0.959 . S
H976 C969 0.961 . S
H977 C969 0.960 . S
H978 C970 0.933 1_565 S
H979 C971 0.929 1_565 S
H980 C988 0.929 1_545 S
H981 C990 0.930 1_545 S
H982 C992 0.930 . S
H983 C995 0.929 . S
H984 C998 0.932 . S
H985 C1000 0.960 . S
H986 C1000 0.960 . S
H987 C1000 0.960 . S
C988 H980 0.929 1_565 S
C988 C989 1.377 . S
C988 C990 1.384 . S
C989 C988 1.377 . S
C989 C995 1.390 . S
C990 H981 0.930 1_565 S
C990 C988 1.384 . S
C990 C991 1.372 . S
C991 C990 1.372 . S
C991 C992 1.400 . S
C991 C996 1.490 . S
C992 H982 0.930 . S
C992 C991 1.400 . S
C992 C995 1.386 . S
H993 C1009 0.930 . S
H994 C1010 0.931 . S
C995 H983 0.929 . S
C995 C989 1.390 . S
C995 C992 1.386 . S
C996 C991 1.490 . S
C996 C998 1.395 . S
C996 C999 1.403 . S
H997 C1003 0.930 . S
C998 H984 0.932 . S
C998 C996 1.395 . S
C998 C1001 1.403 . S
C999 C996 1.403 . S
C999 C1000 1.524 . S
C999 C1003 1.400 . S
C1000 H985 0.960 . S
C1000 H986 0.960 . S
C1000 H987 0.960 . S
C1000 C999 1.524 . S
C1001 C998 1.403 . S
C1001 C1002 1.392 . S
C1001 C1005 1.495 1_565 S
C1002 C1001 1.392 . S
C1002 C1003 1.385 . S
C1002 C1004 1.478 . S
C1003 H997 0.930 . S
C1003 C999 1.400 . S
C1003 C1002 1.385 . S
C1004 C1002 1.478 . S
C1004 C1006 1.381 . S
C1004 C1010 1.383 . S
C1005 C1001 1.495 1_545 S
C1005 H1011 0.959 . S
C1005 H1012 0.961 1_545 S
C1005 H1013 0.960 . S
C1006 C1004 1.381 . S
C1006 C1007 1.394 . S
C1006 H1014 0.930 1_565 S
C1007 C1006 1.394 . S
C1007 C1008 1.383 . S
C1007 H1015 0.929 1_565 S
C1008 C1007 1.383 . S
C1008 C1009 1.377 . S
C1009 H993 0.930 . S
C1009 C1008 1.377 . S
C1009 C1010 1.379 . S
C1010 H994 0.931 . S
C1010 C1004 1.383 . S
C1010 C1009 1.379 . S
H1011 C1005 0.959 . S
H1012 C1005 0.961 1_565 S
H1013 C1005 0.960 . S
H1014 C1006 0.930 1_545 S
H1015 C1007 0.929 1_545 S
H1016 C1024 0.929 . S
H1017 C1026 0.930 . S
H1018 C1028 0.950 . S
H1019 C1031 0.941 . S
H1020 C1034 0.930 . S
H1021 C1036 0.960 . S
H1022 C1036 0.960 . S
H1023 C1036 0.960 . S
C1024 H1016 0.929 . S
C1024 C1025 1.377 . S
C1024 C1026 1.384 . S
C1025 C1024 1.377 . S
C1025 C1031 1.390 . S
C1026 H1017 0.930 . S
C1026 C1024 1.384 . S
C1026 C1027 1.372 . S
C1027 C1026 1.372 . S
C1027 C1028 1.400 . S
C1027 C1032 1.490 . S
C1028 H1018 0.950 . S
C1028 C1027 1.400 . S
C1028 C1031 1.386 . S
H1029 C1045 0.930 . S
H1030 C1046 0.931 . S
C1031 H1019 0.941 . S
C1031 C1025 1.390 . S
C1031 C1028 1.386 . S
C1032 C1027 1.490 . S
C1032 C1034 1.395 . S
C1032 C1035 1.403 . S
H1033 C1039 0.930 1_545 S
C1034 H1020 0.930 . S
C1034 C1032 1.395 . S
C1034 C1037 1.403 1_554 S
C1035 C1032 1.403 . S
C1035 C1036 1.524 1_565 S
C1035 C1039 1.400 1_554 S
C1036 H1021 0.960 . S
C1036 H1022 0.960 . S
C1036 H1023 0.960 . S
C1036 C1035 1.524 1_545 S
C1037 C1034 1.403 1_556 S
C1037 C1038 1.392 . S
C1037 C1041 1.495 . S
C1038 C1037 1.392 . S
C1038 C1039 1.385 . S
C1038 C1040 1.478 . S
C1039 H1033 0.930 1_565 S
C1039 C1035 1.400 1_556 S
C1039 C1038 1.385 . S
C1040 C1038 1.478 . S
C1040 C1042 1.381 . S
C1040 C1046 1.383 . S
C1041 C1037 1.495 . S
C1041 H1047 0.959 . S
C1041 H1048 0.961 . S
C1041 H1049 0.960 . S
C1042 C1040 1.381 . S
C1042 C1043 1.394 . S
C1042 H1050 0.930 . S
C1043 C1042 1.394 . S
C1043 C1044 1.383 . S
C1043 H1051 0.929 . S
C1044 C1043 1.383 . S
C1044 C1045 1.377 . S
C1045 H1029 0.930 . S
C1045 C1044 1.377 . S
C1045 C1046 1.379 . S
C1046 H1030 0.931 . S
C1046 C1040 1.383 . S
C1046 C1045 1.379 . S
H1047 C1041 0.959 . S
H1048 C1041 0.961 . S
H1049 C1041 0.960 . S
H1050 C1042 0.930 . S
H1051 C1043 0.929 . S
H1052 C1060 0.929 1_565 S
H1053 C1062 0.930 1_565 S
H1054 C1064 0.930 . S
H1055 C1067 0.929 . S
H1056 C1070 0.930 . S
H1057 C1072 0.960 . S
H1058 C1072 0.960 . S
H1059 C1072 0.960 . S
C1060 H1052 0.929 1_545 S
C1060 C1061 1.377 . S
C1060 C1062 1.384 . S
C1061 C1060 1.377 . S
C1061 C1067 1.390 . S
C1062 H1053 0.930 1_545 S
C1062 C1060 1.384 . S
C1062 C1063 1.372 . S
C1063 C1062 1.372 . S
C1063 C1064 1.400 . S
C1063 C1068 1.490 . S
C1064 H1054 0.930 . S
C1064 C1063 1.400 . S
C1064 C1067 1.386 . S
H1065 C1081 0.930 . S
H1066 C1082 0.931 . S
C1067 H1055 0.929 . S
C1067 C1061 1.390 . S
C1067 C1064 1.386 . S
C1068 C1063 1.490 . S
C1068 C1070 1.395 . S
C1068 C1071 1.403 . S
H1069 C1075 0.930 . S
C1070 H1056 0.930 . S
C1070 C1068 1.395 . S
C1070 C1073 1.403 1_556 S
C1071 C1068 1.403 . S
C1071 C1072 1.524 . S
C1071 C1075 1.400 1_556 S
C1072 H1057 0.960 . S
C1072 H1058 0.960 . S
C1072 H1059 0.960 . S
C1072 C1071 1.524 . S
C1073 C1070 1.403 1_554 S
C1073 C1074 1.392 . S
C1073 C1077 1.495 . S
C1074 C1073 1.392 . S
C1074 C1075 1.385 . S
C1074 C1076 1.478 . S
C1075 H1069 0.930 . S
C1075 C1071 1.400 1_554 S
C1075 C1074 1.385 . S
C1076 C1074 1.478 . S
C1076 C1078 1.381 . S
C1076 C1082 1.383 . S
C1077 C1073 1.495 . S
C1077 H1083 0.959 . S
C1077 H1084 0.961 . S
C1077 H1085 0.960 . S
C1078 C1076 1.381 . S
C1078 C1079 1.394 . S
C1078 H1086 0.930 1_545 S
C1079 C1078 1.394 . S
C1079 C1080 1.383 . S
C1079 H1087 0.929 1_545 S
C1080 C1079 1.383 . S
C1080 C1081 1.377 . S
C1081 H1065 0.930 . S
C1081 C1080 1.377 . S
C1081 C1082 1.379 . S
C1082 H1066 0.931 . S
C1082 C1076 1.383 . S
C1082 C1081 1.379 . S
H1083 C1077 0.959 . S
H1084 C1077 0.961 . S
H1085 C1077 0.960 . S
H1086 C1078 0.930 1_565 S
H1087 C1079 0.929 1_565 S
H1088 C1096 0.929 . S
H1089 C1098 0.930 . S
H1090 C1100 0.930 . S
H1091 C1103 0.929 . S
H1092 C1106 0.930 . S
H1093 C1108 0.960 . S
H1094 C1108 0.960 . S
H1095 C1108 0.960 . S
C1096 H1088 0.929 . S
C1096 C1097 1.377 . S
C1096 C1098 1.384 . S
C1097 C1096 1.377 . S
C1097 C1103 1.390 . S
C1098 H1089 0.930 . S
C1098 C1096 1.384 . S
C1098 C1099 1.372 . S
C1099 C1098 1.372 . S
C1099 C1100 1.400 . S
C1099 C1104 1.490 . S
C1100 H1090 0.930 . S
C1100 C1099 1.400 . S
C1100 C1103 1.386 . S
H1101 C1117 0.930 . S
H1102 C1118 0.931 . S
C1103 H1091 0.929 . S
C1103 C1097 1.390 . S
C1103 C1100 1.386 . S
C1104 C1099 1.490 . S
C1104 C1106 1.395 . S
C1104 C1107 1.403 . S
H1105 C1111 0.930 . S
C1106 H1092 0.930 . S
C1106 C1104 1.395 . S
C1106 C1109 1.403 . S
C1107 C1104 1.403 . S
C1107 C1108 1.524 . S
C1107 C1111 1.400 . S
C1108 H1093 0.960 . S
C1108 H1094 0.960 . S
C1108 H1095 0.960 . S
C1108 C1107 1.524 . S
C1109 C1106 1.403 . S
C1109 C1110 1.392 . S
C1109 C1113 1.495 . S
C1110 C1109 1.392 . S
C1110 C1111 1.385 . S
C1110 C1112 1.478 . S
C1111 H1105 0.930 . S
C1111 C1107 1.400 . S
C1111 C1110 1.385 . S
C1112 C1110 1.478 . S
C1112 C1114 1.381 . S
C1112 C1118 1.383 . S
C1113 C1109 1.495 . S
C1113 H1119 0.959 . S
C1113 H1120 0.961 . S
C1113 H1121 0.960 . S
C1114 C1112 1.381 . S
C1114 C1115 1.394 . S
C1114 H1122 0.930 . S
C1115 C1114 1.394 . S
C1115 C1116 1.383 . S
C1115 H1123 0.929 . S
C1116 C1115 1.383 . S
C1116 C1117 1.377 . S
C1117 H1101 0.930 . S
C1117 C1116 1.377 . S
C1117 C1118 1.379 . S
C1118 H1102 0.931 . S
C1118 C1112 1.383 . S
C1118 C1117 1.379 . S
H1119 C1113 0.959 . S
H1120 C1113 0.961 . S
H1121 C1113 0.960 . S
H1122 C1114 0.930 . S
H1123 C1115 0.929 . S
H1124 C1132 0.929 . S
H1125 C1134 0.930 . S
H1126 C1136 0.930 . S
H1127 C1139 0.929 . S
H1128 C1142 0.930 . S
H1129 C1144 0.960 . S
H1130 C1144 0.960 . S
H1131 C1144 0.960 . S
C1132 H1124 0.929 . S
C1132 C1133 1.377 . S
C1132 C1134 1.384 . S
C1133 C1132 1.377 . S
C1133 C1139 1.390 . S
C1134 H1125 0.930 . S
C1134 C1132 1.384 . S
C1134 C1135 1.372 . S
C1135 C1134 1.372 . S
C1135 C1136 1.400 . S
C1135 C1140 1.490 . S
C1136 H1126 0.930 . S
C1136 C1135 1.400 . S
C1136 C1139 1.386 . S
H1137 C1153 0.930 . S
H1138 C1154 0.931 . S
C1139 H1127 0.929 . S
C1139 C1133 1.390 . S
C1139 C1136 1.386 . S
C1140 C1135 1.490 . S
C1140 C1142 1.395 . S
C1140 C1143 1.403 . S
H1141 C1147 0.930 . S
C1142 H1128 0.930 . S
C1142 C1140 1.395 . S
C1142 C1145 1.403 . S
C1143 C1140 1.403 . S
C1143 C1144 1.524 . S
C1143 C1147 1.400 . S
C1144 H1129 0.960 . S
C1144 H1130 0.960 . S
C1144 H1131 0.960 . S
C1144 C1143 1.524 . S
C1145 C1142 1.403 . S
C1145 C1146 1.392 . S
C1145 C1149 1.495 . S
C1146 C1145 1.392 . S
C1146 C1147 1.385 . S
C1146 C1148 1.478 . S
C1147 H1141 0.930 . S
C1147 C1143 1.400 . S
C1147 C1146 1.385 . S
C1148 C1146 1.478 . S
C1148 C1150 1.381 . S
C1148 C1154 1.383 . S
C1149 C1145 1.495 . S
C1149 H1155 0.959 . S
C1149 H1156 0.961 . S
C1149 H1157 0.960 . S
C1150 C1148 1.381 . S
C1150 C1151 1.394 . S
C1150 H1158 0.930 . S
C1151 C1150 1.394 . S
C1151 C1152 1.383 . S
C1151 H1159 0.929 . S
C1152 C1151 1.383 . S
C1152 C1153 1.377 . S
C1153 H1137 0.930 . S
C1153 C1152 1.377 . S
C1153 C1154 1.379 . S
C1154 H1138 0.931 . S
C1154 C1148 1.383 . S
C1154 C1153 1.379 . S
H1155 C1149 0.959 . S
H1156 C1149 0.961 . S
H1157 C1149 0.960 . S
H1158 C1150 0.930 . S
H1159 C1151 0.929 . S
H1160 C1168 0.929 . S
H1161 C1170 0.930 . S
H1162 C1172 0.930 . S
H1163 C1175 0.929 . S
H1164 C1178 0.930 . S
H1165 C1180 0.960 . S
H1166 C1180 0.960 . S
H1167 C1180 0.960 . S
C1168 H1160 0.929 . S
C1168 C1169 1.377 . S
C1168 C1170 1.384 . S
C1169 C1168 1.377 . S
C1169 C1175 1.390 . S
C1170 H1161 0.930 . S
C1170 C1168 1.384 . S
C1170 C1171 1.372 . S
C1171 C1170 1.372 . S
C1171 C1172 1.400 . S
C1171 C1176 1.490 . S
C1172 H1162 0.930 . S
C1172 C1171 1.400 . S
C1172 C1175 1.386 . S
H1173 C1189 0.930 . S
H1174 C1190 0.931 . S
C1175 H1163 0.929 . S
C1175 C1169 1.390 . S
C1175 C1172 1.386 . S
C1176 C1171 1.490 . S
C1176 C1178 1.395 . S
C1176 C1179 1.403 . S
H1177 C1183 0.930 . S
C1178 H1164 0.930 . S
C1178 C1176 1.395 . S
C1178 C1181 1.403 1_556 S
C1179 C1176 1.403 . S
C1179 C1180 1.524 . S
C1179 C1183 1.400 1_556 S
C1180 H1165 0.960 . S
C1180 H1166 0.960 . S
C1180 H1167 0.960 . S
C1180 C1179 1.524 . S
C1181 C1178 1.403 1_554 S
C1181 C1182 1.392 . S
C1181 C1185 1.495 . S
C1182 C1181 1.392 . S
C1182 C1183 1.385 . S
C1182 C1184 1.478 . S
C1183 H1177 0.930 . S
C1183 C1179 1.400 1_554 S
C1183 C1182 1.385 . S
C1184 C1182 1.478 . S
C1184 C1186 1.381 . S
C1184 C1190 1.383 . S
C1185 C1181 1.495 . S
C1185 H1191 0.959 . S
C1185 H1192 0.961 . S
C1185 H1193 0.960 . S
C1186 C1184 1.381 . S
C1186 C1187 1.394 . S
C1186 H1194 0.930 . S
C1187 C1186 1.394 . S
C1187 C1188 1.383 . S
C1187 H1195 0.929 . S
C1188 C1187 1.383 . S
C1188 C1189 1.377 . S
C1189 H1173 0.930 . S
C1189 C1188 1.377 . S
C1189 C1190 1.379 . S
C1190 H1174 0.931 . S
C1190 C1184 1.383 . S
C1190 C1189 1.379 . S
H1191 C1185 0.959 . S
H1192 C1185 0.961 . S
H1193 C1185 0.960 . S
H1194 C1186 0.930 . S
H1195 C1187 0.929 . S
H1196 C1204 0.929 . S
H1197 C1206 0.930 . S
H1198 C1208 0.930 . S
H1199 C1211 0.929 . S
H1200 C1214 0.930 . S
H1201 C1216 0.960 . S
H1202 C1216 0.960 . S
H1203 C1216 0.960 . S
C1204 H1196 0.929 . S
C1204 C1205 1.377 . S
C1204 C1206 1.384 . S
C1205 C1204 1.377 . S
C1205 C1211 1.390 . S
C1206 H1197 0.930 . S
C1206 C1204 1.384 . S
C1206 C1207 1.372 . S
C1207 C1206 1.372 . S
C1207 C1208 1.400 . S
C1207 C1212 1.490 . S
C1208 H1198 0.930 . S
C1208 C1207 1.400 . S
C1208 C1211 1.386 . S
H1209 C1225 0.930 . S
H1210 C1226 0.931 . S
C1211 H1199 0.929 . S
C1211 C1205 1.390 . S
C1211 C1208 1.386 . S
C1212 C1207 1.490 . S
C1212 C1214 1.395 . S
C1212 C1215 1.403 . S
H1213 C1219 0.930 . S
C1214 H1200 0.930 . S
C1214 C1212 1.395 . S
C1214 C1217 1.403 1_554 S
C1215 C1212 1.403 . S
C1215 C1216 1.524 . S
C1215 C1219 1.400 1_554 S
C1216 H1201 0.960 . S
C1216 H1202 0.960 . S
C1216 H1203 0.960 . S
C1216 C1215 1.524 . S
C1217 C1214 1.403 1_556 S
C1217 C1218 1.392 . S
C1217 C1221 1.495 . S
C1218 C1217 1.392 . S
C1218 C1219 1.385 . S
C1218 C1220 1.478 . S
C1219 H1213 0.930 . S
C1219 C1215 1.400 1_556 S
C1219 C1218 1.385 . S
C1220 C1218 1.478 . S
C1220 C1222 1.381 . S
C1220 C1226 1.383 . S
C1221 C1217 1.495 . S
C1221 H1227 0.959 . S
C1221 H1228 0.961 . S
C1221 H1229 0.960 . S
C1222 C1220 1.381 . S
C1222 C1223 1.394 . S
C1222 H1230 0.930 . S
C1223 C1222 1.394 . S
C1223 C1224 1.383 . S
C1223 H1231 0.929 . S
C1224 C1223 1.383 . S
C1224 C1225 1.377 . S
C1225 H1209 0.930 . S
C1225 C1224 1.377 . S
C1225 C1226 1.379 . S
C1226 H1210 0.931 . S
C1226 C1220 1.383 . S
C1226 C1225 1.379 . S
H1227 C1221 0.959 . S
H1228 C1221 0.961 . S
H1229 C1221 0.960 . S
H1230 C1222 0.930 . S
H1231 C1223 0.929 . S
H1232 C1240 0.907 1_545 S
H1233 C1242 0.930 . S
H1234 C1244 0.930 . S
H1235 C1247 0.929 . S
H1236 C1250 0.930 . S
H1237 C1252 0.960 . S
H1238 C1252 0.960 . S
H1239 C1252 0.960 . S
C1240 H1232 0.907 1_565 S
C1240 C1241 1.407 . S
C1240 C1242 1.376 1_565 S
C1241 C1240 1.407 . S
C1241 C1247 1.390 . S
C1242 H1233 0.930 . S
C1242 C1240 1.376 1_545 S
C1242 C1243 1.372 1_545 S
C1243 C1242 1.372 1_565 S
C1243 C1244 1.400 . S
C1243 C1248 1.490 . S
C1244 H1234 0.930 . S
C1244 C1243 1.400 . S
C1244 C1247 1.386 . S
H1245 C1261 0.930 1_565 S
H1246 C1262 0.931 . S
C1247 H1235 0.929 . S
C1247 C1241 1.390 . S
C1247 C1244 1.386 . S
C1248 C1243 1.490 . S
C1248 C1250 1.395 1_565 S
C1248 C1251 1.403 . S
H1249 C1255 0.930 . S
C1250 H1236 0.930 . S
C1250 C1248 1.395 1_545 S
C1250 C1253 1.403 . S
C1251 C1248 1.403 . S
C1251 C1252 1.524 . S
C1251 C1255 1.400 . S
C1252 H1237 0.960 . S
C1252 H1238 0.960 . S
C1252 H1239 0.960 . S
C1252 C1251 1.524 . S
C1253 C1250 1.403 . S
C1253 C1254 1.392 . S
C1253 C1257 1.495 . S
C1254 C1253 1.392 . S
C1254 C1255 1.385 1_545 S
C1254 C1256 1.478 . S
C1255 H1249 0.930 . S
C1255 C1251 1.400 . S
C1255 C1254 1.385 1_565 S
C1256 C1254 1.478 . S
C1256 C1258 1.381 . S
C1256 C1262 1.383 1_545 S
C1257 C1253 1.495 . S
C1257 H1263 0.959 . S
C1257 H1264 0.961 . S
C1257 H1265 0.960 . S
C1258 C1256 1.381 . S
C1258 C1259 1.394 . S
C1258 H1266 0.930 . S
C1259 C1258 1.394 . S
C1259 C1260 1.383 . S
C1259 H1267 0.929 . S
C1260 C1259 1.383 . S
C1260 C1261 1.377 . S
C1261 H1245 0.930 1_545 S
C1261 C1260 1.377 . S
C1261 C1262 1.379 1_545 S
C1262 H1246 0.931 . S
C1262 C1256 1.383 1_565 S
C1262 C1261 1.379 1_565 S
H1263 C1257 0.959 . S
H1264 C1257 0.961 . S
H1265 C1257 0.960 . S
H1266 C1258 0.930 . S
H1267 C1259 0.929 . S
H1268 C1276 0.905 1_545 S
H1269 C1278 0.930 . S
H1270 C1280 0.930 . S
H1271 C1283 0.929 . S
H1272 C1286 0.930 . S
H1273 C1288 0.960 . S
H1274 C1288 0.960 . S
H1275 C1288 0.960 . S
C1276 H1268 0.905 1_565 S
C1276 C1277 1.410 . S
C1276 C1278 1.375 1_565 S
C1277 C1276 1.410 . S
C1277 C1283 1.390 . S
C1278 H1269 0.930 . S
C1278 C1276 1.375 1_545 S
C1278 C1279 1.372 1_545 S
C1279 C1278 1.372 1_565 S
C1279 C1280 1.400 . S
C1279 C1284 1.490 . S
C1280 H1270 0.930 . S
C1280 C1279 1.400 . S
C1280 C1283 1.386 . S
H1281 C1297 0.930 1_565 S
H1282 C1298 0.931 . S
C1283 H1271 0.929 . S
C1283 C1277 1.390 . S
C1283 C1280 1.386 . S
C1284 C1279 1.490 . S
C1284 C1286 1.395 1_565 S
C1284 C1287 1.403 . S
H1285 C1291 0.930 . S
C1286 H1272 0.930 . S
C1286 C1284 1.395 1_545 S
C1286 C1289 1.403 . S
C1287 C1284 1.403 . S
C1287 C1288 1.524 . S
C1287 C1291 1.400 . S
C1288 H1273 0.960 . S
C1288 H1274 0.960 . S
C1288 H1275 0.960 . S
C1288 C1287 1.524 . S
C1289 C1286 1.403 . S
C1289 C1290 1.392 . S
C1289 C1293 1.495 . S
C1290 C1289 1.392 . S
C1290 C1291 1.385 1_545 S
C1290 C1292 1.478 . S
C1291 H1285 0.930 . S
C1291 C1287 1.400 . S
C1291 C1290 1.385 1_565 S
C1292 C1290 1.478 . S
C1292 C1294 1.381 . S
C1292 C1298 1.383 1_545 S
C1293 C1289 1.495 . S
C1293 H1299 0.959 . S
C1293 H1300 0.961 . S
C1293 H1301 0.960 . S
C1294 C1292 1.381 . S
C1294 C1295 1.394 . S
C1294 H1302 0.930 . S
C1295 C1294 1.394 . S
C1295 C1296 1.383 . S
C1295 H1303 0.929 . S
C1296 C1295 1.383 . S
C1296 C1297 1.377 . S
C1297 H1281 0.930 1_545 S
C1297 C1296 1.377 . S
C1297 C1298 1.379 1_545 S
C1298 H1282 0.931 . S
C1298 C1292 1.383 1_565 S
C1298 C1297 1.379 1_565 S
H1299 C1293 0.959 . S
H1300 C1293 0.961 . S
H1301 C1293 0.960 . S
H1302 C1294 0.930 . S
H1303 C1295 0.929 . S
H1304 C1312 0.929 . S
H1305 C1314 0.930 . S
H1306 C1316 0.907 1_545 S
H1307 C1319 0.929 1_545 S
H1308 C1322 0.930 . S
H1309 C1324 0.960 . S
H1310 C1324 0.960 . S
H1311 C1324 0.960 . S
C1312 H1304 0.929 . S
C1312 C1313 1.377 . S
C1312 C1314 1.384 . S
C1313 C1312 1.377 . S
C1313 C1319 1.390 . S
C1314 H1305 0.930 . S
C1314 C1312 1.384 . S
C1314 C1315 1.372 . S
C1315 C1314 1.372 . S
C1315 C1316 1.415 . S
C1315 C1320 1.490 . S
C1316 H1306 0.907 1_565 S
C1316 C1315 1.415 . S
C1316 C1319 1.393 . S
H1317 C1333 0.930 . S
H1318 C1334 0.931 . S
C1319 H1307 0.929 1_565 S
C1319 C1313 1.390 . S
C1319 C1316 1.393 . S
C1320 C1315 1.490 . S
C1320 C1322 1.395 . S
C1320 C1323 1.403 1_565 S
H1321 C1327 0.930 . S
C1322 H1308 0.930 . S
C1322 C1320 1.395 . S
C1322 C1325 1.403 . S
C1323 C1320 1.403 1_545 S
C1323 C1324 1.524 . S
C1323 C1327 1.400 . S
C1324 H1309 0.960 . S
C1324 H1310 0.960 . S
C1324 H1311 0.960 . S
C1324 C1323 1.524 . S
C1325 C1322 1.403 . S
C1325 C1326 1.392 1_565 S
C1325 C1329 1.495 . S
C1326 C1325 1.392 1_545 S
C1326 C1327 1.385 . S
C1326 C1328 1.478 . S
C1327 H1321 0.930 . S
C1327 C1323 1.400 . S
C1327 C1326 1.385 . S
C1328 C1326 1.478 . S
C1328 C1330 1.381 1_545 S
C1328 C1334 1.383 . S
C1329 C1325 1.495 . S
C1329 H1335 0.959 . S
C1329 H1336 0.961 . S
C1329 H1337 0.960 . S
C1330 C1328 1.381 1_565 S
C1330 C1331 1.394 1_565 S
C1330 H1338 0.930 . S
C1331 C1330 1.394 1_545 S
C1331 C1332 1.383 . S
C1331 H1339 0.922 1_545 S
C1332 C1331 1.383 . S
C1332 C1333 1.377 . S
C1333 H1317 0.930 . S
C1333 C1332 1.377 . S
C1333 C1334 1.379 . S
C1334 H1318 0.931 . S
C1334 C1328 1.383 . S
C1334 C1333 1.379 . S
H1335 C1329 0.959 . S
H1336 C1329 0.961 . S
H1337 C1329 0.960 . S
H1338 C1330 0.930 . S
H1339 C1331 0.922 1_565 S
H1340 C1348 0.929 . S
H1341 C1350 0.930 . S
H1342 C1352 0.947 . S
H1343 C1355 0.929 . S
H1344 C1358 0.930 . S
H1345 C1360 0.960 . S
H1346 C1360 0.960 . S
H1347 C1360 0.960 . S
C1348 H1340 0.929 . S
C1348 C1349 1.377 . S
C1348 C1350 1.384 . S
C1349 C1348 1.377 . S
C1349 C1355 1.390 . S
C1350 H1341 0.930 . S
C1350 C1348 1.384 . S
C1350 C1351 1.372 . S
C1351 C1350 1.372 . S
C1351 C1352 1.400 . S
C1351 C1356 1.490 . S
C1352 H1342 0.947 . S
C1352 C1351 1.400 . S
C1352 C1355 1.386 . S
H1353 C1369 0.930 . S
H1354 C1370 0.931 . S
C1355 H1343 0.929 . S
C1355 C1349 1.390 . S
C1355 C1352 1.386 . S
C1356 C1351 1.490 . S
C1356 C1358 1.395 . S
C1356 C1359 1.403 1_545 S
H1357 C1363 0.930 . S
C1358 H1344 0.930 . S
C1358 C1356 1.395 . S
C1358 C1361 1.403 . S
C1359 C1356 1.403 1_565 S
C1359 C1360 1.524 . S
C1359 C1363 1.400 . S
C1360 H1345 0.960 . S
C1360 H1346 0.960 . S
C1360 H1347 0.960 . S
C1360 C1359 1.524 . S
C1361 C1358 1.403 . S
C1361 C1362 1.392 1_545 S
C1361 C1365 1.495 . S
C1362 C1361 1.392 1_565 S
C1362 C1363 1.385 . S
C1362 C1364 1.478 . S
C1363 H1357 0.930 . S
C1363 C1359 1.400 . S
C1363 C1362 1.385 . S
C1364 C1362 1.478 . S
C1364 C1366 1.381 . S
C1364 C1370 1.383 . S
C1365 C1361 1.495 . S
C1365 H1371 0.959 . S
C1365 H1372 0.961 . S
C1365 H1373 0.960 . S
C1366 C1364 1.381 . S
C1366 C1367 1.394 . S
C1366 H1374 0.941 . S
C1367 C1366 1.394 . S
C1367 C1368 1.383 . S
C1367 H1375 0.929 . S
C1368 C1367 1.383 . S
C1368 C1369 1.377 . S
C1369 H1353 0.930 . S
C1369 C1368 1.377 . S
C1369 C1370 1.379 . S
C1370 H1354 0.931 . S
C1370 C1364 1.383 . S
C1370 C1369 1.379 . S
H1371 C1365 0.959 . S
H1372 C1365 0.961 . S
H1373 C1365 0.960 . S
H1374 C1366 0.941 . S
H1375 C1367 0.929 . S
H1376 C1384 0.929 . S
H1377 C1386 0.930 . S
H1378 C1388 0.930 . S
H1379 C1391 0.929 . S
H1380 C1394 0.930 . S
H1381 C1396 0.960 . S
H1382 C1396 0.960 . S
H1383 C1396 0.960 . S
C1384 H1376 0.929 . S
C1384 C1385 1.377 . S
C1384 C1386 1.384 . S
C1385 C1384 1.377 . S
C1385 C1391 1.390 . S
C1386 H1377 0.930 . S
C1386 C1384 1.384 . S
C1386 C1387 1.372 . S
C1387 C1386 1.372 . S
C1387 C1388 1.400 . S
C1387 C1392 1.490 . S
C1388 H1378 0.930 . S
C1388 C1387 1.400 . S
C1388 C1391 1.386 . S
H1389 C1405 0.930 . S
H1390 C1406 0.931 . S
C1391 H1379 0.929 . S
C1391 C1385 1.390 . S
C1391 C1388 1.386 . S
C1392 C1387 1.490 . S
C1392 C1394 1.395 . S
C1392 C1395 1.403 . S
H1393 C1399 0.930 . S
C1394 H1380 0.930 . S
C1394 C1392 1.395 . S
C1394 C1397 1.403 1_655 S
C1395 C1392 1.403 . S
C1395 C1396 1.524 . S
C1395 C1399 1.400 1_655 S
C1396 H1381 0.960 . S
C1396 H1382 0.960 . S
C1396 H1383 0.960 . S
C1396 C1395 1.524 . S
C1397 C1394 1.403 1_455 S
C1397 C1398 1.392 . S
C1397 C1401 1.495 . S
C1398 C1397 1.392 . S
C1398 C1399 1.385 . S
C1398 C1400 1.478 . S
C1399 H1393 0.930 . S
C1399 C1395 1.400 1_455 S
C1399 C1398 1.385 . S
C1400 C1398 1.478 . S
C1400 C1402 1.381 . S
C1400 C1406 1.383 . S
C1401 C1397 1.495 . S
C1401 H1407 0.959 . S
C1401 H1408 0.961 . S
C1401 H1409 0.960 . S
C1402 C1400 1.381 . S
C1402 C1403 1.394 . S
C1402 H1410 0.930 . S
C1403 C1402 1.394 . S
C1403 C1404 1.383 . S
C1403 H1411 0.929 . S
C1404 C1403 1.383 . S
C1404 C1405 1.377 . S
C1405 H1389 0.930 . S
C1405 C1404 1.377 . S
C1405 C1406 1.379 . S
C1406 H1390 0.931 . S
C1406 C1400 1.383 . S
C1406 C1405 1.379 . S
H1407 C1401 0.959 . S
H1408 C1401 0.961 . S
H1409 C1401 0.960 . S
H1410 C1402 0.930 . S
H1411 C1403 0.929 . S
H1412 C1420 0.929 . S
H1413 C1422 0.930 . S
H1414 C1424 0.930 . S
H1415 C1427 0.929 . S
H1416 C1430 0.930 . S
H1417 C1432 0.960 . S
H1418 C1432 0.960 . S
H1419 C1432 0.960 . S
C1420 H1412 0.929 . S
C1420 C1421 1.377 . S
C1420 C1422 1.384 . S
C1421 C1420 1.377 . S
C1421 C1427 1.390 . S
C1422 H1413 0.930 . S
C1422 C1420 1.384 . S
C1422 C1423 1.372 . S
C1423 C1422 1.372 . S
C1423 C1424 1.400 . S
C1423 C1428 1.490 . S
C1424 H1414 0.930 . S
C1424 C1423 1.400 . S
C1424 C1427 1.386 . S
H1425 C1441 0.930 . S
H1426 C1442 0.931 . S
C1427 H1415 0.929 . S
C1427 C1421 1.390 . S
C1427 C1424 1.386 . S
C1428 C1423 1.490 . S
C1428 C1430 1.395 . S
C1428 C1431 1.403 . S
H1429 C1435 0.930 . S
C1430 H1416 0.930 . S
C1430 C1428 1.395 . S
C1430 C1433 1.403 1_455 S
C1431 C1428 1.403 . S
C1431 C1432 1.524 . S
C1431 C1435 1.400 1_455 S
C1432 H1417 0.960 . S
C1432 H1418 0.960 . S
C1432 H1419 0.960 . S
C1432 C1431 1.524 . S
C1433 C1430 1.403 1_655 S
C1433 C1434 1.392 . S
C1433 C1437 1.495 . S
C1434 C1433 1.392 . S
C1434 C1435 1.385 . S
C1434 C1436 1.478 . S
C1435 H1429 0.930 . S
C1435 C1431 1.400 1_655 S
C1435 C1434 1.385 . S
C1436 C1434 1.478 . S
C1436 C1438 1.381 . S
C1436 C1442 1.383 . S
C1437 C1433 1.495 . S
C1437 H1443 0.959 . S
C1437 H1444 0.961 . S
C1437 H1445 0.960 . S
C1438 C1436 1.381 . S
C1438 C1439 1.394 . S
C1438 H1446 0.930 . S
C1439 C1438 1.394 . S
C1439 C1440 1.383 . S
C1439 H1447 0.929 . S
C1440 C1439 1.383 . S
C1440 C1441 1.377 . S
C1441 H1425 0.930 . S
C1441 C1440 1.377 . S
C1441 C1442 1.379 . S
C1442 H1426 0.931 . S
C1442 C1436 1.383 . S
C1442 C1441 1.379 . S
H1443 C1437 0.959 . S
H1444 C1437 0.961 . S
H1445 C1437 0.960 . S
H1446 C1438 0.930 . S
H1447 C1439 0.929 . S
H1448 C1456 0.929 . S
H1449 C1458 0.930 . S
H1450 C1460 0.930 . S
H1451 C1463 0.929 . S
H1452 C1466 0.930 . S
H1453 C1468 0.960 . S
H1454 C1468 0.960 . S
H1455 C1468 0.960 . S
C1456 H1448 0.929 . S
C1456 C1457 1.377 . S
C1456 C1458 1.384 . S
C1457 C1456 1.377 . S
C1457 C1463 1.390 . S
C1458 H1449 0.930 . S
C1458 C1456 1.384 . S
C1458 C1459 1.372 . S
C1459 C1458 1.372 . S
C1459 C1460 1.400 . S
C1459 C1464 1.490 . S
C1460 H1450 0.930 . S
C1460 C1459 1.400 . S
C1460 C1463 1.386 . S
H1461 C1477 0.930 . S
H1462 C1478 0.931 . S
C1463 H1451 0.929 . S
C1463 C1457 1.390 . S
C1463 C1460 1.386 . S
C1464 C1459 1.490 . S
C1464 C1466 1.395 . S
C1464 C1467 1.403 . S
H1465 C1471 0.930 . S
C1466 H1452 0.930 . S
C1466 C1464 1.395 . S
C1466 C1469 1.403 1_655 S
C1467 C1464 1.403 . S
C1467 C1468 1.524 . S
C1467 C1471 1.400 1_655 S
C1468 H1453 0.960 . S
C1468 H1454 0.960 . S
C1468 H1455 0.960 . S
C1468 C1467 1.524 . S
C1469 C1466 1.403 1_455 S
C1469 C1470 1.392 . S
C1469 C1473 1.495 . S
C1470 C1469 1.392 . S
C1470 C1471 1.385 . S
C1470 C1472 1.478 . S
C1471 H1465 0.930 . S
C1471 C1467 1.400 1_455 S
C1471 C1470 1.385 . S
C1472 C1470 1.478 . S
C1472 C1474 1.381 . S
C1472 C1478 1.383 . S
C1473 C1469 1.495 . S
C1473 H1479 1.000 . S
C1473 H1480 0.961 . S
C1473 H1481 0.960 . S
C1474 C1472 1.381 . S
C1474 C1475 1.394 . S
C1474 H1482 0.930 . S
C1475 C1474 1.394 . S
C1475 C1476 1.383 . S
C1475 H1483 0.929 . S
C1476 C1475 1.383 . S
C1476 C1477 1.377 . S
C1477 H1461 0.930 . S
C1477 C1476 1.377 . S
C1477 C1478 1.379 . S
C1478 H1462 0.931 . S
C1478 C1472 1.383 . S
C1478 C1477 1.379 . S
H1479 C1473 1.000 . S
H1480 C1473 0.961 . S
H1481 C1473 0.960 . S
H1482 C1474 0.930 . S
H1483 C1475 0.929 . S
H1484 C1492 0.929 . S
H1485 C1494 0.930 . S
H1486 C1496 0.930 . S
H1487 C1499 0.929 . S
H1488 C1502 0.930 . S
H1489 C1504 0.960 . S
H1490 C1504 0.960 . S
H1491 C1504 0.960 . S
C1492 H1484 0.929 . S
C1492 C1493 1.377 . S
C1492 C1494 1.384 . S
C1493 C1492 1.377 . S
C1493 C1499 1.390 . S
C1494 H1485 0.930 . S
C1494 C1492 1.384 . S
C1494 C1495 1.372 . S
C1495 C1494 1.372 . S
C1495 C1496 1.400 . S
C1495 C1500 1.490 . S
C1496 H1486 0.930 . S
C1496 C1495 1.400 . S
C1496 C1499 1.386 . S
H1497 C1513 0.930 . S
H1498 C1514 0.931 . S
C1499 H1487 0.929 . S
C1499 C1493 1.390 . S
C1499 C1496 1.386 . S
C1500 C1495 1.490 . S
C1500 C1502 1.395 . S
C1500 C1503 1.403 . S
H1501 C1507 0.930 . S
C1502 H1488 0.930 . S
C1502 C1500 1.395 . S
C1502 C1505 1.403 1_455 S
C1503 C1500 1.403 . S
C1503 C1504 1.524 . S
C1503 C1507 1.400 1_455 S
C1504 H1489 0.960 . S
C1504 H1490 0.960 . S
C1504 H1491 0.960 . S
C1504 C1503 1.524 . S
C1505 C1502 1.403 1_655 S
C1505 C1506 1.392 . S
C1505 C1509 1.495 . S
C1506 C1505 1.392 . S
C1506 C1507 1.385 . S
C1506 C1508 1.478 . S
C1507 H1501 0.930 . S
C1507 C1503 1.400 1_655 S
C1507 C1506 1.385 . S
C1508 C1506 1.478 . S
C1508 C1510 1.381 . S
C1508 C1514 1.383 . S
C1509 C1505 1.495 . S
C1509 H1515 0.959 . S
C1509 H1516 0.961 . S
C1509 H1517 0.960 . S
C1510 C1508 1.381 . S
C1510 C1511 1.394 . S
C1510 H1518 0.930 . S
C1511 C1510 1.394 . S
C1511 C1512 1.383 . S
C1511 H1519 0.929 . S
C1512 C1511 1.383 . S
C1512 C1513 1.377 . S
C1513 H1497 0.930 . S
C1513 C1512 1.377 . S
C1513 C1514 1.379 . S
C1514 H1498 0.931 . S
C1514 C1508 1.383 . S
C1514 C1513 1.379 . S
H1515 C1509 0.959 . S
H1516 C1509 0.961 . S
H1517 C1509 0.960 . S
H1518 C1510 0.930 . S
H1519 C1511 0.929 . S
H1520 C1528 0.929 . S
H1521 C1530 0.930 . S
H1522 C1532 0.930 . S
H1523 C1535 0.929 . S
H1524 C1538 0.930 . S
H1525 C1540 0.960 . S
H1526 C1540 0.960 . S
H1527 C1540 0.960 . S
C1528 H1520 0.929 . S
C1528 C1529 1.377 . S
C1528 C1530 1.384 . S
C1529 C1528 1.377 . S
C1529 C1535 1.390 . S
C1530 H1521 0.930 . S
C1530 C1528 1.384 . S
C1530 C1531 1.372 . S
C1531 C1530 1.372 . S
C1531 C1532 1.400 . S
C1531 C1536 1.490 . S
C1532 H1522 0.930 . S
C1532 C1531 1.400 . S
C1532 C1535 1.386 . S
H1533 C1549 0.930 . S
H1534 C1550 0.931 . S
C1535 H1523 0.929 . S
C1535 C1529 1.390 . S
C1535 C1532 1.386 . S
C1536 C1531 1.490 . S
C1536 C1538 1.395 . S
C1536 C1539 1.403 . S
H1537 C1543 0.930 . S
C1538 H1524 0.930 . S
C1538 C1536 1.395 . S
C1538 C1541 1.403 . S
C1539 C1536 1.403 . S
C1539 C1540 1.524 . S
C1539 C1543 1.400 . S
C1540 H1525 0.960 . S
C1540 H1526 0.960 . S
C1540 H1527 0.960 . S
C1540 C1539 1.524 . S
C1541 C1538 1.403 . S
C1541 C1542 1.392 . S
C1541 C1545 1.495 . S
C1542 C1541 1.392 . S
C1542 C1543 1.385 . S
C1542 C1544 1.478 . S
C1543 H1537 0.930 . S
C1543 C1539 1.400 . S
C1543 C1542 1.385 . S
C1544 C1542 1.478 . S
C1544 C1546 1.381 . S
C1544 C1550 1.383 . S
C1545 C1541 1.495 . S
C1545 H1551 0.959 . S
C1545 H1552 0.961 . S
C1545 H1553 0.960 . S
C1546 C1544 1.381 . S
C1546 C1547 1.394 . S
C1546 H1554 0.930 . S
C1547 C1546 1.394 . S
C1547 C1548 1.383 . S
C1547 H1555 0.929 . S
C1548 C1547 1.383 . S
C1548 C1549 1.377 . S
C1549 H1533 0.930 . S
C1549 C1548 1.377 . S
C1549 C1550 1.379 . S
C1550 H1534 0.931 . S
C1550 C1544 1.383 . S
C1550 C1549 1.379 . S
H1551 C1545 0.959 . S
H1552 C1545 0.961 . S
H1553 C1545 0.960 . S
H1554 C1546 0.930 . S
H1555 C1547 0.929 . S
H1556 C1564 0.929 . S
H1557 C1566 0.930 . S
H1558 C1568 0.930 . S
H1559 C1571 0.929 . S
H1560 C1574 0.930 . S
H1561 C1576 0.960 . S
H1562 C1576 0.960 . S
H1563 C1576 0.960 . S
C1564 H1556 0.929 . S
C1564 C1565 1.377 . S
C1564 C1566 1.384 . S
C1565 C1564 1.377 . S
C1565 C1571 1.390 . S
C1566 H1557 0.930 . S
C1566 C1564 1.384 . S
C1566 C1567 1.372 . S
C1567 C1566 1.372 . S
C1567 C1568 1.400 . S
C1567 C1572 1.490 . S
C1568 H1558 0.930 . S
C1568 C1567 1.400 . S
C1568 C1571 1.386 . S
H1569 C1585 0.930 . S
H1570 C1586 0.931 . S
C1571 H1559 0.929 . S
C1571 C1565 1.390 . S
C1571 C1568 1.386 . S
C1572 C1567 1.490 . S
C1572 C1574 1.395 . S
C1572 C1575 1.403 . S
H1573 C1579 0.930 . S
C1574 H1560 0.930 . S
C1574 C1572 1.395 . S
C1574 C1577 1.403 . S
C1575 C1572 1.403 . S
C1575 C1576 1.524 . S
C1575 C1579 1.400 . S
C1576 H1561 0.960 . S
C1576 H1562 0.960 . S
C1576 H1563 0.960 . S
C1576 C1575 1.524 . S
C1577 C1574 1.403 . S
C1577 C1578 1.392 . S
C1577 C1581 1.495 . S
C1578 C1577 1.392 . S
C1578 C1579 1.385 . S
C1578 C1580 1.478 . S
C1579 H1573 0.930 . S
C1579 C1575 1.400 . S
C1579 C1578 1.385 . S
C1580 C1578 1.478 . S
C1580 C1582 1.381 . S
C1580 C1586 1.383 . S
C1581 C1577 1.495 . S
C1581 H1587 0.959 . S
C1581 H1588 0.961 . S
C1581 H1589 0.960 . S
C1582 C1580 1.381 . S
C1582 C1583 1.394 . S
C1582 H1590 0.930 . S
C1583 C1582 1.394 . S
C1583 C1584 1.383 . S
C1583 H1591 0.929 . S
C1584 C1583 1.383 . S
C1584 C1585 1.377 . S
C1585 H1569 0.930 . S
C1585 C1584 1.377 . S
C1585 C1586 1.379 . S
C1586 H1570 0.931 . S
C1586 C1580 1.383 . S
C1586 C1585 1.379 . S
H1587 C1581 0.959 . S
H1588 C1581 0.961 . S
H1589 C1581 0.960 . S
H1590 C1582 0.930 . S
H1591 C1583 0.929 . S
H1592 C1600 0.929 . S
H1593 C1602 0.930 . S
H1594 C1604 0.930 . S
H1595 C1607 0.929 . S
H1596 C1610 0.930 . S
H1597 C1612 0.960 . S
H1598 C1612 0.960 . S
H1599 C1612 0.960 . S
C1600 H1592 0.929 . S
C1600 C1601 1.377 . S
C1600 C1602 1.384 . S
C1601 C1600 1.377 . S
C1601 C1607 1.390 . S
C1602 H1593 0.930 . S
C1602 C1600 1.384 . S
C1602 C1603 1.372 . S
C1603 C1602 1.372 . S
C1603 C1604 1.400 . S
C1603 C1608 1.490 . S
C1604 H1594 0.930 . S
C1604 C1603 1.400 . S
C1604 C1607 1.386 . S
H1605 C1621 0.930 . S
H1606 C1622 0.931 . S
C1607 H1595 0.929 . S
C1607 C1601 1.390 . S
C1607 C1604 1.386 . S
C1608 C1603 1.490 . S
C1608 C1610 1.395 . S
C1608 C1611 1.403 . S
H1609 C1615 0.930 . S
C1610 H1596 0.930 . S
C1610 C1608 1.395 . S
C1610 C1613 1.403 . S
C1611 C1608 1.403 . S
C1611 C1612 1.524 . S
C1611 C1615 1.400 . S
C1612 H1597 0.960 . S
C1612 H1598 0.960 . S
C1612 H1599 0.960 . S
C1612 C1611 1.524 . S
C1613 C1610 1.403 . S
C1613 C1614 1.392 . S
C1613 C1617 1.495 . S
C1614 C1613 1.392 . S
C1614 C1615 1.385 . S
C1614 C1616 1.478 . S
C1615 H1609 0.930 . S
C1615 C1611 1.400 . S
C1615 C1614 1.385 . S
C1616 C1614 1.478 . S
C1616 C1618 1.381 . S
C1616 C1622 1.383 . S
C1617 C1613 1.495 . S
C1617 H1623 0.959 . S
C1617 H1624 0.961 . S
C1617 H1625 0.960 . S
C1618 C1616 1.381 . S
C1618 C1619 1.394 . S
C1618 H1626 0.930 . S
C1619 C1618 1.394 . S
C1619 C1620 1.383 . S
C1619 H1627 0.929 . S
C1620 C1619 1.383 . S
C1620 C1621 1.377 . S
C1621 H1605 0.930 . S
C1621 C1620 1.377 . S
C1621 C1622 1.379 . S
C1622 H1606 0.931 . S
C1622 C1616 1.383 . S
C1622 C1621 1.379 . S
H1623 C1617 0.959 . S
H1624 C1617 0.961 . S
H1625 C1617 0.960 . S
H1626 C1618 0.930 . S
H1627 C1619 0.929 . S
H1628 C1636 0.929 . S
H1629 C1638 0.930 . S
H1630 C1640 0.930 . S
H1631 C1643 0.929 . S
H1632 C1646 0.930 . S
H1633 C1648 0.960 . S
H1634 C1648 0.960 . S
H1635 C1648 0.960 . S
C1636 H1628 0.929 . S
C1636 C1637 1.377 . S
C1636 C1638 1.384 . S
C1637 C1636 1.377 . S
C1637 C1643 1.390 . S
C1638 H1629 0.930 . S
C1638 C1636 1.384 . S
C1638 C1639 1.372 . S
C1639 C1638 1.372 . S
C1639 C1640 1.400 . S
C1639 C1644 1.490 . S
C1640 H1630 0.930 . S
C1640 C1639 1.400 . S
C1640 C1643 1.386 . S
H1641 C1657 0.930 . S
H1642 C1658 0.931 . S
C1643 H1631 0.929 . S
C1643 C1637 1.390 . S
C1643 C1640 1.386 . S
C1644 C1639 1.490 . S
C1644 C1646 1.395 . S
C1644 C1647 1.403 . S
H1645 C1651 0.930 . S
C1646 H1632 0.930 . S
C1646 C1644 1.395 . S
C1646 C1649 1.403 . S
C1647 C1644 1.403 . S
C1647 C1648 1.524 . S
C1647 C1651 1.400 . S
C1648 H1633 0.960 . S
C1648 H1634 0.960 . S
C1648 H1635 0.960 . S
C1648 C1647 1.524 . S
C1649 C1646 1.403 . S
C1649 C1650 1.392 . S
C1649 C1653 1.495 . S
C1650 C1649 1.392 . S
C1650 C1651 1.385 . S
C1650 C1652 1.478 . S
C1651 H1645 0.930 . S
C1651 C1647 1.400 . S
C1651 C1650 1.385 . S
C1652 C1650 1.478 . S
C1652 C1654 1.381 . S
C1652 C1658 1.383 . S
C1653 C1649 1.495 . S
C1653 H1659 0.959 . S
C1653 H1660 0.961 . S
C1653 H1661 0.960 . S
C1654 C1652 1.381 . S
C1654 C1655 1.394 . S
C1654 H1662 0.930 . S
C1655 C1654 1.394 . S
C1655 C1656 1.383 . S
C1655 H1663 0.929 . S
C1656 C1655 1.383 . S
C1656 C1657 1.377 . S
C1657 H1641 0.930 . S
C1657 C1656 1.377 . S
C1657 C1658 1.379 . S
C1658 H1642 0.931 . S
C1658 C1652 1.383 . S
C1658 C1657 1.379 . S
H1659 C1653 0.959 . S
H1660 C1653 0.961 . S
H1661 C1653 0.960 . S
H1662 C1654 0.930 . S
H1663 C1655 0.929 . S
H1664 C1672 0.929 . S
H1665 C1674 0.930 . S
H1666 C1676 0.930 . S
H1667 C1679 0.929 . S
H1668 C1682 0.930 . S
H1669 C1684 0.960 . S
H1670 C1684 0.960 . S
H1671 C1684 0.960 . S
C1672 H1664 0.929 . S
C1672 C1673 1.377 . S
C1672 C1674 1.384 . S
C1673 C1672 1.377 . S
C1673 C1679 1.390 . S
C1674 H1665 0.930 . S
C1674 C1672 1.384 . S
C1674 C1675 1.372 . S
C1675 C1674 1.372 . S
C1675 C1676 1.400 . S
C1675 C1680 1.490 . S
C1676 H1666 0.930 . S
C1676 C1675 1.400 . S
C1676 C1679 1.386 . S
H1677 C1693 0.930 . S
H1678 C1694 0.931 . S
C1679 H1667 0.929 . S
C1679 C1673 1.390 . S
C1679 C1676 1.386 . S
C1680 C1675 1.490 . S
C1680 C1682 1.395 . S
C1680 C1683 1.403 . S
H1681 C1687 0.930 . S
C1682 H1668 0.930 . S
C1682 C1680 1.395 . S
C1682 C1685 1.403 . S
C1683 C1680 1.403 . S
C1683 C1684 1.524 . S
C1683 C1687 1.400 . S
C1684 H1669 0.960 . S
C1684 H1670 0.960 . S
C1684 H1671 0.960 . S
C1684 C1683 1.524 . S
C1685 C1682 1.403 . S
C1685 C1686 1.392 . S
C1685 C1689 1.495 . S
C1686 C1685 1.392 . S
C1686 C1687 1.385 . S
C1686 C1688 1.478 . S
C1687 H1681 0.930 . S
C1687 C1683 1.400 . S
C1687 C1686 1.385 . S
C1688 C1686 1.478 . S
C1688 C1690 1.381 . S
C1688 C1694 1.383 . S
C1689 C1685 1.495 . S
C1689 H1695 0.959 . S
C1689 H1696 0.961 . S
C1689 H1697 0.960 . S
C1690 C1688 1.381 . S
C1690 C1691 1.394 . S
C1690 H1698 0.930 . S
C1691 C1690 1.394 . S
C1691 C1692 1.383 . S
C1691 H1699 0.929 . S
C1692 C1691 1.383 . S
C1692 C1693 1.377 . S
C1693 H1677 0.930 . S
C1693 C1692 1.377 . S
C1693 C1694 1.379 . S
C1694 H1678 0.931 . S
C1694 C1688 1.383 . S
C1694 C1693 1.379 . S
H1695 C1689 0.959 . S
H1696 C1689 0.961 . S
H1697 C1689 0.960 . S
H1698 C1690 0.930 . S
H1699 C1691 0.929 . S
H1700 C1708 0.929 . S
H1701 C1710 0.930 . S
H1702 C1712 0.930 . S
H1703 C1715 0.929 . S
H1704 C1718 0.930 . S
H1705 C1720 0.960 . S
H1706 C1720 0.960 . S
H1707 C1720 0.960 . S
C1708 H1700 0.929 . S
C1708 C1709 1.377 . S
C1708 C1710 1.384 . S
C1709 C1708 1.377 . S
C1709 C1715 1.390 . S
C1710 H1701 0.930 . S
C1710 C1708 1.384 . S
C1710 C1711 1.372 . S
C1711 C1710 1.372 . S
C1711 C1712 1.400 . S
C1711 C1716 1.490 . S
C1712 H1702 0.930 . S
C1712 C1711 1.400 . S
C1712 C1715 1.386 . S
H1713 C1729 0.930 . S
H1714 C1730 0.931 . S
C1715 H1703 0.929 . S
C1715 C1709 1.390 . S
C1715 C1712 1.386 . S
C1716 C1711 1.490 . S
C1716 C1718 1.395 . S
C1716 C1719 1.403 . S
H1717 C1723 0.930 . S
C1718 H1704 0.930 . S
C1718 C1716 1.395 . S
C1718 C1721 1.403 . S
C1719 C1716 1.403 . S
C1719 C1720 1.524 . S
C1719 C1723 1.400 . S
C1720 H1705 0.960 . S
C1720 H1706 0.960 . S
C1720 H1707 0.960 . S
C1720 C1719 1.524 . S
C1721 C1718 1.403 . S
C1721 C1722 1.392 . S
C1721 C1725 1.495 . S
C1722 C1721 1.392 . S
C1722 C1723 1.385 . S
C1722 C1724 1.478 . S
C1723 H1717 0.930 . S
C1723 C1719 1.400 . S
C1723 C1722 1.385 . S
C1724 C1722 1.478 . S
C1724 C1726 1.381 . S
C1724 C1730 1.383 . S
C1725 C1721 1.495 . S
C1725 H1731 0.959 . S
C1725 H1732 0.961 . S
C1725 H1733 0.960 . S
C1726 C1724 1.381 . S
C1726 C1727 1.394 . S
C1726 H1734 0.930 . S
C1727 C1726 1.394 . S
C1727 C1728 1.383 . S
C1727 H1735 0.929 . S
C1728 C1727 1.383 . S
C1728 C1729 1.377 . S
C1729 H1713 0.930 . S
C1729 C1728 1.377 . S
C1729 C1730 1.379 . S
C1730 H1714 0.931 . S
C1730 C1724 1.383 . S
C1730 C1729 1.379 . S
H1731 C1725 0.959 . S
H1732 C1725 0.961 . S
H1733 C1725 0.960 . S
H1734 C1726 0.930 . S
H1735 C1727 0.929 . S
H1736 C1744 0.929 . S
H1737 C1746 0.930 . S
H1738 C1748 0.930 . S
H1739 C1751 0.929 . S
H1740 C1754 0.930 . S
H1741 C1756 0.960 . S
H1742 C1756 0.960 . S
H1743 C1756 0.960 . S
C1744 H1736 0.929 . S
C1744 C1745 1.377 . S
C1744 C1746 1.384 . S
C1745 C1744 1.377 . S
C1745 C1751 1.390 . S
C1746 H1737 0.930 . S
C1746 C1744 1.384 . S
C1746 C1747 1.372 . S
C1747 C1746 1.372 . S
C1747 C1748 1.400 . S
C1747 C1752 1.490 . S
C1748 H1738 0.930 . S
C1748 C1747 1.400 . S
C1748 C1751 1.386 . S
H1749 C1765 0.930 . S
H1750 C1766 0.931 . S
C1751 H1739 0.929 . S
C1751 C1745 1.390 . S
C1751 C1748 1.386 . S
C1752 C1747 1.490 . S
C1752 C1754 1.395 . S
C1752 C1755 1.403 . S
H1753 C1759 0.930 . S
C1754 H1740 0.930 . S
C1754 C1752 1.395 . S
C1754 C1757 1.403 . S
C1755 C1752 1.403 . S
C1755 C1756 1.524 . S
C1755 C1759 1.400 . S
C1756 H1741 0.960 . S
C1756 H1742 0.960 . S
C1756 H1743 0.960 . S
C1756 C1755 1.524 . S
C1757 C1754 1.403 . S
C1757 C1758 1.392 . S
C1757 C1761 1.495 . S
C1758 C1757 1.392 . S
C1758 C1759 1.385 . S
C1758 C1760 1.478 . S
C1759 H1753 0.930 . S
C1759 C1755 1.400 . S
C1759 C1758 1.385 . S
C1760 C1758 1.478 . S
C1760 C1762 1.381 . S
C1760 C1766 1.383 . S
C1761 C1757 1.495 . S
C1761 H1767 0.959 . S
C1761 H1768 0.961 . S
C1761 H1769 0.960 . S
C1762 C1760 1.381 . S
C1762 C1763 1.394 . S
C1762 H1770 0.930 . S
C1763 C1762 1.394 . S
C1763 C1764 1.383 . S
C1763 H1771 0.929 . S
C1764 C1763 1.383 . S
C1764 C1765 1.377 . S
C1765 H1749 0.930 . S
C1765 C1764 1.377 . S
C1765 C1766 1.379 . S
C1766 H1750 0.931 . S
C1766 C1760 1.383 . S
C1766 C1765 1.379 . S
H1767 C1761 0.959 . S
H1768 C1761 0.961 . S
H1769 C1761 0.960 . S
H1770 C1762 0.930 . S
H1771 C1763 0.929 . S
H1772 C1780 0.929 . S
H1773 C1782 0.930 . S
H1774 C1784 0.930 . S
H1775 C1787 0.929 . S
H1776 C1790 0.930 . S
H1777 C1792 0.960 . S
H1778 C1792 0.960 . S
H1779 C1792 0.960 . S
C1780 H1772 0.929 . S
C1780 C1781 1.377 . S
C1780 C1782 1.384 . S
C1781 C1780 1.377 . S
C1781 C1787 1.390 . S
C1782 H1773 0.930 . S
C1782 C1780 1.384 . S
C1782 C1783 1.372 . S
C1783 C1782 1.372 . S
C1783 C1784 1.400 . S
C1783 C1788 1.490 . S
C1784 H1774 0.930 . S
C1784 C1783 1.400 . S
C1784 C1787 1.386 . S
H1785 C1801 0.930 . S
H1786 C1802 0.931 . S
C1787 H1775 0.929 . S
C1787 C1781 1.390 . S
C1787 C1784 1.386 . S
C1788 C1783 1.490 . S
C1788 C1790 1.395 . S
C1788 C1791 1.403 . S
H1789 C1795 0.930 . S
C1790 H1776 0.930 . S
C1790 C1788 1.395 . S
C1790 C1793 1.403 . S
C1791 C1788 1.403 . S
C1791 C1792 1.524 . S
C1791 C1795 1.400 . S
C1792 H1777 0.960 . S
C1792 H1778 0.960 . S
C1792 H1779 0.960 . S
C1792 C1791 1.524 . S
C1793 C1790 1.403 . S
C1793 C1794 1.392 . S
C1793 C1797 1.495 . S
C1794 C1793 1.392 . S
C1794 C1795 1.385 . S
C1794 C1796 1.478 . S
C1795 H1789 0.930 . S
C1795 C1791 1.400 . S
C1795 C1794 1.385 . S
C1796 C1794 1.478 . S
C1796 C1798 1.381 . S
C1796 C1802 1.383 . S
C1797 C1793 1.495 . S
C1797 H1803 0.959 . S
C1797 H1804 0.961 . S
C1797 H1805 0.960 . S
C1798 C1796 1.381 . S
C1798 C1799 1.394 . S
C1798 H1806 0.930 . S
C1799 C1798 1.394 . S
C1799 C1800 1.383 . S
C1799 H1807 0.929 . S
C1800 C1799 1.383 . S
C1800 C1801 1.377 . S
C1801 H1785 0.930 . S
C1801 C1800 1.377 . S
C1801 C1802 1.379 . S
C1802 H1786 0.931 . S
C1802 C1796 1.383 . S
C1802 C1801 1.379 . S
H1803 C1797 0.959 . S
H1804 C1797 0.961 . S
H1805 C1797 0.960 . S
H1806 C1798 0.930 . S
H1807 C1799 0.929 . S
H1808 C1816 0.929 . S
H1809 C1818 0.930 . S
H1810 C1820 0.930 . S
H1811 C1823 0.929 . S
H1812 C1826 0.930 . S
H1813 C1828 0.960 . S
H1814 C1828 0.960 . S
H1815 C1828 0.960 . S
C1816 H1808 0.929 . S
C1816 C1817 1.377 . S
C1816 C1818 1.384 . S
C1817 C1816 1.377 . S
C1817 C1823 1.390 1_545 S
C1818 H1809 0.930 . S
C1818 C1816 1.384 . S
C1818 C1819 1.372 . S
C1819 C1818 1.372 . S
C1819 C1820 1.400 1_545 S
C1819 C1824 1.490 . S
C1820 H1810 0.930 . S
C1820 C1819 1.400 1_565 S
C1820 C1823 1.386 . S
H1821 C1837 0.930 . S
H1822 C1838 0.931 . S
C1823 H1811 0.929 . S
C1823 C1817 1.390 1_565 S
C1823 C1820 1.386 . S
C1824 C1819 1.490 . S
C1824 C1826 1.394 1_545 S
C1824 C1827 1.403 . S
H1825 C1831 0.930 . S
C1826 H1812 0.930 . S
C1826 C1824 1.394 1_565 S
C1826 C1829 1.404 . S
C1827 C1824 1.403 . S
C1827 C1828 1.524 . S
C1827 C1831 1.400 . S
C1828 H1813 0.960 . S
C1828 H1814 0.960 . S
C1828 H1815 0.960 . S
C1828 C1827 1.524 . S
C1829 C1826 1.404 . S
C1829 C1830 1.392 . S
C1829 C1833 1.495 . S
C1830 C1829 1.392 . S
C1830 C1831 1.385 1_565 S
C1830 C1832 1.478 . S
C1831 H1825 0.930 . S
C1831 C1827 1.400 . S
C1831 C1830 1.385 1_545 S
C1832 C1830 1.478 . S
C1832 C1834 1.381 1_565 S
C1832 C1838 1.383 . S
C1833 C1829 1.495 . S
C1833 H1839 0.959 . S
C1833 H1840 0.961 . S
C1833 H1841 0.960 1_565 S
C1834 C1832 1.381 1_545 S
C1834 C1835 1.394 . S
C1834 H1842 0.930 . S
C1835 C1834 1.394 . S
C1835 C1836 1.383 1_545 S
C1835 H1843 0.929 . S
C1836 C1835 1.383 1_565 S
C1836 C1837 1.377 . S
C1837 H1821 0.930 . S
C1837 C1836 1.377 . S
C1837 C1838 1.379 . S
C1838 H1822 0.931 . S
C1838 C1832 1.383 . S
C1838 C1837 1.379 . S
H1839 C1833 0.959 . S
H1840 C1833 0.961 . S
H1841 C1833 0.960 1_545 S
H1842 C1834 0.930 . S
H1843 C1835 0.929 . S
H1844 C1852 0.929 . S
H1845 C1854 0.930 . S
H1846 C1856 0.930 . S
H1847 C1859 0.929 . S
H1848 C1862 0.933 . S
H1849 C1864 0.957 1_565 S
H1850 C1864 0.960 1_565 S
H1851 C1864 0.960 . S
C1852 H1844 0.929 . S
C1852 C1853 1.377 1_565 S
C1852 C1854 1.384 . S
C1853 C1852 1.377 1_545 S
C1853 C1859 1.390 . S
C1854 H1845 0.930 . S
C1854 C1852 1.384 . S
C1854 C1855 1.372 1_565 S
C1855 C1854 1.372 1_545 S
C1855 C1856 1.400 . S
C1855 C1860 1.490 . S
C1856 H1846 0.930 . S
C1856 C1855 1.400 . S
C1856 C1859 1.386 . S
H1857 C1873 0.930 . S
H1858 C1874 0.931 . S
C1859 H1847 0.929 . S
C1859 C1853 1.390 . S
C1859 C1856 1.386 . S
C1860 C1855 1.490 . S
C1860 C1862 1.398 . S
C1860 C1863 1.405 . S
H1861 C1867 0.930 . S
C1862 H1848 0.933 . S
C1862 C1860 1.398 . S
C1862 C1865 1.399 1_545 S
C1863 C1860 1.405 . S
C1863 C1864 1.524 . S
C1863 C1867 1.397 1_545 S
C1864 H1849 0.957 1_545 S
C1864 H1850 0.960 1_545 S
C1864 H1851 0.960 . S
C1864 C1863 1.524 . S
C1865 C1862 1.399 1_565 S
C1865 C1866 1.392 . S
C1865 C1869 1.495 . S
C1866 C1865 1.392 . S
C1866 C1867 1.385 . S
C1866 C1868 1.478 . S
C1867 H1861 0.930 . S
C1867 C1863 1.397 1_565 S
C1867 C1866 1.385 . S
C1868 C1866 1.478 . S
C1868 C1870 1.381 . S
C1868 C1874 1.383 1_565 S
C1869 C1865 1.495 . S
C1869 H1875 0.959 . S
C1869 H1876 0.961 1_565 S
C1869 H1877 0.960 . S
C1870 C1868 1.381 . S
C1870 C1871 1.394 . S
C1870 H1878 0.930 . S
C1871 C1870 1.394 . S
C1871 C1872 1.383 . S
C1871 H1879 0.929 . S
C1872 C1871 1.383 . S
C1872 C1873 1.377 1_565 S
C1873 H1857 0.930 . S
C1873 C1872 1.377 1_545 S
C1873 C1874 1.379 . S
C1874 H1858 0.931 . S
C1874 C1868 1.383 1_545 S
C1874 C1873 1.379 . S
H1875 C1869 0.959 . S
H1876 C1869 0.961 1_545 S
H1877 C1869 0.960 . S
H1878 C1870 0.930 . S
H1879 C1871 0.929 . S
H1880 C1888 0.929 . S
H1881 C1890 0.930 . S
H1882 C1892 0.930 . S
H1883 C1895 0.929 . S
H1884 C1898 0.930 . S
H1885 C1900 0.960 . S
H1886 C1900 0.960 . S
H1887 C1900 0.960 . S
C1888 H1880 0.929 . S
C1888 C1889 1.377 1_565 S
C1888 C1890 1.384 . S
C1889 C1888 1.377 1_545 S
C1889 C1895 1.390 . S
C1890 H1881 0.930 . S
C1890 C1888 1.384 . S
C1890 C1891 1.372 1_565 S
C1891 C1890 1.372 1_545 S
C1891 C1892 1.400 . S
C1891 C1896 1.490 . S
C1892 H1882 0.930 . S
C1892 C1891 1.400 . S
C1892 C1895 1.386 . S
H1893 C1909 0.930 . S
H1894 C1910 0.931 . S
C1895 H1883 0.929 . S
C1895 C1889 1.390 . S
C1895 C1892 1.386 . S
C1896 C1891 1.490 . S
C1896 C1898 1.395 1_545 S
C1896 C1899 1.403 . S
H1897 C1903 0.930 . S
C1898 H1884 0.930 . S
C1898 C1896 1.395 1_565 S
C1898 C1901 1.403 . S
C1899 C1896 1.403 . S
C1899 C1900 1.524 . S
C1899 C1903 1.400 . S
C1900 H1885 0.960 . S
C1900 H1886 0.960 . S
C1900 H1887 0.960 . S
C1900 C1899 1.524 . S
C1901 C1898 1.403 . S
C1901 C1902 1.392 . S
C1901 C1905 1.495 . S
C1902 C1901 1.392 . S
C1902 C1903 1.385 1_565 S
C1902 C1904 1.478 . S
C1903 H1897 0.930 . S
C1903 C1899 1.400 . S
C1903 C1902 1.385 1_545 S
C1904 C1902 1.478 . S
C1904 C1906 1.381 . S
C1904 C1910 1.383 1_565 S
C1905 C1901 1.495 . S
C1905 H1911 0.959 . S
C1905 H1912 0.961 . S
C1905 H1913 0.960 . S
C1906 C1904 1.381 . S
C1906 C1907 1.394 . S
C1906 H1914 0.930 . S
C1907 C1906 1.394 . S
C1907 C1908 1.383 . S
C1907 H1915 0.929 . S
C1908 C1907 1.383 . S
C1908 C1909 1.377 1_565 S
C1909 H1893 0.930 . S
C1909 C1908 1.377 1_545 S
C1909 C1910 1.379 . S
C1910 H1894 0.931 . S
C1910 C1904 1.383 1_545 S
C1910 C1909 1.379 . S
H1911 C1905 0.959 . S
H1912 C1905 0.961 . S
H1913 C1905 0.960 . S
H1914 C1906 0.930 . S
H1915 C1907 0.929 . S
H1916 C1924 0.929 . S
H1917 C1926 0.930 . S
H1918 C1928 0.930 . S
H1919 C1931 0.950 . S
H1920 C1934 0.930 . S
H1921 C1936 0.960 . S
H1922 C1936 0.960 . S
H1923 C1936 0.960 . S
C1924 H1916 0.929 . S
C1924 C1925 1.377 . S
C1924 C1926 1.384 . S
C1925 C1924 1.377 . S
C1925 C1931 1.365 1_565 S
C1926 H1917 0.930 . S
C1926 C1924 1.384 . S
C1926 C1927 1.372 . S
C1927 C1926 1.372 . S
C1927 C1928 1.400 1_565 S
C1927 C1932 1.490 . S
C1928 H1918 0.930 . S
C1928 C1927 1.400 1_545 S
C1928 C1931 1.392 . S
H1929 C1945 0.930 . S
H1930 C1946 0.931 . S
C1931 H1919 0.950 . S
C1931 C1925 1.365 1_545 S
C1931 C1928 1.392 . S
C1932 C1927 1.490 . S
C1932 C1934 1.395 . S
C1932 C1935 1.403 1_565 S
H1933 C1939 0.930 . S
C1934 H1920 0.930 . S
C1934 C1932 1.395 . S
C1934 C1937 1.403 . S
C1935 C1932 1.403 1_545 S
C1935 C1936 1.524 . S
C1935 C1939 1.400 . S
C1936 H1921 0.960 . S
C1936 H1922 0.960 . S
C1936 H1923 0.960 . S
C1936 C1935 1.524 . S
C1937 C1934 1.403 . S
C1937 C1938 1.426 . S
C1937 C1941 1.495 . S
C1938 C1937 1.426 . S
C1938 C1939 1.356 1_565 S
C1938 C1940 1.472 1_565 S
C1939 H1933 0.930 . S
C1939 C1935 1.400 . S
C1939 C1938 1.356 1_545 S
C1940 C1938 1.472 1_545 S
C1940 C1942 1.381 1_545 S
C1940 C1946 1.383 . S
C1941 C1937 1.495 . S
C1941 H1947 0.959 . S
C1941 H1948 0.961 . S
C1941 H1949 0.960 . S
C1942 C1940 1.381 1_565 S
C1942 C1943 1.394 . S
C1942 H1950 0.930 . S
C1943 C1942 1.394 . S
C1943 C1944 1.383 1_565 S
C1943 H1951 0.929 . S
C1944 C1943 1.383 1_545 S
C1944 C1945 1.377 . S
C1945 H1929 0.930 . S
C1945 C1944 1.377 . S
C1945 C1946 1.379 . S
C1946 H1930 0.931 . S
C1946 C1940 1.383 . S
C1946 C1945 1.379 . S
H1947 C1941 0.959 . S
H1948 C1941 0.961 . S
H1949 C1941 0.960 . S
H1950 C1942 0.930 . S
H1951 C1943 0.929 . S
H1952 C1960 0.929 . S
H1953 C1962 0.930 . S
H1954 C1964 0.930 . S
H1955 C1967 0.929 . S
H1956 C1970 0.930 . S
H1957 C1972 0.960 . S
H1958 C1972 0.960 . S
H1959 C1972 0.960 . S
C1960 H1952 0.929 . S
C1960 C1961 1.377 . S
C1960 C1962 1.384 . S
C1961 C1960 1.377 . S
C1961 C1967 1.390 . S
C1962 H1953 0.930 . S
C1962 C1960 1.384 . S
C1962 C1963 1.372 . S
C1963 C1962 1.372 . S
C1963 C1964 1.400 . S
C1963 C1968 1.490 . S
C1964 H1954 0.930 . S
C1964 C1963 1.400 . S
C1964 C1967 1.386 . S
H1965 C1981 0.930 . S
H1966 C1982 0.931 . S
C1967 H1955 0.929 . S
C1967 C1961 1.390 . S
C1967 C1964 1.386 . S
C1968 C1963 1.490 . S
C1968 C1970 1.395 . S
C1968 C1971 1.403 . S
H1969 C1975 0.930 . S
C1970 H1956 0.930 . S
C1970 C1968 1.395 . S
C1970 C1973 1.403 . S
C1971 C1968 1.403 . S
C1971 C1972 1.524 . S
C1971 C1975 1.400 . S
C1972 H1957 0.960 . S
C1972 H1958 0.960 . S
C1972 H1959 0.960 . S
C1972 C1971 1.524 . S
C1973 C1970 1.403 . S
C1973 C1974 1.392 . S
C1973 C1977 1.495 . S
C1974 C1973 1.392 . S
C1974 C1975 1.385 . S
C1974 C1976 1.478 . S
C1975 H1969 0.930 . S
C1975 C1971 1.400 . S
C1975 C1974 1.385 . S
C1976 C1974 1.478 . S
C1976 C1978 1.381 . S
C1976 C1982 1.383 . S
C1977 C1973 1.495 . S
C1977 H1983 0.959 . S
C1977 H1984 0.961 . S
C1977 H1985 0.960 . S
C1978 C1976 1.381 . S
C1978 C1979 1.394 . S
C1978 H1986 0.930 . S
C1979 C1978 1.394 . S
C1979 C1980 1.383 . S
C1979 H1987 0.929 . S
C1980 C1979 1.383 . S
C1980 C1981 1.377 . S
C1981 H1965 0.930 . S
C1981 C1980 1.377 . S
C1981 C1982 1.379 . S
C1982 H1966 0.931 . S
C1982 C1976 1.383 . S
C1982 C1981 1.379 . S
H1983 C1977 0.959 . S
H1984 C1977 0.961 . S
H1985 C1977 0.960 . S
H1986 C1978 0.930 . S
H1987 C1979 0.929 . S
H1988 C1996 0.929 . S
H1989 C1998 0.930 . S
H1990 C2000 0.930 . S
H1991 C2003 0.929 . S
H1992 C2006 0.930 . S
H1993 C2008 0.960 . S
H1994 C2008 0.960 . S
H1995 C2008 0.960 . S
C1996 H1988 0.929 . S
C1996 C1997 1.377 . S
C1996 C1998 1.384 . S
C1997 C1996 1.377 . S
C1997 C2003 1.390 . S
C1998 H1989 0.930 . S
C1998 C1996 1.384 . S
C1998 C1999 1.372 . S
C1999 C1998 1.372 . S
C1999 C2000 1.400 . S
C1999 C2004 1.490 . S
C2000 H1990 0.930 . S
C2000 C1999 1.400 . S
C2000 C2003 1.386 . S
H2001 C2017 0.930 . S
H2002 C2018 0.931 . S
C2003 H1991 0.929 . S
C2003 C1997 1.390 . S
C2003 C2000 1.386 . S
C2004 C1999 1.490 . S
C2004 C2006 1.395 . S
C2004 C2007 1.403 . S
H2005 C2011 0.930 . S
C2006 H1992 0.930 . S
C2006 C2004 1.395 . S
C2006 C2009 1.403 . S
C2007 C2004 1.403 . S
C2007 C2008 1.524 . S
C2007 C2011 1.400 . S
C2008 H1993 0.960 . S
C2008 H1994 0.960 . S
C2008 H1995 0.960 . S
C2008 C2007 1.524 . S
C2009 C2006 1.403 . S
C2009 C2010 1.392 . S
C2009 C2013 1.495 . S
C2010 C2009 1.392 . S
C2010 C2011 1.385 . S
C2010 C2012 1.478 . S
C2011 H2005 0.930 . S
C2011 C2007 1.400 . S
C2011 C2010 1.385 . S
C2012 C2010 1.478 . S
C2012 C2014 1.381 . S
C2012 C2018 1.383 . S
C2013 C2009 1.495 . S
C2013 H2019 0.959 . S
C2013 H2020 0.961 . S
C2013 H2021 0.960 . S
C2014 C2012 1.381 . S
C2014 C2015 1.394 . S
C2014 H2022 0.930 . S
C2015 C2014 1.394 . S
C2015 C2016 1.383 . S
C2015 H2023 0.929 . S
C2016 C2015 1.383 . S
C2016 C2017 1.377 . S
C2017 H2001 0.930 . S
C2017 C2016 1.377 . S
C2017 C2018 1.379 . S
C2018 H2002 0.931 . S
C2018 C2012 1.383 . S
C2018 C2017 1.379 . S
H2019 C2013 0.959 . S
H2020 C2013 0.961 . S
H2021 C2013 0.960 . S
H2022 C2014 0.930 . S
H2023 C2015 0.929 . S
H2024 C2032 0.929 . S
H2025 C2034 0.930 . S
H2026 C2036 0.930 . S
H2027 C2039 0.929 . S
H2028 C2042 0.930 . S
H2029 C2044 0.960 . S
H2030 C2044 0.960 . S
H2031 C2044 0.960 . S
C2032 H2024 0.929 . S
C2032 C2033 1.377 . S
C2032 C2034 1.384 . S
C2033 C2032 1.377 . S
C2033 C2039 1.390 . S
C2034 H2025 0.930 . S
C2034 C2032 1.384 . S
C2034 C2035 1.372 . S
C2035 C2034 1.372 . S
C2035 C2036 1.400 . S
C2035 C2040 1.490 . S
C2036 H2026 0.930 . S
C2036 C2035 1.400 . S
C2036 C2039 1.386 . S
H2037 C2053 0.930 . S
H2038 C2054 0.931 . S
C2039 H2027 0.929 . S
C2039 C2033 1.390 . S
C2039 C2036 1.386 . S
C2040 C2035 1.490 . S
C2040 C2042 1.395 . S
C2040 C2043 1.403 . S
H2041 C2047 0.930 . S
C2042 H2028 0.930 . S
C2042 C2040 1.395 . S
C2042 C2045 1.403 . S
C2043 C2040 1.403 . S
C2043 C2044 1.524 . S
C2043 C2047 1.400 . S
C2044 H2029 0.960 . S
C2044 H2030 0.960 . S
C2044 H2031 0.960 . S
C2044 C2043 1.524 . S
C2045 C2042 1.403 . S
C2045 C2046 1.392 . S
C2045 C2049 1.495 . S
C2046 C2045 1.392 . S
C2046 C2047 1.385 . S
C2046 C2048 1.478 . S
C2047 H2041 0.930 . S
C2047 C2043 1.400 . S
C2047 C2046 1.385 . S
C2048 C2046 1.478 . S
C2048 C2050 1.381 . S
C2048 C2054 1.383 . S
C2049 C2045 1.495 . S
C2049 H2055 0.959 . S
C2049 H2056 0.961 . S
C2049 H2057 0.960 . S
C2050 C2048 1.381 . S
C2050 C2051 1.394 . S
C2050 H2058 0.930 . S
C2051 C2050 1.394 . S
C2051 C2052 1.383 . S
C2051 H2059 0.929 . S
C2052 C2051 1.383 . S
C2052 C2053 1.377 . S
C2053 H2037 0.930 . S
C2053 C2052 1.377 . S
C2053 C2054 1.379 . S
C2054 H2038 0.931 . S
C2054 C2048 1.383 . S
C2054 C2053 1.379 . S
H2055 C2049 0.959 . S
H2056 C2049 0.961 . S
H2057 C2049 0.960 . S
H2058 C2050 0.930 . S
H2059 C2051 0.929 . S
H2060 C2068 0.929 . S
H2061 C2070 0.930 . S
H2062 C2072 0.930 . S
H2063 C2075 0.929 . S
H2064 C2078 0.930 . S
H2065 C2080 0.960 . S
H2066 C2080 0.960 . S
H2067 C2080 0.960 . S
C2068 H2060 0.929 . S
C2068 C2069 1.377 . S
C2068 C2070 1.384 . S
C2069 C2068 1.377 . S
C2069 C2075 1.390 . S
C2070 H2061 0.930 . S
C2070 C2068 1.384 . S
C2070 C2071 1.372 . S
C2071 C2070 1.372 . S
C2071 C2072 1.400 . S
C2071 C2076 1.490 . S
C2072 H2062 0.930 . S
C2072 C2071 1.400 . S
C2072 C2075 1.386 . S
H2073 C2089 0.930 . S
H2074 C2090 0.931 . S
C2075 H2063 0.929 . S
C2075 C2069 1.390 . S
C2075 C2072 1.386 . S
C2076 C2071 1.490 . S
C2076 C2078 1.395 . S
C2076 C2079 1.403 . S
H2077 C2083 0.930 . S
C2078 H2064 0.930 . S
C2078 C2076 1.395 . S
C2078 C2081 1.403 . S
C2079 C2076 1.403 . S
C2079 C2080 1.524 . S
C2079 C2083 1.400 . S
C2080 H2065 0.960 . S
C2080 H2066 0.960 . S
C2080 H2067 0.960 . S
C2080 C2079 1.524 . S
C2081 C2078 1.403 . S
C2081 C2082 1.392 . S
C2081 C2085 1.495 . S
C2082 C2081 1.392 . S
C2082 C2083 1.385 . S
C2082 C2084 1.478 . S
C2083 H2077 0.930 . S
C2083 C2079 1.400 . S
C2083 C2082 1.385 . S
C2084 C2082 1.478 . S
C2084 C2086 1.381 . S
C2084 C2090 1.383 . S
C2085 C2081 1.495 . S
C2085 H2091 0.959 . S
C2085 H2092 0.961 . S
C2085 H2093 0.960 . S
C2086 C2084 1.381 . S
C2086 C2087 1.394 . S
C2086 H2094 0.930 . S
C2087 C2086 1.394 . S
C2087 C2088 1.383 . S
C2087 H2095 0.929 . S
C2088 C2087 1.383 . S
C2088 C2089 1.377 . S
C2089 H2073 0.930 . S
C2089 C2088 1.377 . S
C2089 C2090 1.379 . S
C2090 H2074 0.931 . S
C2090 C2084 1.383 . S
C2090 C2089 1.379 . S
H2091 C2085 0.959 . S
H2092 C2085 0.961 . S
H2093 C2085 0.960 . S
H2094 C2086 0.930 . S
H2095 C2087 0.929 . S
C953 C3 1.313 . S
C972 C298 1.288 . S
C989 C239 1.308 . S
C1008 C62 1.326 . S
C1025 C121 1.307 . S
C1044 C416 1.309 . S
C1061 C357 1.311 . S
C1080 C180 1.326 . S
C1097 C770 1.307 . S
C1116 C475 1.315 . S
C1133 C711 1.307 . S
C1152 C534 1.316 . S
C1169 C888 1.315 . S
C1188 C593 1.303 . S
C1205 C652 1.308 . S
C1224 C829 1.301 . S
C1241 C111 1.491 . S
C1260 C52 1.496 . S
C1277 C170 1.491 . S
C1296 C229 1.496 . S
C1313 C288 1.491 . S
C1332 C347 1.492 . S
C1349 C406 1.491 . S
C1368 C465 1.489 . S
C1385 C524 1.494 . S
C1404 C583 1.491 . S
C1421 C701 1.493 . S
C1440 C642 1.493 . S
C1457 C819 1.494 . S
C1476 C760 1.482 . S
C1493 C878 1.491 . S
C1512 C937 1.489 . S
C1529 C536 1.488 . S
C1548 C5 1.485 . S
C1565 C64 1.489 . S
C1584 C477 1.486 . S
C1601 C654 1.489 . S
C1620 C123 1.486 . S
C1637 C182 1.489 . S
C1656 C595 1.489 . S
C1673 C241 1.489 . S
C1692 C772 1.483 . S
C1709 C713 1.489 . S
C1728 C300 1.483 . S
C1745 C359 1.488 . S
C1764 C890 1.489 . S
C1781 C831 1.488 . S
C1800 C418 1.489 . S
C1817 C33 1.181 . S
C1836 C151 1.166 . S
C1853 C210 1.187 . S
C1872 C92 1.195 . S
C1889 C387 1.187 . S
C1908 C269 1.160 . S
C1925 C446 1.183 . S
C1944 C328 1.204 . S
C1961 C623 1.179 . S
C1980 C505 1.159 . S
C1997 C564 1.184 . S
C2016 C682 1.179 . S
C2033 C859 1.187 . S
C2052 C741 1.159 . S
C2069 C800 1.187 . S
C2088 C918 1.191 . S
