# Generated by pormake.
# Topology sxb, (6)-cn, num edge types: 1
# Building blocks:
#     Node 0, Type 0, BuildingBlock: CIFDUS_clean_sbu_1, # of connection points: 6
#     Node 1, Type 0, BuildingBlock: CIFDUS_clean_sbu_1, # of connection points: 6
#     Node 2, Type 0, BuildingBlock: CIFDUS_clean_sbu_1, # of connection points: 6
#     Node 3, Type 0, BuildingBlock: CIFDUS_clean_sbu_1, # of connection points: 6
#     Edge 4, Type (0, 0), BuildingBlock: UVAHIK_clean_linker_0, # of connection points: 2
#     Edge 5, Type (0, 0), BuildingBlock: UVAHIK_clean_linker_0, # of connection points: 2
#     Edge 6, Type (0, 0), BuildingBlock: UVAHIK_clean_linker_0, # of connection points: 2
#     Edge 7, Type (0, 0), BuildingBlock: UVAHIK_clean_linker_0, # of connection points: 2
#     Edge 8, Type (0, 0), BuildingBlock: UVAHIK_clean_linker_0, # of connection points: 2
#     Edge 9, Type (0, 0), BuildingBlock: UVAHIK_clean_linker_0, # of connection points: 2
#     Edge 10, Type (0, 0), BuildingBlock: UVAHIK_clean_linker_0, # of connection points: 2
#     Edge 11, Type (0, 0), BuildingBlock: UVAHIK_clean_linker_0, # of connection points: 2
#     Edge 12, Type (0, 0), BuildingBlock: UVAHIK_clean_linker_0, # of connection points: 2
#     Edge 13, Type (0, 0), BuildingBlock: UVAHIK_clean_linker_0, # of connection points: 2
#     Edge 14, Type (0, 0), BuildingBlock: UVAHIK_clean_linker_0, # of connection points: 2
#     Edge 15, Type (0, 0), BuildingBlock: UVAHIK_clean_linker_0, # of connection points: 2
# Relax obj value: 0.095
# Max RMSD: 0.134
# Mean RMSD: 0.134
data_MOF--net-sxb--node1-CIFDUS_clean_sbu_1--edge1-UVAHIK_clean_linker_0
_symmetry_space_group_name_H-M    P1
_symmetry_Int_Tables_number       1
_symmetry_cell_setting            triclinic
loop_
_symmetry_equiv_pos_as_xyz
'x, y, z'
_cell_length_a     19.374396
_cell_length_b     34.981789
_cell_length_c     38.373505
_cell_angle_alpha  89.75536
_cell_angle_beta   114.47777
_cell_angle_gamma 90.056168
loop_
_atom_site_label
_atom_site_type_symbol
_atom_site_fract_x
_atom_site_fract_y
_atom_site_fract_z
_atom_type_partial_charge
O0 O 0.1097 0.96943 0.07893 0.0
Mn1 Mn 0.0562 0.02262 0.06662 0.0
O2 O 0.22487 0.98152 0.12644 0.0
Mn3 Mn 0.2114 0.03305 0.13467 0.0
O4 O 1.00392 0.0761 1.05481 0.0
O5 O 0.99842 1.00715 1.0118 0.0
Mn6 Mn 0.90117 1.01568 0.99728 0.0
O7 O 0.96913 1.00357 0.082 0.0
O8 O 0.89237 0.06803 1.00369 0.0
O9 O 0.14306 0.0416 1.051 0.0
O10 O 0.23284 0.06673 0.10362 0.0
O11 O 0.91092 0.99677 0.95485 0.0
O12 O 0.873 0.98459 1.0279 0.0
C13 C 0.12972 0.04813 0.15616 0.0
C14 C 0.17709 0.95899 0.102 0.0
C15 C 0.94013 0.0889 1.02998 0.0
C16 C 0.98247 0.9962 0.97726 0.0
C17 C 0.90373 0.98784 0.06412 0.0
C18 C 0.20534 0.06029 0.06791 0.0
O19 O 0.11376 0.03804 0.1214 0.0
O20 O 0.20152 0.04949 0.17795 0.0
O21 O 0.1307 0.99993 0.55244 0.0
Mn22 Mn 0.03977 0.02033 0.56355 0.0
O23 O 0.22964 0.99235 0.60939 0.0
Mn24 Mn 0.19198 0.02469 0.63503 0.0
O25 O 0.94889 0.04076 0.57477 0.0
O26 O 0.98336 0.02884 0.50703 0.0
Mn27 Mn 0.88686 0.01856 0.49233 0.0
O28 O 0.99382 0.96545 0.5583 0.0
O29 O 0.85324 0.05304 0.51791 0.0
O30 O 0.08488 0.07534 0.56834 0.0
O31 O 0.19148 0.07633 0.62309 0.0
O32 O 0.89791 0.03222 0.44851 0.0
O33 O 0.88348 0.9675 0.50542 0.0
C34 C 0.11244 1.00396 0.65562 0.0
C35 C 0.19885 0.98876 0.57316 0.0
C36 C 0.88254 0.05433 0.55428 0.0
C37 C 0.96861 0.03578 0.47163 0.0
C38 C 0.93214 0.94981 0.53445 0.0
C39 C 0.1434 0.09258 0.59293 0.0
O40 O 0.09645 1.01174 0.62019 0.0
O41 O 0.18281 1.00898 0.67868 0.0
O42 O 0.60035 0.46617 0.07323 0.0
Mn43 Mn 0.55487 0.52118 0.06831 0.0
O44 O 0.70931 0.4669 0.12689 0.0
Mn45 Mn 0.70672 0.51782 0.14015 0.0
O46 O 0.51018 0.57627 0.06383 0.0
O47 O 0.49916 0.51361 1.01154 0.0
Mn48 Mn 0.40371 0.52694 0.99629 0.0
O49 O 0.46311 0.50049 0.0786 0.0
O50 O 0.40468 0.57838 1.00859 0.0
O51 O 0.64658 0.54189 0.05791 0.0
O52 O 0.74215 0.5524 0.11518 0.0
O53 O 0.41377 0.51193 0.95279 0.0
O54 O 0.36472 0.49426 1.0213 0.0
C55 C 0.62448 0.53523 0.16032 0.0
C56 C 0.66112 0.44989 0.09738 0.0
C57 C 0.45233 0.59402 1.03911 0.0
C58 C 0.48384 0.50641 0.97613 0.0
C59 C 0.39491 0.48984 0.05748 0.0
C60 C 0.71321 0.55472 0.07884 0.0
O61 O 0.61033 0.52872 0.12497 0.0
O62 O 0.69487 0.53104 0.18375 0.0
O63 O 0.62676 0.50262 0.54936 0.0
Mn64 Mn 0.54048 0.52126 0.56548 0.0
O65 O 0.72223 0.48148 0.60277 0.0
Mn66 Mn 0.69624 0.51247 0.63402 0.0
O67 O 0.45439 0.53978 0.58181 0.0
O68 O 0.48226 0.53773 0.51091 0.0
Mn69 Mn 0.38471 0.53315 0.49818 0.0
O70 O 0.48636 0.46832 0.55276 0.0
O71 O 0.36483 0.56637 0.52984 0.0
O72 O 0.59345 0.57443 0.57776 0.0
O73 O 0.70625 0.56486 0.62777 0.0
O74 O 0.39367 0.5503 0.45477 0.0
O75 O 0.37061 0.4815 0.50607 0.0
C76 C 0.6153 0.49347 0.65463 0.0
C77 C 0.69155 0.48603 0.56667 0.0
C78 C 0.39245 0.55896 0.56542 0.0
C79 C 0.46561 0.54844 0.47617 0.0
C80 C 0.41849 0.45843 0.52998 0.0
C81 C 0.65822 0.58646 0.60218 0.0
O82 O 0.59891 0.50476 0.62006 0.0
O83 O 0.68707 0.49324 0.67664 0.0
C84 C 0.45234 0.64449 0.0852 0.0
C85 C 0.43535 0.63327 1.04744 0.0
C86 C 0.42556 0.67937 0.09251 0.0
C87 C 0.27919 0.75421 1.04308 0.0
H88 H 0.38985 0.81054 0.13639 0.0
C89 C 0.15317 0.89045 0.07995 0.0
C90 C 0.20397 0.92006 0.09859 0.0
C91 C 0.18031 0.85446 0.07548 0.0
C92 C 0.35835 0.79551 0.10991 0.0
H93 H 0.38077 0.65056 0.9879 0.0
H94 H 0.33795 0.71215 1.00059 0.0
H95 H 0.44351 0.75223 0.12425 0.0
H96 H 0.32322 0.93517 0.12643 0.0
H97 H 0.36992 0.87369 0.11739 0.0
H98 H 0.19611 0.79866 1.02771 0.0
C99 C 0.36889 0.69352 1.02462 0.0
C100 C 0.38877 0.76153 0.10321 0.0
C101 C 0.39429 0.65837 1.0173 0.0
C102 C 0.28228 0.91288 0.11253 0.0
C103 C 0.30926 0.87732 0.1075 0.0
C104 C 0.24939 0.78855 1.04947 0.0
C105 C 0.38234 0.70416 0.06224 0.0
C106 C 0.34985 0.74042 0.06961 0.0
C107 C 0.25887 0.84749 0.08894 0.0
C108 C 0.2887 0.80986 0.08289 0.0
H109 H 0.48295 0.62546 0.10896 0.0
H110 H 0.43649 0.68612 0.12183 0.0
H111 H 0.24637 0.73848 1.01725 0.0
H112 H 0.09252 0.89504 0.06888 0.0
H113 H 0.13957 0.83214 0.06153 0.0
C114 C 0.64422 0.39383 1.05345 0.0
C115 C 0.68052 0.41064 0.08981 0.0
C116 C 0.67031 0.35899 1.04545 0.0
C117 C 0.84436 0.30045 0.07823 0.0
H118 H 0.71057 0.21889 1.02092 0.0
C119 C 0.95406 0.14901 0.06794 0.0
C120 C 0.91726 0.12865 1.03364 0.0
C121 C 0.92605 0.18443 0.07309 0.0
C122 C 0.74879 0.2416 1.03648 0.0
H123 H 0.77016 0.40279 0.14679 0.0
H124 H 0.81462 0.34236 0.1329 0.0
H125 H 0.65685 0.27777 1.03306 0.0
H126 H 0.82418 0.13055 0.97718 0.0
H127 H 0.77671 0.19253 0.98583 0.0
H128 H 0.93629 0.26455 0.08161 0.0
C129 C 0.76719 0.3564 0.11032 0.0
C130 C 0.71787 0.27532 1.04349 0.0
C131 C 0.74121 0.391 0.11833 0.0
C132 C 0.85368 0.14528 1.00409 0.0
C133 C 0.826 0.18073 1.00916 0.0
C134 C 0.87524 0.26686 0.07108 0.0
C135 C 0.73325 0.34037 0.0736 0.0
C136 C 0.76535 0.30497 0.06479 0.0
C137 C 0.86086 0.20044 1.04398 0.0
C138 C 0.82793 0.23686 1.05036 0.0
H139 H 0.59762 0.40825 1.03076 0.0
H140 H 0.64303 0.34738 1.01682 0.0
H141 H 0.8825 0.32306 0.09411 0.0
H142 H 1.00272 0.13694 0.09146 0.0
H143 H 0.95399 0.19856 0.10044 0.0
C144 C 0.20335 0.15638 0.61501 0.0
C145 C 0.16052 0.13197 0.5848 0.0
C146 C 0.2286 0.19167 0.6077 0.0
C147 C 0.20522 0.26145 0.52942 0.0
H148 H 0.40086 0.29667 0.6032 0.0
C149 C 0.31298 0.41279 0.5203 0.0
C150 C 0.39125 0.41949 0.53324 0.0
C151 C 0.28586 0.37719 0.52534 0.0
C152 C 0.3467 0.2871 0.58191 0.0
H153 H 0.10959 0.12557 0.52314 0.0
H154 H 0.15572 0.18648 0.51024 0.0
H155 H 0.35078 0.23633 0.61378 0.0
H156 H 0.50247 0.39361 0.56113 0.0
H157 H 0.4551 0.33067 0.56844 0.0
H158 H 0.20297 0.31117 0.49652 0.0
C159 C 0.16821 0.17906 0.53966 0.0
C160 C 0.31705 0.25267 0.58839 0.0
C161 C 0.14164 0.14404 0.54699 0.0
C162 C 0.44186 0.38938 0.55085 0.0
C163 C 0.41454 0.35337 0.55531 0.0
C164 C 0.23546 0.29553 0.52261 0.0
C165 C 0.21317 0.20315 0.56997 0.0
C166 C 0.24539 0.23954 0.5625 0.0
C167 C 0.33606 0.34687 0.54289 0.0
C168 C 0.3062 0.30918 0.54901 0.0
H169 H 0.21836 0.14792 0.64446 0.0
H170 H 0.26096 0.20974 0.63179 0.0
H171 H 0.14969 0.25266 0.50889 0.0
H172 H 0.27226 0.43548 0.50722 0.0
H173 H 0.22534 0.3739 0.51627 0.0
C174 C 0.95197 0.89226 0.57743 0.0
C175 C 0.91245 0.91045 0.54188 0.0
C176 C 0.92656 0.85718 0.58553 0.0
C177 C 0.7516 0.79993 0.55639 0.0
H178 H 0.88665 0.716 0.6073 0.0
C179 C 0.64202 0.64801 0.56555 0.0
C180 C 0.6816 0.62626 0.59881 0.0
C181 C 0.66966 0.68361 0.56046 0.0
C182 C 0.84819 0.73936 0.59358 0.0
H183 H 0.81726 0.90488 0.48639 0.0
H184 H 0.77384 0.84408 0.50045 0.0
H185 H 0.93877 0.77547 0.59491 0.0
H186 H 0.77966 0.62584 0.65353 0.0
H187 H 0.8267 0.68809 0.64499 0.0
H188 H 0.66103 0.76406 0.55508 0.0
C189 C 0.8235 0.85719 0.52234 0.0
C190 C 0.87816 0.77341 0.58641 0.0
C191 C 0.84884 0.89202 0.51421 0.0
C192 C 0.7479 0.64164 0.62743 0.0
C193 C 0.7753 0.67727 0.62241 0.0
C194 C 0.72169 0.766 0.56369 0.0
C195 C 0.861 0.83971 0.55831 0.0
C196 C 0.83011 0.80394 0.56739 0.0
C197 C 0.73736 0.69842 0.58857 0.0
C198 C 0.76948 0.73514 0.58211 0.0
H199 H 1.00093 0.90571 0.59949 0.0
H200 H 0.9566 0.84443 0.61357 0.0
H201 H 0.71315 0.82319 0.54231 0.0
H202 H 0.59114 0.63696 0.54274 0.0
H203 H 0.63931 0.69889 0.53385 0.0
C204 C 0.269 0.03098 1.03015 0.0
C205 C 0.26052 0.06257 1.05056 0.0
C206 C 0.3394 0.02325 1.02954 0.0
C207 C 0.53584 0.06058 0.0573 0.0
H208 H 0.59267 0.95512 0.08703 0.0
C209 C 0.84377 1.01455 0.10455 0.0
C210 C 0.85108 0.98391 0.08277 0.0
C211 C 0.77407 0.0217 0.1062 0.0
C212 C 0.5777 0.98463 0.07872 0.0
H213 H 0.31502 0.11377 0.08115 0.0
H214 H 0.43677 0.10082 0.0795 0.0
H215 H 0.4621 0.97555 0.0693 0.0
H216 H 0.79572 0.93352 1.05083 0.0
H217 H 0.67527 0.9453 1.05446 0.0
H218 H 0.65145 0.06966 0.06676 0.0
C219 C 0.39014 0.08155 0.06453 0.0
C220 C 0.5026 0.99629 0.06809 0.0
C221 C 0.32001 0.08918 0.06526 0.0
C222 C 0.79158 0.95734 0.06783 0.0
C223 C 0.72221 0.96432 0.06967 0.0
C224 C 0.61094 0.04893 0.06799 0.0
C225 C 0.40202 0.04722 1.04889 0.0
C226 C 0.48064 0.03441 0.05716 0.0
C227 C 0.71116 0.99799 0.08656 0.0
C228 C 0.63285 1.01081 0.07883 0.0
H229 H 0.22437 1.00985 1.01861 0.0
H230 H 0.34616 0.99711 1.01625 0.0
H231 H 0.52091 0.09007 1.04885 0.0
H232 H 0.88847 0.03563 0.11623 0.0
H233 H 0.76785 0.04735 0.12035 0.0
C234 C 0.31468 0.95749 0.57503 0.0
C235 C 0.25185 0.98121 0.55546 0.0
C236 C 0.38282 0.96359 0.57165 0.0
C237 C 0.4817 0.04679 0.55808 0.0
H238 H 0.64106 0.97423 0.57014 0.0
C239 C 0.7658 0.08497 0.55219 0.0
C240 C 0.82846 0.06107 0.57155 0.0
C241 C 0.69726 0.07853 0.55506 0.0
C242 C 0.59753 0.99485 0.56757 0.0
H243 H 0.20723 0.02598 0.51276 0.0
H244 H 0.32595 0.0361 0.50613 0.0
H245 H 0.51341 0.95114 0.55583 0.0
H246 H 0.87221 1.01559 0.61355 0.0
H247 H 0.75294 1.00498 0.61941 0.0
H248 H 0.56582 0.09049 0.56993 0.0
C249 C 0.32318 1.0135 0.52489 0.0
C250 C 0.52417 0.98161 0.55887 0.0
C251 C 0.25472 1.00719 0.5281 0.0
C252 C 0.82489 0.03451 0.59831 0.0
C253 C 0.75608 0.02791 0.60106 0.0
C254 C 0.55506 0.06003 0.5668 0.0
C255 C 0.38912 0.99353 0.54861 0.0
C256 C 0.46536 1.00742 0.55399 0.0
C257 C 0.69038 0.04812 0.57745 0.0
C258 C 0.61391 0.03422 0.57172 0.0
H259 H 0.3138 0.93727 0.59632 0.0
H260 H 0.43229 0.94749 0.59013 0.0
H261 H 0.43815 0.0674 0.55552 0.0
H262 H 0.76719 0.1057 0.53142 0.0
H263 H 0.64803 0.09485 0.53669 0.0
C264 C 0.7703 0.53656 1.03423 0.0
C265 C 0.76763 0.56203 0.06185 0.0
C266 C 0.83882 0.53012 1.03117 0.0
C267 C 0.04059 0.56093 0.06613 0.0
H268 H 0.07927 0.4517 0.07378 0.0
C269 C 0.33929 0.50672 0.10294 0.0
C270 C 0.34138 0.4818 0.07479 0.0
C271 C 0.27107 0.51288 0.10639 0.0
C272 C 0.06933 0.48226 0.07166 0.0
H273 H 0.83029 0.60503 0.10334 0.0
H274 H 0.94898 0.59443 0.09756 0.0
H275 H 0.95232 0.47528 0.06032 0.0
H276 H 0.27816 0.43946 1.03266 0.0
H277 H 0.16003 0.44944 1.03922 0.0
H278 H 0.15762 0.5679 0.07749 0.0
C279 C 0.89925 0.57885 0.07874 0.0
C280 C 0.99638 0.4958 0.06346 0.0
C281 C 0.831 0.58514 0.08192 0.0
C282 C 0.27787 0.45886 1.05454 0.0
C283 C 0.20996 0.46481 0.05816 0.0
C284 C 0.11355 0.54738 0.07436 0.0
C285 C 0.90512 0.54939 1.05534 0.0
C286 C 0.9811 0.5353 0.06052 0.0
C287 C 0.20458 0.49382 0.08212 0.0
C288 C 0.12879 0.50789 0.07724 0.0
H289 H 0.72242 0.51826 1.01843 0.0
H290 H 0.84121 0.50796 1.01207 0.0
H291 H 0.03066 0.59149 0.06394 0.0
H292 H 0.38732 0.52491 0.11883 0.0
H293 H 0.26899 0.53473 0.12585 0.0
C294 C 0.32796 0.52814 0.60224 0.0
C295 C 0.33736 0.56054 0.58286 0.0
C296 C 0.2573 0.52032 0.60255 0.0
C297 C 0.06184 0.55865 0.57595 0.0
H298 H 1.00209 0.45438 0.54309 0.0
C299 C 0.75249 0.5144 0.5272 0.0
C300 C 0.74417 0.48287 0.54793 0.0
C301 C 0.82249 0.52166 0.52589 0.0
C302 C 1.01788 0.48356 0.55228 0.0
H303 H 0.28425 0.61287 0.55385 0.0
H304 H 0.1621 0.59978 0.55503 0.0
H305 H 0.13321 0.47414 0.56141 0.0
H306 H 0.79804 0.43124 0.57826 0.0
H307 H 0.91896 0.44324 0.57517 0.0
H308 H 0.94649 0.56807 0.56678 0.0
C309 C 0.20819 0.57995 0.5694 0.0
C310 C 0.0933 0.49482 0.56323 0.0
C311 C 0.27857 0.58766 0.56896 0.0
C312 C 0.80293 0.45575 0.56206 0.0
C313 C 0.8726 0.46285 0.56055 0.0
C314 C 0.98642 0.5474 0.56494 0.0
C315 C 0.19532 0.545 0.58394 0.0
C316 C 0.11633 0.5325 0.5753 0.0
C317 C 0.88471 0.4972 0.54479 0.0
C318 C 0.96344 0.50972 0.55296 0.0
H319 H 0.37203 0.5066 0.61314 0.0
H320 H 0.24981 0.49365 0.615 0.0
H321 H 0.07759 0.58779 0.58528 0.0
H322 H 0.70839 0.53592 0.51615 0.0
H323 H 0.8295 0.54788 0.51259 0.0
C324 C 0.04875 1.01015 0.44206 0.0
C325 C 1.02473 0.0421 0.45595 0.0
C326 C 0.06648 1.01371 0.41042 0.0
C327 C 1.00884 0.07723 0.32573 0.0
H328 H 0.1279 1.00647 0.29574 0.0
C329 C 0.07351 0.08649 0.19114 0.0
C330 C 0.07528 0.05184 0.17328 0.0
C331 C 0.05514 0.08697 0.22271 0.0
C332 C 0.09359 0.02607 0.30366 0.0
H333 H 1.00896 0.10332 0.45121 0.0
H334 H 0.04537 0.11027 0.39777 0.0
H335 H 0.14172 1.00677 0.36181 0.0
H336 H 0.05276 0.99118 0.17165 0.0
H337 H 1.02072 0.99186 0.22705 0.0
H338 H 0.96299 0.09729 0.26756 0.0
C339 C 0.04738 0.08211 0.40997 0.0
C340 C 0.10175 0.0264 0.34158 0.0
C341 C 1.02842 0.07837 0.44122 0.0
C342 C 0.05027 0.01833 0.18458 0.0
C343 C 0.03324 0.01864 0.21661 0.0
C344 C 1.00174 0.07732 0.28795 0.0
C345 C 0.06109 0.04946 0.39242 0.0
C346 C 0.05899 0.05175 0.35314 0.0
C347 C 0.03988 0.05261 0.2372 0.0
C348 C 0.04335 0.05142 0.27647 0.0
H349 H 0.04471 0.98179 0.45255 0.0
H350 H 0.07678 0.98782 0.39798 0.0
H351 H 0.97339 0.09655 0.33308 0.0
H352 H 0.09418 0.11249 0.18332 0.0
H353 H 0.06064 0.11352 0.23806 0.0
C354 C 0.03842 0.95423 0.94486 0.0
C355 C 0.0373 0.99009 0.96074 0.0
C356 C 0.05465 0.95125 0.91272 0.0
C357 C 0.10271 1.00914 0.84289 0.0
H358 H 0.95919 0.93998 0.76942 0.0
C359 C 1.02867 0.02621 0.68443 0.0
C360 C 0.05761 0.99524 0.67159 0.0
C361 C 1.0151 0.02246 0.71732 0.0
C362 C 0.99925 0.95944 0.78969 0.0
H363 H 0.05971 0.05032 0.95852 0.0
H364 H 0.08653 0.0457 0.90228 0.0
H365 H 0.97652 0.9383 0.8361 0.0
H366 H 0.08578 0.93512 0.67952 0.0
H367 H 0.05806 0.92796 0.73587 0.0
H368 H 0.12253 0.03122 0.7957 0.0
C369 C 0.07634 0.01949 0.91448 0.0
C370 C 1.01037 0.95817 0.82811 0.0
C371 C 0.06169 0.02224 0.94711 0.0
C372 C 0.062 0.95917 0.68852 0.0
C373 C 0.04713 0.95522 0.72105 0.0
C374 C 0.09032 1.01091 0.80437 0.0
C375 C 0.06793 0.98431 0.89534 0.0
C376 C 0.06212 0.98312 0.8553 0.0
C377 C 1.02895 0.98749 0.73719 0.0
C378 C 0.03813 0.9863 0.77741 0.0
H379 H 1.01888 0.9291 0.95473 0.0
H380 H 0.05066 0.92343 0.89978 0.0
H381 H 0.14398 0.02831 0.86284 0.0
H382 H 1.02627 0.05443 0.67222 0.0
H383 H 1.00031 0.04764 0.72911 0.0
C384 C 0.52047 0.58692 0.44037 0.0
C385 C 0.51931 0.55222 0.45857 0.0
C386 C 0.53809 0.5875 0.40856 0.0
C387 C 0.49846 0.52693 0.32783 0.0
H388 H 0.61888 0.59699 0.29765 0.0
C389 C 0.54335 0.51022 0.18974 0.0
C390 C 0.56792 0.54195 0.1756 0.0
C391 C 0.52527 0.51408 0.22121 0.0
C392 C 0.58333 0.5778 0.3052 0.0
H393 H 0.54209 0.49158 0.46049 0.0
H394 H 0.57275 0.49244 0.40465 0.0
H395 H 0.62973 0.59776 0.36325 0.0
H396 H 0.58429 0.60313 0.17968 0.0
H397 H 0.54728 0.61062 0.23281 0.0
H398 H 0.44981 0.50773 0.26982 0.0
C399 C 0.56038 0.51918 0.41503 0.0
C400 C 0.5907 0.57791 0.34303 0.0
C401 C 0.54413 0.51877 0.4473 0.0
C402 C 0.56437 0.57834 0.18985 0.0
C403 C 0.54507 0.58239 0.22094 0.0
C404 C 0.49001 0.52726 0.28986 0.0
C405 C 0.55318 0.5532 0.39417 0.0
C406 C 0.5491 0.55212 0.35479 0.0
C407 C 0.53087 0.54992 0.2388 0.0
C408 C 0.53292 0.55242 0.27804 0.0
H409 H 0.49993 0.61288 0.44817 0.0
H410 H 0.53218 0.61409 0.393 0.0
H411 H 0.46415 0.50744 0.33597 0.0
H412 H 0.54726 0.48176 0.17962 0.0
H413 H 0.51459 0.48832 0.23389 0.0
C414 C 0.55988 0.45268 0.6885 0.0
C415 C 0.56108 0.48818 0.67171 0.0
C416 C 0.54401 0.45051 0.72081 0.0
C417 C 0.49664 0.51006 0.78938 0.0
H418 H 0.63899 0.44102 0.86425 0.0
C419 C 0.56784 0.52847 0.94725 0.0
C420 C 0.53915 0.49759 0.96054 0.0
C421 C 0.58203 0.52444 0.9146 0.0
C422 C 0.59927 0.46046 0.8436 0.0
H423 H 0.53934 0.54862 0.6726 0.0
H424 H 0.5132 0.54539 0.72916 0.0
H425 H 0.62221 0.43849 0.7977 0.0
H426 H 0.51193 0.43738 0.95366 0.0
H427 H 0.54065 0.42973 0.89772 0.0
H428 H 0.4765 0.53293 0.83602 0.0
C429 C 0.52301 0.51886 0.71752 0.0
C430 C 0.58846 0.4587 0.80525 0.0
C431 C 0.53726 0.52081 0.6847 0.0
C432 C 0.53554 0.46137 0.94432 0.0
C433 C 0.55098 0.45714 0.91202 0.0
C434 C 0.50869 0.51231 0.82782 0.0
C435 C 0.53122 0.48402 0.73747 0.0
C436 C 0.53706 0.48357 0.77754 0.0
C437 C 0.56896 0.48928 0.89538 0.0
C438 C 0.56041 0.48771 0.85528 0.0
H439 H 0.57898 0.4272 0.67913 0.0
H440 H 0.54781 0.42293 0.7344 0.0
H441 H 0.45565 0.5292 0.76903 0.0
H442 H 0.56964 0.55681 0.95891 0.0
H443 H 0.59669 0.54953 0.90245 0.0
loop_
_geom_bond_atom_site_label_1
_geom_bond_atom_site_label_2
_geom_bond_distance
_geom_bond_site_symmetry_2
_ccdc_geom_bond_type
O0 Mn1 2.158 1_566 S
O0 C14 1.236 1_556 S
Mn1 O0 2.158 1_544 S
Mn1 O4 2.160 . S
Mn1 O5 2.221 1_554 S
Mn1 O7 2.163 1_445 S
Mn1 O9 2.160 . S
Mn1 O19 2.221 . S
O2 Mn3 2.087 . S
O2 C14 1.256 . S
Mn3 O2 2.087 . S
Mn3 O10 2.089 . S
Mn3 O19 2.290 1_565 S
Mn3 O20 2.251 . S
O4 Mn1 2.160 . S
O4 C15 1.239 1_455 S
O5 Mn1 2.221 1_556 S
O5 Mn6 2.290 1_455 S
O5 C16 1.278 1_455 S
Mn6 O5 2.290 1_655 S
Mn6 O8 2.089 . S
Mn6 O11 2.251 . S
Mn6 O12 2.087 . S
O7 Mn1 2.163 1_665 S
O7 C17 1.246 . S
O8 Mn6 2.089 . S
O8 C15 1.256 1_556 S
O9 Mn1 2.160 . S
O9 C18 1.239 . S
O10 Mn3 2.089 . S
O10 C18 1.256 1_565 S
O11 Mn6 2.251 . S
O11 C16 1.241 . S
O12 Mn6 2.087 . S
O12 C17 1.250 1_546 S
C13 O19 1.278 1_565 S
C13 O20 1.241 . S
C14 O0 1.236 1_554 S
C14 O2 1.256 . S
C15 O4 1.239 1_655 S
C15 O8 1.256 1_554 S
C16 O5 1.278 1_655 S
C16 O11 1.241 . S
C17 O7 1.246 . S
C17 O12 1.250 1_564 S
C18 O9 1.239 . S
C18 O10 1.256 1_545 S
O19 Mn1 2.221 . S
O19 Mn3 2.290 1_545 S
O19 C13 1.278 1_545 S
O20 Mn3 2.251 . S
O20 C13 1.241 . S
O21 Mn22 2.163 1_465 S
O21 C35 1.244 . S
Mn22 O21 2.163 1_645 S
Mn22 O25 2.160 . S
Mn22 O26 2.221 . S
Mn22 O28 2.163 1_545 S
Mn22 O30 2.160 1_655 S
Mn22 O40 2.221 1_655 S
O23 Mn24 2.087 . S
O23 C35 1.256 1_545 S
Mn24 O23 2.087 . S
Mn24 O31 2.089 . S
Mn24 O40 2.290 . S
Mn24 O41 2.251 . S
O25 Mn22 2.160 . S
O25 C36 1.239 . S
O26 Mn22 2.221 . S
O26 Mn27 2.290 1_545 S
O26 C37 1.278 1_545 S
Mn27 O26 2.290 1_565 S
Mn27 O29 2.089 . S
Mn27 O32 2.251 . S
Mn27 O33 2.087 . S
O28 Mn22 2.163 1_565 S
O28 C38 1.244 . S
O29 Mn27 2.089 . S
O29 C36 1.256 1_565 S
O30 Mn22 2.160 1_455 S
O30 C39 1.239 . S
O31 Mn24 2.089 . S
O31 C39 1.256 . S
O32 Mn27 2.251 . S
O32 C37 1.241 . S
O33 Mn27 2.087 . S
O33 C38 1.256 . S
C34 O40 1.278 . S
C34 O41 1.241 . S
C35 O21 1.244 . S
C35 O23 1.256 1_565 S
C36 O25 1.239 . S
C36 O29 1.256 1_545 S
C37 O26 1.278 1_565 S
C37 O32 1.241 . S
C38 O28 1.244 . S
C38 O33 1.256 . S
C39 O30 1.239 . S
C39 O31 1.256 . S
O40 Mn22 2.221 1_455 S
O40 Mn24 2.290 . S
O40 C34 1.278 . S
O41 Mn24 2.251 . S
O41 C34 1.241 . S
O42 Mn43 2.158 1_556 S
O42 C56 1.236 1_556 S
Mn43 O42 2.158 1_554 S
Mn43 O46 2.160 . S
Mn43 O47 2.221 1_554 S
Mn43 O49 2.163 . S
Mn43 O51 2.160 . S
Mn43 O61 2.221 . S
O44 Mn45 2.087 . S
O44 C56 1.256 . S
Mn45 O44 2.087 . S
Mn45 O52 2.089 . S
Mn45 O61 2.290 . S
Mn45 O62 2.251 . S
O46 Mn43 2.160 . S
O46 C57 1.239 . S
O47 Mn43 2.221 1_556 S
O47 Mn48 2.290 . S
O47 C58 1.278 . S
Mn48 O47 2.290 . S
Mn48 O50 2.089 . S
Mn48 O53 2.251 . S
Mn48 O54 2.087 . S
O49 Mn43 2.163 . S
O49 C59 1.246 . S
O50 Mn48 2.089 . S
O50 C57 1.256 1_556 S
O51 Mn43 2.160 . S
O51 C60 1.239 . S
O52 Mn45 2.089 . S
O52 C60 1.256 . S
O53 Mn48 2.251 . S
O53 C58 1.241 . S
O54 Mn48 2.087 . S
O54 C59 1.250 1_556 S
C55 O61 1.278 . S
C55 O62 1.241 . S
C56 O42 1.236 1_554 S
C56 O44 1.256 . S
C57 O46 1.239 . S
C57 O50 1.256 1_554 S
C58 O47 1.278 . S
C58 O53 1.241 . S
C59 O49 1.246 . S
C59 O54 1.250 1_554 S
C60 O51 1.239 . S
C60 O52 1.256 . S
O61 Mn43 2.221 . S
O61 Mn45 2.290 . S
O61 C55 1.278 . S
O62 Mn45 2.251 . S
O62 C55 1.241 . S
O63 Mn64 2.163 . S
O63 C77 1.244 . S
Mn64 O63 2.163 . S
Mn64 O67 2.160 . S
Mn64 O68 2.221 . S
Mn64 O70 2.163 . S
Mn64 O72 2.160 . S
Mn64 O82 2.221 . S
O65 Mn66 2.087 . S
O65 C77 1.256 . S
Mn66 O65 2.087 . S
Mn66 O73 2.089 . S
Mn66 O82 2.290 . S
Mn66 O83 2.251 . S
O67 Mn64 2.160 . S
O67 C78 1.239 . S
O68 Mn64 2.221 . S
O68 Mn69 2.290 . S
O68 C79 1.278 . S
Mn69 O68 2.290 . S
Mn69 O71 2.089 . S
Mn69 O74 2.251 . S
Mn69 O75 2.087 . S
O70 Mn64 2.163 . S
O70 C80 1.244 . S
O71 Mn69 2.089 . S
O71 C78 1.256 . S
O72 Mn64 2.160 . S
O72 C81 1.239 . S
O73 Mn66 2.089 . S
O73 C81 1.256 . S
O74 Mn69 2.251 . S
O74 C79 1.241 . S
O75 Mn69 2.087 . S
O75 C80 1.256 . S
C76 O82 1.278 . S
C76 O83 1.241 . S
C77 O63 1.244 . S
C77 O65 1.256 . S
C78 O67 1.239 . S
C78 O71 1.256 . S
C79 O68 1.278 . S
C79 O74 1.241 . S
C80 O70 1.244 . S
C80 O75 1.256 . S
C81 O72 1.239 . S
C81 O73 1.256 . S
O82 Mn64 2.221 . S
O82 Mn66 2.290 . S
O82 C76 1.278 . S
O83 Mn66 2.251 . S
O83 C76 1.241 . S
C84 C85 1.349 . S
C84 C86 1.327 . S
C84 H109 0.950 . S
C85 C84 1.349 . S
C85 C101 1.349 1_554 S
C86 C84 1.327 . S
C86 C105 1.429 . S
C86 H110 0.950 . S
C87 C104 1.574 . S
C87 C106 1.368 1_556 S
C87 H111 0.949 . S
H88 C92 0.949 . S
C89 C90 1.349 1_556 S
C89 C91 1.327 . S
C89 H112 0.950 . S
C90 C89 1.349 1_554 S
C90 C102 1.349 . S
C91 C89 1.327 . S
C91 C107 1.429 1_556 S
C91 H113 0.950 . S
C92 H88 0.949 . S
C92 C100 1.574 . S
C92 C108 1.368 . S
H93 C101 0.950 . S
H94 C99 0.950 . S
H95 C100 0.949 . S
H96 C102 0.950 . S
H97 C103 0.950 . S
H98 C104 0.949 . S
C99 H94 0.950 . S
C99 C101 1.327 . S
C99 C105 1.429 1_556 S
C100 C92 1.574 . S
C100 H95 0.949 . S
C100 C106 1.368 . S
C101 C85 1.349 1_556 S
C101 H93 0.950 . S
C101 C99 1.327 . S
C102 C90 1.349 . S
C102 H96 0.950 . S
C102 C103 1.327 . S
C103 H97 0.950 . S
C103 C102 1.327 . S
C103 C107 1.429 . S
C104 C87 1.574 . S
C104 H98 0.949 . S
C104 C108 1.368 1_556 S
C105 C86 1.429 . S
C105 C99 1.429 1_554 S
C105 C106 1.523 . S
C106 C87 1.368 1_554 S
C106 C100 1.368 . S
C106 C105 1.523 . S
C107 C91 1.429 1_554 S
C107 C103 1.429 . S
C107 C108 1.523 . S
C108 C92 1.368 . S
C108 C104 1.368 1_554 S
C108 C107 1.523 . S
H109 C84 0.950 . S
H110 C86 0.950 . S
H111 C87 0.949 . S
H112 C89 0.950 . S
H113 C91 0.950 . S
C114 C115 1.349 1_556 S
C114 C116 1.327 . S
C114 H139 0.950 . S
C115 C114 1.349 1_554 S
C115 C131 1.349 . S
C116 C114 1.327 . S
C116 C135 1.429 1_556 S
C116 H140 0.950 . S
C117 C134 1.574 . S
C117 C136 1.368 . S
C117 H141 0.949 . S
H118 C122 0.949 . S
C119 C120 1.349 . S
C119 C121 1.327 . S
C119 H142 0.950 . S
C120 C119 1.349 . S
C120 C132 1.349 1_554 S
C121 C119 1.327 . S
C121 C137 1.429 . S
C121 H143 0.950 . S
C122 H118 0.949 . S
C122 C130 1.574 . S
C122 C138 1.368 1_556 S
H123 C131 0.950 . S
H124 C129 0.950 . S
H125 C130 0.949 . S
H126 C132 0.950 . S
H127 C133 0.950 . S
H128 C134 0.949 . S
C129 H124 0.950 . S
C129 C131 1.327 . S
C129 C135 1.429 . S
C130 C122 1.574 . S
C130 H125 0.949 . S
C130 C136 1.368 1_556 S
C131 C115 1.349 . S
C131 H123 0.950 . S
C131 C129 1.327 . S
C132 C120 1.349 1_556 S
C132 H126 0.950 . S
C132 C133 1.327 . S
C133 H127 0.950 . S
C133 C132 1.327 . S
C133 C137 1.429 1_556 S
C134 C117 1.574 . S
C134 H128 0.949 . S
C134 C138 1.368 . S
C135 C116 1.429 1_554 S
C135 C129 1.429 . S
C135 C136 1.523 . S
C136 C117 1.368 . S
C136 C130 1.368 1_554 S
C136 C135 1.523 . S
C137 C121 1.429 . S
C137 C133 1.429 1_554 S
C137 C138 1.523 . S
C138 C122 1.368 1_554 S
C138 C134 1.368 . S
C138 C137 1.523 . S
H139 C114 0.950 . S
H140 C116 0.950 . S
H141 C117 0.949 . S
H142 C119 0.950 . S
H143 C121 0.950 . S
C144 C145 1.349 . S
C144 C146 1.327 . S
C144 H169 0.950 . S
C145 C144 1.349 . S
C145 C161 1.349 . S
C146 C144 1.327 . S
C146 C165 1.429 . S
C146 H170 0.950 . S
C147 C164 1.574 . S
C147 C166 1.368 . S
C147 H171 0.949 . S
H148 C152 0.949 . S
C149 C150 1.349 . S
C149 C151 1.327 . S
C149 H172 0.950 . S
C150 C149 1.349 . S
C150 C162 1.349 . S
C151 C149 1.327 . S
C151 C167 1.429 . S
C151 H173 0.950 . S
C152 H148 0.949 . S
C152 C160 1.574 . S
C152 C168 1.368 . S
H153 C161 0.950 . S
H154 C159 0.950 . S
H155 C160 0.949 . S
H156 C162 0.950 . S
H157 C163 0.950 . S
H158 C164 0.949 . S
C159 H154 0.950 . S
C159 C161 1.327 . S
C159 C165 1.429 . S
C160 C152 1.574 . S
C160 H155 0.949 . S
C160 C166 1.368 . S
C161 C145 1.349 . S
C161 H153 0.950 . S
C161 C159 1.327 . S
C162 C150 1.349 . S
C162 H156 0.950 . S
C162 C163 1.327 . S
C163 H157 0.950 . S
C163 C162 1.327 . S
C163 C167 1.429 . S
C164 C147 1.574 . S
C164 H158 0.949 . S
C164 C168 1.368 . S
C165 C146 1.429 . S
C165 C159 1.429 . S
C165 C166 1.523 . S
C166 C147 1.368 . S
C166 C160 1.368 . S
C166 C165 1.523 . S
C167 C151 1.429 . S
C167 C163 1.429 . S
C167 C168 1.523 . S
C168 C152 1.368 . S
C168 C164 1.368 . S
C168 C167 1.523 . S
H169 C144 0.950 . S
H170 C146 0.950 . S
H171 C147 0.949 . S
H172 C149 0.950 . S
H173 C151 0.950 . S
C174 C175 1.349 . S
C174 C176 1.327 . S
C174 H199 0.950 . S
C175 C174 1.349 . S
C175 C191 1.349 . S
C176 C174 1.327 . S
C176 C195 1.429 . S
C176 H200 0.950 . S
C177 C194 1.574 . S
C177 C196 1.368 . S
C177 H201 0.949 . S
H178 C182 0.949 . S
C179 C180 1.349 . S
C179 C181 1.327 . S
C179 H202 0.950 . S
C180 C179 1.349 . S
C180 C192 1.349 . S
C181 C179 1.327 . S
C181 C197 1.429 . S
C181 H203 0.950 . S
C182 H178 0.949 . S
C182 C190 1.574 . S
C182 C198 1.368 . S
H183 C191 0.950 . S
H184 C189 0.950 . S
H185 C190 0.949 . S
H186 C192 0.950 . S
H187 C193 0.950 . S
H188 C194 0.949 . S
C189 H184 0.950 . S
C189 C191 1.327 . S
C189 C195 1.429 . S
C190 C182 1.574 . S
C190 H185 0.949 . S
C190 C196 1.368 . S
C191 C175 1.349 . S
C191 H183 0.950 . S
C191 C189 1.327 . S
C192 C180 1.349 . S
C192 H186 0.950 . S
C192 C193 1.327 . S
C193 H187 0.950 . S
C193 C192 1.327 . S
C193 C197 1.429 . S
C194 C177 1.574 . S
C194 H188 0.949 . S
C194 C198 1.368 . S
C195 C176 1.429 . S
C195 C189 1.429 . S
C195 C196 1.523 . S
C196 C177 1.368 . S
C196 C190 1.368 . S
C196 C195 1.523 . S
C197 C181 1.429 . S
C197 C193 1.429 . S
C197 C198 1.523 . S
C198 C182 1.368 . S
C198 C194 1.368 . S
C198 C197 1.523 . S
H199 C174 0.950 . S
H200 C176 0.950 . S
H201 C177 0.949 . S
H202 C179 0.950 . S
H203 C181 0.950 . S
C204 C205 1.329 1_566 S
C204 C206 1.331 . S
C204 H229 0.967 . S
C205 C204 1.329 1_544 S
C205 C221 1.349 . S
C206 C204 1.331 . S
C206 C225 1.429 1_566 S
C206 H230 0.950 . S
C207 C224 1.574 . S
C207 C226 1.368 . S
C207 H231 0.949 . S
H208 C212 0.949 . S
C209 C210 1.349 1_545 S
C209 C211 1.327 . S
C209 H232 0.950 . S
C210 C209 1.349 1_565 S
C210 C222 1.349 1_554 S
C211 C209 1.327 . S
C211 C227 1.431 . S
C211 H233 0.950 . S
C212 H208 0.949 . S
C212 C220 1.574 . S
C212 C228 1.368 1_566 S
H213 C221 0.950 . S
H214 C219 0.950 . S
H215 C220 0.949 . S
H216 C222 0.950 . S
H217 C223 0.950 . S
H218 C224 0.949 . S
C219 H214 0.950 . S
C219 C221 1.327 . S
C219 C225 1.429 . S
C220 C212 1.574 . S
C220 H215 0.949 . S
C220 C226 1.368 1_566 S
C221 C205 1.349 . S
C221 H213 0.950 . S
C221 C219 1.327 . S
C222 C210 1.349 1_556 S
C222 H216 0.950 . S
C222 C223 1.327 . S
C223 H217 0.950 . S
C223 C222 1.327 . S
C223 C227 1.426 1_566 S
C224 C207 1.574 . S
C224 H218 0.949 . S
C224 C228 1.368 . S
C225 C206 1.429 1_544 S
C225 C219 1.429 . S
C225 C226 1.523 . S
C226 C207 1.368 . S
C226 C220 1.368 1_544 S
C226 C225 1.523 . S
C227 C211 1.431 . S
C227 C223 1.426 1_544 S
C227 C228 1.523 . S
C228 C212 1.368 1_544 S
C228 C224 1.368 . S
C228 C227 1.523 . S
H229 C204 0.967 . S
H230 C206 0.950 . S
H231 C207 0.949 . S
H232 C209 0.950 . S
H233 C211 0.950 . S
C234 C235 1.349 . S
C234 C236 1.327 . S
C234 H259 0.950 . S
C235 C234 1.349 . S
C235 C251 1.349 1_565 S
C236 C234 1.327 . S
C236 C255 1.425 1_565 S
C236 H260 0.950 . S
C237 C254 1.574 . S
C237 C256 1.368 . S
C237 H261 0.949 . S
H238 C242 0.949 . S
C239 C240 1.349 . S
C239 C241 1.327 . S
C239 H262 0.950 . S
C240 C239 1.349 . S
C240 C252 1.349 1_545 S
C241 C239 1.327 . S
C241 C257 1.429 . S
C241 H263 0.950 . S
C242 H238 0.949 . S
C242 C250 1.574 . S
C242 C258 1.368 1_565 S
H243 C251 0.950 . S
H244 C249 0.950 . S
H245 C250 0.949 . S
H246 C252 0.950 . S
H247 C253 0.950 . S
H248 C254 0.949 . S
C249 H244 0.950 . S
C249 C251 1.327 . S
C249 C255 1.431 . S
C250 C242 1.574 . S
C250 H245 0.949 . S
C250 C256 1.368 1_565 S
C251 C235 1.349 1_545 S
C251 H243 0.950 . S
C251 C249 1.327 . S
C252 C240 1.349 1_565 S
C252 H246 0.950 . S
C252 C253 1.327 . S
C253 H247 0.950 . S
C253 C252 1.327 . S
C253 C257 1.429 1_565 S
C254 C237 1.574 . S
C254 H248 0.949 . S
C254 C258 1.368 . S
C255 C236 1.425 1_545 S
C255 C249 1.431 . S
C255 C256 1.523 . S
C256 C237 1.368 . S
C256 C250 1.368 1_545 S
C256 C255 1.523 . S
C257 C241 1.429 . S
C257 C253 1.429 1_545 S
C257 C258 1.523 . S
C258 C242 1.368 1_545 S
C258 C254 1.368 . S
C258 C257 1.523 . S
H259 C234 0.950 . S
H260 C236 0.950 . S
H261 C237 0.949 . S
H262 C239 0.950 . S
H263 C241 0.950 . S
C264 C265 1.349 1_556 S
C264 C266 1.327 . S
C264 H289 0.950 . S
C265 C264 1.349 1_554 S
C265 C281 1.349 . S
C266 C264 1.327 . S
C266 C285 1.429 1_556 S
C266 H290 0.950 . S
C267 C284 1.574 . S
C267 C286 1.368 1_455 S
C267 H291 0.949 1_455 S
H268 C272 0.949 . S
C269 C270 1.349 . S
C269 C271 1.327 . S
C269 H292 0.950 . S
C270 C269 1.349 . S
C270 C282 1.349 1_554 S
C271 C269 1.327 . S
C271 C287 1.429 . S
C271 H293 0.950 . S
C272 H268 0.949 . S
C272 C280 1.574 1_455 S
C272 C288 1.368 1_556 S
H273 C281 0.950 . S
H274 C279 0.950 . S
H275 C280 0.949 . S
H276 C282 0.950 . S
H277 C283 0.950 . S
H278 C284 0.949 . S
C279 H274 0.950 . S
C279 C281 1.327 . S
C279 C285 1.429 . S
C280 C272 1.574 1_655 S
C280 H275 0.949 . S
C280 C286 1.368 1_556 S
C281 C265 1.349 . S
C281 H273 0.950 . S
C281 C279 1.327 . S
C282 C270 1.349 1_556 S
C282 H276 0.950 . S
C282 C283 1.327 . S
C283 H277 0.950 . S
C283 C282 1.327 . S
C283 C287 1.429 1_556 S
C284 C267 1.574 . S
C284 H278 0.949 . S
C284 C288 1.368 . S
C285 C266 1.429 1_554 S
C285 C279 1.429 . S
C285 C286 1.523 . S
C286 C267 1.368 1_655 S
C286 C280 1.368 1_554 S
C286 C285 1.523 . S
C287 C271 1.429 . S
C287 C283 1.429 1_554 S
C287 C288 1.523 . S
C288 C272 1.368 1_554 S
C288 C284 1.368 . S
C288 C287 1.523 . S
H289 C264 0.950 . S
H290 C266 0.950 . S
H291 C267 0.949 1_655 S
H292 C269 0.950 . S
H293 C271 0.950 . S
C294 C295 1.349 . S
C294 C296 1.327 . S
C294 H319 0.950 . S
C295 C294 1.349 . S
C295 C311 1.349 . S
C296 C294 1.327 . S
C296 C315 1.429 . S
C296 H320 0.950 . S
C297 C314 1.574 1_455 S
C297 C316 1.368 . S
C297 H321 0.949 . S
H298 C302 0.949 . S
C299 C300 1.349 . S
C299 C301 1.327 . S
C299 H322 0.950 . S
C300 C299 1.349 . S
C300 C312 1.349 . S
C301 C299 1.327 . S
C301 C317 1.429 . S
C301 H323 0.950 . S
C302 H298 0.949 . S
C302 C310 1.574 1_655 S
C302 C318 1.368 . S
H303 C311 0.950 . S
H304 C309 0.950 . S
H305 C310 0.949 . S
H306 C312 0.950 . S
H307 C313 0.950 . S
H308 C314 0.949 . S
C309 H304 0.950 . S
C309 C311 1.327 . S
C309 C315 1.429 . S
C310 C302 1.574 1_455 S
C310 H305 0.949 . S
C310 C316 1.368 . S
C311 C295 1.349 . S
C311 H303 0.950 . S
C311 C309 1.327 . S
C312 C300 1.349 . S
C312 H306 0.950 . S
C312 C313 1.327 . S
C313 H307 0.950 . S
C313 C312 1.327 . S
C313 C317 1.429 . S
C314 C297 1.574 1_655 S
C314 H308 0.949 . S
C314 C318 1.368 . S
C315 C296 1.429 . S
C315 C309 1.429 . S
C315 C316 1.523 . S
C316 C297 1.368 . S
C316 C310 1.368 . S
C316 C315 1.523 . S
C317 C301 1.429 . S
C317 C313 1.429 . S
C317 C318 1.523 . S
C318 C302 1.368 . S
C318 C314 1.368 . S
C318 C317 1.523 . S
H319 C294 0.950 . S
H320 C296 0.950 . S
H321 C297 0.949 . S
H322 C299 0.950 . S
H323 C301 0.950 . S
C324 C325 1.349 1_665 S
C324 C326 1.327 . S
C324 H349 0.950 . S
C325 C324 1.349 1_445 S
C325 C341 1.349 . S
C326 C324 1.327 . S
C326 C345 1.429 1_665 S
C326 H350 0.950 . S
C327 C344 1.574 . S
C327 C346 1.368 . S
C327 H351 0.949 . S
H328 C332 0.949 . S
C329 C330 1.349 . S
C329 C331 1.327 . S
C329 H352 0.950 . S
C330 C329 1.349 . S
C330 C342 1.349 1_445 S
C331 C329 1.327 . S
C331 C347 1.429 . S
C331 H353 0.950 . S
C332 H328 0.949 . S
C332 C340 1.574 . S
C332 C348 1.368 1_665 S
H333 C341 0.950 . S
H334 C339 0.950 . S
H335 C340 0.949 . S
H336 C342 0.950 . S
H337 C343 0.950 . S
H338 C344 0.949 . S
C339 H334 0.950 . S
C339 C341 1.327 . S
C339 C345 1.429 . S
C340 C332 1.574 . S
C340 H335 0.949 . S
C340 C346 1.368 1_665 S
C341 C325 1.349 . S
C341 H333 0.950 . S
C341 C339 1.327 . S
C342 C330 1.349 1_665 S
C342 H336 0.950 . S
C342 C343 1.327 . S
C343 H337 0.950 . S
C343 C342 1.327 . S
C343 C347 1.429 1_665 S
C344 C327 1.574 . S
C344 H338 0.949 . S
C344 C348 1.368 . S
C345 C326 1.429 1_445 S
C345 C339 1.429 . S
C345 C346 1.523 . S
C346 C327 1.368 . S
C346 C340 1.368 1_445 S
C346 C345 1.523 . S
C347 C331 1.429 . S
C347 C343 1.429 1_445 S
C347 C348 1.523 . S
C348 C332 1.368 1_445 S
C348 C344 1.368 . S
C348 C347 1.523 . S
H349 C324 0.950 . S
H350 C326 0.950 . S
H351 C327 0.949 . S
H352 C329 0.950 . S
H353 C331 0.950 . S
C354 C355 1.349 1_655 S
C354 C356 1.327 . S
C354 H379 0.950 . S
C355 C354 1.349 1_455 S
C355 C371 1.349 1_565 S
C356 C354 1.327 . S
C356 C375 1.429 1_655 S
C356 H380 0.950 . S
C357 C374 1.574 . S
C357 C376 1.368 1_545 S
C357 H381 0.949 . S
H358 C362 0.949 . S
C359 C360 1.349 1_545 S
C359 C361 1.327 . S
C359 H382 0.950 . S
C360 C359 1.349 1_565 S
C360 C372 1.349 1_455 S
C361 C359 1.327 . S
C361 C377 1.429 1_545 S
C361 H383 0.950 . S
C362 H358 0.949 . S
C362 C370 1.574 . S
C362 C378 1.368 1_655 S
H363 C371 0.950 . S
H364 C369 0.950 . S
H365 C370 0.949 . S
H366 C372 0.950 . S
H367 C373 0.950 . S
H368 C374 0.949 . S
C369 H364 0.950 . S
C369 C371 1.327 . S
C369 C375 1.429 1_545 S
C370 C362 1.574 . S
C370 H365 0.949 . S
C370 C376 1.368 1_655 S
C371 C355 1.349 1_545 S
C371 H363 0.950 . S
C371 C369 1.327 . S
C372 C360 1.349 1_655 S
C372 H366 0.950 . S
C372 C373 1.327 . S
C373 H367 0.950 . S
C373 C372 1.327 . S
C373 C377 1.429 1_655 S
C374 C357 1.574 . S
C374 H368 0.949 . S
C374 C378 1.368 1_545 S
C375 C356 1.429 1_455 S
C375 C369 1.429 1_565 S
C375 C376 1.523 . S
C376 C357 1.368 1_565 S
C376 C370 1.368 1_455 S
C376 C375 1.523 . S
C377 C361 1.429 1_565 S
C377 C373 1.429 1_455 S
C377 C378 1.523 . S
C378 C362 1.368 1_455 S
C378 C374 1.368 1_565 S
C378 C377 1.523 . S
H379 C354 0.950 . S
H380 C356 0.950 . S
H381 C357 0.949 . S
H382 C359 0.950 . S
H383 C361 0.950 . S
C384 C385 1.349 . S
C384 C386 1.327 . S
C384 H409 0.950 . S
C385 C384 1.349 . S
C385 C401 1.349 . S
C386 C384 1.327 . S
C386 C405 1.429 . S
C386 H410 0.950 . S
C387 C404 1.574 . S
C387 C406 1.368 . S
C387 H411 0.949 . S
H388 C392 0.949 . S
C389 C390 1.349 . S
C389 C391 1.327 . S
C389 H412 0.950 . S
C390 C389 1.349 . S
C390 C402 1.349 . S
C391 C389 1.327 . S
C391 C407 1.429 . S
C391 H413 0.950 . S
C392 H388 0.949 . S
C392 C400 1.574 . S
C392 C408 1.368 . S
H393 C401 0.950 . S
H394 C399 0.950 . S
H395 C400 0.949 . S
H396 C402 0.950 . S
H397 C403 0.950 . S
H398 C404 0.949 . S
C399 H394 0.950 . S
C399 C401 1.327 . S
C399 C405 1.429 . S
C400 C392 1.574 . S
C400 H395 0.949 . S
C400 C406 1.368 . S
C401 C385 1.349 . S
C401 H393 0.950 . S
C401 C399 1.327 . S
C402 C390 1.349 . S
C402 H396 0.950 . S
C402 C403 1.327 . S
C403 H397 0.950 . S
C403 C402 1.327 . S
C403 C407 1.429 . S
C404 C387 1.574 . S
C404 H398 0.949 . S
C404 C408 1.368 . S
C405 C386 1.429 . S
C405 C399 1.429 . S
C405 C406 1.523 . S
C406 C387 1.368 . S
C406 C400 1.368 . S
C406 C405 1.523 . S
C407 C391 1.429 . S
C407 C403 1.429 . S
C407 C408 1.523 . S
C408 C392 1.368 . S
C408 C404 1.368 . S
C408 C407 1.523 . S
H409 C384 0.950 . S
H410 C386 0.950 . S
H411 C387 0.949 . S
H412 C389 0.950 . S
H413 C391 0.950 . S
C414 C415 1.349 . S
C414 C416 1.327 . S
C414 H439 0.950 . S
C415 C414 1.349 . S
C415 C431 1.349 . S
C416 C414 1.327 . S
C416 C435 1.429 . S
C416 H440 0.950 . S
C417 C434 1.574 . S
C417 C436 1.368 . S
C417 H441 0.949 . S
H418 C422 0.949 . S
C419 C420 1.349 . S
C419 C421 1.327 . S
C419 H442 0.950 . S
C420 C419 1.349 . S
C420 C432 1.349 . S
C421 C419 1.327 . S
C421 C437 1.429 . S
C421 H443 0.950 . S
C422 H418 0.949 . S
C422 C430 1.574 . S
C422 C438 1.368 . S
H423 C431 0.950 . S
H424 C429 0.950 . S
H425 C430 0.949 . S
H426 C432 0.950 . S
H427 C433 0.950 . S
H428 C434 0.949 . S
C429 H424 0.950 . S
C429 C431 1.327 . S
C429 C435 1.429 . S
C430 C422 1.574 . S
C430 H425 0.949 . S
C430 C436 1.368 . S
C431 C415 1.349 . S
C431 H423 0.950 . S
C431 C429 1.327 . S
C432 C420 1.349 . S
C432 H426 0.950 . S
C432 C433 1.327 . S
C433 H427 0.950 . S
C433 C432 1.327 . S
C433 C437 1.429 . S
C434 C417 1.574 . S
C434 H428 0.949 . S
C434 C438 1.368 . S
C435 C416 1.429 . S
C435 C429 1.429 . S
C435 C436 1.523 . S
C436 C417 1.368 . S
C436 C430 1.368 . S
C436 C435 1.523 . S
C437 C421 1.429 . S
C437 C433 1.429 . S
C437 C438 1.523 . S
C438 C422 1.368 . S
C438 C434 1.368 . S
C438 C437 1.523 . S
H439 C414 0.950 . S
H440 C416 0.950 . S
H441 C417 0.949 . S
H442 C419 0.950 . S
H443 C421 0.950 . S
C85 C57 1.471 . S
C90 C14 1.483 . S
C115 C56 1.483 . S
C120 C15 1.471 . S
C145 C39 1.471 . S
C150 C80 1.483 . S
C175 C38 1.483 . S
C180 C81 1.471 . S
C205 C18 0.755 . S
C210 C17 0.759 . S
C235 C35 0.755 . S
C240 C36 0.755 . S
C265 C60 0.755 . S
C270 C59 0.759 . S
C295 C78 0.755 . S
C300 C77 0.755 . S
C325 C37 1.287 1_445 S
C330 C13 1.287 1_545 S
C355 C16 1.303 1_465 S
C360 C34 1.303 1_565 S
C385 C79 1.287 . S
C390 C55 1.287 . S
C415 C76 1.303 . S
C420 C58 1.303 . S
