# Generated by pormake.
# Topology sxa, (6)-cn, num edge types: 1
# Building blocks:
#     Node 0, Type 0, BuildingBlock: UKALOJ_clean_sbu_0, # of connection points: 6
#     Node 1, Type 0, BuildingBlock: UKALOJ_clean_sbu_0, # of connection points: 6
#     Node 2, Type 0, BuildingBlock: UKALOJ_clean_sbu_0, # of connection points: 6
#     Node 3, Type 0, BuildingBlock: UKALOJ_clean_sbu_0, # of connection points: 6
#     Edge 4, Type (0, 0), BuildingBlock: TEMPAE_clean_linker_10, # of connection points: 2
#     Edge 5, Type (0, 0), BuildingBlock: TEMPAE_clean_linker_10, # of connection points: 2
#     Edge 6, Type (0, 0), BuildingBlock: TEMPAE_clean_linker_10, # of connection points: 2
#     Edge 7, Type (0, 0), BuildingBlock: TEMPAE_clean_linker_10, # of connection points: 2
#     Edge 8, Type (0, 0), BuildingBlock: TEMPAE_clean_linker_10, # of connection points: 2
#     Edge 9, Type (0, 0), BuildingBlock: TEMPAE_clean_linker_10, # of connection points: 2
#     Edge 10, Type (0, 0), BuildingBlock: TEMPAE_clean_linker_10, # of connection points: 2
#     Edge 11, Type (0, 0), BuildingBlock: TEMPAE_clean_linker_10, # of connection points: 2
#     Edge 12, Type (0, 0), BuildingBlock: TEMPAE_clean_linker_10, # of connection points: 2
#     Edge 13, Type (0, 0), BuildingBlock: TEMPAE_clean_linker_10, # of connection points: 2
#     Edge 14, Type (0, 0), BuildingBlock: TEMPAE_clean_linker_10, # of connection points: 2
#     Edge 15, Type (0, 0), BuildingBlock: TEMPAE_clean_linker_10, # of connection points: 2
# Relax obj value: 0.136
# Max RMSD: 0.193
# Mean RMSD: 0.193
data_MOF--net-sxa--node1-UKALOJ_clean_sbu_0--edge1-TEMPAE_clean_linker_10
_symmetry_space_group_name_H-M    P1
_symmetry_Int_Tables_number       1
_symmetry_cell_setting            triclinic
loop_
_symmetry_equiv_pos_as_xyz
'x, y, z'
_cell_length_a     24.377182
_cell_length_b     38.14399
_cell_length_c     15.459759
_cell_angle_alpha  90.083245
_cell_angle_beta   89.505327
_cell_angle_gamma 90.198589
loop_
_atom_site_label
_atom_site_type_symbol
_atom_site_fract_x
_atom_site_fract_y
_atom_site_fract_z
_atom_type_partial_charge
Zn0 Zn 0.9644 0.81579 0.23932 0.0
O1 O 0.04492 0.82061 0.285 0.0
C2 C 0.00455 0.79148 0.06642 0.0
Zn3 Zn 0.97172 0.75665 0.22756 0.0
C4 C 0.0746 0.79339 0.2912 0.0
O5 O 0.05466 0.76344 0.27181 0.0
C6 C 0.86206 0.77962 0.1827 0.0
O7 O 0.94011 0.75384 0.35643 0.0
O8 O 0.93404 0.8115 0.36732 0.0
N9 N -0.01709 0.70233 0.21909 0.0
C10 C 0.97664 0.67985 0.15184 0.0
C11 C 0.00979 0.65055 0.2559 0.0
N12 N 0.00345 0.6839 0.28359 0.0
N13 N -0.00622 0.64716 0.17294 0.0
C14 C 0.98114 0.89588 0.19436 0.0
C15 C 0.90144 0.91592 0.22077 0.0
N16 N 0.95218 0.86998 0.23407 0.0
N17 N 0.90284 0.8828 0.25083 0.0
N18 N 0.94973 0.92492 0.18346 0.0
H19 H 0.06268 0.87722 0.22025 0.0
H20 H 0.06047 0.91963 0.17099 0.0
H21 H 0.04626 0.88085 0.10795 0.0
C22 C 0.04101 0.89331 0.17213 0.0
C23 C 0.95131 0.6896 0.06714 0.0
H24 H 0.92361 0.71228 0.07414 0.0
H25 H 0.92791 0.66716 0.0402 0.0
H26 H -0.01584 0.69686 0.02047 0.0
O27 O 0.89014 0.75174 0.18637 0.0
O28 O 0.88395 0.80914 0.19805 0.0
C29 C 0.9252 0.78107 0.39866 0.0
O30 O -0.00735 0.81843 0.11088 0.0
O31 O -0.00013 0.76139 0.10043 0.0
Zn32 Zn 0.50918 0.28229 0.22003 0.0
O33 O 0.48072 0.26985 0.34624 0.0
C34 C 0.40037 0.30511 0.17805 0.0
Zn35 Zn 0.49929 0.3397 0.2515 0.0
C36 C 0.46065 0.2937 0.3952 0.0
O37 O 0.46425 0.3259 0.37287 0.0
C38 C 0.54406 0.32747 0.07608 0.0
O39 O 0.57827 0.34314 0.30639 0.0
O40 O 0.59097 0.28871 0.26304 0.0
N41 N 0.48678 0.3936 0.26722 0.0
C42 C 0.4762 0.41799 0.2059 0.0
C43 C 0.49026 0.44565 0.32324 0.0
N44 N 0.49521 0.41098 0.34025 0.0
N45 N 0.47834 0.45062 0.23922 0.0
C46 C 0.49805 0.20097 0.17139 0.0
C47 C 0.57911 0.19261 0.12413 0.0
N48 N 0.52692 0.2308 0.18588 0.0
N49 N 0.57725 0.22521 0.15674 0.0
N50 N 0.52995 0.17637 0.13104 0.0
H51 H 0.42988 0.21509 0.25338 0.0
H52 H 0.43307 0.16921 0.22513 0.0
H53 H 0.41194 0.20134 0.14604 0.0
C54 C 0.43986 0.19625 0.20088 0.0
C55 C 0.46424 0.41048 0.11261 0.0
H56 H 0.4462 0.38411 0.10378 0.0
H57 H 0.50291 0.41239 0.07446 0.0
H58 H 0.43552 0.43032 0.08672 0.0
O59 O 0.53454 0.35095 0.13191 0.0
O60 O 0.53447 0.29573 0.09468 0.0
C61 C 0.60937 0.31665 0.29733 0.0
O62 O 0.42923 0.27755 0.17975 0.0
O63 O 0.42059 0.33462 0.19873 0.0
Zn64 Zn 0.00948 0.31499 0.77158 0.0
O65 O 0.97735 0.31787 0.64533 0.0
C66 C 0.89949 0.29678 0.83321 0.0
Zn67 Zn -0.00382 0.25603 0.77583 0.0
C68 C 0.95754 0.29002 0.61187 0.0
O69 O 0.96234 0.26079 0.6511 0.0
C70 C 0.0441 0.28089 0.93613 0.0
O71 O 0.07698 0.24874 0.72241 0.0
O72 O 0.08856 0.30623 0.72146 0.0
N73 N 0.9787 0.20226 0.78182 0.0
C74 C 0.00314 0.17555 0.82433 0.0
C75 C 0.92477 0.15727 0.78514 0.0
N76 N 0.93014 0.19057 0.75719 0.0
N77 N 0.96962 0.14695 0.82893 0.0
C78 C 0.00523 0.39298 0.83749 0.0
C79 C 0.06296 0.41914 0.75588 0.0
N80 N 0.02361 0.36904 0.77924 0.0
N81 N 0.0595 0.38551 0.72871 0.0
N82 N 0.02904 0.42457 0.82385 0.0
H83 H 0.92401 0.38673 0.88835 0.0
H84 H 0.97213 0.40413 0.96494 0.0
H85 H 0.97378 0.35831 0.93673 0.0
C86 C 0.9669 0.38503 0.91142 0.0
C87 C 0.06049 0.17749 0.85771 0.0
H88 H 0.08466 0.19763 0.82267 0.0
H89 H 0.08117 0.15176 0.85066 0.0
H90 H 0.05912 0.18477 0.92706 0.0
O91 O 0.02815 0.2532 0.89864 0.0
O92 O 0.04014 0.31024 0.89813 0.0
C93 C 0.10686 0.27558 0.70686 0.0
O94 O 0.93095 0.32227 0.8159 0.0
O95 O 0.91685 0.26551 0.82741 0.0
Zn96 Zn 0.46985 0.83381 0.78038 0.0
O97 O 0.43708 0.83059 0.6529 0.0
C98 C 0.36183 0.81086 0.84479 0.0
Zn99 Zn 0.46454 0.77489 0.7978 0.0
C100 C 0.42204 0.80033 0.6263 0.0
O101 O 0.43236 0.77322 0.67154 0.0
C102 C 0.50643 0.80756 0.95362 0.0
O103 O 0.54666 0.77039 0.74988 0.0
O104 O 0.55099 0.8277 0.73208 0.0
N105 N 0.45549 0.72092 0.81373 0.0
C106 C 0.48243 0.69772 0.86411 0.0
C107 C 0.41053 0.67207 0.81888 0.0
N108 N 0.41101 0.70471 0.78549 0.0
N109 N 0.45454 0.66691 0.86961 0.0
C110 C 0.46937 0.91215 0.84383 0.0
C111 C 0.5041 0.94002 0.73762 0.0
N112 N 0.47768 0.88858 0.77919 0.0
N113 N 0.49921 0.90613 0.71332 0.0
N114 N 0.48625 0.94475 0.81982 0.0
H115 H 0.41725 0.87971 0.92576 0.0
H116 H 0.41769 0.92533 0.95318 0.0
H117 H 0.47579 0.89784 0.97731 0.0
C118 C 0.44327 0.90327 0.92946 0.0
C119 C 0.53737 0.70477 0.90352 0.0
H120 H 0.56039 0.72471 0.86588 0.0
H121 H 0.56179 0.6803 0.90653 0.0
H122 H 0.53172 0.71485 0.97014 0.0
O123 O 0.49317 0.77807 0.92257 0.0
O124 O 0.50109 0.83486 0.90773 0.0
C125 C 0.5735 0.79766 0.72709 0.0
O126 O 0.38877 0.83795 0.82328 0.0
O127 O 0.38418 0.78091 0.84334 0.0
C128 C 0.06928 0.47201 0.91185 0.0
C129 C 0.02339 0.45656 0.87321 0.0
C130 C 0.06437 0.50278 0.96186 0.0
C131 C 0.01247 0.51915 0.97147 0.0
C132 C 0.96611 0.5038 0.93117 0.0
C133 C 0.97204 0.47249 0.88343 0.0
C134 C 0.11467 0.51757 1.00519 0.0
C135 C 0.9103 0.52063 0.9378 0.0
C136 C -0.01173 0.58249 0.16018 0.0
C137 C -0.00297 0.61534 0.12139 0.0
C138 C -0.00682 0.55109 0.11249 0.0
C139 C 0.0068 0.55235 0.02318 0.0
C140 C 0.01587 0.58541 0.98366 0.0
C141 C 0.01189 0.61631 0.0334 0.0
C142 C -0.01564 0.51652 0.15799 0.0
C143 C 0.03019 0.58817 0.8887 0.0
H144 H 0.10888 0.45949 0.90421 0.0
H145 H 0.93671 0.4606 0.8529 0.0
H146 H 0.12311 0.54443 0.98108 0.0
H147 H 0.10744 0.51956 0.07599 0.0
H148 H 0.15162 0.5012 0.99351 0.0
H149 H 0.87864 0.50585 0.90138 0.0
H150 H 0.89722 0.52234 1.00656 0.0
H151 H 0.91234 0.54781 0.91237 0.0
H152 H 0.97757 0.58139 0.22829 0.0
H153 H 0.02171 0.64114 1.00343 0.0
H154 H 0.02168 0.50011 0.15144 0.0
H155 H 0.9502 0.50191 0.12741 0.0
H156 H 0.97474 0.51991 0.22786 0.0
H157 H 0.07012 0.57527 0.8757 0.0
H158 H 0.0329 0.61582 0.86653 0.0
H159 H -0.00113 0.57432 0.8496 0.0
C160 C 0.52117 0.49162 0.13585 0.0
C161 C 0.47799 0.48334 0.19265 0.0
C162 C 0.52007 0.52222 0.08513 0.0
C163 C 0.47406 0.54481 0.08998 0.0
C164 C 0.43045 0.53656 0.1481 0.0
C165 C 0.4332 0.50604 0.19928 0.0
C166 C 0.56786 0.53013 0.0255 0.0
C167 C 0.3802 0.55944 0.15442 0.0
C168 C 0.48487 0.63905 1.0069 0.0
C169 C 0.46326 0.63621 0.92316 0.0
C170 C 0.48976 0.60953 0.061 0.0
C171 C 0.47082 0.57635 0.0323 0.0
C172 C 0.44832 0.57336 0.94837 0.0
C173 C 0.4451 0.60316 0.89497 0.0
C174 C 0.51448 0.61399 0.14955 0.0
C175 C 0.42672 0.53873 0.91537 0.0
H176 H 0.55564 0.47384 0.13092 0.0
H177 H 0.39968 0.49927 0.24268 0.0
H178 H 0.55405 0.52973 0.95733 0.0
H179 H 0.58403 0.55682 0.03876 0.0
H180 H 0.60173 0.51097 0.03262 0.0
H181 H 0.3504 0.54983 0.20378 0.0
H182 H 0.39215 0.5867 0.17102 0.0
H183 H 0.3595 0.56033 0.09081 0.0
H184 H 0.49636 0.66447 0.03179 0.0
H185 H 0.42762 0.60073 0.83103 0.0
H186 H 0.54846 0.59507 0.15834 0.0
H187 H 0.48312 0.60828 0.20003 0.0
H188 H 0.53056 0.64094 0.16013 0.0
H189 H 0.4599 0.51891 0.9151 0.0
H190 H 0.41003 0.54078 0.84894 0.0
H191 H 0.3938 0.52893 0.95916 0.0
C192 C 0.49471 0.97862 0.95797 0.0
C193 C 0.48781 0.97768 0.8677 0.0
C194 C 0.49596 1.01049 1.00401 0.0
C195 C 0.49459 1.0427 0.95865 0.0
C196 C 0.48983 1.04213 0.86731 0.0
C197 C 0.48557 1.00981 0.82338 0.0
C198 C 0.49974 1.00958 0.10144 0.0
C199 C 0.49108 0.07565 0.81553 0.0
C200 C 0.46579 0.13006 0.07352 0.0
C201 C 0.51894 0.14183 0.09402 0.0
C202 C 0.45706 0.0974 0.03246 0.0
C203 C 0.5025 0.07672 1.00612 0.0
C204 C 0.5561 0.08864 0.02486 0.0
C205 C 0.56346 0.12029 0.06996 0.0
C206 C 0.39907 0.08515 0.0166 0.0
C207 C 0.60607 0.06843 0.99522 0.0
H208 H 0.50072 0.95467 0.99342 0.0
H209 H 0.48134 1.00965 0.75368 0.0
H210 H 0.54131 1.01789 0.12174 0.0
H211 H 0.46991 1.02811 0.13092 0.0
H212 H 0.49167 0.98295 0.12774 0.0
H213 H 0.48757 0.07081 0.74491 0.0
H214 H 0.45709 0.09306 0.83622 0.0
H215 H 0.53002 0.08994 0.82766 0.0
H216 H 0.4307 0.1463 0.08686 0.0
H217 H 0.60487 0.12868 0.08442 0.0
H218 H 0.39364 0.0578 0.03969 0.0
H219 H 0.39065 0.08527 0.94625 0.0
H220 H 0.36829 0.10205 0.04958 0.0
H221 H 0.60702 1.04244 0.02712 0.0
H222 H 0.64497 0.08241 0.00982 0.0
H223 H 0.60425 0.06374 0.92442 0.0
C224 C 0.9291 0.9873 0.15456 0.0
C225 C 0.95926 0.95696 0.13447 0.0
C226 C 0.93279 1.01773 0.1033 0.0
C227 C 0.96887 1.01858 0.03094 0.0
C228 C 0.0003 0.98838 0.01103 0.0
C229 C -0.00607 0.95775 0.06122 0.0
C230 C 0.89679 0.04868 0.12537 0.0
C231 C 0.04027 0.98821 0.9359 0.0
C232 C 0.94102 0.08516 0.85185 0.0
C233 C 0.97395 0.11391 0.87585 0.0
C234 C 0.93917 0.05408 0.90104 0.0
C235 C 0.97249 0.05079 0.97522 0.0
C236 C 0.00716 0.07908 0.9985 0.0
C237 C 0.00622 0.11047 0.95046 0.0
C238 C 0.89991 1.02527 0.87533 0.0
C239 C 0.0445 0.07654 0.07566 0.0
H240 H 0.90147 0.98695 0.20982 0.0
H241 H 0.01503 0.93426 0.0409 0.0
H242 H 0.92246 0.07199 0.13965 0.0
H243 H 0.87084 0.05535 0.06914 0.0
H244 H 0.86965 1.0435 0.18205 0.0
H245 H 0.06594 0.96419 0.93465 0.0
H246 H 0.01762 0.98976 0.87415 0.0
H247 H 0.06765 1.01148 0.93919 0.0
H248 H 0.91528 0.08733 0.79534 0.0
H249 H 0.02947 0.13242 0.97427 0.0
H250 H 0.87023 1.02032 0.92883 0.0
H251 H 0.92251 1.00051 0.86376 0.0
H252 H 0.87664 1.03184 0.81609 0.0
H253 H 0.0197 0.0764 0.13612 0.0
H254 H 0.07398 0.09878 0.07872 0.0
H255 H 0.06794 0.05166 0.07342 0.0
C256 C 0.37776 0.82195 0.48961 0.0
C257 C 0.38112 0.79722 0.55632 0.0
C258 C 0.33311 0.82172 0.43221 0.0
C259 C 0.2896 0.7974 0.4449 0.0
C260 C 0.2935 0.77205 0.51139 0.0
C261 C 0.33977 0.77171 0.56445 0.0
C262 C 0.33152 0.84841 0.36046 0.0
C263 C 0.24756 0.74631 0.53001 0.0
C264 C 0.14396 0.82221 0.38538 0.0
C265 C 0.13129 0.79657 0.3237 0.0
C266 C 0.19614 0.82388 0.4229 0.0
C267 C 0.2375 0.80017 0.39532 0.0
C268 C 0.2261 0.7762 0.32756 0.0
C269 C 0.1727 0.77404 0.29415 0.0
C270 C 0.20581 0.85096 0.49264 0.0
C271 C 0.26991 0.75242 0.29102 0.0
H272 H 0.40945 0.84181 0.48325 0.0
H273 H 0.34153 0.75281 0.61668 0.0
H274 H 0.31411 0.83683 0.30069 0.0
H275 H 0.30499 0.87058 0.3805 0.0
H276 H 0.37305 0.859 0.34555 0.0
H277 H 0.25268 0.73289 0.59315 0.0
H278 H 0.2072 0.75968 0.53048 0.0
H279 H 0.2466 0.72603 0.47866 0.0
H280 H 0.11227 0.84013 0.40722 0.0
H281 H 0.16344 0.75485 0.2445 0.0
H282 H 0.23785 0.84306 0.53911 0.0
H283 H 0.1674 0.85647 0.52932 0.0
H284 H 0.21907 0.87584 0.46171 0.0
H285 H 0.31041 0.76582 0.28929 0.0
H286 H 0.25971 0.74356 0.22455 0.0
H287 H 0.27358 0.72884 0.33235 0.0
C288 C 0.1752 0.28987 0.5932 0.0
C289 C 0.16222 0.27196 0.66952 0.0
C290 C 0.22863 0.28954 0.55916 0.0
C291 C 0.27067 0.27191 0.60449 0.0
C292 C 0.25772 0.25388 0.68224 0.0
C293 C 0.20322 0.25369 0.71328 0.0
C294 C 0.24013 0.30896 0.47574 0.0
C295 C 0.30168 0.23632 0.73471 0.0
C296 C 0.39275 0.25228 0.46 0.0
C297 C 0.42241 0.28379 0.46609 0.0
C298 C 0.34505 0.24675 0.50972 0.0
C299 C 0.32774 0.27283 0.56916 0.0
C300 C 0.36111 0.3028 0.58263 0.0
C301 C 0.40758 0.30825 0.52981 0.0
C302 C 0.31049 0.21457 0.49272 0.0
C303 C 0.34542 0.33053 0.64792 0.0
H304 H 0.14335 0.30428 0.56013 0.0
H305 H 0.19309 0.24057 0.77357 0.0
H306 H 0.26682 0.29331 0.43205 0.0
H307 H 0.20184 0.31554 0.44094 0.0
H308 H 0.26208 0.33377 0.49018 0.0
H309 H 0.28424 0.22082 0.78924 0.0
H310 H 0.32699 0.21881 0.69343 0.0
H311 H 0.32952 0.25661 0.76151 0.0
H312 H 0.40383 0.23326 0.41078 0.0
H313 H 0.43058 0.33251 0.53533 0.0
H314 H 0.2694 0.22248 0.46954 0.0
H315 H 0.30414 0.19965 0.55347 0.0
H316 H 0.32946 0.19692 0.44377 0.0
H317 H 0.31235 0.34709 0.62116 0.0
H318 H 0.38072 0.34779 0.6639 0.0
H319 H 0.32955 0.31839 0.70837 0.0
C320 C 0.87895 0.26641 0.52847 0.0
C321 C 0.9187 0.29271 0.53915 0.0
C322 C 0.83272 0.272 0.47726 0.0
C323 C 0.82693 0.30426 0.43325 0.0
C324 C 0.86957 0.32951 0.43667 0.0
C325 C 0.91467 0.32369 0.49083 0.0
C326 C 0.78804 0.24445 0.47598 0.0
C327 C 0.86605 0.36345 0.38708 0.0
C328 C 0.70809 0.30232 0.27702 0.0
C329 C 0.66646 0.31771 0.3271 0.0
C330 C 0.76202 0.30043 0.30763 0.0
C331 C 0.77368 0.31264 0.39201 0.0
C332 C 0.73197 0.32931 0.44146 0.0
C333 C 0.67898 0.33222 0.4076 0.0
C334 C 0.80557 0.2839 0.25103 0.0
C335 C 0.74218 0.34194 0.53248 0.0
H336 H 0.8816 0.24237 0.56552 0.0
H337 H 0.94547 0.34402 0.49821 0.0
H338 H 0.75021 0.25511 0.50647 0.0
H339 H 0.77795 0.23729 0.40843 0.0
H340 H 0.79982 0.22026 0.51108 0.0
H341 H 0.90609 0.37745 0.38476 0.0
H342 H 0.85221 0.35849 0.31994 0.0
H343 H 0.83543 0.38088 0.41845 0.0
H344 H 0.69833 0.29144 0.21416 0.0
H345 H 0.64656 0.34402 0.44618 0.0
H346 H 0.80888 0.25565 0.26697 0.0
H347 H 0.8463 0.29622 0.26139 0.0
H348 H 0.79511 0.28609 0.18147 0.0
H349 H 0.74913 0.31904 0.57523 0.0
H350 H 0.70706 0.35721 0.55871 0.0
H351 H 0.77951 0.35857 0.53487 0.0
C352 C 0.88259 0.80124 0.53827 0.0
C353 C 0.88439 0.77741 0.46929 0.0
C354 C 0.83669 0.80264 0.5941 0.0
C355 C 0.7904 0.78112 0.57724 0.0
C356 C 0.79294 0.75628 0.50908 0.0
C357 C 0.84048 0.75409 0.45763 0.0
C358 C 0.83667 0.82858 0.66779 0.0
C359 C 0.74404 0.73376 0.48601 0.0
C360 C 0.66555 0.76858 0.72393 0.0
C361 C 0.63019 0.79454 0.69307 0.0
C362 C 0.71923 0.7653 0.69071 0.0
C363 C 0.73698 0.78748 0.62244 0.0
C364 C 0.70157 0.81422 0.59245 0.0
C365 C 0.64908 0.81778 0.62934 0.0
C366 C 0.75711 0.7384 0.72919 0.0
C367 C 0.71843 0.83932 0.52139 0.0
H368 H 0.91629 0.8195 0.54694 0.0
H369 H 0.84125 0.73614 0.40316 0.0
H370 H 0.8154 0.85282 0.64747 0.0
H371 H 0.81467 0.81789 0.72519 0.0
H372 H 0.8791 0.83582 0.68672 0.0
H373 H 0.75053 0.719 0.42477 0.0
H374 H 0.73574 0.71464 0.53843 0.0
H375 H 0.70682 0.75016 0.47915 0.0
H376 H 0.65149 0.75116 0.77494 0.0
H377 H 0.62207 0.83818 0.60614 0.0
H378 H 0.79674 0.7509 0.74648 0.0
H379 H 0.76618 0.71761 0.68106 0.0
H380 H 0.7392 0.72591 0.7879 0.0
H381 H 0.74682 0.82717 0.4737 0.0
H382 H 0.73966 0.86215 0.55063 0.0
H383 H 0.68216 0.84941 0.48637 0.0
C384 C 0.27948 0.81072 0.93814 0.0
C385 C 0.30284 0.81314 0.85595 0.0
C386 C 0.22247 0.8098 0.94817 0.0
C387 C 0.1888 0.81039 0.87356 0.0
C388 C 0.21267 0.81318 0.79026 0.0
C389 C 0.26982 0.81505 0.78257 0.0
C390 C 0.19849 0.80698 0.03849 0.0
C391 C 0.17856 0.81378 0.70927 0.0
C392 C 0.06163 0.76652 0.94826 0.0
C393 C 0.03496 0.79558 0.9845 0.0
C394 C 0.10881 0.77118 0.89765 0.0
C395 C 0.12915 0.80554 0.88482 0.0
C396 C 0.09614 0.83471 0.90596 0.0
C397 C 0.04844 0.8293 0.95507 0.0
C398 C 0.14127 0.73941 0.87003 0.0
C399 C 0.11519 0.8717 0.88849 0.0
H400 H 0.30582 0.8091 0.99418 0.0
H401 H 0.28883 0.81679 0.71897 0.0
H402 H 0.16777 0.82795 0.04957 0.0
H403 H 0.17714 0.78142 0.04621 0.0
H404 H 0.23032 0.80905 0.08929 0.0
H405 H 0.20209 0.8035 0.65301 0.0
H406 H 0.14025 0.79823 0.71623 0.0
H407 H 0.1671 0.84127 0.69494 0.0
H408 H 0.04988 0.74023 0.96754 0.0
H409 H 0.02564 0.85175 0.97857 0.0
H410 H 0.17474 0.73488 0.91692 0.0
H411 H 0.16029 0.74353 0.80534 0.0
H412 H 0.11514 0.71549 0.86798 0.0
H413 H 0.14642 0.8792 0.93705 0.0
H414 H 0.0808 0.89068 0.89292 0.0
H415 H 0.13457 0.87366 0.82349 0.0
C416 C 0.08414 0.3054 0.07046 0.0
C417 C 0.08011 0.278 0.01062 0.0
C418 C 0.13037 0.30822 0.1232 0.0
C419 C 0.17375 0.28411 0.11152 0.0
C420 C 0.16682 0.2543 0.05823 0.0
C421 C 0.1194 0.25139 1.00933 0.0
C422 C 0.13536 0.33902 0.18392 0.0
C423 C 0.2126 0.22834 0.04222 0.0
C424 C 0.31773 0.319 0.09487 0.0
C425 C 0.34186 0.3021 0.16448 0.0
C426 C 0.26184 0.31456 0.07909 0.0
C427 C 0.22979 0.29382 0.13674 0.0
C428 C 0.25374 0.27855 0.21041 0.0
C429 C 0.31013 0.2825 0.22285 0.0
C430 C 0.23799 0.33027 0.99797 0.0
C431 C 0.22014 0.25749 0.27445 0.0
H432 H 0.05326 0.32581 0.07168 0.0
H433 H 0.11684 0.23063 0.96182 0.0
H434 H 0.15783 0.33161 0.24326 0.0
H435 H 0.15871 0.36037 0.15155 0.0
H436 H 0.09439 0.3494 0.20258 0.0
H437 H 0.2449 0.24087 1.00157 0.0
H438 H 0.23183 0.22026 0.10368 0.0
H439 H 0.19793 0.20444 1.00818 0.0
H440 H 0.34304 0.33438 0.05097 0.0
H441 H 0.32955 0.2703 0.27802 0.0
H442 H 0.20303 0.34759 0.01466 0.0
H443 H 0.22215 0.30909 0.95554 0.0
H444 H 0.26869 0.34581 0.96066 0.0
H445 H 0.24588 0.24561 0.32542 0.0
H446 H 0.19734 0.23624 0.24132 0.0
H447 H 0.18917 0.27475 0.30558 0.0
C448 C 0.62039 0.36102 0.01288 0.0
C449 C 0.57963 0.33548 1.00205 0.0
C450 C 0.66952 0.35884 0.96632 0.0
C451 C 0.67594 0.33169 0.90469 0.0
C452 C 0.63073 0.31038 0.88196 0.0
C453 C 0.58301 0.31198 0.93266 0.0
C454 C 0.71698 0.38179 0.99374 0.0
C455 C 0.63518 0.28281 0.81223 0.0
C456 C 0.8152 0.32881 0.79758 0.0
C457 C 0.84163 0.30389 0.84895 0.0
C458 C 0.7601 0.33703 0.81201 0.0
C459 C 0.73178 0.32051 0.88071 0.0
C460 C 0.75822 0.2948 0.93184 0.0
C461 C 0.81293 0.28632 0.91413 0.0
C462 C 0.73236 0.36348 0.75463 0.0
C463 C 0.72947 0.27727 1.00731 0.0
H464 H 0.6174 0.37956 0.06598 0.0
H465 H 0.55072 0.29276 0.92319 0.0
H466 H 0.74225 0.3902 0.93756 0.0
H467 H 0.70274 0.4055 0.02908 0.0
H468 H 0.74384 0.36659 0.03746 0.0
H469 H 0.59412 0.27543 0.78726 0.0
H470 H 0.66122 0.2921 0.7576 0.0
H471 H 0.65442 0.25894 0.83924 0.0
H472 H 0.83767 0.34171 0.74569 0.0
H473 H 0.83386 0.267 0.95313 0.0
H474 H 0.71543 0.38537 0.79367 0.0
H475 H 0.69724 0.35084 0.72156 0.0
H476 H 0.76082 0.37455 0.70519 0.0
H477 H 0.71519 0.2974 0.05417 0.0
H478 H 0.75648 0.25856 0.04161 0.0
H479 H 0.6928 0.26278 0.98459 0.0
C480 C 0.77961 0.76723 0.09563 0.0
C481 C 0.80283 0.77798 0.17331 0.0
C482 C 0.72328 0.77137 0.08223 0.0
C483 C 0.69013 0.7859 0.14921 0.0
C484 C 0.71311 0.79386 0.23043 0.0
C485 C 0.76966 0.79031 0.24107 0.0
C486 C 0.70004 0.76246 0.99451 0.0
C487 C 0.67941 0.80804 0.30483 0.0
C488 C 0.57792 0.83559 0.04269 0.0
C489 C 0.53971 0.80848 0.03221 0.0
C490 C 0.62536 0.82999 0.09079 0.0
C491 C 0.63369 0.79676 0.12893 0.0
C492 C 0.59062 0.77196 0.13171 0.0
C493 C 0.54351 0.77826 0.08329 0.0
C494 C 0.66945 0.85788 0.09117 0.0
C495 C 0.59691 0.73724 0.17703 0.0
H496 H 0.8059 0.75761 0.04391 0.0
H497 H 0.78821 0.79812 0.30174 0.0
H498 H 0.66393 0.74489 1.00165 0.0
H499 H 0.68599 0.78678 0.96227 0.0
H500 H 0.73066 0.74947 0.95167 0.0
H501 H 0.6918 0.79518 0.3659 0.0
H502 H 0.6877 0.83653 0.31189 0.0
H503 H 0.63468 0.80407 0.29652 0.0
H504 H 0.57421 0.8595 1.00537 0.0
H505 H 0.51239 0.75799 0.07849 0.0
H506 H 0.7039 0.84962 0.04841 0.0
H507 H 0.68591 0.86132 0.15733 0.0
H508 H 0.654 0.88354 0.06799 0.0
H509 H 0.62266 0.71962 0.13657 0.0
H510 H 0.55662 0.72422 0.18819 0.0
H511 H 0.61776 0.74076 0.24003 0.0
loop_
_geom_bond_atom_site_label_1
_geom_bond_atom_site_label_2
_geom_bond_distance
_geom_bond_site_symmetry_2
_ccdc_geom_bond_type
Zn0 O1 2.055 1_655 S
Zn0 O8 2.046 . S
Zn0 N16 2.036 . S
Zn0 O28 2.053 . S
Zn0 O30 2.066 1_655 S
O1 Zn0 2.055 1_455 S
O1 C4 1.259 . S
C2 O30 1.256 . S
C2 O31 1.244 . S
Zn3 O5 2.046 . S
Zn3 O7 2.055 1_455 S
Zn3 N9 2.036 . S
Zn3 O27 2.066 1_455 S
Zn3 O31 2.053 . S
C4 O1 1.259 . S
C4 O5 1.254 . S
O5 Zn3 2.046 . S
O5 C4 1.254 . S
C6 O27 1.256 . S
C6 O28 1.244 . S
O7 Zn3 2.055 1_655 S
O7 C29 1.259 . S
O8 Zn0 2.046 . S
O8 C29 1.254 . S
N9 Zn3 2.036 . S
N9 C10 1.298 1_455 S
N9 N12 1.398 . S
C10 N9 1.298 1_655 S
C10 N13 1.367 . S
C10 C23 1.481 . S
C11 N12 1.299 . S
C11 N13 1.379 1_455 S
N12 N9 1.398 . S
N12 C11 1.299 . S
N13 C10 1.367 . S
N13 C11 1.379 1_655 S
C14 N16 1.298 1_455 S
C14 N18 1.367 . S
C14 C22 1.481 . S
C15 N17 1.299 . S
C15 N18 1.379 1_655 S
N16 Zn0 2.036 . S
N16 C14 1.298 1_655 S
N16 N17 1.398 . S
N17 C15 1.299 . S
N17 N16 1.398 . S
N18 C14 1.367 . S
N18 C15 1.379 1_455 S
H19 C22 0.980 . S
H20 C22 0.981 . S
H21 C22 0.981 . S
C22 C14 1.481 . S
C22 H19 0.980 . S
C22 H20 0.981 . S
C22 H21 0.981 . S
C23 C10 1.481 . S
C23 H24 0.980 . S
C23 H25 0.981 . S
C23 H26 0.981 . S
H24 C23 0.980 . S
H25 C23 0.981 . S
H26 C23 0.981 . S
O27 Zn3 2.066 1_655 S
O27 C6 1.256 . S
O28 Zn0 2.053 . S
O28 C6 1.244 . S
C29 O7 1.259 . S
C29 O8 1.254 . S
O30 Zn0 2.066 1_455 S
O30 C2 1.256 . S
O31 C2 1.244 . S
O31 Zn3 2.053 . S
Zn32 O33 2.055 . S
Zn32 O40 2.046 . S
Zn32 N48 2.036 . S
Zn32 O60 2.053 . S
Zn32 O62 2.066 . S
O33 Zn32 2.055 . S
O33 C36 1.259 . S
C34 O62 1.256 . S
C34 O63 1.244 . S
Zn35 O37 2.046 . S
Zn35 O39 2.055 . S
Zn35 N41 2.036 . S
Zn35 O59 2.066 . S
Zn35 O63 2.053 . S
C36 O33 1.259 . S
C36 O37 1.254 . S
O37 Zn35 2.046 . S
O37 C36 1.254 . S
C38 O59 1.256 . S
C38 O60 1.244 . S
O39 Zn35 2.055 . S
O39 C61 1.259 . S
O40 Zn32 2.046 . S
O40 C61 1.254 . S
N41 Zn35 2.036 . S
N41 C42 1.298 . S
N41 N44 1.398 . S
C42 N41 1.298 . S
C42 N45 1.367 . S
C42 C55 1.481 . S
C43 N44 1.299 . S
C43 N45 1.379 . S
N44 N41 1.398 . S
N44 C43 1.299 . S
N45 C42 1.367 . S
N45 C43 1.379 . S
C46 N48 1.298 . S
C46 N50 1.367 . S
C46 C54 1.481 . S
C47 N49 1.299 . S
C47 N50 1.379 . S
N48 Zn32 2.036 . S
N48 C46 1.298 . S
N48 N49 1.398 . S
N49 C47 1.299 . S
N49 N48 1.398 . S
N50 C46 1.367 . S
N50 C47 1.379 . S
H51 C54 0.980 . S
H52 C54 0.981 . S
H53 C54 0.981 . S
C54 C46 1.481 . S
C54 H51 0.980 . S
C54 H52 0.981 . S
C54 H53 0.981 . S
C55 C42 1.481 . S
C55 H56 0.980 . S
C55 H57 0.981 . S
C55 H58 0.981 . S
H56 C55 0.980 . S
H57 C55 0.981 . S
H58 C55 0.981 . S
O59 Zn35 2.066 . S
O59 C38 1.256 . S
O60 Zn32 2.053 . S
O60 C38 1.244 . S
C61 O39 1.259 . S
C61 O40 1.254 . S
O62 Zn32 2.066 . S
O62 C34 1.256 . S
O63 C34 1.244 . S
O63 Zn35 2.053 . S
Zn64 O65 2.055 1_455 S
Zn64 O72 2.046 . S
Zn64 N80 2.036 . S
Zn64 O92 2.053 . S
Zn64 O94 2.066 1_455 S
O65 Zn64 2.055 1_655 S
O65 C68 1.259 . S
C66 O94 1.256 . S
C66 O95 1.244 . S
Zn67 O69 2.046 . S
Zn67 O71 2.055 1_655 S
Zn67 N73 2.036 . S
Zn67 O91 2.066 1_655 S
Zn67 O95 2.053 . S
C68 O65 1.259 . S
C68 O69 1.254 . S
O69 Zn67 2.046 . S
O69 C68 1.254 . S
C70 O91 1.256 . S
C70 O92 1.244 . S
O71 Zn67 2.055 1_455 S
O71 C93 1.259 . S
O72 Zn64 2.046 . S
O72 C93 1.254 . S
N73 Zn67 2.036 . S
N73 C74 1.298 1_655 S
N73 N76 1.398 . S
C74 N73 1.298 1_455 S
C74 N77 1.367 . S
C74 C87 1.481 . S
C75 N76 1.299 . S
C75 N77 1.379 1_655 S
N76 N73 1.398 . S
N76 C75 1.299 . S
N77 C74 1.367 . S
N77 C75 1.379 1_455 S
C78 N80 1.298 1_655 S
C78 N82 1.367 . S
C78 C86 1.481 . S
C79 N81 1.299 . S
C79 N82 1.379 1_455 S
N80 Zn64 2.036 . S
N80 C78 1.298 1_455 S
N80 N81 1.398 . S
N81 C79 1.299 . S
N81 N80 1.398 . S
N82 C78 1.367 . S
N82 C79 1.379 1_655 S
H83 C86 0.980 . S
H84 C86 0.981 . S
H85 C86 0.981 . S
C86 C78 1.481 . S
C86 H83 0.980 . S
C86 H84 0.981 . S
C86 H85 0.981 . S
C87 C74 1.481 . S
C87 H88 0.980 . S
C87 H89 0.981 . S
C87 H90 0.981 . S
H88 C87 0.980 . S
H89 C87 0.981 . S
H90 C87 0.981 . S
O91 Zn67 2.066 1_455 S
O91 C70 1.256 . S
O92 Zn64 2.053 . S
O92 C70 1.244 . S
C93 O71 1.259 . S
C93 O72 1.254 . S
O94 Zn64 2.066 1_655 S
O94 C66 1.256 . S
O95 C66 1.244 . S
O95 Zn67 2.053 . S
Zn96 O97 2.055 . S
Zn96 O104 2.046 . S
Zn96 N112 2.036 . S
Zn96 O124 2.053 . S
Zn96 O126 2.066 . S
O97 Zn96 2.055 . S
O97 C100 1.259 . S
C98 O126 1.256 . S
C98 O127 1.244 . S
Zn99 O101 2.046 . S
Zn99 O103 2.055 . S
Zn99 N105 2.036 . S
Zn99 O123 2.066 . S
Zn99 O127 2.053 . S
C100 O97 1.259 . S
C100 O101 1.254 . S
O101 Zn99 2.046 . S
O101 C100 1.254 . S
C102 O123 1.256 . S
C102 O124 1.244 . S
O103 Zn99 2.055 . S
O103 C125 1.259 . S
O104 Zn96 2.046 . S
O104 C125 1.254 . S
N105 Zn99 2.036 . S
N105 C106 1.298 . S
N105 N108 1.398 . S
C106 N105 1.298 . S
C106 N109 1.367 . S
C106 C119 1.481 . S
C107 N108 1.299 . S
C107 N109 1.379 . S
N108 N105 1.398 . S
N108 C107 1.299 . S
N109 C106 1.367 . S
N109 C107 1.379 . S
C110 N112 1.298 . S
C110 N114 1.367 . S
C110 C118 1.481 . S
C111 N113 1.299 . S
C111 N114 1.379 . S
N112 Zn96 2.036 . S
N112 C110 1.298 . S
N112 N113 1.398 . S
N113 C111 1.299 . S
N113 N112 1.398 . S
N114 C110 1.367 . S
N114 C111 1.379 . S
H115 C118 0.980 . S
H116 C118 0.981 . S
H117 C118 0.981 . S
C118 C110 1.481 . S
C118 H115 0.980 . S
C118 H116 0.981 . S
C118 H117 0.981 . S
C119 C106 1.481 . S
C119 H120 0.980 . S
C119 H121 0.981 . S
C119 H122 0.981 . S
H120 C119 0.980 . S
H121 C119 0.981 . S
H122 C119 0.981 . S
O123 Zn99 2.066 . S
O123 C102 1.256 . S
O124 Zn96 2.053 . S
O124 C102 1.244 . S
C125 O103 1.259 . S
C125 O104 1.254 . S
O126 Zn96 2.066 . S
O126 C98 1.256 . S
O127 C98 1.244 . S
O127 Zn99 2.053 . S
C128 C129 1.391 1_455 S
C128 C130 1.394 . S
C128 H144 0.931 . S
C129 C128 1.391 1_655 S
C129 C133 1.376 . S
C130 C128 1.394 . S
C130 C131 1.369 1_455 S
C130 C134 1.531 . S
C131 C130 1.369 1_655 S
C131 C132 1.410 . S
C131 C139 1.503 1_556 S
C132 C131 1.410 . S
C132 C133 1.392 . S
C132 C135 1.511 . S
C133 C129 1.376 . S
C133 C132 1.392 . S
C133 H145 0.929 . S
C134 C130 1.531 . S
C134 H146 0.960 . S
C134 H147 0.962 1_556 S
C134 H148 0.960 . S
C135 C132 1.511 . S
C135 H149 0.961 . S
C135 H150 0.962 1_556 S
C135 H151 0.961 . S
C136 C137 1.370 . S
C136 C138 1.363 . S
C136 H152 0.931 . S
C137 C136 1.370 . S
C137 C141 1.408 . S
C138 C136 1.363 . S
C138 C139 1.370 . S
C138 C142 1.524 . S
C139 C131 1.503 1_554 S
C139 C138 1.370 . S
C139 C140 1.403 1_554 S
C140 C139 1.403 1_556 S
C140 C141 1.404 1_556 S
C140 C143 1.539 . S
C141 C137 1.408 . S
C141 C140 1.404 1_554 S
C141 H153 0.930 1_554 S
C142 C138 1.524 . S
C142 H154 0.956 1_655 S
C142 H155 0.961 . S
C142 H156 0.961 . S
C143 C140 1.539 . S
C143 H157 0.958 1_655 S
C143 H158 0.961 . S
C143 H159 0.960 . S
H144 C128 0.931 . S
H145 C133 0.929 . S
H146 C134 0.960 . S
H147 C134 0.962 1_554 S
H148 C134 0.960 . S
H149 C135 0.961 . S
H150 C135 0.962 1_554 S
H151 C135 0.961 . S
H152 C136 0.931 . S
H153 C141 0.930 1_556 S
H154 C142 0.956 1_455 S
H155 C142 0.961 . S
H156 C142 0.961 . S
H157 C143 0.958 1_455 S
H158 C143 0.961 . S
H159 C143 0.960 . S
C160 C161 1.391 . S
C160 C162 1.394 . S
C160 H176 0.931 . S
C161 C160 1.391 . S
C161 C165 1.376 . S
C162 C160 1.394 . S
C162 C163 1.369 . S
C162 C166 1.531 . S
C163 C162 1.369 . S
C163 C164 1.410 . S
C163 C171 1.503 1_554 S
C164 C163 1.410 . S
C164 C165 1.392 . S
C164 C167 1.511 1_554 S
C165 C161 1.376 . S
C165 C164 1.392 . S
C165 H177 0.929 . S
C166 C162 1.531 . S
C166 H178 0.960 1_554 S
C166 H179 0.962 . S
C166 H180 0.960 . S
C167 C164 1.511 1_556 S
C167 H181 0.961 . S
C167 H182 0.961 . S
C167 H183 0.961 . S
C168 C169 1.370 . S
C168 C170 1.363 1_556 S
C168 H184 0.931 1_556 S
C169 C168 1.370 . S
C169 C173 1.408 . S
C170 C168 1.363 1_554 S
C170 C171 1.370 1_554 S
C170 C174 1.524 . S
C171 C163 1.503 1_556 S
C171 C170 1.370 1_556 S
C171 C172 1.403 . S
C172 C171 1.403 . S
C172 C173 1.404 . S
C172 C175 1.539 . S
C173 C169 1.408 . S
C173 C172 1.404 . S
C173 H185 0.930 . S
C174 C170 1.524 . S
C174 H186 0.956 . S
C174 H187 0.961 . S
C174 H188 0.961 . S
C175 C172 1.539 . S
C175 H189 0.958 . S
C175 H190 0.961 . S
C175 H191 0.960 . S
H176 C160 0.931 . S
H177 C165 0.929 . S
H178 C166 0.960 1_556 S
H179 C166 0.962 . S
H180 C166 0.960 . S
H181 C167 0.961 . S
H182 C167 0.961 . S
H183 C167 0.961 . S
H184 C168 0.931 1_554 S
H185 C173 0.930 . S
H186 C174 0.956 . S
H187 C174 0.961 . S
H188 C174 0.961 . S
H189 C175 0.958 . S
H190 C175 0.961 . S
H191 C175 0.960 . S
C192 C193 1.391 . S
C192 C194 1.394 1_556 S
C192 H208 0.931 1_556 S
C193 C192 1.391 . S
C193 C197 1.376 . S
C194 C192 1.394 1_554 S
C194 C195 1.369 1_554 S
C194 C198 1.531 . S
C195 C194 1.369 1_556 S
C195 C196 1.410 . S
C195 C203 1.503 1_566 S
C196 C195 1.410 . S
C196 C197 1.392 . S
C196 C199 1.511 1_565 S
C197 C193 1.376 . S
C197 C196 1.392 . S
C197 H209 0.929 . S
C198 C194 1.531 . S
C198 H210 0.960 . S
C198 H211 0.962 . S
C198 H212 0.960 . S
C199 C196 1.511 1_545 S
C199 H213 0.961 . S
C199 H214 0.961 . S
C199 H215 0.961 . S
C200 C201 1.370 . S
C200 C202 1.363 . S
C200 H216 0.931 . S
C201 C200 1.370 . S
C201 C205 1.408 . S
C202 C200 1.363 . S
C202 C203 1.370 . S
C202 C206 1.524 . S
C203 C195 1.503 1_544 S
C203 C202 1.370 . S
C203 C204 1.403 . S
C204 C203 1.403 . S
C204 C205 1.404 . S
C204 C207 1.539 . S
C205 C201 1.408 . S
C205 C204 1.404 . S
C205 H217 0.930 . S
C206 C202 1.524 . S
C206 H218 0.956 1_545 S
C206 H219 0.961 1_554 S
C206 H220 0.961 . S
C207 C204 1.539 . S
C207 H221 0.958 . S
C207 H222 0.961 . S
C207 H223 0.960 1_554 S
H208 C192 0.931 1_554 S
H209 C197 0.929 . S
H210 C198 0.960 . S
H211 C198 0.962 . S
H212 C198 0.960 . S
H213 C199 0.961 . S
H214 C199 0.961 . S
H215 C199 0.961 . S
H216 C200 0.931 . S
H217 C205 0.930 . S
H218 C206 0.956 1_565 S
H219 C206 0.961 1_556 S
H220 C206 0.961 . S
H221 C207 0.958 . S
H222 C207 0.961 . S
H223 C207 0.960 1_556 S
C224 C225 1.391 . S
C224 C226 1.394 . S
C224 H240 0.931 . S
C225 C224 1.391 . S
C225 C229 1.376 . S
C226 C224 1.394 . S
C226 C227 1.369 . S
C226 C230 1.531 1_565 S
C227 C226 1.369 . S
C227 C228 1.410 1_554 S
C227 C235 1.503 1_564 S
C228 C227 1.410 1_556 S
C228 C229 1.392 1_556 S
C228 C231 1.511 . S
C229 C225 1.376 . S
C229 C228 1.392 1_554 S
C229 H241 0.924 1_554 S
C230 C226 1.531 1_545 S
C230 H242 0.960 . S
C230 H243 0.962 1_455 S
C230 H244 0.960 . S
C231 C228 1.511 . S
C231 H245 0.961 . S
C231 H246 0.961 . S
C231 H247 0.961 . S
C232 C233 1.370 1_655 S
C232 C234 1.363 . S
C232 H248 0.931 . S
C233 C232 1.370 1_455 S
C233 C237 1.408 . S
C234 C232 1.363 . S
C234 C235 1.370 1_655 S
C234 C238 1.524 . S
C235 C227 1.503 1_546 S
C235 C234 1.370 1_455 S
C235 C236 1.403 . S
C236 C235 1.403 . S
C236 C237 1.404 . S
C236 C239 1.539 1_556 S
C237 C233 1.408 . S
C237 C236 1.404 . S
C237 H249 0.930 . S
C238 C234 1.524 . S
C238 H250 0.956 1_556 S
C238 H251 0.961 1_545 S
C238 H252 0.961 . S
C239 C236 1.539 1_554 S
C239 H253 0.958 . S
C239 H254 0.961 1_554 S
C239 H255 0.960 . S
H240 C224 0.931 . S
H241 C229 0.924 1_556 S
H242 C230 0.960 . S
H243 C230 0.962 1_655 S
H244 C230 0.960 . S
H245 C231 0.961 . S
H246 C231 0.961 . S
H247 C231 0.961 . S
H248 C232 0.931 . S
H249 C237 0.930 . S
H250 C238 0.956 1_554 S
H251 C238 0.961 1_565 S
H252 C238 0.961 . S
H253 C239 0.958 . S
H254 C239 0.961 1_556 S
H255 C239 0.960 . S
C256 C257 1.391 . S
C256 C258 1.394 . S
C256 H272 0.931 . S
C257 C256 1.391 . S
C257 C261 1.376 . S
C258 C256 1.394 . S
C258 C259 1.369 . S
C258 C262 1.531 . S
C259 C258 1.369 . S
C259 C260 1.410 . S
C259 C267 1.503 . S
C260 C259 1.410 . S
C260 C261 1.392 . S
C260 C263 1.511 . S
C261 C257 1.376 . S
C261 C260 1.392 . S
C261 H273 0.929 . S
C262 C258 1.531 . S
C262 H274 0.960 . S
C262 H275 0.962 . S
C262 H276 0.960 . S
C263 C260 1.511 . S
C263 H277 0.961 . S
C263 H278 0.961 . S
C263 H279 0.961 . S
C264 C265 1.370 . S
C264 C266 1.363 . S
C264 H280 0.931 . S
C265 C264 1.370 . S
C265 C269 1.408 . S
C266 C264 1.363 . S
C266 C267 1.370 . S
C266 C270 1.524 . S
C267 C259 1.503 . S
C267 C266 1.370 . S
C267 C268 1.403 . S
C268 C267 1.403 . S
C268 C269 1.404 . S
C268 C271 1.539 . S
C269 C265 1.408 . S
C269 C268 1.404 . S
C269 H281 0.930 . S
C270 C266 1.524 . S
C270 H282 0.956 . S
C270 H283 0.961 . S
C270 H284 0.961 . S
C271 C268 1.539 . S
C271 H285 0.958 . S
C271 H286 0.961 . S
C271 H287 0.960 . S
H272 C256 0.931 . S
H273 C261 0.929 . S
H274 C262 0.960 . S
H275 C262 0.962 . S
H276 C262 0.960 . S
H277 C263 0.961 . S
H278 C263 0.961 . S
H279 C263 0.961 . S
H280 C264 0.931 . S
H281 C269 0.930 . S
H282 C270 0.956 . S
H283 C270 0.961 . S
H284 C270 0.961 . S
H285 C271 0.958 . S
H286 C271 0.961 . S
H287 C271 0.960 . S
C288 C289 1.391 . S
C288 C290 1.394 . S
C288 H304 0.931 . S
C289 C288 1.391 . S
C289 C293 1.376 . S
C290 C288 1.394 . S
C290 C291 1.369 . S
C290 C294 1.531 . S
C291 C290 1.369 . S
C291 C292 1.410 . S
C291 C299 1.503 . S
C292 C291 1.410 . S
C292 C293 1.392 . S
C292 C295 1.511 . S
C293 C289 1.376 . S
C293 C292 1.392 . S
C293 H305 0.929 . S
C294 C290 1.531 . S
C294 H306 0.960 . S
C294 H307 0.962 . S
C294 H308 0.960 . S
C295 C292 1.511 . S
C295 H309 0.961 . S
C295 H310 0.961 . S
C295 H311 0.961 . S
C296 C297 1.370 . S
C296 C298 1.363 . S
C296 H312 0.931 . S
C297 C296 1.370 . S
C297 C301 1.408 . S
C298 C296 1.363 . S
C298 C299 1.370 . S
C298 C302 1.524 . S
C299 C291 1.503 . S
C299 C298 1.370 . S
C299 C300 1.403 . S
C300 C299 1.403 . S
C300 C301 1.404 . S
C300 C303 1.539 . S
C301 C297 1.408 . S
C301 C300 1.404 . S
C301 H313 0.930 . S
C302 C298 1.524 . S
C302 H314 0.956 . S
C302 H315 0.961 . S
C302 H316 0.961 . S
C303 C300 1.539 . S
C303 H317 0.958 . S
C303 H318 0.961 . S
C303 H319 0.960 . S
H304 C288 0.931 . S
H305 C293 0.929 . S
H306 C294 0.960 . S
H307 C294 0.962 . S
H308 C294 0.960 . S
H309 C295 0.961 . S
H310 C295 0.961 . S
H311 C295 0.961 . S
H312 C296 0.931 . S
H313 C301 0.930 . S
H314 C302 0.956 . S
H315 C302 0.961 . S
H316 C302 0.961 . S
H317 C303 0.958 . S
H318 C303 0.961 . S
H319 C303 0.960 . S
C320 C321 1.391 . S
C320 C322 1.394 . S
C320 H336 0.931 . S
C321 C320 1.391 . S
C321 C325 1.376 . S
C322 C320 1.394 . S
C322 C323 1.369 . S
C322 C326 1.531 . S
C323 C322 1.369 . S
C323 C324 1.410 . S
C323 C331 1.503 . S
C324 C323 1.410 . S
C324 C325 1.392 . S
C324 C327 1.511 . S
C325 C321 1.376 . S
C325 C324 1.392 . S
C325 H337 0.929 . S
C326 C322 1.531 . S
C326 H338 0.960 . S
C326 H339 0.962 . S
C326 H340 0.960 . S
C327 C324 1.511 . S
C327 H341 0.961 . S
C327 H342 0.961 . S
C327 H343 0.961 . S
C328 C329 1.370 . S
C328 C330 1.363 . S
C328 H344 0.931 . S
C329 C328 1.370 . S
C329 C333 1.408 . S
C330 C328 1.363 . S
C330 C331 1.370 . S
C330 C334 1.524 . S
C331 C323 1.503 . S
C331 C330 1.370 . S
C331 C332 1.403 . S
C332 C331 1.403 . S
C332 C333 1.404 . S
C332 C335 1.539 . S
C333 C329 1.408 . S
C333 C332 1.404 . S
C333 H345 0.930 . S
C334 C330 1.524 . S
C334 H346 0.956 . S
C334 H347 0.961 . S
C334 H348 0.961 . S
C335 C332 1.539 . S
C335 H349 0.958 . S
C335 H350 0.961 . S
C335 H351 0.960 . S
H336 C320 0.931 . S
H337 C325 0.929 . S
H338 C326 0.960 . S
H339 C326 0.962 . S
H340 C326 0.960 . S
H341 C327 0.961 . S
H342 C327 0.961 . S
H343 C327 0.961 . S
H344 C328 0.931 . S
H345 C333 0.930 . S
H346 C334 0.956 . S
H347 C334 0.961 . S
H348 C334 0.961 . S
H349 C335 0.958 . S
H350 C335 0.961 . S
H351 C335 0.960 . S
C352 C353 1.391 . S
C352 C354 1.394 . S
C352 H368 0.931 . S
C353 C352 1.391 . S
C353 C357 1.376 . S
C354 C352 1.394 . S
C354 C355 1.369 . S
C354 C358 1.531 . S
C355 C354 1.369 . S
C355 C356 1.410 . S
C355 C363 1.503 . S
C356 C355 1.410 . S
C356 C357 1.392 . S
C356 C359 1.511 . S
C357 C353 1.376 . S
C357 C356 1.392 . S
C357 H369 0.929 . S
C358 C354 1.531 . S
C358 H370 0.960 . S
C358 H371 0.962 . S
C358 H372 0.960 . S
C359 C356 1.511 . S
C359 H373 0.961 . S
C359 H374 0.961 . S
C359 H375 0.961 . S
C360 C361 1.370 . S
C360 C362 1.363 . S
C360 H376 0.931 . S
C361 C360 1.370 . S
C361 C365 1.408 . S
C362 C360 1.363 . S
C362 C363 1.370 . S
C362 C366 1.524 . S
C363 C355 1.503 . S
C363 C362 1.370 . S
C363 C364 1.403 . S
C364 C363 1.403 . S
C364 C365 1.404 . S
C364 C367 1.539 . S
C365 C361 1.408 . S
C365 C364 1.404 . S
C365 H377 0.930 . S
C366 C362 1.524 . S
C366 H378 0.956 . S
C366 H379 0.961 . S
C366 H380 0.961 . S
C367 C364 1.539 . S
C367 H381 0.958 . S
C367 H382 0.961 . S
C367 H383 0.960 . S
H368 C352 0.931 . S
H369 C357 0.929 . S
H370 C358 0.960 . S
H371 C358 0.962 . S
H372 C358 0.960 . S
H373 C359 0.961 . S
H374 C359 0.961 . S
H375 C359 0.961 . S
H376 C360 0.931 . S
H377 C365 0.930 . S
H378 C366 0.956 . S
H379 C366 0.961 . S
H380 C366 0.961 . S
H381 C367 0.958 . S
H382 C367 0.961 . S
H383 C367 0.960 . S
C384 C385 1.391 1_554 S
C384 C386 1.394 . S
C384 H400 0.931 . S
C385 C384 1.391 1_556 S
C385 C389 1.376 . S
C386 C384 1.394 . S
C386 C387 1.369 1_554 S
C386 C390 1.531 . S
C387 C386 1.369 1_556 S
C387 C388 1.410 . S
C387 C395 1.503 1_556 S
C388 C387 1.410 . S
C388 C389 1.392 . S
C388 C391 1.511 . S
C389 C385 1.376 . S
C389 C388 1.392 . S
C389 H401 0.929 . S
C390 C386 1.531 . S
C390 H402 0.960 . S
C390 H403 0.962 . S
C390 H404 0.960 . S
C391 C388 1.511 . S
C391 H405 0.961 . S
C391 H406 0.961 . S
C391 H407 0.961 . S
C392 C393 1.370 . S
C392 C394 1.363 . S
C392 H408 0.931 . S
C393 C392 1.370 . S
C393 C397 1.408 . S
C394 C392 1.363 . S
C394 C395 1.370 . S
C394 C398 1.524 . S
C395 C387 1.503 1_554 S
C395 C394 1.370 . S
C395 C396 1.403 . S
C396 C395 1.403 . S
C396 C397 1.404 . S
C396 C399 1.539 . S
C397 C393 1.408 . S
C397 C396 1.404 . S
C397 H409 0.930 . S
C398 C394 1.524 . S
C398 H410 0.956 . S
C398 H411 0.961 1_554 S
C398 H412 0.961 . S
C399 C396 1.539 . S
C399 H413 0.958 . S
C399 H414 0.961 1_554 S
C399 H415 0.960 1_554 S
H400 C384 0.931 . S
H401 C389 0.929 . S
H402 C390 0.960 . S
H403 C390 0.962 . S
H404 C390 0.960 . S
H405 C391 0.961 . S
H406 C391 0.961 . S
H407 C391 0.961 . S
H408 C392 0.931 . S
H409 C397 0.930 . S
H410 C398 0.956 . S
H411 C398 0.961 1_556 S
H412 C398 0.961 . S
H413 C399 0.958 . S
H414 C399 0.961 1_556 S
H415 C399 0.960 1_556 S
C416 C417 1.391 . S
C416 C418 1.394 1_556 S
C416 H432 0.931 1_556 S
C417 C416 1.391 . S
C417 C421 1.376 . S
C418 C416 1.394 1_554 S
C418 C419 1.369 . S
C418 C422 1.531 . S
C419 C418 1.369 . S
C419 C420 1.410 1_554 S
C419 C427 1.503 . S
C420 C419 1.410 1_556 S
C420 C421 1.392 . S
C420 C423 1.511 . S
C421 C417 1.376 . S
C421 C420 1.392 . S
C421 H433 0.929 . S
C422 C418 1.531 . S
C422 H434 0.960 . S
C422 H435 0.962 . S
C422 H436 0.960 . S
C423 C420 1.511 . S
C423 H437 0.961 . S
C423 H438 0.961 . S
C423 H439 0.961 1_556 S
C424 C425 1.370 1_556 S
C424 C426 1.363 . S
C424 H440 0.931 . S
C425 C424 1.370 1_554 S
C425 C429 1.408 . S
C426 C424 1.363 . S
C426 C427 1.370 1_556 S
C426 C430 1.524 . S
C427 C419 1.503 . S
C427 C426 1.370 1_554 S
C427 C428 1.403 . S
C428 C427 1.403 . S
C428 C429 1.404 . S
C428 C431 1.539 . S
C429 C425 1.408 . S
C429 C428 1.404 . S
C429 H441 0.930 . S
C430 C426 1.524 . S
C430 H442 0.956 . S
C430 H443 0.961 . S
C430 H444 0.961 . S
C431 C428 1.539 . S
C431 H445 0.958 . S
C431 H446 0.961 . S
C431 H447 0.960 . S
H432 C416 0.931 1_554 S
H433 C421 0.929 . S
H434 C422 0.960 . S
H435 C422 0.962 . S
H436 C422 0.960 . S
H437 C423 0.961 . S
H438 C423 0.961 . S
H439 C423 0.961 1_554 S
H440 C424 0.931 . S
H441 C429 0.930 . S
H442 C430 0.956 . S
H443 C430 0.961 . S
H444 C430 0.961 . S
H445 C431 0.958 . S
H446 C431 0.961 . S
H447 C431 0.960 . S
C448 C449 1.391 . S
C448 C450 1.394 . S
C448 H464 0.931 . S
C449 C448 1.391 . S
C449 C453 1.376 1_554 S
C450 C448 1.394 . S
C450 C451 1.369 . S
C450 C454 1.531 . S
C451 C450 1.369 . S
C451 C452 1.410 1_554 S
C451 C459 1.503 1_554 S
C452 C451 1.410 1_556 S
C452 C453 1.392 . S
C452 C455 1.511 . S
C453 C449 1.376 1_556 S
C453 C452 1.392 . S
C453 H465 0.929 . S
C454 C450 1.531 . S
C454 H466 0.960 . S
C454 H467 0.962 . S
C454 H468 0.960 . S
C455 C452 1.511 . S
C455 H469 0.961 . S
C455 H470 0.961 . S
C455 H471 0.961 . S
C456 C457 1.370 . S
C456 C458 1.363 . S
C456 H472 0.931 . S
C457 C456 1.370 . S
C457 C461 1.408 . S
C458 C456 1.363 . S
C458 C459 1.370 . S
C458 C462 1.524 1_556 S
C459 C451 1.503 1_556 S
C459 C458 1.370 . S
C459 C460 1.403 . S
C460 C459 1.403 . S
C460 C461 1.404 . S
C460 C463 1.539 . S
C461 C457 1.408 . S
C461 C460 1.404 . S
C461 H473 0.930 . S
C462 C458 1.524 1_554 S
C462 H474 0.958 . S
C462 H475 0.959 1_554 S
C462 H476 0.960 1_554 S
C463 C460 1.539 . S
C463 H477 0.958 1_556 S
C463 H478 0.961 . S
C463 H479 0.960 . S
H464 C448 0.931 . S
H465 C453 0.929 . S
H466 C454 0.960 . S
H467 C454 0.962 . S
H468 C454 0.960 . S
H469 C455 0.961 . S
H470 C455 0.961 . S
H471 C455 0.961 . S
H472 C456 0.931 . S
H473 C461 0.930 . S
H474 C462 0.958 . S
H475 C462 0.959 1_556 S
H476 C462 0.960 1_556 S
H477 C463 0.958 1_554 S
H478 C463 0.961 . S
H479 C463 0.960 . S
C480 C481 1.391 1_556 S
C480 C482 1.394 . S
C480 H496 0.931 . S
C481 C480 1.391 1_554 S
C481 C485 1.376 . S
C482 C480 1.394 . S
C482 C483 1.369 1_556 S
C482 C486 1.531 . S
C483 C482 1.369 1_554 S
C483 C484 1.410 . S
C483 C491 1.503 1_554 S
C484 C483 1.410 . S
C484 C485 1.392 . S
C484 C487 1.511 . S
C485 C481 1.376 . S
C485 C484 1.392 . S
C485 H497 0.929 . S
C486 C482 1.531 . S
C486 H498 0.960 . S
C486 H499 0.962 . S
C486 H500 0.960 . S
C487 C484 1.511 . S
C487 H501 0.961 . S
C487 H502 0.961 . S
C487 H503 0.961 . S
C488 C489 1.370 . S
C488 C490 1.363 . S
C488 H504 0.931 . S
C489 C488 1.370 . S
C489 C493 1.408 1_556 S
C490 C488 1.363 . S
C490 C491 1.370 . S
C490 C494 1.524 . S
C491 C483 1.503 1_556 S
C491 C490 1.370 . S
C491 C492 1.403 1_556 S
C492 C491 1.403 1_554 S
C492 C493 1.404 . S
C492 C495 1.539 . S
C493 C489 1.408 1_554 S
C493 C492 1.404 . S
C493 H505 0.930 . S
C494 C490 1.524 . S
C494 H506 0.956 . S
C494 H507 0.961 . S
C494 H508 0.961 . S
C495 C492 1.539 . S
C495 H509 0.958 . S
C495 H510 0.961 . S
C495 H511 0.960 . S
H496 C480 0.931 . S
H497 C485 0.929 . S
H498 C486 0.960 . S
H499 C486 0.962 . S
H500 C486 0.960 . S
H501 C487 0.961 . S
H502 C487 0.961 . S
H503 C487 0.961 . S
H504 C488 0.931 . S
H505 C493 0.930 . S
H506 C494 0.956 . S
H507 C494 0.961 . S
H508 C494 0.961 . S
H509 C495 0.958 . S
H510 C495 0.961 . S
H511 C495 0.960 . S
C129 N82 1.928 . S
C137 N13 1.913 . S
C161 N45 1.907 . S
C169 N109 1.926 . S
C193 N114 1.888 . S
C201 N50 1.907 . S
C225 N18 1.941 . S
C233 N77 1.927 . S
C257 C100 1.554 . S
C265 C4 1.562 . S
C289 C93 1.564 . S
C297 C36 1.559 . S
C321 C68 1.558 . S
C329 C61 1.566 . S
C353 C29 1.557 . S
C361 C125 1.561 . S
C385 C98 0.765 . S
C393 C2 0.768 . S
C417 C70 0.808 . S
C425 C34 0.746 . S
C449 C38 0.765 . S
C457 C66 0.758 . S
C481 C6 0.733 . S
C489 C102 0.779 . S
