# Generated by pormake.
# Topology uki, (4)-cn, num edge types: 1
# Building blocks:
#     Node 0, Type 0, BuildingBlock: KOZSID_clean_sbu_0, # of connection points: 4
#     Node 1, Type 0, BuildingBlock: KOZSID_clean_sbu_0, # of connection points: 4
#     Node 2, Type 0, BuildingBlock: KOZSID_clean_sbu_0, # of connection points: 4
#     Node 3, Type 0, BuildingBlock: KOZSID_clean_sbu_0, # of connection points: 4
#     Node 4, Type 0, BuildingBlock: KOZSID_clean_sbu_0, # of connection points: 4
#     Node 5, Type 0, BuildingBlock: KOZSID_clean_sbu_0, # of connection points: 4
#     Node 6, Type 0, BuildingBlock: KOZSID_clean_sbu_0, # of connection points: 4
#     Node 7, Type 0, BuildingBlock: KOZSID_clean_sbu_0, # of connection points: 4
#     Node 8, Type 0, BuildingBlock: KOZSID_clean_sbu_0, # of connection points: 4
#     Node 9, Type 0, BuildingBlock: KOZSID_clean_sbu_0, # of connection points: 4
#     Node 10, Type 0, BuildingBlock: KOZSID_clean_sbu_0, # of connection points: 4
#     Node 11, Type 0, BuildingBlock: KOZSID_clean_sbu_0, # of connection points: 4
#     Node 12, Type 0, BuildingBlock: KOZSID_clean_sbu_0, # of connection points: 4
#     Node 13, Type 0, BuildingBlock: KOZSID_clean_sbu_0, # of connection points: 4
#     Node 14, Type 0, BuildingBlock: KOZSID_clean_sbu_0, # of connection points: 4
#     Node 15, Type 0, BuildingBlock: KOZSID_clean_sbu_0, # of connection points: 4
#     Edge 16, Type (0, 0), BuildingBlock: XIVTED_clean_linker_0, # of connection points: 2
#     Edge 17, Type (0, 0), BuildingBlock: XIVTED_clean_linker_0, # of connection points: 2
#     Edge 18, Type (0, 0), BuildingBlock: XIVTED_clean_linker_0, # of connection points: 2
#     Edge 19, Type (0, 0), BuildingBlock: XIVTED_clean_linker_0, # of connection points: 2
#     Edge 20, Type (0, 0), BuildingBlock: XIVTED_clean_linker_0, # of connection points: 2
#     Edge 21, Type (0, 0), BuildingBlock: XIVTED_clean_linker_0, # of connection points: 2
#     Edge 22, Type (0, 0), BuildingBlock: XIVTED_clean_linker_0, # of connection points: 2
#     Edge 23, Type (0, 0), BuildingBlock: XIVTED_clean_linker_0, # of connection points: 2
#     Edge 24, Type (0, 0), BuildingBlock: XIVTED_clean_linker_0, # of connection points: 2
#     Edge 25, Type (0, 0), BuildingBlock: XIVTED_clean_linker_0, # of connection points: 2
#     Edge 26, Type (0, 0), BuildingBlock: XIVTED_clean_linker_0, # of connection points: 2
#     Edge 27, Type (0, 0), BuildingBlock: XIVTED_clean_linker_0, # of connection points: 2
#     Edge 28, Type (0, 0), BuildingBlock: XIVTED_clean_linker_0, # of connection points: 2
#     Edge 29, Type (0, 0), BuildingBlock: XIVTED_clean_linker_0, # of connection points: 2
#     Edge 30, Type (0, 0), BuildingBlock: XIVTED_clean_linker_0, # of connection points: 2
#     Edge 31, Type (0, 0), BuildingBlock: XIVTED_clean_linker_0, # of connection points: 2
#     Edge 32, Type (0, 0), BuildingBlock: XIVTED_clean_linker_0, # of connection points: 2
#     Edge 33, Type (0, 0), BuildingBlock: XIVTED_clean_linker_0, # of connection points: 2
#     Edge 34, Type (0, 0), BuildingBlock: XIVTED_clean_linker_0, # of connection points: 2
#     Edge 35, Type (0, 0), BuildingBlock: XIVTED_clean_linker_0, # of connection points: 2
#     Edge 36, Type (0, 0), BuildingBlock: XIVTED_clean_linker_0, # of connection points: 2
#     Edge 37, Type (0, 0), BuildingBlock: XIVTED_clean_linker_0, # of connection points: 2
#     Edge 38, Type (0, 0), BuildingBlock: XIVTED_clean_linker_0, # of connection points: 2
#     Edge 39, Type (0, 0), BuildingBlock: XIVTED_clean_linker_0, # of connection points: 2
#     Edge 40, Type (0, 0), BuildingBlock: XIVTED_clean_linker_0, # of connection points: 2
#     Edge 41, Type (0, 0), BuildingBlock: XIVTED_clean_linker_0, # of connection points: 2
#     Edge 42, Type (0, 0), BuildingBlock: XIVTED_clean_linker_0, # of connection points: 2
#     Edge 43, Type (0, 0), BuildingBlock: XIVTED_clean_linker_0, # of connection points: 2
#     Edge 44, Type (0, 0), BuildingBlock: XIVTED_clean_linker_0, # of connection points: 2
#     Edge 45, Type (0, 0), BuildingBlock: XIVTED_clean_linker_0, # of connection points: 2
#     Edge 46, Type (0, 0), BuildingBlock: XIVTED_clean_linker_0, # of connection points: 2
#     Edge 47, Type (0, 0), BuildingBlock: XIVTED_clean_linker_0, # of connection points: 2
# Relax obj value: 0.121
# Max RMSD: 0.240
# Mean RMSD: 0.240
data_MOF--net-uki--node1-KOZSID_clean_sbu_0--edge1-XIVTED_clean_linker_0
_symmetry_space_group_name_H-M    P1
_symmetry_Int_Tables_number       1
_symmetry_cell_setting            triclinic
loop_
_symmetry_equiv_pos_as_xyz
'x, y, z'
_cell_length_a     37.957331
_cell_length_b     38.019464
_cell_length_c     89.164023
_cell_angle_alpha  89.964466
_cell_angle_beta   90.02344
_cell_angle_gamma 90.038079
loop_
_atom_site_label
_atom_site_type_symbol
_atom_site_fract_x
_atom_site_fract_y
_atom_site_fract_z
_atom_type_partial_charge
C0 C 0.17119 0.22278 0.32862 0.0
C1 C 0.19797 0.19854 0.32624 0.0
C2 C 0.19004 0.18114 0.3132 0.0
C3 C 0.15887 0.19547 0.30837 0.0
N4 N 0.14684 0.22105 0.31746 0.0
Co5 Co 0.10138 0.24646 0.31492 0.0
N6 N 0.09745 0.23248 0.29349 0.0
C7 C 0.1153 0.20614 0.28688 0.0
C8 C 0.10677 0.20204 0.27202 0.0
C9 C 0.08177 0.22721 0.26912 0.0
C10 C 0.07644 0.24533 0.28243 0.0
N11 N 0.05567 0.27139 0.3125 0.0
C12 C 0.03845 0.28139 0.29988 0.0
C13 C 1.00769 0.29944 0.3034 0.0
C14 C 1.00531 0.30003 0.3187 0.0
C15 C 0.03472 0.28268 0.32369 0.0
N16 N 0.10538 0.26076 0.33632 0.0
C17 C 0.07931 0.27431 0.34477 0.0
C18 C 0.09019 0.28417 0.35881 0.0
C19 C 0.12523 0.27598 0.35934 0.0
C20 C 0.13371 0.26075 0.34563 0.0
N21 N 0.12677 0.2891 0.30866 0.0
C22 C 0.15768 0.34936 0.29563 0.0
C23 C 0.12992 0.35225 0.30603 0.0
C24 C 0.11527 0.32194 0.31256 0.0
C25 C 0.17081 0.31548 0.29277 0.0
C26 C 0.15475 0.286 0.29911 0.0
N27 N 0.07607 0.20327 0.32074 0.0
C28 C 0.07484 0.14811 0.33421 0.0
C29 C 0.04782 0.1354 0.3249 0.0
C30 C 0.03364 0.15855 0.31424 0.0
C31 C 0.04795 0.19217 0.31238 0.0
C32 C 0.08843 0.18209 0.332 0.0
H33 H 0.03712 0.20857 0.30367 0.0
H34 H 0.11005 0.19055 0.33897 0.0
H35 H 0.09377 0.32508 0.32033 0.0
H36 H 0.16445 0.26055 0.29584 0.0
C37 C 0.14274 0.18913 0.29448 0.0
C38 C 0.16799 0.24429 0.34229 0.0
C39 C 0.04888 0.27204 0.28452 0.0
C40 C 0.04679 0.28272 0.33845 0.0
H41 H 0.22054 0.19341 0.33332 0.0
H42 H 0.20555 0.16098 0.30776 0.0
H43 H 0.11794 0.18352 0.26413 0.0
H44 H 0.06855 0.23138 0.25851 0.0
H45 H 0.98888 0.31103 0.29574 0.0
H46 H 0.98541 0.31307 0.32537 0.0
H47 H 0.0749 0.29724 0.3674 0.0
H48 H 0.14237 0.28084 0.36879 0.0
H49 H 0.11856 0.37753 0.30877 0.0
H50 H 0.19306 0.31132 0.28541 0.0
H51 H 0.08662 0.13142 0.34268 0.0
H52 H 0.01205 0.15051 0.30707 0.0
C53 C 0.28112 0.98437 0.71627 0.0
C54 C 0.29593 0.01683 0.71286 0.0
C55 C 0.29569 0.01976 0.69755 0.0
C56 C 0.2807 0.98914 0.69248 0.0
N57 N 0.27157 0.96709 0.70363 0.0
Co58 Co 0.24881 0.92039 0.7012 0.0
N59 N 0.26301 0.91744 0.67977 0.0
C60 C 0.27475 0.94441 0.67132 0.0
C61 C 0.28477 0.93435 0.6572 0.0
C62 C 0.27847 0.89895 0.65661 0.0
C63 C 0.26413 0.88938 0.67037 0.0
N64 N 0.22572 0.87378 0.6987 0.0
C65 C 0.22836 0.84977 0.68747 0.0
C66 C 0.20546 0.82181 0.6899 0.0
C67 C 0.18799 0.82866 0.70303 0.0
C68 C 0.2009 0.86038 0.70787 0.0
N69 N 0.23475 0.92355 0.72262 0.0
C70 C 0.20925 0.90456 0.72927 0.0
C71 C 0.20564 0.91222 0.74425 0.0
C72 C 0.23028 0.93778 0.74715 0.0
C73 C 0.24749 0.94442 0.73371 0.0
N74 N 0.2044 0.94351 0.69543 0.0
C75 C 0.13649 0.97058 0.69015 0.0
C76 C 0.15848 0.98529 0.70113 0.0
C77 C 0.19214 0.97142 0.70359 0.0
C78 C 0.15001 0.94308 0.68139 0.0
C79 C 0.18403 0.93021 0.6841 0.0
N80 N 0.29273 0.89722 0.70729 0.0
C81 C 0.3222 0.85556 0.72335 0.0
C82 C 0.35524 0.86832 0.71892 0.0
C83 C 0.35624 0.89525 0.70814 0.0
C84 C 0.32475 0.90911 0.70238 0.0
C85 C 0.29147 0.87032 0.71746 0.0
H86 H 0.3263 0.93002 0.69424 0.0
H87 H 0.26662 0.86057 0.72153 0.0
H88 H 0.20774 0.98259 0.7125 0.0
H89 H 0.19337 0.90874 0.6773 0.0
C90 C 0.28108 0.97741 0.67766 0.0
C91 C 0.2742 0.97203 0.73159 0.0
C92 C 0.24912 0.85439 0.67363 0.0
C93 C 0.19367 0.87622 0.72173 0.0
H94 H 0.3058 0.0364 0.72061 0.0
H95 H 0.30656 0.041 0.69092 0.0
H96 H 0.29654 0.95052 0.64855 0.0
H97 H 0.28378 0.88231 0.64704 0.0
H98 H 0.20112 0.79921 0.68277 0.0
H99 H 0.16857 0.81218 0.70848 0.0
H100 H 0.18817 0.89977 0.75224 0.0
H101 H 0.23495 0.95011 0.7579 0.0
H102 H 0.14926 1.00648 0.70822 0.0
H103 H 0.1343 0.9313 0.67258 0.0
H104 H 0.31992 0.83513 0.73176 0.0
H105 H 0.38115 0.90567 0.70422 0.0
C106 C 0.85221 0.78617 0.3305 0.0
C107 C 0.82364 0.80857 0.32875 0.0
C108 C 0.8294 0.82728 0.31579 0.0
C109 C 0.8611 0.8154 0.31037 0.0
N110 N 0.87544 0.79021 0.31905 0.0
Co111 Co 0.92152 0.76692 0.31543 0.0
N112 N 0.92219 0.78135 0.29403 0.0
C113 C 0.90247 0.80699 0.2879 0.0
C114 C 0.90859 0.81111 0.27282 0.0
C115 C 0.93393 0.78668 0.2693 0.0
C116 C 0.94201 0.76907 0.28249 0.0
N117 N 0.96783 0.74409 0.31201 0.0
C118 C 0.98387 0.73497 0.29902 0.0
C119 C 0.01676 0.72027 0.30179 0.0
C120 C 0.02128 0.72024 0.31703 0.0
C121 C 0.99112 0.73496 0.32271 0.0
N122 N 0.92092 0.75231 0.33682 0.0
C123 C 0.94896 0.74144 0.34482 0.0
C124 C 0.94062 0.73251 0.3593 0.0
C125 C 0.90516 0.73842 0.36054 0.0
C126 C 0.89384 0.75102 0.34673 0.0
N127 N 0.8972 0.72336 0.30959 0.0
C128 C 0.86722 0.66256 0.29669 0.0
C129 C 0.89642 0.66026 0.30639 0.0
C130 C 0.91065 0.69087 0.31288 0.0
C131 C 0.85222 0.69591 0.29454 0.0
C132 C 0.86783 0.72568 0.30078 0.0
N133 N 0.94566 0.81111 0.32077 0.0
C134 C 0.94647 0.8663 0.33421 0.0
C135 C 0.97204 0.87989 0.3244 0.0
C136 C 0.98579 0.85724 0.31346 0.0
C137 C 0.9724 0.8232 0.31187 0.0
C138 C 0.93376 0.83187 0.33225 0.0
H139 H 0.98278 0.80724 0.30292 0.0
H140 H 0.91317 0.82266 0.33961 0.0
H141 H 0.93336 0.68837 0.32009 0.0
H142 H 0.85663 0.75078 0.29793 0.0
C143 C 0.87522 0.82273 0.29615 0.0
C144 C 0.85796 0.76387 0.34377 0.0
C145 C 0.9702 0.74266 0.28396 0.0
C146 C 0.98123 0.73499 0.3378 0.0
H147 H 0.80122 0.81137 0.33614 0.0
H148 H 0.81196 0.84639 0.31071 0.0
H149 H 0.89542 0.8289 0.26518 0.0
H150 H 0.94529 0.78252 0.25831 0.0
H151 H 0.0357 0.71085 0.29367 0.0
H152 H 0.04336 0.7096 0.32323 0.0
H153 H 0.95797 0.7218 0.36778 0.0
H154 H 0.88958 0.7341 0.37053 0.0
H155 H 0.90913 0.63531 0.30857 0.0
H156 H 0.82884 0.69949 0.28778 0.0
H157 H 0.93511 0.88261 0.3429 0.0
H158 H 1.00628 0.86599 0.30588 0.0
C159 C 0.73865 0.03888 0.71539 0.0
C160 C 0.72289 1.00676 0.71215 0.0
C161 C 0.72199 1.00388 0.69685 0.0
C162 C 0.73731 0.03416 0.6916 0.0
N163 N 0.74773 0.05598 0.70262 0.0
Co164 Co 0.77173 0.102 0.69984 0.0
N165 N 0.7564 0.1052 0.67855 0.0
C166 C 0.74314 0.0786 0.67031 0.0
C167 C 0.73258 0.08885 0.65628 0.0
C168 C 0.74007 0.124 0.65551 0.0
C169 C 0.75561 0.1332 0.66908 0.0
N170 N 0.7963 0.14777 0.69691 0.0
C171 C 0.79384 0.17171 0.68563 0.0
C172 C 0.81787 0.19886 0.68772 0.0
C173 C 0.83585 0.19159 0.7007 0.0
C174 C 0.8221 0.16042 0.70579 0.0
N175 N 0.78672 0.09876 0.72116 0.0
C176 C 0.81296 0.11724 0.72753 0.0
C177 C 0.81714 0.10973 0.7425 0.0
C178 C 0.79209 0.08476 0.74569 0.0
C179 C 0.7741 0.07826 0.73243 0.0
N180 N 0.8151 0.0774 0.69378 0.0
C181 C 0.88267 0.04942 0.68867 0.0
C182 C 0.86049 0.03518 0.69968 0.0
C183 C 0.827 0.04949 0.70205 0.0
C184 C 0.8694 0.0767 0.6797 0.0
C185 C 0.8355 0.09001 0.68231 0.0
N186 N 0.72891 0.12668 0.70631 0.0
C187 C 0.70249 0.17065 0.72214 0.0
C188 C 0.66868 0.15688 0.71958 0.0
C189 C 0.66574 0.1288 0.70937 0.0
C190 C 0.69606 0.11447 0.70272 0.0
C191 C 0.73198 0.15494 0.71567 0.0
H192 H 0.69297 0.09267 0.6951 0.0
H193 H 0.75743 0.16515 0.71871 0.0
H194 H 0.81136 0.03879 0.71105 0.0
H195 H 0.82639 0.11139 0.6754 0.0
C196 C 0.73625 0.04587 0.67678 0.0
C197 C 0.74692 0.05093 0.73062 0.0
C198 C 0.77198 0.16773 0.67206 0.0
C199 C 0.82923 0.14477 0.7197 0.0
H200 H 0.71316 0.98734 0.72001 0.0
H201 H 0.7102 0.98289 0.69036 0.0
H202 H 0.71972 0.073 0.6478 0.0
H203 H 0.73473 0.14071 0.64597 0.0
H204 H 0.82255 0.22122 0.68048 0.0
H205 H 0.85607 0.2075 0.70592 0.0
H206 H 0.83537 0.1218 0.75029 0.0
H207 H 0.78775 0.07263 0.75652 0.0
H208 H 0.86949 0.01415 0.70692 0.0
H209 H 0.88527 0.08809 0.67085 0.0
H210 H 0.70659 0.19314 0.72935 0.0
H211 H 0.64047 0.11699 0.70689 0.0
C212 C 0.17579 0.29045 0.93873 0.0
C213 C 0.20519 0.31081 0.94201 0.0
C214 C 0.19821 0.32779 0.95525 0.0
C215 C 0.1652 0.31673 0.95941 0.0
N216 N 0.15116 0.29349 0.9497 0.0
Co217 Co 0.10399 0.27111 0.95163 0.0
N218 N 0.10042 0.28354 0.97321 0.0
C219 C 0.11979 0.308 0.98034 0.0
C220 C 0.11168 0.31058 0.99531 0.0
C221 C 0.08543 0.28636 0.9977 0.0
C222 C 0.07886 0.2704 0.98399 0.0
N223 N 0.05682 0.24901 0.95346 0.0
C224 C 0.03897 0.23867 0.96585 0.0
C225 C 1.00627 0.22487 0.96203 0.0
C226 C 1.00373 0.22674 0.94671 0.0
C227 C 0.03482 0.24159 0.94205 0.0
N228 N 0.10726 0.25867 0.93004 0.0
C229 C 0.07993 0.24999 0.92114 0.0
C230 C 0.08963 0.24404 0.90655 0.0
C231 C 0.12525 0.24966 0.90618 0.0
C232 C 0.13539 0.25869 0.92066 0.0
N233 N 0.12628 0.22642 0.9572 0.0
C234 C 0.15414 0.16276 0.96802 0.0
C235 C 0.12738 0.16296 0.95714 0.0
C236 C 0.11406 0.19505 0.95177 0.0
C237 C 0.16719 0.19519 0.97299 0.0
C238 C 0.15294 0.22649 0.96751 0.0
N239 N 0.08176 0.31624 0.94637 0.0
C240 C 0.08292 0.3712 0.93282 0.0
C241 C 0.05489 0.38427 0.94142 0.0
C242 C 0.03974 0.36188 0.95213 0.0
C243 C 0.05352 0.32817 0.95444 0.0
C244 C 0.09574 0.33716 0.93538 0.0
H245 H 0.0419 0.31217 0.96311 0.0
H246 H 0.1176 0.32818 0.9287 0.0
H247 H 0.09331 0.1945 0.9435 0.0
H248 H 0.16291 0.25078 0.97201 0.0
C249 C 0.14899 0.32325 0.97325 0.0
C250 C 0.171 0.27084 0.92461 0.0
C251 C 0.05079 0.24442 0.98134 0.0
C252 C 0.04662 0.24344 0.92723 0.0
H253 H 0.22908 0.3134 0.9355 0.0
H254 H 0.21564 0.34521 0.96135 0.0
H255 H 0.12432 0.32701 1.00364 0.0
H256 H 0.07267 0.28108 0.00831 0.0
H257 H 0.9862 0.21483 0.96951 0.0
H258 H 0.98229 0.21727 0.9398 0.0
H259 H 0.07294 0.23597 0.89732 0.0
H260 H 0.14167 0.2481 0.89629 0.0
H261 H 0.11671 0.13854 0.95284 0.0
H262 H 0.18748 0.19652 0.98152 0.0
H263 H 0.0951 0.38724 0.92422 0.0
H264 H 0.01818 0.37076 0.95912 0.0
C265 C 0.23637 0.9802 0.04821 0.0
C266 C 0.22131 0.01259 0.05153 0.0
C267 C 0.22202 0.01598 0.06681 0.0
C268 C 0.23752 0.98571 0.07197 0.0
N269 N 0.24651 0.96341 0.0609 0.0
Co270 Co 0.27018 0.91723 0.06352 0.0
N271 N 0.25707 0.91493 0.08509 0.0
C272 C 0.24533 0.94204 0.09343 0.0
C273 C 0.23608 0.93238 0.10771 0.0
C274 C 0.24286 0.8971 0.10851 0.0
C275 C 0.2567 0.88721 0.09471 0.0
N276 N 0.29421 0.87118 0.06623 0.0
C277 C 0.29234 0.84757 0.07765 0.0
C278 C 0.3156 0.81992 0.07529 0.0
C279 C 0.33247 0.82653 0.06199 0.0
C280 C 0.31886 0.85783 0.05698 0.0
N281 N 0.28316 0.91963 0.04194 0.0
C282 C 0.30859 0.90069 0.03524 0.0
C283 C 0.31149 0.90776 0.02018 0.0
C284 C 0.2865 0.93293 0.01728 0.0
C285 C 0.2698 0.93998 0.03079 0.0
N286 N 0.31446 0.94146 0.06865 0.0
C287 C 0.38262 0.96941 0.07243 0.0
C288 C 0.35954 0.98303 0.06161 0.0
C289 C 0.32578 0.96888 0.05994 0.0
C290 C 0.36987 0.94292 0.08198 0.0
C291 C 0.33576 0.9294 0.07993 0.0
N292 N 0.22637 0.89301 0.05798 0.0
C293 C 0.19692 0.85078 0.04219 0.0
C294 C 0.16386 0.86364 0.04652 0.0
C295 C 0.16285 0.89073 0.05721 0.0
C296 C 0.19435 0.90482 0.06289 0.0
C297 C 0.22764 0.86575 0.048 0.0
H298 H 0.19278 0.92595 0.07092 0.0
H299 H 0.25249 0.85602 0.04395 0.0
H300 H 0.30933 0.97939 0.05117 0.0
H301 H 0.32719 0.90825 0.08711 0.0
C302 C 0.2381 0.97461 0.08688 0.0
C303 C 0.24323 0.96771 0.03291 0.0
C304 C 0.27177 0.85223 0.09153 0.0
C305 C 0.32507 0.87307 0.04291 0.0
H306 H 0.21108 0.03188 0.04374 0.0
H307 H 0.21123 0.03733 0.07339 0.0
H308 H 0.22442 0.9487 0.11632 0.0
H309 H 0.2381 0.88076 0.11822 0.0
H310 H 0.32049 0.79764 0.08255 0.0
H311 H 0.35188 0.81013 0.05651 0.0
H312 H 0.32882 0.89525 0.01216 0.0
H313 H 0.28133 0.94482 1.00647 0.0
H314 H 0.3677 1.00413 0.05422 0.0
H315 H 0.38658 0.93158 0.09055 0.0
H316 H 0.19923 0.83019 0.03386 0.0
H317 H 0.13794 0.90122 0.06107 0.0
C318 C 0.84634 0.72637 0.93734 0.0
C319 C 0.81765 0.70474 0.94027 0.0
C320 C 0.82516 0.68685 0.95325 0.0
C321 C 0.85776 0.69865 0.95762 0.0
N322 N 0.87104 0.72317 0.94829 0.0
Co323 Co 0.91737 0.74704 0.95066 0.0
N324 N 0.92104 0.73337 0.97211 0.0
C325 C 0.90223 0.70796 0.97891 0.0
C326 C 0.91019 0.70466 0.99387 0.0
C327 C 0.93577 0.72939 0.99661 0.0
C328 C 0.94215 0.74635 0.98309 0.0
N329 N 0.96388 0.77038 0.95285 0.0
C330 C 0.98149 0.78017 0.96539 0.0
C331 C 0.01388 0.79497 0.96176 0.0
C332 C 0.01647 0.79433 0.94644 0.0
C333 C 0.98573 0.77915 0.94157 0.0
N334 N 0.91386 0.76094 0.92925 0.0
C335 C 0.94092 0.77112 0.9205 0.0
C336 C 0.93105 0.77798 0.90599 0.0
C337 C 0.89559 0.77143 0.90552 0.0
C338 C 0.88572 0.76096 0.91986 0.0
N339 N 0.89357 0.7906 0.95677 0.0
C340 C 0.86472 0.85186 0.96964 0.0
C341 C 0.89256 0.85385 0.95924 0.0
C342 C 0.90622 0.82299 0.95278 0.0
C343 C 0.85042 0.81849 0.97255 0.0
C344 C 0.86549 0.7885 0.96631 0.0
N345 N 0.94107 0.70299 0.94497 0.0
C346 C 0.94098 0.64826 0.93127 0.0
C347 C 0.96879 0.63532 0.94006 0.0
C348 C 0.98349 0.65778 0.95084 0.0
C349 C 0.96931 0.69131 0.95312 0.0
C350 C 0.92777 0.68217 0.9338 0.0
H351 H 0.98047 0.70724 0.96192 0.0
H352 H 0.90599 0.69103 0.92703 0.0
H353 H 0.92786 0.82527 0.945 0.0
H354 H 0.85495 0.76347 0.96968 0.0
C355 C 0.87383 0.69201 0.9715 0.0
C356 C 0.85042 0.74768 0.92363 0.0
C357 C 0.96982 0.773 0.98079 0.0
C358 C 0.97401 0.77811 0.92671 0.0
H359 H 0.79381 0.70202 0.93372 0.0
H360 H 0.80823 0.66848 0.95909 0.0
H361 H 0.89795 0.68731 1.00197 0.0
H362 H 0.94829 0.73428 1.0073 0.0
H363 H 0.03376 0.80484 0.96938 0.0
H364 H 0.0377 0.80477 0.93967 0.0
H365 H 0.94751 0.78728 0.8969 0.0
H366 H 0.8791 0.77338 0.89566 0.0
H367 H 0.90467 0.87878 0.95646 0.0
H368 H 0.82802 0.81512 0.97991 0.0
H369 H 0.92918 0.63217 0.9226 0.0
H370 H 1.00488 0.64902 0.95797 0.0
C371 C 0.78481 0.03975 0.05023 0.0
C372 C 0.80172 1.00895 0.05457 0.0
C373 C 0.79968 1.0073 0.06988 0.0
C374 C 0.78207 0.0372 0.07406 0.0
N375 N 0.77319 0.05777 0.06236 0.0
Co376 Co 0.74882 0.1039 0.06358 0.0
N377 N 0.76006 0.10873 0.08524 0.0
C378 C 0.76964 0.08241 0.09449 0.0
C379 C 0.77458 0.09315 0.10902 0.0
C380 C 0.76746 0.12844 0.10896 0.0
C381 C 0.75866 0.13731 0.0943 0.0
N382 N 0.72424 0.14998 0.06495 0.0
C383 C 0.72609 0.17533 0.07566 0.0
C384 C 0.70459 0.20359 0.072 0.0
C385 C 0.68817 0.19516 0.05876 0.0
C386 C 0.70068 0.16247 0.05499 0.0
N387 N 0.73757 0.09889 0.04192 0.0
C388 C 0.71246 0.11679 0.03447 0.0
C389 C 0.7101 0.10734 0.01965 0.0
C390 C 0.73509 0.08169 0.01768 0.0
C391 C 0.75142 0.07694 0.03146 0.0
N392 N 0.70438 0.07982 0.06858 0.0
C393 C 0.63628 0.05149 0.07203 0.0
C394 C 0.66046 0.03666 0.06197 0.0
C395 C 0.69417 0.05104 0.06046 0.0
C396 C 0.64784 0.07953 0.08102 0.0
C397 C 0.68193 0.09322 0.07915 0.0
N398 N 0.79279 0.12797 0.05818 0.0
C399 C 0.82272 0.16923 0.04209 0.0
C400 C 0.8556 0.15745 0.04713 0.0
C401 C 0.8563 0.13131 0.05827 0.0
C402 C 0.8246 0.11722 0.06376 0.0
C403 C 0.79187 0.15417 0.04767 0.0
H404 H 0.82584 0.09697 0.07222 0.0
H405 H 0.76724 0.16301 0.04304 0.0
H406 H 0.71151 0.03953 0.05226 0.0
H407 H 0.68958 0.11553 0.08586 0.0
C408 C 0.77871 0.04949 0.08875 0.0
C409 C 0.77741 0.04918 0.03453 0.0
C410 C 0.74603 0.17226 0.08979 0.0
C411 C 0.69551 0.14544 0.04123 0.0
H412 H 0.81401 0.98947 0.04745 0.0
H413 H 0.8109 0.98735 0.07711 0.0
H414 H 0.78325 0.07745 0.11845 0.0
H415 H 0.76814 0.14551 0.11866 0.0
H416 H 0.70099 0.22772 0.07822 0.0
H417 H 0.67028 0.21153 0.05239 0.0
H418 H 0.69295 0.11841 0.01117 0.0
H419 H 0.74038 0.06774 1.00734 0.0
H420 H 0.65322 0.0144 0.05505 0.0
H421 H 0.63024 0.09187 0.08898 0.0
H422 H 0.82074 0.18904 0.03339 0.0
H423 H 0.88112 0.12168 0.06263 0.0
C424 C 0.67791 0.7282 0.82462 0.0
C425 C 0.70691 0.70757 0.82107 0.0
C426 C 0.69909 0.69068 0.80789 0.0
C427 C 0.666 0.70207 0.80402 0.0
N428 N 0.65269 0.72539 0.81386 0.0
Co429 Co 0.60578 0.74838 0.81231 0.0
N430 N 0.60111 0.73625 0.79074 0.0
C431 C 0.61986 0.71165 0.78342 0.0
C432 C 0.61107 0.7093 0.76851 0.0
C433 C 0.585 0.7338 0.76637 0.0
C434 C 0.57919 0.74969 0.78016 0.0
N435 N 0.55886 0.77113 0.81089 0.0
C436 C 0.54052 0.78171 0.79867 0.0
C437 C 0.50815 0.79577 0.80279 0.0
C438 C 0.50632 0.79379 0.81811 0.0
C439 C 0.53747 0.77863 0.82249 0.0
N440 N 0.61016 0.76051 0.83389 0.0
C441 C 0.58335 0.7693 0.84303 0.0
C442 C 0.59377 0.77497 0.85756 0.0
C443 C 0.62936 0.76907 0.85762 0.0
C444 C 0.63873 0.76019 0.84304 0.0
N445 N 0.62851 0.79287 0.80665 0.0
C446 C 0.65697 0.85626 0.7957 0.0
C447 C 0.63061 0.85634 0.80676 0.0
C448 C 0.61699 0.82439 0.81218 0.0
C449 C 0.66929 0.82366 0.79061 0.0
C450 C 0.65476 0.79253 0.79615 0.0
N451 N 0.58307 0.70344 0.81762 0.0
C452 C 0.5838 0.64817 0.83099 0.0
C453 C 0.55506 0.63576 0.8226 0.0
C454 C 0.53994 0.65861 0.81206 0.0
C455 C 0.55427 0.69211 0.80974 0.0
C456 C 0.59718 0.68204 0.82842 0.0
H457 H 0.54255 0.70843 0.80121 0.0
H458 H 0.61952 0.69054 0.83495 0.0
H459 H 0.59657 0.82517 0.82059 0.0
H460 H 0.66418 0.76813 0.79155 0.0
C461 C 0.64913 0.69593 0.79027 0.0
C462 C 0.67407 0.748 0.83874 0.0
C463 C 0.55143 0.77583 0.78307 0.0
C464 C 0.54987 0.77635 0.83722 0.0
H465 H 0.73113 0.7048 0.82735 0.0
H466 H 0.71606 0.67317 0.80162 0.0
H467 H 0.62313 0.6928 0.76006 0.0
H468 H 0.57182 0.73929 0.75586 0.0
H469 H 0.48779 0.80597 0.79549 0.0
H470 H 0.48529 0.80333 0.82522 0.0
H471 H 0.5776 0.78309 0.86693 0.0
H472 H 0.64625 0.77039 0.86738 0.0
H473 H 0.62049 0.88088 0.81116 0.0
H474 H 0.68923 0.82208 0.78195 0.0
H475 H 0.59604 0.63177 0.83944 0.0
H476 H 0.5179 0.65028 0.80521 0.0
C477 C 0.78415 0.47853 0.21544 0.0
C478 C 0.80188 0.50922 0.21155 0.0
C479 C 0.80101 0.51147 0.19624 0.0
C480 C 0.78316 0.48205 0.19161 0.0
N481 N 0.77301 0.46122 0.20304 0.0
Co482 Co 0.74754 0.41577 0.20114 0.0
N483 N 0.76034 0.41141 0.17963 0.0
C484 C 0.77151 0.43776 0.17072 0.0
C485 C 0.77729 0.42744 0.1562 0.0
C486 C 0.76902 0.3924 0.15589 0.0
C487 C 0.75873 0.38323 0.17033 0.0
N488 N 0.72156 0.37054 0.19906 0.0
C489 C 0.72331 0.34562 0.18817 0.0
C490 C 0.70059 0.31795 0.19132 0.0
C491 C 0.68349 0.32636 0.20439 0.0
C492 C 0.69683 0.35845 0.20859 0.0
N493 N 0.73498 0.42017 0.22269 0.0
C494 C 0.70895 0.40261 0.22969 0.0
C495 C 0.70594 0.41144 0.24457 0.0
C496 C 0.73152 0.43631 0.24705 0.0
C497 C 0.7488 0.44126 0.2335 0.0
N498 N 0.70413 0.44122 0.19574 0.0
C499 C 0.63639 0.47025 0.19203 0.0
C500 C 0.66026 0.48429 0.20245 0.0
C501 C 0.69381 0.4696 0.20407 0.0
C502 C 0.64824 0.44284 0.18276 0.0
C503 C 0.68214 0.42882 0.18476 0.0
N504 N 0.79041 0.39019 0.20702 0.0
C505 C 0.81702 0.34623 0.22283 0.0
C506 C 0.85091 0.35929 0.21986 0.0
C507 C 0.85376 0.38684 0.20936 0.0
C508 C 0.82326 0.4015 0.20291 0.0
C509 C 0.78745 0.36231 0.21661 0.0
H510 H 0.82626 0.4229 0.19506 0.0
H511 H 0.76208 0.35275 0.22008 0.0
H512 H 0.71083 0.4804 0.21257 0.0
H513 H 0.6899 0.40689 0.17785 0.0
C514 C 0.78083 0.47028 0.17681 0.0
C515 C 0.77576 0.46845 0.23097 0.0
C516 C 0.74438 0.34858 0.17435 0.0
C517 C 0.69145 0.37492 0.22247 0.0
H518 H 0.814 0.52819 0.21898 0.0
H519 H 0.81316 0.53147 0.18931 0.0
H520 H 0.78714 0.44325 0.14701 0.0
H521 H 0.76987 0.37573 0.14606 0.0
H522 H 0.69664 0.29418 0.18487 0.0
H523 H 0.66464 0.31031 0.2104 0.0
H524 H 0.68794 0.40048 0.25275 0.0
H525 H 0.73657 0.44964 0.25755 0.0
H526 H 0.65283 0.50609 0.20959 0.0
H527 H 0.63093 0.43112 0.1745 0.0
H528 H 0.8129 0.32406 0.23024 0.0
H529 H 0.8791 0.398 0.20651 0.0
C530 C 0.34435 0.29376 0.82582 0.0
C531 C 0.31596 0.31508 0.82211 0.0
C532 C 0.3247 0.33202 0.80904 0.0
C533 C 0.35771 0.32 0.8054 0.0
N534 N 0.37011 0.29628 0.81529 0.0
Co535 Co 0.41658 0.27229 0.81408 0.0
N536 N 0.42227 0.28428 0.79253 0.0
C537 C 0.40438 0.30944 0.78512 0.0
C538 C 0.41435 0.31236 0.77037 0.0
C539 C 0.44033 0.28768 0.76842 0.0
C540 C 0.44473 0.27096 0.78213 0.0
N541 N 0.46306 0.24845 0.81302 0.0
C542 C 0.48163 0.23739 0.80094 0.0
C543 C 0.51249 0.22066 0.80539 0.0
C544 C 0.5136 0.22228 0.82071 0.0
C545 C 0.48335 0.23946 0.8248 0.0
N546 N 0.41109 0.26034 0.83564 0.0
C547 C 0.43723 0.25081 0.84501 0.0
C548 C 0.426 0.24526 0.85943 0.0
C549 C 0.39057 0.25193 0.85918 0.0
C550 C 0.38211 0.26108 0.84452 0.0
N551 N 0.39306 0.22833 0.8083 0.0
C552 C 0.36332 0.16571 0.79726 0.0
C553 C 0.38936 0.16493 0.80845 0.0
C554 C 0.40361 0.19654 0.81393 0.0
C555 C 0.35196 0.19857 0.79207 0.0
C556 C 0.36715 0.22932 0.79765 0.0
N557 N 0.44006 0.31675 0.81949 0.0
C558 C 0.43936 0.37257 0.8324 0.0
C559 C 0.46849 0.38438 0.8241 0.0
C560 C 0.48393 0.36087 0.81393 0.0
C561 C 0.4694 0.3274 0.8118 0.0
C562 C 0.42579 0.33869 0.83003 0.0
H563 H 0.48131 0.31062 0.8035 0.0
H564 H 0.40309 0.33067 0.83644 0.0
H565 H 0.42369 0.19525 0.82248 0.0
H566 H 0.3585 0.25393 0.79297 0.0
C567 C 0.37525 0.32583 0.79178 0.0
C568 C 0.34712 0.27339 0.83983 0.0
C569 C 0.47258 0.24507 0.78523 0.0
C570 C 0.4705 0.24226 0.83943 0.0
H571 H 0.29155 0.31824 0.82821 0.0
H572 H 0.30837 0.34996 0.80267 0.0
H573 H 0.4034 0.32964 0.76192 0.0
H574 H 0.45469 0.28284 0.75814 0.0
H575 H 0.53233 0.20873 0.79833 0.0
H576 H 0.53343 0.21104 0.82801 0.0
H577 H 0.44148 0.23647 0.86891 0.0
H578 H 0.37312 0.2507 0.86876 0.0
H579 H 0.39872 0.14014 0.8129 0.0
H580 H 0.33228 0.2006 0.78331 0.0
H581 H 0.42689 0.38947 0.8406 0.0
H582 H 0.50631 0.36869 0.80718 0.0
C583 C 0.2348 0.53675 0.21442 0.0
C584 C 0.21747 0.5059 0.21045 0.0
C585 C 0.2178 0.50423 0.19514 0.0
C586 C 0.2349 0.53416 0.19059 0.0
N587 N 0.24514 0.55479 0.20206 0.0
Co588 Co 0.26923 0.60111 0.20029 0.0
N589 N 0.25642 0.60555 0.17871 0.0
C590 C 0.24416 0.5795 0.1699 0.0
C591 C 0.23512 0.59061 0.1558 0.0
C592 C 0.2425 0.62578 0.1556 0.0
C593 C 0.25648 0.63414 0.16957 0.0
N594 N 0.29353 0.64733 0.19843 0.0
C595 C 0.292 0.67201 0.18741 0.0
C596 C 0.3152 0.69943 0.19035 0.0
C597 C 0.33175 0.69156 0.20359 0.0
C598 C 0.31799 0.65982 0.208 0.0
N599 N 0.28192 0.59661 0.22187 0.0
C600 C 0.30739 0.61485 0.22893 0.0
C601 C 0.31093 0.60571 0.24375 0.0
C602 C 0.28634 0.57985 0.24614 0.0
C603 C 0.26909 0.57467 0.2326 0.0
N604 N 0.31348 0.57718 0.19488 0.0
C605 C 0.38193 0.54997 0.19107 0.0
C606 C 0.35848 0.53512 0.20145 0.0
C607 C 0.32456 0.5489 0.20312 0.0
C608 C 0.36938 0.57728 0.18191 0.0
C609 C 0.33512 0.59041 0.18396 0.0
N610 N 0.22547 0.62506 0.20611 0.0
C611 C 0.19605 0.66631 0.22237 0.0
C612 C 0.16296 0.65445 0.21756 0.0
C613 C 0.16196 0.62832 0.20644 0.0
C614 C 0.19345 0.61422 0.20078 0.0
C615 C 0.22676 0.65133 0.21657 0.0
H616 H 0.19182 0.59391 0.19239 0.0
H617 H 0.2516 0.66032 0.22096 0.0
H618 H 0.30785 0.53741 0.21156 0.0
H619 H 0.32674 0.61222 0.1771 0.0
C620 C 0.23584 0.54669 0.17591 0.0
C621 C 0.24339 0.54638 0.22997 0.0
C622 C 0.27187 0.66864 0.17334 0.0
C623 C 0.32396 0.64321 0.22179 0.0
H624 H 0.20584 0.48649 0.21783 0.0
H625 H 0.2056 0.48437 0.18816 0.0
H626 H 0.22304 0.57533 0.14694 0.0
H627 H 0.23793 0.64311 0.14619 0.0
H628 H 0.32027 0.72236 0.18349 0.0
H629 H 0.35106 0.70742 0.20944 0.0
H630 H 0.32868 0.61702 0.25194 0.0
H631 H 0.282 0.56596 0.25658 0.0
H632 H 0.36647 0.51334 0.20851 0.0
H633 H 0.38635 0.58957 0.17367 0.0
H634 H 0.19834 0.68612 0.23104 0.0
H635 H 0.13704 0.61863 0.20219 0.0
C636 C 0.6738 0.79756 0.4376 0.0
C637 C 0.69607 0.82649 0.43903 0.0
C638 C 0.68865 0.84207 0.45254 0.0
C639 C 0.66111 0.82317 0.45833 0.0
N640 N 0.65073 0.79683 0.44928 0.0
Co641 Co 0.6049 0.77212 0.45126 0.0
N642 N 0.6019 0.78249 0.47299 0.0
C643 C 0.61967 0.80814 0.4801 0.0
C644 C 0.61208 0.80961 0.49514 0.0
C645 C 0.58767 0.78349 0.49755 0.0
C646 C 0.58148 0.76766 0.48377 0.0
N647 N 0.55889 0.74796 0.4531 0.0
C648 C 0.54194 0.7358 0.46542 0.0
C649 C 0.50939 0.72166 0.46154 0.0
C650 C 0.5059 0.72562 0.44632 0.0
C651 C 0.53636 0.74184 0.44175 0.0
N652 N 0.60749 0.76203 0.42948 0.0
C653 C 0.57912 0.75729 0.42065 0.0
C654 C 0.58674 0.75985 0.40568 0.0
C655 C 0.62217 0.76661 0.40507 0.0
C656 C 0.63469 0.76615 0.41975 0.0
N657 N 0.62938 0.72812 0.45597 0.0
C658 C 0.65863 0.66507 0.46675 0.0
C659 C 0.63171 0.66473 0.45592 0.0
C660 C 0.61771 0.69655 0.45055 0.0
C661 C 0.67148 0.69779 0.4715 0.0
C662 C 0.65656 0.72879 0.46603 0.0
N663 N 0.58045 0.81677 0.4469 0.0
C664 C 0.579 0.87259 0.43401 0.0
C665 C 0.55164 0.88448 0.44325 0.0
C666 C 0.53781 0.86098 0.45387 0.0
C667 C 0.55254 0.82737 0.45551 0.0
C668 C 0.59278 0.83881 0.43593 0.0
H669 H 0.54201 0.8104 0.4641 0.0
H670 H 0.61423 0.83107 0.42879 0.0
H671 H 0.59667 0.69567 0.44241 0.0
H672 H 0.6661 0.7534 0.47045 0.0
C673 C 0.64566 0.82754 0.47252 0.0
C674 C 0.67134 0.77438 0.42423 0.0
C675 C 0.55371 0.74128 0.48098 0.0
C676 C 0.54646 0.74833 0.42689 0.0
H677 H 0.71428 0.83696 0.43085 0.0
H678 H 0.70128 0.86496 0.45736 0.0
H679 H 0.62333 0.82712 0.50343 0.0
H680 H 0.57532 0.77737 0.50817 0.0
H681 H 0.48973 0.7106 0.46895 0.0
H682 H 0.48399 0.71725 0.43942 0.0
H683 H 0.56866 0.75771 0.39633 0.0
H684 H 0.63662 0.77268 0.39494 0.0
H685 H 0.62126 0.6401 0.45175 0.0
H686 H 0.69193 0.69956 0.47994 0.0
H687 H 0.59005 0.88945 0.42542 0.0
H688 H 0.51667 0.8689 0.46128 0.0
C689 C 0.73997 0.48322 0.54819 0.0
C690 C 0.72508 0.5156 0.55165 0.0
C691 C 0.72521 0.51835 0.56696 0.0
C692 C 0.74023 0.48773 0.57199 0.0
N693 N 0.74946 0.4658 0.56083 0.0
Co694 Co 0.77255 0.41925 0.56326 0.0
N695 N 0.75857 0.4162 0.58473 0.0
C696 C 0.74674 0.44308 0.59318 0.0
C697 C 0.73688 0.43295 0.60732 0.0
C698 C 0.74334 0.3976 0.60792 0.0
C699 C 0.75761 0.38811 0.59414 0.0
N700 N 0.79591 0.37279 0.56578 0.0
C701 C 0.79339 0.34872 0.57702 0.0
C702 C 0.81636 0.32087 0.57457 0.0
C703 C 0.83373 0.32782 0.56142 0.0
C704 C 0.82069 0.3595 0.55658 0.0
N705 N 0.78641 0.42248 0.54181 0.0
C706 C 0.81187 0.40352 0.53513 0.0
C707 C 0.81544 0.4112 0.52016 0.0
C708 C 0.79084 0.43678 0.51727 0.0
C709 C 0.7737 0.44345 0.53072 0.0
N710 N 0.81691 0.44275 0.56892 0.0
C711 C 0.88465 0.47065 0.57409 0.0
C712 C 0.86241 0.48505 0.56313 0.0
C713 C 0.82886 0.47079 0.56073 0.0
C714 C 0.87148 0.44294 0.58287 0.0
C715 C 0.83755 0.42966 0.58021 0.0
N716 N 0.72868 0.39571 0.55727 0.0
C717 C 0.69934 0.35336 0.54149 0.0
C718 C 0.66623 0.36562 0.54605 0.0
C719 C 0.66515 0.39279 0.55671 0.0
C720 C 0.69662 0.40725 0.56226 0.0
C721 C 0.73002 0.3687 0.54717 0.0
H722 H 0.69499 0.42827 0.57034 0.0
H723 H 0.75489 0.35924 0.54302 0.0
H724 H 0.81308 0.4818 0.55185 0.0
H725 H 0.82849 0.40807 0.58704 0.0
C726 C 0.74009 0.47599 0.58682 0.0
C727 C 0.74722 0.47127 0.53285 0.0
C728 C 0.77262 0.35316 0.59086 0.0
C729 C 0.82764 0.37531 0.54269 0.0
H730 H 0.71531 0.53529 0.54393 0.0
H731 H 0.71435 0.53952 0.57361 0.0
H732 H 0.72506 0.44905 0.61597 0.0
H733 H 0.73815 0.38092 0.61749 0.0
H734 H 0.82077 0.29825 0.58169 0.0
H735 H 0.85311 0.31141 0.55593 0.0
H736 H 0.8329 0.39881 0.51216 0.0
H737 H 0.7862 0.44915 0.50652 0.0
H738 H 0.87132 0.50635 0.55601 0.0
H739 H 0.88737 0.43135 0.59167 0.0
H740 H 0.70168 0.33279 0.53315 0.0
H741 H 0.64021 0.40289 0.56071 0.0
C742 C 0.34857 0.22523 0.43769 0.0
C743 C 0.32166 0.20103 0.44001 0.0
C744 C 0.32935 0.18357 0.45306 0.0
C745 C 0.36051 0.19779 0.45797 0.0
N746 N 0.37275 0.22339 0.44891 0.0
Co747 Co 0.41837 0.24849 0.45152 0.0
N748 N 0.42208 0.23434 0.47293 0.0
C749 C 0.40398 0.20814 0.47953 0.0
C750 C 0.4119 0.2045 0.49448 0.0
C751 C 0.43672 0.22986 0.49743 0.0
C752 C 0.44272 0.2475 0.48404 0.0
N753 N 0.46427 0.273 0.454 0.0
C754 C 0.4815 0.2827 0.46665 0.0
C755 C 0.51343 0.2987 0.46323 0.0
C756 C 0.51608 0.29908 0.44792 0.0
C757 C 0.48585 0.28324 0.44285 0.0
N758 N 0.41471 0.26298 0.43014 0.0
C759 C 0.44108 0.27618 0.42174 0.0
C760 C 0.43047 0.28613 0.40767 0.0
C761 C 0.39532 0.27831 0.40707 0.0
C762 C 0.38649 0.26318 0.42077 0.0
N763 N 0.39331 0.2912 0.45778 0.0
C764 C 0.36254 0.35132 0.47082 0.0
C765 C 0.39059 0.35431 0.46057 0.0
C766 C 0.4052 0.32403 0.45403 0.0
C767 C 0.34904 0.31751 0.4735 0.0
C768 C 0.36505 0.28808 0.46717 0.0
N769 N 0.4433 0.20523 0.4457 0.0
C770 C 0.4438 0.15021 0.43222 0.0
C771 C 0.4712 0.13752 0.44129 0.0
C772 C 0.48569 0.16034 0.45198 0.0
C773 C 0.47143 0.1939 0.45401 0.0
C774 C 0.43055 0.18421 0.43448 0.0
H775 H 0.48225 0.21005 0.4628 0.0
H776 H 0.40903 0.19289 0.42752 0.0
H777 H 0.42698 0.32714 0.44637 0.0
H778 H 0.3551 0.26267 0.47035 0.0
C779 C 0.37648 0.1913 0.47188 0.0
C780 C 0.35212 0.24669 0.424 0.0
C781 C 0.46975 0.27484 0.48197 0.0
C782 C 0.47389 0.28364 0.42806 0.0
H783 H 0.29919 0.19592 0.43286 0.0
H784 H 0.31371 0.16339 0.45845 0.0
H785 H 0.40021 0.18638 0.50242 0.0
H786 H 0.44913 0.23462 0.50817 0.0
H787 H 0.53287 0.30893 0.47096 0.0
H788 H 0.53685 0.31085 0.44128 0.0
H789 H 0.44607 0.29884 0.39907 0.0
H790 H 0.37837 0.28318 0.39756 0.0
H791 H 0.40216 0.37961 0.45799 0.0
H792 H 0.32655 0.31335 0.48073 0.0
H793 H 0.43226 0.1338 0.42359 0.0
H794 H 0.50686 0.15179 0.45927 0.0
C795 C 0.28364 0.53925 0.5507 0.0
C796 C 0.30054 0.50817 0.55466 0.0
C797 C 0.30027 0.5065 0.56998 0.0
C798 C 0.28362 0.53664 0.57454 0.0
N799 N 0.27355 0.55734 0.56306 0.0
Co800 Co 0.25018 0.60396 0.56477 0.0
N801 N 0.26368 0.60857 0.58626 0.0
C802 C 0.27576 0.58248 0.5951 0.0
C803 C 0.28529 0.59367 0.60913 0.0
C804 C 0.27837 0.62894 0.60925 0.0
C805 C 0.26417 0.63727 0.59531 0.0
N806 N 0.22659 0.65052 0.56657 0.0
C807 C 0.22869 0.67533 0.57752 0.0
C808 C 0.20576 0.70296 0.57458 0.0
C809 C 0.18877 0.69508 0.56144 0.0
C810 C 0.20202 0.66312 0.55708 0.0
N811 N 0.23677 0.59923 0.54331 0.0
C812 C 0.21126 0.61752 0.53631 0.0
C813 C 0.20744 0.60829 0.52151 0.0
C814 C 0.23193 0.58238 0.51908 0.0
C815 C 0.2494 0.57728 0.53258 0.0
N816 N 0.20577 0.58066 0.57053 0.0
C817 C 0.13778 0.55311 0.5754 0.0
C818 C 0.16067 0.53781 0.56494 0.0
C819 C 0.19433 0.55191 0.56267 0.0
C820 C 0.15044 0.58152 0.58389 0.0
C821 C 0.18453 0.59461 0.58141 0.0
N822 N 0.29411 0.6272 0.55861 0.0
C823 C 0.32367 0.66743 0.5419 0.0
C824 C 0.35671 0.65503 0.54651 0.0
C825 C 0.35766 0.6292 0.55777 0.0
C826 C 0.32613 0.61589 0.56376 0.0
C827 C 0.29291 0.65322 0.54803 0.0
H828 H 0.3277 0.59578 0.57225 0.0
H829 H 0.26807 0.66256 0.54378 0.0
H830 H 0.21057 0.5402 0.55413 0.0
H831 H 0.19322 0.61674 0.58799 0.0
C832 C 0.2833 0.5494 0.58918 0.0
C833 C 0.27539 0.5493 0.53517 0.0
C834 C 0.24894 0.67182 0.59155 0.0
C835 C 0.19531 0.64625 0.5434 0.0
H836 H 0.31196 0.48868 0.54729 0.0
H837 H 0.31236 0.48656 0.57696 0.0
H838 H 0.2973 0.57835 0.618 0.0
H839 H 0.28331 0.64634 0.6186 0.0
H840 H 0.2011 0.72603 0.5814 0.0
H841 H 0.16947 0.71103 0.55565 0.0
H842 H 0.1897 0.61968 0.51334 0.0
H843 H 0.23616 0.56851 0.50864 0.0
H844 H 0.15219 0.51595 0.55804 0.0
H845 H 0.13402 0.59381 0.59232 0.0
H846 H 0.32141 0.68706 0.53315 0.0
H847 H 0.38255 0.61913 0.56187 0.0
H848 H 0.16035 0.41981 0.3044 0.0
H849 H 0.2732 0.48212 0.23399 0.0
H850 H 0.18734 0.35153 0.26736 0.0
H851 H 0.19569 0.55149 0.25313 0.0
H852 H 0.25401 0.43548 0.25117 0.0
H853 H 0.1831 0.46989 0.28997 0.0
C854 C 0.17094 0.41504 0.29333 0.0
C855 C 0.17201 0.38074 0.28731 0.0
C856 C 0.24145 0.46102 0.25174 0.0
C857 C 0.19924 0.43817 0.271 0.0
C858 C 0.2525 0.4876 0.24203 0.0
C859 C 0.23561 0.52037 0.24207 0.0
C860 C 0.21376 0.46741 0.26181 0.0
C861 C 0.20911 0.52639 0.25274 0.0
C862 C 0.18413 0.44376 0.28516 0.0
C863 C 0.18674 0.37681 0.27289 0.0
N864 N 0.19881 0.50004 0.26219 0.0
N865 N 0.19992 0.40495 0.26536 0.0
H866 H 0.50441 0.73696 0.76684 0.0
H867 H 0.41372 0.90507 0.72834 0.0
H868 H 0.54266 0.84275 0.77249 0.0
H869 H 0.37154 0.79982 0.72596 0.0
H870 H 0.46483 0.88219 0.742 0.0
H871 H 0.4595 0.75879 0.74939 0.0
C872 C 0.50377 0.76472 0.7641 0.0
C873 C 0.52757 0.78807 0.77084 0.0
C874 C 0.44451 0.86406 0.7384 0.0
C875 C 0.47567 0.81351 0.75124 0.0
C876 C 0.41539 0.87709 0.7305 0.0
C877 C 0.38806 0.85441 0.72604 0.0
C878 C 0.4465 0.82803 0.74186 0.0
C879 C 0.39161 0.81842 0.72936 0.0
C880 C 0.47797 0.77726 0.75426 0.0
C881 C 0.52505 0.82392 0.76731 0.0
N882 N 0.42011 0.80643 0.73709 0.0
N883 N 0.49949 0.8356 0.75779 0.0
H884 H 0.74642 0.5323 0.23627 0.0
H885 H 0.86742 0.59155 0.30473 0.0
H886 H 0.82623 0.46203 0.253 0.0
H887 H 0.8353 0.66129 0.26891 0.0
H888 H 0.84359 0.54184 0.2903 0.0
H889 H 0.76763 0.57797 0.25347 0.0
C890 C 0.76803 0.52639 0.24381 0.0
C891 C 0.78489 0.49365 0.24318 0.0
C892 C 0.8417 0.5682 0.28576 0.0
C893 C 0.80918 0.54554 0.26289 0.0
C894 C 0.85547 0.59668 0.29393 0.0
C895 C 0.85309 0.63126 0.28828 0.0
C896 C 0.82479 0.57435 0.272 0.0
C897 C 0.83685 0.63573 0.27419 0.0
C898 C 0.78026 0.55243 0.25352 0.0
C899 C 0.81274 0.4871 0.25316 0.0
N900 N 0.82315 0.60783 0.26668 0.0
N901 N 0.8242 0.51294 0.26262 0.0
H902 H 0.5377 0.27334 0.78132 0.0
H903 H 0.59793 0.15907 0.71111 0.0
H904 H 0.46689 0.19678 0.76236 0.0
H905 H 0.66722 0.18646 0.74782 0.0
H906 H 0.54813 0.18207 0.72568 0.0
H907 H 0.58408 0.25315 0.76424 0.0
C908 C 0.53189 0.25256 0.77337 0.0
C909 C 0.49878 0.23623 0.77335 0.0
C910 C 0.57441 0.18311 0.73039 0.0
C911 C 0.55142 0.21331 0.7537 0.0
C912 C 0.60295 0.16979 0.72215 0.0
C913 C 0.63744 0.171 0.72803 0.0
C914 C 0.58039 0.19842 0.74448 0.0
C915 C 0.64176 0.1858 0.7424 0.0
C916 C 0.55831 0.24096 0.76371 0.0
C917 C 0.49229 0.20971 0.76276 0.0
N918 N 0.61379 0.1991 0.75 0.0
N919 N 0.51849 0.19888 0.75334 0.0
H920 H 0.28313 0.0131 0.01632 0.0
H921 H 0.11651 0.10442 0.9769 0.0
H922 H 0.17681 0.97554 0.02151 0.0
H923 H 0.22249 0.14512 0.97473 0.0
H924 H 0.13869 0.05281 0.99043 0.0
H925 H 0.26219 0.0571 0.99831 0.0
C926 C 0.25547 0.01362 0.01333 0.0
C927 C 0.2317 0.99035 0.02015 0.0
C928 C 0.15713 0.0729 0.98688 0.0
C929 C 0.20723 0.04132 0.99992 0.0
C930 C 0.1445 0.10228 0.97906 0.0
C931 C 0.16759 0.12938 0.97476 0.0
C932 C 0.19317 0.07044 0.99041 0.0
C933 C 0.20359 0.12524 0.97803 0.0
C934 C 0.24342 0.03893 1.00317 0.0
C935 C 0.19596 0.99274 0.01628 0.0
N936 N 0.21518 0.09654 0.9857 0.0
N937 N 0.18475 0.0179 1.00649 0.0
H938 H 0.10562 0.90057 0.03698 0.0
H939 H 0.01617 0.73354 0.99714 0.0
H940 H 0.14738 0.79519 0.03934 0.0
H941 H 0.97766 0.83936 0.99208 0.0
H942 H 0.06035 0.75479 0.01505 0.0
H943 H 0.05479 0.87798 0.02304 0.0
C944 C 0.10391 0.87261 0.03477 0.0
C945 C 0.13107 0.84983 0.03929 0.0
C946 C 0.04195 0.77338 0.01023 0.0
C947 C 0.07295 0.82379 0.02313 0.0
C948 C 0.01655 0.76116 1.00012 0.0
C949 C 0.99291 0.78469 0.99339 0.0
C950 C 0.04404 0.80951 0.01352 0.0
C951 C 0.99514 0.82038 0.99724 0.0
C952 C 0.07495 0.85976 0.0267 0.0
C953 C 0.12746 0.81389 0.0359 0.0
N954 N 0.02033 0.83175 1.007 0.0
N955 N 0.09914 0.80207 0.02799 0.0
H956 H 0.86296 0.92221 0.96067 0.0
H957 H 0.74829 0.98473 0.03028 0.0
H958 H 0.83655 0.85474 0.99809 0.0
H959 H 0.82671 0.05449 0.01197 0.0
H960 H 0.7686 0.93826 0.01331 0.0
H961 H 0.84031 0.97263 0.97497 0.0
C962 C 0.85252 0.91772 0.9718 0.0
C963 C 0.85134 0.88356 0.97795 0.0
C964 C 0.78114 0.96384 0.01289 0.0
C965 C 0.82438 0.94121 0.99408 0.0
C966 C 0.76948 0.99031 0.02248 0.0
C967 C 0.78629 0.02312 0.02262 0.0
C968 C 0.80936 0.97039 1.0031 0.0
C969 C 0.81338 0.02932 0.01223 0.0
C970 C 0.83942 0.9466 0.97989 0.0
C971 C 0.83704 0.87991 0.99246 0.0
N972 N 0.82428 1.00307 1.00288 0.0
N973 N 0.8239 0.90815 0.99989 0.0
H974 H 0.87163 0.22593 0.04023 0.0
H975 H 0.04316 0.17764 0.99219 0.0
H976 H 0.91436 0.121 0.0379 0.0
H977 H 1.00428 0.28312 0.99788 0.0
H978 H 0.99887 0.15658 0.01022 0.0
H979 H 0.92236 0.24769 0.02615 0.0
C980 C 0.89182 0.20747 0.03683 0.0
C981 C 0.88851 0.1715 0.04018 0.0
C982 C 1.00035 0.18442 0.00773 0.0
C983 C 0.94692 0.19631 0.02392 0.0
C984 C 0.0257 0.19639 0.99751 0.0
C985 C 0.02765 0.23217 0.9938 0.0
C986 C 0.97644 0.20839 0.01411 0.0
C987 C 1.00399 0.25541 1.00069 0.0
C988 C 0.92089 0.21994 0.02881 0.0
C989 C 0.91584 0.14894 0.03565 0.0
N990 N 0.97928 0.24312 0.01043 0.0
N991 N 0.94367 0.16164 0.02763 0.0
H992 H 0.62013 0.91547 0.78725 0.0
H993 H 0.78677 1.00463 0.74682 0.0
H994 H 0.72536 0.8728 0.78845 0.0
H995 H 0.68097 0.04416 0.74261 0.0
H996 H 0.76578 0.96062 0.76483 0.0
H997 H 0.64272 0.9669 0.7737 0.0
C998 C 0.64806 0.91712 0.78488 0.0
C999 C 0.67078 0.88951 0.78892 0.0
C1000 C 0.74716 0.97923 0.76019 0.0
C1001 C 0.69684 0.94829 0.77323 0.0
C1002 C 0.75924 1.00456 0.75003 0.0
C1003 C 0.73564 0.0284 0.74347 0.0
C1004 C 0.71107 0.97739 0.76371 0.0
C1005 C 0.70003 0.02653 0.74763 0.0
C1006 C 0.66092 0.94641 0.77703 0.0
C1007 C 0.7067 0.89307 0.78536 0.0
N1008 N 0.68877 1.00136 0.75741 0.0
N1009 N 0.71852 0.9217 0.77769 0.0
H1010 H 0.05594 0.32102 0.26198 0.0
H1011 H 0.85276 0.33118 0.24837 0.0
H1012 H 0.98478 0.2427 0.27932 0.0
H1013 H 0.92159 0.3558 0.21116 0.0
H1014 H 0.9024 0.30631 0.2617 0.0
H1015 H 1.00933 0.34085 0.24452 0.0
C1016 C 0.03075 0.30762 0.26187 0.0
C1017 C 0.02393 0.28038 0.27208 0.0
C1018 C 0.90657 0.31692 0.25056 0.0
C1019 C 0.97069 0.30335 0.25266 0.0
C1020 C 0.87803 0.33097 0.24278 0.0
C1021 C 0.88224 0.34506 0.22827 0.0
C1022 C 0.94022 0.31769 0.24415 0.0
C1023 C 0.91665 0.34543 0.22226 0.0
C1024 C 1.00425 0.31895 0.25198 0.0
C1025 C 0.9909 0.26389 0.27162 0.0
N1026 N 0.94435 0.33216 0.23026 0.0
N1027 N 0.96532 0.27605 0.2623 0.0
H1028 H 0.34072 0.97779 0.743 0.0
H1029 H 0.29454 0.15055 0.79037 0.0
H1030 H 0.2357 0.01866 0.74816 0.0
H1031 H 0.39898 0.10622 0.78836 0.0
H1032 H 0.27203 0.09985 0.77653 0.0
H1033 H 0.36217 0.02156 0.76113 0.0
C1034 C 0.32212 0.99552 0.74825 0.0
C1035 C 0.28636 0.99432 0.74434 0.0
C1036 C 0.29984 0.10096 0.77921 0.0
C1037 C 0.31064 0.04502 0.76474 0.0
C1038 C 0.31274 0.13001 0.78709 0.0
C1039 C 0.3488 0.13287 0.79045 0.0
C1040 C 0.32312 0.07448 0.77447 0.0
C1041 C 0.37099 0.10511 0.78609 0.0
C1042 C 0.33433 0.02061 0.75852 0.0
C1043 C 0.26336 0.01835 0.75113 0.0
N1044 N 0.35788 0.07731 0.7782 0.0
N1045 N 0.2759 0.04282 0.76092 0.0
H1046 H 0.01507 0.78319 0.26734 0.0
H1047 H 0.10364 0.61781 0.22605 0.0
H1048 H 0.97683 0.67708 0.27179 0.0
H1049 H 0.14734 0.72259 0.22554 0.0
H1050 H 0.05256 0.64015 0.23985 0.0
H1051 H 0.05879 0.76277 0.24906 0.0
C1052 C 0.01532 0.75572 0.26411 0.0
C1053 C 0.99198 0.73184 0.27083 0.0
C1054 C 0.07319 0.65831 0.23662 0.0
C1055 C 0.04262 0.70795 0.2503 0.0
C1056 C 0.10231 0.64561 0.22863 0.0
C1057 C 0.13009 0.66826 0.22468 0.0
C1058 C 0.07162 0.69402 0.24066 0.0
C1059 C 0.12692 0.70398 0.22854 0.0
C1060 C 0.04049 0.74396 0.25382 0.0
C1061 C 0.99405 0.69633 0.26665 0.0
N1062 N 0.09841 0.71567 0.23634 0.0
N1063 N 0.01904 0.68542 0.25672 0.0
H1064 H 0.78726 0.51708 0.51647 0.0
H1065 H 0.62117 0.60681 0.47588 0.0
H1066 H 0.68095 0.47922 0.52129 0.0
H1067 H 0.727 0.64799 0.47392 0.0
H1068 H 0.64326 0.55587 0.48987 0.0
H1069 H 0.76654 0.56094 0.49833 0.0
C1070 C 0.75965 0.51753 0.51339 0.0
C1071 C 0.73583 0.49417 0.52013 0.0
C1072 C 0.66169 0.57591 0.48627 0.0
C1073 C 0.71161 0.54495 0.49972 0.0
C1074 C 0.64913 0.60492 0.47817 0.0
C1075 C 0.67217 0.63198 0.47377 0.0
C1076 C 0.69765 0.57376 0.48999 0.0
C1077 C 0.7081 0.62815 0.47726 0.0
C1078 C 0.74773 0.54275 0.50315 0.0
C1079 C 0.70015 0.49649 0.51614 0.0
N1080 N 0.71964 0.5998 0.4852 0.0
N1081 N 0.68908 0.52151 0.50625 0.0
H1082 H 0.65101 0.29662 0.53952 0.0
H1083 H 0.47485 0.34096 0.49368 0.0
H1084 H 0.60661 0.40085 0.53681 0.0
H1085 H 0.51777 0.23669 0.49804 0.0
H1086 H 0.51963 0.36277 0.5113 0.0
H1087 H 0.5998 0.27362 0.52611 0.0
C1088 C 0.63043 0.3147 0.53615 0.0
C1089 C 0.63341 0.35085 0.53922 0.0
C1090 C 0.51892 0.335 0.50864 0.0
C1091 C 0.5743 0.32451 0.52381 0.0
C1092 C 0.49322 0.32257 0.49868 0.0
C1093 C 0.49231 0.28693 0.49467 0.0
C1094 C 0.54424 0.31167 0.51446 0.0
C1095 C 0.5172 0.26423 0.50111 0.0
C1096 C 0.60105 0.30149 0.52854 0.0
C1097 C 0.60547 0.37281 0.53479 0.0
N1098 N 0.54225 0.277 0.5106 0.0
N1099 N 0.57732 0.35937 0.5272 0.0
H1100 H 0.32482 0.55579 0.5128 0.0
H1101 H 0.33347 0.3527 0.49914 0.0
H1102 H 0.24607 0.48516 0.5302 0.0
H1103 H 0.35973 0.42193 0.46228 0.0
H1104 H 0.30875 0.40228 0.51251 0.0
H1105 H 0.34459 0.50906 0.49547 0.0
C1106 C 0.31138 0.53065 0.51275 0.0
C1107 C 0.28406 0.52399 0.52295 0.0
C1108 C 0.3197 0.40654 0.50144 0.0
C1109 C 0.30686 0.47068 0.50365 0.0
C1110 C 0.33367 0.37806 0.49364 0.0
C1111 C 0.34822 0.38245 0.47923 0.0
C1112 C 0.321 0.44025 0.49513 0.0
C1113 C 0.34905 0.41689 0.47331 0.0
C1114 C 0.32265 0.5041 0.50293 0.0
C1115 C 0.2674 0.49109 0.52254 0.0
N1116 N 0.33584 0.4445 0.48133 0.0
N1117 N 0.27949 0.46546 0.51327 0.0
H1118 H 0.50717 0.78145 0.49679 0.0
H1119 H 0.41494 0.61714 0.53768 0.0
H1120 H 0.54401 0.67493 0.49225 0.0
H1121 H 0.37336 0.7227 0.53819 0.0
H1122 H 0.46613 0.63845 0.52358 0.0
H1123 H 0.46202 0.76121 0.51445 0.0
C1124 C 0.50617 0.75387 0.49981 0.0
C1125 C 0.52968 0.72987 0.49332 0.0
C1126 C 0.44591 0.65699 0.52686 0.0
C1127 C 0.47744 0.7062 0.51319 0.0
C1128 C 0.41675 0.64488 0.53502 0.0
C1129 C 0.38956 0.66808 0.53909 0.0
C1130 C 0.44812 0.69265 0.52278 0.0
C1131 C 0.39331 0.70369 0.53512 0.0
C1132 C 0.48022 0.74223 0.50978 0.0
C1133 C 0.52666 0.69426 0.49723 0.0
N1134 N 0.42186 0.7148 0.52718 0.0
N1135 N 0.50096 0.68346 0.50688 0.0
H1136 H 0.28288 0.26709 0.4257 0.0
H1137 H 0.23703 0.26531 0.34024 0.0
H1138 H 0.35765 0.22027 0.39533 0.0
H1139 H 0.16337 0.21804 0.37102 0.0
H1140 H 0.28233 0.26389 0.36011 0.0
H1141 H 0.23784 0.26433 0.40576 0.0
C1142 C 0.28985 0.25651 0.41482 0.0
C1143 C 0.32429 0.24475 0.41205 0.0
C1144 C 0.25612 0.25405 0.36246 0.0
C1145 C 0.27338 0.24227 0.38923 0.0
C1146 C 0.23037 0.25486 0.35118 0.0
C1147 C 0.19614 0.24265 0.3541 0.0
C1148 C 0.24731 0.24173 0.37683 0.0
C1149 C 0.18907 0.22879 0.36843 0.0
C1150 C 0.26424 0.25492 0.40351 0.0
C1151 C 0.33176 0.2307 0.3978 0.0
N1152 N 0.21417 0.22934 0.37935 0.0
N1153 N 0.30676 0.23045 0.38684 0.0
H1154 H 0.2721 0.74021 0.58993 0.0
H1155 H 0.27212 0.78601 0.67486 0.0
H1156 H 0.21959 0.66787 0.61971 0.0
H1157 H 0.22114 0.85968 0.6452 0.0
H1158 H 0.26989 0.74144 0.65475 0.0
H1159 H 0.27025 0.78525 0.60987 0.0
C1160 C 0.26037 0.7338 0.60066 0.0
C1161 C 0.24679 0.7 0.6033 0.0
C1162 C 0.25948 0.76752 0.6527 0.0
C1163 C 0.24545 0.75078 0.62611 0.0
C1164 C 0.26075 0.79285 0.6641 0.0
C1165 C 0.24761 0.82685 0.66158 0.0
C1166 C 0.2458 0.77655 0.63858 0.0
C1167 C 0.2326 0.83417 0.64748 0.0
C1168 C 0.25935 0.75938 0.61198 0.0
C1169 C 0.23135 0.69323 0.61736 0.0
N1170 N 0.23269 0.80948 0.63641 0.0
N1171 N 0.23173 0.71811 0.62834 0.0
H1172 H 0.7446 0.78921 0.42747 0.0
H1173 H 0.79678 0.72559 0.34466 0.0
H1174 H 0.67553 0.72815 0.39954 0.0
H1175 H 0.85774 0.79958 0.3704 0.0
H1176 H 0.75363 0.72259 0.36525 0.0
H1177 H 0.78888 0.78742 0.40801 0.0
C1178 C 0.73715 0.77786 0.41688 0.0
C1179 C 0.70272 0.76531 0.41415 0.0
C1180 C 0.77651 0.73938 0.36644 0.0
C1181 C 0.75617 0.75877 0.39223 0.0
C1182 C 0.80099 0.74115 0.35468 0.0
C1183 C 0.8309 0.76258 0.35594 0.0
C1184 C 0.78202 0.75921 0.37957 0.0
C1185 C 0.83514 0.78247 0.36908 0.0
C1186 C 0.76335 0.77573 0.40585 0.0
C1187 C 0.69896 0.74364 0.40135 0.0
N1188 N 0.81111 0.78022 0.38038 0.0
N1189 N 0.72473 0.74191 0.39073 0.0
H1190 H 0.79791 0.16131 0.64335 0.0
H1191 H 0.8009 0.35837 0.61922 0.0
H1192 H 0.75159 0.23704 0.67339 0.0
H1193 H 0.74973 0.28457 0.5897 0.0
H1194 H 0.80034 0.31381 0.63922 0.0
H1195 H 0.79768 0.2058 0.62332 0.0
C1196 C 0.78742 0.18722 0.6457 0.0
C1197 C 0.77358 0.19514 0.65993 0.0
C1198 C 0.78917 0.30752 0.62836 0.0
C1199 C 0.77521 0.24653 0.63731 0.0
C1200 C 0.7893 0.33287 0.61698 0.0
C1201 C 0.77419 0.32555 0.60292 0.0
C1202 C 0.77539 0.27401 0.62548 0.0
C1203 C 0.76103 0.29149 0.60045 0.0
C1204 C 0.78748 0.21252 0.63429 0.0
C1205 C 0.76187 0.22966 0.66251 0.0
N1206 N 0.76214 0.26686 0.61158 0.0
N1207 N 0.76317 0.2542 0.65135 0.0
H1208 H 0.19656 0.32843 0.90965 0.0
H1209 H 0.31187 0.21655 0.8511 0.0
H1210 H 0.20575 0.21565 0.91157 0.0
H1211 H 0.31841 0.32923 0.85502 0.0
H1212 H 0.26931 0.21558 0.87187 0.0
H1213 H 0.23812 0.32939 0.88858 0.0
C1214 C 0.20787 0.30392 0.90577 0.0
C1215 C 0.19846 0.27198 0.91258 0.0
C1216 C 0.27973 0.24058 0.8681 0.0
C1217 C 0.24513 0.27266 0.88812 0.0
C1218 C 0.30376 0.24113 0.85618 0.0
C1219 C 0.31798 0.27307 0.85113 0.0
C1220 C 0.26988 0.27226 0.87508 0.0
C1221 C 0.30735 0.30414 0.85832 0.0
C1222 C 0.23136 0.30441 0.89367 0.0
C1223 C 0.21288 0.24084 0.90678 0.0
N1224 N 0.28394 0.30297 0.86989 0.0
N1225 N 0.23543 0.24193 0.89489 0.0
H1226 H 0.24901 0.73706 0.17511 0.0
H1227 H 0.2489 0.78382 0.09021 0.0
H1228 H 0.30107 0.66504 0.14513 0.0
H1229 H 0.29963 0.85734 0.12001 0.0
H1230 H 0.25114 0.73904 0.11025 0.0
H1231 H 0.2509 0.78239 0.15527 0.0
C1232 C 0.26065 0.73077 0.16435 0.0
C1233 C 0.27406 0.69697 0.16163 0.0
C1234 C 0.26148 0.76514 0.11236 0.0
C1235 C 0.27547 0.7481 0.13893 0.0
C1236 C 0.26019 0.7906 0.10099 0.0
C1237 C 0.27322 0.82463 0.10357 0.0
C1238 C 0.2751 0.77404 0.1265 0.0
C1239 C 0.28818 0.83183 0.11769 0.0
C1240 C 0.2617 0.75653 0.15309 0.0
C1241 C 0.28941 0.69038 0.14754 0.0
N1242 N 0.28812 0.807 0.12872 0.0
N1243 N 0.28905 0.71543 0.13662 0.0
H1244 H 0.81505 0.80419 0.91204 0.0
H1245 H 0.70125 0.69078 0.85346 0.0
H1246 H 0.8245 0.69184 0.90754 0.0
H1247 H 0.70893 0.80367 0.8514 0.0
H1248 H 0.74376 0.69049 0.87419 0.0
H1249 H 0.77308 0.80467 0.89101 0.0
C1250 C 0.80782 0.77959 0.90674 0.0
C1251 C 0.82258 0.74785 0.91173 0.0
C1252 C 0.7365 0.71534 0.86913 0.0
C1253 C 0.77504 0.74811 0.88755 0.0
C1254 C 0.71247 0.71546 0.85722 0.0
C1255 C 0.70231 0.74723 0.85047 0.0
C1256 C 0.75005 0.74732 0.87458 0.0
C1257 C 0.71662 0.77859 0.85613 0.0
C1258 C 0.7841 0.77986 0.89469 0.0
C1259 C 0.81302 0.71676 0.90428 0.0
N1260 N 0.73967 0.77787 0.86787 0.0
N1261 N 0.7898 0.71764 0.89262 0.0
H1262 H 0.80225 0.20733 0.10172 0.0
H1263 H 0.68735 0.32377 0.15866 0.0
H1264 H 0.68925 0.20022 0.10467 0.0
H1265 H 0.79977 0.31183 0.16258 0.0
H1266 H 0.68737 0.28173 0.13779 0.0
H1267 H 0.80203 0.2495 0.12261 0.0
C1268 C 0.77736 0.21521 0.10662 0.0
C1269 C 0.74567 0.20097 0.10126 0.0
C1270 C 0.71202 0.28796 0.1433 0.0
C1271 C 0.74512 0.24868 0.12531 0.0
C1272 C 0.71194 0.3117 0.15529 0.0
C1273 C 0.74349 0.32051 0.1626 0.0
C1274 C 0.744 0.2734 0.13833 0.0
C1275 C 0.77483 0.30517 0.15742 0.0
C1276 C 0.77722 0.23901 0.1186 0.0
C1277 C 0.71416 0.21132 0.10821 0.0
N1278 N 0.77433 0.28247 0.14559 0.0
N1279 N 0.71467 0.23458 0.11983 0.0
H1280 H 0.9845 0.92392 0.30066 0.0
H1281 H 0.0381 0.09268 0.34979 0.0
H1282 H 0.98401 0.9228 0.34905 0.0
H1283 H 0.0308 0.09183 0.30149 0.0
H1284 H 0.01959 0.03074 0.35014 0.0
H1285 H 1.00263 0.9853 0.30115 0.0
C1286 C 0.98851 0.93644 0.31143 0.0
C1287 C 0.983 0.91776 0.32484 0.0
C1288 C 0.02192 0.04421 0.33948 0.0
C1289 C 1.00348 0.989 0.32548 0.0
C1290 C 0.03266 0.07958 0.33926 0.0
C1291 C 0.03584 0.09784 0.32559 0.0
C1292 C 0.01456 0.02677 0.32593 0.0
C1293 C 0.02813 0.07932 0.31234 0.0
C1294 C 0.99865 0.97175 0.3117 0.0
C1295 C 0.98779 0.93603 0.33842 0.0
N1296 N 0.01799 0.04502 0.31285 0.0
N1297 N 0.99787 0.97053 0.3384 0.0
H1298 H 0.90793 0.98157 0.68953 0.0
H1299 H 0.11114 0.03842 0.69044 0.0
H1300 H 0.94247 0.08908 0.68464 0.0
H1301 H 0.07685 0.93075 0.68597 0.0
H1302 H 0.04963 0.05752 0.68894 0.0
H1303 H 0.96951 0.96243 0.68881 0.0
C1304 C 0.92844 1.00117 0.68826 0.0
C1305 C 0.91988 0.03703 0.68715 0.0
C1306 C 0.05555 0.02973 0.68819 0.0
C1307 C 0.99069 0.01524 0.68638 0.0
C1308 C 0.0907 0.01878 0.68912 0.0
C1309 C 0.09932 0.98288 0.68835 0.0
C1310 C 0.02858 1.00463 0.68665 0.0
C1311 C 0.0716 0.9587 0.68647 0.0
C1312 C 0.96363 0.99019 0.68779 0.0
C1313 C 0.94769 0.06114 0.68538 0.0
N1314 N 0.03757 0.96997 0.6858 0.0
N1315 N 0.98175 0.04986 0.68517 0.0
H1316 H 0.0946 0.44404 0.93754 0.0
H1317 H 0.92921 0.57546 0.93623 0.0
H1318 H 0.98678 0.40931 0.94153 0.0
H1319 H 0.03688 0.61032 0.9407 0.0
H1320 H 0.94988 0.51452 0.93537 0.0
H1321 H 0.07396 0.50488 0.93594 0.0
C1322 C 0.06655 0.44912 0.93792 0.0
C1323 C 0.04244 0.42135 0.93969 0.0
C1324 C 0.96901 0.5355 0.93648 0.0
C1325 C 0.01856 0.49128 0.93797 0.0
C1326 C 0.95724 0.57038 0.93685 0.0
C1327 C 0.9813 0.59821 0.93856 0.0
C1328 C 1.00519 0.52821 0.93771 0.0
C1329 C 0.0173 0.58979 0.93954 0.0
C1330 C 0.05479 0.48396 0.93712 0.0
C1331 C 1.0064 0.42979 0.94034 0.0
N1332 N 0.02811 0.55565 0.9391 0.0
N1333 N 0.99559 0.4639 0.93947 0.0
H1334 H 0.42443 0.9819 0.09733 0.0
H1335 H 0.5945 0.03255 0.04832 0.0
H1336 H 0.42677 0.98423 0.04896 0.0
H1337 H 0.5923 0.04228 0.09652 0.0
H1338 H 0.53364 0.01234 0.04877 0.0
H1339 H 0.48613 1.00153 0.09769 0.0
C1340 C 0.43785 0.98645 0.08679 0.0
C1341 C 0.4201 0.9816 0.07309 0.0
C1342 C 0.54636 0.01881 0.05928 0.0
C1343 C 0.49083 1.0041 0.07343 0.0
C1344 C 0.58136 0.03014 0.05905 0.0
C1345 C 0.59889 0.03894 0.07242 0.0
C1346 C 0.52834 0.01605 0.073 0.0
C1347 C 0.57991 0.036 0.08592 0.0
C1348 C 0.47305 0.99783 0.08701 0.0
C1349 C 0.43895 0.98818 0.05981 0.0
N1350 N 0.54575 0.02471 0.08587 0.0
N1351 N 0.47309 0.99896 0.06032 0.0
H1352 H 0.53724 0.4077 0.82441 0.0
H1353 H 0.48634 0.61239 0.82271 0.0
H1354 H 0.43026 0.44554 0.82678 0.0
H1355 H 0.59323 0.57483 0.82634 0.0
H1356 H 0.46534 0.5516 0.82413 0.0
H1357 H 0.55823 0.46857 0.82507 0.0
C1358 C 0.51812 0.42877 0.82509 0.0
C1359 C 0.48185 0.42129 0.8255 0.0
C1360 C 0.49338 0.55663 0.8247 0.0
C1361 C 0.50583 0.49139 0.82627 0.0
C1362 C 0.50544 0.59139 0.82381 0.0
C1363 C 0.54169 0.59893 0.82436 0.0
C1364 C 0.51769 0.52891 0.82602 0.0
C1365 C 0.56506 0.57048 0.82601 0.0
C1366 C 0.53016 0.46358 0.82553 0.0
C1367 C 0.45844 0.44986 0.82658 0.0
N1368 N 0.5527 0.53684 0.82668 0.0
N1369 N 0.4708 0.48352 0.82682 0.0
H1370 H 0.59381 0.48757 0.2157 0.0
H1371 H 0.42491 0.54031 0.16631 0.0
H1372 H 0.59311 0.48095 0.16739 0.0
H1373 H 0.42526 0.53322 0.2146 0.0
H1374 H 0.48683 0.52144 0.1661 0.0
H1375 H 0.53279 0.50725 0.21513 0.0
C1376 C 0.58098 0.49057 0.20492 0.0
C1377 C 0.59898 0.48277 0.19156 0.0
C1378 C 0.47327 0.52393 0.17673 0.0
C1379 C 0.52823 0.50504 0.19084 0.0
C1380 C 0.43793 0.53487 0.17686 0.0
C1381 C 0.41956 0.53817 0.19049 0.0
C1382 C 0.49057 0.51656 0.19033 0.0
C1383 C 0.43793 0.53049 0.2038 0.0
C1384 C 0.54588 0.50159 0.20462 0.0
C1385 C 0.58037 0.48644 0.17799 0.0
N1386 N 0.47223 0.52019 0.20337 0.0
N1387 N 0.54611 0.49741 0.17797 0.0
H1388 H 0.53912 0.11249 0.44212 0.0
H1389 H 0.48337 0.90913 0.44461 0.0
H1390 H 0.43136 0.07756 0.43827 0.0
H1391 H 0.59073 0.94458 0.43964 0.0
H1392 H 0.46359 0.97047 0.44331 0.0
H1393 H 0.55837 0.05108 0.44206 0.0
C1394 C 0.51949 0.09191 0.44123 0.0
C1395 C 0.48354 0.10031 0.44019 0.0
C1396 C 0.49146 0.96479 0.44244 0.0
C1397 C 0.50544 0.02966 0.4402 0.0
C1398 C 0.50279 0.92977 0.44326 0.0
C1399 C 0.5388 0.92155 0.44219 0.0
C1400 C 0.5163 0.99195 0.44069 0.0
C1401 C 0.56269 0.9495 0.44032 0.0
C1402 C 0.53051 0.05681 0.44114 0.0
C1403 C 0.45936 0.07241 0.43892 0.0
N1404 N 0.55106 0.98332 0.4397 0.0
N1405 N 0.4707 0.03841 0.43907 0.0
H1406 H 0.90918 0.53887 0.57344 0.0
H1407 H 0.11324 0.4849 0.57553 0.0
H1408 H 0.94491 0.43186 0.57858 0.0
H1409 H 0.07726 0.59227 0.57844 0.0
H1410 H 0.05192 0.46498 0.57627 0.0
H1411 H 0.97041 0.55893 0.57486 0.0
C1412 C 0.92987 0.51956 0.57489 0.0
C1413 C 0.9217 0.48355 0.57587 0.0
C1414 C 0.05741 0.4929 0.57684 0.0
C1415 C 0.9922 0.50645 0.57748 0.0
C1416 C 0.09248 0.50433 0.57635 0.0
C1417 C 0.1006 0.54039 0.57689 0.0
C1418 C 0.02998 0.51765 0.57771 0.0
C1419 C 0.07242 0.56423 0.57814 0.0
C1420 C 0.96487 0.53107 0.57576 0.0
C1421 C 0.94977 0.45987 0.57792 0.0
N1422 N 0.03848 0.55248 0.57839 0.0
N1423 N 0.98365 0.47168 0.57854 0.0
loop_
_geom_bond_atom_site_label_1
_geom_bond_atom_site_label_2
_geom_bond_distance
_geom_bond_site_symmetry_2
_ccdc_geom_bond_type
C0 C1 1.443 . S
C0 N4 1.376 . S
C0 C38 1.389 . S
C1 C0 1.443 . S
C1 C2 1.340 . S
C1 H41 0.951 . S
C2 C1 1.340 . S
C2 C3 1.439 . S
C2 H42 0.950 . S
C3 C2 1.439 . S
C3 N4 1.374 . S
C3 C37 1.395 . S
N4 C0 1.376 . S
N4 C3 1.374 . S
N4 Co5 2.008 . S
Co5 N4 2.008 . S
Co5 N6 1.995 . S
Co5 N11 2.008 . S
Co5 N16 1.995 . S
Co5 N21 2.282 . S
Co5 N27 2.282 . S
N6 Co5 1.995 . S
N6 C7 1.376 . S
N6 C10 1.383 . S
C7 N6 1.376 . S
C7 C8 1.446 . S
C7 C37 1.391 . S
C8 C7 1.446 . S
C8 C9 1.339 . S
C8 H43 0.949 . S
C9 C8 1.339 . S
C9 C10 1.439 . S
C9 H44 0.950 . S
C10 N6 1.383 . S
C10 C9 1.439 . S
C10 C39 1.392 . S
N11 Co5 2.008 . S
N11 C12 1.376 . S
N11 C15 1.374 . S
C12 N11 1.376 . S
C12 C13 1.443 1_455 S
C12 C39 1.389 . S
C13 C12 1.443 1_655 S
C13 C14 1.340 . S
C13 H45 0.951 . S
C14 C13 1.340 . S
C14 C15 1.439 1_655 S
C14 H46 0.950 . S
C15 N11 1.374 . S
C15 C14 1.439 1_455 S
C15 C40 1.395 . S
N16 Co5 1.995 . S
N16 C17 1.376 . S
N16 C20 1.383 . S
C17 N16 1.376 . S
C17 C18 1.446 . S
C17 C40 1.391 . S
C18 C17 1.446 . S
C18 C19 1.339 . S
C18 H47 0.949 . S
C19 C18 1.339 . S
C19 C20 1.439 . S
C19 H48 0.950 . S
C20 N16 1.383 . S
C20 C19 1.439 . S
C20 C38 1.392 . S
N21 Co5 2.282 . S
N21 C24 1.332 . S
N21 C26 1.332 . S
C22 C23 1.386 . S
C22 C25 1.388 . S
C23 C22 1.386 . S
C23 C24 1.382 . S
C23 H49 0.950 . S
C24 N21 1.332 . S
C24 C23 1.382 . S
C24 H35 0.952 . S
C25 C22 1.388 . S
C25 C26 1.382 . S
C25 H50 0.950 . S
C26 N21 1.332 . S
C26 C25 1.382 . S
C26 H36 0.948 . S
N27 Co5 2.282 . S
N27 C31 1.332 . S
N27 C32 1.332 . S
C28 C29 1.388 . S
C28 C32 1.382 . S
C28 H51 0.950 . S
C29 C28 1.388 . S
C29 C30 1.386 . S
C30 C29 1.386 . S
C30 C31 1.382 . S
C30 H52 0.950 . S
C31 N27 1.332 . S
C31 C30 1.382 . S
C31 H33 0.952 . S
C32 N27 1.332 . S
C32 C28 1.382 . S
C32 H34 0.948 . S
H33 C31 0.952 . S
H34 C32 0.948 . S
H35 C24 0.952 . S
H36 C26 0.948 . S
C37 C3 1.395 . S
C37 C7 1.391 . S
C38 C0 1.389 . S
C38 C20 1.392 . S
C39 C10 1.392 . S
C39 C12 1.389 . S
C40 C15 1.395 . S
C40 C17 1.391 . S
H41 C1 0.951 . S
H42 C2 0.950 . S
H43 C8 0.949 . S
H44 C9 0.950 . S
H45 C13 0.951 . S
H46 C14 0.950 . S
H47 C18 0.949 . S
H48 C19 0.950 . S
H49 C23 0.950 . S
H50 C25 0.950 . S
H51 C28 0.950 . S
H52 C30 0.950 . S
C53 C54 1.443 1_565 S
C53 N57 1.376 . S
C53 C91 1.389 . S
C54 C53 1.443 1_545 S
C54 C55 1.340 . S
C54 H94 0.951 . S
C55 C54 1.340 . S
C55 C56 1.439 1_545 S
C55 H95 0.950 . S
C56 C55 1.439 1_565 S
C56 N57 1.374 . S
C56 C90 1.395 . S
N57 C53 1.376 . S
N57 C56 1.374 . S
N57 Co58 2.008 . S
Co58 N57 2.008 . S
Co58 N59 1.995 . S
Co58 N64 2.008 . S
Co58 N69 1.995 . S
Co58 N74 2.282 . S
Co58 N80 2.282 . S
N59 Co58 1.995 . S
N59 C60 1.376 . S
N59 C63 1.383 . S
C60 N59 1.376 . S
C60 C61 1.446 . S
C60 C90 1.391 . S
C61 C60 1.446 . S
C61 C62 1.339 . S
C61 H96 0.949 . S
C62 C61 1.339 . S
C62 C63 1.439 . S
C62 H97 0.950 . S
C63 N59 1.383 . S
C63 C62 1.439 . S
C63 C92 1.392 . S
N64 Co58 2.008 . S
N64 C65 1.376 . S
N64 C68 1.374 . S
C65 N64 1.376 . S
C65 C66 1.443 . S
C65 C92 1.389 . S
C66 C65 1.443 . S
C66 C67 1.340 . S
C66 H98 0.951 . S
C67 C66 1.340 . S
C67 C68 1.439 . S
C67 H99 0.950 . S
C68 N64 1.374 . S
C68 C67 1.439 . S
C68 C93 1.395 . S
N69 Co58 1.995 . S
N69 C70 1.376 . S
N69 C73 1.383 . S
C70 N69 1.376 . S
C70 C71 1.446 . S
C70 C93 1.391 . S
C71 C70 1.446 . S
C71 C72 1.339 . S
C71 H100 0.949 . S
C72 C71 1.339 . S
C72 C73 1.439 . S
C72 H101 0.950 . S
C73 N69 1.383 . S
C73 C72 1.439 . S
C73 C91 1.392 . S
N74 Co58 2.282 . S
N74 C77 1.332 . S
N74 C79 1.332 . S
C75 C76 1.386 . S
C75 C78 1.388 . S
C76 C75 1.386 . S
C76 C77 1.382 . S
C76 H102 0.950 . S
C77 N74 1.332 . S
C77 C76 1.382 . S
C77 H88 0.952 . S
C78 C75 1.388 . S
C78 C79 1.382 . S
C78 H103 0.950 . S
C79 N74 1.332 . S
C79 C78 1.382 . S
C79 H89 0.948 . S
N80 Co58 2.282 . S
N80 C84 1.332 . S
N80 C85 1.332 . S
C81 C82 1.388 . S
C81 C85 1.382 . S
C81 H104 0.950 . S
C82 C81 1.388 . S
C82 C83 1.386 . S
C83 C82 1.386 . S
C83 C84 1.382 . S
C83 H105 0.950 . S
C84 N80 1.332 . S
C84 C83 1.382 . S
C84 H86 0.952 . S
C85 N80 1.332 . S
C85 C81 1.382 . S
C85 H87 0.948 . S
H86 C84 0.952 . S
H87 C85 0.948 . S
H88 C77 0.952 . S
H89 C79 0.948 . S
C90 C56 1.395 . S
C90 C60 1.391 . S
C91 C53 1.389 . S
C91 C73 1.392 . S
C92 C63 1.392 . S
C92 C65 1.389 . S
C93 C68 1.395 . S
C93 C70 1.391 . S
H94 C54 0.951 . S
H95 C55 0.950 . S
H96 C61 0.949 . S
H97 C62 0.950 . S
H98 C66 0.951 . S
H99 C67 0.950 . S
H100 C71 0.949 . S
H101 C72 0.950 . S
H102 C76 0.950 . S
H103 C78 0.950 . S
H104 C81 0.950 . S
H105 C83 0.950 . S
C106 C107 1.443 . S
C106 N110 1.376 . S
C106 C144 1.389 . S
C107 C106 1.443 . S
C107 C108 1.340 . S
C107 H147 0.951 . S
C108 C107 1.340 . S
C108 C109 1.439 . S
C108 H148 0.950 . S
C109 C108 1.439 . S
C109 N110 1.374 . S
C109 C143 1.395 . S
N110 C106 1.376 . S
N110 C109 1.374 . S
N110 Co111 2.008 . S
Co111 N110 2.008 . S
Co111 N112 1.995 . S
Co111 N117 2.008 . S
Co111 N122 1.995 . S
Co111 N127 2.282 . S
Co111 N133 2.282 . S
N112 Co111 1.995 . S
N112 C113 1.376 . S
N112 C116 1.383 . S
C113 N112 1.376 . S
C113 C114 1.446 . S
C113 C143 1.391 . S
C114 C113 1.446 . S
C114 C115 1.339 . S
C114 H149 0.949 . S
C115 C114 1.339 . S
C115 C116 1.439 . S
C115 H150 0.950 . S
C116 N112 1.383 . S
C116 C115 1.439 . S
C116 C145 1.392 . S
N117 Co111 2.008 . S
N117 C118 1.376 . S
N117 C121 1.374 . S
C118 N117 1.376 . S
C118 C119 1.443 1_655 S
C118 C145 1.389 . S
C119 C118 1.443 1_455 S
C119 C120 1.340 . S
C119 H151 0.951 . S
C120 C119 1.340 . S
C120 C121 1.439 1_455 S
C120 H152 0.950 . S
C121 N117 1.374 . S
C121 C120 1.439 1_655 S
C121 C146 1.395 . S
N122 Co111 1.995 . S
N122 C123 1.376 . S
N122 C126 1.383 . S
C123 N122 1.376 . S
C123 C124 1.446 . S
C123 C146 1.391 . S
C124 C123 1.446 . S
C124 C125 1.339 . S
C124 H153 0.949 . S
C125 C124 1.339 . S
C125 C126 1.439 . S
C125 H154 0.950 . S
C126 N122 1.383 . S
C126 C125 1.439 . S
C126 C144 1.392 . S
N127 Co111 2.282 . S
N127 C130 1.332 . S
N127 C132 1.332 . S
C128 C129 1.386 . S
C128 C131 1.388 . S
C129 C128 1.386 . S
C129 C130 1.382 . S
C129 H155 0.950 . S
C130 N127 1.332 . S
C130 C129 1.382 . S
C130 H141 0.952 . S
C131 C128 1.388 . S
C131 C132 1.382 . S
C131 H156 0.950 . S
C132 N127 1.332 . S
C132 C131 1.382 . S
C132 H142 0.948 . S
N133 Co111 2.282 . S
N133 C137 1.332 . S
N133 C138 1.332 . S
C134 C135 1.388 . S
C134 C138 1.382 . S
C134 H157 0.950 . S
C135 C134 1.388 . S
C135 C136 1.386 . S
C136 C135 1.386 . S
C136 C137 1.382 . S
C136 H158 0.950 . S
C137 N133 1.332 . S
C137 C136 1.382 . S
C137 H139 0.952 . S
C138 N133 1.332 . S
C138 C134 1.382 . S
C138 H140 0.948 . S
H139 C137 0.952 . S
H140 C138 0.948 . S
H141 C130 0.952 . S
H142 C132 0.948 . S
C143 C109 1.395 . S
C143 C113 1.391 . S
C144 C106 1.389 . S
C144 C126 1.392 . S
C145 C116 1.392 . S
C145 C118 1.389 . S
C146 C121 1.395 . S
C146 C123 1.391 . S
H147 C107 0.951 . S
H148 C108 0.950 . S
H149 C114 0.949 . S
H150 C115 0.950 . S
H151 C119 0.951 . S
H152 C120 0.950 . S
H153 C124 0.949 . S
H154 C125 0.950 . S
H155 C129 0.950 . S
H156 C131 0.950 . S
H157 C134 0.950 . S
H158 C136 0.950 . S
C159 C160 1.443 1_545 S
C159 N163 1.376 . S
C159 C197 1.389 . S
C160 C159 1.443 1_565 S
C160 C161 1.340 . S
C160 H200 0.951 . S
C161 C160 1.340 . S
C161 C162 1.439 1_565 S
C161 H201 0.950 . S
C162 C161 1.439 1_545 S
C162 N163 1.374 . S
C162 C196 1.395 . S
N163 C159 1.376 . S
N163 C162 1.374 . S
N163 Co164 2.008 . S
Co164 N163 2.008 . S
Co164 N165 1.995 . S
Co164 N170 2.008 . S
Co164 N175 1.995 . S
Co164 N180 2.282 . S
Co164 N186 2.282 . S
N165 Co164 1.995 . S
N165 C166 1.376 . S
N165 C169 1.383 . S
C166 N165 1.376 . S
C166 C167 1.446 . S
C166 C196 1.391 . S
C167 C166 1.446 . S
C167 C168 1.339 . S
C167 H202 0.949 . S
C168 C167 1.339 . S
C168 C169 1.439 . S
C168 H203 0.950 . S
C169 N165 1.383 . S
C169 C168 1.439 . S
C169 C198 1.392 . S
N170 Co164 2.008 . S
N170 C171 1.376 . S
N170 C174 1.374 . S
C171 N170 1.376 . S
C171 C172 1.443 . S
C171 C198 1.389 . S
C172 C171 1.443 . S
C172 C173 1.340 . S
C172 H204 0.951 . S
C173 C172 1.340 . S
C173 C174 1.439 . S
C173 H205 0.950 . S
C174 N170 1.374 . S
C174 C173 1.439 . S
C174 C199 1.395 . S
N175 Co164 1.995 . S
N175 C176 1.376 . S
N175 C179 1.383 . S
C176 N175 1.376 . S
C176 C177 1.446 . S
C176 C199 1.391 . S
C177 C176 1.446 . S
C177 C178 1.339 . S
C177 H206 0.949 . S
C178 C177 1.339 . S
C178 C179 1.439 . S
C178 H207 0.950 . S
C179 N175 1.383 . S
C179 C178 1.439 . S
C179 C197 1.392 . S
N180 Co164 2.282 . S
N180 C183 1.332 . S
N180 C185 1.332 . S
C181 C182 1.386 . S
C181 C184 1.388 . S
C182 C181 1.386 . S
C182 C183 1.382 . S
C182 H208 0.950 . S
C183 N180 1.332 . S
C183 C182 1.382 . S
C183 H194 0.952 . S
C184 C181 1.388 . S
C184 C185 1.382 . S
C184 H209 0.950 . S
C185 N180 1.332 . S
C185 C184 1.382 . S
C185 H195 0.948 . S
N186 Co164 2.282 . S
N186 C190 1.332 . S
N186 C191 1.332 . S
C187 C188 1.388 . S
C187 C191 1.382 . S
C187 H210 0.950 . S
C188 C187 1.388 . S
C188 C189 1.386 . S
C189 C188 1.386 . S
C189 C190 1.382 . S
C189 H211 0.950 . S
C190 N186 1.332 . S
C190 C189 1.382 . S
C190 H192 0.952 . S
C191 N186 1.332 . S
C191 C187 1.382 . S
C191 H193 0.948 . S
H192 C190 0.952 . S
H193 C191 0.948 . S
H194 C183 0.952 . S
H195 C185 0.948 . S
C196 C162 1.395 . S
C196 C166 1.391 . S
C197 C159 1.389 . S
C197 C179 1.392 . S
C198 C169 1.392 . S
C198 C171 1.389 . S
C199 C174 1.395 . S
C199 C176 1.391 . S
H200 C160 0.951 . S
H201 C161 0.950 . S
H202 C167 0.949 . S
H203 C168 0.950 . S
H204 C172 0.951 . S
H205 C173 0.950 . S
H206 C177 0.949 . S
H207 C178 0.950 . S
H208 C182 0.950 . S
H209 C184 0.950 . S
H210 C187 0.950 . S
H211 C189 0.950 . S
C212 C213 1.443 . S
C212 N216 1.376 . S
C212 C250 1.389 . S
C213 C212 1.443 . S
C213 C214 1.340 . S
C213 H253 0.951 . S
C214 C213 1.340 . S
C214 C215 1.439 . S
C214 H254 0.950 . S
C215 C214 1.439 . S
C215 N216 1.374 . S
C215 C249 1.395 . S
N216 C212 1.376 . S
N216 C215 1.374 . S
N216 Co217 2.008 . S
Co217 N216 2.008 . S
Co217 N218 1.995 . S
Co217 N223 2.008 . S
Co217 N228 1.995 . S
Co217 N233 2.282 . S
Co217 N239 2.282 . S
N218 Co217 1.995 . S
N218 C219 1.376 . S
N218 C222 1.383 . S
C219 N218 1.376 . S
C219 C220 1.446 . S
C219 C249 1.391 . S
C220 C219 1.446 . S
C220 C221 1.339 . S
C220 H255 0.949 . S
C221 C220 1.339 . S
C221 C222 1.439 . S
C221 H256 0.950 . S
C222 N218 1.383 . S
C222 C221 1.439 . S
C222 C251 1.392 . S
N223 Co217 2.008 . S
N223 C224 1.376 . S
N223 C227 1.374 . S
C224 N223 1.376 . S
C224 C225 1.443 1_455 S
C224 C251 1.389 . S
C225 C224 1.443 1_655 S
C225 C226 1.340 . S
C225 H257 0.951 . S
C226 C225 1.340 . S
C226 C227 1.439 1_655 S
C226 H258 0.950 . S
C227 N223 1.374 . S
C227 C226 1.439 1_455 S
C227 C252 1.395 . S
N228 Co217 1.995 . S
N228 C229 1.376 . S
N228 C232 1.383 . S
C229 N228 1.376 . S
C229 C230 1.446 . S
C229 C252 1.391 . S
C230 C229 1.446 . S
C230 C231 1.339 . S
C230 H259 0.949 . S
C231 C230 1.339 . S
C231 C232 1.439 . S
C231 H260 0.950 . S
C232 N228 1.383 . S
C232 C231 1.439 . S
C232 C250 1.392 . S
N233 Co217 2.282 . S
N233 C236 1.332 . S
N233 C238 1.332 . S
C234 C235 1.386 . S
C234 C237 1.388 . S
C235 C234 1.386 . S
C235 C236 1.382 . S
C235 H261 0.950 . S
C236 N233 1.332 . S
C236 C235 1.382 . S
C236 H247 0.952 . S
C237 C234 1.388 . S
C237 C238 1.382 . S
C237 H262 0.950 . S
C238 N233 1.332 . S
C238 C237 1.382 . S
C238 H248 0.948 . S
N239 Co217 2.282 . S
N239 C243 1.332 . S
N239 C244 1.332 . S
C240 C241 1.388 . S
C240 C244 1.382 . S
C240 H263 0.950 . S
C241 C240 1.388 . S
C241 C242 1.386 . S
C242 C241 1.386 . S
C242 C243 1.382 . S
C242 H264 0.950 . S
C243 N239 1.332 . S
C243 C242 1.382 . S
C243 H245 0.952 . S
C244 N239 1.332 . S
C244 C240 1.382 . S
C244 H246 0.948 . S
H245 C243 0.952 . S
H246 C244 0.948 . S
H247 C236 0.952 . S
H248 C238 0.948 . S
C249 C215 1.395 . S
C249 C219 1.391 . S
C250 C212 1.389 . S
C250 C232 1.392 . S
C251 C222 1.392 . S
C251 C224 1.389 . S
C252 C227 1.395 . S
C252 C229 1.391 . S
H253 C213 0.951 . S
H254 C214 0.950 . S
H255 C220 0.949 . S
H256 C221 0.950 . S
H257 C225 0.951 . S
H258 C226 0.950 . S
H259 C230 0.949 . S
H260 C231 0.950 . S
H261 C235 0.950 . S
H262 C237 0.950 . S
H263 C240 0.950 . S
H264 C242 0.950 . S
C265 C266 1.443 1_565 S
C265 N269 1.376 . S
C265 C303 1.389 . S
C266 C265 1.443 1_545 S
C266 C267 1.340 . S
C266 H306 0.951 . S
C267 C266 1.340 . S
C267 C268 1.439 1_545 S
C267 H307 0.950 . S
C268 C267 1.439 1_565 S
C268 N269 1.374 . S
C268 C302 1.395 . S
N269 C265 1.376 . S
N269 C268 1.374 . S
N269 Co270 2.008 . S
Co270 N269 2.008 . S
Co270 N271 1.995 . S
Co270 N276 2.008 . S
Co270 N281 1.995 . S
Co270 N286 2.282 . S
Co270 N292 2.282 . S
N271 Co270 1.995 . S
N271 C272 1.376 . S
N271 C275 1.383 . S
C272 N271 1.376 . S
C272 C273 1.446 . S
C272 C302 1.391 . S
C273 C272 1.446 . S
C273 C274 1.339 . S
C273 H308 0.949 . S
C274 C273 1.339 . S
C274 C275 1.439 . S
C274 H309 0.950 . S
C275 N271 1.383 . S
C275 C274 1.439 . S
C275 C304 1.392 . S
N276 Co270 2.008 . S
N276 C277 1.376 . S
N276 C280 1.374 . S
C277 N276 1.376 . S
C277 C278 1.443 . S
C277 C304 1.389 . S
C278 C277 1.443 . S
C278 C279 1.340 . S
C278 H310 0.951 . S
C279 C278 1.340 . S
C279 C280 1.439 . S
C279 H311 0.950 . S
C280 N276 1.374 . S
C280 C279 1.439 . S
C280 C305 1.395 . S
N281 Co270 1.995 . S
N281 C282 1.376 . S
N281 C285 1.383 . S
C282 N281 1.376 . S
C282 C283 1.446 . S
C282 C305 1.391 . S
C283 C282 1.446 . S
C283 C284 1.339 . S
C283 H312 0.949 . S
C284 C283 1.339 . S
C284 C285 1.439 . S
C284 H313 0.950 . S
C285 N281 1.383 . S
C285 C284 1.439 . S
C285 C303 1.392 . S
N286 Co270 2.282 . S
N286 C289 1.332 . S
N286 C291 1.332 . S
C287 C288 1.386 . S
C287 C290 1.388 . S
C288 C287 1.386 . S
C288 C289 1.382 . S
C288 H314 0.950 . S
C289 N286 1.332 . S
C289 C288 1.382 . S
C289 H300 0.952 . S
C290 C287 1.388 . S
C290 C291 1.382 . S
C290 H315 0.950 . S
C291 N286 1.332 . S
C291 C290 1.382 . S
C291 H301 0.948 . S
N292 Co270 2.282 . S
N292 C296 1.332 . S
N292 C297 1.332 . S
C293 C294 1.388 . S
C293 C297 1.382 . S
C293 H316 0.950 . S
C294 C293 1.388 . S
C294 C295 1.386 . S
C295 C294 1.386 . S
C295 C296 1.382 . S
C295 H317 0.950 . S
C296 N292 1.332 . S
C296 C295 1.382 . S
C296 H298 0.952 . S
C297 N292 1.332 . S
C297 C293 1.382 . S
C297 H299 0.948 . S
H298 C296 0.952 . S
H299 C297 0.948 . S
H300 C289 0.952 . S
H301 C291 0.948 . S
C302 C268 1.395 . S
C302 C272 1.391 . S
C303 C265 1.389 . S
C303 C285 1.392 . S
C304 C275 1.392 . S
C304 C277 1.389 . S
C305 C280 1.395 . S
C305 C282 1.391 . S
H306 C266 0.951 . S
H307 C267 0.950 . S
H308 C273 0.949 . S
H309 C274 0.950 . S
H310 C278 0.951 . S
H311 C279 0.950 . S
H312 C283 0.949 . S
H313 C284 0.950 . S
H314 C288 0.950 . S
H315 C290 0.950 . S
H316 C293 0.950 . S
H317 C295 0.950 . S
C318 C319 1.443 . S
C318 N322 1.376 . S
C318 C356 1.389 . S
C319 C318 1.443 . S
C319 C320 1.340 . S
C319 H359 0.951 . S
C320 C319 1.340 . S
C320 C321 1.439 . S
C320 H360 0.950 . S
C321 C320 1.439 . S
C321 N322 1.374 . S
C321 C355 1.395 . S
N322 C318 1.376 . S
N322 C321 1.374 . S
N322 Co323 2.008 . S
Co323 N322 2.008 . S
Co323 N324 1.995 . S
Co323 N329 2.008 . S
Co323 N334 1.995 . S
Co323 N339 2.282 . S
Co323 N345 2.282 . S
N324 Co323 1.995 . S
N324 C325 1.376 . S
N324 C328 1.383 . S
C325 N324 1.376 . S
C325 C326 1.446 . S
C325 C355 1.391 . S
C326 C325 1.446 . S
C326 C327 1.339 . S
C326 H361 0.949 . S
C327 C326 1.339 . S
C327 C328 1.439 . S
C327 H362 0.950 . S
C328 N324 1.383 . S
C328 C327 1.439 . S
C328 C357 1.392 . S
N329 Co323 2.008 . S
N329 C330 1.376 . S
N329 C333 1.374 . S
C330 N329 1.376 . S
C330 C331 1.443 1_655 S
C330 C357 1.389 . S
C331 C330 1.443 1_455 S
C331 C332 1.340 . S
C331 H363 0.951 . S
C332 C331 1.340 . S
C332 C333 1.439 1_455 S
C332 H364 0.950 . S
C333 N329 1.374 . S
C333 C332 1.439 1_655 S
C333 C358 1.395 . S
N334 Co323 1.995 . S
N334 C335 1.376 . S
N334 C338 1.383 . S
C335 N334 1.376 . S
C335 C336 1.446 . S
C335 C358 1.391 . S
C336 C335 1.446 . S
C336 C337 1.339 . S
C336 H365 0.949 . S
C337 C336 1.339 . S
C337 C338 1.439 . S
C337 H366 0.950 . S
C338 N334 1.383 . S
C338 C337 1.439 . S
C338 C356 1.392 . S
N339 Co323 2.282 . S
N339 C342 1.332 . S
N339 C344 1.332 . S
C340 C341 1.386 . S
C340 C343 1.388 . S
C341 C340 1.386 . S
C341 C342 1.382 . S
C341 H367 0.950 . S
C342 N339 1.332 . S
C342 C341 1.382 . S
C342 H353 0.952 . S
C343 C340 1.388 . S
C343 C344 1.382 . S
C343 H368 0.950 . S
C344 N339 1.332 . S
C344 C343 1.382 . S
C344 H354 0.948 . S
N345 Co323 2.282 . S
N345 C349 1.332 . S
N345 C350 1.332 . S
C346 C347 1.388 . S
C346 C350 1.382 . S
C346 H369 0.950 . S
C347 C346 1.388 . S
C347 C348 1.386 . S
C348 C347 1.386 . S
C348 C349 1.382 . S
C348 H370 0.950 . S
C349 N345 1.332 . S
C349 C348 1.382 . S
C349 H351 0.952 . S
C350 N345 1.332 . S
C350 C346 1.382 . S
C350 H352 0.948 . S
H351 C349 0.952 . S
H352 C350 0.948 . S
H353 C342 0.952 . S
H354 C344 0.948 . S
C355 C321 1.395 . S
C355 C325 1.391 . S
C356 C318 1.389 . S
C356 C338 1.392 . S
C357 C328 1.392 . S
C357 C330 1.389 . S
C358 C333 1.395 . S
C358 C335 1.391 . S
H359 C319 0.951 . S
H360 C320 0.950 . S
H361 C326 0.949 . S
H362 C327 0.950 . S
H363 C331 0.951 . S
H364 C332 0.950 . S
H365 C336 0.949 . S
H366 C337 0.950 . S
H367 C341 0.950 . S
H368 C343 0.950 . S
H369 C346 0.950 . S
H370 C348 0.950 . S
C371 C372 1.443 1_545 S
C371 N375 1.376 . S
C371 C409 1.389 . S
C372 C371 1.443 1_565 S
C372 C373 1.340 . S
C372 H412 0.951 . S
C373 C372 1.340 . S
C373 C374 1.439 1_565 S
C373 H413 0.950 . S
C374 C373 1.439 1_545 S
C374 N375 1.374 . S
C374 C408 1.395 . S
N375 C371 1.376 . S
N375 C374 1.374 . S
N375 Co376 2.008 . S
Co376 N375 2.008 . S
Co376 N377 1.995 . S
Co376 N382 2.008 . S
Co376 N387 1.995 . S
Co376 N392 2.282 . S
Co376 N398 2.282 . S
N377 Co376 1.995 . S
N377 C378 1.376 . S
N377 C381 1.383 . S
C378 N377 1.376 . S
C378 C379 1.446 . S
C378 C408 1.391 . S
C379 C378 1.446 . S
C379 C380 1.339 . S
C379 H414 0.949 . S
C380 C379 1.339 . S
C380 C381 1.439 . S
C380 H415 0.950 . S
C381 N377 1.383 . S
C381 C380 1.439 . S
C381 C410 1.392 . S
N382 Co376 2.008 . S
N382 C383 1.376 . S
N382 C386 1.374 . S
C383 N382 1.376 . S
C383 C384 1.443 . S
C383 C410 1.389 . S
C384 C383 1.443 . S
C384 C385 1.340 . S
C384 H416 0.951 . S
C385 C384 1.340 . S
C385 C386 1.439 . S
C385 H417 0.950 . S
C386 N382 1.374 . S
C386 C385 1.439 . S
C386 C411 1.395 . S
N387 Co376 1.995 . S
N387 C388 1.376 . S
N387 C391 1.383 . S
C388 N387 1.376 . S
C388 C389 1.446 . S
C388 C411 1.391 . S
C389 C388 1.446 . S
C389 C390 1.339 . S
C389 H418 0.949 . S
C390 C389 1.339 . S
C390 C391 1.439 . S
C390 H419 0.950 . S
C391 N387 1.383 . S
C391 C390 1.439 . S
C391 C409 1.392 . S
N392 Co376 2.282 . S
N392 C395 1.332 . S
N392 C397 1.332 . S
C393 C394 1.386 . S
C393 C396 1.388 . S
C394 C393 1.386 . S
C394 C395 1.382 . S
C394 H420 0.950 . S
C395 N392 1.332 . S
C395 C394 1.382 . S
C395 H406 0.952 . S
C396 C393 1.388 . S
C396 C397 1.382 . S
C396 H421 0.950 . S
C397 N392 1.332 . S
C397 C396 1.382 . S
C397 H407 0.948 . S
N398 Co376 2.282 . S
N398 C402 1.332 . S
N398 C403 1.332 . S
C399 C400 1.388 . S
C399 C403 1.382 . S
C399 H422 0.950 . S
C400 C399 1.388 . S
C400 C401 1.386 . S
C401 C400 1.386 . S
C401 C402 1.382 . S
C401 H423 0.950 . S
C402 N398 1.332 . S
C402 C401 1.382 . S
C402 H404 0.952 . S
C403 N398 1.332 . S
C403 C399 1.382 . S
C403 H405 0.948 . S
H404 C402 0.952 . S
H405 C403 0.948 . S
H406 C395 0.952 . S
H407 C397 0.948 . S
C408 C374 1.395 . S
C408 C378 1.391 . S
C409 C371 1.389 . S
C409 C391 1.392 . S
C410 C381 1.392 . S
C410 C383 1.389 . S
C411 C386 1.395 . S
C411 C388 1.391 . S
H412 C372 0.951 . S
H413 C373 0.950 . S
H414 C379 0.949 . S
H415 C380 0.950 . S
H416 C384 0.951 . S
H417 C385 0.950 . S
H418 C389 0.949 . S
H419 C390 0.950 . S
H420 C394 0.950 . S
H421 C396 0.950 . S
H422 C399 0.950 . S
H423 C401 0.950 . S
C424 C425 1.443 . S
C424 N428 1.376 . S
C424 C462 1.389 . S
C425 C424 1.443 . S
C425 C426 1.340 . S
C425 H465 0.951 . S
C426 C425 1.340 . S
C426 C427 1.439 . S
C426 H466 0.950 . S
C427 C426 1.439 . S
C427 N428 1.374 . S
C427 C461 1.395 . S
N428 C424 1.376 . S
N428 C427 1.374 . S
N428 Co429 2.008 . S
Co429 N428 2.008 . S
Co429 N430 1.995 . S
Co429 N435 2.008 . S
Co429 N440 1.995 . S
Co429 N445 2.282 . S
Co429 N451 2.282 . S
N430 Co429 1.995 . S
N430 C431 1.376 . S
N430 C434 1.383 . S
C431 N430 1.376 . S
C431 C432 1.446 . S
C431 C461 1.391 . S
C432 C431 1.446 . S
C432 C433 1.339 . S
C432 H467 0.949 . S
C433 C432 1.339 . S
C433 C434 1.439 . S
C433 H468 0.950 . S
C434 N430 1.383 . S
C434 C433 1.439 . S
C434 C463 1.392 . S
N435 Co429 2.008 . S
N435 C436 1.376 . S
N435 C439 1.374 . S
C436 N435 1.376 . S
C436 C437 1.443 . S
C436 C463 1.389 . S
C437 C436 1.443 . S
C437 C438 1.340 . S
C437 H469 0.951 . S
C438 C437 1.340 . S
C438 C439 1.439 . S
C438 H470 0.950 . S
C439 N435 1.374 . S
C439 C438 1.439 . S
C439 C464 1.395 . S
N440 Co429 1.995 . S
N440 C441 1.376 . S
N440 C444 1.383 . S
C441 N440 1.376 . S
C441 C442 1.446 . S
C441 C464 1.391 . S
C442 C441 1.446 . S
C442 C443 1.339 . S
C442 H471 0.949 . S
C443 C442 1.339 . S
C443 C444 1.439 . S
C443 H472 0.950 . S
C444 N440 1.383 . S
C444 C443 1.439 . S
C444 C462 1.392 . S
N445 Co429 2.282 . S
N445 C448 1.332 . S
N445 C450 1.332 . S
C446 C447 1.386 . S
C446 C449 1.388 . S
C447 C446 1.386 . S
C447 C448 1.382 . S
C447 H473 0.950 . S
C448 N445 1.332 . S
C448 C447 1.382 . S
C448 H459 0.952 . S
C449 C446 1.388 . S
C449 C450 1.382 . S
C449 H474 0.950 . S
C450 N445 1.332 . S
C450 C449 1.382 . S
C450 H460 0.948 . S
N451 Co429 2.282 . S
N451 C455 1.332 . S
N451 C456 1.332 . S
C452 C453 1.388 . S
C452 C456 1.382 . S
C452 H475 0.950 . S
C453 C452 1.388 . S
C453 C454 1.386 . S
C454 C453 1.386 . S
C454 C455 1.382 . S
C454 H476 0.950 . S
C455 N451 1.332 . S
C455 C454 1.382 . S
C455 H457 0.952 . S
C456 N451 1.332 . S
C456 C452 1.382 . S
C456 H458 0.948 . S
H457 C455 0.952 . S
H458 C456 0.948 . S
H459 C448 0.952 . S
H460 C450 0.948 . S
C461 C427 1.395 . S
C461 C431 1.391 . S
C462 C424 1.389 . S
C462 C444 1.392 . S
C463 C434 1.392 . S
C463 C436 1.389 . S
C464 C439 1.395 . S
C464 C441 1.391 . S
H465 C425 0.951 . S
H466 C426 0.950 . S
H467 C432 0.949 . S
H468 C433 0.950 . S
H469 C437 0.951 . S
H470 C438 0.950 . S
H471 C442 0.949 . S
H472 C443 0.950 . S
H473 C447 0.950 . S
H474 C449 0.950 . S
H475 C452 0.950 . S
H476 C454 0.950 . S
C477 C478 1.443 . S
C477 N481 1.376 . S
C477 C515 1.389 . S
C478 C477 1.443 . S
C478 C479 1.340 . S
C478 H518 0.951 . S
C479 C478 1.340 . S
C479 C480 1.439 . S
C479 H519 0.950 . S
C480 C479 1.439 . S
C480 N481 1.374 . S
C480 C514 1.395 . S
N481 C477 1.376 . S
N481 C480 1.374 . S
N481 Co482 2.008 . S
Co482 N481 2.008 . S
Co482 N483 1.995 . S
Co482 N488 2.008 . S
Co482 N493 1.995 . S
Co482 N498 2.282 . S
Co482 N504 2.282 . S
N483 Co482 1.995 . S
N483 C484 1.376 . S
N483 C487 1.383 . S
C484 N483 1.376 . S
C484 C485 1.446 . S
C484 C514 1.391 . S
C485 C484 1.446 . S
C485 C486 1.339 . S
C485 H520 0.949 . S
C486 C485 1.339 . S
C486 C487 1.439 . S
C486 H521 0.950 . S
C487 N483 1.383 . S
C487 C486 1.439 . S
C487 C516 1.392 . S
N488 Co482 2.008 . S
N488 C489 1.376 . S
N488 C492 1.374 . S
C489 N488 1.376 . S
C489 C490 1.443 . S
C489 C516 1.389 . S
C490 C489 1.443 . S
C490 C491 1.340 . S
C490 H522 0.951 . S
C491 C490 1.340 . S
C491 C492 1.439 . S
C491 H523 0.950 . S
C492 N488 1.374 . S
C492 C491 1.439 . S
C492 C517 1.395 . S
N493 Co482 1.995 . S
N493 C494 1.376 . S
N493 C497 1.383 . S
C494 N493 1.376 . S
C494 C495 1.446 . S
C494 C517 1.391 . S
C495 C494 1.446 . S
C495 C496 1.339 . S
C495 H524 0.949 . S
C496 C495 1.339 . S
C496 C497 1.439 . S
C496 H525 0.950 . S
C497 N493 1.383 . S
C497 C496 1.439 . S
C497 C515 1.392 . S
N498 Co482 2.282 . S
N498 C501 1.332 . S
N498 C503 1.332 . S
C499 C500 1.386 . S
C499 C502 1.388 . S
C500 C499 1.386 . S
C500 C501 1.382 . S
C500 H526 0.950 . S
C501 N498 1.332 . S
C501 C500 1.382 . S
C501 H512 0.952 . S
C502 C499 1.388 . S
C502 C503 1.382 . S
C502 H527 0.950 . S
C503 N498 1.332 . S
C503 C502 1.382 . S
C503 H513 0.948 . S
N504 Co482 2.282 . S
N504 C508 1.332 . S
N504 C509 1.332 . S
C505 C506 1.388 . S
C505 C509 1.382 . S
C505 H528 0.950 . S
C506 C505 1.388 . S
C506 C507 1.386 . S
C507 C506 1.386 . S
C507 C508 1.382 . S
C507 H529 0.950 . S
C508 N504 1.332 . S
C508 C507 1.382 . S
C508 H510 0.952 . S
C509 N504 1.332 . S
C509 C505 1.382 . S
C509 H511 0.948 . S
H510 C508 0.952 . S
H511 C509 0.948 . S
H512 C501 0.952 . S
H513 C503 0.948 . S
C514 C480 1.395 . S
C514 C484 1.391 . S
C515 C477 1.389 . S
C515 C497 1.392 . S
C516 C487 1.392 . S
C516 C489 1.389 . S
C517 C492 1.395 . S
C517 C494 1.391 . S
H518 C478 0.951 . S
H519 C479 0.950 . S
H520 C485 0.949 . S
H521 C486 0.950 . S
H522 C490 0.951 . S
H523 C491 0.950 . S
H524 C495 0.949 . S
H525 C496 0.950 . S
H526 C500 0.950 . S
H527 C502 0.950 . S
H528 C505 0.950 . S
H529 C507 0.950 . S
C530 C531 1.443 . S
C530 N534 1.376 . S
C530 C568 1.389 . S
C531 C530 1.443 . S
C531 C532 1.340 . S
C531 H571 0.951 . S
C532 C531 1.340 . S
C532 C533 1.439 . S
C532 H572 0.950 . S
C533 C532 1.439 . S
C533 N534 1.374 . S
C533 C567 1.395 . S
N534 C530 1.376 . S
N534 C533 1.374 . S
N534 Co535 2.008 . S
Co535 N534 2.008 . S
Co535 N536 1.995 . S
Co535 N541 2.008 . S
Co535 N546 1.995 . S
Co535 N551 2.282 . S
Co535 N557 2.282 . S
N536 Co535 1.995 . S
N536 C537 1.376 . S
N536 C540 1.383 . S
C537 N536 1.376 . S
C537 C538 1.446 . S
C537 C567 1.391 . S
C538 C537 1.446 . S
C538 C539 1.339 . S
C538 H573 0.949 . S
C539 C538 1.339 . S
C539 C540 1.439 . S
C539 H574 0.950 . S
C540 N536 1.383 . S
C540 C539 1.439 . S
C540 C569 1.392 . S
N541 Co535 2.008 . S
N541 C542 1.376 . S
N541 C545 1.374 . S
C542 N541 1.376 . S
C542 C543 1.443 . S
C542 C569 1.389 . S
C543 C542 1.443 . S
C543 C544 1.340 . S
C543 H575 0.951 . S
C544 C543 1.340 . S
C544 C545 1.439 . S
C544 H576 0.950 . S
C545 N541 1.374 . S
C545 C544 1.439 . S
C545 C570 1.395 . S
N546 Co535 1.995 . S
N546 C547 1.376 . S
N546 C550 1.383 . S
C547 N546 1.376 . S
C547 C548 1.446 . S
C547 C570 1.391 . S
C548 C547 1.446 . S
C548 C549 1.339 . S
C548 H577 0.949 . S
C549 C548 1.339 . S
C549 C550 1.439 . S
C549 H578 0.950 . S
C550 N546 1.383 . S
C550 C549 1.439 . S
C550 C568 1.392 . S
N551 Co535 2.282 . S
N551 C554 1.332 . S
N551 C556 1.332 . S
C552 C553 1.386 . S
C552 C555 1.388 . S
C553 C552 1.386 . S
C553 C554 1.382 . S
C553 H579 0.950 . S
C554 N551 1.332 . S
C554 C553 1.382 . S
C554 H565 0.952 . S
C555 C552 1.388 . S
C555 C556 1.382 . S
C555 H580 0.950 . S
C556 N551 1.332 . S
C556 C555 1.382 . S
C556 H566 0.948 . S
N557 Co535 2.282 . S
N557 C561 1.332 . S
N557 C562 1.332 . S
C558 C559 1.388 . S
C558 C562 1.382 . S
C558 H581 0.950 . S
C559 C558 1.388 . S
C559 C560 1.386 . S
C560 C559 1.386 . S
C560 C561 1.382 . S
C560 H582 0.950 . S
C561 N557 1.332 . S
C561 C560 1.382 . S
C561 H563 0.952 . S
C562 N557 1.332 . S
C562 C558 1.382 . S
C562 H564 0.948 . S
H563 C561 0.952 . S
H564 C562 0.948 . S
H565 C554 0.952 . S
H566 C556 0.948 . S
C567 C533 1.395 . S
C567 C537 1.391 . S
C568 C530 1.389 . S
C568 C550 1.392 . S
C569 C540 1.392 . S
C569 C542 1.389 . S
C570 C545 1.395 . S
C570 C547 1.391 . S
H571 C531 0.951 . S
H572 C532 0.950 . S
H573 C538 0.949 . S
H574 C539 0.950 . S
H575 C543 0.951 . S
H576 C544 0.950 . S
H577 C548 0.949 . S
H578 C549 0.950 . S
H579 C553 0.950 . S
H580 C555 0.950 . S
H581 C558 0.950 . S
H582 C560 0.950 . S
C583 C584 1.443 . S
C583 N587 1.376 . S
C583 C621 1.389 . S
C584 C583 1.443 . S
C584 C585 1.340 . S
C584 H624 0.951 . S
C585 C584 1.340 . S
C585 C586 1.439 . S
C585 H625 0.950 . S
C586 C585 1.439 . S
C586 N587 1.374 . S
C586 C620 1.395 . S
N587 C583 1.376 . S
N587 C586 1.374 . S
N587 Co588 2.008 . S
Co588 N587 2.008 . S
Co588 N589 1.995 . S
Co588 N594 2.008 . S
Co588 N599 1.995 . S
Co588 N604 2.282 . S
Co588 N610 2.282 . S
N589 Co588 1.995 . S
N589 C590 1.376 . S
N589 C593 1.383 . S
C590 N589 1.376 . S
C590 C591 1.446 . S
C590 C620 1.391 . S
C591 C590 1.446 . S
C591 C592 1.339 . S
C591 H626 0.949 . S
C592 C591 1.339 . S
C592 C593 1.439 . S
C592 H627 0.950 . S
C593 N589 1.383 . S
C593 C592 1.439 . S
C593 C622 1.392 . S
N594 Co588 2.008 . S
N594 C595 1.376 . S
N594 C598 1.374 . S
C595 N594 1.376 . S
C595 C596 1.443 . S
C595 C622 1.389 . S
C596 C595 1.443 . S
C596 C597 1.340 . S
C596 H628 0.951 . S
C597 C596 1.340 . S
C597 C598 1.439 . S
C597 H629 0.950 . S
C598 N594 1.374 . S
C598 C597 1.439 . S
C598 C623 1.395 . S
N599 Co588 1.995 . S
N599 C600 1.376 . S
N599 C603 1.383 . S
C600 N599 1.376 . S
C600 C601 1.446 . S
C600 C623 1.391 . S
C601 C600 1.446 . S
C601 C602 1.339 . S
C601 H630 0.949 . S
C602 C601 1.339 . S
C602 C603 1.439 . S
C602 H631 0.950 . S
C603 N599 1.383 . S
C603 C602 1.439 . S
C603 C621 1.392 . S
N604 Co588 2.282 . S
N604 C607 1.332 . S
N604 C609 1.332 . S
C605 C606 1.386 . S
C605 C608 1.388 . S
C606 C605 1.386 . S
C606 C607 1.382 . S
C606 H632 0.950 . S
C607 N604 1.332 . S
C607 C606 1.382 . S
C607 H618 0.952 . S
C608 C605 1.388 . S
C608 C609 1.382 . S
C608 H633 0.950 . S
C609 N604 1.332 . S
C609 C608 1.382 . S
C609 H619 0.948 . S
N610 Co588 2.282 . S
N610 C614 1.332 . S
N610 C615 1.332 . S
C611 C612 1.388 . S
C611 C615 1.382 . S
C611 H634 0.950 . S
C612 C611 1.388 . S
C612 C613 1.386 . S
C613 C612 1.386 . S
C613 C614 1.382 . S
C613 H635 0.950 . S
C614 N610 1.332 . S
C614 C613 1.382 . S
C614 H616 0.952 . S
C615 N610 1.332 . S
C615 C611 1.382 . S
C615 H617 0.948 . S
H616 C614 0.952 . S
H617 C615 0.948 . S
H618 C607 0.952 . S
H619 C609 0.948 . S
C620 C586 1.395 . S
C620 C590 1.391 . S
C621 C583 1.389 . S
C621 C603 1.392 . S
C622 C593 1.392 . S
C622 C595 1.389 . S
C623 C598 1.395 . S
C623 C600 1.391 . S
H624 C584 0.951 . S
H625 C585 0.950 . S
H626 C591 0.949 . S
H627 C592 0.950 . S
H628 C596 0.951 . S
H629 C597 0.950 . S
H630 C601 0.949 . S
H631 C602 0.950 . S
H632 C606 0.950 . S
H633 C608 0.950 . S
H634 C611 0.950 . S
H635 C613 0.950 . S
C636 C637 1.443 . S
C636 N640 1.376 . S
C636 C674 1.389 . S
C637 C636 1.443 . S
C637 C638 1.340 . S
C637 H677 0.951 . S
C638 C637 1.340 . S
C638 C639 1.439 . S
C638 H678 0.950 . S
C639 C638 1.439 . S
C639 N640 1.374 . S
C639 C673 1.395 . S
N640 C636 1.376 . S
N640 C639 1.374 . S
N640 Co641 2.008 . S
Co641 N640 2.008 . S
Co641 N642 1.995 . S
Co641 N647 2.008 . S
Co641 N652 1.995 . S
Co641 N657 2.282 . S
Co641 N663 2.282 . S
N642 Co641 1.995 . S
N642 C643 1.376 . S
N642 C646 1.383 . S
C643 N642 1.376 . S
C643 C644 1.446 . S
C643 C673 1.391 . S
C644 C643 1.446 . S
C644 C645 1.339 . S
C644 H679 0.949 . S
C645 C644 1.339 . S
C645 C646 1.439 . S
C645 H680 0.950 . S
C646 N642 1.383 . S
C646 C645 1.439 . S
C646 C675 1.392 . S
N647 Co641 2.008 . S
N647 C648 1.376 . S
N647 C651 1.374 . S
C648 N647 1.376 . S
C648 C649 1.443 . S
C648 C675 1.389 . S
C649 C648 1.443 . S
C649 C650 1.340 . S
C649 H681 0.951 . S
C650 C649 1.340 . S
C650 C651 1.439 . S
C650 H682 0.950 . S
C651 N647 1.374 . S
C651 C650 1.439 . S
C651 C676 1.395 . S
N652 Co641 1.995 . S
N652 C653 1.376 . S
N652 C656 1.383 . S
C653 N652 1.376 . S
C653 C654 1.446 . S
C653 C676 1.391 . S
C654 C653 1.446 . S
C654 C655 1.339 . S
C654 H683 0.949 . S
C655 C654 1.339 . S
C655 C656 1.439 . S
C655 H684 0.950 . S
C656 N652 1.383 . S
C656 C655 1.439 . S
C656 C674 1.392 . S
N657 Co641 2.282 . S
N657 C660 1.332 . S
N657 C662 1.332 . S
C658 C659 1.386 . S
C658 C661 1.388 . S
C659 C658 1.386 . S
C659 C660 1.382 . S
C659 H685 0.950 . S
C660 N657 1.332 . S
C660 C659 1.382 . S
C660 H671 0.952 . S
C661 C658 1.388 . S
C661 C662 1.382 . S
C661 H686 0.950 . S
C662 N657 1.332 . S
C662 C661 1.382 . S
C662 H672 0.948 . S
N663 Co641 2.282 . S
N663 C667 1.332 . S
N663 C668 1.332 . S
C664 C665 1.388 . S
C664 C668 1.382 . S
C664 H687 0.950 . S
C665 C664 1.388 . S
C665 C666 1.386 . S
C666 C665 1.386 . S
C666 C667 1.382 . S
C666 H688 0.950 . S
C667 N663 1.332 . S
C667 C666 1.382 . S
C667 H669 0.952 . S
C668 N663 1.332 . S
C668 C664 1.382 . S
C668 H670 0.948 . S
H669 C667 0.952 . S
H670 C668 0.948 . S
H671 C660 0.952 . S
H672 C662 0.948 . S
C673 C639 1.395 . S
C673 C643 1.391 . S
C674 C636 1.389 . S
C674 C656 1.392 . S
C675 C646 1.392 . S
C675 C648 1.389 . S
C676 C651 1.395 . S
C676 C653 1.391 . S
H677 C637 0.951 . S
H678 C638 0.950 . S
H679 C644 0.949 . S
H680 C645 0.950 . S
H681 C649 0.951 . S
H682 C650 0.950 . S
H683 C654 0.949 . S
H684 C655 0.950 . S
H685 C659 0.950 . S
H686 C661 0.950 . S
H687 C664 0.950 . S
H688 C666 0.950 . S
C689 C690 1.443 . S
C689 N693 1.376 . S
C689 C727 1.389 . S
C690 C689 1.443 . S
C690 C691 1.340 . S
C690 H730 0.951 . S
C691 C690 1.340 . S
C691 C692 1.439 . S
C691 H731 0.950 . S
C692 C691 1.439 . S
C692 N693 1.374 . S
C692 C726 1.395 . S
N693 C689 1.376 . S
N693 C692 1.374 . S
N693 Co694 2.008 . S
Co694 N693 2.008 . S
Co694 N695 1.995 . S
Co694 N700 2.008 . S
Co694 N705 1.995 . S
Co694 N710 2.282 . S
Co694 N716 2.282 . S
N695 Co694 1.995 . S
N695 C696 1.376 . S
N695 C699 1.383 . S
C696 N695 1.376 . S
C696 C697 1.446 . S
C696 C726 1.391 . S
C697 C696 1.446 . S
C697 C698 1.339 . S
C697 H732 0.949 . S
C698 C697 1.339 . S
C698 C699 1.439 . S
C698 H733 0.950 . S
C699 N695 1.383 . S
C699 C698 1.439 . S
C699 C728 1.392 . S
N700 Co694 2.008 . S
N700 C701 1.376 . S
N700 C704 1.374 . S
C701 N700 1.376 . S
C701 C702 1.443 . S
C701 C728 1.389 . S
C702 C701 1.443 . S
C702 C703 1.340 . S
C702 H734 0.951 . S
C703 C702 1.340 . S
C703 C704 1.439 . S
C703 H735 0.950 . S
C704 N700 1.374 . S
C704 C703 1.439 . S
C704 C729 1.395 . S
N705 Co694 1.995 . S
N705 C706 1.376 . S
N705 C709 1.383 . S
C706 N705 1.376 . S
C706 C707 1.446 . S
C706 C729 1.391 . S
C707 C706 1.446 . S
C707 C708 1.339 . S
C707 H736 0.949 . S
C708 C707 1.339 . S
C708 C709 1.439 . S
C708 H737 0.950 . S
C709 N705 1.383 . S
C709 C708 1.439 . S
C709 C727 1.392 . S
N710 Co694 2.282 . S
N710 C713 1.332 . S
N710 C715 1.332 . S
C711 C712 1.386 . S
C711 C714 1.388 . S
C712 C711 1.386 . S
C712 C713 1.382 . S
C712 H738 0.950 . S
C713 N710 1.332 . S
C713 C712 1.382 . S
C713 H724 0.952 . S
C714 C711 1.388 . S
C714 C715 1.382 . S
C714 H739 0.950 . S
C715 N710 1.332 . S
C715 C714 1.382 . S
C715 H725 0.948 . S
N716 Co694 2.282 . S
N716 C720 1.332 . S
N716 C721 1.332 . S
C717 C718 1.388 . S
C717 C721 1.382 . S
C717 H740 0.950 . S
C718 C717 1.388 . S
C718 C719 1.386 . S
C719 C718 1.386 . S
C719 C720 1.382 . S
C719 H741 0.950 . S
C720 N716 1.332 . S
C720 C719 1.382 . S
C720 H722 0.952 . S
C721 N716 1.332 . S
C721 C717 1.382 . S
C721 H723 0.948 . S
H722 C720 0.952 . S
H723 C721 0.948 . S
H724 C713 0.952 . S
H725 C715 0.948 . S
C726 C692 1.395 . S
C726 C696 1.391 . S
C727 C689 1.389 . S
C727 C709 1.392 . S
C728 C699 1.392 . S
C728 C701 1.389 . S
C729 C704 1.395 . S
C729 C706 1.391 . S
H730 C690 0.951 . S
H731 C691 0.950 . S
H732 C697 0.949 . S
H733 C698 0.950 . S
H734 C702 0.951 . S
H735 C703 0.950 . S
H736 C707 0.949 . S
H737 C708 0.950 . S
H738 C712 0.950 . S
H739 C714 0.950 . S
H740 C717 0.950 . S
H741 C719 0.950 . S
C742 C743 1.443 . S
C742 N746 1.376 . S
C742 C780 1.389 . S
C743 C742 1.443 . S
C743 C744 1.340 . S
C743 H783 0.951 . S
C744 C743 1.340 . S
C744 C745 1.439 . S
C744 H784 0.950 . S
C745 C744 1.439 . S
C745 N746 1.374 . S
C745 C779 1.395 . S
N746 C742 1.376 . S
N746 C745 1.374 . S
N746 Co747 2.008 . S
Co747 N746 2.008 . S
Co747 N748 1.995 . S
Co747 N753 2.008 . S
Co747 N758 1.995 . S
Co747 N763 2.282 . S
Co747 N769 2.282 . S
N748 Co747 1.995 . S
N748 C749 1.376 . S
N748 C752 1.383 . S
C749 N748 1.376 . S
C749 C750 1.446 . S
C749 C779 1.391 . S
C750 C749 1.446 . S
C750 C751 1.339 . S
C750 H785 0.949 . S
C751 C750 1.339 . S
C751 C752 1.439 . S
C751 H786 0.950 . S
C752 N748 1.383 . S
C752 C751 1.439 . S
C752 C781 1.392 . S
N753 Co747 2.008 . S
N753 C754 1.376 . S
N753 C757 1.374 . S
C754 N753 1.376 . S
C754 C755 1.443 . S
C754 C781 1.389 . S
C755 C754 1.443 . S
C755 C756 1.340 . S
C755 H787 0.951 . S
C756 C755 1.340 . S
C756 C757 1.439 . S
C756 H788 0.950 . S
C757 N753 1.374 . S
C757 C756 1.439 . S
C757 C782 1.395 . S
N758 Co747 1.995 . S
N758 C759 1.376 . S
N758 C762 1.383 . S
C759 N758 1.376 . S
C759 C760 1.446 . S
C759 C782 1.391 . S
C760 C759 1.446 . S
C760 C761 1.339 . S
C760 H789 0.949 . S
C761 C760 1.339 . S
C761 C762 1.439 . S
C761 H790 0.950 . S
C762 N758 1.383 . S
C762 C761 1.439 . S
C762 C780 1.392 . S
N763 Co747 2.282 . S
N763 C766 1.332 . S
N763 C768 1.332 . S
C764 C765 1.386 . S
C764 C767 1.388 . S
C765 C764 1.386 . S
C765 C766 1.382 . S
C765 H791 0.950 . S
C766 N763 1.332 . S
C766 C765 1.382 . S
C766 H777 0.952 . S
C767 C764 1.388 . S
C767 C768 1.382 . S
C767 H792 0.950 . S
C768 N763 1.332 . S
C768 C767 1.382 . S
C768 H778 0.948 . S
N769 Co747 2.282 . S
N769 C773 1.332 . S
N769 C774 1.332 . S
C770 C771 1.388 . S
C770 C774 1.382 . S
C770 H793 0.950 . S
C771 C770 1.388 . S
C771 C772 1.386 . S
C772 C771 1.386 . S
C772 C773 1.382 . S
C772 H794 0.950 . S
C773 N769 1.332 . S
C773 C772 1.382 . S
C773 H775 0.952 . S
C774 N769 1.332 . S
C774 C770 1.382 . S
C774 H776 0.948 . S
H775 C773 0.952 . S
H776 C774 0.948 . S
H777 C766 0.952 . S
H778 C768 0.948 . S
C779 C745 1.395 . S
C779 C749 1.391 . S
C780 C742 1.389 . S
C780 C762 1.392 . S
C781 C752 1.392 . S
C781 C754 1.389 . S
C782 C757 1.395 . S
C782 C759 1.391 . S
H783 C743 0.951 . S
H784 C744 0.950 . S
H785 C750 0.949 . S
H786 C751 0.950 . S
H787 C755 0.951 . S
H788 C756 0.950 . S
H789 C760 0.949 . S
H790 C761 0.950 . S
H791 C765 0.950 . S
H792 C767 0.950 . S
H793 C770 0.950 . S
H794 C772 0.950 . S
C795 C796 1.443 . S
C795 N799 1.376 . S
C795 C833 1.389 . S
C796 C795 1.443 . S
C796 C797 1.340 . S
C796 H836 0.951 . S
C797 C796 1.340 . S
C797 C798 1.439 . S
C797 H837 0.950 . S
C798 C797 1.439 . S
C798 N799 1.374 . S
C798 C832 1.395 . S
N799 C795 1.376 . S
N799 C798 1.374 . S
N799 Co800 2.008 . S
Co800 N799 2.008 . S
Co800 N801 1.995 . S
Co800 N806 2.008 . S
Co800 N811 1.995 . S
Co800 N816 2.282 . S
Co800 N822 2.282 . S
N801 Co800 1.995 . S
N801 C802 1.376 . S
N801 C805 1.383 . S
C802 N801 1.376 . S
C802 C803 1.446 . S
C802 C832 1.391 . S
C803 C802 1.446 . S
C803 C804 1.339 . S
C803 H838 0.949 . S
C804 C803 1.339 . S
C804 C805 1.439 . S
C804 H839 0.950 . S
C805 N801 1.383 . S
C805 C804 1.439 . S
C805 C834 1.392 . S
N806 Co800 2.008 . S
N806 C807 1.376 . S
N806 C810 1.374 . S
C807 N806 1.376 . S
C807 C808 1.443 . S
C807 C834 1.389 . S
C808 C807 1.443 . S
C808 C809 1.340 . S
C808 H840 0.951 . S
C809 C808 1.340 . S
C809 C810 1.439 . S
C809 H841 0.950 . S
C810 N806 1.374 . S
C810 C809 1.439 . S
C810 C835 1.395 . S
N811 Co800 1.995 . S
N811 C812 1.376 . S
N811 C815 1.383 . S
C812 N811 1.376 . S
C812 C813 1.446 . S
C812 C835 1.391 . S
C813 C812 1.446 . S
C813 C814 1.339 . S
C813 H842 0.949 . S
C814 C813 1.339 . S
C814 C815 1.439 . S
C814 H843 0.950 . S
C815 N811 1.383 . S
C815 C814 1.439 . S
C815 C833 1.392 . S
N816 Co800 2.282 . S
N816 C819 1.332 . S
N816 C821 1.332 . S
C817 C818 1.386 . S
C817 C820 1.388 . S
C818 C817 1.386 . S
C818 C819 1.382 . S
C818 H844 0.950 . S
C819 N816 1.332 . S
C819 C818 1.382 . S
C819 H830 0.952 . S
C820 C817 1.388 . S
C820 C821 1.382 . S
C820 H845 0.950 . S
C821 N816 1.332 . S
C821 C820 1.382 . S
C821 H831 0.948 . S
N822 Co800 2.282 . S
N822 C826 1.332 . S
N822 C827 1.332 . S
C823 C824 1.388 . S
C823 C827 1.382 . S
C823 H846 0.950 . S
C824 C823 1.388 . S
C824 C825 1.386 . S
C825 C824 1.386 . S
C825 C826 1.382 . S
C825 H847 0.950 . S
C826 N822 1.332 . S
C826 C825 1.382 . S
C826 H828 0.952 . S
C827 N822 1.332 . S
C827 C823 1.382 . S
C827 H829 0.948 . S
H828 C826 0.952 . S
H829 C827 0.948 . S
H830 C819 0.952 . S
H831 C821 0.948 . S
C832 C798 1.395 . S
C832 C802 1.391 . S
C833 C795 1.389 . S
C833 C815 1.392 . S
C834 C805 1.392 . S
C834 C807 1.389 . S
C835 C810 1.395 . S
C835 C812 1.391 . S
H836 C796 0.951 . S
H837 C797 0.950 . S
H838 C803 0.949 . S
H839 C804 0.950 . S
H840 C808 0.951 . S
H841 C809 0.950 . S
H842 C813 0.949 . S
H843 C814 0.950 . S
H844 C818 0.950 . S
H845 C820 0.950 . S
H846 C823 0.950 . S
H847 C825 0.950 . S
H848 C854 0.930 . S
H849 C858 0.930 . S
H850 C863 0.929 . S
H851 C861 0.929 . S
H852 C856 0.929 . S
H853 C862 0.929 . S
C854 H848 0.930 . S
C854 C855 1.367 . S
C854 C862 1.378 . S
C855 C854 1.367 . S
C855 C863 1.433 . S
C856 H852 0.929 . S
C856 C858 1.378 . S
C856 C860 1.350 . S
C857 C860 1.463 . S
C857 C862 1.350 . S
C857 N865 1.427 . S
C858 H849 0.930 . S
C858 C856 1.378 . S
C858 C859 1.367 . S
C859 C858 1.367 . S
C859 C861 1.433 . S
C860 C856 1.350 . S
C860 C857 1.463 . S
C860 N864 1.427 . S
C861 H851 0.929 . S
C861 C859 1.433 . S
C861 N864 1.384 . S
C862 H853 0.929 . S
C862 C854 1.378 . S
C862 C857 1.350 . S
C863 H850 0.929 . S
C863 C855 1.433 . S
C863 N865 1.384 . S
N864 C860 1.427 . S
N864 C861 1.384 . S
N865 C857 1.427 . S
N865 C863 1.384 . S
H866 C872 0.930 . S
H867 C876 0.930 . S
H868 C881 0.929 . S
H869 C879 0.929 . S
H870 C874 0.929 . S
H871 C880 0.929 . S
C872 H866 0.930 . S
C872 C873 1.367 . S
C872 C880 1.378 . S
C873 C872 1.367 . S
C873 C881 1.433 . S
C874 H870 0.929 . S
C874 C876 1.378 . S
C874 C878 1.350 . S
C875 C878 1.463 . S
C875 C880 1.350 . S
C875 N883 1.427 . S
C876 H867 0.930 . S
C876 C874 1.378 . S
C876 C877 1.367 . S
C877 C876 1.367 . S
C877 C879 1.433 . S
C878 C874 1.350 . S
C878 C875 1.463 . S
C878 N882 1.427 . S
C879 H869 0.929 . S
C879 C877 1.433 . S
C879 N882 1.384 . S
C880 H871 0.929 . S
C880 C872 1.378 . S
C880 C875 1.350 . S
C881 H868 0.929 . S
C881 C873 1.433 . S
C881 N883 1.384 . S
N882 C878 1.427 . S
N882 C879 1.384 . S
N883 C875 1.427 . S
N883 C881 1.384 . S
H884 C890 0.930 . S
H885 C894 0.930 . S
H886 C899 0.929 . S
H887 C897 0.929 . S
H888 C892 0.929 . S
H889 C898 0.929 . S
C890 H884 0.930 . S
C890 C891 1.367 . S
C890 C898 1.378 . S
C891 C890 1.367 . S
C891 C899 1.433 . S
C892 H888 0.929 . S
C892 C894 1.378 . S
C892 C896 1.350 . S
C893 C896 1.463 . S
C893 C898 1.350 . S
C893 N901 1.427 . S
C894 H885 0.930 . S
C894 C892 1.378 . S
C894 C895 1.367 . S
C895 C894 1.367 . S
C895 C897 1.433 . S
C896 C892 1.350 . S
C896 C893 1.463 . S
C896 N900 1.427 . S
C897 H887 0.929 . S
C897 C895 1.433 . S
C897 N900 1.384 . S
C898 H889 0.929 . S
C898 C890 1.378 . S
C898 C893 1.350 . S
C899 H886 0.929 . S
C899 C891 1.433 . S
C899 N901 1.384 . S
N900 C896 1.427 . S
N900 C897 1.384 . S
N901 C893 1.427 . S
N901 C899 1.384 . S
H902 C908 0.930 . S
H903 C912 0.930 . S
H904 C917 0.929 . S
H905 C915 0.929 . S
H906 C910 0.929 . S
H907 C916 0.929 . S
C908 H902 0.930 . S
C908 C909 1.367 . S
C908 C916 1.378 . S
C909 C908 1.367 . S
C909 C917 1.433 . S
C910 H906 0.929 . S
C910 C912 1.378 . S
C910 C914 1.350 . S
C911 C914 1.463 . S
C911 C916 1.350 . S
C911 N919 1.427 . S
C912 H903 0.930 . S
C912 C910 1.378 . S
C912 C913 1.367 . S
C913 C912 1.367 . S
C913 C915 1.433 . S
C914 C910 1.350 . S
C914 C911 1.463 . S
C914 N918 1.427 . S
C915 H905 0.929 . S
C915 C913 1.433 . S
C915 N918 1.384 . S
C916 H907 0.929 . S
C916 C908 1.378 . S
C916 C911 1.350 . S
C917 H904 0.929 . S
C917 C909 1.433 . S
C917 N919 1.384 . S
N918 C914 1.427 . S
N918 C915 1.384 . S
N919 C911 1.427 . S
N919 C917 1.384 . S
H920 C926 0.930 . S
H921 C930 0.930 . S
H922 C935 0.929 . S
H923 C933 0.929 . S
H924 C928 0.929 . S
H925 C934 0.929 . S
C926 H920 0.930 . S
C926 C927 1.367 . S
C926 C934 1.378 . S
C927 C926 1.367 . S
C927 C935 1.433 1_545 S
C928 H924 0.929 . S
C928 C930 1.378 . S
C928 C932 1.350 . S
C929 C932 1.463 1_554 S
C929 C934 1.350 . S
C929 N937 1.427 . S
C930 H921 0.930 . S
C930 C928 1.378 . S
C930 C931 1.367 . S
C931 C930 1.367 . S
C931 C933 1.433 . S
C932 C928 1.350 . S
C932 C929 1.463 1_556 S
C932 N936 1.427 . S
C933 H923 0.929 . S
C933 C931 1.433 . S
C933 N936 1.384 . S
C934 H925 0.929 . S
C934 C926 1.378 . S
C934 C929 1.350 . S
C935 H922 0.929 . S
C935 C927 1.433 1_565 S
C935 N937 1.384 1_565 S
N936 C932 1.427 . S
N936 C933 1.384 . S
N937 C929 1.427 . S
N937 C935 1.384 1_545 S
H938 C944 0.930 . S
H939 C948 0.930 . S
H940 C953 0.929 . S
H941 C951 0.929 . S
H942 C946 0.929 1_554 S
H943 C952 0.929 . S
C944 H938 0.930 . S
C944 C945 1.367 . S
C944 C952 1.378 . S
C945 C944 1.367 . S
C945 C953 1.433 . S
C946 H942 0.929 1_556 S
C946 C948 1.378 . S
C946 C950 1.350 . S
C947 C950 1.463 1_554 S
C947 C952 1.350 . S
C947 N955 1.427 . S
C948 H939 0.930 . S
C948 C946 1.378 . S
C948 C949 1.367 . S
C949 C948 1.367 . S
C949 C951 1.433 . S
C950 C946 1.350 . S
C950 C947 1.463 1_556 S
C950 N954 1.427 . S
C951 H941 0.929 . S
C951 C949 1.433 . S
C951 N954 1.384 . S
C952 H943 0.929 . S
C952 C944 1.378 . S
C952 C947 1.350 . S
C953 H940 0.929 . S
C953 C945 1.433 . S
C953 N955 1.384 . S
N954 C950 1.427 . S
N954 C951 1.384 . S
N955 C947 1.427 . S
N955 C953 1.384 . S
H956 C962 0.930 . S
H957 C966 0.930 . S
H958 C971 0.929 . S
H959 C969 0.929 1_545 S
H960 C964 0.929 . S
H961 C970 0.929 . S
C962 H956 0.930 . S
C962 C963 1.367 . S
C962 C970 1.378 . S
C963 C962 1.367 . S
C963 C971 1.433 . S
C964 H960 0.929 . S
C964 C966 1.378 . S
C964 C968 1.350 . S
C965 C968 1.463 1_556 S
C965 C970 1.350 . S
C965 N973 1.427 . S
C966 H957 0.930 . S
C966 C964 1.378 . S
C966 C967 1.367 . S
C967 C966 1.367 . S
C967 C969 1.433 . S
C968 C964 1.350 . S
C968 C965 1.463 1_554 S
C968 N972 1.417 1_554 S
C969 H959 0.929 1_565 S
C969 C967 1.433 . S
C969 N972 1.355 1_554 S
C970 H961 0.929 . S
C970 C962 1.378 . S
C970 C965 1.350 . S
C971 H958 0.929 . S
C971 C963 1.433 . S
C971 N973 1.384 . S
N972 C968 1.417 1_556 S
N972 C969 1.355 1_556 S
N973 C965 1.427 . S
N973 C971 1.384 . S
H974 C980 0.930 . S
H975 C984 0.930 1_455 S
H976 C989 0.929 . S
H977 C987 0.929 . S
H978 C982 0.929 . S
H979 C988 0.929 . S
C980 H974 0.930 . S
C980 C981 1.367 . S
C980 C988 1.378 . S
C981 C980 1.367 . S
C981 C989 1.433 . S
C982 H978 0.929 . S
C982 C984 1.378 . S
C982 C986 1.350 . S
C983 C986 1.463 1_554 S
C983 C988 1.350 . S
C983 N991 1.427 . S
C984 H975 0.930 1_655 S
C984 C982 1.378 . S
C984 C985 1.367 . S
C985 C984 1.367 . S
C985 C987 1.433 . S
C986 C982 1.350 . S
C986 C983 1.463 1_556 S
C986 N990 1.427 . S
C987 H977 0.929 . S
C987 C985 1.433 . S
C987 N990 1.384 . S
C988 H979 0.929 . S
C988 C980 1.378 . S
C988 C983 1.350 . S
C989 H976 0.929 . S
C989 C981 1.433 . S
C989 N991 1.384 . S
N990 C986 1.427 . S
N990 C987 1.384 . S
N991 C983 1.427 . S
N991 C989 1.384 . S
H992 C998 0.930 . S
H993 C1002 0.930 . S
H994 C1007 0.929 . S
H995 C1005 0.929 . S
H996 C1000 0.929 . S
H997 C1006 0.929 . S
C998 H992 0.930 . S
C998 C999 1.367 . S
C998 C1006 1.378 . S
C999 C998 1.367 . S
C999 C1007 1.433 . S
C1000 H996 0.929 . S
C1000 C1002 1.378 . S
C1000 C1004 1.350 . S
C1001 C1004 1.463 . S
C1001 C1006 1.350 . S
C1001 N1009 1.427 . S
C1002 H993 0.930 . S
C1002 C1000 1.378 . S
C1002 C1003 1.367 . S
C1003 C1002 1.367 . S
C1003 C1005 1.433 . S
C1004 C1000 1.350 . S
C1004 C1001 1.463 . S
C1004 N1008 1.427 . S
C1005 H995 0.929 . S
C1005 C1003 1.433 . S
C1005 N1008 1.384 . S
C1006 H997 0.929 . S
C1006 C998 1.378 . S
C1006 C1001 1.350 . S
C1007 H994 0.929 . S
C1007 C999 1.433 . S
C1007 N1009 1.384 . S
N1008 C1004 1.427 . S
N1008 C1005 1.384 . S
N1009 C1001 1.427 . S
N1009 C1007 1.384 . S
H1010 C1016 0.930 . S
H1011 C1020 0.930 . S
H1012 C1025 0.929 . S
H1013 C1023 0.929 . S
H1014 C1018 0.929 . S
H1015 C1024 0.929 . S
C1016 H1010 0.930 . S
C1016 C1017 1.367 1_455 S
C1016 C1024 1.378 1_455 S
C1017 C1016 1.367 1_655 S
C1017 C1025 1.433 . S
C1018 H1014 0.929 . S
C1018 C1020 1.378 . S
C1018 C1022 1.350 . S
C1019 C1022 1.463 . S
C1019 C1024 1.350 . S
C1019 N1027 1.427 . S
C1020 H1011 0.930 . S
C1020 C1018 1.378 . S
C1020 C1021 1.367 . S
C1021 C1020 1.367 . S
C1021 C1023 1.433 . S
C1022 C1018 1.350 . S
C1022 C1019 1.463 . S
C1022 N1026 1.427 . S
C1023 H1013 0.929 . S
C1023 C1021 1.433 . S
C1023 N1026 1.384 . S
C1024 H1015 0.929 . S
C1024 C1016 1.378 1_655 S
C1024 C1019 1.350 . S
C1025 H1012 0.929 . S
C1025 C1017 1.433 . S
C1025 N1027 1.384 . S
N1026 C1022 1.427 . S
N1026 C1023 1.384 . S
N1027 C1019 1.427 . S
N1027 C1025 1.384 . S
H1028 C1034 0.930 1_565 S
H1029 C1038 0.930 . S
H1030 C1043 0.929 . S
H1031 C1041 0.929 . S
H1032 C1036 0.929 . S
H1033 C1042 0.929 . S
C1034 H1028 0.930 1_545 S
C1034 C1035 1.367 . S
C1034 C1042 1.378 . S
C1035 C1034 1.367 . S
C1035 C1043 1.433 . S
C1036 H1032 0.929 . S
C1036 C1038 1.378 . S
C1036 C1040 1.350 . S
C1037 C1040 1.463 . S
C1037 C1042 1.350 . S
C1037 N1045 1.427 . S
C1038 H1029 0.930 . S
C1038 C1036 1.378 . S
C1038 C1039 1.367 . S
C1039 C1038 1.367 . S
C1039 C1041 1.433 . S
C1040 C1036 1.350 . S
C1040 C1037 1.463 . S
C1040 N1044 1.427 . S
C1041 H1031 0.929 . S
C1041 C1039 1.433 . S
C1041 N1044 1.384 . S
C1042 H1033 0.929 . S
C1042 C1034 1.378 . S
C1042 C1037 1.350 . S
C1043 H1030 0.929 . S
C1043 C1035 1.433 . S
C1043 N1045 1.384 . S
N1044 C1040 1.427 . S
N1044 C1041 1.384 . S
N1045 C1037 1.427 . S
N1045 C1043 1.384 . S
H1046 C1052 0.930 . S
H1047 C1056 0.930 . S
H1048 C1061 0.929 . S
H1049 C1059 0.929 . S
H1050 C1054 0.929 . S
H1051 C1060 0.929 . S
C1052 H1046 0.930 . S
C1052 C1053 1.367 . S
C1052 C1060 1.378 . S
C1053 C1052 1.367 . S
C1053 C1061 1.433 . S
C1054 H1050 0.929 . S
C1054 C1056 1.378 . S
C1054 C1058 1.350 . S
C1055 C1058 1.463 . S
C1055 C1060 1.350 . S
C1055 N1063 1.427 . S
C1056 H1047 0.930 . S
C1056 C1054 1.378 . S
C1056 C1057 1.367 . S
C1057 C1056 1.367 . S
C1057 C1059 1.433 . S
C1058 C1054 1.350 . S
C1058 C1055 1.463 . S
C1058 N1062 1.427 . S
C1059 H1049 0.929 . S
C1059 C1057 1.433 . S
C1059 N1062 1.384 . S
C1060 H1051 0.929 . S
C1060 C1052 1.378 . S
C1060 C1055 1.350 . S
C1061 H1048 0.929 . S
C1061 C1053 1.433 . S
C1061 N1063 1.384 . S
N1062 C1058 1.427 . S
N1062 C1059 1.384 . S
N1063 C1055 1.427 . S
N1063 C1061 1.384 . S
H1064 C1070 0.930 . S
H1065 C1074 0.930 . S
H1066 C1079 0.929 . S
H1067 C1077 0.929 . S
H1068 C1072 0.929 . S
H1069 C1078 0.929 . S
C1070 H1064 0.930 . S
C1070 C1071 1.367 . S
C1070 C1078 1.378 . S
C1071 C1070 1.367 . S
C1071 C1079 1.433 . S
C1072 H1068 0.929 . S
C1072 C1074 1.378 . S
C1072 C1076 1.350 . S
C1073 C1076 1.463 . S
C1073 C1078 1.350 . S
C1073 N1081 1.427 . S
C1074 H1065 0.930 . S
C1074 C1072 1.378 . S
C1074 C1075 1.367 . S
C1075 C1074 1.367 . S
C1075 C1077 1.433 . S
C1076 C1072 1.350 . S
C1076 C1073 1.463 . S
C1076 N1080 1.427 . S
C1077 H1067 0.929 . S
C1077 C1075 1.433 . S
C1077 N1080 1.384 . S
C1078 H1069 0.929 . S
C1078 C1070 1.378 . S
C1078 C1073 1.350 . S
C1079 H1066 0.929 . S
C1079 C1071 1.433 . S
C1079 N1081 1.384 . S
N1080 C1076 1.427 . S
N1080 C1077 1.384 . S
N1081 C1073 1.427 . S
N1081 C1079 1.384 . S
H1082 C1088 0.930 . S
H1083 C1092 0.930 . S
H1084 C1097 0.929 . S
H1085 C1095 0.929 . S
H1086 C1090 0.929 . S
H1087 C1096 0.929 . S
C1088 H1082 0.930 . S
C1088 C1089 1.367 . S
C1088 C1096 1.378 . S
C1089 C1088 1.367 . S
C1089 C1097 1.433 . S
C1090 H1086 0.929 . S
C1090 C1092 1.378 . S
C1090 C1094 1.350 . S
C1091 C1094 1.463 . S
C1091 C1096 1.350 . S
C1091 N1099 1.427 . S
C1092 H1083 0.930 . S
C1092 C1090 1.378 . S
C1092 C1093 1.367 . S
C1093 C1092 1.367 . S
C1093 C1095 1.433 . S
C1094 C1090 1.350 . S
C1094 C1091 1.463 . S
C1094 N1098 1.427 . S
C1095 H1085 0.929 . S
C1095 C1093 1.433 . S
C1095 N1098 1.384 . S
C1096 H1087 0.929 . S
C1096 C1088 1.378 . S
C1096 C1091 1.350 . S
C1097 H1084 0.929 . S
C1097 C1089 1.433 . S
C1097 N1099 1.384 . S
N1098 C1094 1.427 . S
N1098 C1095 1.384 . S
N1099 C1091 1.427 . S
N1099 C1097 1.384 . S
H1100 C1106 0.930 . S
H1101 C1110 0.930 . S
H1102 C1115 0.929 . S
H1103 C1113 0.929 . S
H1104 C1108 0.929 . S
H1105 C1114 0.929 . S
C1106 H1100 0.930 . S
C1106 C1107 1.367 . S
C1106 C1114 1.378 . S
C1107 C1106 1.367 . S
C1107 C1115 1.433 . S
C1108 H1104 0.929 . S
C1108 C1110 1.378 . S
C1108 C1112 1.350 . S
C1109 C1112 1.463 . S
C1109 C1114 1.350 . S
C1109 N1117 1.427 . S
C1110 H1101 0.930 . S
C1110 C1108 1.378 . S
C1110 C1111 1.367 . S
C1111 C1110 1.367 . S
C1111 C1113 1.433 . S
C1112 C1108 1.350 . S
C1112 C1109 1.463 . S
C1112 N1116 1.427 . S
C1113 H1103 0.929 . S
C1113 C1111 1.433 . S
C1113 N1116 1.384 . S
C1114 H1105 0.929 . S
C1114 C1106 1.378 . S
C1114 C1109 1.350 . S
C1115 H1102 0.929 . S
C1115 C1107 1.433 . S
C1115 N1117 1.384 . S
N1116 C1112 1.427 . S
N1116 C1113 1.384 . S
N1117 C1109 1.427 . S
N1117 C1115 1.384 . S
H1118 C1124 0.930 . S
H1119 C1128 0.930 . S
H1120 C1133 0.929 . S
H1121 C1131 0.929 . S
H1122 C1126 0.929 . S
H1123 C1132 0.929 . S
C1124 H1118 0.930 . S
C1124 C1125 1.367 . S
C1124 C1132 1.378 . S
C1125 C1124 1.367 . S
C1125 C1133 1.433 . S
C1126 H1122 0.929 . S
C1126 C1128 1.378 . S
C1126 C1130 1.350 . S
C1127 C1130 1.463 . S
C1127 C1132 1.350 . S
C1127 N1135 1.427 . S
C1128 H1119 0.930 . S
C1128 C1126 1.378 . S
C1128 C1129 1.367 . S
C1129 C1128 1.367 . S
C1129 C1131 1.433 . S
C1130 C1126 1.350 . S
C1130 C1127 1.463 . S
C1130 N1134 1.427 . S
C1131 H1121 0.929 . S
C1131 C1129 1.433 . S
C1131 N1134 1.384 . S
C1132 H1123 0.929 . S
C1132 C1124 1.378 . S
C1132 C1127 1.350 . S
C1133 H1120 0.929 . S
C1133 C1125 1.433 . S
C1133 N1135 1.384 . S
N1134 C1130 1.427 . S
N1134 C1131 1.384 . S
N1135 C1127 1.427 . S
N1135 C1133 1.384 . S
H1136 C1142 0.930 . S
H1137 C1146 0.930 . S
H1138 C1151 0.929 . S
H1139 C1149 0.929 . S
H1140 C1144 0.929 . S
H1141 C1150 0.929 . S
C1142 H1136 0.930 . S
C1142 C1143 1.367 . S
C1142 C1150 1.378 . S
C1143 C1142 1.367 . S
C1143 C1151 1.433 . S
C1144 H1140 0.929 . S
C1144 C1146 1.378 . S
C1144 C1148 1.350 . S
C1145 C1148 1.463 . S
C1145 C1150 1.350 . S
C1145 N1153 1.427 . S
C1146 H1137 0.930 . S
C1146 C1144 1.378 . S
C1146 C1147 1.367 . S
C1147 C1146 1.367 . S
C1147 C1149 1.433 . S
C1148 C1144 1.350 . S
C1148 C1145 1.463 . S
C1148 N1152 1.427 . S
C1149 H1139 0.929 . S
C1149 C1147 1.433 . S
C1149 N1152 1.384 . S
C1150 H1141 0.929 . S
C1150 C1142 1.378 . S
C1150 C1145 1.350 . S
C1151 H1138 0.929 . S
C1151 C1143 1.433 . S
C1151 N1153 1.384 . S
N1152 C1148 1.427 . S
N1152 C1149 1.384 . S
N1153 C1145 1.427 . S
N1153 C1151 1.384 . S
H1154 C1160 0.930 . S
H1155 C1164 0.930 . S
H1156 C1169 0.929 . S
H1157 C1167 0.929 . S
H1158 C1162 0.929 . S
H1159 C1168 0.929 . S
C1160 H1154 0.930 . S
C1160 C1161 1.367 . S
C1160 C1168 1.378 . S
C1161 C1160 1.367 . S
C1161 C1169 1.433 . S
C1162 H1158 0.929 . S
C1162 C1164 1.378 . S
C1162 C1166 1.350 . S
C1163 C1166 1.463 . S
C1163 C1168 1.350 . S
C1163 N1171 1.427 . S
C1164 H1155 0.930 . S
C1164 C1162 1.378 . S
C1164 C1165 1.367 . S
C1165 C1164 1.367 . S
C1165 C1167 1.433 . S
C1166 C1162 1.350 . S
C1166 C1163 1.463 . S
C1166 N1170 1.427 . S
C1167 H1157 0.929 . S
C1167 C1165 1.433 . S
C1167 N1170 1.384 . S
C1168 H1159 0.929 . S
C1168 C1160 1.378 . S
C1168 C1163 1.350 . S
C1169 H1156 0.929 . S
C1169 C1161 1.433 . S
C1169 N1171 1.384 . S
N1170 C1166 1.427 . S
N1170 C1167 1.384 . S
N1171 C1163 1.427 . S
N1171 C1169 1.384 . S
H1172 C1178 0.930 . S
H1173 C1182 0.930 . S
H1174 C1187 0.929 . S
H1175 C1185 0.929 . S
H1176 C1180 0.929 . S
H1177 C1186 0.929 . S
C1178 H1172 0.930 . S
C1178 C1179 1.367 . S
C1178 C1186 1.378 . S
C1179 C1178 1.367 . S
C1179 C1187 1.433 . S
C1180 H1176 0.929 . S
C1180 C1182 1.378 . S
C1180 C1184 1.350 . S
C1181 C1184 1.463 . S
C1181 C1186 1.350 . S
C1181 N1189 1.427 . S
C1182 H1173 0.930 . S
C1182 C1180 1.378 . S
C1182 C1183 1.367 . S
C1183 C1182 1.367 . S
C1183 C1185 1.433 . S
C1184 C1180 1.350 . S
C1184 C1181 1.463 . S
C1184 N1188 1.427 . S
C1185 H1175 0.929 . S
C1185 C1183 1.433 . S
C1185 N1188 1.384 . S
C1186 H1177 0.929 . S
C1186 C1178 1.378 . S
C1186 C1181 1.350 . S
C1187 H1174 0.929 . S
C1187 C1179 1.433 . S
C1187 N1189 1.384 . S
N1188 C1184 1.427 . S
N1188 C1185 1.384 . S
N1189 C1181 1.427 . S
N1189 C1187 1.384 . S
H1190 C1196 0.930 . S
H1191 C1200 0.930 . S
H1192 C1205 0.929 . S
H1193 C1203 0.929 . S
H1194 C1198 0.929 . S
H1195 C1204 0.929 . S
C1196 H1190 0.930 . S
C1196 C1197 1.367 . S
C1196 C1204 1.378 . S
C1197 C1196 1.367 . S
C1197 C1205 1.433 . S
C1198 H1194 0.929 . S
C1198 C1200 1.378 . S
C1198 C1202 1.350 . S
C1199 C1202 1.463 . S
C1199 C1204 1.350 . S
C1199 N1207 1.427 . S
C1200 H1191 0.930 . S
C1200 C1198 1.378 . S
C1200 C1201 1.367 . S
C1201 C1200 1.367 . S
C1201 C1203 1.433 . S
C1202 C1198 1.350 . S
C1202 C1199 1.463 . S
C1202 N1206 1.427 . S
C1203 H1193 0.929 . S
C1203 C1201 1.433 . S
C1203 N1206 1.384 . S
C1204 H1195 0.929 . S
C1204 C1196 1.378 . S
C1204 C1199 1.350 . S
C1205 H1192 0.929 . S
C1205 C1197 1.433 . S
C1205 N1207 1.384 . S
N1206 C1202 1.427 . S
N1206 C1203 1.384 . S
N1207 C1199 1.427 . S
N1207 C1205 1.384 . S
H1208 C1214 0.930 . S
H1209 C1218 0.930 . S
H1210 C1223 0.929 . S
H1211 C1221 0.929 . S
H1212 C1216 0.929 . S
H1213 C1222 0.929 . S
C1214 H1208 0.930 . S
C1214 C1215 1.367 . S
C1214 C1222 1.378 . S
C1215 C1214 1.367 . S
C1215 C1223 1.433 . S
C1216 H1212 0.929 . S
C1216 C1218 1.378 . S
C1216 C1220 1.350 . S
C1217 C1220 1.463 . S
C1217 C1222 1.350 . S
C1217 N1225 1.427 . S
C1218 H1209 0.930 . S
C1218 C1216 1.378 . S
C1218 C1219 1.367 . S
C1219 C1218 1.367 . S
C1219 C1221 1.433 . S
C1220 C1216 1.350 . S
C1220 C1217 1.463 . S
C1220 N1224 1.427 . S
C1221 H1211 0.929 . S
C1221 C1219 1.433 . S
C1221 N1224 1.384 . S
C1222 H1213 0.929 . S
C1222 C1214 1.378 . S
C1222 C1217 1.350 . S
C1223 H1210 0.929 . S
C1223 C1215 1.433 . S
C1223 N1225 1.384 . S
N1224 C1220 1.427 . S
N1224 C1221 1.384 . S
N1225 C1217 1.427 . S
N1225 C1223 1.384 . S
H1226 C1232 0.930 . S
H1227 C1236 0.930 . S
H1228 C1241 0.929 . S
H1229 C1239 0.929 . S
H1230 C1234 0.929 . S
H1231 C1240 0.929 . S
C1232 H1226 0.930 . S
C1232 C1233 1.367 . S
C1232 C1240 1.378 . S
C1233 C1232 1.367 . S
C1233 C1241 1.433 . S
C1234 H1230 0.929 . S
C1234 C1236 1.378 . S
C1234 C1238 1.350 . S
C1235 C1238 1.463 . S
C1235 C1240 1.350 . S
C1235 N1243 1.427 . S
C1236 H1227 0.930 . S
C1236 C1234 1.378 . S
C1236 C1237 1.367 . S
C1237 C1236 1.367 . S
C1237 C1239 1.433 . S
C1238 C1234 1.350 . S
C1238 C1235 1.463 . S
C1238 N1242 1.427 . S
C1239 H1229 0.929 . S
C1239 C1237 1.433 . S
C1239 N1242 1.384 . S
C1240 H1231 0.929 . S
C1240 C1232 1.378 . S
C1240 C1235 1.350 . S
C1241 H1228 0.929 . S
C1241 C1233 1.433 . S
C1241 N1243 1.384 . S
N1242 C1238 1.427 . S
N1242 C1239 1.384 . S
N1243 C1235 1.427 . S
N1243 C1241 1.384 . S
H1244 C1250 0.930 . S
H1245 C1254 0.930 . S
H1246 C1259 0.929 . S
H1247 C1257 0.929 . S
H1248 C1252 0.929 . S
H1249 C1258 0.929 . S
C1250 H1244 0.930 . S
C1250 C1251 1.367 . S
C1250 C1258 1.378 . S
C1251 C1250 1.367 . S
C1251 C1259 1.433 . S
C1252 H1248 0.929 . S
C1252 C1254 1.378 . S
C1252 C1256 1.350 . S
C1253 C1256 1.463 . S
C1253 C1258 1.350 . S
C1253 N1261 1.427 . S
C1254 H1245 0.930 . S
C1254 C1252 1.378 . S
C1254 C1255 1.367 . S
C1255 C1254 1.367 . S
C1255 C1257 1.433 . S
C1256 C1252 1.350 . S
C1256 C1253 1.463 . S
C1256 N1260 1.427 . S
C1257 H1247 0.929 . S
C1257 C1255 1.433 . S
C1257 N1260 1.384 . S
C1258 H1249 0.929 . S
C1258 C1250 1.378 . S
C1258 C1253 1.350 . S
C1259 H1246 0.929 . S
C1259 C1251 1.433 . S
C1259 N1261 1.384 . S
N1260 C1256 1.427 . S
N1260 C1257 1.384 . S
N1261 C1253 1.427 . S
N1261 C1259 1.384 . S
H1262 C1268 0.930 . S
H1263 C1272 0.930 . S
H1264 C1277 0.929 . S
H1265 C1275 0.929 . S
H1266 C1270 0.929 . S
H1267 C1276 0.929 . S
C1268 H1262 0.930 . S
C1268 C1269 1.367 . S
C1268 C1276 1.378 . S
C1269 C1268 1.367 . S
C1269 C1277 1.433 . S
C1270 H1266 0.929 . S
C1270 C1272 1.378 . S
C1270 C1274 1.350 . S
C1271 C1274 1.463 . S
C1271 C1276 1.350 . S
C1271 N1279 1.427 . S
C1272 H1263 0.930 . S
C1272 C1270 1.378 . S
C1272 C1273 1.367 . S
C1273 C1272 1.367 . S
C1273 C1275 1.433 . S
C1274 C1270 1.350 . S
C1274 C1271 1.463 . S
C1274 N1278 1.427 . S
C1275 H1265 0.929 . S
C1275 C1273 1.433 . S
C1275 N1278 1.384 . S
C1276 H1267 0.929 . S
C1276 C1268 1.378 . S
C1276 C1271 1.350 . S
C1277 H1264 0.929 . S
C1277 C1269 1.433 . S
C1277 N1279 1.384 . S
N1278 C1274 1.427 . S
N1278 C1275 1.384 . S
N1279 C1271 1.427 . S
N1279 C1277 1.384 . S
H1280 C1286 0.930 . S
H1281 C1290 0.930 . S
H1282 C1295 0.929 . S
H1283 C1293 0.929 . S
H1284 C1288 0.929 . S
H1285 C1294 0.929 . S
C1286 H1280 0.930 . S
C1286 C1287 1.367 . S
C1286 C1294 1.378 1_655 S
C1287 C1286 1.367 . S
C1287 C1295 1.433 . S
C1288 H1284 0.929 . S
C1288 C1290 1.378 1_655 S
C1288 C1292 1.350 1_655 S
C1289 C1292 1.463 1_665 S
C1289 C1294 1.350 1_655 S
C1289 N1297 1.427 . S
C1290 H1281 0.930 . S
C1290 C1288 1.378 1_455 S
C1290 C1291 1.367 . S
C1291 C1290 1.367 . S
C1291 C1293 1.433 . S
C1292 C1288 1.350 1_455 S
C1292 C1289 1.463 1_445 S
C1292 N1296 1.427 . S
C1293 H1283 0.929 . S
C1293 C1291 1.433 . S
C1293 N1296 1.384 . S
C1294 H1285 0.929 . S
C1294 C1286 1.378 1_455 S
C1294 C1289 1.350 1_455 S
C1295 H1282 0.929 . S
C1295 C1287 1.433 . S
C1295 N1297 1.384 . S
N1296 C1292 1.427 . S
N1296 C1293 1.384 . S
N1297 C1289 1.427 . S
N1297 C1295 1.384 . S
H1298 C1304 0.930 . S
H1299 C1308 0.930 . S
H1300 C1313 0.929 . S
H1301 C1311 0.929 . S
H1302 C1306 0.929 . S
H1303 C1312 0.929 . S
C1304 H1298 0.930 . S
C1304 C1305 1.367 1_565 S
C1304 C1312 1.378 . S
C1305 C1304 1.367 1_545 S
C1305 C1313 1.433 . S
C1306 H1302 0.929 . S
C1306 C1308 1.378 . S
C1306 C1310 1.350 1_545 S
C1307 C1310 1.463 1_645 S
C1307 C1312 1.350 1_545 S
C1307 N1315 1.427 . S
C1308 H1299 0.930 . S
C1308 C1306 1.378 . S
C1308 C1309 1.367 1_545 S
C1309 C1308 1.367 1_565 S
C1309 C1311 1.433 . S
C1310 C1306 1.350 1_565 S
C1310 C1307 1.463 1_465 S
C1310 N1314 1.427 . S
C1311 H1301 0.929 . S
C1311 C1309 1.433 . S
C1311 N1314 1.384 . S
C1312 H1303 0.929 . S
C1312 C1304 1.378 . S
C1312 C1307 1.350 1_565 S
C1313 H1300 0.929 . S
C1313 C1305 1.433 . S
C1313 N1315 1.384 . S
N1314 C1310 1.427 . S
N1314 C1311 1.384 . S
N1315 C1307 1.427 . S
N1315 C1313 1.384 . S
H1316 C1322 0.930 . S
H1317 C1326 0.930 . S
H1318 C1331 0.929 . S
H1319 C1329 0.929 . S
H1320 C1324 0.929 . S
H1321 C1330 0.929 . S
C1322 H1316 0.930 . S
C1322 C1323 1.367 . S
C1322 C1330 1.378 . S
C1323 C1322 1.367 . S
C1323 C1331 1.433 1_455 S
C1324 H1320 0.929 . S
C1324 C1326 1.378 . S
C1324 C1328 1.350 . S
C1325 C1328 1.463 1_455 S
C1325 C1330 1.350 . S
C1325 N1333 1.427 1_455 S
C1326 H1317 0.930 . S
C1326 C1324 1.378 . S
C1326 C1327 1.367 . S
C1327 C1326 1.367 . S
C1327 C1329 1.433 1_655 S
C1328 C1324 1.350 . S
C1328 C1325 1.463 1_655 S
C1328 N1332 1.427 1_655 S
C1329 H1319 0.929 . S
C1329 C1327 1.433 1_455 S
C1329 N1332 1.384 . S
C1330 H1321 0.929 . S
C1330 C1322 1.378 . S
C1330 C1325 1.350 . S
C1331 H1318 0.929 . S
C1331 C1323 1.433 1_655 S
C1331 N1333 1.384 . S
N1332 C1328 1.427 1_455 S
N1332 C1329 1.384 . S
N1333 C1325 1.427 1_655 S
N1333 C1331 1.384 . S
H1334 C1340 0.930 . S
H1335 C1344 0.930 . S
H1336 C1349 0.929 . S
H1337 C1347 0.929 . S
H1338 C1342 0.929 . S
H1339 C1348 0.929 . S
C1340 H1334 0.930 . S
C1340 C1341 1.367 . S
C1340 C1348 1.378 . S
C1341 C1340 1.367 . S
C1341 C1349 1.433 . S
C1342 H1338 0.929 . S
C1342 C1344 1.378 . S
C1342 C1346 1.350 . S
C1343 C1346 1.463 1_565 S
C1343 C1348 1.350 . S
C1343 N1351 1.427 1_565 S
C1344 H1335 0.930 . S
C1344 C1342 1.378 . S
C1344 C1345 1.367 . S
C1345 C1344 1.367 . S
C1345 C1347 1.433 . S
C1346 C1342 1.350 . S
C1346 C1343 1.463 1_545 S
C1346 N1350 1.427 1_545 S
C1347 H1337 0.929 . S
C1347 C1345 1.433 . S
C1347 N1350 1.384 1_545 S
C1348 H1339 0.929 . S
C1348 C1340 1.378 . S
C1348 C1343 1.350 . S
C1349 H1336 0.929 . S
C1349 C1341 1.433 . S
C1349 N1351 1.384 1_565 S
N1350 C1346 1.427 1_565 S
N1350 C1347 1.384 1_565 S
N1351 C1343 1.427 1_545 S
N1351 C1349 1.384 1_545 S
H1352 C1358 0.930 . S
H1353 C1362 0.930 . S
H1354 C1367 0.929 . S
H1355 C1365 0.929 . S
H1356 C1360 0.929 . S
H1357 C1366 0.929 . S
C1358 H1352 0.930 . S
C1358 C1359 1.367 . S
C1358 C1366 1.378 . S
C1359 C1358 1.367 . S
C1359 C1367 1.433 . S
C1360 H1356 0.929 . S
C1360 C1362 1.378 . S
C1360 C1364 1.350 . S
C1361 C1364 1.463 . S
C1361 C1366 1.350 . S
C1361 N1369 1.427 . S
C1362 H1353 0.930 . S
C1362 C1360 1.378 . S
C1362 C1363 1.367 . S
C1363 C1362 1.367 . S
C1363 C1365 1.433 . S
C1364 C1360 1.350 . S
C1364 C1361 1.463 . S
C1364 N1368 1.427 . S
C1365 H1355 0.929 . S
C1365 C1363 1.433 . S
C1365 N1368 1.384 . S
C1366 H1357 0.929 . S
C1366 C1358 1.378 . S
C1366 C1361 1.350 . S
C1367 H1354 0.929 . S
C1367 C1359 1.433 . S
C1367 N1369 1.384 . S
N1368 C1364 1.427 . S
N1368 C1365 1.384 . S
N1369 C1361 1.427 . S
N1369 C1367 1.384 . S
H1370 C1376 0.930 . S
H1371 C1380 0.930 . S
H1372 C1385 0.929 . S
H1373 C1383 0.929 . S
H1374 C1378 0.929 . S
H1375 C1384 0.929 . S
C1376 H1370 0.930 . S
C1376 C1377 1.367 . S
C1376 C1384 1.378 . S
C1377 C1376 1.367 . S
C1377 C1385 1.433 . S
C1378 H1374 0.929 . S
C1378 C1380 1.378 . S
C1378 C1382 1.350 . S
C1379 C1382 1.463 . S
C1379 C1384 1.350 . S
C1379 N1387 1.427 . S
C1380 H1371 0.930 . S
C1380 C1378 1.378 . S
C1380 C1381 1.367 . S
C1381 C1380 1.367 . S
C1381 C1383 1.433 . S
C1382 C1378 1.350 . S
C1382 C1379 1.463 . S
C1382 N1386 1.427 . S
C1383 H1373 0.929 . S
C1383 C1381 1.433 . S
C1383 N1386 1.384 . S
C1384 H1375 0.929 . S
C1384 C1376 1.378 . S
C1384 C1379 1.350 . S
C1385 H1372 0.929 . S
C1385 C1377 1.433 . S
C1385 N1387 1.384 . S
N1386 C1382 1.427 . S
N1386 C1383 1.384 . S
N1387 C1379 1.427 . S
N1387 C1385 1.384 . S
H1388 C1394 0.930 . S
H1389 C1398 0.930 . S
H1390 C1403 0.929 . S
H1391 C1401 0.929 . S
H1392 C1396 0.929 . S
H1393 C1402 0.929 . S
C1394 H1388 0.930 . S
C1394 C1395 1.367 . S
C1394 C1402 1.378 . S
C1395 C1394 1.367 . S
C1395 C1403 1.433 . S
C1396 H1392 0.929 . S
C1396 C1398 1.378 . S
C1396 C1400 1.350 . S
C1397 C1400 1.463 1_545 S
C1397 C1402 1.350 . S
C1397 N1405 1.427 . S
C1398 H1389 0.930 . S
C1398 C1396 1.378 . S
C1398 C1399 1.367 . S
C1399 C1398 1.367 . S
C1399 C1401 1.433 . S
C1400 C1396 1.350 . S
C1400 C1397 1.463 1_565 S
C1400 N1404 1.427 . S
C1401 H1391 0.929 . S
C1401 C1399 1.433 . S
C1401 N1404 1.384 . S
C1402 H1393 0.929 . S
C1402 C1394 1.378 . S
C1402 C1397 1.350 . S
C1403 H1390 0.929 . S
C1403 C1395 1.433 . S
C1403 N1405 1.384 . S
N1404 C1400 1.427 . S
N1404 C1401 1.384 . S
N1405 C1397 1.427 . S
N1405 C1403 1.384 . S
H1406 C1412 0.930 . S
H1407 C1416 0.930 . S
H1408 C1421 0.929 . S
H1409 C1419 0.929 . S
H1410 C1414 0.929 . S
H1411 C1420 0.929 . S
C1412 H1406 0.930 . S
C1412 C1413 1.367 . S
C1412 C1420 1.378 . S
C1413 C1412 1.367 . S
C1413 C1421 1.433 . S
C1414 H1410 0.929 . S
C1414 C1416 1.378 . S
C1414 C1418 1.350 . S
C1415 C1418 1.463 1_655 S
C1415 C1420 1.350 . S
C1415 N1423 1.427 . S
C1416 H1407 0.930 . S
C1416 C1414 1.378 . S
C1416 C1417 1.367 . S
C1417 C1416 1.367 . S
C1417 C1419 1.433 . S
C1418 C1414 1.350 . S
C1418 C1415 1.463 1_455 S
C1418 N1422 1.427 . S
C1419 H1409 0.929 . S
C1419 C1417 1.433 . S
C1419 N1422 1.384 . S
C1420 H1411 0.929 . S
C1420 C1412 1.378 . S
C1420 C1415 1.350 . S
C1421 H1408 0.929 . S
C1421 C1413 1.433 . S
C1421 N1423 1.384 . S
N1422 C1418 1.427 . S
N1422 C1419 1.384 . S
N1423 C1415 1.427 . S
N1423 C1421 1.384 . S
C855 C22 1.694 . S
C859 C621 1.745 . S
C873 C463 1.745 . S
C877 C82 1.692 . S
C891 C515 1.745 . S
C895 C128 1.695 . S
C909 C569 1.744 . S
C913 C188 1.692 . S
C927 C303 1.746 1_545 S
C931 C234 1.695 . S
C945 C294 1.691 . S
C949 C357 1.745 1_455 S
C963 C340 1.693 . S
C967 C409 1.744 1_565 S
C981 C400 1.684 . S
C985 C251 1.741 1_655 S
C999 C446 1.687 . S
C1003 C197 1.744 1_565 S
C1017 C39 1.741 1_655 S
C1021 C506 1.682 . S
C1035 C91 1.741 1_545 S
C1039 C552 1.683 . S
C1053 C145 1.744 1_455 S
C1057 C612 1.686 . S
C1071 C727 1.743 . S
C1075 C658 1.686 . S
C1089 C718 1.686 . S
C1093 C781 1.741 . S
C1107 C833 1.742 . S
C1111 C764 1.684 . S
C1125 C675 1.746 . S
C1129 C824 1.695 . S
C1143 C780 2.105 . S
C1147 C38 2.105 . S
C1161 C834 2.106 . S
C1165 C92 2.105 . S
C1179 C674 2.107 . S
C1183 C144 2.104 . S
C1197 C198 2.107 . S
C1201 C728 2.109 . S
C1215 C250 2.109 . S
C1219 C568 2.103 . S
C1233 C622 2.106 . S
C1237 C304 2.105 . S
C1251 C356 2.103 . S
C1255 C462 2.109 . S
C1269 C410 2.103 . S
C1273 C516 2.110 . S
C1287 C135 2.009 . S
C1291 C29 2.017 . S
C1305 C181 2.015 . S
C1309 C75 2.011 . S
C1323 C241 2.012 . S
C1327 C347 2.014 . S
C1341 C287 2.017 . S
C1345 C393 2.009 . S
C1359 C559 2.016 . S
C1363 C453 2.010 . S
C1377 C499 2.009 . S
C1381 C605 2.017 . S
C1395 C771 2.017 . S
C1399 C665 2.009 . S
C1413 C711 2.011 . S
C1417 C817 2.016 . S
