# Generated by pormake.
# Topology vmp, (7)-cn, num edge types: 1
# Building blocks:
#     Node 0, Type 0, BuildingBlock: HICVOG_clean_sbu_0, # of connection points: 7
#     Node 1, Type 0, BuildingBlock: HICVOG_clean_sbu_0, # of connection points: 7
#     Node 2, Type 0, BuildingBlock: HICVOG_clean_sbu_0, # of connection points: 7
#     Node 3, Type 0, BuildingBlock: HICVOG_clean_sbu_0, # of connection points: 7
#     Node 4, Type 0, BuildingBlock: HICVOG_clean_sbu_0, # of connection points: 7
#     Node 5, Type 0, BuildingBlock: HICVOG_clean_sbu_0, # of connection points: 7
#     Node 6, Type 0, BuildingBlock: HICVOG_clean_sbu_0, # of connection points: 7
#     Node 7, Type 0, BuildingBlock: HICVOG_clean_sbu_0, # of connection points: 7
#     Edge 8, Type (0, 0), BuildingBlock: XIVTED_clean_linker_0, # of connection points: 2
#     Edge 9, Type (0, 0), BuildingBlock: XIVTED_clean_linker_0, # of connection points: 2
#     Edge 10, Type (0, 0), BuildingBlock: XIVTED_clean_linker_0, # of connection points: 2
#     Edge 11, Type (0, 0), BuildingBlock: XIVTED_clean_linker_0, # of connection points: 2
#     Edge 12, Type (0, 0), BuildingBlock: XIVTED_clean_linker_0, # of connection points: 2
#     Edge 13, Type (0, 0), BuildingBlock: XIVTED_clean_linker_0, # of connection points: 2
#     Edge 14, Type (0, 0), BuildingBlock: XIVTED_clean_linker_0, # of connection points: 2
#     Edge 15, Type (0, 0), BuildingBlock: XIVTED_clean_linker_0, # of connection points: 2
#     Edge 16, Type (0, 0), BuildingBlock: XIVTED_clean_linker_0, # of connection points: 2
#     Edge 17, Type (0, 0), BuildingBlock: XIVTED_clean_linker_0, # of connection points: 2
#     Edge 18, Type (0, 0), BuildingBlock: XIVTED_clean_linker_0, # of connection points: 2
#     Edge 19, Type (0, 0), BuildingBlock: XIVTED_clean_linker_0, # of connection points: 2
#     Edge 20, Type (0, 0), BuildingBlock: XIVTED_clean_linker_0, # of connection points: 2
#     Edge 21, Type (0, 0), BuildingBlock: XIVTED_clean_linker_0, # of connection points: 2
#     Edge 22, Type (0, 0), BuildingBlock: XIVTED_clean_linker_0, # of connection points: 2
#     Edge 23, Type (0, 0), BuildingBlock: XIVTED_clean_linker_0, # of connection points: 2
#     Edge 24, Type (0, 0), BuildingBlock: XIVTED_clean_linker_0, # of connection points: 2
#     Edge 25, Type (0, 0), BuildingBlock: XIVTED_clean_linker_0, # of connection points: 2
#     Edge 26, Type (0, 0), BuildingBlock: XIVTED_clean_linker_0, # of connection points: 2
#     Edge 27, Type (0, 0), BuildingBlock: XIVTED_clean_linker_0, # of connection points: 2
#     Edge 28, Type (0, 0), BuildingBlock: XIVTED_clean_linker_0, # of connection points: 2
#     Edge 29, Type (0, 0), BuildingBlock: XIVTED_clean_linker_0, # of connection points: 2
#     Edge 30, Type (0, 0), BuildingBlock: XIVTED_clean_linker_0, # of connection points: 2
#     Edge 31, Type (0, 0), BuildingBlock: XIVTED_clean_linker_0, # of connection points: 2
#     Edge 32, Type (0, 0), BuildingBlock: XIVTED_clean_linker_0, # of connection points: 2
#     Edge 33, Type (0, 0), BuildingBlock: XIVTED_clean_linker_0, # of connection points: 2
#     Edge 34, Type (0, 0), BuildingBlock: XIVTED_clean_linker_0, # of connection points: 2
#     Edge 35, Type (0, 0), BuildingBlock: XIVTED_clean_linker_0, # of connection points: 2
# Relax obj value: 0.158
# Max RMSD: 0.204
# Mean RMSD: 0.204
data_MOF--net-vmp--node1-HICVOG_clean_sbu_0--edge1-XIVTED_clean_linker_0
_symmetry_space_group_name_H-M    P1
_symmetry_Int_Tables_number       1
_symmetry_cell_setting            triclinic
loop_
_symmetry_equiv_pos_as_xyz
'x, y, z'
_cell_length_a     18.0266
_cell_length_b     80.47112
_cell_length_c     27.971869
_cell_angle_alpha  90.311191
_cell_angle_beta   110.73548
_cell_angle_gamma 90.188147
loop_
_atom_site_label
_atom_site_type_symbol
_atom_site_fract_x
_atom_site_fract_y
_atom_site_fract_z
_atom_type_partial_charge
Zn0 Zn 0.32841 0.14641 0.23737 0.0
C1 C 0.38956 0.12369 0.12786 0.0
N2 N 0.32705 0.13202 0.0968 0.0
C3 C 0.29791 0.13921 0.12963 0.0
N4 N 0.3402 0.13537 0.17878 0.0
N5 N 0.39925 0.12571 0.17772 0.0
C6 C 0.64812 0.10968 0.26301 0.0
O7 O 0.64293 0.10126 0.30182 0.0
O8 O 0.21388 0.14506 0.23618 0.0
Zn9 Zn 0.47293 0.11209 0.23145 0.0
N10 N 0.36537 0.16889 0.23534 0.0
C11 C 0.46781 0.18508 0.22318 0.0
C12 C 0.43291 0.16974 0.22432 0.0
C13 C 0.33109 0.18286 0.24562 0.0
N14 N 0.43415 0.199 0.23355 0.0
C15 C 0.36659 0.19848 0.2448 0.0
O16 O 0.4801 0.11689 0.30505 0.0
C17 C 0.45054 0.1269 0.32888 0.0
O18 O 0.39794 0.13742 0.30541 0.0
H19 H 0.45994 0.1585 0.217 0.0
H20 H 0.27848 0.1817 0.25548 0.0
C21 C 0.47887 0.07555 0.22146 0.0
C22 C 0.44253 0.06015 0.20239 0.0
C23 C 0.31788 0.07354 0.16832 0.0
C24 C 0.35353 0.08864 0.18789 0.0
N25 N 0.43334 0.08951 0.21308 0.0
N26 N 0.363 0.05971 0.17597 0.0
H27 H 0.54213 0.07645 0.24191 0.0
C28 C 0.19465 0.13173 0.25353 0.0
O29 O 0.24835 0.12008 0.27043 0.0
O30 O 0.58482 0.11501 0.22926 0.0
H31 H 0.31758 0.09967 0.18237 0.0
H32 H 0.52163 0.18592 0.21453 0.0
H33 H 0.25468 0.07277 0.1475 0.0
Zn34 Zn 0.74196 0.15126 0.80471 0.0
C35 C 0.67916 0.12804 0.91298 0.0
N36 N 0.74103 0.13659 0.94461 0.0
C37 C 0.77073 0.14393 0.91241 0.0
N38 N 0.72957 0.13992 0.86299 0.0
N39 N 0.67062 0.12998 0.86334 0.0
C40 C 0.44281 0.12947 0.79177 0.0
O41 O 0.47266 0.14219 0.7753 0.0
O42 O 0.85827 0.15197 0.80884 0.0
Zn43 Zn 0.60076 0.11559 0.80924 0.0
N44 N 0.69757 0.17331 0.80484 0.0
C45 C 0.58963 0.18739 0.81682 0.0
C46 C 0.62987 0.17281 0.81571 0.0
C47 C 0.72685 0.188 0.79456 0.0
N48 N 0.61832 0.20198 0.80662 0.0
C49 C 0.68581 0.20293 0.79535 0.0
O50 O 0.59884 0.11999 0.73696 0.0
C51 C 0.62931 0.12973 0.71305 0.0
O52 O 0.67946 0.14093 0.73613 0.0
H53 H 0.60701 0.16108 0.82325 0.0
H54 H 0.77996 0.18792 0.78504 0.0
C55 C 0.59954 0.07933 0.82432 0.0
C56 C 0.63827 0.06426 0.84365 0.0
C57 C 0.76227 0.07841 0.8702 0.0
C58 C 0.72405 0.09316 0.85055 0.0
N59 N 0.64362 0.09346 0.82871 0.0
N60 N 0.71871 0.06438 0.86633 0.0
H61 H 0.5356 0.07989 0.80692 0.0
C62 C 0.88821 0.13856 0.79931 0.0
O63 O 0.84417 0.12503 0.78893 0.0
O64 O 0.4858 0.11665 0.80755 0.0
H65 H 0.75834 0.1044 0.85338 0.0
H66 H 0.53569 0.18713 0.82546 0.0
H67 H 0.82614 0.07807 0.88826 0.0
Zn68 Zn 0.72001 0.86549 0.82123 0.0
C69 C 0.64913 0.8994 0.90283 0.0
N70 N 0.72098 0.89617 0.93744 0.0
C71 C 0.75338 0.88621 0.91179 0.0
N72 N 0.70362 0.88314 0.86371 0.0
N73 N 0.63801 0.89161 0.85774 0.0
C74 C 0.38237 0.89806 0.77339 0.0
O75 O 0.38616 0.90451 0.73124 0.0
O76 O 0.83155 0.86722 0.82109 0.0
Zn77 Zn 0.54869 0.89527 0.79485 0.0
N78 N 0.70331 0.84427 0.8488 0.0
C79 C 0.65704 0.82926 0.90579 0.0
C80 C 0.67193 0.84428 0.88639 0.0
C81 C 0.71974 0.82977 0.82934 0.0
N82 N 0.67289 0.8148 0.88627 0.0
C83 C 0.70352 0.81445 0.84818 0.0
O84 O 0.53965 0.88056 0.73286 0.0
C85 C 0.58328 0.87118 0.71722 0.0
O86 O 0.65006 0.86609 0.74725 0.0
H87 H 0.65803 0.85585 0.90103 0.0
H88 H 0.7453 0.83037 0.79982 0.0
C89 C 0.53965 0.93199 0.78898 0.0
C90 C 0.54609 0.94715 0.7655 0.0
C91 C 0.59485 0.93259 0.70882 0.0
C92 C 0.58897 0.91772 0.73216 0.0
N93 N 0.56012 0.91755 0.771 0.0
N94 N 0.57314 0.94688 0.72584 0.0
H95 H 0.51753 0.93163 0.82024 0.0
C96 C 0.84355 0.87856 0.79309 0.0
O97 O 0.78395 0.88801 0.76677 0.0
O98 O 0.44597 0.8933 0.80782 0.0
H99 H 0.6069 0.90633 0.71893 0.0
H100 H 0.63237 0.82907 0.93586 0.0
H101 H 0.61677 0.93282 0.67748 0.0
Zn102 Zn 0.48692 0.89257 0.25794 0.0
C103 C 0.28475 0.88229 0.14016 0.0
N104 N 0.31783 0.89184 0.11404 0.0
C105 C 0.38976 0.89522 0.14862 0.0
N106 N 0.40038 0.88789 0.19406 0.0
N107 N 0.33406 0.87964 0.18849 0.0
C108 C 0.18245 0.87168 0.2521 0.0
O109 O 0.23342 0.88276 0.27998 0.0
O110 O 0.59208 0.89184 0.24818 0.0
Zn111 Zn 0.31986 0.86214 0.23184 0.0
N112 N 0.46982 0.91481 0.27869 0.0
C113 C 0.41487 0.93048 0.33035 0.0
C114 C 0.42643 0.91538 0.30973 0.0
C115 C 0.50021 0.92894 0.26589 0.0
N116 N 0.44611 0.9445 0.31846 0.0
C117 C 0.48822 0.94429 0.28654 0.0
O118 O 0.38308 0.86457 0.3067 0.0
C119 C 0.44936 0.87003 0.33699 0.0
O120 O 0.49484 0.87881 0.32112 0.0
H121 H 0.40157 0.90413 0.31886 0.0
H122 H 0.53421 0.92818 0.24089 0.0
C123 C 0.32744 0.82664 0.22448 0.0
C124 C 0.35065 0.81148 0.20857 0.0
C125 C 0.41452 0.82665 0.16123 0.0
C126 C 0.39213 0.84155 0.1776 0.0
N127 N 0.34892 0.84126 0.20873 0.0
N128 N 0.39341 0.81205 0.17702 0.0
H129 H 0.29206 0.82699 0.24862 0.0
C130 C 0.62053 0.87822 0.23942 0.0
O131 O 0.57916 0.86446 0.23519 0.0
O132 O 0.20568 0.86105 0.22674 0.0
H133 H 0.40923 0.85324 0.16563 0.0
H134 H 0.38125 0.93107 0.35558 0.0
H135 H 0.44874 0.82666 0.13632 0.0
Zn136 Zn 0.79865 0.65196 0.71966 0.0
C137 C 0.86685 0.62934 0.61217 0.0
N138 N 0.80569 0.63789 0.58056 0.0
C139 C 0.77467 0.64497 0.61263 0.0
N140 N 0.81421 0.64078 0.66185 0.0
N141 N 0.87353 0.63102 0.66169 0.0
C142 C 0.09711 0.63035 0.73141 0.0
O143 O 0.0652 0.64339 0.74488 0.0
O144 O 0.6826 0.65122 0.71613 0.0
Zn145 Zn 0.94041 0.61657 0.71578 0.0
N146 N 0.83436 0.67467 0.71745 0.0
C147 C 0.92693 0.69156 0.6965 0.0
C148 C 0.89708 0.67598 0.70144 0.0
C149 C 0.80113 0.68844 0.73006 0.0
N150 N 0.89362 0.70528 0.70848 0.0
C151 C 0.83171 0.7043 0.72549 0.0
O152 O 0.94432 0.62191 0.78812 0.0
C153 C 0.91538 0.63206 0.81194 0.0
O154 O 0.86454 0.64293 0.78864 0.0
H155 H 0.92362 0.66496 0.6923 0.0
H156 H 0.7512 0.68705 0.74264 0.0
C157 C 0.93591 0.57996 0.70919 0.0
C158 C 0.89651 0.56474 0.69106 0.0
C159 C 0.77695 0.57941 0.65 0.0
C160 C 0.81556 0.59434 0.66859 0.0
N161 N 0.8944 0.59444 0.69701 0.0
N162 N 0.8181 0.56504 0.66161 0.0
H163 H 0.99849 0.58034 0.73202 0.0
C164 C 0.65437 0.63777 0.72685 0.0
O165 O 0.70001 0.62459 0.73845 0.0
O166 O 0.05538 0.61715 0.71743 0.0
H167 H 0.78267 0.6058 0.65997 0.0
H168 H 0.97637 0.69277 0.68337 0.0
H169 H 0.71453 0.57922 0.6268 0.0
Zn170 Zn 0.21408 0.64772 0.29231 0.0
C171 C 0.15359 0.62091 0.39554 0.0
N172 N 0.21818 0.62845 0.42817 0.0
C173 C 0.24659 0.63671 0.39689 0.0
N174 N 0.20177 0.63438 0.34709 0.0
N175 N 0.14197 0.62451 0.3462 0.0
C176 C 0.91383 0.62706 0.28051 0.0
O177 O 0.94779 0.64028 0.26975 0.0
O178 O 0.32859 0.64736 0.29384 0.0
Zn179 Zn 0.06472 0.61298 0.28794 0.0
N180 N 0.18408 0.67008 0.30378 0.0
C181 C 0.10132 0.68666 0.33456 0.0
C182 C 0.12599 0.67115 0.32407 0.0
C183 C 0.21797 0.684 0.29269 0.0
N184 N 0.13503 0.70053 0.32373 0.0
C185 C 0.19257 0.69978 0.30274 0.0
O186 O 0.05723 0.62106 0.21759 0.0
C187 C 0.08849 0.63128 0.19556 0.0
O188 O 0.14458 0.64102 0.22076 0.0
H189 H 0.0991 0.66 0.33218 0.0
H190 H 0.26449 0.68271 0.27694 0.0
C191 C 0.07348 0.57662 0.30521 0.0
C192 C 0.11553 0.56159 0.3109 0.0
C193 C 0.2153 0.5753 0.28852 0.0
C194 C 0.17408 0.59013 0.28324 0.0
N195 N 0.10463 0.59058 0.29196 0.0
N196 N 0.18546 0.56145 0.30253 0.0
H197 H 0.0187 0.57732 0.31277 0.0
C198 C 0.3541 0.63446 0.27806 0.0
O199 O 0.30574 0.62177 0.26107 0.0
O200 O 0.95271 0.61352 0.29056 0.0
H201 H 0.19776 0.60138 0.27316 0.0
H202 H 0.0555 0.68768 0.35102 0.0
H203 H 0.27104 0.57481 0.28213 0.0
Zn204 Zn 0.04579 0.39256 0.33314 0.0
C205 C 0.21275 0.36465 0.43514 0.0
N206 N 0.17335 0.36903 0.46586 0.0
C207 C 0.11006 0.37703 0.43401 0.0
N208 N 0.11038 0.37773 0.38599 0.0
N209 N 0.17474 0.3697 0.38673 0.0
C210 C 0.33626 0.37235 0.32319 0.0
O211 O 0.28843 0.38483 0.30385 0.0
O212 O 0.93559 0.3939 0.33724 0.0
Zn213 Zn 0.19238 0.35919 0.32974 0.0
N214 N 0.10072 0.41381 0.34845 0.0
C215 C 0.22906 0.42625 0.37893 0.0
C216 C 0.18078 0.41231 0.36313 0.0
C217 C 0.06632 0.42897 0.34726 0.0
N218 N 0.19533 0.44127 0.37865 0.0
C219 C 0.11524 0.44317 0.36299 0.0
O220 O 0.12983 0.36866 0.26146 0.0
C221 C 0.07165 0.37786 0.23721 0.0
O222 O 0.03429 0.38634 0.25998 0.0
H223 H 0.20706 0.40029 0.36302 0.0
H224 H 1.00245 0.42989 0.33532 0.0
C225 C 0.18683 0.32288 0.31669 0.0
C226 C 0.14996 0.30725 0.31471 0.0
C227 C 0.04734 0.32031 0.33567 0.0
C228 C 0.08374 0.33565 0.33739 0.0
N229 N 0.15259 0.3367 0.32804 0.0
N230 N 0.08104 0.30655 0.32432 0.0
H231 H 0.2406 0.3242 0.30822 0.0
C232 C 0.90072 0.38022 0.33859 0.0
O233 O 0.93744 0.36625 0.33737 0.0
O234 O 0.3088 0.35952 0.33777 0.0
H235 H 0.0569 0.34673 0.34569 0.0
H236 H 0.29289 0.42516 0.39129 0.0
H237 H 0.99243 0.31933 0.34297 0.0
Zn238 Zn 0.78522 0.36987 0.75168 0.0
C239 C 0.85601 0.40413 0.67215 0.0
N240 N 0.78126 0.40276 0.63907 0.0
C241 C 0.74728 0.39235 0.66265 0.0
N242 N 0.7986 0.38747 0.70844 0.0
N243 N 0.86603 0.39535 0.71506 0.0
C244 C 0.0955 0.38275 0.76948 0.0
O245 O 0.06616 0.36919 0.78208 0.0
O246 O 0.66976 0.36753 0.74142 0.0
Zn247 Zn 0.95593 0.39781 0.77828 0.0
N248 N 0.8268 0.34924 0.73474 0.0
C249 C 0.91885 0.3364 0.70293 0.0
C250 C 0.88418 0.35063 0.714 0.0
C251 C 0.80235 0.33404 0.7449 0.0
N252 N 0.89486 0.32126 0.71314 0.0
C253 C 0.83724 0.31952 0.73376 0.0
O254 O 0.96278 0.38196 0.83629 0.0
C255 C 0.91199 0.37668 0.85482 0.0
O256 O 0.83986 0.37421 0.82694 0.0
H257 H 0.90347 0.36272 0.70666 0.0
H258 H 0.75783 0.33339 0.7625 0.0
C259 C 0.96848 0.43404 0.78431 0.0
C260 C 0.96759 0.4496 0.80768 0.0
C261 C 0.93113 0.43613 0.87147 0.0
C262 C 0.9317 0.42086 0.84821 0.0
N263 N 0.95114 0.41999 0.80551 0.0
N264 N 0.94913 0.45006 0.85083 0.0
H265 H 0.98394 0.43304 0.75039 0.0
C266 C 0.63483 0.38079 0.74607 0.0
O267 O 0.67538 0.39478 0.75658 0.0
O268 O 0.05821 0.39634 0.76544 0.0
H269 H 0.91722 0.40978 0.86456 0.0
H270 H 0.96487 0.33736 0.68662 0.0
H271 H 0.91635 0.43694 0.90567 0.0
H272 H 0.56915 0.10251 0.65088 0.0
H273 H 0.4519 0.15285 0.39202 0.0
H274 H 0.63266 0.15407 0.64623 0.0
H275 H 0.51342 0.101 0.39516 0.0
H276 H 0.49697 0.15303 0.48531 0.0
H277 H 0.52829 0.10115 0.55705 0.0
C278 C 0.57437 0.11353 0.6302 0.0
C279 C 0.60445 0.12843 0.6565 0.0
C280 C 0.50072 0.14162 0.46561 0.0
C281 C 0.55681 0.12699 0.54952 0.0
C282 C 0.47471 0.14147 0.41233 0.0
C283 C 0.47898 0.12688 0.38566 0.0
C284 C 0.52972 0.12699 0.49275 0.0
C285 C 0.50951 0.11253 0.41421 0.0
C286 C 0.55149 0.11271 0.5768 0.0
C287 C 0.61022 0.1423 0.6277 0.0
N288 N 0.53304 0.11289 0.46628 0.0
N289 N 0.5859 0.14129 0.57588 0.0
H290 H 0.34867 0.86224 0.38738 0.0
H291 H 0.68059 0.86132 0.66638 0.0
H292 H 0.59518 0.87278 0.41432 0.0
H293 H 0.43749 0.87449 0.64035 0.0
H294 H 0.64864 0.85945 0.57396 0.0
H295 H 0.37963 0.86077 0.47978 0.0
C296 C 0.40958 0.86402 0.41263 0.0
C297 C 0.46949 0.86764 0.39287 0.0
C298 C 0.60222 0.86261 0.58854 0.0
C299 C 0.50508 0.86588 0.4989 0.0
C300 C 0.6201 0.86356 0.64135 0.0
C301 C 0.56156 0.86807 0.6614 0.0
C302 C 0.52489 0.8659 0.55525 0.0
C303 C 0.48451 0.87099 0.62674 0.0
C304 C 0.42695 0.86329 0.4654 0.0
C305 C 0.5471 0.87 0.42773 0.0
N306 N 0.46837 0.86982 0.5754 0.0
N307 N 0.5627 0.86902 0.479 0.0
H308 H 0.9729 0.60538 0.87521 0.0
H309 H 0.09284 0.6573 0.13412 0.0
H310 H 0.91793 0.65746 0.87764 0.0
H311 H 0.02255 0.6058 0.12805 0.0
H312 H 0.05057 0.65732 0.04061 0.0
H313 H 1.01339 0.60495 0.96897 0.0
C314 C 0.96971 0.61672 0.89543 0.0
C315 C 0.9418 0.63147 0.86855 0.0
C316 C 0.04425 0.64604 0.05981 0.0
C317 C 0.98897 0.63109 0.97545 0.0
C318 C 0.0685 0.64599 0.11311 0.0
C319 C 0.06082 0.63154 0.13891 0.0
C320 C 1.01392 0.63142 0.03205 0.0
C321 C 0.02883 0.61725 0.10967 0.0
C322 C 0.99236 0.61644 0.94878 0.0
C323 C 0.93858 0.64579 0.89673 0.0
N324 N 1.00725 0.61749 0.05781 0.0
N325 N 0.9625 0.64528 0.94859 0.0
H326 H 0.06226 0.37505 0.92592 0.0
H327 H 0.92789 0.38736 0.16687 0.0
H328 H 0.81611 0.37607 0.91216 0.0
H329 H 0.15848 0.36901 0.17876 0.0
H330 H 0.88774 0.38641 0.07331 0.0
H331 H 0.10058 0.37554 1.01895 0.0
C332 C 0.01623 0.37525 0.94244 0.0
C333 C 0.93582 0.37545 0.91112 0.0
C334 C 0.94707 0.38259 0.09655 0.0
C335 C 0.9794 0.37631 1.01768 0.0
C336 C 0.97016 0.38324 0.14987 0.0
C337 C 0.04656 0.37821 0.18071 0.0
C338 C 1.00119 0.37714 0.07402 0.0
C339 C 0.0988 0.3729 0.15657 0.0
C340 C 0.03817 0.37554 0.99556 0.0
C341 C 0.87879 0.37577 0.93477 0.0
N342 N 0.07527 0.37256 0.10478 0.0
N343 N 0.90168 0.37633 0.98663 0.0
H344 H 0.48682 0.95509 0.19298 0.0
H345 H 0.55383 0.04921 0.29197 0.0
H346 H 0.55085 0.97023 0.35068 0.0
H347 H 0.42525 0.03447 0.13593 0.0
H348 H 0.59466 0.02026 0.31213 0.0
H349 H 0.5055 0.98387 0.17075 0.0
C350 C 0.50715 0.96435 0.22312 0.0
C351 C 0.51654 0.96034 0.27367 0.0
C352 C 0.55916 0.02346 0.27318 0.0
C353 C 0.53719 0.99321 0.24854 0.0
C354 C 0.5365 0.04 0.26158 0.0
C355 C 0.48549 0.04417 0.21233 0.0
C356 C 0.53079 0.0111 0.23519 0.0
C357 C 0.46389 0.0317 0.17454 0.0
C358 C 0.51723 0.98079 0.21039 0.0
C359 C 0.54202 0.97288 0.31113 0.0
N360 N 0.48578 0.01569 0.18687 0.0
N361 N 0.55062 0.98877 0.29776 0.0
H362 H 0.58679 0.95913 0.86393 0.0
H363 H 0.50915 0.05259 0.7632 0.0
H364 H 0.46846 0.97271 0.70632 0.0
H365 H 0.67396 0.03882 0.91153 0.0
H366 H 0.46158 0.02378 0.74915 0.0
H367 H 0.58617 0.98847 0.88856 0.0
C368 C 0.5584 0.96819 0.83474 0.0
C369 C 0.52823 0.96355 0.78298 0.0
C370 C 0.50703 0.02715 0.78521 0.0
C371 C 0.52832 0.99704 0.81063 0.0
C372 C 0.53375 0.04364 0.79341 0.0
C373 C 0.59621 0.04809 0.83842 0.0
C374 C 0.54289 0.01506 0.8223 0.0
C375 C 0.62646 0.03587 0.87595 0.0
C376 C 0.55869 0.98495 0.84871 0.0
C377 C 0.49307 0.97583 0.74662 0.0
N378 N 0.60021 0.0199 0.86685 0.0
N379 N 0.49488 0.99201 0.76102 0.0
H380 H 1.01034 0.55487 0.7818 0.0
H381 H 0.93068 0.45871 0.70668 0.0
H382 H 0.86765 0.53691 0.63157 0.0
H383 H 0.03807 0.47719 0.86119 0.0
H384 H 0.93613 0.48686 0.67513 0.0
H385 H 0.04996 0.52624 0.8074 0.0
C386 C 0.98907 0.54499 0.75376 0.0
C387 C 0.93502 0.54829 0.70456 0.0
C388 C 0.95974 0.48468 0.71592 0.0
C389 C 0.97894 0.51547 0.73388 0.0
C390 C 0.95722 0.46856 0.73395 0.0
C391 C 0.9833 0.4656 0.78673 0.0
C392 C 0.98861 0.49788 0.7509 0.0
C393 C 0.01622 0.47896 0.8202 0.0
C394 C 1.01113 0.52861 0.76853 0.0
C395 C 0.90861 0.53491 0.67011 0.0
N396 N 0.01721 0.4945 0.80179 0.0
N397 N 0.93007 0.5191 0.68554 0.0
H398 H 0.97402 0.54482 0.26648 0.0
H399 H 0.99128 0.45831 0.28781 0.0
H400 H 0.19885 0.54253 0.3905 0.0
H401 H 0.17224 0.46703 0.43527 0.0
H402 H 0.96713 0.48826 0.27914 0.0
H403 H 0.94742 0.51585 0.28333 0.0
C404 C 0.01676 0.53831 0.29803 0.0
C405 C 0.08889 0.54594 0.32703 0.0
C406 C 1.01017 0.48366 0.31422 0.0
C407 C 0.06059 0.5128 0.34562 0.0
C408 C 0.0238 0.46649 0.31916 0.0
C409 C 0.08431 0.46023 0.36214 0.0
C410 C 0.05753 0.49454 0.35269 0.0
C411 C 0.12565 0.47137 0.40124 0.0
C412 C 1.00224 0.52169 0.30718 0.0
C413 C 0.14276 0.53701 0.36711 0.0
N414 N 0.11234 0.48794 0.39524 0.0
N415 N 0.12775 0.52093 0.37496 0.0
H416 H 0.80715 0.16949 0.97982 0.0
H417 H 0.16062 0.13383 0.14664 0.0
H418 H 0.90754 0.13618 0.89864 0.0
H419 H 0.26645 0.16425 0.06178 0.0
H420 H 0.02947 0.14339 0.092 0.0
H421 H 0.94121 0.1753 0.04112 0.0
C422 C 0.85782 0.1643 0.97285 0.0
C423 C 0.84672 0.15287 0.93272 0.0
C424 C 0.08179 0.14861 0.08709 0.0
C425 C 0.99861 0.15934 1.00242 0.0
C426 C 0.1567 0.14348 0.11918 0.0
C427 C 0.22456 0.14895 0.1105 0.0
C428 C 0.07506 0.1586 0.0448 0.0
C429 C 0.21532 0.16012 0.07036 0.0
C430 C 0.93378 0.1675 1.00804 0.0
C431 C 0.91382 0.14587 0.92669 0.0
N432 N 0.14168 0.16417 0.03781 0.0
N433 N 0.98709 0.14906 0.96161 0.0
H434 H 0.15113 0.88711 0.16135 0.0
H435 H 0.78019 0.86562 0.99164 0.0
H436 H 0.24146 0.86252 0.05654 0.0
H437 H 0.89418 0.88852 0.89684 0.0
H438 H 0.911 0.85783 0.05266 0.0
H439 H 0.01592 0.88019 0.10518 0.0
C440 C 0.14248 0.87931 0.12818 0.0
C441 C 0.20704 0.87453 0.11482 0.0
C442 C 0.90677 0.86393 1.01736 0.0
C443 C 0.05353 0.86801 0.04819 0.0
C444 C 0.83267 0.86829 0.98257 0.0
C445 C 0.8269 0.87729 0.93862 0.0
C446 C 0.97502 0.86862 1.00777 0.0
C447 C 0.89621 0.88094 0.92906 0.0
C448 C 0.06548 0.87563 0.09563 0.0
C449 C 0.19271 0.86594 0.06862 0.0
N450 N 0.96788 0.87666 0.96366 0.0
N451 N 0.11717 0.86334 0.0361 0.0
H452 H 0.73455 0.66994 0.54411 0.0
H453 H 0.3844 0.63267 0.38009 0.0
H454 H 0.63959 0.63653 0.62762 0.0
H455 H 0.27578 0.66106 0.46806 0.0
H456 H 0.51425 0.64345 0.43404 0.0
H457 H 0.59907 0.67506 0.48436 0.0
C458 C 0.68481 0.66459 0.55192 0.0
C459 C 0.69775 0.65335 0.59228 0.0
C460 C 0.46148 0.64798 0.43983 0.0
C461 C 0.54435 0.65907 0.52449 0.0
C462 C 0.38729 0.64216 0.40817 0.0
C463 C 0.3191 0.64679 0.41765 0.0
C464 C 0.46739 0.65773 0.48276 0.0
C465 C 0.32716 0.65762 0.45877 0.0
C466 C 0.60804 0.66742 0.51768 0.0
C467 C 0.63184 0.64613 0.59947 0.0
N468 N 0.4004 0.66233 0.49096 0.0
N469 N 0.55777 0.64896 0.56548 0.0
H470 H 0.29318 0.34301 0.51043 0.0
H471 H 0.62124 0.4101 0.60823 0.0
H472 H 0.32512 0.38232 0.41554 0.0
H473 H 0.69432 0.35977 0.65196 0.0
H474 H 0.49686 0.39964 0.54691 0.0
H475 H 0.43082 0.34736 0.56907 0.0
C476 C 0.33053 0.35191 0.50052 0.0
C477 C 0.29871 0.36203 0.45737 0.0
C478 C 0.53975 0.39086 0.57025 0.0
C479 C 0.45288 0.36757 0.5249 0.0
C480 C 0.61008 0.39682 0.60564 0.0
C481 C 0.66723 0.38578 0.63552 0.0
C482 C 0.52606 0.37369 0.56464 0.0
C483 C 0.65057 0.36866 0.63035 0.0
C484 C 0.40844 0.35448 0.53415 0.0
C485 C 0.34822 0.37379 0.44705 0.0
N486 N 0.58083 0.36305 0.59537 0.0
N487 N 0.42228 0.37649 0.48115 0.0
H488 H 0.522 0.13152 0.89366 0.0
H489 H 0.34536 0.09928 0.05675 0.0
H490 H 0.72777 0.10443 0.98549 0.0
H491 H 0.54479 0.12945 0.14496 0.0
H492 H 0.41393 0.0927 0.99713 0.0
H493 H 0.44998 0.12127 0.94697 0.0
C494 C 0.54984 0.12237 0.92246 0.0
C495 C 0.62904 0.118 0.93327 0.0
C496 C 0.44422 0.09996 0.03126 0.0
C497 C 0.55063 0.10776 0.99784 0.0
C498 C 0.4057 0.10362 0.06537 0.0
C499 C 0.44107 0.11442 0.10687 0.0
C500 C 0.51868 0.10705 0.03928 0.0
C501 C 0.5178 0.12031 0.11538 0.0
C502 C 0.50959 0.11686 0.95381 0.0
C503 C 0.66584 0.10767 0.97527 0.0
N504 N 0.55394 0.11668 0.08145 0.0
N505 N 0.62717 0.10334 1.0072 0.0
H506 H 0.63397 0.92862 0.94793 0.0
H507 H 0.5005 0.8755 0.1353 0.0
H508 H 0.53154 0.87977 0.90863 0.0
H509 H 0.41029 0.92541 0.11115 0.0
H510 H 0.55385 0.87921 0.06694 0.0
H511 H 0.57833 0.9303 1.01655 0.0
C512 C 0.59619 0.91864 0.95199 0.0
C513 C 0.58603 0.90415 0.922 0.0
C514 C 0.52452 0.88953 0.07774 0.0
C515 C 0.52826 0.90547 1.00238 0.0
C516 C 0.49635 0.88761 0.11785 0.0
C517 C 0.45275 0.90031 0.12979 0.0
C518 C 0.50971 0.90434 0.04974 0.0
C519 C 0.44515 0.91546 0.10373 0.0
C520 C 0.56605 0.91947 0.99174 0.0
C521 C 0.5392 0.8913 0.93006 0.0
N522 N 0.47281 0.91706 0.06447 0.0
N523 N 0.51408 0.89204 0.97047 0.0
H524 H 0.18839 0.59568 0.46304 0.0
H525 H 0.02419 0.6324 0.62981 0.0
H526 H 1.0016 0.62896 0.38021 0.0
H527 H 0.81481 0.60513 0.54084 0.0
H528 H 0.09288 0.62146 0.57511 0.0
H529 H 0.11951 0.59049 0.52334 0.0
C530 C 0.13017 0.60097 0.45545 0.0
C531 C 0.09865 0.61223 0.41519 0.0
C532 C 0.03316 0.61721 0.56922 0.0
C533 C 0.02077 0.60645 0.4837 0.0
C534 C 0.99476 0.62312 0.60129 0.0
C535 C 0.91546 0.61891 0.59164 0.0
C536 C 0.99033 0.60778 0.52579 0.0
C537 C 0.87684 0.60828 0.55018 0.0
C538 C 0.0916 0.59812 0.49006 0.0
C539 C 0.02497 0.61938 0.40832 0.0
N540 N 0.9138 0.6035 0.51763 0.0
N541 N 0.9888 0.61652 0.44267 0.0
H542 H 0.09829 0.41022 0.45172 0.0
H543 H 0.97269 0.38273 0.67835 0.0
H544 H 1.00495 0.36197 0.46654 0.0
H545 H 0.87142 0.42904 0.60991 0.0
H546 H 0.03436 0.37953 0.61491 0.0
H547 H 0.04624 0.42126 0.51626 0.0
C548 C 0.06351 0.40219 0.46673 0.0
C549 C 0.05448 0.38525 0.45362 0.0
C550 C 1.00095 0.39071 0.6148 0.0
C551 C 1.00053 0.39736 0.52865 0.0
C552 C 0.96799 0.39285 0.6523 0.0
C553 C 0.91893 0.40643 0.65067 0.0
C554 C 0.98347 0.40206 0.5746 0.0
C555 C 0.91004 0.41852 0.61288 0.0
C556 C 0.03529 0.4084 0.504 0.0
C557 C 1.01208 0.37514 0.4754 0.0
N558 N 0.94077 0.41591 0.5754 0.0
N559 N 0.98804 0.38126 0.51263 0.0
H560 H 0.44906 0.22681 0.28395 0.0
H561 H 0.06729 0.27925 0.27224 0.0
H562 H 0.21108 0.20664 0.23136 0.0
H563 H 0.30599 0.29905 0.32926 0.0
H564 H 0.11887 0.25277 0.25573 0.0
H565 H 0.39751 0.25341 0.29967 0.0
C566 C 0.38591 0.22793 0.27583 0.0
C567 C 0.33457 0.21434 0.25662 0.0
C568 C 0.15997 0.26292 0.27164 0.0
C569 C 0.27501 0.24494 0.27448 0.0
C570 C 0.13062 0.27809 0.28116 0.0
C571 C 0.18214 0.29154 0.30197 0.0
C572 C 0.24175 0.26105 0.28315 0.0
C573 C 0.26357 0.28923 0.31238 0.0
C574 C 0.35658 0.24316 0.28491 0.0
C575 C 0.25336 0.21659 0.24708 0.0
N576 N 0.2908 0.27426 0.30298 0.0
N577 N 0.22615 0.23161 0.256 0.0
H578 H 0.83588 0.214 0.80079 0.0
H579 H 0.69305 0.30822 0.73604 0.0
H580 H 0.59427 0.23046 0.76479 0.0
H581 H 0.92882 0.29162 0.75359 0.0
H582 H 0.65832 0.27984 0.7504 0.0
H583 H 0.87282 0.24224 0.78566 0.0
C584 C 0.79025 0.22338 0.78913 0.0
C585 C 0.71146 0.21964 0.78393 0.0
C586 C 0.7178 0.28241 0.7513 0.0
C587 C 0.75415 0.2522 0.76761 0.0
C588 C 0.73801 0.29871 0.74359 0.0
C589 C 0.81446 0.30246 0.74414 0.0
C590 C 0.77426 0.26969 0.7597 0.0
C591 C 0.86913 0.28936 0.75273 0.0
C592 C 0.81167 0.23959 0.78088 0.0
C593 C 0.65585 0.23262 0.76973 0.0
N594 N 0.84809 0.27361 0.76028 0.0
N595 N 0.67824 0.24822 0.76226 0.0
H596 H 0.71487 0.78415 0.89399 0.0
H597 H 0.8235 0.73439 0.68043 0.0
H598 H 0.72295 0.80666 0.75588 0.0
H599 H 0.77151 0.71017 0.80232 0.0
H600 H 0.78745 0.76098 0.70803 0.0
H601 H 0.73671 0.7571 0.86185 0.0
C602 C 0.72137 0.78351 0.85699 0.0
C603 C 0.71821 0.79798 0.82827 0.0
C604 C 0.78308 0.74985 0.72849 0.0
C605 C 0.74338 0.76677 0.79118 0.0
C606 C 0.80371 0.73464 0.71276 0.0
C607 C 0.80037 0.71998 0.73897 0.0
C608 C 0.75988 0.75055 0.77133 0.0
C609 C 0.77406 0.72108 0.78052 0.0
C610 C 0.73376 0.76798 0.83866 0.0
C611 C 0.72698 0.79615 0.78048 0.0
N612 N 0.75555 0.73614 0.79571 0.0
N613 N 0.73947 0.78088 0.76368 0.0
H614 H 0.31498 0.80345 0.29464 0.0
H615 H 0.25381 0.70634 0.22664 0.0
H616 H 0.342 0.78151 0.1604 0.0
H617 H 0.20326 0.7296 0.35116 0.0
H618 H 0.29661 0.73331 0.20559 0.0
H619 H 0.28181 0.77618 0.31858 0.0
C620 C 0.31297 0.79302 0.26965 0.0
C621 C 0.32995 0.79499 0.22465 0.0
C622 C 0.27662 0.73247 0.23773 0.0
C623 C 0.29384 0.76343 0.25302 0.0
C624 C 0.25287 0.71701 0.25014 0.0
C625 C 0.22517 0.71561 0.29103 0.0
C626 C 0.27277 0.74664 0.26637 0.0
C627 C 0.22371 0.73005 0.31917 0.0
C628 C 0.29472 0.77734 0.28376 0.0
C629 C 0.32912 0.78069 0.19528 0.0
N630 N 0.24698 0.74491 0.3063 0.0
N631 N 0.31119 0.76557 0.20987 0.0
H632 H 0.68588 0.1312 0.19836 0.0
H633 H 0.14672 0.10736 0.30348 0.0
H634 H 0.79158 0.09637 0.32003 0.0
H635 H 0.05712 0.14953 0.20566 0.0
H636 H 1.01429 0.10216 0.30465 0.0
H637 H 0.81776 0.137 0.19513 0.0
C638 C 0.73656 0.1247 0.22421 0.0
C639 C 0.72724 0.11322 0.25947 0.0
C640 C 0.02329 0.11259 0.28298 0.0
C641 C 0.87867 0.11987 0.25599 0.0
C642 C 0.09915 0.11557 0.28218 0.0
C643 C 0.11348 0.12895 0.25454 0.0
C644 C 0.96023 0.12295 0.25555 0.0
C645 C 0.04903 0.13913 0.22776 0.0
C646 C 0.81197 0.1281 0.2225 0.0
C647 C 0.79552 0.10532 0.29227 0.0
N648 N 0.97515 0.13589 0.22877 0.0
N649 N 0.86793 0.10875 0.28961 0.0
H650 H 0.35552 0.10495 0.81624 0.0
H651 H 0.99145 0.16438 0.803 0.0
H652 H 0.34597 0.15671 0.77512 0.0
H653 H 0.97622 0.11084 0.80028 0.0
H654 H 0.1275 0.1623 0.80307 0.0
H655 H 0.22247 0.10735 0.82065 0.0
C656 C 0.32556 0.11681 0.80809 0.0
C657 C 0.36204 0.1306 0.79485 0.0
C658 C 0.0943 0.15102 0.80252 0.0
C659 C 0.20966 0.13349 0.80041 0.0
C660 C 0.01669 0.1522 0.80264 0.0
C661 C 0.97189 0.13778 0.80131 0.0
C662 C 0.12792 0.1353 0.80176 0.0
C663 C 1.00802 0.12233 0.80093 0.0
C664 C 0.2495 0.11817 0.8106 0.0
C665 C 0.3202 0.14569 0.78508 0.0
N666 N 0.08363 0.12151 0.80125 0.0
N667 N 0.24658 0.14673 0.78815 0.0
H668 H 0.34998 0.88195 0.85025 0.0
H669 H 0.88342 0.89923 0.72903 0.0
H670 H 0.23747 0.90873 0.70996 0.0
H671 H 0.98574 0.86489 0.85278 0.0
H672 H 0.01494 0.90445 0.72616 0.0
H673 H 0.21937 0.87727 0.85661 0.0
C674 C 0.29793 0.8869 0.8209 0.0
C675 C 0.30466 0.89569 0.77936 0.0
C676 C 1.0088 0.89575 0.75393 0.0
C677 C 0.1553 0.89039 0.78648 0.0
C678 C 0.9336 0.89277 0.75565 0.0
C679 C 0.92344 0.88155 0.79108 0.0
C680 C 0.07479 0.88755 0.7881 0.0
C681 C 0.99081 0.87356 0.82463 0.0
C682 C 0.22342 0.88417 0.82449 0.0
C683 C 0.23521 0.90183 0.74253 0.0
N684 N 0.06373 0.87674 0.82238 0.0
N685 N 0.16359 0.89906 0.74697 0.0
H686 H 0.72982 0.90341 0.26044 0.0
H687 H 0.06171 0.84997 0.20182 0.0
H688 H 0.69427 0.85208 0.21164 0.0
H689 H 0.11071 0.89538 0.29071 0.0
H690 H 0.92241 0.85183 0.19456 0.0
H691 H 0.86504 0.90204 0.26036 0.0
C692 C 0.75027 0.89187 0.24943 0.0
C693 C 0.70082 0.87779 0.23645 0.0
C694 C 0.96382 0.86135 0.2157 0.0
C695 C 0.85573 0.87615 0.23623 0.0
C696 C 0.04328 0.8603 0.21988 0.0
C697 C 0.09811 0.87246 0.2473 0.0
C698 C 0.93898 0.87474 0.23865 0.0
C699 C 0.07075 0.88565 0.26954 0.0
C700 C 0.82762 0.89108 0.24958 0.0
C701 C 0.73057 0.86319 0.22233 0.0
N702 N 0.99318 0.88644 0.26467 0.0
N703 N 0.80618 0.86274 0.22265 0.0
H704 H 0.19068 0.65811 0.74364 0.0
H705 H 0.56995 0.60974 0.73037 0.0
H706 H 0.18956 0.60541 0.71419 0.0
H707 H 0.54786 0.66307 0.71932 0.0
H708 H 0.43421 0.60784 0.72968 0.0
H709 H 0.32412 0.66007 0.74028 0.0
C710 C 0.21845 0.64691 0.73657 0.0
C711 C 0.17858 0.63153 0.72943 0.0
C712 C 0.45885 0.61996 0.72724 0.0
C713 C 0.33235 0.63373 0.72569 0.0
C714 C 0.53663 0.62108 0.72778 0.0
C715 C 0.57084 0.63661 0.72505 0.0
C716 C 0.41465 0.63449 0.72459 0.0
C717 C 0.52417 0.65084 0.7215 0.0
C718 C 0.29472 0.64807 0.73447 0.0
C719 C 0.21785 0.61751 0.72008 0.0
N720 N 0.44883 0.64944 0.72172 0.0
N721 N 0.29256 0.61893 0.71878 0.0
H722 H 0.43209 0.60689 0.26343 0.0
H723 H 0.82808 0.65518 0.27943 0.0
H724 H 0.46763 0.65921 0.29923 0.0
H725 H 0.81471 0.60177 0.28719 0.0
H726 H 0.69388 0.65708 0.2815 0.0
H727 H 0.56902 0.60497 0.26673 0.0
C728 C 0.4686 0.61801 0.27193 0.0
C729 C 0.43787 0.63327 0.28078 0.0
C730 C 0.72034 0.64494 0.28291 0.0
C731 C 0.59538 0.63112 0.2844 0.0
C732 C 0.79698 0.64382 0.28155 0.0
C733 C 0.83284 0.62826 0.28289 0.0
C734 C 0.67841 0.6304 0.28499 0.0
C735 C 0.78954 0.61402 0.28599 0.0
C736 C 0.54703 0.61687 0.274 0.0
C737 C 0.48855 0.6472 0.29199 0.0
N738 N 0.71451 0.61542 0.28655 0.0
N739 N 0.56453 0.64581 0.29312 0.0
H740 H 0.45103 0.34837 0.3561 0.0
H741 H 0.79725 0.40616 0.32845 0.0
H742 H 0.41536 0.39914 0.30418 0.0
H743 H 0.8193 0.35323 0.35332 0.0
H744 H 0.66115 0.40456 0.32796 0.0
H745 H 0.59019 0.35064 0.36361 0.0
C746 C 0.47242 0.36 0.34635 0.0
C747 C 0.42119 0.37354 0.32912 0.0
C748 C 0.69591 0.39331 0.33362 0.0
C749 C 0.58062 0.37626 0.33787 0.0
C750 C 0.77367 0.39422 0.33403 0.0
C751 C 0.81961 0.37979 0.34054 0.0
C752 C 0.66404 0.37787 0.34015 0.0
C753 C 0.78595 0.36467 0.34775 0.0
C754 C 0.55189 0.36129 0.35061 0.0
C755 C 0.45245 0.38833 0.31728 0.0
N756 N 0.71034 0.3641 0.34729 0.0
N757 N 0.53 0.38929 0.32183 0.0
H758 H 0.53857 0.35368 0.73844 0.0
H759 H 0.17184 0.40856 0.74316 0.0
H760 H 0.53956 0.40732 0.74305 0.0
H761 H 0.18888 0.35576 0.77141 0.0
H762 H 0.29851 0.40778 0.73003 0.0
H763 H 0.40216 0.35375 0.73742 0.0
C764 C 0.50996 0.36546 0.7389 0.0
C765 C 0.55076 0.38052 0.74152 0.0
C766 C 0.27447 0.39635 0.73898 0.0
C767 C 0.39509 0.38067 0.7402 0.0
C768 C 0.20213 0.39679 0.74651 0.0
C769 C 0.17026 0.38223 0.75911 0.0
C770 C 0.31523 0.38126 0.74389 0.0
C771 C 0.21172 0.3673 0.76231 0.0
C772 C 0.43224 0.36549 0.73843 0.0
C773 C 0.51069 0.39542 0.74167 0.0
N774 N 0.28233 0.36721 0.75499 0.0
N775 N 0.43521 0.39511 0.74126 0.0
loop_
_geom_bond_atom_site_label_1
_geom_bond_atom_site_label_2
_geom_bond_distance
_geom_bond_site_symmetry_2
_ccdc_geom_bond_type
Zn0 N4 2.020 . S
Zn0 O8 2.019 . S
Zn0 N10 2.119 . S
Zn0 O18 1.975 . S
C1 N2 1.334 . S
C1 N5 1.336 . S
N2 C1 1.334 . S
N2 C3 1.334 . S
C3 N2 1.334 . S
C3 N4 1.336 . S
N4 Zn0 2.020 . S
N4 C3 1.336 . S
N4 N5 1.354 . S
N5 C1 1.336 . S
N5 N4 1.354 . S
N5 Zn9 2.020 . S
C6 O7 1.244 . S
C6 O30 1.257 . S
O7 C6 1.244 . S
O8 Zn0 2.019 . S
O8 C28 1.257 . S
Zn9 N5 2.020 . S
Zn9 O16 1.975 . S
Zn9 N25 2.119 . S
Zn9 O30 2.019 . S
N10 Zn0 2.119 . S
N10 C12 1.334 . S
N10 C13 1.328 . S
C11 C12 1.391 . S
C11 N14 1.329 . S
C11 H32 0.930 . S
C12 N10 1.334 . S
C12 C11 1.391 . S
C12 H19 0.930 . S
C13 N10 1.328 . S
C13 C15 1.392 . S
C13 H20 0.930 . S
N14 C11 1.329 . S
N14 C15 1.331 . S
C15 C13 1.392 . S
C15 N14 1.331 . S
O16 Zn9 1.975 . S
O16 C17 1.252 . S
C17 O16 1.252 . S
C17 O18 1.252 . S
O18 Zn0 1.975 . S
O18 C17 1.252 . S
H19 C12 0.930 . S
H20 C13 0.930 . S
C21 C22 1.392 . S
C21 N25 1.328 . S
C21 H27 0.930 . S
C22 C21 1.392 . S
C22 N26 1.331 . S
C23 C24 1.391 . S
C23 N26 1.329 . S
C23 H33 0.930 . S
C24 C23 1.391 . S
C24 N25 1.334 . S
C24 H31 0.930 . S
N25 Zn9 2.119 . S
N25 C21 1.328 . S
N25 C24 1.334 . S
N26 C22 1.331 . S
N26 C23 1.329 . S
H27 C21 0.930 . S
C28 O8 1.257 . S
C28 O29 1.244 . S
O29 C28 1.244 . S
O30 C6 1.257 . S
O30 Zn9 2.019 . S
H31 C24 0.930 . S
H32 C11 0.930 . S
H33 C23 0.930 . S
Zn34 N38 2.020 . S
Zn34 O42 2.019 . S
Zn34 N44 2.119 . S
Zn34 O52 1.975 . S
C35 N36 1.334 . S
C35 N39 1.336 . S
N36 C35 1.334 . S
N36 C37 1.334 . S
C37 N36 1.334 . S
C37 N38 1.336 . S
N38 Zn34 2.020 . S
N38 C37 1.336 . S
N38 N39 1.354 . S
N39 C35 1.336 . S
N39 N38 1.354 . S
N39 Zn43 2.020 . S
C40 O41 1.244 . S
C40 O64 1.257 . S
O41 C40 1.244 . S
O42 Zn34 2.019 . S
O42 C62 1.257 . S
Zn43 N39 2.020 . S
Zn43 O50 1.975 . S
Zn43 N59 2.119 . S
Zn43 O64 2.019 . S
N44 Zn34 2.119 . S
N44 C46 1.334 . S
N44 C47 1.328 . S
C45 C46 1.391 . S
C45 N48 1.329 . S
C45 H66 0.930 . S
C46 N44 1.334 . S
C46 C45 1.391 . S
C46 H53 0.930 . S
C47 N44 1.328 . S
C47 C49 1.392 . S
C47 H54 0.930 . S
N48 C45 1.329 . S
N48 C49 1.331 . S
C49 C47 1.392 . S
C49 N48 1.331 . S
O50 Zn43 1.975 . S
O50 C51 1.252 . S
C51 O50 1.252 . S
C51 O52 1.252 . S
O52 Zn34 1.975 . S
O52 C51 1.252 . S
H53 C46 0.930 . S
H54 C47 0.930 . S
C55 C56 1.392 . S
C55 N59 1.328 . S
C55 H61 0.930 . S
C56 C55 1.392 . S
C56 N60 1.331 . S
C57 C58 1.391 . S
C57 N60 1.329 . S
C57 H67 0.930 . S
C58 C57 1.391 . S
C58 N59 1.334 . S
C58 H65 0.930 . S
N59 Zn43 2.119 . S
N59 C55 1.328 . S
N59 C58 1.334 . S
N60 C56 1.331 . S
N60 C57 1.329 . S
H61 C55 0.930 . S
C62 O42 1.257 . S
C62 O63 1.244 . S
O63 C62 1.244 . S
O64 C40 1.257 . S
O64 Zn43 2.019 . S
H65 C58 0.930 . S
H66 C45 0.930 . S
H67 C57 0.930 . S
Zn68 N72 2.020 . S
Zn68 O76 2.019 . S
Zn68 N78 2.119 . S
Zn68 O86 1.975 . S
C69 N70 1.334 . S
C69 N73 1.336 . S
N70 C69 1.334 . S
N70 C71 1.334 . S
C71 N70 1.334 . S
C71 N72 1.336 . S
N72 Zn68 2.020 . S
N72 C71 1.336 . S
N72 N73 1.354 . S
N73 C69 1.336 . S
N73 N72 1.354 . S
N73 Zn77 2.020 . S
C74 O75 1.244 . S
C74 O98 1.257 . S
O75 C74 1.244 . S
O76 Zn68 2.019 . S
O76 C96 1.257 . S
Zn77 N73 2.020 . S
Zn77 O84 1.975 . S
Zn77 N93 2.119 . S
Zn77 O98 2.019 . S
N78 Zn68 2.119 . S
N78 C80 1.334 . S
N78 C81 1.328 . S
C79 C80 1.391 . S
C79 N82 1.329 . S
C79 H100 0.930 . S
C80 N78 1.334 . S
C80 C79 1.391 . S
C80 H87 0.930 . S
C81 N78 1.328 . S
C81 C83 1.392 . S
C81 H88 0.930 . S
N82 C79 1.329 . S
N82 C83 1.331 . S
C83 C81 1.392 . S
C83 N82 1.331 . S
O84 Zn77 1.975 . S
O84 C85 1.252 . S
C85 O84 1.252 . S
C85 O86 1.252 . S
O86 Zn68 1.975 . S
O86 C85 1.252 . S
H87 C80 0.930 . S
H88 C81 0.930 . S
C89 C90 1.392 . S
C89 N93 1.328 . S
C89 H95 0.930 . S
C90 C89 1.392 . S
C90 N94 1.331 . S
C91 C92 1.391 . S
C91 N94 1.329 . S
C91 H101 0.930 . S
C92 C91 1.391 . S
C92 N93 1.334 . S
C92 H99 0.930 . S
N93 Zn77 2.119 . S
N93 C89 1.328 . S
N93 C92 1.334 . S
N94 C90 1.331 . S
N94 C91 1.329 . S
H95 C89 0.930 . S
C96 O76 1.257 . S
C96 O97 1.244 . S
O97 C96 1.244 . S
O98 C74 1.257 . S
O98 Zn77 2.019 . S
H99 C92 0.930 . S
H100 C79 0.930 . S
H101 C91 0.930 . S
Zn102 N106 2.020 . S
Zn102 O110 2.019 . S
Zn102 N112 2.119 . S
Zn102 O120 1.975 . S
C103 N104 1.334 . S
C103 N107 1.336 . S
N104 C103 1.334 . S
N104 C105 1.334 . S
C105 N104 1.334 . S
C105 N106 1.336 . S
N106 Zn102 2.020 . S
N106 C105 1.336 . S
N106 N107 1.354 . S
N107 C103 1.336 . S
N107 N106 1.354 . S
N107 Zn111 2.020 . S
C108 O109 1.244 . S
C108 O132 1.257 . S
O109 C108 1.244 . S
O110 Zn102 2.019 . S
O110 C130 1.257 . S
Zn111 N107 2.020 . S
Zn111 O118 1.975 . S
Zn111 N127 2.119 . S
Zn111 O132 2.019 . S
N112 Zn102 2.119 . S
N112 C114 1.334 . S
N112 C115 1.328 . S
C113 C114 1.391 . S
C113 N116 1.329 . S
C113 H134 0.930 . S
C114 N112 1.334 . S
C114 C113 1.391 . S
C114 H121 0.930 . S
C115 N112 1.328 . S
C115 C117 1.392 . S
C115 H122 0.930 . S
N116 C113 1.329 . S
N116 C117 1.331 . S
C117 C115 1.392 . S
C117 N116 1.331 . S
O118 Zn111 1.975 . S
O118 C119 1.252 . S
C119 O118 1.252 . S
C119 O120 1.252 . S
O120 Zn102 1.975 . S
O120 C119 1.252 . S
H121 C114 0.930 . S
H122 C115 0.930 . S
C123 C124 1.392 . S
C123 N127 1.328 . S
C123 H129 0.930 . S
C124 C123 1.392 . S
C124 N128 1.331 . S
C125 C126 1.391 . S
C125 N128 1.329 . S
C125 H135 0.930 . S
C126 C125 1.391 . S
C126 N127 1.334 . S
C126 H133 0.930 . S
N127 Zn111 2.119 . S
N127 C123 1.328 . S
N127 C126 1.334 . S
N128 C124 1.331 . S
N128 C125 1.329 . S
H129 C123 0.930 . S
C130 O110 1.257 . S
C130 O131 1.244 . S
O131 C130 1.244 . S
O132 C108 1.257 . S
O132 Zn111 2.019 . S
H133 C126 0.930 . S
H134 C113 0.930 . S
H135 C125 0.930 . S
Zn136 N140 2.020 . S
Zn136 O144 2.019 . S
Zn136 N146 2.119 . S
Zn136 O154 1.975 . S
C137 N138 1.334 . S
C137 N141 1.336 . S
N138 C137 1.334 . S
N138 C139 1.334 . S
C139 N138 1.334 . S
C139 N140 1.336 . S
N140 Zn136 2.020 . S
N140 C139 1.336 . S
N140 N141 1.354 . S
N141 C137 1.336 . S
N141 N140 1.354 . S
N141 Zn145 2.020 . S
C142 O143 1.244 . S
C142 O166 1.257 . S
O143 C142 1.244 . S
O144 Zn136 2.019 . S
O144 C164 1.257 . S
Zn145 N141 2.020 . S
Zn145 O152 1.975 . S
Zn145 N161 2.119 . S
Zn145 O166 2.019 1_655 S
N146 Zn136 2.119 . S
N146 C148 1.334 . S
N146 C149 1.328 . S
C147 C148 1.391 . S
C147 N150 1.329 . S
C147 H168 0.930 . S
C148 N146 1.334 . S
C148 C147 1.391 . S
C148 H155 0.930 . S
C149 N146 1.328 . S
C149 C151 1.392 . S
C149 H156 0.930 . S
N150 C147 1.329 . S
N150 C151 1.331 . S
C151 C149 1.392 . S
C151 N150 1.331 . S
O152 Zn145 1.975 . S
O152 C153 1.252 . S
C153 O152 1.252 . S
C153 O154 1.252 . S
O154 Zn136 1.975 . S
O154 C153 1.252 . S
H155 C148 0.930 . S
H156 C149 0.930 . S
C157 C158 1.388 1_455 S
C157 N161 1.328 1_455 S
C157 H163 0.930 . S
C158 C157 1.388 1_655 S
C158 N162 1.345 . S
C159 C160 1.391 . S
C159 N162 1.329 . S
C159 H169 0.930 . S
C160 C159 1.391 . S
C160 N161 1.334 . S
C160 H167 0.930 . S
N161 Zn145 2.119 . S
N161 C157 1.328 1_655 S
N161 C160 1.334 . S
N162 C158 1.345 . S
N162 C159 1.329 . S
H163 C157 0.930 . S
C164 O144 1.257 . S
C164 O165 1.244 . S
O165 C164 1.244 . S
O166 C142 1.257 . S
O166 Zn145 2.019 1_455 S
H167 C160 0.930 . S
H168 C147 0.930 . S
H169 C159 0.930 . S
Zn170 N174 2.020 . S
Zn170 O178 2.019 . S
Zn170 N180 2.119 . S
Zn170 O188 1.975 . S
C171 N172 1.334 . S
C171 N175 1.336 . S
N172 C171 1.334 . S
N172 C173 1.334 . S
C173 N172 1.334 . S
C173 N174 1.336 . S
N174 Zn170 2.020 . S
N174 C173 1.336 . S
N174 N175 1.354 . S
N175 C171 1.336 . S
N175 N174 1.354 . S
N175 Zn179 2.020 . S
C176 O177 1.244 . S
C176 O200 1.257 . S
O177 C176 1.244 . S
O178 Zn170 2.019 . S
O178 C198 1.257 . S
Zn179 N175 2.020 . S
Zn179 O186 1.975 . S
Zn179 N195 2.119 . S
Zn179 O200 2.019 1_455 S
N180 Zn170 2.119 . S
N180 C182 1.334 . S
N180 C183 1.328 . S
C181 C182 1.391 . S
C181 N184 1.329 . S
C181 H202 0.930 . S
C182 N180 1.334 . S
C182 C181 1.391 . S
C182 H189 0.930 . S
C183 N180 1.328 . S
C183 C185 1.392 . S
C183 H190 0.930 . S
N184 C181 1.329 . S
N184 C185 1.331 . S
C185 C183 1.392 . S
C185 N184 1.331 . S
O186 Zn179 1.975 . S
O186 C187 1.252 . S
C187 O186 1.252 . S
C187 O188 1.252 . S
O188 Zn170 1.975 . S
O188 C187 1.252 . S
H189 C182 0.930 . S
H190 C183 0.930 . S
C191 C192 1.388 1_655 S
C191 N195 1.328 1_655 S
C191 H197 0.930 . S
C192 C191 1.388 1_455 S
C192 N196 1.345 . S
C193 C194 1.391 . S
C193 N196 1.329 . S
C193 H203 0.930 . S
C194 C193 1.391 . S
C194 N195 1.334 . S
C194 H201 0.930 . S
N195 Zn179 2.119 . S
N195 C191 1.328 1_455 S
N195 C194 1.334 . S
N196 C192 1.345 . S
N196 C193 1.329 . S
H197 C191 0.930 . S
C198 O178 1.257 . S
C198 O199 1.244 . S
O199 C198 1.244 . S
O200 C176 1.257 . S
O200 Zn179 2.019 1_655 S
H201 C194 0.930 . S
H202 C181 0.930 . S
H203 C193 0.930 . S
Zn204 N208 2.020 . S
Zn204 O212 2.019 1_455 S
Zn204 N214 2.119 . S
Zn204 O222 1.975 . S
C205 N206 1.334 . S
C205 N209 1.336 . S
N206 C205 1.334 . S
N206 C207 1.334 . S
C207 N206 1.334 . S
C207 N208 1.336 . S
N208 Zn204 2.020 . S
N208 C207 1.336 . S
N208 N209 1.354 . S
N209 C205 1.336 . S
N209 N208 1.354 . S
N209 Zn213 2.020 . S
C210 O211 1.244 . S
C210 O234 1.257 . S
O211 C210 1.244 . S
O212 Zn204 2.019 1_655 S
O212 C232 1.257 . S
Zn213 N209 2.020 . S
Zn213 O220 1.975 . S
Zn213 N229 2.119 . S
Zn213 O234 2.019 . S
N214 Zn204 2.119 . S
N214 C216 1.334 . S
N214 C217 1.328 1_455 S
C215 C216 1.391 . S
C215 N218 1.329 . S
C215 H236 0.930 . S
C216 N214 1.334 . S
C216 C215 1.391 . S
C216 H223 0.930 . S
C217 N214 1.328 1_655 S
C217 C219 1.388 1_655 S
C217 H224 0.930 . S
N218 C215 1.329 . S
N218 C219 1.345 . S
C219 C217 1.388 1_455 S
C219 N218 1.345 . S
O220 Zn213 1.975 . S
O220 C221 1.252 . S
C221 O220 1.252 . S
C221 O222 1.252 . S
O222 Zn204 1.975 . S
O222 C221 1.252 . S
H223 C216 0.930 . S
H224 C217 0.930 . S
C225 C226 1.392 . S
C225 N229 1.328 . S
C225 H231 0.930 . S
C226 C225 1.392 . S
C226 N230 1.331 . S
C227 C228 1.391 . S
C227 N230 1.329 . S
C227 H237 0.930 . S
C228 C227 1.391 . S
C228 N229 1.334 . S
C228 H235 0.930 . S
N229 Zn213 2.119 . S
N229 C225 1.328 . S
N229 C228 1.334 . S
N230 C226 1.331 . S
N230 C227 1.329 . S
H231 C225 0.930 . S
C232 O212 1.257 . S
C232 O233 1.244 . S
O233 C232 1.244 . S
O234 C210 1.257 . S
O234 Zn213 2.019 . S
H235 C228 0.930 . S
H236 C215 0.930 . S
H237 C227 0.930 . S
Zn238 N242 2.020 . S
Zn238 O246 2.019 . S
Zn238 N248 2.119 . S
Zn238 O256 1.975 . S
C239 N240 1.334 . S
C239 N243 1.336 . S
N240 C239 1.334 . S
N240 C241 1.334 . S
C241 N240 1.334 . S
C241 N242 1.336 . S
N242 Zn238 2.020 . S
N242 C241 1.336 . S
N242 N243 1.354 . S
N243 C239 1.336 . S
N243 N242 1.354 . S
N243 Zn247 2.020 . S
C244 O245 1.244 . S
C244 O268 1.257 . S
O245 C244 1.244 . S
O246 Zn238 2.019 . S
O246 C266 1.257 . S
Zn247 N243 2.020 . S
Zn247 O254 1.975 . S
Zn247 N263 2.119 . S
Zn247 O268 2.019 1_655 S
N248 Zn238 2.119 . S
N248 C250 1.334 . S
N248 C251 1.328 . S
C249 C250 1.391 . S
C249 N252 1.329 . S
C249 H270 0.930 . S
C250 N248 1.334 . S
C250 C249 1.391 . S
C250 H257 0.930 . S
C251 N248 1.328 . S
C251 C253 1.392 . S
C251 H258 0.930 . S
N252 C249 1.329 . S
N252 C253 1.331 . S
C253 C251 1.392 . S
C253 N252 1.331 . S
O254 Zn247 1.975 . S
O254 C255 1.252 . S
C255 O254 1.252 . S
C255 O256 1.252 . S
O256 Zn238 1.975 . S
O256 C255 1.252 . S
H257 C250 0.930 . S
H258 C251 0.930 . S
C259 C260 1.388 1_455 S
C259 N263 1.328 1_455 S
C259 H265 0.930 . S
C260 C259 1.388 1_655 S
C260 N264 1.345 . S
C261 C262 1.391 . S
C261 N264 1.329 . S
C261 H271 0.930 . S
C262 C261 1.391 . S
C262 N263 1.334 . S
C262 H269 0.930 . S
N263 Zn247 2.119 . S
N263 C259 1.328 1_655 S
N263 C262 1.334 . S
N264 C260 1.345 . S
N264 C261 1.329 . S
H265 C259 0.930 . S
C266 O246 1.257 . S
C266 O267 1.244 . S
O267 C266 1.244 . S
O268 C244 1.257 . S
O268 Zn247 2.019 1_455 S
H269 C262 0.930 . S
H270 C249 0.930 . S
H271 C261 0.930 . S
H272 C278 0.930 . S
H273 C282 0.930 . S
H274 C287 0.929 . S
H275 C285 0.929 . S
H276 C280 0.929 . S
H277 C286 0.929 . S
C278 H272 0.930 . S
C278 C279 1.367 . S
C278 C286 1.378 . S
C279 C278 1.367 . S
C279 C287 1.433 . S
C280 H276 0.929 . S
C280 C282 1.378 . S
C280 C284 1.350 . S
C281 C284 1.463 . S
C281 C286 1.350 . S
C281 N289 1.427 . S
C282 H273 0.930 . S
C282 C280 1.378 . S
C282 C283 1.367 . S
C283 C282 1.367 . S
C283 C285 1.433 . S
C284 C280 1.350 . S
C284 C281 1.463 . S
C284 N288 1.427 . S
C285 H275 0.929 . S
C285 C283 1.433 . S
C285 N288 1.384 . S
C286 H277 0.929 . S
C286 C278 1.378 . S
C286 C281 1.350 . S
C287 H274 0.929 . S
C287 C279 1.433 . S
C287 N289 1.384 . S
N288 C284 1.427 . S
N288 C285 1.384 . S
N289 C281 1.427 . S
N289 C287 1.384 . S
H290 C296 0.930 . S
H291 C300 0.930 . S
H292 C305 0.929 . S
H293 C303 0.929 . S
H294 C298 0.929 . S
H295 C304 0.929 . S
C296 H290 0.930 . S
C296 C297 1.367 . S
C296 C304 1.378 . S
C297 C296 1.367 . S
C297 C305 1.433 . S
C298 H294 0.929 . S
C298 C300 1.378 . S
C298 C302 1.350 . S
C299 C302 1.463 . S
C299 C304 1.350 . S
C299 N307 1.427 . S
C300 H291 0.930 . S
C300 C298 1.378 . S
C300 C301 1.367 . S
C301 C300 1.367 . S
C301 C303 1.433 . S
C302 C298 1.350 . S
C302 C299 1.463 . S
C302 N306 1.427 . S
C303 H293 0.929 . S
C303 C301 1.433 . S
C303 N306 1.384 . S
C304 H295 0.929 . S
C304 C296 1.378 . S
C304 C299 1.350 . S
C305 H292 0.929 . S
C305 C297 1.433 . S
C305 N307 1.384 . S
N306 C302 1.427 . S
N306 C303 1.384 . S
N307 C299 1.427 . S
N307 C305 1.384 . S
H308 C314 0.930 . S
H309 C318 0.930 . S
H310 C323 0.929 . S
H311 C321 0.929 . S
H312 C316 0.929 . S
H313 C322 0.929 . S
C314 H308 0.930 . S
C314 C315 1.367 . S
C314 C322 1.378 . S
C315 C314 1.367 . S
C315 C323 1.433 . S
C316 H312 0.929 . S
C316 C318 1.378 . S
C316 C320 1.350 . S
C317 C320 1.463 1_656 S
C317 C322 1.350 . S
C317 N325 1.427 1_655 S
C318 H309 0.930 . S
C318 C316 1.378 . S
C318 C319 1.367 . S
C319 C318 1.367 . S
C319 C321 1.433 . S
C320 C316 1.350 . S
C320 C317 1.463 1_454 S
C320 N324 1.427 1_455 S
C321 H311 0.929 . S
C321 C319 1.433 . S
C321 N324 1.384 1_455 S
C322 H313 0.929 . S
C322 C314 1.378 . S
C322 C317 1.350 . S
C323 H310 0.929 . S
C323 C315 1.433 . S
C323 N325 1.384 1_655 S
N324 C320 1.427 1_655 S
N324 C321 1.384 1_655 S
N325 C317 1.427 1_455 S
N325 C323 1.384 1_455 S
H326 C332 0.930 . S
H327 C336 0.930 . S
H328 C341 0.929 . S
H329 C339 0.929 . S
H330 C334 0.929 . S
H331 C340 0.929 . S
C332 H326 0.930 . S
C332 C333 1.367 1_455 S
C332 C340 1.378 . S
C333 C332 1.367 1_655 S
C333 C341 1.433 . S
C334 H330 0.929 . S
C334 C336 1.378 . S
C334 C338 1.350 1_655 S
C335 C338 1.463 1_656 S
C335 C340 1.350 1_655 S
C335 N343 1.427 . S
C336 H327 0.930 . S
C336 C334 1.378 . S
C336 C337 1.367 1_655 S
C337 C336 1.367 1_455 S
C337 C339 1.433 . S
C338 C334 1.350 1_455 S
C338 C335 1.463 1_454 S
C338 N342 1.427 . S
C339 H329 0.929 . S
C339 C337 1.433 . S
C339 N342 1.384 . S
C340 H331 0.929 . S
C340 C332 1.378 . S
C340 C335 1.350 1_455 S
C341 H328 0.929 . S
C341 C333 1.433 . S
C341 N343 1.384 . S
N342 C338 1.427 . S
N342 C339 1.384 . S
N343 C335 1.427 . S
N343 C341 1.384 . S
H344 C350 0.930 . S
H345 C354 0.930 . S
H346 C359 0.929 . S
H347 C357 0.929 . S
H348 C352 0.929 . S
H349 C358 0.929 . S
C350 H344 0.930 . S
C350 C351 1.367 . S
C350 C358 1.378 . S
C351 C350 1.367 . S
C351 C359 1.433 . S
C352 H348 0.929 . S
C352 C354 1.378 . S
C352 C356 1.350 . S
C353 C356 1.463 1_565 S
C353 C358 1.350 . S
C353 N361 1.427 . S
C354 H345 0.930 . S
C354 C352 1.378 . S
C354 C355 1.367 . S
C355 C354 1.367 . S
C355 C357 1.433 . S
C356 C352 1.350 . S
C356 C353 1.463 1_545 S
C356 N360 1.427 . S
C357 H347 0.929 . S
C357 C355 1.433 . S
C357 N360 1.384 . S
C358 H349 0.929 . S
C358 C350 1.378 . S
C358 C353 1.350 . S
C359 H346 0.929 . S
C359 C351 1.433 . S
C359 N361 1.384 . S
N360 C356 1.427 . S
N360 C357 1.384 . S
N361 C353 1.427 . S
N361 C359 1.384 . S
H362 C368 0.930 . S
H363 C372 0.930 . S
H364 C377 0.929 . S
H365 C375 0.929 . S
H366 C370 0.929 . S
H367 C376 0.929 . S
C368 H362 0.930 . S
C368 C369 1.367 . S
C368 C376 1.378 . S
C369 C368 1.367 . S
C369 C377 1.433 . S
C370 H366 0.929 . S
C370 C372 1.378 . S
C370 C374 1.350 . S
C371 C374 1.463 1_565 S
C371 C376 1.350 . S
C371 N379 1.427 . S
C372 H363 0.930 . S
C372 C370 1.378 . S
C372 C373 1.367 . S
C373 C372 1.367 . S
C373 C375 1.433 . S
C374 C370 1.350 . S
C374 C371 1.463 1_545 S
C374 N378 1.427 . S
C375 H365 0.929 . S
C375 C373 1.433 . S
C375 N378 1.384 . S
C376 H367 0.929 . S
C376 C368 1.378 . S
C376 C371 1.350 . S
C377 H364 0.929 . S
C377 C369 1.433 . S
C377 N379 1.384 . S
N378 C374 1.427 . S
N378 C375 1.384 . S
N379 C371 1.427 . S
N379 C377 1.384 . S
H380 C386 0.936 . S
H381 C390 0.930 . S
H382 C395 0.929 . S
H383 C393 0.929 . S
H384 C388 0.929 . S
H385 C394 0.934 . S
C386 H380 0.936 . S
C386 C387 1.361 1_655 S
C386 C394 1.378 . S
C387 C386 1.361 1_455 S
C387 C395 1.433 . S
C388 H384 0.929 . S
C388 C390 1.378 . S
C388 C392 1.350 . S
C389 C392 1.463 . S
C389 C394 1.344 1_455 S
C389 N397 1.427 . S
C390 H381 0.930 . S
C390 C388 1.378 . S
C390 C391 1.367 . S
C391 C390 1.367 . S
C391 C393 1.433 1_455 S
C392 C388 1.350 . S
C392 C389 1.463 . S
C392 N396 1.420 1_455 S
C393 H383 0.929 . S
C393 C391 1.433 1_655 S
C393 N396 1.384 . S
C394 H385 0.934 . S
C394 C386 1.378 . S
C394 C389 1.344 1_655 S
C395 H382 0.929 . S
C395 C387 1.433 . S
C395 N397 1.384 . S
N396 C392 1.420 1_655 S
N396 C393 1.384 . S
N397 C389 1.427 . S
N397 C395 1.384 . S
H398 C404 0.930 . S
H399 C408 0.930 . S
H400 C413 0.929 . S
H401 C411 0.929 . S
H402 C406 0.929 . S
H403 C412 0.929 . S
C404 H398 0.930 . S
C404 C405 1.367 1_455 S
C404 C412 1.378 . S
C405 C404 1.367 1_655 S
C405 C413 1.433 . S
C406 H402 0.929 . S
C406 C408 1.378 . S
C406 C410 1.350 . S
C407 C410 1.463 . S
C407 C412 1.350 1_655 S
C407 N415 1.427 . S
C408 H399 0.930 . S
C408 C406 1.378 . S
C408 C409 1.367 . S
C409 C408 1.367 . S
C409 C411 1.433 1_655 S
C410 C406 1.350 . S
C410 C407 1.463 . S
C410 N414 1.427 1_655 S
C411 H401 0.929 . S
C411 C409 1.433 1_455 S
C411 N414 1.384 . S
C412 H403 0.929 . S
C412 C404 1.378 . S
C412 C407 1.350 1_455 S
C413 H400 0.929 . S
C413 C405 1.433 . S
C413 N415 1.384 . S
N414 C410 1.427 1_455 S
N414 C411 1.384 . S
N415 C407 1.427 . S
N415 C413 1.384 . S
H416 C422 0.930 . S
H417 C426 0.930 . S
H418 C431 0.929 . S
H419 C429 0.929 . S
H420 C424 0.929 . S
H421 C430 0.929 . S
C422 H416 0.930 . S
C422 C423 1.367 . S
C422 C430 1.378 . S
C423 C422 1.367 . S
C423 C431 1.433 . S
C424 H420 0.929 . S
C424 C426 1.378 . S
C424 C428 1.350 . S
C425 C428 1.463 1_656 S
C425 C430 1.350 . S
C425 N433 1.427 . S
C426 H417 0.930 . S
C426 C424 1.378 . S
C426 C427 1.367 . S
C427 C426 1.367 . S
C427 C429 1.433 . S
C428 C424 1.350 . S
C428 C425 1.463 1_454 S
C428 N432 1.427 . S
C429 H419 0.929 . S
C429 C427 1.433 . S
C429 N432 1.384 . S
C430 H421 0.929 . S
C430 C422 1.378 . S
C430 C425 1.350 . S
C431 H418 0.929 . S
C431 C423 1.433 . S
C431 N433 1.384 . S
N432 C428 1.427 . S
N432 C429 1.384 . S
N433 C425 1.427 . S
N433 C431 1.384 . S
H434 C440 0.930 . S
H435 C444 0.930 . S
H436 C449 0.929 . S
H437 C447 0.929 . S
H438 C442 0.929 . S
H439 C448 0.929 . S
C440 H434 0.930 . S
C440 C441 1.367 . S
C440 C448 1.378 . S
C441 C440 1.367 . S
C441 C449 1.433 . S
C442 H438 0.929 . S
C442 C444 1.378 . S
C442 C446 1.350 . S
C443 C446 1.463 1_454 S
C443 C448 1.350 . S
C443 N451 1.427 . S
C444 H435 0.930 . S
C444 C442 1.378 . S
C444 C445 1.367 . S
C445 C444 1.367 . S
C445 C447 1.433 . S
C446 C442 1.350 . S
C446 C443 1.463 1_656 S
C446 N450 1.427 . S
C447 H437 0.929 . S
C447 C445 1.433 . S
C447 N450 1.384 . S
C448 H439 0.929 . S
C448 C440 1.378 . S
C448 C443 1.350 . S
C449 H436 0.929 . S
C449 C441 1.433 . S
C449 N451 1.384 . S
N450 C446 1.427 . S
N450 C447 1.384 . S
N451 C443 1.427 . S
N451 C449 1.384 . S
H452 C458 0.930 . S
H453 C462 0.930 . S
H454 C467 0.929 . S
H455 C465 0.929 . S
H456 C460 0.929 . S
H457 C466 0.929 . S
C458 H452 0.930 . S
C458 C459 1.367 . S
C458 C466 1.378 . S
C459 C458 1.367 . S
C459 C467 1.433 . S
C460 H456 0.929 . S
C460 C462 1.378 . S
C460 C464 1.350 . S
C461 C464 1.463 . S
C461 C466 1.350 . S
C461 N469 1.427 . S
C462 H453 0.930 . S
C462 C460 1.378 . S
C462 C463 1.367 . S
C463 C462 1.367 . S
C463 C465 1.433 . S
C464 C460 1.350 . S
C464 C461 1.463 . S
C464 N468 1.427 . S
C465 H455 0.929 . S
C465 C463 1.433 . S
C465 N468 1.384 . S
C466 H457 0.929 . S
C466 C458 1.378 . S
C466 C461 1.350 . S
C467 H454 0.929 . S
C467 C459 1.433 . S
C467 N469 1.384 . S
N468 C464 1.427 . S
N468 C465 1.384 . S
N469 C461 1.427 . S
N469 C467 1.384 . S
H470 C476 0.930 . S
H471 C480 0.930 . S
H472 C485 0.929 . S
H473 C483 0.929 . S
H474 C478 0.929 . S
H475 C484 0.929 . S
C476 H470 0.930 . S
C476 C477 1.367 . S
C476 C484 1.378 . S
C477 C476 1.367 . S
C477 C485 1.433 . S
C478 H474 0.929 . S
C478 C480 1.378 . S
C478 C482 1.350 . S
C479 C482 1.463 . S
C479 C484 1.350 . S
C479 N487 1.427 . S
C480 H471 0.930 . S
C480 C478 1.378 . S
C480 C481 1.367 . S
C481 C480 1.367 . S
C481 C483 1.433 . S
C482 C478 1.350 . S
C482 C479 1.463 . S
C482 N486 1.427 . S
C483 H473 0.929 . S
C483 C481 1.433 . S
C483 N486 1.384 . S
C484 H475 0.929 . S
C484 C476 1.378 . S
C484 C479 1.350 . S
C485 H472 0.929 . S
C485 C477 1.433 . S
C485 N487 1.384 . S
N486 C482 1.427 . S
N486 C483 1.384 . S
N487 C479 1.427 . S
N487 C485 1.384 . S
H488 C494 0.930 . S
H489 C498 0.930 . S
H490 C503 0.929 . S
H491 C501 0.929 . S
H492 C496 0.929 . S
H493 C502 0.929 . S
C494 H488 0.930 . S
C494 C495 1.367 . S
C494 C502 1.378 . S
C495 C494 1.367 . S
C495 C503 1.433 . S
C496 H492 0.929 . S
C496 C498 1.378 . S
C496 C500 1.350 . S
C497 C500 1.463 1_556 S
C497 C502 1.350 . S
C497 N505 1.427 . S
C498 H489 0.930 . S
C498 C496 1.378 . S
C498 C499 1.367 . S
C499 C498 1.367 . S
C499 C501 1.433 . S
C500 C496 1.350 . S
C500 C497 1.463 1_554 S
C500 N504 1.427 . S
C501 H491 0.929 . S
C501 C499 1.433 . S
C501 N504 1.384 . S
C502 H493 0.929 . S
C502 C494 1.378 . S
C502 C497 1.350 . S
C503 H490 0.929 . S
C503 C495 1.433 . S
C503 N505 1.384 . S
N504 C500 1.427 . S
N504 C501 1.384 . S
N505 C497 1.427 . S
N505 C503 1.384 . S
H506 C512 0.930 . S
H507 C516 0.930 . S
H508 C521 0.929 . S
H509 C519 0.929 . S
H510 C514 0.929 . S
H511 C520 0.929 . S
C512 H506 0.930 . S
C512 C513 1.367 . S
C512 C520 1.378 . S
C513 C512 1.367 . S
C513 C521 1.433 . S
C514 H510 0.929 . S
C514 C516 1.378 . S
C514 C518 1.350 . S
C515 C518 1.463 1_556 S
C515 C520 1.350 . S
C515 N523 1.427 . S
C516 H507 0.930 . S
C516 C514 1.378 . S
C516 C517 1.367 . S
C517 C516 1.367 . S
C517 C519 1.433 . S
C518 C514 1.350 . S
C518 C515 1.463 1_554 S
C518 N522 1.427 . S
C519 H509 0.929 . S
C519 C517 1.433 . S
C519 N522 1.384 . S
C520 H511 0.929 . S
C520 C512 1.378 . S
C520 C515 1.350 . S
C521 H508 0.929 . S
C521 C513 1.433 . S
C521 N523 1.384 . S
N522 C518 1.427 . S
N522 C519 1.384 . S
N523 C515 1.427 . S
N523 C521 1.384 . S
H524 C530 0.930 . S
H525 C534 0.930 . S
H526 C539 0.929 . S
H527 C537 0.929 . S
H528 C532 0.929 . S
H529 C538 0.929 . S
C530 H524 0.930 . S
C530 C531 1.367 . S
C530 C538 1.378 . S
C531 C530 1.367 . S
C531 C539 1.433 1_455 S
C532 H528 0.929 . S
C532 C534 1.378 . S
C532 C536 1.350 . S
C533 C536 1.463 1_455 S
C533 C538 1.350 . S
C533 N541 1.427 1_455 S
C534 H525 0.930 . S
C534 C532 1.378 . S
C534 C535 1.367 . S
C535 C534 1.367 . S
C535 C537 1.433 1_655 S
C536 C532 1.350 . S
C536 C533 1.463 1_655 S
C536 N540 1.427 1_655 S
C537 H527 0.929 . S
C537 C535 1.433 1_455 S
C537 N540 1.384 . S
C538 H529 0.929 . S
C538 C530 1.378 . S
C538 C533 1.350 . S
C539 H526 0.929 . S
C539 C531 1.433 1_655 S
C539 N541 1.384 . S
N540 C536 1.427 1_455 S
N540 C537 1.384 . S
N541 C533 1.427 1_655 S
N541 C539 1.384 . S
H542 C548 0.930 1_655 S
H543 C552 0.930 1_455 S
H544 C557 0.929 . S
H545 C555 0.929 . S
H546 C550 0.929 . S
H547 C556 0.929 . S
C548 H542 0.930 1_455 S
C548 C549 1.367 . S
C548 C556 1.378 1_455 S
C549 C548 1.367 . S
C549 C557 1.433 . S
C550 H546 0.929 . S
C550 C552 1.378 1_455 S
C550 C554 1.350 1_455 S
C551 C554 1.463 1_455 S
C551 C556 1.350 1_455 S
C551 N559 1.427 . S
C552 H543 0.930 1_655 S
C552 C550 1.378 1_655 S
C552 C553 1.367 . S
C553 C552 1.367 . S
C553 C555 1.433 . S
C554 C550 1.350 1_655 S
C554 C551 1.463 1_655 S
C554 N558 1.427 . S
C555 H545 0.929 . S
C555 C553 1.433 . S
C555 N558 1.384 . S
C556 H547 0.929 . S
C556 C548 1.378 1_655 S
C556 C551 1.350 1_655 S
C557 H544 0.929 . S
C557 C549 1.433 . S
C557 N559 1.384 . S
N558 C554 1.427 . S
N558 C555 1.384 . S
N559 C551 1.427 . S
N559 C557 1.384 . S
H560 C566 0.930 . S
H561 C570 0.930 . S
H562 C575 0.929 . S
H563 C573 0.929 . S
H564 C568 0.929 . S
H565 C574 0.929 . S
C566 H560 0.930 . S
C566 C567 1.367 . S
C566 C574 1.378 . S
C567 C566 1.367 . S
C567 C575 1.433 . S
C568 H564 0.929 . S
C568 C570 1.378 . S
C568 C572 1.350 . S
C569 C572 1.463 . S
C569 C574 1.350 . S
C569 N577 1.427 . S
C570 H561 0.930 . S
C570 C568 1.378 . S
C570 C571 1.367 . S
C571 C570 1.367 . S
C571 C573 1.433 . S
C572 C568 1.350 . S
C572 C569 1.463 . S
C572 N576 1.427 . S
C573 H563 0.929 . S
C573 C571 1.433 . S
C573 N576 1.384 . S
C574 H565 0.929 . S
C574 C566 1.378 . S
C574 C569 1.350 . S
C575 H562 0.929 . S
C575 C567 1.433 . S
C575 N577 1.384 . S
N576 C572 1.427 . S
N576 C573 1.384 . S
N577 C569 1.427 . S
N577 C575 1.384 . S
H578 C584 0.930 . S
H579 C588 0.930 . S
H580 C593 0.929 . S
H581 C591 0.929 . S
H582 C586 0.929 . S
H583 C592 0.929 . S
C584 H578 0.930 . S
C584 C585 1.367 . S
C584 C592 1.378 . S
C585 C584 1.367 . S
C585 C593 1.433 . S
C586 H582 0.929 . S
C586 C588 1.378 . S
C586 C590 1.350 . S
C587 C590 1.463 . S
C587 C592 1.350 . S
C587 N595 1.427 . S
C588 H579 0.930 . S
C588 C586 1.378 . S
C588 C589 1.367 . S
C589 C588 1.367 . S
C589 C591 1.433 . S
C590 C586 1.350 . S
C590 C587 1.463 . S
C590 N594 1.427 . S
C591 H581 0.929 . S
C591 C589 1.433 . S
C591 N594 1.384 . S
C592 H583 0.929 . S
C592 C584 1.378 . S
C592 C587 1.350 . S
C593 H580 0.929 . S
C593 C585 1.433 . S
C593 N595 1.384 . S
N594 C590 1.427 . S
N594 C591 1.384 . S
N595 C587 1.427 . S
N595 C593 1.384 . S
H596 C602 0.930 . S
H597 C606 0.930 . S
H598 C611 0.929 . S
H599 C609 0.929 . S
H600 C604 0.929 . S
H601 C610 0.929 . S
C602 H596 0.930 . S
C602 C603 1.367 . S
C602 C610 1.378 . S
C603 C602 1.367 . S
C603 C611 1.433 . S
C604 H600 0.929 . S
C604 C606 1.378 . S
C604 C608 1.350 . S
C605 C608 1.463 . S
C605 C610 1.350 . S
C605 N613 1.427 . S
C606 H597 0.930 . S
C606 C604 1.378 . S
C606 C607 1.367 . S
C607 C606 1.367 . S
C607 C609 1.433 . S
C608 C604 1.350 . S
C608 C605 1.463 . S
C608 N612 1.427 . S
C609 H599 0.929 . S
C609 C607 1.433 . S
C609 N612 1.384 . S
C610 H601 0.929 . S
C610 C602 1.378 . S
C610 C605 1.350 . S
C611 H598 0.929 . S
C611 C603 1.433 . S
C611 N613 1.384 . S
N612 C608 1.427 . S
N612 C609 1.384 . S
N613 C605 1.427 . S
N613 C611 1.384 . S
H614 C620 0.930 . S
H615 C624 0.930 . S
H616 C629 0.929 . S
H617 C627 0.929 . S
H618 C622 0.929 . S
H619 C628 0.929 . S
C620 H614 0.930 . S
C620 C621 1.367 . S
C620 C628 1.378 . S
C621 C620 1.367 . S
C621 C629 1.433 . S
C622 H618 0.929 . S
C622 C624 1.378 . S
C622 C626 1.350 . S
C623 C626 1.463 . S
C623 C628 1.350 . S
C623 N631 1.427 . S
C624 H615 0.930 . S
C624 C622 1.378 . S
C624 C625 1.367 . S
C625 C624 1.367 . S
C625 C627 1.433 . S
C626 C622 1.350 . S
C626 C623 1.463 . S
C626 N630 1.427 . S
C627 H617 0.929 . S
C627 C625 1.433 . S
C627 N630 1.384 . S
C628 H619 0.929 . S
C628 C620 1.378 . S
C628 C623 1.350 . S
C629 H616 0.929 . S
C629 C621 1.433 . S
C629 N631 1.384 . S
N630 C626 1.427 . S
N630 C627 1.384 . S
N631 C623 1.427 . S
N631 C629 1.384 . S
H632 C638 0.930 . S
H633 C642 0.930 . S
H634 C647 0.929 . S
H635 C645 0.929 . S
H636 C640 0.929 . S
H637 C646 0.929 . S
C638 H632 0.930 . S
C638 C639 1.367 . S
C638 C646 1.378 . S
C639 C638 1.367 . S
C639 C647 1.433 . S
C640 H636 0.929 . S
C640 C642 1.378 . S
C640 C644 1.350 1_455 S
C641 C644 1.463 . S
C641 C646 1.350 . S
C641 N649 1.427 . S
C642 H633 0.930 . S
C642 C640 1.378 . S
C642 C643 1.367 . S
C643 C642 1.367 . S
C643 C645 1.433 . S
C644 C640 1.350 1_655 S
C644 C641 1.463 . S
C644 N648 1.427 . S
C645 H635 0.929 . S
C645 C643 1.433 . S
C645 N648 1.384 1_455 S
C646 H637 0.929 . S
C646 C638 1.378 . S
C646 C641 1.350 . S
C647 H634 0.929 . S
C647 C639 1.433 . S
C647 N649 1.384 . S
N648 C644 1.427 . S
N648 C645 1.384 1_655 S
N649 C641 1.427 . S
N649 C647 1.384 . S
H650 C656 0.930 . S
H651 C660 0.930 . S
H652 C665 0.929 . S
H653 C663 0.929 . S
H654 C658 0.929 . S
H655 C664 0.929 . S
C656 H650 0.930 . S
C656 C657 1.367 . S
C656 C664 1.378 . S
C657 C656 1.367 . S
C657 C665 1.433 . S
C658 H654 0.929 . S
C658 C660 1.378 1_455 S
C658 C662 1.350 . S
C659 C662 1.463 . S
C659 C664 1.350 . S
C659 N667 1.427 . S
C660 H651 0.930 . S
C660 C658 1.378 1_655 S
C660 C661 1.367 . S
C661 C660 1.367 . S
C661 C663 1.433 . S
C662 C658 1.350 . S
C662 C659 1.463 . S
C662 N666 1.427 1_455 S
C663 H653 0.929 . S
C663 C661 1.433 . S
C663 N666 1.384 . S
C664 H655 0.929 . S
C664 C656 1.378 . S
C664 C659 1.350 . S
C665 H652 0.929 . S
C665 C657 1.433 . S
C665 N667 1.384 . S
N666 C662 1.427 1_655 S
N666 C663 1.384 . S
N667 C659 1.427 . S
N667 C665 1.384 . S
H668 C674 0.930 . S
H669 C678 0.930 . S
H670 C683 0.929 . S
H671 C681 0.929 . S
H672 C676 0.925 1_455 S
H673 C682 0.929 . S
C674 H668 0.930 . S
C674 C675 1.367 . S
C674 C682 1.378 . S
C675 C674 1.367 . S
C675 C683 1.433 . S
C676 H672 0.925 1_655 S
C676 C678 1.378 . S
C676 C680 1.350 1_655 S
C677 C680 1.463 . S
C677 C682 1.350 . S
C677 N685 1.427 . S
C678 H669 0.930 . S
C678 C676 1.378 . S
C678 C679 1.367 . S
C679 C678 1.367 . S
C679 C681 1.433 . S
C680 C676 1.350 1_455 S
C680 C677 1.463 . S
C680 N684 1.427 . S
C681 H671 0.929 . S
C681 C679 1.433 . S
C681 N684 1.384 1_655 S
C682 H673 0.929 . S
C682 C674 1.378 . S
C682 C677 1.350 . S
C683 H670 0.929 . S
C683 C675 1.433 . S
C683 N685 1.384 . S
N684 C680 1.427 . S
N684 C681 1.384 1_455 S
N685 C677 1.427 . S
N685 C683 1.384 . S
H686 C692 0.930 . S
H687 C696 0.930 . S
H688 C701 0.929 . S
H689 C699 0.929 . S
H690 C694 0.929 . S
H691 C700 0.929 . S
C692 H686 0.930 . S
C692 C693 1.367 . S
C692 C700 1.378 . S
C693 C692 1.367 . S
C693 C701 1.433 . S
C694 H690 0.929 . S
C694 C696 1.378 1_655 S
C694 C698 1.350 . S
C695 C698 1.463 . S
C695 C700 1.350 . S
C695 N703 1.427 . S
C696 H687 0.930 . S
C696 C694 1.378 1_455 S
C696 C697 1.367 . S
C697 C696 1.367 . S
C697 C699 1.433 . S
C698 C694 1.350 . S
C698 C695 1.463 . S
C698 N702 1.427 1_655 S
C699 H689 0.929 . S
C699 C697 1.433 . S
C699 N702 1.384 . S
C700 H691 0.929 . S
C700 C692 1.378 . S
C700 C695 1.350 . S
C701 H688 0.929 . S
C701 C693 1.433 . S
C701 N703 1.384 . S
N702 C698 1.427 1_455 S
N702 C699 1.384 . S
N703 C695 1.427 . S
N703 C701 1.384 . S
H704 C710 0.930 . S
H705 C714 0.930 . S
H706 C719 0.929 . S
H707 C717 0.929 . S
H708 C712 0.929 . S
H709 C718 0.929 . S
C710 H704 0.930 . S
C710 C711 1.367 . S
C710 C718 1.378 . S
C711 C710 1.367 . S
C711 C719 1.433 . S
C712 H708 0.929 . S
C712 C714 1.378 . S
C712 C716 1.350 . S
C713 C716 1.463 . S
C713 C718 1.350 . S
C713 N721 1.427 . S
C714 H705 0.930 . S
C714 C712 1.378 . S
C714 C715 1.367 . S
C715 C714 1.367 . S
C715 C717 1.433 . S
C716 C712 1.350 . S
C716 C713 1.463 . S
C716 N720 1.427 . S
C717 H707 0.929 . S
C717 C715 1.433 . S
C717 N720 1.384 . S
C718 H709 0.929 . S
C718 C710 1.378 . S
C718 C713 1.350 . S
C719 H706 0.929 . S
C719 C711 1.433 . S
C719 N721 1.384 . S
N720 C716 1.427 . S
N720 C717 1.384 . S
N721 C713 1.427 . S
N721 C719 1.384 . S
H722 C728 0.930 . S
H723 C732 0.930 . S
H724 C737 0.929 . S
H725 C735 0.929 . S
H726 C730 0.929 . S
H727 C736 0.929 . S
C728 H722 0.930 . S
C728 C729 1.367 . S
C728 C736 1.378 . S
C729 C728 1.367 . S
C729 C737 1.433 . S
C730 H726 0.929 . S
C730 C732 1.378 . S
C730 C734 1.350 . S
C731 C734 1.463 . S
C731 C736 1.350 . S
C731 N739 1.427 . S
C732 H723 0.930 . S
C732 C730 1.378 . S
C732 C733 1.367 . S
C733 C732 1.367 . S
C733 C735 1.433 . S
C734 C730 1.350 . S
C734 C731 1.463 . S
C734 N738 1.427 . S
C735 H725 0.929 . S
C735 C733 1.433 . S
C735 N738 1.384 . S
C736 H727 0.929 . S
C736 C728 1.378 . S
C736 C731 1.350 . S
C737 H724 0.929 . S
C737 C729 1.433 . S
C737 N739 1.384 . S
N738 C734 1.427 . S
N738 C735 1.384 . S
N739 C731 1.427 . S
N739 C737 1.384 . S
H740 C746 0.930 . S
H741 C750 0.930 . S
H742 C755 0.929 . S
H743 C753 0.929 . S
H744 C748 0.929 . S
H745 C754 0.929 . S
C746 H740 0.930 . S
C746 C747 1.367 . S
C746 C754 1.378 . S
C747 C746 1.367 . S
C747 C755 1.433 . S
C748 H744 0.929 . S
C748 C750 1.378 . S
C748 C752 1.350 . S
C749 C752 1.463 . S
C749 C754 1.350 . S
C749 N757 1.427 . S
C750 H741 0.930 . S
C750 C748 1.378 . S
C750 C751 1.367 . S
C751 C750 1.367 . S
C751 C753 1.433 . S
C752 C748 1.350 . S
C752 C749 1.463 . S
C752 N756 1.427 . S
C753 H743 0.929 . S
C753 C751 1.433 . S
C753 N756 1.384 . S
C754 H745 0.929 . S
C754 C746 1.378 . S
C754 C749 1.350 . S
C755 H742 0.929 . S
C755 C747 1.433 . S
C755 N757 1.384 . S
N756 C752 1.427 . S
N756 C753 1.384 . S
N757 C749 1.427 . S
N757 C755 1.384 . S
H758 C764 0.930 . S
H759 C768 0.930 . S
H760 C773 0.929 . S
H761 C771 0.929 . S
H762 C766 0.929 . S
H763 C772 0.929 . S
C764 H758 0.930 . S
C764 C765 1.367 . S
C764 C772 1.378 . S
C765 C764 1.367 . S
C765 C773 1.433 . S
C766 H762 0.929 . S
C766 C768 1.378 . S
C766 C770 1.350 . S
C767 C770 1.463 . S
C767 C772 1.350 . S
C767 N775 1.427 . S
C768 H759 0.930 . S
C768 C766 1.378 . S
C768 C769 1.367 . S
C769 C768 1.367 . S
C769 C771 1.433 . S
C770 C766 1.350 . S
C770 C767 1.463 . S
C770 N774 1.427 . S
C771 H761 0.929 . S
C771 C769 1.433 . S
C771 N774 1.384 . S
C772 H763 0.929 . S
C772 C764 1.378 . S
C772 C767 1.350 . S
C773 H760 0.929 . S
C773 C765 1.433 . S
C773 N775 1.384 . S
N774 C770 1.427 . S
N774 C771 1.384 . S
N775 C767 1.427 . S
N775 C773 1.384 . S
C279 C51 1.734 . S
C283 C17 1.734 . S
C297 C119 1.732 . S
C301 C85 1.732 . S
C315 C153 1.733 . S
C319 C187 1.732 . S
C333 C255 1.735 . S
C337 C221 1.735 . S
C351 C117 1.802 . S
C355 C22 1.804 . S
C369 C90 1.801 . S
C373 C56 1.805 . S
C387 C158 1.793 1_455 S
C391 C260 1.804 1_455 S
C405 C192 1.791 1_655 S
C409 C219 1.807 1_655 S
C423 C37 1.961 . S
C427 C3 1.956 . S
C441 C103 1.949 . S
C445 C71 1.958 . S
C459 C139 1.960 . S
C463 C173 1.950 . S
C477 C205 1.956 . S
C481 C241 1.949 . S
C495 C35 1.463 . S
C499 C1 1.475 . S
C513 C69 1.479 . S
C517 C105 1.467 . S
C531 C171 1.468 . S
C535 C137 1.461 . S
C549 C207 1.479 . S
C553 C239 1.469 . S
C567 C15 1.529 . S
C571 C226 1.529 . S
C585 C49 1.535 . S
C589 C253 1.535 . S
C603 C83 1.523 . S
C607 C151 1.523 . S
C621 C124 1.535 . S
C625 C185 1.535 . S
C639 C6 1.375 . S
C643 C28 1.381 . S
C657 C40 1.380 . S
C661 C62 1.380 . S
C675 C74 1.375 . S
C679 C96 1.382 . S
C693 C130 1.379 . S
C697 C108 1.381 . S
C711 C142 1.379 . S
C715 C164 1.379 . S
C729 C198 1.379 . S
C733 C176 1.379 . S
C747 C210 1.382 . S
C751 C232 1.378 . S
C765 C266 1.382 . S
C769 C244 1.377 . S
