# Generated by pormake.
# Topology fnw, (5)-cn, num edge types: 1
# Building blocks:
#     Node 0, Type 0, BuildingBlock: XOMCOT_clean_sbu_1, # of connection points: 5
#     Node 1, Type 0, BuildingBlock: XOMCOT_clean_sbu_1, # of connection points: 5
#     Node 2, Type 0, BuildingBlock: XOMCOT_clean_sbu_1, # of connection points: 5
#     Node 3, Type 0, BuildingBlock: XOMCOT_clean_sbu_1, # of connection points: 5
#     Node 4, Type 0, BuildingBlock: XOMCOT_clean_sbu_1, # of connection points: 5
#     Node 5, Type 0, BuildingBlock: XOMCOT_clean_sbu_1, # of connection points: 5
#     Node 6, Type 0, BuildingBlock: XOMCOT_clean_sbu_1, # of connection points: 5
#     Node 7, Type 0, BuildingBlock: XOMCOT_clean_sbu_1, # of connection points: 5
#     Node 8, Type 0, BuildingBlock: XOMCOT_clean_sbu_1, # of connection points: 5
#     Node 9, Type 0, BuildingBlock: XOMCOT_clean_sbu_1, # of connection points: 5
#     Node 10, Type 0, BuildingBlock: XOMCOT_clean_sbu_1, # of connection points: 5
#     Node 11, Type 0, BuildingBlock: XOMCOT_clean_sbu_1, # of connection points: 5
#     Edge 12, Type (0, 0), BuildingBlock: XUDNAN_clean_linker_2, # of connection points: 2
#     Edge 13, Type (0, 0), BuildingBlock: XUDNAN_clean_linker_2, # of connection points: 2
#     Edge 14, Type (0, 0), BuildingBlock: XUDNAN_clean_linker_2, # of connection points: 2
#     Edge 15, Type (0, 0), BuildingBlock: XUDNAN_clean_linker_2, # of connection points: 2
#     Edge 16, Type (0, 0), BuildingBlock: XUDNAN_clean_linker_2, # of connection points: 2
#     Edge 17, Type (0, 0), BuildingBlock: XUDNAN_clean_linker_2, # of connection points: 2
#     Edge 18, Type (0, 0), BuildingBlock: XUDNAN_clean_linker_2, # of connection points: 2
#     Edge 19, Type (0, 0), BuildingBlock: XUDNAN_clean_linker_2, # of connection points: 2
#     Edge 20, Type (0, 0), BuildingBlock: XUDNAN_clean_linker_2, # of connection points: 2
#     Edge 21, Type (0, 0), BuildingBlock: XUDNAN_clean_linker_2, # of connection points: 2
#     Edge 22, Type (0, 0), BuildingBlock: XUDNAN_clean_linker_2, # of connection points: 2
#     Edge 23, Type (0, 0), BuildingBlock: XUDNAN_clean_linker_2, # of connection points: 2
#     Edge 24, Type (0, 0), BuildingBlock: XUDNAN_clean_linker_2, # of connection points: 2
#     Edge 25, Type (0, 0), BuildingBlock: XUDNAN_clean_linker_2, # of connection points: 2
#     Edge 26, Type (0, 0), BuildingBlock: XUDNAN_clean_linker_2, # of connection points: 2
#     Edge 27, Type (0, 0), BuildingBlock: XUDNAN_clean_linker_2, # of connection points: 2
#     Edge 28, Type (0, 0), BuildingBlock: XUDNAN_clean_linker_2, # of connection points: 2
#     Edge 29, Type (0, 0), BuildingBlock: XUDNAN_clean_linker_2, # of connection points: 2
#     Edge 30, Type (0, 0), BuildingBlock: XUDNAN_clean_linker_2, # of connection points: 2
#     Edge 31, Type (0, 0), BuildingBlock: XUDNAN_clean_linker_2, # of connection points: 2
#     Edge 32, Type (0, 0), BuildingBlock: XUDNAN_clean_linker_2, # of connection points: 2
#     Edge 33, Type (0, 0), BuildingBlock: XUDNAN_clean_linker_2, # of connection points: 2
#     Edge 34, Type (0, 0), BuildingBlock: XUDNAN_clean_linker_2, # of connection points: 2
#     Edge 35, Type (0, 0), BuildingBlock: XUDNAN_clean_linker_2, # of connection points: 2
#     Edge 36, Type (0, 0), BuildingBlock: XUDNAN_clean_linker_2, # of connection points: 2
#     Edge 37, Type (0, 0), BuildingBlock: XUDNAN_clean_linker_2, # of connection points: 2
#     Edge 38, Type (0, 0), BuildingBlock: XUDNAN_clean_linker_2, # of connection points: 2
#     Edge 39, Type (0, 0), BuildingBlock: XUDNAN_clean_linker_2, # of connection points: 2
#     Edge 40, Type (0, 0), BuildingBlock: XUDNAN_clean_linker_2, # of connection points: 2
#     Edge 41, Type (0, 0), BuildingBlock: XUDNAN_clean_linker_2, # of connection points: 2
# Relax obj value: 0.361
# Max RMSD: 0.162
# Mean RMSD: 0.162
data_MOF--net-fnw--node1-XOMCOT_clean_sbu_1--edge1-XUDNAN_clean_linker_2
_symmetry_space_group_name_H-M    P1
_symmetry_Int_Tables_number       1
_symmetry_cell_setting            triclinic
loop_
_symmetry_equiv_pos_as_xyz
'x, y, z'
_cell_length_a     53.232482
_cell_length_b     53.318343
_cell_length_c     27.417845
_cell_angle_alpha  90.217784
_cell_angle_beta   89.956181
_cell_angle_gamma 120.03708
loop_
_atom_site_label
_atom_site_type_symbol
_atom_site_fract_x
_atom_site_fract_y
_atom_site_fract_z
_atom_type_partial_charge
C0 C 0.1984 0.45778 0.22406 0.0
C1 C 0.18727 0.47383 0.24445 0.0
N2 N 0.20202 0.48619 0.28591 0.0
N3 N 0.21996 0.45995 0.25267 0.0
C4 C 0.22154 0.47723 0.29004 0.0
H5 H 0.1919 0.44618 0.18977 0.0
Co6 Co 0.24468 0.44545 0.24154 0.0
C7 C 0.22147 0.4185 0.33804 0.0
O8 O 0.19638 0.40052 0.31791 0.0
N9 N 0.2694 0.43115 0.22997 0.0
C10 C 0.30512 0.42655 0.19794 0.0
C11 C 0.29117 0.4423 0.19721 0.0
C12 C 0.27019 0.40844 0.24984 0.0
N13 N 0.29192 0.40527 0.23106 0.0
O14 O 0.21215 0.40787 0.22809 0.0
H15 H 0.2965 0.46073 0.17418 0.0
H16 H 0.25529 0.39468 0.27769 0.0
O17 O 0.24258 0.43653 0.31158 0.0
C18 C 0.19804 0.39292 0.19098 0.0
O19 O 0.17603 0.36683 0.19901 0.0
N20 N 0.27689 0.48233 0.25276 0.0
C21 C 0.32599 0.53716 0.26187 0.0
C22 C 0.32118 0.51488 0.29423 0.0
C23 C 0.29661 0.48755 0.28887 0.0
C24 C 0.28113 0.50363 0.22087 0.0
C25 C 0.3055 0.53128 0.22489 0.0
H26 H 0.294 0.4704 0.31288 0.0
H27 H 0.26564 0.49901 0.19184 0.0
H28 H 0.23738 0.48375 0.31905 0.0
H29 H 0.17065 0.4773 0.22859 0.0
H30 H 0.32323 0.43014 0.17514 0.0
H31 H 0.33676 0.51822 0.32253 0.0
H32 H 0.30827 0.54786 0.19922 0.0
C33 C 0.78104 0.28331 0.78442 0.0
C34 C 0.75181 0.2708 0.77624 0.0
N35 N 0.73903 0.24295 0.79036 0.0
N36 N 0.78672 0.26372 0.805 0.0
C37 C 0.76085 0.23884 0.80534 0.0
H38 H 0.79694 0.30562 0.77713 0.0
Co39 Co 0.8233 0.27156 0.82673 0.0
C40 C 0.78508 0.23786 0.91597 0.0
O41 O 0.76264 0.24047 0.90402 0.0
N42 N 0.86021 0.2799 0.84686 0.0
C43 C 0.89994 0.29478 0.89185 0.0
C44 C 0.87133 0.2878 0.89221 0.0
C45 C 0.88244 0.28229 0.81957 0.0
N46 N 0.90688 0.29129 0.84607 0.0
O47 O 0.81789 0.2379 0.79073 0.0
H48 H 0.85973 0.28957 0.92318 0.0
H49 H 0.88123 0.27885 0.78058 0.0
O50 O 0.80777 0.2489 0.88873 0.0
C51 C 0.82452 0.24588 0.74632 0.0
O52 O 0.83498 0.27345 0.73631 0.0
N53 N 0.82949 0.30636 0.85561 0.0
C54 C 0.8275 0.35751 0.86122 0.0
C55 C 0.81194 0.33502 0.89449 0.0
C56 C 0.81325 0.30949 0.89113 0.0
C57 C 0.84761 0.3294 0.82738 0.0
C58 C 0.84688 0.35519 0.82943 0.0
H59 H 0.79933 0.29182 0.91435 0.0
H60 H 0.86025 0.32665 0.79918 0.0
H61 H 0.75776 0.21862 0.81979 0.0
H62 H 0.74064 0.2817 0.7629 0.0
H63 H 0.91463 0.30235 0.9227 0.0
H64 H 0.79687 0.33601 0.91992 0.0
H65 H 0.8597 0.37227 0.80373 0.0
C66 C 0.53154 0.76012 0.16683 0.0
C67 C 0.51484 0.73061 0.17219 0.0
N68 N 0.50213 0.72509 0.21638 0.0
N69 N 0.52956 0.77332 0.20754 0.0
C70 C 0.5119 0.75133 0.23737 0.0
H71 H 0.54295 0.77101 0.13404 0.0
Co72 Co 0.54287 0.81298 0.21611 0.0
C73 C 0.57909 0.81625 0.30792 0.0
O74 O 0.60571 0.82916 0.29092 0.0
N75 N 0.55582 0.85235 0.22422 0.0
C76 C 0.55609 0.89393 0.21896 0.0
C77 C 0.54046 0.8648 0.20964 0.0
C78 C 0.58095 0.8744 0.24181 0.0
N79 N 0.5817 0.9001 0.23898 0.0
O80 O 0.57782 0.82226 0.18008 0.0
H81 H 0.51919 0.85335 0.19301 0.0
H82 H 0.59858 0.87178 0.25523 0.0
O83 O 0.55799 0.81114 0.27972 0.0
C84 C 0.57344 0.82905 0.13734 0.0
O85 O 0.54945 0.82988 0.13019 0.0
N86 N 0.5078 0.80433 0.24542 0.0
C87 C 0.45368 0.79376 0.27687 0.0
C88 C 0.47798 0.80785 0.30756 0.0
C89 C 0.50504 0.81318 0.29093 0.0
C90 C 0.48447 0.7907 0.21518 0.0
C91 C 0.45715 0.78478 0.23043 0.0
H92 H 0.52387 0.82536 0.31384 0.0
H93 H 0.48723 0.78466 0.1787 0.0
H94 H 0.50436 0.75459 0.27217 0.0
H95 H 0.51131 0.71457 0.14465 0.0
H96 H 0.54886 0.90927 0.21192 0.0
H97 H 0.47632 0.81563 0.34329 0.0
H98 H 0.43896 0.7735 0.20573 0.0
C99 C 0.72915 0.49307 0.69468 0.0
C100 C 0.73843 0.47378 0.70536 0.0
N101 N 0.754 0.48243 0.74701 0.0
N102 N 0.73887 0.51382 0.72931 0.0
C103 C 0.75407 0.50685 0.76051 0.0
H104 H 0.71573 0.49183 0.66411 0.0
Co105 Co 0.73074 0.54396 0.73203 0.0
C106 C 0.74941 0.57019 0.82899 0.0
O107 O 0.72642 0.57326 0.8292 0.0
N108 N 0.72333 0.57529 0.7337 0.0
C109 C 0.73394 0.62138 0.73224 0.0
C110 C 0.74513 0.60319 0.73211 0.0
C111 C 0.69893 0.57727 0.73527 0.0
N112 N 0.70493 0.60503 0.73438 0.0
O113 O 0.7624 0.56568 0.68797 0.0
H114 H 0.76798 0.61 0.73148 0.0
H115 H 0.67714 0.55906 0.73689 0.0
O116 O 0.75522 0.55992 0.79099 0.0
C117 C 0.75099 0.56481 0.64655 0.0
O118 O 0.72255 0.55111 0.643 0.0
N119 N 0.69773 0.51987 0.76945 0.0
C120 C 0.64808 0.47042 0.80228 0.0
C121 C 0.67362 0.48292 0.82999 0.0
C122 C 0.69836 0.50731 0.81251 0.0
C123 C 0.67281 0.50823 0.74268 0.0
C124 C 0.64755 0.48393 0.75892 0.0
H125 H 0.71847 0.51392 0.83131 0.0
H126 H 0.67316 0.51644 0.70653 0.0
H127 H 0.76485 0.51925 0.79283 0.0
H128 H 0.73337 0.45443 0.68481 0.0
H129 H 0.74616 0.64483 0.73185 0.0
H130 H 0.67511 0.47261 0.86299 0.0
H131 H 0.62861 0.4743 0.73546 0.0
C132 C 0.20935 0.72213 0.25015 0.0
C133 C 0.23819 0.73063 0.24527 0.0
N134 N 0.2517 0.74329 0.2873 0.0
N135 N 0.2048 0.72981 0.2948 0.0
C136 C 0.23103 0.74241 0.31679 0.0
H137 H 0.19273 0.71033 0.22318 0.0
Co138 Co 0.16919 0.72173 0.32009 0.0
C139 C 0.18443 0.76812 0.3927 0.0
O140 O 0.16824 0.77625 0.36908 0.0
N141 N 0.13341 0.71323 0.34633 0.0
C142 C 0.09733 0.70154 0.3988 0.0
C143 C 0.12561 0.70799 0.39377 0.0
C144 C 0.1095 0.70975 0.32336 0.0
N145 N 0.08724 0.70257 0.35433 0.0
O146 O 0.17029 0.75173 0.2789 0.0
H147 H 0.13946 0.70828 0.42288 0.0
H148 H 0.10808 0.71198 0.28455 0.0
O149 O 0.18809 0.74803 0.37484 0.0
C150 C 0.15941 0.74011 0.23755 0.0
O151 O 0.14689 0.71177 0.23387 0.0
N152 N 0.16749 0.69072 0.35375 0.0
C153 C 0.17078 0.64186 0.37909 0.0
C154 C 0.18352 0.66678 0.40883 0.0
C155 C 0.1819 0.69121 0.39519 0.0
C156 C 0.15322 0.66617 0.32655 0.0
C157 C 0.15469 0.64158 0.33828 0.0
H158 H 0.19343 0.7107 0.41657 0.0
H159 H 0.14232 0.66642 0.29343 0.0
H160 H 0.23495 0.75046 0.3539 0.0
H161 H 0.24824 0.72682 0.21395 0.0
H162 H 0.0848 0.69524 0.43216 0.0
H163 H 0.19575 0.66794 0.44113 0.0
H164 H 0.14494 0.62336 0.31335 0.0
C165 C 0.52396 0.22265 0.74964 0.0
C166 C 0.54289 0.25164 0.75747 0.0
N167 N 0.52842 0.26297 0.78041 0.0
N168 N 0.49781 0.21571 0.76811 0.0
C169 C 0.5011 0.24076 0.78615 0.0
H170 H 0.52891 0.20764 0.73135 0.0
Co171 Co 0.46481 0.1794 0.76736 0.0
C172 C 0.43568 0.17335 0.8633 0.0
O173 O 0.42549 0.1453 0.8616 0.0
N174 N 0.43083 0.14247 0.76517 0.0
C175 C 0.38418 0.10881 0.75762 0.0
C176 C 0.40385 0.13796 0.75657 0.0
C177 C 0.42674 0.1155 0.77151 0.0
N178 N 0.39865 0.0947 0.76713 0.0
O179 O 0.44648 0.19426 0.72502 0.0
H180 H 0.39851 0.15479 0.75081 0.0
H181 H 0.44357 0.11092 0.7815 0.0
O182 O 0.45106 0.18943 0.82795 0.0
C183 C 0.45259 0.19064 0.68137 0.0
O184 O 0.46882 0.1787 0.67527 0.0
N185 N 0.48527 0.16543 0.80284 0.0
C186 C 0.53225 0.15944 0.8309 0.0
C187 C 0.52107 0.1722 0.86256 0.0
C188 C 0.49757 0.17517 0.84771 0.0
C189 C 0.49521 0.15192 0.7727 0.0
C190 C 0.51816 0.14803 0.78647 0.0
H191 H 0.49163 0.18803 0.87011 0.0
H192 H 0.48669 0.14615 0.73602 0.0
H193 H 0.48381 0.24268 0.80327 0.0
H194 H 0.56534 0.2636 0.746 0.0
H195 H 0.36103 0.09889 0.75189 0.0
H196 H 0.5319 0.1819 0.89668 0.0
H197 H 0.52668 0.13892 0.76029 0.0
C198 C 0.51653 0.75088 0.82443 0.0
C199 C 0.49658 0.75965 0.83205 0.0
N200 N 0.49515 0.77301 0.79143 0.0
N201 N 0.52767 0.75868 0.77923 0.0
C202 C 0.51442 0.77241 0.76013 0.0
H203 H 0.52149 0.73829 0.84935 0.0
Co204 Co 0.55164 0.74673 0.75063 0.0
C205 C 0.57319 0.78625 0.66477 0.0
O206 O 0.59967 0.79909 0.68251 0.0
N207 N 0.57546 0.73392 0.72208 0.0
C208 C 0.59474 0.71653 0.66903 0.0
C209 C 0.57888 0.73026 0.67413 0.0
C210 C 0.58883 0.72145 0.74519 0.0
N211 N 0.60068 0.7108 0.71383 0.0
O212 O 0.58468 0.78057 0.77811 0.0
H213 H 0.56873 0.73512 0.64442 0.0
H214 H 0.58848 0.7185 0.78414 0.0
O215 O 0.55249 0.76614 0.6893 0.0
C216 C 0.58919 0.77345 0.82036 0.0
O217 O 0.57363 0.74625 0.8336 0.0
N218 N 0.51882 0.71255 0.73117 0.0
C219 C 0.46377 0.66493 0.74367 0.0
C220 C 0.46825 0.68667 0.71022 0.0
C221 C 0.49624 0.71059 0.70446 0.0
C222 C 0.51516 0.69017 0.75981 0.0
C223 C 0.48785 0.66602 0.76625 0.0
H224 H 0.499 0.72871 0.68296 0.0
H225 H 0.53285 0.69244 0.78226 0.0
H226 H 0.51723 0.78002 0.72292 0.0
H227 H 0.4834 0.7556 0.86434 0.0
H228 H 0.59958 0.7093 0.63518 0.0
H229 H 0.45003 0.68661 0.69255 0.0
H230 H 0.48517 0.64963 0.79231 0.0
C231 C 0.76542 0.46082 0.27541 0.0
C232 C 0.73573 0.4452 0.28039 0.0
N233 N 0.72521 0.46322 0.27312 0.0
N234 N 0.77354 0.48843 0.2639 0.0
C235 C 0.7487 0.48945 0.26498 0.0
H236 H 0.77998 0.45227 0.27846 0.0
Co237 Co 0.81073 0.51879 0.24868 0.0
C238 C 0.77626 0.51743 0.15791 0.0
O239 O 0.75336 0.49191 0.16559 0.0
N240 N 0.84758 0.54915 0.23366 0.0
C241 C 0.88724 0.57868 0.19202 0.0
C242 C 0.86029 0.55443 0.18941 0.0
C243 C 0.86739 0.57019 0.26278 0.0
N244 N 0.89171 0.58858 0.2383 0.0
O245 O 0.80306 0.54464 0.28624 0.0
H246 H 0.85081 0.54101 0.15748 0.0
H247 H 0.86452 0.57144 0.30152 0.0
O248 O 0.79756 0.52789 0.18781 0.0
C249 C 0.80884 0.54117 0.3301 0.0
O250 O 0.81805 0.52278 0.33779 0.0
N251 N 0.81973 0.49297 0.21787 0.0
C252 C 0.83201 0.44889 0.19895 0.0
C253 C 0.81236 0.45229 0.16937 0.0
C254 C 0.80658 0.47473 0.17932 0.0
C255 C 0.83989 0.49078 0.24515 0.0
C256 C 0.84657 0.46919 0.23607 0.0
H257 H 0.7903 0.47603 0.15812 0.0
H258 H 0.84959 0.50492 0.27629 0.0
H259 H 0.7477 0.50868 0.256 0.0
H260 H 0.72286 0.42219 0.28737 0.0
H261 H 0.90245 0.58799 0.16218 0.0
H262 H 0.80055 0.43693 0.1405 0.0
H263 H 0.86133 0.4671 0.26068 0.0
C264 C 0.23796 0.75692 0.90868 0.0
C265 C 0.22418 0.72731 0.91403 0.0
N266 N 0.21042 0.71518 0.87198 0.0
N267 N 0.23354 0.76349 0.86308 0.0
C268 C 0.21566 0.73739 0.84249 0.0
H269 H 0.24995 0.77272 0.93682 0.0
Co270 Co 0.24565 0.80145 0.84205 0.0
C271 C 0.22749 0.7736 0.74274 0.0
O272 O 0.2433 0.76115 0.74787 0.0
N273 N 0.25638 0.83875 0.82231 0.0
C274 C 0.25279 0.87559 0.79336 0.0
C275 C 0.23813 0.84636 0.80189 0.0
C276 C 0.282 0.86365 0.82609 0.0
N277 N 0.28036 0.88641 0.80857 0.0
O278 O 0.21233 0.79833 0.87548 0.0
H279 H 0.21547 0.83156 0.7941 0.0
H280 H 0.30129 0.86511 0.84201 0.0
O281 O 0.22499 0.78779 0.77854 0.0
C282 C 0.22137 0.81308 0.91499 0.0
O283 O 0.2495 0.82941 0.92159 0.0
N284 N 0.28054 0.80574 0.81592 0.0
C285 C 0.33251 0.80844 0.78981 0.0
C286 C 0.31736 0.8156 0.75589 0.0
C287 C 0.29162 0.81481 0.77014 0.0
C288 C 0.29696 0.80227 0.85034 0.0
C289 C 0.32261 0.803 0.83803 0.0
H290 H 0.28033 0.82083 0.74414 0.0
H291 H 0.29031 0.79908 0.88795 0.0
H292 H 0.20493 0.7342 0.80789 0.0
H293 H 0.22435 0.71567 0.94616 0.0
H294 H 0.24393 0.88789 0.77676 0.0
H295 H 0.32489 0.82107 0.71866 0.0
H296 H 0.33461 0.7993 0.86625 0.0
C297 C 0.51408 0.31153 0.31567 0.0
C298 C 0.53584 0.30522 0.32293 0.0
N299 N 0.52549 0.27719 0.31147 0.0
N300 N 0.49023 0.28782 0.2982 0.0
C301 C 0.49765 0.26699 0.298 0.0
H302 H 0.51586 0.33214 0.32372 0.0
Co303 Co 0.45379 0.28277 0.28067 0.0
C304 C 0.46869 0.25771 0.19253 0.0
O305 O 0.49663 0.27599 0.19725 0.0
N306 N 0.41742 0.27719 0.2645 0.0
C307 C 0.37073 0.25602 0.24471 0.0
C308 C 0.39439 0.25227 0.24876 0.0
C309 C 0.4073 0.29572 0.26995 0.0
N310 N 0.37895 0.2834 0.25806 0.0
O311 O 0.43608 0.25 0.32394 0.0
H312 H 0.3946 0.23239 0.24181 0.0
H313 H 0.42015 0.31751 0.28406 0.0
O314 O 0.45081 0.25829 0.22336 0.0
C315 C 0.4296 0.25817 0.36355 0.0
O316 O 0.43322 0.28441 0.3656 0.0
N317 N 0.47163 0.31723 0.24393 0.0
C318 C 0.51771 0.37027 0.21743 0.0
C319 C 0.50455 0.34791 0.18278 0.0
C320 C 0.48052 0.32154 0.19646 0.0
C321 C 0.47997 0.34048 0.27399 0.0
C322 C 0.50328 0.36744 0.26153 0.0
H323 H 0.4709 0.30437 0.16993 0.0
H324 H 0.47157 0.33711 0.31079 0.0
H325 H 0.48311 0.24493 0.28637 0.0
H326 H 0.5575 0.32004 0.33616 0.0
H327 H 0.34918 0.23988 0.23289 0.0
H328 H 0.5143 0.34987 0.14728 0.0
H329 H 0.51235 0.38435 0.28902 0.0
C330 C 0.21334 0.51186 0.82499 0.0
C331 C 0.2406 0.53391 0.83719 0.0
N332 N 0.2601 0.52838 0.8159 0.0
N333 N 0.21573 0.49278 0.79564 0.0
C334 C 0.24454 0.50306 0.79193 0.0
H335 H 0.19297 0.50994 0.83629 0.0
Co336 Co 0.18431 0.45887 0.77152 0.0
C337 C 0.22561 0.47274 0.68074 0.0
O338 O 0.24425 0.50041 0.68699 0.0
N339 N 0.15237 0.42441 0.74846 0.0
C340 C 0.11813 0.39233 0.69913 0.0
C341 C 0.14501 0.4168 0.70136 0.0
C342 C 0.1295 0.40421 0.77413 0.0
N343 N 0.10821 0.38457 0.74495 0.0
O344 O 0.19841 0.43747 0.80728 0.0
H345 H 0.1573 0.42937 0.67028 0.0
H346 H 0.12766 0.40495 0.81329 0.0
O347 O 0.20514 0.45896 0.71158 0.0
C348 C 0.18886 0.4351 0.85081 0.0
O349 O 0.17075 0.44444 0.86032 0.0
N350 N 0.16933 0.4807 0.74229 0.0
C351 C 0.15483 0.52409 0.74867 0.0
C352 C 0.17983 0.52889 0.72337 0.0
C353 C 0.18646 0.50664 0.7199 0.0
C354 C 0.14301 0.47451 0.76062 0.0
C355 C 0.13498 0.49565 0.76282 0.0
H356 H 0.20745 0.51204 0.70624 0.0
H357 H 0.1296 0.45442 0.77947 0.0
H358 H 0.25403 0.492 0.77295 0.0
H359 H 0.24575 0.55289 0.8589 0.0
H360 H 0.10587 0.38247 0.66619 0.0
H361 H 0.19593 0.55035 0.71146 0.0
H362 H 0.1148 0.49046 0.78068 0.0
C363 C 0.77844 0.24112 0.39857 0.0
C364 C 0.79732 0.26909 0.3837 0.0
N365 N 0.79373 0.27048 0.33541 0.0
N366 N 0.76349 0.22514 0.35954 0.0
C367 C 0.77319 0.24374 0.32175 0.0
H368 H 0.77525 0.23318 0.43556 0.0
Co369 Co 0.7351 0.18645 0.35702 0.0
C370 C 0.73762 0.16886 0.2533 0.0
O371 O 0.7098 0.14963 0.25474 0.0
N372 N 0.7062 0.14688 0.35469 0.0
C373 C 0.66381 0.10577 0.35417 0.0
C374 C 0.67727 0.13514 0.36116 0.0
C375 C 0.70981 0.12387 0.34562 0.0
N376 N 0.68427 0.09878 0.34443 0.0
O377 O 0.76083 0.17672 0.39178 0.0
H378 H 0.66617 0.14686 0.36945 0.0
H379 H 0.73053 0.12568 0.33729 0.0
O380 O 0.75016 0.18377 0.29166 0.0
C381 C 0.75128 0.1698 0.43545 0.0
O382 O 0.72639 0.16796 0.44643 0.0
N383 N 0.70933 0.19743 0.33086 0.0
C384 C 0.6662 0.2113 0.31454 0.0
C385 C 0.6816 0.20878 0.27525 0.0
C386 C 0.70352 0.20211 0.28422 0.0
C387 C 0.69619 0.20247 0.3693 0.0
C388 C 0.67413 0.20884 0.362 0.0
H389 H 0.7156 0.20114 0.25361 0.0
H390 H 0.70197 0.20003 0.40607 0.0
H391 H 0.76512 0.238 0.28482 0.0
H392 H 0.81157 0.28724 0.40674 0.0
H393 H 0.64067 0.09069 0.35497 0.0
H394 H 0.67639 0.21139 0.23812 0.0
H395 H 0.66293 0.2112 0.39315 0.0
H396 H 0.39646 0.33995 0.2428 0.0
H397 H 0.32117 0.25689 0.2768 0.0
H398 H 0.29058 0.27971 0.27805 0.0
H399 H 0.37691 0.38428 0.31732 0.0
H400 H 0.39066 0.4133 0.27355 0.0
H401 H 0.40668 0.39057 0.27806 0.0
H402 H 0.39718 0.37833 0.18593 0.0
H403 H 0.38113 0.40096 0.18114 0.0
H404 H 0.36087 0.36355 0.16227 0.0
H405 H 0.26812 0.31177 0.27359 0.0
H406 H 0.25533 0.34987 0.25946 0.0
H407 H 0.34554 0.41144 0.22829 0.0
C408 C 0.37363 0.32666 0.25126 0.0
C409 C 0.36119 0.29669 0.25989 0.0
C410 C 0.33108 0.27986 0.26971 0.0
C411 C 0.3136 0.29267 0.27085 0.0
C412 C 0.32658 0.32229 0.26197 0.0
C413 C 0.3559 0.33903 0.25222 0.0
C414 C 0.36435 0.37008 0.2416 0.0
C415 C 0.38592 0.39077 0.27993 0.0
C416 C 0.37659 0.37872 0.18965 0.0
C417 C 0.33514 0.36814 0.24632 0.0
C418 C 0.31364 0.34052 0.25861 0.0
C419 C 0.28481 0.33352 0.26418 0.0
C420 C 0.27776 0.35528 0.25634 0.0
C421 C 0.29942 0.38354 0.24261 0.0
C422 C 0.32847 0.38997 0.23819 0.0
H423 H 0.95911 0.33315 0.8804 0.0
H424 H 0.91861 0.26578 0.77054 0.0
H425 H 0.967 0.2795 0.73722 0.0
H426 H 0.01196 0.38531 0.80416 0.0
H427 H 0.0401 0.40037 0.84984 0.0
H428 H 0.00262 0.38328 0.86781 0.0
H429 H 0.00999 0.34866 0.92445 0.0
H430 H 0.04755 0.36563 0.90649 0.0
H431 H 0.02432 0.32704 0.89957 0.0
H432 H 0.01952 0.30269 0.71283 0.0
H433 H 0.0718 0.33492 0.69685 0.0
H434 H 0.07758 0.38743 0.82221 0.0
C435 C 0.96044 0.32083 0.85007 0.0
C436 C 0.9351 0.29824 0.82825 0.0
C437 C 0.93774 0.28323 0.78764 0.0
C438 C 0.96513 0.29073 0.76875 0.0
C439 C 0.98965 0.31329 0.7909 0.0
C440 C 0.98755 0.32815 0.83063 0.0
C441 C 0.01701 0.35293 0.84548 0.0
C442 C 0.01797 0.3822 0.84156 0.0
C443 C 0.0252 0.34827 0.89706 0.0
C444 C 0.03598 0.35006 0.80731 0.0
C445 C 0.01985 0.32685 0.77653 0.0
C446 C 0.03239 0.32078 0.73695 0.0
C447 C 0.06206 0.33926 0.72804 0.0
C448 C 0.07885 0.36364 0.75832 0.0
C449 C 0.0656 0.36866 0.79901 0.0
H450 H 0.65038 0.06848 0.26965 0.0
H451 H 0.70485 0.06624 0.38432 0.0
H452 H 0.68846 0.01474 0.36391 0.0
H453 H 0.59153 0.00171 0.28855 0.0
H454 H 0.58199 0.99276 0.22526 0.0
H455 H 0.60138 0.03004 0.24426 0.0
H456 H 0.64219 0.04072 0.18197 0.0
H457 H 0.62272 0.00343 0.16228 0.0
H458 H 0.65975 0.01929 0.18287 0.0
H459 H 0.6597 0.96137 0.33803 0.0
H460 H 0.62393 0.91268 0.30701 0.0
H461 H 0.59106 0.95202 0.20623 0.0
C462 C 0.65935 0.05723 0.28944 0.0
C463 C 0.67879 0.07091 0.32829 0.0
C464 C 0.69013 0.05588 0.35406 0.0
C465 C 0.68089 0.02675 0.34273 0.0
C466 C 0.66086 0.01347 0.3049 0.0
C467 C 0.65072 0.02853 0.27808 0.0
C468 C 0.62801 0.00923 0.24143 0.0
C469 C 0.59903 0.00839 0.25046 0.0
C470 C 0.63883 0.01873 0.18903 0.0
C471 C 0.62584 0.98058 0.25319 0.0
C472 C 0.64505 0.98331 0.28951 0.0
C473 C 0.64504 0.95912 0.30883 0.0
C474 C 0.62466 0.93152 0.29091 0.0
C475 C 0.6045 0.92837 0.25422 0.0
C476 C 0.60581 0.95344 0.2346 0.0
H477 H 0.70831 0.64981 0.68367 0.0
H478 H 0.65662 0.58414 0.79006 0.0
H479 H 0.62411 0.60478 0.79779 0.0
H480 H 0.70413 0.70832 0.73821 0.0
H481 H 0.70137 0.7234 0.68109 0.0
H482 H 0.72022 0.70327 0.6839 0.0
H483 H 0.68695 0.66867 0.61591 0.0
H484 H 0.66815 0.68883 0.61261 0.0
H485 H 0.64811 0.65036 0.62352 0.0
H486 H 0.59928 0.63466 0.79692 0.0
H487 H 0.58054 0.66803 0.78086 0.0
H488 H 0.64727 0.71238 0.67193 0.0
C489 C 0.69009 0.63981 0.70849 0.0
C490 C 0.68488 0.61556 0.7365 0.0
C491 C 0.6607 0.60265 0.76815 0.0
C492 C 0.64233 0.61434 0.77295 0.0
C493 C 0.64835 0.6386 0.74526 0.0
C494 C 0.67138 0.6509 0.71309 0.0
C495 C 0.67282 0.67642 0.68666 0.0
C496 C 0.70133 0.70451 0.69818 0.0
C497 C 0.66875 0.67071 0.6314 0.0
C498 C 0.64709 0.67676 0.70922 0.0
C499 C 0.63345 0.65502 0.74337 0.0
C500 C 0.60966 0.65163 0.77004 0.0
C501 C 0.59932 0.67074 0.76099 0.0
C502 C 0.61257 0.69261 0.72521 0.0
C503 C 0.63675 0.69564 0.69918 0.0
H504 H 0.0605 0.67773 0.2694 0.0
H505 H 0.04686 0.7056 0.41083 0.0
H506 H 0.99469 0.68442 0.39163 0.0
H507 H 0.00558 0.68774 0.20059 0.0
H508 H 0.99554 0.65581 0.16435 0.0
H509 H 0.03226 0.67746 0.18621 0.0
H510 H 0.02887 0.632 0.22676 0.0
H511 H 0.99223 0.61031 0.20541 0.0
H512 H 0.0001 0.61149 0.26959 0.0
H513 H 0.9434 0.65491 0.3607 0.0
H514 H 0.89745 0.61909 0.3216 0.0
H515 H 0.946 0.61058 0.20169 0.0
C516 C 0.04686 0.68042 0.29568 0.0
C517 C 0.05776 0.69352 0.34144 0.0
C518 C 0.03887 0.69555 0.37558 0.0
C519 C 0.00931 0.68382 0.36482 0.0
C520 C -0.00082 0.67039 0.31968 0.0
C521 C 0.01749 0.66883 0.28558 0.0
C522 C 0.001 0.65057 0.24208 0.0
C523 C 0.00907 0.669 0.19556 0.0
C524 C 0.00583 0.62456 0.23564 0.0
C525 C 0.97038 0.64106 0.25786 0.0
C526 C 0.96971 0.65309 0.30224 0.0
C527 C 0.94367 0.64567 0.32562 0.0
C528 C 0.9177 0.62508 0.30335 0.0
C529 C 0.91805 0.6119 0.25853 0.0
C530 C 0.9448 0.62058 0.23531 0.0
H531 H 0.27421 0.93353 0.81686 0.0
H532 H 0.33768 0.90641 0.79366 0.0
H533 H 0.37598 0.95767 0.78294 0.0
H534 H 0.30052 0.98843 0.72814 0.0
H535 H 0.29338 0.01276 0.76344 0.0
H536 H 0.27162 0.97426 0.7724 0.0
H537 H 0.28427 0.98093 0.86459 0.0
H538 H 0.30591 0.01951 0.85599 0.0
H539 H 0.32179 -3e-05 0.88332 0.0
H540 H 0.40623 0.01162 0.76884 0.0
H541 H 0.42677 0.06408 0.75676 0.0
H542 H 0.34311 0.05524 0.79167 0.0
C543 C 0.29618 0.93839 0.80966 0.0
C544 C 0.30306 0.91612 0.80587 0.0
C545 C 0.33211 0.92328 0.79712 0.0
C546 C 0.3539 0.95225 0.79075 0.0
C547 C 0.3462 0.97365 0.79381 0.0
C548 C 0.31808 0.96705 0.80356 0.0
C549 C 0.31524 0.99386 0.8042 0.0
C550 C 0.29394 0.99222 0.76468 0.0
C551 C 0.30628 -0.00114 0.85505 0.0
C552 C 0.34606 0.01661 0.7923 0.0
C553 C 0.36363 0.00459 0.78653 0.0
C554 C 0.39277 0.02133 0.77394 0.0
C555 C 0.40426 0.05117 0.76736 0.0
C556 C 0.38665 0.06398 0.77353 0.0
C557 C 0.35718 0.04627 0.78622 0.0
H558 H 0.16248 0.38775 0.90845 0.0
H559 H 0.2418 0.46972 0.89114 0.0
H560 H 0.25538 0.46711 0.97666 0.0
H561 H 0.14555 0.39942 1.02156 0.0
H562 H 0.13161 0.3633 0.04491 0.0
H563 H 0.13066 0.36882 0.98047 0.0
H564 H 0.15958 0.34255 0.9632 0.0
H565 H 0.15994 0.33615 1.02763 0.0
H566 H 0.19355 0.35423 0.99418 0.0
H567 H 0.2546 0.45988 0.0694 0.0
H568 H 0.24371 0.44463 0.15568 0.0
H569 H 0.16689 0.36559 0.10962 0.0
C570 C 0.18348 0.40425 0.92193 0.0
C571 C 0.20162 0.4284 0.89289 0.0
C572 C 0.22822 0.45048 0.91234 0.0
C573 C 0.23588 0.44933 0.96109 0.0
C574 C 0.21686 0.42574 0.98962 0.0
C575 C 0.19161 0.40313 0.97016 0.0
C576 C 0.1739 0.38114 1.00887 0.0
C577 C 0.14366 0.37801 1.01424 0.0
C578 C 0.17162 0.35178 0.99781 0.0
C579 C 0.19249 0.39532 0.05348 0.0
C580 C 0.21713 0.42109 0.04199 0.0
C581 C 0.23591 0.43919 0.07842 0.0
C582 C 0.22964 0.43034 0.12749 0.0
C583 C 0.20506 0.40343 0.13971 0.0
C584 C 0.18633 0.38596 0.10183 0.0
H585 H 0.8043 0.21332 0.46511 0.0
H586 H 0.73538 0.12741 0.50224 0.0
H587 H 0.75353 0.13441 0.58685 0.0
H588 H 0.86105 0.2184 0.55843 0.0
H589 H 0.87222 0.25584 0.57024 0.0
H590 H 0.85996 0.24072 0.51017 0.0
H591 H 0.82179 0.25723 0.51279 0.0
H592 H 0.8334 0.27185 0.57294 0.0
H593 H 0.79591 0.24524 0.56204 0.0
H594 H 0.77146 0.15488 0.67098 0.0
H595 H 0.78846 0.18633 0.74452 0.0
H596 H 0.84455 0.25956 0.65337 0.0
C597 C 0.79424 0.19539 0.49033 0.0
C598 C 0.76895 0.16951 0.4768 0.0
C599 C 0.75534 0.14704 0.51152 0.0
C600 C 0.7654 0.15095 0.55986 0.0
C601 C 0.78912 0.17757 0.57318 0.0
C602 C 0.80369 0.19929 0.53912 0.0
C603 C 0.82522 0.22743 0.56396 0.0
C604 C 0.85647 0.2361 0.54986 0.0
C605 C 0.81866 0.25184 0.55224 0.0
C606 C 0.81934 0.21861 0.61715 0.0
C607 C 0.79895 0.18962 0.62191 0.0
C608 C 0.78803 0.17744 0.66767 0.0
C609 C 0.7978 0.19543 0.70936 0.0
C610 C 0.81798 0.22536 0.70492 0.0
C611 C 0.82934 0.23669 0.65823 0.0
H612 H 0.5687 0.84664 0.04691 0.0
H613 H 0.61534 0.81289 0.12746 0.0
H614 H 0.63499 0.8061 0.04955 0.0
H615 H 0.54376 0.7955 0.95926 0.0
H616 H 0.54539 0.81855 0.90999 0.0
H617 H 0.54157 0.82759 0.97156 0.0
H618 H 0.58762 0.87806 0.96153 0.0
H619 H 0.59165 0.86898 0.89969 0.0
H620 H 0.62118 0.88051 0.9424 0.0
H621 H 0.64101 0.79378 0.96294 0.0
H622 H 0.63053 0.77455 0.87882 0.0
H623 H 0.57921 0.81555 0.85457 0.0
C624 C 0.58388 0.83875 0.04855 0.0
C625 C 0.59068 0.83053 0.09354 0.0
C626 C 0.61019 0.8198 0.09369 0.0
C627 C 0.62141 0.81587 0.04948 0.0
C628 C 0.61311 0.82301 1.00554 0.0
C629 C 0.59484 0.8344 1.00497 0.0
C630 C 0.5854 0.83614 0.95346 0.0
C631 C 0.55208 0.81838 0.9483 0.0
C632 C 0.59718 0.86781 0.93839 0.0
C633 C 0.6 0.82261 0.92494 0.0
C634 C 0.61651 0.81584 0.95545 0.0
C635 C 0.62893 0.7998 0.93861 0.0
C636 C 0.6231 0.78917 0.89053 0.0
C637 C 0.605 0.79454 0.85966 0.0
C638 C 0.5944 0.81252 0.87649 0.0
H639 H 0.82634 0.5411 0.42295 0.0
H640 H 0.78258 0.57465 0.33377 0.0
H641 H 0.77202 0.59433 0.40818 0.0
H642 H 0.77682 0.51483 0.51352 0.0
H643 H 0.80221 0.52319 0.56284 0.0
H644 H 0.8115 0.51758 0.50245 0.0
H645 H 0.85812 0.56806 0.50541 0.0
H646 H 0.84883 0.57388 0.56603 0.0
H647 H 0.85539 0.59976 0.51858 0.0
H648 H 0.75889 0.60221 0.49234 0.0
H649 H 0.74229 0.59571 0.57779 0.0
H650 H 0.79493 0.55726 0.61234 0.0
C651 C 0.81516 0.55323 0.4187 0.0
C652 C 0.80531 0.55642 0.37248 0.0
C653 C 0.79052 0.57217 0.36873 0.0
C654 C 0.78456 0.58349 0.41081 0.0
C655 C 0.79391 0.57918 0.45606 0.0
C656 C 0.80908 0.56454 0.4601 0.0
C657 C 0.81355 0.55943 0.51294 0.0
C658 C 0.80021 0.52684 0.52352 0.0
C659 C 0.8459 0.5763 0.52653 0.0
C660 C 0.79705 0.57199 0.53831 0.0
C661 C 0.78651 0.58394 0.5049 0.0
C662 C 0.76769 0.59368 0.51885 0.0
C663 C 0.75842 0.58995 0.56748 0.0
C664 C 0.76793 0.57661 0.6016 0.0
C665 C 0.78836 0.56859 0.58733 0.0
H666 H 0.18037 0.76095 0.95214 0.0
H667 H 0.22381 0.85345 0.97775 0.0
H668 H 0.20649 0.84501 0.06289 0.0
H669 H 0.1171 0.73995 0.04058 0.0
H670 H 0.11814 0.70802 0.05874 0.0
H671 H 0.12768 0.72141 0.99728 0.0
H672 H 0.17702 0.72345 1.00743 0.0
H673 H 0.16804 0.71072 0.06904 0.0
H674 H 0.2008 0.74439 0.05671 0.0
H675 H 0.1937 0.8266 0.14928 0.0
H676 H 0.1827 0.79939 0.22705 0.0
H677 H 0.14709 0.71906 0.14479 0.0
C678 C 0.18462 0.77933 0.97486 0.0
C679 C 0.20271 0.80785 0.95806 0.0
C680 C 0.20935 0.83145 0.98968 0.0
C681 C 0.19975 0.82685 0.03823 0.0
C682 C 0.18338 0.79845 0.05476 0.0
C683 C 0.17535 0.77504 1.02371 0.0
C684 C 0.16091 0.74685 0.05181 0.0
C685 C 0.12906 0.72794 0.03617 0.0
C686 C 0.1777 0.73041 0.04589 0.0
C687 C 0.16321 0.75811 0.10346 0.0
C688 C 0.17597 0.78789 0.10458 0.0
C689 C 0.18293 0.80318 0.14877 0.0
C690 C 0.17672 0.78761 0.19281 0.0
C691 C 0.1637 0.75708 0.19228 0.0
C692 C 0.15652 0.74235 0.14681 0.0
H693 H 0.46801 0.18969 0.58674 0.0
H694 H 0.41379 0.21071 0.67642 0.0
H695 H 0.39712 0.22443 0.60194 0.0
H696 H 0.49145 0.24813 0.50547 0.0
H697 H 0.49167 0.22794 0.45275 0.0
H698 H 0.49723 0.21779 0.51254 0.0
H699 H 0.45435 0.16574 0.49821 0.0
H700 H 0.44848 0.17591 0.43849 0.0
H701 H 0.4192 0.16046 0.482 0.0
H702 H 0.38911 0.23883 0.5182 0.0
H703 H 0.39281 0.25603 0.43362 0.0
H704 H 0.45197 0.22503 0.39842 0.0
C705 C 0.45237 0.19688 0.59091 0.0
C706 C 0.44207 0.199 0.63758 0.0
C707 C 0.42194 0.20888 0.64117 0.0
C708 C 0.41225 0.21654 0.59901 0.0
C709 C 0.42285 0.2141 0.5536 0.0
C710 C 0.44258 0.20462 0.5494 0.0
C711 C 0.45213 0.20565 0.49689 0.0
C712 C 0.48506 0.2261 0.49162 0.0
C713 C 0.44298 0.17512 0.47778 0.0
C714 C 0.43514 0.21781 0.47202 0.0
C715 C 0.41811 0.2222 0.50534 0.0
C716 C 0.40202 0.2351 0.4918 0.0
C717 C 0.40417 0.24469 0.4436 0.0
C718 C 0.42221 0.24133 0.40929 0.0
C719 C 0.43725 0.22697 0.4234 0.0
H720 H 0.73233 0.51032 0.09779 0.0
H721 H 0.82606 0.55785 0.11161 0.0
H722 H 0.83027 0.57729 1.02862 0.0
H723 H 0.728 0.49125 0.97371 0.0
H724 H 0.69793 0.49665 0.96013 0.0
H725 H 0.70245 0.48678 1.02084 0.0
H726 H 0.70253 0.53207 0.05593 0.0
H727 H 0.69773 0.54192 0.99533 0.0
H728 H 0.72781 0.5674 0.03226 0.0
H729 H 0.82373 0.58671 0.9389 0.0
H730 H 0.80646 0.59159 0.8569 0.0
H731 H 0.71765 0.54293 0.90789 0.0
C732 C 0.75375 0.52502 0.08357 0.0
C733 C 0.77889 0.5321 0.1109 0.0
C734 C 0.80649 0.55176 0.09122 0.0
C735 C 0.80911 0.56292 0.04399 0.0
C736 C 0.78386 0.55484 1.01746 0.0
C737 C 0.7567 0.53692 0.03715 0.0
C738 C 0.73287 0.53205 1.00193 0.0
C739 C 0.71423 0.49977 0.98837 0.0
C740 C 0.71414 0.54409 1.0226 0.0
C741 C 0.75083 0.54968 0.95913 0.0
C742 C 0.78021 0.56229 0.96811 0.0
C743 C 0.80077 0.57752 0.93188 0.0
C744 C 0.79088 0.58014 0.88554 0.0
C745 C 0.76088 0.56821 0.87674 0.0
C746 C 0.7408 0.55295 0.91412 0.0
H747 H 0.23697 0.75295 0.65718 0.0
H748 H 0.19486 0.79834 0.71562 0.0
H749 H 0.18145 0.8044 0.63181 0.0
H750 H 0.26716 0.79725 0.55188 0.0
H751 H 0.26172 0.76768 0.51279 0.0
H752 H 0.26712 0.76609 0.5773 0.0
H753 H 0.21873 0.71727 0.58288 0.0
H754 H 0.21341 0.71856 0.51829 0.0
H755 H 0.18581 0.71496 0.56043 0.0
H756 H 0.1728 0.80542 0.5404 0.0
H757 H 0.16734 0.79894 0.451 0.0
H758 H 0.21775 0.75541 0.45326 0.0
C759 C 0.22465 0.76392 0.65264 0.0
C760 C 0.21684 0.77504 0.69325 0.0
C761 C 0.20097 0.7895 0.68525 0.0
C762 C 0.19338 0.79316 0.63771 0.0
C763 C 0.20195 0.78239 0.59849 0.0
C764 C 0.21713 0.76796 0.60558 0.0
C765 C 0.224 0.75858 0.5575 0.0
C766 C 0.25696 0.77329 0.54941 0.0
C767 C 0.20962 0.72538 0.55462 0.0
C768 C 0.21014 0.76981 0.52212 0.0
C769 C 0.19754 0.7835 0.54633 0.0
C770 C 0.18268 0.7948 0.52116 0.0
C771 C 0.17986 0.79118 0.47023 0.0
C772 C 0.19186 0.77639 0.44485 0.0
C773 C 0.20792 0.76642 0.47134 0.0
H774 H 0.4776 0.22211 0.91062 0.0
H775 H 0.38902 0.15139 0.92338 0.0
H776 H 0.38698 0.16631 1.00808 0.0
H777 H 0.49898 0.21349 1.02723 0.0
H778 H 0.52283 0.25151 0.03922 0.0
H779 H 0.51618 0.23825 0.97738 0.0
H780 H 0.49909 0.27444 0.95475 0.0
H781 H 0.50611 0.28816 1.01638 0.0
H782 H 0.4707 0.27497 0.98984 0.0
H783 H 0.39555 0.18704 0.09343 0.0
H784 H 0.41418 0.21214 0.17253 0.0
H785 H 0.49829 0.26711 0.10616 0.0
C786 C 0.4575 0.21039 0.93078 0.0
C787 C 0.43323 0.18592 0.91016 0.0
C788 C 0.40768 0.17045 0.9383 0.0
C789 C 0.40636 0.17871 0.98649 0.0
C790 C 0.43094 0.20231 1.00644 0.0
C791 C 0.45604 0.21799 0.97947 0.0
C792 C 0.48014 0.24089 1.01088 0.0
C793 C 0.50606 0.23571 1.01384 0.0
C794 C 0.48956 0.27143 0.99182 0.0
C795 C 0.46477 0.23543 0.05967 0.0
C796 C 0.4363 0.21332 0.05622 0.0
C797 C 0.41781 0.20444 0.09653 0.0
C798 C 0.42859 0.21874 0.14139 0.0
C799 C 0.45774 0.24141 0.14588 0.0
C800 C 0.47599 0.24963 0.1043 0.0
H801 H 0.2541 0.46646 0.39558 0.0
H802 H 0.19233 0.37436 0.4021 0.0
H803 H 0.19058 0.37751 0.49184 0.0
H804 H 0.29232 0.47274 0.51227 0.0
H805 H 0.29548 0.50718 0.52707 0.0
H806 H 0.2951 0.49699 0.46419 0.0
H807 H 0.25186 0.50511 0.44702 0.0
H808 H 0.25202 0.51522 0.50976 0.0
H809 H 0.21936 0.48621 0.48314 0.0
H810 H 0.1923 0.39118 0.57992 0.0
H811 H 0.19616 0.4146 0.65955 0.0
H812 H 0.2552 0.49836 0.59608 0.0
C813 C 0.24089 0.44684 0.41609 0.0
C814 C 0.22367 0.42004 0.39197 0.0
C815 C 0.20588 0.39503 0.4199 0.0
C816 C 0.20479 0.3966 0.4709 0.0
C817 C 0.22144 0.42343 0.49356 0.0
C818 C 0.23916 0.44814 0.4671 0.0
C819 C 0.25265 0.47471 0.49991 0.0
C820 C 0.28586 0.48873 0.50092 0.0
C821 C 0.24341 0.49659 0.48401 0.0
C822 C 0.23942 0.46114 0.54873 0.0
C823 C 0.22176 0.43149 0.54431 0.0
C824 C 0.20623 0.41436 0.58388 0.0
C825 C 0.20845 0.4279 0.62899 0.0
C826 C 0.22586 0.45835 0.63425 0.0
C827 C 0.2419 0.47502 0.59357 0.0
H828 H 0.73795 0.20119 0.97035 0.0
H829 H 0.83199 0.24793 0.97343 0.0
H830 H 0.83086 0.23351 0.05958 0.0
H831 H 0.72653 0.21913 0.08757 0.0
H832 H 0.69531 0.18428 0.10029 0.0
H833 H 0.70385 0.19672 0.03836 0.0
H834 H 0.70505 0.15024 1.01449 0.0
H835 H 0.69632 0.13755 0.07639 0.0
H836 H 0.72825 0.14068 0.04773 0.0
H837 H 0.81844 0.21845 0.15007 0.0
H838 H 0.79619 0.2001 0.23134 0.0
H839 H 0.71076 0.1605 0.16519 0.0
C840 C 0.75837 0.20805 0.98881 0.0
C841 C 0.78509 0.2259 0.96504 0.0
C842 C 0.81125 0.23427 0.99065 0.0
C843 C 0.8108 0.22621 0.03975 0.0
C844 C 0.78399 0.20925 0.06249 0.0
C845 C 0.75828 0.1998 0.03731 0.0
C846 C 0.73226 0.18213 0.06971 0.0
C847 C 0.71339 0.19643 0.07424 0.0
C848 C 0.71442 0.15079 0.05096 0.0
C849 C 0.7472 0.18355 0.11745 0.0
C850 C 0.77704 0.19942 0.11296 0.0
C851 C 0.79511 0.20544 0.15358 0.0
C852 C 0.78231 0.19497 0.19964 0.0
C853 C 0.75176 0.17829 0.20466 0.0
C854 C 0.73421 0.17244 0.16266 0.0
H855 H 0.61412 0.81734 0.59402 0.0
H856 H 0.52121 0.76419 0.6166 0.0
H857 H 0.51305 0.76634 0.52858 0.0
H858 H 0.61016 0.8635 0.49867 0.0
H859 H 0.6401 0.86546 0.46473 0.0
H860 H 0.63861 0.86103 0.52999 0.0
H861 H 0.64277 0.81496 0.51945 0.0
H862 H 0.64397 0.81906 0.45418 0.0
H863 H 0.61687 0.7857 0.48158 0.0
H864 H 0.5149 0.77169 0.4376 0.0
H865 H 0.52623 0.78234 0.3506 0.0
H866 H 0.61803 0.83292 0.38533 0.0
C867 C 0.592 0.80654 0.58066 0.0
C868 C 0.56828 0.79056 0.61261 0.0
C869 C 0.53976 0.77652 0.5932 0.0
C870 C 0.53489 0.77759 0.5431 0.0
C871 C 0.55874 0.7929 0.51257 0.0
C872 C 0.58673 0.80739 0.53057 0.0
C873 C 0.60852 0.82183 0.48952 0.0
C874 C 0.62534 0.85492 0.49613 0.0
C875 C 0.62925 0.80965 0.48599 0.0
C876 C 0.58841 0.81294 0.44559 0.0
C877 C 0.5598 0.79626 0.45988 0.0
C878 C 0.53721 0.78501 0.4261 0.0
C879 C 0.54393 0.79127 0.37656 0.0
C880 C 0.57303 0.8088 0.36072 0.0
C881 C 0.59556 0.81952 0.39599 0.0
H882 H 0.15513 0.49318 0.2973 0.0
H883 H 0.245 0.52849 0.34093 0.0
H884 H 0.24349 0.56819 0.38401 0.0
H885 H 0.16014 0.55756 0.268 0.0
H886 H 0.12488 0.54913 0.29012 0.0
H887 H 0.13109 0.52044 0.27095 0.0
H888 H 0.11397 0.49588 0.35531 0.0
H889 H 0.10767 0.52461 0.37479 0.0
H890 H 0.13108 0.51619 0.40997 0.0
H891 H 0.23541 0.60854 0.40855 0.0
H892 H 0.22129 0.64583 0.41293 0.0
H893 H 0.13552 0.58367 0.35847 0.0
C894 C 0.17431 0.50894 0.31671 0.0
C895 C 0.20011 0.50753 0.31572 0.0
C896 C 0.22477 0.52865 0.34165 0.0
C897 C 0.22416 0.5514 0.3663 0.0
C898 C 0.19862 0.55259 0.36535 0.0
C899 C 0.17401 0.53172 0.34171 0.0
C900 C 0.1503 0.53954 0.34199 0.0
C901 C 0.14109 0.54181 0.28967 0.0
C902 C 0.12421 0.51776 0.37234 0.0
C903 C 0.16604 0.56887 0.36686 0.0
C904 C 0.19371 0.57578 0.38081 0.0
C905 C 0.2135 0.60307 0.39916 0.0
C906 C 0.20514 0.62415 0.40183 0.0
C907 C 0.17716 0.61787 0.38622 0.0
C908 C 0.1571 0.58939 0.3705 0.0
H909 H 0.7013 0.25963 0.82013 0.0
H910 H 0.70815 0.18423 0.78294 0.0
H911 H 0.65555 0.1526 0.79998 0.0
H912 H 0.64897 0.22642 0.91856 0.0
H913 H 0.63032 0.24574 0.90329 0.0
H914 H 0.66857 0.26178 0.8911 0.0
H915 H 0.65981 0.26804 0.79999 0.0
H916 H 0.62171 0.25253 0.81215 0.0
H917 H 0.63371 0.23698 0.76554 0.0
H918 H 0.6011 0.13028 0.8134 0.0
H919 H 0.55021 0.11949 0.82063 0.0
H920 H 0.58087 0.20995 0.85233 0.0
C921 C 0.69174 0.23647 0.81528 0.0
C922 C 0.70858 0.2243 0.79953 0.0
C923 C 0.69547 0.19386 0.79484 0.0
C924 C 0.66573 0.17583 0.80461 0.0
C925 C 0.64972 0.18866 0.81992 0.0
C926 C 0.66242 0.21832 0.82542 0.0
C927 C 0.64058 0.2271 0.84038 0.0
C928 C 0.64753 0.24108 0.89137 0.0
C929 C 0.63885 0.24734 0.80224 0.0
C930 C 0.61328 0.19782 0.84096 0.0
C931 C 0.6189 0.17581 0.82947 0.0
C932 C 0.59654 0.14725 0.82342 0.0
C933 C 0.56776 0.1413 0.8277 0.0
C934 C 0.56171 0.16379 0.83812 0.0
C935 C 0.58485 0.19216 0.84619 0.0
H936 H 0.46363 0.67961 0.16083 0.0
H937 H 0.48674 0.70876 0.31058 0.0
H938 H 0.44409 0.66351 0.33922 0.0
H939 H 0.38799 0.64762 0.1745 0.0
H940 H 0.37924 0.61765 0.13396 0.0
H941 H 0.41229 0.65159 0.12547 0.0
H942 H 0.44227 0.62554 0.13081 0.0
H943 H 0.40928 0.59144 0.13874 0.0
H944 H 0.43806 0.60333 0.18303 0.0
H945 H 0.39777 0.61544 0.35092 0.0
H946 H 0.35226 0.56831 0.34489 0.0
H947 H 0.36056 0.57098 0.18723 0.0
C948 C 0.46021 0.67633 0.19971 0.0
C949 C 0.47872 0.69777 0.23347 0.0
C950 C 0.47281 0.69275 0.28402 0.0
C951 C 0.44869 0.66708 0.30062 0.0
C952 C 0.43071 0.64664 0.2662 0.0
C953 C 0.4363 0.65095 0.21681 0.0
C954 C 0.4133 0.62605 0.18713 0.0
C955 C 0.39726 0.63636 0.15328 0.0
C956 C 0.42652 0.61068 0.15824 0.0
C957 C 0.39374 0.60705 0.22749 0.0
C958 C 0.40414 0.61922 0.27286 0.0
C959 C 0.38954 0.60565 0.31559 0.0
C960 C 0.36377 0.57885 0.3118 0.0
C961 C 0.35281 0.56594 0.2656 0.0
C962 C 0.3681 0.58041 0.22304 0.0
H963 H 0.81725 0.37642 0.77537 0.0
H964 H 0.81975 0.39004 0.93175 0.0
H965 H 0.80301 0.4254 0.91936 0.0
H966 H 0.84091 0.45086 0.73843 0.0
H967 H 0.81676 0.43934 0.68668 0.0
H968 H 0.8311 0.4171 0.70812 0.0
H969 H 0.77879 0.37372 0.71693 0.0
H970 H 0.76427 0.39585 0.69594 0.0
H971 H 0.75295 0.3777 0.75387 0.0
H972 H 0.78385 0.45775 0.88928 0.0
H973 H 0.76325 0.48352 0.84481 0.0
H974 H 0.77314 0.44798 0.70829 0.0
C975 C 0.81506 0.38741 0.80699 0.0
C976 C 0.8203 0.38087 0.85453 0.0
C977 C 0.81605 0.39489 0.89502 0.0
C978 C 0.80661 0.41501 0.88829 0.0
C979 C 0.80134 0.42069 0.84087 0.0
C980 C 0.80546 0.40727 0.80094 0.0
C981 C 0.79674 0.41576 0.754 0.0
C982 C 0.82294 0.43172 0.7198 0.0
C983 C 0.7717 0.38918 0.72872 0.0
C984 C 0.78685 0.43596 0.77362 0.0
C985 C 0.78985 0.43872 0.82375 0.0
C986 C 0.78165 0.4559 0.84999 0.0
C987 C 0.77009 0.47059 0.82435 0.0
C988 C 0.76665 0.4679 0.77294 0.0
C989 C 0.77527 0.45035 0.74752 0.0
H990 H 0.29691 0.76976 0.22569 0.0
H991 H 0.27389 0.7399 0.37447 0.0
H992 H 0.325 0.75389 0.39141 0.0
H993 H 0.34393 0.74365 0.20586 0.0
H994 H 0.36953 0.77386 0.16967 0.0
H995 H 0.33209 0.76459 0.17138 0.0
H996 H 0.34726 0.81674 0.19976 0.0
H997 H 0.38485 0.82626 0.19786 0.0
H998 H 0.36976 0.83158 0.25318 0.0
H999 H 0.37765 0.76613 0.38843 0.0
H1000 H 0.42721 0.77687 0.36657 0.0
H1001 H 0.41517 0.80036 0.22064 0.0
C1002 C 0.30275 0.76652 0.26197 0.0
C1003 C 0.28164 0.75378 0.29878 0.0
C1004 C 0.28995 0.74995 0.34598 0.0
C1005 C 0.31884 0.75776 0.35583 0.0
C1006 C 0.33908 0.76975 0.31825 0.0
C1007 C 0.3314 0.77443 0.27244 0.0
C1008 C 0.3567 0.78627 0.23756 0.0
C1009 C 0.35016 0.76586 0.19355 0.0
C1010 C 0.36514 0.81704 0.22114 0.0
C1011 C 0.3796 0.78652 0.2703 0.0
C1012 C 0.36923 0.77717 0.31683 0.0
C1013 C 0.38615 0.77394 0.35234 0.0
C1014 C 0.41426 0.78015 0.33967 0.0
C1015 C 0.42498 0.78931 0.29185 0.0
C1016 C 0.4075 0.79305 0.25731 0.0
H1017 H 0.65345 0.42358 0.8224 0.0
H1018 H 0.58937 0.45008 0.80199 0.0
H1019 H 0.55025 0.3987 0.80508 0.0
H1020 H 0.62298 0.36662 0.74435 0.0
H1021 H 0.63153 0.343 0.77844 0.0
H1022 H 0.65376 0.3816 0.78503 0.0
H1023 H 0.64515 0.37741 0.87841 0.0
H1024 H 0.62317 0.33861 0.87228 0.0
H1025 H 0.60858 0.35885 0.90167 0.0
H1026 H 0.51909 0.34439 0.79953 0.0
H1027 H 0.49867 0.29205 0.78388 0.0
H1028 H 0.58369 0.30167 0.80611 0.0
C1029 C 0.63111 0.41867 0.82076 0.0
C1030 C 0.6243 0.44074 0.81298 0.0
C1031 C 0.59491 0.43341 0.80859 0.0
C1032 C 0.57262 0.40435 0.81044 0.0
C1033 C 0.58018 0.38299 0.81661 0.0
C1034 C 0.60876 0.38987 0.82197 0.0
C1035 C 0.6116 0.36302 0.82201 0.0
C1036 C 0.63111 0.36362 0.77995 0.0
C1037 C 0.62278 0.35925 0.87155 0.0
C1038 C 0.58031 0.34 0.81395 0.0
C1039 C 0.56239 0.35181 0.81193 0.0
C1040 C 0.53284 0.33485 0.80188 0.0
C1041 C 0.52142 0.30515 0.79312 0.0
C1042 C 0.53962 0.29283 0.79376 0.0
C1043 C 0.5693 0.31051 0.80514 0.0
H1044 H 0.34446 0.76672 0.81811 0.0
H1045 H 0.37898 0.84506 0.73179 0.0
H1046 H 0.42402 0.84305 0.71783 0.0
H1047 H 0.40837 0.78487 0.87996 0.0
H1048 H 0.40252 0.74853 0.88118 0.0
H1049 H 0.37199 0.75425 0.8788 0.0
H1050 H 0.35324 0.7226 0.80065 0.0
H1051 H 0.38361 0.71654 0.80303 0.0
H1052 H 0.37694 0.73127 0.74873 0.0
H1053 H 0.46698 0.83382 0.71914 0.0
H1054 H 0.50309 0.81833 0.73542 0.0
H1055 H 0.4398 0.7475 0.82354 0.0
C1056 C 0.36139 0.7834 0.79593 0.0
C1057 C 0.35832 0.80616 0.77626 0.0
C1058 C 0.3808 0.8273 0.74689 0.0
C1059 C 0.40647 0.82637 0.73897 0.0
C1060 C 0.4091 0.80407 0.76041 0.0
C1061 C 0.38698 0.78287 0.78802 0.0
C1062 C 0.39543 0.76211 0.80958 0.0
C1063 C 0.39453 0.76249 0.86569 0.0
C1064 C 0.37617 0.73131 0.78927 0.0
C1065 C 0.42614 0.77529 0.79098 0.0
C1066 C 0.43363 0.79922 0.76209 0.0
C1067 C 0.46122 0.81502 0.74151 0.0
C1068 C 0.48155 0.80611 0.75088 0.0
C1069 C 0.47428 0.78194 0.78113 0.0
C1070 C 0.44614 0.76636 0.801 0.0
H1071 H 0.5611 0.35935 0.19865 0.0
H1072 H 0.54459 0.42897 0.23491 0.0
H1073 H 0.59715 0.46162 0.25003 0.0
H1074 H 0.60936 0.37291 0.29141 0.0
H1075 H 0.63282 0.36368 0.25804 0.0
H1076 H 0.59517 0.34744 0.2415 0.0
H1077 H 0.6091 0.36598 0.15288 0.0
H1078 H 0.64687 0.38166 0.16869 0.0
H1079 H 0.63385 0.40393 0.14219 0.0
H1080 H 0.65083 0.4848 0.26934 0.0
H1081 H 0.70132 0.49733 0.28752 0.0
H1082 H 0.68132 0.41139 0.24112 0.0
C1083 C 0.56871 0.38185 0.20749 0.0
C1084 C 0.54898 0.39195 0.2143 0.0
C1085 C 0.55953 0.4211 0.22849 0.0
C1086 C 0.58927 0.43967 0.2374 0.0
C1087 C 0.60798 0.4286 0.23233 0.0
C1088 C 0.5981 0.4004 0.21725 0.0
C1089 C 0.62192 0.39281 0.21894 0.0
C1090 C 0.61436 0.36774 0.25459 0.0
C1091 C 0.62832 0.38569 0.16762 0.0
C1092 C 0.64676 0.42103 0.23787 0.0
C1093 C 0.63842 0.4415 0.24508 0.0
C1094 C 0.65765 0.46903 0.26331 0.0
C1095 C 0.68626 0.47594 0.27357 0.0
C1096 C 0.69532 0.45536 0.26591 0.0
C1097 C 0.67509 0.42751 0.24811 0.0
H1098 H 0.17386 0.57853 0.70879 0.0
H1099 H 0.13298 0.52682 0.83784 0.0
H1100 H 0.13711 0.56939 0.87907 0.0
H1101 H 0.22663 0.63713 0.77135 0.0
H1102 H 0.22755 0.66471 0.73231 0.0
H1103 H 0.21613 0.62919 0.70817 0.0
H1104 H 0.16757 0.62451 0.67962 0.0
H1105 H 0.17899 0.66022 0.70335 0.0
H1106 H 0.14512 0.62978 0.72296 0.0
H1107 H 0.15296 0.61834 0.91228 0.0
H1108 H 0.17725 0.6706 0.93244 0.0
H1109 H 0.20878 0.69134 0.78392 0.0
C1110 C 0.16511 0.57594 0.74525 0.0
C1111 C 0.15263 0.54889 0.76933 0.0
C1112 C 0.14174 0.54677 0.81742 0.0
C1113 C 0.14422 0.57104 0.84164 0.0
C1114 C 0.15761 0.59746 0.81758 0.0
C1115 C 0.16761 0.60009 0.77026 0.0
C1116 C 0.1838 0.63156 0.75467 0.0
C1117 C 0.21539 0.6412 0.74084 0.0
C1118 C 0.16791 0.63682 0.71266 0.0
C1119 C 0.18229 0.64613 0.80127 0.0
C1120 C 0.16683 0.62604 0.83696 0.0
C1121 C 0.1646 0.63432 0.88436 0.0
C1122 C 0.17862 0.66396 0.89563 0.0
C1123 C 0.19458 0.68489 0.85963 0.0
C1124 C 0.19608 0.67577 0.81177 0.0
H1125 H 0.58322 0.30009 0.29527 0.0
H1126 H 0.5038 0.21964 0.32552 0.0
H1127 H 0.53099 0.19331 0.32274 0.0
H1128 H 0.61463 0.27 0.21254 0.0
H1129 H 0.65109 0.29308 0.23454 0.0
H1130 H 0.62518 0.30543 0.23671 0.0
H1131 H 0.63396 0.31491 0.32947 0.0
H1132 H 0.66003 0.30282 0.32764 0.0
H1133 H 0.62966 0.28603 0.36889 0.0
H1134 H 0.56704 0.17629 0.32124 0.0
H1135 H 0.60997 0.16983 0.32276 0.0
H1136 H 0.66591 0.26113 0.29268 0.0
C1137 C 0.57156 0.27696 0.30153 0.0
C1138 C 0.54136 0.26188 0.31058 0.0
C1139 C 0.52684 0.23155 0.31794 0.0
C1140 C 0.5421 0.21644 0.31651 0.0
C1141 C 0.57183 0.23198 0.30734 0.0
C1142 C 0.58643 0.26156 0.29999 0.0
C1143 C 0.61859 0.27326 0.29226 0.0
C1144 C 0.62791 0.2862 0.24096 0.0
C1145 C 0.63661 0.29556 0.33194 0.0
C1146 C 0.61991 0.24567 0.29744 0.0
C1147 C 0.59263 0.22208 0.30577 0.0
C1148 C 0.58843 0.19449 0.31413 0.0
C1149 C 0.61281 0.19099 0.31482 0.0
C1150 C 0.64085 0.2149 0.30699 0.0
C1151 C 0.64448 0.24249 0.29763 0.0
H1152 H 0.41473 0.62556 0.69274 0.0
H1153 H 0.44686 0.6592 0.83767 0.0
H1154 H 0.39859 0.62636 0.87223 0.0
H1155 H 0.34384 0.61698 0.70788 0.0
H1156 H 0.32527 0.58356 0.67384 0.0
H1157 H 0.36252 0.6095 0.66015 0.0
H1158 H 0.37658 0.57 0.67349 0.0
H1159 H 0.33936 0.54397 0.68743 0.0
H1160 H 0.36765 0.55058 0.7304 0.0
H1161 H 0.34681 0.59225 0.89094 0.0
H1162 H 0.29408 0.55698 0.89265 0.0
H1163 H 0.29534 0.54295 0.73721 0.0
C1164 C 0.41147 0.62583 0.73168 0.0
C1165 C 0.43446 0.64465 0.76269 0.0
C1166 C 0.42954 0.64459 0.81349 0.0
C1167 C 0.40223 0.62611 0.83344 0.0
C1168 C 0.38004 0.6076 0.80217 0.0
C1169 C 0.38427 0.6071 0.75245 0.0
C1170 C 0.35651 0.58497 0.72732 0.0
C1171 C 0.34644 0.59964 0.6901 0.0
C1172 C 0.36026 0.56096 0.70324 0.0
C1173 C 0.3361 0.57349 0.77061 0.0
C1174 C 0.35015 0.58698 0.81337 0.0
C1175 C 0.3356 0.58124 0.85783 0.0
C1176 C 0.30577 0.56131 0.85854 0.0
C1177 C 0.29099 0.54713 0.81528 0.0
C1178 C 0.30642 0.55308 0.77091 0.0
H1179 H 0.76453 0.28755 0.27744 0.0
H1180 H 0.85042 0.3109 0.32829 0.0
H1181 H 0.87131 0.35611 0.27972 0.0
H1182 H 0.78501 0.32234 0.15358 0.0
H1183 H 0.75909 0.33461 0.15806 0.0
H1184 H 0.75183 0.30138 0.18723 0.0
H1185 H 0.74483 0.32061 0.27016 0.0
H1186 H 0.75163 0.35353 0.24113 0.0
H1187 H 0.77321 0.35501 0.29287 0.0
H1188 H 0.88185 0.40056 0.23391 0.0
H1189 H 0.88079 0.44418 0.2076 0.0
H1190 H 0.78728 0.39325 0.19184 0.0
C1191 C 0.78782 0.30188 0.2769 0.0
C1192 C 0.80611 0.29583 0.30552 0.0
C1193 C 0.83632 0.31533 0.30601 0.0
C1194 C 0.84827 0.34076 0.27819 0.0
C1195 C 0.82959 0.34634 0.25057 0.0
C1196 C 0.79992 0.32759 0.25029 0.0
C1197 C 0.78408 0.34076 0.22478 0.0
C1198 C 0.76913 0.32376 0.17813 0.0
C1199 C 0.76218 0.3426 0.25931 0.0
C1200 C 0.80932 0.37043 0.21282 0.0
C1201 C 0.83548 0.3728 0.22628 0.0
C1202 C 0.86157 0.39888 0.22273 0.0
C1203 C 0.86075 0.42354 0.20779 0.0
C1204 C 0.83393 0.42209 0.19784 0.0
C1205 C 0.80815 0.3949 0.19803 0.0
loop_
_geom_bond_atom_site_label_1
_geom_bond_atom_site_label_2
_geom_bond_distance
_geom_bond_site_symmetry_2
_ccdc_geom_bond_type
C0 C1 1.351 . S
C0 N3 1.368 . S
C0 H5 0.931 . S
C1 C0 1.351 . S
C1 N2 1.373 . S
C1 H29 0.930 . S
N2 C1 1.373 . S
N2 C4 1.340 . S
N3 C0 1.368 . S
N3 C4 1.321 . S
N3 Co6 2.135 . S
C4 N2 1.340 . S
C4 N3 1.321 . S
C4 H28 0.930 . S
H5 C0 0.931 . S
Co6 N3 2.135 . S
Co6 N9 2.121 . S
Co6 O14 2.055 . S
Co6 O17 2.039 . S
Co6 N20 2.140 . S
C7 O8 1.227 . S
C7 O17 1.265 . S
O8 C7 1.227 . S
N9 Co6 2.121 . S
N9 C11 1.375 . S
N9 C12 1.313 . S
C10 C11 1.338 . S
C10 N13 1.377 . S
C10 H30 0.930 . S
C11 N9 1.375 . S
C11 C10 1.338 . S
C11 H15 0.931 . S
C12 N9 1.313 . S
C12 N13 1.344 . S
C12 H16 0.930 . S
N13 C10 1.377 . S
N13 C12 1.344 . S
O14 Co6 2.055 . S
O14 C18 1.253 . S
H15 C11 0.931 . S
H16 C12 0.930 . S
O17 Co6 2.039 . S
O17 C7 1.265 . S
C18 O14 1.253 . S
C18 O19 1.227 . S
O19 C18 1.227 . S
N20 Co6 2.140 . S
N20 C23 1.346 . S
N20 C24 1.345 . S
C21 C22 1.387 . S
C21 C25 1.391 . S
C22 C21 1.387 . S
C22 C23 1.369 . S
C22 H31 0.929 . S
C23 N20 1.346 . S
C23 C22 1.369 . S
C23 H26 0.928 . S
C24 N20 1.345 . S
C24 C25 1.371 . S
C24 H27 0.931 . S
C25 C21 1.391 . S
C25 C24 1.371 . S
C25 H32 0.930 . S
H26 C23 0.928 . S
H27 C24 0.931 . S
H28 C4 0.930 . S
H29 C1 0.930 . S
H30 C10 0.930 . S
H31 C22 0.929 . S
H32 C25 0.930 . S
C33 C34 1.351 . S
C33 N36 1.368 . S
C33 H38 0.931 . S
C34 C33 1.351 . S
C34 N35 1.373 . S
C34 H62 0.930 . S
N35 C34 1.373 . S
N35 C37 1.340 . S
N36 C33 1.368 . S
N36 C37 1.321 . S
N36 Co39 2.135 . S
C37 N35 1.340 . S
C37 N36 1.321 . S
C37 H61 0.930 . S
H38 C33 0.931 . S
Co39 N36 2.135 . S
Co39 N42 2.121 . S
Co39 O47 2.055 . S
Co39 O50 2.039 . S
Co39 N53 2.140 . S
C40 O41 1.227 . S
C40 O50 1.265 . S
O41 C40 1.227 . S
N42 Co39 2.121 . S
N42 C44 1.375 . S
N42 C45 1.313 . S
C43 C44 1.338 . S
C43 N46 1.377 . S
C43 H63 0.930 . S
C44 N42 1.375 . S
C44 C43 1.338 . S
C44 H48 0.931 . S
C45 N42 1.313 . S
C45 N46 1.344 . S
C45 H49 0.930 . S
N46 C43 1.377 . S
N46 C45 1.344 . S
O47 Co39 2.055 . S
O47 C51 1.253 . S
H48 C44 0.931 . S
H49 C45 0.930 . S
O50 Co39 2.039 . S
O50 C40 1.265 . S
C51 O47 1.253 . S
C51 O52 1.227 . S
O52 C51 1.227 . S
N53 Co39 2.140 . S
N53 C56 1.346 . S
N53 C57 1.345 . S
C54 C55 1.387 . S
C54 C58 1.391 . S
C55 C54 1.387 . S
C55 C56 1.369 . S
C55 H64 0.929 . S
C56 N53 1.346 . S
C56 C55 1.369 . S
C56 H59 0.928 . S
C57 N53 1.345 . S
C57 C58 1.371 . S
C57 H60 0.931 . S
C58 C54 1.391 . S
C58 C57 1.371 . S
C58 H65 0.930 . S
H59 C56 0.928 . S
H60 C57 0.931 . S
H61 C37 0.930 . S
H62 C34 0.930 . S
H63 C43 0.930 . S
H64 C55 0.929 . S
H65 C58 0.930 . S
C66 C67 1.351 . S
C66 N69 1.368 . S
C66 H71 0.931 . S
C67 C66 1.351 . S
C67 N68 1.373 . S
C67 H95 0.930 . S
N68 C67 1.373 . S
N68 C70 1.340 . S
N69 C66 1.368 . S
N69 C70 1.321 . S
N69 Co72 2.135 . S
C70 N68 1.340 . S
C70 N69 1.321 . S
C70 H94 0.930 . S
H71 C66 0.931 . S
Co72 N69 2.135 . S
Co72 N75 2.121 . S
Co72 O80 2.055 . S
Co72 O83 2.039 . S
Co72 N86 2.140 . S
C73 O74 1.227 . S
C73 O83 1.265 . S
O74 C73 1.227 . S
N75 Co72 2.121 . S
N75 C77 1.375 . S
N75 C78 1.313 . S
C76 C77 1.338 . S
C76 N79 1.377 . S
C76 H96 0.930 . S
C77 N75 1.375 . S
C77 C76 1.338 . S
C77 H81 0.931 . S
C78 N75 1.313 . S
C78 N79 1.344 . S
C78 H82 0.930 . S
N79 C76 1.377 . S
N79 C78 1.344 . S
O80 Co72 2.055 . S
O80 C84 1.253 . S
H81 C77 0.931 . S
H82 C78 0.930 . S
O83 Co72 2.039 . S
O83 C73 1.265 . S
C84 O80 1.253 . S
C84 O85 1.227 . S
O85 C84 1.227 . S
N86 Co72 2.140 . S
N86 C89 1.346 . S
N86 C90 1.345 . S
C87 C88 1.387 . S
C87 C91 1.391 . S
C88 C87 1.387 . S
C88 C89 1.369 . S
C88 H97 0.929 . S
C89 N86 1.346 . S
C89 C88 1.369 . S
C89 H92 0.928 . S
C90 N86 1.345 . S
C90 C91 1.371 . S
C90 H93 0.931 . S
C91 C87 1.391 . S
C91 C90 1.371 . S
C91 H98 0.930 . S
H92 C89 0.928 . S
H93 C90 0.931 . S
H94 C70 0.930 . S
H95 C67 0.930 . S
H96 C76 0.930 . S
H97 C88 0.929 . S
H98 C91 0.930 . S
C99 C100 1.351 . S
C99 N102 1.368 . S
C99 H104 0.931 . S
C100 C99 1.351 . S
C100 N101 1.373 . S
C100 H128 0.930 . S
N101 C100 1.373 . S
N101 C103 1.340 . S
N102 C99 1.368 . S
N102 C103 1.321 . S
N102 Co105 2.135 . S
C103 N101 1.340 . S
C103 N102 1.321 . S
C103 H127 0.930 . S
H104 C99 0.931 . S
Co105 N102 2.135 . S
Co105 N108 2.121 . S
Co105 O113 2.055 . S
Co105 O116 2.039 . S
Co105 N119 2.140 . S
C106 O107 1.227 . S
C106 O116 1.265 . S
O107 C106 1.227 . S
N108 Co105 2.121 . S
N108 C110 1.375 . S
N108 C111 1.313 . S
C109 C110 1.338 . S
C109 N112 1.377 . S
C109 H129 0.930 . S
C110 N108 1.375 . S
C110 C109 1.338 . S
C110 H114 0.931 . S
C111 N108 1.313 . S
C111 N112 1.344 . S
C111 H115 0.930 . S
N112 C109 1.377 . S
N112 C111 1.344 . S
O113 Co105 2.055 . S
O113 C117 1.253 . S
H114 C110 0.931 . S
H115 C111 0.930 . S
O116 Co105 2.039 . S
O116 C106 1.265 . S
C117 O113 1.253 . S
C117 O118 1.227 . S
O118 C117 1.227 . S
N119 Co105 2.140 . S
N119 C122 1.346 . S
N119 C123 1.345 . S
C120 C121 1.387 . S
C120 C124 1.391 . S
C121 C120 1.387 . S
C121 C122 1.369 . S
C121 H130 0.929 . S
C122 N119 1.346 . S
C122 C121 1.369 . S
C122 H125 0.928 . S
C123 N119 1.345 . S
C123 C124 1.371 . S
C123 H126 0.931 . S
C124 C120 1.391 . S
C124 C123 1.371 . S
C124 H131 0.930 . S
H125 C122 0.928 . S
H126 C123 0.931 . S
H127 C103 0.930 . S
H128 C100 0.930 . S
H129 C109 0.930 . S
H130 C121 0.929 . S
H131 C124 0.930 . S
C132 C133 1.351 . S
C132 N135 1.368 . S
C132 H137 0.931 . S
C133 C132 1.351 . S
C133 N134 1.373 . S
C133 H161 0.930 . S
N134 C133 1.373 . S
N134 C136 1.340 . S
N135 C132 1.368 . S
N135 C136 1.321 . S
N135 Co138 2.135 . S
C136 N134 1.340 . S
C136 N135 1.321 . S
C136 H160 0.930 . S
H137 C132 0.931 . S
Co138 N135 2.135 . S
Co138 N141 2.121 . S
Co138 O146 2.055 . S
Co138 O149 2.039 . S
Co138 N152 2.140 . S
C139 O140 1.227 . S
C139 O149 1.265 . S
O140 C139 1.227 . S
N141 Co138 2.121 . S
N141 C143 1.375 . S
N141 C144 1.313 . S
C142 C143 1.338 . S
C142 N145 1.377 . S
C142 H162 0.930 . S
C143 N141 1.375 . S
C143 C142 1.338 . S
C143 H147 0.931 . S
C144 N141 1.313 . S
C144 N145 1.344 . S
C144 H148 0.930 . S
N145 C142 1.377 . S
N145 C144 1.344 . S
O146 Co138 2.055 . S
O146 C150 1.253 . S
H147 C143 0.931 . S
H148 C144 0.930 . S
O149 Co138 2.039 . S
O149 C139 1.265 . S
C150 O146 1.253 . S
C150 O151 1.227 . S
O151 C150 1.227 . S
N152 Co138 2.140 . S
N152 C155 1.346 . S
N152 C156 1.345 . S
C153 C154 1.387 . S
C153 C157 1.391 . S
C154 C153 1.387 . S
C154 C155 1.369 . S
C154 H163 0.929 . S
C155 N152 1.346 . S
C155 C154 1.369 . S
C155 H158 0.928 . S
C156 N152 1.345 . S
C156 C157 1.371 . S
C156 H159 0.931 . S
C157 C153 1.391 . S
C157 C156 1.371 . S
C157 H164 0.930 . S
H158 C155 0.928 . S
H159 C156 0.931 . S
H160 C136 0.930 . S
H161 C133 0.930 . S
H162 C142 0.930 . S
H163 C154 0.929 . S
H164 C157 0.930 . S
C165 C166 1.351 . S
C165 N168 1.368 . S
C165 H170 0.931 . S
C166 C165 1.351 . S
C166 N167 1.373 . S
C166 H194 0.930 . S
N167 C166 1.373 . S
N167 C169 1.340 . S
N168 C165 1.368 . S
N168 C169 1.321 . S
N168 Co171 2.135 . S
C169 N167 1.340 . S
C169 N168 1.321 . S
C169 H193 0.930 . S
H170 C165 0.931 . S
Co171 N168 2.135 . S
Co171 N174 2.121 . S
Co171 O179 2.055 . S
Co171 O182 2.039 . S
Co171 N185 2.140 . S
C172 O173 1.227 . S
C172 O182 1.265 . S
O173 C172 1.227 . S
N174 Co171 2.121 . S
N174 C176 1.375 . S
N174 C177 1.313 . S
C175 C176 1.338 . S
C175 N178 1.377 . S
C175 H195 0.930 . S
C176 N174 1.375 . S
C176 C175 1.338 . S
C176 H180 0.931 . S
C177 N174 1.313 . S
C177 N178 1.344 . S
C177 H181 0.930 . S
N178 C175 1.377 . S
N178 C177 1.344 . S
O179 Co171 2.055 . S
O179 C183 1.253 . S
H180 C176 0.931 . S
H181 C177 0.930 . S
O182 Co171 2.039 . S
O182 C172 1.265 . S
C183 O179 1.253 . S
C183 O184 1.227 . S
O184 C183 1.227 . S
N185 Co171 2.140 . S
N185 C188 1.346 . S
N185 C189 1.345 . S
C186 C187 1.387 . S
C186 C190 1.391 . S
C187 C186 1.387 . S
C187 C188 1.369 . S
C187 H196 0.929 . S
C188 N185 1.346 . S
C188 C187 1.369 . S
C188 H191 0.928 . S
C189 N185 1.345 . S
C189 C190 1.371 . S
C189 H192 0.931 . S
C190 C186 1.391 . S
C190 C189 1.371 . S
C190 H197 0.930 . S
H191 C188 0.928 . S
H192 C189 0.931 . S
H193 C169 0.930 . S
H194 C166 0.930 . S
H195 C175 0.930 . S
H196 C187 0.929 . S
H197 C190 0.930 . S
C198 C199 1.351 . S
C198 N201 1.368 . S
C198 H203 0.931 . S
C199 C198 1.351 . S
C199 N200 1.373 . S
C199 H227 0.930 . S
N200 C199 1.373 . S
N200 C202 1.340 . S
N201 C198 1.368 . S
N201 C202 1.321 . S
N201 Co204 2.135 . S
C202 N200 1.340 . S
C202 N201 1.321 . S
C202 H226 0.930 . S
H203 C198 0.931 . S
Co204 N201 2.135 . S
Co204 N207 2.121 . S
Co204 O212 2.055 . S
Co204 O215 2.039 . S
Co204 N218 2.140 . S
C205 O206 1.227 . S
C205 O215 1.265 . S
O206 C205 1.227 . S
N207 Co204 2.121 . S
N207 C209 1.375 . S
N207 C210 1.313 . S
C208 C209 1.338 . S
C208 N211 1.377 . S
C208 H228 0.930 . S
C209 N207 1.375 . S
C209 C208 1.338 . S
C209 H213 0.931 . S
C210 N207 1.313 . S
C210 N211 1.344 . S
C210 H214 0.930 . S
N211 C208 1.377 . S
N211 C210 1.344 . S
O212 Co204 2.055 . S
O212 C216 1.253 . S
H213 C209 0.931 . S
H214 C210 0.930 . S
O215 Co204 2.039 . S
O215 C205 1.265 . S
C216 O212 1.253 . S
C216 O217 1.227 . S
O217 C216 1.227 . S
N218 Co204 2.140 . S
N218 C221 1.346 . S
N218 C222 1.345 . S
C219 C220 1.387 . S
C219 C223 1.391 . S
C220 C219 1.387 . S
C220 C221 1.369 . S
C220 H229 0.929 . S
C221 N218 1.346 . S
C221 C220 1.369 . S
C221 H224 0.928 . S
C222 N218 1.345 . S
C222 C223 1.371 . S
C222 H225 0.931 . S
C223 C219 1.391 . S
C223 C222 1.371 . S
C223 H230 0.930 . S
H224 C221 0.928 . S
H225 C222 0.931 . S
H226 C202 0.930 . S
H227 C199 0.930 . S
H228 C208 0.930 . S
H229 C220 0.929 . S
H230 C223 0.930 . S
C231 C232 1.351 . S
C231 N234 1.368 . S
C231 H236 0.931 . S
C232 C231 1.351 . S
C232 N233 1.373 . S
C232 H260 0.930 . S
N233 C232 1.373 . S
N233 C235 1.340 . S
N234 C231 1.368 . S
N234 C235 1.321 . S
N234 Co237 2.135 . S
C235 N233 1.340 . S
C235 N234 1.321 . S
C235 H259 0.930 . S
H236 C231 0.931 . S
Co237 N234 2.135 . S
Co237 N240 2.121 . S
Co237 O245 2.055 . S
Co237 O248 2.039 . S
Co237 N251 2.140 . S
C238 O239 1.227 . S
C238 O248 1.265 . S
O239 C238 1.227 . S
N240 Co237 2.121 . S
N240 C242 1.375 . S
N240 C243 1.313 . S
C241 C242 1.338 . S
C241 N244 1.377 . S
C241 H261 0.930 . S
C242 N240 1.375 . S
C242 C241 1.338 . S
C242 H246 0.931 . S
C243 N240 1.313 . S
C243 N244 1.344 . S
C243 H247 0.930 . S
N244 C241 1.377 . S
N244 C243 1.344 . S
O245 Co237 2.055 . S
O245 C249 1.253 . S
H246 C242 0.931 . S
H247 C243 0.930 . S
O248 Co237 2.039 . S
O248 C238 1.265 . S
C249 O245 1.253 . S
C249 O250 1.227 . S
O250 C249 1.227 . S
N251 Co237 2.140 . S
N251 C254 1.346 . S
N251 C255 1.345 . S
C252 C253 1.387 . S
C252 C256 1.391 . S
C253 C252 1.387 . S
C253 C254 1.369 . S
C253 H262 0.929 . S
C254 N251 1.346 . S
C254 C253 1.369 . S
C254 H257 0.928 . S
C255 N251 1.345 . S
C255 C256 1.371 . S
C255 H258 0.931 . S
C256 C252 1.391 . S
C256 C255 1.371 . S
C256 H263 0.930 . S
H257 C254 0.928 . S
H258 C255 0.931 . S
H259 C235 0.930 . S
H260 C232 0.930 . S
H261 C241 0.930 . S
H262 C253 0.929 . S
H263 C256 0.930 . S
C264 C265 1.351 . S
C264 N267 1.368 . S
C264 H269 0.931 . S
C265 C264 1.351 . S
C265 N266 1.373 . S
C265 H293 0.930 . S
N266 C265 1.373 . S
N266 C268 1.340 . S
N267 C264 1.368 . S
N267 C268 1.321 . S
N267 Co270 2.135 . S
C268 N266 1.340 . S
C268 N267 1.321 . S
C268 H292 0.930 . S
H269 C264 0.931 . S
Co270 N267 2.135 . S
Co270 N273 2.121 . S
Co270 O278 2.055 . S
Co270 O281 2.039 . S
Co270 N284 2.140 . S
C271 O272 1.227 . S
C271 O281 1.265 . S
O272 C271 1.227 . S
N273 Co270 2.121 . S
N273 C275 1.375 . S
N273 C276 1.313 . S
C274 C275 1.338 . S
C274 N277 1.377 . S
C274 H294 0.930 . S
C275 N273 1.375 . S
C275 C274 1.338 . S
C275 H279 0.931 . S
C276 N273 1.313 . S
C276 N277 1.344 . S
C276 H280 0.930 . S
N277 C274 1.377 . S
N277 C276 1.344 . S
O278 Co270 2.055 . S
O278 C282 1.253 . S
H279 C275 0.931 . S
H280 C276 0.930 . S
O281 Co270 2.039 . S
O281 C271 1.265 . S
C282 O278 1.253 . S
C282 O283 1.227 . S
O283 C282 1.227 . S
N284 Co270 2.140 . S
N284 C287 1.346 . S
N284 C288 1.345 . S
C285 C286 1.387 . S
C285 C289 1.391 . S
C286 C285 1.387 . S
C286 C287 1.369 . S
C286 H295 0.929 . S
C287 N284 1.346 . S
C287 C286 1.369 . S
C287 H290 0.928 . S
C288 N284 1.345 . S
C288 C289 1.371 . S
C288 H291 0.931 . S
C289 C285 1.391 . S
C289 C288 1.371 . S
C289 H296 0.930 . S
H290 C287 0.928 . S
H291 C288 0.931 . S
H292 C268 0.930 . S
H293 C265 0.930 . S
H294 C274 0.930 . S
H295 C286 0.929 . S
H296 C289 0.930 . S
C297 C298 1.351 . S
C297 N300 1.368 . S
C297 H302 0.931 . S
C298 C297 1.351 . S
C298 N299 1.373 . S
C298 H326 0.930 . S
N299 C298 1.373 . S
N299 C301 1.340 . S
N300 C297 1.368 . S
N300 C301 1.321 . S
N300 Co303 2.135 . S
C301 N299 1.340 . S
C301 N300 1.321 . S
C301 H325 0.930 . S
H302 C297 0.931 . S
Co303 N300 2.135 . S
Co303 N306 2.121 . S
Co303 O311 2.055 . S
Co303 O314 2.039 . S
Co303 N317 2.140 . S
C304 O305 1.227 . S
C304 O314 1.265 . S
O305 C304 1.227 . S
N306 Co303 2.121 . S
N306 C308 1.375 . S
N306 C309 1.313 . S
C307 C308 1.338 . S
C307 N310 1.377 . S
C307 H327 0.930 . S
C308 N306 1.375 . S
C308 C307 1.338 . S
C308 H312 0.931 . S
C309 N306 1.313 . S
C309 N310 1.344 . S
C309 H313 0.930 . S
N310 C307 1.377 . S
N310 C309 1.344 . S
O311 Co303 2.055 . S
O311 C315 1.253 . S
H312 C308 0.931 . S
H313 C309 0.930 . S
O314 Co303 2.039 . S
O314 C304 1.265 . S
C315 O311 1.253 . S
C315 O316 1.227 . S
O316 C315 1.227 . S
N317 Co303 2.140 . S
N317 C320 1.346 . S
N317 C321 1.345 . S
C318 C319 1.387 . S
C318 C322 1.391 . S
C319 C318 1.387 . S
C319 C320 1.369 . S
C319 H328 0.929 . S
C320 N317 1.346 . S
C320 C319 1.369 . S
C320 H323 0.928 . S
C321 N317 1.345 . S
C321 C322 1.371 . S
C321 H324 0.931 . S
C322 C318 1.391 . S
C322 C321 1.371 . S
C322 H329 0.930 . S
H323 C320 0.928 . S
H324 C321 0.931 . S
H325 C301 0.930 . S
H326 C298 0.930 . S
H327 C307 0.930 . S
H328 C319 0.929 . S
H329 C322 0.930 . S
C330 C331 1.351 . S
C330 N333 1.368 . S
C330 H335 0.931 . S
C331 C330 1.351 . S
C331 N332 1.373 . S
C331 H359 0.930 . S
N332 C331 1.373 . S
N332 C334 1.340 . S
N333 C330 1.368 . S
N333 C334 1.321 . S
N333 Co336 2.135 . S
C334 N332 1.340 . S
C334 N333 1.321 . S
C334 H358 0.930 . S
H335 C330 0.931 . S
Co336 N333 2.135 . S
Co336 N339 2.121 . S
Co336 O344 2.055 . S
Co336 O347 2.039 . S
Co336 N350 2.140 . S
C337 O338 1.227 . S
C337 O347 1.265 . S
O338 C337 1.227 . S
N339 Co336 2.121 . S
N339 C341 1.375 . S
N339 C342 1.313 . S
C340 C341 1.338 . S
C340 N343 1.377 . S
C340 H360 0.930 . S
C341 N339 1.375 . S
C341 C340 1.338 . S
C341 H345 0.931 . S
C342 N339 1.313 . S
C342 N343 1.344 . S
C342 H346 0.930 . S
N343 C340 1.377 . S
N343 C342 1.344 . S
O344 Co336 2.055 . S
O344 C348 1.253 . S
H345 C341 0.931 . S
H346 C342 0.930 . S
O347 Co336 2.039 . S
O347 C337 1.265 . S
C348 O344 1.253 . S
C348 O349 1.227 . S
O349 C348 1.227 . S
N350 Co336 2.140 . S
N350 C353 1.346 . S
N350 C354 1.345 . S
C351 C352 1.387 . S
C351 C355 1.391 . S
C352 C351 1.387 . S
C352 C353 1.369 . S
C352 H361 0.929 . S
C353 N350 1.346 . S
C353 C352 1.369 . S
C353 H356 0.928 . S
C354 N350 1.345 . S
C354 C355 1.371 . S
C354 H357 0.931 . S
C355 C351 1.391 . S
C355 C354 1.371 . S
C355 H362 0.930 . S
H356 C353 0.928 . S
H357 C354 0.931 . S
H358 C334 0.930 . S
H359 C331 0.930 . S
H360 C340 0.930 . S
H361 C352 0.929 . S
H362 C355 0.930 . S
C363 C364 1.351 . S
C363 N366 1.368 . S
C363 H368 0.931 . S
C364 C363 1.351 . S
C364 N365 1.373 . S
C364 H392 0.930 . S
N365 C364 1.373 . S
N365 C367 1.340 . S
N366 C363 1.368 . S
N366 C367 1.321 . S
N366 Co369 2.135 . S
C367 N365 1.340 . S
C367 N366 1.321 . S
C367 H391 0.930 . S
H368 C363 0.931 . S
Co369 N366 2.135 . S
Co369 N372 2.121 . S
Co369 O377 2.055 . S
Co369 O380 2.039 . S
Co369 N383 2.140 . S
C370 O371 1.227 . S
C370 O380 1.265 . S
O371 C370 1.227 . S
N372 Co369 2.121 . S
N372 C374 1.375 . S
N372 C375 1.313 . S
C373 C374 1.338 . S
C373 N376 1.377 . S
C373 H393 0.930 . S
C374 N372 1.375 . S
C374 C373 1.338 . S
C374 H378 0.931 . S
C375 N372 1.313 . S
C375 N376 1.344 . S
C375 H379 0.930 . S
N376 C373 1.377 . S
N376 C375 1.344 . S
O377 Co369 2.055 . S
O377 C381 1.253 . S
H378 C374 0.931 . S
H379 C375 0.930 . S
O380 Co369 2.039 . S
O380 C370 1.265 . S
C381 O377 1.253 . S
C381 O382 1.227 . S
O382 C381 1.227 . S
N383 Co369 2.140 . S
N383 C386 1.346 . S
N383 C387 1.345 . S
C384 C385 1.387 . S
C384 C388 1.391 . S
C385 C384 1.387 . S
C385 C386 1.369 . S
C385 H394 0.929 . S
C386 N383 1.346 . S
C386 C385 1.369 . S
C386 H389 0.928 . S
C387 N383 1.345 . S
C387 C388 1.371 . S
C387 H390 0.931 . S
C388 C384 1.391 . S
C388 C387 1.371 . S
C388 H395 0.930 . S
H389 C386 0.928 . S
H390 C387 0.931 . S
H391 C367 0.930 . S
H392 C364 0.930 . S
H393 C373 0.930 . S
H394 C385 0.929 . S
H395 C388 0.930 . S
H396 C408 0.930 . S
H397 C410 0.930 . S
H398 C411 0.930 . S
H399 C415 0.959 . S
H400 C415 0.959 . S
H401 C415 0.961 . S
H402 C416 0.960 . S
H403 C416 0.961 . S
H404 C416 0.959 . S
H405 C419 0.929 . S
H406 C420 0.931 . S
H407 C422 0.930 . S
C408 H396 0.930 . S
C408 C409 1.399 . S
C408 C413 1.399 . S
C409 C408 1.399 . S
C409 C410 1.376 . S
C410 H397 0.930 . S
C410 C409 1.376 . S
C410 C411 1.388 . S
C411 H398 0.930 . S
C411 C410 1.388 . S
C411 C412 1.390 . S
C412 C411 1.390 . S
C412 C413 1.394 . S
C412 C418 1.465 . S
C413 C408 1.399 . S
C413 C412 1.394 . S
C413 C414 1.516 . S
C414 C413 1.516 . S
C414 C415 1.502 . S
C414 C416 1.561 . S
C414 C417 1.526 . S
C415 H399 0.959 . S
C415 H400 0.959 . S
C415 H401 0.961 . S
C415 C414 1.502 . S
C416 H402 0.960 . S
C416 H403 0.961 . S
C416 H404 0.959 . S
C416 C414 1.561 . S
C417 C414 1.526 . S
C417 C418 1.396 . S
C417 C422 1.390 . S
C418 C412 1.465 . S
C418 C417 1.396 . S
C418 C419 1.399 . S
C419 H405 0.929 . S
C419 C418 1.399 . S
C419 C420 1.385 . S
C420 H406 0.931 . S
C420 C419 1.385 . S
C420 C421 1.389 . S
C421 C420 1.389 . S
C421 C422 1.387 . S
C422 H407 0.930 . S
C422 C417 1.390 . S
C422 C421 1.387 . S
H423 C435 0.930 . S
H424 C437 0.930 . S
H425 C438 0.930 . S
H426 C442 0.960 . S
H427 C442 0.959 . S
H428 C442 0.961 1_655 S
H429 C443 0.974 . S
H430 C443 0.949 1_455 S
H431 C443 0.950 1_455 S
H432 C446 0.929 . S
H433 C447 0.931 . S
H434 C449 0.930 . S
C435 H423 0.930 . S
C435 C436 1.399 . S
C435 C440 1.399 . S
C436 C435 1.399 . S
C436 C437 1.376 . S
C437 H424 0.930 . S
C437 C436 1.376 . S
C437 C438 1.388 . S
C438 H425 0.930 . S
C438 C437 1.388 . S
C438 C439 1.390 . S
C439 C438 1.390 . S
C439 C440 1.394 . S
C439 C445 1.465 1_655 S
C440 C435 1.399 . S
C440 C439 1.394 . S
C440 C441 1.522 . S
C441 C440 1.522 . S
C441 C442 1.506 1_655 S
C441 C443 1.564 . S
C441 C444 1.518 1_655 S
C442 H426 0.960 . S
C442 H427 0.959 . S
C442 H428 0.961 1_455 S
C442 C441 1.506 1_455 S
C443 H429 0.974 . S
C443 H430 0.949 1_655 S
C443 H431 0.950 1_655 S
C443 C441 1.564 . S
C444 C441 1.518 1_455 S
C444 C445 1.396 . S
C444 C449 1.390 . S
C445 C439 1.465 1_455 S
C445 C444 1.396 . S
C445 C446 1.399 . S
C446 H432 0.929 . S
C446 C445 1.399 . S
C446 C447 1.385 . S
C447 H433 0.931 . S
C447 C446 1.385 . S
C447 C448 1.389 . S
C448 C447 1.389 . S
C448 C449 1.387 . S
C449 H434 0.930 . S
C449 C444 1.390 . S
C449 C448 1.387 . S
H450 C462 0.930 . S
H451 C464 0.930 . S
H452 C465 0.930 . S
H453 C469 0.960 . S
H454 C469 0.958 . S
H455 C469 0.962 1_545 S
H456 C470 0.974 . S
H457 C470 0.949 1_565 S
H458 C470 0.950 1_565 S
H459 C473 0.929 . S
H460 C474 0.931 . S
H461 C476 0.930 . S
C462 H450 0.930 . S
C462 C463 1.399 . S
C462 C467 1.399 . S
C463 C462 1.399 . S
C463 C464 1.376 . S
C464 H451 0.930 . S
C464 C463 1.376 . S
C464 C465 1.388 . S
C465 H452 0.930 . S
C465 C464 1.388 . S
C465 C466 1.390 . S
C466 C465 1.390 . S
C466 C467 1.394 . S
C466 C472 1.465 1_545 S
C467 C462 1.399 . S
C467 C466 1.394 . S
C467 C468 1.523 . S
C468 C467 1.523 . S
C468 C469 1.505 1_545 S
C468 C470 1.564 . S
C468 C471 1.518 1_545 S
C469 H453 0.960 . S
C469 H454 0.958 . S
C469 H455 0.962 1_565 S
C469 C468 1.505 1_565 S
C470 H456 0.974 . S
C470 H457 0.949 1_545 S
C470 H458 0.950 1_545 S
C470 C468 1.564 . S
C471 C468 1.518 1_565 S
C471 C472 1.396 . S
C471 C476 1.390 . S
C472 C466 1.465 1_565 S
C472 C471 1.396 . S
C472 C473 1.399 . S
C473 H459 0.929 . S
C473 C472 1.399 . S
C473 C474 1.385 . S
C474 H460 0.931 . S
C474 C473 1.385 . S
C474 C475 1.389 . S
C475 C474 1.389 . S
C475 C476 1.387 . S
C476 H461 0.930 . S
C476 C471 1.390 . S
C476 C475 1.387 . S
H477 C489 0.930 . S
H478 C491 0.930 . S
H479 C492 0.930 . S
H480 C496 0.959 . S
H481 C496 0.959 . S
H482 C496 0.961 . S
H483 C497 0.960 . S
H484 C497 0.961 . S
H485 C497 0.959 . S
H486 C500 0.929 . S
H487 C501 0.931 . S
H488 C503 0.930 . S
C489 H477 0.930 . S
C489 C490 1.399 . S
C489 C494 1.399 . S
C490 C489 1.399 . S
C490 C491 1.376 . S
C491 H478 0.930 . S
C491 C490 1.376 . S
C491 C492 1.388 . S
C492 H479 0.930 . S
C492 C491 1.388 . S
C492 C493 1.390 . S
C493 C492 1.390 . S
C493 C494 1.394 . S
C493 C499 1.465 . S
C494 C489 1.399 . S
C494 C493 1.394 . S
C494 C495 1.516 . S
C495 C494 1.516 . S
C495 C496 1.502 . S
C495 C497 1.561 . S
C495 C498 1.526 . S
C496 H480 0.959 . S
C496 H481 0.959 . S
C496 H482 0.961 . S
C496 C495 1.502 . S
C497 H483 0.960 . S
C497 H484 0.961 . S
C497 H485 0.959 . S
C497 C495 1.561 . S
C498 C495 1.526 . S
C498 C499 1.396 . S
C498 C503 1.390 . S
C499 C493 1.465 . S
C499 C498 1.396 . S
C499 C500 1.399 . S
C500 H486 0.929 . S
C500 C499 1.399 . S
C500 C501 1.385 . S
C501 H487 0.931 . S
C501 C500 1.385 . S
C501 C502 1.389 . S
C502 C501 1.389 . S
C502 C503 1.387 . S
C503 H488 0.930 . S
C503 C498 1.390 . S
C503 C502 1.387 . S
H504 C516 0.930 . S
H505 C518 0.930 . S
H506 C519 0.930 . S
H507 C523 0.959 . S
H508 C523 0.959 . S
H509 C523 0.961 1_455 S
H510 C524 0.933 1_455 S
H511 C524 0.989 . S
H512 C524 0.946 . S
H513 C527 0.929 . S
H514 C528 0.931 . S
H515 C530 0.930 . S
C516 H504 0.930 . S
C516 C517 1.399 . S
C516 C521 1.399 . S
C517 C516 1.399 . S
C517 C518 1.376 . S
C518 H505 0.930 . S
C518 C517 1.376 . S
C518 C519 1.388 . S
C519 H506 0.930 . S
C519 C518 1.388 . S
C519 C520 1.390 . S
C520 C519 1.390 . S
C520 C521 1.394 . S
C520 C526 1.465 1_455 S
C521 C516 1.399 . S
C521 C520 1.394 . S
C521 C522 1.501 1_455 S
C522 C521 1.501 1_655 S
C522 C523 1.511 . S
C522 C524 1.568 . S
C522 C525 1.538 . S
C523 H507 0.959 . S
C523 H508 0.959 . S
C523 H509 0.961 1_655 S
C523 C522 1.511 . S
C524 H510 0.933 1_655 S
C524 H511 0.989 . S
C524 H512 0.946 . S
C524 C522 1.568 . S
C525 C522 1.538 . S
C525 C526 1.396 . S
C525 C530 1.390 . S
C526 C520 1.465 1_655 S
C526 C525 1.396 . S
C526 C527 1.399 . S
C527 H513 0.929 . S
C527 C526 1.399 . S
C527 C528 1.385 . S
C528 H514 0.931 . S
C528 C527 1.385 . S
C528 C529 1.389 . S
C529 C528 1.389 . S
C529 C530 1.387 . S
C530 H515 0.930 . S
C530 C525 1.390 . S
C530 C529 1.387 . S
H531 C543 0.930 . S
H532 C545 0.930 . S
H533 C546 0.930 . S
H534 C550 0.959 . S
H535 C550 0.959 . S
H536 C550 0.961 1_565 S
H537 C551 0.933 1_565 S
H538 C551 0.990 . S
H539 C551 0.945 . S
H540 C554 0.929 . S
H541 C555 0.931 . S
H542 C557 0.930 . S
C543 H531 0.930 . S
C543 C544 1.399 . S
C543 C548 1.399 . S
C544 C543 1.399 . S
C544 C545 1.376 . S
C545 H532 0.930 . S
C545 C544 1.376 . S
C545 C546 1.388 . S
C546 H533 0.930 . S
C546 C545 1.388 . S
C546 C547 1.390 . S
C547 C546 1.390 . S
C547 C548 1.394 . S
C547 C553 1.465 1_565 S
C548 C543 1.399 . S
C548 C547 1.394 . S
C548 C549 1.501 1_565 S
C549 C548 1.501 1_545 S
C549 C550 1.511 . S
C549 C551 1.568 . S
C549 C552 1.538 . S
C550 H534 0.959 . S
C550 H535 0.959 . S
C550 H536 0.961 1_545 S
C550 C549 1.511 . S
C551 H537 0.933 1_545 S
C551 H538 0.990 . S
C551 H539 0.945 . S
C551 C549 1.568 . S
C552 C549 1.538 . S
C552 C553 1.396 . S
C552 C557 1.390 . S
C553 C547 1.465 1_545 S
C553 C552 1.396 . S
C553 C554 1.399 . S
C554 H540 0.929 . S
C554 C553 1.399 . S
C554 C555 1.385 . S
C555 H541 0.931 . S
C555 C554 1.385 . S
C555 C556 1.389 . S
C556 C555 1.389 . S
C556 C557 1.387 . S
C557 H542 0.930 . S
C557 C552 1.390 . S
C557 C556 1.387 . S
H558 C570 0.930 . S
H559 C572 0.930 . S
H560 C573 0.930 . S
H561 C577 0.959 . S
H562 C577 0.959 . S
H563 C577 0.961 1_556 S
H564 C578 0.960 . S
H565 C578 0.961 1_554 S
H566 C578 0.959 . S
H567 C581 0.929 . S
H568 C582 0.931 . S
H569 C584 0.930 . S
C570 H558 0.930 . S
C570 C571 1.399 . S
C570 C575 1.399 . S
C571 C570 1.399 . S
C571 C572 1.376 . S
C572 H559 0.930 . S
C572 C571 1.376 . S
C572 C573 1.388 . S
C573 H560 0.930 . S
C573 C572 1.388 . S
C573 C574 1.390 . S
C574 C573 1.390 . S
C574 C575 1.394 . S
C574 C580 1.465 1_556 S
C575 C570 1.399 . S
C575 C574 1.394 . S
C575 C576 1.516 1_556 S
C576 C575 1.516 1_554 S
C576 C577 1.502 . S
C576 C578 1.561 1_554 S
C576 C579 1.526 . S
C577 H561 0.959 . S
C577 H562 0.959 . S
C577 H563 0.961 1_554 S
C577 C576 1.502 . S
C578 H564 0.960 . S
C578 H565 0.961 1_556 S
C578 H566 0.959 . S
C578 C576 1.561 1_556 S
C579 C576 1.526 . S
C579 C580 1.396 . S
C579 C584 1.390 . S
C580 C574 1.465 1_554 S
C580 C579 1.396 . S
C580 C581 1.399 . S
C581 H567 0.929 . S
C581 C580 1.399 . S
C581 C582 1.385 . S
C582 H568 0.931 . S
C582 C581 1.385 . S
C582 C583 1.389 . S
C583 C582 1.389 . S
C583 C584 1.387 . S
C584 H569 0.930 . S
C584 C579 1.390 . S
C584 C583 1.387 . S
H585 C597 0.930 . S
H586 C599 0.930 . S
H587 C600 0.930 . S
H588 C604 0.959 . S
H589 C604 0.959 . S
H590 C604 0.961 . S
H591 C605 0.960 . S
H592 C605 0.961 . S
H593 C605 0.959 . S
H594 C608 0.929 . S
H595 C609 0.931 . S
H596 C611 0.930 . S
C597 H585 0.930 . S
C597 C598 1.399 . S
C597 C602 1.399 . S
C598 C597 1.399 . S
C598 C599 1.376 . S
C599 H586 0.930 . S
C599 C598 1.376 . S
C599 C600 1.388 . S
C600 H587 0.930 . S
C600 C599 1.388 . S
C600 C601 1.390 . S
C601 C600 1.390 . S
C601 C602 1.394 . S
C601 C607 1.465 . S
C602 C597 1.399 . S
C602 C601 1.394 . S
C602 C603 1.516 . S
C603 C602 1.516 . S
C603 C604 1.502 . S
C603 C605 1.561 . S
C603 C606 1.526 . S
C604 H588 0.959 . S
C604 H589 0.959 . S
C604 H590 0.961 . S
C604 C603 1.502 . S
C605 H591 0.960 . S
C605 H592 0.961 . S
C605 H593 0.959 . S
C605 C603 1.561 . S
C606 C603 1.526 . S
C606 C607 1.396 . S
C606 C611 1.390 . S
C607 C601 1.465 . S
C607 C606 1.396 . S
C607 C608 1.399 . S
C608 H594 0.929 . S
C608 C607 1.399 . S
C608 C609 1.385 . S
C609 H595 0.931 . S
C609 C608 1.385 . S
C609 C610 1.389 . S
C610 C609 1.389 . S
C610 C611 1.387 . S
C611 H596 0.930 . S
C611 C606 1.390 . S
C611 C610 1.387 . S
H612 C624 0.930 . S
H613 C626 0.930 . S
H614 C627 0.930 . S
H615 C631 0.959 . S
H616 C631 0.959 . S
H617 C631 0.961 1_554 S
H618 C632 0.960 1_554 S
H619 C632 0.961 . S
H620 C632 0.959 . S
H621 C635 0.929 . S
H622 C636 0.931 . S
H623 C638 0.930 . S
C624 H612 0.930 . S
C624 C625 1.399 . S
C624 C629 1.399 . S
C625 C624 1.399 . S
C625 C626 1.376 . S
C626 H613 0.930 . S
C626 C625 1.376 . S
C626 C627 1.388 . S
C627 H614 0.930 . S
C627 C626 1.388 . S
C627 C628 1.390 . S
C628 C627 1.390 . S
C628 C629 1.394 . S
C628 C634 1.465 1_554 S
C629 C624 1.399 . S
C629 C628 1.394 . S
C629 C630 1.516 1_554 S
C630 C629 1.516 1_556 S
C630 C631 1.502 . S
C630 C632 1.561 . S
C630 C633 1.526 . S
C631 H615 0.959 . S
C631 H616 0.959 . S
C631 H617 0.961 1_556 S
C631 C630 1.502 . S
C632 H618 0.960 1_556 S
C632 H619 0.961 . S
C632 H620 0.959 . S
C632 C630 1.561 . S
C633 C630 1.526 . S
C633 C634 1.396 . S
C633 C638 1.390 . S
C634 C628 1.465 1_556 S
C634 C633 1.396 . S
C634 C635 1.399 . S
C635 H621 0.929 . S
C635 C634 1.399 . S
C635 C636 1.385 . S
C636 H622 0.931 . S
C636 C635 1.385 . S
C636 C637 1.389 . S
C637 C636 1.389 . S
C637 C638 1.387 . S
C638 H623 0.930 . S
C638 C633 1.390 . S
C638 C637 1.387 . S
H639 C651 0.930 . S
H640 C653 0.930 . S
H641 C654 0.930 . S
H642 C658 0.959 . S
H643 C658 0.959 . S
H644 C658 0.961 . S
H645 C659 0.960 . S
H646 C659 0.961 . S
H647 C659 0.959 . S
H648 C662 0.929 . S
H649 C663 0.931 . S
H650 C665 0.930 . S
C651 H639 0.930 . S
C651 C652 1.399 . S
C651 C656 1.399 . S
C652 C651 1.399 . S
C652 C653 1.376 . S
C653 H640 0.930 . S
C653 C652 1.376 . S
C653 C654 1.388 . S
C654 H641 0.930 . S
C654 C653 1.388 . S
C654 C655 1.390 . S
C655 C654 1.390 . S
C655 C656 1.394 . S
C655 C661 1.465 . S
C656 C651 1.399 . S
C656 C655 1.394 . S
C656 C657 1.516 . S
C657 C656 1.516 . S
C657 C658 1.502 . S
C657 C659 1.561 . S
C657 C660 1.526 . S
C658 H642 0.959 . S
C658 H643 0.959 . S
C658 H644 0.961 . S
C658 C657 1.502 . S
C659 H645 0.960 . S
C659 H646 0.961 . S
C659 H647 0.959 . S
C659 C657 1.561 . S
C660 C657 1.526 . S
C660 C661 1.396 . S
C660 C665 1.390 . S
C661 C655 1.465 . S
C661 C660 1.396 . S
C661 C662 1.399 . S
C662 H648 0.929 . S
C662 C661 1.399 . S
C662 C663 1.385 . S
C663 H649 0.931 . S
C663 C662 1.385 . S
C663 C664 1.389 . S
C664 C663 1.389 . S
C664 C665 1.387 . S
C665 H650 0.930 . S
C665 C660 1.390 . S
C665 C664 1.387 . S
H666 C678 0.930 . S
H667 C680 0.930 . S
H668 C681 0.930 . S
H669 C685 0.959 . S
H670 C685 0.959 1_554 S
H671 C685 0.961 . S
H672 C686 0.960 . S
H673 C686 0.961 1_554 S
H674 C686 0.959 1_554 S
H675 C689 0.929 . S
H676 C690 0.931 . S
H677 C692 0.930 . S
C678 H666 0.930 . S
C678 C679 1.399 . S
C678 C683 1.399 . S
C679 C678 1.399 . S
C679 C680 1.376 . S
C680 H667 0.930 . S
C680 C679 1.376 . S
C680 C681 1.388 . S
C681 H668 0.930 . S
C681 C680 1.388 . S
C681 C682 1.390 . S
C682 C681 1.390 . S
C682 C683 1.394 . S
C682 C688 1.465 1_556 S
C683 C678 1.399 . S
C683 C682 1.394 . S
C683 C684 1.516 . S
C684 C683 1.516 . S
C684 C685 1.502 . S
C684 C686 1.561 . S
C684 C687 1.526 1_556 S
C685 H669 0.959 . S
C685 H670 0.959 1_556 S
C685 H671 0.961 . S
C685 C684 1.502 . S
C686 H672 0.960 . S
C686 H673 0.961 1_556 S
C686 H674 0.959 1_556 S
C686 C684 1.561 . S
C687 C684 1.526 1_554 S
C687 C688 1.396 . S
C687 C692 1.390 . S
C688 C682 1.465 1_554 S
C688 C687 1.396 . S
C688 C689 1.399 . S
C689 H675 0.929 . S
C689 C688 1.399 . S
C689 C690 1.385 . S
C690 H676 0.931 . S
C690 C689 1.385 . S
C690 C691 1.389 . S
C691 C690 1.389 . S
C691 C692 1.387 . S
C692 H677 0.930 . S
C692 C687 1.390 . S
C692 C691 1.387 . S
H693 C705 0.930 . S
H694 C707 0.930 . S
H695 C708 0.930 . S
H696 C712 0.959 . S
H697 C712 0.959 . S
H698 C712 0.961 . S
H699 C713 0.960 . S
H700 C713 0.961 . S
H701 C713 0.959 . S
H702 C716 0.929 . S
H703 C717 0.931 . S
H704 C719 0.930 . S
C705 H693 0.930 . S
C705 C706 1.399 . S
C705 C710 1.399 . S
C706 C705 1.399 . S
C706 C707 1.376 . S
C707 H694 0.930 . S
C707 C706 1.376 . S
C707 C708 1.388 . S
C708 H695 0.930 . S
C708 C707 1.388 . S
C708 C709 1.390 . S
C709 C708 1.390 . S
C709 C710 1.394 . S
C709 C715 1.465 . S
C710 C705 1.399 . S
C710 C709 1.394 . S
C710 C711 1.516 . S
C711 C710 1.516 . S
C711 C712 1.502 . S
C711 C713 1.561 . S
C711 C714 1.526 . S
C712 H696 0.959 . S
C712 H697 0.959 . S
C712 H698 0.961 . S
C712 C711 1.502 . S
C713 H699 0.960 . S
C713 H700 0.961 . S
C713 H701 0.959 . S
C713 C711 1.561 . S
C714 C711 1.526 . S
C714 C715 1.396 . S
C714 C719 1.390 . S
C715 C709 1.465 . S
C715 C714 1.396 . S
C715 C716 1.399 . S
C716 H702 0.929 . S
C716 C715 1.399 . S
C716 C717 1.385 . S
C717 H703 0.931 . S
C717 C716 1.385 . S
C717 C718 1.389 . S
C718 C717 1.389 . S
C718 C719 1.387 . S
C719 H704 0.930 . S
C719 C714 1.390 . S
C719 C718 1.387 . S
H720 C732 0.930 . S
H721 C734 0.930 . S
H722 C735 0.930 . S
H723 C739 0.962 . S
H724 C739 0.978 . S
H725 C739 0.940 1_554 S
H726 C740 0.954 1_554 S
H727 C740 0.966 . S
H728 C740 0.959 . S
H729 C743 0.929 . S
H730 C744 0.931 . S
H731 C746 0.930 . S
C732 H720 0.930 . S
C732 C733 1.399 . S
C732 C737 1.399 . S
C733 C732 1.399 . S
C733 C734 1.376 . S
C734 H721 0.930 . S
C734 C733 1.376 . S
C734 C735 1.388 . S
C735 H722 0.930 . S
C735 C734 1.388 . S
C735 C736 1.390 . S
C736 C735 1.390 . S
C736 C737 1.394 . S
C736 C742 1.465 1_554 S
C737 C732 1.399 . S
C737 C736 1.394 . S
C737 C738 1.516 1_554 S
C738 C737 1.516 1_556 S
C738 C739 1.502 . S
C738 C740 1.561 . S
C738 C741 1.526 . S
C739 H723 0.962 . S
C739 H724 0.978 . S
C739 H725 0.940 1_556 S
C739 C738 1.502 . S
C740 H726 0.954 1_556 S
C740 H727 0.966 . S
C740 H728 0.959 . S
C740 C738 1.561 . S
C741 C738 1.526 . S
C741 C742 1.396 . S
C741 C746 1.390 . S
C742 C736 1.465 1_556 S
C742 C741 1.396 . S
C742 C743 1.399 . S
C743 H729 0.929 . S
C743 C742 1.399 . S
C743 C744 1.385 . S
C744 H730 0.931 . S
C744 C743 1.385 . S
C744 C745 1.389 . S
C745 C744 1.389 . S
C745 C746 1.387 . S
C746 H731 0.930 . S
C746 C741 1.390 . S
C746 C745 1.387 . S
H747 C759 0.930 . S
H748 C761 0.930 . S
H749 C762 0.930 . S
H750 C766 0.959 . S
H751 C766 0.959 . S
H752 C766 0.961 . S
H753 C767 0.960 . S
H754 C767 0.961 . S
H755 C767 0.959 . S
H756 C770 0.929 . S
H757 C771 0.931 . S
H758 C773 0.930 . S
C759 H747 0.930 . S
C759 C760 1.399 . S
C759 C764 1.399 . S
C760 C759 1.399 . S
C760 C761 1.376 . S
C761 H748 0.930 . S
C761 C760 1.376 . S
C761 C762 1.388 . S
C762 H749 0.930 . S
C762 C761 1.388 . S
C762 C763 1.390 . S
C763 C762 1.390 . S
C763 C764 1.394 . S
C763 C769 1.465 . S
C764 C759 1.399 . S
C764 C763 1.394 . S
C764 C765 1.516 . S
C765 C764 1.516 . S
C765 C766 1.502 . S
C765 C767 1.561 . S
C765 C768 1.526 . S
C766 H750 0.959 . S
C766 H751 0.959 . S
C766 H752 0.961 . S
C766 C765 1.502 . S
C767 H753 0.960 . S
C767 H754 0.961 . S
C767 H755 0.959 . S
C767 C765 1.561 . S
C768 C765 1.526 . S
C768 C769 1.396 . S
C768 C773 1.390 . S
C769 C763 1.465 . S
C769 C768 1.396 . S
C769 C770 1.399 . S
C770 H756 0.929 . S
C770 C769 1.399 . S
C770 C771 1.385 . S
C771 H757 0.931 . S
C771 C770 1.385 . S
C771 C772 1.389 . S
C772 C771 1.389 . S
C772 C773 1.387 . S
C773 H758 0.930 . S
C773 C768 1.390 . S
C773 C772 1.387 . S
H774 C786 0.930 . S
H775 C788 0.930 . S
H776 C789 0.930 . S
H777 C793 0.959 . S
H778 C793 0.959 . S
H779 C793 0.961 1_556 S
H780 C794 0.951 1_556 S
H781 C794 0.969 . S
H782 C794 0.960 . S
H783 C797 0.929 . S
H784 C798 0.931 . S
H785 C800 0.930 . S
C786 H774 0.930 . S
C786 C787 1.399 . S
C786 C791 1.399 . S
C787 C786 1.399 . S
C787 C788 1.376 . S
C788 H775 0.930 . S
C788 C787 1.376 . S
C788 C789 1.388 . S
C789 H776 0.930 . S
C789 C788 1.388 . S
C789 C790 1.390 . S
C790 C789 1.390 . S
C790 C791 1.394 . S
C790 C796 1.465 1_556 S
C791 C786 1.399 . S
C791 C790 1.394 . S
C791 C792 1.513 1_556 S
C792 C791 1.513 1_554 S
C792 C793 1.502 . S
C792 C794 1.561 . S
C792 C795 1.529 . S
C793 H777 0.959 . S
C793 H778 0.959 . S
C793 H779 0.961 1_554 S
C793 C792 1.502 . S
C794 H780 0.951 1_554 S
C794 H781 0.969 . S
C794 H782 0.960 . S
C794 C792 1.561 . S
C795 C792 1.529 . S
C795 C796 1.396 . S
C795 C800 1.390 . S
C796 C790 1.465 1_554 S
C796 C795 1.396 . S
C796 C797 1.399 . S
C797 H783 0.929 . S
C797 C796 1.399 . S
C797 C798 1.385 . S
C798 H784 0.931 . S
C798 C797 1.385 . S
C798 C799 1.389 . S
C799 C798 1.389 . S
C799 C800 1.387 . S
C800 H785 0.930 . S
C800 C795 1.390 . S
C800 C799 1.387 . S
H801 C813 0.930 . S
H802 C815 0.930 . S
H803 C816 0.930 . S
H804 C820 0.959 . S
H805 C820 0.959 . S
H806 C820 0.961 . S
H807 C821 0.960 . S
H808 C821 0.961 . S
H809 C821 0.959 . S
H810 C824 0.929 . S
H811 C825 0.931 . S
H812 C827 0.930 . S
C813 H801 0.930 . S
C813 C814 1.399 . S
C813 C818 1.399 . S
C814 C813 1.399 . S
C814 C815 1.376 . S
C815 H802 0.930 . S
C815 C814 1.376 . S
C815 C816 1.388 . S
C816 H803 0.930 . S
C816 C815 1.388 . S
C816 C817 1.390 . S
C817 C816 1.390 . S
C817 C818 1.394 . S
C817 C823 1.465 . S
C818 C813 1.399 . S
C818 C817 1.394 . S
C818 C819 1.516 . S
C819 C818 1.516 . S
C819 C820 1.502 . S
C819 C821 1.561 . S
C819 C822 1.526 . S
C820 H804 0.959 . S
C820 H805 0.959 . S
C820 H806 0.961 . S
C820 C819 1.502 . S
C821 H807 0.960 . S
C821 H808 0.961 . S
C821 H809 0.959 . S
C821 C819 1.561 . S
C822 C819 1.526 . S
C822 C823 1.396 . S
C822 C827 1.390 . S
C823 C817 1.465 . S
C823 C822 1.396 . S
C823 C824 1.399 . S
C824 H810 0.929 . S
C824 C823 1.399 . S
C824 C825 1.385 . S
C825 H811 0.931 . S
C825 C824 1.385 . S
C825 C826 1.389 . S
C826 C825 1.389 . S
C826 C827 1.387 . S
C827 H812 0.930 . S
C827 C822 1.390 . S
C827 C826 1.387 . S
H828 C840 0.930 . S
H829 C842 0.930 . S
H830 C843 0.930 . S
H831 C847 0.962 . S
H832 C847 0.977 . S
H833 C847 0.942 1_556 S
H834 C848 0.957 1_556 S
H835 C848 0.963 . S
H836 C848 0.959 . S
H837 C851 0.929 . S
H838 C852 0.931 . S
H839 C854 0.930 . S
C840 H828 0.930 . S
C840 C841 1.399 . S
C840 C845 1.399 . S
C841 C840 1.399 . S
C841 C842 1.376 . S
C842 H829 0.930 . S
C842 C841 1.376 . S
C842 C843 1.388 . S
C843 H830 0.930 . S
C843 C842 1.388 . S
C843 C844 1.390 . S
C844 C843 1.390 . S
C844 C845 1.394 . S
C844 C850 1.465 1_556 S
C845 C840 1.399 . S
C845 C844 1.394 . S
C845 C846 1.517 1_556 S
C846 C845 1.517 1_554 S
C846 C847 1.502 . S
C846 C848 1.561 . S
C846 C849 1.525 . S
C847 H831 0.962 . S
C847 H832 0.977 . S
C847 H833 0.942 1_554 S
C847 C846 1.502 . S
C848 H834 0.957 1_554 S
C848 H835 0.963 . S
C848 H836 0.959 . S
C848 C846 1.561 . S
C849 C846 1.525 . S
C849 C850 1.396 . S
C849 C854 1.390 . S
C850 C844 1.465 1_554 S
C850 C849 1.396 . S
C850 C851 1.399 . S
C851 H837 0.929 . S
C851 C850 1.399 . S
C851 C852 1.385 . S
C852 H838 0.931 . S
C852 C851 1.385 . S
C852 C853 1.389 . S
C853 C852 1.389 . S
C853 C854 1.387 . S
C854 H839 0.930 . S
C854 C849 1.390 . S
C854 C853 1.387 . S
H855 C867 0.930 . S
H856 C869 0.930 . S
H857 C870 0.930 . S
H858 C874 0.959 . S
H859 C874 0.959 . S
H860 C874 0.961 . S
H861 C875 0.960 . S
H862 C875 0.961 . S
H863 C875 0.959 . S
H864 C878 0.929 . S
H865 C879 0.931 . S
H866 C881 0.930 . S
C867 H855 0.930 . S
C867 C868 1.399 . S
C867 C872 1.399 . S
C868 C867 1.399 . S
C868 C869 1.376 . S
C869 H856 0.930 . S
C869 C868 1.376 . S
C869 C870 1.388 . S
C870 H857 0.930 . S
C870 C869 1.388 . S
C870 C871 1.390 . S
C871 C870 1.390 . S
C871 C872 1.394 . S
C871 C877 1.465 . S
C872 C867 1.399 . S
C872 C871 1.394 . S
C872 C873 1.516 . S
C873 C872 1.516 . S
C873 C874 1.502 . S
C873 C875 1.561 . S
C873 C876 1.526 . S
C874 H858 0.959 . S
C874 H859 0.959 . S
C874 H860 0.961 . S
C874 C873 1.502 . S
C875 H861 0.960 . S
C875 H862 0.961 . S
C875 H863 0.959 . S
C875 C873 1.561 . S
C876 C873 1.526 . S
C876 C877 1.396 . S
C876 C881 1.390 . S
C877 C871 1.465 . S
C877 C876 1.396 . S
C877 C878 1.399 . S
C878 H864 0.929 . S
C878 C877 1.399 . S
C878 C879 1.385 . S
C879 H865 0.931 . S
C879 C878 1.385 . S
C879 C880 1.389 . S
C880 C879 1.389 . S
C880 C881 1.387 . S
C881 H866 0.930 . S
C881 C876 1.390 . S
C881 C880 1.387 . S
H882 C894 0.930 . S
H883 C896 0.930 . S
H884 C897 0.930 . S
H885 C901 0.959 . S
H886 C901 0.959 . S
H887 C901 0.961 . S
H888 C902 0.960 . S
H889 C902 0.961 . S
H890 C902 0.959 . S
H891 C905 0.929 . S
H892 C906 0.931 . S
H893 C908 0.930 . S
C894 H882 0.930 . S
C894 C895 1.399 . S
C894 C899 1.399 . S
C895 C894 1.399 . S
C895 C896 1.376 . S
C896 H883 0.930 . S
C896 C895 1.376 . S
C896 C897 1.388 . S
C897 H884 0.930 . S
C897 C896 1.388 . S
C897 C898 1.390 . S
C898 C897 1.390 . S
C898 C899 1.394 . S
C898 C904 1.465 . S
C899 C894 1.399 . S
C899 C898 1.394 . S
C899 C900 1.516 . S
C900 C899 1.516 . S
C900 C901 1.502 . S
C900 C902 1.561 . S
C900 C903 1.526 . S
C901 H885 0.959 . S
C901 H886 0.959 . S
C901 H887 0.961 . S
C901 C900 1.502 . S
C902 H888 0.960 . S
C902 H889 0.961 . S
C902 H890 0.959 . S
C902 C900 1.561 . S
C903 C900 1.526 . S
C903 C904 1.396 . S
C903 C908 1.390 . S
C904 C898 1.465 . S
C904 C903 1.396 . S
C904 C905 1.399 . S
C905 H891 0.929 . S
C905 C904 1.399 . S
C905 C906 1.385 . S
C906 H892 0.931 . S
C906 C905 1.385 . S
C906 C907 1.389 . S
C907 C906 1.389 . S
C907 C908 1.387 . S
C908 H893 0.930 . S
C908 C903 1.390 . S
C908 C907 1.387 . S
H909 C921 0.930 . S
H910 C923 0.930 . S
H911 C924 0.930 . S
H912 C928 0.959 . S
H913 C928 0.959 . S
H914 C928 0.961 . S
H915 C929 0.960 . S
H916 C929 0.961 . S
H917 C929 0.959 . S
H918 C932 0.929 . S
H919 C933 0.931 . S
H920 C935 0.930 . S
C921 H909 0.930 . S
C921 C922 1.399 . S
C921 C926 1.399 . S
C922 C921 1.399 . S
C922 C923 1.376 . S
C923 H910 0.930 . S
C923 C922 1.376 . S
C923 C924 1.388 . S
C924 H911 0.930 . S
C924 C923 1.388 . S
C924 C925 1.390 . S
C925 C924 1.390 . S
C925 C926 1.394 . S
C925 C931 1.465 . S
C926 C921 1.399 . S
C926 C925 1.394 . S
C926 C927 1.516 . S
C927 C926 1.516 . S
C927 C928 1.502 . S
C927 C929 1.561 . S
C927 C930 1.526 . S
C928 H912 0.959 . S
C928 H913 0.959 . S
C928 H914 0.961 . S
C928 C927 1.502 . S
C929 H915 0.960 . S
C929 H916 0.961 . S
C929 H917 0.959 . S
C929 C927 1.561 . S
C930 C927 1.526 . S
C930 C931 1.396 . S
C930 C935 1.390 . S
C931 C925 1.465 . S
C931 C930 1.396 . S
C931 C932 1.399 . S
C932 H918 0.929 . S
C932 C931 1.399 . S
C932 C933 1.385 . S
C933 H919 0.931 . S
C933 C932 1.385 . S
C933 C934 1.389 . S
C934 C933 1.389 . S
C934 C935 1.387 . S
C935 H920 0.930 . S
C935 C930 1.390 . S
C935 C934 1.387 . S
H936 C948 0.930 . S
H937 C950 0.930 . S
H938 C951 0.930 . S
H939 C955 0.959 . S
H940 C955 0.959 . S
H941 C955 0.961 . S
H942 C956 0.960 . S
H943 C956 0.961 . S
H944 C956 0.959 . S
H945 C959 0.929 . S
H946 C960 0.931 . S
H947 C962 0.930 . S
C948 H936 0.930 . S
C948 C949 1.399 . S
C948 C953 1.399 . S
C949 C948 1.399 . S
C949 C950 1.376 . S
C950 H937 0.930 . S
C950 C949 1.376 . S
C950 C951 1.388 . S
C951 H938 0.930 . S
C951 C950 1.388 . S
C951 C952 1.390 . S
C952 C951 1.390 . S
C952 C953 1.394 . S
C952 C958 1.465 . S
C953 C948 1.399 . S
C953 C952 1.394 . S
C953 C954 1.516 . S
C954 C953 1.516 . S
C954 C955 1.502 . S
C954 C956 1.561 . S
C954 C957 1.526 . S
C955 H939 0.959 . S
C955 H940 0.959 . S
C955 H941 0.961 . S
C955 C954 1.502 . S
C956 H942 0.960 . S
C956 H943 0.961 . S
C956 H944 0.959 . S
C956 C954 1.561 . S
C957 C954 1.526 . S
C957 C958 1.396 . S
C957 C962 1.390 . S
C958 C952 1.465 . S
C958 C957 1.396 . S
C958 C959 1.399 . S
C959 H945 0.929 . S
C959 C958 1.399 . S
C959 C960 1.385 . S
C960 H946 0.931 . S
C960 C959 1.385 . S
C960 C961 1.389 . S
C961 C960 1.389 . S
C961 C962 1.387 . S
C962 H947 0.930 . S
C962 C957 1.390 . S
C962 C961 1.387 . S
H963 C975 0.930 . S
H964 C977 0.930 . S
H965 C978 0.930 . S
H966 C982 0.959 . S
H967 C982 0.959 . S
H968 C982 0.961 . S
H969 C983 0.960 . S
H970 C983 0.961 . S
H971 C983 0.959 . S
H972 C986 0.929 . S
H973 C987 0.931 . S
H974 C989 0.930 . S
C975 H963 0.930 . S
C975 C976 1.399 . S
C975 C980 1.399 . S
C976 C975 1.399 . S
C976 C977 1.376 . S
C977 H964 0.930 . S
C977 C976 1.376 . S
C977 C978 1.388 . S
C978 H965 0.930 . S
C978 C977 1.388 . S
C978 C979 1.390 . S
C979 C978 1.390 . S
C979 C980 1.394 . S
C979 C985 1.465 . S
C980 C975 1.399 . S
C980 C979 1.394 . S
C980 C981 1.516 . S
C981 C980 1.516 . S
C981 C982 1.502 . S
C981 C983 1.561 . S
C981 C984 1.526 . S
C982 H966 0.959 . S
C982 H967 0.959 . S
C982 H968 0.961 . S
C982 C981 1.502 . S
C983 H969 0.960 . S
C983 H970 0.961 . S
C983 H971 0.959 . S
C983 C981 1.561 . S
C984 C981 1.526 . S
C984 C985 1.396 . S
C984 C989 1.390 . S
C985 C979 1.465 . S
C985 C984 1.396 . S
C985 C986 1.399 . S
C986 H972 0.929 . S
C986 C985 1.399 . S
C986 C987 1.385 . S
C987 H973 0.931 . S
C987 C986 1.385 . S
C987 C988 1.389 . S
C988 C987 1.389 . S
C988 C989 1.387 . S
C989 H974 0.930 . S
C989 C984 1.390 . S
C989 C988 1.387 . S
H990 C1002 0.930 . S
H991 C1004 0.930 . S
H992 C1005 0.930 . S
H993 C1009 0.959 . S
H994 C1009 0.959 . S
H995 C1009 0.961 . S
H996 C1010 0.960 . S
H997 C1010 0.961 . S
H998 C1010 0.959 . S
H999 C1013 0.929 . S
H1000 C1014 0.931 . S
H1001 C1016 0.930 . S
C1002 H990 0.930 . S
C1002 C1003 1.399 . S
C1002 C1007 1.399 . S
C1003 C1002 1.399 . S
C1003 C1004 1.376 . S
C1004 H991 0.930 . S
C1004 C1003 1.376 . S
C1004 C1005 1.388 . S
C1005 H992 0.930 . S
C1005 C1004 1.388 . S
C1005 C1006 1.390 . S
C1006 C1005 1.390 . S
C1006 C1007 1.394 . S
C1006 C1012 1.465 . S
C1007 C1002 1.399 . S
C1007 C1006 1.394 . S
C1007 C1008 1.516 . S
C1008 C1007 1.516 . S
C1008 C1009 1.502 . S
C1008 C1010 1.561 . S
C1008 C1011 1.526 . S
C1009 H993 0.959 . S
C1009 H994 0.959 . S
C1009 H995 0.961 . S
C1009 C1008 1.502 . S
C1010 H996 0.960 . S
C1010 H997 0.961 . S
C1010 H998 0.959 . S
C1010 C1008 1.561 . S
C1011 C1008 1.526 . S
C1011 C1012 1.396 . S
C1011 C1016 1.390 . S
C1012 C1006 1.465 . S
C1012 C1011 1.396 . S
C1012 C1013 1.399 . S
C1013 H999 0.929 . S
C1013 C1012 1.399 . S
C1013 C1014 1.385 . S
C1014 H1000 0.931 . S
C1014 C1013 1.385 . S
C1014 C1015 1.389 . S
C1015 C1014 1.389 . S
C1015 C1016 1.387 . S
C1016 H1001 0.930 . S
C1016 C1011 1.390 . S
C1016 C1015 1.387 . S
H1017 C1029 0.930 . S
H1018 C1031 0.930 . S
H1019 C1032 0.930 . S
H1020 C1036 0.959 . S
H1021 C1036 0.959 . S
H1022 C1036 0.961 . S
H1023 C1037 0.960 . S
H1024 C1037 0.961 . S
H1025 C1037 0.959 . S
H1026 C1040 0.929 . S
H1027 C1041 0.931 . S
H1028 C1043 0.930 . S
C1029 H1017 0.930 . S
C1029 C1030 1.399 . S
C1029 C1034 1.399 . S
C1030 C1029 1.399 . S
C1030 C1031 1.376 . S
C1031 H1018 0.930 . S
C1031 C1030 1.376 . S
C1031 C1032 1.388 . S
C1032 H1019 0.930 . S
C1032 C1031 1.388 . S
C1032 C1033 1.390 . S
C1033 C1032 1.390 . S
C1033 C1034 1.394 . S
C1033 C1039 1.465 . S
C1034 C1029 1.399 . S
C1034 C1033 1.394 . S
C1034 C1035 1.516 . S
C1035 C1034 1.516 . S
C1035 C1036 1.502 . S
C1035 C1037 1.561 . S
C1035 C1038 1.526 . S
C1036 H1020 0.959 . S
C1036 H1021 0.959 . S
C1036 H1022 0.961 . S
C1036 C1035 1.502 . S
C1037 H1023 0.960 . S
C1037 H1024 0.961 . S
C1037 H1025 0.959 . S
C1037 C1035 1.561 . S
C1038 C1035 1.526 . S
C1038 C1039 1.396 . S
C1038 C1043 1.390 . S
C1039 C1033 1.465 . S
C1039 C1038 1.396 . S
C1039 C1040 1.399 . S
C1040 H1026 0.929 . S
C1040 C1039 1.399 . S
C1040 C1041 1.385 . S
C1041 H1027 0.931 . S
C1041 C1040 1.385 . S
C1041 C1042 1.389 . S
C1042 C1041 1.389 . S
C1042 C1043 1.387 . S
C1043 H1028 0.930 . S
C1043 C1038 1.390 . S
C1043 C1042 1.387 . S
H1044 C1056 0.930 . S
H1045 C1058 0.930 . S
H1046 C1059 0.930 . S
H1047 C1063 0.959 . S
H1048 C1063 0.959 . S
H1049 C1063 0.961 . S
H1050 C1064 0.960 . S
H1051 C1064 0.961 . S
H1052 C1064 0.959 . S
H1053 C1067 0.929 . S
H1054 C1068 0.931 . S
H1055 C1070 0.930 . S
C1056 H1044 0.930 . S
C1056 C1057 1.399 . S
C1056 C1061 1.399 . S
C1057 C1056 1.399 . S
C1057 C1058 1.376 . S
C1058 H1045 0.930 . S
C1058 C1057 1.376 . S
C1058 C1059 1.388 . S
C1059 H1046 0.930 . S
C1059 C1058 1.388 . S
C1059 C1060 1.390 . S
C1060 C1059 1.390 . S
C1060 C1061 1.394 . S
C1060 C1066 1.465 . S
C1061 C1056 1.399 . S
C1061 C1060 1.394 . S
C1061 C1062 1.516 . S
C1062 C1061 1.516 . S
C1062 C1063 1.502 . S
C1062 C1064 1.561 . S
C1062 C1065 1.526 . S
C1063 H1047 0.959 . S
C1063 H1048 0.959 . S
C1063 H1049 0.961 . S
C1063 C1062 1.502 . S
C1064 H1050 0.960 . S
C1064 H1051 0.961 . S
C1064 H1052 0.959 . S
C1064 C1062 1.561 . S
C1065 C1062 1.526 . S
C1065 C1066 1.396 . S
C1065 C1070 1.390 . S
C1066 C1060 1.465 . S
C1066 C1065 1.396 . S
C1066 C1067 1.399 . S
C1067 H1053 0.929 . S
C1067 C1066 1.399 . S
C1067 C1068 1.385 . S
C1068 H1054 0.931 . S
C1068 C1067 1.385 . S
C1068 C1069 1.389 . S
C1069 C1068 1.389 . S
C1069 C1070 1.387 . S
C1070 H1055 0.930 . S
C1070 C1065 1.390 . S
C1070 C1069 1.387 . S
H1071 C1083 0.930 . S
H1072 C1085 0.930 . S
H1073 C1086 0.930 . S
H1074 C1090 0.959 . S
H1075 C1090 0.959 . S
H1076 C1090 0.961 . S
H1077 C1091 0.960 . S
H1078 C1091 0.961 . S
H1079 C1091 0.959 . S
H1080 C1094 0.929 . S
H1081 C1095 0.931 . S
H1082 C1097 0.930 . S
C1083 H1071 0.930 . S
C1083 C1084 1.399 . S
C1083 C1088 1.399 . S
C1084 C1083 1.399 . S
C1084 C1085 1.376 . S
C1085 H1072 0.930 . S
C1085 C1084 1.376 . S
C1085 C1086 1.388 . S
C1086 H1073 0.930 . S
C1086 C1085 1.388 . S
C1086 C1087 1.390 . S
C1087 C1086 1.390 . S
C1087 C1088 1.394 . S
C1087 C1093 1.465 . S
C1088 C1083 1.399 . S
C1088 C1087 1.394 . S
C1088 C1089 1.516 . S
C1089 C1088 1.516 . S
C1089 C1090 1.502 . S
C1089 C1091 1.561 . S
C1089 C1092 1.526 . S
C1090 H1074 0.959 . S
C1090 H1075 0.959 . S
C1090 H1076 0.961 . S
C1090 C1089 1.502 . S
C1091 H1077 0.960 . S
C1091 H1078 0.961 . S
C1091 H1079 0.959 . S
C1091 C1089 1.561 . S
C1092 C1089 1.526 . S
C1092 C1093 1.396 . S
C1092 C1097 1.390 . S
C1093 C1087 1.465 . S
C1093 C1092 1.396 . S
C1093 C1094 1.399 . S
C1094 H1080 0.929 . S
C1094 C1093 1.399 . S
C1094 C1095 1.385 . S
C1095 H1081 0.931 . S
C1095 C1094 1.385 . S
C1095 C1096 1.389 . S
C1096 C1095 1.389 . S
C1096 C1097 1.387 . S
C1097 H1082 0.930 . S
C1097 C1092 1.390 . S
C1097 C1096 1.387 . S
H1098 C1110 0.930 . S
H1099 C1112 0.930 . S
H1100 C1113 0.930 . S
H1101 C1117 0.959 . S
H1102 C1117 0.959 . S
H1103 C1117 0.961 . S
H1104 C1118 0.960 . S
H1105 C1118 0.961 . S
H1106 C1118 0.959 . S
H1107 C1121 0.929 . S
H1108 C1122 0.931 . S
H1109 C1124 0.930 . S
C1110 H1098 0.930 . S
C1110 C1111 1.399 . S
C1110 C1115 1.399 . S
C1111 C1110 1.399 . S
C1111 C1112 1.376 . S
C1112 H1099 0.930 . S
C1112 C1111 1.376 . S
C1112 C1113 1.388 . S
C1113 H1100 0.930 . S
C1113 C1112 1.388 . S
C1113 C1114 1.390 . S
C1114 C1113 1.390 . S
C1114 C1115 1.394 . S
C1114 C1120 1.465 . S
C1115 C1110 1.399 . S
C1115 C1114 1.394 . S
C1115 C1116 1.516 . S
C1116 C1115 1.516 . S
C1116 C1117 1.502 . S
C1116 C1118 1.561 . S
C1116 C1119 1.526 . S
C1117 H1101 0.959 . S
C1117 H1102 0.959 . S
C1117 H1103 0.961 . S
C1117 C1116 1.502 . S
C1118 H1104 0.960 . S
C1118 H1105 0.961 . S
C1118 H1106 0.959 . S
C1118 C1116 1.561 . S
C1119 C1116 1.526 . S
C1119 C1120 1.396 . S
C1119 C1124 1.390 . S
C1120 C1114 1.465 . S
C1120 C1119 1.396 . S
C1120 C1121 1.399 . S
C1121 H1107 0.929 . S
C1121 C1120 1.399 . S
C1121 C1122 1.385 . S
C1122 H1108 0.931 . S
C1122 C1121 1.385 . S
C1122 C1123 1.389 . S
C1123 C1122 1.389 . S
C1123 C1124 1.387 . S
C1124 H1109 0.930 . S
C1124 C1119 1.390 . S
C1124 C1123 1.387 . S
H1125 C1137 0.930 . S
H1126 C1139 0.930 . S
H1127 C1140 0.930 . S
H1128 C1144 0.959 . S
H1129 C1144 0.959 . S
H1130 C1144 0.961 . S
H1131 C1145 0.960 . S
H1132 C1145 0.961 . S
H1133 C1145 0.959 . S
H1134 C1148 0.929 . S
H1135 C1149 0.931 . S
H1136 C1151 0.930 . S
C1137 H1125 0.930 . S
C1137 C1138 1.399 . S
C1137 C1142 1.399 . S
C1138 C1137 1.399 . S
C1138 C1139 1.376 . S
C1139 H1126 0.930 . S
C1139 C1138 1.376 . S
C1139 C1140 1.388 . S
C1140 H1127 0.930 . S
C1140 C1139 1.388 . S
C1140 C1141 1.390 . S
C1141 C1140 1.390 . S
C1141 C1142 1.394 . S
C1141 C1147 1.465 . S
C1142 C1137 1.399 . S
C1142 C1141 1.394 . S
C1142 C1143 1.516 . S
C1143 C1142 1.516 . S
C1143 C1144 1.502 . S
C1143 C1145 1.561 . S
C1143 C1146 1.526 . S
C1144 H1128 0.959 . S
C1144 H1129 0.959 . S
C1144 H1130 0.961 . S
C1144 C1143 1.502 . S
C1145 H1131 0.960 . S
C1145 H1132 0.961 . S
C1145 H1133 0.959 . S
C1145 C1143 1.561 . S
C1146 C1143 1.526 . S
C1146 C1147 1.396 . S
C1146 C1151 1.390 . S
C1147 C1141 1.465 . S
C1147 C1146 1.396 . S
C1147 C1148 1.399 . S
C1148 H1134 0.929 . S
C1148 C1147 1.399 . S
C1148 C1149 1.385 . S
C1149 H1135 0.931 . S
C1149 C1148 1.385 . S
C1149 C1150 1.389 . S
C1150 C1149 1.389 . S
C1150 C1151 1.387 . S
C1151 H1136 0.930 . S
C1151 C1146 1.390 . S
C1151 C1150 1.387 . S
H1152 C1164 0.930 . S
H1153 C1166 0.930 . S
H1154 C1167 0.930 . S
H1155 C1171 0.959 . S
H1156 C1171 0.959 . S
H1157 C1171 0.961 . S
H1158 C1172 0.960 . S
H1159 C1172 0.961 . S
H1160 C1172 0.959 . S
H1161 C1175 0.929 . S
H1162 C1176 0.931 . S
H1163 C1178 0.930 . S
C1164 H1152 0.930 . S
C1164 C1165 1.399 . S
C1164 C1169 1.399 . S
C1165 C1164 1.399 . S
C1165 C1166 1.376 . S
C1166 H1153 0.930 . S
C1166 C1165 1.376 . S
C1166 C1167 1.388 . S
C1167 H1154 0.930 . S
C1167 C1166 1.388 . S
C1167 C1168 1.390 . S
C1168 C1167 1.390 . S
C1168 C1169 1.394 . S
C1168 C1174 1.465 . S
C1169 C1164 1.399 . S
C1169 C1168 1.394 . S
C1169 C1170 1.516 . S
C1170 C1169 1.516 . S
C1170 C1171 1.502 . S
C1170 C1172 1.561 . S
C1170 C1173 1.526 . S
C1171 H1155 0.959 . S
C1171 H1156 0.959 . S
C1171 H1157 0.961 . S
C1171 C1170 1.502 . S
C1172 H1158 0.960 . S
C1172 H1159 0.961 . S
C1172 H1160 0.959 . S
C1172 C1170 1.561 . S
C1173 C1170 1.526 . S
C1173 C1174 1.396 . S
C1173 C1178 1.390 . S
C1174 C1168 1.465 . S
C1174 C1173 1.396 . S
C1174 C1175 1.399 . S
C1175 H1161 0.929 . S
C1175 C1174 1.399 . S
C1175 C1176 1.385 . S
C1176 H1162 0.931 . S
C1176 C1175 1.385 . S
C1176 C1177 1.389 . S
C1177 C1176 1.389 . S
C1177 C1178 1.387 . S
C1178 H1163 0.930 . S
C1178 C1173 1.390 . S
C1178 C1177 1.387 . S
H1179 C1191 0.930 . S
H1180 C1193 0.930 . S
H1181 C1194 0.930 . S
H1182 C1198 0.959 . S
H1183 C1198 0.959 . S
H1184 C1198 0.961 . S
H1185 C1199 0.960 . S
H1186 C1199 0.961 . S
H1187 C1199 0.959 . S
H1188 C1202 0.929 . S
H1189 C1203 0.931 . S
H1190 C1205 0.930 . S
C1191 H1179 0.930 . S
C1191 C1192 1.399 . S
C1191 C1196 1.399 . S
C1192 C1191 1.399 . S
C1192 C1193 1.376 . S
C1193 H1180 0.930 . S
C1193 C1192 1.376 . S
C1193 C1194 1.388 . S
C1194 H1181 0.930 . S
C1194 C1193 1.388 . S
C1194 C1195 1.390 . S
C1195 C1194 1.390 . S
C1195 C1196 1.394 . S
C1195 C1201 1.465 . S
C1196 C1191 1.399 . S
C1196 C1195 1.394 . S
C1196 C1197 1.516 . S
C1197 C1196 1.516 . S
C1197 C1198 1.502 . S
C1197 C1199 1.561 . S
C1197 C1200 1.526 . S
C1198 H1182 0.959 . S
C1198 H1183 0.959 . S
C1198 H1184 0.961 . S
C1198 C1197 1.502 . S
C1199 H1185 0.960 . S
C1199 H1186 0.961 . S
C1199 H1187 0.959 . S
C1199 C1197 1.561 . S
C1200 C1197 1.526 . S
C1200 C1201 1.396 . S
C1200 C1205 1.390 . S
C1201 C1195 1.465 . S
C1201 C1200 1.396 . S
C1201 C1202 1.399 . S
C1202 H1188 0.929 . S
C1202 C1201 1.399 . S
C1202 C1203 1.385 . S
C1203 H1189 0.931 . S
C1203 C1202 1.385 . S
C1203 C1204 1.389 . S
C1204 C1203 1.389 . S
C1204 C1205 1.387 . S
C1205 H1190 0.930 . S
C1205 C1200 1.390 . S
C1205 C1204 1.387 . S
C409 N310 1.656 . S
C421 N13 1.719 . S
C436 N46 1.721 . S
C448 N343 1.663 . S
C463 N376 1.721 . S
C475 N79 1.662 . S
C490 N112 1.660 . S
C502 N211 1.712 . S
C517 N145 1.657 . S
C529 N244 1.716 . S
C544 N277 1.658 . S
C556 N178 1.715 . S
C571 C348 1.707 . S
C583 C18 1.692 . S
C598 C381 1.702 . S
C610 C51 1.732 . S
C625 C84 1.745 . S
C637 C216 1.720 . S
C652 C249 1.717 . S
C664 C117 1.694 . S
C679 C282 1.709 . S
C691 C150 1.739 . S
C706 C183 1.739 . S
C718 C315 1.709 . S
C733 C238 0.879 . S
C745 C106 0.851 . S
C760 C271 0.869 . S
C772 C139 0.883 . S
C787 C172 0.870 . S
C799 C304 0.883 . S
C814 C7 0.881 . S
C826 C337 0.881 . S
C841 C40 0.850 . S
C853 C370 0.807 . S
C868 C205 0.808 . S
C880 C73 0.850 . S
C895 N2 1.201 . S
C907 C153 1.299 . S
C922 N35 1.220 . S
C934 C186 1.310 . S
C949 N68 1.294 . S
C961 C21 1.307 . S
C976 C54 1.302 . S
C988 N101 1.273 . S
C1003 N134 1.250 . S
C1015 C87 1.299 . S
C1030 C120 1.310 . S
C1042 N167 1.222 . S
C1057 C285 1.314 . S
C1069 N200 1.279 . S
C1084 C318 1.309 . S
C1096 N233 1.296 . S
C1111 C351 1.311 . S
C1123 N266 1.225 . S
C1138 N299 1.243 . S
C1150 C384 1.313 . S
C1165 C219 1.310 . S
C1177 N332 1.221 . S
C1192 N365 1.212 . S
C1204 C252 1.309 . S
