# Generated by pormake.
# Topology fnu, (5)-cn, num edge types: 1
# Building blocks:
#     Node 0, Type 0, BuildingBlock: BEQFEK_clean_sbu_0, # of connection points: 5
#     Node 1, Type 0, BuildingBlock: BEQFEK_clean_sbu_0, # of connection points: 5
#     Node 2, Type 0, BuildingBlock: BEQFEK_clean_sbu_0, # of connection points: 5
#     Node 3, Type 0, BuildingBlock: BEQFEK_clean_sbu_0, # of connection points: 5
#     Node 4, Type 0, BuildingBlock: BEQFEK_clean_sbu_0, # of connection points: 5
#     Node 5, Type 0, BuildingBlock: BEQFEK_clean_sbu_0, # of connection points: 5
#     Edge 6, Type (0, 0), BuildingBlock: ZUJKAS_clean_linker_0, # of connection points: 2
#     Edge 7, Type (0, 0), BuildingBlock: ZUJKAS_clean_linker_0, # of connection points: 2
#     Edge 8, Type (0, 0), BuildingBlock: ZUJKAS_clean_linker_0, # of connection points: 2
#     Edge 9, Type (0, 0), BuildingBlock: ZUJKAS_clean_linker_0, # of connection points: 2
#     Edge 10, Type (0, 0), BuildingBlock: ZUJKAS_clean_linker_0, # of connection points: 2
#     Edge 11, Type (0, 0), BuildingBlock: ZUJKAS_clean_linker_0, # of connection points: 2
#     Edge 12, Type (0, 0), BuildingBlock: ZUJKAS_clean_linker_0, # of connection points: 2
#     Edge 13, Type (0, 0), BuildingBlock: ZUJKAS_clean_linker_0, # of connection points: 2
#     Edge 14, Type (0, 0), BuildingBlock: ZUJKAS_clean_linker_0, # of connection points: 2
#     Edge 15, Type (0, 0), BuildingBlock: ZUJKAS_clean_linker_0, # of connection points: 2
#     Edge 16, Type (0, 0), BuildingBlock: ZUJKAS_clean_linker_0, # of connection points: 2
#     Edge 17, Type (0, 0), BuildingBlock: ZUJKAS_clean_linker_0, # of connection points: 2
#     Edge 18, Type (0, 0), BuildingBlock: ZUJKAS_clean_linker_0, # of connection points: 2
#     Edge 19, Type (0, 0), BuildingBlock: ZUJKAS_clean_linker_0, # of connection points: 2
#     Edge 20, Type (0, 0), BuildingBlock: ZUJKAS_clean_linker_0, # of connection points: 2
# Relax obj value: 0.175
# Max RMSD: 0.163
# Mean RMSD: 0.163
data_MOF--net-fnu--node1-BEQFEK_clean_sbu_0--edge1-ZUJKAS_clean_linker_0
_symmetry_space_group_name_H-M    P1
_symmetry_Int_Tables_number       1
_symmetry_cell_setting            triclinic
loop_
_symmetry_equiv_pos_as_xyz
'x, y, z'
_cell_length_a     31.54896
_cell_length_b     37.127511
_cell_length_c     45.029185
_cell_angle_alpha  89.93653
_cell_angle_beta   97.391374
_cell_angle_gamma 126.13885
loop_
_atom_site_label
_atom_site_type_symbol
_atom_site_fract_x
_atom_site_fract_y
_atom_site_fract_z
_atom_type_partial_charge
Co0 Co 0.99404 0.99395 0.19293 0.0
Co1 Co 0.03829 0.02759 0.26101 0.0
C2 C 0.97706 0.93009 0.23789 0.0
O3 O 0.96945 0.93945 0.21166 0.0
O4 O 1.0046 0.96053 0.25984 0.0
C5 C 0.95337 0.94135 0.13717 0.0
O6 O 0.94466 0.9094 0.154 0.0
C7 C 0.03505 0.03243 0.32628 0.0
C8 C 0.10843 0.09995 0.34175 0.0
C9 C 0.06575 0.06212 0.35198 0.0
N10 N 0.05894 0.0518 0.30234 0.0
N11 N 0.10273 0.09218 0.31181 0.0
C12 C 0.9824 0.98756 0.32383 0.0
H13 H 0.95956 0.97976 0.3009 0.0
H14 H 0.9592 0.98663 0.34076 0.0
H15 H 0.98894 0.96156 0.32781 0.0
C16 C 0.9474 0.0412 0.19848 0.0
N17 N 0.97365 0.02538 0.21096 0.0
N18 N 0.99218 0.04087 0.23947 0.0
C19 C 0.97858 0.0681 0.24587 0.0
C20 C 0.94935 0.06887 0.2201 0.0
C21 C 0.9275 0.03447 0.16545 0.0
H22 H 0.89725 0.99814 0.15864 0.0
H23 H 0.91006 0.05254 0.15914 0.0
H24 H 0.96093 0.04651 0.15286 0.0
O25 O 0.07192 0.03219 0.19501 0.0
O26 O 0.1055 0.05858 0.24281 0.0
H27 H 0.03984 0.11944 0.27937 0.0
H28 H 0.97767 0.11277 0.27615 0.0
C29 C 0.9959 0.09483 0.27546 0.0
H30 H 0.98464 0.07223 0.29374 0.0
H31 H 0.12889 0.11441 0.2978 0.0
O32 O 0.96701 0.97817 0.14966 0.0
C33 C 0.11178 0.05641 0.21558 0.0
Co34 Co 0.09257 0.04934 0.82707 0.0
Co35 Co 0.04848 0.03546 0.75865 0.0
C36 C 0.10781 0.9988 0.78368 0.0
O37 O 0.11398 1.0159 0.80961 0.0
O38 O 0.08236 1.00241 0.76088 0.0
C39 C 0.16499 0.06484 0.87976 0.0
O40 O 0.18748 0.05592 0.86141 0.0
C41 C 0.05073 0.04153 0.6932 0.0
C42 C 0.97645 0.03396 0.67736 0.0
C43 C 1.01959 0.03953 0.66733 0.0
N44 N 1.0267 0.03696 0.71706 0.0
N45 N 0.98234 0.03247 0.70737 0.0
C46 C 0.104 0.05053 0.69587 0.0
H47 H 0.12663 0.06596 0.7188 0.0
H48 H 0.1269 0.07297 0.67889 0.0
H49 H 0.09845 1.01838 0.69211 0.0
C50 C 0.14121 0.14294 0.81856 0.0
N51 N 0.11392 0.10015 0.80722 0.0
N52 N 0.09541 0.09587 0.77855 0.0
C53 C 0.11019 0.13662 0.77084 0.0
C54 C 0.14026 0.16787 0.79595 0.0
C55 C 0.16109 0.15789 0.85146 0.0
H56 H 0.12837 0.13594 0.86439 0.0
H57 H 0.19339 0.15442 0.85872 0.0
H58 H 0.17614 0.19302 0.85691 0.0
O59 O 1.0149 1.01119 0.82629 0.0
O60 O 0.98201 1.00012 0.77782 0.0
H61 H 0.04921 0.12518 0.73639 0.0
H62 H 0.11118 0.18093 0.73922 0.0
C63 C 0.09318 0.14487 0.74066 0.0
H64 H 0.10502 0.1331 0.72304 0.0
H65 H 0.95603 0.02837 0.72129 0.0
O66 O 0.12593 0.06532 0.86938 0.0
C67 C 0.9753 0.99389 0.80525 0.0
Co68 Co 0.66236 0.33378 0.5252 0.0
Co69 Co 0.70688 0.36476 0.59358 0.0
C70 C 0.64971 0.2689 0.56901 0.0
O71 O 0.64293 0.27951 0.54306 0.0
O72 O 0.67464 0.2981 0.59174 0.0
C73 C 0.59062 0.27481 0.4731 0.0
O74 O 0.56998 0.24379 0.49192 0.0
C75 C 0.70638 0.36895 0.65923 0.0
C76 C 0.78004 0.43644 0.6744 0.0
C77 C 0.73795 0.39849 0.68489 0.0
N78 N 0.72922 0.38855 0.63506 0.0
N79 N 0.7732 0.4289 0.64434 0.0
C80 C 0.65381 0.32407 0.65706 0.0
H81 H 0.66046 0.29808 0.6607 0.0
H82 H 0.63036 0.31627 0.63433 0.0
H83 H 0.63116 0.32312 0.67436 0.0
C84 C 0.61281 0.37789 0.53359 0.0
N85 N 0.64024 0.36259 0.54504 0.0
N86 N 0.65883 0.37703 0.57368 0.0
C87 C 0.64389 0.40288 0.58127 0.0
C88 C 0.61374 0.40386 0.55611 0.0
C89 C 0.59308 0.37287 0.50066 0.0
H90 H 0.62579 0.38341 0.4878 0.0
H91 H 0.56061 0.33706 0.49348 0.0
H92 H 0.57836 0.39314 0.49503 0.0
O93 O 0.73993 0.37463 0.52561 0.0
O94 O 0.77285 0.39689 0.57405 0.0
H95 H 0.7048 0.45356 0.61522 0.0
H96 H 0.64183 0.44534 0.61299 0.0
C97 C 0.66096 0.4283 0.61137 0.0
H98 H 0.65053 0.40498 0.62916 0.0
H99 H 0.79868 0.45128 0.63014 0.0
O100 O 0.62822 0.31513 0.48296 0.0
C101 C 0.7795 0.39759 0.5466 0.0
Co102 Co 0.75195 0.37777 0.16138 0.0
Co103 Co 0.71861 0.3698 0.09192 0.0
C104 C 0.76352 0.32307 0.11891 0.0
O105 O 0.76523 0.33801 0.14462 0.0
O106 O 0.74825 0.3334 0.0949 0.0
C107 C 0.80163 0.37287 0.21739 0.0
O108 O 0.81855 0.35615 0.20077 0.0
C109 C 0.72558 0.37771 0.02672 0.0
C110 C 0.656 0.37693 1.01032 0.0
C111 C 0.69727 0.37887 1.00067 0.0
N112 N 0.70164 0.37483 0.05027 0.0
N113 N 0.66016 0.37445 0.04022 0.0
C114 C 0.77615 0.38196 0.02986 0.0
H115 H 0.79834 0.39569 0.05305 0.0
H116 H 0.80134 0.40399 0.01342 0.0
H117 H 0.76661 0.34829 0.02561 0.0
C118 C 0.81112 0.47302 0.15511 0.0
N119 N 0.78217 0.43063 0.14265 0.0
N120 N 0.7673 0.42884 0.11369 0.0
C121 C 0.7863 0.47091 0.1069 0.0
C122 C 0.81512 0.50036 0.13295 0.0
C123 C 0.82689 0.4853 0.18842 0.0
H124 H 0.79097 0.4652 0.19939 0.0
H125 H 0.85414 0.47673 0.19719 0.0
H126 H 0.84648 0.52128 0.1946 0.0
O127 O 0.67516 0.34611 0.15756 0.0
O128 O 0.64861 0.33536 0.10827 0.0
H129 H 0.73062 0.46581 0.07147 0.0
H130 H 0.7961 0.51886 0.07583 0.0
C131 C 0.77394 0.48213 0.07666 0.0
H132 H 0.78433 0.46864 0.05929 0.0
H133 H 0.63446 0.37232 0.05385 0.0
O134 O 0.77773 0.38826 0.20477 0.0
C135 C 0.63819 0.33002 0.13513 0.0
Co136 Co 0.3319 0.66267 0.85861 0.0
Co137 Co 0.36768 0.69471 0.92743 0.0
C138 C 0.311 0.59831 0.90437 0.0
O139 O 0.30739 0.60851 0.87785 0.0
O140 O 0.33471 0.62793 0.92684 0.0
C141 C 0.28939 0.60687 0.80348 0.0
O142 O 0.27572 0.57454 0.821 0.0
C143 C 0.36484 0.69893 0.99311 0.0
C144 C 0.4267 0.771 1.00655 0.0
C145 C 0.39105 0.73079 0.01791 0.0
N146 N 0.38456 0.71945 0.96844 0.0
N147 N 0.42153 0.76252 0.97674 0.0
C148 C 0.3198 0.65039 0.99236 0.0
H149 H 0.33588 0.63063 0.99456 0.0
H150 H 0.2927 0.63892 0.97056 0.0
H151 H 0.29722 0.64428 0.01106 0.0
C152 C 0.28069 0.70684 0.86071 0.0
N153 N 0.30762 0.6924 0.87462 0.0
N154 N 0.32176 0.70653 0.90343 0.0
C155 C 0.30386 0.73096 0.90866 0.0
C156 C 0.27694 0.7317 0.88174 0.0
C157 C 0.2652 0.70141 0.82724 0.0
H158 H 0.29979 0.71145 0.81631 0.0
H159 H 0.23314 0.66556 0.81987 0.0
H160 H 0.25152 0.72185 0.81962 0.0
O161 O 0.40985 0.70251 0.86322 0.0
O162 O 0.43767 0.72679 0.91161 0.0
H163 H 0.3562 0.78412 0.94324 0.0
H164 H 0.28822 0.76565 0.93879 0.0
C165 C 0.31395 0.75447 0.9385 0.0
H166 H 0.30661 0.7318 0.95643 0.0
H167 H 0.4434 0.78617 0.962 0.0
O168 O 0.30809 0.64571 0.81505 0.0
C169 C 0.44743 0.72621 0.88502 0.0
Co170 Co 0.42361 0.71298 0.49503 0.0
Co171 Co 0.38789 0.70654 0.42598 0.0
C172 C 0.43176 0.65805 0.45064 0.0
O173 O 0.43488 0.67264 0.47678 0.0
O174 O 0.41575 0.66894 0.42729 0.0
C175 C 0.49195 0.71914 0.54608 0.0
O176 O 0.51161 0.70944 0.52618 0.0
C177 C 0.39024 0.71152 0.36031 0.0
C178 C 0.32841 0.72137 0.34592 0.0
C179 C 0.36434 0.71677 0.33511 0.0
N180 N 0.37013 0.71262 0.38466 0.0
N181 N 0.33313 0.71845 0.37581 0.0
C182 C 0.43565 0.70848 0.36175 0.0
H183 H 0.46165 0.72346 0.38393 0.0
H184 H 0.45927 0.72582 0.34354 0.0
H185 H 0.41981 0.67269 0.3591 0.0
C186 C 0.48275 0.80857 0.48958 0.0
N187 N 0.45342 0.76633 0.47672 0.0
N188 N 0.43832 0.7652 0.4479 0.0
C189 C 0.45793 0.80756 0.44156 0.0
C190 C 0.48706 0.83652 0.4678 0.0
C191 C 0.49858 0.82025 0.52294 0.0
H192 H 0.46369 0.79726 0.53419 0.0
H193 H 0.52958 0.8155 0.53097 0.0
H194 H 0.51389 0.85514 0.52962 0.0
O195 O 0.34695 0.68199 0.49295 0.0
O196 O 0.31936 0.6732 0.44378 0.0
H197 H 0.40384 0.80702 0.40751 0.0
H198 H 0.47179 0.85651 0.41045 0.0
C199 C 0.44611 0.81968 0.41156 0.0
H200 H 0.45222 0.80343 0.39365 0.0
H201 H 0.31116 0.72057 0.39024 0.0
O202 O 0.45577 0.72401 0.53739 0.0
C203 C 0.30962 0.66708 0.47079 0.0
H204 H 0.20832 0.1164 0.25157 0.0
H205 H 0.29636 0.16266 0.23605 0.0
H206 H 0.22567 0.10351 0.14474 0.0
H207 H 0.13797 0.0577 0.15979 0.0
H208 H 0.35037 0.13608 0.20837 0.0
H209 H 0.31286 0.2378 0.13494 0.0
H210 H 0.2703 0.20412 0.16177 0.0
H211 H 0.26498 0.17832 0.12637 0.0
C212 C 0.2115 0.11322 0.2282 0.0
C213 C 0.16585 0.08343 0.20697 0.0
C214 C 0.26185 0.13971 0.21935 0.0
C215 C 0.26752 0.13719 0.18912 0.0
C216 C 0.22222 0.10686 0.16804 0.0
H217 H 0.54474 0.27521 0.09513 0.0
H218 H 0.45391 0.22732 0.10713 0.0
C219 C 0.17202 0.08041 0.17681 0.0
C220 C 0.32085 0.16558 0.17966 0.0
H221 H 0.39375 0.24716 0.13386 0.0
C222 C 0.35991 0.16048 0.19216 0.0
C223 C 0.33312 0.19711 0.15826 0.0
C224 C 0.29333 0.20507 0.1447 0.0
C225 C 0.41073 0.18576 0.18375 0.0
C226 C 0.42335 0.21783 0.16272 0.0
C227 C 0.38408 0.22257 0.14992 0.0
C228 C 0.47781 0.24808 0.15487 0.0
C229 C 0.45018 0.17731 0.19716 0.0
C230 C 0.52113 0.27663 0.17749 0.0
C231 C 0.57272 0.30373 0.17077 0.0
C232 C 0.58243 0.30344 0.14112 0.0
C233 C 0.53876 0.27618 0.11818 0.0
C234 C 0.48686 0.24875 0.12502 0.0
H235 H 0.42994 0.14338 0.20518 0.0
H236 H 0.47528 0.1807 0.1806 0.0
H237 H 0.47654 0.20216 0.21679 0.0
H238 H 0.5151 0.27773 0.20052 0.0
H239 H 0.60514 0.32469 0.18902 0.0
H240 H 1.01024 0.16025 0.22421 0.0
H241 H 0.9826 0.20641 0.20442 0.0
H242 H 0.8212 0.0877 0.18148 0.0
H243 H 0.84892 0.04173 0.20101 0.0
H244 H 0.86043 0.14135 0.13342 0.0
H245 H 0.89515 0.24218 0.23722 0.0
H246 H 0.95031 0.24268 0.23022 0.0
H247 H 0.89097 0.19157 0.23834 0.0
C248 C 0.96865 0.14436 0.21576 0.0
C249 C 0.93151 0.09761 0.21434 0.0
C250 C 0.95291 0.17064 0.20431 0.0
C251 C 0.89977 0.15051 0.19144 0.0
C252 C 0.86239 0.10395 0.19119 0.0
H253 H 0.71806 0.24825 0.14709 0.0
H254 H 0.754 0.20656 0.1608 0.0
C255 C 0.87809 0.07779 0.2026 0.0
C256 C 0.88317 0.17727 0.17689 0.0
H257 H 0.86693 0.25837 0.19144 0.0
C258 C 0.86223 0.1672 0.14604 0.0
C259 C 0.8855 0.21094 0.19339 0.0
C260 C 0.90629 0.22243 0.22667 0.0
C261 C 0.84269 0.18935 0.13142 0.0
C262 C 0.84425 0.22241 0.14804 0.0
C263 C 0.86618 0.23316 0.17871 0.0
C264 C 0.8185 0.24312 0.13507 0.0
C265 C 0.81865 0.17622 0.09861 0.0
C266 C 0.84162 0.27638 0.11496 0.0
C267 C 0.82061 0.30017 0.10677 0.0
C268 C 0.77645 0.29083 0.11872 0.0
C269 C 0.75171 0.25565 0.13725 0.0
C270 C 0.77247 0.23208 0.14533 0.0
H271 H 0.81717 0.14772 0.08932 0.0
H272 H 0.7777 0.16687 0.09551 0.0
H273 H 0.84247 0.20528 0.08553 0.0
H274 H 0.87745 0.28559 0.10698 0.0
H275 H 0.84109 0.32785 0.09305 0.0
H276 H 0.91578 0.57121 0.1555 0.0
H277 H 0.94444 0.6446 0.17654 0.0
H278 H 0.78789 0.6088 0.14544 0.0
H279 H 0.75901 0.53502 0.1248 0.0
H280 H 0.94642 0.71552 0.15385 0.0
H281 H 0.80699 0.63513 0.23648 0.0
H282 H 0.82196 0.60495 0.21395 0.0
H283 H 0.77586 0.61596 0.19793 0.0
C284 C 0.88801 0.5796 0.1525 0.0
C285 C 0.83529 0.54767 0.13857 0.0
C286 C 0.90425 0.62134 0.16468 0.0
C287 C 0.86796 0.63179 0.16326 0.0
C288 C 0.81624 0.60107 0.14742 0.0
H289 H 0.87736 0.85644 0.21929 0.0
H290 H 0.85201 0.78177 0.20553 0.0
C291 C 0.79998 0.55925 0.13523 0.0
C292 C 0.88365 0.67384 0.17955 0.0
H293 H 0.85316 0.71368 0.23524 0.0
C294 C 0.9263 0.71514 0.17178 0.0
C295 C 0.85763 0.6733 0.20315 0.0
C296 C 0.81338 0.62999 0.21364 0.0
C297 C 0.94245 0.75588 0.18624 0.0
C298 C 0.91594 0.75533 0.20955 0.0
C299 C 0.87372 0.71404 0.21757 0.0
C300 C 0.92848 0.79737 0.22381 0.0
C301 C 0.98652 0.79927 0.17572 0.0
C302 C 0.97884 0.83012 0.24044 0.0
C303 C 0.99313 0.87281 0.24885 0.0
C304 C 0.95724 0.88316 0.2406 0.0
C305 C 0.90546 0.84908 0.22633 0.0
C306 C 0.89111 0.80652 0.21819 0.0
H307 H 0.99623 0.79389 0.15406 0.0
H308 H 0.97541 0.82257 0.17292 0.0
H309 H 1.02288 0.81563 0.19285 0.0
H310 H 1.00806 0.82353 0.24536 0.0
H311 H 0.0336 0.89873 0.25925 0.0
H312 H 0.24139 0.2411 0.81385 0.0
H313 H 0.2696 0.31433 0.83476 0.0
H314 H 0.1091 0.27323 0.8111 0.0
H315 H 0.08071 0.1995 0.79063 0.0
H316 H 0.2658 0.38264 0.81367 0.0
H317 H 0.13871 0.30263 0.90219 0.0
H318 H 0.15179 0.27268 0.87796 0.0
H319 H 0.10347 0.28238 0.86442 0.0
C320 C 0.21255 0.24829 0.81235 0.0
C321 C 0.15899 0.21489 0.80061 0.0
C322 C 0.22856 0.28996 0.8245 0.0
C323 C 0.19122 0.2989 0.82524 0.0
C324 C 0.13837 0.2667 0.81144 0.0
H325 H 0.20935 0.52634 0.88847 0.0
H326 H 0.18036 0.45086 0.87316 0.0
C327 C 0.12232 0.2249 0.79929 0.0
C328 C 0.20735 0.34095 0.84178 0.0
H329 H 0.18351 0.38095 0.90098 0.0
C330 C 0.24799 0.38226 0.83283 0.0
C331 C 0.18436 0.34046 0.86698 0.0
C332 C 0.14251 0.29721 0.87871 0.0
C333 C 0.2653 0.42301 0.84787 0.0
C334 C 0.24206 0.42249 0.87293 0.0
C335 C 0.20158 0.38124 0.88196 0.0
C336 C 0.25682 0.46462 0.88844 0.0
C337 C 0.30729 0.46639 0.83631 0.0
C338 C 0.3085 0.49654 0.90392 0.0
C339 C 0.32485 0.53959 0.91326 0.0
C340 C 0.28971 0.55114 0.90716 0.0
C341 C 0.23681 0.51792 0.89405 0.0
C342 C 0.22039 0.47494 0.88498 0.0
H343 H 0.31421 0.46095 0.8137 0.0
H344 H 0.29577 0.4895 0.83503 0.0
H345 H 0.34531 0.48303 0.85205 0.0
H346 H 0.33709 0.48906 0.90708 0.0
H347 H 0.36617 0.5649 0.92258 0.0
H348 H 0.5416 0.77822 0.92484 0.0
H349 H 0.63228 0.82377 0.9128 0.0
H350 H 0.56929 0.7834 0.81839 0.0
H351 H 0.47938 0.73733 0.83011 0.0
H352 H 0.65081 0.77856 0.83389 0.0
H353 H 0.70851 0.9437 0.87817 0.0
H354 H 0.68739 0.90328 0.90537 0.0
H355 H 0.64074 0.89389 0.87319 0.0
C356 C 0.5471 0.77911 0.90153 0.0
C357 C 0.50298 0.75408 0.87851 0.0
C358 C 0.59899 0.80543 0.89464 0.0
C359 C 0.60772 0.80766 0.8646 0.0
C360 C 0.56374 0.78242 0.84171 0.0
H361 H 0.87896 0.94659 0.76742 0.0
H362 H 0.78983 0.90117 0.78156 0.0
C363 C 0.51216 0.75603 0.84854 0.0
C364 C 0.66238 0.83541 0.85666 0.0
H365 H 0.77585 0.94257 0.86127 0.0
C366 C 0.67807 0.81445 0.83984 0.0
C367 C 0.69802 0.88231 0.86431 0.0
C368 C 0.68278 0.90729 0.881 0.0
C369 C 0.72838 0.83887 0.83076 0.0
C370 C 0.76393 0.88569 0.83839 0.0
C371 C 0.7485 0.90667 0.85538 0.0
C372 C 0.81776 0.91338 0.8295 0.0
C373 C 0.74347 0.81424 0.81351 0.0
C374 C 0.86304 0.93601 0.85171 0.0
C375 C 0.91389 0.96195 0.84373 0.0
C376 C 0.92078 0.96624 0.81329 0.0
C377 C 0.87525 0.94393 0.79104 0.0
C378 C 0.82425 0.91777 0.79909 0.0
H379 H 0.71697 0.77758 0.81537 0.0
H380 H 0.74024 0.81983 0.78936 0.0
H381 H 0.78517 0.82691 0.82168 0.0
H382 H 0.85904 0.93327 0.8753 0.0
H383 H 0.94786 0.97869 0.86156 0.0
H384 H 0.05565 0.91271 0.75859 0.0
H385 H 0.0824 0.86332 0.7706 0.0
H386 H 0.23203 0.97547 0.81922 0.0
H387 H 0.20562 0.02447 0.80728 0.0
H388 H 0.2398 0.91456 0.78611 0.0
H389 H 0.08246 0.82982 0.85877 0.0
H390 H 0.06095 0.83039 0.81991 0.0
H391 H 0.10322 0.88201 0.84372 0.0
C392 C 0.09503 0.92699 0.77077 0.0
C393 C 0.12871 0.97237 0.78191 0.0
C394 C 0.10997 0.8987 0.77803 0.0
C395 C 0.1588 0.91559 0.79636 0.0
C396 C 0.19412 0.96164 0.80522 0.0
H397 H 0.32906 0.82195 0.89286 0.0
H398 H 0.29889 0.86627 0.87297 0.0
C399 C 0.1791 0.98966 0.79823 0.0
C400 C 0.17183 0.88544 0.80871 0.0
H401 H 0.13738 0.80645 0.85869 0.0
C402 C 0.21722 0.89069 0.80181 0.0
C403 C 0.14262 0.85461 0.82945 0.0
C404 C 0.0948 0.84889 0.83869 0.0
C405 C 0.23403 0.86581 0.81494 0.0
C406 C 0.20539 0.83558 0.83611 0.0
C407 C 0.15951 0.82982 0.84264 0.0
C408 C 0.22181 0.80895 0.85118 0.0
C409 C 0.28192 0.8717 0.80567 0.0
C410 C 0.18744 0.76197 0.84714 0.0
C411 C 0.20433 0.73673 0.85888 0.0
C412 C 0.25584 0.75796 0.87496 0.0
C413 C 0.28909 0.8048 0.88065 0.0
C414 C 0.27215 0.83011 0.86891 0.0
H415 H 0.29064 0.88668 0.78389 0.0
H416 H 0.31719 0.8945 0.82301 0.0
H417 H 0.27603 0.83916 0.80363 0.0
H418 H 0.14827 0.74485 0.83383 0.0
H419 H 0.17799 0.70061 0.85424 0.0
H420 H 0.87546 0.45124 0.58432 0.0
H421 H 0.96455 0.49791 0.57021 0.0
H422 H 0.896 0.4541 0.47669 0.0
H423 H 0.8072 0.40783 0.49039 0.0
H424 H 1.01449 0.47103 0.53805 0.0
H425 H 0.99317 0.59096 0.47718 0.0
H426 H 0.94816 0.55431 0.50215 0.0
H427 H 0.94167 0.53305 0.46471 0.0
C428 C 0.87929 0.45163 0.56074 0.0
C429 C 0.83396 0.42583 0.53853 0.0
C430 C 0.93026 0.47833 0.55271 0.0
C431 C 0.93691 0.48009 0.52235 0.0
C432 C 0.89185 0.45406 0.5002 0.0
H433 H 0.21585 0.61952 0.43048 0.0
H434 H 0.12486 0.5734 0.44218 0.0
C435 C 0.84101 0.42735 0.50816 0.0
C436 C 0.99097 0.5081 0.5138 0.0
H437 H 0.07059 0.59563 0.47347 0.0
C438 C 1.02684 0.49841 0.52405 0.0
C439 C 1.0069 0.54356 0.49528 0.0
C440 C 0.9707 0.55646 0.48436 0.0
C441 C 0.07797 0.52286 0.51607 0.0
C442 C 0.09418 0.55869 0.49784 0.0
C443 C 0.05815 0.56816 0.48737 0.0
C444 C 0.14905 0.58769 0.49043 0.0
C445 C 0.11382 0.50952 0.52681 0.0
C446 C 0.19276 0.61194 0.51357 0.0
C447 C 0.24452 0.6381 0.50701 0.0
C448 C 0.25402 0.64108 0.47705 0.0
C449 C 0.21008 0.61791 0.45377 0.0
C450 C 0.15806 0.59151 0.46043 0.0
H451 H 0.09075 0.4743 0.53265 0.0
H452 H 0.13792 0.51335 0.50947 0.0
H453 H 0.14135 0.5314 0.54734 0.0
H454 H 0.18686 0.61052 0.53683 0.0
H455 H 0.27717 0.65579 0.52557 0.0
H456 H 0.51269 0.3751 0.53696 0.0
H457 H 0.4838 0.4201 0.517 0.0
H458 H 0.64306 0.54044 0.54279 0.0
H459 H 0.67213 0.49523 0.56274 0.0
H460 H 0.55518 0.54516 0.55312 0.0
H461 H 0.53319 0.47964 0.43696 0.0
H462 H 0.49949 0.43761 0.46243 0.0
H463 H 0.5708 0.47565 0.46889 0.0
C464 C 0.54111 0.41126 0.53911 0.0
C465 C 0.59452 0.43179 0.55142 0.0
C466 C 0.52476 0.43687 0.52743 0.0
C467 C 0.56153 0.4835 0.52783 0.0
C468 C 0.61415 0.50445 0.54206 0.0
H469 H 0.52134 0.67271 0.43515 0.0
H470 H 0.55583 0.62984 0.45118 0.0
C471 C 0.63061 0.47872 0.5537 0.0
C472 C 0.54535 0.50976 0.51201 0.0
H473 H 0.49961 0.5219 0.44235 0.0
C474 C 0.54348 0.54038 0.5289 0.0
C475 C 0.53058 0.5038 0.48033 0.0
C476 C 0.53396 0.47271 0.46096 0.0
C477 C 0.5253 0.56391 0.51505 0.0
C478 C 0.50866 0.55665 0.48353 0.0
C479 C 0.51218 0.5272 0.4665 0.0
C480 C 0.48499 0.57789 0.46846 0.0
C481 C 0.52305 0.59592 0.53418 0.0
C482 C 0.43299 0.5616 0.4715 0.0
C483 C 0.41318 0.58556 0.46201 0.0
C484 C 0.44484 0.6261 0.44913 0.0
C485 C 0.49558 0.64082 0.44411 0.0
C486 C 0.51549 0.61669 0.45362 0.0
H487 H 0.54472 0.60298 0.5574 0.0
H488 H 0.54019 0.62803 0.52384 0.0
H489 H 0.48094 0.5812 0.53554 0.0
H490 H 0.40889 0.53176 0.48289 0.0
H491 H 0.37454 0.57422 0.46689 0.0
H492 H 0.43409 0.87387 0.45767 0.0
H493 H 0.4646 0.94854 0.4774 0.0
H494 H 0.61714 0.9794 0.51357 0.0
H495 H 0.58702 0.90532 0.49332 0.0
H496 H 0.49464 0.97858 0.5376 0.0
H497 H 0.66092 0.09344 0.47593 0.0
H498 H 0.61262 0.03458 0.46376 0.0
H499 H 0.66656 0.05292 0.49382 0.0
C500 C 0.4747 0.89727 0.4689 0.0
C501 C 0.50844 0.88414 0.47376 0.0
C502 C 0.49194 0.9397 0.48046 0.0
C503 C 0.54333 0.96981 0.49687 0.0
C504 C 0.57775 0.95728 0.50055 0.0
H505 H 0.70539 0.23689 0.59112 0.0
H506 H 0.67941 0.16118 0.57839 0.0
C507 C 0.56054 0.91495 0.48898 0.0
C508 C 0.55943 1.01267 0.51216 0.0
H509 H 0.65249 0.12633 0.51783 0.0
C510 C 0.52908 1.01089 0.53318 0.0
C511 C 0.60472 0.05486 0.50672 0.0
C512 C 0.63785 0.05927 0.48364 0.0
C513 C 0.54269 0.05 0.54884 0.0
C514 C 0.58757 0.0922 0.54313 0.0
C515 C 0.61843 0.09397 0.52247 0.0
C516 C 0.6003 0.13507 0.55599 0.0
C517 C 0.50903 0.04577 0.5715 0.0
C518 C 0.564 0.14511 0.54853 0.0
C519 C 0.57871 0.188 0.55584 0.0
C520 C 0.62995 0.22182 0.5709 0.0
C521 C 0.66522 0.21112 0.58022 0.0
C522 C 0.65061 0.16808 0.5726 0.0
H523 H 0.48733 1.01217 0.58009 0.0
H524 H 0.53361 0.07167 0.59084 0.0
H525 H 0.4791 0.05032 0.56055 0.0
H526 H 0.52543 0.12067 0.53525 0.0
H527 H 0.55117 0.19565 0.54789 0.0
H528 H 0.98761 0.07271 0.62345 0.0
H529 H 0.9951 0.07324 0.57008 0.0
H530 H 0.07537 1.01129 0.58474 0.0
H531 H 0.06726 1.00991 0.63811 0.0
H532 H 0.12397 0.08412 0.54854 0.0
H533 H 0.90762 0.96264 0.50811 0.0
H534 H 0.92497 1.00925 0.53243 0.0
H535 H 0.93668 0.9702 0.54694 0.0
C536 C 1.007 0.05926 0.61539 0.0
C537 C 1.02761 0.04197 0.63531 0.0
C538 C 1.01102 0.05942 0.58481 0.0
C539 C 0.03525 0.04184 0.57332 0.0
C540 C 0.05659 0.02511 0.59313 0.0
H541 H 1.01975 0.98516 0.38173 0.0
H542 H 1.01201 0.97877 0.43514 0.0
C543 C 0.05248 0.02486 0.62379 0.0
C544 C 0.03842 0.04121 0.54066 0.0
H545 H 0.96225 1.00211 0.47093 0.0
C546 C 0.08863 0.06599 0.53157 0.0
C547 C 0.99229 1.01699 0.51851 0.0
C548 C 0.93731 0.98789 0.52691 0.0
C549 C 0.09393 0.06837 0.50095 0.0
C550 C 0.04778 0.0458 0.4788 0.0
C551 C 0.99759 0.01981 0.48789 0.0
C552 C 0.05087 0.04939 0.44612 0.0
C553 C 0.14893 0.09488 0.49256 0.0
C554 C 0.07427 0.09104 0.43437 0.0
C555 C 0.07803 0.09469 0.40374 0.0
C556 C 0.05797 0.05671 0.38405 0.0
C557 C 0.03401 1.0149 0.39585 0.0
C558 C 0.03014 1.01125 0.42654 0.0
H559 H 0.17888 0.09996 0.51144 0.0
H560 H 0.14995 0.07787 0.47268 0.0
H561 H 0.1606 0.12834 0.48677 0.0
H562 H 0.08972 0.12082 0.44891 0.0
H563 H 0.09676 0.12742 0.39546 0.0
H564 H 0.67086 0.41567 0.95679 0.0
H565 H 0.67786 0.4148 0.90345 0.0
H566 H 0.7483 0.34479 0.9182 0.0
H567 H 0.74028 0.34447 0.97155 0.0
H568 H 0.80111 0.41947 0.88143 0.0
H569 H 0.58376 0.30134 0.84238 0.0
H570 H 0.60363 0.3484 0.86722 0.0
H571 H 0.61352 0.30799 0.88093 0.0
C572 C 0.68803 0.40016 0.9488 0.0
C573 C 0.7058 0.3808 0.96875 0.0
C574 C 0.69181 0.39958 0.91823 0.0
C575 C 0.71311 0.37935 0.90678 0.0
C576 C 0.73182 0.36067 0.9266 0.0
H577 H 0.69245 0.32128 0.71444 0.0
H578 H 0.6862 0.31469 0.76802 0.0
C579 C 0.72782 0.36105 0.95726 0.0
C580 C 0.7156 0.37781 0.8741 0.0
H581 H 0.63803 0.33917 0.80479 0.0
C582 C 0.76549 0.40166 0.86467 0.0
C583 C 0.66906 0.35405 0.85225 0.0
C584 C 0.61439 0.32611 0.8611 0.0
C585 C 0.77009 0.40371 0.83394 0.0
C586 C 0.72357 0.38167 0.81209 0.0
C587 C 0.67366 0.35645 0.82154 0.0
C588 C 0.72599 0.38539 0.77936 0.0
C589 C 0.82474 0.42945 0.82512 0.0
C590 C 0.74944 0.42715 0.76778 0.0
C591 C 0.75228 0.43092 0.73707 0.0
C592 C 0.7313 0.39296 0.71712 0.0
C593 C 0.70739 0.35103 0.72877 0.0
C594 C 0.7044 0.34726 0.75955 0.0
H595 H 0.85479 0.43413 0.84376 0.0
H596 H 0.82481 0.41206 0.80509 0.0
H597 H 0.83696 0.46308 0.81939 0.0
H598 H 0.76555 0.45692 0.78253 0.0
H599 H 0.771 0.46373 0.72893 0.0
H600 H 0.3592 0.76824 0.29405 0.0
H601 H 0.36548 0.76699 0.24044 0.0
H602 H 0.38927 0.66427 0.24963 0.0
H603 H 0.38275 0.66514 0.30333 0.0
H604 H 0.45735 0.77776 0.2137 0.0
H605 H 0.25682 0.61683 0.1791 0.0
H606 H 0.27286 0.65108 0.21312 0.0
H607 H 0.29923 0.61974 0.21142 0.0
C608 C 0.3661 0.74556 0.28471 0.0
C609 C 0.37134 0.71732 0.30306 0.0
C610 C 0.3697 0.74492 0.2541 0.0
C611 C 0.37766 0.71546 0.24108 0.0
C612 C 0.38306 0.68723 0.25927 0.0
H613 H 0.37405 0.66171 0.05056 0.0
H614 H 0.37168 0.65668 0.10468 0.0
C615 C 0.37996 0.68815 0.29003 0.0
C616 C 0.38004 0.71441 0.20839 0.0
H617 H 0.30744 0.65425 0.14083 0.0
C618 C 0.42473 0.7507 0.19774 0.0
C619 C 0.33763 0.67887 0.18772 0.0
C620 C 0.28864 0.63935 0.19817 0.0
C621 C 0.42805 0.75257 0.16687 0.0
C622 C 0.38469 0.71786 0.14596 0.0
C623 C 0.3405 0.681 0.15676 0.0
C624 C 0.38395 0.71988 0.11284 0.0
C625 C 0.47838 0.79151 0.15706 0.0
C626 C 0.39024 0.75645 0.09918 0.0
C627 C 0.39153 0.75934 0.0683 0.0
C628 C 0.38537 0.72526 0.05019 0.0
C629 C 0.37759 0.68801 0.06369 0.0
C630 C 0.37672 0.68529 0.09471 0.0
H631 H 0.51287 0.80658 0.17546 0.0
H632 H 0.48764 0.78111 0.13723 0.0
H633 H 0.47335 0.81787 0.15091 0.0
H634 H 0.39443 0.78299 0.11245 0.0
H635 H 0.39743 0.7884 0.05856 0.0
H636 H 0.968 0.88379 0.11097 0.0
H637 H 1.01883 0.89973 0.0699 0.0
H638 H 1.02249 1.01619 0.05496 0.0
H639 H 0.97203 1.00087 0.09597 0.0
H640 H 1.00696 0.91847 1.00699 0.0
H641 H 0.18184 0.06333 0.08071 0.0
H642 H 0.1235 1.01814 0.09487 0.0
H643 H 0.12362 0.06202 0.07784 0.0
C644 C 0.97814 0.91201 0.09835 0.0
C645 C 0.96715 0.94175 0.10711 0.0
C646 C 1.00753 0.92119 0.0751 0.0
C647 C 1.02581 0.95995 0.0604 0.0
C648 C 1.0098 0.98679 0.06681 0.0
H649 H 0.15184 0.10485 0.9241 0.0
H650 H 0.13556 0.07973 0.97415 0.0
C651 C 0.98059 0.97775 0.09 0.0
C652 C 0.06412 0.97432 0.03954 0.0
H653 H 0.18607 0.06421 0.02756 0.0
C654 C 0.0467 0.94965 0.01161 0.0
C655 C 0.11611 1.01466 0.04614 0.0
C656 C 0.13767 0.04088 0.07665 0.0
C657 C 0.07825 0.9666 0.98884 0.0
C658 C 0.12852 1.00892 0.99459 0.0
C659 C 0.14762 0.03175 0.02337 0.0
C660 C 0.15551 0.03356 0.96953 0.0
C661 C 0.05572 0.94101 0.95806 0.0
C662 C 0.17598 1.01829 0.9515 0.0
C663 C 0.18563 0.03285 0.92287 0.0
C664 C 0.17428 0.06236 0.9122 0.0
C665 C 0.16026 0.08169 0.9318 0.0
C666 C 0.1511 0.06746 0.96038 0.0
H667 H 1.01439 0.91022 0.95692 0.0
H668 H 0.05591 0.96253 0.94085 0.0
H669 H 0.08084 0.9311 0.95219 0.0
H670 H 0.18 0.99238 0.95847 0.0
H671 H 0.19656 1.01754 0.90814 0.0
H672 H 0.78628 0.41258 0.26097 0.0
H673 H 0.741 0.37654 0.3036 0.0
H674 H 0.74751 0.26622 0.28461 0.0
H675 H 0.79359 0.30234 0.24211 0.0
H676 H 0.63865 0.28606 0.28682 0.0
H677 H 0.77898 0.29165 0.37928 0.0
H678 H 0.80238 0.33356 0.35273 0.0
H679 H 0.77914 0.27787 0.34094 0.0
C680 C 0.78 0.38154 0.26662 0.0
C681 C 0.79272 0.35994 0.24807 0.0
C682 C 0.75391 0.36091 0.2908 0.0
C683 C 0.7404 0.31856 0.29677 0.0
C684 C 0.75784 0.29899 0.28026 0.0
H685 H 0.57049 0.19913 0.44697 0.0
H686 H 0.58927 0.19199 0.39709 0.0
C687 C 0.78439 0.31983 0.25612 0.0
C688 C 0.70205 0.29292 0.31738 0.0
H689 H 0.69365 0.26332 0.38903 0.0
C690 C 0.65022 0.28023 0.30902 0.0
C691 C 0.71717 0.28461 0.34587 0.0
C692 C 0.77243 0.2976 0.3555 0.0
C693 C 0.61419 0.26254 0.32944 0.0
C694 C 0.63082 0.25787 0.35884 0.0
C695 C 0.68106 0.26686 0.36633 0.0
C696 C 0.6025 0.25343 0.38375 0.0
C697 C 0.55972 0.25125 0.31995 0.0
C698 C 0.60118 0.28916 0.39193 0.0
C699 C 0.59122 0.29362 0.42041 0.0
C700 C 0.58212 0.26221 0.4409 0.0
C701 C 0.57713 0.22365 0.43143 0.0
C702 C 0.58798 0.21956 0.40303 0.0
H703 H 0.54659 0.24164 0.29534 0.0
H704 H 0.52991 0.2235 0.33209 0.0
H705 H 0.56111 0.28117 0.32517 0.0
H706 H 0.61309 0.31599 0.37753 0.0
H707 H 0.59521 0.32357 0.4273 0.0
H708 H 0.49047 0.76181 0.59408 0.0
H709 H 0.47515 0.73474 0.64369 0.0
H710 H 0.49317 0.6328 0.61876 0.0
H711 H 0.50943 0.66038 0.56901 0.0
H712 H 0.39134 0.601 0.63073 0.0
H713 H 0.54638 0.72433 0.72281 0.0
H714 H 0.53098 0.7507 0.6945 0.0
H715 H 0.5596 0.72304 0.68505 0.0
C716 C 0.4936 0.73498 0.59969 0.0
C717 C 0.50055 0.71284 0.57783 0.0
C718 C 0.48518 0.71968 0.62807 0.0
C719 C 0.48316 0.68184 0.63483 0.0
C720 C 0.4951 0.66229 0.61397 0.0
H721 H 0.2981 0.54402 0.78007 0.0
H722 H 0.34372 0.5523 0.73772 0.0
C723 C 0.50447 0.67814 0.58564 0.0
C724 C 0.45692 0.65781 0.66029 0.0
H725 H 0.45515 0.67893 0.73343 0.0
C726 C 0.40589 0.61706 0.65352 0.0
C727 C 0.47611 0.67897 0.68983 0.0
C728 C 0.53155 0.72148 0.69854 0.0
C729 C 0.37144 0.59941 0.67488 0.0
C730 C 0.38903 0.62306 0.70351 0.0
C731 C 0.44171 0.66138 0.71114 0.0
C732 C 0.3522 0.61207 0.72477 0.0
C733 C 0.31522 0.55792 0.66608 0.0
C734 C 0.33986 0.64179 0.73033 0.0
C735 C 0.31398 0.63729 0.7544 0.0
C736 C 0.30035 0.60308 0.77331 0.0
C737 C 0.30811 0.57074 0.76586 0.0
C738 C 0.33436 0.57546 0.7418 0.0
H739 H 0.30726 0.54431 0.64244 0.0
H740 H 0.30766 0.53166 0.68113 0.0
H741 H 0.28679 0.56561 0.6689 0.0
H742 H 0.3531 0.67004 0.71711 0.0
H743 H 0.30814 0.66246 0.75949 0.0
loop_
_geom_bond_atom_site_label_1
_geom_bond_atom_site_label_2
_geom_bond_distance
_geom_bond_site_symmetry_2
_ccdc_geom_bond_type
Co0 O3 1.970 1_455 S
Co0 N17 1.989 1_465 S
Co0 O25 1.967 1_565 S
Co0 O32 1.920 1_565 S
Co1 O4 1.969 1_445 S
Co1 N10 2.022 . S
Co1 N18 1.993 1_455 S
Co1 O26 1.941 . S
C2 O3 1.258 . S
C2 O4 1.263 . S
O3 Co0 1.970 1_655 S
O3 C2 1.258 . S
O4 Co1 1.969 1_665 S
O4 C2 1.263 . S
C5 O6 1.235 . S
C5 O32 1.289 1_665 S
O6 C5 1.235 . S
C7 C9 1.400 1_565 S
C7 N10 1.351 1_665 S
C7 C12 1.501 . S
C8 C9 1.387 1_455 S
C8 N11 1.341 . S
C9 C7 1.400 1_545 S
C9 C8 1.387 1_655 S
N10 Co1 2.022 . S
N10 C7 1.351 1_445 S
N10 N11 1.365 . S
N11 C8 1.341 . S
N11 N10 1.365 . S
N11 H31 0.862 . S
C12 C7 1.501 . S
C12 H13 0.961 . S
C12 H14 0.961 . S
C12 H15 0.960 . S
H13 C12 0.961 . S
H14 C12 0.961 . S
H15 C12 0.960 . S
C16 N17 1.342 . S
C16 C20 1.401 . S
C16 C21 1.499 . S
N17 Co0 1.989 1_645 S
N17 C16 1.342 . S
N17 N18 1.388 . S
N18 Co1 1.993 1_655 S
N18 N17 1.388 . S
N18 C19 1.346 . S
C19 N18 1.346 . S
C19 C20 1.396 . S
C19 C29 1.510 . S
C20 C16 1.401 . S
C20 C19 1.396 . S
C21 C16 1.499 . S
C21 H22 0.959 . S
C21 H23 0.960 . S
C21 H24 0.961 . S
H22 C21 0.959 . S
H23 C21 0.960 . S
H24 C21 0.961 . S
O25 Co0 1.967 1_545 S
O25 C33 1.258 . S
O26 Co1 1.941 . S
O26 C33 1.266 . S
H27 C29 0.959 . S
H28 C29 0.961 . S
C29 C19 1.510 . S
C29 H27 0.959 . S
C29 H28 0.961 . S
C29 H30 0.960 . S
H30 C29 0.960 . S
H31 N11 0.862 . S
O32 Co0 1.920 1_545 S
O32 C5 1.289 1_445 S
C33 O25 1.258 . S
C33 O26 1.266 . S
Co34 O37 1.970 1_545 S
Co34 N51 1.989 . S
Co34 O59 1.967 1_445 S
Co34 O66 1.920 . S
Co35 O38 1.946 1_545 S
Co35 N44 2.024 . S
Co35 N52 2.010 . S
Co35 O60 1.940 1_445 S
C36 O37 1.258 . S
C36 O38 1.263 . S
O37 Co34 1.970 1_565 S
O37 C36 1.258 . S
O38 Co35 1.946 1_565 S
O38 C36 1.263 . S
C39 O40 1.235 . S
C39 O66 1.289 . S
O40 C39 1.235 . S
C41 C43 1.400 . S
C41 N44 1.351 . S
C41 C46 1.501 1_545 S
C42 C43 1.387 . S
C42 N45 1.341 1_455 S
C43 C41 1.400 . S
C43 C42 1.387 . S
N44 Co35 2.024 . S
N44 C41 1.351 . S
N44 N45 1.365 1_455 S
N45 C42 1.341 1_655 S
N45 N44 1.365 1_655 S
N45 H65 0.862 . S
C46 C41 1.501 1_565 S
C46 H47 0.961 . S
C46 H48 0.961 1_565 S
C46 H49 0.960 . S
H47 C46 0.961 . S
H48 C46 0.961 1_545 S
H49 C46 0.960 . S
C50 N51 1.342 . S
C50 C54 1.401 . S
C50 C55 1.499 . S
N51 Co34 1.989 . S
N51 C50 1.342 . S
N51 N52 1.388 . S
N52 Co35 2.010 . S
N52 N51 1.388 . S
N52 C53 1.346 . S
C53 N52 1.346 . S
C53 C54 1.396 . S
C53 C63 1.510 . S
C54 C50 1.401 . S
C54 C53 1.396 . S
C55 C50 1.499 . S
C55 H56 0.959 . S
C55 H57 0.960 . S
C55 H58 0.961 . S
H56 C55 0.959 . S
H57 C55 0.960 . S
H58 C55 0.961 . S
O59 Co34 1.967 1_665 S
O59 C67 1.258 . S
O60 Co35 1.940 1_665 S
O60 C67 1.266 . S
H61 C63 0.959 . S
H62 C63 0.961 . S
C63 C53 1.510 . S
C63 H61 0.959 . S
C63 H62 0.961 . S
C63 H64 0.960 . S
H64 C63 0.960 . S
H65 N45 0.862 . S
O66 Co34 1.920 . S
O66 C39 1.289 . S
C67 O59 1.258 . S
C67 O60 1.266 . S
Co68 O71 1.970 . S
Co68 N85 1.989 . S
Co68 O93 1.967 . S
Co68 O100 1.920 . S
Co69 O72 1.966 . S
Co69 N78 2.022 . S
Co69 N86 1.993 . S
Co69 O94 1.941 . S
C70 O71 1.258 . S
C70 O72 1.263 . S
O71 Co68 1.970 . S
O71 C70 1.258 . S
O72 Co69 1.966 . S
O72 C70 1.263 . S
C73 O74 1.235 . S
C73 O100 1.289 . S
O74 C73 1.235 . S
C75 C77 1.400 . S
C75 N78 1.351 . S
C75 C80 1.501 . S
C76 C77 1.387 . S
C76 N79 1.341 . S
C77 C75 1.400 . S
C77 C76 1.387 . S
N78 Co69 2.022 . S
N78 C75 1.351 . S
N78 N79 1.365 . S
N79 C76 1.341 . S
N79 N78 1.365 . S
N79 H99 0.862 . S
C80 C75 1.501 . S
C80 H81 0.961 . S
C80 H82 0.961 . S
C80 H83 0.960 . S
H81 C80 0.961 . S
H82 C80 0.961 . S
H83 C80 0.960 . S
C84 N85 1.342 . S
C84 C88 1.401 . S
C84 C89 1.499 . S
N85 Co68 1.989 . S
N85 C84 1.342 . S
N85 N86 1.388 . S
N86 Co69 1.993 . S
N86 N85 1.388 . S
N86 C87 1.346 . S
C87 N86 1.346 . S
C87 C88 1.396 . S
C87 C97 1.510 . S
C88 C84 1.401 . S
C88 C87 1.396 . S
C89 C84 1.499 . S
C89 H90 0.959 . S
C89 H91 0.960 . S
C89 H92 0.961 . S
H90 C89 0.959 . S
H91 C89 0.960 . S
H92 C89 0.961 . S
O93 Co68 1.967 . S
O93 C101 1.258 . S
O94 Co69 1.941 . S
O94 C101 1.266 . S
H95 C97 0.959 . S
H96 C97 0.961 . S
C97 C87 1.510 . S
C97 H95 0.959 . S
C97 H96 0.961 . S
C97 H98 0.960 . S
H98 C97 0.960 . S
H99 N79 0.862 . S
O100 Co68 1.920 . S
O100 C73 1.289 . S
C101 O93 1.258 . S
C101 O94 1.266 . S
Co102 O105 1.970 . S
Co102 N119 1.989 . S
Co102 O127 1.967 . S
Co102 O134 1.920 . S
Co103 O106 1.966 . S
Co103 N112 2.022 . S
Co103 N120 1.993 . S
Co103 O128 1.941 . S
C104 O105 1.258 . S
C104 O106 1.263 . S
O105 Co102 1.970 . S
O105 C104 1.258 . S
O106 Co103 1.966 . S
O106 C104 1.263 . S
C107 O108 1.235 . S
C107 O134 1.289 . S
O108 C107 1.235 . S
C109 C111 1.400 . S
C109 N112 1.351 . S
C109 C114 1.501 . S
C110 C111 1.387 . S
C110 N113 1.341 . S
C111 C109 1.400 . S
C111 C110 1.387 . S
N112 Co103 2.022 . S
N112 C109 1.351 . S
N112 N113 1.365 . S
N113 C110 1.341 . S
N113 N112 1.365 . S
N113 H133 0.862 . S
C114 C109 1.501 . S
C114 H115 0.961 . S
C114 H116 0.961 . S
C114 H117 0.960 . S
H115 C114 0.961 . S
H116 C114 0.961 . S
H117 C114 0.960 . S
C118 N119 1.342 . S
C118 C122 1.401 . S
C118 C123 1.499 . S
N119 Co102 1.989 . S
N119 C118 1.342 . S
N119 N120 1.388 . S
N120 Co103 1.993 . S
N120 N119 1.388 . S
N120 C121 1.346 . S
C121 N120 1.346 . S
C121 C122 1.396 . S
C121 C131 1.510 . S
C122 C118 1.401 . S
C122 C121 1.396 . S
C123 C118 1.499 . S
C123 H124 0.959 . S
C123 H125 0.960 . S
C123 H126 0.961 . S
H124 C123 0.959 . S
H125 C123 0.960 . S
H126 C123 0.961 . S
O127 Co102 1.967 . S
O127 C135 1.258 . S
O128 Co103 1.941 . S
O128 C135 1.266 . S
H129 C131 0.959 . S
H130 C131 0.961 . S
C131 C121 1.510 . S
C131 H129 0.959 . S
C131 H130 0.961 . S
C131 H132 0.960 . S
H132 C131 0.960 . S
H133 N113 0.862 . S
O134 Co102 1.920 . S
O134 C107 1.289 . S
C135 O127 1.258 . S
C135 O128 1.266 . S
Co136 O139 1.970 . S
Co136 N153 1.989 . S
Co136 O161 1.967 . S
Co136 O168 1.920 . S
Co137 O140 1.966 . S
Co137 N146 2.022 . S
Co137 N154 1.993 . S
Co137 O162 1.941 . S
C138 O139 1.258 . S
C138 O140 1.263 . S
O139 Co136 1.970 . S
O139 C138 1.258 . S
O140 Co137 1.966 . S
O140 C138 1.263 . S
C141 O142 1.235 . S
C141 O168 1.289 . S
O142 C141 1.235 . S
C143 C145 1.400 . S
C143 N146 1.351 . S
C143 C148 1.501 . S
C144 C145 1.387 . S
C144 N147 1.341 . S
C145 C143 1.400 . S
C145 C144 1.387 . S
N146 Co137 2.022 . S
N146 C143 1.351 . S
N146 N147 1.365 . S
N147 C144 1.341 . S
N147 N146 1.365 . S
N147 H167 0.862 . S
C148 C143 1.501 . S
C148 H149 0.961 . S
C148 H150 0.961 . S
C148 H151 0.960 . S
H149 C148 0.961 . S
H150 C148 0.961 . S
H151 C148 0.960 . S
C152 N153 1.342 . S
C152 C156 1.401 . S
C152 C157 1.499 . S
N153 Co136 1.989 . S
N153 C152 1.342 . S
N153 N154 1.388 . S
N154 Co137 1.993 . S
N154 N153 1.388 . S
N154 C155 1.346 . S
C155 N154 1.346 . S
C155 C156 1.396 . S
C155 C165 1.510 . S
C156 C152 1.401 . S
C156 C155 1.396 . S
C157 C152 1.499 . S
C157 H158 0.959 . S
C157 H159 0.960 . S
C157 H160 0.961 . S
H158 C157 0.959 . S
H159 C157 0.960 . S
H160 C157 0.961 . S
O161 Co136 1.967 . S
O161 C169 1.258 . S
O162 Co137 1.941 . S
O162 C169 1.266 . S
H163 C165 0.959 . S
H164 C165 0.961 . S
C165 C155 1.510 . S
C165 H163 0.959 . S
C165 H164 0.961 . S
C165 H166 0.960 . S
H166 C165 0.960 . S
H167 N147 0.862 . S
O168 Co136 1.920 . S
O168 C141 1.289 . S
C169 O161 1.258 . S
C169 O162 1.266 . S
Co170 O173 1.970 . S
Co170 N187 1.989 . S
Co170 O195 1.967 . S
Co170 O202 1.920 . S
Co171 O174 1.966 . S
Co171 N180 2.022 . S
Co171 N188 1.993 . S
Co171 O196 1.941 . S
C172 O173 1.258 . S
C172 O174 1.263 . S
O173 Co170 1.970 . S
O173 C172 1.258 . S
O174 Co171 1.966 . S
O174 C172 1.263 . S
C175 O176 1.235 . S
C175 O202 1.289 . S
O176 C175 1.235 . S
C177 C179 1.400 . S
C177 N180 1.351 . S
C177 C182 1.501 . S
C178 C179 1.387 . S
C178 N181 1.341 . S
C179 C177 1.400 . S
C179 C178 1.387 . S
N180 Co171 2.022 . S
N180 C177 1.351 . S
N180 N181 1.365 . S
N181 C178 1.341 . S
N181 N180 1.365 . S
N181 H201 0.862 . S
C182 C177 1.501 . S
C182 H183 0.961 . S
C182 H184 0.961 . S
C182 H185 0.960 . S
H183 C182 0.961 . S
H184 C182 0.961 . S
H185 C182 0.960 . S
C186 N187 1.342 . S
C186 C190 1.401 . S
C186 C191 1.499 . S
N187 Co170 1.989 . S
N187 C186 1.342 . S
N187 N188 1.388 . S
N188 Co171 1.993 . S
N188 N187 1.388 . S
N188 C189 1.346 . S
C189 N188 1.346 . S
C189 C190 1.396 . S
C189 C199 1.510 . S
C190 C186 1.401 . S
C190 C189 1.396 . S
C191 C186 1.499 . S
C191 H192 0.959 . S
C191 H193 0.960 . S
C191 H194 0.961 . S
H192 C191 0.959 . S
H193 C191 0.960 . S
H194 C191 0.961 . S
O195 Co170 1.967 . S
O195 C203 1.258 . S
O196 Co171 1.941 . S
O196 C203 1.266 . S
H197 C199 0.959 . S
H198 C199 0.961 . S
C199 C189 1.510 . S
C199 H197 0.959 . S
C199 H198 0.961 . S
C199 H200 0.960 . S
H200 C199 0.960 . S
H201 N181 0.862 . S
O202 Co170 1.920 . S
O202 C175 1.289 . S
C203 O195 1.258 . S
C203 O196 1.266 . S
H204 C212 0.929 . S
H205 C214 0.930 . S
H206 C216 0.930 . S
H207 C219 0.929 . S
H208 C222 0.930 . S
H209 C224 0.960 . S
H210 C224 0.960 . S
H211 C224 0.960 . S
C212 H204 0.929 . S
C212 C213 1.377 . S
C212 C214 1.384 . S
C213 C212 1.377 . S
C213 C219 1.390 . S
C214 H205 0.930 . S
C214 C212 1.384 . S
C214 C215 1.372 . S
C215 C214 1.372 . S
C215 C216 1.400 . S
C215 C220 1.490 . S
C216 H206 0.930 . S
C216 C215 1.400 . S
C216 C219 1.386 . S
H217 C233 0.930 . S
H218 C234 0.931 . S
C219 H207 0.929 . S
C219 C213 1.390 . S
C219 C216 1.386 . S
C220 C215 1.490 . S
C220 C222 1.395 . S
C220 C223 1.403 . S
H221 C227 0.930 . S
C222 H208 0.930 . S
C222 C220 1.395 . S
C222 C225 1.403 . S
C223 C220 1.403 . S
C223 C224 1.524 . S
C223 C227 1.400 . S
C224 H209 0.960 . S
C224 H210 0.960 . S
C224 H211 0.960 . S
C224 C223 1.524 . S
C225 C222 1.403 . S
C225 C226 1.392 . S
C225 C229 1.495 . S
C226 C225 1.392 . S
C226 C227 1.385 . S
C226 C228 1.478 . S
C227 H221 0.930 . S
C227 C223 1.400 . S
C227 C226 1.385 . S
C228 C226 1.478 . S
C228 C230 1.381 . S
C228 C234 1.383 . S
C229 C225 1.495 . S
C229 H235 0.959 . S
C229 H236 0.961 . S
C229 H237 0.960 . S
C230 C228 1.381 . S
C230 C231 1.394 . S
C230 H238 0.930 . S
C231 C230 1.394 . S
C231 C232 1.383 . S
C231 H239 0.929 . S
C232 C231 1.383 . S
C232 C233 1.377 . S
C233 H217 0.930 . S
C233 C232 1.377 . S
C233 C234 1.379 . S
C234 H218 0.931 . S
C234 C228 1.383 . S
C234 C233 1.379 . S
H235 C229 0.959 . S
H236 C229 0.961 . S
H237 C229 0.960 . S
H238 C230 0.930 . S
H239 C231 0.929 . S
H240 C248 0.929 . S
H241 C250 0.930 . S
H242 C252 0.930 . S
H243 C255 0.929 . S
H244 C258 0.930 . S
H245 C260 0.960 . S
H246 C260 0.960 . S
H247 C260 0.960 . S
C248 H240 0.929 . S
C248 C249 1.377 . S
C248 C250 1.384 . S
C249 C248 1.377 . S
C249 C255 1.390 . S
C250 H241 0.930 . S
C250 C248 1.384 . S
C250 C251 1.372 . S
C251 C250 1.372 . S
C251 C252 1.400 . S
C251 C256 1.490 . S
C252 H242 0.930 . S
C252 C251 1.400 . S
C252 C255 1.386 . S
H253 C269 0.930 . S
H254 C270 0.931 . S
C255 H243 0.929 . S
C255 C249 1.390 . S
C255 C252 1.386 . S
C256 C251 1.490 . S
C256 C258 1.395 . S
C256 C259 1.403 . S
H257 C263 0.930 . S
C258 H244 0.930 . S
C258 C256 1.395 . S
C258 C261 1.403 . S
C259 C256 1.403 . S
C259 C260 1.524 . S
C259 C263 1.400 . S
C260 H245 0.960 . S
C260 H246 0.960 . S
C260 H247 0.960 . S
C260 C259 1.524 . S
C261 C258 1.403 . S
C261 C262 1.392 . S
C261 C265 1.495 . S
C262 C261 1.392 . S
C262 C263 1.385 . S
C262 C264 1.478 . S
C263 H257 0.930 . S
C263 C259 1.400 . S
C263 C262 1.385 . S
C264 C262 1.478 . S
C264 C266 1.381 . S
C264 C270 1.383 . S
C265 C261 1.495 . S
C265 H271 0.959 . S
C265 H272 0.961 . S
C265 H273 0.960 . S
C266 C264 1.381 . S
C266 C267 1.394 . S
C266 H274 0.930 . S
C267 C266 1.394 . S
C267 C268 1.383 . S
C267 H275 0.929 . S
C268 C267 1.383 . S
C268 C269 1.377 . S
C269 H253 0.930 . S
C269 C268 1.377 . S
C269 C270 1.379 . S
C270 H254 0.931 . S
C270 C264 1.383 . S
C270 C269 1.379 . S
H271 C265 0.959 . S
H272 C265 0.961 . S
H273 C265 0.960 . S
H274 C266 0.930 . S
H275 C267 0.929 . S
H276 C284 0.929 . S
H277 C286 0.930 . S
H278 C288 0.930 . S
H279 C291 0.929 . S
H280 C294 0.930 . S
H281 C296 0.960 . S
H282 C296 0.960 . S
H283 C296 0.960 . S
C284 H276 0.929 . S
C284 C285 1.377 . S
C284 C286 1.384 . S
C285 C284 1.377 . S
C285 C291 1.390 . S
C286 H277 0.930 . S
C286 C284 1.384 . S
C286 C287 1.372 . S
C287 C286 1.372 . S
C287 C288 1.400 . S
C287 C292 1.490 . S
C288 H278 0.930 . S
C288 C287 1.400 . S
C288 C291 1.386 . S
H289 C305 0.930 . S
H290 C306 0.931 . S
C291 H279 0.929 . S
C291 C285 1.390 . S
C291 C288 1.386 . S
C292 C287 1.490 . S
C292 C294 1.395 . S
C292 C295 1.403 . S
H293 C299 0.930 . S
C294 H280 0.930 . S
C294 C292 1.395 . S
C294 C297 1.403 . S
C295 C292 1.403 . S
C295 C296 1.524 . S
C295 C299 1.400 . S
C296 H281 0.960 . S
C296 H282 0.960 . S
C296 H283 0.960 . S
C296 C295 1.524 . S
C297 C294 1.403 . S
C297 C298 1.392 . S
C297 C301 1.495 . S
C298 C297 1.392 . S
C298 C299 1.385 . S
C298 C300 1.478 . S
C299 H293 0.930 . S
C299 C295 1.400 . S
C299 C298 1.385 . S
C300 C298 1.478 . S
C300 C302 1.381 . S
C300 C306 1.383 . S
C301 C297 1.495 . S
C301 H307 0.959 . S
C301 H308 0.961 . S
C301 H309 0.960 1_655 S
C302 C300 1.381 . S
C302 C303 1.394 . S
C302 H310 0.930 . S
C303 C302 1.394 . S
C303 C304 1.383 . S
C303 H311 0.929 1_655 S
C304 C303 1.383 . S
C304 C305 1.377 . S
C305 H289 0.930 . S
C305 C304 1.377 . S
C305 C306 1.379 . S
C306 H290 0.931 . S
C306 C300 1.383 . S
C306 C305 1.379 . S
H307 C301 0.959 . S
H308 C301 0.961 . S
H309 C301 0.960 1_455 S
H310 C302 0.930 . S
H311 C303 0.929 1_455 S
H312 C320 0.929 . S
H313 C322 0.930 . S
H314 C324 0.930 . S
H315 C327 0.929 . S
H316 C330 0.930 . S
H317 C332 0.960 . S
H318 C332 0.960 . S
H319 C332 0.960 . S
C320 H312 0.929 . S
C320 C321 1.377 . S
C320 C322 1.384 . S
C321 C320 1.377 . S
C321 C327 1.390 . S
C322 H313 0.930 . S
C322 C320 1.384 . S
C322 C323 1.372 . S
C323 C322 1.372 . S
C323 C324 1.400 . S
C323 C328 1.490 . S
C324 H314 0.930 . S
C324 C323 1.400 . S
C324 C327 1.386 . S
H325 C341 0.930 . S
H326 C342 0.931 . S
C327 H315 0.929 . S
C327 C321 1.390 . S
C327 C324 1.386 . S
C328 C323 1.490 . S
C328 C330 1.395 . S
C328 C331 1.403 . S
H329 C335 0.930 . S
C330 H316 0.930 . S
C330 C328 1.395 . S
C330 C333 1.403 . S
C331 C328 1.403 . S
C331 C332 1.524 . S
C331 C335 1.400 . S
C332 H317 0.960 . S
C332 H318 0.960 . S
C332 H319 0.960 . S
C332 C331 1.524 . S
C333 C330 1.403 . S
C333 C334 1.392 . S
C333 C337 1.495 . S
C334 C333 1.392 . S
C334 C335 1.385 . S
C334 C336 1.478 . S
C335 H329 0.930 . S
C335 C331 1.400 . S
C335 C334 1.385 . S
C336 C334 1.478 . S
C336 C338 1.381 . S
C336 C342 1.383 . S
C337 C333 1.495 . S
C337 H343 0.959 . S
C337 H344 0.961 . S
C337 H345 0.960 . S
C338 C336 1.381 . S
C338 C339 1.394 . S
C338 H346 0.930 . S
C339 C338 1.394 . S
C339 C340 1.383 . S
C339 H347 0.929 . S
C340 C339 1.383 . S
C340 C341 1.377 . S
C341 H325 0.930 . S
C341 C340 1.377 . S
C341 C342 1.379 . S
C342 H326 0.931 . S
C342 C336 1.383 . S
C342 C341 1.379 . S
H343 C337 0.959 . S
H344 C337 0.961 . S
H345 C337 0.960 . S
H346 C338 0.930 . S
H347 C339 0.929 . S
H348 C356 0.929 . S
H349 C358 0.930 . S
H350 C360 0.930 . S
H351 C363 0.929 . S
H352 C366 0.930 . S
H353 C368 0.960 . S
H354 C368 0.960 . S
H355 C368 0.960 . S
C356 H348 0.929 . S
C356 C357 1.377 . S
C356 C358 1.384 . S
C357 C356 1.377 . S
C357 C363 1.390 . S
C358 H349 0.930 . S
C358 C356 1.384 . S
C358 C359 1.372 . S
C359 C358 1.372 . S
C359 C360 1.400 . S
C359 C364 1.490 . S
C360 H350 0.930 . S
C360 C359 1.400 . S
C360 C363 1.386 . S
H361 C377 0.930 . S
H362 C378 0.931 . S
C363 H351 0.929 . S
C363 C357 1.390 . S
C363 C360 1.386 . S
C364 C359 1.490 . S
C364 C366 1.395 . S
C364 C367 1.403 . S
H365 C371 0.930 . S
C366 H352 0.930 . S
C366 C364 1.395 . S
C366 C369 1.403 . S
C367 C364 1.403 . S
C367 C368 1.524 . S
C367 C371 1.400 . S
C368 H353 0.960 . S
C368 H354 0.960 . S
C368 H355 0.960 . S
C368 C367 1.524 . S
C369 C366 1.403 . S
C369 C370 1.392 . S
C369 C373 1.495 . S
C370 C369 1.392 . S
C370 C371 1.385 . S
C370 C372 1.478 . S
C371 H365 0.930 . S
C371 C367 1.400 . S
C371 C370 1.385 . S
C372 C370 1.478 . S
C372 C374 1.381 . S
C372 C378 1.383 . S
C373 C369 1.495 . S
C373 H379 0.959 . S
C373 H380 0.961 . S
C373 H381 0.960 . S
C374 C372 1.381 . S
C374 C375 1.394 . S
C374 H382 0.930 . S
C375 C374 1.394 . S
C375 C376 1.383 . S
C375 H383 0.929 . S
C376 C375 1.383 . S
C376 C377 1.377 . S
C377 H361 0.930 . S
C377 C376 1.377 . S
C377 C378 1.379 . S
C378 H362 0.931 . S
C378 C372 1.383 . S
C378 C377 1.379 . S
H379 C373 0.959 . S
H380 C373 0.961 . S
H381 C373 0.960 . S
H382 C374 0.930 . S
H383 C375 0.929 . S
H384 C392 0.929 . S
H385 C394 0.930 . S
H386 C396 0.930 . S
H387 C399 0.929 . S
H388 C402 0.930 . S
H389 C404 0.960 . S
H390 C404 0.960 . S
H391 C404 0.960 . S
C392 H384 0.929 . S
C392 C393 1.377 . S
C392 C394 1.384 . S
C393 C392 1.377 . S
C393 C399 1.390 . S
C394 H385 0.930 . S
C394 C392 1.384 . S
C394 C395 1.372 . S
C395 C394 1.372 . S
C395 C396 1.400 . S
C395 C400 1.490 . S
C396 H386 0.930 . S
C396 C395 1.400 . S
C396 C399 1.386 . S
H397 C413 0.930 . S
H398 C414 0.931 . S
C399 H387 0.929 . S
C399 C393 1.390 . S
C399 C396 1.386 . S
C400 C395 1.490 . S
C400 C402 1.395 . S
C400 C403 1.403 . S
H401 C407 0.930 . S
C402 H388 0.930 . S
C402 C400 1.395 . S
C402 C405 1.403 . S
C403 C400 1.403 . S
C403 C404 1.524 . S
C403 C407 1.400 . S
C404 H389 0.960 . S
C404 H390 0.960 . S
C404 H391 0.960 . S
C404 C403 1.524 . S
C405 C402 1.403 . S
C405 C406 1.392 . S
C405 C409 1.495 . S
C406 C405 1.392 . S
C406 C407 1.385 . S
C406 C408 1.478 . S
C407 H401 0.930 . S
C407 C403 1.400 . S
C407 C406 1.385 . S
C408 C406 1.478 . S
C408 C410 1.381 . S
C408 C414 1.383 . S
C409 C405 1.495 . S
C409 H415 0.959 . S
C409 H416 0.961 . S
C409 H417 0.960 . S
C410 C408 1.381 . S
C410 C411 1.394 . S
C410 H418 0.930 . S
C411 C410 1.394 . S
C411 C412 1.383 . S
C411 H419 0.929 . S
C412 C411 1.383 . S
C412 C413 1.377 . S
C413 H397 0.930 . S
C413 C412 1.377 . S
C413 C414 1.379 . S
C414 H398 0.931 . S
C414 C408 1.383 . S
C414 C413 1.379 . S
H415 C409 0.959 . S
H416 C409 0.961 . S
H417 C409 0.960 . S
H418 C410 0.930 . S
H419 C411 0.929 . S
H420 C428 0.929 . S
H421 C430 0.930 . S
H422 C432 0.930 . S
H423 C435 0.929 . S
H424 C438 0.930 . S
H425 C440 0.960 . S
H426 C440 0.959 . S
H427 C440 0.960 1_655 S
C428 H420 0.929 . S
C428 C429 1.377 . S
C428 C430 1.384 . S
C429 C428 1.377 . S
C429 C435 1.390 . S
C430 H421 0.930 . S
C430 C428 1.384 . S
C430 C431 1.372 . S
C431 C430 1.372 . S
C431 C432 1.400 . S
C431 C436 1.490 . S
C432 H422 0.930 . S
C432 C431 1.400 . S
C432 C435 1.386 . S
H433 C449 0.930 . S
H434 C450 0.931 . S
C435 H423 0.929 . S
C435 C429 1.390 . S
C435 C432 1.386 . S
C436 C431 1.490 . S
C436 C438 1.395 . S
C436 C439 1.403 1_655 S
H437 C443 0.930 . S
C438 H424 0.930 . S
C438 C436 1.395 . S
C438 C441 1.403 1_655 S
C439 C436 1.403 1_455 S
C439 C440 1.524 . S
C439 C443 1.400 . S
C440 H425 0.960 . S
C440 H426 0.959 . S
C440 H427 0.960 1_455 S
C440 C439 1.524 . S
C441 C438 1.403 1_455 S
C441 C442 1.392 . S
C441 C445 1.495 . S
C442 C441 1.392 . S
C442 C443 1.385 . S
C442 C444 1.478 . S
C443 H437 0.930 . S
C443 C439 1.400 . S
C443 C442 1.385 . S
C444 C442 1.478 . S
C444 C446 1.381 . S
C444 C450 1.383 . S
C445 C441 1.495 . S
C445 H451 0.967 . S
C445 H452 0.961 . S
C445 H453 0.960 . S
C446 C444 1.381 . S
C446 C447 1.394 . S
C446 H454 0.930 . S
C447 C446 1.394 . S
C447 C448 1.383 . S
C447 H455 0.929 . S
C448 C447 1.383 . S
C448 C449 1.377 . S
C449 H433 0.930 . S
C449 C448 1.377 . S
C449 C450 1.379 . S
C450 H434 0.931 . S
C450 C444 1.383 . S
C450 C449 1.379 . S
H451 C445 0.967 . S
H452 C445 0.961 . S
H453 C445 0.960 . S
H454 C446 0.930 . S
H455 C447 0.929 . S
H456 C464 0.929 . S
H457 C466 0.930 . S
H458 C468 0.930 . S
H459 C471 0.929 . S
H460 C474 0.930 . S
H461 C476 0.960 . S
H462 C476 0.960 . S
H463 C476 0.960 . S
C464 H456 0.929 . S
C464 C465 1.377 . S
C464 C466 1.384 . S
C465 C464 1.377 . S
C465 C471 1.390 . S
C466 H457 0.930 . S
C466 C464 1.384 . S
C466 C467 1.372 . S
C467 C466 1.372 . S
C467 C468 1.400 . S
C467 C472 1.490 . S
C468 H458 0.930 . S
C468 C467 1.400 . S
C468 C471 1.386 . S
H469 C485 0.930 . S
H470 C486 0.931 . S
C471 H459 0.929 . S
C471 C465 1.390 . S
C471 C468 1.386 . S
C472 C467 1.490 . S
C472 C474 1.395 . S
C472 C475 1.403 . S
H473 C479 0.930 . S
C474 H460 0.930 . S
C474 C472 1.395 . S
C474 C477 1.403 . S
C475 C472 1.403 . S
C475 C476 1.524 . S
C475 C479 1.400 . S
C476 H461 0.960 . S
C476 H462 0.960 . S
C476 H463 0.960 . S
C476 C475 1.524 . S
C477 C474 1.403 . S
C477 C478 1.392 . S
C477 C481 1.495 . S
C478 C477 1.392 . S
C478 C479 1.385 . S
C478 C480 1.478 . S
C479 H473 0.930 . S
C479 C475 1.400 . S
C479 C478 1.385 . S
C480 C478 1.478 . S
C480 C482 1.381 . S
C480 C486 1.383 . S
C481 C477 1.495 . S
C481 H487 0.959 . S
C481 H488 0.961 . S
C481 H489 0.960 . S
C482 C480 1.381 . S
C482 C483 1.394 . S
C482 H490 0.930 . S
C483 C482 1.394 . S
C483 C484 1.383 . S
C483 H491 0.929 . S
C484 C483 1.383 . S
C484 C485 1.377 . S
C485 H469 0.930 . S
C485 C484 1.377 . S
C485 C486 1.379 . S
C486 H470 0.931 . S
C486 C480 1.383 . S
C486 C485 1.379 . S
H487 C481 0.959 . S
H488 C481 0.961 . S
H489 C481 0.960 . S
H490 C482 0.930 . S
H491 C483 0.929 . S
H492 C500 0.929 . S
H493 C502 0.930 . S
H494 C504 0.930 . S
H495 C507 0.929 . S
H496 C510 0.930 . S
H497 C512 0.960 . S
H498 C512 0.960 . S
H499 C512 0.960 1_565 S
C500 H492 0.929 . S
C500 C501 1.377 . S
C500 C502 1.384 . S
C501 C500 1.377 . S
C501 C507 1.390 . S
C502 H493 0.930 . S
C502 C500 1.384 . S
C502 C503 1.372 . S
C503 C502 1.372 . S
C503 C504 1.400 . S
C503 C508 1.490 . S
C504 H494 0.930 . S
C504 C503 1.400 . S
C504 C507 1.386 . S
H505 C521 0.930 . S
H506 C522 0.931 . S
C507 H495 0.929 . S
C507 C501 1.390 . S
C507 C504 1.386 . S
C508 C503 1.490 . S
C508 C510 1.395 . S
C508 C511 1.403 1_565 S
H509 C515 0.930 . S
C510 H496 0.930 . S
C510 C508 1.395 . S
C510 C513 1.403 1_565 S
C511 C508 1.403 1_545 S
C511 C512 1.524 . S
C511 C515 1.400 . S
C512 H497 0.960 . S
C512 H498 0.960 . S
C512 H499 0.960 1_545 S
C512 C511 1.524 . S
C513 C510 1.403 1_545 S
C513 C514 1.392 . S
C513 C517 1.495 . S
C514 C513 1.392 . S
C514 C515 1.385 . S
C514 C516 1.478 . S
C515 H509 0.930 . S
C515 C511 1.400 . S
C515 C514 1.385 . S
C516 C514 1.478 . S
C516 C518 1.381 . S
C516 C522 1.383 . S
C517 C513 1.495 . S
C517 H523 0.959 . S
C517 H524 0.961 . S
C517 H525 0.960 . S
C518 C516 1.381 . S
C518 C519 1.394 . S
C518 H526 0.930 . S
C519 C518 1.394 . S
C519 C520 1.383 . S
C519 H527 0.929 . S
C520 C519 1.383 . S
C520 C521 1.377 . S
C521 H505 0.930 . S
C521 C520 1.377 . S
C521 C522 1.379 . S
C522 H506 0.931 . S
C522 C516 1.383 . S
C522 C521 1.379 . S
H523 C517 0.959 . S
H524 C517 0.961 . S
H525 C517 0.960 . S
H526 C518 0.930 . S
H527 C519 0.929 . S
H528 C536 0.929 . S
H529 C538 0.930 . S
H530 C540 0.930 . S
H531 C543 0.929 . S
H532 C546 0.930 . S
H533 C548 0.960 . S
H534 C548 0.960 . S
H535 C548 0.960 . S
C536 H528 0.929 . S
C536 C537 1.377 . S
C536 C538 1.384 . S
C537 C536 1.377 . S
C537 C543 1.390 1_545 S
C538 H529 0.930 . S
C538 C536 1.384 . S
C538 C539 1.372 . S
C539 C538 1.372 . S
C539 C540 1.400 1_545 S
C539 C544 1.490 . S
C540 H530 0.930 . S
C540 C539 1.400 1_565 S
C540 C543 1.386 . S
H541 C557 0.930 . S
H542 C558 0.931 . S
C543 H531 0.929 . S
C543 C537 1.390 1_565 S
C543 C540 1.386 . S
C544 C539 1.490 . S
C544 C546 1.395 . S
C544 C547 1.403 1_445 S
H545 C551 0.930 . S
C546 H532 0.930 . S
C546 C544 1.395 . S
C546 C549 1.403 . S
C547 C544 1.403 1_665 S
C547 C548 1.524 . S
C547 C551 1.400 . S
C548 H533 0.960 . S
C548 H534 0.960 . S
C548 H535 0.960 . S
C548 C547 1.524 . S
C549 C546 1.403 . S
C549 C550 1.392 . S
C549 C553 1.495 . S
C550 C549 1.392 . S
C550 C551 1.385 1_445 S
C550 C552 1.478 . S
C551 H545 0.930 . S
C551 C547 1.400 . S
C551 C550 1.385 1_665 S
C552 C550 1.478 . S
C552 C554 1.391 . S
C552 C558 1.383 1_545 S
C553 C549 1.495 . S
C553 H559 0.959 . S
C553 H560 0.961 . S
C553 H561 0.960 . S
C554 C552 1.391 . S
C554 C555 1.394 1_455 S
C554 H562 0.907 1_455 S
C555 C554 1.394 1_655 S
C555 C556 1.383 1_545 S
C555 H563 0.929 . S
C556 C555 1.383 1_565 S
C556 C557 1.377 1_655 S
C557 H541 0.930 . S
C557 C556 1.377 1_455 S
C557 C558 1.379 . S
C558 H542 0.931 . S
C558 C552 1.383 1_565 S
C558 C557 1.379 . S
H559 C553 0.959 . S
H560 C553 0.961 . S
H561 C553 0.960 . S
H562 C554 0.907 1_655 S
H563 C555 0.929 . S
H564 C572 0.929 . S
H565 C574 0.930 . S
H566 C576 0.930 . S
H567 C579 0.929 . S
H568 C582 0.930 . S
H569 C584 0.960 . S
H570 C584 0.960 . S
H571 C584 0.960 . S
C572 H564 0.929 . S
C572 C573 1.377 . S
C572 C574 1.384 . S
C573 C572 1.377 . S
C573 C579 1.390 . S
C574 H565 0.930 . S
C574 C572 1.384 . S
C574 C575 1.372 . S
C575 C574 1.372 . S
C575 C576 1.400 . S
C575 C580 1.490 . S
C576 H566 0.930 . S
C576 C575 1.400 . S
C576 C579 1.386 . S
H577 C593 0.930 . S
H578 C594 0.931 . S
C579 H567 0.929 . S
C579 C573 1.390 . S
C579 C576 1.386 . S
C580 C575 1.490 . S
C580 C582 1.395 . S
C580 C583 1.403 . S
H581 C587 0.930 . S
C582 H568 0.930 . S
C582 C580 1.395 . S
C582 C585 1.403 . S
C583 C580 1.403 . S
C583 C584 1.524 . S
C583 C587 1.400 . S
C584 H569 0.960 . S
C584 H570 0.960 . S
C584 H571 0.960 . S
C584 C583 1.524 . S
C585 C582 1.403 . S
C585 C586 1.392 . S
C585 C589 1.495 . S
C586 C585 1.392 . S
C586 C587 1.385 . S
C586 C588 1.478 . S
C587 H581 0.930 . S
C587 C583 1.400 . S
C587 C586 1.385 . S
C588 C586 1.478 . S
C588 C590 1.381 . S
C588 C594 1.383 . S
C589 C585 1.495 . S
C589 H595 0.959 . S
C589 H596 0.961 . S
C589 H597 0.960 . S
C590 C588 1.381 . S
C590 C591 1.394 . S
C590 H598 0.930 . S
C591 C590 1.394 . S
C591 C592 1.383 . S
C591 H599 0.929 . S
C592 C591 1.383 . S
C592 C593 1.377 . S
C593 H577 0.930 . S
C593 C592 1.377 . S
C593 C594 1.379 . S
C594 H578 0.931 . S
C594 C588 1.383 . S
C594 C593 1.379 . S
H595 C589 0.959 . S
H596 C589 0.961 . S
H597 C589 0.960 . S
H598 C590 0.930 . S
H599 C591 0.929 . S
H600 C608 0.929 . S
H601 C610 0.930 . S
H602 C612 0.930 . S
H603 C615 0.929 . S
H604 C618 0.930 . S
H605 C620 0.960 . S
H606 C620 0.960 . S
H607 C620 0.960 . S
C608 H600 0.929 . S
C608 C609 1.377 . S
C608 C610 1.384 . S
C609 C608 1.377 . S
C609 C615 1.390 . S
C610 H601 0.930 . S
C610 C608 1.384 . S
C610 C611 1.372 . S
C611 C610 1.372 . S
C611 C612 1.400 . S
C611 C616 1.490 . S
C612 H602 0.930 . S
C612 C611 1.400 . S
C612 C615 1.386 . S
H613 C629 0.930 . S
H614 C630 0.931 . S
C615 H603 0.929 . S
C615 C609 1.390 . S
C615 C612 1.386 . S
C616 C611 1.490 . S
C616 C618 1.395 . S
C616 C619 1.403 . S
H617 C623 0.930 . S
C618 H604 0.930 . S
C618 C616 1.395 . S
C618 C621 1.403 . S
C619 C616 1.403 . S
C619 C620 1.524 . S
C619 C623 1.400 . S
C620 H605 0.960 . S
C620 H606 0.960 . S
C620 H607 0.960 . S
C620 C619 1.524 . S
C621 C618 1.403 . S
C621 C622 1.392 . S
C621 C625 1.495 . S
C622 C621 1.392 . S
C622 C623 1.385 . S
C622 C624 1.478 . S
C623 H617 0.930 . S
C623 C619 1.400 . S
C623 C622 1.385 . S
C624 C622 1.478 . S
C624 C626 1.381 . S
C624 C630 1.383 . S
C625 C621 1.495 . S
C625 H631 0.959 . S
C625 H632 0.961 . S
C625 H633 0.960 . S
C626 C624 1.381 . S
C626 C627 1.394 . S
C626 H634 0.930 . S
C627 C626 1.394 . S
C627 C628 1.383 . S
C627 H635 0.929 . S
C628 C627 1.383 . S
C628 C629 1.377 . S
C629 H613 0.930 . S
C629 C628 1.377 . S
C629 C630 1.379 . S
C630 H614 0.931 . S
C630 C624 1.383 . S
C630 C629 1.379 . S
H631 C625 0.959 . S
H632 C625 0.961 . S
H633 C625 0.960 . S
H634 C626 0.930 . S
H635 C627 0.929 . S
H636 C644 0.929 . S
H637 C646 0.930 . S
H638 C648 0.930 1_455 S
H639 C651 0.929 . S
H640 C654 0.930 . S
H641 C656 0.960 . S
H642 C656 0.960 . S
H643 C656 0.960 . S
C644 H636 0.929 . S
C644 C645 1.377 . S
C644 C646 1.384 . S
C645 C644 1.377 . S
C645 C651 1.390 1_565 S
C646 H637 0.930 . S
C646 C644 1.384 . S
C646 C647 1.372 . S
C647 C646 1.372 . S
C647 C648 1.400 1_565 S
C647 C652 1.490 1_655 S
C648 H638 0.930 1_655 S
C648 C647 1.400 1_545 S
C648 C651 1.386 . S
H649 C665 0.930 . S
H650 C666 0.931 . S
C651 H639 0.929 . S
C651 C645 1.390 1_545 S
C651 C648 1.386 . S
C652 C647 1.490 1_455 S
C652 C654 1.395 1_455 S
C652 C655 1.403 1_565 S
H653 C659 0.930 . S
C654 H640 0.930 . S
C654 C652 1.395 1_655 S
C654 C657 1.403 1_554 S
C655 C652 1.403 1_545 S
C655 C656 1.524 . S
C655 C659 1.400 1_554 S
C656 H641 0.960 . S
C656 H642 0.960 . S
C656 H643 0.960 . S
C656 C655 1.524 . S
C657 C654 1.403 1_556 S
C657 C658 1.392 1_665 S
C657 C661 1.495 . S
C658 C657 1.392 1_445 S
C658 C659 1.385 . S
C658 C660 1.478 . S
C659 H653 0.930 . S
C659 C655 1.400 1_556 S
C659 C658 1.385 . S
C660 C658 1.478 . S
C660 C662 1.381 1_545 S
C660 C666 1.383 . S
C661 C657 1.495 . S
C661 H667 0.959 . S
C661 H668 0.961 . S
C661 H669 0.960 . S
C662 C660 1.381 1_565 S
C662 C663 1.394 . S
C662 H670 0.930 . S
C663 C662 1.394 . S
C663 C664 1.383 1_565 S
C663 H671 0.929 . S
C664 C663 1.383 1_545 S
C664 C665 1.377 . S
C665 H649 0.930 . S
C665 C664 1.377 . S
C665 C666 1.379 . S
C666 H650 0.931 . S
C666 C660 1.383 . S
C666 C665 1.379 . S
H667 C661 0.959 . S
H668 C661 0.961 . S
H669 C661 0.960 . S
H670 C662 0.930 . S
H671 C663 0.929 . S
H672 C680 0.929 . S
H673 C682 0.930 . S
H674 C684 0.930 . S
H675 C687 0.929 . S
H676 C690 0.930 . S
H677 C692 0.960 . S
H678 C692 0.960 . S
H679 C692 0.960 . S
C680 H672 0.929 . S
C680 C681 1.377 . S
C680 C682 1.384 . S
C681 C680 1.377 . S
C681 C687 1.390 . S
C682 H673 0.930 . S
C682 C680 1.384 . S
C682 C683 1.372 . S
C683 C682 1.372 . S
C683 C684 1.400 . S
C683 C688 1.490 . S
C684 H674 0.930 . S
C684 C683 1.400 . S
C684 C687 1.386 . S
H685 C701 0.930 . S
H686 C702 0.931 . S
C687 H675 0.929 . S
C687 C681 1.390 . S
C687 C684 1.386 . S
C688 C683 1.490 . S
C688 C690 1.395 . S
C688 C691 1.403 . S
H689 C695 0.930 . S
C690 H676 0.930 . S
C690 C688 1.395 . S
C690 C693 1.403 . S
C691 C688 1.403 . S
C691 C692 1.524 . S
C691 C695 1.400 . S
C692 H677 0.960 . S
C692 H678 0.960 . S
C692 H679 0.960 . S
C692 C691 1.524 . S
C693 C690 1.403 . S
C693 C694 1.392 . S
C693 C697 1.495 . S
C694 C693 1.392 . S
C694 C695 1.385 . S
C694 C696 1.478 . S
C695 H689 0.930 . S
C695 C691 1.400 . S
C695 C694 1.385 . S
C696 C694 1.478 . S
C696 C698 1.381 . S
C696 C702 1.383 . S
C697 C693 1.495 . S
C697 H703 0.959 . S
C697 H704 0.961 . S
C697 H705 0.960 . S
C698 C696 1.381 . S
C698 C699 1.394 . S
C698 H706 0.930 . S
C699 C698 1.394 . S
C699 C700 1.383 . S
C699 H707 0.929 . S
C700 C699 1.383 . S
C700 C701 1.377 . S
C701 H685 0.930 . S
C701 C700 1.377 . S
C701 C702 1.379 . S
C702 H686 0.931 . S
C702 C696 1.383 . S
C702 C701 1.379 . S
H703 C697 0.959 . S
H704 C697 0.961 . S
H705 C697 0.960 . S
H706 C698 0.930 . S
H707 C699 0.929 . S
H708 C716 0.929 . S
H709 C718 0.930 . S
H710 C720 0.930 . S
H711 C723 0.929 . S
H712 C726 0.930 . S
H713 C728 0.960 . S
H714 C728 0.960 . S
H715 C728 0.960 . S
C716 H708 0.929 . S
C716 C717 1.377 . S
C716 C718 1.384 . S
C717 C716 1.377 . S
C717 C723 1.390 . S
C718 H709 0.930 . S
C718 C716 1.384 . S
C718 C719 1.372 . S
C719 C718 1.372 . S
C719 C720 1.400 . S
C719 C724 1.490 . S
C720 H710 0.930 . S
C720 C719 1.400 . S
C720 C723 1.386 . S
H721 C737 0.930 . S
H722 C738 0.931 . S
C723 H711 0.929 . S
C723 C717 1.390 . S
C723 C720 1.386 . S
C724 C719 1.490 . S
C724 C726 1.395 . S
C724 C727 1.403 . S
H725 C731 0.930 . S
C726 H712 0.930 . S
C726 C724 1.395 . S
C726 C729 1.403 . S
C727 C724 1.403 . S
C727 C728 1.524 . S
C727 C731 1.400 . S
C728 H713 0.960 . S
C728 H714 0.960 . S
C728 H715 0.960 . S
C728 C727 1.524 . S
C729 C726 1.403 . S
C729 C730 1.392 . S
C729 C733 1.495 . S
C730 C729 1.392 . S
C730 C731 1.385 . S
C730 C732 1.478 . S
C731 H725 0.930 . S
C731 C727 1.400 . S
C731 C730 1.385 . S
C732 C730 1.478 . S
C732 C734 1.381 . S
C732 C738 1.383 . S
C733 C729 1.495 . S
C733 H739 0.959 . S
C733 H740 0.961 . S
C733 H741 0.960 . S
C734 C732 1.381 . S
C734 C735 1.394 . S
C734 H742 0.930 . S
C735 C734 1.394 . S
C735 C736 1.383 . S
C735 H743 0.929 . S
C736 C735 1.383 . S
C736 C737 1.377 . S
C737 H721 0.930 . S
C737 C736 1.377 . S
C737 C738 1.379 . S
C738 H722 0.931 . S
C738 C732 1.383 . S
C738 C737 1.379 . S
H739 C733 0.959 . S
H740 C733 0.961 . S
H741 C733 0.960 . S
H742 C734 0.930 . S
H743 C735 0.929 . S
C213 C33 1.194 . S
C232 C135 1.198 . S
C249 C20 1.865 . S
C268 C104 1.873 . S
C285 C122 1.863 . S
C304 C2 1.859 . S
C321 C54 1.863 . S
C340 C138 1.854 . S
C357 C169 1.194 . S
C376 C67 1.203 . S
C393 C36 1.866 . S
C412 C156 1.859 . S
C429 C101 1.194 . S
C448 C203 1.203 . S
C465 C88 1.865 . S
C484 C172 1.846 . S
C501 C190 1.868 . S
C520 C70 1.859 . S
C537 C43 2.042 . S
C556 C9 2.018 1_565 S
C573 C111 2.042 1_556 S
C592 C77 2.023 . S
C609 C179 2.042 . S
C628 C145 2.024 1_554 S
C645 C5 0.147 . S
C664 C39 0.088 . S
C681 C107 0.178 . S
C700 C73 0.259 . S
C717 C175 0.170 . S
C736 C141 0.245 . S
