# Generated by pormake.
# Topology bcu, (8)-cn, num edge types: 1
# Building blocks:
#     Node 0, Type 0, BuildingBlock: AJUNOK_clean_sbu_0, # of connection points: 8
#     Node 1, Type 0, BuildingBlock: AJUNOK_clean_sbu_0, # of connection points: 8
#     Edge 2, Type (0, 0), BuildingBlock: UKIBIB_clean_linker_0, # of connection points: 2
#     Edge 3, Type (0, 0), BuildingBlock: UKIBIB_clean_linker_0, # of connection points: 2
#     Edge 4, Type (0, 0), BuildingBlock: UKIBIB_clean_linker_0, # of connection points: 2
#     Edge 5, Type (0, 0), BuildingBlock: UKIBIB_clean_linker_0, # of connection points: 2
#     Edge 6, Type (0, 0), BuildingBlock: UKIBIB_clean_linker_0, # of connection points: 2
#     Edge 7, Type (0, 0), BuildingBlock: UKIBIB_clean_linker_0, # of connection points: 2
#     Edge 8, Type (0, 0), BuildingBlock: UKIBIB_clean_linker_0, # of connection points: 2
#     Edge 9, Type (0, 0), BuildingBlock: UKIBIB_clean_linker_0, # of connection points: 2
# Relax obj value: 0.077
# Max RMSD: 0.183
# Mean RMSD: 0.183
data_MOF--net-bcu--node1-AJUNOK_clean_sbu_0--edge1-UKIBIB_clean_linker_0
_symmetry_space_group_name_H-M    P1
_symmetry_Int_Tables_number       1
_symmetry_cell_setting            triclinic
loop_
_symmetry_equiv_pos_as_xyz
'x, y, z'
_cell_length_a     30.098534
_cell_length_b     31.012637
_cell_length_c     22.613911
_cell_angle_alpha  102.1751
_cell_angle_beta   101.19634
_cell_angle_gamma 104.02584
loop_
_atom_site_label
_atom_site_type_symbol
_atom_site_fract_x
_atom_site_fract_y
_atom_site_fract_z
_atom_type_partial_charge
Cd0 Cd 0.96604 0.94363 0.08223 0.0
Cd1 Cd 0.00847 -0.01376 0.91396 0.0
C2 C 0.07188 0.93185 0.12218 0.0
N3 N 0.02688 0.90829 0.08751 0.0
C4 C 0.04615 0.83692 0.07285 0.0
C5 C 0.09191 0.85988 0.11215 0.0
C6 C 0.10516 0.90824 0.13478 0.0
C7 C 0.01401 0.86194 0.06127 0.0
H8 H 0.08147 -0.03138 0.14284 0.0
H9 H 0.9779 0.844 0.0343 0.0
C10 C 0.92129 0.91259 0.91735 0.0
C11 C 0.92108 0.01068 0.84134 0.0
C12 C 0.88986 0.03556 0.82649 0.0
C13 C 0.89075 0.07509 0.87101 0.0
C14 C 0.92117 0.08691 0.9313 0.0
C15 C 0.95166 0.06061 0.94439 0.0
N16 N 0.95148 0.02385 0.89913 0.0
H17 H 0.9223 -0.01821 0.80598 0.0
H18 H 0.97671 0.07055 0.98972 0.0
C19 C 0.02651 0.89562 0.84223 0.0
N20 N 0.03997 0.92502 0.90052 0.0
C21 C 0.1005 0.891 0.9331 0.0
C22 C 0.08948 0.86246 0.87185 0.0
C23 C 0.05078 0.86373 0.82689 0.0
C24 C 0.07518 0.9226 0.94643 0.0
H25 H -0.00141 0.89872 0.80672 0.0
H26 H 0.08533 0.9469 0.99223 0.0
C27 C 0.03673 0.02995 0.07777 0.0
C28 C 0.90553 0.88662 0.13435 0.0
N29 N 0.9285 0.00099 0.09418 0.0
C30 C 0.93555 0.02672 0.15359 0.0
C31 C 0.91233 0.06005 0.16545 0.0
C32 C 0.88085 0.06649 0.11582 0.0
C33 C 0.87427 0.03959 0.05469 0.0
C34 C 0.89881 0.00684 0.04483 0.0
C35 C 0.07212 0.04446 0.86623 0.0
O36 O 0.95035 0.93062 0.97035 0.0
O37 O 0.93352 0.92368 0.87069 0.0
O38 O 0.01915 0.00035 0.02543 0.0
O39 O 0.02654 0.01883 0.12548 0.0
O40 O 0.89422 0.88663 0.07726 0.0
O41 O 0.94568 0.91348 0.16784 0.0
O42 O 0.07657 0.0503 0.92463 0.0
O43 O 0.03792 0.01084 0.82955 0.0
H44 H 0.95874 0.0207 0.19193 0.0
H45 H 0.89346 -0.01447 -0.00194 0.0
H46 H 0.0342 0.79969 0.05462 0.0
H47 H 0.14033 0.92747 0.16427 0.0
H48 H 0.86633 0.02484 0.77982 0.0
H49 H 0.92301 0.11728 0.96681 0.0
H50 H 0.13014 0.89099 0.96898 0.0
H51 H 0.04077 0.8417 0.77946 0.0
H52 H 0.91763 0.07942 0.21339 0.0
H53 H 0.85021 0.04356 0.01526 0.0
Cd54 Cd 0.4668 0.44388 0.58043 0.0
Cd55 Cd 0.50926 0.4863 0.4121 0.0
C56 C 0.55619 0.42155 0.6521 0.0
N57 N 0.52469 0.40735 0.59502 0.0
C58 C 0.55448 0.34382 0.56344 0.0
C59 C 0.58601 0.35669 0.62313 0.0
C60 C 0.58773 0.39698 0.66689 0.0
C61 C 0.52368 0.36983 0.55037 0.0
H62 H 0.55551 0.45092 0.68713 0.0
H63 H 0.49768 0.35905 0.50565 0.0
C64 C 0.43748 0.40033 0.41591 0.0
C65 C 0.40408 0.49881 0.3694 0.0
C66 C 0.37095 0.52255 0.3567 0.0
C67 C 0.38388 0.57075 0.38113 0.0
C68 C 0.42912 0.59331 0.42209 0.0
C69 C 0.46112 0.56815 0.43371 0.0
N70 N 0.44863 0.52204 0.40591 0.0
H71 H 0.39478 0.46223 0.34748 0.0
H72 H 0.49686 0.58587 0.46215 0.0
C73 C 0.53914 0.40298 0.34096 0.0
N74 N 0.54633 0.42869 0.4004 0.0
C75 C 0.6005 0.39 0.43969 0.0
C76 C 0.59369 0.36302 0.37851 0.0
C77 C 0.56221 0.36955 0.32898 0.0
C78 C 0.57609 0.42286 0.44968 0.0
H79 H 0.516 0.40911 0.30269 0.0
H80 H 0.58161 0.44428 0.49644 0.0
C81 C 0.55267 0.51918 0.5777 0.0
C82 C 0.40464 0.38533 0.62993 0.0
N83 N 0.43325 0.5037 0.59209 0.0
C84 C 0.44483 0.53187 0.65096 0.0
C85 C 0.41986 0.56318 0.66574 0.0
C86 C 0.38241 0.56521 0.61956 0.0
C87 C 0.37326 0.53791 0.55794 0.0
C88 C 0.3992 0.50678 0.54521 0.0
C89 C 0.57021 0.54267 0.35949 0.0
O90 O 0.4569 0.42908 0.46869 0.0
O91 O 0.44801 0.41134 0.36831 0.0
O92 O 0.52401 0.50038 0.52447 0.0
O93 O 0.54039 0.50813 0.62437 0.0
O94 O 0.40027 0.37879 0.57149 0.0
O95 O 0.43829 0.41971 0.66606 0.0
O96 O 0.58192 0.54178 0.41614 0.0
O97 O 0.52945 0.51689 0.32651 0.0
H98 H 0.47186 0.52826 0.68719 0.0
H99 H 0.39053 0.48346 0.49891 0.0
H100 H 0.55197 0.31283 0.52858 0.0
H101 H 0.61207 0.40844 0.71306 0.0
H102 H 0.33617 0.50359 0.32588 0.0
H103 H 0.44081 0.6304 0.44175 0.0
H104 H 0.62461 0.38598 0.47903 0.0
H105 H 0.55681 0.35018 0.28101 0.0
H106 H 0.42843 0.58425 0.71353 0.0
H107 H 0.34462 0.53859 0.52113 0.0
C108 C 0.056 0.1145 0.11584 0.0
C109 C 0.06634 0.07599 0.08331 0.0
C110 C 0.09128 0.15666 0.1397 0.0
C111 C 0.40511 0.31585 0.37072 0.0
C112 C 0.40302 0.35656 0.40956 0.0
C113 C 0.36542 0.27715 0.34989 0.0
H114 H 0.11743 0.05183 0.04072 0.0
H115 H 0.17975 0.12566 0.08396 0.0
H116 H 0.3617 0.38786 0.46405 0.0
H117 H 0.29208 0.31991 0.42735 0.0
C118 C 0.10921 0.08137 0.06613 0.0
C119 C 0.14457 0.12355 0.09034 0.0
C120 C 0.36383 0.35646 0.4344 0.0
C121 C 0.32424 0.31766 0.41375 0.0
C122 C 0.13687 0.15929 0.13254 0.0
C123 C 0.17558 0.18706 0.18413 0.0
C124 C 0.20798 0.21045 0.22755 0.0
C125 C 0.32373 0.27995 0.3669 0.0
C126 C 0.28002 0.25505 0.32181 0.0
C127 C 0.24546 0.23265 0.28088 0.0
H128 H 0.02242 0.11086 0.12797 0.0
H129 H 0.08492 0.18459 0.1715 0.0
H130 H 0.43566 0.31531 0.35223 0.0
H131 H 0.36536 0.24769 0.31413 0.0
C132 C 0.80329 0.08431 0.10611 0.0
C133 C 0.85288 0.09884 0.12964 0.0
C134 C 0.77613 0.11161 0.12862 0.0
C135 C 0.67102 0.34478 0.38759 0.0
C136 C 0.6214 0.33046 0.36449 0.0
C137 C 0.69788 0.3173 0.3647 0.0
H138 H 0.91314 0.15467 0.19099 0.0
H139 H 0.86546 0.20238 0.23001 0.0
H140 H 0.5608 0.27481 0.30352 0.0
H141 H 0.60798 0.22677 0.26385 0.0
C142 C 0.87496 0.14245 0.17271 0.0
C143 C 0.84784 0.1697 0.19493 0.0
C144 C 0.59901 0.28686 0.32149 0.0
C145 C 0.62584 0.25943 0.29889 0.0
C146 C 0.79834 0.15374 0.17442 0.0
C147 C 0.77066 0.17903 0.20405 0.0
C148 C 0.74896 0.20135 0.23019 0.0
C149 C 0.67536 0.27518 0.31896 0.0
C150 C 0.70274 0.2497 0.28896 0.0
C151 C 0.7243 0.22732 0.26264 0.0
H152 H 0.78536 0.05074 0.0732 0.0
H153 H 0.73782 0.09893 0.11226 0.0
H154 H 0.68918 0.37833 0.42042 0.0
H155 H 0.73622 0.32981 0.38072 0.0
C156 C 0.82609 0.83395 0.12553 0.0
C157 C 0.87344 0.85598 0.15987 0.0
C158 C 0.79597 0.8032 0.14779 0.0
C159 C 0.64997 0.59475 0.36826 0.0
C160 C 0.60251 0.57317 0.33403 0.0
C161 C 0.68029 0.62545 0.34617 0.0
H162 H 0.92624 0.86384 0.24485 0.0
H163 H 0.87316 0.80924 0.28345 0.0
H164 H 0.54975 0.56609 0.24938 0.0
H165 H 0.60321 0.62056 0.21106 0.0
C166 C 0.88988 0.84737 0.21753 0.0
C167 C 0.85971 0.81624 0.23955 0.0
C168 C 0.58618 0.58219 0.27663 0.0
C169 C 0.61657 0.61325 0.25476 0.0
C170 C 0.81281 0.7938 0.20437 0.0
C171 C 0.78207 0.76004 0.22483 0.0
C172 C 0.75467 0.73146 0.23946 0.0
C173 C 0.66356 0.63524 0.28985 0.0
C174 C 0.69451 0.66899 0.2696 0.0
C175 C 0.72201 0.69753 0.25503 0.0
H176 H 0.81234 0.84022 0.08119 0.0
H177 H 0.7597 0.78624 0.12032 0.0
H178 H 0.66364 0.58822 0.41243 0.0
H179 H 0.71662 0.64209 0.37358 0.0
C180 C 0.1481 0.84632 0.19894 0.0
C181 C 0.12345 0.83329 0.13522 0.0
C182 C 0.17467 0.81966 0.22266 0.0
C183 C 0.32893 0.58584 0.29451 0.0
C184 C 0.35259 0.59771 0.35849 0.0
C185 C 0.30247 0.6128 0.2714 0.0
H186 H 0.10851 0.78233 0.04626 0.0
H187 H 0.15527 0.73554 0.08836 0.0
H188 H 0.36593 0.64695 0.44849 0.0
H189 H 0.31938 0.69429 0.40746 0.0
C190 C 0.12679 0.7932 0.09558 0.0
C191 C 0.15356 0.76652 0.11949 0.0
C192 C 0.34843 0.63698 0.39897 0.0
C193 C 0.32177 0.66397 0.37566 0.0
C194 C 0.1772 0.77946 0.18329 0.0
C195 C 0.20312 0.75123 0.20921 0.0
C196 C 0.22526 0.72892 0.23331 0.0
C197 C 0.29907 0.65216 0.31164 0.0
C198 C 0.27318 0.68066 0.28639 0.0
C199 C 0.25106 0.7031 0.26255 0.0
H200 H 0.14562 0.87637 0.23113 0.0
H201 H 0.19258 0.83005 0.27211 0.0
H202 H 0.33206 0.55647 0.26171 0.0
H203 H 0.2853 0.60329 0.22178 0.0
C204 C 0.13498 0.83714 0.79722 0.0
C205 C 0.12068 0.83497 0.85242 0.0
C206 C 0.1627 0.81027 0.77628 0.0
C207 C 0.33422 0.58883 0.69125 0.0
C208 C 0.35075 0.59245 0.63792 0.0
C209 C 0.30679 0.61609 0.71201 0.0
H210 H 0.1258 0.80447 0.93045 0.0
H211 H 0.17464 0.75674 0.89299 0.0
H212 H 0.34977 0.62584 0.56276 0.0
H213 H 0.30138 0.67423 0.59987 0.0
C214 C 0.13614 0.80654 0.88759 0.0
C215 C 0.16386 0.77935 0.86627 0.0
C216 C 0.33765 0.62262 0.60416 0.0
C217 C 0.31021 0.65021 0.6253 0.0
C218 C 0.17664 0.78082 0.81011 0.0
C219 C 0.20264 0.75131 0.78525 0.0
C220 C 0.22421 0.72805 0.7606 0.0
C221 C 0.29537 0.64739 0.67985 0.0
C222 C 0.26992 0.67742 0.70491 0.0
C223 C 0.24861 0.70095 0.72964 0.0
H224 H 0.12457 0.85962 0.77004 0.0
H225 H 0.1727 0.81205 0.73312 0.0
H226 H 0.34286 0.56507 0.71728 0.0
H227 H 0.29517 0.61327 0.75388 0.0
C228 C 0.38036 0.35805 0.71895 0.0
C229 C 0.37226 0.35381 0.65431 0.0
C230 C 0.35017 0.32725 0.74142 0.0
C231 C 0.09669 0.07241 0.77784 0.0
C232 C 0.10481 0.07609 0.84236 0.0
C233 C 0.12695 0.10346 0.75579 0.0
H234 H 0.32587 0.31442 0.5627 0.0
H235 H 0.27316 0.26087 0.60241 0.0
H236 H 0.15131 0.11475 0.93417 0.0
H237 H 0.20418 0.16874 0.89517 0.0
C238 C 0.33315 0.31852 0.61273 0.0
C239 C 0.30298 0.28791 0.63528 0.0
C240 C 0.14405 0.11106 0.88423 0.0
C241 C 0.17428 0.14193 0.86209 0.0
C242 C 0.31149 0.292 0.6996 0.0
C243 C 0.28072 0.2596 0.72221 0.0
C244 C 0.25422 0.23186 0.73939 0.0
C245 C 0.16572 0.13841 0.7979 0.0
C246 C 0.19654 0.17106 0.77569 0.0
C247 C 0.223 0.19893 0.75865 0.0
H248 H 0.41023 0.38483 0.75207 0.0
H249 H 0.35719 0.33081 0.79133 0.0
H250 H 0.06671 0.0459 0.74449 0.0
H251 H 0.11989 0.10033 0.70598 0.0
C252 C 0.86115 0.11491 0.79383 0.0
C253 C 0.86272 0.10539 0.85219 0.0
C254 C 0.83333 0.14149 0.77362 0.0
C255 C 0.61643 0.31817 0.70147 0.0
C256 C 0.61414 0.32663 0.64242 0.0
C257 C 0.64422 0.29167 0.72201 0.0
H258 H 0.83786 0.11776 0.93627 0.0
H259 H 0.78883 0.16499 0.90035 0.0
H260 H 0.6377 0.31252 0.55751 0.0
H261 H 0.68674 0.26547 0.59406 0.0
C262 C 0.83716 0.12448 0.89104 0.0
C263 C 0.80915 0.15123 0.87059 0.0
C264 C 0.63899 0.30663 0.60328 0.0
C265 C 0.66699 0.27998 0.62408 0.0
C266 C 0.80683 0.15921 0.81146 0.0
C267 C 0.77645 0.1843 0.78781 0.0
C268 C 0.75233 0.20466 0.76333 0.0
C269 C 0.66999 0.273 0.68384 0.0
C270 C 0.70026 0.24788 0.70767 0.0
C271 C 0.72436 0.22758 0.7323 0.0
H272 H 0.8814 0.10167 0.76356 0.0
H273 H 0.8321 0.14776 0.72803 0.0
H274 H 0.59672 0.33215 0.732 0.0
H275 H 0.64597 0.28619 0.76809 0.0
C276 C 0.60533 0.58515 0.5547 0.0
C277 C 0.59975 0.54987 0.58502 0.0
C278 C 0.64763 0.62109 0.57382 0.0
C279 C 0.86956 0.84386 0.93535 0.0
C280 C 0.87432 0.88173 0.9099 0.0
C281 C 0.82879 0.80621 0.91072 0.0
H282 H 0.63525 0.51959 0.65077 0.0
H283 H 0.70844 0.58362 0.68624 0.0
H284 H 0.83797 0.91515 0.84972 0.0
H285 H 0.76715 0.84876 0.80561 0.0
C286 C 0.63865 0.54733 0.62818 0.0
C287 C 0.68068 0.58329 0.64742 0.0
C288 C 0.83523 0.88539 0.86826 0.0
C289 C 0.79456 0.84789 0.84395 0.0
C290 C 0.68323 0.62204 0.62449 0.0
C291 C 0.70967 0.66552 0.66734 0.0
C292 C 0.73296 0.69787 0.71031 0.0
C293 C 0.79409 0.8067 0.85999 0.0
C294 C 0.77234 0.76514 0.81103 0.0
C295 C 0.75275 0.73317 0.76593 0.0
H296 H 0.57556 0.58761 0.52143 0.0
H297 H 0.64948 0.65099 0.55567 0.0
H298 H 0.89934 0.84077 0.96796 0.0
H299 H 0.82817 0.77455 0.92412 0.0
loop_
_geom_bond_atom_site_label_1
_geom_bond_atom_site_label_2
_geom_bond_distance
_geom_bond_site_symmetry_2
_ccdc_geom_bond_type
Cd0 N3 2.334 1_655 S
Cd0 N29 2.304 1_565 S
Cd0 O36 2.268 1_554 S
Cd0 O39 2.273 1_665 S
Cd0 O40 2.417 . S
Cd0 O41 2.330 . S
Cd1 N16 2.304 1_455 S
Cd1 N20 2.334 1_545 S
Cd1 O37 2.273 1_445 S
Cd1 O38 2.268 1_556 S
Cd1 O42 2.417 . S
Cd1 O43 2.330 . S
C2 N3 1.332 . S
C2 C6 1.381 . S
C2 H8 0.931 . S
N3 Cd0 2.334 1_455 S
N3 C2 1.332 . S
N3 C7 1.328 . S
C4 C5 1.396 . S
C4 C7 1.378 . S
C4 H46 0.931 1_554 S
C5 C4 1.396 . S
C5 C6 1.382 . S
C6 C2 1.381 . S
C6 C5 1.382 . S
C6 H47 0.930 . S
C7 N3 1.328 . S
C7 C4 1.378 . S
C7 H9 0.930 1_454 S
H8 C2 0.931 . S
H9 C7 0.930 1_656 S
C10 O36 1.238 . S
C10 O37 1.253 . S
C11 C12 1.379 . S
C11 N16 1.337 . S
C11 H17 0.929 . S
C12 C11 1.379 . S
C12 C13 1.380 . S
C12 H48 0.929 . S
C13 C12 1.380 . S
C13 C14 1.399 . S
C14 C13 1.399 . S
C14 C15 1.376 . S
C14 H49 0.931 1_556 S
C15 C14 1.376 . S
C15 N16 1.338 . S
C15 H18 0.930 1_656 S
N16 Cd1 2.304 1_655 S
N16 C11 1.337 . S
N16 C15 1.338 . S
H17 C11 0.929 . S
H18 C15 0.930 1_454 S
C19 N20 1.332 . S
C19 C23 1.381 . S
C19 H25 0.931 . S
N20 Cd1 2.334 1_565 S
N20 C19 1.332 . S
N20 C24 1.328 . S
C21 C22 1.396 . S
C21 C24 1.378 . S
C21 H50 0.931 1_556 S
C22 C21 1.396 . S
C22 C23 1.382 . S
C23 C19 1.381 . S
C23 C22 1.382 . S
C23 H51 0.930 . S
C24 N20 1.328 . S
C24 C21 1.378 . S
C24 H26 0.930 1_566 S
H25 C19 0.931 . S
H26 C24 0.930 1_544 S
C27 O38 1.238 . S
C27 O39 1.253 . S
C28 O40 1.239 . S
C28 O41 1.230 . S
N29 Cd0 2.304 1_545 S
N29 C30 1.337 . S
N29 C34 1.338 . S
C30 N29 1.337 . S
C30 C31 1.379 . S
C30 H44 0.929 . S
C31 C30 1.379 . S
C31 C32 1.380 . S
C31 H52 0.929 . S
C32 C31 1.380 . S
C32 C33 1.399 . S
C33 C32 1.399 . S
C33 C34 1.376 . S
C33 H53 0.931 1_554 S
C34 N29 1.338 . S
C34 C33 1.376 . S
C34 H45 0.930 1_544 S
C35 O42 1.239 . S
C35 O43 1.230 . S
O36 Cd0 2.268 1_556 S
O36 C10 1.238 . S
O37 Cd1 2.273 1_665 S
O37 C10 1.253 . S
O38 Cd1 2.268 1_554 S
O38 C27 1.238 . S
O39 Cd0 2.273 1_445 S
O39 C27 1.253 . S
O40 Cd0 2.417 . S
O40 C28 1.239 . S
O41 Cd0 2.330 . S
O41 C28 1.230 . S
O42 Cd1 2.417 . S
O42 C35 1.239 . S
O43 Cd1 2.330 . S
O43 C35 1.230 . S
H44 C30 0.929 . S
H45 C34 0.930 1_566 S
H46 C4 0.931 1_556 S
H47 C6 0.930 . S
H48 C12 0.929 . S
H49 C14 0.931 1_554 S
H50 C21 0.931 1_554 S
H51 C23 0.930 . S
H52 C31 0.929 . S
H53 C33 0.931 1_556 S
Cd54 N57 2.334 . S
Cd54 N83 2.304 . S
Cd54 O90 2.268 . S
Cd54 O93 2.273 . S
Cd54 O94 2.417 . S
Cd54 O95 2.330 . S
Cd55 N70 2.304 . S
Cd55 N74 2.334 . S
Cd55 O91 2.273 . S
Cd55 O92 2.268 . S
Cd55 O96 2.417 . S
Cd55 O97 2.330 . S
C56 N57 1.332 . S
C56 C60 1.381 . S
C56 H62 0.931 . S
N57 Cd54 2.334 . S
N57 C56 1.332 . S
N57 C61 1.328 . S
C58 C59 1.396 . S
C58 C61 1.378 . S
C58 H100 0.931 . S
C59 C58 1.396 . S
C59 C60 1.382 . S
C60 C56 1.381 . S
C60 C59 1.382 . S
C60 H101 0.930 . S
C61 N57 1.328 . S
C61 C58 1.378 . S
C61 H63 0.930 . S
H62 C56 0.931 . S
H63 C61 0.930 . S
C64 O90 1.238 . S
C64 O91 1.253 . S
C65 C66 1.379 . S
C65 N70 1.337 . S
C65 H71 0.929 . S
C66 C65 1.379 . S
C66 C67 1.380 . S
C66 H102 0.929 . S
C67 C66 1.380 . S
C67 C68 1.399 . S
C68 C67 1.399 . S
C68 C69 1.376 . S
C68 H103 0.931 . S
C69 C68 1.376 . S
C69 N70 1.338 . S
C69 H72 0.930 . S
N70 Cd55 2.304 . S
N70 C65 1.337 . S
N70 C69 1.338 . S
H71 C65 0.929 . S
H72 C69 0.930 . S
C73 N74 1.332 . S
C73 C77 1.381 . S
C73 H79 0.931 . S
N74 Cd55 2.334 . S
N74 C73 1.332 . S
N74 C78 1.328 . S
C75 C76 1.396 . S
C75 C78 1.378 . S
C75 H104 0.931 . S
C76 C75 1.396 . S
C76 C77 1.382 . S
C77 C73 1.381 . S
C77 C76 1.382 . S
C77 H105 0.930 . S
C78 N74 1.328 . S
C78 C75 1.378 . S
C78 H80 0.930 . S
H79 C73 0.931 . S
H80 C78 0.930 . S
C81 O92 1.238 . S
C81 O93 1.253 . S
C82 O94 1.239 . S
C82 O95 1.230 . S
N83 Cd54 2.304 . S
N83 C84 1.337 . S
N83 C88 1.338 . S
C84 N83 1.337 . S
C84 C85 1.379 . S
C84 H98 0.929 . S
C85 C84 1.379 . S
C85 C86 1.380 . S
C85 H106 0.929 . S
C86 C85 1.380 . S
C86 C87 1.399 . S
C87 C86 1.399 . S
C87 C88 1.376 . S
C87 H107 0.931 . S
C88 N83 1.338 . S
C88 C87 1.376 . S
C88 H99 0.930 . S
C89 O96 1.239 . S
C89 O97 1.230 . S
O90 Cd54 2.268 . S
O90 C64 1.238 . S
O91 Cd55 2.273 . S
O91 C64 1.253 . S
O92 Cd55 2.268 . S
O92 C81 1.238 . S
O93 Cd54 2.273 . S
O93 C81 1.253 . S
O94 Cd54 2.417 . S
O94 C82 1.239 . S
O95 Cd54 2.330 . S
O95 C82 1.230 . S
O96 Cd55 2.417 . S
O96 C89 1.239 . S
O97 Cd55 2.330 . S
O97 C89 1.230 . S
H98 C84 0.929 . S
H99 C88 0.930 . S
H100 C58 0.931 . S
H101 C60 0.930 . S
H102 C66 0.929 . S
H103 C68 0.931 . S
H104 C75 0.931 . S
H105 C77 0.930 . S
H106 C85 0.929 . S
H107 C87 0.931 . S
C108 C109 1.332 . S
C108 C110 1.345 . S
C108 H128 0.932 . S
C109 C108 1.332 . S
C109 C118 1.332 . S
C110 C108 1.345 . S
C110 C122 1.334 . S
C110 H129 0.928 . S
C111 C112 1.332 . S
C111 C113 1.345 . S
C111 H130 0.932 . S
C112 C111 1.332 . S
C112 C120 1.332 . S
C113 C111 1.345 . S
C113 C125 1.334 . S
C113 H131 0.928 . S
H114 C118 0.932 . S
H115 C119 0.928 . S
H116 C120 0.932 . S
H117 C121 0.928 . S
C118 C109 1.332 . S
C118 H114 0.932 . S
C118 C119 1.345 . S
C119 H115 0.928 . S
C119 C118 1.345 . S
C119 C122 1.334 . S
C120 C112 1.332 . S
C120 H116 0.932 . S
C120 C121 1.345 . S
C121 H117 0.928 . S
C121 C120 1.345 . S
C121 C125 1.334 . S
C122 C110 1.334 . S
C122 C119 1.334 . S
C122 C123 1.487 . S
C123 C122 1.487 . S
C123 C124 1.185 . S
C124 C123 1.185 . S
C124 C127 1.482 . S
C125 C113 1.334 . S
C125 C121 1.334 . S
C125 C126 1.487 . S
C126 C125 1.487 . S
C126 C127 1.185 . S
C127 C124 1.482 . S
C127 C126 1.185 . S
H128 C108 0.932 . S
H129 C110 0.928 . S
H130 C111 0.932 . S
H131 C113 0.928 . S
C132 C133 1.332 . S
C132 C134 1.345 . S
C132 H152 0.932 . S
C133 C132 1.332 . S
C133 C142 1.332 . S
C134 C132 1.345 . S
C134 C146 1.334 . S
C134 H153 0.928 . S
C135 C136 1.332 . S
C135 C137 1.345 . S
C135 H154 0.932 . S
C136 C135 1.332 . S
C136 C144 1.332 . S
C137 C135 1.345 . S
C137 C149 1.334 . S
C137 H155 0.928 . S
H138 C142 0.932 . S
H139 C143 0.928 . S
H140 C144 0.932 . S
H141 C145 0.928 . S
C142 C133 1.332 . S
C142 H138 0.932 . S
C142 C143 1.345 . S
C143 H139 0.928 . S
C143 C142 1.345 . S
C143 C146 1.334 . S
C144 C136 1.332 . S
C144 H140 0.932 . S
C144 C145 1.345 . S
C145 H141 0.928 . S
C145 C144 1.345 . S
C145 C149 1.334 . S
C146 C134 1.334 . S
C146 C143 1.334 . S
C146 C147 1.487 . S
C147 C146 1.487 . S
C147 C148 1.185 . S
C148 C147 1.185 . S
C148 C151 1.482 . S
C149 C137 1.334 . S
C149 C145 1.334 . S
C149 C150 1.487 . S
C150 C149 1.487 . S
C150 C151 1.185 . S
C151 C148 1.482 . S
C151 C150 1.185 . S
H152 C132 0.932 . S
H153 C134 0.928 . S
H154 C135 0.932 . S
H155 C137 0.928 . S
C156 C157 1.332 . S
C156 C158 1.345 . S
C156 H176 0.932 . S
C157 C156 1.332 . S
C157 C166 1.332 . S
C158 C156 1.345 . S
C158 C170 1.334 . S
C158 H177 0.928 . S
C159 C160 1.332 . S
C159 C161 1.345 . S
C159 H178 0.932 . S
C160 C159 1.332 . S
C160 C168 1.332 . S
C161 C159 1.345 . S
C161 C173 1.334 . S
C161 H179 0.928 . S
H162 C166 0.932 . S
H163 C167 0.928 . S
H164 C168 0.932 . S
H165 C169 0.928 . S
C166 C157 1.332 . S
C166 H162 0.932 . S
C166 C167 1.345 . S
C167 H163 0.928 . S
C167 C166 1.345 . S
C167 C170 1.334 . S
C168 C160 1.332 . S
C168 H164 0.932 . S
C168 C169 1.345 . S
C169 H165 0.928 . S
C169 C168 1.345 . S
C169 C173 1.334 . S
C170 C158 1.334 . S
C170 C167 1.334 . S
C170 C171 1.487 . S
C171 C170 1.487 . S
C171 C172 1.185 . S
C172 C171 1.185 . S
C172 C175 1.482 . S
C173 C161 1.334 . S
C173 C169 1.334 . S
C173 C174 1.487 . S
C174 C173 1.487 . S
C174 C175 1.185 . S
C175 C172 1.482 . S
C175 C174 1.185 . S
H176 C156 0.932 . S
H177 C158 0.928 . S
H178 C159 0.932 . S
H179 C161 0.928 . S
C180 C181 1.332 . S
C180 C182 1.345 . S
C180 H200 0.932 . S
C181 C180 1.332 . S
C181 C190 1.332 . S
C182 C180 1.345 . S
C182 C194 1.334 . S
C182 H201 0.928 . S
C183 C184 1.332 . S
C183 C185 1.345 . S
C183 H202 0.932 . S
C184 C183 1.332 . S
C184 C192 1.332 . S
C185 C183 1.345 . S
C185 C197 1.334 . S
C185 H203 0.928 . S
H186 C190 0.932 . S
H187 C191 0.928 . S
H188 C192 0.932 . S
H189 C193 0.928 . S
C190 C181 1.332 . S
C190 H186 0.932 . S
C190 C191 1.345 . S
C191 H187 0.928 . S
C191 C190 1.345 . S
C191 C194 1.334 . S
C192 C184 1.332 . S
C192 H188 0.932 . S
C192 C193 1.345 . S
C193 H189 0.928 . S
C193 C192 1.345 . S
C193 C197 1.334 . S
C194 C182 1.334 . S
C194 C191 1.334 . S
C194 C195 1.487 . S
C195 C194 1.487 . S
C195 C196 1.185 . S
C196 C195 1.185 . S
C196 C199 1.482 . S
C197 C185 1.334 . S
C197 C193 1.334 . S
C197 C198 1.487 . S
C198 C197 1.487 . S
C198 C199 1.185 . S
C199 C196 1.482 . S
C199 C198 1.185 . S
H200 C180 0.932 . S
H201 C182 0.928 . S
H202 C183 0.932 . S
H203 C185 0.928 . S
C204 C205 1.332 . S
C204 C206 1.345 . S
C204 H224 0.932 . S
C205 C204 1.332 . S
C205 C214 1.332 . S
C206 C204 1.345 . S
C206 C218 1.334 . S
C206 H225 0.928 . S
C207 C208 1.332 . S
C207 C209 1.345 . S
C207 H226 0.932 . S
C208 C207 1.332 . S
C208 C216 1.332 . S
C209 C207 1.345 . S
C209 C221 1.334 . S
C209 H227 0.928 . S
H210 C214 0.932 . S
H211 C215 0.928 . S
H212 C216 0.932 . S
H213 C217 0.928 . S
C214 C205 1.332 . S
C214 H210 0.932 . S
C214 C215 1.345 . S
C215 H211 0.928 . S
C215 C214 1.345 . S
C215 C218 1.334 . S
C216 C208 1.332 . S
C216 H212 0.932 . S
C216 C217 1.345 . S
C217 H213 0.928 . S
C217 C216 1.345 . S
C217 C221 1.334 . S
C218 C206 1.334 . S
C218 C215 1.334 . S
C218 C219 1.487 . S
C219 C218 1.487 . S
C219 C220 1.185 . S
C220 C219 1.185 . S
C220 C223 1.482 . S
C221 C209 1.334 . S
C221 C217 1.334 . S
C221 C222 1.487 . S
C222 C221 1.487 . S
C222 C223 1.185 . S
C223 C220 1.482 . S
C223 C222 1.185 . S
H224 C204 0.932 . S
H225 C206 0.928 . S
H226 C207 0.932 . S
H227 C209 0.928 . S
C228 C229 1.332 . S
C228 C230 1.345 . S
C228 H248 0.932 . S
C229 C228 1.332 . S
C229 C238 1.332 . S
C230 C228 1.345 . S
C230 C242 1.334 . S
C230 H249 0.928 . S
C231 C232 1.332 . S
C231 C233 1.345 . S
C231 H250 0.932 . S
C232 C231 1.332 . S
C232 C240 1.332 . S
C233 C231 1.345 . S
C233 C245 1.334 . S
C233 H251 0.928 . S
H234 C238 0.932 . S
H235 C239 0.928 . S
H236 C240 0.932 . S
H237 C241 0.928 . S
C238 C229 1.332 . S
C238 H234 0.932 . S
C238 C239 1.345 . S
C239 H235 0.928 . S
C239 C238 1.345 . S
C239 C242 1.334 . S
C240 C232 1.332 . S
C240 H236 0.932 . S
C240 C241 1.345 . S
C241 H237 0.928 . S
C241 C240 1.345 . S
C241 C245 1.334 . S
C242 C230 1.334 . S
C242 C239 1.334 . S
C242 C243 1.487 . S
C243 C242 1.487 . S
C243 C244 1.185 . S
C244 C243 1.185 . S
C244 C247 1.482 . S
C245 C233 1.334 . S
C245 C241 1.334 . S
C245 C246 1.487 . S
C246 C245 1.487 . S
C246 C247 1.185 . S
C247 C244 1.482 . S
C247 C246 1.185 . S
H248 C228 0.932 . S
H249 C230 0.928 . S
H250 C231 0.932 . S
H251 C233 0.928 . S
C252 C253 1.332 . S
C252 C254 1.345 . S
C252 H272 0.932 . S
C253 C252 1.332 . S
C253 C262 1.332 . S
C254 C252 1.345 . S
C254 C266 1.334 . S
C254 H273 0.928 . S
C255 C256 1.332 . S
C255 C257 1.345 . S
C255 H274 0.932 . S
C256 C255 1.332 . S
C256 C264 1.332 . S
C257 C255 1.345 . S
C257 C269 1.334 . S
C257 H275 0.928 . S
H258 C262 0.932 . S
H259 C263 0.928 . S
H260 C264 0.932 . S
H261 C265 0.928 . S
C262 C253 1.332 . S
C262 H258 0.932 . S
C262 C263 1.345 . S
C263 H259 0.928 . S
C263 C262 1.345 . S
C263 C266 1.334 . S
C264 C256 1.332 . S
C264 H260 0.932 . S
C264 C265 1.345 . S
C265 H261 0.928 . S
C265 C264 1.345 . S
C265 C269 1.334 . S
C266 C254 1.334 . S
C266 C263 1.334 . S
C266 C267 1.487 . S
C267 C266 1.487 . S
C267 C268 1.185 . S
C268 C267 1.185 . S
C268 C271 1.482 . S
C269 C257 1.334 . S
C269 C265 1.334 . S
C269 C270 1.487 . S
C270 C269 1.487 . S
C270 C271 1.185 . S
C271 C268 1.482 . S
C271 C270 1.185 . S
H272 C252 0.932 . S
H273 C254 0.928 . S
H274 C255 0.932 . S
H275 C257 0.928 . S
C276 C277 1.332 . S
C276 C278 1.345 . S
C276 H296 0.932 . S
C277 C276 1.332 . S
C277 C286 1.332 . S
C278 C276 1.345 . S
C278 C290 1.334 . S
C278 H297 0.928 . S
C279 C280 1.332 . S
C279 C281 1.345 . S
C279 H298 0.932 . S
C280 C279 1.332 . S
C280 C288 1.332 . S
C281 C279 1.345 . S
C281 C293 1.334 . S
C281 H299 0.928 . S
H282 C286 0.932 . S
H283 C287 0.928 . S
H284 C288 0.932 . S
H285 C289 0.928 . S
C286 C277 1.332 . S
C286 H282 0.932 . S
C286 C287 1.345 . S
C287 H283 0.928 . S
C287 C286 1.345 . S
C287 C290 1.334 . S
C288 C280 1.332 . S
C288 H284 0.932 . S
C288 C289 1.345 . S
C289 H285 0.928 . S
C289 C288 1.345 . S
C289 C293 1.334 . S
C290 C278 1.334 . S
C290 C287 1.334 . S
C290 C291 1.487 . S
C291 C290 1.487 . S
C291 C292 1.185 . S
C292 C291 1.185 . S
C292 C295 1.482 . S
C293 C281 1.334 . S
C293 C289 1.334 . S
C293 C294 1.487 . S
C294 C293 1.487 . S
C294 C295 1.185 . S
C295 C292 1.482 . S
C295 C294 1.185 . S
H296 C276 0.932 . S
H297 C278 0.928 . S
H298 C279 0.932 . S
H299 C281 0.928 . S
C109 C27 0.071 . S
C112 C64 0.072 . S
C133 C32 2.117 . S
C136 C76 2.113 . S
C157 C28 1.116 . S
C160 C89 1.117 . S
C181 C5 2.114 . S
C184 C67 2.117 . S
C205 C22 2.114 . S
C208 C86 2.118 . S
C229 C82 1.116 . S
C232 C35 1.114 . S
C253 C13 2.117 . S
C256 C59 2.115 . S
C277 C81 0.071 . S
C280 C10 0.071 . S
