# Generated by pormake.
# Topology gis, (4)-cn, num edge types: 1
# Building blocks:
#     Node 0, Type 0, BuildingBlock: AZAVOO_clean_sbu_0, # of connection points: 4
#     Node 1, Type 0, BuildingBlock: AZAVOO_clean_sbu_0, # of connection points: 4
#     Node 2, Type 0, BuildingBlock: AZAVOO_clean_sbu_0, # of connection points: 4
#     Node 3, Type 0, BuildingBlock: AZAVOO_clean_sbu_0, # of connection points: 4
#     Node 4, Type 0, BuildingBlock: AZAVOO_clean_sbu_0, # of connection points: 4
#     Node 5, Type 0, BuildingBlock: AZAVOO_clean_sbu_0, # of connection points: 4
#     Node 6, Type 0, BuildingBlock: AZAVOO_clean_sbu_0, # of connection points: 4
#     Node 7, Type 0, BuildingBlock: AZAVOO_clean_sbu_0, # of connection points: 4
#     Node 8, Type 0, BuildingBlock: AZAVOO_clean_sbu_0, # of connection points: 4
#     Node 9, Type 0, BuildingBlock: AZAVOO_clean_sbu_0, # of connection points: 4
#     Node 10, Type 0, BuildingBlock: AZAVOO_clean_sbu_0, # of connection points: 4
#     Node 11, Type 0, BuildingBlock: AZAVOO_clean_sbu_0, # of connection points: 4
#     Node 12, Type 0, BuildingBlock: AZAVOO_clean_sbu_0, # of connection points: 4
#     Node 13, Type 0, BuildingBlock: AZAVOO_clean_sbu_0, # of connection points: 4
#     Node 14, Type 0, BuildingBlock: AZAVOO_clean_sbu_0, # of connection points: 4
#     Node 15, Type 0, BuildingBlock: AZAVOO_clean_sbu_0, # of connection points: 4
#     Edge 16, Type (0, 0), BuildingBlock: EZIPEK_clean_linker_0, # of connection points: 2
#     Edge 17, Type (0, 0), BuildingBlock: EZIPEK_clean_linker_0, # of connection points: 2
#     Edge 18, Type (0, 0), BuildingBlock: EZIPEK_clean_linker_0, # of connection points: 2
#     Edge 19, Type (0, 0), BuildingBlock: EZIPEK_clean_linker_0, # of connection points: 2
#     Edge 20, Type (0, 0), BuildingBlock: EZIPEK_clean_linker_0, # of connection points: 2
#     Edge 21, Type (0, 0), BuildingBlock: EZIPEK_clean_linker_0, # of connection points: 2
#     Edge 22, Type (0, 0), BuildingBlock: EZIPEK_clean_linker_0, # of connection points: 2
#     Edge 23, Type (0, 0), BuildingBlock: EZIPEK_clean_linker_0, # of connection points: 2
#     Edge 24, Type (0, 0), BuildingBlock: EZIPEK_clean_linker_0, # of connection points: 2
#     Edge 25, Type (0, 0), BuildingBlock: EZIPEK_clean_linker_0, # of connection points: 2
#     Edge 26, Type (0, 0), BuildingBlock: EZIPEK_clean_linker_0, # of connection points: 2
#     Edge 27, Type (0, 0), BuildingBlock: EZIPEK_clean_linker_0, # of connection points: 2
#     Edge 28, Type (0, 0), BuildingBlock: EZIPEK_clean_linker_0, # of connection points: 2
#     Edge 29, Type (0, 0), BuildingBlock: EZIPEK_clean_linker_0, # of connection points: 2
#     Edge 30, Type (0, 0), BuildingBlock: EZIPEK_clean_linker_0, # of connection points: 2
#     Edge 31, Type (0, 0), BuildingBlock: EZIPEK_clean_linker_0, # of connection points: 2
#     Edge 32, Type (0, 0), BuildingBlock: EZIPEK_clean_linker_0, # of connection points: 2
#     Edge 33, Type (0, 0), BuildingBlock: EZIPEK_clean_linker_0, # of connection points: 2
#     Edge 34, Type (0, 0), BuildingBlock: EZIPEK_clean_linker_0, # of connection points: 2
#     Edge 35, Type (0, 0), BuildingBlock: EZIPEK_clean_linker_0, # of connection points: 2
#     Edge 36, Type (0, 0), BuildingBlock: EZIPEK_clean_linker_0, # of connection points: 2
#     Edge 37, Type (0, 0), BuildingBlock: EZIPEK_clean_linker_0, # of connection points: 2
#     Edge 38, Type (0, 0), BuildingBlock: EZIPEK_clean_linker_0, # of connection points: 2
#     Edge 39, Type (0, 0), BuildingBlock: EZIPEK_clean_linker_0, # of connection points: 2
#     Edge 40, Type (0, 0), BuildingBlock: EZIPEK_clean_linker_0, # of connection points: 2
#     Edge 41, Type (0, 0), BuildingBlock: EZIPEK_clean_linker_0, # of connection points: 2
#     Edge 42, Type (0, 0), BuildingBlock: EZIPEK_clean_linker_0, # of connection points: 2
#     Edge 43, Type (0, 0), BuildingBlock: EZIPEK_clean_linker_0, # of connection points: 2
#     Edge 44, Type (0, 0), BuildingBlock: EZIPEK_clean_linker_0, # of connection points: 2
#     Edge 45, Type (0, 0), BuildingBlock: EZIPEK_clean_linker_0, # of connection points: 2
#     Edge 46, Type (0, 0), BuildingBlock: EZIPEK_clean_linker_0, # of connection points: 2
#     Edge 47, Type (0, 0), BuildingBlock: EZIPEK_clean_linker_0, # of connection points: 2
# Relax obj value: 0.172
# Max RMSD: 0.159
# Mean RMSD: 0.157
data_MOF--net-gis--node1-AZAVOO_clean_sbu_0--edge1-EZIPEK_clean_linker_0
_symmetry_space_group_name_H-M    P1
_symmetry_Int_Tables_number       1
_symmetry_cell_setting            triclinic
loop_
_symmetry_equiv_pos_as_xyz
'x, y, z'
_cell_length_a     34.353917
_cell_length_b     32.690436
_cell_length_c     39.094815
_cell_angle_alpha  89.946985
_cell_angle_beta   90.7627
_cell_angle_gamma 90.471325
loop_
_atom_site_label
_atom_site_type_symbol
_atom_site_fract_x
_atom_site_fract_y
_atom_site_fract_z
_atom_type_partial_charge
Mg0 Mg 0.16658 0.60726 0.08697 0.0
O1 O 0.10222 0.59956 0.10114 0.0
O2 O 0.09154 0.63955 0.14672 0.0
Mg3 Mg 0.14671 0.6753 0.16013 0.0
C4 C 0.08 0.61371 0.12424 0.0
C5 C 0.18096 0.55435 0.02262 0.0
O6 O 0.20038 0.5881 0.01578 0.0
O7 O 0.18413 0.56946 0.1343 0.0
O8 O 0.17654 0.61582 0.17589 0.0
O9 O 0.15238 0.66033 0.05257 0.0
O10 O 0.1646 0.66568 0.10759 0.0
C11 C 0.18756 0.5808 0.16554 0.0
C12 C 0.15315 0.68287 0.07975 0.0
O13 O 0.16355 0.55136 0.0511 0.0
Mg14 Mg 0.67827 0.88468 0.37118 0.0
O15 O 0.61337 0.88985 0.35506 0.0
O16 O 0.60105 0.84238 0.3152 0.0
Mg17 Mg 0.65801 0.81228 0.30059 0.0
C18 C 0.58975 0.87102 0.33479 0.0
C19 C 0.70186 0.94649 0.42775 0.0
O20 O 0.73244 0.92265 0.42668 0.0
O21 O 0.69484 0.92204 0.32367 0.0
O22 O 0.684 0.87389 0.28382 0.0
O23 O 0.66613 0.83157 0.40657 0.0
O24 O 0.6785 0.82536 0.35201 0.0
C25 C 0.69567 0.90963 0.29267 0.0
C26 C 0.66847 0.80817 0.38005 0.0
O27 O 0.67407 0.94056 0.40641 0.0
Mg28 Mg 0.29968 0.37954 0.59372 0.0
O29 O 0.36374 0.38712 0.6115 0.0
O30 O 0.37341 0.34645 0.65699 0.0
Mg31 Mg 0.31737 0.3106 0.66665 0.0
C32 C 0.38548 0.37293 0.6355 0.0
C33 C 0.27782 0.43857 0.53506 0.0
O34 O 0.24782 0.4134 0.53546 0.0
O35 O 0.281 0.41773 0.64001 0.0
O36 O 0.28976 0.37151 0.68163 0.0
O37 O 0.31531 0.32779 0.55921 0.0
O38 O 0.29935 0.3199 0.61334 0.0
C39 C 0.27892 0.4068 0.67135 0.0
C40 C 0.31141 0.30395 0.58538 0.0
O41 O 0.30434 0.435 0.5579 0.0
Mg42 Mg 0.84161 0.05163 0.84813 0.0
O43 O 0.84143 0.12191 0.85249 0.0
O44 O 0.89191 0.14051 0.88581 0.0
Mg45 Mg 0.92541 0.08325 0.90154 0.0
C46 C 0.86221 0.14926 0.86741 0.0
C47 C 0.78006 0.03523 0.79363 0.0
O48 O 0.808 0.00955 0.78656 0.0
O49 O 0.81892 0.04382 0.90323 0.0
O50 O 0.87362 0.05981 0.93238 0.0
O51 O 0.88183 0.05475 0.80339 0.0
O52 O 0.9017 0.04983 0.8572 0.0
C53 C 0.83832 0.04717 0.93136 0.0
C54 C 0.91014 0.05294 0.8254 0.0
O55 O 0.78213 0.0552 0.82153 0.0
Mg56 Mg 0.17467 0.37044 0.85619 0.0
O57 O 0.11122 0.37685 0.83731 0.0
O58 O 0.10488 0.3429 0.7877 0.0
Mg59 Mg 0.16207 0.309 0.77803 0.0
C60 C 0.09114 0.36529 0.81127 0.0
C61 C 0.1929 0.42925 0.91731 0.0
O62 O 0.22391 0.40599 0.91766 0.0
O63 O 0.19567 0.41357 0.81312 0.0
O64 O 0.19045 0.37087 0.76855 0.0
O65 O 0.15924 0.31425 0.88654 0.0
O66 O 0.17804 0.31224 0.83294 0.0
C67 C 0.20022 0.40532 0.78144 0.0
C68 C 0.16643 0.29272 0.85963 0.0
O69 O 0.16684 0.4234 0.89431 0.0
Mg70 Mg 0.78736 0.88308 0.09831 0.0
O71 O 0.85208 0.89675 0.11087 0.0
O72 O 0.87164 0.85636 0.15384 0.0
Mg73 Mg 0.81891 0.81889 0.17104 0.0
C74 C 0.87845 0.88407 0.13163 0.0
C75 C 0.78115 0.97347 0.05843 0.0
O76 O 0.76999 -0.00729 0.08604 0.0
O77 O 0.77029 0.92186 0.14452 0.0
O78 O 0.78675 0.87765 0.186 0.0
O79 O 0.80151 0.83012 0.06455 0.0
O80 O 0.79374 0.82471 0.11992 0.0
C81 C 0.77144 0.91123 0.17601 0.0
C82 C 0.80277 0.80749 0.09164 0.0
O83 O 0.78766 0.93525 0.05933 0.0
Mg84 Mg 0.33204 0.5501 0.33506 0.0
O85 O 0.32913 0.61949 0.34539 0.0
O86 O 0.3767 0.63358 0.38333 0.0
Mg87 Mg 0.40977 0.57496 0.39689 0.0
C88 C 0.34865 0.6448 0.36382 0.0
C89 C 0.27175 0.52326 0.28242 0.0
O90 O 0.29612 0.49251 0.28371 0.0
O91 O 0.30448 0.53506 0.38699 0.0
O92 O 0.35642 0.54447 0.42157 0.0
O93 O 0.37509 0.56079 0.29356 0.0
O94 O 0.39116 0.54931 0.34766 0.0
C95 C 0.32136 0.53242 0.41633 0.0
C96 C 0.40175 0.55755 0.31699 0.0
O97 O 0.27526 0.55183 0.30436 0.0
Mg98 Mg 0.68173 0.12223 0.59791 0.0
O99 O 0.61699 0.10894 0.60729 0.0
O100 O 0.59539 0.15429 0.64498 0.0
Mg101 Mg 0.64705 0.19168 0.66528 0.0
C102 C 0.58945 0.12438 0.62456 0.0
C103 C 0.70011 0.07042 0.53428 0.0
O104 O 0.71615 0.10593 0.52694 0.0
O105 O 0.69731 0.08841 0.64769 0.0
O106 O 0.67814 0.13471 0.68627 0.0
O107 O 0.66802 0.17364 0.56112 0.0
O108 O 0.67489 0.18111 0.61661 0.0
C109 C 0.69384 0.10068 0.6786 0.0
C110 C 0.66622 0.19716 0.58762 0.0
O111 O 0.68441 0.06557 0.56335 0.0
Mg112 Mg 0.8619 0.41951 0.83295 0.0
O113 O 0.85084 0.35049 0.8436 0.0
O114 O 0.90026 0.32878 0.87652 0.0
Mg115 Mg 0.94087 0.38192 0.88903 0.0
C116 C 0.86883 0.32213 0.85969 0.0
C117 C 0.79889 0.45465 0.786 0.0
O118 O 0.82709 0.48197 0.78449 0.0
O119 O 0.84126 0.43812 0.8868 0.0
O120 O 0.89251 0.41496 0.91681 0.0
O121 O 0.90151 0.40451 0.78923 0.0
O122 O 0.9211 0.41327 0.8428 0.0
C123 C 0.86002 0.43367 0.91511 0.0
C124 C 0.92938 0.40477 0.8118 0.0
O125 O 0.80242 0.42465 0.80653 0.0
Mg126 Mg 0.36084 0.03853 0.60611 0.0
O127 O 0.34894 0.10748 0.59842 0.0
O128 O 0.38239 0.12713 0.55227 0.0
Mg129 Mg 0.41802 0.07353 0.53284 0.0
C130 C 0.35934 0.13473 0.57678 0.0
C131 C 0.31334 0.00637 0.66693 0.0
O132 O 0.34322 0.98152 0.66741 0.0
O133 O 0.32243 0.02191 0.55968 0.0
O134 O 0.36224 0.03836 0.51705 0.0
O135 O 0.41149 0.0524 0.64032 0.0
O136 O 0.41528 0.04787 0.58442 0.0
C137 C 0.33059 0.02245 0.52792 0.0
C138 C 0.43204 0.05697 0.61308 0.0
O139 O 0.31065 0.03308 0.64337 0.0
Mg140 Mg 0.63418 0.54442 0.33943 0.0
O141 O 0.63831 0.61192 0.35554 0.0
O142 O 0.58583 0.62758 0.38574 0.0
Mg143 Mg 0.55222 0.56813 0.39509 0.0
C144 C 0.61788 0.63776 0.37182 0.0
C145 C 0.69441 0.52008 0.28995 0.0
O146 O 0.66789 0.49087 0.28958 0.0
O147 O 0.65889 0.52804 0.3924 0.0
O148 O 0.60598 0.54269 0.423 0.0
O149 O 0.5939 0.55854 0.29546 0.0
O150 O 0.57463 0.54346 0.34775 0.0
C151 C 0.64092 0.52991 0.42082 0.0
C152 C 0.56597 0.55377 0.31692 0.0
O153 O 0.69225 0.54807 0.31243 0.0
Mg154 Mg 0.11233 0.94333 0.11692 0.0
O155 O 0.11381 0.87577 0.10196 0.0
O156 O 0.0661 0.86086 0.06491 0.0
Mg157 Mg 0.04114 0.9223 0.04818 0.0
C158 C 0.09492 0.85001 0.08356 0.0
C159 C 0.17225 0.95799 0.17615 0.0
O160 O 0.14813 0.98843 0.1807 0.0
O161 O 0.14795 0.95592 0.06894 0.0
O162 O 0.10161 0.9425 0.02956 0.0
O163 O 0.06208 0.93375 0.15252 0.0
O164 O 0.05447 0.9487 0.09854 0.0
C165 C 0.1363 0.95345 0.03781 0.0
C166 C 0.03837 0.94145 0.12742 0.0
O167 O 0.16655 0.9339 0.15099 0.0
Mg168 Mg 0.84924 0.54193 0.11493 0.0
O169 O 0.83598 0.60911 0.09768 0.0
O170 O 0.88774 0.63271 0.06944 0.0
Mg171 Mg 0.90966 0.57451 0.04566 0.0
C172 C 0.85559 0.63865 0.08458 0.0
C173 C 0.8019 0.52217 0.17692 0.0
O174 O 0.83479 0.50251 0.18136 0.0
O175 O 0.81992 0.51187 0.06772 0.0
O176 O 0.8445 0.56095 0.03626 0.0
O177 O 0.89548 0.56561 0.15038 0.0
O178 O 0.9062 0.5467 0.0969 0.0
C179 C 0.82712 0.52653 0.03825 0.0
C180 C 0.91919 0.56204 0.12514 0.0
O181 O 0.79603 0.54129 0.14898 0.0
Mg182 Mg 0.14454 0.02305 0.83121 0.0
O183 O 0.15429 0.09112 0.84319 0.0
O184 O 0.11036 0.10975 0.88188 0.0
Mg185 Mg 0.07309 0.05392 0.89518 0.0
C186 C 0.13889 0.11791 0.86239 0.0
C187 C 0.19918 -0.00205 0.77478 0.0
O188 O 0.16949 0.97264 0.77126 0.0
O189 O 0.17485 0.00586 0.8821 0.0
O190 O 0.12718 0.02339 0.91773 0.0
O191 O 0.0992 0.03828 0.79125 0.0
O192 O 0.08634 0.02677 0.84565 0.0
C193 C 0.16064 0.00828 0.91212 0.0
C194 C 0.07412 0.03653 0.81557 0.0
O195 O 0.20001 0.02255 0.79997 0.0
Mg196 Mg 0.61263 0.45503 0.62925 0.0
O197 O 0.6217 0.38933 0.61063 0.0
O198 O 0.57324 0.37055 0.57541 0.0
Mg199 Mg 0.53981 0.42892 0.56286 0.0
C200 C 0.60436 0.36242 0.59218 0.0
C201 C 0.66973 0.46941 0.68947 0.0
O202 O 0.63953 0.49119 0.69837 0.0
O203 O 0.64285 0.47607 0.58044 0.0
O204 O 0.59614 0.45806 0.54261 0.0
O205 O 0.56779 0.43425 0.66688 0.0
O206 O 0.55424 0.45222 0.61358 0.0
C207 C 0.62961 0.47339 0.5498 0.0
C208 C 0.54265 0.43733 0.64211 0.0
O209 O 0.66915 0.45141 0.66061 0.0
Mg210 Mg 0.35006 0.91616 0.33821 0.0
O211 O 0.34287 0.84624 0.34596 0.0
O212 O 0.3803 0.82913 0.39109 0.0
Mg213 Mg 0.41352 0.88552 0.41058 0.0
C214 C 0.35639 0.81974 0.36703 0.0
C215 C 0.29816 0.94139 0.27586 0.0
O216 O 0.32904 0.96464 0.27133 0.0
O217 O 0.31357 0.92989 0.38572 0.0
O218 O 0.35721 0.91651 0.4271 0.0
O219 O 0.40225 0.90863 0.30423 0.0
O220 O 0.4056 0.91249 0.36 0.0
C221 C 0.3242 0.9302 0.41719 0.0
C222 C 0.4235 0.90755 0.33177 0.0
O223 O 0.2971 0.91764 0.30167 0.0
C224 C 0.10257 0.78175 0.05305 0.0
C225 C 0.10837 0.80661 0.08264 0.0
C226 C 0.15056 0.75346 0.10602 0.0
C227 C 0.13816 0.72567 0.08001 0.0
N228 N 0.08958 0.71255 0.03536 0.0
N229 N 0.12798 0.80711 0.1426 0.0
C230 C 0.11028 0.73934 0.0554 0.0
C231 C 0.12928 0.78981 0.11087 0.0
N232 N 0.09206 0.79811 0.02217 0.0
N233 N 0.18345 0.74676 0.12511 0.0
H234 H 0.10921 0.83088 0.14855 0.0
H235 H 0.14146 0.79382 0.1639 0.0
H236 H 0.20291 0.72337 0.11986 0.0
H237 H 0.19401 0.76802 0.14291 0.0
H238 H 0.08993 0.78038 3e-05 0.0
H239 H 0.09127 0.82945 0.01744 0.0
H240 H 0.06759 0.72227 0.01865 0.0
H241 H 0.09001 0.681 0.03894 0.0
C242 C 0.49046 0.91301 0.35945 0.0
C243 C 0.46645 0.89972 0.33152 0.0
C244 C 0.5256 0.87808 0.30272 0.0
C245 C 0.54766 0.88248 0.33361 0.0
N246 N 0.54492 0.8936 0.395 0.0
N247 N 0.46299 0.8576 0.28022 0.0
C248 C 0.52842 0.89685 0.36316 0.0
C249 C 0.48438 0.87875 0.30408 0.0
N250 N 0.47837 0.94243 0.38159 0.0
N251 N 0.54349 0.87497 0.27187 0.0
H252 H 0.43314 0.85265 0.28199 0.0
H253 H 0.47597 0.84003 0.26132 0.0
H254 H 0.57341 0.87892 0.26898 0.0
H255 H 0.52788 0.87429 0.24879 0.0
H256 H 0.49647 0.95409 0.40096 0.0
H257 H 0.45313 0.95932 0.37763 0.0
H258 H 0.53003 0.90161 0.41706 0.0
H259 H 0.5707 0.87797 0.39987 0.0
C260 C 0.29497 0.22885 0.58642 0.0
C261 C 0.32341 0.26051 0.58402 0.0
C262 C 0.37501 0.20929 0.58302 0.0
C263 C 0.34648 0.17767 0.58117 0.0
N264 N 0.27894 0.15752 0.57582 0.0
N265 N 0.39014 0.28087 0.57445 0.0
C266 C 0.30629 0.1874 0.58173 0.0
C267 C 0.3633 0.25073 0.58049 0.0
N268 N 0.25708 0.23833 0.5928 0.0
N269 N 0.41323 0.19986 0.58901 0.0
H270 H 0.3835 0.31191 0.57439 0.0
H271 H 0.41867 0.27484 0.56739 0.0
H272 H 0.42287 0.16996 0.59263 0.0
H273 H 0.43465 0.22183 0.59414 0.0
H274 H 0.23601 0.21649 0.59883 0.0
H275 H 0.24712 0.26831 0.59432 0.0
H276 H 0.24945 0.16345 0.57217 0.0
H277 H 0.28601 0.12702 0.5715 0.0
C278 C 0.01625 0.08257 0.8187 0.0
C279 C 0.03228 0.0444 0.80942 0.0
C280 C 0.96705 0.01438 0.80345 0.0
C281 C 0.95115 0.05189 0.81469 0.0
N282 N 0.95833 0.12402 0.82487 0.0
N283 N 0.02399 0.97757 0.78448 0.0
C284 C 0.97513 0.08683 0.81971 0.0
C285 C 0.00791 0.01151 0.79881 0.0
N286 N 0.04052 0.11434 0.82712 0.0
N287 N 0.94331 0.98093 0.79907 0.0
H288 H 0.05391 0.9745 0.78117 0.0
H289 H 0.00779 0.95401 0.77325 0.0
H290 H 0.9131 0.98221 0.80115 0.0
H291 H 0.95345 0.95144 0.79507 0.0
H292 H 0.03148 0.1416 0.83805 0.0
H293 H 0.07043 0.11277 0.82361 0.0
H294 H 0.97366 0.15154 0.82637 0.0
H295 H 0.92823 0.1277 0.82485 0.0
C296 C 0.14082 0.22718 0.83289 0.0
C297 C 0.16165 0.24719 0.85974 0.0
C298 C 0.16982 0.18079 0.88836 0.0
C299 C 0.15179 0.16107 0.8599 0.0
N300 N 0.13005 0.16501 0.8009 0.0
N301 N 0.20435 0.24096 0.90911 0.0
C302 C 0.141 0.18404 0.83066 0.0
C303 C 0.17859 0.22341 0.88647 0.0
N304 N 0.11772 0.24904 0.81124 0.0
N305 N 0.17842 0.1589 0.91723 0.0
H306 H 0.2129 0.27157 0.90773 0.0
H307 H 0.22029 0.22423 0.92706 0.0
H308 H 0.17435 0.12731 0.91876 0.0
H309 H 0.18738 0.17243 0.94016 0.0
H310 H 0.09879 0.2358 0.79329 0.0
H311 H 0.11366 0.27997 0.81485 0.0
H312 H 0.12546 0.18089 0.77808 0.0
H313 H 0.12938 0.13337 0.79794 0.0
C314 C 0.93665 0.91536 0.16253 0.0
C315 C 0.91791 0.90361 0.13127 0.0
C316 C 0.97099 0.93643 0.10042 0.0
C317 C -0.00527 0.93657 0.13041 0.0
N318 N -0.00404 0.93532 0.19237 0.0
N319 N 0.92148 0.8989 0.06948 0.0
C320 C 0.97642 0.9285 0.16227 0.0
C321 C 0.93616 0.91309 0.09989 0.0
N322 N 0.91572 0.9171 0.19201 0.0
N323 N 0.97956 0.96125 0.07346 0.0
H324 H 0.89746 0.87933 0.06766 0.0
H325 H 0.93603 0.90314 0.04647 0.0
H326 H 0.00133 0.98363 0.07491 0.0
H327 H 0.96134 0.9637 0.052 0.0
H328 H 0.92668 0.92899 0.21491 0.0
H329 H 0.8859 0.91112 0.19284 0.0
H330 H 0.98704 0.92312 0.21564 0.0
H331 H 0.02037 0.95432 0.19424 0.0
C332 C 0.32877 0.71095 0.39088 0.0
C333 C 0.34072 0.68938 0.36138 0.0
C334 C 0.3574 0.75419 0.33317 0.0
C335 C 0.34593 0.77579 0.36285 0.0
N336 N 0.31165 0.77619 0.41612 0.0
N337 N 0.35567 0.6908 0.30115 0.0
C338 C 0.32868 0.75453 0.39052 0.0
C339 C 0.35116 0.71115 0.33134 0.0
N340 N 0.31825 0.68965 0.41945 0.0
N341 N 0.37694 0.77413 0.30777 0.0
H342 H 0.35218 0.65928 0.29867 0.0
H343 H 0.35923 0.70559 0.27778 0.0
H344 H 0.38251 0.80549 0.30797 0.0
H345 H 0.39052 0.75914 0.28775 0.0
H346 H 0.31393 0.70318 0.44318 0.0
H347 H 0.31531 0.65785 0.41971 0.0
H348 H 0.29555 0.7628 0.43559 0.0
H349 H 0.31061 0.80809 0.41613 0.0
C350 C 0.52306 0.10878 0.6489 0.0
C351 C 0.54919 0.10702 0.62106 0.0
C352 C 0.50035 0.06649 0.5896 0.0
C353 C 0.47212 0.07507 0.61488 0.0
N354 N 0.45593 0.11964 0.66227 0.0
N355 N 0.55526 0.0951 0.55999 0.0
C356 C 0.4831 0.10084 0.64269 0.0
C357 C 0.53577 0.08916 0.58981 0.0
N358 N 0.53596 0.11601 0.68153 0.0
N359 N 0.49482 0.03579 0.56634 0.0
H360 H 0.57881 0.11517 0.55778 0.0
H361 H 0.54448 0.08448 0.53652 0.0
H362 H 0.47155 0.01524 0.56717 0.0
H363 H 0.51632 0.02743 0.54916 0.0
H364 H 0.51729 0.11511 0.70237 0.0
H365 H 0.56537 0.11692 0.68838 0.0
H366 H 0.46366 0.14035 0.68154 0.0
H367 H 0.42635 0.11957 0.65602 0.0
C368 C 0.85805 0.21256 0.83077 0.0
C369 C 0.85256 0.19313 0.86289 0.0
C370 C 0.84553 0.25981 0.89065 0.0
C371 C 0.85397 0.2793 0.85911 0.0
N372 N 0.85656 0.27536 0.79758 0.0
N373 N 0.83017 0.1967 0.92079 0.0
C374 C 0.85603 0.25601 0.82857 0.0
C375 C 0.84267 0.21639 0.89203 0.0
N376 N 0.86773 0.18977 0.80286 0.0
N377 N 0.84139 0.28304 0.91943 0.0
H378 H 0.82732 0.16492 0.92211 0.0
H379 H 0.81948 0.21159 0.94217 0.0
H380 H 0.84037 0.31494 0.91863 0.0
H381 H 0.84006 0.27106 0.94405 0.0
H382 H 0.87733 0.20231 0.77996 0.0
H383 H 0.86822 0.15792 0.803 0.0
H384 H 0.8543 0.26013 0.77427 0.0
H385 H 0.85561 0.30703 0.79498 0.0
C386 C 0.62333 0.70467 0.40444 0.0
C387 C 0.63195 0.68099 0.37497 0.0
C388 C 0.67317 0.73725 0.35546 0.0
C389 C 0.6573 0.76386 0.38035 0.0
N390 N 0.60704 0.77241 0.42305 0.0
N391 N 0.65671 0.68226 0.31703 0.0
C392 C 0.62943 0.74762 0.40343 0.0
C393 C 0.65447 0.69934 0.3488 0.0
N394 N 0.61102 0.68656 0.43391 0.0
N395 N 0.70676 0.74702 0.33894 0.0
H396 H 0.63995 0.65713 0.30933 0.0
H397 H 0.67115 0.69673 0.297 0.0
H398 H 0.72402 0.77223 0.34561 0.0
H399 H 0.72001 0.72686 0.32209 0.0
H400 H 0.60699 0.7031 0.45637 0.0
H401 H 0.61023 0.65494 0.43735 0.0
H402 H 0.58479 0.76088 0.43829 0.0
H403 H 0.60666 0.8041 0.42069 0.0
C404 C 0.82061 0.69563 0.11567 0.0
C405 C 0.8408 0.68141 0.08654 0.0
C406 C 0.84269 0.75156 0.06491 0.0
C407 C 0.81631 0.76418 0.09043 0.0
N408 N 0.77118 0.74212 0.13428 0.0
N409 N 0.8586 0.6957 0.02781 0.0
C410 C 0.80254 0.73452 0.11422 0.0
C411 C 0.84811 0.70925 0.05938 0.0
N412 N 0.81989 0.67344 0.14527 0.0
N413 N 0.86427 0.77932 0.04702 0.0
H414 H 0.85893 0.6648 0.02125 0.0
H415 H 0.86166 0.71542 0.007 0.0
H416 H 0.86515 0.81039 0.05289 0.0
H417 H 0.88551 0.77047 0.02975 0.0
H418 H 0.80778 0.68469 0.16767 0.0
H419 H 0.83556 0.6466 0.14887 0.0
H420 H 0.75899 0.71981 0.15005 0.0
H421 H 0.7542 0.76821 0.13185 0.0
C422 C 0.64341 0.30401 0.61752 0.0
C423 C 0.62119 0.32048 0.58991 0.0
C424 C 0.62507 0.25411 0.56109 0.0
C425 C 0.65241 0.24032 0.58611 0.0
N426 N 0.69824 0.26134 0.63065 0.0
N427 N 0.60453 0.3136 0.52953 0.0
C428 C 0.66503 0.26811 0.61199 0.0
C429 C 0.61604 0.29638 0.5598 0.0
N430 N 0.64275 0.32079 0.64948 0.0
N431 N 0.60603 0.2275 0.53967 0.0
H432 H 0.60206 0.34508 0.52604 0.0
H433 H 0.603 0.29694 0.5068 0.0
H434 H 0.6082 0.19587 0.54159 0.0
H435 H 0.584 0.23699 0.52292 0.0
H436 H 0.657 0.30738 0.67034 0.0
H437 H 0.62403 0.34418 0.65632 0.0
H438 H 0.70917 0.28255 0.64833 0.0
H439 H 0.71744 0.23778 0.62513 0.0
C440 C 0.03777 0.41512 0.79825 0.0
C441 C 0.04942 0.37569 0.8093 0.0
C442 C 0.98141 0.35299 0.81027 0.0
C443 C 0.96961 0.39351 0.80368 0.0
N444 N 0.98531 0.46415 0.79261 0.0
N445 N 0.03237 0.30959 0.83249 0.0
C446 C -0.00253 0.42487 0.79767 0.0
C447 C 0.02127 0.3451 0.81687 0.0
N448 N 0.06518 0.443 0.78819 0.0
N449 N 0.95436 0.32215 0.8103 0.0
H450 H 0.06096 0.30428 0.84033 0.0
H451 H 0.01276 0.28766 0.84131 0.0
H452 H 0.92505 0.32738 0.80477 0.0
H453 H 0.96148 0.2913 0.81215 0.0
H454 H 0.0585 0.47067 0.77639 0.0
H455 H 0.09497 0.43736 0.7899 0.0
H456 H 0.00403 0.48933 0.79218 0.0
H457 H 0.95595 0.47175 0.79026 0.0
C458 C 0.50583 0.59602 0.31477 0.0
C459 C 0.52487 0.55904 0.30688 0.0
C460 C 0.46249 0.52402 0.29784 0.0
C461 C 0.44339 0.55999 0.30864 0.0
N462 N 0.44461 0.63223 0.32009 0.0
N463 N 0.52319 0.49183 0.28203 0.0
C464 C 0.46443 0.59681 0.31467 0.0
C465 C 0.50367 0.52435 0.29529 0.0
N466 N 0.52763 0.62987 0.32289 0.0
N467 N 0.44132 0.48907 0.29176 0.0
H468 H 0.55344 0.49151 0.28 0.0
H469 H 0.50963 0.46675 0.27046 0.0
H470 H 0.41096 0.48815 0.29214 0.0
H471 H 0.45358 0.46051 0.28777 0.0
H472 H 0.51637 0.65695 0.33238 0.0
H473 H 0.55779 0.63058 0.32008 0.0
H474 H 0.45761 0.66087 0.32299 0.0
H475 H 0.41431 0.63327 0.31953 0.0
C476 C 0.4706 0.44793 0.64269 0.0
C477 C 0.50255 0.42076 0.64471 0.0
C478 C 0.45794 0.36194 0.64033 0.0
C479 C 0.42581 0.38913 0.63961 0.0
N480 N 0.40115 0.45714 0.64881 0.0
N481 N 0.52679 0.35212 0.65157 0.0
C482 C 0.43201 0.43194 0.64317 0.0
C483 C 0.49623 0.37783 0.64567 0.0
N484 N 0.47713 0.48914 0.64006 0.0
N485 N 0.4522 0.32115 0.63415 0.0
H486 H 0.55544 0.36229 0.65426 0.0
H487 H 0.52353 0.32099 0.65651 0.0
H488 H 0.42479 0.30791 0.6307 0.0
H489 H 0.47468 0.30072 0.6298 0.0
H490 H 0.45537 0.51001 0.63396 0.0
H491 H 0.50479 0.50238 0.64211 0.0
H492 H 0.40418 0.48791 0.65525 0.0
H493 H 0.37252 0.44658 0.65044 0.0
C494 C 0.00894 0.62982 0.12286 0.0
C495 C 0.03888 0.60022 0.12495 0.0
C496 C -0.00997 0.54539 0.12745 0.0
C497 C 0.96028 0.57527 0.12801 0.0
N498 N 0.94161 0.64591 0.13382 0.0
N499 N 0.05844 0.53073 0.13638 0.0
C500 C 0.96979 0.61752 0.12825 0.0
C501 C 0.02962 0.55816 0.12913 0.0
N502 N 0.01765 0.66931 0.11399 0.0
N503 N 0.98047 0.50477 0.1253 0.0
H504 H 0.08775 0.539 0.13861 0.0
H505 H 0.05305 0.50046 0.14332 0.0
H506 H 0.95189 0.49387 0.12649 0.0
H507 H 0.0007 0.48202 0.12042 0.0
H508 H -0.00346 0.69115 0.10855 0.0
H509 H 0.04583 0.67931 0.10862 0.0
H510 H 0.9476 0.67689 0.13754 0.0
H511 H 0.9126 0.63809 0.13795 0.0
C512 C 0.17425 0.53104 0.9624 0.0
C513 C 0.17846 0.52119 -0.00353 0.0
C514 C 0.18599 0.44947 -0.02061 0.0
C515 C 0.18803 0.46072 0.94452 0.0
N516 N 0.17983 0.51422 0.9024 0.0
N517 N 0.20458 0.47171 0.03639 0.0
C518 C 0.18 0.50202 0.93585 0.0
C519 C 0.18929 0.48052 0.00481 0.0
N520 N 0.15683 0.5676 0.95542 0.0
N521 N 0.18625 0.40911 -0.01146 0.0
H522 H 0.20844 0.49356 0.05556 0.0
H523 H 0.21689 0.44355 0.04245 0.0
H524 H 0.18938 0.3855 0.97099 0.0
H525 H 0.18601 0.3993 0.0139 0.0
H526 H 0.14459 0.57466 0.93163 0.0
H527 H 0.15074 0.58904 0.97432 0.0
H528 H 0.1783 0.5448 0.895 0.0
H529 H 0.18503 0.49442 0.88213 0.0
C530 C 0.6913 0.93954 0.23473 0.0
C531 C 0.71329 0.93492 0.2653 0.0
C532 C 0.77325 0.94383 0.23303 0.0
C533 C 0.7518 0.93565 0.20265 0.0
N534 N 0.68993 0.93445 0.17278 0.0
N535 N 0.77493 0.94099 0.29509 0.0
C536 C 0.71055 0.93767 0.20277 0.0
C537 C 0.7542 0.94112 0.26506 0.0
N538 N 0.65192 0.94394 0.23678 0.0
N539 N 0.81206 0.95249 0.23079 0.0
H540 H 0.76161 0.94117 0.31887 0.0
H541 H 0.80518 0.94022 0.29656 0.0
H542 H 0.82574 0.95443 0.20712 0.0
H543 H 0.82959 0.96113 0.25151 0.0
H544 H 0.63377 0.94987 0.21587 0.0
H545 H 0.63802 0.94502 0.26038 0.0
H546 H 0.65988 0.93045 0.17137 0.0
H547 H 0.70312 0.93549 0.14897 0.0
C548 C 0.29342 0.44321 0.47279 0.0
C549 C 0.28514 0.46345 0.50396 0.0
C550 C 0.29517 0.53008 0.47612 0.0
C551 C 0.30242 0.50978 0.44472 0.0
N552 N 0.30123 0.44744 0.41146 0.0
N553 N 0.27181 0.52552 0.53452 0.0
C554 C 0.29882 0.46652 0.44247 0.0
C555 C 0.28412 0.50678 0.50539 0.0
N556 N 0.29879 0.40175 0.47261 0.0
N557 N 0.2996 0.57162 0.47798 0.0
H558 H 0.26399 0.50924 0.55638 0.0
H559 H 0.26666 0.55675 0.53637 0.0
H560 H 0.30497 0.58971 0.45651 0.0
H561 H 0.29949 0.58803 0.50077 0.0
H562 H 0.30964 0.3858 0.45182 0.0
H563 H 0.29587 0.38339 0.49426 0.0
H564 H 0.29393 0.41679 0.40765 0.0
H565 H 0.30746 0.46262 0.38875 0.0
C566 C 0.75403 0.0959 0.71409 0.0
C567 C 0.71636 0.08029 0.70614 0.0
C568 C 0.72064 0.03327 0.75506 0.0
C569 C 0.7567 0.05168 0.76472 0.0
N570 N 0.80542 0.1044 0.75645 0.0
N571 N 0.66174 0.03711 0.71992 0.0
C572 C 0.77274 0.08411 0.74507 0.0
C573 C 0.69905 0.04967 0.72683 0.0
N574 N 0.77228 0.12152 0.69158 0.0
N575 N 0.70744 -0.00014 0.77258 0.0
H576 H 0.6459 0.04759 0.69874 0.0
H577 H 0.64577 0.01814 0.73599 0.0
H578 H 0.722 0.98813 0.79399 0.0
H579 H 0.68346 0.98235 0.76485 0.0
H580 H 0.80141 0.13024 0.69393 0.0
H581 H 0.75941 0.13133 0.66872 0.0
H582 H 0.81574 0.13138 0.74554 0.0
H583 H 0.82066 0.09639 0.77864 0.0
C584 C 0.81213 0.45842 0.96026 0.0
C585 C 0.84995 0.45819 0.94581 0.0
C586 C 0.86907 0.49145 -0.0032 0.0
C587 C 0.83118 0.49807 0.00893 0.0
N588 N 0.76188 0.49045 0.00104 0.0
N589 N 0.91457 0.48876 0.94629 0.0
C590 C 0.79862 0.48222 -0.00967 0.0
C591 C 0.88094 0.47907 0.96287 0.0
N592 N 0.78301 0.43509 0.94612 0.0
N593 N 0.9006 0.49562 0.01811 0.0
H594 H 0.91818 0.48385 0.92016 0.0
H595 H 0.93662 0.50645 0.9576 0.0
H596 H 0.89758 0.50069 0.04425 0.0
H597 H 0.92878 0.48848 0.01064 0.0
H598 H 0.75592 0.43121 0.95738 0.0
H599 H 0.787 0.41709 0.92447 0.0
H600 H 0.73697 0.48323 -0.01326 0.0
H601 H 0.75664 0.50672 0.02345 0.0
C602 C 0.21631 0.00566 0.71284 0.0
C603 C 0.22869 0.00091 0.74745 0.0
C604 C 0.29662 0.00561 0.72945 0.0
C605 C 0.28418 0.00455 0.69461 0.0
N606 N 0.23188 -0.00489 0.65339 0.0
N607 N 0.28094 -0.01099 0.78806 0.0
C608 C 0.24392 0.00221 0.68633 0.0
C609 C 0.26896 -0.00115 0.75563 0.0
N610 N 0.17856 0.01545 0.70523 0.0
N611 N 0.33443 0.01501 0.73771 0.0
H612 H 0.26163 0.983 0.80783 0.0
H613 H 0.30985 0.98291 0.79447 0.0
H614 H 0.35532 0.02205 0.71948 0.0
H615 H 0.34403 0.02017 0.76274 0.0
H616 H 0.16907 0.02316 0.68065 0.0
H617 H 0.15771 0.02047 0.72387 0.0
H618 H 0.20295 -0.011 0.64669 0.0
H619 H 0.25112 -0.00895 0.63329 0.0
C620 C 0.66238 0.47369 0.45995 0.0
C621 C 0.65941 0.51613 0.45316 0.0
C622 C 0.65576 0.53101 0.51433 0.0
C623 C 0.65262 0.48841 0.52057 0.0
N624 N 0.6668 0.41994 0.50297 0.0
N625 N 0.6678 0.58507 0.47279 0.0
C626 C 0.6612 0.46002 0.49446 0.0
C627 C 0.66163 0.54474 0.48026 0.0
N628 N 0.66309 0.44657 0.43342 0.0
N629 N 0.65 0.55807 0.54034 0.0
H630 H 0.67192 0.59507 0.44769 0.0
H631 H 0.67214 0.6077 0.49119 0.0
H632 H 0.64687 0.54879 0.56567 0.0
H633 H 0.64731 0.58948 0.53683 0.0
H634 H 0.66048 0.41504 0.43636 0.0
H635 H 0.66543 0.45594 0.40804 0.0
H636 H 0.67553 0.39768 0.48575 0.0
H637 H 0.66587 0.4099 0.52833 0.0
C638 C 0.22683 0.95022 0.26137 0.0
C639 C 0.26538 0.94262 0.25054 0.0
C640 C 0.24333 0.94654 0.19056 0.0
C641 C 0.2043 0.95074 0.20146 0.0
N642 N 0.15813 0.94544 0.24736 0.0
N643 N 0.30824 0.92325 0.20497 0.0
C644 C 0.1958 0.94929 0.23693 0.0
C645 C 0.27303 0.93773 0.21515 0.0
N646 N 0.21987 0.9603 0.29465 0.0
N647 N 0.25253 0.95287 0.15706 0.0
H648 H 0.33029 0.91506 0.22219 0.0
H649 H 0.31402 0.91523 0.17976 0.0
H650 H 0.23198 0.96048 0.13831 0.0
H651 H 0.2811 0.95448 0.1485 0.0
H652 H 0.19292 0.97042 0.30298 0.0
H653 H 0.24176 0.96253 0.31329 0.0
H654 H 0.15064 0.94022 0.27274 0.0
H655 H 0.13463 0.94286 0.23031 0.0
C656 C 0.68419 0.04738 0.47427 0.0
C657 C 0.69806 0.03777 0.50773 0.0
C658 C 0.70666 0.96657 0.48987 0.0
C659 C 0.69893 0.97779 0.45529 0.0
N660 N 0.68665 0.03131 0.41395 0.0
N661 N 0.72882 -0.01084 0.54579 0.0
C662 C 0.68927 0.01886 0.44728 0.0
C663 C 0.71093 -0.00244 0.51518 0.0
N664 N 0.66471 0.08306 0.46845 0.0
N665 N 0.7083 0.92622 0.49892 0.0
H666 H 0.73353 0.0111 0.56475 0.0
H667 H 0.7424 0.96141 0.55097 0.0
H668 H 0.70335 0.90246 0.48158 0.0
H669 H 0.71014 0.91642 0.52426 0.0
H670 H 0.65075 0.08969 0.4453 0.0
H671 H 0.65868 0.10392 0.4878 0.0
H672 H 0.68369 0.06188 0.40688 0.0
H673 H 0.69134 0.01186 0.39333 0.0
C674 C 0.22199 0.44339 0.6957 0.0
C675 C 0.26207 0.43396 0.69768 0.0
C676 C 0.26035 0.4385 0.76016 0.0
C677 C 0.21945 0.43436 0.7578 0.0
N678 N 0.16047 0.44516 0.72602 0.0
N679 N 0.32189 0.43591 0.72986 0.0
C680 C 0.20007 0.44224 0.72633 0.0
C681 C 0.28217 0.43712 0.72948 0.0
N682 N 0.20508 0.4516 0.6647 0.0
N683 N 0.27779 0.44125 0.79163 0.0
H684 H 0.33762 0.436 0.70717 0.0
H685 H 0.33908 0.43511 0.75193 0.0
H686 H 0.26154 0.44301 0.81392 0.0
H687 H 0.30762 0.44465 0.79567 0.0
H688 H 0.17604 0.4596 0.66134 0.0
H689 H 0.22126 0.45389 0.64242 0.0
H690 H 0.14329 0.44717 0.70399 0.0
H691 H 0.14492 0.44534 0.74878 0.0
C692 C 0.83969 -0.00058 -0.01944 0.0
C693 C 0.82314 0.02863 0.96337 0.0
C694 C 0.7676 0.02191 0.00875 0.0
C695 C 0.79359 -0.00364 0.02747 0.0
N696 N 0.85923 0.97176 0.03523 0.0
N697 N 0.76714 0.07258 0.96359 0.0
C698 C 0.83114 0.98853 0.0146 0.0
C699 C 0.78063 0.04128 -0.02192 0.0
N700 N 0.87642 0.98059 0.96401 0.0
N701 N 0.7302 0.02645 0.01942 0.0
H702 H 0.77594 0.08732 0.94129 0.0
H703 H 0.74321 0.08594 0.97508 0.0
H704 H 0.71976 0.01283 0.04165 0.0
H705 H 0.70883 0.04113 0.00492 0.0
H706 H 0.89207 0.95647 0.97473 0.0
H707 H 0.88231 0.98548 0.93822 0.0
H708 H 0.88811 0.96896 0.02778 0.0
H709 H 0.85484 0.96529 0.06104 0.0
C710 C 0.18674 0.54353 0.22146 0.0
C711 C 0.20707 0.5544 0.19132 0.0
C712 C 0.26934 0.54063 0.22001 0.0
C713 C 0.24916 0.53067 0.25048 0.0
N714 N 0.18925 0.51431 0.27874 0.0
N715 N 0.26634 0.55254 0.1589 0.0
C716 C 0.20793 0.52941 0.25071 0.0
C717 C 0.24788 0.54897 0.18954 0.0
N718 N 0.1472 0.54781 0.22216 0.0
N719 N 0.30899 0.54507 0.22071 0.0
H720 H 0.25206 0.55981 0.13609 0.0
H721 H 0.29526 0.54442 0.15538 0.0
H722 H 0.32615 0.53965 0.24236 0.0
H723 H 0.32484 0.55749 0.20064 0.0
H724 H 0.13077 0.54531 0.24424 0.0
H725 H 0.1308 0.55512 0.20036 0.0
H726 H 0.15936 0.50914 0.27968 0.0
H727 H 0.20419 0.50406 0.30049 0.0
C728 C 0.29982 0.01947 0.46972 0.0
C729 C 0.3054 0.00084 0.50217 0.0
C730 C 0.29815 0.93318 0.47622 0.0
C731 C 0.30106 0.95166 0.44356 0.0
N732 N 0.28573 0.0105 0.40901 0.0
N733 N 0.29062 0.94231 0.53747 0.0
C734 C 0.29506 -0.00569 0.44021 0.0
C735 C 0.29771 0.95837 0.50591 0.0
N736 N 0.30107 0.06113 0.46733 0.0
N737 N 0.29823 0.89151 0.47853 0.0
H738 H 0.28773 0.96048 0.55912 0.0
H739 H 0.28304 0.91184 0.54161 0.0
H740 H 0.29654 0.87306 0.45674 0.0
H741 H 0.30089 0.87546 0.50143 0.0
H742 H 0.30177 0.07712 0.44432 0.0
H743 H 0.30217 0.07967 0.48908 0.0
H744 H 0.27936 0.04121 0.40503 0.0
H745 H 0.28008 -0.00775 0.38766 0.0
C746 C 0.73387 0.51523 0.19975 0.0
C747 C 0.77382 0.52442 0.20543 0.0
C748 C 0.76233 0.52955 0.26715 0.0
C749 C 0.72191 0.52364 0.26107 0.0
N750 N 0.66841 0.52374 0.22018 0.0
N751 N 0.82362 0.55185 0.24345 0.0
C752 C 0.70739 0.52028 0.22694 0.0
C753 C 0.7874 0.53497 0.23884 0.0
N754 N 0.72125 0.5 0.16897 0.0
N755 N 0.77716 0.5284 0.29974 0.0
H756 H 0.84214 0.55845 0.22322 0.0
H757 H 0.83344 0.56358 0.26682 0.0
H758 H 0.75993 0.52369 0.32116 0.0
H759 H 0.80693 0.52826 0.30518 0.0
H760 H 0.69304 0.48889 0.16489 0.0
H761 H 0.73977 0.49454 0.1486 0.0
H762 H 0.65688 0.52526 0.19542 0.0
H763 H 0.64812 0.53005 0.23902 0.0
C764 C 0.17367 0.00528 0.00353 0.0
C765 C 0.16253 0.96396 0.00925 0.0
C766 C 0.17721 0.94848 0.94857 0.0
C767 C 0.181 -0.00907 0.9423 0.0
N768 N 0.20255 0.05635 0.96238 0.0
N769 N 0.16475 0.89405 -0.00912 0.0
C770 C 0.18896 0.01803 0.96963 0.0
C771 C 0.16636 0.93468 -0.01716 0.0
N772 N 0.17318 0.03277 0.02978 0.0
N773 N 0.17396 0.92215 0.9216 0.0
H774 H 0.16196 0.88406 0.01613 0.0
H775 H 0.17631 0.87071 0.97345 0.0
H776 H 0.17818 0.93177 0.89646 0.0
H777 H 0.1667 0.89132 0.92393 0.0
H778 H 0.17653 0.06419 0.02651 0.0
H779 H 0.16857 0.02413 0.05506 0.0
H780 H 0.20405 0.07752 -0.01919 0.0
H781 H 0.20843 0.06511 0.93725 0.0
C782 C 0.74169 0.47113 0.70309 0.0
C783 C 0.70294 0.46409 0.71385 0.0
C784 C 0.72674 0.45355 0.77271 0.0
C785 C 0.76566 0.45665 0.76126 0.0
N786 N 0.80975 0.45701 0.71353 0.0
N787 N 0.65985 0.43795 0.75727 0.0
C788 C 0.77306 0.46217 0.72585 0.0
C789 C 0.69577 0.45224 0.74823 0.0
N790 N 0.74872 0.48797 0.67174 0.0
N791 N 0.71906 0.45348 0.80692 0.0
H792 H 0.63683 0.4345 0.73983 0.0
H793 H 0.65419 0.42522 0.78116 0.0
H794 H 0.74077 0.45545 0.82575 0.0
H795 H 0.69098 0.45555 0.81651 0.0
H796 H 0.77632 0.49755 0.66422 0.0
H797 H 0.72663 0.49629 0.65464 0.0
H798 H 0.81585 0.45685 0.68749 0.0
H799 H 0.83326 0.44816 0.72889 0.0
loop_
_geom_bond_atom_site_label_1
_geom_bond_atom_site_label_2
_geom_bond_distance
_geom_bond_site_symmetry_2
_ccdc_geom_bond_type
Mg0 O1 2.028 . S
Mg0 O7 1.986 . S
Mg0 O9 2.114 . S
Mg0 O10 2.251 . S
Mg0 O13 2.010 . S
O1 Mg0 2.028 . S
O1 C4 1.250 . S
O2 Mg3 2.028 . S
O2 C4 1.248 . S
Mg3 O2 2.028 . S
Mg3 O8 2.032 . S
Mg3 O10 2.079 . S
C4 O1 1.250 . S
C4 O2 1.248 . S
C5 O6 1.264 . S
C5 O13 1.249 . S
O6 C5 1.264 . S
O7 Mg0 1.986 . S
O7 C11 1.246 . S
O8 Mg3 2.032 . S
O8 C11 1.259 . S
O9 Mg0 2.114 . S
O9 C12 1.252 . S
O10 Mg0 2.251 . S
O10 Mg3 2.079 . S
O10 C12 1.273 . S
C11 O7 1.246 . S
C11 O8 1.259 . S
C12 O9 1.252 . S
C12 O10 1.273 . S
O13 Mg0 2.010 . S
O13 C5 1.249 . S
Mg14 O15 2.028 . S
Mg14 O21 1.986 . S
Mg14 O23 2.114 . S
Mg14 O24 2.251 . S
Mg14 O27 2.010 . S
O15 Mg14 2.028 . S
O15 C18 1.250 . S
O16 Mg17 2.028 . S
O16 C18 1.248 . S
Mg17 O16 2.028 . S
Mg17 O22 2.032 . S
Mg17 O24 2.079 . S
C18 O15 1.250 . S
C18 O16 1.248 . S
C19 O20 1.264 . S
C19 O27 1.249 . S
O20 C19 1.264 . S
O21 Mg14 1.986 . S
O21 C25 1.246 . S
O22 Mg17 2.032 . S
O22 C25 1.259 . S
O23 Mg14 2.114 . S
O23 C26 1.252 . S
O24 Mg14 2.251 . S
O24 Mg17 2.079 . S
O24 C26 1.273 . S
C25 O21 1.246 . S
C25 O22 1.259 . S
C26 O23 1.252 . S
C26 O24 1.273 . S
O27 Mg14 2.010 . S
O27 C19 1.249 . S
Mg28 O29 2.028 . S
Mg28 O35 1.986 . S
Mg28 O37 2.114 . S
Mg28 O38 2.251 . S
Mg28 O41 2.010 . S
O29 Mg28 2.028 . S
O29 C32 1.250 . S
O30 Mg31 2.028 . S
O30 C32 1.248 . S
Mg31 O30 2.028 . S
Mg31 O36 2.032 . S
Mg31 O38 2.079 . S
C32 O29 1.250 . S
C32 O30 1.248 . S
C33 O34 1.264 . S
C33 O41 1.249 . S
O34 C33 1.264 . S
O35 Mg28 1.986 . S
O35 C39 1.246 . S
O36 Mg31 2.032 . S
O36 C39 1.259 . S
O37 Mg28 2.114 . S
O37 C40 1.252 . S
O38 Mg28 2.251 . S
O38 Mg31 2.079 . S
O38 C40 1.273 . S
C39 O35 1.246 . S
C39 O36 1.259 . S
C40 O37 1.252 . S
C40 O38 1.273 . S
O41 Mg28 2.010 . S
O41 C33 1.249 . S
Mg42 O43 2.028 . S
Mg42 O49 1.986 . S
Mg42 O51 2.114 . S
Mg42 O52 2.251 . S
Mg42 O55 2.010 . S
O43 Mg42 2.028 . S
O43 C46 1.250 . S
O44 Mg45 2.028 . S
O44 C46 1.248 . S
Mg45 O44 2.028 . S
Mg45 O50 2.032 . S
Mg45 O52 2.079 . S
C46 O43 1.250 . S
C46 O44 1.248 . S
C47 O48 1.264 . S
C47 O55 1.249 . S
O48 C47 1.264 . S
O49 Mg42 1.986 . S
O49 C53 1.246 . S
O50 Mg45 2.032 . S
O50 C53 1.259 . S
O51 Mg42 2.114 . S
O51 C54 1.252 . S
O52 Mg42 2.251 . S
O52 Mg45 2.079 . S
O52 C54 1.273 . S
C53 O49 1.246 . S
C53 O50 1.259 . S
C54 O51 1.252 . S
C54 O52 1.273 . S
O55 Mg42 2.010 . S
O55 C47 1.249 . S
Mg56 O57 2.028 . S
Mg56 O63 1.986 . S
Mg56 O65 2.114 . S
Mg56 O66 2.251 . S
Mg56 O69 2.010 . S
O57 Mg56 2.028 . S
O57 C60 1.250 . S
O58 Mg59 2.028 . S
O58 C60 1.248 . S
Mg59 O58 2.028 . S
Mg59 O64 2.032 . S
Mg59 O66 2.079 . S
C60 O57 1.250 . S
C60 O58 1.248 . S
C61 O62 1.264 . S
C61 O69 1.249 . S
O62 C61 1.264 . S
O63 Mg56 1.986 . S
O63 C67 1.246 . S
O64 Mg59 2.032 . S
O64 C67 1.259 . S
O65 Mg56 2.114 . S
O65 C68 1.252 . S
O66 Mg56 2.251 . S
O66 Mg59 2.079 . S
O66 C68 1.273 . S
C67 O63 1.246 . S
C67 O64 1.259 . S
C68 O65 1.252 . S
C68 O66 1.273 . S
O69 Mg56 2.010 . S
O69 C61 1.249 . S
Mg70 O71 2.028 . S
Mg70 O77 1.986 . S
Mg70 O79 2.114 . S
Mg70 O80 2.251 . S
Mg70 O83 2.010 . S
O71 Mg70 2.028 . S
O71 C74 1.250 . S
O72 Mg73 2.028 . S
O72 C74 1.248 . S
Mg73 O72 2.028 . S
Mg73 O78 2.032 . S
Mg73 O80 2.079 . S
C74 O71 1.250 . S
C74 O72 1.248 . S
C75 O76 1.264 . S
C75 O83 1.249 . S
O76 C75 1.264 . S
O77 Mg70 1.986 . S
O77 C81 1.246 . S
O78 Mg73 2.032 . S
O78 C81 1.259 . S
O79 Mg70 2.114 . S
O79 C82 1.252 . S
O80 Mg70 2.251 . S
O80 Mg73 2.079 . S
O80 C82 1.273 . S
C81 O77 1.246 . S
C81 O78 1.259 . S
C82 O79 1.252 . S
C82 O80 1.273 . S
O83 Mg70 2.010 . S
O83 C75 1.249 . S
Mg84 O85 2.028 . S
Mg84 O91 1.986 . S
Mg84 O93 2.114 . S
Mg84 O94 2.251 . S
Mg84 O97 2.010 . S
O85 Mg84 2.028 . S
O85 C88 1.250 . S
O86 Mg87 2.028 . S
O86 C88 1.248 . S
Mg87 O86 2.028 . S
Mg87 O92 2.032 . S
Mg87 O94 2.079 . S
C88 O85 1.250 . S
C88 O86 1.248 . S
C89 O90 1.264 . S
C89 O97 1.249 . S
O90 C89 1.264 . S
O91 Mg84 1.986 . S
O91 C95 1.246 . S
O92 Mg87 2.032 . S
O92 C95 1.259 . S
O93 Mg84 2.114 . S
O93 C96 1.252 . S
O94 Mg84 2.251 . S
O94 Mg87 2.079 . S
O94 C96 1.273 . S
C95 O91 1.246 . S
C95 O92 1.259 . S
C96 O93 1.252 . S
C96 O94 1.273 . S
O97 Mg84 2.010 . S
O97 C89 1.249 . S
Mg98 O99 2.028 . S
Mg98 O105 1.986 . S
Mg98 O107 2.114 . S
Mg98 O108 2.251 . S
Mg98 O111 2.010 . S
O99 Mg98 2.028 . S
O99 C102 1.250 . S
O100 Mg101 2.028 . S
O100 C102 1.248 . S
Mg101 O100 2.028 . S
Mg101 O106 2.032 . S
Mg101 O108 2.079 . S
C102 O99 1.250 . S
C102 O100 1.248 . S
C103 O104 1.264 . S
C103 O111 1.249 . S
O104 C103 1.264 . S
O105 Mg98 1.986 . S
O105 C109 1.246 . S
O106 Mg101 2.032 . S
O106 C109 1.259 . S
O107 Mg98 2.114 . S
O107 C110 1.252 . S
O108 Mg98 2.251 . S
O108 Mg101 2.079 . S
O108 C110 1.273 . S
C109 O105 1.246 . S
C109 O106 1.259 . S
C110 O107 1.252 . S
C110 O108 1.273 . S
O111 Mg98 2.010 . S
O111 C103 1.249 . S
Mg112 O113 2.028 . S
Mg112 O119 1.986 . S
Mg112 O121 2.114 . S
Mg112 O122 2.251 . S
Mg112 O125 2.010 . S
O113 Mg112 2.028 . S
O113 C116 1.250 . S
O114 Mg115 2.028 . S
O114 C116 1.248 . S
Mg115 O114 2.028 . S
Mg115 O120 2.032 . S
Mg115 O122 2.079 . S
C116 O113 1.250 . S
C116 O114 1.248 . S
C117 O118 1.264 . S
C117 O125 1.249 . S
O118 C117 1.264 . S
O119 Mg112 1.986 . S
O119 C123 1.246 . S
O120 Mg115 2.032 . S
O120 C123 1.259 . S
O121 Mg112 2.114 . S
O121 C124 1.252 . S
O122 Mg112 2.251 . S
O122 Mg115 2.079 . S
O122 C124 1.273 . S
C123 O119 1.246 . S
C123 O120 1.259 . S
C124 O121 1.252 . S
C124 O122 1.273 . S
O125 Mg112 2.010 . S
O125 C117 1.249 . S
Mg126 O127 2.028 . S
Mg126 O133 1.986 . S
Mg126 O135 2.114 . S
Mg126 O136 2.251 . S
Mg126 O139 2.010 . S
O127 Mg126 2.028 . S
O127 C130 1.250 . S
O128 Mg129 2.028 . S
O128 C130 1.248 . S
Mg129 O128 2.028 . S
Mg129 O134 2.032 . S
Mg129 O136 2.079 . S
C130 O127 1.250 . S
C130 O128 1.248 . S
C131 O132 1.252 1_545 S
C131 O139 1.249 . S
O132 C131 1.252 1_565 S
O133 Mg126 1.986 . S
O133 C137 1.246 . S
O134 Mg129 2.032 . S
O134 C137 1.259 . S
O135 Mg126 2.114 . S
O135 C138 1.252 . S
O136 Mg126 2.251 . S
O136 Mg129 2.079 . S
O136 C138 1.273 . S
C137 O133 1.246 . S
C137 O134 1.259 . S
C138 O135 1.252 . S
C138 O136 1.273 . S
O139 Mg126 2.010 . S
O139 C131 1.249 . S
Mg140 O141 2.028 . S
Mg140 O147 1.986 . S
Mg140 O149 2.114 . S
Mg140 O150 2.251 . S
Mg140 O153 2.010 . S
O141 Mg140 2.028 . S
O141 C144 1.250 . S
O142 Mg143 2.028 . S
O142 C144 1.248 . S
Mg143 O142 2.028 . S
Mg143 O148 2.032 . S
Mg143 O150 2.079 . S
C144 O141 1.250 . S
C144 O142 1.248 . S
C145 O146 1.264 . S
C145 O153 1.249 . S
O146 C145 1.264 . S
O147 Mg140 1.986 . S
O147 C151 1.246 . S
O148 Mg143 2.032 . S
O148 C151 1.259 . S
O149 Mg140 2.114 . S
O149 C152 1.252 . S
O150 Mg140 2.251 . S
O150 Mg143 2.079 . S
O150 C152 1.273 . S
C151 O147 1.246 . S
C151 O148 1.259 . S
C152 O149 1.252 . S
C152 O150 1.273 . S
O153 Mg140 2.010 . S
O153 C145 1.249 . S
Mg154 O155 2.028 . S
Mg154 O161 1.986 . S
Mg154 O163 2.114 . S
Mg154 O164 2.251 . S
Mg154 O167 2.010 . S
O155 Mg154 2.028 . S
O155 C158 1.250 . S
O156 Mg157 2.028 . S
O156 C158 1.248 . S
Mg157 O156 2.028 . S
Mg157 O162 2.032 . S
Mg157 O164 2.079 . S
C158 O155 1.250 . S
C158 O156 1.248 . S
C159 O160 1.264 1_565 S
C159 O167 1.249 . S
O160 C159 1.264 1_545 S
O161 Mg154 1.986 . S
O161 C165 1.246 . S
O162 Mg157 2.032 . S
O162 C165 1.259 . S
O163 Mg154 2.114 . S
O163 C166 1.252 . S
O164 Mg154 2.251 . S
O164 Mg157 2.079 . S
O164 C166 1.273 . S
C165 O161 1.246 . S
C165 O162 1.259 . S
C166 O163 1.252 . S
C166 O164 1.273 . S
O167 Mg154 2.010 . S
O167 C159 1.249 . S
Mg168 O169 2.028 . S
Mg168 O175 1.986 . S
Mg168 O177 2.114 . S
Mg168 O178 2.251 . S
Mg168 O181 2.010 . S
O169 Mg168 2.028 . S
O169 C172 1.250 . S
O170 Mg171 2.028 . S
O170 C172 1.248 . S
Mg171 O170 2.028 . S
Mg171 O176 2.032 . S
Mg171 O178 2.079 . S
C172 O169 1.250 . S
C172 O170 1.248 . S
C173 O174 1.264 . S
C173 O181 1.249 . S
O174 C173 1.264 . S
O175 Mg168 1.986 . S
O175 C179 1.246 . S
O176 Mg171 2.032 . S
O176 C179 1.259 . S
O177 Mg168 2.114 . S
O177 C180 1.252 . S
O178 Mg168 2.251 . S
O178 Mg171 2.079 . S
O178 C180 1.273 . S
C179 O175 1.246 . S
C179 O176 1.259 . S
C180 O177 1.252 . S
C180 O178 1.273 . S
O181 Mg168 2.010 . S
O181 C173 1.249 . S
Mg182 O183 2.028 . S
Mg182 O189 1.986 . S
Mg182 O191 2.114 . S
Mg182 O192 2.251 . S
Mg182 O195 2.010 . S
O183 Mg182 2.028 . S
O183 C186 1.250 . S
O184 Mg185 2.028 . S
O184 C186 1.248 . S
Mg185 O184 2.028 . S
Mg185 O190 2.032 . S
Mg185 O192 2.079 . S
C186 O183 1.250 . S
C186 O184 1.248 . S
C187 O188 1.264 . S
C187 O195 1.249 . S
O188 C187 1.264 . S
O189 Mg182 1.986 . S
O189 C193 1.246 . S
O190 Mg185 2.032 . S
O190 C193 1.259 . S
O191 Mg182 2.114 . S
O191 C194 1.252 . S
O192 Mg182 2.251 . S
O192 Mg185 2.079 . S
O192 C194 1.273 . S
C193 O189 1.246 . S
C193 O190 1.259 . S
C194 O191 1.252 . S
C194 O192 1.273 . S
O195 Mg182 2.010 . S
O195 C187 1.249 . S
Mg196 O197 2.028 . S
Mg196 O203 1.986 . S
Mg196 O205 2.114 . S
Mg196 O206 2.251 . S
Mg196 O209 2.010 . S
O197 Mg196 2.028 . S
O197 C200 1.250 . S
O198 Mg199 2.028 . S
O198 C200 1.248 . S
Mg199 O198 2.028 . S
Mg199 O204 2.032 . S
Mg199 O206 2.079 . S
C200 O197 1.250 . S
C200 O198 1.248 . S
C201 O202 1.264 . S
C201 O209 1.249 . S
O202 C201 1.264 . S
O203 Mg196 1.986 . S
O203 C207 1.246 . S
O204 Mg199 2.032 . S
O204 C207 1.259 . S
O205 Mg196 2.114 . S
O205 C208 1.252 . S
O206 Mg196 2.251 . S
O206 Mg199 2.079 . S
O206 C208 1.273 . S
C207 O203 1.246 . S
C207 O204 1.259 . S
C208 O205 1.252 . S
C208 O206 1.273 . S
O209 Mg196 2.010 . S
O209 C201 1.249 . S
Mg210 O211 2.028 . S
Mg210 O217 1.986 . S
Mg210 O219 2.114 . S
Mg210 O220 2.251 . S
Mg210 O223 2.010 . S
O211 Mg210 2.028 . S
O211 C214 1.250 . S
O212 Mg213 2.028 . S
O212 C214 1.248 . S
Mg213 O212 2.028 . S
Mg213 O218 2.032 . S
Mg213 O220 2.079 . S
C214 O211 1.250 . S
C214 O212 1.248 . S
C215 O216 1.264 . S
C215 O223 1.249 . S
O216 C215 1.264 . S
O217 Mg210 1.986 . S
O217 C221 1.246 . S
O218 Mg213 2.032 . S
O218 C221 1.259 . S
O219 Mg210 2.114 . S
O219 C222 1.252 . S
O220 Mg210 2.251 . S
O220 Mg213 2.079 . S
O220 C222 1.273 . S
C221 O217 1.246 . S
C221 O218 1.259 . S
C222 O219 1.252 . S
C222 O220 1.273 . S
O223 Mg210 2.010 . S
O223 C215 1.249 . S
C224 C225 1.363 . S
C224 C230 1.379 . S
C224 N232 1.356 . S
C225 C224 1.363 . S
C225 C231 1.363 . S
C226 C227 1.363 . S
C226 C231 1.379 . S
C226 N233 1.356 . S
C227 C226 1.363 . S
C227 C230 1.363 . S
N228 C230 1.356 . S
N228 H240 0.984 . S
N228 H241 0.985 . S
N229 C231 1.356 . S
N229 H234 0.984 . S
N229 H235 0.985 . S
C230 C224 1.379 . S
C230 C227 1.363 . S
C230 N228 1.356 . S
C231 C225 1.363 . S
C231 C226 1.379 . S
C231 N229 1.356 . S
N232 C224 1.356 . S
N232 H238 0.984 . S
N232 H239 0.984 . S
N233 C226 1.356 . S
N233 H236 0.984 . S
N233 H237 0.985 . S
H234 N229 0.984 . S
H235 N229 0.985 . S
H236 N233 0.984 . S
H237 N233 0.985 . S
H238 N232 0.984 . S
H239 N232 0.984 . S
H240 N228 0.984 . S
H241 N228 0.985 . S
C242 C243 1.363 . S
C242 C248 1.379 . S
C242 N250 1.356 . S
C243 C242 1.363 . S
C243 C249 1.363 . S
C244 C245 1.363 . S
C244 C249 1.379 . S
C244 N251 1.356 . S
C245 C244 1.363 . S
C245 C248 1.363 . S
N246 C248 1.356 . S
N246 H258 0.984 . S
N246 H259 0.985 . S
N247 C249 1.356 . S
N247 H252 0.984 . S
N247 H253 0.985 . S
C248 C242 1.379 . S
C248 C245 1.363 . S
C248 N246 1.356 . S
C249 C243 1.363 . S
C249 C244 1.379 . S
C249 N247 1.356 . S
N250 C242 1.356 . S
N250 H256 0.984 . S
N250 H257 0.984 . S
N251 C244 1.356 . S
N251 H254 0.984 . S
N251 H255 0.985 . S
H252 N247 0.984 . S
H253 N247 0.985 . S
H254 N251 0.984 . S
H255 N251 0.985 . S
H256 N250 0.984 . S
H257 N250 0.984 . S
H258 N246 0.984 . S
H259 N246 0.985 . S
C260 C261 1.363 . S
C260 C266 1.379 . S
C260 N268 1.356 . S
C261 C260 1.363 . S
C261 C267 1.363 . S
C262 C263 1.363 . S
C262 C267 1.379 . S
C262 N269 1.356 . S
C263 C262 1.363 . S
C263 C266 1.363 . S
N264 C266 1.356 . S
N264 H276 0.984 . S
N264 H277 0.985 . S
N265 C267 1.356 . S
N265 H270 0.984 . S
N265 H271 0.985 . S
C266 C260 1.379 . S
C266 C263 1.363 . S
C266 N264 1.356 . S
C267 C261 1.363 . S
C267 C262 1.379 . S
C267 N265 1.356 . S
N268 C260 1.356 . S
N268 H274 0.984 . S
N268 H275 0.984 . S
N269 C262 1.356 . S
N269 H272 0.984 . S
N269 H273 0.985 . S
H270 N265 0.984 . S
H271 N265 0.985 . S
H272 N269 0.984 . S
H273 N269 0.985 . S
H274 N268 0.984 . S
H275 N268 0.984 . S
H276 N264 0.984 . S
H277 N264 0.985 . S
C278 C279 1.363 . S
C278 C284 1.379 1_455 S
C278 N286 1.356 . S
C279 C278 1.363 . S
C279 C285 1.363 . S
C280 C281 1.363 . S
C280 C285 1.379 1_655 S
C280 N287 1.356 . S
C281 C280 1.363 . S
C281 C284 1.363 . S
N282 C284 1.356 . S
N282 H294 0.984 . S
N282 H295 0.985 . S
N283 C285 1.356 . S
N283 H288 0.984 . S
N283 H289 0.985 . S
C284 C278 1.379 1_655 S
C284 C281 1.363 . S
C284 N282 1.356 . S
C285 C279 1.363 . S
C285 C280 1.379 1_455 S
C285 N283 1.356 . S
N286 C278 1.356 . S
N286 H292 0.984 . S
N286 H293 0.984 . S
N287 C280 1.356 . S
N287 H290 0.984 . S
N287 H291 0.985 . S
H288 N283 0.984 . S
H289 N283 0.985 . S
H290 N287 0.984 . S
H291 N287 0.985 . S
H292 N286 0.984 . S
H293 N286 0.984 . S
H294 N282 0.984 . S
H295 N282 0.985 . S
C296 C297 1.363 . S
C296 C302 1.379 . S
C296 N304 1.356 . S
C297 C296 1.363 . S
C297 C303 1.363 . S
C298 C299 1.363 . S
C298 C303 1.379 . S
C298 N305 1.356 . S
C299 C298 1.363 . S
C299 C302 1.363 . S
N300 C302 1.356 . S
N300 H312 0.984 . S
N300 H313 0.985 . S
N301 C303 1.356 . S
N301 H306 0.984 . S
N301 H307 0.985 . S
C302 C296 1.379 . S
C302 C299 1.363 . S
C302 N300 1.356 . S
C303 C297 1.363 . S
C303 C298 1.379 . S
C303 N301 1.356 . S
N304 C296 1.356 . S
N304 H310 0.984 . S
N304 H311 0.984 . S
N305 C298 1.356 . S
N305 H308 0.984 . S
N305 H309 0.985 . S
H306 N301 0.984 . S
H307 N301 0.985 . S
H308 N305 0.984 . S
H309 N305 0.985 . S
H310 N304 0.984 . S
H311 N304 0.984 . S
H312 N300 0.984 . S
H313 N300 0.985 . S
C314 C315 1.363 . S
C314 C320 1.379 . S
C314 N322 1.356 . S
C315 C314 1.363 . S
C315 C321 1.363 . S
C316 C317 1.363 . S
C316 C321 1.379 1_455 S
C316 N323 1.356 . S
C317 C316 1.363 . S
C317 C320 1.363 1_455 S
N318 C320 1.356 1_455 S
N318 H330 0.984 . S
N318 H331 0.985 . S
N319 C321 1.356 . S
N319 H324 0.984 . S
N319 H325 0.985 . S
C320 C314 1.379 . S
C320 C317 1.363 1_655 S
C320 N318 1.356 1_655 S
C321 C315 1.363 . S
C321 C316 1.379 1_655 S
C321 N319 1.356 . S
N322 C314 1.356 . S
N322 H328 0.984 . S
N322 H329 0.984 . S
N323 C316 1.356 . S
N323 H326 0.984 . S
N323 H327 0.985 . S
H324 N319 0.984 . S
H325 N319 0.985 . S
H326 N323 0.984 . S
H327 N323 0.985 . S
H328 N322 0.984 . S
H329 N322 0.984 . S
H330 N318 0.984 . S
H331 N318 0.985 . S
C332 C333 1.363 . S
C332 C338 1.379 . S
C332 N340 1.356 . S
C333 C332 1.363 . S
C333 C339 1.363 . S
C334 C335 1.363 . S
C334 C339 1.379 . S
C334 N341 1.356 . S
C335 C334 1.363 . S
C335 C338 1.363 . S
N336 C338 1.356 . S
N336 H348 0.984 . S
N336 H349 0.985 . S
N337 C339 1.356 . S
N337 H342 0.984 . S
N337 H343 0.985 . S
C338 C332 1.379 . S
C338 C335 1.363 . S
C338 N336 1.356 . S
C339 C333 1.363 . S
C339 C334 1.379 . S
C339 N337 1.356 . S
N340 C332 1.356 . S
N340 H346 0.984 . S
N340 H347 0.984 . S
N341 C334 1.356 . S
N341 H344 0.984 . S
N341 H345 0.985 . S
H342 N337 0.984 . S
H343 N337 0.985 . S
H344 N341 0.984 . S
H345 N341 0.985 . S
H346 N340 0.984 . S
H347 N340 0.984 . S
H348 N336 0.984 . S
H349 N336 0.985 . S
C350 C351 1.363 . S
C350 C356 1.379 . S
C350 N358 1.356 . S
C351 C350 1.363 . S
C351 C357 1.363 . S
C352 C353 1.363 . S
C352 C357 1.379 . S
C352 N359 1.356 . S
C353 C352 1.363 . S
C353 C356 1.363 . S
N354 C356 1.356 . S
N354 H366 0.984 . S
N354 H367 0.985 . S
N355 C357 1.356 . S
N355 H360 0.984 . S
N355 H361 0.985 . S
C356 C350 1.379 . S
C356 C353 1.363 . S
C356 N354 1.356 . S
C357 C351 1.363 . S
C357 C352 1.379 . S
C357 N355 1.356 . S
N358 C350 1.356 . S
N358 H364 0.984 . S
N358 H365 0.984 . S
N359 C352 1.356 . S
N359 H362 0.984 . S
N359 H363 0.985 . S
H360 N355 0.984 . S
H361 N355 0.985 . S
H362 N359 0.984 . S
H363 N359 0.985 . S
H364 N358 0.984 . S
H365 N358 0.984 . S
H366 N354 0.984 . S
H367 N354 0.985 . S
C368 C369 1.363 . S
C368 C374 1.379 . S
C368 N376 1.356 . S
C369 C368 1.363 . S
C369 C375 1.363 . S
C370 C371 1.363 . S
C370 C375 1.379 . S
C370 N377 1.356 . S
C371 C370 1.363 . S
C371 C374 1.363 . S
N372 C374 1.356 . S
N372 H384 0.984 . S
N372 H385 0.985 . S
N373 C375 1.356 . S
N373 H378 0.984 . S
N373 H379 0.985 . S
C374 C368 1.379 . S
C374 C371 1.363 . S
C374 N372 1.356 . S
C375 C369 1.363 . S
C375 C370 1.379 . S
C375 N373 1.356 . S
N376 C368 1.356 . S
N376 H382 0.984 . S
N376 H383 0.984 . S
N377 C370 1.356 . S
N377 H380 0.984 . S
N377 H381 0.985 . S
H378 N373 0.984 . S
H379 N373 0.985 . S
H380 N377 0.984 . S
H381 N377 0.985 . S
H382 N376 0.984 . S
H383 N376 0.984 . S
H384 N372 0.984 . S
H385 N372 0.985 . S
C386 C387 1.363 . S
C386 C392 1.379 . S
C386 N394 1.356 . S
C387 C386 1.363 . S
C387 C393 1.363 . S
C388 C389 1.363 . S
C388 C393 1.379 . S
C388 N395 1.356 . S
C389 C388 1.363 . S
C389 C392 1.363 . S
N390 C392 1.356 . S
N390 H402 0.984 . S
N390 H403 0.985 . S
N391 C393 1.356 . S
N391 H396 0.984 . S
N391 H397 0.985 . S
C392 C386 1.379 . S
C392 C389 1.363 . S
C392 N390 1.356 . S
C393 C387 1.363 . S
C393 C388 1.379 . S
C393 N391 1.356 . S
N394 C386 1.356 . S
N394 H400 0.984 . S
N394 H401 0.984 . S
N395 C388 1.356 . S
N395 H398 0.984 . S
N395 H399 0.985 . S
H396 N391 0.984 . S
H397 N391 0.985 . S
H398 N395 0.984 . S
H399 N395 0.985 . S
H400 N394 0.984 . S
H401 N394 0.984 . S
H402 N390 0.984 . S
H403 N390 0.985 . S
C404 C405 1.363 . S
C404 C410 1.379 . S
C404 N412 1.356 . S
C405 C404 1.363 . S
C405 C411 1.363 . S
C406 C407 1.363 . S
C406 C411 1.379 . S
C406 N413 1.356 . S
C407 C406 1.363 . S
C407 C410 1.363 . S
N408 C410 1.356 . S
N408 H420 0.984 . S
N408 H421 0.985 . S
N409 C411 1.356 . S
N409 H414 0.984 . S
N409 H415 0.985 . S
C410 C404 1.379 . S
C410 C407 1.363 . S
C410 N408 1.356 . S
C411 C405 1.363 . S
C411 C406 1.379 . S
C411 N409 1.356 . S
N412 C404 1.356 . S
N412 H418 0.984 . S
N412 H419 0.984 . S
N413 C406 1.356 . S
N413 H416 0.984 . S
N413 H417 0.985 . S
H414 N409 0.984 . S
H415 N409 0.985 . S
H416 N413 0.984 . S
H417 N413 0.985 . S
H418 N412 0.984 . S
H419 N412 0.984 . S
H420 N408 0.984 . S
H421 N408 0.985 . S
C422 C423 1.363 . S
C422 C428 1.379 . S
C422 N430 1.356 . S
C423 C422 1.363 . S
C423 C429 1.363 . S
C424 C425 1.363 . S
C424 C429 1.379 . S
C424 N431 1.356 . S
C425 C424 1.363 . S
C425 C428 1.363 . S
N426 C428 1.356 . S
N426 H438 0.984 . S
N426 H439 0.985 . S
N427 C429 1.356 . S
N427 H432 0.984 . S
N427 H433 0.985 . S
C428 C422 1.379 . S
C428 C425 1.363 . S
C428 N426 1.356 . S
C429 C423 1.363 . S
C429 C424 1.379 . S
C429 N427 1.356 . S
N430 C422 1.356 . S
N430 H436 0.984 . S
N430 H437 0.984 . S
N431 C424 1.356 . S
N431 H434 0.984 . S
N431 H435 0.985 . S
H432 N427 0.984 . S
H433 N427 0.985 . S
H434 N431 0.984 . S
H435 N431 0.985 . S
H436 N430 0.984 . S
H437 N430 0.984 . S
H438 N426 0.984 . S
H439 N426 0.985 . S
C440 C441 1.363 . S
C440 C446 1.379 1_455 S
C440 N448 1.356 . S
C441 C440 1.363 . S
C441 C447 1.363 . S
C442 C443 1.363 . S
C442 C447 1.379 1_655 S
C442 N449 1.356 . S
C443 C442 1.363 . S
C443 C446 1.363 . S
N444 C446 1.356 . S
N444 H456 0.984 . S
N444 H457 0.985 . S
N445 C447 1.356 . S
N445 H450 0.984 . S
N445 H451 0.985 . S
C446 C440 1.379 1_655 S
C446 C443 1.363 . S
C446 N444 1.356 . S
C447 C441 1.363 . S
C447 C442 1.379 1_455 S
C447 N445 1.356 . S
N448 C440 1.356 . S
N448 H454 0.984 . S
N448 H455 0.984 . S
N449 C442 1.356 . S
N449 H452 0.984 . S
N449 H453 0.985 . S
H450 N445 0.984 . S
H451 N445 0.985 . S
H452 N449 0.984 . S
H453 N449 0.985 . S
H454 N448 0.984 . S
H455 N448 0.984 . S
H456 N444 0.984 . S
H457 N444 0.985 . S
C458 C459 1.363 . S
C458 C464 1.379 . S
C458 N466 1.356 . S
C459 C458 1.363 . S
C459 C465 1.363 . S
C460 C461 1.363 . S
C460 C465 1.379 . S
C460 N467 1.356 . S
C461 C460 1.363 . S
C461 C464 1.363 . S
N462 C464 1.356 . S
N462 H474 0.984 . S
N462 H475 0.985 . S
N463 C465 1.356 . S
N463 H468 0.984 . S
N463 H469 0.985 . S
C464 C458 1.379 . S
C464 C461 1.363 . S
C464 N462 1.356 . S
C465 C459 1.363 . S
C465 C460 1.379 . S
C465 N463 1.356 . S
N466 C458 1.356 . S
N466 H472 0.984 . S
N466 H473 0.984 . S
N467 C460 1.356 . S
N467 H470 0.984 . S
N467 H471 0.985 . S
H468 N463 0.984 . S
H469 N463 0.985 . S
H470 N467 0.984 . S
H471 N467 0.985 . S
H472 N466 0.984 . S
H473 N466 0.984 . S
H474 N462 0.984 . S
H475 N462 0.985 . S
C476 C477 1.363 . S
C476 C482 1.379 . S
C476 N484 1.356 . S
C477 C476 1.363 . S
C477 C483 1.363 . S
C478 C479 1.363 . S
C478 C483 1.379 . S
C478 N485 1.356 . S
C479 C478 1.363 . S
C479 C482 1.363 . S
N480 C482 1.356 . S
N480 H492 0.984 . S
N480 H493 0.985 . S
N481 C483 1.356 . S
N481 H486 0.984 . S
N481 H487 0.985 . S
C482 C476 1.379 . S
C482 C479 1.363 . S
C482 N480 1.356 . S
C483 C477 1.363 . S
C483 C478 1.379 . S
C483 N481 1.356 . S
N484 C476 1.356 . S
N484 H490 0.984 . S
N484 H491 0.984 . S
N485 C478 1.356 . S
N485 H488 0.984 . S
N485 H489 0.985 . S
H486 N481 0.984 . S
H487 N481 0.985 . S
H488 N485 0.984 . S
H489 N485 0.985 . S
H490 N484 0.984 . S
H491 N484 0.984 . S
H492 N480 0.984 . S
H493 N480 0.985 . S
C494 C495 1.363 . S
C494 C500 1.379 1_455 S
C494 N502 1.356 . S
C495 C494 1.363 . S
C495 C501 1.363 . S
C496 C497 1.363 . S
C496 C501 1.379 1_655 S
C496 N503 1.356 . S
C497 C496 1.363 . S
C497 C500 1.363 . S
N498 C500 1.356 . S
N498 H510 0.984 . S
N498 H511 0.985 . S
N499 C501 1.356 . S
N499 H504 0.984 . S
N499 H505 0.985 . S
C500 C494 1.379 1_655 S
C500 C497 1.363 . S
C500 N498 1.356 . S
C501 C495 1.363 . S
C501 C496 1.379 1_455 S
C501 N499 1.356 . S
N502 C494 1.356 . S
N502 H508 0.984 . S
N502 H509 0.984 . S
N503 C496 1.356 . S
N503 H506 0.984 . S
N503 H507 0.985 . S
H504 N499 0.984 . S
H505 N499 0.985 . S
H506 N503 0.984 . S
H507 N503 0.985 . S
H508 N502 0.984 . S
H509 N502 0.984 . S
H510 N498 0.984 . S
H511 N498 0.985 . S
C512 C513 1.363 1_556 S
C512 C518 1.379 . S
C512 N520 1.356 1_556 S
C513 C512 1.363 1_554 S
C513 C519 1.363 . S
C514 C515 1.363 . S
C514 C519 1.379 1_556 S
C514 N521 1.356 . S
C515 C514 1.363 . S
C515 C518 1.363 . S
N516 C518 1.356 . S
N516 H528 0.984 . S
N516 H529 0.985 . S
N517 C519 1.356 . S
N517 H522 0.984 . S
N517 H523 0.985 . S
C518 C512 1.379 . S
C518 C515 1.363 . S
C518 N516 1.356 . S
C519 C513 1.363 . S
C519 C514 1.379 1_554 S
C519 N517 1.356 . S
N520 C512 1.356 1_554 S
N520 H526 0.984 1_554 S
N520 H527 0.984 . S
N521 C514 1.356 . S
N521 H524 0.984 . S
N521 H525 0.985 1_556 S
H522 N517 0.984 . S
H523 N517 0.985 . S
H524 N521 0.984 . S
H525 N521 0.985 1_554 S
H526 N520 0.984 1_556 S
H527 N520 0.984 . S
H528 N516 0.984 . S
H529 N516 0.985 . S
C530 C531 1.363 . S
C530 C536 1.379 . S
C530 N538 1.356 . S
C531 C530 1.363 . S
C531 C537 1.363 . S
C532 C533 1.363 . S
C532 C537 1.379 . S
C532 N539 1.356 . S
C533 C532 1.363 . S
C533 C536 1.363 . S
N534 C536 1.356 . S
N534 H546 0.984 1_565 S
N534 H547 0.985 . S
N535 C537 1.356 . S
N535 H540 0.984 . S
N535 H541 0.985 . S
C536 C530 1.379 . S
C536 C533 1.363 . S
C536 N534 1.356 . S
C537 C531 1.363 . S
C537 C532 1.379 . S
C537 N535 1.356 . S
N538 C530 1.356 . S
N538 H544 0.984 1_565 S
N538 H545 0.984 . S
N539 C532 1.356 . S
N539 H542 0.984 . S
N539 H543 0.985 . S
H540 N535 0.984 . S
H541 N535 0.985 . S
H542 N539 0.984 . S
H543 N539 0.985 . S
H544 N538 0.984 1_545 S
H545 N538 0.984 . S
H546 N534 0.984 1_545 S
H547 N534 0.985 . S
C548 C549 1.363 . S
C548 C554 1.379 . S
C548 N556 1.356 . S
C549 C548 1.363 . S
C549 C555 1.363 . S
C550 C551 1.363 . S
C550 C555 1.379 . S
C550 N557 1.356 . S
C551 C550 1.363 . S
C551 C554 1.363 . S
N552 C554 1.356 . S
N552 H564 0.984 . S
N552 H565 0.985 . S
N553 C555 1.356 . S
N553 H558 0.984 . S
N553 H559 0.985 . S
C554 C548 1.379 . S
C554 C551 1.363 . S
C554 N552 1.356 . S
C555 C549 1.363 . S
C555 C550 1.379 . S
C555 N553 1.356 . S
N556 C548 1.356 . S
N556 H562 0.984 . S
N556 H563 0.984 . S
N557 C550 1.356 . S
N557 H560 0.984 . S
N557 H561 0.985 . S
H558 N553 0.984 . S
H559 N553 0.985 . S
H560 N557 0.984 . S
H561 N557 0.985 . S
H562 N556 0.984 . S
H563 N556 0.984 . S
H564 N552 0.984 . S
H565 N552 0.985 . S
C566 C567 1.363 . S
C566 C572 1.379 . S
C566 N574 1.356 . S
C567 C566 1.363 . S
C567 C573 1.363 . S
C568 C569 1.363 . S
C568 C573 1.379 . S
C568 N575 1.356 . S
C569 C568 1.363 . S
C569 C572 1.363 . S
N570 C572 1.356 . S
N570 H582 0.984 . S
N570 H583 0.985 . S
N571 C573 1.356 . S
N571 H576 0.984 . S
N571 H577 0.985 1_545 S
C572 C566 1.379 . S
C572 C569 1.363 . S
C572 N570 1.356 . S
C573 C567 1.363 . S
C573 C568 1.379 . S
C573 N571 1.356 . S
N574 C566 1.356 . S
N574 H580 0.984 . S
N574 H581 0.984 . S
N575 C568 1.356 . S
N575 H578 0.984 . S
N575 H579 0.985 1_545 S
H576 N571 0.984 . S
H577 N571 0.985 1_565 S
H578 N575 0.984 . S
H579 N575 0.985 1_565 S
H580 N574 0.984 . S
H581 N574 0.984 . S
H582 N570 0.984 . S
H583 N570 0.985 . S
C584 C585 1.363 . S
C584 C590 1.379 1_556 S
C584 N592 1.356 . S
C585 C584 1.363 . S
C585 C591 1.363 . S
C586 C587 1.363 . S
C586 C591 1.379 1_554 S
C586 N593 1.356 . S
C587 C586 1.363 . S
C587 C590 1.363 . S
N588 C590 1.356 . S
N588 H600 0.984 . S
N588 H601 0.985 . S
N589 C591 1.356 . S
N589 H594 0.984 . S
N589 H595 0.985 . S
C590 C584 1.379 1_554 S
C590 C587 1.363 . S
C590 N588 1.356 . S
C591 C585 1.363 . S
C591 C586 1.379 1_556 S
C591 N589 1.356 . S
N592 C584 1.356 . S
N592 H598 0.984 . S
N592 H599 0.984 . S
N593 C586 1.356 . S
N593 H596 0.984 . S
N593 H597 0.985 . S
H594 N589 0.984 . S
H595 N589 0.985 . S
H596 N593 0.984 . S
H597 N593 0.985 . S
H598 N592 0.984 . S
H599 N592 0.984 . S
H600 N588 0.984 . S
H601 N588 0.985 . S
C602 C603 1.363 . S
C602 C608 1.379 . S
C602 N610 1.356 . S
C603 C602 1.363 . S
C603 C609 1.363 . S
C604 C605 1.363 . S
C604 C609 1.379 . S
C604 N611 1.356 1_545 S
C605 C604 1.363 . S
C605 C608 1.363 . S
N606 C608 1.356 . S
N606 H618 0.984 . S
N606 H619 0.985 . S
N607 C609 1.359 . S
N607 H612 0.986 . S
N607 H613 0.980 1_545 S
C608 C602 1.379 . S
C608 C605 1.363 . S
C608 N606 1.356 . S
C609 C603 1.363 . S
C609 C604 1.379 . S
C609 N607 1.359 . S
N610 C602 1.356 . S
N610 H616 0.984 . S
N610 H617 0.984 . S
N611 C604 1.356 1_565 S
N611 H614 0.984 1_565 S
N611 H615 0.985 . S
H612 N607 0.986 . S
H613 N607 0.980 1_565 S
H614 N611 0.984 1_545 S
H615 N611 0.985 . S
H616 N610 0.984 . S
H617 N610 0.984 . S
H618 N606 0.984 . S
H619 N606 0.985 . S
C620 C621 1.363 . S
C620 C626 1.379 . S
C620 N628 1.356 . S
C621 C620 1.363 . S
C621 C627 1.363 . S
C622 C623 1.363 . S
C622 C627 1.379 . S
C622 N629 1.356 . S
C623 C622 1.363 . S
C623 C626 1.363 . S
N624 C626 1.356 . S
N624 H636 0.984 . S
N624 H637 0.985 . S
N625 C627 1.356 . S
N625 H630 0.984 . S
N625 H631 0.985 . S
C626 C620 1.379 . S
C626 C623 1.363 . S
C626 N624 1.356 . S
C627 C621 1.363 . S
C627 C622 1.379 . S
C627 N625 1.356 . S
N628 C620 1.356 . S
N628 H634 0.984 . S
N628 H635 0.984 . S
N629 C622 1.356 . S
N629 H632 0.984 . S
N629 H633 0.985 . S
H630 N625 0.984 . S
H631 N625 0.985 . S
H632 N629 0.984 . S
H633 N629 0.985 . S
H634 N628 0.984 . S
H635 N628 0.984 . S
H636 N624 0.984 . S
H637 N624 0.985 . S
C638 C639 1.363 . S
C638 C644 1.379 . S
C638 N646 1.356 . S
C639 C638 1.363 . S
C639 C645 1.363 . S
C640 C641 1.363 . S
C640 C645 1.379 . S
C640 N647 1.356 . S
C641 C640 1.363 . S
C641 C644 1.363 . S
N642 C644 1.356 . S
N642 H654 0.984 1_565 S
N642 H655 0.985 . S
N643 C645 1.356 . S
N643 H648 0.984 . S
N643 H649 0.985 . S
C644 C638 1.379 . S
C644 C641 1.363 . S
C644 N642 1.356 . S
C645 C639 1.363 . S
C645 C640 1.379 . S
C645 N643 1.356 . S
N646 C638 1.356 . S
N646 H652 0.984 1_565 S
N646 H653 0.984 . S
N647 C640 1.356 . S
N647 H650 0.984 . S
N647 H651 0.985 . S
H648 N643 0.984 . S
H649 N643 0.985 . S
H650 N647 0.984 . S
H651 N647 0.985 . S
H652 N646 0.984 1_545 S
H653 N646 0.984 . S
H654 N642 0.984 1_545 S
H655 N642 0.985 . S
C656 C657 1.363 . S
C656 C662 1.379 . S
C656 N664 1.356 . S
C657 C656 1.363 . S
C657 C663 1.363 1_545 S
C658 C659 1.363 . S
C658 C663 1.379 . S
C658 N665 1.356 . S
C659 C658 1.363 . S
C659 C662 1.363 1_565 S
N660 C662 1.356 . S
N660 H672 0.984 . S
N660 H673 0.985 1_545 S
N661 C663 1.356 . S
N661 H666 0.984 1_565 S
N661 H667 0.985 . S
C662 C656 1.379 . S
C662 C659 1.363 1_545 S
C662 N660 1.356 . S
C663 C657 1.363 1_565 S
C663 C658 1.379 . S
C663 N661 1.356 . S
N664 C656 1.356 . S
N664 H670 0.984 . S
N664 H671 0.984 . S
N665 C658 1.356 . S
N665 H668 0.984 . S
N665 H669 0.985 . S
H666 N661 0.984 1_545 S
H667 N661 0.985 . S
H668 N665 0.984 . S
H669 N665 0.985 . S
H670 N664 0.984 . S
H671 N664 0.984 . S
H672 N660 0.984 . S
H673 N660 0.985 1_565 S
C674 C675 1.363 . S
C674 C680 1.379 . S
C674 N682 1.356 . S
C675 C674 1.363 . S
C675 C681 1.363 . S
C676 C677 1.363 . S
C676 C681 1.379 . S
C676 N683 1.356 . S
C677 C676 1.363 . S
C677 C680 1.363 . S
N678 C680 1.356 . S
N678 H690 0.984 . S
N678 H691 0.985 . S
N679 C681 1.356 . S
N679 H684 0.984 . S
N679 H685 0.985 . S
C680 C674 1.379 . S
C680 C677 1.363 . S
C680 N678 1.356 . S
C681 C675 1.363 . S
C681 C676 1.379 . S
C681 N679 1.356 . S
N682 C674 1.356 . S
N682 H688 0.984 . S
N682 H689 0.984 . S
N683 C676 1.356 . S
N683 H686 0.984 . S
N683 H687 0.985 . S
H684 N679 0.984 . S
H685 N679 0.985 . S
H686 N683 0.984 . S
H687 N683 0.985 . S
H688 N682 0.984 . S
H689 N682 0.984 . S
H690 N678 0.984 . S
H691 N678 0.985 . S
C692 C693 1.363 . S
C692 C698 1.379 1_556 S
C692 N700 1.356 . S
C693 C692 1.363 . S
C693 C699 1.363 1_545 S
C694 C695 1.363 . S
C694 C699 1.379 1_554 S
C694 N701 1.356 . S
C695 C694 1.363 . S
C695 C698 1.363 1_565 S
N696 C698 1.356 . S
N696 H708 0.984 . S
N696 H709 0.985 1_545 S
N697 C699 1.356 . S
N697 H702 0.984 1_565 S
N697 H703 0.985 . S
C698 C692 1.379 1_554 S
C698 C695 1.363 1_545 S
C698 N696 1.356 . S
C699 C693 1.363 1_565 S
C699 C694 1.379 1_556 S
C699 N697 1.356 . S
N700 C692 1.356 . S
N700 H706 0.984 . S
N700 H707 0.984 . S
N701 C694 1.356 . S
N701 H704 0.984 . S
N701 H705 0.985 . S
H702 N697 0.984 1_545 S
H703 N697 0.985 . S
H704 N701 0.984 . S
H705 N701 0.985 . S
H706 N700 0.984 . S
H707 N700 0.984 . S
H708 N696 0.984 . S
H709 N696 0.985 1_565 S
C710 C711 1.363 . S
C710 C716 1.379 . S
C710 N718 1.356 . S
C711 C710 1.363 . S
C711 C717 1.363 . S
C712 C713 1.363 . S
C712 C717 1.379 . S
C712 N719 1.356 . S
C713 C712 1.363 . S
C713 C716 1.363 . S
N714 C716 1.356 . S
N714 H726 0.984 . S
N714 H727 0.985 . S
N715 C717 1.356 . S
N715 H720 0.984 . S
N715 H721 0.985 . S
C716 C710 1.379 . S
C716 C713 1.363 . S
C716 N714 1.356 . S
C717 C711 1.363 . S
C717 C712 1.379 . S
C717 N715 1.356 . S
N718 C710 1.356 . S
N718 H724 0.984 . S
N718 H725 0.984 . S
N719 C712 1.356 . S
N719 H722 0.984 . S
N719 H723 0.985 . S
H720 N715 0.984 . S
H721 N715 0.985 . S
H722 N719 0.984 . S
H723 N719 0.985 . S
H724 N718 0.984 . S
H725 N718 0.984 . S
H726 N714 0.984 . S
H727 N714 0.985 . S
C728 C729 1.363 . S
C728 C734 1.379 1_545 S
C728 N736 1.356 . S
C729 C728 1.363 . S
C729 C735 1.363 1_545 S
C730 C731 1.363 . S
C730 C735 1.379 . S
C730 N737 1.356 . S
C731 C730 1.363 . S
C731 C734 1.363 . S
N732 C734 1.356 . S
N732 H744 0.984 . S
N732 H745 0.985 . S
N733 C735 1.356 1_545 S
N733 H738 0.984 . S
N733 H739 0.985 . S
C734 C728 1.379 1_565 S
C734 C731 1.363 . S
C734 N732 1.356 . S
C735 C729 1.363 1_565 S
C735 C730 1.379 . S
C735 N733 1.356 1_565 S
N736 C728 1.356 . S
N736 H742 0.984 . S
N736 H743 0.984 . S
N737 C730 1.356 . S
N737 H740 0.984 . S
N737 H741 0.985 . S
H738 N733 0.984 . S
H739 N733 0.985 . S
H740 N737 0.984 . S
H741 N737 0.985 . S
H742 N736 0.984 . S
H743 N736 0.984 . S
H744 N732 0.984 . S
H745 N732 0.985 . S
C746 C747 1.363 . S
C746 C752 1.379 . S
C746 N754 1.356 . S
C747 C746 1.363 . S
C747 C753 1.363 . S
C748 C749 1.363 . S
C748 C753 1.379 . S
C748 N755 1.356 . S
C749 C748 1.363 . S
C749 C752 1.363 . S
N750 C752 1.356 . S
N750 H762 0.984 . S
N750 H763 0.985 . S
N751 C753 1.356 . S
N751 H756 0.984 . S
N751 H757 0.985 . S
C752 C746 1.379 . S
C752 C749 1.363 . S
C752 N750 1.356 . S
C753 C747 1.363 . S
C753 C748 1.379 . S
C753 N751 1.356 . S
N754 C746 1.356 . S
N754 H760 0.984 . S
N754 H761 0.984 . S
N755 C748 1.356 . S
N755 H758 0.984 . S
N755 H759 0.985 . S
H756 N751 0.984 . S
H757 N751 0.985 . S
H758 N755 0.984 . S
H759 N755 0.985 . S
H760 N754 0.984 . S
H761 N754 0.984 . S
H762 N750 0.984 . S
H763 N750 0.985 . S
C764 C765 1.363 1_545 S
C764 C770 1.379 1_554 S
C764 N772 1.356 . S
C765 C764 1.363 1_565 S
C765 C771 1.363 . S
C766 C767 1.363 1_565 S
C766 C771 1.379 1_556 S
C766 N773 1.356 . S
C767 C766 1.363 1_545 S
C767 C770 1.363 . S
N768 C770 1.356 . S
N768 H780 0.984 . S
N768 H781 0.985 . S
N769 C771 1.356 . S
N769 H774 0.984 . S
N769 H775 0.985 . S
C770 C764 1.379 1_556 S
C770 C767 1.363 . S
C770 N768 1.356 . S
C771 C765 1.363 . S
C771 C766 1.379 1_554 S
C771 N769 1.356 . S
N772 C764 1.356 . S
N772 H778 0.984 . S
N772 H779 0.984 . S
N773 C766 1.356 . S
N773 H776 0.984 . S
N773 H777 0.985 . S
H774 N769 0.984 . S
H775 N769 0.985 . S
H776 N773 0.984 . S
H777 N773 0.985 . S
H778 N772 0.984 . S
H779 N772 0.984 . S
H780 N768 0.984 . S
H781 N768 0.985 . S
C782 C783 1.363 . S
C782 C788 1.379 . S
C782 N790 1.356 . S
C783 C782 1.363 . S
C783 C789 1.363 . S
C784 C785 1.363 . S
C784 C789 1.379 . S
C784 N791 1.356 . S
C785 C784 1.363 . S
C785 C788 1.363 . S
N786 C788 1.356 . S
N786 H798 0.984 . S
N786 H799 0.985 . S
N787 C789 1.356 . S
N787 H792 0.984 . S
N787 H793 0.985 . S
C788 C782 1.379 . S
C788 C785 1.363 . S
C788 N786 1.356 . S
C789 C783 1.363 . S
C789 C784 1.379 . S
C789 N787 1.356 . S
N790 C782 1.356 . S
N790 H796 0.984 . S
N790 H797 0.984 . S
N791 C784 1.356 . S
N791 H794 0.984 . S
N791 H795 0.985 . S
H792 N787 0.984 . S
H793 N787 0.985 . S
H794 N791 0.984 . S
H795 N791 0.985 . S
H796 N790 0.984 . S
H797 N790 0.984 . S
H798 N786 0.984 . S
H799 N786 0.985 . S
C225 C158 1.362 . S
C227 C12 1.387 . S
C243 C222 1.485 . S
C245 C18 1.450 . S
C261 C40 1.478 . S
C263 C130 1.450 . S
C279 C194 1.359 . S
C281 C54 1.362 . S
C297 C68 1.411 . S
C299 C186 1.374 . S
C315 C74 1.488 . S
C317 C166 1.513 . S
C333 C88 1.497 . S
C335 C214 1.502 . S
C351 C102 1.393 . S
C353 C138 1.415 . S
C369 C46 1.497 . S
C371 C116 1.502 . S
C387 C144 1.374 . S
C389 C26 1.411 . S
C405 C172 1.450 . S
C407 C82 1.478 . S
C423 C200 1.362 . S
C425 C110 1.387 . S
C441 C60 1.450 . S
C443 C124 1.485 . S
C459 C152 1.359 . S
C461 C96 1.362 . S
C477 C208 1.513 . S
C479 C32 1.488 . S
C495 C4 1.393 . S
C497 C180 1.415 . S
C513 C5 1.142 . S
C515 C61 1.137 . S
C531 C25 1.229 . S
C533 C81 1.228 . S
C549 C33 1.164 . S
C551 C95 1.247 . S
C567 C109 1.211 . S
C569 C47 1.125 . S
C585 C123 1.270 . S
C587 C179 1.272 . S
C603 C187 1.118 . S
C605 C131 1.128 . S
C621 C151 1.204 . S
C623 C207 1.228 . S
C639 C215 1.156 . S
C641 C159 1.216 . S
C657 C103 1.142 . S
C659 C19 1.137 . S
C675 C39 1.228 . S
C677 C67 1.229 . S
C693 C53 1.247 . S
C695 C75 1.164 . S
C711 C11 1.211 . S
C713 C89 1.125 . S
C729 C137 1.271 . S
C731 C221 1.270 . S
C747 C173 1.128 . S
C749 C145 1.118 . S
C765 C165 1.228 . S
C767 C193 1.204 . S
C783 C201 1.216 . S
C785 C117 1.156 . S
