# Generated by pormake.
# Topology crb, (4)-cn, num edge types: 1
# Building blocks:
#     Node 0, Type 0, BuildingBlock: CEKHIL_clean_sbu_0, # of connection points: 4
#     Node 1, Type 0, BuildingBlock: CEKHIL_clean_sbu_0, # of connection points: 4
#     Node 2, Type 0, BuildingBlock: CEKHIL_clean_sbu_0, # of connection points: 4
#     Node 3, Type 0, BuildingBlock: CEKHIL_clean_sbu_0, # of connection points: 4
#     Node 4, Type 0, BuildingBlock: CEKHIL_clean_sbu_0, # of connection points: 4
#     Node 5, Type 0, BuildingBlock: CEKHIL_clean_sbu_0, # of connection points: 4
#     Node 6, Type 0, BuildingBlock: CEKHIL_clean_sbu_0, # of connection points: 4
#     Node 7, Type 0, BuildingBlock: CEKHIL_clean_sbu_0, # of connection points: 4
#     Edge 8, Type (0, 0), BuildingBlock: TEMPAE_clean_linker_10, # of connection points: 2
#     Edge 9, Type (0, 0), BuildingBlock: TEMPAE_clean_linker_10, # of connection points: 2
#     Edge 10, Type (0, 0), BuildingBlock: TEMPAE_clean_linker_10, # of connection points: 2
#     Edge 11, Type (0, 0), BuildingBlock: TEMPAE_clean_linker_10, # of connection points: 2
#     Edge 12, Type (0, 0), BuildingBlock: TEMPAE_clean_linker_10, # of connection points: 2
#     Edge 13, Type (0, 0), BuildingBlock: TEMPAE_clean_linker_10, # of connection points: 2
#     Edge 14, Type (0, 0), BuildingBlock: TEMPAE_clean_linker_10, # of connection points: 2
#     Edge 15, Type (0, 0), BuildingBlock: TEMPAE_clean_linker_10, # of connection points: 2
#     Edge 16, Type (0, 0), BuildingBlock: TEMPAE_clean_linker_10, # of connection points: 2
#     Edge 17, Type (0, 0), BuildingBlock: TEMPAE_clean_linker_10, # of connection points: 2
#     Edge 18, Type (0, 0), BuildingBlock: TEMPAE_clean_linker_10, # of connection points: 2
#     Edge 19, Type (0, 0), BuildingBlock: TEMPAE_clean_linker_10, # of connection points: 2
#     Edge 20, Type (0, 0), BuildingBlock: TEMPAE_clean_linker_10, # of connection points: 2
#     Edge 21, Type (0, 0), BuildingBlock: TEMPAE_clean_linker_10, # of connection points: 2
#     Edge 22, Type (0, 0), BuildingBlock: TEMPAE_clean_linker_10, # of connection points: 2
#     Edge 23, Type (0, 0), BuildingBlock: TEMPAE_clean_linker_10, # of connection points: 2
# Relax obj value: 0.118
# Max RMSD: 0.159
# Mean RMSD: 0.159
data_MOF--net-crb--node1-CEKHIL_clean_sbu_0--edge1-TEMPAE_clean_linker_10
_symmetry_space_group_name_H-M    P1
_symmetry_Int_Tables_number       1
_symmetry_cell_setting            triclinic
loop_
_symmetry_equiv_pos_as_xyz
'x, y, z'
_cell_length_a     44.38268
_cell_length_b     43.418038
_cell_length_c     23.137939
_cell_angle_alpha  89.94249
_cell_angle_beta   90.027752
_cell_angle_gamma 89.978288
loop_
_atom_site_label
_atom_site_type_symbol
_atom_site_fract_x
_atom_site_fract_y
_atom_site_fract_z
_atom_type_partial_charge
Co0 Co 0.3255 0.33252 0.01111 0.0
O1 O 0.28528 0.32779 0.04289 0.0
O2 O 0.32402 0.29785 0.06364 0.0
C3 C 0.32775 0.38399 0.02527 0.0
O4 O 0.37075 0.33064 0.99392 0.0
Co5 Co 0.34252 0.37325 0.90652 0.0
O6 O 0.38388 0.37081 0.9386 0.0
C7 C 0.3122 0.31308 0.88697 0.0
C8 C 0.2961 0.30514 0.07331 0.0
C9 C 0.39084 0.34877 0.97239 0.0
O10 O 0.3146 0.3059 0.94117 0.0
O11 O 0.3203 0.33928 0.86683 0.0
O12 O 0.33369 0.36519 0.06752 0.0
O13 O 0.31949 0.37139 0.97743 0.0
Co14 Co 0.67392 0.3313 0.06341 0.0
O15 O 0.71417 0.32592 0.03186 0.0
O16 O 0.67494 0.29685 0.01052 0.0
C17 C 0.6726 0.38293 0.05005 0.0
O18 O 0.62859 0.33006 0.08002 0.0
Co19 Co 0.65696 0.37199 0.16814 0.0
O20 O 0.61546 0.36959 0.13685 0.0
C21 C 0.68716 0.31163 0.18731 0.0
C22 C 0.70301 0.3036 1.00112 0.0
C23 C 0.60851 0.34788 0.1024 0.0
O24 O 0.68428 0.30429 0.13328 0.0
O25 O 0.67949 0.33801 0.2072 0.0
O26 O 0.66651 0.36448 0.00737 0.0
O27 O 0.68036 0.36984 0.09774 0.0
Co28 Co 0.67957 0.66599 0.01279 0.0
O29 O 0.71977 0.67075 0.04485 0.0
O30 O 0.68098 0.70066 0.06525 0.0
C31 C 0.67729 0.61449 0.02689 0.0
O32 O 0.63434 0.66783 0.99535 0.0
Co33 Co 0.66267 0.62518 0.90816 0.0
O34 O 0.62125 0.6278 0.93972 0.0
C35 C 0.69343 0.68518 0.88877 0.0
C36 C 0.7089 0.69339 0.07512 0.0
C37 C 0.61427 0.64977 0.97356 0.0
O38 O 0.69057 0.6926 0.94276 0.0
O39 O 0.68549 0.65888 0.86893 0.0
O40 O 0.67135 0.63322 0.06918 0.0
O41 O 0.6856 0.62719 0.97917 0.0
Co42 Co 0.33122 0.66728 0.06234 0.0
O43 O 0.29112 0.67321 0.03018 0.0
O44 O 0.33096 0.70139 0.0087 0.0
C45 C 0.33199 0.61559 0.04979 0.0
O46 O 0.37649 0.66802 0.07943 0.0
Co47 Co 0.34756 0.62686 0.16784 0.0
O48 O 0.38913 0.62846 0.13669 0.0
C49 C 0.31841 0.68784 0.18586 0.0
C50 C 0.30283 0.69507 0.99896 0.0
C51 C 0.39637 0.65002 0.10207 0.0
O52 O 0.32107 0.69474 0.13157 0.0
O53 O 0.32589 0.66154 0.20646 0.0
O54 O 0.33835 0.63386 0.00695 0.0
O55 O 0.32422 0.62889 0.09725 0.0
Co56 Co 0.83138 0.83109 0.51214 0.0
O57 O 0.79125 0.82542 0.54405 0.0
O58 O 0.83091 0.797 0.56591 0.0
C59 C 0.83223 0.88278 0.52446 0.0
O60 O 0.87668 0.83022 0.49532 0.0
Co61 Co 0.84778 0.87112 0.40633 0.0
O62 O 0.88928 0.86972 0.43795 0.0
C63 C 0.81902 0.81 0.38862 0.0
C64 C 0.80278 0.80348 0.57535 0.0
C65 C 0.89653 0.84824 0.47277 0.0
O66 O 0.82126 0.80349 0.44314 0.0
O67 O 0.82669 0.83611 0.36751 0.0
O68 O 0.83855 0.86454 0.56738 0.0
O69 O 0.82445 0.86947 0.47698 0.0
Co70 Co 0.17978 0.83325 0.56134 0.0
O71 O 0.21986 0.82828 0.5289 0.0
O72 O 0.18094 0.79843 0.50926 0.0
C73 C 0.17753 0.8847 0.54648 0.0
O74 O 0.1346 0.83153 0.57926 0.0
Co75 Co 0.16317 0.87453 0.66543 0.0
O76 O 0.12162 0.87177 0.63446 0.0
C77 C 0.19455 0.81484 0.68529 0.0
C78 C 0.20883 0.80561 0.49892 0.0
C79 C 0.11457 0.84965 0.60099 0.0
O80 O 0.19104 0.80694 0.63168 0.0
O81 O 0.18673 0.8413 0.70459 0.0
O82 O 0.17141 0.8658 0.50455 0.0
O83 O 0.18593 0.87218 0.59431 0.0
Co84 Co 0.17355 0.16797 0.51071 0.0
O85 O 0.21377 0.17357 0.54225 0.0
O86 O 0.17424 0.20207 0.56435 0.0
C87 C 0.17271 0.11628 0.52295 0.0
O88 O 0.12821 0.16885 0.49426 0.0
Co89 Co 0.15685 0.12796 0.40502 0.0
O90 O 0.11554 0.12918 0.43743 0.0
C91 C 0.18567 0.18905 0.38708 0.0
C92 C 0.2024 0.19557 0.57349 0.0
C93 C 0.10835 0.15066 0.47221 0.0
O94 O 0.1835 0.19559 0.44157 0.0
O95 O 0.17796 0.16293 0.36611 0.0
O96 O 0.16652 0.13443 0.566 0.0
O97 O 0.18035 0.12968 0.47546 0.0
Co98 Co 0.82556 0.16594 0.56377 0.0
O99 O 0.78544 0.17127 0.53159 0.0
O100 O 0.82471 0.20046 0.51097 0.0
C101 C 0.82731 0.11441 0.54988 0.0
O102 O 0.87078 0.16727 0.5812 0.0
Co103 Co 0.84213 0.12522 0.66863 0.0
O104 O 0.88358 0.12715 0.63692 0.0
C105 C 0.81253 0.18583 0.68777 0.0
C106 C 0.79671 0.19361 0.501 0.0
C107 C 0.89072 0.14905 0.60296 0.0
O108 O 0.8149 0.19283 0.63349 0.0
O109 O 0.82041 0.1596 0.70815 0.0
O110 O 0.83343 0.13311 0.50759 0.0
O111 O 0.8191 0.12716 0.59763 0.0
C112 C 0.35192 0.43131 0.06679 0.0
C113 C 0.33076 0.41776 0.02978 0.0
C114 C 0.35504 0.46356 0.06933 0.0
C115 C 0.33585 0.48252 0.03552 0.0
C116 C 0.31436 0.46878 0.99842 0.0
C117 C 0.31243 0.4366 0.99536 0.0
C118 C 0.37879 0.47734 0.10816 0.0
C119 C 0.29283 0.48805 0.96298 0.0
C120 C 0.31827 0.5636 0.08629 0.0
C121 C 0.33417 0.58166 0.04635 0.0
C122 C 0.31905 0.53136 0.08377 0.0
C123 C 0.33681 0.5167 0.04111 0.0
C124 C 0.35371 0.53481 1.0017 0.0
C125 C 0.35186 0.56715 1.00427 0.0
C126 C 0.30007 0.51302 0.12565 0.0
C127 C 0.37348 0.52 0.95652 0.0
H128 H 0.36636 0.41671 0.09285 0.0
H129 H 0.29598 0.42613 0.96684 0.0
H130 H 0.39317 0.49348 0.08319 0.0
H131 H 0.36791 0.49083 0.14308 0.0
H132 H 0.39338 0.45949 0.1282 0.0
H133 H 0.27744 0.47376 0.93628 0.0
H134 H 0.27903 0.50271 0.99199 0.0
H135 H 0.30555 0.50366 0.93395 0.0
H136 H 0.30448 0.57473 0.11883 0.0
H137 H 0.36443 0.58107 0.97374 0.0
H138 H 0.31439 0.49668 0.15023 0.0
H139 H 0.28326 0.49917 0.10146 0.0
H140 H 0.28791 0.52794 0.15687 0.0
H141 H 0.38881 0.503 0.97702 0.0
H142 H 0.38721 0.53718 0.9326 0.0
H143 H 0.35933 0.50729 0.92503 0.0
C144 C 0.44541 0.36362 0.96468 0.0
C145 C 0.42311 0.34451 0.98861 0.0
C146 C 0.47558 0.36177 0.98284 0.0
C147 C 0.48387 0.34031 0.02615 0.0
C148 C 0.46172 0.32034 0.04939 0.0
C149 C 0.43165 0.32266 0.03037 0.0
C150 C 0.49845 0.38345 0.95673 0.0
C151 C 0.46961 0.29713 0.09559 0.0
C152 C 0.56787 0.32344 0.04172 0.0
C153 C 0.57622 0.3437 0.08626 0.0
C154 C 0.53779 0.32142 0.02274 0.0
C155 C 0.5154 0.34001 0.04896 0.0
C156 C 0.5235 0.35973 0.09517 0.0
C157 C 0.55371 0.36137 0.11312 0.0
C158 C 0.53013 0.30013 0.97334 0.0
C159 C 0.50036 0.37983 0.12459 0.0
H160 H 0.43924 0.38056 0.93234 0.0
H161 H 0.41471 0.30778 0.0493 0.0
H162 H 0.50735 0.39905 0.99063 0.0
H163 H 0.51782 0.37026 0.93928 0.0
H164 H 0.48875 0.3977 0.92142 0.0
H165 H 0.45029 0.28196 0.10661 0.0
H166 H 0.48873 0.28256 0.08125 0.0
H167 H 0.47693 0.3093 0.13532 0.0
H168 H 0.58498 0.3097 0.02049 0.0
H169 H 0.55975 0.37701 0.14771 0.0
H170 H 0.52269 0.31387 0.93547 0.0
H171 H 0.51117 0.28481 0.9855 0.0
H172 H 0.54961 0.28568 0.96019 0.0
H173 H 0.49123 0.3968 0.09325 0.0
H174 H 0.5099 0.39255 0.16199 0.0
H175 H 0.48118 0.36564 0.13993 0.0
C176 C 0.68686 0.4349 0.08526 0.0
C177 C 0.67038 0.41684 0.04625 0.0
C178 C 0.68597 0.46713 0.08277 0.0
C179 C 0.66749 0.48179 0.04115 0.0
C180 C 0.65004 0.46367 1.00266 0.0
C181 C 0.65203 0.43131 1.0051 0.0
C182 C 0.70558 0.48547 0.12356 0.0
C183 C 0.62951 0.47848 0.95868 0.0
C184 C 0.6532 0.56712 0.06868 0.0
C185 C 0.67397 0.58071 0.03092 0.0
C186 C 0.64983 0.53488 0.07074 0.0
C187 C 0.66835 0.51598 0.03558 0.0
C188 C 0.68936 0.52976 0.99755 0.0
C189 C 0.69157 0.56193 0.99511 0.0
C190 C 0.6266 0.52104 0.11066 0.0
C191 C 0.71018 0.51054 0.96059 0.0
H192 H 0.70115 0.42379 0.11706 0.0
H193 H 0.63901 0.41738 0.97534 0.0
H194 H 0.72191 0.49945 0.09843 0.0
H195 H 0.69161 0.50168 0.14908 0.0
H196 H 0.71833 0.47053 0.15396 0.0
H197 H 0.61545 0.46128 0.93554 0.0
H198 H 0.61446 0.4954 0.9801 0.0
H199 H 0.6431 0.49128 0.9264 0.0
H200 H 0.63929 0.58167 0.09581 0.0
H201 H 0.70771 0.57243 0.96595 0.0
H202 H 0.63796 0.50758 0.14513 0.0
H203 H 0.61194 0.50487 0.08642 0.0
H204 H 0.61225 0.53887 0.1313 0.0
H205 H 0.72452 0.49583 0.98861 0.0
H206 H 0.72506 0.52488 0.9329 0.0
H207 H 0.69691 0.49499 0.9324 0.0
C208 C 0.43738 0.6752 0.04344 0.0
C209 C 0.42871 0.65395 0.08615 0.0
C210 C 0.46751 0.67729 0.0248 0.0
C211 C 0.4896 0.65771 0.04942 0.0
C212 C 0.48119 0.63687 0.09369 0.0
C213 C 0.45094 0.63522 0.11142 0.0
C214 C 0.47552 0.69981 0.9775 0.0
C215 C 0.50401 0.61564 0.1213 0.0
C216 C 0.55958 0.63575 0.96375 0.0
C217 C 0.58199 0.65397 0.98964 0.0
C218 C 0.52938 0.6374 0.98173 0.0
C219 C 0.52119 0.6577 0.02695 0.0
C220 C 0.54346 0.6768 0.05223 0.0
C221 C 0.57354 0.67474 0.03326 0.0
C222 C 0.50637 0.61673 0.95334 0.0
C223 C 0.53568 0.69874 0.10053 0.0
H224 H 0.42051 0.68979 0.02347 0.0
H225 H 0.44465 0.61876 0.14452 0.0
H226 H 0.49455 0.71464 0.99136 0.0
H227 H 0.48302 0.68706 0.93855 0.0
H228 H 0.45621 0.71477 0.96537 0.0
H229 H 0.49423 0.60195 0.15727 0.0
H230 H 0.51304 0.59952 0.08841 0.0
H231 H 0.52331 0.62913 0.13824 0.0
H232 H 0.56569 0.61967 0.92992 0.0
H233 H 0.59058 0.6889 0.05376 0.0
H234 H 0.48717 0.63061 0.93699 0.0
H235 H 0.49723 0.60028 0.9856 0.0
H236 H 0.51602 0.60341 0.9168 0.0
H237 H 0.51674 0.71389 0.08744 0.0
H238 H 0.55512 0.71337 0.11319 0.0
H239 H 0.52816 0.68552 0.13896 0.0
C240 C 0.81701 0.93471 0.48993 0.0
C241 C 0.83411 0.91671 0.52811 0.0
C242 C 0.81754 0.96696 0.49279 0.0
C243 C 0.8363 0.98166 0.53383 0.0
C244 C 0.85435 0.96359 0.57143 0.0
C245 C 0.8527 0.93123 0.56872 0.0
C246 C 0.79729 0.98525 0.45301 0.0
C247 C 0.87522 0.97843 0.61471 0.0
C248 C 0.85057 0.06703 0.50668 0.0
C249 C 0.83037 0.08061 0.54557 0.0
C250 C 0.85365 0.03479 0.50388 0.0
C251 C 0.83542 0.01584 0.53951 0.0
C252 C 0.81494 0.02959 0.57864 0.0
C253 C 0.81301 0.06177 0.58177 0.0
C254 C 0.87632 0.02101 0.46274 0.0
C255 C 0.79444 0.01031 0.61619 0.0
H256 H 0.80252 0.92353 0.45859 0.0
H257 H 0.86618 0.91733 0.59784 0.0
H258 H 0.78119 0.99908 0.47895 0.0
H259 H 0.81083 0.00161 0.42693 0.0
H260 H 0.78427 0.9703 0.42315 0.0
H261 H 0.88957 0.96127 0.63737 0.0
H262 H 0.89 0.99542 0.59277 0.0
H263 H 0.86188 0.99116 0.64744 0.0
H264 H 0.86427 0.08161 0.47917 0.0
H265 H 0.79729 0.07224 0.61176 0.0
H266 H 0.86449 0.00756 0.4289 0.0
H267 H 0.89134 0.00484 0.48623 0.0
H268 H 0.89035 0.03886 0.44134 0.0
H269 H 0.77985 0.99567 0.5886 0.0
H270 H 0.77983 0.0246 0.64444 0.0
H271 H 0.80797 0.99467 0.64386 0.0
C272 C 0.07368 0.82404 0.54264 0.0
C273 C 0.08225 0.84537 0.58524 0.0
C274 C 0.04356 0.82182 0.52391 0.0
C275 C 0.02138 0.84132 0.54836 0.0
C276 C 0.02969 0.86221 0.59255 0.0
C277 C 0.05992 0.864 0.61034 0.0
C278 C 0.03566 0.79925 0.47671 0.0
C279 C 0.00677 0.88334 0.62 0.0
C280 C 0.95111 0.86283 0.46286 0.0
C281 C 0.92887 0.84448 0.48895 0.0
C282 C 0.98135 0.86137 0.4807 0.0
C283 C 0.98976 0.84112 0.52596 0.0
C284 C 0.96765 0.82193 0.5515 0.0
C285 C 0.93752 0.8238 0.53269 0.0
C286 C 0.0042 0.88215 0.45208 0.0
C287 C 0.97564 0.80006 0.59989 0.0
H288 H 0.09064 0.80955 0.52277 0.0
H289 H 0.06612 0.88051 0.64336 0.0
H290 H 0.01671 0.78433 0.49062 0.0
H291 H 0.02808 0.81196 0.4377 0.0
H292 H 0.05505 0.78439 0.46466 0.0
H293 H 0.0165 0.89712 0.65588 0.0
H294 H 0.99765 0.8994 0.587 0.0
H295 H 0.98755 0.86977 0.63703 0.0
H296 H 0.94483 0.87884 0.42896 0.0
H297 H 0.92063 0.80952 0.55332 0.0
H298 H 0.02345 0.86838 0.43573 0.0
H299 H 0.0133 0.89868 0.48419 0.0
H300 H 0.99441 0.8954 0.4155 0.0
H301 H 0.9946 0.78497 0.58674 0.0
H302 H 0.95629 0.78537 0.61283 0.0
H303 H 0.98323 0.81334 0.63817 0.0
C304 C 0.18777 0.06447 0.48801 0.0
C305 C 0.17063 0.08236 0.52621 0.0
C306 C 0.18701 0.03222 0.49028 0.0
C307 C 0.16797 0.01741 0.53072 0.0
C308 C 0.14985 0.03538 0.56827 0.0
C309 C 0.15174 0.06774 0.56619 0.0
C310 C 0.20736 0.01404 0.45061 0.0
C311 C 0.1287 0.02042 0.61093 0.0
C312 C 0.15417 0.93203 0.50282 0.0
C313 C 0.17431 0.91848 0.54194 0.0
C314 C 0.15092 0.96427 0.50017 0.0
C315 C 0.1689 0.98323 0.53626 0.0
C316 C 0.18931 0.9695 0.57561 0.0
C317 C 0.19143 0.93734 0.5785 0.0
C318 C 0.12836 0.97806 0.45874 0.0
C319 C 0.20953 0.98878 0.61368 0.0
H320 H 0.20248 0.07573 0.45714 0.0
H321 H 0.13821 0.08157 0.59527 0.0
H322 H 0.2234 0.00016 0.47666 0.0
H323 H 0.1939 0.99774 0.4243 0.0
H324 H 0.22045 0.02908 0.42098 0.0
H325 H 0.11418 0.03752 0.63326 0.0
H326 H 0.1141 0.00345 0.58854 0.0
H327 H 0.14184 0.00765 0.64396 0.0
H328 H 0.14065 0.91744 0.47503 0.0
H329 H 0.2071 0.9269 0.60869 0.0
H330 H 0.14026 0.99164 0.42516 0.0
H331 H 0.11318 0.99412 0.48207 0.0
H332 H 0.11448 0.9602 0.43704 0.0
H333 H 0.22419 0.00357 0.58647 0.0
H334 H 0.22408 0.97449 0.64214 0.0
H335 H 0.19579 0.00427 0.64118 0.0
C336 C 0.93155 0.17446 0.54423 0.0
C337 C 0.92301 0.15306 0.58678 0.0
C338 C 0.96161 0.1766 0.52526 0.0
C339 C 0.98379 0.15694 0.54941 0.0
C340 C 0.9755 0.13593 0.59348 0.0
C341 C 0.94531 0.13422 0.61152 0.0
C342 C 0.96948 0.19929 0.47816 0.0
C343 C 0.99842 0.11463 0.6206 0.0
C344 C 0.0538 0.13587 0.46299 0.0
C345 C 0.07608 0.15423 0.48892 0.0
C346 C 0.02363 0.13714 0.48128 0.0
C347 C 0.01535 0.15718 0.52685 0.0
C348 C 0.03751 0.17634 0.55231 0.0
C349 C 0.06755 0.17467 0.53303 0.0
C350 C 1.00072 0.11641 0.45271 0.0
C351 C 0.02965 0.19798 0.60105 0.0
H352 H 0.91461 0.18912 0.52463 0.0
H353 H 0.93912 0.11764 0.64448 0.0
H354 H 0.98841 0.2142 0.49216 0.0
H355 H 0.97707 0.18669 0.4391 0.0
H356 H 0.95008 0.21416 0.46615 0.0
H357 H 0.98871 0.10074 0.65639 0.0
H358 H 0.00744 0.09869 0.58739 0.0
H359 H 0.0177 0.12809 0.63768 0.0
H360 H 0.05998 0.12003 0.42882 0.0
H361 H 0.08449 0.18893 0.55357 0.0
H362 H 0.98144 0.13023 0.43655 0.0
H363 H 0.99169 0.09981 0.48481 0.0
H364 H 0.01043 0.10326 0.41601 0.0
H365 H 0.01072 0.2132 0.58816 0.0
H366 H 0.04905 0.21255 0.61413 0.0
H367 H 0.02207 0.18453 0.63915 0.0
C368 C 0.19253 0.20741 0.28565 0.0
C369 C 0.19837 0.21161 0.34489 0.0
C370 C 0.20733 0.22479 0.24322 0.0
C371 C 0.22852 0.24741 0.25991 0.0
C372 C 0.23343 0.25307 0.31965 0.0
C373 C 0.2183 0.23507 0.36154 0.0
C374 C 0.20125 0.21788 0.18027 0.0
C375 C 0.25554 0.27727 0.33926 0.0
C376 C 0.28963 0.26384 0.14824 0.0
C377 C 0.27848 0.29021 0.12038 0.0
C378 C 0.27401 0.25023 0.19461 0.0
C379 C 0.24667 0.26345 0.21433 0.0
C380 C 0.23554 0.29037 0.18695 0.0
C381 C 0.25144 0.30328 0.14012 0.0
C382 C 0.2865 0.22128 0.22179 0.0
C383 C 0.20667 0.30537 0.20681 0.0
H384 H 0.17686 0.1897 0.27203 0.0
H385 H 0.22302 0.23853 0.40704 0.0
H386 H 0.19488 0.23923 0.15694 0.0
H387 H 0.22202 0.20884 0.15968 0.0
H388 H 0.18298 0.20067 0.17447 0.0
H389 H 0.25447 0.28119 0.38666 0.0
H390 H 0.27875 0.26998 0.32789 0.0
H391 H 0.25115 0.29938 0.31671 0.0
H392 H 0.31057 0.25365 0.13356 0.0
H393 H 0.24284 0.32389 0.11942 0.0
H394 H 0.27044 0.20199 0.21543 0.0
H395 H 0.28925 0.22453 0.26904 0.0
H396 H 0.30861 0.21457 0.20313 0.0
H397 H 0.18743 0.28957 0.19926 0.0
H398 H 0.20215 0.32739 0.18388 0.0
H399 H 0.20766 0.30995 0.25394 0.0
C400 C 0.69895 0.29706 0.28946 0.0
C401 C 0.70051 0.28974 0.23024 0.0
C402 C 0.71368 0.27936 0.33149 0.0
C403 C 0.73036 0.25313 0.31466 0.0
C404 C 0.73111 0.24464 0.25538 0.0
C405 C 0.71623 0.26309 0.21376 0.0
C406 C 0.71224 0.28948 0.39394 0.0
C407 C 0.74834 0.21659 0.23578 0.0
C408 C 0.79307 0.23181 0.41985 0.0
C409 C 0.77952 0.20872 0.45346 0.0
C410 C 0.77778 0.2455 0.37315 0.0
C411 C 0.7481 0.23595 0.35938 0.0
C412 C 0.73445 0.21229 0.39256 0.0
C413 C 0.75027 0.19902 0.43919 0.0
C414 C 0.79316 0.27078 0.3394 0.0
C415 C 0.70289 0.20141 0.37947 0.0
H416 H 0.68662 0.31729 0.30335 0.0
H417 H 0.71761 0.25711 0.16838 0.0
H418 H 0.70384 0.27041 0.42149 0.0
H419 H 0.73517 0.29546 0.40941 0.0
H420 H 0.69738 0.30979 0.40022 0.0
H421 H 0.7446 0.21149 0.18929 0.0
H422 H 0.7728 0.22026 0.24293 0.0
H423 H 0.74164 0.1962 0.26168 0.0
H424 H 0.81575 0.23931 0.43007 0.0
H425 H 0.7397 0.18098 0.46443 0.0
H426 H 0.78085 0.29278 0.34556 0.0
H427 H 0.79273 0.26545 0.29254 0.0
H428 H 0.81695 0.27416 0.35297 0.0
H429 H 0.68662 0.22027 0.38805 0.0
H430 H 0.6964 0.18112 0.40596 0.0
H431 H 0.70083 0.19531 0.33308 0.0
C432 C 0.81236 0.79137 0.28734 0.0
C433 C 0.80632 0.78738 0.34657 0.0
C434 C 0.79763 0.77391 0.24496 0.0
C435 C 0.77626 0.75146 0.26167 0.0
C436 C 0.77113 0.74603 0.32144 0.0
C437 C 0.78623 0.76407 0.36328 0.0
C438 C 0.80398 0.78057 0.182 0.0
C439 C 0.74882 0.72203 0.34111 0.0
C440 C 0.7154 0.73494 0.14945 0.0
C441 C 0.72647 0.7084 0.12218 0.0
C442 C 0.73097 0.74865 0.19576 0.0
C443 C 0.75817 0.73536 0.21607 0.0
C444 C 0.76923 0.70826 0.18929 0.0
C445 C 0.75339 0.69526 0.14248 0.0
C446 C 0.71856 0.77778 0.22226 0.0
C447 C 0.79795 0.69316 0.2098 0.0
H448 H 0.82817 0.80897 0.2737 0.0
H449 H 0.78135 0.76079 0.40876 0.0
H450 H 0.8103 0.75909 0.15911 0.0
H451 H 0.78334 0.78966 0.16095 0.0
H452 H 0.82238 0.79764 0.1762 0.0
H453 H 0.74969 0.71827 0.38858 0.0
H454 H 0.72569 0.72941 0.32927 0.0
H455 H 0.75315 0.69981 0.31897 0.0
H456 H 0.69455 0.74518 0.13434 0.0
H457 H 0.76193 0.67451 0.12226 0.0
H458 H 0.73476 0.79694 0.21582 0.0
H459 H 0.71563 0.77473 0.26953 0.0
H460 H 0.69656 0.78456 0.20316 0.0
H461 H 0.8173 0.70882 0.20229 0.0
H462 H 0.80242 0.67104 0.18728 0.0
H463 H 0.79677 0.68875 0.25699 0.0
C464 C 0.25435 0.8019 0.43439 0.0
C465 C 0.22614 0.7905 0.45161 0.0
C466 C 0.27015 0.78872 0.3877 0.0
C467 C 0.25761 0.76333 0.35765 0.0
C468 C 0.22901 0.75194 0.37457 0.0
C469 C 0.21364 0.76567 0.42108 0.0
C470 C 0.30048 0.80169 0.37106 0.0
C471 C 0.2149 0.72472 0.34434 0.0
C472 C 0.28764 0.73532 0.21134 0.0
C473 C 0.30549 0.71019 0.22828 0.0
C474 C 0.27267 0.75365 0.25292 0.0
C475 C 0.27555 0.7466 0.31266 0.0
C476 C 0.29454 0.7221 0.32982 0.0
C477 C 0.30928 0.70446 0.28775 0.0
C478 C 0.25296 0.77987 0.23288 0.0
C479 C 0.29838 0.71359 0.39277 0.0
H480 H 0.26407 0.8213 0.45718 0.0
H481 H 0.19177 0.75681 0.43366 0.0
H482 H 0.31829 0.78433 0.37946 0.0
H483 H 0.30098 0.80697 0.32414 0.0
H484 H 0.30604 0.82296 0.39547 0.0
H485 H 0.19184 0.71969 0.36048 0.0
H486 H 0.21369 0.72903 0.29713 0.0
H487 H 0.2291 0.70397 0.3509 0.0
H488 H 0.28451 0.74002 0.16572 0.0
H489 H 0.32333 0.68545 0.3018 0.0
H490 H 0.25851 0.80121 0.25697 0.0
H491 H 0.22902 0.77436 0.24199 0.0
H492 H 0.25541 0.78439 0.18585 0.0
H493 H 0.3059 0.7339 0.41797 0.0
H494 H 0.31497 0.69473 0.39914 0.0
H495 H 0.27643 0.70611 0.4109 0.0
C496 C 0.22005 0.76439 0.71333 0.0
C497 C 0.20867 0.79349 0.72839 0.0
C498 C 0.23456 0.74557 0.75487 0.0
C499 C 0.23789 0.75615 0.81262 0.0
C500 C 0.22597 0.78516 0.82807 0.0
C501 C 0.21155 0.80324 0.7862 0.0
C502 C 0.24679 0.71464 0.73681 0.0
C503 C 0.22906 0.7976 0.88881 0.0
C504 C 0.25531 0.70416 0.94169 0.0
C505 C 0.28599 0.71024 0.95101 0.0
C506 C 0.2396 0.71785 0.8953 0.0
C507 C 0.25494 0.73798 0.857 0.0
C508 C 0.28608 0.74356 0.86547 0.0
C509 C 0.30113 0.72978 0.91235 0.0
C510 C 0.20639 0.71145 0.88822 0.0
C511 C 0.3034 0.76482 0.82589 0.0
H512 H 0.21799 0.7565 0.66909 0.0
H513 H 0.20287 0.82552 0.79913 0.0
H514 H 0.27169 0.71454 0.74112 0.0
H515 H 0.23795 0.69633 0.76566 0.0
H516 H 0.24085 0.70887 0.69145 0.0
H517 H 0.21768 0.8202 0.89435 0.0
H518 H 0.21936 0.7811 0.92034 0.0
H519 H 0.25325 0.80043 0.89972 0.0
H520 H 0.24345 0.68889 0.97096 0.0
H521 H 0.32492 0.73434 0.91859 0.0
H522 H 0.20146 0.70424 0.84321 0.0
H523 H 0.19337 0.73282 0.89654 0.0
H524 H 0.19832 0.69326 0.91826 0.0
H525 H 0.29991 0.7581 0.78014 0.0
H526 H 0.32795 0.76469 0.83519 0.0
H527 H 0.29491 0.78872 0.83084 0.0
C528 C 0.28136 0.26577 0.86086 0.0
C529 C 0.29896 0.29113 0.84418 0.0
C530 C 0.2664 0.24754 0.81912 0.0
C531 C 0.26906 0.25489 0.75949 0.0
C532 C 0.28772 0.27967 0.74256 0.0
C533 C 0.30243 0.29724 0.78479 0.0
C534 C 0.247 0.22104 0.83891 0.0
C535 C 0.2913 0.28849 0.67971 0.0
C536 C 0.24815 0.19969 0.6374 0.0
C537 C 0.21972 0.21076 0.62069 0.0
C538 C 0.26396 0.21296 0.684 0.0
C539 C 0.25121 0.23812 0.71441 0.0
C540 C 0.22242 0.24921 0.69793 0.0
C541 C 0.20703 0.23537 0.65156 0.0
C542 C 0.2945 0.20031 0.70021 0.0
C543 C 0.20809 0.2762 0.72852 0.0
H544 H 0.27849 0.26076 0.90642 0.0
H545 H 0.31626 0.31644 0.7709 0.0
H546 H 0.223 0.22624 0.82964 0.0
H547 H 0.25288 0.19982 0.81473 0.0
H548 H 0.24945 0.21647 0.88593 0.0
H549 H 0.30763 0.30759 0.67351 0.0
H550 H 0.29901 0.26838 0.65417 0.0
H551 H 0.2692 0.29576 0.66183 0.0
H552 H 0.25801 0.18046 0.61433 0.0
H553 H 0.18501 0.24398 0.63931 0.0
H554 H 0.29518 0.19482 0.74704 0.0
H555 H 0.31206 0.21795 0.69198 0.0
H556 H 0.30028 0.17923 0.67541 0.0
H557 H 0.20704 0.27176 0.77569 0.0
H558 H 0.18495 0.28105 0.71257 0.0
H559 H 0.22207 0.29711 0.72207 0.0
C560 C 0.74846 0.29997 0.93637 0.0
C561 C 0.72041 0.28836 0.95409 0.0
C562 C 0.76427 0.28671 0.88977 0.0
C563 C 0.75194 0.26098 0.86042 0.0
C564 C 0.72356 0.2493 0.87799 0.0
C565 C 0.70814 0.26317 0.92429 0.0
C566 C 0.79434 0.3 0.87237 0.0
C567 C 0.70969 0.22169 0.84859 0.0
C568 C 0.7813 0.2329 0.71369 0.0
C569 C 0.79957 0.20804 0.7304 0.0
C570 C 0.7664 0.25116 0.75547 0.0
C571 C 0.76982 0.24434 0.8152 0.0
C572 C 0.78922 0.22013 0.8321 0.0
C573 C 0.80384 0.20251 0.78981 0.0
C574 C 0.7462 0.27704 0.73566 0.0
C575 C 0.79366 0.21191 0.89503 0.0
H576 H 0.75799 0.31966 0.95859 0.0
H577 H 0.68642 0.25413 0.93733 0.0
H578 H 0.81241 0.28286 0.88041 0.0
H579 H 0.79447 0.30522 0.82541 0.0
H580 H 0.79982 0.32138 0.89654 0.0
H581 H 0.68686 0.21632 0.86544 0.0
H582 H 0.70807 0.22576 0.80136 0.0
H583 H 0.72431 0.20123 0.85508 0.0
H584 H 0.77781 0.23744 0.66811 0.0
H585 H 0.81822 0.18371 0.80365 0.0
H586 H 0.75171 0.29855 0.75926 0.0
H587 H 0.72241 0.27127 0.74563 0.0
H588 H 0.74819 0.28139 0.6885 0.0
H589 H 0.80104 0.23243 0.91978 0.0
H590 H 0.81059 0.19334 0.90116 0.0
H591 H 0.77196 0.20414 0.91385 0.0
C592 C 0.72228 0.73384 0.86231 0.0
C593 C 0.70698 0.70694 0.84585 0.0
C594 C 0.73711 0.75234 0.82077 0.0
C595 C 0.73673 0.74367 0.76158 0.0
C596 C 0.72054 0.71714 0.74475 0.0
C597 C 0.70585 0.69936 0.7867 0.0
C598 C 0.75385 0.78069 0.84036 0.0
C599 C 0.7195 0.70682 0.68239 0.0
C600 C 0.75626 0.79768 0.63672 0.0
C601 C 0.78568 0.78836 0.62296 0.0
C602 C 0.74049 0.78434 0.68332 0.0
C603 C 0.75438 0.761 0.71695 0.0
C604 C 0.78424 0.75185 0.70372 0.0
C605 C 0.79948 0.76561 0.65707 0.0
C606 C 0.70872 0.79479 0.69583 0.0
C607 C 0.79989 0.72691 0.73798 0.0
H608 H 0.72332 0.74002 0.90764 0.0
H609 H 0.69387 0.67893 0.7728 0.0
H610 H 0.77838 0.77741 0.83347 0.0
H611 H 0.74688 0.80093 0.81426 0.0
H612 H 0.74993 0.78582 0.88678 0.0
H613 H 0.70501 0.68624 0.67607 0.0
H614 H 0.71089 0.72566 0.65452 0.0
H615 H 0.74258 0.70118 0.66732 0.0
H616 H 0.7455 0.81547 0.6111 0.0
H617 H 0.82229 0.75841 0.64724 0.0
H618 H 0.70639 0.80096 0.74214 0.0
H619 H 0.69277 0.77568 0.68714 0.0
H620 H 0.70204 0.81493 0.66909 0.0
H621 H 0.79918 0.73237 0.78479 0.0
H622 H 0.82378 0.72389 0.72484 0.0
H623 H 0.78796 0.7047 0.73183 0.0
loop_
_geom_bond_atom_site_label_1
_geom_bond_atom_site_label_2
_geom_bond_distance
_geom_bond_site_symmetry_2
_ccdc_geom_bond_type
Co0 O1 2.216 . S
Co0 O2 2.091 . S
Co0 O4 2.004 . S
Co0 O10 2.021 1_554 S
Co0 O12 2.137 . S
Co0 O13 2.244 . S
O1 Co0 2.216 . S
O1 C8 1.247 . S
O2 Co0 2.091 . S
O2 C8 1.261 . S
C3 O12 1.247 . S
C3 O13 1.272 . S
O4 Co0 2.004 . S
O4 C9 1.259 . S
Co5 O6 2.061 . S
Co5 O11 2.052 . S
Co5 O13 2.135 1_556 S
O6 Co5 2.061 . S
O6 C9 1.235 1_556 S
C7 O10 1.238 . S
C7 O11 1.241 . S
C8 O1 1.247 . S
C8 O2 1.261 . S
C9 O4 1.259 . S
C9 O6 1.235 1_554 S
O10 Co0 2.021 1_556 S
O10 C7 1.238 . S
O11 Co5 2.052 . S
O11 C7 1.241 . S
O12 Co0 2.137 . S
O12 C3 1.247 . S
O13 Co0 2.244 . S
O13 C3 1.272 . S
O13 Co5 2.135 1_554 S
Co14 O15 2.216 . S
Co14 O16 2.091 . S
Co14 O18 2.004 1_556 S
Co14 O24 2.021 1_556 S
Co14 O26 2.137 . S
Co14 O27 2.244 1_556 S
O15 Co14 2.216 . S
O15 C22 1.247 . S
O16 Co14 2.091 . S
O16 C22 1.261 . S
C17 O26 1.259 . S
C17 O27 1.259 1_556 S
O18 Co14 2.004 1_554 S
O18 C23 1.259 . S
Co19 O20 2.061 . S
Co19 O25 2.052 . S
Co19 O27 2.135 . S
O20 Co19 2.061 . S
O20 C23 1.235 . S
C21 O24 1.238 . S
C21 O25 1.241 . S
C22 O15 1.247 . S
C22 O16 1.261 . S
C23 O18 1.259 . S
C23 O20 1.235 . S
O24 Co14 2.021 1_554 S
O24 C21 1.238 . S
O25 Co19 2.052 . S
O25 C21 1.241 . S
O26 Co14 2.137 . S
O26 C17 1.259 . S
O27 Co14 2.244 1_554 S
O27 C17 1.259 1_554 S
O27 Co19 2.135 . S
Co28 O29 2.216 . S
Co28 O30 2.091 . S
Co28 O32 2.004 . S
Co28 O38 2.021 1_554 S
Co28 O40 2.137 . S
Co28 O41 2.244 . S
O29 Co28 2.216 . S
O29 C36 1.247 . S
O30 Co28 2.091 . S
O30 C36 1.261 . S
C31 O40 1.247 . S
C31 O41 1.272 . S
O32 Co28 2.004 . S
O32 C37 1.259 . S
Co33 O34 2.061 . S
Co33 O39 2.052 . S
Co33 O41 2.135 1_556 S
O34 Co33 2.061 . S
O34 C37 1.235 1_556 S
C35 O38 1.238 . S
C35 O39 1.241 . S
C36 O29 1.247 . S
C36 O30 1.261 . S
C37 O32 1.259 . S
C37 O34 1.235 1_554 S
O38 Co28 2.021 1_556 S
O38 C35 1.238 . S
O39 Co33 2.052 . S
O39 C35 1.241 . S
O40 Co28 2.137 . S
O40 C31 1.247 . S
O41 Co28 2.244 . S
O41 C31 1.272 . S
O41 Co33 2.135 1_554 S
Co42 O43 2.216 . S
Co42 O44 2.091 . S
Co42 O46 2.004 1_556 S
Co42 O52 2.021 1_556 S
Co42 O54 2.137 . S
Co42 O55 2.244 1_556 S
O43 Co42 2.216 . S
O43 C50 1.247 . S
O44 Co42 2.091 . S
O44 C50 1.261 . S
C45 O54 1.259 . S
C45 O55 1.259 1_556 S
O46 Co42 2.004 1_554 S
O46 C51 1.259 . S
Co47 O48 2.061 . S
Co47 O53 2.052 . S
Co47 O55 2.135 . S
O48 Co47 2.061 . S
O48 C51 1.235 . S
C49 O52 1.238 . S
C49 O53 1.241 . S
C50 O43 1.247 . S
C50 O44 1.261 . S
C51 O46 1.259 . S
C51 O48 1.235 . S
O52 Co42 2.021 1_554 S
O52 C49 1.238 . S
O53 Co47 2.052 . S
O53 C49 1.241 . S
O54 Co42 2.137 . S
O54 C45 1.259 . S
O55 Co42 2.244 1_554 S
O55 C45 1.259 1_554 S
O55 Co47 2.135 . S
Co56 O57 2.216 . S
Co56 O58 2.091 . S
Co56 O60 2.004 . S
Co56 O66 2.021 . S
Co56 O68 2.137 . S
Co56 O69 2.244 . S
O57 Co56 2.216 . S
O57 C64 1.247 . S
O58 Co56 2.091 . S
O58 C64 1.261 . S
C59 O68 1.247 . S
C59 O69 1.272 . S
O60 Co56 2.004 . S
O60 C65 1.259 . S
Co61 O62 2.061 . S
Co61 O67 2.052 . S
Co61 O69 2.135 . S
O62 Co61 2.061 . S
O62 C65 1.235 . S
C63 O66 1.238 . S
C63 O67 1.241 . S
C64 O57 1.247 . S
C64 O58 1.261 . S
C65 O60 1.259 . S
C65 O62 1.235 . S
O66 Co56 2.021 . S
O66 C63 1.238 . S
O67 Co61 2.052 . S
O67 C63 1.241 . S
O68 Co56 2.137 . S
O68 C59 1.247 . S
O69 Co56 2.244 . S
O69 C59 1.272 . S
O69 Co61 2.135 . S
Co70 O71 2.216 . S
Co70 O72 2.091 . S
Co70 O74 2.004 . S
Co70 O80 2.021 . S
Co70 O82 2.137 . S
Co70 O83 2.244 . S
O71 Co70 2.216 . S
O71 C78 1.247 . S
O72 Co70 2.091 . S
O72 C78 1.261 . S
C73 O82 1.247 . S
C73 O83 1.272 . S
O74 Co70 2.004 . S
O74 C79 1.259 . S
Co75 O76 2.061 . S
Co75 O81 2.052 . S
Co75 O83 2.135 . S
O76 Co75 2.061 . S
O76 C79 1.235 . S
C77 O80 1.238 . S
C77 O81 1.241 . S
C78 O71 1.247 . S
C78 O72 1.261 . S
C79 O74 1.259 . S
C79 O76 1.235 . S
O80 Co70 2.021 . S
O80 C77 1.238 . S
O81 Co75 2.052 . S
O81 C77 1.241 . S
O82 Co70 2.137 . S
O82 C73 1.247 . S
O83 Co70 2.244 . S
O83 C73 1.272 . S
O83 Co75 2.135 . S
Co84 O85 2.216 . S
Co84 O86 2.091 . S
Co84 O88 2.004 . S
Co84 O94 2.021 . S
Co84 O96 2.137 . S
Co84 O97 2.244 . S
O85 Co84 2.216 . S
O85 C92 1.247 . S
O86 Co84 2.091 . S
O86 C92 1.261 . S
C87 O96 1.247 . S
C87 O97 1.272 . S
O88 Co84 2.004 . S
O88 C93 1.259 . S
Co89 O90 2.061 . S
Co89 O95 2.052 . S
Co89 O97 2.135 . S
O90 Co89 2.061 . S
O90 C93 1.235 . S
C91 O94 1.238 . S
C91 O95 1.241 . S
C92 O85 1.247 . S
C92 O86 1.261 . S
C93 O88 1.259 . S
C93 O90 1.235 . S
O94 Co84 2.021 . S
O94 C91 1.238 . S
O95 Co89 2.052 . S
O95 C91 1.241 . S
O96 Co84 2.137 . S
O96 C87 1.247 . S
O97 Co84 2.244 . S
O97 C87 1.272 . S
O97 Co89 2.135 . S
Co98 O99 2.216 . S
Co98 O100 2.091 . S
Co98 O102 2.004 . S
Co98 O108 2.021 . S
Co98 O110 2.137 . S
Co98 O111 2.244 . S
O99 Co98 2.216 . S
O99 C106 1.247 . S
O100 Co98 2.091 . S
O100 C106 1.261 . S
C101 O110 1.247 . S
C101 O111 1.272 . S
O102 Co98 2.004 . S
O102 C107 1.259 . S
Co103 O104 2.061 . S
Co103 O109 2.052 . S
Co103 O111 2.135 . S
O104 Co103 2.061 . S
O104 C107 1.235 . S
C105 O108 1.238 . S
C105 O109 1.241 . S
C106 O99 1.247 . S
C106 O100 1.261 . S
C107 O102 1.259 . S
C107 O104 1.235 . S
O108 Co98 2.021 . S
O108 C105 1.238 . S
O109 Co103 2.052 . S
O109 C105 1.241 . S
O110 Co98 2.137 . S
O110 C101 1.247 . S
O111 Co98 2.244 . S
O111 C101 1.272 . S
O111 Co103 2.135 . S
C112 C113 1.391 . S
C112 C114 1.390 1_554 S
C112 H128 0.931 1_554 S
C113 C112 1.391 . S
C113 C117 1.376 . S
C114 C112 1.390 1_556 S
C114 C115 1.362 1_556 S
C114 C118 1.542 . S
C115 C114 1.362 1_554 S
C115 C116 1.410 . S
C115 C123 1.503 . S
C116 C115 1.410 . S
C116 C117 1.392 . S
C116 C119 1.511 . S
C117 C113 1.376 . S
C117 C116 1.392 . S
C117 H129 0.929 . S
C118 C114 1.542 . S
C118 H130 0.960 . S
C118 H131 0.962 . S
C118 H132 0.960 . S
C119 C116 1.511 . S
C119 H133 0.961 . S
C119 H134 0.961 . S
C119 H135 0.961 . S
C120 C121 1.370 . S
C120 C122 1.363 . S
C120 H136 0.931 . S
C121 C120 1.370 . S
C121 C125 1.408 1_554 S
C122 C120 1.363 . S
C122 C123 1.370 . S
C122 C126 1.524 . S
C123 C115 1.503 . S
C123 C122 1.370 . S
C123 C124 1.403 1_554 S
C124 C123 1.403 1_556 S
C124 C125 1.404 . S
C124 C127 1.539 . S
C125 C121 1.408 1_556 S
C125 C124 1.404 . S
C125 H137 0.930 . S
C126 C122 1.524 . S
C126 H138 0.956 . S
C126 H139 0.961 . S
C126 H140 0.961 . S
C127 C124 1.539 . S
C127 H141 0.958 . S
C127 H142 0.961 . S
C127 H143 0.960 . S
H128 C112 0.931 1_556 S
H129 C117 0.929 . S
H130 C118 0.960 . S
H131 C118 0.962 . S
H132 C118 0.960 . S
H133 C119 0.961 . S
H134 C119 0.961 . S
H135 C119 0.961 . S
H136 C120 0.931 . S
H137 C125 0.930 . S
H138 C126 0.956 . S
H139 C126 0.961 . S
H140 C126 0.961 . S
H141 C127 0.958 . S
H142 C127 0.961 . S
H143 C127 0.960 . S
C144 C145 1.391 . S
C144 C146 1.394 . S
C144 H160 0.931 . S
C145 C144 1.391 . S
C145 C149 1.376 1_554 S
C146 C144 1.394 . S
C146 C147 1.369 . S
C146 C150 1.531 . S
C147 C146 1.369 . S
C147 C148 1.410 . S
C147 C155 1.503 . S
C148 C147 1.410 . S
C148 C149 1.392 1_554 S
C148 C151 1.511 1_554 S
C149 C145 1.376 1_556 S
C149 C148 1.392 1_556 S
C149 H161 0.929 . S
C150 C146 1.531 . S
C150 H162 0.960 . S
C150 H163 0.962 . S
C150 H164 0.960 . S
C151 C148 1.511 1_556 S
C151 H165 0.961 . S
C151 H166 0.961 . S
C151 H167 0.961 1_556 S
C152 C153 1.370 1_556 S
C152 C154 1.363 . S
C152 H168 0.931 . S
C153 C152 1.370 1_554 S
C153 C157 1.408 . S
C154 C152 1.363 . S
C154 C155 1.370 1_556 S
C154 C158 1.524 . S
C155 C147 1.503 . S
C155 C154 1.370 1_554 S
C155 C156 1.403 . S
C156 C155 1.403 . S
C156 C157 1.404 . S
C156 C159 1.539 . S
C157 C153 1.408 . S
C157 C156 1.404 . S
C157 H169 0.930 . S
C158 C154 1.524 . S
C158 H170 0.956 . S
C158 H171 0.961 . S
C158 H172 0.961 . S
C159 C156 1.539 . S
C159 H173 0.958 . S
C159 H174 0.961 . S
C159 H175 0.960 . S
H160 C144 0.931 . S
H161 C149 0.929 . S
H162 C150 0.960 . S
H163 C150 0.962 . S
H164 C150 0.960 . S
H165 C151 0.961 . S
H166 C151 0.961 . S
H167 C151 0.961 1_554 S
H168 C152 0.931 . S
H169 C157 0.930 . S
H170 C158 0.956 . S
H171 C158 0.961 . S
H172 C158 0.961 . S
H173 C159 0.958 . S
H174 C159 0.961 . S
H175 C159 0.960 . S
C176 C177 1.391 . S
C176 C178 1.394 . S
C176 H192 0.931 . S
C177 C176 1.391 . S
C177 C181 1.376 1_554 S
C178 C176 1.394 . S
C178 C179 1.369 . S
C178 C182 1.531 . S
C179 C178 1.369 . S
C179 C180 1.410 1_554 S
C179 C187 1.503 . S
C180 C179 1.410 1_556 S
C180 C181 1.392 . S
C180 C183 1.511 . S
C181 C177 1.376 1_556 S
C181 C180 1.392 . S
C181 H193 0.929 . S
C182 C178 1.531 . S
C182 H194 0.960 . S
C182 H195 0.962 . S
C182 H196 0.960 . S
C183 C180 1.511 . S
C183 H197 0.961 . S
C183 H198 0.961 . S
C183 H199 0.961 . S
C184 C185 1.370 . S
C184 C186 1.363 . S
C184 H200 0.931 . S
C185 C184 1.370 . S
C185 C189 1.408 . S
C186 C184 1.363 . S
C186 C187 1.370 . S
C186 C190 1.524 . S
C187 C179 1.503 . S
C187 C186 1.370 . S
C187 C188 1.403 . S
C188 C187 1.403 . S
C188 C189 1.404 . S
C188 C191 1.539 . S
C189 C185 1.408 . S
C189 C188 1.404 . S
C189 H201 0.930 . S
C190 C186 1.524 . S
C190 H202 0.956 . S
C190 H203 0.961 1_554 S
C190 H204 0.961 1_554 S
C191 C188 1.539 . S
C191 H205 0.958 . S
C191 H206 0.961 . S
C191 H207 0.960 . S
H192 C176 0.931 . S
H193 C181 0.929 . S
H194 C182 0.960 . S
H195 C182 0.962 . S
H196 C182 0.960 . S
H197 C183 0.961 . S
H198 C183 0.961 . S
H199 C183 0.961 . S
H200 C184 0.931 . S
H201 C189 0.930 . S
H202 C190 0.956 . S
H203 C190 0.961 1_556 S
H204 C190 0.961 1_556 S
H205 C191 0.958 . S
H206 C191 0.961 . S
H207 C191 0.960 . S
C208 C209 1.391 . S
C208 C210 1.394 . S
C208 H224 0.931 . S
C209 C208 1.391 . S
C209 C213 1.376 . S
C210 C208 1.394 . S
C210 C211 1.369 . S
C210 C214 1.531 . S
C211 C210 1.369 . S
C211 C212 1.410 . S
C211 C219 1.503 . S
C212 C211 1.410 . S
C212 C213 1.392 . S
C212 C215 1.511 . S
C213 C209 1.376 . S
C213 C212 1.392 . S
C213 H225 0.929 . S
C214 C210 1.531 . S
C214 H226 0.960 . S
C214 H227 0.962 1_554 S
C214 H228 0.960 . S
C215 C212 1.511 . S
C215 H229 0.961 . S
C215 H230 0.961 . S
C215 H231 0.961 . S
C216 C217 1.370 1_556 S
C216 C218 1.363 . S
C216 H232 0.931 . S
C217 C216 1.370 1_554 S
C217 C221 1.408 . S
C218 C216 1.363 . S
C218 C219 1.370 1_556 S
C218 C222 1.524 . S
C219 C211 1.503 . S
C219 C218 1.370 1_554 S
C219 C220 1.403 . S
C220 C219 1.403 . S
C220 C221 1.404 . S
C220 C223 1.539 . S
C221 C217 1.408 . S
C221 C220 1.404 . S
C221 H233 0.930 . S
C222 C218 1.524 . S
C222 H234 0.956 . S
C222 H235 0.961 . S
C222 H236 0.961 . S
C223 C220 1.539 . S
C223 H237 0.958 . S
C223 H238 0.961 . S
C223 H239 0.960 . S
H224 C208 0.931 . S
H225 C213 0.929 . S
H226 C214 0.960 . S
H227 C214 0.962 1_556 S
H228 C214 0.960 . S
H229 C215 0.961 . S
H230 C215 0.961 . S
H231 C215 0.961 . S
H232 C216 0.931 . S
H233 C221 0.930 . S
H234 C222 0.956 . S
H235 C222 0.961 . S
H236 C222 0.961 . S
H237 C223 0.958 . S
H238 C223 0.961 . S
H239 C223 0.960 . S
C240 C241 1.391 . S
C240 C242 1.394 . S
C240 H256 0.931 . S
C241 C240 1.391 . S
C241 C245 1.376 . S
C242 C240 1.394 . S
C242 C243 1.369 . S
C242 C246 1.531 . S
C243 C242 1.369 . S
C243 C244 1.410 . S
C243 C251 1.503 1_565 S
C244 C243 1.410 . S
C244 C245 1.392 . S
C244 C247 1.511 . S
C245 C241 1.376 . S
C245 C244 1.392 . S
C245 H257 0.929 . S
C246 C242 1.531 . S
C246 H258 0.994 . S
C246 H259 0.962 . S
C246 H260 0.960 . S
C247 C244 1.511 . S
C247 H261 0.961 . S
C247 H262 0.961 1_565 S
C247 H263 0.961 . S
C248 C249 1.370 . S
C248 C250 1.363 . S
C248 H264 0.931 . S
C249 C248 1.370 . S
C249 C253 1.408 . S
C250 C248 1.363 . S
C250 C251 1.370 . S
C250 C254 1.524 . S
C251 C243 1.503 1_545 S
C251 C250 1.370 . S
C251 C252 1.403 . S
C252 C251 1.403 . S
C252 C253 1.404 . S
C252 C255 1.539 . S
C253 C249 1.408 . S
C253 C252 1.404 . S
C253 H265 0.930 . S
C254 C250 1.524 . S
C254 H266 0.956 1_545 S
C254 H267 0.961 1_545 S
C254 H268 0.961 . S
C255 C252 1.539 . S
C255 H269 0.958 . S
C255 H270 0.961 . S
C255 H271 0.960 . S
H256 C240 0.931 . S
H257 C245 0.929 . S
H258 C246 0.994 . S
H259 C246 0.962 . S
H260 C246 0.960 . S
H261 C247 0.961 . S
H262 C247 0.961 1_545 S
H263 C247 0.961 . S
H264 C248 0.931 . S
H265 C253 0.930 . S
H266 C254 0.956 1_565 S
H267 C254 0.961 1_565 S
H268 C254 0.961 . S
H269 C255 0.958 . S
H270 C255 0.961 . S
H271 C255 0.960 . S
C272 C273 1.391 . S
C272 C274 1.394 . S
C272 H288 0.931 . S
C273 C272 1.391 . S
C273 C277 1.376 . S
C274 C272 1.394 . S
C274 C275 1.369 . S
C274 C278 1.531 . S
C275 C274 1.369 . S
C275 C276 1.410 . S
C275 C283 1.503 1_455 S
C276 C275 1.410 . S
C276 C277 1.392 . S
C276 C279 1.511 . S
C277 C273 1.376 . S
C277 C276 1.392 . S
C277 H289 0.929 . S
C278 C274 1.531 . S
C278 H290 0.960 1_455 S
C278 H291 0.962 . S
C278 H292 0.960 . S
C279 C276 1.511 . S
C279 H293 0.961 . S
C279 H294 0.961 1_455 S
C279 H295 0.961 . S
C280 C281 1.370 . S
C280 C282 1.363 . S
C280 H296 0.931 . S
C281 C280 1.370 . S
C281 C285 1.408 . S
C282 C280 1.363 . S
C282 C283 1.370 . S
C282 C286 1.524 . S
C283 C275 1.503 1_655 S
C283 C282 1.370 . S
C283 C284 1.403 . S
C284 C283 1.403 . S
C284 C285 1.404 . S
C284 C287 1.539 . S
C285 C281 1.408 . S
C285 C284 1.404 . S
C285 H297 0.930 . S
C286 C282 1.524 . S
C286 H298 0.956 1_655 S
C286 H299 0.961 1_655 S
C286 H300 0.961 . S
C287 C284 1.539 . S
C287 H301 0.958 . S
C287 H302 0.961 . S
C287 H303 0.960 . S
H288 C272 0.931 . S
H289 C277 0.929 . S
H290 C278 0.960 1_655 S
H291 C278 0.962 . S
H292 C278 0.960 . S
H293 C279 0.961 . S
H294 C279 0.961 1_655 S
H295 C279 0.961 . S
H296 C280 0.931 . S
H297 C285 0.930 . S
H298 C286 0.956 1_455 S
H299 C286 0.961 1_455 S
H300 C286 0.961 . S
H301 C287 0.958 . S
H302 C287 0.961 . S
H303 C287 0.960 . S
C304 C305 1.391 . S
C304 C306 1.394 . S
C304 H320 0.931 . S
C305 C304 1.391 . S
C305 C309 1.376 . S
C306 C304 1.394 . S
C306 C307 1.369 . S
C306 C310 1.531 . S
C307 C306 1.369 . S
C307 C308 1.410 . S
C307 C315 1.503 1_545 S
C308 C307 1.410 . S
C308 C309 1.392 . S
C308 C311 1.511 . S
C309 C305 1.376 . S
C309 C308 1.392 . S
C309 H321 0.929 . S
C310 C306 1.531 . S
C310 H322 0.960 1_545 S
C310 H323 0.962 . S
C310 H324 0.960 . S
C311 C308 1.511 . S
C311 H325 0.961 . S
C311 H326 0.961 1_545 S
C311 H327 0.961 . S
C312 C313 1.370 . S
C312 C314 1.363 . S
C312 H328 0.931 . S
C313 C312 1.370 . S
C313 C317 1.408 . S
C314 C312 1.363 . S
C314 C315 1.370 . S
C314 C318 1.524 . S
C315 C307 1.503 1_565 S
C315 C314 1.370 . S
C315 C316 1.403 . S
C316 C315 1.403 . S
C316 C317 1.404 . S
C316 C319 1.539 . S
C317 C313 1.408 . S
C317 C316 1.404 . S
C317 H329 0.930 . S
C318 C314 1.524 . S
C318 H330 0.956 1_565 S
C318 H331 0.961 1_565 S
C318 H332 0.961 . S
C319 C316 1.539 . S
C319 H333 0.958 . S
C319 H334 0.961 . S
C319 H335 0.960 . S
H320 C304 0.931 . S
H321 C309 0.929 . S
H322 C310 0.960 1_565 S
H323 C310 0.962 . S
H324 C310 0.960 . S
H325 C311 0.961 . S
H326 C311 0.961 1_565 S
H327 C311 0.961 . S
H328 C312 0.931 . S
H329 C317 0.930 . S
H330 C318 0.956 1_545 S
H331 C318 0.961 1_545 S
H332 C318 0.961 . S
H333 C319 0.958 . S
H334 C319 0.961 . S
H335 C319 0.960 . S
C336 C337 1.391 . S
C336 C338 1.394 . S
C336 H352 0.931 . S
C337 C336 1.391 . S
C337 C341 1.376 . S
C338 C336 1.394 . S
C338 C339 1.369 . S
C338 C342 1.531 . S
C339 C338 1.369 . S
C339 C340 1.410 . S
C339 C347 1.503 1_655 S
C340 C339 1.410 . S
C340 C341 1.392 . S
C340 C343 1.511 . S
C341 C337 1.376 . S
C341 C340 1.392 . S
C341 H353 0.929 . S
C342 C338 1.531 . S
C342 H354 0.960 1_655 S
C342 H355 0.962 . S
C342 H356 0.960 . S
C343 C340 1.511 . S
C343 H357 0.961 . S
C343 H358 0.961 1_655 S
C343 H359 0.961 . S
C344 C345 1.370 . S
C344 C346 1.363 . S
C344 H360 0.931 . S
C345 C344 1.370 . S
C345 C349 1.408 . S
C346 C344 1.363 . S
C346 C347 1.370 . S
C346 C350 1.524 . S
C347 C339 1.503 1_455 S
C347 C346 1.370 . S
C347 C348 1.403 . S
C348 C347 1.403 . S
C348 C349 1.404 . S
C348 C351 1.539 . S
C349 C345 1.408 . S
C349 C348 1.404 . S
C349 H361 0.930 . S
C350 C346 1.524 . S
C350 H362 0.956 1_455 S
C350 H363 0.961 1_455 S
C350 H364 0.961 . S
C351 C348 1.539 . S
C351 H365 0.958 . S
C351 H366 0.961 . S
C351 H367 0.960 . S
H352 C336 0.931 . S
H353 C341 0.929 . S
H354 C342 0.960 1_455 S
H355 C342 0.962 . S
H356 C342 0.960 . S
H357 C343 0.961 . S
H358 C343 0.961 1_455 S
H359 C343 0.961 . S
H360 C344 0.931 . S
H361 C349 0.930 . S
H362 C350 0.956 1_655 S
H363 C350 0.961 1_655 S
H364 C350 0.961 . S
H365 C351 0.958 . S
H366 C351 0.961 . S
H367 C351 0.960 . S
C368 C369 1.391 . S
C368 C370 1.394 . S
C368 H384 0.931 . S
C369 C368 1.391 . S
C369 C373 1.376 . S
C370 C368 1.394 . S
C370 C371 1.369 . S
C370 C374 1.531 . S
C371 C370 1.369 . S
C371 C372 1.410 . S
C371 C379 1.503 . S
C372 C371 1.410 . S
C372 C373 1.392 . S
C372 C375 1.511 . S
C373 C369 1.376 . S
C373 C372 1.392 . S
C373 H385 0.929 . S
C374 C370 1.531 . S
C374 H386 0.960 . S
C374 H387 0.962 . S
C374 H388 0.960 . S
C375 C372 1.511 . S
C375 H389 0.961 . S
C375 H390 0.961 . S
C375 H391 0.961 . S
C376 C377 1.370 . S
C376 C378 1.363 . S
C376 H392 0.931 . S
C377 C376 1.370 . S
C377 C381 1.408 . S
C378 C376 1.363 . S
C378 C379 1.370 . S
C378 C382 1.524 . S
C379 C371 1.503 . S
C379 C378 1.370 . S
C379 C380 1.403 . S
C380 C379 1.403 . S
C380 C381 1.404 . S
C380 C383 1.539 . S
C381 C377 1.408 . S
C381 C380 1.404 . S
C381 H393 0.930 . S
C382 C378 1.524 . S
C382 H394 0.956 . S
C382 H395 0.961 . S
C382 H396 0.961 . S
C383 C380 1.539 . S
C383 H397 0.958 . S
C383 H398 0.961 . S
C383 H399 0.960 . S
H384 C368 0.931 . S
H385 C373 0.929 . S
H386 C374 0.960 . S
H387 C374 0.962 . S
H388 C374 0.960 . S
H389 C375 0.961 . S
H390 C375 0.961 . S
H391 C375 0.961 . S
H392 C376 0.931 . S
H393 C381 0.930 . S
H394 C382 0.956 . S
H395 C382 0.961 . S
H396 C382 0.961 . S
H397 C383 0.958 . S
H398 C383 0.961 . S
H399 C383 0.960 . S
C400 C401 1.391 . S
C400 C402 1.394 . S
C400 H416 0.931 . S
C401 C400 1.391 . S
C401 C405 1.376 . S
C402 C400 1.394 . S
C402 C403 1.369 . S
C402 C406 1.531 . S
C403 C402 1.369 . S
C403 C404 1.410 . S
C403 C411 1.503 . S
C404 C403 1.410 . S
C404 C405 1.392 . S
C404 C407 1.511 . S
C405 C401 1.376 . S
C405 C404 1.392 . S
C405 H417 0.929 . S
C406 C402 1.531 . S
C406 H418 0.960 . S
C406 H419 0.962 . S
C406 H420 0.960 . S
C407 C404 1.511 . S
C407 H421 0.961 . S
C407 H422 0.961 . S
C407 H423 0.961 . S
C408 C409 1.370 . S
C408 C410 1.363 . S
C408 H424 0.931 . S
C409 C408 1.370 . S
C409 C413 1.408 . S
C410 C408 1.363 . S
C410 C411 1.370 . S
C410 C414 1.524 . S
C411 C403 1.503 . S
C411 C410 1.370 . S
C411 C412 1.403 . S
C412 C411 1.403 . S
C412 C413 1.404 . S
C412 C415 1.539 . S
C413 C409 1.408 . S
C413 C412 1.404 . S
C413 H425 0.930 . S
C414 C410 1.524 . S
C414 H426 0.956 . S
C414 H427 0.961 . S
C414 H428 0.961 . S
C415 C412 1.539 . S
C415 H429 0.958 . S
C415 H430 0.961 . S
C415 H431 0.960 . S
H416 C400 0.931 . S
H417 C405 0.929 . S
H418 C406 0.960 . S
H419 C406 0.962 . S
H420 C406 0.960 . S
H421 C407 0.961 . S
H422 C407 0.961 . S
H423 C407 0.961 . S
H424 C408 0.931 . S
H425 C413 0.930 . S
H426 C414 0.956 . S
H427 C414 0.961 . S
H428 C414 0.961 . S
H429 C415 0.958 . S
H430 C415 0.961 . S
H431 C415 0.960 . S
C432 C433 1.391 . S
C432 C434 1.394 . S
C432 H448 0.931 . S
C433 C432 1.391 . S
C433 C437 1.376 . S
C434 C432 1.394 . S
C434 C435 1.369 . S
C434 C438 1.531 . S
C435 C434 1.369 . S
C435 C436 1.410 . S
C435 C443 1.503 . S
C436 C435 1.410 . S
C436 C437 1.392 . S
C436 C439 1.511 . S
C437 C433 1.376 . S
C437 C436 1.392 . S
C437 H449 0.929 . S
C438 C434 1.531 . S
C438 H450 0.960 . S
C438 H451 0.962 . S
C438 H452 0.960 . S
C439 C436 1.511 . S
C439 H453 0.961 . S
C439 H454 0.961 . S
C439 H455 0.961 . S
C440 C441 1.370 . S
C440 C442 1.363 . S
C440 H456 0.931 . S
C441 C440 1.370 . S
C441 C445 1.408 . S
C442 C440 1.363 . S
C442 C443 1.370 . S
C442 C446 1.524 . S
C443 C435 1.503 . S
C443 C442 1.370 . S
C443 C444 1.403 . S
C444 C443 1.403 . S
C444 C445 1.404 . S
C444 C447 1.539 . S
C445 C441 1.408 . S
C445 C444 1.404 . S
C445 H457 0.930 . S
C446 C442 1.524 . S
C446 H458 0.956 . S
C446 H459 0.961 . S
C446 H460 0.961 . S
C447 C444 1.539 . S
C447 H461 0.958 . S
C447 H462 0.961 . S
C447 H463 0.960 . S
H448 C432 0.931 . S
H449 C437 0.929 . S
H450 C438 0.960 . S
H451 C438 0.962 . S
H452 C438 0.960 . S
H453 C439 0.961 . S
H454 C439 0.961 . S
H455 C439 0.961 . S
H456 C440 0.931 . S
H457 C445 0.930 . S
H458 C446 0.956 . S
H459 C446 0.961 . S
H460 C446 0.961 . S
H461 C447 0.958 . S
H462 C447 0.961 . S
H463 C447 0.960 . S
C464 C465 1.391 . S
C464 C466 1.394 . S
C464 H480 0.931 . S
C465 C464 1.391 . S
C465 C469 1.376 . S
C466 C464 1.394 . S
C466 C467 1.369 . S
C466 C470 1.531 . S
C467 C466 1.369 . S
C467 C468 1.410 . S
C467 C475 1.503 . S
C468 C467 1.410 . S
C468 C469 1.392 . S
C468 C471 1.511 . S
C469 C465 1.376 . S
C469 C468 1.392 . S
C469 H481 0.929 . S
C470 C466 1.531 . S
C470 H482 0.960 . S
C470 H483 0.962 . S
C470 H484 0.960 . S
C471 C468 1.511 . S
C471 H485 0.961 . S
C471 H486 0.961 . S
C471 H487 0.961 . S
C472 C473 1.370 . S
C472 C474 1.363 . S
C472 H488 0.931 . S
C473 C472 1.370 . S
C473 C477 1.408 . S
C474 C472 1.363 . S
C474 C475 1.370 . S
C474 C478 1.524 . S
C475 C467 1.503 . S
C475 C474 1.370 . S
C475 C476 1.403 . S
C476 C475 1.403 . S
C476 C477 1.404 . S
C476 C479 1.539 . S
C477 C473 1.408 . S
C477 C476 1.404 . S
C477 H489 0.930 . S
C478 C474 1.524 . S
C478 H490 0.956 . S
C478 H491 0.961 . S
C478 H492 0.961 . S
C479 C476 1.539 . S
C479 H493 0.958 . S
C479 H494 0.961 . S
C479 H495 0.960 . S
H480 C464 0.931 . S
H481 C469 0.929 . S
H482 C470 0.960 . S
H483 C470 0.962 . S
H484 C470 0.960 . S
H485 C471 0.961 . S
H486 C471 0.961 . S
H487 C471 0.961 . S
H488 C472 0.931 . S
H489 C477 0.930 . S
H490 C478 0.956 . S
H491 C478 0.961 . S
H492 C478 0.961 . S
H493 C479 0.958 . S
H494 C479 0.961 . S
H495 C479 0.960 . S
C496 C497 1.391 . S
C496 C498 1.394 . S
C496 H512 0.931 . S
C497 C496 1.391 . S
C497 C501 1.376 . S
C498 C496 1.394 . S
C498 C499 1.369 . S
C498 C502 1.531 . S
C499 C498 1.369 . S
C499 C500 1.410 . S
C499 C507 1.503 . S
C500 C499 1.410 . S
C500 C501 1.392 . S
C500 C503 1.511 . S
C501 C497 1.376 . S
C501 C500 1.392 . S
C501 H513 0.929 . S
C502 C498 1.531 . S
C502 H514 0.960 . S
C502 H515 0.962 . S
C502 H516 0.960 . S
C503 C500 1.511 . S
C503 H517 0.961 . S
C503 H518 0.961 . S
C503 H519 0.961 . S
C504 C505 1.370 . S
C504 C506 1.363 . S
C504 H520 0.931 . S
C505 C504 1.370 . S
C505 C509 1.408 . S
C506 C504 1.363 . S
C506 C507 1.370 . S
C506 C510 1.524 . S
C507 C499 1.503 . S
C507 C506 1.370 . S
C507 C508 1.403 . S
C508 C507 1.403 . S
C508 C509 1.404 . S
C508 C511 1.539 . S
C509 C505 1.408 . S
C509 C508 1.404 . S
C509 H521 0.930 . S
C510 C506 1.524 . S
C510 H522 0.956 . S
C510 H523 0.961 . S
C510 H524 0.961 . S
C511 C508 1.539 . S
C511 H525 0.958 . S
C511 H526 0.961 . S
C511 H527 0.960 . S
H512 C496 0.931 . S
H513 C501 0.929 . S
H514 C502 0.960 . S
H515 C502 0.962 . S
H516 C502 0.960 . S
H517 C503 0.961 . S
H518 C503 0.961 . S
H519 C503 0.961 . S
H520 C504 0.931 . S
H521 C509 0.930 . S
H522 C510 0.956 . S
H523 C510 0.961 . S
H524 C510 0.961 . S
H525 C511 0.958 . S
H526 C511 0.961 . S
H527 C511 0.960 . S
C528 C529 1.391 . S
C528 C530 1.394 . S
C528 H544 0.931 . S
C529 C528 1.391 . S
C529 C533 1.376 . S
C530 C528 1.394 . S
C530 C531 1.369 . S
C530 C534 1.531 . S
C531 C530 1.369 . S
C531 C532 1.410 . S
C531 C539 1.503 . S
C532 C531 1.410 . S
C532 C533 1.392 . S
C532 C535 1.511 . S
C533 C529 1.376 . S
C533 C532 1.392 . S
C533 H545 0.929 . S
C534 C530 1.531 . S
C534 H546 0.960 . S
C534 H547 0.962 . S
C534 H548 0.960 . S
C535 C532 1.511 . S
C535 H549 0.961 . S
C535 H550 0.961 . S
C535 H551 0.961 . S
C536 C537 1.370 . S
C536 C538 1.363 . S
C536 H552 0.931 . S
C537 C536 1.370 . S
C537 C541 1.408 . S
C538 C536 1.363 . S
C538 C539 1.370 . S
C538 C542 1.524 . S
C539 C531 1.503 . S
C539 C538 1.370 . S
C539 C540 1.403 . S
C540 C539 1.403 . S
C540 C541 1.404 . S
C540 C543 1.539 . S
C541 C537 1.408 . S
C541 C540 1.404 . S
C541 H553 0.930 . S
C542 C538 1.524 . S
C542 H554 0.956 . S
C542 H555 0.961 . S
C542 H556 0.961 . S
C543 C540 1.539 . S
C543 H557 0.958 . S
C543 H558 0.961 . S
C543 H559 0.960 . S
H544 C528 0.931 . S
H545 C533 0.929 . S
H546 C534 0.960 . S
H547 C534 0.962 . S
H548 C534 0.960 . S
H549 C535 0.961 . S
H550 C535 0.961 . S
H551 C535 0.961 . S
H552 C536 0.931 . S
H553 C541 0.930 . S
H554 C542 0.956 . S
H555 C542 0.961 . S
H556 C542 0.961 . S
H557 C543 0.958 . S
H558 C543 0.961 . S
H559 C543 0.960 . S
C560 C561 1.391 . S
C560 C562 1.394 . S
C560 H576 0.931 . S
C561 C560 1.391 . S
C561 C565 1.376 . S
C562 C560 1.394 . S
C562 C563 1.369 . S
C562 C566 1.531 . S
C563 C562 1.369 . S
C563 C564 1.410 . S
C563 C571 1.503 . S
C564 C563 1.410 . S
C564 C565 1.392 . S
C564 C567 1.511 . S
C565 C561 1.376 . S
C565 C564 1.392 . S
C565 H577 0.929 . S
C566 C562 1.531 . S
C566 H578 0.960 . S
C566 H579 0.962 . S
C566 H580 0.960 . S
C567 C564 1.511 . S
C567 H581 0.961 . S
C567 H582 0.961 . S
C567 H583 0.961 . S
C568 C569 1.370 . S
C568 C570 1.363 . S
C568 H584 0.931 . S
C569 C568 1.370 . S
C569 C573 1.408 . S
C570 C568 1.363 . S
C570 C571 1.370 . S
C570 C574 1.524 . S
C571 C563 1.503 . S
C571 C570 1.370 . S
C571 C572 1.403 . S
C572 C571 1.403 . S
C572 C573 1.404 . S
C572 C575 1.539 . S
C573 C569 1.408 . S
C573 C572 1.404 . S
C573 H585 0.930 . S
C574 C570 1.524 . S
C574 H586 0.956 . S
C574 H587 0.961 . S
C574 H588 0.961 . S
C575 C572 1.539 . S
C575 H589 0.958 . S
C575 H590 0.961 . S
C575 H591 0.960 . S
H576 C560 0.931 . S
H577 C565 0.929 . S
H578 C566 0.960 . S
H579 C566 0.962 . S
H580 C566 0.960 . S
H581 C567 0.961 . S
H582 C567 0.961 . S
H583 C567 0.961 . S
H584 C568 0.931 . S
H585 C573 0.930 . S
H586 C574 0.956 . S
H587 C574 0.961 . S
H588 C574 0.961 . S
H589 C575 0.958 . S
H590 C575 0.961 . S
H591 C575 0.960 . S
C592 C593 1.391 . S
C592 C594 1.394 . S
C592 H608 0.931 . S
C593 C592 1.391 . S
C593 C597 1.376 . S
C594 C592 1.394 . S
C594 C595 1.369 . S
C594 C598 1.531 . S
C595 C594 1.369 . S
C595 C596 1.410 . S
C595 C603 1.503 . S
C596 C595 1.410 . S
C596 C597 1.392 . S
C596 C599 1.511 . S
C597 C593 1.376 . S
C597 C596 1.392 . S
C597 H609 0.929 . S
C598 C594 1.531 . S
C598 H610 0.960 . S
C598 H611 0.962 . S
C598 H612 0.960 . S
C599 C596 1.511 . S
C599 H613 0.961 . S
C599 H614 0.961 . S
C599 H615 0.961 . S
C600 C601 1.370 . S
C600 C602 1.363 . S
C600 H616 0.931 . S
C601 C600 1.370 . S
C601 C605 1.408 . S
C602 C600 1.363 . S
C602 C603 1.370 . S
C602 C606 1.524 . S
C603 C595 1.503 . S
C603 C602 1.370 . S
C603 C604 1.403 . S
C604 C603 1.403 . S
C604 C605 1.404 . S
C604 C607 1.539 . S
C605 C601 1.408 . S
C605 C604 1.404 . S
C605 H617 0.930 . S
C606 C602 1.524 . S
C606 H618 0.956 . S
C606 H619 0.961 . S
C606 H620 0.961 . S
C607 C604 1.539 . S
C607 H621 0.958 . S
C607 H622 0.961 . S
C607 H623 0.960 . S
H608 C592 0.931 . S
H609 C597 0.929 . S
H610 C598 0.960 . S
H611 C598 0.962 . S
H612 C598 0.960 . S
H613 C599 0.961 . S
H614 C599 0.961 . S
H615 C599 0.961 . S
H616 C600 0.931 . S
H617 C605 0.930 . S
H618 C606 0.956 . S
H619 C606 0.961 . S
H620 C606 0.961 . S
H621 C607 0.958 . S
H622 C607 0.961 . S
H623 C607 0.960 . S
C113 C3 1.523 . S
C121 C45 1.537 1_554 S
C145 C9 1.536 . S
C153 C23 1.542 . S
C177 C17 1.531 1_554 S
C185 C31 1.536 . S
C209 C51 1.538 . S
C217 C37 1.535 . S
C241 C59 1.540 . S
C249 C101 1.531 . S
C273 C79 1.533 . S
C281 C65 1.533 . S
C305 C87 1.539 . S
C313 C73 1.528 . S
C337 C107 1.540 . S
C345 C93 1.536 . S
C369 C91 1.481 . S
C377 C8 1.487 . S
C401 C21 1.431 . S
C409 C106 1.492 . S
C433 C63 1.481 . S
C441 C36 1.486 . S
C465 C78 1.476 . S
C473 C49 1.452 . S
C497 C77 1.481 . S
C505 C50 1.485 . S
C529 C7 1.466 . S
C537 C92 1.483 . S
C561 C22 1.479 . S
C569 C105 1.450 . S
C593 C35 1.477 . S
C601 C64 1.484 . S
