# Generated by pormake.
# Topology vci, (7)-cn, num edge types: 1
# Building blocks:
#     Node 0, Type 0, BuildingBlock: NUHQUE_clean_sbu_2, # of connection points: 7
#     Node 1, Type 0, BuildingBlock: NUHQUE_clean_sbu_2, # of connection points: 7
#     Node 2, Type 0, BuildingBlock: NUHQUE_clean_sbu_2, # of connection points: 7
#     Node 3, Type 0, BuildingBlock: NUHQUE_clean_sbu_2, # of connection points: 7
#     Node 4, Type 0, BuildingBlock: NUHQUE_clean_sbu_2, # of connection points: 7
#     Node 5, Type 0, BuildingBlock: NUHQUE_clean_sbu_2, # of connection points: 7
#     Node 6, Type 0, BuildingBlock: NUHQUE_clean_sbu_2, # of connection points: 7
#     Node 7, Type 0, BuildingBlock: NUHQUE_clean_sbu_2, # of connection points: 7
#     Node 8, Type 0, BuildingBlock: NUHQUE_clean_sbu_2, # of connection points: 7
#     Node 9, Type 0, BuildingBlock: NUHQUE_clean_sbu_2, # of connection points: 7
#     Node 10, Type 0, BuildingBlock: NUHQUE_clean_sbu_2, # of connection points: 7
#     Node 11, Type 0, BuildingBlock: NUHQUE_clean_sbu_2, # of connection points: 7
#     Node 12, Type 0, BuildingBlock: NUHQUE_clean_sbu_2, # of connection points: 7
#     Node 13, Type 0, BuildingBlock: NUHQUE_clean_sbu_2, # of connection points: 7
#     Node 14, Type 0, BuildingBlock: NUHQUE_clean_sbu_2, # of connection points: 7
#     Node 15, Type 0, BuildingBlock: NUHQUE_clean_sbu_2, # of connection points: 7
#     Edge 16, Type (0, 0), BuildingBlock: XUDNAN_clean_linker_2, # of connection points: 2
#     Edge 17, Type (0, 0), BuildingBlock: XUDNAN_clean_linker_2, # of connection points: 2
#     Edge 18, Type (0, 0), BuildingBlock: XUDNAN_clean_linker_2, # of connection points: 2
#     Edge 19, Type (0, 0), BuildingBlock: XUDNAN_clean_linker_2, # of connection points: 2
#     Edge 20, Type (0, 0), BuildingBlock: XUDNAN_clean_linker_2, # of connection points: 2
#     Edge 21, Type (0, 0), BuildingBlock: XUDNAN_clean_linker_2, # of connection points: 2
#     Edge 22, Type (0, 0), BuildingBlock: XUDNAN_clean_linker_2, # of connection points: 2
#     Edge 23, Type (0, 0), BuildingBlock: XUDNAN_clean_linker_2, # of connection points: 2
#     Edge 24, Type (0, 0), BuildingBlock: XUDNAN_clean_linker_2, # of connection points: 2
#     Edge 25, Type (0, 0), BuildingBlock: XUDNAN_clean_linker_2, # of connection points: 2
#     Edge 26, Type (0, 0), BuildingBlock: XUDNAN_clean_linker_2, # of connection points: 2
#     Edge 27, Type (0, 0), BuildingBlock: XUDNAN_clean_linker_2, # of connection points: 2
#     Edge 28, Type (0, 0), BuildingBlock: XUDNAN_clean_linker_2, # of connection points: 2
#     Edge 29, Type (0, 0), BuildingBlock: XUDNAN_clean_linker_2, # of connection points: 2
#     Edge 30, Type (0, 0), BuildingBlock: XUDNAN_clean_linker_2, # of connection points: 2
#     Edge 31, Type (0, 0), BuildingBlock: XUDNAN_clean_linker_2, # of connection points: 2
#     Edge 32, Type (0, 0), BuildingBlock: XUDNAN_clean_linker_2, # of connection points: 2
#     Edge 33, Type (0, 0), BuildingBlock: XUDNAN_clean_linker_2, # of connection points: 2
#     Edge 34, Type (0, 0), BuildingBlock: XUDNAN_clean_linker_2, # of connection points: 2
#     Edge 35, Type (0, 0), BuildingBlock: XUDNAN_clean_linker_2, # of connection points: 2
#     Edge 36, Type (0, 0), BuildingBlock: XUDNAN_clean_linker_2, # of connection points: 2
#     Edge 37, Type (0, 0), BuildingBlock: XUDNAN_clean_linker_2, # of connection points: 2
#     Edge 38, Type (0, 0), BuildingBlock: XUDNAN_clean_linker_2, # of connection points: 2
#     Edge 39, Type (0, 0), BuildingBlock: XUDNAN_clean_linker_2, # of connection points: 2
#     Edge 40, Type (0, 0), BuildingBlock: XUDNAN_clean_linker_2, # of connection points: 2
#     Edge 41, Type (0, 0), BuildingBlock: XUDNAN_clean_linker_2, # of connection points: 2
#     Edge 42, Type (0, 0), BuildingBlock: XUDNAN_clean_linker_2, # of connection points: 2
#     Edge 43, Type (0, 0), BuildingBlock: XUDNAN_clean_linker_2, # of connection points: 2
#     Edge 44, Type (0, 0), BuildingBlock: XUDNAN_clean_linker_2, # of connection points: 2
#     Edge 45, Type (0, 0), BuildingBlock: XUDNAN_clean_linker_2, # of connection points: 2
#     Edge 46, Type (0, 0), BuildingBlock: XUDNAN_clean_linker_2, # of connection points: 2
#     Edge 47, Type (0, 0), BuildingBlock: XUDNAN_clean_linker_2, # of connection points: 2
#     Edge 48, Type (0, 0), BuildingBlock: XUDNAN_clean_linker_2, # of connection points: 2
#     Edge 49, Type (0, 0), BuildingBlock: XUDNAN_clean_linker_2, # of connection points: 2
#     Edge 50, Type (0, 0), BuildingBlock: XUDNAN_clean_linker_2, # of connection points: 2
#     Edge 51, Type (0, 0), BuildingBlock: XUDNAN_clean_linker_2, # of connection points: 2
#     Edge 52, Type (0, 0), BuildingBlock: XUDNAN_clean_linker_2, # of connection points: 2
#     Edge 53, Type (0, 0), BuildingBlock: XUDNAN_clean_linker_2, # of connection points: 2
#     Edge 54, Type (0, 0), BuildingBlock: XUDNAN_clean_linker_2, # of connection points: 2
#     Edge 55, Type (0, 0), BuildingBlock: XUDNAN_clean_linker_2, # of connection points: 2
#     Edge 56, Type (0, 0), BuildingBlock: XUDNAN_clean_linker_2, # of connection points: 2
#     Edge 57, Type (0, 0), BuildingBlock: XUDNAN_clean_linker_2, # of connection points: 2
#     Edge 58, Type (0, 0), BuildingBlock: XUDNAN_clean_linker_2, # of connection points: 2
#     Edge 59, Type (0, 0), BuildingBlock: XUDNAN_clean_linker_2, # of connection points: 2
#     Edge 60, Type (0, 0), BuildingBlock: XUDNAN_clean_linker_2, # of connection points: 2
#     Edge 61, Type (0, 0), BuildingBlock: XUDNAN_clean_linker_2, # of connection points: 2
#     Edge 62, Type (0, 0), BuildingBlock: XUDNAN_clean_linker_2, # of connection points: 2
#     Edge 63, Type (0, 0), BuildingBlock: XUDNAN_clean_linker_2, # of connection points: 2
#     Edge 64, Type (0, 0), BuildingBlock: XUDNAN_clean_linker_2, # of connection points: 2
#     Edge 65, Type (0, 0), BuildingBlock: XUDNAN_clean_linker_2, # of connection points: 2
#     Edge 66, Type (0, 0), BuildingBlock: XUDNAN_clean_linker_2, # of connection points: 2
#     Edge 67, Type (0, 0), BuildingBlock: XUDNAN_clean_linker_2, # of connection points: 2
#     Edge 68, Type (0, 0), BuildingBlock: XUDNAN_clean_linker_2, # of connection points: 2
#     Edge 69, Type (0, 0), BuildingBlock: XUDNAN_clean_linker_2, # of connection points: 2
#     Edge 70, Type (0, 0), BuildingBlock: XUDNAN_clean_linker_2, # of connection points: 2
#     Edge 71, Type (0, 0), BuildingBlock: XUDNAN_clean_linker_2, # of connection points: 2
# Relax obj value: 0.143
# Max RMSD: 0.214
# Mean RMSD: 0.214
data_MOF--net-vci--node1-NUHQUE_clean_sbu_2--edge1-XUDNAN_clean_linker_2
_symmetry_space_group_name_H-M    P1
_symmetry_Int_Tables_number       1
_symmetry_cell_setting            triclinic
loop_
_symmetry_equiv_pos_as_xyz
'x, y, z'
_cell_length_a     52.298948
_cell_length_b     67.05819
_cell_length_c     21.55078
_cell_angle_alpha  90.142235
_cell_angle_beta   89.978301
_cell_angle_gamma 89.944479
loop_
_atom_site_label
_atom_site_type_symbol
_atom_site_fract_x
_atom_site_fract_y
_atom_site_fract_z
_atom_type_partial_charge
O0 O 0.13121 0.1731 0.17914 0.0
Tb1 Tb 0.12353 0.14159 0.17152 0.0
Eu2 Eu 0.14643 0.12576 0.97747 0.0
C3 C 0.15044 0.17903 0.21375 0.0
O4 O 0.16563 0.1656 0.23841 0.0
C5 C 0.17143 0.12605 0.09906 0.0
O6 O 0.13738 0.09285 0.97487 0.0
C7 C 0.16102 0.13956 0.87071 0.0
C8 C 0.12588 0.08395 0.0215 0.0
O9 O 0.11853 0.09459 0.06947 0.0
C10 C 0.09275 0.13446 0.04803 0.0
C11 C 0.15302 0.15142 0.81613 0.0
C12 C 0.16099 0.17143 0.8092 0.0
C13 C 0.15666 0.18157 0.7531 0.0
C14 C 0.14386 0.17182 0.70473 0.0
C15 C 0.13583 0.15209 0.7112 0.0
C16 C 0.14038 0.14191 0.76655 0.0
O17 O 0.14665 0.12744 0.10277 0.0
O18 O 0.17995 0.12371 0.04291 0.0
O19 O 0.13699 0.12704 0.25563 0.0
O20 O 0.09731 0.13378 0.246 0.0
C21 C 0.11467 0.12629 0.28248 0.0
O22 O 0.11185 0.14269 0.01679 0.0
O23 O 0.0923 0.13466 0.10951 0.0
O24 O 0.15035 0.12197 0.87816 0.0
O25 O 0.16525 0.14897 0.92331 0.0
H26 H 0.1716 0.17876 0.84592 0.0
H27 H 0.14083 0.17944 0.66095 0.0
H28 H 0.13501 0.12634 0.76966 0.0
O29 O 0.36387 0.82819 0.66472 0.0
Tb30 Tb 0.36286 0.86038 0.65939 0.0
Eu31 Eu 0.34679 0.88866 0.47703 0.0
C32 C 0.38657 0.81985 0.66773 0.0
O33 O 0.40686 0.83121 0.66145 0.0
C34 C 0.31829 0.88049 0.58913 0.0
O35 O 0.35285 0.9206 0.44755 0.0
C36 C 0.33604 0.86437 0.38612 0.0
C37 C 0.35126 0.93491 0.48938 0.0
O38 O 0.34623 0.93008 0.54717 0.0
C39 C 0.4036 0.87836 0.55761 0.0
C40 C 0.34509 0.85361 0.32965 0.0
C41 C 0.34804 0.83264 0.3303 0.0
C42 C 0.35278 0.82202 0.27488 0.0
C43 C 0.35525 0.83261 0.2192 0.0
C44 C 0.3524 0.85338 0.21747 0.0
C45 C 0.34729 0.86379 0.27271 0.0
O46 O 0.34048 0.87173 0.58562 0.0
O47 O 0.31306 0.89129 0.54126 0.0
O48 O 0.38054 0.86913 0.74692 0.0
O49 O 0.34049 0.87329 0.73556 0.0
C50 C 0.35961 0.87507 0.77388 0.0
O51 O 0.38798 0.88398 0.51167 0.0
O52 O 0.39718 0.87089 0.6127 0.0
O53 O 0.33329 0.88386 0.383 0.0
O54 O 0.34374 0.85819 0.44095 0.0
H55 H 0.34544 0.82449 0.37322 0.0
H56 H 0.35867 0.82449 0.17638 0.0
H57 H 0.34445 0.87979 0.27082 0.0
O58 O 0.13748 0.82471 0.82266 0.0
Tb59 Tb 0.14049 0.85683 0.8317 0.0
Eu60 Eu 0.14148 0.89233 0.992 0.0
C61 C 0.15265 0.81319 0.85531 0.0
O62 O 0.1673 0.82128 0.89791 0.0
C63 C 0.18086 0.87939 0.89967 0.0
O64 O 0.13149 0.9244 0.01096 0.0
C65 C 0.15322 0.87485 0.09639 0.0
C66 C 0.13606 0.93859 0.97053 0.0
O67 O 0.1464 0.93399 0.9168 0.0
C68 C 0.09075 0.87383 0.907 0.0
C69 C 0.145 0.86466 0.1546 0.0
C70 C 0.13954 0.84405 0.15367 0.0
C71 C 0.13541 0.83354 0.20911 0.0
C72 C 0.13599 0.84389 0.26555 0.0
C73 C 0.14248 0.8641 0.26856 0.0
C74 C 0.14656 0.87461 0.21274 0.0
O75 O 0.16441 0.8651 0.90762 0.0
O76 O 0.17653 0.89559 0.93134 0.0
O77 O 0.16133 0.85682 0.7432 0.0
O78 O 0.1335 0.87918 0.75925 0.0
C79 C 0.14967 0.87208 0.71887 0.0
O80 O 0.102 0.88358 0.95375 0.0
O81 O 0.10192 0.86354 0.8617 0.0
O82 O 0.1496 0.89416 0.09138 0.0
O83 O 0.151 0.86532 0.04311 0.0
H84 H 0.13975 0.83595 0.11012 0.0
H85 H 0.13198 0.83598 0.30829 0.0
H86 H 0.15212 0.89016 0.21474 0.0
O87 O 0.36829 0.18047 0.34883 0.0
Tb88 Tb 0.35942 0.14876 0.35158 0.0
Eu89 Eu 0.34661 0.12307 0.51216 0.0
C90 C 0.35419 0.19245 0.3145 0.0
O91 O 0.33386 0.18517 0.28677 0.0
C92 C 0.30815 0.13622 0.40571 0.0
O93 O 0.35388 0.08986 0.50709 0.0
C94 C 0.32825 0.13385 0.61901 0.0
C95 C 0.35886 0.0813 0.45342 0.0
O96 O 0.36066 0.09252 0.40373 0.0
C97 C 0.39945 0.13591 0.45099 0.0
C98 C 0.33562 0.14628 0.67295 0.0
C99 C 0.34377 0.16616 0.66534 0.0
C100 C 0.35003 0.17776 0.71729 0.0
C101 C 0.34849 0.16952 0.7766 0.0
C102 C 0.34123 0.14958 0.78527 0.0
C103 C 0.33443 0.13809 0.73309 0.0
O104 O 0.32277 0.1519 0.39769 0.0
O105 O 0.31578 0.12123 0.44007 0.0
O106 O 0.3697 0.15099 0.2539 0.0
O107 O 0.34148 0.12991 0.28019 0.0
C108 C 0.35414 0.13739 0.23369 0.0
O109 O 0.38402 0.13895 0.49818 0.0
O110 O 0.39089 0.13265 0.39448 0.0
O111 O 0.34119 0.11723 0.61077 0.0
O112 O 0.32303 0.14319 0.56683 0.0
H113 H 0.34527 0.17263 0.61944 0.0
H114 H 0.35316 0.17881 0.81628 0.0
H115 H 0.32864 0.12269 0.73901 0.0
O116 O 0.84628 0.83473 0.81104 0.0
Tb117 Tb 0.8644 0.86351 0.82681 0.0
Eu118 Eu 0.85488 0.89336 0.01635 0.0
C119 C 0.8365 0.82339 0.85459 0.0
O120 O 0.83493 0.83014 0.91175 0.0
C121 C 0.82269 0.88461 0.90023 0.0
O122 O 0.84694 0.92653 0.02051 0.0
C123 C 0.85032 0.87564 0.12292 0.0
C124 C 0.86451 0.93954 0.03727 0.0
O125 O 0.88721 0.93306 0.05389 0.0
C126 C 0.90305 0.87731 0.92865 0.0
C127 C 0.86273 0.86323 0.1713 0.0
C128 C 0.86341 0.84225 0.16542 0.0
C129 C 0.87199 0.83039 0.21476 0.0
C130 C 0.88068 0.83945 0.26922 0.0
C131 C 0.88034 0.8602 0.27592 0.0
C132 C 0.87101 0.87208 0.22732 0.0
O133 O 0.84577 0.88672 0.87838 0.0
O134 O 0.81947 0.88786 0.95943 0.0
O135 O 0.85933 0.8799 0.74042 0.0
O136 O 0.89452 0.86467 0.757 0.0
C137 C 0.88168 0.87544 0.71744 0.0
O138 O 0.89429 0.88961 0.97211 0.0
O139 O 0.88969 0.86196 0.90763 0.0
O140 O 0.85732 0.89442 0.11743 0.0
O141 O 0.84478 0.86711 0.06952 0.0
H142 H 0.85633 0.83504 0.12378 0.0
H143 H 0.88722 0.83022 0.30738 0.0
H144 H 0.86989 0.8881 0.23358 0.0
O145 O 0.62258 0.18053 0.31825 0.0
Tb146 Tb 0.62658 0.14847 0.32648 0.0
Eu147 Eu 0.64379 0.1172 0.50428 0.0
C148 C 0.64226 0.19235 0.30951 0.0
O149 O 0.66557 0.18527 0.31498 0.0
C150 C 0.67209 0.12588 0.39139 0.0
O151 O 0.63869 0.08373 0.50826 0.0
C152 C 0.65779 0.13364 0.60797 0.0
C153 C 0.62167 0.07553 0.47129 0.0
O154 O 0.60822 0.08717 0.43478 0.0
C155 C 0.58689 0.13491 0.43514 0.0
C156 C 0.64967 0.1447 0.66432 0.0
C157 C 0.65432 0.16543 0.66909 0.0
C158 C 0.65087 0.17536 0.72594 0.0
C159 C 0.64235 0.16468 0.77746 0.0
C160 C 0.63797 0.14416 0.77382 0.0
C161 C 0.6413 0.1342 0.71723 0.0
O162 O 0.64994 0.13472 0.39453 0.0
O163 O 0.67765 0.11585 0.44063 0.0
O164 O 0.64412 0.14472 0.23564 0.0
O165 O 0.60853 0.1304 0.2542 0.0
C166 C 0.62615 0.13349 0.2126 0.0
O167 O 0.60316 0.12716 0.47656 0.0
O168 O 0.59228 0.14237 0.37942 0.0
O169 O 0.65135 0.11472 0.603 0.0
O170 O 0.65775 0.14318 0.55464 0.0
H171 H 0.66201 0.17358 0.62994 0.0
H172 H 0.64032 0.17224 0.82181 0.0
H173 H 0.63889 0.11815 0.71567 0.0
O174 O 0.86341 0.17123 0.14638 0.0
Tb175 Tb 0.87277 0.13954 0.15755 0.0
Eu176 Eu 0.85297 0.13249 0.99405 0.0
C177 C 0.8584 0.18221 0.19596 0.0
O178 O 0.85717 0.17359 0.25046 0.0
C179 C 0.81812 0.13352 0.1113 0.0
O180 O 0.84686 0.09937 0.0093 0.0
C181 C 0.83989 0.14221 0.88211 0.0
C182 C 0.86528 0.08652 0.02127 0.0
O183 O 0.88887 0.09291 0.02725 0.0
C184 C 0.90969 0.13569 0.0461 0.0
C185 C 0.84817 0.15484 0.8298 0.0
C186 C 0.84847 0.17582 0.83481 0.0
C187 C 0.85343 0.18774 0.78257 0.0
C188 C 0.8593 0.17837 0.72601 0.0
C189 C 0.85814 0.15764 0.72004 0.0
C190 C 0.8527 0.14588 0.77188 0.0
O191 O 0.83723 0.12435 0.1379 0.0
O192 O 0.82109 0.14199 0.05724 0.0
O193 O 0.89204 0.14432 0.24735 0.0
O194 O 0.86283 0.12289 0.24023 0.0
C195 C 0.8786 0.13139 0.27831 0.0
O196 O 0.89258 0.14471 0.01134 0.0
O197 O 0.9036 0.12808 0.10038 0.0
O198 O 0.85372 0.12632 0.89455 0.0
O199 O 0.8314 0.15139 0.93193 0.0
H200 H 0.84344 0.18287 0.8784 0.0
H201 H 0.8632 0.18721 0.68503 0.0
H202 H 0.85067 0.12988 0.76639 0.0
O203 O 0.6342 0.82309 0.65297 0.0
Tb204 Tb 0.63398 0.85548 0.65453 0.0
Eu205 Eu 0.64943 0.88746 0.49274 0.0
C206 C 0.65603 0.81347 0.64766 0.0
O207 O 0.67673 0.82339 0.63261 0.0
C208 C 0.68183 0.87522 0.60242 0.0
O209 O 0.64615 0.9209 0.48149 0.0
C210 C 0.6637 0.86874 0.39209 0.0
C211 C 0.62477 0.92843 0.45959 0.0
O212 O 0.60664 0.91612 0.44191 0.0
C213 C 0.59177 0.87274 0.55894 0.0
C214 C 0.65534 0.85583 0.33918 0.0
C215 C 0.65595 0.83484 0.34517 0.0
C216 C 0.65006 0.82244 0.29456 0.0
C217 C 0.64344 0.83103 0.23781 0.0
C218 C 0.64519 0.85172 0.22826 0.0
C219 C 0.65047 0.86412 0.27988 0.0
O220 O 0.66524 0.86106 0.5927 0.0
O221 O 0.68162 0.88969 0.56227 0.0
O222 O 0.63554 0.84713 0.75217 0.0
O223 O 0.63714 0.87789 0.72974 0.0
C224 C 0.63711 0.86499 0.77508 0.0
O225 O 0.6078 0.88025 0.51694 0.0
O226 O 0.59802 0.86385 0.61186 0.0
O227 O 0.65668 0.8876 0.39271 0.0
O228 O 0.66435 0.86077 0.44789 0.0
H229 H 0.66184 0.82806 0.38848 0.0
H230 H 0.63879 0.82121 0.19942 0.0
H231 H 0.65217 0.88007 0.27333 0.0
O232 O 0.63836 0.67274 0.17541 0.0
Tb233 Tb 0.63391 0.64033 0.18105 0.0
Eu234 Eu 0.64704 0.62633 0.01016 0.0
C235 C 0.66105 0.68119 0.17778 0.0
O236 O 0.68141 0.66995 0.1719 0.0
C237 C 0.68473 0.62643 0.12383 0.0
O238 O 0.64354 0.59343 0.03224 0.0
C239 C 0.6567 0.63168 0.8934 0.0
C240 C 0.62089 0.58506 0.03718 0.0
O241 O 0.60037 0.59616 0.03093 0.0
C242 C 0.59471 0.63837 0.07413 0.0
C243 C 0.64663 0.64364 0.84134 0.0
C244 C 0.64894 0.66459 0.84091 0.0
C245 C 0.6404 0.67569 0.7898 0.0
C246 C 0.62896 0.66579 0.73978 0.0
C247 C 0.62712 0.645 0.739 0.0
C248 C 0.63603 0.63391 0.78955 0.0
O249 O 0.66475 0.62035 0.15511 0.0
O250 O 0.68255 0.63208 0.06595 0.0
O251 O 0.64612 0.63446 0.2762 0.0
O252 O 0.60648 0.63465 0.25552 0.0
C253 C 0.62334 0.6322 0.29902 0.0
O254 O 0.6115 0.64416 0.03248 0.0
O255 O 0.60201 0.62985 0.12594 0.0
O256 O 0.64205 0.61719 0.91379 0.0
O257 O 0.66847 0.64138 0.93806 0.0
H258 H 0.65789 0.67229 0.87945 0.0
H259 H 0.62324 0.67414 0.69898 0.0
H260 H 0.63527 0.61776 0.78786 0.0
O261 O 0.84523 0.34545 0.72284 0.0
Tb262 Tb 0.86463 0.3713 0.68592 0.0
Eu263 Eu 0.85603 0.3842 0.48433 0.0
C264 C 0.8412 0.32954 0.68868 0.0
O265 O 0.84512 0.33047 0.62854 0.0
C266 C 0.82136 0.38179 0.6019 0.0
O267 O 0.84941 0.41755 0.4886 0.0
C268 C 0.85035 0.36703 0.37675 0.0
C269 C 0.86389 0.43067 0.45978 0.0
O270 O 0.88215 0.42439 0.42268 0.0
C271 C 0.90292 0.37267 0.57615 0.0
C272 C 0.86087 0.35742 0.31979 0.0
C273 C 0.85732 0.33674 0.31011 0.0
C274 C 0.86266 0.32799 0.25206 0.0
C275 C 0.87225 0.34 0.20429 0.0
C276 C 0.87608 0.36056 0.21259 0.0
C277 C 0.87045 0.36915 0.27074 0.0
O278 O 0.84213 0.38959 0.62524 0.0
O279 O 0.82126 0.37738 0.54266 0.0
O280 O 0.86266 0.39408 0.75782 0.0
O281 O 0.89606 0.37602 0.75116 0.0
C282 C 0.88464 0.38997 0.78328 0.0
O283 O 0.89624 0.38172 0.5241 0.0
O284 O 0.88641 0.36131 0.60546 0.0
O285 O 0.8525 0.38649 0.38389 0.0
O286 O 0.85099 0.35711 0.42938 0.0
H287 H 0.84898 0.32766 0.34641 0.0
H288 H 0.87566 0.33331 0.15921 0.0
H289 H 0.87269 0.38508 0.27704 0.0
O290 O 0.63471 0.32623 0.80742 0.0
Tb291 Tb 0.63088 0.3584 0.81599 0.0
Eu292 Eu 0.64274 0.39779 0.98334 0.0
C293 C 0.64978 0.31588 0.84399 0.0
O294 O 0.66154 0.32495 0.88994 0.0
C295 C 0.67695 0.37913 0.89051 0.0
O296 O 0.63879 0.43102 0.9982 0.0
C297 C 0.63749 0.37739 0.08434 0.0
C298 C 0.61892 0.43821 0.02821 0.0
O299 O 0.6015 0.42574 0.04866 0.0
C300 C 0.59373 0.37992 0.90947 0.0
C301 C 0.63449 0.36563 0.1421 0.0
C302 C 0.63425 0.34462 0.13937 0.0
C303 C 0.63429 0.33329 0.19416 0.0
C304 C 0.63387 0.34307 0.25156 0.0
C305 C 0.6336 0.36391 0.25546 0.0
C306 C 0.63382 0.3752 0.20054 0.0
O307 O 0.65329 0.37284 0.88657 0.0
O308 O 0.68056 0.39146 0.93665 0.0
O309 O 0.6502 0.36922 0.73273 0.0
O310 O 0.60976 0.37176 0.73863 0.0
C311 C 0.62968 0.37489 0.70367 0.0
O312 O 0.61098 0.39435 0.91074 0.0
O313 O 0.59688 0.3643 0.87219 0.0
O314 O 0.64591 0.39585 0.08438 0.0
O315 O 0.63138 0.37019 0.02946 0.0
H316 H 0.63499 0.33706 0.09488 0.0
H317 H 0.6332 0.33433 0.29383 0.0
H318 H 0.63401 0.39134 0.20341 0.0
O319 O 0.88653 0.6765 0.32655 0.0
Tb320 Tb 0.879 0.64492 0.33706 0.0
Eu321 Eu 0.85462 0.62273 0.52759 0.0
C322 C 0.86752 0.68934 0.32621 0.0
O323 O 0.84445 0.68326 0.3411 0.0
C324 C 0.82963 0.62832 0.40661 0.0
O325 O 0.85918 0.58935 0.53764 0.0
C326 C 0.83895 0.63988 0.62897 0.0
C327 C 0.86541 0.5776 0.49091 0.0
O328 O 0.87114 0.58553 0.43699 0.0
C329 C 0.90813 0.62809 0.45371 0.0
C330 C 0.8459 0.65211 0.68384 0.0
C331 C 0.8385 0.6724 0.6883 0.0
C332 C 0.84066 0.68265 0.74524 0.0
C333 C 0.85049 0.67261 0.79689 0.0
C334 C 0.85764 0.65258 0.79311 0.0
C335 C 0.85587 0.6425 0.73658 0.0
O336 O 0.85263 0.63587 0.40749 0.0
O337 O 0.8222 0.62118 0.45956 0.0
O338 O 0.85756 0.63918 0.25264 0.0
O339 O 0.89529 0.62739 0.26136 0.0
C340 C 0.87542 0.62885 0.22529 0.0
O341 O 0.89084 0.63723 0.48853 0.0
O342 O 0.9087 0.63101 0.39279 0.0
O343 O 0.84796 0.62158 0.62637 0.0
O344 O 0.83734 0.64846 0.57434 0.0
H345 H 0.82977 0.6798 0.64899 0.0
H346 H 0.85164 0.68025 0.84128 0.0
H347 H 0.86051 0.62675 0.73527 0.0
O348 O 0.36464 0.32751 0.82019 0.0
Tb349 Tb 0.36781 0.35949 0.83388 0.0
Eu350 Eu 0.3507 0.39259 0.00849 0.0
C351 C 0.38551 0.31781 0.80435 0.0
O352 O 0.40715 0.32772 0.80169 0.0
C353 C 0.32004 0.37554 0.90734 0.0
O354 O 0.34327 0.42586 0.01075 0.0
C355 C 0.34561 0.37471 0.11466 0.0
C356 C 0.35908 0.43871 0.03657 0.0
O357 O 0.3798 0.4321 0.0642 0.0
C358 C 0.40753 0.38057 0.93151 0.0
C359 C 0.35752 0.36481 0.16909 0.0
C360 C 0.36343 0.34422 0.16827 0.0
C361 C 0.37201 0.33464 0.22246 0.0
C362 C 0.37432 0.34567 0.27744 0.0
C363 C 0.36777 0.36593 0.27981 0.0
C364 C 0.35955 0.37544 0.22538 0.0
O365 O 0.34395 0.36991 0.90663 0.0
O366 O 0.31492 0.38709 0.95385 0.0
O367 O 0.3872 0.36841 0.74863 0.0
O368 O 0.34862 0.3773 0.76241 0.0
C369 C 0.36787 0.37773 0.72412 0.0
O370 O 0.39163 0.39043 0.96939 0.0
O371 O 0.40186 0.3673 0.88742 0.0
O372 O 0.34801 0.39418 0.10915 0.0
O373 O 0.34539 0.36523 0.06107 0.0
H374 H 0.36091 0.33557 0.1262 0.0
H375 H 0.37967 0.33804 0.31982 0.0
H376 H 0.35396 0.39099 0.22744 0.0
O377 O 0.10966 0.67741 0.29032 0.0
Tb378 Tb 0.1129 0.64611 0.31386 0.0
Eu379 Eu 0.13706 0.62253 0.50457 0.0
C380 C 0.1242 0.6914 0.31425 0.0
O381 O 0.14048 0.68689 0.35846 0.0
C382 C 0.16374 0.63435 0.38845 0.0
O383 O 0.13603 0.58973 0.4826 0.0
C384 C 0.14789 0.63017 0.61929 0.0
C385 C 0.12016 0.5773 0.50966 0.0
O386 O 0.10314 0.58417 0.54916 0.0
C387 C 0.08467 0.63285 0.43566 0.0
C388 C 0.14005 0.64243 0.67294 0.0
C389 C 0.14566 0.66298 0.67646 0.0
C390 C 0.14055 0.67362 0.73122 0.0
C391 C 0.12978 0.66382 0.78209 0.0
C392 C 0.12438 0.64345 0.77911 0.0
C393 C 0.12936 0.63281 0.72464 0.0
O394 O 0.13942 0.63873 0.38615 0.0
O395 O 0.17092 0.62696 0.4416 0.0
O396 O 0.1311 0.63043 0.23656 0.0
O397 O 0.0905 0.63044 0.24433 0.0
C398 C 0.1098 0.62456 0.21092 0.0
O399 O 0.10375 0.64079 0.46722 0.0
O400 O 0.08255 0.63593 0.37518 0.0
O401 O 0.13215 0.61587 0.60229 0.0
O402 O 0.15919 0.63914 0.57246 0.0
H403 H 0.15487 0.67052 0.63805 0.0
H404 H 0.12679 0.67187 0.82527 0.0
H405 H 0.12605 0.61685 0.72367 0.0
O406 O 0.36851 0.66662 0.15858 0.0
Tb407 Tb 0.36383 0.63429 0.16477 0.0
Eu408 Eu 0.35072 0.63211 0.00393 0.0
C409 C 0.34942 0.67922 0.16672 0.0
O410 O 0.32588 0.67249 0.16831 0.0
C411 C 0.31108 0.63162 0.10927 0.0
O412 O 0.34323 0.59889 0.0142 0.0
C413 C 0.3416 0.64267 0.89062 0.0
C414 C 0.36004 0.58582 0.03478 0.0
O415 O 0.38247 0.59201 0.054 0.0
C416 C 0.40702 0.63439 0.06596 0.0
C417 C 0.35461 0.65191 0.83733 0.0
C418 C 0.36357 0.67174 0.83946 0.0
C419 C 0.37477 0.68029 0.78673 0.0
C420 C 0.37664 0.66917 0.73202 0.0
C421 C 0.36716 0.64972 0.72897 0.0
C422 C 0.35653 0.64098 0.78181 0.0
O423 O 0.32852 0.62046 0.13521 0.0
O424 O 0.31751 0.64242 0.06148 0.0
O425 O 0.35368 0.64222 0.25904 0.0
O426 O 0.37695 0.6166 0.24423 0.0
C427 C 0.36557 0.62762 0.28576 0.0
O428 O 0.3911 0.64194 0.02488 0.0
O429 O 0.399 0.62617 0.11785 0.0
O430 O 0.34911 0.62462 0.90581 0.0
O431 O 0.33661 0.65411 0.93873 0.0
H432 H 0.36169 0.68058 0.88139 0.0
H433 H 0.38452 0.67601 0.69062 0.0
H434 H 0.34873 0.62602 0.77893 0.0
O435 O 0.15101 0.33295 0.7019 0.0
Tb436 Tb 0.13565 0.36283 0.69181 0.0
Eu437 Eu 0.13952 0.38527 0.51145 0.0
C438 C 0.16335 0.32307 0.65861 0.0
O439 O 0.16814 0.33162 0.6051 0.0
C440 C 0.17707 0.38238 0.61769 0.0
O441 O 0.14248 0.41829 0.49469 0.0
C442 C 0.14231 0.36552 0.40852 0.0
C443 C 0.12837 0.43104 0.52607 0.0
O444 O 0.11275 0.42435 0.56897 0.0
C445 C 0.09091 0.36891 0.59806 0.0
C446 C 0.13096 0.35358 0.35801 0.0
C447 C 0.13297 0.33268 0.36016 0.0
C448 C 0.12855 0.32107 0.30699 0.0
C449 C 0.12111 0.33055 0.25199 0.0
C450 C 0.11873 0.35132 0.24929 0.0
C451 C 0.12344 0.36282 0.30237 0.0
O452 O 0.1548 0.38592 0.64227 0.0
O453 O 0.17781 0.38203 0.55754 0.0
O454 O 0.14818 0.36986 0.78486 0.0
O455 O 0.10849 0.37258 0.76326 0.0
C456 C 0.12573 0.37425 0.80679 0.0
O457 O 0.10062 0.38231 0.55934 0.0
O458 O 0.10486 0.35564 0.62798 0.0
O459 O 0.13794 0.38483 0.41065 0.0
O460 O 0.14521 0.35722 0.46338 0.0
H461 H 0.13944 0.32549 0.40231 0.0
H462 H 0.11888 0.32195 0.20966 0.0
H463 H 0.12321 0.37895 0.29877 0.0
H464 H 0.94805 0.11297 0.09452 0.0
H465 H 0.9322 0.15641 0.95068 0.0
H466 H 0.97792 0.1564 0.92139 0.0
H467 H 0.00398 0.1335 0.14581 0.0
H468 H 0.01985 0.11016 0.16124 0.0
H469 H 0.98559 0.11152 0.16361 0.0
H470 H 0.9829 0.08296 0.08242 0.0
H471 H 0.01731 0.08168 0.07943 0.0
H472 H -0.00075 0.08546 0.0092 0.0
H473 H 0.02646 0.15524 0.91874 0.0
H474 H 0.07247 0.15385 0.94617 0.0
H475 H 0.05557 0.11004 0.08783 0.0
C476 C 0.95407 0.12224 0.05614 0.0
C477 C 0.93659 0.13474 0.02509 0.0
C478 C 0.94527 0.14666 0.97513 0.0
C479 C 0.97119 0.14668 0.95792 0.0
C480 C 0.98804 0.13441 0.99034 0.0
C481 C 0.97971 0.12228 0.03808 0.0
C482 C 0.00173 0.1118 0.06948 0.0
C483 C 0.00285 0.11708 0.1391 0.0
C484 C 0.0002 0.08913 0.0595 0.0
C485 C 0.02391 0.12069 0.03416 0.0
C486 C 0.01577 0.13344 0.98788 0.0
C487 C 0.03306 0.14496 0.95388 0.0
C488 C 0.05917 0.14402 0.96948 0.0
C489 C 0.06745 0.13182 0.019 0.0
C490 C 0.04971 0.11938 0.0494 0.0
H491 H 0.44297 0.87039 0.63863 0.0
H492 H 0.42796 0.89009 0.45002 0.0
H493 H 0.4744 0.89115 0.43002 0.0
H494 H 0.49949 0.90047 0.66364 0.0
H495 H 0.51528 0.88145 0.7085 0.0
H496 H 0.4809 0.88302 0.70833 0.0
H497 H 0.4782 0.84614 0.67268 0.0
H498 H 0.51256 0.84448 0.6724 0.0
H499 H 0.49477 0.83841 0.60327 0.0
H500 H 0.52276 0.88908 0.42989 0.0
H501 H 0.56882 0.88463 0.45009 0.0
H502 H 0.55153 0.86612 0.63864 0.0
C503 C 0.44925 0.87507 0.59307 0.0
C504 C 0.43156 0.88015 0.54594 0.0
C505 C 0.44096 0.88616 0.48712 0.0
C506 C 0.46736 0.88679 0.47522 0.0
C507 C 0.48415 0.88143 0.52258 0.0
C508 C 0.47543 0.87578 0.5804 0.0
C509 C 0.49733 0.87046 0.6232 0.0
C510 C 0.4983 0.8847 0.67921 0.0
C511 C 0.4956 0.84857 0.64408 0.0
C512 C 0.51978 0.87374 0.58015 0.0
C513 C 0.51183 0.88016 0.52243 0.0
C514 C 0.5292 0.88412 0.47501 0.0
C515 C 0.55537 0.88155 0.48703 0.0
C516 C 0.56399 0.875 0.54601 0.0
C517 C 0.54576 0.87103 0.59291 0.0
H518 H 0.94306 0.87512 0.01108 0.0
H519 H 0.92516 0.88275 0.81663 0.0
H520 H 0.971 0.88229 0.79071 0.0
H521 H 0.9988 0.90784 0.00897 0.0
H522 H 0.01678 0.89305 0.06341 0.0
H523 H 0.98235 0.89332 0.06683 0.0
H524 H 0.98162 0.85482 0.05714 0.0
H525 H 0.01603 0.85442 0.05371 0.0
H526 H 0.99758 0.843 0.99261 0.0
H527 H 0.01794 0.8798 0.78523 0.0
H528 H 0.06444 0.87752 0.79991 0.0
H529 H 0.05375 0.87417 0.99946 0.0
C530 C 0.94894 0.87666 0.96313 0.0
C531 C 0.93063 0.87798 0.91502 0.0
C532 C 0.93883 0.88039 0.85317 0.0
C533 C 0.96487 0.88056 0.83836 0.0
C534 C 0.98248 0.87872 0.88639 0.0
C535 C 0.97501 0.87707 0.94765 0.0
C536 C 0.99814 0.8757 0.99014 0.0
C537 C 0.99907 0.89354 0.03499 0.0
C538 C 0.99835 0.8558 0.02547 0.0
C539 C 0.01968 0.87663 0.94295 0.0
C540 C 0.01003 0.87828 0.88346 0.0
C541 C 0.02578 0.87865 0.83154 0.0
C542 C 0.05217 0.87725 0.84042 0.0
C543 C 0.06269 0.87565 0.9008 0.0
C544 C 0.04622 0.87556 0.95287 0.0
H545 H 0.54614 0.14309 0.35926 0.0
H546 H 0.56501 0.12589 0.54819 0.0
H547 H 0.51897 0.12492 0.57368 0.0
H548 H 0.49241 0.1746 0.39743 0.0
H549 H 0.47444 0.1671 0.32997 0.0
H550 H 0.50887 0.16711 0.32764 0.0
H551 H 0.50862 0.12991 0.29471 0.0
H552 H 0.47423 0.12975 0.29707 0.0
H553 H 0.49211 0.11194 0.34217 0.0
H554 H 0.47062 0.12602 0.5782 0.0
H555 H 0.42396 0.12764 0.56013 0.0
H556 H 0.43759 0.14293 0.36739 0.0
C557 C 0.5408 0.13925 0.40627 0.0
C558 C 0.55937 0.13465 0.45176 0.0
C559 C 0.55124 0.1295 0.51242 0.0
C560 C 0.52512 0.12895 0.52742 0.0
C561 C 0.50741 0.13353 0.48125 0.0
C562 C 0.51495 0.13853 0.42189 0.0
C563 C 0.49225 0.14234 0.38012 0.0
C564 C 0.49198 0.16408 0.35748 0.0
C565 C 0.49178 0.1276 0.3253 0.0
C566 C 0.47066 0.13842 0.42502 0.0
C567 C 0.47975 0.13362 0.48335 0.0
C568 C 0.4633 0.12973 0.53271 0.0
C569 C 0.43687 0.13073 0.52204 0.0
C570 C 0.42724 0.1353 0.46229 0.0
C571 C 0.44442 0.13919 0.41336 0.0
H572 H 0.5552 0.62578 0.14729 0.0
H573 H 0.57158 0.65332 0.96943 0.0
H574 H 0.52526 0.65461 0.94681 0.0
H575 H 0.50292 0.59523 0.09494 0.0
H576 H 0.48493 0.5983 0.16568 0.0
H577 H 0.51933 0.59942 0.16734 0.0
H578 H 0.51714 0.63428 0.21927 0.0
H579 H 0.48275 0.63327 0.21791 0.0
H580 H 0.49918 0.65392 0.18242 0.0
H581 H 0.47705 0.6532 0.94458 0.0
H582 H 0.43074 0.64961 0.96294 0.0
H583 H 0.44639 0.62281 0.14233 0.0
C584 C 0.54915 0.6321 0.10349 0.0
C585 C 0.56706 0.63948 0.06013 0.0
C586 C 0.55823 0.6476 0.00341 0.0
C587 C 0.53197 0.64836 0.99011 0.0
C588 C 0.51486 0.64091 0.03395 0.0
C589 C 0.52312 0.63294 0.08946 0.0
C590 C 0.50091 0.62605 0.129 0.0
C591 C 0.5021 0.6034 0.13985 0.0
C592 C 0.49995 0.63758 0.19079 0.0
C593 C 0.47877 0.63158 0.08733 0.0
C594 C 0.4872 0.64006 0.03262 0.0
C595 C 0.47023 0.64656 0.9872 0.0
C596 C 0.44394 0.64445 0.99815 0.0
C597 C 0.43485 0.63594 0.05417 0.0
C598 C 0.45263 0.62934 0.099 0.0
H599 H 0.05353 0.38731 0.52778 0.0
H600 H 0.0644 0.34817 0.68604 0.0
H601 H 0.01776 0.3461 0.69982 0.0
H602 H 0.99877 0.41423 0.58892 0.0
H603 H 0.98282 0.41568 0.51494 0.0
H604 H 0.01722 0.41469 0.51824 0.0
H605 H 0.01714 0.38378 0.44586 0.0
H606 H 0.98276 0.3847 0.44222 0.0
H607 H 0.99858 0.3622 0.46699 0.0
H608 H 0.9701 0.34753 0.69563 0.0
H609 H 0.92435 0.35166 0.67177 0.0
H610 H 0.94394 0.38988 0.51638 0.0
C611 C 0.04613 0.37837 0.56552 0.0
C612 C 0.06274 0.36786 0.6057 0.0
C613 C 0.05217 0.35626 0.65429 0.0
C614 C 0.02566 0.35505 0.66276 0.0
C615 C 0.00987 0.3655 0.62227 0.0
C616 C 0.01964 0.3769 0.57451 0.0
C617 C 0.99833 0.38616 0.53649 0.0
C618 C -0.00065 0.40905 0.53988 0.0
C619 C -0.00074 0.37876 0.46889 0.0
C620 C 0.9751 0.37808 0.57024 0.0
C621 C 0.98223 0.36627 0.61974 0.0
C622 C 0.96426 0.3568 0.65714 0.0
C623 C 0.93827 0.35928 0.64322 0.0
C624 C 0.93043 0.37113 0.59226 0.0
C625 C 0.94921 0.38078 0.55577 0.0
H626 H 0.44644 0.35391 0.94778 0.0
H627 H 0.43036 0.41703 0.93049 0.0
H628 H 0.47682 0.4243 0.93341 0.0
H629 H 0.50238 0.36142 0.05535 0.0
H630 H 0.5192 0.3403 0.02344 0.0
H631 H 0.48472 0.34039 0.02575 0.0
H632 H 0.4833 0.33395 0.90716 0.0
H633 H 0.51764 0.33382 0.90453 0.0
H634 H 0.49992 0.35068 0.85564 0.0
H635 H 0.5252 0.42421 0.92954 0.0
H636 H 0.57121 0.41684 0.9171 0.0
H637 H 0.55563 0.35372 0.93899 0.0
C638 C 0.45279 0.36926 0.94556 0.0
C639 C 0.43501 0.38496 0.93901 0.0
C640 C 0.4438 0.40487 0.93624 0.0
C641 C 0.47011 0.40911 0.93788 0.0
C642 C 0.48726 0.39328 0.94401 0.0
C643 C 0.47892 0.37377 0.94874 0.0
C644 C 0.50125 0.35945 0.9537 0.0
C645 C 0.50192 0.34982 0.01839 0.0
C646 C 0.50047 0.34355 0.90214 0.0
C647 C 0.52343 0.37372 0.94557 0.0
C648 C 0.51503 0.39324 0.94207 0.0
C649 C 0.532 0.409 0.93304 0.0
C650 C 0.55814 0.40467 0.9262 0.0
C651 C 0.567 0.38469 0.9271 0.0
C652 C 0.5494 0.36912 0.93817 0.0
H653 H 0.04985 0.60716 0.3905 0.0
H654 H 0.06675 0.6437 0.55117 0.0
H655 H 0.02258 0.63874 0.58931 0.0
H656 H 0.99516 0.62736 0.35684 0.0
H657 H 0.97846 0.60533 0.33119 0.0
H658 H 0.01263 0.60612 0.32761 0.0
H659 H 0.01551 0.57415 0.39455 0.0
H660 H 0.98108 0.57313 0.39797 0.0
H661 H -0.00047 0.57323 0.46861 0.0
H662 H 0.97464 0.63749 0.59409 0.0
H663 H 0.92902 0.63999 0.56531 0.0
H664 H 0.94346 0.60384 0.40215 0.0
C665 C 0.04452 0.61337 0.43513 0.0
C666 C 0.06152 0.6258 0.4679 0.0
C667 C 0.05402 0.63394 0.5257 0.0
C668 C 0.02895 0.63116 0.54768 0.0
C669 C 0.01198 0.61986 0.51193 0.0
C670 C 0.01971 0.61072 0.45737 0.0
C671 C 0.99727 0.60221 0.42191 0.0
C672 C 0.9958 0.61079 0.35558 0.0
C673 C 0.99842 0.57932 0.42073 0.0
C674 C 0.97547 0.60949 0.46203 0.0
C675 C 0.98422 0.61909 0.51483 0.0
C676 C 0.96756 0.62948 0.55399 0.0
C677 C 0.94162 0.63082 0.53732 0.0
C678 C 0.93281 0.62211 0.4814 0.0
C679 C 0.94972 0.61047 0.44543 0.0
H680 H 0.14375 0.21637 0.81237 0.0
H681 H 0.19087 0.19225 0.66486 0.0
H682 H 0.20174 0.22639 0.63094 0.0
H683 H 0.11655 0.25375 0.72625 0.0
H684 H 0.1157 0.27239 0.78663 0.0
H685 H 0.11524 0.24638 0.80659 0.0
H686 H 0.1552 0.25114 0.876 0.0
H687 H 0.15562 0.27729 0.85684 0.0
H688 H 0.18364 0.26219 0.84368 0.0
H689 H 0.20224 0.26265 0.60346 0.0
H690 H 0.19399 0.29863 0.58782 0.0
H691 H 0.14681 0.29933 0.75359 0.0
C692 C 0.15712 0.21839 0.77453 0.0
C693 C 0.1668 0.20182 0.74162 0.0
C694 C 0.18354 0.20487 0.69089 0.0
C695 C 0.1898 0.22417 0.67135 0.0
C696 C 0.17922 0.24028 0.70319 0.0
C697 C 0.16348 0.23763 0.75421 0.0
C698 C 0.15274 0.25739 0.7765 0.0
C699 C 0.12332 0.25747 0.77379 0.0
C700 C 0.16239 0.26229 0.84215 0.0
C701 C 0.16416 0.27139 0.72882 0.0
C702 C 0.17957 0.26128 0.68728 0.0
C703 C 0.19062 0.27082 0.63642 0.0
C704 C 0.18574 0.29123 0.6277 0.0
C705 C 0.16992 0.30186 0.66961 0.0
C706 C 0.15932 0.29175 0.72117 0.0
H707 H 0.32677 0.79684 0.19735 0.0
H708 H 0.38215 0.79716 0.34692 0.0
H709 H 0.38805 0.76064 0.33408 0.0
H710 H 0.29752 0.74922 0.23466 0.0
H711 H 0.29303 0.74248 0.15436 0.0
H712 H 0.29301 0.76835 0.17702 0.0
H713 H 0.32902 0.77537 0.09746 0.0
H714 H 0.32943 0.74946 0.07512 0.0
H715 H 0.35838 0.76133 0.10146 0.0
H716 H 0.39054 0.72448 0.2975 0.0
H717 H 0.38472 0.69086 0.2519 0.0
H718 H 0.32545 0.71387 0.13118 0.0
C719 C 0.33999 0.78918 0.22778 0.0
C720 C 0.35415 0.79983 0.27298 0.0
C721 C 0.37107 0.78928 0.31226 0.0
C722 C 0.37465 0.76858 0.30491 0.0
C723 C 0.36091 0.75865 0.25859 0.0
C724 C 0.34354 0.76857 0.22153 0.0
C725 C 0.33097 0.75451 0.17553 0.0
C726 C 0.30191 0.75358 0.18606 0.0
C727 C 0.33733 0.76053 0.10843 0.0
C728 C 0.34383 0.73502 0.19255 0.0
C729 C 0.36144 0.73779 0.23971 0.0
C730 C 0.37662 0.72214 0.26107 0.0
C731 C 0.37335 0.70314 0.23452 0.0
C732 C 0.3547 0.69983 0.18801 0.0
C733 C 0.3398 0.71601 0.1668 0.0
H734 H 0.14829 0.72521 0.3569 0.0
H735 H 0.09784 0.70359 0.21159 0.0
H736 H 0.09667 0.73719 0.16559 0.0
H737 H 0.11776 0.77283 0.37516 0.0
H738 H 0.14719 0.78604 0.38925 0.0
H739 H 0.14452 0.76013 0.41 0.0
H740 H 0.18438 0.75197 0.34291 0.0
H741 H 0.1871 0.77786 0.32194 0.0
H742 H 0.18482 0.75906 0.26226 0.0
H743 H 0.10024 0.77355 0.1363 0.0
H744 H 0.10736 0.80999 0.12903 0.0
H745 H 0.15644 0.80718 0.29128 0.0
C746 C 0.13702 0.72753 0.31539 0.0
C747 C 0.12314 0.71176 0.28799 0.0
C748 C 0.10856 0.71545 0.23372 0.0
C749 C 0.10783 0.73448 0.207 0.0
C750 C 0.12174 0.74969 0.23509 0.0
C751 C 0.136 0.74645 0.2882 0.0
C752 C 0.14869 0.76545 0.31014 0.0
C753 C 0.13895 0.77146 0.37496 0.0
C754 C 0.17798 0.76346 0.30922 0.0
C755 C 0.1394 0.77981 0.26101 0.0
C756 C 0.12387 0.77051 0.21808 0.0
C757 C 0.11247 0.781 0.16953 0.0
C758 C 0.11673 0.80166 0.16552 0.0
C759 C 0.13223 0.81151 0.20985 0.0
C760 C 0.14407 0.80023 0.25726 0.0
H761 H 0.34324 0.29391 0.78635 0.0
H762 H 0.42623 0.29363 0.77979 0.0
H763 H 0.42565 0.25859 0.74527 0.0
H764 H 0.33555 0.24504 0.84576 0.0
H765 H 0.30761 0.23937 0.80006 0.0
H766 H 0.31454 0.2648 0.82083 0.0
H767 H 0.31337 0.27457 0.70456 0.0
H768 H 0.30679 0.24905 0.68344 0.0
H769 H 0.33387 0.26175 0.65027 0.0
H770 H 0.41649 0.22334 0.71568 0.0
H771 H 0.39908 0.18931 0.70121 0.0
H772 H 0.32229 0.21204 0.72688 0.0
C773 C 0.36128 0.28648 0.77758 0.0
C774 C 0.38479 0.29655 0.78568 0.0
C775 C 0.40797 0.28628 0.77369 0.0
C776 C 0.40786 0.26638 0.75375 0.0
C777 C 0.38441 0.25695 0.74553 0.0
C778 C 0.36152 0.26658 0.75733 0.0
C779 C 0.33903 0.2527 0.74721 0.0
C780 C 0.32327 0.25034 0.80704 0.0
C781 C 0.32228 0.25996 0.69316 0.0
C782 C 0.35292 0.23359 0.73024 0.0
C783 C 0.37908 0.23651 0.72827 0.0
C784 C 0.39604 0.22092 0.71617 0.0
C785 C 0.38604 0.20172 0.70758 0.0
C786 C 0.35944 0.19835 0.71144 0.0
C787 C 0.34265 0.21449 0.72196 0.0
H788 H 0.84088 0.72348 0.3536 0.0
H789 H 0.90237 0.70043 0.23885 0.0
H790 H 0.9069 0.73341 0.18909 0.0
H791 H 0.81291 0.75724 0.24105 0.0
H792 H 0.80662 0.77654 0.29738 0.0
H793 H 0.80683 0.75077 0.32085 0.0
H794 H 0.84107 0.75858 0.40443 0.0
H795 H 0.84065 0.78439 0.38175 0.0
H796 H 0.87036 0.77073 0.3818 0.0
H797 H 0.90478 0.76901 0.15179 0.0
H798 H 0.90052 0.80573 0.14141 0.0
H799 H 0.8425 0.80591 0.28486 0.0
C800 C 0.85524 0.72541 0.3179 0.0
C801 C 0.87125 0.70945 0.29993 0.0
C802 C 0.89004 0.71254 0.25361 0.0
C803 C 0.89258 0.73114 0.22463 0.0
C804 C 0.87639 0.74657 0.24307 0.0
C805 C 0.85841 0.744 0.28945 0.0
C806 C 0.84484 0.7634 0.30423 0.0
C807 C 0.8161 0.76189 0.29001 0.0
C808 C 0.84952 0.76964 0.37206 0.0
C809 C 0.85815 0.77729 0.25933 0.0
C810 C 0.87591 0.76723 0.22348 0.0
C811 C 0.89091 0.77705 0.17951 0.0
C812 C 0.88829 0.79781 0.17357 0.0
C813 C 0.87111 0.80841 0.21204 0.0
C814 C 0.85557 0.79798 0.25452 0.0
H815 H 0.62543 0.29166 0.75958 0.0
H816 H 0.68641 0.29209 0.89629 0.0
H817 H 0.69648 0.25709 0.87041 0.0
H818 H 0.60354 0.24279 0.79155 0.0
H819 H 0.59616 0.23682 0.71194 0.0
H820 H 0.59509 0.26232 0.73795 0.0
H821 H 0.62699 0.27208 0.65114 0.0
H822 H 0.62841 0.2465 0.62538 0.0
H823 H 0.65738 0.25947 0.64599 0.0
H824 H 0.69891 0.22194 0.83342 0.0
H825 H 0.69066 0.18777 0.79544 0.0
H826 H 0.62783 0.20954 0.68351 0.0
C827 C 0.64101 0.28444 0.78384 0.0
C828 C 0.6552 0.29466 0.82987 0.0
C829 C 0.67525 0.28459 0.86094 0.0
C830 C 0.68125 0.26475 0.8462 0.0
C831 C 0.66703 0.25517 0.8003 0.0
C832 C 0.64717 0.26458 0.76994 0.0
C833 C 0.63383 0.25046 0.72535 0.0
C834 C 0.60548 0.24795 0.74278 0.0
C835 C 0.63684 0.25756 0.65797 0.0
C836 C 0.64888 0.23148 0.73662 0.0
C837 C 0.66827 0.23469 0.77918 0.0
C838 C 0.68402 0.21929 0.79957 0.0
C839 C 0.6793 0.19999 0.77756 0.0
C840 C 0.65895 0.19622 0.73589 0.0
C841 C 0.64392 0.21221 0.71403 0.0
H842 H 0.826 0.29426 0.63603 0.0
H843 H 0.85086 0.32054 0.81006 0.0
H844 H 0.85371 0.28706 0.85655 0.0
H845 H 0.78807 0.25296 0.70855 0.0
H846 H 0.79695 0.23576 0.64785 0.0
H847 H 0.79388 0.26197 0.63107 0.0
H848 H 0.84014 0.26214 0.58772 0.0
H849 H 0.84349 0.23607 0.60525 0.0
H850 H 0.86605 0.25376 0.63634 0.0
H851 H 0.86032 0.25045 0.87868 0.0
H852 H 0.86572 0.21381 0.87753 0.0
H853 H 0.83299 0.21178 0.69233 0.0
C854 C 0.83137 0.293 0.68439 0.0
C855 C 0.83819 0.30999 0.71933 0.0
C856 C 0.84532 0.30774 0.78243 0.0
C857 C 0.84709 0.28877 0.80928 0.0
C858 C 0.84113 0.27224 0.77287 0.0
C859 C 0.83282 0.2742 0.71223 0.0
C860 C 0.82858 0.25406 0.68229 0.0
C861 C 0.80018 0.25101 0.66653 0.0
C862 C 0.84558 0.25136 0.62451 0.0
C863 C 0.83693 0.24051 0.73452 0.0
C864 C 0.84404 0.25121 0.78649 0.0
C865 C 0.85424 0.24187 0.83872 0.0
C866 C 0.85722 0.22104 0.83768 0.0
C867 C 0.84997 0.20979 0.78478 0.0
C868 C 0.83927 0.21981 0.73319 0.0
H869 H 0.62314 0.70916 0.20095 0.0
H870 H 0.7056 0.70138 0.19839 0.0
H871 H 0.71105 0.73549 0.23879 0.0
H872 H 0.62281 0.76016 0.15073 0.0
H873 H 0.59651 0.76736 0.20007 0.0
H874 H 0.59911 0.74202 0.17308 0.0
H875 H 0.59759 0.72973 0.287 0.0
H876 H 0.5955 0.75512 0.31426 0.0
H877 H 0.62065 0.73907 0.342 0.0
H878 H 0.70788 0.77022 0.2813 0.0
H879 H 0.69641 0.80506 0.30703 0.0
H880 H 0.61639 0.79139 0.27755 0.0
C881 C 0.64235 0.71466 0.20852 0.0
C882 C 0.66393 0.70247 0.19645 0.0
C883 C 0.68872 0.71033 0.20711 0.0
C884 C 0.69204 0.72968 0.23059 0.0
C885 C 0.67042 0.74113 0.24321 0.0
C886 C 0.64605 0.73407 0.23167 0.0
C887 C 0.62613 0.74985 0.24689 0.0
C888 C 0.61021 0.75516 0.18924 0.0
C889 C 0.60895 0.74303 0.30072 0.0
C890 C 0.64316 0.76703 0.2668 0.0
C891 C 0.66861 0.76146 0.26604 0.0
C892 C 0.68801 0.77473 0.28232 0.0
C893 C 0.68133 0.79442 0.29753 0.0
C894 C 0.65554 0.80075 0.29533 0.0
C895 C 0.63619 0.78677 0.28077 0.0
H896 H 0.61791 0.78571 0.66265 0.0
H897 H 0.69949 0.79495 0.6865 0.0
H898 H 0.70336 0.76184 0.73483 0.0
H899 H 0.60674 0.7586 0.80447 0.0
H900 H 0.58442 0.74138 0.76991 0.0
H901 H 0.58761 0.76621 0.73908 0.0
H902 H 0.59747 0.75168 0.63005 0.0
H903 H 0.59395 0.72684 0.66036 0.0
H904 H 0.62303 0.73384 0.62121 0.0
H905 H 0.69852 0.72807 0.78155 0.0
H906 H 0.68632 0.69371 0.80991 0.0
H907 H 0.60827 0.70572 0.75284 0.0
C908 C 0.63658 0.78071 0.67788 0.0
C909 C 0.65838 0.79288 0.67086 0.0
C910 C 0.68253 0.78581 0.69096 0.0
C911 C 0.68491 0.7671 0.71906 0.0
C912 C 0.663 0.75558 0.72618 0.0
C913 C 0.63937 0.76192 0.70522 0.0
C914 C 0.61917 0.74609 0.71527 0.0
C915 C 0.59825 0.75352 0.75984 0.0
C916 C 0.60774 0.7392 0.65302 0.0
C917 C 0.6352 0.72986 0.74479 0.0
C918 C 0.66033 0.73579 0.75164 0.0
C919 C 0.67888 0.72324 0.77665 0.0
C920 C 0.67174 0.70384 0.79316 0.0
C921 C 0.64635 0.69717 0.78389 0.0
C922 C 0.62779 0.71052 0.76064 0.0
H923 H 0.877 0.29426 0.31693 0.0
H924 H 0.83496 0.31373 0.15458 0.0
H925 H 0.82903 0.2787 0.12231 0.0
H926 H 0.90994 0.25448 0.24195 0.0
H927 H 0.90866 0.23774 0.30718 0.0
H928 H 0.90852 0.2643 0.3198 0.0
H929 H 0.86636 0.26149 0.38226 0.0
H930 H 0.86654 0.23489 0.37055 0.0
H931 H 0.83909 0.24938 0.34761 0.0
H932 H 0.83095 0.24151 0.10248 0.0
H933 H 0.83652 0.20473 0.10368 0.0
H934 H 0.87522 0.20927 0.281 0.0
C935 C 0.86612 0.29108 0.27533 0.0
C936 C 0.85656 0.30673 0.2381 0.0
C937 C 0.84269 0.30198 0.18346 0.0
C938 C 0.83921 0.28212 0.16473 0.0
C939 C 0.84956 0.26705 0.20124 0.0
C940 C 0.86244 0.27125 0.25585 0.0
C941 C 0.87217 0.25225 0.28573 0.0
C942 C 0.90156 0.2522 0.28884 0.0
C943 C 0.86032 0.24933 0.35036 0.0
C944 C 0.8625 0.23678 0.23986 0.0
C945 C 0.84987 0.24562 0.19087 0.0
C946 C 0.84052 0.2344 0.14105 0.0
C947 C 0.84386 0.21356 0.14185 0.0
C948 C 0.856 0.20419 0.19264 0.0
C949 C 0.86546 0.21603 0.24202 0.0
H950 H 0.66629 0.30865 0.25819 0.0
H951 H 0.6023 0.30829 0.13039 0.0
H952 H 0.59833 0.27171 0.14343 0.0
H953 H 0.69368 0.26014 0.21093 0.0
H954 H 0.70278 0.25399 0.28926 0.0
H955 H 0.70184 0.27968 0.26503 0.0
H956 H 0.67108 0.28782 0.3559 0.0
H957 H 0.6716 0.26213 0.37993 0.0
H958 H 0.64156 0.27416 0.36311 0.0
H959 H 0.59785 0.23625 0.18157 0.0
H960 H 0.60445 0.20337 0.23042 0.0
H961 H 0.67034 0.22642 0.32934 0.0
C962 C 0.65178 0.30077 0.23199 0.0
C963 C 0.63457 0.3112 0.19322 0.0
C964 C 0.61579 0.30049 0.15975 0.0
C965 C 0.61332 0.27978 0.16725 0.0
C966 C 0.63002 0.27006 0.20767 0.0
C967 C 0.64923 0.28014 0.2385 0.0
C968 C 0.66419 0.26636 0.28074 0.0
C969 C 0.69229 0.26496 0.26023 0.0
C970 C 0.66196 0.27302 0.34894 0.0
C971 C 0.65018 0.24693 0.26959 0.0
C972 C 0.63036 0.24946 0.22779 0.0
C973 C 0.61357 0.23402 0.21347 0.0
C974 C 0.61734 0.21547 0.24187 0.0
C975 C 0.63796 0.2124 0.28338 0.0
C976 C 0.65462 0.22834 0.2972 0.0
H977 H 0.85453 0.80049 0.7586 0.0
H978 H 0.80386 0.79875 0.91791 0.0
H979 H 0.79459 0.76325 0.89593 0.0
H980 H 0.81896 0.76497 0.65837 0.0
H981 H 0.84785 0.75371 0.62904 0.0
H982 H 0.8477 0.77962 0.65153 0.0
H983 H 0.88545 0.77318 0.72675 0.0
H984 H 0.88579 0.74735 0.70415 0.0
H985 H 0.88252 0.75401 0.78485 0.0
H986 H 0.79324 0.72764 0.86172 0.0
H987 H 0.80342 0.69363 0.82544 0.0
H988 H 0.85657 0.7177 0.69085 0.0
C989 C 0.84099 0.79277 0.78801 0.0
C990 C 0.82957 0.80248 0.83952 0.0
C991 C 0.81264 0.79167 0.878 0.0
C992 C 0.80716 0.77154 0.86561 0.0
C993 C 0.8189 0.76238 0.81478 0.0
C994 C 0.83565 0.77258 0.77686 0.0
C995 C 0.84786 0.75872 0.72943 0.0
C996 C 0.84012 0.76461 0.66316 0.0
C997 C 0.87713 0.75829 0.73678 0.0
C998 C 0.83592 0.73897 0.74772 0.0
C999 C 0.81882 0.74156 0.79614 0.0
C1000 C 0.80637 0.72549 0.82346 0.0
C1001 C 0.81221 0.70623 0.80243 0.0
C1002 C 0.83056 0.70311 0.755 0.0
C1003 C 0.84203 0.71973 0.72611 0.0
H1004 H 0.33913 0.30435 0.19066 0.0
H1005 H 0.41461 0.31594 0.26532 0.0
H1006 H 0.41911 0.28036 0.29267 0.0
H1007 H 0.31951 0.27184 0.30523 0.0
H1008 H 0.30211 0.25494 0.25569 0.0
H1009 H 0.306 0.2806 0.2333 0.0
H1010 H 0.32647 0.26967 0.1292 0.0
H1011 H 0.32222 0.24393 0.15072 0.0
H1012 H 0.35349 0.25296 0.12972 0.0
H1013 H 0.41327 0.24472 0.32402 0.0
H1014 H 0.39913 0.21048 0.34828 0.0
H1015 H 0.32749 0.22164 0.25268 0.0
C1016 C 0.35696 0.29919 0.2105 0.0
C1017 C 0.37668 0.31281 0.22524 0.0
C1018 C 0.39942 0.30567 0.25318 0.0
C1019 C 0.4021 0.28552 0.26906 0.0
C1020 C 0.38191 0.27261 0.2564 0.0
C1021 C 0.35993 0.27905 0.2268 0.0
C1022 C 0.3405 0.26231 0.22211 0.0
C1023 C 0.31556 0.26776 0.25612 0.0
C1024 C 0.33537 0.2569 0.15388 0.0
C1025 C 0.3547 0.24571 0.2552 0.0
C1026 C 0.37858 0.25195 0.27439 0.0
C1027 C 0.39476 0.23956 0.30841 0.0
C1028 C 0.38648 0.22016 0.32237 0.0
C1029 C 0.36224 0.21331 0.30234 0.0
C1030 C 0.3462 0.22635 0.2684 0.0
H1031 H 0.12061 0.78984 0.78478 0.0
H1032 H 0.19175 0.78852 0.88854 0.0
H1033 H 0.19846 0.75355 0.85705 0.0
H1034 H 0.10071 0.74086 0.82616 0.0
H1035 H 0.08646 0.7354 0.7519 0.0
H1036 H 0.08819 0.76077 0.77898 0.0
H1037 H 0.11199 0.77067 0.67813 0.0
H1038 H 0.11064 0.74522 0.65117 0.0
H1039 H 0.141 0.75779 0.65699 0.0
H1040 H 0.19724 0.71879 0.81708 0.0
H1041 H 0.18543 0.68497 0.78109 0.0
H1042 H 0.11459 0.70807 0.70593 0.0
C1043 C 0.13763 0.7822 0.80066 0.0
C1044 C 0.1557 0.79191 0.83897 0.0
C1045 C 0.17759 0.78136 0.85937 0.0
C1046 C 0.18171 0.76155 0.84127 0.0
C1047 C 0.16369 0.75246 0.80303 0.0
C1048 C 0.1419 0.7623 0.78359 0.0
C1049 C 0.12472 0.74859 0.74625 0.0
C1050 C 0.09847 0.74627 0.77773 0.0
C1051 C 0.12193 0.75602 0.67915 0.0
C1052 C 0.14004 0.72942 0.74883 0.0
C1053 C 0.16271 0.73213 0.78078 0.0
C1054 C 0.17969 0.7165 0.79147 0.0
C1055 C 0.17295 0.69743 0.77064 0.0
C1056 C 0.14945 0.69422 0.73992 0.0
C1057 C 0.13296 0.7104 0.72796 0.0
H1058 H 0.34428 0.7131 0.79563 0.0
H1059 H 0.42268 0.69427 0.76756 0.0
H1060 H 0.43459 0.72869 0.73871 0.0
H1061 H 0.34057 0.74335 0.66782 0.0
H1062 H 0.32126 0.76275 0.70204 0.0
H1063 H 0.31941 0.73771 0.73147 0.0
H1064 H 0.33074 0.75012 0.84198 0.0
H1065 H 0.33201 0.77533 0.81325 0.0
H1066 H 0.35909 0.76494 0.8536 0.0
H1067 H 0.43688 0.76355 0.70093 0.0
H1068 H 0.43037 0.7979 0.66381 0.0
H1069 H 0.35 0.79426 0.71324 0.0
C1070 C 0.36413 0.71653 0.78605 0.0
C1071 C 0.38278 0.70132 0.78509 0.0
C1072 C 0.40837 0.70595 0.76973 0.0
C1073 C 0.41523 0.72537 0.75301 0.0
C1074 C 0.3962 0.73992 0.75182 0.0
C1075 C 0.37124 0.73586 0.76875 0.0
C1076 C 0.35415 0.75384 0.75852 0.0
C1077 C 0.33258 0.74912 0.7122 0.0
C1078 C 0.34337 0.76151 0.82053 0.0
C1079 C 0.37325 0.76837 0.73135 0.0
C1080 C 0.39742 0.76007 0.72852 0.0
C1081 C 0.41813 0.77033 0.70367 0.0
C1082 C 0.4142 0.78979 0.68239 0.0
C1083 C 0.38969 0.79875 0.68563 0.0
C1084 C 0.36893 0.78778 0.70993 0.0
H1085 H 0.1027 0.29107 0.2474 0.0
H1086 H 0.16947 0.30242 0.36189 0.0
H1087 H 0.18249 0.26725 0.35053 0.0
H1088 H 0.09001 0.24084 0.29937 0.0
H1089 H 0.08101 0.23228 0.2231 0.0
H1090 H 0.07612 0.25797 0.24452 0.0
H1091 H 0.10255 0.26909 0.14885 0.0
H1092 H 0.1078 0.24343 0.12753 0.0
H1093 H 0.13467 0.25984 0.13895 0.0
H1094 H 0.18921 0.23111 0.32272 0.0
H1095 H 0.1878 0.19631 0.28491 0.0
H1096 H 0.11785 0.20946 0.18441 0.0
C1097 C 0.11998 0.28616 0.27042 0.0
C1098 C 0.13491 0.2995 0.30595 0.0
C1099 C 0.15736 0.29241 0.33557 0.0
C1100 C 0.16509 0.27251 0.32882 0.0
C1101 C 0.15027 0.25993 0.29206 0.0
C1102 C 0.12813 0.26646 0.26361 0.0
C1103 C 0.11602 0.25017 0.225 0.0
C1104 C 0.08921 0.24501 0.24949 0.0
C1105 C 0.11522 0.25598 0.156 0.0
C1106 C 0.13477 0.23341 0.23632 0.0
C1107 C 0.15442 0.23932 0.27504 0.0
C1108 C 0.17391 0.2263 0.29241 0.0
C1109 C 0.17299 0.2066 0.27052 0.0
C1110 C 0.15275 0.2002 0.23164 0.0
C1111 C 0.13365 0.21391 0.21379 0.0
H1112 H 0.14583 0.9722 0.90139 0.0
H1113 H 0.1137 0.95257 0.07678 0.0
H1114 H 0.10564 0.98756 0.10619 0.0
H1115 H 0.17822 0.01451 0.96046 0.0
H1116 H 0.17184 0.03007 0.89416 0.0
H1117 H 0.17368 1.00342 0.88496 0.0
H1118 H 0.12842 1.00316 0.836 0.0
H1119 H 0.12646 0.02984 0.84502 0.0
H1120 H 0.10206 0.01411 0.87789 0.0
H1121 H 0.10256 0.02455 0.11863 0.0
H1122 H 0.10536 0.0612 0.11405 0.0
H1123 H 0.13977 0.05701 0.93099 0.0
C1124 C 0.13687 0.97524 0.94572 0.0
C1125 C 0.13035 0.95961 0.98669 0.0
C1126 C 0.11884 0.96426 0.0445 0.0
C1127 C 0.11412 0.9841 0.06164 0.0
C1128 C 0.12095 0.99914 0.02042 0.0
C1129 C 0.13205 0.99498 0.96363 0.0
C1130 C 0.13834 0.01398 0.92891 0.0
C1131 C 0.16723 0.01558 0.91642 0.0
C1132 C 0.1229 0.01535 0.86837 0.0
C1133 C 0.12952 0.02945 0.97562 0.0
C1134 C 0.11933 0.02055 0.0278 0.0
C1135 C 0.11037 0.03171 0.07787 0.0
C1136 C 0.11205 0.05254 0.07479 0.0
C1137 C 0.12277 0.06201 0.02215 0.0
C1138 C 0.13139 0.05025 0.97177 0.0
H1139 H 0.34609 0.96789 0.56428 0.0
H1140 H 0.36425 0.95011 0.37548 0.0
H1141 H 0.36963 0.98553 0.34686 0.0
H1142 H 0.30961 0.01109 0.525 0.0
H1143 H 0.3209 0.0257 0.58974 0.0
H1144 H 0.31934 0.99895 0.59571 0.0
H1145 H 0.36738 0.99782 0.62471 0.0
H1146 H 0.36911 0.02458 0.61874 0.0
H1147 H 0.39052 0.00917 0.57385 0.0
H1148 H 0.37213 0.02298 0.33835 0.0
H1149 H 0.37089 0.05958 0.34977 0.0
H1150 H 0.351 0.05303 0.54428 0.0
C1151 C 0.35132 0.9714 0.51693 0.0
C1152 C 0.35479 0.95616 0.4721 0.0
C1153 C 0.36149 0.96147 0.41064 0.0
C1154 C 0.36463 0.98157 0.39397 0.0
C1155 C 0.36101 0.9962 0.43927 0.0
C1156 C 0.35448 0.99136 0.49949 0.0
C1157 C 0.35113 0.00994 0.53901 0.0
C1158 C 0.32361 0.01151 0.5638 0.0
C1159 C 0.37071 0.0104 0.59222 0.0
C1160 C 0.35664 0.02602 0.49152 0.0
C1161 C 0.36239 0.01776 0.43435 0.0
C1162 C 0.36773 0.0296 0.38294 0.0
C1163 C 0.36697 0.05041 0.38995 0.0
C1164 C 0.36089 0.05925 0.44794 0.0
C1165 C 0.35586 0.04679 0.49941 0.0
H1166 H 0.89595 0.97058 0.07227 0.0
H1167 H 0.82081 0.95787 0.99639 0.0
H1168 H 0.81223 0.99397 0.98839 0.0
H1169 H 0.87646 0.01455 0.16231 0.0
H1170 H 0.90591 0.02765 0.14756 0.0
H1171 H 0.90568 1.00079 0.15036 0.0
H1172 H 0.92577 0.99934 0.04056 0.0
H1173 H 0.92604 0.02616 0.03738 0.0
H1174 H 0.91022 0.01206 0.97731 0.0
H1175 H 0.81224 0.03153 0.98559 0.0
H1176 H 0.82116 0.06767 0.98621 0.0
H1177 H 0.89654 0.05615 0.06251 0.0
C1178 C 0.87761 0.97537 0.05437 0.0
C1179 C 0.85904 0.9613 0.03502 0.0
C1180 C 0.83532 0.96827 0.01174 0.0
C1181 C 0.83025 0.98879 0.00703 0.0
C1182 C 0.84901 1.00222 0.02609 0.0
C1183 C 0.8722 0.99581 0.04949 0.0
C1184 C 0.8893 0.01337 0.06544 0.0
C1185 C 0.89465 0.01413 0.13558 0.0
C1186 C 0.91431 0.01268 0.0279 0.0
C1187 C 0.87243 0.03063 0.04556 0.0
C1188 C 0.84913 0.02387 0.02386 0.0
C1189 C 0.83039 0.03699 0.0027 0.0
C1190 C 0.83564 0.05752 0.00331 0.0
C1191 C 0.85957 0.06482 0.02428 0.0
C1192 C 0.87809 0.05109 0.046 0.0
H1193 H 0.6566 0.959 0.49943 0.0
H1194 H 0.58269 0.94745 0.41466 0.0
H1195 H 0.57393 0.98345 0.41204 0.0
H1196 H 0.63594 1.00029 0.59609 0.0
H1197 H 0.66488 0.01449 0.58586 0.0
H1198 H 0.6658 0.98766 0.58158 0.0
H1199 H 0.68638 0.98963 0.47249 0.0
H1200 H 0.68563 0.01646 0.47658 0.0
H1201 H 0.67068 1.00373 0.4124 0.0
H1202 H 0.57295 0.02022 0.41622 0.0
H1203 H 0.57995 0.05634 0.42633 0.0
H1204 H 0.65407 0.04528 0.51037 0.0
C1205 C 0.63861 0.96407 0.4802 0.0
C1206 C 0.62035 0.95031 0.45711 0.0
C1207 C 0.59703 0.95759 0.43253 0.0
C1208 C 0.59182 0.97806 0.43092 0.0
C1209 C 0.61007 0.99117 0.45416 0.0
C1210 C 0.63302 0.98458 0.47832 0.0
C1211 C 0.64928 1.00209 0.49978 0.0
C1212 C 0.65426 1.00106 0.57 0.0
C1213 C 0.67448 1.00303 0.46311 0.0
C1214 C 0.63184 0.01947 0.48363 0.0
C1215 C 0.60935 0.01271 0.45733 0.0
C1216 C 0.59043 0.02572 0.4369 0.0
C1217 C 0.59462 0.04624 0.44279 0.0
C1218 C 0.61751 0.05367 0.46923 0.0
C1219 C 0.63627 0.04005 0.49054 0.0
H1220 H 0.65093 0.4687 0.99064 0.0
H1221 H 0.58032 0.4571 0.09035 0.0
H1222 H 0.57465 0.49316 0.10761 0.0
H1223 H 0.67236 0.51019 0.08704 0.0
H1224 H 0.68512 0.52412 0.02266 0.0
H1225 H 0.68428 0.49727 0.01948 0.0
H1226 H 0.65875 0.49884 0.91671 0.0
H1227 H 0.65954 0.52567 0.91949 0.0
H1228 H 0.62935 0.51286 0.91387 0.0
H1229 H 0.57501 0.53029 0.10922 0.0
H1230 H 0.58193 0.56646 0.09681 0.0
H1231 H 0.65305 0.55468 0.99966 0.0
C1232 C 0.63435 0.47374 0.01643 0.0
C1233 C 0.61605 0.45999 0.03912 0.0
C1234 C 0.5946 0.46726 0.07242 0.0
C1235 C 0.59121 0.48774 0.0826 0.0
C1236 C 0.60948 0.50087 0.05944 0.0
C1237 C 0.63068 0.49422 0.0272 0.0
C1238 C 0.64706 0.51163 0.00605 0.0
C1239 C 0.67379 0.51074 0.0356 0.0
C1240 C 0.64877 0.51228 0.93481 0.0
C1241 C 0.63165 0.52908 0.03125 0.0
C1242 C 0.61 0.52246 0.06168 0.0
C1243 C 0.59202 0.53566 0.08608 0.0
C1244 C 0.59609 0.55617 0.07871 0.0
C1245 C 0.61811 0.56336 0.04786 0.0
C1246 C 0.63628 0.5496 0.0245 0.0
H1247 H 0.88247 0.46267 0.39309 0.0
H1248 H 0.83856 0.44763 0.55742 0.0
H1249 H 0.83517 0.48333 0.58399 0.0
H1250 H 0.91766 0.50355 0.45838 0.0
H1251 H 0.91614 0.51871 0.38952 0.0
H1252 H 0.91536 0.49193 0.38305 0.0
H1253 H 0.87278 0.49401 0.32202 0.0
H1254 H 0.87352 0.5208 0.32796 0.0
H1255 H 0.84603 0.50722 0.35535 0.0
H1256 H 0.83795 0.52051 0.5954 0.0
H1257 H 0.84326 0.5569 0.58584 0.0
H1258 H 0.88351 0.5484 0.4115 0.0
C1259 C 0.87209 0.4669 0.43458 0.0
C1260 C 0.86084 0.45229 0.47327 0.0
C1261 C 0.84727 0.45849 0.52689 0.0
C1262 C 0.84532 0.47876 0.54257 0.0
C1263 C 0.85679 0.49275 0.50383 0.0
C1264 C 0.86962 0.48715 0.45049 0.0
C1265 C 0.87959 0.50529 0.41607 0.0
C1266 C 0.90893 0.50484 0.41151 0.0
C1267 C 0.86724 0.50692 0.35153 0.0
C1268 C 0.87055 0.52192 0.45872 0.0
C1269 C 0.85764 0.51431 0.50932 0.0
C1270 C 0.84789 0.52665 0.55577 0.0
C1271 C 0.85111 0.54734 0.55003 0.0
C1272 C 0.86375 0.55559 0.49788 0.0
C1273 C 0.87367 0.54261 0.45182 0.0
H1274 H 0.38581 0.55509 0.09213 0.0
H1275 H 0.32151 0.56733 0.97074 0.0
H1276 H 0.31347 0.53118 0.96064 0.0
H1277 H 0.40907 0.51228 0.01488 0.0
H1278 H 0.41728 0.49886 0.08447 0.0
H1279 H 0.41727 0.5257 0.0847 0.0
H1280 H 0.38561 0.52587 0.17723 0.0
H1281 H 0.38561 0.49899 0.17743 0.0
H1282 H 0.35589 0.51244 0.17088 0.0
H1283 H 0.31362 0.49353 0.95982 0.0
H1284 H 0.32139 0.45738 0.9701 0.0
H1285 H 0.38531 0.46948 0.09299 0.0
C1286 C 0.36992 0.55018 0.06376 0.0
C1287 C 0.3543 0.56411 0.03217 0.0
C1288 C 0.33366 0.55702 0.9957 0.0
C1289 C 0.32896 0.53648 0.98957 0.0
C1290 C 0.34486 0.52316 0.02081 0.0
C1291 C 0.36478 0.52972 0.05769 0.0
C1292 C 0.37908 0.51227 0.08604 0.0
C1293 C 0.40735 0.51228 0.06631 0.0
C1294 C 0.37638 0.5124 0.15711 0.0
C1295 C 0.36469 0.49488 0.0576 0.0
C1296 C 0.34484 0.50149 0.02066 0.0
C1297 C 0.32901 0.4882 0.98898 0.0
C1298 C 0.33359 0.46766 0.99515 0.0
C1299 C 0.35395 0.4605 0.03239 0.0
C1300 C 0.36959 0.4744 0.06414 0.0
H1301 H 0.10197 0.46149 0.58269 0.0
H1302 H 0.15811 0.44946 0.4388 0.0
H1303 H 0.1607 0.48546 0.41621 0.0
H1304 H 0.06913 0.50155 0.50292 0.0
H1305 H 0.06396 0.51586 0.57274 0.0
H1306 H 0.06598 0.48907 0.57652 0.0
H1307 H 0.10245 0.49187 0.65747 0.0
H1308 H 0.10052 0.51865 0.65399 0.0
H1309 H 0.13053 0.50628 0.63918 0.0
H1310 H 0.1581 0.52272 0.41108 0.0
H1311 H 0.15096 0.55882 0.42464 0.0
H1312 H 0.09629 0.54667 0.57148 0.0
C1313 C 0.11475 0.4664 0.54628 0.0
C1314 C 0.12984 0.45263 0.51252 0.0
C1315 C 0.14637 0.4597 0.46534 0.0
C1316 C 0.14794 0.48012 0.45205 0.0
C1317 C 0.13282 0.49328 0.48623 0.0
C1318 C 0.11655 0.48672 0.53237 0.0
C1319 C 0.10279 0.50402 0.56313 0.0
C1320 C 0.07374 0.50253 0.55321 0.0
C1321 C 0.10948 0.50527 0.63255 0.0
C1322 C 0.11404 0.52134 0.5274 0.0
C1323 C 0.13125 0.5148 0.48312 0.0
C1324 C 0.14457 0.52803 0.44537 0.0
C1325 C 0.14037 0.54852 0.45347 0.0
C1326 C 0.12299 0.5556 0.49898 0.0
C1327 C 0.10952 0.54175 0.53593 0.0
H1328 H 0.21354 0.14959 0.11806 0.0
H1329 H 0.16794 0.10252 0.19927 0.0
H1330 H 0.1958 0.10243 0.29188 0.0
H1331 H 0.27278 0.13043 0.16534 0.0
H1332 H 0.28783 0.15402 0.18231 0.0
H1333 H 0.26287 0.1526 0.12498 0.0
H1334 H 0.23614 0.17922 0.18283 0.0
H1335 H 0.26128 0.18148 0.23962 0.0
H1336 H 0.2291 0.17594 0.26404 0.0
H1337 H 0.22941 0.10593 0.37165 0.0
H1338 H 0.26845 0.11162 0.43312 0.0
H1339 H 0.29332 0.1562 0.3004 0.0
C1340 C 0.20937 0.13952 0.15594 0.0
C1341 C 0.18816 0.12659 0.15341 0.0
C1342 C 0.18356 0.11309 0.20224 0.0
C1343 C 0.19931 0.11288 0.25464 0.0
C1344 C 0.21979 0.12609 0.25671 0.0
C1345 C 0.22501 0.13911 0.20868 0.0
C1346 C 0.24929 0.15077 0.22109 0.0
C1347 C 0.2694 0.14671 0.17045 0.0
C1348 C 0.24361 0.17318 0.22726 0.0
C1349 C 0.25716 0.1419 0.28284 0.0
C1350 C 0.23968 0.12786 0.3027 0.0
C1351 C 0.24319 0.11698 0.35694 0.0
C1352 C 0.26543 0.1203 0.39144 0.0
C1353 C 0.28382 0.13439 0.37164 0.0
C1354 C 0.2794 0.14555 0.31713 0.0
H1355 H 0.28739 0.90829 0.64608 0.0
H1356 H 0.30789 0.8456 0.64535 0.0
H1357 H 0.27517 0.83903 0.72534 0.0
H1358 H 0.27617 0.91111 0.81527 0.0
H1359 H 0.25007 0.92849 0.80764 0.0
H1360 H 0.27553 0.92835 0.75123 0.0
H1361 H 0.24208 0.92343 0.66347 0.0
H1362 H 0.21669 0.9233 0.71993 0.0
H1363 H 0.22035 0.9026 0.66718 0.0
H1364 H 0.23907 0.83866 0.79831 0.0
H1365 H 0.2035 0.84472 0.87004 0.0
H1366 H 0.20678 0.90809 0.83086 0.0
C1367 C 0.28504 0.89326 0.66345 0.0
C1368 C 0.30014 0.87741 0.64027 0.0
C1369 C 0.29664 0.8579 0.66334 0.0
C1370 C 0.27809 0.85404 0.7085 0.0
C1371 C 0.26345 0.86992 0.73047 0.0
C1372 C 0.2669 0.8892 0.7097 0.0
C1373 C 0.24866 0.90347 0.74223 0.0
C1374 C 0.26349 0.91876 0.78141 0.0
C1375 C 0.2309 0.91381 0.69539 0.0
C1376 C 0.23398 0.88907 0.78315 0.0
C1377 C 0.2429 0.86981 0.77507 0.0
C1378 C 0.23206 0.85368 0.80549 0.0
C1379 C 0.21166 0.85727 0.84575 0.0
C1380 C 0.20227 0.87682 0.85573 0.0
C1381 C 0.2137 0.893 0.82431 0.0
H1382 H 0.72796 0.89467 0.6131 0.0
H1383 H 0.67867 0.85251 0.70646 0.0
H1384 H 0.70963 0.84949 0.79153 0.0
H1385 H 0.78666 0.86839 0.65063 0.0
H1386 H 0.80519 0.89082 0.66035 0.0
H1387 H 0.77843 0.89054 0.60775 0.0
H1388 H 0.75835 0.92067 0.66569 0.0
H1389 H 0.78521 0.92111 0.71789 0.0
H1390 H 0.7532 0.91919 0.74828 0.0
H1391 H 0.74507 0.85223 0.86876 0.0
H1392 H 0.7838 0.85948 0.93088 0.0
H1393 H 0.81269 0.89676 0.78261 0.0
C1394 C 0.72361 0.88499 0.65182 0.0
C1395 C 0.70041 0.87422 0.65413 0.0
C1396 C 0.69583 0.86128 0.70459 0.0
C1397 C 0.71349 0.85933 0.7529 0.0
C1398 C 0.73619 0.87001 0.74914 0.0
C1399 C 0.74151 0.88241 0.69962 0.0
C1400 C 0.76783 0.89163 0.70612 0.0
C1401 C 0.78556 0.88494 0.65305 0.0
C1402 C 0.76603 0.91451 0.70974 0.0
C1403 C 0.77615 0.88276 0.76754 0.0
C1404 C 0.75753 0.87041 0.79171 0.0
C1405 C 0.76001 0.86159 0.84992 0.0
C1406 C 0.782 0.86575 0.88481 0.0
C1407 C 0.8013 0.87828 0.86072 0.0
C1408 C 0.79851 0.88662 0.80104 0.0
H1409 H 0.72107 0.13794 0.39387 0.0
H1410 H 0.66387 0.112 0.27403 0.0
H1411 H 0.69411 0.11351 0.18506 0.0
H1412 H 0.7557 0.16954 0.28999 0.0
H1413 H 0.78655 0.16187 0.31875 0.0
H1414 H 0.7591 0.16132 0.36915 0.0
H1415 H 0.76839 0.12443 0.39186 0.0
H1416 H 0.79473 0.12335 0.33835 0.0
H1417 H 0.76845 0.10649 0.32937 0.0
H1418 H 0.73057 0.12032 0.10879 0.0
H1419 H 0.77246 0.12446 0.05605 0.0
H1420 H 0.80719 0.14018 0.23174 0.0
C1421 C 0.71477 0.13315 0.34831 0.0
C1422 C 0.68957 0.1266 0.33845 0.0
C1423 C 0.68244 0.11883 0.28013 0.0
C1424 C 0.69956 0.11939 0.22994 0.0
C1425 C 0.72406 0.12689 0.24031 0.0
C1426 C 0.73186 0.13299 0.29864 0.0
C1427 C 0.76019 0.1372 0.30037 0.0
C1428 C 0.76569 0.15877 0.32075 0.0
C1429 C 0.77374 0.122 0.3425 0.0
C1430 C 0.76687 0.13384 0.23295 0.0
C1431 C 0.74578 0.12802 0.19883 0.0
C1432 C 0.74724 0.12471 0.135 0.0
C1433 C 0.77097 0.1272 0.10548 0.0
C1434 C 0.79282 0.13249 0.14036 0.0
C1435 C 0.79069 0.13588 0.20461 0.0
H1436 H 0.78381 0.64593 0.39523 0.0
H1437 H 0.83658 0.60657 0.3006 0.0
H1438 H 0.8066 0.6041 0.21143 0.0
H1439 H 0.72915 0.61836 0.35761 0.0
H1440 H 0.70842 0.63971 0.34994 0.0
H1441 H 0.73573 0.64092 0.40045 0.0
H1442 H 0.752 0.67216 0.34166 0.0
H1443 H 0.72471 0.67098 0.29072 0.0
H1444 H 0.75657 0.67095 0.25884 0.0
H1445 H 0.77032 0.60673 0.13226 0.0
H1446 H 0.72848 0.60944 0.07813 0.0
H1447 H 0.69743 0.64122 0.23643 0.0
C1448 C 0.7892 0.6372 0.35492 0.0
C1449 C 0.81299 0.62746 0.35219 0.0
C1450 C 0.81898 0.61509 0.3011 0.0
C1451 C 0.80204 0.61352 0.25075 0.0
C1452 C 0.77885 0.62378 0.254 0.0
C1453 C 0.77222 0.63501 0.30554 0.0
C1454 C 0.74508 0.64261 0.30137 0.0
C1455 C 0.72864 0.63492 0.35553 0.0
C1456 C 0.74457 0.66553 0.29794 0.0
C1457 C 0.73718 0.63342 0.24035 0.0
C1458 C 0.75715 0.62331 0.21233 0.0
C1459 C 0.75454 0.61453 0.15389 0.0
C1460 C 0.73082 0.6161 0.12362 0.0
C1461 C 0.70997 0.62558 0.15331 0.0
C1462 C 0.71317 0.63408 0.21255 0.0
H1463 H 0.80798 0.39858 0.71215 0.0
H1464 H 0.78608 0.35213 0.58242 0.0
H1465 H 0.7483 0.34437 0.64737 0.0
H1466 H 0.78555 0.37444 0.85537 0.0
H1467 H 0.77407 0.39759 0.88769 0.0
H1468 H 0.80096 0.39759 0.83535 0.0
H1469 H 0.77742 0.42282 0.76452 0.0
H1470 H 0.75044 0.42282 0.81632 0.0
H1471 H 0.74602 0.4168 0.73548 0.0
H1472 H 0.71189 0.34274 0.72501 0.0
H1473 H 0.67855 0.34896 0.80388 0.0
H1474 H 0.72266 0.3983 0.87713 0.0
C1475 C 0.79556 0.38646 0.69823 0.0
C1476 C 0.80006 0.37576 0.6428 0.0
C1477 C 0.783 0.36041 0.62499 0.0
C1478 C 0.76158 0.35587 0.66168 0.0
C1479 C 0.75739 0.36697 0.71559 0.0
C1480 C 0.77386 0.38203 0.73358 0.0
C1481 C 0.7639 0.393 0.79016 0.0
C1482 C 0.78221 0.3905 0.84541 0.0
C1483 C 0.75916 0.41516 0.77572 0.0
C1484 C 0.73903 0.38197 0.80074 0.0
C1485 C 0.73582 0.3668 0.75797 0.0
C1486 C 0.71417 0.35468 0.75841 0.0
C1487 C 0.69518 0.35842 0.80306 0.0
C1488 C 0.69754 0.37444 0.84542 0.0
C1489 C 0.72007 0.38606 0.84484 0.0
H1490 H 0.18823 0.39405 0.73474 0.0
H1491 H 0.2157 0.3567 0.58451 0.0
H1492 H 0.25393 0.34791 0.64681 0.0
H1493 H 0.24732 0.41489 0.76889 0.0
H1494 H 0.24212 0.41646 0.85145 0.0
H1495 H 0.21531 0.41709 0.79929 0.0
H1496 H 0.19499 0.38714 0.85643 0.0
H1497 H 0.22175 0.38625 0.90896 0.0
H1498 H 0.21295 0.36437 0.86523 0.0
H1499 H 0.28994 0.34402 0.72659 0.0
H1500 H 0.32219 0.34857 0.80971 0.0
H1501 H 0.2727 0.3918 0.89926 0.0
C1502 C 0.20199 0.38361 0.71569 0.0
C1503 C 0.19892 0.37575 0.65553 0.0
C1504 C 0.2177 0.36272 0.63094 0.0
C1505 C 0.23936 0.35758 0.66606 0.0
C1506 C 0.24205 0.36587 0.72516 0.0
C1507 C 0.22391 0.37876 0.74942 0.0
C1508 C 0.23243 0.38744 0.81075 0.0
C1509 C 0.23442 0.41032 0.80734 0.0
C1510 C 0.21447 0.3809 0.86345 0.0
C1511 C 0.25847 0.37784 0.81667 0.0
C1512 C 0.26348 0.36502 0.7679 0.0
C1513 C 0.28635 0.35429 0.76441 0.0
C1514 C 0.30471 0.35715 0.81132 0.0
C1515 C 0.30058 0.37127 0.85917 0.0
C1516 C 0.27683 0.38128 0.86237 0.0
H1517 H 0.29407 0.61281 0.21331 0.0
H1518 H 0.27089 0.65514 0.07196 0.0
H1519 H 0.22947 0.65979 0.12577 0.0
H1520 H 0.23184 0.59016 0.23695 0.0
H1521 H 0.23669 0.58748 0.31932 0.0
H1522 H 0.26367 0.58682 0.26737 0.0
H1523 H 0.285 0.61556 0.32929 0.0
H1524 H 0.25807 0.61638 0.38123 0.0
H1525 H 0.26782 0.63859 0.3407 0.0
H1526 H 0.19151 0.66117 0.19963 0.0
H1527 H 0.16012 0.65834 0.28526 0.0
H1528 H 0.20869 0.61475 0.37536 0.0
C1529 C 0.28022 0.6229 0.19311 0.0
C1530 C 0.28565 0.63358 0.13836 0.0
C1531 C 0.26706 0.64675 0.11381 0.0
C1532 C 0.24352 0.6495 0.14405 0.0
C1533 C 0.23894 0.63892 0.19854 0.0
C1534 C 0.25678 0.62582 0.22257 0.0
C1535 C 0.24773 0.61667 0.28265 0.0
C1536 C 0.2448 0.59394 0.27615 0.0
C1537 C 0.26572 0.62213 0.33663 0.0
C1538 C 0.22206 0.62681 0.28914 0.0
C1539 C 0.21723 0.63956 0.24027 0.0
C1540 C 0.19496 0.65101 0.23766 0.0
C1541 C 0.17719 0.64926 0.28627 0.0
C1542 C 0.18174 0.63606 0.33611 0.0
C1543 C 0.20454 0.62482 0.33744 0.0
H1544 H 0.16335 0.13307 0.62379 0.0
H1545 H 0.08613 0.14947 0.67461 0.0
H1546 H 0.07053 0.13745 0.57251 0.0
H1547 H 0.16145 0.15118 0.47921 0.0
H1548 H 0.18059 0.13215 0.44238 0.0
H1549 H 0.18447 0.13717 0.52364 0.0
H1550 H 0.17536 0.10005 0.54866 0.0
H1551 H 0.17151 0.09493 0.467 0.0
H1552 H 0.14639 0.08859 0.52072 0.0
H1553 H 0.06494 0.12973 0.46037 0.0
H1554 H 0.06981 0.12827 0.34651 0.0
H1555 H 0.15098 0.11715 0.36801 0.0
C1556 C 0.14303 0.13324 0.61404 0.0
C1557 C 0.1257 0.14162 0.65671 0.0
C1558 C 0.09941 0.14258 0.64245 0.0
C1559 C 0.09047 0.13576 0.58482 0.0
C1560 C 0.10817 0.12801 0.54261 0.0
C1561 C 0.13393 0.1266 0.55674 0.0
C1562 C 0.14954 0.12055 0.50062 0.0
C1563 C 0.1702 0.1362 0.48559 0.0
C1564 C 0.16139 0.09979 0.50981 0.0
C1565 C 0.12882 0.12003 0.45174 0.0
C1566 C 0.10499 0.12382 0.47714 0.0
C1567 C 0.08336 0.12623 0.44015 0.0
C1568 C 0.0863 0.12539 0.37555 0.0
C1569 C 0.11072 0.12242 0.34887 0.0
C1570 C 0.13202 0.11901 0.38744 0.0
H1571 H 0.38751 0.84923 0.12432 0.0
H1572 H 0.31717 0.87984 0.17235 0.0
H1573 H 0.31381 0.89243 0.06483 0.0
H1574 H 0.41177 0.88673 0.01149 0.0
H1575 H 0.4244 0.86762 0.96109 0.0
H1576 H 0.423 0.86353 0.04365 0.0
H1577 H 0.39701 0.83117 0.02525 0.0
H1578 H 0.39817 0.83519 0.94286 0.0
H1579 H 0.36776 0.83231 0.98116 0.0
H1580 H 0.31431 0.8966 0.94826 0.0
H1581 H 0.32077 0.89436 0.83442 0.0
H1582 H 0.39194 0.86268 0.86425 0.0
C1583 C 0.37175 0.859 0.11252 0.0
C1584 C 0.35267 0.86367 0.15659 0.0
C1585 C 0.3322 0.87635 0.13947 0.0
C1586 C 0.33009 0.88349 0.07847 0.0
C1587 C 0.34881 0.87805 0.03552 0.0
C1588 C 0.36949 0.86635 0.05212 0.0
C1589 C 0.38602 0.86138 0.99655 0.0
C1590 C 0.41289 0.87036 0.00363 0.0
C1591 C 0.3873 0.83868 0.98584 0.0
C1592 C 0.37109 0.87167 0.9457 0.0
C1593 C 0.34963 0.88118 0.96893 0.0
C1594 C 0.33143 0.88973 0.92975 0.0
C1595 C 0.3352 0.88839 0.86529 0.0
C1596 C 0.35713 0.87882 0.84098 0.0
C1597 C 0.37544 0.87069 0.88179 0.0
H1598 H 0.17538 0.85307 0.62525 0.0
H1599 H 0.12509 0.90313 0.66165 0.0
H1600 H 0.12206 0.90964 0.54876 0.0
H1601 H 0.20855 0.87404 0.48791 0.0
H1602 H 0.20931 0.8502 0.44907 0.0
H1603 H 0.21024 0.85139 0.53261 0.0
H1604 H 0.17066 0.8282 0.53829 0.0
H1605 H 0.1696 0.82697 0.45498 0.0
H1606 H 0.14185 0.83511 0.49772 0.0
H1607 H 0.12086 0.90819 0.42962 0.0
H1608 H 0.12073 0.89812 0.3185 0.0
H1609 H 0.17186 0.84924 0.36172 0.0
C1610 C 0.16432 0.86576 0.60957 0.0
C1611 C 0.15074 0.87776 0.6523 0.0
C1612 C 0.13591 0.89389 0.62979 0.0
C1613 C 0.13408 0.89769 0.56567 0.0
C1614 C 0.14724 0.88527 0.52451 0.0
C1615 C 0.16216 0.86965 0.54581 0.0
C1616 C 0.17256 0.85735 0.4924 0.0
C1617 C 0.20191 0.85831 0.49039 0.0
C1618 C 0.1631 0.83564 0.49609 0.0
C1619 C 0.16081 0.86819 0.43775 0.0
C1620 C 0.14645 0.88439 0.45679 0.0
C1621 C 0.13241 0.89572 0.41424 0.0
C1622 C 0.13254 0.89001 0.35112 0.0
C1623 C 0.1464 0.87301 0.33139 0.0
C1624 C 0.16125 0.86243 0.37532 0.0
H1625 H 0.37665 0.15584 0.87624 0.0
H1626 H 0.30551 0.12478 0.83948 0.0
H1627 H 0.30337 0.11468 0.94993 0.0
H1628 H 0.40192 0.12242 0.99642 0.0
H1629 H 0.41459 0.14294 0.04092 0.0
H1630 H 0.41238 0.14477 0.95769 0.0
H1631 H 0.38581 0.17724 0.96894 0.0
H1632 H 0.38785 0.1755 0.05201 0.0
H1633 H 0.35702 0.17702 0.01498 0.0
H1634 H 0.30722 0.11098 0.06806 0.0
H1635 H 0.31614 0.11479 0.18068 0.0
H1636 H 0.38301 0.15025 0.1375 0.0
C1637 C 0.36069 0.14674 0.89107 0.0
C1638 C 0.34118 0.14118 0.84917 0.0
C1639 C 0.32084 0.12905 0.87053 0.0
C1640 C 0.31943 0.12331 0.93325 0.0
C1641 C 0.33857 0.12975 0.97377 0.0
C1642 C 0.35886 0.14116 0.9532 0.0
C1643 C 0.37576 0.14783 0.00616 0.0
C1644 C 0.40276 0.13895 0.99991 0.0
C1645 C 0.37664 0.17075 0.01078 0.0
C1646 C 0.36156 0.13881 0.06024 0.0
C1647 C 0.34038 0.12814 0.04092 0.0
C1648 C 0.32389 0.11914 0.08348 0.0
C1649 C 0.32906 0.12138 0.14723 0.0
C1650 C 0.35018 0.13284 0.16743 0.0
C1651 C 0.36676 0.14134 0.12327 0.0
H1652 H 0.85088 0.88032 0.35975 0.0
H1653 H 0.9272 0.85732 0.32885 0.0
H1654 H 0.93825 0.86427 0.43825 0.0
H1655 H 0.86882 0.91928 0.4818 0.0
H1656 H 0.84008 0.91429 0.52528 0.0
H1657 H 0.84004 0.91188 0.44191 0.0
H1658 H 0.82363 0.8756 0.45229 0.0
H1659 H 0.82386 0.87784 0.53535 0.0
H1660 H 0.84155 0.85804 0.49828 0.0
H1661 H 0.93851 0.86769 0.55301 0.0
H1662 H 0.92812 0.86789 0.66491 0.0
H1663 H 0.85163 0.8888 0.62281 0.0
C1664 C 0.87025 0.87772 0.37556 0.0
C1665 C 0.88845 0.86878 0.33596 0.0
C1666 C 0.91327 0.86459 0.35849 0.0
C1667 C 0.91966 0.86847 0.42047 0.0
C1668 C 0.90102 0.8766 0.45924 0.0
C1669 C 0.87686 0.8814 0.43761 0.0
C1670 C 0.8594 0.88755 0.49051 0.0
C1671 C 0.85163 0.90956 0.48451 0.0
C1672 C 0.83573 0.87394 0.49431 0.0
C1673 C 0.87708 0.88446 0.54535 0.0
C1674 C 0.90115 0.8785 0.52623 0.0
C1675 C 0.91997 0.87285 0.56856 0.0
C1676 C 0.91391 0.87297 0.63197 0.0
C1677 C 0.88923 0.87861 0.6523 0.0
C1678 C 0.87084 0.88488 0.60851 0.0
H1679 H 0.67142 0.14034 0.86727 0.0
H1680 H 0.59421 0.12544 0.81245 0.0
H1681 H 0.5846 0.11493 0.92043 0.0
H1682 H 0.67847 0.10083 0.99186 0.0
H1683 H 0.69607 0.11761 0.0411 0.0
H1684 H 0.69912 0.11938 0.95797 0.0
H1685 H 0.68612 0.15653 0.96117 0.0
H1686 H 0.68361 0.15533 0.04408 0.0
H1687 H 0.65668 0.16367 0.99876 0.0
H1688 H 0.58159 0.1122 0.03731 0.0
H1689 H 0.58517 0.11774 0.15068 0.0
H1690 H 0.66404 0.1359 0.12725 0.0
C1691 C 0.65286 0.13401 0.87771 0.0
C1692 C 0.63362 0.1333 0.83212 0.0
C1693 C 0.60926 0.1256 0.84696 0.0
C1694 C 0.6037 0.11968 0.90805 0.0
C1695 C 0.62285 0.12143 0.95297 0.0
C1696 C 0.64707 0.1282 0.93812 0.0
C1697 C 0.66328 0.13133 0.9953 0.0
C1698 C 0.68557 0.11639 0.99657 0.0
C1699 C 0.67295 0.15299 1.00007 0.0
C1700 C 0.64393 0.12665 0.04513 0.0
C1701 C 0.62095 0.12035 0.02008 0.0
C1702 C 0.59966 0.11669 0.05738 0.0
C1703 C 0.60183 0.11991 0.12162 0.0
C1704 C 0.62494 0.1271 0.14734 0.0
C1705 C 0.6463 0.13009 0.10875 0.0
H1706 H 0.89728 0.1439 0.64587 0.0
H1707 H 0.81552 0.1542 0.65271 0.0
H1708 H 0.81221 0.14663 0.54096 0.0
H1709 H 0.90931 0.1658 0.50466 0.0
H1710 H 0.93212 0.14784 0.47589 0.0
H1711 H 0.92815 0.15128 0.55817 0.0
H1712 H 0.91839 0.11368 0.57166 0.0
H1713 H 0.92279 0.11001 0.48941 0.0
H1714 H 0.89343 0.10234 0.52604 0.0
H1715 H 0.81818 0.14306 0.42968 0.0
H1716 H 0.83236 0.13954 0.32153 0.0
H1717 H 0.91026 0.12985 0.38224 0.0
C1718 C 0.87868 0.14383 0.62383 0.0
C1719 C 0.85651 0.14924 0.65726 0.0
C1720 C 0.83249 0.14966 0.62747 0.0
C1721 C 0.83048 0.14548 0.56422 0.0
C1722 C 0.85269 0.14067 0.53188 0.0
C1723 C 0.87628 0.13938 0.56046 0.0
C1724 C 0.89712 0.13466 0.51347 0.0
C1725 C 0.91789 0.15087 0.51304 0.0
C1726 C 0.90861 0.11394 0.52589 0.0
C1727 C 0.88171 0.13469 0.4538 0.0
C1728 C 0.85608 0.13797 0.46619 0.0
C1729 C 0.838 0.13978 0.41945 0.0
C1730 C 0.84616 0.13763 0.3583 0.0
C1731 C 0.87203 0.13365 0.34414 0.0
C1732 C 0.89025 0.13248 0.39227 0.0
H1733 H 0.65616 0.84022 0.86204 0.0
H1734 H 0.62239 0.89875 0.83985 0.0
H1735 H 0.62213 0.90312 0.95466 0.0
H1736 H 0.62209 0.8255 0.99377 0.0
H1737 H 0.64858 0.81267 0.02929 0.0
H1738 H 0.64706 0.81495 0.94622 0.0
H1739 H 0.6918 0.8316 0.945 0.0
H1740 H 0.69359 0.82916 0.0281 0.0
H1741 H 0.69755 0.85328 0.99261 0.0
H1742 H 0.62202 0.89882 0.07532 0.0
H1743 H 0.62515 0.88763 0.18483 0.0
H1744 H 0.66314 0.83357 0.12252 0.0
C1745 C 0.64896 0.85408 0.88128 0.0
C1746 C 0.63918 0.86913 0.84238 0.0
C1747 C 0.63008 0.88709 0.86909 0.0
C1748 C 0.62978 0.88962 0.93418 0.0
C1749 C 0.63916 0.87422 0.97151 0.0
C1750 C 0.64903 0.85696 0.94551 0.0
C1751 C 0.65795 0.8425 0.99458 0.0
C1752 C 0.64302 0.82275 0.99071 0.0
C1753 C 0.68694 0.83894 0.98979 0.0
C1754 C 0.65114 0.85403 0.05262 0.0
C1755 C 0.64015 0.87223 0.03902 0.0
C1756 C 0.63097 0.88469 0.08621 0.0
C1757 C 0.63291 0.87825 0.14845 0.0
C1758 C 0.64403 0.85953 0.16304 0.0
C1759 C 0.65379 0.84769 0.11387 0.0
H1760 H 0.65875 0.6292 0.65375 0.0
H1761 H 0.57912 0.64171 0.69149 0.0
H1762 H 0.56826 0.63384 0.58228 0.0
H1763 H 0.66114 0.65414 0.52007 0.0
H1764 H 0.68275 0.63783 0.47896 0.0
H1765 H 0.68341 0.63873 0.5622 0.0
H1766 H 0.6758 0.60059 0.56755 0.0
H1767 H 0.67554 0.59951 0.48394 0.0
H1768 H 0.64889 0.58981 0.52747 0.0
H1769 H 0.5674 0.63066 0.467 0.0
H1770 H 0.5765 0.63288 0.35461 0.0
H1771 H 0.65727 0.62432 0.39139 0.0
C1772 C 0.63889 0.62915 0.63946 0.0
C1773 C 0.61955 0.63529 0.68073 0.0
C1774 C 0.59392 0.63635 0.66047 0.0
C1775 C 0.58767 0.63196 0.59866 0.0
C1776 C 0.60737 0.62671 0.55807 0.0
C1777 C 0.63249 0.62516 0.57777 0.0
C1778 C 0.6506 0.62246 0.52357 0.0
C1779 C 0.67063 0.6393 0.52109 0.0
C1780 C 0.66346 0.60186 0.52577 0.0
C1781 C 0.63196 0.62382 0.47018 0.0
C1782 C 0.60705 0.62573 0.49098 0.0
C1783 C 0.58674 0.62876 0.45016 0.0
C1784 C 0.59208 0.63008 0.38654 0.0
C1785 C 0.61754 0.62872 0.36479 0.0
C1786 C 0.6376 0.62522 0.407 0.0
H1787 H 0.91525 0.36912 0.86232 0.0
H1788 H 0.86455 0.42012 0.85265 0.0
H1789 H 0.8641 0.42221 0.96702 0.0
H1790 H 0.88353 0.34596 0.9752 0.0
H1791 H 0.91055 0.33549 0.01559 0.0
H1792 H 0.91307 0.34122 0.93452 0.0
H1793 H 0.95228 0.36378 0.95604 0.0
H1794 H 0.95012 0.35788 0.03748 0.0
H1795 H 0.94989 0.38353 0.01267 0.0
H1796 H 0.86122 0.41422 0.07964 0.0
H1797 H 0.85658 0.39716 0.18009 0.0
H1798 H 0.90987 0.35155 0.11872 0.0
C1799 C 0.90523 0.38138 0.88429 0.0
C1800 C 0.89037 0.39473 0.84876 0.0
C1801 C 0.87646 0.41001 0.87909 0.0
C1802 C 0.87607 0.41128 0.94409 0.0
C1803 C 0.88979 0.3972 0.97811 0.0
C1804 C 0.90441 0.38267 0.94923 0.0
C1805 C 0.91404 0.36748 0.99572 0.0
C1806 C 0.90473 0.34631 0.97926 0.0
C1807 C 0.94333 0.36822 1.00078 0.0
C1808 C 0.90151 0.37514 0.05453 0.0
C1809 C 0.88799 0.3925 0.04372 0.0
C1810 C 0.87237 0.40098 0.08918 0.0
C1811 C 0.86994 0.3912 0.14643 0.0
C1812 C 0.88296 0.37302 0.15777 0.0
C1813 C 0.89968 0.36542 0.11174 0.0
H1814 H 0.6631 0.36295 0.61506 0.0
H1815 H 0.59332 0.3967 0.64224 0.0
H1816 H 0.59006 0.40186 0.52847 0.0
H1817 H 0.68877 0.38921 0.47943 0.0
H1818 H 0.69923 0.36639 0.44296 0.0
H1819 H 0.69813 0.36821 0.52636 0.0
H1820 H 0.66903 0.33699 0.53077 0.0
H1821 H 0.67007 0.33504 0.44758 0.0
H1822 H 0.63971 0.33665 0.48683 0.0
H1823 H 0.59298 0.40099 0.41046 0.0
H1824 H 0.59912 0.39121 0.3003 0.0
H1825 H 0.66555 0.35642 0.35222 0.0
C1826 C 0.64757 0.37195 0.59714 0.0
C1827 C 0.62878 0.37989 0.63714 0.0
C1828 C 0.6081 0.39082 0.61209 0.0
C1829 C 0.60617 0.39384 0.54768 0.0
C1830 C 0.62487 0.38554 0.50916 0.0
C1831 C 0.64501 0.37461 0.53312 0.0
C1832 C 0.66067 0.36498 0.48214 0.0
C1833 C 0.68834 0.37267 0.48278 0.0
C1834 C 0.6598 0.34207 0.48714 0.0
C1835 C 0.64631 0.37224 0.42559 0.0
C1836 C 0.6259 0.38429 0.44183 0.0
C1837 C 0.60907 0.39176 0.39723 0.0
C1838 C 0.61277 0.38627 0.33479 0.0
C1839 C 0.6329 0.37323 0.31793 0.0
C1840 C 0.65018 0.3666 0.36385 0.0
H1841 H 0.8357 0.6329 0.14607 0.0
H1842 H 0.91464 0.61354 0.15615 0.0
H1843 H 0.9164 0.61161 0.04163 0.0
H1844 H 0.81814 0.60433 0.99865 0.0
H1845 H 0.79847 0.6248 0.97299 0.0
H1846 H 0.80152 0.61956 0.05466 0.0
H1847 H 0.8161 0.65589 0.07399 0.0
H1848 H 0.81356 0.66125 0.99274 0.0
H1849 H 0.84341 0.66544 0.03246 0.0
H1850 H 0.91211 0.61839 0.92744 0.0
H1851 H 0.90174 0.63288 0.82447 0.0
H1852 H 0.8261 0.64832 0.89079 0.0
C1853 C 0.85299 0.62745 0.12417 0.0
C1854 C 0.87497 0.62326 0.15943 0.0
C1855 C 0.89751 0.61661 0.12958 0.0
C1856 C 0.89866 0.61544 0.06463 0.0
C1857 C 0.87698 0.6207 0.03073 0.0
C1858 C 0.85442 0.62628 0.05965 0.0
C1859 C 0.835 0.63391 0.01359 0.0
C1860 C 0.81192 0.6198 0.00972 0.0
C1861 C 0.82656 0.65539 0.02914 0.0
C1862 C 0.85072 0.63308 0.95491 0.0
C1863 C 0.87464 0.62491 0.9651 0.0
C1864 C 0.89324 0.62436 0.91856 0.0
C1865 C 0.8873 0.63265 0.86051 0.0
C1866 C 0.86322 0.64164 0.85058 0.0
C1867 C 0.84461 0.6414 0.89772 0.0
H1868 H 0.40368 0.36461 0.37185 0.0
H1869 H 0.3292 0.38909 0.32722 0.0
H1870 H 0.32393 0.39987 0.43619 0.0
H1871 H 0.38597 0.34308 0.50733 0.0
H1872 H 0.41529 0.34768 0.54887 0.0
H1873 H 0.41566 0.34588 0.46571 0.0
H1874 H 0.43653 0.38081 0.45823 0.0
H1875 H 0.43646 0.3827 0.5417 0.0
H1876 H 0.42147 0.40184 0.49567 0.0
H1877 H 0.32332 0.40206 0.55285 0.0
H1878 H 0.32837 0.3968 0.66587 0.0
H1879 H 0.40333 0.37112 0.63406 0.0
C1880 C 0.38662 0.3728 0.38466 0.0
C1881 C 0.36694 0.37614 0.34103 0.0
C1882 C 0.34475 0.38671 0.35957 0.0
C1883 C 0.34154 0.39281 0.42149 0.0
C1884 C 0.36084 0.38845 0.46403 0.0
C1885 C 0.38313 0.37893 0.44612 0.0
C1886 C 0.39972 0.37396 0.50151 0.0
C1887 C 0.40441 0.35132 0.5061 0.0
C1888 C 0.42505 0.38553 0.49913 0.0
C1889 C 0.38283 0.38139 0.5537 0.0
C1890 C 0.3606 0.38992 0.53125 0.0
C1891 C 0.34094 0.39593 0.57094 0.0
C1892 C 0.34394 0.39288 0.63501 0.0
C1893 C 0.36641 0.38389 0.65855 0.0
C1894 C 0.38624 0.37851 0.6174 0.0
H1895 H 0.14813 0.619 0.12742 0.0
H1896 H 0.0658 0.61656 0.14848 0.0
H1897 H 0.0609 0.61451 0.03488 0.0
H1898 H 0.14954 0.65113 0.01268 0.0
H1899 H 0.17569 0.64067 0.96885 0.0
H1900 H 0.17347 0.63609 0.05061 0.0
H1901 H 0.17422 0.59796 0.03115 0.0
H1902 H 0.17686 0.60239 0.94887 0.0
H1903 H 0.15146 0.58695 0.97847 0.0
H1904 H 0.06433 0.62094 0.92169 0.0
H1905 H 0.0764 0.63348 0.81747 0.0
H1906 H 0.15624 0.63154 0.86951 0.0
C1907 C 0.12919 0.61701 0.1081 0.0
C1908 C 0.10737 0.61777 0.14633 0.0
C1909 C 0.08277 0.61576 0.11976 0.0
C1910 C 0.0798 0.61457 0.05527 0.0
C1911 C 0.10165 0.61506 0.01831 0.0
C1912 C 0.12595 0.61582 0.04381 0.0
C1913 C 0.14606 0.61901 0.99438 0.0
C1914 C 0.16209 0.63784 0.00744 0.0
C1915 C 0.16316 0.60047 0.98783 0.0
C1916 C 0.12917 0.62155 0.93804 0.0
C1917 C 0.10365 0.61869 0.95232 0.0
C1918 C 0.08428 0.62253 0.90933 0.0
C1919 C 0.09121 0.62967 0.85054 0.0
C1920 C 0.11716 0.63299 0.83608 0.0
C1921 C 0.13632 0.62853 0.87968 0.0
H1922 H 0.34195 0.6631 0.62893 0.0
H1923 H 0.3899 0.61465 0.69273 0.0
H1924 H 0.39189 0.6012 0.58513 0.0
H1925 H 0.30657 0.63478 0.50859 0.0
H1926 H 0.30611 0.65593 0.4572 0.0
H1927 H 0.30588 0.65971 0.54001 0.0
H1928 H 0.34606 0.68216 0.53069 0.0
H1929 H 0.34658 0.67833 0.44814 0.0
H1930 H 0.3744 0.6724 0.49388 0.0
H1931 H 0.39276 0.59599 0.46751 0.0
H1932 H 0.39079 0.59867 0.35257 0.0
H1933 H 0.34179 0.65056 0.37046 0.0
C1934 C 0.35237 0.64939 0.62029 0.0
C1935 C 0.36576 0.63979 0.66824 0.0
C1936 C 0.37939 0.62201 0.65602 0.0
C1937 C 0.38061 0.61434 0.5953 0.0
C1938 C 0.36777 0.62458 0.54832 0.0
C1939 C 0.35361 0.64159 0.56058 0.0
C1940 C 0.34305 0.65078 0.50221 0.0
C1941 C 0.31366 0.65026 0.50201 0.0
C1942 C 0.35314 0.67217 0.49323 0.0
C1943 C 0.35405 0.63667 0.4547 0.0
C1944 C 0.36812 0.62154 0.48173 0.0
C1945 C 0.38142 0.60757 0.44596 0.0
C1946 C 0.38029 0.60922 0.38096 0.0
C1947 C 0.36608 0.62476 0.35318 0.0
C1948 C 0.35264 0.63842 0.39059 0.0
H1949 H 0.15324 0.35012 0.15709 0.0
H1950 H 0.07818 0.37287 0.20395 0.0
H1951 H 0.07258 0.38454 0.09523 0.0
H1952 H 0.17145 0.38928 0.04593 0.0
H1953 H 0.18746 0.37162 0.99608 0.0
H1954 H 0.18612 0.36732 0.07849 0.0
H1955 H 0.16571 0.33263 0.05851 0.0
H1956 H 0.16689 0.33692 0.97626 0.0
H1957 H 0.13689 0.33096 0.01294 0.0
H1958 H 0.0735 0.38917 0.97716 0.0
H1959 H 0.08215 0.38853 0.86366 0.0
H1960 H 0.15757 0.36432 0.89946 0.0
C1961 C 0.13589 0.358 0.1446 0.0
C1962 C 0.11614 0.36077 0.18809 0.0
C1963 C 0.09352 0.37085 0.17076 0.0
C1964 C 0.09023 0.37745 0.10935 0.0
C1965 C 0.10993 0.37402 0.06681 0.0
C1966 C 0.13247 0.36476 0.08417 0.0
C1967 C 0.15014 0.36159 0.0297 0.0
C1968 C 0.17527 0.37316 0.03808 0.0
C1969 C 0.15518 0.33921 0.01873 0.0
C1970 C 0.13403 0.37036 0.97859 0.0
C1971 C 0.1108 0.37735 1.00034 0.0
C1972 C 0.09187 0.3842 0.95989 0.0
C1973 C 0.09688 0.38378 0.89572 0.0
C1974 C 0.12067 0.37677 0.87335 0.0
C1975 C 0.13948 0.37031 0.91546 0.0
loop_
_geom_bond_atom_site_label_1
_geom_bond_atom_site_label_2
_geom_bond_distance
_geom_bond_site_symmetry_2
_ccdc_geom_bond_type
O0 Tb1 2.292 . S
O0 C3 1.255 . S
Tb1 O0 2.292 . S
Tb1 O17 2.326 . S
Tb1 O19 2.500 . S
Tb1 O20 2.473 . S
Tb1 O23 2.324 . S
Eu2 O6 2.292 1_554 S
Eu2 C7 2.852 1_554 S
Eu2 O18 2.324 . S
Eu2 O22 2.326 . S
Eu2 O24 2.500 1_554 S
Eu2 O25 2.473 1_554 S
C3 O0 1.255 . S
C3 O4 1.247 . S
O4 C3 1.247 . S
C5 O17 1.242 . S
C5 O18 1.258 . S
O6 Eu2 2.292 1_556 S
O6 C8 1.255 1_556 S
C7 Eu2 2.852 1_556 S
C7 C11 1.503 . S
C7 O24 1.273 . S
C7 O25 1.257 . S
C8 O6 1.255 1_554 S
C8 O9 1.247 . S
O9 C8 1.247 . S
C10 O22 1.242 . S
C10 O23 1.258 . S
C11 C7 1.503 . S
C11 C12 1.379 . S
C11 C16 1.392 . S
C12 C11 1.379 . S
C12 C13 1.404 . S
C12 H26 0.929 . S
C13 C12 1.404 . S
C13 C14 1.389 . S
C14 C13 1.389 . S
C14 C15 1.399 . S
C14 H27 0.931 . S
C15 C14 1.399 . S
C15 C16 1.390 . S
C16 C11 1.392 . S
C16 C15 1.390 . S
C16 H28 0.929 . S
O17 Tb1 2.326 . S
O17 C5 1.242 . S
O18 Eu2 2.324 . S
O18 C5 1.258 . S
O19 Tb1 2.500 . S
O19 C21 1.273 . S
O20 Tb1 2.473 . S
O20 C21 1.257 . S
C21 O19 1.273 . S
C21 O20 1.257 . S
O22 Eu2 2.326 . S
O22 C10 1.242 . S
O23 Tb1 2.324 . S
O23 C10 1.258 . S
O24 Eu2 2.500 1_556 S
O24 C7 1.273 . S
O25 Eu2 2.473 1_556 S
O25 C7 1.257 . S
H26 C12 0.929 . S
H27 C14 0.931 . S
H28 C16 0.929 . S
O29 Tb30 2.292 . S
O29 C32 1.255 . S
Tb30 O29 2.292 . S
Tb30 O46 2.326 . S
Tb30 O48 2.500 . S
Tb30 O49 2.473 . S
Tb30 O52 2.324 . S
Eu31 O35 2.292 . S
Eu31 C36 2.852 . S
Eu31 O47 2.324 . S
Eu31 O51 2.326 . S
Eu31 O53 2.500 . S
Eu31 O54 2.473 . S
C32 O29 1.255 . S
C32 O33 1.247 . S
O33 C32 1.247 . S
C34 O46 1.242 . S
C34 O47 1.258 . S
O35 Eu31 2.292 . S
O35 C37 1.255 . S
C36 Eu31 2.852 . S
C36 C40 1.503 . S
C36 O53 1.273 . S
C36 O54 1.257 . S
C37 O35 1.255 . S
C37 O38 1.247 . S
O38 C37 1.247 . S
C39 O51 1.242 . S
C39 O52 1.258 . S
C40 C36 1.503 . S
C40 C41 1.379 . S
C40 C45 1.392 . S
C41 C40 1.379 . S
C41 C42 1.404 . S
C41 H55 0.929 . S
C42 C41 1.404 . S
C42 C43 1.389 . S
C43 C42 1.389 . S
C43 C44 1.399 . S
C43 H56 0.931 . S
C44 C43 1.399 . S
C44 C45 1.390 . S
C45 C40 1.392 . S
C45 C44 1.390 . S
C45 H57 0.929 . S
O46 Tb30 2.326 . S
O46 C34 1.242 . S
O47 Eu31 2.324 . S
O47 C34 1.258 . S
O48 Tb30 2.500 . S
O48 C50 1.273 . S
O49 Tb30 2.473 . S
O49 C50 1.257 . S
C50 O48 1.273 . S
C50 O49 1.257 . S
O51 Eu31 2.326 . S
O51 C39 1.242 . S
O52 Tb30 2.324 . S
O52 C39 1.258 . S
O53 Eu31 2.500 . S
O53 C36 1.273 . S
O54 Eu31 2.473 . S
O54 C36 1.257 . S
H55 C41 0.929 . S
H56 C43 0.931 . S
H57 C45 0.929 . S
O58 Tb59 2.292 . S
O58 C61 1.255 . S
Tb59 O58 2.292 . S
Tb59 O75 2.326 . S
Tb59 O77 2.500 . S
Tb59 O78 2.473 . S
Tb59 O81 2.324 . S
Eu60 O64 2.292 1_556 S
Eu60 C65 2.852 1_556 S
Eu60 O76 2.324 . S
Eu60 O80 2.326 . S
Eu60 O82 2.500 1_556 S
Eu60 O83 2.473 1_556 S
C61 O58 1.255 . S
C61 O62 1.247 . S
O62 C61 1.247 . S
C63 O75 1.242 . S
C63 O76 1.258 . S
O64 Eu60 2.292 1_554 S
O64 C66 1.255 1_554 S
C65 Eu60 2.852 1_554 S
C65 C69 1.503 . S
C65 O82 1.273 . S
C65 O83 1.257 . S
C66 O64 1.255 1_556 S
C66 O67 1.247 . S
O67 C66 1.247 . S
C68 O80 1.242 . S
C68 O81 1.258 . S
C69 C65 1.503 . S
C69 C70 1.379 . S
C69 C74 1.392 . S
C70 C69 1.379 . S
C70 C71 1.404 . S
C70 H84 0.929 . S
C71 C70 1.404 . S
C71 C72 1.389 . S
C72 C71 1.389 . S
C72 C73 1.399 . S
C72 H85 0.931 . S
C73 C72 1.399 . S
C73 C74 1.390 . S
C74 C69 1.392 . S
C74 C73 1.390 . S
C74 H86 0.929 . S
O75 Tb59 2.326 . S
O75 C63 1.242 . S
O76 Eu60 2.324 . S
O76 C63 1.258 . S
O77 Tb59 2.500 . S
O77 C79 1.273 . S
O78 Tb59 2.473 . S
O78 C79 1.257 . S
C79 O77 1.273 . S
C79 O78 1.257 . S
O80 Eu60 2.326 . S
O80 C68 1.242 . S
O81 Tb59 2.324 . S
O81 C68 1.258 . S
O82 Eu60 2.500 1_554 S
O82 C65 1.273 . S
O83 Eu60 2.473 1_554 S
O83 C65 1.257 . S
H84 C70 0.929 . S
H85 C72 0.931 . S
H86 C74 0.929 . S
O87 Tb88 2.292 . S
O87 C90 1.255 . S
Tb88 O87 2.292 . S
Tb88 O104 2.326 . S
Tb88 O106 2.500 . S
Tb88 O107 2.473 . S
Tb88 O110 2.324 . S
Eu89 O93 2.292 . S
Eu89 C94 2.852 . S
Eu89 O105 2.324 . S
Eu89 O109 2.326 . S
Eu89 O111 2.500 . S
Eu89 O112 2.473 . S
C90 O87 1.255 . S
C90 O91 1.247 . S
O91 C90 1.247 . S
C92 O104 1.242 . S
C92 O105 1.258 . S
O93 Eu89 2.292 . S
O93 C95 1.255 . S
C94 Eu89 2.852 . S
C94 C98 1.503 . S
C94 O111 1.273 . S
C94 O112 1.257 . S
C95 O93 1.255 . S
C95 O96 1.247 . S
O96 C95 1.247 . S
C97 O109 1.242 . S
C97 O110 1.258 . S
C98 C94 1.503 . S
C98 C99 1.379 . S
C98 C103 1.392 . S
C99 C98 1.379 . S
C99 C100 1.404 . S
C99 H113 0.929 . S
C100 C99 1.404 . S
C100 C101 1.389 . S
C101 C100 1.389 . S
C101 C102 1.399 . S
C101 H114 0.931 . S
C102 C101 1.399 . S
C102 C103 1.390 . S
C103 C98 1.392 . S
C103 C102 1.390 . S
C103 H115 0.929 . S
O104 Tb88 2.326 . S
O104 C92 1.242 . S
O105 Eu89 2.324 . S
O105 C92 1.258 . S
O106 Tb88 2.500 . S
O106 C108 1.273 . S
O107 Tb88 2.473 . S
O107 C108 1.257 . S
C108 O106 1.273 . S
C108 O107 1.257 . S
O109 Eu89 2.326 . S
O109 C97 1.242 . S
O110 Tb88 2.324 . S
O110 C97 1.258 . S
O111 Eu89 2.500 . S
O111 C94 1.273 . S
O112 Eu89 2.473 . S
O112 C94 1.257 . S
H113 C99 0.929 . S
H114 C101 0.931 . S
H115 C103 0.929 . S
O116 Tb117 2.292 . S
O116 C119 1.255 . S
Tb117 O116 2.292 . S
Tb117 O133 2.326 . S
Tb117 O135 2.500 . S
Tb117 O136 2.473 . S
Tb117 O139 2.324 . S
Eu118 O122 2.292 1_556 S
Eu118 C123 2.852 1_556 S
Eu118 O134 2.324 . S
Eu118 O138 2.326 . S
Eu118 O140 2.500 1_556 S
Eu118 O141 2.473 1_556 S
C119 O116 1.255 . S
C119 O120 1.247 . S
O120 C119 1.247 . S
C121 O133 1.242 . S
C121 O134 1.258 . S
O122 Eu118 2.292 1_554 S
O122 C124 1.255 1_554 S
C123 Eu118 2.852 1_554 S
C123 C127 1.503 . S
C123 O140 1.273 . S
C123 O141 1.257 . S
C124 O122 1.255 1_556 S
C124 O125 1.247 . S
O125 C124 1.247 . S
C126 O138 1.242 . S
C126 O139 1.258 . S
C127 C123 1.503 . S
C127 C128 1.379 . S
C127 C132 1.392 . S
C128 C127 1.379 . S
C128 C129 1.404 . S
C128 H142 0.929 . S
C129 C128 1.404 . S
C129 C130 1.389 . S
C130 C129 1.389 . S
C130 C131 1.399 . S
C130 H143 0.931 . S
C131 C130 1.399 . S
C131 C132 1.390 . S
C132 C127 1.392 . S
C132 C131 1.390 . S
C132 H144 0.929 . S
O133 Tb117 2.326 . S
O133 C121 1.242 . S
O134 Eu118 2.324 . S
O134 C121 1.258 . S
O135 Tb117 2.500 . S
O135 C137 1.273 . S
O136 Tb117 2.473 . S
O136 C137 1.257 . S
C137 O135 1.273 . S
C137 O136 1.257 . S
O138 Eu118 2.326 . S
O138 C126 1.242 . S
O139 Tb117 2.324 . S
O139 C126 1.258 . S
O140 Eu118 2.500 1_554 S
O140 C123 1.273 . S
O141 Eu118 2.473 1_554 S
O141 C123 1.257 . S
H142 C128 0.929 . S
H143 C130 0.931 . S
H144 C132 0.929 . S
O145 Tb146 2.292 . S
O145 C148 1.255 . S
Tb146 O145 2.292 . S
Tb146 O162 2.326 . S
Tb146 O164 2.500 . S
Tb146 O165 2.473 . S
Tb146 O168 2.324 . S
Eu147 O151 2.292 . S
Eu147 C152 2.852 . S
Eu147 O163 2.324 . S
Eu147 O167 2.326 . S
Eu147 O169 2.500 . S
Eu147 O170 2.473 . S
C148 O145 1.255 . S
C148 O149 1.247 . S
O149 C148 1.247 . S
C150 O162 1.242 . S
C150 O163 1.258 . S
O151 Eu147 2.292 . S
O151 C153 1.255 . S
C152 Eu147 2.852 . S
C152 C156 1.503 . S
C152 O169 1.273 . S
C152 O170 1.257 . S
C153 O151 1.255 . S
C153 O154 1.247 . S
O154 C153 1.247 . S
C155 O167 1.242 . S
C155 O168 1.258 . S
C156 C152 1.503 . S
C156 C157 1.379 . S
C156 C161 1.392 . S
C157 C156 1.379 . S
C157 C158 1.404 . S
C157 H171 0.929 . S
C158 C157 1.404 . S
C158 C159 1.389 . S
C159 C158 1.389 . S
C159 C160 1.399 . S
C159 H172 0.931 . S
C160 C159 1.399 . S
C160 C161 1.390 . S
C161 C156 1.392 . S
C161 C160 1.390 . S
C161 H173 0.929 . S
O162 Tb146 2.326 . S
O162 C150 1.242 . S
O163 Eu147 2.324 . S
O163 C150 1.258 . S
O164 Tb146 2.500 . S
O164 C166 1.273 . S
O165 Tb146 2.473 . S
O165 C166 1.257 . S
C166 O164 1.273 . S
C166 O165 1.257 . S
O167 Eu147 2.326 . S
O167 C155 1.242 . S
O168 Tb146 2.324 . S
O168 C155 1.258 . S
O169 Eu147 2.500 . S
O169 C152 1.273 . S
O170 Eu147 2.473 . S
O170 C152 1.257 . S
H171 C157 0.929 . S
H172 C159 0.931 . S
H173 C161 0.929 . S
O174 Tb175 2.292 . S
O174 C177 1.255 . S
Tb175 O174 2.292 . S
Tb175 O191 2.326 . S
Tb175 O193 2.500 . S
Tb175 O194 2.473 . S
Tb175 O197 2.324 . S
Eu176 O180 2.292 1_554 S
Eu176 C181 2.852 1_554 S
Eu176 O192 2.324 . S
Eu176 O196 2.326 . S
Eu176 O198 2.500 1_554 S
Eu176 O199 2.473 1_554 S
C177 O174 1.255 . S
C177 O178 1.247 . S
O178 C177 1.247 . S
C179 O191 1.242 . S
C179 O192 1.258 . S
O180 Eu176 2.292 1_556 S
O180 C182 1.255 1_556 S
C181 Eu176 2.852 1_556 S
C181 C185 1.503 . S
C181 O198 1.273 . S
C181 O199 1.257 . S
C182 O180 1.255 1_554 S
C182 O183 1.247 . S
O183 C182 1.247 . S
C184 O196 1.242 . S
C184 O197 1.258 . S
C185 C181 1.503 . S
C185 C186 1.379 . S
C185 C190 1.392 . S
C186 C185 1.379 . S
C186 C187 1.404 . S
C186 H200 0.929 . S
C187 C186 1.404 . S
C187 C188 1.389 . S
C188 C187 1.389 . S
C188 C189 1.399 . S
C188 H201 0.931 . S
C189 C188 1.399 . S
C189 C190 1.390 . S
C190 C185 1.392 . S
C190 C189 1.390 . S
C190 H202 0.929 . S
O191 Tb175 2.326 . S
O191 C179 1.242 . S
O192 Eu176 2.324 . S
O192 C179 1.258 . S
O193 Tb175 2.500 . S
O193 C195 1.273 . S
O194 Tb175 2.473 . S
O194 C195 1.257 . S
C195 O193 1.273 . S
C195 O194 1.257 . S
O196 Eu176 2.326 . S
O196 C184 1.242 . S
O197 Tb175 2.324 . S
O197 C184 1.258 . S
O198 Eu176 2.500 1_556 S
O198 C181 1.273 . S
O199 Eu176 2.473 1_556 S
O199 C181 1.257 . S
H200 C186 0.929 . S
H201 C188 0.931 . S
H202 C190 0.929 . S
O203 Tb204 2.292 . S
O203 C206 1.255 . S
Tb204 O203 2.292 . S
Tb204 O220 2.326 . S
Tb204 O222 2.500 . S
Tb204 O223 2.473 . S
Tb204 O226 2.324 . S
Eu205 O209 2.292 . S
Eu205 C210 2.852 . S
Eu205 O221 2.324 . S
Eu205 O225 2.326 . S
Eu205 O227 2.500 . S
Eu205 O228 2.473 . S
C206 O203 1.255 . S
C206 O207 1.247 . S
O207 C206 1.247 . S
C208 O220 1.242 . S
C208 O221 1.258 . S
O209 Eu205 2.292 . S
O209 C211 1.255 . S
C210 Eu205 2.852 . S
C210 C214 1.503 . S
C210 O227 1.273 . S
C210 O228 1.257 . S
C211 O209 1.255 . S
C211 O212 1.247 . S
O212 C211 1.247 . S
C213 O225 1.242 . S
C213 O226 1.258 . S
C214 C210 1.503 . S
C214 C215 1.379 . S
C214 C219 1.392 . S
C215 C214 1.379 . S
C215 C216 1.404 . S
C215 H229 0.929 . S
C216 C215 1.404 . S
C216 C217 1.389 . S
C217 C216 1.389 . S
C217 C218 1.399 . S
C217 H230 0.931 . S
C218 C217 1.399 . S
C218 C219 1.390 . S
C219 C214 1.392 . S
C219 C218 1.390 . S
C219 H231 0.929 . S
O220 Tb204 2.326 . S
O220 C208 1.242 . S
O221 Eu205 2.324 . S
O221 C208 1.258 . S
O222 Tb204 2.500 . S
O222 C224 1.273 . S
O223 Tb204 2.473 . S
O223 C224 1.257 . S
C224 O222 1.273 . S
C224 O223 1.257 . S
O225 Eu205 2.326 . S
O225 C213 1.242 . S
O226 Tb204 2.324 . S
O226 C213 1.258 . S
O227 Eu205 2.500 . S
O227 C210 1.273 . S
O228 Eu205 2.473 . S
O228 C210 1.257 . S
H229 C215 0.929 . S
H230 C217 0.931 . S
H231 C219 0.929 . S
O232 Tb233 2.292 . S
O232 C235 1.255 . S
Tb233 O232 2.292 . S
Tb233 O249 2.326 . S
Tb233 O251 2.500 . S
Tb233 O252 2.473 . S
Tb233 O255 2.324 . S
Eu234 O238 2.292 1_554 S
Eu234 C239 2.852 1_554 S
Eu234 O250 2.324 . S
Eu234 O254 2.326 . S
Eu234 O256 2.500 1_554 S
Eu234 O257 2.473 1_554 S
C235 O232 1.255 . S
C235 O236 1.247 . S
O236 C235 1.247 . S
C237 O249 1.242 . S
C237 O250 1.258 . S
O238 Eu234 2.292 1_556 S
O238 C240 1.255 1_556 S
C239 Eu234 2.852 1_556 S
C239 C243 1.503 . S
C239 O256 1.273 . S
C239 O257 1.257 . S
C240 O238 1.255 1_554 S
C240 O241 1.247 . S
O241 C240 1.247 . S
C242 O254 1.242 . S
C242 O255 1.258 . S
C243 C239 1.503 . S
C243 C244 1.379 . S
C243 C248 1.392 . S
C244 C243 1.379 . S
C244 C245 1.404 . S
C244 H258 0.929 . S
C245 C244 1.404 . S
C245 C246 1.389 . S
C246 C245 1.389 . S
C246 C247 1.399 . S
C246 H259 0.931 . S
C247 C246 1.399 . S
C247 C248 1.390 . S
C248 C243 1.392 . S
C248 C247 1.390 . S
C248 H260 0.929 . S
O249 Tb233 2.326 . S
O249 C237 1.242 . S
O250 Eu234 2.324 . S
O250 C237 1.258 . S
O251 Tb233 2.500 . S
O251 C253 1.273 . S
O252 Tb233 2.473 . S
O252 C253 1.257 . S
C253 O251 1.273 . S
C253 O252 1.257 . S
O254 Eu234 2.326 . S
O254 C242 1.242 . S
O255 Tb233 2.324 . S
O255 C242 1.258 . S
O256 Eu234 2.500 1_556 S
O256 C239 1.273 . S
O257 Eu234 2.473 1_556 S
O257 C239 1.257 . S
H258 C244 0.929 . S
H259 C246 0.931 . S
H260 C248 0.929 . S
O261 Tb262 2.292 . S
O261 C264 1.255 . S
Tb262 O261 2.292 . S
Tb262 O278 2.326 . S
Tb262 O280 2.500 . S
Tb262 O281 2.473 . S
Tb262 O284 2.324 . S
Eu263 O267 2.292 . S
Eu263 C268 2.852 . S
Eu263 O279 2.324 . S
Eu263 O283 2.326 . S
Eu263 O285 2.500 . S
Eu263 O286 2.473 . S
C264 O261 1.255 . S
C264 O265 1.247 . S
O265 C264 1.247 . S
C266 O278 1.242 . S
C266 O279 1.258 . S
O267 Eu263 2.292 . S
O267 C269 1.255 . S
C268 Eu263 2.852 . S
C268 C272 1.503 . S
C268 O285 1.273 . S
C268 O286 1.257 . S
C269 O267 1.255 . S
C269 O270 1.247 . S
O270 C269 1.247 . S
C271 O283 1.242 . S
C271 O284 1.258 . S
C272 C268 1.503 . S
C272 C273 1.379 . S
C272 C277 1.392 . S
C273 C272 1.379 . S
C273 C274 1.404 . S
C273 H287 0.929 . S
C274 C273 1.404 . S
C274 C275 1.389 . S
C275 C274 1.389 . S
C275 C276 1.399 . S
C275 H288 0.931 . S
C276 C275 1.399 . S
C276 C277 1.390 . S
C277 C272 1.392 . S
C277 C276 1.390 . S
C277 H289 0.929 . S
O278 Tb262 2.326 . S
O278 C266 1.242 . S
O279 Eu263 2.324 . S
O279 C266 1.258 . S
O280 Tb262 2.500 . S
O280 C282 1.273 . S
O281 Tb262 2.473 . S
O281 C282 1.257 . S
C282 O280 1.273 . S
C282 O281 1.257 . S
O283 Eu263 2.326 . S
O283 C271 1.242 . S
O284 Tb262 2.324 . S
O284 C271 1.258 . S
O285 Eu263 2.500 . S
O285 C268 1.273 . S
O286 Eu263 2.473 . S
O286 C268 1.257 . S
H287 C273 0.929 . S
H288 C275 0.931 . S
H289 C277 0.929 . S
O290 Tb291 2.292 . S
O290 C293 1.255 . S
Tb291 O290 2.292 . S
Tb291 O307 2.326 . S
Tb291 O309 2.500 . S
Tb291 O310 2.473 . S
Tb291 O313 2.324 . S
Eu292 O296 2.292 1_556 S
Eu292 C297 2.852 1_556 S
Eu292 O308 2.324 . S
Eu292 O312 2.326 . S
Eu292 O314 2.500 1_556 S
Eu292 O315 2.473 1_556 S
C293 O290 1.255 . S
C293 O294 1.247 . S
O294 C293 1.247 . S
C295 O307 1.242 . S
C295 O308 1.258 . S
O296 Eu292 2.292 1_554 S
O296 C298 1.255 1_554 S
C297 Eu292 2.852 1_554 S
C297 C301 1.503 . S
C297 O314 1.273 . S
C297 O315 1.257 . S
C298 O296 1.255 1_556 S
C298 O299 1.247 . S
O299 C298 1.247 . S
C300 O312 1.242 . S
C300 O313 1.258 . S
C301 C297 1.503 . S
C301 C302 1.379 . S
C301 C306 1.392 . S
C302 C301 1.379 . S
C302 C303 1.404 . S
C302 H316 0.929 . S
C303 C302 1.404 . S
C303 C304 1.389 . S
C304 C303 1.389 . S
C304 C305 1.399 . S
C304 H317 0.931 . S
C305 C304 1.399 . S
C305 C306 1.390 . S
C306 C301 1.392 . S
C306 C305 1.390 . S
C306 H318 0.929 . S
O307 Tb291 2.326 . S
O307 C295 1.242 . S
O308 Eu292 2.324 . S
O308 C295 1.258 . S
O309 Tb291 2.500 . S
O309 C311 1.273 . S
O310 Tb291 2.473 . S
O310 C311 1.257 . S
C311 O309 1.273 . S
C311 O310 1.257 . S
O312 Eu292 2.326 . S
O312 C300 1.242 . S
O313 Tb291 2.324 . S
O313 C300 1.258 . S
O314 Eu292 2.500 1_554 S
O314 C297 1.273 . S
O315 Eu292 2.473 1_554 S
O315 C297 1.257 . S
H316 C302 0.929 . S
H317 C304 0.931 . S
H318 C306 0.929 . S
O319 Tb320 2.292 . S
O319 C322 1.255 . S
Tb320 O319 2.292 . S
Tb320 O336 2.326 . S
Tb320 O338 2.500 . S
Tb320 O339 2.473 . S
Tb320 O342 2.324 . S
Eu321 O325 2.292 . S
Eu321 C326 2.852 . S
Eu321 O337 2.324 . S
Eu321 O341 2.326 . S
Eu321 O343 2.500 . S
Eu321 O344 2.473 . S
C322 O319 1.255 . S
C322 O323 1.247 . S
O323 C322 1.247 . S
C324 O336 1.242 . S
C324 O337 1.258 . S
O325 Eu321 2.292 . S
O325 C327 1.255 . S
C326 Eu321 2.852 . S
C326 C330 1.503 . S
C326 O343 1.273 . S
C326 O344 1.257 . S
C327 O325 1.255 . S
C327 O328 1.247 . S
O328 C327 1.247 . S
C329 O341 1.242 . S
C329 O342 1.258 . S
C330 C326 1.503 . S
C330 C331 1.379 . S
C330 C335 1.392 . S
C331 C330 1.379 . S
C331 C332 1.404 . S
C331 H345 0.929 . S
C332 C331 1.404 . S
C332 C333 1.389 . S
C333 C332 1.389 . S
C333 C334 1.399 . S
C333 H346 0.931 . S
C334 C333 1.399 . S
C334 C335 1.390 . S
C335 C330 1.392 . S
C335 C334 1.390 . S
C335 H347 0.929 . S
O336 Tb320 2.326 . S
O336 C324 1.242 . S
O337 Eu321 2.324 . S
O337 C324 1.258 . S
O338 Tb320 2.500 . S
O338 C340 1.273 . S
O339 Tb320 2.473 . S
O339 C340 1.257 . S
C340 O338 1.273 . S
C340 O339 1.257 . S
O341 Eu321 2.326 . S
O341 C329 1.242 . S
O342 Tb320 2.324 . S
O342 C329 1.258 . S
O343 Eu321 2.500 . S
O343 C326 1.273 . S
O344 Eu321 2.473 . S
O344 C326 1.257 . S
H345 C331 0.929 . S
H346 C333 0.931 . S
H347 C335 0.929 . S
O348 Tb349 2.292 . S
O348 C351 1.255 . S
Tb349 O348 2.292 . S
Tb349 O365 2.326 . S
Tb349 O367 2.500 . S
Tb349 O368 2.473 . S
Tb349 O371 2.324 . S
Eu350 O354 2.292 1_556 S
Eu350 C355 2.852 1_556 S
Eu350 O366 2.324 . S
Eu350 O370 2.326 . S
Eu350 O372 2.500 1_556 S
Eu350 O373 2.473 1_556 S
C351 O348 1.255 . S
C351 O352 1.247 . S
O352 C351 1.247 . S
C353 O365 1.242 . S
C353 O366 1.258 . S
O354 Eu350 2.292 1_554 S
O354 C356 1.255 1_554 S
C355 Eu350 2.852 1_554 S
C355 C359 1.503 . S
C355 O372 1.273 . S
C355 O373 1.257 . S
C356 O354 1.255 1_556 S
C356 O357 1.247 . S
O357 C356 1.247 . S
C358 O370 1.242 . S
C358 O371 1.258 . S
C359 C355 1.503 . S
C359 C360 1.379 . S
C359 C364 1.392 . S
C360 C359 1.379 . S
C360 C361 1.404 . S
C360 H374 0.929 . S
C361 C360 1.404 . S
C361 C362 1.389 . S
C362 C361 1.389 . S
C362 C363 1.399 . S
C362 H375 0.931 . S
C363 C362 1.399 . S
C363 C364 1.390 . S
C364 C359 1.392 . S
C364 C363 1.390 . S
C364 H376 0.929 . S
O365 Tb349 2.326 . S
O365 C353 1.242 . S
O366 Eu350 2.324 . S
O366 C353 1.258 . S
O367 Tb349 2.500 . S
O367 C369 1.273 . S
O368 Tb349 2.473 . S
O368 C369 1.257 . S
C369 O367 1.273 . S
C369 O368 1.257 . S
O370 Eu350 2.326 . S
O370 C358 1.242 . S
O371 Tb349 2.324 . S
O371 C358 1.258 . S
O372 Eu350 2.500 1_554 S
O372 C355 1.273 . S
O373 Eu350 2.473 1_554 S
O373 C355 1.257 . S
H374 C360 0.929 . S
H375 C362 0.931 . S
H376 C364 0.929 . S
O377 Tb378 2.292 . S
O377 C380 1.255 . S
Tb378 O377 2.292 . S
Tb378 O394 2.326 . S
Tb378 O396 2.500 . S
Tb378 O397 2.473 . S
Tb378 O400 2.324 . S
Eu379 O383 2.292 . S
Eu379 C384 2.852 . S
Eu379 O395 2.324 . S
Eu379 O399 2.326 . S
Eu379 O401 2.500 . S
Eu379 O402 2.473 . S
C380 O377 1.255 . S
C380 O381 1.247 . S
O381 C380 1.247 . S
C382 O394 1.242 . S
C382 O395 1.258 . S
O383 Eu379 2.292 . S
O383 C385 1.255 . S
C384 Eu379 2.852 . S
C384 C388 1.503 . S
C384 O401 1.273 . S
C384 O402 1.257 . S
C385 O383 1.255 . S
C385 O386 1.247 . S
O386 C385 1.247 . S
C387 O399 1.242 . S
C387 O400 1.258 . S
C388 C384 1.503 . S
C388 C389 1.379 . S
C388 C393 1.392 . S
C389 C388 1.379 . S
C389 C390 1.404 . S
C389 H403 0.929 . S
C390 C389 1.404 . S
C390 C391 1.389 . S
C391 C390 1.389 . S
C391 C392 1.399 . S
C391 H404 0.931 . S
C392 C391 1.399 . S
C392 C393 1.390 . S
C393 C388 1.392 . S
C393 C392 1.390 . S
C393 H405 0.929 . S
O394 Tb378 2.326 . S
O394 C382 1.242 . S
O395 Eu379 2.324 . S
O395 C382 1.258 . S
O396 Tb378 2.500 . S
O396 C398 1.273 . S
O397 Tb378 2.473 . S
O397 C398 1.257 . S
C398 O396 1.273 . S
C398 O397 1.257 . S
O399 Eu379 2.326 . S
O399 C387 1.242 . S
O400 Tb378 2.324 . S
O400 C387 1.258 . S
O401 Eu379 2.500 . S
O401 C384 1.273 . S
O402 Eu379 2.473 . S
O402 C384 1.257 . S
H403 C389 0.929 . S
H404 C391 0.931 . S
H405 C393 0.929 . S
O406 Tb407 2.292 . S
O406 C409 1.255 . S
Tb407 O406 2.292 . S
Tb407 O423 2.326 . S
Tb407 O425 2.500 . S
Tb407 O426 2.473 . S
Tb407 O429 2.324 . S
Eu408 O412 2.292 1_554 S
Eu408 C413 2.852 1_554 S
Eu408 O424 2.324 . S
Eu408 O428 2.326 . S
Eu408 O430 2.500 1_554 S
Eu408 O431 2.473 1_554 S
C409 O406 1.255 . S
C409 O410 1.247 . S
O410 C409 1.247 . S
C411 O423 1.242 . S
C411 O424 1.258 . S
O412 Eu408 2.292 1_556 S
O412 C414 1.255 1_556 S
C413 Eu408 2.852 1_556 S
C413 C417 1.503 . S
C413 O430 1.273 . S
C413 O431 1.257 . S
C414 O412 1.255 1_554 S
C414 O415 1.247 . S
O415 C414 1.247 . S
C416 O428 1.242 . S
C416 O429 1.258 . S
C417 C413 1.503 . S
C417 C418 1.379 . S
C417 C422 1.392 . S
C418 C417 1.379 . S
C418 C419 1.404 . S
C418 H432 0.929 . S
C419 C418 1.404 . S
C419 C420 1.389 . S
C420 C419 1.389 . S
C420 C421 1.399 . S
C420 H433 0.931 . S
C421 C420 1.399 . S
C421 C422 1.390 . S
C422 C417 1.392 . S
C422 C421 1.390 . S
C422 H434 0.929 . S
O423 Tb407 2.326 . S
O423 C411 1.242 . S
O424 Eu408 2.324 . S
O424 C411 1.258 . S
O425 Tb407 2.500 . S
O425 C427 1.273 . S
O426 Tb407 2.473 . S
O426 C427 1.257 . S
C427 O425 1.273 . S
C427 O426 1.257 . S
O428 Eu408 2.326 . S
O428 C416 1.242 . S
O429 Tb407 2.324 . S
O429 C416 1.258 . S
O430 Eu408 2.500 1_556 S
O430 C413 1.273 . S
O431 Eu408 2.473 1_556 S
O431 C413 1.257 . S
H432 C418 0.929 . S
H433 C420 0.931 . S
H434 C422 0.929 . S
O435 Tb436 2.292 . S
O435 C438 1.255 . S
Tb436 O435 2.292 . S
Tb436 O452 2.326 . S
Tb436 O454 2.500 . S
Tb436 O455 2.473 . S
Tb436 O458 2.324 . S
Eu437 O441 2.292 . S
Eu437 C442 2.852 . S
Eu437 O453 2.324 . S
Eu437 O457 2.326 . S
Eu437 O459 2.500 . S
Eu437 O460 2.473 . S
C438 O435 1.255 . S
C438 O439 1.247 . S
O439 C438 1.247 . S
C440 O452 1.242 . S
C440 O453 1.258 . S
O441 Eu437 2.292 . S
O441 C443 1.255 . S
C442 Eu437 2.852 . S
C442 C446 1.503 . S
C442 O459 1.273 . S
C442 O460 1.257 . S
C443 O441 1.255 . S
C443 O444 1.247 . S
O444 C443 1.247 . S
C445 O457 1.242 . S
C445 O458 1.258 . S
C446 C442 1.503 . S
C446 C447 1.379 . S
C446 C451 1.392 . S
C447 C446 1.379 . S
C447 C448 1.404 . S
C447 H461 0.929 . S
C448 C447 1.404 . S
C448 C449 1.389 . S
C449 C448 1.389 . S
C449 C450 1.399 . S
C449 H462 0.931 . S
C450 C449 1.399 . S
C450 C451 1.390 . S
C451 C446 1.392 . S
C451 C450 1.390 . S
C451 H463 0.929 . S
O452 Tb436 2.326 . S
O452 C440 1.242 . S
O453 Eu437 2.324 . S
O453 C440 1.258 . S
O454 Tb436 2.500 . S
O454 C456 1.273 . S
O455 Tb436 2.473 . S
O455 C456 1.257 . S
C456 O454 1.273 . S
C456 O455 1.257 . S
O457 Eu437 2.326 . S
O457 C445 1.242 . S
O458 Tb436 2.324 . S
O458 C445 1.258 . S
O459 Eu437 2.500 . S
O459 C442 1.273 . S
O460 Eu437 2.473 . S
O460 C442 1.257 . S
H461 C447 0.929 . S
H462 C449 0.931 . S
H463 C451 0.929 . S
H464 C476 0.930 . S
H465 C478 0.930 . S
H466 C479 0.930 . S
H467 C483 0.962 . S
H468 C483 0.979 . S
H469 C483 0.939 1_655 S
H470 C484 0.958 1_655 S
H471 C484 0.964 . S
H472 C484 0.956 1_556 S
H473 C487 0.929 . S
H474 C488 0.931 . S
H475 C490 0.930 . S
C476 H464 0.930 . S
C476 C477 1.399 . S
C476 C481 1.399 . S
C477 C476 1.399 . S
C477 C478 1.376 1_554 S
C478 H465 0.930 . S
C478 C477 1.376 1_556 S
C478 C479 1.388 . S
C479 H466 0.930 . S
C479 C478 1.388 . S
C479 C480 1.390 . S
C480 C479 1.390 . S
C480 C481 1.394 1_556 S
C480 C486 1.465 1_655 S
C481 C476 1.399 . S
C481 C480 1.394 1_554 S
C481 C482 1.517 1_655 S
C482 C481 1.517 1_455 S
C482 C483 1.502 . S
C482 C484 1.563 . S
C482 C485 1.525 . S
C483 H467 0.962 . S
C483 H468 0.979 . S
C483 H469 0.939 1_455 S
C483 C482 1.502 . S
C484 H470 0.958 1_455 S
C484 H471 0.964 . S
C484 H472 0.956 1_554 S
C484 C482 1.563 . S
C485 C482 1.525 . S
C485 C486 1.396 1_554 S
C485 C490 1.390 . S
C486 C480 1.465 1_455 S
C486 C485 1.396 1_556 S
C486 C487 1.399 . S
C487 H473 0.929 . S
C487 C486 1.399 . S
C487 C488 1.385 . S
C488 H474 0.931 . S
C488 C487 1.385 . S
C488 C489 1.389 1_556 S
C489 C488 1.389 1_554 S
C489 C490 1.387 . S
C490 H475 0.930 . S
C490 C485 1.390 . S
C490 C489 1.387 . S
H491 C503 0.930 . S
H492 C505 0.930 . S
H493 C506 0.930 . S
H494 C510 0.959 . S
H495 C510 0.959 . S
H496 C510 0.961 . S
H497 C511 0.960 . S
H498 C511 0.961 . S
H499 C511 0.959 . S
H500 C514 0.929 . S
H501 C515 0.931 . S
H502 C517 0.930 . S
C503 H491 0.930 . S
C503 C504 1.399 . S
C503 C508 1.399 . S
C504 C503 1.399 . S
C504 C505 1.376 . S
C505 H492 0.930 . S
C505 C504 1.376 . S
C505 C506 1.388 . S
C506 H493 0.930 . S
C506 C505 1.388 . S
C506 C507 1.390 . S
C507 C506 1.390 . S
C507 C508 1.394 . S
C507 C513 1.465 . S
C508 C503 1.399 . S
C508 C507 1.394 . S
C508 C509 1.516 . S
C509 C508 1.516 . S
C509 C510 1.502 . S
C509 C511 1.561 . S
C509 C512 1.526 . S
C510 H494 0.959 . S
C510 H495 0.959 . S
C510 H496 0.961 . S
C510 C509 1.502 . S
C511 H497 0.960 . S
C511 H498 0.961 . S
C511 H499 0.959 . S
C511 C509 1.561 . S
C512 C509 1.526 . S
C512 C513 1.396 . S
C512 C517 1.390 . S
C513 C507 1.465 . S
C513 C512 1.396 . S
C513 C514 1.399 . S
C514 H500 0.929 . S
C514 C513 1.399 . S
C514 C515 1.385 . S
C515 H501 0.931 . S
C515 C514 1.385 . S
C515 C516 1.389 . S
C516 C515 1.389 . S
C516 C517 1.387 . S
C517 H502 0.930 . S
C517 C512 1.390 . S
C517 C516 1.387 . S
H518 C530 0.930 . S
H519 C532 0.930 . S
H520 C533 0.930 . S
H521 C537 0.962 . S
H522 C537 0.979 . S
H523 C537 0.939 1_655 S
H524 C538 0.957 1_655 S
H525 C538 0.963 . S
H526 C538 0.959 . S
H527 C541 0.929 . S
H528 C542 0.931 . S
H529 C544 0.930 . S
C530 H518 0.930 . S
C530 C531 1.399 1_554 S
C530 C535 1.399 . S
C531 C530 1.399 1_556 S
C531 C532 1.376 . S
C532 H519 0.930 . S
C532 C531 1.376 . S
C532 C533 1.388 . S
C533 H520 0.930 . S
C533 C532 1.388 . S
C533 C534 1.390 . S
C534 C533 1.390 . S
C534 C535 1.394 1_556 S
C534 C540 1.465 1_655 S
C535 C530 1.399 . S
C535 C534 1.394 1_554 S
C535 C536 1.517 1_655 S
C536 C535 1.517 1_455 S
C536 C537 1.502 . S
C536 C538 1.561 . S
C536 C539 1.525 . S
C537 H521 0.962 . S
C537 H522 0.979 . S
C537 H523 0.939 1_455 S
C537 C536 1.502 . S
C538 H524 0.957 1_455 S
C538 H525 0.963 . S
C538 H526 0.959 . S
C538 C536 1.561 . S
C539 C536 1.525 . S
C539 C540 1.396 1_554 S
C539 C544 1.390 . S
C540 C534 1.465 1_455 S
C540 C539 1.396 1_556 S
C540 C541 1.399 . S
C541 H527 0.929 . S
C541 C540 1.399 . S
C541 C542 1.385 . S
C542 H528 0.931 . S
C542 C541 1.385 . S
C542 C543 1.389 . S
C543 C542 1.389 . S
C543 C544 1.387 1_556 S
C544 H529 0.930 . S
C544 C539 1.390 . S
C544 C543 1.387 1_554 S
H545 C557 0.930 . S
H546 C559 0.930 . S
H547 C560 0.930 . S
H548 C564 0.959 . S
H549 C564 0.959 . S
H550 C564 0.961 . S
H551 C565 0.960 . S
H552 C565 0.961 . S
H553 C565 0.959 . S
H554 C568 0.929 . S
H555 C569 0.931 . S
H556 C571 0.930 . S
C557 H545 0.930 . S
C557 C558 1.399 . S
C557 C562 1.399 . S
C558 C557 1.399 . S
C558 C559 1.376 . S
C559 H546 0.930 . S
C559 C558 1.376 . S
C559 C560 1.388 . S
C560 H547 0.930 . S
C560 C559 1.388 . S
C560 C561 1.390 . S
C561 C560 1.390 . S
C561 C562 1.394 . S
C561 C567 1.465 . S
C562 C557 1.399 . S
C562 C561 1.394 . S
C562 C563 1.516 . S
C563 C562 1.516 . S
C563 C564 1.502 . S
C563 C565 1.561 . S
C563 C566 1.526 . S
C564 H548 0.959 . S
C564 H549 0.959 . S
C564 H550 0.961 . S
C564 C563 1.502 . S
C565 H551 0.960 . S
C565 H552 0.961 . S
C565 H553 0.959 . S
C565 C563 1.561 . S
C566 C563 1.526 . S
C566 C567 1.396 . S
C566 C571 1.390 . S
C567 C561 1.465 . S
C567 C566 1.396 . S
C567 C568 1.399 . S
C568 H554 0.929 . S
C568 C567 1.399 . S
C568 C569 1.385 . S
C569 H555 0.931 . S
C569 C568 1.385 . S
C569 C570 1.389 . S
C570 C569 1.389 . S
C570 C571 1.387 . S
C571 H556 0.930 . S
C571 C566 1.390 . S
C571 C570 1.387 . S
H572 C584 0.930 . S
H573 C586 0.930 . S
H574 C587 0.930 . S
H575 C591 0.959 . S
H576 C591 0.959 . S
H577 C591 0.961 . S
H578 C592 0.960 . S
H579 C592 0.961 . S
H580 C592 0.959 . S
H581 C595 0.929 . S
H582 C596 0.931 . S
H583 C598 0.930 . S
C584 H572 0.930 . S
C584 C585 1.399 . S
C584 C589 1.399 . S
C585 C584 1.399 . S
C585 C586 1.376 1_554 S
C586 H573 0.930 . S
C586 C585 1.376 1_556 S
C586 C587 1.388 . S
C587 H574 0.930 . S
C587 C586 1.388 . S
C587 C588 1.390 . S
C588 C587 1.390 . S
C588 C589 1.394 1_556 S
C588 C594 1.465 . S
C589 C584 1.399 . S
C589 C588 1.394 1_554 S
C589 C590 1.516 . S
C590 C589 1.516 . S
C590 C591 1.502 . S
C590 C592 1.561 . S
C590 C593 1.526 . S
C591 H575 0.959 . S
C591 H576 0.959 . S
C591 H577 0.961 . S
C591 C590 1.502 . S
C592 H578 0.960 . S
C592 H579 0.961 . S
C592 H580 0.959 . S
C592 C590 1.561 . S
C593 C590 1.526 . S
C593 C594 1.396 1_554 S
C593 C598 1.390 . S
C594 C588 1.465 . S
C594 C593 1.396 1_556 S
C594 C595 1.399 . S
C595 H581 0.929 . S
C595 C594 1.399 . S
C595 C596 1.385 . S
C596 H582 0.931 . S
C596 C595 1.385 . S
C596 C597 1.389 1_556 S
C597 C596 1.389 1_554 S
C597 C598 1.387 . S
C598 H583 0.930 . S
C598 C593 1.390 . S
C598 C597 1.387 . S
H599 C611 0.930 . S
H600 C613 0.930 . S
H601 C614 0.930 . S
H602 C618 0.962 . S
H603 C618 0.979 . S
H604 C618 0.939 1_455 S
H605 C619 0.957 1_455 S
H606 C619 0.963 . S
H607 C619 0.959 . S
H608 C622 0.929 . S
H609 C623 0.931 . S
H610 C625 0.930 . S
C611 H599 0.930 . S
C611 C612 1.399 . S
C611 C616 1.399 . S
C612 C611 1.399 . S
C612 C613 1.376 . S
C613 H600 0.930 . S
C613 C612 1.376 . S
C613 C614 1.388 . S
C614 H601 0.930 . S
C614 C613 1.388 . S
C614 C615 1.390 . S
C615 C614 1.390 . S
C615 C616 1.394 . S
C615 C621 1.465 1_455 S
C616 C611 1.399 . S
C616 C615 1.394 . S
C616 C617 1.517 1_455 S
C617 C616 1.517 1_655 S
C617 C618 1.502 . S
C617 C619 1.561 . S
C617 C620 1.525 . S
C618 H602 0.962 . S
C618 H603 0.979 . S
C618 H604 0.939 1_655 S
C618 C617 1.502 . S
C619 H605 0.957 1_655 S
C619 H606 0.963 . S
C619 H607 0.959 . S
C619 C617 1.561 . S
C620 C617 1.525 . S
C620 C621 1.396 . S
C620 C625 1.390 . S
C621 C615 1.465 1_655 S
C621 C620 1.396 . S
C621 C622 1.399 . S
C622 H608 0.929 . S
C622 C621 1.399 . S
C622 C623 1.385 . S
C623 H609 0.931 . S
C623 C622 1.385 . S
C623 C624 1.389 . S
C624 C623 1.389 . S
C624 C625 1.387 . S
C625 H610 0.930 . S
C625 C620 1.390 . S
C625 C624 1.387 . S
H626 C638 0.930 . S
H627 C640 0.930 . S
H628 C641 0.930 . S
H629 C645 0.959 . S
H630 C645 0.959 . S
H631 C645 0.961 . S
H632 C646 0.960 . S
H633 C646 0.961 . S
H634 C646 0.959 . S
H635 C649 0.929 . S
H636 C650 0.931 . S
H637 C652 0.930 . S
C638 H626 0.930 . S
C638 C639 1.399 1_554 S
C638 C643 1.399 . S
C639 C638 1.399 1_556 S
C639 C640 1.376 . S
C640 H627 0.930 . S
C640 C639 1.376 . S
C640 C641 1.388 . S
C641 H628 0.930 . S
C641 C640 1.388 . S
C641 C642 1.390 . S
C642 C641 1.390 . S
C642 C643 1.394 1_556 S
C642 C648 1.465 . S
C643 C638 1.399 . S
C643 C642 1.394 1_554 S
C643 C644 1.516 . S
C644 C643 1.516 . S
C644 C645 1.502 . S
C644 C646 1.561 . S
C644 C647 1.526 . S
C645 H629 0.959 . S
C645 H630 0.959 . S
C645 H631 0.961 . S
C645 C644 1.502 . S
C646 H632 0.960 . S
C646 H633 0.961 . S
C646 H634 0.959 . S
C646 C644 1.561 . S
C647 C644 1.526 . S
C647 C648 1.396 1_554 S
C647 C652 1.390 . S
C648 C642 1.465 . S
C648 C647 1.396 1_556 S
C648 C649 1.399 . S
C649 H635 0.929 . S
C649 C648 1.399 . S
C649 C650 1.385 . S
C650 H636 0.931 . S
C650 C649 1.385 . S
C650 C651 1.389 . S
C651 C650 1.389 . S
C651 C652 1.387 1_556 S
C652 H637 0.930 . S
C652 C647 1.390 . S
C652 C651 1.387 1_554 S
H653 C665 0.930 . S
H654 C667 0.930 . S
H655 C668 0.930 . S
H656 C672 0.962 . S
H657 C672 0.979 . S
H658 C672 0.939 1_455 S
H659 C673 0.957 1_455 S
H660 C673 0.963 . S
H661 C673 0.959 . S
H662 C676 0.929 . S
H663 C677 0.931 . S
H664 C679 0.930 . S
C665 H653 0.930 . S
C665 C666 1.399 . S
C665 C670 1.399 . S
C666 C665 1.399 . S
C666 C667 1.376 . S
C667 H654 0.930 . S
C667 C666 1.376 . S
C667 C668 1.388 . S
C668 H655 0.930 . S
C668 C667 1.388 . S
C668 C669 1.390 . S
C669 C668 1.390 . S
C669 C670 1.394 . S
C669 C675 1.465 1_455 S
C670 C665 1.399 . S
C670 C669 1.394 . S
C670 C671 1.517 1_455 S
C671 C670 1.517 1_655 S
C671 C672 1.502 . S
C671 C673 1.561 . S
C671 C674 1.525 . S
C672 H656 0.962 . S
C672 H657 0.979 . S
C672 H658 0.939 1_655 S
C672 C671 1.502 . S
C673 H659 0.957 1_655 S
C673 H660 0.963 . S
C673 H661 0.959 . S
C673 C671 1.561 . S
C674 C671 1.525 . S
C674 C675 1.396 . S
C674 C679 1.390 . S
C675 C669 1.465 1_655 S
C675 C674 1.396 . S
C675 C676 1.399 . S
C676 H662 0.929 . S
C676 C675 1.399 . S
C676 C677 1.385 . S
C677 H663 0.931 . S
C677 C676 1.385 . S
C677 C678 1.389 . S
C678 C677 1.389 . S
C678 C679 1.387 . S
C679 H664 0.930 . S
C679 C674 1.390 . S
C679 C678 1.387 . S
H680 C692 0.930 . S
H681 C694 0.930 . S
H682 C695 0.930 . S
H683 C699 0.959 . S
H684 C699 0.959 . S
H685 C699 0.961 . S
H686 C700 0.960 . S
H687 C700 0.961 . S
H688 C700 0.959 . S
H689 C703 0.929 . S
H690 C704 0.931 . S
H691 C706 0.930 . S
C692 H680 0.930 . S
C692 C693 1.399 . S
C692 C697 1.399 . S
C693 C692 1.399 . S
C693 C694 1.376 . S
C694 H681 0.930 . S
C694 C693 1.376 . S
C694 C695 1.388 . S
C695 H682 0.930 . S
C695 C694 1.388 . S
C695 C696 1.390 . S
C696 C695 1.390 . S
C696 C697 1.394 . S
C696 C702 1.465 . S
C697 C692 1.399 . S
C697 C696 1.394 . S
C697 C698 1.516 . S
C698 C697 1.516 . S
C698 C699 1.502 . S
C698 C700 1.561 . S
C698 C701 1.526 . S
C699 H683 0.959 . S
C699 H684 0.959 . S
C699 H685 0.961 . S
C699 C698 1.502 . S
C700 H686 0.960 . S
C700 H687 0.961 . S
C700 H688 0.959 . S
C700 C698 1.561 . S
C701 C698 1.526 . S
C701 C702 1.396 . S
C701 C706 1.390 . S
C702 C696 1.465 . S
C702 C701 1.396 . S
C702 C703 1.399 . S
C703 H689 0.929 . S
C703 C702 1.399 . S
C703 C704 1.385 . S
C704 H690 0.931 . S
C704 C703 1.385 . S
C704 C705 1.389 . S
C705 C704 1.389 . S
C705 C706 1.387 . S
C706 H691 0.930 . S
C706 C701 1.390 . S
C706 C705 1.387 . S
H707 C719 0.930 . S
H708 C721 0.930 . S
H709 C722 0.930 . S
H710 C726 0.959 . S
H711 C726 0.959 . S
H712 C726 0.961 . S
H713 C727 0.960 . S
H714 C727 0.961 . S
H715 C727 0.959 . S
H716 C730 0.929 . S
H717 C731 0.931 . S
H718 C733 0.930 . S
C719 H707 0.930 . S
C719 C720 1.399 . S
C719 C724 1.399 . S
C720 C719 1.399 . S
C720 C721 1.376 . S
C721 H708 0.930 . S
C721 C720 1.376 . S
C721 C722 1.388 . S
C722 H709 0.930 . S
C722 C721 1.388 . S
C722 C723 1.390 . S
C723 C722 1.390 . S
C723 C724 1.394 . S
C723 C729 1.465 . S
C724 C719 1.399 . S
C724 C723 1.394 . S
C724 C725 1.516 . S
C725 C724 1.516 . S
C725 C726 1.502 . S
C725 C727 1.561 . S
C725 C728 1.526 . S
C726 H710 0.959 . S
C726 H711 0.959 . S
C726 H712 0.961 . S
C726 C725 1.502 . S
C727 H713 0.960 . S
C727 H714 0.961 . S
C727 H715 0.959 . S
C727 C725 1.561 . S
C728 C725 1.526 . S
C728 C729 1.396 . S
C728 C733 1.390 . S
C729 C723 1.465 . S
C729 C728 1.396 . S
C729 C730 1.399 . S
C730 H716 0.929 . S
C730 C729 1.399 . S
C730 C731 1.385 . S
C731 H717 0.931 . S
C731 C730 1.385 . S
C731 C732 1.389 . S
C732 C731 1.389 . S
C732 C733 1.387 . S
C733 H718 0.930 . S
C733 C728 1.390 . S
C733 C732 1.387 . S
H734 C746 0.930 . S
H735 C748 0.930 . S
H736 C749 0.930 . S
H737 C753 0.959 . S
H738 C753 0.959 . S
H739 C753 0.961 . S
H740 C754 0.960 . S
H741 C754 0.961 . S
H742 C754 0.959 . S
H743 C757 0.929 . S
H744 C758 0.931 . S
H745 C760 0.930 . S
C746 H734 0.930 . S
C746 C747 1.399 . S
C746 C751 1.399 . S
C747 C746 1.399 . S
C747 C748 1.376 . S
C748 H735 0.930 . S
C748 C747 1.376 . S
C748 C749 1.388 . S
C749 H736 0.930 . S
C749 C748 1.388 . S
C749 C750 1.390 . S
C750 C749 1.390 . S
C750 C751 1.394 . S
C750 C756 1.465 . S
C751 C746 1.399 . S
C751 C750 1.394 . S
C751 C752 1.516 . S
C752 C751 1.516 . S
C752 C753 1.502 . S
C752 C754 1.561 . S
C752 C755 1.526 . S
C753 H737 0.959 . S
C753 H738 0.959 . S
C753 H739 0.961 . S
C753 C752 1.502 . S
C754 H740 0.960 . S
C754 H741 0.961 . S
C754 H742 0.959 . S
C754 C752 1.561 . S
C755 C752 1.526 . S
C755 C756 1.396 . S
C755 C760 1.390 . S
C756 C750 1.465 . S
C756 C755 1.396 . S
C756 C757 1.399 . S
C757 H743 0.929 . S
C757 C756 1.399 . S
C757 C758 1.385 . S
C758 H744 0.931 . S
C758 C757 1.385 . S
C758 C759 1.389 . S
C759 C758 1.389 . S
C759 C760 1.387 . S
C760 H745 0.930 . S
C760 C755 1.390 . S
C760 C759 1.387 . S
H761 C773 0.930 . S
H762 C775 0.930 . S
H763 C776 0.930 . S
H764 C780 0.959 . S
H765 C780 0.959 . S
H766 C780 0.961 . S
H767 C781 0.960 . S
H768 C781 0.961 . S
H769 C781 0.959 . S
H770 C784 0.929 . S
H771 C785 0.931 . S
H772 C787 0.930 . S
C773 H761 0.930 . S
C773 C774 1.399 . S
C773 C778 1.399 . S
C774 C773 1.399 . S
C774 C775 1.376 . S
C775 H762 0.930 . S
C775 C774 1.376 . S
C775 C776 1.388 . S
C776 H763 0.930 . S
C776 C775 1.388 . S
C776 C777 1.390 . S
C777 C776 1.390 . S
C777 C778 1.394 . S
C777 C783 1.465 . S
C778 C773 1.399 . S
C778 C777 1.394 . S
C778 C779 1.516 . S
C779 C778 1.516 . S
C779 C780 1.502 . S
C779 C781 1.561 . S
C779 C782 1.526 . S
C780 H764 0.959 . S
C780 H765 0.959 . S
C780 H766 0.961 . S
C780 C779 1.502 . S
C781 H767 0.960 . S
C781 H768 0.961 . S
C781 H769 0.959 . S
C781 C779 1.561 . S
C782 C779 1.526 . S
C782 C783 1.396 . S
C782 C787 1.390 . S
C783 C777 1.465 . S
C783 C782 1.396 . S
C783 C784 1.399 . S
C784 H770 0.929 . S
C784 C783 1.399 . S
C784 C785 1.385 . S
C785 H771 0.931 . S
C785 C784 1.385 . S
C785 C786 1.389 . S
C786 C785 1.389 . S
C786 C787 1.387 . S
C787 H772 0.930 . S
C787 C782 1.390 . S
C787 C786 1.387 . S
H788 C800 0.930 . S
H789 C802 0.930 . S
H790 C803 0.930 . S
H791 C807 0.959 . S
H792 C807 0.959 . S
H793 C807 0.961 . S
H794 C808 0.960 . S
H795 C808 0.961 . S
H796 C808 0.959 . S
H797 C811 0.929 . S
H798 C812 0.931 . S
H799 C814 0.930 . S
C800 H788 0.930 . S
C800 C801 1.399 . S
C800 C805 1.399 . S
C801 C800 1.399 . S
C801 C802 1.376 . S
C802 H789 0.930 . S
C802 C801 1.376 . S
C802 C803 1.388 . S
C803 H790 0.930 . S
C803 C802 1.388 . S
C803 C804 1.390 . S
C804 C803 1.390 . S
C804 C805 1.394 . S
C804 C810 1.465 . S
C805 C800 1.399 . S
C805 C804 1.394 . S
C805 C806 1.516 . S
C806 C805 1.516 . S
C806 C807 1.502 . S
C806 C808 1.561 . S
C806 C809 1.526 . S
C807 H791 0.959 . S
C807 H792 0.959 . S
C807 H793 0.961 . S
C807 C806 1.502 . S
C808 H794 0.960 . S
C808 H795 0.961 . S
C808 H796 0.959 . S
C808 C806 1.561 . S
C809 C806 1.526 . S
C809 C810 1.396 . S
C809 C814 1.390 . S
C810 C804 1.465 . S
C810 C809 1.396 . S
C810 C811 1.399 . S
C811 H797 0.929 . S
C811 C810 1.399 . S
C811 C812 1.385 . S
C812 H798 0.931 . S
C812 C811 1.385 . S
C812 C813 1.389 . S
C813 C812 1.389 . S
C813 C814 1.387 . S
C814 H799 0.930 . S
C814 C809 1.390 . S
C814 C813 1.387 . S
H815 C827 0.930 . S
H816 C829 0.930 . S
H817 C830 0.930 . S
H818 C834 0.959 . S
H819 C834 0.959 . S
H820 C834 0.961 . S
H821 C835 0.960 . S
H822 C835 0.961 . S
H823 C835 0.959 . S
H824 C838 0.929 . S
H825 C839 0.931 . S
H826 C841 0.930 . S
C827 H815 0.930 . S
C827 C828 1.399 . S
C827 C832 1.399 . S
C828 C827 1.399 . S
C828 C829 1.376 . S
C829 H816 0.930 . S
C829 C828 1.376 . S
C829 C830 1.388 . S
C830 H817 0.930 . S
C830 C829 1.388 . S
C830 C831 1.390 . S
C831 C830 1.390 . S
C831 C832 1.394 . S
C831 C837 1.465 . S
C832 C827 1.399 . S
C832 C831 1.394 . S
C832 C833 1.516 . S
C833 C832 1.516 . S
C833 C834 1.502 . S
C833 C835 1.561 . S
C833 C836 1.526 . S
C834 H818 0.959 . S
C834 H819 0.959 . S
C834 H820 0.961 . S
C834 C833 1.502 . S
C835 H821 0.960 . S
C835 H822 0.961 . S
C835 H823 0.959 . S
C835 C833 1.561 . S
C836 C833 1.526 . S
C836 C837 1.396 . S
C836 C841 1.390 . S
C837 C831 1.465 . S
C837 C836 1.396 . S
C837 C838 1.399 . S
C838 H824 0.929 . S
C838 C837 1.399 . S
C838 C839 1.385 . S
C839 H825 0.931 . S
C839 C838 1.385 . S
C839 C840 1.389 . S
C840 C839 1.389 . S
C840 C841 1.387 . S
C841 H826 0.930 . S
C841 C836 1.390 . S
C841 C840 1.387 . S
H842 C854 0.930 . S
H843 C856 0.930 . S
H844 C857 0.930 . S
H845 C861 0.959 . S
H846 C861 0.959 . S
H847 C861 0.961 . S
H848 C862 0.960 . S
H849 C862 0.961 . S
H850 C862 0.959 . S
H851 C865 0.929 . S
H852 C866 0.931 . S
H853 C868 0.930 . S
C854 H842 0.930 . S
C854 C855 1.399 . S
C854 C859 1.399 . S
C855 C854 1.399 . S
C855 C856 1.376 . S
C856 H843 0.930 . S
C856 C855 1.376 . S
C856 C857 1.388 . S
C857 H844 0.930 . S
C857 C856 1.388 . S
C857 C858 1.390 . S
C858 C857 1.390 . S
C858 C859 1.394 . S
C858 C864 1.465 . S
C859 C854 1.399 . S
C859 C858 1.394 . S
C859 C860 1.516 . S
C860 C859 1.516 . S
C860 C861 1.502 . S
C860 C862 1.561 . S
C860 C863 1.526 . S
C861 H845 0.959 . S
C861 H846 0.959 . S
C861 H847 0.961 . S
C861 C860 1.502 . S
C862 H848 0.960 . S
C862 H849 0.961 . S
C862 H850 0.959 . S
C862 C860 1.561 . S
C863 C860 1.526 . S
C863 C864 1.396 . S
C863 C868 1.390 . S
C864 C858 1.465 . S
C864 C863 1.396 . S
C864 C865 1.399 . S
C865 H851 0.929 . S
C865 C864 1.399 . S
C865 C866 1.385 . S
C866 H852 0.931 . S
C866 C865 1.385 . S
C866 C867 1.389 . S
C867 C866 1.389 . S
C867 C868 1.387 . S
C868 H853 0.930 . S
C868 C863 1.390 . S
C868 C867 1.387 . S
H869 C881 0.930 . S
H870 C883 0.930 . S
H871 C884 0.930 . S
H872 C888 0.959 . S
H873 C888 0.959 . S
H874 C888 0.961 . S
H875 C889 0.960 . S
H876 C889 0.961 . S
H877 C889 0.959 . S
H878 C892 0.929 . S
H879 C893 0.931 . S
H880 C895 0.930 . S
C881 H869 0.930 . S
C881 C882 1.399 . S
C881 C886 1.399 . S
C882 C881 1.399 . S
C882 C883 1.376 . S
C883 H870 0.930 . S
C883 C882 1.376 . S
C883 C884 1.388 . S
C884 H871 0.930 . S
C884 C883 1.388 . S
C884 C885 1.390 . S
C885 C884 1.390 . S
C885 C886 1.394 . S
C885 C891 1.465 . S
C886 C881 1.399 . S
C886 C885 1.394 . S
C886 C887 1.516 . S
C887 C886 1.516 . S
C887 C888 1.502 . S
C887 C889 1.561 . S
C887 C890 1.526 . S
C888 H872 0.959 . S
C888 H873 0.959 . S
C888 H874 0.961 . S
C888 C887 1.502 . S
C889 H875 0.960 . S
C889 H876 0.961 . S
C889 H877 0.959 . S
C889 C887 1.561 . S
C890 C887 1.526 . S
C890 C891 1.396 . S
C890 C895 1.390 . S
C891 C885 1.465 . S
C891 C890 1.396 . S
C891 C892 1.399 . S
C892 H878 0.929 . S
C892 C891 1.399 . S
C892 C893 1.385 . S
C893 H879 0.931 . S
C893 C892 1.385 . S
C893 C894 1.389 . S
C894 C893 1.389 . S
C894 C895 1.387 . S
C895 H880 0.930 . S
C895 C890 1.390 . S
C895 C894 1.387 . S
H896 C908 0.930 . S
H897 C910 0.930 . S
H898 C911 0.930 . S
H899 C915 0.959 . S
H900 C915 0.959 . S
H901 C915 0.961 . S
H902 C916 0.960 . S
H903 C916 0.961 . S
H904 C916 0.959 . S
H905 C919 0.929 . S
H906 C920 0.931 . S
H907 C922 0.930 . S
C908 H896 0.930 . S
C908 C909 1.399 . S
C908 C913 1.399 . S
C909 C908 1.399 . S
C909 C910 1.376 . S
C910 H897 0.930 . S
C910 C909 1.376 . S
C910 C911 1.388 . S
C911 H898 0.930 . S
C911 C910 1.388 . S
C911 C912 1.390 . S
C912 C911 1.390 . S
C912 C913 1.394 . S
C912 C918 1.465 . S
C913 C908 1.399 . S
C913 C912 1.394 . S
C913 C914 1.516 . S
C914 C913 1.516 . S
C914 C915 1.502 . S
C914 C916 1.561 . S
C914 C917 1.526 . S
C915 H899 0.959 . S
C915 H900 0.959 . S
C915 H901 0.961 . S
C915 C914 1.502 . S
C916 H902 0.960 . S
C916 H903 0.961 . S
C916 H904 0.959 . S
C916 C914 1.561 . S
C917 C914 1.526 . S
C917 C918 1.396 . S
C917 C922 1.390 . S
C918 C912 1.465 . S
C918 C917 1.396 . S
C918 C919 1.399 . S
C919 H905 0.929 . S
C919 C918 1.399 . S
C919 C920 1.385 . S
C920 H906 0.931 . S
C920 C919 1.385 . S
C920 C921 1.389 . S
C921 C920 1.389 . S
C921 C922 1.387 . S
C922 H907 0.930 . S
C922 C917 1.390 . S
C922 C921 1.387 . S
H923 C935 0.930 . S
H924 C937 0.930 . S
H925 C938 0.930 . S
H926 C942 0.959 . S
H927 C942 0.959 . S
H928 C942 0.961 . S
H929 C943 0.960 . S
H930 C943 0.961 . S
H931 C943 0.959 . S
H932 C946 0.929 . S
H933 C947 0.931 . S
H934 C949 0.930 . S
C935 H923 0.930 . S
C935 C936 1.399 . S
C935 C940 1.399 . S
C936 C935 1.399 . S
C936 C937 1.376 . S
C937 H924 0.930 . S
C937 C936 1.376 . S
C937 C938 1.388 . S
C938 H925 0.930 . S
C938 C937 1.388 . S
C938 C939 1.390 . S
C939 C938 1.390 . S
C939 C940 1.394 . S
C939 C945 1.465 . S
C940 C935 1.399 . S
C940 C939 1.394 . S
C940 C941 1.516 . S
C941 C940 1.516 . S
C941 C942 1.502 . S
C941 C943 1.561 . S
C941 C944 1.526 . S
C942 H926 0.959 . S
C942 H927 0.959 . S
C942 H928 0.961 . S
C942 C941 1.502 . S
C943 H929 0.960 . S
C943 H930 0.961 . S
C943 H931 0.959 . S
C943 C941 1.561 . S
C944 C941 1.526 . S
C944 C945 1.396 . S
C944 C949 1.390 . S
C945 C939 1.465 . S
C945 C944 1.396 . S
C945 C946 1.399 . S
C946 H932 0.929 . S
C946 C945 1.399 . S
C946 C947 1.385 . S
C947 H933 0.931 . S
C947 C946 1.385 . S
C947 C948 1.389 . S
C948 C947 1.389 . S
C948 C949 1.387 . S
C949 H934 0.930 . S
C949 C944 1.390 . S
C949 C948 1.387 . S
H950 C962 0.930 . S
H951 C964 0.930 . S
H952 C965 0.930 . S
H953 C969 0.959 . S
H954 C969 0.959 . S
H955 C969 0.961 . S
H956 C970 0.960 . S
H957 C970 0.961 . S
H958 C970 0.959 . S
H959 C973 0.929 . S
H960 C974 0.931 . S
H961 C976 0.930 . S
C962 H950 0.930 . S
C962 C963 1.399 . S
C962 C967 1.399 . S
C963 C962 1.399 . S
C963 C964 1.376 . S
C964 H951 0.930 . S
C964 C963 1.376 . S
C964 C965 1.388 . S
C965 H952 0.930 . S
C965 C964 1.388 . S
C965 C966 1.390 . S
C966 C965 1.390 . S
C966 C967 1.394 . S
C966 C972 1.465 . S
C967 C962 1.399 . S
C967 C966 1.394 . S
C967 C968 1.516 . S
C968 C967 1.516 . S
C968 C969 1.502 . S
C968 C970 1.561 . S
C968 C971 1.526 . S
C969 H953 0.959 . S
C969 H954 0.959 . S
C969 H955 0.961 . S
C969 C968 1.502 . S
C970 H956 0.960 . S
C970 H957 0.961 . S
C970 H958 0.959 . S
C970 C968 1.561 . S
C971 C968 1.526 . S
C971 C972 1.396 . S
C971 C976 1.390 . S
C972 C966 1.465 . S
C972 C971 1.396 . S
C972 C973 1.399 . S
C973 H959 0.929 . S
C973 C972 1.399 . S
C973 C974 1.385 . S
C974 H960 0.931 . S
C974 C973 1.385 . S
C974 C975 1.389 . S
C975 C974 1.389 . S
C975 C976 1.387 . S
C976 H961 0.930 . S
C976 C971 1.390 . S
C976 C975 1.387 . S
H977 C989 0.930 . S
H978 C991 0.930 . S
H979 C992 0.930 . S
H980 C996 0.959 . S
H981 C996 0.959 . S
H982 C996 0.961 . S
H983 C997 0.960 . S
H984 C997 0.961 . S
H985 C997 0.959 . S
H986 C1000 0.929 . S
H987 C1001 0.931 . S
H988 C1003 0.930 . S
C989 H977 0.930 . S
C989 C990 1.399 . S
C989 C994 1.399 . S
C990 C989 1.399 . S
C990 C991 1.376 . S
C991 H978 0.930 . S
C991 C990 1.376 . S
C991 C992 1.388 . S
C992 H979 0.930 . S
C992 C991 1.388 . S
C992 C993 1.390 . S
C993 C992 1.390 . S
C993 C994 1.394 . S
C993 C999 1.465 . S
C994 C989 1.399 . S
C994 C993 1.394 . S
C994 C995 1.516 . S
C995 C994 1.516 . S
C995 C996 1.502 . S
C995 C997 1.561 . S
C995 C998 1.526 . S
C996 H980 0.959 . S
C996 H981 0.959 . S
C996 H982 0.961 . S
C996 C995 1.502 . S
C997 H983 0.960 . S
C997 H984 0.961 . S
C997 H985 0.959 . S
C997 C995 1.561 . S
C998 C995 1.526 . S
C998 C999 1.396 . S
C998 C1003 1.390 . S
C999 C993 1.465 . S
C999 C998 1.396 . S
C999 C1000 1.399 . S
C1000 H986 0.929 . S
C1000 C999 1.399 . S
C1000 C1001 1.385 . S
C1001 H987 0.931 . S
C1001 C1000 1.385 . S
C1001 C1002 1.389 . S
C1002 C1001 1.389 . S
C1002 C1003 1.387 . S
C1003 H988 0.930 . S
C1003 C998 1.390 . S
C1003 C1002 1.387 . S
H1004 C1016 0.930 . S
H1005 C1018 0.930 . S
H1006 C1019 0.930 . S
H1007 C1023 0.959 . S
H1008 C1023 0.959 . S
H1009 C1023 0.961 . S
H1010 C1024 0.960 . S
H1011 C1024 0.961 . S
H1012 C1024 0.959 . S
H1013 C1027 0.929 . S
H1014 C1028 0.931 . S
H1015 C1030 0.930 . S
C1016 H1004 0.930 . S
C1016 C1017 1.399 . S
C1016 C1021 1.399 . S
C1017 C1016 1.399 . S
C1017 C1018 1.376 . S
C1018 H1005 0.930 . S
C1018 C1017 1.376 . S
C1018 C1019 1.388 . S
C1019 H1006 0.930 . S
C1019 C1018 1.388 . S
C1019 C1020 1.390 . S
C1020 C1019 1.390 . S
C1020 C1021 1.394 . S
C1020 C1026 1.465 . S
C1021 C1016 1.399 . S
C1021 C1020 1.394 . S
C1021 C1022 1.516 . S
C1022 C1021 1.516 . S
C1022 C1023 1.502 . S
C1022 C1024 1.561 . S
C1022 C1025 1.526 . S
C1023 H1007 0.959 . S
C1023 H1008 0.959 . S
C1023 H1009 0.961 . S
C1023 C1022 1.502 . S
C1024 H1010 0.960 . S
C1024 H1011 0.961 . S
C1024 H1012 0.959 . S
C1024 C1022 1.561 . S
C1025 C1022 1.526 . S
C1025 C1026 1.396 . S
C1025 C1030 1.390 . S
C1026 C1020 1.465 . S
C1026 C1025 1.396 . S
C1026 C1027 1.399 . S
C1027 H1013 0.929 . S
C1027 C1026 1.399 . S
C1027 C1028 1.385 . S
C1028 H1014 0.931 . S
C1028 C1027 1.385 . S
C1028 C1029 1.389 . S
C1029 C1028 1.389 . S
C1029 C1030 1.387 . S
C1030 H1015 0.930 . S
C1030 C1025 1.390 . S
C1030 C1029 1.387 . S
H1031 C1043 0.930 . S
H1032 C1045 0.930 . S
H1033 C1046 0.930 . S
H1034 C1050 0.959 . S
H1035 C1050 0.959 . S
H1036 C1050 0.961 . S
H1037 C1051 0.960 . S
H1038 C1051 0.961 . S
H1039 C1051 0.959 . S
H1040 C1054 0.929 . S
H1041 C1055 0.931 . S
H1042 C1057 0.930 . S
C1043 H1031 0.930 . S
C1043 C1044 1.399 . S
C1043 C1048 1.399 . S
C1044 C1043 1.399 . S
C1044 C1045 1.376 . S
C1045 H1032 0.930 . S
C1045 C1044 1.376 . S
C1045 C1046 1.388 . S
C1046 H1033 0.930 . S
C1046 C1045 1.388 . S
C1046 C1047 1.390 . S
C1047 C1046 1.390 . S
C1047 C1048 1.394 . S
C1047 C1053 1.465 . S
C1048 C1043 1.399 . S
C1048 C1047 1.394 . S
C1048 C1049 1.516 . S
C1049 C1048 1.516 . S
C1049 C1050 1.502 . S
C1049 C1051 1.561 . S
C1049 C1052 1.526 . S
C1050 H1034 0.959 . S
C1050 H1035 0.959 . S
C1050 H1036 0.961 . S
C1050 C1049 1.502 . S
C1051 H1037 0.960 . S
C1051 H1038 0.961 . S
C1051 H1039 0.959 . S
C1051 C1049 1.561 . S
C1052 C1049 1.526 . S
C1052 C1053 1.396 . S
C1052 C1057 1.390 . S
C1053 C1047 1.465 . S
C1053 C1052 1.396 . S
C1053 C1054 1.399 . S
C1054 H1040 0.929 . S
C1054 C1053 1.399 . S
C1054 C1055 1.385 . S
C1055 H1041 0.931 . S
C1055 C1054 1.385 . S
C1055 C1056 1.389 . S
C1056 C1055 1.389 . S
C1056 C1057 1.387 . S
C1057 H1042 0.930 . S
C1057 C1052 1.390 . S
C1057 C1056 1.387 . S
H1058 C1070 0.930 . S
H1059 C1072 0.930 . S
H1060 C1073 0.930 . S
H1061 C1077 0.959 . S
H1062 C1077 0.959 . S
H1063 C1077 0.961 . S
H1064 C1078 0.960 . S
H1065 C1078 0.961 . S
H1066 C1078 0.959 . S
H1067 C1081 0.929 . S
H1068 C1082 0.931 . S
H1069 C1084 0.930 . S
C1070 H1058 0.930 . S
C1070 C1071 1.399 . S
C1070 C1075 1.399 . S
C1071 C1070 1.399 . S
C1071 C1072 1.376 . S
C1072 H1059 0.930 . S
C1072 C1071 1.376 . S
C1072 C1073 1.388 . S
C1073 H1060 0.930 . S
C1073 C1072 1.388 . S
C1073 C1074 1.390 . S
C1074 C1073 1.390 . S
C1074 C1075 1.394 . S
C1074 C1080 1.465 . S
C1075 C1070 1.399 . S
C1075 C1074 1.394 . S
C1075 C1076 1.516 . S
C1076 C1075 1.516 . S
C1076 C1077 1.502 . S
C1076 C1078 1.561 . S
C1076 C1079 1.526 . S
C1077 H1061 0.959 . S
C1077 H1062 0.959 . S
C1077 H1063 0.961 . S
C1077 C1076 1.502 . S
C1078 H1064 0.960 . S
C1078 H1065 0.961 . S
C1078 H1066 0.959 . S
C1078 C1076 1.561 . S
C1079 C1076 1.526 . S
C1079 C1080 1.396 . S
C1079 C1084 1.390 . S
C1080 C1074 1.465 . S
C1080 C1079 1.396 . S
C1080 C1081 1.399 . S
C1081 H1067 0.929 . S
C1081 C1080 1.399 . S
C1081 C1082 1.385 . S
C1082 H1068 0.931 . S
C1082 C1081 1.385 . S
C1082 C1083 1.389 . S
C1083 C1082 1.389 . S
C1083 C1084 1.387 . S
C1084 H1069 0.930 . S
C1084 C1079 1.390 . S
C1084 C1083 1.387 . S
H1085 C1097 0.930 . S
H1086 C1099 0.930 . S
H1087 C1100 0.930 . S
H1088 C1104 0.959 . S
H1089 C1104 0.959 . S
H1090 C1104 0.961 . S
H1091 C1105 0.960 . S
H1092 C1105 0.961 . S
H1093 C1105 0.959 . S
H1094 C1108 0.929 . S
H1095 C1109 0.931 . S
H1096 C1111 0.930 . S
C1097 H1085 0.930 . S
C1097 C1098 1.399 . S
C1097 C1102 1.399 . S
C1098 C1097 1.399 . S
C1098 C1099 1.376 . S
C1099 H1086 0.930 . S
C1099 C1098 1.376 . S
C1099 C1100 1.388 . S
C1100 H1087 0.930 . S
C1100 C1099 1.388 . S
C1100 C1101 1.390 . S
C1101 C1100 1.390 . S
C1101 C1102 1.394 . S
C1101 C1107 1.465 . S
C1102 C1097 1.399 . S
C1102 C1101 1.394 . S
C1102 C1103 1.516 . S
C1103 C1102 1.516 . S
C1103 C1104 1.502 . S
C1103 C1105 1.561 . S
C1103 C1106 1.526 . S
C1104 H1088 0.959 . S
C1104 H1089 0.959 . S
C1104 H1090 0.961 . S
C1104 C1103 1.502 . S
C1105 H1091 0.960 . S
C1105 H1092 0.961 . S
C1105 H1093 0.959 . S
C1105 C1103 1.561 . S
C1106 C1103 1.526 . S
C1106 C1107 1.396 . S
C1106 C1111 1.390 . S
C1107 C1101 1.465 . S
C1107 C1106 1.396 . S
C1107 C1108 1.399 . S
C1108 H1094 0.929 . S
C1108 C1107 1.399 . S
C1108 C1109 1.385 . S
C1109 H1095 0.931 . S
C1109 C1108 1.385 . S
C1109 C1110 1.389 . S
C1110 C1109 1.389 . S
C1110 C1111 1.387 . S
C1111 H1096 0.930 . S
C1111 C1106 1.390 . S
C1111 C1110 1.387 . S
H1112 C1124 0.930 . S
H1113 C1126 0.930 . S
H1114 C1127 0.930 . S
H1115 C1131 0.963 . S
H1116 C1131 0.959 1_545 S
H1117 C1131 0.961 . S
H1118 C1132 0.960 . S
H1119 C1132 0.961 1_545 S
H1120 C1132 0.959 . S
H1121 C1135 0.929 . S
H1122 C1136 0.931 . S
H1123 C1138 0.930 . S
C1124 H1112 0.930 . S
C1124 C1125 1.399 1_556 S
C1124 C1129 1.399 . S
C1125 C1124 1.399 1_554 S
C1125 C1126 1.376 . S
C1126 H1113 0.930 . S
C1126 C1125 1.376 . S
C1126 C1127 1.388 . S
C1127 H1114 0.930 . S
C1127 C1126 1.388 . S
C1127 C1128 1.390 . S
C1128 C1127 1.390 . S
C1128 C1129 1.394 1_554 S
C1128 C1134 1.465 1_565 S
C1129 C1124 1.399 . S
C1129 C1128 1.394 1_556 S
C1129 C1130 1.516 . S
C1130 C1129 1.516 . S
C1130 C1131 1.502 . S
C1130 C1132 1.561 . S
C1130 C1133 1.526 1_565 S
C1131 H1115 0.963 . S
C1131 H1116 0.959 1_565 S
C1131 H1117 0.961 . S
C1131 C1130 1.502 . S
C1132 H1118 0.960 . S
C1132 H1119 0.961 1_565 S
C1132 H1120 0.959 . S
C1132 C1130 1.561 . S
C1133 C1130 1.526 1_545 S
C1133 C1134 1.396 1_556 S
C1133 C1138 1.390 . S
C1134 C1128 1.465 1_545 S
C1134 C1133 1.396 1_554 S
C1134 C1135 1.399 . S
C1135 H1121 0.929 . S
C1135 C1134 1.399 . S
C1135 C1136 1.385 . S
C1136 H1122 0.931 . S
C1136 C1135 1.385 . S
C1136 C1137 1.389 1_554 S
C1137 C1136 1.389 1_556 S
C1137 C1138 1.387 . S
C1138 H1123 0.930 . S
C1138 C1133 1.390 . S
C1138 C1137 1.387 . S
H1139 C1151 0.930 . S
H1140 C1153 0.930 . S
H1141 C1154 0.930 . S
H1142 C1158 0.959 . S
H1143 C1158 0.959 1_545 S
H1144 C1158 0.961 . S
H1145 C1159 0.960 . S
H1146 C1159 0.961 1_545 S
H1147 C1159 0.959 . S
H1148 C1162 0.929 . S
H1149 C1163 0.931 . S
H1150 C1165 0.930 . S
C1151 H1139 0.930 . S
C1151 C1152 1.399 . S
C1151 C1156 1.399 . S
C1152 C1151 1.399 . S
C1152 C1153 1.376 . S
C1153 H1140 0.930 . S
C1153 C1152 1.376 . S
C1153 C1154 1.388 . S
C1154 H1141 0.930 . S
C1154 C1153 1.388 . S
C1154 C1155 1.390 . S
C1155 C1154 1.390 . S
C1155 C1156 1.394 . S
C1155 C1161 1.465 1_565 S
C1156 C1151 1.399 . S
C1156 C1155 1.394 . S
C1156 C1157 1.516 . S
C1157 C1156 1.516 . S
C1157 C1158 1.502 . S
C1157 C1159 1.561 . S
C1157 C1160 1.526 1_565 S
C1158 H1142 0.959 . S
C1158 H1143 0.959 1_565 S
C1158 H1144 0.961 . S
C1158 C1157 1.502 . S
C1159 H1145 0.960 . S
C1159 H1146 0.961 1_565 S
C1159 H1147 0.959 . S
C1159 C1157 1.561 . S
C1160 C1157 1.526 1_545 S
C1160 C1161 1.396 . S
C1160 C1165 1.390 . S
C1161 C1155 1.465 1_545 S
C1161 C1160 1.396 . S
C1161 C1162 1.399 . S
C1162 H1148 0.929 . S
C1162 C1161 1.399 . S
C1162 C1163 1.385 . S
C1163 H1149 0.931 . S
C1163 C1162 1.385 . S
C1163 C1164 1.389 . S
C1164 C1163 1.389 . S
C1164 C1165 1.387 . S
C1165 H1150 0.930 . S
C1165 C1160 1.390 . S
C1165 C1164 1.387 . S
H1166 C1178 0.930 . S
H1167 C1180 0.930 . S
H1168 C1181 0.930 . S
H1169 C1185 0.959 . S
H1170 C1185 0.959 . S
H1171 C1185 0.961 1_565 S
H1172 C1186 0.960 1_565 S
H1173 C1186 0.961 . S
H1174 C1186 0.959 . S
H1175 C1189 0.929 . S
H1176 C1190 0.931 . S
H1177 C1192 0.930 . S
C1178 H1166 0.930 . S
C1178 C1179 1.399 . S
C1178 C1183 1.399 . S
C1179 C1178 1.399 . S
C1179 C1180 1.376 1_554 S
C1180 H1167 0.930 . S
C1180 C1179 1.376 1_556 S
C1180 C1181 1.388 . S
C1181 H1168 0.930 . S
C1181 C1180 1.388 . S
C1181 C1182 1.390 . S
C1182 C1181 1.390 . S
C1182 C1183 1.394 1_556 S
C1182 C1188 1.465 1_565 S
C1183 C1178 1.399 . S
C1183 C1182 1.394 1_554 S
C1183 C1184 1.516 1_565 S
C1184 C1183 1.516 1_545 S
C1184 C1185 1.502 . S
C1184 C1186 1.561 . S
C1184 C1187 1.526 . S
C1185 H1169 0.959 . S
C1185 H1170 0.959 . S
C1185 H1171 0.961 1_545 S
C1185 C1184 1.502 . S
C1186 H1172 0.960 1_545 S
C1186 H1173 0.961 . S
C1186 H1174 0.959 . S
C1186 C1184 1.561 . S
C1187 C1184 1.526 . S
C1187 C1188 1.396 1_554 S
C1187 C1192 1.390 . S
C1188 C1182 1.465 1_545 S
C1188 C1187 1.396 1_556 S
C1188 C1189 1.399 . S
C1189 H1175 0.929 . S
C1189 C1188 1.399 . S
C1189 C1190 1.385 . S
C1190 H1176 0.931 . S
C1190 C1189 1.385 . S
C1190 C1191 1.389 . S
C1191 C1190 1.389 . S
C1191 C1192 1.387 1_556 S
C1192 H1177 0.930 . S
C1192 C1187 1.390 . S
C1192 C1191 1.387 1_554 S
H1193 C1205 0.930 . S
H1194 C1207 0.930 . S
H1195 C1208 0.930 . S
H1196 C1212 0.959 . S
H1197 C1212 0.959 1_545 S
H1198 C1212 0.961 . S
H1199 C1213 0.919 1_565 S
H1200 C1213 0.998 . S
H1201 C1213 0.968 . S
H1202 C1216 0.929 . S
H1203 C1217 0.931 . S
H1204 C1219 0.930 . S
C1205 H1193 0.930 . S
C1205 C1206 1.399 . S
C1205 C1210 1.399 . S
C1206 C1205 1.399 . S
C1206 C1207 1.376 . S
C1207 H1194 0.930 . S
C1207 C1206 1.376 . S
C1207 C1208 1.388 . S
C1208 H1195 0.930 . S
C1208 C1207 1.388 . S
C1208 C1209 1.390 . S
C1209 C1208 1.390 . S
C1209 C1210 1.394 . S
C1209 C1215 1.465 1_565 S
C1210 C1205 1.399 . S
C1210 C1209 1.394 . S
C1210 C1211 1.535 . S
C1211 C1210 1.535 . S
C1211 C1212 1.503 . S
C1211 C1213 1.559 1_565 S
C1211 C1214 1.506 1_565 S
C1212 H1196 0.959 . S
C1212 H1197 0.959 1_565 S
C1212 H1198 0.961 . S
C1212 C1211 1.503 . S
C1213 H1199 0.919 1_545 S
C1213 H1200 0.998 . S
C1213 H1201 0.968 . S
C1213 C1211 1.559 1_545 S
C1214 C1211 1.506 1_545 S
C1214 C1215 1.396 . S
C1214 C1219 1.390 . S
C1215 C1209 1.465 1_545 S
C1215 C1214 1.396 . S
C1215 C1216 1.399 . S
C1216 H1202 0.929 . S
C1216 C1215 1.399 . S
C1216 C1217 1.385 . S
C1217 H1203 0.931 . S
C1217 C1216 1.385 . S
C1217 C1218 1.389 . S
C1218 C1217 1.389 . S
C1218 C1219 1.387 . S
C1219 H1204 0.930 . S
C1219 C1214 1.390 . S
C1219 C1218 1.387 . S
H1220 C1232 0.930 . S
H1221 C1234 0.930 . S
H1222 C1235 0.930 . S
H1223 C1239 0.959 . S
H1224 C1239 0.959 . S
H1225 C1239 0.961 . S
H1226 C1240 0.960 . S
H1227 C1240 0.961 . S
H1228 C1240 0.959 . S
H1229 C1243 0.929 . S
H1230 C1244 0.931 . S
H1231 C1246 0.930 . S
C1232 H1220 0.930 . S
C1232 C1233 1.399 1_556 S
C1232 C1237 1.399 . S
C1233 C1232 1.399 1_554 S
C1233 C1234 1.376 . S
C1234 H1221 0.930 . S
C1234 C1233 1.376 . S
C1234 C1235 1.388 . S
C1235 H1222 0.930 . S
C1235 C1234 1.388 . S
C1235 C1236 1.390 . S
C1236 C1235 1.390 . S
C1236 C1237 1.394 1_554 S
C1236 C1242 1.465 . S
C1237 C1232 1.399 . S
C1237 C1236 1.394 1_556 S
C1237 C1238 1.516 . S
C1238 C1237 1.516 . S
C1238 C1239 1.502 . S
C1238 C1240 1.561 . S
C1238 C1241 1.526 . S
C1239 H1223 0.959 . S
C1239 H1224 0.959 . S
C1239 H1225 0.961 . S
C1239 C1238 1.502 . S
C1240 H1226 0.960 . S
C1240 H1227 0.961 . S
C1240 H1228 0.959 . S
C1240 C1238 1.561 . S
C1241 C1238 1.526 . S
C1241 C1242 1.396 1_556 S
C1241 C1246 1.390 . S
C1242 C1236 1.465 . S
C1242 C1241 1.396 1_554 S
C1242 C1243 1.399 . S
C1243 H1229 0.929 . S
C1243 C1242 1.399 . S
C1243 C1244 1.385 . S
C1244 H1230 0.931 . S
C1244 C1243 1.385 . S
C1244 C1245 1.389 1_554 S
C1245 C1244 1.389 1_556 S
C1245 C1246 1.387 . S
C1246 H1231 0.930 . S
C1246 C1241 1.390 . S
C1246 C1245 1.387 . S
H1247 C1259 0.930 . S
H1248 C1261 0.930 . S
H1249 C1262 0.930 . S
H1250 C1266 0.959 . S
H1251 C1266 0.959 . S
H1252 C1266 0.961 . S
H1253 C1267 0.960 . S
H1254 C1267 0.961 . S
H1255 C1267 0.959 . S
H1256 C1270 0.929 . S
H1257 C1271 0.931 . S
H1258 C1273 0.930 . S
C1259 H1247 0.930 . S
C1259 C1260 1.399 . S
C1259 C1264 1.399 . S
C1260 C1259 1.399 . S
C1260 C1261 1.376 . S
C1261 H1248 0.930 . S
C1261 C1260 1.376 . S
C1261 C1262 1.388 . S
C1262 H1249 0.930 . S
C1262 C1261 1.388 . S
C1262 C1263 1.390 . S
C1263 C1262 1.390 . S
C1263 C1264 1.394 . S
C1263 C1269 1.465 . S
C1264 C1259 1.399 . S
C1264 C1263 1.394 . S
C1264 C1265 1.516 . S
C1265 C1264 1.516 . S
C1265 C1266 1.502 . S
C1265 C1267 1.561 . S
C1265 C1268 1.526 . S
C1266 H1250 0.959 . S
C1266 H1251 0.959 . S
C1266 H1252 0.961 . S
C1266 C1265 1.502 . S
C1267 H1253 0.960 . S
C1267 H1254 0.961 . S
C1267 H1255 0.959 . S
C1267 C1265 1.561 . S
C1268 C1265 1.526 . S
C1268 C1269 1.396 . S
C1268 C1273 1.390 . S
C1269 C1263 1.465 . S
C1269 C1268 1.396 . S
C1269 C1270 1.399 . S
C1270 H1256 0.929 . S
C1270 C1269 1.399 . S
C1270 C1271 1.385 . S
C1271 H1257 0.931 . S
C1271 C1270 1.385 . S
C1271 C1272 1.389 . S
C1272 C1271 1.389 . S
C1272 C1273 1.387 . S
C1273 H1258 0.930 . S
C1273 C1268 1.390 . S
C1273 C1272 1.387 . S
H1274 C1286 0.930 . S
H1275 C1288 0.930 . S
H1276 C1289 0.930 . S
H1277 C1293 0.959 . S
H1278 C1293 0.959 . S
H1279 C1293 0.961 . S
H1280 C1294 0.960 . S
H1281 C1294 0.961 . S
H1282 C1294 0.959 . S
H1283 C1297 0.929 . S
H1284 C1298 0.931 . S
H1285 C1300 0.930 . S
C1286 H1274 0.930 . S
C1286 C1287 1.399 1_554 S
C1286 C1291 1.399 . S
C1287 C1286 1.399 1_556 S
C1287 C1288 1.376 . S
C1288 H1275 0.930 . S
C1288 C1287 1.376 . S
C1288 C1289 1.388 . S
C1289 H1276 0.930 . S
C1289 C1288 1.388 . S
C1289 C1290 1.390 . S
C1290 C1289 1.390 . S
C1290 C1291 1.394 1_556 S
C1290 C1296 1.465 . S
C1291 C1286 1.399 . S
C1291 C1290 1.394 1_554 S
C1291 C1292 1.516 . S
C1292 C1291 1.516 . S
C1292 C1293 1.502 . S
C1292 C1294 1.561 . S
C1292 C1295 1.526 . S
C1293 H1277 0.959 . S
C1293 H1278 0.959 . S
C1293 H1279 0.961 . S
C1293 C1292 1.502 . S
C1294 H1280 0.960 . S
C1294 H1281 0.961 . S
C1294 H1282 0.959 . S
C1294 C1292 1.561 . S
C1295 C1292 1.526 . S
C1295 C1296 1.396 1_554 S
C1295 C1300 1.390 . S
C1296 C1290 1.465 . S
C1296 C1295 1.396 1_556 S
C1296 C1297 1.399 . S
C1297 H1283 0.929 . S
C1297 C1296 1.399 . S
C1297 C1298 1.385 . S
C1298 H1284 0.931 . S
C1298 C1297 1.385 . S
C1298 C1299 1.389 1_556 S
C1299 C1298 1.389 1_554 S
C1299 C1300 1.387 . S
C1300 H1285 0.930 . S
C1300 C1295 1.390 . S
C1300 C1299 1.387 . S
H1301 C1313 0.930 . S
H1302 C1315 0.930 . S
H1303 C1316 0.930 . S
H1304 C1320 0.959 . S
H1305 C1320 0.959 . S
H1306 C1320 0.961 . S
H1307 C1321 0.960 . S
H1308 C1321 0.961 . S
H1309 C1321 0.959 . S
H1310 C1324 0.929 . S
H1311 C1325 0.931 . S
H1312 C1327 0.930 . S
C1313 H1301 0.930 . S
C1313 C1314 1.399 . S
C1313 C1318 1.399 . S
C1314 C1313 1.399 . S
C1314 C1315 1.376 . S
C1315 H1302 0.930 . S
C1315 C1314 1.376 . S
C1315 C1316 1.388 . S
C1316 H1303 0.930 . S
C1316 C1315 1.388 . S
C1316 C1317 1.390 . S
C1317 C1316 1.390 . S
C1317 C1318 1.394 . S
C1317 C1323 1.465 . S
C1318 C1313 1.399 . S
C1318 C1317 1.394 . S
C1318 C1319 1.516 . S
C1319 C1318 1.516 . S
C1319 C1320 1.502 . S
C1319 C1321 1.561 . S
C1319 C1322 1.526 . S
C1320 H1304 0.959 . S
C1320 H1305 0.959 . S
C1320 H1306 0.961 . S
C1320 C1319 1.502 . S
C1321 H1307 0.960 . S
C1321 H1308 0.961 . S
C1321 H1309 0.959 . S
C1321 C1319 1.561 . S
C1322 C1319 1.526 . S
C1322 C1323 1.396 . S
C1322 C1327 1.390 . S
C1323 C1317 1.465 . S
C1323 C1322 1.396 . S
C1323 C1324 1.399 . S
C1324 H1310 0.929 . S
C1324 C1323 1.399 . S
C1324 C1325 1.385 . S
C1325 H1311 0.931 . S
C1325 C1324 1.385 . S
C1325 C1326 1.389 . S
C1326 C1325 1.389 . S
C1326 C1327 1.387 . S
C1327 H1312 0.930 . S
C1327 C1322 1.390 . S
C1327 C1326 1.387 . S
H1328 C1340 0.930 . S
H1329 C1342 0.930 . S
H1330 C1343 0.930 . S
H1331 C1347 0.959 . S
H1332 C1347 0.959 . S
H1333 C1347 0.961 . S
H1334 C1348 0.960 . S
H1335 C1348 0.961 . S
H1336 C1348 0.959 . S
H1337 C1351 0.929 . S
H1338 C1352 0.931 . S
H1339 C1354 0.930 . S
C1340 H1328 0.930 . S
C1340 C1341 1.399 . S
C1340 C1345 1.399 . S
C1341 C1340 1.399 . S
C1341 C1342 1.376 . S
C1342 H1329 0.930 . S
C1342 C1341 1.376 . S
C1342 C1343 1.388 . S
C1343 H1330 0.930 . S
C1343 C1342 1.388 . S
C1343 C1344 1.390 . S
C1344 C1343 1.390 . S
C1344 C1345 1.394 . S
C1344 C1350 1.465 . S
C1345 C1340 1.399 . S
C1345 C1344 1.394 . S
C1345 C1346 1.516 . S
C1346 C1345 1.516 . S
C1346 C1347 1.502 . S
C1346 C1348 1.561 . S
C1346 C1349 1.526 . S
C1347 H1331 0.959 . S
C1347 H1332 0.959 . S
C1347 H1333 0.961 . S
C1347 C1346 1.502 . S
C1348 H1334 0.960 . S
C1348 H1335 0.961 . S
C1348 H1336 0.959 . S
C1348 C1346 1.561 . S
C1349 C1346 1.526 . S
C1349 C1350 1.396 . S
C1349 C1354 1.390 . S
C1350 C1344 1.465 . S
C1350 C1349 1.396 . S
C1350 C1351 1.399 . S
C1351 H1337 0.929 . S
C1351 C1350 1.399 . S
C1351 C1352 1.385 . S
C1352 H1338 0.931 . S
C1352 C1351 1.385 . S
C1352 C1353 1.389 . S
C1353 C1352 1.389 . S
C1353 C1354 1.387 . S
C1354 H1339 0.930 . S
C1354 C1349 1.390 . S
C1354 C1353 1.387 . S
H1355 C1367 0.930 . S
H1356 C1369 0.930 . S
H1357 C1370 0.930 . S
H1358 C1374 0.959 . S
H1359 C1374 0.959 . S
H1360 C1374 0.961 . S
H1361 C1375 0.960 . S
H1362 C1375 0.961 . S
H1363 C1375 0.959 . S
H1364 C1378 0.929 . S
H1365 C1379 0.931 . S
H1366 C1381 0.930 . S
C1367 H1355 0.930 . S
C1367 C1368 1.399 . S
C1367 C1372 1.399 . S
C1368 C1367 1.399 . S
C1368 C1369 1.376 . S
C1369 H1356 0.930 . S
C1369 C1368 1.376 . S
C1369 C1370 1.388 . S
C1370 H1357 0.930 . S
C1370 C1369 1.388 . S
C1370 C1371 1.390 . S
C1371 C1370 1.390 . S
C1371 C1372 1.394 . S
C1371 C1377 1.465 . S
C1372 C1367 1.399 . S
C1372 C1371 1.394 . S
C1372 C1373 1.516 . S
C1373 C1372 1.516 . S
C1373 C1374 1.502 . S
C1373 C1375 1.561 . S
C1373 C1376 1.526 . S
C1374 H1358 0.959 . S
C1374 H1359 0.959 . S
C1374 H1360 0.961 . S
C1374 C1373 1.502 . S
C1375 H1361 0.960 . S
C1375 H1362 0.961 . S
C1375 H1363 0.959 . S
C1375 C1373 1.561 . S
C1376 C1373 1.526 . S
C1376 C1377 1.396 . S
C1376 C1381 1.390 . S
C1377 C1371 1.465 . S
C1377 C1376 1.396 . S
C1377 C1378 1.399 . S
C1378 H1364 0.929 . S
C1378 C1377 1.399 . S
C1378 C1379 1.385 . S
C1379 H1365 0.931 . S
C1379 C1378 1.385 . S
C1379 C1380 1.389 . S
C1380 C1379 1.389 . S
C1380 C1381 1.387 . S
C1381 H1366 0.930 . S
C1381 C1376 1.390 . S
C1381 C1380 1.387 . S
H1382 C1394 0.930 . S
H1383 C1396 0.930 . S
H1384 C1397 0.930 . S
H1385 C1401 0.959 . S
H1386 C1401 0.959 . S
H1387 C1401 0.961 . S
H1388 C1402 0.960 . S
H1389 C1402 0.961 . S
H1390 C1402 0.959 . S
H1391 C1405 0.929 . S
H1392 C1406 0.931 . S
H1393 C1408 0.930 . S
C1394 H1382 0.930 . S
C1394 C1395 1.399 . S
C1394 C1399 1.399 . S
C1395 C1394 1.399 . S
C1395 C1396 1.376 . S
C1396 H1383 0.930 . S
C1396 C1395 1.376 . S
C1396 C1397 1.388 . S
C1397 H1384 0.930 . S
C1397 C1396 1.388 . S
C1397 C1398 1.390 . S
C1398 C1397 1.390 . S
C1398 C1399 1.394 . S
C1398 C1404 1.465 . S
C1399 C1394 1.399 . S
C1399 C1398 1.394 . S
C1399 C1400 1.516 . S
C1400 C1399 1.516 . S
C1400 C1401 1.502 . S
C1400 C1402 1.561 . S
C1400 C1403 1.526 . S
C1401 H1385 0.959 . S
C1401 H1386 0.959 . S
C1401 H1387 0.961 . S
C1401 C1400 1.502 . S
C1402 H1388 0.960 . S
C1402 H1389 0.961 . S
C1402 H1390 0.959 . S
C1402 C1400 1.561 . S
C1403 C1400 1.526 . S
C1403 C1404 1.396 . S
C1403 C1408 1.390 . S
C1404 C1398 1.465 . S
C1404 C1403 1.396 . S
C1404 C1405 1.399 . S
C1405 H1391 0.929 . S
C1405 C1404 1.399 . S
C1405 C1406 1.385 . S
C1406 H1392 0.931 . S
C1406 C1405 1.385 . S
C1406 C1407 1.389 . S
C1407 C1406 1.389 . S
C1407 C1408 1.387 . S
C1408 H1393 0.930 . S
C1408 C1403 1.390 . S
C1408 C1407 1.387 . S
H1409 C1421 0.930 . S
H1410 C1423 0.930 . S
H1411 C1424 0.930 . S
H1412 C1428 0.959 . S
H1413 C1428 0.959 . S
H1414 C1428 0.961 . S
H1415 C1429 0.960 . S
H1416 C1429 0.961 . S
H1417 C1429 0.959 . S
H1418 C1432 0.929 . S
H1419 C1433 0.931 . S
H1420 C1435 0.930 . S
C1421 H1409 0.930 . S
C1421 C1422 1.399 . S
C1421 C1426 1.399 . S
C1422 C1421 1.399 . S
C1422 C1423 1.376 . S
C1423 H1410 0.930 . S
C1423 C1422 1.376 . S
C1423 C1424 1.388 . S
C1424 H1411 0.930 . S
C1424 C1423 1.388 . S
C1424 C1425 1.390 . S
C1425 C1424 1.390 . S
C1425 C1426 1.394 . S
C1425 C1431 1.465 . S
C1426 C1421 1.399 . S
C1426 C1425 1.394 . S
C1426 C1427 1.516 . S
C1427 C1426 1.516 . S
C1427 C1428 1.502 . S
C1427 C1429 1.561 . S
C1427 C1430 1.526 . S
C1428 H1412 0.959 . S
C1428 H1413 0.959 . S
C1428 H1414 0.961 . S
C1428 C1427 1.502 . S
C1429 H1415 0.960 . S
C1429 H1416 0.961 . S
C1429 H1417 0.959 . S
C1429 C1427 1.561 . S
C1430 C1427 1.526 . S
C1430 C1431 1.396 . S
C1430 C1435 1.390 . S
C1431 C1425 1.465 . S
C1431 C1430 1.396 . S
C1431 C1432 1.399 . S
C1432 H1418 0.929 . S
C1432 C1431 1.399 . S
C1432 C1433 1.385 . S
C1433 H1419 0.931 . S
C1433 C1432 1.385 . S
C1433 C1434 1.389 . S
C1434 C1433 1.389 . S
C1434 C1435 1.387 . S
C1435 H1420 0.930 . S
C1435 C1430 1.390 . S
C1435 C1434 1.387 . S
H1436 C1448 0.930 . S
H1437 C1450 0.930 . S
H1438 C1451 0.930 . S
H1439 C1455 0.959 . S
H1440 C1455 0.959 . S
H1441 C1455 0.961 . S
H1442 C1456 0.960 . S
H1443 C1456 0.961 . S
H1444 C1456 0.959 . S
H1445 C1459 0.929 . S
H1446 C1460 0.931 . S
H1447 C1462 0.930 . S
C1448 H1436 0.930 . S
C1448 C1449 1.399 . S
C1448 C1453 1.399 . S
C1449 C1448 1.399 . S
C1449 C1450 1.376 . S
C1450 H1437 0.930 . S
C1450 C1449 1.376 . S
C1450 C1451 1.388 . S
C1451 H1438 0.930 . S
C1451 C1450 1.388 . S
C1451 C1452 1.390 . S
C1452 C1451 1.390 . S
C1452 C1453 1.394 . S
C1452 C1458 1.465 . S
C1453 C1448 1.399 . S
C1453 C1452 1.394 . S
C1453 C1454 1.516 . S
C1454 C1453 1.516 . S
C1454 C1455 1.502 . S
C1454 C1456 1.561 . S
C1454 C1457 1.526 . S
C1455 H1439 0.959 . S
C1455 H1440 0.959 . S
C1455 H1441 0.961 . S
C1455 C1454 1.502 . S
C1456 H1442 0.960 . S
C1456 H1443 0.961 . S
C1456 H1444 0.959 . S
C1456 C1454 1.561 . S
C1457 C1454 1.526 . S
C1457 C1458 1.396 . S
C1457 C1462 1.390 . S
C1458 C1452 1.465 . S
C1458 C1457 1.396 . S
C1458 C1459 1.399 . S
C1459 H1445 0.929 . S
C1459 C1458 1.399 . S
C1459 C1460 1.385 . S
C1460 H1446 0.931 . S
C1460 C1459 1.385 . S
C1460 C1461 1.389 . S
C1461 C1460 1.389 . S
C1461 C1462 1.387 . S
C1462 H1447 0.930 . S
C1462 C1457 1.390 . S
C1462 C1461 1.387 . S
H1463 C1475 0.930 . S
H1464 C1477 0.930 . S
H1465 C1478 0.930 . S
H1466 C1482 0.959 . S
H1467 C1482 0.959 . S
H1468 C1482 0.961 . S
H1469 C1483 0.960 . S
H1470 C1483 0.961 . S
H1471 C1483 0.959 . S
H1472 C1486 0.929 . S
H1473 C1487 0.931 . S
H1474 C1489 0.930 . S
C1475 H1463 0.930 . S
C1475 C1476 1.399 . S
C1475 C1480 1.399 . S
C1476 C1475 1.399 . S
C1476 C1477 1.376 . S
C1477 H1464 0.930 . S
C1477 C1476 1.376 . S
C1477 C1478 1.388 . S
C1478 H1465 0.930 . S
C1478 C1477 1.388 . S
C1478 C1479 1.390 . S
C1479 C1478 1.390 . S
C1479 C1480 1.394 . S
C1479 C1485 1.465 . S
C1480 C1475 1.399 . S
C1480 C1479 1.394 . S
C1480 C1481 1.516 . S
C1481 C1480 1.516 . S
C1481 C1482 1.502 . S
C1481 C1483 1.561 . S
C1481 C1484 1.526 . S
C1482 H1466 0.959 . S
C1482 H1467 0.959 . S
C1482 H1468 0.961 . S
C1482 C1481 1.502 . S
C1483 H1469 0.960 . S
C1483 H1470 0.961 . S
C1483 H1471 0.959 . S
C1483 C1481 1.561 . S
C1484 C1481 1.526 . S
C1484 C1485 1.396 . S
C1484 C1489 1.390 . S
C1485 C1479 1.465 . S
C1485 C1484 1.396 . S
C1485 C1486 1.399 . S
C1486 H1472 0.929 . S
C1486 C1485 1.399 . S
C1486 C1487 1.385 . S
C1487 H1473 0.931 . S
C1487 C1486 1.385 . S
C1487 C1488 1.389 . S
C1488 C1487 1.389 . S
C1488 C1489 1.387 . S
C1489 H1474 0.930 . S
C1489 C1484 1.390 . S
C1489 C1488 1.387 . S
H1490 C1502 0.930 . S
H1491 C1504 0.930 . S
H1492 C1505 0.930 . S
H1493 C1509 0.959 . S
H1494 C1509 0.959 . S
H1495 C1509 0.961 . S
H1496 C1510 0.960 . S
H1497 C1510 0.961 . S
H1498 C1510 0.959 . S
H1499 C1513 0.929 . S
H1500 C1514 0.931 . S
H1501 C1516 0.930 . S
C1502 H1490 0.930 . S
C1502 C1503 1.399 . S
C1502 C1507 1.399 . S
C1503 C1502 1.399 . S
C1503 C1504 1.376 . S
C1504 H1491 0.930 . S
C1504 C1503 1.376 . S
C1504 C1505 1.388 . S
C1505 H1492 0.930 . S
C1505 C1504 1.388 . S
C1505 C1506 1.390 . S
C1506 C1505 1.390 . S
C1506 C1507 1.394 . S
C1506 C1512 1.465 . S
C1507 C1502 1.399 . S
C1507 C1506 1.394 . S
C1507 C1508 1.516 . S
C1508 C1507 1.516 . S
C1508 C1509 1.502 . S
C1508 C1510 1.561 . S
C1508 C1511 1.526 . S
C1509 H1493 0.959 . S
C1509 H1494 0.959 . S
C1509 H1495 0.961 . S
C1509 C1508 1.502 . S
C1510 H1496 0.960 . S
C1510 H1497 0.961 . S
C1510 H1498 0.959 . S
C1510 C1508 1.561 . S
C1511 C1508 1.526 . S
C1511 C1512 1.396 . S
C1511 C1516 1.390 . S
C1512 C1506 1.465 . S
C1512 C1511 1.396 . S
C1512 C1513 1.399 . S
C1513 H1499 0.929 . S
C1513 C1512 1.399 . S
C1513 C1514 1.385 . S
C1514 H1500 0.931 . S
C1514 C1513 1.385 . S
C1514 C1515 1.389 . S
C1515 C1514 1.389 . S
C1515 C1516 1.387 . S
C1516 H1501 0.930 . S
C1516 C1511 1.390 . S
C1516 C1515 1.387 . S
H1517 C1529 0.930 . S
H1518 C1531 0.930 . S
H1519 C1532 0.930 . S
H1520 C1536 0.959 . S
H1521 C1536 0.959 . S
H1522 C1536 0.961 . S
H1523 C1537 0.960 . S
H1524 C1537 0.961 . S
H1525 C1537 0.959 . S
H1526 C1540 0.929 . S
H1527 C1541 0.931 . S
H1528 C1543 0.930 . S
C1529 H1517 0.930 . S
C1529 C1530 1.399 . S
C1529 C1534 1.399 . S
C1530 C1529 1.399 . S
C1530 C1531 1.376 . S
C1531 H1518 0.930 . S
C1531 C1530 1.376 . S
C1531 C1532 1.388 . S
C1532 H1519 0.930 . S
C1532 C1531 1.388 . S
C1532 C1533 1.390 . S
C1533 C1532 1.390 . S
C1533 C1534 1.394 . S
C1533 C1539 1.465 . S
C1534 C1529 1.399 . S
C1534 C1533 1.394 . S
C1534 C1535 1.516 . S
C1535 C1534 1.516 . S
C1535 C1536 1.502 . S
C1535 C1537 1.561 . S
C1535 C1538 1.526 . S
C1536 H1520 0.959 . S
C1536 H1521 0.959 . S
C1536 H1522 0.961 . S
C1536 C1535 1.502 . S
C1537 H1523 0.960 . S
C1537 H1524 0.961 . S
C1537 H1525 0.959 . S
C1537 C1535 1.561 . S
C1538 C1535 1.526 . S
C1538 C1539 1.396 . S
C1538 C1543 1.390 . S
C1539 C1533 1.465 . S
C1539 C1538 1.396 . S
C1539 C1540 1.399 . S
C1540 H1526 0.929 . S
C1540 C1539 1.399 . S
C1540 C1541 1.385 . S
C1541 H1527 0.931 . S
C1541 C1540 1.385 . S
C1541 C1542 1.389 . S
C1542 C1541 1.389 . S
C1542 C1543 1.387 . S
C1543 H1528 0.930 . S
C1543 C1538 1.390 . S
C1543 C1542 1.387 . S
H1544 C1556 0.930 . S
H1545 C1558 0.930 . S
H1546 C1559 0.930 . S
H1547 C1563 0.959 . S
H1548 C1563 0.959 . S
H1549 C1563 0.961 . S
H1550 C1564 0.960 . S
H1551 C1564 0.961 . S
H1552 C1564 0.959 . S
H1553 C1567 0.929 . S
H1554 C1568 0.931 . S
H1555 C1570 0.930 . S
C1556 H1544 0.930 . S
C1556 C1557 1.399 . S
C1556 C1561 1.399 . S
C1557 C1556 1.399 . S
C1557 C1558 1.376 . S
C1558 H1545 0.930 . S
C1558 C1557 1.376 . S
C1558 C1559 1.388 . S
C1559 H1546 0.930 . S
C1559 C1558 1.388 . S
C1559 C1560 1.390 . S
C1560 C1559 1.390 . S
C1560 C1561 1.394 . S
C1560 C1566 1.465 . S
C1561 C1556 1.399 . S
C1561 C1560 1.394 . S
C1561 C1562 1.516 . S
C1562 C1561 1.516 . S
C1562 C1563 1.502 . S
C1562 C1564 1.561 . S
C1562 C1565 1.526 . S
C1563 H1547 0.959 . S
C1563 H1548 0.959 . S
C1563 H1549 0.961 . S
C1563 C1562 1.502 . S
C1564 H1550 0.960 . S
C1564 H1551 0.961 . S
C1564 H1552 0.959 . S
C1564 C1562 1.561 . S
C1565 C1562 1.526 . S
C1565 C1566 1.396 . S
C1565 C1570 1.390 . S
C1566 C1560 1.465 . S
C1566 C1565 1.396 . S
C1566 C1567 1.399 . S
C1567 H1553 0.929 . S
C1567 C1566 1.399 . S
C1567 C1568 1.385 . S
C1568 H1554 0.931 . S
C1568 C1567 1.385 . S
C1568 C1569 1.389 . S
C1569 C1568 1.389 . S
C1569 C1570 1.387 . S
C1570 H1555 0.930 . S
C1570 C1565 1.390 . S
C1570 C1569 1.387 . S
H1571 C1583 0.930 . S
H1572 C1585 0.930 . S
H1573 C1586 0.930 . S
H1574 C1590 0.959 . S
H1575 C1590 0.959 . S
H1576 C1590 0.961 1_554 S
H1577 C1591 0.960 1_554 S
H1578 C1591 0.961 . S
H1579 C1591 0.959 . S
H1580 C1594 0.929 . S
H1581 C1595 0.931 . S
H1582 C1597 0.930 . S
C1583 H1571 0.930 . S
C1583 C1584 1.399 . S
C1583 C1588 1.399 . S
C1584 C1583 1.399 . S
C1584 C1585 1.376 . S
C1585 H1572 0.930 . S
C1585 C1584 1.376 . S
C1585 C1586 1.388 . S
C1586 H1573 0.930 . S
C1586 C1585 1.388 . S
C1586 C1587 1.390 . S
C1587 C1586 1.390 . S
C1587 C1588 1.394 . S
C1587 C1593 1.465 1_554 S
C1588 C1583 1.399 . S
C1588 C1587 1.394 . S
C1588 C1589 1.516 1_554 S
C1589 C1588 1.516 1_556 S
C1589 C1590 1.502 . S
C1589 C1591 1.561 . S
C1589 C1592 1.526 . S
C1590 H1574 0.959 . S
C1590 H1575 0.959 . S
C1590 H1576 0.961 1_556 S
C1590 C1589 1.502 . S
C1591 H1577 0.960 1_556 S
C1591 H1578 0.961 . S
C1591 H1579 0.959 . S
C1591 C1589 1.561 . S
C1592 C1589 1.526 . S
C1592 C1593 1.396 . S
C1592 C1597 1.390 . S
C1593 C1587 1.465 1_556 S
C1593 C1592 1.396 . S
C1593 C1594 1.399 . S
C1594 H1580 0.929 . S
C1594 C1593 1.399 . S
C1594 C1595 1.385 . S
C1595 H1581 0.931 . S
C1595 C1594 1.385 . S
C1595 C1596 1.389 . S
C1596 C1595 1.389 . S
C1596 C1597 1.387 . S
C1597 H1582 0.930 . S
C1597 C1592 1.390 . S
C1597 C1596 1.387 . S
H1598 C1610 0.930 . S
H1599 C1612 0.930 . S
H1600 C1613 0.930 . S
H1601 C1617 0.959 . S
H1602 C1617 0.959 . S
H1603 C1617 0.961 . S
H1604 C1618 0.960 . S
H1605 C1618 0.961 . S
H1606 C1618 0.959 . S
H1607 C1621 0.929 . S
H1608 C1622 0.931 . S
H1609 C1624 0.930 . S
C1610 H1598 0.930 . S
C1610 C1611 1.399 . S
C1610 C1615 1.399 . S
C1611 C1610 1.399 . S
C1611 C1612 1.376 . S
C1612 H1599 0.930 . S
C1612 C1611 1.376 . S
C1612 C1613 1.388 . S
C1613 H1600 0.930 . S
C1613 C1612 1.388 . S
C1613 C1614 1.390 . S
C1614 C1613 1.390 . S
C1614 C1615 1.394 . S
C1614 C1620 1.465 . S
C1615 C1610 1.399 . S
C1615 C1614 1.394 . S
C1615 C1616 1.516 . S
C1616 C1615 1.516 . S
C1616 C1617 1.502 . S
C1616 C1618 1.561 . S
C1616 C1619 1.526 . S
C1617 H1601 0.959 . S
C1617 H1602 0.959 . S
C1617 H1603 0.961 . S
C1617 C1616 1.502 . S
C1618 H1604 0.960 . S
C1618 H1605 0.961 . S
C1618 H1606 0.959 . S
C1618 C1616 1.561 . S
C1619 C1616 1.526 . S
C1619 C1620 1.396 . S
C1619 C1624 1.390 . S
C1620 C1614 1.465 . S
C1620 C1619 1.396 . S
C1620 C1621 1.399 . S
C1621 H1607 0.929 . S
C1621 C1620 1.399 . S
C1621 C1622 1.385 . S
C1622 H1608 0.931 . S
C1622 C1621 1.385 . S
C1622 C1623 1.389 . S
C1623 C1622 1.389 . S
C1623 C1624 1.387 . S
C1624 H1609 0.930 . S
C1624 C1619 1.390 . S
C1624 C1623 1.387 . S
H1625 C1637 0.930 . S
H1626 C1639 0.930 . S
H1627 C1640 0.930 . S
H1628 C1644 0.959 . S
H1629 C1644 0.959 . S
H1630 C1644 0.961 1_556 S
H1631 C1645 0.960 1_556 S
H1632 C1645 0.961 . S
H1633 C1645 0.959 . S
H1634 C1648 0.929 . S
H1635 C1649 0.931 . S
H1636 C1651 0.930 . S
C1637 H1625 0.930 . S
C1637 C1638 1.399 . S
C1637 C1642 1.399 . S
C1638 C1637 1.399 . S
C1638 C1639 1.376 . S
C1639 H1626 0.930 . S
C1639 C1638 1.376 . S
C1639 C1640 1.388 . S
C1640 H1627 0.930 . S
C1640 C1639 1.388 . S
C1640 C1641 1.390 . S
C1641 C1640 1.390 . S
C1641 C1642 1.394 . S
C1641 C1647 1.465 1_556 S
C1642 C1637 1.399 . S
C1642 C1641 1.394 . S
C1642 C1643 1.516 1_556 S
C1643 C1642 1.516 1_554 S
C1643 C1644 1.502 . S
C1643 C1645 1.561 . S
C1643 C1646 1.526 . S
C1644 H1628 0.959 . S
C1644 H1629 0.959 . S
C1644 H1630 0.961 1_554 S
C1644 C1643 1.502 . S
C1645 H1631 0.960 1_554 S
C1645 H1632 0.961 . S
C1645 H1633 0.959 . S
C1645 C1643 1.561 . S
C1646 C1643 1.526 . S
C1646 C1647 1.396 . S
C1646 C1651 1.390 . S
C1647 C1641 1.465 1_554 S
C1647 C1646 1.396 . S
C1647 C1648 1.399 . S
C1648 H1634 0.929 . S
C1648 C1647 1.399 . S
C1648 C1649 1.385 . S
C1649 H1635 0.931 . S
C1649 C1648 1.385 . S
C1649 C1650 1.389 . S
C1650 C1649 1.389 . S
C1650 C1651 1.387 . S
C1651 H1636 0.930 . S
C1651 C1646 1.390 . S
C1651 C1650 1.387 . S
H1652 C1664 0.930 . S
H1653 C1666 0.930 . S
H1654 C1667 0.930 . S
H1655 C1671 0.959 . S
H1656 C1671 0.959 . S
H1657 C1671 0.961 . S
H1658 C1672 0.960 . S
H1659 C1672 0.961 . S
H1660 C1672 0.959 . S
H1661 C1675 0.929 . S
H1662 C1676 0.931 . S
H1663 C1678 0.930 . S
C1664 H1652 0.930 . S
C1664 C1665 1.399 . S
C1664 C1669 1.399 . S
C1665 C1664 1.399 . S
C1665 C1666 1.376 . S
C1666 H1653 0.930 . S
C1666 C1665 1.376 . S
C1666 C1667 1.388 . S
C1667 H1654 0.930 . S
C1667 C1666 1.388 . S
C1667 C1668 1.390 . S
C1668 C1667 1.390 . S
C1668 C1669 1.394 . S
C1668 C1674 1.465 . S
C1669 C1664 1.399 . S
C1669 C1668 1.394 . S
C1669 C1670 1.516 . S
C1670 C1669 1.516 . S
C1670 C1671 1.502 . S
C1670 C1672 1.561 . S
C1670 C1673 1.526 . S
C1671 H1655 0.959 . S
C1671 H1656 0.959 . S
C1671 H1657 0.961 . S
C1671 C1670 1.502 . S
C1672 H1658 0.960 . S
C1672 H1659 0.961 . S
C1672 H1660 0.959 . S
C1672 C1670 1.561 . S
C1673 C1670 1.526 . S
C1673 C1674 1.396 . S
C1673 C1678 1.390 . S
C1674 C1668 1.465 . S
C1674 C1673 1.396 . S
C1674 C1675 1.399 . S
C1675 H1661 0.929 . S
C1675 C1674 1.399 . S
C1675 C1676 1.385 . S
C1676 H1662 0.931 . S
C1676 C1675 1.385 . S
C1676 C1677 1.389 . S
C1677 C1676 1.389 . S
C1677 C1678 1.387 . S
C1678 H1663 0.930 . S
C1678 C1673 1.390 . S
C1678 C1677 1.387 . S
H1679 C1691 0.930 . S
H1680 C1693 0.930 . S
H1681 C1694 0.930 . S
H1682 C1698 0.959 . S
H1683 C1698 0.959 1_554 S
H1684 C1698 0.961 . S
H1685 C1699 0.960 1_556 S
H1686 C1699 0.961 . S
H1687 C1699 0.959 . S
H1688 C1702 0.929 . S
H1689 C1703 0.931 . S
H1690 C1705 0.930 . S
C1691 H1679 0.930 . S
C1691 C1692 1.399 . S
C1691 C1696 1.399 . S
C1692 C1691 1.399 . S
C1692 C1693 1.376 . S
C1693 H1680 0.930 . S
C1693 C1692 1.376 . S
C1693 C1694 1.388 . S
C1694 H1681 0.930 . S
C1694 C1693 1.388 . S
C1694 C1695 1.390 . S
C1695 C1694 1.390 . S
C1695 C1696 1.394 . S
C1695 C1701 1.465 1_556 S
C1696 C1691 1.399 . S
C1696 C1695 1.394 . S
C1696 C1697 1.516 1_556 S
C1697 C1696 1.516 1_554 S
C1697 C1698 1.502 1_554 S
C1697 C1699 1.561 . S
C1697 C1700 1.526 . S
C1698 H1682 0.959 . S
C1698 H1683 0.959 1_556 S
C1698 H1684 0.961 . S
C1698 C1697 1.502 1_556 S
C1699 H1685 0.960 1_554 S
C1699 H1686 0.961 . S
C1699 H1687 0.959 . S
C1699 C1697 1.561 . S
C1700 C1697 1.526 . S
C1700 C1701 1.396 . S
C1700 C1705 1.390 . S
C1701 C1695 1.465 1_554 S
C1701 C1700 1.396 . S
C1701 C1702 1.399 . S
C1702 H1688 0.929 . S
C1702 C1701 1.399 . S
C1702 C1703 1.385 . S
C1703 H1689 0.931 . S
C1703 C1702 1.385 . S
C1703 C1704 1.389 . S
C1704 C1703 1.389 . S
C1704 C1705 1.387 . S
C1705 H1690 0.930 . S
C1705 C1700 1.390 . S
C1705 C1704 1.387 . S
H1706 C1718 0.930 . S
H1707 C1720 0.930 . S
H1708 C1721 0.930 . S
H1709 C1725 0.959 . S
H1710 C1725 0.959 . S
H1711 C1725 0.961 . S
H1712 C1726 0.960 . S
H1713 C1726 0.961 . S
H1714 C1726 0.959 . S
H1715 C1729 0.929 . S
H1716 C1730 0.931 . S
H1717 C1732 0.930 . S
C1718 H1706 0.930 . S
C1718 C1719 1.399 . S
C1718 C1723 1.399 . S
C1719 C1718 1.399 . S
C1719 C1720 1.376 . S
C1720 H1707 0.930 . S
C1720 C1719 1.376 . S
C1720 C1721 1.388 . S
C1721 H1708 0.930 . S
C1721 C1720 1.388 . S
C1721 C1722 1.390 . S
C1722 C1721 1.390 . S
C1722 C1723 1.394 . S
C1722 C1728 1.465 . S
C1723 C1718 1.399 . S
C1723 C1722 1.394 . S
C1723 C1724 1.516 . S
C1724 C1723 1.516 . S
C1724 C1725 1.502 . S
C1724 C1726 1.561 . S
C1724 C1727 1.526 . S
C1725 H1709 0.959 . S
C1725 H1710 0.959 . S
C1725 H1711 0.961 . S
C1725 C1724 1.502 . S
C1726 H1712 0.960 . S
C1726 H1713 0.961 . S
C1726 H1714 0.959 . S
C1726 C1724 1.561 . S
C1727 C1724 1.526 . S
C1727 C1728 1.396 . S
C1727 C1732 1.390 . S
C1728 C1722 1.465 . S
C1728 C1727 1.396 . S
C1728 C1729 1.399 . S
C1729 H1715 0.929 . S
C1729 C1728 1.399 . S
C1729 C1730 1.385 . S
C1730 H1716 0.931 . S
C1730 C1729 1.385 . S
C1730 C1731 1.389 . S
C1731 C1730 1.389 . S
C1731 C1732 1.387 . S
C1732 H1717 0.930 . S
C1732 C1727 1.390 . S
C1732 C1731 1.387 . S
H1733 C1745 0.930 . S
H1734 C1747 0.930 . S
H1735 C1748 0.930 . S
H1736 C1752 0.959 . S
H1737 C1752 0.959 1_554 S
H1738 C1752 0.961 . S
H1739 C1753 0.960 . S
H1740 C1753 0.961 1_554 S
H1741 C1753 0.959 . S
H1742 C1756 0.929 . S
H1743 C1757 0.931 . S
H1744 C1759 0.930 . S
C1745 H1733 0.930 . S
C1745 C1746 1.399 . S
C1745 C1750 1.399 . S
C1746 C1745 1.399 . S
C1746 C1747 1.376 . S
C1747 H1734 0.930 . S
C1747 C1746 1.376 . S
C1747 C1748 1.388 . S
C1748 H1735 0.930 . S
C1748 C1747 1.388 . S
C1748 C1749 1.390 . S
C1749 C1748 1.390 . S
C1749 C1750 1.394 . S
C1749 C1755 1.465 1_556 S
C1750 C1745 1.399 . S
C1750 C1749 1.394 . S
C1750 C1751 1.516 . S
C1751 C1750 1.516 . S
C1751 C1752 1.502 . S
C1751 C1753 1.561 . S
C1751 C1754 1.526 1_556 S
C1752 H1736 0.959 . S
C1752 H1737 0.959 1_556 S
C1752 H1738 0.961 . S
C1752 C1751 1.502 . S
C1753 H1739 0.960 . S
C1753 H1740 0.961 1_556 S
C1753 H1741 0.959 . S
C1753 C1751 1.561 . S
C1754 C1751 1.526 1_554 S
C1754 C1755 1.396 . S
C1754 C1759 1.390 . S
C1755 C1749 1.465 1_554 S
C1755 C1754 1.396 . S
C1755 C1756 1.399 . S
C1756 H1742 0.929 . S
C1756 C1755 1.399 . S
C1756 C1757 1.385 . S
C1757 H1743 0.931 . S
C1757 C1756 1.385 . S
C1757 C1758 1.389 . S
C1758 C1757 1.389 . S
C1758 C1759 1.387 . S
C1759 H1744 0.930 . S
C1759 C1754 1.390 . S
C1759 C1758 1.387 . S
H1760 C1772 0.930 . S
H1761 C1774 0.930 . S
H1762 C1775 0.930 . S
H1763 C1779 0.959 . S
H1764 C1779 0.959 . S
H1765 C1779 0.961 . S
H1766 C1780 0.960 . S
H1767 C1780 0.961 . S
H1768 C1780 0.959 . S
H1769 C1783 0.929 . S
H1770 C1784 0.931 . S
H1771 C1786 0.930 . S
C1772 H1760 0.930 . S
C1772 C1773 1.399 . S
C1772 C1777 1.399 . S
C1773 C1772 1.399 . S
C1773 C1774 1.376 . S
C1774 H1761 0.930 . S
C1774 C1773 1.376 . S
C1774 C1775 1.388 . S
C1775 H1762 0.930 . S
C1775 C1774 1.388 . S
C1775 C1776 1.390 . S
C1776 C1775 1.390 . S
C1776 C1777 1.394 . S
C1776 C1782 1.465 . S
C1777 C1772 1.399 . S
C1777 C1776 1.394 . S
C1777 C1778 1.516 . S
C1778 C1777 1.516 . S
C1778 C1779 1.502 . S
C1778 C1780 1.561 . S
C1778 C1781 1.526 . S
C1779 H1763 0.959 . S
C1779 H1764 0.959 . S
C1779 H1765 0.961 . S
C1779 C1778 1.502 . S
C1780 H1766 0.960 . S
C1780 H1767 0.961 . S
C1780 H1768 0.959 . S
C1780 C1778 1.561 . S
C1781 C1778 1.526 . S
C1781 C1782 1.396 . S
C1781 C1786 1.390 . S
C1782 C1776 1.465 . S
C1782 C1781 1.396 . S
C1782 C1783 1.399 . S
C1783 H1769 0.929 . S
C1783 C1782 1.399 . S
C1783 C1784 1.385 . S
C1784 H1770 0.931 . S
C1784 C1783 1.385 . S
C1784 C1785 1.389 . S
C1785 C1784 1.389 . S
C1785 C1786 1.387 . S
C1786 H1771 0.930 . S
C1786 C1781 1.390 . S
C1786 C1785 1.387 . S
H1787 C1799 0.930 . S
H1788 C1801 0.930 . S
H1789 C1802 0.930 . S
H1790 C1806 0.959 . S
H1791 C1806 0.959 1_554 S
H1792 C1806 0.961 . S
H1793 C1807 0.952 1_556 S
H1794 C1807 0.968 . S
H1795 C1807 0.961 . S
H1796 C1810 0.929 . S
H1797 C1811 0.931 . S
H1798 C1813 0.930 . S
C1799 H1787 0.930 . S
C1799 C1800 1.399 . S
C1799 C1804 1.399 . S
C1800 C1799 1.399 . S
C1800 C1801 1.376 . S
C1801 H1788 0.930 . S
C1801 C1800 1.376 . S
C1801 C1802 1.388 . S
C1802 H1789 0.930 . S
C1802 C1801 1.388 . S
C1802 C1803 1.390 . S
C1803 C1802 1.390 . S
C1803 C1804 1.394 . S
C1803 C1809 1.465 1_556 S
C1804 C1799 1.399 . S
C1804 C1803 1.394 . S
C1804 C1805 1.516 . S
C1805 C1804 1.516 . S
C1805 C1806 1.502 . S
C1805 C1807 1.560 1_556 S
C1805 C1808 1.526 1_556 S
C1806 H1790 0.959 . S
C1806 H1791 0.959 1_556 S
C1806 H1792 0.961 . S
C1806 C1805 1.502 . S
C1807 H1793 0.952 1_554 S
C1807 H1794 0.968 . S
C1807 H1795 0.961 . S
C1807 C1805 1.560 1_554 S
C1808 C1805 1.526 1_554 S
C1808 C1809 1.396 . S
C1808 C1813 1.390 . S
C1809 C1803 1.465 1_554 S
C1809 C1808 1.396 . S
C1809 C1810 1.399 . S
C1810 H1796 0.929 . S
C1810 C1809 1.399 . S
C1810 C1811 1.385 . S
C1811 H1797 0.931 . S
C1811 C1810 1.385 . S
C1811 C1812 1.389 . S
C1812 C1811 1.389 . S
C1812 C1813 1.387 . S
C1813 H1798 0.930 . S
C1813 C1808 1.390 . S
C1813 C1812 1.387 . S
H1814 C1826 0.930 . S
H1815 C1828 0.930 . S
H1816 C1829 0.930 . S
H1817 C1833 0.959 . S
H1818 C1833 0.959 . S
H1819 C1833 0.961 . S
H1820 C1834 0.960 . S
H1821 C1834 0.961 . S
H1822 C1834 0.959 . S
H1823 C1837 0.929 . S
H1824 C1838 0.931 . S
H1825 C1840 0.930 . S
C1826 H1814 0.930 . S
C1826 C1827 1.399 . S
C1826 C1831 1.399 . S
C1827 C1826 1.399 . S
C1827 C1828 1.376 . S
C1828 H1815 0.930 . S
C1828 C1827 1.376 . S
C1828 C1829 1.388 . S
C1829 H1816 0.930 . S
C1829 C1828 1.388 . S
C1829 C1830 1.390 . S
C1830 C1829 1.390 . S
C1830 C1831 1.394 . S
C1830 C1836 1.465 . S
C1831 C1826 1.399 . S
C1831 C1830 1.394 . S
C1831 C1832 1.516 . S
C1832 C1831 1.516 . S
C1832 C1833 1.502 . S
C1832 C1834 1.561 . S
C1832 C1835 1.526 . S
C1833 H1817 0.959 . S
C1833 H1818 0.959 . S
C1833 H1819 0.961 . S
C1833 C1832 1.502 . S
C1834 H1820 0.960 . S
C1834 H1821 0.961 . S
C1834 H1822 0.959 . S
C1834 C1832 1.561 . S
C1835 C1832 1.526 . S
C1835 C1836 1.396 . S
C1835 C1840 1.390 . S
C1836 C1830 1.465 . S
C1836 C1835 1.396 . S
C1836 C1837 1.399 . S
C1837 H1823 0.929 . S
C1837 C1836 1.399 . S
C1837 C1838 1.385 . S
C1838 H1824 0.931 . S
C1838 C1837 1.385 . S
C1838 C1839 1.389 . S
C1839 C1838 1.389 . S
C1839 C1840 1.387 . S
C1840 H1825 0.930 . S
C1840 C1835 1.390 . S
C1840 C1839 1.387 . S
H1841 C1853 0.930 . S
H1842 C1855 0.930 . S
H1843 C1856 0.930 . S
H1844 C1860 0.959 . S
H1845 C1860 0.959 . S
H1846 C1860 0.961 1_554 S
H1847 C1861 0.960 . S
H1848 C1861 0.961 1_556 S
H1849 C1861 0.959 . S
H1850 C1864 0.929 . S
H1851 C1865 0.931 . S
H1852 C1867 0.930 . S
C1853 H1841 0.930 . S
C1853 C1854 1.399 . S
C1853 C1858 1.399 . S
C1854 C1853 1.399 . S
C1854 C1855 1.376 . S
C1855 H1842 0.930 . S
C1855 C1854 1.376 . S
C1855 C1856 1.388 . S
C1856 H1843 0.930 . S
C1856 C1855 1.388 . S
C1856 C1857 1.390 . S
C1857 C1856 1.390 . S
C1857 C1858 1.394 . S
C1857 C1863 1.465 1_554 S
C1858 C1853 1.399 . S
C1858 C1857 1.394 . S
C1858 C1859 1.516 . S
C1859 C1858 1.516 . S
C1859 C1860 1.502 1_554 S
C1859 C1861 1.561 . S
C1859 C1862 1.526 1_554 S
C1860 H1844 0.959 . S
C1860 H1845 0.959 . S
C1860 H1846 0.961 1_556 S
C1860 C1859 1.502 1_556 S
C1861 H1847 0.960 . S
C1861 H1848 0.961 1_554 S
C1861 H1849 0.959 . S
C1861 C1859 1.561 . S
C1862 C1859 1.526 1_556 S
C1862 C1863 1.396 . S
C1862 C1867 1.390 . S
C1863 C1857 1.465 1_556 S
C1863 C1862 1.396 . S
C1863 C1864 1.399 . S
C1864 H1850 0.929 . S
C1864 C1863 1.399 . S
C1864 C1865 1.385 . S
C1865 H1851 0.931 . S
C1865 C1864 1.385 . S
C1865 C1866 1.389 . S
C1866 C1865 1.389 . S
C1866 C1867 1.387 . S
C1867 H1852 0.930 . S
C1867 C1862 1.390 . S
C1867 C1866 1.387 . S
H1868 C1880 0.930 . S
H1869 C1882 0.930 . S
H1870 C1883 0.930 . S
H1871 C1887 0.959 . S
H1872 C1887 0.959 . S
H1873 C1887 0.961 . S
H1874 C1888 0.960 . S
H1875 C1888 0.961 . S
H1876 C1888 0.959 . S
H1877 C1891 0.929 . S
H1878 C1892 0.931 . S
H1879 C1894 0.930 . S
C1880 H1868 0.930 . S
C1880 C1881 1.399 . S
C1880 C1885 1.399 . S
C1881 C1880 1.399 . S
C1881 C1882 1.376 . S
C1882 H1869 0.930 . S
C1882 C1881 1.376 . S
C1882 C1883 1.388 . S
C1883 H1870 0.930 . S
C1883 C1882 1.388 . S
C1883 C1884 1.390 . S
C1884 C1883 1.390 . S
C1884 C1885 1.394 . S
C1884 C1890 1.465 . S
C1885 C1880 1.399 . S
C1885 C1884 1.394 . S
C1885 C1886 1.516 . S
C1886 C1885 1.516 . S
C1886 C1887 1.502 . S
C1886 C1888 1.561 . S
C1886 C1889 1.526 . S
C1887 H1871 0.959 . S
C1887 H1872 0.959 . S
C1887 H1873 0.961 . S
C1887 C1886 1.502 . S
C1888 H1874 0.960 . S
C1888 H1875 0.961 . S
C1888 H1876 0.959 . S
C1888 C1886 1.561 . S
C1889 C1886 1.526 . S
C1889 C1890 1.396 . S
C1889 C1894 1.390 . S
C1890 C1884 1.465 . S
C1890 C1889 1.396 . S
C1890 C1891 1.399 . S
C1891 H1877 0.929 . S
C1891 C1890 1.399 . S
C1891 C1892 1.385 . S
C1892 H1878 0.931 . S
C1892 C1891 1.385 . S
C1892 C1893 1.389 . S
C1893 C1892 1.389 . S
C1893 C1894 1.387 . S
C1894 H1879 0.930 . S
C1894 C1889 1.390 . S
C1894 C1893 1.387 . S
H1895 C1907 0.930 . S
H1896 C1909 0.930 . S
H1897 C1910 0.930 . S
H1898 C1914 0.959 . S
H1899 C1914 0.959 . S
H1900 C1914 0.961 1_554 S
H1901 C1915 0.960 1_554 S
H1902 C1915 0.961 . S
H1903 C1915 0.959 . S
H1904 C1918 0.929 . S
H1905 C1919 0.931 . S
H1906 C1921 0.930 . S
C1907 H1895 0.930 . S
C1907 C1908 1.399 . S
C1907 C1912 1.399 . S
C1908 C1907 1.399 . S
C1908 C1909 1.376 . S
C1909 H1896 0.930 . S
C1909 C1908 1.376 . S
C1909 C1910 1.388 . S
C1910 H1897 0.930 . S
C1910 C1909 1.388 . S
C1910 C1911 1.390 . S
C1911 C1910 1.390 . S
C1911 C1912 1.394 . S
C1911 C1917 1.465 1_554 S
C1912 C1907 1.399 . S
C1912 C1911 1.394 . S
C1912 C1913 1.516 1_554 S
C1913 C1912 1.516 1_556 S
C1913 C1914 1.502 . S
C1913 C1915 1.561 . S
C1913 C1916 1.526 . S
C1914 H1898 0.959 . S
C1914 H1899 0.959 . S
C1914 H1900 0.961 1_556 S
C1914 C1913 1.502 . S
C1915 H1901 0.960 1_556 S
C1915 H1902 0.961 . S
C1915 H1903 0.959 . S
C1915 C1913 1.561 . S
C1916 C1913 1.526 . S
C1916 C1917 1.396 . S
C1916 C1921 1.390 . S
C1917 C1911 1.465 1_556 S
C1917 C1916 1.396 . S
C1917 C1918 1.399 . S
C1918 H1904 0.929 . S
C1918 C1917 1.399 . S
C1918 C1919 1.385 . S
C1919 H1905 0.931 . S
C1919 C1918 1.385 . S
C1919 C1920 1.389 . S
C1920 C1919 1.389 . S
C1920 C1921 1.387 . S
C1921 H1906 0.930 . S
C1921 C1916 1.390 . S
C1921 C1920 1.387 . S
H1922 C1934 0.930 . S
H1923 C1936 0.930 . S
H1924 C1937 0.930 . S
H1925 C1941 0.959 . S
H1926 C1941 0.959 . S
H1927 C1941 0.961 . S
H1928 C1942 0.960 . S
H1929 C1942 0.961 . S
H1930 C1942 0.959 . S
H1931 C1945 0.929 . S
H1932 C1946 0.931 . S
H1933 C1948 0.930 . S
C1934 H1922 0.930 . S
C1934 C1935 1.399 . S
C1934 C1939 1.399 . S
C1935 C1934 1.399 . S
C1935 C1936 1.376 . S
C1936 H1923 0.930 . S
C1936 C1935 1.376 . S
C1936 C1937 1.388 . S
C1937 H1924 0.930 . S
C1937 C1936 1.388 . S
C1937 C1938 1.390 . S
C1938 C1937 1.390 . S
C1938 C1939 1.394 . S
C1938 C1944 1.465 . S
C1939 C1934 1.399 . S
C1939 C1938 1.394 . S
C1939 C1940 1.516 . S
C1940 C1939 1.516 . S
C1940 C1941 1.502 . S
C1940 C1942 1.561 . S
C1940 C1943 1.526 . S
C1941 H1925 0.959 . S
C1941 H1926 0.959 . S
C1941 H1927 0.961 . S
C1941 C1940 1.502 . S
C1942 H1928 0.960 . S
C1942 H1929 0.961 . S
C1942 H1930 0.959 . S
C1942 C1940 1.561 . S
C1943 C1940 1.526 . S
C1943 C1944 1.396 . S
C1943 C1948 1.390 . S
C1944 C1938 1.465 . S
C1944 C1943 1.396 . S
C1944 C1945 1.399 . S
C1945 H1931 0.929 . S
C1945 C1944 1.399 . S
C1945 C1946 1.385 . S
C1946 H1932 0.931 . S
C1946 C1945 1.385 . S
C1946 C1947 1.389 . S
C1947 C1946 1.389 . S
C1947 C1948 1.387 . S
C1948 H1933 0.930 . S
C1948 C1943 1.390 . S
C1948 C1947 1.387 . S
H1949 C1961 0.930 . S
H1950 C1963 0.930 . S
H1951 C1964 0.930 . S
H1952 C1968 0.959 . S
H1953 C1968 0.959 . S
H1954 C1968 0.961 1_554 S
H1955 C1969 0.960 1_554 S
H1956 C1969 0.961 . S
H1957 C1969 0.959 . S
H1958 C1972 0.929 . S
H1959 C1973 0.931 . S
H1960 C1975 0.930 . S
C1961 H1949 0.930 . S
C1961 C1962 1.399 . S
C1961 C1966 1.399 . S
C1962 C1961 1.399 . S
C1962 C1963 1.376 . S
C1963 H1950 0.930 . S
C1963 C1962 1.376 . S
C1963 C1964 1.388 . S
C1964 H1951 0.930 . S
C1964 C1963 1.388 . S
C1964 C1965 1.390 . S
C1965 C1964 1.390 . S
C1965 C1966 1.394 . S
C1965 C1971 1.465 1_554 S
C1966 C1961 1.399 . S
C1966 C1965 1.394 . S
C1966 C1967 1.516 1_554 S
C1967 C1966 1.516 1_556 S
C1967 C1968 1.502 . S
C1967 C1969 1.561 . S
C1967 C1970 1.526 . S
C1968 H1952 0.959 . S
C1968 H1953 0.959 . S
C1968 H1954 0.961 1_556 S
C1968 C1967 1.502 . S
C1969 H1955 0.960 1_556 S
C1969 H1956 0.961 . S
C1969 H1957 0.959 . S
C1969 C1967 1.561 . S
C1970 C1967 1.526 . S
C1970 C1971 1.396 . S
C1970 C1975 1.390 . S
C1971 C1965 1.465 1_556 S
C1971 C1970 1.396 . S
C1971 C1972 1.399 . S
C1972 H1958 0.929 . S
C1972 C1971 1.399 . S
C1972 C1973 1.385 . S
C1973 H1959 0.931 . S
C1973 C1972 1.385 . S
C1973 C1974 1.389 . S
C1974 C1973 1.389 . S
C1974 C1975 1.387 . S
C1975 H1960 0.930 . S
C1975 C1970 1.390 . S
C1975 C1974 1.387 . S
C477 C184 1.564 . S
C489 C10 1.550 . S
C504 C39 1.570 . S
C516 C213 1.581 . S
C531 C126 1.507 . S
C543 C68 1.513 . S
C558 C155 1.593 . S
C570 C97 1.597 . S
C585 C242 1.550 . S
C597 C416 1.564 . S
C612 C445 1.507 . S
C624 C271 1.508 . S
C639 C358 1.509 . S
C651 C300 1.517 . S
C666 C387 1.589 . S
C678 C329 1.579 . S
C693 C13 0.971 . S
C705 C438 1.005 . S
C720 C42 1.075 . S
C732 C409 1.051 . S
C747 C380 1.078 . S
C759 C71 1.075 . S
C774 C351 0.977 . S
C786 C100 0.986 . S
C801 C322 1.025 . S
C813 C129 1.076 . S
C828 C293 1.024 . S
C840 C158 0.969 . S
C855 C264 1.020 . S
C867 C187 1.074 . S
C882 C235 1.047 . S
C894 C216 0.978 . S
C909 C206 1.077 . S
C921 C245 1.050 . S
C936 C274 0.993 . S
C948 C177 1.036 . S
C963 C303 1.057 . S
C975 C148 1.025 . S
C990 C119 0.979 . S
C1002 C332 0.974 . S
C1017 C361 0.995 . S
C1029 C90 0.981 . S
C1044 C61 1.055 . S
C1056 C390 0.984 . S
C1071 C419 0.990 . S
C1083 C32 0.983 . S
C1098 C448 1.057 . S
C1110 C3 1.076 . S
C1125 C66 1.403 1_554 S
C1137 C8 1.302 1_556 S
C1152 C37 1.400 . S
C1164 C95 1.308 . S
C1179 C124 1.293 1_554 S
C1191 C182 1.396 1_556 S
C1206 C211 1.402 . S
C1218 C153 1.339 . S
C1233 C298 1.397 1_554 S
C1245 C240 1.315 1_556 S
C1260 C269 1.284 . S
C1272 C327 1.385 . S
C1287 C414 1.376 1_556 S
C1299 C356 1.283 1_554 S
C1314 C443 1.339 . S
C1326 C385 1.290 . S
C1341 C5 1.298 . S
C1353 C92 1.297 . S
C1368 C34 1.351 . S
C1380 C63 1.353 . S
C1395 C208 1.343 . S
C1407 C121 1.354 . S
C1422 C150 1.298 . S
C1434 C179 1.312 . S
C1449 C324 1.298 . S
C1461 C237 1.297 . S
C1476 C266 1.349 . S
C1488 C295 1.351 . S
C1503 C440 1.350 . S
C1515 C353 1.336 . S
C1530 C411 1.351 . S
C1542 C382 1.356 . S
C1557 C15 2.121 . S
C1569 C21 1.959 . S
C1584 C44 2.108 . S
C1596 C50 2.036 . S
C1611 C79 2.018 . S
C1623 C73 2.132 . S
C1638 C102 2.108 . S
C1650 C108 2.035 . S
C1665 C131 2.096 . S
C1677 C137 1.957 . S
C1692 C160 2.120 . S
C1704 C166 1.973 . S
C1719 C189 2.091 . S
C1731 C195 1.966 . S
C1746 C224 2.035 . S
C1758 C218 2.121 . S
C1773 C247 2.124 . S
C1785 C253 1.961 . S
C1800 C282 2.033 . S
C1812 C276 2.104 . S
C1827 C311 2.023 . S
C1839 C305 2.131 . S
C1854 C340 1.960 . S
C1866 C334 2.124 . S
C1881 C363 2.108 . S
C1893 C369 2.023 . S
C1908 C398 1.961 . S
C1920 C392 2.111 . S
C1935 C421 2.135 . S
C1947 C427 2.027 . S
C1962 C450 2.135 . S
C1974 C456 2.027 . S
