# Generated by pormake.
# Topology qtz-x, (6)-cn, num edge types: 1
# Building blocks:
#     Node 0, Type 0, BuildingBlock: INOVEN_clean_sbu_0, # of connection points: 6
#     Node 1, Type 0, BuildingBlock: INOVEN_clean_sbu_0, # of connection points: 6
#     Node 2, Type 0, BuildingBlock: INOVEN_clean_sbu_0, # of connection points: 6
#     Edge 3, Type (0, 0), BuildingBlock: MIFKUJ_clean_linker_0, # of connection points: 2
#     Edge 4, Type (0, 0), BuildingBlock: MIFKUJ_clean_linker_0, # of connection points: 2
#     Edge 5, Type (0, 0), BuildingBlock: MIFKUJ_clean_linker_0, # of connection points: 2
#     Edge 6, Type (0, 0), BuildingBlock: MIFKUJ_clean_linker_0, # of connection points: 2
#     Edge 7, Type (0, 0), BuildingBlock: MIFKUJ_clean_linker_0, # of connection points: 2
#     Edge 8, Type (0, 0), BuildingBlock: MIFKUJ_clean_linker_0, # of connection points: 2
#     Edge 9, Type (0, 0), BuildingBlock: MIFKUJ_clean_linker_0, # of connection points: 2
#     Edge 10, Type (0, 0), BuildingBlock: MIFKUJ_clean_linker_0, # of connection points: 2
#     Edge 11, Type (0, 0), BuildingBlock: MIFKUJ_clean_linker_0, # of connection points: 2
# Relax obj value: 0.169
# Max RMSD: 0.239
# Mean RMSD: 0.218
data_MOF--net-qtz-x--node1-INOVEN_clean_sbu_0--edge1-MIFKUJ_clean_linker_0
_symmetry_space_group_name_H-M    P1
_symmetry_Int_Tables_number       1
_symmetry_cell_setting            triclinic
loop_
_symmetry_equiv_pos_as_xyz
'x, y, z'
_cell_length_a     19.077352
_cell_length_b     19.052654
_cell_length_c     65.687817
_cell_angle_alpha  73.506704
_cell_angle_beta   109.86289
_cell_angle_gamma 120.90969
loop_
_atom_site_label
_atom_site_type_symbol
_atom_site_fract_x
_atom_site_fract_y
_atom_site_fract_z
_atom_type_partial_charge
Gd0 Gd 0.98788 0.58415 0.19088 0.0
Gd1 Gd 0.1553 0.70215 0.18163 0.0
C2 C 0.15177 0.66201 0.2307 0.0
C3 C 0.86825 0.4643 0.20852 0.0
C4 C 0.85481 0.43482 0.231 0.0
C5 C 0.78576 0.43089 0.23542 0.0
C6 C 0.9105 0.41176 0.24821 0.0
C7 C 0.82798 0.38139 0.27379 0.0
C8 C 0.89699 0.38502 0.26936 0.0
C9 C 0.77267 0.40484 0.25659 0.0
C10 C 1.01798 0.74338 0.18214 0.0
C11 C 0.99216 0.63145 0.14105 0.0
C12 C 0.27651 0.81622 0.16395 0.0
C13 C 0.29775 0.81976 0.144 0.0
C14 C 0.27764 0.74668 0.13722 0.0
C15 C 0.33298 0.89523 0.13084 0.0
C16 C 0.32848 0.82454 0.10433 0.0
C17 C 0.34816 0.89767 0.11117 0.0
C18 C 0.29339 0.74908 0.11771 0.0
C19 C 0.12245 0.54176 0.18944 0.0
O20 O 0.07924 0.59734 0.22441 0.0
O21 O 0.18909 0.72221 0.21617 0.0
O22 O 0.86922 0.5353 0.19949 0.0
O23 O 0.92565 0.4555 0.20442 0.0
O24 O 0.94556 0.68193 0.17566 0.0
O25 O 0.07037 0.71763 0.1937 0.0
O26 O 0.06859 0.6897 0.14806 0.0
O27 O 0.94759 0.57422 0.1549 0.0
O28 O 0.28566 0.76067 0.18022 0.0
O29 O 0.20624 0.81864 0.16078 0.0
O30 O 0.19539 0.60207 0.19605 0.0
O31 O 0.07165 0.56951 0.17819 0.0
H32 H 0.74189 0.4482 0.22246 0.0
H33 H 0.96476 0.41466 0.24542 0.0
H34 H 0.94124 0.36827 0.28232 0.0
H35 H 0.7185 0.40197 0.25943 0.0
H36 H 0.24912 0.68743 0.14695 0.0
H37 H 0.34758 0.9521 0.13562 0.0
H38 H 0.37387 0.95674 0.10114 0.0
H39 H 0.27851 0.69162 0.11323 0.0
Gd40 Gd 0.74656 0.13478 0.5401 0.0
Gd41 Gd 0.67922 0.95995 0.53596 0.0
C42 C 0.73381 -0.00257 0.58382 0.0
C43 C 0.78438 0.27211 0.55122 0.0
C44 C 0.80179 0.30063 0.57186 0.0
C45 C 0.87123 0.37674 0.57677 0.0
C46 C 0.75259 0.25143 0.58717 0.0
C47 C 0.84265 0.35439 0.61214 0.0
C48 C 0.77273 0.27813 0.60709 0.0
C49 C 0.89161 0.40335 0.59671 0.0
C50 C 0.86054 0.09839 0.53625 0.0
C51 C 0.69459 0.09827 0.49218 0.0
C52 C 0.63868 0.82437 0.52337 0.0
C53 C 0.60724 0.79859 0.50142 0.0
C54 C 0.52469 0.73616 0.49537 0.0
C55 C 0.65585 0.8402 0.48575 0.0
C56 C 0.53747 0.76194 0.45795 0.0
C57 C 0.62138 0.82199 0.46428 0.0
C58 C 0.49006 0.71818 0.47387 0.0
C59 C 0.56468 -0.0026 0.53909 0.0
O60 O 0.73302 0.0683 0.57427 0.0
O61 O 0.72643 0.94645 0.5723 0.0
O62 O 0.84037 0.2552 0.54962 0.0
O63 O 0.70713 0.21815 0.54359 0.0
O64 O 0.8544 0.16526 0.52675 0.0
O65 O 0.80781 0.05442 0.54796 0.0
O66 O 0.69045 0.02541 0.50159 0.0
O67 O 0.70489 0.15071 0.50371 0.0
O68 O 0.58713 0.83493 0.52968 0.0
O69 O 0.71644 0.88205 0.52831 0.0
O70 O 0.57044 0.93051 0.54882 0.0
O71 O 0.61824 0.04069 0.52762 0.0
H72 H 0.91046 0.41521 0.56527 0.0
H73 H 0.69887 0.19214 0.58382 0.0
H74 H 0.73301 0.23928 0.61845 0.0
H75 H 0.94667 0.46171 0.60017 0.0
H76 H 0.48583 0.70317 0.50711 0.0
H77 H 0.71984 0.88854 0.48985 0.0
H78 H 0.66029 0.85583 0.45257 0.0
H79 H 0.42506 0.6721 0.46959 0.0
Gd80 Gd 0.7257 0.79003 0.85778 0.0
Gd81 Gd 0.85442 0.73178 0.86483 0.0
C82 C 0.81734 0.73854 0.907 0.0
C83 C 0.60422 0.81168 0.85924 0.0
C84 C 0.56852 0.80684 0.87656 0.0
C85 C 0.54485 0.86686 0.87521 0.0
C86 C 0.56306 0.74686 0.89511 0.0
C87 C 0.51297 0.80883 0.91099 0.0
C88 C 0.53512 0.74763 0.91214 0.0
C89 C 0.51751 0.86803 0.89227 0.0
C90 C 0.88263 0.9112 0.85742 0.0
C91 C 0.76486 0.78623 0.81501 0.0
C92 C 0.97539 0.71005 0.86323 0.0
C93 C 0.98408 0.67469 0.84752 0.0
C94 C 0.91717 0.60276 0.83898 0.0
C95 C 0.05693 0.71706 0.83947 0.0
C96 C 0.99417 0.61857 0.81373 0.0
C97 C 0.06188 0.68942 0.82266 0.0
C98 C 0.92243 0.5747 0.82235 0.0
C99 C 0.69647 0.60996 0.86402 0.0
O100 O 0.7474 0.7391 0.89385 0.0
O101 O 0.87854 0.75129 0.89907 0.0
O102 O 0.68026 0.87148 0.85923 0.0
O103 O 0.59305 0.74242 0.85541 0.0
O104 O 0.8158 0.91666 0.84518 0.0
O105 O 0.86413 0.84482 0.87047 0.0
O106 O 0.82798 0.77282 0.82833 0.0
O107 O 0.70841 0.78582 0.8225 0.0
O108 O 0.92095 0.65885 0.87507 0.0
O109 O 0.9716 0.77956 0.85568 0.0
O110 O 0.76266 0.60206 0.8755 0.0
O111 O 0.71661 0.67794 0.85175 0.0
H112 H 0.54906 0.91391 0.86109 0.0
H113 H 0.58192 0.70047 0.89664 0.0
H114 H 0.53329 0.7019 0.92649 0.0
H115 H 0.50026 0.91552 0.89088 0.0
H116 H 0.85965 0.56953 0.84465 0.0
H117 H 0.10898 0.77295 0.84574 0.0
H118 H 0.11808 0.72419 0.8164 0.0
H119 H 0.86877 0.52067 0.81558 0.0
H120 H 0.89993 0.79779 0.16525 0.0
H121 H 0.91601 0.93246 0.16643 0.0
H122 H 0.17824 0.01277 0.19862 0.0
H123 H 0.16171 0.87692 0.19799 0.0
H124 H 0.10783 0.05502 0.21834 0.0
H125 H 0.10957 0.079 0.14338 0.0
H126 H 0.05333 0.03533 0.10679 0.0
H127 H 0.82946 0.05138 0.09957 0.0
H128 H 0.8839 0.09411 0.13622 0.0
H129 H 0.23675 0.48277 0.20648 0.0
H130 H 0.21661 0.34663 0.2051 0.0
H131 H 0.95634 0.27395 0.17185 0.0
H132 H 0.97704 0.41133 0.17268 0.0
H133 H 1.02248 0.22636 0.15268 0.0
H134 H 1.01764 0.20279 0.22663 0.0
H135 H 0.0687 0.2428 0.2635 0.0
H136 H 0.29189 0.22212 0.2731 0.0
H137 H 0.24272 0.18313 0.23614 0.0
C138 C 0.96117 0.84435 0.17244 0.0
C139 C 0.0296 0.82689 0.18153 0.0
C140 C 0.9704 0.92152 0.17303 0.0
C141 C 0.04861 -0.01662 0.1824 0.0
C142 C 0.11728 0.96618 0.1913 0.0
C143 C 0.1079 0.88869 0.19085 0.0
C144 C 0.0582 0.06506 0.18349 0.0
C145 C 0.09038 0.09307 0.20392 0.0
C146 C 0.03275 0.1136 0.16481 0.0
C147 C 1.00054 0.08908 0.14263 0.0
C148 C 0.04815 0.07276 0.13404 0.0
C149 C 1.0166 0.04822 0.11328 0.0
C150 C 0.93776 0.04035 0.10089 0.0
C151 C 0.89046 0.05736 0.10919 0.0
C152 C 0.92168 0.08185 0.12994 0.0
C153 C 0.1751 0.4376 0.19899 0.0
C154 C 0.10842 0.45759 0.18972 0.0
C155 C 0.16351 0.35957 0.19829 0.0
C156 C 0.08464 0.29936 0.1886 0.0
C157 C 1.01776 0.31918 0.17944 0.0
C158 C 0.0295 0.39754 0.18001 0.0
C159 C 0.07278 0.21668 0.18752 0.0
C160 C 0.04004 0.18841 0.1671 0.0
C161 C 0.09714 0.16757 0.20624 0.0
C162 C 0.12682 0.19079 0.22852 0.0
C163 C 0.07791 0.20739 0.23653 0.0
C164 C 0.10647 0.22979 0.25746 0.0
C165 C 0.18359 0.2352 0.27061 0.0
C166 C 0.23222 0.21801 0.26288 0.0
C167 C 0.204 0.19569 0.24195 0.0
H168 H 0.20558 0.25254 0.28682 0.0
H169 H 0.91342 0.02124 0.08484 0.0
H170 H 0.45702 0.91648 0.5659 0.0
H171 H 0.33787 0.93431 0.56484 0.0
H172 H 0.39419 0.12767 0.51029 0.0
H173 H 0.51589 0.11174 0.51184 0.0
H174 H 0.35046 0.16939 0.5369 0.0
H175 H 0.23023 0.92441 0.50432 0.0
H176 H 0.20509 0.78593 0.50212 0.0
H177 H 0.10486 0.6874 0.55922 0.0
H178 H 0.13049 0.82556 0.56195 0.0
H179 H 0.96167 0.17702 0.50774 0.0
H180 H 0.07867 0.1587 0.5072 0.0
H181 H 0.03084 0.96804 0.56262 0.0
H182 H 0.91144 -0.01544 0.56273 0.0
H183 H 0.06938 0.92546 0.53459 0.0
H184 H 0.19323 0.17232 0.56741 0.0
H185 H 0.2178 0.31105 0.56918 0.0
H186 H 0.31009 0.40593 0.51083 0.0
H187 H 0.28508 0.26749 0.50857 0.0
C188 C 0.44418 0.963 0.5537 0.0
C189 C 0.49528 0.01219 0.53881 0.0
C190 C 0.37559 0.97279 0.55302 0.0
C191 C 0.35531 0.03093 0.53713 0.0
C192 C 0.4079 0.08191 0.52261 0.0
C193 C 0.47739 0.07276 0.52347 0.0
C194 C 0.27948 0.03834 0.53577 0.0
C195 C 0.28882 0.11615 0.53606 0.0
C196 C 0.19894 0.96879 0.53513 0.0
C197 C 0.18297 0.88551 0.53344 0.0
C198 C 0.20335 0.87332 0.51649 0.0
C199 C 0.18894 0.79487 0.51514 0.0
C200 C 0.15358 0.72795 0.53055 0.0
C201 C 0.13233 0.73931 0.54731 0.0
C202 C 0.14671 0.81766 0.54876 0.0
C203 C 0.97592 0.13098 0.51978 0.0
C204 C 0.92808 0.08288 0.53546 0.0
C205 C 0.04318 0.12082 0.51952 0.0
C206 C 0.06528 0.06338 0.53521 0.0
C207 C 1.01563 0.01323 0.55044 0.0
C208 C 0.9475 0.02274 0.55053 0.0
C209 C 0.14053 0.05636 0.53584 0.0
C210 C 0.13104 0.97865 0.53539 0.0
C211 C 0.22085 0.12602 0.53627 0.0
C212 C 0.23664 0.20942 0.53773 0.0
C213 C 0.21831 0.22268 0.55489 0.0
C214 C 0.23237 0.30127 0.55599 0.0
C215 C 0.26531 0.36722 0.54011 0.0
C216 C 0.2845 0.35478 0.52312 0.0
C217 C 0.27049 0.27629 0.52193 0.0
H218 H 0.27611 0.428 0.54098 0.0
H219 H 0.1425 0.66727 0.52947 0.0
H220 H 0.94013 0.05227 0.87338 0.0
H221 H 0.07924 0.17341 0.87465 0.0
H222 H 0.1505 0.04939 0.84574 0.0
H223 H 1.01176 0.92919 0.84444 0.0
H224 H 0.27408 0.12543 0.87941 0.0
H225 H 0.08366 0.1879 0.8169 0.0
H226 H 0.95852 0.20805 0.7976 0.0
H227 H 0.0546 0.41007 0.83274 0.0
H228 H 0.17891 0.3892 0.85291 0.0
H229 H 0.63822 0.46583 0.84954 0.0
H230 H 0.49757 0.34732 0.84773 0.0
H231 H 0.4253 0.48029 0.87313 0.0
H232 H 0.56559 0.59859 0.87467 0.0
H233 H 0.30141 0.40038 0.8413 0.0
H234 H 0.48279 0.33323 0.90567 0.0
H235 H 0.60535 0.31094 0.92721 0.0
H236 H 0.52558 0.12023 0.88971 0.0
H237 H 0.40327 0.14239 0.86768 0.0
C238 C 0.9862 0.05109 0.86754 0.0
C239 C 0.96688 -0.01865 0.8593 0.0
C240 C 0.06515 0.12006 0.86818 0.0
C241 C 0.12493 0.12038 0.8602 0.0
C242 C 0.1055 0.05007 0.85215 0.0
C243 C 0.02674 -0.01882 0.85159 0.0
C244 C 0.20742 0.19426 0.85985 0.0
C245 C 0.28013 0.18539 0.87086 0.0
C246 C 0.21483 0.27281 0.84911 0.0
C247 C 0.14022 0.28596 0.83674 0.0
C248 C 0.07759 0.23572 0.82083 0.0
C249 C 1.00667 0.24726 0.80972 0.0
C250 C 0.99835 0.30993 0.81404 0.0
C251 C 0.06099 0.36134 0.82945 0.0
C252 C 0.13158 0.34948 0.84079 0.0
C253 C 0.59164 0.46959 0.85448 0.0
C254 C 0.61122 0.54128 0.86179 0.0
C255 C 0.51173 0.40204 0.85356 0.0
C256 C 0.45116 0.40472 0.86048 0.0
C257 C 0.4708 0.4771 0.86755 0.0
C258 C 0.55048 0.54485 0.86826 0.0
C259 C 0.36806 0.33148 0.86087 0.0
C260 C 0.29527 0.34042 0.84985 0.0
C261 C 0.36035 0.25304 0.87175 0.0
C262 C 0.43436 0.24016 0.88486 0.0
C263 C 0.49182 0.28712 0.90187 0.0
C264 C 0.56119 0.27442 0.91419 0.0
C265 C 0.57338 0.21439 0.90978 0.0
C266 C 0.51617 0.16685 0.89307 0.0
C267 C 0.44682 0.17947 0.88066 0.0
H268 H 0.62705 0.20456 0.91936 0.0
H269 H 0.94337 0.31863 0.80544 0.0
H270 H 0.40219 0.68217 0.9343 0.0
H271 H 0.36554 0.68915 0.96582 0.0
H272 H 0.53278 0.95079 0.96143 0.0
H273 H 0.56872 0.94463 0.92977 0.0
H274 H 0.5523 0.84692 1.00468 0.0
H275 H 0.3499 0.9101 0.94637 0.0
H276 H 0.23384 0.88768 0.91338 0.0
H277 H 0.07318 0.66187 0.94698 0.0
H278 H 0.18894 0.68196 0.98006 0.0
H279 H 0.46057 0.9418 0.0859 0.0
H280 H 0.4875 0.94322 0.05203 0.0
H281 H 0.26287 0.71112 0.04207 0.0
H282 H 0.23217 0.71222 0.07507 0.0
H283 H 0.27261 0.80166 1.00525 0.0
H284 H 0.47113 0.73201 0.06292 0.0
H285 H 0.58578 0.74863 0.09613 0.0
H286 H 0.75162 0.97637 0.06435 0.0
H287 H 0.63762 0.96187 0.03109 0.0
C288 C 0.43081 0.74117 0.94002 0.0
C289 C 0.48824 0.81287 0.92958 0.0
C290 C 0.40953 0.74512 0.95791 0.0
C291 C 0.44627 0.82054 0.96581 0.0
C292 C 0.50348 0.89216 0.95544 0.0
C293 C 0.52358 0.88856 0.93732 0.0
C294 C 0.42793 0.82408 0.98553 0.0
C295 C 0.49153 0.83805 1.00482 0.0
C296 C 0.34782 0.81009 0.98568 0.0
C297 C 0.27867 0.79692 0.96562 0.0
C298 C 0.29032 0.85495 0.94664 0.0
C299 C 0.22444 0.84281 0.92793 0.0
C300 C 0.14629 0.7732 0.92805 0.0
C301 C 0.13385 0.7156 0.94688 0.0
C302 C 0.19961 0.72732 0.96561 0.0
C303 C 0.41607 0.89161 0.07637 0.0
C304 C 0.34451 0.82649 0.08342 0.0
C305 C 0.43229 0.89188 0.05711 0.0
C306 C 0.37839 0.82621 0.04471 0.0
C307 C 0.30595 0.76209 0.05144 0.0
C308 C 0.289 0.76236 0.0705 0.0
C309 C 0.39705 0.82427 1.02468 0.0
C310 C 0.33348 0.81041 1.00526 0.0
C311 C 0.47698 0.83718 1.02448 0.0
C312 C 0.54545 0.84632 0.04458 0.0
C313 C 0.5318 0.78605 0.06308 0.0
C314 C 0.59675 0.79504 0.08192 0.0
C315 C 0.67588 0.86369 0.08239 0.0
C316 C 0.69027 0.92337 0.06401 0.0
C317 C 0.62551 0.91479 0.04516 0.0
H318 H 0.72612 0.87052 0.09698 0.0
H319 H 0.09528 0.76405 0.91358 0.0
H320 H 0.68989 0.0119 0.46443 0.0
H321 H 0.70711 0.0594 0.427 0.0
H322 H 0.71994 0.29001 0.42904 0.0
H323 H 0.70271 0.24295 0.46664 0.0
H324 H 0.62177 0.22372 0.3891 0.0
H325 H 0.89634 0.28508 0.43736 0.0
H326 H 0.99696 0.24803 0.46728 0.0
H327 H 0.96041 0.0714 0.43117 0.0
H328 H 0.85853 0.10648 0.40117 0.0
H329 H 0.78738 0.45099 0.29624 0.0
H330 H 0.76309 0.40427 0.33305 0.0
H331 H 0.80691 0.19808 0.33848 0.0
H332 H 0.83549 0.24731 0.30206 0.0
H333 H 0.87548 0.25182 0.37515 0.0
H334 H 0.60163 0.18283 0.32763 0.0
H335 H 0.49213 0.20739 0.29806 0.0
H336 H 0.5173 0.38366 0.33223 0.0
H337 H 0.62769 0.36087 0.36188 0.0
C338 C 0.69539 0.07237 0.45691 0.0
C339 C 0.69548 0.12379 0.46867 0.0
C340 C 0.70554 0.09954 0.4355 0.0
C341 C 0.71597 0.17868 0.42534 0.0
C342 C 0.71227 0.2288 0.43661 0.0
C343 C 0.70253 0.20181 0.45812 0.0
C344 C 0.73447 0.21036 0.40335 0.0
C345 C 0.67771 0.23094 0.38604 0.0
C346 C 0.80632 0.2175 0.39931 0.0
C347 C 0.86932 0.19798 0.41709 0.0
C348 C 0.90943 0.23804 0.43585 0.0
C349 C 0.96669 0.21739 0.45282 0.0
C350 C 0.98492 0.15727 0.45114 0.0
C351 C 0.94618 0.11792 0.43245 0.0
C352 C 0.88874 0.13822 0.41545 0.0
C353 C 0.79187 0.39573 0.30531 0.0
C354 C 0.81331 0.35285 0.29624 0.0
C355 C 0.77742 0.36866 0.32634 0.0
C356 C 0.78125 0.29641 0.33851 0.0
C357 C 0.80345 0.25393 0.32951 0.0
C358 C 0.81975 0.28208 0.30867 0.0
C359 C 0.76244 0.26522 0.3606 0.0
C360 C 0.81934 0.24475 0.37804 0.0
C361 C 0.68986 0.25686 0.36468 0.0
C362 C 0.62349 0.2707 0.34687 0.0
C363 C 0.58422 0.22725 0.32876 0.0
C364 C 0.52193 0.24078 0.312 0.0
C365 C 0.49791 0.29719 0.31324 0.0
C366 C 0.53603 0.34005 0.33128 0.0
C367 C 0.5984 0.32679 0.34807 0.0
H368 H 0.44966 0.30756 0.30026 0.0
H369 H 0.02917 0.14129 0.46431 0.0
H370 H 0.63493 0.79517 0.78119 0.0
H371 H 0.62957 0.82728 0.74194 0.0
H372 H 0.87738 0.84987 0.75559 0.0
H373 H 0.8832 0.81748 0.79464 0.0
H374 H 0.86031 0.97978 0.72623 0.0
H375 H 0.71454 0.68294 0.73634 0.0
H376 H 0.60631 0.54599 0.7482 0.0
H377 H 0.41205 0.60552 0.70486 0.0
H378 H 0.51922 0.74333 0.69296 0.0
H379 H 0.74087 0.85906 0.61011 0.0
H380 H 0.74744 0.8212 0.64937 0.0
H381 H 0.74268 0.04378 0.65069 0.0
H382 H 0.73802 0.08276 0.61177 0.0
H383 H 0.64217 0.78826 0.67299 0.0
H384 H 0.85529 0.11324 0.70002 0.0
H385 H 0.96818 0.24769 0.68877 0.0
H386 H 0.03685 0.12741 0.65834 0.0
H387 H 0.92586 -0.00797 0.66988 0.0
C388 C 0.68815 0.8067 0.77584 0.0
C389 C 0.75939 0.80356 0.79112 0.0
C390 C 0.68492 0.82487 0.75339 0.0
C391 C 0.75306 0.84084 0.74582 0.0
C392 C 0.82417 0.83796 0.76104 0.0
C393 C 0.82713 0.81901 0.7834 0.0
C394 C 0.75105 0.86153 0.72207 0.0
C395 C 0.81247 0.93805 0.71457 0.0
C396 C 0.68938 0.80665 0.70689 0.0
C397 C 0.62488 0.72372 0.71393 0.0
C398 C 0.64874 0.66707 0.72947 0.0
C399 C 0.5876 0.58924 0.73617 0.0
C400 C 0.50236 0.56715 0.72733 0.0
C401 C 0.4781 0.62276 0.71172 0.0
C402 C 0.53901 0.7007 0.70497 0.0
C403 C 0.74173 0.90019 0.61878 0.0
C404 C 0.73946 0.97427 0.60773 0.0
C405 C 0.74507 0.87825 0.64123 0.0
C406 C 0.74642 0.92996 0.65311 0.0
C407 C 0.74322 0.00344 0.64204 0.0
C408 C 0.74032 0.02558 0.61969 0.0
C409 C 0.75093 0.90715 0.67703 0.0
C410 C 0.68992 0.83026 0.68459 0.0
C411 C 0.81348 0.96154 0.69231 0.0
C412 C 0.88157 0.04252 0.68562 0.0
C413 C 0.89475 0.11541 0.69103 0.0
C414 C 0.95837 0.1918 0.68459 0.0
C415 C 1.00924 0.19614 0.67272 0.0
C416 C 0.99711 0.124 0.66744 0.0
C417 C 0.93389 0.0474 0.67394 0.0
H418 H 0.05826 0.25538 0.66769 0.0
H419 H 0.4551 0.50688 0.73255 0.0
H420 H 0.6943 0.67479 0.92917 0.0
H421 H 0.70876 0.64342 0.96866 0.0
H422 H 0.97573 0.73603 0.97863 0.0
H423 H 0.96096 0.76419 0.93916 0.0
H424 H 0.92218 0.60388 1.00492 0.0
H425 H 0.88178 0.84559 0.98668 0.0
H426 H 0.81009 0.93143 0.96767 0.0
H427 H 0.59296 0.75147 0.99263 0.0
H428 H 0.66317 0.66406 1.01166 0.0
H429 H 0.08567 0.70811 0.1108 0.0
H430 H 0.03865 0.71081 0.07144 0.0
H431 H 0.78178 0.55586 0.07692 0.0
H432 H 0.82889 0.55224 0.11697 0.0
H433 H 0.81057 0.70042 0.04338 0.0
H434 H 0.86706 0.46867 0.06566 0.0
H435 H 0.95054 0.39515 0.08622 0.0
H436 H 0.14978 0.5701 0.05417 0.0
H437 H 0.06826 0.64576 0.0337 0.0
C438 C 0.75618 0.68885 0.93978 0.0
C439 C 0.82655 0.72234 0.93099 0.0
C440 C 0.76444 0.67118 0.96241 0.0
C441 C 0.84357 0.68831 0.97679 0.0
C442 C 0.91389 0.722 0.96798 0.0
C443 C 0.90545 0.73842 0.94536 0.0
C444 C 0.85347 0.66997 1.00097 0.0
C445 C 0.8982 0.6257 1.01325 0.0
C446 C 0.82018 0.69603 1.012 0.0
C447 C 0.77739 0.74789 1.0004 0.0
C448 C 0.81848 0.82397 0.98797 0.0
C449 C 0.7782 0.87296 0.97723 0.0
C450 C 0.69706 0.84684 0.97894 0.0
C451 C 0.65586 0.77156 0.99134 0.0
C452 C 0.69589 0.72231 1.00212 0.0
C453 C 1.01897 0.67441 0.10379 0.0
C454 C 0.96088 0.62998 0.1171 0.0
C455 C 0.9923 0.67586 0.0812 0.0
C456 C 0.90685 0.63322 0.07124 0.0
C457 C 0.84812 0.58908 0.08434 0.0
C458 C 0.87506 0.58674 0.10717 0.0
C459 C 0.88069 0.63632 0.0471 0.0
C460 C 0.83311 0.67763 0.03488 0.0
C461 C 0.91251 0.60886 0.03612 0.0
C462 C 0.96157 0.5631 0.04821 0.0
C463 C 0.92892 0.49184 0.0631 0.0
C464 C 0.97591 0.44979 0.07473 0.0
C465 C 0.05549 0.47809 0.07153 0.0
C466 C 0.08817 0.54839 0.05664 0.0
C467 C 0.04155 0.59082 0.045 0.0
H468 H 0.09178 0.44545 0.08056 0.0
H469 H 0.66642 0.88523 0.97076 0.0
H470 H 0.10801 0.54176 0.26542 0.0
H471 H 0.17255 0.55329 0.30426 0.0
H472 H 0.34432 0.80903 0.28808 0.0
H473 H 0.28207 0.79714 0.2493 0.0
H474 H 0.42681 0.74109 0.31837 0.0
H475 H 0.16985 0.74758 0.3085 0.0
H476 H 1.01686 0.69972 0.29753 0.0
H477 H 0.97734 0.47511 0.34177 0.0
H478 H 0.13029 0.52141 0.35288 0.0
H479 H 0.55977 0.87682 0.42131 0.0
H480 H 0.49396 0.85374 0.38321 0.0
H481 H 0.35853 0.5925 0.40354 0.0
H482 H 0.42561 0.61459 0.44179 0.0
H483 H 0.25721 0.65666 0.37194 0.0
H484 H 0.52279 0.66182 0.38278 0.0
H485 H 0.67729 0.72135 0.39411 0.0
H486 H 0.70085 0.93765 0.34746 0.0
H487 H 0.54643 0.87979 0.33602 0.0
C488 C 0.15951 0.60045 0.27014 0.0
C489 C 0.1899 0.66854 0.25426 0.0
C490 C 0.19612 0.6071 0.29238 0.0
C491 C 0.26278 0.68237 0.29918 0.0
C492 C 0.29317 0.75026 0.28329 0.0
C493 C 0.25732 0.74339 0.26109 0.0
C494 C 0.30181 0.69057 0.32277 0.0
C495 C 0.38961 0.7234 0.32999 0.0
C496 C 0.25346 0.66616 0.33812 0.0
C497 C 0.16144 0.63765 0.33137 0.0
C498 C 0.1285 0.6877 0.31576 0.0
C499 C 0.04185 0.66094 0.30955 0.0
C500 C 0.98749 0.58446 0.31894 0.0
C501 C 1.0196 0.53438 0.33452 0.0
C502 C 0.10629 0.5609 0.34081 0.0
C503 C 0.5171 0.81418 0.41774 0.0
C504 C 0.49852 0.74747 0.43469 0.0
C505 C 0.47913 0.80121 0.39592 0.0
C506 C 0.42181 0.72132 0.39055 0.0
C507 C 0.40249 0.65465 0.40735 0.0
C508 C 0.44076 0.66748 0.42921 0.0
C509 C 0.38185 0.7077 0.36735 0.0
C510 C 0.29403 0.67378 0.36026 0.0
C511 C 0.43022 0.73237 0.35204 0.0
C512 C 0.52306 0.76671 0.35867 0.0
C513 C 0.56093 0.72228 0.37503 0.0
C514 C 0.64849 0.75569 0.38145 0.0
C515 C 0.69886 0.8333 0.37154 0.0
C516 C 0.66176 0.87755 0.35513 0.0
C517 C 0.57422 0.84442 0.34864 0.0
H518 H 0.76664 0.85909 0.37655 0.0
H519 H 0.92056 0.56435 0.31423 0.0
H520 H 0.94591 0.46322 0.80674 0.0
H521 H 0.93356 0.4217 0.77307 0.0
H522 H 0.02998 0.67597 0.74334 0.0
H523 H 0.04212 0.71788 0.7768 0.0
H524 H 0.87997 0.57106 0.7186 0.0
H525 H 0.14482 0.58313 0.75827 0.0
H526 H 0.2491 0.5521 0.78816 0.0
H527 H 0.11437 0.29922 0.77666 0.0
H528 H 1.00622 0.32722 0.74761 0.0
H529 H 0.90054 0.51149 0.6198 0.0
H530 H 0.93729 0.55841 0.65461 0.0
H531 H 0.86758 0.30897 0.68726 0.0
H532 H 0.83476 0.26207 0.65264 0.0
H533 H 1.00952 0.41467 0.71063 0.0
H534 H 0.73753 0.39865 0.67439 0.0
H535 H 0.63161 0.4279 0.64456 0.0
H536 H 0.78204 0.68706 0.64949 0.0
H537 H 0.8896 0.65949 0.67912 0.0
C538 C 0.96543 0.51028 0.7931 0.0
C539 C 0.99517 0.5938 0.79441 0.0
C540 C 0.95881 0.48654 0.77397 0.0
C541 C 0.98129 0.54582 0.75581 0.0
C542 C 1.01265 0.62937 0.75723 0.0
C543 C 1.02009 0.65324 0.7764 0.0
C544 C 0.96611 0.52018 0.7348 0.0
C545 C 0.90928 0.5379 0.71678 0.0
C546 C 1.00277 0.47491 0.73269 0.0
C547 C 0.06625 0.45715 0.75088 0.0
C548 C 0.13602 0.52037 0.76243 0.0
C549 C 0.19596 0.50328 0.77926 0.0
C550 C 0.18802 0.42358 0.78443 0.0
C551 C 0.12007 0.3608 0.77278 0.0
C552 C 0.05905 0.37711 0.75623 0.0
C553 C 0.89401 0.46665 0.6344 0.0
C554 C 0.86444 0.38289 0.63336 0.0
C555 C 0.9142 0.49349 0.65428 0.0
C556 C 0.9041 0.43706 0.67351 0.0
C557 C 0.87558 0.3536 0.67261 0.0
C558 C 0.85595 0.32674 0.65275 0.0
C559 C 0.92294 0.46503 0.69454 0.0
C560 C 0.98033 0.44778 0.71254 0.0
C561 C 0.88652 0.51032 0.69675 0.0
C562 C 0.82211 0.52705 0.67881 0.0
C563 C 0.74844 0.46195 0.66897 0.0
C564 C 0.68804 0.47823 0.65212 0.0
C565 C 0.70022 0.55931 0.64509 0.0
C566 C 0.77278 0.6243 0.65492 0.0
C567 C 0.83348 0.60838 0.67174 0.0
H568 H 0.65333 0.57176 0.63206 0.0
H569 H 0.23474 0.41056 0.79738 0.0
loop_
_geom_bond_atom_site_label_1
_geom_bond_atom_site_label_2
_geom_bond_distance
_geom_bond_site_symmetry_2
_ccdc_geom_bond_type
Gd0 C3 2.818 . S
Gd0 O20 2.377 1_655 S
Gd0 O22 2.448 . S
Gd0 O23 2.506 . S
Gd0 O24 2.435 . S
Gd0 O25 2.717 1_655 S
Gd0 O27 2.395 . S
Gd0 O31 2.327 . S
Gd1 C12 2.818 . S
Gd1 O21 2.395 . S
Gd1 O25 2.327 . S
Gd1 O26 2.377 1_455 S
Gd1 O28 2.448 . S
Gd1 O29 2.506 . S
Gd1 O30 2.435 . S
Gd1 O31 2.717 1_455 S
C2 O20 1.240 . S
C2 O21 1.240 . S
C3 Gd0 2.818 . S
C3 C4 1.510 . S
C3 O22 1.249 . S
C3 O23 1.252 . S
C4 C3 1.510 . S
C4 C5 1.404 . S
C4 C6 1.352 . S
C5 C4 1.404 . S
C5 C9 1.389 . S
C5 H32 0.930 . S
C6 C4 1.352 . S
C6 C8 1.374 . S
C6 H33 0.931 . S
C7 C8 1.359 . S
C7 C9 1.364 . S
C8 C6 1.374 . S
C8 C7 1.359 . S
C8 H34 0.931 . S
C9 C5 1.389 . S
C9 C7 1.364 . S
C9 H35 0.931 . S
C10 O24 1.256 . S
C10 O25 1.257 1_655 S
C11 O26 1.240 . S
C11 O27 1.240 . S
C12 Gd1 2.818 . S
C12 C13 1.510 . S
C12 O28 1.249 . S
C12 O29 1.252 . S
C13 C12 1.510 . S
C13 C14 1.404 . S
C13 C15 1.352 . S
C14 C13 1.404 . S
C14 C18 1.389 . S
C14 H36 0.930 . S
C15 C13 1.352 . S
C15 C17 1.374 . S
C15 H37 0.931 . S
C16 C17 1.359 . S
C16 C18 1.364 . S
C17 C15 1.374 . S
C17 C16 1.359 . S
C17 H38 0.931 . S
C18 C14 1.389 . S
C18 C16 1.364 . S
C18 H39 0.931 . S
C19 O30 1.256 . S
C19 O31 1.257 1_455 S
O20 Gd0 2.377 1_455 S
O20 C2 1.240 . S
O21 Gd1 2.395 . S
O21 C2 1.240 . S
O22 Gd0 2.448 . S
O22 C3 1.249 . S
O23 Gd0 2.506 . S
O23 C3 1.252 . S
O24 Gd0 2.435 . S
O24 C10 1.256 . S
O25 Gd0 2.717 1_455 S
O25 Gd1 2.327 . S
O25 C10 1.257 1_455 S
O26 Gd1 2.377 1_655 S
O26 C11 1.240 . S
O27 Gd0 2.395 . S
O27 C11 1.240 . S
O28 Gd1 2.448 . S
O28 C12 1.249 . S
O29 Gd1 2.506 . S
O29 C12 1.252 . S
O30 Gd1 2.435 . S
O30 C19 1.256 . S
O31 Gd0 2.327 . S
O31 Gd1 2.717 1_655 S
O31 C19 1.257 1_655 S
H32 C5 0.930 . S
H33 C6 0.931 . S
H34 C8 0.931 . S
H35 C9 0.931 . S
H36 C14 0.930 . S
H37 C15 0.931 . S
H38 C17 0.931 . S
H39 C18 0.931 . S
Gd40 C43 2.818 . S
Gd40 O60 2.377 . S
Gd40 O62 2.448 . S
Gd40 O63 2.506 . S
Gd40 O64 2.435 . S
Gd40 O65 2.717 1_545 S
Gd40 O67 2.395 . S
Gd40 O71 2.327 . S
Gd41 C52 2.818 . S
Gd41 O61 2.395 . S
Gd41 O65 2.327 . S
Gd41 O66 2.377 1_565 S
Gd41 O68 2.448 . S
Gd41 O69 2.506 . S
Gd41 O70 2.435 . S
Gd41 O71 2.717 1_565 S
C42 O60 1.240 1_565 S
C42 O61 1.240 . S
C43 Gd40 2.818 . S
C43 C44 1.510 . S
C43 O62 1.249 . S
C43 O63 1.252 . S
C44 C43 1.510 . S
C44 C45 1.404 . S
C44 C46 1.352 . S
C45 C44 1.404 . S
C45 C49 1.389 . S
C45 H72 0.930 . S
C46 C44 1.352 . S
C46 C48 1.374 . S
C46 H73 0.931 . S
C47 C48 1.359 . S
C47 C49 1.364 . S
C48 C46 1.374 . S
C48 C47 1.359 . S
C48 H74 0.931 . S
C49 C45 1.389 . S
C49 C47 1.364 . S
C49 H75 0.931 . S
C50 O64 1.256 . S
C50 O65 1.257 1_545 S
C51 O66 1.240 . S
C51 O67 1.240 . S
C52 Gd41 2.818 . S
C52 C53 1.510 . S
C52 O68 1.249 . S
C52 O69 1.252 . S
C53 C52 1.510 . S
C53 C54 1.404 . S
C53 C55 1.352 . S
C54 C53 1.404 . S
C54 C58 1.389 . S
C54 H76 0.930 . S
C55 C53 1.352 . S
C55 C57 1.374 . S
C55 H77 0.931 . S
C56 C57 1.359 . S
C56 C58 1.364 . S
C57 C55 1.374 . S
C57 C56 1.359 . S
C57 H78 0.931 . S
C58 C54 1.389 . S
C58 C56 1.364 . S
C58 H79 0.931 . S
C59 O70 1.256 . S
C59 O71 1.257 1_565 S
O60 Gd40 2.377 . S
O60 C42 1.240 1_545 S
O61 Gd41 2.395 . S
O61 C42 1.240 . S
O62 Gd40 2.448 . S
O62 C43 1.249 . S
O63 Gd40 2.506 . S
O63 C43 1.252 . S
O64 Gd40 2.435 . S
O64 C50 1.256 . S
O65 Gd40 2.717 1_565 S
O65 Gd41 2.327 . S
O65 C50 1.257 1_565 S
O66 Gd41 2.377 1_545 S
O66 C51 1.240 . S
O67 Gd40 2.395 . S
O67 C51 1.240 . S
O68 Gd41 2.448 . S
O68 C52 1.249 . S
O69 Gd41 2.506 . S
O69 C52 1.252 . S
O70 Gd41 2.435 . S
O70 C59 1.256 . S
O71 Gd40 2.327 . S
O71 Gd41 2.717 1_545 S
O71 C59 1.257 1_545 S
H72 C45 0.930 . S
H73 C46 0.931 . S
H74 C48 0.931 . S
H75 C49 0.931 . S
H76 C54 0.930 . S
H77 C55 0.931 . S
H78 C57 0.931 . S
H79 C58 0.931 . S
Gd80 C83 2.818 . S
Gd80 O100 2.377 . S
Gd80 O102 2.448 . S
Gd80 O103 2.506 . S
Gd80 O104 2.435 1_565 S
Gd80 O105 2.717 . S
Gd80 O107 2.395 . S
Gd80 O111 2.327 . S
Gd81 C92 2.818 . S
Gd81 O101 2.395 . S
Gd81 O105 2.327 . S
Gd81 O106 2.377 . S
Gd81 O108 2.448 . S
Gd81 O109 2.506 . S
Gd81 O110 2.435 . S
Gd81 O111 2.717 . S
C82 O100 1.240 . S
C82 O101 1.240 . S
C83 Gd80 2.818 . S
C83 C84 1.510 . S
C83 O102 1.249 . S
C83 O103 1.252 . S
C84 C83 1.510 . S
C84 C85 1.404 1_565 S
C84 C86 1.352 . S
C85 C84 1.404 1_545 S
C85 C89 1.389 . S
C85 H112 0.930 . S
C86 C84 1.352 . S
C86 C88 1.374 . S
C86 H113 0.931 . S
C87 C88 1.359 . S
C87 C89 1.364 1_565 S
C88 C86 1.374 . S
C88 C87 1.359 . S
C88 H114 0.931 . S
C89 C85 1.389 . S
C89 C87 1.364 1_545 S
C89 H115 0.931 . S
C90 O104 1.256 1_565 S
C90 O105 1.257 . S
C91 O106 1.240 . S
C91 O107 1.240 . S
C92 Gd81 2.818 . S
C92 C93 1.510 . S
C92 O108 1.249 . S
C92 O109 1.252 . S
C93 C92 1.510 . S
C93 C94 1.404 . S
C93 C95 1.352 . S
C94 C93 1.404 . S
C94 C98 1.389 . S
C94 H116 0.930 . S
C95 C93 1.352 . S
C95 C97 1.374 . S
C95 H117 0.931 . S
C96 C97 1.359 . S
C96 C98 1.364 . S
C97 C95 1.374 . S
C97 C96 1.359 . S
C97 H118 0.931 1_655 S
C98 C94 1.389 . S
C98 C96 1.364 . S
C98 H119 0.931 . S
C99 O110 1.256 . S
C99 O111 1.257 . S
O100 Gd80 2.377 . S
O100 C82 1.240 . S
O101 Gd81 2.395 . S
O101 C82 1.240 . S
O102 Gd80 2.448 . S
O102 C83 1.249 . S
O103 Gd80 2.506 . S
O103 C83 1.252 . S
O104 Gd80 2.435 1_545 S
O104 C90 1.256 1_545 S
O105 Gd80 2.717 . S
O105 Gd81 2.327 . S
O105 C90 1.257 . S
O106 Gd81 2.377 . S
O106 C91 1.240 . S
O107 Gd80 2.395 . S
O107 C91 1.240 . S
O108 Gd81 2.448 . S
O108 C92 1.249 . S
O109 Gd81 2.506 . S
O109 C92 1.252 . S
O110 Gd81 2.435 . S
O110 C99 1.256 . S
O111 Gd80 2.327 . S
O111 Gd81 2.717 . S
O111 C99 1.257 . S
H112 C85 0.930 . S
H113 C86 0.931 . S
H114 C88 0.931 . S
H115 C89 0.931 . S
H116 C94 0.930 . S
H117 C95 0.931 . S
H118 C97 0.931 1_455 S
H119 C98 0.931 . S
H120 C138 0.951 . S
H121 C140 0.951 . S
H122 C142 0.950 1_545 S
H123 C143 0.950 . S
H124 C145 0.950 . S
H125 C148 0.950 . S
H126 C149 0.950 1_455 S
H127 C151 0.950 . S
H128 C152 0.950 . S
H129 C153 0.951 . S
H130 C155 0.951 . S
H131 C157 0.950 . S
H132 C158 0.950 . S
H133 C160 0.950 . S
H134 C163 0.950 . S
H135 C164 0.950 1_655 S
H136 C166 0.950 . S
H137 C167 0.950 . S
C138 H120 0.951 . S
C138 C139 1.366 1_655 S
C138 C140 1.388 . S
C139 C138 1.366 1_455 S
C139 C143 1.385 . S
C140 H121 0.951 . S
C140 C138 1.388 . S
C140 C141 1.366 1_655 S
C141 C140 1.366 1_455 S
C141 C142 1.414 . S
C141 C144 1.499 1_565 S
C142 H122 0.950 1_565 S
C142 C141 1.414 . S
C142 C143 1.374 . S
C143 H123 0.950 . S
C143 C139 1.385 . S
C143 C142 1.374 . S
C144 C141 1.499 1_545 S
C144 C145 1.373 . S
C144 C146 1.389 1_455 S
C145 H124 0.950 . S
C145 C144 1.373 . S
C145 C161 1.377 . S
C146 C144 1.389 1_655 S
C146 C147 1.524 . S
C146 C160 1.377 . S
C147 C146 1.524 . S
C147 C148 1.397 1_655 S
C147 C152 1.363 . S
C148 H125 0.950 . S
C148 C147 1.397 1_455 S
C148 C149 1.334 1_455 S
C149 H126 0.950 1_655 S
C149 C148 1.334 1_655 S
C149 C150 1.287 . S
C150 C149 1.287 . S
C150 C151 1.524 . S
C150 H169 0.913 . S
C151 H127 0.950 . S
C151 C150 1.524 . S
C151 C152 1.415 . S
C152 H128 0.950 . S
C152 C147 1.363 . S
C152 C151 1.415 . S
C153 H129 0.951 . S
C153 C154 1.366 1_455 S
C153 C155 1.388 . S
C154 C153 1.366 1_655 S
C154 C158 1.385 . S
C155 H130 0.951 . S
C155 C153 1.388 . S
C155 C156 1.366 1_455 S
C156 C155 1.366 1_655 S
C156 C157 1.414 . S
C156 C159 1.499 . S
C157 H131 0.950 . S
C157 C156 1.414 . S
C157 C158 1.374 . S
C158 H132 0.950 . S
C158 C154 1.385 . S
C158 C157 1.374 . S
C159 C156 1.499 . S
C159 C160 1.373 . S
C159 C161 1.389 1_655 S
C160 H133 0.950 . S
C160 C146 1.377 . S
C160 C159 1.373 . S
C161 C145 1.377 . S
C161 C159 1.389 1_455 S
C161 C162 1.524 . S
C162 C161 1.524 . S
C162 C163 1.397 1_455 S
C162 C167 1.363 . S
C163 H134 0.950 . S
C163 C162 1.397 1_655 S
C163 C164 1.334 1_655 S
C164 H135 0.950 1_455 S
C164 C163 1.334 1_455 S
C164 C165 1.287 . S
C165 C164 1.287 . S
C165 C166 1.524 . S
C165 H168 0.999 . S
C166 H136 0.950 . S
C166 C165 1.524 . S
C166 C167 1.415 . S
C167 H137 0.950 . S
C167 C162 1.363 . S
C167 C166 1.415 . S
H168 C165 0.999 . S
H169 C150 0.913 . S
H170 C188 0.951 . S
H171 C190 0.951 . S
H172 C192 0.950 . S
H173 C193 0.950 . S
H174 C195 0.950 . S
H175 C198 0.950 . S
H176 C199 0.950 . S
H177 C201 0.950 . S
H178 C202 0.950 . S
H179 C203 0.951 . S
H180 C205 0.951 . S
H181 C207 0.950 . S
H182 C208 0.950 . S
H183 C210 0.950 . S
H184 C213 0.950 . S
H185 C214 0.950 . S
H186 C216 0.950 . S
H187 C217 0.950 . S
C188 H170 0.951 . S
C188 C189 1.366 1_565 S
C188 C190 1.388 . S
C189 C188 1.366 1_545 S
C189 C193 1.385 . S
C190 H171 0.951 . S
C190 C188 1.388 . S
C190 C191 1.364 1_565 S
C191 C190 1.364 1_545 S
C191 C192 1.413 . S
C191 C194 1.501 . S
C192 H172 0.950 . S
C192 C191 1.413 . S
C192 C193 1.374 . S
C193 H173 0.950 . S
C193 C189 1.385 . S
C193 C192 1.374 . S
C194 C191 1.501 . S
C194 C195 1.373 . S
C194 C196 1.389 1_545 S
C195 H174 0.950 . S
C195 C194 1.373 . S
C195 C211 1.377 . S
C196 C194 1.389 1_565 S
C196 C197 1.524 . S
C196 C210 1.377 . S
C197 C196 1.524 . S
C197 C198 1.397 . S
C197 C202 1.363 . S
C198 H175 0.950 . S
C198 C197 1.397 . S
C198 C199 1.334 . S
C199 H176 0.950 . S
C199 C198 1.334 . S
C199 C200 1.287 . S
C200 C199 1.287 . S
C200 C201 1.524 . S
C200 H219 0.913 . S
C201 H177 0.950 . S
C201 C200 1.524 . S
C201 C202 1.415 . S
C202 H178 0.950 . S
C202 C197 1.363 . S
C202 C201 1.415 . S
C203 H179 0.951 . S
C203 C204 1.366 . S
C203 C205 1.388 . S
C204 C203 1.366 . S
C204 C208 1.385 1_545 S
C205 H180 0.951 . S
C205 C203 1.388 . S
C205 C206 1.366 1_655 S
C206 C205 1.366 1_455 S
C206 C207 1.414 1_545 S
C206 C209 1.499 . S
C207 H181 0.950 . S
C207 C206 1.414 1_565 S
C207 C208 1.374 1_455 S
C208 H182 0.950 . S
C208 C204 1.385 1_565 S
C208 C207 1.374 1_655 S
C209 C206 1.499 . S
C209 C210 1.373 1_545 S
C209 C211 1.389 . S
C210 H183 0.950 . S
C210 C196 1.377 . S
C210 C209 1.373 1_565 S
C211 C195 1.377 . S
C211 C209 1.389 . S
C211 C212 1.524 . S
C212 C211 1.524 . S
C212 C213 1.397 . S
C212 C217 1.363 . S
C213 H184 0.950 . S
C213 C212 1.397 . S
C213 C214 1.334 . S
C214 H185 0.950 . S
C214 C213 1.334 . S
C214 C215 1.287 . S
C215 C214 1.287 . S
C215 C216 1.524 . S
C215 H218 0.999 . S
C216 H186 0.950 . S
C216 C215 1.524 . S
C216 C217 1.415 . S
C217 H187 0.950 . S
C217 C212 1.363 . S
C217 C216 1.415 . S
H218 C215 0.999 . S
H219 C200 0.913 . S
H220 C238 0.943 1_655 S
H221 C240 0.951 . S
H222 C242 0.950 . S
H223 C243 0.950 1_565 S
H224 C245 0.950 . S
H225 C248 0.950 . S
H226 C249 0.950 . S
H227 C251 0.950 . S
H228 C252 0.950 . S
H229 C253 0.951 . S
H230 C255 0.951 . S
H231 C257 0.950 . S
H232 C258 0.950 . S
H233 C260 0.950 . S
H234 C263 0.950 . S
H235 C264 0.950 . S
H236 C266 0.950 . S
H237 C267 0.950 . S
C238 H220 0.943 1_455 S
C238 C239 1.369 1_455 S
C238 C240 1.392 . S
C239 C238 1.369 1_655 S
C239 C243 1.385 1_655 S
C240 H221 0.951 . S
C240 C238 1.392 . S
C240 C241 1.366 . S
C241 C240 1.366 . S
C241 C242 1.414 . S
C241 C244 1.499 . S
C242 H222 0.950 . S
C242 C241 1.414 . S
C242 C243 1.374 . S
C243 H223 0.950 1_545 S
C243 C239 1.385 1_455 S
C243 C242 1.374 . S
C244 C241 1.499 . S
C244 C245 1.373 . S
C244 C246 1.389 . S
C245 H224 0.950 . S
C245 C244 1.373 . S
C245 C261 1.377 . S
C246 C244 1.389 . S
C246 C247 1.524 . S
C246 C260 1.377 . S
C247 C246 1.524 . S
C247 C248 1.397 . S
C247 C252 1.363 . S
C248 H225 0.950 . S
C248 C247 1.397 . S
C248 C249 1.334 1_455 S
C249 H226 0.950 . S
C249 C248 1.334 1_655 S
C249 C250 1.287 . S
C250 C249 1.287 . S
C250 C251 1.524 1_655 S
C250 H269 0.913 . S
C251 H227 0.950 . S
C251 C250 1.524 1_455 S
C251 C252 1.415 . S
C252 H228 0.950 . S
C252 C247 1.363 . S
C252 C251 1.415 . S
C253 H229 0.951 . S
C253 C254 1.366 . S
C253 C255 1.388 . S
C254 C253 1.366 . S
C254 C258 1.385 . S
C255 H230 0.951 . S
C255 C253 1.388 . S
C255 C256 1.366 . S
C256 C255 1.366 . S
C256 C257 1.414 . S
C256 C259 1.499 . S
C257 H231 0.950 . S
C257 C256 1.414 . S
C257 C258 1.374 . S
C258 H232 0.950 . S
C258 C254 1.385 . S
C258 C257 1.374 . S
C259 C256 1.499 . S
C259 C260 1.373 . S
C259 C261 1.389 . S
C260 H233 0.950 . S
C260 C246 1.377 . S
C260 C259 1.373 . S
C261 C245 1.377 . S
C261 C259 1.389 . S
C261 C262 1.524 . S
C262 C261 1.524 . S
C262 C263 1.397 . S
C262 C267 1.363 . S
C263 H234 0.950 . S
C263 C262 1.397 . S
C263 C264 1.334 . S
C264 H235 0.950 . S
C264 C263 1.334 . S
C264 C265 1.287 . S
C265 C264 1.287 . S
C265 C266 1.524 . S
C265 H268 0.999 . S
C266 H236 0.950 . S
C266 C265 1.524 . S
C266 C267 1.415 . S
C267 H237 0.950 . S
C267 C262 1.363 . S
C267 C266 1.415 . S
H268 C265 0.999 . S
H269 C250 0.913 . S
H270 C288 0.951 . S
H271 C290 0.951 . S
H272 C292 0.950 . S
H273 C293 0.950 . S
H274 C295 0.950 . S
H275 C298 0.950 1_545 S
H276 C299 0.950 1_545 S
H277 C301 0.950 . S
H278 C302 0.950 . S
H279 C303 0.951 . S
H280 C305 0.951 . S
H281 C307 0.950 . S
H282 C308 0.950 . S
H283 C310 0.950 . S
H284 C313 0.950 . S
H285 C314 0.950 . S
H286 C316 0.950 . S
H287 C317 0.950 . S
C288 H270 0.951 . S
C288 C289 1.366 . S
C288 C290 1.388 . S
C289 C288 1.366 . S
C289 C293 1.385 1_565 S
C290 H271 0.951 . S
C290 C288 1.388 . S
C290 C291 1.366 . S
C291 C290 1.366 . S
C291 C292 1.414 1_565 S
C291 C294 1.499 . S
C292 H272 0.950 . S
C292 C291 1.414 1_545 S
C292 C293 1.374 . S
C293 H273 0.950 . S
C293 C289 1.385 1_545 S
C293 C292 1.374 . S
C294 C291 1.499 . S
C294 C295 1.373 . S
C294 C296 1.389 . S
C295 H274 0.950 . S
C295 C294 1.373 . S
C295 C311 1.377 1_556 S
C296 C294 1.389 . S
C296 C297 1.524 . S
C296 C310 1.377 . S
C297 C296 1.524 . S
C297 C298 1.397 . S
C297 C302 1.363 . S
C298 H275 0.950 1_565 S
C298 C297 1.397 . S
C298 C299 1.334 . S
C299 H276 0.950 1_565 S
C299 C298 1.334 . S
C299 C300 1.287 . S
C300 C299 1.287 . S
C300 C301 1.524 . S
C300 H319 0.913 . S
C301 H277 0.950 . S
C301 C300 1.524 . S
C301 C302 1.415 . S
C302 H278 0.950 . S
C302 C297 1.363 . S
C302 C301 1.415 . S
C303 H279 0.951 . S
C303 C304 1.366 . S
C303 C305 1.388 . S
C304 C303 1.366 . S
C304 C308 1.385 . S
C305 H280 0.951 . S
C305 C303 1.388 . S
C305 C306 1.366 . S
C306 C305 1.366 . S
C306 C307 1.414 . S
C306 C309 1.544 . S
C307 H281 0.950 . S
C307 C306 1.414 . S
C307 C308 1.374 . S
C308 H282 0.950 . S
C308 C304 1.385 . S
C308 C307 1.374 . S
C309 C306 1.544 . S
C309 C310 1.330 1_554 S
C309 C311 1.387 . S
C310 H283 0.950 . S
C310 C296 1.377 . S
C310 C309 1.330 1_556 S
C311 C295 1.377 1_554 S
C311 C309 1.387 . S
C311 C312 1.524 . S
C312 C311 1.524 . S
C312 C313 1.397 . S
C312 C317 1.363 1_565 S
C313 H284 0.950 . S
C313 C312 1.397 . S
C313 C314 1.334 . S
C314 H285 0.950 . S
C314 C313 1.334 . S
C314 C315 1.287 . S
C315 C314 1.287 . S
C315 C316 1.524 1_565 S
C315 H318 0.999 . S
C316 H286 0.950 . S
C316 C315 1.524 1_545 S
C316 C317 1.415 . S
C317 H287 0.950 . S
C317 C312 1.363 1_545 S
C317 C316 1.415 . S
H318 C315 0.999 . S
H319 C300 0.913 . S
H320 C338 0.951 . S
H321 C340 0.951 . S
H322 C342 0.950 . S
H323 C343 0.950 . S
H324 C345 0.950 . S
H325 C348 0.950 . S
H326 C349 0.952 . S
H327 C351 0.950 . S
H328 C352 0.950 . S
H329 C353 0.951 . S
H330 C355 0.951 . S
H331 C357 0.950 . S
H332 C358 0.950 . S
H333 C360 0.950 . S
H334 C363 0.950 . S
H335 C364 0.950 . S
H336 C366 0.950 . S
H337 C367 0.950 . S
C338 H320 0.951 . S
C338 C339 1.366 . S
C338 C340 1.388 . S
C339 C338 1.366 . S
C339 C343 1.385 . S
C340 H321 0.951 . S
C340 C338 1.388 . S
C340 C341 1.366 . S
C341 C340 1.366 . S
C341 C342 1.414 . S
C341 C344 1.499 . S
C342 H322 0.950 . S
C342 C341 1.414 . S
C342 C343 1.374 . S
C343 H323 0.950 . S
C343 C339 1.385 . S
C343 C342 1.374 . S
C344 C341 1.499 . S
C344 C345 1.373 . S
C344 C346 1.389 . S
C345 H324 0.950 . S
C345 C344 1.373 . S
C345 C361 1.377 . S
C346 C344 1.389 . S
C346 C347 1.524 . S
C346 C360 1.377 . S
C347 C346 1.524 . S
C347 C348 1.397 . S
C347 C352 1.363 . S
C348 H325 0.950 . S
C348 C347 1.397 . S
C348 C349 1.334 . S
C349 H326 0.952 . S
C349 C348 1.334 . S
C349 C350 1.287 . S
C350 C349 1.287 . S
C350 C351 1.524 . S
C350 H369 0.913 1_655 S
C351 H327 0.950 . S
C351 C350 1.524 . S
C351 C352 1.415 . S
C352 H328 0.950 . S
C352 C347 1.363 . S
C352 C351 1.415 . S
C353 H329 0.951 . S
C353 C354 1.366 . S
C353 C355 1.388 . S
C354 C353 1.366 . S
C354 C358 1.385 . S
C355 H330 0.951 . S
C355 C353 1.388 . S
C355 C356 1.366 . S
C356 C355 1.366 . S
C356 C357 1.414 . S
C356 C359 1.499 . S
C357 H331 0.950 . S
C357 C356 1.414 . S
C357 C358 1.374 . S
C358 H332 0.950 . S
C358 C354 1.385 . S
C358 C357 1.374 . S
C359 C356 1.499 . S
C359 C360 1.373 . S
C359 C361 1.389 . S
C360 H333 0.950 . S
C360 C346 1.377 . S
C360 C359 1.373 . S
C361 C345 1.377 . S
C361 C359 1.389 . S
C361 C362 1.524 . S
C362 C361 1.524 . S
C362 C363 1.397 . S
C362 C367 1.363 . S
C363 H334 0.950 . S
C363 C362 1.397 . S
C363 C364 1.334 . S
C364 H335 0.950 . S
C364 C363 1.334 . S
C364 C365 1.287 . S
C365 C364 1.287 . S
C365 C366 1.524 . S
C365 H368 0.999 . S
C366 H336 0.950 . S
C366 C365 1.524 . S
C366 C367 1.415 . S
C367 H337 0.950 . S
C367 C362 1.363 . S
C367 C366 1.415 . S
H368 C365 0.999 . S
H369 C350 0.913 1_455 S
H370 C388 0.951 . S
H371 C390 0.951 . S
H372 C392 0.950 . S
H373 C393 0.950 . S
H374 C395 0.950 1_545 S
H375 C398 0.950 . S
H376 C399 0.950 . S
H377 C401 0.950 . S
H378 C402 0.950 . S
H379 C403 0.951 . S
H380 C405 0.951 . S
H381 C407 0.950 . S
H382 C408 0.950 . S
H383 C410 0.950 . S
H384 C413 0.950 . S
H385 C414 0.950 . S
H386 C416 0.950 . S
H387 C417 0.950 . S
C388 H370 0.951 . S
C388 C389 1.366 . S
C388 C390 1.388 . S
C389 C388 1.366 . S
C389 C393 1.385 . S
C390 H371 0.951 . S
C390 C388 1.388 . S
C390 C391 1.366 . S
C391 C390 1.366 . S
C391 C392 1.414 . S
C391 C394 1.499 . S
C392 H372 0.950 . S
C392 C391 1.414 . S
C392 C393 1.374 . S
C393 H373 0.950 . S
C393 C389 1.385 . S
C393 C392 1.374 . S
C394 C391 1.499 . S
C394 C395 1.373 . S
C394 C396 1.389 . S
C395 H374 0.950 1_565 S
C395 C394 1.373 . S
C395 C411 1.377 . S
C396 C394 1.389 . S
C396 C397 1.524 . S
C396 C410 1.377 . S
C397 C396 1.524 . S
C397 C398 1.397 . S
C397 C402 1.363 . S
C398 H375 0.950 . S
C398 C397 1.397 . S
C398 C399 1.334 . S
C399 H376 0.950 . S
C399 C398 1.334 . S
C399 C400 1.287 . S
C400 C399 1.287 . S
C400 C401 1.524 . S
C400 H419 0.913 . S
C401 H377 0.950 . S
C401 C400 1.524 . S
C401 C402 1.415 . S
C402 H378 0.950 . S
C402 C397 1.363 . S
C402 C401 1.415 . S
C403 H379 0.951 . S
C403 C404 1.366 . S
C403 C405 1.388 . S
C404 C403 1.366 . S
C404 C408 1.385 . S
C405 H380 0.951 . S
C405 C403 1.388 . S
C405 C406 1.366 . S
C406 C405 1.366 . S
C406 C407 1.414 . S
C406 C409 1.499 . S
C407 H381 0.950 . S
C407 C406 1.414 . S
C407 C408 1.374 . S
C408 H382 0.950 . S
C408 C404 1.385 . S
C408 C407 1.374 . S
C409 C406 1.499 . S
C409 C410 1.373 . S
C409 C411 1.389 . S
C410 H383 0.950 . S
C410 C396 1.377 . S
C410 C409 1.373 . S
C411 C395 1.377 . S
C411 C409 1.389 . S
C411 C412 1.524 1_565 S
C412 C411 1.524 1_545 S
C412 C413 1.397 . S
C412 C417 1.363 . S
C413 H384 0.950 . S
C413 C412 1.397 . S
C413 C414 1.334 . S
C414 H385 0.950 . S
C414 C413 1.334 . S
C414 C415 1.287 . S
C415 C414 1.287 . S
C415 C416 1.524 . S
C415 H418 0.999 . S
C416 H386 0.950 . S
C416 C415 1.524 . S
C416 C417 1.415 . S
C417 H387 0.950 . S
C417 C412 1.363 . S
C417 C416 1.415 . S
H418 C415 0.999 . S
H419 C400 0.913 . S
H420 C438 0.951 . S
H421 C440 0.951 . S
H422 C442 0.950 . S
H423 C443 0.950 . S
H424 C445 0.950 . S
H425 C448 0.938 1_455 S
H426 C449 0.950 1_545 S
H427 C451 0.950 . S
H428 C452 0.950 . S
H429 C453 0.951 . S
H430 C455 0.951 . S
H431 C457 0.950 . S
H432 C458 0.950 . S
H433 C460 0.950 . S
H434 C463 0.950 . S
H435 C464 0.950 . S
H436 C466 0.950 . S
H437 C467 0.965 . S
C438 H420 0.951 . S
C438 C439 1.366 . S
C438 C440 1.388 . S
C439 C438 1.366 . S
C439 C443 1.385 . S
C440 H421 0.951 . S
C440 C438 1.388 . S
C440 C441 1.366 . S
C441 C440 1.366 . S
C441 C442 1.414 . S
C441 C444 1.499 . S
C442 H422 0.950 . S
C442 C441 1.414 . S
C442 C443 1.374 . S
C443 H423 0.950 . S
C443 C439 1.385 . S
C443 C442 1.374 . S
C444 C441 1.499 . S
C444 C445 1.373 . S
C444 C446 1.389 . S
C445 H424 0.950 . S
C445 C444 1.373 . S
C445 C461 1.377 1_556 S
C446 C444 1.389 . S
C446 C447 1.524 . S
C446 C460 1.377 1_556 S
C447 C446 1.524 . S
C447 C448 1.397 . S
C447 C452 1.363 . S
C448 H425 0.938 1_655 S
C448 C447 1.397 . S
C448 C449 1.334 1_655 S
C449 H426 0.950 1_565 S
C449 C448 1.334 1_455 S
C449 C450 1.287 1_465 S
C450 C449 1.287 1_645 S
C450 C451 1.524 . S
C450 H469 0.913 . S
C451 H427 0.950 . S
C451 C450 1.524 . S
C451 C452 1.415 1_545 S
C452 H428 0.950 . S
C452 C447 1.363 . S
C452 C451 1.415 1_565 S
C453 H429 0.951 . S
C453 C454 1.366 . S
C453 C455 1.388 . S
C454 C453 1.366 . S
C454 C458 1.385 . S
C455 H430 0.951 . S
C455 C453 1.388 . S
C455 C456 1.366 . S
C456 C455 1.366 . S
C456 C457 1.414 . S
C456 C459 1.499 . S
C457 H431 0.950 . S
C457 C456 1.414 . S
C457 C458 1.374 . S
C458 H432 0.950 . S
C458 C454 1.385 . S
C458 C457 1.374 . S
C459 C456 1.499 . S
C459 C460 1.373 . S
C459 C461 1.389 . S
C460 H433 0.950 . S
C460 C446 1.377 1_554 S
C460 C459 1.373 . S
C461 C445 1.377 1_554 S
C461 C459 1.389 . S
C461 C462 1.524 . S
C462 C461 1.524 . S
C462 C463 1.397 . S
C462 C467 1.363 . S
C463 H434 0.950 . S
C463 C462 1.397 . S
C463 C464 1.334 . S
C464 H435 0.950 . S
C464 C463 1.334 . S
C464 C465 1.287 . S
C465 C464 1.287 . S
C465 C466 1.524 . S
C465 H468 0.999 . S
C466 H436 0.950 . S
C466 C465 1.524 . S
C466 C467 1.415 . S
C467 H437 0.965 . S
C467 C462 1.363 . S
C467 C466 1.415 . S
H468 C465 0.999 . S
H469 C450 0.913 . S
H470 C488 0.951 . S
H471 C490 0.951 . S
H472 C492 0.950 . S
H473 C493 0.950 . S
H474 C495 0.950 . S
H475 C498 0.950 . S
H476 C499 0.950 . S
H477 C501 0.950 1_655 S
H478 C502 0.950 . S
H479 C503 0.951 . S
H480 C505 0.951 . S
H481 C507 0.950 . S
H482 C508 0.950 . S
H483 C510 0.950 . S
H484 C513 0.950 . S
H485 C514 0.950 . S
H486 C516 0.950 . S
H487 C517 0.950 . S
C488 H470 0.951 . S
C488 C489 1.366 . S
C488 C490 1.388 . S
C489 C488 1.366 . S
C489 C493 1.385 . S
C490 H471 0.951 . S
C490 C488 1.388 . S
C490 C491 1.366 . S
C491 C490 1.366 . S
C491 C492 1.414 . S
C491 C494 1.499 . S
C492 H472 0.950 . S
C492 C491 1.414 . S
C492 C493 1.374 . S
C493 H473 0.950 . S
C493 C489 1.385 . S
C493 C492 1.374 . S
C494 C491 1.499 . S
C494 C495 1.373 . S
C494 C496 1.389 . S
C495 H474 0.950 . S
C495 C494 1.373 . S
C495 C511 1.377 . S
C496 C494 1.389 . S
C496 C497 1.524 . S
C496 C510 1.377 . S
C497 C496 1.524 . S
C497 C498 1.397 . S
C497 C502 1.363 . S
C498 H475 0.950 . S
C498 C497 1.397 . S
C498 C499 1.334 . S
C499 H476 0.950 . S
C499 C498 1.334 . S
C499 C500 1.287 . S
C500 C499 1.287 . S
C500 C501 1.524 . S
C500 H519 0.913 1_455 S
C501 H477 0.950 1_455 S
C501 C500 1.524 . S
C501 C502 1.415 . S
C502 H478 0.950 . S
C502 C497 1.363 . S
C502 C501 1.415 . S
C503 H479 0.951 . S
C503 C504 1.366 . S
C503 C505 1.388 . S
C504 C503 1.366 . S
C504 C508 1.385 . S
C505 H480 0.951 . S
C505 C503 1.388 . S
C505 C506 1.366 . S
C506 C505 1.366 . S
C506 C507 1.414 . S
C506 C509 1.499 . S
C507 H481 0.950 . S
C507 C506 1.414 . S
C507 C508 1.374 . S
C508 H482 0.950 . S
C508 C504 1.385 . S
C508 C507 1.374 . S
C509 C506 1.499 . S
C509 C510 1.373 . S
C509 C511 1.389 . S
C510 H483 0.950 . S
C510 C496 1.377 . S
C510 C509 1.373 . S
C511 C495 1.377 . S
C511 C509 1.389 . S
C511 C512 1.524 . S
C512 C511 1.524 . S
C512 C513 1.397 . S
C512 C517 1.363 . S
C513 H484 0.950 . S
C513 C512 1.397 . S
C513 C514 1.334 . S
C514 H485 0.950 . S
C514 C513 1.334 . S
C514 C515 1.287 . S
C515 C514 1.287 . S
C515 C516 1.524 . S
C515 H518 0.999 . S
C516 H486 0.950 . S
C516 C515 1.524 . S
C516 C517 1.415 . S
C517 H487 0.950 . S
C517 C512 1.363 . S
C517 C516 1.415 . S
H518 C515 0.999 . S
H519 C500 0.913 1_655 S
H520 C538 0.951 . S
H521 C540 0.951 . S
H522 C542 0.950 . S
H523 C543 0.950 1_455 S
H524 C545 0.950 . S
H525 C548 0.950 . S
H526 C549 0.950 . S
H527 C551 0.950 . S
H528 C552 0.950 . S
H529 C553 0.951 . S
H530 C555 0.951 . S
H531 C557 0.950 . S
H532 C558 0.950 . S
H533 C560 0.950 . S
H534 C563 0.950 . S
H535 C564 0.950 . S
H536 C566 0.950 . S
H537 C567 0.950 . S
C538 H520 0.951 . S
C538 C539 1.366 . S
C538 C540 1.388 . S
C539 C538 1.366 . S
C539 C543 1.385 . S
C540 H521 0.951 . S
C540 C538 1.388 . S
C540 C541 1.366 . S
C541 C540 1.366 . S
C541 C542 1.414 . S
C541 C544 1.499 . S
C542 H522 0.950 . S
C542 C541 1.414 . S
C542 C543 1.374 . S
C543 H523 0.950 1_655 S
C543 C539 1.385 . S
C543 C542 1.374 . S
C544 C541 1.499 . S
C544 C545 1.373 . S
C544 C546 1.389 . S
C545 H524 0.950 . S
C545 C544 1.373 . S
C545 C561 1.377 . S
C546 C544 1.389 . S
C546 C547 1.524 1_655 S
C546 C560 1.377 . S
C547 C546 1.524 1_455 S
C547 C548 1.397 . S
C547 C552 1.363 1_455 S
C548 H525 0.950 . S
C548 C547 1.397 . S
C548 C549 1.334 . S
C549 H526 0.950 . S
C549 C548 1.334 . S
C549 C550 1.287 . S
C550 C549 1.287 . S
C550 C551 1.524 . S
C550 H569 0.913 . S
C551 H527 0.950 . S
C551 C550 1.524 . S
C551 C552 1.415 1_455 S
C552 H528 0.950 . S
C552 C547 1.363 1_655 S
C552 C551 1.415 1_655 S
C553 H529 0.951 . S
C553 C554 1.366 . S
C553 C555 1.388 . S
C554 C553 1.366 . S
C554 C558 1.385 . S
C555 H530 0.951 . S
C555 C553 1.388 . S
C555 C556 1.366 . S
C556 C555 1.366 . S
C556 C557 1.414 . S
C556 C559 1.499 . S
C557 H531 0.950 . S
C557 C556 1.414 . S
C557 C558 1.374 . S
C558 H532 0.950 . S
C558 C554 1.385 . S
C558 C557 1.374 . S
C559 C556 1.499 . S
C559 C560 1.373 . S
C559 C561 1.389 . S
C560 H533 0.950 . S
C560 C546 1.377 . S
C560 C559 1.373 . S
C561 C545 1.377 . S
C561 C559 1.389 . S
C561 C562 1.524 . S
C562 C561 1.524 . S
C562 C563 1.397 . S
C562 C567 1.363 . S
C563 H534 0.950 . S
C563 C562 1.397 . S
C563 C564 1.334 . S
C564 H535 0.950 . S
C564 C563 1.334 . S
C564 C565 1.287 . S
C565 C564 1.287 . S
C565 C566 1.524 . S
C565 H568 0.999 . S
C566 H536 0.950 . S
C566 C565 1.524 . S
C566 C567 1.415 . S
C567 H537 0.950 . S
C567 C562 1.363 . S
C567 C566 1.415 . S
H568 C565 0.999 . S
H569 C550 0.913 . S
C139 C10 1.302 1_455 S
C154 C19 1.302 1_655 S
C189 C59 1.403 1_545 S
C204 C50 1.403 . S
C239 C90 1.172 1_545 S
C254 C99 1.172 . S
C289 C87 0.912 . S
C304 C16 0.916 . S
C339 C51 1.882 . S
C354 C7 1.845 . S
C389 C91 2.298 . S
C404 C42 2.293 . S
C439 C82 2.192 . S
C454 C11 2.169 . S
C489 C2 1.437 . S
C504 C56 1.394 . S
C539 C96 0.906 . S
C554 C47 0.908 . S
