# Generated by pormake.
# Topology ske, (6)-cn, num edge types: 1
# Building blocks:
#     Node 0, Type 0, BuildingBlock: UKALOJ_clean_sbu_0, # of connection points: 6
#     Node 1, Type 0, BuildingBlock: UKALOJ_clean_sbu_0, # of connection points: 6
#     Node 2, Type 0, BuildingBlock: UKALOJ_clean_sbu_0, # of connection points: 6
#     Node 3, Type 0, BuildingBlock: UKALOJ_clean_sbu_0, # of connection points: 6
#     Node 4, Type 0, BuildingBlock: UKALOJ_clean_sbu_0, # of connection points: 6
#     Node 5, Type 0, BuildingBlock: UKALOJ_clean_sbu_0, # of connection points: 6
#     Node 6, Type 0, BuildingBlock: UKALOJ_clean_sbu_0, # of connection points: 6
#     Node 7, Type 0, BuildingBlock: UKALOJ_clean_sbu_0, # of connection points: 6
#     Edge 8, Type (0, 0), BuildingBlock: OJICUG_clean_linker_0, # of connection points: 2
#     Edge 9, Type (0, 0), BuildingBlock: OJICUG_clean_linker_0, # of connection points: 2
#     Edge 10, Type (0, 0), BuildingBlock: OJICUG_clean_linker_0, # of connection points: 2
#     Edge 11, Type (0, 0), BuildingBlock: OJICUG_clean_linker_0, # of connection points: 2
#     Edge 12, Type (0, 0), BuildingBlock: OJICUG_clean_linker_0, # of connection points: 2
#     Edge 13, Type (0, 0), BuildingBlock: OJICUG_clean_linker_0, # of connection points: 2
#     Edge 14, Type (0, 0), BuildingBlock: OJICUG_clean_linker_0, # of connection points: 2
#     Edge 15, Type (0, 0), BuildingBlock: OJICUG_clean_linker_0, # of connection points: 2
#     Edge 16, Type (0, 0), BuildingBlock: OJICUG_clean_linker_0, # of connection points: 2
#     Edge 17, Type (0, 0), BuildingBlock: OJICUG_clean_linker_0, # of connection points: 2
#     Edge 18, Type (0, 0), BuildingBlock: OJICUG_clean_linker_0, # of connection points: 2
#     Edge 19, Type (0, 0), BuildingBlock: OJICUG_clean_linker_0, # of connection points: 2
#     Edge 20, Type (0, 0), BuildingBlock: OJICUG_clean_linker_0, # of connection points: 2
#     Edge 21, Type (0, 0), BuildingBlock: OJICUG_clean_linker_0, # of connection points: 2
#     Edge 22, Type (0, 0), BuildingBlock: OJICUG_clean_linker_0, # of connection points: 2
#     Edge 23, Type (0, 0), BuildingBlock: OJICUG_clean_linker_0, # of connection points: 2
#     Edge 24, Type (0, 0), BuildingBlock: OJICUG_clean_linker_0, # of connection points: 2
#     Edge 25, Type (0, 0), BuildingBlock: OJICUG_clean_linker_0, # of connection points: 2
#     Edge 26, Type (0, 0), BuildingBlock: OJICUG_clean_linker_0, # of connection points: 2
#     Edge 27, Type (0, 0), BuildingBlock: OJICUG_clean_linker_0, # of connection points: 2
#     Edge 28, Type (0, 0), BuildingBlock: OJICUG_clean_linker_0, # of connection points: 2
#     Edge 29, Type (0, 0), BuildingBlock: OJICUG_clean_linker_0, # of connection points: 2
#     Edge 30, Type (0, 0), BuildingBlock: OJICUG_clean_linker_0, # of connection points: 2
#     Edge 31, Type (0, 0), BuildingBlock: OJICUG_clean_linker_0, # of connection points: 2
# Relax obj value: 0.068
# Max RMSD: 0.117
# Mean RMSD: 0.117
data_MOF--net-ske--node1-UKALOJ_clean_sbu_0--edge1-OJICUG_clean_linker_0
_symmetry_space_group_name_H-M    P1
_symmetry_Int_Tables_number       1
_symmetry_cell_setting            triclinic
loop_
_symmetry_equiv_pos_as_xyz
'x, y, z'
_cell_length_a     42.74957
_cell_length_b     32.381935
_cell_length_c     11.178897
_cell_angle_alpha  89.995616
_cell_angle_beta   90.007238
_cell_angle_gamma 89.988429
loop_
_atom_site_label
_atom_site_type_symbol
_atom_site_fract_x
_atom_site_fract_y
_atom_site_fract_z
_atom_type_partial_charge
Zn0 Zn 0.12931 0.30457 0.53844 0.0
O1 O 0.12385 0.30922 0.7259 0.0
C2 C 0.19165 0.27713 0.58285 0.0
Zn3 Zn 0.12853 0.23584 0.53733 0.0
C4 C 0.12243 0.27485 0.78138 0.0
O5 O 0.12246 0.24126 0.72263 0.0
C6 C 0.13574 0.26567 0.29414 0.0
O7 O 0.07949 0.23057 0.51353 0.0
O8 O 0.08096 0.29816 0.51823 0.0
N9 N 0.13379 0.1732 0.55931 0.0
C10 C 0.12336 0.13916 0.50191 0.0
C11 C 0.1547 0.11898 0.63824 0.0
N12 N 0.15303 0.16039 0.64443 0.0
N13 N 0.13617 0.10474 0.55004 0.0
C14 C 0.13388 0.40318 0.53756 0.0
C15 C 0.10008 0.41293 0.39992 0.0
N16 N 0.12284 0.36578 0.50488 0.0
N17 N 0.10206 0.37224 0.41907 0.0
N18 N 0.11989 0.43324 0.47234 0.0
H19 H 0.15856 0.38269 0.6946 0.0
H20 H 0.15154 0.43807 0.68644 0.0
H21 H 0.18079 0.41451 0.59328 0.0
C22 C 0.15743 0.40992 0.63447 0.0
C23 C 0.10225 0.13972 0.39503 0.0
H24 H 0.0977 0.17158 0.3638 0.0
H25 H 0.07959 0.12521 0.41891 0.0
H26 H 0.11279 0.12125 0.32175 0.0
O27 O 0.13481 0.23148 0.34975 0.0
O28 O 0.135 0.29902 0.35308 0.0
C29 C 0.06536 0.2651 0.50926 0.0
O30 O 0.17725 0.31087 0.5643 0.0
O31 O 0.17739 0.24297 0.56788 0.0
Zn32 Zn 0.86775 0.30609 0.53735 0.0
O33 O 0.91678 0.31177 0.51357 0.0
C34 C 0.86063 0.27612 0.2941 0.0
Zn35 Zn 0.86716 0.23735 0.53835 0.0
C36 C 0.93099 0.27729 0.50928 0.0
O37 O 0.91546 0.24418 0.51824 0.0
C38 C 0.80475 0.2643 0.58273 0.0
O39 O 0.87262 0.23283 0.72584 0.0
O40 O 0.87384 0.30079 0.72265 0.0
N41 N 0.87393 0.17618 0.50515 0.0
C42 C 0.86275 0.13878 0.53701 0.0
C43 C 0.89706 0.12908 0.40127 0.0
N44 N 0.89504 0.16976 0.42051 0.0
N45 N 0.87696 0.10873 0.47243 0.0
C46 C 0.87281 0.4028 0.5025 0.0
C47 C 0.84075 0.42279 0.63652 0.0
N48 N 0.86217 0.36869 0.55898 0.0
N49 N 0.84247 0.38138 0.64267 0.0
N50 N 0.85969 0.43715 0.54978 0.0
H51 H 0.89812 0.37068 0.36297 0.0
H52 H 0.9176 0.41484 0.42554 0.0
H53 H 0.88532 0.42253 0.32556 0.0
C54 C 0.89458 0.40234 0.39758 0.0
C55 C 0.83881 0.13202 0.63249 0.0
H56 H 0.83772 0.15905 0.6934 0.0
H57 H 0.84426 0.1036 0.68391 0.0
H58 H 0.81555 0.12799 0.58999 0.0
O59 O 0.81926 0.23066 0.56406 0.0
O60 O 0.8189 0.29855 0.56789 0.0
C61 C 0.87395 0.26719 0.78135 0.0
O62 O 0.86145 0.31031 0.34975 0.0
O63 O 0.86148 0.24276 0.353 0.0
Zn64 Zn 0.1287 0.80582 0.40974 0.0
O65 O 0.07967 0.81156 0.43348 0.0
C66 C 0.1358 0.77584 0.65299 0.0
Zn67 Zn 0.12925 0.73708 0.40876 0.0
C68 C 0.06544 0.7771 0.43777 0.0
O69 O 0.08095 0.74396 0.42885 0.0
C70 C 0.19168 0.76396 0.3644 0.0
O71 O 0.1238 0.73257 0.22128 0.0
O72 O 0.12261 0.80053 0.22444 0.0
N73 N 0.12247 0.67592 0.44196 0.0
C74 C 0.13369 0.63852 0.41023 0.0
C75 C 0.09932 0.62882 0.54577 0.0
N76 N 0.10133 0.66949 0.52648 0.0
N77 N 0.11947 0.60847 0.47477 0.0
C78 C 0.12361 0.90254 0.44441 0.0
C79 C 0.15576 0.9225 0.31065 0.0
N80 N 0.1343 0.86841 0.38809 0.0
N81 N 0.15405 0.88109 0.30456 0.0
N82 N 0.13676 0.93688 0.39721 0.0
H83 H 0.09837 0.87046 0.58419 0.0
H84 H 0.0787 0.91431 0.52064 0.0
H85 H 0.11085 0.92249 0.6209 0.0
C86 C 0.10176 0.90209 0.5491 0.0
C87 C 0.15768 0.63177 0.3149 0.0
H88 H 0.15874 0.65877 0.25388 0.0
H89 H 0.15228 0.60331 0.26357 0.0
H90 H 0.18092 0.6278 0.35754 0.0
O91 O 0.17716 0.73033 0.38305 0.0
O92 O 0.17753 0.79822 0.37923 0.0
C93 C 0.12248 0.76693 0.16574 0.0
O94 O 0.13499 0.81003 0.59733 0.0
O95 O 0.13494 0.74248 0.59411 0.0
Zn96 Zn 0.86715 0.80485 0.40843 0.0
O97 O 0.87262 0.80946 0.22098 0.0
C98 C 0.80478 0.77758 0.36406 0.0
Zn99 Zn 0.86787 0.73611 0.40958 0.0
C100 C 0.874 0.77509 0.1655 0.0
O101 O 0.87393 0.7415 0.22426 0.0
C102 C 0.86068 0.76599 0.65275 0.0
O103 O 0.91689 0.73067 0.43334 0.0
O104 O 0.91549 0.79827 0.42866 0.0
N105 N 0.8625 0.6735 0.3877 0.0
C106 C 0.87299 0.63941 0.44478 0.0
C107 C 0.84138 0.61934 0.30927 0.0
N108 N 0.84309 0.66075 0.30309 0.0
N109 N 0.86005 0.60503 0.39697 0.0
C110 C 0.86265 0.90346 0.40946 0.0
C111 C 0.8966 0.91314 0.54658 0.0
N112 N 0.87371 0.86604 0.44189 0.0
N113 N 0.8946 0.87246 0.52738 0.0
N114 N 0.87671 0.93349 0.47453 0.0
H115 H 0.83787 0.88307 0.25257 0.0
H116 H 0.84475 0.93847 0.26118 0.0
H117 H 0.81566 0.91467 0.35452 0.0
C118 C 0.83899 0.91024 0.31296 0.0
C119 C 0.89434 0.6399 0.55096 0.0
H120 H 0.89853 0.6717 0.58341 0.0
H121 H 0.91714 0.6261 0.52558 0.0
H122 H 0.88426 0.62081 0.62383 0.0
O123 O 0.8616 0.7318 0.59715 0.0
O124 O 0.86145 0.79934 0.5938 0.0
C125 C 0.93107 0.76517 0.43762 0.0
O126 O 0.8192 0.8113 0.38254 0.0
O127 O 0.81902 0.7434 0.37908 0.0
Zn128 Zn 0.62922 0.80403 0.03839 0.0
O129 O 0.62377 0.80854 0.22587 0.0
C130 C 0.69165 0.77717 0.08276 0.0
Zn131 Zn 0.62869 0.7353 0.03742 0.0
C132 C 0.62247 0.77417 0.2814 0.0
O133 O 0.62261 0.74057 0.22271 0.0
C134 C 0.63577 0.76529 0.79417 0.0
O135 O 0.57967 0.72954 0.01366 0.0
O136 O 0.58092 0.79713 0.01829 0.0
N137 N 0.63433 0.6727 0.05901 0.0
C138 C 0.62365 0.63858 0.00266 0.0
C139 C 0.65582 0.61861 0.13635 0.0
N140 N 0.6541 0.66002 0.14249 0.0
N141 N 0.63682 0.60423 0.04982 0.0
C142 C 0.63363 0.90259 0.0369 0.0
C143 C 0.59919 0.91231 0.90156 0.0
N144 N 0.62239 0.8652 0.00524 0.0
N145 N 0.60121 0.87163 0.92084 0.0
N146 N 0.61937 0.93265 0.97244 0.0
H147 H 0.65873 0.88235 0.19318 0.0
H148 H 0.6523 0.93782 0.18337 0.0
H149 H 0.68089 0.91324 0.08932 0.0
C150 C 0.65766 0.90934 0.13209 0.0
C151 C 0.60178 0.63904 0.89801 0.0
H152 H 0.59838 0.67067 0.86293 0.0
H153 H 0.57872 0.62681 0.92651 0.0
H154 H 0.61086 0.61863 0.82619 0.0
O155 O 0.63497 0.7311 0.84983 0.0
O156 O 0.63489 0.79865 0.85304 0.0
C157 C 0.56542 0.76399 0.00936 0.0
O158 O 0.67712 0.8108 0.06412 0.0
O159 O 0.67752 0.74291 0.06794 0.0
Zn160 Zn 0.36713 0.73626 0.03862 0.0
O161 O 0.3726 0.73166 0.22608 0.0
C162 C 0.30476 0.76356 0.08297 0.0
Zn163 Zn 0.36784 0.805 0.03748 0.0
C164 C 0.37398 0.76602 0.28156 0.0
O165 O 0.37391 0.79962 0.2228 0.0
C166 C 0.36066 0.77512 0.7943 0.0
O167 O 0.41686 0.81042 0.01374 0.0
O168 O 0.41547 0.74283 0.01843 0.0
N169 N 0.36247 0.86762 0.05933 0.0
C170 C 0.37299 0.9017 0.00232 0.0
C171 C 0.34135 0.9218 0.13767 0.0
N172 N 0.34304 0.88039 0.14385 0.0
N173 N 0.36005 0.93609 0.05008 0.0
C174 C 0.36261 0.63767 0.03754 0.0
C175 C 0.39658 0.62795 0.90055 0.0
N176 N 0.3737 0.67507 0.00517 0.0
N177 N 0.39459 0.66863 0.91976 0.0
N178 N 0.37667 0.60762 0.97252 0.0
H179 H 0.33782 0.65806 0.19437 0.0
H180 H 0.34466 0.60265 0.18571 0.0
H181 H 0.3156 0.62652 0.0923 0.0
C182 C 0.33893 0.63091 0.13395 0.0
C183 C 0.39438 0.90118 0.89627 0.0
H184 H 0.39849 0.86939 0.86361 0.0
H185 H 0.41721 0.91484 0.92193 0.0
H186 H 0.38438 0.92041 0.82348 0.0
O187 O 0.36156 0.80932 0.8499 0.0
O188 O 0.36143 0.74177 0.85324 0.0
C189 C 0.43104 0.77592 0.00947 0.0
O190 O 0.31919 0.72984 0.06447 0.0
O191 O 0.319 0.79773 0.06796 0.0
Zn192 Zn 0.62855 0.30527 0.90965 0.0
O193 O 0.57951 0.31062 0.93341 0.0
C194 C 0.63577 0.27542 0.15285 0.0
Zn195 Zn 0.62933 0.23654 0.90855 0.0
C196 C 0.56538 0.27609 0.93771 0.0
O197 O 0.58098 0.24302 0.92876 0.0
C198 C 0.69166 0.26391 0.86415 0.0
O199 O 0.62386 0.23191 0.72108 0.0
O200 O 0.62248 0.29987 0.72434 0.0
N201 N 0.62283 0.17534 0.94208 0.0
C202 C 0.63385 0.13793 0.90942 0.0
C203 C 0.60003 0.12823 0.047 0.0
N204 N 0.60203 0.16891 0.02786 0.0
N205 N 0.61984 0.10788 -0.02538 0.0
C206 C 0.6234 0.40197 0.94499 0.0
C207 C 0.65484 0.42209 0.80899 0.0
N208 N 0.63384 0.3679 0.88771 0.0
N209 N 0.65315 0.38068 0.80279 0.0
N210 N 0.63626 0.43636 0.897 0.0
H211 H 0.59779 0.36961 0.08328 0.0
H212 H 0.57949 0.41569 0.02711 0.0
H213 H 0.61257 0.42015 0.12472 0.0
C214 C 0.6022 0.40144 0.05159 0.0
C215 C 0.6574 0.13115 0.81256 0.0
H216 H 0.65853 0.15837 0.7524 0.0
H217 H 0.65151 0.10299 0.76062 0.0
H218 H 0.68075 0.12655 0.8538 0.0
O219 O 0.67727 0.23018 0.88268 0.0
O220 O 0.67741 0.29807 0.87913 0.0
C221 C 0.62244 0.26628 0.66559 0.0
O222 O 0.63483 0.30962 0.09724 0.0
O223 O 0.63503 0.24207 0.09391 0.0
Zn224 Zn 0.36779 0.23502 0.90968 0.0
O225 O 0.41682 0.2294 0.93349 0.0
C226 C 0.36065 0.26496 0.15291 0.0
Zn227 Zn 0.36716 0.30376 0.90867 0.0
C228 C 0.43102 0.26388 0.93777 0.0
O229 O 0.41547 0.29699 0.9288 0.0
C230 C 0.30476 0.27675 0.86425 0.0
O231 O 0.37261 0.30831 0.72118 0.0
O232 O 0.37387 0.24034 0.72439 0.0
N233 N 0.37387 0.36494 0.94195 0.0
C234 C 0.36269 0.40234 0.90999 0.0
C235 C 0.39693 0.41203 0.04605 0.0
N236 N 0.39493 0.37135 0.02679 0.0
N237 N 0.37686 0.43238 -0.02529 0.0
C238 C 0.37289 0.13831 0.94458 0.0
C239 C 0.34093 0.11831 0.81019 0.0
N240 N 0.36227 0.17242 0.88797 0.0
N241 N 0.34264 0.15972 0.80406 0.0
N242 N 0.35981 0.10395 0.89716 0.0
H243 H 0.39823 0.17047 0.08397 0.0
H244 H 0.41755 0.12601 0.02237 0.0
H245 H 0.38514 0.1188 0.12197 0.0
C246 C 0.39457 0.13877 0.04979 0.0
C247 C 0.33881 0.4091 0.81428 0.0
H248 H 0.33772 0.38205 0.75347 0.0
H249 H 0.34432 0.43749 0.7628 0.0
H250 H 0.31554 0.41322 0.85658 0.0
O251 O 0.31925 0.3104 0.88293 0.0
O252 O 0.31894 0.24251 0.87909 0.0
C253 C 0.37396 0.27394 0.66567 0.0
O254 O 0.3615 0.23077 0.09728 0.0
O255 O 0.36148 0.29832 0.09401 0.0
C256 C 0.23526 0.31475 0.68568 0.0
C257 C 0.22196 0.27738 0.64666 0.0
H258 H 0.27129 0.34397 0.78826 0.0
C259 C 0.23524 0.23997 0.68535 0.0
H260 H 0.22529 0.34412 0.65928 0.0
C261 C 0.26109 0.23988 0.76151 0.0
C262 C 0.27446 0.27719 0.80046 0.0
H263 H 0.22533 0.21059 0.65869 0.0
H264 H 0.27093 0.21043 0.78798 0.0
C265 C 0.26125 0.31465 0.76167 0.0
C266 C 0.73523 0.30106 0.76166 0.0
C267 C 0.72197 0.26366 0.80035 0.0
H268 H 0.7709 0.33061 0.65903 0.0
C269 C 0.73527 0.22629 0.7613 0.0
H270 H 0.72532 0.33044 0.78833 0.0
C271 C 0.76126 0.22638 0.6853 0.0
C272 C 0.77445 0.26385 0.64653 0.0
H273 H 0.72531 0.19691 0.78769 0.0
H274 H 0.77131 0.19708 0.65869 0.0
C275 C 0.76107 0.30116 0.68548 0.0
C276 C 0.26118 0.8007 0.18543 0.0
C277 C 0.27446 0.7633 0.14677 0.0
H278 H 0.22551 0.83026 0.28804 0.0
C279 C 0.26117 0.72593 0.18585 0.0
H280 H 0.27109 0.83008 0.15872 0.0
C281 C 0.23518 0.72603 0.26185 0.0
C282 C 0.22198 0.7635 0.3006 0.0
H283 H 0.27114 0.69655 0.15949 0.0
H284 H 0.22514 0.69672 0.28848 0.0
C285 C 0.23535 0.8008 0.26161 0.0
C286 C 0.73535 0.74034 0.18552 0.0
C287 C 0.72196 0.77764 0.14653 0.0
H288 H 0.77111 0.71106 0.28836 0.0
C289 C 0.73517 0.81511 0.18525 0.0
H290 H 0.72552 0.71088 0.15911 0.0
C291 C 0.76116 0.81521 0.2612 0.0
C292 C 0.77447 0.77784 0.30028 0.0
H293 H 0.72511 0.84442 0.15861 0.0
H294 H 0.77114 0.84459 0.28754 0.0
C295 C 0.76119 0.74044 0.26166 0.0
C296 C 0.16402 1.00048 0.45475 0.0
C297 C 0.13586 0.97901 0.43801 0.0
H298 H 0.18596 0.05743 0.50402 0.0
C299 C 0.10739 0.99982 0.45623 0.0
H300 H 0.18622 0.98509 0.44091 0.0
C301 C 0.10724 0.04152 0.4909 0.0
C302 C 0.13556 0.06272 0.50839 0.0
H303 H 0.08539 0.98409 0.44176 0.0
H304 H 0.08514 0.05692 0.50619 0.0
C305 C 0.16388 0.0417 0.49067 0.0
C306 C 0.83235 0.50066 0.49181 0.0
C307 C 0.86054 0.47926 0.50881 0.0
H308 H 0.81033 0.55754 0.44241 0.0
C309 C 0.88898 0.50014 0.49078 0.0
H310 H 0.81017 0.48521 0.50551 0.0
C311 C 0.88907 0.54185 0.45611 0.0
C312 C 0.86072 0.56298 0.43841 0.0
H313 H 0.911 0.48447 0.50544 0.0
H314 H 0.91115 0.55731 0.44105 0.0
C315 C 0.83243 0.54188 0.45589 0.0
C316 C 0.84705 0.99949 0.46975 0.0
C317 C 0.87549 0.97769 0.46676 0.0
H318 H 0.82512 0.05944 0.47595 0.0
C319 C 0.90371 0.99966 0.47034 0.0
H320 H 0.82502 0.98304 0.46968 0.0
C321 C 0.90377 0.04241 0.4765 0.0
C322 C 0.87561 0.06453 0.47974 0.0
H323 H 0.9259 0.9835 0.46901 0.0
H324 H 0.926 0.05844 0.47823 0.0
C325 C 0.8471 0.04288 0.47621 0.0
C326 C 0.09273 0.54211 0.47082 0.0
C327 C 0.12086 0.56427 0.46756 0.0
H328 H 0.07066 0.48318 0.47818 0.0
C329 C 0.14939 0.54265 0.47106 0.0
H330 H 0.07048 0.55812 0.46912 0.0
C331 C 0.14949 0.49926 0.47745 0.0
C332 C 0.12106 0.47743 0.48038 0.0
H333 H 0.17136 0.55924 0.47132 0.0
H334 H 0.17153 0.48283 0.47746 0.0
C335 C 0.09283 0.49937 0.47691 0.0
C336 C 0.66409 0.54065 -0.00788 0.0
C337 C 0.63592 0.56211 0.00898 0.0
H338 H 0.68604 0.48371 0.94278 0.0
C339 C 0.60746 0.54129 -0.00915 0.0
H340 H 0.68629 0.55604 0.00589 0.0
C341 C 0.60732 0.49959 0.95618 0.0
C342 C 0.63565 0.47839 0.93858 0.0
H343 H 0.58545 0.55702 0.0054 0.0
H344 H 0.58522 0.48418 0.94098 0.0
C345 C 0.66395 0.49943 0.9562 0.0
C346 C 0.38912 0.99922 -0.00904 0.0
C347 C 0.36075 0.97814 0.00868 0.0
H348 H 0.41109 0.05655 0.94156 0.0
C349 C 0.33248 0.9993 -0.00878 0.0
H350 H 0.41119 0.98371 0.006 0.0
C351 C 0.33242 0.04053 0.95527 0.0
C352 C 0.36063 0.06186 0.93823 0.0
H353 H 0.31036 0.98369 0.00472 0.0
H354 H 0.31026 0.05602 0.94156 0.0
C355 C 0.38906 0.04092 0.95627 0.0
C356 C 0.40369 0.49867 0.97066 0.0
C357 C 0.37553 0.47658 0.96732 0.0
H358 H 0.42584 0.55755 -0.02177 0.0
C359 C 0.34703 0.49826 0.97071 0.0
H360 H 0.42592 0.48262 0.96905 0.0
C361 C 0.34699 0.54165 -0.02285 0.0
C362 C 0.37544 0.56342 -0.01974 0.0
H363 H 0.32504 0.48172 0.97087 0.0
H364 H 0.32496 0.55813 -0.02288 0.0
C365 C 0.40365 0.54142 -0.02319 0.0
C366 C 0.59276 0.04178 0.97019 0.0
C367 C 0.621 0.06369 0.96663 0.0
H368 H 0.57039 0.98305 -0.02189 0.0
C369 C 0.64942 0.04183 0.96955 0.0
H370 H 0.57059 0.05799 0.96894 0.0
C371 C 0.64931 0.99844 -0.02401 0.0
C372 C 0.62078 0.97685 -0.02043 0.0
H373 H 0.67147 0.05824 0.96948 0.0
H374 H 0.67128 0.98183 -0.02429 0.0
C375 C 0.59265 0.99903 -0.02366 0.0
C376 C 0.12876 0.23174 0.09492 0.0
C377 C 0.1339 0.26758 0.1624 0.0
H378 H 0.12037 0.20605 0.92201 0.0
C379 C 0.13435 0.30612 0.10392 0.0
H380 H 0.12789 0.20169 0.13745 0.0
C381 C 0.12969 0.30876 -0.01942 0.0
C382 C 0.12448 0.27292 0.91311 0.0
H383 H 0.13804 0.33443 0.15355 0.0
H384 H 0.13055 0.3388 0.93808 0.0
C385 C 0.12407 0.23437 0.97159 0.0
C386 C 0.86217 0.23575 0.10381 0.0
C387 C 0.86248 0.27426 0.16237 0.0
H388 H 0.86609 0.20314 0.93791 0.0
C389 C 0.86748 0.31017 0.09496 0.0
H390 H 0.85859 0.20739 0.15338 0.0
C391 C 0.87217 0.3076 0.97164 0.0
C392 C 0.8719 0.26908 0.91307 0.0
H393 H 0.86823 0.3402 0.13756 0.0
H394 H 0.87576 0.33596 0.92212 0.0
C395 C 0.86683 0.23318 -0.01953 0.0
C396 C 0.12959 0.73291 0.96665 0.0
C397 C 0.12453 0.76881 0.03403 0.0
H398 H 0.13781 0.70711 0.79375 0.0
C399 C 0.12428 0.80734 -0.02456 0.0
H400 H 0.13032 0.70287 0.00923 0.0
C401 C 0.12896 0.8099 0.85211 0.0
C402 C 0.13395 0.77398 0.78472 0.0
H403 H 0.1207 0.8357 0.02494 0.0
H404 H 0.12822 0.83993 0.80949 0.0
C405 C 0.13425 0.73547 0.84331 0.0
C406 C 0.86213 0.80642 0.84297 0.0
C407 C 0.86253 0.76789 0.78448 0.0
H408 H 0.86597 0.83908 0.00881 0.0
C409 C 0.86763 0.73202 0.85196 0.0
H410 H 0.85847 0.83475 0.79334 0.0
C411 C 0.87231 0.73463 -0.02471 0.0
C412 C 0.87195 0.77317 0.03378 0.0
H413 H 0.86845 0.70198 0.80943 0.0
H414 H 0.87597 0.7063 0.02486 0.0
C415 C 0.86679 0.80903 0.96631 0.0
C416 C 0.62954 0.8082 0.48049 0.0
C417 C 0.62451 0.77229 0.41312 0.0
H418 H 0.63773 0.83402 0.6534 0.0
C419 C 0.62429 0.73377 0.47172 0.0
H420 H 0.63025 0.83824 0.43791 0.0
C421 C 0.62896 0.73122 0.59506 0.0
C422 C 0.63392 0.76714 0.66244 0.0
H423 H 0.62073 0.7054 0.42221 0.0
H424 H 0.62825 0.70119 0.63768 0.0
C425 C 0.63419 0.80566 0.60384 0.0
C426 C 0.36211 0.7347 0.60407 0.0
C427 C 0.36251 0.77323 0.66256 0.0
H428 H 0.36596 0.70204 0.43823 0.0
C429 C 0.3676 0.8091 0.59509 0.0
H430 H 0.35845 0.70637 0.65369 0.0
C431 C 0.37228 0.80648 0.47177 0.0
C432 C 0.37193 0.76794 0.41328 0.0
H433 H 0.36842 0.83914 0.63763 0.0
H434 H 0.37595 0.83482 0.4222 0.0
C435 C 0.36677 0.73208 0.48073 0.0
C436 C 0.63436 0.23499 0.34308 0.0
C437 C 0.63392 0.27352 0.28459 0.0
H438 H 0.63054 0.20231 0.50892 0.0
C439 C 0.62878 0.30938 0.35205 0.0
H440 H 0.63805 0.20667 0.29346 0.0
C441 C 0.6241 0.30674 0.47537 0.0
C442 C 0.62449 0.26821 0.53387 0.0
H443 H 0.62793 0.33942 0.30951 0.0
H444 H 0.6204 0.33507 0.52494 0.0
C445 C 0.6297 0.23236 0.46642 0.0
C446 C 0.36215 0.30535 0.34319 0.0
C447 C 0.3625 0.26683 0.28465 0.0
H448 H 0.36604 0.33797 0.50908 0.0
C449 C 0.36754 0.23094 0.35207 0.0
H450 H 0.35854 0.3337 0.2936 0.0
C451 C 0.37222 0.23352 0.47541 0.0
C452 C 0.37192 0.27205 0.53395 0.0
H453 H 0.36832 0.2009 0.3095 0.0
H454 H 0.37584 0.20516 0.52494 0.0
C455 C 0.36681 0.30793 0.46654 0.0
C456 C 0.01638 0.30693 0.49757 0.0
C457 C 0.03102 0.26791 0.49938 0.0
H458 H 0.97327 0.34062 0.49901 0.0
C459 C 0.0125 0.23227 0.49684 0.0
H460 H 0.03004 0.3351 0.49863 0.0
C461 C 0.97997 0.23556 0.49672 0.0
C462 C 0.96533 0.27457 0.49936 0.0
H463 H 0.02308 0.20186 0.4975 0.0
H464 H 0.96633 0.20737 0.49708 0.0
C465 C 0.98385 0.31022 0.49767 0.0
C466 C 0.98389 0.73223 0.45002 0.0
C467 C 0.9654 0.76791 0.44754 0.0
H468 H 0.03005 0.70724 0.44977 0.0
C469 C 0.98007 0.8069 0.44945 0.0
H470 H 0.97329 0.70184 0.44928 0.0
C471 C 0.01261 0.81013 0.44939 0.0
C472 C 0.0311 0.77443 0.44765 0.0
H473 H 0.96644 0.8351 0.44844 0.0
H474 H 0.02322 0.84051 0.44814 0.0
C475 C 0.01642 0.73545 0.45019 0.0
C476 C 0.51639 0.80563 -0.00314 0.0
C477 C 0.53108 0.76665 -0.00053 0.0
H478 H 0.47325 0.83924 -0.00229 0.0
C479 C 0.5126 0.73096 -0.00221 0.0
H480 H 0.53001 0.83384 -0.00278 0.0
C481 C 0.48006 0.73419 -0.00226 0.0
C482 C 0.46538 0.77317 -0.00043 0.0
H483 H 0.52322 0.70058 -0.00089 0.0
H484 H 0.46644 0.70598 -0.0012 0.0
C485 C 0.48386 0.80886 -0.00298 0.0
C486 C 0.47998 0.30563 0.95017 0.0
C487 C 0.46535 0.26662 0.94767 0.0
H488 H 0.52308 0.33934 0.94925 0.0
C489 C 0.48389 0.23097 0.94948 0.0
H490 H 0.46632 0.33382 0.94971 0.0
C491 C 0.51642 0.23427 0.94956 0.0
C492 C 0.53105 0.27329 0.94761 0.0
H493 H 0.47332 0.20057 0.94826 0.0
H494 H 0.53009 0.20609 0.9486 0.0
C495 C 0.51251 0.30893 0.95003 0.0
loop_
_geom_bond_atom_site_label_1
_geom_bond_atom_site_label_2
_geom_bond_distance
_geom_bond_site_symmetry_2
_ccdc_geom_bond_type
Zn0 O1 2.055 . S
Zn0 O8 2.046 . S
Zn0 N16 2.036 . S
Zn0 O28 2.053 . S
Zn0 O30 2.066 . S
O1 Zn0 2.055 . S
O1 C4 1.259 . S
C2 O30 1.256 . S
C2 O31 1.244 . S
Zn3 O5 2.046 . S
Zn3 O7 2.055 . S
Zn3 N9 2.036 . S
Zn3 O27 2.066 . S
Zn3 O31 2.053 . S
C4 O1 1.259 . S
C4 O5 1.254 . S
O5 Zn3 2.046 . S
O5 C4 1.254 . S
C6 O27 1.256 . S
C6 O28 1.244 . S
O7 Zn3 2.055 . S
O7 C29 1.259 . S
O8 Zn0 2.046 . S
O8 C29 1.254 . S
N9 Zn3 2.036 . S
N9 C10 1.298 . S
N9 N12 1.398 . S
C10 N9 1.298 . S
C10 N13 1.367 . S
C10 C23 1.481 . S
C11 N12 1.299 . S
C11 N13 1.379 . S
N12 N9 1.398 . S
N12 C11 1.299 . S
N13 C10 1.367 . S
N13 C11 1.379 . S
C14 N16 1.298 . S
C14 N18 1.367 . S
C14 C22 1.481 . S
C15 N17 1.299 . S
C15 N18 1.379 . S
N16 Zn0 2.036 . S
N16 C14 1.298 . S
N16 N17 1.398 . S
N17 C15 1.299 . S
N17 N16 1.398 . S
N18 C14 1.367 . S
N18 C15 1.379 . S
H19 C22 0.980 . S
H20 C22 0.981 . S
H21 C22 0.981 . S
C22 C14 1.481 . S
C22 H19 0.980 . S
C22 H20 0.981 . S
C22 H21 0.981 . S
C23 C10 1.481 . S
C23 H24 0.980 . S
C23 H25 0.981 . S
C23 H26 0.981 . S
H24 C23 0.980 . S
H25 C23 0.981 . S
H26 C23 0.981 . S
O27 Zn3 2.066 . S
O27 C6 1.256 . S
O28 Zn0 2.053 . S
O28 C6 1.244 . S
C29 O7 1.259 . S
C29 O8 1.254 . S
O30 Zn0 2.066 . S
O30 C2 1.256 . S
O31 C2 1.244 . S
O31 Zn3 2.053 . S
Zn32 O33 2.055 . S
Zn32 O40 2.046 . S
Zn32 N48 2.036 . S
Zn32 O60 2.053 . S
Zn32 O62 2.066 . S
O33 Zn32 2.055 . S
O33 C36 1.259 . S
C34 O62 1.256 . S
C34 O63 1.244 . S
Zn35 O37 2.046 . S
Zn35 O39 2.055 . S
Zn35 N41 2.036 . S
Zn35 O59 2.066 . S
Zn35 O63 2.053 . S
C36 O33 1.259 . S
C36 O37 1.254 . S
O37 Zn35 2.046 . S
O37 C36 1.254 . S
C38 O59 1.256 . S
C38 O60 1.244 . S
O39 Zn35 2.055 . S
O39 C61 1.259 . S
O40 Zn32 2.046 . S
O40 C61 1.254 . S
N41 Zn35 2.036 . S
N41 C42 1.298 . S
N41 N44 1.398 . S
C42 N41 1.298 . S
C42 N45 1.367 . S
C42 C55 1.481 . S
C43 N44 1.299 . S
C43 N45 1.379 . S
N44 N41 1.398 . S
N44 C43 1.299 . S
N45 C42 1.367 . S
N45 C43 1.379 . S
C46 N48 1.298 . S
C46 N50 1.367 . S
C46 C54 1.481 . S
C47 N49 1.299 . S
C47 N50 1.379 . S
N48 Zn32 2.036 . S
N48 C46 1.298 . S
N48 N49 1.398 . S
N49 C47 1.299 . S
N49 N48 1.398 . S
N50 C46 1.367 . S
N50 C47 1.379 . S
H51 C54 0.980 . S
H52 C54 0.981 . S
H53 C54 0.981 . S
C54 C46 1.481 . S
C54 H51 0.980 . S
C54 H52 0.981 . S
C54 H53 0.981 . S
C55 C42 1.481 . S
C55 H56 0.980 . S
C55 H57 0.981 . S
C55 H58 0.981 . S
H56 C55 0.980 . S
H57 C55 0.981 . S
H58 C55 0.981 . S
O59 Zn35 2.066 . S
O59 C38 1.256 . S
O60 Zn32 2.053 . S
O60 C38 1.244 . S
C61 O39 1.259 . S
C61 O40 1.254 . S
O62 Zn32 2.066 . S
O62 C34 1.256 . S
O63 C34 1.244 . S
O63 Zn35 2.053 . S
Zn64 O65 2.055 . S
Zn64 O72 2.046 . S
Zn64 N80 2.036 . S
Zn64 O92 2.053 . S
Zn64 O94 2.066 . S
O65 Zn64 2.055 . S
O65 C68 1.259 . S
C66 O94 1.256 . S
C66 O95 1.244 . S
Zn67 O69 2.046 . S
Zn67 O71 2.055 . S
Zn67 N73 2.036 . S
Zn67 O91 2.066 . S
Zn67 O95 2.053 . S
C68 O65 1.259 . S
C68 O69 1.254 . S
O69 Zn67 2.046 . S
O69 C68 1.254 . S
C70 O91 1.256 . S
C70 O92 1.244 . S
O71 Zn67 2.055 . S
O71 C93 1.259 . S
O72 Zn64 2.046 . S
O72 C93 1.254 . S
N73 Zn67 2.036 . S
N73 C74 1.298 . S
N73 N76 1.398 . S
C74 N73 1.298 . S
C74 N77 1.367 . S
C74 C87 1.481 . S
C75 N76 1.299 . S
C75 N77 1.379 . S
N76 N73 1.398 . S
N76 C75 1.299 . S
N77 C74 1.367 . S
N77 C75 1.379 . S
C78 N80 1.298 . S
C78 N82 1.367 . S
C78 C86 1.481 . S
C79 N81 1.299 . S
C79 N82 1.379 . S
N80 Zn64 2.036 . S
N80 C78 1.298 . S
N80 N81 1.398 . S
N81 C79 1.299 . S
N81 N80 1.398 . S
N82 C78 1.367 . S
N82 C79 1.379 . S
H83 C86 0.980 . S
H84 C86 0.981 . S
H85 C86 0.981 . S
C86 C78 1.481 . S
C86 H83 0.980 . S
C86 H84 0.981 . S
C86 H85 0.981 . S
C87 C74 1.481 . S
C87 H88 0.980 . S
C87 H89 0.981 . S
C87 H90 0.981 . S
H88 C87 0.980 . S
H89 C87 0.981 . S
H90 C87 0.981 . S
O91 Zn67 2.066 . S
O91 C70 1.256 . S
O92 Zn64 2.053 . S
O92 C70 1.244 . S
C93 O71 1.259 . S
C93 O72 1.254 . S
O94 Zn64 2.066 . S
O94 C66 1.256 . S
O95 C66 1.244 . S
O95 Zn67 2.053 . S
Zn96 O97 2.055 . S
Zn96 O104 2.046 . S
Zn96 N112 2.036 . S
Zn96 O124 2.053 . S
Zn96 O126 2.066 . S
O97 Zn96 2.055 . S
O97 C100 1.259 . S
C98 O126 1.256 . S
C98 O127 1.244 . S
Zn99 O101 2.046 . S
Zn99 O103 2.055 . S
Zn99 N105 2.036 . S
Zn99 O123 2.066 . S
Zn99 O127 2.053 . S
C100 O97 1.259 . S
C100 O101 1.254 . S
O101 Zn99 2.046 . S
O101 C100 1.254 . S
C102 O123 1.256 . S
C102 O124 1.244 . S
O103 Zn99 2.055 . S
O103 C125 1.259 . S
O104 Zn96 2.046 . S
O104 C125 1.254 . S
N105 Zn99 2.036 . S
N105 C106 1.298 . S
N105 N108 1.398 . S
C106 N105 1.298 . S
C106 N109 1.367 . S
C106 C119 1.481 . S
C107 N108 1.299 . S
C107 N109 1.379 . S
N108 N105 1.398 . S
N108 C107 1.299 . S
N109 C106 1.367 . S
N109 C107 1.379 . S
C110 N112 1.298 . S
C110 N114 1.367 . S
C110 C118 1.481 . S
C111 N113 1.299 . S
C111 N114 1.379 . S
N112 Zn96 2.036 . S
N112 C110 1.298 . S
N112 N113 1.398 . S
N113 C111 1.299 . S
N113 N112 1.398 . S
N114 C110 1.367 . S
N114 C111 1.379 . S
H115 C118 0.980 . S
H116 C118 0.981 . S
H117 C118 0.981 . S
C118 C110 1.481 . S
C118 H115 0.980 . S
C118 H116 0.981 . S
C118 H117 0.981 . S
C119 C106 1.481 . S
C119 H120 0.980 . S
C119 H121 0.981 . S
C119 H122 0.981 . S
H120 C119 0.980 . S
H121 C119 0.981 . S
H122 C119 0.981 . S
O123 Zn99 2.066 . S
O123 C102 1.256 . S
O124 Zn96 2.053 . S
O124 C102 1.244 . S
C125 O103 1.259 . S
C125 O104 1.254 . S
O126 Zn96 2.066 . S
O126 C98 1.256 . S
O127 C98 1.244 . S
O127 Zn99 2.053 . S
Zn128 O129 2.055 . S
Zn128 O136 2.046 . S
Zn128 N144 2.036 . S
Zn128 O156 2.053 1_554 S
Zn128 O158 2.066 . S
O129 Zn128 2.055 . S
O129 C132 1.259 . S
C130 O158 1.256 . S
C130 O159 1.244 . S
Zn131 O133 2.046 . S
Zn131 O135 2.055 . S
Zn131 N137 2.036 . S
Zn131 O155 2.066 1_554 S
Zn131 O159 2.053 . S
C132 O129 1.259 . S
C132 O133 1.254 . S
O133 Zn131 2.046 . S
O133 C132 1.254 . S
C134 O155 1.256 . S
C134 O156 1.244 . S
O135 Zn131 2.055 . S
O135 C157 1.259 . S
O136 Zn128 2.046 . S
O136 C157 1.254 . S
N137 Zn131 2.036 . S
N137 C138 1.298 . S
N137 N140 1.398 . S
C138 N137 1.298 . S
C138 N141 1.367 . S
C138 C151 1.481 1_554 S
C139 N140 1.299 . S
C139 N141 1.379 . S
N140 N137 1.398 . S
N140 C139 1.299 . S
N141 C138 1.367 . S
N141 C139 1.379 . S
C142 N144 1.298 . S
C142 N146 1.367 . S
C142 C150 1.481 . S
C143 N145 1.299 . S
C143 N146 1.379 1_556 S
N144 Zn128 2.036 . S
N144 C142 1.298 . S
N144 N145 1.398 1_554 S
N145 C143 1.299 . S
N145 N144 1.398 1_556 S
N146 C142 1.367 . S
N146 C143 1.379 1_554 S
H147 C150 0.980 . S
H148 C150 0.981 . S
H149 C150 0.981 . S
C150 C142 1.481 . S
C150 H147 0.980 . S
C150 H148 0.981 . S
C150 H149 0.981 . S
C151 C138 1.481 1_556 S
C151 H152 0.980 . S
C151 H153 0.981 . S
C151 H154 0.981 . S
H152 C151 0.980 . S
H153 C151 0.981 . S
H154 C151 0.981 . S
O155 Zn131 2.066 1_556 S
O155 C134 1.256 . S
O156 Zn128 2.053 1_556 S
O156 C134 1.244 . S
C157 O135 1.259 . S
C157 O136 1.254 . S
O158 Zn128 2.066 . S
O158 C130 1.256 . S
O159 C130 1.244 . S
O159 Zn131 2.053 . S
Zn160 O161 2.055 . S
Zn160 O168 2.046 . S
Zn160 N176 2.036 . S
Zn160 O188 2.053 1_554 S
Zn160 O190 2.066 . S
O161 Zn160 2.055 . S
O161 C164 1.259 . S
C162 O190 1.256 . S
C162 O191 1.244 . S
Zn163 O165 2.046 . S
Zn163 O167 2.055 . S
Zn163 N169 2.036 . S
Zn163 O187 2.066 1_554 S
Zn163 O191 2.053 . S
C164 O161 1.259 . S
C164 O165 1.254 . S
O165 Zn163 2.046 . S
O165 C164 1.254 . S
C166 O187 1.256 . S
C166 O188 1.244 . S
O167 Zn163 2.055 . S
O167 C189 1.259 . S
O168 Zn160 2.046 . S
O168 C189 1.254 . S
N169 Zn163 2.036 . S
N169 C170 1.298 . S
N169 N172 1.398 . S
C170 N169 1.298 . S
C170 N173 1.367 . S
C170 C183 1.481 1_554 S
C171 N172 1.299 . S
C171 N173 1.379 . S
N172 N169 1.398 . S
N172 C171 1.299 . S
N173 C170 1.367 . S
N173 C171 1.379 . S
C174 N176 1.298 . S
C174 N178 1.367 . S
C174 C182 1.481 . S
C175 N177 1.299 . S
C175 N178 1.379 1_556 S
N176 Zn160 2.036 . S
N176 C174 1.298 . S
N176 N177 1.398 1_554 S
N177 C175 1.299 . S
N177 N176 1.398 1_556 S
N178 C174 1.367 . S
N178 C175 1.379 1_554 S
H179 C182 0.980 . S
H180 C182 0.981 . S
H181 C182 0.981 . S
C182 C174 1.481 . S
C182 H179 0.980 . S
C182 H180 0.981 . S
C182 H181 0.981 . S
C183 C170 1.481 1_556 S
C183 H184 0.980 . S
C183 H185 0.981 . S
C183 H186 0.981 . S
H184 C183 0.980 . S
H185 C183 0.981 . S
H186 C183 0.981 . S
O187 Zn163 2.066 1_556 S
O187 C166 1.256 . S
O188 Zn160 2.053 1_556 S
O188 C166 1.244 . S
C189 O167 1.259 . S
C189 O168 1.254 . S
O190 Zn160 2.066 . S
O190 C162 1.256 . S
O191 C162 1.244 . S
O191 Zn163 2.053 . S
Zn192 O193 2.055 . S
Zn192 O200 2.046 . S
Zn192 N208 2.036 . S
Zn192 O220 2.053 . S
Zn192 O222 2.066 1_556 S
O193 Zn192 2.055 . S
O193 C196 1.259 . S
C194 O222 1.256 . S
C194 O223 1.244 . S
Zn195 O197 2.046 . S
Zn195 O199 2.055 . S
Zn195 N201 2.036 . S
Zn195 O219 2.066 . S
Zn195 O223 2.053 1_556 S
C196 O193 1.259 . S
C196 O197 1.254 . S
O197 Zn195 2.046 . S
O197 C196 1.254 . S
C198 O219 1.256 . S
C198 O220 1.244 . S
O199 Zn195 2.055 . S
O199 C221 1.259 . S
O200 Zn192 2.046 . S
O200 C221 1.254 . S
N201 Zn195 2.036 . S
N201 C202 1.298 . S
N201 N204 1.398 1_556 S
C202 N201 1.298 . S
C202 N205 1.367 . S
C202 C215 1.481 . S
C203 N204 1.299 . S
C203 N205 1.379 1_554 S
N204 N201 1.398 1_554 S
N204 C203 1.299 . S
N205 C202 1.367 . S
N205 C203 1.379 1_556 S
C206 N208 1.298 . S
C206 N210 1.367 . S
C206 C214 1.481 1_556 S
C207 N209 1.299 . S
C207 N210 1.379 . S
N208 Zn192 2.036 . S
N208 C206 1.298 . S
N208 N209 1.398 . S
N209 C207 1.299 . S
N209 N208 1.398 . S
N210 C206 1.367 . S
N210 C207 1.379 . S
H211 C214 0.980 . S
H212 C214 0.981 . S
H213 C214 0.981 . S
C214 C206 1.481 1_554 S
C214 H211 0.980 . S
C214 H212 0.981 . S
C214 H213 0.981 . S
C215 C202 1.481 . S
C215 H216 0.980 . S
C215 H217 0.981 . S
C215 H218 0.981 . S
H216 C215 0.980 . S
H217 C215 0.981 . S
H218 C215 0.981 . S
O219 Zn195 2.066 . S
O219 C198 1.256 . S
O220 Zn192 2.053 . S
O220 C198 1.244 . S
C221 O199 1.259 . S
C221 O200 1.254 . S
O222 Zn192 2.066 1_554 S
O222 C194 1.256 . S
O223 C194 1.244 . S
O223 Zn195 2.053 1_554 S
Zn224 O225 2.055 . S
Zn224 O232 2.046 . S
Zn224 N240 2.036 . S
Zn224 O252 2.053 . S
Zn224 O254 2.066 1_556 S
O225 Zn224 2.055 . S
O225 C228 1.259 . S
C226 O254 1.256 . S
C226 O255 1.244 . S
Zn227 O229 2.046 . S
Zn227 O231 2.055 . S
Zn227 N233 2.036 . S
Zn227 O251 2.066 . S
Zn227 O255 2.053 1_556 S
C228 O225 1.259 . S
C228 O229 1.254 . S
O229 Zn227 2.046 . S
O229 C228 1.254 . S
C230 O251 1.256 . S
C230 O252 1.244 . S
O231 Zn227 2.055 . S
O231 C253 1.259 . S
O232 Zn224 2.046 . S
O232 C253 1.254 . S
N233 Zn227 2.036 . S
N233 C234 1.298 . S
N233 N236 1.398 1_556 S
C234 N233 1.298 . S
C234 N237 1.367 . S
C234 C247 1.481 . S
C235 N236 1.299 . S
C235 N237 1.379 1_554 S
N236 N233 1.398 1_554 S
N236 C235 1.299 . S
N237 C234 1.367 . S
N237 C235 1.379 1_556 S
C238 N240 1.298 . S
C238 N242 1.367 . S
C238 C246 1.481 1_556 S
C239 N241 1.299 . S
C239 N242 1.379 . S
N240 Zn224 2.036 . S
N240 C238 1.298 . S
N240 N241 1.398 . S
N241 C239 1.299 . S
N241 N240 1.398 . S
N242 C238 1.367 . S
N242 C239 1.379 . S
H243 C246 0.980 . S
H244 C246 0.981 . S
H245 C246 0.981 . S
C246 C238 1.481 1_554 S
C246 H243 0.980 . S
C246 H244 0.981 . S
C246 H245 0.981 . S
C247 C234 1.481 . S
C247 H248 0.980 . S
C247 H249 0.981 . S
C247 H250 0.981 . S
H248 C247 0.980 . S
H249 C247 0.981 . S
H250 C247 0.981 . S
O251 Zn227 2.066 . S
O251 C230 1.256 . S
O252 Zn224 2.053 . S
O252 C230 1.244 . S
C253 O231 1.259 . S
C253 O232 1.254 . S
O254 Zn224 2.066 1_554 S
O254 C226 1.256 . S
O255 C226 1.244 . S
O255 Zn227 2.053 1_554 S
C256 C257 1.387 . S
C256 H260 0.950 . S
C256 C265 1.390 . S
C257 C256 1.387 . S
C257 C259 1.387 . S
H258 C265 0.950 . S
C259 C257 1.387 . S
C259 C261 1.390 . S
C259 H263 0.950 . S
H260 C256 0.950 . S
C261 C259 1.390 . S
C261 C262 1.387 . S
C261 H264 0.950 . S
C262 C261 1.387 . S
C262 C265 1.387 . S
H263 C259 0.950 . S
H264 C261 0.950 . S
C265 C256 1.390 . S
C265 H258 0.950 . S
C265 C262 1.387 . S
C266 C267 1.387 . S
C266 H270 0.950 . S
C266 C275 1.390 . S
C267 C266 1.387 . S
C267 C269 1.387 . S
H268 C275 0.950 . S
C269 C267 1.387 . S
C269 C271 1.390 . S
C269 H273 0.950 . S
H270 C266 0.950 . S
C271 C269 1.390 . S
C271 C272 1.387 . S
C271 H274 0.950 . S
C272 C271 1.387 . S
C272 C275 1.387 . S
H273 C269 0.950 . S
H274 C271 0.950 . S
C275 C266 1.390 . S
C275 H268 0.950 . S
C275 C272 1.387 . S
C276 C277 1.387 . S
C276 H280 0.950 . S
C276 C285 1.390 . S
C277 C276 1.387 . S
C277 C279 1.387 . S
H278 C285 0.950 . S
C279 C277 1.387 . S
C279 C281 1.390 . S
C279 H283 0.950 . S
H280 C276 0.950 . S
C281 C279 1.390 . S
C281 C282 1.387 . S
C281 H284 0.950 . S
C282 C281 1.387 . S
C282 C285 1.387 . S
H283 C279 0.950 . S
H284 C281 0.950 . S
C285 C276 1.390 . S
C285 H278 0.950 . S
C285 C282 1.387 . S
C286 C287 1.387 . S
C286 H290 0.950 . S
C286 C295 1.390 . S
C287 C286 1.387 . S
C287 C289 1.387 . S
H288 C295 0.950 . S
C289 C287 1.387 . S
C289 C291 1.390 . S
C289 H293 0.950 . S
H290 C286 0.950 . S
C291 C289 1.390 . S
C291 C292 1.387 . S
C291 H294 0.950 . S
C292 C291 1.387 . S
C292 C295 1.387 . S
H293 C289 0.950 . S
H294 C291 0.950 . S
C295 C286 1.390 . S
C295 H288 0.950 . S
C295 C292 1.387 . S
C296 C297 1.387 . S
C296 H300 0.950 . S
C296 C305 1.390 1_565 S
C297 C296 1.387 . S
C297 C299 1.387 . S
H298 C305 0.950 . S
C299 C297 1.387 . S
C299 C301 1.390 1_565 S
C299 H303 0.950 . S
H300 C296 0.950 . S
C301 C299 1.390 1_545 S
C301 C302 1.387 . S
C301 H304 0.950 . S
C302 C301 1.387 . S
C302 C305 1.387 . S
H303 C299 0.950 . S
H304 C301 0.950 . S
C305 C296 1.390 1_545 S
C305 H298 0.950 . S
C305 C302 1.387 . S
C306 C307 1.387 . S
C306 H310 0.950 . S
C306 C315 1.390 . S
C307 C306 1.387 . S
C307 C309 1.387 . S
H308 C315 0.950 . S
C309 C307 1.387 . S
C309 C311 1.390 . S
C309 H313 0.950 . S
H310 C306 0.950 . S
C311 C309 1.390 . S
C311 C312 1.387 . S
C311 H314 0.950 . S
C312 C311 1.387 . S
C312 C315 1.387 . S
H313 C309 0.950 . S
H314 C311 0.950 . S
C315 C306 1.390 . S
C315 H308 0.950 . S
C315 C312 1.387 . S
C316 C317 1.387 . S
C316 H320 0.950 . S
C316 C325 1.390 1_565 S
C317 C316 1.387 . S
C317 C319 1.387 . S
H318 C325 0.950 . S
C319 C317 1.387 . S
C319 C321 1.390 1_565 S
C319 H323 0.950 . S
H320 C316 0.950 . S
C321 C319 1.390 1_545 S
C321 C322 1.387 . S
C321 H324 0.950 . S
C322 C321 1.387 . S
C322 C325 1.387 . S
H323 C319 0.950 . S
H324 C321 0.950 . S
C325 C316 1.390 1_545 S
C325 H318 0.950 . S
C325 C322 1.387 . S
C326 C327 1.387 . S
C326 H330 0.950 . S
C326 C335 1.390 . S
C327 C326 1.387 . S
C327 C329 1.387 . S
H328 C335 0.950 . S
C329 C327 1.387 . S
C329 C331 1.390 . S
C329 H333 0.950 . S
H330 C326 0.950 . S
C331 C329 1.390 . S
C331 C332 1.387 . S
C331 H334 0.950 . S
C332 C331 1.387 . S
C332 C335 1.387 . S
H333 C329 0.950 . S
H334 C331 0.950 . S
C335 C326 1.390 . S
C335 H328 0.950 . S
C335 C332 1.387 . S
C336 C337 1.387 . S
C336 H340 0.950 1_554 S
C336 C345 1.390 1_554 S
C337 C336 1.387 . S
C337 C339 1.388 . S
H338 C345 0.950 . S
C339 C337 1.388 . S
C339 C341 1.390 1_554 S
C339 H343 0.950 . S
H340 C336 0.950 1_556 S
C341 C339 1.390 1_556 S
C341 C342 1.387 . S
C341 H344 0.950 1_556 S
C342 C341 1.387 . S
C342 C345 1.388 . S
H343 C339 0.950 . S
H344 C341 0.950 1_554 S
C345 C336 1.390 1_556 S
C345 H338 0.950 . S
C345 C342 1.388 . S
C346 C347 1.387 . S
C346 H350 0.950 . S
C346 C355 1.390 1_564 S
C347 C346 1.387 . S
C347 C349 1.387 . S
H348 C355 0.950 . S
C349 C347 1.387 . S
C349 C351 1.390 1_564 S
C349 H353 0.950 . S
H350 C346 0.950 . S
C351 C349 1.390 1_546 S
C351 C352 1.387 . S
C351 H354 0.950 . S
C352 C351 1.387 . S
C352 C355 1.387 . S
H353 C349 0.950 . S
H354 C351 0.950 . S
C355 C346 1.390 1_546 S
C355 H348 0.950 . S
C355 C352 1.387 . S
C356 C357 1.387 . S
C356 H360 0.950 . S
C356 C365 1.390 1_556 S
C357 C356 1.387 . S
C357 C359 1.387 . S
H358 C365 0.950 . S
C359 C357 1.387 . S
C359 C361 1.390 1_556 S
C359 H363 0.950 . S
H360 C356 0.950 . S
C361 C359 1.390 1_554 S
C361 C362 1.387 . S
C361 H364 0.950 . S
C362 C361 1.387 . S
C362 C365 1.387 . S
H363 C359 0.950 . S
H364 C361 0.950 . S
C365 C356 1.390 1_554 S
C365 H358 0.950 . S
C365 C362 1.387 . S
C366 C367 1.387 . S
C366 H370 0.950 . S
C366 C375 1.390 1_546 S
C367 C366 1.387 . S
C367 C369 1.387 . S
H368 C375 0.950 . S
C369 C367 1.387 . S
C369 C371 1.390 1_546 S
C369 H373 0.950 . S
H370 C366 0.950 . S
C371 C369 1.390 1_564 S
C371 C372 1.387 . S
C371 H374 0.950 . S
C372 C371 1.387 . S
C372 C375 1.387 . S
H373 C369 0.950 . S
H374 C371 0.950 . S
C375 C366 1.390 1_564 S
C375 H368 0.950 . S
C375 C372 1.387 . S
C376 C377 1.387 . S
C376 H380 0.950 . S
C376 C385 1.390 . S
C377 C376 1.387 . S
C377 C379 1.387 . S
H378 C385 0.950 1_556 S
C379 C377 1.387 . S
C379 C381 1.390 . S
C379 H383 0.950 . S
H380 C376 0.950 . S
C381 C379 1.390 . S
C381 C382 1.387 1_554 S
C381 H384 0.950 1_554 S
C382 C381 1.387 1_556 S
C382 C385 1.387 1_556 S
H383 C379 0.950 . S
H384 C381 0.950 1_556 S
C385 C376 1.390 . S
C385 H378 0.950 1_554 S
C385 C382 1.387 1_554 S
C386 C387 1.387 . S
C386 H390 0.950 . S
C386 C395 1.390 . S
C387 C386 1.387 . S
C387 C389 1.387 . S
H388 C395 0.950 1_556 S
C389 C387 1.387 . S
C389 C391 1.390 . S
C389 H393 0.950 . S
H390 C386 0.950 . S
C391 C389 1.390 . S
C391 C392 1.387 1_554 S
C391 H394 0.950 1_554 S
C392 C391 1.387 1_556 S
C392 C395 1.387 1_556 S
H393 C389 0.950 . S
H394 C391 0.950 1_556 S
C395 C386 1.390 . S
C395 H388 0.950 1_554 S
C395 C392 1.387 1_554 S
C396 C397 1.387 1_556 S
C396 H400 0.950 1_556 S
C396 C405 1.390 . S
C397 C396 1.387 1_554 S
C397 C399 1.387 1_554 S
H398 C405 0.950 . S
C399 C397 1.387 1_556 S
C399 C401 1.390 . S
C399 H403 0.950 1_556 S
H400 C396 0.950 1_554 S
C401 C399 1.390 . S
C401 C402 1.387 . S
C401 H404 0.950 . S
C402 C401 1.387 . S
C402 C405 1.387 . S
H403 C399 0.950 1_554 S
H404 C401 0.950 . S
C405 C396 1.390 . S
C405 H398 0.950 . S
C405 C402 1.387 . S
C406 C407 1.387 . S
C406 H410 0.950 . S
C406 C415 1.390 . S
C407 C406 1.387 . S
C407 C409 1.387 . S
H408 C415 0.950 1_554 S
C409 C407 1.387 . S
C409 C411 1.390 . S
C409 H413 0.950 . S
H410 C406 0.950 . S
C411 C409 1.390 . S
C411 C412 1.387 1_556 S
C411 H414 0.950 1_556 S
C412 C411 1.387 1_554 S
C412 C415 1.387 1_554 S
H413 C409 0.950 . S
H414 C411 0.950 1_554 S
C415 C406 1.390 . S
C415 H408 0.950 1_556 S
C415 C412 1.387 1_556 S
C416 C417 1.387 . S
C416 H420 0.950 . S
C416 C425 1.390 . S
C417 C416 1.387 . S
C417 C419 1.387 . S
H418 C425 0.950 . S
C419 C417 1.387 . S
C419 C421 1.390 . S
C419 H423 0.950 . S
H420 C416 0.950 . S
C421 C419 1.390 . S
C421 C422 1.387 . S
C421 H424 0.950 . S
C422 C421 1.387 . S
C422 C425 1.387 . S
H423 C419 0.950 . S
H424 C421 0.950 . S
C425 C416 1.390 . S
C425 H418 0.950 . S
C425 C422 1.387 . S
C426 C427 1.387 . S
C426 H430 0.950 . S
C426 C435 1.390 . S
C427 C426 1.387 . S
C427 C429 1.387 . S
H428 C435 0.950 . S
C429 C427 1.387 . S
C429 C431 1.390 . S
C429 H433 0.950 . S
H430 C426 0.950 . S
C431 C429 1.390 . S
C431 C432 1.387 . S
C431 H434 0.950 . S
C432 C431 1.387 . S
C432 C435 1.387 . S
H433 C429 0.950 . S
H434 C431 0.950 . S
C435 C426 1.390 . S
C435 H428 0.950 . S
C435 C432 1.387 . S
C436 C437 1.387 . S
C436 H440 0.950 . S
C436 C445 1.390 . S
C437 C436 1.387 . S
C437 C439 1.387 . S
H438 C445 0.950 . S
C439 C437 1.387 . S
C439 C441 1.390 . S
C439 H443 0.950 . S
H440 C436 0.950 . S
C441 C439 1.390 . S
C441 C442 1.387 . S
C441 H444 0.950 . S
C442 C441 1.387 . S
C442 C445 1.387 . S
H443 C439 0.950 . S
H444 C441 0.950 . S
C445 C436 1.390 . S
C445 H438 0.950 . S
C445 C442 1.387 . S
C446 C447 1.387 . S
C446 H450 0.950 . S
C446 C455 1.390 . S
C447 C446 1.387 . S
C447 C449 1.387 . S
H448 C455 0.950 . S
C449 C447 1.387 . S
C449 C451 1.390 . S
C449 H453 0.950 . S
H450 C446 0.950 . S
C451 C449 1.390 . S
C451 C452 1.387 . S
C451 H454 0.950 . S
C452 C451 1.387 . S
C452 C455 1.387 . S
H453 C449 0.950 . S
H454 C451 0.950 . S
C455 C446 1.390 . S
C455 H448 0.950 . S
C455 C452 1.387 . S
C456 C457 1.387 . S
C456 H460 0.950 . S
C456 C465 1.390 1_455 S
C457 C456 1.387 . S
C457 C459 1.387 . S
H458 C465 0.950 . S
C459 C457 1.387 . S
C459 C461 1.390 1_455 S
C459 H463 0.950 . S
H460 C456 0.950 . S
C461 C459 1.390 1_655 S
C461 C462 1.387 . S
C461 H464 0.950 . S
C462 C461 1.387 . S
C462 C465 1.387 . S
H463 C459 0.950 . S
H464 C461 0.950 . S
C465 C456 1.390 1_655 S
C465 H458 0.950 . S
C465 C462 1.387 . S
C466 C467 1.387 . S
C466 H470 0.950 . S
C466 C475 1.390 1_655 S
C467 C466 1.387 . S
C467 C469 1.387 . S
H468 C475 0.950 . S
C469 C467 1.387 . S
C469 C471 1.390 1_655 S
C469 H473 0.950 . S
H470 C466 0.950 . S
C471 C469 1.390 1_455 S
C471 C472 1.387 . S
C471 H474 0.950 . S
C472 C471 1.387 . S
C472 C475 1.387 . S
H473 C469 0.950 . S
H474 C471 0.950 . S
C475 C466 1.390 1_455 S
C475 H468 0.950 . S
C475 C472 1.387 . S
C476 C477 1.387 1_556 S
C476 H480 0.950 . S
C476 C485 1.390 . S
C477 C476 1.387 1_554 S
C477 C479 1.387 . S
H478 C485 0.950 . S
C479 C477 1.387 . S
C479 C481 1.390 . S
C479 H483 0.950 . S
H480 C476 0.950 . S
C481 C479 1.390 . S
C481 C482 1.387 . S
C481 H484 0.950 . S
C482 C481 1.387 . S
C482 C485 1.387 1_554 S
H483 C479 0.950 . S
H484 C481 0.950 . S
C485 C476 1.390 . S
C485 H478 0.950 . S
C485 C482 1.387 1_556 S
C486 C487 1.387 . S
C486 H490 0.950 . S
C486 C495 1.390 . S
C487 C486 1.387 . S
C487 C489 1.387 1_556 S
H488 C495 0.950 . S
C489 C487 1.387 1_554 S
C489 C491 1.390 . S
C489 H493 0.950 . S
H490 C486 0.950 . S
C491 C489 1.390 . S
C491 C492 1.387 1_554 S
C491 H494 0.950 . S
C492 C491 1.387 1_556 S
C492 C495 1.387 . S
H493 C489 0.950 . S
H494 C491 0.950 . S
C495 C486 1.390 . S
C495 H488 0.950 . S
C495 C492 1.387 . S
C257 C2 1.653 . S
C262 C230 1.653 . S
C267 C198 1.651 . S
C272 C38 1.651 . S
C277 C162 1.651 . S
C282 C70 1.651 . S
C287 C130 1.651 . S
C292 C98 1.651 . S
C297 N82 1.561 . S
C302 N13 1.561 . S
C307 N50 1.561 . S
C312 N109 1.561 . S
C317 N114 1.461 . S
C322 N45 1.461 . S
C327 N77 1.457 . S
C332 N18 1.457 . S
C337 N141 1.561 . S
C342 N210 1.561 . S
C347 N173 1.558 . S
C352 N242 1.558 . S
C357 N237 1.457 . S
C362 N178 1.457 . S
C367 N205 1.457 . S
C372 N146 1.457 . S
C377 C6 1.362 . S
C382 C4 1.358 . S
C387 C34 1.363 . S
C392 C61 1.359 . S
C397 C93 1.358 . S
C402 C66 1.362 . S
C407 C102 1.362 . S
C412 C100 1.358 . S
C417 C132 1.359 . S
C422 C134 1.363 . S
C427 C166 1.362 . S
C432 C164 1.359 . S
C437 C194 1.362 . S
C442 C221 1.358 . S
C447 C226 1.362 . S
C452 C253 1.358 . S
C457 C29 1.559 . S
C462 C36 1.559 . S
C467 C125 1.559 . S
C472 C68 1.559 . S
C477 C157 1.559 . S
C482 C189 1.559 . S
C487 C228 1.559 . S
C492 C196 1.559 . S
