# Generated by pormake.
# Topology whk, (6)-cn, num edge types: 1
# Building blocks:
#     Node 0, Type 0, BuildingBlock: BETDEL_clean_sbu_0, # of connection points: 6
#     Node 1, Type 0, BuildingBlock: BETDEL_clean_sbu_0, # of connection points: 6
#     Node 2, Type 0, BuildingBlock: BETDEL_clean_sbu_0, # of connection points: 6
#     Node 3, Type 0, BuildingBlock: BETDEL_clean_sbu_0, # of connection points: 6
#     Node 4, Type 0, BuildingBlock: BETDEL_clean_sbu_0, # of connection points: 6
#     Node 5, Type 0, BuildingBlock: BETDEL_clean_sbu_0, # of connection points: 6
#     Node 6, Type 0, BuildingBlock: BETDEL_clean_sbu_0, # of connection points: 6
#     Node 7, Type 0, BuildingBlock: BETDEL_clean_sbu_0, # of connection points: 6
#     Node 8, Type 0, BuildingBlock: BETDEL_clean_sbu_0, # of connection points: 6
#     Node 9, Type 0, BuildingBlock: BETDEL_clean_sbu_0, # of connection points: 6
#     Node 10, Type 0, BuildingBlock: BETDEL_clean_sbu_0, # of connection points: 6
#     Node 11, Type 0, BuildingBlock: BETDEL_clean_sbu_0, # of connection points: 6
#     Node 12, Type 0, BuildingBlock: BETDEL_clean_sbu_0, # of connection points: 6
#     Node 13, Type 0, BuildingBlock: BETDEL_clean_sbu_0, # of connection points: 6
#     Node 14, Type 0, BuildingBlock: BETDEL_clean_sbu_0, # of connection points: 6
#     Node 15, Type 0, BuildingBlock: BETDEL_clean_sbu_0, # of connection points: 6
#     Edge 16, Type (0, 0), BuildingBlock: XIVTED_clean_linker_0, # of connection points: 2
#     Edge 17, Type (0, 0), BuildingBlock: XIVTED_clean_linker_0, # of connection points: 2
#     Edge 18, Type (0, 0), BuildingBlock: XIVTED_clean_linker_0, # of connection points: 2
#     Edge 19, Type (0, 0), BuildingBlock: XIVTED_clean_linker_0, # of connection points: 2
#     Edge 20, Type (0, 0), BuildingBlock: XIVTED_clean_linker_0, # of connection points: 2
#     Edge 21, Type (0, 0), BuildingBlock: XIVTED_clean_linker_0, # of connection points: 2
#     Edge 22, Type (0, 0), BuildingBlock: XIVTED_clean_linker_0, # of connection points: 2
#     Edge 23, Type (0, 0), BuildingBlock: XIVTED_clean_linker_0, # of connection points: 2
#     Edge 24, Type (0, 0), BuildingBlock: XIVTED_clean_linker_0, # of connection points: 2
#     Edge 25, Type (0, 0), BuildingBlock: XIVTED_clean_linker_0, # of connection points: 2
#     Edge 26, Type (0, 0), BuildingBlock: XIVTED_clean_linker_0, # of connection points: 2
#     Edge 27, Type (0, 0), BuildingBlock: XIVTED_clean_linker_0, # of connection points: 2
#     Edge 28, Type (0, 0), BuildingBlock: XIVTED_clean_linker_0, # of connection points: 2
#     Edge 29, Type (0, 0), BuildingBlock: XIVTED_clean_linker_0, # of connection points: 2
#     Edge 30, Type (0, 0), BuildingBlock: XIVTED_clean_linker_0, # of connection points: 2
#     Edge 31, Type (0, 0), BuildingBlock: XIVTED_clean_linker_0, # of connection points: 2
#     Edge 32, Type (0, 0), BuildingBlock: XIVTED_clean_linker_0, # of connection points: 2
#     Edge 33, Type (0, 0), BuildingBlock: XIVTED_clean_linker_0, # of connection points: 2
#     Edge 34, Type (0, 0), BuildingBlock: XIVTED_clean_linker_0, # of connection points: 2
#     Edge 35, Type (0, 0), BuildingBlock: XIVTED_clean_linker_0, # of connection points: 2
#     Edge 36, Type (0, 0), BuildingBlock: XIVTED_clean_linker_0, # of connection points: 2
#     Edge 37, Type (0, 0), BuildingBlock: XIVTED_clean_linker_0, # of connection points: 2
#     Edge 38, Type (0, 0), BuildingBlock: XIVTED_clean_linker_0, # of connection points: 2
#     Edge 39, Type (0, 0), BuildingBlock: XIVTED_clean_linker_0, # of connection points: 2
#     Edge 40, Type (0, 0), BuildingBlock: XIVTED_clean_linker_0, # of connection points: 2
#     Edge 41, Type (0, 0), BuildingBlock: XIVTED_clean_linker_0, # of connection points: 2
#     Edge 42, Type (0, 0), BuildingBlock: XIVTED_clean_linker_0, # of connection points: 2
#     Edge 43, Type (0, 0), BuildingBlock: XIVTED_clean_linker_0, # of connection points: 2
#     Edge 44, Type (0, 0), BuildingBlock: XIVTED_clean_linker_0, # of connection points: 2
#     Edge 45, Type (0, 0), BuildingBlock: XIVTED_clean_linker_0, # of connection points: 2
#     Edge 46, Type (0, 0), BuildingBlock: XIVTED_clean_linker_0, # of connection points: 2
#     Edge 47, Type (0, 0), BuildingBlock: XIVTED_clean_linker_0, # of connection points: 2
#     Edge 48, Type (0, 0), BuildingBlock: XIVTED_clean_linker_0, # of connection points: 2
#     Edge 49, Type (0, 0), BuildingBlock: XIVTED_clean_linker_0, # of connection points: 2
#     Edge 50, Type (0, 0), BuildingBlock: XIVTED_clean_linker_0, # of connection points: 2
#     Edge 51, Type (0, 0), BuildingBlock: XIVTED_clean_linker_0, # of connection points: 2
#     Edge 52, Type (0, 0), BuildingBlock: XIVTED_clean_linker_0, # of connection points: 2
#     Edge 53, Type (0, 0), BuildingBlock: XIVTED_clean_linker_0, # of connection points: 2
#     Edge 54, Type (0, 0), BuildingBlock: XIVTED_clean_linker_0, # of connection points: 2
#     Edge 55, Type (0, 0), BuildingBlock: XIVTED_clean_linker_0, # of connection points: 2
#     Edge 56, Type (0, 0), BuildingBlock: XIVTED_clean_linker_0, # of connection points: 2
#     Edge 57, Type (0, 0), BuildingBlock: XIVTED_clean_linker_0, # of connection points: 2
#     Edge 58, Type (0, 0), BuildingBlock: XIVTED_clean_linker_0, # of connection points: 2
#     Edge 59, Type (0, 0), BuildingBlock: XIVTED_clean_linker_0, # of connection points: 2
#     Edge 60, Type (0, 0), BuildingBlock: XIVTED_clean_linker_0, # of connection points: 2
#     Edge 61, Type (0, 0), BuildingBlock: XIVTED_clean_linker_0, # of connection points: 2
#     Edge 62, Type (0, 0), BuildingBlock: XIVTED_clean_linker_0, # of connection points: 2
#     Edge 63, Type (0, 0), BuildingBlock: XIVTED_clean_linker_0, # of connection points: 2
# Relax obj value: 0.451
# Max RMSD: 0.288
# Mean RMSD: 0.288
data_MOF--net-whk--node1-BETDEL_clean_sbu_0--edge1-XIVTED_clean_linker_0
_symmetry_space_group_name_H-M    P1
_symmetry_Int_Tables_number       1
_symmetry_cell_setting            triclinic
loop_
_symmetry_equiv_pos_as_xyz
'x, y, z'
_cell_length_a     39.207507
_cell_length_b     39.14594
_cell_length_c     41.301361
_cell_angle_alpha  89.972279
_cell_angle_beta   90.016754
_cell_angle_gamma 90.025248
loop_
_atom_site_label
_atom_site_type_symbol
_atom_site_fract_x
_atom_site_fract_y
_atom_site_fract_z
_atom_type_partial_charge
Dy0 Dy 0.56173 0.20995 0.41668 0.0
C1 C 0.45423 0.1237 0.4446 0.0
C2 C 0.61802 0.24762 0.40311 0.0
Dy3 Dy 0.50955 0.16576 0.44693 0.0
O4 O 0.59963 0.23173 0.38183 0.0
O5 O 0.60485 0.24368 0.43167 0.0
O6 O 0.54359 0.19252 0.36825 0.0
O7 O 0.54517 0.15768 0.40654 0.0
C8 C 0.53852 0.16101 0.3767 0.0
C9 C 0.5357 0.21217 0.48736 0.0
O10 O 0.55417 0.13445 0.46309 0.0
O11 O 0.59435 0.17426 0.44629 0.0
O12 O 0.46247 0.14236 0.46953 0.0
O13 O 0.47677 0.12726 0.42191 0.0
O14 O 0.5253 0.18219 0.4972 0.0
O15 O 0.52848 0.21641 0.45789 0.0
O16 O 0.51926 0.24651 0.41059 0.0
O17 O 0.47714 0.20781 0.4244 0.0
C18 C 0.58612 0.1455 0.46142 0.0
C19 C 0.48677 0.23824 0.41335 0.0
Dy20 Dy 0.27581 0.56471 0.41498 0.0
C21 C 0.36156 0.45683 0.44176 0.0
C22 C 0.23846 0.62134 0.40177 0.0
Dy23 Dy 0.31968 0.51227 0.44427 0.0
O24 O 0.25379 0.60271 0.38034 0.0
O25 O 0.24272 0.60818 0.43031 0.0
O26 O 0.29278 0.54709 0.36626 0.0
O27 O 0.32801 0.5484 0.40421 0.0
C28 C 0.32434 0.54208 0.37432 0.0
C29 C 0.27344 0.53745 0.48535 0.0
O30 O 0.3511 0.55662 0.4611 0.0
O31 O 0.31135 0.59706 0.44501 0.0
O32 O 0.34328 0.46527 0.46684 0.0
O33 O 0.35767 0.47919 0.41891 0.0
O34 O 0.30349 0.52703 0.4948 0.0
O35 O 0.26903 0.53083 0.45578 0.0
O36 O 0.23901 0.52244 0.40853 0.0
O37 O 0.27756 0.48 0.42164 0.0
C38 C 0.34007 0.58863 0.46 0.0
C39 C 0.24717 0.48984 0.41082 0.0
Dy40 Dy 0.92172 0.27772 0.41589 0.0
C41 C 0.02952 0.3639 0.44254 0.0
C42 C 0.86592 0.23913 0.40283 0.0
Dy43 Dy 0.97395 0.32215 0.44499 0.0
O44 O 0.88339 0.25592 0.38149 0.0
O45 O 0.87954 0.24291 0.43122 0.0
O46 O 0.93967 0.2941 0.36709 0.0
O47 O 0.93812 0.32987 0.40462 0.0
C48 C 0.94459 0.32582 0.3748 0.0
C49 C 0.94857 0.27615 0.48636 0.0
O50 O 0.92949 0.35384 0.46082 0.0
O51 O 0.88923 0.31354 0.44546 0.0
O52 O 0.02036 0.34642 0.46795 0.0
O53 O 0.00777 0.35934 0.41931 0.0
O54 O 0.95883 0.30636 0.4956 0.0
O55 O 0.9554 0.27153 0.45688 0.0
O56 O 0.96414 0.24111 0.40972 0.0
O57 O 0.00638 0.2798 0.42307 0.0
C58 C 0.89756 0.34264 0.4599 0.0
C59 C -0.00333 0.2493 0.41232 0.0
Dy60 Dy 0.2081 0.92406 0.41507 0.0
C61 C 0.12048 0.03024 0.44363 0.0
C62 C 0.24746 0.86921 0.40059 0.0
Dy63 Dy 0.16324 0.97547 0.44557 0.0
O64 O 0.2295 0.88635 0.37987 0.0
O65 O 0.24432 0.8826 0.42915 0.0
O66 O 0.19111 0.94299 0.36678 0.0
O67 O 0.15585 0.94029 0.40464 0.0
C68 C 0.1595 0.94753 0.37494 0.0
C69 C 0.20968 0.9494 0.48595 0.0
O70 O 0.13263 0.93022 0.46131 0.0
O71 O 0.17297 0.89059 0.44455 0.0
O72 O 0.13936 0.02215 0.46845 0.0
O73 O 0.12422 0.00784 0.42081 0.0
O74 O 0.1796 0.95933 0.4958 0.0
O75 O 0.21388 0.95701 0.45657 0.0
O76 O 0.24401 0.96722 0.4094 0.0
O77 O 0.20507 0.00882 0.42389 0.0
C78 C 0.14412 0.89839 0.45965 0.0
C79 C 0.23552 -0.00036 0.41273 0.0
Dy80 Dy 0.06356 0.77906 0.16382 0.0
C81 C 0.95225 0.85696 0.13491 0.0
C82 C 0.12001 0.74278 0.17991 0.0
Dy83 Dy 0.01157 0.82113 0.13231 0.0
O84 O 0.10291 0.762 0.19957 0.0
O85 O 0.10572 0.74293 0.1516 0.0
O86 O 0.04249 0.79547 0.21144 0.0
O87 O 0.04539 0.83105 0.17378 0.0
C88 C 0.03774 0.82714 0.20336 0.0
C89 C 0.03928 0.77543 0.09198 0.0
O90 O 0.05567 0.85515 0.12012 0.0
O91 O 0.09605 0.81457 0.13402 0.0
O92 O 0.97159 0.85503 0.10925 0.0
O93 O 0.96584 0.84034 0.15875 0.0
O94 O 0.02699 0.80454 0.08194 0.0
O95 O 0.03215 0.77114 0.12141 0.0
O96 O 0.02226 0.74101 0.17002 0.0
O97 O 0.97989 0.77637 0.15044 0.0
C98 C 0.08763 0.84408 0.12049 0.0
C99 C 0.98983 0.74716 0.16382 0.0
Dy100 Dy 0.70701 0.06722 0.16503 0.0
C101 C 0.62558 0.95606 0.13834 0.0
C102 C 0.74223 0.12474 0.17954 0.0
Dy103 Dy 0.66549 0.01289 0.13511 0.0
O104 O 0.72637 0.10585 0.20043 0.0
O105 O 0.73941 0.1116 0.15085 0.0
O106 O 0.69135 0.04725 0.21337 0.0
O107 O 0.65588 0.04798 0.17564 0.0
C108 C 0.65993 0.04122 0.20538 0.0
C109 C 0.70966 0.04149 0.09405 0.0
O110 O 0.63234 0.05634 0.11879 0.0
O111 O 0.67024 0.09837 0.13548 0.0
O112 O 0.64284 0.96524 0.1128 0.0
O113 O 0.62949 0.97831 0.16125 0.0
O114 O 0.68035 0.02915 0.08449 0.0
O115 O 0.71453 0.03465 0.12348 0.0
O116 O 0.74634 0.02718 0.16899 0.0
O117 O 0.71028 0.98254 0.15617 0.0
C118 C 0.64199 0.08882 0.12033 0.0
C119 C 0.74058 -0.00584 0.16578 0.0
Dy120 Dy 0.42356 0.71047 0.16078 0.0
C121 C 0.53086 0.62399 0.13434 0.0
C122 C 0.36778 0.74897 0.17392 0.0
Dy123 Dy 0.47558 0.666 0.13161 0.0
O124 O 0.38652 0.7339 0.19545 0.0
O125 O 0.38022 0.74365 0.14528 0.0
O126 O 0.44087 0.6934 0.20959 0.0
O127 O 0.43944 0.65809 0.17171 0.0
C128 C 0.44572 0.66176 0.20161 0.0
C129 C 0.45077 0.71262 0.09053 0.0
O130 O 0.43111 0.63468 0.11513 0.0
O131 O 0.39094 0.67479 0.13107 0.0
O132 O 0.52263 0.64241 0.10925 0.0
O133 O 0.5083 0.6277 0.15698 0.0
O134 O 0.46082 0.68243 0.08105 0.0
O135 O 0.45751 0.71688 0.12008 0.0
O136 O 0.46622 0.74688 0.16696 0.0
O137 O 0.50816 0.70759 0.15461 0.0
C138 C 0.3992 0.64588 0.11626 0.0
C139 C 0.49867 0.73823 0.1651 0.0
Dy140 Dy 0.77484 0.42457 0.1615 0.0
C141 C 0.8643 0.52867 0.13217 0.0
C142 C 0.73366 0.3714 0.17714 0.0
Dy143 Dy 0.81985 0.47531 0.13134 0.0
O144 O 0.75128 0.38916 0.19761 0.0
O145 O 0.73839 0.38306 0.14808 0.0
O146 O 0.79296 0.44223 0.20985 0.0
O147 O 0.82767 0.43931 0.17162 0.0
C148 C 0.82456 0.44611 0.20146 0.0
C149 C 0.77208 0.45132 0.0911 0.0
O150 O 0.84938 0.42991 0.11452 0.0
O151 O 0.80873 0.39056 0.13113 0.0
O152 O 0.8442 0.52145 0.10802 0.0
O153 O 0.86072 0.50625 0.15499 0.0
O154 O 0.80234 0.46054 0.08115 0.0
O155 O 0.76842 0.45837 0.12065 0.0
O156 O 0.73992 0.46841 0.16781 0.0
O157 O 0.7799 0.50944 0.15473 0.0
C158 C 0.83748 0.39824 0.11574 0.0
C159 C 0.74926 0.50069 0.16567 0.0
Dy160 Dy 0.47413 0.82337 0.63083 0.0
C161 C 0.37127 0.73829 0.68073 0.0
C162 C 0.528 0.86725 0.63084 0.0
Dy163 Dy 0.4242 0.77872 0.66283 0.0
O164 O 0.51953 0.84795 0.60644 0.0
O165 O 0.50649 0.86323 0.65435 0.0
O166 O 0.45765 0.80606 0.58113 0.0
O167 O 0.45622 0.77204 0.62077 0.0
C168 C 0.44832 0.77589 0.59139 0.0
C169 C 0.44794 0.82851 0.70167 0.0
O170 O 0.46781 0.74342 0.66833 0.0
O171 O 0.50861 0.78266 0.65267 0.0
O172 O 0.38845 0.7578 0.70008 0.0
O173 O 0.38333 0.74076 0.65159 0.0
O174 O 0.44454 0.79685 0.71027 0.0
O175 O 0.43968 0.83148 0.67216 0.0
O176 O 0.4284 0.85323 0.61542 0.0
O177 O 0.38957 0.81251 0.63303 0.0
C178 C 0.5 0.75227 0.66447 0.0
C179 C 0.3968 0.84131 0.61746 0.0
Dy180 Dy 0.66456 0.47755 0.63131 0.0
C181 C 0.74778 0.37068 0.67625 0.0
C182 C 0.62251 0.53286 0.63341 0.0
Dy183 Dy 0.70865 0.42561 0.66146 0.0
O184 O 0.64093 0.52439 0.60842 0.0
O185 O 0.62627 0.51053 0.6563 0.0
O186 O 0.68139 0.46238 0.58103 0.0
O187 O 0.71538 0.45915 0.6205 0.0
C188 C 0.71138 0.45226 0.59094 0.0
C189 C 0.65974 0.44883 0.70147 0.0
O190 O 0.74484 0.4685 0.66783 0.0
O191 O 0.70604 0.51045 0.65403 0.0
O192 O 0.73008 0.38811 0.69692 0.0
O193 O 0.74438 0.38366 0.64754 0.0
O194 O 0.69131 0.44427 0.70974 0.0
O195 O 0.65635 0.44176 0.67172 0.0
O196 O 0.63354 0.43285 0.615 0.0
O197 O 0.67359 0.3927 0.63126 0.0
C198 C 0.73641 0.50101 0.66516 0.0
C199 C 0.6448 0.40092 0.61619 0.0
Dy200 Dy 0.01174 0.66674 0.63501 0.0
C201 C 0.12463 0.74174 0.67889 0.0
C202 C 0.95449 0.6274 0.63837 0.0
Dy203 Dy 0.06665 0.70733 0.66445 0.0
O204 O 0.96373 0.64471 0.61287 0.0
O205 O 0.97692 0.63095 0.66117 0.0
O206 O 0.02703 0.68224 0.58428 0.0
O207 O 0.03357 0.716 0.62349 0.0
C208 C 0.03963 0.71144 0.59386 0.0
C209 C 0.04066 0.66013 0.70486 0.0
O210 O 0.02715 0.74718 0.66901 0.0
O211 O 0.98212 0.71132 0.65722 0.0
O212 O 0.10534 0.72653 0.69987 0.0
O213 O 0.11169 0.7387 0.65014 0.0
O214 O 0.04693 0.69154 0.71285 0.0
O215 O 0.04724 0.65617 0.67508 0.0
O216 O 0.05437 0.63314 0.61783 0.0
O217 O 0.09695 0.67054 0.63413 0.0
C218 C -0.00594 0.74158 0.66665 0.0
C219 C 0.08691 0.64246 0.61893 0.0
Dy220 Dy 0.82075 0.01235 0.63215 0.0
C221 C 0.74513 0.12256 0.67973 0.0
C222 C 0.85624 0.95282 0.63504 0.0
Dy223 Dy 0.77976 0.06503 0.66369 0.0
O224 O 0.85447 0.97212 0.60931 0.0
O225 O 0.83956 0.96651 0.65877 0.0
O226 O 0.80339 0.02699 0.58179 0.0
O227 O 0.77086 0.03325 0.62175 0.0
C228 C 0.77463 0.03972 0.59213 0.0
C229 C 0.82827 0.03903 0.70274 0.0
O230 O 0.74114 0.02424 0.67021 0.0
O231 O 0.77587 0.9812 0.65094 0.0
O232 O 0.76264 0.1041 0.69975 0.0
O233 O 0.74584 0.1089 0.65116 0.0
O234 O 0.79684 0.0441 0.71123 0.0
O235 O 0.83166 0.04659 0.6731 0.0
O236 O 0.85497 0.05611 0.61914 0.0
O237 O 0.81507 0.09702 0.63318 0.0
C238 C 0.74686 0.99161 0.66433 0.0
C239 C 0.84427 0.08824 0.61935 0.0
Dy240 Dy 0.97325 0.16357 0.94627 0.0
C241 C 0.87136 0.25068 0.89661 0.0
C242 C 0.02628 0.11872 0.94598 0.0
Dy243 Dy 0.92342 0.20916 0.91447 0.0
O244 O 0.01905 0.13904 0.96999 0.0
O245 O 0.00402 0.12231 0.92303 0.0
O246 O 0.95631 0.17984 0.99608 0.0
O247 O 0.95515 0.21464 0.95696 0.0
C248 C 0.94694 0.21014 0.9862 0.0
C249 C 0.94726 0.15969 0.87531 0.0
O250 O 0.96745 0.24405 0.90954 0.0
O251 O 0.00799 0.20446 0.92511 0.0
O252 O 0.88736 0.23001 0.87746 0.0
O253 O 0.8839 0.24859 0.9256 0.0
O254 O 0.94375 0.19139 0.86684 0.0
O255 O 0.93893 0.15656 0.90476 0.0
O256 O 0.92709 0.13415 0.96127 0.0
O257 O 0.88853 0.17529 0.94387 0.0
C258 C -0.00044 0.23502 0.91361 0.0
C259 C 0.89559 0.14632 0.95924 0.0
Dy260 Dy 0.31961 0.97365 0.94429 0.0
C261 C 0.24454 0.86333 0.89632 0.0
C262 C 0.35505 0.03326 0.94165 0.0
Dy263 Dy 0.27857 0.92112 0.91288 0.0
O264 O 0.35371 0.01359 0.96713 0.0
O265 O 0.33791 0.01994 0.91801 0.0
O266 O 0.30304 0.95883 0.99477 0.0
O267 O 0.2699 0.9524 0.95528 0.0
C268 C 0.27419 0.9459 0.98485 0.0
C269 C 0.32633 0.94789 0.87346 0.0
O270 O 0.23949 0.96159 0.90733 0.0
O271 O 0.27447 0.00474 0.92601 0.0
O272 O 0.26179 0.88223 0.87647 0.0
O273 O 0.24508 0.87677 0.92499 0.0
O274 O 0.29477 0.94286 0.86538 0.0
O275 O 0.33026 0.93993 0.90295 0.0
O276 O 0.35419 0.92998 0.95668 0.0
O277 O 0.31427 0.88903 0.9428 0.0
C278 C 0.2452 -0.00575 0.91315 0.0
C279 C 0.34361 0.89781 0.95635 0.0
Dy280 Dy 0.51129 0.31899 0.9424 0.0
C281 C 0.6254 0.24641 0.89904 0.0
C282 C 0.4534 0.35742 0.93954 0.0
Dy283 Dy 0.56621 0.27891 0.913 0.0
O284 O 0.46373 0.34111 0.96525 0.0
O285 O 0.47507 0.35336 0.91619 0.0
O286 O 0.52648 0.30349 0.99313 0.0
O287 O 0.53329 0.26974 0.95401 0.0
C288 C 0.5392 0.27433 0.98366 0.0
C289 C 0.53998 0.32586 0.87248 0.0
O290 O 0.52721 0.23849 0.9087 0.0
O291 O 0.48199 0.2742 0.92006 0.0
O292 O 0.60496 0.2595 0.87774 0.0
O293 O 0.61266 0.25002 0.92779 0.0
O294 O 0.54633 0.29445 0.8646 0.0
O295 O 0.54658 0.32999 0.90225 0.0
O296 O 0.55363 0.35327 0.95925 0.0
O297 O 0.59629 0.31608 0.94302 0.0
C298 C 0.49408 0.24396 0.91079 0.0
C299 C 0.58621 0.3442 0.95804 0.0
Dy300 Dy 0.1651 0.50939 0.94693 0.0
C301 C 0.24838 0.61564 0.90023 0.0
C302 C 0.12281 0.4542 0.94515 0.0
Dy303 Dy 0.20904 0.56114 0.91607 0.0
O304 O 0.14139 0.46268 0.97005 0.0
O305 O 0.12654 0.47648 0.9222 0.0
O306 O 0.18256 0.5247 0.99697 0.0
O307 O 0.2161 0.52778 0.95713 0.0
C308 C 0.21243 0.53481 0.9867 0.0
C309 C 0.15937 0.538 0.87679 0.0
O310 O 0.24493 0.51807 0.90938 0.0
O311 O 0.20629 0.47628 0.92411 0.0
O312 O 0.23014 0.59819 0.88 0.0
O313 O 0.24532 0.60299 0.92912 0.0
O314 O 0.19082 0.54239 0.86807 0.0
O315 O 0.15653 0.54512 0.90658 0.0
O316 O 0.13454 0.5543 0.96346 0.0
O317 O 0.17453 0.59429 0.94659 0.0
C318 C 0.23647 0.4856 0.91243 0.0
C319 C 0.14593 0.58619 0.96204 0.0
H320 H 0.56842 0.09836 0.38647 0.0
H321 H 0.59599 0.06831 0.19632 0.0
H322 H 0.52453 0.1619 0.31204 0.0
H323 H 0.66258 0.02828 0.27026 0.0
H324 H 0.55794 0.09002 0.2387 0.0
H325 H 0.5909 0.06031 0.34439 0.0
C326 C 0.56267 0.10379 0.36133 0.0
C327 C 0.54483 0.13354 0.3527 0.0
C328 C 0.58053 0.07587 0.24563 0.0
C329 C 0.57069 0.09024 0.30446 0.0
C330 C 0.60213 0.06323 0.22143 0.0
C331 C 0.63271 0.04675 0.2298 0.0
C332 C 0.58938 0.07174 0.27839 0.0
C333 C 0.6394 0.04107 0.26277 0.0
C334 C 0.57575 0.0822 0.33731 0.0
C335 C 0.53836 0.13937 0.31971 0.0
N336 N 0.61815 0.05384 0.28585 0.0
N337 N 0.55155 0.11816 0.29681 0.0
H338 H 0.41549 0.59905 0.19268 0.0
H339 H 0.38732 0.57158 0.38331 0.0
H340 H 0.4593 0.66363 0.2663 0.0
H341 H 0.32237 0.52848 0.30963 0.0
H342 H 0.42507 0.59367 0.34077 0.0
H343 H 0.39284 0.56163 0.23527 0.0
C344 C 0.42116 0.60485 0.21776 0.0
C345 C 0.43908 0.63468 0.22599 0.0
C346 C 0.4029 0.5788 0.33394 0.0
C347 C 0.413 0.59212 0.27483 0.0
C348 C 0.38149 0.56595 0.35823 0.0
C349 C 0.35147 0.5484 0.34997 0.0
C350 C 0.39442 0.57383 0.30117 0.0
C351 C 0.34512 0.54208 0.31704 0.0
C352 C 0.40798 0.58363 0.24207 0.0
C353 C 0.44543 0.64101 0.25892 0.0
N354 N 0.36617 0.55504 0.29387 0.0
N355 N 0.43215 0.62016 0.28211 0.0
H356 H 0.91569 0.38922 0.3831 0.0
H357 H 0.88655 0.41464 0.19234 0.0
H358 H 0.95768 0.32282 0.31004 0.0
H359 H 0.82367 0.46071 0.26595 0.0
H360 H 0.9241 0.39216 0.23487 0.0
H361 H 0.89358 0.42654 0.34021 0.0
C362 C 0.92107 0.38297 0.35807 0.0
C363 C 0.9383 0.35268 0.35011 0.0
C364 C 0.90245 0.40774 0.24167 0.0
C365 C 0.91282 0.39512 0.3009 0.0
C366 C 0.88115 0.42082 0.21738 0.0
C367 C 0.85176 0.43934 0.22565 0.0
C368 C 0.89447 0.41347 0.27444 0.0
C369 C 0.84594 0.44635 0.25854 0.0
C370 C 0.9082 0.40415 0.33358 0.0
C371 C 0.94432 0.3458 0.31723 0.0
N372 N 0.86685 0.43316 0.28171 0.0
N373 N 0.93133 0.36661 0.29386 0.0
H374 H 0.16114 0.96356 0.31078 0.0
H375 H 0.02194 0.82499 0.26759 0.0
H376 H 0.09716 0.9164 0.38295 0.0
H377 H 0.06866 0.88968 0.19567 0.0
H378 H 0.04398 0.86257 0.31008 0.0
H379 H 0.12315 0.94193 0.26847 0.0
C380 C 0.13861 0.94932 0.31775 0.0
C381 C 0.13246 0.9416 0.35042 0.0
C382 C 0.04885 0.86902 0.28501 0.0
C383 C 0.0892 0.91592 0.302 0.0
C384 C 0.03614 0.84761 0.26071 0.0
C385 C 0.04364 0.85405 0.22805 0.0
C386 C 0.06979 0.89682 0.27667 0.0
C387 C 0.06225 0.88369 0.22053 0.0
C388 C 0.11695 0.93685 0.29356 0.0
C389 C 0.10291 0.92296 0.35807 0.0
N390 N 0.07523 0.90357 0.24466 0.0
N391 N 0.08277 0.91021 0.33403 0.0
H392 H 0.32385 0.96413 0.80933 0.0
H393 H 0.46521 0.82798 0.76554 0.0
H394 H 0.38934 0.91809 0.88093 0.0
H395 H 0.41511 0.89002 0.69359 0.0
H396 H 0.44322 0.86572 0.80786 0.0
H397 H 0.36169 0.94306 0.76668 0.0
C398 C 0.34668 0.95028 0.8161 0.0
C399 C 0.35328 0.94265 0.84872 0.0
C400 C 0.43756 0.87157 0.78281 0.0
C401 C 0.39638 0.91762 0.79992 0.0
C402 C 0.45023 0.85006 0.7586 0.0
C403 C 0.44178 0.85569 0.72601 0.0
C404 C 0.4157 0.89864 0.77447 0.0
C405 C 0.42223 0.88467 0.7184 0.0
C406 C 0.36824 0.93812 0.79172 0.0
C407 C 0.38321 0.92454 0.85611 0.0
N408 N 0.40932 0.90465 0.74248 0.0
N409 N 0.40327 0.91209 0.83189 0.0
H410 H 0.52457 0.32338 0.80824 0.0
H411 H 0.66073 0.465 0.76557 0.0
H412 H 0.56926 0.38918 0.88036 0.0
H413 H 0.598 0.41659 0.69317 0.0
H414 H 0.62299 0.44263 0.80774 0.0
H415 H 0.54585 0.36153 0.76583 0.0
C416 C 0.53816 0.34635 0.81517 0.0
C417 C 0.54531 0.35298 0.84787 0.0
C418 C 0.61699 0.43744 0.78263 0.0
C419 C 0.57063 0.3964 0.79936 0.0
C420 C 0.6385 0.45033 0.75852 0.0
C421 C 0.63264 0.44249 0.72583 0.0
C422 C 0.58971 0.41595 0.77409 0.0
C423 C 0.6035 0.42328 0.71807 0.0
C424 C 0.55043 0.36809 0.79093 0.0
C425 C 0.56313 0.38306 0.85547 0.0
N426 N 0.58352 0.41012 0.74204 0.0
N427 N 0.57574 0.40328 0.83139 0.0
H428 H 0.06778 0.59605 0.69603 0.0
H429 H 0.09746 0.56938 0.88645 0.0
H430 H 0.02739 0.66281 0.76961 0.0
H431 H 0.15954 0.52311 0.81234 0.0
H432 H 0.0597 0.59211 0.84423 0.0
H433 H 0.08915 0.55794 0.73863 0.0
C434 C 0.06255 0.60221 0.72111 0.0
C435 C 0.04605 0.63284 0.72931 0.0
C436 C 0.0812 0.5764 0.83725 0.0
C437 C 0.0707 0.58949 0.77817 0.0
C438 C 0.10261 0.56317 0.86136 0.0
C439 C 0.13189 0.54457 0.85286 0.0
C440 C 0.08894 0.57074 0.80443 0.0
C441 C 0.13739 0.53754 0.81993 0.0
C442 C 0.07501 0.58058 0.74543 0.0
C443 C 0.0402 0.63958 0.76224 0.0
N444 N 0.11638 0.5509 0.79693 0.0
N445 N 0.0528 0.61833 0.78544 0.0
H446 H 0.89105 0.06886 0.69372 0.0
H447 H 0.918 0.09657 0.88427 0.0
H448 H 0.8269 0.02425 0.76725 0.0
H449 H 0.96166 0.16138 0.81069 0.0
H450 H 0.89646 0.05855 0.84173 0.0
H451 H 0.92865 0.09103 0.73629 0.0
C452 C 0.88539 0.06287 0.71876 0.0
C453 C 0.8556 0.04493 0.72698 0.0
C454 C 0.91132 0.08074 0.83493 0.0
C455 C 0.89835 0.07052 0.77582 0.0
C456 C 0.92385 0.10234 0.85922 0.0
C457 C 0.94133 0.13242 0.85098 0.0
C458 C 0.91653 0.08913 0.80218 0.0
C459 C 0.94804 0.13861 0.81809 0.0
C460 C 0.90672 0.07579 0.74308 0.0
C461 C 0.84948 0.03817 0.75987 0.0
N462 N 0.93533 0.11741 0.79491 0.0
N463 N 0.8704 0.05126 0.78307 0.0
H464 H 0.43809 0.08078 0.39558 0.0
H465 H 0.24277 0.05852 0.44792 0.0
H466 H 0.39617 0.12656 0.48178 0.0
H467 H 0.29282 -0.00344 0.37585 0.0
H468 H 0.29587 0.09083 0.45522 0.0
H469 H 0.38273 0.0552 0.38399 0.0
C470 C 0.41722 0.08517 0.41225 0.0
C471 C 0.4217 0.10554 0.43982 0.0
C472 C 0.29501 0.07049 0.43747 0.0
C473 C 0.35797 0.07684 0.42639 0.0
C474 C 0.2646 0.05239 0.43294 0.0
C475 C 0.26349 0.0248 0.41127 0.0
C476 C 0.32426 0.06102 0.41999 0.0
C477 C 0.29266 0.01758 0.39289 0.0
C478 C 0.38556 0.07071 0.40553 0.0
C479 C 0.39377 0.11067 0.46046 0.0
N480 N 0.32188 0.03539 0.39782 0.0
N481 N 0.36296 0.09646 0.45327 0.0
H482 H 0.40431 0.44042 0.39269 0.0
H483 H 0.42691 0.24544 0.44681 0.0
H484 H 0.35915 0.39915 0.47953 0.0
H485 H 0.49119 0.29577 0.3767 0.0
H486 H 0.3943 0.29851 0.45303 0.0
H487 H 0.4304 0.38503 0.38182 0.0
C488 C 0.40015 0.41969 0.40964 0.0
C489 C 0.37983 0.42434 0.43719 0.0
C490 C 0.41524 0.29772 0.43595 0.0
C491 C 0.40906 0.36067 0.42458 0.0
C492 C 0.43353 0.26733 0.43204 0.0
C493 C 0.46182 0.26631 0.41125 0.0
C494 C 0.4252 0.32701 0.41871 0.0
C495 C 0.46962 0.29555 0.39308 0.0
C496 C 0.4149 0.38804 0.40333 0.0
C497 C 0.37498 0.39661 0.4582 0.0
N498 N 0.45157 0.32475 0.39738 0.0
N499 N 0.38944 0.36582 0.4514 0.0
H500 H 0.08581 0.36301 0.48206 0.0
H501 H 0.19078 0.49361 0.37274 0.0
H502 H 0.04766 0.40478 0.39245 0.0
H503 H 0.23847 0.43126 0.44599 0.0
H504 H 0.13812 0.46111 0.3795 0.0
H505 H 0.14152 0.38929 0.47083 0.0
C506 C 0.0891 0.378 0.46023 0.0
C507 C 0.06217 0.38198 0.43823 0.0
C508 C 0.16023 0.45409 0.39374 0.0
C509 C 0.12556 0.41158 0.42504 0.0
C510 C 0.19036 0.47248 0.38969 0.0
C511 C 0.21898 0.46503 0.40876 0.0
C512 C 0.15847 0.42848 0.41751 0.0
C513 C 0.21704 0.43759 0.43057 0.0
C514 C 0.12092 0.39265 0.45365 0.0
C515 C 0.06777 0.40124 0.41011 0.0
N516 N 0.18706 0.42063 0.43477 0.0
N517 N 0.09878 0.41541 0.40437 0.0
H518 H 0.07669 0.04594 0.39518 0.0
H519 H 0.05631 0.24208 0.44618 0.0
H520 H 0.12366 0.08848 0.48057 0.0
H521 H 0.99205 0.1914 0.3763 0.0
H522 H 0.08835 0.18879 0.45335 0.0
H523 H 0.05089 0.1013 0.38367 0.0
C524 C 0.08128 0.06694 0.4117 0.0
C525 C 0.10206 0.06266 0.43901 0.0
C526 C 0.06755 0.18954 0.43611 0.0
C527 C 0.07317 0.12634 0.42564 0.0
C528 C 0.0496 0.22005 0.43164 0.0
C529 C 0.02147 0.22106 0.41064 0.0
C530 C 0.0574 0.16009 0.41923 0.0
C531 C 0.01351 0.19165 0.39281 0.0
C532 C 0.0667 0.09859 0.40502 0.0
C533 C 0.10745 0.09073 0.45946 0.0
N534 N 0.03122 0.16232 0.39767 0.0
N535 N 0.09316 0.12153 0.45229 0.0
H536 H 0.89978 0.83988 0.17433 0.0
H537 H 0.80653 0.01408 0.15945 0.0
H538 H 0.92941 0.91273 0.10121 0.0
H539 H 0.74412 0.92342 0.16736 0.0
H540 H 0.85599 0.97847 0.14923 0.0
H541 H 0.84582 0.87079 0.18163 0.0
C542 C 0.89477 0.86231 0.1597 0.0
C543 C 0.91896 0.87403 0.13724 0.0
C544 C 0.83149 0.96641 0.15336 0.0
C545 C 0.85808 0.90952 0.146 0.0
C546 C 0.80318 0.98662 0.15964 0.0
C547 C 0.77092 0.97172 0.16443 0.0
C548 C 0.82797 0.93092 0.15263 0.0
C549 C 0.76848 0.93593 0.16391 0.0
C550 C 0.86402 0.87968 0.16378 0.0
C551 C 0.91133 0.90297 0.11873 0.0
N552 N 0.79682 0.91658 0.15835 0.0
N553 N 0.88171 0.92019 0.12397 0.0
H554 H 0.55893 0.7449 0.13222 0.0
H555 H 0.584 0.93893 0.18803 0.0
H556 H 0.49451 0.79563 0.20186 0.0
H557 H 0.62741 0.89872 0.1 0.0
H558 H 0.55766 0.88358 0.19857 0.0
H559 H 0.59231 0.79762 0.12655 0.0
C560 C 0.55244 0.7668 0.14702 0.0
C561 C 0.52391 0.76601 0.16752 0.0
C562 C 0.57286 0.88681 0.17689 0.0
C563 C 0.56143 0.82627 0.16071 0.0
C564 C 0.58777 0.91842 0.17078 0.0
C565 C 0.60762 0.92338 0.14296 0.0
C566 C 0.57805 0.85976 0.15517 0.0
C567 C 0.61195 0.89594 0.12155 0.0
C568 C 0.57117 0.79697 0.14341 0.0
C569 C 0.51626 0.79523 0.18572 0.0
N570 N 0.59732 0.86515 0.12815 0.0
N571 N 0.53477 0.82422 0.18175 0.0
H572 H 0.54742 0.58207 0.18404 0.0
H573 H 0.74237 0.55971 0.13071 0.0
H574 H 0.58879 0.62676 0.09703 0.0
H575 H 0.69294 0.49852 0.20382 0.0
H576 H 0.68938 0.59227 0.12384 0.0
H577 H 0.60304 0.55723 0.19594 0.0
C578 C 0.56822 0.58636 0.16726 0.0
C579 C 0.56352 0.60619 0.13936 0.0
C580 C 0.69038 0.57209 0.14176 0.0
C581 C 0.6275 0.57838 0.15314 0.0
C582 C 0.72073 0.55388 0.14606 0.0
C583 C 0.72192 0.52638 0.16784 0.0
C584 C 0.66129 0.5628 0.15959 0.0
C585 C 0.69301 0.51948 0.1867 0.0
C586 C 0.60002 0.57235 0.17416 0.0
C587 C 0.59136 0.61126 0.1186 0.0
N588 N 0.66381 0.53737 0.18195 0.0
N589 N 0.6223 0.59748 0.12595 0.0
H590 H 0.92977 0.73949 0.13067 0.0
H591 H 0.91083 0.54257 0.17879 0.0
H592 H -0.00322 0.68767 0.19752 0.0
H593 H 0.86091 0.5872 0.09588 0.0
H594 H 0.93816 0.59733 0.1899 0.0
H595 H 0.89818 0.68613 0.12311 0.0
C596 C 0.93736 0.71713 0.14434 0.0
C597 C 0.96608 0.71794 0.16463 0.0
C598 C 0.92139 0.59517 0.16916 0.0
C599 C 0.93049 0.65687 0.15563 0.0
C600 C 0.90594 0.56389 0.16271 0.0
C601 C 0.88382 0.56044 0.13627 0.0
C602 C 0.9144 0.62334 0.14921 0.0
C603 C 0.87811 0.58884 0.11633 0.0
C604 C 0.91958 0.6866 0.13968 0.0
C605 C 0.97493 0.68813 0.18149 0.0
N606 N 0.8932 0.61926 0.12331 0.0
N607 N 0.95734 0.65875 0.17646 0.0
H608 H 0.68884 -0.00191 0.70009 0.0
H609 H 0.58478 0.86487 0.59213 0.0
H610 H 0.73686 0.93338 0.62888 0.0
H611 H 0.54445 0.91183 0.67846 0.0
H612 H 0.64014 0.89195 0.6031 0.0
H613 H 0.63546 0.96719 0.69206 0.0
C614 C 0.68831 0.97691 0.68323 0.0
C615 C 0.71729 0.96832 0.66512 0.0
C616 C 0.61912 0.89635 0.61957 0.0
C617 C 0.65603 0.93344 0.65509 0.0
C618 C 0.5875 0.88124 0.61311 0.0
C619 C 0.56012 0.88633 0.63436 0.0
C620 C 0.62309 0.91679 0.64731 0.0
C621 C 0.56496 0.90737 0.66143 0.0
C622 C 0.65777 0.9594 0.67848 0.0
C623 C 0.71515 0.94071 0.64351 0.0
N624 N 0.59582 0.92185 0.66711 0.0
N625 N 0.68487 0.92453 0.63874 0.0
H626 H 0.58065 0.54981 0.68293 0.0
H627 H 0.55784 0.74459 0.62802 0.0
H628 H 0.62505 0.59051 0.5955 0.0
H629 H 0.49845 0.69604 0.70295 0.0
H630 H 0.58998 0.69133 0.62096 0.0
H631 H 0.55582 0.60556 0.69437 0.0
C632 C 0.58488 0.5705 0.66595 0.0
C633 C 0.60465 0.56557 0.63809 0.0
C634 C 0.57027 0.69257 0.63929 0.0
C635 C 0.57682 0.62974 0.65134 0.0
C636 C 0.55229 0.72308 0.64367 0.0
C637 C 0.52543 0.72461 0.66607 0.0
C638 C 0.56138 0.66366 0.65762 0.0
C639 C 0.5189 0.69586 0.68533 0.0
C640 C 0.57087 0.60239 0.67259 0.0
C641 C 0.60961 0.59326 0.61706 0.0
N642 N 0.53655 0.66651 0.6805 0.0
N643 N 0.59582 0.6243 0.62416 0.0
H644 H 0.93707 0.58601 0.6882 0.0
H645 H 0.74348 0.56101 0.63169 0.0
H646 H 0.89725 0.62944 0.59995 0.0
H647 H 0.79361 0.49706 0.70222 0.0
H648 H 0.79621 0.59427 0.626 0.0
H649 H 0.88171 0.55982 0.69866 0.0
C650 C 0.91665 0.58983 0.67089 0.0
C651 C 0.92173 0.60963 0.64303 0.0
C652 C 0.79543 0.57327 0.64306 0.0
C653 C 0.85807 0.5802 0.65514 0.0
C654 C 0.76524 0.5546 0.64666 0.0
C655 C 0.76427 0.52622 0.66744 0.0
C656 C 0.82457 0.56363 0.66061 0.0
C657 C 0.79334 0.51868 0.68586 0.0
C658 C 0.88502 0.57499 0.67695 0.0
C659 C 0.89438 0.61401 0.62154 0.0
N660 N 0.82235 0.53713 0.68188 0.0
N661 N 0.86358 0.59944 0.62809 0.0
H662 H 0.83881 0.90007 0.67406 0.0
H663 H 0.01392 0.80786 0.66185 0.0
H664 H 0.91283 0.93058 0.60245 0.0
H665 H 0.92351 0.74497 0.66807 0.0
H666 H 0.97828 0.85741 0.6517 0.0
H667 H 0.87011 0.84638 0.68205 0.0
C668 C 0.86158 0.89529 0.6599 0.0
C669 C 0.87349 0.91963 0.63764 0.0
C670 C 0.96629 0.83278 0.65547 0.0
C671 C 0.90945 0.85912 0.64726 0.0
C672 C 0.98651 0.80442 0.6617 0.0
C673 C 0.97168 0.772 0.6659 0.0
C674 C 0.93088 0.82911 0.6542 0.0
C675 C 0.93596 0.76945 0.66504 0.0
C676 C 0.87919 0.86471 0.66439 0.0
C677 C 0.9029 0.91234 0.61977 0.0
N678 N 0.91662 0.7978 0.65949 0.0
N679 N 0.92032 0.8829 0.62541 0.0
H680 H 0.03986 0.07133 0.90003 0.0
H681 H 0.23722 0.05449 0.94608 0.0
H682 H 0.08495 0.12261 0.98195 0.0
H683 H 0.18517 0.98603 0.88071 0.0
H684 H 0.18368 0.08546 0.95426 0.0
H685 H 0.09449 0.0439 0.88893 0.0
C686 C 0.06125 0.07648 0.91591 0.0
C687 C 0.05796 0.09904 0.94205 0.0
C688 C 0.18412 0.06386 0.93788 0.0
C689 C 0.12075 0.06837 0.92909 0.0
C690 C 0.21475 0.04644 0.93286 0.0
C691 C 0.21561 0.01753 0.91277 0.0
C692 C 0.15429 0.05243 0.92248 0.0
C693 C 0.18562 0.00806 0.89654 0.0
C694 C 0.09247 0.06097 0.90946 0.0
C695 C 0.08646 0.10508 0.96173 0.0
N696 N 0.15616 0.02534 0.90189 0.0
N697 N 0.11682 0.08995 0.95473 0.0
H698 H 0.33786 0.08641 0.903 0.0
H699 H 0.51388 0.17773 0.91629 0.0
H700 H 0.41206 0.05479 0.97403 0.0
H701 H 0.42361 0.24053 0.90846 0.0
H702 H 0.47806 0.1282 0.92615 0.0
H703 H 0.36965 0.13984 0.89511 0.0
C704 C 0.36077 0.09088 0.91706 0.0
C705 C 0.37259 0.06631 0.93912 0.0
C706 C 0.46614 0.1528 0.92209 0.0
C707 C 0.4091 0.12653 0.92962 0.0
C708 C 0.48647 0.18114 0.91603 0.0
C709 C 0.47172 0.21353 0.91146 0.0
C710 C 0.43071 0.15648 0.92284 0.0
C711 C 0.436 0.21607 0.91179 0.0
C712 C 0.37868 0.12131 0.91261 0.0
C713 C 0.40219 0.07322 0.95686 0.0
N714 N 0.41656 0.18775 0.9172 0.0
N715 N 0.41987 0.10253 0.95129 0.0
H716 H 0.39815 0.35724 0.98047 0.0
H717 H 0.29184 0.48811 0.87293 0.0
H718 H 0.43345 0.39638 0.88876 0.0
H719 H 0.24521 0.42721 0.94788 0.0
H720 H 0.34394 0.45449 0.87833 0.0
H721 H 0.34233 0.38387 0.97042 0.0
C722 C 0.39419 0.37163 0.95838 0.0
C723 C 0.42038 0.37487 0.9355 0.0
C724 C 0.32217 0.44803 0.89325 0.0
C725 C 0.35691 0.40494 0.92371 0.0
C726 C 0.29236 0.46709 0.89 0.0
C727 C 0.26422 0.46035 0.90992 0.0
C728 C 0.32413 0.42249 0.91707 0.0
C729 C 0.26627 0.433 0.93184 0.0
C730 C 0.36231 0.3865 0.9525 0.0
C731 C 0.41393 0.39341 0.9071 0.0
N732 N 0.29598 0.41539 0.93524 0.0
N733 N 0.38294 0.40786 0.90208 0.0
H734 H 0.08076 0.4373 0.89575 0.0
H735 H 0.05693 0.24264 0.95081 0.0
H736 H 0.12519 0.39655 0.98314 0.0
H737 H -0.00126 0.29116 0.87503 0.0
H738 H 0.0892 0.29583 0.95814 0.0
H739 H 0.05574 0.38162 0.88435 0.0
C740 C 0.08495 0.41662 0.91273 0.0
C741 C 0.1048 0.42153 0.94056 0.0
C742 C 0.06973 0.2946 0.93957 0.0
C743 C 0.07673 0.3574 0.92736 0.0
C744 C 0.05169 0.26412 0.93504 0.0
C745 C 0.02512 0.2626 0.9123 0.0
C746 C 0.0612 0.32349 0.92104 0.0
C747 C 0.01896 0.29133 0.8929 0.0
C748 C 0.07083 0.38476 0.90611 0.0
C749 C 0.10969 0.39382 0.9616 0.0
N750 N 0.03665 0.32064 0.89788 0.0
N751 N 0.09579 0.36281 0.95453 0.0
H752 H 0.65403 0.24417 0.34672 0.0
H753 H 0.82228 0.21528 0.44828 0.0
H754 H 0.66391 0.26601 0.44876 0.0
H755 H 0.82842 0.24387 0.34747 0.0
H756 H 0.76038 0.22021 0.44549 0.0
H757 H 0.71607 0.23683 0.34345 0.0
C758 C 0.66937 0.24845 0.36816 0.0
C759 C 0.65407 0.25518 0.39817 0.0
C760 C 0.77532 0.22497 0.42388 0.0
C761 C 0.72388 0.24548 0.39482 0.0
C762 C 0.81048 0.22159 0.42531 0.0
C763 C 0.83022 0.22991 0.39824 0.0
C764 C 0.76008 0.23646 0.39515 0.0
C765 C 0.81385 0.23769 0.36895 0.0
C766 C 0.70454 0.2438 0.36634 0.0
C767 C 0.67481 0.26046 0.42525 0.0
N768 N 0.77946 0.24133 0.36824 0.0
N769 N 0.70874 0.25478 0.42308 0.0
H770 H 0.2409 0.65704 0.34511 0.0
H771 H 0.274 0.8259 0.44503 0.0
H772 H 0.22226 0.66782 0.44763 0.0
H773 H 0.24165 0.83182 0.34525 0.0
H774 H 0.26958 0.76386 0.44239 0.0
H775 H 0.24914 0.71905 0.34128 0.0
C776 C 0.23753 0.67259 0.36656 0.0
C777 C 0.23139 0.65753 0.39682 0.0
C778 C 0.26393 0.77878 0.42095 0.0
C779 C 0.24216 0.72726 0.39282 0.0
C780 C 0.267 0.81404 0.42228 0.0
C781 C 0.25736 0.83372 0.39555 0.0
C782 C 0.25142 0.76345 0.39266 0.0
C783 C 0.24879 0.81728 0.36651 0.0
C784 C 0.2427 0.70772 0.36442 0.0
C785 C 0.22729 0.67852 0.42392 0.0
N786 N 0.2454 0.7828 0.36592 0.0
N787 N 0.23346 0.71239 0.42141 0.0
H788 H 0.3335 0.74967 0.23137 0.0
H789 H 0.16285 0.71411 0.13641 0.0
H790 H 0.32082 0.76528 0.12856 0.0
H791 H 0.15847 0.7536 0.23392 0.0
H792 H 0.22481 0.71899 0.13783 0.0
H793 H 0.27143 0.74369 0.23673 0.0
C794 C 0.31756 0.75288 0.21015 0.0
C795 C 0.33203 0.75743 0.17939 0.0
C796 C 0.21024 0.72615 0.15905 0.0
C797 C 0.26223 0.74924 0.18519 0.0
C798 C 0.17504 0.72284 0.15845 0.0
C799 C 0.1558 0.73417 0.18484 0.0
C800 C 0.22599 0.74055 0.1863 0.0
C801 C 0.17267 0.74503 0.21296 0.0
C802 C 0.28239 0.74903 0.21319 0.0
C803 C 0.31056 0.76142 0.15263 0.0
N804 N 0.2071 0.74848 0.21285 0.0
N805 N 0.27663 0.75647 0.15604 0.0
H806 H 0.7356 0.33729 0.23465 0.0
H807 H 0.76502 0.17006 0.13523 0.0
H808 H 0.70856 0.32609 0.13387 0.0
H809 H 0.7333 0.16139 0.23502 0.0
H810 H 0.75651 0.2316 0.13819 0.0
H811 H 0.73995 0.27499 0.23917 0.0
C812 C 0.72938 0.32165 0.21383 0.0
C813 C 0.72262 0.33653 0.1836 0.0
C814 C 0.75175 0.21619 0.15952 0.0
C815 C 0.72876 0.26648 0.18836 0.0
C816 C 0.75721 0.18128 0.15803 0.0
C817 C 0.74916 0.16087 0.18473 0.0
C818 C 0.73858 0.23052 0.18798 0.0
C819 C 0.73939 0.17651 0.21383 0.0
C820 C 0.73226 0.28631 0.21636 0.0
C821 C 0.7145 0.31545 0.15742 0.0
N822 N 0.73389 0.21071 0.21465 0.0
N823 N 0.71872 0.28132 0.16016 0.0
H824 H 0.17071 0.76249 0.63448 0.0
H825 H 0.33625 0.74421 0.73749 0.0
H826 H 0.16026 0.73507 0.73529 0.0
H827 H 0.32734 0.70844 0.63897 0.0
H828 H 0.27384 0.74671 0.74102 0.0
H829 H 0.23221 0.75526 0.63911 0.0
C830 C 0.1815 0.75585 0.6578 0.0
C831 C 0.16065 0.74874 0.6844 0.0
C832 C 0.28572 0.73752 0.71901 0.0
C833 C 0.2303 0.73969 0.68959 0.0
C834 C 0.32113 0.73572 0.71705 0.0
C835 C 0.33662 0.72697 0.68759 0.0
C836 C 0.26644 0.73095 0.69118 0.0
C837 C 0.31621 0.71597 0.66188 0.0
C838 C 0.2164 0.75114 0.66027 0.0
C839 C 0.17574 0.74045 0.71419 0.0
N840 N 0.28197 0.71917 0.66396 0.0
N841 N 0.20998 0.73574 0.71599 0.0
H842 H 0.75283 0.15889 0.73565 0.0
H843 H 0.77415 0.32689 0.63225 0.0
H844 H 0.72418 0.16842 0.63509 0.0
H845 H 0.74417 0.33454 0.73257 0.0
H846 H 0.77216 0.26481 0.63667 0.0
H847 H 0.75956 0.22123 0.73845 0.0
C848 C 0.74704 0.1742 0.71449 0.0
C849 C 0.73836 0.15876 0.68497 0.0
C850 C 0.76655 0.28017 0.65783 0.0
C851 C 0.74743 0.22879 0.6877 0.0
C852 C 0.76817 0.31545 0.65547 0.0
C853 C 0.75851 0.33553 0.68189 0.0
C854 C 0.75548 0.26522 0.68683 0.0
C855 C 0.75129 0.31964 0.71155 0.0
C856 C 0.75131 0.2095 0.71603 0.0
C857 C 0.73119 0.17942 0.65821 0.0
N858 N 0.74934 0.28509 0.71318 0.0
N859 N 0.73657 0.21346 0.66003 0.0
H860 H 0.83056 0.28617 0.93735 0.0
H861 H 0.65957 0.24986 0.8415 0.0
H862 H 0.83472 0.24379 0.84095 0.0
H863 H 0.67381 0.23573 0.94433 0.0
H864 H 0.72117 0.26018 0.83588 0.0
H865 H 0.76848 0.28707 0.93385 0.0
C866 C 0.81841 0.27817 0.91504 0.0
C867 C 0.83735 0.26386 0.8898 0.0
C868 C 0.7106 0.25449 0.8595 0.0
C869 C 0.7671 0.26408 0.886 0.0
C870 C 0.67578 0.24809 0.86268 0.0
C871 C 0.66185 0.24218 0.89345 0.0
C872 C 0.73088 0.25555 0.8874 0.0
C873 C 0.68362 0.24034 0.92021 0.0
C874 C 0.7831 0.27827 0.91322 0.0
C875 C 0.82064 0.25431 0.86118 0.0
N876 N 0.71709 0.2476 0.91664 0.0
N877 N 0.78608 0.2538 0.86025 0.0
H878 H 0.25324 0.82741 0.84026 0.0
H879 H 0.27645 0.65948 0.94329 0.0
H880 H 0.22423 0.81686 0.94062 0.0
H881 H 0.24416 0.65124 0.84364 0.0
H882 H 0.27494 0.72155 0.93841 0.0
H883 H 0.26099 0.76517 0.83721 0.0
C884 C 0.2476 0.8119 0.86132 0.0
C885 C 0.23847 0.82703 0.89086 0.0
C886 C 0.26878 0.70605 0.91748 0.0
C887 C 0.24874 0.75718 0.88786 0.0
C888 C 0.2701 0.67078 0.9201 0.0
C889 C 0.25955 0.65057 0.89406 0.0
C890 C 0.25711 0.72084 0.88861 0.0
C891 C 0.25191 0.66626 0.86439 0.0
C892 C 0.25246 0.77667 0.85964 0.0
C893 C 0.23154 0.80611 0.91749 0.0
N894 N 0.25021 0.70082 0.86254 0.0
N895 N 0.23751 0.77218 0.91555 0.0
H896 H 0.65471 0.14886 0.4496 0.0
H897 H 0.70765 0.04672 0.60815 0.0
H898 H 0.58096 0.09883 0.51098 0.0
H899 H 0.77789 0.06265 0.52924 0.0
H900 H 0.6615 0.06936 0.57465 0.0
H901 H 0.7006 0.12087 0.47972 0.0
C902 C 0.64812 0.1318 0.46929 0.0
C903 C 0.61384 0.12623 0.47779 0.0
C904 C 0.68693 0.06774 0.56454 0.0
C905 C 0.66646 0.09446 0.51269 0.0
C906 C 0.71336 0.05495 0.5837 0.0
C907 C 0.74667 0.05278 0.57141 0.0
C908 C 0.69387 0.07909 0.53298 0.0
C909 C 0.75254 0.06379 0.53957 0.0
C910 C 0.67438 0.11577 0.48642 0.0
C911 C 0.60695 0.10377 0.50347 0.0
N912 N 0.72644 0.07676 0.52152 0.0
N913 N 0.63301 0.08902 0.52024 0.0
H914 H 0.44331 0.70821 0.60643 0.0
H915 H 0.3359 0.65759 0.44987 0.0
H916 H 0.42188 0.78006 0.52992 0.0
H917 H 0.38749 0.58271 0.50889 0.0
H918 H 0.36405 0.70304 0.48044 0.0
H919 H 0.41964 0.66232 0.57302 0.0
C920 C 0.43367 0.71432 0.58253 0.0
C921 C 0.43461 0.74801 0.57088 0.0
C922 C 0.36944 0.67668 0.48655 0.0
C923 C 0.40717 0.69554 0.53259 0.0
C924 C 0.35332 0.65065 0.46914 0.0
C925 C 0.35931 0.61617 0.4768 0.0
C926 C 0.39133 0.66835 0.51226 0.0
C927 C 0.38222 0.60887 0.50201 0.0
C928 C 0.42028 0.68806 0.56343 0.0
C929 C 0.42176 0.75442 0.53976 0.0
N930 N 0.39711 0.63472 0.51904 0.0
N931 N 0.40833 0.72849 0.52178 0.0
H932 H 0.82866 0.33823 0.44992 0.0
H933 H 0.77888 0.44688 0.60563 0.0
H934 H 0.90355 0.391 0.5079 0.0
H935 H 0.70678 0.42627 0.52924 0.0
H936 H 0.82441 0.42301 0.57209 0.0
H937 H 0.78333 0.36696 0.48014 0.0
C938 C 0.83562 0.35603 0.46888 0.0
C939 C 0.87007 0.36217 0.47637 0.0
C940 C 0.7987 0.42388 0.56254 0.0
C941 C 0.81808 0.39482 0.51142 0.0
C942 C 0.77264 0.43739 0.58171 0.0
C943 C 0.73899 0.4386 0.57015 0.0
C944 C 0.79105 0.41089 0.5317 0.0
C945 C 0.73241 0.42593 0.539 0.0
C946 C 0.80967 0.37248 0.48607 0.0
C947 C 0.87742 0.38558 0.50116 0.0
N948 N 0.75816 0.41233 0.52094 0.0
N949 N 0.85167 0.40075 0.51801 0.0
H950 H 0.04609 0.77895 0.60813 0.0
H951 H 0.14928 0.82935 0.44956 0.0
H952 H 0.06337 0.70649 0.53126 0.0
H953 H 0.09671 0.90365 0.50836 0.0
H954 H 0.1218 0.78354 0.48046 0.0
H955 H 0.06865 0.82437 0.57371 0.0
C956 C 0.05462 0.77259 0.58393 0.0
C957 C 0.0528 0.73886 0.5725 0.0
C958 C 0.11606 0.80986 0.48638 0.0
C959 C 0.07906 0.79089 0.53298 0.0
C960 C 0.13178 0.83608 0.46882 0.0
C961 C 0.12533 0.8705 0.47637 0.0
C962 C 0.0942 0.81803 0.51215 0.0
C963 C 0.10236 0.87756 0.50156 0.0
C964 C 0.06737 0.79861 0.56424 0.0
C965 C 0.06421 0.73218 0.54093 0.0
N966 N 0.08794 0.85159 0.51875 0.0
N967 N 0.07715 0.75793 0.52233 0.0
H968 H 0.20731 0.93646 0.9692 0.0
H969 H 0.15608 0.84312 0.13296 0.0
H970 H 0.27787 0.92662 0.04878 0.0
H971 H 0.08148 0.88891 0.06963 0.0
H972 H 0.20153 0.87034 0.10151 0.0
H973 H 0.16151 0.9153 1.00405 0.0
C974 C 0.21317 0.92988 0.99407 0.0
C975 C 0.24647 0.93334 1.00616 0.0
C976 C 0.17522 0.87473 0.09469 0.0
C977 C 0.19407 0.90882 0.04616 0.0
C978 C 0.14923 0.85919 0.1126 0.0
C979 C 0.11488 0.86378 0.10393 0.0
C980 C 0.16692 0.89444 0.0674 0.0
C981 C 0.10757 0.88488 0.07733 0.0
C982 C 0.18694 0.91796 1.01399 0.0
C983 C 0.25254 0.92441 1.03856 0.0
N984 N 0.13337 0.89906 0.05976 0.0
N985 N 0.22664 0.91229 0.05738 0.0
H986 H 0.64162 0.15738 0.13274 0.0
H987 H 0.5473 0.207 0.96895 0.0
H988 H 0.59774 0.08198 0.06896 0.0
H989 H 0.55947 0.27871 0.04734 0.0
H990 H 0.56845 0.16141 1.00402 0.0
H991 H 0.61405 0.20244 0.10119 0.0
C992 C 0.62591 0.15024 0.11225 0.0
C993 C 0.62204 0.11576 0.10347 0.0
C994 C 0.56633 0.18704 1.01367 0.0
C995 C 0.59079 0.16748 0.06686 0.0
C996 C 0.5544 0.21317 0.99361 0.0
C997 C 0.55163 0.24676 1.00527 0.0
C998 C 0.57618 0.19452 0.04556 0.0
C999 C 0.56115 0.25317 1.03744 0.0
C1000 C 0.61014 0.17604 0.09427 0.0
C1001 C 0.6013 0.10815 0.07672 0.0
N1002 N 0.57329 0.22735 0.0564 0.0
N1003 N 0.58681 0.13381 0.05914 0.0
H1004 H 0.27976 0.54066 0.97137 0.0
H1005 H 0.33032 0.65028 0.12639 0.0
H1006 H 0.20827 0.56119 0.04825 0.0
H1007 H 0.40499 0.59767 0.06811 0.0
H1008 H 0.28488 0.62136 0.09641 0.0
H1009 H 0.32545 0.56511 1.00441 0.0
C1010 C 0.27369 0.55026 0.99529 0.0
C1011 C 0.24016 0.54883 1.00715 0.0
C1012 C 0.3112 0.61594 0.09035 0.0
C1013 C 0.2924 0.57722 0.045 0.0
C1014 C 0.33721 0.6325 0.1074 0.0
C1015 C 0.37163 0.62644 0.09977 0.0
C1016 C 0.31951 0.59355 0.06502 0.0
C1017 C 0.37889 0.60304 0.07495 0.0
C1018 C 0.29983 0.5641 1.01417 0.0
C1019 C 0.2338 0.56166 1.03828 0.0
N1020 N 0.35307 0.58774 0.05826 0.0
N1021 N 0.25962 0.57558 0.05604 0.0
H1022 H 0.88661 0.40454 0.0688 0.0
H1023 H 0.91773 0.20368 0.04629 0.0
H1024 H 0.83039 0.32877 0.12282 0.0
H1025 H 0.94219 0.27825 0.97301 0.0
H1026 H 0.89224 0.24933 0.07931 0.0
H1027 H 0.91432 0.35867 1.03831 0.0
C1028 C 0.88029 0.37828 0.07448 0.0
C1029 C 0.85604 0.37059 0.09842 0.0
C1030 C 0.90326 0.25565 0.05602 0.0
C1031 C 0.88783 0.31784 0.06356 0.0
C1032 C 0.9179 0.22966 1.03727 0.0
C1033 C 0.93209 0.23722 1.00692 0.0
C1034 C 0.90335 0.28949 0.04455 0.0
C1035 C 0.93147 0.27129 0.99626 0.0
C1036 C 0.89599 0.3521 0.05692 0.0
C1037 C 0.84879 0.33597 0.10451 0.0
N1038 N 0.91751 0.29614 1.01508 0.0
N1039 N 0.86466 0.31091 0.08728 0.0
H1040 H 0.32775 0.83425 0.62652 0.0
H1041 H 0.27728 0.94466 0.47174 0.0
H1042 H 0.4016 0.88992 0.56974 0.0
H1043 H 0.2046 0.92174 0.54703 0.0
H1044 H 0.32264 0.92044 0.50522 0.0
H1045 H 0.28186 0.86207 0.59603 0.0
C1046 C 0.33436 0.85244 0.60777 0.0
C1047 C 0.36869 0.85973 0.60072 0.0
C1048 C 0.29683 0.92084 0.51455 0.0
C1049 C 0.31615 0.8913 0.56543 0.0
C1050 C 0.27087 0.93456 0.4954 0.0
C1051 C 0.23712 0.9353 0.50669 0.0
C1052 C 0.28903 0.90715 0.54509 0.0
C1053 C 0.23033 0.92182 0.53752 0.0
C1054 C 0.30811 0.86836 0.59044 0.0
C1055 C 0.37559 0.88359 0.57617 0.0
N1056 N 0.25602 0.90804 0.55558 0.0
N1057 N 0.34961 0.89823 0.55924 0.0
H1058 H 0.59622 0.40741 0.56862 0.0
H1059 H 0.56258 0.20648 0.54855 0.0
H1060 H 0.64994 0.33161 0.62482 0.0
H1061 H 0.54142 0.28 0.47342 0.0
H1062 H 0.58738 0.25249 0.58165 0.0
H1063 H 0.56808 0.36142 0.53848 0.0
C1064 C 0.60186 0.38114 0.57487 0.0
C1065 C 0.6256 0.37344 0.59927 0.0
C1066 C 0.57721 0.2585 0.55794 0.0
C1067 C 0.59335 0.32061 0.56485 0.0
C1068 C 0.56297 0.23231 0.53914 0.0
C1069 C 0.54996 0.23945 0.50823 0.0
C1070 C 0.5779 0.29214 0.54593 0.0
C1071 C 0.55125 0.27334 0.4971 0.0
C1072 C 0.58593 0.35489 0.55751 0.0
C1073 C 0.63198 0.33881 0.60611 0.0
N1074 N 0.5648 0.2984 0.51595 0.0
N1075 N 0.61594 0.31373 0.58907 0.0
H1076 H 0.27886 0.55997 0.54802 0.0
H1077 H 0.07859 0.5972 0.56848 0.0
H1078 H 0.20569 0.54421 0.4715 0.0
H1079 H 0.1557 0.64228 0.62959 0.0
H1080 H 0.12381 0.56918 0.53704 0.0
H1081 H 0.23293 0.58242 0.58244 0.0
C1082 C 0.25311 0.56107 0.53856 0.0
C1083 C 0.24607 0.5503 0.50688 0.0
C1084 C 0.13075 0.58504 0.55749 0.0
C1085 C 0.1934 0.57562 0.5461 0.0
C1086 C 0.10494 0.60083 0.57557 0.0
C1087 C 0.11332 0.62224 0.60165 0.0
C1088 C 0.16516 0.59031 0.5658 0.0
C1089 C 0.14799 0.6262 0.60955 0.0
C1090 C 0.22694 0.57393 0.55814 0.0
C1091 C 0.21226 0.55236 0.49576 0.0
N1092 N 0.17256 0.61044 0.59175 0.0
N1093 N 0.18719 0.56467 0.51534 0.0
H1094 H 0.89262 0.08095 0.57158 0.0
H1095 H 0.92392 0.28211 0.54831 0.0
H1096 H 0.84063 0.15741 0.6283 0.0
H1097 H 0.94379 0.20795 0.4735 0.0
H1098 H 0.90136 0.23613 0.58281 0.0
H1099 H 0.92029 0.12669 0.54049 0.0
C1100 C 0.88738 0.1073 0.57781 0.0
C1101 C 0.86416 0.11529 0.60254 0.0
C1102 C 0.91078 0.22995 0.55888 0.0
C1103 C 0.89574 0.16776 0.56706 0.0
C1104 C 0.92372 0.25615 0.53925 0.0
C1105 C 0.93566 0.24883 0.50802 0.0
C1106 C 0.9103 0.19613 0.54735 0.0
C1107 C 0.93471 0.21474 0.49741 0.0
C1108 C 0.90299 0.13339 0.55991 0.0
C1109 C 0.85818 0.14999 0.60934 0.0
N1110 N 0.92238 0.18968 0.51704 0.0
N1111 N 0.87384 0.17488 0.59175 0.0
H1112 H 0.82652 0.15349 0.95024 0.0
H1113 H 0.77713 0.0479 0.10784 0.0
H1114 H 0.90045 0.09818 1.00724 0.0
H1115 H 0.70385 0.06666 1.03201 0.0
H1116 H 0.82204 0.07111 0.07333 0.0
H1117 H 0.78067 0.12635 0.98141 0.0
C1118 C 0.83315 0.13549 0.96915 0.0
C1119 C 0.86747 0.12813 0.97611 0.0
C1120 C 0.7962 0.07003 0.0641 0.0
C1121 C 0.81507 0.09742 1.01215 0.0
C1122 C 0.77049 0.0569 0.08385 0.0
C1123 C 0.73671 0.05527 0.0727 0.0
C1124 C 0.78813 0.08227 1.03309 0.0
C1125 C 0.72962 0.06733 0.04141 0.0
C1126 C 0.80693 0.11997 0.98686 0.0
C1127 C 0.87443 0.10456 1.00088 0.0
N1128 N 0.75509 0.08061 1.02274 0.0
N1129 N 0.84852 0.09036 1.01819 0.0
H1130 H 0.34084 0.82889 0.94597 0.0
H1131 H 0.44543 0.78047 0.10449 0.0
H1132 H 0.39154 0.90463 1.00463 0.0
H1133 H 0.42649 0.70764 1.02828 0.0
H1134 H 0.42285 0.8259 0.06988 0.0
H1135 H 0.36938 0.78389 0.97686 0.0
C1136 C 0.35822 0.8361 0.96518 0.0
C1137 C 0.36376 0.87068 0.97271 0.0
C1138 C 0.42382 0.80005 0.06061 0.0
C1139 C 0.39614 0.81906 1.0086 0.0
C1140 C 0.43658 0.77405 0.08039 0.0
C1141 C 0.43786 0.74021 0.0692 0.0
C1142 C 0.41165 0.79217 1.02952 0.0
C1143 C 0.42605 0.7334 1.03779 0.0
C1144 C 0.37454 0.81034 0.98278 0.0
C1145 C 0.38663 0.87838 0.99785 0.0
N1146 N 0.41316 0.75909 1.01913 0.0
N1147 N 0.40164 0.85279 1.01514 0.0
H1148 H 0.7047 0.445 0.10659 0.0
H1149 H 0.65441 0.34578 0.94515 0.0
H1150 H 0.77558 0.42856 1.02833 0.0
H1151 H 0.579 0.38872 1.00936 0.0
H1152 H 0.69916 0.3744 0.97599 0.0
H1153 H 0.65864 0.42268 0.07259 0.0
C1154 C 0.71055 0.43677 0.08217 0.0
C1155 C 0.74404 0.43863 0.07023 0.0
C1156 C 0.67284 0.37788 0.98321 0.0
C1157 C 0.69138 0.4128 1.03123 0.0
C1158 C 0.64719 0.3615 0.96562 0.0
C1159 C 0.6128 0.36479 0.9747 0.0
C1160 C 0.66428 0.39735 1.01054 0.0
C1161 C 0.60511 0.3856 1.00139 0.0
C1162 C 0.6842 0.42415 0.06274 0.0
C1163 C 0.75012 0.42764 1.03844 0.0
N1164 N 0.63067 0.40077 1.0186 0.0
N1165 N 0.72411 0.41496 1.02013 0.0
H1166 H 0.06422 0.78073 1.03003 0.0
H1167 H 0.09841 0.57991 1.01055 0.0
H1168 H 0.04619 0.70781 0.10642 0.0
H1169 H 0.15082 0.65548 0.95295 0.0
H1170 H 0.0709 0.62602 0.04101 0.0
H1171 H 0.08844 0.73461 0.99669 0.0
C1172 C 0.06519 0.75501 0.03968 0.0
C1173 C 0.05322 0.74807 0.071 0.0
C1174 C 0.08831 0.63247 1.0216 0.0
C1175 C 0.08046 0.69526 1.03302 0.0
C1176 C 0.10388 0.60616 1.00406 0.0
C1177 C 0.12707 0.61376 0.97918 0.0
C1178 C 0.09553 0.66672 1.01394 0.0
C1179 C 0.13328 0.64836 0.97204 0.0
C1180 C 0.07908 0.72876 1.02073 0.0
C1181 C 0.05521 0.71432 0.08242 0.0
N1182 N 0.11757 0.67351 0.98925 0.0
N1183 N 0.06839 0.68919 0.06342 0.0
loop_
_geom_bond_atom_site_label_1
_geom_bond_atom_site_label_2
_geom_bond_distance
_geom_bond_site_symmetry_2
_ccdc_geom_bond_type
Dy0 O4 2.398 . S
Dy0 O5 2.491 . S
Dy0 O6 2.403 . S
Dy0 O7 2.664 . S
Dy0 O11 2.326 . S
Dy0 O15 2.310 . S
Dy0 O16 2.351 . S
C1 O12 1.185 . S
C1 O13 1.355 . S
C2 O4 1.185 . S
C2 O5 1.355 . S
Dy3 O7 2.310 . S
Dy3 O10 2.351 . S
Dy3 O12 2.398 . S
Dy3 O13 2.491 . S
Dy3 O14 2.403 . S
Dy3 O15 2.664 . S
Dy3 O17 2.326 . S
O4 Dy0 2.398 . S
O4 C2 1.185 . S
O5 Dy0 2.491 . S
O5 C2 1.355 . S
O6 Dy0 2.403 . S
O6 C8 1.254 . S
O7 Dy0 2.664 . S
O7 Dy3 2.310 . S
O7 C8 1.268 . S
C8 O6 1.254 . S
C8 O7 1.268 . S
C9 O14 1.254 . S
C9 O15 1.268 . S
O10 Dy3 2.351 . S
O10 C18 1.249 . S
O11 Dy0 2.326 . S
O11 C18 1.267 . S
O12 C1 1.185 . S
O12 Dy3 2.398 . S
O13 C1 1.355 . S
O13 Dy3 2.491 . S
O14 Dy3 2.403 . S
O14 C9 1.254 . S
O15 Dy0 2.310 . S
O15 Dy3 2.664 . S
O15 C9 1.268 . S
O16 Dy0 2.351 . S
O16 C19 1.249 . S
O17 Dy3 2.326 . S
O17 C19 1.267 . S
C18 O10 1.249 . S
C18 O11 1.267 . S
C19 O16 1.249 . S
C19 O17 1.267 . S
Dy20 O24 2.398 . S
Dy20 O25 2.491 . S
Dy20 O26 2.403 . S
Dy20 O27 2.664 . S
Dy20 O31 2.326 . S
Dy20 O35 2.310 . S
Dy20 O36 2.351 . S
C21 O32 1.185 . S
C21 O33 1.355 . S
C22 O24 1.185 . S
C22 O25 1.355 . S
Dy23 O27 2.310 . S
Dy23 O30 2.351 . S
Dy23 O32 2.398 . S
Dy23 O33 2.491 . S
Dy23 O34 2.403 . S
Dy23 O35 2.664 . S
Dy23 O37 2.326 . S
O24 Dy20 2.398 . S
O24 C22 1.185 . S
O25 Dy20 2.491 . S
O25 C22 1.355 . S
O26 Dy20 2.403 . S
O26 C28 1.254 . S
O27 Dy20 2.664 . S
O27 Dy23 2.310 . S
O27 C28 1.268 . S
C28 O26 1.254 . S
C28 O27 1.268 . S
C29 O34 1.254 . S
C29 O35 1.268 . S
O30 Dy23 2.351 . S
O30 C38 1.249 . S
O31 Dy20 2.326 . S
O31 C38 1.267 . S
O32 C21 1.185 . S
O32 Dy23 2.398 . S
O33 C21 1.355 . S
O33 Dy23 2.491 . S
O34 Dy23 2.403 . S
O34 C29 1.254 . S
O35 Dy20 2.310 . S
O35 Dy23 2.664 . S
O35 C29 1.268 . S
O36 Dy20 2.351 . S
O36 C39 1.249 . S
O37 Dy23 2.326 . S
O37 C39 1.267 . S
C38 O30 1.249 . S
C38 O31 1.267 . S
C39 O36 1.249 . S
C39 O37 1.267 . S
Dy40 O44 2.398 . S
Dy40 O45 2.491 . S
Dy40 O46 2.403 . S
Dy40 O47 2.664 . S
Dy40 O51 2.326 . S
Dy40 O55 2.310 . S
Dy40 O56 2.351 . S
C41 O52 1.185 . S
C41 O53 1.355 . S
C42 O44 1.185 . S
C42 O45 1.355 . S
Dy43 O47 2.310 . S
Dy43 O50 2.351 . S
Dy43 O52 2.398 1_655 S
Dy43 O53 2.491 1_655 S
Dy43 O54 2.403 . S
Dy43 O55 2.664 . S
Dy43 O57 2.326 1_655 S
O44 Dy40 2.398 . S
O44 C42 1.185 . S
O45 Dy40 2.491 . S
O45 C42 1.355 . S
O46 Dy40 2.403 . S
O46 C48 1.254 . S
O47 Dy40 2.664 . S
O47 Dy43 2.310 . S
O47 C48 1.268 . S
C48 O46 1.254 . S
C48 O47 1.268 . S
C49 O54 1.254 . S
C49 O55 1.268 . S
O50 Dy43 2.351 . S
O50 C58 1.249 . S
O51 Dy40 2.326 . S
O51 C58 1.267 . S
O52 C41 1.185 . S
O52 Dy43 2.398 1_455 S
O53 C41 1.355 . S
O53 Dy43 2.491 1_455 S
O54 Dy43 2.403 . S
O54 C49 1.254 . S
O55 Dy40 2.310 . S
O55 Dy43 2.664 . S
O55 C49 1.268 . S
O56 Dy40 2.351 . S
O56 C59 1.247 1_655 S
O57 Dy43 2.326 1_455 S
O57 C59 1.268 . S
C58 O50 1.249 . S
C58 O51 1.267 . S
C59 O56 1.247 1_455 S
C59 O57 1.268 . S
Dy60 O64 2.398 . S
Dy60 O65 2.491 . S
Dy60 O66 2.403 . S
Dy60 O67 2.664 . S
Dy60 O71 2.326 . S
Dy60 O75 2.310 . S
Dy60 O76 2.351 . S
C61 O72 1.185 . S
C61 O73 1.355 . S
C62 O64 1.185 . S
C62 O65 1.355 . S
Dy63 O67 2.310 . S
Dy63 O70 2.351 . S
Dy63 O72 2.398 1_565 S
Dy63 O73 2.491 1_565 S
Dy63 O74 2.403 . S
Dy63 O75 2.664 . S
Dy63 O77 2.326 1_565 S
O64 Dy60 2.398 . S
O64 C62 1.185 . S
O65 Dy60 2.491 . S
O65 C62 1.355 . S
O66 Dy60 2.403 . S
O66 C68 1.254 . S
O67 Dy60 2.664 . S
O67 Dy63 2.310 . S
O67 C68 1.268 . S
C68 O66 1.254 . S
C68 O67 1.268 . S
C69 O74 1.254 . S
C69 O75 1.268 . S
O70 Dy63 2.351 . S
O70 C78 1.249 . S
O71 Dy60 2.326 . S
O71 C78 1.267 . S
O72 C61 1.185 . S
O72 Dy63 2.398 1_545 S
O73 C61 1.355 . S
O73 Dy63 2.491 1_545 S
O74 Dy63 2.403 . S
O74 C69 1.254 . S
O75 Dy60 2.310 . S
O75 Dy63 2.664 . S
O75 C69 1.268 . S
O76 Dy60 2.351 . S
O76 C79 1.247 1_565 S
O77 Dy63 2.326 1_545 S
O77 C79 1.268 . S
C78 O70 1.249 . S
C78 O71 1.267 . S
C79 O76 1.247 1_545 S
C79 O77 1.268 . S
Dy80 O84 2.398 . S
Dy80 O85 2.491 . S
Dy80 O86 2.403 . S
Dy80 O87 2.664 . S
Dy80 O91 2.326 . S
Dy80 O95 2.310 . S
Dy80 O96 2.351 . S
C81 O92 1.185 . S
C81 O93 1.355 . S
C82 O84 1.185 . S
C82 O85 1.355 . S
Dy83 O87 2.310 . S
Dy83 O90 2.351 . S
Dy83 O92 2.398 1_455 S
Dy83 O93 2.491 1_455 S
Dy83 O94 2.403 . S
Dy83 O95 2.664 . S
Dy83 O97 2.326 1_455 S
O84 Dy80 2.398 . S
O84 C82 1.185 . S
O85 Dy80 2.491 . S
O85 C82 1.355 . S
O86 Dy80 2.403 . S
O86 C88 1.254 . S
O87 Dy80 2.664 . S
O87 Dy83 2.310 . S
O87 C88 1.268 . S
C88 O86 1.254 . S
C88 O87 1.268 . S
C89 O94 1.254 . S
C89 O95 1.268 . S
O90 Dy83 2.351 . S
O90 C98 1.249 . S
O91 Dy80 2.326 . S
O91 C98 1.267 . S
O92 C81 1.185 . S
O92 Dy83 2.398 1_655 S
O93 C81 1.355 . S
O93 Dy83 2.491 1_655 S
O94 Dy83 2.403 . S
O94 C89 1.254 . S
O95 Dy80 2.310 . S
O95 Dy83 2.664 . S
O95 C89 1.268 . S
O96 Dy80 2.351 . S
O96 C99 1.247 1_455 S
O97 Dy83 2.326 1_655 S
O97 C99 1.268 . S
C98 O90 1.249 . S
C98 O91 1.267 . S
C99 O96 1.247 1_655 S
C99 O97 1.268 . S
Dy100 O104 2.398 . S
Dy100 O105 2.491 . S
Dy100 O106 2.403 . S
Dy100 O107 2.664 . S
Dy100 O111 2.326 . S
Dy100 O115 2.310 . S
Dy100 O116 2.351 . S
C101 O112 1.185 . S
C101 O113 1.355 . S
C102 O104 1.185 . S
C102 O105 1.355 . S
Dy103 O107 2.310 . S
Dy103 O110 2.351 . S
Dy103 O112 2.398 1_545 S
Dy103 O113 2.491 1_545 S
Dy103 O114 2.403 . S
Dy103 O115 2.664 . S
Dy103 O117 2.326 1_545 S
O104 Dy100 2.398 . S
O104 C102 1.185 . S
O105 Dy100 2.491 . S
O105 C102 1.355 . S
O106 Dy100 2.403 . S
O106 C108 1.254 . S
O107 Dy100 2.664 . S
O107 Dy103 2.310 . S
O107 C108 1.268 . S
C108 O106 1.254 . S
C108 O107 1.268 . S
C109 O114 1.254 . S
C109 O115 1.268 . S
O110 Dy103 2.351 . S
O110 C118 1.249 . S
O111 Dy100 2.326 . S
O111 C118 1.267 . S
O112 C101 1.185 . S
O112 Dy103 2.398 1_565 S
O113 C101 1.355 . S
O113 Dy103 2.491 1_565 S
O114 Dy103 2.403 . S
O114 C109 1.254 . S
O115 Dy100 2.310 . S
O115 Dy103 2.664 . S
O115 C109 1.268 . S
O116 Dy100 2.351 . S
O116 C119 1.247 1_545 S
O117 Dy103 2.326 1_565 S
O117 C119 1.268 . S
C118 O110 1.249 . S
C118 O111 1.267 . S
C119 O116 1.247 1_565 S
C119 O117 1.268 . S
Dy120 O124 2.398 . S
Dy120 O125 2.491 . S
Dy120 O126 2.403 . S
Dy120 O127 2.664 . S
Dy120 O131 2.326 . S
Dy120 O135 2.310 . S
Dy120 O136 2.351 . S
C121 O132 1.185 . S
C121 O133 1.355 . S
C122 O124 1.185 . S
C122 O125 1.355 . S
Dy123 O127 2.310 . S
Dy123 O130 2.351 . S
Dy123 O132 2.398 . S
Dy123 O133 2.491 . S
Dy123 O134 2.403 . S
Dy123 O135 2.664 . S
Dy123 O137 2.326 . S
O124 Dy120 2.398 . S
O124 C122 1.185 . S
O125 Dy120 2.491 . S
O125 C122 1.355 . S
O126 Dy120 2.403 . S
O126 C128 1.254 . S
O127 Dy120 2.664 . S
O127 Dy123 2.310 . S
O127 C128 1.268 . S
C128 O126 1.254 . S
C128 O127 1.268 . S
C129 O134 1.254 . S
C129 O135 1.268 . S
O130 Dy123 2.351 . S
O130 C138 1.249 . S
O131 Dy120 2.326 . S
O131 C138 1.267 . S
O132 C121 1.185 . S
O132 Dy123 2.398 . S
O133 C121 1.355 . S
O133 Dy123 2.491 . S
O134 Dy123 2.403 . S
O134 C129 1.254 . S
O135 Dy120 2.310 . S
O135 Dy123 2.664 . S
O135 C129 1.268 . S
O136 Dy120 2.351 . S
O136 C139 1.249 . S
O137 Dy123 2.326 . S
O137 C139 1.267 . S
C138 O130 1.249 . S
C138 O131 1.267 . S
C139 O136 1.249 . S
C139 O137 1.267 . S
Dy140 O144 2.398 . S
Dy140 O145 2.491 . S
Dy140 O146 2.403 . S
Dy140 O147 2.664 . S
Dy140 O151 2.326 . S
Dy140 O155 2.310 . S
Dy140 O156 2.351 . S
C141 O152 1.185 . S
C141 O153 1.355 . S
C142 O144 1.185 . S
C142 O145 1.355 . S
Dy143 O147 2.310 . S
Dy143 O150 2.351 . S
Dy143 O152 2.398 . S
Dy143 O153 2.491 . S
Dy143 O154 2.403 . S
Dy143 O155 2.664 . S
Dy143 O157 2.326 . S
O144 Dy140 2.398 . S
O144 C142 1.185 . S
O145 Dy140 2.491 . S
O145 C142 1.355 . S
O146 Dy140 2.403 . S
O146 C148 1.254 . S
O147 Dy140 2.664 . S
O147 Dy143 2.310 . S
O147 C148 1.268 . S
C148 O146 1.254 . S
C148 O147 1.268 . S
C149 O154 1.254 . S
C149 O155 1.268 . S
O150 Dy143 2.351 . S
O150 C158 1.249 . S
O151 Dy140 2.326 . S
O151 C158 1.267 . S
O152 C141 1.185 . S
O152 Dy143 2.398 . S
O153 C141 1.355 . S
O153 Dy143 2.491 . S
O154 Dy143 2.403 . S
O154 C149 1.254 . S
O155 Dy140 2.310 . S
O155 Dy143 2.664 . S
O155 C149 1.268 . S
O156 Dy140 2.351 . S
O156 C159 1.249 . S
O157 Dy143 2.326 . S
O157 C159 1.267 . S
C158 O150 1.249 . S
C158 O151 1.267 . S
C159 O156 1.249 . S
C159 O157 1.267 . S
Dy160 O164 2.398 . S
Dy160 O165 2.491 . S
Dy160 O166 2.403 . S
Dy160 O167 2.664 . S
Dy160 O171 2.326 . S
Dy160 O175 2.310 . S
Dy160 O176 2.351 . S
C161 O172 1.185 . S
C161 O173 1.355 . S
C162 O164 1.185 . S
C162 O165 1.355 . S
Dy163 O167 2.310 . S
Dy163 O170 2.351 . S
Dy163 O172 2.398 . S
Dy163 O173 2.491 . S
Dy163 O174 2.403 . S
Dy163 O175 2.664 . S
Dy163 O177 2.326 . S
O164 Dy160 2.398 . S
O164 C162 1.185 . S
O165 Dy160 2.491 . S
O165 C162 1.355 . S
O166 Dy160 2.403 . S
O166 C168 1.254 . S
O167 Dy160 2.664 . S
O167 Dy163 2.310 . S
O167 C168 1.268 . S
C168 O166 1.254 . S
C168 O167 1.268 . S
C169 O174 1.254 . S
C169 O175 1.268 . S
O170 Dy163 2.351 . S
O170 C178 1.249 . S
O171 Dy160 2.326 . S
O171 C178 1.267 . S
O172 C161 1.185 . S
O172 Dy163 2.398 . S
O173 C161 1.355 . S
O173 Dy163 2.491 . S
O174 Dy163 2.403 . S
O174 C169 1.254 . S
O175 Dy160 2.310 . S
O175 Dy163 2.664 . S
O175 C169 1.268 . S
O176 Dy160 2.351 . S
O176 C179 1.249 . S
O177 Dy163 2.326 . S
O177 C179 1.267 . S
C178 O170 1.249 . S
C178 O171 1.267 . S
C179 O176 1.249 . S
C179 O177 1.267 . S
Dy180 O184 2.398 . S
Dy180 O185 2.491 . S
Dy180 O186 2.403 . S
Dy180 O187 2.664 . S
Dy180 O191 2.326 . S
Dy180 O195 2.310 . S
Dy180 O196 2.351 . S
C181 O192 1.185 . S
C181 O193 1.355 . S
C182 O184 1.185 . S
C182 O185 1.355 . S
Dy183 O187 2.310 . S
Dy183 O190 2.351 . S
Dy183 O192 2.398 . S
Dy183 O193 2.491 . S
Dy183 O194 2.403 . S
Dy183 O195 2.664 . S
Dy183 O197 2.326 . S
O184 Dy180 2.398 . S
O184 C182 1.185 . S
O185 Dy180 2.491 . S
O185 C182 1.355 . S
O186 Dy180 2.403 . S
O186 C188 1.254 . S
O187 Dy180 2.664 . S
O187 Dy183 2.310 . S
O187 C188 1.268 . S
C188 O186 1.254 . S
C188 O187 1.268 . S
C189 O194 1.254 . S
C189 O195 1.268 . S
O190 Dy183 2.351 . S
O190 C198 1.249 . S
O191 Dy180 2.326 . S
O191 C198 1.267 . S
O192 C181 1.185 . S
O192 Dy183 2.398 . S
O193 C181 1.355 . S
O193 Dy183 2.491 . S
O194 Dy183 2.403 . S
O194 C189 1.254 . S
O195 Dy180 2.310 . S
O195 Dy183 2.664 . S
O195 C189 1.268 . S
O196 Dy180 2.351 . S
O196 C199 1.249 . S
O197 Dy183 2.326 . S
O197 C199 1.267 . S
C198 O190 1.249 . S
C198 O191 1.267 . S
C199 O196 1.249 . S
C199 O197 1.267 . S
Dy200 O204 2.398 1_455 S
Dy200 O205 2.491 1_455 S
Dy200 O206 2.403 . S
Dy200 O207 2.664 . S
Dy200 O211 2.326 1_455 S
Dy200 O215 2.310 . S
Dy200 O216 2.351 . S
C201 O212 1.185 . S
C201 O213 1.355 . S
C202 O204 1.185 . S
C202 O205 1.355 . S
Dy203 O207 2.310 . S
Dy203 O210 2.351 . S
Dy203 O212 2.398 . S
Dy203 O213 2.491 . S
Dy203 O214 2.403 . S
Dy203 O215 2.664 . S
Dy203 O217 2.326 . S
O204 Dy200 2.398 1_655 S
O204 C202 1.185 . S
O205 Dy200 2.491 1_655 S
O205 C202 1.355 . S
O206 Dy200 2.403 . S
O206 C208 1.254 . S
O207 Dy200 2.664 . S
O207 Dy203 2.310 . S
O207 C208 1.268 . S
C208 O206 1.254 . S
C208 O207 1.268 . S
C209 O214 1.254 . S
C209 O215 1.268 . S
O210 Dy203 2.351 . S
O210 C218 1.247 1_455 S
O211 Dy200 2.326 1_655 S
O211 C218 1.268 . S
O212 C201 1.185 . S
O212 Dy203 2.398 . S
O213 C201 1.355 . S
O213 Dy203 2.491 . S
O214 Dy203 2.403 . S
O214 C209 1.254 . S
O215 Dy200 2.310 . S
O215 Dy203 2.664 . S
O215 C209 1.268 . S
O216 Dy200 2.351 . S
O216 C219 1.249 . S
O217 Dy203 2.326 . S
O217 C219 1.267 . S
C218 O210 1.247 1_655 S
C218 O211 1.268 . S
C219 O216 1.249 . S
C219 O217 1.267 . S
Dy220 O224 2.398 1_545 S
Dy220 O225 2.491 1_545 S
Dy220 O226 2.403 . S
Dy220 O227 2.664 . S
Dy220 O231 2.326 1_545 S
Dy220 O235 2.310 . S
Dy220 O236 2.351 . S
C221 O232 1.185 . S
C221 O233 1.355 . S
C222 O224 1.185 . S
C222 O225 1.355 . S
Dy223 O227 2.310 . S
Dy223 O230 2.351 . S
Dy223 O232 2.398 . S
Dy223 O233 2.491 . S
Dy223 O234 2.403 . S
Dy223 O235 2.664 . S
Dy223 O237 2.326 . S
O224 Dy220 2.398 1_565 S
O224 C222 1.185 . S
O225 Dy220 2.491 1_565 S
O225 C222 1.355 . S
O226 Dy220 2.403 . S
O226 C228 1.254 . S
O227 Dy220 2.664 . S
O227 Dy223 2.310 . S
O227 C228 1.268 . S
C228 O226 1.254 . S
C228 O227 1.268 . S
C229 O234 1.254 . S
C229 O235 1.268 . S
O230 Dy223 2.351 . S
O230 C238 1.247 1_545 S
O231 Dy220 2.326 1_565 S
O231 C238 1.268 . S
O232 C221 1.185 . S
O232 Dy223 2.398 . S
O233 C221 1.355 . S
O233 Dy223 2.491 . S
O234 Dy223 2.403 . S
O234 C229 1.254 . S
O235 Dy220 2.310 . S
O235 Dy223 2.664 . S
O235 C229 1.268 . S
O236 Dy220 2.351 . S
O236 C239 1.249 . S
O237 Dy223 2.326 . S
O237 C239 1.267 . S
C238 O230 1.247 1_565 S
C238 O231 1.268 . S
C239 O236 1.249 . S
C239 O237 1.267 . S
Dy240 O244 2.398 1_655 S
Dy240 O245 2.491 1_655 S
Dy240 O246 2.403 . S
Dy240 O247 2.664 . S
Dy240 O251 2.326 1_655 S
Dy240 O255 2.310 . S
Dy240 O256 2.351 . S
C241 O252 1.185 . S
C241 O253 1.355 . S
C242 O244 1.185 . S
C242 O245 1.355 . S
Dy243 O247 2.310 . S
Dy243 O250 2.351 . S
Dy243 O252 2.398 . S
Dy243 O253 2.491 . S
Dy243 O254 2.403 . S
Dy243 O255 2.664 . S
Dy243 O257 2.326 . S
O244 Dy240 2.398 1_455 S
O244 C242 1.185 . S
O245 Dy240 2.491 1_455 S
O245 C242 1.355 . S
O246 Dy240 2.403 . S
O246 C248 1.254 . S
O247 Dy240 2.664 . S
O247 Dy243 2.310 . S
O247 C248 1.268 . S
C248 O246 1.254 . S
C248 O247 1.268 . S
C249 O254 1.254 . S
C249 O255 1.268 . S
O250 Dy243 2.351 . S
O250 C258 1.247 1_655 S
O251 Dy240 2.326 1_455 S
O251 C258 1.268 . S
O252 C241 1.185 . S
O252 Dy243 2.398 . S
O253 C241 1.355 . S
O253 Dy243 2.491 . S
O254 Dy243 2.403 . S
O254 C249 1.254 . S
O255 Dy240 2.310 . S
O255 Dy243 2.664 . S
O255 C249 1.268 . S
O256 Dy240 2.351 . S
O256 C259 1.249 . S
O257 Dy243 2.326 . S
O257 C259 1.267 . S
C258 O250 1.247 1_455 S
C258 O251 1.268 . S
C259 O256 1.249 . S
C259 O257 1.267 . S
Dy260 O264 2.398 1_565 S
Dy260 O265 2.491 1_565 S
Dy260 O266 2.403 . S
Dy260 O267 2.664 . S
Dy260 O271 2.326 1_565 S
Dy260 O275 2.310 . S
Dy260 O276 2.351 . S
C261 O272 1.185 . S
C261 O273 1.355 . S
C262 O264 1.185 . S
C262 O265 1.355 . S
Dy263 O267 2.310 . S
Dy263 O270 2.351 . S
Dy263 O272 2.398 . S
Dy263 O273 2.491 . S
Dy263 O274 2.403 . S
Dy263 O275 2.664 . S
Dy263 O277 2.326 . S
O264 Dy260 2.398 1_545 S
O264 C262 1.185 . S
O265 Dy260 2.491 1_545 S
O265 C262 1.355 . S
O266 Dy260 2.403 . S
O266 C268 1.254 . S
O267 Dy260 2.664 . S
O267 Dy263 2.310 . S
O267 C268 1.268 . S
C268 O266 1.254 . S
C268 O267 1.268 . S
C269 O274 1.254 . S
C269 O275 1.268 . S
O270 Dy263 2.351 . S
O270 C278 1.247 1_565 S
O271 Dy260 2.326 1_545 S
O271 C278 1.268 . S
O272 C261 1.185 . S
O272 Dy263 2.398 . S
O273 C261 1.355 . S
O273 Dy263 2.491 . S
O274 Dy263 2.403 . S
O274 C269 1.254 . S
O275 Dy260 2.310 . S
O275 Dy263 2.664 . S
O275 C269 1.268 . S
O276 Dy260 2.351 . S
O276 C279 1.249 . S
O277 Dy263 2.326 . S
O277 C279 1.267 . S
C278 O270 1.247 1_545 S
C278 O271 1.268 . S
C279 O276 1.249 . S
C279 O277 1.267 . S
Dy280 O284 2.398 . S
Dy280 O285 2.491 . S
Dy280 O286 2.403 . S
Dy280 O287 2.664 . S
Dy280 O291 2.326 . S
Dy280 O295 2.310 . S
Dy280 O296 2.351 . S
C281 O292 1.185 . S
C281 O293 1.355 . S
C282 O284 1.185 . S
C282 O285 1.355 . S
Dy283 O287 2.310 . S
Dy283 O290 2.351 . S
Dy283 O292 2.398 . S
Dy283 O293 2.491 . S
Dy283 O294 2.403 . S
Dy283 O295 2.664 . S
Dy283 O297 2.326 . S
O284 Dy280 2.398 . S
O284 C282 1.185 . S
O285 Dy280 2.491 . S
O285 C282 1.355 . S
O286 Dy280 2.403 . S
O286 C288 1.254 . S
O287 Dy280 2.664 . S
O287 Dy283 2.310 . S
O287 C288 1.268 . S
C288 O286 1.254 . S
C288 O287 1.268 . S
C289 O294 1.254 . S
C289 O295 1.268 . S
O290 Dy283 2.351 . S
O290 C298 1.249 . S
O291 Dy280 2.326 . S
O291 C298 1.267 . S
O292 C281 1.185 . S
O292 Dy283 2.398 . S
O293 C281 1.355 . S
O293 Dy283 2.491 . S
O294 Dy283 2.403 . S
O294 C289 1.254 . S
O295 Dy280 2.310 . S
O295 Dy283 2.664 . S
O295 C289 1.268 . S
O296 Dy280 2.351 . S
O296 C299 1.249 . S
O297 Dy283 2.326 . S
O297 C299 1.267 . S
C298 O290 1.249 . S
C298 O291 1.267 . S
C299 O296 1.249 . S
C299 O297 1.267 . S
Dy300 O304 2.398 . S
Dy300 O305 2.491 . S
Dy300 O306 2.403 . S
Dy300 O307 2.664 . S
Dy300 O311 2.326 . S
Dy300 O315 2.310 . S
Dy300 O316 2.351 . S
C301 O312 1.185 . S
C301 O313 1.355 . S
C302 O304 1.185 . S
C302 O305 1.355 . S
Dy303 O307 2.310 . S
Dy303 O310 2.351 . S
Dy303 O312 2.398 . S
Dy303 O313 2.491 . S
Dy303 O314 2.403 . S
Dy303 O315 2.664 . S
Dy303 O317 2.326 . S
O304 Dy300 2.398 . S
O304 C302 1.185 . S
O305 Dy300 2.491 . S
O305 C302 1.355 . S
O306 Dy300 2.403 . S
O306 C308 1.254 . S
O307 Dy300 2.664 . S
O307 Dy303 2.310 . S
O307 C308 1.268 . S
C308 O306 1.254 . S
C308 O307 1.268 . S
C309 O314 1.254 . S
C309 O315 1.268 . S
O310 Dy303 2.351 . S
O310 C318 1.249 . S
O311 Dy300 2.326 . S
O311 C318 1.267 . S
O312 C301 1.185 . S
O312 Dy303 2.398 . S
O313 C301 1.355 . S
O313 Dy303 2.491 . S
O314 Dy303 2.403 . S
O314 C309 1.254 . S
O315 Dy300 2.310 . S
O315 Dy303 2.664 . S
O315 C309 1.268 . S
O316 Dy300 2.351 . S
O316 C319 1.249 . S
O317 Dy303 2.326 . S
O317 C319 1.267 . S
C318 O310 1.249 . S
C318 O311 1.267 . S
C319 O316 1.249 . S
C319 O317 1.267 . S
H320 C326 0.930 . S
H321 C330 0.930 . S
H322 C335 0.929 . S
H323 C333 0.929 . S
H324 C328 0.929 . S
H325 C334 0.929 . S
C326 H320 0.930 . S
C326 C327 1.367 . S
C326 C334 1.378 . S
C327 C326 1.367 . S
C327 C335 1.433 . S
C328 H324 0.929 . S
C328 C330 1.378 . S
C328 C332 1.350 . S
C329 C332 1.463 . S
C329 C334 1.350 . S
C329 N337 1.427 . S
C330 H321 0.930 . S
C330 C328 1.378 . S
C330 C331 1.367 . S
C331 C330 1.367 . S
C331 C333 1.433 . S
C332 C328 1.350 . S
C332 C329 1.463 . S
C332 N336 1.427 . S
C333 H323 0.929 . S
C333 C331 1.433 . S
C333 N336 1.384 . S
C334 H325 0.929 . S
C334 C326 1.378 . S
C334 C329 1.350 . S
C335 H322 0.929 . S
C335 C327 1.433 . S
C335 N337 1.384 . S
N336 C332 1.427 . S
N336 C333 1.384 . S
N337 C329 1.427 . S
N337 C335 1.384 . S
H338 C344 0.930 . S
H339 C348 0.930 . S
H340 C353 0.929 . S
H341 C351 0.929 . S
H342 C346 0.929 . S
H343 C352 0.929 . S
C344 H338 0.930 . S
C344 C345 1.367 . S
C344 C352 1.378 . S
C345 C344 1.367 . S
C345 C353 1.433 . S
C346 H342 0.929 . S
C346 C348 1.378 . S
C346 C350 1.350 . S
C347 C350 1.463 . S
C347 C352 1.350 . S
C347 N355 1.427 . S
C348 H339 0.930 . S
C348 C346 1.378 . S
C348 C349 1.367 . S
C349 C348 1.367 . S
C349 C351 1.433 . S
C350 C346 1.350 . S
C350 C347 1.463 . S
C350 N354 1.427 . S
C351 H341 0.929 . S
C351 C349 1.433 . S
C351 N354 1.384 . S
C352 H343 0.929 . S
C352 C344 1.378 . S
C352 C347 1.350 . S
C353 H340 0.929 . S
C353 C345 1.433 . S
C353 N355 1.384 . S
N354 C350 1.427 . S
N354 C351 1.384 . S
N355 C347 1.427 . S
N355 C353 1.384 . S
H356 C362 0.930 . S
H357 C366 0.930 . S
H358 C371 0.929 . S
H359 C369 0.929 . S
H360 C364 0.929 . S
H361 C370 0.929 . S
C362 H356 0.930 . S
C362 C363 1.367 . S
C362 C370 1.378 . S
C363 C362 1.367 . S
C363 C371 1.433 . S
C364 H360 0.929 . S
C364 C366 1.378 . S
C364 C368 1.350 . S
C365 C368 1.463 . S
C365 C370 1.350 . S
C365 N373 1.427 . S
C366 H357 0.930 . S
C366 C364 1.378 . S
C366 C367 1.367 . S
C367 C366 1.367 . S
C367 C369 1.433 . S
C368 C364 1.350 . S
C368 C365 1.463 . S
C368 N372 1.427 . S
C369 H359 0.929 . S
C369 C367 1.433 . S
C369 N372 1.384 . S
C370 H361 0.929 . S
C370 C362 1.378 . S
C370 C365 1.350 . S
C371 H358 0.929 . S
C371 C363 1.433 . S
C371 N373 1.384 . S
N372 C368 1.427 . S
N372 C369 1.384 . S
N373 C365 1.427 . S
N373 C371 1.384 . S
H374 C380 0.930 . S
H375 C384 0.930 . S
H376 C389 0.929 . S
H377 C387 0.929 . S
H378 C382 0.929 . S
H379 C388 0.929 . S
C380 H374 0.930 . S
C380 C381 1.367 . S
C380 C388 1.378 . S
C381 C380 1.367 . S
C381 C389 1.433 . S
C382 H378 0.929 . S
C382 C384 1.378 . S
C382 C386 1.350 . S
C383 C386 1.463 . S
C383 C388 1.350 . S
C383 N391 1.427 . S
C384 H375 0.930 . S
C384 C382 1.378 . S
C384 C385 1.367 . S
C385 C384 1.367 . S
C385 C387 1.433 . S
C386 C382 1.350 . S
C386 C383 1.463 . S
C386 N390 1.427 . S
C387 H377 0.929 . S
C387 C385 1.433 . S
C387 N390 1.384 . S
C388 H379 0.929 . S
C388 C380 1.378 . S
C388 C383 1.350 . S
C389 H376 0.929 . S
C389 C381 1.433 . S
C389 N391 1.384 . S
N390 C386 1.427 . S
N390 C387 1.384 . S
N391 C383 1.427 . S
N391 C389 1.384 . S
H392 C398 0.930 . S
H393 C402 0.930 . S
H394 C407 0.929 . S
H395 C405 0.929 . S
H396 C400 0.929 . S
H397 C406 0.929 . S
C398 H392 0.930 . S
C398 C399 1.367 . S
C398 C406 1.378 . S
C399 C398 1.367 . S
C399 C407 1.433 . S
C400 H396 0.929 . S
C400 C402 1.378 . S
C400 C404 1.350 . S
C401 C404 1.463 . S
C401 C406 1.350 . S
C401 N409 1.427 . S
C402 H393 0.930 . S
C402 C400 1.378 . S
C402 C403 1.367 . S
C403 C402 1.367 . S
C403 C405 1.433 . S
C404 C400 1.350 . S
C404 C401 1.463 . S
C404 N408 1.427 . S
C405 H395 0.929 . S
C405 C403 1.433 . S
C405 N408 1.384 . S
C406 H397 0.929 . S
C406 C398 1.378 . S
C406 C401 1.350 . S
C407 H394 0.929 . S
C407 C399 1.433 . S
C407 N409 1.384 . S
N408 C404 1.427 . S
N408 C405 1.384 . S
N409 C401 1.427 . S
N409 C407 1.384 . S
H410 C416 0.930 . S
H411 C420 0.930 . S
H412 C425 0.929 . S
H413 C423 0.929 . S
H414 C418 0.929 . S
H415 C424 0.929 . S
C416 H410 0.930 . S
C416 C417 1.367 . S
C416 C424 1.378 . S
C417 C416 1.367 . S
C417 C425 1.433 . S
C418 H414 0.929 . S
C418 C420 1.378 . S
C418 C422 1.350 . S
C419 C422 1.463 . S
C419 C424 1.350 . S
C419 N427 1.427 . S
C420 H411 0.930 . S
C420 C418 1.378 . S
C420 C421 1.367 . S
C421 C420 1.367 . S
C421 C423 1.433 . S
C422 C418 1.350 . S
C422 C419 1.463 . S
C422 N426 1.427 . S
C423 H413 0.929 . S
C423 C421 1.433 . S
C423 N426 1.384 . S
C424 H415 0.929 . S
C424 C416 1.378 . S
C424 C419 1.350 . S
C425 H412 0.929 . S
C425 C417 1.433 . S
C425 N427 1.384 . S
N426 C422 1.427 . S
N426 C423 1.384 . S
N427 C419 1.427 . S
N427 C425 1.384 . S
H428 C434 0.930 . S
H429 C438 0.930 . S
H430 C443 0.929 . S
H431 C441 0.929 . S
H432 C436 0.929 . S
H433 C442 0.929 . S
C434 H428 0.930 . S
C434 C435 1.367 . S
C434 C442 1.378 . S
C435 C434 1.367 . S
C435 C443 1.433 . S
C436 H432 0.929 . S
C436 C438 1.378 . S
C436 C440 1.350 . S
C437 C440 1.463 . S
C437 C442 1.350 . S
C437 N445 1.427 . S
C438 H429 0.930 . S
C438 C436 1.378 . S
C438 C439 1.367 . S
C439 C438 1.367 . S
C439 C441 1.433 . S
C440 C436 1.350 . S
C440 C437 1.463 . S
C440 N444 1.427 . S
C441 H431 0.929 . S
C441 C439 1.433 . S
C441 N444 1.384 . S
C442 H433 0.929 . S
C442 C434 1.378 . S
C442 C437 1.350 . S
C443 H430 0.929 . S
C443 C435 1.433 . S
C443 N445 1.384 . S
N444 C440 1.427 . S
N444 C441 1.384 . S
N445 C437 1.427 . S
N445 C443 1.384 . S
H446 C452 0.930 . S
H447 C456 0.930 . S
H448 C461 0.929 . S
H449 C459 0.929 . S
H450 C454 0.929 . S
H451 C460 0.929 . S
C452 H446 0.930 . S
C452 C453 1.367 . S
C452 C460 1.378 . S
C453 C452 1.367 . S
C453 C461 1.433 . S
C454 H450 0.929 . S
C454 C456 1.378 . S
C454 C458 1.350 . S
C455 C458 1.463 . S
C455 C460 1.350 . S
C455 N463 1.427 . S
C456 H447 0.930 . S
C456 C454 1.378 . S
C456 C457 1.367 . S
C457 C456 1.367 . S
C457 C459 1.433 . S
C458 C454 1.350 . S
C458 C455 1.463 . S
C458 N462 1.427 . S
C459 H449 0.929 . S
C459 C457 1.433 . S
C459 N462 1.384 . S
C460 H451 0.929 . S
C460 C452 1.378 . S
C460 C455 1.350 . S
C461 H448 0.929 . S
C461 C453 1.433 . S
C461 N463 1.384 . S
N462 C458 1.427 . S
N462 C459 1.384 . S
N463 C455 1.427 . S
N463 C461 1.384 . S
H464 C470 0.930 . S
H465 C474 0.930 . S
H466 C479 0.929 . S
H467 C477 0.929 . S
H468 C472 0.929 . S
H469 C478 0.929 . S
C470 H464 0.930 . S
C470 C471 1.367 . S
C470 C478 1.378 . S
C471 C470 1.367 . S
C471 C479 1.433 . S
C472 H468 0.929 . S
C472 C474 1.378 . S
C472 C476 1.350 . S
C473 C476 1.463 . S
C473 C478 1.350 . S
C473 N481 1.427 . S
C474 H465 0.930 . S
C474 C472 1.378 . S
C474 C475 1.367 . S
C475 C474 1.367 . S
C475 C477 1.433 . S
C476 C472 1.350 . S
C476 C473 1.463 . S
C476 N480 1.427 . S
C477 H467 0.929 . S
C477 C475 1.433 . S
C477 N480 1.384 . S
C478 H469 0.929 . S
C478 C470 1.378 . S
C478 C473 1.350 . S
C479 H466 0.929 . S
C479 C471 1.433 . S
C479 N481 1.384 . S
N480 C476 1.427 . S
N480 C477 1.384 . S
N481 C473 1.427 . S
N481 C479 1.384 . S
H482 C488 0.930 . S
H483 C492 0.930 . S
H484 C497 0.929 . S
H485 C495 0.929 . S
H486 C490 0.929 . S
H487 C496 0.929 . S
C488 H482 0.930 . S
C488 C489 1.367 . S
C488 C496 1.378 . S
C489 C488 1.367 . S
C489 C497 1.433 . S
C490 H486 0.929 . S
C490 C492 1.378 . S
C490 C494 1.350 . S
C491 C494 1.463 . S
C491 C496 1.350 . S
C491 N499 1.427 . S
C492 H483 0.930 . S
C492 C490 1.378 . S
C492 C493 1.367 . S
C493 C492 1.367 . S
C493 C495 1.433 . S
C494 C490 1.350 . S
C494 C491 1.463 . S
C494 N498 1.427 . S
C495 H485 0.929 . S
C495 C493 1.433 . S
C495 N498 1.384 . S
C496 H487 0.929 . S
C496 C488 1.378 . S
C496 C491 1.350 . S
C497 H484 0.929 . S
C497 C489 1.433 . S
C497 N499 1.384 . S
N498 C494 1.427 . S
N498 C495 1.384 . S
N499 C491 1.427 . S
N499 C497 1.384 . S
H500 C506 0.930 . S
H501 C510 0.930 . S
H502 C515 0.929 . S
H503 C513 0.929 . S
H504 C508 0.929 . S
H505 C514 0.929 . S
C506 H500 0.930 . S
C506 C507 1.367 . S
C506 C514 1.378 . S
C507 C506 1.367 . S
C507 C515 1.433 . S
C508 H504 0.929 . S
C508 C510 1.378 . S
C508 C512 1.350 . S
C509 C512 1.463 . S
C509 C514 1.350 . S
C509 N517 1.427 . S
C510 H501 0.930 . S
C510 C508 1.378 . S
C510 C511 1.367 . S
C511 C510 1.367 . S
C511 C513 1.433 . S
C512 C508 1.350 . S
C512 C509 1.463 . S
C512 N516 1.427 . S
C513 H503 0.929 . S
C513 C511 1.433 . S
C513 N516 1.384 . S
C514 H505 0.929 . S
C514 C506 1.378 . S
C514 C509 1.350 . S
C515 H502 0.929 . S
C515 C507 1.433 . S
C515 N517 1.384 . S
N516 C512 1.427 . S
N516 C513 1.384 . S
N517 C509 1.427 . S
N517 C515 1.384 . S
H518 C524 0.930 . S
H519 C528 0.930 . S
H520 C533 0.929 . S
H521 C531 0.929 1_655 S
H522 C526 0.929 . S
H523 C532 0.929 . S
C524 H518 0.930 . S
C524 C525 1.367 . S
C524 C532 1.378 . S
C525 C524 1.367 . S
C525 C533 1.433 . S
C526 H522 0.929 . S
C526 C528 1.378 . S
C526 C530 1.350 . S
C527 C530 1.463 . S
C527 C532 1.350 . S
C527 N535 1.427 . S
C528 H519 0.930 . S
C528 C526 1.378 . S
C528 C529 1.367 . S
C529 C528 1.367 . S
C529 C531 1.433 . S
C530 C526 1.350 . S
C530 C527 1.463 . S
C530 N534 1.427 . S
C531 H521 0.929 1_455 S
C531 C529 1.433 . S
C531 N534 1.384 . S
C532 H523 0.929 . S
C532 C524 1.378 . S
C532 C527 1.350 . S
C533 H520 0.929 . S
C533 C525 1.433 . S
C533 N535 1.384 . S
N534 C530 1.427 . S
N534 C531 1.384 . S
N535 C527 1.427 . S
N535 C533 1.384 . S
H536 C542 0.930 . S
H537 C546 0.930 1_545 S
H538 C551 0.929 . S
H539 C549 0.929 . S
H540 C544 0.929 . S
H541 C550 0.929 . S
C542 H536 0.930 . S
C542 C543 1.367 . S
C542 C550 1.378 . S
C543 C542 1.367 . S
C543 C551 1.433 . S
C544 H540 0.929 . S
C544 C546 1.378 . S
C544 C548 1.350 . S
C545 C548 1.463 . S
C545 C550 1.350 . S
C545 N553 1.427 . S
C546 H537 0.930 1_565 S
C546 C544 1.378 . S
C546 C547 1.367 . S
C547 C546 1.367 . S
C547 C549 1.433 . S
C548 C544 1.350 . S
C548 C545 1.463 . S
C548 N552 1.427 . S
C549 H539 0.929 . S
C549 C547 1.433 . S
C549 N552 1.384 . S
C550 H541 0.929 . S
C550 C542 1.378 . S
C550 C545 1.350 . S
C551 H538 0.929 . S
C551 C543 1.433 . S
C551 N553 1.384 . S
N552 C548 1.427 . S
N552 C549 1.384 . S
N553 C545 1.427 . S
N553 C551 1.384 . S
H554 C560 0.930 . S
H555 C564 0.930 . S
H556 C569 0.929 . S
H557 C567 0.929 . S
H558 C562 0.929 . S
H559 C568 0.929 . S
C560 H554 0.930 . S
C560 C561 1.367 . S
C560 C568 1.378 . S
C561 C560 1.367 . S
C561 C569 1.433 . S
C562 H558 0.929 . S
C562 C564 1.378 . S
C562 C566 1.350 . S
C563 C566 1.463 . S
C563 C568 1.350 . S
C563 N571 1.427 . S
C564 H555 0.930 . S
C564 C562 1.378 . S
C564 C565 1.367 . S
C565 C564 1.367 . S
C565 C567 1.433 . S
C566 C562 1.350 . S
C566 C563 1.463 . S
C566 N570 1.427 . S
C567 H557 0.929 . S
C567 C565 1.433 . S
C567 N570 1.384 . S
C568 H559 0.929 . S
C568 C560 1.378 . S
C568 C563 1.350 . S
C569 H556 0.929 . S
C569 C561 1.433 . S
C569 N571 1.384 . S
N570 C566 1.427 . S
N570 C567 1.384 . S
N571 C563 1.427 . S
N571 C569 1.384 . S
H572 C578 0.930 . S
H573 C582 0.930 . S
H574 C587 0.929 . S
H575 C585 0.929 . S
H576 C580 0.929 . S
H577 C586 0.929 . S
C578 H572 0.930 . S
C578 C579 1.367 . S
C578 C586 1.378 . S
C579 C578 1.367 . S
C579 C587 1.433 . S
C580 H576 0.929 . S
C580 C582 1.378 . S
C580 C584 1.350 . S
C581 C584 1.463 . S
C581 C586 1.350 . S
C581 N589 1.427 . S
C582 H573 0.930 . S
C582 C580 1.378 . S
C582 C583 1.367 . S
C583 C582 1.367 . S
C583 C585 1.433 . S
C584 C580 1.350 . S
C584 C581 1.463 . S
C584 N588 1.427 . S
C585 H575 0.929 . S
C585 C583 1.433 . S
C585 N588 1.384 . S
C586 H577 0.929 . S
C586 C578 1.378 . S
C586 C581 1.350 . S
C587 H574 0.929 . S
C587 C579 1.433 . S
C587 N589 1.384 . S
N588 C584 1.427 . S
N588 C585 1.384 . S
N589 C581 1.427 . S
N589 C587 1.384 . S
H590 C596 0.930 . S
H591 C600 0.930 . S
H592 C605 0.929 . S
H593 C603 0.929 . S
H594 C598 0.929 . S
H595 C604 0.929 . S
C596 H590 0.930 . S
C596 C597 1.367 . S
C596 C604 1.378 . S
C597 C596 1.367 . S
C597 C605 1.433 . S
C598 H594 0.929 . S
C598 C600 1.378 . S
C598 C602 1.350 . S
C599 C602 1.463 . S
C599 C604 1.350 . S
C599 N607 1.427 . S
C600 H591 0.930 . S
C600 C598 1.378 . S
C600 C601 1.367 . S
C601 C600 1.367 . S
C601 C603 1.433 . S
C602 C598 1.350 . S
C602 C599 1.463 . S
C602 N606 1.427 . S
C603 H593 0.929 . S
C603 C601 1.433 . S
C603 N606 1.384 . S
C604 H595 0.929 . S
C604 C596 1.378 . S
C604 C599 1.350 . S
C605 H592 0.929 . S
C605 C597 1.433 . S
C605 N607 1.384 . S
N606 C602 1.427 . S
N606 C603 1.384 . S
N607 C599 1.427 . S
N607 C605 1.384 . S
H608 C614 0.930 . S
H609 C618 0.930 . S
H610 C623 0.929 . S
H611 C621 0.929 . S
H612 C616 0.929 . S
H613 C622 0.929 . S
C614 H608 0.930 . S
C614 C615 1.367 . S
C614 C622 1.378 . S
C615 C614 1.367 . S
C615 C623 1.433 . S
C616 H612 0.929 . S
C616 C618 1.378 . S
C616 C620 1.350 . S
C617 C620 1.463 . S
C617 C622 1.350 . S
C617 N625 1.427 . S
C618 H609 0.930 . S
C618 C616 1.378 . S
C618 C619 1.367 . S
C619 C618 1.367 . S
C619 C621 1.433 . S
C620 C616 1.350 . S
C620 C617 1.463 . S
C620 N624 1.427 . S
C621 H611 0.929 . S
C621 C619 1.433 . S
C621 N624 1.384 . S
C622 H613 0.929 . S
C622 C614 1.378 . S
C622 C617 1.350 . S
C623 H610 0.929 . S
C623 C615 1.433 . S
C623 N625 1.384 . S
N624 C620 1.427 . S
N624 C621 1.384 . S
N625 C617 1.427 . S
N625 C623 1.384 . S
H626 C632 0.930 . S
H627 C636 0.930 . S
H628 C641 0.929 . S
H629 C639 0.929 . S
H630 C634 0.929 . S
H631 C640 0.929 . S
C632 H626 0.930 . S
C632 C633 1.367 . S
C632 C640 1.378 . S
C633 C632 1.367 . S
C633 C641 1.433 . S
C634 H630 0.929 . S
C634 C636 1.378 . S
C634 C638 1.350 . S
C635 C638 1.463 . S
C635 C640 1.350 . S
C635 N643 1.427 . S
C636 H627 0.930 . S
C636 C634 1.378 . S
C636 C637 1.367 . S
C637 C636 1.367 . S
C637 C639 1.433 . S
C638 C634 1.350 . S
C638 C635 1.463 . S
C638 N642 1.427 . S
C639 H629 0.929 . S
C639 C637 1.433 . S
C639 N642 1.384 . S
C640 H631 0.929 . S
C640 C632 1.378 . S
C640 C635 1.350 . S
C641 H628 0.929 . S
C641 C633 1.433 . S
C641 N643 1.384 . S
N642 C638 1.427 . S
N642 C639 1.384 . S
N643 C635 1.427 . S
N643 C641 1.384 . S
H644 C650 0.930 . S
H645 C654 0.930 . S
H646 C659 0.929 . S
H647 C657 0.929 . S
H648 C652 0.929 . S
H649 C658 0.929 . S
C650 H644 0.930 . S
C650 C651 1.367 . S
C650 C658 1.378 . S
C651 C650 1.367 . S
C651 C659 1.433 . S
C652 H648 0.929 . S
C652 C654 1.378 . S
C652 C656 1.350 . S
C653 C656 1.463 . S
C653 C658 1.350 . S
C653 N661 1.427 . S
C654 H645 0.930 . S
C654 C652 1.378 . S
C654 C655 1.367 . S
C655 C654 1.367 . S
C655 C657 1.433 . S
C656 C652 1.350 . S
C656 C653 1.463 . S
C656 N660 1.427 . S
C657 H647 0.929 . S
C657 C655 1.433 . S
C657 N660 1.384 . S
C658 H649 0.929 . S
C658 C650 1.378 . S
C658 C653 1.350 . S
C659 H646 0.929 . S
C659 C651 1.433 . S
C659 N661 1.384 . S
N660 C656 1.427 . S
N660 C657 1.384 . S
N661 C653 1.427 . S
N661 C659 1.384 . S
H662 C668 0.930 . S
H663 C672 0.930 1_455 S
H664 C677 0.929 . S
H665 C675 0.929 . S
H666 C670 0.929 . S
H667 C676 0.929 . S
C668 H662 0.930 . S
C668 C669 1.367 . S
C668 C676 1.378 . S
C669 C668 1.367 . S
C669 C677 1.433 . S
C670 H666 0.929 . S
C670 C672 1.378 . S
C670 C674 1.350 . S
C671 C674 1.463 . S
C671 C676 1.350 . S
C671 N679 1.427 . S
C672 H663 0.930 1_655 S
C672 C670 1.378 . S
C672 C673 1.367 . S
C673 C672 1.367 . S
C673 C675 1.433 . S
C674 C670 1.350 . S
C674 C671 1.463 . S
C674 N678 1.427 . S
C675 H665 0.929 . S
C675 C673 1.433 . S
C675 N678 1.384 . S
C676 H667 0.929 . S
C676 C668 1.378 . S
C676 C671 1.350 . S
C677 H664 0.929 . S
C677 C669 1.433 . S
C677 N679 1.384 . S
N678 C674 1.427 . S
N678 C675 1.384 . S
N679 C671 1.427 . S
N679 C677 1.384 . S
H680 C686 0.930 . S
H681 C690 0.930 . S
H682 C695 0.929 . S
H683 C693 0.929 . S
H684 C688 0.929 . S
H685 C694 0.929 . S
C686 H680 0.930 . S
C686 C687 1.367 . S
C686 C694 1.378 . S
C687 C686 1.367 . S
C687 C695 1.433 . S
C688 H684 0.929 . S
C688 C690 1.378 . S
C688 C692 1.350 . S
C689 C692 1.463 . S
C689 C694 1.350 . S
C689 N697 1.427 . S
C690 H681 0.930 . S
C690 C688 1.378 . S
C690 C691 1.367 . S
C691 C690 1.367 . S
C691 C693 1.433 . S
C692 C688 1.350 . S
C692 C689 1.463 . S
C692 N696 1.427 . S
C693 H683 0.929 . S
C693 C691 1.433 . S
C693 N696 1.384 . S
C694 H685 0.929 . S
C694 C686 1.378 . S
C694 C689 1.350 . S
C695 H682 0.929 . S
C695 C687 1.433 . S
C695 N697 1.384 . S
N696 C692 1.427 . S
N696 C693 1.384 . S
N697 C689 1.427 . S
N697 C695 1.384 . S
H698 C704 0.930 . S
H699 C708 0.930 . S
H700 C713 0.929 . S
H701 C711 0.929 . S
H702 C706 0.929 . S
H703 C712 0.929 . S
C704 H698 0.930 . S
C704 C705 1.367 . S
C704 C712 1.378 . S
C705 C704 1.367 . S
C705 C713 1.433 . S
C706 H702 0.929 . S
C706 C708 1.378 . S
C706 C710 1.350 . S
C707 C710 1.463 . S
C707 C712 1.350 . S
C707 N715 1.427 . S
C708 H699 0.930 . S
C708 C706 1.378 . S
C708 C709 1.367 . S
C709 C708 1.367 . S
C709 C711 1.433 . S
C710 C706 1.350 . S
C710 C707 1.463 . S
C710 N714 1.427 . S
C711 H701 0.929 . S
C711 C709 1.433 . S
C711 N714 1.384 . S
C712 H703 0.929 . S
C712 C704 1.378 . S
C712 C707 1.350 . S
C713 H700 0.929 . S
C713 C705 1.433 . S
C713 N715 1.384 . S
N714 C710 1.427 . S
N714 C711 1.384 . S
N715 C707 1.427 . S
N715 C713 1.384 . S
H716 C722 0.930 . S
H717 C726 0.930 . S
H718 C731 0.929 . S
H719 C729 0.929 . S
H720 C724 0.929 . S
H721 C730 0.929 . S
C722 H716 0.930 . S
C722 C723 1.367 . S
C722 C730 1.378 . S
C723 C722 1.367 . S
C723 C731 1.433 . S
C724 H720 0.929 . S
C724 C726 1.378 . S
C724 C728 1.350 . S
C725 C728 1.463 . S
C725 C730 1.350 . S
C725 N733 1.427 . S
C726 H717 0.930 . S
C726 C724 1.378 . S
C726 C727 1.367 . S
C727 C726 1.367 . S
C727 C729 1.433 . S
C728 C724 1.350 . S
C728 C725 1.463 . S
C728 N732 1.427 . S
C729 H719 0.929 . S
C729 C727 1.433 . S
C729 N732 1.384 . S
C730 H721 0.929 . S
C730 C722 1.378 . S
C730 C725 1.350 . S
C731 H718 0.929 . S
C731 C723 1.433 . S
C731 N733 1.384 . S
N732 C728 1.427 . S
N732 C729 1.384 . S
N733 C725 1.427 . S
N733 C731 1.384 . S
H734 C740 0.930 . S
H735 C744 0.930 . S
H736 C749 0.929 . S
H737 C747 0.929 . S
H738 C742 0.929 . S
H739 C748 0.929 . S
C740 H734 0.930 . S
C740 C741 1.367 . S
C740 C748 1.378 . S
C741 C740 1.367 . S
C741 C749 1.433 . S
C742 H738 0.929 . S
C742 C744 1.378 . S
C742 C746 1.350 . S
C743 C746 1.463 . S
C743 C748 1.350 . S
C743 N751 1.427 . S
C744 H735 0.930 . S
C744 C742 1.378 . S
C744 C745 1.367 . S
C745 C744 1.367 . S
C745 C747 1.433 . S
C746 C742 1.350 . S
C746 C743 1.463 . S
C746 N750 1.427 . S
C747 H737 0.929 . S
C747 C745 1.433 . S
C747 N750 1.384 . S
C748 H739 0.929 . S
C748 C740 1.378 . S
C748 C743 1.350 . S
C749 H736 0.929 . S
C749 C741 1.433 . S
C749 N751 1.384 . S
N750 C746 1.427 . S
N750 C747 1.384 . S
N751 C743 1.427 . S
N751 C749 1.384 . S
H752 C758 0.930 . S
H753 C762 0.930 . S
H754 C767 0.929 . S
H755 C765 0.929 . S
H756 C760 0.929 . S
H757 C766 0.929 . S
C758 H752 0.930 . S
C758 C759 1.367 . S
C758 C766 1.378 . S
C759 C758 1.367 . S
C759 C767 1.433 . S
C760 H756 0.929 . S
C760 C762 1.378 . S
C760 C764 1.350 . S
C761 C764 1.463 . S
C761 C766 1.350 . S
C761 N769 1.427 . S
C762 H753 0.930 . S
C762 C760 1.378 . S
C762 C763 1.367 . S
C763 C762 1.367 . S
C763 C765 1.433 . S
C764 C760 1.350 . S
C764 C761 1.463 . S
C764 N768 1.427 . S
C765 H755 0.929 . S
C765 C763 1.433 . S
C765 N768 1.384 . S
C766 H757 0.929 . S
C766 C758 1.378 . S
C766 C761 1.350 . S
C767 H754 0.929 . S
C767 C759 1.433 . S
C767 N769 1.384 . S
N768 C764 1.427 . S
N768 C765 1.384 . S
N769 C761 1.427 . S
N769 C767 1.384 . S
H770 C776 0.930 . S
H771 C780 0.930 . S
H772 C785 0.929 . S
H773 C783 0.929 . S
H774 C778 0.929 . S
H775 C784 0.929 . S
C776 H770 0.930 . S
C776 C777 1.367 . S
C776 C784 1.378 . S
C777 C776 1.367 . S
C777 C785 1.433 . S
C778 H774 0.929 . S
C778 C780 1.378 . S
C778 C782 1.350 . S
C779 C782 1.463 . S
C779 C784 1.350 . S
C779 N787 1.427 . S
C780 H771 0.930 . S
C780 C778 1.378 . S
C780 C781 1.367 . S
C781 C780 1.367 . S
C781 C783 1.433 . S
C782 C778 1.350 . S
C782 C779 1.463 . S
C782 N786 1.427 . S
C783 H773 0.929 . S
C783 C781 1.433 . S
C783 N786 1.384 . S
C784 H775 0.929 . S
C784 C776 1.378 . S
C784 C779 1.350 . S
C785 H772 0.929 . S
C785 C777 1.433 . S
C785 N787 1.384 . S
N786 C782 1.427 . S
N786 C783 1.384 . S
N787 C779 1.427 . S
N787 C785 1.384 . S
H788 C794 0.930 . S
H789 C798 0.930 . S
H790 C803 0.929 . S
H791 C801 0.929 . S
H792 C796 0.929 . S
H793 C802 0.929 . S
C794 H788 0.930 . S
C794 C795 1.367 . S
C794 C802 1.378 . S
C795 C794 1.367 . S
C795 C803 1.433 . S
C796 H792 0.929 . S
C796 C798 1.378 . S
C796 C800 1.350 . S
C797 C800 1.463 . S
C797 C802 1.350 . S
C797 N805 1.427 . S
C798 H789 0.930 . S
C798 C796 1.378 . S
C798 C799 1.367 . S
C799 C798 1.367 . S
C799 C801 1.433 . S
C800 C796 1.350 . S
C800 C797 1.463 . S
C800 N804 1.427 . S
C801 H791 0.929 . S
C801 C799 1.433 . S
C801 N804 1.384 . S
C802 H793 0.929 . S
C802 C794 1.378 . S
C802 C797 1.350 . S
C803 H790 0.929 . S
C803 C795 1.433 . S
C803 N805 1.384 . S
N804 C800 1.427 . S
N804 C801 1.384 . S
N805 C797 1.427 . S
N805 C803 1.384 . S
H806 C812 0.930 . S
H807 C816 0.930 . S
H808 C821 0.929 . S
H809 C819 0.929 . S
H810 C814 0.929 . S
H811 C820 0.929 . S
C812 H806 0.930 . S
C812 C813 1.367 . S
C812 C820 1.378 . S
C813 C812 1.367 . S
C813 C821 1.433 . S
C814 H810 0.929 . S
C814 C816 1.378 . S
C814 C818 1.350 . S
C815 C818 1.463 . S
C815 C820 1.350 . S
C815 N823 1.427 . S
C816 H807 0.930 . S
C816 C814 1.378 . S
C816 C817 1.367 . S
C817 C816 1.367 . S
C817 C819 1.433 . S
C818 C814 1.350 . S
C818 C815 1.463 . S
C818 N822 1.427 . S
C819 H809 0.929 . S
C819 C817 1.433 . S
C819 N822 1.384 . S
C820 H811 0.929 . S
C820 C812 1.378 . S
C820 C815 1.350 . S
C821 H808 0.929 . S
C821 C813 1.433 . S
C821 N823 1.384 . S
N822 C818 1.427 . S
N822 C819 1.384 . S
N823 C815 1.427 . S
N823 C821 1.384 . S
H824 C830 0.930 . S
H825 C834 0.930 . S
H826 C839 0.929 . S
H827 C837 0.929 . S
H828 C832 0.929 . S
H829 C838 0.929 . S
C830 H824 0.930 . S
C830 C831 1.367 . S
C830 C838 1.378 . S
C831 C830 1.367 . S
C831 C839 1.433 . S
C832 H828 0.929 . S
C832 C834 1.378 . S
C832 C836 1.350 . S
C833 C836 1.463 . S
C833 C838 1.350 . S
C833 N841 1.427 . S
C834 H825 0.930 . S
C834 C832 1.378 . S
C834 C835 1.367 . S
C835 C834 1.367 . S
C835 C837 1.433 . S
C836 C832 1.350 . S
C836 C833 1.463 . S
C836 N840 1.427 . S
C837 H827 0.929 . S
C837 C835 1.433 . S
C837 N840 1.384 . S
C838 H829 0.929 . S
C838 C830 1.378 . S
C838 C833 1.350 . S
C839 H826 0.929 . S
C839 C831 1.433 . S
C839 N841 1.384 . S
N840 C836 1.427 . S
N840 C837 1.384 . S
N841 C833 1.427 . S
N841 C839 1.384 . S
H842 C848 0.930 . S
H843 C852 0.930 . S
H844 C857 0.929 . S
H845 C855 0.929 . S
H846 C850 0.929 . S
H847 C856 0.929 . S
C848 H842 0.930 . S
C848 C849 1.367 . S
C848 C856 1.378 . S
C849 C848 1.367 . S
C849 C857 1.433 . S
C850 H846 0.929 . S
C850 C852 1.378 . S
C850 C854 1.350 . S
C851 C854 1.463 . S
C851 C856 1.350 . S
C851 N859 1.427 . S
C852 H843 0.930 . S
C852 C850 1.378 . S
C852 C853 1.367 . S
C853 C852 1.367 . S
C853 C855 1.433 . S
C854 C850 1.350 . S
C854 C851 1.463 . S
C854 N858 1.427 . S
C855 H845 0.929 . S
C855 C853 1.433 . S
C855 N858 1.384 . S
C856 H847 0.929 . S
C856 C848 1.378 . S
C856 C851 1.350 . S
C857 H844 0.929 . S
C857 C849 1.433 . S
C857 N859 1.384 . S
N858 C854 1.427 . S
N858 C855 1.384 . S
N859 C851 1.427 . S
N859 C857 1.384 . S
H860 C866 0.930 . S
H861 C870 0.930 . S
H862 C875 0.929 . S
H863 C873 0.929 . S
H864 C868 0.929 . S
H865 C874 0.929 . S
C866 H860 0.930 . S
C866 C867 1.367 . S
C866 C874 1.378 . S
C867 C866 1.367 . S
C867 C875 1.433 . S
C868 H864 0.929 . S
C868 C870 1.378 . S
C868 C872 1.350 . S
C869 C872 1.463 . S
C869 C874 1.350 . S
C869 N877 1.427 . S
C870 H861 0.930 . S
C870 C868 1.378 . S
C870 C871 1.367 . S
C871 C870 1.367 . S
C871 C873 1.433 . S
C872 C868 1.350 . S
C872 C869 1.463 . S
C872 N876 1.427 . S
C873 H863 0.929 . S
C873 C871 1.433 . S
C873 N876 1.384 . S
C874 H865 0.929 . S
C874 C866 1.378 . S
C874 C869 1.350 . S
C875 H862 0.929 . S
C875 C867 1.433 . S
C875 N877 1.384 . S
N876 C872 1.427 . S
N876 C873 1.384 . S
N877 C869 1.427 . S
N877 C875 1.384 . S
H878 C884 0.930 . S
H879 C888 0.930 . S
H880 C893 0.929 . S
H881 C891 0.929 . S
H882 C886 0.929 . S
H883 C892 0.929 . S
C884 H878 0.930 . S
C884 C885 1.367 . S
C884 C892 1.378 . S
C885 C884 1.367 . S
C885 C893 1.433 . S
C886 H882 0.929 . S
C886 C888 1.378 . S
C886 C890 1.350 . S
C887 C890 1.463 . S
C887 C892 1.350 . S
C887 N895 1.427 . S
C888 H879 0.930 . S
C888 C886 1.378 . S
C888 C889 1.367 . S
C889 C888 1.367 . S
C889 C891 1.433 . S
C890 C886 1.350 . S
C890 C887 1.463 . S
C890 N894 1.427 . S
C891 H881 0.929 . S
C891 C889 1.433 . S
C891 N894 1.384 . S
C892 H883 0.929 . S
C892 C884 1.378 . S
C892 C887 1.350 . S
C893 H880 0.929 . S
C893 C885 1.433 . S
C893 N895 1.384 . S
N894 C890 1.427 . S
N894 C891 1.384 . S
N895 C887 1.427 . S
N895 C893 1.384 . S
H896 C902 0.930 . S
H897 C906 0.930 . S
H898 C911 0.929 . S
H899 C909 0.929 . S
H900 C904 0.929 . S
H901 C910 0.929 . S
C902 H896 0.930 . S
C902 C903 1.367 . S
C902 C910 1.378 . S
C903 C902 1.367 . S
C903 C911 1.433 . S
C904 H900 0.929 . S
C904 C906 1.378 . S
C904 C908 1.350 . S
C905 C908 1.463 . S
C905 C910 1.350 . S
C905 N913 1.427 . S
C906 H897 0.930 . S
C906 C904 1.378 . S
C906 C907 1.367 . S
C907 C906 1.367 . S
C907 C909 1.433 . S
C908 C904 1.350 . S
C908 C905 1.463 . S
C908 N912 1.427 . S
C909 H899 0.929 . S
C909 C907 1.433 . S
C909 N912 1.384 . S
C910 H901 0.929 . S
C910 C902 1.378 . S
C910 C905 1.350 . S
C911 H898 0.929 . S
C911 C903 1.433 . S
C911 N913 1.384 . S
N912 C908 1.427 . S
N912 C909 1.384 . S
N913 C905 1.427 . S
N913 C911 1.384 . S
H914 C920 0.930 . S
H915 C924 0.930 . S
H916 C929 0.929 . S
H917 C927 0.929 . S
H918 C922 0.929 . S
H919 C928 0.929 . S
C920 H914 0.930 . S
C920 C921 1.367 . S
C920 C928 1.378 . S
C921 C920 1.367 . S
C921 C929 1.433 . S
C922 H918 0.929 . S
C922 C924 1.378 . S
C922 C926 1.350 . S
C923 C926 1.463 . S
C923 C928 1.350 . S
C923 N931 1.427 . S
C924 H915 0.930 . S
C924 C922 1.378 . S
C924 C925 1.367 . S
C925 C924 1.367 . S
C925 C927 1.433 . S
C926 C922 1.350 . S
C926 C923 1.463 . S
C926 N930 1.427 . S
C927 H917 0.929 . S
C927 C925 1.433 . S
C927 N930 1.384 . S
C928 H919 0.929 . S
C928 C920 1.378 . S
C928 C923 1.350 . S
C929 H916 0.929 . S
C929 C921 1.433 . S
C929 N931 1.384 . S
N930 C926 1.427 . S
N930 C927 1.384 . S
N931 C923 1.427 . S
N931 C929 1.384 . S
H932 C938 0.930 . S
H933 C942 0.930 . S
H934 C947 0.929 . S
H935 C945 0.929 . S
H936 C940 0.929 . S
H937 C946 0.929 . S
C938 H932 0.930 . S
C938 C939 1.367 . S
C938 C946 1.378 . S
C939 C938 1.367 . S
C939 C947 1.433 . S
C940 H936 0.929 . S
C940 C942 1.378 . S
C940 C944 1.350 . S
C941 C944 1.463 . S
C941 C946 1.350 . S
C941 N949 1.427 . S
C942 H933 0.930 . S
C942 C940 1.378 . S
C942 C943 1.367 . S
C943 C942 1.367 . S
C943 C945 1.433 . S
C944 C940 1.350 . S
C944 C941 1.463 . S
C944 N948 1.427 . S
C945 H935 0.929 . S
C945 C943 1.433 . S
C945 N948 1.384 . S
C946 H937 0.929 . S
C946 C938 1.378 . S
C946 C941 1.350 . S
C947 H934 0.929 . S
C947 C939 1.433 . S
C947 N949 1.384 . S
N948 C944 1.427 . S
N948 C945 1.384 . S
N949 C941 1.427 . S
N949 C947 1.384 . S
H950 C956 0.930 . S
H951 C960 0.930 . S
H952 C965 0.929 . S
H953 C963 0.929 . S
H954 C958 0.929 . S
H955 C964 0.929 . S
C956 H950 0.930 . S
C956 C957 1.367 . S
C956 C964 1.378 . S
C957 C956 1.367 . S
C957 C965 1.433 . S
C958 H954 0.929 . S
C958 C960 1.378 . S
C958 C962 1.350 . S
C959 C962 1.463 . S
C959 C964 1.350 . S
C959 N967 1.427 . S
C960 H951 0.930 . S
C960 C958 1.378 . S
C960 C961 1.367 . S
C961 C960 1.367 . S
C961 C963 1.433 . S
C962 C958 1.350 . S
C962 C959 1.463 . S
C962 N966 1.427 . S
C963 H953 0.929 . S
C963 C961 1.433 . S
C963 N966 1.384 . S
C964 H955 0.929 . S
C964 C956 1.378 . S
C964 C959 1.350 . S
C965 H952 0.929 . S
C965 C957 1.433 . S
C965 N967 1.384 . S
N966 C962 1.427 . S
N966 C963 1.384 . S
N967 C959 1.427 . S
N967 C965 1.384 . S
H968 C974 0.930 . S
H969 C978 0.930 . S
H970 C983 0.929 1_554 S
H971 C981 0.929 . S
H972 C976 0.929 . S
H973 C982 0.929 . S
C974 H968 0.930 . S
C974 C975 1.367 . S
C974 C982 1.378 . S
C975 C974 1.367 . S
C975 C983 1.433 . S
C976 H972 0.929 . S
C976 C978 1.378 . S
C976 C980 1.350 . S
C977 C980 1.463 . S
C977 C982 1.350 1_554 S
C977 N985 1.427 . S
C978 H969 0.930 . S
C978 C976 1.378 . S
C978 C979 1.367 . S
C979 C978 1.367 . S
C979 C981 1.433 . S
C980 C976 1.350 . S
C980 C977 1.463 . S
C980 N984 1.427 . S
C981 H971 0.929 . S
C981 C979 1.433 . S
C981 N984 1.384 . S
C982 H973 0.929 . S
C982 C974 1.378 . S
C982 C977 1.350 1_556 S
C983 H970 0.929 1_556 S
C983 C975 1.433 . S
C983 N985 1.384 1_556 S
N984 C980 1.427 . S
N984 C981 1.384 . S
N985 C977 1.427 . S
N985 C983 1.384 1_554 S
H986 C992 0.930 . S
H987 C996 0.930 . S
H988 C1001 0.929 . S
H989 C999 0.929 . S
H990 C994 0.929 . S
H991 C1000 0.929 . S
C992 H986 0.930 . S
C992 C993 1.367 . S
C992 C1000 1.378 . S
C993 C992 1.367 . S
C993 C1001 1.433 . S
C994 H990 0.929 . S
C994 C996 1.378 . S
C994 C998 1.350 1_556 S
C995 C998 1.463 . S
C995 C1000 1.350 . S
C995 N1003 1.427 . S
C996 H987 0.930 . S
C996 C994 1.378 . S
C996 C997 1.367 . S
C997 C996 1.367 . S
C997 C999 1.433 1_556 S
C998 C994 1.350 1_554 S
C998 C995 1.463 . S
C998 N1002 1.427 . S
C999 H989 0.929 . S
C999 C997 1.433 1_554 S
C999 N1002 1.384 . S
C1000 H991 0.929 . S
C1000 C992 1.378 . S
C1000 C995 1.350 . S
C1001 H988 0.929 . S
C1001 C993 1.433 . S
C1001 N1003 1.384 . S
N1002 C998 1.427 . S
N1002 C999 1.384 . S
N1003 C995 1.427 . S
N1003 C1001 1.384 . S
H1004 C1010 0.930 . S
H1005 C1014 0.930 . S
H1006 C1019 0.929 . S
H1007 C1017 0.929 . S
H1008 C1012 0.929 . S
H1009 C1018 0.924 1_554 S
C1010 H1004 0.930 . S
C1010 C1011 1.367 . S
C1010 C1018 1.387 . S
C1011 C1010 1.367 . S
C1011 C1019 1.433 . S
C1012 H1008 0.929 . S
C1012 C1014 1.378 . S
C1012 C1016 1.350 . S
C1013 C1016 1.463 . S
C1013 C1018 1.346 1_554 S
C1013 N1021 1.427 1_554 S
C1014 H1005 0.930 . S
C1014 C1012 1.378 . S
C1014 C1015 1.367 . S
C1015 C1014 1.367 . S
C1015 C1017 1.433 . S
C1016 C1012 1.350 . S
C1016 C1013 1.463 . S
C1016 N1020 1.427 . S
C1017 H1007 0.929 . S
C1017 C1015 1.433 . S
C1017 N1020 1.384 . S
C1018 H1009 0.924 1_556 S
C1018 C1010 1.387 . S
C1018 C1013 1.346 1_556 S
C1019 H1006 0.929 . S
C1019 C1011 1.433 . S
C1019 N1021 1.384 . S
N1020 C1016 1.427 . S
N1020 C1017 1.384 . S
N1021 C1013 1.427 1_556 S
N1021 C1019 1.384 . S
H1022 C1028 0.930 . S
H1023 C1032 0.933 . S
H1024 C1037 0.929 . S
H1025 C1035 0.929 . S
H1026 C1030 0.929 . S
H1027 C1036 0.929 1_556 S
C1028 H1022 0.930 . S
C1028 C1029 1.367 . S
C1028 C1036 1.378 . S
C1029 C1028 1.367 . S
C1029 C1037 1.433 . S
C1030 H1026 0.929 . S
C1030 C1032 1.382 . S
C1030 C1034 1.350 . S
C1031 C1034 1.463 . S
C1031 C1036 1.350 . S
C1031 N1039 1.427 . S
C1032 H1023 0.933 . S
C1032 C1030 1.382 . S
C1032 C1033 1.359 1_554 S
C1033 C1032 1.359 1_556 S
C1033 C1035 1.433 . S
C1034 C1030 1.350 . S
C1034 C1031 1.463 . S
C1034 N1038 1.427 1_554 S
C1035 H1025 0.929 . S
C1035 C1033 1.433 . S
C1035 N1038 1.384 . S
C1036 H1027 0.929 1_554 S
C1036 C1028 1.378 . S
C1036 C1031 1.350 . S
C1037 H1024 0.929 . S
C1037 C1029 1.433 . S
C1037 N1039 1.384 . S
N1038 C1034 1.427 1_556 S
N1038 C1035 1.384 . S
N1039 C1031 1.427 . S
N1039 C1037 1.384 . S
H1040 C1046 0.930 . S
H1041 C1050 0.930 . S
H1042 C1055 0.929 . S
H1043 C1053 0.929 . S
H1044 C1048 0.929 . S
H1045 C1054 0.929 . S
C1046 H1040 0.930 . S
C1046 C1047 1.367 . S
C1046 C1054 1.378 . S
C1047 C1046 1.367 . S
C1047 C1055 1.433 . S
C1048 H1044 0.929 . S
C1048 C1050 1.378 . S
C1048 C1052 1.350 . S
C1049 C1052 1.463 . S
C1049 C1054 1.350 . S
C1049 N1057 1.427 . S
C1050 H1041 0.930 . S
C1050 C1048 1.378 . S
C1050 C1051 1.367 . S
C1051 C1050 1.367 . S
C1051 C1053 1.433 . S
C1052 C1048 1.350 . S
C1052 C1049 1.463 . S
C1052 N1056 1.427 . S
C1053 H1043 0.929 . S
C1053 C1051 1.433 . S
C1053 N1056 1.384 . S
C1054 H1045 0.929 . S
C1054 C1046 1.378 . S
C1054 C1049 1.350 . S
C1055 H1042 0.929 . S
C1055 C1047 1.433 . S
C1055 N1057 1.384 . S
N1056 C1052 1.427 . S
N1056 C1053 1.384 . S
N1057 C1049 1.427 . S
N1057 C1055 1.384 . S
H1058 C1064 0.930 . S
H1059 C1068 0.930 . S
H1060 C1073 0.929 . S
H1061 C1071 0.929 . S
H1062 C1066 0.929 . S
H1063 C1072 0.929 . S
C1064 H1058 0.930 . S
C1064 C1065 1.367 . S
C1064 C1072 1.378 . S
C1065 C1064 1.367 . S
C1065 C1073 1.433 . S
C1066 H1062 0.929 . S
C1066 C1068 1.378 . S
C1066 C1070 1.350 . S
C1067 C1070 1.463 . S
C1067 C1072 1.350 . S
C1067 N1075 1.427 . S
C1068 H1059 0.930 . S
C1068 C1066 1.378 . S
C1068 C1069 1.367 . S
C1069 C1068 1.367 . S
C1069 C1071 1.433 . S
C1070 C1066 1.350 . S
C1070 C1067 1.463 . S
C1070 N1074 1.427 . S
C1071 H1061 0.929 . S
C1071 C1069 1.433 . S
C1071 N1074 1.384 . S
C1072 H1063 0.929 . S
C1072 C1064 1.378 . S
C1072 C1067 1.350 . S
C1073 H1060 0.929 . S
C1073 C1065 1.433 . S
C1073 N1075 1.384 . S
N1074 C1070 1.427 . S
N1074 C1071 1.384 . S
N1075 C1067 1.427 . S
N1075 C1073 1.384 . S
H1076 C1082 0.930 . S
H1077 C1086 0.930 . S
H1078 C1091 0.929 . S
H1079 C1089 0.929 . S
H1080 C1084 0.929 . S
H1081 C1090 0.929 . S
C1082 H1076 0.930 . S
C1082 C1083 1.367 . S
C1082 C1090 1.378 . S
C1083 C1082 1.367 . S
C1083 C1091 1.433 . S
C1084 H1080 0.929 . S
C1084 C1086 1.378 . S
C1084 C1088 1.350 . S
C1085 C1088 1.463 . S
C1085 C1090 1.350 . S
C1085 N1093 1.427 . S
C1086 H1077 0.930 . S
C1086 C1084 1.378 . S
C1086 C1087 1.367 . S
C1087 C1086 1.367 . S
C1087 C1089 1.433 . S
C1088 C1084 1.350 . S
C1088 C1085 1.463 . S
C1088 N1092 1.427 . S
C1089 H1079 0.929 . S
C1089 C1087 1.433 . S
C1089 N1092 1.384 . S
C1090 H1081 0.929 . S
C1090 C1082 1.378 . S
C1090 C1085 1.350 . S
C1091 H1078 0.929 . S
C1091 C1083 1.433 . S
C1091 N1093 1.384 . S
N1092 C1088 1.427 . S
N1092 C1089 1.384 . S
N1093 C1085 1.427 . S
N1093 C1091 1.384 . S
H1094 C1100 0.930 . S
H1095 C1104 0.930 . S
H1096 C1109 0.929 . S
H1097 C1107 0.929 . S
H1098 C1102 0.929 . S
H1099 C1108 0.929 . S
C1100 H1094 0.930 . S
C1100 C1101 1.367 . S
C1100 C1108 1.378 . S
C1101 C1100 1.367 . S
C1101 C1109 1.433 . S
C1102 H1098 0.929 . S
C1102 C1104 1.378 . S
C1102 C1106 1.350 . S
C1103 C1106 1.463 . S
C1103 C1108 1.350 . S
C1103 N1111 1.427 . S
C1104 H1095 0.930 . S
C1104 C1102 1.378 . S
C1104 C1105 1.367 . S
C1105 C1104 1.367 . S
C1105 C1107 1.433 . S
C1106 C1102 1.350 . S
C1106 C1103 1.463 . S
C1106 N1110 1.427 . S
C1107 H1097 0.929 . S
C1107 C1105 1.433 . S
C1107 N1110 1.384 . S
C1108 H1099 0.929 . S
C1108 C1100 1.378 . S
C1108 C1103 1.350 . S
C1109 H1096 0.929 . S
C1109 C1101 1.433 . S
C1109 N1111 1.384 . S
N1110 C1106 1.427 . S
N1110 C1107 1.384 . S
N1111 C1103 1.427 . S
N1111 C1109 1.384 . S
H1112 C1118 0.930 . S
H1113 C1122 0.930 . S
H1114 C1127 0.929 . S
H1115 C1125 0.929 . S
H1116 C1120 0.929 . S
H1117 C1126 0.929 . S
C1118 H1112 0.930 . S
C1118 C1119 1.367 . S
C1118 C1126 1.378 . S
C1119 C1118 1.367 . S
C1119 C1127 1.433 . S
C1120 H1116 0.929 . S
C1120 C1122 1.378 . S
C1120 C1124 1.350 1_554 S
C1121 C1124 1.463 . S
C1121 C1126 1.350 . S
C1121 N1129 1.427 . S
C1122 H1113 0.930 . S
C1122 C1120 1.378 . S
C1122 C1123 1.367 . S
C1123 C1122 1.367 . S
C1123 C1125 1.433 1_554 S
C1124 C1120 1.350 1_556 S
C1124 C1121 1.463 . S
C1124 N1128 1.427 . S
C1125 H1115 0.929 . S
C1125 C1123 1.433 1_556 S
C1125 N1128 1.384 . S
C1126 H1117 0.929 . S
C1126 C1118 1.378 . S
C1126 C1121 1.350 . S
C1127 H1114 0.929 . S
C1127 C1119 1.433 . S
C1127 N1129 1.384 . S
N1128 C1124 1.427 . S
N1128 C1125 1.384 . S
N1129 C1121 1.427 . S
N1129 C1127 1.384 . S
H1130 C1136 0.930 . S
H1131 C1140 0.930 . S
H1132 C1145 0.929 . S
H1133 C1143 0.929 . S
H1134 C1138 0.929 . S
H1135 C1144 0.929 . S
C1136 H1130 0.930 . S
C1136 C1137 1.367 . S
C1136 C1144 1.378 . S
C1137 C1136 1.367 . S
C1137 C1145 1.433 . S
C1138 H1134 0.929 . S
C1138 C1140 1.378 . S
C1138 C1142 1.350 1_554 S
C1139 C1142 1.463 . S
C1139 C1144 1.350 . S
C1139 N1147 1.427 . S
C1140 H1131 0.930 . S
C1140 C1138 1.378 . S
C1140 C1141 1.367 . S
C1141 C1140 1.367 . S
C1141 C1143 1.433 . S
C1142 C1138 1.350 1_556 S
C1142 C1139 1.463 . S
C1142 N1146 1.427 . S
C1143 H1133 0.929 . S
C1143 C1141 1.433 . S
C1143 N1146 1.384 1_554 S
C1144 H1135 0.929 . S
C1144 C1136 1.378 . S
C1144 C1139 1.350 . S
C1145 H1132 0.929 . S
C1145 C1137 1.433 . S
C1145 N1147 1.384 . S
N1146 C1142 1.427 . S
N1146 C1143 1.384 1_556 S
N1147 C1139 1.427 . S
N1147 C1145 1.384 . S
H1148 C1154 0.930 . S
H1149 C1158 0.930 . S
H1150 C1163 0.929 . S
H1151 C1161 0.929 . S
H1152 C1156 0.929 . S
H1153 C1162 0.929 . S
C1154 H1148 0.930 . S
C1154 C1155 1.367 . S
C1154 C1162 1.378 . S
C1155 C1154 1.367 . S
C1155 C1163 1.433 . S
C1156 H1152 0.929 . S
C1156 C1158 1.378 . S
C1156 C1160 1.350 . S
C1157 C1160 1.463 . S
C1157 C1162 1.350 1_556 S
C1157 N1165 1.427 . S
C1158 H1149 0.930 . S
C1158 C1156 1.378 . S
C1158 C1159 1.367 . S
C1159 C1158 1.367 . S
C1159 C1161 1.433 . S
C1160 C1156 1.350 . S
C1160 C1157 1.463 . S
C1160 N1164 1.427 . S
C1161 H1151 0.929 . S
C1161 C1159 1.433 . S
C1161 N1164 1.384 . S
C1162 H1153 0.929 . S
C1162 C1154 1.378 . S
C1162 C1157 1.350 1_554 S
C1163 H1150 0.929 . S
C1163 C1155 1.433 . S
C1163 N1165 1.384 1_554 S
N1164 C1160 1.427 . S
N1164 C1161 1.384 . S
N1165 C1157 1.427 . S
N1165 C1163 1.384 1_556 S
H1166 C1172 0.930 . S
H1167 C1176 0.930 . S
H1168 C1181 0.929 . S
H1169 C1179 0.929 . S
H1170 C1174 0.929 1_554 S
H1171 C1180 0.929 . S
C1172 H1166 0.930 . S
C1172 C1173 1.367 1_556 S
C1172 C1180 1.378 . S
C1173 C1172 1.367 1_554 S
C1173 C1181 1.433 . S
C1174 H1170 0.929 1_556 S
C1174 C1176 1.378 . S
C1174 C1178 1.350 . S
C1175 C1178 1.463 . S
C1175 C1180 1.350 . S
C1175 N1183 1.427 1_556 S
C1176 H1167 0.930 . S
C1176 C1174 1.378 . S
C1176 C1177 1.367 . S
C1177 C1176 1.367 . S
C1177 C1179 1.433 . S
C1178 C1174 1.350 . S
C1178 C1175 1.463 . S
C1178 N1182 1.427 . S
C1179 H1169 0.929 . S
C1179 C1177 1.433 . S
C1179 N1182 1.384 . S
C1180 H1171 0.929 . S
C1180 C1172 1.378 . S
C1180 C1175 1.350 . S
C1181 H1168 0.929 . S
C1181 C1173 1.433 . S
C1181 N1183 1.384 . S
N1182 C1178 1.427 . S
N1182 C1179 1.384 . S
N1183 C1175 1.427 1_554 S
N1183 C1181 1.384 . S
C327 C8 1.847 . S
C331 C108 1.832 . S
C345 C128 1.846 . S
C349 C28 1.833 . S
C363 C48 1.848 . S
C367 C148 1.831 . S
C381 C68 1.833 . S
C385 C88 1.847 . S
C399 C269 1.840 . S
C403 C169 1.839 . S
C417 C289 1.841 . S
C421 C189 1.838 . S
C435 C209 1.842 . S
C439 C309 1.837 . S
C453 C229 1.831 . S
C457 C249 1.848 . S
C471 C1 1.750 . S
C475 C79 1.639 . S
C489 C21 1.750 . S
C493 C19 1.640 . S
C507 C41 1.753 . S
C511 C39 1.651 . S
C525 C61 1.748 . S
C529 C59 1.644 . S
C543 C81 1.759 . S
C547 C119 1.634 . S
C561 C139 1.632 . S
C565 C101 1.754 . S
C579 C121 1.754 . S
C583 C159 1.633 . S
C597 C99 1.634 . S
C601 C141 1.754 . S
C615 C238 1.652 . S
C619 C162 1.753 . S
C633 C182 1.753 . S
C637 C178 1.634 . S
C651 C202 1.757 . S
C655 C198 1.631 . S
C669 C222 1.760 . S
C673 C218 1.635 . S
C687 C242 1.750 . S
C691 C278 1.640 . S
C705 C262 1.759 . S
C709 C298 1.632 . S
C723 C282 1.758 . S
C727 C318 1.646 . S
C741 C302 1.756 . S
C745 C258 1.633 . S
C759 C2 0.364 . S
C763 C42 0.380 . S
C777 C22 0.357 . S
C781 C62 0.374 . S
C795 C122 0.350 . S
C799 C82 0.360 . S
C813 C142 0.354 . S
C817 C102 0.370 . S
C831 C201 0.383 . S
C835 C161 0.367 . S
C849 C221 0.369 . S
C853 C181 0.384 . S
C867 C241 0.375 . S
C871 C281 0.358 . S
C885 C261 0.371 . S
C889 C301 0.385 . S
C903 C18 1.548 . S
C907 C228 1.544 . S
C921 C168 1.544 . S
C925 C38 1.548 . S
C939 C58 1.548 . S
C943 C188 1.546 . S
C957 C208 1.546 . S
C961 C78 1.548 . S
C975 C268 1.544 . S
C979 C98 1.548 . S
C993 C118 1.548 . S
C997 C288 1.544 . S
C1011 C308 1.547 . S
C1015 C138 1.548 . S
C1029 C158 1.547 . S
C1033 C248 1.546 . S
C1047 C179 1.548 . S
C1051 C69 1.547 . S
C1065 C199 1.547 . S
C1069 C9 1.546 . S
C1083 C29 1.543 . S
C1087 C219 1.548 . S
C1101 C239 1.547 . S
C1105 C49 1.546 . S
C1119 C259 1.548 . S
C1123 C109 1.544 . S
C1137 C279 1.548 . S
C1141 C129 1.546 . S
C1155 C149 1.546 . S
C1159 C299 1.548 . S
C1173 C89 1.545 . S
C1177 C319 1.547 . S
