# Generated by pormake.
# Topology tzs, (4)-cn, num edge types: 1
# Building blocks:
#     Node 0, Type 0, BuildingBlock: AZAVOO_clean_sbu_0, # of connection points: 4
#     Node 1, Type 0, BuildingBlock: AZAVOO_clean_sbu_0, # of connection points: 4
#     Node 2, Type 0, BuildingBlock: AZAVOO_clean_sbu_0, # of connection points: 4
#     Node 3, Type 0, BuildingBlock: AZAVOO_clean_sbu_0, # of connection points: 4
#     Node 4, Type 0, BuildingBlock: AZAVOO_clean_sbu_0, # of connection points: 4
#     Node 5, Type 0, BuildingBlock: AZAVOO_clean_sbu_0, # of connection points: 4
#     Node 6, Type 0, BuildingBlock: AZAVOO_clean_sbu_0, # of connection points: 4
#     Node 7, Type 0, BuildingBlock: AZAVOO_clean_sbu_0, # of connection points: 4
#     Node 8, Type 0, BuildingBlock: AZAVOO_clean_sbu_0, # of connection points: 4
#     Node 9, Type 0, BuildingBlock: AZAVOO_clean_sbu_0, # of connection points: 4
#     Node 10, Type 0, BuildingBlock: AZAVOO_clean_sbu_0, # of connection points: 4
#     Node 11, Type 0, BuildingBlock: AZAVOO_clean_sbu_0, # of connection points: 4
#     Node 12, Type 0, BuildingBlock: AZAVOO_clean_sbu_0, # of connection points: 4
#     Node 13, Type 0, BuildingBlock: AZAVOO_clean_sbu_0, # of connection points: 4
#     Node 14, Type 0, BuildingBlock: AZAVOO_clean_sbu_0, # of connection points: 4
#     Node 15, Type 0, BuildingBlock: AZAVOO_clean_sbu_0, # of connection points: 4
#     Edge 16, Type (0, 0), BuildingBlock: UVAHIK_clean_linker_0, # of connection points: 2
#     Edge 17, Type (0, 0), BuildingBlock: UVAHIK_clean_linker_0, # of connection points: 2
#     Edge 18, Type (0, 0), BuildingBlock: UVAHIK_clean_linker_0, # of connection points: 2
#     Edge 19, Type (0, 0), BuildingBlock: UVAHIK_clean_linker_0, # of connection points: 2
#     Edge 20, Type (0, 0), BuildingBlock: UVAHIK_clean_linker_0, # of connection points: 2
#     Edge 21, Type (0, 0), BuildingBlock: UVAHIK_clean_linker_0, # of connection points: 2
#     Edge 22, Type (0, 0), BuildingBlock: UVAHIK_clean_linker_0, # of connection points: 2
#     Edge 23, Type (0, 0), BuildingBlock: UVAHIK_clean_linker_0, # of connection points: 2
#     Edge 24, Type (0, 0), BuildingBlock: UVAHIK_clean_linker_0, # of connection points: 2
#     Edge 25, Type (0, 0), BuildingBlock: UVAHIK_clean_linker_0, # of connection points: 2
#     Edge 26, Type (0, 0), BuildingBlock: UVAHIK_clean_linker_0, # of connection points: 2
#     Edge 27, Type (0, 0), BuildingBlock: UVAHIK_clean_linker_0, # of connection points: 2
#     Edge 28, Type (0, 0), BuildingBlock: UVAHIK_clean_linker_0, # of connection points: 2
#     Edge 29, Type (0, 0), BuildingBlock: UVAHIK_clean_linker_0, # of connection points: 2
#     Edge 30, Type (0, 0), BuildingBlock: UVAHIK_clean_linker_0, # of connection points: 2
#     Edge 31, Type (0, 0), BuildingBlock: UVAHIK_clean_linker_0, # of connection points: 2
#     Edge 32, Type (0, 0), BuildingBlock: UVAHIK_clean_linker_0, # of connection points: 2
#     Edge 33, Type (0, 0), BuildingBlock: UVAHIK_clean_linker_0, # of connection points: 2
#     Edge 34, Type (0, 0), BuildingBlock: UVAHIK_clean_linker_0, # of connection points: 2
#     Edge 35, Type (0, 0), BuildingBlock: UVAHIK_clean_linker_0, # of connection points: 2
#     Edge 36, Type (0, 0), BuildingBlock: UVAHIK_clean_linker_0, # of connection points: 2
#     Edge 37, Type (0, 0), BuildingBlock: UVAHIK_clean_linker_0, # of connection points: 2
#     Edge 38, Type (0, 0), BuildingBlock: UVAHIK_clean_linker_0, # of connection points: 2
#     Edge 39, Type (0, 0), BuildingBlock: UVAHIK_clean_linker_0, # of connection points: 2
#     Edge 40, Type (0, 0), BuildingBlock: UVAHIK_clean_linker_0, # of connection points: 2
#     Edge 41, Type (0, 0), BuildingBlock: UVAHIK_clean_linker_0, # of connection points: 2
#     Edge 42, Type (0, 0), BuildingBlock: UVAHIK_clean_linker_0, # of connection points: 2
#     Edge 43, Type (0, 0), BuildingBlock: UVAHIK_clean_linker_0, # of connection points: 2
#     Edge 44, Type (0, 0), BuildingBlock: UVAHIK_clean_linker_0, # of connection points: 2
#     Edge 45, Type (0, 0), BuildingBlock: UVAHIK_clean_linker_0, # of connection points: 2
#     Edge 46, Type (0, 0), BuildingBlock: UVAHIK_clean_linker_0, # of connection points: 2
#     Edge 47, Type (0, 0), BuildingBlock: UVAHIK_clean_linker_0, # of connection points: 2
# Relax obj value: 0.106
# Max RMSD: 0.117
# Mean RMSD: 0.117
data_MOF--net-tzs--node1-AZAVOO_clean_sbu_0--edge1-UVAHIK_clean_linker_0
_symmetry_space_group_name_H-M    P1
_symmetry_Int_Tables_number       1
_symmetry_cell_setting            triclinic
loop_
_symmetry_equiv_pos_as_xyz
'x, y, z'
_cell_length_a     61.323263
_cell_length_b     61.297343
_cell_length_c     53.543496
_cell_angle_alpha  89.994194
_cell_angle_beta   90.023888
_cell_angle_gamma 90.033992
loop_
_atom_site_label
_atom_site_type_symbol
_atom_site_fract_x
_atom_site_fract_y
_atom_site_fract_z
_atom_type_partial_charge
Mg0 Mg 0.14611 0.35954 0.15021 0.0
O1 O 0.11422 0.353 0.17167 0.0
O2 O 0.09941 0.32325 0.15429 0.0
Mg3 Mg 0.12045 0.31204 0.12157 0.0
C4 C 0.09921 0.33855 0.17048 0.0
C5 C 0.16878 0.39869 0.1685 0.0
O6 O 0.17225 0.39717 0.14434 0.0
O7 O 0.16275 0.33081 0.16886 0.0
O8 O 0.14759 0.30234 0.14931 0.0
O9 O 0.12831 0.38093 0.12419 0.0
O10 O 0.13304 0.34554 0.11825 0.0
C11 C 0.1611 0.31033 0.16504 0.0
C12 C 0.12461 0.36371 0.11086 0.0
O13 O 0.15801 0.38364 0.17923 0.0
Mg14 Mg 0.64796 0.14776 0.16974 0.0
O15 O 0.65416 0.11274 0.1831 0.0
O16 O 0.68269 0.10011 0.16158 0.0
Mg17 Mg 0.69404 0.12647 0.13424 0.0
C18 C 0.66782 0.09765 0.17804 0.0
C19 C 0.61362 0.17137 0.19847 0.0
O20 O 0.61865 0.18414 0.17961 0.0
O21 O 0.67751 0.15968 0.19129 0.0
O22 O 0.70497 0.14822 0.16717 0.0
O23 O 0.62574 0.13603 0.14 0.0
O24 O 0.6612 0.14076 0.13501 0.0
C25 C 0.69782 0.15863 0.18618 0.0
C26 C 0.64274 0.13473 0.12578 0.0
O27 O 0.62467 0.15407 0.20171 0.0
Mg28 Mg 0.85415 0.64132 0.15938 0.0
O29 O 0.88954 0.64541 0.17279 0.0
O30 O 0.9029 0.67379 0.15137 0.0
Mg31 Mg 0.87782 0.68558 0.12276 0.0
C32 C 0.9049 0.65884 0.16783 0.0
C33 C 0.82837 0.60812 0.18553 0.0
O34 O 0.81793 0.61358 0.16503 0.0
O35 O 0.84418 0.67195 0.18041 0.0
O36 O 0.85613 0.69819 0.15475 0.0
O37 O 0.8645 0.61777 0.13039 0.0
O38 O 0.86238 0.65338 0.1245 0.0
C39 C 0.84578 0.69202 0.17424 0.0
C40 C 0.86729 0.63439 0.11584 0.0
O41 O 0.84548 0.61871 0.19129 0.0
Mg42 Mg 0.3611 0.84641 0.16182 0.0
O43 O 0.35272 0.88129 0.17435 0.0
O44 O 0.32346 0.89235 0.15291 0.0
Mg45 Mg 0.31379 0.86497 0.12613 0.0
C46 C 0.33832 0.89564 0.16919 0.0
C47 C 0.39929 0.85707 0.19548 0.0
O48 O 0.39737 0.87438 0.18119 0.0
O49 O 0.33229 0.83304 0.18347 0.0
O50 O 0.30405 0.84366 0.15992 0.0
O51 O 0.38269 0.8591 0.13238 0.0
O52 O 0.34753 0.85252 0.12689 0.0
C53 C 0.31188 0.8336 0.17884 0.0
C54 C 0.36574 0.85973 0.11802 0.0
O55 O 0.38487 0.84222 0.19399 0.0
Mg56 Mg 0.15418 0.63863 0.32277 0.0
O57 O 0.12109 0.6444 0.30363 0.0
O58 O 0.10606 0.6734 0.32227 0.0
Mg59 Mg 0.1284 0.68491 0.35376 0.0
C60 C 0.10565 0.65826 0.30591 0.0
C61 C 0.17483 0.59913 0.30162 0.0
O62 O 0.17849 0.59888 0.3258 0.0
O63 O 0.16878 0.66813 0.30351 0.0
O64 O 0.15362 0.69592 0.32432 0.0
O65 O 0.13852 0.61642 0.34964 0.0
O66 O 0.14248 0.65189 0.35582 0.0
C67 C 0.16657 0.68851 0.30763 0.0
C68 C 0.1351 0.63335 0.36352 0.0
O69 O 0.16487 0.61538 0.29228 0.0
Mg70 Mg 0.35569 0.15051 0.31121 0.0
O71 O 0.34931 0.11612 0.29552 0.0
O72 O 0.31817 0.10457 0.31281 0.0
Mg73 Mg 0.3059 0.13019 0.34038 0.0
C74 C 0.33433 0.10179 0.29813 0.0
C75 C 0.39453 0.17228 0.28987 0.0
O76 O 0.38943 0.18281 0.31044 0.0
O77 O 0.32865 0.16473 0.28724 0.0
O78 O 0.29877 0.15317 0.30727 0.0
O79 O 0.37481 0.13668 0.3423 0.0
O80 O 0.33932 0.14284 0.34398 0.0
C81 C 0.30796 0.16404 0.28981 0.0
C82 C 0.35672 0.13559 0.35468 0.0
O83 O 0.38196 0.15711 0.28248 0.0
Mg84 Mg 0.84873 0.3641 0.31799 0.0
O85 O 0.88375 0.35803 0.30428 0.0
O86 O 0.89702 0.331 0.32794 0.0
Mg87 Mg 0.87198 0.32179 0.35777 0.0
C88 C 0.89898 0.34474 0.31013 0.0
C89 C 0.82262 0.39462 0.28736 0.0
O90 O 0.81092 0.38993 0.30721 0.0
O91 O 0.83734 0.33246 0.30026 0.0
O92 O 0.84972 0.30744 0.32712 0.0
O93 O 0.86035 0.38931 0.34427 0.0
O94 O 0.85732 0.35432 0.35371 0.0
C95 C 0.83887 0.31271 0.30763 0.0
C96 C 0.863 0.37375 0.36031 0.0
O97 O 0.84038 0.38437 0.28401 0.0
Mg98 Mg 0.64705 0.84076 0.31105 0.0
O99 O 0.65271 0.87661 0.30107 0.0
O100 O 0.67749 0.88987 0.32765 0.0
Mg101 Mg 0.68627 0.86287 0.35561 0.0
C102 C 0.66469 0.8922 0.30901 0.0
C103 C 0.61709 0.81853 0.27439 0.0
O104 O 0.61969 0.80389 0.29208 0.0
O105 O 0.67983 0.83215 0.29449 0.0
O106 O 0.703 0.84283 0.32442 0.0
O107 O 0.62003 0.8496 0.33628 0.0
O108 O 0.65456 0.84737 0.34811 0.0
C109 C 0.69903 0.8335 0.30354 0.0
C110 C 0.6346 0.85206 0.35354 0.0
O111 O 0.62898 0.83549 0.27483 0.0
Mg112 Mg 0.84939 0.65386 0.81207 0.0
O113 O 0.84362 0.61814 0.80125 0.0
O114 O 0.81607 0.60567 0.82459 0.0
Mg115 Mg 0.80587 0.63271 0.85167 0.0
C116 C 0.83045 0.60299 0.80762 0.0
C117 C 0.88284 0.67545 0.77895 0.0
O118 O 0.87904 0.69019 0.79622 0.0
O119 O 0.81847 0.66408 0.79207 0.0
O120 O 0.79263 0.65305 0.81869 0.0
O121 O 0.8736 0.64357 0.84 0.0
O122 O 0.83844 0.64757 0.84809 0.0
C123 C 0.79851 0.66281 0.79867 0.0
C124 C 0.85759 0.64178 0.85559 0.0
O125 O 0.87072 0.65864 0.77817 0.0
Mg126 Mg 0.34624 0.85897 0.81396 0.0
O127 O 0.38085 0.85382 0.79847 0.0
O128 O 0.3946 0.82495 0.81862 0.0
Mg129 Mg 0.37007 0.8131 0.84766 0.0
C130 C 0.39618 0.84013 0.80238 0.0
C131 C 0.3213 0.89382 0.78826 0.0
O132 O 0.31056 0.88924 0.80885 0.0
O133 O 0.33381 0.82928 0.79321 0.0
O134 O 0.34731 0.80173 0.81586 0.0
O135 O 0.35896 0.88148 0.84251 0.0
O136 O 0.35541 0.84587 0.84807 0.0
C137 C 0.33577 0.80894 0.79775 0.0
C138 C 0.36163 0.86455 0.85663 0.0
O139 O 0.3377 0.88216 0.78264 0.0
Mg140 Mg 0.13573 0.34394 0.81398 0.0
O141 O 0.14258 0.37885 0.80045 0.0
O142 O 0.16902 0.39209 0.825 0.0
Mg143 Mg 0.17683 0.36711 0.85545 0.0
C144 C 0.15586 0.39399 0.80664 0.0
C145 C 0.10671 0.31787 0.78062 0.0
O146 O 0.11076 0.30526 0.79993 0.0
O147 O 0.16784 0.33239 0.79782 0.0
O148 O 0.19214 0.34469 0.8256 0.0
O149 O 0.1097 0.3558 0.83892 0.0
O150 O 0.1443 0.35262 0.85006 0.0
C151 C 0.18736 0.33385 0.80594 0.0
C152 C 0.12468 0.35846 0.85568 0.0
O153 O 0.11683 0.33589 0.77892 0.0
Mg154 Mg 0.65206 0.14112 0.81777 0.0
O155 O 0.61739 0.14733 0.80306 0.0
O156 O 0.60537 0.17736 0.82239 0.0
Mg157 Mg 0.63078 0.18853 0.85097 0.0
C158 C 0.60282 0.16189 0.80669 0.0
C159 C 0.67558 0.10522 0.79129 0.0
O160 O 0.68736 0.10958 0.81119 0.0
O161 O 0.66497 0.17002 0.7956 0.0
O162 O 0.65363 0.1982 0.81871 0.0
O163 O 0.6393 0.1198 0.84784 0.0
O164 O 0.64426 0.15535 0.8517 0.0
C165 C 0.66427 0.19046 0.80018 0.0
C166 C 0.63777 0.13722 0.86139 0.0
O167 O 0.65903 0.11704 0.78675 0.0
Mg168 Mg 0.8578 0.3521 0.65776 0.0
O169 O 0.85055 0.38488 0.67686 0.0
O170 O 0.82127 0.39868 0.65749 0.0
Mg171 Mg 0.81164 0.37635 0.62507 0.0
C172 C 0.83602 0.39966 0.67431 0.0
C173 C 0.89152 0.32482 0.68224 0.0
O174 O 0.8863 0.31491 0.66131 0.0
O175 O 0.82826 0.33668 0.67614 0.0
O176 O 0.80082 0.35007 0.65333 0.0
O177 O 0.88035 0.36838 0.63165 0.0
O178 O 0.84515 0.36369 0.62441 0.0
C179 C 0.80802 0.33762 0.67063 0.0
C180 C 0.86366 0.37157 0.61731 0.0
O181 O 0.88068 0.34158 0.68862 0.0
Mg182 Mg 0.64777 0.85969 0.65373 0.0
O183 O 0.61294 0.85553 0.6689 0.0
O184 O 0.59838 0.82729 0.64821 0.0
Mg185 Mg 0.62222 0.8156 0.61825 0.0
C186 C 0.59727 0.84222 0.6648 0.0
C187 C 0.67394 0.89318 0.68142 0.0
O188 O 0.68478 0.88959 0.66066 0.0
O189 O 0.65843 0.82882 0.6738 0.0
O190 O 0.64479 0.80263 0.64926 0.0
O191 O 0.63649 0.88356 0.62546 0.0
O192 O 0.63766 0.84784 0.61952 0.0
C193 C 0.65616 0.80873 0.66802 0.0
C194 C 0.63248 0.86691 0.61133 0.0
O195 O 0.65722 0.8816 0.68598 0.0
Mg196 Mg 0.13791 0.64762 0.6659 0.0
O197 O 0.14611 0.61287 0.67887 0.0
O198 O 0.17436 0.60063 0.65656 0.0
Mg199 Mg 0.18331 0.62718 0.62834 0.0
C200 C 0.16002 0.5981 0.67358 0.0
C201 C 0.10128 0.63815 0.70219 0.0
O202 O 0.10239 0.62051 0.68832 0.0
O203 O 0.16789 0.66089 0.68549 0.0
O204 O 0.19487 0.64924 0.66069 0.0
O205 O 0.11487 0.63485 0.63794 0.0
O206 O 0.1499 0.64052 0.63049 0.0
C207 C 0.18806 0.6599 0.67968 0.0
C208 C 0.13119 0.63366 0.6227 0.0
O209 O 0.11564 0.65289 0.69927 0.0
Mg210 Mg 0.34935 0.14455 0.66415 0.0
O211 O 0.385 0.14938 0.67601 0.0
O212 O 0.39711 0.17877 0.65549 0.0
Mg213 Mg 0.37055 0.1906 0.62864 0.0
C214 C 0.39992 0.1633 0.67115 0.0
C215 C 0.32512 0.11116 0.69339 0.0
O216 O 0.31208 0.11709 0.67512 0.0
O217 O 0.33919 0.17412 0.68667 0.0
O218 O 0.34993 0.20178 0.66237 0.0
O219 O 0.35917 0.12229 0.63375 0.0
O220 O 0.35559 0.15798 0.62939 0.0
C221 C 0.34026 0.19449 0.68182 0.0
C222 C 0.36052 0.13938 0.61965 0.0
O223 O 0.3431 0.12121 0.69604 0.0
C224 C 0.30245 0.19649 0.26217 0.0
C225 C 0.29412 0.17744 0.27324 0.0
C226 C 0.28868 0.21053 0.24897 0.0
C227 C 0.23758 0.21422 0.21471 0.0
H228 H 0.23501 0.27383 0.23878 0.0
C229 C 0.17066 0.27323 0.18116 0.0
C230 C 0.17604 0.29535 0.17826 0.0
C231 C 0.18527 0.25883 0.19252 0.0
C232 C 0.23575 0.25739 0.23145 0.0
H233 H 0.26513 0.15759 0.27814 0.0
H234 H 0.24123 0.18188 0.2544 0.0
H235 H 0.26105 0.24843 0.25709 0.0
H236 H 0.20099 0.31975 0.18488 0.0
H237 H 0.22682 0.29458 0.20373 0.0
H238 H 0.21282 0.22311 0.18858 0.0
C239 C 0.25834 0.18602 0.25626 0.0
C240 C 0.25063 0.24284 0.24205 0.0
C241 C 0.27199 0.1722 0.26989 0.0
C242 C 0.19628 0.30283 0.18709 0.0
C243 C 0.21107 0.28836 0.19802 0.0
C244 C 0.22297 0.22886 0.20376 0.0
C245 C 0.26647 0.20552 0.24616 0.0
C246 C 0.25154 0.22111 0.23391 0.0
C247 C 0.20581 0.26613 0.20081 0.0
C248 C 0.2217 0.25061 0.21214 0.0
H249 H 0.31941 0.20101 0.26454 0.0
H250 H 0.29531 0.22545 0.24121 0.0
H251 H 0.23812 0.19754 0.20804 0.0
H252 H 0.15509 0.26703 0.17472 0.0
H253 H 0.18036 0.24199 0.19486 0.0
C254 C 0.81347 0.30082 0.27348 0.0
C255 C 0.82668 0.2955 0.29407 0.0
C256 C 0.80058 0.28491 0.26203 0.0
C257 C 0.7642 0.25226 0.25375 0.0
H258 H 0.78497 0.19341 0.24195 0.0
C259 C 0.70608 0.18432 0.22144 0.0
C260 C 0.71346 0.17128 0.20156 0.0
C261 C 0.72046 0.19813 0.23409 0.0
C262 C 0.77897 0.2098 0.24506 0.0
H263 H 0.83719 0.26902 0.31819 0.0
H264 H 0.81459 0.24138 0.29829 0.0
H265 H 0.80964 0.22062 0.25967 0.0
H266 H 0.74204 0.16187 0.18019 0.0
H267 H 0.76701 0.18606 0.20212 0.0
H268 H 0.7337 0.24165 0.2387 0.0
C269 C 0.81432 0.25783 0.29092 0.0
C270 C 0.79304 0.22533 0.25539 0.0
C271 C 0.82721 0.27374 0.3024 0.0
C272 C 0.73575 0.1717 0.19536 0.0
C273 C 0.75012 0.18551 0.20802 0.0
C274 C 0.75015 0.23675 0.24349 0.0
C275 C 0.80061 0.26331 0.27086 0.0
C276 C 0.78582 0.24676 0.25975 0.0
C277 C 0.74255 0.19921 0.22717 0.0
C278 C 0.75737 0.21536 0.23898 0.0
H279 H 0.81274 0.31738 0.26646 0.0
H280 H 0.79046 0.28957 0.24632 0.0
H281 H 0.75805 0.26854 0.2572 0.0
H282 H 0.68905 0.18432 0.22685 0.0
H283 H 0.71421 0.2082 0.24908 0.0
C284 C 0.82751 0.70428 0.21376 0.0
C285 C 0.8341 0.70863 0.1891 0.0
C286 C 0.8151 0.71954 0.22699 0.0
C287 C 0.77232 0.75611 0.21987 0.0
H288 H 0.79251 0.79089 0.27577 0.0
C289 C 0.71611 0.81999 0.26415 0.0
C290 C 0.71699 0.82259 0.29016 0.0
C291 C 0.73208 0.80793 0.25175 0.0
C292 C 0.78647 0.7811 0.26043 0.0
H293 H 0.83309 0.73249 0.15912 0.0
H294 H 0.81084 0.75875 0.1821 0.0
H295 H 0.81749 0.76539 0.25535 0.0
H296 H 0.73538 0.81498 0.3236 0.0
H297 H 0.76265 0.79304 0.30224 0.0
H298 H 0.74113 0.77065 0.2253 0.0
C299 C 0.81565 0.7437 0.19118 0.0
C300 C 0.80085 0.76664 0.24872 0.0
C301 C 0.82839 0.72869 0.17813 0.0
C302 C 0.73442 0.81337 0.30348 0.0
C303 C 0.75012 0.80086 0.29116 0.0
C304 C 0.75783 0.77017 0.23183 0.0
C305 C 0.80881 0.73914 0.21557 0.0
C306 C 0.79383 0.75417 0.22833 0.0
C307 C 0.74899 0.79769 0.26515 0.0
C308 C 0.76471 0.78298 0.25222 0.0
H309 H 0.83172 0.689 0.22271 0.0
H310 H 0.80982 0.71576 0.24581 0.0
H311 H 0.76663 0.74645 0.20421 0.0
H312 H 0.70296 0.82715 0.25341 0.0
H313 H 0.73097 0.80645 0.23164 0.0
C314 C 0.27462 0.82643 0.19604 0.0
C315 C 0.29684 0.82103 0.19489 0.0
C316 C 0.26011 0.8135 0.20968 0.0
C317 C 0.25806 0.76818 0.25649 0.0
H318 H 0.19995 0.75998 0.22936 0.0
C319 C 0.20063 0.69746 0.28416 0.0
C320 C 0.18031 0.70407 0.29363 0.0
C321 C 0.21441 0.71252 0.27259 0.0
C322 C 0.2161 0.76226 0.23715 0.0
H323 H 0.32137 0.79799 0.20727 0.0
H324 H 0.29607 0.77493 0.23008 0.0
H325 H 0.22512 0.78503 0.20882 0.0
H326 H 0.15815 0.73141 0.29767 0.0
H327 H 0.18206 0.75762 0.27655 0.0
H328 H 0.24913 0.74446 0.2841 0.0
C329 C 0.28979 0.78951 0.22122 0.0
C330 C 0.23051 0.77673 0.22556 0.0
C331 C 0.30435 0.80269 0.20801 0.0
C332 C 0.17375 0.72589 0.29062 0.0
C333 C 0.18735 0.74084 0.27853 0.0
C334 C 0.24379 0.75338 0.26773 0.0
C335 C 0.26742 0.79461 0.22206 0.0
C336 C 0.25174 0.77985 0.23502 0.0
C337 C 0.2079 0.73432 0.26978 0.0
C338 C 0.22275 0.75028 0.25811 0.0
H339 H 0.2684 0.84061 0.18628 0.0
H340 H 0.24314 0.81831 0.21036 0.0
H341 H 0.27403 0.77045 0.26471 0.0
H342 H 0.20617 0.68079 0.28633 0.0
H343 H 0.23016 0.70716 0.26582 0.0
C344 C 0.68031 0.79783 0.70377 0.0
C345 C 0.6679 0.79196 0.68273 0.0
C346 C 0.69254 0.78217 0.71657 0.0
C347 C 0.71937 0.72942 0.70701 0.0
H348 H 0.72311 0.72876 0.7793 0.0
C349 C 0.76011 0.67562 0.79211 0.0
C350 C 0.78177 0.67425 0.78361 0.0
C351 C 0.7448 0.68818 0.77924 0.0
C352 C 0.72206 0.72859 0.75911 0.0
H353 H 0.65819 0.76483 0.65909 0.0
H354 H 0.67949 0.73761 0.68147 0.0
H355 H 0.69843 0.75429 0.75869 0.0
H356 H 0.80404 0.68434 0.75428 0.0
H357 H 0.77729 0.70625 0.73188 0.0
H358 H 0.74309 0.70379 0.70743 0.0
C359 C 0.67991 0.75437 0.68788 0.0
C360 C 0.70811 0.74336 0.74732 0.0
C361 C 0.6676 0.76998 0.67516 0.0
C362 C 0.78753 0.68506 0.7614 0.0
C363 C 0.77217 0.69754 0.74847 0.0
C364 C 0.73342 0.71474 0.7188 0.0
C365 C 0.69269 0.76034 0.70854 0.0
C366 C 0.70673 0.74403 0.72114 0.0
C367 C 0.75076 0.69955 0.75751 0.0
C368 C 0.73502 0.71427 0.74496 0.0
H369 H 0.68092 0.81459 0.71014 0.0
H370 H 0.70238 0.78729 0.73231 0.0
H371 H 0.71881 0.72969 0.68679 0.0
H372 H 0.75506 0.66745 0.80908 0.0
H373 H 0.72832 0.68919 0.78644 0.0
C374 C 0.22616 0.66739 0.69415 0.0
C375 C 0.20393 0.673 0.69402 0.0
C376 C 0.24145 0.68102 0.70565 0.0
C377 C 0.25277 0.73703 0.71665 0.0
H378 H 0.28898 0.71996 0.77268 0.0
C379 C 0.30356 0.79988 0.77117 0.0
C380 C 0.32295 0.79323 0.78283 0.0
C381 C 0.29017 0.78468 0.75927 0.0
C382 C 0.27938 0.72491 0.7567 0.0
H383 H 0.18022 0.69702 0.70615 0.0
H384 H 0.20712 0.72113 0.7256 0.0
H385 H 0.2634 0.69378 0.7547 0.0
H386 H 0.34412 0.76566 0.79014 0.0
H387 H 0.32136 0.73926 0.76825 0.0
H388 H 0.26903 0.7678 0.71774 0.0
C389 C 0.21255 0.70605 0.71706 0.0
C390 C 0.26461 0.70993 0.74661 0.0
C391 C 0.19721 0.69221 0.70608 0.0
C392 C 0.32915 0.77121 0.78149 0.0
C393 C 0.31597 0.75605 0.76912 0.0
C394 C 0.26784 0.75186 0.72633 0.0
C395 C 0.23477 0.70065 0.71668 0.0
C396 C 0.251 0.71603 0.72678 0.0
C397 C 0.29608 0.7625 0.75826 0.0
C398 C 0.28113 0.74615 0.74677 0.0
H399 H 0.23177 0.65265 0.68504 0.0
H400 H 0.25855 0.67662 0.70518 0.0
H401 H 0.24256 0.74192 0.7011 0.0
H402 H 0.29824 0.81671 0.77212 0.0
H403 H 0.27484 0.7903 0.75161 0.0
C404 C 0.22648 0.32242 0.80166 0.0
C405 C 0.20484 0.32165 0.79293 0.0
C406 C 0.24263 0.30963 0.79051 0.0
C407 C 0.27548 0.28872 0.75486 0.0
H408 H 0.25981 0.22906 0.73867 0.0
C409 C 0.32767 0.23234 0.6922 0.0
C410 C 0.32846 0.21 0.69816 0.0
C411 C 0.31442 0.24654 0.70583 0.0
C412 C 0.26454 0.2456 0.74334 0.0
H413 H 0.18343 0.30735 0.76505 0.0
H414 H 0.21164 0.28524 0.74558 0.0
H415 H 0.23286 0.253 0.75764 0.0
H416 H 0.31686 0.18536 0.7241 0.0
H417 H 0.29393 0.21019 0.74795 0.0
H418 H 0.30726 0.28118 0.74063 0.0
C419 C 0.21602 0.29547 0.76129 0.0
C420 C 0.249 0.2594 0.75389 0.0
C421 C 0.19989 0.30828 0.77237 0.0
C422 C 0.31651 0.20242 0.71883 0.0
C423 C 0.30327 0.21662 0.73243 0.0
C424 C 0.29105 0.27489 0.74421 0.0
C425 C 0.23749 0.29577 0.77047 0.0
C426 C 0.25424 0.28115 0.7596 0.0
C427 C 0.30168 0.23872 0.72571 0.0
C428 C 0.28569 0.2532 0.73824 0.0
H429 H 0.2309 0.33255 0.81742 0.0
H430 H 0.25902 0.31011 0.79808 0.0
H431 H 0.27996 0.30543 0.75897 0.0
H432 H 0.3367 0.23878 0.67646 0.0
H433 H 0.31345 0.26346 0.70008 0.0
C434 C 0.67738 0.22812 0.78997 0.0
C435 C 0.67706 0.20569 0.78444 0.0
C436 C 0.69062 0.24236 0.77642 0.0
C437 C 0.74011 0.24311 0.73758 0.0
H438 H 0.72079 0.30169 0.72153 0.0
C439 C 0.79964 0.30954 0.70339 0.0
C440 C 0.79248 0.32324 0.68399 0.0
C441 C 0.78514 0.29529 0.71518 0.0
C442 C 0.72638 0.28533 0.72568 0.0
H443 H 0.68999 0.18078 0.75973 0.0
H444 H 0.71289 0.20576 0.73583 0.0
H445 H 0.69561 0.2763 0.74138 0.0
H446 H 0.76431 0.33277 0.66194 0.0
H447 H 0.73916 0.30777 0.68229 0.0
H448 H 0.77077 0.25203 0.72148 0.0
C449 C 0.70314 0.21222 0.75097 0.0
C450 C 0.71202 0.27085 0.73729 0.0
C451 C 0.68989 0.19794 0.76457 0.0
C452 C 0.77041 0.32253 0.67688 0.0
C453 C 0.75593 0.30825 0.68862 0.0
C454 C 0.75447 0.25759 0.72593 0.0
C455 C 0.70383 0.23456 0.75694 0.0
C456 C 0.71875 0.24961 0.74352 0.0
C457 C 0.76315 0.29437 0.70781 0.0
C458 C 0.74781 0.27891 0.71997 0.0
H459 H 0.66776 0.23469 0.80516 0.0
H460 H 0.69096 0.25941 0.78171 0.0
H461 H 0.7459 0.22696 0.74237 0.0
H462 H 0.8165 0.30971 0.70943 0.0
H463 H 0.79114 0.28506 0.73017 0.0
C464 C 0.1354 0.37068 0.8985 0.0
C465 C 0.11905 0.36654 0.88079 0.0
C466 C 0.12988 0.37542 0.92319 0.0
C467 C 0.11284 0.39274 0.97272 0.0
H468 H 0.07695 0.34747 0.00241 0.0
C469 C 0.10593 0.386 0.07833 0.0
C470 C 0.11309 0.3655 0.08677 0.0
C471 C 0.09944 0.38883 0.05358 0.0
C472 C 0.08672 0.36039 -0.00568 0.0
H473 H 0.08405 0.36516 0.87472 0.0
H474 H 0.07449 0.37308 0.91803 0.0
H475 H 0.08063 0.34947 0.957 0.0
H476 H 0.11703 0.33148 0.07666 0.0
H477 H 0.10571 0.33642 0.03342 0.0
H478 H 0.11991 0.40296 0.00999 0.0
C479 C 0.09153 0.3727 0.91273 0.0
C480 C 0.08872 0.36163 0.96839 0.0
C481 C 0.09705 0.36824 0.88796 0.0
C482 C 0.11171 0.34748 0.07067 0.0
C483 C 0.10511 0.3503 0.04592 0.0
C484 C 0.11067 0.39163 -0.00139 0.0
C485 C 0.10792 0.37586 0.93065 0.0
C486 C 0.10244 0.37733 0.95745 0.0
C487 C 0.09986 0.37119 0.03689 0.0
C488 C 0.09822 0.37497 0.00968 0.0
H489 H 0.15247 0.36949 0.89358 0.0
H490 H 0.14284 0.37759 0.93672 0.0
H491 H 0.1234 0.40506 0.96469 0.0
H492 H 0.10657 0.40017 0.0904 0.0
H493 H 0.09518 0.40504 0.04714 0.0
C494 C 0.63003 0.15488 0.90248 0.0
C495 C 0.63093 0.13595 0.88777 0.0
C496 C 0.62761 0.15334 0.92833 0.0
C497 C 0.61536 0.11572 0.98091 0.0
H498 H 0.65708 0.15239 0.01562 0.0
C499 C 0.65908 0.12834 0.08369 0.0
C500 C 0.64065 0.12859 0.09923 0.0
C501 C 0.65671 0.1264 0.05788 0.0
C502 C 0.64552 0.14185 0.00621 0.0
H503 H 0.62833 0.10064 0.88833 0.0
H504 H 0.62451 0.09795 0.93349 0.0
H505 H 0.65305 0.15573 0.97074 0.0
H506 H 0.6054 0.12546 0.10011 0.0
H507 H 0.60127 0.12241 0.05498 0.0
H508 H 0.60827 0.10152 0.01661 0.0
C509 C 0.6255 0.11399 0.92508 0.0
C510 C 0.64291 0.14405 0.98051 0.0
C511 C 0.62778 0.11554 0.89919 0.0
C512 C 0.61993 0.1254 0.0886 0.0
C513 C 0.61755 0.12356 0.06274 0.0
C514 C 0.61798 0.11351 0.00676 0.0
C515 C 0.62621 0.13283 0.93999 0.0
C516 C 0.62782 0.13104 0.96754 0.0
C517 C 0.63587 0.12482 0.04707 0.0
C518 C 0.6332 0.12648 0.01962 0.0
H519 H 0.63221 0.17086 0.89425 0.0
H520 H 0.62769 0.16819 0.93929 0.0
H521 H 0.60357 0.1055 0.97142 0.0
H522 H 0.67528 0.13061 0.09129 0.0
H523 H 0.67118 0.12691 0.04629 0.0
C524 C 0.84436 0.6327 0.89856 0.0
C525 C 0.86151 0.634 0.88126 0.0
C526 C 0.84863 0.62772 0.92353 0.0
C527 C 0.86187 0.60867 0.97386 0.0
H528 H 0.90631 0.64564 0.00345 0.0
C529 C 0.87612 0.61028 0.07969 0.0
C530 C 0.8743 0.6314 0.08973 0.0
C531 C 0.87918 0.60733 0.05409 0.0
C532 C 0.89403 0.63507 -0.00461 0.0
H533 H 0.89643 0.63004 0.87625 0.0
H534 H 0.90382 0.62153 0.91991 0.0
H535 H 0.90156 0.64522 0.95817 0.0
H536 H 0.8757 0.66594 0.08108 0.0
H537 H 0.88123 0.66077 0.03647 0.0
H538 H 0.85371 0.59924 0.01117 0.0
C539 C 0.88714 0.62447 0.91415 0.0
C540 C 0.8914 0.63469 0.96951 0.0
C541 C 0.88286 0.62929 0.88917 0.0
C542 C 0.87703 0.64948 0.07395 0.0
C543 C 0.88029 0.64652 0.04839 0.0
C544 C 0.86463 0.6089 -0.00027 0.0
C545 C 0.87012 0.6241 0.93164 0.0
C546 C 0.8749 0.62194 0.95858 0.0
C547 C 0.8807 0.62543 0.03814 0.0
C548 C 0.88033 0.62256 0.01075 0.0
H549 H 0.82776 0.63628 0.89306 0.0
H550 H 0.83523 0.62775 0.9367 0.0
H551 H 0.84914 0.59859 0.96585 0.0
H552 H 0.87416 0.59601 0.0914 0.0
H553 H 0.87964 0.5909 0.04664 0.0
C554 C 0.38846 0.87218 0.08219 0.0
C555 C 0.36776 0.86721 0.09196 0.0
C556 C 0.3911 0.87621 0.05674 0.0
C557 C 0.39185 0.86365 0.00167 0.0
H558 H 0.3527 0.89903 0.96177 0.0
C559 C 0.37231 0.84875 0.89792 0.0
C560 C 0.36981 0.86702 0.88237 0.0
C561 C 0.3766 0.85147 0.92334 0.0
C562 C 0.36397 0.88934 0.97271 0.0
H563 H 0.33344 0.8638 0.083 0.0
H564 H 0.33804 0.87113 0.03851 0.0
H565 H 0.35037 0.9004 0.00732 0.0
H566 H 0.37122 0.9024 0.88086 0.0
H567 H 0.37843 0.90706 0.92533 0.0
H568 H 0.40483 0.85191 0.96703 0.0
C569 C 0.3522 0.87185 0.0506 0.0
C570 C 0.36251 0.89001 -0.00131 0.0
C571 C 0.34957 0.86759 0.07604 0.0
C572 C 0.37295 0.88799 0.8924 0.0
C573 C 0.377 0.8907 0.91784 0.0
C574 C 0.39312 0.86278 0.97567 0.0
C575 C 0.37307 0.87559 0.04066 0.0
C576 C 0.37618 0.87689 0.01337 0.0
C577 C 0.37825 0.87249 0.93362 0.0
C578 C 0.37895 0.87534 0.96099 0.0
H579 H 0.40281 0.87211 0.09399 0.0
H580 H 0.40732 0.87926 0.04952 0.0
H581 H 0.40246 0.85323 0.0126 0.0
H582 H 0.37001 0.8324 0.89076 0.0
H583 H 0.37737 0.83716 0.93518 0.0
C584 C 0.14553 0.62469 0.58019 0.0
C585 C 0.12788 0.62629 0.59677 0.0
C586 C 0.14188 0.62079 0.55485 0.0
C587 C 0.1289 0.604 0.5032 0.0
H588 H 0.08959 0.64624 0.47334 0.0
C589 C 0.11985 0.60997 0.39734 0.0
C590 C 0.12511 0.63089 0.38841 0.0
C591 C 0.11465 0.60684 0.42244 0.0
C592 C 0.1004 0.6342 0.48147 0.0
H593 H 0.09265 0.62391 0.60008 0.0
H594 H 0.08636 0.61744 0.55572 0.0
H595 H 0.09237 0.64367 0.51883 0.0
H596 H 0.12718 0.66517 0.39818 0.0
H597 H 0.11792 0.65969 0.44203 0.0
H598 H 0.13756 0.59508 0.46591 0.0
C599 C 0.10295 0.61921 0.56238 0.0
C600 C 0.1019 0.63263 0.50742 0.0
C601 C 0.10661 0.62284 0.58775 0.0
C602 C 0.12328 0.64886 0.40454 0.0
C603 C 0.1179 0.64573 0.42962 0.0
C604 C 0.1272 0.60538 0.47728 0.0
C605 C 0.12052 0.61865 0.54565 0.0
C606 C 0.11661 0.61792 0.51846 0.0
C607 C 0.1144 0.62459 0.43896 0.0
C608 C 0.11336 0.62089 0.46619 0.0
H609 H 0.16208 0.62728 0.58657 0.0
H610 H 0.1557 0.62058 0.54225 0.0
H611 H 0.14028 0.59249 0.51132 0.0
H612 H 0.12093 0.59581 0.38532 0.0
H613 H 0.11176 0.59042 0.42916 0.0
C614 C 0.3673 0.11641 0.58199 0.0
C615 C 0.36528 0.13722 0.59275 0.0
C616 C 0.36793 0.11398 0.55608 0.0
C617 C 0.34971 0.14274 0.49966 0.0
H618 H 0.38358 0.09886 0.46485 0.0
C619 C 0.37641 0.12367 0.39305 0.0
C620 C 0.35664 0.12853 0.38102 0.0
C621 C 0.37717 0.1212 0.41893 0.0
C622 C 0.37404 0.11121 0.47431 0.0
H623 H 0.36389 0.1719 0.58491 0.0
H624 H 0.3656 0.16771 0.53972 0.0
H625 H 0.38802 0.10342 0.50987 0.0
H626 H 0.32184 0.13271 0.38637 0.0
H627 H 0.32305 0.1278 0.43152 0.0
H628 H 0.33628 0.15112 0.46418 0.0
C629 C 0.36607 0.15322 0.55128 0.0
C630 C 0.37649 0.11373 0.50011 0.0
C631 C 0.36531 0.15564 0.57719 0.0
C632 C 0.33735 0.12917 0.39512 0.0
C633 C 0.33808 0.12654 0.42101 0.0
C634 C 0.34733 0.14029 0.47394 0.0
C635 C 0.36666 0.13233 0.54044 0.0
C636 C 0.36446 0.12965 0.51302 0.0
C637 C 0.35812 0.12338 0.43329 0.0
C638 C 0.35953 0.12458 0.46092 0.0
H639 H 0.36732 0.10187 0.5935 0.0
H640 H 0.36829 0.09766 0.54835 0.0
H641 H 0.33987 0.15487 0.5091 0.0
H642 H 0.39156 0.123 0.38269 0.0
H643 H 0.39289 0.11889 0.42776 0.0
C644 C 0.87289 0.40026 0.39381 0.0
C645 C 0.87084 0.37851 0.38578 0.0
C646 C 0.87701 0.40497 0.41888 0.0
C647 C 0.89519 0.38149 0.47866 0.0
H648 H 0.85067 0.41833 0.5082 0.0
C649 C 0.8872 0.38829 0.58451 0.0
C650 C 0.86632 0.38211 0.59275 0.0
C651 C 0.89061 0.39425 0.55968 0.0
C652 C 0.86336 0.40825 0.50017 0.0
H653 H 0.87285 0.34467 0.39736 0.0
H654 H 0.88031 0.3529 0.44103 0.0
H655 H 0.85335 0.41544 0.46277 0.0
H656 H 0.83234 0.37915 0.58201 0.0
H657 H 0.83829 0.38961 0.53866 0.0
H658 H 0.90451 0.37341 0.51598 0.0
C659 C 0.8787 0.36629 0.42795 0.0
C660 C 0.86501 0.4067 0.47422 0.0
C661 C 0.87433 0.36157 0.40295 0.0
C662 C 0.84862 0.38374 0.57621 0.0
C663 C 0.85201 0.38985 0.5514 0.0
C664 C 0.89368 0.38319 0.50457 0.0
C665 C 0.87944 0.38802 0.43625 0.0
C666 C 0.88046 0.39273 0.46329 0.0
C667 C 0.87317 0.39432 0.5427 0.0
C668 C 0.87729 0.39602 0.51556 0.0
H669 H 0.87033 0.41369 0.381 0.0
H670 H 0.87766 0.42186 0.42482 0.0
H671 H 0.90731 0.37072 0.47064 0.0
H672 H 0.90115 0.38739 0.59688 0.0
H673 H 0.90703 0.39788 0.55348 0.0
C674 C 0.63033 0.88774 0.57175 0.0
C675 C 0.62358 0.86987 0.58612 0.0
C676 C 0.62492 0.88896 0.5465 0.0
C677 C 0.60945 0.85168 0.49505 0.0
H678 H 0.61243 0.90525 0.45662 0.0
C679 C 0.60689 0.85518 0.38726 0.0
C680 C 0.62819 0.85922 0.37872 0.0
C681 C 0.60126 0.85956 0.412 0.0
C682 C 0.6113 0.89025 0.46724 0.0
H683 H 0.6041 0.84043 0.58639 0.0
H684 H 0.59341 0.84314 0.54267 0.0
H685 H 0.60932 0.90706 0.5021 0.0
H686 H 0.65984 0.87231 0.38877 0.0
H687 H 0.64976 0.88047 0.432 0.0
H688 H 0.61119 0.83503 0.45996 0.0
C689 C 0.6039 0.85566 0.55036 0.0
C690 C 0.60973 0.89119 0.49325 0.0
C691 C 0.60989 0.85412 0.57546 0.0
C692 C 0.6434 0.86886 0.39491 0.0
C693 C 0.63761 0.8737 0.41951 0.0
C694 C 0.61043 0.8508 0.46909 0.0
C695 C 0.61213 0.87259 0.53525 0.0
C696 C 0.60961 0.87189 0.50758 0.0
C697 C 0.61668 0.86858 0.4283 0.0
C698 C 0.61203 0.87002 0.45513 0.0
H699 H 0.64098 0.90007 0.57962 0.0
H700 H 0.6319 0.9021 0.53562 0.0
H701 H 0.60983 0.83642 0.5052 0.0
H702 H 0.59486 0.84769 0.37516 0.0
H703 H 0.5851 0.85535 0.41862 0.0
C704 C 0.1792 0.58041 0.26028 0.0
C705 C 0.1799 0.57968 0.28646 0.0
C706 C 0.18231 0.56139 0.2463 0.0
C707 C 0.19972 0.50294 0.25175 0.0
H708 H 0.16195 0.49586 0.19423 0.0
C709 C 0.1735 0.42018 0.20805 0.0
C710 C 0.17508 0.41877 0.18192 0.0
C711 C 0.17771 0.43994 0.22021 0.0
C712 C 0.17275 0.49772 0.21012 0.0
H713 H 0.18488 0.55862 0.31854 0.0
H714 H 0.18932 0.52554 0.29443 0.0
H715 H 0.16275 0.53062 0.2161 0.0
H716 H 0.18295 0.43675 0.14813 0.0
H717 H 0.18977 0.47123 0.16937 0.0
H718 H 0.20866 0.46943 0.24631 0.0
C719 C 0.18708 0.54074 0.28446 0.0
C720 C 0.17335 0.51769 0.22258 0.0
C721 C 0.18434 0.55975 0.29836 0.0
C722 C 0.18156 0.43728 0.16829 0.0
C723 C 0.18541 0.45705 0.18038 0.0
C724 C 0.19877 0.48282 0.23953 0.0
C725 C 0.1858 0.54121 0.25825 0.0
C726 C 0.18668 0.52053 0.24373 0.0
C727 C 0.18321 0.45862 0.20637 0.0
C728 C 0.18517 0.48004 0.21873 0.0
H729 H 0.17599 0.5956 0.25061 0.0
H730 H 0.18168 0.5625 0.22613 0.0
H731 H 0.21052 0.50461 0.26763 0.0
H732 H 0.16861 0.40616 0.21902 0.0
H733 H 0.17582 0.44084 0.2403 0.0
C734 C 0.57945 0.19251 0.2059 0.0
C735 C 0.5931 0.17498 0.21235 0.0
C736 C 0.55847 0.19406 0.21581 0.0
C737 C 0.51562 0.15878 0.24181 0.0
H738 H 0.48686 0.21374 0.25585 0.0
C739 C 0.43075 0.19085 0.28872 0.0
C740 C 0.41611 0.17576 0.27822 0.0
C741 C 0.45218 0.19221 0.28015 0.0
C742 C 0.49468 0.19824 0.25214 0.0
H743 H 0.59602 0.14617 0.23564 0.0
H744 H 0.55951 0.14916 0.25341 0.0
H745 H 0.52551 0.21346 0.24525 0.0
H746 H 0.41213 0.15111 0.24953 0.0
H747 H 0.44949 0.15384 0.23413 0.0
H748 H 0.485 0.14348 0.24931 0.0
C749 C 0.56484 0.16138 0.24015 0.0
C750 C 0.5168 0.1981 0.24587 0.0
C751 C 0.58583 0.15978 0.23014 0.0
C752 C 0.42305 0.16282 0.2581 0.0
C753 C 0.44451 0.16424 0.24944 0.0
C754 C 0.49356 0.15891 0.24817 0.0
C755 C 0.5507 0.17818 0.23252 0.0
C756 C 0.52752 0.17836 0.24057 0.0
C757 C 0.45946 0.1786 0.26077 0.0
C758 C 0.48279 0.17864 0.25332 0.0
H759 H 0.58456 0.20454 0.19229 0.0
H760 H 0.54799 0.20712 0.20939 0.0
H761 H 0.52326 0.14332 0.23744 0.0
H762 H 0.42593 0.2011 0.30425 0.0
H763 H 0.46327 0.20332 0.28944 0.0
C764 C 0.83452 0.58048 0.2194 0.0
C765 C 0.82253 0.5877 0.19862 0.0
C766 C 0.83091 0.55966 0.22928 0.0
C767 C 0.8137 0.50574 0.20923 0.0
H768 H 0.81037 0.4926 0.27995 0.0
C769 C 0.83129 0.42116 0.25313 0.0
C770 C 0.81759 0.41442 0.27271 0.0
C771 C 0.82872 0.4418 0.2424 0.0
C772 C 0.81107 0.49606 0.26013 0.0
H773 H 0.79651 0.57924 0.17281 0.0
H774 H 0.79045 0.54296 0.18995 0.0
H775 H 0.81164 0.53063 0.26617 0.0
H776 H 0.7895 0.42343 0.29515 0.0
H777 H 0.78523 0.45943 0.27654 0.0
H778 H 0.81371 0.47116 0.20323 0.0
C779 C 0.80272 0.55331 0.19843 0.0
C780 C 0.81197 0.51777 0.2523 0.0
C781 C 0.80615 0.57415 0.18873 0.0
C782 C 0.80045 0.42816 0.28024 0.0
C783 C 0.79804 0.44883 0.2697 0.0
C784 C 0.8131 0.48402 0.21708 0.0
C785 C 0.81539 0.5457 0.2184 0.0
C786 C 0.81339 0.52279 0.22679 0.0
C787 C 0.81253 0.45607 0.25121 0.0
C788 C 0.81187 0.47899 0.2426 0.0
H789 H 0.84722 0.59055 0.22744 0.0
H790 H 0.84093 0.55412 0.24469 0.0
H791 H 0.815 0.5092 0.18945 0.0
H792 H 0.8446 0.41093 0.24687 0.0
H793 H 0.84014 0.44703 0.22817 0.0
C794 C 0.59085 0.83727 0.24589 0.0
C795 C 0.5968 0.81858 0.25949 0.0
C796 C 0.56948 0.83987 0.23747 0.0
C797 C 0.51669 0.81286 0.2266 0.0
H798 H 0.49307 0.86824 0.24891 0.0
C799 C 0.42498 0.83231 0.2184 0.0
C800 C 0.42011 0.853 0.20854 0.0
C801 C 0.44612 0.82745 0.22644 0.0
C802 C 0.49942 0.85279 0.24235 0.0
H803 H 0.58568 0.78691 0.27242 0.0
H804 H 0.54837 0.79144 0.25747 0.0
H805 H 0.53155 0.86031 0.2552 0.0
H806 H 0.4332 0.88522 0.20093 0.0
H807 H 0.4699 0.87673 0.2146 0.0
H808 H 0.48459 0.80549 0.21334 0.0
C809 C 0.56018 0.80416 0.25364 0.0
C810 C 0.52148 0.84828 0.24588 0.0
C811 C 0.58155 0.80159 0.26221 0.0
C812 C 0.43642 0.8691 0.20834 0.0
C813 C 0.45749 0.86424 0.21631 0.0
C814 C 0.4946 0.81745 0.22285 0.0
C815 C 0.55373 0.82375 0.24227 0.0
C816 C 0.53038 0.82837 0.23785 0.0
C817 C 0.46275 0.8432 0.22482 0.0
C818 C 0.48576 0.83756 0.23052 0.0
H819 H 0.60225 0.85057 0.24322 0.0
H820 H 0.56499 0.85495 0.22825 0.0
H821 H 0.52316 0.79738 0.22028 0.0
H822 H 0.41273 0.81957 0.21887 0.0
H823 H 0.44957 0.81122 0.23337 0.0
C824 C 0.85172 0.57464 0.78437 0.0
C825 C 0.83202 0.58152 0.79514 0.0
C826 C 0.85329 0.55415 0.77303 0.0
C827 C 0.82399 0.50072 0.7677 0.0
H828 H 0.86113 0.49357 0.70967 0.0
C829 C 0.81714 0.43035 0.69607 0.0
C830 C 0.83648 0.41893 0.69089 0.0
C831 C 0.81757 0.44918 0.71074 0.0
C832 C 0.85087 0.49533 0.72601 0.0
H833 H 0.79837 0.57256 0.80204 0.0
H834 H 0.8007 0.5374 0.78124 0.0
H835 H 0.85966 0.52878 0.73076 0.0
H836 H 0.87142 0.41819 0.69703 0.0
H837 H 0.87222 0.45169 0.72211 0.0
H838 H 0.81441 0.46744 0.76187 0.0
C839 C 0.81527 0.54733 0.78232 0.0
C840 C 0.85006 0.51547 0.73823 0.0
C841 C 0.81384 0.56762 0.7941 0.0
C842 C 0.85626 0.42662 0.70084 0.0
C843 C 0.85675 0.44577 0.71505 0.0
C844 C 0.82447 0.48074 0.75516 0.0
C845 C 0.83505 0.54022 0.77174 0.0
C846 C 0.83651 0.51852 0.75918 0.0
C847 C 0.8374 0.45721 0.72005 0.0
C848 C 0.83784 0.47792 0.73417 0.0
H849 H 0.86608 0.58493 0.7851 0.0
H850 H 0.86892 0.54918 0.76557 0.0
H851 H 0.81377 0.50215 0.7841 0.0
H852 H 0.80165 0.42475 0.68872 0.0
H853 H 0.80247 0.45781 0.71426 0.0
C854 C 0.56425 0.82521 0.68383 0.0
C855 C 0.57719 0.84383 0.67993 0.0
C856 C 0.54527 0.82647 0.6981 0.0
C857 C 0.5012 0.86135 0.71602 0.0
H858 H 0.49459 0.82288 0.773 0.0
C859 C 0.42345 0.86191 0.77784 0.0
C860 C 0.41666 0.84188 0.78794 0.0
C861 C 0.44344 0.86357 0.76535 0.0
C862 C 0.49595 0.83351 0.75693 0.0
H863 H 0.58026 0.87843 0.6876 0.0
H864 H 0.54643 0.88073 0.71203 0.0
H865 H 0.52872 0.8231 0.74977 0.0
H866 H 0.42501 0.80771 0.79202 0.0
H867 H 0.45914 0.81027 0.76934 0.0
H868 H 0.46814 0.87102 0.72222 0.0
C869 C 0.55131 0.86517 0.70425 0.0
C870 C 0.51561 0.83375 0.74381 0.0
C871 C 0.57064 0.86381 0.69041 0.0
C872 C 0.42994 0.82344 0.78474 0.0
C873 C 0.44965 0.82499 0.77189 0.0
C874 C 0.48133 0.86082 0.72885 0.0
C875 C 0.53859 0.84645 0.70831 0.0
C876 C 0.51832 0.84751 0.72314 0.0
C877 C 0.45689 0.84512 0.76232 0.0
C878 C 0.47834 0.84668 0.74932 0.0
H879 H 0.56893 0.80957 0.67609 0.0
H880 H 0.53562 0.81186 0.70093 0.0
H881 H 0.50294 0.87199 0.69999 0.0
H882 H 0.4136 0.87643 0.78016 0.0
H883 H 0.44851 0.8794 0.75852 0.0
C884 C 0.17517 0.42706 0.7907 0.0
C885 C 0.15604 0.41454 0.79221 0.0
C886 C 0.1754 0.44668 0.77747 0.0
C887 C 0.14329 0.47937 0.73129 0.0
H888 H 0.18114 0.52589 0.75448 0.0
C889 C 0.13966 0.56964 0.6977 0.0
C890 C 0.15934 0.57725 0.68742 0.0
C891 C 0.13892 0.54966 0.71028 0.0
C892 C 0.17055 0.51298 0.74782 0.0
H893 H 0.12209 0.41278 0.78124 0.0
H894 H 0.12209 0.44756 0.7592 0.0
H895 H 0.18001 0.49147 0.7772 0.0
H896 H 0.19372 0.57015 0.68262 0.0
H897 H 0.19252 0.53554 0.70545 0.0
H898 H 0.13324 0.50159 0.70251 0.0
C899 C 0.1372 0.44195 0.76743 0.0
C900 C 0.16999 0.49315 0.76066 0.0
C901 C 0.13712 0.42204 0.78021 0.0
C902 C 0.17832 0.56465 0.69027 0.0
C903 C 0.17767 0.54494 0.70336 0.0
C904 C 0.1435 0.49941 0.71879 0.0
C905 C 0.15636 0.45459 0.76589 0.0
C906 C 0.15651 0.47595 0.75246 0.0
C907 C 0.15795 0.53724 0.7133 0.0
C908 C 0.15727 0.51627 0.72685 0.0
H909 H 0.19008 0.42154 0.79952 0.0
H910 H 0.19064 0.45553 0.7762 0.0
H911 H 0.13299 0.4665 0.72404 0.0
H912 H 0.12475 0.57895 0.69568 0.0
H913 H 0.12356 0.54402 0.7179 0.0
C914 C 0.42813 0.14204 0.6949 0.0
C915 C 0.42099 0.16188 0.68453 0.0
C916 C 0.44797 0.14094 0.70777 0.0
C917 C 0.48459 0.17341 0.74533 0.0
H918 H 0.53041 0.13325 0.72605 0.0
C919 C 0.57014 0.18009 0.78823 0.0
C920 C 0.58229 0.161 0.7922 0.0
C921 C 0.55061 0.17942 0.77486 0.0
C922 C 0.51769 0.14431 0.73203 0.0
H923 H 0.42898 0.19611 0.67968 0.0
H924 H 0.46328 0.19424 0.70278 0.0
H925 H 0.49572 0.133 0.70358 0.0
H926 H 0.58348 0.12618 0.78533 0.0
H927 H 0.54886 0.12478 0.76293 0.0
H928 H 0.50589 0.18433 0.77425 0.0
C929 C 0.45363 0.17955 0.70065 0.0
C930 C 0.49788 0.14421 0.71903 0.0
C931 C 0.43406 0.18057 0.68735 0.0
C932 C 0.57451 0.14119 0.78245 0.0
C933 C 0.5547 0.14044 0.76946 0.0
C934 C 0.50417 0.17325 0.75863 0.0
C935 C 0.46075 0.15975 0.71096 0.0
C936 C 0.4813 0.15896 0.72538 0.0
C937 C 0.54242 0.15956 0.76555 0.0
C938 C 0.52116 0.15893 0.75196 0.0
H939 H 0.41844 0.12735 0.69294 0.0
H940 H 0.45314 0.1255 0.71565 0.0
H941 H 0.4719 0.18476 0.75076 0.0
H942 H 0.57586 0.19566 0.79522 0.0
H943 H 0.54204 0.19461 0.77169 0.0
C944 C 0.66546 0.07873 0.75759 0.0
C945 C 0.67946 0.0849 0.77712 0.0
C946 C 0.66726 0.05809 0.74673 0.0
C947 C 0.66358 0.00912 0.74224 0.0
H948 H 0.71854 0.97977 0.72998 0.0
C949 C 0.66547 0.91837 0.71695 0.0
C950 C 0.67867 0.91284 0.69647 0.0
C951 C 0.66767 0.93869 0.72849 0.0
C952 C 0.70307 0.98778 0.73324 0.0
H953 H 0.70714 0.07474 0.79958 0.0
H954 H 0.71006 0.03872 0.78088 0.0
H955 H 0.71851 0.01773 0.74384 0.0
H956 H 0.7055 0.9237 0.67312 0.0
H957 H 0.7091 0.95917 0.69299 0.0
H958 H 0.64808 0.97949 0.73107 0.0
C959 C 0.69779 0.04983 0.77381 0.0
C960 C 0.70305 0.00946 0.74133 0.0
C961 C 0.69603 0.07047 0.78462 0.0
C962 C 0.695 0.92748 0.68879 0.0
C963 C 0.69715 0.94782 0.70027 0.0
C964 C 0.66359 0.98751 0.73414 0.0
C965 C 0.68306 0.04319 0.75521 0.0
C966 C 0.68329 0.02039 0.74586 0.0
C967 C 0.68306 0.95391 0.71974 0.0
C968 C 0.68332 0.97656 0.72954 0.0
H969 H 0.65263 0.08953 0.75125 0.0
H970 H 0.65596 0.05362 0.73204 0.0
H971 H 0.64807 0.01692 0.74596 0.0
H972 H 0.65286 0.90738 0.72345 0.0
H973 H 0.6569 0.94273 0.74383 0.0
C974 C 0.91122 0.65627 0.75375 0.0
C975 C 0.90409 0.67527 0.76595 0.0
C976 C 0.93304 0.65398 0.74689 0.0
C977 C 0.98492 0.6821 0.73615 0.0
H978 H 0.00997 0.62846 0.76177 0.0
C979 C 0.07656 0.66359 0.7255 0.0
C980 C 0.0812 0.64254 0.71655 0.0
C981 C 0.05577 0.66858 0.7346 0.0
C982 C 0.00323 0.64344 0.75434 0.0
H983 H 0.91376 0.7076 0.77827 0.0
H984 H 0.95188 0.70364 0.76586 0.0
H985 H 0.97131 0.63578 0.7678 0.0
H986 H 0.06825 0.60985 0.71183 0.0
H987 H 0.03218 0.61854 0.72728 0.0
H988 H 0.01671 0.6895 0.72202 0.0
C989 C 0.9406 0.69046 0.76197 0.0
C990 C 0.98109 0.6476 0.75775 0.0
C991 C 0.91879 0.6927 0.76906 0.0
C992 C 0.06518 0.62626 0.71847 0.0
C993 C 0.04447 0.63123 0.72748 0.0
C994 C 0.00709 0.67784 0.73248 0.0
C995 C 0.94807 0.67072 0.75183 0.0
C996 C 0.97167 0.6668 0.74837 0.0
C997 C 0.03931 0.65259 0.73496 0.0
C998 C 0.01642 0.6583 0.74124 0.0
H999 H 0.90031 0.64259 0.7509 0.0
H1000 H 0.93835 0.63876 0.73862 0.0
H1001 H 0.97801 0.69705 0.72881 0.0
H1002 H 0.08861 0.67648 0.72436 0.0
H1003 H 0.05242 0.68509 0.74068 0.0
C1004 C 0.33569 0.08299 0.72504 0.0
C1005 C 0.32082 0.09073 0.70717 0.0
C1006 C 0.33342 0.06203 0.73496 0.0
C1007 C 0.33482 0.01286 0.73638 0.0
H1008 H 0.2792 0.98511 0.74976 0.0
C1009 C 0.32996 0.92089 0.75464 0.0
C1010 C 0.31703 0.91453 0.77503 0.0
C1011 C 0.32833 0.94199 0.74495 0.0
C1012 C 0.29488 0.99265 0.74621 0.0
H1013 H 0.29112 0.08309 0.68688 0.0
H1014 H 0.28741 0.04653 0.70377 0.0
H1015 H 0.28034 0.02378 0.73915 0.0
H1016 H 0.29128 0.92485 0.80021 0.0
H1017 H 0.28877 0.96164 0.78368 0.0
H1018 H 0.34945 0.98201 0.74417 0.0
C1019 C 0.30072 0.05662 0.71035 0.0
C1020 C 0.29551 0.01477 0.73995 0.0
C1021 C 0.30292 0.0776 0.70056 0.0
C1022 C 0.30154 0.92924 0.78453 0.0
C1023 C 0.30002 0.95036 0.77497 0.0
C1024 C 0.33419 0.99081 0.74276 0.0
C1025 C 0.31629 0.04836 0.72712 0.0
C1026 C 0.31551 0.02513 0.73495 0.0
C1027 C 0.31384 0.95718 0.75556 0.0
C1028 C 0.31422 0.98041 0.7477 0.0
H1029 H 0.34955 0.09278 0.73069 0.0
H1030 H 0.34541 0.05633 0.74831 0.0
H1031 H 0.35047 0.02019 0.73221 0.0
H1032 H 0.34191 0.90986 0.74676 0.0
H1033 H 0.33885 0.94658 0.72958 0.0
C1034 C 0.08105 0.32856 0.74636 0.0
C1035 C 0.08733 0.31364 0.76493 0.0
C1036 C 0.06051 0.327 0.73521 0.0
C1037 C 0.01129 0.29174 0.72885 0.0
H1038 H 0.98165 0.3475 0.725 0.0
C1039 C 0.91943 0.33147 0.71557 0.0
C1040 C 0.91213 0.31922 0.69504 0.0
C1041 C 0.94053 0.32857 0.72485 0.0
C1042 C 0.98959 0.33176 0.72627 0.0
H1043 H 0.07774 0.28431 0.78483 0.0
H1044 H 0.04189 0.28183 0.76577 0.0
H1045 H 0.01979 0.34629 0.73702 0.0
H1046 H 0.92072 0.29332 0.66921 0.0
H1047 H 0.95751 0.28854 0.6851 0.0
H1048 H 0.98076 0.2772 0.71885 0.0
C1049 C 0.05278 0.29468 0.75967 0.0
C1050 C 0.01161 0.33109 0.73268 0.0
C1051 C 0.07336 0.29616 0.77069 0.0
C1052 C 0.92586 0.30309 0.685 0.0
C1053 C 0.94697 0.30027 0.69419 0.0
C1054 C 0.98918 0.2924 0.72251 0.0
C1055 C 0.04582 0.31055 0.74249 0.0
C1056 C 0.02274 0.31109 0.73408 0.0
C1057 C 0.95477 0.31343 0.71372 0.0
C1058 C 0.97806 0.31243 0.72124 0.0
H1059 H 0.09154 0.34208 0.7413 0.0
H1060 H 0.05583 0.33916 0.72155 0.0
H1061 H 0.01941 0.27607 0.72965 0.0
H1062 H 0.90919 0.3439 0.72386 0.0
H1063 H 0.94589 0.3386 0.74033 0.0
C1064 C 0.35577 0.07292 0.27573 0.0
C1065 C 0.33563 0.08116 0.28389 0.0
C1066 C 0.35688 0.05281 0.26338 0.0
C1067 C 0.32403 0.00236 0.25238 0.0
H1068 H 0.3668 0.99181 0.20045 0.0
C1069 C 0.31983 0.92955 0.18426 0.0
C1070 C 0.3388 0.91678 0.1825 0.0
C1071 C 0.32015 0.94944 0.19695 0.0
C1072 C 0.35488 0.99455 0.21504 0.0
H1073 H 0.30078 0.07528 0.28462 0.0
H1074 H 0.30252 0.04092 0.26219 0.0
H1075 H 0.3658 0.02724 0.22132 0.0
H1076 H 0.37309 0.91505 0.19233 0.0
H1077 H 0.37371 0.95023 0.21403 0.0
H1078 H 0.31265 0.96989 0.24528 0.0
C1079 C 0.31763 0.04937 0.26614 0.0
C1080 C 0.35434 0.01479 0.22712 0.0
C1081 C 0.31659 0.06921 0.27887 0.0
C1082 C 0.35818 0.92447 0.19347 0.0
C1083 C 0.3586 0.94462 0.20575 0.0
C1084 C 0.32434 0.98233 0.24 0.0
C1085 C 0.33781 0.04069 0.25855 0.0
C1086 C 0.33882 0.01902 0.2459 0.0
C1087 C 0.33954 0.95718 0.20773 0.0
C1088 C 0.33971 0.97826 0.22119 0.0
H1089 H 0.37075 0.08172 0.27947 0.0
H1090 H 0.37275 0.0466 0.25814 0.0
H1091 H 0.31223 0.00469 0.26717 0.0
H1092 H 0.30463 0.92404 0.17607 0.0
H1093 H 0.30528 0.95892 0.19814 0.0
C1094 C 0.92658 0.36407 0.28347 0.0
C1095 C 0.91964 0.34509 0.2959 0.0
C1096 C 0.94642 0.36434 0.27055 0.0
C1097 C 0.98376 0.32944 0.23697 0.0
H1098 H 0.02902 0.37144 0.25277 0.0
C1099 C 0.06891 0.32092 0.1941 0.0
C1100 C 0.08033 0.33992 0.18753 0.0
C1101 C 0.04994 0.32215 0.2084 0.0
C1102 C 0.01647 0.3598 0.24779 0.0
H1103 H 0.92787 0.31144 0.30422 0.0
H1104 H 0.96213 0.31177 0.28101 0.0
H1105 H 0.99405 0.37306 0.2746 0.0
H1106 H 0.0811 0.37511 0.19111 0.0
H1107 H 0.04741 0.37744 0.2152 0.0
H1108 H 0.00547 0.31655 0.20963 0.0
C1109 C 0.95235 0.32647 0.28158 0.0
C1110 C 0.99649 0.36071 0.26039 0.0
C1111 C 0.9328 0.32634 0.29491 0.0
C1112 C 0.07268 0.36018 0.19606 0.0
C1113 C 0.05338 0.36147 0.20995 0.0
C1114 C 0.0035 0.32877 0.22405 0.0
C1115 C 0.95938 0.34548 0.26939 0.0
C1116 C 0.9801 0.34537 0.25527 0.0
C1117 C 0.04156 0.34247 0.216 0.0
C1118 C 0.02029 0.34373 0.22949 0.0
H1119 H 0.91682 0.37879 0.28402 0.0
H1120 H 0.95151 0.37915 0.26117 0.0
H1121 H 0.97123 0.31759 0.23251 0.0
H1122 H 0.0746 0.30505 0.18804 0.0
H1123 H 0.04177 0.30709 0.21331 0.0
C1124 C 0.651 0.91627 0.27445 0.0
C1125 C 0.66379 0.91358 0.29606 0.0
C1126 C 0.65045 0.93629 0.26199 0.0
C1127 C 0.66122 0.99511 0.27031 0.0
H1128 H 0.66528 0.99532 0.19803 0.0
C1129 C 0.68027 0.05918 0.1852 0.0
C1130 C 0.66647 0.07661 0.19166 0.0
C1131 C 0.67912 0.03936 0.198 0.0
C1132 C 0.66422 0.99553 0.21822 0.0
H1133 H 0.68585 0.93003 0.32159 0.0
H1134 H 0.68493 0.9649 0.29974 0.0
H1135 H 0.66498 0.96069 0.22045 0.0
H1136 H 0.64059 0.08675 0.21675 0.0
H1137 H 0.63859 0.05208 0.23905 0.0
H1138 H 0.66085 0.02999 0.26807 0.0
C1139 C 0.6752 0.95153 0.29259 0.0
C1140 C 0.66382 0.97569 0.23105 0.0
C1141 C 0.67582 0.93149 0.30502 0.0
C1142 C 0.65148 0.0737 0.21127 0.0
C1143 C 0.65041 0.05387 0.22416 0.0
C1144 C 0.66152 0.01497 0.25746 0.0
C1145 C 0.66259 0.95413 0.27086 0.0
C1146 C 0.66244 0.97525 0.25725 0.0
C1147 C 0.6642 0.03647 0.21763 0.0
C1148 C 0.66317 0.0154 0.23128 0.0
H1149 H 0.64147 0.90287 0.26703 0.0
H1150 H 0.64038 0.93784 0.24546 0.0
H1151 H 0.65993 0.9953 0.29048 0.0
H1152 H 0.69204 0.0608 0.17024 0.0
H1153 H 0.69016 0.02636 0.19273 0.0
C1154 C 0.0796 0.63642 0.2798 0.0
C1155 C 0.08641 0.65666 0.28939 0.0
C1156 C 0.06061 0.63494 0.26537 0.0
C1157 C 0.02553 0.66549 0.22375 0.0
H1158 H 0.97774 0.62947 0.24723 0.0
C1159 C 0.93948 0.67547 0.18345 0.0
C1160 C 0.92582 0.65716 0.18145 0.0
C1161 C 0.95944 0.67404 0.19584 0.0
C1162 C 0.99101 0.63929 0.24005 0.0
H1163 H 0.07913 0.69126 0.29081 0.0
H1164 H 0.04641 0.68872 0.26491 0.0
H1165 H 0.0126 0.62889 0.26929 0.0
H1166 H 0.92242 0.62292 0.19076 0.0
H1167 H 0.95772 0.62014 0.21158 0.0
H1168 H 0.00447 0.6756 0.19422 0.0
C1169 C 0.05558 0.67402 0.26888 0.0
C1170 C 0.01094 0.63899 0.25279 0.0
C1171 C 0.07422 0.67544 0.28375 0.0
C1172 C 0.93255 0.63735 0.19216 0.0
C1173 C 0.95277 0.63581 0.20419 0.0
C1174 C 0.00581 0.66548 0.21072 0.0
C1175 C 0.04849 0.65375 0.2598 0.0
C1176 C 0.02819 0.6524 0.245 0.0
C1177 C 0.96653 0.65415 0.20614 0.0
C1178 C 0.98808 0.65276 0.21899 0.0
H1179 H 0.08863 0.62168 0.28398 0.0
H1180 H 0.05542 0.61915 0.25849 0.0
H1181 H 0.03873 0.6758 0.21728 0.0
H1182 H 0.93463 0.69104 0.17566 0.0
H1183 H 0.96919 0.6887 0.19752 0.0
loop_
_geom_bond_atom_site_label_1
_geom_bond_atom_site_label_2
_geom_bond_distance
_geom_bond_site_symmetry_2
_ccdc_geom_bond_type
Mg0 O1 2.028 . S
Mg0 O7 1.986 . S
Mg0 O9 2.114 . S
Mg0 O10 2.251 . S
Mg0 O13 2.010 . S
O1 Mg0 2.028 . S
O1 C4 1.250 . S
O2 Mg3 2.028 . S
O2 C4 1.248 . S
Mg3 O2 2.028 . S
Mg3 O8 2.032 . S
Mg3 O10 2.079 . S
C4 O1 1.250 . S
C4 O2 1.248 . S
C5 O6 1.264 . S
C5 O13 1.249 . S
O6 C5 1.264 . S
O7 Mg0 1.986 . S
O7 C11 1.246 . S
O8 Mg3 2.032 . S
O8 C11 1.259 . S
O9 Mg0 2.114 . S
O9 C12 1.252 . S
O10 Mg0 2.251 . S
O10 Mg3 2.079 . S
O10 C12 1.273 . S
C11 O7 1.246 . S
C11 O8 1.259 . S
C12 O9 1.252 . S
C12 O10 1.273 . S
O13 Mg0 2.010 . S
O13 C5 1.249 . S
Mg14 O15 2.028 . S
Mg14 O21 1.986 . S
Mg14 O23 2.114 . S
Mg14 O24 2.251 . S
Mg14 O27 2.010 . S
O15 Mg14 2.028 . S
O15 C18 1.250 . S
O16 Mg17 2.028 . S
O16 C18 1.248 . S
Mg17 O16 2.028 . S
Mg17 O22 2.032 . S
Mg17 O24 2.079 . S
C18 O15 1.250 . S
C18 O16 1.248 . S
C19 O20 1.264 . S
C19 O27 1.249 . S
O20 C19 1.264 . S
O21 Mg14 1.986 . S
O21 C25 1.246 . S
O22 Mg17 2.032 . S
O22 C25 1.259 . S
O23 Mg14 2.114 . S
O23 C26 1.252 . S
O24 Mg14 2.251 . S
O24 Mg17 2.079 . S
O24 C26 1.273 . S
C25 O21 1.246 . S
C25 O22 1.259 . S
C26 O23 1.252 . S
C26 O24 1.273 . S
O27 Mg14 2.010 . S
O27 C19 1.249 . S
Mg28 O29 2.028 . S
Mg28 O35 1.986 . S
Mg28 O37 2.114 . S
Mg28 O38 2.251 . S
Mg28 O41 2.010 . S
O29 Mg28 2.028 . S
O29 C32 1.250 . S
O30 Mg31 2.028 . S
O30 C32 1.248 . S
Mg31 O30 2.028 . S
Mg31 O36 2.032 . S
Mg31 O38 2.079 . S
C32 O29 1.250 . S
C32 O30 1.248 . S
C33 O34 1.264 . S
C33 O41 1.249 . S
O34 C33 1.264 . S
O35 Mg28 1.986 . S
O35 C39 1.246 . S
O36 Mg31 2.032 . S
O36 C39 1.259 . S
O37 Mg28 2.114 . S
O37 C40 1.252 . S
O38 Mg28 2.251 . S
O38 Mg31 2.079 . S
O38 C40 1.273 . S
C39 O35 1.246 . S
C39 O36 1.259 . S
C40 O37 1.252 . S
C40 O38 1.273 . S
O41 Mg28 2.010 . S
O41 C33 1.249 . S
Mg42 O43 2.028 . S
Mg42 O49 1.986 . S
Mg42 O51 2.114 . S
Mg42 O52 2.251 . S
Mg42 O55 2.010 . S
O43 Mg42 2.028 . S
O43 C46 1.250 . S
O44 Mg45 2.028 . S
O44 C46 1.248 . S
Mg45 O44 2.028 . S
Mg45 O50 2.032 . S
Mg45 O52 2.079 . S
C46 O43 1.250 . S
C46 O44 1.248 . S
C47 O48 1.264 . S
C47 O55 1.249 . S
O48 C47 1.264 . S
O49 Mg42 1.986 . S
O49 C53 1.246 . S
O50 Mg45 2.032 . S
O50 C53 1.259 . S
O51 Mg42 2.114 . S
O51 C54 1.252 . S
O52 Mg42 2.251 . S
O52 Mg45 2.079 . S
O52 C54 1.273 . S
C53 O49 1.246 . S
C53 O50 1.259 . S
C54 O51 1.252 . S
C54 O52 1.273 . S
O55 Mg42 2.010 . S
O55 C47 1.249 . S
Mg56 O57 2.028 . S
Mg56 O63 1.986 . S
Mg56 O65 2.114 . S
Mg56 O66 2.251 . S
Mg56 O69 2.010 . S
O57 Mg56 2.028 . S
O57 C60 1.250 . S
O58 Mg59 2.028 . S
O58 C60 1.248 . S
Mg59 O58 2.028 . S
Mg59 O64 2.032 . S
Mg59 O66 2.079 . S
C60 O57 1.250 . S
C60 O58 1.248 . S
C61 O62 1.264 . S
C61 O69 1.249 . S
O62 C61 1.264 . S
O63 Mg56 1.986 . S
O63 C67 1.246 . S
O64 Mg59 2.032 . S
O64 C67 1.259 . S
O65 Mg56 2.114 . S
O65 C68 1.252 . S
O66 Mg56 2.251 . S
O66 Mg59 2.079 . S
O66 C68 1.273 . S
C67 O63 1.246 . S
C67 O64 1.259 . S
C68 O65 1.252 . S
C68 O66 1.273 . S
O69 Mg56 2.010 . S
O69 C61 1.249 . S
Mg70 O71 2.028 . S
Mg70 O77 1.986 . S
Mg70 O79 2.114 . S
Mg70 O80 2.251 . S
Mg70 O83 2.010 . S
O71 Mg70 2.028 . S
O71 C74 1.250 . S
O72 Mg73 2.028 . S
O72 C74 1.248 . S
Mg73 O72 2.028 . S
Mg73 O78 2.032 . S
Mg73 O80 2.079 . S
C74 O71 1.250 . S
C74 O72 1.248 . S
C75 O76 1.264 . S
C75 O83 1.249 . S
O76 C75 1.264 . S
O77 Mg70 1.986 . S
O77 C81 1.246 . S
O78 Mg73 2.032 . S
O78 C81 1.259 . S
O79 Mg70 2.114 . S
O79 C82 1.252 . S
O80 Mg70 2.251 . S
O80 Mg73 2.079 . S
O80 C82 1.273 . S
C81 O77 1.246 . S
C81 O78 1.259 . S
C82 O79 1.252 . S
C82 O80 1.273 . S
O83 Mg70 2.010 . S
O83 C75 1.249 . S
Mg84 O85 2.028 . S
Mg84 O91 1.986 . S
Mg84 O93 2.114 . S
Mg84 O94 2.251 . S
Mg84 O97 2.010 . S
O85 Mg84 2.028 . S
O85 C88 1.250 . S
O86 Mg87 2.028 . S
O86 C88 1.248 . S
Mg87 O86 2.028 . S
Mg87 O92 2.032 . S
Mg87 O94 2.079 . S
C88 O85 1.250 . S
C88 O86 1.248 . S
C89 O90 1.264 . S
C89 O97 1.249 . S
O90 C89 1.264 . S
O91 Mg84 1.986 . S
O91 C95 1.246 . S
O92 Mg87 2.032 . S
O92 C95 1.259 . S
O93 Mg84 2.114 . S
O93 C96 1.252 . S
O94 Mg84 2.251 . S
O94 Mg87 2.079 . S
O94 C96 1.273 . S
C95 O91 1.246 . S
C95 O92 1.259 . S
C96 O93 1.252 . S
C96 O94 1.273 . S
O97 Mg84 2.010 . S
O97 C89 1.249 . S
Mg98 O99 2.028 . S
Mg98 O105 1.986 . S
Mg98 O107 2.114 . S
Mg98 O108 2.251 . S
Mg98 O111 2.010 . S
O99 Mg98 2.028 . S
O99 C102 1.250 . S
O100 Mg101 2.028 . S
O100 C102 1.248 . S
Mg101 O100 2.028 . S
Mg101 O106 2.032 . S
Mg101 O108 2.079 . S
C102 O99 1.250 . S
C102 O100 1.248 . S
C103 O104 1.264 . S
C103 O111 1.249 . S
O104 C103 1.264 . S
O105 Mg98 1.986 . S
O105 C109 1.246 . S
O106 Mg101 2.032 . S
O106 C109 1.259 . S
O107 Mg98 2.114 . S
O107 C110 1.252 . S
O108 Mg98 2.251 . S
O108 Mg101 2.079 . S
O108 C110 1.273 . S
C109 O105 1.246 . S
C109 O106 1.259 . S
C110 O107 1.252 . S
C110 O108 1.273 . S
O111 Mg98 2.010 . S
O111 C103 1.249 . S
Mg112 O113 2.028 . S
Mg112 O119 1.986 . S
Mg112 O121 2.114 . S
Mg112 O122 2.251 . S
Mg112 O125 2.010 . S
O113 Mg112 2.028 . S
O113 C116 1.250 . S
O114 Mg115 2.028 . S
O114 C116 1.248 . S
Mg115 O114 2.028 . S
Mg115 O120 2.032 . S
Mg115 O122 2.079 . S
C116 O113 1.250 . S
C116 O114 1.248 . S
C117 O118 1.264 . S
C117 O125 1.249 . S
O118 C117 1.264 . S
O119 Mg112 1.986 . S
O119 C123 1.246 . S
O120 Mg115 2.032 . S
O120 C123 1.259 . S
O121 Mg112 2.114 . S
O121 C124 1.252 . S
O122 Mg112 2.251 . S
O122 Mg115 2.079 . S
O122 C124 1.273 . S
C123 O119 1.246 . S
C123 O120 1.259 . S
C124 O121 1.252 . S
C124 O122 1.273 . S
O125 Mg112 2.010 . S
O125 C117 1.249 . S
Mg126 O127 2.028 . S
Mg126 O133 1.986 . S
Mg126 O135 2.114 . S
Mg126 O136 2.251 . S
Mg126 O139 2.010 . S
O127 Mg126 2.028 . S
O127 C130 1.250 . S
O128 Mg129 2.028 . S
O128 C130 1.248 . S
Mg129 O128 2.028 . S
Mg129 O134 2.032 . S
Mg129 O136 2.079 . S
C130 O127 1.250 . S
C130 O128 1.248 . S
C131 O132 1.264 . S
C131 O139 1.249 . S
O132 C131 1.264 . S
O133 Mg126 1.986 . S
O133 C137 1.246 . S
O134 Mg129 2.032 . S
O134 C137 1.259 . S
O135 Mg126 2.114 . S
O135 C138 1.252 . S
O136 Mg126 2.251 . S
O136 Mg129 2.079 . S
O136 C138 1.273 . S
C137 O133 1.246 . S
C137 O134 1.259 . S
C138 O135 1.252 . S
C138 O136 1.273 . S
O139 Mg126 2.010 . S
O139 C131 1.249 . S
Mg140 O141 2.028 . S
Mg140 O147 1.986 . S
Mg140 O149 2.114 . S
Mg140 O150 2.251 . S
Mg140 O153 2.010 . S
O141 Mg140 2.028 . S
O141 C144 1.250 . S
O142 Mg143 2.028 . S
O142 C144 1.248 . S
Mg143 O142 2.028 . S
Mg143 O148 2.032 . S
Mg143 O150 2.079 . S
C144 O141 1.250 . S
C144 O142 1.248 . S
C145 O146 1.264 . S
C145 O153 1.249 . S
O146 C145 1.264 . S
O147 Mg140 1.986 . S
O147 C151 1.246 . S
O148 Mg143 2.032 . S
O148 C151 1.259 . S
O149 Mg140 2.114 . S
O149 C152 1.252 . S
O150 Mg140 2.251 . S
O150 Mg143 2.079 . S
O150 C152 1.273 . S
C151 O147 1.246 . S
C151 O148 1.259 . S
C152 O149 1.252 . S
C152 O150 1.273 . S
O153 Mg140 2.010 . S
O153 C145 1.249 . S
Mg154 O155 2.028 . S
Mg154 O161 1.986 . S
Mg154 O163 2.114 . S
Mg154 O164 2.251 . S
Mg154 O167 2.010 . S
O155 Mg154 2.028 . S
O155 C158 1.250 . S
O156 Mg157 2.028 . S
O156 C158 1.248 . S
Mg157 O156 2.028 . S
Mg157 O162 2.032 . S
Mg157 O164 2.079 . S
C158 O155 1.250 . S
C158 O156 1.248 . S
C159 O160 1.264 . S
C159 O167 1.249 . S
O160 C159 1.264 . S
O161 Mg154 1.986 . S
O161 C165 1.246 . S
O162 Mg157 2.032 . S
O162 C165 1.259 . S
O163 Mg154 2.114 . S
O163 C166 1.252 . S
O164 Mg154 2.251 . S
O164 Mg157 2.079 . S
O164 C166 1.273 . S
C165 O161 1.246 . S
C165 O162 1.259 . S
C166 O163 1.252 . S
C166 O164 1.273 . S
O167 Mg154 2.010 . S
O167 C159 1.249 . S
Mg168 O169 2.028 . S
Mg168 O175 1.986 . S
Mg168 O177 2.114 . S
Mg168 O178 2.251 . S
Mg168 O181 2.010 . S
O169 Mg168 2.028 . S
O169 C172 1.250 . S
O170 Mg171 2.028 . S
O170 C172 1.248 . S
Mg171 O170 2.028 . S
Mg171 O176 2.032 . S
Mg171 O178 2.079 . S
C172 O169 1.250 . S
C172 O170 1.248 . S
C173 O174 1.264 . S
C173 O181 1.249 . S
O174 C173 1.264 . S
O175 Mg168 1.986 . S
O175 C179 1.246 . S
O176 Mg171 2.032 . S
O176 C179 1.259 . S
O177 Mg168 2.114 . S
O177 C180 1.252 . S
O178 Mg168 2.251 . S
O178 Mg171 2.079 . S
O178 C180 1.273 . S
C179 O175 1.246 . S
C179 O176 1.259 . S
C180 O177 1.252 . S
C180 O178 1.273 . S
O181 Mg168 2.010 . S
O181 C173 1.249 . S
Mg182 O183 2.028 . S
Mg182 O189 1.986 . S
Mg182 O191 2.114 . S
Mg182 O192 2.251 . S
Mg182 O195 2.010 . S
O183 Mg182 2.028 . S
O183 C186 1.250 . S
O184 Mg185 2.028 . S
O184 C186 1.248 . S
Mg185 O184 2.028 . S
Mg185 O190 2.032 . S
Mg185 O192 2.079 . S
C186 O183 1.250 . S
C186 O184 1.248 . S
C187 O188 1.264 . S
C187 O195 1.249 . S
O188 C187 1.264 . S
O189 Mg182 1.986 . S
O189 C193 1.246 . S
O190 Mg185 2.032 . S
O190 C193 1.259 . S
O191 Mg182 2.114 . S
O191 C194 1.252 . S
O192 Mg182 2.251 . S
O192 Mg185 2.079 . S
O192 C194 1.273 . S
C193 O189 1.246 . S
C193 O190 1.259 . S
C194 O191 1.252 . S
C194 O192 1.273 . S
O195 Mg182 2.010 . S
O195 C187 1.249 . S
Mg196 O197 2.028 . S
Mg196 O203 1.986 . S
Mg196 O205 2.114 . S
Mg196 O206 2.251 . S
Mg196 O209 2.010 . S
O197 Mg196 2.028 . S
O197 C200 1.250 . S
O198 Mg199 2.028 . S
O198 C200 1.248 . S
Mg199 O198 2.028 . S
Mg199 O204 2.032 . S
Mg199 O206 2.079 . S
C200 O197 1.250 . S
C200 O198 1.248 . S
C201 O202 1.264 . S
C201 O209 1.249 . S
O202 C201 1.264 . S
O203 Mg196 1.986 . S
O203 C207 1.246 . S
O204 Mg199 2.032 . S
O204 C207 1.259 . S
O205 Mg196 2.114 . S
O205 C208 1.252 . S
O206 Mg196 2.251 . S
O206 Mg199 2.079 . S
O206 C208 1.273 . S
C207 O203 1.246 . S
C207 O204 1.259 . S
C208 O205 1.252 . S
C208 O206 1.273 . S
O209 Mg196 2.010 . S
O209 C201 1.249 . S
Mg210 O211 2.028 . S
Mg210 O217 1.986 . S
Mg210 O219 2.114 . S
Mg210 O220 2.251 . S
Mg210 O223 2.010 . S
O211 Mg210 2.028 . S
O211 C214 1.250 . S
O212 Mg213 2.028 . S
O212 C214 1.248 . S
Mg213 O212 2.028 . S
Mg213 O218 2.032 . S
Mg213 O220 2.079 . S
C214 O211 1.250 . S
C214 O212 1.248 . S
C215 O216 1.264 . S
C215 O223 1.249 . S
O216 C215 1.264 . S
O217 Mg210 1.986 . S
O217 C221 1.246 . S
O218 Mg213 2.032 . S
O218 C221 1.259 . S
O219 Mg210 2.114 . S
O219 C222 1.252 . S
O220 Mg210 2.251 . S
O220 Mg213 2.079 . S
O220 C222 1.273 . S
C221 O217 1.246 . S
C221 O218 1.259 . S
C222 O219 1.252 . S
C222 O220 1.273 . S
O223 Mg210 2.010 . S
O223 C215 1.249 . S
C224 C225 1.349 . S
C224 C226 1.327 . S
C224 H249 0.950 . S
C225 C224 1.349 . S
C225 C241 1.349 . S
C226 C224 1.327 . S
C226 C245 1.429 . S
C226 H250 0.950 . S
C227 C244 1.574 . S
C227 C246 1.368 . S
C227 H251 0.949 . S
H228 C232 0.949 . S
C229 C230 1.349 . S
C229 C231 1.327 . S
C229 H252 0.950 . S
C230 C229 1.349 . S
C230 C242 1.349 . S
C231 C229 1.327 . S
C231 C247 1.429 . S
C231 H253 0.950 . S
C232 H228 0.949 . S
C232 C240 1.574 . S
C232 C248 1.368 . S
H233 C241 0.950 . S
H234 C239 0.950 . S
H235 C240 0.949 . S
H236 C242 0.950 . S
H237 C243 0.950 . S
H238 C244 0.949 . S
C239 H234 0.950 . S
C239 C241 1.327 . S
C239 C245 1.429 . S
C240 C232 1.574 . S
C240 H235 0.949 . S
C240 C246 1.368 . S
C241 C225 1.349 . S
C241 H233 0.950 . S
C241 C239 1.327 . S
C242 C230 1.349 . S
C242 H236 0.950 . S
C242 C243 1.327 . S
C243 H237 0.950 . S
C243 C242 1.327 . S
C243 C247 1.429 . S
C244 C227 1.574 . S
C244 H238 0.949 . S
C244 C248 1.368 . S
C245 C226 1.429 . S
C245 C239 1.429 . S
C245 C246 1.523 . S
C246 C227 1.368 . S
C246 C240 1.368 . S
C246 C245 1.523 . S
C247 C231 1.429 . S
C247 C243 1.429 . S
C247 C248 1.523 . S
C248 C232 1.368 . S
C248 C244 1.368 . S
C248 C247 1.523 . S
H249 C224 0.950 . S
H250 C226 0.950 . S
H251 C227 0.949 . S
H252 C229 0.950 . S
H253 C231 0.950 . S
C254 C255 1.349 . S
C254 C256 1.327 . S
C254 H279 0.950 . S
C255 C254 1.349 . S
C255 C271 1.349 . S
C256 C254 1.327 . S
C256 C275 1.429 . S
C256 H280 0.950 . S
C257 C274 1.574 . S
C257 C276 1.368 . S
C257 H281 0.949 . S
H258 C262 0.949 . S
C259 C260 1.349 . S
C259 C261 1.327 . S
C259 H282 0.950 . S
C260 C259 1.349 . S
C260 C272 1.349 . S
C261 C259 1.327 . S
C261 C277 1.429 . S
C261 H283 0.950 . S
C262 H258 0.949 . S
C262 C270 1.574 . S
C262 C278 1.368 . S
H263 C271 0.950 . S
H264 C269 0.950 . S
H265 C270 0.949 . S
H266 C272 0.950 . S
H267 C273 0.950 . S
H268 C274 0.949 . S
C269 H264 0.950 . S
C269 C271 1.327 . S
C269 C275 1.429 . S
C270 C262 1.574 . S
C270 H265 0.949 . S
C270 C276 1.368 . S
C271 C255 1.349 . S
C271 H263 0.950 . S
C271 C269 1.327 . S
C272 C260 1.349 . S
C272 H266 0.950 . S
C272 C273 1.327 . S
C273 H267 0.950 . S
C273 C272 1.327 . S
C273 C277 1.429 . S
C274 C257 1.574 . S
C274 H268 0.949 . S
C274 C278 1.368 . S
C275 C256 1.429 . S
C275 C269 1.429 . S
C275 C276 1.523 . S
C276 C257 1.368 . S
C276 C270 1.368 . S
C276 C275 1.523 . S
C277 C261 1.429 . S
C277 C273 1.429 . S
C277 C278 1.523 . S
C278 C262 1.368 . S
C278 C274 1.368 . S
C278 C277 1.523 . S
H279 C254 0.950 . S
H280 C256 0.950 . S
H281 C257 0.949 . S
H282 C259 0.950 . S
H283 C261 0.950 . S
C284 C285 1.349 . S
C284 C286 1.327 . S
C284 H309 0.950 . S
C285 C284 1.349 . S
C285 C301 1.349 . S
C286 C284 1.327 . S
C286 C305 1.429 . S
C286 H310 0.950 . S
C287 C304 1.574 . S
C287 C306 1.368 . S
C287 H311 0.949 . S
H288 C292 0.949 . S
C289 C290 1.349 . S
C289 C291 1.327 . S
C289 H312 0.950 . S
C290 C289 1.349 . S
C290 C302 1.349 . S
C291 C289 1.327 . S
C291 C307 1.429 . S
C291 H313 0.950 . S
C292 H288 0.949 . S
C292 C300 1.574 . S
C292 C308 1.368 . S
H293 C301 0.950 . S
H294 C299 0.950 . S
H295 C300 0.949 . S
H296 C302 0.950 . S
H297 C303 0.950 . S
H298 C304 0.949 . S
C299 H294 0.950 . S
C299 C301 1.327 . S
C299 C305 1.429 . S
C300 C292 1.574 . S
C300 H295 0.949 . S
C300 C306 1.368 . S
C301 C285 1.349 . S
C301 H293 0.950 . S
C301 C299 1.327 . S
C302 C290 1.349 . S
C302 H296 0.950 . S
C302 C303 1.327 . S
C303 H297 0.950 . S
C303 C302 1.327 . S
C303 C307 1.429 . S
C304 C287 1.574 . S
C304 H298 0.949 . S
C304 C308 1.368 . S
C305 C286 1.429 . S
C305 C299 1.429 . S
C305 C306 1.523 . S
C306 C287 1.368 . S
C306 C300 1.368 . S
C306 C305 1.523 . S
C307 C291 1.429 . S
C307 C303 1.429 . S
C307 C308 1.523 . S
C308 C292 1.368 . S
C308 C304 1.368 . S
C308 C307 1.523 . S
H309 C284 0.950 . S
H310 C286 0.950 . S
H311 C287 0.949 . S
H312 C289 0.950 . S
H313 C291 0.950 . S
C314 C315 1.349 . S
C314 C316 1.327 . S
C314 H339 0.950 . S
C315 C314 1.349 . S
C315 C331 1.349 . S
C316 C314 1.327 . S
C316 C335 1.429 . S
C316 H340 0.950 . S
C317 C334 1.574 . S
C317 C336 1.368 . S
C317 H341 0.949 . S
H318 C322 0.949 . S
C319 C320 1.349 . S
C319 C321 1.327 . S
C319 H342 0.950 . S
C320 C319 1.349 . S
C320 C332 1.349 . S
C321 C319 1.327 . S
C321 C337 1.429 . S
C321 H343 0.950 . S
C322 H318 0.949 . S
C322 C330 1.574 . S
C322 C338 1.368 . S
H323 C331 0.950 . S
H324 C329 0.950 . S
H325 C330 0.949 . S
H326 C332 0.950 . S
H327 C333 0.950 . S
H328 C334 0.949 . S
C329 H324 0.950 . S
C329 C331 1.327 . S
C329 C335 1.429 . S
C330 C322 1.574 . S
C330 H325 0.949 . S
C330 C336 1.368 . S
C331 C315 1.349 . S
C331 H323 0.950 . S
C331 C329 1.327 . S
C332 C320 1.349 . S
C332 H326 0.950 . S
C332 C333 1.327 . S
C333 H327 0.950 . S
C333 C332 1.327 . S
C333 C337 1.429 . S
C334 C317 1.574 . S
C334 H328 0.949 . S
C334 C338 1.368 . S
C335 C316 1.429 . S
C335 C329 1.429 . S
C335 C336 1.523 . S
C336 C317 1.368 . S
C336 C330 1.368 . S
C336 C335 1.523 . S
C337 C321 1.429 . S
C337 C333 1.429 . S
C337 C338 1.523 . S
C338 C322 1.368 . S
C338 C334 1.368 . S
C338 C337 1.523 . S
H339 C314 0.950 . S
H340 C316 0.950 . S
H341 C317 0.949 . S
H342 C319 0.950 . S
H343 C321 0.950 . S
C344 C345 1.349 . S
C344 C346 1.327 . S
C344 H369 0.950 . S
C345 C344 1.349 . S
C345 C361 1.349 . S
C346 C344 1.327 . S
C346 C365 1.429 . S
C346 H370 0.950 . S
C347 C364 1.574 . S
C347 C366 1.368 . S
C347 H371 0.949 . S
H348 C352 0.949 . S
C349 C350 1.349 . S
C349 C351 1.327 . S
C349 H372 0.950 . S
C350 C349 1.349 . S
C350 C362 1.349 . S
C351 C349 1.327 . S
C351 C367 1.429 . S
C351 H373 0.950 . S
C352 H348 0.949 . S
C352 C360 1.574 . S
C352 C368 1.368 . S
H353 C361 0.950 . S
H354 C359 0.950 . S
H355 C360 0.949 . S
H356 C362 0.950 . S
H357 C363 0.950 . S
H358 C364 0.949 . S
C359 H354 0.950 . S
C359 C361 1.327 . S
C359 C365 1.429 . S
C360 C352 1.574 . S
C360 H355 0.949 . S
C360 C366 1.368 . S
C361 C345 1.349 . S
C361 H353 0.950 . S
C361 C359 1.327 . S
C362 C350 1.349 . S
C362 H356 0.950 . S
C362 C363 1.327 . S
C363 H357 0.950 . S
C363 C362 1.327 . S
C363 C367 1.429 . S
C364 C347 1.574 . S
C364 H358 0.949 . S
C364 C368 1.368 . S
C365 C346 1.429 . S
C365 C359 1.429 . S
C365 C366 1.523 . S
C366 C347 1.368 . S
C366 C360 1.368 . S
C366 C365 1.523 . S
C367 C351 1.429 . S
C367 C363 1.429 . S
C367 C368 1.523 . S
C368 C352 1.368 . S
C368 C364 1.368 . S
C368 C367 1.523 . S
H369 C344 0.950 . S
H370 C346 0.950 . S
H371 C347 0.949 . S
H372 C349 0.950 . S
H373 C351 0.950 . S
C374 C375 1.349 . S
C374 C376 1.327 . S
C374 H399 0.950 . S
C375 C374 1.349 . S
C375 C391 1.349 . S
C376 C374 1.327 . S
C376 C395 1.429 . S
C376 H400 0.950 . S
C377 C394 1.574 . S
C377 C396 1.368 . S
C377 H401 0.949 . S
H378 C382 0.949 . S
C379 C380 1.349 . S
C379 C381 1.327 . S
C379 H402 0.950 . S
C380 C379 1.349 . S
C380 C392 1.349 . S
C381 C379 1.327 . S
C381 C397 1.429 . S
C381 H403 0.950 . S
C382 H378 0.949 . S
C382 C390 1.574 . S
C382 C398 1.368 . S
H383 C391 0.950 . S
H384 C389 0.950 . S
H385 C390 0.949 . S
H386 C392 0.950 . S
H387 C393 0.950 . S
H388 C394 0.949 . S
C389 H384 0.950 . S
C389 C391 1.327 . S
C389 C395 1.429 . S
C390 C382 1.574 . S
C390 H385 0.949 . S
C390 C396 1.368 . S
C391 C375 1.349 . S
C391 H383 0.950 . S
C391 C389 1.327 . S
C392 C380 1.349 . S
C392 H386 0.950 . S
C392 C393 1.327 . S
C393 H387 0.950 . S
C393 C392 1.327 . S
C393 C397 1.429 . S
C394 C377 1.574 . S
C394 H388 0.949 . S
C394 C398 1.368 . S
C395 C376 1.429 . S
C395 C389 1.429 . S
C395 C396 1.523 . S
C396 C377 1.368 . S
C396 C390 1.368 . S
C396 C395 1.523 . S
C397 C381 1.429 . S
C397 C393 1.429 . S
C397 C398 1.523 . S
C398 C382 1.368 . S
C398 C394 1.368 . S
C398 C397 1.523 . S
H399 C374 0.950 . S
H400 C376 0.950 . S
H401 C377 0.949 . S
H402 C379 0.950 . S
H403 C381 0.950 . S
C404 C405 1.349 . S
C404 C406 1.327 . S
C404 H429 0.950 . S
C405 C404 1.349 . S
C405 C421 1.349 . S
C406 C404 1.327 . S
C406 C425 1.429 . S
C406 H430 0.950 . S
C407 C424 1.574 . S
C407 C426 1.368 . S
C407 H431 0.949 . S
H408 C412 0.949 . S
C409 C410 1.349 . S
C409 C411 1.327 . S
C409 H432 0.950 . S
C410 C409 1.349 . S
C410 C422 1.349 . S
C411 C409 1.327 . S
C411 C427 1.429 . S
C411 H433 0.950 . S
C412 H408 0.949 . S
C412 C420 1.574 . S
C412 C428 1.368 . S
H413 C421 0.950 . S
H414 C419 0.950 . S
H415 C420 0.949 . S
H416 C422 0.950 . S
H417 C423 0.950 . S
H418 C424 0.949 . S
C419 H414 0.950 . S
C419 C421 1.327 . S
C419 C425 1.429 . S
C420 C412 1.574 . S
C420 H415 0.949 . S
C420 C426 1.368 . S
C421 C405 1.349 . S
C421 H413 0.950 . S
C421 C419 1.327 . S
C422 C410 1.349 . S
C422 H416 0.950 . S
C422 C423 1.327 . S
C423 H417 0.950 . S
C423 C422 1.327 . S
C423 C427 1.429 . S
C424 C407 1.574 . S
C424 H418 0.949 . S
C424 C428 1.368 . S
C425 C406 1.429 . S
C425 C419 1.429 . S
C425 C426 1.523 . S
C426 C407 1.368 . S
C426 C420 1.368 . S
C426 C425 1.523 . S
C427 C411 1.429 . S
C427 C423 1.429 . S
C427 C428 1.523 . S
C428 C412 1.368 . S
C428 C424 1.368 . S
C428 C427 1.523 . S
H429 C404 0.950 . S
H430 C406 0.950 . S
H431 C407 0.949 . S
H432 C409 0.950 . S
H433 C411 0.950 . S
C434 C435 1.349 . S
C434 C436 1.327 . S
C434 H459 0.950 . S
C435 C434 1.349 . S
C435 C451 1.349 . S
C436 C434 1.327 . S
C436 C455 1.429 . S
C436 H460 0.950 . S
C437 C454 1.574 . S
C437 C456 1.368 . S
C437 H461 0.949 . S
H438 C442 0.949 . S
C439 C440 1.349 . S
C439 C441 1.327 . S
C439 H462 0.950 . S
C440 C439 1.349 . S
C440 C452 1.349 . S
C441 C439 1.327 . S
C441 C457 1.429 . S
C441 H463 0.950 . S
C442 H438 0.949 . S
C442 C450 1.574 . S
C442 C458 1.368 . S
H443 C451 0.950 . S
H444 C449 0.950 . S
H445 C450 0.949 . S
H446 C452 0.950 . S
H447 C453 0.950 . S
H448 C454 0.949 . S
C449 H444 0.950 . S
C449 C451 1.327 . S
C449 C455 1.429 . S
C450 C442 1.574 . S
C450 H445 0.949 . S
C450 C456 1.368 . S
C451 C435 1.349 . S
C451 H443 0.950 . S
C451 C449 1.327 . S
C452 C440 1.349 . S
C452 H446 0.950 . S
C452 C453 1.327 . S
C453 H447 0.950 . S
C453 C452 1.327 . S
C453 C457 1.429 . S
C454 C437 1.574 . S
C454 H448 0.949 . S
C454 C458 1.368 . S
C455 C436 1.429 . S
C455 C449 1.429 . S
C455 C456 1.523 . S
C456 C437 1.368 . S
C456 C450 1.368 . S
C456 C455 1.523 . S
C457 C441 1.429 . S
C457 C453 1.429 . S
C457 C458 1.523 . S
C458 C442 1.368 . S
C458 C454 1.368 . S
C458 C457 1.523 . S
H459 C434 0.950 . S
H460 C436 0.950 . S
H461 C437 0.949 . S
H462 C439 0.950 . S
H463 C441 0.950 . S
C464 C465 1.349 . S
C464 C466 1.327 . S
C464 H489 0.950 . S
C465 C464 1.349 . S
C465 C481 1.349 . S
C466 C464 1.327 . S
C466 C485 1.429 . S
C466 H490 0.950 . S
C467 C484 1.574 1_556 S
C467 C486 1.368 . S
C467 H491 0.949 . S
H468 C472 0.949 . S
C469 C470 1.349 . S
C469 C471 1.327 . S
C469 H492 0.950 . S
C470 C469 1.349 . S
C470 C482 1.349 . S
C471 C469 1.327 . S
C471 C487 1.429 . S
C471 H493 0.950 . S
C472 H468 0.949 . S
C472 C480 1.574 1_554 S
C472 C488 1.368 . S
H473 C481 0.950 . S
H474 C479 0.950 . S
H475 C480 0.949 . S
H476 C482 0.950 . S
H477 C483 0.950 . S
H478 C484 0.949 . S
C479 H474 0.950 . S
C479 C481 1.327 . S
C479 C485 1.429 . S
C480 C472 1.574 1_556 S
C480 H475 0.949 . S
C480 C486 1.368 . S
C481 C465 1.349 . S
C481 H473 0.950 . S
C481 C479 1.327 . S
C482 C470 1.349 . S
C482 H476 0.950 . S
C482 C483 1.327 . S
C483 H477 0.950 . S
C483 C482 1.327 . S
C483 C487 1.429 . S
C484 C467 1.574 1_554 S
C484 H478 0.949 . S
C484 C488 1.368 . S
C485 C466 1.429 . S
C485 C479 1.429 . S
C485 C486 1.523 . S
C486 C467 1.368 . S
C486 C480 1.368 . S
C486 C485 1.523 . S
C487 C471 1.429 . S
C487 C483 1.429 . S
C487 C488 1.523 . S
C488 C472 1.368 . S
C488 C484 1.368 . S
C488 C487 1.523 . S
H489 C464 0.950 . S
H490 C466 0.950 . S
H491 C467 0.949 . S
H492 C469 0.950 . S
H493 C471 0.950 . S
C494 C495 1.349 . S
C494 C496 1.327 . S
C494 H519 0.950 . S
C495 C494 1.349 . S
C495 C511 1.349 . S
C496 C494 1.327 . S
C496 C515 1.429 . S
C496 H520 0.950 . S
C497 C514 1.574 1_556 S
C497 C516 1.368 . S
C497 H521 0.949 . S
H498 C502 0.949 . S
C499 C500 1.349 . S
C499 C501 1.327 . S
C499 H522 0.950 . S
C500 C499 1.349 . S
C500 C512 1.349 . S
C501 C499 1.327 . S
C501 C517 1.429 . S
C501 H523 0.950 . S
C502 H498 0.949 . S
C502 C510 1.574 1_554 S
C502 C518 1.368 . S
H503 C511 0.950 . S
H504 C509 0.950 . S
H505 C510 0.949 . S
H506 C512 0.950 . S
H507 C513 0.950 . S
H508 C514 0.949 . S
C509 H504 0.950 . S
C509 C511 1.327 . S
C509 C515 1.429 . S
C510 C502 1.574 1_556 S
C510 H505 0.949 . S
C510 C516 1.368 . S
C511 C495 1.349 . S
C511 H503 0.950 . S
C511 C509 1.327 . S
C512 C500 1.349 . S
C512 H506 0.950 . S
C512 C513 1.327 . S
C513 H507 0.950 . S
C513 C512 1.327 . S
C513 C517 1.429 . S
C514 C497 1.574 1_554 S
C514 H508 0.949 . S
C514 C518 1.368 . S
C515 C496 1.429 . S
C515 C509 1.429 . S
C515 C516 1.523 . S
C516 C497 1.368 . S
C516 C510 1.368 . S
C516 C515 1.523 . S
C517 C501 1.429 . S
C517 C513 1.429 . S
C517 C518 1.523 . S
C518 C502 1.368 . S
C518 C514 1.368 . S
C518 C517 1.523 . S
H519 C494 0.950 . S
H520 C496 0.950 . S
H521 C497 0.949 . S
H522 C499 0.950 . S
H523 C501 0.950 . S
C524 C525 1.349 . S
C524 C526 1.327 . S
C524 H549 0.950 . S
C525 C524 1.349 . S
C525 C541 1.349 . S
C526 C524 1.327 . S
C526 C545 1.429 . S
C526 H550 0.950 . S
C527 C544 1.574 1_556 S
C527 C546 1.368 . S
C527 H551 0.949 . S
H528 C532 0.949 . S
C529 C530 1.349 . S
C529 C531 1.327 . S
C529 H552 0.950 . S
C530 C529 1.349 . S
C530 C542 1.349 . S
C531 C529 1.327 . S
C531 C547 1.429 . S
C531 H553 0.950 . S
C532 H528 0.949 . S
C532 C540 1.574 1_554 S
C532 C548 1.368 . S
H533 C541 0.950 . S
H534 C539 0.950 . S
H535 C540 0.949 . S
H536 C542 0.950 . S
H537 C543 0.950 . S
H538 C544 0.949 . S
C539 H534 0.950 . S
C539 C541 1.327 . S
C539 C545 1.429 . S
C540 C532 1.574 1_556 S
C540 H535 0.949 . S
C540 C546 1.368 . S
C541 C525 1.349 . S
C541 H533 0.950 . S
C541 C539 1.327 . S
C542 C530 1.349 . S
C542 H536 0.950 . S
C542 C543 1.327 . S
C543 H537 0.950 . S
C543 C542 1.327 . S
C543 C547 1.429 . S
C544 C527 1.574 1_554 S
C544 H538 0.949 . S
C544 C548 1.368 . S
C545 C526 1.429 . S
C545 C539 1.429 . S
C545 C546 1.523 . S
C546 C527 1.368 . S
C546 C540 1.368 . S
C546 C545 1.523 . S
C547 C531 1.429 . S
C547 C543 1.429 . S
C547 C548 1.523 . S
C548 C532 1.368 . S
C548 C544 1.368 . S
C548 C547 1.523 . S
H549 C524 0.950 . S
H550 C526 0.950 . S
H551 C527 0.949 . S
H552 C529 0.950 . S
H553 C531 0.950 . S
C554 C555 1.349 . S
C554 C556 1.327 . S
C554 H579 0.950 . S
C555 C554 1.349 . S
C555 C571 1.349 . S
C556 C554 1.327 . S
C556 C575 1.429 . S
C556 H580 0.950 . S
C557 C574 1.574 1_554 S
C557 C576 1.368 . S
C557 H581 0.949 . S
H558 C562 0.949 . S
C559 C560 1.349 . S
C559 C561 1.327 . S
C559 H582 0.950 . S
C560 C559 1.349 . S
C560 C572 1.349 . S
C561 C559 1.327 . S
C561 C577 1.429 . S
C561 H583 0.950 . S
C562 H558 0.949 . S
C562 C570 1.574 1_556 S
C562 C578 1.368 . S
H563 C571 0.950 . S
H564 C569 0.950 . S
H565 C570 0.949 . S
H566 C572 0.950 . S
H567 C573 0.950 . S
H568 C574 0.949 . S
C569 H564 0.950 . S
C569 C571 1.327 . S
C569 C575 1.429 . S
C570 C562 1.574 1_554 S
C570 H565 0.949 . S
C570 C576 1.368 . S
C571 C555 1.349 . S
C571 H563 0.950 . S
C571 C569 1.327 . S
C572 C560 1.349 . S
C572 H566 0.950 . S
C572 C573 1.327 . S
C573 H567 0.950 . S
C573 C572 1.327 . S
C573 C577 1.429 . S
C574 C557 1.574 1_556 S
C574 H568 0.949 . S
C574 C578 1.368 . S
C575 C556 1.429 . S
C575 C569 1.429 . S
C575 C576 1.523 . S
C576 C557 1.368 . S
C576 C570 1.368 . S
C576 C575 1.523 . S
C577 C561 1.429 . S
C577 C573 1.429 . S
C577 C578 1.523 . S
C578 C562 1.368 . S
C578 C574 1.368 . S
C578 C577 1.523 . S
H579 C554 0.950 . S
H580 C556 0.950 . S
H581 C557 0.949 . S
H582 C559 0.950 . S
H583 C561 0.950 . S
C584 C585 1.349 . S
C584 C586 1.327 . S
C584 H609 0.950 . S
C585 C584 1.349 . S
C585 C601 1.349 . S
C586 C584 1.327 . S
C586 C605 1.429 . S
C586 H610 0.950 . S
C587 C604 1.574 . S
C587 C606 1.368 . S
C587 H611 0.949 . S
H588 C592 0.949 . S
C589 C590 1.349 . S
C589 C591 1.327 . S
C589 H612 0.950 . S
C590 C589 1.349 . S
C590 C602 1.349 . S
C591 C589 1.327 . S
C591 C607 1.429 . S
C591 H613 0.950 . S
C592 H588 0.949 . S
C592 C600 1.574 . S
C592 C608 1.368 . S
H593 C601 0.950 . S
H594 C599 0.950 . S
H595 C600 0.949 . S
H596 C602 0.950 . S
H597 C603 0.950 . S
H598 C604 0.949 . S
C599 H594 0.950 . S
C599 C601 1.327 . S
C599 C605 1.429 . S
C600 C592 1.574 . S
C600 H595 0.949 . S
C600 C606 1.368 . S
C601 C585 1.349 . S
C601 H593 0.950 . S
C601 C599 1.327 . S
C602 C590 1.349 . S
C602 H596 0.950 . S
C602 C603 1.327 . S
C603 H597 0.950 . S
C603 C602 1.327 . S
C603 C607 1.429 . S
C604 C587 1.574 . S
C604 H598 0.949 . S
C604 C608 1.368 . S
C605 C586 1.429 . S
C605 C599 1.429 . S
C605 C606 1.523 . S
C606 C587 1.368 . S
C606 C600 1.368 . S
C606 C605 1.523 . S
C607 C591 1.429 . S
C607 C603 1.429 . S
C607 C608 1.523 . S
C608 C592 1.368 . S
C608 C604 1.368 . S
C608 C607 1.523 . S
H609 C584 0.950 . S
H610 C586 0.950 . S
H611 C587 0.949 . S
H612 C589 0.950 . S
H613 C591 0.950 . S
C614 C615 1.349 . S
C614 C616 1.327 . S
C614 H639 0.950 . S
C615 C614 1.349 . S
C615 C631 1.349 . S
C616 C614 1.327 . S
C616 C635 1.429 . S
C616 H640 0.950 . S
C617 C634 1.574 . S
C617 C636 1.368 . S
C617 H641 0.949 . S
H618 C622 0.949 . S
C619 C620 1.349 . S
C619 C621 1.327 . S
C619 H642 0.950 . S
C620 C619 1.349 . S
C620 C632 1.349 . S
C621 C619 1.327 . S
C621 C637 1.429 . S
C621 H643 0.950 . S
C622 H618 0.949 . S
C622 C630 1.574 . S
C622 C638 1.368 . S
H623 C631 0.950 . S
H624 C629 0.950 . S
H625 C630 0.949 . S
H626 C632 0.950 . S
H627 C633 0.950 . S
H628 C634 0.949 . S
C629 H624 0.950 . S
C629 C631 1.327 . S
C629 C635 1.429 . S
C630 C622 1.574 . S
C630 H625 0.949 . S
C630 C636 1.368 . S
C631 C615 1.349 . S
C631 H623 0.950 . S
C631 C629 1.327 . S
C632 C620 1.349 . S
C632 H626 0.950 . S
C632 C633 1.327 . S
C633 H627 0.950 . S
C633 C632 1.327 . S
C633 C637 1.429 . S
C634 C617 1.574 . S
C634 H628 0.949 . S
C634 C638 1.368 . S
C635 C616 1.429 . S
C635 C629 1.429 . S
C635 C636 1.523 . S
C636 C617 1.368 . S
C636 C630 1.368 . S
C636 C635 1.523 . S
C637 C621 1.429 . S
C637 C633 1.429 . S
C637 C638 1.523 . S
C638 C622 1.368 . S
C638 C634 1.368 . S
C638 C637 1.523 . S
H639 C614 0.950 . S
H640 C616 0.950 . S
H641 C617 0.949 . S
H642 C619 0.950 . S
H643 C621 0.950 . S
C644 C645 1.349 . S
C644 C646 1.327 . S
C644 H669 0.950 . S
C645 C644 1.349 . S
C645 C661 1.349 . S
C646 C644 1.327 . S
C646 C665 1.429 . S
C646 H670 0.950 . S
C647 C664 1.574 . S
C647 C666 1.368 . S
C647 H671 0.949 . S
H648 C652 0.949 . S
C649 C650 1.349 . S
C649 C651 1.327 . S
C649 H672 0.950 . S
C650 C649 1.349 . S
C650 C662 1.349 . S
C651 C649 1.327 . S
C651 C667 1.429 . S
C651 H673 0.950 . S
C652 H648 0.949 . S
C652 C660 1.574 . S
C652 C668 1.368 . S
H653 C661 0.950 . S
H654 C659 0.950 . S
H655 C660 0.949 . S
H656 C662 0.950 . S
H657 C663 0.950 . S
H658 C664 0.949 . S
C659 H654 0.950 . S
C659 C661 1.327 . S
C659 C665 1.429 . S
C660 C652 1.574 . S
C660 H655 0.949 . S
C660 C666 1.368 . S
C661 C645 1.349 . S
C661 H653 0.950 . S
C661 C659 1.327 . S
C662 C650 1.349 . S
C662 H656 0.950 . S
C662 C663 1.327 . S
C663 H657 0.950 . S
C663 C662 1.327 . S
C663 C667 1.429 . S
C664 C647 1.574 . S
C664 H658 0.949 . S
C664 C668 1.368 . S
C665 C646 1.429 . S
C665 C659 1.429 . S
C665 C666 1.523 . S
C666 C647 1.368 . S
C666 C660 1.368 . S
C666 C665 1.523 . S
C667 C651 1.429 . S
C667 C663 1.429 . S
C667 C668 1.523 . S
C668 C652 1.368 . S
C668 C664 1.368 . S
C668 C667 1.523 . S
H669 C644 0.950 . S
H670 C646 0.950 . S
H671 C647 0.949 . S
H672 C649 0.950 . S
H673 C651 0.950 . S
C674 C675 1.349 . S
C674 C676 1.327 . S
C674 H699 0.950 . S
C675 C674 1.349 . S
C675 C691 1.349 . S
C676 C674 1.327 . S
C676 C695 1.429 . S
C676 H700 0.950 . S
C677 C694 1.574 . S
C677 C696 1.368 . S
C677 H701 0.949 . S
H678 C682 0.949 . S
C679 C680 1.349 . S
C679 C681 1.327 . S
C679 H702 0.950 . S
C680 C679 1.349 . S
C680 C692 1.349 . S
C681 C679 1.327 . S
C681 C697 1.429 . S
C681 H703 0.950 . S
C682 H678 0.949 . S
C682 C690 1.574 . S
C682 C698 1.368 . S
H683 C691 0.950 . S
H684 C689 0.950 . S
H685 C690 0.949 . S
H686 C692 0.950 . S
H687 C693 0.950 . S
H688 C694 0.949 . S
C689 H684 0.950 . S
C689 C691 1.327 . S
C689 C695 1.429 . S
C690 C682 1.574 . S
C690 H685 0.949 . S
C690 C696 1.368 . S
C691 C675 1.349 . S
C691 H683 0.950 . S
C691 C689 1.327 . S
C692 C680 1.349 . S
C692 H686 0.950 . S
C692 C693 1.327 . S
C693 H687 0.950 . S
C693 C692 1.327 . S
C693 C697 1.429 . S
C694 C677 1.574 . S
C694 H688 0.949 . S
C694 C698 1.368 . S
C695 C676 1.429 . S
C695 C689 1.429 . S
C695 C696 1.523 . S
C696 C677 1.368 . S
C696 C690 1.368 . S
C696 C695 1.523 . S
C697 C681 1.429 . S
C697 C693 1.429 . S
C697 C698 1.523 . S
C698 C682 1.368 . S
C698 C694 1.368 . S
C698 C697 1.523 . S
H699 C674 0.950 . S
H700 C676 0.950 . S
H701 C677 0.949 . S
H702 C679 0.950 . S
H703 C681 0.950 . S
C704 C705 1.349 . S
C704 C706 1.327 . S
C704 H729 0.950 . S
C705 C704 1.349 . S
C705 C721 1.349 . S
C706 C704 1.327 . S
C706 C725 1.429 . S
C706 H730 0.950 . S
C707 C724 1.574 . S
C707 C726 1.368 . S
C707 H731 0.949 . S
H708 C712 0.949 . S
C709 C710 1.349 . S
C709 C711 1.327 . S
C709 H732 0.950 . S
C710 C709 1.349 . S
C710 C722 1.349 . S
C711 C709 1.327 . S
C711 C727 1.429 . S
C711 H733 0.950 . S
C712 H708 0.949 . S
C712 C720 1.574 . S
C712 C728 1.368 . S
H713 C721 0.950 . S
H714 C719 0.950 . S
H715 C720 0.949 . S
H716 C722 0.950 . S
H717 C723 0.950 . S
H718 C724 0.949 . S
C719 H714 0.950 . S
C719 C721 1.327 . S
C719 C725 1.429 . S
C720 C712 1.574 . S
C720 H715 0.949 . S
C720 C726 1.368 . S
C721 C705 1.349 . S
C721 H713 0.950 . S
C721 C719 1.327 . S
C722 C710 1.349 . S
C722 H716 0.950 . S
C722 C723 1.327 . S
C723 H717 0.950 . S
C723 C722 1.327 . S
C723 C727 1.429 . S
C724 C707 1.574 . S
C724 H718 0.949 . S
C724 C728 1.368 . S
C725 C706 1.429 . S
C725 C719 1.429 . S
C725 C726 1.523 . S
C726 C707 1.368 . S
C726 C720 1.368 . S
C726 C725 1.523 . S
C727 C711 1.429 . S
C727 C723 1.429 . S
C727 C728 1.523 . S
C728 C712 1.368 . S
C728 C724 1.368 . S
C728 C727 1.523 . S
H729 C704 0.950 . S
H730 C706 0.950 . S
H731 C707 0.949 . S
H732 C709 0.950 . S
H733 C711 0.950 . S
C734 C735 1.349 . S
C734 C736 1.327 . S
C734 H759 0.950 . S
C735 C734 1.349 . S
C735 C751 1.349 . S
C736 C734 1.327 . S
C736 C755 1.429 . S
C736 H760 0.950 . S
C737 C754 1.574 . S
C737 C756 1.368 . S
C737 H761 0.949 . S
H738 C742 0.949 . S
C739 C740 1.349 . S
C739 C741 1.327 . S
C739 H762 0.950 . S
C740 C739 1.349 . S
C740 C752 1.349 . S
C741 C739 1.327 . S
C741 C757 1.429 . S
C741 H763 0.950 . S
C742 H738 0.949 . S
C742 C750 1.574 . S
C742 C758 1.368 . S
H743 C751 0.950 . S
H744 C749 0.950 . S
H745 C750 0.949 . S
H746 C752 0.950 . S
H747 C753 0.950 . S
H748 C754 0.949 . S
C749 H744 0.950 . S
C749 C751 1.327 . S
C749 C755 1.429 . S
C750 C742 1.574 . S
C750 H745 0.949 . S
C750 C756 1.368 . S
C751 C735 1.349 . S
C751 H743 0.950 . S
C751 C749 1.327 . S
C752 C740 1.349 . S
C752 H746 0.950 . S
C752 C753 1.327 . S
C753 H747 0.950 . S
C753 C752 1.327 . S
C753 C757 1.429 . S
C754 C737 1.574 . S
C754 H748 0.949 . S
C754 C758 1.368 . S
C755 C736 1.429 . S
C755 C749 1.429 . S
C755 C756 1.523 . S
C756 C737 1.368 . S
C756 C750 1.368 . S
C756 C755 1.523 . S
C757 C741 1.429 . S
C757 C753 1.429 . S
C757 C758 1.523 . S
C758 C742 1.368 . S
C758 C754 1.368 . S
C758 C757 1.523 . S
H759 C734 0.950 . S
H760 C736 0.950 . S
H761 C737 0.949 . S
H762 C739 0.950 . S
H763 C741 0.950 . S
C764 C765 1.349 . S
C764 C766 1.327 . S
C764 H789 0.950 . S
C765 C764 1.349 . S
C765 C781 1.349 . S
C766 C764 1.327 . S
C766 C785 1.429 . S
C766 H790 0.950 . S
C767 C784 1.574 . S
C767 C786 1.368 . S
C767 H791 0.949 . S
H768 C772 0.949 . S
C769 C770 1.349 . S
C769 C771 1.327 . S
C769 H792 0.950 . S
C770 C769 1.349 . S
C770 C782 1.349 . S
C771 C769 1.327 . S
C771 C787 1.429 . S
C771 H793 0.950 . S
C772 H768 0.949 . S
C772 C780 1.574 . S
C772 C788 1.368 . S
H773 C781 0.950 . S
H774 C779 0.950 . S
H775 C780 0.949 . S
H776 C782 0.950 . S
H777 C783 0.950 . S
H778 C784 0.949 . S
C779 H774 0.950 . S
C779 C781 1.327 . S
C779 C785 1.429 . S
C780 C772 1.574 . S
C780 H775 0.949 . S
C780 C786 1.368 . S
C781 C765 1.349 . S
C781 H773 0.950 . S
C781 C779 1.327 . S
C782 C770 1.349 . S
C782 H776 0.950 . S
C782 C783 1.327 . S
C783 H777 0.950 . S
C783 C782 1.327 . S
C783 C787 1.429 . S
C784 C767 1.574 . S
C784 H778 0.949 . S
C784 C788 1.368 . S
C785 C766 1.429 . S
C785 C779 1.429 . S
C785 C786 1.523 . S
C786 C767 1.368 . S
C786 C780 1.368 . S
C786 C785 1.523 . S
C787 C771 1.429 . S
C787 C783 1.429 . S
C787 C788 1.523 . S
C788 C772 1.368 . S
C788 C784 1.368 . S
C788 C787 1.523 . S
H789 C764 0.950 . S
H790 C766 0.950 . S
H791 C767 0.949 . S
H792 C769 0.950 . S
H793 C771 0.950 . S
C794 C795 1.349 . S
C794 C796 1.327 . S
C794 H819 0.950 . S
C795 C794 1.349 . S
C795 C811 1.349 . S
C796 C794 1.327 . S
C796 C815 1.429 . S
C796 H820 0.950 . S
C797 C814 1.574 . S
C797 C816 1.368 . S
C797 H821 0.949 . S
H798 C802 0.949 . S
C799 C800 1.349 . S
C799 C801 1.327 . S
C799 H822 0.950 . S
C800 C799 1.349 . S
C800 C812 1.349 . S
C801 C799 1.327 . S
C801 C817 1.429 . S
C801 H823 0.950 . S
C802 H798 0.949 . S
C802 C810 1.574 . S
C802 C818 1.368 . S
H803 C811 0.950 . S
H804 C809 0.950 . S
H805 C810 0.949 . S
H806 C812 0.950 . S
H807 C813 0.950 . S
H808 C814 0.949 . S
C809 H804 0.950 . S
C809 C811 1.327 . S
C809 C815 1.429 . S
C810 C802 1.574 . S
C810 H805 0.949 . S
C810 C816 1.368 . S
C811 C795 1.349 . S
C811 H803 0.950 . S
C811 C809 1.327 . S
C812 C800 1.349 . S
C812 H806 0.950 . S
C812 C813 1.327 . S
C813 H807 0.950 . S
C813 C812 1.327 . S
C813 C817 1.429 . S
C814 C797 1.574 . S
C814 H808 0.949 . S
C814 C818 1.368 . S
C815 C796 1.429 . S
C815 C809 1.429 . S
C815 C816 1.523 . S
C816 C797 1.368 . S
C816 C810 1.368 . S
C816 C815 1.523 . S
C817 C801 1.429 . S
C817 C813 1.429 . S
C817 C818 1.523 . S
C818 C802 1.368 . S
C818 C814 1.368 . S
C818 C817 1.523 . S
H819 C794 0.950 . S
H820 C796 0.950 . S
H821 C797 0.949 . S
H822 C799 0.950 . S
H823 C801 0.950 . S
C824 C825 1.349 . S
C824 C826 1.327 . S
C824 H849 0.950 . S
C825 C824 1.349 . S
C825 C841 1.349 . S
C826 C824 1.327 . S
C826 C845 1.429 . S
C826 H850 0.950 . S
C827 C844 1.574 . S
C827 C846 1.368 . S
C827 H851 0.949 . S
H828 C832 0.949 . S
C829 C830 1.349 . S
C829 C831 1.327 . S
C829 H852 0.950 . S
C830 C829 1.349 . S
C830 C842 1.349 . S
C831 C829 1.327 . S
C831 C847 1.429 . S
C831 H853 0.950 . S
C832 H828 0.949 . S
C832 C840 1.574 . S
C832 C848 1.368 . S
H833 C841 0.950 . S
H834 C839 0.950 . S
H835 C840 0.949 . S
H836 C842 0.950 . S
H837 C843 0.950 . S
H838 C844 0.949 . S
C839 H834 0.950 . S
C839 C841 1.327 . S
C839 C845 1.429 . S
C840 C832 1.574 . S
C840 H835 0.949 . S
C840 C846 1.368 . S
C841 C825 1.349 . S
C841 H833 0.950 . S
C841 C839 1.327 . S
C842 C830 1.349 . S
C842 H836 0.950 . S
C842 C843 1.327 . S
C843 H837 0.950 . S
C843 C842 1.327 . S
C843 C847 1.429 . S
C844 C827 1.574 . S
C844 H838 0.949 . S
C844 C848 1.368 . S
C845 C826 1.429 . S
C845 C839 1.429 . S
C845 C846 1.523 . S
C846 C827 1.368 . S
C846 C840 1.368 . S
C846 C845 1.523 . S
C847 C831 1.429 . S
C847 C843 1.429 . S
C847 C848 1.523 . S
C848 C832 1.368 . S
C848 C844 1.368 . S
C848 C847 1.523 . S
H849 C824 0.950 . S
H850 C826 0.950 . S
H851 C827 0.949 . S
H852 C829 0.950 . S
H853 C831 0.950 . S
C854 C855 1.349 . S
C854 C856 1.327 . S
C854 H879 0.950 . S
C855 C854 1.349 . S
C855 C871 1.349 . S
C856 C854 1.327 . S
C856 C875 1.429 . S
C856 H880 0.950 . S
C857 C874 1.574 . S
C857 C876 1.368 . S
C857 H881 0.949 . S
H858 C862 0.949 . S
C859 C860 1.349 . S
C859 C861 1.327 . S
C859 H882 0.950 . S
C860 C859 1.349 . S
C860 C872 1.349 . S
C861 C859 1.327 . S
C861 C877 1.429 . S
C861 H883 0.950 . S
C862 H858 0.949 . S
C862 C870 1.574 . S
C862 C878 1.368 . S
H863 C871 0.950 . S
H864 C869 0.950 . S
H865 C870 0.949 . S
H866 C872 0.950 . S
H867 C873 0.950 . S
H868 C874 0.949 . S
C869 H864 0.950 . S
C869 C871 1.327 . S
C869 C875 1.429 . S
C870 C862 1.574 . S
C870 H865 0.949 . S
C870 C876 1.368 . S
C871 C855 1.349 . S
C871 H863 0.950 . S
C871 C869 1.327 . S
C872 C860 1.349 . S
C872 H866 0.950 . S
C872 C873 1.327 . S
C873 H867 0.950 . S
C873 C872 1.327 . S
C873 C877 1.429 . S
C874 C857 1.574 . S
C874 H868 0.949 . S
C874 C878 1.368 . S
C875 C856 1.429 . S
C875 C869 1.429 . S
C875 C876 1.523 . S
C876 C857 1.368 . S
C876 C870 1.368 . S
C876 C875 1.523 . S
C877 C861 1.429 . S
C877 C873 1.429 . S
C877 C878 1.523 . S
C878 C862 1.368 . S
C878 C874 1.368 . S
C878 C877 1.523 . S
H879 C854 0.950 . S
H880 C856 0.950 . S
H881 C857 0.949 . S
H882 C859 0.950 . S
H883 C861 0.950 . S
C884 C885 1.349 . S
C884 C886 1.327 . S
C884 H909 0.950 . S
C885 C884 1.349 . S
C885 C901 1.349 . S
C886 C884 1.327 . S
C886 C905 1.429 . S
C886 H910 0.950 . S
C887 C904 1.574 . S
C887 C906 1.368 . S
C887 H911 0.949 . S
H888 C892 0.949 . S
C889 C890 1.349 . S
C889 C891 1.327 . S
C889 H912 0.950 . S
C890 C889 1.349 . S
C890 C902 1.349 . S
C891 C889 1.327 . S
C891 C907 1.429 . S
C891 H913 0.950 . S
C892 H888 0.949 . S
C892 C900 1.574 . S
C892 C908 1.368 . S
H893 C901 0.950 . S
H894 C899 0.950 . S
H895 C900 0.949 . S
H896 C902 0.950 . S
H897 C903 0.950 . S
H898 C904 0.949 . S
C899 H894 0.950 . S
C899 C901 1.327 . S
C899 C905 1.429 . S
C900 C892 1.574 . S
C900 H895 0.949 . S
C900 C906 1.368 . S
C901 C885 1.349 . S
C901 H893 0.950 . S
C901 C899 1.327 . S
C902 C890 1.349 . S
C902 H896 0.950 . S
C902 C903 1.327 . S
C903 H897 0.950 . S
C903 C902 1.327 . S
C903 C907 1.429 . S
C904 C887 1.574 . S
C904 H898 0.949 . S
C904 C908 1.368 . S
C905 C886 1.429 . S
C905 C899 1.429 . S
C905 C906 1.523 . S
C906 C887 1.368 . S
C906 C900 1.368 . S
C906 C905 1.523 . S
C907 C891 1.429 . S
C907 C903 1.429 . S
C907 C908 1.523 . S
C908 C892 1.368 . S
C908 C904 1.368 . S
C908 C907 1.523 . S
H909 C884 0.950 . S
H910 C886 0.950 . S
H911 C887 0.949 . S
H912 C889 0.950 . S
H913 C891 0.950 . S
C914 C915 1.349 . S
C914 C916 1.327 . S
C914 H939 0.950 . S
C915 C914 1.349 . S
C915 C931 1.349 . S
C916 C914 1.327 . S
C916 C935 1.429 . S
C916 H940 0.950 . S
C917 C934 1.574 . S
C917 C936 1.368 . S
C917 H941 0.949 . S
H918 C922 0.949 . S
C919 C920 1.349 . S
C919 C921 1.327 . S
C919 H942 0.950 . S
C920 C919 1.349 . S
C920 C932 1.349 . S
C921 C919 1.327 . S
C921 C937 1.429 . S
C921 H943 0.950 . S
C922 H918 0.949 . S
C922 C930 1.574 . S
C922 C938 1.368 . S
H923 C931 0.950 . S
H924 C929 0.950 . S
H925 C930 0.949 . S
H926 C932 0.950 . S
H927 C933 0.950 . S
H928 C934 0.949 . S
C929 H924 0.950 . S
C929 C931 1.327 . S
C929 C935 1.429 . S
C930 C922 1.574 . S
C930 H925 0.949 . S
C930 C936 1.368 . S
C931 C915 1.349 . S
C931 H923 0.950 . S
C931 C929 1.327 . S
C932 C920 1.349 . S
C932 H926 0.950 . S
C932 C933 1.327 . S
C933 H927 0.950 . S
C933 C932 1.327 . S
C933 C937 1.429 . S
C934 C917 1.574 . S
C934 H928 0.949 . S
C934 C938 1.368 . S
C935 C916 1.429 . S
C935 C929 1.429 . S
C935 C936 1.523 . S
C936 C917 1.368 . S
C936 C930 1.368 . S
C936 C935 1.523 . S
C937 C921 1.429 . S
C937 C933 1.429 . S
C937 C938 1.523 . S
C938 C922 1.368 . S
C938 C934 1.368 . S
C938 C937 1.523 . S
H939 C914 0.950 . S
H940 C916 0.950 . S
H941 C917 0.949 . S
H942 C919 0.950 . S
H943 C921 0.950 . S
C944 C945 1.349 . S
C944 C946 1.327 . S
C944 H969 0.950 . S
C945 C944 1.349 . S
C945 C961 1.349 . S
C946 C944 1.327 . S
C946 C965 1.429 . S
C946 H970 0.950 . S
C947 C964 1.574 1_545 S
C947 C966 1.368 . S
C947 H971 0.949 . S
H948 C952 0.949 . S
C949 C950 1.349 . S
C949 C951 1.327 . S
C949 H972 0.950 . S
C950 C949 1.349 . S
C950 C962 1.349 . S
C951 C949 1.327 . S
C951 C967 1.429 . S
C951 H973 0.950 . S
C952 H948 0.949 . S
C952 C960 1.574 1_565 S
C952 C968 1.368 . S
H953 C961 0.950 . S
H954 C959 0.950 . S
H955 C960 0.949 . S
H956 C962 0.950 . S
H957 C963 0.950 . S
H958 C964 0.949 . S
C959 H954 0.950 . S
C959 C961 1.327 . S
C959 C965 1.429 . S
C960 C952 1.574 1_545 S
C960 H955 0.949 . S
C960 C966 1.368 . S
C961 C945 1.349 . S
C961 H953 0.950 . S
C961 C959 1.327 . S
C962 C950 1.349 . S
C962 H956 0.950 . S
C962 C963 1.327 . S
C963 H957 0.950 . S
C963 C962 1.327 . S
C963 C967 1.429 . S
C964 C947 1.574 1_565 S
C964 H958 0.949 . S
C964 C968 1.368 . S
C965 C946 1.429 . S
C965 C959 1.429 . S
C965 C966 1.523 . S
C966 C947 1.368 . S
C966 C960 1.368 . S
C966 C965 1.523 . S
C967 C951 1.429 . S
C967 C963 1.429 . S
C967 C968 1.523 . S
C968 C952 1.368 . S
C968 C964 1.368 . S
C968 C967 1.523 . S
H969 C944 0.950 . S
H970 C946 0.950 . S
H971 C947 0.949 . S
H972 C949 0.950 . S
H973 C951 0.950 . S
C974 C975 1.349 . S
C974 C976 1.327 . S
C974 H999 0.950 . S
C975 C974 1.349 . S
C975 C991 1.349 . S
C976 C974 1.327 . S
C976 C995 1.429 . S
C976 H1000 0.950 . S
C977 C994 1.574 1_655 S
C977 C996 1.368 . S
C977 H1001 0.949 . S
H978 C982 0.949 . S
C979 C980 1.349 . S
C979 C981 1.327 . S
C979 H1002 0.950 . S
C980 C979 1.349 . S
C980 C992 1.349 . S
C981 C979 1.327 . S
C981 C997 1.429 . S
C981 H1003 0.950 . S
C982 H978 0.949 . S
C982 C990 1.574 1_455 S
C982 C998 1.368 . S
H983 C991 0.950 . S
H984 C989 0.950 . S
H985 C990 0.949 . S
H986 C992 0.950 . S
H987 C993 0.950 . S
H988 C994 0.949 . S
C989 H984 0.950 . S
C989 C991 1.327 . S
C989 C995 1.429 . S
C990 C982 1.574 1_655 S
C990 H985 0.949 . S
C990 C996 1.368 . S
C991 C975 1.349 . S
C991 H983 0.950 . S
C991 C989 1.327 . S
C992 C980 1.349 . S
C992 H986 0.950 . S
C992 C993 1.327 . S
C993 H987 0.950 . S
C993 C992 1.327 . S
C993 C997 1.429 . S
C994 C977 1.574 1_455 S
C994 H988 0.949 . S
C994 C998 1.368 . S
C995 C976 1.429 . S
C995 C989 1.429 . S
C995 C996 1.523 . S
C996 C977 1.368 . S
C996 C990 1.368 . S
C996 C995 1.523 . S
C997 C981 1.429 . S
C997 C993 1.429 . S
C997 C998 1.523 . S
C998 C982 1.368 . S
C998 C994 1.368 . S
C998 C997 1.523 . S
H999 C974 0.950 . S
H1000 C976 0.950 . S
H1001 C977 0.949 . S
H1002 C979 0.950 . S
H1003 C981 0.950 . S
C1004 C1005 1.349 . S
C1004 C1006 1.327 . S
C1004 H1029 0.950 . S
C1005 C1004 1.349 . S
C1005 C1021 1.349 . S
C1006 C1004 1.327 . S
C1006 C1025 1.429 . S
C1006 H1030 0.950 . S
C1007 C1024 1.574 1_545 S
C1007 C1026 1.368 . S
C1007 H1031 0.949 . S
H1008 C1012 0.949 . S
C1009 C1010 1.349 . S
C1009 C1011 1.327 . S
C1009 H1032 0.950 . S
C1010 C1009 1.349 . S
C1010 C1022 1.349 . S
C1011 C1009 1.327 . S
C1011 C1027 1.429 . S
C1011 H1033 0.950 . S
C1012 H1008 0.949 . S
C1012 C1020 1.574 1_565 S
C1012 C1028 1.368 . S
H1013 C1021 0.950 . S
H1014 C1019 0.950 . S
H1015 C1020 0.949 . S
H1016 C1022 0.950 . S
H1017 C1023 0.950 . S
H1018 C1024 0.949 . S
C1019 H1014 0.950 . S
C1019 C1021 1.327 . S
C1019 C1025 1.429 . S
C1020 C1012 1.574 1_545 S
C1020 H1015 0.949 . S
C1020 C1026 1.368 . S
C1021 C1005 1.349 . S
C1021 H1013 0.950 . S
C1021 C1019 1.327 . S
C1022 C1010 1.349 . S
C1022 H1016 0.950 . S
C1022 C1023 1.327 . S
C1023 H1017 0.950 . S
C1023 C1022 1.327 . S
C1023 C1027 1.429 . S
C1024 C1007 1.574 1_565 S
C1024 H1018 0.949 . S
C1024 C1028 1.368 . S
C1025 C1006 1.429 . S
C1025 C1019 1.429 . S
C1025 C1026 1.523 . S
C1026 C1007 1.368 . S
C1026 C1020 1.368 . S
C1026 C1025 1.523 . S
C1027 C1011 1.429 . S
C1027 C1023 1.429 . S
C1027 C1028 1.523 . S
C1028 C1012 1.368 . S
C1028 C1024 1.368 . S
C1028 C1027 1.523 . S
H1029 C1004 0.950 . S
H1030 C1006 0.950 . S
H1031 C1007 0.949 . S
H1032 C1009 0.950 . S
H1033 C1011 0.950 . S
C1034 C1035 1.349 . S
C1034 C1036 1.327 . S
C1034 H1059 0.950 . S
C1035 C1034 1.349 . S
C1035 C1051 1.349 . S
C1036 C1034 1.327 . S
C1036 C1055 1.429 . S
C1036 H1060 0.950 . S
C1037 C1054 1.574 1_455 S
C1037 C1056 1.368 . S
C1037 H1061 0.949 . S
H1038 C1042 0.949 . S
C1039 C1040 1.349 . S
C1039 C1041 1.327 . S
C1039 H1062 0.950 . S
C1040 C1039 1.349 . S
C1040 C1052 1.349 . S
C1041 C1039 1.327 . S
C1041 C1057 1.429 . S
C1041 H1063 0.950 . S
C1042 H1038 0.949 . S
C1042 C1050 1.574 1_655 S
C1042 C1058 1.368 . S
H1043 C1051 0.950 . S
H1044 C1049 0.950 . S
H1045 C1050 0.949 . S
H1046 C1052 0.950 . S
H1047 C1053 0.950 . S
H1048 C1054 0.949 . S
C1049 H1044 0.950 . S
C1049 C1051 1.327 . S
C1049 C1055 1.429 . S
C1050 C1042 1.574 1_455 S
C1050 H1045 0.949 . S
C1050 C1056 1.368 . S
C1051 C1035 1.349 . S
C1051 H1043 0.950 . S
C1051 C1049 1.327 . S
C1052 C1040 1.349 . S
C1052 H1046 0.950 . S
C1052 C1053 1.327 . S
C1053 H1047 0.950 . S
C1053 C1052 1.327 . S
C1053 C1057 1.429 . S
C1054 C1037 1.574 1_655 S
C1054 H1048 0.949 . S
C1054 C1058 1.368 . S
C1055 C1036 1.429 . S
C1055 C1049 1.429 . S
C1055 C1056 1.523 . S
C1056 C1037 1.368 . S
C1056 C1050 1.368 . S
C1056 C1055 1.523 . S
C1057 C1041 1.429 . S
C1057 C1053 1.429 . S
C1057 C1058 1.523 . S
C1058 C1042 1.368 . S
C1058 C1054 1.368 . S
C1058 C1057 1.523 . S
H1059 C1034 0.950 . S
H1060 C1036 0.950 . S
H1061 C1037 0.949 . S
H1062 C1039 0.950 . S
H1063 C1041 0.950 . S
C1064 C1065 1.349 . S
C1064 C1066 1.327 . S
C1064 H1089 0.950 . S
C1065 C1064 1.349 . S
C1065 C1081 1.349 . S
C1066 C1064 1.327 . S
C1066 C1085 1.429 . S
C1066 H1090 0.950 . S
C1067 C1084 1.574 1_545 S
C1067 C1086 1.368 . S
C1067 H1091 0.949 . S
H1068 C1072 0.949 . S
C1069 C1070 1.349 . S
C1069 C1071 1.327 . S
C1069 H1092 0.950 . S
C1070 C1069 1.349 . S
C1070 C1082 1.349 . S
C1071 C1069 1.327 . S
C1071 C1087 1.429 . S
C1071 H1093 0.950 . S
C1072 H1068 0.949 . S
C1072 C1080 1.574 1_565 S
C1072 C1088 1.368 . S
H1073 C1081 0.950 . S
H1074 C1079 0.950 . S
H1075 C1080 0.949 . S
H1076 C1082 0.950 . S
H1077 C1083 0.950 . S
H1078 C1084 0.949 . S
C1079 H1074 0.950 . S
C1079 C1081 1.327 . S
C1079 C1085 1.429 . S
C1080 C1072 1.574 1_545 S
C1080 H1075 0.949 . S
C1080 C1086 1.368 . S
C1081 C1065 1.349 . S
C1081 H1073 0.950 . S
C1081 C1079 1.327 . S
C1082 C1070 1.349 . S
C1082 H1076 0.950 . S
C1082 C1083 1.327 . S
C1083 H1077 0.950 . S
C1083 C1082 1.327 . S
C1083 C1087 1.429 . S
C1084 C1067 1.574 1_565 S
C1084 H1078 0.949 . S
C1084 C1088 1.368 . S
C1085 C1066 1.429 . S
C1085 C1079 1.429 . S
C1085 C1086 1.523 . S
C1086 C1067 1.368 . S
C1086 C1080 1.368 . S
C1086 C1085 1.523 . S
C1087 C1071 1.429 . S
C1087 C1083 1.429 . S
C1087 C1088 1.523 . S
C1088 C1072 1.368 . S
C1088 C1084 1.368 . S
C1088 C1087 1.523 . S
H1089 C1064 0.950 . S
H1090 C1066 0.950 . S
H1091 C1067 0.949 . S
H1092 C1069 0.950 . S
H1093 C1071 0.950 . S
C1094 C1095 1.349 . S
C1094 C1096 1.327 . S
C1094 H1119 0.950 . S
C1095 C1094 1.349 . S
C1095 C1111 1.349 . S
C1096 C1094 1.327 . S
C1096 C1115 1.429 . S
C1096 H1120 0.950 . S
C1097 C1114 1.574 1_655 S
C1097 C1116 1.368 . S
C1097 H1121 0.949 . S
H1098 C1102 0.949 . S
C1099 C1100 1.349 . S
C1099 C1101 1.327 . S
C1099 H1122 0.950 . S
C1100 C1099 1.349 . S
C1100 C1112 1.349 . S
C1101 C1099 1.327 . S
C1101 C1117 1.429 . S
C1101 H1123 0.950 . S
C1102 H1098 0.949 . S
C1102 C1110 1.574 1_455 S
C1102 C1118 1.368 . S
H1103 C1111 0.950 . S
H1104 C1109 0.950 . S
H1105 C1110 0.949 . S
H1106 C1112 0.950 . S
H1107 C1113 0.950 . S
H1108 C1114 0.949 . S
C1109 H1104 0.950 . S
C1109 C1111 1.327 . S
C1109 C1115 1.429 . S
C1110 C1102 1.574 1_655 S
C1110 H1105 0.949 . S
C1110 C1116 1.368 . S
C1111 C1095 1.349 . S
C1111 H1103 0.950 . S
C1111 C1109 1.327 . S
C1112 C1100 1.349 . S
C1112 H1106 0.950 . S
C1112 C1113 1.327 . S
C1113 H1107 0.950 . S
C1113 C1112 1.327 . S
C1113 C1117 1.429 . S
C1114 C1097 1.574 1_455 S
C1114 H1108 0.949 . S
C1114 C1118 1.368 . S
C1115 C1096 1.429 . S
C1115 C1109 1.429 . S
C1115 C1116 1.523 . S
C1116 C1097 1.368 . S
C1116 C1110 1.368 . S
C1116 C1115 1.523 . S
C1117 C1101 1.429 . S
C1117 C1113 1.429 . S
C1117 C1118 1.523 . S
C1118 C1102 1.368 . S
C1118 C1114 1.368 . S
C1118 C1117 1.523 . S
H1119 C1094 0.950 . S
H1120 C1096 0.950 . S
H1121 C1097 0.949 . S
H1122 C1099 0.950 . S
H1123 C1101 0.950 . S
C1124 C1125 1.349 . S
C1124 C1126 1.327 . S
C1124 H1149 0.950 . S
C1125 C1124 1.349 . S
C1125 C1141 1.349 . S
C1126 C1124 1.327 . S
C1126 C1145 1.429 . S
C1126 H1150 0.950 . S
C1127 C1144 1.574 1_565 S
C1127 C1146 1.368 . S
C1127 H1151 0.949 . S
H1128 C1132 0.949 . S
C1129 C1130 1.349 . S
C1129 C1131 1.327 . S
C1129 H1152 0.950 . S
C1130 C1129 1.349 . S
C1130 C1142 1.349 . S
C1131 C1129 1.327 . S
C1131 C1147 1.429 . S
C1131 H1153 0.950 . S
C1132 H1128 0.949 . S
C1132 C1140 1.574 1_545 S
C1132 C1148 1.368 . S
H1133 C1141 0.950 . S
H1134 C1139 0.950 . S
H1135 C1140 0.949 . S
H1136 C1142 0.950 . S
H1137 C1143 0.950 . S
H1138 C1144 0.949 . S
C1139 H1134 0.950 . S
C1139 C1141 1.327 . S
C1139 C1145 1.429 . S
C1140 C1132 1.574 1_565 S
C1140 H1135 0.949 . S
C1140 C1146 1.368 . S
C1141 C1125 1.349 . S
C1141 H1133 0.950 . S
C1141 C1139 1.327 . S
C1142 C1130 1.349 . S
C1142 H1136 0.950 . S
C1142 C1143 1.327 . S
C1143 H1137 0.950 . S
C1143 C1142 1.327 . S
C1143 C1147 1.429 . S
C1144 C1127 1.574 1_545 S
C1144 H1138 0.949 . S
C1144 C1148 1.368 . S
C1145 C1126 1.429 . S
C1145 C1139 1.429 . S
C1145 C1146 1.523 . S
C1146 C1127 1.368 . S
C1146 C1140 1.368 . S
C1146 C1145 1.523 . S
C1147 C1131 1.429 . S
C1147 C1143 1.429 . S
C1147 C1148 1.523 . S
C1148 C1132 1.368 . S
C1148 C1144 1.368 . S
C1148 C1147 1.523 . S
H1149 C1124 0.950 . S
H1150 C1126 0.950 . S
H1151 C1127 0.949 . S
H1152 C1129 0.950 . S
H1153 C1131 0.950 . S
C1154 C1155 1.349 . S
C1154 C1156 1.327 . S
C1154 H1179 0.950 . S
C1155 C1154 1.349 . S
C1155 C1171 1.349 . S
C1156 C1154 1.327 . S
C1156 C1175 1.429 . S
C1156 H1180 0.950 . S
C1157 C1174 1.574 1_455 S
C1157 C1176 1.368 . S
C1157 H1181 0.949 . S
H1158 C1162 0.949 . S
C1159 C1160 1.349 . S
C1159 C1161 1.327 . S
C1159 H1182 0.950 . S
C1160 C1159 1.349 . S
C1160 C1172 1.349 . S
C1161 C1159 1.327 . S
C1161 C1177 1.429 . S
C1161 H1183 0.950 . S
C1162 H1158 0.949 . S
C1162 C1170 1.574 1_655 S
C1162 C1178 1.368 . S
H1163 C1171 0.950 . S
H1164 C1169 0.950 . S
H1165 C1170 0.949 . S
H1166 C1172 0.950 . S
H1167 C1173 0.950 . S
H1168 C1174 0.949 . S
C1169 H1164 0.950 . S
C1169 C1171 1.327 . S
C1169 C1175 1.429 . S
C1170 C1162 1.574 1_455 S
C1170 H1165 0.949 . S
C1170 C1176 1.368 . S
C1171 C1155 1.349 . S
C1171 H1163 0.950 . S
C1171 C1169 1.327 . S
C1172 C1160 1.349 . S
C1172 H1166 0.950 . S
C1172 C1173 1.327 . S
C1173 H1167 0.950 . S
C1173 C1172 1.327 . S
C1173 C1177 1.429 . S
C1174 C1157 1.574 1_655 S
C1174 H1168 0.949 . S
C1174 C1178 1.368 . S
C1175 C1156 1.429 . S
C1175 C1169 1.429 . S
C1175 C1176 1.523 . S
C1176 C1157 1.368 . S
C1176 C1170 1.368 . S
C1176 C1175 1.523 . S
C1177 C1161 1.429 . S
C1177 C1173 1.429 . S
C1177 C1178 1.523 . S
C1178 C1162 1.368 . S
C1178 C1174 1.368 . S
C1178 C1177 1.523 . S
H1179 C1154 0.950 . S
H1180 C1156 0.950 . S
H1181 C1157 0.949 . S
H1182 C1159 0.950 . S
H1183 C1161 0.950 . S
C225 C81 1.113 . S
C230 C11 1.113 . S
C255 C95 1.113 . S
C260 C25 1.113 . S
C285 C39 1.113 . S
C290 C109 1.113 . S
C315 C53 1.113 . S
C320 C67 1.113 . S
C345 C193 1.113 . S
C350 C123 1.113 . S
C375 C207 1.113 . S
C380 C137 1.113 . S
C405 C151 1.113 . S
C410 C221 1.113 . S
C435 C165 1.113 . S
C440 C179 1.113 . S
C465 C152 1.518 . S
C470 C12 1.518 . S
C495 C166 1.518 . S
C500 C26 1.518 . S
C525 C124 1.518 . S
C530 C40 1.518 . S
C555 C54 1.518 . S
C560 C138 1.518 . S
C585 C208 1.518 . S
C590 C68 1.518 . S
C615 C222 1.518 . S
C620 C82 1.518 . S
C645 C96 1.518 . S
C650 C180 1.518 . S
C675 C194 1.518 . S
C680 C110 1.518 . S
C705 C61 1.034 . S
C710 C5 1.034 . S
C735 C19 1.034 . S
C740 C75 1.034 . S
C765 C33 1.034 . S
C770 C89 1.034 . S
C795 C103 1.034 . S
C800 C47 1.034 . S
C825 C116 1.574 . S
C830 C172 1.574 . S
C855 C186 1.574 . S
C860 C130 1.574 . S
C885 C144 1.574 . S
C890 C200 1.574 . S
C915 C214 1.574 . S
C920 C158 1.574 . S
C945 C159 1.034 . S
C950 C187 1.034 . S
C975 C117 1.034 . S
C980 C201 1.034 . S
C1005 C215 1.034 . S
C1010 C131 1.034 . S
C1035 C145 1.034 . S
C1040 C173 1.034 . S
C1065 C74 1.574 . S
C1070 C46 1.574 . S
C1095 C88 1.574 . S
C1100 C4 1.574 . S
C1125 C102 1.574 . S
C1130 C18 1.574 . S
C1155 C60 1.574 . S
C1160 C32 1.574 . S
