# Generated by pormake.
# Topology wjd, (6)-cn, num edge types: 1
# Building blocks:
#     Node 0, Type 0, BuildingBlock: KUMJIN_clean_sbu_0, # of connection points: 6
#     Node 1, Type 0, BuildingBlock: KUMJIN_clean_sbu_0, # of connection points: 6
#     Node 2, Type 0, BuildingBlock: KUMJIN_clean_sbu_0, # of connection points: 6
#     Node 3, Type 0, BuildingBlock: KUMJIN_clean_sbu_0, # of connection points: 6
#     Node 4, Type 0, BuildingBlock: KUMJIN_clean_sbu_0, # of connection points: 6
#     Node 5, Type 0, BuildingBlock: KUMJIN_clean_sbu_0, # of connection points: 6
#     Node 6, Type 0, BuildingBlock: KUMJIN_clean_sbu_0, # of connection points: 6
#     Node 7, Type 0, BuildingBlock: KUMJIN_clean_sbu_0, # of connection points: 6
#     Node 8, Type 0, BuildingBlock: KUMJIN_clean_sbu_0, # of connection points: 6
#     Node 9, Type 0, BuildingBlock: KUMJIN_clean_sbu_0, # of connection points: 6
#     Node 10, Type 0, BuildingBlock: KUMJIN_clean_sbu_0, # of connection points: 6
#     Node 11, Type 0, BuildingBlock: KUMJIN_clean_sbu_0, # of connection points: 6
#     Edge 12, Type (0, 0), BuildingBlock: CIFDUS_clean_linker_0, # of connection points: 2
#     Edge 13, Type (0, 0), BuildingBlock: CIFDUS_clean_linker_0, # of connection points: 2
#     Edge 14, Type (0, 0), BuildingBlock: CIFDUS_clean_linker_0, # of connection points: 2
#     Edge 15, Type (0, 0), BuildingBlock: CIFDUS_clean_linker_0, # of connection points: 2
#     Edge 16, Type (0, 0), BuildingBlock: CIFDUS_clean_linker_0, # of connection points: 2
#     Edge 17, Type (0, 0), BuildingBlock: CIFDUS_clean_linker_0, # of connection points: 2
#     Edge 18, Type (0, 0), BuildingBlock: CIFDUS_clean_linker_0, # of connection points: 2
#     Edge 19, Type (0, 0), BuildingBlock: CIFDUS_clean_linker_0, # of connection points: 2
#     Edge 20, Type (0, 0), BuildingBlock: CIFDUS_clean_linker_0, # of connection points: 2
#     Edge 21, Type (0, 0), BuildingBlock: CIFDUS_clean_linker_0, # of connection points: 2
#     Edge 22, Type (0, 0), BuildingBlock: CIFDUS_clean_linker_0, # of connection points: 2
#     Edge 23, Type (0, 0), BuildingBlock: CIFDUS_clean_linker_0, # of connection points: 2
#     Edge 24, Type (0, 0), BuildingBlock: CIFDUS_clean_linker_0, # of connection points: 2
#     Edge 25, Type (0, 0), BuildingBlock: CIFDUS_clean_linker_0, # of connection points: 2
#     Edge 26, Type (0, 0), BuildingBlock: CIFDUS_clean_linker_0, # of connection points: 2
#     Edge 27, Type (0, 0), BuildingBlock: CIFDUS_clean_linker_0, # of connection points: 2
#     Edge 28, Type (0, 0), BuildingBlock: CIFDUS_clean_linker_0, # of connection points: 2
#     Edge 29, Type (0, 0), BuildingBlock: CIFDUS_clean_linker_0, # of connection points: 2
#     Edge 30, Type (0, 0), BuildingBlock: CIFDUS_clean_linker_0, # of connection points: 2
#     Edge 31, Type (0, 0), BuildingBlock: CIFDUS_clean_linker_0, # of connection points: 2
#     Edge 32, Type (0, 0), BuildingBlock: CIFDUS_clean_linker_0, # of connection points: 2
#     Edge 33, Type (0, 0), BuildingBlock: CIFDUS_clean_linker_0, # of connection points: 2
#     Edge 34, Type (0, 0), BuildingBlock: CIFDUS_clean_linker_0, # of connection points: 2
#     Edge 35, Type (0, 0), BuildingBlock: CIFDUS_clean_linker_0, # of connection points: 2
#     Edge 36, Type (0, 0), BuildingBlock: CIFDUS_clean_linker_0, # of connection points: 2
#     Edge 37, Type (0, 0), BuildingBlock: CIFDUS_clean_linker_0, # of connection points: 2
#     Edge 38, Type (0, 0), BuildingBlock: CIFDUS_clean_linker_0, # of connection points: 2
#     Edge 39, Type (0, 0), BuildingBlock: CIFDUS_clean_linker_0, # of connection points: 2
#     Edge 40, Type (0, 0), BuildingBlock: CIFDUS_clean_linker_0, # of connection points: 2
#     Edge 41, Type (0, 0), BuildingBlock: CIFDUS_clean_linker_0, # of connection points: 2
#     Edge 42, Type (0, 0), BuildingBlock: CIFDUS_clean_linker_0, # of connection points: 2
#     Edge 43, Type (0, 0), BuildingBlock: CIFDUS_clean_linker_0, # of connection points: 2
#     Edge 44, Type (0, 0), BuildingBlock: CIFDUS_clean_linker_0, # of connection points: 2
#     Edge 45, Type (0, 0), BuildingBlock: CIFDUS_clean_linker_0, # of connection points: 2
#     Edge 46, Type (0, 0), BuildingBlock: CIFDUS_clean_linker_0, # of connection points: 2
#     Edge 47, Type (0, 0), BuildingBlock: CIFDUS_clean_linker_0, # of connection points: 2
# Relax obj value: 0.095
# Max RMSD: 0.218
# Mean RMSD: 0.218
data_MOF--net-wjd--node1-KUMJIN_clean_sbu_0--edge1-CIFDUS_clean_linker_0
_symmetry_space_group_name_H-M    P1
_symmetry_Int_Tables_number       1
_symmetry_cell_setting            triclinic
loop_
_symmetry_equiv_pos_as_xyz
'x, y, z'
_cell_length_a     34.852233
_cell_length_b     34.876511
_cell_length_c     48.208068
_cell_angle_alpha  90.214604
_cell_angle_beta   90.051031
_cell_angle_gamma 119.99586
loop_
_atom_site_label
_atom_site_type_symbol
_atom_site_fract_x
_atom_site_fract_y
_atom_site_fract_z
_atom_type_partial_charge
Eu0 Eu 0.38531 0.19493 0.11148 0.0
C1 C 0.35416 0.02118 0.16325 0.0
C2 C 0.3979 1.00229 0.13313 0.0
C3 C 0.38476 0.97678 0.18084 0.0
C4 C 0.37321 0.02374 0.13769 0.0
C5 C 0.35809 0.99603 0.18472 0.0
C6 C 0.40491 0.98018 0.15513 0.0
C7 C 0.30462 1.0061 0.21088 0.0
N8 N 0.32826 0.03976 0.16625 0.0
C9 C 0.30253 0.03159 0.18926 0.0
C10 C 0.33304 0.98881 0.20879 0.0
Eu11 Eu 0.32172 0.07735 0.12756 0.0
N12 N 0.36414 0.04363 0.11662 0.0
C13 C 0.37547 0.04009 0.09006 0.0
C14 C 0.4127 1.00164 0.10625 0.0
C15 C 0.40061 0.01981 0.08451 0.0
H16 H 0.28031 0.0447 0.19076 0.0
H17 H 0.41055 0.01817 0.06348 0.0
H18 H 0.42412 0.96386 0.15209 0.0
H19 H 0.28392 0.99932 0.22897 0.0
H20 H 0.36587 0.05359 0.07311 0.0
H21 H 0.41034 0.31026 0.1967 0.0
H22 H 0.43181 0.98559 0.10188 0.0
H23 H 0.33018 0.18519 0.051 0.0
H24 H 0.42875 0.26447 0.16658 0.0
H25 H 0.27457 0.20162 0.03298 0.0
H26 H 0.38868 0.95784 0.19725 0.0
H27 H 0.34476 0.31744 0.18628 0.0
H28 H 0.28399 0.30402 0.15309 0.0
H29 H 0.33428 0.96871 0.22547 0.0
H30 H 0.24839 0.27615 0.10776 0.0
N31 N 0.37122 0.24161 0.14113 0.0
C32 C 0.39922 0.26627 0.16226 0.0
C33 C 0.35214 0.29649 0.17333 0.0
C34 C 0.32704 0.27601 0.14957 0.0
C35 C 0.38918 0.29259 0.17926 0.0
C36 C 0.338 0.24899 0.13338 0.0
H37 H 0.24601 0.23976 0.06251 0.0
N38 N 0.33207 0.2108 0.0916 0.0
C39 C 0.28618 0.2104 0.05415 0.0
C40 C 0.31835 0.23377 0.10766 0.0
C41 C 0.31749 0.20043 0.06478 0.0
C42 C 0.27024 0.23202 0.07083 0.0
C43 C 0.28668 0.24453 0.0978 0.0
O44 O 0.41728 0.24327 0.07787 0.0
O45 O 0.38689 0.13107 0.1096 0.0
O46 O 0.36202 0.11103 0.16584 0.0
O47 O 0.3794 0.18419 0.15916 0.0
O48 O 0.43956 0.18477 0.12894 0.0
O49 O 0.4537 0.25018 0.11507 0.0
O50 O 0.2505 0.03688 0.1356 0.0
O51 O 0.31775 0.13753 0.11703 0.0
O52 O 0.37109 0.15475 0.06982 0.0
O53 O 0.31442 0.08478 0.08239 0.0
O54 O 0.28429 0.10371 0.15218 0.0
O55 O 0.28012 1.01649 0.10398 0.0
C56 C 0.42493 0.14471 0.12051 0.0
C57 C 0.46598 0.31694 0.09467 0.0
C58 C 0.52234 0.39582 0.10107 0.0
C59 C 0.51105 0.35116 0.09591 0.0
C60 C 0.48809 0.40533 0.1052 0.0
C61 C 0.43296 0.32848 0.09761 0.0
C62 C 0.44388 0.37201 0.10322 0.0
C63 C 0.3758 0.15154 0.17516 0.0
C64 C 0.4529 0.26915 0.09214 0.0
C65 C 0.27327 0.26842 0.1148 0.0
C66 C 0.29336 0.28406 0.14067 0.0
C67 C 0.29122 0.13556 0.13563 0.0
C68 C 0.2145 0.96046 0.12519 0.0
C69 C 0.16862 0.93975 0.11962 0.0
C70 C 0.1398 0.89607 0.1285 0.0
C71 C 0.15763 0.87325 0.14256 0.0
C72 C 0.2315 0.93691 0.13909 0.0
C73 C 0.20315 0.89347 0.14763 0.0
C74 C 0.33802 0.11398 0.06344 0.0
C75 C 0.24382 1.00696 0.11712 0.0
H76 H 0.53707 0.34313 0.09305 0.0
H77 H 0.49556 0.43905 0.10889 0.0
H78 H 0.3985 0.30378 0.09563 0.0
H79 H 0.41783 0.38005 0.10576 0.0
H80 H 0.15525 0.95796 0.1091 0.0
H81 H 0.13624 0.83965 0.1496 0.0
H82 H 0.2666 0.95214 0.14346 0.0
H83 H 0.21647 0.87551 0.15843 0.0
Eu84 Eu 0.80199 0.72501 0.37672 0.0
C85 C 0.94491 0.71631 0.43044 0.0
C86 C 1.00042 0.74203 0.39428 0.0
C87 C 1.02307 0.76237 0.44221 0.0
C88 C 0.95558 0.71926 0.40264 0.0
C89 C 0.97866 0.73759 0.45056 0.0
C90 C 0.03399 0.76395 0.41416 0.0
C91 C 0.92345 0.70187 0.48605 0.0
N92 N 0.90194 0.69049 0.43797 0.0
C93 C 0.89171 0.67998 0.46538 0.0
C94 C 0.96688 0.73191 0.47858 0.0
Eu95 Eu 0.84876 0.65824 0.40135 0.0
N96 N 0.92231 0.69855 0.3838 0.0
C97 C 0.93208 0.69659 0.35654 0.0
C98 C 1.01027 0.74177 0.36621 0.0
C99 C 0.97594 0.71851 0.34731 0.0
H100 H 0.85867 0.65508 0.47151 0.0
H101 H 0.98322 0.71699 0.32565 0.0
H102 H 0.06849 0.78222 0.40805 0.0
H103 H 0.91451 0.69514 0.50771 0.0
H104 H 0.90662 0.67672 0.34187 0.0
H105 H 0.65258 0.65475 0.44271 0.0
H106 H 0.04424 0.75884 0.35899 0.0
H107 H 0.80387 0.7341 0.30626 0.0
H108 H 0.73014 0.7037 0.43225 0.0
H109 H 0.75572 0.69422 0.26708 0.0
H110 H 0.04934 0.77931 0.45733 0.0
H111 H 0.60029 0.60921 0.40581 0.0
H112 H 0.58644 0.58861 0.35569 0.0
H113 H 0.99123 0.74909 0.49461 0.0
H114 H 0.61426 0.59944 0.30791 0.0
N115 N 0.72508 0.6847 0.38942 0.0
C116 C 0.70923 0.68354 0.41563 0.0
C117 C 0.63501 0.63052 0.40093 0.0
C118 C 0.65041 0.63407 0.37381 0.0
C119 C 0.66443 0.65602 0.4218 0.0
C120 C 0.69606 0.66223 0.36852 0.0
H121 H 0.67705 0.63861 0.27465 0.0
N122 N 0.75526 0.69663 0.33694 0.0
C123 C 0.74249 0.6871 0.28781 0.0
C124 C 0.71165 0.6682 0.34159 0.0
C125 C 0.77008 0.70882 0.31037 0.0
C126 C 0.6984 0.65527 0.29226 0.0
C127 C 0.6821 0.64637 0.31934 0.0
O128 O 0.82638 0.78336 0.34996 0.0
O129 O 0.86553 0.72344 0.38265 0.0
O130 O 0.82664 0.68293 0.43973 0.0
O131 O 0.80311 0.73039 0.42282 0.0
O132 O 0.86342 0.77657 0.39947 0.0
O133 O 0.78711 0.77745 0.3861 0.0
O134 O 0.85606 0.60657 0.42294 0.0
O135 O 0.78639 0.65487 0.38614 0.0
O136 O 0.8351 0.70949 0.34125 0.0
O137 O 0.8283 0.64301 0.35546 0.0
O138 O 0.78168 0.61955 0.42164 0.0
O139 O 0.84342 0.60046 0.37944 0.0
C140 C 0.8888 0.76039 0.39472 0.0
C141 C 0.79111 0.82697 0.35128 0.0
C142 C 0.7953 0.89802 0.3419 0.0
C143 C 0.81199 0.87329 0.35503 0.0
C144 C 0.75695 0.87543 0.32537 0.0
C145 C 0.7529 0.80524 0.33483 0.0
C146 C 0.73592 0.82946 0.32199 0.0
C147 C 0.81229 0.71156 0.44333 0.0
C148 C 0.80937 0.80207 0.3652 0.0
C149 C 0.6372 0.6169 0.32471 0.0
C150 C 0.62138 0.61078 0.35189 0.0
C151 C 0.75895 0.62682 0.40326 0.0
C152 C 0.88725 0.57109 0.39638 0.0
C153 C 0.87735 0.52661 0.3989 0.0
C154 C 0.91004 0.51484 0.39294 0.0
C155 C 0.95227 0.54792 0.38447 0.0
C156 C 0.93033 0.60325 0.38881 0.0
C157 C 0.96235 0.59179 0.38267 0.0
C158 C 0.83096 0.6705 0.33566 0.0
C159 C 0.85285 0.58398 0.40072 0.0
H160 H 0.8417 0.89014 0.36765 0.0
H161 H 0.74316 0.89339 0.31506 0.0
H162 H 0.73622 0.76967 0.33199 0.0
H163 H 0.7064 0.81257 0.30927 0.0
H164 H 0.84452 0.50137 0.40526 0.0
H165 H 0.97806 0.54003 0.38013 0.0
H166 H 0.93953 0.63738 0.38762 0.0
H167 H 0.99532 0.61717 0.3767 0.0
Eu168 Eu 0.84391 0.19801 0.10455 0.0
C169 C 0.98855 0.32924 0.17882 0.0
C170 C 1.02281 0.39664 0.15189 0.0
C171 C 1.01564 0.40033 0.20186 0.0
C172 C 1.00085 0.35005 0.1534 0.0
C173 C 0.99635 0.35412 0.2034 0.0
C174 C 0.02908 0.42159 0.17615 0.0
C175 C 0.96939 0.28628 0.22928 0.0
N176 N 0.97074 0.28466 0.1796 0.0
C177 C 0.96434 0.26342 0.20447 0.0
C178 C 0.98516 0.33181 0.22878 0.0
Eu179 Eu 0.95367 0.24719 0.13612 0.0
N180 N 0.99406 0.32494 0.13037 0.0
C181 C 1.01241 0.3444 0.10567 0.0
C182 C 0.03929 0.41676 0.12622 0.0
C183 C 0.03501 0.39054 0.10315 0.0
H184 H 0.9515 0.22806 0.2049 0.0
H185 H 0.04862 0.40578 0.08335 0.0
H186 H 0.04533 0.45739 0.17535 0.0
H187 H 0.96023 0.26856 0.2487 0.0
H188 H 1.00903 0.32451 0.0877 0.0
H189 H 0.71853 0.06277 0.1683 0.0
H190 H 0.05651 0.45246 0.12417 0.0
H191 H 0.8645 0.18881 0.03541 0.0
H192 H 0.76533 0.13952 0.15378 0.0
H193 H 0.85895 0.13248 0.00335 0.0
H194 H 1.02153 0.42001 0.2205 0.0
H195 H 0.71466 1.0018 0.13999 0.0
H196 H 0.73473 0.97755 0.09638 0.0
H197 H 0.98939 0.3495 0.24809 0.0
H198 H 0.77304 0.99657 0.05155 0.0
N199 N 0.79434 0.12387 0.11954 0.0
C200 C 0.76683 0.11393 0.14199 0.0
C201 C 0.7366 0.03581 0.13388 0.0
C202 C 0.76068 0.04576 0.10924 0.0
C203 C 0.73894 0.07008 0.14999 0.0
C204 C 0.78921 0.0907 0.10227 0.0
H205 H 0.81999 0.054 0.01707 0.0
N206 N 0.83556 0.14487 0.06986 0.0
C207 C 0.84604 0.12328 0.02418 0.0
C208 C 0.81063 0.10148 0.07689 0.0
C209 C 0.85051 0.15565 0.04312 0.0
C210 C 0.82372 0.07903 0.03191 0.0
C211 C 0.80431 0.06745 0.05811 0.0
O212 O 0.80485 0.2011 0.06973 0.0
O213 O 0.90708 0.26327 0.11217 0.0
O214 O 0.90682 0.2514 0.16615 0.0
O215 O 0.83974 0.19195 0.1525 0.0
O216 O 0.84741 0.25906 0.12291 0.0
O217 O 0.78325 0.20071 0.11167 0.0
O218 O 1.01916 0.26401 0.12027 0.0
O219 O 0.89727 0.18451 0.11798 0.0
O220 O 0.89848 0.23686 0.07108 0.0
O221 O 0.96157 0.24103 0.09029 0.0
O222 O 0.92121 0.1792 0.15629 0.0
O223 O 0.99399 0.22378 0.15676 0.0
C224 C 0.88944 0.28538 0.12114 0.0
C225 C 0.72632 0.16528 0.07811 0.0
C226 C 0.64594 0.13754 0.08219 0.0
C227 C 0.69046 0.16871 0.08931 0.0
C228 C 0.63819 0.1028 0.06395 0.0
C229 C 0.71702 0.12987 0.06015 0.0
C230 C 0.67335 0.099 0.05317 0.0
C231 C 0.86593 0.22084 0.17147 0.0
C232 C 0.77303 0.19824 0.08554 0.0
C233 C 0.77778 0.02292 0.06562 0.0
C234 C 0.75594 1.0121 0.09111 0.0
C235 C 0.89363 0.15749 0.13666 0.0
C236 C 0.03533 0.20642 0.1261 0.0
C237 C 0.07503 0.20696 0.13278 0.0
C238 C 0.08332 0.1738 0.12229 0.0
C239 C 0.05071 0.1401 0.10541 0.0
C240 C 1.0042 0.17302 0.10873 0.0
C241 C 1.0118 0.14002 0.09856 0.0
C242 C 0.93971 0.24346 0.06875 0.0
C243 C 1.02484 0.23913 0.13797 0.0
H244 H 0.69728 0.19584 0.10325 0.0
H245 H 0.60471 0.0779 0.05834 0.0
H246 H 0.7435 0.12588 0.0515 0.0
H247 H 0.66666 0.07181 0.03935 0.0
H248 H 0.09924 0.23318 0.14593 0.0
H249 H 0.05481 0.11318 0.0977 0.0
H250 H 0.9737 0.17223 0.10332 0.0
H251 H 0.98718 0.11397 0.08552 0.0
Eu252 Eu 0.33661 0.08169 0.37866 0.0
C253 C 0.34607 0.21917 0.46225 0.0
C254 C 0.30252 0.25144 0.44642 0.0
C255 C 0.30759 0.24014 0.49571 0.0
C256 C 0.32837 0.23157 0.44066 0.0
C257 C 0.3366 0.22418 0.49003 0.0
C258 C 0.29098 0.25426 0.47397 0.0
C259 C 0.38839 0.2012 0.5046 0.0
N260 N 0.37426 0.2041 0.45612 0.0
C261 C 0.39698 0.19701 0.47675 0.0
C262 C 0.35758 0.21422 0.51128 0.0
Eu263 Eu 0.38475 0.19542 0.40839 0.0
N264 N 0.33938 0.2276 0.41419 0.0
C265 C 0.33015 0.24759 0.39296 0.0
C266 C 0.29087 0.2698 0.42448 0.0
C267 C 0.30588 0.269 0.39777 0.0
H268 H 0.42045 0.18643 0.47172 0.0
H269 H 0.29809 0.28417 0.38077 0.0
H270 H 0.27032 0.2685 0.47874 0.0
H271 H 0.40542 0.19425 0.52089 0.0
H272 H 0.34118 0.24666 0.37215 0.0
H273 H 0.44835 0.0255 0.41651 0.0
H274 H 0.27148 0.28579 0.42806 0.0
H275 H 0.29 0.06701 0.31473 0.0
H276 H 0.39517 0.05184 0.42083 0.0
H277 H 0.30339 0.05016 0.26755 0.0
H278 H 0.29902 0.24301 0.5169 0.0
H279 H 0.46825 1.01027 0.37019 0.0
H280 H 0.457 1.00622 0.31863 0.0
H281 H 0.35115 0.21765 0.53286 0.0
H282 H 0.41785 1.01321 0.27819 0.0
N283 N 0.38509 0.05251 0.37723 0.0
C284 C 0.40309 0.04521 0.40043 0.0
C285 C 0.44454 0.02163 0.37193 0.0
C286 C 0.42428 0.02697 0.34836 0.0
C287 C 0.43338 0.03017 0.39811 0.0
C288 C 0.39376 0.04203 0.35174 0.0
H289 H 0.3616 0.03054 0.2591 0.0
N290 N 0.34089 0.05838 0.33309 0.0
C291 C 0.32249 0.04832 0.28466 0.0
C292 C 0.37124 0.04532 0.32903 0.0
C293 C 0.31512 0.05806 0.31157 0.0
C294 C 0.35519 0.03715 0.27996 0.0
C295 C 0.37932 0.03452 0.30229 0.0
O296 O 0.26528 0.04315 0.38753 0.0
O297 O 0.32471 0.13665 0.3914 0.0
O298 O 0.33765 0.14117 0.43916 0.0
O299 O 0.35209 0.08713 0.42431 0.0
O300 O 0.28734 0.09754 0.35825 0.0
O301 O 0.30498 1.01229 0.39153 0.0
O302 O 0.41553 0.2594 0.38738 0.0
O303 O 0.39834 0.14389 0.39166 0.0
O304 O 0.3744 0.12844 0.34423 0.0
O305 O 0.38128 0.19577 0.35968 0.0
O306 O 0.44081 0.18359 0.42199 0.0
O307 O 0.44957 0.24978 0.42178 0.0
C308 C 0.29502 0.1308 0.3739 0.0
C309 C 0.22947 0.96654 0.378 0.0
C310 C 0.15057 0.91038 0.37336 0.0
C311 C 0.18495 0.94846 0.38654 0.0
C312 C 0.16202 0.89062 0.35176 0.0
C313 C 0.23946 0.94653 0.35603 0.0
C314 C 0.20591 0.90872 0.34314 0.0
C315 C 0.33511 0.10212 0.44275 0.0
C316 C 0.26503 1.00644 0.39194 0.0
C317 C 0.41097 0.02125 0.29865 0.0
C318 C 0.43327 1.0173 0.32166 0.0
C319 C 0.43272 0.15175 0.40509 0.0
C320 C 0.49364 0.30586 0.38916 0.0
C321 C 0.51985 0.35104 0.39668 0.0
C322 C 0.56021 0.37909 0.38286 0.0
C323 C 0.5736 0.36065 0.36153 0.0
C324 C 0.50804 0.28866 0.36789 0.0
C325 C 0.54778 0.31597 0.35419 0.0
C326 C 0.38301 0.16947 0.33982 0.0
C327 C 0.45081 0.27738 0.40308 0.0
H328 H 0.17719 0.96445 0.40316 0.0
H329 H 0.13709 0.86068 0.34163 0.0
H330 H 0.27323 0.96 0.34886 0.0
H331 H 0.21399 0.89319 0.32643 0.0
H332 H 0.50848 0.36434 0.41302 0.0
H333 H 0.60464 0.38055 0.3508 0.0
H334 H 0.48844 0.25415 0.36183 0.0
H335 H 0.55876 0.30239 0.33783 0.0
Eu336 Eu 0.84571 0.66713 0.10367 0.0
C337 C 0.70733 0.69159 0.17927 0.0
C338 C 0.63645 0.6454 0.15699 0.0
C339 C 0.63929 0.66489 0.20568 0.0
C340 C 0.68315 0.67011 0.1559 0.0
C341 C 0.68565 0.6905 0.20419 0.0
C342 C 0.61474 0.6421 0.18215 0.0
C343 C 0.75698 0.74271 0.22365 0.0
N344 N 0.752 0.71578 0.1772 0.0
C345 C 0.77702 0.74162 0.19881 0.0
C346 C 0.71111 0.71657 0.22651 0.0
Eu347 Eu 0.78377 0.71885 0.13345 0.0
N348 N 0.70517 0.67517 0.13178 0.0
C349 C 0.68212 0.6581 0.10763 0.0
C350 C 0.61292 0.62585 0.13258 0.0
C351 C 0.63587 0.63262 0.10774 0.0
H352 H 0.81249 0.76194 0.19681 0.0
H353 H 0.61796 0.61836 0.08863 0.0
H354 H 0.57892 0.6231 0.18342 0.0
H355 H 0.77695 0.76362 0.24061 0.0
H356 H 0.69898 0.66305 0.08814 0.0
H357 H 1.01297 0.73764 0.14614 0.0
H358 H 0.57706 0.60643 0.13257 0.0
H359 H 0.81206 0.64165 0.0373 0.0
H360 H 0.9317 0.70277 0.1478 0.0
H361 H 0.84471 0.65426 0.99053 0.0
H362 H 0.62209 0.66326 0.22474 0.0
H363 H 0.05171 0.75847 0.10106 0.0
H364 H 0.04707 0.75838 0.04915 0.0
H365 H 0.69565 0.71738 0.24582 0.0
H366 H 1.00114 0.73507 0.00692 0.0
N367 N 0.9242 0.70496 0.1041 0.0
C368 C 0.94811 0.71203 0.12797 0.0
C369 C 1.01596 0.74327 0.10164 0.0
C370 C 0.99121 0.7343 0.07719 0.0
C371 C 0.99422 0.73151 0.12712 0.0
C372 C 0.94468 0.71442 0.07908 0.0
H373 H 0.92606 0.69711 0.98485 0.0
N374 N 0.87416 0.67936 0.05786 0.0
C375 C 0.86595 0.66793 0.00853 0.0
C376 C 0.91893 0.70155 0.05525 0.0
C377 C 0.84759 0.6609 0.03506 0.0
C378 C 0.91186 0.69224 0.00541 0.0
C379 C 0.93899 0.70855 0.02893 0.0
O380 O 0.81949 0.5973 0.09304 0.0
O381 O 0.78007 0.6542 0.12092 0.0
O382 O 0.78983 0.67833 0.16786 0.0
O383 O 0.85076 0.67327 0.15166 0.0
O384 O 0.77903 0.62194 0.08455 0.0
O385 O 0.87198 0.62765 0.12308 0.0
O386 O 0.81119 0.78996 0.14115 0.0
O387 O 0.84911 0.7286 0.11931 0.0
O388 O 0.84306 0.71581 0.07226 0.0
O389 O 0.77694 0.70909 0.08705 0.0
O390 O 0.85074 0.76664 0.15263 0.0
O391 O 0.76199 0.75763 0.10923 0.0
C392 C 0.75452 0.62519 0.10336 0.0
C393 C 0.87007 0.57053 0.09439 0.0
C394 C 0.89105 0.51216 0.09275 0.0
C395 C 0.87397 0.53613 0.10739 0.0
C396 C 0.9041 0.5244 0.06492 0.0
C397 C 0.88498 0.58206 0.0671 0.0
C398 C 0.90184 0.55928 0.05259 0.0
C399 C 0.8233 0.67099 0.17177 0.0
C400 C 0.84766 0.59235 0.10823 0.0
C401 C 0.98531 0.7299 0.02695 0.0
C402 C 1.0114 0.74292 0.05101 0.0
C403 C 0.87479 0.75886 0.13588 0.0
C404 C 0.76522 0.82034 0.13175 0.0
C405 C 0.79002 0.86726 0.13326 0.0
C406 C 0.77015 0.89172 0.14281 0.0
C407 C 0.72502 0.86842 0.15008 0.0
C408 C 0.72047 0.79833 0.13951 0.0
C409 C 0.70054 0.82229 0.1484 0.0
C410 C 0.80855 0.72183 0.06844 0.0
C411 C 0.78635 0.79447 0.12286 0.0
H412 H 0.86316 0.5282 0.12865 0.0
H413 H 0.91509 0.50659 0.05187 0.0
H414 H 0.88238 0.60788 0.05656 0.0
H415 H 0.91219 0.56798 0.03126 0.0
H416 H 0.82478 0.88448 0.12771 0.0
H417 H 0.7085 0.88599 0.15712 0.0
H418 H 0.70087 0.76253 0.13876 0.0
H419 H 0.66594 0.80499 0.15423 0.0
Eu420 Eu 0.96834 0.2499 0.37201 0.0
C421 C 0.81052 0.11706 0.4466 0.0
C422 C 0.77301 0.04635 0.42259 0.0
C423 C 0.76971 0.04882 0.4728 0.0
C424 C 0.79985 0.09299 0.422 0.0
C425 C 0.79478 0.09514 0.47219 0.0
C426 C 0.75907 0.02443 0.44811 0.0
C427 C 0.82415 0.16647 0.49451 0.0
N428 N 0.83306 0.16192 0.44541 0.0
C429 C 0.83807 0.18669 0.46867 0.0
C430 C 0.80285 0.12047 0.49634 0.0
Eu431 Eu 0.85504 0.19373 0.40084 0.0
N432 N 0.81293 0.11511 0.39749 0.0
C433 C 0.797 0.09253 0.37302 0.0
C434 C 0.75917 0.02315 0.39749 0.0
C435 C 0.77064 0.04643 0.37264 0.0
H436 H 0.85383 0.22232 0.46734 0.0
H437 H 0.75924 0.02887 0.3531 0.0
H438 H 0.73862 0.9887 0.4489 0.0
H439 H 0.82938 0.18634 0.51294 0.0
H440 H 0.80491 0.10926 0.35343 0.0
H441 H 0.03757 0.42251 0.40521 0.0
H442 H 0.73861 0.98741 0.3971 0.0
H443 H 0.98189 0.21041 0.31154 0.0
H444 H 0.99943 0.34212 0.41091 0.0
H445 H 1.02051 0.23839 0.26729 0.0
H446 H 0.75686 0.03172 0.49222 0.0
H447 H 0.06763 0.45577 0.3595 0.0
H448 H 0.08313 0.44531 0.31011 0.0
H449 H 0.79143 0.10478 0.51635 0.0
H450 H 0.08007 0.39536 0.27292 0.0
N451 N 1.00487 0.32843 0.36836 0.0
C452 C 1.01164 0.3555 0.39066 0.0
C453 C 0.05024 0.4201 0.36175 0.0
C454 C 0.04585 0.39254 0.3394 0.0
C455 C 0.03348 0.40148 0.38758 0.0
C456 C 1.02258 0.34624 0.34339 0.0
H457 H 0.05936 0.31863 0.25752 0.0
N458 N 0.99809 0.27406 0.32709 0.0
C459 C 1.02036 0.26121 0.2825 0.0
C460 C 1.0198 0.31821 0.32224 0.0
C461 C 0.99816 0.24546 0.30766 0.0
C462 C 0.04219 0.3065 0.27705 0.0
C463 C 0.04168 0.3356 0.29686 0.0
O464 O 1.00836 0.21753 0.36985 0.0
O465 O 0.91226 0.18596 0.38885 0.0
O466 O 0.90692 0.20753 0.43569 0.0
O467 O 0.97129 0.26557 0.4174 0.0
O468 O 0.94518 0.18132 0.35443 0.0
O469 O 0.03042 0.27564 0.39539 0.0
O470 O 0.79069 0.18408 0.41504 0.0
O471 O 0.90974 0.25749 0.38462 0.0
O472 O 0.92237 0.24396 0.33704 0.0
O473 O 0.85595 0.18404 0.35333 0.0
O474 O 0.87802 0.26059 0.42019 0.0
O475 O 0.81567 0.21333 0.37535 0.0
C476 C 0.91443 0.15904 0.37209 0.0
C477 C 0.08545 0.2618 0.37638 0.0
C478 C 0.14887 0.24978 0.37183 0.0
C479 C 0.10573 0.23616 0.38162 0.0
C480 C 0.17141 0.28984 0.35711 0.0
C481 C 0.10861 0.30132 0.36145 0.0
C482 C 0.1514 0.31526 0.352 0.0
C483 C 0.94862 0.24067 0.43838 0.0
C484 C 0.0397 0.24618 0.38582 0.0
C485 C 0.06363 0.38149 0.29243 0.0
C486 C 0.06537 0.4099 0.31359 0.0
C487 C 0.90691 0.28398 0.4016 0.0
C488 C 0.73733 0.17022 0.3798 0.0
C489 C 0.70012 0.17219 0.38981 0.0
C490 C 0.65762 0.14616 0.37748 0.0
C491 C 0.6533 0.11759 0.35546 0.0
C492 C 0.73164 0.14214 0.35734 0.0
C493 C 0.68995 0.11582 0.34549 0.0
C494 C 0.88118 0.21108 0.33319 0.0
C495 C 0.78212 0.19805 0.39221 0.0
H496 H 0.08755 0.20525 0.39278 0.0
H497 H 0.20482 0.30182 0.34971 0.0
H498 H 0.09361 0.32136 0.35707 0.0
H499 H 0.16917 0.34592 0.3406 0.0
H500 H 0.70456 0.19458 0.40674 0.0
H501 H 0.62138 0.09615 0.34595 0.0
H502 H 0.75954 0.14077 0.34873 0.0
H503 H 0.68602 0.09396 0.32837 0.0
Eu504 Eu 0.09241 0.30364 0.63281 0.0
C505 C 0.25345 0.35048 0.56987 0.0
C506 C 0.29432 0.32496 0.59765 0.0
C507 C 0.29613 0.32107 0.5475 0.0
C508 C 0.26615 0.34326 0.59575 0.0
C509 C 0.26949 0.34054 0.54551 0.0
C510 C 0.30829 0.31303 0.57348 0.0
C511 C 0.23774 0.37604 0.5188 0.0
N512 N 0.22819 0.37002 0.56835 0.0
C513 C 0.22327 0.38582 0.5434 0.0
C514 C 0.26011 0.35237 0.51979 0.0
Eu515 Eu 0.20428 0.38506 0.61124 0.0
N516 N 0.25227 0.3552 0.61896 0.0
C517 C 0.26882 0.35294 0.64438 0.0
C518 C 0.30849 0.31991 0.62376 0.0
C519 C 0.29624 0.33461 0.64715 0.0
H520 H 0.20856 0.40662 0.54223 0.0
H521 H 0.30825 0.3322 0.66741 0.0
H522 H 0.32955 0.29866 0.57466 0.0
H523 H 0.23242 0.38759 0.49915 0.0
H524 H 0.26215 0.36553 0.66298 0.0
H525 H 1.01718 0.39134 0.58419 0.0
H526 H 0.32983 0.30579 0.62603 0.0
H527 H 0.06633 0.25112 0.69335 0.0
H528 H 0.0573 0.34977 0.58578 0.0
H529 H 1.02198 0.24434 0.73503 0.0
H530 H 0.30879 0.3136 0.52902 0.0
H531 H 0.98755 0.40489 0.62744 0.0
H532 H 0.97158 0.38933 0.67824 0.0
H533 H 0.27187 0.34532 0.5007 0.0
H534 H 0.97165 0.34786 0.71939 0.0
N535 N 0.05334 0.34276 0.62953 0.0
C536 C 0.04525 0.3562 0.60477 0.0
C537 C 1.00582 0.3873 0.62828 0.0
C538 C 1.01075 0.36986 0.65325 0.0
C539 C 1.02228 0.37953 0.60381 0.0
C540 C 0.03499 0.34736 0.6532 0.0
H541 H 0.98751 0.29114 0.73993 0.0
N542 N 0.05713 0.30134 0.67513 0.0
C543 C 1.02636 0.26779 0.71898 0.0
C544 C 0.03625 0.32529 0.67665 0.0
C545 C 0.05149 0.27179 0.69547 0.0
C546 C 1.00689 0.29422 0.72164 0.0
C547 C 1.0116 0.32337 0.70033 0.0
O548 O 0.05437 0.23167 0.63866 0.0
O549 O 0.15605 0.31297 0.61549 0.0
O550 O 0.15305 0.36731 0.575 0.0
O551 O 0.0993 0.29696 0.58719 0.0
O552 O 0.12851 0.26922 0.64856 0.0
O553 O 0.03128 0.26233 0.60962 0.0
O554 O 0.22913 0.44988 0.59212 0.0
O555 O 0.13611 0.37476 0.61858 0.0
O556 O 0.13055 0.33108 0.67276 0.0
O557 O 0.20429 0.37682 0.65875 0.0
O558 O 0.1877 0.42442 0.64103 0.0
O559 O 0.27248 0.43924 0.61888 0.0
C560 C 0.16022 0.28568 0.6306 0.0
C561 C 0.97705 0.19684 0.63152 0.0
C562 C 0.91278 0.12274 0.63778 0.0
C563 C 0.95612 0.15053 0.62782 0.0
C564 C 0.89068 0.14213 0.6511 0.0
C565 C 0.95416 0.21522 0.64483 0.0
C566 C 0.91123 0.18796 0.65452 0.0
C567 C 0.11726 0.32852 0.56878 0.0
C568 C 1.02278 0.22562 0.62172 0.0
C569 C 0.98999 0.34821 0.70116 0.0
C570 C 0.98991 0.37178 0.67771 0.0
C571 C 0.14686 0.40864 0.63382 0.0
C572 C 0.3072 0.49398 0.58328 0.0
C573 C 0.35188 0.51708 0.59301 0.0
C574 C 0.38706 0.54443 0.57481 0.0
C575 C 0.37644 0.54883 0.54724 0.0
C576 C 0.29859 0.49954 0.55553 0.0
C577 C 0.33287 0.52658 0.53778 0.0
C578 C 0.17336 0.35628 0.67804 0.0
C579 C 0.26921 0.46672 0.60216 0.0
H580 H 0.97378 0.13618 0.61768 0.0
H581 H 0.8572 0.12179 0.65869 0.0
H582 H 0.96937 0.25063 0.64765 0.0
H583 H 0.89378 0.20241 0.66474 0.0
H584 H 0.35916 0.51361 0.61439 0.0
H585 H 0.40206 0.57011 0.53282 0.0
H586 H 0.26512 0.4836 0.54746 0.0
H587 H 0.32557 0.53068 0.51652 0.0
Eu588 Eu 0.19705 0.84593 0.90495 0.0
C589 C 0.336 0.9784 0.81897 0.0
C590 C 0.40867 1.00948 0.83986 0.0
C591 C 0.39975 0.99485 0.79027 0.0
C592 C 0.36258 0.9925 0.84223 0.0
C593 C 0.35406 0.97867 0.79277 0.0
C594 C 0.4271 1.01069 0.81375 0.0
C595 C 0.28073 0.94836 0.77328 0.0
N596 N 0.2921 0.96325 0.82208 0.0
C597 C 0.26482 0.95083 0.79939 0.0
C598 C 0.32546 0.96174 0.77 0.0
Eu599 Eu 0.26439 0.95292 0.86808 0.0
N600 N 0.34322 0.98845 0.86727 0.0
C601 C 0.36873 1.00312 0.89072 0.0
C602 C 0.43471 0.02397 0.86386 0.0
C603 C 0.41464 0.02106 0.88938 0.0
H604 H 0.22995 0.93929 0.80166 0.0
H605 H 0.43446 0.03211 0.90812 0.0
H606 H 0.46234 0.02327 0.81156 0.0
H607 H 0.25824 0.93532 0.75582 0.0
H608 H 0.35417 1.00058 0.91074 0.0
H609 H 1.02515 0.77079 0.87007 0.0
H610 H 0.4702 0.03721 0.86295 0.0
H611 H 0.23409 0.85399 0.97043 0.0
H612 H 0.10536 0.79799 0.86549 0.0
H613 H 0.20785 0.85258 0.01827 0.0
H614 H 0.41423 0.99538 0.77029 0.0
H615 H 0.99455 0.77642 0.91522 0.0
H616 H 1.00719 0.79591 0.96602 0.0
H617 H 0.33763 0.9593 0.74978 0.0
H618 H 0.05738 0.81908 0.00639 0.0
N619 N 0.11986 0.81892 0.90755 0.0
C620 C 0.09218 0.8 0.88539 0.0
C621 C 0.02965 0.78798 0.91339 0.0
C622 C 0.0578 0.8048 0.93643 0.0
C623 C 0.04677 0.78464 0.88789 0.0
C624 C 0.10319 0.81927 0.9329 0.0
H625 H 0.13165 0.83828 0.02624 0.0
N626 N 0.17361 0.84142 0.95162 0.0
C627 C 0.18596 0.84669 1.00084 0.0
C628 C 0.13101 0.8311 0.95566 0.0
C629 C 0.20063 0.84723 0.97376 0.0
C630 C 0.14298 0.83877 0.00525 0.0
C631 C 0.11463 0.83004 0.98256 0.0
O632 O 0.20907 0.79383 0.92068 0.0
O633 O 0.26259 0.89324 0.88682 0.0
O634 O 0.25912 0.89702 0.84176 0.0
O635 O 0.19202 0.8378 0.85671 0.0
O636 O 0.2639 0.85987 0.92154 0.0
O637 O 0.1616 0.77876 0.88779 0.0
O638 O 0.24171 0.99788 0.85384 0.0
O639 O 0.19778 0.90368 0.885 0.0
O640 O 0.21085 0.9051 0.9334 0.0
O641 O 0.27682 0.95958 0.91449 0.0
O642 O 0.19781 0.93137 0.84732 0.0
O643 O 0.28416 1.01543 0.88991 0.0
C644 C 0.2883 0.88802 0.90299 0.0
C645 C 0.19763 0.73649 0.88903 0.0
C646 C 0.19393 0.66464 0.88167 0.0
C647 C 0.1794 0.69112 0.89549 0.0
C648 C 0.22689 0.68486 0.86122 0.0
C649 C 0.23039 0.7554 0.86861 0.0
C650 C 0.24476 0.72965 0.85478 0.0
C651 C 0.22334 0.85813 0.83749 0.0
C652 C 0.18184 0.76375 0.90325 0.0
C653 C 0.07029 0.81907 0.98596 0.0
C654 C 0.04179 0.80611 0.96296 0.0
C655 C 0.17289 0.90445 0.86618 0.0
C656 C 0.27901 0.07363 0.86744 0.0
C657 C 0.25596 0.09529 0.87622 0.0
C658 C 0.27167 0.1402 0.86962 0.0
C659 C 0.31122 0.16295 0.85434 0.0
C660 C 0.31816 0.0971 0.85224 0.0
C661 C 0.33416 0.14157 0.84582 0.0
C662 C 0.24763 0.94461 0.93477 0.0
C663 C 0.261 0.02636 0.87389 0.0
H664 H 0.15379 0.67656 0.91112 0.0
H665 H 0.23987 0.66639 0.85057 0.0
H666 H 0.24484 0.79009 0.86337 0.0
H667 H 0.27024 0.74461 0.83912 0.0
H668 H 0.22538 0.07686 0.88771 0.0
H669 H 0.32479 0.19755 0.84922 0.0
H670 H 0.33619 0.08097 0.84531 0.0
H671 H 0.36453 0.15961 0.83412 0.0
Eu672 Eu 0.71498 0.7707 0.64076 0.0
C673 C 0.71738 0.89998 0.5532 0.0
C674 C 0.75857 0.97429 0.57206 0.0
C675 C 0.76147 0.96198 0.52267 0.0
C676 C 0.73166 0.92821 0.57589 0.0
C677 C 0.73124 0.91676 0.52624 0.0
C678 C 0.77466 0.99086 0.54548 0.0
C679 C 0.68094 0.8438 0.5081 0.0
N680 N 0.68801 0.85643 0.55734 0.0
C681 C 0.66813 0.82869 0.53521 0.0
C682 C 0.71324 0.88785 0.50361 0.0
Eu683 Eu 0.67083 0.83303 0.60415 0.0
N684 N 0.71648 0.91106 0.60141 0.0
C685 C 0.72321 0.93848 0.62349 0.0
C686 C 0.76706 1.00244 0.59485 0.0
C687 C 0.74847 0.98446 0.62054 0.0
H688 H 0.64346 0.79446 0.5384 0.0
H689 H 0.75422 1.00594 0.63821 0.0
H690 H 0.79632 0.02603 0.54224 0.0
H691 H 0.66605 0.8214 0.49071 0.0
H692 H 0.70933 0.92483 0.64352 0.0
H693 H 0.62489 0.60592 0.59146 0.0
H694 H 0.78719 0.03803 0.59271 0.0
H695 H 0.74012 0.79526 0.70861 0.0
H696 H 0.67398 0.68568 0.59233 0.0
H697 H 0.71775 0.75749 0.75367 0.0
H698 H 0.77362 0.97508 0.5022 0.0
H699 H 0.59239 0.56525 0.63482 0.0
H700 H 0.58794 0.56605 0.68643 0.0
H701 H 0.72307 0.8995 0.48258 0.0
H702 H 0.61363 0.6069 0.73041 0.0
N703 N 0.66968 0.69248 0.63621 0.0
C704 C 0.66074 0.66948 0.61174 0.0
C705 C 0.61414 0.60082 0.63551 0.0
C706 C 0.62528 0.62388 0.6607 0.0
C707 C 0.63256 0.62363 0.61101 0.0
C708 C 0.65371 0.67031 0.66051 0.0
H709 H 0.66339 0.67742 0.75543 0.0
N710 N 0.6969 0.73769 0.68505 0.0
C711 C 0.70327 0.73919 0.73469 0.0
C712 C 0.66788 0.69343 0.68551 0.0
C713 C 0.71585 0.76046 0.70906 0.0
C714 C 0.67225 0.69412 0.73563 0.0
C715 C 0.65437 0.67059 0.71096 0.0
O716 O 0.75853 0.74414 0.65188 0.0
O717 O 0.73001 0.8375 0.62581 0.0
O718 O 0.72007 0.82514 0.57614 0.0
O719 O 0.71531 0.7612 0.59432 0.0
O720 O 0.75346 0.83441 0.66509 0.0
O721 O 0.78538 0.80525 0.62957 0.0
O722 O 0.63764 0.86939 0.61695 0.0
O723 O 0.65399 0.76768 0.62292 0.0
O724 O 0.66971 0.77931 0.67068 0.0
O725 O 0.66714 0.83954 0.65158 0.0
O726 O 0.62524 0.76544 0.58535 0.0
O727 O 0.60209 0.81149 0.59148 0.0
C728 C 0.75286 0.86055 0.64641 0.0
C729 C 0.82599 0.76776 0.62671 0.0
C730 C 0.90314 0.7857 0.61924 0.0
C731 C 0.87149 0.79213 0.63377 0.0
C732 C 0.88816 0.75441 0.5975 0.0
C733 C 0.81213 0.73645 0.60526 0.0
C734 C 0.84311 0.73002 0.59068 0.0
C735 C 0.72658 0.79065 0.57431 0.0
C736 C 0.79403 0.77698 0.6412 0.0
C737 C 0.62466 0.62483 0.71105 0.0
C738 C 0.61003 0.60157 0.686 0.0
C739 C 0.62743 0.74139 0.60479 0.0
C740 C 0.55972 0.83179 0.62097 0.0
C741 C 0.53305 0.85056 0.6142 0.0
C742 C 0.4954 0.84162 0.63038 0.0
C743 C 0.48547 0.81355 0.65345 0.0
C744 C 0.54876 0.80416 0.64411 0.0
C745 C 0.5119 0.79515 0.66019 0.0
C746 C 0.66119 0.81221 0.67245 0.0
C747 C 0.60023 0.84316 0.60477 0.0
H748 H 0.88227 0.81653 0.6503 0.0
H749 H 0.91119 0.74806 0.5861 0.0
H750 H 0.77741 0.7171 0.59981 0.0
H751 H 0.83213 0.70584 0.57405 0.0
H752 H 0.54204 0.8725 0.59655 0.0
H753 H 0.45658 0.80484 0.66605 0.0
H754 H 0.56892 0.78982 0.64986 0.0
H755 H 0.50362 0.77359 0.67796 0.0
Eu756 Eu 0.21411 0.38975 0.91017 0.0
C757 C 0.0764 0.35384 0.82136 0.0
C758 C 0.05206 0.40554 0.83394 0.0
C759 C 0.06085 0.39278 0.78533 0.0
C760 C 0.067 0.37619 0.84155 0.0
C761 C 0.0728 0.36136 0.79306 0.0
C762 C 0.0501 0.41455 0.80575 0.0
C763 C 0.0864 0.30152 0.78213 0.0
N764 N 0.08753 0.32345 0.82944 0.0
C765 C 0.08865 0.29462 0.81048 0.0
C766 C 0.08051 0.33641 0.77341 0.0
Eu767 Eu 0.1041 0.32428 0.87734 0.0
N768 N 0.07025 0.3675 0.8686 0.0
C769 C 0.05474 0.38348 0.88898 0.0
C770 C 0.03868 0.42419 0.85487 0.0
C771 C 0.03916 0.41237 0.88245 0.0
H772 H 0.09558 0.26914 0.8172 0.0
H773 H 0.02805 0.42592 0.89875 0.0
H774 H 0.03943 0.43758 0.79951 0.0
H775 H 0.09045 0.28077 0.76706 0.0
H776 H 0.05548 0.37528 0.91043 0.0
H777 H 0.3104 0.31145 0.8816 0.0
H778 H 0.02697 0.44688 0.8499 0.0
H779 H 0.20414 0.42464 0.97399 0.0
H780 H 0.27153 0.3536 0.87393 0.0
H781 H 0.21462 0.41144 0.02296 0.0
H782 H 0.05832 0.39931 0.76364 0.0
H783 H 0.31354 0.28509 0.92866 0.0
H784 H 0.29813 0.28459 0.97962 0.0
H785 H 0.08103 0.34327 0.75153 0.0
H786 H 0.2723 0.31219 0.01821 0.0
N787 N 0.25188 0.34975 0.91598 0.0
C788 C 0.27273 0.34208 0.89452 0.0
C789 C 0.29651 0.30354 0.9254 0.0
C790 C 0.27783 0.31435 0.94764 0.0
C791 C 0.29489 0.31844 0.89881 0.0
C792 C 0.25606 0.33849 0.94225 0.0
H793 H 0.24224 0.36046 0.03458 0.0
N794 N 0.22431 0.38048 0.958 0.0
C795 C 0.22214 0.39495 0.00658 0.0
C796 C 0.24191 0.35439 0.96395 0.0
C797 C 0.21636 0.40244 0.97881 0.0
C798 C 0.23761 0.36605 0.01305 0.0
C799 C 0.24856 0.34604 0.99164 0.0
O800 O 0.25162 0.46233 0.91184 0.0
O801 O 0.15849 0.39301 0.88932 0.0
O802 O 0.15214 0.35167 0.84199 0.0
O803 O 0.22299 0.38964 0.86209 0.0
O804 O 0.18438 0.43077 0.92485 0.0
O805 O 0.28611 0.42773 0.9024 0.0
O806 O 0.06443 0.25386 0.86776 0.0
O807 O 0.16984 0.32869 0.88647 0.0
O808 O 0.15972 0.34483 0.94208 0.0
O809 O 0.09721 0.33975 0.92168 0.0
O810 O 0.11554 0.2687 0.89221 0.0
O811 O 0.03694 0.28533 0.89383 0.0
C812 C 0.15694 0.42209 0.90455 0.0
C813 C 0.3266 0.49605 0.92669 0.0
C814 C 0.40532 0.5491 0.93633 0.0
C815 C 0.3713 0.52069 0.91764 0.0
C816 C 0.39349 0.55281 0.96374 0.0
C817 C 0.31653 0.50074 0.95423 0.0
C818 C 0.34968 0.52886 0.97253 0.0
C819 C 0.19563 0.37554 0.84017 0.0
C820 C 0.29017 0.46607 0.90763 0.0
C821 C 0.26745 0.31944 0.99707 0.0
C822 C 0.2821 0.30366 0.9751 0.0
C823 C 0.15781 0.28955 0.89363 0.0
C824 C 0.98636 0.21789 0.87069 0.0
C825 C 0.96528 0.17292 0.87823 0.0
C826 C 0.92332 0.14219 0.86732 0.0
C827 C 0.90291 0.15766 0.84874 0.0
C828 C 0.96561 0.23239 0.85199 0.0
C829 C 0.92398 0.20231 0.84115 0.0
C830 C 0.11747 0.33511 0.9433 0.0
C831 C 0.03045 0.24851 0.8822 0.0
H832 H 0.37952 0.51741 0.89643 0.0
H833 H 0.41826 0.57486 0.97849 0.0
H834 H 0.2828 0.48306 0.96161 0.0
H835 H 0.34132 0.53233 0.99366 0.0
H836 H 0.982 0.16184 0.89229 0.0
H837 H 0.87035 0.13539 0.84029 0.0
H838 H 0.98159 0.26681 0.8458 0.0
H839 H 0.90788 0.21364 0.82681 0.0
Eu840 Eu 0.25772 0.94961 0.63566 0.0
C841 C 0.13508 0.80051 0.5553 0.0
C842 C 0.06092 0.76684 0.57417 0.0
C843 C 0.07136 0.76542 0.52446 0.0
C844 C 0.10732 0.79075 0.57787 0.0
C845 C 0.11734 0.78691 0.52841 0.0
C846 C 0.04312 0.75553 0.54728 0.0
C847 C 0.19091 0.80883 0.51208 0.0
N848 N 0.17905 0.81813 0.56011 0.0
C849 C 0.20667 0.8203 0.53925 0.0
C850 C 0.14608 0.79259 0.50655 0.0
Eu851 Eu 0.204 0.83706 0.60659 0.0
N852 N 0.12561 0.80035 0.60363 0.0
C853 C 0.09932 0.78435 0.62655 0.0
C854 C 0.03382 0.75275 0.59765 0.0
C855 C 0.05316 0.76098 0.62395 0.0
H856 H 0.24124 0.83211 0.54352 0.0
H857 H 0.03254 0.74937 0.64225 0.0
H858 H 1.00759 0.73728 0.54405 0.0
H859 H 0.21321 0.81195 0.49551 0.0
H860 H 0.11374 0.79019 0.64702 0.0
H861 H 0.42546 1.01124 0.59266 0.0
H862 H 0.99805 0.73439 0.59569 0.0
H863 H 0.22863 0.96827 0.6978 0.0
H864 H 0.34535 0.97504 0.59055 0.0
H865 H 0.26486 1.01295 0.73965 0.0
H866 H 0.05746 0.75422 0.504 0.0
H867 H 0.46511 0.04366 0.63656 0.0
H868 H 0.46244 0.06323 0.686 0.0
H869 H 0.1337 0.78273 0.48558 0.0
H870 H 0.41922 0.06542 0.72556 0.0
N871 N 0.33681 0.98412 0.63372 0.0
C872 C 0.36085 0.98855 0.61023 0.0
C873 C 0.42925 0.02717 0.63603 0.0
C874 C 0.40513 0.02517 0.65963 0.0
C875 C 0.40702 1.00914 0.6112 0.0
C876 C 0.35833 1.00287 0.65798 0.0
H877 H 0.34626 0.0501 0.74468 0.0
N878 N 0.28909 0.98106 0.67905 0.0
C879 C 0.28461 1.0097 0.7235 0.0
C880 C 0.33394 1.00229 0.68095 0.0
C881 C 0.26419 0.98405 0.69997 0.0
C882 C 0.33056 0.0307 0.72621 0.0
C883 C 0.35576 0.02651 0.70509 0.0
O884 O 0.27031 1.01596 0.64664 0.0
O885 O 0.19505 0.8935 0.61902 0.0
O886 O 0.21583 0.88718 0.57157 0.0
O887 O 0.27201 0.95404 0.58986 0.0
O888 O 0.18833 0.92473 0.65358 0.0
O889 O 0.23282 0.98424 0.60989 0.0
O890 O 0.22318 0.78771 0.59557 0.0
O891 O 0.26647 0.89068 0.62659 0.0
O892 O 0.24403 0.90494 0.67259 0.0
O893 O 0.19372 0.83511 0.65425 0.0
O894 O 0.27335 0.86005 0.59178 0.0
O895 O 0.18081 0.77604 0.63057 0.0
C896 C 0.16693 0.89438 0.63514 0.0
C897 C 0.26791 0.06272 0.61227 0.0
C898 C 0.26749 0.13219 0.60716 0.0
C899 C 0.25108 0.09047 0.61957 0.0
C900 C 0.30092 0.14571 0.58707 0.0
C901 C 0.30214 0.07713 0.59278 0.0
C902 C 0.31832 0.11842 0.5801 0.0
C903 C 0.24729 0.92953 0.56898 0.0
C904 C 0.24898 0.01921 0.62563 0.0
C905 C 0.40205 0.04742 0.70697 0.0
C906 C 0.42663 0.04623 0.68442 0.0
C907 C 0.29475 0.88848 0.61106 0.0
C908 C 0.16889 0.71293 0.60496 0.0
C909 C 0.17156 0.67679 0.61612 0.0
C910 C 0.14204 0.63284 0.60692 0.0
C911 C 0.10935 0.62606 0.58721 0.0
C912 C 0.13668 0.70454 0.58478 0.0
C913 C 0.10697 0.6616 0.57618 0.0
C914 C 0.21514 0.8623 0.67538 0.0
C915 C 0.19863 0.75928 0.6144 0.0
H916 H 0.22483 0.07936 0.63482 0.0
H917 H 0.31418 0.17771 0.57723 0.0
H918 H 0.31598 0.05641 0.58724 0.0
H919 H 0.34443 0.12931 0.56483 0.0
H920 H 0.19679 0.68293 0.63143 0.0
H921 H 0.08527 0.59304 0.58028 0.0
H922 H 0.13433 0.7312 0.57564 0.0
H923 H 0.08193 0.65584 0.56082 0.0
Eu924 Eu 0.6703 0.84205 0.90042 0.0
C925 C 0.66081 0.68784 0.86446 0.0
C926 C 0.66428 0.64786 0.90434 0.0
C927 C 0.60731 0.60933 0.86942 0.0
C928 C 0.67976 0.68774 0.88949 0.0
C929 C 0.62531 0.64824 0.85364 0.0
C930 C 0.62686 0.60911 0.89476 0.0
C931 C 0.63207 0.68695 0.81108 0.0
N932 N 0.6791 0.72602 0.84981 0.0
C933 C 0.66768 0.72504 0.82261 0.0
C934 C 0.61 0.64864 0.82692 0.0
Eu935 Eu 0.73303 0.79196 0.87283 0.0
N936 N 0.71586 0.72578 0.89799 0.0
C937 C 0.74227 0.72387 0.9184 0.0
C938 C 0.6881 0.64765 0.92762 0.0
C939 C 0.7281 0.68554 0.93414 0.0
H940 H 0.68589 0.75341 0.80948 0.0
H941 H 0.74841 0.68509 0.951 0.0
H942 H 0.61391 0.57845 0.9062 0.0
H943 H 0.62168 0.68719 0.78998 0.0
H944 H 0.77456 0.75192 0.92268 0.0
H945 H 0.71435 0.97106 0.82255 0.0
H946 H 0.67734 0.61779 0.93961 0.0
H947 H 0.67547 0.85676 0.97035 0.0
H948 H 0.67819 0.8958 0.84075 0.0
H949 H 0.71573 0.91583 0.00468 0.0
H950 H 0.57947 0.57887 0.86171 0.0
H951 H 0.7608 0.03451 0.85331 0.0
H952 H 0.79116 0.06243 0.9008 0.0
H953 H 0.58263 0.61911 0.8179 0.0
H954 H 0.79321 0.04709 0.95034 0.0
N955 N 0.70698 0.91453 0.88105 0.0
C956 C 0.70007 0.9223 0.85422 0.0
C957 C 0.74564 1.00112 0.86135 0.0
C958 C 0.75064 0.99336 0.88917 0.0
C959 C 0.7197 0.96542 0.8439 0.0
C960 C 0.73007 0.94917 0.89866 0.0
H961 H 0.76497 0.99261 0.98924 0.0
N962 N 0.70647 0.89807 0.93528 0.0
C963 C 0.72095 0.9232 0.98276 0.0
C964 C 0.73063 0.94057 0.92653 0.0
C965 C 0.69888 0.88961 0.9631 0.0
C966 C 0.7487 0.96647 0.97397 0.0
C967 C 0.75261 0.97591 0.94563 0.0
O968 O 0.62063 0.84903 0.92479 0.0
O969 O 0.6644 0.77804 0.88518 0.0
O970 O 0.71066 0.81843 0.83694 0.0
O971 O 0.64994 0.82056 0.85537 0.0
O972 O 0.63667 0.77734 0.92336 0.0
O973 O 0.60887 0.83343 0.88178 0.0
O974 O 0.77127 0.80598 0.83433 0.0
O975 O 0.73242 0.85592 0.87849 0.0
O976 O 0.69981 0.82285 0.9373 0.0
O977 O 0.74934 0.8035 0.91832 0.0
O978 O 0.78876 0.85572 0.89128 0.0
O979 O 0.78992 0.78134 0.86931 0.0
C980 C 0.64067 0.75283 0.90468 0.0
C981 C 0.58068 0.87735 0.90049 0.0
C982 C 0.52305 0.89839 0.89803 0.0
C983 C 0.53575 0.86618 0.90303 0.0
C984 C 0.55558 0.94138 0.89051 0.0
C985 C 0.61228 0.92113 0.89398 0.0
C986 C 0.59986 0.95268 0.88876 0.0
C987 C 0.67352 0.81968 0.83411 0.0
C988 C 0.59486 0.84378 0.90394 0.0
C989 C 0.77572 0.01968 0.93601 0.0
C990 C 0.77444 0.02841 0.90785 0.0
C991 C 0.7711 0.88025 0.88804 0.0
C992 C 0.84865 0.83641 0.84302 0.0
C993 C 0.88495 0.82924 0.84669 0.0
C994 C 0.92887 0.86552 0.84731 0.0
C995 C 0.93593 0.90857 0.84426 0.0
C996 C 0.85724 0.8799 0.83914 0.0
C997 C 0.90038 0.91562 0.84002 0.0
C998 C 0.73091 0.81156 0.93965 0.0
C999 C 0.80191 0.7996 0.84512 0.0
H1000 H 0.51091 0.83278 0.90865 0.0
H1001 H 0.54686 0.96672 0.88682 0.0
H1002 H 0.64671 0.93123 0.89297 0.0
H1003 H 0.62481 0.9862 0.88355 0.0
H1004 H 0.8791 0.7959 0.84937 0.0
H1005 H 0.96924 0.93681 0.84452 0.0
H1006 H 0.83041 0.88633 0.83569 0.0
H1007 H 0.90628 0.94894 0.83732 0.0
H1008 H 0.12945 0.14815 0.08861 0.0
H1009 H 0.13194 0.19821 0.17103 0.0
H1010 H 0.19718 0.19219 0.18234 0.0
H1011 H 0.2519 0.16905 0.16939 0.0
H1012 H 0.24461 0.11461 0.08785 0.0
H1013 H 0.18164 0.1239 0.07618 0.0
C1014 C 0.14361 0.15717 0.10926 0.0
C1015 C 0.12505 0.17314 0.12897 0.0
C1016 C 0.18008 0.15218 0.11596 0.0
C1017 C 0.14539 0.18613 0.15525 0.0
C1018 C 0.18252 0.18222 0.16188 0.0
C1019 C 0.23645 0.15947 0.14909 0.0
C1020 C 0.25357 0.14238 0.12921 0.0
C1021 C 0.19987 0.16475 0.14251 0.0
C1022 C 0.23279 0.12904 0.10318 0.0
C1023 C 0.19664 0.13413 0.09655 0.0
H1024 H 0.07691 0.87229 0.34024 0.0
H1025 H 0.11639 0.9034 0.426 0.0
H1026 H 0.03859 0.86443 0.44004 0.0
H1027 H 0.95902 0.81415 0.42829 0.0
H1028 H 0.92196 0.7785 0.34275 0.0
H1029 H 0.99863 0.82623 0.32838 0.0
C1030 C 0.06876 0.87048 0.36207 0.0
C1031 C 0.10298 0.89042 0.38198 0.0
C1032 C 1.02402 0.84679 0.37009 0.0
C1033 C 0.09113 0.88874 0.41007 0.0
C1034 C 0.04648 0.86618 0.41817 0.0
C1035 C 0.96793 0.81718 0.40654 0.0
C1036 C 0.93526 0.79163 0.38666 0.0
C1037 C 1.01262 0.844 0.39844 0.0
C1038 C 0.94681 0.79666 0.35848 0.0
C1039 C 0.99063 0.82416 0.35024 0.0
H1040 H 0.84681 0.09398 0.17445 0.0
H1041 H 0.90039 0.1124 0.09203 0.0
H1042 H 0.87144 0.03251 0.08746 0.0
H1043 H 0.8259 0.95603 0.10592 0.0
H1044 H 0.77093 0.93875 0.18808 0.0
H1045 H 0.80451 0.01869 0.19354 0.0
C1046 C 0.85194 0.08036 0.15547 0.0
C1047 C 0.87465 0.10891 0.13334 0.0
C1048 C 0.83456 0.03426 0.15286 0.0
C1049 C 0.88216 0.09103 0.10914 0.0
C1050 C 0.86573 0.04529 0.10658 0.0
C1051 C 0.82194 0.96984 0.12517 0.0
C1052 C 0.79557 0.9411 0.14649 0.0
C1053 C 0.84116 1.01633 0.12814 0.0
C1054 C 0.79052 0.95982 0.17119 0.0
C1055 C 0.80981 1.00567 0.17438 0.0
H1056 H 0.24298 0.14279 0.41158 0.0
H1057 H 0.28855 0.16813 0.32706 0.0
H1058 H 0.24563 0.20483 0.31839 0.0
H1059 H 0.19697 0.2317 0.33503 0.0
H1060 H 0.14999 0.20675 0.41938 0.0
H1061 H 0.19038 0.16707 0.42777 0.0
C1062 C 0.2437 0.15684 0.39143 0.0
C1063 C 0.27083 0.15515 0.37035 0.0
C1064 C 0.21788 0.17709 0.38641 0.0
C1065 C 0.26973 0.17122 0.3439 0.0
C1066 C 0.24477 0.19171 0.33887 0.0
C1067 C 0.19559 0.21772 0.35531 0.0
C1068 C 0.17073 0.2227 0.37659 0.0
C1069 C 0.21917 0.19534 0.36003 0.0
C1070 C 0.16858 0.2033 0.40253 0.0
C1071 C 0.19184 0.1807 0.40738 0.0
H1072 H 0.07714 0.86227 0.16813 0.0
H1073 H 0.09318 0.88137 0.07983 0.0
H1074 H 1.01224 0.84032 0.07358 0.0
H1075 H 0.93617 0.79587 0.09371 0.0
H1076 H 0.92271 0.78296 0.18249 0.0
H1077 H 1.00285 0.82424 0.18816 0.0
C1078 C 0.06285 0.8576 0.14753 0.0
C1079 C 0.09097 0.87448 0.12448 0.0
C1080 C 1.0166 0.83452 0.14421 0.0
C1081 C 0.07211 0.86878 0.09791 0.0
C1082 C 1.02586 0.84525 0.09435 0.0
C1083 C 0.95105 0.80173 0.11417 0.0
C1084 C 0.92374 0.7835 0.13762 0.0
C1085 C 0.99765 0.82736 0.11736 0.0
C1086 C 0.94318 0.79385 0.16411 0.0
C1087 C 0.98902 0.81813 0.1674 0.0
H1088 H 0.82453 0.95098 0.38867 0.0
H1089 H 0.81848 0.95605 0.29945 0.0
H1090 H 0.85455 0.03656 0.30129 0.0
H1091 H 0.88766 0.10564 0.32783 0.0
H1092 H 0.89217 0.10306 0.41697 0.0
H1093 H 0.85767 0.0218 0.41574 0.0
C1094 C 0.83144 0.96984 0.36968 0.0
C1095 C 0.81869 0.94738 0.34392 0.0
C1096 C 0.85189 1.01656 0.37091 0.0
C1097 C 0.82751 0.97233 0.31951 0.0
C1098 C 0.84829 0.01843 0.32053 0.0
C1099 C 0.88053 0.08719 0.34701 0.0
C1100 C 0.89095 0.11002 0.37248 0.0
C1101 C 0.86037 0.04084 0.34605 0.0
C1102 C 0.88309 0.08598 0.39717 0.0
C1103 C 0.86372 0.03961 0.3964 0.0
H1104 H 0.23766 0.17503 0.57393 0.0
H1105 H 0.25808 0.15494 0.65966 0.0
H1106 H 0.22749 0.20131 0.67444 0.0
H1107 H 0.19371 0.2467 0.66309 0.0
H1108 H 0.16985 0.26411 0.57764 0.0
H1109 H 0.20252 0.21953 0.56258 0.0
C1110 C 0.23559 0.18108 0.59582 0.0
C1111 C 0.25004 0.16157 0.61569 0.0
C1112 C 0.21717 0.20714 0.60419 0.0
C1113 C 0.24682 0.16931 0.644 0.0
C1114 C 0.22939 0.19584 0.65246 0.0
C1115 C 0.19596 0.24082 0.6412 0.0
C1116 C 0.18096 0.25981 0.62144 0.0
C1117 C 0.21422 0.21471 0.63278 0.0
C1118 C 0.18261 0.25094 0.59315 0.0
C1119 C 0.201 0.22525 0.58456 0.0
H1120 H 0.10862 0.86802 0.82715 0.0
H1121 H 0.13311 0.91774 0.91104 0.0
H1122 H 0.058 0.90698 0.91361 0.0
H1123 H 0.98688 0.8881 0.89051 0.0
H1124 H 0.96092 0.83356 0.80782 0.0
H1125 H 0.03437 0.8403 0.80637 0.0
C1126 C 0.09716 0.8759 0.84609 0.0
C1127 C 0.12607 0.8932 0.86899 0.0
C1128 C 0.05356 0.8685 0.84761 0.0
C1129 C 0.11117 0.90375 0.89334 0.0
C1130 C 0.0683 0.89774 0.89474 0.0
C1131 C 0.99699 0.87663 0.87251 0.0
C1132 C 0.96844 0.85998 0.84935 0.0
C1133 C 0.03932 0.88056 0.8719 0.0
C1134 C 0.98204 0.84577 0.826 0.0
C1135 C 1.02423 0.85014 0.82507 0.0
H1136 H 0.80573 0.91842 0.60562 0.0
H1137 H 0.7736 0.90987 0.69247 0.0
H1138 H 0.82172 0.98939 0.69789 0.0
H1139 H 0.86951 0.06206 0.6777 0.0
H1140 H 0.90531 0.07304 0.59141 0.0
H1141 H 0.86071 0.99223 0.58612 0.0
C1142 C 0.80915 0.93425 0.62559 0.0
C1143 C 0.78345 0.90892 0.64821 0.0
C1144 C 0.83832 0.98034 0.62877 0.0
C1145 C 0.79038 0.92921 0.67436 0.0
C1146 C 0.81852 0.97461 0.67759 0.0
C1147 C 0.86767 0.04679 0.65773 0.0
C1148 C 0.89017 0.07358 0.63491 0.0
C1149 C 0.84182 1.00064 0.65485 0.0
C1150 C 0.88834 0.05316 0.60933 0.0
C1151 C 0.86272 1.00694 0.60629 0.0
H1152 H 0.16979 0.23069 0.92471 0.0
H1153 H 0.19561 0.29188 0.84446 0.0
H1154 H 0.23131 0.25032 0.82946 0.0
H1155 H 0.25649 0.19746 0.83938 0.0
H1156 H 0.23185 0.13581 0.91975 0.0
H1157 H 0.19461 0.17625 0.93451 0.0
C1158 C 0.18355 0.23498 0.90404 0.0
C1159 C 0.18128 0.26537 0.88586 0.0
C1160 C 0.20421 0.21072 0.89561 0.0
C1161 C 0.19797 0.2696 0.85888 0.0
C1162 C 0.21826 0.24568 0.85034 0.0
C1163 C 0.24321 0.19294 0.8602 0.0
C1164 C 0.24727 0.16357 0.87839 0.0
C1165 C 0.22192 0.2164 0.86857 0.0
C1166 C 0.22896 0.15776 0.90513 0.0
C1167 C 0.20781 0.18111 0.91366 0.0
H1168 H 0.09716 0.86877 0.67041 0.0
H1169 H 0.13162 0.88818 0.58378 0.0
H1170 H 0.05385 0.85947 0.57128 0.0
H1171 H 0.97516 0.82345 0.58469 0.0
H1172 H 0.94008 0.8031 0.67132 0.0
H1173 H 1.01841 0.83732 0.68403 0.0
C1174 C 0.08752 0.86682 0.64883 0.0
C1175 C 0.11988 0.87911 0.62798 0.0
C1176 C 0.04245 0.8498 0.64177 0.0
C1177 C 0.10717 0.87764 0.60015 0.0
C1178 C 0.06269 0.86141 0.593 0.0
C1179 C 0.98459 0.82662 0.60638 0.0
C1180 C 0.9514 0.8103 0.62698 0.0
C1181 C 0.02984 0.8463 0.61357 0.0
C1182 C 0.96463 0.81548 0.65498 0.0
C1183 C 1.00954 0.8349 0.66229 0.0
H1184 H 0.8745 0.06985 0.83428 0.0
H1185 H 0.9211 0.10637 0.91849 0.0
H1186 H 0.88153 0.02845 0.9319 0.0
H1187 H 0.82929 0.94956 0.92032 0.0
H1188 H 0.77839 0.91507 0.83698 0.0
H1189 H 0.82445 0.99195 0.82254 0.0
C1190 C 0.87595 0.06094 0.85562 0.0
C1191 C 0.90072 0.09432 0.8753 0.0
C1192 C 0.85242 1.0161 0.86334 0.0
C1193 C 0.90278 0.08164 0.90274 0.0
C1194 C 0.87995 0.03697 0.91049 0.0
C1195 C 0.8285 0.95911 0.89904 0.0
C1196 C 0.79979 0.92704 0.87987 0.0
C1197 C 0.85408 1.00389 0.89108 0.0
C1198 C 0.7995 0.93947 0.85223 0.0
C1199 C 0.82599 0.98338 0.84394 0.0
H1200 H 0.41856 0.14137 0.30075 0.0
H1201 H 0.36316 0.22664 0.31135 0.0
H1202 H 0.35941 0.23226 0.26061 0.0
H1203 H 0.36355 0.20475 0.21299 0.0
H1204 H 0.41499 0.11545 0.20496 0.0
H1205 H 0.42858 0.11969 0.25465 0.0
C1206 C 0.40613 0.16176 0.29208 0.0
C1207 C 0.39038 0.18287 0.30999 0.0
C1208 C 0.4028 0.16357 0.26312 0.0
C1209 C 0.37531 0.2098 0.2982 0.0
C1210 C 0.37278 0.21264 0.26911 0.0
C1211 C 0.37842 0.1869 0.22214 0.0
C1212 C 0.38812 0.15967 0.20513 0.0
C1213 C 0.3851 0.18843 0.2513 0.0
C1214 C 0.40689 0.13635 0.21743 0.0
C1215 C 0.41468 0.13872 0.24593 0.0
H1216 H 0.8925 0.70809 0.2948 0.0
H1217 H 0.75947 0.60288 0.31027 0.0
H1218 H 0.74465 0.59235 0.26054 0.0
H1219 H 0.76726 0.61982 0.21257 0.0
H1220 H 0.90447 0.71309 0.19641 0.0
H1221 H 0.92033 0.72169 0.24624 0.0
C1222 C 0.86072 0.68205 0.2872 0.0
C1223 C 0.82676 0.65691 0.30618 0.0
C1224 C 0.85309 0.67472 0.25842 0.0
C1225 C 0.78597 0.62288 0.29615 0.0
C1226 C 0.77742 0.61696 0.26763 0.0
C1227 C 0.80082 0.64122 0.21998 0.0
C1228 C 0.83436 0.66724 0.20095 0.0
C1229 C 0.81029 0.64374 0.24857 0.0
C1230 C 0.87786 0.69398 0.21072 0.0
C1231 C 0.88696 0.69871 0.23922 0.0
H1232 H 0.83401 0.1518 0.20812 0.0
H1233 H 0.87134 0.28917 0.20041 0.0
H1234 H 0.87644 0.29788 0.2507 0.0
H1235 H 0.88278 0.26992 0.29622 0.0
H1236 H 0.84233 0.1321 0.30532 0.0
H1237 H 0.82639 0.12 0.25545 0.0
C1238 C 0.84123 0.18298 0.21758 0.0
C1239 C 0.85199 0.21974 0.20058 0.0
C1240 C 0.84508 0.18807 0.24678 0.0
C1241 C 0.86233 0.26029 0.21309 0.0
C1242 C 0.86586 0.26547 0.24187 0.0
C1243 C 0.86957 0.23706 0.28732 0.0
C1244 C 0.86438 0.2021 0.30426 0.0
C1245 C 0.85941 0.2302 0.25882 0.0
C1246 C 0.84685 0.15958 0.29263 0.0
C1247 C 0.83777 0.15269 0.26409 0.0
H1248 H 0.21676 0.42699 0.71433 0.0
H1249 H 0.1587 0.28542 0.70735 0.0
H1250 H 0.16967 0.28036 0.75684 0.0
H1251 H 0.18462 0.3139 0.80267 0.0
H1252 H 0.23813 0.4542 0.81215 0.0
H1253 H 0.24061 0.46242 0.7614 0.0
C1254 C 0.2075 0.39532 0.72368 0.0
C1255 C 0.18689 0.35653 0.70725 0.0
C1256 C 0.21285 0.39246 0.75265 0.0
C1257 C 0.17448 0.31561 0.7196 0.0
C1258 C 0.18079 0.3127 0.7479 0.0
C1259 C 0.19893 0.34661 0.79373 0.0
C1260 C 0.21235 0.38352 0.81126 0.0
C1261 C 0.19858 0.35061 0.76475 0.0
C1262 C 0.2289 0.42544 0.79916 0.0
C1263 C 0.22952 0.42995 0.7701 0.0
H1264 H 0.15532 0.83418 0.80034 0.0
H1265 H 0.28416 0.84711 0.80999 0.0
H1266 H 0.29141 0.84476 0.75979 0.0
H1267 H 0.2669 0.85222 0.71316 0.0
H1268 H 0.13826 0.83901 0.70251 0.0
H1269 H 0.12501 0.82842 0.75267 0.0
C1270 C 0.18394 0.83431 0.79143 0.0
C1271 C 0.21896 0.8403 0.80893 0.0
C1272 C 0.18843 0.83411 0.76221 0.0
C1273 C 0.25652 0.84186 0.79701 0.0
C1274 C 0.26093 0.84105 0.76823 0.0
C1275 C 0.23542 0.84555 0.72179 0.0
C1276 C 0.20346 0.84609 0.70424 0.0
C1277 C 0.22801 0.83918 0.7506 0.0
C1278 C 0.16308 0.83818 0.71563 0.0
C1279 C 0.15565 0.83238 0.74435 0.0
H1280 H 0.60855 0.75751 0.71315 0.0
H1281 H 0.70102 0.89434 0.69563 0.0
H1282 H 0.71366 0.91054 0.74537 0.0
H1283 H 0.70638 0.88196 0.79351 0.0
H1284 H 0.60128 0.74993 0.81138 0.0
H1285 H 0.58478 0.7353 0.76178 0.0
C1286 C 0.63022 0.79118 0.72027 0.0
C1287 C 0.6554 0.82439 0.70089 0.0
C1288 C 0.63541 0.80071 0.74887 0.0
C1289 C 0.68256 0.86802 0.71027 0.0
C1290 C 0.68976 0.87726 0.73869 0.0
C1291 C 0.67901 0.85051 0.78652 0.0
C1292 C 0.65618 0.81631 0.80573 0.0
C1293 C 0.6678 0.84334 0.75815 0.0
C1294 C 0.62004 0.77616 0.79671 0.0
C1295 C 0.61058 0.76784 0.7684 0.0
H1296 H 0.32414 0.02278 0.94709 0.0
H1297 H 0.19291 0.93436 0.97847 0.0
H1298 H 0.20813 0.98303 0.01853 0.0
H1299 H 0.25884 0.04844 0.04544 0.0
H1300 H 0.39225 0.13469 0.01696 0.0
H1301 H 0.37527 0.09009 0.97418 0.0
C1302 C 0.29874 1.01388 0.96264 0.0
C1303 C 0.25735 0.97413 0.95967 0.0
C1304 C 0.30789 0.04217 0.98586 0.0
C1305 C 0.2251 0.96396 0.98017 0.0
C1306 C 0.23373 0.99209 0.00304 0.0
C1307 C 0.28439 0.05804 0.02982 0.0
C1308 C 0.32703 0.09521 0.03461 0.0
C1309 C 0.27501 0.03103 0.00616 0.0
C1310 C 0.35914 0.10694 0.01383 0.0
C1311 C 0.34952 0.08089 0.98956 0.0
H1312 H 0.81166 0.78599 0.45897 0.0
H1313 H 0.78941 0.6612 0.49103 0.0
H1314 H 0.76128 0.67505 0.53442 0.0
H1315 H 0.73745 0.71989 0.56138 0.0
H1316 H 0.76253 0.84584 0.52956 0.0
H1317 H 0.79366 0.83339 0.4874 0.0
C1318 C 0.80106 0.76184 0.47552 0.0
C1319 C 0.80245 0.72232 0.47155 0.0
C1320 C 0.78443 0.7698 0.50015 0.0
C1321 C 0.78904 0.6919 0.49345 0.0
C1322 C 0.7725 0.69966 0.51816 0.0
C1323 C 0.75015 0.74501 0.54547 0.0
C1324 C 0.74679 0.78364 0.54874 0.0
C1325 C 0.76915 0.73808 0.52148 0.0
C1326 C 0.7635 0.81543 0.52757 0.0
C1327 C 0.78177 0.80848 0.50349 0.0
H1328 H 0.0339 0.32124 0.95283 0.0
H1329 H 0.13857 0.30928 0.99248 0.0
H1330 H 0.09233 0.27906 0.03385 0.0
H1331 H 1.02229 0.25547 0.05854 0.0
H1332 H 0.91771 0.26801 0.01921 0.0
H1333 H 0.96371 0.29767 0.97763 0.0
C1334 C 0.04698 0.31224 0.97048 0.0
C1335 C 0.09039 0.31819 0.96935 0.0
C1336 C 1.0199 0.29442 0.99416 0.0
C1337 C 0.10597 0.30592 0.99265 0.0
C1338 C 0.07925 0.28826 0.01629 0.0
C1339 C 1.00914 0.26453 0.04094 0.0
C1340 C 0.96595 0.25911 0.04228 0.0
C1341 C 0.03615 0.28226 0.01725 0.0
C1342 C 0.95026 0.27122 0.01897 0.0
C1343 C 0.97681 0.28851 0.99519 0.0
H1344 H 0.32081 0.01902 0.45272 0.0
H1345 H 0.29995 0.12045 0.48901 0.0
H1346 H 0.26734 0.07412 0.53005 0.0
H1347 H 0.24824 1.00604 0.5567 0.0
H1348 H 0.26956 0.90548 0.52008 0.0
H1349 H 0.29733 0.94958 0.4778 0.0
C1350 C 0.30935 0.03135 0.46957 0.0
C1351 C 0.314 0.07403 0.46783 0.0
C1352 C 0.2903 1.00431 0.49302 0.0
C1353 C 0.29788 0.08847 0.48984 0.0
C1354 C 0.27905 0.0618 0.51334 0.0
C1355 C 0.25881 0.99373 0.53941 0.0
C1356 C 0.25661 0.95226 0.54161 0.0
C1357 C 0.27564 0.01991 0.51533 0.0
C1358 C 0.26979 0.93653 0.51882 0.0
C1359 C 0.28636 0.96219 0.49477 0.0
H1360 H 0.73979 0.73482 0.0558 0.0
H1361 H 0.86412 0.7558 0.023 0.0
H1362 H 0.85306 0.78995 0.98155 0.0
H1363 H 0.80708 0.81226 0.95442 0.0
H1364 H 0.68199 0.78848 0.9874 0.0
H1365 H 0.69583 0.75928 0.02994 0.0
C1366 C 0.76491 0.74698 0.0398 0.0
C1367 C 0.80285 0.74235 0.04269 0.0
C1368 C 0.75852 0.76689 0.0163 0.0
C1369 C 0.83452 0.75843 0.0214 0.0
C1370 C 0.82828 0.77823 0.99776 0.0
C1371 C 0.78278 0.80073 0.97092 0.0
C1372 C 0.74311 0.8021 0.96744 0.0
C1373 C 0.79029 0.78246 0.99496 0.0
C1374 C 0.71276 0.78813 0.98941 0.0
C1375 C 0.72045 0.77086 0.01363 0.0
H1376 H 0.0395 0.25452 0.55472 0.0
H1377 H 0.1362 0.38209 0.52231 0.0
H1378 H 0.09176 0.36621 0.47985 0.0
H1379 H 1.02563 0.31614 0.45215 0.0
H1380 H 0.92753 0.19032 0.48594 0.0
H1381 H 0.97212 0.20642 0.5283 0.0
C1382 C 0.05131 0.27926 0.53854 0.0
C1383 C 0.09204 0.31958 0.54193 0.0
C1384 C 1.0249 0.27037 0.51459 0.0
C1385 C 0.10579 0.35068 0.52041 0.0
C1386 C 0.08006 0.34164 0.49615 0.0
C1387 C 1.01361 0.29209 0.46876 0.0
C1388 C 0.97291 0.2517 0.46558 0.0
C1389 C 0.03955 0.30161 0.49305 0.0
C1390 C 0.95826 0.22155 0.48764 0.0
C1391 C 0.98402 0.2307 0.51182 0.0
H1392 H 0.57178 0.1257 0.0548 0.0
H1393 H 0.63224 0.15437 0.13594 0.0
H1394 H 0.56724 0.15424 0.1554 0.0
H1395 H 0.49328 0.14739 0.14923 0.0
H1396 H 0.43658 0.12539 0.06731 0.0
H1397 H 0.49885 0.12001 0.04853 0.0
C1398 C 0.57072 0.1317 0.07679 0.0
C1399 C 0.60717 0.14 0.09383 0.0
C1400 C 0.53323 0.13182 0.08783 0.0
C1401 C 0.60518 0.14841 0.12221 0.0
C1402 C 0.56773 0.14794 0.13341 0.0
C1403 C 0.49413 0.14029 0.12739 0.0
C1404 C 0.45882 0.1341 0.11001 0.0
C1405 C 0.53148 0.13963 0.11645 0.0
C1406 C 0.46175 0.12756 0.08147 0.0
C1407 C 0.4979 0.12535 0.07062 0.0
H1408 H 0.69528 0.56529 0.43676 0.0
H1409 H 0.72729 0.59866 0.35092 0.0
H1410 H 0.66565 0.52674 0.33678 0.0
H1411 H 0.60805 0.45086 0.34906 0.0
H1412 H 0.579 0.41543 0.43527 0.0
H1413 H 0.63326 0.49111 0.449 0.0
C1414 C 0.68802 0.55715 0.41494 0.0
C1415 C 0.71568 0.58784 0.39482 0.0
C1416 C 0.65329 0.51477 0.40709 0.0
C1417 C 0.7062 0.57628 0.36671 0.0
C1418 C 0.67116 0.53479 0.35868 0.0
C1419 C 0.6134 0.4596 0.37089 0.0
C1420 C 0.58951 0.42686 0.39106 0.0
C1421 C 0.64537 0.50318 0.37871 0.0
C1422 C 0.59646 0.43955 0.4192 0.0
C1423 C 0.62783 0.48293 0.42711 0.0
H1424 H 0.86446 0.33549 0.15 0.0
H1425 H 0.94254 0.33974 0.0798 0.0
H1426 H 0.95724 0.4142 0.06863 0.0
H1427 H 0.94185 0.47445 0.07613 0.0
H1428 H 0.84607 0.45997 0.13848 0.0
H1429 H 0.84544 0.39448 0.15575 0.0
C1430 C 0.88575 0.35335 0.1327 0.0
C1431 C 0.90533 0.33332 0.11703 0.0
C1432 C 0.89012 0.39428 0.1247 0.0
C1433 C 0.93048 0.35576 0.0937 0.0
C1434 C 0.93766 0.39791 0.08682 0.0
C1435 C 0.91963 0.45699 0.09302 0.0
C1436 C 0.8933 0.47322 0.10522 0.0
C1437 C 0.91668 0.417 0.10176 0.0
C1438 C 0.86723 0.4499 0.12831 0.0
C1439 C 0.86639 0.41165 0.13821 0.0
H1440 H 0.49722 0.15222 0.43659 0.0
H1441 H 0.4528 0.13949 0.3519 0.0
H1442 H 0.51784 0.13648 0.33611 0.0
H1443 H 0.58933 0.14118 0.34612 0.0
H1444 H 0.63482 0.155 0.43086 0.0
H1445 H 0.56839 0.15538 0.44671 0.0
C1446 C 0.50153 0.14811 0.41471 0.0
C1447 C 0.46926 0.14455 0.39555 0.0
C1448 C 0.53983 0.14761 0.40573 0.0
C1449 C 0.47602 0.14062 0.3672 0.0
C1450 C 0.51367 0.13953 0.35813 0.0
C1451 C 0.58467 0.14372 0.36814 0.0
C1452 C 0.61752 0.14797 0.38721 0.0
C1453 C 0.54601 0.14338 0.37718 0.0
C1454 C 0.61081 0.15231 0.41557 0.0
C1455 C 0.57249 0.1521 0.42471 0.0
H1456 H 0.56872 0.46109 0.13999 0.0
H1457 H 0.57959 0.41722 0.05814 0.0
H1458 H 0.64997 0.4857 0.05129 0.0
H1459 H 0.70656 0.559 0.06744 0.0
H1460 H 0.70334 0.59987 0.15148 0.0
H1461 H 0.6312 0.53252 0.15839 0.0
C1462 C 0.58698 0.46629 0.12086 0.0
C1463 C 0.56889 0.43379 0.09958 0.0
C1464 C 0.6281 0.50575 0.11722 0.0
C1465 C 0.59292 0.44114 0.07493 0.0
C1466 C 0.63295 0.48059 0.0709 0.0
C1467 C 0.69018 0.55344 0.08735 0.0
C1468 C 0.7097 0.58576 0.10853 0.0
C1469 C 0.65048 0.51335 0.09171 0.0
C1470 C 0.68834 0.57689 0.13438 0.0
C1471 C 0.64737 0.5379 0.13844 0.0
H1472 H 0.92442 0.46304 0.35644 0.0
H1473 H 0.88071 0.46546 0.43975 0.0
H1474 H 0.87988 0.39641 0.45009 0.0
H1475 H 0.89402 0.33706 0.43613 0.0
H1476 H 0.92876 0.32847 0.35143 0.0
H1477 H 0.93231 0.39906 0.34111 0.0
C1478 C 0.91414 0.44802 0.37673 0.0
C1479 C 0.90247 0.46929 0.39733 0.0
C1480 C 0.91336 0.40797 0.38243 0.0
C1481 C 0.88919 0.44949 0.42348 0.0
C1482 C 0.88924 0.4103 0.42947 0.0
C1483 C 0.90263 0.35069 0.41539 0.0
C1484 C 0.91281 0.32826 0.39486 0.0
C1485 C 0.90183 0.38963 0.40925 0.0
C1486 C 0.92255 0.34582 0.36792 0.0
C1487 C 0.9239 0.38587 0.36193 0.0
H1488 H 0.13149 0.56214 0.57668 0.0
H1489 H 0.15798 0.61451 0.66007 0.0
H1490 H 0.15707 0.54748 0.6764 0.0
H1491 H 0.14971 0.47384 0.66657 0.0
H1492 H 0.1258 0.42488 0.58242 0.0
H1493 H 0.12244 0.48941 0.56717 0.0
C1494 C 0.13648 0.55885 0.59855 0.0
C1495 C 0.14444 0.59349 0.6171 0.0
C1496 C 0.13524 0.52008 0.60781 0.0
C1497 C 0.15216 0.58878 0.64521 0.0
C1498 C 0.15116 0.55017 0.65461 0.0
C1499 C 0.1425 0.47685 0.64506 0.0
C1500 C 0.13579 0.44321 0.62597 0.0
C1501 C 0.14256 0.51545 0.6361 0.0
C1502 C 0.12875 0.44874 0.59789 0.0
C1503 C 0.12769 0.48624 0.58901 0.0
H1504 H 0.34318 0.88107 0.93926 0.0
H1505 H 0.33227 0.90483 0.85284 0.0
H1506 H 0.40372 0.91038 0.84364 0.0
H1507 H 0.46944 0.90701 0.86033 0.0
H1508 H 0.47451 0.8723 0.9454 0.0
H1509 H 0.40455 0.87054 0.95484 0.0
C1510 C 0.35671 0.88806 0.91844 0.0
C1511 C 0.33347 0.89543 0.89707 0.0
C1512 C 0.3963 0.88782 0.91299 0.0
C1513 C 0.35058 0.90223 0.87004 0.0
C1514 C 0.3911 0.90426 0.86466 0.0
C1515 C 0.45474 0.89835 0.88081 0.0
C1516 C 0.47695 0.88948 0.90214 0.0
C1517 C 0.41422 0.89694 0.88598 0.0
C1518 C 0.45772 0.87852 0.92859 0.0
C1519 C 0.41801 0.87806 0.93404 0.0
H1520 H 0.59279 0.66967 0.57165 0.0
H1521 H 0.56946 0.71771 0.64843 0.0
H1522 H 0.49193 0.65736 0.64805 0.0
H1523 H 0.42783 0.59743 0.62127 0.0
H1524 H 0.45557 0.54709 0.54662 0.0
H1525 H 0.53407 0.60052 0.55126 0.0
C1526 C 0.57125 0.66579 0.58895 0.0
C1527 C 0.58706 0.69792 0.61014 0.0
C1528 C 0.52704 0.63072 0.58873 0.0
C1529 C 0.55842 0.69301 0.6321 0.0
C1530 C 0.51384 0.65869 0.63169 0.0
C1531 C 0.4512 0.59726 0.60652 0.0
C1532 C 0.43523 0.56896 0.58306 0.0
C1533 C 0.49722 0.62821 0.60948 0.0
C1534 C 0.46644 0.56917 0.5644 0.0
C1535 C 0.51154 0.59981 0.56701 0.0
H1536 H 0.17853 0.59435 0.84758 0.0
H1537 H 0.17158 0.62681 0.93331 0.0
H1538 H 0.15244 0.55216 0.94693 0.0
H1539 H 0.14622 0.48044 0.93556 0.0
H1540 H 0.15902 0.44937 0.85071 0.0
H1541 H 0.16676 0.52002 0.83574 0.0
C1542 C 0.17283 0.58525 0.86928 0.0
C1543 C 0.17707 0.61698 0.88935 0.0
C1544 C 0.16279 0.54219 0.87717 0.0
C1545 C 0.16832 0.6036 0.91724 0.0
C1546 C 0.15767 0.56078 0.92514 0.0
C1547 C 0.14969 0.48874 0.91369 0.0
C1548 C 0.15141 0.4593 0.89426 0.0
C1549 C 0.15588 0.53018 0.90542 0.0
C1550 C 0.15658 0.47082 0.86605 0.0
C1551 C 0.16163 0.51159 0.85755 0.0
H1552 H 0.35608 0.88719 0.57797 0.0
H1553 H 0.32982 0.89833 0.66404 0.0
H1554 H 0.39257 0.88876 0.67761 0.0
H1555 H 0.44962 0.86876 0.66486 0.0
H1556 H 0.47147 0.85356 0.57829 0.0
H1557 H 0.41637 0.87364 0.5652 0.0
C1558 C 0.36457 0.88834 0.59973 0.0
C1559 C 0.33807 0.89329 0.61995 0.0
C1560 C 0.39974 0.88149 0.6073 0.0
C1561 C 0.34965 0.89484 0.64803 0.0
C1562 C 0.38533 0.88889 0.65576 0.0
C1563 C 0.44247 0.86984 0.64309 0.0
C1564 C 0.46494 0.85906 0.62265 0.0
C1565 C 0.40971 0.88068 0.63558 0.0
C1566 C 0.45552 0.8619 0.59459 0.0
C1567 C 0.42356 0.87311 0.58702 0.0
H1568 H 0.61006 0.6826 0.93873 0.0
H1569 H 0.58037 0.72572 0.86229 0.0
H1570 H 0.50465 0.66229 0.86302 0.0
H1571 H 0.44345 0.60122 0.88993 0.0
H1572 H 0.47596 0.55732 0.96535 0.0
H1573 H 0.55363 0.61334 0.96019 0.0
C1574 C 0.58742 0.67715 0.92174 0.0
C1575 C 0.60089 0.70857 0.9004 0.0
C1576 C 0.54397 0.64068 0.92238 0.0
C1577 C 0.57105 0.70158 0.87871 0.0
C1578 C 0.52753 0.66551 0.87931 0.0
C1579 C 0.46771 0.60308 0.90477 0.0
C1580 C 0.45336 0.57574 0.92847 0.0
C1581 C 0.513 0.63573 0.90167 0.0
C1582 C 0.48563 0.57862 0.94734 0.0
C1583 C 0.53022 0.61072 0.94443 0.0
loop_
_geom_bond_atom_site_label_1
_geom_bond_atom_site_label_2
_geom_bond_distance
_geom_bond_site_symmetry_2
_ccdc_geom_bond_type
Eu0 N31 2.657 . S
Eu0 N38 2.609 . S
Eu0 O44 2.558 . S
Eu0 O45 2.612 . S
Eu0 O47 2.339 . S
Eu0 O48 2.563 . S
Eu0 O49 2.419 . S
Eu0 O51 2.380 . S
Eu0 O52 2.432 . S
Eu0 C64 2.848 . S
C1 C4 1.429 . S
C1 C5 1.411 . S
C1 N8 1.377 . S
C2 C4 1.420 . S
C2 C6 1.423 1_545 S
C2 C14 1.392 . S
C3 C5 1.420 1_565 S
C3 C6 1.351 . S
C3 H26 0.931 . S
C4 C1 1.429 . S
C4 C2 1.420 . S
C4 N12 1.362 . S
C5 C1 1.411 . S
C5 C3 1.420 1_545 S
C5 C10 1.395 . S
C6 C2 1.423 1_565 S
C6 C3 1.351 . S
C6 H18 0.930 . S
C7 C9 1.400 . S
C7 C10 1.386 . S
C7 H19 0.930 . S
N8 C1 1.377 . S
N8 C9 1.321 . S
N8 Eu11 2.609 . S
C9 C7 1.400 . S
C9 N8 1.321 . S
C9 H16 0.930 . S
C10 C5 1.395 . S
C10 C7 1.386 . S
C10 H29 0.930 . S
Eu11 N8 2.609 . S
Eu11 N12 2.657 . S
Eu11 O45 2.380 . S
Eu11 O46 2.432 . S
Eu11 O50 2.558 . S
Eu11 O51 2.612 . S
Eu11 O53 2.339 . S
Eu11 O54 2.563 . S
Eu11 O55 2.419 . S
Eu11 C75 2.848 . S
N12 C4 1.362 . S
N12 Eu11 2.657 . S
N12 C13 1.334 . S
C13 N12 1.334 . S
C13 C15 1.413 . S
C13 H20 0.929 . S
C14 C2 1.392 . S
C14 C15 1.367 . S
C14 H22 0.930 1_545 S
C15 C13 1.413 . S
C15 C14 1.367 . S
C15 H17 0.930 . S
H16 C9 0.930 . S
H17 C15 0.930 . S
H18 C6 0.930 . S
H19 C7 0.930 . S
H20 C13 0.929 . S
H21 C35 0.930 . S
H22 C14 0.930 1_565 S
H23 C41 0.930 . S
H24 C32 0.929 . S
H25 C39 0.930 1_556 S
H26 C3 0.931 . S
H27 C33 0.930 . S
H28 C66 0.930 . S
H29 C10 0.930 . S
H30 C65 0.931 . S
N31 Eu0 2.657 . S
N31 C32 1.334 . S
N31 C36 1.362 . S
C32 H24 0.929 . S
C32 N31 1.334 . S
C32 C35 1.413 . S
C33 H27 0.930 . S
C33 C34 1.392 . S
C33 C35 1.367 . S
C34 C33 1.392 . S
C34 C36 1.420 . S
C34 C66 1.423 . S
C35 H21 0.930 . S
C35 C32 1.413 . S
C35 C33 1.367 . S
C36 N31 1.362 . S
C36 C34 1.420 . S
C36 C40 1.429 . S
H37 C42 0.930 1_556 S
N38 Eu0 2.609 . S
N38 C40 1.377 . S
N38 C41 1.321 . S
C39 H25 0.930 1_554 S
C39 C41 1.400 . S
C39 C42 1.386 . S
C40 C36 1.429 . S
C40 N38 1.377 . S
C40 C43 1.411 . S
C41 H23 0.930 . S
C41 N38 1.321 . S
C41 C39 1.400 . S
C42 H37 0.930 1_554 S
C42 C39 1.386 . S
C42 C43 1.395 . S
C43 C40 1.411 . S
C43 C42 1.395 . S
C43 C65 1.420 . S
O44 Eu0 2.558 . S
O44 C64 1.257 . S
O45 Eu0 2.612 . S
O45 Eu11 2.380 . S
O45 C56 1.276 . S
O46 Eu11 2.432 . S
O46 C63 1.264 . S
O47 Eu0 2.339 . S
O47 C63 1.254 . S
O48 Eu0 2.563 . S
O48 C56 1.235 . S
O49 Eu0 2.419 . S
O49 C64 1.249 . S
O50 Eu11 2.558 . S
O50 C75 1.257 . S
O51 Eu0 2.380 . S
O51 Eu11 2.612 . S
O51 C67 1.276 . S
O52 Eu0 2.432 . S
O52 C74 1.264 . S
O53 Eu11 2.339 . S
O53 C74 1.254 . S
O54 Eu11 2.563 . S
O54 C67 1.235 . S
O55 Eu11 2.419 . S
O55 C75 1.249 . S
C56 O45 1.276 . S
C56 O48 1.235 . S
C57 C59 1.393 . S
C57 C61 1.395 . S
C57 C64 1.492 . S
C58 C59 1.392 . S
C58 C60 1.386 . S
C59 C57 1.393 . S
C59 C58 1.392 . S
C59 H76 0.930 . S
C60 C58 1.386 . S
C60 C62 1.395 . S
C60 H77 0.930 . S
C61 C57 1.395 . S
C61 C62 1.379 . S
C61 H78 0.930 . S
C62 C60 1.395 . S
C62 C61 1.379 . S
C62 H79 0.930 . S
C63 O46 1.264 . S
C63 O47 1.254 . S
C64 Eu0 2.848 . S
C64 O44 1.257 . S
C64 O49 1.249 . S
C64 C57 1.492 . S
C65 H30 0.931 . S
C65 C43 1.420 . S
C65 C66 1.351 . S
C66 H28 0.930 . S
C66 C34 1.423 . S
C66 C65 1.351 . S
C67 O51 1.276 . S
C67 O54 1.235 . S
C68 C69 1.393 . S
C68 C72 1.395 . S
C68 C75 1.492 1_565 S
C69 C68 1.393 . S
C69 C70 1.392 . S
C69 H80 0.930 . S
C70 C69 1.392 . S
C70 C71 1.386 . S
C71 C70 1.386 . S
C71 C73 1.395 . S
C71 H81 0.930 . S
C72 C68 1.395 . S
C72 C73 1.379 . S
C72 H82 0.930 . S
C73 C71 1.395 . S
C73 C72 1.379 . S
C73 H83 0.930 . S
C74 O52 1.264 . S
C74 O53 1.254 . S
C75 Eu11 2.848 . S
C75 O50 1.257 . S
C75 O55 1.249 . S
C75 C68 1.492 1_545 S
H76 C59 0.930 . S
H77 C60 0.930 . S
H78 C61 0.930 . S
H79 C62 0.930 . S
H80 C69 0.930 . S
H81 C71 0.930 . S
H82 C72 0.930 . S
H83 C73 0.930 . S
Eu84 N115 2.657 . S
Eu84 N122 2.609 . S
Eu84 O128 2.558 . S
Eu84 O129 2.612 . S
Eu84 O131 2.339 . S
Eu84 O132 2.563 . S
Eu84 O133 2.419 . S
Eu84 O135 2.380 . S
Eu84 O136 2.432 . S
Eu84 C148 2.848 . S
C85 C88 1.429 . S
C85 C89 1.411 . S
C85 N92 1.377 . S
C86 C88 1.420 1_455 S
C86 C90 1.423 . S
C86 C98 1.392 . S
C87 C89 1.420 1_455 S
C87 C90 1.351 . S
C87 H110 0.931 . S
C88 C85 1.429 . S
C88 C86 1.420 1_655 S
C88 N96 1.362 . S
C89 C85 1.411 . S
C89 C87 1.420 1_655 S
C89 C94 1.395 . S
C90 C86 1.423 . S
C90 C87 1.351 . S
C90 H102 0.930 . S
C91 C93 1.400 . S
C91 C94 1.386 . S
C91 H103 0.930 . S
N92 C85 1.377 . S
N92 C93 1.321 . S
N92 Eu95 2.609 . S
C93 C91 1.400 . S
C93 N92 1.321 . S
C93 H100 0.930 . S
C94 C89 1.395 . S
C94 C91 1.386 . S
C94 H113 0.930 . S
Eu95 N92 2.609 . S
Eu95 N96 2.657 . S
Eu95 O129 2.380 . S
Eu95 O130 2.432 . S
Eu95 O134 2.558 . S
Eu95 O135 2.612 . S
Eu95 O137 2.339 . S
Eu95 O138 2.563 . S
Eu95 O139 2.419 . S
Eu95 C159 2.848 . S
N96 C88 1.362 . S
N96 Eu95 2.657 . S
N96 C97 1.334 . S
C97 N96 1.334 . S
C97 C99 1.413 . S
C97 H104 0.929 . S
C98 C86 1.392 . S
C98 C99 1.367 1_455 S
C98 H106 0.930 . S
C99 C97 1.413 . S
C99 C98 1.367 1_655 S
C99 H101 0.930 . S
H100 C93 0.930 . S
H101 C99 0.930 . S
H102 C90 0.930 . S
H103 C91 0.930 . S
H104 C97 0.929 . S
H105 C119 0.930 . S
H106 C98 0.930 . S
H107 C125 0.930 . S
H108 C116 0.929 . S
H109 C123 0.930 . S
H110 C87 0.931 . S
H111 C117 0.930 . S
H112 C150 0.930 . S
H113 C94 0.930 . S
H114 C149 0.931 . S
N115 Eu84 2.657 . S
N115 C116 1.334 . S
N115 C120 1.362 . S
C116 H108 0.929 . S
C116 N115 1.334 . S
C116 C119 1.413 . S
C117 H111 0.930 . S
C117 C118 1.392 . S
C117 C119 1.367 . S
C118 C117 1.392 . S
C118 C120 1.420 . S
C118 C150 1.423 . S
C119 H105 0.930 . S
C119 C116 1.413 . S
C119 C117 1.367 . S
C120 N115 1.362 . S
C120 C118 1.420 . S
C120 C124 1.429 . S
H121 C126 0.930 . S
N122 Eu84 2.609 . S
N122 C124 1.377 . S
N122 C125 1.321 . S
C123 H109 0.930 . S
C123 C125 1.400 . S
C123 C126 1.386 . S
C124 C120 1.429 . S
C124 N122 1.377 . S
C124 C127 1.411 . S
C125 H107 0.930 . S
C125 N122 1.321 . S
C125 C123 1.400 . S
C126 H121 0.930 . S
C126 C123 1.386 . S
C126 C127 1.395 . S
C127 C124 1.411 . S
C127 C126 1.395 . S
C127 C149 1.420 . S
O128 Eu84 2.558 . S
O128 C148 1.257 . S
O129 Eu84 2.612 . S
O129 Eu95 2.380 . S
O129 C140 1.276 . S
O130 Eu95 2.432 . S
O130 C147 1.264 . S
O131 Eu84 2.339 . S
O131 C147 1.254 . S
O132 Eu84 2.563 . S
O132 C140 1.235 . S
O133 Eu84 2.419 . S
O133 C148 1.249 . S
O134 Eu95 2.558 . S
O134 C159 1.257 . S
O135 Eu84 2.380 . S
O135 Eu95 2.612 . S
O135 C151 1.276 . S
O136 Eu84 2.432 . S
O136 C158 1.264 . S
O137 Eu95 2.339 . S
O137 C158 1.254 . S
O138 Eu95 2.563 . S
O138 C151 1.235 . S
O139 Eu95 2.419 . S
O139 C159 1.249 . S
C140 O129 1.276 . S
C140 O132 1.235 . S
C141 C143 1.393 . S
C141 C145 1.395 . S
C141 C148 1.492 . S
C142 C143 1.392 . S
C142 C144 1.386 . S
C143 C141 1.393 . S
C143 C142 1.392 . S
C143 H160 0.930 . S
C144 C142 1.386 . S
C144 C146 1.395 . S
C144 H161 0.930 . S
C145 C141 1.395 . S
C145 C146 1.379 . S
C145 H162 0.930 . S
C146 C144 1.395 . S
C146 C145 1.379 . S
C146 H163 0.930 . S
C147 O130 1.264 . S
C147 O131 1.254 . S
C148 Eu84 2.848 . S
C148 O128 1.257 . S
C148 O133 1.249 . S
C148 C141 1.492 . S
C149 H114 0.931 . S
C149 C127 1.420 . S
C149 C150 1.351 . S
C150 H112 0.930 . S
C150 C118 1.423 . S
C150 C149 1.351 . S
C151 O135 1.276 . S
C151 O138 1.235 . S
C152 C153 1.393 . S
C152 C156 1.395 . S
C152 C159 1.492 . S
C153 C152 1.393 . S
C153 C154 1.392 . S
C153 H164 0.930 . S
C154 C153 1.392 . S
C154 C155 1.386 . S
C155 C154 1.386 . S
C155 C157 1.395 . S
C155 H165 0.930 . S
C156 C152 1.395 . S
C156 C157 1.379 . S
C156 H166 0.930 . S
C157 C155 1.395 . S
C157 C156 1.379 . S
C157 H167 0.930 . S
C158 O136 1.264 . S
C158 O137 1.254 . S
C159 Eu95 2.848 . S
C159 O134 1.257 . S
C159 O139 1.249 . S
C159 C152 1.492 . S
H160 C143 0.930 . S
H161 C144 0.930 . S
H162 C145 0.930 . S
H163 C146 0.930 . S
H164 C153 0.930 . S
H165 C155 0.930 . S
H166 C156 0.930 . S
H167 C157 0.930 . S
Eu168 N199 2.657 . S
Eu168 N206 2.609 . S
Eu168 O212 2.558 . S
Eu168 O213 2.612 . S
Eu168 O215 2.339 . S
Eu168 O216 2.563 . S
Eu168 O217 2.419 . S
Eu168 O219 2.380 . S
Eu168 O220 2.432 . S
Eu168 C232 2.848 . S
C169 C172 1.429 . S
C169 C173 1.411 . S
C169 N176 1.377 . S
C170 C172 1.420 . S
C170 C174 1.423 1_655 S
C170 C182 1.392 . S
C171 C173 1.420 1_455 S
C171 C174 1.351 . S
C171 H194 0.931 . S
C172 C169 1.429 . S
C172 C170 1.420 . S
C172 N180 1.362 . S
C173 C169 1.411 . S
C173 C171 1.420 1_655 S
C173 C178 1.395 . S
C174 C170 1.423 1_455 S
C174 C171 1.351 . S
C174 H186 0.930 . S
C175 C177 1.400 . S
C175 C178 1.386 . S
C175 H187 0.930 . S
N176 C169 1.377 . S
N176 C177 1.321 . S
N176 Eu179 2.609 . S
C177 C175 1.400 . S
C177 N176 1.321 . S
C177 H184 0.930 . S
C178 C173 1.395 . S
C178 C175 1.386 . S
C178 H197 0.930 . S
Eu179 N176 2.609 . S
Eu179 N180 2.657 . S
Eu179 O213 2.380 . S
Eu179 O214 2.432 . S
Eu179 O218 2.558 . S
Eu179 O219 2.612 . S
Eu179 O221 2.339 . S
Eu179 O222 2.563 . S
Eu179 O223 2.419 . S
Eu179 C243 2.848 . S
N180 C172 1.362 . S
N180 Eu179 2.657 . S
N180 C181 1.334 . S
C181 N180 1.334 . S
C181 C183 1.413 . S
C181 H188 0.929 . S
C182 C170 1.392 . S
C182 C183 1.367 . S
C182 H190 0.930 1_655 S
C183 C181 1.413 . S
C183 C182 1.367 . S
C183 H185 0.930 . S
H184 C177 0.930 . S
H185 C183 0.930 . S
H186 C174 0.930 . S
H187 C175 0.930 . S
H188 C181 0.929 . S
H189 C203 0.930 . S
H190 C182 0.930 1_455 S
H191 C209 0.930 . S
H192 C200 0.929 . S
H193 C207 0.930 1_556 S
H194 C171 0.931 . S
H195 C201 0.930 . S
H196 C234 0.930 . S
H197 C178 0.930 . S
H198 C233 0.931 . S
N199 Eu168 2.657 . S
N199 C200 1.334 . S
N199 C204 1.362 . S
C200 H192 0.929 . S
C200 N199 1.334 . S
C200 C203 1.413 . S
C201 H195 0.930 . S
C201 C202 1.392 . S
C201 C203 1.367 1_565 S
C202 C201 1.392 . S
C202 C204 1.420 1_565 S
C202 C234 1.423 . S
C203 H189 0.930 . S
C203 C200 1.413 . S
C203 C201 1.367 1_545 S
C204 N199 1.362 . S
C204 C202 1.420 1_545 S
C204 C208 1.429 . S
H205 C210 0.930 1_556 S
N206 Eu168 2.609 . S
N206 C208 1.377 . S
N206 C209 1.321 . S
C207 H193 0.930 1_554 S
C207 C209 1.400 . S
C207 C210 1.386 . S
C208 C204 1.429 . S
C208 N206 1.377 . S
C208 C211 1.411 . S
C209 H191 0.930 . S
C209 N206 1.321 . S
C209 C207 1.400 . S
C210 H205 0.930 1_554 S
C210 C207 1.386 . S
C210 C211 1.395 . S
C211 C208 1.411 . S
C211 C210 1.395 . S
C211 C233 1.420 1_545 S
O212 Eu168 2.558 . S
O212 C232 1.257 . S
O213 Eu168 2.612 . S
O213 Eu179 2.380 . S
O213 C224 1.276 . S
O214 Eu179 2.432 . S
O214 C231 1.264 . S
O215 Eu168 2.339 . S
O215 C231 1.254 . S
O216 Eu168 2.563 . S
O216 C224 1.235 . S
O217 Eu168 2.419 . S
O217 C232 1.249 . S
O218 Eu179 2.558 . S
O218 C243 1.257 . S
O219 Eu168 2.380 . S
O219 Eu179 2.612 . S
O219 C235 1.276 . S
O220 Eu168 2.432 . S
O220 C242 1.264 . S
O221 Eu179 2.339 . S
O221 C242 1.254 . S
O222 Eu179 2.563 . S
O222 C235 1.235 . S
O223 Eu179 2.419 . S
O223 C243 1.249 . S
C224 O213 1.276 . S
C224 O216 1.235 . S
C225 C227 1.393 . S
C225 C229 1.395 . S
C225 C232 1.492 . S
C226 C227 1.392 . S
C226 C228 1.386 . S
C227 C225 1.393 . S
C227 C226 1.392 . S
C227 H244 0.930 . S
C228 C226 1.386 . S
C228 C230 1.395 . S
C228 H245 0.930 . S
C229 C225 1.395 . S
C229 C230 1.379 . S
C229 H246 0.930 . S
C230 C228 1.395 . S
C230 C229 1.379 . S
C230 H247 0.930 . S
C231 O214 1.264 . S
C231 O215 1.254 . S
C232 Eu168 2.848 . S
C232 O212 1.257 . S
C232 O217 1.249 . S
C232 C225 1.492 . S
C233 H198 0.931 . S
C233 C211 1.420 1_565 S
C233 C234 1.351 . S
C234 H196 0.930 . S
C234 C202 1.423 . S
C234 C233 1.351 . S
C235 O219 1.276 . S
C235 O222 1.235 . S
C236 C237 1.393 . S
C236 C240 1.395 . S
C236 C243 1.492 1_455 S
C237 C236 1.393 . S
C237 C238 1.392 . S
C237 H248 0.930 . S
C238 C237 1.392 . S
C238 C239 1.386 . S
C239 C238 1.386 . S
C239 C241 1.395 . S
C239 H249 0.930 . S
C240 C236 1.395 . S
C240 C241 1.379 . S
C240 H250 0.930 . S
C241 C239 1.395 . S
C241 C240 1.379 . S
C241 H251 0.930 . S
C242 O220 1.264 . S
C242 O221 1.254 . S
C243 Eu179 2.848 . S
C243 O218 1.257 . S
C243 O223 1.249 . S
C243 C236 1.492 1_655 S
H244 C227 0.930 . S
H245 C228 0.930 . S
H246 C229 0.930 . S
H247 C230 0.930 . S
H248 C237 0.930 . S
H249 C239 0.930 . S
H250 C240 0.930 . S
H251 C241 0.930 . S
Eu252 N283 2.657 . S
Eu252 N290 2.609 . S
Eu252 O296 2.558 . S
Eu252 O297 2.612 . S
Eu252 O299 2.339 . S
Eu252 O300 2.563 . S
Eu252 O301 2.419 . S
Eu252 O303 2.380 . S
Eu252 O304 2.432 . S
Eu252 C316 2.848 . S
C253 C256 1.429 . S
C253 C257 1.411 . S
C253 N260 1.377 . S
C254 C256 1.420 . S
C254 C258 1.423 . S
C254 C266 1.392 . S
C255 C257 1.420 . S
C255 C258 1.351 . S
C255 H278 0.931 . S
C256 C253 1.429 . S
C256 C254 1.420 . S
C256 N264 1.362 . S
C257 C253 1.411 . S
C257 C255 1.420 . S
C257 C262 1.395 . S
C258 C254 1.423 . S
C258 C255 1.351 . S
C258 H270 0.930 . S
C259 C261 1.400 . S
C259 C262 1.386 . S
C259 H271 0.930 . S
N260 C253 1.377 . S
N260 C261 1.321 . S
N260 Eu263 2.609 . S
C261 C259 1.400 . S
C261 N260 1.321 . S
C261 H268 0.930 . S
C262 C257 1.395 . S
C262 C259 1.386 . S
C262 H281 0.930 . S
Eu263 N260 2.609 . S
Eu263 N264 2.657 . S
Eu263 O297 2.380 . S
Eu263 O298 2.432 . S
Eu263 O302 2.558 . S
Eu263 O303 2.612 . S
Eu263 O305 2.339 . S
Eu263 O306 2.563 . S
Eu263 O307 2.419 . S
Eu263 C327 2.848 . S
N264 C256 1.362 . S
N264 Eu263 2.657 . S
N264 C265 1.334 . S
C265 N264 1.334 . S
C265 C267 1.413 . S
C265 H272 0.929 . S
C266 C254 1.392 . S
C266 C267 1.367 . S
C266 H274 0.930 . S
C267 C265 1.413 . S
C267 C266 1.367 . S
C267 H269 0.930 . S
H268 C261 0.930 . S
H269 C267 0.930 . S
H270 C258 0.930 . S
H271 C259 0.930 . S
H272 C265 0.929 . S
H273 C287 0.930 . S
H274 C266 0.930 . S
H275 C293 0.930 . S
H276 C284 0.929 . S
H277 C291 0.930 . S
H278 C255 0.931 . S
H279 C285 0.930 1_565 S
H280 C318 0.930 . S
H281 C262 0.930 . S
H282 C317 0.931 . S
N283 Eu252 2.657 . S
N283 C284 1.334 . S
N283 C288 1.362 . S
C284 H276 0.929 . S
C284 N283 1.334 . S
C284 C287 1.413 . S
C285 H279 0.930 1_545 S
C285 C286 1.392 . S
C285 C287 1.367 . S
C286 C285 1.392 . S
C286 C288 1.420 . S
C286 C318 1.423 1_545 S
C287 H273 0.930 . S
C287 C284 1.413 . S
C287 C285 1.367 . S
C288 N283 1.362 . S
C288 C286 1.420 . S
C288 C292 1.429 . S
H289 C294 0.930 . S
N290 Eu252 2.609 . S
N290 C292 1.377 . S
N290 C293 1.321 . S
C291 H277 0.930 . S
C291 C293 1.400 . S
C291 C294 1.386 . S
C292 C288 1.429 . S
C292 N290 1.377 . S
C292 C295 1.411 . S
C293 H275 0.930 . S
C293 N290 1.321 . S
C293 C291 1.400 . S
C294 H289 0.930 . S
C294 C291 1.386 . S
C294 C295 1.395 . S
C295 C292 1.411 . S
C295 C294 1.395 . S
C295 C317 1.420 1_545 S
O296 Eu252 2.558 . S
O296 C316 1.257 . S
O297 Eu252 2.612 . S
O297 Eu263 2.380 . S
O297 C308 1.276 . S
O298 Eu263 2.432 . S
O298 C315 1.264 . S
O299 Eu252 2.339 . S
O299 C315 1.254 . S
O300 Eu252 2.563 . S
O300 C308 1.235 . S
O301 Eu252 2.419 . S
O301 C316 1.249 . S
O302 Eu263 2.558 . S
O302 C327 1.257 . S
O303 Eu252 2.380 . S
O303 Eu263 2.612 . S
O303 C319 1.276 . S
O304 Eu252 2.432 . S
O304 C326 1.264 . S
O305 Eu263 2.339 . S
O305 C326 1.254 . S
O306 Eu263 2.563 . S
O306 C319 1.235 . S
O307 Eu263 2.419 . S
O307 C327 1.249 . S
C308 O297 1.276 . S
C308 O300 1.235 . S
C309 C311 1.393 . S
C309 C313 1.395 . S
C309 C316 1.492 1_565 S
C310 C311 1.392 . S
C310 C312 1.386 . S
C311 C309 1.393 . S
C311 C310 1.392 . S
C311 H328 0.930 . S
C312 C310 1.386 . S
C312 C314 1.395 . S
C312 H329 0.930 . S
C313 C309 1.395 . S
C313 C314 1.379 . S
C313 H330 0.930 . S
C314 C312 1.395 . S
C314 C313 1.379 . S
C314 H331 0.930 . S
C315 O298 1.264 . S
C315 O299 1.254 . S
C316 Eu252 2.848 . S
C316 O296 1.257 . S
C316 O301 1.249 . S
C316 C309 1.492 1_545 S
C317 H282 0.931 . S
C317 C295 1.420 1_565 S
C317 C318 1.351 . S
C318 H280 0.930 . S
C318 C286 1.423 1_565 S
C318 C317 1.351 . S
C319 O303 1.276 . S
C319 O306 1.235 . S
C320 C321 1.393 . S
C320 C324 1.395 . S
C320 C327 1.492 . S
C321 C320 1.393 . S
C321 C322 1.392 . S
C321 H332 0.930 . S
C322 C321 1.392 . S
C322 C323 1.386 . S
C323 C322 1.386 . S
C323 C325 1.395 . S
C323 H333 0.930 . S
C324 C320 1.395 . S
C324 C325 1.379 . S
C324 H334 0.930 . S
C325 C323 1.395 . S
C325 C324 1.379 . S
C325 H335 0.930 . S
C326 O304 1.264 . S
C326 O305 1.254 . S
C327 Eu263 2.848 . S
C327 O302 1.257 . S
C327 O307 1.249 . S
C327 C320 1.492 . S
H328 C311 0.930 . S
H329 C312 0.930 . S
H330 C313 0.930 . S
H331 C314 0.930 . S
H332 C321 0.930 . S
H333 C323 0.930 . S
H334 C324 0.930 . S
H335 C325 0.930 . S
Eu336 N367 2.657 . S
Eu336 N374 2.609 . S
Eu336 O380 2.558 . S
Eu336 O381 2.612 . S
Eu336 O383 2.339 . S
Eu336 O384 2.563 . S
Eu336 O385 2.419 . S
Eu336 O387 2.380 . S
Eu336 O388 2.432 . S
Eu336 C400 2.848 . S
C337 C340 1.429 . S
C337 C341 1.411 . S
C337 N344 1.377 . S
C338 C340 1.420 . S
C338 C342 1.423 . S
C338 C350 1.392 . S
C339 C341 1.420 . S
C339 C342 1.351 . S
C339 H362 0.931 . S
C340 C337 1.429 . S
C340 C338 1.420 . S
C340 N348 1.362 . S
C341 C337 1.411 . S
C341 C339 1.420 . S
C341 C346 1.395 . S
C342 C338 1.423 . S
C342 C339 1.351 . S
C342 H354 0.930 . S
C343 C345 1.400 . S
C343 C346 1.386 . S
C343 H355 0.930 . S
N344 C337 1.377 . S
N344 C345 1.321 . S
N344 Eu347 2.609 . S
C345 C343 1.400 . S
C345 N344 1.321 . S
C345 H352 0.930 . S
C346 C341 1.395 . S
C346 C343 1.386 . S
C346 H365 0.930 . S
Eu347 N344 2.609 . S
Eu347 N348 2.657 . S
Eu347 O381 2.380 . S
Eu347 O382 2.432 . S
Eu347 O386 2.558 . S
Eu347 O387 2.612 . S
Eu347 O389 2.339 . S
Eu347 O390 2.563 . S
Eu347 O391 2.419 . S
Eu347 C411 2.848 . S
N348 C340 1.362 . S
N348 Eu347 2.657 . S
N348 C349 1.334 . S
C349 N348 1.334 . S
C349 C351 1.413 . S
C349 H356 0.929 . S
C350 C338 1.392 . S
C350 C351 1.367 . S
C350 H358 0.930 . S
C351 C349 1.413 . S
C351 C350 1.367 . S
C351 H353 0.930 . S
H352 C345 0.930 . S
H353 C351 0.930 . S
H354 C342 0.930 . S
H355 C343 0.930 . S
H356 C349 0.929 . S
H357 C371 0.930 . S
H358 C350 0.930 . S
H359 C377 0.930 . S
H360 C368 0.929 . S
H361 C375 0.930 1_556 S
H362 C339 0.931 . S
H363 C369 0.930 . S
H364 C402 0.930 . S
H365 C346 0.930 . S
H366 C401 0.931 . S
N367 Eu336 2.657 . S
N367 C368 1.334 . S
N367 C372 1.362 . S
C368 H360 0.929 . S
C368 N367 1.334 . S
C368 C371 1.413 . S
C369 H363 0.930 . S
C369 C370 1.392 . S
C369 C371 1.367 1_455 S
C370 C369 1.392 . S
C370 C372 1.420 1_455 S
C370 C402 1.423 . S
C371 H357 0.930 . S
C371 C368 1.413 . S
C371 C369 1.367 1_655 S
C372 N367 1.362 . S
C372 C370 1.420 1_655 S
C372 C376 1.429 . S
H373 C378 0.930 1_556 S
N374 Eu336 2.609 . S
N374 C376 1.377 . S
N374 C377 1.321 . S
C375 H361 0.930 1_554 S
C375 C377 1.400 . S
C375 C378 1.386 . S
C376 C372 1.429 . S
C376 N374 1.377 . S
C376 C379 1.411 . S
C377 H359 0.930 . S
C377 N374 1.321 . S
C377 C375 1.400 . S
C378 H373 0.930 1_554 S
C378 C375 1.386 . S
C378 C379 1.395 . S
C379 C376 1.411 . S
C379 C378 1.395 . S
C379 C401 1.420 1_655 S
O380 Eu336 2.558 . S
O380 C400 1.257 . S
O381 Eu336 2.612 . S
O381 Eu347 2.380 . S
O381 C392 1.276 . S
O382 Eu347 2.432 . S
O382 C399 1.264 . S
O383 Eu336 2.339 . S
O383 C399 1.254 . S
O384 Eu336 2.563 . S
O384 C392 1.235 . S
O385 Eu336 2.419 . S
O385 C400 1.249 . S
O386 Eu347 2.558 . S
O386 C411 1.257 . S
O387 Eu336 2.380 . S
O387 Eu347 2.612 . S
O387 C403 1.276 . S
O388 Eu336 2.432 . S
O388 C410 1.264 . S
O389 Eu347 2.339 . S
O389 C410 1.254 . S
O390 Eu347 2.563 . S
O390 C403 1.235 . S
O391 Eu347 2.419 . S
O391 C411 1.249 . S
C392 O381 1.276 . S
C392 O384 1.235 . S
C393 C395 1.393 . S
C393 C397 1.395 . S
C393 C400 1.492 . S
C394 C395 1.392 . S
C394 C396 1.386 . S
C395 C393 1.393 . S
C395 C394 1.392 . S
C395 H412 0.930 . S
C396 C394 1.386 . S
C396 C398 1.395 . S
C396 H413 0.930 . S
C397 C393 1.395 . S
C397 C398 1.379 . S
C397 H414 0.930 . S
C398 C396 1.395 . S
C398 C397 1.379 . S
C398 H415 0.930 . S
C399 O382 1.264 . S
C399 O383 1.254 . S
C400 Eu336 2.848 . S
C400 O380 1.257 . S
C400 O385 1.249 . S
C400 C393 1.492 . S
C401 H366 0.931 . S
C401 C379 1.420 1_455 S
C401 C402 1.351 . S
C402 H364 0.930 . S
C402 C370 1.423 . S
C402 C401 1.351 . S
C403 O387 1.276 . S
C403 O390 1.235 . S
C404 C405 1.393 . S
C404 C408 1.395 . S
C404 C411 1.492 . S
C405 C404 1.393 . S
C405 C406 1.392 . S
C405 H416 0.930 . S
C406 C405 1.392 . S
C406 C407 1.386 . S
C407 C406 1.386 . S
C407 C409 1.395 . S
C407 H417 0.930 . S
C408 C404 1.395 . S
C408 C409 1.379 . S
C408 H418 0.930 . S
C409 C407 1.395 . S
C409 C408 1.379 . S
C409 H419 0.930 . S
C410 O388 1.264 . S
C410 O389 1.254 . S
C411 Eu347 2.848 . S
C411 O386 1.257 . S
C411 O391 1.249 . S
C411 C404 1.492 . S
H412 C395 0.930 . S
H413 C396 0.930 . S
H414 C397 0.930 . S
H415 C398 0.930 . S
H416 C405 0.930 . S
H417 C407 0.930 . S
H418 C408 0.930 . S
H419 C409 0.930 . S
Eu420 N451 2.657 . S
Eu420 N458 2.609 . S
Eu420 O464 2.558 . S
Eu420 O465 2.612 . S
Eu420 O467 2.339 . S
Eu420 O468 2.563 . S
Eu420 O469 2.419 . S
Eu420 O471 2.380 . S
Eu420 O472 2.432 . S
Eu420 C484 2.848 . S
C421 C424 1.429 . S
C421 C425 1.411 . S
C421 N428 1.377 . S
C422 C424 1.420 1_565 S
C422 C426 1.423 . S
C422 C434 1.392 . S
C423 C425 1.420 1_565 S
C423 C426 1.351 . S
C423 H446 0.931 . S
C424 C421 1.429 . S
C424 C422 1.420 1_545 S
C424 N432 1.362 . S
C425 C421 1.411 . S
C425 C423 1.420 1_545 S
C425 C430 1.395 . S
C426 C422 1.423 . S
C426 C423 1.351 . S
C426 H438 0.930 . S
C427 C429 1.400 . S
C427 C430 1.386 . S
C427 H439 0.930 . S
N428 C421 1.377 . S
N428 C429 1.321 . S
N428 Eu431 2.609 . S
C429 C427 1.400 . S
C429 N428 1.321 . S
C429 H436 0.930 . S
C430 C425 1.395 . S
C430 C427 1.386 . S
C430 H449 0.930 . S
Eu431 N428 2.609 . S
Eu431 N432 2.657 . S
Eu431 O465 2.380 . S
Eu431 O466 2.432 . S
Eu431 O470 2.558 . S
Eu431 O471 2.612 . S
Eu431 O473 2.339 . S
Eu431 O474 2.563 . S
Eu431 O475 2.419 . S
Eu431 C495 2.848 . S
N432 C424 1.362 . S
N432 Eu431 2.657 . S
N432 C433 1.334 . S
C433 N432 1.334 . S
C433 C435 1.413 . S
C433 H440 0.929 . S
C434 C422 1.392 . S
C434 C435 1.367 1_565 S
C434 H442 0.930 . S
C435 C433 1.413 . S
C435 C434 1.367 1_545 S
C435 H437 0.930 . S
H436 C429 0.930 . S
H437 C435 0.930 . S
H438 C426 0.930 . S
H439 C427 0.930 . S
H440 C433 0.929 . S
H441 C455 0.930 . S
H442 C434 0.930 . S
H443 C461 0.930 . S
H444 C452 0.929 . S
H445 C459 0.930 . S
H446 C423 0.931 . S
H447 C453 0.930 1_455 S
H448 C486 0.930 . S
H449 C430 0.930 . S
H450 C485 0.931 . S
N451 Eu420 2.657 . S
N451 C452 1.334 . S
N451 C456 1.362 . S
C452 H444 0.929 . S
C452 N451 1.334 . S
C452 C455 1.413 . S
C453 H447 0.930 1_655 S
C453 C454 1.392 . S
C453 C455 1.367 . S
C454 C453 1.392 . S
C454 C456 1.420 . S
C454 C486 1.423 1_655 S
C455 H441 0.930 . S
C455 C452 1.413 . S
C455 C453 1.367 . S
C456 N451 1.362 . S
C456 C454 1.420 . S
C456 C460 1.429 . S
H457 C462 0.930 . S
N458 Eu420 2.609 . S
N458 C460 1.377 . S
N458 C461 1.321 . S
C459 H445 0.930 . S
C459 C461 1.400 . S
C459 C462 1.386 . S
C460 C456 1.429 . S
C460 N458 1.377 . S
C460 C463 1.411 . S
C461 H443 0.930 . S
C461 N458 1.321 . S
C461 C459 1.400 . S
C462 H457 0.930 . S
C462 C459 1.386 . S
C462 C463 1.395 . S
C463 C460 1.411 . S
C463 C462 1.395 . S
C463 C485 1.420 1_655 S
O464 Eu420 2.558 . S
O464 C484 1.257 . S
O465 Eu420 2.612 . S
O465 Eu431 2.380 . S
O465 C476 1.276 . S
O466 Eu431 2.432 . S
O466 C483 1.264 . S
O467 Eu420 2.339 . S
O467 C483 1.254 . S
O468 Eu420 2.563 . S
O468 C476 1.235 . S
O469 Eu420 2.419 . S
O469 C484 1.249 . S
O470 Eu431 2.558 . S
O470 C495 1.257 . S
O471 Eu420 2.380 . S
O471 Eu431 2.612 . S
O471 C487 1.276 . S
O472 Eu420 2.432 . S
O472 C494 1.264 . S
O473 Eu431 2.339 . S
O473 C494 1.254 . S
O474 Eu431 2.563 . S
O474 C487 1.235 . S
O475 Eu431 2.419 . S
O475 C495 1.249 . S
C476 O465 1.276 . S
C476 O468 1.235 . S
C477 C479 1.393 . S
C477 C481 1.395 . S
C477 C484 1.492 1_455 S
C478 C479 1.392 . S
C478 C480 1.386 . S
C479 C477 1.393 . S
C479 C478 1.392 . S
C479 H496 0.930 . S
C480 C478 1.386 . S
C480 C482 1.395 . S
C480 H497 0.930 . S
C481 C477 1.395 . S
C481 C482 1.379 . S
C481 H498 0.930 . S
C482 C480 1.395 . S
C482 C481 1.379 . S
C482 H499 0.930 . S
C483 O466 1.264 . S
C483 O467 1.254 . S
C484 Eu420 2.848 . S
C484 O464 1.257 . S
C484 O469 1.249 . S
C484 C477 1.492 1_655 S
C485 H450 0.931 . S
C485 C463 1.420 1_455 S
C485 C486 1.351 . S
C486 H448 0.930 . S
C486 C454 1.423 1_455 S
C486 C485 1.351 . S
C487 O471 1.276 . S
C487 O474 1.235 . S
C488 C489 1.393 . S
C488 C492 1.395 . S
C488 C495 1.492 . S
C489 C488 1.393 . S
C489 C490 1.392 . S
C489 H500 0.930 . S
C490 C489 1.392 . S
C490 C491 1.386 . S
C491 C490 1.386 . S
C491 C493 1.395 . S
C491 H501 0.930 . S
C492 C488 1.395 . S
C492 C493 1.379 . S
C492 H502 0.930 . S
C493 C491 1.395 . S
C493 C492 1.379 . S
C493 H503 0.930 . S
C494 O472 1.264 . S
C494 O473 1.254 . S
C495 Eu431 2.848 . S
C495 O470 1.257 . S
C495 O475 1.249 . S
C495 C488 1.492 . S
H496 C479 0.930 . S
H497 C480 0.930 . S
H498 C481 0.930 . S
H499 C482 0.930 . S
H500 C489 0.930 . S
H501 C491 0.930 . S
H502 C492 0.930 . S
H503 C493 0.930 . S
Eu504 N535 2.657 . S
Eu504 N542 2.609 . S
Eu504 O548 2.558 . S
Eu504 O549 2.612 . S
Eu504 O551 2.339 . S
Eu504 O552 2.563 . S
Eu504 O553 2.419 . S
Eu504 O555 2.380 . S
Eu504 O556 2.432 . S
Eu504 C568 2.848 . S
C505 C508 1.429 . S
C505 C509 1.411 . S
C505 N512 1.377 . S
C506 C508 1.420 . S
C506 C510 1.423 . S
C506 C518 1.392 . S
C507 C509 1.420 . S
C507 C510 1.351 . S
C507 H530 0.931 . S
C508 C505 1.429 . S
C508 C506 1.420 . S
C508 N516 1.362 . S
C509 C505 1.411 . S
C509 C507 1.420 . S
C509 C514 1.395 . S
C510 C506 1.423 . S
C510 C507 1.351 . S
C510 H522 0.930 . S
C511 C513 1.400 . S
C511 C514 1.386 . S
C511 H523 0.930 . S
N512 C505 1.377 . S
N512 C513 1.321 . S
N512 Eu515 2.609 . S
C513 C511 1.400 . S
C513 N512 1.321 . S
C513 H520 0.930 . S
C514 C509 1.395 . S
C514 C511 1.386 . S
C514 H533 0.930 . S
Eu515 N512 2.609 . S
Eu515 N516 2.657 . S
Eu515 O549 2.380 . S
Eu515 O550 2.432 . S
Eu515 O554 2.558 . S
Eu515 O555 2.612 . S
Eu515 O557 2.339 . S
Eu515 O558 2.563 . S
Eu515 O559 2.419 . S
Eu515 C579 2.848 . S
N516 C508 1.362 . S
N516 Eu515 2.657 . S
N516 C517 1.334 . S
C517 N516 1.334 . S
C517 C519 1.413 . S
C517 H524 0.929 . S
C518 C506 1.392 . S
C518 C519 1.367 . S
C518 H526 0.930 . S
C519 C517 1.413 . S
C519 C518 1.367 . S
C519 H521 0.930 . S
H520 C513 0.930 . S
H521 C519 0.930 . S
H522 C510 0.930 . S
H523 C511 0.930 . S
H524 C517 0.929 . S
H525 C539 0.930 . S
H526 C518 0.930 . S
H527 C545 0.930 . S
H528 C536 0.929 . S
H529 C543 0.930 . S
H530 C507 0.931 . S
H531 C537 0.930 1_655 S
H532 C570 0.930 . S
H533 C514 0.930 . S
H534 C569 0.931 . S
N535 Eu504 2.657 . S
N535 C536 1.334 . S
N535 C540 1.362 . S
C536 H528 0.929 . S
C536 N535 1.334 . S
C536 C539 1.413 . S
C537 H531 0.930 1_455 S
C537 C538 1.392 . S
C537 C539 1.367 . S
C538 C537 1.392 . S
C538 C540 1.420 . S
C538 C570 1.423 1_455 S
C539 H525 0.930 . S
C539 C536 1.413 . S
C539 C537 1.367 . S
C540 N535 1.362 . S
C540 C538 1.420 . S
C540 C544 1.429 . S
H541 C546 0.930 . S
N542 Eu504 2.609 . S
N542 C544 1.377 . S
N542 C545 1.321 . S
C543 H529 0.930 . S
C543 C545 1.400 . S
C543 C546 1.386 . S
C544 C540 1.429 . S
C544 N542 1.377 . S
C544 C547 1.411 . S
C545 H527 0.930 . S
C545 N542 1.321 . S
C545 C543 1.400 . S
C546 H541 0.930 . S
C546 C543 1.386 . S
C546 C547 1.395 . S
C547 C544 1.411 . S
C547 C546 1.395 . S
C547 C569 1.420 1_455 S
O548 Eu504 2.558 . S
O548 C568 1.257 . S
O549 Eu504 2.612 . S
O549 Eu515 2.380 . S
O549 C560 1.276 . S
O550 Eu515 2.432 . S
O550 C567 1.264 . S
O551 Eu504 2.339 . S
O551 C567 1.254 . S
O552 Eu504 2.563 . S
O552 C560 1.235 . S
O553 Eu504 2.419 . S
O553 C568 1.249 . S
O554 Eu515 2.558 . S
O554 C579 1.257 . S
O555 Eu504 2.380 . S
O555 Eu515 2.612 . S
O555 C571 1.276 . S
O556 Eu504 2.432 . S
O556 C578 1.264 . S
O557 Eu515 2.339 . S
O557 C578 1.254 . S
O558 Eu515 2.563 . S
O558 C571 1.235 . S
O559 Eu515 2.419 . S
O559 C579 1.249 . S
C560 O549 1.276 . S
C560 O552 1.235 . S
C561 C563 1.393 . S
C561 C565 1.395 . S
C561 C568 1.492 1_655 S
C562 C563 1.392 . S
C562 C564 1.386 . S
C563 C561 1.393 . S
C563 C562 1.392 . S
C563 H580 0.930 . S
C564 C562 1.386 . S
C564 C566 1.395 . S
C564 H581 0.930 . S
C565 C561 1.395 . S
C565 C566 1.379 . S
C565 H582 0.930 . S
C566 C564 1.395 . S
C566 C565 1.379 . S
C566 H583 0.930 . S
C567 O550 1.264 . S
C567 O551 1.254 . S
C568 Eu504 2.848 . S
C568 O548 1.257 . S
C568 O553 1.249 . S
C568 C561 1.492 1_455 S
C569 H534 0.931 . S
C569 C547 1.420 1_655 S
C569 C570 1.351 . S
C570 H532 0.930 . S
C570 C538 1.423 1_655 S
C570 C569 1.351 . S
C571 O555 1.276 . S
C571 O558 1.235 . S
C572 C573 1.393 . S
C572 C576 1.395 . S
C572 C579 1.492 . S
C573 C572 1.393 . S
C573 C574 1.392 . S
C573 H584 0.930 . S
C574 C573 1.392 . S
C574 C575 1.386 . S
C575 C574 1.386 . S
C575 C577 1.395 . S
C575 H585 0.930 . S
C576 C572 1.395 . S
C576 C577 1.379 . S
C576 H586 0.930 . S
C577 C575 1.395 . S
C577 C576 1.379 . S
C577 H587 0.930 . S
C578 O556 1.264 . S
C578 O557 1.254 . S
C579 Eu515 2.848 . S
C579 O554 1.257 . S
C579 O559 1.249 . S
C579 C572 1.492 . S
H580 C563 0.930 . S
H581 C564 0.930 . S
H582 C565 0.930 . S
H583 C566 0.930 . S
H584 C573 0.930 . S
H585 C575 0.930 . S
H586 C576 0.930 . S
H587 C577 0.930 . S
Eu588 N619 2.657 . S
Eu588 N626 2.609 . S
Eu588 O632 2.558 . S
Eu588 O633 2.612 . S
Eu588 O635 2.339 . S
Eu588 O636 2.563 . S
Eu588 O637 2.419 . S
Eu588 O639 2.380 . S
Eu588 O640 2.432 . S
Eu588 C652 2.848 . S
C589 C592 1.429 . S
C589 C593 1.411 . S
C589 N596 1.377 . S
C590 C592 1.420 . S
C590 C594 1.423 1_565 S
C590 C602 1.392 . S
C591 C593 1.420 1_545 S
C591 C594 1.351 . S
C591 H614 0.931 . S
C592 C589 1.429 . S
C592 C590 1.420 . S
C592 N600 1.362 . S
C593 C589 1.411 . S
C593 C591 1.420 1_565 S
C593 C598 1.395 . S
C594 C590 1.423 1_545 S
C594 C591 1.351 . S
C594 H606 0.930 . S
C595 C597 1.400 . S
C595 C598 1.386 . S
C595 H607 0.930 . S
N596 C589 1.377 . S
N596 C597 1.321 . S
N596 Eu599 2.609 . S
C597 C595 1.400 . S
C597 N596 1.321 . S
C597 H604 0.930 . S
C598 C593 1.395 . S
C598 C595 1.386 . S
C598 H617 0.930 . S
Eu599 N596 2.609 . S
Eu599 N600 2.657 . S
Eu599 O633 2.380 . S
Eu599 O634 2.432 . S
Eu599 O638 2.558 . S
Eu599 O639 2.612 . S
Eu599 O641 2.339 . S
Eu599 O642 2.563 . S
Eu599 O643 2.419 . S
Eu599 C663 2.848 . S
N600 C592 1.362 . S
N600 Eu599 2.657 . S
N600 C601 1.334 . S
C601 N600 1.334 . S
C601 C603 1.413 . S
C601 H608 0.929 . S
C602 C590 1.392 . S
C602 C603 1.367 . S
C602 H610 0.930 1_565 S
C603 C601 1.413 . S
C603 C602 1.367 . S
C603 H605 0.930 . S
H604 C597 0.930 . S
H605 C603 0.930 . S
H606 C594 0.930 . S
H607 C595 0.930 . S
H608 C601 0.929 . S
H609 C623 0.930 . S
H610 C602 0.930 1_545 S
H611 C629 0.930 . S
H612 C620 0.929 . S
H613 C627 0.930 1_554 S
H614 C591 0.931 . S
H615 C621 0.930 . S
H616 C654 0.930 . S
H617 C598 0.930 . S
H618 C653 0.931 . S
N619 Eu588 2.657 . S
N619 C620 1.334 . S
N619 C624 1.362 . S
C620 H612 0.929 . S
C620 N619 1.334 . S
C620 C623 1.413 . S
C621 H615 0.930 . S
C621 C622 1.392 . S
C621 C623 1.367 1_655 S
C622 C621 1.392 . S
C622 C624 1.420 1_655 S
C622 C654 1.423 . S
C623 H609 0.930 . S
C623 C620 1.413 . S
C623 C621 1.367 1_455 S
C624 N619 1.362 . S
C624 C622 1.420 1_455 S
C624 C628 1.429 . S
H625 C630 0.930 1_554 S
N626 Eu588 2.609 . S
N626 C628 1.377 . S
N626 C629 1.321 . S
C627 H613 0.930 1_556 S
C627 C629 1.400 . S
C627 C630 1.386 . S
C628 C624 1.429 . S
C628 N626 1.377 . S
C628 C631 1.411 . S
C629 H611 0.930 . S
C629 N626 1.321 . S
C629 C627 1.400 . S
C630 H625 0.930 1_556 S
C630 C627 1.386 . S
C630 C631 1.395 . S
C631 C628 1.411 . S
C631 C630 1.395 . S
C631 C653 1.420 1_455 S
O632 Eu588 2.558 . S
O632 C652 1.257 . S
O633 Eu588 2.612 . S
O633 Eu599 2.380 . S
O633 C644 1.276 . S
O634 Eu599 2.432 . S
O634 C651 1.264 . S
O635 Eu588 2.339 . S
O635 C651 1.254 . S
O636 Eu588 2.563 . S
O636 C644 1.235 . S
O637 Eu588 2.419 . S
O637 C652 1.249 . S
O638 Eu599 2.558 . S
O638 C663 1.257 . S
O639 Eu588 2.380 . S
O639 Eu599 2.612 . S
O639 C655 1.276 . S
O640 Eu588 2.432 . S
O640 C662 1.264 . S
O641 Eu599 2.339 . S
O641 C662 1.254 . S
O642 Eu599 2.563 . S
O642 C655 1.235 . S
O643 Eu599 2.419 . S
O643 C663 1.249 . S
C644 O633 1.276 . S
C644 O636 1.235 . S
C645 C647 1.393 . S
C645 C649 1.395 . S
C645 C652 1.492 . S
C646 C647 1.392 . S
C646 C648 1.386 . S
C647 C645 1.393 . S
C647 C646 1.392 . S
C647 H664 0.930 . S
C648 C646 1.386 . S
C648 C650 1.395 . S
C648 H665 0.930 . S
C649 C645 1.395 . S
C649 C650 1.379 . S
C649 H666 0.930 . S
C650 C648 1.395 . S
C650 C649 1.379 . S
C650 H667 0.930 . S
C651 O634 1.264 . S
C651 O635 1.254 . S
C652 Eu588 2.848 . S
C652 O632 1.257 . S
C652 O637 1.249 . S
C652 C645 1.492 . S
C653 H618 0.931 . S
C653 C631 1.420 1_655 S
C653 C654 1.351 . S
C654 H616 0.930 . S
C654 C622 1.423 . S
C654 C653 1.351 . S
C655 O639 1.276 . S
C655 O642 1.235 . S
C656 C657 1.393 . S
C656 C660 1.395 . S
C656 C663 1.492 1_545 S
C657 C656 1.393 . S
C657 C658 1.392 . S
C657 H668 0.930 . S
C658 C657 1.392 . S
C658 C659 1.386 . S
C659 C658 1.386 . S
C659 C661 1.395 . S
C659 H669 0.930 . S
C660 C656 1.395 . S
C660 C661 1.379 . S
C660 H670 0.930 . S
C661 C659 1.395 . S
C661 C660 1.379 . S
C661 H671 0.930 . S
C662 O640 1.264 . S
C662 O641 1.254 . S
C663 Eu599 2.848 . S
C663 O638 1.257 . S
C663 O643 1.249 . S
C663 C656 1.492 1_565 S
H664 C647 0.930 . S
H665 C648 0.930 . S
H666 C649 0.930 . S
H667 C650 0.930 . S
H668 C657 0.930 . S
H669 C659 0.930 . S
H670 C660 0.930 . S
H671 C661 0.930 . S
Eu672 N703 2.657 . S
Eu672 N710 2.609 . S
Eu672 O716 2.558 . S
Eu672 O717 2.612 . S
Eu672 O719 2.339 . S
Eu672 O720 2.563 . S
Eu672 O721 2.419 . S
Eu672 O723 2.380 . S
Eu672 O724 2.432 . S
Eu672 C736 2.848 . S
C673 C676 1.429 . S
C673 C677 1.411 . S
C673 N680 1.377 . S
C674 C676 1.420 1_545 S
C674 C678 1.423 . S
C674 C686 1.392 . S
C675 C677 1.420 1_545 S
C675 C678 1.351 . S
C675 H698 0.931 . S
C676 C673 1.429 . S
C676 C674 1.420 1_565 S
C676 N684 1.362 . S
C677 C673 1.411 . S
C677 C675 1.420 1_565 S
C677 C682 1.395 . S
C678 C674 1.423 . S
C678 C675 1.351 . S
C678 H690 0.930 . S
C679 C681 1.400 . S
C679 C682 1.386 . S
C679 H691 0.930 . S
N680 C673 1.377 . S
N680 C681 1.321 . S
N680 Eu683 2.609 . S
C681 C679 1.400 . S
C681 N680 1.321 . S
C681 H688 0.930 . S
C682 C677 1.395 . S
C682 C679 1.386 . S
C682 H701 0.930 . S
Eu683 N680 2.609 . S
Eu683 N684 2.657 . S
Eu683 O717 2.380 . S
Eu683 O718 2.432 . S
Eu683 O722 2.558 . S
Eu683 O723 2.612 . S
Eu683 O725 2.339 . S
Eu683 O726 2.563 . S
Eu683 O727 2.419 . S
Eu683 C747 2.848 . S
N684 C676 1.362 . S
N684 Eu683 2.657 . S
N684 C685 1.334 . S
C685 N684 1.334 . S
C685 C687 1.413 . S
C685 H692 0.929 . S
C686 C674 1.392 . S
C686 C687 1.367 1_545 S
C686 H694 0.930 . S
C687 C685 1.413 . S
C687 C686 1.367 1_565 S
C687 H689 0.930 . S
H688 C681 0.930 . S
H689 C687 0.930 . S
H690 C678 0.930 . S
H691 C679 0.930 . S
H692 C685 0.929 . S
H693 C707 0.930 . S
H694 C686 0.930 . S
H695 C713 0.930 . S
H696 C704 0.929 . S
H697 C711 0.930 . S
H698 C675 0.931 . S
H699 C705 0.930 . S
H700 C738 0.930 . S
H701 C682 0.930 . S
H702 C737 0.931 . S
N703 Eu672 2.657 . S
N703 C704 1.334 . S
N703 C708 1.362 . S
C704 H696 0.929 . S
C704 N703 1.334 . S
C704 C707 1.413 . S
C705 H699 0.930 . S
C705 C706 1.392 . S
C705 C707 1.367 . S
C706 C705 1.392 . S
C706 C708 1.420 . S
C706 C738 1.423 . S
C707 H693 0.930 . S
C707 C704 1.413 . S
C707 C705 1.367 . S
C708 N703 1.362 . S
C708 C706 1.420 . S
C708 C712 1.429 . S
H709 C714 0.930 . S
N710 Eu672 2.609 . S
N710 C712 1.377 . S
N710 C713 1.321 . S
C711 H697 0.930 . S
C711 C713 1.400 . S
C711 C714 1.386 . S
C712 C708 1.429 . S
C712 N710 1.377 . S
C712 C715 1.411 . S
C713 H695 0.930 . S
C713 N710 1.321 . S
C713 C711 1.400 . S
C714 H709 0.930 . S
C714 C711 1.386 . S
C714 C715 1.395 . S
C715 C712 1.411 . S
C715 C714 1.395 . S
C715 C737 1.420 . S
O716 Eu672 2.558 . S
O716 C736 1.257 . S
O717 Eu672 2.612 . S
O717 Eu683 2.380 . S
O717 C728 1.276 . S
O718 Eu683 2.432 . S
O718 C735 1.264 . S
O719 Eu672 2.339 . S
O719 C735 1.254 . S
O720 Eu672 2.563 . S
O720 C728 1.235 . S
O721 Eu672 2.419 . S
O721 C736 1.249 . S
O722 Eu683 2.558 . S
O722 C747 1.257 . S
O723 Eu672 2.380 . S
O723 Eu683 2.612 . S
O723 C739 1.276 . S
O724 Eu672 2.432 . S
O724 C746 1.264 . S
O725 Eu683 2.339 . S
O725 C746 1.254 . S
O726 Eu683 2.563 . S
O726 C739 1.235 . S
O727 Eu683 2.419 . S
O727 C747 1.249 . S
C728 O717 1.276 . S
C728 O720 1.235 . S
C729 C731 1.393 . S
C729 C733 1.395 . S
C729 C736 1.492 . S
C730 C731 1.392 . S
C730 C732 1.386 . S
C731 C729 1.393 . S
C731 C730 1.392 . S
C731 H748 0.930 . S
C732 C730 1.386 . S
C732 C734 1.395 . S
C732 H749 0.930 . S
C733 C729 1.395 . S
C733 C734 1.379 . S
C733 H750 0.930 . S
C734 C732 1.395 . S
C734 C733 1.379 . S
C734 H751 0.930 . S
C735 O718 1.264 . S
C735 O719 1.254 . S
C736 Eu672 2.848 . S
C736 O716 1.257 . S
C736 O721 1.249 . S
C736 C729 1.492 . S
C737 H702 0.931 . S
C737 C715 1.420 . S
C737 C738 1.351 . S
C738 H700 0.930 . S
C738 C706 1.423 . S
C738 C737 1.351 . S
C739 O723 1.276 . S
C739 O726 1.235 . S
C740 C741 1.393 . S
C740 C744 1.395 . S
C740 C747 1.492 . S
C741 C740 1.393 . S
C741 C742 1.392 . S
C741 H752 0.930 . S
C742 C741 1.392 . S
C742 C743 1.386 . S
C743 C742 1.386 . S
C743 C745 1.395 . S
C743 H753 0.930 . S
C744 C740 1.395 . S
C744 C745 1.379 . S
C744 H754 0.930 . S
C745 C743 1.395 . S
C745 C744 1.379 . S
C745 H755 0.930 . S
C746 O724 1.264 . S
C746 O725 1.254 . S
C747 Eu683 2.848 . S
C747 O722 1.257 . S
C747 O727 1.249 . S
C747 C740 1.492 . S
H748 C731 0.930 . S
H749 C732 0.930 . S
H750 C733 0.930 . S
H751 C734 0.930 . S
H752 C741 0.930 . S
H753 C743 0.930 . S
H754 C744 0.930 . S
H755 C745 0.930 . S
Eu756 N787 2.657 . S
Eu756 N794 2.609 . S
Eu756 O800 2.558 . S
Eu756 O801 2.612 . S
Eu756 O803 2.339 . S
Eu756 O804 2.563 . S
Eu756 O805 2.419 . S
Eu756 O807 2.380 . S
Eu756 O808 2.432 . S
Eu756 C820 2.848 . S
C757 C760 1.429 . S
C757 C761 1.411 . S
C757 N764 1.377 . S
C758 C760 1.420 . S
C758 C762 1.423 1_455 S
C758 C770 1.392 . S
C759 C761 1.420 1_655 S
C759 C762 1.351 . S
C759 H782 0.931 . S
C760 C757 1.429 . S
C760 C758 1.420 . S
C760 N768 1.362 . S
C761 C757 1.411 . S
C761 C759 1.420 1_455 S
C761 C766 1.395 . S
C762 C758 1.423 1_655 S
C762 C759 1.351 . S
C762 H774 0.930 . S
C763 C765 1.400 . S
C763 C766 1.386 . S
C763 H775 0.930 . S
N764 C757 1.377 . S
N764 C765 1.321 . S
N764 Eu767 2.609 . S
C765 C763 1.400 . S
C765 N764 1.321 . S
C765 H772 0.930 . S
C766 C761 1.395 . S
C766 C763 1.386 . S
C766 H785 0.930 . S
Eu767 N764 2.609 . S
Eu767 N768 2.657 . S
Eu767 O801 2.380 . S
Eu767 O802 2.432 . S
Eu767 O806 2.558 . S
Eu767 O807 2.612 . S
Eu767 O809 2.339 . S
Eu767 O810 2.563 . S
Eu767 O811 2.419 . S
Eu767 C831 2.848 . S
N768 C760 1.362 . S
N768 Eu767 2.657 . S
N768 C769 1.334 . S
C769 N768 1.334 . S
C769 C771 1.413 . S
C769 H776 0.929 . S
C770 C758 1.392 . S
C770 C771 1.367 . S
C770 H778 0.930 1_455 S
C771 C769 1.413 . S
C771 C770 1.367 . S
C771 H773 0.930 . S
H772 C765 0.930 . S
H773 C771 0.930 . S
H774 C762 0.930 . S
H775 C763 0.930 . S
H776 C769 0.929 . S
H777 C791 0.930 . S
H778 C770 0.930 1_655 S
H779 C797 0.930 . S
H780 C788 0.929 . S
H781 C795 0.930 1_554 S
H782 C759 0.931 . S
H783 C789 0.930 . S
H784 C822 0.930 . S
H785 C766 0.930 . S
H786 C821 0.931 . S
N787 Eu756 2.657 . S
N787 C788 1.334 . S
N787 C792 1.362 . S
C788 H780 0.929 . S
C788 N787 1.334 . S
C788 C791 1.413 . S
C789 H783 0.930 . S
C789 C790 1.392 . S
C789 C791 1.367 . S
C790 C789 1.392 . S
C790 C792 1.420 . S
C790 C822 1.423 . S
C791 H777 0.930 . S
C791 C788 1.413 . S
C791 C789 1.367 . S
C792 N787 1.362 . S
C792 C790 1.420 . S
C792 C796 1.429 . S
H793 C798 0.930 1_554 S
N794 Eu756 2.609 . S
N794 C796 1.377 . S
N794 C797 1.321 . S
C795 H781 0.930 1_556 S
C795 C797 1.400 . S
C795 C798 1.386 . S
C796 C792 1.429 . S
C796 N794 1.377 . S
C796 C799 1.411 . S
C797 H779 0.930 . S
C797 N794 1.321 . S
C797 C795 1.400 . S
C798 H793 0.930 1_556 S
C798 C795 1.386 . S
C798 C799 1.395 . S
C799 C796 1.411 . S
C799 C798 1.395 . S
C799 C821 1.420 . S
O800 Eu756 2.558 . S
O800 C820 1.257 . S
O801 Eu756 2.612 . S
O801 Eu767 2.380 . S
O801 C812 1.276 . S
O802 Eu767 2.432 . S
O802 C819 1.264 . S
O803 Eu756 2.339 . S
O803 C819 1.254 . S
O804 Eu756 2.563 . S
O804 C812 1.235 . S
O805 Eu756 2.419 . S
O805 C820 1.249 . S
O806 Eu767 2.558 . S
O806 C831 1.257 . S
O807 Eu756 2.380 . S
O807 Eu767 2.612 . S
O807 C823 1.276 . S
O808 Eu756 2.432 . S
O808 C830 1.264 . S
O809 Eu767 2.339 . S
O809 C830 1.254 . S
O810 Eu767 2.563 . S
O810 C823 1.235 . S
O811 Eu767 2.419 . S
O811 C831 1.249 . S
C812 O801 1.276 . S
C812 O804 1.235 . S
C813 C815 1.393 . S
C813 C817 1.395 . S
C813 C820 1.492 . S
C814 C815 1.392 . S
C814 C816 1.386 . S
C815 C813 1.393 . S
C815 C814 1.392 . S
C815 H832 0.930 . S
C816 C814 1.386 . S
C816 C818 1.395 . S
C816 H833 0.930 . S
C817 C813 1.395 . S
C817 C818 1.379 . S
C817 H834 0.930 . S
C818 C816 1.395 . S
C818 C817 1.379 . S
C818 H835 0.930 . S
C819 O802 1.264 . S
C819 O803 1.254 . S
C820 Eu756 2.848 . S
C820 O800 1.257 . S
C820 O805 1.249 . S
C820 C813 1.492 . S
C821 H786 0.931 . S
C821 C799 1.420 . S
C821 C822 1.351 . S
C822 H784 0.930 . S
C822 C790 1.423 . S
C822 C821 1.351 . S
C823 O807 1.276 . S
C823 O810 1.235 . S
C824 C825 1.393 . S
C824 C828 1.395 . S
C824 C831 1.492 1_655 S
C825 C824 1.393 . S
C825 C826 1.392 . S
C825 H836 0.930 . S
C826 C825 1.392 . S
C826 C827 1.386 . S
C827 C826 1.386 . S
C827 C829 1.395 . S
C827 H837 0.930 . S
C828 C824 1.395 . S
C828 C829 1.379 . S
C828 H838 0.930 . S
C829 C827 1.395 . S
C829 C828 1.379 . S
C829 H839 0.930 . S
C830 O808 1.264 . S
C830 O809 1.254 . S
C831 Eu767 2.848 . S
C831 O806 1.257 . S
C831 O811 1.249 . S
C831 C824 1.492 1_455 S
H832 C815 0.930 . S
H833 C816 0.930 . S
H834 C817 0.930 . S
H835 C818 0.930 . S
H836 C825 0.930 . S
H837 C827 0.930 . S
H838 C828 0.930 . S
H839 C829 0.930 . S
Eu840 N871 2.657 . S
Eu840 N878 2.609 . S
Eu840 O884 2.558 . S
Eu840 O885 2.612 . S
Eu840 O887 2.339 . S
Eu840 O888 2.563 . S
Eu840 O889 2.419 . S
Eu840 O891 2.380 . S
Eu840 O892 2.432 . S
Eu840 C904 2.848 . S
C841 C844 1.429 . S
C841 C845 1.411 . S
C841 N848 1.377 . S
C842 C844 1.420 1_655 S
C842 C846 1.423 . S
C842 C854 1.392 . S
C843 C845 1.420 1_655 S
C843 C846 1.351 . S
C843 H866 0.931 . S
C844 C841 1.429 . S
C844 C842 1.420 1_455 S
C844 N852 1.362 . S
C845 C841 1.411 . S
C845 C843 1.420 1_455 S
C845 C850 1.395 . S
C846 C842 1.423 . S
C846 C843 1.351 . S
C846 H858 0.930 . S
C847 C849 1.400 . S
C847 C850 1.386 . S
C847 H859 0.930 . S
N848 C841 1.377 . S
N848 C849 1.321 . S
N848 Eu851 2.609 . S
C849 C847 1.400 . S
C849 N848 1.321 . S
C849 H856 0.930 . S
C850 C845 1.395 . S
C850 C847 1.386 . S
C850 H869 0.930 . S
Eu851 N848 2.609 . S
Eu851 N852 2.657 . S
Eu851 O885 2.380 . S
Eu851 O886 2.432 . S
Eu851 O890 2.558 . S
Eu851 O891 2.612 . S
Eu851 O893 2.339 . S
Eu851 O894 2.563 . S
Eu851 O895 2.419 . S
Eu851 C915 2.848 . S
N852 C844 1.362 . S
N852 Eu851 2.657 . S
N852 C853 1.334 . S
C853 N852 1.334 . S
C853 C855 1.413 . S
C853 H860 0.929 . S
C854 C842 1.392 . S
C854 C855 1.367 1_655 S
C854 H862 0.930 . S
C855 C853 1.413 . S
C855 C854 1.367 1_455 S
C855 H857 0.930 . S
H856 C849 0.930 . S
H857 C855 0.930 . S
H858 C846 0.930 . S
H859 C847 0.930 . S
H860 C853 0.929 . S
H861 C875 0.930 . S
H862 C854 0.930 . S
H863 C881 0.930 . S
H864 C872 0.929 . S
H865 C879 0.930 . S
H866 C843 0.931 . S
H867 C873 0.930 1_545 S
H868 C906 0.930 . S
H869 C850 0.930 . S
H870 C905 0.931 . S
N871 Eu840 2.657 . S
N871 C872 1.334 . S
N871 C876 1.362 . S
C872 H864 0.929 . S
C872 N871 1.334 . S
C872 C875 1.413 . S
C873 H867 0.930 1_565 S
C873 C874 1.392 . S
C873 C875 1.367 . S
C874 C873 1.392 . S
C874 C876 1.420 . S
C874 C906 1.423 1_565 S
C875 H861 0.930 . S
C875 C872 1.413 . S
C875 C873 1.367 . S
C876 N871 1.362 . S
C876 C874 1.420 . S
C876 C880 1.429 . S
H877 C882 0.930 . S
N878 Eu840 2.609 . S
N878 C880 1.377 . S
N878 C881 1.321 . S
C879 H865 0.930 . S
C879 C881 1.400 . S
C879 C882 1.386 . S
C880 C876 1.429 . S
C880 N878 1.377 . S
C880 C883 1.411 . S
C881 H863 0.930 . S
C881 N878 1.321 . S
C881 C879 1.400 . S
C882 H877 0.930 . S
C882 C879 1.386 . S
C882 C883 1.395 . S
C883 C880 1.411 . S
C883 C882 1.395 . S
C883 C905 1.420 1_565 S
O884 Eu840 2.558 . S
O884 C904 1.257 . S
O885 Eu840 2.612 . S
O885 Eu851 2.380 . S
O885 C896 1.276 . S
O886 Eu851 2.432 . S
O886 C903 1.264 . S
O887 Eu840 2.339 . S
O887 C903 1.254 . S
O888 Eu840 2.563 . S
O888 C896 1.235 . S
O889 Eu840 2.419 . S
O889 C904 1.249 . S
O890 Eu851 2.558 . S
O890 C915 1.257 . S
O891 Eu840 2.380 . S
O891 Eu851 2.612 . S
O891 C907 1.276 . S
O892 Eu840 2.432 . S
O892 C914 1.264 . S
O893 Eu851 2.339 . S
O893 C914 1.254 . S
O894 Eu851 2.563 . S
O894 C907 1.235 . S
O895 Eu851 2.419 . S
O895 C915 1.249 . S
C896 O885 1.276 . S
C896 O888 1.235 . S
C897 C899 1.393 . S
C897 C901 1.395 . S
C897 C904 1.492 1_545 S
C898 C899 1.392 . S
C898 C900 1.386 . S
C899 C897 1.393 . S
C899 C898 1.392 . S
C899 H916 0.930 . S
C900 C898 1.386 . S
C900 C902 1.395 . S
C900 H917 0.930 . S
C901 C897 1.395 . S
C901 C902 1.379 . S
C901 H918 0.930 . S
C902 C900 1.395 . S
C902 C901 1.379 . S
C902 H919 0.930 . S
C903 O886 1.264 . S
C903 O887 1.254 . S
C904 Eu840 2.848 . S
C904 O884 1.257 . S
C904 O889 1.249 . S
C904 C897 1.492 1_565 S
C905 H870 0.931 . S
C905 C883 1.420 1_545 S
C905 C906 1.351 . S
C906 H868 0.930 . S
C906 C874 1.423 1_545 S
C906 C905 1.351 . S
C907 O891 1.276 . S
C907 O894 1.235 . S
C908 C909 1.393 . S
C908 C912 1.395 . S
C908 C915 1.492 . S
C909 C908 1.393 . S
C909 C910 1.392 . S
C909 H920 0.930 . S
C910 C909 1.392 . S
C910 C911 1.386 . S
C911 C910 1.386 . S
C911 C913 1.395 . S
C911 H921 0.930 . S
C912 C908 1.395 . S
C912 C913 1.379 . S
C912 H922 0.930 . S
C913 C911 1.395 . S
C913 C912 1.379 . S
C913 H923 0.930 . S
C914 O892 1.264 . S
C914 O893 1.254 . S
C915 Eu851 2.848 . S
C915 O890 1.257 . S
C915 O895 1.249 . S
C915 C908 1.492 . S
H916 C899 0.930 . S
H917 C900 0.930 . S
H918 C901 0.930 . S
H919 C902 0.930 . S
H920 C909 0.930 . S
H921 C911 0.930 . S
H922 C912 0.930 . S
H923 C913 0.930 . S
Eu924 N955 2.657 . S
Eu924 N962 2.609 . S
Eu924 O968 2.558 . S
Eu924 O969 2.612 . S
Eu924 O971 2.339 . S
Eu924 O972 2.563 . S
Eu924 O973 2.419 . S
Eu924 O975 2.380 . S
Eu924 O976 2.432 . S
Eu924 C988 2.848 . S
C925 C928 1.429 . S
C925 C929 1.411 . S
C925 N932 1.377 . S
C926 C928 1.420 . S
C926 C930 1.423 . S
C926 C938 1.392 . S
C927 C929 1.420 . S
C927 C930 1.351 . S
C927 H950 0.931 . S
C928 C925 1.429 . S
C928 C926 1.420 . S
C928 N936 1.362 . S
C929 C925 1.411 . S
C929 C927 1.420 . S
C929 C934 1.395 . S
C930 C926 1.423 . S
C930 C927 1.351 . S
C930 H942 0.930 . S
C931 C933 1.400 . S
C931 C934 1.386 . S
C931 H943 0.930 . S
N932 C925 1.377 . S
N932 C933 1.321 . S
N932 Eu935 2.609 . S
C933 C931 1.400 . S
C933 N932 1.321 . S
C933 H940 0.930 . S
C934 C929 1.395 . S
C934 C931 1.386 . S
C934 H953 0.930 . S
Eu935 N932 2.609 . S
Eu935 N936 2.657 . S
Eu935 O969 2.380 . S
Eu935 O970 2.432 . S
Eu935 O974 2.558 . S
Eu935 O975 2.612 . S
Eu935 O977 2.339 . S
Eu935 O978 2.563 . S
Eu935 O979 2.419 . S
Eu935 C999 2.848 . S
N936 C928 1.362 . S
N936 Eu935 2.657 . S
N936 C937 1.334 . S
C937 N936 1.334 . S
C937 C939 1.413 . S
C937 H944 0.929 . S
C938 C926 1.392 . S
C938 C939 1.367 . S
C938 H946 0.930 . S
C939 C937 1.413 . S
C939 C938 1.367 . S
C939 H941 0.930 . S
H940 C933 0.930 . S
H941 C939 0.930 . S
H942 C930 0.930 . S
H943 C931 0.930 . S
H944 C937 0.929 . S
H945 C959 0.930 . S
H946 C938 0.930 . S
H947 C965 0.930 . S
H948 C956 0.929 . S
H949 C963 0.930 1_554 S
H950 C927 0.931 . S
H951 C957 0.930 . S
H952 C990 0.930 . S
H953 C934 0.930 . S
H954 C989 0.931 . S
N955 Eu924 2.657 . S
N955 C956 1.334 . S
N955 C960 1.362 . S
C956 H948 0.929 . S
C956 N955 1.334 . S
C956 C959 1.413 . S
C957 H951 0.930 . S
C957 C958 1.392 . S
C957 C959 1.367 1_545 S
C958 C957 1.392 . S
C958 C960 1.420 1_545 S
C958 C990 1.423 . S
C959 H945 0.930 . S
C959 C956 1.413 . S
C959 C957 1.367 1_565 S
C960 N955 1.362 . S
C960 C958 1.420 1_565 S
C960 C964 1.429 . S
H961 C966 0.930 1_554 S
N962 Eu924 2.609 . S
N962 C964 1.377 . S
N962 C965 1.321 . S
C963 H949 0.930 1_556 S
C963 C965 1.400 . S
C963 C966 1.386 . S
C964 C960 1.429 . S
C964 N962 1.377 . S
C964 C967 1.411 . S
C965 H947 0.930 . S
C965 N962 1.321 . S
C965 C963 1.400 . S
C966 H961 0.930 1_556 S
C966 C963 1.386 . S
C966 C967 1.395 . S
C967 C964 1.411 . S
C967 C966 1.395 . S
C967 C989 1.420 1_565 S
O968 Eu924 2.558 . S
O968 C988 1.257 . S
O969 Eu924 2.612 . S
O969 Eu935 2.380 . S
O969 C980 1.276 . S
O970 Eu935 2.432 . S
O970 C987 1.264 . S
O971 Eu924 2.339 . S
O971 C987 1.254 . S
O972 Eu924 2.563 . S
O972 C980 1.235 . S
O973 Eu924 2.419 . S
O973 C988 1.249 . S
O974 Eu935 2.558 . S
O974 C999 1.257 . S
O975 Eu924 2.380 . S
O975 Eu935 2.612 . S
O975 C991 1.276 . S
O976 Eu924 2.432 . S
O976 C998 1.264 . S
O977 Eu935 2.339 . S
O977 C998 1.254 . S
O978 Eu935 2.563 . S
O978 C991 1.235 . S
O979 Eu935 2.419 . S
O979 C999 1.249 . S
C980 O969 1.276 . S
C980 O972 1.235 . S
C981 C983 1.393 . S
C981 C985 1.395 . S
C981 C988 1.492 . S
C982 C983 1.392 . S
C982 C984 1.386 . S
C983 C981 1.393 . S
C983 C982 1.392 . S
C983 H1000 0.930 . S
C984 C982 1.386 . S
C984 C986 1.395 . S
C984 H1001 0.930 . S
C985 C981 1.395 . S
C985 C986 1.379 . S
C985 H1002 0.930 . S
C986 C984 1.395 . S
C986 C985 1.379 . S
C986 H1003 0.930 . S
C987 O970 1.264 . S
C987 O971 1.254 . S
C988 Eu924 2.848 . S
C988 O968 1.257 . S
C988 O973 1.249 . S
C988 C981 1.492 . S
C989 H954 0.931 . S
C989 C967 1.420 1_545 S
C989 C990 1.351 . S
C990 H952 0.930 . S
C990 C958 1.423 . S
C990 C989 1.351 . S
C991 O975 1.276 . S
C991 O978 1.235 . S
C992 C993 1.393 . S
C992 C996 1.395 . S
C992 C999 1.492 . S
C993 C992 1.393 . S
C993 C994 1.392 . S
C993 H1004 0.930 . S
C994 C993 1.392 . S
C994 C995 1.386 . S
C995 C994 1.386 . S
C995 C997 1.395 . S
C995 H1005 0.930 . S
C996 C992 1.395 . S
C996 C997 1.379 . S
C996 H1006 0.930 . S
C997 C995 1.395 . S
C997 C996 1.379 . S
C997 H1007 0.930 . S
C998 O976 1.264 . S
C998 O977 1.254 . S
C999 Eu935 2.848 . S
C999 O974 1.257 . S
C999 O979 1.249 . S
C999 C992 1.492 . S
H1000 C983 0.930 . S
H1001 C984 0.930 . S
H1002 C985 0.930 . S
H1003 C986 0.930 . S
H1004 C993 0.930 . S
H1005 C995 0.930 . S
H1006 C996 0.930 . S
H1007 C997 0.930 . S
H1008 C1014 0.930 . S
H1009 C1017 0.930 . S
H1010 C1018 0.930 . S
H1011 C1019 0.930 . S
H1012 C1022 0.930 . S
H1013 C1023 0.930 . S
C1014 H1008 0.930 . S
C1014 C1015 1.355 . S
C1014 C1016 1.415 . S
C1015 C1014 1.355 . S
C1015 C1017 1.419 . S
C1016 C1014 1.415 . S
C1016 C1021 1.425 . S
C1016 C1023 1.409 . S
C1017 H1009 0.930 . S
C1017 C1015 1.419 . S
C1017 C1018 1.362 . S
C1018 H1010 0.930 . S
C1018 C1017 1.362 . S
C1018 C1021 1.409 . S
C1019 H1011 0.930 . S
C1019 C1020 1.355 . S
C1019 C1021 1.415 . S
C1020 C1019 1.355 . S
C1020 C1022 1.419 . S
C1021 C1016 1.425 . S
C1021 C1018 1.409 . S
C1021 C1019 1.415 . S
C1022 H1012 0.930 . S
C1022 C1020 1.419 . S
C1022 C1023 1.362 . S
C1023 H1013 0.930 . S
C1023 C1016 1.409 . S
C1023 C1022 1.362 . S
H1024 C1030 0.930 . S
H1025 C1033 0.930 . S
H1026 C1034 0.930 . S
H1027 C1035 0.930 . S
H1028 C1038 0.930 . S
H1029 C1039 0.930 . S
C1030 H1024 0.930 . S
C1030 C1031 1.355 . S
C1030 C1032 1.415 . S
C1031 C1030 1.355 . S
C1031 C1033 1.419 . S
C1032 C1030 1.415 . S
C1032 C1037 1.425 1_455 S
C1032 C1039 1.409 1_455 S
C1033 H1025 0.930 . S
C1033 C1031 1.419 . S
C1033 C1034 1.362 . S
C1034 H1026 0.930 . S
C1034 C1033 1.362 . S
C1034 C1037 1.409 1_455 S
C1035 H1027 0.930 . S
C1035 C1036 1.355 . S
C1035 C1037 1.415 . S
C1036 C1035 1.355 . S
C1036 C1038 1.419 . S
C1037 C1032 1.425 1_655 S
C1037 C1034 1.409 1_655 S
C1037 C1035 1.415 . S
C1038 H1028 0.930 . S
C1038 C1036 1.419 . S
C1038 C1039 1.362 . S
C1039 H1029 0.930 . S
C1039 C1032 1.409 1_655 S
C1039 C1038 1.362 . S
H1040 C1046 0.930 . S
H1041 C1049 0.930 . S
H1042 C1050 0.931 . S
H1043 C1051 0.930 . S
H1044 C1054 0.930 . S
H1045 C1055 0.930 1_545 S
C1046 H1040 0.930 . S
C1046 C1047 1.355 . S
C1046 C1048 1.415 . S
C1047 C1046 1.355 . S
C1047 C1049 1.419 . S
C1048 C1046 1.415 . S
C1048 C1053 1.425 1_545 S
C1048 C1055 1.409 1_545 S
C1049 H1041 0.930 . S
C1049 C1047 1.419 . S
C1049 C1050 1.356 1_545 S
C1050 H1042 0.931 . S
C1050 C1049 1.356 1_565 S
C1050 C1053 1.414 . S
C1051 H1043 0.930 . S
C1051 C1052 1.355 . S
C1051 C1053 1.415 . S
C1052 C1051 1.355 . S
C1052 C1054 1.419 . S
C1053 C1048 1.425 1_565 S
C1053 C1050 1.414 . S
C1053 C1051 1.415 . S
C1054 H1044 0.930 . S
C1054 C1052 1.419 . S
C1054 C1055 1.362 . S
C1055 H1045 0.930 1_565 S
C1055 C1048 1.409 1_565 S
C1055 C1054 1.362 . S
H1056 C1062 0.930 . S
H1057 C1065 0.930 . S
H1058 C1066 0.930 . S
H1059 C1067 0.930 . S
H1060 C1070 0.930 . S
H1061 C1071 0.930 . S
C1062 H1056 0.930 . S
C1062 C1063 1.355 . S
C1062 C1064 1.415 . S
C1063 C1062 1.355 . S
C1063 C1065 1.419 . S
C1064 C1062 1.415 . S
C1064 C1069 1.425 . S
C1064 C1071 1.409 . S
C1065 H1057 0.930 . S
C1065 C1063 1.419 . S
C1065 C1066 1.362 . S
C1066 H1058 0.930 . S
C1066 C1065 1.362 . S
C1066 C1069 1.409 . S
C1067 H1059 0.930 . S
C1067 C1068 1.355 . S
C1067 C1069 1.415 . S
C1068 C1067 1.355 . S
C1068 C1070 1.419 . S
C1069 C1064 1.425 . S
C1069 C1066 1.409 . S
C1069 C1067 1.415 . S
C1070 H1060 0.930 . S
C1070 C1068 1.419 . S
C1070 C1071 1.362 . S
C1071 H1061 0.930 . S
C1071 C1064 1.409 . S
C1071 C1070 1.362 . S
H1072 C1078 0.930 . S
H1073 C1081 0.930 . S
H1074 C1082 0.930 1_655 S
H1075 C1083 0.930 . S
H1076 C1086 0.930 . S
H1077 C1087 0.930 1_455 S
C1078 H1072 0.930 . S
C1078 C1079 1.355 . S
C1078 C1080 1.415 . S
C1079 C1078 1.355 . S
C1079 C1081 1.419 . S
C1080 C1078 1.415 . S
C1080 C1085 1.425 1_455 S
C1080 C1087 1.409 1_455 S
C1081 H1073 0.930 . S
C1081 C1079 1.419 . S
C1081 C1082 1.362 . S
C1082 H1074 0.930 1_455 S
C1082 C1081 1.362 . S
C1082 C1085 1.409 1_455 S
C1083 H1075 0.930 . S
C1083 C1084 1.355 . S
C1083 C1085 1.415 . S
C1084 C1083 1.355 . S
C1084 C1086 1.419 . S
C1085 C1080 1.425 1_655 S
C1085 C1082 1.409 1_655 S
C1085 C1083 1.415 . S
C1086 H1076 0.930 . S
C1086 C1084 1.419 . S
C1086 C1087 1.362 . S
C1087 H1077 0.930 1_655 S
C1087 C1080 1.409 1_655 S
C1087 C1086 1.362 . S
H1088 C1094 0.930 . S
H1089 C1097 0.930 . S
H1090 C1098 0.930 1_545 S
H1091 C1099 0.930 . S
H1092 C1102 0.930 . S
H1093 C1103 0.931 . S
C1094 H1088 0.930 . S
C1094 C1095 1.355 . S
C1094 C1096 1.415 . S
C1095 C1094 1.355 . S
C1095 C1097 1.419 . S
C1096 C1094 1.415 . S
C1096 C1101 1.425 1_565 S
C1096 C1103 1.414 . S
C1097 H1089 0.930 . S
C1097 C1095 1.419 . S
C1097 C1098 1.362 . S
C1098 H1090 0.930 1_565 S
C1098 C1097 1.362 . S
C1098 C1101 1.409 1_565 S
C1099 H1091 0.930 . S
C1099 C1100 1.355 . S
C1099 C1101 1.415 . S
C1100 C1099 1.355 . S
C1100 C1102 1.419 . S
C1101 C1096 1.425 1_545 S
C1101 C1098 1.409 1_545 S
C1101 C1099 1.415 . S
C1102 H1092 0.930 . S
C1102 C1100 1.419 . S
C1102 C1103 1.356 1_545 S
C1103 H1093 0.931 . S
C1103 C1096 1.414 . S
C1103 C1102 1.356 1_565 S
H1104 C1110 0.930 . S
H1105 C1113 0.930 . S
H1106 C1114 0.930 . S
H1107 C1115 0.930 . S
H1108 C1118 0.930 . S
H1109 C1119 0.930 . S
C1110 H1104 0.930 . S
C1110 C1111 1.355 . S
C1110 C1112 1.415 . S
C1111 C1110 1.355 . S
C1111 C1113 1.419 . S
C1112 C1110 1.415 . S
C1112 C1117 1.425 . S
C1112 C1119 1.409 . S
C1113 H1105 0.930 . S
C1113 C1111 1.419 . S
C1113 C1114 1.362 . S
C1114 H1106 0.930 . S
C1114 C1113 1.362 . S
C1114 C1117 1.409 . S
C1115 H1107 0.930 . S
C1115 C1116 1.355 . S
C1115 C1117 1.415 . S
C1116 C1115 1.355 . S
C1116 C1118 1.419 . S
C1117 C1112 1.425 . S
C1117 C1114 1.409 . S
C1117 C1115 1.415 . S
C1118 H1108 0.930 . S
C1118 C1116 1.419 . S
C1118 C1119 1.362 . S
C1119 H1109 0.930 . S
C1119 C1112 1.409 . S
C1119 C1118 1.362 . S
H1120 C1126 0.930 . S
H1121 C1129 0.930 . S
H1122 C1130 0.930 . S
H1123 C1131 0.930 . S
H1124 C1134 0.930 . S
H1125 C1135 0.930 . S
C1126 H1120 0.930 . S
C1126 C1127 1.355 . S
C1126 C1128 1.415 1_455 S
C1127 C1126 1.355 . S
C1127 C1129 1.419 . S
C1128 C1126 1.415 1_655 S
C1128 C1133 1.425 . S
C1128 C1135 1.409 . S
C1129 H1121 0.930 . S
C1129 C1127 1.419 . S
C1129 C1130 1.362 . S
C1130 H1122 0.930 . S
C1130 C1129 1.362 . S
C1130 C1133 1.409 1_455 S
C1131 H1123 0.930 . S
C1131 C1132 1.355 . S
C1131 C1133 1.415 . S
C1132 C1131 1.355 . S
C1132 C1134 1.419 . S
C1133 C1128 1.425 . S
C1133 C1130 1.409 1_655 S
C1133 C1131 1.415 . S
C1134 H1124 0.930 . S
C1134 C1132 1.419 . S
C1134 C1135 1.362 . S
C1135 H1125 0.930 . S
C1135 C1128 1.409 . S
C1135 C1134 1.362 . S
H1136 C1142 0.930 . S
H1137 C1145 0.930 . S
H1138 C1146 0.930 . S
H1139 C1147 0.930 . S
H1140 C1150 0.930 . S
H1141 C1151 0.930 . S
C1142 H1136 0.930 . S
C1142 C1143 1.355 . S
C1142 C1144 1.415 1_565 S
C1143 C1142 1.355 . S
C1143 C1145 1.419 . S
C1144 C1142 1.415 1_545 S
C1144 C1149 1.425 . S
C1144 C1151 1.409 . S
C1145 H1137 0.930 . S
C1145 C1143 1.419 . S
C1145 C1146 1.362 . S
C1146 H1138 0.930 . S
C1146 C1145 1.362 . S
C1146 C1149 1.409 1_565 S
C1147 H1139 0.930 . S
C1147 C1148 1.355 . S
C1147 C1149 1.415 . S
C1148 C1147 1.355 . S
C1148 C1150 1.419 . S
C1149 C1144 1.425 . S
C1149 C1146 1.409 1_545 S
C1149 C1147 1.415 . S
C1150 H1140 0.930 . S
C1150 C1148 1.419 . S
C1150 C1151 1.362 . S
C1151 H1141 0.930 . S
C1151 C1144 1.409 . S
C1151 C1150 1.362 . S
H1152 C1158 0.930 . S
H1153 C1161 0.930 . S
H1154 C1162 0.930 . S
H1155 C1163 0.930 . S
H1156 C1166 0.930 . S
H1157 C1167 0.930 . S
C1158 H1152 0.930 . S
C1158 C1159 1.355 . S
C1158 C1160 1.415 . S
C1159 C1158 1.355 . S
C1159 C1161 1.419 . S
C1160 C1158 1.415 . S
C1160 C1165 1.425 . S
C1160 C1167 1.409 . S
C1161 H1153 0.930 . S
C1161 C1159 1.419 . S
C1161 C1162 1.362 . S
C1162 H1154 0.930 . S
C1162 C1161 1.362 . S
C1162 C1165 1.409 . S
C1163 H1155 0.930 . S
C1163 C1164 1.355 . S
C1163 C1165 1.415 . S
C1164 C1163 1.355 . S
C1164 C1166 1.419 . S
C1165 C1160 1.425 . S
C1165 C1162 1.409 . S
C1165 C1163 1.415 . S
C1166 H1156 0.930 . S
C1166 C1164 1.419 . S
C1166 C1167 1.362 . S
C1167 H1157 0.930 . S
C1167 C1160 1.409 . S
C1167 C1166 1.362 . S
H1168 C1174 0.930 . S
H1169 C1177 0.930 . S
H1170 C1178 0.931 . S
H1171 C1179 0.930 . S
H1172 C1182 0.930 . S
H1173 C1183 0.930 1_455 S
C1174 H1168 0.930 . S
C1174 C1175 1.355 . S
C1174 C1176 1.415 . S
C1175 C1174 1.355 . S
C1175 C1177 1.419 . S
C1176 C1174 1.415 . S
C1176 C1181 1.425 1_455 S
C1176 C1183 1.409 1_455 S
C1177 H1169 0.930 . S
C1177 C1175 1.419 . S
C1177 C1178 1.360 1_455 S
C1178 H1170 0.931 . S
C1178 C1177 1.360 1_655 S
C1178 C1181 1.411 . S
C1179 H1171 0.930 . S
C1179 C1180 1.355 . S
C1179 C1181 1.415 . S
C1180 C1179 1.355 . S
C1180 C1182 1.419 . S
C1181 C1176 1.425 1_655 S
C1181 C1178 1.411 . S
C1181 C1179 1.415 . S
C1182 H1172 0.930 . S
C1182 C1180 1.419 . S
C1182 C1183 1.362 . S
C1183 H1173 0.930 1_655 S
C1183 C1176 1.409 1_655 S
C1183 C1182 1.362 . S
H1184 C1190 0.930 . S
H1185 C1193 0.930 . S
H1186 C1194 0.930 . S
H1187 C1195 0.930 . S
H1188 C1198 0.930 . S
H1189 C1199 0.930 . S
C1190 H1184 0.930 . S
C1190 C1191 1.355 . S
C1190 C1192 1.415 . S
C1191 C1190 1.355 . S
C1191 C1193 1.419 . S
C1192 C1190 1.415 . S
C1192 C1197 1.428 1_545 S
C1192 C1199 1.409 1_545 S
C1193 H1185 0.930 . S
C1193 C1191 1.419 . S
C1193 C1194 1.362 . S
C1194 H1186 0.930 . S
C1194 C1193 1.362 . S
C1194 C1197 1.391 1_545 S
C1195 H1187 0.930 . S
C1195 C1196 1.355 . S
C1195 C1197 1.431 . S
C1196 C1195 1.355 . S
C1196 C1198 1.419 . S
C1197 C1192 1.428 1_565 S
C1197 C1194 1.391 1_565 S
C1197 C1195 1.431 . S
C1198 H1188 0.930 . S
C1198 C1196 1.419 . S
C1198 C1199 1.362 . S
C1199 H1189 0.930 . S
C1199 C1192 1.409 1_565 S
C1199 C1198 1.362 . S
H1200 C1206 0.930 . S
H1201 C1209 0.930 . S
H1202 C1210 0.930 . S
H1203 C1211 0.930 . S
H1204 C1214 0.930 . S
H1205 C1215 0.930 . S
C1206 H1200 0.930 . S
C1206 C1207 1.355 . S
C1206 C1208 1.415 . S
C1207 C1206 1.355 . S
C1207 C1209 1.419 . S
C1208 C1206 1.415 . S
C1208 C1213 1.425 . S
C1208 C1215 1.409 . S
C1209 H1201 0.930 . S
C1209 C1207 1.419 . S
C1209 C1210 1.362 . S
C1210 H1202 0.930 . S
C1210 C1209 1.362 . S
C1210 C1213 1.409 . S
C1211 H1203 0.930 . S
C1211 C1212 1.355 . S
C1211 C1213 1.415 . S
C1212 C1211 1.355 . S
C1212 C1214 1.419 . S
C1213 C1208 1.425 . S
C1213 C1210 1.409 . S
C1213 C1211 1.415 . S
C1214 H1204 0.930 . S
C1214 C1212 1.419 . S
C1214 C1215 1.362 . S
C1215 H1205 0.930 . S
C1215 C1208 1.409 . S
C1215 C1214 1.362 . S
H1216 C1222 0.930 . S
H1217 C1225 0.930 . S
H1218 C1226 0.930 . S
H1219 C1227 0.930 . S
H1220 C1230 0.930 . S
H1221 C1231 0.930 . S
C1222 H1216 0.930 . S
C1222 C1223 1.355 . S
C1222 C1224 1.415 . S
C1223 C1222 1.355 . S
C1223 C1225 1.419 . S
C1224 C1222 1.415 . S
C1224 C1229 1.425 . S
C1224 C1231 1.409 . S
C1225 H1217 0.930 . S
C1225 C1223 1.419 . S
C1225 C1226 1.362 . S
C1226 H1218 0.930 . S
C1226 C1225 1.362 . S
C1226 C1229 1.409 . S
C1227 H1219 0.930 . S
C1227 C1228 1.355 . S
C1227 C1229 1.415 . S
C1228 C1227 1.355 . S
C1228 C1230 1.419 . S
C1229 C1224 1.425 . S
C1229 C1226 1.409 . S
C1229 C1227 1.415 . S
C1230 H1220 0.930 . S
C1230 C1228 1.419 . S
C1230 C1231 1.362 . S
C1231 H1221 0.930 . S
C1231 C1224 1.409 . S
C1231 C1230 1.362 . S
H1232 C1238 0.930 . S
H1233 C1241 0.930 . S
H1234 C1242 0.930 . S
H1235 C1243 0.930 . S
H1236 C1246 0.930 . S
H1237 C1247 0.930 . S
C1238 H1232 0.930 . S
C1238 C1239 1.355 . S
C1238 C1240 1.415 . S
C1239 C1238 1.355 . S
C1239 C1241 1.419 . S
C1240 C1238 1.415 . S
C1240 C1245 1.425 . S
C1240 C1247 1.409 . S
C1241 H1233 0.930 . S
C1241 C1239 1.419 . S
C1241 C1242 1.362 . S
C1242 H1234 0.930 . S
C1242 C1241 1.362 . S
C1242 C1245 1.409 . S
C1243 H1235 0.930 . S
C1243 C1244 1.355 . S
C1243 C1245 1.415 . S
C1244 C1243 1.355 . S
C1244 C1246 1.419 . S
C1245 C1240 1.425 . S
C1245 C1242 1.409 . S
C1245 C1243 1.415 . S
C1246 H1236 0.930 . S
C1246 C1244 1.419 . S
C1246 C1247 1.362 . S
C1247 H1237 0.930 . S
C1247 C1240 1.409 . S
C1247 C1246 1.362 . S
H1248 C1254 0.930 . S
H1249 C1257 0.930 . S
H1250 C1258 0.930 . S
H1251 C1259 0.930 . S
H1252 C1262 0.930 . S
H1253 C1263 0.930 . S
C1254 H1248 0.930 . S
C1254 C1255 1.355 . S
C1254 C1256 1.415 . S
C1255 C1254 1.355 . S
C1255 C1257 1.419 . S
C1256 C1254 1.415 . S
C1256 C1261 1.425 . S
C1256 C1263 1.409 . S
C1257 H1249 0.930 . S
C1257 C1255 1.419 . S
C1257 C1258 1.362 . S
C1258 H1250 0.930 . S
C1258 C1257 1.362 . S
C1258 C1261 1.409 . S
C1259 H1251 0.930 . S
C1259 C1260 1.355 . S
C1259 C1261 1.415 . S
C1260 C1259 1.355 . S
C1260 C1262 1.419 . S
C1261 C1256 1.425 . S
C1261 C1258 1.409 . S
C1261 C1259 1.415 . S
C1262 H1252 0.930 . S
C1262 C1260 1.419 . S
C1262 C1263 1.362 . S
C1263 H1253 0.930 . S
C1263 C1256 1.409 . S
C1263 C1262 1.362 . S
H1264 C1270 0.930 . S
H1265 C1273 0.930 . S
H1266 C1274 0.930 . S
H1267 C1275 0.930 . S
H1268 C1278 0.930 . S
H1269 C1279 0.930 . S
C1270 H1264 0.930 . S
C1270 C1271 1.355 . S
C1270 C1272 1.415 . S
C1271 C1270 1.355 . S
C1271 C1273 1.419 . S
C1272 C1270 1.415 . S
C1272 C1277 1.425 . S
C1272 C1279 1.409 . S
C1273 H1265 0.930 . S
C1273 C1271 1.419 . S
C1273 C1274 1.362 . S
C1274 H1266 0.930 . S
C1274 C1273 1.362 . S
C1274 C1277 1.409 . S
C1275 H1267 0.930 . S
C1275 C1276 1.355 . S
C1275 C1277 1.415 . S
C1276 C1275 1.355 . S
C1276 C1278 1.419 . S
C1277 C1272 1.425 . S
C1277 C1274 1.409 . S
C1277 C1275 1.415 . S
C1278 H1268 0.930 . S
C1278 C1276 1.419 . S
C1278 C1279 1.362 . S
C1279 H1269 0.930 . S
C1279 C1272 1.409 . S
C1279 C1278 1.362 . S
H1280 C1286 0.930 . S
H1281 C1289 0.930 . S
H1282 C1290 0.930 . S
H1283 C1291 0.930 . S
H1284 C1294 0.930 . S
H1285 C1295 0.930 . S
C1286 H1280 0.930 . S
C1286 C1287 1.355 . S
C1286 C1288 1.415 . S
C1287 C1286 1.355 . S
C1287 C1289 1.419 . S
C1288 C1286 1.415 . S
C1288 C1293 1.425 . S
C1288 C1295 1.409 . S
C1289 H1281 0.930 . S
C1289 C1287 1.419 . S
C1289 C1290 1.362 . S
C1290 H1282 0.930 . S
C1290 C1289 1.362 . S
C1290 C1293 1.409 . S
C1291 H1283 0.930 . S
C1291 C1292 1.355 . S
C1291 C1293 1.415 . S
C1292 C1291 1.355 . S
C1292 C1294 1.419 . S
C1293 C1288 1.425 . S
C1293 C1290 1.409 . S
C1293 C1291 1.415 . S
C1294 H1284 0.930 . S
C1294 C1292 1.419 . S
C1294 C1295 1.362 . S
C1295 H1285 0.930 . S
C1295 C1288 1.409 . S
C1295 C1294 1.362 . S
H1296 C1302 0.930 . S
H1297 C1305 0.930 . S
H1298 C1306 0.930 . S
H1299 C1307 0.930 . S
H1300 C1310 0.930 . S
H1301 C1311 0.930 . S
C1302 H1296 0.930 . S
C1302 C1303 1.355 . S
C1302 C1304 1.421 . S
C1303 C1302 1.355 . S
C1303 C1305 1.419 . S
C1304 C1302 1.421 . S
C1304 C1309 1.433 1_566 S
C1304 C1311 1.399 1_565 S
C1305 H1297 0.930 . S
C1305 C1303 1.419 . S
C1305 C1306 1.362 1_556 S
C1306 H1298 0.930 . S
C1306 C1305 1.362 1_554 S
C1306 C1309 1.399 1_565 S
C1307 H1299 0.930 . S
C1307 C1308 1.355 . S
C1307 C1309 1.421 . S
C1308 C1307 1.355 . S
C1308 C1310 1.419 . S
C1309 C1304 1.433 1_544 S
C1309 C1306 1.399 1_545 S
C1309 C1307 1.421 . S
C1310 H1300 0.930 . S
C1310 C1308 1.419 . S
C1310 C1311 1.362 1_554 S
C1311 H1301 0.930 . S
C1311 C1304 1.399 1_545 S
C1311 C1310 1.362 1_556 S
H1312 C1318 0.930 . S
H1313 C1321 0.930 . S
H1314 C1322 0.930 . S
H1315 C1323 0.930 . S
H1316 C1326 0.930 . S
H1317 C1327 0.930 . S
C1318 H1312 0.930 . S
C1318 C1319 1.355 . S
C1318 C1320 1.415 . S
C1319 C1318 1.355 . S
C1319 C1321 1.419 . S
C1320 C1318 1.415 . S
C1320 C1325 1.425 . S
C1320 C1327 1.409 . S
C1321 H1313 0.930 . S
C1321 C1319 1.419 . S
C1321 C1322 1.362 . S
C1322 H1314 0.930 . S
C1322 C1321 1.362 . S
C1322 C1325 1.409 . S
C1323 H1315 0.930 . S
C1323 C1324 1.355 . S
C1323 C1325 1.415 . S
C1324 C1323 1.355 . S
C1324 C1326 1.419 . S
C1325 C1320 1.425 . S
C1325 C1322 1.409 . S
C1325 C1323 1.415 . S
C1326 H1316 0.930 . S
C1326 C1324 1.419 . S
C1326 C1327 1.362 . S
C1327 H1317 0.930 . S
C1327 C1320 1.409 . S
C1327 C1326 1.362 . S
H1328 C1334 0.930 . S
H1329 C1337 0.931 . S
H1330 C1338 0.930 . S
H1331 C1339 0.930 . S
H1332 C1342 0.931 . S
H1333 C1343 0.930 . S
C1334 H1328 0.930 . S
C1334 C1335 1.355 . S
C1334 C1336 1.415 1_455 S
C1335 C1334 1.355 . S
C1335 C1337 1.416 1_556 S
C1336 C1334 1.415 1_655 S
C1336 C1341 1.425 1_656 S
C1336 C1343 1.409 . S
C1337 H1329 0.931 . S
C1337 C1335 1.416 1_554 S
C1337 C1338 1.364 . S
C1338 H1330 0.930 . S
C1338 C1337 1.364 . S
C1338 C1341 1.409 . S
C1339 H1331 0.930 . S
C1339 C1340 1.355 . S
C1339 C1341 1.415 1_655 S
C1340 C1339 1.355 . S
C1340 C1342 1.416 1_554 S
C1341 C1336 1.425 1_454 S
C1341 C1338 1.409 . S
C1341 C1339 1.415 1_455 S
C1342 H1332 0.931 . S
C1342 C1340 1.416 1_556 S
C1342 C1343 1.364 . S
C1343 H1333 0.930 . S
C1343 C1336 1.409 . S
C1343 C1342 1.364 . S
H1344 C1350 0.930 . S
H1345 C1353 0.930 . S
H1346 C1354 0.930 . S
H1347 C1355 0.930 . S
H1348 C1358 0.930 . S
H1349 C1359 0.930 . S
C1350 H1344 0.930 . S
C1350 C1351 1.355 . S
C1350 C1352 1.397 1_545 S
C1351 C1350 1.355 . S
C1351 C1353 1.419 . S
C1352 C1350 1.397 1_565 S
C1352 C1357 1.404 1_565 S
C1352 C1359 1.437 . S
C1353 H1345 0.930 . S
C1353 C1351 1.419 . S
C1353 C1354 1.362 . S
C1354 H1346 0.930 . S
C1354 C1353 1.362 . S
C1354 C1357 1.437 . S
C1355 H1347 0.930 . S
C1355 C1356 1.355 . S
C1355 C1357 1.397 1_565 S
C1356 C1355 1.355 . S
C1356 C1358 1.419 . S
C1357 C1352 1.404 1_545 S
C1357 C1354 1.437 . S
C1357 C1355 1.397 1_545 S
C1358 H1348 0.930 . S
C1358 C1356 1.419 . S
C1358 C1359 1.362 . S
C1359 H1349 0.930 . S
C1359 C1352 1.437 . S
C1359 C1358 1.362 . S
H1360 C1366 0.930 . S
H1361 C1369 0.930 . S
H1362 C1370 0.930 . S
H1363 C1371 0.930 . S
H1364 C1374 0.930 . S
H1365 C1375 0.930 . S
C1366 H1360 0.930 . S
C1366 C1367 1.355 . S
C1366 C1368 1.415 . S
C1367 C1366 1.355 . S
C1367 C1369 1.419 . S
C1368 C1366 1.415 . S
C1368 C1373 1.425 1_554 S
C1368 C1375 1.409 . S
C1369 H1361 0.930 . S
C1369 C1367 1.419 . S
C1369 C1370 1.362 1_554 S
C1370 H1362 0.930 . S
C1370 C1369 1.362 1_556 S
C1370 C1373 1.409 . S
C1371 H1363 0.930 . S
C1371 C1372 1.355 . S
C1371 C1373 1.415 . S
C1372 C1371 1.355 . S
C1372 C1374 1.419 . S
C1373 C1368 1.425 1_556 S
C1373 C1370 1.409 . S
C1373 C1371 1.415 . S
C1374 H1364 0.930 . S
C1374 C1372 1.419 . S
C1374 C1375 1.362 1_556 S
C1375 H1365 0.930 . S
C1375 C1368 1.409 . S
C1375 C1374 1.362 1_554 S
H1376 C1382 0.930 . S
H1377 C1385 0.930 . S
H1378 C1386 0.930 . S
H1379 C1387 0.930 . S
H1380 C1390 0.930 . S
H1381 C1391 0.930 . S
C1382 H1376 0.930 . S
C1382 C1383 1.355 . S
C1382 C1384 1.415 . S
C1383 C1382 1.355 . S
C1383 C1385 1.419 . S
C1384 C1382 1.415 . S
C1384 C1389 1.425 1_455 S
C1384 C1391 1.409 . S
C1385 H1377 0.930 . S
C1385 C1383 1.419 . S
C1385 C1386 1.362 1_455 S
C1386 H1378 0.930 . S
C1386 C1385 1.362 1_655 S
C1386 C1389 1.409 . S
C1387 H1379 0.930 . S
C1387 C1388 1.355 . S
C1387 C1389 1.415 . S
C1388 C1387 1.355 . S
C1388 C1390 1.419 . S
C1389 C1384 1.425 1_655 S
C1389 C1386 1.409 . S
C1389 C1387 1.415 . S
C1390 H1380 0.930 . S
C1390 C1388 1.419 . S
C1390 C1391 1.362 1_655 S
C1391 H1381 0.930 . S
C1391 C1384 1.409 . S
C1391 C1390 1.362 1_455 S
H1392 C1398 0.930 . S
H1393 C1401 0.930 . S
H1394 C1402 0.930 . S
H1395 C1403 0.930 . S
H1396 C1406 0.930 . S
H1397 C1407 0.930 . S
C1398 H1392 0.930 . S
C1398 C1399 1.355 . S
C1398 C1400 1.415 . S
C1399 C1398 1.355 . S
C1399 C1401 1.419 . S
C1400 C1398 1.415 . S
C1400 C1405 1.425 . S
C1400 C1407 1.409 . S
C1401 H1393 0.930 . S
C1401 C1399 1.419 . S
C1401 C1402 1.362 . S
C1402 H1394 0.930 . S
C1402 C1401 1.362 . S
C1402 C1405 1.409 . S
C1403 H1395 0.930 . S
C1403 C1404 1.355 . S
C1403 C1405 1.415 . S
C1404 C1403 1.355 . S
C1404 C1406 1.419 . S
C1405 C1400 1.425 . S
C1405 C1402 1.409 . S
C1405 C1403 1.415 . S
C1406 H1396 0.930 . S
C1406 C1404 1.419 . S
C1406 C1407 1.362 . S
C1407 H1397 0.930 . S
C1407 C1400 1.409 . S
C1407 C1406 1.362 . S
H1408 C1414 0.930 . S
H1409 C1417 0.930 . S
H1410 C1418 0.930 . S
H1411 C1419 0.930 . S
H1412 C1422 0.930 . S
H1413 C1423 0.930 . S
C1414 H1408 0.930 . S
C1414 C1415 1.355 . S
C1414 C1416 1.415 . S
C1415 C1414 1.355 . S
C1415 C1417 1.419 . S
C1416 C1414 1.415 . S
C1416 C1421 1.425 . S
C1416 C1423 1.409 . S
C1417 H1409 0.930 . S
C1417 C1415 1.419 . S
C1417 C1418 1.362 . S
C1418 H1410 0.930 . S
C1418 C1417 1.362 . S
C1418 C1421 1.409 . S
C1419 H1411 0.930 . S
C1419 C1420 1.355 . S
C1419 C1421 1.415 . S
C1420 C1419 1.355 . S
C1420 C1422 1.419 . S
C1421 C1416 1.425 . S
C1421 C1418 1.409 . S
C1421 C1419 1.415 . S
C1422 H1412 0.930 . S
C1422 C1420 1.419 . S
C1422 C1423 1.362 . S
C1423 H1413 0.930 . S
C1423 C1416 1.409 . S
C1423 C1422 1.362 . S
H1424 C1430 0.930 . S
H1425 C1433 0.930 . S
H1426 C1434 0.930 . S
H1427 C1435 0.930 . S
H1428 C1438 0.930 . S
H1429 C1439 0.930 . S
C1430 H1424 0.930 . S
C1430 C1431 1.355 . S
C1430 C1432 1.415 . S
C1431 C1430 1.355 . S
C1431 C1433 1.419 . S
C1432 C1430 1.415 . S
C1432 C1437 1.425 . S
C1432 C1439 1.409 . S
C1433 H1425 0.930 . S
C1433 C1431 1.419 . S
C1433 C1434 1.362 . S
C1434 H1426 0.930 . S
C1434 C1433 1.362 . S
C1434 C1437 1.409 . S
C1435 H1427 0.930 . S
C1435 C1436 1.355 . S
C1435 C1437 1.415 . S
C1436 C1435 1.355 . S
C1436 C1438 1.419 . S
C1437 C1432 1.425 . S
C1437 C1434 1.409 . S
C1437 C1435 1.415 . S
C1438 H1428 0.930 . S
C1438 C1436 1.419 . S
C1438 C1439 1.362 . S
C1439 H1429 0.930 . S
C1439 C1432 1.409 . S
C1439 C1438 1.362 . S
H1440 C1446 0.930 . S
H1441 C1449 0.930 . S
H1442 C1450 0.930 . S
H1443 C1451 0.930 . S
H1444 C1454 0.930 . S
H1445 C1455 0.930 . S
C1446 H1440 0.930 . S
C1446 C1447 1.355 . S
C1446 C1448 1.415 . S
C1447 C1446 1.355 . S
C1447 C1449 1.419 . S
C1448 C1446 1.415 . S
C1448 C1453 1.425 . S
C1448 C1455 1.409 . S
C1449 H1441 0.930 . S
C1449 C1447 1.419 . S
C1449 C1450 1.362 . S
C1450 H1442 0.930 . S
C1450 C1449 1.362 . S
C1450 C1453 1.409 . S
C1451 H1443 0.930 . S
C1451 C1452 1.355 . S
C1451 C1453 1.415 . S
C1452 C1451 1.355 . S
C1452 C1454 1.419 . S
C1453 C1448 1.425 . S
C1453 C1450 1.409 . S
C1453 C1451 1.415 . S
C1454 H1444 0.930 . S
C1454 C1452 1.419 . S
C1454 C1455 1.362 . S
C1455 H1445 0.930 . S
C1455 C1448 1.409 . S
C1455 C1454 1.362 . S
H1456 C1462 0.930 . S
H1457 C1465 0.930 . S
H1458 C1466 0.930 . S
H1459 C1467 0.930 . S
H1460 C1470 0.930 . S
H1461 C1471 0.930 . S
C1462 H1456 0.930 . S
C1462 C1463 1.355 . S
C1462 C1464 1.415 . S
C1463 C1462 1.355 . S
C1463 C1465 1.419 . S
C1464 C1462 1.415 . S
C1464 C1469 1.425 . S
C1464 C1471 1.409 . S
C1465 H1457 0.930 . S
C1465 C1463 1.419 . S
C1465 C1466 1.362 . S
C1466 H1458 0.930 . S
C1466 C1465 1.362 . S
C1466 C1469 1.409 . S
C1467 H1459 0.930 . S
C1467 C1468 1.355 . S
C1467 C1469 1.415 . S
C1468 C1467 1.355 . S
C1468 C1470 1.419 . S
C1469 C1464 1.425 . S
C1469 C1466 1.409 . S
C1469 C1467 1.415 . S
C1470 H1460 0.930 . S
C1470 C1468 1.419 . S
C1470 C1471 1.362 . S
C1471 H1461 0.930 . S
C1471 C1464 1.409 . S
C1471 C1470 1.362 . S
H1472 C1478 0.930 . S
H1473 C1481 0.930 . S
H1474 C1482 0.930 . S
H1475 C1483 0.930 . S
H1476 C1486 0.930 . S
H1477 C1487 0.930 . S
C1478 H1472 0.930 . S
C1478 C1479 1.355 . S
C1478 C1480 1.415 . S
C1479 C1478 1.355 . S
C1479 C1481 1.419 . S
C1480 C1478 1.415 . S
C1480 C1485 1.425 . S
C1480 C1487 1.409 . S
C1481 H1473 0.930 . S
C1481 C1479 1.419 . S
C1481 C1482 1.362 . S
C1482 H1474 0.930 . S
C1482 C1481 1.362 . S
C1482 C1485 1.409 . S
C1483 H1475 0.930 . S
C1483 C1484 1.355 . S
C1483 C1485 1.415 . S
C1484 C1483 1.355 . S
C1484 C1486 1.419 . S
C1485 C1480 1.425 . S
C1485 C1482 1.409 . S
C1485 C1483 1.415 . S
C1486 H1476 0.930 . S
C1486 C1484 1.419 . S
C1486 C1487 1.362 . S
C1487 H1477 0.930 . S
C1487 C1480 1.409 . S
C1487 C1486 1.362 . S
H1488 C1494 0.930 . S
H1489 C1497 0.930 . S
H1490 C1498 0.930 . S
H1491 C1499 0.930 . S
H1492 C1502 0.930 . S
H1493 C1503 0.930 . S
C1494 H1488 0.930 . S
C1494 C1495 1.355 . S
C1494 C1496 1.415 . S
C1495 C1494 1.355 . S
C1495 C1497 1.419 . S
C1496 C1494 1.415 . S
C1496 C1501 1.425 . S
C1496 C1503 1.409 . S
C1497 H1489 0.930 . S
C1497 C1495 1.419 . S
C1497 C1498 1.362 . S
C1498 H1490 0.930 . S
C1498 C1497 1.362 . S
C1498 C1501 1.409 . S
C1499 H1491 0.930 . S
C1499 C1500 1.355 . S
C1499 C1501 1.415 . S
C1500 C1499 1.355 . S
C1500 C1502 1.419 . S
C1501 C1496 1.425 . S
C1501 C1498 1.409 . S
C1501 C1499 1.415 . S
C1502 H1492 0.930 . S
C1502 C1500 1.419 . S
C1502 C1503 1.362 . S
C1503 H1493 0.930 . S
C1503 C1496 1.409 . S
C1503 C1502 1.362 . S
H1504 C1510 0.930 . S
H1505 C1513 0.930 . S
H1506 C1514 0.930 . S
H1507 C1515 0.930 . S
H1508 C1518 0.930 . S
H1509 C1519 0.930 . S
C1510 H1504 0.930 . S
C1510 C1511 1.355 . S
C1510 C1512 1.415 . S
C1511 C1510 1.355 . S
C1511 C1513 1.419 . S
C1512 C1510 1.415 . S
C1512 C1517 1.425 . S
C1512 C1519 1.409 . S
C1513 H1505 0.930 . S
C1513 C1511 1.419 . S
C1513 C1514 1.362 . S
C1514 H1506 0.930 . S
C1514 C1513 1.362 . S
C1514 C1517 1.409 . S
C1515 H1507 0.930 . S
C1515 C1516 1.355 . S
C1515 C1517 1.415 . S
C1516 C1515 1.355 . S
C1516 C1518 1.419 . S
C1517 C1512 1.425 . S
C1517 C1514 1.409 . S
C1517 C1515 1.415 . S
C1518 H1508 0.930 . S
C1518 C1516 1.419 . S
C1518 C1519 1.362 . S
C1519 H1509 0.930 . S
C1519 C1512 1.409 . S
C1519 C1518 1.362 . S
H1520 C1526 0.930 . S
H1521 C1529 0.930 . S
H1522 C1530 0.930 . S
H1523 C1531 0.930 . S
H1524 C1534 0.930 . S
H1525 C1535 0.930 . S
C1526 H1520 0.930 . S
C1526 C1527 1.355 . S
C1526 C1528 1.415 . S
C1527 C1526 1.355 . S
C1527 C1529 1.419 . S
C1528 C1526 1.415 . S
C1528 C1533 1.425 . S
C1528 C1535 1.409 . S
C1529 H1521 0.930 . S
C1529 C1527 1.419 . S
C1529 C1530 1.362 . S
C1530 H1522 0.930 . S
C1530 C1529 1.362 . S
C1530 C1533 1.409 . S
C1531 H1523 0.930 . S
C1531 C1532 1.355 . S
C1531 C1533 1.415 . S
C1532 C1531 1.355 . S
C1532 C1534 1.419 . S
C1533 C1528 1.425 . S
C1533 C1530 1.409 . S
C1533 C1531 1.415 . S
C1534 H1524 0.930 . S
C1534 C1532 1.419 . S
C1534 C1535 1.362 . S
C1535 H1525 0.930 . S
C1535 C1528 1.409 . S
C1535 C1534 1.362 . S
H1536 C1542 0.930 . S
H1537 C1545 0.930 . S
H1538 C1546 0.930 . S
H1539 C1547 0.930 . S
H1540 C1550 0.930 . S
H1541 C1551 0.930 . S
C1542 H1536 0.930 . S
C1542 C1543 1.355 . S
C1542 C1544 1.415 . S
C1543 C1542 1.355 . S
C1543 C1545 1.419 . S
C1544 C1542 1.415 . S
C1544 C1549 1.425 . S
C1544 C1551 1.409 . S
C1545 H1537 0.930 . S
C1545 C1543 1.419 . S
C1545 C1546 1.362 . S
C1546 H1538 0.930 . S
C1546 C1545 1.362 . S
C1546 C1549 1.409 . S
C1547 H1539 0.930 . S
C1547 C1548 1.355 . S
C1547 C1549 1.415 . S
C1548 C1547 1.355 . S
C1548 C1550 1.419 . S
C1549 C1544 1.425 . S
C1549 C1546 1.409 . S
C1549 C1547 1.415 . S
C1550 H1540 0.930 . S
C1550 C1548 1.419 . S
C1550 C1551 1.362 . S
C1551 H1541 0.930 . S
C1551 C1544 1.409 . S
C1551 C1550 1.362 . S
H1552 C1558 0.930 . S
H1553 C1561 0.930 . S
H1554 C1562 0.930 . S
H1555 C1563 0.930 . S
H1556 C1566 0.930 . S
H1557 C1567 0.930 . S
C1558 H1552 0.930 . S
C1558 C1559 1.355 . S
C1558 C1560 1.415 . S
C1559 C1558 1.355 . S
C1559 C1561 1.419 . S
C1560 C1558 1.415 . S
C1560 C1565 1.425 . S
C1560 C1567 1.409 . S
C1561 H1553 0.930 . S
C1561 C1559 1.419 . S
C1561 C1562 1.362 . S
C1562 H1554 0.930 . S
C1562 C1561 1.362 . S
C1562 C1565 1.409 . S
C1563 H1555 0.930 . S
C1563 C1564 1.355 . S
C1563 C1565 1.415 . S
C1564 C1563 1.355 . S
C1564 C1566 1.419 . S
C1565 C1560 1.425 . S
C1565 C1562 1.409 . S
C1565 C1563 1.415 . S
C1566 H1556 0.930 . S
C1566 C1564 1.419 . S
C1566 C1567 1.362 . S
C1567 H1557 0.930 . S
C1567 C1560 1.409 . S
C1567 C1566 1.362 . S
H1568 C1574 0.930 . S
H1569 C1577 0.930 . S
H1570 C1578 0.930 . S
H1571 C1579 0.930 . S
H1572 C1582 0.930 . S
H1573 C1583 0.930 . S
C1574 H1568 0.930 . S
C1574 C1575 1.355 . S
C1574 C1576 1.415 . S
C1575 C1574 1.355 . S
C1575 C1577 1.419 . S
C1576 C1574 1.415 . S
C1576 C1581 1.425 . S
C1576 C1583 1.409 . S
C1577 H1569 0.930 . S
C1577 C1575 1.419 . S
C1577 C1578 1.362 . S
C1578 H1570 0.930 . S
C1578 C1577 1.362 . S
C1578 C1581 1.409 . S
C1579 H1571 0.930 . S
C1579 C1580 1.355 . S
C1579 C1581 1.415 . S
C1580 C1579 1.355 . S
C1580 C1582 1.419 . S
C1581 C1576 1.425 . S
C1581 C1578 1.409 . S
C1581 C1579 1.415 . S
C1582 H1572 0.930 . S
C1582 C1580 1.419 . S
C1582 C1583 1.362 . S
C1583 H1573 0.930 . S
C1583 C1576 1.409 . S
C1583 C1582 1.362 . S
C1015 C238 1.181 . S
C1020 C67 1.334 . S
C1031 C310 1.300 . S
C1036 C140 1.302 . S
C1047 C235 1.357 . S
C1052 C406 1.227 . S
C1063 C308 1.317 . S
C1068 C478 1.200 . S
C1079 C70 1.286 . S
C1084 C403 1.321 . S
C1095 C142 1.225 . S
C1100 C476 1.358 . S
C1111 C898 1.204 . S
C1116 C560 1.363 . S
C1127 C655 1.300 . S
C1132 C994 1.228 . S
C1143 C728 1.293 . S
C1148 C562 1.243 . S
C1159 C823 1.348 . S
C1164 C658 1.248 . S
C1175 C896 1.333 . S
C1180 C730 1.272 . S
C1191 C826 1.274 . S
C1196 C991 1.284 . S
C1207 C326 1.940 . S
C1212 C63 1.885 . S
C1223 C158 1.919 . S
C1228 C399 1.906 . S
C1239 C231 1.937 . S
C1244 C494 1.888 . S
C1255 C578 1.880 . S
C1260 C819 1.945 . S
C1271 C651 1.928 . S
C1276 C914 1.897 . S
C1287 C746 1.932 . S
C1292 C987 1.892 . S
C1303 C662 2.138 . S
C1308 C74 2.185 . S
C1319 C147 2.131 . S
C1324 C735 2.180 . S
C1335 C830 2.183 . S
C1340 C242 2.172 . S
C1351 C315 2.187 . S
C1356 C903 2.142 . S
C1367 C410 2.187 . S
C1372 C998 2.165 . S
C1383 C567 2.124 . S
C1388 C483 2.165 . S
C1399 C226 1.378 . S
C1404 C56 1.374 . S
C1415 C151 1.378 . S
C1420 C322 1.274 . S
C1431 C224 1.365 . S
C1436 C394 1.372 . S
C1447 C319 1.449 . S
C1452 C490 1.294 . S
C1463 C58 1.261 . S
C1468 C392 1.438 . S
C1479 C154 1.364 . S
C1484 C487 1.422 . S
C1495 C910 1.326 . S
C1500 C571 1.354 . S
C1511 C644 1.433 . S
C1516 C982 1.351 . S
C1527 C739 1.356 . S
C1532 C574 1.318 . S
C1543 C646 1.256 . S
C1548 C812 1.399 . S
C1559 C907 1.357 . S
C1564 C742 1.312 . S
C1575 C980 1.430 . S
C1580 C814 1.254 . S
