# Generated by pormake.
# Topology upc, (4)-cn, num edge types: 1
# Building blocks:
#     Node 0, Type 0, BuildingBlock: QUQFOY_clean_sbu_1, # of connection points: 4
#     Node 1, Type 0, BuildingBlock: QUQFOY_clean_sbu_1, # of connection points: 4
#     Node 2, Type 0, BuildingBlock: QUQFOY_clean_sbu_1, # of connection points: 4
#     Node 3, Type 0, BuildingBlock: QUQFOY_clean_sbu_1, # of connection points: 4
#     Node 4, Type 0, BuildingBlock: QUQFOY_clean_sbu_1, # of connection points: 4
#     Node 5, Type 0, BuildingBlock: QUQFOY_clean_sbu_1, # of connection points: 4
#     Node 6, Type 0, BuildingBlock: QUQFOY_clean_sbu_1, # of connection points: 4
#     Node 7, Type 0, BuildingBlock: QUQFOY_clean_sbu_1, # of connection points: 4
#     Node 8, Type 0, BuildingBlock: QUQFOY_clean_sbu_1, # of connection points: 4
#     Node 9, Type 0, BuildingBlock: QUQFOY_clean_sbu_1, # of connection points: 4
#     Node 10, Type 0, BuildingBlock: QUQFOY_clean_sbu_1, # of connection points: 4
#     Node 11, Type 0, BuildingBlock: QUQFOY_clean_sbu_1, # of connection points: 4
#     Node 12, Type 0, BuildingBlock: QUQFOY_clean_sbu_1, # of connection points: 4
#     Node 13, Type 0, BuildingBlock: QUQFOY_clean_sbu_1, # of connection points: 4
#     Node 14, Type 0, BuildingBlock: QUQFOY_clean_sbu_1, # of connection points: 4
#     Node 15, Type 0, BuildingBlock: QUQFOY_clean_sbu_1, # of connection points: 4
#     Edge 16, Type (0, 0), BuildingBlock: EZIPEK_clean_linker_0, # of connection points: 2
#     Edge 17, Type (0, 0), BuildingBlock: EZIPEK_clean_linker_0, # of connection points: 2
#     Edge 18, Type (0, 0), BuildingBlock: EZIPEK_clean_linker_0, # of connection points: 2
#     Edge 19, Type (0, 0), BuildingBlock: EZIPEK_clean_linker_0, # of connection points: 2
#     Edge 20, Type (0, 0), BuildingBlock: EZIPEK_clean_linker_0, # of connection points: 2
#     Edge 21, Type (0, 0), BuildingBlock: EZIPEK_clean_linker_0, # of connection points: 2
#     Edge 22, Type (0, 0), BuildingBlock: EZIPEK_clean_linker_0, # of connection points: 2
#     Edge 23, Type (0, 0), BuildingBlock: EZIPEK_clean_linker_0, # of connection points: 2
#     Edge 24, Type (0, 0), BuildingBlock: EZIPEK_clean_linker_0, # of connection points: 2
#     Edge 25, Type (0, 0), BuildingBlock: EZIPEK_clean_linker_0, # of connection points: 2
#     Edge 26, Type (0, 0), BuildingBlock: EZIPEK_clean_linker_0, # of connection points: 2
#     Edge 27, Type (0, 0), BuildingBlock: EZIPEK_clean_linker_0, # of connection points: 2
#     Edge 28, Type (0, 0), BuildingBlock: EZIPEK_clean_linker_0, # of connection points: 2
#     Edge 29, Type (0, 0), BuildingBlock: EZIPEK_clean_linker_0, # of connection points: 2
#     Edge 30, Type (0, 0), BuildingBlock: EZIPEK_clean_linker_0, # of connection points: 2
#     Edge 31, Type (0, 0), BuildingBlock: EZIPEK_clean_linker_0, # of connection points: 2
#     Edge 32, Type (0, 0), BuildingBlock: EZIPEK_clean_linker_0, # of connection points: 2
#     Edge 33, Type (0, 0), BuildingBlock: EZIPEK_clean_linker_0, # of connection points: 2
#     Edge 34, Type (0, 0), BuildingBlock: EZIPEK_clean_linker_0, # of connection points: 2
#     Edge 35, Type (0, 0), BuildingBlock: EZIPEK_clean_linker_0, # of connection points: 2
#     Edge 36, Type (0, 0), BuildingBlock: EZIPEK_clean_linker_0, # of connection points: 2
#     Edge 37, Type (0, 0), BuildingBlock: EZIPEK_clean_linker_0, # of connection points: 2
#     Edge 38, Type (0, 0), BuildingBlock: EZIPEK_clean_linker_0, # of connection points: 2
#     Edge 39, Type (0, 0), BuildingBlock: EZIPEK_clean_linker_0, # of connection points: 2
#     Edge 40, Type (0, 0), BuildingBlock: EZIPEK_clean_linker_0, # of connection points: 2
#     Edge 41, Type (0, 0), BuildingBlock: EZIPEK_clean_linker_0, # of connection points: 2
#     Edge 42, Type (0, 0), BuildingBlock: EZIPEK_clean_linker_0, # of connection points: 2
#     Edge 43, Type (0, 0), BuildingBlock: EZIPEK_clean_linker_0, # of connection points: 2
#     Edge 44, Type (0, 0), BuildingBlock: EZIPEK_clean_linker_0, # of connection points: 2
#     Edge 45, Type (0, 0), BuildingBlock: EZIPEK_clean_linker_0, # of connection points: 2
#     Edge 46, Type (0, 0), BuildingBlock: EZIPEK_clean_linker_0, # of connection points: 2
#     Edge 47, Type (0, 0), BuildingBlock: EZIPEK_clean_linker_0, # of connection points: 2
# Relax obj value: 0.078
# Max RMSD: 0.195
# Mean RMSD: 0.195
data_MOF--net-upc--node1-QUQFOY_clean_sbu_1--edge1-EZIPEK_clean_linker_0
_symmetry_space_group_name_H-M    P1
_symmetry_Int_Tables_number       1
_symmetry_cell_setting            triclinic
loop_
_symmetry_equiv_pos_as_xyz
'x, y, z'
_cell_length_a     27.116294
_cell_length_b     27.104454
_cell_length_c     31.954101
_cell_angle_alpha  90.117763
_cell_angle_beta   90.046322
_cell_angle_gamma 90.584379
loop_
_atom_site_label
_atom_site_type_symbol
_atom_site_fract_x
_atom_site_fract_y
_atom_site_fract_z
_atom_type_partial_charge
O0 O 0.06394 0.53383 0.15413 0.0
Cd1 Cd 0.04664 0.59185 0.11562 0.0
Cd2 Cd 0.13457 0.62323 0.15324 0.0
O3 O 0.14228 0.54929 0.16766 0.0
O4 O 0.99559 0.5621 0.07751 0.0
O5 O 0.06976 0.58559 0.05585 0.0
C6 C 0.02804 0.5639 0.04807 0.0
C7 C 0.20018 0.67683 0.13777 0.0
C8 C 0.10503 0.5205 0.16938 0.0
C9 C 0.03904 0.67263 0.17719 0.0
O10 O 0.08241 0.66015 0.1872 0.0
O11 O 0.01797 0.65433 0.14495 0.0
O12 O 0.19586 0.65667 0.17402 0.0
O13 O 0.16977 0.66333 0.10869 0.0
O14 O 0.98486 0.06418 0.22389 0.0
Cd15 Cd 0.93347 0.04982 0.17849 0.0
Cd16 Cd 0.8976 0.13466 0.22227 0.0
O17 O 0.96985 0.14096 0.24291 0.0
O18 O 0.96845 0.99873 0.14472 0.0
O19 O 0.95198 0.07341 0.12077 0.0
C20 C 0.97356 0.03149 0.11587 0.0
C21 C 0.84553 0.20137 0.21033 0.0
C22 C 0.99717 0.10313 0.24359 0.0
C23 C 0.84443 0.03592 0.22994 0.0
O24 O 0.85685 0.07709 0.24599 0.0
O25 O 0.86664 0.01926 0.19788 0.0
O26 O 0.86146 0.1915 0.24726 0.0
O27 O 0.86236 0.17609 0.17926 0.0
O28 O 0.46936 0.97153 0.19929 0.0
Cd29 Cd 0.48337 0.90985 0.16414 0.0
Cd30 Cd 0.39359 0.88944 0.19051 0.0
O31 O 0.38833 0.96507 0.20091 0.0
O32 O 0.53296 0.93374 0.12252 0.0
O33 O 0.45689 0.91021 0.10555 0.0
C34 C 0.4984 0.93039 0.09478 0.0
C35 C 0.33523 0.83852 0.15815 0.0
C36 C 0.42763 0.98983 0.20778 0.0
C37 C 0.47751 0.83233 0.22729 0.0
O38 O 0.43474 0.8499 0.23284 0.0
O39 O 0.50414 0.8471 0.19688 0.0
O40 O 0.32697 0.85776 0.19439 0.0
O41 O 0.37464 0.85188 0.13829 0.0
O42 O 0.54334 0.46687 0.18311 0.0
Cd43 Cd 0.60005 0.47616 0.14081 0.0
Cd44 Cd 0.6365 0.41017 0.20844 0.0
O45 O 0.567 0.41726 0.23339 0.0
O46 O 0.56645 0.52374 0.10253 0.0
O47 O 0.58508 0.44792 0.08332 0.0
C48 C 0.56332 0.48897 0.07517 0.0
C49 C 0.68456 0.33956 0.20523 0.0
C50 C 0.53462 0.44516 0.21742 0.0
C51 C 0.6901 0.50624 0.19235 0.0
O52 O 0.68023 0.47035 0.21631 0.0
O53 O 0.66564 0.51331 0.15877 0.0
O54 O 0.67347 0.3594 0.24061 0.0
O55 O 0.66452 0.35687 0.17169 0.0
O56 O 0.03917 0.95498 0.33566 0.0
Cd57 Cd 0.02082 0.89108 0.3665 0.0
Cd58 Cd 0.11109 0.87103 0.34309 0.0
O59 O 0.11983 0.94714 0.33828 0.0
O60 O 0.97116 0.91403 0.40793 0.0
O61 O 0.0452 0.88663 0.42549 0.0
C62 C 1.00485 0.90841 0.43609 0.0
C63 C 0.16797 0.81855 0.37376 0.0
C64 C 0.08211 0.97328 0.33115 0.0
C65 C 0.02695 0.81784 0.30004 0.0
O66 O 0.07067 0.8349 0.29724 0.0
O67 O 0.99907 0.83116 0.32998 0.0
O68 O 0.17722 0.84015 0.3387 0.0
O69 O 0.12802 0.8298 0.39345 0.0
O70 O 0.53377 0.07641 0.32643 0.0
Cd71 Cd 0.58825 0.06347 0.36934 0.0
Cd72 Cd 0.62623 0.14422 0.31993 0.0
O73 O 0.55383 0.14864 0.29934 0.0
O74 O 0.55329 0.01712 0.40816 0.0
O75 O 0.57923 0.09143 0.42746 0.0
C76 C 0.55534 0.05126 0.43622 0.0
C77 C 0.67951 0.2122 0.32756 0.0
C78 C 0.52351 0.11282 0.30314 0.0
C79 C 0.67456 0.04303 0.31561 0.0
O80 O 0.66556 0.08467 0.29936 0.0
O81 O 0.65091 0.02798 0.34761 0.0
O82 O 0.66314 0.19892 0.29143 0.0
O83 O 0.66263 0.18956 0.36014 0.0
O84 O 0.44973 0.53768 0.34992 0.0
Cd85 Cd 0.46168 0.59036 0.39498 0.0
Cd86 Cd 0.37457 0.61785 0.36143 0.0
O87 O 0.37023 0.54669 0.33843 0.0
O88 O 0.51139 0.55863 0.43196 0.0
O89 O 0.4354 0.57624 0.45259 0.0
C90 C 0.4774 0.55589 0.46009 0.0
C91 C 0.30705 0.66388 0.38326 0.0
C92 C 0.40992 0.52305 0.33283 0.0
C93 C 0.46665 0.67724 0.34139 0.0
O94 O 0.42393 0.66266 0.33051 0.0
O95 O 0.48869 0.65737 0.37217 0.0
O96 O 0.31145 0.64949 0.34507 0.0
O97 O 0.33866 0.64844 0.41038 0.0
O98 O 0.99803 0.47496 0.29756 0.0
Cd99 Cd 0.94339 0.50229 0.33519 0.0
Cd100 Cd 0.89979 0.41229 0.30124 0.0
O101 O 0.97202 0.3993 0.28348 0.0
O102 O 0.97936 0.55361 0.36911 0.0
O103 O 0.94754 0.48538 0.39653 0.0
C104 C 0.97346 0.52532 0.40112 0.0
C105 C 0.84427 0.34859 0.31845 0.0
C106 C 1.00538 0.43255 0.28184 0.0
C107 C 0.85832 0.51318 0.27717 0.0
O108 O 0.86355 0.4674 0.27011 0.0
O109 O 0.88377 0.53514 0.30524 0.0
O110 O 0.86178 0.35301 0.28127 0.0
O111 O 0.86081 0.37809 0.3471 0.0
O112 O 0.94484 0.47061 0.78921 0.0
Cd113 Cd 0.96542 0.41756 0.83124 0.0
Cd114 Cd 0.87733 0.37741 0.79176 0.0
O115 O 0.86815 0.44992 0.7726 0.0
O116 O 0.01615 0.45388 0.86553 0.0
O117 O 0.9451 0.42737 0.89153 0.0
C118 C 0.9858 0.45194 0.89652 0.0
C119 C 0.81294 0.32217 0.80687 0.0
C120 C 0.90442 0.48003 0.77093 0.0
C121 C 0.97757 0.33022 0.77638 0.0
O122 O 0.93378 0.33904 0.7647 0.0
O123 O 0.99733 0.3544 0.80634 0.0
O124 O 0.81946 0.33892 0.76962 0.0
O125 O 0.84016 0.33993 0.8366 0.0
O126 O 0.07932 0.9655 0.87465 0.0
Cd127 Cd 0.13943 0.97897 0.91186 0.0
Cd128 Cd 0.16709 0.9028 0.85891 0.0
O129 O 0.0966 0.90218 0.83445 0.0
O130 O 0.10734 0.02842 0.94909 0.0
O131 O 0.13197 0.95562 0.97159 0.0
C132 C 0.1079 0.99578 0.97824 0.0
C133 C 0.21587 0.83779 0.88055 0.0
C134 C 0.06731 0.9362 0.84533 0.0
C135 C 0.21933 1.00049 0.84981 0.0
O136 O 0.20868 0.9584 0.83492 0.0
O137 O 0.19941 0.01589 0.88352 0.0
O138 O 0.204 0.84309 0.84173 0.0
O139 O 0.19631 0.8668 0.90795 0.0
O140 O 0.55248 1.0021 0.827 0.0
Cd141 Cd 0.54079 0.05917 0.86809 0.0
Cd142 Cd 0.6181 0.09517 0.81399 0.0
O143 O 0.62377 0.02134 0.79795 0.0
O144 O 0.49405 0.0282 0.9089 0.0
O145 O 0.57023 0.051 0.92564 0.0
C146 C 0.52918 0.02974 0.93603 0.0
C147 C 0.68393 0.15131 0.81865 0.0
C148 C 0.58894 0.99041 0.80416 0.0
C149 C 0.51838 0.14336 0.81188 0.0
O150 O 0.55736 0.13143 0.79258 0.0
O151 O 0.5066 0.12255 0.84617 0.0
O152 O 0.67165 0.13158 0.78343 0.0
O153 O 0.66192 0.13597 0.85209 0.0
O154 O 0.47265 0.55076 0.82298 0.0
Cd155 Cd 0.41366 0.54724 0.86323 0.0
Cd156 Cd 0.41344 0.63754 0.8405 0.0
O157 O 0.48831 0.63035 0.83063 0.0
O158 O 0.42793 0.49155 0.90217 0.0
O159 O 0.43303 0.57061 0.92037 0.0
C160 C 0.44135 0.52483 0.92902 0.0
C161 C 0.37069 0.69909 0.87573 0.0
C162 C 0.5015 0.5877 0.81871 0.0
C163 C 0.3371 0.57253 0.80431 0.0
O164 O 0.36879 0.60576 0.79573 0.0
O165 O 0.34274 0.54641 0.83704 0.0
O166 O 0.39123 0.70729 0.83992 0.0
O167 O 0.38008 0.65781 0.8941 0.0
O168 O 0.96187 0.01431 0.70449 0.0
Cd169 Cd 0.9619 0.0596 0.65299 0.0
Cd170 Cd 0.88525 0.09254 0.70186 0.0
O171 O 0.88609 0.02297 0.72785 0.0
O172 O 1.00877 0.02602 0.61449 0.0
O173 O 0.92978 0.03591 0.59947 0.0
C174 C 0.97226 0.01825 0.58942 0.0
C175 C 0.81546 0.14088 0.69307 0.0
C176 C 0.92746 1.00145 0.72923 0.0
C177 C 0.9781 0.15326 0.69697 0.0
O178 O 0.94248 0.13801 0.71931 0.0
O179 O 0.9896 0.13059 0.66349 0.0
O180 O 0.82998 0.12785 0.7297 0.0
O181 O 0.83757 0.12261 0.66088 0.0
O182 O 0.47385 0.95789 0.68784 0.0
Cd183 Cd 0.41954 0.99425 0.65609 0.0
Cd184 Cd 0.37113 0.90756 0.67991 0.0
O185 O 0.44186 0.88294 0.69266 0.0
O186 O 0.45732 0.04419 0.62263 0.0
O187 O 0.41621 0.98144 0.59411 0.0
C188 C 0.44597 0.01866 0.58986 0.0
C189 C 0.30923 0.85532 0.65267 0.0
C190 C 0.47789 0.91276 0.6978 0.0
C191 C 0.34478 1.00555 0.72174 0.0
O192 O 0.34462 0.95866 0.72193 0.0
O193 O 0.36858 0.02966 0.69405 0.0
O194 O 0.32652 0.84937 0.68981 0.0
O195 O 0.32855 0.88951 0.62967 0.0
O196 O 0.55312 0.45211 0.71283 0.0
Cd197 Cd 0.53199 0.39884 0.67056 0.0
Cd198 Cd 0.61769 0.35957 0.70928 0.0
O199 O 0.63077 0.43267 0.72483 0.0
O200 O 0.48085 0.43364 0.63686 0.0
O201 O 0.55332 0.41192 0.6112 0.0
C202 C 0.51216 0.43491 0.60654 0.0
C203 C 0.6809 0.30421 0.69571 0.0
C204 C 0.59526 0.46264 0.72802 0.0
C205 C 0.51761 0.31238 0.72499 0.0
O206 O 0.56052 0.3231 0.73834 0.0
O207 O 0.4996 0.33466 0.69358 0.0
O208 O 0.67486 0.32272 0.73242 0.0
O209 O 0.65348 0.31982 0.66555 0.0
O210 O 0.03258 0.57195 0.66657 0.0
Cd211 Cd 0.09438 0.57654 0.62894 0.0
Cd212 Cd 0.09436 0.65954 0.66624 0.0
O213 O 0.01871 0.6516 0.67221 0.0
O214 O 0.08102 0.52835 0.58269 0.0
O215 O 0.08303 0.60941 0.57349 0.0
C216 C 0.07337 0.56589 0.55875 0.0
C217 C 0.14331 0.72425 0.64139 0.0
C218 C 1.00445 0.60712 0.67711 0.0
C219 C 0.16678 0.58803 0.69513 0.0
O220 O 0.13407 0.61771 0.70775 0.0
O221 O 0.16338 0.57009 0.65831 0.0
O222 O 0.12004 0.72783 0.67653 0.0
O223 O 0.13316 0.68686 0.6176 0.0
C224 C 0.28698 0.70874 0.135 0.0
C225 C 0.23585 0.71819 0.132 0.0
C226 C 0.25309 0.80742 0.13291 0.0
C227 C 0.303 0.79773 0.14272 0.0
N228 N 0.3678 0.73911 0.1557 0.0
N229 N 0.16897 0.77633 0.13012 0.0
C230 C 0.32034 0.74838 0.14372 0.0
C231 C 0.21855 0.76753 0.13072 0.0
N232 N 0.30349 0.66172 0.12937 0.0
N233 N 0.23894 0.85486 0.1255 0.0
H234 H 0.14242 0.74836 0.12788 0.0
H235 H 0.15387 0.81112 0.13449 0.0
H236 H 0.26364 0.88461 0.1269 0.0
H237 H 0.2042 0.86422 0.11431 0.0
H238 H 0.34065 0.65277 0.1272 0.0
H239 H 0.27967 0.63217 0.1229 0.0
H240 H 0.38084 0.70393 0.16209 0.0
H241 H 0.39364 0.76686 0.16207 0.0
C242 C 0.75493 0.21863 0.20775 0.0
C243 C 0.80437 0.23641 0.20497 0.0
C244 C 0.77489 0.32157 0.2018 0.0
C245 C 0.72539 0.30365 0.20292 0.0
N246 N 0.66751 0.23592 0.20039 0.0
N247 N 0.8619 0.30301 0.19323 0.0
C248 C 0.71518 0.25233 0.20384 0.0
C249 C 0.81447 0.28743 0.20011 0.0
N250 N 0.74611 0.16968 0.21549 0.0
N251 N 0.78398 0.37132 0.20332 0.0
H252 H 0.89164 0.27889 0.19256 0.0
H253 H 0.87162 0.33903 0.18531 0.0
H254 H 0.75611 0.39755 0.20302 0.0
H255 H 0.81891 0.38693 0.20715 0.0
H256 H 0.71146 0.1551 0.22254 0.0
H257 H 0.77408 0.14363 0.21738 0.0
H258 H 0.65762 0.19899 0.19652 0.0
H259 H 0.63765 0.25981 0.19847 0.0
C260 C 0.18466 0.7284 0.38398 0.0
C261 C 0.20047 0.77834 0.3882 0.0
C262 C 0.28565 0.75181 0.39903 0.0
C263 C 0.27009 0.70195 0.39358 0.0
N264 N 0.20462 0.64165 0.39193 0.0
N265 N 0.26207 0.83706 0.4105 0.0
C266 C 0.21935 0.68995 0.38988 0.0
C267 C 0.24977 0.78977 0.39944 0.0
N268 N 0.13741 0.71779 0.37162 0.0
N269 N 0.33485 0.76323 0.40092 0.0
H270 H 0.23624 0.86536 0.41107 0.0
H271 H 0.29628 0.84725 0.42275 0.0
H272 H 0.36233 0.73663 0.40149 0.0
H273 H 0.34875 0.79913 0.39945 0.0
H274 H 0.12534 0.68264 0.36297 0.0
H275 H 0.11064 0.74469 0.36752 0.0
H276 H 0.16784 0.63035 0.39324 0.0
H277 H 0.22958 0.61304 0.39631 0.0
C278 C 0.75347 0.33242 0.3266 0.0
C279 C 0.80244 0.31409 0.32633 0.0
C280 C 0.77053 0.22907 0.32881 0.0
C281 C 0.72163 0.24745 0.33046 0.0
N282 N 0.66606 0.31553 0.33719 0.0
N283 N 0.85851 0.24653 0.33382 0.0
C284 C 0.713 0.29889 0.33138 0.0
C285 C 0.81121 0.26279 0.32946 0.0
N286 N 0.74567 0.38168 0.32046 0.0
N287 N 0.77795 0.17937 0.32519 0.0
H288 H 0.88896 0.27038 0.33401 0.0
H289 H 0.86754 0.21014 0.34042 0.0
H290 H 0.74927 0.15342 0.32576 0.0
H291 H 0.81209 0.16367 0.31925 0.0
H292 H 0.71106 0.39694 0.31583 0.0
H293 H 0.77427 0.40745 0.31743 0.0
H294 H 0.65743 0.35238 0.34225 0.0
H295 H 0.63573 0.29178 0.34007 0.0
C296 C 0.72901 0.28513 0.81987 0.0
C297 C 0.78025 0.27868 0.81369 0.0
C298 C 0.76914 0.18853 0.81671 0.0
C299 C 0.71747 0.19494 0.81944 0.0
N300 N 0.64694 0.24855 0.81797 0.0
N301 N 0.84916 0.22499 0.80104 0.0
C302 C 0.69701 0.24308 0.81968 0.0
C303 C 0.8004 0.23053 0.81083 0.0
N304 N 0.71111 0.33148 0.82644 0.0
N305 N 0.7883 0.1423 0.82055 0.0
H306 H 0.87355 0.2547 0.7975 0.0
H307 H 0.86499 0.19124 0.79372 0.0
H308 H 0.76626 0.11082 0.82423 0.0
H309 H 0.82585 0.13536 0.82324 0.0
H310 H 0.67493 0.33853 0.83532 0.0
H311 H 0.73354 0.36298 0.82598 0.0
H312 H 0.62978 0.28222 0.81301 0.0
H313 H 0.62221 0.21883 0.81858 0.0
C314 C 0.3451 0.78595 0.88798 0.0
C315 C 0.33384 0.73501 0.89212 0.0
C316 C 0.24684 0.75586 0.90514 0.0
C317 C 0.25689 0.80455 0.89171 0.0
N318 N 0.31544 0.86803 0.8724 0.0
N319 N 0.27312 0.67094 0.90743 0.0
C320 C 0.30615 0.82041 0.88435 0.0
C321 C 0.28472 0.7198 0.90266 0.0
N322 N 0.39333 0.80114 0.88796 0.0
N323 N 0.20093 0.74419 0.91996 0.0
H324 H 0.29894 0.64295 0.90826 0.0
H325 H 0.23708 0.65744 0.90863 0.0
H326 H 0.17258 0.7699 0.92133 0.0
H327 H 0.19219 0.71081 0.93436 0.0
H328 H 0.40443 0.83802 0.88835 0.0
H329 H 0.4223 0.77649 0.89191 0.0
H330 H 0.34952 0.88041 0.86143 0.0
H331 H 0.28821 0.89495 0.8716 0.0
C332 C 0.76601 0.27144 0.68553 0.0
C333 C 0.7148 0.26231 0.68995 0.0
C334 C 0.72901 0.17285 0.68949 0.0
C335 C 0.78048 0.18216 0.68887 0.0
N336 N 0.84904 0.23972 0.69115 0.0
N337 N 0.64691 0.20546 0.70054 0.0
C338 C 0.79931 0.23133 0.688 0.0
C339 C 0.69602 0.21326 0.69288 0.0
N340 N 0.78262 0.31844 0.67827 0.0
N341 N 0.71183 0.12539 0.68646 0.0
H342 H 0.62145 0.23399 0.7023 0.0
H343 H 0.63161 0.17114 0.7077 0.0
H344 H 0.73524 0.09514 0.68464 0.0
H345 H 0.67477 0.11604 0.68267 0.0
H346 H 0.81896 0.32715 0.67052 0.0
H347 H 0.75911 0.34863 0.67683 0.0
H348 H 0.86474 0.27445 0.69613 0.0
H349 H 0.87484 0.21145 0.69156 0.0
C350 C 0.23382 0.74144 0.62623 0.0
C351 C 0.18486 0.75921 0.63208 0.0
C352 C 0.21787 0.84309 0.64308 0.0
C353 C 0.26646 0.82495 0.63842 0.0
N354 N 0.32027 0.76132 0.61405 0.0
N355 N 0.12996 0.8283 0.63391 0.0
C356 C 0.27416 0.77556 0.62598 0.0
C357 C 0.17688 0.81062 0.63651 0.0
N358 N 0.24262 0.69189 0.62416 0.0
N359 N 0.21097 0.89074 0.65568 0.0
H360 H 0.09956 0.80532 0.62821 0.0
H361 H 0.1217 0.86571 0.63322 0.0
H362 H 0.24001 0.91595 0.65932 0.0
H363 H 0.17691 0.9046 0.66467 0.0
H364 H 0.27779 0.67695 0.62584 0.0
H365 H 0.21514 0.66489 0.624 0.0
H366 H 0.32768 0.72724 0.60045 0.0
H367 H 0.35041 0.78561 0.61397 0.0
C368 C 0.04643 0.40954 0.21456 0.0
C369 C 0.05084 0.42639 0.25631 0.0
C370 C 0.12269 0.4763 0.23636 0.0
C371 C 0.10522 0.4744 0.19466 0.0
N372 N 0.06367 0.42754 0.14135 0.0
N373 N 0.10294 0.46119 0.30959 0.0
C374 C 0.07217 0.43599 0.18284 0.0
C375 C 0.09329 0.45405 0.2681 0.0
N376 N 0.01739 0.36953 0.20559 0.0
N377 N 0.16617 0.49978 0.24524 0.0
H378 H 0.0825 0.44281 0.33258 0.0
H379 H 0.13003 0.48512 0.32103 0.0
H380 H 0.18937 0.5129 0.22167 0.0
H381 H 0.18172 0.50137 0.275 0.0
H382 H 0.01357 0.3545 0.17576 0.0
H383 H 1.00146 0.34807 0.22911 0.0
H384 H 0.03637 0.40387 0.12989 0.0
H385 H 0.08452 0.44547 0.1184 0.0
C386 C 0.08203 0.07564 0.25369 0.0
C387 C 0.0409 0.09966 0.27113 0.0
C388 C 0.05733 0.06051 0.33808 0.0
C389 C 0.08583 0.02507 0.31652 0.0
N390 N 0.13545 1.00435 0.2566 0.0
N391 N 0.99968 0.12853 0.3327 0.0
C392 C 0.10293 0.0353 0.27554 0.0
C393 C 0.03303 0.09768 0.31475 0.0
N394 N 0.09806 0.08986 0.2151 0.0
N395 N 0.05245 0.05672 0.38041 0.0
H396 H 0.98417 0.15764 0.31613 0.0
H397 H 0.98795 0.12596 0.36361 0.0
H398 H 0.0713 0.02978 0.39706 0.0
H399 H 0.03351 0.08173 0.39901 0.0
H400 H 0.12914 0.07565 0.20047 0.0
H401 H 0.08169 0.11942 0.19961 0.0
H402 H 0.14509 1.00661 0.22514 0.0
H403 H 0.15259 0.97581 0.27262 0.0
C404 C 0.4384 0.08123 0.29464 0.0
C405 C 0.47825 0.108 0.27694 0.0
C406 C 0.45518 0.07726 0.20776 0.0
C407 C 0.42738 0.03941 0.22756 0.0
N408 N 0.38261 0.01099 0.28813 0.0
N409 N 0.51212 0.14682 0.21563 0.0
C410 C 0.41433 0.0442 0.27029 0.0
C411 C 0.48184 0.11189 0.23287 0.0
N412 N 0.42611 0.08998 0.33536 0.0
N413 N 0.45684 0.07832 0.16509 0.0
H414 H 0.52741 0.17544 0.23335 0.0
H415 H 0.52043 0.14907 0.18393 0.0
H416 H 0.43595 0.05358 0.14716 0.0
H417 H 0.47574 0.1047 0.14761 0.0
H418 H 0.39592 0.0739 0.35032 0.0
H419 H 0.44454 0.11703 0.35293 0.0
H420 H 0.37608 1.00876 0.32016 0.0
H421 H 0.36294 0.985 0.27059 0.0
C422 C 0.47035 0.42425 0.27248 0.0
C423 C 0.48826 0.45696 0.24089 0.0
C424 C 0.41964 0.51146 0.25804 0.0
C425 C 0.41517 0.4887 0.29729 0.0
N426 N 0.43264 0.41963 0.34132 0.0
N427 N 0.48159 0.54011 0.21071 0.0
C428 C 0.43874 0.44323 0.30403 0.0
C429 C 0.46271 0.50251 0.2345 0.0
N430 N 0.48262 0.37556 0.27212 0.0
N431 N 0.38597 0.54547 0.24567 0.0
H432 H 0.51747 0.54182 0.19947 0.0
H433 H 0.46416 0.57407 0.20797 0.0
H434 H 0.35434 0.55251 0.26318 0.0
H435 H 0.38678 0.5616 0.21605 0.0
H436 H 0.46814 0.35019 0.2934 0.0
H437 H 0.50195 0.35959 0.24744 0.0
H438 H 0.45321 0.38902 0.35001 0.0
H439 H 0.40813 0.43262 0.36392 0.0
C440 C 0.92654 0.55891 0.67727 0.0
C441 C 0.9572 0.59386 0.69785 0.0
C442 C 0.92115 0.56938 0.76482 0.0
C443 C 0.90313 0.52575 0.74553 0.0
N444 N 0.8796 0.48246 0.68253 0.0
N445 N 0.9777 0.63918 0.76058 0.0
C446 C 0.90146 0.52236 0.70128 0.0
C447 C 0.95136 0.6024 0.74135 0.0
N448 N 0.92314 0.56025 0.63469 0.0
N449 N 0.91081 0.57743 0.80606 0.0
H450 H 0.99826 0.66522 0.74397 0.0
H451 H 0.97994 0.64346 0.7929 0.0
H452 H 0.88872 0.55287 0.82309 0.0
H453 H 0.9201 0.60972 0.82204 0.0
H454 H 0.8993 0.53798 0.61724 0.0
H455 H 0.94131 0.5875 0.61738 0.0
H456 H 0.88273 0.47444 0.65078 0.0
H457 H 0.85861 0.45671 0.69907 0.0
C458 C 1.00844 0.99908 0.81703 0.0
C459 C 0.02277 0.94864 0.82 0.0
C460 C 0.95903 0.92794 0.76806 0.0
C461 C 0.94368 0.9777 0.76829 0.0
N462 N 0.94063 0.05442 0.80634 0.0
N463 N 1.00063 0.86328 0.80637 0.0
C464 C 0.96287 0.01039 0.79857 0.0
C465 C 0.99451 0.9122 0.79814 0.0
N466 N 0.04037 0.03686 0.82656 0.0
N467 N 0.94088 0.89643 0.73839 0.0
H468 H 0.02401 0.8507 0.82986 0.0
H469 H 0.97849 0.83578 0.79306 0.0
H470 H 0.91341 0.90712 0.71743 0.0
H471 H 0.95456 0.86105 0.73371 0.0
H472 H 0.03121 0.07382 0.82277 0.0
H473 H 0.07803 0.03199 0.83126 0.0
H474 H 0.95284 0.07842 0.82981 0.0
H475 H 0.90707 0.06392 0.79276 0.0
C476 C 0.55001 0.90777 0.79358 0.0
C477 C 0.58458 0.94363 0.77959 0.0
C478 C 0.56796 0.92002 0.70746 0.0
C479 C 0.52292 0.89891 0.7213 0.0
N480 N 0.48062 0.85399 0.77541 0.0
N481 N 0.64458 0.96234 0.72649 0.0
C482 C 0.51786 0.88526 0.76379 0.0
C483 C 0.60013 0.94226 0.73739 0.0
N484 N 0.54737 0.89757 0.83532 0.0
N485 N 0.57735 0.9212 0.66558 0.0
H486 H 0.66982 0.97437 0.74906 0.0
H487 H 0.6583 0.96297 0.69611 0.0
H488 H 0.55415 0.9027 0.64453 0.0
H489 H 0.6074 0.93917 0.65204 0.0
H490 H 0.52346 0.87172 0.84851 0.0
H491 H 0.57211 0.91377 0.85648 0.0
H492 H 0.47182 0.84553 0.80627 0.0
H493 H 0.45941 0.83489 0.75336 0.0
C494 C 0.58105 0.5521 0.73073 0.0
C495 C 0.60014 0.50997 0.75087 0.0
C496 C 0.58199 0.54708 0.81861 0.0
C497 C 0.54922 0.57909 0.79808 0.0
N498 N 0.52445 0.62085 0.73549 0.0
N499 N 0.62944 0.4718 0.81412 0.0
C500 C 0.55235 0.58565 0.75434 0.0
C501 C 0.60565 0.50971 0.79497 0.0
N502 N 0.58847 0.55784 0.6888 0.0
N503 N 0.58819 0.55157 0.86079 0.0
H504 H 0.649 0.4454 0.79739 0.0
H505 H 0.62939 0.46623 0.84634 0.0
H506 H 0.56978 0.57867 0.87786 0.0
H507 H 0.61406 0.53178 0.87783 0.0
H508 H 0.57785 0.58892 0.67211 0.0
H509 H 0.60912 0.53251 0.67165 0.0
H510 H 0.52052 0.62415 0.70321 0.0
H511 H 0.50439 0.64639 0.75285 0.0
C512 C 0.01712 0.76011 0.19343 0.0
C513 C 0.01479 0.70952 0.20436 0.0
C514 C 1.00409 0.73112 0.27834 0.0
C515 C 0.01037 0.78168 0.26783 0.0
N516 N 1.00722 0.84529 0.21563 0.0
N517 N 0.99077 0.64705 0.25357 0.0
C518 C 0.01132 0.79642 0.22526 0.0
C519 C 1.00261 0.69526 0.24572 0.0
N520 N 0.0282 0.77323 0.15324 0.0
N521 N 1.00342 0.71705 0.31939 0.0
H522 H 0.98964 0.62055 0.2298 0.0
H523 H 0.97773 0.6344 0.28229 0.0
H524 H 1.00361 0.74221 0.34409 0.0
H525 H 1.00515 0.68047 0.3291 0.0
H526 H 0.03672 0.80918 0.14414 0.0
H527 H 0.03082 0.7474 0.12911 0.0
H528 H 1.00384 0.8585 0.1852 0.0
H529 H 1.00257 0.87228 0.23863 0.0
C530 C 0.80385 1.00279 0.29324 0.0
C531 C 0.80191 0.00995 0.24939 0.0
C532 C 0.7119 1.0064 0.25237 0.0
C533 C 0.71461 0.01403 0.29617 0.0
N534 N 0.76223 0.01271 0.35986 0.0
N535 N 0.75435 0.01159 0.1857 0.0
C536 C 0.76017 1.00847 0.31732 0.0
C537 C 0.75596 1.00791 0.22828 0.0
N538 N 0.8481 0.99253 0.31149 0.0
N539 N 0.66678 0.99955 0.23416 0.0
H540 H 0.78593 0.01069 0.16719 0.0
H541 H 0.72199 0.01681 0.16881 0.0
H542 H 0.63443 0.99854 0.2519 0.0
H543 H 0.66183 0.99045 0.20275 0.0
H544 H 0.85216 0.98359 0.34297 0.0
H545 H 0.88016 0.98859 0.29373 0.0
H546 H 0.79502 0.01533 0.37671 0.0
H547 H 0.73075 0.01498 0.3784 0.0
C548 C 0.48902 0.76619 0.32984 0.0
C549 C 0.48991 0.71663 0.31582 0.0
C550 C 0.49877 0.74402 0.2431 0.0
C551 C 0.49426 0.79363 0.25678 0.0
N552 N 0.50078 0.85286 0.31267 0.0
N553 N 0.51122 0.65829 0.26235 0.0
C554 C 0.49497 0.80492 0.30017 0.0
C555 C 0.50053 0.7057 0.27343 0.0
N556 N 0.47918 0.77614 0.3709 0.0
N557 N 0.49739 0.73312 0.20134 0.0
H558 H 0.5124 0.62982 0.2843 0.0
H559 H 0.52344 0.6482 0.23269 0.0
H560 H 0.49692 0.76005 0.17814 0.0
H561 H 0.49401 0.69736 0.18964 0.0
H562 H 0.47183 0.81132 0.38228 0.0
H563 H 0.47632 0.74847 0.39345 0.0
H564 H 0.50542 0.86353 0.34375 0.0
H565 H 0.50559 0.88158 0.29128 0.0
C566 C 0.73276 0.55698 0.24545 0.0
C567 C 0.73338 0.53693 0.20454 0.0
C568 C 0.82334 0.53336 0.2077 0.0
C569 C 0.82064 0.53898 0.25174 0.0
N570 N 0.77446 0.56377 0.31252 0.0
N571 N 0.77927 0.5138 0.14342 0.0
C572 C 0.77614 0.55486 0.27048 0.0
C573 C 0.77894 0.52918 0.18411 0.0
N574 N 0.68966 0.57551 0.26052 0.0
N575 N 0.86855 0.53032 0.18917 0.0
H576 H 0.74731 0.51254 0.12527 0.0
H577 H 0.81064 0.50147 0.12802 0.0
H578 H 0.90111 0.53346 0.20654 0.0
H579 H 0.87385 0.52918 0.15692 0.0
H580 H 0.68655 0.59355 0.28917 0.0
H581 H 0.65784 0.57634 0.24206 0.0
H582 H 0.74195 0.56957 0.32901 0.0
H583 H 0.80591 0.56421 0.33126 0.0
C584 C 0.99623 0.24376 0.68824 0.0
C585 C 1.0032 0.19939 0.71075 0.0
C586 C 0.01643 0.24594 0.77567 0.0
C587 C 1.00326 0.28964 0.75419 0.0
N588 N 1.00058 0.3334 0.68903 0.0
N589 N 0.03885 0.15951 0.77021 0.0
C590 C 1.00059 0.28949 0.70989 0.0
C591 C 0.02033 0.20122 0.75258 0.0
N592 N 0.98152 0.24218 0.64739 0.0
N593 N 0.02113 0.24609 0.81821 0.0
H594 H 0.0415 0.12657 0.75335 0.0
H595 H 0.05583 0.15895 0.79945 0.0
H596 H 0.02051 0.27823 0.83607 0.0
H597 H 0.02402 0.21409 0.83599 0.0
H598 H 0.96943 0.27296 0.63101 0.0
H599 H 0.97967 0.20953 0.6302 0.0
H600 H 1.00222 0.33624 0.65657 0.0
H601 H 1.00384 0.36706 0.70483 0.0
C602 C 0.26972 0.04614 0.75096 0.0
C603 C 0.31892 0.03053 0.75656 0.0
C604 C 0.30578 0.02253 0.83206 0.0
C605 C 0.25492 0.03038 0.82536 0.0
N606 N 0.19111 0.06585 0.7837 0.0
N607 N 0.3884 0.02079 0.80226 0.0
C608 C 0.23814 0.04868 0.78649 0.0
C609 C 0.3386 0.02515 0.79737 0.0
N610 N 0.25261 0.05482 0.71149 0.0
N611 N 0.3215 1.00862 0.87083 0.0
H612 H 0.41249 0.02265 0.77681 0.0
H613 H 0.40598 0.01943 0.83119 0.0
H614 H 0.29775 1.0081 0.89654 0.0
H615 H 0.35707 0.99678 0.87735 0.0
H616 H 0.21582 0.06137 0.70437 0.0
H617 H 0.27581 0.05443 0.68544 0.0
H618 H 0.17644 0.08201 0.757 0.0
H619 H 0.16809 0.0672 0.80988 0.0
C620 C 0.47851 0.18265 0.75121 0.0
C621 C 0.49024 0.18513 0.79431 0.0
C622 C 0.48758 0.27515 0.79092 0.0
C623 C 0.4908 0.27197 0.74678 0.0
N624 N 0.48276 0.22333 0.68378 0.0
N625 N 0.4988 0.23361 0.85731 0.0
C626 C 0.48255 0.22605 0.72645 0.0
C627 C 0.49089 0.23137 0.81515 0.0
N628 N 0.46555 0.13814 0.73417 0.0
N629 N 0.48302 0.32044 0.80922 0.0
H630 H 0.49884 0.20239 0.87624 0.0
H631 H 0.50645 0.26623 0.87342 0.0
H632 H 0.48062 0.35261 0.7914 0.0
H633 H 0.47705 0.32566 0.8411 0.0
H634 H 0.45324 0.13369 0.7035 0.0
H635 H 0.46287 0.10632 0.75247 0.0
H636 H 0.48329 0.19023 0.66721 0.0
H637 H 0.48386 0.25448 0.66477 0.0
C638 C 0.27329 0.53008 0.75746 0.0
C639 C 0.29038 0.57232 0.77976 0.0
C640 C 0.2326 0.62374 0.74127 0.0
C641 C 0.21134 0.58129 0.72199 0.0
N642 N 0.20641 0.49241 0.71755 0.0
N643 N 0.27513 0.65602 0.80162 0.0
C644 C 0.23029 0.53382 0.73161 0.0
C645 C 0.26641 0.61802 0.77438 0.0
N646 N 0.29884 0.48704 0.7598 0.0
N647 N 0.22258 0.66993 0.72669 0.0
H648 H 0.29833 0.65253 0.82738 0.0
H649 H 0.25502 0.68861 0.80142 0.0
H650 H 0.20049 0.67613 0.70069 0.0
H651 H 0.24107 0.70153 0.73718 0.0
H652 H 0.2913 0.45661 0.74079 0.0
H653 H 0.32989 0.48304 0.77872 0.0
H654 H 0.21568 0.45694 0.72701 0.0
H655 H 0.17463 0.49368 0.69922 0.0
C656 C 0.04683 0.49413 0.99868 0.0
C657 C 0.0191 0.53704 1.008 0.0
C658 C 0.96704 0.52173 0.94611 0.0
C659 C 0.99635 0.48018 0.93566 0.0
N660 N 0.06754 0.42993 0.9488 0.0
N661 N 0.9577 0.59598 0.98822 0.0
C662 C 0.03741 0.46751 0.96092 0.0
C663 C 0.98033 0.55187 0.98114 0.0
N664 N 0.08043 0.47719 0.02707 0.0
N665 N 0.92658 0.53259 0.92237 0.0
H666 H 0.96695 0.61901 0.0133 0.0
H667 H 0.93268 0.61192 0.96774 0.0
H668 H 0.91758 0.51402 0.89477 0.0
H669 H 0.90024 0.55835 0.93093 0.0
H670 H 0.09733 0.44298 0.02485 0.0
H671 H 0.08901 0.49565 0.05481 0.0
H672 H 0.10159 0.42301 0.96253 0.0
H673 H 0.05986 0.40702 0.9233 0.0
C674 C 0.08547 0.04175 0.04382 0.0
C675 C 0.07604 1.00222 0.01567 0.0
C676 C 0.99706 0.98475 0.05102 0.0
C677 C 1.00775 0.02265 0.08037 0.0
N678 N 0.06546 0.08177 0.1095 0.0
N679 N 0.0253 0.93276 0.99418 0.0
C680 C 0.05279 0.04983 0.07798 0.0
C681 C 0.03272 0.97247 0.02002 0.0
N682 N 0.12556 0.07188 0.03766 0.0
N683 N 0.95168 0.9622 0.05158 0.0
H684 H 0.04812 0.92443 0.96899 0.0
H685 H 0.99803 0.90609 0.99897 0.0
H686 H 0.92466 0.97061 0.07363 0.0
H687 H 0.93901 0.9381 0.02849 0.0
H688 H 0.13114 0.10508 0.05348 0.0
H689 H 0.15228 0.06497 0.01497 0.0
H690 H 0.10012 0.09828 0.11235 0.0
H691 H 0.04257 0.08904 0.13491 0.0
C692 C 0.47521 0.99502 0.04198 0.0
C693 C 0.50491 0.95395 0.05304 0.0
C694 C 0.54993 0.96198 0.98656 0.0
C695 C 0.52281 1.00517 0.97719 0.0
N696 N 0.46527 0.06743 0.99824 0.0
N697 N 0.57332 0.90064 0.03794 0.0
C698 C 0.48678 0.02278 1.00543 0.0
C699 C 0.54328 0.9383 0.02599 0.0
N700 N 0.43589 1.00776 0.06636 0.0
N701 N 0.58022 0.94212 0.95687 0.0
H702 H 0.56712 0.8796 0.06475 0.0
H703 H 0.6058 0.8917 0.02246 0.0
H704 H 0.58629 0.95834 0.92774 0.0
H705 H 0.59653 0.90769 0.95965 0.0
H706 H 0.40926 0.03292 0.05715 0.0
H707 H 0.42763 0.99114 0.09485 0.0
H708 H 0.44301 0.08539 0.01984 0.0
H709 H 0.47318 0.08894 0.972 0.0
C710 C 0.45225 0.52077 1.00728 0.0
C711 C 0.47086 0.51154 0.9666 0.0
C712 C 0.55093 0.48821 0.99683 0.0
C713 C 0.53142 0.49487 0.03756 0.0
N714 N 0.46012 0.50597 0.08175 0.0
N715 N 0.5354 0.47863 0.92264 0.0
C716 C 0.48112 0.50807 0.04287 0.0
C717 C 0.51927 0.49243 0.96142 0.0
N718 N 0.40693 0.5417 0.012 0.0
N719 N 0.60039 0.48087 0.99174 0.0
H720 H 0.5156 0.48452 0.8952 0.0
H721 H 0.56735 0.45839 0.91784 0.0
H722 H 0.62492 0.47831 0.01677 0.0
H723 H 0.61795 0.48167 0.96277 0.0
H724 H 0.39398 0.55515 0.04045 0.0
H725 H 0.38327 0.54834 0.98693 0.0
H726 H 0.42253 0.51026 0.08708 0.0
H727 H 0.47924 0.49492 0.10841 0.0
C728 C 0.03134 0.97201 0.48918 0.0
C729 C 0.99924 0.93228 0.47782 0.0
C730 C 0.95126 0.94625 0.542 0.0
C731 C 0.97969 0.98955 0.55026 0.0
N732 N 0.04004 0.0492 0.52673 0.0
N733 N 0.92625 0.8835 0.49176 0.0
C734 C 0.01806 1.00378 0.52262 0.0
C735 C 0.95829 0.92016 0.50367 0.0
N736 N 0.07463 0.9799 0.46823 0.0
N737 N 0.91942 0.92849 0.57166 0.0
H738 H 0.93244 0.86082 0.46592 0.0
H739 H 0.89242 0.87715 0.5063 0.0
H740 H 0.91404 0.94571 0.60047 0.0
H741 H 0.90162 0.89437 0.56938 0.0
H742 H 0.10186 1.0043 0.47882 0.0
H743 H 0.08557 0.95985 0.44214 0.0
H744 H 0.0642 0.06397 0.50462 0.0
H745 H 0.03011 0.07453 0.54978 0.0
C746 C 0.4872 0.07474 0.48583 0.0
C747 C 0.52871 0.04479 0.47657 0.0
C748 C 0.51587 0.99869 0.54187 0.0
C749 C 0.47311 0.02698 0.5501 0.0
N750 N 0.41495 0.08861 0.52951 0.0
N751 N 0.5808 0.97606 0.49344 0.0
C752 C 0.45806 0.06435 0.52206 0.0
C753 C 0.54244 1.00606 0.50393 0.0
N754 N 0.47542 0.11281 0.45972 0.0
N755 N 0.53206 0.96592 0.57122 0.0
H756 H 0.60389 0.98275 0.46795 0.0
H757 H 0.58869 0.94321 0.50872 0.0
H758 H 0.5128 0.95834 0.59872 0.0
H759 H 0.56595 0.94835 0.56988 0.0
H760 H 0.4493 0.13943 0.4666 0.0
H761 H 0.49332 0.11942 0.4314 0.0
H762 H 0.39874 0.11306 0.50872 0.0
H763 H 0.39331 0.08201 0.55594 0.0
C764 C 0.49867 0.51793 0.57358 0.0
C765 C 0.50269 0.46578 0.56899 0.0
C766 C 0.48571 0.47305 0.49375 0.0
C767 C 0.48491 0.52526 0.49794 0.0
N768 N 0.49551 0.59829 0.53994 0.0
N769 N 0.50466 0.39371 0.52473 0.0
C770 C 0.49236 0.54796 0.53742 0.0
C771 C 0.49776 0.44338 0.52901 0.0
N772 N 0.50115 0.53883 0.61256 0.0
N773 N 0.47286 0.45177 0.45635 0.0
H774 H 0.51014 0.37024 0.55009 0.0
H775 H 0.50775 0.37593 0.49597 0.0
H776 H 0.46374 0.47217 0.42985 0.0
H777 H 0.46737 0.41403 0.45217 0.0
H778 H 0.49227 0.57536 0.61883 0.0
H779 H 0.50998 0.51917 0.63947 0.0
H780 H 0.50647 0.61747 0.56667 0.0
H781 H 0.49027 0.62126 0.51419 0.0
C782 C 0.98258 0.5755 0.46708 0.0
C783 C 0.99929 0.53668 0.44113 0.0
C784 C 0.06984 0.52416 0.48828 0.0
C785 C 0.04994 0.5589 0.51679 0.0
N786 N 0.98247 0.61218 0.53614 0.0
N787 N 0.05645 0.47071 0.42825 0.0
C788 C 1.00524 0.58353 0.50681 0.0
C789 C 0.04217 0.50992 0.45219 0.0
N790 N 0.94491 0.60479 0.45384 0.0
N791 N 0.11627 0.50647 0.49473 0.0
H792 H 0.03866 0.46047 0.40058 0.0
H793 H 0.0838 0.44621 0.43722 0.0
H794 H 0.13818 0.51739 0.52002 0.0
H795 H 0.13504 0.48496 0.47306 0.0
H796 H 0.93514 0.63739 0.46887 0.0
H797 H 0.92564 0.59848 0.42604 0.0
H798 H 0.94702 0.62594 0.53245 0.0
H799 H 0.99673 0.61881 0.56588 0.0
loop_
_geom_bond_atom_site_label_1
_geom_bond_atom_site_label_2
_geom_bond_distance
_geom_bond_site_symmetry_2
_ccdc_geom_bond_type
O0 Cd1 2.223 . S
O0 C8 1.315 . S
Cd1 O0 2.223 . S
Cd1 O4 2.297 . S
Cd1 O5 2.439 1_655 S
Cd1 O11 2.240 1_655 S
Cd2 O3 2.240 . S
Cd2 O10 2.223 . S
Cd2 O12 2.297 . S
Cd2 O13 2.439 . S
O3 Cd2 2.240 . S
O3 C8 1.279 1_455 S
O4 Cd1 2.297 . S
O4 C6 1.247 . S
O5 Cd1 2.439 1_455 S
O5 C6 1.208 1_455 S
C6 O4 1.247 . S
C6 O5 1.208 1_655 S
C7 O12 1.247 . S
C7 O13 1.208 . S
C8 O0 1.315 . S
C8 O3 1.279 1_655 S
C9 O10 1.315 . S
C9 O11 1.279 . S
O10 Cd2 2.223 . S
O10 C9 1.315 . S
O11 Cd1 2.240 1_455 S
O11 C9 1.279 . S
O12 Cd2 2.297 . S
O12 C7 1.247 . S
O13 Cd2 2.439 . S
O13 C7 1.208 . S
O14 Cd15 2.223 . S
O14 C22 1.315 . S
Cd15 O14 2.223 . S
Cd15 O18 2.297 . S
Cd15 O19 2.439 1_565 S
Cd15 O25 2.240 1_565 S
Cd16 O17 2.240 . S
Cd16 O24 2.223 . S
Cd16 O26 2.297 . S
Cd16 O27 2.439 . S
O17 Cd16 2.240 . S
O17 C22 1.279 1_545 S
O18 Cd15 2.297 . S
O18 C20 1.247 . S
O19 Cd15 2.439 1_545 S
O19 C20 1.208 1_545 S
C20 O18 1.247 . S
C20 O19 1.208 1_565 S
C21 O26 1.247 . S
C21 O27 1.208 . S
C22 O14 1.315 . S
C22 O17 1.279 1_565 S
C23 O24 1.315 . S
C23 O25 1.279 . S
O24 Cd16 2.223 . S
O24 C23 1.315 . S
O25 Cd15 2.240 1_545 S
O25 C23 1.279 . S
O26 Cd16 2.297 . S
O26 C21 1.247 . S
O27 Cd16 2.439 . S
O27 C21 1.208 . S
O28 Cd29 2.223 . S
O28 C36 1.315 . S
Cd29 O28 2.223 . S
Cd29 O32 2.297 . S
Cd29 O33 2.439 . S
Cd29 O39 2.240 . S
Cd30 O31 2.240 . S
Cd30 O38 2.223 . S
Cd30 O40 2.297 . S
Cd30 O41 2.439 . S
O31 Cd30 2.240 . S
O31 C36 1.279 . S
O32 Cd29 2.297 . S
O32 C34 1.247 . S
O33 Cd29 2.439 . S
O33 C34 1.208 . S
C34 O32 1.247 . S
C34 O33 1.208 . S
C35 O40 1.247 . S
C35 O41 1.208 . S
C36 O28 1.315 . S
C36 O31 1.279 . S
C37 O38 1.315 . S
C37 O39 1.279 . S
O38 Cd30 2.223 . S
O38 C37 1.315 . S
O39 Cd29 2.240 . S
O39 C37 1.279 . S
O40 Cd30 2.297 . S
O40 C35 1.247 . S
O41 Cd30 2.439 . S
O41 C35 1.208 . S
O42 Cd43 2.223 . S
O42 C50 1.315 . S
Cd43 O42 2.223 . S
Cd43 O46 2.297 . S
Cd43 O47 2.439 . S
Cd43 O53 2.240 . S
Cd44 O45 2.240 . S
Cd44 O52 2.223 . S
Cd44 O54 2.297 . S
Cd44 O55 2.439 . S
O45 Cd44 2.240 . S
O45 C50 1.279 . S
O46 Cd43 2.297 . S
O46 C48 1.247 . S
O47 Cd43 2.439 . S
O47 C48 1.208 . S
C48 O46 1.247 . S
C48 O47 1.208 . S
C49 O54 1.247 . S
C49 O55 1.208 . S
C50 O42 1.315 . S
C50 O45 1.279 . S
C51 O52 1.315 . S
C51 O53 1.279 . S
O52 Cd44 2.223 . S
O52 C51 1.315 . S
O53 Cd43 2.240 . S
O53 C51 1.279 . S
O54 Cd44 2.297 . S
O54 C49 1.247 . S
O55 Cd44 2.439 . S
O55 C49 1.208 . S
O56 Cd57 2.223 . S
O56 C64 1.315 . S
Cd57 O56 2.223 . S
Cd57 O60 2.297 . S
Cd57 O61 2.439 1_655 S
Cd57 O67 2.240 1_655 S
Cd58 O59 2.240 . S
Cd58 O66 2.223 . S
Cd58 O68 2.297 . S
Cd58 O69 2.439 . S
O59 Cd58 2.240 . S
O59 C64 1.279 1_455 S
O60 Cd57 2.297 . S
O60 C62 1.247 . S
O61 Cd57 2.439 1_455 S
O61 C62 1.208 1_455 S
C62 O60 1.247 . S
C62 O61 1.208 1_655 S
C63 O68 1.247 . S
C63 O69 1.208 . S
C64 O56 1.315 . S
C64 O59 1.279 1_655 S
C65 O66 1.315 . S
C65 O67 1.279 . S
O66 Cd58 2.223 . S
O66 C65 1.315 . S
O67 Cd57 2.240 1_455 S
O67 C65 1.279 . S
O68 Cd58 2.297 . S
O68 C63 1.247 . S
O69 Cd58 2.439 . S
O69 C63 1.208 . S
O70 Cd71 2.223 . S
O70 C78 1.315 . S
Cd71 O70 2.223 . S
Cd71 O74 2.297 . S
Cd71 O75 2.439 1_565 S
Cd71 O81 2.240 1_565 S
Cd72 O73 2.240 . S
Cd72 O80 2.223 . S
Cd72 O82 2.297 . S
Cd72 O83 2.439 . S
O73 Cd72 2.240 . S
O73 C78 1.279 1_545 S
O74 Cd71 2.297 . S
O74 C76 1.247 . S
O75 Cd71 2.439 1_545 S
O75 C76 1.208 1_545 S
C76 O74 1.247 . S
C76 O75 1.208 1_565 S
C77 O82 1.247 . S
C77 O83 1.208 . S
C78 O70 1.315 . S
C78 O73 1.279 1_565 S
C79 O80 1.315 . S
C79 O81 1.279 . S
O80 Cd72 2.223 . S
O80 C79 1.315 . S
O81 Cd71 2.240 1_545 S
O81 C79 1.279 . S
O82 Cd72 2.297 . S
O82 C77 1.247 . S
O83 Cd72 2.439 . S
O83 C77 1.208 . S
O84 Cd85 2.223 . S
O84 C92 1.315 . S
Cd85 O84 2.223 . S
Cd85 O88 2.297 . S
Cd85 O89 2.439 . S
Cd85 O95 2.240 . S
Cd86 O87 2.240 . S
Cd86 O94 2.223 . S
Cd86 O96 2.297 . S
Cd86 O97 2.439 . S
O87 Cd86 2.240 . S
O87 C92 1.279 . S
O88 Cd85 2.297 . S
O88 C90 1.247 . S
O89 Cd85 2.439 . S
O89 C90 1.208 . S
C90 O88 1.247 . S
C90 O89 1.208 . S
C91 O96 1.247 . S
C91 O97 1.208 . S
C92 O84 1.315 . S
C92 O87 1.279 . S
C93 O94 1.315 . S
C93 O95 1.279 . S
O94 Cd86 2.223 . S
O94 C93 1.315 . S
O95 Cd85 2.240 . S
O95 C93 1.279 . S
O96 Cd86 2.297 . S
O96 C91 1.247 . S
O97 Cd86 2.439 . S
O97 C91 1.208 . S
O98 Cd99 2.223 . S
O98 C106 1.315 . S
Cd99 O98 2.223 . S
Cd99 O102 2.297 . S
Cd99 O103 2.439 . S
Cd99 O109 2.240 . S
Cd100 O101 2.240 . S
Cd100 O108 2.223 . S
Cd100 O110 2.297 . S
Cd100 O111 2.439 . S
O101 Cd100 2.240 . S
O101 C106 1.279 . S
O102 Cd99 2.297 . S
O102 C104 1.247 . S
O103 Cd99 2.439 . S
O103 C104 1.208 . S
C104 O102 1.247 . S
C104 O103 1.208 . S
C105 O110 1.247 . S
C105 O111 1.208 . S
C106 O98 1.315 . S
C106 O101 1.279 . S
C107 O108 1.315 . S
C107 O109 1.279 . S
O108 Cd100 2.223 . S
O108 C107 1.315 . S
O109 Cd99 2.240 . S
O109 C107 1.279 . S
O110 Cd100 2.297 . S
O110 C105 1.247 . S
O111 Cd100 2.439 . S
O111 C105 1.208 . S
O112 Cd113 2.223 . S
O112 C120 1.315 . S
Cd113 O112 2.223 . S
Cd113 O116 2.297 . S
Cd113 O117 2.439 1_455 S
Cd113 O123 2.240 1_455 S
Cd114 O115 2.240 . S
Cd114 O122 2.223 . S
Cd114 O124 2.297 . S
Cd114 O125 2.439 . S
O115 Cd114 2.240 . S
O115 C120 1.279 1_655 S
O116 Cd113 2.297 . S
O116 C118 1.247 . S
O117 Cd113 2.439 1_655 S
O117 C118 1.208 1_655 S
C118 O116 1.247 . S
C118 O117 1.208 1_455 S
C119 O124 1.247 . S
C119 O125 1.208 . S
C120 O112 1.315 . S
C120 O115 1.279 1_455 S
C121 O122 1.315 . S
C121 O123 1.279 . S
O122 Cd114 2.223 . S
O122 C121 1.315 . S
O123 Cd113 2.240 1_655 S
O123 C121 1.279 . S
O124 Cd114 2.297 . S
O124 C119 1.247 . S
O125 Cd114 2.439 . S
O125 C119 1.208 . S
O126 Cd127 2.223 . S
O126 C134 1.315 . S
Cd127 O126 2.223 . S
Cd127 O130 2.297 . S
Cd127 O131 2.439 1_545 S
Cd127 O137 2.240 1_545 S
Cd128 O129 2.240 . S
Cd128 O136 2.223 . S
Cd128 O138 2.297 . S
Cd128 O139 2.439 . S
O129 Cd128 2.240 . S
O129 C134 1.279 1_565 S
O130 Cd127 2.297 . S
O130 C132 1.247 . S
O131 Cd127 2.439 1_565 S
O131 C132 1.208 1_565 S
C132 O130 1.247 . S
C132 O131 1.208 1_545 S
C133 O138 1.247 . S
C133 O139 1.208 . S
C134 O126 1.315 . S
C134 O129 1.279 1_545 S
C135 O136 1.315 . S
C135 O137 1.279 . S
O136 Cd128 2.223 . S
O136 C135 1.315 . S
O137 Cd127 2.240 1_565 S
O137 C135 1.279 . S
O138 Cd128 2.297 . S
O138 C133 1.247 . S
O139 Cd128 2.439 . S
O139 C133 1.208 . S
O140 Cd141 2.223 . S
O140 C148 1.315 . S
Cd141 O140 2.223 . S
Cd141 O144 2.297 . S
Cd141 O145 2.439 . S
Cd141 O151 2.240 . S
Cd142 O143 2.240 . S
Cd142 O150 2.223 . S
Cd142 O152 2.297 . S
Cd142 O153 2.439 . S
O143 Cd142 2.240 . S
O143 C148 1.279 . S
O144 Cd141 2.297 . S
O144 C146 1.247 . S
O145 Cd141 2.439 . S
O145 C146 1.208 . S
C146 O144 1.247 . S
C146 O145 1.208 . S
C147 O152 1.247 . S
C147 O153 1.208 . S
C148 O140 1.315 . S
C148 O143 1.279 . S
C149 O150 1.315 . S
C149 O151 1.279 . S
O150 Cd142 2.223 . S
O150 C149 1.315 . S
O151 Cd141 2.240 . S
O151 C149 1.279 . S
O152 Cd142 2.297 . S
O152 C147 1.247 . S
O153 Cd142 2.439 . S
O153 C147 1.208 . S
O154 Cd155 2.223 . S
O154 C162 1.315 . S
Cd155 O154 2.223 . S
Cd155 O158 2.297 . S
Cd155 O159 2.439 . S
Cd155 O165 2.240 . S
Cd156 O157 2.240 . S
Cd156 O164 2.223 . S
Cd156 O166 2.297 . S
Cd156 O167 2.439 . S
O157 Cd156 2.240 . S
O157 C162 1.279 . S
O158 Cd155 2.297 . S
O158 C160 1.247 . S
O159 Cd155 2.439 . S
O159 C160 1.208 . S
C160 O158 1.247 . S
C160 O159 1.208 . S
C161 O166 1.247 . S
C161 O167 1.208 . S
C162 O154 1.315 . S
C162 O157 1.279 . S
C163 O164 1.315 . S
C163 O165 1.279 . S
O164 Cd156 2.223 . S
O164 C163 1.315 . S
O165 Cd155 2.240 . S
O165 C163 1.279 . S
O166 Cd156 2.297 . S
O166 C161 1.247 . S
O167 Cd156 2.439 . S
O167 C161 1.208 . S
O168 Cd169 2.223 . S
O168 C176 1.315 . S
Cd169 O168 2.223 . S
Cd169 O172 2.297 . S
Cd169 O173 2.439 1_455 S
Cd169 O179 2.240 1_455 S
Cd170 O171 2.240 . S
Cd170 O178 2.223 . S
Cd170 O180 2.297 . S
Cd170 O181 2.439 . S
O171 Cd170 2.240 . S
O171 C176 1.279 1_655 S
O172 Cd169 2.297 . S
O172 C174 1.247 . S
O173 Cd169 2.439 1_655 S
O173 C174 1.208 1_655 S
C174 O172 1.247 . S
C174 O173 1.208 1_455 S
C175 O180 1.247 . S
C175 O181 1.208 . S
C176 O168 1.315 . S
C176 O171 1.279 1_455 S
C177 O178 1.315 . S
C177 O179 1.279 . S
O178 Cd170 2.223 . S
O178 C177 1.315 . S
O179 Cd169 2.240 1_655 S
O179 C177 1.279 . S
O180 Cd170 2.297 . S
O180 C175 1.247 . S
O181 Cd170 2.439 . S
O181 C175 1.208 . S
O182 Cd183 2.223 . S
O182 C190 1.315 . S
Cd183 O182 2.223 . S
Cd183 O186 2.297 . S
Cd183 O187 2.439 1_545 S
Cd183 O193 2.240 1_545 S
Cd184 O185 2.240 . S
Cd184 O192 2.223 . S
Cd184 O194 2.297 . S
Cd184 O195 2.439 . S
O185 Cd184 2.240 . S
O185 C190 1.279 1_565 S
O186 Cd183 2.297 . S
O186 C188 1.247 . S
O187 Cd183 2.439 1_565 S
O187 C188 1.208 1_565 S
C188 O186 1.247 . S
C188 O187 1.208 1_545 S
C189 O194 1.247 . S
C189 O195 1.208 . S
C190 O182 1.315 . S
C190 O185 1.279 1_545 S
C191 O192 1.315 . S
C191 O193 1.279 . S
O192 Cd184 2.223 . S
O192 C191 1.315 . S
O193 Cd183 2.240 1_565 S
O193 C191 1.279 . S
O194 Cd184 2.297 . S
O194 C189 1.247 . S
O195 Cd184 2.439 . S
O195 C189 1.208 . S
O196 Cd197 2.223 . S
O196 C204 1.315 . S
Cd197 O196 2.223 . S
Cd197 O200 2.297 . S
Cd197 O201 2.439 . S
Cd197 O207 2.240 . S
Cd198 O199 2.240 . S
Cd198 O206 2.223 . S
Cd198 O208 2.297 . S
Cd198 O209 2.439 . S
O199 Cd198 2.240 . S
O199 C204 1.279 . S
O200 Cd197 2.297 . S
O200 C202 1.247 . S
O201 Cd197 2.439 . S
O201 C202 1.208 . S
C202 O200 1.247 . S
C202 O201 1.208 . S
C203 O208 1.247 . S
C203 O209 1.208 . S
C204 O196 1.315 . S
C204 O199 1.279 . S
C205 O206 1.315 . S
C205 O207 1.279 . S
O206 Cd198 2.223 . S
O206 C205 1.315 . S
O207 Cd197 2.240 . S
O207 C205 1.279 . S
O208 Cd198 2.297 . S
O208 C203 1.247 . S
O209 Cd198 2.439 . S
O209 C203 1.208 . S
O210 Cd211 2.223 . S
O210 C218 1.315 . S
Cd211 O210 2.223 . S
Cd211 O214 2.297 . S
Cd211 O215 2.439 . S
Cd211 O221 2.240 . S
Cd212 O213 2.240 . S
Cd212 O220 2.223 . S
Cd212 O222 2.297 . S
Cd212 O223 2.439 . S
O213 Cd212 2.240 . S
O213 C218 1.279 . S
O214 Cd211 2.297 . S
O214 C216 1.247 . S
O215 Cd211 2.439 . S
O215 C216 1.208 . S
C216 O214 1.247 . S
C216 O215 1.208 . S
C217 O222 1.247 . S
C217 O223 1.208 . S
C218 O210 1.315 . S
C218 O213 1.279 . S
C219 O220 1.315 . S
C219 O221 1.279 . S
O220 Cd212 2.223 . S
O220 C219 1.315 . S
O221 Cd211 2.240 . S
O221 C219 1.279 . S
O222 Cd212 2.297 . S
O222 C217 1.247 . S
O223 Cd212 2.439 . S
O223 C217 1.208 . S
C224 C225 1.363 . S
C224 C230 1.379 . S
C224 N232 1.356 . S
C225 C224 1.363 . S
C225 C231 1.363 . S
C226 C227 1.363 . S
C226 C231 1.379 . S
C226 N233 1.356 . S
C227 C226 1.363 . S
C227 C230 1.363 . S
N228 C230 1.356 . S
N228 H240 0.984 . S
N228 H241 0.985 . S
N229 C231 1.356 . S
N229 H234 0.984 . S
N229 H235 0.985 . S
C230 C224 1.379 . S
C230 C227 1.363 . S
C230 N228 1.356 . S
C231 C225 1.363 . S
C231 C226 1.379 . S
C231 N229 1.356 . S
N232 C224 1.356 . S
N232 H238 0.984 . S
N232 H239 0.984 . S
N233 C226 1.356 . S
N233 H236 0.984 . S
N233 H237 0.985 . S
H234 N229 0.984 . S
H235 N229 0.985 . S
H236 N233 0.984 . S
H237 N233 0.985 . S
H238 N232 0.984 . S
H239 N232 0.984 . S
H240 N228 0.984 . S
H241 N228 0.985 . S
C242 C243 1.363 . S
C242 C248 1.379 . S
C242 N250 1.356 . S
C243 C242 1.363 . S
C243 C249 1.363 . S
C244 C245 1.363 . S
C244 C249 1.379 . S
C244 N251 1.356 . S
C245 C244 1.363 . S
C245 C248 1.363 . S
N246 C248 1.356 . S
N246 H258 0.984 . S
N246 H259 0.985 . S
N247 C249 1.356 . S
N247 H252 0.984 . S
N247 H253 0.985 . S
C248 C242 1.379 . S
C248 C245 1.363 . S
C248 N246 1.356 . S
C249 C243 1.363 . S
C249 C244 1.379 . S
C249 N247 1.356 . S
N250 C242 1.356 . S
N250 H256 0.984 . S
N250 H257 0.984 . S
N251 C244 1.356 . S
N251 H254 0.984 . S
N251 H255 0.985 . S
H252 N247 0.984 . S
H253 N247 0.985 . S
H254 N251 0.984 . S
H255 N251 0.985 . S
H256 N250 0.984 . S
H257 N250 0.984 . S
H258 N246 0.984 . S
H259 N246 0.985 . S
C260 C261 1.363 . S
C260 C266 1.379 . S
C260 N268 1.356 . S
C261 C260 1.363 . S
C261 C267 1.363 . S
C262 C263 1.363 . S
C262 C267 1.379 . S
C262 N269 1.356 . S
C263 C262 1.363 . S
C263 C266 1.363 . S
N264 C266 1.356 . S
N264 H276 0.984 . S
N264 H277 0.985 . S
N265 C267 1.356 . S
N265 H270 0.984 . S
N265 H271 0.985 . S
C266 C260 1.379 . S
C266 C263 1.363 . S
C266 N264 1.356 . S
C267 C261 1.363 . S
C267 C262 1.379 . S
C267 N265 1.356 . S
N268 C260 1.356 . S
N268 H274 0.984 . S
N268 H275 0.984 . S
N269 C262 1.356 . S
N269 H272 0.984 . S
N269 H273 0.985 . S
H270 N265 0.984 . S
H271 N265 0.985 . S
H272 N269 0.984 . S
H273 N269 0.985 . S
H274 N268 0.984 . S
H275 N268 0.984 . S
H276 N264 0.984 . S
H277 N264 0.985 . S
C278 C279 1.363 . S
C278 C284 1.379 . S
C278 N286 1.356 . S
C279 C278 1.363 . S
C279 C285 1.363 . S
C280 C281 1.363 . S
C280 C285 1.379 . S
C280 N287 1.356 . S
C281 C280 1.363 . S
C281 C284 1.363 . S
N282 C284 1.356 . S
N282 H294 0.984 . S
N282 H295 0.985 . S
N283 C285 1.356 . S
N283 H288 0.984 . S
N283 H289 0.985 . S
C284 C278 1.379 . S
C284 C281 1.363 . S
C284 N282 1.356 . S
C285 C279 1.363 . S
C285 C280 1.379 . S
C285 N283 1.356 . S
N286 C278 1.356 . S
N286 H292 0.984 . S
N286 H293 0.984 . S
N287 C280 1.356 . S
N287 H290 0.984 . S
N287 H291 0.985 . S
H288 N283 0.984 . S
H289 N283 0.985 . S
H290 N287 0.984 . S
H291 N287 0.985 . S
H292 N286 0.984 . S
H293 N286 0.984 . S
H294 N282 0.984 . S
H295 N282 0.985 . S
C296 C297 1.363 . S
C296 C302 1.379 . S
C296 N304 1.356 . S
C297 C296 1.363 . S
C297 C303 1.363 . S
C298 C299 1.363 . S
C298 C303 1.379 . S
C298 N305 1.356 . S
C299 C298 1.363 . S
C299 C302 1.363 . S
N300 C302 1.356 . S
N300 H312 0.984 . S
N300 H313 0.985 . S
N301 C303 1.356 . S
N301 H306 0.984 . S
N301 H307 0.985 . S
C302 C296 1.379 . S
C302 C299 1.363 . S
C302 N300 1.356 . S
C303 C297 1.363 . S
C303 C298 1.379 . S
C303 N301 1.356 . S
N304 C296 1.356 . S
N304 H310 0.984 . S
N304 H311 0.984 . S
N305 C298 1.356 . S
N305 H308 0.984 . S
N305 H309 0.985 . S
H306 N301 0.984 . S
H307 N301 0.985 . S
H308 N305 0.984 . S
H309 N305 0.985 . S
H310 N304 0.984 . S
H311 N304 0.984 . S
H312 N300 0.984 . S
H313 N300 0.985 . S
C314 C315 1.363 . S
C314 C320 1.379 . S
C314 N322 1.356 . S
C315 C314 1.363 . S
C315 C321 1.363 . S
C316 C317 1.363 . S
C316 C321 1.379 . S
C316 N323 1.356 . S
C317 C316 1.363 . S
C317 C320 1.363 . S
N318 C320 1.356 . S
N318 H330 0.984 . S
N318 H331 0.985 . S
N319 C321 1.356 . S
N319 H324 0.984 . S
N319 H325 0.985 . S
C320 C314 1.379 . S
C320 C317 1.363 . S
C320 N318 1.356 . S
C321 C315 1.363 . S
C321 C316 1.379 . S
C321 N319 1.356 . S
N322 C314 1.356 . S
N322 H328 0.984 . S
N322 H329 0.984 . S
N323 C316 1.356 . S
N323 H326 0.984 . S
N323 H327 0.985 . S
H324 N319 0.984 . S
H325 N319 0.985 . S
H326 N323 0.984 . S
H327 N323 0.985 . S
H328 N322 0.984 . S
H329 N322 0.984 . S
H330 N318 0.984 . S
H331 N318 0.985 . S
C332 C333 1.363 . S
C332 C338 1.379 . S
C332 N340 1.356 . S
C333 C332 1.363 . S
C333 C339 1.363 . S
C334 C335 1.363 . S
C334 C339 1.379 . S
C334 N341 1.356 . S
C335 C334 1.363 . S
C335 C338 1.363 . S
N336 C338 1.356 . S
N336 H348 0.984 . S
N336 H349 0.985 . S
N337 C339 1.356 . S
N337 H342 0.984 . S
N337 H343 0.985 . S
C338 C332 1.379 . S
C338 C335 1.363 . S
C338 N336 1.356 . S
C339 C333 1.363 . S
C339 C334 1.379 . S
C339 N337 1.356 . S
N340 C332 1.356 . S
N340 H346 0.984 . S
N340 H347 0.984 . S
N341 C334 1.356 . S
N341 H344 0.984 . S
N341 H345 0.985 . S
H342 N337 0.984 . S
H343 N337 0.985 . S
H344 N341 0.984 . S
H345 N341 0.985 . S
H346 N340 0.984 . S
H347 N340 0.984 . S
H348 N336 0.984 . S
H349 N336 0.985 . S
C350 C351 1.363 . S
C350 C356 1.379 . S
C350 N358 1.356 . S
C351 C350 1.363 . S
C351 C357 1.363 . S
C352 C353 1.363 . S
C352 C357 1.379 . S
C352 N359 1.356 . S
C353 C352 1.363 . S
C353 C356 1.363 . S
N354 C356 1.356 . S
N354 H366 0.984 . S
N354 H367 0.985 . S
N355 C357 1.356 . S
N355 H360 0.984 . S
N355 H361 0.985 . S
C356 C350 1.379 . S
C356 C353 1.363 . S
C356 N354 1.356 . S
C357 C351 1.363 . S
C357 C352 1.379 . S
C357 N355 1.356 . S
N358 C350 1.356 . S
N358 H364 0.984 . S
N358 H365 0.984 . S
N359 C352 1.356 . S
N359 H362 0.984 . S
N359 H363 0.985 . S
H360 N355 0.984 . S
H361 N355 0.985 . S
H362 N359 0.984 . S
H363 N359 0.985 . S
H364 N358 0.984 . S
H365 N358 0.984 . S
H366 N354 0.984 . S
H367 N354 0.985 . S
C368 C369 1.363 . S
C368 C374 1.379 . S
C368 N376 1.356 . S
C369 C368 1.363 . S
C369 C375 1.363 . S
C370 C371 1.363 . S
C370 C375 1.379 . S
C370 N377 1.356 . S
C371 C370 1.363 . S
C371 C374 1.363 . S
N372 C374 1.356 . S
N372 H384 0.984 1_655 S
N372 H385 0.985 1_655 S
N373 C375 1.356 . S
N373 H378 0.984 . S
N373 H379 0.985 . S
C374 C368 1.379 . S
C374 C371 1.363 . S
C374 N372 1.356 . S
C375 C369 1.363 . S
C375 C370 1.379 . S
C375 N373 1.356 . S
N376 C368 1.356 . S
N376 H382 0.984 . S
N376 H383 0.984 . S
N377 C370 1.356 . S
N377 H380 0.984 . S
N377 H381 0.985 . S
H378 N373 0.984 . S
H379 N373 0.985 . S
H380 N377 0.984 . S
H381 N377 0.985 . S
H382 N376 0.984 . S
H383 N376 0.984 . S
H384 N372 0.984 1_455 S
H385 N372 0.985 1_455 S
C386 C387 1.363 . S
C386 C392 1.379 . S
C386 N394 1.356 1_565 S
C387 C386 1.363 . S
C387 C393 1.363 . S
C388 C389 1.363 . S
C388 C393 1.379 . S
C388 N395 1.356 . S
C389 C388 1.363 . S
C389 C392 1.363 . S
N390 C392 1.356 1_455 S
N390 H402 0.984 . S
N390 H403 0.985 . S
N391 C393 1.356 . S
N391 H396 0.984 . S
N391 H397 0.985 . S
C392 C386 1.379 . S
C392 C389 1.363 . S
C392 N390 1.356 1_655 S
C393 C387 1.363 . S
C393 C388 1.379 . S
C393 N391 1.356 . S
N394 C386 1.356 1_545 S
N394 H400 0.984 . S
N394 H401 0.984 . S
N395 C388 1.356 . S
N395 H398 0.984 . S
N395 H399 0.985 . S
H396 N391 0.984 . S
H397 N391 0.985 . S
H398 N395 0.984 . S
H399 N395 0.985 . S
H400 N394 0.984 . S
H401 N394 0.984 . S
H402 N390 0.984 . S
H403 N390 0.985 . S
C404 C405 1.363 . S
C404 C410 1.379 . S
C404 N412 1.356 . S
C405 C404 1.363 . S
C405 C411 1.363 . S
C406 C407 1.363 . S
C406 C411 1.379 . S
C406 N413 1.356 . S
C407 C406 1.363 . S
C407 C410 1.363 . S
N408 C410 1.356 . S
N408 H420 0.984 . S
N408 H421 0.985 . S
N409 C411 1.356 1_545 S
N409 H414 0.984 . S
N409 H415 0.985 . S
C410 C404 1.379 . S
C410 C407 1.363 . S
C410 N408 1.356 . S
C411 C405 1.363 . S
C411 C406 1.379 . S
C411 N409 1.356 1_565 S
N412 C404 1.356 . S
N412 H418 0.984 . S
N412 H419 0.984 . S
N413 C406 1.356 . S
N413 H416 0.984 . S
N413 H417 0.985 1_565 S
H414 N409 0.984 . S
H415 N409 0.985 . S
H416 N413 0.984 . S
H417 N413 0.985 1_545 S
H418 N412 0.984 . S
H419 N412 0.984 . S
H420 N408 0.984 . S
H421 N408 0.985 . S
C422 C423 1.363 . S
C422 C428 1.379 . S
C422 N430 1.356 . S
C423 C422 1.363 . S
C423 C429 1.363 . S
C424 C425 1.363 . S
C424 C429 1.379 . S
C424 N431 1.356 . S
C425 C424 1.363 . S
C425 C428 1.363 . S
N426 C428 1.356 . S
N426 H438 0.984 . S
N426 H439 0.985 . S
N427 C429 1.356 . S
N427 H432 0.984 . S
N427 H433 0.985 . S
C428 C422 1.379 . S
C428 C425 1.363 . S
C428 N426 1.356 . S
C429 C423 1.363 . S
C429 C424 1.379 . S
C429 N427 1.356 . S
N430 C422 1.356 . S
N430 H436 0.984 . S
N430 H437 0.984 . S
N431 C424 1.356 . S
N431 H434 0.984 . S
N431 H435 0.985 . S
H432 N427 0.984 . S
H433 N427 0.985 . S
H434 N431 0.984 . S
H435 N431 0.985 . S
H436 N430 0.984 . S
H437 N430 0.984 . S
H438 N426 0.984 . S
H439 N426 0.985 . S
C440 C441 1.363 . S
C440 C446 1.379 . S
C440 N448 1.356 . S
C441 C440 1.363 . S
C441 C447 1.363 . S
C442 C443 1.363 . S
C442 C447 1.379 . S
C442 N449 1.356 . S
C443 C442 1.363 . S
C443 C446 1.363 . S
N444 C446 1.356 1_655 S
N444 H456 0.984 . S
N444 H457 0.985 . S
N445 C447 1.356 . S
N445 H450 0.984 . S
N445 H451 0.985 . S
C446 C440 1.379 . S
C446 C443 1.363 . S
C446 N444 1.356 1_455 S
C447 C441 1.363 . S
C447 C442 1.379 . S
C447 N445 1.356 . S
N448 C440 1.356 . S
N448 H454 0.984 . S
N448 H455 0.984 . S
N449 C442 1.356 . S
N449 H452 0.984 . S
N449 H453 0.985 . S
H450 N445 0.984 . S
H451 N445 0.985 . S
H452 N449 0.984 . S
H453 N449 0.985 . S
H454 N448 0.984 . S
H455 N448 0.984 . S
H456 N444 0.984 . S
H457 N444 0.985 . S
C458 C459 1.363 . S
C458 C464 1.379 . S
C458 N466 1.356 . S
C459 C458 1.363 . S
C459 C465 1.363 . S
C460 C461 1.363 . S
C460 C465 1.379 . S
C460 N467 1.356 1_455 S
C461 C460 1.363 . S
C461 C464 1.363 . S
N462 C464 1.356 . S
N462 H474 0.984 . S
N462 H475 0.985 . S
N463 C465 1.356 1_565 S
N463 H468 0.984 . S
N463 H469 0.985 1_455 S
C464 C458 1.379 . S
C464 C461 1.363 . S
C464 N462 1.356 . S
C465 C459 1.363 . S
C465 C460 1.379 . S
C465 N463 1.356 1_545 S
N466 C458 1.356 . S
N466 H472 0.984 . S
N466 H473 0.984 . S
N467 C460 1.356 1_655 S
N467 H470 0.984 . S
N467 H471 0.985 . S
H468 N463 0.984 . S
H469 N463 0.985 1_655 S
H470 N467 0.984 . S
H471 N467 0.985 . S
H472 N466 0.984 . S
H473 N466 0.984 . S
H474 N462 0.984 . S
H475 N462 0.985 . S
C476 C477 1.363 . S
C476 C482 1.379 . S
C476 N484 1.356 . S
C477 C476 1.363 . S
C477 C483 1.363 . S
C478 C479 1.363 . S
C478 C483 1.379 . S
C478 N485 1.356 1_545 S
C479 C478 1.363 . S
C479 C482 1.363 . S
N480 C482 1.356 . S
N480 H492 0.984 . S
N480 H493 0.985 . S
N481 C483 1.356 . S
N481 H486 0.984 . S
N481 H487 0.985 1_545 S
C482 C476 1.379 . S
C482 C479 1.363 . S
C482 N480 1.356 . S
C483 C477 1.363 . S
C483 C478 1.379 . S
C483 N481 1.356 . S
N484 C476 1.356 . S
N484 H490 0.984 . S
N484 H491 0.984 . S
N485 C478 1.356 1_565 S
N485 H488 0.984 . S
N485 H489 0.985 . S
H486 N481 0.984 . S
H487 N481 0.985 1_565 S
H488 N485 0.984 . S
H489 N485 0.985 . S
H490 N484 0.984 . S
H491 N484 0.984 . S
H492 N480 0.984 . S
H493 N480 0.985 . S
C494 C495 1.363 . S
C494 C500 1.379 . S
C494 N502 1.356 . S
C495 C494 1.363 . S
C495 C501 1.363 . S
C496 C497 1.363 . S
C496 C501 1.379 . S
C496 N503 1.356 . S
C497 C496 1.363 . S
C497 C500 1.363 . S
N498 C500 1.356 . S
N498 H510 0.984 . S
N498 H511 0.985 . S
N499 C501 1.356 . S
N499 H504 0.984 . S
N499 H505 0.985 . S
C500 C494 1.379 . S
C500 C497 1.363 . S
C500 N498 1.356 . S
C501 C495 1.363 . S
C501 C496 1.379 . S
C501 N499 1.356 . S
N502 C494 1.356 . S
N502 H508 0.984 . S
N502 H509 0.984 . S
N503 C496 1.356 . S
N503 H506 0.984 . S
N503 H507 0.985 . S
H504 N499 0.984 . S
H505 N499 0.985 . S
H506 N503 0.984 . S
H507 N503 0.985 . S
H508 N502 0.984 . S
H509 N502 0.984 . S
H510 N498 0.984 . S
H511 N498 0.985 . S
C512 C513 1.363 . S
C512 C518 1.379 . S
C512 N520 1.356 . S
C513 C512 1.363 . S
C513 C519 1.363 1_455 S
C514 C515 1.363 1_655 S
C514 C519 1.379 . S
C514 N521 1.356 . S
C515 C514 1.363 1_455 S
C515 C518 1.363 . S
N516 C518 1.356 . S
N516 H528 0.984 . S
N516 H529 0.985 . S
N517 C519 1.356 . S
N517 H522 0.984 . S
N517 H523 0.985 . S
C518 C512 1.379 . S
C518 C515 1.363 . S
C518 N516 1.356 . S
C519 C513 1.363 1_655 S
C519 C514 1.379 . S
C519 N517 1.356 . S
N520 C512 1.356 . S
N520 H526 0.984 . S
N520 H527 0.984 . S
N521 C514 1.356 . S
N521 H524 0.984 . S
N521 H525 0.985 . S
H522 N517 0.984 . S
H523 N517 0.985 . S
H524 N521 0.984 . S
H525 N521 0.985 . S
H526 N520 0.984 . S
H527 N520 0.984 . S
H528 N516 0.984 . S
H529 N516 0.985 . S
C530 C531 1.363 . S
C530 C536 1.379 . S
C530 N538 1.356 . S
C531 C530 1.363 . S
C531 C537 1.363 1_545 S
C532 C533 1.363 1_565 S
C532 C537 1.379 . S
C532 N539 1.356 . S
C533 C532 1.363 1_545 S
C533 C536 1.363 . S
N534 C536 1.356 . S
N534 H546 0.984 . S
N534 H547 0.985 . S
N535 C537 1.356 . S
N535 H540 0.984 . S
N535 H541 0.985 . S
C536 C530 1.379 . S
C536 C533 1.363 . S
C536 N534 1.356 . S
C537 C531 1.363 1_565 S
C537 C532 1.379 . S
C537 N535 1.356 . S
N538 C530 1.356 . S
N538 H544 0.984 . S
N538 H545 0.984 . S
N539 C532 1.356 . S
N539 H542 0.984 . S
N539 H543 0.985 . S
H540 N535 0.984 . S
H541 N535 0.985 . S
H542 N539 0.984 . S
H543 N539 0.985 . S
H544 N538 0.984 . S
H545 N538 0.984 . S
H546 N534 0.984 . S
H547 N534 0.985 . S
C548 C549 1.363 . S
C548 C554 1.379 . S
C548 N556 1.356 . S
C549 C548 1.363 . S
C549 C555 1.363 . S
C550 C551 1.363 . S
C550 C555 1.379 . S
C550 N557 1.356 . S
C551 C550 1.363 . S
C551 C554 1.363 . S
N552 C554 1.356 . S
N552 H564 0.984 . S
N552 H565 0.985 . S
N553 C555 1.356 . S
N553 H558 0.984 . S
N553 H559 0.985 . S
C554 C548 1.379 . S
C554 C551 1.363 . S
C554 N552 1.356 . S
C555 C549 1.363 . S
C555 C550 1.379 . S
C555 N553 1.356 . S
N556 C548 1.356 . S
N556 H562 0.984 . S
N556 H563 0.984 . S
N557 C550 1.356 . S
N557 H560 0.984 . S
N557 H561 0.985 . S
H558 N553 0.984 . S
H559 N553 0.985 . S
H560 N557 0.984 . S
H561 N557 0.985 . S
H562 N556 0.984 . S
H563 N556 0.984 . S
H564 N552 0.984 . S
H565 N552 0.985 . S
C566 C567 1.363 . S
C566 C572 1.379 . S
C566 N574 1.356 . S
C567 C566 1.363 . S
C567 C573 1.363 . S
C568 C569 1.363 . S
C568 C573 1.379 . S
C568 N575 1.356 . S
C569 C568 1.363 . S
C569 C572 1.363 . S
N570 C572 1.356 . S
N570 H582 0.984 . S
N570 H583 0.985 . S
N571 C573 1.356 . S
N571 H576 0.984 . S
N571 H577 0.985 . S
C572 C566 1.379 . S
C572 C569 1.363 . S
C572 N570 1.356 . S
C573 C567 1.363 . S
C573 C568 1.379 . S
C573 N571 1.356 . S
N574 C566 1.356 . S
N574 H580 0.984 . S
N574 H581 0.984 . S
N575 C568 1.356 . S
N575 H578 0.984 . S
N575 H579 0.985 . S
H576 N571 0.984 . S
H577 N571 0.985 . S
H578 N575 0.984 . S
H579 N575 0.985 . S
H580 N574 0.984 . S
H581 N574 0.984 . S
H582 N570 0.984 . S
H583 N570 0.985 . S
C584 C585 1.363 1_455 S
C584 C590 1.379 . S
C584 N592 1.356 . S
C585 C584 1.363 1_655 S
C585 C591 1.363 . S
C586 C587 1.363 . S
C586 C591 1.379 . S
C586 N593 1.356 . S
C587 C586 1.363 . S
C587 C590 1.363 1_655 S
N588 C590 1.356 . S
N588 H600 0.984 . S
N588 H601 0.985 . S
N589 C591 1.356 . S
N589 H594 0.984 . S
N589 H595 0.985 . S
C590 C584 1.379 . S
C590 C587 1.363 1_455 S
C590 N588 1.356 . S
C591 C585 1.363 . S
C591 C586 1.379 . S
C591 N589 1.356 . S
N592 C584 1.356 . S
N592 H598 0.984 . S
N592 H599 0.984 . S
N593 C586 1.356 . S
N593 H596 0.984 . S
N593 H597 0.985 . S
H594 N589 0.984 . S
H595 N589 0.985 . S
H596 N593 0.984 . S
H597 N593 0.985 . S
H598 N592 0.984 . S
H599 N592 0.984 . S
H600 N588 0.984 . S
H601 N588 0.985 . S
C602 C603 1.363 . S
C602 C608 1.379 . S
C602 N610 1.356 . S
C603 C602 1.363 . S
C603 C609 1.363 1_565 S
C604 C605 1.363 1_545 S
C604 C609 1.379 . S
C604 N611 1.356 . S
C605 C604 1.363 1_565 S
C605 C608 1.363 . S
N606 C608 1.356 . S
N606 H618 0.984 . S
N606 H619 0.985 . S
N607 C609 1.356 . S
N607 H612 0.984 . S
N607 H613 0.985 . S
C608 C602 1.379 . S
C608 C605 1.363 . S
C608 N606 1.356 . S
C609 C603 1.363 1_545 S
C609 C604 1.379 . S
C609 N607 1.356 . S
N610 C602 1.356 . S
N610 H616 0.984 . S
N610 H617 0.984 . S
N611 C604 1.356 . S
N611 H614 0.984 . S
N611 H615 0.985 . S
H612 N607 0.984 . S
H613 N607 0.985 . S
H614 N611 0.984 . S
H615 N611 0.985 . S
H616 N610 0.984 . S
H617 N610 0.984 . S
H618 N606 0.984 . S
H619 N606 0.985 . S
C620 C621 1.363 . S
C620 C626 1.379 . S
C620 N628 1.356 . S
C621 C620 1.363 . S
C621 C627 1.363 . S
C622 C623 1.363 . S
C622 C627 1.379 . S
C622 N629 1.356 . S
C623 C622 1.363 . S
C623 C626 1.363 . S
N624 C626 1.356 . S
N624 H636 0.984 . S
N624 H637 0.985 . S
N625 C627 1.356 . S
N625 H630 0.984 . S
N625 H631 0.985 . S
C626 C620 1.379 . S
C626 C623 1.363 . S
C626 N624 1.356 . S
C627 C621 1.363 . S
C627 C622 1.379 . S
C627 N625 1.356 . S
N628 C620 1.356 . S
N628 H634 0.984 . S
N628 H635 0.984 . S
N629 C622 1.356 . S
N629 H632 0.984 . S
N629 H633 0.985 . S
H630 N625 0.984 . S
H631 N625 0.985 . S
H632 N629 0.984 . S
H633 N629 0.985 . S
H634 N628 0.984 . S
H635 N628 0.984 . S
H636 N624 0.984 . S
H637 N624 0.985 . S
C638 C639 1.363 . S
C638 C644 1.379 . S
C638 N646 1.356 . S
C639 C638 1.363 . S
C639 C645 1.363 . S
C640 C641 1.363 . S
C640 C645 1.379 . S
C640 N647 1.356 . S
C641 C640 1.363 . S
C641 C644 1.363 . S
N642 C644 1.356 . S
N642 H654 0.984 . S
N642 H655 0.985 . S
N643 C645 1.356 . S
N643 H648 0.984 . S
N643 H649 0.985 . S
C644 C638 1.379 . S
C644 C641 1.363 . S
C644 N642 1.356 . S
C645 C639 1.363 . S
C645 C640 1.379 . S
C645 N643 1.356 . S
N646 C638 1.356 . S
N646 H652 0.984 . S
N646 H653 0.984 . S
N647 C640 1.356 . S
N647 H650 0.984 . S
N647 H651 0.985 . S
H648 N643 0.984 . S
H649 N643 0.985 . S
H650 N647 0.984 . S
H651 N647 0.985 . S
H652 N646 0.984 . S
H653 N646 0.984 . S
H654 N642 0.984 . S
H655 N642 0.985 . S
C656 C657 1.363 1_455 S
C656 C662 1.379 . S
C656 N664 1.356 . S
C657 C656 1.363 1_655 S
C657 C663 1.363 1_554 S
C658 C659 1.363 1_655 S
C658 C663 1.379 . S
C658 N665 1.356 . S
C659 C658 1.363 1_455 S
C659 C662 1.363 1_556 S
N660 C662 1.356 . S
N660 H672 0.984 . S
N660 H673 0.985 . S
N661 C663 1.356 . S
N661 H666 0.984 . S
N661 H667 0.985 . S
C662 C656 1.379 . S
C662 C659 1.363 1_554 S
C662 N660 1.356 . S
C663 C657 1.363 1_556 S
C663 C658 1.379 . S
C663 N661 1.356 . S
N664 C656 1.356 . S
N664 H670 0.984 . S
N664 H671 0.984 . S
N665 C658 1.356 . S
N665 H668 0.984 . S
N665 H669 0.985 . S
H666 N661 0.984 . S
H667 N661 0.985 . S
H668 N665 0.984 . S
H669 N665 0.985 . S
H670 N664 0.984 . S
H671 N664 0.984 . S
H672 N660 0.984 . S
H673 N660 0.985 . S
C674 C675 1.363 . S
C674 C680 1.379 1_456 S
C674 N682 1.356 . S
C675 C674 1.363 . S
C675 C681 1.363 1_545 S
C676 C677 1.363 . S
C676 C681 1.379 1_654 S
C676 N683 1.356 . S
C677 C676 1.363 . S
C677 C680 1.363 1_565 S
N678 C680 1.356 . S
N678 H690 0.983 1_554 S
N678 H691 0.985 . S
N679 C681 1.356 . S
N679 H684 0.984 . S
N679 H685 0.983 1_556 S
C680 C674 1.379 1_654 S
C680 C677 1.363 1_545 S
C680 N678 1.356 . S
C681 C675 1.363 1_565 S
C681 C676 1.379 1_456 S
C681 N679 1.356 . S
N682 C674 1.356 . S
N682 H688 0.984 . S
N682 H689 0.984 . S
N683 C676 1.356 . S
N683 H686 0.984 . S
N683 H687 0.985 . S
H684 N679 0.984 . S
H685 N679 0.983 1_554 S
H686 N683 0.984 . S
H687 N683 0.985 . S
H688 N682 0.984 . S
H689 N682 0.984 . S
H690 N678 0.983 1_556 S
H691 N678 0.985 . S
C692 C693 1.363 . S
C692 C698 1.379 1_565 S
C692 N700 1.356 . S
C693 C692 1.363 . S
C693 C699 1.363 1_554 S
C694 C695 1.363 . S
C694 C699 1.379 1_545 S
C694 N701 1.356 . S
C695 C694 1.363 . S
C695 C698 1.363 1_556 S
N696 C698 1.356 . S
N696 H708 0.984 . S
N696 H709 0.985 . S
N697 C699 1.356 . S
N697 H702 0.984 . S
N697 H703 0.985 . S
C698 C692 1.379 1_545 S
C698 C695 1.363 1_554 S
C698 N696 1.356 . S
C699 C693 1.363 1_556 S
C699 C694 1.379 1_565 S
C699 N697 1.356 . S
N700 C692 1.356 . S
N700 H706 0.984 . S
N700 H707 0.984 . S
N701 C694 1.356 . S
N701 H704 0.984 . S
N701 H705 0.985 . S
H702 N697 0.984 . S
H703 N697 0.985 . S
H704 N701 0.984 . S
H705 N701 0.985 . S
H706 N700 0.984 . S
H707 N700 0.984 . S
H708 N696 0.984 . S
H709 N696 0.985 . S
C710 C711 1.363 1_554 S
C710 C716 1.379 . S
C710 N718 1.356 . S
C711 C710 1.363 1_556 S
C711 C717 1.363 . S
C712 C713 1.363 1_556 S
C712 C717 1.379 . S
C712 N719 1.356 . S
C713 C712 1.363 1_554 S
C713 C716 1.363 . S
N714 C716 1.356 . S
N714 H726 0.984 . S
N714 H727 0.985 . S
N715 C717 1.356 . S
N715 H720 0.984 . S
N715 H721 0.985 . S
C716 C710 1.379 . S
C716 C713 1.363 . S
C716 N714 1.356 . S
C717 C711 1.363 . S
C717 C712 1.379 . S
C717 N715 1.356 . S
N718 C710 1.356 . S
N718 H724 0.984 . S
N718 H725 0.984 . S
N719 C712 1.356 . S
N719 H722 0.984 . S
N719 H723 0.985 . S
H720 N715 0.984 . S
H721 N715 0.985 . S
H722 N719 0.984 . S
H723 N719 0.985 . S
H724 N718 0.984 . S
H725 N718 0.984 . S
H726 N714 0.984 . S
H727 N714 0.985 . S
C728 C729 1.363 1_455 S
C728 C734 1.379 1_565 S
C728 N736 1.356 . S
C729 C728 1.363 1_655 S
C729 C735 1.363 . S
C730 C731 1.363 1_655 S
C730 C735 1.379 1_545 S
C730 N737 1.356 . S
C731 C730 1.363 1_455 S
C731 C734 1.363 . S
N732 C734 1.356 . S
N732 H744 0.984 . S
N732 H745 0.985 . S
N733 C735 1.356 . S
N733 H738 0.984 . S
N733 H739 0.985 . S
C734 C728 1.379 1_545 S
C734 C731 1.363 . S
C734 N732 1.356 . S
C735 C729 1.363 . S
C735 C730 1.379 1_565 S
C735 N733 1.356 . S
N736 C728 1.356 . S
N736 H742 0.984 . S
N736 H743 0.984 . S
N737 C730 1.356 . S
N737 H740 0.984 . S
N737 H741 0.985 . S
H738 N733 0.984 . S
H739 N733 0.985 . S
H740 N737 0.984 . S
H741 N737 0.985 . S
H742 N736 0.984 . S
H743 N736 0.984 . S
H744 N732 0.984 . S
H745 N732 0.985 . S
C746 C747 1.363 1_545 S
C746 C752 1.379 . S
C746 N754 1.356 . S
C747 C746 1.363 1_565 S
C747 C753 1.363 . S
C748 C749 1.363 1_565 S
C748 C753 1.379 . S
C748 N755 1.356 . S
C749 C748 1.363 1_545 S
C749 C752 1.363 . S
N750 C752 1.356 . S
N750 H762 0.984 . S
N750 H763 0.985 . S
N751 C753 1.356 . S
N751 H756 0.984 . S
N751 H757 0.985 . S
C752 C746 1.379 . S
C752 C749 1.363 . S
C752 N750 1.356 . S
C753 C747 1.363 . S
C753 C748 1.379 . S
C753 N751 1.356 . S
N754 C746 1.356 . S
N754 H760 0.984 . S
N754 H761 0.984 . S
N755 C748 1.356 . S
N755 H758 0.984 . S
N755 H759 0.985 . S
H756 N751 0.984 . S
H757 N751 0.985 . S
H758 N755 0.984 . S
H759 N755 0.985 . S
H760 N754 0.984 . S
H761 N754 0.984 . S
H762 N750 0.984 . S
H763 N750 0.985 . S
C764 C765 1.363 . S
C764 C770 1.379 . S
C764 N772 1.356 . S
C765 C764 1.363 . S
C765 C771 1.363 . S
C766 C767 1.363 . S
C766 C771 1.379 . S
C766 N773 1.356 . S
C767 C766 1.363 . S
C767 C770 1.363 . S
N768 C770 1.356 . S
N768 H780 0.984 . S
N768 H781 0.985 . S
N769 C771 1.356 . S
N769 H774 0.984 . S
N769 H775 0.985 . S
C770 C764 1.379 . S
C770 C767 1.363 . S
C770 N768 1.356 . S
C771 C765 1.363 . S
C771 C766 1.379 . S
C771 N769 1.356 . S
N772 C764 1.356 . S
N772 H778 0.984 . S
N772 H779 0.984 . S
N773 C766 1.356 . S
N773 H776 0.984 . S
N773 H777 0.985 . S
H774 N769 0.984 . S
H775 N769 0.985 . S
H776 N773 0.984 . S
H777 N773 0.985 . S
H778 N772 0.984 . S
H779 N772 0.984 . S
H780 N768 0.984 . S
H781 N768 0.985 . S
C782 C783 1.363 . S
C782 C788 1.379 1_655 S
C782 N790 1.356 . S
C783 C782 1.363 . S
C783 C789 1.363 . S
C784 C785 1.363 . S
C784 C789 1.379 1_455 S
C784 N791 1.356 . S
C785 C784 1.363 . S
C785 C788 1.363 . S
N786 C788 1.356 . S
N786 H798 0.984 . S
N786 H799 0.985 . S
N787 C789 1.356 . S
N787 H792 0.984 . S
N787 H793 0.985 . S
C788 C782 1.379 1_455 S
C788 C785 1.363 . S
C788 N786 1.356 . S
C789 C783 1.363 . S
C789 C784 1.379 1_655 S
C789 N787 1.356 . S
N790 C782 1.356 . S
N790 H796 0.984 . S
N790 H797 0.984 . S
N791 C784 1.356 . S
N791 H794 0.984 . S
N791 H795 0.985 . S
H792 N787 0.984 . S
H793 N787 0.985 . S
H794 N791 0.984 . S
H795 N791 0.985 . S
H796 N790 0.984 . S
H797 N790 0.984 . S
H798 N786 0.984 . S
H799 N786 0.985 . S
C225 C7 1.537 . S
C227 C35 1.537 . S
C243 C21 1.537 . S
C245 C49 1.537 . S
C261 C63 1.537 . S
C263 C91 1.537 . S
C279 C105 1.537 . S
C281 C77 1.537 . S
C297 C119 1.537 . S
C299 C147 1.537 . S
C315 C161 1.537 . S
C317 C133 1.537 . S
C333 C203 1.537 . S
C335 C175 1.537 . S
C351 C217 1.537 . S
C353 C189 1.537 . S
C369 C106 1.604 . S
C371 C8 1.604 . S
C387 C22 1.604 . S
C389 C64 1.604 . S
C405 C78 1.604 . S
C407 C36 1.604 . S
C423 C50 1.604 . S
C425 C92 1.604 . S
C441 C218 1.604 . S
C443 C120 1.604 . S
C459 C134 1.604 . S
C461 C176 1.604 . S
C477 C148 1.604 . S
C479 C190 1.604 . S
C495 C204 1.604 . S
C497 C162 1.604 . S
C513 C9 1.140 . S
C515 C65 1.140 . S
C531 C23 1.140 . S
C533 C79 1.140 . S
C549 C93 1.140 . S
C551 C37 1.140 . S
C567 C51 1.140 . S
C569 C107 1.140 . S
C585 C177 1.140 . S
C587 C121 1.140 . S
C603 C191 1.140 . S
C605 C135 1.140 . S
C621 C149 1.140 . S
C623 C205 1.140 . S
C639 C163 1.140 . S
C641 C219 1.140 . S
C657 C6 1.904 . S
C659 C118 1.904 . S
C675 C132 1.904 . S
C677 C20 1.904 . S
C693 C34 1.904 . S
C695 C146 1.904 . S
C711 C160 1.904 . S
C713 C48 1.904 . S
C729 C62 1.904 . S
C731 C174 1.904 . S
C747 C76 1.904 . S
C749 C188 1.904 . S
C765 C202 1.904 . S
C767 C90 1.904 . S
C783 C104 1.904 . S
C785 C216 1.904 . S
