# Generated by pormake.
# Topology umk, (4)-cn, num edge types: 1
# Building blocks:
#     Node 0, Type 0, BuildingBlock: QUQFOY_clean_sbu_1, # of connection points: 4
#     Node 1, Type 0, BuildingBlock: QUQFOY_clean_sbu_1, # of connection points: 4
#     Node 2, Type 0, BuildingBlock: QUQFOY_clean_sbu_1, # of connection points: 4
#     Node 3, Type 0, BuildingBlock: QUQFOY_clean_sbu_1, # of connection points: 4
#     Node 4, Type 0, BuildingBlock: QUQFOY_clean_sbu_1, # of connection points: 4
#     Node 5, Type 0, BuildingBlock: QUQFOY_clean_sbu_1, # of connection points: 4
#     Node 6, Type 0, BuildingBlock: QUQFOY_clean_sbu_1, # of connection points: 4
#     Node 7, Type 0, BuildingBlock: QUQFOY_clean_sbu_1, # of connection points: 4
#     Node 8, Type 0, BuildingBlock: QUQFOY_clean_sbu_1, # of connection points: 4
#     Node 9, Type 0, BuildingBlock: QUQFOY_clean_sbu_1, # of connection points: 4
#     Node 10, Type 0, BuildingBlock: QUQFOY_clean_sbu_1, # of connection points: 4
#     Node 11, Type 0, BuildingBlock: QUQFOY_clean_sbu_1, # of connection points: 4
#     Node 12, Type 0, BuildingBlock: QUQFOY_clean_sbu_1, # of connection points: 4
#     Node 13, Type 0, BuildingBlock: QUQFOY_clean_sbu_1, # of connection points: 4
#     Node 14, Type 0, BuildingBlock: QUQFOY_clean_sbu_1, # of connection points: 4
#     Node 15, Type 0, BuildingBlock: QUQFOY_clean_sbu_1, # of connection points: 4
#     Node 16, Type 0, BuildingBlock: QUQFOY_clean_sbu_1, # of connection points: 4
#     Node 17, Type 0, BuildingBlock: QUQFOY_clean_sbu_1, # of connection points: 4
#     Node 18, Type 0, BuildingBlock: QUQFOY_clean_sbu_1, # of connection points: 4
#     Node 19, Type 0, BuildingBlock: QUQFOY_clean_sbu_1, # of connection points: 4
#     Node 20, Type 0, BuildingBlock: QUQFOY_clean_sbu_1, # of connection points: 4
#     Node 21, Type 0, BuildingBlock: QUQFOY_clean_sbu_1, # of connection points: 4
#     Node 22, Type 0, BuildingBlock: QUQFOY_clean_sbu_1, # of connection points: 4
#     Node 23, Type 0, BuildingBlock: QUQFOY_clean_sbu_1, # of connection points: 4
#     Edge 24, Type (0, 0), BuildingBlock: XIVTED_clean_linker_0, # of connection points: 2
#     Edge 25, Type (0, 0), BuildingBlock: XIVTED_clean_linker_0, # of connection points: 2
#     Edge 26, Type (0, 0), BuildingBlock: XIVTED_clean_linker_0, # of connection points: 2
#     Edge 27, Type (0, 0), BuildingBlock: XIVTED_clean_linker_0, # of connection points: 2
#     Edge 28, Type (0, 0), BuildingBlock: XIVTED_clean_linker_0, # of connection points: 2
#     Edge 29, Type (0, 0), BuildingBlock: XIVTED_clean_linker_0, # of connection points: 2
#     Edge 30, Type (0, 0), BuildingBlock: XIVTED_clean_linker_0, # of connection points: 2
#     Edge 31, Type (0, 0), BuildingBlock: XIVTED_clean_linker_0, # of connection points: 2
#     Edge 32, Type (0, 0), BuildingBlock: XIVTED_clean_linker_0, # of connection points: 2
#     Edge 33, Type (0, 0), BuildingBlock: XIVTED_clean_linker_0, # of connection points: 2
#     Edge 34, Type (0, 0), BuildingBlock: XIVTED_clean_linker_0, # of connection points: 2
#     Edge 35, Type (0, 0), BuildingBlock: XIVTED_clean_linker_0, # of connection points: 2
#     Edge 36, Type (0, 0), BuildingBlock: XIVTED_clean_linker_0, # of connection points: 2
#     Edge 37, Type (0, 0), BuildingBlock: XIVTED_clean_linker_0, # of connection points: 2
#     Edge 38, Type (0, 0), BuildingBlock: XIVTED_clean_linker_0, # of connection points: 2
#     Edge 39, Type (0, 0), BuildingBlock: XIVTED_clean_linker_0, # of connection points: 2
#     Edge 40, Type (0, 0), BuildingBlock: XIVTED_clean_linker_0, # of connection points: 2
#     Edge 41, Type (0, 0), BuildingBlock: XIVTED_clean_linker_0, # of connection points: 2
#     Edge 42, Type (0, 0), BuildingBlock: XIVTED_clean_linker_0, # of connection points: 2
#     Edge 43, Type (0, 0), BuildingBlock: XIVTED_clean_linker_0, # of connection points: 2
#     Edge 44, Type (0, 0), BuildingBlock: XIVTED_clean_linker_0, # of connection points: 2
#     Edge 45, Type (0, 0), BuildingBlock: XIVTED_clean_linker_0, # of connection points: 2
#     Edge 46, Type (0, 0), BuildingBlock: XIVTED_clean_linker_0, # of connection points: 2
#     Edge 47, Type (0, 0), BuildingBlock: XIVTED_clean_linker_0, # of connection points: 2
#     Edge 48, Type (0, 0), BuildingBlock: XIVTED_clean_linker_0, # of connection points: 2
#     Edge 49, Type (0, 0), BuildingBlock: XIVTED_clean_linker_0, # of connection points: 2
#     Edge 50, Type (0, 0), BuildingBlock: XIVTED_clean_linker_0, # of connection points: 2
#     Edge 51, Type (0, 0), BuildingBlock: XIVTED_clean_linker_0, # of connection points: 2
#     Edge 52, Type (0, 0), BuildingBlock: XIVTED_clean_linker_0, # of connection points: 2
#     Edge 53, Type (0, 0), BuildingBlock: XIVTED_clean_linker_0, # of connection points: 2
#     Edge 54, Type (0, 0), BuildingBlock: XIVTED_clean_linker_0, # of connection points: 2
#     Edge 55, Type (0, 0), BuildingBlock: XIVTED_clean_linker_0, # of connection points: 2
#     Edge 56, Type (0, 0), BuildingBlock: XIVTED_clean_linker_0, # of connection points: 2
#     Edge 57, Type (0, 0), BuildingBlock: XIVTED_clean_linker_0, # of connection points: 2
#     Edge 58, Type (0, 0), BuildingBlock: XIVTED_clean_linker_0, # of connection points: 2
#     Edge 59, Type (0, 0), BuildingBlock: XIVTED_clean_linker_0, # of connection points: 2
#     Edge 60, Type (0, 0), BuildingBlock: XIVTED_clean_linker_0, # of connection points: 2
#     Edge 61, Type (0, 0), BuildingBlock: XIVTED_clean_linker_0, # of connection points: 2
#     Edge 62, Type (0, 0), BuildingBlock: XIVTED_clean_linker_0, # of connection points: 2
#     Edge 63, Type (0, 0), BuildingBlock: XIVTED_clean_linker_0, # of connection points: 2
#     Edge 64, Type (0, 0), BuildingBlock: XIVTED_clean_linker_0, # of connection points: 2
#     Edge 65, Type (0, 0), BuildingBlock: XIVTED_clean_linker_0, # of connection points: 2
#     Edge 66, Type (0, 0), BuildingBlock: XIVTED_clean_linker_0, # of connection points: 2
#     Edge 67, Type (0, 0), BuildingBlock: XIVTED_clean_linker_0, # of connection points: 2
#     Edge 68, Type (0, 0), BuildingBlock: XIVTED_clean_linker_0, # of connection points: 2
#     Edge 69, Type (0, 0), BuildingBlock: XIVTED_clean_linker_0, # of connection points: 2
#     Edge 70, Type (0, 0), BuildingBlock: XIVTED_clean_linker_0, # of connection points: 2
#     Edge 71, Type (0, 0), BuildingBlock: XIVTED_clean_linker_0, # of connection points: 2
# Relax obj value: 0.026
# Max RMSD: 0.069
# Mean RMSD: 0.069
data_MOF--net-umk--node1-QUQFOY_clean_sbu_1--edge1-XIVTED_clean_linker_0
_symmetry_space_group_name_H-M    P1
_symmetry_Int_Tables_number       1
_symmetry_cell_setting            triclinic
loop_
_symmetry_equiv_pos_as_xyz
'x, y, z'
_cell_length_a     66.718187
_cell_length_b     66.72298
_cell_length_c     50.14382
_cell_angle_alpha  90.010885
_cell_angle_beta   90.005035
_cell_angle_gamma 120.00906
loop_
_atom_site_label
_atom_site_type_symbol
_atom_site_fract_x
_atom_site_fract_y
_atom_site_fract_z
_atom_type_partial_charge
O0 O 0.35124 0.48807 0.04609 0.0
Cd1 Cd 0.32586 0.45761 0.06247 0.0
Cd2 Cd 0.35086 0.48075 0.10983 0.0
O3 O 0.36738 0.50771 0.0829 0.0
O4 O 0.30418 0.44315 0.03202 0.0
O5 O 0.29448 0.45412 0.0691 0.0
C6 C 0.28907 0.44567 0.04529 0.0
C7 C 0.34682 0.49 0.154 0.0
C8 C 0.36582 0.50667 0.0576 0.0
C9 C 0.34887 0.43588 0.09228 0.0
O10 O 0.3573 0.45355 0.10739 0.0
O11 O 0.33482 0.43345 0.07377 0.0
O12 O 0.36668 0.49573 0.14388 0.0
O13 O 0.3289 0.47946 0.13875 0.0
O14 O 0.86242 0.35199 0.5461 0.0
Cd15 Cd 0.86786 0.32668 0.56196 0.0
Cd16 Cd 0.86926 0.35091 0.60996 0.0
O17 O 0.85868 0.36751 0.5833 0.0
O18 O 0.86075 0.30518 0.53132 0.0
O19 O 0.84022 0.29513 0.56851 0.0
C20 C 0.84325 0.28987 0.54462 0.0
C21 C 0.85579 0.34664 0.65408 0.0
C22 C 0.85821 0.36629 0.55798 0.0
C23 C 0.91249 0.34968 0.59209 0.0
O24 O 0.90301 0.35765 0.60751 0.0
O25 O 0.90107 0.33592 0.57326 0.0
O26 O 0.86993 0.36656 0.64409 0.0
O27 O 0.84857 0.32879 0.63877 0.0
O28 O 0.51067 0.86315 0.04601 0.0
Cd29 Cd 0.54149 0.86901 0.06206 0.0
Cd30 Cd 0.51849 0.87024 0.10983 0.0
O31 O 0.49134 0.85962 0.08309 0.0
O32 O 0.55566 0.86088 0.03209 0.0
O33 O 0.54544 0.84166 0.07022 0.0
C34 C 0.5535 0.84382 0.04631 0.0
C35 C 0.50929 0.85706 0.15406 0.0
C36 C 0.49212 0.85897 0.05778 0.0
C37 C 0.56288 0.91368 0.09184 0.0
O38 O 0.54551 0.90397 0.10735 0.0
O39 O 0.56528 0.90243 0.07285 0.0
O40 O 0.50352 0.87113 0.14386 0.0
O41 O 0.51988 0.8497 0.13887 0.0
O42 O 0.64597 0.50881 0.54778 0.0
Cd43 Cd 0.67085 0.53971 0.56382 0.0
Cd44 Cd 0.64627 0.51672 0.61142 0.0
O45 O 0.62976 0.48951 0.58475 0.0
O46 O 0.69279 0.55403 0.53356 0.0
O47 O 0.70242 0.54407 0.57143 0.0
C48 C 0.70799 0.55214 0.54748 0.0
C49 C 0.65076 0.50787 0.65562 0.0
C50 C 0.63143 0.49029 0.55946 0.0
C51 C 0.64723 0.56099 0.59326 0.0
O52 O 0.63942 0.54363 0.60879 0.0
O53 O 0.66106 0.5634 0.57449 0.0
O54 O 0.63078 0.50194 0.64568 0.0
O55 O 0.66854 0.5184 0.64018 0.0
O56 O 0.13566 0.64573 0.04972 0.0
Cd57 Cd 0.1299 0.67105 0.06481 0.0
Cd58 Cd 0.12758 0.64676 0.11324 0.0
O59 O 0.13779 0.62947 0.08714 0.0
O60 O 0.1378 0.69247 0.03395 0.0
O61 O 0.15721 0.70269 0.07195 0.0
C62 C 0.15484 0.70787 0.04776 0.0
C63 C 0.14059 0.65114 0.1576 0.0
C64 C 0.13904 0.63097 0.06185 0.0
C65 C 0.08484 0.64845 0.09404 0.0
O66 O 0.09412 0.64074 0.11013 0.0
O67 O 0.09644 0.66175 0.07497 0.0
O68 O 0.12616 0.63126 0.14774 0.0
O69 O 0.14837 0.66888 0.14201 0.0
O70 O 0.48859 0.13708 0.54892 0.0
Cd71 Cd 0.45765 0.13102 0.56486 0.0
Cd72 Cd 0.48034 0.12874 0.61245 0.0
O73 O 0.50762 0.13949 0.5859 0.0
O74 O 0.44356 0.13896 0.53461 0.0
O75 O 0.45323 0.15816 0.57275 0.0
C76 C 0.44533 0.15589 0.54875 0.0
C77 C 0.48919 0.14171 0.65679 0.0
C78 C 0.50699 0.14072 0.56063 0.0
C79 C 0.43602 0.08577 0.59365 0.0
O80 O 0.4533 0.09508 0.60934 0.0
O81 O 0.4338 0.09745 0.57504 0.0
O82 O 0.495 0.12765 0.64665 0.0
O83 O 0.47873 0.14915 0.6415 0.0
O84 O 0.50889 0.64662 0.95957 0.0
Cd85 Cd 0.53987 0.67157 0.94377 0.0
Cd86 Cd 0.5174 0.64693 0.89616 0.0
O87 O 0.48999 0.63013 0.92248 0.0
O88 O 0.55383 0.69365 0.974 0.0
O89 O 0.54422 0.70307 0.93574 0.0
C90 C 0.55207 0.70877 0.95977 0.0
C91 C 0.5089 0.65163 0.85188 0.0
C92 C 0.49054 0.63188 0.94776 0.0
C93 C 0.56161 0.64811 0.91494 0.0
O94 O 0.54439 0.64025 0.89917 0.0
O95 O 0.56377 0.6619 0.93366 0.0
O96 O 0.503 0.63162 0.86169 0.0
O97 O 0.51921 0.66932 0.8675 0.0
O98 O 0.86132 0.50881 0.45973 0.0
Cd99 Cd 0.86735 0.54005 0.44482 0.0
Cd100 Cd 0.87013 0.51826 0.3962 0.0
O101 O 0.85944 0.49063 0.42221 0.0
O102 O 0.85943 0.5535 0.47576 0.0
O103 O 0.84021 0.54465 0.43766 0.0
C104 C 0.84252 0.55207 0.4619 0.0
C105 C 0.85779 0.50965 0.3516 0.0
C106 C 0.85795 0.49072 0.44748 0.0
C107 C 0.91272 0.56253 0.41613 0.0
O108 O 0.90359 0.54562 0.39991 0.0
O109 O 0.90091 0.56419 0.43501 0.0
O110 O 0.87205 0.50417 0.36192 0.0
O111 O 0.84984 0.51967 0.36683 0.0
O112 O 0.35145 0.86169 0.96101 0.0
Cd113 Cd 0.32629 0.86743 0.94529 0.0
Cd114 Cd 0.35108 0.86978 0.89741 0.0
O115 O 0.36783 0.85922 0.92386 0.0
O116 O 0.30452 0.85956 0.97578 0.0
O117 O 0.29476 0.84007 0.93784 0.0
C118 C 0.2893 0.84247 0.96189 0.0
C119 C 0.34711 0.85687 0.85305 0.0
C120 C 0.36617 0.85808 0.94915 0.0
C121 C 0.3494 0.91258 0.91623 0.0
O122 O 0.35742 0.90335 0.9005 0.0
O123 O 0.33566 0.90088 0.93495 0.0
O124 O 0.36693 0.87108 0.86323 0.0
O125 O 0.32918 0.84927 0.86831 0.0
O126 O 0.48762 0.35135 0.46134 0.0
Cd127 Cd 0.4567 0.32654 0.4453 0.0
Cd128 Cd 0.47976 0.35101 0.39764 0.0
O129 O 0.50696 0.3674 0.42434 0.0
O130 O 0.44244 0.3044 0.47541 0.0
O131 O 0.4524 0.29507 0.43732 0.0
C132 C 0.44439 0.28934 0.46128 0.0
C133 C 0.48872 0.34677 0.35339 0.0
C134 C 0.50618 0.36578 0.44964 0.0
C135 C 0.43549 0.35017 0.4158 0.0
O136 O 0.45286 0.35788 0.40027 0.0
O137 O 0.43305 0.3364 0.43466 0.0
O138 O 0.49467 0.3667 0.36351 0.0
O139 O 0.4781 0.3289 0.36867 0.0
O140 O 0.13389 0.48793 0.96162 0.0
Cd141 Cd 0.12881 0.4576 0.94493 0.0
Cd142 Cd 0.12738 0.48044 0.89786 0.0
O143 O 0.1378 0.50751 0.92467 0.0
O144 O 0.13783 0.44346 0.97408 0.0
O145 O 0.15661 0.4548 0.9357 0.0
C146 C 0.15491 0.44636 0.95934 0.0
C147 C 0.14113 0.48961 0.85385 0.0
C148 C 0.13812 0.50654 0.94999 0.0
C149 C 0.08418 0.43577 0.91525 0.0
O150 O 0.09363 0.45337 0.90004 0.0
O151 O 0.09562 0.43335 0.93398 0.0
O152 O 0.12698 0.49545 0.86367 0.0
O153 O 0.14823 0.47896 0.8693 0.0
O154 O 0.6458 0.13576 0.462 0.0
Cd155 Cd 0.67058 0.12993 0.44533 0.0
Cd156 Cd 0.64603 0.12845 0.39831 0.0
O157 O 0.62961 0.13911 0.42516 0.0
O158 O 0.69389 0.13884 0.47431 0.0
O159 O 0.7014 0.15728 0.4357 0.0
C160 C 0.70819 0.15565 0.45934 0.0
C161 C 0.65054 0.14184 0.35414 0.0
C162 C 0.63128 0.13985 0.45046 0.0
C163 C 0.64709 0.08509 0.41605 0.0
O164 O 0.63921 0.09469 0.40069 0.0
O165 O 0.66095 0.09646 0.43482 0.0
O166 O 0.63055 0.12784 0.36407 0.0
O167 O 0.66831 0.14908 0.3696 0.0
O168 O 0.64475 0.50851 0.96149 0.0
Cd169 Cd 0.66966 0.53935 0.94538 0.0
Cd170 Cd 0.64523 0.51628 0.8977 0.0
O171 O 0.62861 0.4892 0.9245 0.0
O172 O 0.6918 0.55374 0.97548 0.0
O173 O 0.70114 0.5436 0.93752 0.0
C174 C 0.70689 0.55179 0.96141 0.0
C175 C 0.64952 0.5071 0.85358 0.0
C176 C 0.6302 0.49 0.9498 0.0
C177 C 0.64632 0.56071 0.91556 0.0
O178 O 0.63858 0.54334 0.90004 0.0
O179 O 0.65997 0.56307 0.93453 0.0
O180 O 0.6296 0.5013 0.86357 0.0
O181 O 0.66737 0.5177 0.86892 0.0
O182 O 0.1354 0.64642 0.46384 0.0
Cd183 Cd 0.12946 0.67142 0.44804 0.0
Cd184 Cd 0.12813 0.64721 0.39997 0.0
O185 O 0.13861 0.63053 0.42666 0.0
O186 O 0.13742 0.69353 0.4782 0.0
O187 O 0.15672 0.70285 0.44012 0.0
C188 C 0.15443 0.70859 0.46407 0.0
C189 C 0.14117 0.65101 0.35569 0.0
C190 C 0.1394 0.63198 0.45197 0.0
C191 C 0.0848 0.64832 0.41813 0.0
O192 O 0.09448 0.64073 0.40248 0.0
O193 O 0.09603 0.66178 0.43727 0.0
O194 O 0.12702 0.63122 0.36595 0.0
O195 O 0.1487 0.669 0.37084 0.0
O196 O 0.48715 0.13547 0.96276 0.0
Cd197 Cd 0.45621 0.12935 0.94676 0.0
Cd198 Cd 0.47934 0.12829 0.899 0.0
O199 O 0.50652 0.13896 0.92572 0.0
O200 O 0.44178 0.13692 0.97695 0.0
O201 O 0.45175 0.15647 0.93904 0.0
C202 C 0.44362 0.15395 0.96296 0.0
C203 C 0.48827 0.14174 0.85484 0.0
C204 C 0.50572 0.13966 0.95103 0.0
C205 C 0.43511 0.0847 0.91686 0.0
O206 O 0.45248 0.09448 0.90136 0.0
O207 O 0.43263 0.09588 0.93586 0.0
O208 O 0.49423 0.12771 0.86477 0.0
O209 O 0.47769 0.14892 0.87029 0.0
O210 O 0.35139 0.48959 0.45994 0.0
Cd211 Cd 0.32629 0.45831 0.44492 0.0
Cd212 Cd 0.35044 0.48028 0.39642 0.0
O213 O 0.36738 0.50792 0.42241 0.0
O214 O 0.30489 0.44463 0.47578 0.0
O215 O 0.2945 0.45356 0.43774 0.0
C216 C 0.28936 0.44601 0.46193 0.0
C217 C 0.34602 0.48877 0.35202 0.0
C218 C 0.36594 0.50776 0.4477 0.0
C219 C 0.34935 0.43621 0.41583 0.0
O220 O 0.35695 0.45318 0.39971 0.0
O221 O 0.33592 0.43437 0.43481 0.0
O222 O 0.36594 0.49446 0.36196 0.0
O223 O 0.32826 0.47861 0.36754 0.0
O224 O 0.86207 0.35175 0.95964 0.0
Cd225 Cd 0.86765 0.32664 0.94343 0.0
Cd226 Cd 0.86887 0.35087 0.89595 0.0
O227 O 0.85852 0.36764 0.92267 0.0
O228 O 0.85973 0.30447 0.97349 0.0
O229 O 0.84018 0.29533 0.93557 0.0
C230 C 0.84256 0.28952 0.95946 0.0
C231 C 0.85515 0.34611 0.8519 0.0
C232 C 0.85798 0.36622 0.94798 0.0
C233 C 0.91224 0.34976 0.9135 0.0
O234 O 0.90262 0.35761 0.89814 0.0
O235 O 0.90095 0.33605 0.93241 0.0
O236 O 0.8693 0.36615 0.86164 0.0
O237 O 0.84799 0.32843 0.86749 0.0
O238 O 0.50881 0.86179 0.46002 0.0
Cd239 Cd 0.53993 0.86785 0.44464 0.0
Cd240 Cd 0.51772 0.86989 0.39652 0.0
O241 O 0.49016 0.85915 0.42264 0.0
O242 O 0.55378 0.85999 0.4752 0.0
O243 O 0.54446 0.84073 0.43709 0.0
C244 C 0.5522 0.84307 0.46119 0.0
C245 C 0.50933 0.8569 0.35214 0.0
C246 C 0.49052 0.85803 0.44794 0.0
C247 C 0.56184 0.91297 0.41562 0.0
O248 O 0.54472 0.90358 0.3997 0.0
O249 O 0.56387 0.90138 0.43447 0.0
O250 O 0.50346 0.87101 0.36203 0.0
O251 O 0.51956 0.84942 0.36772 0.0
O252 O 0.48627 0.35068 0.04747 0.0
Cd253 Cd 0.45537 0.32576 0.06342 0.0
Cd254 Cd 0.47844 0.35004 0.1112 0.0
O255 O 0.5056 0.36666 0.0845 0.0
O256 O 0.44105 0.30377 0.03317 0.0
O257 O 0.45106 0.29423 0.07108 0.0
C258 C 0.44297 0.28862 0.04714 0.0
C259 C 0.48742 0.34561 0.15537 0.0
C260 C 0.50481 0.36514 0.0592 0.0
C261 C 0.43409 0.34913 0.09331 0.0
O262 O 0.45147 0.35681 0.10881 0.0
O263 O 0.43167 0.33548 0.07432 0.0
O264 O 0.49328 0.36557 0.14544 0.0
O265 O 0.47691 0.32782 0.13992 0.0
O266 O 0.13521 0.48773 0.54824 0.0
Cd267 Cd 0.12931 0.45682 0.56407 0.0
Cd268 Cd 0.12808 0.47965 0.61193 0.0
O269 O 0.13864 0.50691 0.58541 0.0
O270 O 0.137 0.44261 0.53373 0.0
O271 O 0.15662 0.45262 0.5716 0.0
C272 C 0.15414 0.44459 0.54762 0.0
C273 C 0.1416 0.48855 0.65607 0.0
C274 C 0.13932 0.50622 0.5601 0.0
C275 C 0.0846 0.43542 0.59389 0.0
O276 O 0.09429 0.45274 0.60948 0.0
O277 O 0.09589 0.43305 0.57492 0.0
O278 O 0.12749 0.49443 0.64623 0.0
O279 O 0.14879 0.47801 0.64056 0.0
O280 O 0.64627 0.13691 0.04802 0.0
Cd281 Cd 0.67135 0.13102 0.06367 0.0
Cd282 Cd 0.64641 0.12842 0.11161 0.0
O283 O 0.62965 0.13899 0.08516 0.0
O284 O 0.69321 0.13907 0.03323 0.0
O285 O 0.7029 0.15825 0.07139 0.0
C286 C 0.70842 0.15602 0.04732 0.0
C287 C 0.65021 0.14119 0.15601 0.0
C288 C 0.63145 0.14035 0.05989 0.0
C289 C 0.64826 0.08576 0.09251 0.0
O290 O 0.64026 0.09492 0.10837 0.0
O291 O 0.66192 0.09751 0.07376 0.0
O292 O 0.63044 0.12693 0.14577 0.0
O293 O 0.66818 0.14892 0.14081 0.0
O294 O 0.5095 0.64633 0.54583 0.0
Cd295 Cd 0.54049 0.67127 0.56161 0.0
Cd296 Cd 0.51778 0.64721 0.60958 0.0
O297 O 0.49041 0.63083 0.58312 0.0
O298 O 0.55468 0.69325 0.53136 0.0
O299 O 0.54482 0.70279 0.56938 0.0
C300 C 0.55282 0.70841 0.54541 0.0
C301 C 0.50887 0.65139 0.65387 0.0
C302 C 0.491 0.63212 0.5578 0.0
C303 C 0.56185 0.64781 0.59114 0.0
O304 O 0.54456 0.64015 0.60678 0.0
O305 O 0.56422 0.66155 0.57228 0.0
O306 O 0.50291 0.63149 0.6437 0.0
O307 O 0.51954 0.6693 0.63864 0.0
O308 O 0.86211 0.5101 0.04526 0.0
Cd309 Cd 0.86794 0.54104 0.06095 0.0
Cd310 Cd 0.86986 0.51844 0.10889 0.0
O311 O 0.85934 0.49113 0.08241 0.0
O312 O 0.85988 0.55496 0.03063 0.0
O313 O 0.84062 0.54516 0.06874 0.0
C314 C 0.84286 0.55303 0.04472 0.0
C315 C 0.85699 0.50972 0.15328 0.0
C316 C 0.85834 0.49172 0.05711 0.0
C317 C 0.91286 0.56294 0.09033 0.0
O318 O 0.90343 0.54567 0.10601 0.0
O319 O 0.90138 0.56507 0.07142 0.0
O320 O 0.87116 0.50402 0.14318 0.0
O321 O 0.84932 0.51989 0.13789 0.0
O322 O 0.35231 0.86291 0.54705 0.0
Cd323 Cd 0.32735 0.86892 0.56284 0.0
Cd324 Cd 0.35126 0.87005 0.61079 0.0
O325 O 0.36788 0.85934 0.5843 0.0
O326 O 0.30523 0.86101 0.5327 0.0
O327 O 0.29589 0.84172 0.57079 0.0
C328 C 0.29015 0.84402 0.54685 0.0
C329 C 0.34665 0.8567 0.655 0.0
C330 C 0.36658 0.85868 0.55898 0.0
C331 C 0.35064 0.91359 0.59266 0.0
O332 O 0.35818 0.90385 0.60829 0.0
O333 O 0.33708 0.90238 0.5736 0.0
O334 O 0.36665 0.87074 0.64511 0.0
O335 O 0.32891 0.84945 0.63948 0.0
H336 H 0.38149 0.51903 0.18718 0.0
H337 H 0.30681 0.47008 0.32063 0.0
H338 H 0.30813 0.47028 0.1862 0.0
H339 H 0.38069 0.51632 0.31797 0.0
H340 H 0.30534 0.4736 0.27195 0.0
H341 H 0.37985 0.52217 0.23534 0.0
C342 C 0.36494 0.50913 0.1971 0.0
C343 C 0.34496 0.49418 0.18266 0.0
C344 C 0.3218 0.48316 0.28212 0.0
C345 C 0.34298 0.49744 0.23818 0.0
C346 C 0.32264 0.48122 0.30989 0.0
C347 C 0.34394 0.49274 0.32334 0.0
C348 C 0.3424 0.49679 0.26784 0.0
C349 C 0.36391 0.50691 0.30844 0.0
C350 C 0.36401 0.5109 0.22469 0.0
C351 C 0.32396 0.48196 0.1966 0.0
N352 N 0.36265 0.5084 0.28158 0.0
N353 N 0.32356 0.48362 0.22368 0.0
H354 H 0.86058 0.3811 0.68706 0.0
H355 H 0.83539 0.30682 0.82065 0.0
H356 H 0.83703 0.30796 0.68629 0.0
H357 H 0.86103 0.38034 0.81785 0.0
H358 H 0.8305 0.30516 0.77195 0.0
H359 H 0.85527 0.37938 0.73514 0.0
C360 C 0.85406 0.36458 0.69701 0.0
C361 C 0.84948 0.34469 0.68266 0.0
C362 C 0.83692 0.32157 0.78209 0.0
C363 C 0.84362 0.34262 0.73809 0.0
C364 C 0.83963 0.32252 0.80988 0.0
C365 C 0.84886 0.3438 0.82329 0.0
C366 C 0.84342 0.34205 0.76776 0.0
C367 C 0.8541 0.3636 0.80834 0.0
C368 C 0.85104 0.3636 0.72455 0.0
C369 C 0.84084 0.32372 0.69663 0.0
N370 N 0.85147 0.36225 0.78146 0.0
N371 N 0.83848 0.32328 0.72367 0.0
H372 H 0.52847 0.83675 0.32089 0.0
H373 H 0.48014 0.86265 0.18705 0.0
H374 H 0.48177 0.86381 0.31787 0.0
H375 H 0.52897 0.83815 0.18644 0.0
H376 H 0.47675 0.85775 0.23518 0.0
H377 H 0.52531 0.83196 0.27217 0.0
C378 C 0.5173 0.84134 0.31006 0.0
C379 C 0.50554 0.85091 0.32344 0.0
C380 C 0.48809 0.85323 0.22462 0.0
C381 C 0.50192 0.84556 0.26788 0.0
C382 C 0.49002 0.85601 0.19705 0.0
C383 C 0.50504 0.85102 0.18271 0.0
C384 C 0.50149 0.84564 0.23821 0.0
C385 C 0.51723 0.84226 0.19675 0.0
C386 C 0.51557 0.83868 0.28227 0.0
C387 C 0.49135 0.85661 0.30842 0.0
N388 N 0.51542 0.84011 0.22382 0.0
N389 N 0.49008 0.85399 0.28153 0.0
H390 H 0.61507 0.47778 0.82035 0.0
H391 H 0.6899 0.52714 0.68712 0.0
H392 H 0.6883 0.52703 0.82151 0.0
H393 H 0.61626 0.47972 0.68954 0.0
H394 H 0.69134 0.52375 0.73583 0.0
H395 H 0.61689 0.47449 0.77224 0.0
C396 C 0.63163 0.48777 0.81048 0.0
C397 C 0.65152 0.50288 0.82496 0.0
C398 C 0.67494 0.51389 0.7256 0.0
C399 C 0.65371 0.49946 0.76949 0.0
C400 C 0.67413 0.51576 0.69782 0.0
C401 C 0.65289 0.50388 0.68428 0.0
C402 C 0.65438 0.49999 0.73982 0.0
C403 C 0.63298 0.48941 0.69913 0.0
C404 C 0.63267 0.4859 0.78292 0.0
C405 C 0.67253 0.51521 0.81108 0.0
N406 N 0.6342 0.48801 0.72601 0.0
N407 N 0.67304 0.51346 0.78402 0.0
H408 H 0.135 0.61607 0.32265 0.0
H409 H 0.16152 0.69044 0.18882 0.0
H410 H 0.1604 0.68958 0.32328 0.0
H411 H 0.13303 0.61645 0.19184 0.0
H412 H 0.16648 0.69202 0.23752 0.0
H413 H 0.13967 0.61748 0.27449 0.0
C414 C 0.14179 0.6326 0.31265 0.0
C415 C 0.14709 0.6527 0.327 0.0
C416 C 0.1594 0.6755 0.22742 0.0
C417 C 0.15223 0.65443 0.27147 0.0
C418 C 0.15664 0.6746 0.19964 0.0
C419 C 0.14663 0.65325 0.18628 0.0
C420 C 0.15217 0.65491 0.24181 0.0
C421 C 0.14058 0.63327 0.20129 0.0
C422 C 0.14444 0.63341 0.28506 0.0
C423 C 0.15604 0.67366 0.31295 0.0
N424 N 0.14331 0.63459 0.22816 0.0
N425 N 0.15806 0.67395 0.28588 0.0
H426 H 0.46903 0.16167 0.82339 0.0
H427 H 0.51815 0.13605 0.69005 0.0
H428 H 0.51639 0.13538 0.82089 0.0
H429 H 0.46937 0.16061 0.68898 0.0
H430 H 0.52137 0.14099 0.73818 0.0
H431 H 0.47241 0.1665 0.77469 0.0
C432 C 0.4804 0.15726 0.81268 0.0
C433 C 0.49227 0.14788 0.82619 0.0
C434 C 0.51008 0.14552 0.72752 0.0
C435 C 0.49612 0.15326 0.77065 0.0
C436 C 0.50825 0.14271 0.69994 0.0
C437 C 0.49329 0.1477 0.68547 0.0
C438 C 0.49665 0.15315 0.74098 0.0
C439 C 0.48106 0.15649 0.69939 0.0
C440 C 0.48225 0.15994 0.7849 0.0
C441 C 0.50671 0.14243 0.81132 0.0
N442 N 0.48278 0.15866 0.72646 0.0
N443 N 0.50809 0.14505 0.78444 0.0
H444 H 0.47938 0.61684 0.68684 0.0
H445 H 0.5283 0.69095 0.82069 0.0
H446 H 0.52894 0.68999 0.68625 0.0
H447 H 0.48102 0.6173 0.81763 0.0
H448 H 0.52516 0.69265 0.77197 0.0
H449 H 0.47597 0.61843 0.73496 0.0
C450 C 0.48942 0.63334 0.69684 0.0
C451 C 0.50466 0.65327 0.68251 0.0
C452 C 0.51529 0.67619 0.78206 0.0
C453 C 0.50107 0.65519 0.738 0.0
C454 C 0.51701 0.67522 0.80985 0.0
C455 C 0.50509 0.65391 0.82321 0.0
C456 C 0.50148 0.6557 0.76766 0.0
C457 C 0.49074 0.63407 0.80819 0.0
C458 C 0.48748 0.63424 0.7244 0.0
C459 C 0.51704 0.6742 0.69655 0.0
N460 N 0.48947 0.63545 0.78131 0.0
N461 N 0.5152 0.67458 0.72361 0.0
H462 H 0.86499 0.48172 0.31829 0.0
H463 H 0.83645 0.52829 0.18482 0.0
H464 H 0.83793 0.52845 0.31931 0.0
H465 H 0.86483 0.48269 0.1874 0.0
H466 H 0.8321 0.52523 0.23358 0.0
H467 H 0.86015 0.47839 0.27016 0.0
C468 C 0.85783 0.49116 0.30838 0.0
C469 C 0.85207 0.50557 0.32285 0.0
C470 C 0.83902 0.5157 0.22338 0.0
C471 C 0.8467 0.50205 0.26733 0.0
C472 C 0.84143 0.51737 0.19556 0.0
C473 C 0.85123 0.5059 0.18204 0.0
C474 C 0.8464 0.50241 0.23766 0.0
C475 C 0.85742 0.49204 0.19696 0.0
C476 C 0.85506 0.48926 0.28081 0.0
C477 C 0.84265 0.5172 0.30891 0.0
N478 N 0.85505 0.49083 0.22388 0.0
N479 N 0.84051 0.51541 0.28183 0.0
H480 H 0.3074 0.83671 0.68632 0.0
H481 H 0.3819 0.86278 0.81994 0.0
H482 H 0.38109 0.86323 0.68911 0.0
H483 H 0.30846 0.83775 0.82075 0.0
H484 H 0.38032 0.85783 0.77181 0.0
H485 H 0.30584 0.83193 0.73503 0.0
C486 C 0.32316 0.84118 0.6971 0.0
C487 C 0.34445 0.85061 0.68366 0.0
C488 C 0.36444 0.85321 0.78242 0.0
C489 C 0.34281 0.84529 0.73922 0.0
C490 C 0.36535 0.85603 0.80999 0.0
C491 C 0.34532 0.8509 0.82438 0.0
C492 C 0.34339 0.84544 0.76888 0.0
C493 C 0.32432 0.84198 0.81039 0.0
C494 C 0.32228 0.83853 0.72489 0.0
C495 C 0.36433 0.85614 0.69862 0.0
N496 N 0.32394 0.8398 0.78333 0.0
N497 N 0.36304 0.85355 0.7255 0.0
H498 H 0.51781 0.38131 0.32011 0.0
H499 H 0.46835 0.30646 0.18684 0.0
H500 H 0.46874 0.30803 0.32125 0.0
H501 H 0.51549 0.38016 0.18929 0.0
H502 H 0.47183 0.30505 0.23553 0.0
H503 H 0.52093 0.37953 0.27197 0.0
C504 C 0.50782 0.36475 0.31023 0.0
C505 C 0.49281 0.34483 0.32472 0.0
C506 C 0.48161 0.32145 0.22532 0.0
C507 C 0.49606 0.34269 0.26921 0.0
C508 C 0.47969 0.32226 0.19754 0.0
C509 C 0.49147 0.3435 0.18402 0.0
C510 C 0.49546 0.34203 0.23954 0.0
C511 C 0.50588 0.36344 0.19886 0.0
C512 C 0.50959 0.36374 0.28265 0.0
C513 C 0.48048 0.32382 0.31082 0.0
N514 N 0.50733 0.36222 0.22574 0.0
N515 N 0.48215 0.32334 0.28374 0.0
H516 H 0.16128 0.46908 0.68755 0.0
H517 H 0.13671 0.51934 0.82063 0.0
H518 H 0.1358 0.5171 0.68988 0.0
H519 H 0.15968 0.46932 0.82192 0.0
H520 H 0.14199 0.52262 0.77253 0.0
H521 H 0.16626 0.4726 0.73624 0.0
C522 C 0.15709 0.48062 0.69822 0.0
C523 C 0.14787 0.49262 0.68468 0.0
C524 C 0.1461 0.51104 0.78324 0.0
C525 C 0.15344 0.49667 0.74019 0.0
C526 C 0.1431 0.50918 0.81079 0.0
C527 C 0.14752 0.49384 0.82529 0.0
C528 C 0.15333 0.49725 0.76985 0.0
C529 C 0.156 0.4813 0.81147 0.0
C530 C 0.15986 0.48256 0.72599 0.0
C531 C 0.1427 0.5073 0.69949 0.0
N532 N 0.15834 0.48304 0.78442 0.0
N533 N 0.1454 0.50877 0.72636 0.0
H534 H 0.68978 0.16191 0.32281 0.0
H535 H 0.61524 0.13485 0.18909 0.0
H536 H 0.61604 0.13506 0.31996 0.0
H537 H 0.68883 0.16067 0.18838 0.0
H538 H 0.61674 0.13987 0.2372 0.0
H539 H 0.69131 0.1665 0.27407 0.0
C540 C 0.674 0.15733 0.31201 0.0
C541 C 0.65271 0.14787 0.32544 0.0
C542 C 0.63266 0.14466 0.22662 0.0
C543 C 0.65431 0.15295 0.26986 0.0
C544 C 0.6318 0.14179 0.19906 0.0
C545 C 0.6519 0.14713 0.1847 0.0
C546 C 0.65374 0.15269 0.24018 0.0
C547 C 0.6729 0.15628 0.19871 0.0
C548 C 0.67487 0.15987 0.28421 0.0
C549 C 0.6328 0.14218 0.31046 0.0
N550 N 0.67325 0.15851 0.22577 0.0
N551 N 0.63408 0.14466 0.28356 0.0
H552 H 0.19206 0.44852 0.93325 0.0
H553 H 0.27416 0.42939 0.99495 0.0
H554 H 0.15895 0.43443 0.01035 0.0
H555 H 0.25393 0.45091 0.06635 0.0
H556 H 0.24013 0.4256 0.97226 0.0
H557 H 0.22358 0.44491 0.95294 0.0
C558 C 0.19122 0.44424 0.95421 0.0
C559 C 0.17283 0.44173 0.97014 0.0
C560 C 0.2432 0.43134 0.9928 0.0
C561 C 0.20873 0.43731 0.99286 0.0
C562 C 0.26251 0.43326 0.00591 0.0
C563 C 0.26708 0.44079 0.03252 0.0
C564 C 0.22834 0.43707 0.00636 0.0
C565 C 0.2512 0.44525 0.04577 0.0
C566 C 0.20915 0.442 0.96545 0.0
C567 C 0.17275 0.43643 0.99728 0.0
N568 N 0.23256 0.44341 0.0325 0.0
N569 N 0.19056 0.43468 0.00784 0.0
H570 H 0.74328 0.19248 0.4329 0.0
H571 H 0.84456 0.27521 0.49411 0.0
H572 H 0.72454 0.15967 0.51017 0.0
H573 H 0.80323 0.25436 0.56582 0.0
H574 H 0.81445 0.24104 0.47147 0.0
H575 H 0.77861 0.22393 0.4523 0.0
C576 C 0.74682 0.19168 0.45384 0.0
C577 C 0.73093 0.17341 0.46991 0.0
C578 C 0.81184 0.24399 0.49207 0.0
C579 C 0.77151 0.20925 0.49231 0.0
C580 C 0.82917 0.26339 0.50514 0.0
C581 C 0.82628 0.26784 0.53183 0.0
C582 C 0.79138 0.22893 0.50573 0.0
C583 C 0.8061 0.25174 0.54518 0.0
C584 C 0.76712 0.20958 0.46491 0.0
C585 C 0.73631 0.17338 0.49699 0.0
N586 N 0.78936 0.23304 0.53194 0.0
N587 N 0.75599 0.19117 0.5074 0.0
H588 H 0.5535 0.80715 0.07116 0.0
H589 H 0.55304 0.74592 0.93493 0.0
H590 H 0.56397 0.84036 0.99448 0.0
H591 H 0.5623 0.7224 0.0117 0.0
H592 H 0.55739 0.78091 0.95623 0.0
H593 H 0.55709 0.77607 0.04988 0.0
C594 C 0.55681 0.80805 0.04992 0.0
C595 C 0.5583 0.82631 0.03456 0.0
C596 C 0.55873 0.7682 0.96835 0.0
C597 C 0.56212 0.79069 0.01004 0.0
C598 C 0.55623 0.74822 0.95619 0.0
C599 C 0.55718 0.73116 0.97157 0.0
C600 C 0.56188 0.77096 0.99611 0.0
C601 C 0.56138 0.73507 0.99906 0.0
C602 C 0.55887 0.79031 0.03778 0.0
C603 C 0.56264 0.82659 0.00711 0.0
N604 N 0.56331 0.75442 0.01049 0.0
N605 N 0.56412 0.80892 0.99568 0.0
H606 H 0.72171 0.5638 0.49576 0.0
H607 H 0.83983 0.56207 0.51414 0.0
H608 H 0.74492 0.55189 0.57139 0.0
H609 H 0.80604 0.55326 0.4381 0.0
H610 H 0.80913 0.56614 0.53541 0.0
H611 H 0.75652 0.56778 0.4747 0.0
C612 C 0.73426 0.5623 0.50804 0.0
C613 C 0.7303 0.55731 0.53538 0.0
C614 C 0.80854 0.5635 0.51405 0.0
C615 C 0.77017 0.56184 0.51129 0.0
C616 C 0.8261 0.56127 0.50183 0.0
C617 C 0.82541 0.55713 0.47429 0.0
C618 C 0.79021 0.56177 0.49861 0.0
C619 C 0.80719 0.55628 0.4594 0.0
C620 C 0.75408 0.56449 0.49594 0.0
C621 C 0.7472 0.5556 0.55023 0.0
N622 N 0.79025 0.55848 0.47178 0.0
N623 N 0.76636 0.55775 0.53797 0.0
H624 H 0.27585 0.84023 0.01374 0.0
H625 H 0.15747 0.72058 0.99555 0.0
H626 H 0.25232 0.80526 0.93807 0.0
H627 H 0.19152 0.7454 0.07149 0.0
H628 H 0.18823 0.75528 0.97424 0.0
H629 H 0.24113 0.80937 0.03489 0.0
C630 C 0.26325 0.82621 1.00148 0.0
C631 C 0.26709 0.82524 0.97409 0.0
C632 C 0.18886 0.75322 0.99559 0.0
C633 C 0.22731 0.78984 0.99828 0.0
C634 C 0.17127 0.73346 0.00782 0.0
C635 C 0.17201 0.73 0.03535 0.0
C636 C 0.20728 0.76976 0.01099 0.0
C637 C 0.19033 0.74729 0.0502 0.0
C638 C 0.24348 0.80855 0.01363 0.0
C639 C 0.25013 0.80664 0.95926 0.0
N640 N 0.2073 0.7664 0.03781 0.0
N641 N 0.23101 0.78961 0.97157 0.0
H642 H 0.44451 0.19225 0.57334 0.0
H643 H 0.44398 0.25237 0.43668 0.0
H644 H 0.43485 0.15897 0.49682 0.0
H645 H 0.43394 0.27571 0.51319 0.0
H646 H 0.44016 0.21769 0.4582 0.0
H647 H 0.44018 0.22282 0.55183 0.0
C648 C 0.44123 0.19123 0.55209 0.0
C649 C 0.44018 0.1731 0.53685 0.0
C650 C 0.43852 0.23029 0.47021 0.0
C651 C 0.43551 0.20813 0.51205 0.0
C652 C 0.44071 0.25008 0.45793 0.0
C653 C 0.43941 0.26702 0.47317 0.0
C654 C 0.43534 0.22759 0.49798 0.0
C655 C 0.43513 0.26314 0.50065 0.0
C656 C 0.43875 0.20867 0.53981 0.0
C657 C 0.43586 0.17265 0.50936 0.0
N658 N 0.43352 0.24398 0.51222 0.0
N659 N 0.43396 0.19003 0.49781 0.0
H660 H 0.83986 0.56364 0.99281 0.0
H661 H 0.72085 0.56323 0.01311 0.0
H662 H 0.80617 0.55334 0.06916 0.0
H663 H 0.74386 0.55206 0.93695 0.0
H664 H 0.75599 0.56758 0.03368 0.0
H665 H 0.80874 0.56737 0.97215 0.0
C666 C 0.82607 0.56245 0.00532 0.0
C667 C 0.82553 0.55798 0.03276 0.0
C668 C 0.75343 0.56437 0.01244 0.0
C669 C 0.78985 0.56223 0.00914 0.0
C670 C 0.73342 0.56197 1.00062 0.0
C671 C 0.72932 0.55709 0.97326 0.0
C672 C 0.76957 0.56205 0.99679 0.0
C673 C 0.74625 0.55567 0.95812 0.0
C674 C 0.80826 0.56448 0.99345 0.0
C675 C 0.80721 0.55663 0.04792 0.0
N676 N 0.76561 0.55804 0.97012 0.0
N677 N 0.79004 0.55865 0.03588 0.0
H678 H 0.15738 0.72246 0.51588 0.0
H679 H 0.27621 0.84117 0.49509 0.0
H680 H 0.19107 0.74552 0.43948 0.0
H681 H 0.2532 0.8074 0.57145 0.0
H682 H 0.24113 0.8102 0.47462 0.0
H683 H 0.18843 0.75748 0.53637 0.0
C684 C 0.17115 0.73502 0.50332 0.0
C685 C 0.17172 0.73096 0.47592 0.0
C686 C 0.24368 0.80968 0.49588 0.0
C687 C 0.20731 0.77108 0.49935 0.0
C688 C 0.26365 0.8274 0.50764 0.0
C689 C 0.26774 0.82679 0.53503 0.0
C690 C 0.22755 0.79127 0.51162 0.0
C691 C 0.25083 0.8085 0.55025 0.0
C692 C 0.18892 0.75496 0.51509 0.0
C693 C 0.19001 0.74788 0.46069 0.0
N694 N 0.2315 0.7914 0.53831 0.0
N695 N 0.20715 0.76716 0.47264 0.0
H696 H 0.43225 0.15631 0.01474 0.0
H697 H 0.43197 0.27504 0.99526 0.0
H698 H 0.44321 0.19067 0.93874 0.0
H699 H 0.44261 0.25151 0.07134 0.0
H700 H 0.428 0.24016 0.9744 0.0
H701 H 0.42796 0.18705 0.03554 0.0
C702 C 0.43347 0.17016 1.00233 0.0
C703 C 0.43829 0.17102 0.97495 0.0
C704 C 0.43101 0.24254 0.99569 0.0
C705 C 0.4334 0.20625 0.99874 0.0
C706 C 0.43318 0.2624 0.00767 0.0
C707 C 0.43782 0.2663 0.03509 0.0
C708 C 0.4333 0.22634 0.01124 0.0
C709 C 0.43919 0.24929 0.05012 0.0
C710 C 0.43111 0.18775 0.01428 0.0
C711 C 0.43965 0.18939 0.95992 0.0
N712 N 0.43704 0.23008 0.03797 0.0
N713 N 0.43732 0.20636 0.97205 0.0
H714 H 0.15637 0.43324 0.4958 0.0
H715 H 0.27657 0.43566 0.51409 0.0
H716 H 0.19138 0.44495 0.57148 0.0
H717 H 0.25164 0.44472 0.43814 0.0
H718 H 0.24166 0.43125 0.53534 0.0
H719 H 0.18736 0.42958 0.47467 0.0
C720 C 0.17043 0.43475 0.50807 0.0
C721 C 0.17137 0.43959 0.53546 0.0
C722 C 0.24375 0.43402 0.514 0.0
C723 C 0.20692 0.43544 0.51129 0.0
C724 C 0.26363 0.43645 0.5018 0.0
C725 C 0.26712 0.44075 0.47429 0.0
C726 C 0.22712 0.43571 0.49859 0.0
C727 C 0.24973 0.44157 0.45942 0.0
C728 C 0.18816 0.43275 0.49593 0.0
C729 C 0.19002 0.44135 0.5503 0.0
N730 N 0.23051 0.43918 0.47179 0.0
N731 N 0.20712 0.43938 0.538 0.0
H732 H 0.80571 0.25273 0.93498 0.0
H733 H 0.74572 0.19235 0.07179 0.0
H734 H 0.83958 0.27579 0.01129 0.0
H735 H 0.72167 0.15922 0.99526 0.0
H736 H 0.78051 0.22296 0.05014 0.0
H737 H 0.77488 0.21806 0.95655 0.0
C738 C 0.8068 0.25038 0.95619 0.0
C739 C 0.82518 0.26724 0.97137 0.0
C740 C 0.76773 0.20884 0.03815 0.0
C741 C 0.78985 0.22782 0.99624 0.0
C742 C 0.74787 0.19138 0.0505 0.0
C743 C 0.73071 0.17328 0.0353 0.0
C744 C 0.77026 0.20834 0.01036 0.0
C745 C 0.73441 0.17288 0.00777 0.0
C746 C 0.78921 0.23059 0.96851 0.0
C747 C 0.82571 0.26328 0.99881 0.0
N748 N 0.75364 0.19028 0.99615 0.0
N749 N 0.80818 0.24413 0.01041 0.0
H750 H 0.56284 0.84042 0.51318 0.0
H751 H 0.56413 0.72219 0.49365 0.0
H752 H 0.5531 0.80659 0.43699 0.0
H753 H 0.55284 0.74534 0.56965 0.0
H754 H 0.56805 0.75707 0.47285 0.0
H755 H 0.5671 0.8097 0.53406 0.0
C756 C 0.56187 0.82668 0.50075 0.0
C757 C 0.55742 0.82598 0.47329 0.0
C758 C 0.56491 0.7546 0.49411 0.0
C759 C 0.56228 0.79076 0.49716 0.0
C760 C 0.56276 0.73474 0.50606 0.0
C761 C 0.55796 0.73074 0.53343 0.0
C762 C 0.56241 0.77069 0.50965 0.0
C763 C 0.5564 0.74765 0.54846 0.0
C764 C 0.56422 0.80911 0.51274 0.0
C765 C 0.55638 0.80775 0.45824 0.0
N766 N 0.55851 0.76685 0.53635 0.0
N767 N 0.55869 0.7908 0.4704 0.0
H768 H 0.3397 0.39904 0.05982 0.0
H769 H 0.43194 0.3754 0.13385 0.0
H770 H 0.37648 0.43412 0.13145 0.0
H771 H 0.3985 0.34233 0.05994 0.0
H772 H 0.40756 0.39292 0.13633 0.0
H773 H 0.35688 0.37418 0.0626 0.0
C774 C 0.35116 0.40136 0.0763 0.0
C775 C 0.35687 0.41891 0.09525 0.0
C776 C 0.40539 0.38169 0.11966 0.0
C777 C 0.37663 0.39056 0.09847 0.0
C778 C 0.41933 0.37165 0.11823 0.0
C779 C 0.41749 0.35758 0.09647 0.0
C780 C 0.38954 0.3778 0.09912 0.0
C781 C 0.40064 0.35318 0.07699 0.0
C782 C 0.361 0.38718 0.07783 0.0
C783 C 0.37176 0.42101 0.11621 0.0
N784 N 0.38748 0.36346 0.07863 0.0
N785 N 0.38124 0.40716 0.11712 0.0
H786 H 0.05598 0.43334 0.63415 0.0
H787 H 0.94044 0.34101 0.55953 0.0
H788 H 0.05596 0.39981 0.56047 0.0
H789 H 0.9417 0.37727 0.63143 0.0
H790 H 0.9825 0.35842 0.56244 0.0
H791 H 0.01405 0.40897 0.63637 0.0
C792 C 0.04719 0.42071 0.61852 0.0
C793 C 0.05953 0.41884 0.59691 0.0
C794 C 0.97353 0.36238 0.5777 0.0
C795 C 0.01133 0.3909 0.59925 0.0
C796 C 0.94949 0.35241 0.57609 0.0
C797 C 0.93751 0.35788 0.59509 0.0
C798 C 0.98565 0.37792 0.59846 0.0
C799 C 0.95018 0.37271 0.61615 0.0
C800 C 0.0232 0.40678 0.61981 0.0
C801 C 0.04716 0.40197 0.57741 0.0
N802 N 0.97354 0.38233 0.61714 0.0
N803 N 0.02371 0.38882 0.5789 0.0
H804 H 0.56544 0.9419 0.13279 0.0
H805 H 0.65648 0.05825 0.05862 0.0
H806 H 0.59804 0.94265 0.05812 0.0
H807 H 0.62143 0.05609 0.13189 0.0
H808 H 0.63921 0.01616 0.06076 0.0
H809 H 0.5898 0.98379 0.13545 0.0
C810 C 0.57786 0.95084 0.11703 0.0
C811 C 0.57948 0.93872 0.09502 0.0
C812 C 0.6355 0.02495 0.07648 0.0
C813 C 0.6074 0.98689 0.09787 0.0
C814 C 0.64538 0.04899 0.07531 0.0
C815 C 0.64019 0.06073 0.09494 0.0
C816 C 0.62033 0.01257 0.09743 0.0
C817 C 0.62575 0.04781 0.11614 0.0
C818 C 0.59179 0.97482 0.11857 0.0
C819 C 0.59609 0.95128 0.07537 0.0
N820 N 0.61621 0.02445 0.11669 0.0
N821 N 0.60925 0.97472 0.07711 0.0
H822 H 0.62045 0.5631 0.63322 0.0
H823 H 0.5981 0.65581 0.55825 0.0
H824 H 0.65446 0.59662 0.55976 0.0
H825 H 0.56332 0.62022 0.63053 0.0
H826 H 0.62241 0.63802 0.56113 0.0
H827 H 0.60305 0.5876 0.63522 0.0
C828 C 0.62443 0.57575 0.61759 0.0
C829 C 0.63875 0.57759 0.59611 0.0
C830 C 0.60959 0.63429 0.57647 0.0
C831 C 0.61867 0.60569 0.59821 0.0
C832 C 0.59572 0.64447 0.57488 0.0
C833 C 0.57843 0.63931 0.59401 0.0
C834 C 0.60615 0.61884 0.59734 0.0
C835 C 0.57624 0.62454 0.61515 0.0
C836 C 0.61446 0.58976 0.61875 0.0
C837 C 0.64342 0.59449 0.57661 0.0
N838 N 0.58978 0.61471 0.61612 0.0
N839 N 0.63321 0.60773 0.57798 0.0
H840 H 0.94116 0.59849 0.05665 0.0
H841 H 0.05579 0.6234 0.13472 0.0
H842 H 0.94167 0.56573 0.13071 0.0
H843 H 0.05674 0.65479 0.05907 0.0
H844 H 0.01389 0.60624 0.13624 0.0
H845 H 0.98324 0.62316 0.05982 0.0
C846 C 0.95005 0.59665 0.07372 0.0
C847 C 0.93787 0.57981 0.09328 0.0
C848 C 0.02324 0.61704 0.11939 0.0
C849 C 0.98599 0.60791 0.09697 0.0
C850 C 0.04722 0.62687 0.11851 0.0
C851 C 0.05982 0.64034 0.09657 0.0
C852 C 0.01165 0.62053 0.0981 0.0
C853 C 0.04773 0.6444 0.0763 0.0
C854 C 0.97408 0.61072 0.07549 0.0
C855 C 0.95032 0.57828 0.11499 0.0
N856 N 0.02428 0.63432 0.07741 0.0
N857 N 0.97367 0.592 0.11613 0.0
H858 H 0.40014 0.05803 0.56004 0.0
H859 H 0.37664 0.94193 0.6334 0.0
H860 H 0.43391 0.05618 0.63272 0.0
H861 H 0.34407 0.94245 0.55918 0.0
H862 H 0.39393 0.98379 0.63614 0.0
H863 H 0.37576 0.01589 0.56208 0.0
C864 C 0.40227 0.04883 0.57658 0.0
C865 C 0.41931 0.06068 0.59607 0.0
C866 C 0.38286 0.97477 0.61934 0.0
C867 C 0.39153 0.01245 0.59845 0.0
C868 C 0.37296 0.95081 0.61775 0.0
C869 C 0.35907 0.93863 0.59585 0.0
C870 C 0.37902 0.98677 0.59881 0.0
C871 C 0.35477 0.95112 0.57634 0.0
C872 C 0.38836 0.02475 0.5777 0.0
C873 C 0.4212 0.04781 0.61708 0.0
N874 N 0.3649 0.97455 0.57814 0.0
N875 N 0.40763 0.02442 0.61758 0.0
H876 H 0.59731 0.65593 0.94867 0.0
H877 H 0.62037 0.56321 0.87488 0.0
H878 H 0.56381 0.62088 0.87562 0.0
H879 H 0.65319 0.59625 0.94904 0.0
H880 H 0.6033 0.58797 0.87221 0.0
H881 H 0.62158 0.63805 0.94651 0.0
C882 C 0.59523 0.6447 0.93202 0.0
C883 C 0.57829 0.6397 0.91246 0.0
C884 C 0.61438 0.58997 0.88898 0.0
C885 C 0.60594 0.61912 0.90996 0.0
C886 C 0.62415 0.57581 0.89053 0.0
C887 C 0.63804 0.57744 0.91239 0.0
C888 C 0.61834 0.60584 0.90952 0.0
C889 C 0.64248 0.59428 0.9319 0.0
C890 C 0.60907 0.63447 0.93084 0.0
C891 C 0.57644 0.62507 0.89132 0.0
N892 N 0.63246 0.60767 0.93015 0.0
N893 N 0.58995 0.61518 0.89076 0.0
H894 H 0.94018 0.59762 0.45078 0.0
H895 H 0.05671 0.6233 0.37678 0.0
H896 H 0.94251 0.56592 0.37662 0.0
H897 H 0.05579 0.65424 0.45208 0.0
H898 H 0.01486 0.60606 0.37387 0.0
H899 H 0.98231 0.62226 0.44906 0.0
C900 C 0.94948 0.59601 0.43398 0.0
C901 C 0.93778 0.57946 0.41397 0.0
C902 C 0.02379 0.61676 0.39095 0.0
C903 C 0.98599 0.60754 0.41197 0.0
C904 C 0.04774 0.62664 0.39263 0.0
C905 C 0.0598 0.64003 0.41488 0.0
C906 C 0.01167 0.62013 0.41174 0.0
C907 C 0.04721 0.64392 0.43465 0.0
C908 C 0.97355 0.61006 0.43305 0.0
C909 C 0.95077 0.57823 0.39266 0.0
N910 N 0.02379 0.6338 0.43275 0.0
N911 N 0.97414 0.59192 0.39235 0.0
H912 H 0.43295 0.05642 0.87615 0.0
H913 H 0.34102 0.94017 0.94979 0.0
H914 H 0.39968 0.05574 0.95028 0.0
H915 H 0.3766 0.94219 0.87702 0.0
H916 H 0.35844 0.98227 0.9476 0.0
H917 H 0.40857 0.01453 0.87345 0.0
C918 C 0.42038 0.0475 0.89178 0.0
C919 C 0.41858 0.05964 0.91365 0.0
C920 C 0.36224 0.97345 0.93199 0.0
C921 C 0.39062 0.01147 0.91075 0.0
C922 C 0.35227 0.9494 0.93319 0.0
C923 C 0.35756 0.93761 0.91372 0.0
C924 C 0.37761 0.98579 0.91118 0.0
C925 C 0.3722 0.95051 0.89264 0.0
C926 C 0.40644 0.02352 0.89022 0.0
C927 C 0.40178 0.0471 0.93314 0.0
N928 N 0.38183 0.97388 0.89206 0.0
N929 N 0.38861 0.02366 0.93138 0.0
H930 H 0.3417 0.40075 0.44986 0.0
H931 H 0.43304 0.37618 0.37518 0.0
H932 H 0.37612 0.43351 0.37627 0.0
H933 H 0.4003 0.34376 0.44959 0.0
H934 H 0.40861 0.39364 0.37277 0.0
H935 H 0.35926 0.37621 0.44762 0.0
C936 C 0.35272 0.40262 0.43308 0.0
C937 C 0.35764 0.41943 0.41338 0.0
C938 C 0.4066 0.38257 0.38954 0.0
C939 C 0.37786 0.39145 0.41078 0.0
C940 C 0.42057 0.37256 0.39094 0.0
C941 C 0.41893 0.35867 0.41279 0.0
C942 C 0.39092 0.37883 0.41022 0.0
C943 C 0.40227 0.35446 0.43245 0.0
C944 C 0.36278 0.38862 0.43185 0.0
C945 C 0.372 0.42099 0.39207 0.0
N946 N 0.38907 0.3647 0.43084 0.0
N947 N 0.38172 0.40733 0.39147 0.0
H948 H 0.05626 0.39878 0.94736 0.0
H949 H 0.94083 0.37637 0.87326 0.0
H950 H 0.05504 0.43437 0.87599 0.0
H951 H 0.94079 0.34231 0.9465 0.0
H952 H 0.98272 0.3937 0.87085 0.0
H953 H 0.01421 0.37405 0.94428 0.0
C954 C 0.04722 0.40124 0.93088 0.0
C955 C 0.0592 0.4189 0.9121 0.0
C956 C 0.97357 0.38229 0.88736 0.0
C957 C 0.01108 0.39072 0.90853 0.0
C958 C 0.94959 0.37236 0.88875 0.0
C959 C 0.93726 0.35808 0.91031 0.0
C960 C 0.98541 0.37807 0.90775 0.0
C961 C 0.94959 0.35334 0.92962 0.0
C962 C 0.02319 0.38714 0.92917 0.0
C963 C 0.04655 0.42118 0.89111 0.0
N964 N 0.97302 0.36352 0.92803 0.0
N965 N 0.0232 0.40741 0.89004 0.0
H966 H 0.59758 0.94081 0.44934 0.0
H967 H 0.62098 0.05664 0.37547 0.0
H968 H 0.56413 0.94242 0.37627 0.0
H969 H 0.65395 0.0564 0.44949 0.0
H970 H 0.60377 0.01478 0.37284 0.0
H971 H 0.62199 0.98294 0.44713 0.0
C972 C 0.59553 0.94996 0.43267 0.0
C973 C 0.57857 0.93805 0.41312 0.0
C974 C 0.61491 0.02386 0.38957 0.0
C975 C 0.60638 0.98626 0.41056 0.0
C976 C 0.62477 0.04781 0.3911 0.0
C977 C 0.63873 0.06006 0.41291 0.0
C978 C 0.61887 0.01194 0.41009 0.0
C979 C 0.64318 0.04766 0.43239 0.0
C980 C 0.60945 0.97403 0.43146 0.0
C981 C 0.57678 0.95084 0.39196 0.0
N982 N 0.63308 0.02423 0.43067 0.0
N983 N 0.59036 0.97423 0.39137 0.0
H984 H 0.48491 0.63211 1.00183 0.0
H985 H 0.36673 0.5108 1.0032 0.0
H986 H 0.44979 0.59464 0.93056 0.0
H987 H 0.4017 0.54851 0.07442 0.0
H988 H 0.39521 0.54285 0.97625 0.0
H989 H 0.45288 0.60333 0.02853 0.0
C990 C 0.47039 0.61793 0.99174 0.0
C991 C 0.47017 0.61572 0.96386 0.0
C992 C 0.39658 0.5442 0.99777 0.0
C993 C 0.4334 0.58255 0.99447 0.0
C994 C 0.3803 0.52588 0.01322 0.0
C995 C 0.3819 0.52684 0.04118 0.0
C996 C 0.41469 0.56366 0.0103 0.0
C997 C 0.39982 0.54693 0.05296 0.0
C998 C 0.45208 0.60147 0.00705 0.0
C999 C 0.45077 0.59702 0.95197 0.0
N1000 N 0.4156 0.56446 0.03746 0.0
N1001 N 0.43326 0.58107 0.96735 0.0
H1002 H 0.8513 0.4013 0.57581 0.0
H1003 H 0.85375 0.44997 0.42917 0.0
H1004 H 0.85562 0.36836 0.50361 0.0
H1005 H 0.85258 0.48448 0.50154 0.0
H1006 H 0.85029 0.41778 0.45594 0.0
H1007 H 0.84764 0.42976 0.54876 0.0
C1008 C 0.85129 0.39992 0.55429 0.0
C1009 C 0.85398 0.3825 0.542 0.0
C1010 C 0.85063 0.43233 0.46594 0.0
C1011 C 0.84989 0.41513 0.51089 0.0
C1012 C 0.85256 0.45071 0.45065 0.0
C1013 C 0.85367 0.47009 0.4631 0.0
C1014 C 0.84982 0.43331 0.4939 0.0
C1015 C 0.85197 0.47001 0.49104 0.0
C1016 C 0.84923 0.41621 0.53884 0.0
C1017 C 0.85376 0.38157 0.51399 0.0
N1018 N 0.85029 0.452 0.50548 0.0
N1019 N 0.85192 0.39773 0.49941 0.0
H1020 H 0.36654 0.85298 1.00331 0.0
H1021 H 0.48717 0.85473 1.0035 0.0
H1022 H 0.40292 0.85387 0.93169 0.0
H1023 H 0.45059 0.85347 0.07512 0.0
H1024 H 0.45485 0.85097 0.97693 0.0
H1025 H 0.3954 0.84968 0.0298 0.0
C1026 C 0.3805 0.85231 0.9931 0.0
C1027 C 0.38238 0.85391 0.96518 0.0
C1028 C 0.4538 0.85135 0.99846 0.0
C1029 C 0.41563 0.85024 0.99554 0.0
C1030 C 0.47227 0.8535 0.01369 0.0
C1031 C 0.47172 0.85462 0.04164 0.0
C1032 C 0.43461 0.8504 0.01119 0.0
C1033 C 0.45186 0.85279 0.05365 0.0
C1034 C 0.397 0.85043 0.00829 0.0
C1035 C 0.4008 0.8528 0.95314 0.0
N1036 N 0.43418 0.85095 0.03835 0.0
N1037 N 0.4168 0.85121 0.9684 0.0
H1038 H 0.51121 0.36587 0.50385 0.0
H1039 H 0.63123 0.48534 0.50523 0.0
H1040 H 0.54763 0.40211 0.43258 0.0
H1041 H 0.59496 0.44893 0.57648 0.0
H1042 H 0.60263 0.45327 0.47838 0.0
H1043 H 0.54344 0.39426 0.53066 0.0
C1044 C 0.52605 0.3797 0.49379 0.0
C1045 C 0.52658 0.38169 0.46587 0.0
C1046 C 0.601 0.4522 0.49989 0.0
C1047 C 0.56359 0.4144 0.4966 0.0
C1048 C 0.61735 0.47053 0.51528 0.0
C1049 C 0.61541 0.46996 0.5432 0.0
C1050 C 0.58246 0.43314 0.51244 0.0
C1051 C 0.59711 0.4502 0.55504 0.0
C1052 C 0.54448 0.39593 0.50916 0.0
C1053 C 0.54638 0.39992 0.45402 0.0
N1054 N 0.58125 0.43268 0.53959 0.0
N1055 N 0.56401 0.41567 0.46946 0.0
H1056 H 0.14543 0.54873 0.93266 0.0
H1057 H 0.14251 0.59391 0.0798 0.0
H1058 H 0.14003 0.51055 0.00442 0.0
H1059 H 0.14455 0.6304 0.0078 0.0
H1060 H 0.14561 0.56511 0.05273 0.0
H1061 H 0.1491 0.58067 0.96008 0.0
C1062 C 0.14519 0.5471 0.95417 0.0
C1063 C 0.14223 0.52681 0.96622 0.0
C1064 C 0.14555 0.57951 0.04288 0.0
C1065 C 0.14634 0.56332 0.99776 0.0
C1066 C 0.14382 0.59601 0.05834 0.0
C1067 C 0.14306 0.61453 0.04608 0.0
C1068 C 0.14652 0.58153 0.01495 0.0
C1069 C 0.14488 0.61633 0.01816 0.0
C1070 C 0.14726 0.56536 0.96983 0.0
C1071 C 0.14213 0.52577 0.99422 0.0
N1072 N 0.14638 0.59998 1.00356 0.0
N1073 N 0.144 0.54369 0.00901 0.0
H1074 H 0.51228 0.14618 0.50649 0.0
H1075 H 0.63092 0.14399 0.50478 0.0
H1076 H 0.54801 0.14477 0.57765 0.0
H1077 H 0.59521 0.14548 0.43364 0.0
H1078 H 0.60259 0.14779 0.53175 0.0
H1079 H 0.54427 0.1495 0.47964 0.0
C1080 C 0.52693 0.14675 0.51652 0.0
C1081 C 0.52732 0.14498 0.54442 0.0
C1082 C 0.60103 0.14745 0.51024 0.0
C1083 C 0.56405 0.14868 0.51365 0.0
C1084 C 0.61722 0.14528 0.49478 0.0
C1085 C 0.61536 0.14421 0.46684 0.0
C1086 C 0.58273 0.14848 0.49775 0.0
C1087 C 0.59729 0.14612 0.45508 0.0
C1088 C 0.54521 0.14864 0.50113 0.0
C1089 C 0.54688 0.14597 0.55623 0.0
N1090 N 0.58159 0.14799 0.4706 0.0
N1091 N 0.56436 0.14756 0.54078 0.0
H1092 H 0.50982 0.36549 0.00497 0.0
H1093 H 0.62979 0.48506 0.00405 0.0
H1094 H 0.5462 0.40149 0.07639 0.0
H1095 H 0.59375 0.44866 0.93266 0.0
H1096 H 0.6011 0.45297 0.03079 0.0
H1097 H 0.54204 0.39403 0.97826 0.0
C1098 C 0.52465 0.3793 0.01508 0.0
C1099 C 0.52518 0.38117 0.04301 0.0
C1100 C 0.59955 0.45191 0.00927 0.0
C1101 C 0.56217 0.41405 0.01241 0.0
C1102 C 0.61595 0.47025 0.99395 0.0
C1103 C 0.6141 0.46969 0.96601 0.0
C1104 C 0.58106 0.43284 0.99665 0.0
C1105 C 0.59584 0.44993 0.95411 0.0
C1106 C 0.54307 0.39561 0.99978 0.0
C1107 C 0.54496 0.39939 0.05494 0.0
N1108 N 0.57993 0.43239 0.9695 0.0
N1109 N 0.56258 0.41521 0.03956 0.0
H1110 H 0.14409 0.63133 0.50618 0.0
H1111 H 0.14374 0.51141 0.50586 0.0
H1112 H 0.14427 0.59564 0.43441 0.0
H1113 H 0.1445 0.54756 0.57764 0.0
H1114 H 0.14731 0.54372 0.47945 0.0
H1115 H 0.14762 0.60256 0.53259 0.0
C1116 C 0.14504 0.61754 0.49592 0.0
C1117 C 0.14367 0.61582 0.46798 0.0
C1118 C 0.14687 0.54468 0.50098 0.0
C1119 C 0.14762 0.58268 0.49823 0.0
C1120 C 0.14483 0.52622 0.51612 0.0
C1121 C 0.14361 0.52665 0.54407 0.0
C1122 C 0.14761 0.56374 0.5138 0.0
C1123 C 0.14526 0.54639 0.55617 0.0
C1124 C 0.14706 0.6011 0.51106 0.0
C1125 C 0.14515 0.59762 0.45587 0.0
N1126 N 0.14699 0.56406 0.54096 0.0
N1127 N 0.14686 0.58167 0.47108 0.0
H1128 H 0.63135 0.14591 0.00578 0.0
H1129 H 0.51055 0.14382 0.00532 0.0
H1130 H 0.59452 0.14428 0.0773 0.0
H1131 H 0.54734 0.14535 0.93379 0.0
H1132 H 0.54283 0.14757 0.03198 0.0
H1133 H 0.60256 0.14931 0.97925 0.0
C1134 C 0.61731 0.14644 0.01596 0.0
C1135 C 0.61527 0.14459 0.04386 0.0
C1136 C 0.54393 0.14725 0.01045 0.0
C1137 C 0.58211 0.14839 0.01346 0.0
C1138 C 0.52549 0.14511 0.99517 0.0
C1139 C 0.52611 0.14406 0.96722 0.0
C1140 C 0.56317 0.14826 0.99776 0.0
C1141 C 0.54602 0.14597 0.95526 0.0
C1142 C 0.60085 0.14838 1.00076 0.0
C1143 C 0.59675 0.14554 0.05587 0.0
N1144 N 0.56367 0.1478 0.9706 0.0
N1145 N 0.5808 0.14718 0.04059 0.0
H1146 H 0.44911 0.5972 0.57582 0.0
H1147 H 0.40214 0.54871 0.42931 0.0
H1148 H 0.48598 0.63025 0.50347 0.0
H1149 H 0.36706 0.51389 0.5018 0.0
H1150 H 0.43088 0.58097 0.45602 0.0
H1151 H 0.41681 0.56881 0.5489 0.0
C1152 C 0.45036 0.59863 0.55429 0.0
C1153 C 0.47042 0.61604 0.54192 0.0
C1154 C 0.41679 0.56634 0.46607 0.0
C1155 C 0.43349 0.58349 0.51096 0.0
C1156 C 0.40034 0.54791 0.45081 0.0
C1157 C 0.38225 0.52842 0.46331 0.0
C1158 C 0.41518 0.56529 0.49403 0.0
C1159 C 0.38079 0.52845 0.49127 0.0
C1160 C 0.43191 0.58237 0.53892 0.0
C1161 C 0.47096 0.61704 0.51392 0.0
N1162 N 0.39711 0.54649 0.50566 0.0
N1163 N 0.45286 0.60091 0.49941 0.0
H1164 H 0.85418 0.36706 1.0023 0.0
H1165 H 0.85308 0.48626 1.00296 0.0
H1166 H 0.8526 0.40236 0.93084 0.0
H1167 H 0.85407 0.45069 0.07446 0.0
H1168 H 0.84955 0.45404 0.97638 0.0
H1169 H 0.8508 0.39577 0.02903 0.0
C1170 C 0.85295 0.38075 0.99218 0.0
C1171 C 0.85387 0.38237 0.96423 0.0
C1172 C 0.85037 0.45319 0.99789 0.0
C1173 C 0.8501 0.41544 0.99485 0.0
C1174 C 0.85239 0.47161 0.01313 0.0
C1175 C 0.85408 0.47131 0.04104 0.0
C1176 C 0.85013 0.43432 0.01057 0.0
C1177 C 0.85293 0.45175 0.05302 0.0
C1178 C 0.85103 0.39716 0.0075 0.0
C1179 C 0.85207 0.40045 0.95231 0.0
N1180 N 0.8512 0.43413 0.03771 0.0
N1181 N 0.85045 0.41636 0.96769 0.0
H1182 H 0.44932 0.85293 0.42992 0.0
H1183 H 0.40191 0.85226 0.57682 0.0
H1184 H 0.48491 0.85352 0.50213 0.0
H1185 H 0.36811 0.85521 0.50467 0.0
H1186 H 0.43026 0.84845 0.54972 0.0
H1187 H 0.41724 0.84947 0.45692 0.0
C1188 C 0.45033 0.85212 0.45142 0.0
C1189 C 0.46997 0.85373 0.46375 0.0
C1190 C 0.41654 0.84977 0.53983 0.0
C1191 C 0.43331 0.84988 0.4948 0.0
C1192 C 0.40031 0.85191 0.5553 0.0
C1193 C 0.38269 0.85428 0.54304 0.0
C1194 C 0.41519 0.85 0.51187 0.0
C1195 C 0.38148 0.85362 0.51504 0.0
C1196 C 0.432 0.85019 0.46684 0.0
C1197 C 0.47022 0.85252 0.49172 0.0
N1198 N 0.39759 0.8517 0.50043 0.0
N1199 N 0.45226 0.85083 0.50628 0.0
loop_
_geom_bond_atom_site_label_1
_geom_bond_atom_site_label_2
_geom_bond_distance
_geom_bond_site_symmetry_2
_ccdc_geom_bond_type
O0 Cd1 2.223 . S
O0 C8 1.315 . S
Cd1 O0 2.223 . S
Cd1 O4 2.297 . S
Cd1 O5 2.439 . S
Cd1 O11 2.240 . S
Cd2 O3 2.240 . S
Cd2 O10 2.223 . S
Cd2 O12 2.297 . S
Cd2 O13 2.439 . S
O3 Cd2 2.240 . S
O3 C8 1.279 . S
O4 Cd1 2.297 . S
O4 C6 1.247 . S
O5 Cd1 2.439 . S
O5 C6 1.208 . S
C6 O4 1.247 . S
C6 O5 1.208 . S
C7 O12 1.247 . S
C7 O13 1.208 . S
C8 O0 1.315 . S
C8 O3 1.279 . S
C9 O10 1.315 . S
C9 O11 1.279 . S
O10 Cd2 2.223 . S
O10 C9 1.315 . S
O11 Cd1 2.240 . S
O11 C9 1.279 . S
O12 Cd2 2.297 . S
O12 C7 1.247 . S
O13 Cd2 2.439 . S
O13 C7 1.208 . S
O14 Cd15 2.223 . S
O14 C22 1.315 . S
Cd15 O14 2.223 . S
Cd15 O18 2.297 . S
Cd15 O19 2.439 . S
Cd15 O25 2.240 . S
Cd16 O17 2.240 . S
Cd16 O24 2.223 . S
Cd16 O26 2.297 . S
Cd16 O27 2.439 . S
O17 Cd16 2.240 . S
O17 C22 1.279 . S
O18 Cd15 2.297 . S
O18 C20 1.247 . S
O19 Cd15 2.439 . S
O19 C20 1.208 . S
C20 O18 1.247 . S
C20 O19 1.208 . S
C21 O26 1.247 . S
C21 O27 1.208 . S
C22 O14 1.315 . S
C22 O17 1.279 . S
C23 O24 1.315 . S
C23 O25 1.279 . S
O24 Cd16 2.223 . S
O24 C23 1.315 . S
O25 Cd15 2.240 . S
O25 C23 1.279 . S
O26 Cd16 2.297 . S
O26 C21 1.247 . S
O27 Cd16 2.439 . S
O27 C21 1.208 . S
O28 Cd29 2.223 . S
O28 C36 1.315 . S
Cd29 O28 2.223 . S
Cd29 O32 2.297 . S
Cd29 O33 2.439 . S
Cd29 O39 2.240 . S
Cd30 O31 2.240 . S
Cd30 O38 2.223 . S
Cd30 O40 2.297 . S
Cd30 O41 2.439 . S
O31 Cd30 2.240 . S
O31 C36 1.279 . S
O32 Cd29 2.297 . S
O32 C34 1.247 . S
O33 Cd29 2.439 . S
O33 C34 1.208 . S
C34 O32 1.247 . S
C34 O33 1.208 . S
C35 O40 1.247 . S
C35 O41 1.208 . S
C36 O28 1.315 . S
C36 O31 1.279 . S
C37 O38 1.315 . S
C37 O39 1.279 . S
O38 Cd30 2.223 . S
O38 C37 1.315 . S
O39 Cd29 2.240 . S
O39 C37 1.279 . S
O40 Cd30 2.297 . S
O40 C35 1.247 . S
O41 Cd30 2.439 . S
O41 C35 1.208 . S
O42 Cd43 2.223 . S
O42 C50 1.315 . S
Cd43 O42 2.223 . S
Cd43 O46 2.297 . S
Cd43 O47 2.439 . S
Cd43 O53 2.240 . S
Cd44 O45 2.240 . S
Cd44 O52 2.223 . S
Cd44 O54 2.297 . S
Cd44 O55 2.439 . S
O45 Cd44 2.240 . S
O45 C50 1.279 . S
O46 Cd43 2.297 . S
O46 C48 1.247 . S
O47 Cd43 2.439 . S
O47 C48 1.208 . S
C48 O46 1.247 . S
C48 O47 1.208 . S
C49 O54 1.247 . S
C49 O55 1.208 . S
C50 O42 1.315 . S
C50 O45 1.279 . S
C51 O52 1.315 . S
C51 O53 1.279 . S
O52 Cd44 2.223 . S
O52 C51 1.315 . S
O53 Cd43 2.240 . S
O53 C51 1.279 . S
O54 Cd44 2.297 . S
O54 C49 1.247 . S
O55 Cd44 2.439 . S
O55 C49 1.208 . S
O56 Cd57 2.223 . S
O56 C64 1.315 . S
Cd57 O56 2.223 . S
Cd57 O60 2.297 . S
Cd57 O61 2.439 . S
Cd57 O67 2.240 . S
Cd58 O59 2.240 . S
Cd58 O66 2.223 . S
Cd58 O68 2.297 . S
Cd58 O69 2.439 . S
O59 Cd58 2.240 . S
O59 C64 1.279 . S
O60 Cd57 2.297 . S
O60 C62 1.247 . S
O61 Cd57 2.439 . S
O61 C62 1.208 . S
C62 O60 1.247 . S
C62 O61 1.208 . S
C63 O68 1.247 . S
C63 O69 1.208 . S
C64 O56 1.315 . S
C64 O59 1.279 . S
C65 O66 1.315 . S
C65 O67 1.279 . S
O66 Cd58 2.223 . S
O66 C65 1.315 . S
O67 Cd57 2.240 . S
O67 C65 1.279 . S
O68 Cd58 2.297 . S
O68 C63 1.247 . S
O69 Cd58 2.439 . S
O69 C63 1.208 . S
O70 Cd71 2.223 . S
O70 C78 1.315 . S
Cd71 O70 2.223 . S
Cd71 O74 2.297 . S
Cd71 O75 2.439 . S
Cd71 O81 2.240 . S
Cd72 O73 2.240 . S
Cd72 O80 2.223 . S
Cd72 O82 2.297 . S
Cd72 O83 2.439 . S
O73 Cd72 2.240 . S
O73 C78 1.279 . S
O74 Cd71 2.297 . S
O74 C76 1.247 . S
O75 Cd71 2.439 . S
O75 C76 1.208 . S
C76 O74 1.247 . S
C76 O75 1.208 . S
C77 O82 1.247 . S
C77 O83 1.208 . S
C78 O70 1.315 . S
C78 O73 1.279 . S
C79 O80 1.315 . S
C79 O81 1.279 . S
O80 Cd72 2.223 . S
O80 C79 1.315 . S
O81 Cd71 2.240 . S
O81 C79 1.279 . S
O82 Cd72 2.297 . S
O82 C77 1.247 . S
O83 Cd72 2.439 . S
O83 C77 1.208 . S
O84 Cd85 2.223 . S
O84 C92 1.315 . S
Cd85 O84 2.223 . S
Cd85 O88 2.297 . S
Cd85 O89 2.439 . S
Cd85 O95 2.240 . S
Cd86 O87 2.240 . S
Cd86 O94 2.223 . S
Cd86 O96 2.297 . S
Cd86 O97 2.439 . S
O87 Cd86 2.240 . S
O87 C92 1.279 . S
O88 Cd85 2.297 . S
O88 C90 1.247 . S
O89 Cd85 2.439 . S
O89 C90 1.208 . S
C90 O88 1.247 . S
C90 O89 1.208 . S
C91 O96 1.247 . S
C91 O97 1.208 . S
C92 O84 1.315 . S
C92 O87 1.279 . S
C93 O94 1.315 . S
C93 O95 1.279 . S
O94 Cd86 2.223 . S
O94 C93 1.315 . S
O95 Cd85 2.240 . S
O95 C93 1.279 . S
O96 Cd86 2.297 . S
O96 C91 1.247 . S
O97 Cd86 2.439 . S
O97 C91 1.208 . S
O98 Cd99 2.223 . S
O98 C106 1.315 . S
Cd99 O98 2.223 . S
Cd99 O102 2.297 . S
Cd99 O103 2.439 . S
Cd99 O109 2.240 . S
Cd100 O101 2.240 . S
Cd100 O108 2.223 . S
Cd100 O110 2.297 . S
Cd100 O111 2.439 . S
O101 Cd100 2.240 . S
O101 C106 1.279 . S
O102 Cd99 2.297 . S
O102 C104 1.247 . S
O103 Cd99 2.439 . S
O103 C104 1.208 . S
C104 O102 1.247 . S
C104 O103 1.208 . S
C105 O110 1.247 . S
C105 O111 1.208 . S
C106 O98 1.315 . S
C106 O101 1.279 . S
C107 O108 1.315 . S
C107 O109 1.279 . S
O108 Cd100 2.223 . S
O108 C107 1.315 . S
O109 Cd99 2.240 . S
O109 C107 1.279 . S
O110 Cd100 2.297 . S
O110 C105 1.247 . S
O111 Cd100 2.439 . S
O111 C105 1.208 . S
O112 Cd113 2.223 . S
O112 C120 1.315 . S
Cd113 O112 2.223 . S
Cd113 O116 2.297 . S
Cd113 O117 2.439 . S
Cd113 O123 2.240 . S
Cd114 O115 2.240 . S
Cd114 O122 2.223 . S
Cd114 O124 2.297 . S
Cd114 O125 2.439 . S
O115 Cd114 2.240 . S
O115 C120 1.279 . S
O116 Cd113 2.297 . S
O116 C118 1.247 . S
O117 Cd113 2.439 . S
O117 C118 1.208 . S
C118 O116 1.247 . S
C118 O117 1.208 . S
C119 O124 1.247 . S
C119 O125 1.208 . S
C120 O112 1.315 . S
C120 O115 1.279 . S
C121 O122 1.315 . S
C121 O123 1.279 . S
O122 Cd114 2.223 . S
O122 C121 1.315 . S
O123 Cd113 2.240 . S
O123 C121 1.279 . S
O124 Cd114 2.297 . S
O124 C119 1.247 . S
O125 Cd114 2.439 . S
O125 C119 1.208 . S
O126 Cd127 2.223 . S
O126 C134 1.315 . S
Cd127 O126 2.223 . S
Cd127 O130 2.297 . S
Cd127 O131 2.439 . S
Cd127 O137 2.240 . S
Cd128 O129 2.240 . S
Cd128 O136 2.223 . S
Cd128 O138 2.297 . S
Cd128 O139 2.439 . S
O129 Cd128 2.240 . S
O129 C134 1.279 . S
O130 Cd127 2.297 . S
O130 C132 1.247 . S
O131 Cd127 2.439 . S
O131 C132 1.208 . S
C132 O130 1.247 . S
C132 O131 1.208 . S
C133 O138 1.247 . S
C133 O139 1.208 . S
C134 O126 1.315 . S
C134 O129 1.279 . S
C135 O136 1.315 . S
C135 O137 1.279 . S
O136 Cd128 2.223 . S
O136 C135 1.315 . S
O137 Cd127 2.240 . S
O137 C135 1.279 . S
O138 Cd128 2.297 . S
O138 C133 1.247 . S
O139 Cd128 2.439 . S
O139 C133 1.208 . S
O140 Cd141 2.223 . S
O140 C148 1.315 . S
Cd141 O140 2.223 . S
Cd141 O144 2.297 . S
Cd141 O145 2.439 . S
Cd141 O151 2.240 . S
Cd142 O143 2.240 . S
Cd142 O150 2.223 . S
Cd142 O152 2.297 . S
Cd142 O153 2.439 . S
O143 Cd142 2.240 . S
O143 C148 1.279 . S
O144 Cd141 2.297 . S
O144 C146 1.247 . S
O145 Cd141 2.439 . S
O145 C146 1.208 . S
C146 O144 1.247 . S
C146 O145 1.208 . S
C147 O152 1.247 . S
C147 O153 1.208 . S
C148 O140 1.315 . S
C148 O143 1.279 . S
C149 O150 1.315 . S
C149 O151 1.279 . S
O150 Cd142 2.223 . S
O150 C149 1.315 . S
O151 Cd141 2.240 . S
O151 C149 1.279 . S
O152 Cd142 2.297 . S
O152 C147 1.247 . S
O153 Cd142 2.439 . S
O153 C147 1.208 . S
O154 Cd155 2.223 . S
O154 C162 1.315 . S
Cd155 O154 2.223 . S
Cd155 O158 2.297 . S
Cd155 O159 2.439 . S
Cd155 O165 2.240 . S
Cd156 O157 2.240 . S
Cd156 O164 2.223 . S
Cd156 O166 2.297 . S
Cd156 O167 2.439 . S
O157 Cd156 2.240 . S
O157 C162 1.279 . S
O158 Cd155 2.297 . S
O158 C160 1.247 . S
O159 Cd155 2.439 . S
O159 C160 1.208 . S
C160 O158 1.247 . S
C160 O159 1.208 . S
C161 O166 1.247 . S
C161 O167 1.208 . S
C162 O154 1.315 . S
C162 O157 1.279 . S
C163 O164 1.315 . S
C163 O165 1.279 . S
O164 Cd156 2.223 . S
O164 C163 1.315 . S
O165 Cd155 2.240 . S
O165 C163 1.279 . S
O166 Cd156 2.297 . S
O166 C161 1.247 . S
O167 Cd156 2.439 . S
O167 C161 1.208 . S
O168 Cd169 2.223 . S
O168 C176 1.315 . S
Cd169 O168 2.223 . S
Cd169 O172 2.297 . S
Cd169 O173 2.439 . S
Cd169 O179 2.240 . S
Cd170 O171 2.240 . S
Cd170 O178 2.223 . S
Cd170 O180 2.297 . S
Cd170 O181 2.439 . S
O171 Cd170 2.240 . S
O171 C176 1.279 . S
O172 Cd169 2.297 . S
O172 C174 1.247 . S
O173 Cd169 2.439 . S
O173 C174 1.208 . S
C174 O172 1.247 . S
C174 O173 1.208 . S
C175 O180 1.247 . S
C175 O181 1.208 . S
C176 O168 1.315 . S
C176 O171 1.279 . S
C177 O178 1.315 . S
C177 O179 1.279 . S
O178 Cd170 2.223 . S
O178 C177 1.315 . S
O179 Cd169 2.240 . S
O179 C177 1.279 . S
O180 Cd170 2.297 . S
O180 C175 1.247 . S
O181 Cd170 2.439 . S
O181 C175 1.208 . S
O182 Cd183 2.223 . S
O182 C190 1.315 . S
Cd183 O182 2.223 . S
Cd183 O186 2.297 . S
Cd183 O187 2.439 . S
Cd183 O193 2.240 . S
Cd184 O185 2.240 . S
Cd184 O192 2.223 . S
Cd184 O194 2.297 . S
Cd184 O195 2.439 . S
O185 Cd184 2.240 . S
O185 C190 1.279 . S
O186 Cd183 2.297 . S
O186 C188 1.247 . S
O187 Cd183 2.439 . S
O187 C188 1.208 . S
C188 O186 1.247 . S
C188 O187 1.208 . S
C189 O194 1.247 . S
C189 O195 1.208 . S
C190 O182 1.315 . S
C190 O185 1.279 . S
C191 O192 1.315 . S
C191 O193 1.279 . S
O192 Cd184 2.223 . S
O192 C191 1.315 . S
O193 Cd183 2.240 . S
O193 C191 1.279 . S
O194 Cd184 2.297 . S
O194 C189 1.247 . S
O195 Cd184 2.439 . S
O195 C189 1.208 . S
O196 Cd197 2.223 . S
O196 C204 1.315 . S
Cd197 O196 2.223 . S
Cd197 O200 2.297 . S
Cd197 O201 2.439 . S
Cd197 O207 2.240 . S
Cd198 O199 2.240 . S
Cd198 O206 2.223 . S
Cd198 O208 2.297 . S
Cd198 O209 2.439 . S
O199 Cd198 2.240 . S
O199 C204 1.279 . S
O200 Cd197 2.297 . S
O200 C202 1.247 . S
O201 Cd197 2.439 . S
O201 C202 1.208 . S
C202 O200 1.247 . S
C202 O201 1.208 . S
C203 O208 1.247 . S
C203 O209 1.208 . S
C204 O196 1.315 . S
C204 O199 1.279 . S
C205 O206 1.315 . S
C205 O207 1.279 . S
O206 Cd198 2.223 . S
O206 C205 1.315 . S
O207 Cd197 2.240 . S
O207 C205 1.279 . S
O208 Cd198 2.297 . S
O208 C203 1.247 . S
O209 Cd198 2.439 . S
O209 C203 1.208 . S
O210 Cd211 2.223 . S
O210 C218 1.315 . S
Cd211 O210 2.223 . S
Cd211 O214 2.297 . S
Cd211 O215 2.439 . S
Cd211 O221 2.240 . S
Cd212 O213 2.240 . S
Cd212 O220 2.223 . S
Cd212 O222 2.297 . S
Cd212 O223 2.439 . S
O213 Cd212 2.240 . S
O213 C218 1.279 . S
O214 Cd211 2.297 . S
O214 C216 1.247 . S
O215 Cd211 2.439 . S
O215 C216 1.208 . S
C216 O214 1.247 . S
C216 O215 1.208 . S
C217 O222 1.247 . S
C217 O223 1.208 . S
C218 O210 1.315 . S
C218 O213 1.279 . S
C219 O220 1.315 . S
C219 O221 1.279 . S
O220 Cd212 2.223 . S
O220 C219 1.315 . S
O221 Cd211 2.240 . S
O221 C219 1.279 . S
O222 Cd212 2.297 . S
O222 C217 1.247 . S
O223 Cd212 2.439 . S
O223 C217 1.208 . S
O224 Cd225 2.223 . S
O224 C232 1.315 . S
Cd225 O224 2.223 . S
Cd225 O228 2.297 . S
Cd225 O229 2.439 . S
Cd225 O235 2.240 . S
Cd226 O227 2.240 . S
Cd226 O234 2.223 . S
Cd226 O236 2.297 . S
Cd226 O237 2.439 . S
O227 Cd226 2.240 . S
O227 C232 1.279 . S
O228 Cd225 2.297 . S
O228 C230 1.247 . S
O229 Cd225 2.439 . S
O229 C230 1.208 . S
C230 O228 1.247 . S
C230 O229 1.208 . S
C231 O236 1.247 . S
C231 O237 1.208 . S
C232 O224 1.315 . S
C232 O227 1.279 . S
C233 O234 1.315 . S
C233 O235 1.279 . S
O234 Cd226 2.223 . S
O234 C233 1.315 . S
O235 Cd225 2.240 . S
O235 C233 1.279 . S
O236 Cd226 2.297 . S
O236 C231 1.247 . S
O237 Cd226 2.439 . S
O237 C231 1.208 . S
O238 Cd239 2.223 . S
O238 C246 1.315 . S
Cd239 O238 2.223 . S
Cd239 O242 2.297 . S
Cd239 O243 2.439 . S
Cd239 O249 2.240 . S
Cd240 O241 2.240 . S
Cd240 O248 2.223 . S
Cd240 O250 2.297 . S
Cd240 O251 2.439 . S
O241 Cd240 2.240 . S
O241 C246 1.279 . S
O242 Cd239 2.297 . S
O242 C244 1.247 . S
O243 Cd239 2.439 . S
O243 C244 1.208 . S
C244 O242 1.247 . S
C244 O243 1.208 . S
C245 O250 1.247 . S
C245 O251 1.208 . S
C246 O238 1.315 . S
C246 O241 1.279 . S
C247 O248 1.315 . S
C247 O249 1.279 . S
O248 Cd240 2.223 . S
O248 C247 1.315 . S
O249 Cd239 2.240 . S
O249 C247 1.279 . S
O250 Cd240 2.297 . S
O250 C245 1.247 . S
O251 Cd240 2.439 . S
O251 C245 1.208 . S
O252 Cd253 2.223 . S
O252 C260 1.315 . S
Cd253 O252 2.223 . S
Cd253 O256 2.297 . S
Cd253 O257 2.439 . S
Cd253 O263 2.240 . S
Cd254 O255 2.240 . S
Cd254 O262 2.223 . S
Cd254 O264 2.297 . S
Cd254 O265 2.439 . S
O255 Cd254 2.240 . S
O255 C260 1.279 . S
O256 Cd253 2.297 . S
O256 C258 1.247 . S
O257 Cd253 2.439 . S
O257 C258 1.208 . S
C258 O256 1.247 . S
C258 O257 1.208 . S
C259 O264 1.247 . S
C259 O265 1.208 . S
C260 O252 1.315 . S
C260 O255 1.279 . S
C261 O262 1.315 . S
C261 O263 1.279 . S
O262 Cd254 2.223 . S
O262 C261 1.315 . S
O263 Cd253 2.240 . S
O263 C261 1.279 . S
O264 Cd254 2.297 . S
O264 C259 1.247 . S
O265 Cd254 2.439 . S
O265 C259 1.208 . S
O266 Cd267 2.223 . S
O266 C274 1.315 . S
Cd267 O266 2.223 . S
Cd267 O270 2.297 . S
Cd267 O271 2.439 . S
Cd267 O277 2.240 . S
Cd268 O269 2.240 . S
Cd268 O276 2.223 . S
Cd268 O278 2.297 . S
Cd268 O279 2.439 . S
O269 Cd268 2.240 . S
O269 C274 1.279 . S
O270 Cd267 2.297 . S
O270 C272 1.247 . S
O271 Cd267 2.439 . S
O271 C272 1.208 . S
C272 O270 1.247 . S
C272 O271 1.208 . S
C273 O278 1.247 . S
C273 O279 1.208 . S
C274 O266 1.315 . S
C274 O269 1.279 . S
C275 O276 1.315 . S
C275 O277 1.279 . S
O276 Cd268 2.223 . S
O276 C275 1.315 . S
O277 Cd267 2.240 . S
O277 C275 1.279 . S
O278 Cd268 2.297 . S
O278 C273 1.247 . S
O279 Cd268 2.439 . S
O279 C273 1.208 . S
O280 Cd281 2.223 . S
O280 C288 1.315 . S
Cd281 O280 2.223 . S
Cd281 O284 2.297 . S
Cd281 O285 2.439 . S
Cd281 O291 2.240 . S
Cd282 O283 2.240 . S
Cd282 O290 2.223 . S
Cd282 O292 2.297 . S
Cd282 O293 2.439 . S
O283 Cd282 2.240 . S
O283 C288 1.279 . S
O284 Cd281 2.297 . S
O284 C286 1.247 . S
O285 Cd281 2.439 . S
O285 C286 1.208 . S
C286 O284 1.247 . S
C286 O285 1.208 . S
C287 O292 1.247 . S
C287 O293 1.208 . S
C288 O280 1.315 . S
C288 O283 1.279 . S
C289 O290 1.315 . S
C289 O291 1.279 . S
O290 Cd282 2.223 . S
O290 C289 1.315 . S
O291 Cd281 2.240 . S
O291 C289 1.279 . S
O292 Cd282 2.297 . S
O292 C287 1.247 . S
O293 Cd282 2.439 . S
O293 C287 1.208 . S
O294 Cd295 2.223 . S
O294 C302 1.315 . S
Cd295 O294 2.223 . S
Cd295 O298 2.297 . S
Cd295 O299 2.439 . S
Cd295 O305 2.240 . S
Cd296 O297 2.240 . S
Cd296 O304 2.223 . S
Cd296 O306 2.297 . S
Cd296 O307 2.439 . S
O297 Cd296 2.240 . S
O297 C302 1.279 . S
O298 Cd295 2.297 . S
O298 C300 1.247 . S
O299 Cd295 2.439 . S
O299 C300 1.208 . S
C300 O298 1.247 . S
C300 O299 1.208 . S
C301 O306 1.247 . S
C301 O307 1.208 . S
C302 O294 1.315 . S
C302 O297 1.279 . S
C303 O304 1.315 . S
C303 O305 1.279 . S
O304 Cd296 2.223 . S
O304 C303 1.315 . S
O305 Cd295 2.240 . S
O305 C303 1.279 . S
O306 Cd296 2.297 . S
O306 C301 1.247 . S
O307 Cd296 2.439 . S
O307 C301 1.208 . S
O308 Cd309 2.223 . S
O308 C316 1.315 . S
Cd309 O308 2.223 . S
Cd309 O312 2.297 . S
Cd309 O313 2.439 . S
Cd309 O319 2.240 . S
Cd310 O311 2.240 . S
Cd310 O318 2.223 . S
Cd310 O320 2.297 . S
Cd310 O321 2.439 . S
O311 Cd310 2.240 . S
O311 C316 1.279 . S
O312 Cd309 2.297 . S
O312 C314 1.247 . S
O313 Cd309 2.439 . S
O313 C314 1.208 . S
C314 O312 1.247 . S
C314 O313 1.208 . S
C315 O320 1.247 . S
C315 O321 1.208 . S
C316 O308 1.315 . S
C316 O311 1.279 . S
C317 O318 1.315 . S
C317 O319 1.279 . S
O318 Cd310 2.223 . S
O318 C317 1.315 . S
O319 Cd309 2.240 . S
O319 C317 1.279 . S
O320 Cd310 2.297 . S
O320 C315 1.247 . S
O321 Cd310 2.439 . S
O321 C315 1.208 . S
O322 Cd323 2.223 . S
O322 C330 1.315 . S
Cd323 O322 2.223 . S
Cd323 O326 2.297 . S
Cd323 O327 2.439 . S
Cd323 O333 2.240 . S
Cd324 O325 2.240 . S
Cd324 O332 2.223 . S
Cd324 O334 2.297 . S
Cd324 O335 2.439 . S
O325 Cd324 2.240 . S
O325 C330 1.279 . S
O326 Cd323 2.297 . S
O326 C328 1.247 . S
O327 Cd323 2.439 . S
O327 C328 1.208 . S
C328 O326 1.247 . S
C328 O327 1.208 . S
C329 O334 1.247 . S
C329 O335 1.208 . S
C330 O322 1.315 . S
C330 O325 1.279 . S
C331 O332 1.315 . S
C331 O333 1.279 . S
O332 Cd324 2.223 . S
O332 C331 1.315 . S
O333 Cd323 2.240 . S
O333 C331 1.279 . S
O334 Cd324 2.297 . S
O334 C329 1.247 . S
O335 Cd324 2.439 . S
O335 C329 1.208 . S
H336 C342 0.930 . S
H337 C346 0.930 . S
H338 C351 0.929 . S
H339 C349 0.929 . S
H340 C344 0.929 . S
H341 C350 0.929 . S
C342 H336 0.930 . S
C342 C343 1.367 . S
C342 C350 1.378 . S
C343 C342 1.367 . S
C343 C351 1.433 . S
C344 H340 0.929 . S
C344 C346 1.378 . S
C344 C348 1.350 . S
C345 C348 1.463 . S
C345 C350 1.350 . S
C345 N353 1.427 . S
C346 H337 0.930 . S
C346 C344 1.378 . S
C346 C347 1.367 . S
C347 C346 1.367 . S
C347 C349 1.433 . S
C348 C344 1.350 . S
C348 C345 1.463 . S
C348 N352 1.427 . S
C349 H339 0.929 . S
C349 C347 1.433 . S
C349 N352 1.384 . S
C350 H341 0.929 . S
C350 C342 1.378 . S
C350 C345 1.350 . S
C351 H338 0.929 . S
C351 C343 1.433 . S
C351 N353 1.384 . S
N352 C348 1.427 . S
N352 C349 1.384 . S
N353 C345 1.427 . S
N353 C351 1.384 . S
H354 C360 0.930 . S
H355 C364 0.930 . S
H356 C369 0.929 . S
H357 C367 0.929 . S
H358 C362 0.929 . S
H359 C368 0.929 . S
C360 H354 0.930 . S
C360 C361 1.367 . S
C360 C368 1.378 . S
C361 C360 1.367 . S
C361 C369 1.433 . S
C362 H358 0.929 . S
C362 C364 1.378 . S
C362 C366 1.350 . S
C363 C366 1.463 . S
C363 C368 1.350 . S
C363 N371 1.427 . S
C364 H355 0.930 . S
C364 C362 1.378 . S
C364 C365 1.367 . S
C365 C364 1.367 . S
C365 C367 1.433 . S
C366 C362 1.350 . S
C366 C363 1.463 . S
C366 N370 1.427 . S
C367 H357 0.929 . S
C367 C365 1.433 . S
C367 N370 1.384 . S
C368 H359 0.929 . S
C368 C360 1.378 . S
C368 C363 1.350 . S
C369 H356 0.929 . S
C369 C361 1.433 . S
C369 N371 1.384 . S
N370 C366 1.427 . S
N370 C367 1.384 . S
N371 C363 1.427 . S
N371 C369 1.384 . S
H372 C378 0.930 . S
H373 C382 0.930 . S
H374 C387 0.929 . S
H375 C385 0.929 . S
H376 C380 0.929 . S
H377 C386 0.929 . S
C378 H372 0.930 . S
C378 C379 1.367 . S
C378 C386 1.378 . S
C379 C378 1.367 . S
C379 C387 1.433 . S
C380 H376 0.929 . S
C380 C382 1.378 . S
C380 C384 1.350 . S
C381 C384 1.463 . S
C381 C386 1.350 . S
C381 N389 1.427 . S
C382 H373 0.930 . S
C382 C380 1.378 . S
C382 C383 1.367 . S
C383 C382 1.367 . S
C383 C385 1.433 . S
C384 C380 1.350 . S
C384 C381 1.463 . S
C384 N388 1.427 . S
C385 H375 0.929 . S
C385 C383 1.433 . S
C385 N388 1.384 . S
C386 H377 0.929 . S
C386 C378 1.378 . S
C386 C381 1.350 . S
C387 H374 0.929 . S
C387 C379 1.433 . S
C387 N389 1.384 . S
N388 C384 1.427 . S
N388 C385 1.384 . S
N389 C381 1.427 . S
N389 C387 1.384 . S
H390 C396 0.930 . S
H391 C400 0.930 . S
H392 C405 0.929 . S
H393 C403 0.929 . S
H394 C398 0.929 . S
H395 C404 0.929 . S
C396 H390 0.930 . S
C396 C397 1.367 . S
C396 C404 1.378 . S
C397 C396 1.367 . S
C397 C405 1.433 . S
C398 H394 0.929 . S
C398 C400 1.378 . S
C398 C402 1.350 . S
C399 C402 1.463 . S
C399 C404 1.350 . S
C399 N407 1.427 . S
C400 H391 0.930 . S
C400 C398 1.378 . S
C400 C401 1.367 . S
C401 C400 1.367 . S
C401 C403 1.433 . S
C402 C398 1.350 . S
C402 C399 1.463 . S
C402 N406 1.427 . S
C403 H393 0.929 . S
C403 C401 1.433 . S
C403 N406 1.384 . S
C404 H395 0.929 . S
C404 C396 1.378 . S
C404 C399 1.350 . S
C405 H392 0.929 . S
C405 C397 1.433 . S
C405 N407 1.384 . S
N406 C402 1.427 . S
N406 C403 1.384 . S
N407 C399 1.427 . S
N407 C405 1.384 . S
H408 C414 0.930 . S
H409 C418 0.930 . S
H410 C423 0.929 . S
H411 C421 0.929 . S
H412 C416 0.929 . S
H413 C422 0.929 . S
C414 H408 0.930 . S
C414 C415 1.367 . S
C414 C422 1.378 . S
C415 C414 1.367 . S
C415 C423 1.433 . S
C416 H412 0.929 . S
C416 C418 1.378 . S
C416 C420 1.350 . S
C417 C420 1.463 . S
C417 C422 1.350 . S
C417 N425 1.427 . S
C418 H409 0.930 . S
C418 C416 1.378 . S
C418 C419 1.367 . S
C419 C418 1.367 . S
C419 C421 1.433 . S
C420 C416 1.350 . S
C420 C417 1.463 . S
C420 N424 1.427 . S
C421 H411 0.929 . S
C421 C419 1.433 . S
C421 N424 1.384 . S
C422 H413 0.929 . S
C422 C414 1.378 . S
C422 C417 1.350 . S
C423 H410 0.929 . S
C423 C415 1.433 . S
C423 N425 1.384 . S
N424 C420 1.427 . S
N424 C421 1.384 . S
N425 C417 1.427 . S
N425 C423 1.384 . S
H426 C432 0.930 . S
H427 C436 0.930 . S
H428 C441 0.929 . S
H429 C439 0.929 . S
H430 C434 0.929 . S
H431 C440 0.929 . S
C432 H426 0.930 . S
C432 C433 1.367 . S
C432 C440 1.378 . S
C433 C432 1.367 . S
C433 C441 1.433 . S
C434 H430 0.929 . S
C434 C436 1.378 . S
C434 C438 1.350 . S
C435 C438 1.463 . S
C435 C440 1.350 . S
C435 N443 1.427 . S
C436 H427 0.930 . S
C436 C434 1.378 . S
C436 C437 1.367 . S
C437 C436 1.367 . S
C437 C439 1.433 . S
C438 C434 1.350 . S
C438 C435 1.463 . S
C438 N442 1.427 . S
C439 H429 0.929 . S
C439 C437 1.433 . S
C439 N442 1.384 . S
C440 H431 0.929 . S
C440 C432 1.378 . S
C440 C435 1.350 . S
C441 H428 0.929 . S
C441 C433 1.433 . S
C441 N443 1.384 . S
N442 C438 1.427 . S
N442 C439 1.384 . S
N443 C435 1.427 . S
N443 C441 1.384 . S
H444 C450 0.930 . S
H445 C454 0.930 . S
H446 C459 0.929 . S
H447 C457 0.929 . S
H448 C452 0.929 . S
H449 C458 0.929 . S
C450 H444 0.930 . S
C450 C451 1.367 . S
C450 C458 1.378 . S
C451 C450 1.367 . S
C451 C459 1.433 . S
C452 H448 0.929 . S
C452 C454 1.378 . S
C452 C456 1.350 . S
C453 C456 1.463 . S
C453 C458 1.350 . S
C453 N461 1.427 . S
C454 H445 0.930 . S
C454 C452 1.378 . S
C454 C455 1.367 . S
C455 C454 1.367 . S
C455 C457 1.433 . S
C456 C452 1.350 . S
C456 C453 1.463 . S
C456 N460 1.427 . S
C457 H447 0.929 . S
C457 C455 1.433 . S
C457 N460 1.384 . S
C458 H449 0.929 . S
C458 C450 1.378 . S
C458 C453 1.350 . S
C459 H446 0.929 . S
C459 C451 1.433 . S
C459 N461 1.384 . S
N460 C456 1.427 . S
N460 C457 1.384 . S
N461 C453 1.427 . S
N461 C459 1.384 . S
H462 C468 0.930 . S
H463 C472 0.930 . S
H464 C477 0.929 . S
H465 C475 0.929 . S
H466 C470 0.929 . S
H467 C476 0.929 . S
C468 H462 0.930 . S
C468 C469 1.367 . S
C468 C476 1.378 . S
C469 C468 1.367 . S
C469 C477 1.433 . S
C470 H466 0.929 . S
C470 C472 1.378 . S
C470 C474 1.350 . S
C471 C474 1.463 . S
C471 C476 1.350 . S
C471 N479 1.427 . S
C472 H463 0.930 . S
C472 C470 1.378 . S
C472 C473 1.367 . S
C473 C472 1.367 . S
C473 C475 1.433 . S
C474 C470 1.350 . S
C474 C471 1.463 . S
C474 N478 1.427 . S
C475 H465 0.929 . S
C475 C473 1.433 . S
C475 N478 1.384 . S
C476 H467 0.929 . S
C476 C468 1.378 . S
C476 C471 1.350 . S
C477 H464 0.929 . S
C477 C469 1.433 . S
C477 N479 1.384 . S
N478 C474 1.427 . S
N478 C475 1.384 . S
N479 C471 1.427 . S
N479 C477 1.384 . S
H480 C486 0.930 . S
H481 C490 0.930 . S
H482 C495 0.929 . S
H483 C493 0.929 . S
H484 C488 0.929 . S
H485 C494 0.929 . S
C486 H480 0.930 . S
C486 C487 1.367 . S
C486 C494 1.378 . S
C487 C486 1.367 . S
C487 C495 1.433 . S
C488 H484 0.929 . S
C488 C490 1.378 . S
C488 C492 1.350 . S
C489 C492 1.463 . S
C489 C494 1.350 . S
C489 N497 1.427 . S
C490 H481 0.930 . S
C490 C488 1.378 . S
C490 C491 1.367 . S
C491 C490 1.367 . S
C491 C493 1.433 . S
C492 C488 1.350 . S
C492 C489 1.463 . S
C492 N496 1.427 . S
C493 H483 0.929 . S
C493 C491 1.433 . S
C493 N496 1.384 . S
C494 H485 0.929 . S
C494 C486 1.378 . S
C494 C489 1.350 . S
C495 H482 0.929 . S
C495 C487 1.433 . S
C495 N497 1.384 . S
N496 C492 1.427 . S
N496 C493 1.384 . S
N497 C489 1.427 . S
N497 C495 1.384 . S
H498 C504 0.930 . S
H499 C508 0.930 . S
H500 C513 0.929 . S
H501 C511 0.929 . S
H502 C506 0.929 . S
H503 C512 0.929 . S
C504 H498 0.930 . S
C504 C505 1.367 . S
C504 C512 1.378 . S
C505 C504 1.367 . S
C505 C513 1.433 . S
C506 H502 0.929 . S
C506 C508 1.378 . S
C506 C510 1.350 . S
C507 C510 1.463 . S
C507 C512 1.350 . S
C507 N515 1.427 . S
C508 H499 0.930 . S
C508 C506 1.378 . S
C508 C509 1.367 . S
C509 C508 1.367 . S
C509 C511 1.433 . S
C510 C506 1.350 . S
C510 C507 1.463 . S
C510 N514 1.427 . S
C511 H501 0.929 . S
C511 C509 1.433 . S
C511 N514 1.384 . S
C512 H503 0.929 . S
C512 C504 1.378 . S
C512 C507 1.350 . S
C513 H500 0.929 . S
C513 C505 1.433 . S
C513 N515 1.384 . S
N514 C510 1.427 . S
N514 C511 1.384 . S
N515 C507 1.427 . S
N515 C513 1.384 . S
H516 C522 0.930 . S
H517 C526 0.930 . S
H518 C531 0.929 . S
H519 C529 0.929 . S
H520 C524 0.929 . S
H521 C530 0.929 . S
C522 H516 0.930 . S
C522 C523 1.367 . S
C522 C530 1.378 . S
C523 C522 1.367 . S
C523 C531 1.433 . S
C524 H520 0.929 . S
C524 C526 1.378 . S
C524 C528 1.350 . S
C525 C528 1.463 . S
C525 C530 1.350 . S
C525 N533 1.427 . S
C526 H517 0.930 . S
C526 C524 1.378 . S
C526 C527 1.367 . S
C527 C526 1.367 . S
C527 C529 1.433 . S
C528 C524 1.350 . S
C528 C525 1.463 . S
C528 N532 1.427 . S
C529 H519 0.929 . S
C529 C527 1.433 . S
C529 N532 1.384 . S
C530 H521 0.929 . S
C530 C522 1.378 . S
C530 C525 1.350 . S
C531 H518 0.929 . S
C531 C523 1.433 . S
C531 N533 1.384 . S
N532 C528 1.427 . S
N532 C529 1.384 . S
N533 C525 1.427 . S
N533 C531 1.384 . S
H534 C540 0.930 . S
H535 C544 0.930 . S
H536 C549 0.929 . S
H537 C547 0.929 . S
H538 C542 0.929 . S
H539 C548 0.929 . S
C540 H534 0.930 . S
C540 C541 1.367 . S
C540 C548 1.378 . S
C541 C540 1.367 . S
C541 C549 1.433 . S
C542 H538 0.929 . S
C542 C544 1.378 . S
C542 C546 1.350 . S
C543 C546 1.463 . S
C543 C548 1.350 . S
C543 N551 1.427 . S
C544 H535 0.930 . S
C544 C542 1.378 . S
C544 C545 1.367 . S
C545 C544 1.367 . S
C545 C547 1.433 . S
C546 C542 1.350 . S
C546 C543 1.463 . S
C546 N550 1.427 . S
C547 H537 0.929 . S
C547 C545 1.433 . S
C547 N550 1.384 . S
C548 H539 0.929 . S
C548 C540 1.378 . S
C548 C543 1.350 . S
C549 H536 0.929 . S
C549 C541 1.433 . S
C549 N551 1.384 . S
N550 C546 1.427 . S
N550 C547 1.384 . S
N551 C543 1.427 . S
N551 C549 1.384 . S
H552 C558 0.930 . S
H553 C562 0.930 . S
H554 C567 0.929 . S
H555 C565 0.929 . S
H556 C560 0.929 . S
H557 C566 0.929 . S
C558 H552 0.930 . S
C558 C559 1.367 . S
C558 C566 1.378 . S
C559 C558 1.367 . S
C559 C567 1.433 . S
C560 H556 0.929 . S
C560 C562 1.378 . S
C560 C564 1.350 . S
C561 C564 1.463 1_556 S
C561 C566 1.350 . S
C561 N569 1.427 . S
C562 H553 0.930 . S
C562 C560 1.378 . S
C562 C563 1.367 . S
C563 C562 1.367 . S
C563 C565 1.433 . S
C564 C560 1.350 . S
C564 C561 1.463 1_554 S
C564 N568 1.427 . S
C565 H555 0.929 . S
C565 C563 1.433 . S
C565 N568 1.384 . S
C566 H557 0.929 . S
C566 C558 1.378 . S
C566 C561 1.350 . S
C567 H554 0.929 . S
C567 C559 1.433 . S
C567 N569 1.384 . S
N568 C564 1.427 . S
N568 C565 1.384 . S
N569 C561 1.427 . S
N569 C567 1.384 . S
H570 C576 0.930 . S
H571 C580 0.930 . S
H572 C585 0.929 . S
H573 C583 0.929 . S
H574 C578 0.929 . S
H575 C584 0.929 . S
C576 H570 0.930 . S
C576 C577 1.367 . S
C576 C584 1.378 . S
C577 C576 1.367 . S
C577 C585 1.433 . S
C578 H574 0.929 . S
C578 C580 1.378 . S
C578 C582 1.350 . S
C579 C582 1.463 . S
C579 C584 1.350 . S
C579 N587 1.427 . S
C580 H571 0.930 . S
C580 C578 1.378 . S
C580 C581 1.367 . S
C581 C580 1.367 . S
C581 C583 1.433 . S
C582 C578 1.350 . S
C582 C579 1.463 . S
C582 N586 1.427 . S
C583 H573 0.929 . S
C583 C581 1.433 . S
C583 N586 1.384 . S
C584 H575 0.929 . S
C584 C576 1.378 . S
C584 C579 1.350 . S
C585 H572 0.929 . S
C585 C577 1.433 . S
C585 N587 1.384 . S
N586 C582 1.427 . S
N586 C583 1.384 . S
N587 C579 1.427 . S
N587 C585 1.384 . S
H588 C594 0.930 . S
H589 C598 0.930 . S
H590 C603 0.929 . S
H591 C601 0.929 . S
H592 C596 0.929 . S
H593 C602 0.929 . S
C594 H588 0.930 . S
C594 C595 1.367 . S
C594 C602 1.378 . S
C595 C594 1.367 . S
C595 C603 1.433 . S
C596 H592 0.929 . S
C596 C598 1.378 . S
C596 C600 1.350 . S
C597 C600 1.463 1_554 S
C597 C602 1.350 . S
C597 N605 1.427 . S
C598 H589 0.930 . S
C598 C596 1.378 . S
C598 C599 1.367 . S
C599 C598 1.367 . S
C599 C601 1.433 . S
C600 C596 1.350 . S
C600 C597 1.463 1_556 S
C600 N604 1.427 . S
C601 H591 0.929 . S
C601 C599 1.433 . S
C601 N604 1.384 . S
C602 H593 0.929 . S
C602 C594 1.378 . S
C602 C597 1.350 . S
C603 H590 0.929 . S
C603 C595 1.433 . S
C603 N605 1.384 . S
N604 C600 1.427 . S
N604 C601 1.384 . S
N605 C597 1.427 . S
N605 C603 1.384 . S
H606 C612 0.930 . S
H607 C616 0.930 . S
H608 C621 0.929 . S
H609 C619 0.929 . S
H610 C614 0.929 . S
H611 C620 0.929 . S
C612 H606 0.930 . S
C612 C613 1.367 . S
C612 C620 1.378 . S
C613 C612 1.367 . S
C613 C621 1.433 . S
C614 H610 0.929 . S
C614 C616 1.378 . S
C614 C618 1.350 . S
C615 C618 1.463 . S
C615 C620 1.350 . S
C615 N623 1.427 . S
C616 H607 0.930 . S
C616 C614 1.378 . S
C616 C617 1.367 . S
C617 C616 1.367 . S
C617 C619 1.433 . S
C618 C614 1.350 . S
C618 C615 1.463 . S
C618 N622 1.427 . S
C619 H609 0.929 . S
C619 C617 1.433 . S
C619 N622 1.384 . S
C620 H611 0.929 . S
C620 C612 1.378 . S
C620 C615 1.350 . S
C621 H608 0.929 . S
C621 C613 1.433 . S
C621 N623 1.384 . S
N622 C618 1.427 . S
N622 C619 1.384 . S
N623 C615 1.427 . S
N623 C621 1.384 . S
H624 C630 0.930 . S
H625 C634 0.930 . S
H626 C639 0.929 . S
H627 C637 0.929 . S
H628 C632 0.939 . S
H629 C638 0.939 . S
C630 H624 0.930 . S
C630 C631 1.367 . S
C630 C638 1.371 1_556 S
C631 C630 1.367 . S
C631 C639 1.433 . S
C632 H628 0.939 . S
C632 C634 1.371 1_556 S
C632 C636 1.346 1_556 S
C633 C636 1.463 1_556 S
C633 C638 1.346 1_556 S
C633 N641 1.427 . S
C634 H625 0.930 . S
C634 C632 1.371 1_554 S
C634 C635 1.367 . S
C635 C634 1.367 . S
C635 C637 1.433 . S
C636 C632 1.346 1_554 S
C636 C633 1.463 1_554 S
C636 N640 1.427 . S
C637 H627 0.929 . S
C637 C635 1.433 . S
C637 N640 1.384 . S
C638 H629 0.939 . S
C638 C630 1.371 1_554 S
C638 C633 1.346 1_554 S
C639 H626 0.929 . S
C639 C631 1.433 . S
C639 N641 1.384 . S
N640 C636 1.427 . S
N640 C637 1.384 . S
N641 C633 1.427 . S
N641 C639 1.384 . S
H642 C648 0.930 . S
H643 C652 0.930 . S
H644 C657 0.929 . S
H645 C655 0.929 . S
H646 C650 0.929 . S
H647 C656 0.929 . S
C648 H642 0.930 . S
C648 C649 1.367 . S
C648 C656 1.378 . S
C649 C648 1.367 . S
C649 C657 1.433 . S
C650 H646 0.929 . S
C650 C652 1.378 . S
C650 C654 1.350 . S
C651 C654 1.463 . S
C651 C656 1.350 . S
C651 N659 1.427 . S
C652 H643 0.930 . S
C652 C650 1.378 . S
C652 C653 1.367 . S
C653 C652 1.367 . S
C653 C655 1.433 . S
C654 C650 1.350 . S
C654 C651 1.463 . S
C654 N658 1.427 . S
C655 H645 0.929 . S
C655 C653 1.433 . S
C655 N658 1.384 . S
C656 H647 0.929 . S
C656 C648 1.378 . S
C656 C651 1.350 . S
C657 H644 0.929 . S
C657 C649 1.433 . S
C657 N659 1.384 . S
N658 C654 1.427 . S
N658 C655 1.384 . S
N659 C651 1.427 . S
N659 C657 1.384 . S
H660 C666 0.930 . S
H661 C670 0.930 . S
H662 C675 0.929 . S
H663 C673 0.929 . S
H664 C668 0.929 1_554 S
H665 C674 0.929 1_556 S
C666 H660 0.930 . S
C666 C667 1.367 . S
C666 C674 1.378 . S
C667 C666 1.367 . S
C667 C675 1.433 . S
C668 H664 0.929 1_556 S
C668 C670 1.378 . S
C668 C672 1.350 . S
C669 C672 1.463 1_554 S
C669 C674 1.350 . S
C669 N677 1.427 . S
C670 H661 0.930 . S
C670 C668 1.378 . S
C670 C671 1.367 . S
C671 C670 1.367 . S
C671 C673 1.433 . S
C672 C668 1.350 . S
C672 C669 1.463 1_556 S
C672 N676 1.427 . S
C673 H663 0.929 . S
C673 C671 1.433 . S
C673 N676 1.384 . S
C674 H665 0.929 1_554 S
C674 C666 1.378 . S
C674 C669 1.350 . S
C675 H662 0.929 . S
C675 C667 1.433 . S
C675 N677 1.384 . S
N676 C672 1.427 . S
N676 C673 1.384 . S
N677 C669 1.427 . S
N677 C675 1.384 . S
H678 C684 0.930 . S
H679 C688 0.930 . S
H680 C693 0.929 . S
H681 C691 0.929 . S
H682 C686 0.929 . S
H683 C692 0.929 . S
C684 H678 0.930 . S
C684 C685 1.367 . S
C684 C692 1.378 . S
C685 C684 1.367 . S
C685 C693 1.433 . S
C686 H682 0.929 . S
C686 C688 1.378 . S
C686 C690 1.350 . S
C687 C690 1.463 . S
C687 C692 1.350 . S
C687 N695 1.427 . S
C688 H679 0.930 . S
C688 C686 1.378 . S
C688 C689 1.367 . S
C689 C688 1.367 . S
C689 C691 1.433 . S
C690 C686 1.350 . S
C690 C687 1.463 . S
C690 N694 1.427 . S
C691 H681 0.929 . S
C691 C689 1.433 . S
C691 N694 1.384 . S
C692 H683 0.929 . S
C692 C684 1.378 . S
C692 C687 1.350 . S
C693 H680 0.929 . S
C693 C685 1.433 . S
C693 N695 1.384 . S
N694 C690 1.427 . S
N694 C691 1.384 . S
N695 C687 1.427 . S
N695 C693 1.384 . S
H696 C702 0.930 . S
H697 C706 0.930 . S
H698 C711 0.929 . S
H699 C709 0.929 . S
H700 C704 0.929 . S
H701 C710 0.929 . S
C702 H696 0.930 . S
C702 C703 1.367 . S
C702 C710 1.378 1_556 S
C703 C702 1.367 . S
C703 C711 1.433 . S
C704 H700 0.929 . S
C704 C706 1.378 1_556 S
C704 C708 1.350 1_556 S
C705 C708 1.463 1_556 S
C705 C710 1.350 1_556 S
C705 N713 1.427 . S
C706 H697 0.930 . S
C706 C704 1.378 1_554 S
C706 C707 1.367 . S
C707 C706 1.367 . S
C707 C709 1.433 . S
C708 C704 1.350 1_554 S
C708 C705 1.463 1_554 S
C708 N712 1.427 . S
C709 H699 0.929 . S
C709 C707 1.433 . S
C709 N712 1.384 . S
C710 H701 0.929 . S
C710 C702 1.378 1_554 S
C710 C705 1.350 1_554 S
C711 H698 0.929 . S
C711 C703 1.433 . S
C711 N713 1.384 . S
N712 C708 1.427 . S
N712 C709 1.384 . S
N713 C705 1.427 . S
N713 C711 1.384 . S
H714 C720 0.930 . S
H715 C724 0.930 . S
H716 C729 0.929 . S
H717 C727 0.929 . S
H718 C722 0.929 . S
H719 C728 0.929 . S
C720 H714 0.930 . S
C720 C721 1.367 . S
C720 C728 1.378 . S
C721 C720 1.367 . S
C721 C729 1.433 . S
C722 H718 0.929 . S
C722 C724 1.378 . S
C722 C726 1.350 . S
C723 C726 1.463 . S
C723 C728 1.350 . S
C723 N731 1.427 . S
C724 H715 0.930 . S
C724 C722 1.378 . S
C724 C725 1.367 . S
C725 C724 1.367 . S
C725 C727 1.433 . S
C726 C722 1.350 . S
C726 C723 1.463 . S
C726 N730 1.427 . S
C727 H717 0.929 . S
C727 C725 1.433 . S
C727 N730 1.384 . S
C728 H719 0.929 . S
C728 C720 1.378 . S
C728 C723 1.350 . S
C729 H716 0.929 . S
C729 C721 1.433 . S
C729 N731 1.384 . S
N730 C726 1.427 . S
N730 C727 1.384 . S
N731 C723 1.427 . S
N731 C729 1.384 . S
H732 C738 0.930 . S
H733 C742 0.930 . S
H734 C747 0.929 . S
H735 C745 0.929 . S
H736 C740 0.929 . S
H737 C746 0.929 . S
C738 H732 0.930 . S
C738 C739 1.367 . S
C738 C746 1.378 . S
C739 C738 1.367 . S
C739 C747 1.433 . S
C740 H736 0.929 . S
C740 C742 1.378 . S
C740 C744 1.350 . S
C741 C744 1.463 1_556 S
C741 C746 1.350 . S
C741 N749 1.427 . S
C742 H733 0.930 . S
C742 C740 1.378 . S
C742 C743 1.367 . S
C743 C742 1.367 . S
C743 C745 1.433 . S
C744 C740 1.350 . S
C744 C741 1.463 1_554 S
C744 N748 1.427 . S
C745 H735 0.929 . S
C745 C743 1.433 . S
C745 N748 1.384 . S
C746 H737 0.929 . S
C746 C738 1.378 . S
C746 C741 1.350 . S
C747 H734 0.929 . S
C747 C739 1.433 . S
C747 N749 1.384 . S
N748 C744 1.427 . S
N748 C745 1.384 . S
N749 C741 1.427 . S
N749 C747 1.384 . S
H750 C756 0.930 . S
H751 C760 0.930 . S
H752 C765 0.929 . S
H753 C763 0.929 . S
H754 C758 0.929 . S
H755 C764 0.929 . S
C756 H750 0.930 . S
C756 C757 1.367 . S
C756 C764 1.378 . S
C757 C756 1.367 . S
C757 C765 1.433 . S
C758 H754 0.929 . S
C758 C760 1.378 . S
C758 C762 1.350 . S
C759 C762 1.463 . S
C759 C764 1.350 . S
C759 N767 1.427 . S
C760 H751 0.930 . S
C760 C758 1.378 . S
C760 C761 1.367 . S
C761 C760 1.367 . S
C761 C763 1.433 . S
C762 C758 1.350 . S
C762 C759 1.463 . S
C762 N766 1.427 . S
C763 H753 0.929 . S
C763 C761 1.433 . S
C763 N766 1.384 . S
C764 H755 0.929 . S
C764 C756 1.378 . S
C764 C759 1.350 . S
C765 H752 0.929 . S
C765 C757 1.433 . S
C765 N767 1.384 . S
N766 C762 1.427 . S
N766 C763 1.384 . S
N767 C759 1.427 . S
N767 C765 1.384 . S
H768 C774 0.930 . S
H769 C778 0.930 . S
H770 C783 0.929 . S
H771 C781 0.929 . S
H772 C776 0.929 . S
H773 C782 0.929 . S
C774 H768 0.930 . S
C774 C775 1.367 . S
C774 C782 1.378 . S
C775 C774 1.367 . S
C775 C783 1.433 . S
C776 H772 0.929 . S
C776 C778 1.378 . S
C776 C780 1.350 . S
C777 C780 1.463 . S
C777 C782 1.350 . S
C777 N785 1.427 . S
C778 H769 0.930 . S
C778 C776 1.378 . S
C778 C779 1.367 . S
C779 C778 1.367 . S
C779 C781 1.433 . S
C780 C776 1.350 . S
C780 C777 1.463 . S
C780 N784 1.427 . S
C781 H771 0.929 . S
C781 C779 1.433 . S
C781 N784 1.384 . S
C782 H773 0.929 . S
C782 C774 1.378 . S
C782 C777 1.350 . S
C783 H770 0.929 . S
C783 C775 1.433 . S
C783 N785 1.384 . S
N784 C780 1.427 . S
N784 C781 1.384 . S
N785 C777 1.427 . S
N785 C783 1.384 . S
H786 C792 0.930 . S
H787 C796 0.930 . S
H788 C801 0.929 . S
H789 C799 0.929 . S
H790 C794 0.929 . S
H791 C800 0.929 . S
C792 H786 0.930 . S
C792 C793 1.367 . S
C792 C800 1.378 . S
C793 C792 1.367 . S
C793 C801 1.433 . S
C794 H790 0.929 . S
C794 C796 1.378 . S
C794 C798 1.350 . S
C795 C798 1.463 1_455 S
C795 C800 1.350 . S
C795 N803 1.427 . S
C796 H787 0.930 . S
C796 C794 1.378 . S
C796 C797 1.367 . S
C797 C796 1.367 . S
C797 C799 1.433 . S
C798 C794 1.350 . S
C798 C795 1.463 1_655 S
C798 N802 1.427 . S
C799 H789 0.929 . S
C799 C797 1.433 . S
C799 N802 1.384 . S
C800 H791 0.929 . S
C800 C792 1.378 . S
C800 C795 1.350 . S
C801 H788 0.929 . S
C801 C793 1.433 . S
C801 N803 1.384 . S
N802 C798 1.427 . S
N802 C799 1.384 . S
N803 C795 1.427 . S
N803 C801 1.384 . S
H804 C810 0.930 . S
H805 C814 0.930 . S
H806 C819 0.929 . S
H807 C817 0.929 . S
H808 C812 0.929 . S
H809 C818 0.929 . S
C810 H804 0.930 . S
C810 C811 1.367 . S
C810 C818 1.378 . S
C811 C810 1.367 . S
C811 C819 1.433 . S
C812 H808 0.929 . S
C812 C814 1.378 . S
C812 C816 1.350 . S
C813 C816 1.463 1_565 S
C813 C818 1.350 . S
C813 N821 1.427 . S
C814 H805 0.930 . S
C814 C812 1.378 . S
C814 C815 1.367 . S
C815 C814 1.367 . S
C815 C817 1.433 . S
C816 C812 1.350 . S
C816 C813 1.463 1_545 S
C816 N820 1.427 . S
C817 H807 0.929 . S
C817 C815 1.433 . S
C817 N820 1.384 . S
C818 H809 0.929 . S
C818 C810 1.378 . S
C818 C813 1.350 . S
C819 H806 0.929 . S
C819 C811 1.433 . S
C819 N821 1.384 . S
N820 C816 1.427 . S
N820 C817 1.384 . S
N821 C813 1.427 . S
N821 C819 1.384 . S
H822 C828 0.930 . S
H823 C832 0.930 . S
H824 C837 0.929 . S
H825 C835 0.929 . S
H826 C830 0.929 . S
H827 C836 0.929 . S
C828 H822 0.930 . S
C828 C829 1.367 . S
C828 C836 1.378 . S
C829 C828 1.367 . S
C829 C837 1.433 . S
C830 H826 0.929 . S
C830 C832 1.378 . S
C830 C834 1.350 . S
C831 C834 1.463 . S
C831 C836 1.350 . S
C831 N839 1.427 . S
C832 H823 0.930 . S
C832 C830 1.378 . S
C832 C833 1.367 . S
C833 C832 1.367 . S
C833 C835 1.433 . S
C834 C830 1.350 . S
C834 C831 1.463 . S
C834 N838 1.427 . S
C835 H825 0.929 . S
C835 C833 1.433 . S
C835 N838 1.384 . S
C836 H827 0.929 . S
C836 C828 1.378 . S
C836 C831 1.350 . S
C837 H824 0.929 . S
C837 C829 1.433 . S
C837 N839 1.384 . S
N838 C834 1.427 . S
N838 C835 1.384 . S
N839 C831 1.427 . S
N839 C837 1.384 . S
H840 C846 0.930 . S
H841 C850 0.930 . S
H842 C855 0.929 . S
H843 C853 0.929 . S
H844 C848 0.929 . S
H845 C854 0.929 . S
C846 H840 0.930 . S
C846 C847 1.367 . S
C846 C854 1.378 . S
C847 C846 1.367 . S
C847 C855 1.433 . S
C848 H844 0.929 . S
C848 C850 1.378 . S
C848 C852 1.350 . S
C849 C852 1.463 1_655 S
C849 C854 1.350 . S
C849 N857 1.427 . S
C850 H841 0.930 . S
C850 C848 1.378 . S
C850 C851 1.367 . S
C851 C850 1.367 . S
C851 C853 1.433 . S
C852 C848 1.350 . S
C852 C849 1.463 1_455 S
C852 N856 1.427 . S
C853 H843 0.929 . S
C853 C851 1.433 . S
C853 N856 1.384 . S
C854 H845 0.929 . S
C854 C846 1.378 . S
C854 C849 1.350 . S
C855 H842 0.929 . S
C855 C847 1.433 . S
C855 N857 1.384 . S
N856 C852 1.427 . S
N856 C853 1.384 . S
N857 C849 1.427 . S
N857 C855 1.384 . S
H858 C864 0.930 . S
H859 C868 0.930 . S
H860 C873 0.929 . S
H861 C871 0.929 . S
H862 C866 0.929 . S
H863 C872 0.929 . S
C864 H858 0.930 . S
C864 C865 1.367 . S
C864 C872 1.378 . S
C865 C864 1.367 . S
C865 C873 1.433 . S
C866 H862 0.929 . S
C866 C868 1.378 . S
C866 C870 1.350 . S
C867 C870 1.463 1_545 S
C867 C872 1.350 . S
C867 N875 1.427 . S
C868 H859 0.930 . S
C868 C866 1.378 . S
C868 C869 1.367 . S
C869 C868 1.367 . S
C869 C871 1.433 . S
C870 C866 1.350 . S
C870 C867 1.463 1_565 S
C870 N874 1.427 . S
C871 H861 0.929 . S
C871 C869 1.433 . S
C871 N874 1.384 . S
C872 H863 0.929 . S
C872 C864 1.378 . S
C872 C867 1.350 . S
C873 H860 0.929 . S
C873 C865 1.433 . S
C873 N875 1.384 . S
N874 C870 1.427 . S
N874 C871 1.384 . S
N875 C867 1.427 . S
N875 C873 1.384 . S
H876 C882 0.930 . S
H877 C886 0.930 . S
H878 C891 0.929 . S
H879 C889 0.929 . S
H880 C884 0.929 . S
H881 C890 0.929 . S
C882 H876 0.930 . S
C882 C883 1.367 . S
C882 C890 1.378 . S
C883 C882 1.367 . S
C883 C891 1.433 . S
C884 H880 0.929 . S
C884 C886 1.378 . S
C884 C888 1.350 . S
C885 C888 1.463 . S
C885 C890 1.350 . S
C885 N893 1.427 . S
C886 H877 0.930 . S
C886 C884 1.378 . S
C886 C887 1.367 . S
C887 C886 1.367 . S
C887 C889 1.433 . S
C888 C884 1.350 . S
C888 C885 1.463 . S
C888 N892 1.427 . S
C889 H879 0.929 . S
C889 C887 1.433 . S
C889 N892 1.384 . S
C890 H881 0.929 . S
C890 C882 1.378 . S
C890 C885 1.350 . S
C891 H878 0.929 . S
C891 C883 1.433 . S
C891 N893 1.384 . S
N892 C888 1.427 . S
N892 C889 1.384 . S
N893 C885 1.427 . S
N893 C891 1.384 . S
H894 C900 0.930 . S
H895 C904 0.930 . S
H896 C909 0.929 . S
H897 C907 0.929 . S
H898 C902 0.929 . S
H899 C908 0.929 . S
C900 H894 0.930 . S
C900 C901 1.367 . S
C900 C908 1.378 . S
C901 C900 1.367 . S
C901 C909 1.433 . S
C902 H898 0.929 . S
C902 C904 1.378 . S
C902 C906 1.350 . S
C903 C906 1.463 1_655 S
C903 C908 1.350 . S
C903 N911 1.427 . S
C904 H895 0.930 . S
C904 C902 1.378 . S
C904 C905 1.367 . S
C905 C904 1.367 . S
C905 C907 1.433 . S
C906 C902 1.350 . S
C906 C903 1.463 1_455 S
C906 N910 1.427 . S
C907 H897 0.929 . S
C907 C905 1.433 . S
C907 N910 1.384 . S
C908 H899 0.929 . S
C908 C900 1.378 . S
C908 C903 1.350 . S
C909 H896 0.929 . S
C909 C901 1.433 . S
C909 N911 1.384 . S
N910 C906 1.427 . S
N910 C907 1.384 . S
N911 C903 1.427 . S
N911 C909 1.384 . S
H912 C918 0.930 . S
H913 C922 0.930 . S
H914 C927 0.929 . S
H915 C925 0.929 . S
H916 C920 0.929 . S
H917 C926 0.929 . S
C918 H912 0.930 . S
C918 C919 1.367 . S
C918 C926 1.378 . S
C919 C918 1.367 . S
C919 C927 1.433 . S
C920 H916 0.929 . S
C920 C922 1.378 . S
C920 C924 1.350 . S
C921 C924 1.463 1_545 S
C921 C926 1.350 . S
C921 N929 1.427 . S
C922 H913 0.930 . S
C922 C920 1.378 . S
C922 C923 1.367 . S
C923 C922 1.367 . S
C923 C925 1.433 . S
C924 C920 1.350 . S
C924 C921 1.463 1_565 S
C924 N928 1.427 . S
C925 H915 0.929 . S
C925 C923 1.433 . S
C925 N928 1.384 . S
C926 H917 0.929 . S
C926 C918 1.378 . S
C926 C921 1.350 . S
C927 H914 0.929 . S
C927 C919 1.433 . S
C927 N929 1.384 . S
N928 C924 1.427 . S
N928 C925 1.384 . S
N929 C921 1.427 . S
N929 C927 1.384 . S
H930 C936 0.930 . S
H931 C940 0.930 . S
H932 C945 0.929 . S
H933 C943 0.929 . S
H934 C938 0.929 . S
H935 C944 0.929 . S
C936 H930 0.930 . S
C936 C937 1.367 . S
C936 C944 1.378 . S
C937 C936 1.367 . S
C937 C945 1.433 . S
C938 H934 0.929 . S
C938 C940 1.378 . S
C938 C942 1.350 . S
C939 C942 1.463 . S
C939 C944 1.350 . S
C939 N947 1.427 . S
C940 H931 0.930 . S
C940 C938 1.378 . S
C940 C941 1.367 . S
C941 C940 1.367 . S
C941 C943 1.433 . S
C942 C938 1.350 . S
C942 C939 1.463 . S
C942 N946 1.427 . S
C943 H933 0.929 . S
C943 C941 1.433 . S
C943 N946 1.384 . S
C944 H935 0.929 . S
C944 C936 1.378 . S
C944 C939 1.350 . S
C945 H932 0.929 . S
C945 C937 1.433 . S
C945 N947 1.384 . S
N946 C942 1.427 . S
N946 C943 1.384 . S
N947 C939 1.427 . S
N947 C945 1.384 . S
H948 C954 0.930 . S
H949 C958 0.930 . S
H950 C963 0.929 . S
H951 C961 0.929 . S
H952 C956 0.929 . S
H953 C962 0.929 . S
C954 H948 0.930 . S
C954 C955 1.367 . S
C954 C962 1.378 . S
C955 C954 1.367 . S
C955 C963 1.433 . S
C956 H952 0.929 . S
C956 C958 1.378 . S
C956 C960 1.350 . S
C957 C960 1.463 1_455 S
C957 C962 1.350 . S
C957 N965 1.427 . S
C958 H949 0.930 . S
C958 C956 1.378 . S
C958 C959 1.367 . S
C959 C958 1.367 . S
C959 C961 1.433 . S
C960 C956 1.350 . S
C960 C957 1.463 1_655 S
C960 N964 1.427 . S
C961 H951 0.929 . S
C961 C959 1.433 . S
C961 N964 1.384 . S
C962 H953 0.929 . S
C962 C954 1.378 . S
C962 C957 1.350 . S
C963 H950 0.929 . S
C963 C955 1.433 . S
C963 N965 1.384 . S
N964 C960 1.427 . S
N964 C961 1.384 . S
N965 C957 1.427 . S
N965 C963 1.384 . S
H966 C972 0.930 . S
H967 C976 0.930 . S
H968 C981 0.929 . S
H969 C979 0.929 . S
H970 C974 0.929 . S
H971 C980 0.929 . S
C972 H966 0.930 . S
C972 C973 1.367 . S
C972 C980 1.378 . S
C973 C972 1.367 . S
C973 C981 1.433 . S
C974 H970 0.929 . S
C974 C976 1.378 . S
C974 C978 1.350 . S
C975 C978 1.463 1_565 S
C975 C980 1.350 . S
C975 N983 1.427 . S
C976 H967 0.930 . S
C976 C974 1.378 . S
C976 C977 1.367 . S
C977 C976 1.367 . S
C977 C979 1.433 . S
C978 C974 1.350 . S
C978 C975 1.463 1_545 S
C978 N982 1.427 . S
C979 H969 0.929 . S
C979 C977 1.433 . S
C979 N982 1.384 . S
C980 H971 0.929 . S
C980 C972 1.378 . S
C980 C975 1.350 . S
C981 H968 0.929 . S
C981 C973 1.433 . S
C981 N983 1.384 . S
N982 C978 1.427 . S
N982 C979 1.384 . S
N983 C975 1.427 . S
N983 C981 1.384 . S
H984 C990 0.930 1_554 S
H985 C994 0.930 1_556 S
H986 C999 0.929 . S
H987 C997 0.929 . S
H988 C992 0.929 . S
H989 C998 0.929 . S
C990 H984 0.930 1_556 S
C990 C991 1.367 . S
C990 C998 1.378 1_556 S
C991 C990 1.367 . S
C991 C999 1.433 . S
C992 H988 0.929 . S
C992 C994 1.378 1_556 S
C992 C996 1.350 1_556 S
C993 C996 1.463 1_556 S
C993 C998 1.350 1_556 S
C993 N1001 1.427 . S
C994 H985 0.930 1_554 S
C994 C992 1.378 1_554 S
C994 C995 1.367 . S
C995 C994 1.367 . S
C995 C997 1.433 . S
C996 C992 1.350 1_554 S
C996 C993 1.463 1_554 S
C996 N1000 1.427 . S
C997 H987 0.929 . S
C997 C995 1.433 . S
C997 N1000 1.384 . S
C998 H989 0.929 . S
C998 C990 1.378 1_554 S
C998 C993 1.350 1_554 S
C999 H986 0.929 . S
C999 C991 1.433 . S
C999 N1001 1.384 . S
N1000 C996 1.427 . S
N1000 C997 1.384 . S
N1001 C993 1.427 . S
N1001 C999 1.384 . S
H1002 C1008 0.930 . S
H1003 C1012 0.930 . S
H1004 C1017 0.929 . S
H1005 C1015 0.929 . S
H1006 C1010 0.929 . S
H1007 C1016 0.929 . S
C1008 H1002 0.930 . S
C1008 C1009 1.367 . S
C1008 C1016 1.378 . S
C1009 C1008 1.367 . S
C1009 C1017 1.433 . S
C1010 H1006 0.929 . S
C1010 C1012 1.378 . S
C1010 C1014 1.350 . S
C1011 C1014 1.463 . S
C1011 C1016 1.350 . S
C1011 N1019 1.427 . S
C1012 H1003 0.930 . S
C1012 C1010 1.378 . S
C1012 C1013 1.367 . S
C1013 C1012 1.367 . S
C1013 C1015 1.433 . S
C1014 C1010 1.350 . S
C1014 C1011 1.463 . S
C1014 N1018 1.427 . S
C1015 H1005 0.929 . S
C1015 C1013 1.433 . S
C1015 N1018 1.384 . S
C1016 H1007 0.929 . S
C1016 C1008 1.378 . S
C1016 C1011 1.350 . S
C1017 H1004 0.929 . S
C1017 C1009 1.433 . S
C1017 N1019 1.384 . S
N1018 C1014 1.427 . S
N1018 C1015 1.384 . S
N1019 C1011 1.427 . S
N1019 C1017 1.384 . S
H1020 C1026 0.930 . S
H1021 C1030 0.930 . S
H1022 C1035 0.929 . S
H1023 C1033 0.929 . S
H1024 C1028 0.929 . S
H1025 C1034 0.929 . S
C1026 H1020 0.930 . S
C1026 C1027 1.367 . S
C1026 C1034 1.378 . S
C1027 C1026 1.367 . S
C1027 C1035 1.433 . S
C1028 H1024 0.929 . S
C1028 C1030 1.378 . S
C1028 C1032 1.350 . S
C1029 C1032 1.463 1_556 S
C1029 C1034 1.350 . S
C1029 N1037 1.427 . S
C1030 H1021 0.930 . S
C1030 C1028 1.378 . S
C1030 C1031 1.367 . S
C1031 C1030 1.367 . S
C1031 C1033 1.433 . S
C1032 C1028 1.350 . S
C1032 C1029 1.463 1_554 S
C1032 N1036 1.427 . S
C1033 H1023 0.929 . S
C1033 C1031 1.433 . S
C1033 N1036 1.384 . S
C1034 H1025 0.929 . S
C1034 C1026 1.378 . S
C1034 C1029 1.350 . S
C1035 H1022 0.929 . S
C1035 C1027 1.433 . S
C1035 N1037 1.384 . S
N1036 C1032 1.427 . S
N1036 C1033 1.384 . S
N1037 C1029 1.427 . S
N1037 C1035 1.384 . S
H1038 C1044 0.930 . S
H1039 C1048 0.930 . S
H1040 C1053 0.929 . S
H1041 C1051 0.929 . S
H1042 C1046 0.929 . S
H1043 C1052 0.929 . S
C1044 H1038 0.930 . S
C1044 C1045 1.367 . S
C1044 C1052 1.378 . S
C1045 C1044 1.367 . S
C1045 C1053 1.433 . S
C1046 H1042 0.929 . S
C1046 C1048 1.378 . S
C1046 C1050 1.350 . S
C1047 C1050 1.463 . S
C1047 C1052 1.350 . S
C1047 N1055 1.427 . S
C1048 H1039 0.930 . S
C1048 C1046 1.378 . S
C1048 C1049 1.367 . S
C1049 C1048 1.367 . S
C1049 C1051 1.433 . S
C1050 C1046 1.350 . S
C1050 C1047 1.463 . S
C1050 N1054 1.427 . S
C1051 H1041 0.929 . S
C1051 C1049 1.433 . S
C1051 N1054 1.384 . S
C1052 H1043 0.929 . S
C1052 C1044 1.378 . S
C1052 C1047 1.350 . S
C1053 H1040 0.929 . S
C1053 C1045 1.433 . S
C1053 N1055 1.384 . S
N1054 C1050 1.427 . S
N1054 C1051 1.384 . S
N1055 C1047 1.427 . S
N1055 C1053 1.384 . S
H1056 C1062 0.930 . S
H1057 C1066 0.930 . S
H1058 C1071 0.929 . S
H1059 C1069 0.929 . S
H1060 C1064 0.929 . S
H1061 C1070 0.929 . S
C1062 H1056 0.930 . S
C1062 C1063 1.367 . S
C1062 C1070 1.378 . S
C1063 C1062 1.367 . S
C1063 C1071 1.433 . S
C1064 H1060 0.929 . S
C1064 C1066 1.378 . S
C1064 C1068 1.350 . S
C1065 C1068 1.463 1_556 S
C1065 C1070 1.350 . S
C1065 N1073 1.420 1_556 S
C1066 H1057 0.930 . S
C1066 C1064 1.378 . S
C1066 C1067 1.367 . S
C1067 C1066 1.367 . S
C1067 C1069 1.433 . S
C1068 C1064 1.350 . S
C1068 C1065 1.463 1_554 S
C1068 N1072 1.420 1_554 S
C1069 H1059 0.929 . S
C1069 C1067 1.433 . S
C1069 N1072 1.371 1_554 S
C1070 H1061 0.929 . S
C1070 C1062 1.378 . S
C1070 C1065 1.350 . S
C1071 H1058 0.929 . S
C1071 C1063 1.433 . S
C1071 N1073 1.371 1_556 S
N1072 C1068 1.420 1_556 S
N1072 C1069 1.371 1_556 S
N1073 C1065 1.420 1_554 S
N1073 C1071 1.371 1_554 S
H1074 C1080 0.930 . S
H1075 C1084 0.930 . S
H1076 C1089 0.929 . S
H1077 C1087 0.929 . S
H1078 C1082 0.929 . S
H1079 C1088 0.929 . S
C1080 H1074 0.930 . S
C1080 C1081 1.367 . S
C1080 C1088 1.378 . S
C1081 C1080 1.367 . S
C1081 C1089 1.433 . S
C1082 H1078 0.929 . S
C1082 C1084 1.378 . S
C1082 C1086 1.350 . S
C1083 C1086 1.463 . S
C1083 C1088 1.350 . S
C1083 N1091 1.427 . S
C1084 H1075 0.930 . S
C1084 C1082 1.378 . S
C1084 C1085 1.367 . S
C1085 C1084 1.367 . S
C1085 C1087 1.433 . S
C1086 C1082 1.350 . S
C1086 C1083 1.463 . S
C1086 N1090 1.427 . S
C1087 H1077 0.929 . S
C1087 C1085 1.433 . S
C1087 N1090 1.384 . S
C1088 H1079 0.929 . S
C1088 C1080 1.378 . S
C1088 C1083 1.350 . S
C1089 H1076 0.929 . S
C1089 C1081 1.433 . S
C1089 N1091 1.384 . S
N1090 C1086 1.427 . S
N1090 C1087 1.384 . S
N1091 C1083 1.427 . S
N1091 C1089 1.384 . S
H1092 C1098 0.930 1_556 S
H1093 C1102 0.930 1_554 S
H1094 C1107 0.929 . S
H1095 C1105 0.929 . S
H1096 C1100 0.929 . S
H1097 C1106 0.929 . S
C1098 H1092 0.930 1_554 S
C1098 C1099 1.367 . S
C1098 C1106 1.378 1_554 S
C1099 C1098 1.367 . S
C1099 C1107 1.433 . S
C1100 H1096 0.929 . S
C1100 C1102 1.378 1_554 S
C1100 C1104 1.350 1_554 S
C1101 C1104 1.463 1_554 S
C1101 C1106 1.350 1_554 S
C1101 N1109 1.427 . S
C1102 H1093 0.930 1_556 S
C1102 C1100 1.378 1_556 S
C1102 C1103 1.367 . S
C1103 C1102 1.367 . S
C1103 C1105 1.433 . S
C1104 C1100 1.350 1_556 S
C1104 C1101 1.463 1_556 S
C1104 N1108 1.427 . S
C1105 H1095 0.929 . S
C1105 C1103 1.433 . S
C1105 N1108 1.384 . S
C1106 H1097 0.929 . S
C1106 C1098 1.378 1_556 S
C1106 C1101 1.350 1_556 S
C1107 H1094 0.929 . S
C1107 C1099 1.433 . S
C1107 N1109 1.384 . S
N1108 C1104 1.427 . S
N1108 C1105 1.384 . S
N1109 C1101 1.427 . S
N1109 C1107 1.384 . S
H1110 C1116 0.930 . S
H1111 C1120 0.930 . S
H1112 C1125 0.929 . S
H1113 C1123 0.929 . S
H1114 C1118 0.929 . S
H1115 C1124 0.929 . S
C1116 H1110 0.930 . S
C1116 C1117 1.367 . S
C1116 C1124 1.378 . S
C1117 C1116 1.367 . S
C1117 C1125 1.433 . S
C1118 H1114 0.929 . S
C1118 C1120 1.378 . S
C1118 C1122 1.350 . S
C1119 C1122 1.463 . S
C1119 C1124 1.350 . S
C1119 N1127 1.427 . S
C1120 H1111 0.930 . S
C1120 C1118 1.378 . S
C1120 C1121 1.367 . S
C1121 C1120 1.367 . S
C1121 C1123 1.433 . S
C1122 C1118 1.350 . S
C1122 C1119 1.463 . S
C1122 N1126 1.427 . S
C1123 H1113 0.929 . S
C1123 C1121 1.433 . S
C1123 N1126 1.384 . S
C1124 H1115 0.929 . S
C1124 C1116 1.378 . S
C1124 C1119 1.350 . S
C1125 H1112 0.929 . S
C1125 C1117 1.433 . S
C1125 N1127 1.384 . S
N1126 C1122 1.427 . S
N1126 C1123 1.384 . S
N1127 C1119 1.427 . S
N1127 C1125 1.384 . S
H1128 C1134 0.928 1_556 S
H1129 C1138 0.928 1_554 S
H1130 C1143 0.929 . S
H1131 C1141 0.929 . S
H1132 C1136 0.929 . S
H1133 C1142 0.929 . S
C1134 H1128 0.928 1_554 S
C1134 C1135 1.367 . S
C1134 C1142 1.378 1_554 S
C1135 C1134 1.367 . S
C1135 C1143 1.433 . S
C1136 H1132 0.929 . S
C1136 C1138 1.378 1_554 S
C1136 C1140 1.350 1_554 S
C1137 C1140 1.463 1_554 S
C1137 C1142 1.350 1_554 S
C1137 N1145 1.427 . S
C1138 H1129 0.928 1_556 S
C1138 C1136 1.378 1_556 S
C1138 C1139 1.367 . S
C1139 C1138 1.367 . S
C1139 C1141 1.433 . S
C1140 C1136 1.350 1_556 S
C1140 C1137 1.463 1_556 S
C1140 N1144 1.427 . S
C1141 H1131 0.929 . S
C1141 C1139 1.433 . S
C1141 N1144 1.384 . S
C1142 H1133 0.929 . S
C1142 C1134 1.378 1_556 S
C1142 C1137 1.350 1_556 S
C1143 H1130 0.929 . S
C1143 C1135 1.433 . S
C1143 N1145 1.384 . S
N1144 C1140 1.427 . S
N1144 C1141 1.384 . S
N1145 C1137 1.427 . S
N1145 C1143 1.384 . S
H1146 C1152 0.930 . S
H1147 C1156 0.930 . S
H1148 C1161 0.929 . S
H1149 C1159 0.929 . S
H1150 C1154 0.929 . S
H1151 C1160 0.929 . S
C1152 H1146 0.930 . S
C1152 C1153 1.367 . S
C1152 C1160 1.378 . S
C1153 C1152 1.367 . S
C1153 C1161 1.433 . S
C1154 H1150 0.929 . S
C1154 C1156 1.378 . S
C1154 C1158 1.350 . S
C1155 C1158 1.463 . S
C1155 C1160 1.350 . S
C1155 N1163 1.427 . S
C1156 H1147 0.930 . S
C1156 C1154 1.378 . S
C1156 C1157 1.367 . S
C1157 C1156 1.367 . S
C1157 C1159 1.433 . S
C1158 C1154 1.350 . S
C1158 C1155 1.463 . S
C1158 N1162 1.427 . S
C1159 H1149 0.929 . S
C1159 C1157 1.433 . S
C1159 N1162 1.384 . S
C1160 H1151 0.929 . S
C1160 C1152 1.378 . S
C1160 C1155 1.350 . S
C1161 H1148 0.929 . S
C1161 C1153 1.433 . S
C1161 N1163 1.384 . S
N1162 C1158 1.427 . S
N1162 C1159 1.384 . S
N1163 C1155 1.427 . S
N1163 C1161 1.384 . S
H1164 C1170 0.930 . S
H1165 C1174 0.930 . S
H1166 C1179 0.929 . S
H1167 C1177 0.929 . S
H1168 C1172 0.929 . S
H1169 C1178 0.929 . S
C1170 H1164 0.930 . S
C1170 C1171 1.367 . S
C1170 C1178 1.378 1_556 S
C1171 C1170 1.367 . S
C1171 C1179 1.433 . S
C1172 H1168 0.929 . S
C1172 C1174 1.378 1_556 S
C1172 C1176 1.350 1_556 S
C1173 C1176 1.463 1_556 S
C1173 C1178 1.350 1_556 S
C1173 N1181 1.427 . S
C1174 H1165 0.930 . S
C1174 C1172 1.378 1_554 S
C1174 C1175 1.367 . S
C1175 C1174 1.367 . S
C1175 C1177 1.433 . S
C1176 C1172 1.350 1_554 S
C1176 C1173 1.463 1_554 S
C1176 N1180 1.427 . S
C1177 H1167 0.929 . S
C1177 C1175 1.433 . S
C1177 N1180 1.384 . S
C1178 H1169 0.929 . S
C1178 C1170 1.378 1_554 S
C1178 C1173 1.350 1_554 S
C1179 H1166 0.929 . S
C1179 C1171 1.433 . S
C1179 N1181 1.384 . S
N1180 C1176 1.427 . S
N1180 C1177 1.384 . S
N1181 C1173 1.427 . S
N1181 C1179 1.384 . S
H1182 C1188 0.930 . S
H1183 C1192 0.930 . S
H1184 C1197 0.929 . S
H1185 C1195 0.929 . S
H1186 C1190 0.929 . S
H1187 C1196 0.929 . S
C1188 H1182 0.930 . S
C1188 C1189 1.367 . S
C1188 C1196 1.378 . S
C1189 C1188 1.367 . S
C1189 C1197 1.433 . S
C1190 H1186 0.929 . S
C1190 C1192 1.378 . S
C1190 C1194 1.350 . S
C1191 C1194 1.463 . S
C1191 C1196 1.350 . S
C1191 N1199 1.427 . S
C1192 H1183 0.930 . S
C1192 C1190 1.378 . S
C1192 C1193 1.367 . S
C1193 C1192 1.367 . S
C1193 C1195 1.433 . S
C1194 C1190 1.350 . S
C1194 C1191 1.463 . S
C1194 N1198 1.427 . S
C1195 H1185 0.929 . S
C1195 C1193 1.433 . S
C1195 N1198 1.384 . S
C1196 H1187 0.929 . S
C1196 C1188 1.378 . S
C1196 C1191 1.350 . S
C1197 H1184 0.929 . S
C1197 C1189 1.433 . S
C1197 N1199 1.384 . S
N1198 C1194 1.427 . S
N1198 C1195 1.384 . S
N1199 C1191 1.427 . S
N1199 C1197 1.384 . S
C343 C7 1.497 . S
C347 C217 1.496 . S
C361 C21 1.489 . S
C365 C231 1.503 . S
C379 C245 1.502 . S
C383 C35 1.491 . S
C397 C175 1.490 . S
C401 C49 1.503 . S
C415 C189 1.494 . S
C419 C63 1.498 . S
C433 C203 1.499 . S
C437 C77 1.494 . S
C451 C301 1.491 . S
C455 C91 1.503 . S
C469 C105 1.497 . S
C473 C315 1.496 . S
C487 C329 1.496 . S
C491 C119 1.496 . S
C505 C133 1.490 . S
C509 C259 1.504 . S
C523 C273 1.503 . S
C527 C147 1.490 . S
C541 C161 1.503 . S
C545 C287 1.490 . S
C559 C146 1.463 . S
C563 C6 1.458 . S
C577 C160 1.463 . S
C581 C20 1.458 . S
C595 C34 1.467 . S
C599 C90 1.463 . S
C613 C48 1.459 . S
C617 C104 1.456 . S
C631 C118 1.459 . S
C635 C62 1.455 . S
C649 C76 1.467 . S
C653 C132 1.467 . S
C667 C314 1.456 . S
C671 C174 1.461 . S
C685 C188 1.460 . S
C689 C328 1.456 . S
C703 C202 1.456 . S
C707 C258 1.456 . S
C721 C272 1.457 . S
C725 C216 1.455 . S
C739 C230 1.463 . S
C743 C286 1.467 . S
C757 C244 1.459 . S
C761 C300 1.456 . S
C775 C9 1.452 . S
C779 C261 1.449 . S
C793 C275 1.446 . S
C797 C23 1.454 . S
C811 C37 1.447 . S
C815 C289 1.453 . S
C829 C51 1.449 . S
C833 C303 1.451 . S
C847 C317 1.456 . S
C851 C65 1.444 . S
C865 C79 1.455 . S
C869 C331 1.446 . S
C883 C93 1.451 . S
C887 C177 1.450 . S
C901 C107 1.455 . S
C905 C191 1.445 . S
C919 C205 1.445 . S
C923 C121 1.455 . S
C937 C219 1.453 . S
C941 C135 1.450 . S
C955 C149 1.456 . S
C959 C233 1.445 . S
C973 C247 1.455 . S
C977 C163 1.445 . S
C991 C92 1.536 . S
C995 C8 1.536 . S
C1009 C22 1.540 . S
C1013 C106 1.539 . S
C1027 C120 1.538 . S
C1031 C36 1.537 . S
C1045 C134 1.536 . S
C1049 C50 1.537 . S
C1063 C148 1.539 . S
C1067 C64 1.540 . S
C1081 C78 1.536 . S
C1085 C162 1.538 . S
C1099 C260 1.536 . S
C1103 C176 1.536 . S
C1117 C190 1.535 . S
C1121 C274 1.535 . S
C1135 C288 1.535 . S
C1139 C204 1.536 . S
C1153 C302 1.538 . S
C1157 C218 1.540 . S
C1171 C232 1.536 . S
C1175 C316 1.535 . S
C1189 C246 1.540 . S
C1193 C330 1.538 . S
