# Generated by pormake.
# Topology whc, (6)-cn, num edge types: 1
# Building blocks:
#     Node 0, Type 0, BuildingBlock: IZENUY_clean_sbu_0, # of connection points: 6
#     Node 1, Type 0, BuildingBlock: IZENUY_clean_sbu_0, # of connection points: 6
#     Node 2, Type 0, BuildingBlock: IZENUY_clean_sbu_0, # of connection points: 6
#     Node 3, Type 0, BuildingBlock: IZENUY_clean_sbu_0, # of connection points: 6
#     Node 4, Type 0, BuildingBlock: IZENUY_clean_sbu_0, # of connection points: 6
#     Node 5, Type 0, BuildingBlock: IZENUY_clean_sbu_0, # of connection points: 6
#     Node 6, Type 0, BuildingBlock: IZENUY_clean_sbu_0, # of connection points: 6
#     Node 7, Type 0, BuildingBlock: IZENUY_clean_sbu_0, # of connection points: 6
#     Edge 8, Type (0, 0), BuildingBlock: EZIPEK_clean_linker_0, # of connection points: 2
#     Edge 9, Type (0, 0), BuildingBlock: EZIPEK_clean_linker_0, # of connection points: 2
#     Edge 10, Type (0, 0), BuildingBlock: EZIPEK_clean_linker_0, # of connection points: 2
#     Edge 11, Type (0, 0), BuildingBlock: EZIPEK_clean_linker_0, # of connection points: 2
#     Edge 12, Type (0, 0), BuildingBlock: EZIPEK_clean_linker_0, # of connection points: 2
#     Edge 13, Type (0, 0), BuildingBlock: EZIPEK_clean_linker_0, # of connection points: 2
#     Edge 14, Type (0, 0), BuildingBlock: EZIPEK_clean_linker_0, # of connection points: 2
#     Edge 15, Type (0, 0), BuildingBlock: EZIPEK_clean_linker_0, # of connection points: 2
#     Edge 16, Type (0, 0), BuildingBlock: EZIPEK_clean_linker_0, # of connection points: 2
#     Edge 17, Type (0, 0), BuildingBlock: EZIPEK_clean_linker_0, # of connection points: 2
#     Edge 18, Type (0, 0), BuildingBlock: EZIPEK_clean_linker_0, # of connection points: 2
#     Edge 19, Type (0, 0), BuildingBlock: EZIPEK_clean_linker_0, # of connection points: 2
#     Edge 20, Type (0, 0), BuildingBlock: EZIPEK_clean_linker_0, # of connection points: 2
#     Edge 21, Type (0, 0), BuildingBlock: EZIPEK_clean_linker_0, # of connection points: 2
#     Edge 22, Type (0, 0), BuildingBlock: EZIPEK_clean_linker_0, # of connection points: 2
#     Edge 23, Type (0, 0), BuildingBlock: EZIPEK_clean_linker_0, # of connection points: 2
#     Edge 24, Type (0, 0), BuildingBlock: EZIPEK_clean_linker_0, # of connection points: 2
#     Edge 25, Type (0, 0), BuildingBlock: EZIPEK_clean_linker_0, # of connection points: 2
#     Edge 26, Type (0, 0), BuildingBlock: EZIPEK_clean_linker_0, # of connection points: 2
#     Edge 27, Type (0, 0), BuildingBlock: EZIPEK_clean_linker_0, # of connection points: 2
#     Edge 28, Type (0, 0), BuildingBlock: EZIPEK_clean_linker_0, # of connection points: 2
#     Edge 29, Type (0, 0), BuildingBlock: EZIPEK_clean_linker_0, # of connection points: 2
#     Edge 30, Type (0, 0), BuildingBlock: EZIPEK_clean_linker_0, # of connection points: 2
#     Edge 31, Type (0, 0), BuildingBlock: EZIPEK_clean_linker_0, # of connection points: 2
# Relax obj value: 0.364
# Max RMSD: 0.283
# Mean RMSD: 0.283
data_MOF--net-whc--node1-IZENUY_clean_sbu_0--edge1-EZIPEK_clean_linker_0
_symmetry_space_group_name_H-M    P1
_symmetry_Int_Tables_number       1
_symmetry_cell_setting            triclinic
loop_
_symmetry_equiv_pos_as_xyz
'x, y, z'
_cell_length_a     26.217925
_cell_length_b     26.056665
_cell_length_c     21.698275
_cell_angle_alpha  89.777345
_cell_angle_beta   89.746491
_cell_angle_gamma 89.760756
loop_
_atom_site_label
_atom_site_type_symbol
_atom_site_fract_x
_atom_site_fract_y
_atom_site_fract_z
_atom_type_partial_charge
Fe0 Fe 0.52969 0.19879 0.10192 0.0
Fe1 Fe 0.41604 0.19217 0.07316 0.0
O2 O 0.46683 0.22368 0.11041 0.0
Fe3 Fe 0.45629 0.28036 0.15372 0.0
O4 O 0.50319 0.3165 0.10773 0.0
O5 O 0.56333 0.25911 0.11215 0.0
O6 O 0.5276 0.21159 0.01843 0.0
C7 C 0.4929 0.19293 0.98447 0.0
C8 C 0.5201 0.21715 0.22599 0.0
O9 O 0.45492 0.17069 0.0082 0.0
C10 C 0.36679 0.23197 0.18196 0.0
O11 O 0.51058 0.13281 0.09082 0.0
O12 O 0.42935 0.13099 0.11552 0.0
O13 O 0.50314 0.26163 0.21271 0.0
O14 O 0.53199 0.18523 0.18435 0.0
C15 C 0.39578 0.29614 0.04746 0.0
O16 O 0.36654 0.20988 0.1301 0.0
O17 O 0.40764 0.25091 0.20228 0.0
C18 C 0.47299 0.10883 0.11225 0.0
O19 O 0.40201 0.25059 0.02767 0.0
O20 O 0.40708 0.30652 0.10251 0.0
C21 C 0.54903 0.3038 0.09889 0.0
Fe22 Fe 0.18855 0.60261 0.92099 0.0
Fe23 Fe 0.19314 0.48614 0.90358 0.0
O24 O 0.22029 0.54783 0.88887 0.0
Fe25 Fe 0.27812 0.55301 0.84591 0.0
O26 O 0.30806 0.59342 0.90234 0.0
O27 O 0.24626 0.62027 0.96511 0.0
O28 O 0.1653 0.56826 0.98815 0.0
C29 C 0.18599 0.53222 0.01703 0.0
C30 C 0.23481 0.64939 0.81613 0.0
O31 O 0.20463 0.49443 0.98705 0.0
C32 C 0.21101 0.48861 0.77707 0.0
O33 O 0.12816 0.58813 0.87938 0.0
O34 O 0.12895 0.50855 0.91127 0.0
O35 O 0.25819 0.60902 0.79989 0.0
O36 O 0.20573 0.64923 0.86212 0.0
C37 C 0.29513 0.45693 0.90219 0.0
O38 O 0.18128 0.47745 0.82161 0.0
O39 O 0.2532 0.51203 0.78433 0.0
C40 C 0.1058 0.54504 0.88621 0.0
O41 O 0.24917 0.44635 0.89854 0.0
O42 O 0.31058 0.50058 0.88665 0.0
C43 C 0.29343 0.61656 0.95033 0.0
Fe44 Fe 0.59807 0.81124 0.09212 0.0
Fe45 Fe 0.54053 0.72406 0.16224 0.0
O46 O 0.5409 0.78221 0.11959 0.0
Fe47 Fe 0.48123 0.81268 0.10296 0.0
O48 O 0.48925 0.79728 0.0217 0.0
O49 O 0.56807 0.82872 0.01759 0.0
O50 O 0.61975 0.75361 0.05415 0.0
C51 C 0.6156 0.70702 0.06948 0.0
C52 C 0.54154 0.89875 0.11433 0.0
O53 O 0.58693 0.69225 0.11276 0.0
C54 C 0.4805 0.79724 0.2276 0.0
O55 O 0.63865 0.79328 0.15886 0.0
O56 O 0.58977 0.74332 0.21559 0.0
O57 O 0.50612 0.87572 0.08831 0.0
O58 O 0.58187 0.87414 0.12834 0.0
C59 C 0.44971 0.71192 0.10075 0.0
O60 O 0.49397 0.75062 0.21824 0.0
O61 O 0.4745 0.82897 0.18369 0.0
C62 C 0.63294 0.76183 0.20337 0.0
O63 O 0.49317 0.69477 0.1124 0.0
O64 O 0.43954 0.7575 0.11325 0.0
C65 C 0.52896 0.80976 0.99111 0.0
Fe66 Fe 0.82889 0.52284 0.9213 0.0
Fe67 Fe 0.73691 0.46922 0.86922 0.0
O68 O 0.79536 0.46468 0.90771 0.0
Fe69 Fe 0.82151 0.40578 0.93489 0.0
O70 O 0.83907 0.43646 0.00975 0.0
O71 O 0.8115 0.51755 1.00272 0.0
O72 O 0.77742 0.56827 0.90689 0.0
C73 C 0.73344 0.56228 0.92662 0.0
C74 C 0.91011 0.45922 0.9089 0.0
O75 O 0.71367 0.51937 0.91993 0.0
C76 C 0.77225 0.3749 0.82289 0.0
O77 O 0.84561 0.52574 0.83983 0.0
O78 O 0.76553 0.51214 0.80915 0.0
O79 O 0.88452 0.4193 0.89673 0.0
O80 O 0.88897 0.49379 0.9389 0.0
C81 C 0.71662 0.3963 0.96475 0.0
O82 O 0.75043 0.41778 0.81738 0.0
O83 O 0.80306 0.36654 0.86705 0.0
C84 C 0.81263 0.52183 0.79713 0.0
O85 O 0.70337 0.42705 0.92239 0.0
O86 O 0.76306 0.38566 0.9741 0.0
C87 C 0.82095 0.47744 0.03483 0.0
Fe88 Fe 0.54158 0.28315 0.66239 0.0
Fe89 Fe 0.5987 0.19589 0.59381 0.0
O90 O 0.54103 0.22609 0.61872 0.0
Fe91 Fe 0.48121 0.1978 0.60166 0.0
O92 O 0.44348 0.25683 0.60442 0.0
O93 O 0.5009 0.31679 0.60824 0.0
O94 O 0.59505 0.31172 0.61995 0.0
C95 C 0.61999 0.29858 0.57268 0.0
C96 C 0.47216 0.21954 0.7246 0.0
O97 O 0.62069 0.2528 0.55406 0.0
C98 C 0.54089 0.11 0.61832 0.0
O99 O 0.58203 0.25381 0.72031 0.0
O100 O 0.63769 0.21517 0.66166 0.0
O101 O 0.47069 0.18507 0.68364 0.0
O102 O 0.48769 0.26412 0.71077 0.0
C103 C 0.53176 0.1953 0.49084 0.0
O104 O 0.5816 0.13398 0.63139 0.0
O105 O 0.5045 0.13316 0.59347 0.0
C106 C 0.62722 0.24021 0.7104 0.0
O107 O 0.57044 0.1769 0.51908 0.0
O108 O 0.49176 0.20894 0.5199 0.0
C109 C 0.45765 0.30169 0.59216 0.0
Fe110 Fe 0.20032 0.40431 0.41891 0.0
Fe111 Fe 0.28277 0.46532 0.34981 0.0
O112 O 0.22331 0.46295 0.38907 0.0
Fe113 Fe 0.1889 0.5202 0.40004 0.0
O114 O 0.16459 0.50301 0.47782 0.0
O115 O 0.20072 0.42886 0.49626 0.0
O116 O 0.26506 0.38002 0.43707 0.0
C117 C 0.30567 0.40515 0.44781 0.0
C118 C 0.10804 0.45944 0.38287 0.0
O119 O 0.31589 0.44615 0.41906 0.0
C120 C 0.21993 0.51953 0.27569 0.0
O121 O 0.20162 0.37379 0.34249 0.0
O122 O 0.28002 0.3991 0.32266 0.0
O123 O 0.13357 0.49616 0.36263 0.0
O124 O 0.13052 0.42163 0.40949 0.0
C125 C 0.28426 0.55826 0.41466 0.0
O126 O 0.2511 0.48301 0.28023 0.0
O127 O 0.20637 0.54544 0.32283 0.0
C128 C 0.2434 0.36889 0.31289 0.0
O129 O 0.29773 0.53305 0.36778 0.0
O130 O 0.2422 0.5484 0.43944 0.0
C131 C 0.18047 0.46943 0.51571 0.0
Fe132 Fe 0.39995 0.81905 0.58283 0.0
Fe133 Fe 0.51575 0.82229 0.60519 0.0
O134 O 0.4562 0.79119 0.61343 0.0
Fe135 Fe 0.45277 0.73094 0.6514 0.0
O136 O 0.43233 0.69998 0.58093 0.0
O137 O 0.37108 0.75639 0.5636 0.0
O138 O 0.42604 0.81663 0.50657 0.0
C139 C 0.46824 0.83324 0.488 0.0
C140 C 0.35975 0.779 0.68788 0.0
O141 O 0.50227 0.84673 0.52625 0.0
C142 C 0.51034 0.78848 0.72908 0.0
O143 O 0.42102 0.88763 0.59277 0.0
O144 O 0.49342 0.87962 0.64144 0.0
O145 O 0.38659 0.7394 0.6777 0.0
O146 O 0.36825 0.8204 0.65852 0.0
C147 C 0.54876 0.72392 0.59138 0.0
O148 O 0.5371 0.80332 0.68326 0.0
O149 O 0.47199 0.76009 0.72245 0.0
C150 C 0.45868 0.9076 0.62101 0.0
O151 O 0.54469 0.76767 0.56797 0.0
O152 O 0.5188 0.70986 0.63394 0.0
C153 C 0.39272 0.71356 0.55201 0.0
Fe154 Fe 0.82175 0.61022 0.43889 0.0
Fe155 Fe 0.734 0.55154 0.38024 0.0
O156 O 0.7951 0.55168 0.41314 0.0
Fe157 Fe 0.82775 0.49297 0.42154 0.0
O158 O 0.85582 0.50977 0.49772 0.0
O159 O 0.82495 0.58646 0.51671 0.0
O160 O 0.75862 0.63845 0.46156 0.0
C161 C 0.71683 0.61581 0.47515 0.0
C162 C 0.90908 0.55141 0.39559 0.0
O163 O 0.70718 0.5724 0.45265 0.0
C164 C 0.78778 0.49257 0.29925 0.0
O165 O 0.81804 0.63956 0.36158 0.0
O166 O 0.7377 0.61736 0.35124 0.0
O167 O 0.88094 0.51586 0.3785 0.0
O168 O 0.89001 0.59003 0.42394 0.0
C169 C 0.73288 0.45859 0.44655 0.0
O170 O 0.75999 0.5316 0.30729 0.0
O171 O 0.80486 0.46757 0.34578 0.0
C172 C 0.77499 0.64523 0.3357 0.0
O173 O 0.71714 0.48501 0.40156 0.0
O174 O 0.77702 0.46508 0.46625 0.0
C175 C 0.84576 0.54581 0.53561 0.0
C176 C 0.26554 0.32914 0.21065 0.0
C177 C 0.256 0.32283 0.27475 0.0
C178 C 0.30606 0.24248 0.27245 0.0
C179 C 0.31745 0.25109 0.20941 0.0
N180 N 0.28582 0.28754 0.11441 0.0
N181 N 0.25701 0.26703 0.3635 0.0
C182 C 0.28956 0.28919 0.17705 0.0
C183 C 0.27244 0.27687 0.30447 0.0
N184 N 0.25526 0.37478 0.18232 0.0
N185 N 0.32758 0.20121 0.30105 0.0
H186 H 0.23206 0.29121 0.38723 0.0
H187 H 0.26554 0.23339 0.38733 0.0
H188 H 0.34609 0.17283 0.2755 0.0
H189 H 0.32669 0.19485 0.34841 0.0
H190 H 0.26685 0.38336 0.13742 0.0
H191 H 0.23957 0.40565 0.20579 0.0
H192 H 0.26323 0.31303 0.08924 0.0
H193 H 0.29909 0.25662 0.08869 0.0
C194 C 0.23789 0.71547 0.72868 0.0
C195 C 0.25066 0.70044 0.78943 0.0
C196 C 0.31885 0.76419 0.79081 0.0
C197 C 0.31318 0.77113 0.7266 0.0
N198 N 0.25432 0.77417 0.64267 0.0
N199 N 0.28069 0.73421 0.88618 0.0
C200 C 0.26792 0.7538 0.69821 0.0
C201 C 0.28363 0.73275 0.82343 0.0
N202 N 0.19633 0.69426 0.70174 0.0
N203 N 0.3591 0.78619 0.81982 0.0
H204 H 0.25343 0.71389 0.91111 0.0
H205 H 0.30147 0.75977 0.91288 0.0
H206 H 0.38349 0.81074 0.7962 0.0
H207 H 0.36858 0.77944 0.86569 0.0
H208 H 0.18625 0.69983 0.65588 0.0
H209 H 0.17074 0.67267 0.72788 0.0
H210 H 0.22052 0.76552 0.62008 0.0
H211 H 0.27626 0.80246 0.62117 0.0
C212 C 0.75031 0.73619 0.3072 0.0
C213 C 0.76311 0.68541 0.28872 0.0
C214 C 0.69163 0.68528 0.21931 0.0
C215 C 0.67893 0.7373 0.23352 0.0
N216 N 0.70618 0.81598 0.28131 0.0
N217 N 0.76021 0.62377 0.20742 0.0
C218 C 0.71204 0.76442 0.27368 0.0
C219 C 0.73998 0.66586 0.23568 0.0
N220 N 0.77242 0.7561 0.35846 0.0
N221 N 0.65599 0.65171 0.1986 0.0
H222 H 0.79484 0.60783 0.22178 0.0
H223 H 0.74496 0.60875 0.16697 0.0
H224 H 0.61727 0.65844 0.20462 0.0
H225 H 0.66438 0.61342 0.18878 0.0
H226 H 0.76074 0.79055 0.37838 0.0
H227 H 0.80129 0.73655 0.38194 0.0
H228 H 0.73133 0.83802 0.30707 0.0
H229 H 0.67855 0.83701 0.25759 0.0
C230 C 0.75136 0.2798 0.79558 0.0
C231 C 0.75187 0.33332 0.78069 0.0
C232 C 0.66961 0.32473 0.73225 0.0
C233 C 0.66883 0.27069 0.74102 0.0
N234 N 0.71525 0.19533 0.7735 0.0
N235 N 0.72475 0.39314 0.70166 0.0
C236 C 0.7121 0.24749 0.76981 0.0
C237 C 0.71629 0.35026 0.73624 0.0
N238 N 0.78769 0.2598 0.83348 0.0
N239 N 0.62635 0.3535 0.7256 0.0
H240 H 0.75928 0.4126 0.70305 0.0
H241 H 0.69924 0.40526 0.66768 0.0
H242 H 0.6276 0.39343 0.72171 0.0
H243 H 0.58975 0.33955 0.73284 0.0
H244 H 0.78559 0.22299 0.85218 0.0
H245 H 0.82025 0.28014 0.84553 0.0
H246 H 0.74765 0.17594 0.78882 0.0
H247 H 0.68607 0.17156 0.75805 0.0
C248 C 0.45601 0.25107 0.8314 0.0
C249 C 0.46276 0.20871 0.79152 0.0
C250 C 0.49129 0.15607 0.87856 0.0
C251 C 0.49128 0.20019 0.91668 0.0
N252 N 0.47393 0.29024 0.92969 0.0
N253 N 0.45813 0.11679 0.78624 0.0
C254 C 0.47363 0.2479 0.89307 0.0
C255 C 0.47239 0.15971 0.81731 0.0
N256 N 0.42932 0.29286 0.81078 0.0
N257 N 0.51075 0.1109 0.90053 0.0
H258 H 0.43895 0.11839 0.74433 0.0
H259 H 0.45777 0.08055 0.80661 0.0
H260 H 0.52609 0.10754 0.94469 0.0
H261 H 0.516 0.07851 0.87318 0.0
H262 H 0.41957 0.32428 0.83785 0.0
H263 H 0.41166 0.29309 0.76774 0.0
H264 H 0.46539 0.3271 0.91425 0.0
H265 H 0.48598 0.28879 0.97524 0.0
C266 C 0.19099 0.5794 0.12005 0.0
C267 C 0.18195 0.53306 0.08587 0.0
C268 C 0.17411 0.48698 0.18377 0.0
C269 C 0.19768 0.52873 0.2142 0.0
N270 N 0.22807 0.61565 0.21221 0.0
N271 N 0.15354 0.44509 0.08769 0.0
C272 C 0.205 0.57558 0.18304 0.0
C273 C 0.16988 0.48753 0.11859 0.0
N274 N 0.18642 0.6271 0.09392 0.0
N275 N 0.15467 0.44737 0.21773 0.0
H276 H 0.14168 0.4463 0.04191 0.0
H277 H 0.15202 0.4086 0.10734 0.0
H278 H 0.15794 0.44565 0.26549 0.0
H279 H 0.13284 0.41792 0.19938 0.0
H280 H 0.18714 0.66071 0.11972 0.0
H281 H 0.17597 0.63487 0.04892 0.0
H282 H 0.23988 0.64886 0.18952 0.0
H283 H 0.23883 0.61455 0.25836 0.0
C284 C 0.49834 0.84472 0.88951 0.0
C285 C 0.52778 0.80829 0.92251 0.0
C286 C 0.5592 0.7721 0.82477 0.0
C287 C 0.5239 0.80277 0.79268 0.0
N288 N 0.45876 0.86807 0.79286 0.0
N289 N 0.57914 0.7314 0.92089 0.0
C290 C 0.49369 0.83961 0.82454 0.0
C291 C 0.55716 0.77104 0.88993 0.0
N292 N 0.47475 0.88397 0.92021 0.0
N293 N 0.59346 0.74256 0.79297 0.0
H294 H 0.57245 0.72608 0.96728 0.0
H295 H 0.59703 0.70039 0.89966 0.0
H296 H 0.59423 0.74095 0.745 0.0
H297 H 0.62392 0.72354 0.81378 0.0
H298 H 0.45798 0.91538 0.89836 0.0
H299 H 0.47484 0.88702 0.96807 0.0
H300 H 0.4315 0.8914 0.81384 0.0
H301 H 0.45389 0.8646 0.74552 0.0
C302 C 0.84568 0.46711 0.20912 0.0
C303 C 0.79594 0.47592 0.23348 0.0
C304 C 0.76252 0.48453 0.12765 0.0
C305 C 0.81269 0.47875 0.10339 0.0
N306 N 0.90293 0.47521 0.12136 0.0
N307 N 0.70559 0.47533 0.21554 0.0
C308 C 0.85444 0.47217 0.14425 0.0
C309 C 0.75399 0.47984 0.1924 0.0
N310 N 0.88438 0.45242 0.24731 0.0
N311 N 0.7228 0.49495 0.08885 0.0
H312 H 0.69842 0.46826 0.26216 0.0
H313 H 0.67311 0.47255 0.18837 0.0
H314 H 0.72623 0.49457 0.04105 0.0
H315 H 0.6869 0.50676 0.10392 0.0
H316 H 0.92007 0.44049 0.23165 0.0
H317 H 0.8795 0.44612 0.29423 0.0
H318 H 0.9355 0.47624 0.14856 0.0
H319 H 0.91018 0.48278 0.07504 0.0
C320 C 0.56827 0.22629 0.32405 0.0
C321 C 0.52759 0.20384 0.29188 0.0
C322 C 0.49638 0.16628 0.38905 0.0
C323 C 0.53154 0.19656 0.42207 0.0
N324 N 0.59053 0.26745 0.41861 0.0
N325 N 0.44736 0.15876 0.29565 0.0
C326 C 0.56538 0.22936 0.38904 0.0
C327 C 0.49017 0.17521 0.32477 0.0
N328 N 0.6091 0.24563 0.2926 0.0
N329 N 0.4692 0.12894 0.41875 0.0
H330 H 0.44068 0.16552 0.249 0.0
H331 H 0.41763 0.14041 0.31862 0.0
H332 H 0.47281 0.12157 0.46582 0.0
H333 H 0.44702 0.10212 0.39569 0.0
H334 H 0.64158 0.25935 0.31455 0.0
H335 H 0.61258 0.24227 0.24487 0.0
H336 H 0.61322 0.29449 0.3961 0.0
H337 H 0.58085 0.27726 0.46324 0.0
C338 C 0.17823 0.52441 0.61365 0.0
C339 C 0.17532 0.47564 0.58429 0.0
C340 C 0.19013 0.43357 0.68477 0.0
C341 C 0.19285 0.48213 0.71297 0.0
N342 N 0.1662 0.57034 0.70864 0.0
N343 N 0.1559 0.38554 0.59948 0.0
C344 C 0.17947 0.52637 0.67884 0.0
C345 C 0.17424 0.4306 0.62224 0.0
N346 N 0.18321 0.56914 0.58111 0.0
N347 N 0.20352 0.39049 0.7169 0.0
H348 H 0.13923 0.38299 0.55605 0.0
H349 H 0.15107 0.35278 0.62654 0.0
H350 H 0.2141 0.39151 0.76319 0.0
H351 H 0.20741 0.35462 0.69625 0.0
H352 H 0.19121 0.60395 0.60248 0.0
H353 H 0.18341 0.5723 0.53355 0.0
H354 H 0.14714 0.59985 0.68567 0.0
H355 H 0.16709 0.57378 0.7565 0.0
C356 C 0.52343 0.82404 0.32465 0.0
C357 C 0.47764 0.81621 0.29184 0.0
C358 C 0.43052 0.84463 0.38257 0.0
C359 C 0.47503 0.8376 0.41964 0.0
N360 N 0.56576 0.81615 0.42196 0.0
N361 N 0.386 0.81951 0.28973 0.0
C362 C 0.52228 0.82667 0.38977 0.0
C363 C 0.43057 0.82697 0.32067 0.0
N364 N 0.56791 0.83177 0.29349 0.0
N365 N 0.38883 0.86964 0.40581 0.0
H366 H 0.38503 0.80757 0.24389 0.0
H367 H 0.35035 0.82171 0.31102 0.0
H368 H 0.38865 0.88653 0.4493 0.0
H369 H 0.35709 0.87903 0.37925 0.0
H370 H 0.60144 0.84268 0.3154 0.0
H371 H 0.56893 0.83463 0.24562 0.0
H372 H 0.59859 0.80176 0.40073 0.0
H373 H 0.56904 0.81812 0.46945 0.0
C374 C 0.82959 0.57837 0.70456 0.0
C375 C 0.82948 0.5289 0.73164 0.0
C376 C 0.86175 0.4923 0.63371 0.0
C377 C 0.85391 0.54055 0.60456 0.0
N378 N 0.86091 0.63165 0.62113 0.0
N379 N 0.85007 0.43897 0.72475 0.0
C380 C 0.84684 0.58444 0.64267 0.0
C381 C 0.8474 0.48598 0.69704 0.0
N382 N 0.81195 0.61952 0.7373 0.0
N383 N 0.88717 0.45429 0.60294 0.0
H384 H 0.8437 0.43395 0.77174 0.0
H385 H 0.8565 0.40471 0.70147 0.0
H386 H 0.90586 0.46073 0.56122 0.0
H387 H 0.89648 0.4188 0.62193 0.0
H388 H 0.80543 0.65544 0.71752 0.0
H389 H 0.80036 0.61679 0.78326 0.0
H390 H 0.86049 0.66465 0.64807 0.0
H391 H 0.8798 0.63633 0.57905 0.0
C392 C 0.35241 0.43024 0.98967 0.0
C393 C 0.32876 0.41838 0.93309 0.0
C394 C 0.34253 0.32663 0.95459 0.0
C395 C 0.37294 0.33842 1.0073 0.0
N396 N 0.41666 0.40755 0.06269 0.0
N397 N 0.3123 0.35566 0.85476 0.0
C398 C 0.38096 0.39186 0.02118 0.0
C399 C 0.32794 0.36669 0.91316 0.0
N400 N 0.34576 0.4775 0.01579 0.0
N401 N 0.32334 0.27851 0.94612 0.0
H402 H 0.30191 0.38425 0.82333 0.0
H403 H 0.31511 0.31904 0.83584 0.0
H404 H 0.32562 0.24936 0.97882 0.0
H405 H 0.29815 0.26973 0.91071 0.0
H406 H 0.35644 0.48554 0.06097 0.0
H407 H 0.32539 0.5072 0.9951 0.0
H408 H 0.42675 0.44598 0.0677 0.0
H409 H 0.44101 0.38373 0.08689 0.0
C410 C 0.37772 0.66358 0.96175 0.0
C411 C 0.33456 0.63927 0.98971 0.0
C412 C 0.36976 0.65899 0.09199 0.0
C413 C 0.41278 0.68188 0.06386 0.0
N414 N 0.46506 0.69087 0.97313 0.0
N415 N 0.30384 0.59551 0.0806 0.0
C416 C 0.41907 0.67926 0.99912 0.0
C417 C 0.33426 0.63203 0.05478 0.0
N418 N 0.37934 0.67334 0.89977 0.0
N419 N 0.36316 0.66212 0.15431 0.0
H420 H 0.2811 0.57159 0.05418 0.0
H421 H 0.30677 0.5843 0.12659 0.0
H422 H 0.38963 0.67957 0.18318 0.0
H423 H 0.33013 0.64982 0.1766 0.0
H424 H 0.40746 0.69559 0.87885 0.0
H425 H 0.35082 0.66368 0.86901 0.0
H426 H 0.47437 0.68349 0.92728 0.0
H427 H 0.4959 0.70254 0.99923 0.0
C428 C 0.70042 0.6728 0.03588 0.0
C429 C 0.6465 0.66877 0.03574 0.0
C430 C 0.65168 0.60563 0.95343 0.0
C431 C 0.70547 0.60382 0.95926 0.0
N432 N 0.78109 0.6325 0.01458 0.0
N433 N 0.57169 0.62127 1.00484 0.0
C434 C 0.7301 0.63669 1.00244 0.0
C435 C 0.62241 0.63167 0.99835 0.0
N436 N 0.72372 0.71108 0.0681 0.0
N437 N 0.62852 0.58487 0.90306 0.0
H438 H 0.54857 0.63881 0.03761 0.0
H439 H 0.55389 0.59127 0.98181 0.0
H440 H 0.64903 0.5693 0.86624 0.0
H441 H 0.5897 0.5893 0.89416 0.0
H442 H 0.76212 0.7203 0.06261 0.0
H443 H 0.70437 0.73568 0.09783 0.0
H444 H 0.79791 0.64894 0.05317 0.0
H445 H 0.80695 0.61108 0.98917 0.0
C446 C 0.62663 0.36481 0.97507 0.0
C447 C 0.67495 0.37219 1.00312 0.0
C448 C 0.63676 0.34274 0.10158 0.0
C449 C 0.58824 0.33981 0.07306 0.0
N450 N 0.53621 0.37171 0.99015 0.0
N451 N 0.72377 0.37316 0.09845 0.0
C452 C 0.58282 0.3585 0.01237 0.0
C453 C 0.67962 0.36248 0.068 0.0
N454 N 0.6225 0.36023 0.91255 0.0
N455 N 0.64145 0.32705 0.16142 0.0
H456 H 0.75688 0.38602 0.07744 0.0
H457 H 0.727 0.3725 0.14622 0.0
H458 H 0.60961 0.31964 0.18902 0.0
H459 H 0.67622 0.32032 0.18304 0.0
H460 H 0.58811 0.35132 0.89113 0.0
H461 H 0.65415 0.35805 0.88334 0.0
H462 H 0.53155 0.38993 0.94761 0.0
H463 H 0.50346 0.36976 0.01704 0.0
C464 C 0.701 0.3322 0.52477 0.0
C465 C 0.64836 0.33856 0.53762 0.0
C466 C 0.65073 0.42453 0.49134 0.0
C467 C 0.70207 0.41619 0.4731 0.0
N468 N 0.77076 0.35527 0.4572 0.0
N469 N 0.57064 0.38526 0.51599 0.0
C470 C 0.72571 0.36794 0.48528 0.0
C471 C 0.62252 0.38317 0.51609 0.0
N472 N 0.72803 0.29343 0.55206 0.0
N473 N 0.62891 0.47211 0.48753 0.0
H474 H 0.54877 0.35443 0.52977 0.0
H475 H 0.54978 0.41452 0.49484 0.0
H476 H 0.6472 0.50386 0.46908 0.0
H477 H 0.59383 0.48101 0.50774 0.0
H478 H 0.76761 0.29046 0.54889 0.0
H479 H 0.71173 0.26744 0.58297 0.0
H480 H 0.78718 0.31888 0.46059 0.0
H481 H 0.78846 0.37889 0.4247 0.0
C482 C 0.38533 0.36489 0.58582 0.0
C483 C 0.42339 0.33512 0.55601 0.0
C484 C 0.38293 0.34965 0.45629 0.0
C485 C 0.34613 0.38144 0.48527 0.0
N486 N 0.31707 0.42754 0.5751 0.0
N487 N 0.46628 0.31091 0.46201 0.0
C488 C 0.34878 0.39167 0.54942 0.0
C489 C 0.4246 0.3312 0.49095 0.0
N490 N 0.38366 0.36666 0.64872 0.0
N491 N 0.37741 0.33559 0.3961 0.0
H492 H 0.49796 0.29826 0.4862 0.0
H493 H 0.47177 0.31179 0.41443 0.0
H494 H 0.34794 0.34888 0.36846 0.0
H495 H 0.39948 0.30722 0.37507 0.0
H496 H 0.35352 0.38263 0.67358 0.0
H497 H 0.41164 0.34971 0.67624 0.0
H498 H 0.31996 0.43999 0.62048 0.0
H499 H 0.29021 0.44801 0.5495 0.0
C500 C 0.31363 0.66765 0.51904 0.0
C501 C 0.36651 0.67557 0.51212 0.0
C502 C 0.3687 0.60563 0.43673 0.0
C503 C 0.31426 0.60255 0.43915 0.0
N504 N 0.23715 0.65071 0.46279 0.0
N505 N 0.44099 0.66259 0.44831 0.0
C506 C 0.28737 0.64023 0.47361 0.0
C507 C 0.39321 0.64788 0.46587 0.0
N508 N 0.28885 0.68241 0.57119 0.0
N509 N 0.39761 0.56793 0.41031 0.0
H510 H 0.45892 0.69467 0.46688 0.0
H511 H 0.46016 0.64613 0.41104 0.0
H512 H 0.38273 0.53488 0.39089 0.0
H513 H 0.43731 0.5674 0.41325 0.0
H514 H 0.25041 0.67436 0.57884 0.0
H515 H 0.30878 0.69507 0.60956 0.0
H516 H 0.21754 0.67964 0.48628 0.0
H517 H 0.21768 0.63555 0.42521 0.0
C518 C 0.68396 0.67463 0.56012 0.0
C519 C 0.67453 0.64329 0.5079 0.0
C520 C 0.58273 0.65244 0.52688 0.0
C521 C 0.59194 0.69097 0.57084 0.0
N522 N 0.65271 0.74387 0.62433 0.0
N523 N 0.61258 0.61719 0.43119 0.0
C524 C 0.64303 0.70373 0.58597 0.0
C525 C 0.62322 0.63601 0.4884 0.0
N526 N 0.73101 0.67513 0.58684 0.0
N527 N 0.53544 0.63155 0.52134 0.0
H528 H 0.64044 0.61083 0.39767 0.0
H529 H 0.57551 0.61501 0.41415 0.0
H530 H 0.50543 0.64143 0.55061 0.0
H531 H 0.52816 0.6003 0.49283 0.0
H532 H 0.7383 0.69366 0.62834 0.0
H533 H 0.76128 0.65258 0.57139 0.0
H534 H 0.68927 0.75814 0.63156 0.0
H535 H 0.62385 0.76513 0.64542 0.0
C536 C 0.48733 0.02416 0.06304 0.0
C537 C 0.48171 0.0521 0.11851 0.0
C538 C 0.52542 0.98099 0.17351 0.0
C539 C 0.53495 0.95582 0.11683 0.0
N540 N 0.53802 0.96223 1.00639 0.0
N541 N 0.50619 0.06102 0.22482 0.0
C542 C 0.51999 0.98044 0.06123 0.0
C543 C 0.50375 0.03147 0.17339 0.0
N544 N 0.46133 0.03953 0.0118 0.0
N545 N 0.53615 0.95649 0.22756 0.0
H546 H 0.49074 0.09762 0.22566 0.0
H547 H 0.52653 0.05073 0.26416 0.0
H548 H 0.55526 0.92142 0.22878 0.0
H549 H 0.52425 0.97 0.27045 0.0
H550 H 0.46072 0.01836 0.97115 0.0
H551 H 0.43613 0.07062 0.01245 0.0
H552 H 0.53209 0.98091 0.96445 0.0
H553 H 0.56346 0.93135 1.0042 0.0
C554 C 0.99337 0.48389 0.94916 0.0
C555 C 0.96573 0.46776 0.89709 0.0
C556 C 0.02699 0.51559 0.83182 0.0
C557 C 0.04957 0.53699 0.88532 0.0
N558 N 0.04366 0.55147 0.9943 0.0
N559 N 0.95738 0.46644 0.78736 0.0
C560 C 0.02846 0.52481 0.94369 0.0
C561 C 0.98299 0.4832 0.83774 0.0
N562 N 0.98574 0.45957 1.00409 0.0
N563 N 0.04884 0.525 0.77581 0.0
H564 H 0.93018 0.43764 0.79151 0.0
H565 H 0.96334 0.48041 0.74289 0.0
H566 H 0.07861 0.55111 0.77092 0.0
H567 H 0.03833 0.5066 0.73533 0.0
H568 H 0.00751 0.46693 0.04315 0.0
H569 H 0.96093 0.42841 0.00789 0.0
H570 H 0.02769 0.54601 0.03792 0.0
H571 H 0.06818 0.58279 0.99043 0.0
C572 C 0.48335 0.98846 0.67508 0.0
C573 C 0.47194 0.96371 0.61861 0.0
C574 C 0.5242 0.02825 0.56408 0.0
C575 C 0.53461 0.0531 0.62074 0.0
N576 N 0.53689 0.04865 0.73056 0.0
N577 N 0.47448 0.96554 0.50776 0.0
C578 C 0.51812 0.03049 0.67643 0.0
C579 C 0.49062 0.98514 0.56252 0.0
N580 N 0.45754 0.97384 0.72682 0.0
N581 N 0.54769 0.04603 0.51193 0.0
H582 H 0.44702 0.93701 0.50543 0.0
H583 H 0.48383 0.98061 0.46476 0.0
H584 H 0.57384 0.07609 0.51339 0.0
H585 H 0.54527 0.02881 0.4689 0.0
H586 H 0.46147 0.99151 0.76947 0.0
H587 H 0.42742 0.9479 0.72433 0.0
H588 H 0.53148 0.0301 0.77267 0.0
H589 H 0.56221 0.07945 0.73184 0.0
C590 C 0.99049 0.52373 0.44813 0.0
C591 C 0.96489 0.53809 0.39294 0.0
C592 C 0.026 0.48523 0.33343 0.0
C593 C 0.05191 0.4712 0.38823 0.0
N594 N 0.05108 0.46655 0.49877 0.0
N595 N 0.96355 0.54012 0.28248 0.0
C596 C 0.03184 0.4875 0.44596 0.0
C597 C 0.9845 0.52096 0.3354 0.0
N598 N 0.97615 0.54587 0.50251 0.0
N599 N 0.04004 0.46185 0.27978 0.0
H600 H 0.93394 0.56706 0.28322 0.0
H601 H 0.97785 0.53298 0.23853 0.0
H602 H 0.06717 0.43245 0.27947 0.0
H603 H 0.02162 0.46704 0.23785 0.0
H604 H 0.99516 0.54045 0.544 0.0
H605 H 0.94832 0.57436 0.50504 0.0
H606 H 0.03641 0.47331 0.54261 0.0
H607 H 0.0783 0.4374 0.49805 0.0
loop_
_geom_bond_atom_site_label_1
_geom_bond_atom_site_label_2
_geom_bond_distance
_geom_bond_site_symmetry_2
_ccdc_geom_bond_type
Fe0 O2 1.918 . S
Fe0 O5 1.997 . S
Fe0 O6 2.002 1_554 S
Fe0 O11 1.976 . S
Fe0 O14 1.996 . S
Fe1 O2 1.918 . S
Fe1 O9 1.997 1_554 S
Fe1 O12 1.996 . S
Fe1 O16 1.976 . S
Fe1 O19 2.002 . S
O2 Fe0 1.918 . S
O2 Fe1 1.918 . S
O2 Fe3 1.918 . S
Fe3 O2 1.918 . S
Fe3 O4 2.002 . S
Fe3 O13 1.976 . S
Fe3 O17 1.996 . S
Fe3 O20 1.997 . S
O4 Fe3 2.002 . S
O4 C21 1.295 . S
O5 Fe0 1.997 . S
O5 C21 1.235 . S
O6 Fe0 2.002 1_556 S
O6 C7 1.295 . S
C7 O6 1.295 . S
C7 O9 1.235 . S
C8 O13 1.287 . S
C8 O14 1.255 . S
O9 Fe1 1.997 1_556 S
O9 C7 1.235 . S
C10 O16 1.287 . S
C10 O17 1.255 . S
O11 Fe0 1.976 . S
O11 C18 1.287 . S
O12 Fe1 1.996 . S
O12 C18 1.255 . S
O13 Fe3 1.976 . S
O13 C8 1.287 . S
O14 Fe0 1.996 . S
O14 C8 1.255 . S
C15 O19 1.295 . S
C15 O20 1.235 . S
O16 Fe1 1.976 . S
O16 C10 1.287 . S
O17 Fe3 1.996 . S
O17 C10 1.255 . S
C18 O11 1.287 . S
C18 O12 1.255 . S
O19 Fe1 2.002 . S
O19 C15 1.295 . S
O20 Fe3 1.997 . S
O20 C15 1.235 . S
C21 O4 1.295 . S
C21 O5 1.235 . S
Fe22 O24 1.918 . S
Fe22 O27 1.997 . S
Fe22 O28 2.002 1_556 S
Fe22 O33 1.976 . S
Fe22 O36 1.996 . S
Fe23 O24 1.918 . S
Fe23 O31 1.997 1_556 S
Fe23 O34 1.996 . S
Fe23 O38 1.976 . S
Fe23 O41 2.002 . S
O24 Fe22 1.918 . S
O24 Fe23 1.918 . S
O24 Fe25 1.918 . S
Fe25 O24 1.918 . S
Fe25 O26 2.002 . S
Fe25 O35 1.976 . S
Fe25 O39 1.996 . S
Fe25 O42 1.997 . S
O26 Fe25 2.002 . S
O26 C43 1.295 . S
O27 Fe22 1.997 . S
O27 C43 1.235 . S
O28 Fe22 2.002 1_554 S
O28 C29 1.295 . S
C29 O28 1.295 . S
C29 O31 1.235 . S
C30 O35 1.287 . S
C30 O36 1.255 . S
O31 Fe23 1.997 1_554 S
O31 C29 1.235 . S
C32 O38 1.287 . S
C32 O39 1.255 . S
O33 Fe22 1.976 . S
O33 C40 1.287 . S
O34 Fe23 1.996 . S
O34 C40 1.255 . S
O35 Fe25 1.976 . S
O35 C30 1.287 . S
O36 Fe22 1.996 . S
O36 C30 1.255 . S
C37 O41 1.295 . S
C37 O42 1.235 . S
O38 Fe23 1.976 . S
O38 C32 1.287 . S
O39 Fe25 1.996 . S
O39 C32 1.255 . S
C40 O33 1.287 . S
C40 O34 1.255 . S
O41 Fe23 2.002 . S
O41 C37 1.295 . S
O42 Fe25 1.997 . S
O42 C37 1.235 . S
C43 O26 1.295 . S
C43 O27 1.235 . S
Fe44 O46 1.918 . S
Fe44 O49 1.997 1_554 S
Fe44 O50 2.002 . S
Fe44 O55 1.976 . S
Fe44 O58 1.996 . S
Fe45 O46 1.918 . S
Fe45 O53 1.997 . S
Fe45 O56 1.996 . S
Fe45 O60 1.976 . S
Fe45 O63 2.002 . S
O46 Fe44 1.918 . S
O46 Fe45 1.918 . S
O46 Fe47 1.918 . S
Fe47 O46 1.918 . S
Fe47 O48 2.002 1_554 S
Fe47 O57 1.976 . S
Fe47 O61 1.996 . S
Fe47 O64 1.997 . S
O48 Fe47 2.002 1_556 S
O48 C65 1.295 . S
O49 Fe44 1.997 1_556 S
O49 C65 1.235 . S
O50 Fe44 2.002 . S
O50 C51 1.295 . S
C51 O50 1.295 . S
C51 O53 1.235 . S
C52 O57 1.287 . S
C52 O58 1.255 . S
O53 Fe45 1.997 . S
O53 C51 1.235 . S
C54 O60 1.287 . S
C54 O61 1.255 . S
O55 Fe44 1.976 . S
O55 C62 1.287 . S
O56 Fe45 1.996 . S
O56 C62 1.255 . S
O57 Fe47 1.976 . S
O57 C52 1.287 . S
O58 Fe44 1.996 . S
O58 C52 1.255 . S
C59 O63 1.295 . S
C59 O64 1.235 . S
O60 Fe45 1.976 . S
O60 C54 1.287 . S
O61 Fe47 1.996 . S
O61 C54 1.255 . S
C62 O55 1.287 . S
C62 O56 1.255 . S
O63 Fe45 2.002 . S
O63 C59 1.295 . S
O64 Fe47 1.997 . S
O64 C59 1.235 . S
C65 O48 1.295 . S
C65 O49 1.235 . S
Fe66 O68 1.918 . S
Fe66 O71 1.997 1_556 S
Fe66 O72 2.002 . S
Fe66 O77 1.976 . S
Fe66 O80 1.996 . S
Fe67 O68 1.918 . S
Fe67 O75 1.997 . S
Fe67 O78 1.996 . S
Fe67 O82 1.976 . S
Fe67 O85 2.002 . S
O68 Fe66 1.918 . S
O68 Fe67 1.918 . S
O68 Fe69 1.918 . S
Fe69 O68 1.918 . S
Fe69 O70 2.002 1_556 S
Fe69 O79 1.976 . S
Fe69 O83 1.996 . S
Fe69 O86 1.997 . S
O70 Fe69 2.002 1_554 S
O70 C87 1.295 . S
O71 Fe66 1.997 1_554 S
O71 C87 1.235 . S
O72 Fe66 2.002 . S
O72 C73 1.295 . S
C73 O72 1.295 . S
C73 O75 1.235 . S
C74 O79 1.287 . S
C74 O80 1.255 . S
O75 Fe67 1.997 . S
O75 C73 1.235 . S
C76 O82 1.287 . S
C76 O83 1.255 . S
O77 Fe66 1.976 . S
O77 C84 1.287 . S
O78 Fe67 1.996 . S
O78 C84 1.255 . S
O79 Fe69 1.976 . S
O79 C74 1.287 . S
O80 Fe66 1.996 . S
O80 C74 1.255 . S
C81 O85 1.295 . S
C81 O86 1.235 . S
O82 Fe67 1.976 . S
O82 C76 1.287 . S
O83 Fe69 1.996 . S
O83 C76 1.255 . S
C84 O77 1.287 . S
C84 O78 1.255 . S
O85 Fe67 2.002 . S
O85 C81 1.295 . S
O86 Fe69 1.997 . S
O86 C81 1.235 . S
C87 O70 1.295 . S
C87 O71 1.235 . S
Fe88 O90 1.918 . S
Fe88 O93 1.997 . S
Fe88 O94 2.002 . S
Fe88 O99 1.976 . S
Fe88 O102 1.996 . S
Fe89 O90 1.918 . S
Fe89 O97 1.997 . S
Fe89 O100 1.996 . S
Fe89 O104 1.976 . S
Fe89 O107 2.002 . S
O90 Fe88 1.918 . S
O90 Fe89 1.918 . S
O90 Fe91 1.918 . S
Fe91 O90 1.918 . S
Fe91 O92 2.002 . S
Fe91 O101 1.976 . S
Fe91 O105 1.996 . S
Fe91 O108 1.997 . S
O92 Fe91 2.002 . S
O92 C109 1.295 . S
O93 Fe88 1.997 . S
O93 C109 1.235 . S
O94 Fe88 2.002 . S
O94 C95 1.295 . S
C95 O94 1.295 . S
C95 O97 1.235 . S
C96 O101 1.287 . S
C96 O102 1.255 . S
O97 Fe89 1.997 . S
O97 C95 1.235 . S
C98 O104 1.287 . S
C98 O105 1.255 . S
O99 Fe88 1.976 . S
O99 C106 1.287 . S
O100 Fe89 1.996 . S
O100 C106 1.255 . S
O101 Fe91 1.976 . S
O101 C96 1.287 . S
O102 Fe88 1.996 . S
O102 C96 1.255 . S
C103 O107 1.295 . S
C103 O108 1.235 . S
O104 Fe89 1.976 . S
O104 C98 1.287 . S
O105 Fe91 1.996 . S
O105 C98 1.255 . S
C106 O99 1.287 . S
C106 O100 1.255 . S
O107 Fe89 2.002 . S
O107 C103 1.295 . S
O108 Fe91 1.997 . S
O108 C103 1.235 . S
C109 O92 1.295 . S
C109 O93 1.235 . S
Fe110 O112 1.918 . S
Fe110 O115 1.997 . S
Fe110 O116 2.002 . S
Fe110 O121 1.976 . S
Fe110 O124 1.996 . S
Fe111 O112 1.918 . S
Fe111 O119 1.997 . S
Fe111 O122 1.996 . S
Fe111 O126 1.976 . S
Fe111 O129 2.002 . S
O112 Fe110 1.918 . S
O112 Fe111 1.918 . S
O112 Fe113 1.918 . S
Fe113 O112 1.918 . S
Fe113 O114 2.002 . S
Fe113 O123 1.976 . S
Fe113 O127 1.996 . S
Fe113 O130 1.997 . S
O114 Fe113 2.002 . S
O114 C131 1.295 . S
O115 Fe110 1.997 . S
O115 C131 1.235 . S
O116 Fe110 2.002 . S
O116 C117 1.295 . S
C117 O116 1.295 . S
C117 O119 1.235 . S
C118 O123 1.287 . S
C118 O124 1.255 . S
O119 Fe111 1.997 . S
O119 C117 1.235 . S
C120 O126 1.287 . S
C120 O127 1.255 . S
O121 Fe110 1.976 . S
O121 C128 1.287 . S
O122 Fe111 1.996 . S
O122 C128 1.255 . S
O123 Fe113 1.976 . S
O123 C118 1.287 . S
O124 Fe110 1.996 . S
O124 C118 1.255 . S
C125 O129 1.295 . S
C125 O130 1.235 . S
O126 Fe111 1.976 . S
O126 C120 1.287 . S
O127 Fe113 1.996 . S
O127 C120 1.255 . S
C128 O121 1.287 . S
C128 O122 1.255 . S
O129 Fe111 2.002 . S
O129 C125 1.295 . S
O130 Fe113 1.997 . S
O130 C125 1.235 . S
C131 O114 1.295 . S
C131 O115 1.235 . S
Fe132 O134 1.918 . S
Fe132 O137 1.997 . S
Fe132 O138 2.002 . S
Fe132 O143 1.976 . S
Fe132 O146 1.996 . S
Fe133 O134 1.918 . S
Fe133 O141 1.997 . S
Fe133 O144 1.996 . S
Fe133 O148 1.976 . S
Fe133 O151 2.002 . S
O134 Fe132 1.918 . S
O134 Fe133 1.918 . S
O134 Fe135 1.918 . S
Fe135 O134 1.918 . S
Fe135 O136 2.002 . S
Fe135 O145 1.976 . S
Fe135 O149 1.996 . S
Fe135 O152 1.997 . S
O136 Fe135 2.002 . S
O136 C153 1.295 . S
O137 Fe132 1.997 . S
O137 C153 1.235 . S
O138 Fe132 2.002 . S
O138 C139 1.295 . S
C139 O138 1.295 . S
C139 O141 1.235 . S
C140 O145 1.287 . S
C140 O146 1.255 . S
O141 Fe133 1.997 . S
O141 C139 1.235 . S
C142 O148 1.287 . S
C142 O149 1.255 . S
O143 Fe132 1.976 . S
O143 C150 1.287 . S
O144 Fe133 1.996 . S
O144 C150 1.255 . S
O145 Fe135 1.976 . S
O145 C140 1.287 . S
O146 Fe132 1.996 . S
O146 C140 1.255 . S
C147 O151 1.295 . S
C147 O152 1.235 . S
O148 Fe133 1.976 . S
O148 C142 1.287 . S
O149 Fe135 1.996 . S
O149 C142 1.255 . S
C150 O143 1.287 . S
C150 O144 1.255 . S
O151 Fe133 2.002 . S
O151 C147 1.295 . S
O152 Fe135 1.997 . S
O152 C147 1.235 . S
C153 O136 1.295 . S
C153 O137 1.235 . S
Fe154 O156 1.918 . S
Fe154 O159 1.997 . S
Fe154 O160 2.002 . S
Fe154 O165 1.976 . S
Fe154 O168 1.996 . S
Fe155 O156 1.918 . S
Fe155 O163 1.997 . S
Fe155 O166 1.996 . S
Fe155 O170 1.976 . S
Fe155 O173 2.002 . S
O156 Fe154 1.918 . S
O156 Fe155 1.918 . S
O156 Fe157 1.918 . S
Fe157 O156 1.918 . S
Fe157 O158 2.002 . S
Fe157 O167 1.976 . S
Fe157 O171 1.996 . S
Fe157 O174 1.997 . S
O158 Fe157 2.002 . S
O158 C175 1.295 . S
O159 Fe154 1.997 . S
O159 C175 1.235 . S
O160 Fe154 2.002 . S
O160 C161 1.295 . S
C161 O160 1.295 . S
C161 O163 1.235 . S
C162 O167 1.287 . S
C162 O168 1.255 . S
O163 Fe155 1.997 . S
O163 C161 1.235 . S
C164 O170 1.287 . S
C164 O171 1.255 . S
O165 Fe154 1.976 . S
O165 C172 1.287 . S
O166 Fe155 1.996 . S
O166 C172 1.255 . S
O167 Fe157 1.976 . S
O167 C162 1.287 . S
O168 Fe154 1.996 . S
O168 C162 1.255 . S
C169 O173 1.295 . S
C169 O174 1.235 . S
O170 Fe155 1.976 . S
O170 C164 1.287 . S
O171 Fe157 1.996 . S
O171 C164 1.255 . S
C172 O165 1.287 . S
C172 O166 1.255 . S
O173 Fe155 2.002 . S
O173 C169 1.295 . S
O174 Fe157 1.997 . S
O174 C169 1.235 . S
C175 O158 1.295 . S
C175 O159 1.235 . S
C176 C177 1.363 . S
C176 C182 1.379 . S
C176 N184 1.356 . S
C177 C176 1.363 . S
C177 C183 1.363 . S
C178 C179 1.363 . S
C178 C183 1.379 . S
C178 N185 1.356 . S
C179 C178 1.363 . S
C179 C182 1.363 . S
N180 C182 1.356 . S
N180 H192 0.984 . S
N180 H193 0.985 . S
N181 C183 1.356 . S
N181 H186 0.984 . S
N181 H187 0.985 . S
C182 C176 1.379 . S
C182 C179 1.363 . S
C182 N180 1.356 . S
C183 C177 1.363 . S
C183 C178 1.379 . S
C183 N181 1.356 . S
N184 C176 1.356 . S
N184 H190 0.984 . S
N184 H191 0.984 . S
N185 C178 1.356 . S
N185 H188 0.984 . S
N185 H189 0.985 . S
H186 N181 0.984 . S
H187 N181 0.985 . S
H188 N185 0.984 . S
H189 N185 0.985 . S
H190 N184 0.984 . S
H191 N184 0.984 . S
H192 N180 0.984 . S
H193 N180 0.985 . S
C194 C195 1.363 . S
C194 C200 1.379 . S
C194 N202 1.356 . S
C195 C194 1.363 . S
C195 C201 1.363 . S
C196 C197 1.363 . S
C196 C201 1.379 . S
C196 N203 1.356 . S
C197 C196 1.363 . S
C197 C200 1.363 . S
N198 C200 1.356 . S
N198 H210 0.984 . S
N198 H211 0.985 . S
N199 C201 1.356 . S
N199 H204 0.984 . S
N199 H205 0.985 . S
C200 C194 1.379 . S
C200 C197 1.363 . S
C200 N198 1.356 . S
C201 C195 1.363 . S
C201 C196 1.379 . S
C201 N199 1.356 . S
N202 C194 1.356 . S
N202 H208 0.984 . S
N202 H209 0.984 . S
N203 C196 1.356 . S
N203 H206 0.984 . S
N203 H207 0.985 . S
H204 N199 0.984 . S
H205 N199 0.985 . S
H206 N203 0.984 . S
H207 N203 0.985 . S
H208 N202 0.984 . S
H209 N202 0.984 . S
H210 N198 0.984 . S
H211 N198 0.985 . S
C212 C213 1.363 . S
C212 C218 1.379 . S
C212 N220 1.356 . S
C213 C212 1.363 . S
C213 C219 1.363 . S
C214 C215 1.363 . S
C214 C219 1.379 . S
C214 N221 1.356 . S
C215 C214 1.363 . S
C215 C218 1.363 . S
N216 C218 1.356 . S
N216 H228 0.984 . S
N216 H229 0.985 . S
N217 C219 1.356 . S
N217 H222 0.984 . S
N217 H223 0.985 . S
C218 C212 1.379 . S
C218 C215 1.363 . S
C218 N216 1.356 . S
C219 C213 1.363 . S
C219 C214 1.379 . S
C219 N217 1.356 . S
N220 C212 1.356 . S
N220 H226 0.984 . S
N220 H227 0.984 . S
N221 C214 1.356 . S
N221 H224 0.984 . S
N221 H225 0.985 . S
H222 N217 0.984 . S
H223 N217 0.985 . S
H224 N221 0.984 . S
H225 N221 0.985 . S
H226 N220 0.984 . S
H227 N220 0.984 . S
H228 N216 0.984 . S
H229 N216 0.985 . S
C230 C231 1.363 . S
C230 C236 1.379 . S
C230 N238 1.356 . S
C231 C230 1.363 . S
C231 C237 1.363 . S
C232 C233 1.363 . S
C232 C237 1.379 . S
C232 N239 1.356 . S
C233 C232 1.363 . S
C233 C236 1.363 . S
N234 C236 1.356 . S
N234 H246 0.984 . S
N234 H247 0.985 . S
N235 C237 1.356 . S
N235 H240 0.984 . S
N235 H241 0.985 . S
C236 C230 1.379 . S
C236 C233 1.363 . S
C236 N234 1.356 . S
C237 C231 1.363 . S
C237 C232 1.379 . S
C237 N235 1.356 . S
N238 C230 1.356 . S
N238 H244 0.984 . S
N238 H245 0.984 . S
N239 C232 1.356 . S
N239 H242 0.984 . S
N239 H243 0.985 . S
H240 N235 0.984 . S
H241 N235 0.985 . S
H242 N239 0.984 . S
H243 N239 0.985 . S
H244 N238 0.984 . S
H245 N238 0.984 . S
H246 N234 0.984 . S
H247 N234 0.985 . S
C248 C249 1.363 . S
C248 C254 1.379 . S
C248 N256 1.356 . S
C249 C248 1.363 . S
C249 C255 1.363 . S
C250 C251 1.363 . S
C250 C255 1.379 . S
C250 N257 1.356 . S
C251 C250 1.363 . S
C251 C254 1.363 . S
N252 C254 1.356 . S
N252 H264 0.984 . S
N252 H265 0.985 . S
N253 C255 1.356 . S
N253 H258 0.984 . S
N253 H259 0.985 . S
C254 C248 1.379 . S
C254 C251 1.363 . S
C254 N252 1.356 . S
C255 C249 1.363 . S
C255 C250 1.379 . S
C255 N253 1.356 . S
N256 C248 1.356 . S
N256 H262 0.984 . S
N256 H263 0.984 . S
N257 C250 1.356 . S
N257 H260 0.984 . S
N257 H261 0.985 . S
H258 N253 0.984 . S
H259 N253 0.985 . S
H260 N257 0.984 . S
H261 N257 0.985 . S
H262 N256 0.984 . S
H263 N256 0.984 . S
H264 N252 0.984 . S
H265 N252 0.985 . S
C266 C267 1.363 . S
C266 C272 1.379 . S
C266 N274 1.356 . S
C267 C266 1.363 . S
C267 C273 1.363 . S
C268 C269 1.363 . S
C268 C273 1.379 . S
C268 N275 1.356 . S
C269 C268 1.363 . S
C269 C272 1.363 . S
N270 C272 1.356 . S
N270 H282 0.984 . S
N270 H283 0.985 . S
N271 C273 1.356 . S
N271 H276 0.984 . S
N271 H277 0.985 . S
C272 C266 1.379 . S
C272 C269 1.363 . S
C272 N270 1.356 . S
C273 C267 1.363 . S
C273 C268 1.379 . S
C273 N271 1.356 . S
N274 C266 1.356 . S
N274 H280 0.984 . S
N274 H281 0.984 . S
N275 C268 1.356 . S
N275 H278 0.984 . S
N275 H279 0.985 . S
H276 N271 0.984 . S
H277 N271 0.985 . S
H278 N275 0.984 . S
H279 N275 0.985 . S
H280 N274 0.984 . S
H281 N274 0.984 . S
H282 N270 0.984 . S
H283 N270 0.985 . S
C284 C285 1.363 . S
C284 C290 1.379 . S
C284 N292 1.356 . S
C285 C284 1.363 . S
C285 C291 1.363 . S
C286 C287 1.363 . S
C286 C291 1.379 . S
C286 N293 1.356 . S
C287 C286 1.363 . S
C287 C290 1.363 . S
N288 C290 1.356 . S
N288 H300 0.984 . S
N288 H301 0.985 . S
N289 C291 1.356 . S
N289 H294 0.984 . S
N289 H295 0.985 . S
C290 C284 1.379 . S
C290 C287 1.363 . S
C290 N288 1.356 . S
C291 C285 1.363 . S
C291 C286 1.379 . S
C291 N289 1.356 . S
N292 C284 1.356 . S
N292 H298 0.984 . S
N292 H299 0.984 . S
N293 C286 1.356 . S
N293 H296 0.984 . S
N293 H297 0.985 . S
H294 N289 0.984 . S
H295 N289 0.985 . S
H296 N293 0.984 . S
H297 N293 0.985 . S
H298 N292 0.984 . S
H299 N292 0.984 . S
H300 N288 0.984 . S
H301 N288 0.985 . S
C302 C303 1.363 . S
C302 C308 1.379 . S
C302 N310 1.356 . S
C303 C302 1.363 . S
C303 C309 1.363 . S
C304 C305 1.363 . S
C304 C309 1.379 . S
C304 N311 1.356 . S
C305 C304 1.363 . S
C305 C308 1.363 . S
N306 C308 1.356 . S
N306 H318 0.984 . S
N306 H319 0.985 . S
N307 C309 1.356 . S
N307 H312 0.984 . S
N307 H313 0.985 . S
C308 C302 1.379 . S
C308 C305 1.363 . S
C308 N306 1.356 . S
C309 C303 1.363 . S
C309 C304 1.379 . S
C309 N307 1.356 . S
N310 C302 1.356 . S
N310 H316 0.984 . S
N310 H317 0.984 . S
N311 C304 1.356 . S
N311 H314 0.984 . S
N311 H315 0.985 . S
H312 N307 0.984 . S
H313 N307 0.985 . S
H314 N311 0.984 . S
H315 N311 0.985 . S
H316 N310 0.984 . S
H317 N310 0.984 . S
H318 N306 0.984 . S
H319 N306 0.985 . S
C320 C321 1.363 . S
C320 C326 1.379 . S
C320 N328 1.356 . S
C321 C320 1.363 . S
C321 C327 1.363 . S
C322 C323 1.363 . S
C322 C327 1.379 . S
C322 N329 1.356 . S
C323 C322 1.363 . S
C323 C326 1.363 . S
N324 C326 1.356 . S
N324 H336 0.984 . S
N324 H337 0.985 . S
N325 C327 1.356 . S
N325 H330 0.984 . S
N325 H331 0.985 . S
C326 C320 1.379 . S
C326 C323 1.363 . S
C326 N324 1.356 . S
C327 C321 1.363 . S
C327 C322 1.379 . S
C327 N325 1.356 . S
N328 C320 1.356 . S
N328 H334 0.984 . S
N328 H335 0.984 . S
N329 C322 1.356 . S
N329 H332 0.984 . S
N329 H333 0.985 . S
H330 N325 0.984 . S
H331 N325 0.985 . S
H332 N329 0.984 . S
H333 N329 0.985 . S
H334 N328 0.984 . S
H335 N328 0.984 . S
H336 N324 0.984 . S
H337 N324 0.985 . S
C338 C339 1.363 . S
C338 C344 1.379 . S
C338 N346 1.356 . S
C339 C338 1.363 . S
C339 C345 1.363 . S
C340 C341 1.363 . S
C340 C345 1.379 . S
C340 N347 1.356 . S
C341 C340 1.363 . S
C341 C344 1.363 . S
N342 C344 1.356 . S
N342 H354 0.984 . S
N342 H355 0.985 . S
N343 C345 1.356 . S
N343 H348 0.984 . S
N343 H349 0.985 . S
C344 C338 1.379 . S
C344 C341 1.363 . S
C344 N342 1.356 . S
C345 C339 1.363 . S
C345 C340 1.379 . S
C345 N343 1.356 . S
N346 C338 1.356 . S
N346 H352 0.984 . S
N346 H353 0.984 . S
N347 C340 1.356 . S
N347 H350 0.984 . S
N347 H351 0.985 . S
H348 N343 0.984 . S
H349 N343 0.985 . S
H350 N347 0.984 . S
H351 N347 0.985 . S
H352 N346 0.984 . S
H353 N346 0.984 . S
H354 N342 0.984 . S
H355 N342 0.985 . S
C356 C357 1.363 . S
C356 C362 1.379 . S
C356 N364 1.356 . S
C357 C356 1.363 . S
C357 C363 1.363 . S
C358 C359 1.363 . S
C358 C363 1.379 . S
C358 N365 1.356 . S
C359 C358 1.363 . S
C359 C362 1.363 . S
N360 C362 1.356 . S
N360 H372 0.984 . S
N360 H373 0.985 . S
N361 C363 1.356 . S
N361 H366 0.984 . S
N361 H367 0.985 . S
C362 C356 1.379 . S
C362 C359 1.363 . S
C362 N360 1.356 . S
C363 C357 1.363 . S
C363 C358 1.379 . S
C363 N361 1.356 . S
N364 C356 1.356 . S
N364 H370 0.984 . S
N364 H371 0.984 . S
N365 C358 1.356 . S
N365 H368 0.984 . S
N365 H369 0.985 . S
H366 N361 0.984 . S
H367 N361 0.985 . S
H368 N365 0.984 . S
H369 N365 0.985 . S
H370 N364 0.984 . S
H371 N364 0.984 . S
H372 N360 0.984 . S
H373 N360 0.985 . S
C374 C375 1.363 . S
C374 C380 1.379 . S
C374 N382 1.356 . S
C375 C374 1.363 . S
C375 C381 1.363 . S
C376 C377 1.363 . S
C376 C381 1.379 . S
C376 N383 1.356 . S
C377 C376 1.363 . S
C377 C380 1.363 . S
N378 C380 1.356 . S
N378 H390 0.984 . S
N378 H391 0.985 . S
N379 C381 1.356 . S
N379 H384 0.984 . S
N379 H385 0.985 . S
C380 C374 1.379 . S
C380 C377 1.363 . S
C380 N378 1.356 . S
C381 C375 1.363 . S
C381 C376 1.379 . S
C381 N379 1.356 . S
N382 C374 1.356 . S
N382 H388 0.984 . S
N382 H389 0.984 . S
N383 C376 1.356 . S
N383 H386 0.984 . S
N383 H387 0.985 . S
H384 N379 0.984 . S
H385 N379 0.985 . S
H386 N383 0.984 . S
H387 N383 0.985 . S
H388 N382 0.984 . S
H389 N382 0.984 . S
H390 N378 0.984 . S
H391 N378 0.985 . S
C392 C393 1.363 . S
C392 C398 1.379 1_556 S
C392 N400 1.356 . S
C393 C392 1.363 . S
C393 C399 1.363 . S
C394 C395 1.370 . S
C394 C399 1.379 . S
C394 N401 1.356 . S
C395 C394 1.370 . S
C395 C398 1.360 1_556 S
N396 C398 1.356 . S
N396 H408 0.984 . S
N396 H409 0.985 . S
N397 C399 1.356 . S
N397 H402 0.984 . S
N397 H403 0.985 . S
C398 C392 1.379 1_554 S
C398 C395 1.360 1_554 S
C398 N396 1.356 . S
C399 C393 1.363 . S
C399 C394 1.379 . S
C399 N397 1.356 . S
N400 C392 1.356 . S
N400 H406 0.984 1_556 S
N400 H407 0.984 . S
N401 C394 1.356 . S
N401 H404 0.984 . S
N401 H405 0.985 . S
H402 N397 0.984 . S
H403 N397 0.985 . S
H404 N401 0.984 . S
H405 N401 0.985 . S
H406 N400 0.984 1_554 S
H407 N400 0.984 . S
H408 N396 0.984 . S
H409 N396 0.985 . S
C410 C411 1.363 . S
C410 C416 1.379 . S
C410 N418 1.356 . S
C411 C410 1.363 . S
C411 C417 1.364 1_556 S
C412 C413 1.363 . S
C412 C417 1.379 . S
C412 N419 1.356 . S
C413 C412 1.363 . S
C413 C416 1.363 1_554 S
N414 C416 1.356 . S
N414 H426 0.984 . S
N414 H427 0.985 . S
N415 C417 1.356 . S
N415 H420 0.984 . S
N415 H421 0.985 . S
C416 C410 1.379 . S
C416 C413 1.363 1_556 S
C416 N414 1.356 . S
C417 C411 1.364 1_554 S
C417 C412 1.379 . S
C417 N415 1.356 . S
N418 C410 1.356 . S
N418 H424 0.984 . S
N418 H425 0.984 . S
N419 C412 1.356 . S
N419 H422 0.984 . S
N419 H423 0.985 . S
H420 N415 0.984 . S
H421 N415 0.985 . S
H422 N419 0.984 . S
H423 N419 0.985 . S
H424 N418 0.984 . S
H425 N418 0.984 . S
H426 N414 0.984 . S
H427 N414 0.985 . S
C428 C429 1.362 1_554 S
C428 C434 1.379 1_554 S
C428 N436 1.356 . S
C429 C428 1.362 1_556 S
C429 C435 1.369 . S
C430 C431 1.363 . S
C430 C435 1.379 . S
C430 N437 1.356 . S
C431 C430 1.363 . S
C431 C434 1.363 . S
N432 C434 1.356 . S
N432 H444 0.984 1_556 S
N432 H445 0.985 . S
N433 C435 1.356 . S
N433 H438 0.984 . S
N433 H439 0.985 . S
C434 C428 1.379 1_556 S
C434 C431 1.363 . S
C434 N432 1.356 . S
C435 C429 1.369 . S
C435 C430 1.379 . S
C435 N433 1.356 . S
N436 C428 1.356 . S
N436 H442 0.984 . S
N436 H443 0.984 . S
N437 C430 1.356 . S
N437 H440 0.984 . S
N437 H441 0.985 . S
H438 N433 0.984 . S
H439 N433 0.985 . S
H440 N437 0.984 . S
H441 N437 0.985 . S
H442 N436 0.984 . S
H443 N436 0.984 . S
H444 N432 0.984 1_554 S
H445 N432 0.985 . S
C446 C447 1.362 . S
C446 C452 1.379 . S
C446 N454 1.356 . S
C447 C446 1.362 . S
C447 C453 1.364 1_556 S
C448 C449 1.363 . S
C448 C453 1.379 . S
C448 N455 1.356 . S
C449 C448 1.363 . S
C449 C452 1.363 1_554 S
N450 C452 1.356 . S
N450 H462 0.984 . S
N450 H463 0.985 . S
N451 C453 1.356 . S
N451 H456 0.984 . S
N451 H457 0.985 . S
C452 C446 1.379 . S
C452 C449 1.363 1_556 S
C452 N450 1.356 . S
C453 C447 1.364 1_554 S
C453 C448 1.379 . S
C453 N451 1.356 . S
N454 C446 1.356 . S
N454 H460 0.984 . S
N454 H461 0.984 . S
N455 C448 1.356 . S
N455 H458 0.984 . S
N455 H459 0.985 . S
H456 N451 0.984 . S
H457 N451 0.985 . S
H458 N455 0.984 . S
H459 N455 0.985 . S
H460 N454 0.984 . S
H461 N454 0.984 . S
H462 N450 0.984 . S
H463 N450 0.985 . S
C464 C465 1.363 . S
C464 C470 1.379 . S
C464 N472 1.356 . S
C465 C464 1.363 . S
C465 C471 1.363 . S
C466 C467 1.363 . S
C466 C471 1.379 . S
C466 N473 1.356 . S
C467 C466 1.363 . S
C467 C470 1.363 . S
N468 C470 1.356 . S
N468 H480 0.984 . S
N468 H481 0.985 . S
N469 C471 1.356 . S
N469 H474 0.984 . S
N469 H475 0.985 . S
C470 C464 1.379 . S
C470 C467 1.363 . S
C470 N468 1.356 . S
C471 C465 1.363 . S
C471 C466 1.379 . S
C471 N469 1.356 . S
N472 C464 1.356 . S
N472 H478 0.984 . S
N472 H479 0.984 . S
N473 C466 1.356 . S
N473 H476 0.984 . S
N473 H477 0.985 . S
H474 N469 0.984 . S
H475 N469 0.985 . S
H476 N473 0.984 . S
H477 N473 0.985 . S
H478 N472 0.984 . S
H479 N472 0.984 . S
H480 N468 0.984 . S
H481 N468 0.985 . S
C482 C483 1.363 . S
C482 C488 1.379 . S
C482 N490 1.356 . S
C483 C482 1.363 . S
C483 C489 1.363 . S
C484 C485 1.363 . S
C484 C489 1.379 . S
C484 N491 1.356 . S
C485 C484 1.363 . S
C485 C488 1.363 . S
N486 C488 1.356 . S
N486 H498 0.984 . S
N486 H499 0.985 . S
N487 C489 1.356 . S
N487 H492 0.984 . S
N487 H493 0.985 . S
C488 C482 1.379 . S
C488 C485 1.363 . S
C488 N486 1.356 . S
C489 C483 1.363 . S
C489 C484 1.379 . S
C489 N487 1.356 . S
N490 C482 1.356 . S
N490 H496 0.984 . S
N490 H497 0.984 . S
N491 C484 1.356 . S
N491 H494 0.984 . S
N491 H495 0.985 . S
H492 N487 0.984 . S
H493 N487 0.985 . S
H494 N491 0.984 . S
H495 N491 0.985 . S
H496 N490 0.984 . S
H497 N490 0.984 . S
H498 N486 0.984 . S
H499 N486 0.985 . S
C500 C501 1.363 . S
C500 C506 1.379 . S
C500 N508 1.356 . S
C501 C500 1.363 . S
C501 C507 1.363 . S
C502 C503 1.363 . S
C502 C507 1.379 . S
C502 N509 1.356 . S
C503 C502 1.363 . S
C503 C506 1.363 . S
N504 C506 1.356 . S
N504 H516 0.984 . S
N504 H517 0.985 . S
N505 C507 1.356 . S
N505 H510 0.984 . S
N505 H511 0.985 . S
C506 C500 1.379 . S
C506 C503 1.363 . S
C506 N504 1.356 . S
C507 C501 1.363 . S
C507 C502 1.379 . S
C507 N505 1.356 . S
N508 C500 1.356 . S
N508 H514 0.984 . S
N508 H515 0.984 . S
N509 C502 1.356 . S
N509 H512 0.984 . S
N509 H513 0.985 . S
H510 N505 0.984 . S
H511 N505 0.985 . S
H512 N509 0.984 . S
H513 N509 0.985 . S
H514 N508 0.984 . S
H515 N508 0.984 . S
H516 N504 0.984 . S
H517 N504 0.985 . S
C518 C519 1.363 . S
C518 C524 1.379 . S
C518 N526 1.356 . S
C519 C518 1.363 . S
C519 C525 1.363 . S
C520 C521 1.363 . S
C520 C525 1.379 . S
C520 N527 1.356 . S
C521 C520 1.363 . S
C521 C524 1.363 . S
N522 C524 1.356 . S
N522 H534 0.984 . S
N522 H535 0.985 . S
N523 C525 1.356 . S
N523 H528 0.984 . S
N523 H529 0.985 . S
C524 C518 1.379 . S
C524 C521 1.363 . S
C524 N522 1.356 . S
C525 C519 1.363 . S
C525 C520 1.379 . S
C525 N523 1.356 . S
N526 C518 1.356 . S
N526 H532 0.984 . S
N526 H533 0.984 . S
N527 C520 1.356 . S
N527 H530 0.984 . S
N527 H531 0.985 . S
H528 N523 0.984 . S
H529 N523 0.985 . S
H530 N527 0.984 . S
H531 N527 0.985 . S
H532 N526 0.984 . S
H533 N526 0.984 . S
H534 N522 0.984 . S
H535 N522 0.985 . S
C536 C537 1.363 1_565 S
C536 C542 1.379 . S
C536 N544 1.356 1_565 S
C537 C536 1.363 1_545 S
C537 C543 1.363 . S
C538 C539 1.363 1_545 S
C538 C543 1.379 . S
C538 N545 1.356 1_545 S
C539 C538 1.363 1_565 S
C539 C542 1.363 . S
N540 C542 1.356 . S
N540 H552 0.984 1_554 S
N540 H553 0.985 . S
N541 C543 1.356 . S
N541 H546 0.984 . S
N541 H547 0.985 . S
C542 C536 1.379 . S
C542 C539 1.363 . S
C542 N540 1.356 . S
C543 C537 1.363 . S
C543 C538 1.379 . S
C543 N541 1.356 . S
N544 C536 1.356 1_545 S
N544 H550 0.984 1_544 S
N544 H551 0.984 . S
N545 C538 1.356 1_565 S
N545 H548 0.984 . S
N545 H549 0.985 1_565 S
H546 N541 0.984 . S
H547 N541 0.985 . S
H548 N545 0.984 . S
H549 N545 0.985 1_545 S
H550 N544 0.984 1_566 S
H551 N544 0.984 . S
H552 N540 0.984 1_556 S
H553 N540 0.985 . S
C554 C555 1.363 . S
C554 C560 1.379 . S
C554 N562 1.356 . S
C555 C554 1.363 . S
C555 C561 1.363 1_655 S
C556 C557 1.363 . S
C556 C561 1.379 . S
C556 N563 1.356 . S
C557 C556 1.363 . S
C557 C560 1.363 1_455 S
N558 C560 1.356 1_455 S
N558 H570 0.984 1_456 S
N558 H571 0.985 . S
N559 C561 1.356 1_655 S
N559 H564 0.984 . S
N559 H565 0.985 1_655 S
C560 C554 1.379 . S
C560 C557 1.363 1_655 S
C560 N558 1.356 1_655 S
C561 C555 1.363 1_455 S
C561 C556 1.379 . S
C561 N559 1.356 1_455 S
N562 C554 1.356 . S
N562 H568 0.984 1_556 S
N562 H569 0.984 . S
N563 C556 1.356 . S
N563 H566 0.984 . S
N563 H567 0.985 . S
H564 N559 0.984 . S
H565 N559 0.985 1_455 S
H566 N563 0.984 . S
H567 N563 0.985 . S
H568 N562 0.984 1_554 S
H569 N562 0.984 . S
H570 N558 0.984 1_654 S
H571 N558 0.985 . S
C572 C573 1.363 1_545 S
C572 C578 1.379 . S
C572 N580 1.356 1_545 S
C573 C572 1.363 1_565 S
C573 C579 1.363 . S
C574 C575 1.363 1_565 S
C574 C579 1.379 . S
C574 N581 1.356 1_565 S
C575 C574 1.363 1_545 S
C575 C578 1.363 . S
N576 C578 1.356 . S
N576 H588 0.984 . S
N576 H589 0.985 . S
N577 C579 1.356 . S
N577 H582 0.984 . S
N577 H583 0.985 . S
C578 C572 1.379 . S
C578 C575 1.363 . S
C578 N576 1.356 . S
C579 C573 1.363 . S
C579 C574 1.379 . S
C579 N577 1.356 . S
N580 C572 1.356 1_565 S
N580 H586 0.984 1_565 S
N580 H587 0.984 . S
N581 C574 1.356 1_545 S
N581 H584 0.984 . S
N581 H585 0.985 1_545 S
H582 N577 0.984 . S
H583 N577 0.985 . S
H584 N581 0.984 . S
H585 N581 0.985 1_565 S
H586 N580 0.984 1_545 S
H587 N580 0.984 . S
H588 N576 0.984 . S
H589 N576 0.985 . S
C590 C591 1.363 1_455 S
C590 C596 1.379 . S
C590 N598 1.356 1_455 S
C591 C590 1.363 1_655 S
C591 C597 1.363 . S
C592 C593 1.363 1_655 S
C592 C597 1.379 . S
C592 N599 1.356 1_655 S
C593 C592 1.363 1_455 S
C593 C596 1.363 . S
N594 C596 1.356 . S
N594 H606 0.984 . S
N594 H607 0.985 . S
N595 C597 1.356 . S
N595 H600 0.984 . S
N595 H601 0.985 . S
C596 C590 1.379 . S
C596 C593 1.363 . S
C596 N594 1.356 . S
C597 C591 1.363 . S
C597 C592 1.379 . S
C597 N595 1.356 . S
N598 C590 1.356 1_655 S
N598 H604 0.984 1_655 S
N598 H605 0.984 . S
N599 C592 1.356 1_455 S
N599 H602 0.984 . S
N599 H603 0.985 1_455 S
H600 N595 0.984 . S
H601 N595 0.985 . S
H602 N599 0.984 . S
H603 N599 0.985 1_655 S
H604 N598 0.984 1_455 S
H605 N598 0.984 . S
H606 N594 0.984 . S
H607 N594 0.985 . S
C177 C128 1.464 . S
C179 C10 1.464 . S
C195 C30 1.499 . S
C197 C140 1.499 . S
C213 C172 1.464 . S
C215 C62 1.464 . S
C231 C76 1.499 . S
C233 C106 1.499 . S
C249 C96 1.384 . S
C251 C7 1.393 . S
C267 C29 1.397 . S
C269 C120 1.393 . S
C285 C65 1.393 . S
C287 C142 1.384 . S
C303 C164 1.393 . S
C305 C87 1.397 . S
C321 C8 1.393 . S
C323 C103 1.397 . S
C339 C131 1.393 . S
C341 C32 1.384 . S
C357 C54 1.393 . S
C359 C139 1.397 . S
C375 C84 1.384 . S
C377 C175 1.393 . S
C393 C37 1.263 . S
C395 C15 1.258 1_556 S
C411 C43 1.258 . S
C413 C59 1.264 . S
C429 C51 1.258 1_556 S
C431 C73 1.263 . S
C447 C81 1.258 . S
C449 C21 1.264 . S
C465 C95 1.259 . S
C467 C169 1.264 . S
C483 C109 1.263 . S
C485 C117 1.264 . S
C501 C153 1.259 . S
C503 C125 1.264 . S
C519 C161 1.264 . S
C521 C147 1.263 . S
C537 C18 1.779 . S
C539 C52 1.779 . S
C555 C74 1.761 . S
C557 C40 1.761 . S
C573 C150 1.761 . S
C575 C98 1.761 . S
C591 C162 1.779 . S
C593 C118 1.779 . S
