# Generated by pormake.
# Topology unf, (4)-cn, num edge types: 1
# Building blocks:
#     Node 0, Type 0, BuildingBlock: QUQFOY_clean_sbu_3, # of connection points: 4
#     Node 1, Type 0, BuildingBlock: QUQFOY_clean_sbu_3, # of connection points: 4
#     Node 2, Type 0, BuildingBlock: QUQFOY_clean_sbu_3, # of connection points: 4
#     Node 3, Type 0, BuildingBlock: QUQFOY_clean_sbu_3, # of connection points: 4
#     Node 4, Type 0, BuildingBlock: QUQFOY_clean_sbu_3, # of connection points: 4
#     Node 5, Type 0, BuildingBlock: QUQFOY_clean_sbu_3, # of connection points: 4
#     Node 6, Type 0, BuildingBlock: QUQFOY_clean_sbu_3, # of connection points: 4
#     Node 7, Type 0, BuildingBlock: QUQFOY_clean_sbu_3, # of connection points: 4
#     Node 8, Type 0, BuildingBlock: QUQFOY_clean_sbu_3, # of connection points: 4
#     Node 9, Type 0, BuildingBlock: QUQFOY_clean_sbu_3, # of connection points: 4
#     Node 10, Type 0, BuildingBlock: QUQFOY_clean_sbu_3, # of connection points: 4
#     Node 11, Type 0, BuildingBlock: QUQFOY_clean_sbu_3, # of connection points: 4
#     Edge 12, Type (0, 0), BuildingBlock: TEMPAE_clean_linker_10, # of connection points: 2
#     Edge 13, Type (0, 0), BuildingBlock: TEMPAE_clean_linker_10, # of connection points: 2
#     Edge 14, Type (0, 0), BuildingBlock: TEMPAE_clean_linker_10, # of connection points: 2
#     Edge 15, Type (0, 0), BuildingBlock: TEMPAE_clean_linker_10, # of connection points: 2
#     Edge 16, Type (0, 0), BuildingBlock: TEMPAE_clean_linker_10, # of connection points: 2
#     Edge 17, Type (0, 0), BuildingBlock: TEMPAE_clean_linker_10, # of connection points: 2
#     Edge 18, Type (0, 0), BuildingBlock: TEMPAE_clean_linker_10, # of connection points: 2
#     Edge 19, Type (0, 0), BuildingBlock: TEMPAE_clean_linker_10, # of connection points: 2
#     Edge 20, Type (0, 0), BuildingBlock: TEMPAE_clean_linker_10, # of connection points: 2
#     Edge 21, Type (0, 0), BuildingBlock: TEMPAE_clean_linker_10, # of connection points: 2
#     Edge 22, Type (0, 0), BuildingBlock: TEMPAE_clean_linker_10, # of connection points: 2
#     Edge 23, Type (0, 0), BuildingBlock: TEMPAE_clean_linker_10, # of connection points: 2
#     Edge 24, Type (0, 0), BuildingBlock: TEMPAE_clean_linker_10, # of connection points: 2
#     Edge 25, Type (0, 0), BuildingBlock: TEMPAE_clean_linker_10, # of connection points: 2
#     Edge 26, Type (0, 0), BuildingBlock: TEMPAE_clean_linker_10, # of connection points: 2
#     Edge 27, Type (0, 0), BuildingBlock: TEMPAE_clean_linker_10, # of connection points: 2
#     Edge 28, Type (0, 0), BuildingBlock: TEMPAE_clean_linker_10, # of connection points: 2
#     Edge 29, Type (0, 0), BuildingBlock: TEMPAE_clean_linker_10, # of connection points: 2
#     Edge 30, Type (0, 0), BuildingBlock: TEMPAE_clean_linker_10, # of connection points: 2
#     Edge 31, Type (0, 0), BuildingBlock: TEMPAE_clean_linker_10, # of connection points: 2
#     Edge 32, Type (0, 0), BuildingBlock: TEMPAE_clean_linker_10, # of connection points: 2
#     Edge 33, Type (0, 0), BuildingBlock: TEMPAE_clean_linker_10, # of connection points: 2
#     Edge 34, Type (0, 0), BuildingBlock: TEMPAE_clean_linker_10, # of connection points: 2
#     Edge 35, Type (0, 0), BuildingBlock: TEMPAE_clean_linker_10, # of connection points: 2
# Relax obj value: 0.224
# Max RMSD: 0.172
# Mean RMSD: 0.172
data_MOF--net-unf--node1-QUQFOY_clean_sbu_3--edge1-TEMPAE_clean_linker_10
_symmetry_space_group_name_H-M    P1
_symmetry_Int_Tables_number       1
_symmetry_cell_setting            triclinic
loop_
_symmetry_equiv_pos_as_xyz
'x, y, z'
_cell_length_a     38.715902
_cell_length_b     38.739674
_cell_length_c     38.642488
_cell_angle_alpha  89.980312
_cell_angle_beta   89.943638
_cell_angle_gamma 120.01992
loop_
_atom_site_label
_atom_site_type_symbol
_atom_site_fract_x
_atom_site_fract_y
_atom_site_fract_z
_atom_type_partial_charge
C0 C 0.12161 0.49737 0.0092 0.0
O1 O 0.14776 0.50746 0.98564 0.0
Cd2 Cd 0.16756 0.45749 0.98299 0.0
O3 O 0.12137 0.47612 0.03434 0.0
Cd4 Cd 0.15819 0.44669 0.06039 0.0
C5 C 0.07952 0.38041 0.01764 0.0
O6 O 0.21474 0.45809 0.02379 0.0
O7 O 0.17916 0.3999 0.04773 0.0
O8 O 0.19695 0.49636 0.10441 0.0
C9 C 0.20993 0.42374 0.03052 0.0
O10 O 0.10159 0.39871 0.99173 0.0
C11 C 0.18221 0.47226 0.1297 0.0
O12 O 0.09217 0.39086 0.04845 0.0
O13 O 0.15494 0.43687 0.12273 0.0
C14 C 0.48582 0.59626 0.01387 0.0
O15 O 0.47798 0.60789 0.98579 0.0
Cd16 Cd 0.52539 0.67805 0.97608 0.0
O17 O 0.50518 0.62155 0.03724 0.0
Cd18 Cd 0.53527 0.69088 0.05282 0.0
C19 C 0.60158 0.67235 0.01717 0.0
O20 O 0.52863 0.7327 0.00866 0.0
O21 O 0.58608 0.75413 0.03404 0.0
O22 O 0.48487 0.6882 0.09212 0.0
C23 C 0.56426 0.76092 0.01392 0.0
O24 O 0.58542 0.67519 0.98939 0.0
C25 C 0.50769 0.69998 0.11838 0.0
O26 O 0.58861 0.67539 0.04671 0.0
O27 O 0.54296 0.70611 0.11428 0.0
C28 C 0.36309 0.88321 0.04002 0.0
O29 O 0.34655 0.85696 0.01664 0.0
Cd30 Cd 0.27487 0.82823 0.01374 0.0
O31 O 0.34283 0.88401 0.06557 0.0
Cd32 Cd 0.27651 0.84663 0.09175 0.0
C33 C 0.27604 0.91453 0.03999 0.0
O34 O 0.2345 0.78517 0.05939 0.0
O35 O 0.20684 0.8167 0.08215 0.0
O36 O 0.29285 0.81494 0.13807 0.0
C37 C 0.2028 0.78617 0.06636 0.0
O38 O 0.2724 0.88984 0.01649 0.0
C39 C 0.28222 0.82975 0.16237 0.0
O40 O 0.27904 0.90742 0.07175 0.0
O41 O 0.27128 0.85458 0.15381 0.0
C42 C 0.46853 0.84753 0.48142 0.0
O43 O 0.47814 0.82962 0.50359 0.0
Cd44 Cd 0.53223 0.81883 0.4906 0.0
O45 O 0.47911 0.84958 0.44991 0.0
Cd46 Cd 0.51567 0.82751 0.41187 0.0
C47 C 0.58582 0.91039 0.44902 0.0
O48 O 0.52065 0.77561 0.44295 0.0
O49 O 0.56991 0.81359 0.40927 0.0
O50 O 0.46398 0.78383 0.37111 0.0
C51 C 0.55314 0.78295 0.4285 0.0
O52 O 0.57983 0.88779 0.47504 0.0
C53 C 0.48277 0.80395 0.34459 0.0
O54 O 0.56616 0.89659 0.42113 0.0
O55 O 0.51507 0.83645 0.34989 0.0
C56 C 0.1222 0.62439 0.51966 0.0
O57 O 0.13117 0.648 0.54513 0.0
Cd58 Cd 0.13542 0.71101 0.53685 0.0
O59 O 0.12475 0.6373 0.48891 0.0
Cd60 Cd 0.14321 0.7009 0.45967 0.0
C61 C 0.05108 0.67175 0.4866 0.0
O62 O 0.18678 0.75521 0.49805 0.0
O63 O 0.14662 0.76485 0.46587 0.0
O64 O 0.19621 0.70818 0.42045 0.0
C65 C 0.177 0.77939 0.48543 0.0
O66 O 0.06776 0.68752 0.51527 0.0
C67 C 0.17803 0.70855 0.39319 0.0
O68 O 0.07154 0.67108 0.46112 0.0
O69 O 0.14287 0.70264 0.39694 0.0
C70 C 0.35333 0.51234 0.50153 0.0
O71 O 0.32516 0.50121 0.52328 0.0
Cd72 Cd 0.26808 0.43889 0.5101 0.0
O73 O 0.34575 0.4993 0.47057 0.0
Cd74 Cd 0.28829 0.45654 0.43262 0.0
C75 C 0.31865 0.39835 0.46676 0.0
O76 O 0.22883 0.44307 0.46467 0.0
O77 O 0.22438 0.39477 0.43333 0.0
O78 O 0.28775 0.50492 0.39199 0.0
C79 C 0.20701 0.40878 0.45162 0.0
O80 O 0.30164 0.40161 0.49385 0.0
C81 C 0.29118 0.48773 0.36524 0.0
O82 O 0.31847 0.41537 0.43866 0.0
O83 O 0.29582 0.45788 0.37025 0.0
C84 C 0.86536 0.49099 0.95576 0.0
O85 O 0.83698 0.47908 0.97737 0.0
Cd86 Cd 0.82807 0.53263 0.99595 0.0
O87 O 0.87447 0.52147 0.93719 0.0
Cd88 Cd 0.85081 0.56866 0.92455 0.0
C89 C 0.92563 0.60696 0.97906 0.0
O90 O 0.78984 0.54915 0.95773 0.0
O91 O 0.83301 0.61223 0.95428 0.0
O92 O 0.82451 0.54247 0.86708 0.0
C93 C 0.79822 0.58497 0.96269 0.0
O94 O 0.89887 0.58372 0.00036 0.0
C95 C 0.84078 0.57656 0.85266 0.0
O96 O 0.91692 0.60904 0.94767 0.0
O97 O 0.8629 0.60659 0.87138 0.0
C98 C 0.49883 0.34729 0.99031 0.0
O99 O 0.49483 0.32263 0.01378 0.0
Cd100 Cd 0.43242 0.26222 0.01116 0.0
O101 O 0.47953 0.33487 0.96214 0.0
Cd102 Cd 0.43356 0.27366 0.9308 0.0
C103 C 0.3819 0.30645 0.9739 0.0
O104 O 0.42869 0.21932 0.96527 0.0
O105 O 0.3746 0.20872 0.93946 0.0
O106 O 0.47766 0.27366 0.88567 0.0
C107 C 0.3927 0.19504 0.95715 0.0
O108 O 0.39118 0.29284 0.00016 0.0
C109 C 0.45654 0.27461 0.8609 0.0
O110 O 0.3928 0.3031 0.94359 0.0
O111 O 0.42575 0.27665 0.86888 0.0
C112 C 0.63707 0.11395 0.99494 0.0
O113 O 0.66156 0.1276 0.01994 0.0
Cd114 Cd 0.72824 0.14081 0.01452 0.0
O115 O 0.64946 0.11481 0.96418 0.0
Cd116 Cd 0.71452 0.13741 0.93449 0.0
C117 C 0.69924 0.05281 0.97123 0.0
O118 O 0.76408 0.18979 0.9712 0.0
O119 O 0.78427 0.15595 0.9416 0.0
O120 O 0.71277 0.17946 0.88774 0.0
C121 C 0.79299 0.18592 0.9606 0.0
O122 O 0.71232 0.07311 -0.00106 0.0
C123 C 0.71419 0.15777 0.86371 0.0
O124 O 0.6965 0.06893 0.9435 0.0
O125 O 0.7136 0.12597 0.87277 0.0
C126 C 0.47489 0.10549 0.5136 0.0
O127 O 0.48548 0.1263 0.48618 0.0
Cd128 Cd 0.44181 0.15277 0.47441 0.0
O129 O 0.45416 0.11102 0.53599 0.0
Cd130 Cd 0.42644 0.15378 0.54913 0.0
C131 C 0.35729 0.07375 0.50972 0.0
O132 O 0.44623 0.20814 0.50697 0.0
O133 O 0.38539 0.17789 0.52654 0.0
O134 O 0.47155 0.19397 0.59539 0.0
C135 C 0.41277 0.20684 0.50974 0.0
O136 O 0.37749 0.09167 0.48286 0.0
C137 C 0.44456 0.18101 0.61853 0.0
O138 O 0.36822 0.08954 0.53948 0.0
O139 O 0.40952 0.15495 0.60935 0.0
C140 C 0.88205 0.35324 0.52256 0.0
O141 O 0.85974 0.34558 0.4963 0.0
Cd142 Cd 0.83268 0.27718 0.47743 0.0
O143 O 0.87833 0.325 0.54173 0.0
Cd144 Cd 0.83753 0.25342 0.55052 0.0
C145 C 0.91489 0.27047 0.50255 0.0
O146 O 0.78153 0.22212 0.50974 0.0
O147 O 0.81323 0.19074 0.52291 0.0
O148 O 0.79801 0.25494 0.59868 0.0
C149 C 0.78383 0.19045 0.50809 0.0
O150 O 0.89421 0.2742 0.47873 0.0
C151 C 0.81097 0.23953 0.62044 0.0
O152 O 0.90208 0.2631 0.53361 0.0
O153 O 0.83711 0.23123 0.60981 0.0
C154 C 0.60609 0.5155 0.54027 0.0
O155 O 0.60857 0.49101 0.52011 0.0
Cd156 Cd 0.67135 0.5275 0.4899 0.0
O157 O 0.63783 0.54641 0.54985 0.0
Cd158 Cd 0.71024 0.5766 0.54701 0.0
C159 C 0.68042 0.62094 0.49396 0.0
O160 O 0.73355 0.53784 0.51381 0.0
O161 O 0.7626 0.6018 0.50531 0.0
O162 O 0.71187 0.55281 0.60464 0.0
C163 C 0.76307 0.56949 0.50168 0.0
O164 O 0.67096 0.58936 0.47676 0.0
C165 C 0.74023 0.58582 0.61548 0.0
O166 O 0.69681 0.62626 0.52352 0.0
O167 O 0.75426 0.61527 0.59472 0.0
C168 C 0.22476 0.36981 0.01745 0.0
C169 C 0.23744 0.41062 0.01781 0.0
C170 C 0.25053 0.35616 0.00743 0.0
C171 C 0.29019 0.38404 -0.00213 0.0
C172 C 0.30305 0.42531 -0.00256 0.0
C173 C 0.27631 0.43816 0.00717 0.0
C174 C 0.23554 0.31186 0.00805 0.0
C175 C 0.34518 0.45582 0.98747 0.0
C176 C 0.35908 0.34277 0.01233 0.0
C177 C 0.3605 0.32867 0.97924 0.0
C178 C 0.33838 0.36324 0.01826 0.0
C179 C 0.31833 0.36947 0.99049 0.0
C180 C 0.32114 0.35694 0.95672 0.0
C181 C 0.34237 0.33678 0.95145 0.0
C182 C 0.33661 0.37674 0.05456 0.0
C183 C 0.30009 0.36305 0.9265 0.0
H184 H 0.19458 0.34836 0.02531 0.0
H185 H 0.28613 0.46973 0.00741 0.0
H186 H 0.2407 0.30197 0.98259 0.0
H187 H 0.25229 0.30519 0.02769 0.0
H188 H 0.20323 0.29408 0.01427 0.0
H189 H 0.35053 0.48677 0.98853 0.0
H190 H 0.36661 0.45357 0.00505 0.0
H191 H 0.35152 0.44982 0.96085 0.0
H192 H 0.37396 0.33759 0.03377 0.0
H193 H 0.34383 0.32641 0.92573 0.0
H194 H 0.30555 0.35979 0.06443 0.0
H195 H 0.34549 0.40876 0.05456 0.0
H196 H 0.3563 0.3723 0.0727 0.0
H197 H 0.26737 0.3436 0.92962 0.0
H198 H 0.30904 0.35591 0.90139 0.0
H199 H 0.30641 0.3943 0.92571 0.0
C200 C 0.62177 0.82102 0.98925 0.0
C201 C 0.58103 0.8002 -0.00266 0.0
C202 C 0.6408 0.86117 0.97959 0.0
C203 C 0.61861 0.88107 0.97871 0.0
C204 C 0.57684 0.85949 0.9846 0.0
C205 C 0.55836 0.81894 0.9936 0.0
C206 C 0.6852 0.8829 0.97287 0.0
C207 C 0.5523 0.87988 0.98407 0.0
C208 C 0.67583 0.98979 0.00449 0.0
C209 C 0.68196 0.00908 0.97248 0.0
C210 C 0.65486 0.94815 0.00676 0.0
C211 C 0.64007 0.92517 0.97623 0.0
C212 C 0.64698 0.94431 0.94373 0.0
C213 C 0.66775 0.98611 0.94224 0.0
C214 C 0.64804 0.92875 0.04195 0.0
C215 C 0.63205 0.92065 0.91066 0.0
H216 H 0.63917 0.80625 0.99178 0.0
H217 H 0.52686 0.80274 0.0 0.0
H218 H 0.69254 0.90154 0.94923 0.0
H219 H 0.70096 0.90313 0.99486 0.0
H220 H 0.69686 0.86206 0.96981 0.0
H221 H 0.51977 0.85814 0.98446 0.0
H222 H 0.55971 0.89946 0.00708 0.0
H223 H 0.55933 0.89906 0.96082 0.0
H224 H 0.68639 0.00723 0.02802 0.0
H225 H 0.67227 0.00078 0.91739 0.0
H226 H 0.66177 0.90957 0.04294 0.0
H227 H 0.6156 0.9093 0.04667 0.0
H228 H 0.66077 0.95094 0.06321 0.0
H229 H 0.64417 0.90018 0.90799 0.0
H230 H 0.64059 0.94009 0.8874 0.0
H231 H 0.59907 0.90193 0.91148 0.0
C232 C 0.15803 0.72335 0.03369 0.0
C233 C 0.16301 0.7554 0.05416 0.0
C234 C 0.12028 0.69565 0.02058 0.0
C235 C 0.08704 0.70028 0.02828 0.0
C236 C 0.09186 0.73203 0.04961 0.0
C237 C 0.12971 0.75911 0.0623 0.0
C238 C 0.116 0.6617 -0.00162 0.0
C239 C 0.05714 0.73797 0.05849 0.0
C240 C -0.00382 0.66141 0.97078 0.0
C241 C 0.96757 0.62957 0.99055 0.0
C242 C 0.03589 0.68342 0.98187 0.0
C243 C 0.0472 0.67311 0.01333 0.0
C244 C 0.0189 0.63977 0.0325 0.0
C245 C 0.97935 0.61846 0.02095 0.0
C246 C 0.06536 0.71876 0.96069 0.0
C247 C 0.03005 0.62749 0.06586 0.0
H248 H 0.18365 0.72024 0.02751 0.0
H249 H 0.13323 0.78365 0.07829 0.0
H250 H 0.0972 0.63305 0.01201 0.0
H251 H 0.10081 0.66056 0.97372 0.0
H252 H 0.14525 0.66422 0.99238 0.0
H253 H 0.06583 0.76372 0.07605 0.0
H254 H 0.04456 0.74298 0.03447 0.0
H255 H 0.03307 0.7108 0.0711 0.0
H256 H 0.98735 0.66977 0.94703 0.0
H257 H 0.95758 0.59317 0.03587 0.0
H258 H 0.09278 0.71713 0.95596 0.0
H259 H 0.07427 0.74667 0.97524 0.0
H260 H 0.05281 0.7206 0.93537 0.0
H261 H 0.05604 0.62327 0.0616 0.0
H262 H 0.00509 0.59944 0.07657 0.0
H263 H 0.03895 0.65141 0.08544 0.0
C264 C 0.64257 0.6386 0.4522 0.0
C265 C 0.66732 0.64864 0.48139 0.0
C266 C 0.62512 0.66128 0.44261 0.0
C267 C 0.63288 0.69505 0.46248 0.0
C268 C 0.65903 0.70631 0.49115 0.0
C269 C 0.67589 0.68289 0.50034 0.0
C270 C 0.5971 0.64816 0.41202 0.0
C271 C 0.66815 0.74234 0.51279 0.0
C272 C 0.61027 0.77072 0.42207 0.0
C273 C 0.57317 0.76008 0.43694 0.0
C274 C 0.63018 0.74995 0.43031 0.0
C275 C 0.6125 0.71775 0.45389 0.0
C276 C 0.57498 0.70672 0.46887 0.0
C277 C 0.55575 0.72807 0.46023 0.0
C278 C 0.67009 0.76241 0.41375 0.0
C279 C 0.5552 0.67244 0.49408 0.0
H280 H 0.63557 0.61209 0.43746 0.0
H281 H 0.69493 0.69083 0.52294 0.0
H282 H 0.56647 0.63901 0.42103 0.0
H283 H 0.60614 0.67325 0.39364 0.0
H284 H 0.59624 0.62274 0.39795 0.0
H285 H 0.69095 0.74845 0.53294 0.0
H286 H 0.67896 0.76909 0.49607 0.0
H287 H 0.64051 0.73762 0.52571 0.0
H288 H 0.6239 0.79542 0.40401 0.0
H289 H 0.52711 0.71975 0.47182 0.0
H290 H 0.66839 0.73726 0.39863 0.0
H291 H 0.69307 0.77011 0.43403 0.0
H292 H 0.68 0.78845 0.39625 0.0
H293 H 0.55206 0.64497 0.48223 0.0
H294 H 0.52523 0.66655 0.50231 0.0
H295 H 0.57416 0.67893 0.5174 0.0
C296 C 0.18282 0.84645 0.48594 0.0
C297 C 0.19946 0.82238 0.49326 0.0
C298 C 0.20494 0.88784 0.49063 0.0
C299 C 0.24481 0.90551 0.50231 0.0
C300 C 0.26142 0.88124 0.51064 0.0
C301 C 0.23837 0.83984 0.50629 0.0
C302 C 0.18612 0.91278 0.48196 0.0
C303 C 0.30407 0.89915 0.52271 0.0
C304 C 0.31888 0.01124 0.47563 0.0
C305 C 0.32433 0.03209 0.50669 0.0
C306 C 0.2923 0.97016 0.47368 0.0
C307 C 0.27021 0.94952 0.50338 0.0
C308 C 0.27398 0.97064 0.53432 0.0
C309 C 0.3012 0.01173 0.53568 0.0
C310 C 0.28933 0.94856 0.44029 0.0
C311 C 0.25045 0.94959 0.56633 0.0
H312 H 0.1526 0.83298 0.47611 0.0
H313 H 0.25134 0.8213 0.51186 0.0
H314 H 0.19008 0.93313 0.5037 0.0
H315 H 0.20114 0.9316 0.459 0.0
H316 H 0.15376 0.89419 0.47627 0.0
H317 H 0.31189 0.87606 0.52965 0.0
H318 H 0.32461 0.91821 0.50195 0.0
H319 H 0.30933 0.91849 0.54555 0.0
H320 H 0.33671 0.02665 0.45313 0.0
H321 H 0.30518 0.02764 0.55975 0.0
H322 H 0.25777 0.93085 0.43193 0.0
H323 H 0.3004 0.92741 0.44441 0.0
H324 H 0.30693 0.96931 0.41905 0.0
H325 H 0.2183 0.93102 0.56003 0.0
H326 H 0.25394 0.97082 0.5872 0.0
H327 H 0.2606 0.92929 0.5763 0.0
C328 C 0.98221 0.28297 0.52103 0.0
C329 C 0.9564 0.2809 0.49462 0.0
C330 C 0.02327 0.29987 0.51486 0.0
C331 C 0.03873 0.3153 0.48164 0.0
C332 C 0.01255 0.31117 0.45442 0.0
C333 C 0.97168 0.29376 0.46119 0.0
C334 C 0.05032 0.30317 0.54433 0.0
C335 C 0.02793 0.32745 0.41867 0.0
C336 C 0.14388 0.40283 0.47407 0.0
C337 C 0.1643 0.38461 0.46033 0.0
C338 C 0.10305 0.38042 0.48161 0.0
C339 C 0.08242 0.33872 0.47584 0.0
C340 C 0.1031 0.32001 0.46281 0.0
C341 C 0.14379 0.34328 0.45487 0.0
C342 C 0.08179 0.40149 0.49501 0.0
C343 C 0.08214 0.27555 0.45684 0.0
H344 H 0.97067 0.27298 0.5469 0.0
H345 H 0.952 0.29211 0.44052 0.0
H346 H 0.07146 0.29335 0.53595 0.0
H347 H 0.06827 0.33478 0.55248 0.0
H348 H 0.03328 0.28513 0.5671 0.0
H349 H 0.00341 0.31914 0.39976 0.0
H350 H 0.04606 0.36046 0.41981 0.0
H351 H 0.04761 0.31639 0.40899 0.0
H352 H 0.15966 0.43478 0.47825 0.0
H353 H 0.15959 0.32905 0.44453 0.0
H354 H 0.06745 0.38858 0.52025 0.0
H355 H 0.05776 0.39707 0.4768 0.0
H356 H 0.10225 0.43402 0.4984 0.0
H357 H 0.0666 0.25946 0.4808 0.0
H358 H 0.10307 0.2653 0.44873 0.0
H359 H 0.0591 0.26713 0.43649 0.0
C360 C 0.65102 0.66431 0.98219 0.0
C361 C 0.63304 0.66152 0.01437 0.0
C362 C 0.67769 0.65028 0.9776 0.0
C363 C 0.68682 0.63314 0.00595 0.0
C364 C 0.66943 0.63085 0.03873 0.0
C365 C 0.64266 0.64512 0.04259 0.0
C366 C 0.69567 0.65332 0.9422 0.0
C367 C 0.67849 0.61267 0.06947 0.0
C368 C 0.72859 0.56758 0.97802 0.0
C369 C 0.7696 0.59503 0.97831 0.0
C370 C 0.70106 0.57886 0.98895 0.0
C371 C 0.71509 0.61827 0.00081 0.0
C372 C 0.75656 0.64516 0.00334 0.0
C373 C 0.78333 0.6333 0.99179 0.0
C374 C 0.657 0.54947 0.98563 0.0
C375 C 0.77268 0.68724 0.01633 0.0
H376 H 0.64378 0.67698 0.96026 0.0
H377 H 0.62845 0.64239 0.06741 0.0
H378 H 0.72867 0.67132 0.94367 0.0
H379 H 0.68791 0.62321 0.93287 0.0
H380 H 0.68516 0.6672 0.92283 0.0
H381 H 0.66455 0.61548 0.09365 0.0
H382 H 0.6673 0.58058 0.06455 0.0
H383 H 0.7112 0.62713 0.07339 0.0
H384 H 0.71793 0.53793 0.96769 0.0
H385 H 0.81508 0.65444 0.99254 0.0
H386 H 0.64452 0.55878 0.96409 0.0
H387 H 0.64098 0.54907 0.00955 0.0
H388 H 0.65093 0.51874 0.98033 0.0
H389 H 0.76646 0.70464 -0.00297 0.0
H390 H 0.80538 0.70264 0.02085 0.0
H391 H 0.75766 0.68724 0.0408 0.0
C392 C 0.32981 0.13279 0.97284 0.0
C393 C 0.3716 0.15411 0.97105 0.0
C394 C 0.30946 0.09388 0.98613 0.0
C395 C 0.33146 0.07571 -0.00294 0.0
C396 C 0.37368 0.09722 0.99545 0.0
C397 C 0.39326 0.13637 0.98279 0.0
C398 C 0.26447 0.07207 0.9881 0.0
C399 C 0.39815 0.07857 0.00636 0.0
C400 C 0.29024 0.98369 0.05387 0.0
C401 C 0.28285 0.95415 0.02929 0.0
C402 C 0.30379 0.02322 0.04363 0.0
C403 C 0.31061 0.03335 0.00809 0.0
C404 C 0.30092 0.00325 0.98309 0.0
C405 C 0.28679 0.96398 0.99397 0.0
C406 C 0.31288 0.05447 0.07093 0.0
C407 C 0.30813 0.01289 0.94494 0.0
H408 H 0.313 0.14664 0.9641 0.0
H409 H 0.42556 0.15281 0.98138 0.0
H410 H 0.25183 0.04607 0.97039 0.0
H411 H 0.25445 0.06041 0.01466 0.0
H412 H 0.25202 0.09146 0.98101 0.0
H413 H 0.43072 0.09941 0.00359 0.0
H414 H 0.39171 0.06884 0.03375 0.0
H415 H 0.38993 0.05166 0.99051 0.0
H416 H 0.287 0.97633 0.08119 0.0
H417 H 0.28096 0.9414 0.97468 0.0
H418 H 0.30065 0.07387 0.06335 0.0
H419 H 0.34566 0.07377 0.07351 0.0
H420 H 0.30047 0.041 0.09659 0.0
H421 H 0.29431 0.03061 0.93657 0.0
H422 H 0.29607 0.98566 0.92868 0.0
H423 H 0.34067 0.03127 0.94006 0.0
C424 C 0.01476 0.32163 0.03659 0.0
C425 C 0.03743 0.35005 0.01137 0.0
C426 C 0.9743 0.29386 0.03082 0.0
C427 C 0.95615 0.2952 -0.00058 0.0
C428 C 0.97876 0.3244 0.97425 0.0
C429 C 0.01918 0.35117 0.98037 0.0
C430 C 0.9509 0.26322 0.05828 0.0
C431 C 0.96018 0.32763 0.94092 0.0
C432 C 0.86457 0.20433 0.96416 0.0
C433 C 0.8343 0.21281 0.97232 0.0
C434 C 0.90417 0.23024 0.97403 0.0
C435 C 0.91375 0.26559 0.99226 0.0
C436 C 0.88316 0.27383 0.00135 0.0
C437 C 0.84376 0.2473 0.99124 0.0
C438 C 0.93595 0.22031 0.96409 0.0
C439 C 0.89202 0.31148 0.02026 0.0
H440 H 0.02869 0.32094 0.0607 0.0
H441 H 0.03629 0.37372 0.96111 0.0
H442 H 0.92527 0.26643 0.06682 0.0
H443 H 0.93854 0.23278 0.04744 0.0
H444 H 0.9694 0.26605 0.08123 0.0
H445 H 0.98179 0.35254 0.92431 0.0
H446 H 0.9482 0.29943 0.9261 0.0
H447 H 0.9348 0.33238 0.94674 0.0
H448 H 0.85742 0.17759 0.94972 0.0
H449 H 0.82049 0.25406 -0.00244 0.0
H450 H 0.95344 0.22143 0.98722 0.0
H451 H 0.957 0.2428 0.94543 0.0
H452 H 0.9232 0.19033 0.95211 0.0
H453 H 0.9156 0.31971 0.04005 0.0
H454 H 0.86496 0.30852 0.03307 0.0
H455 H 0.9028 0.3363 0.00136 0.0
C456 C 0.36557 0.22789 0.48933 0.0
C457 C 0.40511 0.23738 0.49479 0.0
C458 C 0.35633 0.25722 0.48014 0.0
C459 C 0.38745 0.2972 0.47653 0.0
C460 C 0.42771 0.30663 0.4798 0.0
C461 C 0.43612 0.27642 0.48888 0.0
C462 C 0.313 0.24572 0.47649 0.0
C463 C 0.4619 0.34879 0.47614 0.0
C464 C 0.35066 0.36306 0.43854 0.0
C465 C 0.34007 0.37577 0.46868 0.0
C466 C 0.36892 0.33962 0.44054 0.0
C467 C 0.37678 0.32891 0.47337 0.0
C468 C 0.36875 0.34407 0.50374 0.0
C469 C 0.35026 0.36709 0.50104 0.0
C470 C 0.37812 0.3248 0.40764 0.0
C471 C 0.37788 0.33434 0.53922 0.0
H472 H 0.34154 0.19757 0.49336 0.0
H473 H 0.46675 0.28382 0.49308 0.0
H474 H 0.30458 0.25916 0.4979 0.0
H475 H 0.3082 0.25737 0.45183 0.0
H476 H 0.29273 0.21291 0.47714 0.0
H477 H 0.48924 0.34916 0.46682 0.0
H478 H 0.45474 0.36667 0.45817 0.0
H479 H 0.46867 0.3634 0.50188 0.0
H480 H 0.34352 0.3703 0.41343 0.0
H481 H 0.34328 0.37785 0.52442 0.0
H482 H 0.35758 0.2922 0.40521 0.0
H483 H 0.40897 0.32986 0.40845 0.0
H484 H 0.37485 0.33967 0.38431 0.0
H485 H 0.35832 0.30205 0.54452 0.0
H486 H 0.37327 0.35147 0.55998 0.0
H487 H 0.40922 0.34089 0.54033 0.0
C488 C 0.76489 0.12663 0.47875 0.0
C489 C 0.75399 0.15421 0.49009 0.0
C490 C 0.73629 0.0891 0.46655 0.0
C491 C 0.69571 0.07874 0.4661 0.0
C492 C 0.68481 0.10745 0.47521 0.0
C493 C 0.71429 0.14517 0.48697 0.0
C494 C 0.74924 0.05951 0.45674 0.0
C495 C 0.64178 0.09738 0.47489 0.0
C496 C 0.62493 0.97935 0.42408 0.0
C497 C 0.61344 0.95371 0.45277 0.0
C498 C 0.65064 0.02059 0.42801 0.0
C499 C 0.66482 0.03632 0.46138 0.0
C500 C 0.65231 0.0107 0.49048 0.0
C501 C 0.62698 0.96977 0.4858 0.0
C502 C 0.66349 0.0471 0.39644 0.0
C503 C 0.66651 0.02634 0.5266 0.0
H504 H 0.79574 0.13386 0.4806 0.0
H505 H 0.7059 0.16659 0.49562 0.0
H506 H 0.73919 0.03603 0.47692 0.0
H507 H 0.73536 0.04463 0.43196 0.0
H508 H 0.78216 0.07381 0.45418 0.0
H509 H 0.63878 0.12423 0.47831 0.0
H510 H 0.62729 0.08259 0.45024 0.0
H511 H 0.62534 0.07613 0.49614 0.0
H512 H 0.61425 0.96718 0.39852 0.0
H513 H 0.61769 0.95033 0.50822 0.0
H514 H 0.69576 0.05896 0.39167 0.0
H515 H 0.65923 0.07304 0.40071 0.0
H516 H 0.64672 0.03094 0.37292 0.0
H517 H 0.69923 0.03872 0.52831 0.0
H518 H 0.65186 0.00283 0.54666 0.0
H519 H 0.66052 0.05087 0.53257 0.0
C520 C 0.98701 0.62275 0.45811 0.0
C521 C 0.00717 0.65139 0.48394 0.0
C522 C 0.94517 0.60181 0.45648 0.0
C523 C 0.9232 0.6102 0.48095 0.0
C524 C 0.94342 0.63881 0.50724 0.0
C525 C 0.98513 0.6589 0.50849 0.0
C526 C 0.92452 0.57093 0.42858 0.0
C527 C 0.92102 0.64876 0.53378 0.0
C528 C 0.82364 0.60182 0.46533 0.0
C529 C 0.79942 0.57112 0.48827 0.0
C530 C 0.8634 0.6123 0.45987 0.0
C531 C 0.87926 0.59167 0.47805 0.0
C532 C 0.85373 0.55779 0.49826 0.0
C533 C 0.81379 0.54776 0.5031 0.0
C534 C 0.88941 0.64822 0.43767 0.0
C535 C 0.86944 0.53471 0.51766 0.0
H536 H 0.0039 0.61626 0.43943 0.0
H537 H 0.00053 0.68082 0.5286 0.0
H538 H 0.9029 0.5419 0.44038 0.0
H539 H 0.90734 0.57992 0.41151 0.0
H540 H 0.94589 0.56672 0.41244 0.0
H541 H 0.9412 0.6708 0.55316 0.0
H542 H 0.90409 0.66114 0.52067 0.0
H543 H 0.89912 0.62136 0.54764 0.0
H544 H 0.81227 0.61956 0.45353 0.0
H545 H 0.79503 0.524 0.52086 0.0
H546 H 0.90906 0.6424 0.42073 0.0
H547 H 0.90887 0.67382 0.45459 0.0
H548 H 0.87147 0.65692 0.42124 0.0
H549 H 0.89171 0.53155 0.50201 0.0
H550 H 0.84502 0.50458 0.52513 0.0
H551 H 0.8845 0.55108 0.54163 0.0
C552 C 0.26542 0.52042 0.32518 0.0
C553 C 0.28457 0.49814 0.32997 0.0
C554 C 0.25125 0.52318 0.29242 0.0
C555 C 0.25672 0.5035 0.26388 0.0
C556 C 0.27895 0.48381 0.26811 0.0
C557 C 0.29242 0.4812 0.30114 0.0
C558 C 0.22788 0.54462 0.28896 0.0
C559 C 0.28612 0.46307 0.23821 0.0
C560 C 0.17943 0.45761 0.19286 0.0
C561 C 0.19859 0.48359 0.16512 0.0
C562 C 0.19722 0.465 0.22564 0.0
C563 C 0.23531 0.49904 0.23076 0.0
C564 C 0.25393 0.52648 0.20334 0.0
C565 C 0.23525 0.51849 0.17082 0.0
C566 C 0.17606 0.43527 0.25436 0.0
C567 C 0.29451 0.56307 0.20777 0.0
H568 H 0.25927 0.53361 0.34737 0.0
H569 H 0.30755 0.46428 0.30462 0.0
H570 H 0.2372 0.56371 0.26551 0.0
H571 H 0.19572 0.52238 0.28608 0.0
H572 H 0.23154 0.56341 0.31191 0.0
H573 H 0.30778 0.45322 0.24483 0.0
H574 H 0.25754 0.43648 0.23063 0.0
H575 H 0.29747 0.48308 0.21538 0.0
H576 H 0.15098 0.43075 0.18871 0.0
H577 H 0.25027 0.53871 0.14948 0.0
H578 H 0.17461 0.45074 0.278 0.0
H579 H 0.19303 0.42006 0.261 0.0
H580 H 0.14525 0.41226 0.24705 0.0
H581 H 0.29569 0.57902 0.23197 0.0
H582 H 0.30247 0.58403 0.18564 0.0
H583 H 0.31742 0.55397 0.20989 0.0
C584 C 0.51828 0.71656 0.18124 0.0
C585 C 0.49478 0.70889 0.15159 0.0
C586 C 0.50884 0.72913 0.21203 0.0
C587 C 0.47533 0.73464 0.21308 0.0
C588 C 0.45056 0.72548 0.18364 0.0
C589 C 0.4605 0.71252 0.15322 0.0
C590 C 0.53567 0.73794 0.24307 0.0
C591 C 0.41471 0.73114 0.18373 0.0
C592 C 0.44764 0.74599 0.30461 0.0
C593 C 0.47183 0.78726 0.3093 0.0
C594 C 0.44587 0.72836 0.27242 0.0
C595 C 0.46844 0.75274 0.24435 0.0
C596 C 0.48942 0.79473 0.24808 0.0
C597 C 0.49107 0.81149 0.28061 0.0
C598 C 0.42291 0.68349 0.26946 0.0
C599 C 0.51306 0.82185 0.21853 0.0
H600 H 0.54462 0.71351 0.1802 0.0
H601 H 0.44223 0.7067 0.13034 0.0
H602 H 0.55088 0.77028 0.24902 0.0
H603 H 0.51777 0.72175 0.26613 0.0
H604 H 0.55878 0.72938 0.23879 0.0
H605 H 0.39578 0.71802 0.16044 0.0
H606 H 0.39622 0.71751 0.20714 0.0
H607 H 0.42485 0.76347 0.18441 0.0
H608 H 0.43259 0.72707 0.32668 0.0
H609 H 0.50942 0.84346 0.28401 0.0
H610 H 0.44415 0.67214 0.26982 0.0
H611 H 0.40632 0.67399 0.24468 0.0
H612 H 0.40149 0.6694 0.29117 0.0
H613 H 0.54007 0.81945 0.21387 0.0
H614 H 0.52266 0.85354 0.22404 0.0
H615 H 0.49524 0.81284 0.19437 0.0
C616 C 0.26769 0.83269 0.22499 0.0
C617 C 0.27786 0.8149 0.19832 0.0
C618 C 0.25658 0.81484 0.25777 0.0
C619 C 0.25514 0.77806 0.26385 0.0
C620 C 0.26778 0.76127 0.23771 0.0
C621 C 0.27921 0.78003 0.20528 0.0
C622 C 0.24409 0.83414 0.28523 0.0
C623 C 0.26663 0.72211 0.24314 0.0
C624 C 0.24003 0.74291 0.35734 0.0
C625 C 0.19827 0.72035 0.35924 0.0
C626 C 0.25932 0.76076 0.32609 0.0
C627 C 0.23623 0.75534 0.29606 0.0
C628 C 0.19425 0.73038 0.2974 0.0
C629 C 0.17577 0.71346 0.32904 0.0
C630 C 0.30408 0.78733 0.32575 0.0
C631 C 0.1686 0.72315 0.26578 0.0
H632 H 0.2669 0.8598 0.21988 0.0
H633 H 0.28709 0.76609 0.1848 0.0
H634 H 0.21145 0.81584 0.28961 0.0
H635 H 0.25904 0.83569 0.31014 0.0
H636 H 0.25122 0.86473 0.27783 0.0
H637 H 0.28248 0.71588 0.22224 0.0
H638 H 0.28016 0.72184 0.26835 0.0
H639 H 0.23513 0.69756 0.24368 0.0
H640 H 0.25757 0.74855 0.38069 0.0
H641 H 0.1435 0.69586 0.33036 0.0
H642 H 0.31162 0.81886 0.32298 0.0
H643 H 0.31737 0.78027 0.30332 0.0
H644 H 0.31805 0.78449 0.34987 0.0
H645 H 0.16975 0.7513 0.25807 0.0
H646 H 0.13695 0.70016 0.27041 0.0
H647 H 0.18009 0.7135 0.24371 0.0
C648 C 0.82253 0.55136 0.79216 0.0
C649 C 0.83162 0.5814 0.81657 0.0
C650 C 0.81078 0.55448 0.75848 0.0
C651 C 0.80653 0.58765 0.74957 0.0
C652 C 0.81618 0.6183 0.77408 0.0
C653 C 0.8293 0.61512 0.80713 0.0
C654 C 0.80208 0.52186 0.73268 0.0
C655 C 0.81079 0.65346 0.766 0.0
C656 C 0.79857 0.60981 0.65497 0.0
C657 C 0.75718 0.58893 0.65016 0.0
C658 C 0.81521 0.60947 0.68717 0.0
C659 C 0.78967 0.58905 0.71538 0.0
C660 C 0.74776 0.56922 0.71085 0.0
C661 C 0.73204 0.5687 0.67806 0.0
C662 C 0.85999 0.62973 0.69067 0.0
C663 C 0.71951 0.5483 0.74056 0.0
H664 H 0.82453 0.52539 0.79945 0.0
H665 H 0.83593 0.63816 0.82617 0.0
H666 H 0.76971 0.50519 0.72678 0.0
H667 H 0.81808 0.5349 0.70802 0.0
H668 H 0.81093 0.50043 0.74246 0.0
H669 H 0.82091 0.67539 0.78751 0.0
H670 H 0.82756 0.66887 0.74227 0.0
H671 H 0.77881 0.64284 0.7609 0.0
H672 H 0.81795 0.62495 0.63314 0.0
H673 H 0.7 0.55264 0.67422 0.0
H674 H 0.86869 0.60747 0.69817 0.0
H675 H 0.87043 0.65244 0.71148 0.0
H676 H 0.87565 0.64443 0.66627 0.0
H677 H 0.72264 0.52276 0.74941 0.0
H678 H 0.68787 0.53697 0.73332 0.0
H679 H 0.72702 0.56895 0.76281 0.0
C680 C 0.44658 0.27864 0.79765 0.0
C681 C 0.46484 0.26943 0.82457 0.0
C682 C 0.44892 0.2681 0.76339 0.0
C683 C 0.46934 0.24715 0.75607 0.0
C684 C 0.48975 0.2398 0.78286 0.0
C685 C 0.48753 0.25137 0.81683 0.0
C686 C 0.42755 0.27731 0.73538 0.0
C687 C 0.51154 0.21725 0.77613 0.0
C688 C 0.42586 0.17558 0.68078 0.0
C689 C 0.45296 0.19664 0.65422 0.0
C690 C 0.43178 0.19115 0.71435 0.0
C691 C 0.46525 0.22904 0.72137 0.0
C692 C 0.49325 0.25009 0.69485 0.0
C693 C 0.48693 0.23344 0.66157 0.0
C694 C 0.4016 0.16743 0.74212 0.0
C695 C 0.52899 0.29077 0.70128 0.0
H696 H 0.42935 0.29298 0.8035 0.0
H697 H 0.50165 0.24413 0.8376 0.0
H698 H 0.44726 0.2907 0.71257 0.0
H699 H 0.40104 0.24927 0.72671 0.0
H700 H 0.41745 0.29803 0.74447 0.0
H701 H 0.52991 0.21833 0.79861 0.0
H702 H 0.48954 0.18558 0.77058 0.0
H703 H 0.53115 0.22943 0.75311 0.0
H704 H 0.39974 0.14698 0.67526 0.0
H705 H 0.50788 0.24989 0.64102 0.0
H706 H 0.38617 0.1836 0.75062 0.0
H707 H 0.41681 0.164 0.76508 0.0
H708 H 0.37878 0.13733 0.73302 0.0
H709 H 0.51882 0.31234 0.707 0.0
H710 H 0.54949 0.30189 0.67868 0.0
H711 H 0.54585 0.29002 0.72418 0.0
C712 C 0.71224 0.14276 0.8008 0.0
C713 C 0.72081 0.17072 0.82717 0.0
C714 C 0.72401 0.15499 0.76654 0.0
C715 C 0.7457 0.1962 0.75867 0.0
C716 C 0.75294 0.22453 0.78494 0.0
C717 C 0.74 0.21139 0.81887 0.0
C718 C 0.71479 0.12382 0.7391 0.0
C719 C 0.77643 0.26873 0.77766 0.0
C720 C 0.81632 0.22367 0.6822 0.0
C721 C 0.79524 0.23045 0.65618 0.0
C722 C 0.80101 0.21369 0.71594 0.0
C723 C 0.7633 0.20952 0.72361 0.0
C724 C 0.74201 0.21661 0.69748 0.0
C725 C 0.75845 0.2274 0.66414 0.0
C726 C 0.82498 0.20711 0.74328 0.0
C727 C 0.70141 0.2117 0.70449 0.0
H728 H 0.6972 0.11127 0.80712 0.0
H729 H 0.74695 0.23311 0.83927 0.0
H730 H 0.70131 0.12964 0.7161 0.0
H731 H 0.74283 0.12525 0.73051 0.0
H732 H 0.69409 0.09318 0.74863 0.0
H733 H 0.77662 0.28672 0.80012 0.0
H734 H 0.80771 0.27745 0.77129 0.0
H735 H 0.76398 0.27627 0.75494 0.0
H736 H 0.84488 0.22624 0.6762 0.0
H737 H 0.74192 0.23239 0.64403 0.0
H738 H 0.8086 0.17564 0.75213 0.0
H739 H 0.82915 0.22612 0.76615 0.0
H740 H 0.85478 0.21388 0.73366 0.0
H741 H 0.6802 0.18033 0.71177 0.0
H742 H 0.68931 0.2196 0.68168 0.0
H743 H 0.70296 0.23065 0.72661 0.0
C744 C 0.08369 0.52925 0.98544 0.0
C745 C 0.08421 0.4973 0.00182 0.0
C746 C 0.04719 0.52676 0.97671 0.0
C747 C 0.01084 0.49098 0.98343 0.0
C748 C 0.01151 0.45838 -0.00092 0.0
C749 C 0.04805 0.46221 0.0086 0.0
C750 C 0.04744 0.56256 0.961 0.0
C751 C 0.97364 0.41924 0.00554 0.0
C752 C 0.9153 0.49354 -0.00377 0.0
C753 C 0.8979 0.48309 0.96332 0.0
C754 C 0.9524 0.49699 0.00281 0.0
C755 C 0.97184 0.48813 0.97619 0.0
C756 C 0.95355 0.47576 0.94327 0.0
C757 C 0.91714 0.47444 0.93691 0.0
C758 C 0.97147 0.51156 0.03786 0.0
C759 C 0.97288 0.46484 0.91466 0.0
H760 H 0.11164 0.55619 0.97991 0.0
H761 H 0.04831 0.43699 0.02046 0.0
H762 H 0.02853 0.55393 0.9375 0.0
H763 H 0.03466 0.57485 0.97977 0.0
H764 H 0.07802 0.5864 0.95398 0.0
H765 H 0.97954 0.39634 0.0169 0.0
H766 H 0.9538 0.42377 0.02338 0.0
H767 H 0.95722 0.40754 0.98087 0.0
H768 H 0.9011 0.50175 0.01627 0.0
H769 H 0.90409 0.46743 0.91126 0.0
H770 H 0.00114 0.53873 0.03478 0.0
H771 H 0.97626 0.48859 0.05052 0.0
H772 H 0.95303 0.51867 0.05528 0.0
H773 H 0.00178 0.49122 0.90739 0.0
H774 H 0.95379 0.45378 0.89123 0.0
H775 H 0.97932 0.44146 0.92375 0.0
C776 C 0.46111 0.52612 0.99314 0.0
C777 C 0.48493 0.55764 0.01547 0.0
C778 C 0.46589 0.49246 0.99107 0.0
C779 C 0.49581 0.49101 0.01116 0.0
C780 C 0.51964 0.52259 0.03386 0.0
C781 C 0.51337 0.55502 0.03625 0.0
C782 C 0.43915 0.45859 0.9673 0.0
C783 C 0.55277 0.52285 0.05477 0.0
C784 C 0.48635 0.39051 0.02833 0.0
C785 C 0.50838 0.38751 0.00084 0.0
C786 C 0.48218 0.42416 0.03209 0.0
C787 C 0.5021 0.45633 0.00876 0.0
C788 C 0.52718 0.45488 0.98273 0.0
C789 C 0.52917 0.4199 0.97847 0.0
C790 C 0.45425 0.42409 0.05947 0.0
C791 C 0.54997 0.48926 0.95813 0.0
H792 H 0.43931 0.52807 0.97694 0.0
H793 H 0.53255 0.57948 0.05319 0.0
H794 H 0.45695 0.44993 0.95071 0.0
H795 H 0.4188 0.43211 0.98302 0.0
H796 H 0.42094 0.46638 0.95032 0.0
H797 H 0.57099 0.55141 0.06877 0.0
H798 H 0.53999 0.49826 0.07396 0.0
H799 H 0.57276 0.51775 0.0376 0.0
H800 H 0.46915 0.36493 0.04496 0.0
H801 H 0.54538 0.41715 0.95675 0.0
H802 H 0.43014 0.42724 0.04704 0.0
H803 H 0.4705 0.44988 0.07707 0.0
H804 H 0.4404 0.39632 0.07516 0.0
H805 H 0.52891 0.49083 0.93963 0.0
H806 H 0.57271 0.48601 0.94317 0.0
H807 H 0.56507 0.51792 0.97243 0.0
C808 C 0.43327 0.9145 0.01758 0.0
C809 C 0.40304 0.91804 0.03415 0.0
C810 C 0.47055 0.94847 0.01093 0.0
C811 C 0.47697 0.98676 0.01999 0.0
C812 C 0.44607 0.9904 0.03589 0.0
C813 C 0.40973 0.95599 0.04323 0.0
C814 C 0.50324 0.94336 0.9948 0.0
C815 C 0.45124 0.03066 0.04494 0.0
C816 C 0.58331 0.06906 0.03546 0.0
C817 C 0.59422 0.08754 0.00287 0.0
C818 C 0.54516 0.03649 0.04139 0.0
C819 C 0.51665 0.02286 0.01447 0.0
C820 C 0.52641 0.04321 0.98233 0.0
C821 C 0.56536 0.07496 0.97669 0.0
C822 C 0.53615 0.01525 0.07587 0.0
C823 C 0.4962 0.0305 0.9535 0.0
H824 H 0.42793 0.8852 0.01033 0.0
H825 H 0.38599 0.9589 0.05524 0.0
H826 H 0.51422 0.96131 0.97077 0.0
H827 H 0.52889 0.95443 0.01286 0.0
H828 H 0.49309 0.91174 0.98847 0.0
H829 H 0.42367 0.02833 0.05603 0.0
H830 H 0.47572 0.04599 0.06397 0.0
H831 H 0.45975 0.04973 0.02149 0.0
H832 H 0.60545 0.07819 0.05579 0.0
H833 H 0.5736 0.08906 0.95146 0.0
H834 H 0.52943 0.98411 0.07195 0.0
H835 H 0.5094 0.01381 0.08779 0.0
H836 H 0.5614 0.03009 0.09432 0.0
H837 H 0.489 0.00065 0.94392 0.0
H838 H 0.50725 0.05173 0.93142 0.0
H839 H 0.46804 0.02798 0.96322 0.0
C840 C 0.43845 0.89066 0.47212 0.0
C841 C 0.45878 0.8777 0.49366 0.0
C842 C 0.43942 0.9268 0.47866 0.0
C843 C 0.46263 0.95113 0.50651 0.0
C844 C 0.48139 0.93714 0.52939 0.0
C845 C 0.4786 0.90022 0.52305 0.0
C846 C 0.41731 0.9399 0.45476 0.0
C847 C 0.50704 0.96246 0.55895 0.0
C848 C 0.50276 0.06226 0.4946 0.0
C849 C 0.47675 0.06829 0.51561 0.0
C850 C 0.49943 0.02447 0.49238 0.0
C851 C 0.46862 0.99189 0.5108 0.0
C852 C 0.44292 -0.00194 0.53261 0.0
C853 C 0.44779 0.03627 0.53526 0.0
C854 C 0.52824 0.01917 0.46972 0.0
C855 C 0.40944 0.96411 0.55237 0.0
H856 H 0.42337 0.87345 0.44928 0.0
H857 H 0.49509 0.89079 0.53942 0.0
H858 H 0.399 0.94918 0.46999 0.0
H859 H 0.43901 0.9661 0.43946 0.0
H860 H 0.39749 0.91591 0.43658 0.0
H861 H 0.51667 0.94585 0.57613 0.0
H862 H 0.53405 0.98881 0.54841 0.0
H863 H 0.49083 0.97372 0.57473 0.0
H864 H 0.52511 0.08683 0.47938 0.0
H865 H 0.42721 0.04044 0.55135 0.0
H866 H 0.51173 -0.00319 0.44926 0.0
H867 H 0.54436 0.00771 0.48541 0.0
H868 H 0.55045 0.04746 0.45713 0.0
H869 H 0.39239 0.93802 0.53522 0.0
H870 H 0.38845 0.97264 0.56385 0.0
H871 H 0.42203 0.95451 0.57357 0.0
C872 C 0.95191 0.3954 0.54258 0.0
C873 C 0.91804 0.39291 0.52678 0.0
C874 C 0.98842 0.43116 0.54304 0.0
C875 C 0.99092 0.46572 0.52836 0.0
C876 C 0.95662 0.46383 0.51322 0.0
C877 C 0.92062 0.4272 0.51217 0.0
C878 C 0.02444 0.43169 0.55869 0.0
C879 C 0.95805 0.5004 0.4979 0.0
C880 C 0.07305 0.56804 0.55573 0.0
C881 C 0.09674 0.58107 0.52575 0.0
C882 C 0.03911 0.53001 0.55739 0.0
C883 C 0.02942 0.50395 0.52885 0.0
C884 C 0.05555 0.51533 0.50007 0.0
C885 C 0.08869 0.55402 0.49865 0.0
C886 C 0.01191 0.51907 0.58848 0.0
C887 C 0.04715 0.48756 0.46984 0.0
H888 H 0.95043 0.36886 0.5534 0.0
H889 H 0.89463 0.42532 0.49978 0.0
H890 H 0.05018 0.44589 0.54067 0.0
H891 H 0.03324 0.44967 0.58276 0.0
H892 H 0.01865 0.40128 0.56507 0.0
H893 H 0.92888 0.49384 0.4869 0.0
H894 H 0.96687 0.52368 0.51809 0.0
H895 H 0.98088 0.51302 0.47712 0.0
H896 H 0.07882 0.58875 0.57676 0.0
H897 H 0.10694 0.56386 0.47547 0.0
H898 H 0.00465 0.48944 0.59867 0.0
H899 H 0.9834 0.5171 0.58065 0.0
H900 H 0.0253 0.5413 0.60965 0.0
H901 H 0.03991 0.45753 0.47907 0.0
H902 H 0.07285 0.49884 0.45173 0.0
H903 H 0.02086 0.4841 0.45539 0.0
C904 C 0.39974 0.51828 0.54857 0.0
C905 C 0.39434 0.52745 0.51453 0.0
C906 C 0.43452 0.51798 0.55812 0.0
C907 C 0.46501 0.52824 0.53332 0.0
C908 C 0.46167 0.542 0.50019 0.0
C909 C 0.42617 0.5411 0.49108 0.0
C910 C 0.43675 0.50288 0.59361 0.0
C911 C 0.49407 0.5544 0.47326 0.0
C912 C 0.56788 0.54843 0.55837 0.0
C913 C 0.56758 0.51428 0.54562 0.0
C914 C 0.53426 0.55288 0.55563 0.0
C915 C 0.49901 0.52186 0.54086 0.0
C916 C 0.49731 0.48586 0.53073 0.0
C917 C 0.53183 0.48263 0.53288 0.0
C918 C 0.53732 0.59181 0.56636 0.0
C919 C 0.45968 0.45161 0.51583 0.0
H920 H 0.3753 0.50751 0.56691 0.0
H921 H 0.42229 0.54836 0.46479 0.0
H922 H 0.43135 0.47201 0.5913 0.0
H923 H 0.46675 0.52133 0.60515 0.0
H924 H 0.41413 0.50252 0.61156 0.0
H925 H 0.49123 0.57264 0.45246 0.0
H926 H 0.52413 0.57168 0.48501 0.0
H927 H 0.49187 0.52735 0.46126 0.0
H928 H 0.59527 0.5731 0.5684 0.0
H929 H 0.53126 0.45611 0.52314 0.0
H930 H 0.51456 0.58637 0.58634 0.0
H931 H 0.53114 0.60562 0.54383 0.0
H932 H 0.56723 0.61336 0.57679 0.0
H933 H 0.43365 0.44481 0.53246 0.0
H934 H 0.46175 0.42416 0.51312 0.0
H935 H 0.45392 0.45998 0.4899 0.0
loop_
_geom_bond_atom_site_label_1
_geom_bond_atom_site_label_2
_geom_bond_distance
_geom_bond_site_symmetry_2
_ccdc_geom_bond_type
C0 O1 1.306 . S
C0 O3 1.160 . S
O1 C0 1.306 . S
O1 Cd2 2.228 1_554 S
Cd2 O1 2.228 1_556 S
Cd2 O6 2.273 1_556 S
Cd2 O10 2.277 1_556 S
O3 C0 1.160 . S
O3 Cd4 2.203 . S
Cd4 O3 2.203 . S
Cd4 O6 2.411 . S
Cd4 O7 2.333 . S
Cd4 O8 2.352 . S
Cd4 O12 2.277 . S
Cd4 O13 2.356 . S
C5 O10 1.209 . S
C5 O12 1.226 . S
O6 Cd2 2.273 1_554 S
O6 Cd4 2.411 . S
O6 C9 1.320 . S
O7 Cd4 2.333 . S
O7 C9 1.214 . S
O8 Cd4 2.352 . S
O8 C11 1.258 . S
C9 O6 1.320 . S
C9 O7 1.214 . S
O10 Cd2 2.277 1_554 S
O10 C5 1.209 . S
C11 O8 1.258 . S
C11 O13 1.282 . S
O12 Cd4 2.277 . S
O12 C5 1.226 . S
O13 Cd4 2.356 . S
O13 C11 1.282 . S
C14 O15 1.306 . S
C14 O17 1.160 . S
O15 C14 1.306 . S
O15 Cd16 2.228 1_554 S
Cd16 O15 2.228 1_556 S
Cd16 O20 2.273 1_556 S
Cd16 O24 2.277 1_556 S
O17 C14 1.160 . S
O17 Cd18 2.203 . S
Cd18 O17 2.203 . S
Cd18 O20 2.411 . S
Cd18 O21 2.333 . S
Cd18 O22 2.352 . S
Cd18 O26 2.277 . S
Cd18 O27 2.356 . S
C19 O24 1.209 . S
C19 O26 1.226 . S
O20 Cd16 2.273 1_554 S
O20 Cd18 2.411 . S
O20 C23 1.320 . S
O21 Cd18 2.333 . S
O21 C23 1.214 . S
O22 Cd18 2.352 . S
O22 C25 1.258 . S
C23 O20 1.320 . S
C23 O21 1.214 . S
O24 Cd16 2.277 1_554 S
O24 C19 1.209 . S
C25 O22 1.258 . S
C25 O27 1.282 . S
O26 Cd18 2.277 . S
O26 C19 1.226 . S
O27 Cd18 2.356 . S
O27 C25 1.282 . S
C28 O29 1.306 . S
C28 O31 1.160 . S
O29 C28 1.306 . S
O29 Cd30 2.228 1_554 S
Cd30 O29 2.228 1_556 S
Cd30 O34 2.273 1_556 S
Cd30 O38 2.277 1_556 S
O31 C28 1.160 . S
O31 Cd32 2.203 . S
Cd32 O31 2.203 . S
Cd32 O34 2.411 . S
Cd32 O35 2.333 . S
Cd32 O36 2.352 . S
Cd32 O40 2.277 . S
Cd32 O41 2.356 . S
C33 O38 1.209 . S
C33 O40 1.226 . S
O34 Cd30 2.273 1_554 S
O34 Cd32 2.411 . S
O34 C37 1.320 . S
O35 Cd32 2.333 . S
O35 C37 1.214 . S
O36 Cd32 2.352 . S
O36 C39 1.258 . S
C37 O34 1.320 . S
C37 O35 1.214 . S
O38 Cd30 2.277 1_554 S
O38 C33 1.209 . S
C39 O36 1.258 . S
C39 O41 1.282 . S
O40 Cd32 2.277 . S
O40 C33 1.226 . S
O41 Cd32 2.356 . S
O41 C39 1.282 . S
C42 O43 1.306 . S
C42 O45 1.160 . S
O43 C42 1.306 . S
O43 Cd44 2.228 . S
Cd44 O43 2.228 . S
Cd44 O48 2.273 . S
Cd44 O52 2.277 . S
O45 C42 1.160 . S
O45 Cd46 2.203 . S
Cd46 O45 2.203 . S
Cd46 O48 2.411 . S
Cd46 O49 2.333 . S
Cd46 O50 2.352 . S
Cd46 O54 2.277 . S
Cd46 O55 2.356 . S
C47 O52 1.209 . S
C47 O54 1.226 . S
O48 Cd44 2.273 . S
O48 Cd46 2.411 . S
O48 C51 1.320 . S
O49 Cd46 2.333 . S
O49 C51 1.214 . S
O50 Cd46 2.352 . S
O50 C53 1.258 . S
C51 O48 1.320 . S
C51 O49 1.214 . S
O52 Cd44 2.277 . S
O52 C47 1.209 . S
C53 O50 1.258 . S
C53 O55 1.282 . S
O54 Cd46 2.277 . S
O54 C47 1.226 . S
O55 Cd46 2.356 . S
O55 C53 1.282 . S
C56 O57 1.306 . S
C56 O59 1.160 . S
O57 C56 1.306 . S
O57 Cd58 2.228 . S
Cd58 O57 2.228 . S
Cd58 O62 2.273 . S
Cd58 O66 2.277 . S
O59 C56 1.160 . S
O59 Cd60 2.203 . S
Cd60 O59 2.203 . S
Cd60 O62 2.411 . S
Cd60 O63 2.333 . S
Cd60 O64 2.352 . S
Cd60 O68 2.277 . S
Cd60 O69 2.356 . S
C61 O66 1.209 . S
C61 O68 1.226 . S
O62 Cd58 2.273 . S
O62 Cd60 2.411 . S
O62 C65 1.320 . S
O63 Cd60 2.333 . S
O63 C65 1.214 . S
O64 Cd60 2.352 . S
O64 C67 1.258 . S
C65 O62 1.320 . S
C65 O63 1.214 . S
O66 Cd58 2.277 . S
O66 C61 1.209 . S
C67 O64 1.258 . S
C67 O69 1.282 . S
O68 Cd60 2.277 . S
O68 C61 1.226 . S
O69 Cd60 2.356 . S
O69 C67 1.282 . S
C70 O71 1.306 . S
C70 O73 1.160 . S
O71 C70 1.306 . S
O71 Cd72 2.228 . S
Cd72 O71 2.228 . S
Cd72 O76 2.273 . S
Cd72 O80 2.277 . S
O73 C70 1.160 . S
O73 Cd74 2.203 . S
Cd74 O73 2.203 . S
Cd74 O76 2.411 . S
Cd74 O77 2.333 . S
Cd74 O78 2.352 . S
Cd74 O82 2.277 . S
Cd74 O83 2.356 . S
C75 O80 1.209 . S
C75 O82 1.226 . S
O76 Cd72 2.273 . S
O76 Cd74 2.411 . S
O76 C79 1.320 . S
O77 Cd74 2.333 . S
O77 C79 1.214 . S
O78 Cd74 2.352 . S
O78 C81 1.258 . S
C79 O76 1.320 . S
C79 O77 1.214 . S
O80 Cd72 2.277 . S
O80 C75 1.209 . S
C81 O78 1.258 . S
C81 O83 1.282 . S
O82 Cd74 2.277 . S
O82 C75 1.226 . S
O83 Cd74 2.356 . S
O83 C81 1.282 . S
C84 O85 1.306 . S
C84 O87 1.160 . S
O85 C84 1.306 . S
O85 Cd86 2.228 1_556 S
Cd86 O85 2.228 1_554 S
Cd86 O90 2.273 1_554 S
Cd86 O94 2.277 1_554 S
O87 C84 1.160 . S
O87 Cd88 2.203 . S
Cd88 O87 2.203 . S
Cd88 O90 2.411 . S
Cd88 O91 2.333 . S
Cd88 O92 2.352 . S
Cd88 O96 2.277 . S
Cd88 O97 2.356 . S
C89 O94 1.209 . S
C89 O96 1.226 . S
O90 Cd86 2.273 1_556 S
O90 Cd88 2.411 . S
O90 C93 1.320 . S
O91 Cd88 2.333 . S
O91 C93 1.214 . S
O92 Cd88 2.352 . S
O92 C95 1.258 . S
C93 O90 1.320 . S
C93 O91 1.214 . S
O94 Cd86 2.277 1_556 S
O94 C89 1.209 . S
C95 O92 1.258 . S
C95 O97 1.282 . S
O96 Cd88 2.277 . S
O96 C89 1.226 . S
O97 Cd88 2.356 . S
O97 C95 1.282 . S
C98 O99 1.306 . S
C98 O101 1.160 . S
O99 C98 1.306 . S
O99 Cd100 2.228 1_556 S
Cd100 O99 2.228 1_554 S
Cd100 O104 2.273 1_554 S
Cd100 O108 2.277 1_554 S
O101 C98 1.160 . S
O101 Cd102 2.203 . S
Cd102 O101 2.203 . S
Cd102 O104 2.411 . S
Cd102 O105 2.333 . S
Cd102 O106 2.352 . S
Cd102 O110 2.277 . S
Cd102 O111 2.356 . S
C103 O108 1.209 . S
C103 O110 1.226 . S
O104 Cd100 2.273 1_556 S
O104 Cd102 2.411 . S
O104 C107 1.320 . S
O105 Cd102 2.333 . S
O105 C107 1.214 . S
O106 Cd102 2.352 . S
O106 C109 1.258 . S
C107 O104 1.320 . S
C107 O105 1.214 . S
O108 Cd100 2.277 1_556 S
O108 C103 1.209 . S
C109 O106 1.258 . S
C109 O111 1.282 . S
O110 Cd102 2.277 . S
O110 C103 1.226 . S
O111 Cd102 2.356 . S
O111 C109 1.282 . S
C112 O113 1.306 . S
C112 O115 1.160 . S
O113 C112 1.306 . S
O113 Cd114 2.228 1_556 S
Cd114 O113 2.228 1_554 S
Cd114 O118 2.273 1_554 S
Cd114 O122 2.277 1_554 S
O115 C112 1.160 . S
O115 Cd116 2.203 . S
Cd116 O115 2.203 . S
Cd116 O118 2.411 . S
Cd116 O119 2.333 . S
Cd116 O120 2.352 . S
Cd116 O124 2.277 . S
Cd116 O125 2.356 . S
C117 O122 1.209 . S
C117 O124 1.226 . S
O118 Cd114 2.273 1_556 S
O118 Cd116 2.411 . S
O118 C121 1.320 . S
O119 Cd116 2.333 . S
O119 C121 1.214 . S
O120 Cd116 2.352 . S
O120 C123 1.258 . S
C121 O118 1.320 . S
C121 O119 1.214 . S
O122 Cd114 2.277 1_556 S
O122 C117 1.209 . S
C123 O120 1.258 . S
C123 O125 1.282 . S
O124 Cd116 2.277 . S
O124 C117 1.226 . S
O125 Cd116 2.356 . S
O125 C123 1.282 . S
C126 O127 1.306 . S
C126 O129 1.160 . S
O127 C126 1.306 . S
O127 Cd128 2.228 . S
Cd128 O127 2.228 . S
Cd128 O132 2.273 . S
Cd128 O136 2.277 . S
O129 C126 1.160 . S
O129 Cd130 2.203 . S
Cd130 O129 2.203 . S
Cd130 O132 2.411 . S
Cd130 O133 2.333 . S
Cd130 O134 2.352 . S
Cd130 O138 2.277 . S
Cd130 O139 2.356 . S
C131 O136 1.209 . S
C131 O138 1.226 . S
O132 Cd128 2.273 . S
O132 Cd130 2.411 . S
O132 C135 1.320 . S
O133 Cd130 2.333 . S
O133 C135 1.214 . S
O134 Cd130 2.352 . S
O134 C137 1.258 . S
C135 O132 1.320 . S
C135 O133 1.214 . S
O136 Cd128 2.277 . S
O136 C131 1.209 . S
C137 O134 1.258 . S
C137 O139 1.282 . S
O138 Cd130 2.277 . S
O138 C131 1.226 . S
O139 Cd130 2.356 . S
O139 C137 1.282 . S
C140 O141 1.306 . S
C140 O143 1.160 . S
O141 C140 1.306 . S
O141 Cd142 2.228 . S
Cd142 O141 2.228 . S
Cd142 O146 2.273 . S
Cd142 O150 2.277 . S
O143 C140 1.160 . S
O143 Cd144 2.203 . S
Cd144 O143 2.203 . S
Cd144 O146 2.411 . S
Cd144 O147 2.333 . S
Cd144 O148 2.352 . S
Cd144 O152 2.277 . S
Cd144 O153 2.356 . S
C145 O150 1.209 . S
C145 O152 1.226 . S
O146 Cd142 2.273 . S
O146 Cd144 2.411 . S
O146 C149 1.320 . S
O147 Cd144 2.333 . S
O147 C149 1.214 . S
O148 Cd144 2.352 . S
O148 C151 1.258 . S
C149 O146 1.320 . S
C149 O147 1.214 . S
O150 Cd142 2.277 . S
O150 C145 1.209 . S
C151 O148 1.258 . S
C151 O153 1.282 . S
O152 Cd144 2.277 . S
O152 C145 1.226 . S
O153 Cd144 2.356 . S
O153 C151 1.282 . S
C154 O155 1.306 . S
C154 O157 1.160 . S
O155 C154 1.306 . S
O155 Cd156 2.228 . S
Cd156 O155 2.228 . S
Cd156 O160 2.273 . S
Cd156 O164 2.277 . S
O157 C154 1.160 . S
O157 Cd158 2.203 . S
Cd158 O157 2.203 . S
Cd158 O160 2.411 . S
Cd158 O161 2.333 . S
Cd158 O162 2.352 . S
Cd158 O166 2.277 . S
Cd158 O167 2.356 . S
C159 O164 1.209 . S
C159 O166 1.226 . S
O160 Cd156 2.273 . S
O160 Cd158 2.411 . S
O160 C163 1.320 . S
O161 Cd158 2.333 . S
O161 C163 1.214 . S
O162 Cd158 2.352 . S
O162 C165 1.258 . S
C163 O160 1.320 . S
C163 O161 1.214 . S
O164 Cd156 2.277 . S
O164 C159 1.209 . S
C165 O162 1.258 . S
C165 O167 1.282 . S
O166 Cd158 2.277 . S
O166 C159 1.226 . S
O167 Cd158 2.356 . S
O167 C165 1.282 . S
C168 C169 1.391 . S
C168 C170 1.394 . S
C168 H184 0.931 . S
C169 C168 1.391 . S
C169 C173 1.374 1_554 S
C170 C168 1.394 . S
C170 C171 1.369 1_554 S
C170 C174 1.531 . S
C171 C170 1.369 1_556 S
C171 C172 1.410 . S
C171 C179 1.503 . S
C172 C171 1.410 . S
C172 C173 1.393 . S
C172 C175 1.511 . S
C173 C169 1.374 1_556 S
C173 C172 1.393 . S
C173 H185 0.930 . S
C174 C170 1.531 . S
C174 H186 0.960 . S
C174 H187 0.962 . S
C174 H188 0.960 . S
C175 C172 1.511 . S
C175 H189 0.961 . S
C175 H190 0.961 . S
C175 H191 0.961 . S
C176 C177 1.370 . S
C176 C178 1.363 1_556 S
C176 H192 0.931 1_556 S
C177 C176 1.370 . S
C177 C181 1.408 . S
C178 C176 1.363 1_554 S
C178 C179 1.370 1_554 S
C178 C182 1.524 . S
C179 C171 1.503 . S
C179 C178 1.370 1_556 S
C179 C180 1.403 . S
C180 C179 1.403 . S
C180 C181 1.404 . S
C180 C183 1.539 . S
C181 C177 1.408 . S
C181 C180 1.404 . S
C181 H193 0.930 . S
C182 C178 1.524 . S
C182 H194 0.956 . S
C182 H195 0.961 . S
C182 H196 0.961 . S
C183 C180 1.539 . S
C183 H197 0.958 . S
C183 H198 0.961 . S
C183 H199 0.960 . S
H184 C168 0.931 . S
H185 C173 0.930 . S
H186 C174 0.960 . S
H187 C174 0.962 . S
H188 C174 0.960 . S
H189 C175 0.961 . S
H190 C175 0.961 . S
H191 C175 0.961 . S
H192 C176 0.931 1_554 S
H193 C181 0.930 . S
H194 C182 0.956 . S
H195 C182 0.961 . S
H196 C182 0.961 . S
H197 C183 0.958 . S
H198 C183 0.961 . S
H199 C183 0.960 . S
C200 C201 1.391 1_556 S
C200 C202 1.394 . S
C200 H216 0.931 . S
C201 C200 1.391 1_554 S
C201 C205 1.376 . S
C202 C200 1.394 . S
C202 C203 1.369 1_556 S
C202 C206 1.531 . S
C203 C202 1.369 1_554 S
C203 C204 1.410 . S
C203 C211 1.503 1_554 S
C204 C203 1.410 . S
C204 C205 1.392 . S
C204 C207 1.511 . S
C205 C201 1.376 . S
C205 C204 1.392 . S
C205 H217 0.929 . S
C206 C202 1.531 . S
C206 H218 0.960 . S
C206 H219 0.962 . S
C206 H220 0.960 . S
C207 C204 1.511 . S
C207 H221 0.961 . S
C207 H222 0.961 . S
C207 H223 0.961 . S
C208 C209 1.370 . S
C208 C210 1.363 . S
C208 H224 0.931 . S
C209 C208 1.370 . S
C209 C213 1.408 . S
C210 C208 1.363 . S
C210 C211 1.370 . S
C210 C214 1.524 1_556 S
C211 C203 1.503 1_556 S
C211 C210 1.370 . S
C211 C212 1.403 . S
C212 C211 1.403 . S
C212 C213 1.404 . S
C212 C215 1.539 . S
C213 C209 1.408 . S
C213 C212 1.404 . S
C213 H225 0.930 . S
C214 C210 1.524 1_554 S
C214 H226 0.956 1_554 S
C214 H227 0.961 . S
C214 H228 0.961 . S
C215 C212 1.539 . S
C215 H229 0.958 . S
C215 H230 0.961 . S
C215 H231 0.960 . S
H216 C200 0.931 . S
H217 C205 0.929 . S
H218 C206 0.960 . S
H219 C206 0.962 . S
H220 C206 0.960 . S
H221 C207 0.961 . S
H222 C207 0.961 . S
H223 C207 0.961 . S
H224 C208 0.931 . S
H225 C213 0.930 . S
H226 C214 0.956 1_556 S
H227 C214 0.961 . S
H228 C214 0.961 . S
H229 C215 0.958 . S
H230 C215 0.961 . S
H231 C215 0.960 . S
C232 C233 1.391 . S
C232 C234 1.394 . S
C232 H248 0.931 . S
C233 C232 1.391 . S
C233 C237 1.376 . S
C234 C232 1.394 . S
C234 C235 1.369 . S
C234 C238 1.531 . S
C235 C234 1.369 . S
C235 C236 1.410 . S
C235 C243 1.503 1_554 S
C236 C235 1.410 . S
C236 C237 1.392 . S
C236 C239 1.511 . S
C237 C233 1.376 . S
C237 C236 1.392 . S
C237 H249 0.929 . S
C238 C234 1.531 . S
C238 H250 0.960 . S
C238 H251 0.962 1_554 S
C238 H252 0.960 . S
C239 C236 1.511 . S
C239 H253 0.961 . S
C239 H254 0.961 1_554 S
C239 H255 0.961 . S
C240 C241 1.370 . S
C240 C242 1.363 . S
C240 H256 0.931 . S
C241 C240 1.370 . S
C241 C245 1.408 1_556 S
C242 C240 1.363 . S
C242 C243 1.370 . S
C242 C246 1.524 . S
C243 C235 1.503 1_556 S
C243 C242 1.370 . S
C243 C244 1.403 1_556 S
C244 C243 1.403 1_554 S
C244 C245 1.404 . S
C244 C247 1.539 . S
C245 C241 1.408 1_554 S
C245 C244 1.404 . S
C245 H257 0.930 1_455 S
C246 C242 1.524 . S
C246 H258 0.956 . S
C246 H259 0.961 . S
C246 H260 0.961 . S
C247 C244 1.539 . S
C247 H261 0.958 . S
C247 H262 0.961 . S
C247 H263 0.960 . S
H248 C232 0.931 . S
H249 C237 0.929 . S
H250 C238 0.960 . S
H251 C238 0.962 1_556 S
H252 C238 0.960 . S
H253 C239 0.961 . S
H254 C239 0.961 1_556 S
H255 C239 0.961 . S
H256 C240 0.931 . S
H257 C245 0.930 1_655 S
H258 C246 0.956 . S
H259 C246 0.961 . S
H260 C246 0.961 . S
H261 C247 0.958 . S
H262 C247 0.961 . S
H263 C247 0.960 . S
C264 C265 1.391 . S
C264 C266 1.394 . S
C264 H280 0.931 . S
C265 C264 1.391 . S
C265 C269 1.376 . S
C266 C264 1.394 . S
C266 C267 1.369 . S
C266 C270 1.531 . S
C267 C266 1.369 . S
C267 C268 1.410 . S
C267 C275 1.503 . S
C268 C267 1.410 . S
C268 C269 1.392 . S
C268 C271 1.511 . S
C269 C265 1.376 . S
C269 C268 1.392 . S
C269 H281 0.929 . S
C270 C266 1.531 . S
C270 H282 0.960 . S
C270 H283 0.962 . S
C270 H284 0.960 . S
C271 C268 1.511 . S
C271 H285 0.961 . S
C271 H286 0.961 . S
C271 H287 0.961 . S
C272 C273 1.370 . S
C272 C274 1.363 . S
C272 H288 0.931 . S
C273 C272 1.370 . S
C273 C277 1.408 . S
C274 C272 1.363 . S
C274 C275 1.370 . S
C274 C278 1.524 . S
C275 C267 1.503 . S
C275 C274 1.370 . S
C275 C276 1.403 . S
C276 C275 1.403 . S
C276 C277 1.404 . S
C276 C279 1.539 . S
C277 C273 1.408 . S
C277 C276 1.404 . S
C277 H289 0.930 . S
C278 C274 1.524 . S
C278 H290 0.956 . S
C278 H291 0.961 . S
C278 H292 0.961 . S
C279 C276 1.539 . S
C279 H293 0.958 . S
C279 H294 0.961 . S
C279 H295 0.960 . S
H280 C264 0.931 . S
H281 C269 0.929 . S
H282 C270 0.960 . S
H283 C270 0.962 . S
H284 C270 0.960 . S
H285 C271 0.961 . S
H286 C271 0.961 . S
H287 C271 0.961 . S
H288 C272 0.931 . S
H289 C277 0.930 . S
H290 C278 0.956 . S
H291 C278 0.961 . S
H292 C278 0.961 . S
H293 C279 0.958 . S
H294 C279 0.961 . S
H295 C279 0.960 . S
C296 C297 1.391 . S
C296 C298 1.394 . S
C296 H312 0.931 . S
C297 C296 1.391 . S
C297 C301 1.376 . S
C298 C296 1.394 . S
C298 C299 1.369 . S
C298 C302 1.531 . S
C299 C298 1.369 . S
C299 C300 1.410 . S
C299 C307 1.503 . S
C300 C299 1.410 . S
C300 C301 1.392 . S
C300 C303 1.511 . S
C301 C297 1.376 . S
C301 C300 1.392 . S
C301 H313 0.929 . S
C302 C298 1.531 . S
C302 H314 0.960 . S
C302 H315 0.962 . S
C302 H316 0.960 . S
C303 C300 1.511 . S
C303 H317 0.961 . S
C303 H318 0.961 . S
C303 H319 0.961 . S
C304 C305 1.370 . S
C304 C306 1.363 . S
C304 H320 0.931 . S
C305 C304 1.370 . S
C305 C309 1.408 . S
C306 C304 1.363 . S
C306 C307 1.370 . S
C306 C310 1.524 . S
C307 C299 1.503 . S
C307 C306 1.370 . S
C307 C308 1.403 . S
C308 C307 1.403 . S
C308 C309 1.404 . S
C308 C311 1.539 . S
C309 C305 1.408 . S
C309 C308 1.404 . S
C309 H321 0.930 . S
C310 C306 1.524 . S
C310 H322 0.956 . S
C310 H323 0.961 . S
C310 H324 0.961 . S
C311 C308 1.539 . S
C311 H325 0.958 . S
C311 H326 0.961 . S
C311 H327 0.960 . S
H312 C296 0.931 . S
H313 C301 0.929 . S
H314 C302 0.960 . S
H315 C302 0.962 . S
H316 C302 0.960 . S
H317 C303 0.961 . S
H318 C303 0.961 . S
H319 C303 0.961 . S
H320 C304 0.931 . S
H321 C309 0.930 . S
H322 C310 0.956 . S
H323 C310 0.961 . S
H324 C310 0.961 . S
H325 C311 0.958 . S
H326 C311 0.961 . S
H327 C311 0.960 . S
C328 C329 1.391 . S
C328 C330 1.394 . S
C328 H344 0.931 . S
C329 C328 1.391 . S
C329 C333 1.376 . S
C330 C328 1.394 . S
C330 C331 1.369 . S
C330 C334 1.531 . S
C331 C330 1.369 . S
C331 C332 1.410 . S
C331 C339 1.503 . S
C332 C331 1.410 . S
C332 C333 1.392 . S
C332 C335 1.511 . S
C333 C329 1.376 . S
C333 C332 1.392 . S
C333 H345 0.929 . S
C334 C330 1.531 . S
C334 H346 0.960 . S
C334 H347 0.962 . S
C334 H348 0.960 . S
C335 C332 1.511 . S
C335 H349 0.961 . S
C335 H350 0.961 . S
C335 H351 0.961 . S
C336 C337 1.370 . S
C336 C338 1.363 . S
C336 H352 0.931 . S
C337 C336 1.370 . S
C337 C341 1.408 . S
C338 C336 1.363 . S
C338 C339 1.370 . S
C338 C342 1.524 . S
C339 C331 1.503 . S
C339 C338 1.370 . S
C339 C340 1.403 . S
C340 C339 1.403 . S
C340 C341 1.404 . S
C340 C343 1.539 . S
C341 C337 1.408 . S
C341 C340 1.404 . S
C341 H353 0.930 . S
C342 C338 1.524 . S
C342 H354 0.956 . S
C342 H355 0.961 . S
C342 H356 0.961 . S
C343 C340 1.539 . S
C343 H357 0.958 . S
C343 H358 0.961 . S
C343 H359 0.960 . S
H344 C328 0.931 . S
H345 C333 0.929 . S
H346 C334 0.960 . S
H347 C334 0.962 . S
H348 C334 0.960 . S
H349 C335 0.961 . S
H350 C335 0.961 . S
H351 C335 0.961 . S
H352 C336 0.931 . S
H353 C341 0.930 . S
H354 C342 0.956 . S
H355 C342 0.961 . S
H356 C342 0.961 . S
H357 C343 0.958 . S
H358 C343 0.961 . S
H359 C343 0.960 . S
C360 C361 1.391 . S
C360 C362 1.394 . S
C360 H376 0.931 . S
C361 C360 1.391 . S
C361 C365 1.376 . S
C362 C360 1.394 . S
C362 C363 1.369 . S
C362 C366 1.531 . S
C363 C362 1.369 . S
C363 C364 1.410 . S
C363 C371 1.503 . S
C364 C363 1.410 . S
C364 C365 1.392 . S
C364 C367 1.511 . S
C365 C361 1.376 . S
C365 C364 1.392 . S
C365 H377 0.929 . S
C366 C362 1.531 . S
C366 H378 0.960 . S
C366 H379 0.962 1_554 S
C366 H380 0.960 . S
C367 C364 1.511 . S
C367 H381 0.961 . S
C367 H382 0.961 . S
C367 H383 0.961 . S
C368 C369 1.370 . S
C368 C370 1.363 . S
C368 H384 0.931 . S
C369 C368 1.370 . S
C369 C373 1.408 1_556 S
C370 C368 1.363 . S
C370 C371 1.370 1_556 S
C370 C374 1.524 . S
C371 C363 1.503 . S
C371 C370 1.370 1_554 S
C371 C372 1.403 . S
C372 C371 1.403 . S
C372 C373 1.404 . S
C372 C375 1.539 . S
C373 C369 1.408 1_554 S
C373 C372 1.404 . S
C373 H385 0.930 . S
C374 C370 1.524 . S
C374 H386 0.956 . S
C374 H387 0.961 . S
C374 H388 0.961 . S
C375 C372 1.539 . S
C375 H389 0.958 . S
C375 H390 0.961 . S
C375 H391 0.960 . S
H376 C360 0.931 . S
H377 C365 0.929 . S
H378 C366 0.960 . S
H379 C366 0.962 1_556 S
H380 C366 0.960 . S
H381 C367 0.961 . S
H382 C367 0.961 . S
H383 C367 0.961 . S
H384 C368 0.931 . S
H385 C373 0.930 . S
H386 C374 0.956 . S
H387 C374 0.961 . S
H388 C374 0.961 . S
H389 C375 0.958 . S
H390 C375 0.961 . S
H391 C375 0.960 . S
C392 C393 1.391 . S
C392 C394 1.394 . S
C392 H408 0.931 . S
C393 C392 1.391 . S
C393 C397 1.376 . S
C394 C392 1.394 . S
C394 C395 1.369 . S
C394 C398 1.531 . S
C395 C394 1.369 . S
C395 C396 1.410 . S
C395 C403 1.503 1_556 S
C396 C395 1.410 . S
C396 C397 1.392 . S
C396 C399 1.511 1_556 S
C397 C393 1.376 . S
C397 C396 1.392 . S
C397 H409 0.929 . S
C398 C394 1.531 . S
C398 H410 0.960 . S
C398 H411 0.962 . S
C398 H412 0.960 . S
C399 C396 1.511 1_554 S
C399 H413 0.961 . S
C399 H414 0.961 . S
C399 H415 0.961 1_554 S
C400 C401 1.370 . S
C400 C402 1.363 . S
C400 H416 0.931 . S
C401 C400 1.370 . S
C401 C405 1.410 . S
C402 C400 1.363 . S
C402 C403 1.370 . S
C402 C406 1.524 . S
C403 C395 1.503 1_554 S
C403 C402 1.370 . S
C403 C404 1.403 1_554 S
C404 C403 1.403 1_556 S
C404 C405 1.403 1_556 S
C404 C407 1.539 . S
C405 C401 1.410 . S
C405 C404 1.403 1_554 S
C405 H417 0.932 1_554 S
C406 C402 1.524 . S
C406 H418 0.956 . S
C406 H419 0.961 . S
C406 H420 0.961 . S
C407 C404 1.539 . S
C407 H421 0.958 . S
C407 H422 0.961 . S
C407 H423 0.960 . S
H408 C392 0.931 . S
H409 C397 0.929 . S
H410 C398 0.960 . S
H411 C398 0.962 . S
H412 C398 0.960 . S
H413 C399 0.961 . S
H414 C399 0.961 . S
H415 C399 0.961 1_556 S
H416 C400 0.931 . S
H417 C405 0.932 1_556 S
H418 C406 0.956 . S
H419 C406 0.961 . S
H420 C406 0.961 . S
H421 C407 0.958 . S
H422 C407 0.961 . S
H423 C407 0.960 . S
C424 C425 1.391 . S
C424 C426 1.394 . S
C424 H440 0.931 . S
C425 C424 1.391 . S
C425 C429 1.376 . S
C426 C424 1.394 . S
C426 C427 1.369 . S
C426 C430 1.531 . S
C427 C426 1.369 . S
C427 C428 1.410 . S
C427 C435 1.503 . S
C428 C427 1.410 . S
C428 C429 1.392 . S
C428 C431 1.506 1_554 S
C429 C425 1.376 . S
C429 C428 1.392 . S
C429 H441 0.929 . S
C430 C426 1.531 . S
C430 H442 0.960 . S
C430 H443 0.962 . S
C430 H444 0.960 . S
C431 C428 1.506 1_556 S
C431 H445 0.966 . S
C431 H446 0.970 . S
C431 H447 0.951 1_556 S
C432 C433 1.370 . S
C432 C434 1.363 . S
C432 H448 0.931 . S
C433 C432 1.370 . S
C433 C437 1.408 1_556 S
C434 C432 1.363 . S
C434 C435 1.370 1_556 S
C434 C438 1.524 . S
C435 C427 1.503 . S
C435 C434 1.370 1_554 S
C435 C436 1.403 . S
C436 C435 1.403 . S
C436 C437 1.404 . S
C436 C439 1.539 . S
C437 C433 1.408 1_554 S
C437 C436 1.404 . S
C437 H449 0.930 . S
C438 C434 1.524 . S
C438 H450 0.956 . S
C438 H451 0.961 . S
C438 H452 0.961 . S
C439 C436 1.539 . S
C439 H453 0.958 . S
C439 H454 0.961 . S
C439 H455 0.960 . S
H440 C424 0.931 . S
H441 C429 0.929 . S
H442 C430 0.960 . S
H443 C430 0.962 . S
H444 C430 0.960 . S
H445 C431 0.966 . S
H446 C431 0.970 . S
H447 C431 0.951 1_554 S
H448 C432 0.931 . S
H449 C437 0.930 . S
H450 C438 0.956 . S
H451 C438 0.961 . S
H452 C438 0.961 . S
H453 C439 0.958 . S
H454 C439 0.961 . S
H455 C439 0.960 . S
C456 C457 1.391 . S
C456 C458 1.394 . S
C456 H472 0.931 . S
C457 C456 1.391 . S
C457 C461 1.376 . S
C458 C456 1.394 . S
C458 C459 1.369 . S
C458 C462 1.531 . S
C459 C458 1.369 . S
C459 C460 1.410 . S
C459 C467 1.503 . S
C460 C459 1.410 . S
C460 C461 1.392 . S
C460 C463 1.511 . S
C461 C457 1.376 . S
C461 C460 1.392 . S
C461 H473 0.929 . S
C462 C458 1.531 . S
C462 H474 0.960 . S
C462 H475 0.962 . S
C462 H476 0.960 . S
C463 C460 1.511 . S
C463 H477 0.961 . S
C463 H478 0.961 . S
C463 H479 0.961 . S
C464 C465 1.370 . S
C464 C466 1.363 . S
C464 H480 0.931 . S
C465 C464 1.370 . S
C465 C469 1.408 . S
C466 C464 1.363 . S
C466 C467 1.370 . S
C466 C470 1.524 . S
C467 C459 1.503 . S
C467 C466 1.370 . S
C467 C468 1.403 . S
C468 C467 1.403 . S
C468 C469 1.404 . S
C468 C471 1.539 . S
C469 C465 1.408 . S
C469 C468 1.404 . S
C469 H481 0.930 . S
C470 C466 1.524 . S
C470 H482 0.956 . S
C470 H483 0.961 . S
C470 H484 0.961 . S
C471 C468 1.539 . S
C471 H485 0.958 . S
C471 H486 0.961 . S
C471 H487 0.960 . S
H472 C456 0.931 . S
H473 C461 0.929 . S
H474 C462 0.960 . S
H475 C462 0.962 . S
H476 C462 0.960 . S
H477 C463 0.961 . S
H478 C463 0.961 . S
H479 C463 0.961 . S
H480 C464 0.931 . S
H481 C469 0.930 . S
H482 C470 0.956 . S
H483 C470 0.961 . S
H484 C470 0.961 . S
H485 C471 0.958 . S
H486 C471 0.961 . S
H487 C471 0.960 . S
C488 C489 1.391 . S
C488 C490 1.394 . S
C488 H504 0.931 . S
C489 C488 1.391 . S
C489 C493 1.376 . S
C490 C488 1.394 . S
C490 C491 1.369 . S
C490 C494 1.531 . S
C491 C490 1.369 . S
C491 C492 1.410 . S
C491 C499 1.503 . S
C492 C491 1.410 . S
C492 C493 1.392 . S
C492 C495 1.511 . S
C493 C489 1.376 . S
C493 C492 1.392 . S
C493 H505 0.929 . S
C494 C490 1.531 . S
C494 H506 0.960 . S
C494 H507 0.962 . S
C494 H508 0.960 . S
C495 C492 1.511 . S
C495 H509 0.961 . S
C495 H510 0.961 . S
C495 H511 0.961 . S
C496 C497 1.370 . S
C496 C498 1.363 . S
C496 H512 0.931 . S
C497 C496 1.370 . S
C497 C501 1.408 . S
C498 C496 1.363 . S
C498 C499 1.370 . S
C498 C502 1.524 . S
C499 C491 1.503 . S
C499 C498 1.370 . S
C499 C500 1.403 . S
C500 C499 1.403 . S
C500 C501 1.404 . S
C500 C503 1.539 . S
C501 C497 1.408 . S
C501 C500 1.404 . S
C501 H513 0.930 . S
C502 C498 1.524 . S
C502 H514 0.956 . S
C502 H515 0.961 . S
C502 H516 0.961 . S
C503 C500 1.539 . S
C503 H517 0.958 . S
C503 H518 0.961 . S
C503 H519 0.960 . S
H504 C488 0.931 . S
H505 C493 0.929 . S
H506 C494 0.960 . S
H507 C494 0.962 . S
H508 C494 0.960 . S
H509 C495 0.961 . S
H510 C495 0.961 . S
H511 C495 0.961 . S
H512 C496 0.931 . S
H513 C501 0.930 . S
H514 C502 0.956 . S
H515 C502 0.961 . S
H516 C502 0.961 . S
H517 C503 0.958 . S
H518 C503 0.961 . S
H519 C503 0.960 . S
C520 C521 1.391 . S
C520 C522 1.394 . S
C520 H536 0.931 . S
C521 C520 1.391 . S
C521 C525 1.376 . S
C522 C520 1.394 . S
C522 C523 1.369 . S
C522 C526 1.531 . S
C523 C522 1.369 . S
C523 C524 1.410 . S
C523 C531 1.503 . S
C524 C523 1.410 . S
C524 C525 1.392 . S
C524 C527 1.511 . S
C525 C521 1.376 . S
C525 C524 1.392 . S
C525 H537 0.929 1_655 S
C526 C522 1.531 . S
C526 H538 0.960 . S
C526 H539 0.962 . S
C526 H540 0.960 . S
C527 C524 1.511 . S
C527 H541 0.961 . S
C527 H542 0.961 . S
C527 H543 0.961 . S
C528 C529 1.370 . S
C528 C530 1.363 . S
C528 H544 0.931 . S
C529 C528 1.370 . S
C529 C533 1.408 . S
C530 C528 1.363 . S
C530 C531 1.370 . S
C530 C534 1.524 . S
C531 C523 1.503 . S
C531 C530 1.370 . S
C531 C532 1.403 . S
C532 C531 1.403 . S
C532 C533 1.404 . S
C532 C535 1.539 . S
C533 C529 1.408 . S
C533 C532 1.404 . S
C533 H545 0.930 . S
C534 C530 1.524 . S
C534 H546 0.956 . S
C534 H547 0.961 . S
C534 H548 0.961 . S
C535 C532 1.539 . S
C535 H549 0.958 . S
C535 H550 0.961 . S
C535 H551 0.960 . S
H536 C520 0.931 . S
H537 C525 0.929 1_455 S
H538 C526 0.960 . S
H539 C526 0.962 . S
H540 C526 0.960 . S
H541 C527 0.961 . S
H542 C527 0.961 . S
H543 C527 0.961 . S
H544 C528 0.931 . S
H545 C533 0.930 . S
H546 C534 0.956 . S
H547 C534 0.961 . S
H548 C534 0.961 . S
H549 C535 0.958 . S
H550 C535 0.961 . S
H551 C535 0.960 . S
C552 C553 1.391 . S
C552 C554 1.394 . S
C552 H568 0.931 . S
C553 C552 1.391 . S
C553 C557 1.376 . S
C554 C552 1.394 . S
C554 C555 1.369 . S
C554 C558 1.531 . S
C555 C554 1.369 . S
C555 C556 1.410 . S
C555 C563 1.503 . S
C556 C555 1.410 . S
C556 C557 1.392 . S
C556 C559 1.511 . S
C557 C553 1.376 . S
C557 C556 1.392 . S
C557 H569 0.929 . S
C558 C554 1.531 . S
C558 H570 0.960 . S
C558 H571 0.962 . S
C558 H572 0.960 . S
C559 C556 1.511 . S
C559 H573 0.961 . S
C559 H574 0.961 . S
C559 H575 0.961 . S
C560 C561 1.370 . S
C560 C562 1.363 . S
C560 H576 0.931 . S
C561 C560 1.370 . S
C561 C565 1.408 . S
C562 C560 1.363 . S
C562 C563 1.370 . S
C562 C566 1.524 . S
C563 C555 1.503 . S
C563 C562 1.370 . S
C563 C564 1.403 . S
C564 C563 1.403 . S
C564 C565 1.404 . S
C564 C567 1.539 . S
C565 C561 1.408 . S
C565 C564 1.404 . S
C565 H577 0.930 . S
C566 C562 1.524 . S
C566 H578 0.956 . S
C566 H579 0.961 . S
C566 H580 0.961 . S
C567 C564 1.539 . S
C567 H581 0.958 . S
C567 H582 0.961 . S
C567 H583 0.960 . S
H568 C552 0.931 . S
H569 C557 0.929 . S
H570 C558 0.960 . S
H571 C558 0.962 . S
H572 C558 0.960 . S
H573 C559 0.961 . S
H574 C559 0.961 . S
H575 C559 0.961 . S
H576 C560 0.931 . S
H577 C565 0.930 . S
H578 C566 0.956 . S
H579 C566 0.961 . S
H580 C566 0.961 . S
H581 C567 0.958 . S
H582 C567 0.961 . S
H583 C567 0.960 . S
C584 C585 1.391 . S
C584 C586 1.394 . S
C584 H600 0.931 . S
C585 C584 1.391 . S
C585 C589 1.376 . S
C586 C584 1.394 . S
C586 C587 1.369 . S
C586 C590 1.531 . S
C587 C586 1.369 . S
C587 C588 1.410 . S
C587 C595 1.503 . S
C588 C587 1.410 . S
C588 C589 1.392 . S
C588 C591 1.511 . S
C589 C585 1.376 . S
C589 C588 1.392 . S
C589 H601 0.929 . S
C590 C586 1.531 . S
C590 H602 0.960 . S
C590 H603 0.962 . S
C590 H604 0.960 . S
C591 C588 1.511 . S
C591 H605 0.961 . S
C591 H606 0.961 . S
C591 H607 0.961 . S
C592 C593 1.370 . S
C592 C594 1.363 . S
C592 H608 0.931 . S
C593 C592 1.370 . S
C593 C597 1.408 . S
C594 C592 1.363 . S
C594 C595 1.370 . S
C594 C598 1.524 . S
C595 C587 1.503 . S
C595 C594 1.370 . S
C595 C596 1.403 . S
C596 C595 1.403 . S
C596 C597 1.404 . S
C596 C599 1.539 . S
C597 C593 1.408 . S
C597 C596 1.404 . S
C597 H609 0.930 . S
C598 C594 1.524 . S
C598 H610 0.956 . S
C598 H611 0.961 . S
C598 H612 0.961 . S
C599 C596 1.539 . S
C599 H613 0.958 . S
C599 H614 0.961 . S
C599 H615 0.960 . S
H600 C584 0.931 . S
H601 C589 0.929 . S
H602 C590 0.960 . S
H603 C590 0.962 . S
H604 C590 0.960 . S
H605 C591 0.961 . S
H606 C591 0.961 . S
H607 C591 0.961 . S
H608 C592 0.931 . S
H609 C597 0.930 . S
H610 C598 0.956 . S
H611 C598 0.961 . S
H612 C598 0.961 . S
H613 C599 0.958 . S
H614 C599 0.961 . S
H615 C599 0.960 . S
C616 C617 1.391 . S
C616 C618 1.394 . S
C616 H632 0.931 . S
C617 C616 1.391 . S
C617 C621 1.376 . S
C618 C616 1.394 . S
C618 C619 1.369 . S
C618 C622 1.531 . S
C619 C618 1.369 . S
C619 C620 1.410 . S
C619 C627 1.503 . S
C620 C619 1.410 . S
C620 C621 1.392 . S
C620 C623 1.511 . S
C621 C617 1.376 . S
C621 C620 1.392 . S
C621 H633 0.929 . S
C622 C618 1.531 . S
C622 H634 0.960 . S
C622 H635 0.962 . S
C622 H636 0.960 . S
C623 C620 1.511 . S
C623 H637 0.961 . S
C623 H638 0.961 . S
C623 H639 0.961 . S
C624 C625 1.370 . S
C624 C626 1.363 . S
C624 H640 0.931 . S
C625 C624 1.370 . S
C625 C629 1.408 . S
C626 C624 1.363 . S
C626 C627 1.370 . S
C626 C630 1.524 . S
C627 C619 1.503 . S
C627 C626 1.370 . S
C627 C628 1.403 . S
C628 C627 1.403 . S
C628 C629 1.404 . S
C628 C631 1.539 . S
C629 C625 1.408 . S
C629 C628 1.404 . S
C629 H641 0.930 . S
C630 C626 1.524 . S
C630 H642 0.956 . S
C630 H643 0.961 . S
C630 H644 0.961 . S
C631 C628 1.539 . S
C631 H645 0.958 . S
C631 H646 0.961 . S
C631 H647 0.960 . S
H632 C616 0.931 . S
H633 C621 0.929 . S
H634 C622 0.960 . S
H635 C622 0.962 . S
H636 C622 0.960 . S
H637 C623 0.961 . S
H638 C623 0.961 . S
H639 C623 0.961 . S
H640 C624 0.931 . S
H641 C629 0.930 . S
H642 C630 0.956 . S
H643 C630 0.961 . S
H644 C630 0.961 . S
H645 C631 0.958 . S
H646 C631 0.961 . S
H647 C631 0.960 . S
C648 C649 1.391 . S
C648 C650 1.394 . S
C648 H664 0.931 . S
C649 C648 1.391 . S
C649 C653 1.376 . S
C650 C648 1.394 . S
C650 C651 1.369 . S
C650 C654 1.531 . S
C651 C650 1.369 . S
C651 C652 1.410 . S
C651 C659 1.503 . S
C652 C651 1.410 . S
C652 C653 1.392 . S
C652 C655 1.511 . S
C653 C649 1.376 . S
C653 C652 1.392 . S
C653 H665 0.929 . S
C654 C650 1.531 . S
C654 H666 0.960 . S
C654 H667 0.962 . S
C654 H668 0.960 . S
C655 C652 1.511 . S
C655 H669 0.961 . S
C655 H670 0.961 . S
C655 H671 0.961 . S
C656 C657 1.370 . S
C656 C658 1.363 . S
C656 H672 0.931 . S
C657 C656 1.370 . S
C657 C661 1.408 . S
C658 C656 1.363 . S
C658 C659 1.370 . S
C658 C662 1.524 . S
C659 C651 1.503 . S
C659 C658 1.370 . S
C659 C660 1.403 . S
C660 C659 1.403 . S
C660 C661 1.404 . S
C660 C663 1.539 . S
C661 C657 1.408 . S
C661 C660 1.404 . S
C661 H673 0.930 . S
C662 C658 1.524 . S
C662 H674 0.956 . S
C662 H675 0.961 . S
C662 H676 0.961 . S
C663 C660 1.539 . S
C663 H677 0.958 . S
C663 H678 0.961 . S
C663 H679 0.960 . S
H664 C648 0.931 . S
H665 C653 0.929 . S
H666 C654 0.960 . S
H667 C654 0.962 . S
H668 C654 0.960 . S
H669 C655 0.961 . S
H670 C655 0.961 . S
H671 C655 0.961 . S
H672 C656 0.931 . S
H673 C661 0.930 . S
H674 C662 0.956 . S
H675 C662 0.961 . S
H676 C662 0.961 . S
H677 C663 0.958 . S
H678 C663 0.961 . S
H679 C663 0.960 . S
C680 C681 1.391 . S
C680 C682 1.394 . S
C680 H696 0.931 . S
C681 C680 1.391 . S
C681 C685 1.376 . S
C682 C680 1.394 . S
C682 C683 1.369 . S
C682 C686 1.531 . S
C683 C682 1.369 . S
C683 C684 1.410 . S
C683 C691 1.503 . S
C684 C683 1.410 . S
C684 C685 1.392 . S
C684 C687 1.511 . S
C685 C681 1.376 . S
C685 C684 1.392 . S
C685 H697 0.929 . S
C686 C682 1.531 . S
C686 H698 0.960 . S
C686 H699 0.962 . S
C686 H700 0.960 . S
C687 C684 1.511 . S
C687 H701 0.961 . S
C687 H702 0.961 . S
C687 H703 0.961 . S
C688 C689 1.370 . S
C688 C690 1.363 . S
C688 H704 0.931 . S
C689 C688 1.370 . S
C689 C693 1.408 . S
C690 C688 1.363 . S
C690 C691 1.370 . S
C690 C694 1.524 . S
C691 C683 1.503 . S
C691 C690 1.370 . S
C691 C692 1.403 . S
C692 C691 1.403 . S
C692 C693 1.404 . S
C692 C695 1.539 . S
C693 C689 1.408 . S
C693 C692 1.404 . S
C693 H705 0.930 . S
C694 C690 1.524 . S
C694 H706 0.956 . S
C694 H707 0.961 . S
C694 H708 0.961 . S
C695 C692 1.539 . S
C695 H709 0.958 . S
C695 H710 0.961 . S
C695 H711 0.960 . S
H696 C680 0.931 . S
H697 C685 0.929 . S
H698 C686 0.960 . S
H699 C686 0.962 . S
H700 C686 0.960 . S
H701 C687 0.961 . S
H702 C687 0.961 . S
H703 C687 0.961 . S
H704 C688 0.931 . S
H705 C693 0.930 . S
H706 C694 0.956 . S
H707 C694 0.961 . S
H708 C694 0.961 . S
H709 C695 0.958 . S
H710 C695 0.961 . S
H711 C695 0.960 . S
C712 C713 1.391 . S
C712 C714 1.394 . S
C712 H728 0.931 . S
C713 C712 1.391 . S
C713 C717 1.376 . S
C714 C712 1.394 . S
C714 C715 1.369 . S
C714 C718 1.531 . S
C715 C714 1.369 . S
C715 C716 1.410 . S
C715 C723 1.503 . S
C716 C715 1.410 . S
C716 C717 1.392 . S
C716 C719 1.511 . S
C717 C713 1.376 . S
C717 C716 1.392 . S
C717 H729 0.929 . S
C718 C714 1.531 . S
C718 H730 0.960 . S
C718 H731 0.962 . S
C718 H732 0.960 . S
C719 C716 1.511 . S
C719 H733 0.961 . S
C719 H734 0.961 . S
C719 H735 0.961 . S
C720 C721 1.370 . S
C720 C722 1.363 . S
C720 H736 0.931 . S
C721 C720 1.370 . S
C721 C725 1.408 . S
C722 C720 1.363 . S
C722 C723 1.370 . S
C722 C726 1.524 . S
C723 C715 1.503 . S
C723 C722 1.370 . S
C723 C724 1.403 . S
C724 C723 1.403 . S
C724 C725 1.404 . S
C724 C727 1.539 . S
C725 C721 1.408 . S
C725 C724 1.404 . S
C725 H737 0.930 . S
C726 C722 1.524 . S
C726 H738 0.956 . S
C726 H739 0.961 . S
C726 H740 0.961 . S
C727 C724 1.539 . S
C727 H741 0.958 . S
C727 H742 0.961 . S
C727 H743 0.960 . S
H728 C712 0.931 . S
H729 C717 0.929 . S
H730 C718 0.960 . S
H731 C718 0.962 . S
H732 C718 0.960 . S
H733 C719 0.961 . S
H734 C719 0.961 . S
H735 C719 0.961 . S
H736 C720 0.931 . S
H737 C725 0.930 . S
H738 C726 0.956 . S
H739 C726 0.961 . S
H740 C726 0.961 . S
H741 C727 0.958 . S
H742 C727 0.961 . S
H743 C727 0.960 . S
C744 C745 1.391 . S
C744 C746 1.381 1_554 S
C744 H760 0.931 . S
C745 C744 1.391 . S
C745 C749 1.376 . S
C746 C744 1.381 1_556 S
C746 C747 1.366 1_556 S
C746 C750 1.547 . S
C747 C746 1.366 1_554 S
C747 C748 1.410 1_455 S
C747 C755 1.503 1_454 S
C748 C747 1.410 1_655 S
C748 C749 1.392 1_655 S
C748 C751 1.511 . S
C749 C745 1.376 . S
C749 C748 1.392 1_455 S
C749 H761 0.929 1_455 S
C750 C746 1.547 . S
C750 H762 0.960 . S
C750 H763 0.962 . S
C750 H764 0.960 . S
C751 C748 1.511 . S
C751 H765 0.961 . S
C751 H766 0.961 . S
C751 H767 0.961 . S
C752 C753 1.370 . S
C752 C754 1.363 1_556 S
C752 H768 0.931 . S
C753 C752 1.370 . S
C753 C757 1.408 . S
C754 C752 1.363 1_554 S
C754 C755 1.370 1_554 S
C754 C758 1.524 1_655 S
C755 C747 1.503 1_656 S
C755 C754 1.370 1_556 S
C755 C756 1.403 . S
C756 C755 1.403 . S
C756 C757 1.404 . S
C756 C759 1.539 . S
C757 C753 1.408 . S
C757 C756 1.404 . S
C757 H769 0.930 . S
C758 C754 1.524 1_455 S
C758 H770 0.956 . S
C758 H771 0.961 1_455 S
C758 H772 0.961 . S
C759 C756 1.539 . S
C759 H773 0.958 . S
C759 H774 0.961 . S
C759 H775 0.960 . S
H760 C744 0.931 . S
H761 C749 0.929 1_655 S
H762 C750 0.960 . S
H763 C750 0.962 . S
H764 C750 0.960 . S
H765 C751 0.961 . S
H766 C751 0.961 . S
H767 C751 0.961 . S
H768 C752 0.931 . S
H769 C757 0.930 . S
H770 C758 0.956 . S
H771 C758 0.961 1_655 S
H772 C758 0.961 . S
H773 C759 0.958 . S
H774 C759 0.961 . S
H775 C759 0.960 . S
C776 C777 1.391 . S
C776 C778 1.394 1_554 S
C776 H792 0.931 . S
C777 C776 1.391 . S
C777 C781 1.376 . S
C778 C776 1.394 1_556 S
C778 C779 1.369 1_556 S
C778 C782 1.531 . S
C779 C778 1.369 1_554 S
C779 C780 1.410 . S
C779 C787 1.503 1_554 S
C780 C779 1.410 . S
C780 C781 1.392 . S
C780 C783 1.511 . S
C781 C777 1.376 . S
C781 C780 1.392 . S
C781 H793 0.929 . S
C782 C778 1.531 . S
C782 H794 0.960 . S
C782 H795 0.962 . S
C782 H796 0.960 . S
C783 C780 1.511 . S
C783 H797 0.961 . S
C783 H798 0.961 . S
C783 H799 0.961 . S
C784 C785 1.370 . S
C784 C786 1.348 1_556 S
C784 H800 0.931 . S
C785 C784 1.370 . S
C785 C789 1.408 . S
C786 C784 1.348 1_554 S
C786 C787 1.357 1_554 S
C786 C790 1.553 . S
C787 C779 1.503 1_556 S
C787 C786 1.357 1_556 S
C787 C788 1.403 . S
C788 C787 1.403 . S
C788 C789 1.404 . S
C788 C791 1.539 . S
C789 C785 1.408 . S
C789 C788 1.404 . S
C789 H801 0.930 . S
C790 C786 1.553 . S
C790 H802 0.956 . S
C790 H803 0.961 . S
C790 H804 0.961 . S
C791 C788 1.539 . S
C791 H805 0.958 . S
C791 H806 0.961 . S
C791 H807 0.960 . S
H792 C776 0.931 . S
H793 C781 0.929 . S
H794 C782 0.960 . S
H795 C782 0.962 . S
H796 C782 0.960 . S
H797 C783 0.961 . S
H798 C783 0.961 . S
H799 C783 0.961 . S
H800 C784 0.931 . S
H801 C789 0.930 . S
H802 C790 0.956 . S
H803 C790 0.961 . S
H804 C790 0.961 . S
H805 C791 0.958 . S
H806 C791 0.961 . S
H807 C791 0.960 . S
C808 C809 1.391 . S
C808 C810 1.394 . S
C808 H824 0.931 . S
C809 C808 1.391 . S
C809 C813 1.376 . S
C810 C808 1.394 . S
C810 C811 1.369 . S
C810 C814 1.540 . S
C811 C810 1.369 . S
C811 C812 1.410 1_565 S
C811 C819 1.503 1_564 S
C812 C811 1.410 1_545 S
C812 C813 1.392 1_545 S
C812 C815 1.519 . S
C813 C809 1.376 . S
C813 C812 1.392 1_565 S
C813 H825 0.929 1_565 S
C814 C810 1.540 . S
C814 H826 0.932 1_554 S
C814 H827 0.985 . S
C814 H828 0.958 1_554 S
C815 C812 1.519 . S
C815 H829 0.978 . S
C815 H830 0.960 1_554 S
C815 H831 0.937 1_554 S
C816 C817 1.370 . S
C816 C818 1.363 1_556 S
C816 H832 0.931 1_556 S
C817 C816 1.370 . S
C817 C821 1.408 . S
C818 C816 1.363 1_554 S
C818 C819 1.370 1_554 S
C818 C822 1.524 . S
C819 C811 1.503 1_546 S
C819 C818 1.370 1_556 S
C819 C820 1.403 . S
C820 C819 1.403 . S
C820 C821 1.404 . S
C820 C823 1.539 1_545 S
C821 C817 1.408 . S
C821 C820 1.404 . S
C821 H833 0.930 . S
C822 C818 1.524 . S
C822 H834 0.956 1_545 S
C822 H835 0.961 . S
C822 H836 0.961 . S
C823 C820 1.539 1_565 S
C823 H837 0.958 . S
C823 H838 0.961 1_565 S
C823 H839 0.960 . S
H824 C808 0.931 . S
H825 C813 0.929 1_545 S
H826 C814 0.932 1_556 S
H827 C814 0.985 . S
H828 C814 0.958 1_556 S
H829 C815 0.978 . S
H830 C815 0.960 1_556 S
H831 C815 0.937 1_556 S
H832 C816 0.931 1_554 S
H833 C821 0.930 . S
H834 C822 0.956 1_565 S
H835 C822 0.961 . S
H836 C822 0.961 . S
H837 C823 0.958 . S
H838 C823 0.961 1_545 S
H839 C823 0.960 . S
C840 C841 1.391 . S
C840 C842 1.394 . S
C840 H856 0.931 . S
C841 C840 1.391 . S
C841 C845 1.376 . S
C842 C840 1.394 . S
C842 C843 1.369 . S
C842 C846 1.531 . S
C843 C842 1.369 . S
C843 C844 1.410 . S
C843 C851 1.503 1_565 S
C844 C843 1.410 . S
C844 C845 1.392 . S
C844 C847 1.511 . S
C845 C841 1.376 . S
C845 C844 1.392 . S
C845 H857 0.929 . S
C846 C842 1.531 . S
C846 H858 0.960 . S
C846 H859 0.962 . S
C846 H860 0.960 . S
C847 C844 1.511 . S
C847 H861 0.961 1_565 S
C847 H862 0.961 1_565 S
C847 H863 0.961 . S
C848 C849 1.370 . S
C848 C850 1.363 . S
C848 H864 0.931 . S
C849 C848 1.370 . S
C849 C853 1.408 . S
C850 C848 1.363 . S
C850 C851 1.370 . S
C850 C854 1.524 . S
C851 C843 1.503 1_545 S
C851 C850 1.370 . S
C851 C852 1.403 1_545 S
C852 C851 1.403 1_565 S
C852 C853 1.404 1_565 S
C852 C855 1.539 . S
C853 C849 1.408 . S
C853 C852 1.404 1_545 S
C853 H865 0.930 1_545 S
C854 C850 1.524 . S
C854 H866 0.956 . S
C854 H867 0.961 . S
C854 H868 0.961 . S
C855 C852 1.539 . S
C855 H869 0.958 . S
C855 H870 0.961 . S
C855 H871 0.960 . S
H856 C840 0.931 . S
H857 C845 0.929 . S
H858 C846 0.960 . S
H859 C846 0.962 . S
H860 C846 0.960 . S
H861 C847 0.961 1_545 S
H862 C847 0.961 1_545 S
H863 C847 0.961 . S
H864 C848 0.931 . S
H865 C853 0.930 1_565 S
H866 C854 0.956 . S
H867 C854 0.961 . S
H868 C854 0.961 . S
H869 C855 0.958 . S
H870 C855 0.961 . S
H871 C855 0.960 . S
C872 C873 1.391 . S
C872 C874 1.394 1_655 S
C872 H888 0.931 1_655 S
C873 C872 1.391 . S
C873 C877 1.376 . S
C874 C872 1.394 1_455 S
C874 C875 1.369 1_455 S
C874 C878 1.531 . S
C875 C874 1.369 1_655 S
C875 C876 1.410 . S
C875 C883 1.503 1_655 S
C876 C875 1.410 . S
C876 C877 1.392 . S
C876 C879 1.511 . S
C877 C873 1.376 . S
C877 C876 1.392 . S
C877 H889 0.929 . S
C878 C874 1.531 . S
C878 H890 0.960 . S
C878 H891 0.962 . S
C878 H892 0.960 . S
C879 C876 1.511 . S
C879 H893 0.961 . S
C879 H894 0.961 . S
C879 H895 0.961 . S
C880 C881 1.370 . S
C880 C882 1.363 . S
C880 H896 0.931 . S
C881 C880 1.370 . S
C881 C885 1.408 . S
C882 C880 1.363 . S
C882 C883 1.370 . S
C882 C886 1.524 1_455 S
C883 C875 1.503 1_455 S
C883 C882 1.370 . S
C883 C884 1.403 . S
C884 C883 1.403 . S
C884 C885 1.404 . S
C884 C887 1.539 . S
C885 C881 1.408 . S
C885 C884 1.404 . S
C885 H897 0.930 . S
C886 C882 1.524 1_655 S
C886 H898 0.956 1_655 S
C886 H899 0.961 . S
C886 H900 0.961 . S
C887 C884 1.539 . S
C887 H901 0.958 . S
C887 H902 0.961 . S
C887 H903 0.960 . S
H888 C872 0.931 1_455 S
H889 C877 0.929 . S
H890 C878 0.960 . S
H891 C878 0.962 . S
H892 C878 0.960 . S
H893 C879 0.961 . S
H894 C879 0.961 . S
H895 C879 0.961 . S
H896 C880 0.931 . S
H897 C885 0.930 . S
H898 C886 0.956 1_455 S
H899 C886 0.961 . S
H900 C886 0.961 . S
H901 C887 0.958 . S
H902 C887 0.961 . S
H903 C887 0.960 . S
C904 C905 1.391 . S
C904 C906 1.394 . S
C904 H920 0.931 . S
C905 C904 1.391 . S
C905 C909 1.376 . S
C906 C904 1.394 . S
C906 C907 1.369 . S
C906 C910 1.531 . S
C907 C906 1.369 . S
C907 C908 1.410 . S
C907 C915 1.503 . S
C908 C907 1.410 . S
C908 C909 1.392 . S
C908 C911 1.511 . S
C909 C905 1.376 . S
C909 C908 1.392 . S
C909 H921 0.929 . S
C910 C906 1.531 . S
C910 H922 0.960 . S
C910 H923 0.962 . S
C910 H924 0.960 . S
C911 C908 1.511 . S
C911 H925 0.961 . S
C911 H926 0.961 . S
C911 H927 0.961 . S
C912 C913 1.370 . S
C912 C914 1.363 . S
C912 H928 0.931 . S
C913 C912 1.370 . S
C913 C917 1.408 . S
C914 C912 1.363 . S
C914 C915 1.370 . S
C914 C918 1.524 . S
C915 C907 1.503 . S
C915 C914 1.370 . S
C915 C916 1.403 . S
C916 C915 1.403 . S
C916 C917 1.404 . S
C916 C919 1.539 . S
C917 C913 1.408 . S
C917 C916 1.404 . S
C917 H929 0.930 . S
C918 C914 1.524 . S
C918 H930 0.956 . S
C918 H931 0.961 . S
C918 H932 0.961 . S
C919 C916 1.539 . S
C919 H933 0.958 . S
C919 H934 0.961 . S
C919 H935 0.960 . S
H920 C904 0.931 . S
H921 C909 0.929 . S
H922 C910 0.960 . S
H923 C910 0.962 . S
H924 C910 0.960 . S
H925 C911 0.961 . S
H926 C911 0.961 . S
H927 C911 0.961 . S
H928 C912 0.931 . S
H929 C917 0.930 . S
H930 C918 0.956 . S
H931 C918 0.961 . S
H932 C918 0.961 . S
H933 C919 0.958 . S
H934 C919 0.961 . S
H935 C919 0.960 . S
C169 C9 0.784 . S
C177 C103 0.773 . S
C201 C23 0.785 . S
C209 C117 0.763 1_565 S
C233 C37 0.736 . S
C241 C89 0.769 1_455 S
C265 C159 0.759 . S
C273 C51 0.780 . S
C297 C65 0.778 . S
C305 C131 0.773 1_565 S
C329 C145 0.774 1_455 S
C337 C79 0.755 . S
C361 C19 0.772 . S
C369 C93 0.781 . S
C393 C107 0.742 . S
C401 C33 0.765 1_545 S
C425 C5 0.766 1_655 S
C433 C121 0.781 . S
C457 C135 0.737 . S
C465 C75 0.767 . S
C489 C149 0.743 . S
C497 C47 0.765 1_545 S
C521 C61 0.755 1_655 S
C529 C163 0.762 . S
C553 C81 1.597 . S
C561 C11 1.592 . S
C585 C25 1.559 . S
C593 C53 1.592 . S
C617 C39 1.564 . S
C625 C67 1.595 . S
C649 C95 1.587 . S
C657 C165 1.596 . S
C681 C109 1.606 . S
C689 C137 1.588 . S
C713 C123 1.597 . S
C721 C151 1.578 . S
C745 C0 1.569 . S
C753 C84 1.620 . S
C777 C14 1.569 . S
C785 C98 1.620 . S
C809 C28 1.576 . S
C817 C112 1.618 . S
C841 C42 1.607 . S
C849 C126 1.606 . S
C873 C140 1.569 . S
C881 C56 1.619 . S
C905 C70 1.576 . S
C913 C154 1.616 . S
