# Generated by pormake.
# Topology wir, (6)-cn, num edge types: 1
# Building blocks:
#     Node 0, Type 0, BuildingBlock: JUFBIX_clean_sbu_0, # of connection points: 6
#     Node 1, Type 0, BuildingBlock: JUFBIX_clean_sbu_0, # of connection points: 6
#     Node 2, Type 0, BuildingBlock: JUFBIX_clean_sbu_0, # of connection points: 6
#     Node 3, Type 0, BuildingBlock: JUFBIX_clean_sbu_0, # of connection points: 6
#     Node 4, Type 0, BuildingBlock: JUFBIX_clean_sbu_0, # of connection points: 6
#     Node 5, Type 0, BuildingBlock: JUFBIX_clean_sbu_0, # of connection points: 6
#     Node 6, Type 0, BuildingBlock: JUFBIX_clean_sbu_0, # of connection points: 6
#     Node 7, Type 0, BuildingBlock: JUFBIX_clean_sbu_0, # of connection points: 6
#     Node 8, Type 0, BuildingBlock: JUFBIX_clean_sbu_0, # of connection points: 6
#     Node 9, Type 0, BuildingBlock: JUFBIX_clean_sbu_0, # of connection points: 6
#     Node 10, Type 0, BuildingBlock: JUFBIX_clean_sbu_0, # of connection points: 6
#     Node 11, Type 0, BuildingBlock: JUFBIX_clean_sbu_0, # of connection points: 6
#     Node 12, Type 0, BuildingBlock: JUFBIX_clean_sbu_0, # of connection points: 6
#     Node 13, Type 0, BuildingBlock: JUFBIX_clean_sbu_0, # of connection points: 6
#     Node 14, Type 0, BuildingBlock: JUFBIX_clean_sbu_0, # of connection points: 6
#     Node 15, Type 0, BuildingBlock: JUFBIX_clean_sbu_0, # of connection points: 6
#     Node 16, Type 0, BuildingBlock: JUFBIX_clean_sbu_0, # of connection points: 6
#     Node 17, Type 0, BuildingBlock: JUFBIX_clean_sbu_0, # of connection points: 6
#     Node 18, Type 0, BuildingBlock: JUFBIX_clean_sbu_0, # of connection points: 6
#     Node 19, Type 0, BuildingBlock: JUFBIX_clean_sbu_0, # of connection points: 6
#     Node 20, Type 0, BuildingBlock: JUFBIX_clean_sbu_0, # of connection points: 6
#     Node 21, Type 0, BuildingBlock: JUFBIX_clean_sbu_0, # of connection points: 6
#     Node 22, Type 0, BuildingBlock: JUFBIX_clean_sbu_0, # of connection points: 6
#     Node 23, Type 0, BuildingBlock: JUFBIX_clean_sbu_0, # of connection points: 6
#     Node 24, Type 0, BuildingBlock: JUFBIX_clean_sbu_0, # of connection points: 6
#     Node 25, Type 0, BuildingBlock: JUFBIX_clean_sbu_0, # of connection points: 6
#     Node 26, Type 0, BuildingBlock: JUFBIX_clean_sbu_0, # of connection points: 6
#     Node 27, Type 0, BuildingBlock: JUFBIX_clean_sbu_0, # of connection points: 6
#     Node 28, Type 0, BuildingBlock: JUFBIX_clean_sbu_0, # of connection points: 6
#     Node 29, Type 0, BuildingBlock: JUFBIX_clean_sbu_0, # of connection points: 6
#     Node 30, Type 0, BuildingBlock: JUFBIX_clean_sbu_0, # of connection points: 6
#     Node 31, Type 0, BuildingBlock: JUFBIX_clean_sbu_0, # of connection points: 6
#     Edge 32, Type (0, 0), BuildingBlock: AJUNOK_clean_linker_0, # of connection points: 2
#     Edge 33, Type (0, 0), BuildingBlock: AJUNOK_clean_linker_0, # of connection points: 2
#     Edge 34, Type (0, 0), BuildingBlock: AJUNOK_clean_linker_0, # of connection points: 2
#     Edge 35, Type (0, 0), BuildingBlock: AJUNOK_clean_linker_0, # of connection points: 2
#     Edge 36, Type (0, 0), BuildingBlock: AJUNOK_clean_linker_0, # of connection points: 2
#     Edge 37, Type (0, 0), BuildingBlock: AJUNOK_clean_linker_0, # of connection points: 2
#     Edge 38, Type (0, 0), BuildingBlock: AJUNOK_clean_linker_0, # of connection points: 2
#     Edge 39, Type (0, 0), BuildingBlock: AJUNOK_clean_linker_0, # of connection points: 2
#     Edge 40, Type (0, 0), BuildingBlock: AJUNOK_clean_linker_0, # of connection points: 2
#     Edge 41, Type (0, 0), BuildingBlock: AJUNOK_clean_linker_0, # of connection points: 2
#     Edge 42, Type (0, 0), BuildingBlock: AJUNOK_clean_linker_0, # of connection points: 2
#     Edge 43, Type (0, 0), BuildingBlock: AJUNOK_clean_linker_0, # of connection points: 2
#     Edge 44, Type (0, 0), BuildingBlock: AJUNOK_clean_linker_0, # of connection points: 2
#     Edge 45, Type (0, 0), BuildingBlock: AJUNOK_clean_linker_0, # of connection points: 2
#     Edge 46, Type (0, 0), BuildingBlock: AJUNOK_clean_linker_0, # of connection points: 2
#     Edge 47, Type (0, 0), BuildingBlock: AJUNOK_clean_linker_0, # of connection points: 2
#     Edge 48, Type (0, 0), BuildingBlock: AJUNOK_clean_linker_0, # of connection points: 2
#     Edge 49, Type (0, 0), BuildingBlock: AJUNOK_clean_linker_0, # of connection points: 2
#     Edge 50, Type (0, 0), BuildingBlock: AJUNOK_clean_linker_0, # of connection points: 2
#     Edge 51, Type (0, 0), BuildingBlock: AJUNOK_clean_linker_0, # of connection points: 2
#     Edge 52, Type (0, 0), BuildingBlock: AJUNOK_clean_linker_0, # of connection points: 2
#     Edge 53, Type (0, 0), BuildingBlock: AJUNOK_clean_linker_0, # of connection points: 2
#     Edge 54, Type (0, 0), BuildingBlock: AJUNOK_clean_linker_0, # of connection points: 2
#     Edge 55, Type (0, 0), BuildingBlock: AJUNOK_clean_linker_0, # of connection points: 2
#     Edge 56, Type (0, 0), BuildingBlock: AJUNOK_clean_linker_0, # of connection points: 2
#     Edge 57, Type (0, 0), BuildingBlock: AJUNOK_clean_linker_0, # of connection points: 2
#     Edge 58, Type (0, 0), BuildingBlock: AJUNOK_clean_linker_0, # of connection points: 2
#     Edge 59, Type (0, 0), BuildingBlock: AJUNOK_clean_linker_0, # of connection points: 2
#     Edge 60, Type (0, 0), BuildingBlock: AJUNOK_clean_linker_0, # of connection points: 2
#     Edge 61, Type (0, 0), BuildingBlock: AJUNOK_clean_linker_0, # of connection points: 2
#     Edge 62, Type (0, 0), BuildingBlock: AJUNOK_clean_linker_0, # of connection points: 2
#     Edge 63, Type (0, 0), BuildingBlock: AJUNOK_clean_linker_0, # of connection points: 2
#     Edge 64, Type (0, 0), BuildingBlock: AJUNOK_clean_linker_0, # of connection points: 2
#     Edge 65, Type (0, 0), BuildingBlock: AJUNOK_clean_linker_0, # of connection points: 2
#     Edge 66, Type (0, 0), BuildingBlock: AJUNOK_clean_linker_0, # of connection points: 2
#     Edge 67, Type (0, 0), BuildingBlock: AJUNOK_clean_linker_0, # of connection points: 2
#     Edge 68, Type (0, 0), BuildingBlock: AJUNOK_clean_linker_0, # of connection points: 2
#     Edge 69, Type (0, 0), BuildingBlock: AJUNOK_clean_linker_0, # of connection points: 2
#     Edge 70, Type (0, 0), BuildingBlock: AJUNOK_clean_linker_0, # of connection points: 2
#     Edge 71, Type (0, 0), BuildingBlock: AJUNOK_clean_linker_0, # of connection points: 2
#     Edge 72, Type (0, 0), BuildingBlock: AJUNOK_clean_linker_0, # of connection points: 2
#     Edge 73, Type (0, 0), BuildingBlock: AJUNOK_clean_linker_0, # of connection points: 2
#     Edge 74, Type (0, 0), BuildingBlock: AJUNOK_clean_linker_0, # of connection points: 2
#     Edge 75, Type (0, 0), BuildingBlock: AJUNOK_clean_linker_0, # of connection points: 2
#     Edge 76, Type (0, 0), BuildingBlock: AJUNOK_clean_linker_0, # of connection points: 2
#     Edge 77, Type (0, 0), BuildingBlock: AJUNOK_clean_linker_0, # of connection points: 2
#     Edge 78, Type (0, 0), BuildingBlock: AJUNOK_clean_linker_0, # of connection points: 2
#     Edge 79, Type (0, 0), BuildingBlock: AJUNOK_clean_linker_0, # of connection points: 2
#     Edge 80, Type (0, 0), BuildingBlock: AJUNOK_clean_linker_0, # of connection points: 2
#     Edge 81, Type (0, 0), BuildingBlock: AJUNOK_clean_linker_0, # of connection points: 2
#     Edge 82, Type (0, 0), BuildingBlock: AJUNOK_clean_linker_0, # of connection points: 2
#     Edge 83, Type (0, 0), BuildingBlock: AJUNOK_clean_linker_0, # of connection points: 2
#     Edge 84, Type (0, 0), BuildingBlock: AJUNOK_clean_linker_0, # of connection points: 2
#     Edge 85, Type (0, 0), BuildingBlock: AJUNOK_clean_linker_0, # of connection points: 2
#     Edge 86, Type (0, 0), BuildingBlock: AJUNOK_clean_linker_0, # of connection points: 2
#     Edge 87, Type (0, 0), BuildingBlock: AJUNOK_clean_linker_0, # of connection points: 2
#     Edge 88, Type (0, 0), BuildingBlock: AJUNOK_clean_linker_0, # of connection points: 2
#     Edge 89, Type (0, 0), BuildingBlock: AJUNOK_clean_linker_0, # of connection points: 2
#     Edge 90, Type (0, 0), BuildingBlock: AJUNOK_clean_linker_0, # of connection points: 2
#     Edge 91, Type (0, 0), BuildingBlock: AJUNOK_clean_linker_0, # of connection points: 2
#     Edge 92, Type (0, 0), BuildingBlock: AJUNOK_clean_linker_0, # of connection points: 2
#     Edge 93, Type (0, 0), BuildingBlock: AJUNOK_clean_linker_0, # of connection points: 2
#     Edge 94, Type (0, 0), BuildingBlock: AJUNOK_clean_linker_0, # of connection points: 2
#     Edge 95, Type (0, 0), BuildingBlock: AJUNOK_clean_linker_0, # of connection points: 2
#     Edge 96, Type (0, 0), BuildingBlock: AJUNOK_clean_linker_0, # of connection points: 2
#     Edge 97, Type (0, 0), BuildingBlock: AJUNOK_clean_linker_0, # of connection points: 2
#     Edge 98, Type (0, 0), BuildingBlock: AJUNOK_clean_linker_0, # of connection points: 2
#     Edge 99, Type (0, 0), BuildingBlock: AJUNOK_clean_linker_0, # of connection points: 2
#     Edge 100, Type (0, 0), BuildingBlock: AJUNOK_clean_linker_0, # of connection points: 2
#     Edge 101, Type (0, 0), BuildingBlock: AJUNOK_clean_linker_0, # of connection points: 2
#     Edge 102, Type (0, 0), BuildingBlock: AJUNOK_clean_linker_0, # of connection points: 2
#     Edge 103, Type (0, 0), BuildingBlock: AJUNOK_clean_linker_0, # of connection points: 2
#     Edge 104, Type (0, 0), BuildingBlock: AJUNOK_clean_linker_0, # of connection points: 2
#     Edge 105, Type (0, 0), BuildingBlock: AJUNOK_clean_linker_0, # of connection points: 2
#     Edge 106, Type (0, 0), BuildingBlock: AJUNOK_clean_linker_0, # of connection points: 2
#     Edge 107, Type (0, 0), BuildingBlock: AJUNOK_clean_linker_0, # of connection points: 2
#     Edge 108, Type (0, 0), BuildingBlock: AJUNOK_clean_linker_0, # of connection points: 2
#     Edge 109, Type (0, 0), BuildingBlock: AJUNOK_clean_linker_0, # of connection points: 2
#     Edge 110, Type (0, 0), BuildingBlock: AJUNOK_clean_linker_0, # of connection points: 2
#     Edge 111, Type (0, 0), BuildingBlock: AJUNOK_clean_linker_0, # of connection points: 2
#     Edge 112, Type (0, 0), BuildingBlock: AJUNOK_clean_linker_0, # of connection points: 2
#     Edge 113, Type (0, 0), BuildingBlock: AJUNOK_clean_linker_0, # of connection points: 2
#     Edge 114, Type (0, 0), BuildingBlock: AJUNOK_clean_linker_0, # of connection points: 2
#     Edge 115, Type (0, 0), BuildingBlock: AJUNOK_clean_linker_0, # of connection points: 2
#     Edge 116, Type (0, 0), BuildingBlock: AJUNOK_clean_linker_0, # of connection points: 2
#     Edge 117, Type (0, 0), BuildingBlock: AJUNOK_clean_linker_0, # of connection points: 2
#     Edge 118, Type (0, 0), BuildingBlock: AJUNOK_clean_linker_0, # of connection points: 2
#     Edge 119, Type (0, 0), BuildingBlock: AJUNOK_clean_linker_0, # of connection points: 2
#     Edge 120, Type (0, 0), BuildingBlock: AJUNOK_clean_linker_0, # of connection points: 2
#     Edge 121, Type (0, 0), BuildingBlock: AJUNOK_clean_linker_0, # of connection points: 2
#     Edge 122, Type (0, 0), BuildingBlock: AJUNOK_clean_linker_0, # of connection points: 2
#     Edge 123, Type (0, 0), BuildingBlock: AJUNOK_clean_linker_0, # of connection points: 2
#     Edge 124, Type (0, 0), BuildingBlock: AJUNOK_clean_linker_0, # of connection points: 2
#     Edge 125, Type (0, 0), BuildingBlock: AJUNOK_clean_linker_0, # of connection points: 2
#     Edge 126, Type (0, 0), BuildingBlock: AJUNOK_clean_linker_0, # of connection points: 2
#     Edge 127, Type (0, 0), BuildingBlock: AJUNOK_clean_linker_0, # of connection points: 2
# Relax obj value: 0.679
# Max RMSD: 0.247
# Mean RMSD: 0.219
data_MOF--net-wir--node1-JUFBIX_clean_sbu_0--edge1-AJUNOK_clean_linker_0
_symmetry_space_group_name_H-M    P1
_symmetry_Int_Tables_number       1
_symmetry_cell_setting            triclinic
loop_
_symmetry_equiv_pos_as_xyz
'x, y, z'
_cell_length_a     31.573119
_cell_length_b     27.044132
_cell_length_c     66.235487
_cell_angle_alpha  96.48443
_cell_angle_beta   89.639644
_cell_angle_gamma 89.774118
loop_
_atom_site_label
_atom_site_type_symbol
_atom_site_fract_x
_atom_site_fract_y
_atom_site_fract_z
_atom_type_partial_charge
Co0 Co 0.24449 0.18444 0.36773 0.0
C1 C 0.15865 0.22455 0.35835 0.0
Co2 Co 0.19346 0.13876 0.37635 0.0
C3 C 0.27733 0.23694 0.33883 0.0
C4 C 0.32326 0.2417 0.36247 0.0
N5 N 0.28511 0.2222 0.35709 0.0
N6 N 0.30794 0.26528 0.33249 0.0
C7 C 0.3377 0.26841 0.34707 0.0
H8 H 0.24942 0.22672 0.32996 0.0
H9 H 0.33922 0.23715 0.37655 0.0
C10 C 0.27754 0.11051 0.39338 0.0
N11 N 0.15115 0.1004 0.38521 0.0
C12 C 0.11202 0.09559 0.37733 0.0
C13 C 0.14973 0.07741 0.4022 0.0
N14 N 0.08541 0.07309 0.38923 0.0
C15 C 0.10927 0.06061 0.40471 0.0
C16 C 0.22263 0.1023 0.33652 0.0
O17 O 0.28953 0.14283 0.38152 0.0
O18 O 0.23786 0.09948 0.39186 0.0
O19 O 0.19788 0.09091 0.35063 0.0
O20 O 0.24589 0.14027 0.34115 0.0
O21 O 0.14869 0.18184 0.36363 0.0
H22 H 0.1751 0.07701 0.41307 0.0
H23 H 0.10171 0.11271 0.3642 0.0
O24 O 0.19873 0.23164 0.35745 0.0
O25 O 0.24323 0.22652 0.39128 0.0
O26 O 0.18735 0.18602 0.40011 0.0
C27 C 0.21183 0.22348 0.40299 0.0
H28 H 0.36699 0.28897 0.34676 0.0
H29 H 0.09711 1.04654 0.41827 0.0
Co30 Co 0.17503 0.98761 0.61833 0.0
C31 C 0.13398 0.89012 0.61277 0.0
Co32 Co 0.20873 0.9306 0.63332 0.0
C33 C 0.12373 1.02362 0.5853 0.0
C34 C 0.13277 0.08229 0.60924 0.0
N35 N 0.14403 1.03463 0.60356 0.0
N36 N 0.10049 0.06218 0.57936 0.0
C37 C 0.10646 0.09904 0.59466 0.0
H38 H 0.1255 0.98736 0.57656 0.0
H39 H 0.14171 0.10311 0.62348 0.0
C40 C 0.24956 1.02199 0.64534 0.0
N41 N 0.23495 0.88042 0.64409 0.0
C42 C 0.23484 0.83307 0.63529 0.0
C43 C 0.24938 0.87873 0.66301 0.0
N44 N 0.2456 0.80103 0.64834 0.0
C45 C 0.25582 0.82979 0.66571 0.0
C46 C 0.23905 0.94042 0.59439 0.0
O47 O 0.22012 1.03929 0.63399 0.0
O48 O 0.25139 0.97498 0.64459 0.0
O49 O 0.242 0.91477 0.60924 0.0
O50 O 0.21137 0.9747 0.59531 0.0
O51 O 0.16535 0.88328 0.62384 0.0
H52 H 0.25049 0.91019 0.67463 0.0
H53 H 0.22208 0.82169 0.62036 0.0
O54 O 0.13172 0.93347 0.60653 0.0
O55 O 0.1408 1.00135 0.64075 0.0
O56 O 0.176 0.94803 0.65729 0.0
C57 C 0.14826 0.98225 0.65702 0.0
H58 H 0.09138 0.13524 0.59587 0.0
H59 H 0.26162 0.81636 0.68024 0.0
Co60 Co 0.43528 0.9131 0.85605 0.0
C61 C 0.52609 0.88529 0.85405 0.0
Co62 Co 0.47517 0.97354 0.86887 0.0
C63 C 0.37392 0.8588 0.83127 0.0
C64 C 0.40761 0.8109 0.84922 0.0
N65 N 0.40345 0.85897 0.84586 0.0
N66 N 0.36034 0.81254 0.82492 0.0
C67 C 0.38088 0.78219 0.83638 0.0
H68 H 0.36322 0.89196 0.82506 0.0
H69 H 0.42992 0.79736 0.85967 0.0
C70 C 0.38471 0.9899 0.87788 0.0
N71 N 0.5048 1.0309 0.87693 0.0
C72 C 0.53755 0.04879 0.86678 0.0
C73 C 0.4891 0.07087 0.88855 0.0
N74 N 0.54382 0.09834 0.87185 0.0
C75 C 0.51175 0.11202 0.88503 0.0
C76 C 0.45219 0.98123 0.82731 0.0
O77 O 0.38183 0.94773 0.86711 0.0
O78 O 0.421 1.0108 0.87742 0.0
O79 O 0.47527 0.99746 0.84211 0.0
O80 O 0.43045 0.94239 0.82945 0.0
O81 O 0.52951 0.93072 0.86246 0.0
H82 H 0.46214 0.07078 0.89867 0.0
H83 H 0.5571 1.02554 0.85605 0.0
O84 O 0.4888 0.87326 0.84749 0.0
O85 O 0.43928 0.88883 0.88112 0.0
O86 O 0.47493 0.9537 0.89513 0.0
C87 C 0.4555 0.91339 0.89667 0.0
H88 H 0.37829 0.74204 0.83487 0.0
H89 H 0.50698 0.14866 0.89315 0.0
Co90 Co 0.46946 0.1067 0.12067 0.0
C91 C 0.37968 0.07256 0.12326 0.0
Co92 Co 0.42662 0.14401 0.10133 0.0
C93 C 0.46986 0.05986 0.15565 0.0
C94 C 0.50897 1.01584 0.13234 0.0
N95 N 0.49501 0.0651 0.13937 0.0
N96 N 0.46026 0.9939 0.15196 0.0
C97 C 0.4947 0.93789 0.15193 0.0
H98 H 0.4455 0.08605 0.16135 0.0
H99 H 0.52617 1.01827 0.11813 0.0
C100 C 0.51288 0.18787 0.10611 0.0
N101 N 0.39431 0.17752 0.08416 0.0
C102 C 0.36822 0.15841 0.06926 0.0
C103 C 0.39404 0.22705 0.0831 0.0
N104 N 0.35208 0.19407 0.05881 0.0
C105 C 0.368 0.23735 0.06756 0.0
C106 C 0.42663 0.18986 0.13938 0.0
O107 O 0.51866 0.15238 0.11739 0.0
O108 O 0.47724 0.18807 0.09666 0.0
O109 O 0.41127 0.19017 0.12198 0.0
O110 O 0.45103 0.15457 0.14313 0.0
O111 O 0.37294 0.10365 0.11014 0.0
H112 H 0.41208 0.25389 0.09285 0.0
H113 H 0.36224 0.119 0.06574 0.0
O114 O 0.41871 0.06367 0.12536 0.0
O115 O 0.4915 0.06327 0.09588 0.0
O116 O 0.44583 0.0971 0.07727 0.0
C117 C 0.47909 0.07 0.07799 0.0
H118 H 0.48481 0.89908 0.14805 0.0
H119 H 0.36125 0.27381 0.06307 0.0
Co120 Co 0.23986 0.91465 0.21748 0.0
C121 C 0.15537 0.87236 0.22846 0.0
Co122 Co 0.18801 0.96178 0.2118 0.0
C123 C 0.27526 0.85979 0.24478 0.0
C124 C 0.31944 0.85606 0.22013 0.0
N125 N 0.28185 0.87609 0.22665 0.0
N126 N 0.30606 0.82996 0.24996 0.0
C127 C 0.33476 0.82756 0.23473 0.0
H128 H 0.248 0.86993 0.25438 0.0
H129 H 0.33432 0.86128 0.20578 0.0
C130 C 0.26873 0.99202 0.19214 0.0
N131 N 0.14406 0.99934 0.205 0.0
C132 C 0.10623 0.97917 0.20093 0.0
C133 C 0.13942 1.04808 0.2028 0.0
N134 N 0.07797 1.01229 0.19588 0.0
C135 C 0.09825 0.05617 0.19689 0.0
C136 C 0.21964 0.99546 0.25054 0.0
O137 O 0.28281 0.95886 0.2032 0.0
O138 O 0.22907 1.00259 0.19508 0.0
O139 O 0.19422 1.00844 0.23722 0.0
O140 O 0.24203 0.95678 0.24504 0.0
O141 O 0.14514 0.91724 0.22589 0.0
H142 H 0.16451 0.0753 0.20468 0.0
H143 H 0.09983 0.9398 0.2003 0.0
O144 O 0.19551 0.86466 0.22742 0.0
O145 O 0.23843 0.87522 0.19336 0.0
O146 O 0.18036 0.91594 0.18778 0.0
C147 C 0.20568 0.87978 0.18291 0.0
H148 H 0.36396 0.80631 0.23406 0.0
H149 H 0.08521 0.09034 0.19242 0.0
Co150 Co 0.48289 0.98566 0.4637 0.0
C151 C 0.3968 1.03041 0.4589 0.0
Co152 Co 0.43472 0.95517 0.48254 0.0
C153 C 0.49993 1.02994 0.42959 0.0
C154 C 0.54516 0.05398 0.45236 0.0
N155 N 0.51803 1.01668 0.44658 0.0
N156 N 0.50991 0.07647 0.42615 0.0
C157 C 0.54018 0.09089 0.43981 0.0
H158 H 0.47394 1.00964 0.42214 0.0
H159 H 0.56307 0.05753 0.46631 0.0
C160 C 0.51735 0.90235 0.48006 0.0
N161 N 0.39688 0.92624 0.49944 0.0
C162 C 0.37273 0.94704 0.51514 0.0
C163 C 0.39101 0.87679 0.49925 0.0
N164 N 0.35259 0.9123 0.52481 0.0
C165 C 0.36381 0.86816 0.51472 0.0
C166 C 0.435 0.90964 0.44424 0.0
O167 O 0.52681 0.93732 0.46933 0.0
O168 O 0.48005 0.90409 0.48816 0.0
O169 O 0.41689 0.9119 0.46128 0.0
O170 O 0.46522 0.93885 0.44138 0.0
O171 O 0.38719 1.00295 0.4731 0.0
H172 H 0.40625 0.8486 0.48873 0.0
H173 H 0.3711 0.98667 0.51982 0.0
O174 O 0.43665 1.03377 0.45595 0.0
O175 O 0.50367 1.02996 0.48772 0.0
O176 O 0.45598 0.99953 0.50655 0.0
C177 C 0.49006 1.0248 0.50558 0.0
H178 H 0.55604 0.12645 0.44144 0.0
H179 H 0.35316 0.83213 0.5183 0.0
Co180 Co 0.41805 0.19334 0.73786 0.0
C181 C 0.50847 0.22688 0.73731 0.0
Co182 Co 0.4593 0.13964 0.72058 0.0
C183 C 0.35692 0.2178 0.76738 0.0
C184 C 0.36277 0.26514 0.77097 0.0
N185 N 0.38061 0.23738 0.75373 0.0
N186 N 0.37068 0.2367 0.79227 0.0
C187 C 0.39227 0.30216 0.80295 0.0
H188 H 0.34559 0.17907 0.76376 0.0
H189 H 0.34177 0.29054 0.76067 0.0
C190 C 0.37115 0.11509 0.71252 0.0
N191 N 0.49056 0.0912 0.70545 0.0
C192 C 0.51509 0.05718 0.71336 0.0
C193 C 0.47588 0.06745 0.68796 0.0
N194 N 0.51388 1.0121 0.70233 0.0
C195 C 0.48905 1.01898 0.68628 0.0
C196 C 0.44642 0.11327 0.76043 0.0
O197 O 0.36546 0.15485 0.72493 0.0
O198 O 0.40875 0.09766 0.71243 0.0
O199 O 0.46923 0.10405 0.74462 0.0
O200 O 0.42173 0.1507 0.76083 0.0
O201 O 0.51098 0.18426 0.72646 0.0
H202 H 0.45284 0.08252 0.67827 0.0
H203 H 0.53224 0.06454 0.72748 0.0
O204 O 0.47213 0.23599 0.74641 0.0
O205 O 0.41369 0.23097 0.71701 0.0
O206 O 0.44723 0.17262 0.69738 0.0
C207 C 0.42281 0.21044 0.69941 0.0
H208 H 0.38407 0.32014 0.81823 0.0
H209 H 0.48128 0.99114 0.67384 0.0
Co210 Co 0.17897 0.11863 0.96549 0.0
C211 C 0.13956 0.21715 0.97041 0.0
Co212 Co 0.21419 0.1753 0.95043 0.0
C213 C 0.12405 0.08436 0.99768 0.0
C214 C 0.13427 1.0249 0.9741 0.0
N215 N 0.14547 0.07251 0.97965 0.0
N216 N 0.09973 1.0466 1.0035 0.0
C217 C 0.10678 1.00906 0.98855 0.0
H218 H 0.12644 0.12048 1.00642 0.0
H219 H 0.14448 1.00331 0.96016 0.0
C220 C 0.25426 0.08232 0.94009 0.0
N221 N 0.24571 0.22436 0.94075 0.0
C222 C 0.23066 0.26925 0.93783 0.0
C223 C 0.28825 0.23024 0.94166 0.0
N224 N 0.2613 0.30345 0.9378 0.0
C225 C 0.29801 0.27892 0.93934 0.0
C226 C 0.24052 0.16421 0.98985 0.0
O227 O 0.22449 0.06593 0.95149 0.0
O228 O 0.25539 0.12888 0.9396 0.0
O229 O 0.24522 0.18827 0.9747 0.0
O230 O 0.21225 0.131 0.98919 0.0
O231 O 0.17237 0.22439 0.96017 0.0
H232 H 0.31056 0.2018 0.94491 0.0
H233 H 0.19755 0.27707 0.93555 0.0
O234 O 0.13565 0.17343 0.97608 0.0
O235 O 0.14754 0.10595 0.94219 0.0
O236 O 0.18239 0.16054 0.9259 0.0
C237 C 0.1548 0.12604 0.92606 0.0
H238 H 0.09208 0.97281 0.98769 0.0
H239 H 0.32927 0.29496 0.93867 0.0
Co240 Co 0.89703 0.96111 0.70877 0.0
C241 C 0.81211 0.98914 0.69206 0.0
Co242 Co 0.84551 0.91703 0.71803 0.0
C243 C 0.97534 1.00996 0.7083 0.0
C244 C 0.93975 1.01854 0.68147 0.0
N245 N 0.93778 0.99977 0.6994 0.0
N246 N 1.00193 1.03173 0.69617 0.0
C247 C 0.97928 1.03829 0.67945 0.0
H248 H 0.98448 0.99746 0.72261 0.0
H249 H 0.91556 1.01423 0.66993 0.0
C250 C 0.93284 0.87774 0.72683 0.0
N251 N 0.80625 0.87844 0.72934 0.0
C252 C 0.8136 0.86758 0.7483 0.0
C253 C 0.77372 0.84885 0.72266 0.0
N254 N 0.78836 0.8319 0.75372 0.0
C255 C 0.76233 0.82003 0.73789 0.0
C256 C 0.87814 0.87583 0.68302 0.0
O257 O 0.94295 0.91912 0.72052 0.0
O258 O 0.89264 0.87189 0.72891 0.0
O259 O 0.84738 0.87315 0.69509 0.0
O260 O 0.90166 0.91424 0.68497 0.0
O261 O 0.79987 0.95641 0.7037 0.0
H262 H 0.76111 0.84605 0.70742 0.0
H263 H 0.83913 0.88343 0.75773 0.0
O264 O 0.85167 1.00055 0.69393 0.0
O265 O 0.89481 1.00766 0.73467 0.0
O266 O 0.84281 0.96342 0.74386 0.0
C267 C 0.86852 0.99889 0.74855 0.0
H268 H 0.99208 0.05059 0.66566 0.0
H269 H 0.73881 0.79087 0.73697 0.0
Co270 Co 0.87847 0.19121 0.45241 0.0
C271 C 0.83927 0.09851 0.44169 0.0
Co272 Co 0.91344 0.1344 0.46781 0.0
C273 C 0.85607 0.28851 0.44614 0.0
C274 C 0.84739 0.23863 0.41912 0.0
N275 N 0.85282 0.23994 0.43929 0.0
N276 N 0.85972 0.3171 0.43094 0.0
C277 C 0.85166 0.28617 0.41395 0.0
H278 H 0.86463 0.30136 0.46158 0.0
H279 H 0.84845 0.20504 0.40857 0.0
C280 C 0.95219 0.2325 0.4736 0.0
N281 N 0.94365 0.08902 0.48376 0.0
C282 C 0.96426 0.10227 0.50176 0.0
C283 C 0.95422 1.0407 0.47923 0.0
N284 N 0.9876 0.06471 0.50851 0.0
C285 C 0.98058 1.02585 0.49421 0.0
C286 C 0.94142 0.13694 0.42966 0.0
O287 O 0.92007 0.23999 0.46305 0.0
O288 O 0.95644 0.18819 0.47857 0.0
O289 O 0.94772 0.11756 0.44593 0.0
O290 O 0.91461 0.17218 0.42922 0.0
O291 O 0.86832 0.08251 0.45352 0.0
H292 H 0.94467 1.01799 0.46553 0.0
H293 H 0.96225 0.13933 0.50975 0.0
O294 O 0.83775 0.14513 0.44096 0.0
O295 O 0.84272 0.20754 0.47571 0.0
O296 O 0.87715 0.15069 0.4902 0.0
C297 C 0.84778 0.18297 0.49084 0.0
H298 H 0.85733 0.29522 0.39864 0.0
H299 H 0.99477 0.98932 0.49409 0.0
Co300 Co 0.62688 0.12298 0.21804 0.0
C301 C 0.71529 0.10113 0.20645 0.0
Co302 Co 0.66871 0.1817 0.22967 0.0
C303 C 0.55741 0.06635 0.20229 0.0
C304 C 0.60713 1.02176 0.21268 0.0
N305 N 0.59565 0.0692 0.21063 0.0
N306 N 0.54477 1.019 0.19896 0.0
C307 C 0.57578 0.99045 0.20512 0.0
H308 H 0.54035 0.09785 0.19753 0.0
H309 H 0.63697 1.01055 0.21873 0.0
C310 C 0.57835 0.21426 0.23329 0.0
N311 N 0.70369 0.23347 0.23937 0.0
C312 C 0.73323 0.2318 0.25391 0.0
C313 C 0.70156 0.2817 0.23608 0.0
N314 N 0.74906 0.27708 0.26016 0.0
C315 C 0.72939 0.30869 0.24891 0.0
C316 C 0.64578 0.18123 0.18967 0.0
O317 O 0.57359 0.16793 0.2263 0.0
O318 O 0.61676 0.22594 0.2383 0.0
O319 O 0.66543 0.20499 0.20439 0.0
O320 O 0.62396 0.14349 0.19227 0.0
O321 O 0.72071 0.14224 0.21789 0.0
H322 H 0.6796 0.29666 0.22584 0.0
H323 H 0.74197 0.19822 0.26036 0.0
O324 O 0.67802 0.08297 0.20713 0.0
O325 O 0.6295 0.09692 0.24417 0.0
O326 O 0.67247 0.15379 0.25683 0.0
C327 C 0.65215 0.11391 0.25895 0.0
H328 H 0.57669 0.95016 0.20301 0.0
H329 H 0.7329 0.34873 0.25066 0.0
Co330 Co 0.65178 0.94862 0.97991 0.0
C331 C 0.57038 0.89264 0.97525 0.0
Co332 Co 0.60489 0.97702 0.96022 0.0
C333 C 0.71583 0.93665 1.0106 0.0
C334 C 0.69098 0.868 0.99638 0.0
N335 N 0.68818 0.91778 0.99634 0.0
N336 N 0.73572 0.90039 1.0195 0.0
C337 C 0.71969 0.85726 1.01066 0.0
H338 H 0.72101 0.97612 1.01443 0.0
H339 H 0.67284 0.84105 0.98676 0.0
C340 C 0.691 1.0239 0.95702 0.0
N341 N 0.5712 1.00915 0.9428 0.0
C342 C 0.59111 1.02246 0.92614 0.0
C343 C 0.5454 1.04804 0.94876 0.0
N344 N 0.58394 0.07024 0.92337 0.0
C345 C 0.55329 0.08574 0.93691 0.0
C346 C 0.59326 1.01541 1.00303 0.0
O347 O 0.69971 0.99761 0.97172 0.0
O348 O 0.65136 1.0261 0.95346 0.0
O349 O 0.58104 1.01998 0.98485 0.0
O350 O 0.62794 0.9911 1.00438 0.0
O351 O 0.56089 0.92751 0.96449 0.0
H352 H 0.5263 0.05172 0.96243 0.0
H353 H 0.61662 1.00088 0.9186 0.0
O354 O 0.60656 0.89622 0.98419 0.0
O355 O 0.67256 0.90742 0.95866 0.0
O356 O 0.62575 0.93136 0.9377 0.0
C357 C 0.65718 0.9042 0.94117 0.0
H358 H 0.72681 0.82051 1.01472 0.0
H359 H 0.53903 0.12238 0.93893 0.0
Co360 Co 0.89996 0.13277 0.87511 0.0
C361 C 0.8143 0.10512 0.89227 0.0
Co362 Co 0.84846 0.17876 0.86676 0.0
C363 C 0.98061 0.08714 0.87558 0.0
C364 C 0.94403 0.0747 0.90185 0.0
N365 N 0.94171 0.09354 0.88394 0.0
N366 N 1.00805 0.06816 0.88809 0.0
C367 C 0.98486 0.05901 0.90443 0.0
H368 H 0.98996 0.10094 0.86151 0.0
H369 H 0.91914 0.0772 0.91321 0.0
C370 C 0.93615 0.21697 0.85708 0.0
N371 N 0.80882 0.21796 0.85607 0.0
C372 C 0.81651 0.23153 0.83752 0.0
C373 C 0.77151 0.23976 0.86189 0.0
N374 N 0.78643 0.26114 0.83137 0.0
C375 C 0.75741 0.26651 0.8465 0.0
C376 C 0.88012 0.21599 0.90233 0.0
O377 O 0.94578 0.17476 0.86282 0.0
O378 O 0.89593 0.22452 0.85608 0.0
O379 O 0.84996 0.22109 0.8903 0.0
O380 O 0.9048 0.17854 0.89913 0.0
O381 O 0.80243 0.13831 0.88078 0.0
H382 H 0.75596 0.23687 0.8763 0.0
H383 H 0.84395 0.21945 0.82837 0.0
O384 O 0.85412 0.09361 0.89035 0.0
O385 O 0.89693 0.08696 0.84905 0.0
O386 O 0.84608 0.1341 0.84051 0.0
C387 C 0.87087 0.09751 0.83544 0.0
H388 H 0.99771 1.04811 0.9184 0.0
H389 H 0.72883 0.28876 0.8466 0.0
Co390 Co 0.65739 0.1463 0.60244 0.0
C391 C 0.5751 0.19926 0.60511 0.0
Co392 Co 0.60984 0.11656 0.62173 0.0
C393 C 0.71799 0.16105 0.56984 0.0
C394 C 0.70045 0.22814 0.5883 0.0
N395 N 0.69503 0.1783 0.58648 0.0
N396 N 0.73692 0.19836 0.5612 0.0
C397 C 0.72623 0.24048 0.57292 0.0
H398 H 0.71952 0.12222 0.56374 0.0
H399 H 0.68557 0.25424 0.5998 0.0
C400 C 0.69552 0.0713 0.6261 0.0
N401 N 0.57332 0.08348 0.63746 0.0
C402 C 0.58936 0.05959 0.6525 0.0
C403 C 0.54047 0.05517 0.63034 0.0
N404 N 0.57188 1.01453 0.65331 0.0
C405 C 0.53967 1.0126 0.63993 0.0
C406 C 0.60351 0.0778 0.57904 0.0
O407 O 0.70536 0.09871 0.61189 0.0
O408 O 0.65573 0.06845 0.62912 0.0
O409 O 0.59014 0.0736 0.59703 0.0
O410 O 0.63767 0.10276 0.5778 0.0
O411 O 0.56602 0.16516 0.61632 0.0
H412 H 0.5214 0.06213 0.61747 0.0
H413 H 0.61704 0.07257 0.66101 0.0
O414 O 0.61198 0.19668 0.59667 0.0
O415 O 0.67366 0.18861 0.62436 0.0
O416 O 0.62679 0.16177 0.64498 0.0
C417 C 0.65673 0.19136 0.6417 0.0
H418 H 0.73631 0.27759 0.57052 0.0
H419 H 0.51757 0.98234 0.63682 0.0
Co420 Co 0.62198 0.98179 0.37057 0.0
C421 C 0.71189 0.9993 0.38033 0.0
Co422 Co 0.66335 0.92191 0.3576 0.0
C423 C 0.55874 0.0567 0.36842 0.0
C424 C 0.60632 0.07875 0.39025 0.0
N425 N 0.59122 1.03875 0.37863 0.0
N426 N 0.55201 0.10627 0.3735 0.0
C427 C 0.58384 0.11994 0.38657 0.0
H428 H 0.53962 1.03347 0.35768 0.0
H429 H 0.63272 0.07875 0.40054 0.0
C430 C 0.57294 0.89319 0.35472 0.0
N431 N 0.69683 0.86844 0.34736 0.0
C432 C 0.72647 0.8684 0.3326 0.0
C433 C 0.6937 0.82047 0.35094 0.0
N434 N 0.74159 0.82237 0.32658 0.0
C435 C 0.72119 0.79201 0.33815 0.0
C436 C 0.63841 0.91952 0.39796 0.0
O437 O 0.56844 0.93895 0.36272 0.0
O438 O 0.6109 0.88113 0.34881 0.0
O439 O 0.65826 0.89708 0.38277 0.0
O440 O 0.61877 0.9598 0.39637 0.0
O441 O 0.71615 0.95785 0.36903 0.0
H442 H 0.67141 0.80672 0.36143 0.0
H443 H 0.73596 0.90136 0.3259 0.0
O444 O 0.67488 1.01866 0.38041 0.0
O445 O 0.62532 1.0081 0.3444 0.0
O446 O 0.66841 0.95138 0.33093 0.0
C447 C 0.64823 0.99185 0.32934 0.0
H448 H 0.58832 0.15657 0.39465 0.0
H449 H 0.72404 0.75187 0.33668 0.0
Co450 Co 0.87257 0.90728 0.1267 0.0
C451 C 0.83538 1.00165 0.13973 0.0
Co452 Co 0.90941 0.96542 0.11297 0.0
C453 C 0.84618 0.81006 0.13146 0.0
C454 C 0.83168 0.85994 0.15796 0.0
N455 N 0.8438 0.85863 0.13842 0.0
N456 N 0.84344 0.78087 0.14654 0.0
C457 C 0.831 0.81198 0.16292 0.0
H458 H 0.85901 0.79691 0.11667 0.0
H459 H 0.83086 0.89323 0.16868 0.0
C460 C 0.94813 0.86573 0.106 0.0
N461 N 0.94149 1.01185 0.0983 0.0
C462 C 0.96222 1.00131 0.07998 0.0
C463 C 0.9527 0.0592 0.1043 0.0
N464 N 0.98557 1.04001 0.07428 0.0
C465 C 0.97936 0.07629 0.08985 0.0
C466 C 0.93505 0.9552 0.15032 0.0
O467 O 0.91462 0.85739 0.11572 0.0
O468 O 0.95232 0.91061 0.10153 0.0
O469 O 0.9426 0.9774 0.1349 0.0
O470 O 0.9069 0.92158 0.15004 0.0
O471 O 0.86535 1.01796 0.12839 0.0
H472 H 0.94338 0.07961 0.11864 0.0
H473 H 0.96059 0.96536 0.07102 0.0
O474 O 0.83193 0.95469 0.13877 0.0
O475 O 0.83898 0.89449 0.10323 0.0
O476 O 0.8738 0.95362 0.09016 0.0
C477 C 0.84502 0.92093 0.08884 0.0
H478 H 0.8309 0.80232 0.17836 0.0
H479 H 0.99443 0.11235 0.09132 0.0
Co480 Co 0.7499 0.67944 0.86699 0.0
C481 C 0.66367 0.72063 0.8581 0.0
Co482 Co 0.69773 0.63536 0.87598 0.0
C483 C 0.78241 0.72813 0.8367 0.0
C484 C 0.82613 0.74125 0.86115 0.0
N485 N 0.79017 0.71671 0.85555 0.0
N486 N 0.81089 0.75909 0.83021 0.0
C487 C 0.83919 0.76755 0.84535 0.0
H488 H 0.75521 0.71491 0.82783 0.0
H489 H 0.84087 0.74151 0.87585 0.0
C490 C 0.78207 0.60531 0.89252 0.0
N491 N 0.6552 0.59789 0.88508 0.0
C492 C 0.61696 0.59138 0.87634 0.0
C493 C 0.65242 0.57679 0.90248 0.0
N494 N 0.58966 0.56898 0.88791 0.0
C495 C 0.612 0.55905 0.90429 0.0
C496 C 0.7252 0.59854 0.8362 0.0
O497 O 0.79474 0.63805 0.88098 0.0
O498 O 0.74227 0.59464 0.8907 0.0
O499 O 0.69907 0.58952 0.85009 0.0
O500 O 0.75133 0.63355 0.841 0.0
O501 O 0.65306 0.67923 0.86423 0.0
H502 H 0.67683 0.57807 0.9139 0.0
H503 H 0.60787 0.60668 0.86259 0.0
O504 O 0.7039 0.72619 0.85635 0.0
O505 O 0.74881 0.72307 0.89033 0.0
O506 O 0.69435 0.68092 0.89985 0.0
C507 C 0.71804 0.71908 0.90234 0.0
H508 H 0.86601 0.79235 0.84535 0.0
H509 H 0.5987 0.54552 0.91773 0.0
Co510 Co 0.67921 0.45871 0.11203 0.0
C511 C 0.64125 0.35797 0.10774 0.0
Co512 Co 0.71823 0.40223 0.12553 0.0
C513 C 0.62304 0.49305 0.07967 0.0
C514 C 0.63671 0.55284 0.10253 0.0
N515 N 0.64548 0.50425 0.09737 0.0
N516 N 0.60027 0.53223 0.07383 0.0
C517 C 0.60959 0.56985 0.08834 0.0
H518 H 0.62275 0.45621 0.07137 0.0
H519 H 0.64898 0.57468 0.11589 0.0
C520 C 0.75595 0.49665 0.13643 0.0
N521 N 0.74946 0.3557 0.13716 0.0
C522 C 0.74721 0.30668 0.1313 0.0
C523 C 0.76445 0.35965 0.15622 0.0
N524 N 0.75196 0.27988 0.147 0.0
C525 C 0.76664 0.31275 0.1622 0.0
C526 C 0.74004 0.41082 0.08614 0.0
O527 O 0.72462 0.51246 0.1258 0.0
O528 O 0.75982 0.44985 0.1355 0.0
O529 O 0.74876 0.38672 0.10098 0.0
O530 O 0.71187 0.44446 0.0883 0.0
O531 O 0.67571 0.35122 0.11682 0.0
H532 H 0.76618 0.39409 0.16622 0.0
H533 H 0.73277 0.29174 0.1172 0.0
O534 O 0.63576 0.4023 0.1026 0.0
O535 O 0.64831 0.47299 0.13469 0.0
O536 O 0.68619 0.41923 0.14989 0.0
C537 C 0.65739 0.4525 0.15035 0.0
H538 H 0.59822 0.60772 0.08869 0.0
H539 H 0.76894 0.30531 0.17789 0.0
Co540 Co 0.9342 0.42546 0.35793 0.0
C541 C 1.02342 0.39236 0.35298 0.0
Co542 Co 0.97772 0.48478 0.36835 0.0
C543 C 0.86787 0.37362 0.33655 0.0
C544 C 0.90266 0.32413 0.35333 0.0
N545 N 0.89876 0.3725 0.35042 0.0
N546 N 0.85391 0.32787 0.32974 0.0
C547 C 0.87498 0.29648 0.34056 0.0
H548 H 0.85741 0.4073 0.33067 0.0
H549 H 0.92613 0.30959 0.36294 0.0
C550 C 0.88899 0.50588 0.38136 0.0
N551 N 1.00995 0.54237 0.37206 0.0
C552 C 0.05183 0.54887 0.36929 0.0
C553 C 0.99276 0.58696 0.36922 0.0
N554 N 0.06157 0.59604 0.36542 0.0
C555 C 1.02383 0.61919 0.36489 0.0
C556 C 0.94671 0.48851 0.32704 0.0
O557 O 0.88313 0.46515 0.36982 0.0
O558 O 0.92644 0.52398 0.3805 0.0
O559 O 0.96993 0.50687 0.34138 0.0
O560 O 0.92712 0.44881 0.33006 0.0
O561 O 1.02969 0.43897 0.35916 0.0
H562 H 0.9593 0.59507 0.36869 0.0
H563 H 0.07488 0.51957 0.37034 0.0
O564 O 0.98462 0.38122 0.3489 0.0
O565 O 0.94146 0.40615 0.38398 0.0
O566 O 0.98532 0.46714 0.39472 0.0
C567 C 0.96355 0.42943 0.39806 0.0
H568 H 0.87288 0.25629 0.3383 0.0
H569 H 1.01922 0.658 0.36284 0.0
Co570 Co 0.98788 0.62282 0.62316 0.0
C571 C 0.90372 0.57519 0.62976 0.0
Co572 Co 0.93813 0.65244 0.60503 0.0
C573 C 1.02727 0.54279 0.63967 0.0
C574 C 0.07263 0.58927 0.62742 0.0
N575 N 1.03216 0.58912 0.63433 0.0
N576 N 0.0613 0.51313 0.63503 0.0
C577 C 0.09056 0.54289 0.62794 0.0
H578 H 0.99867 0.53026 0.64639 0.0
H579 H 0.08694 0.61891 0.62013 0.0
C580 C 1.01662 0.71083 0.60649 0.0
N581 N 0.89584 0.6833 0.59126 0.0
C582 C 0.87337 0.6654 0.57471 0.0
C583 C 0.88459 0.73173 0.59473 0.0
N584 N 0.84851 0.70072 0.56783 0.0
C585 C 0.85564 0.74248 0.58042 0.0
C586 C 0.94249 0.69249 0.64552 0.0
O587 O 1.02742 0.67583 0.61686 0.0
O588 O 0.97984 0.70666 0.59823 0.0
O589 O 0.9244 0.69161 0.62851 0.0
O590 O 0.97403 0.66399 0.64773 0.0
O591 O 0.89365 0.60184 0.61532 0.0
H592 H 0.89791 0.75819 0.60642 0.0
H593 H 0.87591 0.62749 0.56755 0.0
O594 O 0.94395 0.57277 0.6326 0.0
O595 O 1.00495 0.58256 0.59691 0.0
O596 O 0.95534 0.61185 0.5792 0.0
C597 C 0.98989 0.58706 0.57936 0.0
H598 H 0.1221 0.53155 0.62279 0.0
H599 H 0.84254 0.77887 0.57883 0.0
Co600 Co 0.74095 0.41805 0.71889 0.0
C601 C 0.65284 0.3827 0.72984 0.0
Co602 Co 0.68965 0.46448 0.71032 0.0
C603 C 0.77235 0.36626 0.74856 0.0
C604 C 0.81443 0.35171 0.72317 0.0
N605 N 0.77986 0.37845 0.72978 0.0
N606 N 0.79953 0.3323 0.75394 0.0
C607 C 0.82696 0.32322 0.73829 0.0
H608 H 0.74636 0.38117 0.75814 0.0
H609 H 0.82847 0.35146 0.70822 0.0
C610 C 0.7767 0.49017 0.69278 0.0
N611 N 0.64767 0.50374 0.70067 0.0
C612 C 0.60601 0.50164 0.70514 0.0
C613 C 0.64938 0.52757 0.68388 0.0
N614 N 0.58159 0.51922 0.69104 0.0
C615 C 0.60882 0.53701 0.67793 0.0
C616 C 0.72015 0.50138 0.74937 0.0
O617 O 0.78791 0.45706 0.70445 0.0
O618 O 0.73671 0.50145 0.69431 0.0
O619 O 0.69404 0.512 0.73576 0.0
O620 O 0.74422 0.46398 0.74458 0.0
O621 O 0.6439 0.42468 0.72375 0.0
H622 H 0.67744 0.53157 0.67484 0.0
H623 H 0.59285 0.481 0.71669 0.0
O624 O 0.69295 0.37409 0.73043 0.0
O625 O 0.73817 0.37404 0.69568 0.0
O626 O 0.68309 0.41635 0.68698 0.0
C627 C 0.70666 0.37783 0.68428 0.0
H628 H 0.85288 0.29674 0.73754 0.0
H629 H 0.60014 0.54813 0.6633 0.0
Co630 Co 0.98652 0.47667 0.96039 0.0
C631 C 0.90166 0.52454 0.95763 0.0
Co632 Co 0.94118 0.45209 0.98176 0.0
C633 C 1.01456 0.55172 0.93931 0.0
C634 C 1.02066 0.48105 0.92137 0.0
N635 N 1.0184 0.50243 0.94074 0.0
N636 N 1.00826 0.5611 0.92007 0.0
C637 C 1.01343 0.51682 0.90867 0.0
H638 H 1.00854 0.57888 0.95231 0.0
H639 H 1.02097 0.44136 0.91679 0.0
C640 C 1.02163 0.39465 0.97611 0.0
N641 N 0.90928 0.42878 1.00215 0.0
C642 C 0.86746 0.42238 1.00545 0.0
C643 C 0.92849 0.41261 1.01836 0.0
N644 N 0.86059 0.40146 1.02279 0.0
C645 C 0.89891 0.39569 1.0309 0.0
C646 C 0.93151 0.40035 0.94543 0.0
O647 O 1.02951 0.42731 0.96419 0.0
O648 O 0.98706 0.40039 0.98644 0.0
O649 O 0.9177 0.40543 0.9634 0.0
O650 O 0.96107 0.42831 0.94033 0.0
O651 O 0.89275 0.50002 0.97291 0.0
H652 H 0.96209 0.41444 1.02137 0.0
H653 H 0.84272 0.43345 0.99562 0.0
O654 O 0.94106 0.52515 0.95348 0.0
O655 O 1.01499 0.52255 0.98269 0.0
O656 O 0.96691 0.4998 1.00318 0.0
C657 C 1.0021 0.52174 1.00111 0.0
H658 H 1.01035 0.5102 0.89232 0.0
H659 H 0.90486 0.38297 0.04556 0.0
Co660 Co 0.92772 0.6716 0.22519 0.0
C661 C 1.0178 0.70373 0.22851 0.0
Co662 Co 0.96981 0.61261 0.21224 0.0
C663 C 0.86349 0.72204 0.25022 0.0
C664 C 0.89549 0.7722 0.2326 0.0
N665 N 0.89281 0.7237 0.23542 0.0
N666 N 0.84875 0.76761 0.25728 0.0
C667 C 0.86824 0.79931 0.24599 0.0
H668 H 0.85412 0.68809 0.2562 0.0
H669 H 0.91755 0.78719 0.22233 0.0
C670 C 0.88046 0.59248 0.20153 0.0
N671 N 1.00246 0.55689 0.20459 0.0
C672 C 1.0364 0.5426 0.21481 0.0
C673 C 0.98924 0.51483 0.19367 0.0
N674 N 1.04619 0.49358 0.21027 0.0
C675 C 1.01486 0.47617 0.19753 0.0
C676 C 0.94442 0.60231 0.25376 0.0
O677 O 0.87548 0.63332 0.21329 0.0
O678 O 0.91773 0.57362 0.20178 0.0
O679 O 0.9669 0.58607 0.23853 0.0
O680 O 0.92375 0.6424 0.25212 0.0
O681 O 1.02275 0.65802 0.2204 0.0
H682 H 0.96215 0.51164 0.18375 0.0
H683 H 0.05438 0.56816 0.22517 0.0
O684 O 0.97946 0.71483 0.23418 0.0
O685 O 0.93158 0.69615 0.19998 0.0
O686 O 0.97227 0.63436 0.18643 0.0
C687 C 0.95065 0.6732 0.18468 0.0
H688 H 0.86492 0.83943 0.2481 0.0
H689 H 1.01262 0.43875 0.18989 0.0
Co690 Co 0.68396 0.63374 0.47114 0.0
C691 C 0.64422 0.73261 0.47663 0.0
Co692 Co 0.71974 0.69086 0.45623 0.0
C693 C 0.6309 0.59862 0.50454 0.0
C694 C 0.64163 0.53971 0.4808 0.0
N695 N 0.65219 0.5875 0.48637 0.0
N696 N 0.60745 0.56004 0.51043 0.0
C697 C 0.61465 0.52308 0.49525 0.0
H698 H 0.6313 0.63535 0.5129 0.0
H699 H 0.65187 0.51848 0.46678 0.0
C700 C 0.75999 0.59788 0.44531 0.0
N701 N 0.748 0.73897 0.44416 0.0
C702 C 0.74518 0.78756 0.4509 0.0
C703 C 0.76088 0.73725 0.42473 0.0
N704 N 0.74743 0.81628 0.43571 0.0
C705 C 0.76142 0.78506 0.41962 0.0
C706 C 0.74755 0.68134 0.49505 0.0
O707 O 0.73036 0.58156 0.45689 0.0
O708 O 0.76099 0.64448 0.44481 0.0
O709 O 0.75385 0.70552 0.47994 0.0
O710 O 0.7185 0.64897 0.49431 0.0
O711 O 0.67737 0.74041 0.46661 0.0
H712 H 0.76244 0.70373 0.41416 0.0
H713 H 0.73232 0.80089 0.46565 0.0
O714 O 0.64004 0.68814 0.48158 0.0
O715 O 0.65119 0.61859 0.44866 0.0
O716 O 0.68477 0.67426 0.43259 0.0
C717 C 0.6571 0.63994 0.4328 0.0
H718 H 0.60114 0.4862 0.49446 0.0
H719 H 0.76188 0.7942 0.40411 0.0
Co720 Co 0.39911 0.46117 0.21077 0.0
C721 C 0.316 0.48987 0.19307 0.0
Co722 Co 0.34877 0.41617 0.2197 0.0
C723 C 0.47742 0.47473 0.19483 0.0
C724 C 0.44916 0.54632 0.20232 0.0
N725 N 0.44156 0.49705 0.20153 0.0
N726 N 0.50761 0.50722 0.19147 0.0
C727 C 0.49038 0.55279 0.19595 0.0
H728 H 0.48188 0.43476 0.19301 0.0
H729 H 0.42678 0.57532 0.20769 0.0
C730 C 0.4358 0.37678 0.22919 0.0
N731 N 0.30861 0.37939 0.2311 0.0
C732 C 0.31729 0.36507 0.24936 0.0
C733 C 0.2717 0.35691 0.22554 0.0
N734 N 0.28862 0.33379 0.25538 0.0
C735 C 0.25895 0.32877 0.24078 0.0
C736 C 0.37948 0.37399 0.1852 0.0
O737 O 0.44428 0.42029 0.22439 0.0
O738 O 0.39575 0.36828 0.22987 0.0
O739 O 0.34773 0.373 0.1967 0.0
O740 O 0.40437 0.41113 0.1875 0.0
O741 O 0.30324 0.45901 0.20556 0.0
H742 H 0.25597 0.3595 0.21124 0.0
H743 H 0.34495 0.37677 0.2582 0.0
O744 O 0.35601 0.49926 0.19439 0.0
O745 O 0.39535 0.51105 0.23567 0.0
O746 O 0.34904 0.46108 0.24606 0.0
C747 C 0.37188 0.49953 0.25018 0.0
H748 H 0.50609 0.58775 0.19456 0.0
H749 H 0.23115 0.3055 0.24085 0.0
Co750 Co 0.37727 0.67189 0.94807 0.0
C751 C 0.34132 0.57799 0.93601 0.0
Co752 Co 0.41532 0.61573 0.96237 0.0
C753 C 0.34884 0.76883 0.9441 0.0
C754 C 0.33727 0.72051 0.91691 0.0
N755 N 0.34805 0.72057 0.9365 0.0
N756 N 0.34636 0.79928 0.92945 0.0
C757 C 0.33578 0.76905 0.9126 0.0
H758 H 0.3611 0.78115 0.95905 0.0
H759 H 0.33792 0.68794 0.90581 0.0
C760 C 0.45135 0.71547 0.96879 0.0
N761 N 0.44786 0.56974 0.97731 0.0
C762 C 0.4673 0.58082 0.99581 0.0
C763 C 0.46046 0.52259 0.97152 0.0
N764 N 0.4915 0.54284 1.00174 0.0
C765 C 0.48679 0.5063 0.9862 0.0
C766 C 0.44077 0.62234 0.92396 0.0
O767 O 0.41844 0.722 0.95857 0.0
O768 O 0.45678 0.67113 0.97366 0.0
O769 O 0.44908 0.60315 0.94009 0.0
O770 O 0.4121 0.65585 0.92394 0.0
O771 O 0.37177 0.56246 0.94721 0.0
H772 H 0.45197 0.50158 0.95726 0.0
H773 H 0.46489 0.61715 1.00442 0.0
O774 O 0.33705 0.62477 0.93664 0.0
O775 O 0.34329 0.68528 0.97214 0.0
O776 O 0.37959 0.62795 0.98529 0.0
C777 C 0.34994 0.65989 0.98687 0.0
H778 H 0.33651 0.77998 0.89736 0.0
H779 H 0.50152 0.46992 0.98534 0.0
Co780 Co 0.11673 0.62026 0.71246 0.0
C781 C 0.2054 0.59002 0.70612 0.0
Co782 Co 0.15968 0.67369 0.72827 0.0
C783 C 0.09303 0.52881 0.69035 0.0
C784 C 1.04467 0.55594 0.7113 0.0
N785 N 0.08056 0.5698 0.70229 0.0
N786 N 0.06786 0.4891 0.69209 0.0
C787 C 1.03654 0.50652 0.70489 0.0
H788 H 0.12095 0.52781 0.68079 0.0
H789 H 1.02751 0.5789 0.72308 0.0
C790 C 0.07091 0.71224 0.72827 0.0
N791 N 0.19537 0.72214 0.74015 0.0
C792 C 0.22602 0.71799 0.75396 0.0
C793 C 0.19449 0.77081 0.73743 0.0
N794 N 0.24433 0.76219 0.75993 0.0
C795 C 0.22449 0.79553 0.74959 0.0
C796 C 0.15234 0.68007 0.68707 0.0
O797 O 0.06625 0.66843 0.71867 0.0
O798 O 0.10829 0.72087 0.73563 0.0
O799 O 0.16479 0.70061 0.70407 0.0
O800 O 0.12533 0.6449 0.68642 0.0
O801 O 0.21087 0.62956 0.7186 0.0
H802 H 0.17265 0.78747 0.72762 0.0
H803 H 0.23439 0.68337 0.75972 0.0
O804 O 0.16691 0.57585 0.7041 0.0
O805 O 0.11078 0.59247 0.73898 0.0
O806 O 0.15653 0.64374 0.75388 0.0
C807 C 0.13249 0.60639 0.75475 0.0
H808 H 1.0102 0.48493 0.70959 0.0
H809 H 0.23002 0.83525 0.75132 0.0
Co810 Co 0.15441 0.4599 0.48025 0.0
C811 C 0.07329 0.40487 0.47827 0.0
Co812 Co 0.10543 0.48675 0.46114 0.0
C813 C 0.2179 0.45049 0.51132 0.0
C814 C 0.19932 0.38089 0.49523 0.0
N815 N 0.19282 0.43048 0.49615 0.0
N816 N 0.23957 0.41511 0.51987 0.0
C817 C 0.22792 0.37138 0.50978 0.0
H818 H 0.21893 0.48989 0.51651 0.0
H819 H 0.18353 0.35322 0.48487 0.0
C820 C 0.1911 0.53405 0.45607 0.0
N821 N 0.06827 0.51696 0.44452 0.0
C822 C 0.08576 0.52788 0.427 0.0
C823 C 1.04602 0.55838 0.45126 0.0
N824 N 0.08256 0.57657 0.42471 0.0
C825 C 0.05548 0.59542 0.43939 0.0
C826 C 0.09853 0.52832 0.50361 0.0
O827 O 0.20065 0.50876 0.47094 0.0
O828 O 0.15139 0.53458 0.45227 0.0
O829 O 0.08516 0.53198 0.48561 0.0
O830 O 0.13281 0.5033 0.50474 0.0
O831 O 0.06256 0.43928 0.4676 0.0
H832 H 1.02884 0.56392 0.46544 0.0
H833 H 0.10617 0.50224 0.41792 0.0
O834 O 0.11061 0.40768 0.48602 0.0
O835 O 0.17315 0.41773 0.45875 0.0
O836 O 0.12304 0.43823 0.43871 0.0
C837 C 0.15508 0.41163 0.44184 0.0
H838 H 0.2389 0.33507 0.51293 0.0
H839 H 1.04559 0.63389 0.44234 0.0
Co840 Co 0.39966 0.6425 0.37594 0.0
C841 C 0.31397 0.61477 0.39175 0.0
Co842 Co 0.34914 0.6882 0.36642 0.0
C843 C 0.48235 0.60299 0.38002 0.0
C844 C 0.44129 0.58568 0.40405 0.0
N845 N 0.44164 0.60559 0.38629 0.0
N846 N 0.5078 0.58494 0.39363 0.0
C847 C 0.48203 0.57297 0.40859 0.0
H848 H 0.49416 0.61875 0.3668 0.0
H849 H 0.41422 0.58538 0.41411 0.0
C850 C 0.43597 0.72788 0.35834 0.0
N851 N 0.31007 0.72553 0.35439 0.0
C852 C 0.32034 0.73847 0.33601 0.0
C853 C 0.27161 0.74621 0.35865 0.0
N854 N 0.29112 0.767 0.3286 0.0
C855 C 0.25954 0.77166 0.34249 0.0
C856 C 0.37748 0.7281 0.40181 0.0
O857 O 0.44567 0.68541 0.3639 0.0
O858 O 0.39596 0.7347 0.35671 0.0
O859 O 0.34752 0.73114 0.3895 0.0
O860 O 0.4021 0.69039 0.39952 0.0
O861 O 0.30284 0.6472 0.37976 0.0
H862 H 0.25375 0.74313 0.37244 0.0
H863 H 0.34891 0.72634 0.32779 0.0
O864 O 0.35378 0.60343 0.3907 0.0
O865 O 0.39846 0.59395 0.35036 0.0
O866 O 0.35056 0.64303 0.34038 0.0
C867 C 0.37428 0.60513 0.33609 0.0
H868 H 0.49252 0.56191 0.42296 0.0
H869 H 0.23038 0.79216 0.34114 0.0
Co870 Co 0.16223 0.64576 0.10113 0.0
C871 C 0.07855 0.69848 0.10285 0.0
Co872 Co 0.11336 0.61656 0.11975 0.0
C873 C 0.22483 0.65353 0.06916 0.0
C874 C 0.20528 0.72424 0.08419 0.0
N875 N 0.20032 0.6748 0.08457 0.0
N876 N 0.24461 0.6879 0.05916 0.0
C877 C 0.23233 0.73236 0.06859 0.0
H878 H 0.22652 0.61379 0.06475 0.0
H879 H 0.18914 0.75267 0.09423 0.0
C880 C 0.19952 0.5718 0.12591 0.0
N881 N 0.07783 0.58557 0.13674 0.0
C882 C 0.09529 0.57462 0.15426 0.0
C883 C 0.05318 0.546 0.13078 0.0
N884 N 0.08776 0.52755 0.15784 0.0
C885 C 0.05932 0.51017 0.14371 0.0
C886 C 0.10866 0.57599 0.07735 0.0
O887 O 0.20987 0.59814 0.11138 0.0
O888 O 0.15949 0.5691 0.12842 0.0
O889 O 0.09363 0.57146 0.09511 0.0
O890 O 0.14288 0.60101 0.07694 0.0
O891 O 0.06926 0.66375 0.11367 0.0
H892 H 1.03652 0.54032 0.1165 0.0
H893 H 0.11977 0.59698 0.162 0.0
O894 O 0.11613 0.6968 0.09493 0.0
O895 O 0.17916 0.68942 0.12216 0.0
O896 O 0.13019 0.66483 0.14212 0.0
C897 C 0.16068 0.69372 0.1391 0.0
H898 H 0.24176 0.76818 0.06427 0.0
H899 H 1.04574 0.47332 0.14202 0.0
Co900 Co 0.1302 0.46186 0.86513 0.0
C901 C 0.21954 0.48323 0.87041 0.0
Co902 Co 0.16914 0.40639 0.84752 0.0
C903 C 0.08332 0.55278 0.87397 0.0
C904 C 0.11883 0.53287 0.89916 0.0
N905 N 0.10353 0.51392 0.88096 0.0
N906 N 0.08603 0.59541 0.88678 0.0
C907 C 0.1088 0.58237 0.90261 0.0
H908 H 0.06699 0.5502 0.85959 0.0
H909 H 0.13958 0.51344 0.90855 0.0
C910 C 0.07819 0.37579 0.85036 0.0
N911 N 0.20105 0.36069 0.83019 0.0
C912 C 0.24019 0.34102 0.83199 0.0
C913 C 0.18985 0.34548 0.81083 0.0
N914 N 0.25383 0.3153 0.81442 0.0
C915 C 0.22211 0.31758 0.80116 0.0
C916 C 0.16747 0.39145 0.88634 0.0
O917 O 0.07686 0.41861 0.86124 0.0
O918 O 0.11356 0.36611 0.84053 0.0
O919 O 0.17536 0.36962 0.86876 0.0
O920 O 0.14414 0.43009 0.88837 0.0
O921 O 0.2237 0.44281 0.85825 0.0
H922 H 0.16023 0.35484 0.80404 0.0
H923 H 0.2587 0.34595 0.84573 0.0
O924 O 0.18234 0.50187 0.87118 0.0
O925 O 0.11781 0.49525 0.84077 0.0
O926 O 0.16429 0.44712 0.82437 0.0
C927 C 0.13904 0.48396 0.82456 0.0
H928 H 0.11671 0.60644 0.91622 0.0
H929 H 0.22193 0.29927 0.78575 0.0
Co930 Co 0.37301 0.40803 0.62777 0.0
C931 C 0.33662 0.5015 0.64272 0.0
Co932 Co 0.41163 0.46745 0.61608 0.0
C933 C 0.35625 0.31314 0.63929 0.0
C934 C 0.29846 0.35221 0.63576 0.0
N935 N 0.34098 0.35726 0.63546 0.0
N936 N 0.32549 0.28034 0.64202 0.0
C937 C 0.28881 0.30504 0.64031 0.0
H938 H 0.38959 0.30619 0.64161 0.0
H939 H 0.27603 0.3811 0.63313 0.0
C940 C 0.4477 0.36781 0.607 0.0
N941 N 0.44675 0.51569 0.60358 0.0
C942 C 0.46989 0.50671 0.58582 0.0
C943 C 0.45597 0.56339 0.61006 0.0
N944 N 0.49361 0.54625 0.58117 0.0
C945 C 0.48407 0.58199 0.59655 0.0
C946 C 0.43598 0.44659 0.65343 0.0
O947 O 0.41262 0.35865 0.61513 0.0
O948 O 0.45401 0.4135 0.60422 0.0
O949 O 0.44281 0.47353 0.63926 0.0
O950 O 0.40714 0.41332 0.65185 0.0
O951 O 0.36696 0.51863 0.63178 0.0
H952 H 0.44329 0.58354 0.62383 0.0
H953 H 0.46989 0.47113 0.57654 0.0
O954 O 0.33345 0.45457 0.64161 0.0
O955 O 0.3403 0.40413 0.60389 0.0
O956 O 0.37874 0.46145 0.59217 0.0
C957 C 0.34803 0.43143 0.58999 0.0
H958 H 0.25766 0.2911 0.64349 0.0
H959 H 0.49581 0.61972 0.59797 0.0
C960 C 0.15376 0.28174 0.41566 0.0
C961 C 0.19737 0.27011 0.41458 0.0
C962 C 0.13963 0.33005 0.42249 0.0
C963 C 0.16872 0.36806 0.42829 0.0
H964 H 0.13043 0.2537 0.41079 0.0
H965 H 0.1059 0.33705 0.42417 0.0
S966 S 0.28581 0.35742 0.42789 0.0
N967 N 0.26921 0.30094 0.41971 0.0
N968 N 0.24259 0.39159 0.4322 0.0
C969 C 0.2122 0.35714 0.42685 0.0
C970 C 0.22654 0.30818 0.42021 0.0
C971 C 0.1083 0.04916 0.67683 0.0
C972 C 0.1228 0.99962 0.67487 0.0
C973 C 0.07082 0.06242 0.68727 0.0
C974 C 1.047 1.02637 0.69579 0.0
H975 H 0.12319 0.0763 0.66826 0.0
H976 H 0.05743 0.09898 0.68624 0.0
S977 S 0.08008 0.89627 0.70059 0.0
N978 N 0.11765 0.91827 0.68671 0.0
N979 N 1.04638 0.94266 0.70625 0.0
C980 C 0.06556 0.97929 0.69717 0.0
C981 C 0.10394 0.96593 0.6866 0.0
C982 C 0.40186 0.91812 0.92285 0.0
C983 C 0.44197 0.8995 0.91619 0.0
C984 C 0.37025 0.8858 0.92842 0.0
C985 C 0.37925 0.83509 0.92826 0.0
H986 H 0.39287 0.95576 0.92062 0.0
H987 H 0.33826 0.89953 0.93126 0.0
S988 S 0.48307 0.77296 0.91808 0.0
N989 N 0.49183 0.83159 0.91482 0.0
N990 N 0.43283 0.77001 0.92453 0.0
C991 C 0.42121 0.81842 0.92482 0.0
C992 C 0.453 0.85143 0.91961 0.0
C993 C 0.47041 0.99533 0.19211 0.0
C994 C 0.51349 1.0032 0.1849 0.0
C995 C 0.4304 0.98318 0.18134 0.0
C996 C 0.4218 0.97835 0.15991 0.0
H997 H 0.46732 0.99791 0.20849 0.0
H998 H 0.40344 0.97685 0.19087 0.0
S999 S 0.53451 0.93339 0.1214 0.0
N1000 N 0.55751 0.97334 0.14882 0.0
N1001 N 0.4681 0.94873 0.12175 0.0
C1002 C 0.44974 0.9863 0.14334 0.0
C1003 C 0.52278 1.0058 0.16411 0.0
C1004 C 0.22309 0.80399 0.1603 0.0
C1005 C 0.19199 0.83545 0.17 0.0
C1006 C 0.21304 0.75603 0.1519 0.0
C1007 C 0.17155 0.73765 0.15296 0.0
H1008 H 0.25565 0.81629 0.15952 0.0
H1009 H 0.23781 0.73351 0.14399 0.0
S1010 S 0.07954 0.80399 0.17816 0.0
N1011 N 0.1186 0.84437 0.18122 0.0
N1012 N 0.09959 0.75348 0.16519 0.0
C1013 C 0.14032 0.76811 0.16306 0.0
C1014 C 0.1505 0.8174 0.17147 0.0
C1015 C 0.47719 0.09676 0.37479 0.0
C1016 C 0.51068 0.13072 0.37403 0.0
C1017 C 0.47156 0.07826 0.39367 0.0
C1018 C 0.49105 0.10397 0.41106 0.0
H1019 H 0.46805 0.07343 0.36116 0.0
H1020 H 0.45777 1.04181 0.39384 0.0
S1021 S 0.52226 0.23651 0.41342 0.0
N1022 N 0.52026 0.21653 0.38886 0.0
N1023 N 0.50901 0.18875 0.4257 0.0
C1024 C 0.50118 0.15429 0.40967 0.0
C1025 C 0.50638 0.1695 0.38992 0.0
C1026 C 0.32413 0.25257 0.67479 0.0
C1027 C 0.33329 0.24128 0.65414 0.0
C1028 C 0.3539 0.24287 0.68916 0.0
C1029 C 0.39244 0.21836 0.68338 0.0
H1030 H 0.29765 0.27671 0.67966 0.0
H1031 H 0.34698 0.25655 0.70484 0.0
S1032 S 0.41909 0.15878 0.63177 0.0
N1033 N 0.375 0.19029 0.62888 0.0
N1034 N 0.43042 0.16807 0.65622 0.0
C1035 C 0.39721 0.1974 0.66314 0.0
C1036 C 0.36705 0.20865 0.64846 0.0
C1037 C 0.11717 0.05817 0.90611 0.0
C1038 C 0.12915 0.10858 0.90833 0.0
C1039 C 0.07924 1.04315 0.89668 0.0
C1040 C 0.05262 0.07798 0.88903 0.0
H1041 H 0.13458 1.03131 0.91383 0.0
H1042 H 0.06833 1.00548 0.89746 0.0
S1043 S 0.07676 0.21104 0.88552 0.0
N1044 N 0.11716 0.19064 0.89802 0.0
N1045 N 1.0455 0.16265 0.88009 0.0
C1046 C 0.06791 0.12666 0.88809 0.0
C1047 C 0.10659 0.14196 0.8978 0.0
C1048 C 0.93844 0.82039 0.67136 0.0
C1049 C 0.89436 0.82833 0.67291 0.0
C1050 C 0.9551 0.77287 0.66551 0.0
C1051 C 0.92835 0.7321 0.66078 0.0
H1052 H 0.9603 0.85084 0.67498 0.0
H1053 H 0.98885 0.76866 0.66347 0.0
S1054 S 0.81134 0.73141 0.66459 0.0
N1055 N 0.82453 0.7901 0.67095 0.0
N1056 N 0.85638 0.70108 0.65972 0.0
C1057 C 0.88457 0.73886 0.66347 0.0
C1058 C 0.86745 0.78696 0.66935 0.0
C1059 C 0.99027 0.15057 0.40161 0.0
C1060 C 0.96649 0.11773 0.41191 0.0
C1061 C 1.02746 0.13397 0.39143 0.0
C1062 C 1.04117 0.08417 0.39127 0.0
H1063 H 0.98315 0.18999 0.40351 0.0
H1064 H 0.04808 0.16153 0.38599 0.0
S1065 S 0.9819 0.9815 0.41046 0.0
N1066 N 0.95279 1.03163 0.41715 0.0
N1067 N 1.0231 1.0006 0.39798 0.0
C1068 C 1.01378 0.04982 0.3986 0.0
C1069 C 0.97608 0.06663 0.40894 0.0
C1070 C 0.72533 0.1972 0.15257 0.0
C1071 C 0.7181 0.24773 0.15128 0.0
C1072 C 0.69441 0.16915 0.16129 0.0
C1073 C 0.657 0.19203 0.16951 0.0
H1074 H 0.75585 0.18064 0.14835 0.0
H1075 H 0.7024 0.13177 0.1643 0.0
S1076 S 0.62006 0.31928 0.16606 0.0
N1077 N 0.66785 0.3168 0.1558 0.0
N1078 N 0.61044 0.26299 0.17203 0.0
C1079 C 0.64681 0.23952 0.16525 0.0
C1080 C 0.67783 0.26825 0.1566 0.0
C1081 C 0.61876 0.08938 0.87247 0.0
C1082 C 0.58479 0.12307 0.87186 0.0
C1083 C 0.62495 0.07161 0.89142 0.0
C1084 C 0.6052 0.09769 0.90884 0.0
H1085 H 0.62795 0.06566 0.85887 0.0
H1086 H 0.63904 1.03521 0.89168 0.0
S1087 S 0.57327 0.23015 0.91084 0.0
N1088 N 0.57439 0.20921 0.88635 0.0
N1089 N 0.58773 0.18304 0.92325 0.0
C1090 C 0.59527 0.14805 0.90729 0.0
C1091 C 0.58891 0.16237 0.8875 0.0
C1092 C 0.93576 0.2749 0.9153 0.0
C1093 C 0.89302 0.26033 0.91544 0.0
C1094 C 0.94785 0.32259 0.92356 0.0
C1095 C 0.91758 0.35663 0.93237 0.0
H1096 H 0.95979 0.25004 0.90807 0.0
H1097 H 0.98112 0.33225 0.92366 0.0
S1098 S 0.80194 0.33689 0.93634 0.0
N1099 N 0.8205 0.28393 0.92469 0.0
N1100 N 0.84351 0.37326 0.94078 0.0
C1101 C 0.8749 0.34257 0.9326 0.0
C1102 C 0.86254 0.29439 0.92404 0.0
C1103 C 0.60402 0.99757 0.68551 0.0
C1104 C 0.58275 0.97945 0.66738 0.0
C1105 C 0.5858 0.98899 0.70419 0.0
C1106 C 0.54384 0.9718 0.7033 0.0
H1107 H 0.62918 1.02458 0.68557 0.0
H1108 H 0.59723 1.01057 0.71781 0.0
S1109 S 0.50851 0.87347 0.66434 0.0
N1110 N 0.54326 0.90641 0.65272 0.0
N1111 N 0.50808 0.89692 0.68854 0.0
C1112 C 0.53866 0.93185 0.68808 0.0
C1113 C 0.55693 0.93758 0.66881 0.0
C1114 C 0.64127 0.85206 0.41852 0.0
C1115 C 0.64684 0.90302 0.41766 0.0
C1116 C 0.67357 0.82419 0.42592 0.0
C1117 C 0.7115 0.84705 0.43304 0.0
H1118 H 0.61561 0.83261 0.4103 0.0
H1119 H 0.67081 0.78406 0.42429 0.0
S1120 S 0.72936 0.98185 0.44425 0.0
N1121 N 0.6841 0.97744 0.43174 0.0
N1122 N 0.74567 0.92423 0.44578 0.0
C1123 C 0.71313 0.89878 0.43631 0.0
C1124 C 0.67982 0.92723 0.42892 0.0
C1125 C 1.04019 0.95445 0.17189 0.0
C1126 C 1.03963 0.99759 0.18589 0.0
C1127 C 1.00367 0.93704 0.16231 0.0
C1128 C 0.96546 0.96235 0.16627 0.0
H1129 H 0.06955 0.93498 0.16771 0.0
H1130 H 1.00621 0.90644 0.1503 0.0
S1131 S 0.94686 0.07712 0.20121 0.0
N1132 N 0.99786 0.06485 0.20356 0.0
N1133 N 0.92816 1.03263 0.1845 0.0
C1134 C 0.96388 1.00512 0.18033 0.0
C1135 C 1.00139 1.02283 0.19036 0.0
C1136 C 0.71556 0.85055 0.9274 0.0
C1137 C 0.67215 0.86238 0.92715 0.0
C1138 C 0.73017 0.80291 0.92038 0.0
C1139 C 0.70172 0.76531 0.91329 0.0
H1140 H 0.73816 0.87781 0.93393 0.0
H1141 H 0.7639 0.7954 0.92053 0.0
S1142 S 0.58584 0.77919 0.9075 0.0
N1143 N 0.60143 0.8345 0.91775 0.0
N1144 N 0.62867 0.74409 0.90485 0.0
C1145 C 0.6584 0.7772 0.91238 0.0
C1146 C 0.6437 0.82611 0.91908 0.0
C1147 C 0.55004 0.44963 0.16906 0.0
C1148 C 0.54797 0.49239 0.18317 0.0
C1149 C 0.58815 0.43257 0.16072 0.0
C1150 C 0.62567 0.45774 0.16601 0.0
H1151 H 0.5216 0.43044 0.16358 0.0
H1152 H 0.58753 0.40264 0.14835 0.0
S1153 S 0.63806 0.57094 0.20233 0.0
N1154 N 0.58681 0.55863 0.20284 0.0
N1155 N 0.65961 0.52718 0.18596 0.0
C1156 C 0.62473 0.49984 0.18041 0.0
C1157 C 0.58548 0.5172 0.18924 0.0
C1158 C 0.88348 0.40372 0.43141 0.0
C1159 C 0.89287 0.35308 0.43116 0.0
C1160 C 0.91478 0.43652 0.426 0.0
C1161 C 0.9544 0.41808 0.41857 0.0
H1162 H 0.8513 0.41699 0.43405 0.0
H1163 H 0.90527 0.47402 0.42381 0.0
S1164 S 0.99831 0.29318 0.42237 0.0
N1165 N 0.94799 0.28941 0.42901 0.0
N1166 N 1.00566 0.35142 0.41798 0.0
C1167 C 0.96644 0.37055 0.42253 0.0
C1168 C 0.93527 0.33722 0.42834 0.0
C1169 C 0.10622 0.45013 0.64783 0.0
C1170 C 0.06659 0.46301 0.64015 0.0
C1171 C 0.1076 0.43508 0.66747 0.0
C1172 C 0.07029 0.44213 0.67934 0.0
H1173 H 0.13541 0.46163 0.64113 0.0
H1174 H 0.13806 0.43581 0.67493 0.0
S1175 S 0.9645 0.41624 0.65765 0.0
N1176 N 0.99304 0.43519 0.63896 0.0
N1177 N 0.99686 0.41516 0.67716 0.0
C1178 C 1.03344 0.42866 0.6685 0.0
C1179 C 1.03139 0.43975 0.64811 0.0
C1180 C 0.71099 0.25142 0.65462 0.0
C1181 C 0.66913 0.23422 0.65593 0.0
C1182 C 0.72225 0.29922 0.66288 0.0
C1183 C 0.692 0.33191 0.67256 0.0
H1184 H 0.73501 0.22824 0.64645 0.0
H1185 H 0.75495 0.3107 0.66172 0.0
S1186 S 0.57931 0.30259 0.68233 0.0
N1187 N 0.5981 0.25177 0.66906 0.0
N1188 N 0.61923 0.34214 0.68489 0.0
C1189 C 0.65031 0.31459 0.67471 0.0
C1190 C 0.63895 0.26545 0.66644 0.0
C1191 C 1.01803 0.6269 0.87893 0.0
C1192 C 0.05836 0.63863 0.8871 0.0
C1193 C 0.98882 0.60771 0.89215 0.0
C1194 C 1.00016 0.60852 0.91283 0.0
H1195 H 1.01449 0.61676 0.86275 0.0
H1196 H 0.96429 0.58294 0.88574 0.0
S1197 S 0.07169 0.70341 0.93839 0.0
N1198 N 0.08515 0.69893 0.91404 0.0
N1199 N 1.03136 0.66512 0.94012 0.0
C1200 C 1.02638 0.64844 0.9202 0.0
C1201 C 0.05503 0.6668 0.9062 0.0
C1202 C 0.86798 0.69589 0.15025 0.0
C1203 C 0.87676 0.74593 0.14869 0.0
C1204 C 0.89886 0.6656 0.15781 0.0
C1205 C 0.93781 0.68579 0.16491 0.0
H1206 H 0.83641 0.6815 0.14725 0.0
H1207 H 0.88988 0.62873 0.16098 0.0
S1208 S 0.97869 0.81058 0.1595 0.0
N1209 N 0.92979 0.81121 0.15103 0.0
N1210 N 0.98685 0.75392 0.16561 0.0
C1211 C 0.94902 0.7328 0.16029 0.0
C1212 C 0.91821 0.7635 0.1525 0.0
C1213 C 0.6176 0.57531 0.41189 0.0
C1214 C 0.62884 0.62581 0.41572 0.0
C1215 C 0.5793 0.56127 0.40257 0.0
C1216 C 0.55153 0.59723 0.39658 0.0
H1217 H 0.63647 0.54699 0.41801 0.0
H1218 H 0.56958 0.52272 0.40164 0.0
S1219 S 0.56946 0.73349 0.40043 0.0
N1220 N 0.61203 0.71109 0.41063 0.0
N1221 N 0.5399 0.68477 0.39282 0.0
C1222 C 0.5647 0.64725 0.39817 0.0
C1223 C 0.60368 0.66156 0.40778 0.0
C1224 C 0.41684 0.32607 0.15609 0.0
C1225 C 0.39337 0.32669 0.17408 0.0
C1226 C 0.43003 0.28086 0.14562 0.0
C1227 C 0.42113 0.23527 0.15315 0.0
H1228 H 0.42386 0.3604 0.14978 0.0
H1229 H 0.44614 0.28137 0.13115 0.0
S1230 S 0.36579 0.21715 0.20095 0.0
N1231 N 0.36513 0.27793 0.20005 0.0
N1232 N 0.39088 0.19323 0.18014 0.0
C1233 C 0.40011 0.2354 0.17166 0.0
C1234 C 0.38589 0.2812 0.18219 0.0
C1235 C 0.48902 0.63848 0.89593 0.0
C1236 C 0.46595 0.6045 0.90597 0.0
C1237 C 0.52835 0.62464 0.88714 0.0
C1238 C 0.54477 0.57636 0.88812 0.0
H1239 H 0.47944 0.67704 0.89709 0.0
H1240 H 0.54806 0.65343 0.88196 0.0
S1241 S 0.48843 0.46994 0.90597 0.0
N1242 N 0.4559 0.51772 0.9112 0.0
N1243 N 0.53019 0.49189 0.89481 0.0
C1244 C 0.51822 0.54015 0.89467 0.0
C1245 C 0.47833 0.55416 0.90348 0.0
C1246 C 0.16226 0.70937 0.65281 0.0
C1247 C 0.17925 0.68954 0.66961 0.0
C1248 C 0.18705 0.74129 0.64225 0.0
C1249 C 0.22961 0.75139 0.64791 0.0
H1250 H 0.12885 0.70556 0.64961 0.0
H1251 H 0.17129 0.76307 0.63177 0.0
S1252 S 0.29278 0.69332 0.68489 0.0
N1253 N 0.24395 0.67399 0.68791 0.0
N1254 N 0.29078 0.72562 0.66533 0.0
C1255 C 0.24907 0.72084 0.66049 0.0
C1256 C 0.22365 0.69238 0.67242 0.0
C1257 C 0.09031 0.64986 0.40576 0.0
C1258 C 0.10474 0.60264 0.41007 0.0
C1259 C 0.09458 0.66224 0.38582 0.0
C1260 C 0.10084 0.62172 0.37073 0.0
H1261 H 0.07204 0.67412 0.41665 0.0
H1262 H 0.07872 0.69556 0.38208 0.0
S1263 S 0.18101 0.52578 0.3768 0.0
N1264 N 0.16038 0.54054 0.39972 0.0
N1265 N 0.15824 0.56303 0.36186 0.0
C1266 C 0.13382 0.59087 0.37576 0.0
C1267 C 0.13396 0.57806 0.39596 0.0
C1268 C 0.44939 0.82543 0.42816 0.0
C1269 C 0.42372 0.86811 0.42961 0.0
C1270 C 0.43334 0.77921 0.42028 0.0
C1271 C 0.39104 0.77442 0.41373 0.0
H1272 H 0.48131 0.82737 0.43413 0.0
H1273 H 0.4544 0.74727 0.4191 0.0
S1274 S 0.31179 0.87678 0.4144 0.0
N1275 N 0.3551 0.90396 0.42393 0.0
N1276 N 0.32415 0.81734 0.4091 0.0
C1277 C 0.36533 0.81747 0.41502 0.0
C1278 C 0.38195 0.86431 0.42288 0.0
C1279 C 0.12019 0.50994 0.20961 0.0
C1280 C 0.08898 0.47298 0.20998 0.0
C1281 C 0.12479 0.52933 0.19086 0.0
C1282 C 0.10773 0.50192 0.17322 0.0
H1283 H 0.12743 0.53387 0.22337 0.0
H1284 H 0.13584 0.5671 0.19091 0.0
S1285 S 0.08601 0.36673 0.17028 0.0
N1286 N 0.08542 0.38667 0.19487 0.0
N1287 N 0.09667 0.41572 0.15824 0.0
C1288 C 0.10127 0.45073 0.17441 0.0
C1289 C 0.09609 0.43491 0.19405 0.0
C1290 C 0.23878 0.3666 0.89625 0.0
C1291 C 0.19775 0.3833 0.90226 0.0
C1292 C 0.26736 0.35194 0.91025 0.0
C1293 C 0.25416 0.34982 0.93025 0.0
H1294 H 0.24827 0.36205 0.88045 0.0
H1295 H 0.29608 0.333 0.90461 0.0
S1296 S 0.15945 0.41111 0.95517 0.0
N1297 N 0.15255 0.41527 0.93068 0.0
N1298 N 0.2055 0.38269 0.95702 0.0
C1299 C 0.21781 0.37692 0.93722 0.0
C1300 C 0.18896 0.39355 0.92303 0.0
C1301 C 0.46636 0.49104 0.68414 0.0
C1302 C 0.4678 0.44969 0.66921 0.0
C1303 C 0.50384 0.513 0.69203 0.0
C1304 C 0.54323 0.49453 0.68475 0.0
H1305 H 0.43644 0.50937 0.6882 0.0
H1306 H 0.50216 0.54619 0.7028 0.0
S1307 S 0.56354 0.38588 0.64668 0.0
N1308 N 0.51146 0.38913 0.64877 0.0
N1309 N 0.5818 0.43112 0.6631 0.0
C1310 C 0.54492 0.45107 0.67104 0.0
C1311 C 0.50707 0.42817 0.66349 0.0
C1312 C 0.13448 0.31894 0.35669 0.0
C1313 C 0.12448 0.26699 0.35541 0.0
C1314 C 0.10318 0.35833 0.35565 0.0
C1315 C 0.05882 0.3496 0.3528 0.0
H1316 H 0.16718 0.32983 0.35908 0.0
H1317 H 0.11418 0.39643 0.35728 0.0
S1318 S 1.01361 0.22118 0.34865 0.0
N1319 N 0.06474 0.21094 0.35137 0.0
N1320 N 1.00802 0.28198 0.34895 0.0
C1321 C 0.04864 0.29773 0.35133 0.0
C1322 C 0.08033 0.25789 0.35274 0.0
C1323 C 0.05198 0.78665 0.59057 0.0
C1324 C 1.0443 0.75871 0.60725 0.0
C1325 C 0.07922 0.82987 0.59204 0.0
C1326 C 0.09976 0.8485 0.61041 0.0
H1327 H 1.03781 0.77427 0.57605 0.0
H1328 H 0.08503 0.8479 0.57851 0.0
S1329 S 0.08363 0.79638 0.65957 0.0
N1330 N 0.05699 0.75799 0.64323 0.0
N1331 N 0.10463 0.83801 0.64618 0.0
C1332 C 0.0901 0.8224 0.62726 0.0
C1333 C 0.06359 0.77835 0.62566 0.0
C1334 C 0.55487 0.79237 0.8495 0.0
C1335 C 0.56296 0.84456 0.85375 0.0
C1336 C 0.58657 0.7538 0.85059 0.0
C1337 C 0.62996 0.76349 0.85547 0.0
H1338 H 0.52286 0.78062 0.84573 0.0
H1339 H 0.5766 0.71543 0.8476 0.0
S1340 S 0.66995 0.89258 0.86935 0.0
N1341 N 0.61954 0.90204 0.86432 0.0
N1342 N 0.67779 0.83178 0.86551 0.0
C1343 C 0.63864 0.81548 0.85971 0.0
C1344 C 0.60606 0.85477 0.8591 0.0
C1345 C 0.534 0.28055 0.10249 0.0
C1346 C 0.54589 0.23057 0.10496 0.0
C1347 C 0.56398 0.32087 0.10269 0.0
C1348 C 0.60835 0.31417 0.10502 0.0
H1349 H 0.50074 0.28914 0.10094 0.0
H1350 H 0.55196 0.35795 0.10149 0.0
S1351 S 0.65766 0.18978 0.10906 0.0
N1352 N 0.60654 0.17745 0.10835 0.0
N1353 N 0.66169 0.25015 0.10771 0.0
C1354 C 0.62047 0.26381 0.1066 0.0
C1355 C 0.58997 0.22329 0.10684 0.0
C1356 C 1.04598 0.79759 0.23517 0.0
C1357 C 0.05445 0.74552 0.22978 0.0
C1358 C 0.0775 0.83691 0.23509 0.0
C1359 C 0.12131 0.82851 0.23001 0.0
H1360 H 1.01378 0.80875 0.23918 0.0
H1361 H 0.06694 0.87493 0.23899 0.0
S1362 S 0.16265 0.70045 0.2133 0.0
N1363 N 0.11224 0.68998 0.21807 0.0
N1364 N 0.16974 0.76105 0.2185 0.0
C1365 C 0.13031 0.77661 0.22461 0.0
C1366 C 0.09799 0.73663 0.22433 0.0
C1367 C 0.53666 0.80868 0.48216 0.0
C1368 C 0.54913 0.85918 0.4819 0.0
C1369 C 0.56668 0.76821 0.48149 0.0
C1370 C 0.61121 0.7756 0.48073 0.0
H1371 H 0.50322 0.79995 0.48206 0.0
H1372 H 0.5547 0.7306 0.48079 0.0
S1373 S 0.66114 0.90088 0.48288 0.0
N1374 N 0.61 0.91339 0.48257 0.0
N1375 N 0.66501 0.83982 0.48209 0.0
C1376 C 0.62367 0.82626 0.48151 0.0
C1377 C 0.59334 0.86699 0.48188 0.0
C1378 C 0.57383 0.35553 0.73872 0.0
C1379 C 0.61707 0.34274 0.73377 0.0
C1380 C 0.5404 0.31933 0.74077 0.0
C1381 C 0.5464 0.26648 0.73745 0.0
H1382 H 0.56529 0.39458 0.74094 0.0
H1383 H 0.50878 0.33339 0.74438 0.0
S1384 S 0.65218 0.21038 0.72283 0.0
N1385 N 0.66225 0.27063 0.72527 0.0
N1386 N 0.60131 0.2049 0.7281 0.0
C1387 C 0.5894 0.25327 0.73226 0.0
C1388 C 0.62362 0.29009 0.73074 0.0
C1389 C 0.08343 0.2762 0.99056 0.0
C1390 C 0.10547 0.2586 0.97238 0.0
C1391 C 0.05609 0.31929 0.99195 0.0
C1392 C 0.0497 0.34752 0.97533 0.0
H1393 H 0.08818 0.25751 1.00399 0.0
H1394 H 1.04066 0.3312 1.00633 0.0
S1395 S 0.09387 0.31286 0.92344 0.0
N1396 N 0.11391 0.27065 0.93683 0.0
N1397 N 0.06466 0.34972 0.9395 0.0
C1398 C 0.07013 0.32867 0.957 0.0
C1399 C 0.09726 0.28514 0.95554 0.0
C1400 C 1.04233 0.80574 0.73446 0.0
C1401 C 1.03442 0.75375 0.7294 0.0
C1402 C 1.01029 0.84436 0.73407 0.0
C1403 C 0.96691 0.83489 0.72901 0.0
H1404 H 0.07432 0.81727 0.73836 0.0
H1405 H 1.01996 0.88263 0.73781 0.0
S1406 S 0.9268 0.70618 0.71451 0.0
N1407 N 0.97748 0.69664 0.7189 0.0
N1408 N 0.91898 0.76691 0.7188 0.0
C1409 C 0.95835 0.78307 0.72429 0.0
C1410 C 0.99111 0.74379 0.72428 0.0
C1411 C 1.02842 0.26944 0.47879 0.0
C1412 C 0.98377 0.27584 0.47846 0.0
C1413 C 0.05718 0.31074 0.47975 0.0
C1414 C 1.04308 0.36091 0.48022 0.0
H1415 H 1.04143 0.2321 0.4774 0.0
H1416 H 0.09087 0.30302 0.47918 0.0
S1417 S 0.92999 0.39959 0.48246 0.0
N1418 N 0.92797 0.33835 0.48115 0.0
N1419 N 0.98075 0.41363 0.48193 0.0
C1420 C 0.99873 0.36764 0.48069 0.0
C1421 C 0.9697 0.32609 0.48011 0.0
C1422 C 0.49682 0.24581 0.23343 0.0
C1423 C 0.54142 0.25582 0.23355 0.0
C1424 C 0.4639 0.28379 0.23277 0.0
C1425 C 0.47201 0.33566 0.23172 0.0
H1426 H 0.48683 0.20769 0.23384 0.0
H1427 H 0.43127 0.27174 0.23268 0.0
S1428 S 0.58256 0.38395 0.22965 0.0
N1429 N 0.59023 0.32423 0.23157 0.0
N1430 N 0.53074 0.39253 0.22979 0.0
C1431 C 0.51645 0.34586 0.23143 0.0
C1432 C 0.54985 0.30749 0.23246 0.0
C1433 C 0.49678 0.85076 0.97178 0.0
C1434 C 0.54055 0.84719 0.97601 0.0
C1435 C 0.46889 0.80908 0.97075 0.0
C1436 C 0.48246 0.7599 0.97324 0.0
H1437 H 0.48366 0.88642 0.96903 0.0
H1438 H 0.43596 0.81562 0.96745 0.0
S1439 S 0.59403 0.72812 0.98441 0.0
N1440 N 0.59574 0.78874 0.98304 0.0
N1441 N 0.54423 0.71132 0.9804 0.0
C1442 C 0.52609 0.75569 0.97778 0.0
C1443 C 0.55458 0.7986 0.97923 0.0
C1444 C 1.04524 0.28424 0.84384 0.0
C1445 C 1.04046 0.33616 0.85069 0.0
C1446 C 1.01248 0.24715 0.84562 0.0
C1447 C 0.9711 0.2583 0.85391 0.0
H1448 H 0.07546 0.2714 0.83741 0.0
H1449 H 1.02001 0.20874 0.84039 0.0
S1450 S 0.94005 0.38723 0.87517 0.0
N1451 N 0.98905 0.39467 0.86718 0.0
N1452 N 0.92903 0.32759 0.8696 0.0
C1453 C 0.96574 0.31005 0.86065 0.0
C1454 C 0.99941 0.34761 0.85932 0.0
C1455 C 0.47044 0.27702 0.60871 0.0
C1456 C 0.48103 0.32523 0.60369 0.0
C1457 C 0.50041 0.23747 0.60853 0.0
C1458 C 0.54343 0.24237 0.60313 0.0
H1459 H 0.4384 0.2696 0.61338 0.0
H1460 H 0.48968 0.20234 0.61294 0.0
S1461 S 0.58947 0.35959 0.58807 0.0
N1462 N 0.53921 0.37443 0.59269 0.0
N1463 N 0.59478 0.30067 0.59212 0.0
C1464 C 0.55461 0.28987 0.5975 0.0
C1465 C 0.52391 0.3307 0.59783 0.0
C1466 C 0.54548 0.79977 0.35111 0.0
C1467 C 0.53646 0.85208 0.3543 0.0
C1468 C 0.51402 0.76106 0.35215 0.0
C1469 C 0.47001 0.77058 0.35602 0.0
H1470 H 0.578 0.7881 0.3482 0.0
H1471 H 0.5247 0.72273 0.34993 0.0
S1472 S 0.42712 0.90001 0.36652 0.0
N1473 N 0.478 0.90952 0.36249 0.0
N1474 N 0.42042 0.83906 0.36372 0.0
C1475 C 0.46041 0.82268 0.35917 0.0
C1476 C 0.49265 0.86215 0.35853 0.0
C1477 C 1.02631 0.83143 0.10064 0.0
C1478 C 0.9819 0.82319 0.10198 0.0
C1479 C 0.05718 0.7917 0.09995 0.0
C1480 C 1.04587 0.74099 0.10079 0.0
H1481 H 1.03759 0.86924 0.10086 0.0
H1482 H 0.09043 0.80125 0.0996 0.0
S1483 S 0.93449 0.697 0.10204 0.0
N1484 N 0.92945 0.75777 0.10209 0.0
N1485 N 0.98589 0.68575 0.10167 0.0
C1486 C 1.00172 0.73235 0.1015 0.0
C1487 C 0.97053 0.7723 0.10185 0.0
C1488 C 0.26756 0.3089 0.30853 0.0
C1489 C 0.30576 0.28637 0.3137 0.0
C1490 C 0.26072 0.32145 0.28891 0.0
C1491 C 0.29192 0.31183 0.27391 0.0
H1492 H 0.24259 0.31616 0.31978 0.0
H1493 H 0.23162 0.34018 0.28559 0.0
S1494 S 0.39626 0.25143 0.27932 0.0
N1495 N 0.37422 0.2533 0.3021 0.0
N1496 N 0.36176 0.27752 0.26509 0.0
C1497 C 0.33007 0.289 0.27881 0.0
C1498 C 0.33701 0.27631 0.29878 0.0
C1499 C 1.02392 1.02125 0.53563 0.0
C1500 C 1.01568 0.06519 0.52641 0.0
C1501 C 0.05161 1.02031 0.55253 0.0
C1502 C 0.07292 0.0633 0.56137 0.0
H1503 H 1.0084 0.98696 0.52989 0.0
H1504 H 0.05576 0.98553 0.55892 0.0
S1505 S 0.06675 0.18723 0.54201 0.0
N1506 N 1.03445 0.15236 0.52701 0.0
N1507 N 0.08558 0.15074 0.55824 0.0
C1508 C 0.06564 0.10731 0.55207 0.0
C1509 C 1.03745 0.10824 0.53486 0.0
C1510 C 0.302 0.76148 0.80936 0.0
C1511 C 0.33283 0.79833 0.80806 0.0
C1512 C 0.27372 0.7489 0.79337 0.0
C1513 C 0.2755 0.7727 0.77555 0.0
H1514 H 0.29905 0.74331 0.82305 0.0
H1515 H 0.2495 0.7215 0.79519 0.0
S1516 S 0.35454 0.86621 0.76348 0.0
N1517 N 0.36636 0.85463 0.78674 0.0
N1518 N 0.31324 0.83102 0.75674 0.0
C1519 C 0.30734 0.80805 0.77375 0.0
C1520 C 0.33602 0.82086 0.78999 0.0
C1521 C 0.5474 1.031 0.05945 0.0
C1522 C 0.50677 0.05378 0.05851 0.0
C1523 C 0.57494 1.0202 0.04203 0.0
C1524 C 0.56447 1.03163 1.02216 0.0
H1525 H 0.55851 1.02163 0.07398 0.0
H1526 H 0.60497 1.00219 0.04425 0.0
S1527 S 0.46229 0.09186 1.01053 0.0
N1528 N 0.45842 0.08746 1.03513 0.0
N1529 N 0.50878 0.06765 1.00326 0.0
C1530 C 0.52394 0.05445 1.02103 0.0
C1531 C 0.49588 0.06532 1.03874 0.0
C1532 C 0.26184 0.77653 0.29505 0.0
C1533 C 0.29462 0.7848 0.30911 0.0
C1534 C 0.26726 0.78784 0.27511 0.0
C1535 C 0.30551 0.80799 0.26864 0.0
H1536 H 0.23228 0.76044 0.29942 0.0
H1537 H 0.24091 0.78211 0.26472 0.0
S1538 S 0.40061 0.83729 0.29991 0.0
N1539 N 0.36657 0.81443 0.31543 0.0
N1540 N 0.37632 0.83595 0.27783 0.0
C1541 C 0.33868 0.81573 0.28247 0.0
C1542 C 0.33323 0.80433 0.30278 0.0
C1543 C 0.58474 0.07554 0.54056 0.0
C1544 C 0.57553 0.06133 0.56014 0.0
C1545 C 0.55702 0.06513 0.5235 0.0
C1546 C 0.51757 1.0403 0.52471 0.0
H1547 H 0.61371 0.09558 0.53834 0.0
H1548 H 0.56693 0.07665 0.50907 0.0
S1549 S 0.47749 0.99335 0.57201 0.0
N1550 N 0.5231 1.01931 0.57901 0.0
N1551 N 0.47197 1.0009 0.54778 0.0
C1552 C 0.50804 1.02577 0.54417 0.0
C1553 C 0.53641 1.03593 0.56147 0.0
C1554 C 0.32534 0.19862 0.81851 0.0
C1555 C 0.36437 0.19492 0.80721 0.0
C1556 C 0.29258 0.23732 0.82034 0.0
C1557 C 0.29017 0.28329 0.81141 0.0
H1558 H 0.31923 0.16742 0.82698 0.0
H1559 H 0.26585 0.22994 0.82987 0.0
S1560 S 0.41296 0.32937 0.7728 0.0
N1561 N 0.42951 0.25274 0.78285 0.0
N1562 N 0.34545 0.34055 0.78666 0.0
C1563 C 0.3239 0.29225 0.79925 0.0
C1564 C 0.37688 0.22829 0.79894 0.0
C1565 C 0.06256 1.00112 1.02989 0.0
C1566 C 0.07112 1.04585 1.0213 0.0
C1567 C 1.03459 0.99924 0.0468 0.0
C1568 C 1.01326 1.04199 0.05623 0.0
H1569 H 0.0781 0.96699 1.02366 0.0
H1570 H 1.03024 0.96392 0.05273 0.0
S1571 S 1.01997 0.16767 1.03843 0.0
N1572 N 0.05254 0.13342 1.02301 0.0
N1573 N 1.00074 0.13008 0.05418 0.0
C1574 C 1.02075 0.08674 0.04747 0.0
C1575 C 0.04928 0.08863 1.0303 0.0
C1576 C 0.76676 0.79624 0.80548 0.0
C1577 C 0.80698 0.78032 0.81143 0.0
C1578 C 0.76006 0.81042 0.78609 0.0
C1579 C 0.79342 0.80929 0.77207 0.0
H1580 H 0.74021 0.79747 0.81597 0.0
H1581 H 0.72912 0.8238 0.78221 0.0
S1582 S 0.90398 0.76851 0.77965 0.0
N1583 N 0.88 0.76268 0.80151 0.0
N1584 N 0.86768 0.78988 0.76496 0.0
C1585 C 0.83368 0.79316 0.77773 0.0
C1586 C 0.84047 0.77876 0.79748 0.0
C1587 C 0.79798 0.27707 0.31186 0.0
C1588 C 0.82827 0.31497 0.31203 0.0
C1589 C 0.77239 0.26463 0.29481 0.0
C1590 C 0.77637 0.28953 0.27731 0.0
H1591 H 0.7936 0.2576 0.32513 0.0
H1592 H 0.74875 0.23596 0.29548 0.0
S1593 S 0.8544 0.38739 0.2692 0.0
N1594 N 0.86331 0.37436 0.29256 0.0
N1595 N 0.81495 0.35112 0.26069 0.0
C1596 C 0.80726 0.32658 0.27712 0.0
C1597 C 0.83333 0.33922 0.29443 0.0
C1598 C 0.83144 0.31246 0.78569 0.0
C1599 C 0.79674 0.31056 0.77262 0.0
C1600 C 0.8271 0.29835 0.80527 0.0
C1601 C 0.788 0.28166 0.81235 0.0
H1602 H 0.8616 0.32634 0.78094 0.0
H1603 H 0.85461 0.30034 0.81501 0.0
S1604 S 0.68835 0.26717 0.78324 0.0
N1605 N 0.7225 0.28926 0.76756 0.0
N1606 N 0.71462 0.2622 0.80443 0.0
C1607 C 0.7532 0.27923 0.79932 0.0
C1608 C 0.75759 0.29359 0.77939 0.0
C1609 C 0.76592 0.83254 0.29177 0.0
C1610 C 0.7691 0.80825 0.30943 0.0
C1611 C 0.79192 0.81898 0.27479 0.0
C1612 C 0.82198 0.78053 0.2748 0.0
H1613 H 0.74266 0.86175 0.29094 0.0
H1614 H 0.78817 0.83827 0.26145 0.0
S1615 S 0.84577 0.70872 0.31801 0.0
N1616 N 0.80643 0.74614 0.32635 0.0
N1617 N 0.85554 0.72076 0.29454 0.0
C1618 C 0.82602 0.75653 0.2925 0.0
C1619 C 0.7995 0.77034 0.30978 0.0
C1620 C 0.57991 0.50538 1.03725 0.0
C1621 C 0.57211 0.53444 0.05605 0.0
C1622 C 0.55398 0.50859 1.01984 0.0
C1623 C 0.5183 0.54093 1.02002 0.0
H1624 H 0.60689 0.48038 1.0358 0.0
H1625 H 0.56253 0.48568 1.00595 0.0
S1626 S 0.48039 0.6213 0.06593 0.0
N1627 N 0.52328 0.59436 0.07385 0.0
N1628 N 0.47545 0.60009 0.0417 0.0
C1629 C 0.50962 0.56941 1.03887 0.0
C1630 C 0.53606 0.56623 0.0566 0.0
C1631 C 0.05696 0.54829 0.56037 0.0
C1632 C 1.016 0.57024 0.55966 0.0
C1633 C 0.08332 0.53643 0.5427 0.0
C1634 C 0.07112 0.54601 0.52287 0.0
H1635 H 0.06923 0.54033 0.57489 0.0
H1636 H 0.11374 0.51908 0.54469 0.0
S1637 S 0.96721 0.60326 0.51187 0.0
N1638 N 0.96523 0.60098 0.53667 0.0
N1639 N 1.01357 0.57936 0.50422 0.0
C1640 C 1.03023 0.56805 0.52197 0.0
C1641 C 1.00332 0.57991 0.53995 0.0
C1642 C 1.04122 0.54123 0.05799 0.0
C1643 C 0.08319 0.55989 0.05748 0.0
C1644 C 1.01568 0.53077 1.04015 0.0
C1645 C 1.0297 0.53835 1.02024 0.0
H1646 H 1.02745 0.535 0.0725 0.0
H1647 H 0.98427 0.51603 0.0421 0.0
S1648 S 0.13703 0.58637 1.00955 0.0
N1649 N 0.13708 0.5854 1.03444 0.0
N1650 N 0.09011 0.56572 1.00165 0.0
C1651 C 0.07165 0.55688 1.01945 0.0
C1652 C 0.09775 0.56759 1.03765 0.0
C1653 C 0.51683 0.52109 0.5447 0.0
C1654 C 0.52273 0.54996 0.56368 0.0
C1655 C 0.54403 0.5249 0.52764 0.0
C1656 C 0.57912 0.55783 0.52831 0.0
H1657 H 0.49045 0.49559 0.54285 0.0
H1658 H 0.53699 0.50193 0.51363 0.0
S1659 S 0.61211 0.63856 0.5747 0.0
N1660 N 0.56925 0.61061 0.58211 0.0
N1661 N 0.61915 0.61774 0.55051 0.0
C1662 C 0.5858 0.58637 0.54727 0.0
C1663 C 0.55818 0.58244 0.56469 0.0
C1664 C 0.29882 1.04713 0.42058 0.0
C1665 C 0.30798 0.08971 0.41014 0.0
C1666 C 0.3255 1.02969 0.43638 0.0
C1667 C 0.36405 0.05322 0.44364 0.0
H1668 H 0.27042 1.02624 0.41641 0.0
H1669 H 0.31588 0.99628 0.44272 0.0
S1670 S 0.40047 0.17116 0.42473 0.0
N1671 N 0.35802 0.15741 0.41086 0.0
N1672 N 0.40632 0.12603 0.43937 0.0
C1673 C 0.37272 0.09663 0.43375 0.0
C1674 C 0.34566 0.11425 0.41769 0.0
C1675 C 0.30039 0.11696 0.69008 0.0
C1676 C 0.33821 0.0926 0.69584 0.0
C1677 C 0.27294 0.09699 0.67348 0.0
C1678 C 0.28134 0.05127 0.66096 0.0
H1679 H 0.2917 0.15223 0.6985 0.0
H1680 H 0.24425 0.11724 0.67082 0.0
S1681 S 0.37655 0.97257 0.66828 0.0
N1682 N 0.38132 1.0192 0.68641 0.0
N1683 N 0.33288 0.98398 0.65607 0.0
C1684 C 0.3195 1.02757 0.66643 0.0
C1685 C 0.34674 1.04733 0.6833 0.0
C1686 C 0.3253 0.07737 0.92058 0.0
C1687 C 0.28774 0.05242 0.92588 0.0
C1688 C 0.35471 0.05775 0.90517 0.0
C1689 C 0.34938 1.01127 0.8933 0.0
H1690 H 0.33215 0.11379 0.92838 0.0
H1691 H 0.38227 0.07989 0.90256 0.0
S1692 S 0.25774 0.92781 0.90038 0.0
N1693 N 0.24799 0.97644 0.91728 0.0
N1694 N 0.30267 0.93951 0.8889 0.0
C1695 C 0.31231 0.98503 0.89848 0.0
C1696 C 0.28207 1.00527 0.91441 0.0
C1697 C 0.30311 0.06483 0.17227 0.0
C1698 C 0.29606 1.01312 0.17417 0.0
C1699 C 0.32737 0.08336 0.15576 0.0
C1700 C 0.34593 0.05243 0.13889 0.0
H1701 H 0.29054 0.09195 0.18408 0.0
H1702 H 0.33245 0.12309 0.15658 0.0
S1703 S 0.33409 0.91417 0.1341 0.0
N1704 N 0.30918 0.93182 0.15575 0.0
N1705 N 0.35154 0.96548 0.12552 0.0
C1706 C 0.33753 1.00089 0.14021 0.0
C1707 C 0.31381 0.98196 0.15725 0.0
C1708 C 0.79301 0.05169 0.6643 0.0
C1709 C 0.78228 1.0103 0.67517 0.0
C1710 C 0.76701 0.06966 0.64838 0.0
C1711 C 0.72768 1.04774 0.64139 0.0
H1712 H 0.82217 0.07126 0.66824 0.0
H1713 H 0.77775 0.10226 0.64177 0.0
S1714 S 0.68606 0.93391 0.66187 0.0
N1715 N 0.72932 0.9458 0.67539 0.0
N1716 N 0.68227 0.97812 0.64666 0.0
C1717 C 0.71727 1.00557 0.65177 0.0
C1718 C 0.74362 0.98745 0.66796 0.0
C1719 C 0.76928 0.09139 0.42165 0.0
C1720 C 0.80707 0.06759 0.42738 0.0
C1721 C 0.74048 0.06985 0.40655 0.0
C1722 C 0.74682 1.02251 0.39534 0.0
H1723 H 0.76158 0.12821 0.42896 0.0
H1724 H 0.71251 0.09116 0.40366 0.0
S1725 S 0.84011 0.94192 0.40353 0.0
N1726 N 0.84855 0.99197 0.41975 0.0
N1727 N 0.79523 0.95175 0.39183 0.0
C1728 C 0.78452 0.99775 0.40076 0.0
C1729 C 0.81403 1.01987 0.41643 0.0
C1730 C 0.7685 1.00867 0.16292 0.0
C1731 C 0.80508 1.03236 0.15568 0.0
C1732 C 0.74155 1.03027 0.17914 0.0
C1733 C 0.7487 0.07761 0.19017 0.0
H1734 H 0.76024 0.97185 0.15595 0.0
H1735 H 0.71432 1.00901 0.18307 0.0
S1736 S 0.83925 0.1583 0.17822 0.0
N1737 N 0.84608 0.10826 0.16169 0.0
N1738 N 0.79639 0.14839 0.19165 0.0
C1739 C 0.7851 0.10235 0.18318 0.0
C1740 C 0.81264 0.08023 0.16634 0.0
C1741 C 0.71245 0.08082 0.92784 0.0
C1742 C 0.72465 1.04653 0.94186 0.0
C1743 C 0.74008 0.09834 0.91236 0.0
C1744 C 0.78338 0.08329 0.90889 0.0
H1745 H 0.6804 0.09497 0.92887 0.0
H1746 H 0.72683 0.12459 0.90291 0.0
S1747 S 0.83426 0.99346 0.94053 0.0
N1748 N 0.7858 0.99839 0.95014 0.0
N1749 N 0.83614 1.03015 0.92221 0.0
C1750 C 0.79624 0.04907 0.92285 0.0
C1751 C 0.76795 1.03132 0.93869 0.0
C1752 C 0.8557 0.5959 0.91195 0.0
C1753 C 0.81194 0.58339 0.90922 0.0
C1754 C 0.88259 0.57838 0.92751 0.0
C1755 C 0.86882 0.54711 0.94242 0.0
H1756 H 0.86993 0.61986 0.90179 0.0
H1757 H 0.91539 0.58976 0.92772 0.0
S1758 S 0.75755 0.50093 0.94299 0.0
N1759 N 0.75709 0.53541 0.92391 0.0
N1760 N 0.8061 0.504 0.95222 0.0
C1761 C 0.8251 0.53431 0.93995 0.0
C1762 C 0.79764 0.55181 0.92394 0.0
C1763 C 0.82572 0.50378 0.15736 0.0
C1764 C 0.78752 0.5272 0.1517 0.0
C1765 C 0.8537 0.5242 0.17321 0.0
C1766 C 0.84631 0.57006 0.18549 0.0
H1767 H 0.83437 0.46792 0.14942 0.0
H1768 H 0.88192 0.50308 0.17586 0.0
S1769 S 0.75173 0.64953 0.17804 0.0
N1770 N 0.7448 0.6013 0.1607 0.0
N1771 N 0.79639 0.63928 0.18984 0.0
C1772 C 0.80838 0.59461 0.18005 0.0
C1773 C 0.77969 0.57367 0.16362 0.0
C1774 C 0.81453 0.50691 0.4007 0.0
C1775 C 0.8553 0.52822 0.39779 0.0
C1776 C 0.78484 0.5261 0.41659 0.0
C1777 C 0.79383 0.56767 0.43116 0.0
H1778 H 0.80502 0.475 0.39041 0.0
H1779 H 0.75393 0.50905 0.41694 0.0
S1780 S 0.89651 0.63601 0.43204 0.0
N1781 N 0.90235 0.59307 0.41244 0.0
N1782 N 0.84881 0.62762 0.44135 0.0
C1783 C 0.83487 0.58816 0.42863 0.0
C1784 C 0.86464 0.56908 0.41251 0.0
C1785 C 0.85356 0.50265 0.67523 0.0
C1786 C 0.80883 0.51285 0.67668 0.0
C1787 C 0.88243 0.52158 0.66047 0.0
C1788 C 0.8701 0.55193 0.64496 0.0
H1789 H 0.86707 0.47958 0.68589 0.0
H1790 H 0.91563 0.51224 0.66143 0.0
S1791 S 0.75736 0.59261 0.64101 0.0
N1792 N 0.75518 0.55842 0.66015 0.0
N1793 N 0.80725 0.59165 0.6333 0.0
C1794 C 0.8255 0.5625 0.64621 0.0
C1795 C 0.79613 0.54385 0.66145 0.0
C1796 C 0.24298 0.49856 0.17221 0.0
C1797 C 0.28645 0.51172 0.17596 0.0
C1798 C 0.21711 0.51629 0.15618 0.0
C1799 C 0.23131 0.54906 0.14187 0.0
H1800 H 0.22825 0.47363 0.18181 0.0
H1801 H 0.1848 0.5035 0.15496 0.0
S1802 S 0.34235 0.5967 0.14368 0.0
N1803 N 0.3417 0.56131 0.16246 0.0
N1804 N 0.2945 0.59349 0.13366 0.0
C1805 C 0.27477 0.56236 0.14534 0.0
C1806 C 0.30129 0.54434 0.16167 0.0
C1807 C 0.27078 0.56769 0.91636 0.0
C1808 C 0.31076 0.54675 0.92073 0.0
C1809 C 0.24348 0.54769 0.90026 0.0
C1810 C 0.25343 0.50491 0.88651 0.0
H1811 H 0.26023 0.60129 0.92548 0.0
H1812 H 0.21368 0.56673 0.89863 0.0
S1813 S 0.35437 0.43387 0.88992 0.0
N1814 N 0.35855 0.47896 0.90886 0.0
N1815 N 0.30824 0.44191 0.87902 0.0
C1816 C 0.29334 0.48294 0.89059 0.0
C1817 C 0.32135 0.5034 0.90731 0.0
C1818 C 0.26027 0.52479 0.65578 0.0
C1819 C 0.30482 0.53181 0.65786 0.0
C1820 C 0.22971 0.5422 0.67126 0.0
C1821 C 0.24072 0.56707 0.69065 0.0
H1822 H 0.24857 0.50458 0.6419 0.0
H1823 H 0.19656 0.53608 0.66779 0.0
S1824 S 0.3531 0.58994 0.70598 0.0
N1825 N 0.35776 0.56285 0.68241 0.0
N1826 N 0.30178 0.59408 0.71106 0.0
C1827 C 0.28532 0.57293 0.69328 0.0
C1828 C 0.31652 0.55581 0.67728 0.0
C1829 C 0.26264 0.53252 0.43348 0.0
C1830 C 0.22455 0.55723 0.44116 0.0
C1831 C 0.2902 0.55019 0.41798 0.0
C1832 C 0.28236 0.59408 0.40818 0.0
H1833 H 0.27116 0.49796 0.43924 0.0
H1834 H 0.31818 0.52835 0.41347 0.0
S1835 S 0.19105 0.67826 0.42388 0.0
N1836 N 0.18417 0.63241 0.43808 0.0
N1837 N 0.23357 0.66382 0.40977 0.0
C1838 C 0.24502 0.61972 0.4161 0.0
C1839 C 0.21726 0.60205 0.43202 0.0
C1840 C 0.21727 1.02256 0.31028 0.0
C1841 C 0.22265 0.07481 0.31457 0.0
C1842 C 0.21758 0.99749 0.28995 0.0
C1843 C 0.22154 1.02304 0.2724 0.0
H1844 H 0.21335 1.00048 0.32281 0.0
H1845 H 0.21369 0.95747 0.28796 0.0
S1846 S 0.23575 0.16001 0.27448 0.0
N1847 N 0.23273 0.15063 0.29867 0.0
N1848 N 0.23075 0.10472 0.2613 0.0
C1849 C 0.22629 0.07524 0.27646 0.0
C1850 C 0.22752 0.10053 0.29712 0.0
C1851 C 0.26564 0.96251 0.56066 0.0
C1852 C 0.26855 0.93224 0.57664 0.0
C1853 C 0.29374 0.95662 0.54401 0.0
C1854 C 0.32554 0.91992 0.54254 0.0
H1855 H 0.24147 0.99112 0.56099 0.0
H1856 H 0.29005 0.98022 0.53197 0.0
S1857 S 0.34899 0.83319 0.58063 0.0
N1858 N 0.30758 0.86551 0.59012 0.0
N1859 N 0.35999 0.85468 0.55885 0.0
C1860 C 0.3293 0.88991 0.55845 0.0
C1861 C 0.30093 0.89599 0.57547 0.0
C1862 C 0.48532 0.05809 0.78362 0.0
C1863 C 0.44708 0.07904 0.77737 0.0
C1864 C 0.48654 1.02595 0.79927 0.0
C1865 C 0.44943 1.01065 0.80893 0.0
H1866 H 0.51491 0.06759 0.77669 0.0
H1867 H 0.51709 1.01292 0.80388 0.0
S1868 S 0.34063 0.05256 0.79789 0.0
N1869 N 0.3708 0.08101 0.78235 0.0
N1870 N 0.37298 1.01943 0.81063 0.0
C1871 C 0.4109 1.03025 0.80245 0.0
C1872 C 0.40977 0.06443 0.78704 0.0
C1873 C 0.26323 0.14695 1.02456 0.0
C1874 C 0.26895 0.17333 1.00759 0.0
C1875 C 0.29069 0.15364 0.04119 0.0
C1876 C 0.3246 0.18718 0.04153 0.0
H1877 H 0.23746 0.12077 1.02502 0.0
H1878 H 0.28511 0.1329 0.05401 0.0
S1879 S 0.35534 0.26299 1.00057 0.0
N1880 N 0.31247 0.23312 0.99199 0.0
N1881 N 0.36392 0.24509 1.0232 0.0
C1882 C 0.33101 0.21341 1.02466 0.0
C1883 C 0.30322 0.20664 1.00771 0.0
C1884 C 0.83221 1.03819 0.78188 0.0
C1885 C 0.86972 1.02585 0.77045 0.0
C1886 C 0.83278 0.061 0.80249 0.0
C1887 C 0.87086 0.07076 0.81349 0.0
H1888 H 0.8018 1.03071 0.77472 0.0
H1889 H 0.8028 0.07049 0.80999 0.0
S1890 S 0.97834 1.04464 0.79135 0.0
N1891 N 0.94644 1.02595 0.77234 0.0
N1892 N 0.94745 0.06548 0.81072 0.0
C1893 C 0.90855 0.05776 0.80236 0.0
C1894 C 0.908 1.0363 0.78114 0.0
C1895 C 0.7943 0.15734 0.54017 0.0
C1896 C 0.76319 0.19458 0.54323 0.0
C1897 C 0.82171 0.15461 0.52336 0.0
C1898 C 0.81878 0.18867 0.50875 0.0
H1899 H 0.79801 0.13073 0.55109 0.0
H1900 H 0.84529 0.1252 0.52182 0.0
S1901 S 0.74057 0.2916 0.50932 0.0
N1902 N 0.7296 0.26517 0.53002 0.0
N1903 N 0.78099 0.26003 0.49832 0.0
C1904 C 0.78722 0.2257 0.5115 0.0
C1905 C 0.7595 0.22867 0.52876 0.0
C1906 C 0.63745 0.07277 0.31297 0.0
C1907 C 0.6519 1.02251 0.31118 0.0
C1908 C 0.63956 0.10287 0.29664 0.0
C1909 C 0.65571 0.0845 0.27732 0.0
H1910 H 0.62402 0.08932 0.32726 0.0
H1911 H 0.62709 0.14046 0.29903 0.0
S1912 S 0.69875 0.95655 0.26397 0.0
N1913 N 0.68447 0.95711 0.28804 0.0
N1914 N 0.68699 1.01228 0.25755 0.0
C1915 C 0.67051 1.03457 0.27529 0.0
C1916 C 0.66913 1.00419 0.29204 0.0
C1917 C 0.78802 0.95222 0.06808 0.0
C1918 C 0.81796 0.91525 0.07094 0.0
C1919 C 0.76172 0.94761 0.05103 0.0
C1920 C 0.76501 0.90618 1.03618 0.0
H1921 H 0.78447 0.98445 0.07927 0.0
H1922 H 0.73802 0.97607 0.04973 0.0
S1923 S 0.8429 0.80262 1.03585 0.0
N1924 N 0.85184 0.83799 0.05737 0.0
N1925 N 0.80393 0.82996 1.02474 0.0
C1926 C 0.79628 0.86996 1.03862 0.0
C1927 C 0.82243 0.87435 0.05618 0.0
C1928 C 0.76033 0.56421 0.80195 0.0
C1929 C 0.7234 0.57234 0.81423 0.0
C1930 C 0.75909 0.54187 0.78131 0.0
C1931 C 0.72067 0.52845 0.77117 0.0
H1932 H 0.79084 0.57459 0.80846 0.0
H1933 H 0.78875 0.53553 0.77311 0.0
S1934 S 0.61438 0.54237 0.79575 0.0
N1935 N 0.64686 0.56413 0.81408 0.0
N1936 N 0.64446 0.52535 0.77563 0.0
C1937 C 0.68349 0.53717 0.78314 0.0
C1938 C 0.68486 0.55818 0.80438 0.0
C1939 C 0.79528 0.43832 1.03794 0.0
C1940 C 0.82191 0.39678 1.03376 0.0
C1941 C 0.76668 0.44122 0.05427 0.0
C1942 C 0.76421 0.40277 0.06694 0.0
H1943 H 0.79935 0.47048 1.02976 0.0
H1944 H 0.74868 0.47532 0.05782 0.0
S1945 S 0.82038 0.28149 0.05907 0.0
N1946 N 0.83889 0.31305 0.041 0.0
N1947 N 0.7854 0.31844 0.07189 0.0
C1948 C 0.78749 0.35894 0.06151 0.0
C1949 C 0.81619 0.35591 0.04479 0.0
C1950 C 0.93552 0.56798 0.30961 0.0
C1951 C 0.94237 0.51567 0.30795 0.0
C1952 C 0.9346 0.59545 0.29237 0.0
C1953 C 0.94219 0.57267 0.27236 0.0
H1954 H 0.93087 0.58819 0.32453 0.0
H1955 H 0.9292 0.63524 0.29486 0.0
S1956 S 0.96321 0.43695 0.25926 0.0
N1957 N 0.95674 0.44271 0.28419 0.0
N1958 N 0.95701 0.49331 0.25233 0.0
C1959 C 0.94926 0.52033 0.27055 0.0
C1960 C 0.94887 0.49228 0.28804 0.0
C1961 C 0.81288 0.66376 0.514 0.0
C1962 C 0.77416 0.68928 0.5133 0.0
C1963 C 0.83683 0.66715 0.53193 0.0
C1964 C 0.82292 0.69643 0.5497 0.0
H1965 H 0.82438 0.64045 0.5007 0.0
H1966 H 0.86663 0.64719 0.53182 0.0
S1967 S 0.72255 0.76881 0.55561 0.0
N1968 N 0.7223 0.74345 0.53172 0.0
N1969 N 0.76707 0.75022 0.56541 0.0
C1970 C 0.78408 0.72202 0.54906 0.0
C1971 C 0.7597 0.71825 0.53086 0.0
C1972 C 0.36976 0.52582 0.30983 0.0
C1973 C 0.37519 0.57792 0.31421 0.0
C1974 C 0.36798 0.50156 0.28943 0.0
C1975 C 0.37296 0.52736 0.27198 0.0
H1976 H 0.36582 0.50352 0.32229 0.0
H1977 H 0.36318 0.46168 0.28733 0.0
S1978 S 0.38918 0.66411 0.27462 0.0
N1979 N 0.38537 0.65422 0.29873 0.0
N1980 N 0.38437 0.60908 0.2612 0.0
C1981 C 0.37931 0.57928 0.27621 0.0
C1982 C 0.37974 0.60417 0.29692 0.0
C1983 C 0.29108 0.70286 1.00778 0.0
C1984 C 0.32327 0.66644 1.0056 0.0
C1985 C 0.26549 0.70951 1.02529 0.0
C1986 C 0.27074 0.6797 0.04119 0.0
H1987 H 0.28559 0.72656 0.99592 0.0
H1988 H 0.24107 0.73792 1.02632 0.0
S1989 S 0.35107 0.58045 0.04364 0.0
N1990 N 0.35945 0.60087 1.0214 0.0
N1991 N 0.31097 0.61363 0.05407 0.0
C1992 C 0.30263 0.64326 1.0393 0.0
C1993 C 0.32902 0.63664 1.0216 0.0
C1994 C 0.17171 0.56151 0.7811 0.0
C1995 C 0.13297 0.57643 0.77295 0.0
C1996 C 0.17332 0.53094 0.79724 0.0
C1997 C 0.1363 0.51499 0.80671 0.0
H1998 H 0.20128 0.57265 0.77462 0.0
H1999 H 0.20404 0.52042 0.8026 0.0
S2000 S 1.02657 0.54433 0.79174 0.0
N2001 N 0.05648 0.57175 0.77576 0.0
N2002 N 0.05946 0.51775 0.80662 0.0
C2003 C 0.09738 0.5305 0.79899 0.0
C2004 C 0.09574 0.56006 0.78205 0.0
C2005 C 0.26293 0.38795 0.55215 0.0
C2006 C 0.2664 0.42116 0.53738 0.0
C2007 C 0.28945 0.39171 0.56904 0.0
C2008 C 0.32085 0.42861 0.57176 0.0
H2009 H 0.23921 0.35898 0.55067 0.0
H2010 H 0.2853 0.36523 0.58 0.0
S2011 S 0.3433 0.52411 0.537 0.0
N2012 N 0.30361 0.49166 0.52623 0.0
N2013 N 0.35395 0.49906 0.55802 0.0
C2014 C 0.3247 0.46215 0.55703 0.0
C2015 C 0.2973 0.45843 0.53986 0.0
loop_
_geom_bond_atom_site_label_1
_geom_bond_atom_site_label_2
_geom_bond_distance
_geom_bond_site_symmetry_2
_ccdc_geom_bond_type
Co0 N5 2.057 . S
Co0 O17 2.021 . S
Co0 O20 2.062 . S
Co0 O24 2.117 . S
Co0 O25 2.020 . S
C1 O21 1.259 . S
C1 O24 1.258 . S
Co2 N11 2.057 . S
Co2 O18 2.117 . S
Co2 O19 2.020 . S
Co2 O21 2.021 . S
Co2 O26 2.062 . S
C3 N5 1.316 . S
C3 N6 1.347 . S
C3 H8 0.931 . S
C4 N5 1.375 . S
C4 C7 1.350 . S
C4 H9 0.930 . S
N5 Co0 2.057 . S
N5 C3 1.316 . S
N5 C4 1.375 . S
N6 C3 1.347 . S
N6 C7 1.373 . S
C7 C4 1.350 . S
C7 N6 1.373 . S
C7 H28 0.931 . S
H8 C3 0.931 . S
H9 C4 0.930 . S
C10 O17 1.259 . S
C10 O18 1.258 . S
N11 Co2 2.057 . S
N11 C12 1.316 . S
N11 C13 1.375 . S
C12 N11 1.316 . S
C12 N14 1.347 . S
C12 H23 0.931 . S
C13 N11 1.375 . S
C13 C15 1.350 . S
C13 H22 0.930 . S
N14 C12 1.347 . S
N14 C15 1.373 . S
C15 C13 1.350 . S
C15 N14 1.373 . S
C15 H29 0.931 . S
C16 O19 1.256 . S
C16 O20 1.255 . S
O17 Co0 2.021 . S
O17 C10 1.259 . S
O18 Co2 2.117 . S
O18 C10 1.258 . S
O19 Co2 2.020 . S
O19 C16 1.256 . S
O20 Co0 2.062 . S
O20 C16 1.255 . S
O21 C1 1.259 . S
O21 Co2 2.021 . S
H22 C13 0.930 . S
H23 C12 0.931 . S
O24 Co0 2.117 . S
O24 C1 1.258 . S
O25 Co0 2.020 . S
O25 C27 1.256 . S
O26 Co2 2.062 . S
O26 C27 1.255 . S
C27 O25 1.256 . S
C27 O26 1.255 . S
H28 C7 0.931 . S
H29 C15 0.931 . S
Co30 N35 2.057 . S
Co30 O47 2.021 . S
Co30 O50 2.062 . S
Co30 O54 2.117 . S
Co30 O55 2.020 . S
C31 O51 1.259 . S
C31 O54 1.258 . S
Co32 N41 2.057 . S
Co32 O48 2.117 . S
Co32 O49 2.020 . S
Co32 O51 2.021 . S
Co32 O56 2.062 . S
C33 N35 1.316 . S
C33 N36 1.347 . S
C33 H38 0.931 . S
C34 N35 1.375 . S
C34 C37 1.350 . S
C34 H39 0.930 . S
N35 Co30 2.057 . S
N35 C33 1.316 . S
N35 C34 1.375 . S
N36 C33 1.347 . S
N36 C37 1.373 . S
C37 C34 1.350 . S
C37 N36 1.373 . S
C37 H58 0.931 . S
H38 C33 0.931 . S
H39 C34 0.930 . S
C40 O47 1.259 . S
C40 O48 1.258 . S
N41 Co32 2.057 . S
N41 C42 1.316 . S
N41 C43 1.375 . S
C42 N41 1.316 . S
C42 N44 1.347 . S
C42 H53 0.931 . S
C43 N41 1.375 . S
C43 C45 1.350 . S
C43 H52 0.930 . S
N44 C42 1.347 . S
N44 C45 1.373 . S
C45 C43 1.350 . S
C45 N44 1.373 . S
C45 H59 0.931 . S
C46 O49 1.256 . S
C46 O50 1.255 . S
O47 Co30 2.021 . S
O47 C40 1.259 . S
O48 Co32 2.117 . S
O48 C40 1.258 . S
O49 Co32 2.020 . S
O49 C46 1.256 . S
O50 Co30 2.062 . S
O50 C46 1.255 . S
O51 C31 1.259 . S
O51 Co32 2.021 . S
H52 C43 0.930 . S
H53 C42 0.931 . S
O54 Co30 2.117 . S
O54 C31 1.258 . S
O55 Co30 2.020 . S
O55 C57 1.256 . S
O56 Co32 2.062 . S
O56 C57 1.255 . S
C57 O55 1.256 . S
C57 O56 1.255 . S
H58 C37 0.931 . S
H59 C45 0.931 . S
Co60 N65 2.057 . S
Co60 O77 2.021 . S
Co60 O80 2.062 . S
Co60 O84 2.117 . S
Co60 O85 2.020 . S
C61 O81 1.259 . S
C61 O84 1.258 . S
Co62 N71 2.057 . S
Co62 O78 2.117 . S
Co62 O79 2.020 . S
Co62 O81 2.021 . S
Co62 O86 2.062 . S
C63 N65 1.316 . S
C63 N66 1.347 . S
C63 H68 0.931 . S
C64 N65 1.375 . S
C64 C67 1.350 . S
C64 H69 0.930 . S
N65 Co60 2.057 . S
N65 C63 1.316 . S
N65 C64 1.375 . S
N66 C63 1.347 . S
N66 C67 1.373 . S
C67 C64 1.350 . S
C67 N66 1.373 . S
C67 H88 0.931 . S
H68 C63 0.931 . S
H69 C64 0.930 . S
C70 O77 1.259 . S
C70 O78 1.258 . S
N71 Co62 2.057 . S
N71 C72 1.316 . S
N71 C73 1.375 1_565 S
C72 N71 1.316 . S
C72 N74 1.347 . S
C72 H83 0.931 . S
C73 N71 1.375 1_545 S
C73 C75 1.350 . S
C73 H82 0.930 . S
N74 C72 1.347 . S
N74 C75 1.373 1_565 S
C75 C73 1.350 . S
C75 N74 1.373 1_545 S
C75 H89 0.931 . S
C76 O79 1.256 . S
C76 O80 1.255 . S
O77 Co60 2.021 . S
O77 C70 1.259 . S
O78 Co62 2.117 . S
O78 C70 1.258 . S
O79 Co62 2.020 . S
O79 C76 1.256 . S
O80 Co60 2.062 . S
O80 C76 1.255 . S
O81 C61 1.259 . S
O81 Co62 2.021 . S
H82 C73 0.930 . S
H83 C72 0.931 . S
O84 Co60 2.117 . S
O84 C61 1.258 . S
O85 Co60 2.020 . S
O85 C87 1.256 . S
O86 Co62 2.062 . S
O86 C87 1.255 . S
C87 O85 1.256 . S
C87 O86 1.255 . S
H88 C67 0.931 . S
H89 C75 0.931 . S
Co90 N95 2.057 . S
Co90 O107 2.021 . S
Co90 O110 2.062 . S
Co90 O114 2.117 . S
Co90 O115 2.020 . S
C91 O111 1.259 . S
C91 O114 1.258 . S
Co92 N101 2.057 . S
Co92 O108 2.117 . S
Co92 O109 2.020 . S
Co92 O111 2.021 . S
Co92 O116 2.062 . S
C93 N95 1.316 . S
C93 N96 1.347 . S
C93 H98 0.931 . S
C94 N95 1.375 . S
C94 C97 1.350 . S
C94 H99 0.930 1_545 S
N95 Co90 2.057 . S
N95 C93 1.316 . S
N95 C94 1.375 . S
N96 C93 1.347 . S
N96 C97 1.373 . S
C97 C94 1.350 . S
C97 N96 1.373 . S
C97 H118 0.931 1_545 S
H98 C93 0.931 . S
H99 C94 0.930 1_565 S
C100 O107 1.259 . S
C100 O108 1.258 . S
N101 Co92 2.057 . S
N101 C102 1.316 . S
N101 C103 1.375 . S
C102 N101 1.316 . S
C102 N104 1.347 . S
C102 H113 0.931 . S
C103 N101 1.375 . S
C103 C105 1.350 . S
C103 H112 0.930 . S
N104 C102 1.347 . S
N104 C105 1.373 . S
C105 C103 1.350 . S
C105 N104 1.373 . S
C105 H119 0.931 1_554 S
C106 O109 1.256 . S
C106 O110 1.255 . S
O107 Co90 2.021 . S
O107 C100 1.259 . S
O108 Co92 2.117 . S
O108 C100 1.258 . S
O109 Co92 2.020 . S
O109 C106 1.256 . S
O110 Co90 2.062 . S
O110 C106 1.255 . S
O111 C91 1.259 . S
O111 Co92 2.021 . S
H112 C103 0.930 . S
H113 C102 0.931 . S
O114 Co90 2.117 . S
O114 C91 1.258 . S
O115 Co90 2.020 . S
O115 C117 1.256 . S
O116 Co92 2.062 . S
O116 C117 1.255 . S
C117 O115 1.256 . S
C117 O116 1.255 . S
H118 C97 0.931 1_565 S
H119 C105 0.931 1_556 S
Co120 N125 2.057 . S
Co120 O137 2.021 . S
Co120 O140 2.062 . S
Co120 O144 2.117 . S
Co120 O145 2.020 . S
C121 O141 1.259 . S
C121 O144 1.258 . S
Co122 N131 2.057 . S
Co122 O138 2.117 . S
Co122 O139 2.020 . S
Co122 O141 2.021 . S
Co122 O146 2.062 . S
C123 N125 1.316 . S
C123 N126 1.347 . S
C123 H128 0.931 . S
C124 N125 1.375 . S
C124 C127 1.350 . S
C124 H129 0.930 . S
N125 Co120 2.057 . S
N125 C123 1.316 . S
N125 C124 1.375 . S
N126 C123 1.347 . S
N126 C127 1.373 . S
C127 C124 1.350 . S
C127 N126 1.373 . S
C127 H148 0.931 . S
H128 C123 0.931 . S
H129 C124 0.930 . S
C130 O137 1.259 . S
C130 O138 1.258 . S
N131 Co122 2.057 . S
N131 C132 1.316 . S
N131 C133 1.375 . S
C132 N131 1.316 . S
C132 N134 1.347 . S
C132 H143 0.931 . S
C133 N131 1.375 . S
C133 C135 1.350 . S
C133 H142 0.930 . S
N134 C132 1.347 . S
N134 C135 1.373 . S
C135 C133 1.350 . S
C135 N134 1.373 . S
C135 H149 0.931 . S
C136 O139 1.256 . S
C136 O140 1.255 . S
O137 Co120 2.021 . S
O137 C130 1.259 . S
O138 Co122 2.117 . S
O138 C130 1.258 . S
O139 Co122 2.020 . S
O139 C136 1.256 . S
O140 Co120 2.062 . S
O140 C136 1.255 . S
O141 C121 1.259 . S
O141 Co122 2.021 . S
H142 C133 0.930 . S
H143 C132 0.931 . S
O144 Co120 2.117 . S
O144 C121 1.258 . S
O145 Co120 2.020 . S
O145 C147 1.256 . S
O146 Co122 2.062 . S
O146 C147 1.255 . S
C147 O145 1.256 . S
C147 O146 1.255 . S
H148 C127 0.931 . S
H149 C135 0.931 . S
Co150 N155 2.057 . S
Co150 O167 2.021 . S
Co150 O170 2.062 . S
Co150 O174 2.117 . S
Co150 O175 2.020 . S
C151 O171 1.259 . S
C151 O174 1.258 . S
Co152 N161 2.057 . S
Co152 O168 2.117 . S
Co152 O169 2.020 . S
Co152 O171 2.021 . S
Co152 O176 2.062 . S
C153 N155 1.316 . S
C153 N156 1.347 . S
C153 H158 0.931 . S
C154 N155 1.375 . S
C154 C157 1.350 . S
C154 H159 0.930 1_565 S
N155 Co150 2.057 . S
N155 C153 1.316 . S
N155 C154 1.375 . S
N156 C153 1.347 . S
N156 C157 1.373 . S
C157 C154 1.350 . S
C157 N156 1.373 . S
C157 H178 0.931 1_565 S
H158 C153 0.931 . S
H159 C154 0.930 1_545 S
C160 O167 1.259 . S
C160 O168 1.258 . S
N161 Co152 2.057 . S
N161 C162 1.316 . S
N161 C163 1.375 . S
C162 N161 1.316 . S
C162 N164 1.347 . S
C162 H173 0.931 . S
C163 N161 1.375 . S
C163 C165 1.350 . S
C163 H172 0.930 . S
N164 C162 1.347 . S
N164 C165 1.373 . S
C165 C163 1.350 . S
C165 N164 1.373 . S
C165 H179 0.931 . S
C166 O169 1.256 . S
C166 O170 1.255 . S
O167 Co150 2.021 . S
O167 C160 1.259 . S
O168 Co152 2.117 . S
O168 C160 1.258 . S
O169 Co152 2.020 . S
O169 C166 1.256 . S
O170 Co150 2.062 . S
O170 C166 1.255 . S
O171 C151 1.259 . S
O171 Co152 2.021 . S
H172 C163 0.930 . S
H173 C162 0.931 . S
O174 Co150 2.117 . S
O174 C151 1.258 . S
O175 Co150 2.020 . S
O175 C177 1.256 . S
O176 Co152 2.062 . S
O176 C177 1.255 . S
C177 O175 1.256 . S
C177 O176 1.255 . S
H178 C157 0.931 1_545 S
H179 C165 0.931 . S
Co180 N185 2.057 . S
Co180 O197 2.021 . S
Co180 O200 2.062 . S
Co180 O204 2.117 . S
Co180 O205 2.020 . S
C181 O201 1.259 . S
C181 O204 1.258 . S
Co182 N191 2.057 . S
Co182 O198 2.117 . S
Co182 O199 2.020 . S
Co182 O201 2.021 . S
Co182 O206 2.062 . S
C183 N185 1.316 . S
C183 N186 1.347 . S
C183 H188 0.931 . S
C184 N185 1.375 . S
C184 C187 1.350 . S
C184 H189 0.930 . S
N185 Co180 2.057 . S
N185 C183 1.316 . S
N185 C184 1.375 . S
N186 C183 1.347 . S
N186 C187 1.373 . S
C187 C184 1.350 . S
C187 N186 1.373 . S
C187 H208 0.931 . S
H188 C183 0.931 . S
H189 C184 0.930 . S
C190 O197 1.259 . S
C190 O198 1.258 . S
N191 Co182 2.057 . S
N191 C192 1.316 . S
N191 C193 1.375 1_545 S
C192 N191 1.316 . S
C192 N194 1.347 . S
C192 H203 0.931 . S
C193 N191 1.375 1_565 S
C193 C195 1.350 . S
C193 H202 0.930 . S
N194 C192 1.347 . S
N194 C195 1.373 1_545 S
C195 C193 1.350 . S
C195 N194 1.373 1_565 S
C195 H209 0.931 . S
C196 O199 1.256 . S
C196 O200 1.255 . S
O197 Co180 2.021 . S
O197 C190 1.259 . S
O198 Co182 2.117 . S
O198 C190 1.258 . S
O199 Co182 2.020 . S
O199 C196 1.256 . S
O200 Co180 2.062 . S
O200 C196 1.255 . S
O201 C181 1.259 . S
O201 Co182 2.021 . S
H202 C193 0.930 . S
H203 C192 0.931 . S
O204 Co180 2.117 . S
O204 C181 1.258 . S
O205 Co180 2.020 . S
O205 C207 1.256 . S
O206 Co182 2.062 . S
O206 C207 1.255 . S
C207 O205 1.256 . S
C207 O206 1.255 . S
H208 C187 0.931 . S
H209 C195 0.931 . S
Co210 N215 2.057 . S
Co210 O227 2.021 . S
Co210 O230 2.062 . S
Co210 O234 2.117 . S
Co210 O235 2.020 . S
C211 O231 1.259 . S
C211 O234 1.258 . S
Co212 N221 2.057 . S
Co212 O228 2.117 . S
Co212 O229 2.020 . S
Co212 O231 2.021 . S
Co212 O236 2.062 . S
C213 N215 1.316 . S
C213 N216 1.347 . S
C213 H218 0.931 . S
C214 N215 1.375 . S
C214 C217 1.350 . S
C214 H219 0.930 . S
N215 Co210 2.057 . S
N215 C213 1.316 . S
N215 C214 1.375 . S
N216 C213 1.347 . S
N216 C217 1.373 . S
C217 C214 1.350 . S
C217 N216 1.373 . S
C217 H238 0.931 . S
H218 C213 0.931 . S
H219 C214 0.930 . S
C220 O227 1.259 . S
C220 O228 1.258 . S
N221 Co212 2.057 . S
N221 C222 1.316 . S
N221 C223 1.375 . S
C222 N221 1.316 . S
C222 N224 1.347 . S
C222 H233 0.931 . S
C223 N221 1.375 . S
C223 C225 1.350 . S
C223 H232 0.930 . S
N224 C222 1.347 . S
N224 C225 1.373 . S
C225 C223 1.350 . S
C225 N224 1.373 . S
C225 H239 0.931 . S
C226 O229 1.256 . S
C226 O230 1.255 . S
O227 Co210 2.021 . S
O227 C220 1.259 . S
O228 Co212 2.117 . S
O228 C220 1.258 . S
O229 Co212 2.020 . S
O229 C226 1.256 . S
O230 Co210 2.062 . S
O230 C226 1.255 . S
O231 C211 1.259 . S
O231 Co212 2.021 . S
H232 C223 0.930 . S
H233 C222 0.931 . S
O234 Co210 2.117 . S
O234 C211 1.258 . S
O235 Co210 2.020 . S
O235 C237 1.256 . S
O236 Co212 2.062 . S
O236 C237 1.255 . S
C237 O235 1.256 . S
C237 O236 1.255 . S
H238 C217 0.931 . S
H239 C225 0.931 . S
Co240 N245 2.057 . S
Co240 O257 2.021 . S
Co240 O260 2.062 . S
Co240 O264 2.117 . S
Co240 O265 2.020 . S
C241 O261 1.259 . S
C241 O264 1.258 . S
Co242 N251 2.057 . S
Co242 O258 2.117 . S
Co242 O259 2.020 . S
Co242 O261 2.021 . S
Co242 O266 2.062 . S
C243 N245 1.316 . S
C243 N246 1.347 . S
C243 H248 0.931 . S
C244 N245 1.375 . S
C244 C247 1.350 . S
C244 H249 0.930 . S
N245 Co240 2.057 . S
N245 C243 1.316 . S
N245 C244 1.375 . S
N246 C243 1.347 . S
N246 C247 1.373 . S
C247 C244 1.350 . S
C247 N246 1.373 . S
C247 H268 0.931 . S
H248 C243 0.931 . S
H249 C244 0.930 . S
C250 O257 1.259 . S
C250 O258 1.258 . S
N251 Co242 2.057 . S
N251 C252 1.316 . S
N251 C253 1.375 . S
C252 N251 1.316 . S
C252 N254 1.347 . S
C252 H263 0.931 . S
C253 N251 1.375 . S
C253 C255 1.350 . S
C253 H262 0.930 . S
N254 C252 1.347 . S
N254 C255 1.373 . S
C255 C253 1.350 . S
C255 N254 1.373 . S
C255 H269 0.931 . S
C256 O259 1.256 . S
C256 O260 1.255 . S
O257 Co240 2.021 . S
O257 C250 1.259 . S
O258 Co242 2.117 . S
O258 C250 1.258 . S
O259 Co242 2.020 . S
O259 C256 1.256 . S
O260 Co240 2.062 . S
O260 C256 1.255 . S
O261 C241 1.259 . S
O261 Co242 2.021 . S
H262 C253 0.930 . S
H263 C252 0.931 . S
O264 Co240 2.117 . S
O264 C241 1.258 . S
O265 Co240 2.020 . S
O265 C267 1.256 . S
O266 Co242 2.062 . S
O266 C267 1.255 . S
C267 O265 1.256 . S
C267 O266 1.255 . S
H268 C247 0.931 . S
H269 C255 0.931 . S
Co270 N275 2.057 . S
Co270 O287 2.021 . S
Co270 O290 2.062 . S
Co270 O294 2.117 . S
Co270 O295 2.020 . S
C271 O291 1.259 . S
C271 O294 1.258 . S
Co272 N281 2.057 . S
Co272 O288 2.117 . S
Co272 O289 2.020 . S
Co272 O291 2.021 . S
Co272 O296 2.062 . S
C273 N275 1.316 . S
C273 N276 1.347 . S
C273 H278 0.931 . S
C274 N275 1.375 . S
C274 C277 1.350 . S
C274 H279 0.930 . S
N275 Co270 2.057 . S
N275 C273 1.316 . S
N275 C274 1.375 . S
N276 C273 1.347 . S
N276 C277 1.373 . S
C277 C274 1.350 . S
C277 N276 1.373 . S
C277 H298 0.931 . S
H278 C273 0.931 . S
H279 C274 0.930 . S
C280 O287 1.259 . S
C280 O288 1.258 . S
N281 Co272 2.057 . S
N281 C282 1.316 . S
N281 C283 1.375 . S
C282 N281 1.316 . S
C282 N284 1.347 . S
C282 H293 0.931 . S
C283 N281 1.375 . S
C283 C285 1.350 . S
C283 H292 0.930 . S
N284 C282 1.347 . S
N284 C285 1.373 . S
C285 C283 1.350 . S
C285 N284 1.373 . S
C285 H299 0.931 . S
C286 O289 1.256 . S
C286 O290 1.255 . S
O287 Co270 2.021 . S
O287 C280 1.259 . S
O288 Co272 2.117 . S
O288 C280 1.258 . S
O289 Co272 2.020 . S
O289 C286 1.256 . S
O290 Co270 2.062 . S
O290 C286 1.255 . S
O291 C271 1.259 . S
O291 Co272 2.021 . S
H292 C283 0.930 . S
H293 C282 0.931 . S
O294 Co270 2.117 . S
O294 C271 1.258 . S
O295 Co270 2.020 . S
O295 C297 1.256 . S
O296 Co272 2.062 . S
O296 C297 1.255 . S
C297 O295 1.256 . S
C297 O296 1.255 . S
H298 C277 0.931 . S
H299 C285 0.931 . S
Co300 N305 2.057 . S
Co300 O317 2.021 . S
Co300 O320 2.062 . S
Co300 O324 2.117 . S
Co300 O325 2.020 . S
C301 O321 1.259 . S
C301 O324 1.258 . S
Co302 N311 2.057 . S
Co302 O318 2.117 . S
Co302 O319 2.020 . S
Co302 O321 2.021 . S
Co302 O326 2.062 . S
C303 N305 1.316 . S
C303 N306 1.347 . S
C303 H308 0.931 . S
C304 N305 1.375 1_565 S
C304 C307 1.350 . S
C304 H309 0.930 . S
N305 Co300 2.057 . S
N305 C303 1.316 . S
N305 C304 1.375 1_545 S
N306 C303 1.347 . S
N306 C307 1.373 1_545 S
C307 C304 1.350 . S
C307 N306 1.373 1_565 S
C307 H328 0.931 . S
H308 C303 0.931 . S
H309 C304 0.930 . S
C310 O317 1.259 . S
C310 O318 1.258 . S
N311 Co302 2.057 . S
N311 C312 1.316 . S
N311 C313 1.375 . S
C312 N311 1.316 . S
C312 N314 1.347 . S
C312 H323 0.931 . S
C313 N311 1.375 . S
C313 C315 1.350 . S
C313 H322 0.930 . S
N314 C312 1.347 . S
N314 C315 1.373 . S
C315 C313 1.350 . S
C315 N314 1.373 . S
C315 H329 0.931 . S
C316 O319 1.256 . S
C316 O320 1.255 . S
O317 Co300 2.021 . S
O317 C310 1.259 . S
O318 Co302 2.117 . S
O318 C310 1.258 . S
O319 Co302 2.020 . S
O319 C316 1.256 . S
O320 Co300 2.062 . S
O320 C316 1.255 . S
O321 C301 1.259 . S
O321 Co302 2.021 . S
H322 C313 0.930 . S
H323 C312 0.931 . S
O324 Co300 2.117 . S
O324 C301 1.258 . S
O325 Co300 2.020 . S
O325 C327 1.256 . S
O326 Co302 2.062 . S
O326 C327 1.255 . S
C327 O325 1.256 . S
C327 O326 1.255 . S
H328 C307 0.931 . S
H329 C315 0.931 . S
Co330 N335 2.057 . S
Co330 O347 2.021 . S
Co330 O350 2.062 . S
Co330 O354 2.117 . S
Co330 O355 2.020 . S
C331 O351 1.259 . S
C331 O354 1.258 . S
Co332 N341 2.057 . S
Co332 O348 2.117 . S
Co332 O349 2.020 . S
Co332 O351 2.021 . S
Co332 O356 2.062 . S
C333 N335 1.316 . S
C333 N336 1.347 . S
C333 H338 0.931 . S
C334 N335 1.375 . S
C334 C337 1.350 . S
C334 H339 0.930 . S
N335 Co330 2.057 . S
N335 C333 1.316 . S
N335 C334 1.375 . S
N336 C333 1.347 . S
N336 C337 1.373 . S
C337 C334 1.350 . S
C337 N336 1.373 . S
C337 H358 0.931 1_556 S
H338 C333 0.931 . S
H339 C334 0.930 . S
C340 O347 1.259 . S
C340 O348 1.258 . S
N341 Co332 2.057 . S
N341 C342 1.316 . S
N341 C343 1.375 . S
C342 N341 1.316 . S
C342 N344 1.347 . S
C342 H353 0.931 . S
C343 N341 1.375 . S
C343 C345 1.350 . S
C343 H352 0.930 1_565 S
N344 C342 1.347 . S
N344 C345 1.373 . S
C345 C343 1.350 . S
C345 N344 1.373 . S
C345 H359 0.931 1_565 S
C346 O349 1.256 . S
C346 O350 1.255 . S
O347 Co330 2.021 . S
O347 C340 1.259 . S
O348 Co332 2.117 . S
O348 C340 1.258 . S
O349 Co332 2.020 . S
O349 C346 1.256 . S
O350 Co330 2.062 . S
O350 C346 1.255 . S
O351 C331 1.259 . S
O351 Co332 2.021 . S
H352 C343 0.930 1_545 S
H353 C342 0.931 . S
O354 Co330 2.117 . S
O354 C331 1.258 . S
O355 Co330 2.020 . S
O355 C357 1.256 . S
O356 Co332 2.062 . S
O356 C357 1.255 . S
C357 O355 1.256 . S
C357 O356 1.255 . S
H358 C337 0.931 1_554 S
H359 C345 0.931 1_545 S
Co360 N365 2.057 . S
Co360 O377 2.021 . S
Co360 O380 2.062 . S
Co360 O384 2.117 . S
Co360 O385 2.020 . S
C361 O381 1.259 . S
C361 O384 1.258 . S
Co362 N371 2.057 . S
Co362 O378 2.117 . S
Co362 O379 2.020 . S
Co362 O381 2.021 . S
Co362 O386 2.062 . S
C363 N365 1.316 . S
C363 N366 1.347 . S
C363 H368 0.931 . S
C364 N365 1.375 . S
C364 C367 1.350 . S
C364 H369 0.930 . S
N365 Co360 2.057 . S
N365 C363 1.316 . S
N365 C364 1.375 . S
N366 C363 1.347 . S
N366 C367 1.373 . S
C367 C364 1.350 . S
C367 N366 1.373 . S
C367 H388 0.931 . S
H368 C363 0.931 . S
H369 C364 0.930 . S
C370 O377 1.259 . S
C370 O378 1.258 . S
N371 Co362 2.057 . S
N371 C372 1.316 . S
N371 C373 1.375 . S
C372 N371 1.316 . S
C372 N374 1.347 . S
C372 H383 0.931 . S
C373 N371 1.375 . S
C373 C375 1.350 . S
C373 H382 0.930 . S
N374 C372 1.347 . S
N374 C375 1.373 . S
C375 C373 1.350 . S
C375 N374 1.373 . S
C375 H389 0.931 . S
C376 O379 1.256 . S
C376 O380 1.255 . S
O377 Co360 2.021 . S
O377 C370 1.259 . S
O378 Co362 2.117 . S
O378 C370 1.258 . S
O379 Co362 2.020 . S
O379 C376 1.256 . S
O380 Co360 2.062 . S
O380 C376 1.255 . S
O381 C361 1.259 . S
O381 Co362 2.021 . S
H382 C373 0.930 . S
H383 C372 0.931 . S
O384 Co360 2.117 . S
O384 C361 1.258 . S
O385 Co360 2.020 . S
O385 C387 1.256 . S
O386 Co362 2.062 . S
O386 C387 1.255 . S
C387 O385 1.256 . S
C387 O386 1.255 . S
H388 C367 0.931 . S
H389 C375 0.931 . S
Co390 N395 2.057 . S
Co390 O407 2.021 . S
Co390 O410 2.062 . S
Co390 O414 2.117 . S
Co390 O415 2.020 . S
C391 O411 1.259 . S
C391 O414 1.258 . S
Co392 N401 2.057 . S
Co392 O408 2.117 . S
Co392 O409 2.020 . S
Co392 O411 2.021 . S
Co392 O416 2.062 . S
C393 N395 1.316 . S
C393 N396 1.347 . S
C393 H398 0.931 . S
C394 N395 1.375 . S
C394 C397 1.350 . S
C394 H399 0.930 . S
N395 Co390 2.057 . S
N395 C393 1.316 . S
N395 C394 1.375 . S
N396 C393 1.347 . S
N396 C397 1.373 . S
C397 C394 1.350 . S
C397 N396 1.373 . S
C397 H418 0.931 . S
H398 C393 0.931 . S
H399 C394 0.930 . S
C400 O407 1.259 . S
C400 O408 1.258 . S
N401 Co392 2.057 . S
N401 C402 1.316 . S
N401 C403 1.375 . S
C402 N401 1.316 . S
C402 N404 1.347 . S
C402 H413 0.931 . S
C403 N401 1.375 . S
C403 C405 1.350 . S
C403 H412 0.930 1_545 S
N404 C402 1.347 . S
N404 C405 1.373 . S
C405 C403 1.350 . S
C405 N404 1.373 . S
C405 H419 0.931 1_545 S
C406 O409 1.256 . S
C406 O410 1.255 . S
O407 Co390 2.021 . S
O407 C400 1.259 . S
O408 Co392 2.117 . S
O408 C400 1.258 . S
O409 Co392 2.020 . S
O409 C406 1.256 . S
O410 Co390 2.062 . S
O410 C406 1.255 . S
O411 C391 1.259 . S
O411 Co392 2.021 . S
H412 C403 0.930 1_565 S
H413 C402 0.931 . S
O414 Co390 2.117 . S
O414 C391 1.258 . S
O415 Co390 2.020 . S
O415 C417 1.256 . S
O416 Co392 2.062 . S
O416 C417 1.255 . S
C417 O415 1.256 . S
C417 O416 1.255 . S
H418 C397 0.931 . S
H419 C405 0.931 1_565 S
Co420 N425 2.057 . S
Co420 O437 2.021 . S
Co420 O440 2.062 . S
Co420 O444 2.117 . S
Co420 O445 2.020 . S
C421 O441 1.259 . S
C421 O444 1.258 . S
Co422 N431 2.057 . S
Co422 O438 2.117 . S
Co422 O439 2.020 . S
Co422 O441 2.021 . S
Co422 O446 2.062 . S
C423 N425 1.316 . S
C423 N426 1.347 . S
C423 H428 0.931 . S
C424 N425 1.375 1_545 S
C424 C427 1.350 . S
C424 H429 0.930 . S
N425 Co420 2.057 . S
N425 C423 1.316 . S
N425 C424 1.375 1_565 S
N426 C423 1.347 . S
N426 C427 1.373 1_565 S
C427 C424 1.350 . S
C427 N426 1.373 1_545 S
C427 H448 0.931 . S
H428 C423 0.931 . S
H429 C424 0.930 . S
C430 O437 1.259 . S
C430 O438 1.258 . S
N431 Co422 2.057 . S
N431 C432 1.316 . S
N431 C433 1.375 . S
C432 N431 1.316 . S
C432 N434 1.347 . S
C432 H443 0.931 . S
C433 N431 1.375 . S
C433 C435 1.350 . S
C433 H442 0.930 . S
N434 C432 1.347 . S
N434 C435 1.373 . S
C435 C433 1.350 . S
C435 N434 1.373 . S
C435 H449 0.931 . S
C436 O439 1.256 . S
C436 O440 1.255 . S
O437 Co420 2.021 . S
O437 C430 1.259 . S
O438 Co422 2.117 . S
O438 C430 1.258 . S
O439 Co422 2.020 . S
O439 C436 1.256 . S
O440 Co420 2.062 . S
O440 C436 1.255 . S
O441 C421 1.259 . S
O441 Co422 2.021 . S
H442 C433 0.930 . S
H443 C432 0.931 . S
O444 Co420 2.117 . S
O444 C421 1.258 . S
O445 Co420 2.020 . S
O445 C447 1.256 . S
O446 Co422 2.062 . S
O446 C447 1.255 . S
C447 O445 1.256 . S
C447 O446 1.255 . S
H448 C427 0.931 . S
H449 C435 0.931 . S
Co450 N455 2.057 . S
Co450 O467 2.021 . S
Co450 O470 2.062 . S
Co450 O474 2.117 . S
Co450 O475 2.020 . S
C451 O471 1.259 . S
C451 O474 1.258 . S
Co452 N461 2.057 . S
Co452 O468 2.117 . S
Co452 O469 2.020 . S
Co452 O471 2.021 . S
Co452 O476 2.062 . S
C453 N455 1.316 . S
C453 N456 1.347 . S
C453 H458 0.931 . S
C454 N455 1.375 . S
C454 C457 1.350 . S
C454 H459 0.930 . S
N455 Co450 2.057 . S
N455 C453 1.316 . S
N455 C454 1.375 . S
N456 C453 1.347 . S
N456 C457 1.373 . S
C457 C454 1.350 . S
C457 N456 1.373 . S
C457 H478 0.931 . S
H458 C453 0.931 . S
H459 C454 0.930 . S
C460 O467 1.259 . S
C460 O468 1.258 . S
N461 Co452 2.057 . S
N461 C462 1.316 . S
N461 C463 1.375 . S
C462 N461 1.316 . S
C462 N464 1.347 . S
C462 H473 0.931 . S
C463 N461 1.375 . S
C463 C465 1.350 . S
C463 H472 0.930 . S
N464 C462 1.347 . S
N464 C465 1.373 . S
C465 C463 1.350 . S
C465 N464 1.373 . S
C465 H479 0.931 . S
C466 O469 1.256 . S
C466 O470 1.255 . S
O467 Co450 2.021 . S
O467 C460 1.259 . S
O468 Co452 2.117 . S
O468 C460 1.258 . S
O469 Co452 2.020 . S
O469 C466 1.256 . S
O470 Co450 2.062 . S
O470 C466 1.255 . S
O471 C451 1.259 . S
O471 Co452 2.021 . S
H472 C463 0.930 . S
H473 C462 0.931 . S
O474 Co450 2.117 . S
O474 C451 1.258 . S
O475 Co450 2.020 . S
O475 C477 1.256 . S
O476 Co452 2.062 . S
O476 C477 1.255 . S
C477 O475 1.256 . S
C477 O476 1.255 . S
H478 C457 0.931 . S
H479 C465 0.931 . S
Co480 N485 2.057 . S
Co480 O497 2.021 . S
Co480 O500 2.062 . S
Co480 O504 2.117 . S
Co480 O505 2.020 . S
C481 O501 1.259 . S
C481 O504 1.258 . S
Co482 N491 2.057 . S
Co482 O498 2.117 . S
Co482 O499 2.020 . S
Co482 O501 2.021 . S
Co482 O506 2.062 . S
C483 N485 1.316 . S
C483 N486 1.347 . S
C483 H488 0.931 . S
C484 N485 1.375 . S
C484 C487 1.350 . S
C484 H489 0.930 . S
N485 Co480 2.057 . S
N485 C483 1.316 . S
N485 C484 1.375 . S
N486 C483 1.347 . S
N486 C487 1.373 . S
C487 C484 1.350 . S
C487 N486 1.373 . S
C487 H508 0.931 . S
H488 C483 0.931 . S
H489 C484 0.930 . S
C490 O497 1.259 . S
C490 O498 1.258 . S
N491 Co482 2.057 . S
N491 C492 1.316 . S
N491 C493 1.375 . S
C492 N491 1.316 . S
C492 N494 1.347 . S
C492 H503 0.931 . S
C493 N491 1.375 . S
C493 C495 1.350 . S
C493 H502 0.930 . S
N494 C492 1.347 . S
N494 C495 1.373 . S
C495 C493 1.350 . S
C495 N494 1.373 . S
C495 H509 0.931 . S
C496 O499 1.256 . S
C496 O500 1.255 . S
O497 Co480 2.021 . S
O497 C490 1.259 . S
O498 Co482 2.117 . S
O498 C490 1.258 . S
O499 Co482 2.020 . S
O499 C496 1.256 . S
O500 Co480 2.062 . S
O500 C496 1.255 . S
O501 C481 1.259 . S
O501 Co482 2.021 . S
H502 C493 0.930 . S
H503 C492 0.931 . S
O504 Co480 2.117 . S
O504 C481 1.258 . S
O505 Co480 2.020 . S
O505 C507 1.256 . S
O506 Co482 2.062 . S
O506 C507 1.255 . S
C507 O505 1.256 . S
C507 O506 1.255 . S
H508 C487 0.931 . S
H509 C495 0.931 . S
Co510 N515 2.057 . S
Co510 O527 2.021 . S
Co510 O530 2.062 . S
Co510 O534 2.117 . S
Co510 O535 2.020 . S
C511 O531 1.259 . S
C511 O534 1.258 . S
Co512 N521 2.057 . S
Co512 O528 2.117 . S
Co512 O529 2.020 . S
Co512 O531 2.021 . S
Co512 O536 2.062 . S
C513 N515 1.316 . S
C513 N516 1.347 . S
C513 H518 0.931 . S
C514 N515 1.375 . S
C514 C517 1.350 . S
C514 H519 0.930 . S
N515 Co510 2.057 . S
N515 C513 1.316 . S
N515 C514 1.375 . S
N516 C513 1.347 . S
N516 C517 1.373 . S
C517 C514 1.350 . S
C517 N516 1.373 . S
C517 H538 0.931 . S
H518 C513 0.931 . S
H519 C514 0.930 . S
C520 O527 1.259 . S
C520 O528 1.258 . S
N521 Co512 2.057 . S
N521 C522 1.316 . S
N521 C523 1.375 . S
C522 N521 1.316 . S
C522 N524 1.347 . S
C522 H533 0.931 . S
C523 N521 1.375 . S
C523 C525 1.350 . S
C523 H532 0.930 . S
N524 C522 1.347 . S
N524 C525 1.373 . S
C525 C523 1.350 . S
C525 N524 1.373 . S
C525 H539 0.931 . S
C526 O529 1.256 . S
C526 O530 1.255 . S
O527 Co510 2.021 . S
O527 C520 1.259 . S
O528 Co512 2.117 . S
O528 C520 1.258 . S
O529 Co512 2.020 . S
O529 C526 1.256 . S
O530 Co510 2.062 . S
O530 C526 1.255 . S
O531 C511 1.259 . S
O531 Co512 2.021 . S
H532 C523 0.930 . S
H533 C522 0.931 . S
O534 Co510 2.117 . S
O534 C511 1.258 . S
O535 Co510 2.020 . S
O535 C537 1.256 . S
O536 Co512 2.062 . S
O536 C537 1.255 . S
C537 O535 1.256 . S
C537 O536 1.255 . S
H538 C517 0.931 . S
H539 C525 0.931 . S
Co540 N545 2.057 . S
Co540 O557 2.021 . S
Co540 O560 2.062 . S
Co540 O564 2.117 . S
Co540 O565 2.020 . S
C541 O561 1.259 . S
C541 O564 1.258 . S
Co542 N551 2.057 . S
Co542 O558 2.117 . S
Co542 O559 2.020 . S
Co542 O561 2.021 . S
Co542 O566 2.062 . S
C543 N545 1.316 . S
C543 N546 1.347 . S
C543 H548 0.931 . S
C544 N545 1.375 . S
C544 C547 1.350 . S
C544 H549 0.930 . S
N545 Co540 2.057 . S
N545 C543 1.316 . S
N545 C544 1.375 . S
N546 C543 1.347 . S
N546 C547 1.373 . S
C547 C544 1.350 . S
C547 N546 1.373 . S
C547 H568 0.931 . S
H548 C543 0.931 . S
H549 C544 0.930 . S
C550 O557 1.259 . S
C550 O558 1.258 . S
N551 Co542 2.057 . S
N551 C552 1.316 . S
N551 C553 1.375 . S
C552 N551 1.316 . S
C552 N554 1.347 . S
C552 H563 0.931 . S
C553 N551 1.375 . S
C553 C555 1.350 . S
C553 H562 0.930 . S
N554 C552 1.347 . S
N554 C555 1.373 . S
C555 C553 1.350 . S
C555 N554 1.373 . S
C555 H569 0.931 . S
C556 O559 1.256 . S
C556 O560 1.255 . S
O557 Co540 2.021 . S
O557 C550 1.259 . S
O558 Co542 2.117 . S
O558 C550 1.258 . S
O559 Co542 2.020 . S
O559 C556 1.256 . S
O560 Co540 2.062 . S
O560 C556 1.255 . S
O561 C541 1.259 . S
O561 Co542 2.021 . S
H562 C553 0.930 . S
H563 C552 0.931 . S
O564 Co540 2.117 . S
O564 C541 1.258 . S
O565 Co540 2.020 . S
O565 C567 1.256 . S
O566 Co542 2.062 . S
O566 C567 1.255 . S
C567 O565 1.256 . S
C567 O566 1.255 . S
H568 C547 0.931 . S
H569 C555 0.931 . S
Co570 N575 2.057 . S
Co570 O587 2.021 . S
Co570 O590 2.062 . S
Co570 O594 2.117 . S
Co570 O595 2.020 . S
C571 O591 1.259 . S
C571 O594 1.258 . S
Co572 N581 2.057 . S
Co572 O588 2.117 . S
Co572 O589 2.020 . S
Co572 O591 2.021 . S
Co572 O596 2.062 . S
C573 N575 1.316 . S
C573 N576 1.347 . S
C573 H578 0.931 . S
C574 N575 1.375 . S
C574 C577 1.350 . S
C574 H579 0.930 . S
N575 Co570 2.057 . S
N575 C573 1.316 . S
N575 C574 1.375 . S
N576 C573 1.347 . S
N576 C577 1.373 . S
C577 C574 1.350 . S
C577 N576 1.373 . S
C577 H598 0.931 . S
H578 C573 0.931 . S
H579 C574 0.930 . S
C580 O587 1.259 . S
C580 O588 1.258 . S
N581 Co572 2.057 . S
N581 C582 1.316 . S
N581 C583 1.375 . S
C582 N581 1.316 . S
C582 N584 1.347 . S
C582 H593 0.931 . S
C583 N581 1.375 . S
C583 C585 1.350 . S
C583 H592 0.930 . S
N584 C582 1.347 . S
N584 C585 1.373 . S
C585 C583 1.350 . S
C585 N584 1.373 . S
C585 H599 0.931 . S
C586 O589 1.256 . S
C586 O590 1.255 . S
O587 Co570 2.021 . S
O587 C580 1.259 . S
O588 Co572 2.117 . S
O588 C580 1.258 . S
O589 Co572 2.020 . S
O589 C586 1.256 . S
O590 Co570 2.062 . S
O590 C586 1.255 . S
O591 C571 1.259 . S
O591 Co572 2.021 . S
H592 C583 0.930 . S
H593 C582 0.931 . S
O594 Co570 2.117 . S
O594 C571 1.258 . S
O595 Co570 2.020 . S
O595 C597 1.256 . S
O596 Co572 2.062 . S
O596 C597 1.255 . S
C597 O595 1.256 . S
C597 O596 1.255 . S
H598 C577 0.931 . S
H599 C585 0.931 . S
Co600 N605 2.057 . S
Co600 O617 2.021 . S
Co600 O620 2.062 . S
Co600 O624 2.117 . S
Co600 O625 2.020 . S
C601 O621 1.259 . S
C601 O624 1.258 . S
Co602 N611 2.057 . S
Co602 O618 2.117 . S
Co602 O619 2.020 . S
Co602 O621 2.021 . S
Co602 O626 2.062 . S
C603 N605 1.316 . S
C603 N606 1.347 . S
C603 H608 0.931 . S
C604 N605 1.375 . S
C604 C607 1.350 . S
C604 H609 0.930 . S
N605 Co600 2.057 . S
N605 C603 1.316 . S
N605 C604 1.375 . S
N606 C603 1.347 . S
N606 C607 1.373 . S
C607 C604 1.350 . S
C607 N606 1.373 . S
C607 H628 0.931 . S
H608 C603 0.931 . S
H609 C604 0.930 . S
C610 O617 1.259 . S
C610 O618 1.258 . S
N611 Co602 2.057 . S
N611 C612 1.316 . S
N611 C613 1.375 . S
C612 N611 1.316 . S
C612 N614 1.347 . S
C612 H623 0.931 . S
C613 N611 1.375 . S
C613 C615 1.350 . S
C613 H622 0.930 . S
N614 C612 1.347 . S
N614 C615 1.373 . S
C615 C613 1.350 . S
C615 N614 1.373 . S
C615 H629 0.931 . S
C616 O619 1.256 . S
C616 O620 1.255 . S
O617 Co600 2.021 . S
O617 C610 1.259 . S
O618 Co602 2.117 . S
O618 C610 1.258 . S
O619 Co602 2.020 . S
O619 C616 1.256 . S
O620 Co600 2.062 . S
O620 C616 1.255 . S
O621 C601 1.259 . S
O621 Co602 2.021 . S
H622 C613 0.930 . S
H623 C612 0.931 . S
O624 Co600 2.117 . S
O624 C601 1.258 . S
O625 Co600 2.020 . S
O625 C627 1.256 . S
O626 Co602 2.062 . S
O626 C627 1.255 . S
C627 O625 1.256 . S
C627 O626 1.255 . S
H628 C607 0.931 . S
H629 C615 0.931 . S
Co630 N635 2.057 . S
Co630 O647 2.021 . S
Co630 O650 2.062 . S
Co630 O654 2.117 . S
Co630 O655 2.020 . S
C631 O651 1.259 . S
C631 O654 1.258 . S
Co632 N641 2.057 . S
Co632 O648 2.117 . S
Co632 O649 2.020 . S
Co632 O651 2.021 . S
Co632 O656 2.062 . S
C633 N635 1.316 . S
C633 N636 1.347 . S
C633 H638 0.931 . S
C634 N635 1.375 . S
C634 C637 1.350 . S
C634 H639 0.930 . S
N635 Co630 2.057 . S
N635 C633 1.316 . S
N635 C634 1.375 . S
N636 C633 1.347 . S
N636 C637 1.373 . S
C637 C634 1.350 . S
C637 N636 1.373 . S
C637 H658 0.931 . S
H638 C633 0.931 . S
H639 C634 0.930 . S
C640 O647 1.259 . S
C640 O648 1.258 . S
N641 Co632 2.057 . S
N641 C642 1.316 . S
N641 C643 1.375 . S
C642 N641 1.316 . S
C642 N644 1.347 . S
C642 H653 0.931 . S
C643 N641 1.375 . S
C643 C645 1.350 . S
C643 H652 0.930 . S
N644 C642 1.347 . S
N644 C645 1.373 . S
C645 C643 1.350 . S
C645 N644 1.373 . S
C645 H659 0.931 1_556 S
C646 O649 1.256 . S
C646 O650 1.255 . S
O647 Co630 2.021 . S
O647 C640 1.259 . S
O648 Co632 2.117 . S
O648 C640 1.258 . S
O649 Co632 2.020 . S
O649 C646 1.256 . S
O650 Co630 2.062 . S
O650 C646 1.255 . S
O651 C631 1.259 . S
O651 Co632 2.021 . S
H652 C643 0.930 . S
H653 C642 0.931 . S
O654 Co630 2.117 . S
O654 C631 1.258 . S
O655 Co630 2.020 . S
O655 C657 1.256 . S
O656 Co632 2.062 . S
O656 C657 1.255 . S
C657 O655 1.256 . S
C657 O656 1.255 . S
H658 C637 0.931 . S
H659 C645 0.931 1_554 S
Co660 N665 2.057 . S
Co660 O677 2.021 . S
Co660 O680 2.062 . S
Co660 O684 2.117 . S
Co660 O685 2.020 . S
C661 O681 1.259 . S
C661 O684 1.258 . S
Co662 N671 2.057 . S
Co662 O678 2.117 . S
Co662 O679 2.020 . S
Co662 O681 2.021 . S
Co662 O686 2.062 . S
C663 N665 1.316 . S
C663 N666 1.347 . S
C663 H668 0.931 . S
C664 N665 1.375 . S
C664 C667 1.350 . S
C664 H669 0.930 . S
N665 Co660 2.057 . S
N665 C663 1.316 . S
N665 C664 1.375 . S
N666 C663 1.347 . S
N666 C667 1.373 . S
C667 C664 1.350 . S
C667 N666 1.373 . S
C667 H688 0.931 . S
H668 C663 0.931 . S
H669 C664 0.930 . S
C670 O677 1.259 . S
C670 O678 1.258 . S
N671 Co662 2.057 . S
N671 C672 1.316 . S
N671 C673 1.375 . S
C672 N671 1.316 . S
C672 N674 1.347 . S
C672 H683 0.931 . S
C673 N671 1.375 . S
C673 C675 1.350 . S
C673 H682 0.930 . S
N674 C672 1.347 . S
N674 C675 1.373 . S
C675 C673 1.350 . S
C675 N674 1.373 . S
C675 H689 0.931 . S
C676 O679 1.256 . S
C676 O680 1.255 . S
O677 Co660 2.021 . S
O677 C670 1.259 . S
O678 Co662 2.117 . S
O678 C670 1.258 . S
O679 Co662 2.020 . S
O679 C676 1.256 . S
O680 Co660 2.062 . S
O680 C676 1.255 . S
O681 C661 1.259 . S
O681 Co662 2.021 . S
H682 C673 0.930 . S
H683 C672 0.931 . S
O684 Co660 2.117 . S
O684 C661 1.258 . S
O685 Co660 2.020 . S
O685 C687 1.256 . S
O686 Co662 2.062 . S
O686 C687 1.255 . S
C687 O685 1.256 . S
C687 O686 1.255 . S
H688 C667 0.931 . S
H689 C675 0.931 . S
Co690 N695 2.057 . S
Co690 O707 2.021 . S
Co690 O710 2.062 . S
Co690 O714 2.117 . S
Co690 O715 2.020 . S
C691 O711 1.259 . S
C691 O714 1.258 . S
Co692 N701 2.057 . S
Co692 O708 2.117 . S
Co692 O709 2.020 . S
Co692 O711 2.021 . S
Co692 O716 2.062 . S
C693 N695 1.316 . S
C693 N696 1.347 . S
C693 H698 0.931 . S
C694 N695 1.375 . S
C694 C697 1.350 . S
C694 H699 0.930 . S
N695 Co690 2.057 . S
N695 C693 1.316 . S
N695 C694 1.375 . S
N696 C693 1.347 . S
N696 C697 1.373 . S
C697 C694 1.350 . S
C697 N696 1.373 . S
C697 H718 0.931 . S
H698 C693 0.931 . S
H699 C694 0.930 . S
C700 O707 1.259 . S
C700 O708 1.258 . S
N701 Co692 2.057 . S
N701 C702 1.316 . S
N701 C703 1.375 . S
C702 N701 1.316 . S
C702 N704 1.347 . S
C702 H713 0.931 . S
C703 N701 1.375 . S
C703 C705 1.350 . S
C703 H712 0.930 . S
N704 C702 1.347 . S
N704 C705 1.373 . S
C705 C703 1.350 . S
C705 N704 1.373 . S
C705 H719 0.931 . S
C706 O709 1.256 . S
C706 O710 1.255 . S
O707 Co690 2.021 . S
O707 C700 1.259 . S
O708 Co692 2.117 . S
O708 C700 1.258 . S
O709 Co692 2.020 . S
O709 C706 1.256 . S
O710 Co690 2.062 . S
O710 C706 1.255 . S
O711 C691 1.259 . S
O711 Co692 2.021 . S
H712 C703 0.930 . S
H713 C702 0.931 . S
O714 Co690 2.117 . S
O714 C691 1.258 . S
O715 Co690 2.020 . S
O715 C717 1.256 . S
O716 Co692 2.062 . S
O716 C717 1.255 . S
C717 O715 1.256 . S
C717 O716 1.255 . S
H718 C697 0.931 . S
H719 C705 0.931 . S
Co720 N725 2.057 . S
Co720 O737 2.021 . S
Co720 O740 2.062 . S
Co720 O744 2.117 . S
Co720 O745 2.020 . S
C721 O741 1.259 . S
C721 O744 1.258 . S
Co722 N731 2.057 . S
Co722 O738 2.117 . S
Co722 O739 2.020 . S
Co722 O741 2.021 . S
Co722 O746 2.062 . S
C723 N725 1.316 . S
C723 N726 1.347 . S
C723 H728 0.931 . S
C724 N725 1.375 . S
C724 C727 1.350 . S
C724 H729 0.930 . S
N725 Co720 2.057 . S
N725 C723 1.316 . S
N725 C724 1.375 . S
N726 C723 1.347 . S
N726 C727 1.373 . S
C727 C724 1.350 . S
C727 N726 1.373 . S
C727 H748 0.931 . S
H728 C723 0.931 . S
H729 C724 0.930 . S
C730 O737 1.259 . S
C730 O738 1.258 . S
N731 Co722 2.057 . S
N731 C732 1.316 . S
N731 C733 1.375 . S
C732 N731 1.316 . S
C732 N734 1.347 . S
C732 H743 0.931 . S
C733 N731 1.375 . S
C733 C735 1.350 . S
C733 H742 0.930 . S
N734 C732 1.347 . S
N734 C735 1.373 . S
C735 C733 1.350 . S
C735 N734 1.373 . S
C735 H749 0.931 . S
C736 O739 1.256 . S
C736 O740 1.255 . S
O737 Co720 2.021 . S
O737 C730 1.259 . S
O738 Co722 2.117 . S
O738 C730 1.258 . S
O739 Co722 2.020 . S
O739 C736 1.256 . S
O740 Co720 2.062 . S
O740 C736 1.255 . S
O741 C721 1.259 . S
O741 Co722 2.021 . S
H742 C733 0.930 . S
H743 C732 0.931 . S
O744 Co720 2.117 . S
O744 C721 1.258 . S
O745 Co720 2.020 . S
O745 C747 1.256 . S
O746 Co722 2.062 . S
O746 C747 1.255 . S
C747 O745 1.256 . S
C747 O746 1.255 . S
H748 C727 0.931 . S
H749 C735 0.931 . S
Co750 N755 2.057 . S
Co750 O767 2.021 . S
Co750 O770 2.062 . S
Co750 O774 2.117 . S
Co750 O775 2.020 . S
C751 O771 1.259 . S
C751 O774 1.258 . S
Co752 N761 2.057 . S
Co752 O768 2.117 . S
Co752 O769 2.020 . S
Co752 O771 2.021 . S
Co752 O776 2.062 . S
C753 N755 1.316 . S
C753 N756 1.347 . S
C753 H758 0.931 . S
C754 N755 1.375 . S
C754 C757 1.350 . S
C754 H759 0.930 . S
N755 Co750 2.057 . S
N755 C753 1.316 . S
N755 C754 1.375 . S
N756 C753 1.347 . S
N756 C757 1.373 . S
C757 C754 1.350 . S
C757 N756 1.373 . S
C757 H778 0.931 . S
H758 C753 0.931 . S
H759 C754 0.930 . S
C760 O767 1.259 . S
C760 O768 1.258 . S
N761 Co752 2.057 . S
N761 C762 1.316 . S
N761 C763 1.375 . S
C762 N761 1.316 . S
C762 N764 1.347 . S
C762 H773 0.931 . S
C763 N761 1.375 . S
C763 C765 1.350 . S
C763 H772 0.930 . S
N764 C762 1.347 . S
N764 C765 1.373 . S
C765 C763 1.350 . S
C765 N764 1.373 . S
C765 H779 0.931 . S
C766 O769 1.256 . S
C766 O770 1.255 . S
O767 Co750 2.021 . S
O767 C760 1.259 . S
O768 Co752 2.117 . S
O768 C760 1.258 . S
O769 Co752 2.020 . S
O769 C766 1.256 . S
O770 Co750 2.062 . S
O770 C766 1.255 . S
O771 C751 1.259 . S
O771 Co752 2.021 . S
H772 C763 0.930 . S
H773 C762 0.931 . S
O774 Co750 2.117 . S
O774 C751 1.258 . S
O775 Co750 2.020 . S
O775 C777 1.256 . S
O776 Co752 2.062 . S
O776 C777 1.255 . S
C777 O775 1.256 . S
C777 O776 1.255 . S
H778 C757 0.931 . S
H779 C765 0.931 . S
Co780 N785 2.057 . S
Co780 O797 2.021 . S
Co780 O800 2.062 . S
Co780 O804 2.117 . S
Co780 O805 2.020 . S
C781 O801 1.259 . S
C781 O804 1.258 . S
Co782 N791 2.057 . S
Co782 O798 2.117 . S
Co782 O799 2.020 . S
Co782 O801 2.021 . S
Co782 O806 2.062 . S
C783 N785 1.316 . S
C783 N786 1.347 . S
C783 H788 0.931 . S
C784 N785 1.375 . S
C784 C787 1.350 . S
C784 H789 0.930 . S
N785 Co780 2.057 . S
N785 C783 1.316 . S
N785 C784 1.375 . S
N786 C783 1.347 . S
N786 C787 1.373 . S
C787 C784 1.350 . S
C787 N786 1.373 . S
C787 H808 0.931 . S
H788 C783 0.931 . S
H789 C784 0.930 . S
C790 O797 1.259 . S
C790 O798 1.258 . S
N791 Co782 2.057 . S
N791 C792 1.316 . S
N791 C793 1.375 . S
C792 N791 1.316 . S
C792 N794 1.347 . S
C792 H803 0.931 . S
C793 N791 1.375 . S
C793 C795 1.350 . S
C793 H802 0.930 . S
N794 C792 1.347 . S
N794 C795 1.373 . S
C795 C793 1.350 . S
C795 N794 1.373 . S
C795 H809 0.931 . S
C796 O799 1.256 . S
C796 O800 1.255 . S
O797 Co780 2.021 . S
O797 C790 1.259 . S
O798 Co782 2.117 . S
O798 C790 1.258 . S
O799 Co782 2.020 . S
O799 C796 1.256 . S
O800 Co780 2.062 . S
O800 C796 1.255 . S
O801 C781 1.259 . S
O801 Co782 2.021 . S
H802 C793 0.930 . S
H803 C792 0.931 . S
O804 Co780 2.117 . S
O804 C781 1.258 . S
O805 Co780 2.020 . S
O805 C807 1.256 . S
O806 Co782 2.062 . S
O806 C807 1.255 . S
C807 O805 1.256 . S
C807 O806 1.255 . S
H808 C787 0.931 . S
H809 C795 0.931 . S
Co810 N815 2.057 . S
Co810 O827 2.021 . S
Co810 O830 2.062 . S
Co810 O834 2.117 . S
Co810 O835 2.020 . S
C811 O831 1.259 . S
C811 O834 1.258 . S
Co812 N821 2.057 . S
Co812 O828 2.117 . S
Co812 O829 2.020 . S
Co812 O831 2.021 . S
Co812 O836 2.062 . S
C813 N815 1.316 . S
C813 N816 1.347 . S
C813 H818 0.931 . S
C814 N815 1.375 . S
C814 C817 1.350 . S
C814 H819 0.930 . S
N815 Co810 2.057 . S
N815 C813 1.316 . S
N815 C814 1.375 . S
N816 C813 1.347 . S
N816 C817 1.373 . S
C817 C814 1.350 . S
C817 N816 1.373 . S
C817 H838 0.931 . S
H818 C813 0.931 . S
H819 C814 0.930 . S
C820 O827 1.259 . S
C820 O828 1.258 . S
N821 Co812 2.057 . S
N821 C822 1.316 . S
N821 C823 1.375 . S
C822 N821 1.316 . S
C822 N824 1.347 . S
C822 H833 0.931 . S
C823 N821 1.375 . S
C823 C825 1.350 . S
C823 H832 0.930 . S
N824 C822 1.347 . S
N824 C825 1.373 . S
C825 C823 1.350 . S
C825 N824 1.373 . S
C825 H839 0.931 . S
C826 O829 1.256 . S
C826 O830 1.255 . S
O827 Co810 2.021 . S
O827 C820 1.259 . S
O828 Co812 2.117 . S
O828 C820 1.258 . S
O829 Co812 2.020 . S
O829 C826 1.256 . S
O830 Co810 2.062 . S
O830 C826 1.255 . S
O831 C811 1.259 . S
O831 Co812 2.021 . S
H832 C823 0.930 . S
H833 C822 0.931 . S
O834 Co810 2.117 . S
O834 C811 1.258 . S
O835 Co810 2.020 . S
O835 C837 1.256 . S
O836 Co812 2.062 . S
O836 C837 1.255 . S
C837 O835 1.256 . S
C837 O836 1.255 . S
H838 C817 0.931 . S
H839 C825 0.931 . S
Co840 N845 2.057 . S
Co840 O857 2.021 . S
Co840 O860 2.062 . S
Co840 O864 2.117 . S
Co840 O865 2.020 . S
C841 O861 1.259 . S
C841 O864 1.258 . S
Co842 N851 2.057 . S
Co842 O858 2.117 . S
Co842 O859 2.020 . S
Co842 O861 2.021 . S
Co842 O866 2.062 . S
C843 N845 1.316 . S
C843 N846 1.347 . S
C843 H848 0.931 . S
C844 N845 1.375 . S
C844 C847 1.350 . S
C844 H849 0.930 . S
N845 Co840 2.057 . S
N845 C843 1.316 . S
N845 C844 1.375 . S
N846 C843 1.347 . S
N846 C847 1.373 . S
C847 C844 1.350 . S
C847 N846 1.373 . S
C847 H868 0.931 . S
H848 C843 0.931 . S
H849 C844 0.930 . S
C850 O857 1.259 . S
C850 O858 1.258 . S
N851 Co842 2.057 . S
N851 C852 1.316 . S
N851 C853 1.375 . S
C852 N851 1.316 . S
C852 N854 1.347 . S
C852 H863 0.931 . S
C853 N851 1.375 . S
C853 C855 1.350 . S
C853 H862 0.930 . S
N854 C852 1.347 . S
N854 C855 1.373 . S
C855 C853 1.350 . S
C855 N854 1.373 . S
C855 H869 0.931 . S
C856 O859 1.256 . S
C856 O860 1.255 . S
O857 Co840 2.021 . S
O857 C850 1.259 . S
O858 Co842 2.117 . S
O858 C850 1.258 . S
O859 Co842 2.020 . S
O859 C856 1.256 . S
O860 Co840 2.062 . S
O860 C856 1.255 . S
O861 C841 1.259 . S
O861 Co842 2.021 . S
H862 C853 0.930 . S
H863 C852 0.931 . S
O864 Co840 2.117 . S
O864 C841 1.258 . S
O865 Co840 2.020 . S
O865 C867 1.256 . S
O866 Co842 2.062 . S
O866 C867 1.255 . S
C867 O865 1.256 . S
C867 O866 1.255 . S
H868 C847 0.931 . S
H869 C855 0.931 . S
Co870 N875 2.057 . S
Co870 O887 2.021 . S
Co870 O890 2.062 . S
Co870 O894 2.117 . S
Co870 O895 2.020 . S
C871 O891 1.259 . S
C871 O894 1.258 . S
Co872 N881 2.057 . S
Co872 O888 2.117 . S
Co872 O889 2.020 . S
Co872 O891 2.021 . S
Co872 O896 2.062 . S
C873 N875 1.316 . S
C873 N876 1.347 . S
C873 H878 0.931 . S
C874 N875 1.375 . S
C874 C877 1.350 . S
C874 H879 0.930 . S
N875 Co870 2.057 . S
N875 C873 1.316 . S
N875 C874 1.375 . S
N876 C873 1.347 . S
N876 C877 1.373 . S
C877 C874 1.350 . S
C877 N876 1.373 . S
C877 H898 0.931 1_554 S
H878 C873 0.931 . S
H879 C874 0.930 . S
C880 O887 1.259 . S
C880 O888 1.258 . S
N881 Co872 2.057 . S
N881 C882 1.316 . S
N881 C883 1.375 . S
C882 N881 1.316 . S
C882 N884 1.347 . S
C882 H893 0.931 . S
C883 N881 1.375 . S
C883 C885 1.350 . S
C883 H892 0.930 . S
N884 C882 1.347 . S
N884 C885 1.373 . S
C885 C883 1.350 . S
C885 N884 1.373 . S
C885 H899 0.931 . S
C886 O889 1.256 . S
C886 O890 1.255 . S
O887 Co870 2.021 . S
O887 C880 1.259 . S
O888 Co872 2.117 . S
O888 C880 1.258 . S
O889 Co872 2.020 . S
O889 C886 1.256 . S
O890 Co870 2.062 . S
O890 C886 1.255 . S
O891 C871 1.259 . S
O891 Co872 2.021 . S
H892 C883 0.930 . S
H893 C882 0.931 . S
O894 Co870 2.117 . S
O894 C871 1.258 . S
O895 Co870 2.020 . S
O895 C897 1.256 . S
O896 Co872 2.062 . S
O896 C897 1.255 . S
C897 O895 1.256 . S
C897 O896 1.255 . S
H898 C877 0.931 1_556 S
H899 C885 0.931 . S
Co900 N905 2.057 . S
Co900 O917 2.021 . S
Co900 O920 2.062 . S
Co900 O924 2.117 . S
Co900 O925 2.020 . S
C901 O921 1.259 . S
C901 O924 1.258 . S
Co902 N911 2.057 . S
Co902 O918 2.117 . S
Co902 O919 2.020 . S
Co902 O921 2.021 . S
Co902 O926 2.062 . S
C903 N905 1.316 . S
C903 N906 1.347 . S
C903 H908 0.931 . S
C904 N905 1.375 . S
C904 C907 1.350 . S
C904 H909 0.930 . S
N905 Co900 2.057 . S
N905 C903 1.316 . S
N905 C904 1.375 . S
N906 C903 1.347 . S
N906 C907 1.373 . S
C907 C904 1.350 . S
C907 N906 1.373 . S
C907 H928 0.931 . S
H908 C903 0.931 . S
H909 C904 0.930 . S
C910 O917 1.259 . S
C910 O918 1.258 . S
N911 Co902 2.057 . S
N911 C912 1.316 . S
N911 C913 1.375 . S
C912 N911 1.316 . S
C912 N914 1.347 . S
C912 H923 0.931 . S
C913 N911 1.375 . S
C913 C915 1.350 . S
C913 H922 0.930 . S
N914 C912 1.347 . S
N914 C915 1.373 . S
C915 C913 1.350 . S
C915 N914 1.373 . S
C915 H929 0.931 . S
C916 O919 1.256 . S
C916 O920 1.255 . S
O917 Co900 2.021 . S
O917 C910 1.259 . S
O918 Co902 2.117 . S
O918 C910 1.258 . S
O919 Co902 2.020 . S
O919 C916 1.256 . S
O920 Co900 2.062 . S
O920 C916 1.255 . S
O921 C901 1.259 . S
O921 Co902 2.021 . S
H922 C913 0.930 . S
H923 C912 0.931 . S
O924 Co900 2.117 . S
O924 C901 1.258 . S
O925 Co900 2.020 . S
O925 C927 1.256 . S
O926 Co902 2.062 . S
O926 C927 1.255 . S
C927 O925 1.256 . S
C927 O926 1.255 . S
H928 C907 0.931 . S
H929 C915 0.931 . S
Co930 N935 2.057 . S
Co930 O947 2.021 . S
Co930 O950 2.062 . S
Co930 O954 2.117 . S
Co930 O955 2.020 . S
C931 O951 1.259 . S
C931 O954 1.258 . S
Co932 N941 2.057 . S
Co932 O948 2.117 . S
Co932 O949 2.020 . S
Co932 O951 2.021 . S
Co932 O956 2.062 . S
C933 N935 1.316 . S
C933 N936 1.347 . S
C933 H938 0.931 . S
C934 N935 1.375 . S
C934 C937 1.350 . S
C934 H939 0.930 . S
N935 Co930 2.057 . S
N935 C933 1.316 . S
N935 C934 1.375 . S
N936 C933 1.347 . S
N936 C937 1.373 . S
C937 C934 1.350 . S
C937 N936 1.373 . S
C937 H958 0.931 . S
H938 C933 0.931 . S
H939 C934 0.930 . S
C940 O947 1.259 . S
C940 O948 1.258 . S
N941 Co932 2.057 . S
N941 C942 1.316 . S
N941 C943 1.375 . S
C942 N941 1.316 . S
C942 N944 1.347 . S
C942 H953 0.931 . S
C943 N941 1.375 . S
C943 C945 1.350 . S
C943 H952 0.930 . S
N944 C942 1.347 . S
N944 C945 1.373 . S
C945 C943 1.350 . S
C945 N944 1.373 . S
C945 H959 0.931 . S
C946 O949 1.256 . S
C946 O950 1.255 . S
O947 Co930 2.021 . S
O947 C940 1.259 . S
O948 Co932 2.117 . S
O948 C940 1.258 . S
O949 Co932 2.020 . S
O949 C946 1.256 . S
O950 Co930 2.062 . S
O950 C946 1.255 . S
O951 C931 1.259 . S
O951 Co932 2.021 . S
H952 C943 0.930 . S
H953 C942 0.931 . S
O954 Co930 2.117 . S
O954 C931 1.258 . S
O955 Co930 2.020 . S
O955 C957 1.256 . S
O956 Co932 2.062 . S
O956 C957 1.255 . S
C957 O955 1.256 . S
C957 O956 1.255 . S
H958 C937 0.931 . S
H959 C945 0.931 . S
C960 C961 1.369 . S
C960 C962 1.419 . S
C960 H964 0.930 . S
C961 C960 1.369 . S
C961 C970 1.429 . S
C962 C960 1.419 . S
C962 C963 1.363 . S
C962 H965 0.929 . S
C963 C962 1.363 . S
C963 C969 1.428 . S
H964 C960 0.930 . S
H965 C962 0.929 . S
S966 N967 1.613 . S
S966 N968 1.610 . S
N967 S966 1.613 . S
N967 C970 1.350 . S
N968 S966 1.610 . S
N968 C969 1.351 . S
C969 C963 1.428 . S
C969 N968 1.351 . S
C969 C970 1.434 . S
C970 C961 1.429 . S
C970 N967 1.350 . S
C970 C969 1.434 . S
C971 C972 1.369 . S
C971 C973 1.419 . S
C971 H975 0.930 . S
C972 C971 1.369 . S
C972 C981 1.429 . S
C973 C971 1.419 . S
C973 C974 1.363 1_455 S
C973 H976 0.929 . S
C974 C973 1.363 1_655 S
C974 C980 1.428 . S
H975 C971 0.930 . S
H976 C973 0.929 . S
S977 N978 1.613 . S
S977 N979 1.610 . S
N978 S977 1.613 . S
N978 C981 1.350 1_655 S
N979 S977 1.610 . S
N979 C980 1.351 . S
C980 C974 1.428 . S
C980 N979 1.351 . S
C980 C981 1.434 1_655 S
C981 C972 1.429 . S
C981 N978 1.350 1_455 S
C981 C980 1.434 1_455 S
C982 C983 1.369 . S
C982 C984 1.419 . S
C982 H986 0.930 . S
C983 C982 1.369 . S
C983 C992 1.429 . S
C984 C982 1.419 . S
C984 C985 1.363 . S
C984 H987 0.929 . S
C985 C984 1.363 . S
C985 C991 1.428 . S
H986 C982 0.930 . S
H987 C984 0.929 . S
S988 N989 1.613 . S
S988 N990 1.610 . S
N989 S988 1.613 . S
N989 C992 1.350 . S
N990 S988 1.610 . S
N990 C991 1.351 . S
C991 C985 1.428 . S
C991 N990 1.351 . S
C991 C992 1.434 . S
C992 C983 1.429 . S
C992 N989 1.350 . S
C992 C991 1.434 . S
C993 C994 1.369 1_545 S
C993 C995 1.419 . S
C993 H997 0.930 . S
C994 C993 1.369 1_565 S
C994 C1003 1.429 . S
C995 C993 1.419 . S
C995 C996 1.363 . S
C995 H998 0.929 . S
C996 C995 1.363 . S
C996 C1002 1.428 . S
H997 C993 0.930 . S
H998 C995 0.929 . S
S999 N1000 1.613 . S
S999 N1001 1.610 1_565 S
N1000 S999 1.613 . S
N1000 C1003 1.350 . S
N1001 S999 1.610 1_545 S
N1001 C1002 1.351 . S
C1002 C996 1.428 . S
C1002 N1001 1.351 . S
C1002 C1003 1.434 1_545 S
C1003 C994 1.429 . S
C1003 N1000 1.350 . S
C1003 C1002 1.434 1_565 S
C1004 C1005 1.369 . S
C1004 C1006 1.419 . S
C1004 H1008 0.930 . S
C1005 C1004 1.369 . S
C1005 C1014 1.429 . S
C1006 C1004 1.419 . S
C1006 C1007 1.363 . S
C1006 H1009 0.929 . S
C1007 C1006 1.363 . S
C1007 C1013 1.428 . S
H1008 C1004 0.930 . S
H1009 C1006 0.929 . S
S1010 N1011 1.613 . S
S1010 N1012 1.610 . S
N1011 S1010 1.613 . S
N1011 C1014 1.350 . S
N1012 S1010 1.610 . S
N1012 C1013 1.351 . S
C1013 C1007 1.428 . S
C1013 N1012 1.351 . S
C1013 C1014 1.434 . S
C1014 C1005 1.429 . S
C1014 N1011 1.350 . S
C1014 C1013 1.434 . S
C1015 C1016 1.369 1_565 S
C1015 C1017 1.419 . S
C1015 H1019 0.930 1_565 S
C1016 C1015 1.369 1_545 S
C1016 C1025 1.429 1_545 S
C1017 C1015 1.419 . S
C1017 C1018 1.363 . S
C1017 H1020 0.929 . S
C1018 C1017 1.363 . S
C1018 C1024 1.428 . S
H1019 C1015 0.930 1_545 S
H1020 C1017 0.929 . S
S1021 N1022 1.613 1_565 S
S1021 N1023 1.610 . S
N1022 S1021 1.613 1_545 S
N1022 C1025 1.350 1_545 S
N1023 S1021 1.610 . S
N1023 C1024 1.351 . S
C1024 C1018 1.428 . S
C1024 N1023 1.351 . S
C1024 C1025 1.434 . S
C1025 C1016 1.429 1_565 S
C1025 N1022 1.350 1_565 S
C1025 C1024 1.434 . S
C1026 C1027 1.369 . S
C1026 C1028 1.419 . S
C1026 H1030 0.930 . S
C1027 C1026 1.369 . S
C1027 C1036 1.429 . S
C1028 C1026 1.419 . S
C1028 C1029 1.363 . S
C1028 H1031 0.929 . S
C1029 C1028 1.363 . S
C1029 C1035 1.428 . S
H1030 C1026 0.930 . S
H1031 C1028 0.929 . S
S1032 N1033 1.613 . S
S1032 N1034 1.610 . S
N1033 S1032 1.613 . S
N1033 C1036 1.350 . S
N1034 S1032 1.610 . S
N1034 C1035 1.351 . S
C1035 C1029 1.428 . S
C1035 N1034 1.351 . S
C1035 C1036 1.434 . S
C1036 C1027 1.429 . S
C1036 N1033 1.350 . S
C1036 C1035 1.434 . S
C1037 C1038 1.369 . S
C1037 C1039 1.419 . S
C1037 H1041 0.930 . S
C1038 C1037 1.369 . S
C1038 C1047 1.429 . S
C1039 C1037 1.419 . S
C1039 C1040 1.363 1_455 S
C1039 H1042 0.929 . S
C1040 C1039 1.363 1_655 S
C1040 C1046 1.428 . S
H1041 C1037 0.930 . S
H1042 C1039 0.929 . S
S1043 N1044 1.613 . S
S1043 N1045 1.610 . S
N1044 S1043 1.613 . S
N1044 C1047 1.350 1_655 S
N1045 S1043 1.610 . S
N1045 C1046 1.351 . S
C1046 C1040 1.428 . S
C1046 N1045 1.351 . S
C1046 C1047 1.434 1_655 S
C1047 C1038 1.429 . S
C1047 N1044 1.350 1_455 S
C1047 C1046 1.434 1_455 S
C1048 C1049 1.369 . S
C1048 C1050 1.419 . S
C1048 H1052 0.930 . S
C1049 C1048 1.369 . S
C1049 C1058 1.429 . S
C1050 C1048 1.419 . S
C1050 C1051 1.363 . S
C1050 H1053 0.929 . S
C1051 C1050 1.363 . S
C1051 C1057 1.428 . S
H1052 C1048 0.930 . S
H1053 C1050 0.929 . S
S1054 N1055 1.613 . S
S1054 N1056 1.610 . S
N1055 S1054 1.613 . S
N1055 C1058 1.350 . S
N1056 S1054 1.610 . S
N1056 C1057 1.351 . S
C1057 C1051 1.428 . S
C1057 N1056 1.351 . S
C1057 C1058 1.434 . S
C1058 C1049 1.429 . S
C1058 N1055 1.350 . S
C1058 C1057 1.434 . S
C1059 C1060 1.369 . S
C1059 C1061 1.410 1_655 S
C1059 H1063 0.930 . S
C1060 C1059 1.369 . S
C1060 C1069 1.429 . S
C1061 C1059 1.410 1_455 S
C1061 C1062 1.365 . S
C1061 H1064 0.937 . S
C1062 C1061 1.365 . S
C1062 C1068 1.428 1_455 S
H1063 C1059 0.930 . S
H1064 C1061 0.937 . S
S1065 N1066 1.613 . S
S1065 N1067 1.610 . S
N1066 S1065 1.613 . S
N1066 C1069 1.350 . S
N1067 S1065 1.610 . S
N1067 C1068 1.351 . S
C1068 C1062 1.428 1_655 S
C1068 N1067 1.351 . S
C1068 C1069 1.434 . S
C1069 C1060 1.429 . S
C1069 N1066 1.350 . S
C1069 C1068 1.434 . S
C1070 C1071 1.369 . S
C1070 C1072 1.419 . S
C1070 H1074 0.930 . S
C1071 C1070 1.369 . S
C1071 C1080 1.429 . S
C1072 C1070 1.419 . S
C1072 C1073 1.363 . S
C1072 H1075 0.929 . S
C1073 C1072 1.363 . S
C1073 C1079 1.428 . S
H1074 C1070 0.930 . S
H1075 C1072 0.929 . S
S1076 N1077 1.613 . S
S1076 N1078 1.610 . S
N1077 S1076 1.613 . S
N1077 C1080 1.350 . S
N1078 S1076 1.610 . S
N1078 C1079 1.351 . S
C1079 C1073 1.428 . S
C1079 N1078 1.351 . S
C1079 C1080 1.434 . S
C1080 C1071 1.429 . S
C1080 N1077 1.350 . S
C1080 C1079 1.434 . S
C1081 C1082 1.369 . S
C1081 C1083 1.419 1_545 S
C1081 H1085 0.930 . S
C1082 C1081 1.369 . S
C1082 C1091 1.429 1_545 S
C1083 C1081 1.419 1_565 S
C1083 C1084 1.363 . S
C1083 H1086 0.929 . S
C1084 C1083 1.363 . S
C1084 C1090 1.428 . S
H1085 C1081 0.930 . S
H1086 C1083 0.929 . S
S1087 N1088 1.613 1_565 S
S1087 N1089 1.610 . S
N1088 S1087 1.613 1_545 S
N1088 C1091 1.350 1_545 S
N1089 S1087 1.610 . S
N1089 C1090 1.351 . S
C1090 C1084 1.428 . S
C1090 N1089 1.351 . S
C1090 C1091 1.434 . S
C1091 C1082 1.429 1_565 S
C1091 N1088 1.350 1_565 S
C1091 C1090 1.434 . S
C1092 C1093 1.369 . S
C1092 C1094 1.419 . S
C1092 H1096 0.930 . S
C1093 C1092 1.369 . S
C1093 C1102 1.429 . S
C1094 C1092 1.419 . S
C1094 C1095 1.363 . S
C1094 H1097 0.929 . S
C1095 C1094 1.363 . S
C1095 C1101 1.428 . S
H1096 C1092 0.930 . S
H1097 C1094 0.929 . S
S1098 N1099 1.613 . S
S1098 N1100 1.610 . S
N1099 S1098 1.613 . S
N1099 C1102 1.350 . S
N1100 S1098 1.610 . S
N1100 C1101 1.351 . S
C1101 C1095 1.428 . S
C1101 N1100 1.351 . S
C1101 C1102 1.434 . S
C1102 C1093 1.429 . S
C1102 N1099 1.350 . S
C1102 C1101 1.434 . S
C1103 C1104 1.369 . S
C1103 C1105 1.419 . S
C1103 H1107 0.930 . S
C1104 C1103 1.369 . S
C1104 C1113 1.429 . S
C1105 C1103 1.419 . S
C1105 C1106 1.363 1_545 S
C1105 H1108 0.929 . S
C1106 C1105 1.363 1_565 S
C1106 C1112 1.428 . S
H1107 C1103 0.930 . S
H1108 C1105 0.929 . S
S1109 N1110 1.613 1_565 S
S1109 N1111 1.610 . S
N1110 S1109 1.613 1_545 S
N1110 C1113 1.350 . S
N1111 S1109 1.610 . S
N1111 C1112 1.351 . S
C1112 C1106 1.428 . S
C1112 N1111 1.351 . S
C1112 C1113 1.434 1_565 S
C1113 C1104 1.429 . S
C1113 N1110 1.350 . S
C1113 C1112 1.434 1_545 S
C1114 C1115 1.369 . S
C1114 C1116 1.419 . S
C1114 H1118 0.930 . S
C1115 C1114 1.369 . S
C1115 C1124 1.429 . S
C1116 C1114 1.419 . S
C1116 C1117 1.363 . S
C1116 H1119 0.929 . S
C1117 C1116 1.363 . S
C1117 C1123 1.428 . S
H1118 C1114 0.930 . S
H1119 C1116 0.929 . S
S1120 N1121 1.613 . S
S1120 N1122 1.610 . S
N1121 S1120 1.613 . S
N1121 C1124 1.350 . S
N1122 S1120 1.610 . S
N1122 C1123 1.351 . S
C1123 C1117 1.428 . S
C1123 N1122 1.351 . S
C1123 C1124 1.434 . S
C1124 C1115 1.429 . S
C1124 N1121 1.350 . S
C1124 C1123 1.434 . S
C1125 C1126 1.367 1_655 S
C1125 C1127 1.430 . S
C1125 H1129 0.921 1_655 S
C1126 C1125 1.367 1_455 S
C1126 C1135 1.429 1_455 S
C1127 C1125 1.430 . S
C1127 C1128 1.363 . S
C1127 H1130 0.929 . S
C1128 C1127 1.363 . S
C1128 C1134 1.428 . S
H1129 C1125 0.921 1_455 S
H1130 C1127 0.929 . S
S1131 N1132 1.613 . S
S1131 N1133 1.610 . S
N1132 S1131 1.613 . S
N1132 C1135 1.350 . S
N1133 S1131 1.610 . S
N1133 C1134 1.351 . S
C1134 C1128 1.428 . S
C1134 N1133 1.351 . S
C1134 C1135 1.434 . S
C1135 C1126 1.429 1_655 S
C1135 N1132 1.350 . S
C1135 C1134 1.434 . S
C1136 C1137 1.369 . S
C1136 C1138 1.419 . S
C1136 H1140 0.930 . S
C1137 C1136 1.369 . S
C1137 C1146 1.429 . S
C1138 C1136 1.419 . S
C1138 C1139 1.363 . S
C1138 H1141 0.929 . S
C1139 C1138 1.363 . S
C1139 C1145 1.428 . S
H1140 C1136 0.930 . S
H1141 C1138 0.929 . S
S1142 N1143 1.613 . S
S1142 N1144 1.610 . S
N1143 S1142 1.613 . S
N1143 C1146 1.350 . S
N1144 S1142 1.610 . S
N1144 C1145 1.351 . S
C1145 C1139 1.428 . S
C1145 N1144 1.351 . S
C1145 C1146 1.434 . S
C1146 C1137 1.429 . S
C1146 N1143 1.350 . S
C1146 C1145 1.434 . S
C1147 C1148 1.369 . S
C1147 C1149 1.419 . S
C1147 H1151 0.930 . S
C1148 C1147 1.369 . S
C1148 C1157 1.429 . S
C1149 C1147 1.419 . S
C1149 C1150 1.363 . S
C1149 H1152 0.929 . S
C1150 C1149 1.363 . S
C1150 C1156 1.428 . S
H1151 C1147 0.930 . S
H1152 C1149 0.929 . S
S1153 N1154 1.613 . S
S1153 N1155 1.610 . S
N1154 S1153 1.613 . S
N1154 C1157 1.350 . S
N1155 S1153 1.610 . S
N1155 C1156 1.351 . S
C1156 C1150 1.428 . S
C1156 N1155 1.351 . S
C1156 C1157 1.434 . S
C1157 C1148 1.429 . S
C1157 N1154 1.350 . S
C1157 C1156 1.434 . S
C1158 C1159 1.369 . S
C1158 C1160 1.419 . S
C1158 H1162 0.930 . S
C1159 C1158 1.369 . S
C1159 C1168 1.429 . S
C1160 C1158 1.419 . S
C1160 C1161 1.363 . S
C1160 H1163 0.929 . S
C1161 C1160 1.363 . S
C1161 C1167 1.428 . S
H1162 C1158 0.930 . S
H1163 C1160 0.929 . S
S1164 N1165 1.613 . S
S1164 N1166 1.610 . S
N1165 S1164 1.613 . S
N1165 C1168 1.350 . S
N1166 S1164 1.610 . S
N1166 C1167 1.351 . S
C1167 C1161 1.428 . S
C1167 N1166 1.351 . S
C1167 C1168 1.434 . S
C1168 C1159 1.429 . S
C1168 N1165 1.350 . S
C1168 C1167 1.434 . S
C1169 C1170 1.369 1_455 S
C1169 C1171 1.419 . S
C1169 H1173 0.930 1_455 S
C1170 C1169 1.369 1_655 S
C1170 C1179 1.429 1_655 S
C1171 C1169 1.419 . S
C1171 C1172 1.363 . S
C1171 H1174 0.929 . S
C1172 C1171 1.363 . S
C1172 C1178 1.428 . S
H1173 C1169 0.930 1_655 S
H1174 C1171 0.929 . S
S1175 N1176 1.613 . S
S1175 N1177 1.610 . S
N1176 S1175 1.613 . S
N1176 C1179 1.350 . S
N1177 S1175 1.610 . S
N1177 C1178 1.351 . S
C1178 C1172 1.428 . S
C1178 N1177 1.351 . S
C1178 C1179 1.434 . S
C1179 C1170 1.429 1_455 S
C1179 N1176 1.350 . S
C1179 C1178 1.434 . S
C1180 C1181 1.369 . S
C1180 C1182 1.419 . S
C1180 H1184 0.930 . S
C1181 C1180 1.369 . S
C1181 C1190 1.429 . S
C1182 C1180 1.419 . S
C1182 C1183 1.363 . S
C1182 H1185 0.929 . S
C1183 C1182 1.363 . S
C1183 C1189 1.428 . S
H1184 C1180 0.930 . S
H1185 C1182 0.929 . S
S1186 N1187 1.613 . S
S1186 N1188 1.610 . S
N1187 S1186 1.613 . S
N1187 C1190 1.350 . S
N1188 S1186 1.610 . S
N1188 C1189 1.351 . S
C1189 C1183 1.428 . S
C1189 N1188 1.351 . S
C1189 C1190 1.434 . S
C1190 C1181 1.429 . S
C1190 N1187 1.350 . S
C1190 C1189 1.434 . S
C1191 C1192 1.369 . S
C1191 C1193 1.419 . S
C1191 H1195 0.930 . S
C1192 C1191 1.369 . S
C1192 C1201 1.429 1_455 S
C1193 C1191 1.419 . S
C1193 C1194 1.363 1_455 S
C1193 H1196 0.929 . S
C1194 C1193 1.363 1_655 S
C1194 C1200 1.428 . S
H1195 C1191 0.930 . S
H1196 C1193 0.929 . S
S1197 N1198 1.613 . S
S1197 N1199 1.610 . S
N1198 S1197 1.613 . S
N1198 C1201 1.350 . S
N1199 S1197 1.610 . S
N1199 C1200 1.351 . S
C1200 C1194 1.428 . S
C1200 N1199 1.351 . S
C1200 C1201 1.434 . S
C1201 C1192 1.429 1_655 S
C1201 N1198 1.350 . S
C1201 C1200 1.434 . S
C1202 C1203 1.369 . S
C1202 C1204 1.419 . S
C1202 H1206 0.930 . S
C1203 C1202 1.369 . S
C1203 C1212 1.429 . S
C1204 C1202 1.419 . S
C1204 C1205 1.363 . S
C1204 H1207 0.929 . S
C1205 C1204 1.363 . S
C1205 C1211 1.428 . S
H1206 C1202 0.930 . S
H1207 C1204 0.929 . S
S1208 N1209 1.613 . S
S1208 N1210 1.610 . S
N1209 S1208 1.613 . S
N1209 C1212 1.350 . S
N1210 S1208 1.610 . S
N1210 C1211 1.351 . S
C1211 C1205 1.428 . S
C1211 N1210 1.351 . S
C1211 C1212 1.434 . S
C1212 C1203 1.429 . S
C1212 N1209 1.350 . S
C1212 C1211 1.434 . S
C1213 C1214 1.369 . S
C1213 C1215 1.419 . S
C1213 H1217 0.930 . S
C1214 C1213 1.369 . S
C1214 C1223 1.429 . S
C1215 C1213 1.419 . S
C1215 C1216 1.363 . S
C1215 H1218 0.929 . S
C1216 C1215 1.363 . S
C1216 C1222 1.428 . S
H1217 C1213 0.930 . S
H1218 C1215 0.929 . S
S1219 N1220 1.613 . S
S1219 N1221 1.610 . S
N1220 S1219 1.613 . S
N1220 C1223 1.350 . S
N1221 S1219 1.610 . S
N1221 C1222 1.351 . S
C1222 C1216 1.428 . S
C1222 N1221 1.351 . S
C1222 C1223 1.434 . S
C1223 C1214 1.429 . S
C1223 N1220 1.350 . S
C1223 C1222 1.434 . S
C1224 C1225 1.369 . S
C1224 C1226 1.419 . S
C1224 H1228 0.930 . S
C1225 C1224 1.369 . S
C1225 C1234 1.429 . S
C1226 C1224 1.419 . S
C1226 C1227 1.363 . S
C1226 H1229 0.929 . S
C1227 C1226 1.363 . S
C1227 C1233 1.428 . S
H1228 C1224 0.930 . S
H1229 C1226 0.929 . S
S1230 N1231 1.613 . S
S1230 N1232 1.610 . S
N1231 S1230 1.613 . S
N1231 C1234 1.350 . S
N1232 S1230 1.610 . S
N1232 C1233 1.351 . S
C1233 C1227 1.428 . S
C1233 N1232 1.351 . S
C1233 C1234 1.434 . S
C1234 C1225 1.429 . S
C1234 N1231 1.350 . S
C1234 C1233 1.434 . S
C1235 C1236 1.369 . S
C1235 C1237 1.419 . S
C1235 H1239 0.930 . S
C1236 C1235 1.369 . S
C1236 C1245 1.429 . S
C1237 C1235 1.419 . S
C1237 C1238 1.363 . S
C1237 H1240 0.929 . S
C1238 C1237 1.363 . S
C1238 C1244 1.428 . S
H1239 C1235 0.930 . S
H1240 C1237 0.929 . S
S1241 N1242 1.613 . S
S1241 N1243 1.610 . S
N1242 S1241 1.613 . S
N1242 C1245 1.350 . S
N1243 S1241 1.610 . S
N1243 C1244 1.351 . S
C1244 C1238 1.428 . S
C1244 N1243 1.351 . S
C1244 C1245 1.434 . S
C1245 C1236 1.429 . S
C1245 N1242 1.350 . S
C1245 C1244 1.434 . S
C1246 C1247 1.369 . S
C1246 C1248 1.419 . S
C1246 H1250 0.930 . S
C1247 C1246 1.369 . S
C1247 C1256 1.429 . S
C1248 C1246 1.419 . S
C1248 C1249 1.363 . S
C1248 H1251 0.929 . S
C1249 C1248 1.363 . S
C1249 C1255 1.428 . S
H1250 C1246 0.930 . S
H1251 C1248 0.929 . S
S1252 N1253 1.613 . S
S1252 N1254 1.610 . S
N1253 S1252 1.613 . S
N1253 C1256 1.350 . S
N1254 S1252 1.610 . S
N1254 C1255 1.351 . S
C1255 C1249 1.428 . S
C1255 N1254 1.351 . S
C1255 C1256 1.434 . S
C1256 C1247 1.429 . S
C1256 N1253 1.350 . S
C1256 C1255 1.434 . S
C1257 C1258 1.369 . S
C1257 C1259 1.419 . S
C1257 H1261 0.930 . S
C1258 C1257 1.369 . S
C1258 C1267 1.429 1_455 S
C1259 C1257 1.419 . S
C1259 C1260 1.363 1_455 S
C1259 H1262 0.929 . S
C1260 C1259 1.363 1_655 S
C1260 C1266 1.428 . S
H1261 C1257 0.930 . S
H1262 C1259 0.929 . S
S1263 N1264 1.613 . S
S1263 N1265 1.610 . S
N1264 S1263 1.613 . S
N1264 C1267 1.350 . S
N1265 S1263 1.610 . S
N1265 C1266 1.351 . S
C1266 C1260 1.428 . S
C1266 N1265 1.351 . S
C1266 C1267 1.434 . S
C1267 C1258 1.429 1_655 S
C1267 N1264 1.350 . S
C1267 C1266 1.434 . S
C1268 C1269 1.369 . S
C1268 C1270 1.419 . S
C1268 H1272 0.930 . S
C1269 C1268 1.369 . S
C1269 C1278 1.429 . S
C1270 C1268 1.419 . S
C1270 C1271 1.363 . S
C1270 H1273 0.929 . S
C1271 C1270 1.363 . S
C1271 C1277 1.428 . S
H1272 C1268 0.930 . S
H1273 C1270 0.929 . S
S1274 N1275 1.613 . S
S1274 N1276 1.610 . S
N1275 S1274 1.613 . S
N1275 C1278 1.350 . S
N1276 S1274 1.610 . S
N1276 C1277 1.351 . S
C1277 C1271 1.428 . S
C1277 N1276 1.351 . S
C1277 C1278 1.434 . S
C1278 C1269 1.429 . S
C1278 N1275 1.350 . S
C1278 C1277 1.434 . S
C1279 C1280 1.369 1_455 S
C1279 C1281 1.419 . S
C1279 H1283 0.930 . S
C1280 C1279 1.369 1_655 S
C1280 C1289 1.429 . S
C1281 C1279 1.419 . S
C1281 C1282 1.363 . S
C1281 H1284 0.929 . S
C1282 C1281 1.363 . S
C1282 C1288 1.428 1_455 S
H1283 C1279 0.930 . S
H1284 C1281 0.929 . S
S1285 N1286 1.613 . S
S1285 N1287 1.610 . S
N1286 S1285 1.613 . S
N1286 C1289 1.350 . S
N1287 S1285 1.610 . S
N1287 C1288 1.351 . S
C1288 C1282 1.428 1_655 S
C1288 N1287 1.351 . S
C1288 C1289 1.434 . S
C1289 C1280 1.429 . S
C1289 N1286 1.350 . S
C1289 C1288 1.434 . S
C1290 C1291 1.369 . S
C1290 C1292 1.419 . S
C1290 H1294 0.930 . S
C1291 C1290 1.369 . S
C1291 C1300 1.429 . S
C1292 C1290 1.419 . S
C1292 C1293 1.363 . S
C1292 H1295 0.929 . S
C1293 C1292 1.363 . S
C1293 C1299 1.428 . S
H1294 C1290 0.930 . S
H1295 C1292 0.929 . S
S1296 N1297 1.613 . S
S1296 N1298 1.610 . S
N1297 S1296 1.613 . S
N1297 C1300 1.350 . S
N1298 S1296 1.610 . S
N1298 C1299 1.351 . S
C1299 C1293 1.428 . S
C1299 N1298 1.351 . S
C1299 C1300 1.434 . S
C1300 C1291 1.429 . S
C1300 N1297 1.350 . S
C1300 C1299 1.434 . S
C1301 C1302 1.369 . S
C1301 C1303 1.419 . S
C1301 H1305 0.930 . S
C1302 C1301 1.369 . S
C1302 C1311 1.429 . S
C1303 C1301 1.419 . S
C1303 C1304 1.363 . S
C1303 H1306 0.929 . S
C1304 C1303 1.363 . S
C1304 C1310 1.428 . S
H1305 C1301 0.930 . S
H1306 C1303 0.929 . S
S1307 N1308 1.613 . S
S1307 N1309 1.610 . S
N1308 S1307 1.613 . S
N1308 C1311 1.350 . S
N1309 S1307 1.610 . S
N1309 C1310 1.351 . S
C1310 C1304 1.428 . S
C1310 N1309 1.351 . S
C1310 C1311 1.434 . S
C1311 C1302 1.429 . S
C1311 N1308 1.350 . S
C1311 C1310 1.434 . S
C1312 C1313 1.369 . S
C1312 C1314 1.419 1_455 S
C1312 H1316 0.930 . S
C1313 C1312 1.369 . S
C1313 C1322 1.429 1_455 S
C1314 C1312 1.419 1_655 S
C1314 C1315 1.363 . S
C1314 H1317 0.929 1_655 S
C1315 C1314 1.363 . S
C1315 C1321 1.428 . S
H1316 C1312 0.930 . S
H1317 C1314 0.929 1_455 S
S1318 N1319 1.613 . S
S1318 N1320 1.610 . S
N1319 S1318 1.613 . S
N1319 C1322 1.350 . S
N1320 S1318 1.610 . S
N1320 C1321 1.351 . S
C1321 C1315 1.428 . S
C1321 N1320 1.351 . S
C1321 C1322 1.434 . S
C1322 C1313 1.429 1_655 S
C1322 N1319 1.350 . S
C1322 C1321 1.434 . S
C1323 C1324 1.369 . S
C1323 C1325 1.419 1_655 S
C1323 H1327 0.930 . S
C1324 C1323 1.369 . S
C1324 C1333 1.429 . S
C1325 C1323 1.419 1_455 S
C1325 C1326 1.363 . S
C1325 H1328 0.929 . S
C1326 C1325 1.363 . S
C1326 C1332 1.428 . S
H1327 C1323 0.930 . S
H1328 C1325 0.929 . S
S1329 N1330 1.613 . S
S1329 N1331 1.610 1_655 S
N1330 S1329 1.613 . S
N1330 C1333 1.350 . S
N1331 S1329 1.610 1_455 S
N1331 C1332 1.351 . S
C1332 C1326 1.428 . S
C1332 N1331 1.351 . S
C1332 C1333 1.434 1_455 S
C1333 C1324 1.429 . S
C1333 N1330 1.350 . S
C1333 C1332 1.434 1_655 S
C1334 C1335 1.369 . S
C1334 C1336 1.419 . S
C1334 H1338 0.930 . S
C1335 C1334 1.369 . S
C1335 C1344 1.429 . S
C1336 C1334 1.419 . S
C1336 C1337 1.363 . S
C1336 H1339 0.929 . S
C1337 C1336 1.363 . S
C1337 C1343 1.428 . S
H1338 C1334 0.930 . S
H1339 C1336 0.929 . S
S1340 N1341 1.613 . S
S1340 N1342 1.610 . S
N1341 S1340 1.613 . S
N1341 C1344 1.350 . S
N1342 S1340 1.610 . S
N1342 C1343 1.351 . S
C1343 C1337 1.428 . S
C1343 N1342 1.351 . S
C1343 C1344 1.434 . S
C1344 C1335 1.429 . S
C1344 N1341 1.350 . S
C1344 C1343 1.434 . S
C1345 C1346 1.369 . S
C1345 C1347 1.419 . S
C1345 H1349 0.930 . S
C1346 C1345 1.369 . S
C1346 C1355 1.429 . S
C1347 C1345 1.419 . S
C1347 C1348 1.363 . S
C1347 H1350 0.929 . S
C1348 C1347 1.363 . S
C1348 C1354 1.428 . S
H1349 C1345 0.930 . S
H1350 C1347 0.929 . S
S1351 N1352 1.613 . S
S1351 N1353 1.610 . S
N1352 S1351 1.613 . S
N1352 C1355 1.350 . S
N1353 S1351 1.610 . S
N1353 C1354 1.351 . S
C1354 C1348 1.428 . S
C1354 N1353 1.351 . S
C1354 C1355 1.434 . S
C1355 C1346 1.429 . S
C1355 N1352 1.350 . S
C1355 C1354 1.434 . S
C1356 C1357 1.369 . S
C1356 C1358 1.419 . S
C1356 H1360 0.930 . S
C1357 C1356 1.369 . S
C1357 C1366 1.412 1_655 S
C1358 C1356 1.419 . S
C1358 C1359 1.363 1_655 S
C1358 H1361 0.929 . S
C1359 C1358 1.363 1_455 S
C1359 C1365 1.428 . S
H1360 C1356 0.930 . S
H1361 C1358 0.929 . S
S1362 N1363 1.613 . S
S1362 N1364 1.610 . S
N1363 S1362 1.613 . S
N1363 C1366 1.355 . S
N1364 S1362 1.610 . S
N1364 C1365 1.351 . S
C1365 C1359 1.428 . S
C1365 N1364 1.351 . S
C1365 C1366 1.448 . S
C1366 C1357 1.412 1_455 S
C1366 N1363 1.355 . S
C1366 C1365 1.448 . S
C1367 C1368 1.369 . S
C1367 C1369 1.419 . S
C1367 H1371 0.930 . S
C1368 C1367 1.369 . S
C1368 C1377 1.429 . S
C1369 C1367 1.419 . S
C1369 C1370 1.363 . S
C1369 H1372 0.929 . S
C1370 C1369 1.363 . S
C1370 C1376 1.428 . S
H1371 C1367 0.930 . S
H1372 C1369 0.929 . S
S1373 N1374 1.613 . S
S1373 N1375 1.610 . S
N1374 S1373 1.613 . S
N1374 C1377 1.350 . S
N1375 S1373 1.610 . S
N1375 C1376 1.351 . S
C1376 C1370 1.428 . S
C1376 N1375 1.351 . S
C1376 C1377 1.434 . S
C1377 C1368 1.429 . S
C1377 N1374 1.350 . S
C1377 C1376 1.434 . S
C1378 C1379 1.369 . S
C1378 C1380 1.419 . S
C1378 H1382 0.930 . S
C1379 C1378 1.369 . S
C1379 C1388 1.429 . S
C1380 C1378 1.419 . S
C1380 C1381 1.363 . S
C1380 H1383 0.929 . S
C1381 C1380 1.363 . S
C1381 C1387 1.428 . S
H1382 C1378 0.930 . S
H1383 C1380 0.929 . S
S1384 N1385 1.613 . S
S1384 N1386 1.610 . S
N1385 S1384 1.613 . S
N1385 C1388 1.350 . S
N1386 S1384 1.610 . S
N1386 C1387 1.351 . S
C1387 C1381 1.428 . S
C1387 N1386 1.351 . S
C1387 C1388 1.434 . S
C1388 C1379 1.429 . S
C1388 N1385 1.350 . S
C1388 C1387 1.434 . S
C1389 C1390 1.369 . S
C1389 C1391 1.419 1_455 S
C1389 H1393 0.930 . S
C1390 C1389 1.369 . S
C1390 C1399 1.429 . S
C1391 C1389 1.419 1_655 S
C1391 C1392 1.363 . S
C1391 H1394 0.929 . S
C1392 C1391 1.363 . S
C1392 C1398 1.428 . S
H1393 C1389 0.930 . S
H1394 C1391 0.929 . S
S1395 N1396 1.613 . S
S1395 N1397 1.610 1_455 S
N1396 S1395 1.613 . S
N1396 C1399 1.350 . S
N1397 S1395 1.610 1_655 S
N1397 C1398 1.351 . S
C1398 C1392 1.428 . S
C1398 N1397 1.351 . S
C1398 C1399 1.434 1_655 S
C1399 C1390 1.429 . S
C1399 N1396 1.350 . S
C1399 C1398 1.434 1_455 S
C1400 C1401 1.369 . S
C1400 C1402 1.419 . S
C1400 H1404 0.930 . S
C1401 C1400 1.369 . S
C1401 C1410 1.429 1_455 S
C1402 C1400 1.419 . S
C1402 C1403 1.363 1_455 S
C1402 H1405 0.929 . S
C1403 C1402 1.363 1_655 S
C1403 C1409 1.428 . S
H1404 C1400 0.930 . S
H1405 C1402 0.929 . S
S1406 N1407 1.613 . S
S1406 N1408 1.610 . S
N1407 S1406 1.613 . S
N1407 C1410 1.350 . S
N1408 S1406 1.610 . S
N1408 C1409 1.351 . S
C1409 C1403 1.428 . S
C1409 N1408 1.351 . S
C1409 C1410 1.434 . S
C1410 C1401 1.429 1_655 S
C1410 N1407 1.350 . S
C1410 C1409 1.434 . S
C1411 C1412 1.369 1_455 S
C1411 C1413 1.419 . S
C1411 H1415 0.930 . S
C1412 C1411 1.369 1_655 S
C1412 C1421 1.429 . S
C1413 C1411 1.419 . S
C1413 C1414 1.363 . S
C1413 H1416 0.929 . S
C1414 C1413 1.363 . S
C1414 C1420 1.428 1_455 S
H1415 C1411 0.930 . S
H1416 C1413 0.929 . S
S1417 N1418 1.613 . S
S1417 N1419 1.610 . S
N1418 S1417 1.613 . S
N1418 C1421 1.350 . S
N1419 S1417 1.610 . S
N1419 C1420 1.351 . S
C1420 C1414 1.428 1_655 S
C1420 N1419 1.351 . S
C1420 C1421 1.434 . S
C1421 C1412 1.429 . S
C1421 N1418 1.350 . S
C1421 C1420 1.434 . S
C1422 C1423 1.369 . S
C1422 C1424 1.419 . S
C1422 H1426 0.930 . S
C1423 C1422 1.369 . S
C1423 C1432 1.429 . S
C1424 C1422 1.419 . S
C1424 C1425 1.363 . S
C1424 H1427 0.929 . S
C1425 C1424 1.363 . S
C1425 C1431 1.428 . S
H1426 C1422 0.930 . S
H1427 C1424 0.929 . S
S1428 N1429 1.613 . S
S1428 N1430 1.610 . S
N1429 S1428 1.613 . S
N1429 C1432 1.350 . S
N1430 S1428 1.610 . S
N1430 C1431 1.351 . S
C1431 C1425 1.428 . S
C1431 N1430 1.351 . S
C1431 C1432 1.434 . S
C1432 C1423 1.429 . S
C1432 N1429 1.350 . S
C1432 C1431 1.434 . S
C1433 C1434 1.369 . S
C1433 C1435 1.419 . S
C1433 H1437 0.930 . S
C1434 C1433 1.369 . S
C1434 C1443 1.429 . S
C1435 C1433 1.419 . S
C1435 C1436 1.363 . S
C1435 H1438 0.929 . S
C1436 C1435 1.363 . S
C1436 C1442 1.428 . S
H1437 C1433 0.930 . S
H1438 C1435 0.929 . S
S1439 N1440 1.613 . S
S1439 N1441 1.610 . S
N1440 S1439 1.613 . S
N1440 C1443 1.350 . S
N1441 S1439 1.610 . S
N1441 C1442 1.351 . S
C1442 C1436 1.428 . S
C1442 N1441 1.351 . S
C1442 C1443 1.434 . S
C1443 C1434 1.429 . S
C1443 N1440 1.350 . S
C1443 C1442 1.434 . S
C1444 C1445 1.369 . S
C1444 C1446 1.419 . S
C1444 H1448 0.930 . S
C1445 C1444 1.369 . S
C1445 C1454 1.429 . S
C1446 C1444 1.419 . S
C1446 C1447 1.363 1_455 S
C1446 H1449 0.929 . S
C1447 C1446 1.363 1_655 S
C1447 C1453 1.428 . S
H1448 C1444 0.930 . S
H1449 C1446 0.929 . S
S1450 N1451 1.613 . S
S1450 N1452 1.610 . S
N1451 S1450 1.613 . S
N1451 C1454 1.350 1_655 S
N1452 S1450 1.610 . S
N1452 C1453 1.351 . S
C1453 C1447 1.428 . S
C1453 N1452 1.351 . S
C1453 C1454 1.434 1_655 S
C1454 C1445 1.429 . S
C1454 N1451 1.350 1_455 S
C1454 C1453 1.434 1_455 S
C1455 C1456 1.369 . S
C1455 C1457 1.419 . S
C1455 H1459 0.930 . S
C1456 C1455 1.369 . S
C1456 C1465 1.429 . S
C1457 C1455 1.419 . S
C1457 C1458 1.363 . S
C1457 H1460 0.929 . S
C1458 C1457 1.363 . S
C1458 C1464 1.428 . S
H1459 C1455 0.930 . S
H1460 C1457 0.929 . S
S1461 N1462 1.613 . S
S1461 N1463 1.610 . S
N1462 S1461 1.613 . S
N1462 C1465 1.350 . S
N1463 S1461 1.610 . S
N1463 C1464 1.351 . S
C1464 C1458 1.428 . S
C1464 N1463 1.351 . S
C1464 C1465 1.434 . S
C1465 C1456 1.429 . S
C1465 N1462 1.350 . S
C1465 C1464 1.434 . S
C1466 C1467 1.369 . S
C1466 C1468 1.419 . S
C1466 H1470 0.930 . S
C1467 C1466 1.369 . S
C1467 C1476 1.429 . S
C1468 C1466 1.419 . S
C1468 C1469 1.363 . S
C1468 H1471 0.929 . S
C1469 C1468 1.363 . S
C1469 C1475 1.428 . S
H1470 C1466 0.930 . S
H1471 C1468 0.929 . S
S1472 N1473 1.613 . S
S1472 N1474 1.610 . S
N1473 S1472 1.613 . S
N1473 C1476 1.350 . S
N1474 S1472 1.610 . S
N1474 C1475 1.351 . S
C1475 C1469 1.428 . S
C1475 N1474 1.351 . S
C1475 C1476 1.434 . S
C1476 C1467 1.429 . S
C1476 N1473 1.350 . S
C1476 C1475 1.434 . S
C1477 C1478 1.369 1_455 S
C1477 C1479 1.419 . S
C1477 H1481 0.930 . S
C1478 C1477 1.369 1_655 S
C1478 C1487 1.429 . S
C1479 C1477 1.419 . S
C1479 C1480 1.363 . S
C1479 H1482 0.929 . S
C1480 C1479 1.363 . S
C1480 C1486 1.428 1_455 S
H1481 C1477 0.930 . S
H1482 C1479 0.929 . S
S1483 N1484 1.613 . S
S1483 N1485 1.610 . S
N1484 S1483 1.613 . S
N1484 C1487 1.350 . S
N1485 S1483 1.610 . S
N1485 C1486 1.351 . S
C1486 C1480 1.428 1_655 S
C1486 N1485 1.351 . S
C1486 C1487 1.434 . S
C1487 C1478 1.429 . S
C1487 N1484 1.350 . S
C1487 C1486 1.434 . S
C1488 C1489 1.369 . S
C1488 C1490 1.419 . S
C1488 H1492 0.930 . S
C1489 C1488 1.369 . S
C1489 C1498 1.429 . S
C1490 C1488 1.419 . S
C1490 C1491 1.363 . S
C1490 H1493 0.929 . S
C1491 C1490 1.363 . S
C1491 C1497 1.428 . S
H1492 C1488 0.930 . S
H1493 C1490 0.929 . S
S1494 N1495 1.613 . S
S1494 N1496 1.610 . S
N1495 S1494 1.613 . S
N1495 C1498 1.350 . S
N1496 S1494 1.610 . S
N1496 C1497 1.351 . S
C1497 C1491 1.428 . S
C1497 N1496 1.351 . S
C1497 C1498 1.434 . S
C1498 C1489 1.429 . S
C1498 N1495 1.350 . S
C1498 C1497 1.434 . S
C1499 C1500 1.369 . S
C1499 C1501 1.419 1_655 S
C1499 H1503 0.930 . S
C1500 C1499 1.369 . S
C1500 C1509 1.429 1_565 S
C1501 C1499 1.419 1_455 S
C1501 C1502 1.363 1_565 S
C1501 H1504 0.929 . S
C1502 C1501 1.363 1_545 S
C1502 C1508 1.428 . S
H1503 C1499 0.930 . S
H1504 C1501 0.929 . S
S1505 N1506 1.613 . S
S1505 N1507 1.610 1_655 S
N1506 S1505 1.613 . S
N1506 C1509 1.350 . S
N1507 S1505 1.610 1_455 S
N1507 C1508 1.351 . S
C1508 C1502 1.428 . S
C1508 N1507 1.351 . S
C1508 C1509 1.434 1_455 S
C1509 C1500 1.429 1_545 S
C1509 N1506 1.350 . S
C1509 C1508 1.434 1_655 S
C1510 C1511 1.369 . S
C1510 C1512 1.419 . S
C1510 H1514 0.930 . S
C1511 C1510 1.369 . S
C1511 C1520 1.429 . S
C1512 C1510 1.419 . S
C1512 C1513 1.363 . S
C1512 H1515 0.929 . S
C1513 C1512 1.363 . S
C1513 C1519 1.428 . S
H1514 C1510 0.930 . S
H1515 C1512 0.929 . S
S1516 N1517 1.613 . S
S1516 N1518 1.610 . S
N1517 S1516 1.613 . S
N1517 C1520 1.350 . S
N1518 S1516 1.610 . S
N1518 C1519 1.351 . S
C1519 C1513 1.428 . S
C1519 N1518 1.351 . S
C1519 C1520 1.434 . S
C1520 C1511 1.429 . S
C1520 N1517 1.350 . S
C1520 C1519 1.434 . S
C1521 C1522 1.342 1_566 S
C1521 C1523 1.447 . S
C1521 H1525 0.931 . S
C1522 C1521 1.342 1_544 S
C1522 C1531 1.429 . S
C1523 C1521 1.447 . S
C1523 C1524 1.363 . S
C1523 H1526 0.929 . S
C1524 C1523 1.363 . S
C1524 C1530 1.428 1_566 S
H1525 C1521 0.931 . S
H1526 C1523 0.929 . S
S1527 N1528 1.613 . S
S1527 N1529 1.610 . S
N1528 S1527 1.613 . S
N1528 C1531 1.350 . S
N1529 S1527 1.610 . S
N1529 C1530 1.351 . S
C1530 C1524 1.428 1_544 S
C1530 N1529 1.351 . S
C1530 C1531 1.434 . S
C1531 C1522 1.429 . S
C1531 N1528 1.350 . S
C1531 C1530 1.434 . S
C1532 C1533 1.369 . S
C1532 C1534 1.419 . S
C1532 H1536 0.930 . S
C1533 C1532 1.369 . S
C1533 C1542 1.429 . S
C1534 C1532 1.419 . S
C1534 C1535 1.363 . S
C1534 H1537 0.929 . S
C1535 C1534 1.363 . S
C1535 C1541 1.428 . S
H1536 C1532 0.930 . S
H1537 C1534 0.929 . S
S1538 N1539 1.613 . S
S1538 N1540 1.610 . S
N1539 S1538 1.613 . S
N1539 C1542 1.350 . S
N1540 S1538 1.610 . S
N1540 C1541 1.351 . S
C1541 C1535 1.428 . S
C1541 N1540 1.351 . S
C1541 C1542 1.434 . S
C1542 C1533 1.429 . S
C1542 N1539 1.350 . S
C1542 C1541 1.434 . S
C1543 C1544 1.369 . S
C1543 C1545 1.419 . S
C1543 H1547 0.930 . S
C1544 C1543 1.369 . S
C1544 C1553 1.429 1_545 S
C1545 C1543 1.419 . S
C1545 C1546 1.363 1_545 S
C1545 H1548 0.929 . S
C1546 C1545 1.363 1_565 S
C1546 C1552 1.428 . S
H1547 C1543 0.930 . S
H1548 C1545 0.929 . S
S1549 N1550 1.613 . S
S1549 N1551 1.610 . S
N1550 S1549 1.613 . S
N1550 C1553 1.350 . S
N1551 S1549 1.610 . S
N1551 C1552 1.351 . S
C1552 C1546 1.428 . S
C1552 N1551 1.351 . S
C1552 C1553 1.434 . S
C1553 C1544 1.429 1_565 S
C1553 N1550 1.350 . S
C1553 C1552 1.434 . S
C1554 C1555 1.369 . S
C1554 C1556 1.419 . S
C1554 H1558 0.930 . S
C1555 C1554 1.369 . S
C1555 C1564 1.429 . S
C1556 C1554 1.419 . S
C1556 C1557 1.363 . S
C1556 H1559 0.929 . S
C1557 C1556 1.363 . S
C1557 C1563 1.428 . S
H1558 C1554 0.930 . S
H1559 C1556 0.929 . S
S1560 N1561 1.613 . S
S1560 N1562 1.610 . S
N1561 S1560 1.613 . S
N1561 C1564 1.350 . S
N1562 S1560 1.610 . S
N1562 C1563 1.351 . S
C1563 C1557 1.428 . S
C1563 N1562 1.351 . S
C1563 C1564 1.434 . S
C1564 C1555 1.429 . S
C1564 N1561 1.350 . S
C1564 C1563 1.434 . S
C1565 C1566 1.369 . S
C1565 C1567 1.419 1_456 S
C1565 H1569 0.930 . S
C1566 C1565 1.369 . S
C1566 C1575 1.429 1_565 S
C1567 C1565 1.419 1_654 S
C1567 C1568 1.363 1_565 S
C1567 H1570 0.929 . S
C1568 C1567 1.363 1_545 S
C1568 C1574 1.428 . S
H1569 C1565 0.930 . S
H1570 C1567 0.929 . S
S1571 N1572 1.613 1_554 S
S1571 N1573 1.610 1_455 S
N1572 S1571 1.613 1_556 S
N1572 C1575 1.350 . S
N1573 S1571 1.610 1_655 S
N1573 C1574 1.351 . S
C1574 C1568 1.428 . S
C1574 N1573 1.351 . S
C1574 C1575 1.434 1_654 S
C1575 C1566 1.429 1_545 S
C1575 N1572 1.350 . S
C1575 C1574 1.434 1_456 S
C1576 C1577 1.369 . S
C1576 C1578 1.419 . S
C1576 H1580 0.930 . S
C1577 C1576 1.369 . S
C1577 C1586 1.429 . S
C1578 C1576 1.419 . S
C1578 C1579 1.363 . S
C1578 H1581 0.929 . S
C1579 C1578 1.363 . S
C1579 C1585 1.428 . S
H1580 C1576 0.930 . S
H1581 C1578 0.929 . S
S1582 N1583 1.613 . S
S1582 N1584 1.610 . S
N1583 S1582 1.613 . S
N1583 C1586 1.350 . S
N1584 S1582 1.610 . S
N1584 C1585 1.351 . S
C1585 C1579 1.428 . S
C1585 N1584 1.351 . S
C1585 C1586 1.434 . S
C1586 C1577 1.429 . S
C1586 N1583 1.350 . S
C1586 C1585 1.434 . S
C1587 C1588 1.369 . S
C1587 C1589 1.419 . S
C1587 H1591 0.930 . S
C1588 C1587 1.369 . S
C1588 C1597 1.429 . S
C1589 C1587 1.419 . S
C1589 C1590 1.363 . S
C1589 H1592 0.929 . S
C1590 C1589 1.363 . S
C1590 C1596 1.428 . S
H1591 C1587 0.930 . S
H1592 C1589 0.929 . S
S1593 N1594 1.613 . S
S1593 N1595 1.610 . S
N1594 S1593 1.613 . S
N1594 C1597 1.350 . S
N1595 S1593 1.610 . S
N1595 C1596 1.351 . S
C1596 C1590 1.428 . S
C1596 N1595 1.351 . S
C1596 C1597 1.434 . S
C1597 C1588 1.429 . S
C1597 N1594 1.350 . S
C1597 C1596 1.434 . S
C1598 C1599 1.369 . S
C1598 C1600 1.419 . S
C1598 H1602 0.930 . S
C1599 C1598 1.369 . S
C1599 C1608 1.429 . S
C1600 C1598 1.419 . S
C1600 C1601 1.363 . S
C1600 H1603 0.929 . S
C1601 C1600 1.363 . S
C1601 C1607 1.428 . S
H1602 C1598 0.930 . S
H1603 C1600 0.929 . S
S1604 N1605 1.613 . S
S1604 N1606 1.610 . S
N1605 S1604 1.613 . S
N1605 C1608 1.350 . S
N1606 S1604 1.610 . S
N1606 C1607 1.351 . S
C1607 C1601 1.428 . S
C1607 N1606 1.351 . S
C1607 C1608 1.434 . S
C1608 C1599 1.429 . S
C1608 N1605 1.350 . S
C1608 C1607 1.434 . S
C1609 C1610 1.369 . S
C1609 C1611 1.419 . S
C1609 H1613 0.930 . S
C1610 C1609 1.369 . S
C1610 C1619 1.429 . S
C1611 C1609 1.419 . S
C1611 C1612 1.363 . S
C1611 H1614 0.929 . S
C1612 C1611 1.363 . S
C1612 C1618 1.428 . S
H1613 C1609 0.930 . S
H1614 C1611 0.929 . S
S1615 N1616 1.613 . S
S1615 N1617 1.610 . S
N1616 S1615 1.613 . S
N1616 C1619 1.350 . S
N1617 S1615 1.610 . S
N1617 C1618 1.351 . S
C1618 C1612 1.428 . S
C1618 N1617 1.351 . S
C1618 C1619 1.434 . S
C1619 C1610 1.429 . S
C1619 N1616 1.350 . S
C1619 C1618 1.434 . S
C1620 C1621 1.369 1_556 S
C1620 C1622 1.419 . S
C1620 H1624 0.930 . S
C1621 C1620 1.369 1_554 S
C1621 C1630 1.429 . S
C1622 C1620 1.419 . S
C1622 C1623 1.363 . S
C1622 H1625 0.929 . S
C1623 C1622 1.363 . S
C1623 C1629 1.428 1_556 S
H1624 C1620 0.930 . S
H1625 C1622 0.929 . S
S1626 N1627 1.613 . S
S1626 N1628 1.610 . S
N1627 S1626 1.613 . S
N1627 C1630 1.350 . S
N1628 S1626 1.610 . S
N1628 C1629 1.351 . S
C1629 C1623 1.428 1_554 S
C1629 N1628 1.351 . S
C1629 C1630 1.434 . S
C1630 C1621 1.429 . S
C1630 N1627 1.350 . S
C1630 C1629 1.434 . S
C1631 C1632 1.379 . S
C1631 C1633 1.409 1_655 S
C1631 H1635 0.929 1_655 S
C1632 C1631 1.379 . S
C1632 C1641 1.429 . S
C1633 C1631 1.409 1_455 S
C1633 C1634 1.363 . S
C1633 H1636 0.929 . S
C1634 C1633 1.363 . S
C1634 C1640 1.401 1_455 S
H1635 C1631 0.929 1_455 S
H1636 C1633 0.929 . S
S1637 N1638 1.613 . S
S1637 N1639 1.610 . S
N1638 S1637 1.613 . S
N1638 C1641 1.350 . S
N1639 S1637 1.610 . S
N1639 C1640 1.356 . S
C1640 C1634 1.401 1_655 S
C1640 N1639 1.356 . S
C1640 C1641 1.460 . S
C1641 C1632 1.429 . S
C1641 N1638 1.350 . S
C1641 C1640 1.460 . S
C1642 C1643 1.375 . S
C1642 C1644 1.413 1_455 S
C1642 H1646 0.930 1_455 S
C1643 C1642 1.375 . S
C1643 C1652 1.429 1_554 S
C1644 C1642 1.413 1_655 S
C1644 C1645 1.363 1_554 S
C1644 H1647 0.929 . S
C1645 C1644 1.363 1_556 S
C1645 C1651 1.403 1_655 S
H1646 C1642 0.930 1_655 S
H1647 C1644 0.929 . S
S1648 N1649 1.613 . S
S1648 N1650 1.610 . S
N1649 S1648 1.613 . S
N1649 C1652 1.350 . S
N1650 S1648 1.610 . S
N1650 C1651 1.355 . S
C1651 C1645 1.403 1_455 S
C1651 N1650 1.355 . S
C1651 C1652 1.458 . S
C1652 C1643 1.429 1_556 S
C1652 N1649 1.350 . S
C1652 C1651 1.458 . S
C1653 C1654 1.369 . S
C1653 C1655 1.419 . S
C1653 H1657 0.930 . S
C1654 C1653 1.369 . S
C1654 C1663 1.429 . S
C1655 C1653 1.419 . S
C1655 C1656 1.363 . S
C1655 H1658 0.929 . S
C1656 C1655 1.363 . S
C1656 C1662 1.428 . S
H1657 C1653 0.930 . S
H1658 C1655 0.929 . S
S1659 N1660 1.613 . S
S1659 N1661 1.610 . S
N1660 S1659 1.613 . S
N1660 C1663 1.350 . S
N1661 S1659 1.610 . S
N1661 C1662 1.351 . S
C1662 C1656 1.428 . S
C1662 N1661 1.351 . S
C1662 C1663 1.434 . S
C1663 C1654 1.429 . S
C1663 N1660 1.350 . S
C1663 C1662 1.434 . S
C1664 C1665 1.369 . S
C1664 C1666 1.419 . S
C1664 H1668 0.930 . S
C1665 C1664 1.369 . S
C1665 C1674 1.429 . S
C1666 C1664 1.419 . S
C1666 C1667 1.363 . S
C1666 H1669 0.929 . S
C1667 C1666 1.363 . S
C1667 C1673 1.428 . S
H1668 C1664 0.930 . S
H1669 C1666 0.929 . S
S1670 N1671 1.613 . S
S1670 N1672 1.610 . S
N1671 S1670 1.613 . S
N1671 C1674 1.350 . S
N1672 S1670 1.610 . S
N1672 C1673 1.351 . S
C1673 C1667 1.428 . S
C1673 N1672 1.351 . S
C1673 C1674 1.434 . S
C1674 C1665 1.429 . S
C1674 N1671 1.350 . S
C1674 C1673 1.434 . S
C1675 C1676 1.369 . S
C1675 C1677 1.419 . S
C1675 H1679 0.930 . S
C1676 C1675 1.369 . S
C1676 C1685 1.429 1_545 S
C1677 C1675 1.419 . S
C1677 C1678 1.363 1_545 S
C1677 H1680 0.929 . S
C1678 C1677 1.363 1_565 S
C1678 C1684 1.428 . S
H1679 C1675 0.930 . S
H1680 C1677 0.929 . S
S1681 N1682 1.613 . S
S1681 N1683 1.610 . S
N1682 S1681 1.613 . S
N1682 C1685 1.350 . S
N1683 S1681 1.610 . S
N1683 C1684 1.351 . S
C1684 C1678 1.428 . S
C1684 N1683 1.351 . S
C1684 C1685 1.434 . S
C1685 C1676 1.429 1_565 S
C1685 N1682 1.350 . S
C1685 C1684 1.434 . S
C1686 C1687 1.369 . S
C1686 C1688 1.419 . S
C1686 H1690 0.930 . S
C1687 C1686 1.369 . S
C1687 C1696 1.429 1_545 S
C1688 C1686 1.419 . S
C1688 C1689 1.363 1_545 S
C1688 H1691 0.929 . S
C1689 C1688 1.363 1_565 S
C1689 C1695 1.428 . S
H1690 C1686 0.930 . S
H1691 C1688 0.929 . S
S1692 N1693 1.613 . S
S1692 N1694 1.610 . S
N1693 S1692 1.613 . S
N1693 C1696 1.350 . S
N1694 S1692 1.610 . S
N1694 C1695 1.351 . S
C1695 C1689 1.428 . S
C1695 N1694 1.351 . S
C1695 C1696 1.434 . S
C1696 C1687 1.429 1_565 S
C1696 N1693 1.350 . S
C1696 C1695 1.434 . S
C1697 C1698 1.369 . S
C1697 C1699 1.419 . S
C1697 H1701 0.930 . S
C1698 C1697 1.369 . S
C1698 C1707 1.429 . S
C1699 C1697 1.419 . S
C1699 C1700 1.363 . S
C1699 H1702 0.929 . S
C1700 C1699 1.363 . S
C1700 C1706 1.428 . S
H1701 C1697 0.930 . S
H1702 C1699 0.929 . S
S1703 N1704 1.613 . S
S1703 N1705 1.610 . S
N1704 S1703 1.613 . S
N1704 C1707 1.350 . S
N1705 S1703 1.610 . S
N1705 C1706 1.351 . S
C1706 C1700 1.428 . S
C1706 N1705 1.351 . S
C1706 C1707 1.434 . S
C1707 C1698 1.429 . S
C1707 N1704 1.350 . S
C1707 C1706 1.434 . S
C1708 C1709 1.369 . S
C1708 C1710 1.419 1_565 S
C1708 H1712 0.930 1_565 S
C1709 C1708 1.369 . S
C1709 C1718 1.429 . S
C1710 C1708 1.419 1_545 S
C1710 C1711 1.363 1_545 S
C1710 H1713 0.929 . S
C1711 C1710 1.363 1_565 S
C1711 C1717 1.428 . S
H1712 C1708 0.930 1_545 S
H1713 C1710 0.929 . S
S1714 N1715 1.613 . S
S1714 N1716 1.610 . S
N1715 S1714 1.613 . S
N1715 C1718 1.350 . S
N1716 S1714 1.610 . S
N1716 C1717 1.351 . S
C1717 C1711 1.428 . S
C1717 N1716 1.351 . S
C1717 C1718 1.434 . S
C1718 C1709 1.429 . S
C1718 N1715 1.350 . S
C1718 C1717 1.434 . S
C1719 C1720 1.378 . S
C1719 C1721 1.415 1_545 S
C1719 H1723 0.925 1_545 S
C1720 C1719 1.378 . S
C1720 C1729 1.429 . S
C1721 C1719 1.415 1_565 S
C1721 C1722 1.363 . S
C1721 H1724 0.929 . S
C1722 C1721 1.363 . S
C1722 C1728 1.428 1_565 S
H1723 C1719 0.925 1_565 S
H1724 C1721 0.929 . S
S1725 N1726 1.613 . S
S1725 N1727 1.610 . S
N1726 S1725 1.613 . S
N1726 C1729 1.350 . S
N1727 S1725 1.610 . S
N1727 C1728 1.351 . S
C1728 C1722 1.428 1_545 S
C1728 N1727 1.351 . S
C1728 C1729 1.434 . S
C1729 C1720 1.429 . S
C1729 N1726 1.350 . S
C1729 C1728 1.434 . S
C1730 C1731 1.369 . S
C1730 C1732 1.419 1_565 S
C1730 H1734 0.930 . S
C1731 C1730 1.369 . S
C1731 C1740 1.429 . S
C1732 C1730 1.419 1_545 S
C1732 C1733 1.363 . S
C1732 H1735 0.929 . S
C1733 C1732 1.363 . S
C1733 C1739 1.428 1_545 S
H1734 C1730 0.930 . S
H1735 C1732 0.929 . S
S1736 N1737 1.613 . S
S1736 N1738 1.610 . S
N1737 S1736 1.613 . S
N1737 C1740 1.350 . S
N1738 S1736 1.610 . S
N1738 C1739 1.351 . S
C1739 C1733 1.428 1_565 S
C1739 N1738 1.351 . S
C1739 C1740 1.434 . S
C1740 C1731 1.429 . S
C1740 N1737 1.350 . S
C1740 C1739 1.434 . S
C1741 C1742 1.369 . S
C1741 C1743 1.419 . S
C1741 H1745 0.930 . S
C1742 C1741 1.369 . S
C1742 C1751 1.429 1_545 S
C1743 C1741 1.419 . S
C1743 C1744 1.363 . S
C1743 H1746 0.929 . S
C1744 C1743 1.363 . S
C1744 C1750 1.428 . S
H1745 C1741 0.930 . S
H1746 C1743 0.929 . S
S1747 N1748 1.613 . S
S1747 N1749 1.610 . S
N1748 S1747 1.613 . S
N1748 C1751 1.350 . S
N1749 S1747 1.610 . S
N1749 C1750 1.351 1_565 S
C1750 C1744 1.428 . S
C1750 N1749 1.351 1_545 S
C1750 C1751 1.434 1_545 S
C1751 C1742 1.429 1_565 S
C1751 N1748 1.350 . S
C1751 C1750 1.434 1_565 S
C1752 C1753 1.369 . S
C1752 C1754 1.419 . S
C1752 H1756 0.930 . S
C1753 C1752 1.369 . S
C1753 C1762 1.429 . S
C1754 C1752 1.419 . S
C1754 C1755 1.363 . S
C1754 H1757 0.929 . S
C1755 C1754 1.363 . S
C1755 C1761 1.428 . S
H1756 C1752 0.930 . S
H1757 C1754 0.929 . S
S1758 N1759 1.613 . S
S1758 N1760 1.610 . S
N1759 S1758 1.613 . S
N1759 C1762 1.350 . S
N1760 S1758 1.610 . S
N1760 C1761 1.351 . S
C1761 C1755 1.428 . S
C1761 N1760 1.351 . S
C1761 C1762 1.434 . S
C1762 C1753 1.429 . S
C1762 N1759 1.350 . S
C1762 C1761 1.434 . S
C1763 C1764 1.369 . S
C1763 C1765 1.419 . S
C1763 H1767 0.930 . S
C1764 C1763 1.369 . S
C1764 C1773 1.429 . S
C1765 C1763 1.419 . S
C1765 C1766 1.363 . S
C1765 H1768 0.929 . S
C1766 C1765 1.363 . S
C1766 C1772 1.428 . S
H1767 C1763 0.930 . S
H1768 C1765 0.929 . S
S1769 N1770 1.613 . S
S1769 N1771 1.610 . S
N1770 S1769 1.613 . S
N1770 C1773 1.350 . S
N1771 S1769 1.610 . S
N1771 C1772 1.351 . S
C1772 C1766 1.428 . S
C1772 N1771 1.351 . S
C1772 C1773 1.434 . S
C1773 C1764 1.429 . S
C1773 N1770 1.350 . S
C1773 C1772 1.434 . S
C1774 C1775 1.369 . S
C1774 C1776 1.419 . S
C1774 H1778 0.930 . S
C1775 C1774 1.369 . S
C1775 C1784 1.429 . S
C1776 C1774 1.419 . S
C1776 C1777 1.363 . S
C1776 H1779 0.929 . S
C1777 C1776 1.363 . S
C1777 C1783 1.428 . S
H1778 C1774 0.930 . S
H1779 C1776 0.929 . S
S1780 N1781 1.613 . S
S1780 N1782 1.610 . S
N1781 S1780 1.613 . S
N1781 C1784 1.350 . S
N1782 S1780 1.610 . S
N1782 C1783 1.351 . S
C1783 C1777 1.428 . S
C1783 N1782 1.351 . S
C1783 C1784 1.434 . S
C1784 C1775 1.429 . S
C1784 N1781 1.350 . S
C1784 C1783 1.434 . S
C1785 C1786 1.369 . S
C1785 C1787 1.419 . S
C1785 H1789 0.930 . S
C1786 C1785 1.369 . S
C1786 C1795 1.429 . S
C1787 C1785 1.419 . S
C1787 C1788 1.363 . S
C1787 H1790 0.929 . S
C1788 C1787 1.363 . S
C1788 C1794 1.428 . S
H1789 C1785 0.930 . S
H1790 C1787 0.929 . S
S1791 N1792 1.613 . S
S1791 N1793 1.610 . S
N1792 S1791 1.613 . S
N1792 C1795 1.350 . S
N1793 S1791 1.610 . S
N1793 C1794 1.351 . S
C1794 C1788 1.428 . S
C1794 N1793 1.351 . S
C1794 C1795 1.434 . S
C1795 C1786 1.429 . S
C1795 N1792 1.350 . S
C1795 C1794 1.434 . S
C1796 C1797 1.369 . S
C1796 C1798 1.419 . S
C1796 H1800 0.930 . S
C1797 C1796 1.369 . S
C1797 C1806 1.429 . S
C1798 C1796 1.419 . S
C1798 C1799 1.363 . S
C1798 H1801 0.929 . S
C1799 C1798 1.363 . S
C1799 C1805 1.428 . S
H1800 C1796 0.930 . S
H1801 C1798 0.929 . S
S1802 N1803 1.613 . S
S1802 N1804 1.610 . S
N1803 S1802 1.613 . S
N1803 C1806 1.350 . S
N1804 S1802 1.610 . S
N1804 C1805 1.351 . S
C1805 C1799 1.428 . S
C1805 N1804 1.351 . S
C1805 C1806 1.434 . S
C1806 C1797 1.429 . S
C1806 N1803 1.350 . S
C1806 C1805 1.434 . S
C1807 C1808 1.369 . S
C1807 C1809 1.419 . S
C1807 H1811 0.930 . S
C1808 C1807 1.369 . S
C1808 C1817 1.429 . S
C1809 C1807 1.419 . S
C1809 C1810 1.363 . S
C1809 H1812 0.929 . S
C1810 C1809 1.363 . S
C1810 C1816 1.428 . S
H1811 C1807 0.930 . S
H1812 C1809 0.929 . S
S1813 N1814 1.613 . S
S1813 N1815 1.610 . S
N1814 S1813 1.613 . S
N1814 C1817 1.350 . S
N1815 S1813 1.610 . S
N1815 C1816 1.351 . S
C1816 C1810 1.428 . S
C1816 N1815 1.351 . S
C1816 C1817 1.434 . S
C1817 C1808 1.429 . S
C1817 N1814 1.350 . S
C1817 C1816 1.434 . S
C1818 C1819 1.369 . S
C1818 C1820 1.419 . S
C1818 H1822 0.930 . S
C1819 C1818 1.369 . S
C1819 C1828 1.429 . S
C1820 C1818 1.419 . S
C1820 C1821 1.363 . S
C1820 H1823 0.929 . S
C1821 C1820 1.363 . S
C1821 C1827 1.428 . S
H1822 C1818 0.930 . S
H1823 C1820 0.929 . S
S1824 N1825 1.613 . S
S1824 N1826 1.610 . S
N1825 S1824 1.613 . S
N1825 C1828 1.350 . S
N1826 S1824 1.610 . S
N1826 C1827 1.351 . S
C1827 C1821 1.428 . S
C1827 N1826 1.351 . S
C1827 C1828 1.434 . S
C1828 C1819 1.429 . S
C1828 N1825 1.350 . S
C1828 C1827 1.434 . S
C1829 C1830 1.369 . S
C1829 C1831 1.419 . S
C1829 H1833 0.930 . S
C1830 C1829 1.369 . S
C1830 C1839 1.429 . S
C1831 C1829 1.419 . S
C1831 C1832 1.363 . S
C1831 H1834 0.929 . S
C1832 C1831 1.363 . S
C1832 C1838 1.428 . S
H1833 C1829 0.930 . S
H1834 C1831 0.929 . S
S1835 N1836 1.613 . S
S1835 N1837 1.610 . S
N1836 S1835 1.613 . S
N1836 C1839 1.350 . S
N1837 S1835 1.610 . S
N1837 C1838 1.351 . S
C1838 C1832 1.428 . S
C1838 N1837 1.351 . S
C1838 C1839 1.434 . S
C1839 C1830 1.429 . S
C1839 N1836 1.350 . S
C1839 C1838 1.434 . S
C1840 C1841 1.369 1_565 S
C1840 C1842 1.419 . S
C1840 H1844 0.930 . S
C1841 C1840 1.369 1_545 S
C1841 C1850 1.429 . S
C1842 C1840 1.419 . S
C1842 C1843 1.363 . S
C1842 H1845 0.929 . S
C1843 C1842 1.363 . S
C1843 C1849 1.428 1_565 S
H1844 C1840 0.930 . S
H1845 C1842 0.929 . S
S1846 N1847 1.613 . S
S1846 N1848 1.610 . S
N1847 S1846 1.613 . S
N1847 C1850 1.350 . S
N1848 S1846 1.610 . S
N1848 C1849 1.351 . S
C1849 C1843 1.428 1_545 S
C1849 N1848 1.351 . S
C1849 C1850 1.434 . S
C1850 C1841 1.429 . S
C1850 N1847 1.350 . S
C1850 C1849 1.434 . S
C1851 C1852 1.369 . S
C1851 C1853 1.419 . S
C1851 H1855 0.930 . S
C1852 C1851 1.369 . S
C1852 C1861 1.429 . S
C1853 C1851 1.419 . S
C1853 C1854 1.363 . S
C1853 H1856 0.929 . S
C1854 C1853 1.363 . S
C1854 C1860 1.428 . S
H1855 C1851 0.930 . S
H1856 C1853 0.929 . S
S1857 N1858 1.613 . S
S1857 N1859 1.610 . S
N1858 S1857 1.613 . S
N1858 C1861 1.350 . S
N1859 S1857 1.610 . S
N1859 C1860 1.351 . S
C1860 C1854 1.428 . S
C1860 N1859 1.351 . S
C1860 C1861 1.434 . S
C1861 C1852 1.429 . S
C1861 N1858 1.350 . S
C1861 C1860 1.434 . S
C1862 C1863 1.369 1_565 S
C1862 C1864 1.419 . S
C1862 H1866 0.930 . S
C1863 C1862 1.369 1_545 S
C1863 C1872 1.429 . S
C1864 C1862 1.419 . S
C1864 C1865 1.363 . S
C1864 H1867 0.929 . S
C1865 C1864 1.363 . S
C1865 C1871 1.428 1_565 S
H1866 C1862 0.930 . S
H1867 C1864 0.929 . S
S1868 N1869 1.613 . S
S1868 N1870 1.610 . S
N1869 S1868 1.613 . S
N1869 C1872 1.350 . S
N1870 S1868 1.610 . S
N1870 C1871 1.351 . S
C1871 C1865 1.428 1_545 S
C1871 N1870 1.351 . S
C1871 C1872 1.434 . S
C1872 C1863 1.429 . S
C1872 N1869 1.350 . S
C1872 C1871 1.434 . S
C1873 C1874 1.369 . S
C1873 C1875 1.419 . S
C1873 H1877 0.930 . S
C1874 C1873 1.369 . S
C1874 C1883 1.429 . S
C1875 C1873 1.419 . S
C1875 C1876 1.363 . S
C1875 H1878 0.929 1_556 S
C1876 C1875 1.363 . S
C1876 C1882 1.428 . S
H1877 C1873 0.930 . S
H1878 C1875 0.929 1_554 S
S1879 N1880 1.613 . S
S1879 N1881 1.610 . S
N1880 S1879 1.613 . S
N1880 C1883 1.350 . S
N1881 S1879 1.610 . S
N1881 C1882 1.351 . S
C1882 C1876 1.428 . S
C1882 N1881 1.351 . S
C1882 C1883 1.434 . S
C1883 C1874 1.429 . S
C1883 N1880 1.350 . S
C1883 C1882 1.434 . S
C1884 C1885 1.369 . S
C1884 C1886 1.419 1_565 S
C1884 H1888 0.930 . S
C1885 C1884 1.369 . S
C1885 C1894 1.429 . S
C1886 C1884 1.419 1_545 S
C1886 C1887 1.363 . S
C1886 H1889 0.929 . S
C1887 C1886 1.363 . S
C1887 C1893 1.428 . S
H1888 C1884 0.930 . S
H1889 C1886 0.929 . S
S1890 N1891 1.613 . S
S1890 N1892 1.610 1_565 S
N1891 S1890 1.613 . S
N1891 C1894 1.350 . S
N1892 S1890 1.610 1_545 S
N1892 C1893 1.351 . S
C1893 C1887 1.428 . S
C1893 N1892 1.351 . S
C1893 C1894 1.434 1_545 S
C1894 C1885 1.429 . S
C1894 N1891 1.350 . S
C1894 C1893 1.434 1_565 S
C1895 C1896 1.369 . S
C1895 C1897 1.419 . S
C1895 H1899 0.930 . S
C1896 C1895 1.369 . S
C1896 C1905 1.429 . S
C1897 C1895 1.419 . S
C1897 C1898 1.363 . S
C1897 H1900 0.929 . S
C1898 C1897 1.363 . S
C1898 C1904 1.428 . S
H1899 C1895 0.930 . S
H1900 C1897 0.929 . S
S1901 N1902 1.613 . S
S1901 N1903 1.610 . S
N1902 S1901 1.613 . S
N1902 C1905 1.350 . S
N1903 S1901 1.610 . S
N1903 C1904 1.351 . S
C1904 C1898 1.428 . S
C1904 N1903 1.351 . S
C1904 C1905 1.434 . S
C1905 C1896 1.429 . S
C1905 N1902 1.350 . S
C1905 C1904 1.434 . S
C1906 C1907 1.369 1_545 S
C1906 C1908 1.419 . S
C1906 H1910 0.930 . S
C1907 C1906 1.369 1_565 S
C1907 C1916 1.429 . S
C1908 C1906 1.419 . S
C1908 C1909 1.363 . S
C1908 H1911 0.929 . S
C1909 C1908 1.363 . S
C1909 C1915 1.428 1_545 S
H1910 C1906 0.930 . S
H1911 C1908 0.929 . S
S1912 N1913 1.613 . S
S1912 N1914 1.610 . S
N1913 S1912 1.613 . S
N1913 C1916 1.350 . S
N1914 S1912 1.610 . S
N1914 C1915 1.351 . S
C1915 C1909 1.428 1_565 S
C1915 N1914 1.351 . S
C1915 C1916 1.434 . S
C1916 C1907 1.429 . S
C1916 N1913 1.350 . S
C1916 C1915 1.434 . S
C1917 C1918 1.369 . S
C1917 C1919 1.419 . S
C1917 H1921 0.930 . S
C1918 C1917 1.369 . S
C1918 C1927 1.429 . S
C1919 C1917 1.419 . S
C1919 C1920 1.363 . S
C1919 H1922 0.929 . S
C1920 C1919 1.363 . S
C1920 C1926 1.428 . S
H1921 C1917 0.930 . S
H1922 C1919 0.929 . S
S1923 N1924 1.613 1_556 S
S1923 N1925 1.610 . S
N1924 S1923 1.613 1_554 S
N1924 C1927 1.350 . S
N1925 S1923 1.610 . S
N1925 C1926 1.351 1_556 S
C1926 C1920 1.428 . S
C1926 N1925 1.351 1_554 S
C1926 C1927 1.434 . S
C1927 C1918 1.429 . S
C1927 N1924 1.350 . S
C1927 C1926 1.434 . S
C1928 C1929 1.369 . S
C1928 C1930 1.419 . S
C1928 H1932 0.930 . S
C1929 C1928 1.369 . S
C1929 C1938 1.429 . S
C1930 C1928 1.419 . S
C1930 C1931 1.363 . S
C1930 H1933 0.929 . S
C1931 C1930 1.363 . S
C1931 C1937 1.428 . S
H1932 C1928 0.930 . S
H1933 C1930 0.929 . S
S1934 N1935 1.613 . S
S1934 N1936 1.610 . S
N1935 S1934 1.613 . S
N1935 C1938 1.350 . S
N1936 S1934 1.610 . S
N1936 C1937 1.351 . S
C1937 C1931 1.428 . S
C1937 N1936 1.351 . S
C1937 C1938 1.434 . S
C1938 C1929 1.429 . S
C1938 N1935 1.350 . S
C1938 C1937 1.434 . S
C1939 C1940 1.369 . S
C1939 C1941 1.419 . S
C1939 H1943 0.930 . S
C1940 C1939 1.369 . S
C1940 C1949 1.429 . S
C1941 C1939 1.419 . S
C1941 C1942 1.363 . S
C1941 H1944 0.929 . S
C1942 C1941 1.363 . S
C1942 C1948 1.428 . S
H1943 C1939 0.930 . S
H1944 C1941 0.929 . S
S1945 N1946 1.613 1_554 S
S1945 N1947 1.610 . S
N1946 S1945 1.613 1_556 S
N1946 C1949 1.350 1_556 S
N1947 S1945 1.610 . S
N1947 C1948 1.351 . S
C1948 C1942 1.428 . S
C1948 N1947 1.351 . S
C1948 C1949 1.434 . S
C1949 C1940 1.429 . S
C1949 N1946 1.350 1_554 S
C1949 C1948 1.434 . S
C1950 C1951 1.369 . S
C1950 C1952 1.419 . S
C1950 H1954 0.930 . S
C1951 C1950 1.369 . S
C1951 C1960 1.429 . S
C1952 C1950 1.419 . S
C1952 C1953 1.363 . S
C1952 H1955 0.929 . S
C1953 C1952 1.363 . S
C1953 C1959 1.428 . S
H1954 C1950 0.930 . S
H1955 C1952 0.929 . S
S1956 N1957 1.613 . S
S1956 N1958 1.610 . S
N1957 S1956 1.613 . S
N1957 C1960 1.350 . S
N1958 S1956 1.610 . S
N1958 C1959 1.351 . S
C1959 C1953 1.428 . S
C1959 N1958 1.351 . S
C1959 C1960 1.434 . S
C1960 C1951 1.429 . S
C1960 N1957 1.350 . S
C1960 C1959 1.434 . S
C1961 C1962 1.369 . S
C1961 C1963 1.419 . S
C1961 H1965 0.930 . S
C1962 C1961 1.369 . S
C1962 C1971 1.429 . S
C1963 C1961 1.419 . S
C1963 C1964 1.363 . S
C1963 H1966 0.929 . S
C1964 C1963 1.363 . S
C1964 C1970 1.428 . S
H1965 C1961 0.930 . S
H1966 C1963 0.929 . S
S1967 N1968 1.613 . S
S1967 N1969 1.610 . S
N1968 S1967 1.613 . S
N1968 C1971 1.350 . S
N1969 S1967 1.610 . S
N1969 C1970 1.351 . S
C1970 C1964 1.428 . S
C1970 N1969 1.351 . S
C1970 C1971 1.434 . S
C1971 C1962 1.429 . S
C1971 N1968 1.350 . S
C1971 C1970 1.434 . S
C1972 C1973 1.369 . S
C1972 C1974 1.419 . S
C1972 H1976 0.930 . S
C1973 C1972 1.369 . S
C1973 C1982 1.429 . S
C1974 C1972 1.419 . S
C1974 C1975 1.363 . S
C1974 H1977 0.929 . S
C1975 C1974 1.363 . S
C1975 C1981 1.428 . S
H1976 C1972 0.930 . S
H1977 C1974 0.929 . S
S1978 N1979 1.613 . S
S1978 N1980 1.610 . S
N1979 S1978 1.613 . S
N1979 C1982 1.350 . S
N1980 S1978 1.610 . S
N1980 C1981 1.351 . S
C1981 C1975 1.428 . S
C1981 N1980 1.351 . S
C1981 C1982 1.434 . S
C1982 C1973 1.429 . S
C1982 N1979 1.350 . S
C1982 C1981 1.434 . S
C1983 C1984 1.369 . S
C1983 C1985 1.419 . S
C1983 H1987 0.930 . S
C1984 C1983 1.369 . S
C1984 C1993 1.429 . S
C1985 C1983 1.419 . S
C1985 C1986 1.363 . S
C1985 H1988 0.929 . S
C1986 C1985 1.363 . S
C1986 C1992 1.428 . S
H1987 C1983 0.930 . S
H1988 C1985 0.929 . S
S1989 N1990 1.613 1_554 S
S1989 N1991 1.610 . S
N1990 S1989 1.613 1_556 S
N1990 C1993 1.350 . S
N1991 S1989 1.610 . S
N1991 C1992 1.351 1_554 S
C1992 C1986 1.428 . S
C1992 N1991 1.351 1_556 S
C1992 C1993 1.434 . S
C1993 C1984 1.429 . S
C1993 N1990 1.350 . S
C1993 C1992 1.434 . S
C1994 C1995 1.369 . S
C1994 C1996 1.419 . S
C1994 H1998 0.930 . S
C1995 C1994 1.369 . S
C1995 C2004 1.429 . S
C1996 C1994 1.419 . S
C1996 C1997 1.363 . S
C1996 H1999 0.929 . S
C1997 C1996 1.363 . S
C1997 C2003 1.428 . S
H1998 C1994 0.930 . S
H1999 C1996 0.929 . S
S2000 N2001 1.613 . S
S2000 N2002 1.610 . S
N2001 S2000 1.613 . S
N2001 C2004 1.350 . S
N2002 S2000 1.610 . S
N2002 C2003 1.351 . S
C2003 C1997 1.428 . S
C2003 N2002 1.351 . S
C2003 C2004 1.434 . S
C2004 C1995 1.429 . S
C2004 N2001 1.350 . S
C2004 C2003 1.434 . S
C2005 C2006 1.369 . S
C2005 C2007 1.419 . S
C2005 H2009 0.930 . S
C2006 C2005 1.369 . S
C2006 C2015 1.429 . S
C2007 C2005 1.419 . S
C2007 C2008 1.363 . S
C2007 H2010 0.929 . S
C2008 C2007 1.363 . S
C2008 C2014 1.428 . S
H2009 C2005 0.930 . S
H2010 C2007 0.929 . S
S2011 N2012 1.613 . S
S2011 N2013 1.610 . S
N2012 S2011 1.613 . S
N2012 C2015 1.350 . S
N2013 S2011 1.610 . S
N2013 C2014 1.351 . S
C2014 C2008 1.428 . S
C2014 N2013 1.351 . S
C2014 C2015 1.434 . S
C2015 C2006 1.429 . S
C2015 N2012 1.350 . S
C2015 C2014 1.434 . S
C961 C27 1.484 . S
C963 C837 1.445 . S
C972 C57 0.572 . S
C974 N246 0.558 . S
C983 C87 0.569 . S
C985 N756 0.585 . S
C994 N306 0.806 1_565 S
C996 N96 0.900 . S
C1005 C147 1.485 . S
C1007 C897 1.440 . S
C1016 N426 0.797 1_545 S
C1018 N156 0.908 . S
C1027 N936 0.593 . S
C1029 C207 0.574 . S
C1038 C237 0.569 . S
C1040 N366 0.559 . S
C1049 C256 1.484 . S
C1051 C586 1.442 . S
C1060 C286 0.572 . S
C1062 N14 0.565 . S
C1071 N524 0.578 . S
C1073 C316 0.575 . S
C1082 N74 0.791 1_545 S
C1084 N344 0.910 . S
C1093 C376 1.484 . S
C1095 C646 1.444 . S
C1104 N404 0.901 . S
C1106 N194 0.798 1_565 S
C1115 C436 0.569 . S
C1117 N704 0.587 . S
C1126 N134 0.555 . S
C1128 C466 0.577 . S
C1137 C357 1.439 . S
C1139 C507 1.484 . S
C1148 N726 0.574 . S
C1150 C537 0.566 . S
C1159 N276 0.577 . S
C1161 C567 0.576 . S
C1170 N576 0.924 . S
C1172 N786 0.780 . S
C1181 C417 1.439 . S
C1183 C627 1.484 . S
C1192 N906 0.803 . S
C1194 N636 0.901 . S
C1203 N456 0.578 . S
C1205 C687 0.574 . S
C1214 C717 0.555 . S
C1216 N846 0.571 . S
C1225 C736 1.484 . S
C1227 C106 1.441 . S
C1236 C766 0.558 . S
C1238 N494 0.575 . S
C1247 C796 0.567 . S
C1249 N44 0.592 . S
C1258 N824 0.925 . S
C1260 N554 0.779 . S
C1269 C166 1.443 . S
C1271 C856 1.484 . S
C1280 N674 0.790 . S
C1282 N884 0.911 . S
C1291 C916 0.570 . S
C1293 N224 0.593 . S
C1302 C946 0.581 . S
C1304 N614 0.555 . S
C1313 C1 2.112 . S
C1315 C541 2.065 . S
C1324 C580 1.747 . S
C1326 C31 1.774 . S
C1335 C61 2.063 . S
C1337 C481 2.112 . S
C1346 C100 1.745 . S
C1348 C511 1.776 . S
C1357 C661 2.068 . S
C1359 C121 2.114 . S
C1368 C160 1.745 . S
C1370 C691 1.776 . S
C1379 C601 2.114 . S
C1381 C181 2.067 . S
C1390 C211 1.775 . S
C1392 C640 1.745 . S
C1401 C790 2.066 . S
C1403 C250 2.113 . S
C1412 C280 1.777 . S
C1414 C811 1.747 . S
C1423 C310 2.069 . S
C1425 C730 2.114 . S
C1434 C331 1.751 . S
C1436 C760 1.778 . S
C1445 C910 2.063 . S
C1447 C370 2.112 . S
C1456 C940 1.779 . S
C1458 C391 1.750 . S
C1467 C430 2.063 . S
C1469 C850 2.112 . S
C1478 C460 1.775 . S
C1480 C871 1.745 . S
C1489 N6 1.088 . S
C1491 N734 1.082 . S
C1500 N284 1.388 1_565 S
C1502 N36 1.401 1_545 S
C1511 N66 0.784 . S
C1513 N794 0.791 . S
C1522 C117 2.593 . S
C1524 C346 2.599 . S
C1533 N854 1.081 . S
C1535 N126 1.087 . S
C1544 C406 2.599 . S
C1546 C177 2.594 . S
C1555 N186 0.774 . S
C1557 N914 0.798 . S
C1566 N216 1.392 1_565 S
C1568 N464 1.398 1_545 S
C1577 N486 1.081 . S
C1579 N254 1.087 . S
C1588 N546 0.794 . S
C1590 N314 0.783 . S
C1599 N606 1.076 . S
C1601 N374 1.092 . S
C1610 N434 0.799 . S
C1612 N666 0.779 . S
C1621 N516 1.388 . S
C1623 N764 1.401 . S
C1632 C597 2.599 . S
C1634 C826 2.594 . S
C1643 C886 2.596 . S
C1645 C657 2.596 . S
C1654 N944 1.400 . S
C1656 N696 1.392 . S
C1665 C10 3.319 . S
C1667 C151 3.276 1_545 S
C1676 C190 2.648 . S
C1678 C40 2.671 . S
C1687 C220 2.674 . S
C1689 C70 2.645 . S
C1698 C130 3.319 . S
C1700 C91 3.276 1_565 S
C1709 C241 3.317 . S
C1711 C400 3.279 1_565 S
C1720 C271 2.670 . S
C1722 C421 2.648 . S
C1731 C451 2.670 . S
C1733 C301 2.648 . S
C1742 C340 3.275 1_545 S
C1744 C361 3.319 . S
C1753 C490 3.316 . S
C1755 C631 3.279 . S
C1764 C520 2.671 . S
C1766 C670 2.648 . S
C1775 C550 2.644 . S
C1777 C700 2.674 . S
C1786 C610 3.318 . S
C1788 C571 3.277 . S
C1797 C721 3.319 . S
C1799 C880 3.276 . S
C1808 C751 2.673 . S
C1810 C901 2.646 . S
C1819 C931 2.670 . S
C1821 C781 2.648 . S
C1830 C820 3.277 . S
C1832 C841 3.319 . S
C1841 C16 2.336 . S
C1843 C136 2.339 . S
C1852 C46 1.373 . S
C1854 N164 1.359 . S
C1863 C196 1.815 . S
C1865 C76 1.818 . S
C1874 C226 1.374 . S
C1876 N104 1.358 1_556 S
C1885 C267 2.337 . S
C1887 C387 2.338 . S
C1896 N396 1.356 . S
C1898 C297 1.376 . S
C1907 C447 1.816 . S
C1909 C327 1.819 . S
C1918 C477 1.380 . S
C1920 N336 1.354 1_554 S
C1929 C496 2.339 . S
C1931 C616 2.337 . S
C1940 N644 1.352 1_554 S
C1942 C526 1.379 . S
C1951 C556 1.815 . S
C1953 C676 1.819 . S
C1962 C706 1.380 . S
C1964 N584 1.353 . S
C1973 C867 2.336 . S
C1975 C747 2.339 . S
C1984 C777 1.377 . S
C1986 N876 1.357 1_556 S
C1995 C807 1.818 . S
C1997 C927 1.818 . S
C2006 N816 1.361 . S
C2008 C957 1.374 . S
