# Generated by pormake.
# Topology oob, (7)-cn, num edge types: 1
# Building blocks:
#     Node 0, Type 0, BuildingBlock: HICVOG_clean_sbu_0, # of connection points: 7
#     Node 1, Type 0, BuildingBlock: HICVOG_clean_sbu_0, # of connection points: 7
#     Node 2, Type 0, BuildingBlock: HICVOG_clean_sbu_0, # of connection points: 7
#     Node 3, Type 0, BuildingBlock: HICVOG_clean_sbu_0, # of connection points: 7
#     Edge 4, Type (0, 0), BuildingBlock: XUDNAN_clean_linker_2, # of connection points: 2
#     Edge 5, Type (0, 0), BuildingBlock: XUDNAN_clean_linker_2, # of connection points: 2
#     Edge 6, Type (0, 0), BuildingBlock: XUDNAN_clean_linker_2, # of connection points: 2
#     Edge 7, Type (0, 0), BuildingBlock: XUDNAN_clean_linker_2, # of connection points: 2
#     Edge 8, Type (0, 0), BuildingBlock: XUDNAN_clean_linker_2, # of connection points: 2
#     Edge 9, Type (0, 0), BuildingBlock: XUDNAN_clean_linker_2, # of connection points: 2
#     Edge 10, Type (0, 0), BuildingBlock: XUDNAN_clean_linker_2, # of connection points: 2
#     Edge 11, Type (0, 0), BuildingBlock: XUDNAN_clean_linker_2, # of connection points: 2
#     Edge 12, Type (0, 0), BuildingBlock: XUDNAN_clean_linker_2, # of connection points: 2
#     Edge 13, Type (0, 0), BuildingBlock: XUDNAN_clean_linker_2, # of connection points: 2
#     Edge 14, Type (0, 0), BuildingBlock: XUDNAN_clean_linker_2, # of connection points: 2
#     Edge 15, Type (0, 0), BuildingBlock: XUDNAN_clean_linker_2, # of connection points: 2
#     Edge 16, Type (0, 0), BuildingBlock: XUDNAN_clean_linker_2, # of connection points: 2
#     Edge 17, Type (0, 0), BuildingBlock: XUDNAN_clean_linker_2, # of connection points: 2
# Relax obj value: 0.265
# Max RMSD: 0.256
# Mean RMSD: 0.256
data_MOF--net-oob--node1-HICVOG_clean_sbu_0--edge1-XUDNAN_clean_linker_2
_symmetry_space_group_name_H-M    P1
_symmetry_Int_Tables_number       1
_symmetry_cell_setting            triclinic
loop_
_symmetry_equiv_pos_as_xyz
'x, y, z'
_cell_length_a     17.834312
_cell_length_b     39.474059
_cell_length_c     27.034855
_cell_angle_alpha  90.539659
_cell_angle_beta   106.08015
_cell_angle_gamma 90.046733
loop_
_atom_site_label
_atom_site_type_symbol
_atom_site_fract_x
_atom_site_fract_y
_atom_site_fract_z
_atom_type_partial_charge
Zn0 Zn 0.25069 0.0439 0.81041 0.0
C1 C 0.13604 0.02764 0.90936 0.0
N2 N 0.19492 0.04567 0.93974 0.0
C3 C 0.24989 0.04444 0.91441 0.0
N4 N 0.22453 0.02663 0.86994 0.0
N5 N 0.15375 1.01532 0.86748 0.0
C6 C 0.9509 1.01022 0.81017 0.0
O7 O 0.98734 0.03238 0.78917 0.0
O8 O 0.36683 0.04514 0.82095 0.0
Zn9 Zn 0.09601 0.98073 0.82101 0.0
N10 N 0.21455 0.09058 0.80466 0.0
C11 C 0.10655 0.1261 0.80371 0.0
C12 C 0.13863 0.094 0.80417 0.0
C13 C 0.26013 0.1183 0.80383 0.0
N14 N 0.15181 0.15368 0.80368 0.0
C15 C 0.22787 0.15095 0.80354 0.0
O16 O 0.09433 0.98847 0.74703 0.0
C17 C 0.13576 1.00241 0.72132 0.0
O18 O 0.19526 1.02076 0.74229 0.0
H19 H 0.10378 0.07181 0.80499 0.0
H20 H 0.32077 0.115 0.80486 0.0
C21 C 0.12361 0.9076 0.81366 0.0
C22 C 0.16611 0.87771 0.83001 0.0
C23 C 0.24412 0.90713 0.90307 0.0
C24 C 0.20245 0.93663 0.88673 0.0
N25 N 0.14356 0.93661 0.8423 0.0
N26 N 0.22549 0.8785 0.87422 0.0
H27 H 0.07715 0.90805 0.77807 0.0
C28 C 0.41686 0.02249 0.84 0.0
O29 O 0.39382 0.99375 0.85517 0.0
O30 O 0.985 0.98251 0.82606 0.0
H31 H 0.21739 0.95951 0.9092 0.0
H32 H 0.0463 0.12913 0.80379 0.0
H33 H 0.29144 0.90703 0.9382 0.0
Zn34 Zn 0.76739 0.05358 0.27944 0.0
C35 C 0.83588 0.04202 0.15128 0.0
N36 N 0.77243 0.06126 0.13299 0.0
C37 C 0.73745 0.06112 0.17092 0.0
N38 N 0.77983 0.04362 0.21172 0.0
N39 N 0.84031 0.03049 0.19903 0.0
C40 C 0.0427 0.02664 0.23197 0.0
O41 O 1.0005 0.05253 0.23906 0.0
O42 O 0.65252 0.05476 0.27459 0.0
Zn43 Zn 0.90315 0.99377 0.23619 0.0
N44 N 0.80733 0.0994 0.29439 0.0
C45 C 0.92191 0.13352 0.31358 0.0
C46 C 0.88628 0.10181 0.306 0.0
C47 C 0.76196 0.12765 0.29065 0.0
N48 N 0.87706 0.16166 0.30897 0.0
C49 C 0.79788 0.15984 0.29791 0.0
O50 O 0.91723 0.99623 0.31219 0.0
C51 C 0.89025 1.0066 0.34849 0.0
O52 O 0.83039 0.02564 0.3401 0.0
H53 H 0.92109 0.07914 0.30846 0.0
H54 H 0.69908 0.12515 0.28046 0.0
C55 C 0.87846 0.91976 0.22999 0.0
C56 C 0.83907 0.89005 0.20745 0.0
C57 C 0.7468 0.92343 0.14779 0.0
C58 C 0.78544 0.95274 0.17016 0.0
N59 N 0.85136 0.95055 0.21012 0.0
N60 N 0.77459 0.89287 0.16671 0.0
H61 H 0.9303 0.91841 0.26222 0.0
C62 C 0.60803 0.02965 0.275 0.0
O63 O 0.63763 0.99901 0.28173 0.0
O64 O 0.01336 0.99703 0.22865 0.0
H65 H 0.76351 0.97706 0.15491 0.0
H66 H 0.98469 0.13582 0.32242 0.0
H67 H 0.69508 0.92493 0.11553 0.0
Zn68 Zn 0.74511 0.5589 0.30869 0.0
C69 C 0.63146 0.52329 0.40353 0.0
N70 N 0.69609 0.53312 0.43927 0.0
C71 C 0.74754 0.53828 0.41211 0.0
N72 N 0.71418 0.5327 0.36125 0.0
N73 N 0.64192 0.5222 0.35607 0.0
C74 C 0.42399 0.50812 0.29475 0.0
O75 O 0.44094 0.53748 0.27794 0.0
O76 O 0.85636 0.54719 0.30842 0.0
Zn77 Zn 0.58104 0.49833 0.29566 0.0
N78 N 0.74268 0.60655 0.32922 0.0
C79 C 0.68705 0.64756 0.37352 0.0
C80 C 0.69367 0.61425 0.35826 0.0
C81 C 0.78395 0.63138 0.31339 0.0
N82 N 0.72754 0.67223 0.35763 0.0
C83 C 0.77564 0.66556 0.32743 0.0
O84 O 0.56169 0.52715 0.23229 0.0
C85 C 0.6013 0.54636 0.21141 0.0
O86 O 0.67 0.55665 0.23504 0.0
H87 H 0.65899 0.59476 0.36909 0.0
H88 H 0.82187 0.62439 0.29001 0.0
C89 C 0.62726 0.42551 0.28757 0.0
C90 C 0.67646 0.40121 0.27339 0.0
C91 C 0.74761 0.44613 0.24905 0.0
C92 C 0.69928 0.46965 0.26285 0.0
N93 N 0.64039 0.45927 0.28194 0.0
N94 N 0.73514 0.41282 0.2547 0.0
H95 H 0.57893 0.41798 0.3019 0.0
C96 C 0.88622 0.51832 0.32219 0.0
O97 O 0.84356 0.49501 0.33564 0.0
O98 O 0.47624 0.4853 0.30525 0.0
H99 H 0.70918 0.49626 0.25883 0.0
H100 H 0.64873 0.65391 0.39701 0.0
H101 H 0.79497 0.45424 0.2341 0.0
Zn102 Zn 0.24884 0.5469 0.73676 0.0
C103 C 0.34874 0.48571 0.65293 0.0
N104 N 0.27523 0.47464 0.6329 0.0
C105 C 0.23434 0.49191 0.65943 0.0
N106 N 0.2805 0.51235 0.69502 0.0
N107 N 0.35301 0.50625 0.69411 0.0
C108 C 0.56251 0.49426 0.73179 0.0
O109 O 0.52864 0.52107 0.70696 0.0
O110 O 0.13774 0.53621 0.73766 0.0
Zn111 Zn 0.41581 0.48793 0.75843 0.0
N112 N 0.25191 0.59102 0.70554 0.0
C113 C 0.30165 0.6244 0.64881 0.0
C114 C 0.29349 0.59327 0.6705 0.0
C115 C 0.2183 0.61904 0.7202 0.0
N116 N 0.2696 0.65236 0.66402 0.0
C117 C 0.22804 0.65081 0.69927 0.0
O118 O 0.42841 0.51938 0.82024 0.0
C119 C 0.38697 0.54028 0.83748 0.0
O120 O 0.32026 0.55001 0.81003 0.0
H121 H 0.32154 0.57119 0.66025 0.0
H122 H 0.18737 0.61676 0.74926 0.0
C123 C 0.37887 0.4152 0.77485 0.0
C124 C 0.32949 0.39098 0.7884 0.0
C125 C 0.24366 0.43525 0.79726 0.0
C126 C 0.29275 0.45887 0.78471 0.0
N127 N 0.35905 0.44873 0.77365 0.0
N128 N 0.26325 0.40213 0.79896 0.0
H129 H 0.43248 0.40774 0.76653 0.0
C130 C 0.12243 0.52259 0.77618 0.0
O131 O 0.17931 0.51751 0.81816 0.0
O132 O 0.52447 0.47566 0.75469 0.0
H133 H 0.27841 0.48538 0.7838 0.0
H134 H 0.33468 0.62647 0.6209 0.0
H135 H 0.19056 0.44313 0.80592 0.0
H136 H 0.85177 0.96941 0.84609 0.0
H137 H 0.8775 0.0711 0.79283 0.0
H138 H 0.7494 0.08642 0.80362 0.0
H139 H 0.65315 0.95976 0.7819 0.0
H140 H 0.62799 0.937 0.83259 0.0
H141 H 0.72568 0.93475 0.82627 0.0
H142 H 0.78086 0.95569 0.9207 0.0
H143 H 0.68303 0.95774 0.92723 0.0
H144 H 0.74516 0.99464 0.94092 0.0
H145 H 0.61619 0.09002 0.81347 0.0
H146 H 0.48222 0.08109 0.81881 0.0
H147 H 0.53882 0.97694 0.86487 0.0
C148 C 0.83064 0.99496 0.83716 0.0
C149 C 0.87448 1.01896 0.81824 0.0
C150 C 0.84483 0.05214 0.80695 0.0
C151 C 0.77225 0.06121 0.81327 0.0
C152 C 0.72996 0.0369 0.83118 0.0
C153 C 0.75781 1.00447 0.84308 0.0
C154 C 0.69804 0.98274 0.85865 0.0
C155 C 0.67485 0.95174 0.82269 0.0
C156 C 0.7286 0.97208 0.91523 0.0
C157 C 0.63118 1.00767 0.85142 0.0
C158 C 0.65179 0.03894 0.83662 0.0
C159 C 0.5994 0.06575 0.82542 0.0
C160 C 0.52325 0.06034 0.82839 0.0
C161 C 0.49974 0.02826 0.842 0.0
C162 C 0.55507 1.00179 0.85462 0.0
H163 H 0.49343 0.98232 0.27353 0.0
H164 H 0.52931 0.08917 0.25002 0.0
H165 H 0.38785 0.0988 0.23085 0.0
H166 H 0.30904 0.97396 0.17228 0.0
H167 H 0.26699 0.9453 0.20883 0.0
H168 H 0.3711 0.94614 0.21842 0.0
H169 H 0.39233 0.95747 0.31592 0.0
H170 H 0.28844 0.95654 0.30669 0.0
H171 H 0.34451 0.99301 0.33641 0.0
H172 H 0.24452 0.09785 0.21886 0.0
H173 H 0.10733 0.0864 0.21537 0.0
H174 H 0.16172 0.98004 0.24509 0.0
C175 C 0.4715 1.00771 0.26418 0.0
C176 C 0.52272 0.03501 0.26364 0.0
C177 C 0.49152 0.06786 0.2511 0.0
C178 C 0.41111 0.07359 0.23987 0.0
C179 C 0.36237 0.04624 0.24107 0.0
C180 C 0.39112 1.01393 0.25278 0.0
C181 C 0.32588 0.98923 0.25286 0.0
C182 C 0.31779 0.96205 0.21057 0.0
C183 C 0.33856 0.97313 0.30614 0.0
C184 C 0.25634 1.0129 0.24056 0.0
C185 C 0.27885 0.04561 0.23353 0.0
C186 C 0.22601 0.07231 0.22389 0.0
C187 C 0.14822 0.06554 0.22213 0.0
C188 C 0.12379 0.03234 0.22991 0.0
C189 C 0.1785 1.00561 0.23844 0.0
H190 H 0.30322 0.55307 0.2775 0.0
H191 H 0.37066 0.45186 0.33404 0.0
H192 H 0.24126 0.44395 0.34937 0.0
H193 H 0.19317 0.57354 0.36795 0.0
H194 H 0.12033 0.59712 0.32152 0.0
H195 H 0.21871 0.59491 0.31621 0.0
H196 H 0.16706 0.57156 0.22298 0.0
H197 H 0.06857 0.57369 0.22794 0.0
H198 H 0.10624 0.53419 0.21102 0.0
H199 H 0.10274 0.44677 0.35598 0.0
H200 H 0.96685 0.45996 0.35423 0.0
H201 H 0.99125 0.55966 0.29381 0.0
C202 C 0.291 0.5292 0.29313 0.0
C203 C 0.34689 0.50295 0.30419 0.0
C204 C 0.32854 0.47222 0.3249 0.0
C205 C 0.25532 0.46755 0.33388 0.0
C206 C 0.2014 0.49391 0.32215 0.0
C207 C 0.21854 0.52417 0.30239 0.0
C208 C 0.15037 0.54843 0.29259 0.0
C209 C 0.17195 0.58039 0.32661 0.0
C210 C 0.12136 0.55748 0.23522 0.0
C211 C 0.09144 0.5269 0.30903 0.0
C212 C 0.12212 0.49561 0.32622 0.0
C213 C 0.07825 0.47122 0.34274 0.0
C214 C 0.001 0.47896 0.34147 0.0
C215 C 0.96821 0.51083 0.32373 0.0
C216 C 0.01449 0.53509 0.30758 0.0
H217 H 0.65679 0.52222 0.67767 0.0
H218 H 0.65975 0.4543 0.80357 0.0
H219 H 0.80307 0.45101 0.82424 0.0
H220 H 0.82039 0.47943 0.64141 0.0
H221 H 0.86275 0.51789 0.62596 0.0
H222 H 0.75886 0.51489 0.61546 0.0
H223 H 0.75508 0.5669 0.67214 0.0
H224 H 0.85808 0.57273 0.68124 0.0
H225 H 0.82023 0.56944 0.73634 0.0
H226 H 0.94535 0.46132 0.8391 0.0
H227 H 0.0783 0.48016 0.84211 0.0
H228 H 0.98529 0.53895 0.70378 0.0
C229 C 0.68753 0.50607 0.70886 0.0
C230 C 0.64701 0.48857 0.73911 0.0
C231 C 0.68932 0.4678 0.7797 0.0
C232 C 0.77084 0.4658 0.7918 0.0
C233 C 0.80918 0.4841 0.76223 0.0
C234 C 0.76899 0.50325 0.72084 0.0
C235 C 0.82494 0.5212 0.69637 0.0
C236 C 0.81617 0.50753 0.64158 0.0
C237 C 0.81391 0.55986 0.69658 0.0
C238 C 0.90261 0.51086 0.73253 0.0
C239 C 0.89204 0.48915 0.76987 0.0
C240 C 0.9545 0.47781 0.80954 0.0
C241 C 0.0298 0.48888 0.81113 0.0
C242 C 0.04226 0.51105 0.77324 0.0
C243 C 0.97769 0.52183 0.73311 0.0
H244 H 0.9884 1.0068 0.65648 0.0
H245 H 0.22969 0.99021 0.65904 0.0
H246 H 0.19019 0.98469 0.56399 0.0
H247 H 0.89639 0.95158 0.5472 0.0
H248 H 0.81729 0.98044 0.52127 0.0
H249 H 0.86305 0.97963 0.58963 0.0
H250 H 0.89207 0.04393 0.58925 0.0
H251 H 0.84626 0.04496 0.52099 0.0
H252 H 0.94516 0.05986 0.54645 0.0
H253 H 0.12494 0.98117 0.46951 0.0
H254 H 0.04226 0.98697 0.38071 0.0
H255 H 0.84367 1.01117 0.43803 0.0
C256 C 0.03255 1.00147 0.6369 0.0
C257 C 0.11192 0.99833 0.66482 0.0
C258 C 0.16861 0.99242 0.63814 0.0
C259 C 0.14662 0.98911 0.58431 0.0
C260 C 0.06791 0.99244 0.5578 0.0
C261 C 0.01184 0.99903 0.58305 0.0
C262 C 0.93246 1.00455 0.54507 0.0
C263 C 0.87384 0.97743 0.55116 0.0
C264 C 0.90224 0.04046 0.55079 0.0
C265 C 0.95273 1.00019 0.49447 0.0
C266 C 0.03088 0.99253 0.50289 0.0
C267 C 0.06371 0.9872 0.46243 0.0
C268 C 0.01594 0.99043 0.41201 0.0
C269 C 0.93622 0.99954 0.40219 0.0
C270 C 0.90425 1.00418 0.44418 0.0
H271 H 0.52773 0.52677 0.90867 0.0
H272 H 0.30571 0.57713 0.89186 0.0
H273 H 0.34277 0.58909 0.98511 0.0
H274 H 0.53656 0.48634 1.02405 0.0
H275 H 0.6402 0.49151 0.05175 0.0
H276 H 0.60028 0.49 0.98293 0.0
H277 H 0.66418 0.54795 0.97537 0.0
H278 H 0.70461 0.54962 0.0443 0.0
H279 H 0.6448 0.58386 1.0116 0.0
H280 H 0.39534 0.58862 0.08115 0.0
H281 H 0.46433 0.57901 0.17282 0.0
H282 H 0.65581 0.53234 0.12825 0.0
C283 C 0.48748 0.54094 0.92434 0.0
C284 C 0.41369 0.55103 0.89257 0.0
C285 C 0.36267 0.56924 0.91502 0.0
C286 C 0.3832 0.57617 0.9681 0.0
C287 C 0.45547 0.5652 0.99839 0.0
C288 C 0.50736 0.54837 0.97729 0.0
C289 C 0.57976 0.53787 1.01885 0.0
C290 C 0.58973 0.49914 1.01941 0.0
C291 C 0.65266 0.55591 1.01212 0.0
C292 C 0.55942 0.55053 0.06671 0.0
C293 C 0.4874 0.56625 0.05396 0.0
C294 C 0.45263 0.57717 0.09156 0.0
C295 C 0.49209 0.57164 0.14344 0.0
C296 C 0.56601 0.55585 0.15732 0.0
C297 C 0.60054 0.54557 0.11851 0.0
H298 H 0.354 0.09687 0.95105 0.0
H299 H 0.32408 0.98799 0.95351 0.0
H300 H 0.43086 0.98459 0.03306 0.0
H301 H 0.57151 0.09025 0.99382 0.0
H302 H 0.58201 0.12986 1.02887 0.0
H303 H 0.50078 0.12343 0.97274 0.0
H304 H 0.40731 0.13868 1.028 0.0
H305 H 0.4884 0.14338 0.08484 0.0
H306 H 0.4104 0.11425 0.08456 0.0
H307 H 0.52593 0.99341 0.1172 0.0
H308 H 0.64913 1.00803 0.18054 0.0
H309 H 0.63686 0.10954 0.11897 0.0
C310 C 0.37221 0.07227 0.96743 0.0
C311 C 0.33077 0.04262 0.94639 0.0
C312 C 0.35543 1.01088 0.96884 0.0
C313 C 0.41493 1.0088 1.01469 0.0
C314 C 0.45111 0.03863 0.03657 0.0
C315 C 0.43463 0.06944 1.0122 0.0
C316 C 0.49036 0.09663 0.04116 0.0
C317 C 0.53909 0.11087 1.00715 0.0
C318 C 0.44644 0.12491 0.06078 0.0
C319 C 0.5399 0.07609 0.08557 0.0
C320 C 0.51312 0.04312 0.0832 0.0
C321 C 0.54827 1.01904 0.11935 0.0
C322 C 0.61749 0.02787 0.15608 0.0
C323 C 0.65192 0.06008 0.15515 0.0
C324 C 0.61053 0.08509 0.12133 0.0
H325 H 0.149 0.54945 0.63141 0.0
H326 H 0.13373 0.44004 0.63554 0.0
H327 H 0.00843 0.44142 0.56814 0.0
H328 H 0.92891 0.56537 0.60198 0.0
H329 H 0.93584 0.60045 0.56138 0.0
H330 H 0.0163 0.5908 0.61646 0.0
H331 H 0.10631 0.58795 0.55616 0.0
H332 H 0.02547 0.59556 0.50047 0.0
H333 H 0.08445 0.55822 0.50299 0.0
H334 H 0.90614 0.45291 0.4892 0.0
H335 H 0.79857 0.47508 0.41952 0.0
H336 H 0.86962 0.57793 0.46844 0.0
C337 C 0.11657 0.52611 0.62046 0.0
C338 C 0.14976 0.49462 0.63894 0.0
C339 C 0.10797 0.46432 0.62223 0.0
C340 C 0.0375 0.46486 0.58356 0.0
C341 C 0.00946 0.49602 0.56288 0.0
C342 C 0.04522 0.52628 0.58216 0.0
C343 C 0.00362 0.55602 0.55107 0.0
C344 C 0.96907 0.57953 0.58471 0.0
C345 C 0.05827 0.57558 0.52623 0.0
C346 C 0.94042 0.53747 0.5106 0.0
C347 C 0.94676 0.50285 0.5177 0.0
C348 C 0.89935 0.47997 0.48374 0.0
C349 C 0.83978 0.4928 0.44349 0.0
C350 C 0.8275 0.52813 0.43784 0.0
C351 C 0.87941 0.55086 0.47111 0.0
H352 H 0.86494 0.07929 0.07605 0.0
H353 H 0.91007 0.98056 0.14636 0.0
H354 H 0.9705 0.96223 0.07899 0.0
H355 H 0.82126 0.04999 0.94231 0.0
H356 H 0.86884 0.08578 0.92301 0.0
H357 H 0.82348 0.09026 0.97459 0.0
H358 H 0.95379 0.11205 0.03644 0.0
H359 H 0.99828 0.10882 0.98459 0.0
H360 H 0.04107 0.08724 0.04421 0.0
H361 H 0.03122 0.95591 1.00558 0.0
H362 H 0.10867 0.96575 0.94425 0.0
H363 H 0.02277 0.06846 0.92202 0.0
C364 C 0.88754 0.05374 0.07735 0.0
C365 C 0.88296 0.03135 0.11679 0.0
C366 C 0.91351 0.9983 0.11721 0.0
C367 C 0.9468 0.9875 0.0784 0.0
C368 C 0.94819 1.01002 0.03923 0.0
C369 C 0.92041 0.04266 0.039 0.0
C370 C 0.93478 0.06312 0.99557 0.0
C371 C 0.85747 0.07286 0.95657 0.0
C372 C 0.985 0.09464 1.01646 0.0
C373 C 0.97853 0.03739 0.9727 0.0
C374 C 0.98337 1.00651 0.99721 0.0
C375 C 0.02662 0.97974 0.98549 0.0
C376 C 0.06982 0.98538 0.95017 0.0
C377 C 0.06978 1.01758 0.92779 0.0
C378 C 0.02133 0.04334 0.93759 0.0
H379 H 0.47183 0.45526 0.626 0.0
H380 H 0.30414 0.53701 0.58758 0.0
H381 H 0.34409 0.54882 0.50948 0.0
H382 H 0.62153 0.49887 0.58402 0.0
H383 H 0.65614 0.46097 0.5599 0.0
H384 H 0.61176 0.4584 0.61197 0.0
H385 H 0.5121 0.41468 0.55885 0.0
H386 H 0.55471 0.4179 0.50588 0.0
H387 H 0.45207 0.42585 0.49578 0.0
H388 H 0.40161 0.55268 0.4365 0.0
H389 H 0.49322 0.55576 0.38287 0.0
H390 H 0.62293 0.47146 0.4656 0.0
C391 C 0.44503 0.47602 0.60156 0.0
C392 C 0.38663 0.49589 0.61345 0.0
C393 C 0.35129 0.52242 0.58012 0.0
C394 C 0.37221 0.52881 0.53501 0.0
C395 C 0.42856 0.50837 0.52352 0.0
C396 C 0.46596 0.48306 0.55628 0.0
C397 C 0.5288 0.46669 0.53636 0.0
C398 C 0.60936 0.47151 0.57536 0.0
C399 C 0.5108 0.42904 0.52346 0.0
C400 C 0.5213 0.4871 0.4879 0.0
C401 C 0.46175 0.51046 0.48062 0.0
C402 C 0.44757 0.53411 0.44107 0.0
C403 C 0.49883 0.53533 0.41011 0.0
C404 C 0.56243 0.51283 0.41866 0.0
C405 C 0.57216 0.48775 0.45681 0.0
H406 H 0.22182 0.2078 0.85865 0.0
H407 H 0.33169 0.16624 0.7474 0.0
H408 H 0.38627 0.22304 0.73834 0.0
H409 H 0.15989 0.28178 0.79704 0.0
H410 H 0.17698 0.30779 0.85426 0.0
H411 H 0.15813 0.26329 0.85745 0.0
H412 H 0.28786 0.2564 0.92933 0.0
H413 H 0.30697 0.30109 0.92661 0.0
H414 H 0.37801 0.27065 0.91848 0.0
H415 H 0.41133 0.28749 0.73267 0.0
H416 H 0.40673 0.35032 0.73317 0.0
H417 H 0.28376 0.34719 0.85083 0.0
C418 C 0.2591 0.21044 0.83336 0.0
C419 C 0.27293 0.18265 0.80397 0.0
C420 C 0.32141 0.18712 0.77093 0.0
C421 C 0.35235 0.21934 0.76543 0.0
C422 C 0.33536 0.24658 0.79395 0.0
C423 C 0.29082 0.2421 0.82795 0.0
C424 C 0.27563 0.2753 0.8516 0.0
C425 C 0.18747 0.28244 0.83931 0.0
C426 C 0.31446 0.27588 0.90997 0.0
C427 C 0.31556 0.29955 0.82411 0.0
C428 C 0.35062 0.28279 0.79135 0.0
C429 C 0.38546 0.30072 0.75908 0.0
C430 C 0.38295 0.33648 0.75977 0.0
C431 C 0.34528 0.35387 0.79227 0.0
C432 C 0.31325 0.33485 0.82557 0.0
H433 H 0.74416 0.35306 0.22757 0.0
H434 H 0.59439 0.36309 0.3292 0.0
H435 H 0.59604 0.30079 0.33886 0.0
H436 H 0.66818 0.27268 0.16647 0.0
H437 H 0.7639 0.25853 0.16565 0.0
H438 H 0.74119 0.30307 0.16149 0.0
H439 H 0.85931 0.3151 0.24065 0.0
H440 H 0.88239 0.27073 0.24504 0.0
H441 H 0.86679 0.29298 0.29986 0.0
H442 H 0.62371 0.23586 0.34157 0.0
H443 H 0.68086 0.17837 0.34161 0.0
H444 H 0.81765 0.21419 0.2429 0.0
C445 C 0.71058 0.34253 0.25156 0.0
C446 C 0.66872 0.36357 0.27726 0.0
C447 C 0.62607 0.34799 0.3082 0.0
C448 C 0.62686 0.31243 0.31408 0.0
C449 C 0.67044 0.29275 0.28885 0.0
C450 C 0.71153 0.30755 0.25826 0.0
C451 C 0.75959 0.28193 0.23856 0.0
C452 C 0.7315 0.27888 0.17954 0.0
C453 C 0.84716 0.29071 0.25717 0.0
C454 C 0.74098 0.25026 0.26373 0.0
C455 C 0.68825 0.25656 0.29181 0.0
C456 C 0.66454 0.23079 0.31936 0.0
C457 C 0.69689 0.19818 0.31899 0.0
C458 C 0.75333 0.19194 0.29207 0.0
C459 C 0.77436 0.21826 0.26363 0.0
H460 H 0.83705 0.86267 0.29946 0.0
H461 H 0.88673 0.83958 0.15501 0.0
H462 H 0.89688 0.77871 0.17666 0.0
H463 H 0.95754 0.79222 0.3782 0.0
H464 H 0.88443 0.78484 0.41149 0.0
H465 H 0.89896 0.82688 0.3902 0.0
H466 H 0.75245 0.82964 0.34031 0.0
H467 H 0.73763 0.78762 0.36087 0.0
H468 H 0.71118 0.79721 0.29319 0.0
H469 H 0.87919 0.72011 0.20683 0.0
H470 H 0.83546 0.66909 0.24241 0.0
H471 H 0.79635 0.7298 0.36789 0.0
C472 C 0.85394 0.84487 0.27379 0.0
C473 C 0.86368 0.85572 0.22637 0.0
C474 C 0.88125 0.83168 0.19213 0.0
C475 C 0.88695 0.79709 0.2041 0.0
C476 C 0.87435 0.78689 0.25039 0.0
C477 C 0.85879 0.81012 0.28496 0.0
C478 C 0.83723 0.79229 0.32856 0.0
C479 C 0.89819 0.79948 0.38018 0.0
C480 C 0.75475 0.80228 0.33082 0.0
C481 C 0.84004 0.75558 0.31206 0.0
C482 C 0.86284 0.75293 0.2674 0.0
C483 C 0.86313 0.72179 0.24255 0.0
C484 C 0.83836 0.69272 0.26339 0.0
C485 C 0.81308 0.69489 0.3087 0.0
C486 C 0.81581 0.72687 0.33356 0.0
H487 H 0.30371 0.71123 0.71562 0.0
H488 H 0.08814 0.66296 0.72189 0.0
H489 H 0.04213 0.71781 0.74822 0.0
H490 H 0.32641 0.76233 0.82734 0.0
H491 H 0.36793 0.79762 0.80212 0.0
H492 H 0.37979 0.75524 0.78049 0.0
H493 H 0.3189 0.77358 0.68603 0.0
H494 H 0.30597 0.81597 0.7075 0.0
H495 H 0.22353 0.79271 0.66818 0.0
H496 H 0.02098 0.7792 0.77445 0.0
H497 H 0.03415 0.8383 0.8085 0.0
H498 H 0.26654 0.844 0.78881 0.0
C499 C 0.24647 0.71222 0.7221 0.0
C500 C 0.19936 0.68289 0.71652 0.0
C501 C 0.12543 0.68508 0.72628 0.0
C502 C 0.0986 0.71619 0.74077 0.0
C503 C 0.14667 0.74473 0.7457 0.0
C504 C 0.21954 0.74275 0.73728 0.0
C505 C 0.26268 0.7762 0.74849 0.0
C506 C 0.33866 0.77262 0.79221 0.0
C507 C 0.27869 0.79045 0.69963 0.0
C508 C 0.20323 0.7974 0.76512 0.0
C509 C 0.1359 0.77915 0.76234 0.0
C510 C 0.07336 0.79366 0.77655 0.0
C511 C 0.08095 0.82725 0.79541 0.0
C512 C 0.1509 0.84559 0.8005 0.0
C513 C 0.21208 0.83056 0.78453 0.0
loop_
_geom_bond_atom_site_label_1
_geom_bond_atom_site_label_2
_geom_bond_distance
_geom_bond_site_symmetry_2
_ccdc_geom_bond_type
Zn0 N4 2.020 . S
Zn0 O8 2.019 . S
Zn0 N10 2.119 . S
Zn0 O18 1.975 . S
C1 N2 1.337 . S
C1 N5 1.336 . S
N2 C1 1.337 . S
N2 C3 1.331 1_565 S
C3 N2 1.331 1_545 S
C3 N4 1.336 . S
N4 Zn0 2.020 . S
N4 C3 1.336 . S
N4 N5 1.354 1_545 S
N5 C1 1.336 . S
N5 N4 1.354 1_565 S
N5 Zn9 2.020 . S
C6 O7 1.244 1_565 S
C6 O30 1.257 . S
O7 C6 1.244 1_545 S
O8 Zn0 2.019 . S
O8 C28 1.257 . S
Zn9 N5 2.020 . S
Zn9 O16 1.975 . S
Zn9 N25 2.119 . S
Zn9 O30 2.019 1_455 S
N10 Zn0 2.119 . S
N10 C12 1.334 . S
N10 C13 1.328 . S
C11 C12 1.391 . S
C11 N14 1.329 . S
C11 H32 0.930 . S
C12 N10 1.334 . S
C12 C11 1.391 . S
C12 H19 0.930 . S
C13 N10 1.328 . S
C13 C15 1.392 . S
C13 H20 0.930 . S
N14 C11 1.329 . S
N14 C15 1.331 . S
C15 C13 1.392 . S
C15 N14 1.331 . S
O16 Zn9 1.975 . S
O16 C17 1.250 1_565 S
C17 O16 1.250 1_545 S
C17 O18 1.254 . S
O18 Zn0 1.975 . S
O18 C17 1.254 . S
H19 C12 0.930 . S
H20 C13 0.930 . S
C21 C22 1.392 . S
C21 N25 1.328 . S
C21 H27 0.930 . S
C22 C21 1.392 . S
C22 N26 1.331 . S
C23 C24 1.391 . S
C23 N26 1.329 . S
C23 H33 0.930 . S
C24 C23 1.391 . S
C24 N25 1.334 . S
C24 H31 0.930 . S
N25 Zn9 2.119 . S
N25 C21 1.328 . S
N25 C24 1.334 . S
N26 C22 1.331 . S
N26 C23 1.329 . S
H27 C21 0.930 . S
C28 O8 1.257 . S
C28 O29 1.244 1_545 S
O29 C28 1.244 1_565 S
O30 C6 1.257 . S
O30 Zn9 2.019 1_655 S
H31 C24 0.930 . S
H32 C11 0.930 . S
H33 C23 0.930 . S
Zn34 N38 2.020 . S
Zn34 O42 2.019 . S
Zn34 N44 2.119 . S
Zn34 O52 1.975 . S
C35 N36 1.337 . S
C35 N39 1.336 . S
N36 C35 1.337 . S
N36 C37 1.331 1_565 S
C37 N36 1.331 1_545 S
C37 N38 1.336 . S
N38 Zn34 2.020 . S
N38 C37 1.336 . S
N38 N39 1.354 1_545 S
N39 C35 1.336 . S
N39 N38 1.354 1_565 S
N39 Zn43 2.020 . S
C40 O41 1.244 1_565 S
C40 O64 1.257 . S
O41 C40 1.244 1_545 S
O42 Zn34 2.019 . S
O42 C62 1.257 . S
Zn43 N39 2.020 . S
Zn43 O50 1.975 . S
Zn43 N59 2.119 . S
Zn43 O64 2.019 1_655 S
N44 Zn34 2.119 . S
N44 C46 1.334 . S
N44 C47 1.328 . S
C45 C46 1.391 . S
C45 N48 1.329 . S
C45 H66 0.930 . S
C46 N44 1.334 . S
C46 C45 1.391 . S
C46 H53 0.930 . S
C47 N44 1.328 . S
C47 C49 1.392 . S
C47 H54 0.930 . S
N48 C45 1.329 . S
N48 C49 1.331 . S
C49 C47 1.392 . S
C49 N48 1.331 . S
O50 Zn43 1.975 . S
O50 C51 1.250 1_565 S
C51 O50 1.250 1_545 S
C51 O52 1.254 . S
O52 Zn34 1.975 . S
O52 C51 1.254 . S
H53 C46 0.930 . S
H54 C47 0.930 . S
C55 C56 1.392 . S
C55 N59 1.328 . S
C55 H61 0.930 . S
C56 C55 1.392 . S
C56 N60 1.331 . S
C57 C58 1.391 . S
C57 N60 1.329 . S
C57 H67 0.930 . S
C58 C57 1.391 . S
C58 N59 1.334 . S
C58 H65 0.930 . S
N59 Zn43 2.119 . S
N59 C55 1.328 . S
N59 C58 1.334 . S
N60 C56 1.331 . S
N60 C57 1.329 . S
H61 C55 0.930 . S
C62 O42 1.257 . S
C62 O63 1.244 1_545 S
O63 C62 1.244 1_565 S
O64 C40 1.257 . S
O64 Zn43 2.019 1_455 S
H65 C58 0.930 . S
H66 C45 0.930 . S
H67 C57 0.930 . S
Zn68 N72 2.020 . S
Zn68 O76 2.019 . S
Zn68 N78 2.119 . S
Zn68 O86 1.975 . S
C69 N70 1.334 . S
C69 N73 1.336 . S
N70 C69 1.334 . S
N70 C71 1.334 . S
C71 N70 1.334 . S
C71 N72 1.336 . S
N72 Zn68 2.020 . S
N72 C71 1.336 . S
N72 N73 1.354 . S
N73 C69 1.336 . S
N73 N72 1.354 . S
N73 Zn77 2.020 . S
C74 O75 1.244 . S
C74 O98 1.257 . S
O75 C74 1.244 . S
O76 Zn68 2.019 . S
O76 C96 1.257 . S
Zn77 N73 2.020 . S
Zn77 O84 1.975 . S
Zn77 N93 2.119 . S
Zn77 O98 2.019 . S
N78 Zn68 2.119 . S
N78 C80 1.334 . S
N78 C81 1.328 . S
C79 C80 1.391 . S
C79 N82 1.329 . S
C79 H100 0.930 . S
C80 N78 1.334 . S
C80 C79 1.391 . S
C80 H87 0.930 . S
C81 N78 1.328 . S
C81 C83 1.392 . S
C81 H88 0.930 . S
N82 C79 1.329 . S
N82 C83 1.331 . S
C83 C81 1.392 . S
C83 N82 1.331 . S
O84 Zn77 1.975 . S
O84 C85 1.252 . S
C85 O84 1.252 . S
C85 O86 1.252 . S
O86 Zn68 1.975 . S
O86 C85 1.252 . S
H87 C80 0.930 . S
H88 C81 0.930 . S
C89 C90 1.392 . S
C89 N93 1.328 . S
C89 H95 0.930 . S
C90 C89 1.392 . S
C90 N94 1.331 . S
C91 C92 1.391 . S
C91 N94 1.329 . S
C91 H101 0.930 . S
C92 C91 1.391 . S
C92 N93 1.334 . S
C92 H99 0.930 . S
N93 Zn77 2.119 . S
N93 C89 1.328 . S
N93 C92 1.334 . S
N94 C90 1.331 . S
N94 C91 1.329 . S
H95 C89 0.930 . S
C96 O76 1.257 . S
C96 O97 1.244 . S
O97 C96 1.244 . S
O98 C74 1.257 . S
O98 Zn77 2.019 . S
H99 C92 0.930 . S
H100 C79 0.930 . S
H101 C91 0.930 . S
Zn102 N106 2.020 . S
Zn102 O110 2.019 . S
Zn102 N112 2.119 . S
Zn102 O120 1.975 . S
C103 N104 1.334 . S
C103 N107 1.336 . S
N104 C103 1.334 . S
N104 C105 1.334 . S
C105 N104 1.334 . S
C105 N106 1.336 . S
N106 Zn102 2.020 . S
N106 C105 1.336 . S
N106 N107 1.354 . S
N107 C103 1.336 . S
N107 N106 1.354 . S
N107 Zn111 2.020 . S
C108 O109 1.244 . S
C108 O132 1.257 . S
O109 C108 1.244 . S
O110 Zn102 2.019 . S
O110 C130 1.257 . S
Zn111 N107 2.020 . S
Zn111 O118 1.975 . S
Zn111 N127 2.119 . S
Zn111 O132 2.019 . S
N112 Zn102 2.119 . S
N112 C114 1.334 . S
N112 C115 1.328 . S
C113 C114 1.391 . S
C113 N116 1.329 . S
C113 H134 0.930 . S
C114 N112 1.334 . S
C114 C113 1.391 . S
C114 H121 0.930 . S
C115 N112 1.328 . S
C115 C117 1.392 . S
C115 H122 0.930 . S
N116 C113 1.329 . S
N116 C117 1.331 . S
C117 C115 1.392 . S
C117 N116 1.331 . S
O118 Zn111 1.975 . S
O118 C119 1.252 . S
C119 O118 1.252 . S
C119 O120 1.252 . S
O120 Zn102 1.975 . S
O120 C119 1.252 . S
H121 C114 0.930 . S
H122 C115 0.930 . S
C123 C124 1.392 . S
C123 N127 1.328 . S
C123 H129 0.930 . S
C124 C123 1.392 . S
C124 N128 1.331 . S
C125 C126 1.391 . S
C125 N128 1.329 . S
C125 H135 0.930 . S
C126 C125 1.391 . S
C126 N127 1.334 . S
C126 H133 0.930 . S
N127 Zn111 2.119 . S
N127 C123 1.328 . S
N127 C126 1.334 . S
N128 C124 1.331 . S
N128 C125 1.329 . S
H129 C123 0.930 . S
C130 O110 1.257 . S
C130 O131 1.244 . S
O131 C130 1.244 . S
O132 C108 1.257 . S
O132 Zn111 2.019 . S
H133 C126 0.930 . S
H134 C113 0.930 . S
H135 C125 0.930 . S
H136 C148 0.930 . S
H137 C150 0.930 . S
H138 C151 0.930 . S
H139 C155 0.959 . S
H140 C155 0.959 . S
H141 C155 0.961 . S
H142 C156 0.960 . S
H143 C156 0.961 . S
H144 C156 0.959 1_545 S
H145 C159 0.929 . S
H146 C160 0.931 . S
H147 C162 0.930 . S
C148 H136 0.930 . S
C148 C149 1.399 . S
C148 C153 1.399 . S
C149 C148 1.399 . S
C149 C150 1.376 1_565 S
C150 H137 0.930 . S
C150 C149 1.376 1_545 S
C150 C151 1.388 . S
C151 H138 0.930 . S
C151 C150 1.388 . S
C151 C152 1.390 . S
C152 C151 1.390 . S
C152 C153 1.394 1_545 S
C152 C158 1.465 . S
C153 C148 1.399 . S
C153 C152 1.394 1_565 S
C153 C154 1.516 . S
C154 C153 1.516 . S
C154 C155 1.502 . S
C154 C156 1.561 . S
C154 C157 1.526 . S
C155 H139 0.959 . S
C155 H140 0.959 . S
C155 H141 0.961 . S
C155 C154 1.502 . S
C156 H142 0.960 . S
C156 H143 0.961 . S
C156 H144 0.959 1_565 S
C156 C154 1.561 . S
C157 C154 1.526 . S
C157 C158 1.396 1_565 S
C157 C162 1.390 . S
C158 C152 1.465 . S
C158 C157 1.396 1_545 S
C158 C159 1.399 . S
C159 H145 0.929 . S
C159 C158 1.399 . S
C159 C160 1.385 . S
C160 H146 0.931 . S
C160 C159 1.385 . S
C160 C161 1.389 . S
C161 C160 1.389 . S
C161 C162 1.387 1_545 S
C162 H147 0.930 . S
C162 C157 1.390 . S
C162 C161 1.387 1_565 S
H163 C175 0.930 1_565 S
H164 C177 0.930 . S
H165 C178 0.930 . S
H166 C182 0.945 1_545 S
H167 C182 0.966 . S
H168 C182 0.962 . S
H169 C183 0.960 . S
H170 C183 0.961 . S
H171 C183 0.959 . S
H172 C186 0.929 . S
H173 C187 0.931 1_545 S
H174 C189 0.930 . S
C175 H163 0.930 1_545 S
C175 C176 1.399 . S
C175 C180 1.399 1_545 S
C176 C175 1.399 . S
C176 C177 1.376 . S
C177 H164 0.930 . S
C177 C176 1.376 . S
C177 C178 1.388 . S
C178 H165 0.930 . S
C178 C177 1.388 . S
C178 C179 1.390 . S
C179 C178 1.390 . S
C179 C180 1.394 1_545 S
C179 C185 1.464 1_545 S
C180 C175 1.399 1_565 S
C180 C179 1.394 1_565 S
C180 C181 1.516 . S
C181 C180 1.516 . S
C181 C182 1.509 . S
C181 C183 1.561 . S
C181 C184 1.526 . S
C182 H166 0.945 1_565 S
C182 H167 0.966 . S
C182 H168 0.962 . S
C182 C181 1.509 . S
C183 H169 0.960 . S
C183 H170 0.961 . S
C183 H171 0.959 . S
C183 C181 1.561 . S
C184 C181 1.526 . S
C184 C185 1.398 . S
C184 C189 1.390 . S
C185 C179 1.464 1_565 S
C185 C184 1.398 . S
C185 C186 1.398 1_565 S
C186 H172 0.929 . S
C186 C185 1.398 1_545 S
C186 C187 1.385 1_545 S
C187 H173 0.931 1_565 S
C187 C186 1.385 1_565 S
C187 C188 1.389 . S
C188 C187 1.389 . S
C188 C189 1.387 . S
C189 H174 0.930 . S
C189 C184 1.390 . S
C189 C188 1.387 . S
H190 C202 0.930 . S
H191 C204 0.930 . S
H192 C205 0.930 . S
H193 C209 0.959 . S
H194 C209 0.959 . S
H195 C209 0.961 . S
H196 C210 0.960 . S
H197 C210 0.961 . S
H198 C210 0.959 . S
H199 C213 0.929 . S
H200 C214 0.931 . S
H201 C216 0.930 . S
C202 H190 0.930 . S
C202 C203 1.399 . S
C202 C207 1.399 . S
C203 C202 1.399 . S
C203 C204 1.376 . S
C204 H191 0.930 . S
C204 C203 1.376 . S
C204 C205 1.388 . S
C205 H192 0.930 . S
C205 C204 1.388 . S
C205 C206 1.390 . S
C206 C205 1.390 . S
C206 C207 1.394 . S
C206 C212 1.465 . S
C207 C202 1.399 . S
C207 C206 1.394 . S
C207 C208 1.516 . S
C208 C207 1.516 . S
C208 C209 1.502 . S
C208 C210 1.561 . S
C208 C211 1.526 . S
C209 H193 0.959 . S
C209 H194 0.959 . S
C209 H195 0.961 . S
C209 C208 1.502 . S
C210 H196 0.960 . S
C210 H197 0.961 . S
C210 H198 0.959 . S
C210 C208 1.561 . S
C211 C208 1.526 . S
C211 C212 1.396 . S
C211 C216 1.390 . S
C212 C206 1.465 . S
C212 C211 1.396 . S
C212 C213 1.399 . S
C213 H199 0.929 . S
C213 C212 1.399 . S
C213 C214 1.385 1_455 S
C214 H200 0.931 . S
C214 C213 1.385 1_655 S
C214 C215 1.389 . S
C215 C214 1.389 . S
C215 C216 1.387 1_655 S
C216 H201 0.930 . S
C216 C211 1.390 . S
C216 C215 1.387 1_455 S
H217 C229 0.930 . S
H218 C231 0.930 . S
H219 C232 0.930 . S
H220 C236 0.959 . S
H221 C236 0.959 . S
H222 C236 0.961 . S
H223 C237 0.960 . S
H224 C237 0.961 . S
H225 C237 0.959 . S
H226 C240 0.929 . S
H227 C241 0.931 . S
H228 C243 0.930 . S
C229 H217 0.930 . S
C229 C230 1.399 . S
C229 C234 1.399 . S
C230 C229 1.399 . S
C230 C231 1.376 . S
C231 H218 0.930 . S
C231 C230 1.376 . S
C231 C232 1.388 . S
C232 H219 0.930 . S
C232 C231 1.388 . S
C232 C233 1.390 . S
C233 C232 1.390 . S
C233 C234 1.394 . S
C233 C239 1.465 . S
C234 C229 1.399 . S
C234 C233 1.394 . S
C234 C235 1.516 . S
C235 C234 1.516 . S
C235 C236 1.502 . S
C235 C237 1.561 . S
C235 C238 1.526 . S
C236 H220 0.959 . S
C236 H221 0.959 . S
C236 H222 0.961 . S
C236 C235 1.502 . S
C237 H223 0.960 . S
C237 H224 0.961 . S
C237 H225 0.959 . S
C237 C235 1.561 . S
C238 C235 1.526 . S
C238 C239 1.396 . S
C238 C243 1.390 . S
C239 C233 1.465 . S
C239 C238 1.396 . S
C239 C240 1.399 . S
C240 H226 0.929 . S
C240 C239 1.399 . S
C240 C241 1.385 1_655 S
C241 H227 0.931 . S
C241 C240 1.385 1_455 S
C241 C242 1.389 . S
C242 C241 1.389 . S
C242 C243 1.387 1_455 S
C243 H228 0.930 . S
C243 C238 1.390 . S
C243 C242 1.387 1_655 S
H244 C256 0.930 1_655 S
H245 C258 0.930 1_565 S
H246 C259 0.928 1_565 S
H247 C263 0.959 . S
H248 C263 0.959 . S
H249 C263 0.961 . S
H250 C264 0.960 . S
H251 C264 0.961 . S
H252 C264 0.959 . S
H253 C267 0.931 . S
H254 C268 0.931 1_455 S
H255 C270 0.930 . S
C256 H244 0.930 1_455 S
C256 C257 1.399 . S
C256 C261 1.399 . S
C257 C256 1.399 . S
C257 C258 1.377 . S
C258 H245 0.930 1_545 S
C258 C257 1.377 . S
C258 C259 1.388 . S
C259 H246 0.928 1_545 S
C259 C258 1.388 . S
C259 C260 1.391 . S
C260 C259 1.391 . S
C260 C261 1.394 . S
C260 C266 1.465 . S
C261 C256 1.399 . S
C261 C260 1.394 . S
C261 C262 1.516 1_455 S
C262 C261 1.516 1_655 S
C262 C263 1.502 1_545 S
C262 C264 1.561 . S
C262 C265 1.526 . S
C263 H247 0.959 . S
C263 H248 0.959 . S
C263 H249 0.961 . S
C263 C262 1.502 1_565 S
C264 H250 0.960 . S
C264 H251 0.961 . S
C264 H252 0.959 . S
C264 C262 1.561 . S
C265 C262 1.526 . S
C265 C266 1.396 1_655 S
C265 C270 1.390 . S
C266 C260 1.465 . S
C266 C265 1.396 1_455 S
C266 C267 1.397 1_545 S
C267 H253 0.931 . S
C267 C266 1.397 1_565 S
C267 C268 1.386 1_455 S
C268 H254 0.931 1_655 S
C268 C267 1.386 1_655 S
C268 C269 1.388 1_565 S
C269 C268 1.388 1_545 S
C269 C270 1.389 . S
C270 H255 0.930 . S
C270 C265 1.390 . S
C270 C269 1.389 . S
H271 C283 0.930 . S
H272 C285 0.930 . S
H273 C286 0.930 . S
H274 C290 0.959 . S
H275 C290 0.959 . S
H276 C290 0.961 . S
H277 C291 0.960 . S
H278 C291 0.956 1_554 S
H279 C291 0.959 . S
H280 C294 0.929 . S
H281 C295 0.931 . S
H282 C297 0.930 . S
C283 H271 0.930 . S
C283 C284 1.399 . S
C283 C288 1.399 . S
C284 C283 1.399 . S
C284 C285 1.376 . S
C285 H272 0.930 . S
C285 C284 1.376 . S
C285 C286 1.388 . S
C286 H273 0.930 . S
C286 C285 1.388 . S
C286 C287 1.390 . S
C287 C286 1.390 . S
C287 C288 1.394 . S
C287 C293 1.465 1_556 S
C288 C283 1.399 . S
C288 C287 1.394 . S
C288 C289 1.516 . S
C289 C288 1.516 . S
C289 C290 1.502 . S
C289 C291 1.561 . S
C289 C292 1.526 1_556 S
C290 H274 0.959 . S
C290 H275 0.959 . S
C290 H276 0.961 . S
C290 C289 1.502 . S
C291 H277 0.960 . S
C291 H278 0.956 1_556 S
C291 H279 0.959 . S
C291 C289 1.561 . S
C292 C289 1.526 1_554 S
C292 C293 1.396 . S
C292 C297 1.390 . S
C293 C287 1.465 1_554 S
C293 C292 1.396 . S
C293 C294 1.399 . S
C294 H280 0.929 . S
C294 C293 1.399 . S
C294 C295 1.385 . S
C295 H281 0.931 . S
C295 C294 1.385 . S
C295 C296 1.389 . S
C296 C295 1.389 . S
C296 C297 1.387 . S
C297 H282 0.930 . S
C297 C292 1.390 . S
C297 C296 1.387 . S
H298 C310 0.930 . S
H299 C312 0.930 . S
H300 C313 0.930 . S
H301 C317 0.959 . S
H302 C317 0.959 . S
H303 C317 0.961 . S
H304 C318 0.960 1_556 S
H305 C318 0.961 . S
H306 C318 0.959 . S
H307 C321 0.929 . S
H308 C322 0.931 . S
H309 C324 0.930 . S
C310 H298 0.930 . S
C310 C311 1.399 . S
C310 C315 1.399 . S
C311 C310 1.399 . S
C311 C312 1.376 1_545 S
C312 H299 0.930 . S
C312 C311 1.376 1_565 S
C312 C313 1.388 . S
C313 H300 0.930 . S
C313 C312 1.388 . S
C313 C314 1.390 1_565 S
C314 C313 1.390 1_545 S
C314 C315 1.394 . S
C314 C320 1.465 1_556 S
C315 C310 1.399 . S
C315 C314 1.394 . S
C315 C316 1.516 . S
C316 C315 1.516 . S
C316 C317 1.502 . S
C316 C318 1.561 1_556 S
C316 C319 1.526 1_556 S
C317 H301 0.959 . S
C317 H302 0.959 . S
C317 H303 0.961 . S
C317 C316 1.502 . S
C318 H304 0.960 1_554 S
C318 H305 0.961 . S
C318 H306 0.959 . S
C318 C316 1.561 1_554 S
C319 C316 1.526 1_554 S
C319 C320 1.396 . S
C319 C324 1.390 . S
C320 C314 1.465 1_554 S
C320 C319 1.396 . S
C320 C321 1.399 1_545 S
C321 H307 0.929 . S
C321 C320 1.399 1_565 S
C321 C322 1.385 . S
C322 H308 0.931 . S
C322 C321 1.385 . S
C322 C323 1.389 1_565 S
C323 C322 1.389 1_545 S
C323 C324 1.387 . S
C324 H309 0.930 . S
C324 C319 1.390 . S
C324 C323 1.387 . S
H325 C337 0.930 . S
H326 C339 0.930 . S
H327 C340 0.930 . S
H328 C344 0.959 . S
H329 C344 0.959 . S
H330 C344 0.961 . S
H331 C345 0.960 . S
H332 C345 0.961 1_655 S
H333 C345 0.959 . S
H334 C348 0.929 . S
H335 C349 0.931 . S
H336 C351 0.930 . S
C337 H325 0.930 . S
C337 C338 1.399 . S
C337 C342 1.399 . S
C338 C337 1.399 . S
C338 C339 1.376 . S
C339 H326 0.930 . S
C339 C338 1.376 . S
C339 C340 1.388 . S
C340 H327 0.930 . S
C340 C339 1.388 . S
C340 C341 1.390 . S
C341 C340 1.390 . S
C341 C342 1.394 . S
C341 C347 1.465 1_455 S
C342 C337 1.399 . S
C342 C341 1.394 . S
C342 C343 1.516 1_455 S
C343 C342 1.516 1_655 S
C343 C344 1.502 . S
C343 C345 1.561 1_655 S
C343 C346 1.526 . S
C344 H328 0.959 . S
C344 H329 0.959 . S
C344 H330 0.961 . S
C344 C343 1.502 . S
C345 H331 0.960 . S
C345 H332 0.961 1_455 S
C345 H333 0.959 . S
C345 C343 1.561 1_455 S
C346 C343 1.526 . S
C346 C347 1.396 . S
C346 C351 1.390 . S
C347 C341 1.465 1_655 S
C347 C346 1.396 . S
C347 C348 1.399 . S
C348 H334 0.929 . S
C348 C347 1.399 . S
C348 C349 1.385 . S
C349 H335 0.931 . S
C349 C348 1.385 . S
C349 C350 1.389 . S
C350 C349 1.389 . S
C350 C351 1.387 . S
C351 H336 0.930 . S
C351 C346 1.390 . S
C351 C350 1.387 . S
H352 C364 0.928 . S
H353 C366 0.930 . S
H354 C367 0.930 1_455 S
H355 C371 0.959 . S
H356 C371 0.959 . S
H357 C371 0.961 . S
H358 C372 0.960 . S
H359 C372 0.961 1_556 S
H360 C372 0.959 . S
H361 C375 0.929 . S
H362 C376 0.931 . S
H363 C378 0.920 1_545 S
C364 H352 0.928 . S
C364 C365 1.401 1_545 S
C364 C369 1.399 1_545 S
C365 C364 1.401 1_565 S
C365 C366 1.376 . S
C366 H353 0.930 . S
C366 C365 1.376 . S
C366 C367 1.388 . S
C367 H354 0.930 1_655 S
C367 C366 1.388 . S
C367 C368 1.390 . S
C368 C367 1.390 . S
C368 C369 1.394 . S
C368 C374 1.465 1_654 S
C369 C364 1.399 1_565 S
C369 C368 1.394 . S
C369 C370 1.516 1_564 S
C370 C369 1.516 1_546 S
C370 C371 1.502 . S
C370 C372 1.561 1_656 S
C370 C373 1.526 1_645 S
C371 H355 0.959 . S
C371 H356 0.959 . S
C371 H357 0.961 . S
C371 C370 1.502 . S
C372 H358 0.960 . S
C372 H359 0.961 1_554 S
C372 H360 0.959 . S
C372 C370 1.561 1_454 S
C373 C370 1.526 1_465 S
C373 C374 1.396 . S
C373 C378 1.392 . S
C374 C368 1.465 1_456 S
C374 C373 1.396 . S
C374 C375 1.399 . S
C375 H361 0.929 . S
C375 C374 1.399 . S
C375 C376 1.385 . S
C376 H362 0.931 . S
C376 C375 1.385 . S
C376 C377 1.389 . S
C377 C376 1.389 . S
C377 C378 1.395 . S
C378 H363 0.920 1_565 S
C378 C373 1.392 . S
C378 C377 1.395 . S
H379 C391 0.930 . S
H380 C393 0.930 . S
H381 C394 0.930 . S
H382 C398 0.959 . S
H383 C398 0.959 . S
H384 C398 0.961 . S
H385 C399 0.960 . S
H386 C399 0.961 . S
H387 C399 0.959 . S
H388 C402 0.929 . S
H389 C403 0.931 . S
H390 C405 0.930 . S
C391 H379 0.930 . S
C391 C392 1.399 . S
C391 C396 1.399 . S
C392 C391 1.399 . S
C392 C393 1.376 . S
C393 H380 0.930 . S
C393 C392 1.376 . S
C393 C394 1.388 . S
C394 H381 0.930 . S
C394 C393 1.388 . S
C394 C395 1.390 . S
C395 C394 1.390 . S
C395 C396 1.394 . S
C395 C401 1.465 . S
C396 C391 1.399 . S
C396 C395 1.394 . S
C396 C397 1.516 . S
C397 C396 1.516 . S
C397 C398 1.502 . S
C397 C399 1.561 . S
C397 C400 1.526 . S
C398 H382 0.959 . S
C398 H383 0.959 . S
C398 H384 0.961 . S
C398 C397 1.502 . S
C399 H385 0.960 . S
C399 H386 0.961 . S
C399 H387 0.959 . S
C399 C397 1.561 . S
C400 C397 1.526 . S
C400 C401 1.396 . S
C400 C405 1.390 . S
C401 C395 1.465 . S
C401 C400 1.396 . S
C401 C402 1.399 . S
C402 H388 0.929 . S
C402 C401 1.399 . S
C402 C403 1.385 . S
C403 H389 0.931 . S
C403 C402 1.385 . S
C403 C404 1.389 . S
C404 C403 1.389 . S
C404 C405 1.387 . S
C405 H390 0.930 . S
C405 C400 1.390 . S
C405 C404 1.387 . S
H406 C418 0.930 . S
H407 C420 0.930 . S
H408 C421 0.930 . S
H409 C425 0.959 . S
H410 C425 0.959 . S
H411 C425 0.961 . S
H412 C426 0.960 . S
H413 C426 0.961 . S
H414 C426 0.959 . S
H415 C429 0.929 . S
H416 C430 0.931 . S
H417 C432 0.930 . S
C418 H406 0.930 . S
C418 C419 1.399 . S
C418 C423 1.399 . S
C419 C418 1.399 . S
C419 C420 1.376 . S
C420 H407 0.930 . S
C420 C419 1.376 . S
C420 C421 1.388 . S
C421 H408 0.930 . S
C421 C420 1.388 . S
C421 C422 1.390 . S
C422 C421 1.390 . S
C422 C423 1.394 . S
C422 C428 1.465 . S
C423 C418 1.399 . S
C423 C422 1.394 . S
C423 C424 1.516 . S
C424 C423 1.516 . S
C424 C425 1.502 . S
C424 C426 1.561 . S
C424 C427 1.526 . S
C425 H409 0.959 . S
C425 H410 0.959 . S
C425 H411 0.961 . S
C425 C424 1.502 . S
C426 H412 0.960 . S
C426 H413 0.961 . S
C426 H414 0.959 . S
C426 C424 1.561 . S
C427 C424 1.526 . S
C427 C428 1.396 . S
C427 C432 1.390 . S
C428 C422 1.465 . S
C428 C427 1.396 . S
C428 C429 1.399 . S
C429 H415 0.929 . S
C429 C428 1.399 . S
C429 C430 1.385 . S
C430 H416 0.931 . S
C430 C429 1.385 . S
C430 C431 1.389 . S
C431 C430 1.389 . S
C431 C432 1.387 . S
C432 H417 0.930 . S
C432 C427 1.390 . S
C432 C431 1.387 . S
H433 C445 0.930 . S
H434 C447 0.930 . S
H435 C448 0.930 . S
H436 C452 0.959 . S
H437 C452 0.959 . S
H438 C452 0.961 . S
H439 C453 0.960 . S
H440 C453 0.961 . S
H441 C453 0.959 . S
H442 C456 0.929 . S
H443 C457 0.931 . S
H444 C459 0.930 . S
C445 H433 0.930 . S
C445 C446 1.399 . S
C445 C450 1.399 . S
C446 C445 1.399 . S
C446 C447 1.376 . S
C447 H434 0.930 . S
C447 C446 1.376 . S
C447 C448 1.388 . S
C448 H435 0.930 . S
C448 C447 1.388 . S
C448 C449 1.390 . S
C449 C448 1.390 . S
C449 C450 1.394 . S
C449 C455 1.465 . S
C450 C445 1.399 . S
C450 C449 1.394 . S
C450 C451 1.516 . S
C451 C450 1.516 . S
C451 C452 1.502 . S
C451 C453 1.561 . S
C451 C454 1.526 . S
C452 H436 0.959 . S
C452 H437 0.959 . S
C452 H438 0.961 . S
C452 C451 1.502 . S
C453 H439 0.960 . S
C453 H440 0.961 . S
C453 H441 0.959 . S
C453 C451 1.561 . S
C454 C451 1.526 . S
C454 C455 1.396 . S
C454 C459 1.390 . S
C455 C449 1.465 . S
C455 C454 1.396 . S
C455 C456 1.399 . S
C456 H442 0.929 . S
C456 C455 1.399 . S
C456 C457 1.385 . S
C457 H443 0.931 . S
C457 C456 1.385 . S
C457 C458 1.389 . S
C458 C457 1.389 . S
C458 C459 1.387 . S
C459 H444 0.930 . S
C459 C454 1.390 . S
C459 C458 1.387 . S
H460 C472 0.930 . S
H461 C474 0.930 . S
H462 C475 0.930 . S
H463 C479 0.959 1_455 S
H464 C479 0.959 . S
H465 C479 0.961 1_455 S
H466 C480 0.960 . S
H467 C480 0.961 . S
H468 C480 0.959 . S
H469 C483 0.929 . S
H470 C484 0.931 . S
H471 C486 0.930 . S
C472 H460 0.930 . S
C472 C473 1.399 . S
C472 C477 1.399 . S
C473 C472 1.399 . S
C473 C474 1.376 . S
C474 H461 0.930 . S
C474 C473 1.376 . S
C474 C475 1.388 . S
C475 H462 0.930 . S
C475 C474 1.388 . S
C475 C476 1.390 . S
C476 C475 1.390 . S
C476 C477 1.394 . S
C476 C482 1.465 . S
C477 C472 1.399 . S
C477 C476 1.394 . S
C477 C478 1.516 . S
C478 C477 1.516 . S
C478 C479 1.502 . S
C478 C480 1.561 . S
C478 C481 1.526 . S
C479 H463 0.959 1_655 S
C479 H464 0.959 . S
C479 H465 0.961 1_655 S
C479 C478 1.502 . S
C480 H466 0.960 . S
C480 H467 0.961 . S
C480 H468 0.959 . S
C480 C478 1.561 . S
C481 C478 1.526 . S
C481 C482 1.396 . S
C481 C486 1.390 . S
C482 C476 1.465 . S
C482 C481 1.396 . S
C482 C483 1.399 . S
C483 H469 0.929 . S
C483 C482 1.399 . S
C483 C484 1.385 . S
C484 H470 0.931 . S
C484 C483 1.385 . S
C484 C485 1.389 . S
C485 C484 1.389 . S
C485 C486 1.387 . S
C486 H471 0.930 . S
C486 C481 1.390 . S
C486 C485 1.387 . S
H487 C499 0.930 . S
H488 C501 0.930 . S
H489 C502 0.930 . S
H490 C506 0.959 . S
H491 C506 0.959 . S
H492 C506 0.961 . S
H493 C507 0.960 . S
H494 C507 0.961 . S
H495 C507 0.959 . S
H496 C510 0.929 . S
H497 C511 0.931 . S
H498 C513 0.930 . S
C499 H487 0.930 . S
C499 C500 1.399 . S
C499 C504 1.399 . S
C500 C499 1.399 . S
C500 C501 1.376 . S
C501 H488 0.930 . S
C501 C500 1.376 . S
C501 C502 1.388 . S
C502 H489 0.930 . S
C502 C501 1.388 . S
C502 C503 1.390 . S
C503 C502 1.390 . S
C503 C504 1.394 . S
C503 C509 1.465 . S
C504 C499 1.399 . S
C504 C503 1.394 . S
C504 C505 1.516 . S
C505 C504 1.516 . S
C505 C506 1.502 . S
C505 C507 1.561 . S
C505 C508 1.526 . S
C506 H490 0.959 . S
C506 H491 0.959 . S
C506 H492 0.961 . S
C506 C505 1.502 . S
C507 H493 0.960 . S
C507 H494 0.961 . S
C507 H495 0.959 . S
C507 C505 1.561 . S
C508 C505 1.526 . S
C508 C509 1.396 . S
C508 C513 1.390 . S
C509 C503 1.465 . S
C509 C508 1.396 . S
C509 C510 1.399 . S
C510 H496 0.929 . S
C510 C509 1.399 . S
C510 C511 1.385 . S
C511 H497 0.931 . S
C511 C510 1.385 . S
C511 C512 1.389 . S
C512 C511 1.389 . S
C512 C513 1.387 . S
C513 H498 0.930 . S
C513 C508 1.390 . S
C513 C512 1.387 . S
C149 C6 1.095 . S
C161 C28 1.130 . S
C176 C62 1.116 . S
C188 C40 1.115 . S
C203 C74 1.130 . S
C215 C96 1.095 . S
C230 C108 1.121 . S
C242 C130 1.111 . S
C257 C17 1.932 . S
C269 C51 1.904 . S
C284 C119 1.932 . S
C296 C85 1.904 . S
C311 C3 1.159 . S
C323 C37 1.203 . S
C338 C105 1.160 . S
C350 C71 1.218 . S
C365 C35 2.012 . S
C377 C1 1.993 . S
C392 C103 1.945 . S
C404 C69 1.965 . S
C419 C15 1.881 . S
C431 C124 1.713 . S
C446 C90 1.650 . S
C458 C49 1.856 . S
C473 C56 1.638 . S
C485 C83 1.849 . S
C500 C117 1.881 . S
C512 C22 1.714 . S
