# Generated by pormake.
# Topology ttw, (5)-cn, num edge types: 1
# Building blocks:
#     Node 0, Type 0, BuildingBlock: XOMCOT_clean_sbu_1, # of connection points: 5
#     Node 1, Type 0, BuildingBlock: XOMCOT_clean_sbu_1, # of connection points: 5
#     Node 2, Type 0, BuildingBlock: XOMCOT_clean_sbu_1, # of connection points: 5
#     Node 3, Type 0, BuildingBlock: XOMCOT_clean_sbu_1, # of connection points: 5
#     Node 4, Type 0, BuildingBlock: XOMCOT_clean_sbu_1, # of connection points: 5
#     Node 5, Type 0, BuildingBlock: XOMCOT_clean_sbu_1, # of connection points: 5
#     Edge 6, Type (0, 0), BuildingBlock: KIFKEQ_clean_linker_1, # of connection points: 2
#     Edge 7, Type (0, 0), BuildingBlock: KIFKEQ_clean_linker_1, # of connection points: 2
#     Edge 8, Type (0, 0), BuildingBlock: KIFKEQ_clean_linker_1, # of connection points: 2
#     Edge 9, Type (0, 0), BuildingBlock: KIFKEQ_clean_linker_1, # of connection points: 2
#     Edge 10, Type (0, 0), BuildingBlock: KIFKEQ_clean_linker_1, # of connection points: 2
#     Edge 11, Type (0, 0), BuildingBlock: KIFKEQ_clean_linker_1, # of connection points: 2
#     Edge 12, Type (0, 0), BuildingBlock: KIFKEQ_clean_linker_1, # of connection points: 2
#     Edge 13, Type (0, 0), BuildingBlock: KIFKEQ_clean_linker_1, # of connection points: 2
#     Edge 14, Type (0, 0), BuildingBlock: KIFKEQ_clean_linker_1, # of connection points: 2
#     Edge 15, Type (0, 0), BuildingBlock: KIFKEQ_clean_linker_1, # of connection points: 2
#     Edge 16, Type (0, 0), BuildingBlock: KIFKEQ_clean_linker_1, # of connection points: 2
#     Edge 17, Type (0, 0), BuildingBlock: KIFKEQ_clean_linker_1, # of connection points: 2
#     Edge 18, Type (0, 0), BuildingBlock: KIFKEQ_clean_linker_1, # of connection points: 2
#     Edge 19, Type (0, 0), BuildingBlock: KIFKEQ_clean_linker_1, # of connection points: 2
#     Edge 20, Type (0, 0), BuildingBlock: KIFKEQ_clean_linker_1, # of connection points: 2
# Relax obj value: 0.323
# Max RMSD: 0.299
# Mean RMSD: 0.265
data_MOF--net-ttw--node1-XOMCOT_clean_sbu_1--edge1-KIFKEQ_clean_linker_1
_symmetry_space_group_name_H-M    P1
_symmetry_Int_Tables_number       1
_symmetry_cell_setting            triclinic
loop_
_symmetry_equiv_pos_as_xyz
'x, y, z'
_cell_length_a     55.823062
_cell_length_b     56.636979
_cell_length_c     17.795967
_cell_angle_alpha  94.433019
_cell_angle_beta   93.97901
_cell_angle_gamma 121.16025
loop_
_atom_site_label
_atom_site_type_symbol
_atom_site_fract_x
_atom_site_fract_y
_atom_site_fract_z
_atom_type_partial_charge
C0 C 0.14687 0.54404 0.98989 0.0
C1 C 0.14712 0.54159 0.91266 0.0
N2 N 0.14798 0.56375 0.88709 0.0
N3 N 0.14765 0.56768 1.01316 0.0
C4 C 0.14833 0.5793 0.94923 0.0
H5 H 0.14549 0.52914 0.02655 0.0
Co6 Co 0.14527 0.57841 0.11226 0.0
C7 C 0.18126 0.64019 0.13947 0.0
O8 O 0.18829 0.63871 0.21016 0.0
N9 N 0.14171 0.58853 0.21277 0.0
C10 C 0.12849 0.60567 0.30709 0.0
C11 C 0.12917 0.6029 0.23014 0.0
C12 C 0.14819 0.58259 0.28072 0.0
N13 N 0.1405 0.59288 0.33912 0.0
O14 O 0.10906 0.57343 0.08021 0.0
H15 H 0.12104 0.61102 0.18928 0.0
H16 H 0.15836 0.57099 0.28787 0.0
O17 O 0.16476 0.61781 0.09385 0.0
C18 C 0.08843 0.5483 0.06531 0.0
O19 O 0.09363 0.52817 0.06503 0.0
N20 N 0.17952 0.58056 0.14294 0.0
C21 C 0.22482 0.57299 0.17294 0.0
C22 C 0.22874 0.59674 0.14274 0.0
C23 C 0.20568 0.59982 0.12635 0.0
C24 C 0.17533 0.5571 0.17072 0.0
C25 C 0.19765 0.55299 0.18677 0.0
H26 H 0.20887 0.61695 0.09693 0.0
H27 H 0.1542 0.54103 0.17859 0.0
H28 H 0.14802 0.59821 0.94783 0.0
H29 H 0.14654 0.5247 0.87796 0.0
H30 H 0.11923 0.61579 0.33664 0.0
H31 H 0.24922 0.61219 0.12869 0.0
H32 H 0.1936 0.53419 0.20917 0.0
C33 C 0.55057 0.10787 0.72773 0.0
C34 C 0.54802 0.10446 0.64977 0.0
N35 N 0.57371 0.12071 0.62844 0.0
N36 N 0.57785 0.12595 0.7566 0.0
C37 C 0.59135 0.13346 0.69416 0.0
H38 H 0.53327 0.09859 0.76133 0.0
Co39 Co 0.58986 0.14024 0.86158 0.0
C40 C 0.55998 0.16503 0.83519 0.0
O41 O 0.57923 0.17758 0.78994 0.0
N42 N 0.60111 0.15472 0.96405 0.0
C43 C 0.62345 0.18511 0.06838 0.0
C44 C 0.62031 0.18158 0.99012 0.0
C45 C 0.59276 0.14229 0.02716 0.0
N46 N 0.6061 0.16033 0.09164 0.0
O47 O 0.56645 0.10291 0.88781 0.0
H48 H 0.63138 0.19752 0.9543 0.0
H49 H 0.57692 0.12052 0.02608 0.0
O50 O 0.55887 0.14507 0.86609 0.0
C51 C 0.56143 0.07923 0.85892 0.0
O52 O 0.57562 0.07772 0.80472 0.0
N53 N 0.62239 0.13845 0.86121 0.0
C54 C 0.67916 0.15998 0.91194 0.0
C55 C 0.67131 0.17176 0.85647 0.0
C56 C 0.64286 0.16126 0.834 0.0
C57 C 0.62959 0.12504 0.9103 0.0
C58 C 0.65803 0.13566 0.93684 0.0
H59 H 0.63732 0.17393 0.80384 0.0
H60 H 0.61369 0.10854 0.93742 0.0
H61 H 0.61351 0.14856 0.69594 0.0
H62 H 0.52845 0.09213 0.61192 0.0
H63 H 0.6377 0.20437 0.10517 0.0
H64 H 0.68682 0.19125 0.83847 0.0
H65 H 0.66328 0.12651 0.98146 0.0
C66 C 0.4917 0.61568 0.27467 0.0
C67 C 0.49481 0.61939 0.19962 0.0
N68 N 0.46902 0.60524 0.15885 0.0
N69 N 0.46404 0.59968 0.28193 0.0
C70 C 0.45078 0.59345 0.20999 0.0
H71 H 0.50868 0.62325 0.3206 0.0
Co72 Co 0.44974 0.58632 0.37257 0.0
C73 C 0.38975 0.54795 0.28899 0.0
O74 O 0.3887 0.52417 0.28129 0.0
N75 N 0.43604 0.57289 0.46307 0.0
C76 C 0.41081 0.54653 0.54761 0.0
C77 C 0.4135 0.54798 0.47161 0.0
C78 C 0.44704 0.58601 0.53488 0.0
N79 N 0.43191 0.57049 0.58752 0.0
O80 O 0.45041 0.55392 0.342 0.0
H81 H 0.40004 0.53161 0.42596 0.0
H82 H 0.46563 0.60671 0.54812 0.0
O83 O 0.41184 0.57003 0.32201 0.0
C84 C 0.47351 0.5559 0.36545 0.0
O85 O 0.49202 0.57755 0.41435 0.0
N86 N 0.45042 0.61907 0.40291 0.0
C87 C 0.4534 0.6697 0.41309 0.0
C88 C 0.42739 0.64472 0.41161 0.0
C89 C 0.42644 0.61963 0.40804 0.0
C90 C 0.47613 0.64316 0.41573 0.0
C91 C 0.47814 0.66885 0.42063 0.0
H92 H 0.40613 0.60064 0.40508 0.0
H93 H 0.49513 0.64248 0.41785 0.0
H94 H 0.42825 0.58001 0.19456 0.0
H95 H 0.5146 0.63049 0.17638 0.0
H96 H 0.39489 0.52889 0.57171 0.0
H97 H 0.40763 0.64408 0.40707 0.0
H98 H 0.49878 0.68768 0.42566 0.0
C99 C 0.85781 0.46599 0.29855 0.0
C100 C 0.86113 0.4693 0.37662 0.0
N101 N 0.84691 0.44394 0.39919 0.0
N102 N 0.84196 0.43859 0.27123 0.0
C103 C 0.83544 0.42576 0.33453 0.0
H104 H 0.86599 0.48266 0.26362 0.0
Co105 Co 0.82962 0.42484 0.16603 0.0
C106 C 0.79945 0.44938 0.18679 0.0
O107 O 0.78815 0.42956 0.23024 0.0
N108 N 0.81697 0.41179 0.06349 0.0
C109 C 0.79056 0.38449 0.95752 0.0
C110 C 0.79294 0.38771 0.03563 0.0
C111 C 0.82864 0.42312 1.00158 0.0
N112 N 0.81305 0.40681 0.93618 0.0
O113 O 0.86845 0.44976 0.14279 0.0
H114 H 0.77815 0.37339 0.07007 0.0
H115 H 0.84835 0.44279 1.00429 0.0
O116 O 0.82055 0.4529 0.15449 0.0
C117 C 0.89188 0.456 0.18017 0.0
O118 O 0.89181 0.44433 0.24124 0.0
N119 N 0.83503 0.3949 0.17399 0.0
C120 C 0.8246 0.34087 0.14754 0.0
C121 C 0.8081 0.3467 0.19199 0.0
C122 C 0.81319 0.37363 0.20256 0.0
C123 C 0.85209 0.38985 0.13271 0.0
C124 C 0.84731 0.36295 0.11933 0.0
H125 H 0.79768 0.37685 0.22655 0.0
H126 H 0.86752 0.40567 0.10296 0.0
H127 H 0.82216 0.40361 0.33426 0.0
H128 H 0.87217 0.4889 0.41378 0.0
H129 H 0.77339 0.36724 0.91941 0.0
H130 H 0.78955 0.33009 0.21172 0.0
H131 H 0.85997 0.35911 0.08268 0.0
C132 C 0.42566 0.88441 0.1525 0.0
C133 C 0.42724 0.88741 0.23038 0.0
N134 N 0.4023 0.86792 0.24996 0.0
N135 N 0.39972 0.86328 0.12205 0.0
C136 C 0.38598 0.85369 0.18314 0.0
H137 H 0.44307 0.89598 0.12091 0.0
Co138 Co 0.38888 0.84741 1.0189 0.0
C139 C 0.3264 0.82213 0.99438 0.0
O140 O 0.32688 0.83084 0.92786 0.0
N141 N 0.37834 0.83107 0.91522 0.0
C142 C 0.35854 0.79983 0.8109 0.0
C143 C 0.36133 0.80367 0.88913 0.0
C144 C 0.38562 0.84333 0.85118 0.0
N145 N 0.37379 0.82488 0.78703 0.0
O146 O 0.38956 0.87994 0.99248 0.0
H147 H 0.35113 0.78741 0.92462 0.0
H148 H 0.3996 0.86536 0.85079 0.0
O149 O 0.34947 0.82899 0.03427 0.0
C150 C 0.41475 0.89696 0.98017 0.0
O151 O 0.43282 0.88869 0.98045 0.0
N152 N 0.39125 0.81762 0.04648 0.0
C153 C 0.40788 0.78666 0.12299 0.0
C154 C 0.38038 0.78117 0.12269 0.0
C155 C 0.37232 0.79679 0.08341 0.0
C156 C 0.41735 0.82179 0.04147 0.0
C157 C 0.42612 0.80634 0.07911 0.0
H158 H 0.35158 0.79322 0.08762 0.0
H159 H 0.43213 0.83863 1.01279 0.0
H160 H 0.36481 0.83584 0.17891 0.0
H161 H 0.44597 0.90178 0.26949 0.0
H162 H 0.34579 0.78017 0.77447 0.0
H163 H 0.36567 0.76577 0.15529 0.0
H164 H 0.44755 0.81108 0.07824 0.0
C165 C 0.53198 0.38036 0.96544 0.0
C166 C 0.52696 0.3818 0.89005 0.0
N167 N 0.54455 0.40805 0.87641 0.0
N168 N 0.55321 0.40537 1.00038 0.0
C169 C 0.55961 0.42215 0.94497 0.0
H170 H 0.52093 0.36185 0.99268 0.0
Co171 Co 0.56637 0.41077 0.10547 0.0
C172 C 0.62419 0.44314 0.04282 0.0
O173 O 0.61506 0.43675 0.96991 0.0
N174 N 0.57841 0.41535 0.21031 0.0
C175 C 0.60182 0.41561 0.31693 0.0
C176 C 0.59914 0.41179 0.23909 0.0
C177 C 0.56859 0.42113 0.27241 0.0
N178 N 0.58267 0.4216 0.33847 0.0
O179 O 0.56343 0.44275 0.1207 0.0
H180 H 0.61108 0.40589 0.20547 0.0
H181 H 0.55134 0.42471 0.26919 0.0
O182 O 0.60666 0.43375 0.09152 0.0
C183 C 0.53759 0.43458 0.12435 0.0
O184 O 0.51896 0.40767 0.11335 0.0
N185 N 0.56667 0.37785 0.09234 0.0
C186 C 0.5562 0.32427 0.06417 0.0
C187 C 0.57879 0.3463 0.03585 0.0
C188 C 0.5835 0.37304 0.04979 0.0
C189 C 0.54535 0.35676 0.123 0.0
C190 C 0.53951 0.32961 0.10888 0.0
H191 H 0.59978 0.38929 0.02345 0.0
H192 H 0.5319 0.36088 0.15538 0.0
H193 H 0.57519 0.44423 0.95446 0.0
H194 H 0.51226 0.36439 0.84791 0.0
H195 H 0.61621 0.4131 0.35449 0.0
H196 H 0.59178 0.3426 1.00015 0.0
H197 H 0.52177 0.31289 0.131 0.0
H198 H 0.0419 0.50201 0.98921 0.0
H199 H 0.06801 0.57749 0.1374 0.0
H200 H 0.99275 0.48451 1.00692 0.0
H201 H 0.01873 0.55969 0.1563 0.0
H202 H 0.90369 0.46507 0.03408 0.0
H203 H 0.95063 0.49254 0.99285 0.0
H204 H 0.98844 0.51757 0.22724 0.0
H205 H 0.94198 0.48989 0.26805 0.0
C206 C 0.03702 0.51517 0.02396 0.0
C207 C 0.05879 0.54105 0.0622 0.0
C208 C 0.00886 0.50519 0.03385 0.0
C209 C 0.00193 0.52064 0.0834 0.0
C210 C 0.02352 0.54731 0.11797 0.0
C211 C 0.05169 0.55756 0.10681 0.0
C212 C 0.92202 0.47688 0.07659 0.0
C213 C 0.91926 0.47522 0.15421 0.0
C214 C 0.94883 0.4925 0.05307 0.0
C215 C 0.97317 0.50728 0.10688 0.0
C216 C 0.97009 0.50671 0.18449 0.0
C217 C 0.9435 0.49067 0.20782 0.0
H218 H 0.41303 0.91425 0.84342 0.0
H219 H 0.4422 0.94328 0.08191 0.0
H220 H 0.44619 0.96081 0.81309 0.0
H221 H 0.47561 0.98979 0.05226 0.0
H222 H 0.53935 0.0257 0.79327 0.0
H223 H 0.49788 0.98374 0.82183 0.0
H224 H 0.48628 0.03252 0.99781 0.0
H225 H 0.52806 0.07465 0.96974 0.0
C226 C 0.42559 0.93096 0.88947 0.0
C227 C 0.42481 0.92545 0.96498 0.0
C228 C 0.44493 0.95748 0.87219 0.0
C229 C 0.46393 0.97884 0.93021 0.0
C230 C 0.46122 0.97387 1.00627 0.0
C231 C 0.44192 0.94732 0.02341 0.0
C232 C 0.52806 0.02753 0.83824 0.0
C233 C 0.53714 0.05354 0.87939 0.0
C234 C 0.50402 0.0035 0.85393 0.0
C235 C 0.48851 0.00484 0.91137 0.0
C236 C 0.49774 0.03081 0.95316 0.0
C237 C 0.52173 0.05492 0.93715 0.0
H238 H 0.48389 0.42199 0.13068 0.0
H239 H 0.57059 0.49047 0.17757 0.0
H240 H 0.46827 0.4512 0.18719 0.0
H241 H 0.55474 0.52025 0.23248 0.0
H242 H 0.51918 0.55253 0.41024 0.0
H243 H 0.53505 0.52454 0.34591 0.0
H244 H 0.46303 0.48991 0.17287 0.0
H245 H 0.44674 0.5174 0.23851 0.0
C246 C 0.49964 0.44347 0.15205 0.0
C247 C 0.52853 0.45387 0.1501 0.0
C248 C 0.49061 0.4603 0.18411 0.0
C249 C 0.51022 0.48804 0.21482 0.0
C250 C 0.53911 0.4988 0.21042 0.0
C251 C 0.54819 0.48186 0.17834 0.0
C252 C 0.5066 0.53876 0.3588 0.0
C253 C 0.48161 0.53705 0.32972 0.0
C254 C 0.51589 0.52296 0.3214 0.0
C255 C 0.50049 0.50516 0.25382 0.0
C256 C 0.47528 0.50322 0.2252 0.0
C257 C 0.4659 0.51892 0.26288 0.0
H258 H 0.14009 0.62515 0.45981 0.0
H259 H 0.14755 0.55395 0.40034 0.0
H260 H 0.14197 0.6185 0.59282 0.0
H261 H 0.15112 0.54838 0.53367 0.0
H262 H 0.12209 0.52509 0.76309 0.0
H263 H 0.12139 0.53309 0.631 0.0
H264 H 0.17193 0.62192 0.70148 0.0
H265 H 0.17204 0.61372 0.83438 0.0
C266 C 0.14222 0.60813 0.47484 0.0
C267 C 0.14338 0.58995 0.41866 0.0
C268 C 0.1437 0.60456 0.55151 0.0
C269 C 0.14655 0.58282 0.57415 0.0
C270 C 0.14842 0.56507 0.51825 0.0
C271 C 0.14676 0.56852 0.44156 0.0
C272 C 0.13322 0.54632 0.75038 0.0
C273 C 0.14727 0.56878 0.80909 0.0
C274 C 0.13291 0.55093 0.67455 0.0
C275 C 0.14684 0.57815 0.65532 0.0
C276 C 0.16072 0.60068 0.71419 0.0
C277 C 0.16083 0.59603 0.79031 0.0
H278 H 0.61437 0.19611 0.2152 0.0
H279 H 0.58959 0.11105 0.14421 0.0
H280 H 0.60775 0.18609 0.34532 0.0
H281 H 0.58321 0.10102 0.27457 0.0
H282 H 0.54421 0.08603 0.49806 0.0
H283 H 0.55261 0.09561 0.36846 0.0
H284 H 0.62683 0.17571 0.45378 0.0
H285 H 0.61765 0.1667 0.58333 0.0
C286 C 0.60781 0.17534 0.22745 0.0
C287 C 0.60247 0.15439 0.16901 0.0
C288 C 0.60406 0.16958 0.30225 0.0
C289 C 0.59496 0.14273 0.32077 0.0
C290 C 0.5898 0.12182 0.26236 0.0
C291 C 0.59346 0.12757 0.18746 0.0
C292 C 0.56225 0.10575 0.48936 0.0
C293 C 0.58009 0.12561 0.55165 0.0
C294 C 0.56728 0.11113 0.4148 0.0
C295 C 0.59036 0.1365 0.40035 0.0
C296 C 0.6086 0.15611 0.46261 0.0
C297 C 0.60353 0.15076 0.53721 0.0
H298 H 0.42674 0.55941 0.06922 0.0
H299 H 0.4973 0.64236 0.06279 0.0
H300 H 0.41781 0.55203 0.93101 0.0
H301 H 0.48799 0.6355 0.92437 0.0
H302 H 0.48253 0.60301 0.67525 0.0
H303 H 0.49119 0.61219 0.8138 0.0
H304 H 0.4013 0.56335 0.82349 0.0
H305 H 0.39294 0.55363 0.68548 0.0
C306 C 0.44005 0.57627 0.03825 0.0
C307 C 0.46275 0.60147 0.07708 0.0
C308 C 0.43493 0.57209 0.95873 0.0
C309 C 0.45216 0.59314 0.91574 0.0
C310 C 0.47457 0.61856 0.95497 0.0
C311 C 0.47987 0.62259 0.03448 0.0
C312 C 0.46466 0.59446 0.7071 0.0
C313 C 0.43707 0.57741 0.66928 0.0
C314 C 0.46958 0.59976 0.78673 0.0
C315 C 0.44698 0.58839 0.8306 0.0
C316 C 0.41934 0.57195 0.79226 0.0
C317 C 0.41449 0.56643 0.71287 0.0
H318 H 0.84154 0.45693 0.88492 0.0
H319 H 0.79827 0.36846 0.81354 0.0
H320 H 0.85043 0.4656 0.75469 0.0
H321 H 0.80759 0.37699 0.68359 0.0
H322 H 0.80107 0.4012 0.44711 0.0
H323 H 0.79361 0.39214 0.5776 0.0
H324 H 0.87668 0.46374 0.65689 0.0
H325 H 0.88377 0.47302 0.52613 0.0
C326 C 0.83423 0.43934 0.84155 0.0
C327 C 0.81906 0.41201 0.85956 0.0
C328 C 0.83938 0.44429 0.76679 0.0
C329 C 0.82968 0.422 0.70824 0.0
C330 C 0.81489 0.39467 0.7267 0.0
C331 C 0.80957 0.38974 0.8013 0.0
C332 C 0.81785 0.41481 0.49231 0.0
C333 C 0.84302 0.43784 0.47621 0.0
C334 C 0.81361 0.40962 0.56731 0.0
C335 C 0.83452 0.42721 0.62815 0.0
C336 C 0.85988 0.45003 0.61179 0.0
C337 C 0.86402 0.45532 0.5368 0.0
H338 H 0.42705 0.90349 0.38113 0.0
H339 H 0.36355 0.8183 0.29333 0.0
H340 H 0.4196 0.8927 0.51002 0.0
H341 H 0.355 0.8078 0.42253 0.0
H342 H 0.37053 0.79115 0.6646 0.0
H343 H 0.37598 0.80139 0.53412 0.0
H344 H 0.38821 0.88221 0.60208 0.0
H345 H 0.38324 0.87205 0.73254 0.0
C346 C 0.41135 0.88247 0.38915 0.0
C347 C 0.39605 0.8618 0.3263 0.0
C348 C 0.4068 0.87632 0.46341 0.0
C349 C 0.38668 0.84932 0.47729 0.0
C350 C 0.37095 0.82874 0.41439 0.0
C351 C 0.37558 0.83488 0.33994 0.0
C352 C 0.37419 0.81102 0.65157 0.0
C353 C 0.37661 0.83082 0.70936 0.0
C354 C 0.37723 0.8169 0.57652 0.0
C355 C 0.3826 0.84269 0.55702 0.0
C356 C 0.38465 0.86233 0.61483 0.0
C357 C 0.38179 0.85652 0.68991 0.0
H358 H 0.5351 0.41668 0.38746 0.0
H359 H 0.61909 0.43644 0.46748 0.0
H360 H 0.52586 0.41983 0.51857 0.0
H361 H 0.60931 0.43774 0.59732 0.0
H362 H 0.59264 0.45004 0.83262 0.0
H363 H 0.6019 0.45913 0.70272 0.0
H364 H 0.516 0.39373 0.61973 0.0
H365 H 0.50644 0.38604 0.74915 0.0
C366 C 0.55168 0.42183 0.43265 0.0
C367 C 0.57769 0.42576 0.41603 0.0
C368 C 0.54627 0.42335 0.50825 0.0
C369 C 0.56666 0.42871 0.56941 0.0
C370 C 0.59305 0.43382 0.55254 0.0
C371 C 0.59852 0.43255 0.4773 0.0
C372 C 0.57553 0.43816 0.78685 0.0
C373 C 0.54891 0.41693 0.80169 0.0
C374 C 0.58093 0.44307 0.71192 0.0
C375 C 0.55991 0.42679 0.64977 0.0
C376 C 0.53281 0.40685 0.66535 0.0
C377 C 0.52738 0.40214 0.74005 0.0
H378 H 0.22572 0.52591 0.13206 0.0
H379 H 0.27773 0.61005 0.24583 0.0
H380 H 0.26508 0.51884 0.15368 0.0
H381 H 0.31678 0.60284 0.27046 0.0
H382 H 0.39043 0.59312 0.24556 0.0
H383 H 0.35064 0.59836 0.21315 0.0
H384 H 0.2933 0.51268 0.24479 0.0
H385 H 0.33351 0.50721 0.27381 0.0
C386 C 0.24553 0.5428 0.16249 0.0
C387 C 0.24868 0.56856 0.18715 0.0
C388 C 0.26811 0.53874 0.17517 0.0
C389 C 0.29433 0.56026 0.21365 0.0
C390 C 0.29724 0.58593 0.23901 0.0
C391 C 0.2748 0.59009 0.22535 0.0
C392 C 0.3693 0.57531 0.24493 0.0
C393 C 0.36508 0.54977 0.2626 0.0
C394 C 0.34641 0.57838 0.22701 0.0
C395 C 0.31858 0.55613 0.22752 0.0
C396 C 0.31434 0.53027 0.2431 0.0
C397 C 0.33737 0.52708 0.25991 0.0
H398 H 0.73048 0.1833 0.8587 0.0
H399 H 0.69159 0.17762 0.06296 0.0
H400 H 0.77453 0.22366 0.92278 0.0
H401 H 0.73459 0.21856 0.12582 0.0
H402 H 0.81564 0.31824 1.00069 0.0
H403 H 0.78701 0.26942 0.95008 0.0
H404 H 0.7811 0.24757 0.17865 0.0
H405 H 0.8088 0.29699 0.229 0.0
C406 C 0.73171 0.19017 0.91814 0.0
C407 C 0.70765 0.17741 0.95581 0.0
C408 C 0.7568 0.21357 0.9547 0.0
C409 C 0.75809 0.22512 0.02905 0.0
C410 C 0.73478 0.21046 0.06892 0.0
C411 C 0.70993 0.18679 0.03282 0.0
C412 C 0.80903 0.30299 0.0401 0.0
C413 C 0.81425 0.31144 0.11878 0.0
C414 C 0.79255 0.27477 1.01106 0.0
C415 C 0.78113 0.25422 0.06004 0.0
C416 C 0.78878 0.26271 0.13899 0.0
C417 C 0.80489 0.29102 0.16802 0.0
H418 H 0.41837 0.68823 0.45158 0.0
H419 H 0.48949 0.70858 0.32886 0.0
H420 H 0.41051 0.72034 0.38747 0.0
H421 H 0.48321 0.74248 0.2704 0.0
H422 H 0.43412 0.75891 0.08624 0.0
H423 H 0.45018 0.73651 0.17027 0.0
H424 H 0.42261 0.76468 0.35998 0.0
H425 H 0.40538 0.78586 0.27447 0.0
C426 C 0.43281 0.70006 0.41253 0.0
C427 C 0.454 0.69507 0.39382 0.0
C428 C 0.42852 0.71881 0.37636 0.0
C429 C 0.44575 0.73344 0.32194 0.0
C430 C 0.46894 0.73084 0.31002 0.0
C431 C 0.47289 0.71171 0.34498 0.0
C432 C 0.43162 0.76028 0.14596 0.0
C433 C 0.41822 0.77364 0.17392 0.0
C434 C 0.44108 0.74777 0.19446 0.0
C435 C 0.43782 0.74886 0.27225 0.0
C436 C 0.42507 0.76302 0.30034 0.0
C437 C 0.41519 0.77512 0.2515 0.0
H438 H 0.77898 0.44907 0.04398 0.0
H439 H 0.78228 0.47655 0.27906 0.0
H440 H 0.74015 0.45572 1.01003 0.0
H441 H 0.74506 0.48572 0.24536 0.0
H442 H 0.65039 0.44925 0.18538 0.0
H443 H 0.69758 0.45913 0.21879 0.0
H444 H 0.71615 0.47778 0.991 0.0
H445 H 0.66773 0.46534 0.95615 0.0
C446 C 0.77228 0.45795 0.08778 0.0
C447 C 0.7835 0.46231 0.164 0.0
C448 C 0.74989 0.4618 0.06852 0.0
C449 C 0.73865 0.47067 0.12508 0.0
C450 C 0.75219 0.47785 0.20036 0.0
C451 C 0.77394 0.47313 0.21977 0.0
C452 C 0.66445 0.45544 0.14233 0.0
C453 C 0.6548 0.45543 0.06737 0.0
C454 C 0.69198 0.46163 0.16183 0.0
C455 C 0.71102 0.46886 0.10739 0.0
C456 C 0.70204 0.47139 0.03408 0.0
C457 C 0.67424 0.46451 1.01416 0.0
H458 H 0.19511 0.65237 0.99641 0.0
H459 H 0.20024 0.69028 0.22151 0.0
H460 H 0.22609 0.69849 0.95971 0.0
H461 H 0.2299 0.73624 0.18441 0.0
H462 H 0.27643 0.78627 0.90262 0.0
H463 H 0.23623 0.74341 0.93395 0.0
H464 H 0.27712 0.76236 0.16459 0.0
H465 H 0.31618 0.80532 0.13415 0.0
C466 C 0.20223 0.6706 0.03734 0.0
C467 C 0.19562 0.66774 0.11212 0.0
C468 C 0.21993 0.6971 1.01633 0.0
C469 C 0.23102 0.72125 0.06946 0.0
C470 C 0.22255 0.71822 0.14253 0.0
C471 C 0.20535 0.69183 0.16376 0.0
C472 C 0.27639 0.7816 0.96051 0.0
C473 C 0.2997 0.79915 1.01573 0.0
C474 C 0.2535 0.75682 0.97826 0.0
C475 C 0.25338 0.74909 0.05167 0.0
C476 C 0.27607 0.76754 0.10765 0.0
C477 C 0.29875 0.79223 0.09002 0.0
H478 H 0.54568 0.19792 0.76596 0.0
H479 H 0.54587 0.16582 0.97834 0.0
H480 H 0.53659 0.23183 0.82945 0.0
H481 H 0.53746 0.2002 0.04195 0.0
H482 H 0.58566 0.30054 0.10645 0.0
H483 H 0.57672 0.25493 0.05458 0.0
H484 H 0.50216 0.23889 0.91471 0.0
H485 H 0.51078 0.28432 0.96844 0.0
C486 C 0.54281 0.19751 0.82554 0.0
C487 C 0.5466 0.17941 0.8673 0.0
C488 C 0.53757 0.21684 0.86179 0.0
C489 C 0.5366 0.21865 0.94053 0.0
C490 C 0.53818 0.19913 0.98116 0.0
C491 C 0.54281 0.1794 0.94459 0.0
C492 C 0.56701 0.28687 0.06616 0.0
C493 C 0.54882 0.29558 0.04129 0.0
C494 C 0.56179 0.26083 0.03687 0.0
C495 C 0.53867 0.24348 0.98109 0.0
C496 C 0.51998 0.25189 0.95802 0.0
C497 C 0.52488 0.27771 0.9886 0.0
loop_
_geom_bond_atom_site_label_1
_geom_bond_atom_site_label_2
_geom_bond_distance
_geom_bond_site_symmetry_2
_ccdc_geom_bond_type
C0 C1 1.351 . S
C0 N3 1.368 . S
C0 H5 0.931 . S
C1 C0 1.351 . S
C1 N2 1.373 . S
C1 H29 0.930 . S
N2 C1 1.373 . S
N2 C4 1.340 . S
N3 C0 1.368 . S
N3 C4 1.321 . S
N3 Co6 2.135 1_556 S
C4 N2 1.340 . S
C4 N3 1.321 . S
C4 H28 0.930 . S
H5 C0 0.931 . S
Co6 N3 2.135 1_554 S
Co6 N9 2.121 . S
Co6 O14 2.055 . S
Co6 O17 2.039 . S
Co6 N20 2.140 . S
C7 O8 1.227 . S
C7 O17 1.265 . S
O8 C7 1.227 . S
N9 Co6 2.121 . S
N9 C11 1.375 . S
N9 C12 1.313 . S
C10 C11 1.338 . S
C10 N13 1.377 . S
C10 H30 0.930 . S
C11 N9 1.375 . S
C11 C10 1.338 . S
C11 H15 0.931 . S
C12 N9 1.313 . S
C12 N13 1.344 . S
C12 H16 0.930 . S
N13 C10 1.377 . S
N13 C12 1.344 . S
O14 Co6 2.055 . S
O14 C18 1.253 . S
H15 C11 0.931 . S
H16 C12 0.930 . S
O17 Co6 2.039 . S
O17 C7 1.265 . S
C18 O14 1.253 . S
C18 O19 1.227 . S
O19 C18 1.227 . S
N20 Co6 2.140 . S
N20 C23 1.351 . S
N20 C24 1.345 . S
C21 C22 1.387 1_554 S
C21 C25 1.391 . S
C22 C21 1.387 1_556 S
C22 C23 1.369 1_556 S
C22 H31 0.929 . S
C23 N20 1.351 . S
C23 C22 1.369 1_554 S
C23 H26 0.923 1_554 S
C24 N20 1.345 . S
C24 C25 1.371 . S
C24 H27 0.931 . S
C25 C21 1.391 . S
C25 C24 1.371 . S
C25 H32 0.930 . S
H26 C23 0.923 1_556 S
H27 C24 0.931 . S
H28 C4 0.930 . S
H29 C1 0.930 . S
H30 C10 0.930 . S
H31 C22 0.929 . S
H32 C25 0.930 . S
C33 C34 1.351 . S
C33 N36 1.368 . S
C33 H38 0.931 . S
C34 C33 1.351 . S
C34 N35 1.373 . S
C34 H62 0.930 . S
N35 C34 1.373 . S
N35 C37 1.340 . S
N36 C33 1.368 . S
N36 C37 1.321 . S
N36 Co39 2.135 1_556 S
C37 N35 1.340 . S
C37 N36 1.321 . S
C37 H61 0.930 . S
H38 C33 0.931 . S
Co39 N36 2.135 1_554 S
Co39 N42 2.121 . S
Co39 O47 2.055 . S
Co39 O50 2.039 . S
Co39 N53 2.140 . S
C40 O41 1.227 . S
C40 O50 1.265 . S
O41 C40 1.227 . S
N42 Co39 2.121 . S
N42 C44 1.375 . S
N42 C45 1.313 . S
C43 C44 1.338 . S
C43 N46 1.377 . S
C43 H63 0.930 . S
C44 N42 1.375 . S
C44 C43 1.338 . S
C44 H48 0.931 . S
C45 N42 1.313 . S
C45 N46 1.344 . S
C45 H49 0.930 . S
N46 C43 1.377 . S
N46 C45 1.344 . S
O47 Co39 2.055 . S
O47 C51 1.253 . S
H48 C44 0.931 . S
H49 C45 0.930 . S
O50 Co39 2.039 . S
O50 C40 1.265 . S
C51 O47 1.253 . S
C51 O52 1.227 . S
O52 C51 1.227 . S
N53 Co39 2.140 . S
N53 C56 1.346 . S
N53 C57 1.345 . S
C54 C55 1.387 . S
C54 C58 1.391 . S
C55 C54 1.387 . S
C55 C56 1.369 . S
C55 H64 0.929 1_554 S
C56 N53 1.346 . S
C56 C55 1.369 . S
C56 H59 0.928 1_554 S
C57 N53 1.345 . S
C57 C58 1.371 . S
C57 H60 0.931 . S
C58 C54 1.391 . S
C58 C57 1.371 . S
C58 H65 0.930 . S
H59 C56 0.928 1_556 S
H60 C57 0.931 . S
H61 C37 0.930 . S
H62 C34 0.930 . S
H63 C43 0.930 . S
H64 C55 0.929 1_556 S
H65 C58 0.930 . S
C66 C67 1.351 . S
C66 N69 1.368 . S
C66 H71 0.931 . S
C67 C66 1.351 . S
C67 N68 1.373 . S
C67 H95 0.930 . S
N68 C67 1.373 . S
N68 C70 1.340 . S
N69 C66 1.368 . S
N69 C70 1.321 . S
N69 Co72 2.135 1_556 S
C70 N68 1.340 . S
C70 N69 1.321 . S
C70 H94 0.930 . S
H71 C66 0.931 . S
Co72 N69 2.135 1_554 S
Co72 N75 2.121 . S
Co72 O80 2.055 . S
Co72 O83 2.039 . S
Co72 N86 2.140 . S
C73 O74 1.227 . S
C73 O83 1.265 . S
O74 C73 1.227 . S
N75 Co72 2.121 . S
N75 C77 1.375 . S
N75 C78 1.313 . S
C76 C77 1.338 . S
C76 N79 1.377 . S
C76 H96 0.930 . S
C77 N75 1.375 . S
C77 C76 1.338 . S
C77 H81 0.931 . S
C78 N75 1.313 . S
C78 N79 1.344 . S
C78 H82 0.930 . S
N79 C76 1.377 . S
N79 C78 1.344 . S
O80 Co72 2.055 . S
O80 C84 1.253 . S
H81 C77 0.931 . S
H82 C78 0.930 . S
O83 Co72 2.039 . S
O83 C73 1.265 . S
C84 O80 1.253 . S
C84 O85 1.227 . S
O85 C84 1.227 . S
N86 Co72 2.140 . S
N86 C89 1.346 . S
N86 C90 1.345 . S
C87 C88 1.387 . S
C87 C91 1.391 . S
C88 C87 1.387 . S
C88 C89 1.369 . S
C88 H97 0.929 . S
C89 N86 1.346 . S
C89 C88 1.369 . S
C89 H92 0.928 . S
C90 N86 1.345 . S
C90 C91 1.371 . S
C90 H93 0.931 . S
C91 C87 1.391 . S
C91 C90 1.371 . S
C91 H98 0.930 . S
H92 C89 0.928 . S
H93 C90 0.931 . S
H94 C70 0.930 . S
H95 C67 0.930 . S
H96 C76 0.930 . S
H97 C88 0.929 . S
H98 C91 0.930 . S
C99 C100 1.351 . S
C99 N102 1.368 . S
C99 H104 0.931 . S
C100 C99 1.351 . S
C100 N101 1.373 . S
C100 H128 0.930 . S
N101 C100 1.373 . S
N101 C103 1.340 . S
N102 C99 1.368 . S
N102 C103 1.321 . S
N102 Co105 2.135 . S
C103 N101 1.340 . S
C103 N102 1.321 . S
C103 H127 0.930 . S
H104 C99 0.931 . S
Co105 N102 2.135 . S
Co105 N108 2.121 1_554 S
Co105 O113 2.055 . S
Co105 O116 2.039 . S
Co105 N119 2.140 . S
C106 O107 1.227 . S
C106 O116 1.265 . S
O107 C106 1.227 . S
N108 Co105 2.121 1_556 S
N108 C110 1.375 . S
N108 C111 1.313 . S
C109 C110 1.338 . S
C109 N112 1.377 . S
C109 H129 0.930 . S
C110 N108 1.375 . S
C110 C109 1.338 . S
C110 H114 0.931 . S
C111 N108 1.313 . S
C111 N112 1.344 . S
C111 H115 0.930 . S
N112 C109 1.377 . S
N112 C111 1.344 . S
O113 Co105 2.055 . S
O113 C117 1.253 . S
H114 C110 0.931 . S
H115 C111 0.930 . S
O116 Co105 2.039 . S
O116 C106 1.265 . S
C117 O113 1.253 . S
C117 O118 1.227 . S
O118 C117 1.227 . S
N119 Co105 2.140 . S
N119 C122 1.346 . S
N119 C123 1.345 . S
C120 C121 1.387 . S
C120 C124 1.391 . S
C121 C120 1.387 . S
C121 C122 1.369 . S
C121 H130 0.929 . S
C122 N119 1.346 . S
C122 C121 1.369 . S
C122 H125 0.928 . S
C123 N119 1.345 . S
C123 C124 1.371 . S
C123 H126 0.931 . S
C124 C120 1.391 . S
C124 C123 1.371 . S
C124 H131 0.921 1_554 S
H125 C122 0.928 . S
H126 C123 0.931 . S
H127 C103 0.930 . S
H128 C100 0.930 . S
H129 C109 0.930 . S
H130 C121 0.929 . S
H131 C124 0.921 1_556 S
C132 C133 1.351 . S
C132 N135 1.368 . S
C132 H137 0.931 . S
C133 C132 1.351 . S
C133 N134 1.373 . S
C133 H161 0.930 . S
N134 C133 1.373 . S
N134 C136 1.340 . S
N135 C132 1.368 . S
N135 C136 1.321 . S
N135 Co138 2.135 . S
C136 N134 1.340 . S
C136 N135 1.321 . S
C136 H160 0.930 . S
H137 C132 0.931 . S
Co138 N135 2.135 . S
Co138 N141 2.121 1_554 S
Co138 O146 2.055 . S
Co138 O149 2.039 . S
Co138 N152 2.140 . S
C139 O140 1.227 . S
C139 O149 1.265 . S
O140 C139 1.227 . S
N141 Co138 2.121 1_556 S
N141 C143 1.375 . S
N141 C144 1.313 . S
C142 C143 1.338 . S
C142 N145 1.377 . S
C142 H162 0.930 . S
C143 N141 1.375 . S
C143 C142 1.338 . S
C143 H147 0.931 . S
C144 N141 1.313 . S
C144 N145 1.344 . S
C144 H148 0.930 . S
N145 C142 1.377 . S
N145 C144 1.344 . S
O146 Co138 2.055 . S
O146 C150 1.253 . S
H147 C143 0.931 . S
H148 C144 0.930 . S
O149 Co138 2.039 . S
O149 C139 1.265 . S
C150 O146 1.253 . S
C150 O151 1.227 . S
O151 C150 1.227 . S
N152 Co138 2.140 . S
N152 C155 1.346 . S
N152 C156 1.345 . S
C153 C154 1.387 . S
C153 C157 1.391 . S
C154 C153 1.387 . S
C154 C155 1.369 . S
C154 H163 0.929 . S
C155 N152 1.346 . S
C155 C154 1.369 . S
C155 H158 0.928 . S
C156 N152 1.345 . S
C156 C157 1.371 . S
C156 H159 0.931 . S
C157 C153 1.391 . S
C157 C156 1.371 . S
C157 H164 0.930 . S
H158 C155 0.928 . S
H159 C156 0.931 . S
H160 C136 0.930 . S
H161 C133 0.930 . S
H162 C142 0.930 . S
H163 C154 0.929 . S
H164 C157 0.930 . S
C165 C166 1.351 . S
C165 N168 1.368 1_556 S
C165 H170 0.931 . S
C166 C165 1.351 . S
C166 N167 1.373 . S
C166 H194 0.930 . S
N167 C166 1.373 . S
N167 C169 1.340 . S
N168 C165 1.368 1_554 S
N168 C169 1.321 1_554 S
N168 Co171 2.135 . S
C169 N167 1.340 . S
C169 N168 1.321 1_556 S
C169 H193 0.930 . S
H170 C165 0.931 . S
Co171 N168 2.135 . S
Co171 N174 2.121 . S
Co171 O179 2.055 . S
Co171 O182 2.039 . S
Co171 N185 2.140 . S
C172 O173 1.227 . S
C172 O182 1.265 . S
O173 C172 1.227 . S
N174 Co171 2.121 . S
N174 C176 1.375 . S
N174 C177 1.313 . S
C175 C176 1.338 . S
C175 N178 1.377 . S
C175 H195 0.930 . S
C176 N174 1.375 . S
C176 C175 1.338 . S
C176 H180 0.931 . S
C177 N174 1.313 . S
C177 N178 1.344 . S
C177 H181 0.930 . S
N178 C175 1.377 . S
N178 C177 1.344 . S
O179 Co171 2.055 . S
O179 C183 1.253 . S
H180 C176 0.931 . S
H181 C177 0.930 . S
O182 Co171 2.039 . S
O182 C172 1.265 . S
C183 O179 1.253 . S
C183 O184 1.227 . S
O184 C183 1.227 . S
N185 Co171 2.140 . S
N185 C188 1.346 . S
N185 C189 1.345 . S
C186 C187 1.387 . S
C186 C190 1.391 . S
C187 C186 1.387 . S
C187 C188 1.369 . S
C187 H196 0.929 . S
C188 N185 1.346 . S
C188 C187 1.369 . S
C188 H191 0.928 . S
C189 N185 1.345 . S
C189 C190 1.371 . S
C189 H192 0.931 . S
C190 C186 1.391 . S
C190 C189 1.371 . S
C190 H197 0.930 . S
H191 C188 0.928 . S
H192 C189 0.931 . S
H193 C169 0.930 . S
H194 C166 0.930 . S
H195 C175 0.930 . S
H196 C187 0.929 . S
H197 C190 0.930 . S
H198 C206 0.950 . S
H199 C211 0.950 . S
H200 C208 0.950 1_556 S
H201 C210 0.950 . S
H202 C212 0.950 . S
H203 C214 0.950 . S
H204 C216 0.950 1_556 S
H205 C217 0.950 1_556 S
C206 H198 0.950 . S
C206 C207 1.386 1_556 S
C206 C208 1.391 1_556 S
C207 C206 1.386 1_554 S
C207 C211 1.393 . S
C208 H200 0.950 1_554 S
C208 C206 1.391 1_554 S
C208 C209 1.400 . S
C209 C208 1.400 . S
C209 C210 1.398 . S
C209 C215 1.491 1_455 S
C210 H201 0.950 . S
C210 C209 1.398 . S
C210 C211 1.391 . S
C211 H199 0.950 . S
C211 C207 1.393 . S
C211 C210 1.391 . S
C212 H202 0.950 . S
C212 C213 1.386 . S
C212 C214 1.391 . S
C213 C212 1.386 . S
C213 C217 1.393 . S
C214 H203 0.950 . S
C214 C212 1.391 . S
C214 C215 1.400 . S
C215 C209 1.491 1_655 S
C215 C214 1.400 . S
C215 C216 1.398 . S
C216 H204 0.950 1_554 S
C216 C215 1.398 . S
C216 C217 1.391 . S
C217 H205 0.950 1_554 S
C217 C213 1.393 . S
C217 C216 1.391 . S
H218 C226 0.950 . S
H219 C231 0.950 . S
H220 C228 0.950 . S
H221 C230 0.950 . S
H222 C232 0.950 . S
H223 C234 0.950 . S
H224 C236 0.950 . S
H225 C237 0.950 . S
C226 H218 0.950 . S
C226 C227 1.386 . S
C226 C228 1.391 . S
C227 C226 1.386 . S
C227 C231 1.393 . S
C228 H220 0.950 . S
C228 C226 1.391 . S
C228 C229 1.400 . S
C229 C228 1.400 . S
C229 C230 1.398 . S
C229 C235 1.491 1_565 S
C230 H221 0.950 . S
C230 C229 1.398 . S
C230 C231 1.391 . S
C231 H219 0.950 . S
C231 C227 1.393 . S
C231 C230 1.391 . S
C232 H222 0.950 . S
C232 C233 1.386 . S
C232 C234 1.391 . S
C233 C232 1.386 . S
C233 C237 1.393 . S
C234 H223 0.950 . S
C234 C232 1.391 . S
C234 C235 1.400 . S
C235 C229 1.491 1_545 S
C235 C234 1.400 . S
C235 C236 1.398 . S
C236 H224 0.950 . S
C236 C235 1.398 . S
C236 C237 1.391 . S
C237 H225 0.950 . S
C237 C233 1.393 . S
C237 C236 1.391 . S
H238 C246 0.950 . S
H239 C251 0.950 . S
H240 C248 0.950 . S
H241 C250 0.950 . S
H242 C252 0.950 . S
H243 C254 0.950 . S
H244 C256 0.950 . S
H245 C257 0.950 . S
C246 H238 0.950 . S
C246 C247 1.386 . S
C246 C248 1.391 . S
C247 C246 1.386 . S
C247 C251 1.393 . S
C248 H240 0.950 . S
C248 C246 1.391 . S
C248 C249 1.400 . S
C249 C248 1.400 . S
C249 C250 1.398 . S
C249 C255 1.491 . S
C250 H241 0.950 . S
C250 C249 1.398 . S
C250 C251 1.391 . S
C251 H239 0.950 . S
C251 C247 1.393 . S
C251 C250 1.391 . S
C252 H242 0.950 . S
C252 C253 1.386 . S
C252 C254 1.391 . S
C253 C252 1.386 . S
C253 C257 1.393 . S
C254 H243 0.950 . S
C254 C252 1.391 . S
C254 C255 1.400 . S
C255 C249 1.491 . S
C255 C254 1.400 . S
C255 C256 1.398 . S
C256 H244 0.950 . S
C256 C255 1.398 . S
C256 C257 1.391 . S
C257 H245 0.950 . S
C257 C253 1.393 . S
C257 C256 1.391 . S
H258 C266 0.950 . S
H259 C271 0.950 . S
H260 C268 0.950 . S
H261 C270 0.950 . S
H262 C272 0.950 . S
H263 C274 0.950 . S
H264 C276 0.950 . S
H265 C277 0.950 . S
C266 H258 0.950 . S
C266 C267 1.386 . S
C266 C268 1.391 . S
C267 C266 1.386 . S
C267 C271 1.393 . S
C268 H260 0.950 . S
C268 C266 1.391 . S
C268 C269 1.400 . S
C269 C268 1.400 . S
C269 C270 1.398 . S
C269 C275 1.491 . S
C270 H261 0.950 . S
C270 C269 1.398 . S
C270 C271 1.391 . S
C271 H259 0.950 . S
C271 C267 1.393 . S
C271 C270 1.391 . S
C272 H262 0.950 . S
C272 C273 1.386 . S
C272 C274 1.391 . S
C273 C272 1.386 . S
C273 C277 1.393 . S
C274 H263 0.950 . S
C274 C272 1.391 . S
C274 C275 1.400 . S
C275 C269 1.491 . S
C275 C274 1.400 . S
C275 C276 1.398 . S
C276 H264 0.950 . S
C276 C275 1.398 . S
C276 C277 1.391 . S
C277 H265 0.950 . S
C277 C273 1.393 . S
C277 C276 1.391 . S
H278 C286 0.950 . S
H279 C291 0.950 . S
H280 C288 0.950 . S
H281 C290 0.950 . S
H282 C292 0.950 . S
H283 C294 0.950 . S
H284 C296 0.950 . S
H285 C297 0.950 . S
C286 H278 0.950 . S
C286 C287 1.386 . S
C286 C288 1.391 . S
C287 C286 1.386 . S
C287 C291 1.393 . S
C288 H280 0.950 . S
C288 C286 1.391 . S
C288 C289 1.400 . S
C289 C288 1.400 . S
C289 C290 1.398 . S
C289 C295 1.491 . S
C290 H281 0.950 . S
C290 C289 1.398 . S
C290 C291 1.391 . S
C291 H279 0.950 . S
C291 C287 1.393 . S
C291 C290 1.391 . S
C292 H282 0.950 . S
C292 C293 1.386 . S
C292 C294 1.391 . S
C293 C292 1.386 . S
C293 C297 1.393 . S
C294 H283 0.950 . S
C294 C292 1.391 . S
C294 C295 1.400 . S
C295 C289 1.491 . S
C295 C294 1.400 . S
C295 C296 1.398 . S
C296 H284 0.950 . S
C296 C295 1.398 . S
C296 C297 1.391 . S
C297 H285 0.950 . S
C297 C293 1.393 . S
C297 C296 1.391 . S
H298 C306 0.950 . S
H299 C311 0.950 . S
H300 C308 0.950 . S
H301 C310 0.950 . S
H302 C312 0.950 . S
H303 C314 0.950 . S
H304 C316 0.950 . S
H305 C317 0.950 . S
C306 H298 0.950 . S
C306 C307 1.386 . S
C306 C308 1.391 . S
C307 C306 1.386 . S
C307 C311 1.393 . S
C308 H300 0.950 . S
C308 C306 1.391 . S
C308 C309 1.400 . S
C309 C308 1.400 . S
C309 C310 1.398 . S
C309 C315 1.491 . S
C310 H301 0.950 . S
C310 C309 1.398 . S
C310 C311 1.391 . S
C311 H299 0.950 . S
C311 C307 1.393 . S
C311 C310 1.391 . S
C312 H302 0.950 . S
C312 C313 1.386 . S
C312 C314 1.391 . S
C313 C312 1.386 . S
C313 C317 1.393 . S
C314 H303 0.950 . S
C314 C312 1.391 . S
C314 C315 1.400 . S
C315 C309 1.491 . S
C315 C314 1.400 . S
C315 C316 1.398 . S
C316 H304 0.950 . S
C316 C315 1.398 . S
C316 C317 1.391 . S
C317 H305 0.950 . S
C317 C313 1.393 . S
C317 C316 1.391 . S
H318 C326 0.950 . S
H319 C331 0.950 . S
H320 C328 0.950 . S
H321 C330 0.950 . S
H322 C332 0.950 . S
H323 C334 0.950 . S
H324 C336 0.950 . S
H325 C337 0.950 . S
C326 H318 0.950 . S
C326 C327 1.386 . S
C326 C328 1.391 . S
C327 C326 1.386 . S
C327 C331 1.393 . S
C328 H320 0.950 . S
C328 C326 1.391 . S
C328 C329 1.400 . S
C329 C328 1.400 . S
C329 C330 1.398 . S
C329 C335 1.491 . S
C330 H321 0.950 . S
C330 C329 1.398 . S
C330 C331 1.391 . S
C331 H319 0.950 . S
C331 C327 1.393 . S
C331 C330 1.391 . S
C332 H322 0.950 . S
C332 C333 1.386 . S
C332 C334 1.391 . S
C333 C332 1.386 . S
C333 C337 1.393 . S
C334 H323 0.950 . S
C334 C332 1.391 . S
C334 C335 1.400 . S
C335 C329 1.491 . S
C335 C334 1.400 . S
C335 C336 1.398 . S
C336 H324 0.950 . S
C336 C335 1.398 . S
C336 C337 1.391 . S
C337 H325 0.950 . S
C337 C333 1.393 . S
C337 C336 1.391 . S
H338 C346 0.950 . S
H339 C351 0.950 . S
H340 C348 0.950 . S
H341 C350 0.950 . S
H342 C352 0.950 . S
H343 C354 0.950 . S
H344 C356 0.950 . S
H345 C357 0.950 . S
C346 H338 0.950 . S
C346 C347 1.386 . S
C346 C348 1.391 . S
C347 C346 1.386 . S
C347 C351 1.393 . S
C348 H340 0.950 . S
C348 C346 1.391 . S
C348 C349 1.400 . S
C349 C348 1.400 . S
C349 C350 1.398 . S
C349 C355 1.491 . S
C350 H341 0.950 . S
C350 C349 1.398 . S
C350 C351 1.391 . S
C351 H339 0.950 . S
C351 C347 1.393 . S
C351 C350 1.391 . S
C352 H342 0.950 . S
C352 C353 1.386 . S
C352 C354 1.391 . S
C353 C352 1.386 . S
C353 C357 1.393 . S
C354 H343 0.950 . S
C354 C352 1.391 . S
C354 C355 1.400 . S
C355 C349 1.491 . S
C355 C354 1.400 . S
C355 C356 1.398 . S
C356 H344 0.950 . S
C356 C355 1.398 . S
C356 C357 1.391 . S
C357 H345 0.950 . S
C357 C353 1.393 . S
C357 C356 1.391 . S
H358 C366 0.950 . S
H359 C371 0.950 . S
H360 C368 0.950 . S
H361 C370 0.950 . S
H362 C372 0.950 . S
H363 C374 0.950 . S
H364 C376 0.950 . S
H365 C377 0.950 . S
C366 H358 0.950 . S
C366 C367 1.386 . S
C366 C368 1.391 . S
C367 C366 1.386 . S
C367 C371 1.393 . S
C368 H360 0.950 . S
C368 C366 1.391 . S
C368 C369 1.400 . S
C369 C368 1.400 . S
C369 C370 1.398 . S
C369 C375 1.491 . S
C370 H361 0.950 . S
C370 C369 1.398 . S
C370 C371 1.391 . S
C371 H359 0.950 . S
C371 C367 1.393 . S
C371 C370 1.391 . S
C372 H362 0.950 . S
C372 C373 1.386 . S
C372 C374 1.391 . S
C373 C372 1.386 . S
C373 C377 1.393 . S
C374 H363 0.950 . S
C374 C372 1.391 . S
C374 C375 1.400 . S
C375 C369 1.491 . S
C375 C374 1.400 . S
C375 C376 1.398 . S
C376 H364 0.950 . S
C376 C375 1.398 . S
C376 C377 1.391 . S
C377 H365 0.950 . S
C377 C373 1.393 . S
C377 C376 1.391 . S
H378 C386 0.950 . S
H379 C391 0.950 1_556 S
H380 C388 0.950 . S
H381 C390 0.950 1_556 S
H382 C392 0.950 . S
H383 C394 0.950 . S
H384 C396 0.950 . S
H385 C397 0.950 . S
C386 H378 0.950 . S
C386 C387 1.386 . S
C386 C388 1.391 . S
C387 C386 1.386 . S
C387 C391 1.393 . S
C388 H380 0.950 . S
C388 C386 1.391 . S
C388 C389 1.400 . S
C389 C388 1.400 . S
C389 C390 1.398 . S
C389 C395 1.491 . S
C390 H381 0.950 1_554 S
C390 C389 1.398 . S
C390 C391 1.391 . S
C391 H379 0.950 1_554 S
C391 C387 1.393 . S
C391 C390 1.391 . S
C392 H382 0.950 . S
C392 C393 1.386 . S
C392 C394 1.391 . S
C393 C392 1.386 . S
C393 C397 1.393 . S
C394 H383 0.950 . S
C394 C392 1.391 . S
C394 C395 1.400 . S
C395 C389 1.491 . S
C395 C394 1.400 . S
C395 C396 1.398 . S
C396 H384 0.950 . S
C396 C395 1.398 . S
C396 C397 1.391 . S
C397 H385 0.950 . S
C397 C393 1.393 . S
C397 C396 1.391 . S
H398 C406 0.950 . S
H399 C411 0.950 . S
H400 C408 0.950 . S
H401 C410 0.950 . S
H402 C412 0.950 . S
H403 C414 0.950 . S
H404 C416 0.950 . S
H405 C417 0.950 . S
C406 H398 0.950 . S
C406 C407 1.386 . S
C406 C408 1.391 . S
C407 C406 1.386 . S
C407 C411 1.393 . S
C408 H400 0.950 . S
C408 C406 1.391 . S
C408 C409 1.400 . S
C409 C408 1.400 . S
C409 C410 1.398 . S
C409 C415 1.491 . S
C410 H401 0.950 . S
C410 C409 1.398 . S
C410 C411 1.391 . S
C411 H399 0.950 . S
C411 C407 1.393 . S
C411 C410 1.391 . S
C412 H402 0.950 . S
C412 C413 1.386 . S
C412 C414 1.391 . S
C413 C412 1.386 . S
C413 C417 1.393 . S
C414 H403 0.950 . S
C414 C412 1.391 . S
C414 C415 1.400 . S
C415 C409 1.491 . S
C415 C414 1.400 . S
C415 C416 1.398 . S
C416 H404 0.950 . S
C416 C415 1.398 . S
C416 C417 1.391 . S
C417 H405 0.950 . S
C417 C413 1.393 . S
C417 C416 1.391 . S
H418 C426 0.950 . S
H419 C431 0.950 . S
H420 C428 0.950 . S
H421 C430 0.950 . S
H422 C432 0.950 . S
H423 C434 0.950 . S
H424 C436 0.950 . S
H425 C437 0.950 . S
C426 H418 0.950 . S
C426 C427 1.386 . S
C426 C428 1.391 . S
C427 C426 1.386 . S
C427 C431 1.393 . S
C428 H420 0.950 . S
C428 C426 1.391 . S
C428 C429 1.400 . S
C429 C428 1.400 . S
C429 C430 1.398 . S
C429 C435 1.491 . S
C430 H421 0.950 . S
C430 C429 1.398 . S
C430 C431 1.391 . S
C431 H419 0.950 . S
C431 C427 1.393 . S
C431 C430 1.391 . S
C432 H422 0.950 . S
C432 C433 1.386 . S
C432 C434 1.391 . S
C433 C432 1.386 . S
C433 C437 1.393 . S
C434 H423 0.950 . S
C434 C432 1.391 . S
C434 C435 1.400 . S
C435 C429 1.491 . S
C435 C434 1.400 . S
C435 C436 1.398 . S
C436 H424 0.950 . S
C436 C435 1.398 . S
C436 C437 1.391 . S
C437 H425 0.950 . S
C437 C433 1.393 . S
C437 C436 1.391 . S
H438 C446 0.950 . S
H439 C451 0.950 . S
H440 C448 0.950 . S
H441 C450 0.950 . S
H442 C452 0.950 . S
H443 C454 0.950 . S
H444 C456 0.950 . S
H445 C457 0.950 . S
C446 H438 0.950 . S
C446 C447 1.386 . S
C446 C448 1.391 . S
C447 C446 1.386 . S
C447 C451 1.393 . S
C448 H440 0.950 . S
C448 C446 1.391 . S
C448 C449 1.400 . S
C449 C448 1.400 . S
C449 C450 1.398 . S
C449 C455 1.491 . S
C450 H441 0.950 . S
C450 C449 1.398 . S
C450 C451 1.391 . S
C451 H439 0.950 . S
C451 C447 1.393 . S
C451 C450 1.391 . S
C452 H442 0.950 . S
C452 C453 1.386 . S
C452 C454 1.391 . S
C453 C452 1.386 . S
C453 C457 1.393 . S
C454 H443 0.950 . S
C454 C452 1.391 . S
C454 C455 1.400 . S
C455 C449 1.491 . S
C455 C454 1.400 . S
C455 C456 1.398 . S
C456 H444 0.950 . S
C456 C455 1.398 . S
C456 C457 1.391 . S
C457 H445 0.950 . S
C457 C453 1.393 . S
C457 C456 1.391 . S
H458 C466 0.950 1_556 S
H459 C471 0.950 . S
H460 C468 0.950 1_556 S
H461 C470 0.950 . S
H462 C472 0.950 . S
H463 C474 0.950 . S
H464 C476 0.950 . S
H465 C477 0.950 . S
C466 H458 0.950 1_554 S
C466 C467 1.386 . S
C466 C468 1.391 . S
C467 C466 1.386 . S
C467 C471 1.393 . S
C468 H460 0.950 1_554 S
C468 C466 1.391 . S
C468 C469 1.400 . S
C469 C468 1.400 . S
C469 C470 1.398 . S
C469 C475 1.491 . S
C470 H461 0.950 . S
C470 C469 1.398 . S
C470 C471 1.391 . S
C471 H459 0.950 . S
C471 C467 1.393 . S
C471 C470 1.391 . S
C472 H462 0.950 . S
C472 C473 1.386 . S
C472 C474 1.391 . S
C473 C472 1.386 . S
C473 C477 1.393 . S
C474 H463 0.950 . S
C474 C472 1.391 . S
C474 C475 1.400 . S
C475 C469 1.491 . S
C475 C474 1.400 . S
C475 C476 1.398 . S
C476 H464 0.950 . S
C476 C475 1.398 . S
C476 C477 1.391 . S
C477 H465 0.950 . S
C477 C473 1.393 . S
C477 C476 1.391 . S
H478 C486 0.950 . S
H479 C491 0.950 . S
H480 C488 0.950 . S
H481 C490 0.950 . S
H482 C492 0.950 . S
H483 C494 0.950 . S
H484 C496 0.950 . S
H485 C497 0.950 . S
C486 H478 0.950 . S
C486 C487 1.386 . S
C486 C488 1.391 . S
C487 C486 1.386 . S
C487 C491 1.393 . S
C488 H480 0.950 . S
C488 C486 1.391 . S
C488 C489 1.400 . S
C489 C488 1.400 . S
C489 C490 1.398 . S
C489 C495 1.491 . S
C490 H481 0.950 . S
C490 C489 1.398 . S
C490 C491 1.391 . S
C491 H479 0.950 . S
C491 C487 1.393 . S
C491 C490 1.391 . S
C492 H482 0.950 . S
C492 C493 1.386 . S
C492 C494 1.391 . S
C493 C492 1.386 . S
C493 C497 1.393 . S
C494 H483 0.950 . S
C494 C492 1.391 . S
C494 C495 1.400 . S
C495 C489 1.491 . S
C495 C494 1.400 . S
C495 C496 1.398 . S
C496 H484 0.950 . S
C496 C495 1.398 . S
C496 C497 1.391 . S
C497 H485 0.950 . S
C497 C493 1.393 . S
C497 C496 1.391 . S
C207 C18 0.982 . S
C213 C117 0.983 . S
C227 C150 0.857 . S
C233 C51 0.858 . S
C247 C183 0.958 . S
C253 C84 0.954 . S
C267 N13 1.458 . S
C273 N2 1.455 . S
C287 N46 1.456 . S
C293 N35 1.453 . S
C307 N68 1.444 . S
C313 N79 1.448 . S
C327 N112 1.446 . S
C333 N101 1.443 . S
C347 N134 1.457 . S
C353 N145 1.459 . S
C367 N178 1.442 . S
C373 N167 1.438 . S
C387 C21 0.792 . S
C393 C73 0.766 . S
C407 C54 0.692 . S
C413 C120 0.702 . S
C427 C87 0.719 . S
C433 C153 0.669 . S
C447 C106 0.865 . S
C453 C172 0.895 . S
C467 C7 0.913 . S
C473 C139 0.868 . S
C487 C40 0.776 . S
C493 C186 0.793 . S
