# Generated by pormake.
# Topology mdf, (4)-cn, num edge types: 1
# Building blocks:
#     Node 0, Type 0, BuildingBlock: UXUYUI_clean_sbu_0, # of connection points: 4
#     Node 1, Type 0, BuildingBlock: UXUYUI_clean_sbu_0, # of connection points: 4
#     Node 2, Type 0, BuildingBlock: UXUYUI_clean_sbu_0, # of connection points: 4
#     Node 3, Type 0, BuildingBlock: UXUYUI_clean_sbu_0, # of connection points: 4
#     Node 4, Type 0, BuildingBlock: UXUYUI_clean_sbu_0, # of connection points: 4
#     Node 5, Type 0, BuildingBlock: UXUYUI_clean_sbu_0, # of connection points: 4
#     Node 6, Type 0, BuildingBlock: UXUYUI_clean_sbu_0, # of connection points: 4
#     Node 7, Type 0, BuildingBlock: UXUYUI_clean_sbu_0, # of connection points: 4
#     Edge 8, Type (0, 0), BuildingBlock: XIVTED_clean_linker_0, # of connection points: 2
#     Edge 9, Type (0, 0), BuildingBlock: XIVTED_clean_linker_0, # of connection points: 2
#     Edge 10, Type (0, 0), BuildingBlock: XIVTED_clean_linker_0, # of connection points: 2
#     Edge 11, Type (0, 0), BuildingBlock: XIVTED_clean_linker_0, # of connection points: 2
#     Edge 12, Type (0, 0), BuildingBlock: XIVTED_clean_linker_0, # of connection points: 2
#     Edge 13, Type (0, 0), BuildingBlock: XIVTED_clean_linker_0, # of connection points: 2
#     Edge 14, Type (0, 0), BuildingBlock: XIVTED_clean_linker_0, # of connection points: 2
#     Edge 15, Type (0, 0), BuildingBlock: XIVTED_clean_linker_0, # of connection points: 2
#     Edge 16, Type (0, 0), BuildingBlock: XIVTED_clean_linker_0, # of connection points: 2
#     Edge 17, Type (0, 0), BuildingBlock: XIVTED_clean_linker_0, # of connection points: 2
#     Edge 18, Type (0, 0), BuildingBlock: XIVTED_clean_linker_0, # of connection points: 2
#     Edge 19, Type (0, 0), BuildingBlock: XIVTED_clean_linker_0, # of connection points: 2
#     Edge 20, Type (0, 0), BuildingBlock: XIVTED_clean_linker_0, # of connection points: 2
#     Edge 21, Type (0, 0), BuildingBlock: XIVTED_clean_linker_0, # of connection points: 2
#     Edge 22, Type (0, 0), BuildingBlock: XIVTED_clean_linker_0, # of connection points: 2
#     Edge 23, Type (0, 0), BuildingBlock: XIVTED_clean_linker_0, # of connection points: 2
# Relax obj value: 0.090
# Max RMSD: 0.078
# Mean RMSD: 0.078
data_MOF--net-mdf--node1-UXUYUI_clean_sbu_0--edge1-XIVTED_clean_linker_0
_symmetry_space_group_name_H-M    P1
_symmetry_Int_Tables_number       1
_symmetry_cell_setting            triclinic
loop_
_symmetry_equiv_pos_as_xyz
'x, y, z'
_cell_length_a     50.603707
_cell_length_b     50.608954
_cell_length_c     23.039208
_cell_angle_alpha  90.001647
_cell_angle_beta   89.993221
_cell_angle_gamma 90.004334
loop_
_atom_site_label
_atom_site_type_symbol
_atom_site_fract_x
_atom_site_fract_y
_atom_site_fract_z
_atom_type_partial_charge
Li0 Li 0.24084 0.56945 0.4266 0.0
Li1 Li 0.22865 0.53642 0.35301 0.0
Li2 Li 0.2746 0.53645 0.3966 0.0
Li3 Li 0.26046 0.56996 0.32622 0.0
C4 C 0.23538 0.51913 0.48716 0.0
N5 N 0.22642 0.49575 0.59382 0.0
C6 C 0.21092 0.50755 0.4994 0.0
C7 C 0.25543 0.51836 0.52885 0.0
C8 C 0.20672 0.49598 0.55368 0.0
C9 C 0.25048 0.50657 0.58258 0.0
C10 C 0.198 0.57816 0.32937 0.0
C11 C 0.16662 0.57464 0.25096 0.0
N12 N 0.14708 0.58279 0.28732 0.0
C13 C 0.17765 0.58668 0.36587 0.0
C14 C 0.19251 0.57228 0.27135 0.0
C15 C 0.15201 0.58883 0.34382 0.0
C16 C 0.23758 0.61349 0.50403 0.0
N17 N 0.22723 0.58951 0.49007 0.0
C18 C 0.1963 0.59248 0.56816 0.0
C19 C 0.20667 0.57913 0.5204 0.0
C20 C 0.20694 0.61699 0.58458 0.0
C21 C 0.22769 0.62766 0.55146 0.0
H22 H 0.25365 0.62153 0.47859 0.0
H23 H 0.19811 0.56056 0.50711 0.0
C24 C 0.20644 0.49418 0.28954 0.0
N25 N 0.2008 0.51362 0.32832 0.0
C26 C 0.18708 0.47587 0.27371 0.0
C27 C 0.15631 0.49818 0.33722 0.0
C28 C 0.17632 0.51594 0.35214 0.0
C29 C 0.16167 0.4776 0.29804 0.0
H30 H 0.22614 0.49257 0.27176 0.0
H31 H 0.1725 0.5312 0.38386 0.0
C32 C 0.29788 0.58468 0.43828 0.0
N33 N 0.3373 0.60311 0.51084 0.0
C34 C 0.31978 0.59788 0.41525 0.0
C35 C 0.29591 0.58115 0.49828 0.0
C36 C 0.33954 0.60697 0.45263 0.0
C37 C 0.31607 0.59053 0.53422 0.0
C38 C 0.27608 0.52821 0.26314 0.0
C39 C 0.30301 0.52212 0.26197 0.0
C40 C 0.26238 0.53173 0.21104 0.0
C41 C 0.31592 0.5201 0.20854 0.0
C42 C 0.27601 0.5296 0.15852 0.0
N43 N 0.30228 0.5239 0.15836 0.0
C44 C 0.29609 0.48754 0.42415 0.0
C45 C 0.32739 0.52215 0.43206 0.0
C46 C 0.31516 0.46889 0.43951 0.0
N47 N 0.30244 0.51357 0.42084 0.0
C48 C 0.34708 0.50419 0.44798 0.0
C49 C 0.34113 0.47709 0.45174 0.0
H50 H 0.27616 0.48125 0.41421 0.0
H51 H 0.33218 0.54283 0.42815 0.0
C52 C 0.25736 0.60666 0.2318 0.0
N53 N 0.27362 0.59112 0.26412 0.0
C54 C 0.26723 0.62022 0.18351 0.0
C55 C 0.31037 0.60183 0.20347 0.0
C56 C 0.29978 0.58898 0.25166 0.0
C57 C 0.29397 0.61744 0.1683 0.0
H58 H 0.23666 0.60815 0.24286 0.0
H59 H 0.31231 0.57672 0.27845 0.0
O60 O 0.23983 0.53039 0.43401 0.0
O61 O 0.22319 0.57584 0.35026 0.0
O62 O 0.27837 0.57569 0.40216 0.0
O63 O 0.26321 0.53075 0.31505 0.0
H64 H 0.19526 0.50766 0.46751 0.0
H65 H 0.27473 0.52646 0.51972 0.0
H66 H 0.18781 0.48715 0.56385 0.0
H67 H 0.26582 0.5059 0.61525 0.0
H68 H 0.16207 0.57 0.20623 0.0
H69 H 0.18157 0.59153 0.41075 0.0
H70 H 0.20805 0.56582 0.24246 0.0
H71 H 0.13605 0.5953 0.37162 0.0
H72 H 0.17986 0.58385 0.59156 0.0
H73 H 0.23647 0.6465 0.56265 0.0
H74 H 0.19199 0.46043 0.24299 0.0
H75 H 0.13712 0.50002 0.35765 0.0
H76 H 0.32153 0.60106 0.369 0.0
H77 H 0.27884 0.57161 0.51703 0.0
H78 H 0.35664 0.61713 0.43537 0.0
H79 H 0.31477 0.58791 0.58073 0.0
H80 H 0.31391 0.51928 0.30187 0.0
H81 H 0.2415 0.53621 0.21118 0.0
H82 H 0.33681 0.5156 0.20698 0.0
H83 H 0.2657 0.53247 0.11787 0.0
H84 H 0.30969 0.44822 0.44064 0.0
H85 H 0.36671 0.51152 0.4575 0.0
H86 H 0.25396 0.63204 0.15732 0.0
H87 H 0.33117 0.59948 0.19363 0.0
Li88 Li 0.42977 0.7372 0.66971 0.0
Li89 Li 0.46266 0.72532 0.59878 0.0
Li90 Li 0.46478 0.76889 0.64194 0.0
Li91 Li 0.42987 0.75728 0.56731 0.0
C92 C 0.47451 0.73333 0.7386 0.0
N93 N 0.48571 0.73101 0.85586 0.0
C94 C 0.48567 0.71052 0.76246 0.0
C95 C 0.46914 0.75497 0.77432 0.0
C96 C 0.49115 0.70971 0.82187 0.0
C97 C 0.47495 0.75343 0.83349 0.0
C98 C 0.41791 0.697 0.56629 0.0
C99 C 0.40314 0.67242 0.48268 0.0
N100 N 0.40574 0.64958 0.51327 0.0
C101 C 0.4203 0.67331 0.59703 0.0
C102 C 0.40916 0.69661 0.50874 0.0
C103 C 0.41413 0.64953 0.56937 0.0
C104 C 0.38625 0.73665 0.74967 0.0
N105 N 0.40844 0.72401 0.73127 0.0
C106 C 0.40221 0.6899 0.80156 0.0
C107 C 0.41643 0.70098 0.75588 0.0
C108 C 0.37919 0.7024 0.82187 0.0
C109 C 0.37126 0.72615 0.79529 0.0
H110 H 0.38011 0.75476 0.72877 0.0
H111 H 0.43397 0.69119 0.74 0.0
C112 C 0.50813 0.69453 0.60529 0.0
N113 N 0.48536 0.69692 0.57447 0.0
C114 C 0.52648 0.67496 0.59142 0.0
C115 C 0.49782 0.66063 0.51376 0.0
C116 C 0.48012 0.68068 0.52884 0.0
C117 C 0.5214 0.65748 0.54533 0.0
H118 H 0.51224 0.70816 0.64028 0.0
H119 H 0.46243 0.6834 0.50348 0.0
C120 C 0.41675 0.79881 0.66348 0.0
N121 N 0.3988 0.84768 0.69975 0.0
C122 C 0.41086 0.81844 0.62277 0.0
C123 C 0.41317 0.80393 0.72259 0.0
C124 C 0.40189 0.84304 0.642 0.0
C125 C 0.40419 0.8288 0.74006 0.0
C126 C 0.48797 0.75202 0.52082 0.0
C127 C 0.51459 0.7555 0.53504 0.0
C128 C 0.48118 0.7396 0.46871 0.0
C129 C 0.53402 0.74636 0.49693 0.0
C130 C 0.5012 0.73076 0.43174 0.0
N131 N 0.52698 0.73427 0.44652 0.0
C132 C 0.51248 0.78867 0.68722 0.0
C133 C 0.48174 0.82221 0.66299 0.0
C134 C 0.53127 0.8076 0.70295 0.0
N135 N 0.48829 0.79622 0.66751 0.0
C136 C 0.49977 0.84179 0.67912 0.0
C137 C 0.52499 0.83455 0.69884 0.0
H138 H 0.51736 0.76789 0.68968 0.0
H139 H 0.4628 0.82787 0.64568 0.0
C140 C 0.38264 0.77063 0.5052 0.0
N141 N 0.40951 0.77127 0.50524 0.0
C142 C 0.36847 0.78211 0.45945 0.0
C143 C 0.40995 0.79412 0.41463 0.0
C144 C 0.42321 0.78277 0.46135 0.0
C145 C 0.38217 0.79424 0.4134 0.0
H146 H 0.37225 0.76154 0.54105 0.0
H147 H 0.44453 0.78338 0.46283 0.0
O148 O 0.46861 0.7342 0.68067 0.0
O149 O 0.42344 0.72053 0.5927 0.0
O150 O 0.42529 0.77451 0.64536 0.0
O151 O 0.46867 0.76015 0.55835 0.0
H152 H 0.4898 0.69351 0.73546 0.0
H153 H 0.46067 0.77279 0.75653 0.0
H154 H 0.49967 0.69214 0.84096 0.0
H155 H 0.47088 0.77004 0.86163 0.0
H156 H 0.3964 0.6718 0.43814 0.0
H157 H 0.42702 0.67329 0.64157 0.0
H158 H 0.40713 0.7148 0.48443 0.0
H159 H 0.416 0.63102 0.59251 0.0
H160 H 0.40941 0.67183 0.82113 0.0
H161 H 0.3535 0.73632 0.80895 0.0
H162 H 0.54466 0.67386 0.61607 0.0
H163 H 0.49294 0.64764 0.47799 0.0
H164 H 0.41343 0.81482 0.57686 0.0
H165 H 0.41711 0.78885 0.75469 0.0
H166 H 0.39742 0.85846 0.611 0.0
H167 H 0.40141 0.83306 0.78567 0.0
H168 H 0.52019 0.76497 0.57526 0.0
H169 H 0.46066 0.73636 0.45747 0.0
H170 H 0.5547 0.74881 0.50751 0.0
H171 H 0.49623 0.72094 0.39148 0.0
H172 H 0.55049 0.80123 0.71814 0.0
H173 H 0.49433 0.86238 0.67449 0.0
H174 H 0.34709 0.78197 0.46084 0.0
H175 H 0.42148 0.80269 0.37982 0.0
Li176 Li 0.27221 0.96695 0.85227 0.0
Li177 Li 0.25989 0.93382 0.92161 0.0
Li178 Li 0.24131 0.9342 0.81796 0.0
Li179 Li 0.2286 0.96904 0.8914 0.0
C180 C 0.30294 0.92272 0.82904 0.0
N181 N 0.35414 0.91181 0.79518 0.0
C182 C 0.324 0.9284 0.86621 0.0
C183 C 0.30785 0.91136 0.77481 0.0
C184 C 0.34977 0.9228 0.84821 0.0
C185 C 0.3339 0.90601 0.75847 0.0
C186 C 0.25803 0.97789 0.99187 0.0
C187 C 0.23237 0.97171 0.07907 0.0
N188 N 0.24905 0.98814 0.10804 0.0
C189 C 0.27493 0.9947 0.02251 0.0
C190 C 0.23659 0.96627 0.02037 0.0
C191 C 0.27005 0.99964 0.08121 0.0
C192 C 0.30265 0.01261 0.8595 0.0
N193 N 0.30088 0.98956 0.82948 0.0
C194 C 0.33742 0.00208 0.76954 0.0
C195 C 0.31767 0.98409 0.78489 0.0
C196 C 0.33951 0.02612 0.79961 0.0
C197 C 0.32182 0.0313 0.84511 0.0
H198 H 0.28877 0.01671 0.89401 0.0
H199 H 0.31536 0.96613 0.76016 0.0
C200 C 0.26269 0.88792 0.9954 0.0
N201 N 0.27243 0.9124 0.98374 0.0
C202 C 0.27312 0.87304 0.04131 0.0
C203 C 0.30302 0.90903 0.06224 0.0
C204 C 0.29227 0.92298 0.01588 0.0
C205 C 0.29372 0.88355 0.07531 0.0
H206 H 0.24703 0.87988 0.96877 0.0
H207 H 0.29988 0.94235 0.00539 0.0
C208 C 0.24627 0.99391 0.77553 0.0
N209 N 0.26368 0.03622 0.71005 0.0
C210 C 0.24132 0.01976 0.7939 0.0
C211 C 0.25999 0.98958 0.72371 0.0
C212 C 0.25031 0.04089 0.76022 0.0
C213 C 0.26864 0.01124 0.69125 0.0
C214 C 0.19802 0.9197 0.90371 0.0
C215 C 0.17976 0.91899 0.8582 0.0
C216 C 0.1911 0.90926 0.95781 0.0
C217 C 0.15471 0.90825 0.86785 0.0
C218 C 0.16584 0.89868 0.96573 0.0
N219 N 0.14832 0.89841 0.92097 0.0
C220 C 0.2259 0.88689 0.75887 0.0
C221 C 0.22046 0.92695 0.70704 0.0
C222 C 0.21459 0.8726 0.71311 0.0
N223 N 0.22843 0.91358 0.75503 0.0
C224 C 0.20945 0.9135 0.66019 0.0
C225 C 0.20594 0.88597 0.66298 0.0
H226 H 0.2321 0.87682 0.79798 0.0
H227 H 0.22217 0.94819 0.70551 0.0
C228 C 0.20695 0.0145 0.94532 0.0
N229 N 0.20059 0.99234 0.91495 0.0
C230 C 0.18747 0.03265 0.96094 0.0
C231 C 0.15514 0.00541 0.91236 0.0
C232 C 0.17528 0.9877 0.89791 0.0
C233 C 0.16112 0.02833 0.94421 0.0
H234 H 0.22729 0.01847 0.95647 0.0
H235 H 0.17076 0.97065 0.87174 0.0
O236 O 0.27757 0.92793 0.84575 0.0
O237 O 0.2628 0.97268 0.93449 0.0
O238 O 0.23827 0.97299 0.80881 0.0
O239 O 0.22288 0.92957 0.89479 0.0
H240 H 0.32051 0.93733 0.90815 0.0
H241 H 0.2917 0.90679 0.74566 0.0
H242 H 0.36629 0.92723 0.87637 0.0
H243 H 0.33803 0.89726 0.71659 0.0
H244 H 0.21581 0.96288 0.10158 0.0
H245 H 0.29171 0.00375 0.00121 0.0
H246 H 0.22326 0.95337 0.99737 0.0
H247 H 0.28299 0.01259 0.10546 0.0
H248 H 0.35042 0.99758 0.73353 0.0
H249 H 0.32285 0.04958 0.86945 0.0
H250 H 0.26549 0.85339 0.04932 0.0
H251 H 0.31843 0.91829 0.08772 0.0
H252 H 0.23086 0.02349 0.83397 0.0
H253 H 0.26446 0.96972 0.70936 0.0
H254 H 0.24672 0.06099 0.77408 0.0
H255 H 0.27947 0.00817 0.65133 0.0
H256 H 0.18473 0.92697 0.81606 0.0
H257 H 0.20509 0.90921 0.99332 0.0
H258 H 0.14034 0.90775 0.83311 0.0
H259 H 0.1602 0.89061 0.0074 0.0
H260 H 0.21202 0.85147 0.71768 0.0
H261 H 0.20363 0.9247 0.62226 0.0
H262 H 0.19307 0.04993 0.98577 0.0
H263 H 0.13525 0.00154 0.89729 0.0
Li264 Li 0.03295 0.77331 0.09717 0.0
Li265 Li 0.06568 0.76168 0.1726 0.0
Li266 Li 0.06673 0.74059 0.07319 0.0
Li267 Li 0.03298 0.72775 0.14352 0.0
C268 C 0.0776 0.80245 0.07173 0.0
N269 N 0.08844 0.85144 0.02435 0.0
C270 C 0.08718 0.82285 0.1068 0.0
C271 C 0.07387 0.80688 0.01243 0.0
C272 C 0.09246 0.8475 0.08207 0.0
C273 C 0.07936 0.83181 0.98933 0.0
C274 C 0.01663 0.7715 0.23092 0.0
C275 C 0.00714 0.76426 0.33231 0.0
N276 N 0.99665 0.78894 0.33583 0.0
C277 C 0.00542 0.79667 0.23539 0.0
C278 C 0.01723 0.75505 0.27963 0.0
C279 C 0.99556 0.80518 0.28886 0.0
C280 C 0.98854 0.79398 0.03917 0.0
N281 N 0.01044 0.8009 0.06973 0.0
C282 C 0.99797 0.84646 0.06635 0.0
C283 C 0.01537 0.82653 0.08366 0.0
C284 C 0.975 0.83993 0.03514 0.0
C285 C 0.9705 0.81323 0.02133 0.0
H286 H 0.98476 0.77339 0.02975 0.0
H287 H 0.03247 0.83151 0.10945 0.0
C288 C 0.10891 0.76506 0.25237 0.0
N289 N 0.08569 0.77616 0.23536 0.0
C290 C 0.12337 0.77607 0.2982 0.0
C291 C 0.0898 0.80973 0.30768 0.0
C292 C 0.07621 0.79825 0.26155 0.0
C293 C 0.11384 0.79877 0.32658 0.0
H294 H 0.1163 0.74775 0.23012 0.0
H295 H 0.05824 0.80726 0.24605 0.0
C296 C 0.02442 0.72814 0.00642 0.0
N297 N 0.01834 0.70796 0.89578 0.0
C298 C 0.01865 0.70138 0.99844 0.0
C299 C 0.0266 0.74473 0.95818 0.0
C300 C 0.01578 0.69152 0.94215 0.0
C301 C 0.0236 0.73413 0.90259 0.0
C302 C 0.0781 0.70317 0.18658 0.0
C303 C 0.08777 0.67956 0.16331 0.0
C304 C 0.07504 0.70557 0.24661 0.0
C305 C 0.09365 0.65854 0.20045 0.0
C306 C 0.08115 0.68412 0.28233 0.0
N307 N 0.09022 0.66122 0.2587 0.0
C308 C 0.10605 0.74187 0.98375 0.0
C309 C 0.08538 0.70053 0.99999 0.0
C310 C 0.12123 0.73111 0.93883 0.0
N311 N 0.08841 0.72654 0.0129 0.0
C312 C 0.10006 0.68899 0.95549 0.0
C313 C 0.1183 0.7043 0.9241 0.0
H314 H 0.10842 0.7624 0.99543 0.0
H315 H 0.07135 0.68875 0.02408 0.0
C316 C 0.98801 0.70542 0.19699 0.0
N317 N 0.01087 0.69951 0.16883 0.0
C318 C 0.97081 0.68531 0.21412 0.0
C319 C 0.00057 0.65341 0.17146 0.0
C320 C 0.01734 0.67413 0.15572 0.0
C321 C 0.97694 0.65891 0.20108 0.0
H322 H 0.98287 0.72579 0.20524 0.0
H323 H 0.03525 0.67 0.13187 0.0
O324 O 0.07233 0.77818 0.09527 0.0
O325 O 0.02644 0.76292 0.17882 0.0
O326 O 0.02765 0.73808 0.06119 0.0
O327 O 0.0722 0.72395 0.1508 0.0
H328 H 0.09049 0.81973 0.15262 0.0
H329 H 0.0669 0.79124 0.98447 0.0
H330 H 0.09978 0.8635 0.10876 0.0
H331 H 0.07646 0.83553 0.94353 0.0
H332 H 0.00754 0.75173 0.37034 0.0
H333 H 0.00453 0.8096 0.1981 0.0
H334 H 0.02504 0.73524 0.27667 0.0
H335 H 0.98703 0.82469 0.29299 0.0
H336 H 0.00247 0.86673 0.07762 0.0
H337 H 0.95285 0.80711 0.99843 0.0
H338 H 0.14199 0.76715 0.31047 0.0
H339 H 0.0814 0.82699 0.3284 0.0
H340 H 0.01665 0.6883 0.03527 0.0
H341 H 0.03045 0.76557 0.96361 0.0
H342 H 0.01155 0.6708 0.93534 0.0
H343 H 0.02538 0.74673 0.86486 0.0
H344 H 0.09063 0.67742 0.11706 0.0
H345 H 0.06831 0.72388 0.26553 0.0
H346 H 0.10098 0.6401 0.18297 0.0
H347 H 0.0788 0.68572 0.32887 0.0
H348 H 0.13532 0.74357 0.9164 0.0
H349 H 0.09681 0.66836 0.94524 0.0
H350 H 0.95254 0.69044 0.23588 0.0
H351 H 0.00602 0.63331 0.16059 0.0
Li352 Li 0.73689 0.06925 0.92148 0.0
Li353 Li 0.72388 0.03644 0.84717 0.0
Li354 Li 0.77036 0.03615 0.8892 0.0
Li355 Li 0.75571 0.07029 0.8214 0.0
C356 C 0.72857 0.0166 0.97624 0.0
N357 N 0.71378 0.98822 0.07351 0.0
C358 C 0.70247 0.00804 0.98277 0.0
C359 C 0.74723 0.01035 0.01885 0.0
C360 C 0.69535 0.99384 0.03236 0.0
C361 C 0.73934 0.99608 0.06778 0.0
C362 C 0.69378 0.08055 0.82562 0.0
C363 C 0.66194 0.07966 0.74777 0.0
N364 N 0.64355 0.09036 0.78386 0.0
C365 C 0.6746 0.09159 0.86192 0.0
C366 C 0.68746 0.0746 0.76803 0.0
C367 C 0.64931 0.09639 0.83999 0.0
C368 C 0.73464 0.11306 0.99942 0.0
N369 N 0.72391 0.08918 0.98593 0.0
C370 C 0.69387 0.0924 0.06563 0.0
C371 C 0.70361 0.07896 0.01733 0.0
C372 C 0.70488 0.11683 0.08148 0.0
C373 C 0.72537 0.12731 0.04732 0.0
H374 H 0.7505 0.12097 0.9732 0.0
H375 H 0.69479 0.06046 0.00458 0.0
C376 C 0.70384 0.99048 0.7959 0.0
N377 N 0.69629 0.01317 0.82271 0.0
C378 C 0.68509 0.97144 0.78067 0.0
C379 C 0.651 0.99971 0.81974 0.0
C380 C 0.67046 0.018 0.83501 0.0
C381 C 0.65817 0.97582 0.79274 0.0
H382 H 0.72457 0.98689 0.78762 0.0
H383 H 0.66493 0.03578 0.85788 0.0
C384 C 0.79201 0.08257 0.93921 0.0
N385 N 0.82728 0.09729 0.02486 0.0
C386 C 0.81361 0.09864 0.92565 0.0
C387 C 0.78826 0.07413 0.99634 0.0
C388 C 0.83126 0.10583 0.96956 0.0
C389 C 0.80632 0.08175 0.03903 0.0
C390 C 0.7704 0.03009 0.755 0.0
C391 C 0.7978 0.02704 0.7515 0.0
C392 C 0.75548 0.03217 0.7042 0.0
C393 C 0.8099 0.02653 0.697 0.0
C394 C 0.76831 0.0316 0.65053 0.0
N395 N 0.79503 0.02884 0.64807 0.0
C396 C 0.79219 0.98686 0.91328 0.0
C397 C 0.82323 0.0217 0.9221 0.0
C398 C 0.81157 0.96823 0.92692 0.0
N399 N 0.79828 0.01299 0.91128 0.0
C400 C 0.84319 0.00376 0.93644 0.0
C401 C 0.83748 0.97661 0.93871 0.0
H402 H 0.77222 0.9805 0.90393 0.0
H403 H 0.82782 0.04247 0.91876 0.0
C404 C 0.75255 0.10593 0.72466 0.0
N405 N 0.76888 0.09225 0.76061 0.0
C406 C 0.76298 0.12096 0.67916 0.0
C407 C 0.80681 0.10779 0.70911 0.0
C408 C 0.79554 0.09317 0.75408 0.0
C409 C 0.7905 0.12194 0.67069 0.0
H410 H 0.73143 0.10517 0.73117 0.0
H411 H 0.80806 0.08213 0.7834 0.0
O412 O 0.73596 0.03023 0.92751 0.0
O413 O 0.71867 0.07585 0.84634 0.0
O414 O 0.77465 0.07529 0.89657 0.0
O415 O 0.75828 0.03122 0.80794 0.0
H416 H 0.68779 0.01256 0.95021 0.0
H417 H 0.76766 0.01622 0.01412 0.0
H418 H 0.67517 0.98728 0.03811 0.0
H419 H 0.75358 0.99118 0.10111 0.0
H420 H 0.65674 0.07506 0.70336 0.0
H421 H 0.6792 0.09644 0.90652 0.0
H422 H 0.70204 0.06599 0.73943 0.0
H423 H 0.63426 0.10491 0.86759 0.0
H424 H 0.67763 0.0839 0.08991 0.0
H425 H 0.73442 0.14607 0.05806 0.0
H426 H 0.69181 0.95319 0.76114 0.0
H427 H 0.63057 0.00427 0.82938 0.0
H428 H 0.81675 0.10544 0.88165 0.0
H429 H 0.77143 0.0621 0.00772 0.0
H430 H 0.84811 0.1182 0.95969 0.0
H431 H 0.80362 0.07537 0.08345 0.0
H432 H 0.80962 0.0254 0.79047 0.0
H433 H 0.73423 0.03429 0.70624 0.0
H434 H 0.83111 0.02437 0.6936 0.0
H435 H 0.75703 0.03334 0.61083 0.0
H436 H 0.80628 0.94751 0.92864 0.0
H437 H 0.863 0.011 0.94435 0.0
H438 H 0.74965 0.13184 0.65126 0.0
H439 H 0.82807 0.10756 0.70392 0.0
Li440 Li 0.93151 0.24143 0.17817 0.0
Li441 Li 0.96414 0.22941 0.10835 0.0
Li442 Li 0.96575 0.2729 0.14894 0.0
Li443 Li 0.93083 0.26077 0.07803 0.0
C444 C 0.97629 0.24427 0.24698 0.0
N445 N 0.98834 0.25489 0.36163 0.0
C446 C 0.99645 0.23033 0.2749 0.0
C447 C 0.96226 0.26364 0.2774 0.0
C448 C 0.00224 0.23598 0.33287 0.0
C449 C 0.96866 0.26871 0.33531 0.0
C450 C 0.91895 0.19823 0.09199 0.0
C451 C 0.89868 0.16498 0.03169 0.0
N452 N 0.90639 0.14607 0.07008 0.0
C453 C 0.92666 0.17851 0.13087 0.0
C454 C 0.90486 0.19148 0.04197 0.0
C455 C 0.92014 0.15223 0.11899 0.0
C456 C 0.88574 0.23779 0.25074 0.0
N457 N 0.91055 0.22848 0.24093 0.0
C458 C 0.90763 0.20005 0.32349 0.0
C459 C 0.92149 0.20977 0.2758 0.0
C460 C 0.88208 0.20942 0.33523 0.0
C461 C 0.87098 0.22836 0.29783 0.0
H462 H 0.87749 0.25262 0.2222 0.0
H463 H 0.94112 0.20243 0.26675 0.0
C464 C 0.01136 0.20172 0.10842 0.0
N465 N 0.98702 0.2015 0.08351 0.0
C466 C 0.03028 0.18304 0.09258 0.0
C467 C 0.99878 0.16405 0.02568 0.0
C468 C 0.98049 0.18326 0.04255 0.0
C469 C 0.02411 0.16387 0.05066 0.0
H470 H 0.01615 0.21668 0.14024 0.0
H471 H 0.96131 0.18386 0.02206 0.0
C472 C 0.9193 0.30489 0.1459 0.0
N473 N 0.90428 0.35662 0.12645 0.0
C474 C 0.93281 0.32028 0.10517 0.0
C475 C 0.89817 0.31579 0.17673 0.0
C476 C 0.9249 0.34639 0.09594 0.0
C477 C 0.89088 0.342 0.16631 0.0
C478 C 0.98246 0.25419 0.01781 0.0
C479 C 0.00955 0.2586 0.01103 0.0
C480 C 0.96874 0.2397 0.97582 0.0
C481 C 0.0225 0.2483 0.96247 0.0
C482 C 0.98238 0.22979 0.92782 0.0
N483 N 0.00876 0.23423 0.92223 0.0
C484 C 0.01521 0.29597 0.1633 0.0
C485 C 0.98101 0.32187 0.20432 0.0
C486 C 0.03406 0.31478 0.17897 0.0
N487 N 0.98923 0.30003 0.17501 0.0
C488 C 0.99922 0.34123 0.22097 0.0
C489 C 0.02617 0.33794 0.20785 0.0
H490 H 0.02128 0.27801 0.14176 0.0
H491 H 0.96038 0.32429 0.21509 0.0
C492 C 0.88317 0.27076 0.01382 0.0
N493 N 0.90978 0.27438 0.01621 0.0
C494 C 0.86841 0.28206 0.9687 0.0
C495 C 0.90884 0.30007 0.92933 0.0
C496 C 0.92266 0.28875 0.97524 0.0
C497 C 0.88126 0.29714 0.92578 0.0
H498 H 0.87339 0.25942 0.04733 0.0
H499 H 0.94376 0.29164 0.97842 0.0
O500 O 0.97053 0.23886 0.19013 0.0
O501 O 0.92527 0.22405 0.10236 0.0
O502 O 0.92646 0.27919 0.15537 0.0
O503 O 0.96946 0.26347 0.06579 0.0
H504 H 0.00749 0.21526 0.252 0.0
H505 H 0.94656 0.27464 0.25678 0.0
H506 H 0.01779 0.22532 0.35502 0.0
H507 H 0.95795 0.28363 0.35934 0.0
H508 H 0.88779 0.15944 0.99315 0.0
H509 H 0.93795 0.18338 0.16923 0.0
H510 H 0.89884 0.20657 0.01139 0.0
H511 H 0.92609 0.13673 0.14854 0.0
H512 H 0.91675 0.18514 0.35063 0.0
H513 H 0.85135 0.23612 0.30554 0.0
H514 H 0.0495 0.18349 0.11325 0.0
H515 H 0.99338 0.14988 0.99251 0.0
H516 H 0.94931 0.31223 0.08118 0.0
H517 H 0.88751 0.30411 0.20839 0.0
H518 H 0.93518 0.35853 0.06458 0.0
H519 H 0.87457 0.35071 0.18989 0.0
H520 H 0.02051 0.26983 0.04278 0.0
H521 H 0.94784 0.23575 0.98075 0.0
H522 H 0.04347 0.25151 0.95678 0.0
H523 H 0.97203 0.21842 0.89522 0.0
H524 H 0.05455 0.31135 0.16768 0.0
H525 H 0.99229 0.35844 0.24438 0.0
H526 H 0.84718 0.27947 0.96819 0.0
H527 H 0.9198 0.31098 0.89686 0.0
Li528 Li 0.77245 0.46349 0.35418 0.0
Li529 Li 0.75992 0.43132 0.42543 0.0
Li530 Li 0.74336 0.42917 0.32036 0.0
Li531 Li 0.72818 0.46505 0.389 0.0
C532 C 0.80517 0.41993 0.33994 0.0
N533 N 0.85769 0.41019 0.31545 0.0
C534 C 0.82476 0.4274 0.37941 0.0
C535 C 0.81223 0.40737 0.28819 0.0
C536 C 0.85122 0.42236 0.36615 0.0
C537 C 0.83892 0.40264 0.27657 0.0
C538 C 0.75497 0.47641 0.49131 0.0
C539 C 0.72765 0.47037 0.57609 0.0
N540 N 0.7426 0.48834 0.6052 0.0
C541 C 0.77008 0.49481 0.5221 0.0
C542 C 0.7336 0.46406 0.51855 0.0
C543 C 0.7635 0.50057 0.57961 0.0
C544 C 0.80254 0.50955 0.36125 0.0
N545 N 0.80114 0.48624 0.33214 0.0
C546 C 0.839 0.49784 0.27538 0.0
C547 C 0.81869 0.48025 0.28938 0.0
C548 C 0.84108 0.52203 0.30511 0.0
C549 C 0.82235 0.5278 0.34836 0.0
H550 H 0.78797 0.51412 0.39406 0.0
H551 H 0.8168 0.46199 0.26553 0.0
C552 C 0.76357 0.38606 0.50071 0.0
N553 N 0.77189 0.41117 0.49026 0.0
C554 C 0.77373 0.37187 0.54797 0.0
C555 C 0.8003 0.40987 0.57293 0.0
C556 C 0.78998 0.42308 0.52507 0.0
C557 C 0.79255 0.38374 0.5847 0.0
H558 H 0.74935 0.37695 0.47193 0.0
H559 H 0.79662 0.44287 0.51542 0.0
C560 C 0.74747 0.48811 0.27249 0.0
N561 N 0.76524 0.52957 0.20486 0.0
C562 C 0.74158 0.51415 0.28796 0.0
C563 C 0.76232 0.48314 0.22248 0.0
C564 C 0.75076 0.53484 0.25324 0.0
C565 C 0.77114 0.50438 0.1889 0.0
C566 C 0.69907 0.41456 0.40209 0.0
C567 C 0.68186 0.41311 0.35474 0.0
C568 C 0.69147 0.40377 0.4554 0.0
C569 C 0.65715 0.40122 0.36174 0.0
C570 C 0.66658 0.39204 0.46066 0.0
N571 N 0.65008 0.39102 0.41411 0.0
C572 C 0.73005 0.37991 0.26887 0.0
C573 C 0.72645 0.41721 0.20713 0.0
C574 C 0.72063 0.36336 0.22482 0.0
N575 N 0.73264 0.4063 0.25926 0.0
C576 C 0.71743 0.40139 0.16171 0.0
C577 C 0.71423 0.37413 0.1704 0.0
H578 H 0.73484 0.37184 0.31106 0.0
H579 H 0.72795 0.43831 0.20114 0.0
C580 C 0.70493 0.51087 0.43711 0.0
N581 N 0.69921 0.48789 0.40911 0.0
C582 C 0.68482 0.52834 0.45263 0.0
C583 C 0.65323 0.499 0.40771 0.0
C584 C 0.67397 0.48191 0.39364 0.0
C585 C 0.65856 0.52247 0.43802 0.0
H586 H 0.7252 0.51591 0.44669 0.0
H587 H 0.66988 0.46408 0.36974 0.0
O588 O 0.77917 0.42466 0.35194 0.0
O589 O 0.76138 0.4705 0.43502 0.0
O590 O 0.73921 0.46765 0.30681 0.0
O591 O 0.72362 0.42554 0.39581 0.0
H592 H 0.8196 0.43729 0.41944 0.0
H593 H 0.79724 0.40143 0.2573 0.0
H594 H 0.86662 0.42817 0.39611 0.0
H595 H 0.84471 0.39299 0.23664 0.0
H596 H 0.71112 0.46098 0.5976 0.0
H597 H 0.78678 0.50446 0.50181 0.0
H598 H 0.72163 0.44989 0.49551 0.0
H599 H 0.77504 0.51476 0.60394 0.0
H600 H 0.85299 0.49242 0.2419 0.0
H601 H 0.82267 0.54642 0.37148 0.0
H602 H 0.76733 0.3517 0.55481 0.0
H603 H 0.81426 0.42017 0.6004 0.0
H604 H 0.73022 0.51837 0.32659 0.0
H605 H 0.76755 0.46315 0.21045 0.0
H606 H 0.74644 0.5551 0.26484 0.0
H607 H 0.78284 0.50083 0.15038 0.0
H608 H 0.68736 0.4214 0.31319 0.0
H609 H 0.70467 0.40436 0.49233 0.0
H610 H 0.64358 0.40011 0.32553 0.0
H611 H 0.66041 0.38367 0.50169 0.0
H612 H 0.71836 0.34242 0.23315 0.0
H613 H 0.71221 0.41052 0.12075 0.0
H614 H 0.68985 0.54655 0.47475 0.0
H615 H 0.63323 0.49382 0.39542 0.0
Li616 Li 0.5386 0.27473 0.60332 0.0
Li617 Li 0.57087 0.26076 0.67797 0.0
Li618 Li 0.57111 0.24139 0.57738 0.0
Li619 Li 0.53674 0.22857 0.64624 0.0
C620 C 0.58347 0.30358 0.58385 0.0
N621 N 0.59454 0.35438 0.54719 0.0
C622 C 0.59256 0.32244 0.62342 0.0
C623 C 0.58025 0.31049 0.52554 0.0
C624 C 0.59799 0.34804 0.60405 0.0
C625 C 0.58587 0.3363 0.5079 0.0
C626 C 0.52098 0.27134 0.73583 0.0
C627 C 0.50851 0.26246 0.83502 0.0
N628 N 0.49901 0.2875 0.8398 0.0
C629 C 0.51082 0.2969 0.74157 0.0
C630 C 0.5196 0.25389 0.78278 0.0
C631 C 0.49991 0.30473 0.79454 0.0
C632 C 0.49453 0.29607 0.54688 0.0
N633 N 0.51648 0.30297 0.57735 0.0
C634 C 0.50348 0.34843 0.57604 0.0
C635 C 0.52121 0.32857 0.59212 0.0
C636 C 0.48042 0.34179 0.54539 0.0
C637 C 0.47616 0.31523 0.53039 0.0
H638 H 0.49099 0.27555 0.53646 0.0
H639 H 0.53827 0.33352 0.61805 0.0
C640 C 0.61609 0.26157 0.7508 0.0
N641 N 0.59184 0.2725 0.74211 0.0
C642 C 0.63164 0.26951 0.79788 0.0
C643 C 0.59704 0.29983 0.82595 0.0
C644 C 0.58238 0.29161 0.77799 0.0
C645 C 0.62196 0.28869 0.83647 0.0
H646 H 0.62328 0.24659 0.72126 0.0
H647 H 0.56359 0.30077 0.76916 0.0
C648 C 0.52954 0.23082 0.50955 0.0
N649 N 0.52529 0.21139 0.3979 0.0
C650 C 0.52304 0.20431 0.50029 0.0
C651 C 0.53348 0.24754 0.46209 0.0
C652 C 0.52109 0.19484 0.44349 0.0
C653 C 0.53136 0.23732 0.40596 0.0
C654 C 0.58122 0.20258 0.69017 0.0
C655 C 0.59111 0.17878 0.66831 0.0
C656 C 0.57754 0.20546 0.74994 0.0
C657 C 0.5967 0.15809 0.70658 0.0
C658 C 0.58337 0.18434 0.7868 0.0
N659 N 0.59272 0.16127 0.76454 0.0
C660 C 0.60915 0.24276 0.48522 0.0
C661 C 0.58942 0.20122 0.50438 0.0
C662 C 0.62378 0.23193 0.4395 0.0
N663 N 0.59228 0.22735 0.51626 0.0
C664 C 0.60355 0.1896 0.45912 0.0
C665 C 0.62104 0.20498 0.42585 0.0
H666 H 0.61127 0.26344 0.49592 0.0
H667 H 0.57584 0.18944 0.52971 0.0
C668 C 0.48988 0.20802 0.69369 0.0
N669 N 0.51328 0.20107 0.66919 0.0
C670 C 0.47147 0.18871 0.70898 0.0
C671 C 0.50124 0.15539 0.67201 0.0
C672 C 0.51922 0.17537 0.65801 0.0
C673 C 0.47688 0.16194 0.69774 0.0
H674 H 0.48532 0.22863 0.70075 0.0
H675 H 0.53761 0.17043 0.6368 0.0
O676 O 0.57823 0.27837 0.60199 0.0
O677 O 0.53176 0.2634 0.68417 0.0
O678 O 0.53203 0.24034 0.56483 0.0
O679 O 0.57566 0.22304 0.65325 0.0
H680 H 0.59537 0.31741 0.6686 0.0
H681 H 0.57347 0.2961 0.49424 0.0
H682 H 0.60496 0.36285 0.63424 0.0
H683 H 0.58337 0.34194 0.46294 0.0
H684 H 0.50736 0.24916 0.87168 0.0
H685 H 0.51154 0.31062 0.70569 0.0
H686 H 0.52665 0.23383 0.77878 0.0
H687 H 0.49214 0.32451 0.79966 0.0
H688 H 0.50728 0.3686 0.58929 0.0
H689 H 0.45872 0.3093 0.50648 0.0
H690 H 0.65082 0.26051 0.80454 0.0
H691 H 0.58915 0.3151 0.85399 0.0
H692 H 0.5198 0.19114 0.53655 0.0
H693 H 0.53815 0.26817 0.46855 0.0
H694 H 0.51627 0.17432 0.43566 0.0
H695 H 0.53451 0.25 0.36881 0.0
H696 H 0.5944 0.17625 0.62228 0.0
H697 H 0.57052 0.22388 0.7678 0.0
H698 H 0.60424 0.13953 0.6902 0.0
H699 H 0.58056 0.18632 0.83314 0.0
H700 H 0.63727 0.24446 0.41555 0.0
H701 H 0.60042 0.16888 0.44971 0.0
H702 H 0.45318 0.19479 0.72936 0.0
H703 H 0.50612 0.13514 0.66133 0.0
H704 H 0.35377 0.72776 0.91193 0.0
H705 H 0.32452 0.59456 0.08494 0.0
H706 H 0.36941 0.64996 0.84297 0.0
H707 H 0.28774 0.66857 0.1306 0.0
H708 H 0.3433 0.61537 0.99868 0.0
H709 H 0.33092 0.70736 0.99426 0.0
C710 C 0.3522 0.70644 0.91367 0.0
C711 C 0.36383 0.69059 0.87054 0.0
C712 C 0.33104 0.62709 0.02736 0.0
C713 C 0.33809 0.66716 0.96521 0.0
C714 C 0.32046 0.61525 0.07678 0.0
C715 C 0.3047 0.62993 0.11507 0.0
C716 C 0.32611 0.65393 0.01631 0.0
C717 C 0.29973 0.65657 0.102 0.0
C718 C 0.33926 0.69482 0.96086 0.0
C719 C 0.36138 0.66303 0.8757 0.0
N720 N 0.3106 0.66781 0.0539 0.0
N721 N 0.34899 0.65224 0.92228 0.0
H722 H 0.39628 0.83938 0.3554 0.0
H723 H 0.26962 0.84953 0.15296 0.0
H724 H 0.33524 0.77972 0.36062 0.0
H725 H 0.34573 0.88243 0.10828 0.0
H726 H 0.29026 0.8269 0.2356 0.0
H727 H 0.37452 0.85949 0.27245 0.0
C728 C 0.37842 0.83031 0.33894 0.0
C729 C 0.36792 0.80744 0.36473 0.0
C730 C 0.30233 0.83906 0.20743 0.0
C731 C 0.34242 0.83102 0.27006 0.0
C732 C 0.29064 0.85188 0.16008 0.0
C733 C 0.30584 0.86828 0.12381 0.0
C734 C 0.32931 0.84292 0.21887 0.0
C735 C 0.33297 0.87069 0.13575 0.0
C736 C 0.36591 0.84195 0.29162 0.0
C737 C 0.34407 0.79735 0.34244 0.0
N738 N 0.34372 0.85838 0.18238 0.0
N739 N 0.3321 0.80921 0.29632 0.0
H740 H 0.11893 0.8516 0.35087 0.0
H741 H 0.21614 0.83589 0.6204 0.0
H742 H 0.14332 0.77478 0.41269 0.0
H743 H 0.16508 0.90331 0.59467 0.0
H744 H 0.19439 0.81385 0.5385 0.0
H745 H 0.14124 0.87187 0.43308 0.0
C746 C 0.1288 0.8389 0.38186 0.0
C747 C 0.12881 0.81132 0.37502 0.0
C748 C 0.18804 0.83347 0.55102 0.0
C749 C 0.15507 0.83467 0.46898 0.0
C750 C 0.20033 0.84605 0.59793 0.0
C751 C 0.1927 0.87171 0.61438 0.0
C752 C 0.1682 0.84675 0.51999 0.0
C753 C 0.17224 0.88389 0.58294 0.0
C754 C 0.14168 0.85056 0.42872 0.0
C755 C 0.14284 0.79611 0.41583 0.0
N756 N 0.16089 0.8714 0.53721 0.0
N757 N 0.15541 0.80799 0.46113 0.0
H758 H 0.14076 0.65502 0.92031 0.0
H759 H 0.19581 0.6699 0.59583 0.0
H760 H 0.13159 0.72607 0.81859 0.0
H761 H 0.19383 0.59633 0.69039 0.0
H762 H 0.17639 0.69222 0.68008 0.0
H763 H 0.16407 0.63457 0.83933 0.0
C764 C 0.14358 0.66633 0.88089 0.0
C765 C 0.13392 0.69226 0.87618 0.0
C766 C 0.18028 0.67121 0.68239 0.0
C767 C 0.16099 0.66897 0.78321 0.0
C768 C 0.19149 0.65849 0.63447 0.0
C769 C 0.19628 0.63117 0.63595 0.0
C770 C 0.17399 0.65653 0.73229 0.0
C771 C 0.19009 0.61734 0.68698 0.0
C772 C 0.15703 0.65466 0.8347 0.0
C773 C 0.1388 0.70612 0.8244 0.0
N774 N 0.17926 0.63014 0.73299 0.0
N775 N 0.15188 0.69426 0.77985 0.0
H776 H 0.7716 0.12774 0.55933 0.0
H777 H 0.90053 0.20251 0.44554 0.0
H778 H 0.83623 0.15118 0.67036 0.0
H779 H 0.8303 0.19332 0.34139 0.0
H780 H 0.87721 0.18323 0.52804 0.0
H781 H 0.79239 0.15144 0.4789 0.0
C782 C 0.79 0.13807 0.56707 0.0
C783 C 0.80222 0.13727 0.62184 0.0
C784 C 0.86679 0.18554 0.48731 0.0
C785 C 0.82635 0.16411 0.52948 0.0
C786 C 0.88015 0.19643 0.4401 0.0
C787 C 0.86738 0.19935 0.38642 0.0
C788 C 0.84048 0.17722 0.48084 0.0
C789 C 0.84084 0.19152 0.38209 0.0
C790 C 0.80193 0.1515 0.52097 0.0
C791 C 0.82629 0.15074 0.62878 0.0
N792 N 0.82831 0.18059 0.42856 0.0
N793 N 0.83759 0.16345 0.58315 0.0
H794 H 0.89085 0.3454 0.87617 0.0
H795 H 0.76942 0.34702 0.65793 0.0
H796 H 0.83732 0.27904 0.86631 0.0
H797 H 0.84345 0.38681 0.62484 0.0
H798 H 0.78979 0.32521 0.742 0.0
H799 H 0.8688 0.36516 0.79313 0.0
C800 C 0.87457 0.33482 0.85642 0.0
C801 C 0.86636 0.31016 0.87784 0.0
C802 C 0.80144 0.33873 0.71607 0.0
C803 C 0.84048 0.33325 0.7831 0.0
C804 C 0.78992 0.3511 0.66791 0.0
C805 C 0.80456 0.36916 0.6344 0.0
C806 C 0.82763 0.34475 0.73117 0.0
C807 C 0.83102 0.37375 0.65005 0.0
C808 C 0.8619 0.34625 0.80907 0.0
C809 C 0.84437 0.29807 0.85148 0.0
N810 N 0.84156 0.36184 0.69742 0.0
N811 N 0.83218 0.30972 0.80535 0.0
H812 H 0.67417 0.33801 0.17795 0.0
H813 H 0.67399 0.30357 0.83871 0.0
H814 H 0.72877 0.37272 0.05607 0.0
H815 H 0.60577 0.29401 0.94896 0.0
H816 H 0.69868 0.32121 0.92181 0.0
H817 H 0.65333 0.31382 0.09789 0.0
C818 C 0.682 0.34022 0.13445 0.0
C819 C 0.70311 0.35747 0.12345 0.0
C820 C 0.67836 0.31508 0.9278 0.0
C821 C 0.6794 0.32998 0.03193 0.0
C822 C 0.66434 0.3049 0.88058 0.0
C823 C 0.63778 0.29752 0.88702 0.0
C824 C 0.66582 0.31752 0.98194 0.0
C825 C 0.62613 0.2998 0.94208 0.0
C826 C 0.67 0.32658 0.08881 0.0
C827 C 0.71234 0.35982 0.06621 0.0
N828 N 0.64022 0.3096 0.98744 0.0
N829 N 0.70041 0.34625 0.02254 0.0
H830 H 0.69414 0.1698 0.09303 0.0
H831 H 0.64398 0.15591 0.42148 0.0
H832 H 0.69292 0.09636 0.18812 0.0
H833 H 0.63239 0.22633 0.31881 0.0
H834 H 0.6661 0.13525 0.33916 0.0
H835 H 0.67591 0.19234 0.17828 0.0
C836 C 0.69024 0.15847 0.13198 0.0
C837 C 0.69489 0.13112 0.13335 0.0
C838 C 0.65878 0.15525 0.33462 0.0
C839 C 0.67398 0.15673 0.23085 0.0
C840 C 0.64601 0.16704 0.38158 0.0
C841 C 0.63602 0.19285 0.37703 0.0
C842 C 0.66174 0.16932 0.2825 0.0
C843 C 0.6399 0.20648 0.32455 0.0
C844 C 0.6797 0.17131 0.18048 0.0
C845 C 0.68926 0.11738 0.18482 0.0
N846 N 0.65234 0.19452 0.27926 0.0
N847 N 0.6791 0.13031 0.2314 0.0
H848 H 0.33589 0.43219 0.51793 0.0
H849 H 0.48847 0.3916 0.50166 0.0
H850 H 0.39381 0.47699 0.42156 0.0
H851 H 0.42676 0.33857 0.55763 0.0
H852 H 0.45487 0.42507 0.47998 0.0
H853 H 0.36975 0.39947 0.54044 0.0
C854 C 0.35567 0.43514 0.50119 0.0
C855 C 0.36186 0.45742 0.46744 0.0
C856 C 0.44871 0.40608 0.49687 0.0
C857 C 0.40096 0.42009 0.4941 0.0
C858 C 0.46786 0.38704 0.50949 0.0
C859 C 0.46038 0.36223 0.53124 0.0
C860 C 0.4219 0.40039 0.50675 0.0
C861 C 0.43338 0.3573 0.54019 0.0
C862 C 0.37504 0.41647 0.51435 0.0
C863 C 0.38809 0.46036 0.44829 0.0
N864 N 0.41515 0.37622 0.52812 0.0
N865 N 0.40665 0.44193 0.46188 0.0
H866 H 0.6128 0.96347 0.85326 0.0
H867 H 0.57657 0.83699 0.66396 0.0
H868 H 0.65713 0.94093 0.70072 0.0
H869 H 0.51857 0.87875 0.76597 0.0
H870 H 0.60893 0.87154 0.68645 0.0
H871 H 0.58021 0.92955 0.83019 0.0
C872 C 0.61566 0.95165 0.81461 0.0
C873 C 0.6379 0.95532 0.77885 0.0
C874 C 0.58912 0.87313 0.70385 0.0
C875 C 0.60084 0.91578 0.75333 0.0
C876 C 0.57073 0.85336 0.69141 0.0
C877 C 0.54489 0.85504 0.71321 0.0
C878 C 0.58174 0.89453 0.73909 0.0
C879 C 0.53825 0.87682 0.74802 0.0
C880 C 0.59707 0.93213 0.80177 0.0
C881 C 0.64066 0.9387 0.73026 0.0
N882 N 0.55661 0.89565 0.76019 0.0
N883 N 0.62245 0.91961 0.71913 0.0
H884 H 0.07656 0.17198 0.02813 0.0
H885 H 0.1095 0.01917 0.97606 0.0
H886 H 0.0173 0.1107 0.03244 0.0
H887 H 0.16496 0.08244 0.94475 0.0
H888 H 0.0757 0.05199 0.99966 0.0
H889 H 0.10961 0.13902 0.00133 0.0
C890 C 0.07053 0.15154 0.02363 0.0
C891 C 0.04415 0.14406 0.03279 0.0
C892 C 0.09527 0.05866 0.98756 0.0
C893 C 0.0819 0.10617 0.00174 0.0
C894 C 0.11457 0.03993 0.97381 0.0
C895 C 0.14023 0.04798 0.95858 0.0
C896 C 0.10165 0.08566 0.9863 0.0
C897 C 0.14566 0.0752 0.95728 0.0
C898 C 0.08938 0.13275 0.00798 0.0
C899 C 0.03737 0.11736 0.02538 0.0
N900 N 0.12659 0.09301 0.97107 0.0
N901 N 0.05615 0.09935 0.01057 0.0
H902 H 0.96073 0.61729 0.13391 0.0
H903 H 0.86857 0.55432 0.37965 0.0
H904 H 0.95073 0.65168 0.30384 0.0
H905 H 0.86246 0.53371 0.1982 0.0
H906 H 0.90237 0.58683 0.35512 0.0
H907 H 0.92876 0.5829 0.15961 0.0
C908 C 0.95197 0.61746 0.1768 0.0
C909 C 0.95835 0.63739 0.21679 0.0
C910 C 0.89363 0.57517 0.32071 0.0
C911 C 0.92171 0.59821 0.24637 0.0
C912 C 0.8742 0.55666 0.3346 0.0
C913 C 0.86241 0.54126 0.29093 0.0
C914 C 0.90161 0.57823 0.26276 0.0
C915 C 0.87112 0.54483 0.2335 0.0
C916 C 0.9336 0.59795 0.19129 0.0
C917 C 0.94616 0.63684 0.27152 0.0
N918 N 0.89016 0.56294 0.22111 0.0
N919 N 0.92847 0.61755 0.28473 0.0
H920 H 0.33252 0.07912 0.78367 0.0
H921 H 0.48541 0.11119 0.73709 0.0
H922 H 0.39219 0.01832 0.7777 0.0
H923 H 0.42277 0.16504 0.68973 0.0
H924 H 0.45218 0.07765 0.75969 0.0
H925 H 0.36603 0.1119 0.75792 0.0
C926 C 0.35273 0.07271 0.77711 0.0
C927 C 0.35964 0.04601 0.78297 0.0
C928 C 0.44578 0.09682 0.74425 0.0
C929 C 0.39808 0.08337 0.7535 0.0
C930 C 0.46474 0.11598 0.73105 0.0
C931 C 0.45699 0.14115 0.71161 0.0
C932 C 0.41884 0.1029 0.73854 0.0
C933 C 0.4298 0.14621 0.7057 0.0
C934 C 0.3718 0.09138 0.76208 0.0
C935 C 0.38604 0.0387 0.77325 0.0
N936 N 0.41177 0.12733 0.71933 0.0
N937 N 0.40437 0.05732 0.75934 0.0
H938 H 0.8753 0.97952 0.02365 0.0
H939 H 0.94515 0.84342 0.93555 0.0
H940 H 0.84749 0.92934 0.88513 0.0
H941 H 0.96001 0.88383 0.09742 0.0
H942 H 0.91207 0.87679 0.91146 0.0
H943 H 0.90955 0.94689 0.04596 0.0
C944 C 0.87649 0.96169 0.99776 0.0
C945 C 0.85847 0.9571 0.95257 0.0
C946 C 0.92261 0.87835 0.95222 0.0
C947 C 0.89757 0.91968 0.97787 0.0
C948 C 0.94144 0.85921 0.96619 0.0
C949 C 0.95545 0.86066 0.01876 0.0
C950 C 0.91778 0.89926 0.99084 0.0
C951 C 0.95008 0.88201 0.05603 0.0
C952 C 0.89594 0.94302 0.01071 0.0
C953 C 0.86077 0.93353 0.92079 0.0
N954 N 0.9317 0.90042 0.04136 0.0
N955 N 0.87999 0.91575 0.93394 0.0
H956 H 0.07686 0.33087 0.24768 0.0
H957 H 0.10891 0.48531 0.27573 0.0
H958 H 0.02072 0.39201 0.20426 0.0
H959 H 0.16778 0.42398 0.29003 0.0
H960 H 0.07549 0.45152 0.2556 0.0
H961 H 0.10961 0.36482 0.26934 0.0
C962 C 0.07141 0.35142 0.24242 0.0
C963 C 0.04596 0.35851 0.2237 0.0
C964 C 0.09573 0.44547 0.26302 0.0
C965 C 0.08342 0.39762 0.24929 0.0
C966 C 0.11479 0.46473 0.27475 0.0
C967 C 0.1412 0.45747 0.28441 0.0
C968 C 0.10308 0.41871 0.26142 0.0
C969 C 0.14774 0.43053 0.28207 0.0
C970 C 0.09013 0.37083 0.25507 0.0
C971 C 0.03996 0.38555 0.21909 0.0
N972 N 0.12882 0.41215 0.27101 0.0
N973 N 0.05855 0.4041 0.23169 0.0
H974 H 0.55214 0.62791 0.61913 0.0
H975 H 0.6178 0.53991 0.36966 0.0
H976 H 0.53475 0.63856 0.43706 0.0
H977 H 0.65043 0.54732 0.54187 0.0
H978 H 0.58334 0.57182 0.39579 0.0
H979 H 0.58473 0.59439 0.59344 0.0
C980 C 0.55522 0.62335 0.57371 0.0
C981 C 0.5407 0.63633 0.53023 0.0
C982 C 0.59804 0.56642 0.42783 0.0
C983 C 0.57773 0.59743 0.50066 0.0
C984 C 0.61757 0.5481 0.41309 0.0
C985 C 0.63702 0.54104 0.45364 0.0
C986 C 0.59777 0.57749 0.48374 0.0
C987 C 0.63597 0.55245 0.50912 0.0
C988 C 0.57376 0.60407 0.55914 0.0
C989 C 0.54517 0.62895 0.47221 0.0
N990 N 0.61666 0.57005 0.52257 0.0
N991 N 0.56328 0.61001 0.45914 0.0
loop_
_geom_bond_atom_site_label_1
_geom_bond_atom_site_label_2
_geom_bond_distance
_geom_bond_site_symmetry_2
_ccdc_geom_bond_type
Li0 N17 1.990 . S
Li0 O60 1.956 . S
Li0 O61 1.970 . S
Li0 O62 1.961 . S
Li1 N25 1.990 . S
Li1 O60 1.970 . S
Li1 O61 1.956 . S
Li1 O63 1.961 . S
Li2 N47 1.990 . S
Li2 O60 1.961 . S
Li2 O62 1.956 . S
Li2 O63 1.970 . S
Li3 N53 1.990 . S
Li3 O61 1.961 . S
Li3 O62 1.970 . S
Li3 O63 1.956 . S
C4 C6 1.348 . S
C4 C7 1.356 . S
C4 O60 1.325 . S
N5 C8 1.314 . S
N5 C9 1.279 . S
C6 C4 1.348 . S
C6 C8 1.353 . S
C6 H64 0.929 . S
C7 C4 1.356 . S
C7 C9 1.358 . S
C7 H65 0.930 . S
C8 N5 1.314 . S
C8 C6 1.353 . S
C8 H66 0.930 . S
C9 N5 1.279 . S
C9 C7 1.358 . S
C9 H67 0.930 . S
C10 C13 1.348 . S
C10 C14 1.356 . S
C10 O61 1.325 . S
C11 N12 1.279 . S
C11 C14 1.358 . S
C11 H68 0.930 . S
N12 C11 1.279 . S
N12 C15 1.314 . S
C13 C10 1.348 . S
C13 C15 1.353 . S
C13 H69 0.929 . S
C14 C10 1.356 . S
C14 C11 1.358 . S
C14 H70 0.930 . S
C15 N12 1.314 . S
C15 C13 1.353 . S
C15 H71 0.930 . S
C16 N17 1.314 . S
C16 C21 1.353 . S
C16 H22 0.930 . S
N17 Li0 1.990 . S
N17 C16 1.314 . S
N17 C19 1.279 . S
C18 C19 1.358 . S
C18 C20 1.356 . S
C18 H72 0.930 . S
C19 N17 1.279 . S
C19 C18 1.358 . S
C19 H23 0.930 . S
C20 C18 1.356 . S
C20 C21 1.348 . S
C21 C16 1.353 . S
C21 C20 1.348 . S
C21 H73 0.929 . S
H22 C16 0.930 . S
H23 C19 0.930 . S
C24 N25 1.314 . S
C24 C26 1.353 . S
C24 H30 0.930 . S
N25 Li1 1.990 . S
N25 C24 1.314 . S
N25 C28 1.279 . S
C26 C24 1.353 . S
C26 C29 1.348 . S
C26 H74 0.929 . S
C27 C28 1.358 . S
C27 C29 1.356 . S
C27 H75 0.930 . S
C28 N25 1.279 . S
C28 C27 1.358 . S
C28 H31 0.930 . S
C29 C26 1.348 . S
C29 C27 1.356 . S
H30 C24 0.930 . S
H31 C28 0.930 . S
C32 C34 1.348 . S
C32 C35 1.356 . S
C32 O62 1.325 . S
N33 C36 1.314 . S
N33 C37 1.279 . S
C34 C32 1.348 . S
C34 C36 1.353 . S
C34 H76 0.929 . S
C35 C32 1.356 . S
C35 C37 1.358 . S
C35 H77 0.930 . S
C36 N33 1.314 . S
C36 C34 1.353 . S
C36 H78 0.930 . S
C37 N33 1.279 . S
C37 C35 1.358 . S
C37 H79 0.930 . S
C38 C39 1.348 . S
C38 C40 1.356 . S
C38 O63 1.325 . S
C39 C38 1.348 . S
C39 C41 1.353 . S
C39 H80 0.929 . S
C40 C38 1.356 . S
C40 C42 1.358 . S
C40 H81 0.930 . S
C41 C39 1.353 . S
C41 N43 1.314 . S
C41 H82 0.930 . S
C42 C40 1.358 . S
C42 N43 1.279 . S
C42 H83 0.930 . S
N43 C41 1.314 . S
N43 C42 1.279 . S
C44 C46 1.353 . S
C44 N47 1.314 . S
C44 H50 0.930 . S
C45 N47 1.279 . S
C45 C48 1.358 . S
C45 H51 0.930 . S
C46 C44 1.353 . S
C46 C49 1.348 . S
C46 H84 0.929 . S
N47 Li2 1.990 . S
N47 C44 1.314 . S
N47 C45 1.279 . S
C48 C45 1.358 . S
C48 C49 1.356 . S
C48 H85 0.930 . S
C49 C46 1.348 . S
C49 C48 1.356 . S
H50 C44 0.930 . S
H51 C45 0.930 . S
C52 N53 1.314 . S
C52 C54 1.353 . S
C52 H58 0.930 . S
N53 Li3 1.990 . S
N53 C52 1.314 . S
N53 C56 1.279 . S
C54 C52 1.353 . S
C54 C57 1.348 . S
C54 H86 0.929 . S
C55 C56 1.358 . S
C55 C57 1.356 . S
C55 H87 0.930 . S
C56 N53 1.279 . S
C56 C55 1.358 . S
C56 H59 0.930 . S
C57 C54 1.348 . S
C57 C55 1.356 . S
H58 C52 0.930 . S
H59 C56 0.930 . S
O60 Li0 1.956 . S
O60 Li1 1.970 . S
O60 Li2 1.961 . S
O60 C4 1.325 . S
O61 Li0 1.970 . S
O61 Li1 1.956 . S
O61 Li3 1.961 . S
O61 C10 1.325 . S
O62 Li0 1.961 . S
O62 Li2 1.956 . S
O62 Li3 1.970 . S
O62 C32 1.325 . S
O63 Li1 1.961 . S
O63 Li2 1.970 . S
O63 Li3 1.956 . S
O63 C38 1.325 . S
H64 C6 0.929 . S
H65 C7 0.930 . S
H66 C8 0.930 . S
H67 C9 0.930 . S
H68 C11 0.930 . S
H69 C13 0.929 . S
H70 C14 0.930 . S
H71 C15 0.930 . S
H72 C18 0.930 . S
H73 C21 0.929 . S
H74 C26 0.929 . S
H75 C27 0.930 . S
H76 C34 0.929 . S
H77 C35 0.930 . S
H78 C36 0.930 . S
H79 C37 0.930 . S
H80 C39 0.929 . S
H81 C40 0.930 . S
H82 C41 0.930 . S
H83 C42 0.930 . S
H84 C46 0.929 . S
H85 C48 0.930 . S
H86 C54 0.929 . S
H87 C55 0.930 . S
Li88 N105 1.990 . S
Li88 O148 1.956 . S
Li88 O149 1.970 . S
Li88 O150 1.961 . S
Li89 N113 1.990 . S
Li89 O148 1.970 . S
Li89 O149 1.956 . S
Li89 O151 1.961 . S
Li90 N135 1.990 . S
Li90 O148 1.961 . S
Li90 O150 1.956 . S
Li90 O151 1.970 . S
Li91 N141 1.990 . S
Li91 O149 1.961 . S
Li91 O150 1.970 . S
Li91 O151 1.956 . S
C92 C94 1.348 . S
C92 C95 1.356 . S
C92 O148 1.325 . S
N93 C96 1.314 . S
N93 C97 1.279 . S
C94 C92 1.348 . S
C94 C96 1.353 . S
C94 H152 0.929 . S
C95 C92 1.356 . S
C95 C97 1.358 . S
C95 H153 0.930 . S
C96 N93 1.314 . S
C96 C94 1.353 . S
C96 H154 0.930 . S
C97 N93 1.279 . S
C97 C95 1.358 . S
C97 H155 0.930 . S
C98 C101 1.348 . S
C98 C102 1.356 . S
C98 O149 1.325 . S
C99 N100 1.279 . S
C99 C102 1.358 . S
C99 H156 0.930 . S
N100 C99 1.279 . S
N100 C103 1.314 . S
C101 C98 1.348 . S
C101 C103 1.353 . S
C101 H157 0.929 . S
C102 C98 1.356 . S
C102 C99 1.358 . S
C102 H158 0.930 . S
C103 N100 1.314 . S
C103 C101 1.353 . S
C103 H159 0.930 . S
C104 N105 1.314 . S
C104 C109 1.353 . S
C104 H110 0.930 . S
N105 Li88 1.990 . S
N105 C104 1.314 . S
N105 C107 1.279 . S
C106 C107 1.358 . S
C106 C108 1.356 . S
C106 H160 0.930 . S
C107 N105 1.279 . S
C107 C106 1.358 . S
C107 H111 0.930 . S
C108 C106 1.356 . S
C108 C109 1.348 . S
C109 C104 1.353 . S
C109 C108 1.348 . S
C109 H161 0.929 . S
H110 C104 0.930 . S
H111 C107 0.930 . S
C112 N113 1.314 . S
C112 C114 1.353 . S
C112 H118 0.930 . S
N113 Li89 1.990 . S
N113 C112 1.314 . S
N113 C116 1.279 . S
C114 C112 1.353 . S
C114 C117 1.348 . S
C114 H162 0.929 . S
C115 C116 1.358 . S
C115 C117 1.356 . S
C115 H163 0.930 . S
C116 N113 1.279 . S
C116 C115 1.358 . S
C116 H119 0.930 . S
C117 C114 1.348 . S
C117 C115 1.356 . S
H118 C112 0.930 . S
H119 C116 0.930 . S
C120 C122 1.348 . S
C120 C123 1.356 . S
C120 O150 1.325 . S
N121 C124 1.314 . S
N121 C125 1.279 . S
C122 C120 1.348 . S
C122 C124 1.353 . S
C122 H164 0.929 . S
C123 C120 1.356 . S
C123 C125 1.358 . S
C123 H165 0.930 . S
C124 N121 1.314 . S
C124 C122 1.353 . S
C124 H166 0.930 . S
C125 N121 1.279 . S
C125 C123 1.358 . S
C125 H167 0.930 . S
C126 C127 1.348 . S
C126 C128 1.356 . S
C126 O151 1.325 . S
C127 C126 1.348 . S
C127 C129 1.353 . S
C127 H168 0.929 . S
C128 C126 1.356 . S
C128 C130 1.358 . S
C128 H169 0.930 . S
C129 C127 1.353 . S
C129 N131 1.314 . S
C129 H170 0.930 . S
C130 C128 1.358 . S
C130 N131 1.279 . S
C130 H171 0.930 . S
N131 C129 1.314 . S
N131 C130 1.279 . S
C132 C134 1.353 . S
C132 N135 1.314 . S
C132 H138 0.930 . S
C133 N135 1.279 . S
C133 C136 1.358 . S
C133 H139 0.930 . S
C134 C132 1.353 . S
C134 C137 1.348 . S
C134 H172 0.929 . S
N135 Li90 1.990 . S
N135 C132 1.314 . S
N135 C133 1.279 . S
C136 C133 1.358 . S
C136 C137 1.356 . S
C136 H173 0.930 . S
C137 C134 1.348 . S
C137 C136 1.356 . S
H138 C132 0.930 . S
H139 C133 0.930 . S
C140 N141 1.314 . S
C140 C142 1.353 . S
C140 H146 0.930 . S
N141 Li91 1.990 . S
N141 C140 1.314 . S
N141 C144 1.279 . S
C142 C140 1.353 . S
C142 C145 1.348 . S
C142 H174 0.929 . S
C143 C144 1.358 . S
C143 C145 1.356 . S
C143 H175 0.930 . S
C144 N141 1.279 . S
C144 C143 1.358 . S
C144 H147 0.930 . S
C145 C142 1.348 . S
C145 C143 1.356 . S
H146 C140 0.930 . S
H147 C144 0.930 . S
O148 Li88 1.956 . S
O148 Li89 1.970 . S
O148 Li90 1.961 . S
O148 C92 1.325 . S
O149 Li88 1.970 . S
O149 Li89 1.956 . S
O149 Li91 1.961 . S
O149 C98 1.325 . S
O150 Li88 1.961 . S
O150 Li90 1.956 . S
O150 Li91 1.970 . S
O150 C120 1.325 . S
O151 Li89 1.961 . S
O151 Li90 1.970 . S
O151 Li91 1.956 . S
O151 C126 1.325 . S
H152 C94 0.929 . S
H153 C95 0.930 . S
H154 C96 0.930 . S
H155 C97 0.930 . S
H156 C99 0.930 . S
H157 C101 0.929 . S
H158 C102 0.930 . S
H159 C103 0.930 . S
H160 C106 0.930 . S
H161 C109 0.929 . S
H162 C114 0.929 . S
H163 C115 0.930 . S
H164 C122 0.929 . S
H165 C123 0.930 . S
H166 C124 0.930 . S
H167 C125 0.930 . S
H168 C127 0.929 . S
H169 C128 0.930 . S
H170 C129 0.930 . S
H171 C130 0.930 . S
H172 C134 0.929 . S
H173 C136 0.930 . S
H174 C142 0.929 . S
H175 C143 0.930 . S
Li176 N193 1.990 . S
Li176 O236 1.956 . S
Li176 O237 1.970 . S
Li176 O238 1.961 . S
Li177 N201 1.990 . S
Li177 O236 1.970 . S
Li177 O237 1.956 . S
Li177 O239 1.961 . S
Li178 N223 1.990 . S
Li178 O236 1.961 . S
Li178 O238 1.956 . S
Li178 O239 1.970 . S
Li179 N229 1.990 . S
Li179 O237 1.961 . S
Li179 O238 1.970 . S
Li179 O239 1.956 . S
C180 C182 1.348 . S
C180 C183 1.356 . S
C180 O236 1.325 . S
N181 C184 1.314 . S
N181 C185 1.279 . S
C182 C180 1.348 . S
C182 C184 1.353 . S
C182 H240 0.929 . S
C183 C180 1.356 . S
C183 C185 1.358 . S
C183 H241 0.930 . S
C184 N181 1.314 . S
C184 C182 1.353 . S
C184 H242 0.930 . S
C185 N181 1.279 . S
C185 C183 1.358 . S
C185 H243 0.930 . S
C186 C189 1.348 . S
C186 C190 1.356 1_556 S
C186 O237 1.325 . S
C187 N188 1.279 1_565 S
C187 C190 1.358 . S
C187 H244 0.931 . S
N188 C187 1.279 1_545 S
N188 C191 1.314 . S
C189 C186 1.348 . S
C189 C191 1.353 1_566 S
C189 H245 0.929 . S
C190 C186 1.356 1_554 S
C190 C187 1.358 . S
C190 H246 0.930 . S
C191 N188 1.314 . S
C191 C189 1.353 1_544 S
C191 H247 0.930 . S
C192 N193 1.314 1_545 S
C192 C197 1.353 . S
C192 H198 0.930 . S
N193 Li176 1.990 . S
N193 C192 1.314 1_565 S
N193 C195 1.279 . S
C194 C195 1.358 . S
C194 C196 1.356 1_565 S
C194 H248 0.930 . S
C195 N193 1.279 . S
C195 C194 1.358 . S
C195 H199 0.930 . S
C196 C194 1.356 1_545 S
C196 C197 1.348 . S
C197 C192 1.353 . S
C197 C196 1.348 . S
C197 H249 0.929 . S
H198 C192 0.930 . S
H199 C195 0.930 . S
C200 N201 1.314 . S
C200 C202 1.351 1_556 S
C200 H206 0.931 . S
N201 Li177 1.990 . S
N201 C200 1.314 . S
N201 C204 1.279 1_556 S
C202 C200 1.351 1_554 S
C202 C205 1.348 . S
C202 H250 0.929 . S
C203 C204 1.358 . S
C203 C205 1.356 . S
C203 H251 0.930 . S
C204 N201 1.279 1_554 S
C204 C203 1.358 . S
C204 H207 0.930 . S
C205 C202 1.348 . S
C205 C203 1.356 . S
H206 C200 0.931 . S
H207 C204 0.930 . S
C208 C210 1.348 . S
C208 C211 1.356 . S
C208 O238 1.325 . S
N209 C212 1.314 . S
N209 C213 1.279 1_545 S
C210 C208 1.348 . S
C210 C212 1.353 1_565 S
C210 H252 0.929 . S
C211 C208 1.356 . S
C211 C213 1.358 . S
C211 H253 0.930 . S
C212 N209 1.314 . S
C212 C210 1.353 1_545 S
C212 H254 0.930 . S
C213 N209 1.279 1_565 S
C213 C211 1.358 . S
C213 H255 0.931 . S
C214 C215 1.348 . S
C214 C216 1.356 . S
C214 O239 1.325 . S
C215 C214 1.348 . S
C215 C217 1.353 . S
C215 H256 0.929 . S
C216 C214 1.356 . S
C216 C218 1.365 . S
C216 H257 0.930 1_556 S
C217 C215 1.353 . S
C217 N219 1.314 . S
C217 H258 0.930 . S
C218 C216 1.365 . S
C218 N219 1.290 . S
C218 H259 0.911 1_556 S
N219 C217 1.314 . S
N219 C218 1.290 . S
C220 C222 1.353 . S
C220 N223 1.314 . S
C220 H226 0.930 . S
C221 N223 1.279 . S
C221 C224 1.358 . S
C221 H227 0.930 . S
C222 C220 1.353 . S
C222 C225 1.348 . S
C222 H260 0.929 . S
N223 Li178 1.990 . S
N223 C220 1.314 . S
N223 C221 1.279 . S
C224 C221 1.358 . S
C224 C225 1.356 . S
C224 H261 0.930 . S
C225 C222 1.348 . S
C225 C224 1.356 . S
H226 C220 0.930 . S
H227 C221 0.930 . S
C228 N229 1.314 1_545 S
C228 C230 1.353 . S
C228 H234 0.930 . S
N229 Li179 1.990 . S
N229 C228 1.314 1_565 S
N229 C232 1.279 . S
C230 C228 1.353 . S
C230 C233 1.348 . S
C230 H262 0.929 . S
C231 C232 1.358 . S
C231 C233 1.356 1_565 S
C231 H263 0.930 . S
C232 N229 1.279 . S
C232 C231 1.358 . S
C232 H235 0.930 . S
C233 C230 1.348 . S
C233 C231 1.356 1_545 S
H234 C228 0.930 . S
H235 C232 0.930 . S
O236 Li176 1.956 . S
O236 Li177 1.970 . S
O236 Li178 1.961 . S
O236 C180 1.325 . S
O237 Li176 1.970 . S
O237 Li177 1.956 . S
O237 Li179 1.961 . S
O237 C186 1.325 . S
O238 Li176 1.961 . S
O238 Li178 1.956 . S
O238 Li179 1.970 . S
O238 C208 1.325 . S
O239 Li177 1.961 . S
O239 Li178 1.970 . S
O239 Li179 1.956 . S
O239 C214 1.325 . S
H240 C182 0.929 . S
H241 C183 0.930 . S
H242 C184 0.930 . S
H243 C185 0.930 . S
H244 C187 0.931 . S
H245 C189 0.929 . S
H246 C190 0.930 . S
H247 C191 0.930 . S
H248 C194 0.930 . S
H249 C197 0.929 . S
H250 C202 0.929 . S
H251 C203 0.930 . S
H252 C210 0.929 . S
H253 C211 0.930 . S
H254 C212 0.930 . S
H255 C213 0.931 . S
H256 C215 0.929 . S
H257 C216 0.930 1_554 S
H258 C217 0.930 . S
H259 C218 0.911 1_554 S
H260 C222 0.929 . S
H261 C224 0.930 . S
H262 C230 0.929 . S
H263 C231 0.930 . S
Li264 N281 1.990 . S
Li264 O324 1.956 . S
Li264 O325 1.970 . S
Li264 O326 1.961 . S
Li265 N289 1.990 . S
Li265 O324 1.970 . S
Li265 O325 1.956 . S
Li265 O327 1.961 . S
Li266 N311 1.990 . S
Li266 O324 1.961 . S
Li266 O326 1.956 . S
Li266 O327 1.970 . S
Li267 N317 1.990 . S
Li267 O325 1.961 . S
Li267 O326 1.970 . S
Li267 O327 1.956 . S
C268 C270 1.348 . S
C268 C271 1.356 . S
C268 O324 1.325 . S
N269 C272 1.314 . S
N269 C273 1.290 . S
C270 C268 1.348 . S
C270 C272 1.353 . S
C270 H328 0.929 . S
C271 C268 1.356 . S
C271 C273 1.365 . S
C271 H329 0.930 1_554 S
C272 N269 1.314 . S
C272 C270 1.353 . S
C272 H330 0.930 . S
C273 N269 1.290 . S
C273 C271 1.365 . S
C273 H331 0.911 1_554 S
C274 C277 1.348 . S
C274 C278 1.356 . S
C274 O325 1.325 . S
C275 N276 1.279 1_455 S
C275 C278 1.358 . S
C275 H332 0.931 . S
N276 C275 1.279 1_655 S
N276 C279 1.314 . S
C277 C274 1.348 . S
C277 C279 1.353 1_455 S
C277 H333 0.929 . S
C278 C274 1.356 . S
C278 C275 1.358 . S
C278 H334 0.930 . S
C279 N276 1.314 . S
C279 C277 1.353 1_655 S
C279 H335 0.930 . S
C280 N281 1.314 1_655 S
C280 C285 1.353 . S
C280 H286 0.930 . S
N281 Li264 1.990 . S
N281 C280 1.314 1_455 S
N281 C283 1.279 . S
C282 C283 1.358 . S
C282 C284 1.356 1_455 S
C282 H336 0.930 . S
C283 N281 1.279 . S
C283 C282 1.358 . S
C283 H287 0.930 . S
C284 C282 1.356 1_655 S
C284 C285 1.348 . S
C285 C280 1.353 . S
C285 C284 1.348 . S
C285 H337 0.929 . S
H286 C280 0.930 . S
H287 C283 0.930 . S
C288 N289 1.314 . S
C288 C290 1.353 . S
C288 H294 0.930 . S
N289 Li265 1.990 . S
N289 C288 1.314 . S
N289 C292 1.279 . S
C290 C288 1.353 . S
C290 C293 1.348 . S
C290 H338 0.929 . S
C291 C292 1.358 . S
C291 C293 1.356 . S
C291 H339 0.930 . S
C292 N289 1.279 . S
C292 C291 1.358 . S
C292 H295 0.930 . S
C293 C290 1.348 . S
C293 C291 1.356 . S
H294 C288 0.930 . S
H295 C292 0.930 . S
C296 C298 1.348 . S
C296 C299 1.356 1_554 S
C296 O326 1.325 . S
N297 C300 1.314 . S
N297 C301 1.279 1_655 S
C298 C296 1.348 . S
C298 C300 1.353 1_454 S
C298 H340 0.929 . S
C299 C296 1.356 1_556 S
C299 C301 1.358 . S
C299 H341 0.930 . S
C300 N297 1.314 . S
C300 C298 1.353 1_656 S
C300 H342 0.930 . S
C301 N297 1.279 1_455 S
C301 C299 1.358 . S
C301 H343 0.931 . S
C302 C303 1.348 . S
C302 C304 1.356 . S
C302 O327 1.325 . S
C303 C302 1.348 . S
C303 C305 1.353 . S
C303 H344 0.929 . S
C304 C302 1.356 . S
C304 C306 1.358 . S
C304 H345 0.930 . S
C305 C303 1.353 . S
C305 N307 1.314 . S
C305 H346 0.930 . S
C306 C304 1.358 . S
C306 N307 1.279 . S
C306 H347 0.930 . S
N307 C305 1.314 . S
N307 C306 1.279 . S
C308 C310 1.351 1_554 S
C308 N311 1.314 . S
C308 H314 0.931 . S
C309 N311 1.279 1_556 S
C309 C312 1.358 . S
C309 H315 0.930 . S
C310 C308 1.351 1_556 S
C310 C313 1.348 . S
C310 H348 0.929 . S
N311 Li266 1.990 . S
N311 C308 1.314 . S
N311 C309 1.279 1_554 S
C312 C309 1.358 . S
C312 C313 1.356 . S
C312 H349 0.930 . S
C313 C310 1.348 . S
C313 C312 1.356 . S
H314 C308 0.931 . S
H315 C309 0.930 . S
C316 N317 1.314 1_655 S
C316 C318 1.353 . S
C316 H322 0.930 . S
N317 Li267 1.990 . S
N317 C316 1.314 1_455 S
N317 C320 1.279 . S
C318 C316 1.353 . S
C318 C321 1.348 . S
C318 H350 0.929 . S
C319 C320 1.358 . S
C319 C321 1.356 1_455 S
C319 H351 0.930 . S
C320 N317 1.279 . S
C320 C319 1.358 . S
C320 H323 0.930 . S
C321 C318 1.348 . S
C321 C319 1.356 1_655 S
H322 C316 0.930 . S
H323 C320 0.930 . S
O324 Li264 1.956 . S
O324 Li265 1.970 . S
O324 Li266 1.961 . S
O324 C268 1.325 . S
O325 Li264 1.970 . S
O325 Li265 1.956 . S
O325 Li267 1.961 . S
O325 C274 1.325 . S
O326 Li264 1.961 . S
O326 Li266 1.956 . S
O326 Li267 1.970 . S
O326 C296 1.325 . S
O327 Li265 1.961 . S
O327 Li266 1.970 . S
O327 Li267 1.956 . S
O327 C302 1.325 . S
H328 C270 0.929 . S
H329 C271 0.930 1_556 S
H330 C272 0.930 . S
H331 C273 0.911 1_556 S
H332 C275 0.931 . S
H333 C277 0.929 . S
H334 C278 0.930 . S
H335 C279 0.930 . S
H336 C282 0.930 . S
H337 C285 0.929 . S
H338 C290 0.929 . S
H339 C291 0.930 . S
H340 C298 0.929 . S
H341 C299 0.930 . S
H342 C300 0.930 . S
H343 C301 0.931 . S
H344 C303 0.929 . S
H345 C304 0.930 . S
H346 C305 0.930 . S
H347 C306 0.930 . S
H348 C310 0.929 . S
H349 C312 0.930 . S
H350 C318 0.929 . S
H351 C319 0.930 . S
Li352 N369 1.990 . S
Li352 O412 1.956 . S
Li352 O413 1.970 . S
Li352 O414 1.961 . S
Li353 N377 1.990 . S
Li353 O412 1.970 . S
Li353 O413 1.956 . S
Li353 O415 1.961 . S
Li354 N399 1.990 . S
Li354 O412 1.961 . S
Li354 O414 1.956 . S
Li354 O415 1.970 . S
Li355 N405 1.990 . S
Li355 O413 1.961 . S
Li355 O414 1.970 . S
Li355 O415 1.956 . S
C356 C358 1.348 . S
C356 C359 1.356 1_556 S
C356 O412 1.325 . S
N357 C360 1.314 . S
N357 C361 1.279 1_565 S
C358 C356 1.348 . S
C358 C360 1.353 1_546 S
C358 H416 0.929 . S
C359 C356 1.356 1_554 S
C359 C361 1.358 . S
C359 H417 0.930 . S
C360 N357 1.314 . S
C360 C358 1.353 1_564 S
C360 H418 0.930 . S
C361 N357 1.279 1_545 S
C361 C359 1.358 . S
C361 H419 0.931 . S
C362 C365 1.348 . S
C362 C366 1.356 . S
C362 O413 1.325 . S
C363 N364 1.279 . S
C363 C366 1.358 . S
C363 H420 0.930 . S
N364 C363 1.279 . S
N364 C367 1.314 . S
C365 C362 1.348 . S
C365 C367 1.353 . S
C365 H421 0.929 . S
C366 C362 1.356 . S
C366 C363 1.358 . S
C366 H422 0.930 . S
C367 N364 1.314 . S
C367 C365 1.353 . S
C367 H423 0.930 . S
C368 N369 1.314 . S
C368 C373 1.351 1_556 S
C368 H374 0.931 . S
N369 Li352 1.990 . S
N369 C368 1.314 . S
N369 C371 1.279 1_556 S
C370 C371 1.358 . S
C370 C372 1.356 . S
C370 H424 0.930 . S
C371 N369 1.279 1_554 S
C371 C370 1.358 . S
C371 H375 0.930 . S
C372 C370 1.356 . S
C372 C373 1.348 . S
C373 C368 1.351 1_554 S
C373 C372 1.348 . S
C373 H425 0.929 . S
H374 C368 0.931 . S
H375 C371 0.930 . S
C376 N377 1.314 1_565 S
C376 C378 1.353 . S
C376 H382 0.930 . S
N377 Li353 1.990 . S
N377 C376 1.314 1_545 S
N377 C380 1.279 . S
C378 C376 1.353 . S
C378 C381 1.348 . S
C378 H426 0.929 . S
C379 C380 1.358 . S
C379 C381 1.356 1_545 S
C379 H427 0.930 . S
C380 N377 1.279 . S
C380 C379 1.358 . S
C380 H383 0.930 . S
C381 C378 1.348 . S
C381 C379 1.356 1_565 S
H382 C376 0.930 . S
H383 C380 0.930 . S
C384 C386 1.348 . S
C384 C387 1.356 . S
C384 O414 1.325 . S
N385 C388 1.314 . S
N385 C389 1.290 . S
C386 C384 1.348 . S
C386 C388 1.353 . S
C386 H428 0.929 . S
C387 C384 1.356 . S
C387 C389 1.365 . S
C387 H429 0.930 1_556 S
C388 N385 1.314 . S
C388 C386 1.353 . S
C388 H430 0.930 . S
C389 N385 1.290 . S
C389 C387 1.365 . S
C389 H431 0.911 1_556 S
C390 C391 1.348 . S
C390 C392 1.356 . S
C390 O415 1.325 . S
C391 C390 1.348 . S
C391 C393 1.353 1_545 S
C391 H432 0.929 . S
C392 C390 1.356 . S
C392 C394 1.358 . S
C392 H433 0.930 . S
C393 C391 1.353 1_565 S
C393 N395 1.314 . S
C393 H434 0.930 . S
C394 C392 1.358 . S
C394 N395 1.279 1_545 S
C394 H435 0.931 . S
N395 C393 1.314 . S
N395 C394 1.279 1_565 S
C396 C398 1.353 . S
C396 N399 1.314 1_565 S
C396 H402 0.930 . S
C397 N399 1.279 . S
C397 C400 1.358 . S
C397 H403 0.930 . S
C398 C396 1.353 . S
C398 C401 1.348 . S
C398 H436 0.929 . S
N399 Li354 1.990 . S
N399 C396 1.314 1_545 S
N399 C397 1.279 . S
C400 C397 1.358 . S
C400 C401 1.356 1_545 S
C400 H437 0.930 . S
C401 C398 1.348 . S
C401 C400 1.356 1_565 S
H402 C396 0.930 . S
H403 C397 0.930 . S
C404 N405 1.314 . S
C404 C406 1.353 . S
C404 H410 0.930 . S
N405 Li355 1.990 . S
N405 C404 1.314 . S
N405 C408 1.279 . S
C406 C404 1.353 . S
C406 C409 1.348 . S
C406 H438 0.929 . S
C407 C408 1.358 . S
C407 C409 1.356 . S
C407 H439 0.930 . S
C408 N405 1.279 . S
C408 C407 1.358 . S
C408 H411 0.930 . S
C409 C406 1.348 . S
C409 C407 1.356 . S
H410 C404 0.930 . S
H411 C408 0.930 . S
O412 Li352 1.956 . S
O412 Li353 1.970 . S
O412 Li354 1.961 . S
O412 C356 1.325 . S
O413 Li352 1.970 . S
O413 Li353 1.956 . S
O413 Li355 1.961 . S
O413 C362 1.325 . S
O414 Li352 1.961 . S
O414 Li354 1.956 . S
O414 Li355 1.970 . S
O414 C384 1.325 . S
O415 Li353 1.961 . S
O415 Li354 1.970 . S
O415 Li355 1.956 . S
O415 C390 1.325 . S
H416 C358 0.929 . S
H417 C359 0.930 . S
H418 C360 0.930 . S
H419 C361 0.931 . S
H420 C363 0.930 . S
H421 C365 0.929 . S
H422 C366 0.930 . S
H423 C367 0.930 . S
H424 C370 0.930 . S
H425 C373 0.929 . S
H426 C378 0.929 . S
H427 C379 0.930 . S
H428 C386 0.929 . S
H429 C387 0.930 1_554 S
H430 C388 0.930 . S
H431 C389 0.911 1_554 S
H432 C391 0.929 . S
H433 C392 0.930 . S
H434 C393 0.930 . S
H435 C394 0.931 . S
H436 C398 0.929 . S
H437 C400 0.930 . S
H438 C406 0.929 . S
H439 C407 0.930 . S
Li440 N457 1.990 . S
Li440 O500 1.956 . S
Li440 O501 1.970 . S
Li440 O502 1.961 . S
Li441 N465 1.990 . S
Li441 O500 1.970 . S
Li441 O501 1.956 . S
Li441 O503 1.961 . S
Li442 N487 1.990 . S
Li442 O500 1.961 . S
Li442 O502 1.956 . S
Li442 O503 1.970 . S
Li443 N493 1.990 . S
Li443 O501 1.961 . S
Li443 O502 1.970 . S
Li443 O503 1.956 . S
C444 C446 1.348 . S
C444 C447 1.356 . S
C444 O500 1.325 . S
N445 C448 1.314 . S
N445 C449 1.279 1_455 S
C446 C444 1.348 . S
C446 C448 1.353 1_655 S
C446 H504 0.929 . S
C447 C444 1.356 . S
C447 C449 1.358 . S
C447 H505 0.930 . S
C448 N445 1.314 . S
C448 C446 1.353 1_455 S
C448 H506 0.930 . S
C449 N445 1.279 1_655 S
C449 C447 1.358 . S
C449 H507 0.931 . S
C450 C453 1.348 . S
C450 C454 1.356 . S
C450 O501 1.325 . S
C451 N452 1.290 . S
C451 C454 1.365 . S
C451 H508 0.911 1_554 S
N452 C451 1.290 . S
N452 C455 1.314 . S
C453 C450 1.348 . S
C453 C455 1.353 . S
C453 H509 0.929 . S
C454 C450 1.356 . S
C454 C451 1.365 . S
C454 H510 0.930 1_554 S
C455 N452 1.314 . S
C455 C453 1.353 . S
C455 H511 0.930 . S
C456 N457 1.314 . S
C456 C461 1.353 . S
C456 H462 0.930 . S
N457 Li440 1.990 . S
N457 C456 1.314 . S
N457 C459 1.279 . S
C458 C459 1.358 . S
C458 C460 1.356 . S
C458 H512 0.930 . S
C459 N457 1.279 . S
C459 C458 1.358 . S
C459 H463 0.930 . S
C460 C458 1.356 . S
C460 C461 1.348 . S
C461 C456 1.353 . S
C461 C460 1.348 . S
C461 H513 0.929 . S
H462 C456 0.930 . S
H463 C459 0.930 . S
C464 N465 1.314 1_455 S
C464 C466 1.353 . S
C464 H470 0.930 . S
N465 Li441 1.990 . S
N465 C464 1.314 1_655 S
N465 C468 1.279 . S
C466 C464 1.353 . S
C466 C469 1.348 . S
C466 H514 0.929 . S
C467 C468 1.358 . S
C467 C469 1.356 1_655 S
C467 H515 0.930 . S
C468 N465 1.279 . S
C468 C467 1.358 . S
C468 H471 0.930 . S
C469 C466 1.348 . S
C469 C467 1.356 1_455 S
H470 C464 0.930 . S
H471 C468 0.930 . S
C472 C474 1.348 . S
C472 C475 1.356 . S
C472 O502 1.325 . S
N473 C476 1.314 . S
N473 C477 1.279 . S
C474 C472 1.348 . S
C474 C476 1.353 . S
C474 H516 0.929 . S
C475 C472 1.356 . S
C475 C477 1.358 . S
C475 H517 0.930 . S
C476 N473 1.314 . S
C476 C474 1.353 . S
C476 H518 0.930 . S
C477 N473 1.279 . S
C477 C475 1.358 . S
C477 H519 0.930 . S
C478 C479 1.348 . S
C478 C480 1.356 1_554 S
C478 O503 1.325 . S
C479 C478 1.348 . S
C479 C481 1.353 1_654 S
C479 H520 0.929 . S
C480 C478 1.356 1_556 S
C480 C482 1.358 . S
C480 H521 0.930 . S
C481 C479 1.353 1_456 S
C481 N483 1.314 . S
C481 H522 0.930 . S
C482 C480 1.358 . S
C482 N483 1.279 1_655 S
C482 H523 0.931 . S
N483 C481 1.314 . S
N483 C482 1.279 1_455 S
C484 C486 1.353 . S
C484 N487 1.314 1_455 S
C484 H490 0.930 . S
C485 N487 1.279 . S
C485 C488 1.358 . S
C485 H491 0.930 . S
C486 C484 1.353 . S
C486 C489 1.348 . S
C486 H524 0.929 . S
N487 Li442 1.990 . S
N487 C484 1.314 1_655 S
N487 C485 1.279 . S
C488 C485 1.358 . S
C488 C489 1.356 1_655 S
C488 H525 0.930 . S
C489 C486 1.348 . S
C489 C488 1.356 1_455 S
H490 C484 0.930 . S
H491 C485 0.930 . S
C492 N493 1.314 . S
C492 C494 1.351 1_554 S
C492 H498 0.931 . S
N493 Li443 1.990 . S
N493 C492 1.314 . S
N493 C496 1.279 1_554 S
C494 C492 1.351 1_556 S
C494 C497 1.348 . S
C494 H526 0.929 . S
C495 C496 1.358 . S
C495 C497 1.356 . S
C495 H527 0.930 . S
C496 N493 1.279 1_556 S
C496 C495 1.358 . S
C496 H499 0.930 . S
C497 C494 1.348 . S
C497 C495 1.356 . S
H498 C492 0.931 . S
H499 C496 0.930 . S
O500 Li440 1.956 . S
O500 Li441 1.970 . S
O500 Li442 1.961 . S
O500 C444 1.325 . S
O501 Li440 1.970 . S
O501 Li441 1.956 . S
O501 Li443 1.961 . S
O501 C450 1.325 . S
O502 Li440 1.961 . S
O502 Li442 1.956 . S
O502 Li443 1.970 . S
O502 C472 1.325 . S
O503 Li441 1.961 . S
O503 Li442 1.970 . S
O503 Li443 1.956 . S
O503 C478 1.325 . S
H504 C446 0.929 . S
H505 C447 0.930 . S
H506 C448 0.930 . S
H507 C449 0.931 . S
H508 C451 0.911 1_556 S
H509 C453 0.929 . S
H510 C454 0.930 1_556 S
H511 C455 0.930 . S
H512 C458 0.930 . S
H513 C461 0.929 . S
H514 C466 0.929 . S
H515 C467 0.930 . S
H516 C474 0.929 . S
H517 C475 0.930 . S
H518 C476 0.930 . S
H519 C477 0.930 . S
H520 C479 0.929 . S
H521 C480 0.930 . S
H522 C481 0.930 . S
H523 C482 0.931 . S
H524 C486 0.929 . S
H525 C488 0.930 . S
H526 C494 0.929 . S
H527 C495 0.930 . S
Li528 N545 1.990 . S
Li528 O588 1.956 . S
Li528 O589 1.970 . S
Li528 O590 1.961 . S
Li529 N553 1.990 . S
Li529 O588 1.970 . S
Li529 O589 1.956 . S
Li529 O591 1.961 . S
Li530 N575 1.990 . S
Li530 O588 1.961 . S
Li530 O590 1.956 . S
Li530 O591 1.970 . S
Li531 N581 1.990 . S
Li531 O589 1.961 . S
Li531 O590 1.970 . S
Li531 O591 1.956 . S
C532 C534 1.348 . S
C532 C535 1.356 . S
C532 O588 1.325 . S
N533 C536 1.314 . S
N533 C537 1.279 . S
C534 C532 1.348 . S
C534 C536 1.353 . S
C534 H592 0.929 . S
C535 C532 1.356 . S
C535 C537 1.358 . S
C535 H593 0.930 . S
C536 N533 1.314 . S
C536 C534 1.353 . S
C536 H594 0.930 . S
C537 N533 1.279 . S
C537 C535 1.358 . S
C537 H595 0.930 . S
C538 C541 1.348 . S
C538 C542 1.356 . S
C538 O589 1.325 . S
C539 N540 1.279 . S
C539 C542 1.358 . S
C539 H596 0.930 . S
N540 C539 1.279 . S
N540 C543 1.314 . S
C541 C538 1.348 . S
C541 C543 1.353 . S
C541 H597 0.929 . S
C542 C538 1.356 . S
C542 C539 1.358 . S
C542 H598 0.930 . S
C543 N540 1.314 . S
C543 C541 1.353 . S
C543 H599 0.930 . S
C544 N545 1.314 . S
C544 C549 1.353 . S
C544 H550 0.930 . S
N545 Li528 1.990 . S
N545 C544 1.314 . S
N545 C547 1.279 . S
C546 C547 1.358 . S
C546 C548 1.356 . S
C546 H600 0.930 . S
C547 N545 1.279 . S
C547 C546 1.358 . S
C547 H551 0.930 . S
C548 C546 1.356 . S
C548 C549 1.348 . S
C549 C544 1.353 . S
C549 C548 1.348 . S
C549 H601 0.929 . S
H550 C544 0.930 . S
H551 C547 0.930 . S
C552 N553 1.314 . S
C552 C554 1.353 . S
C552 H558 0.930 . S
N553 Li529 1.990 . S
N553 C552 1.314 . S
N553 C556 1.279 . S
C554 C552 1.353 . S
C554 C557 1.348 . S
C554 H602 0.929 . S
C555 C556 1.358 . S
C555 C557 1.356 . S
C555 H603 0.930 . S
C556 N553 1.279 . S
C556 C555 1.358 . S
C556 H559 0.930 . S
C557 C554 1.348 . S
C557 C555 1.356 . S
H558 C552 0.930 . S
H559 C556 0.930 . S
C560 C562 1.348 . S
C560 C563 1.356 . S
C560 O590 1.325 . S
N561 C564 1.314 . S
N561 C565 1.279 . S
C562 C560 1.348 . S
C562 C564 1.353 . S
C562 H604 0.929 . S
C563 C560 1.356 . S
C563 C565 1.358 . S
C563 H605 0.930 . S
C564 N561 1.314 . S
C564 C562 1.353 . S
C564 H606 0.930 . S
C565 N561 1.279 . S
C565 C563 1.358 . S
C565 H607 0.930 . S
C566 C567 1.348 . S
C566 C568 1.356 . S
C566 O591 1.325 . S
C567 C566 1.348 . S
C567 C569 1.353 . S
C567 H608 0.929 . S
C568 C566 1.356 . S
C568 C570 1.358 . S
C568 H609 0.930 . S
C569 C567 1.353 . S
C569 N571 1.314 . S
C569 H610 0.930 . S
C570 C568 1.358 . S
C570 N571 1.279 . S
C570 H611 0.930 . S
N571 C569 1.314 . S
N571 C570 1.279 . S
C572 C574 1.353 . S
C572 N575 1.314 . S
C572 H578 0.930 . S
C573 N575 1.279 . S
C573 C576 1.358 . S
C573 H579 0.930 . S
C574 C572 1.353 . S
C574 C577 1.348 . S
C574 H612 0.929 . S
N575 Li530 1.990 . S
N575 C572 1.314 . S
N575 C573 1.279 . S
C576 C573 1.358 . S
C576 C577 1.356 . S
C576 H613 0.930 . S
C577 C574 1.348 . S
C577 C576 1.356 . S
H578 C572 0.930 . S
H579 C573 0.930 . S
C580 N581 1.314 . S
C580 C582 1.353 . S
C580 H586 0.930 . S
N581 Li531 1.990 . S
N581 C580 1.314 . S
N581 C584 1.279 . S
C582 C580 1.353 . S
C582 C585 1.348 . S
C582 H614 0.929 . S
C583 C584 1.358 . S
C583 C585 1.356 . S
C583 H615 0.930 . S
C584 N581 1.279 . S
C584 C583 1.358 . S
C584 H587 0.930 . S
C585 C582 1.348 . S
C585 C583 1.356 . S
H586 C580 0.930 . S
H587 C584 0.930 . S
O588 Li528 1.956 . S
O588 Li529 1.970 . S
O588 Li530 1.961 . S
O588 C532 1.325 . S
O589 Li528 1.970 . S
O589 Li529 1.956 . S
O589 Li531 1.961 . S
O589 C538 1.325 . S
O590 Li528 1.961 . S
O590 Li530 1.956 . S
O590 Li531 1.970 . S
O590 C560 1.325 . S
O591 Li529 1.961 . S
O591 Li530 1.970 . S
O591 Li531 1.956 . S
O591 C566 1.325 . S
H592 C534 0.929 . S
H593 C535 0.930 . S
H594 C536 0.930 . S
H595 C537 0.930 . S
H596 C539 0.930 . S
H597 C541 0.929 . S
H598 C542 0.930 . S
H599 C543 0.930 . S
H600 C546 0.930 . S
H601 C549 0.929 . S
H602 C554 0.929 . S
H603 C555 0.930 . S
H604 C562 0.929 . S
H605 C563 0.930 . S
H606 C564 0.930 . S
H607 C565 0.930 . S
H608 C567 0.929 . S
H609 C568 0.930 . S
H610 C569 0.930 . S
H611 C570 0.930 . S
H612 C574 0.929 . S
H613 C576 0.930 . S
H614 C582 0.929 . S
H615 C583 0.930 . S
Li616 N633 1.990 . S
Li616 O676 1.956 . S
Li616 O677 1.970 . S
Li616 O678 1.961 . S
Li617 N641 1.990 . S
Li617 O676 1.970 . S
Li617 O677 1.956 . S
Li617 O679 1.961 . S
Li618 N663 1.990 . S
Li618 O676 1.961 . S
Li618 O678 1.956 . S
Li618 O679 1.970 . S
Li619 N669 1.990 . S
Li619 O677 1.961 . S
Li619 O678 1.970 . S
Li619 O679 1.956 . S
C620 C622 1.348 . S
C620 C623 1.356 . S
C620 O676 1.325 . S
N621 C624 1.314 . S
N621 C625 1.279 . S
C622 C620 1.348 . S
C622 C624 1.353 . S
C622 H680 0.929 . S
C623 C620 1.356 . S
C623 C625 1.358 . S
C623 H681 0.930 . S
C624 N621 1.314 . S
C624 C622 1.353 . S
C624 H682 0.930 . S
C625 N621 1.279 . S
C625 C623 1.358 . S
C625 H683 0.930 . S
C626 C629 1.348 . S
C626 C630 1.356 . S
C626 O677 1.325 . S
C627 N628 1.279 . S
C627 C630 1.358 . S
C627 H684 0.930 . S
N628 C627 1.279 . S
N628 C631 1.314 . S
C629 C626 1.348 . S
C629 C631 1.353 . S
C629 H685 0.929 . S
C630 C626 1.356 . S
C630 C627 1.358 . S
C630 H686 0.930 . S
C631 N628 1.314 . S
C631 C629 1.353 . S
C631 H687 0.930 . S
C632 N633 1.314 . S
C632 C637 1.353 . S
C632 H638 0.930 . S
N633 Li616 1.990 . S
N633 C632 1.314 . S
N633 C635 1.279 . S
C634 C635 1.358 . S
C634 C636 1.356 . S
C634 H688 0.930 . S
C635 N633 1.279 . S
C635 C634 1.358 . S
C635 H639 0.930 . S
C636 C634 1.356 . S
C636 C637 1.348 . S
C637 C632 1.353 . S
C637 C636 1.348 . S
C637 H689 0.929 . S
H638 C632 0.930 . S
H639 C635 0.930 . S
C640 N641 1.314 . S
C640 C642 1.353 . S
C640 H646 0.930 . S
N641 Li617 1.990 . S
N641 C640 1.314 . S
N641 C644 1.279 . S
C642 C640 1.353 . S
C642 C645 1.348 . S
C642 H690 0.929 . S
C643 C644 1.358 . S
C643 C645 1.356 . S
C643 H691 0.930 . S
C644 N641 1.279 . S
C644 C643 1.358 . S
C644 H647 0.930 . S
C645 C642 1.348 . S
C645 C643 1.356 . S
H646 C640 0.930 . S
H647 C644 0.930 . S
C648 C650 1.348 . S
C648 C651 1.356 . S
C648 O678 1.325 . S
N649 C652 1.314 . S
N649 C653 1.279 . S
C650 C648 1.348 . S
C650 C652 1.353 . S
C650 H692 0.929 . S
C651 C648 1.356 . S
C651 C653 1.358 . S
C651 H693 0.930 . S
C652 N649 1.314 . S
C652 C650 1.353 . S
C652 H694 0.930 . S
C653 N649 1.279 . S
C653 C651 1.358 . S
C653 H695 0.930 . S
C654 C655 1.348 . S
C654 C656 1.356 . S
C654 O679 1.325 . S
C655 C654 1.348 . S
C655 C657 1.353 . S
C655 H696 0.929 . S
C656 C654 1.356 . S
C656 C658 1.358 . S
C656 H697 0.930 . S
C657 C655 1.353 . S
C657 N659 1.314 . S
C657 H698 0.930 . S
C658 C656 1.358 . S
C658 N659 1.279 . S
C658 H699 0.930 . S
N659 C657 1.314 . S
N659 C658 1.279 . S
C660 C662 1.353 . S
C660 N663 1.314 . S
C660 H666 0.930 . S
C661 N663 1.279 . S
C661 C664 1.358 . S
C661 H667 0.930 . S
C662 C660 1.353 . S
C662 C665 1.348 . S
C662 H700 0.929 . S
N663 Li618 1.990 . S
N663 C660 1.314 . S
N663 C661 1.279 . S
C664 C661 1.358 . S
C664 C665 1.356 . S
C664 H701 0.930 . S
C665 C662 1.348 . S
C665 C664 1.356 . S
H666 C660 0.930 . S
H667 C661 0.930 . S
C668 N669 1.314 . S
C668 C670 1.353 . S
C668 H674 0.930 . S
N669 Li619 1.990 . S
N669 C668 1.314 . S
N669 C672 1.279 . S
C670 C668 1.353 . S
C670 C673 1.348 . S
C670 H702 0.929 . S
C671 C672 1.358 . S
C671 C673 1.356 . S
C671 H703 0.930 . S
C672 N669 1.279 . S
C672 C671 1.358 . S
C672 H675 0.930 . S
C673 C670 1.348 . S
C673 C671 1.356 . S
H674 C668 0.930 . S
H675 C672 0.930 . S
O676 Li616 1.956 . S
O676 Li617 1.970 . S
O676 Li618 1.961 . S
O676 C620 1.325 . S
O677 Li616 1.970 . S
O677 Li617 1.956 . S
O677 Li619 1.961 . S
O677 C626 1.325 . S
O678 Li616 1.961 . S
O678 Li618 1.956 . S
O678 Li619 1.970 . S
O678 C648 1.325 . S
O679 Li617 1.961 . S
O679 Li618 1.970 . S
O679 Li619 1.956 . S
O679 C654 1.325 . S
H680 C622 0.929 . S
H681 C623 0.930 . S
H682 C624 0.930 . S
H683 C625 0.930 . S
H684 C627 0.930 . S
H685 C629 0.929 . S
H686 C630 0.930 . S
H687 C631 0.930 . S
H688 C634 0.930 . S
H689 C637 0.929 . S
H690 C642 0.929 . S
H691 C643 0.930 . S
H692 C650 0.929 . S
H693 C651 0.930 . S
H694 C652 0.930 . S
H695 C653 0.930 . S
H696 C655 0.929 . S
H697 C656 0.930 . S
H698 C657 0.930 . S
H699 C658 0.930 . S
H700 C662 0.929 . S
H701 C664 0.930 . S
H702 C670 0.929 . S
H703 C671 0.930 . S
H704 C710 0.930 . S
H705 C714 0.930 . S
H706 C719 0.929 . S
H707 C717 0.929 . S
H708 C712 0.929 . S
H709 C718 0.929 . S
C710 H704 0.930 . S
C710 C711 1.367 . S
C710 C718 1.378 . S
C711 C710 1.367 . S
C711 C719 1.433 . S
C712 H708 0.929 . S
C712 C714 1.378 . S
C712 C716 1.350 . S
C713 C716 1.463 1_556 S
C713 C718 1.350 . S
C713 N721 1.427 . S
C714 H705 0.930 . S
C714 C712 1.378 . S
C714 C715 1.367 . S
C715 C714 1.367 . S
C715 C717 1.433 . S
C716 C712 1.350 . S
C716 C713 1.463 1_554 S
C716 N720 1.427 . S
C717 H707 0.929 . S
C717 C715 1.433 . S
C717 N720 1.384 . S
C718 H709 0.929 . S
C718 C710 1.378 . S
C718 C713 1.350 . S
C719 H706 0.929 . S
C719 C711 1.433 . S
C719 N721 1.384 . S
N720 C716 1.427 . S
N720 C717 1.384 . S
N721 C713 1.427 . S
N721 C719 1.384 . S
H722 C728 0.930 . S
H723 C732 0.930 . S
H724 C737 0.929 . S
H725 C735 0.929 . S
H726 C730 0.929 . S
H727 C736 0.929 . S
C728 H722 0.930 . S
C728 C729 1.367 . S
C728 C736 1.378 . S
C729 C728 1.367 . S
C729 C737 1.433 . S
C730 H726 0.929 . S
C730 C732 1.378 . S
C730 C734 1.350 . S
C731 C734 1.463 . S
C731 C736 1.350 . S
C731 N739 1.427 . S
C732 H723 0.930 . S
C732 C730 1.378 . S
C732 C733 1.367 . S
C733 C732 1.367 . S
C733 C735 1.433 . S
C734 C730 1.350 . S
C734 C731 1.463 . S
C734 N738 1.427 . S
C735 H725 0.929 . S
C735 C733 1.433 . S
C735 N738 1.384 . S
C736 H727 0.929 . S
C736 C728 1.378 . S
C736 C731 1.350 . S
C737 H724 0.929 . S
C737 C729 1.433 . S
C737 N739 1.384 . S
N738 C734 1.427 . S
N738 C735 1.384 . S
N739 C731 1.427 . S
N739 C737 1.384 . S
H740 C746 0.930 . S
H741 C750 0.930 . S
H742 C755 0.929 . S
H743 C753 0.929 . S
H744 C748 0.929 . S
H745 C754 0.929 . S
C746 H740 0.930 . S
C746 C747 1.367 . S
C746 C754 1.378 . S
C747 C746 1.367 . S
C747 C755 1.433 . S
C748 H744 0.929 . S
C748 C750 1.378 . S
C748 C752 1.350 . S
C749 C752 1.463 . S
C749 C754 1.350 . S
C749 N757 1.427 . S
C750 H741 0.930 . S
C750 C748 1.378 . S
C750 C751 1.367 . S
C751 C750 1.367 . S
C751 C753 1.433 . S
C752 C748 1.350 . S
C752 C749 1.463 . S
C752 N756 1.427 . S
C753 H743 0.929 . S
C753 C751 1.433 . S
C753 N756 1.384 . S
C754 H745 0.929 . S
C754 C746 1.378 . S
C754 C749 1.350 . S
C755 H742 0.929 . S
C755 C747 1.433 . S
C755 N757 1.384 . S
N756 C752 1.427 . S
N756 C753 1.384 . S
N757 C749 1.427 . S
N757 C755 1.384 . S
H758 C764 0.930 . S
H759 C768 0.930 . S
H760 C773 0.929 . S
H761 C771 0.929 . S
H762 C766 0.929 . S
H763 C772 0.929 . S
C764 H758 0.930 . S
C764 C765 1.367 . S
C764 C772 1.378 . S
C765 C764 1.367 . S
C765 C773 1.433 . S
C766 H762 0.929 . S
C766 C768 1.378 . S
C766 C770 1.350 . S
C767 C770 1.463 . S
C767 C772 1.350 . S
C767 N775 1.427 . S
C768 H759 0.930 . S
C768 C766 1.378 . S
C768 C769 1.367 . S
C769 C768 1.367 . S
C769 C771 1.433 . S
C770 C766 1.350 . S
C770 C767 1.463 . S
C770 N774 1.427 . S
C771 H761 0.929 . S
C771 C769 1.433 . S
C771 N774 1.384 . S
C772 H763 0.929 . S
C772 C764 1.378 . S
C772 C767 1.350 . S
C773 H760 0.929 . S
C773 C765 1.433 . S
C773 N775 1.384 . S
N774 C770 1.427 . S
N774 C771 1.384 . S
N775 C767 1.427 . S
N775 C773 1.384 . S
H776 C782 0.930 . S
H777 C786 0.930 . S
H778 C791 0.929 . S
H779 C789 0.929 . S
H780 C784 0.929 . S
H781 C790 0.929 . S
C782 H776 0.930 . S
C782 C783 1.367 . S
C782 C790 1.378 . S
C783 C782 1.367 . S
C783 C791 1.433 . S
C784 H780 0.929 . S
C784 C786 1.378 . S
C784 C788 1.350 . S
C785 C788 1.463 . S
C785 C790 1.350 . S
C785 N793 1.427 . S
C786 H777 0.930 . S
C786 C784 1.378 . S
C786 C787 1.367 . S
C787 C786 1.367 . S
C787 C789 1.433 . S
C788 C784 1.350 . S
C788 C785 1.463 . S
C788 N792 1.427 . S
C789 H779 0.929 . S
C789 C787 1.433 . S
C789 N792 1.384 . S
C790 H781 0.929 . S
C790 C782 1.378 . S
C790 C785 1.350 . S
C791 H778 0.929 . S
C791 C783 1.433 . S
C791 N793 1.384 . S
N792 C788 1.427 . S
N792 C789 1.384 . S
N793 C785 1.427 . S
N793 C791 1.384 . S
H794 C800 0.930 . S
H795 C804 0.930 . S
H796 C809 0.929 . S
H797 C807 0.929 . S
H798 C802 0.929 . S
H799 C808 0.929 . S
C800 H794 0.930 . S
C800 C801 1.367 . S
C800 C808 1.378 . S
C801 C800 1.367 . S
C801 C809 1.433 . S
C802 H798 0.929 . S
C802 C804 1.378 . S
C802 C806 1.350 . S
C803 C806 1.463 . S
C803 C808 1.350 . S
C803 N811 1.427 . S
C804 H795 0.930 . S
C804 C802 1.378 . S
C804 C805 1.367 . S
C805 C804 1.367 . S
C805 C807 1.433 . S
C806 C802 1.350 . S
C806 C803 1.463 . S
C806 N810 1.427 . S
C807 H797 0.929 . S
C807 C805 1.433 . S
C807 N810 1.384 . S
C808 H799 0.929 . S
C808 C800 1.378 . S
C808 C803 1.350 . S
C809 H796 0.929 . S
C809 C801 1.433 . S
C809 N811 1.384 . S
N810 C806 1.427 . S
N810 C807 1.384 . S
N811 C803 1.427 . S
N811 C809 1.384 . S
H812 C818 0.930 . S
H813 C822 0.930 . S
H814 C827 0.929 . S
H815 C825 0.929 . S
H816 C820 0.929 . S
H817 C826 0.929 . S
C818 H812 0.930 . S
C818 C819 1.367 . S
C818 C826 1.378 . S
C819 C818 1.367 . S
C819 C827 1.433 . S
C820 H816 0.929 . S
C820 C822 1.378 . S
C820 C824 1.350 . S
C821 C824 1.463 1_554 S
C821 C826 1.350 . S
C821 N829 1.427 . S
C822 H813 0.930 . S
C822 C820 1.378 . S
C822 C823 1.367 . S
C823 C822 1.367 . S
C823 C825 1.433 . S
C824 C820 1.350 . S
C824 C821 1.463 1_556 S
C824 N828 1.427 . S
C825 H815 0.929 . S
C825 C823 1.433 . S
C825 N828 1.384 . S
C826 H817 0.929 . S
C826 C818 1.378 . S
C826 C821 1.350 . S
C827 H814 0.929 . S
C827 C819 1.433 . S
C827 N829 1.384 . S
N828 C824 1.427 . S
N828 C825 1.384 . S
N829 C821 1.427 . S
N829 C827 1.384 . S
H830 C836 0.930 . S
H831 C840 0.930 . S
H832 C845 0.929 . S
H833 C843 0.929 . S
H834 C838 0.929 . S
H835 C844 0.929 . S
C836 H830 0.930 . S
C836 C837 1.367 . S
C836 C844 1.378 . S
C837 C836 1.367 . S
C837 C845 1.433 . S
C838 H834 0.929 . S
C838 C840 1.378 . S
C838 C842 1.350 . S
C839 C842 1.463 . S
C839 C844 1.350 . S
C839 N847 1.427 . S
C840 H831 0.930 . S
C840 C838 1.378 . S
C840 C841 1.367 . S
C841 C840 1.367 . S
C841 C843 1.433 . S
C842 C838 1.350 . S
C842 C839 1.463 . S
C842 N846 1.427 . S
C843 H833 0.929 . S
C843 C841 1.433 . S
C843 N846 1.384 . S
C844 H835 0.929 . S
C844 C836 1.378 . S
C844 C839 1.350 . S
C845 H832 0.929 . S
C845 C837 1.433 . S
C845 N847 1.384 . S
N846 C842 1.427 . S
N846 C843 1.384 . S
N847 C839 1.427 . S
N847 C845 1.384 . S
H848 C854 0.930 . S
H849 C858 0.930 . S
H850 C863 0.929 . S
H851 C861 0.929 . S
H852 C856 0.929 . S
H853 C862 0.929 . S
C854 H848 0.930 . S
C854 C855 1.367 . S
C854 C862 1.378 . S
C855 C854 1.367 . S
C855 C863 1.433 . S
C856 H852 0.929 . S
C856 C858 1.378 . S
C856 C860 1.350 . S
C857 C860 1.463 . S
C857 C862 1.350 . S
C857 N865 1.427 . S
C858 H849 0.930 . S
C858 C856 1.378 . S
C858 C859 1.367 . S
C859 C858 1.367 . S
C859 C861 1.433 . S
C860 C856 1.350 . S
C860 C857 1.463 . S
C860 N864 1.427 . S
C861 H851 0.929 . S
C861 C859 1.433 . S
C861 N864 1.384 . S
C862 H853 0.929 . S
C862 C854 1.378 . S
C862 C857 1.350 . S
C863 H850 0.929 . S
C863 C855 1.433 . S
C863 N865 1.384 . S
N864 C860 1.427 . S
N864 C861 1.384 . S
N865 C857 1.427 . S
N865 C863 1.384 . S
H866 C872 0.930 . S
H867 C876 0.930 . S
H868 C881 0.929 . S
H869 C879 0.929 . S
H870 C874 0.929 . S
H871 C880 0.929 . S
C872 H866 0.930 . S
C872 C873 1.367 . S
C872 C880 1.378 . S
C873 C872 1.367 . S
C873 C881 1.433 . S
C874 H870 0.929 . S
C874 C876 1.378 . S
C874 C878 1.350 . S
C875 C878 1.463 . S
C875 C880 1.350 . S
C875 N883 1.427 . S
C876 H867 0.930 . S
C876 C874 1.378 . S
C876 C877 1.367 . S
C877 C876 1.367 . S
C877 C879 1.433 . S
C878 C874 1.350 . S
C878 C875 1.463 . S
C878 N882 1.427 . S
C879 H869 0.929 . S
C879 C877 1.433 . S
C879 N882 1.384 . S
C880 H871 0.929 . S
C880 C872 1.378 . S
C880 C875 1.350 . S
C881 H868 0.929 . S
C881 C873 1.433 . S
C881 N883 1.384 . S
N882 C878 1.427 . S
N882 C879 1.384 . S
N883 C875 1.427 . S
N883 C881 1.384 . S
H884 C890 0.930 . S
H885 C894 0.930 . S
H886 C899 0.929 . S
H887 C897 0.929 . S
H888 C892 0.929 . S
H889 C898 0.929 . S
C890 H884 0.930 . S
C890 C891 1.367 1_556 S
C890 C898 1.378 . S
C891 C890 1.367 1_554 S
C891 C899 1.433 . S
C892 H888 0.929 . S
C892 C894 1.378 . S
C892 C896 1.350 1_554 S
C893 C896 1.463 1_554 S
C893 C898 1.350 1_554 S
C893 N901 1.427 . S
C894 H885 0.930 . S
C894 C892 1.378 . S
C894 C895 1.367 1_554 S
C895 C894 1.367 1_556 S
C895 C897 1.433 . S
C896 C892 1.350 1_556 S
C896 C893 1.463 1_556 S
C896 N900 1.427 . S
C897 H887 0.929 . S
C897 C895 1.433 . S
C897 N900 1.384 . S
C898 H889 0.929 . S
C898 C890 1.378 . S
C898 C893 1.350 1_556 S
C899 H886 0.929 . S
C899 C891 1.433 . S
C899 N901 1.384 . S
N900 C896 1.427 . S
N900 C897 1.384 . S
N901 C893 1.427 . S
N901 C899 1.384 . S
H902 C908 0.930 . S
H903 C912 0.930 . S
H904 C917 0.929 . S
H905 C915 0.929 . S
H906 C910 0.929 . S
H907 C916 0.929 . S
C908 H902 0.930 . S
C908 C909 1.367 . S
C908 C916 1.378 . S
C909 C908 1.367 . S
C909 C917 1.433 . S
C910 H906 0.929 . S
C910 C912 1.378 . S
C910 C914 1.350 . S
C911 C914 1.463 . S
C911 C916 1.350 . S
C911 N919 1.427 . S
C912 H903 0.930 . S
C912 C910 1.378 . S
C912 C913 1.367 . S
C913 C912 1.367 . S
C913 C915 1.433 . S
C914 C910 1.350 . S
C914 C911 1.463 . S
C914 N918 1.427 . S
C915 H905 0.929 . S
C915 C913 1.433 . S
C915 N918 1.384 . S
C916 H907 0.929 . S
C916 C908 1.378 . S
C916 C911 1.350 . S
C917 H904 0.929 . S
C917 C909 1.433 . S
C917 N919 1.384 . S
N918 C914 1.427 . S
N918 C915 1.384 . S
N919 C911 1.427 . S
N919 C917 1.384 . S
H920 C926 0.930 . S
H921 C930 0.930 . S
H922 C935 0.929 . S
H923 C933 0.929 . S
H924 C928 0.929 . S
H925 C934 0.929 . S
C926 H920 0.930 . S
C926 C927 1.367 . S
C926 C934 1.378 . S
C927 C926 1.367 . S
C927 C935 1.433 . S
C928 H924 0.929 . S
C928 C930 1.378 . S
C928 C932 1.350 . S
C929 C932 1.463 . S
C929 C934 1.350 . S
C929 N937 1.427 . S
C930 H921 0.930 . S
C930 C928 1.378 . S
C930 C931 1.367 . S
C931 C930 1.367 . S
C931 C933 1.433 . S
C932 C928 1.350 . S
C932 C929 1.463 . S
C932 N936 1.427 . S
C933 H923 0.929 . S
C933 C931 1.433 . S
C933 N936 1.384 . S
C934 H925 0.929 . S
C934 C926 1.378 . S
C934 C929 1.350 . S
C935 H922 0.929 . S
C935 C927 1.433 . S
C935 N937 1.384 . S
N936 C932 1.427 . S
N936 C933 1.384 . S
N937 C929 1.427 . S
N937 C935 1.384 . S
H938 C944 0.930 . S
H939 C948 0.930 . S
H940 C953 0.929 . S
H941 C951 0.929 . S
H942 C946 0.929 . S
H943 C952 0.929 . S
C944 H938 0.930 . S
C944 C945 1.367 1_554 S
C944 C952 1.378 . S
C945 C944 1.367 1_556 S
C945 C953 1.433 . S
C946 H942 0.929 . S
C946 C948 1.378 . S
C946 C950 1.350 1_556 S
C947 C950 1.463 1_556 S
C947 C952 1.350 1_556 S
C947 N955 1.427 . S
C948 H939 0.930 . S
C948 C946 1.378 . S
C948 C949 1.367 1_556 S
C949 C948 1.367 1_554 S
C949 C951 1.433 . S
C950 C946 1.350 1_554 S
C950 C947 1.463 1_554 S
C950 N954 1.427 . S
C951 H941 0.929 . S
C951 C949 1.433 . S
C951 N954 1.384 . S
C952 H943 0.929 . S
C952 C944 1.378 . S
C952 C947 1.350 1_554 S
C953 H940 0.929 . S
C953 C945 1.433 . S
C953 N955 1.384 . S
N954 C950 1.427 . S
N954 C951 1.384 . S
N955 C947 1.427 . S
N955 C953 1.384 . S
H956 C962 0.930 . S
H957 C966 0.930 . S
H958 C971 0.929 . S
H959 C969 0.929 . S
H960 C964 0.929 . S
H961 C970 0.929 . S
C962 H956 0.930 . S
C962 C963 1.367 . S
C962 C970 1.378 . S
C963 C962 1.367 . S
C963 C971 1.433 . S
C964 H960 0.929 . S
C964 C966 1.378 . S
C964 C968 1.350 . S
C965 C968 1.463 . S
C965 C970 1.350 . S
C965 N973 1.427 . S
C966 H957 0.930 . S
C966 C964 1.378 . S
C966 C967 1.367 . S
C967 C966 1.367 . S
C967 C969 1.433 . S
C968 C964 1.350 . S
C968 C965 1.463 . S
C968 N972 1.427 . S
C969 H959 0.929 . S
C969 C967 1.433 . S
C969 N972 1.384 . S
C970 H961 0.929 . S
C970 C962 1.378 . S
C970 C965 1.350 . S
C971 H958 0.929 . S
C971 C963 1.433 . S
C971 N973 1.384 . S
N972 C968 1.427 . S
N972 C969 1.384 . S
N973 C965 1.427 . S
N973 C971 1.384 . S
H974 C980 0.930 . S
H975 C984 0.930 . S
H976 C989 0.929 . S
H977 C987 0.929 . S
H978 C982 0.929 . S
H979 C988 0.929 . S
C980 H974 0.930 . S
C980 C981 1.367 . S
C980 C988 1.378 . S
C981 C980 1.367 . S
C981 C989 1.433 . S
C982 H978 0.929 . S
C982 C984 1.378 . S
C982 C986 1.350 . S
C983 C986 1.463 . S
C983 C988 1.350 . S
C983 N991 1.427 . S
C984 H975 0.930 . S
C984 C982 1.378 . S
C984 C985 1.367 . S
C985 C984 1.367 . S
C985 C987 1.433 . S
C986 C982 1.350 . S
C986 C983 1.463 . S
C986 N990 1.427 . S
C987 H977 0.929 . S
C987 C985 1.433 . S
C987 N990 1.384 . S
C988 H979 0.929 . S
C988 C980 1.378 . S
C988 C983 1.350 . S
C989 H976 0.929 . S
C989 C981 1.433 . S
C989 N991 1.384 . S
N990 C986 1.427 . S
N990 C987 1.384 . S
N991 C983 1.427 . S
N991 C989 1.384 . S
C711 C108 1.359 . S
C715 C57 1.354 . S
C729 C145 1.356 . S
C733 C205 1.361 . S
C747 C293 1.356 . S
C751 C225 1.361 . S
C765 C313 1.358 . S
C769 C20 1.362 . S
C783 C409 1.358 . S
C787 C460 1.354 . S
C801 C497 1.356 . S
C805 C557 1.361 . S
C819 C577 1.360 . S
C823 C645 1.361 . S
C837 C372 1.362 . S
C841 C665 1.359 . S
C855 C49 1.520 . S
C859 C636 1.522 . S
C873 C381 1.518 . S
C877 C137 1.517 . S
C891 C469 1.519 . S
C895 C233 1.522 . S
C909 C321 1.519 . S
C913 C548 1.517 . S
C927 C196 1.521 . S
C931 C673 1.523 . S
C945 C401 1.523 . S
C949 C284 1.523 . S
C963 C489 1.519 . S
C967 C29 1.521 . S
C981 C117 1.516 . S
C985 C585 1.517 . S
