# Generated by pormake.
# Topology ecn, (8)-cn, num edge types: 1
# Building blocks:
#     Node 0, Type 0, BuildingBlock: TAGTUT_clean_sbu_3, # of connection points: 8
#     Node 1, Type 0, BuildingBlock: TAGTUT_clean_sbu_3, # of connection points: 8
#     Node 2, Type 0, BuildingBlock: TAGTUT_clean_sbu_3, # of connection points: 8
#     Node 3, Type 0, BuildingBlock: TAGTUT_clean_sbu_3, # of connection points: 8
#     Node 4, Type 0, BuildingBlock: TAGTUT_clean_sbu_3, # of connection points: 8
#     Node 5, Type 0, BuildingBlock: TAGTUT_clean_sbu_3, # of connection points: 8
#     Node 6, Type 0, BuildingBlock: TAGTUT_clean_sbu_3, # of connection points: 8
#     Node 7, Type 0, BuildingBlock: TAGTUT_clean_sbu_3, # of connection points: 8
#     Node 8, Type 0, BuildingBlock: TAGTUT_clean_sbu_3, # of connection points: 8
#     Edge 9, Type (0, 0), BuildingBlock: OJICUG_clean_linker_0, # of connection points: 2
#     Edge 10, Type (0, 0), BuildingBlock: OJICUG_clean_linker_0, # of connection points: 2
#     Edge 11, Type (0, 0), BuildingBlock: OJICUG_clean_linker_0, # of connection points: 2
#     Edge 12, Type (0, 0), BuildingBlock: OJICUG_clean_linker_0, # of connection points: 2
#     Edge 13, Type (0, 0), BuildingBlock: OJICUG_clean_linker_0, # of connection points: 2
#     Edge 14, Type (0, 0), BuildingBlock: OJICUG_clean_linker_0, # of connection points: 2
#     Edge 15, Type (0, 0), BuildingBlock: OJICUG_clean_linker_0, # of connection points: 2
#     Edge 16, Type (0, 0), BuildingBlock: OJICUG_clean_linker_0, # of connection points: 2
#     Edge 17, Type (0, 0), BuildingBlock: OJICUG_clean_linker_0, # of connection points: 2
#     Edge 18, Type (0, 0), BuildingBlock: OJICUG_clean_linker_0, # of connection points: 2
#     Edge 19, Type (0, 0), BuildingBlock: OJICUG_clean_linker_0, # of connection points: 2
#     Edge 20, Type (0, 0), BuildingBlock: OJICUG_clean_linker_0, # of connection points: 2
#     Edge 21, Type (0, 0), BuildingBlock: OJICUG_clean_linker_0, # of connection points: 2
#     Edge 22, Type (0, 0), BuildingBlock: OJICUG_clean_linker_0, # of connection points: 2
#     Edge 23, Type (0, 0), BuildingBlock: OJICUG_clean_linker_0, # of connection points: 2
#     Edge 24, Type (0, 0), BuildingBlock: OJICUG_clean_linker_0, # of connection points: 2
#     Edge 25, Type (0, 0), BuildingBlock: OJICUG_clean_linker_0, # of connection points: 2
#     Edge 26, Type (0, 0), BuildingBlock: OJICUG_clean_linker_0, # of connection points: 2
#     Edge 27, Type (0, 0), BuildingBlock: OJICUG_clean_linker_0, # of connection points: 2
#     Edge 28, Type (0, 0), BuildingBlock: OJICUG_clean_linker_0, # of connection points: 2
#     Edge 29, Type (0, 0), BuildingBlock: OJICUG_clean_linker_0, # of connection points: 2
#     Edge 30, Type (0, 0), BuildingBlock: OJICUG_clean_linker_0, # of connection points: 2
#     Edge 31, Type (0, 0), BuildingBlock: OJICUG_clean_linker_0, # of connection points: 2
#     Edge 32, Type (0, 0), BuildingBlock: OJICUG_clean_linker_0, # of connection points: 2
#     Edge 33, Type (0, 0), BuildingBlock: OJICUG_clean_linker_0, # of connection points: 2
#     Edge 34, Type (0, 0), BuildingBlock: OJICUG_clean_linker_0, # of connection points: 2
#     Edge 35, Type (0, 0), BuildingBlock: OJICUG_clean_linker_0, # of connection points: 2
#     Edge 36, Type (0, 0), BuildingBlock: OJICUG_clean_linker_0, # of connection points: 2
#     Edge 37, Type (0, 0), BuildingBlock: OJICUG_clean_linker_0, # of connection points: 2
#     Edge 38, Type (0, 0), BuildingBlock: OJICUG_clean_linker_0, # of connection points: 2
#     Edge 39, Type (0, 0), BuildingBlock: OJICUG_clean_linker_0, # of connection points: 2
#     Edge 40, Type (0, 0), BuildingBlock: OJICUG_clean_linker_0, # of connection points: 2
#     Edge 41, Type (0, 0), BuildingBlock: OJICUG_clean_linker_0, # of connection points: 2
#     Edge 42, Type (0, 0), BuildingBlock: OJICUG_clean_linker_0, # of connection points: 2
#     Edge 43, Type (0, 0), BuildingBlock: OJICUG_clean_linker_0, # of connection points: 2
#     Edge 44, Type (0, 0), BuildingBlock: OJICUG_clean_linker_0, # of connection points: 2
# Relax obj value: 0.150
# Max RMSD: 0.271
# Mean RMSD: 0.271
data_MOF--net-ecn--node1-TAGTUT_clean_sbu_3--edge1-OJICUG_clean_linker_0
_symmetry_space_group_name_H-M    P1
_symmetry_Int_Tables_number       1
_symmetry_cell_setting            triclinic
loop_
_symmetry_equiv_pos_as_xyz
'x, y, z'
_cell_length_a     39.178898
_cell_length_b     39.129194
_cell_length_c     11.132821
_cell_angle_alpha  90.055507
_cell_angle_beta   90.015318
_cell_angle_gamma 119.98151
loop_
_atom_site_label
_atom_site_type_symbol
_atom_site_fract_x
_atom_site_fract_y
_atom_site_fract_z
_atom_type_partial_charge
C0 C 0.12148 0.29527 0.07965 0.0
C1 C 0.97019 0.21108 0.14295 0.0
C2 C 0.99653 0.11644 0.06257 0.0
Mg3 Mg 0.18985 0.27019 0.03143 0.0
Mg4 Mg 0.16891 0.19926 0.82968 0.0
O5 O 0.15618 0.21447 0.97535 0.0
Mg6 Mg 0.1041 0.21197 -0.01317 0.0
O7 O 0.05373 0.21408 0.01129 0.0
Mg8 Mg 0.05335 0.20768 0.18746 0.0
Mg9 Mg 1.00663 0.18967 0.92499 0.0
C10 C 0.08894 0.12446 0.90719 0.0
O11 O 0.09695 0.21912 0.79145 0.0
O12 O 0.24276 0.25814 0.01958 0.0
O13 O 0.03495 0.20555 0.74607 0.0
O14 O 0.20483 0.29142 0.84161 0.0
O15 O 0.22523 0.2086 0.88544 0.0
O16 O 0.18406 0.24542 0.6983 0.0
O17 O 0.1089 0.2054 0.17644 0.0
O18 O 0.17098 0.24769 0.22618 0.0
C19 C 0.13538 0.22275 0.25544 0.0
C20 C 0.25008 0.23456 0.95784 0.0
O21 O 0.07788 0.14564 0.96468 0.0
O22 O 0.99801 0.21196 0.20444 0.0
O23 O 0.11879 0.13917 0.83589 0.0
O24 O 0.01523 0.13679 0.15658 0.0
O25 O 0.96754 0.20487 0.02885 0.0
O26 O 0.9909 0.13208 0.97004 0.0
O27 O 0.13371 0.27574 0.01921 0.0
O28 O 0.09316 0.27759 0.15711 0.0
C29 C 0.20101 0.28149 0.73158 0.0
C30 C 0.07083 0.21628 0.71706 0.0
C31 C 0.7163 0.82872 0.08257 0.0
C32 C 0.80021 0.76154 0.14838 0.0
C33 C 0.89418 0.88247 0.06802 0.0
Mg34 Mg 0.74097 0.92203 0.03507 0.0
Mg35 Mg 0.81208 0.97203 0.83499 0.0
O36 O 0.79687 0.94454 -0.01875 0.0
Mg37 Mg 0.79976 0.89519 -0.00729 0.0
O38 O 0.79763 0.84264 0.01692 0.0
Mg39 Mg 0.80344 0.84822 0.19306 0.0
Mg40 Mg 0.82119 0.81916 0.93039 0.0
C41 C 0.88727 0.96868 0.91693 0.0
O42 O 0.79321 0.8812 0.79681 0.0
O43 O 0.75262 0.98687 0.02281 0.0
O44 O 0.80547 0.83179 0.75144 0.0
O45 O 0.72029 0.9158 0.8444 0.0
O46 O 0.80208 0.01867 0.88877 0.0
O47 O 0.76651 0.94076 0.70227 0.0
O48 O 0.80553 0.90607 0.1824 0.0
O49 O 0.76293 0.92559 0.23096 0.0
C50 C 0.78797 0.91509 0.26091 0.0
C51 C 0.77609 0.01764 0.96062 0.0
O52 O 0.86634 0.93629 0.97401 0.0
O53 O 0.79944 0.7886 0.20981 0.0
O54 O 0.87236 0.98298 0.84311 0.0
O55 O 0.87405 0.88108 0.16214 0.0
O56 O 0.80608 0.76491 0.03417 0.0
O57 O 0.87854 0.86087 0.976 0.0
O58 O 0.73596 0.86056 0.02274 0.0
O59 O 0.73374 0.81802 0.16085 0.0
C60 C 0.73043 0.92175 0.7346 0.0
C61 C 0.79551 0.85756 0.72241 0.0
C62 C 0.18644 0.8976 0.07765 0.0
C63 C 0.25671 0.03875 0.13169 0.0
C64 C 0.11988 0.00947 0.04418 0.0
Mg65 Mg 0.09376 0.82675 0.03771 0.0
Mg66 Mg 0.04102 0.84399 0.83773 0.0
O67 O 0.06959 0.85844 -0.0173 0.0
Mg68 Mg 0.11777 0.91171 -0.00959 0.0
O69 O 0.17019 0.96433 0.00822 0.0
Mg70 Mg 0.16567 0.96503 0.18339 0.0
Mg71 Mg 0.1938 0.0181 0.94071 0.0
C72 C 0.04073 0.92052 0.91403 0.0
O73 O 0.13085 0.91799 0.79672 0.0
O74 O 0.0293 0.77214 0.03165 0.0
O75 O 0.18088 0.9803 0.76201 0.0
O76 O 0.09885 0.81044 0.84779 0.0
O77 O 0.99598 0.78762 0.89659 0.0
O78 O 0.07184 0.82927 0.70492 0.0
O79 O 0.10834 0.90837 0.18076 0.0
O80 O 0.09141 0.84699 0.23207 0.0
C81 C 0.10142 0.88258 0.26059 0.0
C82 C 0.99798 0.76367 0.97049 0.0
O83 O 0.07324 0.93271 0.97061 0.0
O84 O 0.22602 0.02012 0.19663 0.0
O85 O 0.02706 0.89128 0.84042 0.0
O86 O 0.13122 1.00206 0.14604 0.0
O87 O 0.25495 0.03499 0.01651 0.0
O88 O 0.13456 0.00713 0.94439 0.0
O89 O 0.15417 0.88438 0.01979 0.0
O90 O 0.19699 0.92621 0.15413 0.0
C91 C 0.09171 0.81313 0.73789 0.0
C92 C 0.15607 0.94473 0.72776 0.0
C93 C 0.78769 0.62874 0.41955 0.0
C94 C 0.63669 0.54408 0.48278 0.0
C95 C 0.6641 0.45013 0.40131 0.0
Mg96 Mg 0.85692 0.60445 0.37367 0.0
Mg97 Mg 0.83655 0.53384 0.1714 0.0
O98 O 0.82363 0.54876 0.31716 0.0
Mg99 Mg 0.77131 0.54562 0.32839 0.0
O100 O 0.72069 0.54731 0.3524 0.0
Mg101 Mg 0.72012 0.54106 0.5283 0.0
Mg102 Mg 0.67377 0.52336 0.26542 0.0
C103 C 0.75762 0.45835 0.25046 0.0
O104 O 0.76412 0.55261 0.13305 0.0
O105 O 0.91004 0.59278 0.3622 0.0
O106 O 0.70232 0.53965 0.08732 0.0
O107 O 0.87254 0.62597 0.18468 0.0
O108 O 0.89271 0.54334 0.22773 0.0
O109 O 0.85259 0.58035 0.04046 0.0
O110 O 0.77603 0.53931 0.51796 0.0
O111 O 0.83801 0.58181 0.56788 0.0
C112 C 0.80245 0.55675 0.59701 0.0
C113 C 0.91748 0.56933 0.30016 0.0
O114 O 0.74599 0.47916 0.30754 0.0
O115 O 0.66438 0.54486 0.54476 0.0
O116 O 0.787 0.47344 0.17732 0.0
O117 O 0.6826 0.47025 0.49589 0.0
O118 O 0.63442 0.53826 0.36854 0.0
O119 O 0.65827 0.46585 0.30939 0.0
O120 O 0.8004 0.60942 0.36018 0.0
O121 O 0.75943 0.61096 0.49717 0.0
C122 C 0.86947 0.61634 0.07455 0.0
C123 C 0.73815 0.55014 0.05865 0.0
C124 C 0.38706 0.16041 0.40616 0.0
C125 C 0.47264 0.09715 0.47697 0.0
C126 C 0.56567 0.21914 0.39791 0.0
Mg127 Mg 0.40896 0.25405 0.36526 0.0
Mg128 Mg 0.4795 0.30542 0.16415 0.0
O129 O 0.4648 0.2775 0.30955 0.0
Mg130 Mg 0.46918 0.22894 0.32078 0.0
O131 O 0.46882 0.17728 0.34504 0.0
Mg132 Mg 0.47442 0.1829 0.52124 0.0
Mg133 Mg 0.49346 0.1548 0.25902 0.0
C134 C 0.55574 0.30346 0.24579 0.0
O135 O 0.46271 0.21485 0.12538 0.0
O136 O 0.41941 0.31861 0.35452 0.0
O137 O 0.47689 0.16674 0.08025 0.0
O138 O 0.38738 0.24741 0.17561 0.0
O139 O 0.46874 0.35133 0.22073 0.0
O140 O 0.43323 0.27389 0.03268 0.0
O141 O 0.47497 0.23993 0.51055 0.0
O142 O 0.43148 0.25812 0.56019 0.0
C143 C 0.45709 0.24835 0.58953 0.0
C144 C 0.4426 0.34971 0.2931 0.0
O145 O 0.53524 0.27077 0.30158 0.0
O146 O 0.4716 0.12407 0.53818 0.0
O147 O 0.54043 0.31767 0.17301 0.0
O148 O 0.54512 0.21715 0.49165 0.0
O149 O 0.47868 0.10055 0.36284 0.0
O150 O 0.55053 0.19753 0.30553 0.0
O151 O 0.40559 0.19324 0.35055 0.0
O152 O 0.40483 0.15081 0.48641 0.0
C153 C 0.39721 0.25401 0.06567 0.0
C154 C 0.46577 0.19162 0.05116 0.0
C155 C 0.8511 0.22565 0.41312 0.0
C156 C 0.91783 0.37685 0.47885 0.0
C157 C 0.79664 0.34993 0.39875 0.0
Mg158 Mg 0.75784 0.15688 0.36582 0.0
Mg159 Mg 0.70723 0.1775 0.16588 0.0
O160 O 0.73543 0.19031 0.31101 0.0
Mg161 Mg 0.78478 0.24262 0.32246 0.0
O162 O 0.83715 0.29317 0.34691 0.0
Mg163 Mg 0.83141 0.29345 0.52307 0.0
Mg164 Mg 0.85995 0.34031 0.26093 0.0
C165 C 0.71158 0.25693 0.24679 0.0
O166 O 0.79883 0.24992 0.127 0.0
O167 O 0.69312 0.10365 0.35449 0.0
O168 O 0.84754 0.31188 0.08199 0.0
O169 O 0.76373 0.14194 0.1755 0.0
O170 O 0.66072 0.12094 0.22143 0.0
O171 O 0.73806 0.16251 0.03328 0.0
O172 O 0.77374 0.23766 0.51204 0.0
O173 O 0.75435 0.17559 0.56109 0.0
C174 C 0.76479 0.21117 0.59074 0.0
C175 C 0.66212 0.09612 0.29318 0.0
O176 O 0.74415 0.26839 0.30264 0.0
O177 O 0.89093 0.34901 0.54027 0.0
O178 O 0.69663 0.22725 0.17442 0.0
O179 O 0.79836 0.33126 0.49263 0.0
O180 O 0.91424 0.37946 0.36478 0.0
O181 O 0.81801 0.35582 0.30637 0.0
O182 O 0.81927 0.2133 0.35316 0.0
O183 O 0.86171 0.25391 0.49113 0.0
C184 C 0.75731 0.14564 0.06571 0.0
C185 C 0.82223 0.27601 0.0528 0.0
C186 C 0.45571 0.96266 0.74743 0.0
C187 C 0.30486 0.88013 0.81186 0.0
C188 C 0.33034 0.78433 0.73258 0.0
Mg189 Mg 0.52372 0.93745 0.69999 0.0
Mg190 Mg 0.50259 0.8664 0.49862 0.0
O191 O 0.49013 0.88163 0.6447 0.0
Mg192 Mg 0.438 0.87894 0.65632 0.0
O193 O 0.38772 0.88122 0.68066 0.0
Mg194 Mg 0.38743 0.87554 0.85689 0.0
Mg195 Mg 0.34064 0.85755 0.5944 0.0
C196 C 0.42358 0.79127 0.58013 0.0
O197 O 0.43073 0.88572 0.46078 0.0
O198 O 0.57652 0.92549 0.68821 0.0
O199 O 0.36907 0.87324 0.41557 0.0
O200 O 0.53882 0.95857 0.51008 0.0
O201 O 0.55895 0.87602 0.55374 0.0
O202 O 0.51791 0.91259 0.36677 0.0
O203 O 0.44285 0.87287 0.84599 0.0
O204 O 0.50496 0.91519 0.89517 0.0
C205 C 0.46938 0.89025 0.92474 0.0
C206 C 0.5838 0.90198 0.62606 0.0
O207 O 0.41215 0.81236 0.63653 0.0
O208 O 0.33232 0.88045 0.87384 0.0
O209 O 0.45294 0.80604 0.50688 0.0
O210 O 0.34916 0.8047 0.82645 0.0
O211 O 0.30231 0.8739 0.69776 0.0
O212 O 0.32452 0.7999 0.64018 0.0
O213 O 0.46757 0.94279 0.68723 0.0
O214 O 0.42744 0.94532 0.82522 0.0
C215 C 0.53506 0.94868 0.40005 0.0
C216 C 0.40479 0.88335 0.38649 0.0
C217 C 0.05191 0.49613 0.74815 0.0
C218 C 0.13662 0.42984 0.81279 0.0
C219 C 0.2305 0.5513 0.73317 0.0
Mg220 Mg 0.076 0.58937 0.7018 0.0
Mg221 Mg 0.1468 0.63997 0.50115 0.0
O222 O 0.13178 0.61207 0.64673 0.0
Mg223 Mg 0.13511 0.56294 0.65791 0.0
O224 O 0.13354 0.51065 0.68188 0.0
Mg225 Mg 0.13942 0.51624 0.85799 0.0
Mg226 Mg 0.1577 0.48774 0.59543 0.0
C227 C 0.22229 0.63684 0.58222 0.0
O228 O 0.12846 0.54889 0.4623 0.0
O229 O 0.08736 0.65408 0.69108 0.0
O230 O 0.14159 0.50007 0.41683 0.0
O231 O 0.05498 0.5833 0.51184 0.0
O232 O 0.13673 0.6864 0.5572 0.0
O233 O 0.10087 0.60892 0.36889 0.0
O234 O 0.14108 0.57388 0.84758 0.0
O235 O 0.09827 0.59303 0.89688 0.0
C236 C 0.12348 0.58274 0.92638 0.0
C237 C 0.11073 0.68506 0.62961 0.0
O238 O 0.20151 0.60427 0.63859 0.0
O239 O 0.13569 0.45675 0.8745 0.0
O240 O 0.20724 0.65115 0.50891 0.0
O241 O 0.21019 0.54956 0.82725 0.0
O242 O 0.14269 0.43341 0.69869 0.0
O243 O 0.21503 0.52982 0.64082 0.0
O244 O 0.07133 0.52802 0.6884 0.0
O245 O 0.06959 0.48559 0.82602 0.0
C246 C 0.06486 0.5896 0.40191 0.0
C247 C 0.13109 0.52544 0.38792 0.0
C248 C 0.51652 0.55841 0.74779 0.0
C249 C 0.58255 0.70952 0.81241 0.0
C250 C 0.4614 0.6823 0.73118 0.0
Mg251 Mg 0.4234 0.48938 0.69962 0.0
Mg252 Mg 0.37306 0.50992 0.49826 0.0
O253 O 0.40094 0.52267 0.64396 0.0
Mg254 Mg 0.45007 0.57503 0.65581 0.0
O255 O 0.50226 0.6257 0.68041 0.0
Mg256 Mg 0.49631 0.62602 0.85645 0.0
Mg257 Mg 0.52491 0.6728 0.59417 0.0
C258 C 0.37666 0.58894 0.57959 0.0
O259 O 0.46424 0.58233 0.46042 0.0
O260 O 0.35873 0.4362 0.68769 0.0
O261 O 0.51271 0.64437 0.41529 0.0
O262 O 0.4295 0.47418 0.50989 0.0
O263 O 0.32656 0.45353 0.55385 0.0
O264 O 0.40385 0.49441 0.36663 0.0
O265 O 0.43882 0.5701 0.84534 0.0
O266 O 0.41965 0.5081 0.89454 0.0
C267 C 0.42996 0.54364 0.92412 0.0
C268 C 0.32785 0.42874 0.62591 0.0
O269 O 0.40923 0.60053 0.63562 0.0
O270 O 0.55563 0.68166 0.87369 0.0
O271 O 0.36203 0.55942 0.50661 0.0
O272 O 0.4631 0.66367 0.82522 0.0
O273 O 0.57908 0.71208 0.69826 0.0
O274 O 0.48282 0.68817 0.63894 0.0
O275 O 0.48479 0.54595 0.6872 0.0
O276 O 0.52689 0.58666 0.82568 0.0
C277 C 0.42307 0.47758 0.3999 0.0
C278 C 0.48755 0.60845 0.38617 0.0
C279 C 0.32309 0.27703 0.96034 0.0
C280 C 0.28969 0.23923 0.96216 0.0
H281 H 0.38569 0.31113 -0.01995 0.0
C282 C 0.29452 0.20601 0.96355 0.0
H283 H 0.32005 0.30304 0.95541 0.0
C284 C 0.33206 0.21064 0.97751 0.0
C285 C 0.36523 0.24853 -0.01366 0.0
H286 H 0.26912 0.17652 0.96239 0.0
H287 H 0.33475 0.18477 -0.00678 0.0
C288 C 0.36068 0.28161 0.97013 0.0
C289 C 0.80002 0.12363 0.97509 0.0
C290 C 0.76225 0.11899 -0.0144 0.0
H291 H 0.83401 0.09465 0.9604 0.0
C292 C 0.72911 0.0813 0.97162 0.0
H293 H 0.82593 0.15227 -0.01117 0.0
C294 C 0.73361 0.04819 0.96304 0.0
C295 C 0.77138 0.05257 0.96381 0.0
H296 H 0.69969 0.07693 -0.0173 0.0
H297 H 0.70761 0.01913 0.95998 0.0
C298 C 0.80456 0.09061 0.96253 0.0
C299 C 0.96793 0.69063 -0.01958 0.0
C300 C 0.96333 0.7239 0.97705 0.0
H301 H 0.93935 0.62801 0.00202 0.0
C302 C 0.9252 0.7188 0.97212 0.0
H303 H 0.99705 0.69382 -0.01972 0.0
C304 C 0.89226 0.6812 -0.01617 0.0
C305 C 0.897 0.64819 -0.00298 0.0
H306 H 0.92097 0.74408 0.96684 0.0
H307 H 0.86347 0.67837 -0.00593 0.0
C308 C 0.93491 0.65294 -0.01174 0.0
C309 C 0.81718 0.70828 0.18126 0.0
C310 C 0.79655 0.7272 0.21674 0.0
H311 H 0.8326 0.66449 0.22043 0.0
C312 C 0.7756 0.71589 0.32637 0.0
H313 H 0.8344 0.71694 0.09939 0.0
C314 C 0.77419 0.6854 0.39666 0.0
C315 C 0.79443 0.66597 0.36042 0.0
H316 H 0.75976 0.73035 0.35722 0.0
H317 H 0.75651 0.67646 0.47759 0.0
C318 C 0.81657 0.67854 0.25264 0.0
C319 C 0.29903 0.06112 0.31649 0.0
C320 C 0.29294 0.06796 0.19574 0.0
H321 H 0.33307 0.08454 0.47828 0.0
C322 C 0.31769 0.10516 0.14628 0.0
H323 H 0.28005 0.03271 0.35766 0.0
C324 C 0.34698 0.13513 0.21667 0.0
C325 C 0.35299 0.12864 0.33828 0.0
H326 H 0.31334 0.11163 0.05481 0.0
H327 H 0.36525 0.16347 0.17428 0.0
C328 C 0.32899 0.09091 0.38646 0.0
C329 C 0.94983 0.23698 0.3194 0.0
C330 C 0.93978 0.21515 0.21119 0.0
H331 H 0.9301 0.25726 0.46933 0.0
C332 C 0.90011 0.19408 0.17736 0.0
H333 H 0.98022 0.25314 0.34903 0.0
C334 C 0.87128 0.19518 0.24882 0.0
C335 C 0.88127 0.21827 0.35491 0.0
H336 H 0.89127 0.17614 0.09677 0.0
H337 H 0.84109 0.17878 0.21799 0.0
C338 C 0.92103 0.23887 0.38971 0.0
C339 C 0.99036 0.61237 0.30196 0.0
C340 C 0.95722 0.5744 0.30305 0.0
H341 H 0.05297 0.64685 0.32026 0.0
C342 C 0.96243 0.54141 0.30083 0.0
H343 H 0.98701 0.63823 0.2994 0.0
C344 C 1.00015 0.54636 0.31212 0.0
C345 C 0.03306 0.58433 0.3224 0.0
H346 H 0.93722 0.51181 0.29873 0.0
H347 H 1.0032 0.5206 0.32504 0.0
C348 C 0.02811 0.61728 0.30934 0.0
C349 C 0.39497 0.41283 0.30815 0.0
C350 C 0.42801 0.45068 0.32077 0.0
H351 H 0.37381 0.3507 0.29653 0.0
C352 C 0.46583 0.45553 0.30938 0.0
H353 H 0.36552 0.40828 0.3202 0.0
C354 C 0.47058 0.42264 0.29628 0.0
C355 C 0.43756 0.38447 0.29808 0.0
H356 H 0.49168 0.48427 0.32239 0.0
H357 H 0.5001 0.4269 0.29301 0.0
C358 C 0.3997 0.37985 0.29901 0.0
C359 C 0.55656 0.01335 0.30913 0.0
C360 C 0.56161 0.98044 0.32036 0.0
H361 H 0.58488 0.07628 0.29295 0.0
C362 C 0.59942 0.98535 0.30685 0.0
H363 H 0.52782 0.01036 0.32253 0.0
C364 C 0.63222 0.02311 0.29741 0.0
C365 C 0.62744 0.05631 0.29709 0.0
H366 H 0.60414 0.96051 0.3186 0.0
H367 H 0.66138 0.02644 0.2945 0.0
C368 C 0.58926 0.05106 0.29579 0.0
C369 C 0.44558 0.05063 0.65198 0.0
C370 C 0.46823 0.0626 0.54556 0.0
H371 H 0.42403 0.01022 0.80062 0.0
C372 C 0.48962 0.04411 0.51414 0.0
H373 H 0.42916 0.06481 0.67975 0.0
C374 C 0.48792 0.01397 0.58607 0.0
C375 C 0.46391 1.00058 0.69005 0.0
H376 H 0.50822 0.05343 0.43513 0.0
H377 H 0.50456 1.00022 0.55716 0.0
C378 C 0.44311 0.01976 0.72268 0.0
C379 C 0.99503 0.42613 0.72512 0.0
C380 C 0.0143 0.46592 0.69016 0.0
H381 H 0.9499 0.36689 0.68483 0.0
C382 C 1.00116 0.47587 0.58423 0.0
H383 H 1.00438 0.41709 0.80463 0.0
C384 C 0.97108 0.44699 0.51307 0.0
C385 C 0.95238 0.40731 0.54704 0.0
H386 H 0.01502 0.50606 0.55327 0.0
H387 H 0.96197 0.45581 0.43259 0.0
C388 C 0.9642 0.39729 0.65511 0.0
C389 C 0.58638 0.57103 0.7283 0.0
C390 C 0.54687 0.55106 0.69075 0.0
H391 H 0.64565 0.58483 0.69123 0.0
C392 C 0.53743 0.52858 0.5835 0.0
H393 H 0.59503 0.58894 0.80892 0.0
C394 C 0.56657 0.52748 0.51363 0.0
C395 C 0.60599 0.54793 0.55022 0.0
H396 H 0.50747 0.5127 0.55045 0.0
H397 H 0.55812 0.51008 0.43197 0.0
C398 C 0.61547 0.56912 0.65956 0.0
C399 C 0.65668 0.94468 0.62819 0.0
C400 C 0.62341 0.9068 0.62958 0.0
H401 H 0.71922 0.97895 0.64856 0.0
C402 C 0.62838 0.87367 0.6298 0.0
H403 H 0.65351 0.97062 0.62395 0.0
C404 C 0.66595 0.87845 0.64347 0.0
C405 C 0.69894 0.91637 0.65361 0.0
H406 H 0.60305 0.84413 0.62812 0.0
H407 H 0.66876 0.85263 0.65837 0.0
C408 C 0.6943 0.9494 0.63787 0.0
C409 C 0.06805 0.71535 0.63614 0.0
C410 C 0.10588 0.7199 0.63453 0.0
H411 H 0.03399 0.74383 0.65881 0.0
C412 C 0.13896 0.75802 0.63283 0.0
H413 H 0.04211 0.68623 0.63362 0.0
C414 C 0.1343 0.79093 0.64685 0.0
C415 C 0.09652 0.78611 0.65909 0.0
H416 H 0.16844 0.7622 0.62901 0.0
H417 H 0.16018 0.81965 0.65961 0.0
C418 C 0.06341 0.74834 0.64624 0.0
C419 C 0.22231 0.34622 0.64195 0.0
C420 C 0.2273 0.31324 0.65168 0.0
H421 H 0.25076 0.40919 0.62757 0.0
C422 C 0.26503 0.31804 0.63673 0.0
H423 H 0.19364 0.34328 0.6564 0.0
C424 C 0.29786 0.35577 0.62784 0.0
C425 C 0.29316 0.38901 0.62938 0.0
H426 H 0.26968 0.29311 0.64717 0.0
H427 H 0.32699 0.35904 0.62394 0.0
C428 C 0.25505 0.3839 0.62913 0.0
C429 C 0.10886 0.35253 0.05833 0.0
C430 C 0.1291 0.33306 0.02247 0.0
H431 H 0.095 0.39791 0.0193 0.0
C432 C 0.15205 0.34618 0.91634 0.0
H433 H 0.09059 0.34321 0.13805 0.0
C434 C 0.15332 0.37639 0.84578 0.0
C435 C 0.13257 0.39526 0.88059 0.0
H436 H 0.16818 0.33217 0.88471 0.0
H437 H 0.17111 0.38545 0.76504 0.0
C438 C 0.11093 0.38349 -0.01106 0.0
C439 C 0.6591 0.75893 0.06013 0.0
C440 C 0.67875 0.79862 0.0242 0.0
H441 H 0.61377 0.69974 0.02045 0.0
C442 C 0.66607 0.80848 0.91716 0.0
H443 H 0.6681 0.74996 0.14054 0.0
C444 C 0.63605 0.77958 0.84593 0.0
C445 C 0.61698 0.73999 0.88087 0.0
H446 H 0.68025 0.8386 0.88541 0.0
H447 H 0.62729 0.78832 0.76456 0.0
C448 C 0.62836 0.73008 -0.01002 0.0
C449 C 0.23545 0.86594 0.84164 0.0
C450 C 0.27476 0.8851 0.87914 0.0
H451 H 0.17687 0.85298 0.87733 0.0
C452 C 0.28459 0.90614 -0.0111 0.0
H453 H 0.22672 0.8488 0.75947 0.0
C454 C 0.25594 0.90896 0.05745 0.0
C455 C 0.2165 0.89002 0.01937 0.0
H456 H 0.31471 0.92094 0.0212 0.0
H457 H 0.26485 0.92658 0.13867 0.0
C458 C 0.20674 0.86793 0.91123 0.0
C459 C 0.07653 0.02432 0.91979 0.0
C460 C 0.09354 0.02639 0.03365 0.0
H461 H 0.06202 0.05489 0.78798 0.0
C462 C 0.09562 0.0543 0.11659 0.0
H463 H 0.074 1.00286 0.85368 0.0
C464 C 0.08728 0.08359 0.07894 0.0
C465 C 0.07767 0.0855 0.95782 0.0
H466 H 0.10849 0.05673 0.20452 0.0
H467 H 0.09374 0.1077 0.13989 0.0
C468 C 0.06957 0.05415 0.88122 0.0
C469 C 0.98414 0.06019 0.93359 0.0
C470 C 0.98144 0.07356 0.04926 0.0
H471 H 0.95601 0.01534 0.79954 0.0
C472 C 0.95448 0.04623 0.131 0.0
H473 H 1.00454 0.08063 0.86802 0.0
C474 C 0.92692 0.00806 0.09134 0.0
C475 C 0.92569 0.99742 0.96937 0.0
H476 H 0.95139 0.05564 0.21987 0.0
H477 H 0.90332 0.98901 0.15171 0.0
C478 C 0.95629 0.0227 0.89352 0.0
C479 C 0.94941 0.9265 0.93753 0.0
C480 C 0.93678 0.91048 0.05357 0.0
H481 H 0.99294 0.94206 0.80002 0.0
C482 C 0.96439 0.91032 0.13298 0.0
H483 H 0.92869 0.92686 0.87383 0.0
C484 C 1.00199 0.92025 0.09052 0.0
C485 C 0.01168 0.92938 0.96802 0.0
H486 H 0.9555 0.89784 0.222 0.0
H487 H 0.0213 0.9155 0.14925 0.0
C488 C 0.98619 0.93508 0.89429 0.0
C489 C 0.75231 0.36137 0.26955 0.0
C490 C 0.76853 0.36456 0.38522 0.0
H491 H 0.73566 0.38919 0.13436 0.0
C492 C 0.76821 0.3918 0.46617 0.0
H493 H 0.75226 0.34071 0.20466 0.0
C494 C 0.75757 0.41922 0.42562 0.0
C495 C 0.74814 0.42006 0.30348 0.0
H496 H 0.78081 0.39524 0.55501 0.0
H497 H 0.76212 0.44301 0.48541 0.0
C498 C 0.74278 0.3892 0.22843 0.0
C499 C 0.62177 0.37972 0.46552 0.0
C500 C 0.64952 0.40743 0.38637 0.0
H501 H 0.57015 0.32266 0.48134 0.0
C502 C 0.65302 0.39479 0.27034 0.0
H503 H 0.61809 0.38858 0.55456 0.0
C504 C 0.62495 0.35786 0.22687 0.0
C505 C 0.59373 0.33228 0.30027 0.0
H506 H 0.67411 0.41557 0.20684 0.0
H507 H 0.62525 0.35113 0.13257 0.0
C508 C 0.59422 0.34201 0.42281 0.0
C509 C 0.63574 0.24755 0.4649 0.0
C510 C 0.60823 0.24766 0.38491 0.0
H511 H 0.69263 0.25278 0.48218 0.0
C512 C 0.62115 0.26412 0.26953 0.0
H513 H 0.62664 0.23479 0.55353 0.0
C514 C 0.65816 0.27305 0.22714 0.0
C515 C 0.68345 0.26706 0.30101 0.0
H516 H 0.60053 0.26448 0.20542 0.0
H517 H 0.66507 0.28016 0.13302 0.0
C518 C 0.6735 0.25774 0.42329 0.0
C519 C 0.40802 0.7218 0.55986 0.0
C520 C 0.41385 0.75301 0.63408 0.0
H521 H 0.41668 0.67274 0.53753 0.0
C522 C 0.42332 0.75236 0.75627 0.0
H523 H 0.40085 0.72163 0.46577 0.0
C524 C 0.43355 0.72472 0.79762 0.0
C525 C 0.4334 0.69705 0.71746 0.0
H526 H 0.42822 0.77642 0.81541 0.0
H527 H 0.44625 0.72829 0.88637 0.0
C528 C 0.41706 0.69371 0.60188 0.0
C529 C 0.29137 0.69116 0.56183 0.0
C530 C 0.26039 0.66567 0.63617 0.0
H531 H 0.33989 0.74909 0.53903 0.0
C532 C 0.26095 0.67597 0.75819 0.0
H533 H 0.29159 0.68403 0.46786 0.0
C534 C 0.28825 0.71403 0.7992 0.0
C535 C 0.31566 0.74156 0.71887 0.0
H536 H 0.23704 0.65674 0.81738 0.0
H537 H 0.28461 0.7232 0.88783 0.0
C538 C 0.3191 0.7285 0.60347 0.0
C539 C 0.32289 0.60467 0.56091 0.0
C540 C 0.34825 0.59863 0.63429 0.0
H541 H 0.26535 0.5964 0.54018 0.0
C542 C 0.33837 0.58918 0.75657 0.0
H543 H 0.32973 0.61185 0.46679 0.0
C544 C 0.30069 0.57911 0.79878 0.0
C545 C 0.27316 0.57946 0.71942 0.0
H546 H 0.35755 0.58415 0.81506 0.0
H547 H 0.29169 0.56634 0.88744 0.0
C548 C 0.28598 0.59589 0.60391 0.0
C549 C 0.06621 0.18758 0.51783 0.0
C550 C 0.08297 0.22084 0.59191 0.0
H551 H 0.0715 0.16145 0.35584 0.0
C552 C 0.11834 0.25445 0.55786 0.0
H553 H 0.03978 0.16088 0.54499 0.0
C554 C 0.13716 0.25464 0.45121 0.0
C555 C 0.12072 0.22106 0.37771 0.0
H556 H 0.13197 0.28003 0.61614 0.0
H557 H 0.16397 0.28115 0.42535 0.0
C558 C 0.08504 0.18761 0.41189 0.0
C559 C 0.7562 0.88439 0.45602 0.0
C560 C 0.78986 0.90238 0.38337 0.0
H561 H 0.73112 0.85326 0.62027 0.0
C562 C 0.8238 0.90116 0.41828 0.0
H563 H 0.72935 0.88388 0.42948 0.0
C564 C 0.82423 0.88252 0.52412 0.0
C565 C 0.79087 0.86511 0.59729 0.0
H566 H 0.85003 0.91443 0.36279 0.0
H567 H 0.85125 0.88355 0.55186 0.0
C568 C 0.75679 0.86589 0.56258 0.0
C569 C 0.13771 0.95264 0.52325 0.0
C570 C 0.15111 0.93389 0.60105 0.0
H571 H 0.10916 0.94961 0.3573 0.0
C572 C 0.14784 0.89774 0.5674 0.0
H573 H 0.13864 0.97977 0.54956 0.0
C574 C 0.13017 0.87983 0.45863 0.0
C575 C 0.11555 0.89798 0.38213 0.0
H576 H 0.15747 0.88261 0.62806 0.0
H577 H 0.12819 0.85208 0.43435 0.0
C578 C 0.11988 0.93474 0.41507 0.0
C579 C 0.75185 0.5218 0.75275 0.0
C580 C 0.7878 0.55502 0.71921 0.0
H581 H 0.70645 0.4953 0.88541 0.0
C582 C 0.80472 0.58839 0.79359 0.0
H583 H 0.738 0.49578 0.69613 0.0
C584 C 0.78606 0.58822 0.90046 0.0
C585 C 0.75037 0.55486 0.93372 0.0
H586 H 0.8318 0.6147 0.76833 0.0
H587 H 0.80004 0.61362 0.95946 0.0
C588 C 0.73315 0.52183 0.8588 0.0
C589 C 0.49375 0.21565 0.85155 0.0
C590 C 0.46071 0.19882 0.92608 0.0
H591 H 0.51916 0.24707 0.68932 0.0
C592 C 0.42669 0.19991 0.89249 0.0
H593 H 0.52074 0.21644 0.87839 0.0
C594 C 0.42589 0.21818 0.78574 0.0
C595 C 0.45925 0.23564 0.71177 0.0
H596 H 0.40125 0.18774 0.95114 0.0
H597 H 0.3991 0.21798 0.76024 0.0
C598 C 0.49312 0.23413 0.74562 0.0
C599 C 0.79474 0.20953 0.78682 0.0
C600 C 0.7776 0.22586 0.71315 0.0
H601 H 0.82514 0.21488 0.95213 0.0
C602 C 0.7796 0.26149 0.74737 0.0
H603 H 0.79459 0.18275 0.76096 0.0
C604 C 0.79824 0.28042 0.85344 0.0
C605 C 0.81477 0.26379 0.92767 0.0
H606 H 0.76693 0.27493 0.69122 0.0
H607 H 0.79783 0.30682 0.88058 0.0
C608 C 0.81319 0.22843 0.89368 0.0
C609 C 0.40035 0.85473 0.1873 0.0
C610 C 0.41696 0.88798 0.26139 0.0
H611 H 0.40579 0.82874 0.02524 0.0
C612 C 0.45224 0.9217 0.22741 0.0
H613 H 0.37399 0.82795 0.21445 0.0
C614 C 0.47111 0.92203 0.12069 0.0
C615 C 0.45479 0.88847 0.04714 0.0
H616 H 0.46578 0.94727 0.28577 0.0
H617 H 0.49783 0.94863 0.09481 0.0
C618 C 0.41922 0.85489 0.08134 0.0
C619 C 0.09249 0.53429 0.22899 0.0
C620 C 0.1263 0.53286 0.26289 0.0
H621 H 0.06532 0.55274 0.09646 0.0
C622 C 0.15944 0.54951 0.18873 0.0
H623 H 0.067 0.52223 0.28741 0.0
C624 C 0.15909 0.56813 0.08279 0.0
C625 C 0.12542 0.56997 0.04867 0.0
H626 H 0.18627 0.55004 0.21584 0.0
H627 H 0.18517 0.58089 0.02668 0.0
C628 C 0.09197 0.55271 0.12228 0.0
C629 C 0.4783 0.56077 0.22713 0.0
C630 C 0.48007 0.59622 0.26103 0.0
H631 H 0.45953 0.51505 0.09453 0.0
C632 C 0.46369 0.61298 0.18667 0.0
H633 H 0.49013 0.54711 0.28565 0.0
C634 C 0.44501 0.59408 0.08061 0.0
C635 C 0.44283 0.55836 0.04648 0.0
H636 H 0.46342 0.63946 0.21374 0.0
H637 H 0.43245 0.60761 0.02441 0.0
C638 C 0.45982 0.5419 0.12028 0.0
loop_
_geom_bond_atom_site_label_1
_geom_bond_atom_site_label_2
_geom_bond_distance
_geom_bond_site_symmetry_2
_ccdc_geom_bond_type
C0 O27 1.312 . S
C0 O28 1.208 . S
C1 O22 1.331 1_556 S
C1 O25 1.244 . S
C2 O24 1.264 . S
C2 O26 1.273 . S
Mg3 O5 1.936 . S
Mg3 O12 2.081 . S
Mg3 O14 2.023 1_554 S
Mg3 O18 2.031 . S
Mg3 O27 2.291 . S
Mg4 O5 1.963 1_556 S
Mg4 O15 1.942 1_556 S
Mg4 O16 1.955 . S
Mg4 O23 1.986 . S
O5 Mg3 1.936 . S
O5 Mg4 1.963 1_554 S
O5 Mg6 1.915 1_554 S
Mg6 O5 1.915 1_556 S
Mg6 O7 1.915 . S
Mg6 O11 2.013 . S
Mg6 O17 2.114 1_556 S
Mg6 O21 2.013 . S
Mg6 O27 2.114 1_556 S
O7 Mg6 1.915 . S
O7 Mg8 1.936 1_556 S
O7 Mg9 1.963 . S
Mg8 O7 1.936 1_554 S
Mg8 O17 2.291 . S
Mg8 O22 2.081 1_455 S
Mg8 O24 2.023 1_455 S
Mg8 O28 2.031 . S
Mg9 O7 1.963 . S
Mg9 O13 1.986 . S
Mg9 O25 1.942 1_455 S
Mg9 O26 1.955 1_456 S
C10 O21 1.191 . S
C10 O23 1.307 . S
O11 Mg6 2.013 . S
O11 C30 1.191 . S
O12 Mg3 2.081 . S
O12 C20 1.331 . S
O13 Mg9 1.986 . S
O13 C30 1.307 . S
O14 Mg3 2.023 1_556 S
O14 C29 1.264 . S
O15 Mg4 1.942 1_554 S
O15 C20 1.244 . S
O16 Mg4 1.955 . S
O16 C29 1.273 . S
O17 Mg6 2.114 1_554 S
O17 Mg8 2.291 . S
O17 C19 1.312 . S
O18 Mg3 2.031 . S
O18 C19 1.208 . S
C19 O17 1.312 . S
C19 O18 1.208 . S
C20 O12 1.331 . S
C20 O15 1.244 . S
O21 Mg6 2.013 . S
O21 C10 1.191 . S
O22 C1 1.331 1_554 S
O22 Mg8 2.081 1_655 S
O23 Mg4 1.986 . S
O23 C10 1.307 . S
O24 C2 1.264 . S
O24 Mg8 2.023 1_655 S
O25 C1 1.244 . S
O25 Mg9 1.942 1_655 S
O26 C2 1.273 . S
O26 Mg9 1.955 1_654 S
O27 C0 1.312 . S
O27 Mg3 2.291 . S
O27 Mg6 2.114 1_554 S
O28 C0 1.208 . S
O28 Mg8 2.031 . S
C29 O14 1.264 . S
C29 O16 1.273 . S
C30 O11 1.191 . S
C30 O13 1.307 . S
C31 O58 1.312 . S
C31 O59 1.208 . S
C32 O53 1.331 1_556 S
C32 O56 1.244 . S
C33 O55 1.264 . S
C33 O57 1.273 . S
Mg34 O36 1.936 . S
Mg34 O43 2.081 . S
Mg34 O45 2.023 1_554 S
Mg34 O49 2.031 . S
Mg34 O58 2.291 . S
Mg35 O36 1.963 1_556 S
Mg35 O46 1.942 1_556 S
Mg35 O47 1.955 . S
Mg35 O54 1.986 . S
O36 Mg34 1.936 . S
O36 Mg35 1.963 1_554 S
O36 Mg37 1.915 1_554 S
Mg37 O36 1.915 1_556 S
Mg37 O38 1.915 . S
Mg37 O42 2.013 . S
Mg37 O48 2.114 1_556 S
Mg37 O52 2.013 . S
Mg37 O58 2.114 1_556 S
O38 Mg37 1.915 . S
O38 Mg39 1.936 1_556 S
O38 Mg40 1.963 . S
Mg39 O38 1.936 1_554 S
Mg39 O48 2.291 . S
Mg39 O53 2.081 . S
Mg39 O55 2.023 . S
Mg39 O59 2.031 . S
Mg40 O38 1.963 . S
Mg40 O44 1.986 . S
Mg40 O56 1.942 . S
Mg40 O57 1.955 1_556 S
C41 O52 1.191 . S
C41 O54 1.307 . S
O42 Mg37 2.013 . S
O42 C61 1.191 . S
O43 Mg34 2.081 . S
O43 C51 1.331 . S
O44 Mg40 1.986 . S
O44 C61 1.307 . S
O45 Mg34 2.023 1_556 S
O45 C60 1.264 . S
O46 Mg35 1.942 1_554 S
O46 C51 1.244 . S
O47 Mg35 1.955 . S
O47 C60 1.273 . S
O48 Mg37 2.114 1_554 S
O48 Mg39 2.291 . S
O48 C50 1.312 . S
O49 Mg34 2.031 . S
O49 C50 1.208 . S
C50 O48 1.312 . S
C50 O49 1.208 . S
C51 O43 1.331 . S
C51 O46 1.244 . S
O52 Mg37 2.013 . S
O52 C41 1.191 . S
O53 C32 1.331 1_554 S
O53 Mg39 2.081 . S
O54 Mg35 1.986 . S
O54 C41 1.307 . S
O55 C33 1.264 . S
O55 Mg39 2.023 . S
O56 C32 1.244 . S
O56 Mg40 1.942 . S
O57 C33 1.273 . S
O57 Mg40 1.955 1_554 S
O58 C31 1.312 . S
O58 Mg34 2.291 . S
O58 Mg37 2.114 1_554 S
O59 C31 1.208 . S
O59 Mg39 2.031 . S
C60 O45 1.264 . S
C60 O47 1.273 . S
C61 O42 1.191 . S
C61 O44 1.307 . S
C62 O89 1.312 . S
C62 O90 1.208 . S
C63 O84 1.331 1_556 S
C63 O87 1.244 . S
C64 O86 1.264 . S
C64 O88 1.273 . S
Mg65 O67 1.936 . S
Mg65 O74 2.081 . S
Mg65 O76 2.023 1_554 S
Mg65 O80 2.031 . S
Mg65 O89 2.291 . S
Mg66 O67 1.963 1_556 S
Mg66 O77 1.942 1_556 S
Mg66 O78 1.955 . S
Mg66 O85 1.986 . S
O67 Mg65 1.936 . S
O67 Mg66 1.963 1_554 S
O67 Mg68 1.915 1_554 S
Mg68 O67 1.915 1_556 S
Mg68 O69 1.915 . S
Mg68 O73 2.013 . S
Mg68 O79 2.114 1_556 S
Mg68 O83 2.013 . S
Mg68 O89 2.114 1_556 S
O69 Mg68 1.915 . S
O69 Mg70 1.936 1_556 S
O69 Mg71 1.963 . S
Mg70 O69 1.936 1_554 S
Mg70 O79 2.291 . S
Mg70 O84 2.081 1_565 S
Mg70 O86 2.023 1_565 S
Mg70 O90 2.031 . S
Mg71 O69 1.963 . S
Mg71 O75 1.986 . S
Mg71 O87 1.942 1_565 S
Mg71 O88 1.955 1_566 S
C72 O83 1.191 . S
C72 O85 1.307 . S
O73 Mg68 2.013 . S
O73 C92 1.191 . S
O74 Mg65 2.081 . S
O74 C82 1.331 . S
O75 Mg71 1.986 . S
O75 C92 1.307 . S
O76 Mg65 2.023 1_556 S
O76 C91 1.264 . S
O77 Mg66 1.942 1_554 S
O77 C82 1.244 . S
O78 Mg66 1.955 . S
O78 C91 1.273 . S
O79 Mg68 2.114 1_554 S
O79 Mg70 2.291 . S
O79 C81 1.312 . S
O80 Mg65 2.031 . S
O80 C81 1.208 . S
C81 O79 1.312 . S
C81 O80 1.208 . S
C82 O74 1.331 . S
C82 O77 1.244 . S
O83 Mg68 2.013 . S
O83 C72 1.191 . S
O84 C63 1.331 1_554 S
O84 Mg70 2.081 1_545 S
O85 Mg66 1.986 . S
O85 C72 1.307 . S
O86 C64 1.264 . S
O86 Mg70 2.023 1_545 S
O87 C63 1.244 . S
O87 Mg71 1.942 1_545 S
O88 C64 1.273 . S
O88 Mg71 1.955 1_544 S
O89 C62 1.312 . S
O89 Mg65 2.291 . S
O89 Mg68 2.114 1_554 S
O90 C62 1.208 . S
O90 Mg70 2.031 . S
C91 O76 1.264 . S
C91 O78 1.273 . S
C92 O73 1.191 . S
C92 O75 1.307 . S
C93 O120 1.312 . S
C93 O121 1.208 . S
C94 O115 1.331 . S
C94 O118 1.244 . S
C95 O117 1.264 . S
C95 O119 1.273 . S
Mg96 O98 1.936 . S
Mg96 O105 2.081 . S
Mg96 O107 2.023 . S
Mg96 O111 2.031 . S
Mg96 O120 2.291 . S
Mg97 O98 1.963 . S
Mg97 O108 1.942 . S
Mg97 O109 1.955 . S
Mg97 O116 1.986 . S
O98 Mg96 1.936 . S
O98 Mg97 1.963 . S
O98 Mg99 1.915 . S
Mg99 O98 1.915 . S
Mg99 O100 1.915 . S
Mg99 O104 2.013 . S
Mg99 O110 2.114 . S
Mg99 O114 2.013 . S
Mg99 O120 2.114 . S
O100 Mg99 1.915 . S
O100 Mg101 1.936 . S
O100 Mg102 1.963 . S
Mg101 O100 1.936 . S
Mg101 O110 2.291 . S
Mg101 O115 2.081 . S
Mg101 O117 2.023 . S
Mg101 O121 2.031 . S
Mg102 O100 1.963 . S
Mg102 O106 1.986 . S
Mg102 O118 1.942 . S
Mg102 O119 1.955 . S
C103 O114 1.191 . S
C103 O116 1.307 . S
O104 Mg99 2.013 . S
O104 C123 1.191 . S
O105 Mg96 2.081 . S
O105 C113 1.331 . S
O106 Mg102 1.986 . S
O106 C123 1.307 . S
O107 Mg96 2.023 . S
O107 C122 1.264 . S
O108 Mg97 1.942 . S
O108 C113 1.244 . S
O109 Mg97 1.955 . S
O109 C122 1.273 . S
O110 Mg99 2.114 . S
O110 Mg101 2.291 . S
O110 C112 1.312 . S
O111 Mg96 2.031 . S
O111 C112 1.208 . S
C112 O110 1.312 . S
C112 O111 1.208 . S
C113 O105 1.331 . S
C113 O108 1.244 . S
O114 Mg99 2.013 . S
O114 C103 1.191 . S
O115 C94 1.331 . S
O115 Mg101 2.081 . S
O116 Mg97 1.986 . S
O116 C103 1.307 . S
O117 C95 1.264 . S
O117 Mg101 2.023 . S
O118 C94 1.244 . S
O118 Mg102 1.942 . S
O119 C95 1.273 . S
O119 Mg102 1.955 . S
O120 C93 1.312 . S
O120 Mg96 2.291 . S
O120 Mg99 2.114 . S
O121 C93 1.208 . S
O121 Mg101 2.031 . S
C122 O107 1.264 . S
C122 O109 1.273 . S
C123 O104 1.191 . S
C123 O106 1.307 . S
C124 O151 1.312 . S
C124 O152 1.208 . S
C125 O146 1.331 . S
C125 O149 1.244 . S
C126 O148 1.264 . S
C126 O150 1.273 . S
Mg127 O129 1.936 . S
Mg127 O136 2.081 . S
Mg127 O138 2.023 . S
Mg127 O142 2.031 . S
Mg127 O151 2.291 . S
Mg128 O129 1.963 . S
Mg128 O139 1.942 . S
Mg128 O140 1.955 . S
Mg128 O147 1.986 . S
O129 Mg127 1.936 . S
O129 Mg128 1.963 . S
O129 Mg130 1.915 . S
Mg130 O129 1.915 . S
Mg130 O131 1.915 . S
Mg130 O135 2.013 . S
Mg130 O141 2.114 . S
Mg130 O145 2.013 . S
Mg130 O151 2.114 . S
O131 Mg130 1.915 . S
O131 Mg132 1.936 . S
O131 Mg133 1.963 . S
Mg132 O131 1.936 . S
Mg132 O141 2.291 . S
Mg132 O146 2.081 . S
Mg132 O148 2.023 . S
Mg132 O152 2.031 . S
Mg133 O131 1.963 . S
Mg133 O137 1.986 . S
Mg133 O149 1.942 . S
Mg133 O150 1.955 . S
C134 O145 1.191 . S
C134 O147 1.307 . S
O135 Mg130 2.013 . S
O135 C154 1.191 . S
O136 Mg127 2.081 . S
O136 C144 1.331 . S
O137 Mg133 1.986 . S
O137 C154 1.307 . S
O138 Mg127 2.023 . S
O138 C153 1.264 . S
O139 Mg128 1.942 . S
O139 C144 1.244 . S
O140 Mg128 1.955 . S
O140 C153 1.273 . S
O141 Mg130 2.114 . S
O141 Mg132 2.291 . S
O141 C143 1.312 . S
O142 Mg127 2.031 . S
O142 C143 1.208 . S
C143 O141 1.312 . S
C143 O142 1.208 . S
C144 O136 1.331 . S
C144 O139 1.244 . S
O145 Mg130 2.013 . S
O145 C134 1.191 . S
O146 C125 1.331 . S
O146 Mg132 2.081 . S
O147 Mg128 1.986 . S
O147 C134 1.307 . S
O148 C126 1.264 . S
O148 Mg132 2.023 . S
O149 C125 1.244 . S
O149 Mg133 1.942 . S
O150 C126 1.273 . S
O150 Mg133 1.955 . S
O151 C124 1.312 . S
O151 Mg127 2.291 . S
O151 Mg130 2.114 . S
O152 C124 1.208 . S
O152 Mg132 2.031 . S
C153 O138 1.264 . S
C153 O140 1.273 . S
C154 O135 1.191 . S
C154 O137 1.307 . S
C155 O182 1.312 . S
C155 O183 1.208 . S
C156 O177 1.331 . S
C156 O180 1.244 . S
C157 O179 1.264 . S
C157 O181 1.273 . S
Mg158 O160 1.936 . S
Mg158 O167 2.081 . S
Mg158 O169 2.023 . S
Mg158 O173 2.031 . S
Mg158 O182 2.291 . S
Mg159 O160 1.963 . S
Mg159 O170 1.942 . S
Mg159 O171 1.955 . S
Mg159 O178 1.986 . S
O160 Mg158 1.936 . S
O160 Mg159 1.963 . S
O160 Mg161 1.915 . S
Mg161 O160 1.915 . S
Mg161 O162 1.915 . S
Mg161 O166 2.013 . S
Mg161 O172 2.114 . S
Mg161 O176 2.013 . S
Mg161 O182 2.114 . S
O162 Mg161 1.915 . S
O162 Mg163 1.936 . S
O162 Mg164 1.963 . S
Mg163 O162 1.936 . S
Mg163 O172 2.291 . S
Mg163 O177 2.081 . S
Mg163 O179 2.023 . S
Mg163 O183 2.031 . S
Mg164 O162 1.963 . S
Mg164 O168 1.986 . S
Mg164 O180 1.942 . S
Mg164 O181 1.955 . S
C165 O176 1.191 . S
C165 O178 1.307 . S
O166 Mg161 2.013 . S
O166 C185 1.191 . S
O167 Mg158 2.081 . S
O167 C175 1.331 . S
O168 Mg164 1.986 . S
O168 C185 1.307 . S
O169 Mg158 2.023 . S
O169 C184 1.264 . S
O170 Mg159 1.942 . S
O170 C175 1.244 . S
O171 Mg159 1.955 . S
O171 C184 1.273 . S
O172 Mg161 2.114 . S
O172 Mg163 2.291 . S
O172 C174 1.312 . S
O173 Mg158 2.031 . S
O173 C174 1.208 . S
C174 O172 1.312 . S
C174 O173 1.208 . S
C175 O167 1.331 . S
C175 O170 1.244 . S
O176 Mg161 2.013 . S
O176 C165 1.191 . S
O177 C156 1.331 . S
O177 Mg163 2.081 . S
O178 Mg159 1.986 . S
O178 C165 1.307 . S
O179 C157 1.264 . S
O179 Mg163 2.023 . S
O180 C156 1.244 . S
O180 Mg164 1.942 . S
O181 C157 1.273 . S
O181 Mg164 1.955 . S
O182 C155 1.312 . S
O182 Mg158 2.291 . S
O182 Mg161 2.114 . S
O183 C155 1.208 . S
O183 Mg163 2.031 . S
C184 O169 1.264 . S
C184 O171 1.273 . S
C185 O166 1.191 . S
C185 O168 1.307 . S
C186 O213 1.312 . S
C186 O214 1.208 . S
C187 O208 1.331 . S
C187 O211 1.244 . S
C188 O210 1.264 . S
C188 O212 1.273 . S
Mg189 O191 1.936 . S
Mg189 O198 2.081 . S
Mg189 O200 2.023 . S
Mg189 O204 2.031 . S
Mg189 O213 2.291 . S
Mg190 O191 1.963 . S
Mg190 O201 1.942 . S
Mg190 O202 1.955 . S
Mg190 O209 1.986 . S
O191 Mg189 1.936 . S
O191 Mg190 1.963 . S
O191 Mg192 1.915 . S
Mg192 O191 1.915 . S
Mg192 O193 1.915 . S
Mg192 O197 2.013 . S
Mg192 O203 2.114 . S
Mg192 O207 2.013 . S
Mg192 O213 2.114 . S
O193 Mg192 1.915 . S
O193 Mg194 1.936 . S
O193 Mg195 1.963 . S
Mg194 O193 1.936 . S
Mg194 O203 2.291 . S
Mg194 O208 2.081 . S
Mg194 O210 2.023 . S
Mg194 O214 2.031 . S
Mg195 O193 1.963 . S
Mg195 O199 1.986 . S
Mg195 O211 1.942 . S
Mg195 O212 1.955 . S
C196 O207 1.191 . S
C196 O209 1.307 . S
O197 Mg192 2.013 . S
O197 C216 1.191 . S
O198 Mg189 2.081 . S
O198 C206 1.331 . S
O199 Mg195 1.986 . S
O199 C216 1.307 . S
O200 Mg189 2.023 . S
O200 C215 1.264 . S
O201 Mg190 1.942 . S
O201 C206 1.244 . S
O202 Mg190 1.955 . S
O202 C215 1.273 . S
O203 Mg192 2.114 . S
O203 Mg194 2.291 . S
O203 C205 1.312 . S
O204 Mg189 2.031 . S
O204 C205 1.208 . S
C205 O203 1.312 . S
C205 O204 1.208 . S
C206 O198 1.331 . S
C206 O201 1.244 . S
O207 Mg192 2.013 . S
O207 C196 1.191 . S
O208 C187 1.331 . S
O208 Mg194 2.081 . S
O209 Mg190 1.986 . S
O209 C196 1.307 . S
O210 C188 1.264 . S
O210 Mg194 2.023 . S
O211 C187 1.244 . S
O211 Mg195 1.942 . S
O212 C188 1.273 . S
O212 Mg195 1.955 . S
O213 C186 1.312 . S
O213 Mg189 2.291 . S
O213 Mg192 2.114 . S
O214 C186 1.208 . S
O214 Mg194 2.031 . S
C215 O200 1.264 . S
C215 O202 1.273 . S
C216 O197 1.191 . S
C216 O199 1.307 . S
C217 O244 1.312 . S
C217 O245 1.208 . S
C218 O239 1.331 . S
C218 O242 1.244 . S
C219 O241 1.264 . S
C219 O243 1.273 . S
Mg220 O222 1.936 . S
Mg220 O229 2.081 . S
Mg220 O231 2.023 . S
Mg220 O235 2.031 . S
Mg220 O244 2.291 . S
Mg221 O222 1.963 . S
Mg221 O232 1.942 . S
Mg221 O233 1.955 . S
Mg221 O240 1.986 . S
O222 Mg220 1.936 . S
O222 Mg221 1.963 . S
O222 Mg223 1.915 . S
Mg223 O222 1.915 . S
Mg223 O224 1.915 . S
Mg223 O228 2.013 . S
Mg223 O234 2.114 . S
Mg223 O238 2.013 . S
Mg223 O244 2.114 . S
O224 Mg223 1.915 . S
O224 Mg225 1.936 . S
O224 Mg226 1.963 . S
Mg225 O224 1.936 . S
Mg225 O234 2.291 . S
Mg225 O239 2.081 . S
Mg225 O241 2.023 . S
Mg225 O245 2.031 . S
Mg226 O224 1.963 . S
Mg226 O230 1.986 . S
Mg226 O242 1.942 . S
Mg226 O243 1.955 . S
C227 O238 1.191 . S
C227 O240 1.307 . S
O228 Mg223 2.013 . S
O228 C247 1.191 . S
O229 Mg220 2.081 . S
O229 C237 1.331 . S
O230 Mg226 1.986 . S
O230 C247 1.307 . S
O231 Mg220 2.023 . S
O231 C246 1.264 . S
O232 Mg221 1.942 . S
O232 C237 1.244 . S
O233 Mg221 1.955 . S
O233 C246 1.273 . S
O234 Mg223 2.114 . S
O234 Mg225 2.291 . S
O234 C236 1.312 . S
O235 Mg220 2.031 . S
O235 C236 1.208 . S
C236 O234 1.312 . S
C236 O235 1.208 . S
C237 O229 1.331 . S
C237 O232 1.244 . S
O238 Mg223 2.013 . S
O238 C227 1.191 . S
O239 C218 1.331 . S
O239 Mg225 2.081 . S
O240 Mg221 1.986 . S
O240 C227 1.307 . S
O241 C219 1.264 . S
O241 Mg225 2.023 . S
O242 C218 1.244 . S
O242 Mg226 1.942 . S
O243 C219 1.273 . S
O243 Mg226 1.955 . S
O244 C217 1.312 . S
O244 Mg220 2.291 . S
O244 Mg223 2.114 . S
O245 C217 1.208 . S
O245 Mg225 2.031 . S
C246 O231 1.264 . S
C246 O233 1.273 . S
C247 O228 1.191 . S
C247 O230 1.307 . S
C248 O275 1.312 . S
C248 O276 1.208 . S
C249 O270 1.331 . S
C249 O273 1.244 . S
C250 O272 1.264 . S
C250 O274 1.273 . S
Mg251 O253 1.936 . S
Mg251 O260 2.081 . S
Mg251 O262 2.023 . S
Mg251 O266 2.031 . S
Mg251 O275 2.291 . S
Mg252 O253 1.963 . S
Mg252 O263 1.942 . S
Mg252 O264 1.955 . S
Mg252 O271 1.986 . S
O253 Mg251 1.936 . S
O253 Mg252 1.963 . S
O253 Mg254 1.915 . S
Mg254 O253 1.915 . S
Mg254 O255 1.915 . S
Mg254 O259 2.013 . S
Mg254 O265 2.114 . S
Mg254 O269 2.013 . S
Mg254 O275 2.114 . S
O255 Mg254 1.915 . S
O255 Mg256 1.936 . S
O255 Mg257 1.963 . S
Mg256 O255 1.936 . S
Mg256 O265 2.291 . S
Mg256 O270 2.081 . S
Mg256 O272 2.023 . S
Mg256 O276 2.031 . S
Mg257 O255 1.963 . S
Mg257 O261 1.986 . S
Mg257 O273 1.942 . S
Mg257 O274 1.955 . S
C258 O269 1.191 . S
C258 O271 1.307 . S
O259 Mg254 2.013 . S
O259 C278 1.191 . S
O260 Mg251 2.081 . S
O260 C268 1.331 . S
O261 Mg257 1.986 . S
O261 C278 1.307 . S
O262 Mg251 2.023 . S
O262 C277 1.264 . S
O263 Mg252 1.942 . S
O263 C268 1.244 . S
O264 Mg252 1.955 . S
O264 C277 1.273 . S
O265 Mg254 2.114 . S
O265 Mg256 2.291 . S
O265 C267 1.312 . S
O266 Mg251 2.031 . S
O266 C267 1.208 . S
C267 O265 1.312 . S
C267 O266 1.208 . S
C268 O260 1.331 . S
C268 O263 1.244 . S
O269 Mg254 2.013 . S
O269 C258 1.191 . S
O270 C249 1.331 . S
O270 Mg256 2.081 . S
O271 Mg252 1.986 . S
O271 C258 1.307 . S
O272 C250 1.264 . S
O272 Mg256 2.023 . S
O273 C249 1.244 . S
O273 Mg257 1.942 . S
O274 C250 1.273 . S
O274 Mg257 1.955 . S
O275 C248 1.312 . S
O275 Mg251 2.291 . S
O275 Mg254 2.114 . S
O276 C248 1.208 . S
O276 Mg256 2.031 . S
C277 O262 1.264 . S
C277 O264 1.273 . S
C278 O259 1.191 . S
C278 O261 1.307 . S
C279 C280 1.387 . S
C279 H283 0.950 . S
C279 C288 1.390 . S
C280 C279 1.387 . S
C280 C282 1.387 . S
H281 C288 0.950 . S
C282 C280 1.387 . S
C282 C284 1.390 . S
C282 H286 0.950 . S
H283 C279 0.950 . S
C284 C282 1.390 . S
C284 C285 1.387 . S
C284 H287 0.950 . S
C285 C284 1.387 . S
C285 C288 1.387 . S
H286 C282 0.950 . S
H287 C284 0.950 . S
C288 C279 1.390 . S
C288 H281 0.950 . S
C288 C285 1.387 . S
C289 C290 1.387 . S
C289 H293 0.950 1_554 S
C289 C298 1.390 . S
C290 C289 1.387 . S
C290 C292 1.387 . S
H291 C298 0.950 1_556 S
C292 C290 1.387 . S
C292 C294 1.390 . S
C292 H296 0.950 . S
H293 C289 0.950 1_556 S
C294 C292 1.390 . S
C294 C295 1.387 . S
C294 H297 0.950 . S
C295 C294 1.387 . S
C295 C298 1.387 . S
H296 C292 0.950 . S
H297 C294 0.950 . S
C298 C289 1.390 . S
C298 H291 0.950 1_554 S
C298 C295 1.387 . S
C299 C300 1.387 . S
C299 H303 0.950 1_554 S
C299 C308 1.390 . S
C300 C299 1.387 . S
C300 C302 1.387 . S
H301 C308 0.950 1_556 S
C302 C300 1.387 . S
C302 C304 1.390 . S
C302 H306 0.950 . S
H303 C299 0.950 1_556 S
C304 C302 1.390 . S
C304 C305 1.387 . S
C304 H307 0.950 . S
C305 C304 1.387 . S
C305 C308 1.387 . S
H306 C302 0.950 . S
H307 C304 0.950 . S
C308 C299 1.390 . S
C308 H301 0.950 1_554 S
C308 C305 1.387 . S
C309 C310 1.387 . S
C309 H313 0.950 1_554 S
C309 C318 1.390 . S
C310 C309 1.387 . S
C310 C312 1.387 . S
H311 C318 0.950 . S
C312 C310 1.387 . S
C312 C314 1.390 . S
C312 H316 0.950 . S
H313 C309 0.950 1_556 S
C314 C312 1.390 . S
C314 C315 1.387 . S
C314 H317 0.950 . S
C315 C314 1.387 . S
C315 C318 1.387 . S
H316 C312 0.950 . S
H317 C314 0.950 . S
C318 C309 1.390 . S
C318 H311 0.950 . S
C318 C315 1.387 . S
C319 C320 1.387 . S
C319 H323 0.950 . S
C319 C328 1.390 . S
C320 C319 1.387 . S
C320 C322 1.387 . S
H321 C328 0.950 . S
C322 C320 1.387 . S
C322 C324 1.390 . S
C322 H326 0.950 1_554 S
H323 C319 0.950 . S
C324 C322 1.390 . S
C324 C325 1.387 . S
C324 H327 0.950 . S
C325 C324 1.387 . S
C325 C328 1.387 . S
H326 C322 0.950 1_556 S
H327 C324 0.950 . S
C328 C319 1.390 . S
C328 H321 0.950 . S
C328 C325 1.387 . S
C329 C330 1.387 . S
C329 H333 0.950 . S
C329 C338 1.390 . S
C330 C329 1.387 . S
C330 C332 1.387 . S
H331 C338 0.950 . S
C332 C330 1.387 . S
C332 C334 1.390 . S
C332 H336 0.950 . S
H333 C329 0.950 . S
C334 C332 1.390 . S
C334 C335 1.387 . S
C334 H337 0.950 . S
C335 C334 1.387 . S
C335 C338 1.387 . S
H336 C332 0.950 . S
H337 C334 0.950 . S
C338 C329 1.390 . S
C338 H331 0.950 . S
C338 C335 1.387 . S
C339 C340 1.387 . S
C339 H343 0.950 . S
C339 C348 1.390 . S
C340 C339 1.387 . S
C340 C342 1.387 . S
H341 C348 0.950 1_455 S
C342 C340 1.387 . S
C342 C344 1.390 . S
C342 H346 0.950 . S
H343 C339 0.950 . S
C344 C342 1.390 . S
C344 C345 1.387 . S
C344 H347 0.950 . S
C345 C344 1.387 . S
C345 C348 1.387 . S
H346 C342 0.950 . S
H347 C344 0.950 . S
C348 C339 1.390 . S
C348 H341 0.950 1_655 S
C348 C345 1.387 . S
C349 C350 1.387 . S
C349 H353 0.950 . S
C349 C358 1.390 . S
C350 C349 1.387 . S
C350 C352 1.387 . S
H351 C358 0.950 . S
C352 C350 1.387 . S
C352 C354 1.390 . S
C352 H356 0.950 . S
H353 C349 0.950 . S
C354 C352 1.390 . S
C354 C355 1.387 . S
C354 H357 0.950 . S
C355 C354 1.387 . S
C355 C358 1.387 . S
H356 C352 0.950 . S
H357 C354 0.950 . S
C358 C349 1.390 . S
C358 H351 0.950 . S
C358 C355 1.387 . S
C359 C360 1.387 . S
C359 H363 0.950 . S
C359 C368 1.390 . S
C360 C359 1.387 . S
C360 C362 1.387 . S
H361 C368 0.950 . S
C362 C360 1.387 . S
C362 C364 1.390 . S
C362 H366 0.950 . S
H363 C359 0.950 . S
C364 C362 1.390 . S
C364 C365 1.387 . S
C364 H367 0.950 . S
C365 C364 1.387 . S
C365 C368 1.387 . S
H366 C362 0.950 . S
H367 C364 0.950 . S
C368 C359 1.390 . S
C368 H361 0.950 . S
C368 C365 1.387 . S
C369 C370 1.387 . S
C369 H373 0.950 . S
C369 C378 1.390 . S
C370 C369 1.387 . S
C370 C372 1.387 . S
H371 C378 0.950 . S
C372 C370 1.387 . S
C372 C374 1.390 . S
C372 H376 0.950 . S
H373 C369 0.950 . S
C374 C372 1.390 . S
C374 C375 1.387 . S
C374 H377 0.950 1_545 S
C375 C374 1.387 . S
C375 C378 1.387 . S
H376 C372 0.950 . S
H377 C374 0.950 1_565 S
C378 C369 1.390 . S
C378 H371 0.950 . S
C378 C375 1.387 . S
C379 C380 1.387 . S
C379 H383 0.950 . S
C379 C388 1.390 . S
C380 C379 1.387 . S
C380 C382 1.387 . S
H381 C388 0.950 . S
C382 C380 1.387 . S
C382 C384 1.390 . S
C382 H386 0.950 1_655 S
H383 C379 0.950 . S
C384 C382 1.390 . S
C384 C385 1.387 . S
C384 H387 0.950 . S
C385 C384 1.387 . S
C385 C388 1.387 . S
H386 C382 0.950 1_455 S
H387 C384 0.950 . S
C388 C379 1.390 . S
C388 H381 0.950 . S
C388 C385 1.387 . S
C389 C390 1.387 . S
C389 H393 0.950 . S
C389 C398 1.390 . S
C390 C389 1.387 . S
C390 C392 1.387 . S
H391 C398 0.950 . S
C392 C390 1.387 . S
C392 C394 1.390 . S
C392 H396 0.950 . S
H393 C389 0.950 . S
C394 C392 1.390 . S
C394 C395 1.387 . S
C394 H397 0.950 . S
C395 C394 1.387 . S
C395 C398 1.387 . S
H396 C392 0.950 . S
H397 C394 0.950 . S
C398 C389 1.390 . S
C398 H391 0.950 . S
C398 C395 1.387 . S
C399 C400 1.387 . S
C399 H403 0.950 . S
C399 C408 1.390 . S
C400 C399 1.387 . S
C400 C402 1.387 . S
H401 C408 0.950 . S
C402 C400 1.387 . S
C402 C404 1.390 . S
C402 H406 0.950 . S
H403 C399 0.950 . S
C404 C402 1.390 . S
C404 C405 1.387 . S
C404 H407 0.950 . S
C405 C404 1.387 . S
C405 C408 1.387 . S
H406 C402 0.950 . S
H407 C404 0.950 . S
C408 C399 1.390 . S
C408 H401 0.950 . S
C408 C405 1.387 . S
C409 C410 1.387 . S
C409 H413 0.950 1_556 S
C409 C418 1.390 . S
C410 C409 1.387 . S
C410 C412 1.387 . S
H411 C418 0.950 1_554 S
C412 C410 1.387 . S
C412 C414 1.390 . S
C412 H416 0.950 . S
H413 C409 0.950 1_554 S
C414 C412 1.390 . S
C414 C415 1.387 . S
C414 H417 0.950 . S
C415 C414 1.387 . S
C415 C418 1.387 . S
H416 C412 0.950 . S
H417 C414 0.950 . S
C418 C409 1.390 . S
C418 H411 0.950 1_556 S
C418 C415 1.387 . S
C419 C420 1.387 . S
C419 H423 0.950 . S
C419 C428 1.390 . S
C420 C419 1.387 . S
C420 C422 1.387 . S
H421 C428 0.950 . S
C422 C420 1.387 . S
C422 C424 1.390 . S
C422 H426 0.950 1_556 S
H423 C419 0.950 . S
C424 C422 1.390 . S
C424 C425 1.387 . S
C424 H427 0.950 1_556 S
C425 C424 1.387 . S
C425 C428 1.387 . S
H426 C422 0.950 1_554 S
H427 C424 0.950 1_554 S
C428 C419 1.390 . S
C428 H421 0.950 . S
C428 C425 1.387 . S
C429 C430 1.387 . S
C429 H433 0.950 . S
C429 C438 1.390 . S
C430 C429 1.387 . S
C430 C432 1.387 . S
H431 C438 0.950 . S
C432 C430 1.387 . S
C432 C434 1.390 . S
C432 H436 0.950 . S
H433 C429 0.950 . S
C434 C432 1.390 . S
C434 C435 1.387 . S
C434 H437 0.950 . S
C435 C434 1.387 . S
C435 C438 1.387 . S
H436 C432 0.950 . S
H437 C434 0.950 . S
C438 C429 1.390 . S
C438 H431 0.950 . S
C438 C435 1.387 . S
C439 C440 1.387 . S
C439 H443 0.950 . S
C439 C448 1.390 . S
C440 C439 1.387 . S
C440 C442 1.387 . S
H441 C448 0.950 . S
C442 C440 1.387 . S
C442 C444 1.390 . S
C442 H446 0.950 . S
H443 C439 0.950 . S
C444 C442 1.390 . S
C444 C445 1.387 . S
C444 H447 0.950 . S
C445 C444 1.387 . S
C445 C448 1.387 . S
H446 C442 0.950 . S
H447 C444 0.950 . S
C448 C439 1.390 . S
C448 H441 0.950 . S
C448 C445 1.387 . S
C449 C450 1.387 . S
C449 H453 0.950 . S
C449 C458 1.390 . S
C450 C449 1.387 . S
C450 C452 1.387 . S
H451 C458 0.950 . S
C452 C450 1.387 . S
C452 C454 1.390 . S
C452 H456 0.950 . S
H453 C449 0.950 . S
C454 C452 1.390 . S
C454 C455 1.387 . S
C454 H457 0.950 . S
C455 C454 1.387 . S
C455 C458 1.387 . S
H456 C452 0.950 . S
H457 C454 0.950 . S
C458 C449 1.390 . S
C458 H451 0.950 . S
C458 C455 1.387 . S
C459 C460 1.387 . S
C459 H463 0.950 . S
C459 C468 1.390 . S
C460 C459 1.387 . S
C460 C462 1.387 . S
H461 C468 0.950 . S
C462 C460 1.387 . S
C462 C464 1.390 1_554 S
C462 H466 0.950 . S
H463 C459 0.950 . S
C464 C462 1.390 1_556 S
C464 C465 1.387 1_556 S
C464 H467 0.950 . S
C465 C464 1.387 1_554 S
C465 C468 1.387 . S
H466 C462 0.950 . S
H467 C464 0.950 . S
C468 C459 1.390 . S
C468 H461 0.950 . S
C468 C465 1.387 . S
C469 C470 1.387 1_556 S
C469 H473 0.950 . S
C469 C478 1.390 . S
C470 C469 1.387 1_554 S
C470 C472 1.387 . S
H471 C478 0.950 . S
C472 C470 1.387 . S
C472 C474 1.390 . S
C472 H476 0.950 . S
H473 C469 0.950 . S
C474 C472 1.390 . S
C474 C475 1.387 . S
C474 H477 0.951 . S
C475 C474 1.387 . S
C475 C478 1.387 1_554 S
H476 C472 0.950 . S
H477 C474 0.951 . S
C478 C469 1.390 . S
C478 H471 0.950 . S
C478 C475 1.387 1_556 S
C479 C480 1.387 . S
C479 H483 0.950 . S
C479 C488 1.390 . S
C480 C479 1.387 . S
C480 C482 1.387 . S
H481 C488 0.950 1_455 S
C482 C480 1.387 . S
C482 C484 1.390 . S
C482 H486 0.950 . S
H483 C479 0.950 . S
C484 C482 1.390 . S
C484 C485 1.387 . S
C484 H487 0.950 1_554 S
C485 C484 1.387 . S
C485 C488 1.387 . S
H486 C482 0.950 . S
H487 C484 0.950 1_556 S
C488 C479 1.390 . S
C488 H481 0.950 1_655 S
C488 C485 1.387 . S
C489 C490 1.387 . S
C489 H493 0.950 . S
C489 C498 1.390 . S
C490 C489 1.387 . S
C490 C492 1.387 . S
H491 C498 0.950 . S
C492 C490 1.387 . S
C492 C494 1.390 . S
C492 H496 0.950 . S
H493 C489 0.950 . S
C494 C492 1.390 . S
C494 C495 1.387 . S
C494 H497 0.950 . S
C495 C494 1.387 . S
C495 C498 1.387 . S
H496 C492 0.950 . S
H497 C494 0.950 . S
C498 C489 1.390 . S
C498 H491 0.950 . S
C498 C495 1.387 . S
C499 C500 1.387 . S
C499 H503 0.950 . S
C499 C508 1.390 . S
C500 C499 1.387 . S
C500 C502 1.387 . S
H501 C508 0.950 . S
C502 C500 1.387 . S
C502 C504 1.390 . S
C502 H506 0.950 . S
H503 C499 0.950 . S
C504 C502 1.390 . S
C504 C505 1.387 . S
C504 H507 0.950 . S
C505 C504 1.387 . S
C505 C508 1.387 . S
H506 C502 0.950 . S
H507 C504 0.950 . S
C508 C499 1.390 . S
C508 H501 0.950 . S
C508 C505 1.387 . S
C509 C510 1.387 . S
C509 H513 0.950 . S
C509 C518 1.390 . S
C510 C509 1.387 . S
C510 C512 1.387 . S
H511 C518 0.950 . S
C512 C510 1.387 . S
C512 C514 1.390 . S
C512 H516 0.950 . S
H513 C509 0.950 . S
C514 C512 1.390 . S
C514 C515 1.387 . S
C514 H517 0.950 . S
C515 C514 1.387 . S
C515 C518 1.387 . S
H516 C512 0.950 . S
H517 C514 0.950 . S
C518 C509 1.390 . S
C518 H511 0.950 . S
C518 C515 1.387 . S
C519 C520 1.387 . S
C519 H523 0.950 . S
C519 C528 1.390 . S
C520 C519 1.387 . S
C520 C522 1.387 . S
H521 C528 0.950 . S
C522 C520 1.387 . S
C522 C524 1.390 . S
C522 H526 0.950 . S
H523 C519 0.950 . S
C524 C522 1.390 . S
C524 C525 1.387 . S
C524 H527 0.950 . S
C525 C524 1.387 . S
C525 C528 1.387 . S
H526 C522 0.950 . S
H527 C524 0.950 . S
C528 C519 1.390 . S
C528 H521 0.950 . S
C528 C525 1.387 . S
C529 C530 1.387 . S
C529 H533 0.950 . S
C529 C538 1.390 . S
C530 C529 1.387 . S
C530 C532 1.387 . S
H531 C538 0.950 . S
C532 C530 1.387 . S
C532 C534 1.390 . S
C532 H536 0.950 . S
H533 C529 0.950 . S
C534 C532 1.390 . S
C534 C535 1.387 . S
C534 H537 0.950 . S
C535 C534 1.387 . S
C535 C538 1.387 . S
H536 C532 0.950 . S
H537 C534 0.950 . S
C538 C529 1.390 . S
C538 H531 0.950 . S
C538 C535 1.387 . S
C539 C540 1.387 . S
C539 H543 0.950 . S
C539 C548 1.390 . S
C540 C539 1.387 . S
C540 C542 1.387 . S
H541 C548 0.950 . S
C542 C540 1.387 . S
C542 C544 1.390 . S
C542 H546 0.950 . S
H543 C539 0.950 . S
C544 C542 1.390 . S
C544 C545 1.387 . S
C544 H547 0.950 . S
C545 C544 1.387 . S
C545 C548 1.387 . S
H546 C542 0.950 . S
H547 C544 0.950 . S
C548 C539 1.390 . S
C548 H541 0.950 . S
C548 C545 1.387 . S
C549 C550 1.387 . S
C549 H553 0.950 . S
C549 C558 1.390 . S
C550 C549 1.387 . S
C550 C552 1.387 . S
H551 C558 0.950 . S
C552 C550 1.387 . S
C552 C554 1.390 . S
C552 H556 0.950 . S
H553 C549 0.950 . S
C554 C552 1.390 . S
C554 C555 1.387 . S
C554 H557 0.950 . S
C555 C554 1.387 . S
C555 C558 1.387 . S
H556 C552 0.950 . S
H557 C554 0.950 . S
C558 C549 1.390 . S
C558 H551 0.950 . S
C558 C555 1.387 . S
C559 C560 1.387 . S
C559 H563 0.950 . S
C559 C568 1.390 . S
C560 C559 1.387 . S
C560 C562 1.387 . S
H561 C568 0.950 . S
C562 C560 1.387 . S
C562 C564 1.390 . S
C562 H566 0.950 . S
H563 C559 0.950 . S
C564 C562 1.390 . S
C564 C565 1.387 . S
C564 H567 0.950 . S
C565 C564 1.387 . S
C565 C568 1.387 . S
H566 C562 0.950 . S
H567 C564 0.950 . S
C568 C559 1.390 . S
C568 H561 0.950 . S
C568 C565 1.387 . S
C569 C570 1.387 . S
C569 H573 0.950 . S
C569 C578 1.390 . S
C570 C569 1.387 . S
C570 C572 1.387 . S
H571 C578 0.950 . S
C572 C570 1.387 . S
C572 C574 1.390 . S
C572 H576 0.950 . S
H573 C569 0.950 . S
C574 C572 1.390 . S
C574 C575 1.387 . S
C574 H577 0.950 . S
C575 C574 1.387 . S
C575 C578 1.387 . S
H576 C572 0.950 . S
H577 C574 0.950 . S
C578 C569 1.390 . S
C578 H571 0.950 . S
C578 C575 1.387 . S
C579 C580 1.387 . S
C579 H583 0.950 . S
C579 C588 1.390 . S
C580 C579 1.387 . S
C580 C582 1.387 . S
H581 C588 0.950 . S
C582 C580 1.387 . S
C582 C584 1.390 . S
C582 H586 0.950 . S
H583 C579 0.950 . S
C584 C582 1.390 . S
C584 C585 1.387 . S
C584 H587 0.950 . S
C585 C584 1.387 . S
C585 C588 1.387 . S
H586 C582 0.950 . S
H587 C584 0.950 . S
C588 C579 1.390 . S
C588 H581 0.950 . S
C588 C585 1.387 . S
C589 C590 1.387 . S
C589 H593 0.950 . S
C589 C598 1.390 . S
C590 C589 1.387 . S
C590 C592 1.387 . S
H591 C598 0.950 . S
C592 C590 1.387 . S
C592 C594 1.390 . S
C592 H596 0.950 . S
H593 C589 0.950 . S
C594 C592 1.390 . S
C594 C595 1.387 . S
C594 H597 0.950 . S
C595 C594 1.387 . S
C595 C598 1.387 . S
H596 C592 0.950 . S
H597 C594 0.950 . S
C598 C589 1.390 . S
C598 H591 0.950 . S
C598 C595 1.387 . S
C599 C600 1.387 . S
C599 H603 0.950 . S
C599 C608 1.390 . S
C600 C599 1.387 . S
C600 C602 1.387 . S
H601 C608 0.950 . S
C602 C600 1.387 . S
C602 C604 1.390 . S
C602 H606 0.950 . S
H603 C599 0.950 . S
C604 C602 1.390 . S
C604 C605 1.387 . S
C604 H607 0.950 . S
C605 C604 1.387 . S
C605 C608 1.387 . S
H606 C602 0.950 . S
H607 C604 0.950 . S
C608 C599 1.390 . S
C608 H601 0.950 . S
C608 C605 1.387 . S
C609 C610 1.387 . S
C609 H613 0.950 . S
C609 C618 1.390 . S
C610 C609 1.387 . S
C610 C612 1.387 . S
H611 C618 0.950 . S
C612 C610 1.387 . S
C612 C614 1.390 . S
C612 H616 0.950 . S
H613 C609 0.950 . S
C614 C612 1.390 . S
C614 C615 1.387 . S
C614 H617 0.950 . S
C615 C614 1.387 . S
C615 C618 1.387 . S
H616 C612 0.950 . S
H617 C614 0.950 . S
C618 C609 1.390 . S
C618 H611 0.950 . S
C618 C615 1.387 . S
C619 C620 1.387 . S
C619 H623 0.950 . S
C619 C628 1.390 . S
C620 C619 1.387 . S
C620 C622 1.387 . S
H621 C628 0.950 . S
C622 C620 1.387 . S
C622 C624 1.390 . S
C622 H626 0.950 . S
H623 C619 0.950 . S
C624 C622 1.390 . S
C624 C625 1.387 . S
C624 H627 0.950 . S
C625 C624 1.387 . S
C625 C628 1.387 . S
H626 C622 0.950 . S
H627 C624 0.950 . S
C628 C619 1.390 . S
C628 H621 0.950 . S
C628 C625 1.387 . S
C629 C630 1.387 . S
C629 H633 0.950 . S
C629 C638 1.390 . S
C630 C629 1.387 . S
C630 C632 1.387 . S
H631 C638 0.950 . S
C632 C630 1.387 . S
C632 C634 1.390 . S
C632 H636 0.950 . S
H633 C629 0.950 . S
C634 C632 1.390 . S
C634 C635 1.387 . S
C634 H637 0.950 . S
C635 C634 1.387 . S
C635 C638 1.387 . S
H636 C632 0.950 . S
H637 C634 0.950 . S
C638 C629 1.390 . S
C638 H631 0.950 . S
C638 C635 1.387 . S
C280 C20 1.315 . S
C285 C153 1.302 . S
C290 C184 1.303 . S
C295 C51 1.317 1_545 S
C300 C82 1.317 1_655 S
C305 C122 1.304 . S
C310 C32 2.225 1_554 S
C315 C93 2.579 . S
C320 C63 2.224 1_554 S
C325 C124 2.578 . S
C330 C1 2.223 1_554 S
C335 C155 2.578 . S
C340 C113 1.315 . S
C345 C246 1.302 1_655 S
C350 C277 1.306 . S
C355 C144 1.316 . S
C360 C215 1.304 1_545 S
C365 C175 1.318 . S
C370 C125 2.223 . S
C375 C186 2.578 1_545 S
C380 C217 2.578 1_655 S
C385 C156 2.223 . S
C390 C248 2.578 . S
C395 C94 2.223 . S
C400 C206 1.315 . S
C405 C60 1.302 . S
C410 C237 1.316 . S
C415 C91 1.306 . S
C420 C29 1.304 . S
C425 C268 1.318 . S
C430 C0 2.578 1_556 S
C435 C218 2.223 . S
C440 C31 2.579 1_556 S
C445 C249 2.225 . S
C450 C187 2.226 . S
C455 C62 2.580 1_556 S
C460 C64 1.607 . S
C465 C10 1.756 1_554 S
C470 C2 1.607 . S
C475 C41 1.758 1_544 S
C480 C33 1.607 . S
C485 C72 1.757 1_654 S
C490 C157 1.608 . S
C495 C103 1.758 . S
C500 C95 1.610 . S
C505 C134 1.756 . S
C510 C126 1.611 . S
C515 C165 1.758 . S
C520 C196 1.759 . S
C525 C250 1.608 . S
C530 C227 1.758 . S
C535 C188 1.607 . S
C540 C258 1.756 . S
C545 C219 1.607 . S
C550 C30 1.105 . S
C555 C19 1.084 . S
C560 C50 1.086 . S
C565 C61 1.106 . S
C570 C92 1.107 . S
C575 C81 1.086 . S
C580 C112 1.084 . S
C585 C123 1.105 1_556 S
C590 C154 1.104 1_556 S
C595 C143 1.083 . S
C600 C174 1.086 . S
C605 C185 1.106 1_556 S
C610 C216 1.105 . S
C615 C205 1.083 1_554 S
C620 C247 1.106 . S
C625 C236 1.086 1_554 S
C630 C278 1.105 . S
C635 C267 1.085 1_554 S
