# Generated by pormake.
# Topology lcy-e, (6)-cn, num edge types: 1
# Building blocks:
#     Node 0, Type 0, BuildingBlock: BETGAK_clean_sbu_0, # of connection points: 6
#     Node 1, Type 0, BuildingBlock: BETGAK_clean_sbu_0, # of connection points: 6
#     Node 2, Type 0, BuildingBlock: BETGAK_clean_sbu_0, # of connection points: 6
#     Node 3, Type 0, BuildingBlock: BETGAK_clean_sbu_0, # of connection points: 6
#     Node 4, Type 0, BuildingBlock: BETGAK_clean_sbu_0, # of connection points: 6
#     Node 5, Type 0, BuildingBlock: BETGAK_clean_sbu_0, # of connection points: 6
#     Node 6, Type 0, BuildingBlock: BETGAK_clean_sbu_0, # of connection points: 6
#     Node 7, Type 0, BuildingBlock: BETGAK_clean_sbu_0, # of connection points: 6
#     Node 8, Type 0, BuildingBlock: BETGAK_clean_sbu_0, # of connection points: 6
#     Node 9, Type 0, BuildingBlock: BETGAK_clean_sbu_0, # of connection points: 6
#     Node 10, Type 0, BuildingBlock: BETGAK_clean_sbu_0, # of connection points: 6
#     Node 11, Type 0, BuildingBlock: BETGAK_clean_sbu_0, # of connection points: 6
#     Edge 12, Type (0, 0), BuildingBlock: ZUJKAS_clean_linker_0, # of connection points: 2
#     Edge 13, Type (0, 0), BuildingBlock: ZUJKAS_clean_linker_0, # of connection points: 2
#     Edge 14, Type (0, 0), BuildingBlock: ZUJKAS_clean_linker_0, # of connection points: 2
#     Edge 15, Type (0, 0), BuildingBlock: ZUJKAS_clean_linker_0, # of connection points: 2
#     Edge 16, Type (0, 0), BuildingBlock: ZUJKAS_clean_linker_0, # of connection points: 2
#     Edge 17, Type (0, 0), BuildingBlock: ZUJKAS_clean_linker_0, # of connection points: 2
#     Edge 18, Type (0, 0), BuildingBlock: ZUJKAS_clean_linker_0, # of connection points: 2
#     Edge 19, Type (0, 0), BuildingBlock: ZUJKAS_clean_linker_0, # of connection points: 2
#     Edge 20, Type (0, 0), BuildingBlock: ZUJKAS_clean_linker_0, # of connection points: 2
#     Edge 21, Type (0, 0), BuildingBlock: ZUJKAS_clean_linker_0, # of connection points: 2
#     Edge 22, Type (0, 0), BuildingBlock: ZUJKAS_clean_linker_0, # of connection points: 2
#     Edge 23, Type (0, 0), BuildingBlock: ZUJKAS_clean_linker_0, # of connection points: 2
#     Edge 24, Type (0, 0), BuildingBlock: ZUJKAS_clean_linker_0, # of connection points: 2
#     Edge 25, Type (0, 0), BuildingBlock: ZUJKAS_clean_linker_0, # of connection points: 2
#     Edge 26, Type (0, 0), BuildingBlock: ZUJKAS_clean_linker_0, # of connection points: 2
#     Edge 27, Type (0, 0), BuildingBlock: ZUJKAS_clean_linker_0, # of connection points: 2
#     Edge 28, Type (0, 0), BuildingBlock: ZUJKAS_clean_linker_0, # of connection points: 2
#     Edge 29, Type (0, 0), BuildingBlock: ZUJKAS_clean_linker_0, # of connection points: 2
#     Edge 30, Type (0, 0), BuildingBlock: ZUJKAS_clean_linker_0, # of connection points: 2
#     Edge 31, Type (0, 0), BuildingBlock: ZUJKAS_clean_linker_0, # of connection points: 2
#     Edge 32, Type (0, 0), BuildingBlock: ZUJKAS_clean_linker_0, # of connection points: 2
#     Edge 33, Type (0, 0), BuildingBlock: ZUJKAS_clean_linker_0, # of connection points: 2
#     Edge 34, Type (0, 0), BuildingBlock: ZUJKAS_clean_linker_0, # of connection points: 2
#     Edge 35, Type (0, 0), BuildingBlock: ZUJKAS_clean_linker_0, # of connection points: 2
#     Edge 36, Type (0, 0), BuildingBlock: ZUJKAS_clean_linker_0, # of connection points: 2
#     Edge 37, Type (0, 0), BuildingBlock: ZUJKAS_clean_linker_0, # of connection points: 2
#     Edge 38, Type (0, 0), BuildingBlock: ZUJKAS_clean_linker_0, # of connection points: 2
#     Edge 39, Type (0, 0), BuildingBlock: ZUJKAS_clean_linker_0, # of connection points: 2
#     Edge 40, Type (0, 0), BuildingBlock: ZUJKAS_clean_linker_0, # of connection points: 2
#     Edge 41, Type (0, 0), BuildingBlock: ZUJKAS_clean_linker_0, # of connection points: 2
#     Edge 42, Type (0, 0), BuildingBlock: ZUJKAS_clean_linker_0, # of connection points: 2
#     Edge 43, Type (0, 0), BuildingBlock: ZUJKAS_clean_linker_0, # of connection points: 2
#     Edge 44, Type (0, 0), BuildingBlock: ZUJKAS_clean_linker_0, # of connection points: 2
#     Edge 45, Type (0, 0), BuildingBlock: ZUJKAS_clean_linker_0, # of connection points: 2
#     Edge 46, Type (0, 0), BuildingBlock: ZUJKAS_clean_linker_0, # of connection points: 2
#     Edge 47, Type (0, 0), BuildingBlock: ZUJKAS_clean_linker_0, # of connection points: 2
# Relax obj value: 0.201
# Max RMSD: 0.304
# Mean RMSD: 0.280
data_MOF--net-lcy-e--node1-BETGAK_clean_sbu_0--edge1-ZUJKAS_clean_linker_0
_symmetry_space_group_name_H-M    P1
_symmetry_Int_Tables_number       1
_symmetry_cell_setting            triclinic
loop_
_symmetry_equiv_pos_as_xyz
'x, y, z'
_cell_length_a     55.913598
_cell_length_b     51.53827
_cell_length_c     55.822127
_cell_angle_alpha  89.342499
_cell_angle_beta   90.780353
_cell_angle_gamma 88.443745
loop_
_atom_site_label
_atom_site_type_symbol
_atom_site_fract_x
_atom_site_fract_y
_atom_site_fract_z
_atom_type_partial_charge
La0 La 0.14965 0.25369 0.4759 0.0
La1 La 0.16414 0.20836 0.50721 0.0
C2 C 0.14993 0.29474 0.4508 0.0
C3 C 0.15771 0.30161 0.42655 0.0
C4 C 0.16374 0.28234 0.40994 0.0
C5 C 0.17162 0.28925 0.38709 0.0
C6 C 0.17365 0.31554 0.38053 0.0
C7 C 0.16744 0.33471 0.39728 0.0
C8 C 0.15957 0.32778 0.42008 0.0
C9 C 0.12123 0.21436 0.47121 0.0
C10 C 0.1927 0.21461 0.46021 0.0
C11 C 0.16572 0.16759 0.53274 0.0
C12 C 0.14951 0.15044 0.546 0.0
C13 C 0.14574 0.1539 0.57061 0.0
C14 C 0.1328 0.13592 0.58376 0.0
C15 C 0.12345 0.11396 0.57263 0.0
C16 C 0.12656 0.11096 0.54785 0.0
C17 C 0.13951 0.12893 0.53472 0.0
C18 C 0.18918 0.25104 0.51292 0.0
C19 C 0.12288 0.24648 0.52397 0.0
O20 O 0.13161 0.27957 0.45212 0.0
O21 O 0.16701 0.28772 0.46595 0.0
O22 O 0.11484 0.23852 0.46836 0.0
O23 O 0.14379 0.21238 0.47429 0.0
O24 O 0.18005 0.23641 0.45612 0.0
O25 O 0.18845 0.19928 0.47863 0.0
O26 O 0.16905 0.19084 0.54119 0.0
O27 O 0.16397 0.16774 0.50933 0.0
O28 O 0.19827 0.22775 0.51542 0.0
O29 O 0.16721 0.2493 0.50926 0.0
O30 O 0.13023 0.22192 0.52261 0.0
O31 O 0.1313 0.26418 0.50904 0.0
H32 H 0.16248 0.26199 0.41468 0.0
H33 H 0.17647 0.27402 0.37472 0.0
H34 H 0.16843 0.35513 0.39271 0.0
H35 H 0.15498 0.34289 0.43268 0.0
H36 H 0.15333 0.17015 0.5799 0.0
H37 H 0.13046 0.139 0.60275 0.0
H38 H 0.11986 0.09413 0.53876 0.0
H39 H 0.14232 0.12546 0.51585 0.0
La40 La 1.0117 0.85546 0.73434 0.0
La41 La 0.0527 0.87183 0.7665 0.0
C42 C 0.97475 0.85499 0.70785 0.0
C43 C 0.96741 0.86459 0.68365 0.0
C44 C 0.95693 0.84745 0.66751 0.0
C45 C 0.94917 0.85606 0.64477 0.0
C46 C 0.95156 0.88214 0.63761 0.0
C47 C 0.96241 0.89924 0.65372 0.0
C48 C 0.97025 0.89057 0.67648 0.0
C49 C 0.05069 0.82634 0.73163 0.0
C50 C 0.04507 0.90251 0.7185 0.0
C51 C 0.0908 0.87491 0.79104 0.0
C52 C 0.10891 0.86088 0.80627 0.0
C53 C 0.11626 0.8724 0.82768 0.0
C54 C 0.13609 0.86241 0.8406 0.0
C55 C 0.14915 0.84063 0.83241 0.0
C56 C 0.14106 0.82825 0.81156 0.0
C57 C 0.12118 0.83834 0.79853 0.0
C58 C 1.01174 0.89864 0.77055 0.0
C59 C 0.01909 0.82684 0.78341 0.0
O60 O 0.99093 0.83615 0.70875 0.0
O61 O 0.97842 0.87238 0.72435 0.0
O62 O 0.02921 0.81794 0.72885 0.0
O63 O 0.04997 0.85074 0.73386 0.0
O64 O 0.0257 0.88883 0.71453 0.0
O65 O 0.05942 0.89803 0.73712 0.0
O66 O 0.06946 0.87937 0.79974 0.0
O67 O 0.09012 0.86953 0.76818 0.0
O68 O 0.03262 0.90854 0.77371 0.0
O69 O 1.01468 0.87482 0.76727 0.0
O70 O 0.04125 0.83543 0.78313 0.0
O71 O 1.00274 0.8353 0.76749 0.0
H72 H 0.95462 0.82732 0.67257 0.0
H73 H 0.94133 0.84218 0.63277 0.0
H74 H 0.96436 0.9195 0.64899 0.0
H75 H 0.97828 0.90429 0.68852 0.0
H76 H 0.1072 0.88984 0.83396 0.0
H77 H 0.14151 0.87212 0.85683 0.0
H78 H 0.15071 0.81147 0.80472 0.0
H79 H 0.11599 0.82909 0.782 0.0
La80 La 0.38964 0.77509 1.01271 0.0
La81 La 0.40188 0.74491 0.96795 0.0
C82 C 0.38734 0.80039 0.05093 0.0
C83 C 0.40136 0.81895 0.06457 0.0
C84 C 0.39063 0.83159 0.08386 0.0
C85 C 0.40278 0.85069 0.09624 0.0
C86 C 0.42594 0.85755 0.0895 0.0
C87 C 0.43681 0.84452 0.07027 0.0
C88 C 0.42461 0.8253 0.05791 0.0
C89 C 0.35587 0.77517 0.97926 0.0
C90 C 0.42848 0.79763 0.9771 0.0
C91 C 0.40509 0.7317 0.92468 0.0
C92 C 0.39875 0.71235 0.90652 0.0
C93 C 0.41482 0.70738 0.88797 0.0
C94 C 0.4079 0.69303 0.86806 0.0
C95 C 0.38467 0.68336 0.86623 0.0
C96 C 0.36892 0.68731 0.88541 0.0
C97 C 0.37586 0.70175 0.90536 0.0
C98 C 0.42602 0.73083 1.0074 0.0
C99 C 0.36957 0.71918 1.00582 0.0
O100 O 0.37869 0.80894 0.03029 0.0
O101 O 0.39598 0.7765 0.04983 0.0
O102 O 0.35199 0.7747 1.00199 0.0
O103 O 0.37804 0.77673 0.97589 0.0
O104 O 0.4165 0.80063 0.99729 0.0
O105 O 0.42544 0.77742 0.96311 0.0
O106 O 0.42141 0.7255 0.94099 0.0
O107 O 0.38747 0.74585 0.93327 0.0
O108 O 0.41983 0.71467 0.99081 0.0
O109 O 0.41969 0.75341 1.00081 0.0
O110 O 0.37344 0.72177 0.98256 0.0
O111 O 0.37778 0.73599 0.02162 0.0
H112 H 0.3726 0.82705 0.08908 0.0
H113 H 0.39371 0.86061 0.11066 0.0
H114 H 0.4547 0.84922 0.06478 0.0
H115 H 0.43315 0.81566 0.04303 0.0
H116 H 0.4325 0.7155 0.88842 0.0
H117 H 0.42063 0.68993 0.85385 0.0
H118 H 0.35087 0.68023 0.88456 0.0
H119 H 0.36304 0.70548 0.91936 0.0
La120 La 0.54395 0.11684 0.23979 0.0
La121 La 0.50257 0.1055 0.27269 0.0
C122 C 0.58316 0.12191 0.21858 0.0
C123 C 0.59229 0.11418 0.19486 0.0
C124 C 0.57759 0.11553 0.17423 0.0
C125 C 0.58642 0.10754 0.15204 0.0
C126 C 0.61009 0.09776 0.14998 0.0
C127 C 0.62463 0.09628 0.1708 0.0
C128 C 0.61583 0.10444 0.19293 0.0
C129 C 0.50308 0.14165 0.2294 0.0
C130 C 0.50968 0.07317 0.2241 0.0
C131 C 0.46117 0.10051 0.28964 0.0
C132 C 0.44258 0.11314 0.30453 0.0
C133 C 0.42744 0.09734 0.31777 0.0
C134 C 0.40824 0.10815 0.3304 0.0
C135 C 0.40363 0.13516 0.33018 0.0
C136 C 0.41915 0.15106 0.3172 0.0
C137 C 0.43843 0.14016 0.3045 0.0
C138 C 0.54359 0.08134 0.28382 0.0
C139 C 0.53786 0.14635 0.28963 0.0
O140 O 0.56621 0.13994 0.21886 0.0
O141 O 0.57894 0.10285 0.23345 0.0
O142 O 0.51818 0.13343 0.2136 0.0
O143 O 0.51169 0.13704 0.24998 0.0
O144 O 0.53049 0.08396 0.22042 0.0
O145 O 0.49601 0.0795 0.24248 0.0
O146 O 0.48078 0.09178 0.30041 0.0
O147 O 0.46541 0.11107 0.26871 0.0
O148 O 0.52786 0.08862 0.29944 0.0
O149 O 0.53513 0.08585 0.26313 0.0
O150 O 0.51509 0.14012 0.28953 0.0
O151 O 0.55292 0.13721 0.27329 0.0
H152 H 0.55926 0.12274 0.17524 0.0
H153 H 0.57473 0.10931 0.13646 0.0
H154 H 0.64276 0.08843 0.17013 0.0
H155 H 0.6274 0.10292 0.20865 0.0
H156 H 0.43013 0.07644 0.31787 0.0
H157 H 0.39657 0.09516 0.33976 0.0
H158 H 0.41639 0.17194 0.31681 0.0
H159 H 0.44984 0.1528 0.29443 0.0
La160 La 0.65003 0.24905 0.55772 0.0
La161 La 0.66373 0.2966 0.52841 0.0
C162 C 0.65012 0.20776 0.58266 0.0
C163 C 0.65987 0.19834 0.60597 0.0
C164 C 0.65948 0.17178 0.61148 0.0
C165 C 0.66808 0.16235 0.63366 0.0
C166 C 0.67734 0.17931 0.65087 0.0
C167 C 0.67778 0.20601 0.6452 0.0
C168 C 0.66913 0.21543 0.62295 0.0
C169 C 0.62037 0.289 0.56006 0.0
C170 C 0.68984 0.28781 0.57731 0.0
C171 C 0.66427 0.33921 0.50557 0.0
C172 C 0.6515 0.35594 0.48752 0.0
C173 C 0.66427 0.36525 0.46789 0.0
C174 C 0.65403 0.38397 0.45226 0.0
C175 C 0.6307 0.39396 0.45589 0.0
C176 C 0.6176 0.38398 0.47516 0.0
C177 C 0.62788 0.36519 0.49082 0.0
C178 C 0.69172 0.25464 0.52444 0.0
C179 C 0.62647 0.25683 0.50706 0.0
O180 O 0.63335 0.22593 0.58341 0.0
O181 O 0.66567 0.21235 0.56593 0.0
O182 O 0.614 0.26505 0.56109 0.0
O183 O 0.64289 0.29007 0.55958 0.0
O184 O 0.67969 0.26491 0.57873 0.0
O185 O 0.68439 0.30486 0.56017 0.0
O186 O 0.67482 0.31781 0.49821 0.0
O187 O 0.65443 0.33626 0.52655 0.0
O188 O 0.69944 0.27813 0.52293 0.0
O189 O 0.66946 0.25581 0.52628 0.0
O190 O 0.63351 0.28122 0.5079 0.0
O191 O 0.63347 0.23932 0.52353 0.0
H192 H 0.6523 0.1583 0.59867 0.0
H193 H 0.66706 0.14176 0.63747 0.0
H194 H 0.685 0.21961 0.65786 0.0
H195 H 0.66956 0.23605 0.61907 0.0
H196 H 0.6826 0.35873 0.46512 0.0
H197 H 0.66483 0.39137 0.43789 0.0
H198 H 0.59948 0.39093 0.47833 0.0
H199 H 0.61756 0.35845 0.50584 0.0
La200 La 1.00157 0.38169 0.75073 0.0
La201 La 0.03225 0.36107 0.79142 0.0
C202 C 0.9765 0.38674 0.71301 0.0
C203 C 0.95352 0.37686 0.70442 0.0
C204 C 0.9382 0.39309 0.69054 0.0
C205 C 0.91606 0.38433 0.68265 0.0
C206 C 0.9088 0.35916 0.6886 0.0
C207 C 0.92422 0.34293 0.70255 0.0
C208 C 0.94642 0.35168 0.71033 0.0
C209 C 0.99915 0.40975 0.78962 0.0
C210 C 0.98373 0.33423 0.78341 0.0
C211 C 0.05694 0.35473 0.82929 0.0
C212 C 0.07021 0.36956 0.84738 0.0
C213 C 0.09422 0.36272 0.85239 0.0
C214 C 0.10623 0.37363 0.87178 0.0
C215 C 0.09439 0.39146 0.88675 0.0
C216 C 0.07066 0.39923 0.881 0.0
C217 C 0.05869 0.38843 0.8615 0.0
C218 C 0.03644 0.33601 0.75029 0.0
C219 C 0.05044 0.40727 0.75943 0.0
O220 O 0.97529 0.40286 0.73089 0.0
O221 O 0.99412 0.36965 0.71573 0.0
O222 O 0.99749 0.41896 0.76795 0.0
O223 O 1.00041 0.38518 0.78916 0.0
O224 O 0.98072 0.3487 0.76373 0.0
O225 O 1.00207 0.33705 0.79811 0.0
O226 O 0.06591 0.3531 0.80779 0.0
O227 O 0.03363 0.35784 0.82876 0.0
O228 O 0.03862 0.32481 0.77114 0.0
O229 O 0.03391 0.35988 0.75343 0.0
O230 O 0.04951 0.39735 0.7814 0.0
O231 O 0.03485 0.40068 0.74264 0.0
H232 H 0.94333 0.41263 0.6859 0.0
H233 H 0.90446 0.39739 0.67216 0.0
H234 H 0.91926 0.32335 0.70719 0.0
H235 H 0.95805 0.33875 0.72089 0.0
H236 H 0.10348 0.34823 0.84178 0.0
H237 H 0.12465 0.36761 0.87536 0.0
H238 H 0.06091 0.41276 0.8922 0.0
H239 H 0.04016 0.39413 0.85811 0.0
La240 La 0.89972 0.74656 0.05334 0.0
La241 La 0.8877 0.69984 0.02359 0.0
C242 C 0.89791 0.78863 0.07614 0.0
C243 C 0.88884 0.79816 0.09917 0.0
C244 C 0.87965 0.78118 0.11638 0.0
C245 C 0.87168 0.79067 0.1384 0.0
C246 C 0.87296 0.81727 0.14364 0.0
C247 C 0.88199 0.83416 0.12617 0.0
C248 C 0.88981 0.82468 0.10417 0.0
C249 C 0.92932 0.7067 0.05935 0.0
C250 C 0.85878 0.70751 0.07023 0.0
C251 C 0.88799 0.65799 1.00045 0.0
C252 C 0.90308 0.64078 0.98539 0.0
C253 C 0.89564 0.63596 0.96179 0.0
C254 C 0.90748 0.61717 0.9481 0.0
C255 C 0.92703 0.60257 0.95771 0.0
C256 C 0.93494 0.60791 0.98115 0.0
C257 C 0.92312 0.62682 0.99486 0.0
C258 C 0.86072 0.7425 1.01633 0.0
C259 C 0.92736 0.73797 1.00589 0.0
O260 O 0.91594 0.77194 0.07736 0.0
O261 O 0.88182 0.78204 0.06024 0.0
O262 O 0.93531 0.73072 0.06103 0.0
O263 O 0.90689 0.70544 0.0565 0.0
O264 O 0.8697 0.72986 0.07317 0.0
O265 O 0.86443 0.69141 0.05289 0.0
O266 O 0.88079 0.68044 0.99132 0.0
O267 O 0.89352 0.65949 0.02326 0.0
O268 O 0.85255 0.71922 1.01504 0.0
O269 O 0.88278 0.74075 0.02002 0.0
O270 O 0.92064 0.71355 1.00735 0.0
O271 O 0.91822 0.75595 0.02022 0.0
H272 H 0.87892 0.7606 0.11289 0.0
H273 H 0.86503 0.77711 0.15152 0.0
H274 H 0.88291 0.85478 0.12946 0.0
H275 H 0.89678 0.83808 0.09107 0.0
H276 H 0.88006 0.64612 0.95415 0.0
H277 H 0.90064 0.61338 0.93027 0.0
H278 H 0.95011 0.59725 0.98903 0.0
H279 H 0.92929 0.62998 1.01304 0.0
La280 La 0.55154 0.61987 0.25088 0.0
La281 La 0.51573 0.63754 0.28814 0.0
C282 C 0.57575 0.61024 0.21424 0.0
C283 C 0.60016 0.61679 0.2068 0.0
C284 C 0.61375 0.59935 0.19311 0.0
C285 C 0.63644 0.606 0.18505 0.0
C286 C 0.64595 0.63037 0.1904 0.0
C287 C 0.63234 0.64759 0.20451 0.0
C288 C 0.60981 0.64082 0.21271 0.0
C289 C 0.56193 0.60463 0.29566 0.0
C290 C 0.56202 0.66911 0.28109 0.0
C291 C 0.48912 0.64352 0.3239 0.0
C292 C 0.47642 0.62905 0.34262 0.0
C293 C 0.45554 0.64017 0.35219 0.0
C294 C 0.44465 0.62874 0.37195 0.0
C295 C 0.45443 0.60588 0.38259 0.0
C296 C 0.47488 0.5942 0.37238 0.0
C297 C 0.48582 0.60574 0.35263 0.0
C298 C 0.51229 0.66144 0.24542 0.0
C299 C 0.50438 0.58773 0.25825 0.0
O300 O 0.57408 0.59382 0.23224 0.0
O301 O 0.5606 0.62999 0.21587 0.0
O302 O 0.57755 0.61082 0.27981 0.0
O303 O 0.54159 0.6064 0.28582 0.0
O304 O 0.56402 0.65849 0.25972 0.0
O305 O 0.54665 0.66051 0.29686 0.0
O306 O 0.48094 0.64239 0.30182 0.0
O307 O 0.51258 0.64259 0.32509 0.0
O308 O 0.50719 0.67251 0.26551 0.0
O309 O 0.51731 0.63819 0.2501 0.0
O310 O 0.50036 0.6008 0.27814 0.0
O311 O 0.52249 0.59291 0.24393 0.0
H312 H 0.60673 0.58065 0.18846 0.0
H313 H 0.64651 0.59201 0.17463 0.0
H314 H 0.63878 0.66664 0.20876 0.0
H315 H 0.59974 0.65465 0.22333 0.0
H316 H 0.44799 0.65817 0.34479 0.0
H317 H 0.42871 0.63802 0.37909 0.0
H318 H 0.48297 0.5767 0.3802 0.0
H319 H 0.50201 0.5969 0.34569 0.0
La320 La 0.23544 0.49656 0.14446 0.0
La321 La 0.26434 0.44797 0.13273 0.0
C322 C 0.2104 0.53805 0.14252 0.0
C323 C 0.18574 0.54575 0.13468 0.0
C324 C 0.16991 0.55672 0.15129 0.0
C325 C 0.14663 0.56443 0.14435 0.0
C326 C 0.1386 0.56151 0.12054 0.0
C327 C 0.15446 0.55036 0.10393 0.0
C328 C 0.17776 0.5426 0.1109 0.0
C329 C 0.23028 0.45743 0.17412 0.0
C330 C 0.21678 0.45723 0.10426 0.0
C331 C 0.2868 0.40476 0.1339 0.0
C332 C 0.30508 0.38882 0.14733 0.0
C333 C 0.3287 0.38722 0.13908 0.0
C334 C 0.3451 0.36894 0.14886 0.0
C335 C 0.33825 0.35163 0.16702 0.0
C336 C 0.31494 0.35402 0.17606 0.0
C337 C 0.2985 0.37233 0.16625 0.0
C338 C 0.27062 0.48872 0.1044 0.0
C339 C 0.28494 0.48823 0.17003 0.0
O340 O 0.21229 0.52308 0.16157 0.0
O341 O 0.22549 0.53096 0.12592 0.0
O342 O 0.22954 0.48155 0.18031 0.0
O343 O 0.23208 0.45584 0.15166 0.0
O344 O 0.21495 0.48026 0.11452 0.0
O345 O 0.23366 0.43996 0.11041 0.0
O346 O 0.29395 0.42517 0.12208 0.0
O347 O 0.26598 0.4089 0.14386 0.0
O348 O 0.27192 0.46489 0.09716 0.0
O349 O 0.26774 0.48855 0.12659 0.0
O350 O 0.28358 0.46351 0.16388 0.0
O351 O 0.2695 0.50607 0.16129 0.0
H352 H 0.17558 0.55936 0.16972 0.0
H353 H 0.13487 0.57257 0.15774 0.0
H354 H 0.14905 0.5481 0.08539 0.0
H355 H 0.18955 0.53434 0.0976 0.0
H356 H 0.3343 0.39943 0.12437 0.0
H357 H 0.36302 0.36793 0.14175 0.0
H358 H 0.309 0.34088 0.1899 0.0
H359 H 0.28036 0.37278 0.17285 0.0
La360 La 0.73876 0.98609 0.88668 0.0
La361 La 0.76798 0.03212 0.90027 0.0
C362 C 0.71433 0.94558 0.88707 0.0
C363 C 0.69092 0.93739 0.89633 0.0
C364 C 0.6737 0.92831 0.8802 0.0
C365 C 0.65162 0.91992 0.88832 0.0
C366 C 0.64622 0.92016 0.91289 0.0
C367 C 0.66346 0.92949 0.92905 0.0
C368 C 0.68555 0.93804 0.92088 0.0
C369 C 0.7338 0.02602 0.85729 0.0
C370 C 0.72123 0.02487 0.92848 0.0
C371 C 0.79111 0.07357 0.9004 0.0
C372 C 0.80576 0.0902 0.88476 0.0
C373 C 0.83086 0.08761 0.88515 0.0
C374 C 0.84483 0.10565 0.87316 0.0
C375 C 0.83407 0.12688 0.86063 0.0
C376 C 0.80893 0.12889 0.85951 0.0
C377 C 0.79497 0.11084 0.87147 0.0
C378 C 0.77439 0.9896 0.92714 0.0
C379 C 0.7872 0.99319 0.86081 0.0
O380 O 0.71354 0.96278 0.86965 0.0
O381 O 0.73136 0.95012 0.9027 0.0
O382 O 0.73275 1.002 0.85095 0.0
O383 O 0.73571 0.0273 0.87988 0.0
O384 O 0.71899 1.00242 0.91735 0.0
O385 O 0.73815 0.04116 0.92303 0.0
O386 O 0.80018 0.05099 0.90741 0.0
O387 O 0.76823 0.07248 0.89529 0.0
O388 O 0.7755 0.01293 0.93553 0.0
O389 O 0.77144 0.99119 0.90494 0.0
O390 O 0.78549 0.01765 0.86787 0.0
O391 O 0.77227 0.9756 0.8689 0.0
H392 H 0.67734 0.92765 0.8612 0.0
H393 H 0.63871 0.9134 0.87523 0.0
H394 H 0.66011 0.92975 0.94811 0.0
H395 H 0.69845 0.94494 0.93381 0.0
H396 H 0.83979 0.07209 0.89535 0.0
H397 H 0.86412 0.10323 0.87411 0.0
H398 H 0.79998 0.14509 0.85031 0.0
H399 H 0.77569 0.11365 0.871 0.0
La400 La 0.77655 0.9659 0.40446 0.0
La401 La 0.82024 0.99646 0.39098 0.0
C402 C 0.73775 0.94193 0.40457 0.0
C403 C 0.72648 0.92015 0.39197 0.0
C404 C 0.71735 0.89972 0.40556 0.0
C405 C 0.70559 0.87941 0.39444 0.0
C406 C 0.70246 0.87909 0.36938 0.0
C407 C 0.71202 0.8994 0.35571 0.0
C408 C 0.72391 0.91971 0.36687 0.0
C409 C 0.81352 0.95883 0.43338 0.0
C410 C 0.81006 0.94723 0.36112 0.0
C411 C 0.86025 0.01821 0.38983 0.0
C412 C 0.87918 0.03087 0.40416 0.0
C413 C 0.87712 0.05711 0.41066 0.0
C414 C 0.89674 0.06977 0.42068 0.0
C415 C 0.91895 0.05658 0.42426 0.0
C416 C 0.92063 0.03007 0.41855 0.0
C417 C 0.90105 0.01745 0.40861 0.0
C418 C 0.78058 1.00622 0.36515 0.0
C419 C 0.7862 0.01696 0.43215 0.0
O420 O 0.75604 0.9359 0.41861 0.0
O421 O 0.74097 0.96337 0.39234 0.0
O422 O 0.79141 0.95823 0.43992 0.0
O423 O 0.81454 0.96134 0.4108 0.0
O424 O 0.78952 0.9454 0.37252 0.0
O425 O 0.82599 0.9646 0.36683 0.0
O426 O 0.8397 0.03053 0.38603 0.0
O427 O 0.85768 0.99326 0.39317 0.0
O428 O 0.80198 1.00764 0.35655 0.0
O429 O 0.78255 1.00156 0.38709 0.0
O430 O 0.80843 0.01509 0.42415 0.0
O431 O 0.7693 1.00141 0.42431 0.0
H432 H 0.71915 0.89956 0.42492 0.0
H433 H 0.69895 0.8639 0.40556 0.0
H434 H 0.70981 0.89996 0.33641 0.0
H435 H 0.73079 0.9352 0.35588 0.0
H436 H 0.86062 0.06813 0.40735 0.0
H437 H 0.89458 0.09006 0.42521 0.0
H438 H 0.93742 0.01927 0.42069 0.0
H439 H 0.90338 0.99734 0.40347 0.0
La440 La 0.31493 0.48988 0.63738 0.0
La441 La 0.28393 0.53616 0.6231 0.0
C442 C 0.3402 0.44867 0.63775 0.0
C443 C 0.36452 0.44143 0.62986 0.0
C444 C 0.37996 0.42751 0.6456 0.0
C445 C 0.4033 0.42097 0.63884 0.0
C446 C 0.41167 0.42818 0.61611 0.0
C447 C 0.39616 0.44224 0.60038 0.0
C448 C 0.3728 0.44879 0.60718 0.0
C449 C 0.31949 0.52973 0.66548 0.0
C450 C 0.33044 0.52732 0.59394 0.0
C451 C 0.26047 0.57867 0.6212 0.0
C452 C 0.24812 0.5979 0.63634 0.0
C453 C 0.23429 0.59074 0.65604 0.0
C454 C 0.22205 0.6098 0.66923 0.0
C455 C 0.22357 0.63629 0.66299 0.0
C456 C 0.23782 0.64322 0.64349 0.0
C457 C 0.24993 0.62423 0.63035 0.0
C458 C 0.27746 0.49328 0.598 0.0
C459 C 0.26747 0.49884 0.66457 0.0
O460 O 0.33905 0.46458 0.6558 0.0
O461 O 0.32432 0.45469 0.62099 0.0
O462 O 0.32154 0.50573 0.6724 0.0
O463 O 0.31695 0.53111 0.6429 0.0
O464 O 0.33466 0.5059 0.60687 0.0
O465 O 0.31214 0.54318 0.5981 0.0
O466 O 0.2508 0.55598 0.61858 0.0
O467 O 0.28376 0.57686 0.62367 0.0
O468 O 0.27466 0.51654 0.5891 0.0
O469 O 0.28156 0.4952 0.61994 0.0
O470 O 0.26844 0.52326 0.65702 0.0
O471 O 0.282 0.48064 0.65581 0.0
H472 H 0.37399 0.42181 0.66324 0.0
H473 H 0.41486 0.41048 0.65153 0.0
H474 H 0.40192 0.44782 0.58265 0.0
H475 H 0.36124 0.45954 0.59466 0.0
H476 H 0.23275 0.5705 0.66107 0.0
H477 H 0.2114 0.60382 0.68427 0.0
H478 H 0.2391 0.66332 0.6379 0.0
H479 H 0.26047 0.63014 0.61518 0.0
H480 H 0.16818 0.299 0.51335 0.0
H481 H 0.18584 0.33996 0.52408 0.0
H482 H 0.25377 0.30043 0.53754 0.0
H483 H 0.23614 0.25905 0.52594 0.0
H484 H 0.20391 0.35207 0.5669 0.0
H485 H 0.2737 0.36307 0.49804 0.0
H486 H 0.25014 0.33995 0.49534 0.0
H487 H 0.27565 0.3329 0.51449 0.0
C488 C 0.187 0.29898 0.51817 0.0
C489 C 0.20082 0.27577 0.51862 0.0
C490 C 0.19707 0.32248 0.5244 0.0
C491 C 0.22122 0.32346 0.53138 0.0
C492 C 0.23522 0.30032 0.53172 0.0
H493 H 0.27699 0.44558 0.61889 0.0
H494 H 0.26477 0.40487 0.60146 0.0
C495 C 0.22512 0.27666 0.52528 0.0
C496 C 0.23087 0.34848 0.53986 0.0
H497 H 0.27366 0.39347 0.52985 0.0
C498 C 0.21914 0.3611 0.55872 0.0
C499 C 0.25054 0.36052 0.52902 0.0
C500 C 0.26314 0.34859 0.50795 0.0
C501 C 0.22659 0.38515 0.56719 0.0
C502 C 0.24673 0.3968 0.55692 0.0
C503 C 0.25832 0.38445 0.53781 0.0
C504 C 0.25626 0.42136 0.56648 0.0
C505 C 0.21257 0.39804 0.58691 0.0
C506 C 0.25644 0.44415 0.55235 0.0
C507 C 0.26376 0.46764 0.56229 0.0
C508 C 0.27108 0.4686 0.58644 0.0
C509 C 0.27152 0.44557 0.60022 0.0
C510 C 0.26437 0.42223 0.59032 0.0
H511 H 0.19417 0.39054 0.58803 0.0
H512 H 0.22176 0.39398 0.60435 0.0
H513 H 0.21131 0.41941 0.58416 0.0
H514 H 0.25033 0.44389 0.53386 0.0
H515 H 0.26329 0.48507 0.55125 0.0
H516 H 0.8007 0.94407 0.84657 0.0
H517 H 0.83833 0.93071 0.82761 0.0
H518 H 0.85932 0.01049 0.82417 0.0
H519 H 0.82193 0.02408 0.84296 0.0
H520 H 0.86045 0.94876 0.78199 0.0
H521 H 0.91335 0.97072 0.8641 0.0
H522 H 0.88142 0.9664 0.86456 0.0
H523 H 0.89319 0.99602 0.85304 0.0
C524 C 0.81314 0.95883 0.84146 0.0
C525 C 0.80829 0.98514 0.84646 0.0
C526 C 0.83466 0.95115 0.83067 0.0
C527 C 0.85176 0.96958 0.82484 0.0
C528 C 0.84652 0.99592 0.82884 0.0
H529 H 1.00157 0.94972 0.7811 0.0
H530 H 0.96253 0.96891 0.79223 0.0
C531 C 0.82503 1.00363 0.83951 0.0
C532 C 0.87546 0.96125 0.81548 0.0
H533 H 0.93491 0.95667 0.83047 0.0
C534 C 0.87675 0.9505 0.79255 0.0
C535 C 0.89672 0.96377 0.82921 0.0
C536 C 0.89626 0.97468 0.85418 0.0
C537 C 0.89877 0.94219 0.78296 0.0
C538 C 0.92 0.94409 0.79694 0.0
C539 C 0.9187 0.95527 0.81972 0.0
C540 C 0.94344 0.93309 0.78894 0.0
C541 C 0.89908 0.93176 0.75782 0.0
C542 C 0.94577 0.90662 0.78363 0.0
C543 C 0.96788 0.89575 0.77724 0.0
C544 C 0.98832 0.91102 0.77624 0.0
C545 C 0.9861 0.93754 0.7816 0.0
C546 C 0.96383 0.94847 0.78797 0.0
H547 H 0.88358 0.93948 0.74701 0.0
H548 H 0.91582 0.93669 0.74853 0.0
H549 H 0.89788 0.91031 0.75859 0.0
H550 H 0.93055 0.89415 0.78493 0.0
H551 H 0.96902 0.87518 0.77356 0.0
H552 H 0.3688 0.69924 0.05146 0.0
H553 H 0.3504 0.65911 0.06491 0.0
H554 H 0.32415 0.64613 0.99321 0.0
H555 H 0.34254 0.68616 0.97951 0.0
H556 H 0.28963 0.63982 0.03357 0.0
H557 H 0.37573 0.58407 0.04482 0.0
H558 H 0.37433 0.61571 0.05813 0.0
H559 H 0.37272 0.61288 0.02614 0.0
C560 C 0.35894 0.68799 0.03858 0.0
C561 C 0.35716 0.69589 1.0144 0.0
C562 C 0.34858 0.66499 0.04627 0.0
C563 C 0.33615 0.64959 0.02998 0.0
C564 C 0.33378 0.65773 1.006 0.0
H565 H 0.28631 0.49158 0.05805 0.0
H566 H 0.30118 0.53021 0.03719 0.0
C567 C 0.34432 0.68059 0.99823 0.0
C568 C 0.32576 0.62487 0.03797 0.0
H569 H 0.34088 0.5641 0.05919 0.0
C570 C 0.30079 0.62319 0.039 0.0
C571 C 0.34041 0.60316 0.04479 0.0
C572 C 0.3673 0.6038 0.0433 0.0
C573 C 0.2901 0.60058 0.04754 0.0
C574 C 0.30478 0.57919 0.0551 0.0
C575 C 0.32971 0.58056 0.05331 0.0
C576 C 0.29468 0.5561 0.06678 0.0
C577 C 0.26321 0.59974 0.0488 0.0
C578 C 0.28623 0.55799 0.09021 0.0
C579 C 0.27806 0.53609 0.10214 0.0
C580 C 0.27795 0.51188 0.09079 0.0
C581 C 0.28606 0.51004 0.06714 0.0
C582 C 0.29455 0.53201 0.05526 0.0
H583 H 0.25432 0.61573 0.03821 0.0
H584 H 0.25681 0.58088 0.04216 0.0
H585 H 0.25771 0.60158 0.06775 0.0
H586 H 0.28649 0.57633 0.09949 0.0
H587 H 0.27227 0.53808 0.12046 0.0
H588 H 0.56783 0.0872 0.32593 0.0
H589 H 0.60949 0.07468 0.33538 0.0
H590 H 0.61765 0.04412 0.26427 0.0
H591 H 0.57567 0.05614 0.25494 0.0
H592 H 0.63727 0.01118 0.29983 0.0
H593 H 0.66881 0.11118 0.31203 0.0
H594 H 0.6434 0.10409 0.33004 0.0
H595 H 0.64043 0.10449 0.2979 0.0
C596 C 0.57849 0.07775 0.31233 0.0
C597 C 0.56861 0.07295 0.28959 0.0
C598 C 0.60238 0.07082 0.31767 0.0
C599 C 0.61694 0.05895 0.30038 0.0
C600 C 0.60689 0.05351 0.27782 0.0
H601 H 0.77093 0.01327 0.31683 0.0
H602 H 0.73204 0.02588 0.29797 0.0
C603 C 0.58296 0.06051 0.27246 0.0
C604 C 0.64243 0.0518 0.30614 0.0
H605 H 0.6948 0.07672 0.32691 0.0
C606 C 0.64994 0.02556 0.30537 0.0
C607 C 0.6591 0.07057 0.31325 0.0
C608 C 0.65264 0.09919 0.31315 0.0
C609 C 0.67325 0.01753 0.31262 0.0
C610 C 0.68949 0.03618 0.32068 0.0
C611 C 0.6823 0.06247 0.32068 0.0
C612 C 0.71311 0.02843 0.33144 0.0
C613 C 0.68022 0.98907 0.31258 0.0
C614 C 0.71528 0.02582 0.35638 0.0
C615 C 0.73724 0.01863 0.36706 0.0
C616 C 0.75762 0.01392 0.35307 0.0
C617 C 0.75554 0.01674 0.32804 0.0
C618 C 0.73337 0.02388 0.31728 0.0
H619 H 0.66575 0.97697 0.30527 0.0
H620 H 0.69652 0.98599 0.30171 0.0
H621 H 0.68463 0.98241 0.33115 0.0
H622 H 0.69991 0.02933 0.36762 0.0
H623 H 0.73825 0.01694 0.3864 0.0
H624 H 0.73998 0.24765 0.51647 0.0
H625 H 0.76064 0.20734 0.50359 0.0
H626 H 0.69395 0.16739 0.50607 0.0
H627 H 0.6734 0.2071 0.51845 0.0
H628 H 0.76082 0.15299 0.52638 0.0
H629 H 0.71911 0.16042 0.43564 0.0
H630 H 0.72135 0.18794 0.45521 0.0
H631 H 0.69858 0.16454 0.45988 0.0
C632 C 0.72986 0.23017 0.51442 0.0
C633 C 0.7051 0.23051 0.51844 0.0
C634 C 0.74164 0.20722 0.50714 0.0
C635 C 0.72871 0.18452 0.5037 0.0
C636 C 0.70419 0.18475 0.50844 0.0
H637 H 0.74174 0.03074 0.44845 0.0
H638 H 0.72985 0.0711 0.46809 0.0
C639 C 0.6925 0.20749 0.51564 0.0
C640 C 0.74017 0.16063 0.49414 0.0
H641 H 0.73727 0.11972 0.44663 0.0
C642 C 0.756 0.1458 0.50883 0.0
C643 C 0.73373 0.15136 0.47127 0.0
C644 C 0.71742 0.16696 0.45445 0.0
C645 C 0.76481 0.12132 0.50156 0.0
C646 C 0.75774 0.11173 0.47896 0.0
C647 C 0.74247 0.12698 0.46406 0.0
C648 C 0.76567 0.08585 0.47025 0.0
C649 C 0.78085 0.1055 0.51841 0.0
C650 C 0.78984 0.08049 0.46539 0.0
C651 C 0.79673 0.05737 0.45418 0.0
C652 C 0.77953 0.03926 0.44747 0.0
C653 C 0.75547 0.0442 0.45336 0.0
C654 C 0.74862 0.06731 0.46454 0.0
H655 H 0.78027 0.11297 0.53699 0.0
H656 H 0.77569 0.08484 0.51863 0.0
H657 H 0.79958 0.10632 0.51218 0.0
H658 H 0.80325 0.09468 0.46928 0.0
H659 H 0.81541 0.05426 0.44989 0.0
H660 H 0.08375 0.42839 0.78933 0.0
H661 H 0.12063 0.44954 0.77795 0.0
H662 H 0.10166 0.44134 0.70331 0.0
H663 H 0.06454 0.42096 0.71449 0.0
H664 H 0.15678 0.42868 0.75421 0.0
H665 H 0.12294 0.51475 0.70317 0.0
H666 H 0.10378 0.49559 0.7217 0.0
H667 H 0.11052 0.48566 0.69163 0.0
C668 C 0.08719 0.4316 0.7705 0.0
C669 C 0.07114 0.42307 0.75282 0.0
C670 C 0.10832 0.44363 0.76402 0.0
C671 C 0.11383 0.44735 0.73977 0.0
C672 C 0.09756 0.43936 0.72213 0.0
H673 H 0.2504 0.45039 0.67247 0.0
H674 H 0.21424 0.43916 0.6938 0.0
C675 C 0.07634 0.42757 0.72858 0.0
C676 C 0.13741 0.45753 0.73281 0.0
H677 H 0.16364 0.50093 0.69551 0.0
C678 C 0.15828 0.44475 0.74165 0.0
C679 C 0.13948 0.47876 0.71674 0.0
C680 C 0.11797 0.49464 0.70799 0.0
C681 C 0.18106 0.45186 0.73405 0.0
C682 C 0.183 0.47182 0.71663 0.0
C683 C 0.1622 0.48538 0.70862 0.0
C684 C 0.2062 0.47829 0.70563 0.0
C685 C 0.20276 0.43787 0.74483 0.0
C686 C 0.21368 0.50407 0.70488 0.0
C687 C 0.23419 0.51061 0.69235 0.0
C688 C 0.24766 0.49147 0.68035 0.0
C689 C 0.24061 0.46554 0.68178 0.0
C690 C 0.21995 0.45907 0.69409 0.0
H691 H 0.19904 0.43028 0.76308 0.0
H692 H 0.20765 0.42103 0.73351 0.0
H693 H 0.21831 0.45077 0.74595 0.0
H694 H 0.20335 0.51926 0.71358 0.0
H695 H 0.23918 0.53077 0.69162 0.0
H696 H 0.77243 0.97897 0.97557 0.0
H697 H 0.78124 0.93699 0.99575 0.0
H698 H 0.79874 0.90313 0.9276 0.0
H699 H 0.78881 0.94421 0.90756 0.0
H700 H 0.77413 0.8706 0.9515 0.0
H701 H 0.84493 0.90596 1.0127 0.0
H702 H 0.81613 0.92133 1.01673 0.0
H703 H 0.83181 0.92606 0.98913 0.0
C704 C 0.7782 0.96249 0.96503 0.0
C705 C 0.78005 0.96488 0.94004 0.0
C706 C 0.78338 0.93853 0.97655 0.0
C707 C 0.79111 0.91681 0.96331 0.0
C708 C 0.7928 0.9194 0.93833 0.0
H709 H 0.88056 0.78722 1.00212 0.0
H710 H 0.86076 0.82837 0.99142 0.0
C711 C 0.78719 0.94302 0.92685 0.0
C712 C 0.79766 0.89125 0.97494 0.0
H713 H 0.83624 0.86172 1.01541 0.0
C714 C 0.78766 0.86868 0.96556 0.0
C715 C 0.81535 0.8886 0.99328 0.0
C716 C 0.82786 0.91172 1.00343 0.0
C717 C 0.79563 0.8437 0.97302 0.0
C718 C 0.81346 0.84105 0.99123 0.0
C719 C 0.82257 0.86364 1.00148 0.0
C720 C 0.8249 0.81541 0.99811 0.0
C721 C 0.78582 0.82053 0.96026 0.0
C722 C 0.81149 0.79405 1.00553 0.0
C723 C 0.82289 0.77003 1.01116 0.0
C724 C 0.84791 0.76723 1.01007 0.0
C725 C 0.86124 0.78873 1.00317 0.0
C726 C 0.84991 0.81239 0.99712 0.0
H727 H 0.77702 0.82613 0.94293 0.0
H728 H 0.8002 0.80586 0.9567 0.0
H729 H 0.77222 0.81137 0.97165 0.0
H730 H 0.79226 0.79594 1.00712 0.0
H731 H 0.81224 0.75385 1.01671 0.0
H732 H 0.49196 0.57486 0.2125 0.0
H733 H 0.45534 0.55358 0.19979 0.0
H734 H 0.43828 0.53844 0.27368 0.0
H735 H 0.47437 0.56049 0.2865 0.0
H736 H 0.43495 0.50689 0.20511 0.0
H737 H 0.3811 0.58222 0.25185 0.0
H738 H 0.41296 0.5844 0.24817 0.0
H739 H 0.40122 0.56417 0.27148 0.0
C740 C 0.4807 0.56644 0.22601 0.0
C741 C 0.48587 0.56958 0.25049 0.0
C742 C 0.4597 0.55439 0.21873 0.0
C743 C 0.44369 0.54513 0.23581 0.0
C744 C 0.44996 0.5462 0.26021 0.0
H745 H 0.31711 0.45766 0.19567 0.0
H746 H 0.35525 0.47054 0.21324 0.0
C747 C 0.47071 0.55858 0.2675 0.0
C748 C 0.41981 0.53599 0.22817 0.0
H749 H 0.35983 0.5479 0.23464 0.0
C750 C 0.41852 0.51579 0.21159 0.0
C751 C 0.39834 0.548 0.23628 0.0
C752 C 0.39839 0.57107 0.25273 0.0
C753 C 0.39639 0.50722 0.20295 0.0
C754 C 0.37493 0.51868 0.21166 0.0
C755 C 0.37625 0.53889 0.22822 0.0
C756 C 0.35094 0.51102 0.20288 0.0
C757 C 0.39629 0.48661 0.18396 0.0
C758 C 0.33516 0.52973 0.19245 0.0
C759 C 0.31312 0.52254 0.18286 0.0
C760 C 0.30646 0.49643 0.18339 0.0
C761 C 0.32181 0.4779 0.19478 0.0
C762 C 0.34374 0.48518 0.20461 0.0
H763 H 0.41371 0.48512 0.17464 0.0
H764 H 0.39305 0.4675 0.19249 0.0
H765 H 0.38194 0.49065 0.17038 0.0
H766 H 0.34022 0.54983 0.19107 0.0
H767 H 0.30178 0.53729 0.17416 0.0
H768 H 0.58347 0.16339 0.29777 0.0
H769 H 0.59827 0.18555 0.33344 0.0
H770 H 0.52741 0.18567 0.36307 0.0
H771 H 0.51237 0.16461 0.32742 0.0
H772 H 0.54783 0.23037 0.37139 0.0
H773 H 0.61116 0.14956 0.39675 0.0
H774 H 0.61661 0.1635 0.36779 0.0
H775 H 0.58925 0.14684 0.37298 0.0
C776 C 0.571 0.16845 0.31176 0.0
C777 C 0.54677 0.16206 0.30976 0.0
C778 C 0.57953 0.18088 0.33224 0.0
C779 C 0.56406 0.18673 0.3512 0.0
C780 C 0.53973 0.18125 0.34877 0.0
H781 H 0.60571 0.21005 0.49938 0.0
H782 H 0.58905 0.19422 0.4617 0.0
C783 C 0.53117 0.16914 0.3283 0.0
C784 C 0.57297 0.19801 0.3739 0.0
H785 H 0.61183 0.18697 0.42085 0.0
C786 C 0.56185 0.22089 0.38221 0.0
C787 C 0.59094 0.18536 0.38823 0.0
C788 C 0.60254 0.15983 0.38115 0.0
C789 C 0.56813 0.23146 0.40442 0.0
C790 C 0.58658 0.21924 0.41841 0.0
C791 C 0.59775 0.19639 0.41008 0.0
C792 C 0.5947 0.22974 0.44173 0.0
C793 C 0.55438 0.25514 0.41293 0.0
C794 C 0.60311 0.25509 0.44317 0.0
C795 C 0.61226 0.26433 0.46476 0.0
C796 C 0.61367 0.24821 0.48529 0.0
C797 C 0.60485 0.22298 0.48394 0.0
C798 C 0.59542 0.21387 0.46238 0.0
H799 H 0.53644 0.257 0.40418 0.0
H800 H 0.55202 0.25454 0.43265 0.0
H801 H 0.56437 0.27277 0.40826 0.0
H802 H 0.60334 0.2675 0.4274 0.0
H803 H 0.61915 0.28377 0.46505 0.0
H804 H 0.10505 0.21524 0.559 0.0
H805 H 0.08648 0.22841 0.59642 0.0
H806 H 0.09005 0.30874 0.57474 0.0
H807 H 0.10868 0.29576 0.53708 0.0
H808 H 0.10853 0.26036 0.63053 0.0
H809 H 0.02109 0.30284 0.5995 0.0
H810 H 0.03908 0.28147 0.58118 0.0
H811 H 0.04661 0.31496 0.58416 0.0
C812 C 0.10152 0.23572 0.5619 0.0
C813 C 0.10839 0.25445 0.54493 0.0
C814 C 0.09094 0.2432 0.5834 0.0
C815 C 0.08673 0.26953 0.58837 0.0
C816 C 0.09278 0.28827 0.57115 0.0
H817 H 0.04312 0.36157 0.70826 0.0
H818 H 0.05433 0.34357 0.6697 0.0
C819 C 0.10347 0.28081 0.54962 0.0
C820 C 0.0777 0.27738 0.61226 0.0
H821 H 0.03219 0.31015 0.64007 0.0
C822 C 0.09173 0.27104 0.63267 0.0
C823 C 0.05582 0.29135 0.61501 0.0
C824 C 0.03962 0.29791 0.59385 0.0
C825 C 0.08489 0.27904 0.65566 0.0
C826 C 0.06308 0.29325 0.65842 0.0
C827 C 0.04886 0.2992 0.63801 0.0
C828 C 0.05545 0.3036 0.68204 0.0
C829 C 0.10158 0.2731 0.6766 0.0
C830 C 0.05198 0.28714 0.70193 0.0
C831 C 0.04561 0.29748 0.72421 0.0
C832 C 0.04236 0.32441 0.72686 0.0
C833 C 0.04536 0.34072 0.70681 0.0
C834 C 0.05179 0.33044 0.6847 0.0
H835 H 0.11994 0.2678 0.67067 0.0
H836 H 0.10261 0.28998 0.68872 0.0
H837 H 0.09476 0.25644 0.68699 0.0
H838 H 0.0542 0.26631 0.70024 0.0
H839 H 0.04329 0.28446 0.73932 0.0
H840 H 0.04788 0.8021 0.817 0.0
H841 H 0.03568 0.78222 0.85472 0.0
H842 H 0.9616 0.79781 0.83571 0.0
H843 H 0.97359 0.8171 0.79775 0.0
H844 H 1.01281 0.80652 0.89003 0.0
H845 H 0.95858 0.72442 0.86025 0.0
H846 H 0.9779 0.74155 0.84023 0.0
H847 H 0.94849 0.75453 0.84668 0.0
C848 C 0.02896 0.80077 0.82059 0.0
C849 C 1.01171 0.81116 0.80431 0.0
C850 C 0.02202 0.78947 0.84222 0.0
C851 C 0.99771 0.7883 0.84801 0.0
C852 C 0.98044 0.79791 0.83144 0.0
H853 H 0.93375 0.78679 0.9877 0.0
H854 H 0.95332 0.79831 0.95033 0.0
C855 C 0.98734 0.80903 0.80972 0.0
C856 C 0.99052 0.77908 0.87213 0.0
H857 H 0.95319 0.73804 0.90082 0.0
C858 C 0.99998 0.79132 0.8924 0.0
C859 C 0.97402 0.75904 0.8753 0.0
C860 C 0.96435 0.74395 0.85446 0.0
C861 C 0.99283 0.78465 0.91564 0.0
C862 C 0.97532 0.76564 0.9187 0.0
C863 C 0.96644 0.75282 0.8985 0.0
C864 C 0.96547 0.75908 0.94256 0.0
C865 C 1.00427 0.79794 0.93666 0.0
C866 C 0.96568 0.73319 0.95067 0.0
C867 C 0.95426 0.72651 0.9719 0.0
C868 C 0.9424 0.74561 0.98549 0.0
C869 C 0.94297 0.77166 0.97783 0.0
C870 C 0.95422 0.77829 0.95646 0.0
H871 H 0.02217 0.80525 0.93208 0.0
H872 H 0.99284 0.81486 0.94179 0.0
H873 H 1.00626 0.78464 0.95239 0.0
H874 H 0.97421 0.71803 0.94026 0.0
H875 H 0.95417 0.70626 0.9773 0.0
H876 H 0.51067 0.63332 0.20464 0.0
H877 H 0.49646 0.64721 0.16483 0.0
H878 H 0.48278 0.72452 0.19087 0.0
H879 H 0.49691 0.71059 0.23118 0.0
H880 H 0.44681 0.67374 0.15532 0.0
H881 H 0.52575 0.72942 0.12678 0.0
H882 H 0.52832 0.70363 0.14895 0.0
H883 H 0.51434 0.73407 0.15653 0.0
C884 C 0.50486 0.65338 0.20193 0.0
C885 C 0.50499 0.67091 0.22109 0.0
C886 C 0.49665 0.66124 0.17914 0.0
C887 C 0.48862 0.68688 0.17484 0.0
C888 C 0.48903 0.70464 0.19379 0.0
H889 H 0.44235 0.76382 0.04124 0.0
H890 H 0.45643 0.75339 0.08198 0.0
C891 C 0.49709 0.6967 0.21677 0.0
C892 C 0.47924 0.69457 0.15061 0.0
H893 H 0.49385 0.72657 0.09911 0.0
C894 C 0.45702 0.68537 0.14303 0.0
C895 C 0.49255 0.7098 0.13466 0.0
C896 C 0.51664 0.71983 0.14192 0.0
C897 C 0.44766 0.69112 0.11996 0.0
C898 C 0.46127 0.70578 0.10365 0.0
C899 C 0.48343 0.71521 0.11143 0.0
C900 C 0.45275 0.71187 0.07863 0.0
C901 C 0.42302 0.6819 0.11356 0.0
C902 C 0.4463 0.69206 0.06281 0.0
C903 C 0.43785 0.69807 0.03954 0.0
C904 C 0.43598 0.72399 0.03152 0.0
C905 C 0.4432 0.74369 0.04704 0.0
C906 C 0.4514 0.73772 0.07032 0.0
H907 H 0.41228 0.67832 0.12982 0.0
H908 H 0.4131 0.69623 0.10192 0.0
H909 H 0.42471 0.66332 0.1038 0.0
H910 H 0.44782 0.67191 0.06842 0.0
H911 H 0.43259 0.68247 0.02792 0.0
H912 H 0.16197 0.29456 0.33703 0.0
H913 H 0.1749 0.30861 0.29724 0.0
H914 H 0.21675 0.36824 0.32966 0.0
H915 H 0.2046 0.35385 0.36933 0.0
H916 H 0.16651 0.35602 0.2762 0.0
H917 H 0.26401 0.33709 0.28316 0.0
H918 H 0.2433 0.32315 0.30391 0.0
H919 H 0.25347 0.3557 0.30801 0.0
C920 C 0.17431 0.31032 0.33569 0.0
C921 C 0.18223 0.3231 0.35637 0.0
C922 C 0.1816 0.3184 0.31294 0.0
C923 C 0.19713 0.33919 0.31047 0.0
C924 C 0.20522 0.35176 0.33111 0.0
H925 H 0.23567 0.45954 0.22204 0.0
H926 H 0.2288 0.42547 0.25163 0.0
C927 C 0.19797 0.34375 0.35379 0.0
C928 C 0.20346 0.34931 0.28642 0.0
H929 H 0.25085 0.3702 0.25415 0.0
C930 C 0.18495 0.35849 0.27104 0.0
C931 C 0.22753 0.35235 0.2796 0.0
C932 C 0.24819 0.34127 0.29445 0.0
C933 C 0.18988 0.37244 0.24999 0.0
C934 C 0.2139 0.37718 0.24419 0.0
C935 C 0.23244 0.36656 0.25871 0.0
C936 C 0.21988 0.39648 0.22553 0.0
C937 C 0.16942 0.38362 0.23492 0.0
C938 C 0.21755 0.39126 0.20097 0.0
C939 C 0.22163 0.41079 0.18388 0.0
C940 C 0.22784 0.43573 0.19128 0.0
C941 C 0.23074 0.44054 0.21583 0.0
C942 C 0.22691 0.42109 0.23277 0.0
H943 H 0.1517 0.37878 0.24228 0.0
H944 H 0.17064 0.40507 0.23375 0.0
H945 H 0.17059 0.37602 0.21644 0.0
H946 H 0.21219 0.3723 0.19509 0.0
H947 H 0.21924 0.40665 0.16503 0.0
H948 H 0.91041 0.86828 0.61435 0.0
H949 H 0.89491 0.88347 0.57549 0.0
H950 H 0.95524 0.93305 0.5678 0.0
H951 H 0.97123 0.91758 0.60667 0.0
H952 H 0.91169 0.95832 0.55735 0.0
H953 H 0.91836 0.8658 0.50837 0.0
H954 H 0.90309 0.86243 0.53626 0.0
H955 H 0.93411 0.87091 0.53632 0.0
C956 C 0.9207 0.88204 0.60427 0.0
C957 C 0.94224 0.89147 0.61368 0.0
C958 C 0.91177 0.89073 0.58199 0.0
C959 C 0.92413 0.90903 0.56846 0.0
C960 C 0.94549 0.91876 0.57783 0.0
H961 H 0.86112 0.94642 0.42472 0.0
H962 H 0.89278 0.93718 0.45519 0.0
C963 C 0.95451 0.91 0.60015 0.0
C964 C 0.91391 0.91882 0.54519 0.0
H965 H 0.89082 0.89835 0.49184 0.0
C966 C 0.90754 0.94528 0.54284 0.0
C967 C 0.90888 0.90199 0.52599 0.0
C968 C 0.9167 0.87375 0.52671 0.0
C969 C 0.89479 0.95494 0.5226 0.0
C970 C 0.88799 0.93766 0.50435 0.0
C971 C 0.89585 0.91159 0.5059 0.0
C972 C 0.87008 0.9454 0.48545 0.0
C973 C 0.88808 0.98347 0.52128 0.0
C974 C 0.84696 0.95305 0.49233 0.0
C975 C 0.82906 0.95808 0.47515 0.0
C976 C 0.83376 0.95558 0.45061 0.0
C977 C 0.85706 0.94859 0.44352 0.0
C978 C 0.87508 0.94328 0.46088 0.0
H979 H 0.90092 0.99514 0.53169 0.0
H980 H 0.88747 0.99069 0.50245 0.0
H981 H 0.87011 0.98662 0.52909 0.0
H982 H 0.84249 0.95432 0.51111 0.0
H983 H 0.8113 0.96347 0.48121 0.0
H984 H 0.3074 0.52843 0.71168 0.0
H985 H 0.31664 0.55964 0.74264 0.0
H986 H 0.34617 0.61051 0.68945 0.0
H987 H 0.33636 0.57912 0.65794 0.0
H988 H 0.36386 0.57235 0.752 0.0
H989 H 0.30701 0.66063 0.73255 0.0
H990 H 0.3002 0.62925 0.72049 0.0
H991 H 0.32402 0.64755 0.70812 0.0
C992 C 0.31541 0.54652 0.70646 0.0
C993 C 0.32137 0.55132 0.68249 0.0
C994 C 0.32069 0.56433 0.72419 0.0
C995 C 0.33219 0.58736 0.71845 0.0
C996 C 0.33705 0.59298 0.69427 0.0
H997 H 0.39337 0.69714 0.81968 0.0
H998 H 0.38115 0.67493 0.78314 0.0
C999 C 0.33148 0.57509 0.6763 0.0
C1000 C 0.34108 0.60364 0.73832 0.0
H1001 H 0.33365 0.66223 0.76574 0.0
C1002 C 0.3573 0.59205 0.75493 0.0
C1003 C 0.33265 0.62937 0.74205 0.0
C1004 C 0.31489 0.64251 0.72501 0.0
C1005 C 0.36496 0.60523 0.77537 0.0
C1006 C 0.35596 0.63064 0.77956 0.0
C1007 C 0.34035 0.64264 0.76258 0.0
C1008 C 0.36242 0.64474 0.80169 0.0
C1009 C 0.38267 0.59182 0.79235 0.0
C1010 C 0.35568 0.63531 0.82426 0.0
C1011 C 0.36274 0.64786 0.8452 0.0
C1012 C 0.37672 0.67011 0.844 0.0
C1013 C 0.38301 0.67977 0.8213 0.0
C1014 C 0.37585 0.66727 0.80036 0.0
H1015 H 0.39221 0.57527 0.78374 0.0
H1016 H 0.3961 0.60561 0.79899 0.0
H1017 H 0.373 0.58414 0.80802 0.0
H1018 H 0.34508 0.61809 0.82566 0.0
H1019 H 0.35762 0.63986 0.86235 0.0
H1020 H 0.6554 0.10321 0.13228 0.0
H1021 H 0.67091 0.08877 0.0938 0.0
H1022 H 0.60199 0.05894 0.07502 0.0
H1023 H 0.58639 0.0726 0.11377 0.0
H1024 H 0.67136 0.03631 0.07434 0.0
H1025 H 0.61949 0.1082 0.01792 0.0
H1026 H 0.62414 0.11235 0.04971 0.0
H1027 H 0.60277 0.08966 0.0391 0.0
C1028 C 0.64353 0.09332 0.12016 0.0
C1029 C 0.61956 0.08915 0.1263 0.0
C1030 C 0.65243 0.08521 0.09806 0.0
C1031 C 0.63757 0.073 0.08144 0.0
C1032 C 0.6137 0.06868 0.08743 0.0
H1033 H 0.69088 0.99311 0.95296 0.0
H1034 H 0.66853 1.00339 0.98936 0.0
C1035 C 0.60479 0.07663 0.1096 0.0
C1036 C 0.6472 0.06467 0.05793 0.0
H1037 H 0.64401 0.0778 0.99777 0.0
C1038 C 0.66528 0.04523 0.05757 0.0
C1039 C 0.63936 0.07648 0.0361 0.0
C1040 C 0.62049 0.09797 0.03555 0.0
C1041 C 0.67583 0.0374 0.03598 0.0
C1042 C 0.66799 0.04921 1.01413 0.0
C1043 C 0.64982 0.06856 1.01449 0.0
C1044 C 0.67978 0.04319 0.99101 0.0
C1045 C 0.69584 0.01716 0.03678 0.0
C1046 C 0.69285 0.06234 0.9794 0.0
C1047 C 0.70559 0.05656 0.95866 0.0
C1048 C 0.7054 0.0315 0.94887 0.0
C1049 C 0.69144 0.01259 0.95997 0.0
C1050 C 0.67879 0.01838 0.98088 0.0
H1051 H 0.70263 0.01335 0.05532 0.0
H1052 H 0.68922 0.9987 0.02951 0.0
H1053 H 0.71096 0.02331 0.02553 0.0
H1054 H 0.6938 0.08163 0.98681 0.0
H1055 H 0.716 0.07168 0.95058 0.0
H1056 H 0.67141 0.20081 0.6954 0.0
H1057 H 0.68474 0.18282 0.73433 0.0
H1058 H 0.71565 0.11611 0.69916 0.0
H1059 H 0.70323 0.1343 0.66029 0.0
H1060 H 0.67209 0.13745 0.7557 0.0
H1061 H 0.76993 0.13558 0.74329 0.0
H1062 H 0.74965 0.15394 0.72371 0.0
H1063 H 0.75489 0.11971 0.71922 0.0
C1064 C 0.68147 0.18255 0.6959 0.0
C1065 C 0.68624 0.16905 0.67461 0.0
C1066 C 0.68894 0.17221 0.71822 0.0
C1067 C 0.70156 0.14829 0.71972 0.0
C1068 C 0.70644 0.13487 0.6985 0.0
H1069 H 0.73759 0.02289 0.80943 0.0
H1070 H 0.73122 0.05702 0.77934 0.0
C1071 C 0.699 0.14516 0.67625 0.0
C1072 C 0.70843 0.13641 0.7434 0.0
H1073 H 0.75523 0.10642 0.77363 0.0
C1074 C 0.69036 0.13118 0.75989 0.0
C1075 C 0.7323 0.12841 0.74902 0.0
C1076 C 0.75283 0.13495 0.73297 0.0
C1077 C 0.69524 0.11657 0.78095 0.0
C1078 C 0.71884 0.10713 0.78573 0.0
C1079 C 0.73713 0.11362 0.76994 0.0
C1080 C 0.72419 0.08743 0.80486 0.0
C1081 C 0.67491 0.10991 0.7972 0.0
C1082 C 0.72282 0.09325 0.8294 0.0
C1083 C 0.7266 0.07358 0.84686 0.0
C1084 C 0.7316 0.04789 0.8399 0.0
C1085 C 0.73358 0.04245 0.81538 0.0
C1086 C 0.73002 0.06196 0.79811 0.0
H1087 H 0.65728 0.11685 0.78986 0.0
H1088 H 0.67445 0.08857 0.80007 0.0
H1089 H 0.67774 0.11894 0.81493 0.0
H1090 H 0.71858 0.11287 0.835 0.0
H1091 H 0.72502 0.07831 0.86563 0.0
H1092 H 0.18309 0.48939 0.0822 0.0
H1093 H 0.15875 0.48024 0.04666 0.0
H1094 H 0.18893 0.40242 0.04522 0.0
H1095 H 0.21321 0.41124 0.08068 0.0
H1096 H 0.1775 0.46495 1.00162 0.0
H1097 H 0.11646 0.39169 0.03805 0.0
H1098 H 0.13306 0.4132 0.05698 0.0
H1099 H 0.14753 0.38486 0.0447 0.0
C1100 C 0.18431 0.4702 0.07456 0.0
C1101 C 0.20015 0.45107 0.08433 0.0
C1102 C 0.17041 0.46504 0.05421 0.0
C1103 C 0.17188 0.44059 0.04346 0.0
C1104 C 0.18722 0.42128 0.05348 0.0
H1105 H 0.12307 0.36308 0.91792 0.0
H1106 H 0.14133 0.3771 0.95534 0.0
C1107 C 0.20119 0.42643 0.07372 0.0
C1108 C 0.15864 0.43562 0.02087 0.0
H1109 H 0.11849 0.3951 0.99547 0.0
C1110 C 0.16436 0.44992 1.00027 0.0
C1111 C 0.14159 0.41595 0.01923 0.0
C1112 C 0.13409 0.40068 0.04095 0.0
C1113 C 0.15419 0.44433 0.97782 0.0
C1114 C 0.13751 0.42425 0.97608 0.0
C1115 C 0.13135 0.41043 0.99682 0.0
C1116 C 0.12698 0.41645 0.95279 0.0
C1117 C 0.16216 0.45922 0.95604 0.0
C1118 C 0.11285 0.43395 0.93885 0.0
C1119 C 0.10262 0.42608 0.91718 0.0
C1120 C 0.10618 0.40049 0.90913 0.0
C1121 C 0.12034 0.38307 0.92323 0.0
C1122 C 0.13061 0.39097 0.9448 0.0
H1123 H 0.17907 0.46945 0.95952 0.0
H1124 H 0.16481 0.4461 0.94061 0.0
H1125 H 0.14816 0.47401 0.95094 0.0
H1126 H 0.10946 0.45359 0.94488 0.0
H1127 H 0.0919 0.44004 0.90675 0.0
H1128 H 0.85009 0.94589 0.33358 0.0
H1129 H 0.85797 0.91968 0.29842 0.0
H1130 H 0.7902 0.88284 0.30663 0.0
H1131 H 0.78183 0.90952 0.3418 0.0
H1132 H 0.86176 0.86689 0.29317 0.0
H1133 H 0.78658 0.908 0.23719 0.0
H1134 H 0.79598 0.92264 0.26485 0.0
H1135 H 0.7782 0.89412 0.26541 0.0
C1136 C 0.83678 0.93223 0.32804 0.0
C1137 C 0.81523 0.92998 0.34055 0.0
C1138 C 0.84137 0.91719 0.30787 0.0
C1139 C 0.82456 0.89955 0.29962 0.0
C1140 C 0.80324 0.89671 0.31235 0.0
H1141 H 0.8332 0.80497 0.16942 0.0
H1142 H 0.82075 0.8224 0.20819 0.0
C1143 C 0.79857 0.91186 0.33258 0.0
C1144 C 0.82964 0.88437 0.27766 0.0
H1145 H 0.81106 0.87562 0.21975 0.0
C1146 C 0.85058 0.86869 0.27717 0.0
C1147 C 0.81503 0.88666 0.25676 0.0
C1148 C 0.79279 0.9039 0.25587 0.0
C1149 C 0.8575 0.85561 0.25633 0.0
C1150 C 0.84327 0.8585 0.23527 0.0
C1151 C 0.82193 0.87346 0.23592 0.0
C1152 C 0.85098 0.8474 0.21207 0.0
C1153 C 0.88006 0.83887 0.257 0.0
C1154 C 0.87197 0.85583 0.20129 0.0
C1155 C 0.87911 0.84595 0.17921 0.0
C1156 C 0.86537 0.82743 0.16734 0.0
C1157 C 0.84432 0.81899 0.17819 0.0
C1158 C 0.83712 0.82902 0.20028 0.0
H1159 H 0.88515 0.83289 0.27561 0.0
H1160 H 0.87796 0.82119 0.24606 0.0
H1161 H 0.89496 0.85006 0.24951 0.0
H1162 H 0.88276 0.87029 0.20988 0.0
H1163 H 0.89552 0.85271 0.17151 0.0
H1164 H 0.32272 0.56467 0.55944 0.0
H1165 H 0.34668 0.57349 0.52429 0.0
H1166 H 0.39738 0.51298 0.546 0.0
H1167 H 0.37342 0.5039 0.58156 0.0
H1168 H 0.41735 0.56342 0.53043 0.0
H1169 H 0.35228 0.52364 0.46545 0.0
H1170 H 0.33957 0.54586 0.48668 0.0
H1171 H 0.35236 0.51532 0.497 0.0
C1172 C 0.33901 0.55323 0.55694 0.0
C1173 C 0.34603 0.53342 0.57336 0.0
C1174 C 0.35262 0.55824 0.53669 0.0
C1175 C 0.3736 0.54365 0.53234 0.0
C1176 C 0.38112 0.52433 0.54895 0.0
H1177 H 0.44649 0.55479 0.394 0.0
H1178 H 0.42903 0.53744 0.43078 0.0
C1179 C 0.36737 0.51914 0.56923 0.0
C1180 C 0.3875 0.54891 0.51041 0.0
H1181 H 0.38295 0.54959 0.44929 0.0
C1182 C 0.40999 0.56012 0.51268 0.0
C1183 C 0.37797 0.54435 0.48728 0.0
C1184 C 0.35431 0.53142 0.48383 0.0
C1185 C 0.42273 0.56794 0.49239 0.0
C1186 C 0.41261 0.56462 0.46927 0.0
C1187 C 0.39061 0.55233 0.46701 0.0
C1188 C 0.42396 0.57491 0.44731 0.0
C1189 C 0.44683 0.57991 0.49585 0.0
C1190 C 0.42667 0.60173 0.44428 0.0
C1191 C 0.43654 0.61168 0.42332 0.0
C1192 C 0.4439 0.59503 0.40485 0.0
C1193 C 0.4412 0.56812 0.40794 0.0
C1194 C 0.43116 0.55819 0.42891 0.0
H1195 H 0.4549 0.57465 0.51361 0.0
H1196 H 0.45938 0.5737 0.48164 0.0
H1197 H 0.44466 0.60137 0.49486 0.0
H1198 H 0.42088 0.61504 0.45805 0.0
H1199 H 0.43859 0.63245 0.42168 0.0
H1200 H 0.20794 0.23991 0.4195 0.0
H1201 H 0.24243 0.22826 0.39466 0.0
H1202 H 0.25843 0.16213 0.44066 0.0
H1203 H 0.224 0.17314 0.46507 0.0
H1204 H 0.29013 0.22419 0.4062 0.0
H1205 H 0.25977 0.12862 0.37597 0.0
H1206 H 0.23996 0.15183 0.39014 0.0
H1207 H 0.25968 0.13097 0.40798 0.0
C1208 C 0.21863 0.2227 0.42416 0.0
C1209 C 0.21293 0.20736 0.44423 0.0
C1210 C 0.23842 0.21611 0.40996 0.0
C1211 C 0.25286 0.194 0.41546 0.0
C1212 C 0.24727 0.17885 0.43557 0.0
H1213 H 0.38538 0.11992 0.37347 0.0
H1214 H 0.34893 0.13577 0.39273 0.0
C1215 C 0.22753 0.18531 0.44965 0.0
C1216 C 0.27427 0.18706 0.40086 0.0
H1217 H 0.30155 0.13656 0.37163 0.0
C1218 C 0.29248 0.20516 0.39836 0.0
C1219 C 0.27741 0.16223 0.3905 0.0
C1220 C 0.25805 0.14241 0.39105 0.0
C1221 C 0.31404 0.19873 0.38674 0.0
C1222 C 0.31747 0.17359 0.37719 0.0
C1223 C 0.29904 0.15575 0.37914 0.0
C1224 C 0.34025 0.16504 0.36572 0.0
C1225 C 0.33337 0.21853 0.38551 0.0
C1226 C 0.34764 0.17624 0.34407 0.0
C1227 C 0.36845 0.16702 0.33281 0.0
C1228 C 0.38234 0.14633 0.34292 0.0
C1229 C 0.37503 0.13555 0.36487 0.0
C1230 C 0.35421 0.14469 0.37602 0.0
H1231 H 0.32981 0.23513 0.39759 0.0
H1232 H 0.35106 0.20948 0.39032 0.0
H1233 H 0.33437 0.22619 0.3669 0.0
H1234 H 0.33698 0.19169 0.33556 0.0
H1235 H 0.37322 0.17559 0.31579 0.0
H1236 H 0.1374 0.09466 0.6166 0.0
H1237 H 0.11986 0.0594 0.63938 0.0
H1238 H 0.06609 0.05104 0.58411 0.0
H1239 H 0.08349 0.08652 0.56116 0.0
H1240 H 0.07355 0.05454 0.65707 0.0
H1241 H 0.09538 0.97741 0.59132 0.0
H1242 H 0.10854 1.00899 0.59016 0.0
H1243 H 0.07838 1.00495 0.57967 0.0
C1244 C 0.12165 0.0856 0.60939 0.0
C1245 C 0.11187 0.09343 0.58701 0.0
C1246 C 0.11173 0.06532 0.62239 0.0
C1247 C 0.0919 0.05234 0.61328 0.0
C1248 C 0.08171 0.06044 0.59123 0.0
H1249 H 0.0216 0.91759 0.67674 0.0
H1250 H 0.03068 0.95439 0.65042 0.0
C1251 C 0.09165 0.08073 0.57816 0.0
C1252 C 0.0821 0.03033 0.62703 0.0
H1253 H 0.0748 0.96471 0.62594 0.0
C1254 C 0.07369 0.03493 0.65021 0.0
C1255 C 0.08223 1.00476 0.618 0.0
C1256 C 0.09177 0.99855 0.5935 0.0
C1257 C 0.06574 0.01461 0.66475 0.0
C1258 C 0.06654 0.98896 0.656 0.0
C1259 C 0.07421 0.98442 0.63256 0.0
C1260 C 0.06105 0.96645 0.67155 0.0
C1261 C 0.05666 0.02073 0.68944 0.0
C1262 C 0.07541 0.96077 0.69181 0.0
C1263 C 0.07035 0.93982 0.70679 0.0
C1264 C 0.05082 0.924 0.70181 0.0
C1265 C 0.0367 0.92943 0.68119 0.0
C1266 C 0.04185 0.95043 0.66612 0.0
H1267 H 0.05098 0.04147 0.69091 0.0
H1268 H 0.04134 1.00845 0.69408 0.0
H1269 H 0.07122 0.01676 0.70281 0.0
H1270 H 0.09059 0.97259 0.69606 0.0
H1271 H 0.08171 0.93623 0.72242 0.0
H1272 H 0.16504 0.79067 0.84312 0.0
H1273 H 0.20149 0.77705 0.86549 0.0
H1274 H 0.2209 0.85707 0.87198 0.0
H1275 H 0.18467 0.87077 0.84988 0.0
H1276 H 0.2505 0.78473 0.85803 0.0
H1277 H 0.22045 0.83213 0.94146 0.0
H1278 H 0.20055 0.82727 0.9163 0.0
H1279 H 0.22074 0.85387 0.91613 0.0
C1280 C 0.17716 0.80534 0.8492 0.0
C1281 C 0.17169 0.83185 0.84507 0.0
C1282 C 0.19798 0.79753 0.86199 0.0
C1283 C 0.21372 0.81606 0.87084 0.0
C1284 C 0.20875 0.84244 0.86589 0.0
H1285 H 0.35819 0.79283 0.93256 0.0
H1286 H 0.32432 0.80099 0.90464 0.0
C1287 C 0.18796 0.85024 0.85328 0.0
C1288 C 0.23497 0.80808 0.88584 0.0
H1289 H 0.26076 0.81674 0.94088 0.0
C1290 C 0.25274 0.79161 0.87619 0.0
C1291 C 0.23777 0.81681 0.90964 0.0
C1292 C 0.21877 0.83329 0.92162 0.0
C1293 C 0.27337 0.78399 0.88958 0.0
C1294 C 0.27648 0.79342 0.91312 0.0
C1295 C 0.25855 0.80964 0.92278 0.0
C1296 C 0.29762 0.78617 0.92862 0.0
C1297 C 0.29138 0.76553 0.87859 0.0
C1298 C 0.29402 0.77516 0.95136 0.0
C1299 C 0.3132 0.77086 0.96731 0.0
C1300 C 0.33652 0.77734 0.96092 0.0
C1301 C 0.34042 0.78745 0.93786 0.0
C1302 C 0.32107 0.79201 0.92187 0.0
H1303 H 0.28349 0.75484 0.86336 0.0
H1304 H 0.30655 0.77672 0.87167 0.0
H1305 H 0.29856 0.75124 0.89207 0.0
H1306 H 0.27618 0.77043 0.95702 0.0
H1307 H 0.30967 0.76292 0.98493 0.0
H1308 H 0.47064 0.0427 0.2286 0.0
H1309 H 0.45918 1.00657 0.20341 0.0
H1310 H 0.51951 0.01981 0.15798 0.0
H1311 H 0.53144 0.05577 0.18333 0.0
H1312 H 0.44743 1.00555 0.15521 0.0
H1313 H 0.5279 0.94287 0.17522 0.0
H1314 H 0.5204 0.97125 0.19252 0.0
H1315 H 0.53404 0.97465 0.16373 0.0
C1316 C 0.48152 0.038 0.21326 0.0
C1317 C 0.50209 0.05205 0.20813 0.0
C1318 C 0.47491 0.01732 0.19886 0.0
C1319 C 0.48871 1.01023 0.17906 0.0
C1320 C 0.50891 0.02458 0.17349 0.0
H1321 H 0.45172 0.89675 0.0698 0.0
H1322 H 0.46868 0.93396 0.09044 0.0
C1323 C 0.51561 0.04524 0.18794 0.0
C1324 C 0.48174 0.98784 0.1643 0.0
H1325 H 0.50007 0.92715 0.14693 0.0
C1326 C 0.459 0.98848 0.1533 0.0
C1327 C 0.49683 0.9655 0.16196 0.0
C1328 C 0.52108 0.9633 0.17413 0.0
C1329 C 0.4509 0.96735 0.14012 0.0
C1330 C 0.46592 0.94508 0.1379 0.0
C1331 C 0.48874 0.94444 0.14861 0.0
C1332 C 0.45749 0.92175 0.12563 0.0
C1333 C 0.42615 0.96857 0.12902 0.0
C1334 C 0.44604 0.90249 0.13875 0.0
C1335 C 0.43644 0.88124 0.1271 0.0
C1336 C 0.43812 0.87887 0.10208 0.0
C1337 C 0.45032 0.89787 0.08909 0.0
C1338 C 0.45989 0.91918 0.1008 0.0
H1339 H 0.41681 0.98755 0.13195 0.0
H1340 H 0.42727 0.96519 0.10945 0.0
H1341 H 0.41526 0.95293 0.13678 0.0
H1342 H 0.4441 0.90421 0.15796 0.0
H1343 H 0.42745 0.86679 0.13765 0.0
H1344 H 0.88849 0.36556 0.64409 0.0
H1345 H 0.84953 0.35088 0.63017 0.0
H1346 H 0.83722 0.31658 0.69957 0.0
H1347 H 0.87607 0.33164 0.71384 0.0
H1348 H 0.83331 0.29801 0.63 0.0
H1349 H 0.77686 0.36432 0.6851 0.0
H1350 H 0.80801 0.37013 0.67949 0.0
H1351 H 0.79994 0.34545 0.70057 0.0
C1352 C 0.87741 0.35511 0.65647 0.0
C1353 C 0.88529 0.34988 0.6801 0.0
C1354 C 0.85524 0.34661 0.64845 0.0
C1355 C 0.84046 0.33288 0.66392 0.0
C1356 C 0.84829 0.32741 0.68746 0.0
H1357 H 0.71335 0.25487 0.60921 0.0
H1358 H 0.74885 0.26412 0.63353 0.0
C1359 C 0.87055 0.33582 0.6955 0.0
C1360 C 0.81698 0.32416 0.65512 0.0
H1361 H 0.75678 0.33576 0.65955 0.0
C1362 C 0.81654 0.30601 0.63661 0.0
C1363 C 0.79523 0.33484 0.66375 0.0
C1364 C 0.79484 0.3549 0.68322 0.0
C1365 C 0.79488 0.29859 0.62611 0.0
C1366 C 0.77313 0.30948 0.63454 0.0
C1367 C 0.77352 0.32729 0.65335 0.0
C1368 C 0.75007 0.30441 0.62243 0.0
C1369 C 0.79543 0.27998 0.60543 0.0
C1370 C 0.7386 0.32426 0.60889 0.0
C1371 C 0.71839 0.31909 0.59499 0.0
C1372 C 0.70919 0.29396 0.5945 0.0
C1373 C 0.71999 0.27442 0.60914 0.0
C1374 C 0.74033 0.27961 0.62297 0.0
H1375 H 0.81385 0.27644 0.59875 0.0
H1376 H 0.78825 0.26112 0.6113 0.0
H1377 H 0.78398 0.28758 0.59038 0.0
H1378 H 0.74585 0.34354 0.60832 0.0
H1379 H 0.71042 0.33464 0.58409 0.0
H1380 H 0.9924 0.39478 0.83678 0.0
H1381 H 0.98229 0.42356 0.87047 0.0
H1382 H 0.98715 0.49025 0.82366 0.0
H1383 H 0.99722 0.46202 0.79037 0.0
H1384 H 1.00885 0.47439 0.88787 0.0
H1385 H 0.916 0.48841 0.85243 0.0
H1386 H 0.9345 0.46021 0.84564 0.0
H1387 H 0.9393 0.4906 0.83066 0.0
C1388 C 0.99156 0.41559 0.83385 0.0
C1389 C 0.99531 0.42615 0.8109 0.0
C1390 C 0.98582 0.43198 0.85305 0.0
C1391 C 0.98373 0.459 0.84943 0.0
C1392 C 0.98847 0.46946 0.82678 0.0
H1393 H 0.93724 0.60228 0.90981 0.0
H1394 H 0.95187 0.56581 0.88601 0.0
C1395 C 0.99419 0.45325 0.80776 0.0
C1396 C 0.97531 0.47669 0.86853 0.0
H1397 H 0.92894 0.51843 0.8815 0.0
C1398 C 0.99124 0.48373 0.88684 0.0
C1399 C 0.95239 0.4889 0.86699 0.0
C1400 C 0.93442 0.48158 0.848 0.0
C1401 C 0.98517 0.5036 0.903 0.0
C1402 C 0.96253 0.51649 0.90085 0.0
C1403 C 0.94634 0.50869 0.88306 0.0
C1404 C 0.95548 0.53895 0.91599 0.0
C1405 C 1.00341 0.51149 0.92149 0.0
C1406 C 0.95281 0.53611 0.94085 0.0
C1407 C 0.94434 0.55698 0.95455 0.0
C1408 C 0.93821 0.58108 0.94362 0.0
C1409 C 0.94147 0.58396 0.91879 0.0
C1410 C 0.94993 0.56313 0.90516 0.0
H1411 H 0.02155 0.50335 0.9177 0.0
H1412 H 1.00429 0.53296 0.92231 0.0
H1413 H 0.99805 0.50426 0.93937 0.0
H1414 H 0.95654 0.51753 0.94956 0.0
H1415 H 0.94173 0.55393 0.97355 0.0
H1416 H 0.82992 0.66595 0.06614 0.0
H1417 H 0.79587 0.65494 0.09043 0.0
H1418 H 0.80834 0.7209 0.13534 0.0
H1419 H 0.84231 0.73267 0.11045 0.0
H1420 H 0.79227 0.64186 0.1366 0.0
H1421 H 0.73855 0.73243 0.11822 0.0
H1422 H 0.76524 0.72419 0.10186 0.0
H1423 H 0.76748 0.73734 0.13148 0.0
C1424 C 0.82557 0.67821 0.08118 0.0
C1425 C 0.83891 0.70033 0.08623 0.0
C1426 C 0.80601 0.67182 0.09511 0.0
C1427 C 0.79923 0.68725 0.11453 0.0
C1428 C 0.81284 0.709 0.1201 0.0
H1429 H 0.68037 0.65953 0.21233 0.0
H1430 H 0.7181 0.67394 0.19562 0.0
C1431 C 0.8324 0.7156 0.10597 0.0
C1432 C 0.77786 0.68025 0.12861 0.0
H1433 H 0.72174 0.70154 0.14413 0.0
C1434 C 0.77693 0.65501 0.13834 0.0
C1435 C 0.75774 0.69734 0.13085 0.0
C1436 C 0.7571 0.72426 0.11989 0.0
C1437 C 0.75638 0.64629 0.14982 0.0
C1438 C 0.73625 0.66323 0.1517 0.0
C1439 C 0.73731 0.68867 0.14266 0.0
C1440 C 0.71352 0.65436 0.16192 0.0
C1441 C 0.75609 0.61891 0.1596 0.0
C1442 C 0.69845 0.63866 0.14843 0.0
C1443 C 0.67669 0.63069 0.15772 0.0
C1444 C 0.66958 0.63814 0.18082 0.0
C1445 C 0.68498 0.65371 0.19436 0.0
C1446 C 0.70664 0.66186 0.18493 0.0
H1447 H 0.77417 0.6094 0.15977 0.0
H1448 H 0.74905 0.6188 0.17811 0.0
H1449 H 0.74399 0.60727 0.14834 0.0
H1450 H 0.70341 0.63284 0.13054 0.0
H1451 H 0.66523 0.61915 0.14655 0.0
H1452 H 0.60374 0.43665 0.46918 0.0
H1453 H 0.58935 0.47314 0.44398 0.0
H1454 H 0.62179 0.43757 0.38244 0.0
H1455 H 0.63542 0.40059 0.40726 0.0
H1456 H 0.61534 0.5076 0.41842 0.0
H1457 H 0.55518 0.45552 0.35702 0.0
H1458 H 0.56683 0.4411 0.38454 0.0
H1459 H 0.58494 0.4416 0.35814 0.0
C1460 C 0.60738 0.43628 0.45019 0.0
C1461 C 0.62069 0.41552 0.4403 0.0
C1462 C 0.59932 0.45731 0.43583 0.0
C1463 C 0.60422 0.45804 0.41122 0.0
C1464 C 0.61736 0.4373 0.40126 0.0
H1465 H 0.60596 0.59128 0.31467 0.0
H1466 H 0.61554 0.55705 0.34435 0.0
C1467 C 0.6254 0.41625 0.41558 0.0
C1468 C 0.59645 0.48089 0.39615 0.0
H1469 H 0.56538 0.4984 0.34509 0.0
C1470 C 0.60426 0.50562 0.40248 0.0
C1471 C 0.5817 0.47844 0.37552 0.0
C1472 C 0.57146 0.45278 0.36851 0.0
C1473 C 0.59829 0.52777 0.38843 0.0
C1474 C 0.58449 0.52511 0.36718 0.0
C1475 C 0.57615 0.50049 0.36122 0.0
C1476 C 0.57867 0.54742 0.35066 0.0
C1477 C 0.60661 0.55384 0.39666 0.0
C1478 C 0.55479 0.55339 0.34407 0.0
C1479 C 0.54933 0.57276 0.32692 0.0
C1480 C 0.56761 0.58662 0.31597 0.0
C1481 C 0.59147 0.58113 0.32298 0.0
C1482 C 0.59695 0.56163 0.34006 0.0
H1483 H 0.61029 0.55382 0.41628 0.0
H1484 H 0.62349 0.55843 0.38748 0.0
H1485 H 0.59313 0.56945 0.39231 0.0
H1486 H 0.54035 0.54265 0.35184 0.0
H1487 H 0.53083 0.57616 0.32152 0.0
H1488 H 0.36743 0.32107 0.13964 0.0
H1489 H 0.39394 0.28508 0.15262 0.0
H1490 H 0.37311 0.29698 0.22586 0.0
H1491 H 0.34642 0.33318 0.21296 0.0
H1492 H 0.43241 0.28504 0.18375 0.0
H1493 H 0.36279 0.21955 0.2176 0.0
H1494 H 0.3556 0.24788 0.19931 0.0
H1495 H 0.3625 0.25126 0.23064 0.0
C1496 C 0.36861 0.31625 0.15856 0.0
C1497 C 0.35482 0.33011 0.17527 0.0
C1498 C 0.38368 0.29552 0.16593 0.0
C1499 C 0.38527 0.28806 0.19016 0.0
C1500 C 0.37176 0.30199 0.20699 0.0
H1501 H 0.47559 0.16829 0.26141 0.0
H1502 H 0.4462 0.20349 0.25269 0.0
C1503 C 0.35658 0.32274 0.1996 0.0
C1504 C 0.40158 0.26608 0.19763 0.0
H1505 H 0.40315 0.2054 0.22318 0.0
C1506 C 0.42599 0.26763 0.19236 0.0
C1507 C 0.39322 0.24339 0.20896 0.0
C1508 C 0.36708 0.2402 0.21431 0.0
C1509 C 0.44223 0.24717 0.19805 0.0
C1510 C 0.43381 0.22433 0.20899 0.0
C1511 C 0.40952 0.22291 0.21471 0.0
C1512 C 0.45004 0.20164 0.21422 0.0
C1513 C 0.46835 0.25025 0.19249 0.0
C1514 C 0.46134 0.18839 0.19547 0.0
C1515 C 0.478 0.16824 0.2004 0.0
C1516 C 0.48361 0.16094 0.22418 0.0
C1517 C 0.47156 0.1735 0.24292 0.0
C1518 C 0.45483 0.19363 0.23797 0.0
H1519 H 0.47278 0.27095 0.18974 0.0
H1520 H 0.47993 0.24196 0.20715 0.0
H1521 H 0.47262 0.23971 0.1758 0.0
H1522 H 0.45758 0.19397 0.17701 0.0
H1523 H 0.48691 0.1588 0.18561 0.0
H1524 H 0.98496 0.30108 0.82194 0.0
H1525 H 0.95721 0.2671 0.83172 0.0
H1526 H 0.91486 0.28699 0.76873 0.0
H1527 H 0.94274 0.32128 0.75864 0.0
H1528 H 0.90763 0.27222 0.84012 0.0
H1529 H 0.92699 0.20766 0.76313 0.0
H1530 H 0.94655 0.23337 0.77174 0.0
H1531 H 0.919 0.24092 0.75598 0.0
C1532 C 0.9698 0.29835 0.81005 0.0
C1533 C 0.96625 0.31394 0.78935 0.0
C1534 C 0.95391 0.27883 0.81572 0.0
C1535 C 0.93412 0.27425 0.80083 0.0
C1536 C 0.93026 0.28988 0.78027 0.0
H1537 H 0.82706 0.15377 0.81805 0.0
H1538 H 0.84993 0.19018 0.80273 0.0
C1539 C 0.94619 0.30955 0.77457 0.0
C1540 C 0.9175 0.25334 0.80738 0.0
H1541 H 0.89834 0.19366 0.79068 0.0
C1542 C 0.9055 0.25511 0.82924 0.0
C1543 C 0.91464 0.23108 0.79312 0.0
C1544 C 0.92756 0.22789 0.76974 0.0
C1545 C 0.89096 0.23513 0.83739 0.0
C1546 C 0.88874 0.21245 0.82355 0.0
C1547 C 0.90016 0.21099 0.80133 0.0
C1548 C 0.87532 0.18976 0.83233 0.0
C1549 C 0.87803 0.23856 0.86075 0.0
C1550 C 0.8823 0.17701 0.85376 0.0
C1551 C 0.86921 0.15634 0.86263 0.0
C1552 C 0.8489 0.14774 0.85017 0.0
C1553 C 0.84237 0.16008 0.8283 0.0
C1554 C 0.85551 0.18081 0.81944 0.0
H1555 H 0.87586 0.25939 0.86541 0.0
H1556 H 0.86008 0.22989 0.85999 0.0
H1557 H 0.88859 0.22873 0.87535 0.0
H1558 H 0.8978 0.18323 0.86379 0.0
H1559 H 0.87468 0.14757 0.87962 0.0
H1560 H 0.11426 0.60555 0.13443 0.0
H1561 H 0.07432 0.62091 0.122 0.0
H1562 H 0.06726 0.55434 0.07665 0.0
H1563 H 0.10726 0.53851 0.08929 0.0
H1564 H 0.05422 0.60061 0.05364 0.0
H1565 H 1.00908 0.59414 0.14092 0.0
H1566 H 0.03637 0.61156 0.14299 0.0
H1567 H 0.03737 0.57773 0.13527 0.0
C1568 C 0.10411 0.59384 0.12216 0.0
C1569 C 0.11401 0.57064 0.11304 0.0
C1570 C 0.08121 0.60268 0.11507 0.0
C1571 C 0.06756 0.58852 0.09876 0.0
C1572 C 0.07738 0.56547 0.08941 0.0
H1573 H 0.92167 0.65493 0.06928 0.0
H1574 H 0.95274 0.62054 0.07607 0.0
C1575 C 0.10033 0.55655 0.09655 0.0
C1576 C 0.04366 0.5988 0.09058 0.0
H1577 H 0.99072 0.62351 0.11155 0.0
C1578 C 0.04014 0.60512 0.06623 0.0
C1579 C 0.02503 0.60424 0.10687 0.0
C1580 C 0.02702 0.5963 0.13293 0.0
C1581 C 0.0193 0.61853 0.05811 0.0
C1582 C 1.00165 0.62603 0.07478 0.0
C1583 C 1.00433 0.61795 0.09878 0.0
C1584 C 0.98237 0.6454 0.06847 0.0
C1585 C 1.01669 0.62539 0.03184 0.0
C1586 C 0.98873 0.67059 0.06194 0.0
C1587 C 0.97123 0.69005 0.05837 0.0
C1588 C 0.9469 0.68482 0.06116 0.0
C1589 C 0.94031 0.65941 0.06695 0.0
C1590 C 0.95801 0.63984 0.07085 0.0
H1591 H 0.02714 0.6116 0.02064 0.0
H1592 H 0.99764 0.62542 0.02593 0.0
H1593 H 0.02362 0.6451 0.0287 0.0
H1594 H 1.00738 0.67547 0.06042 0.0
H1595 H 0.97686 0.70944 0.05384 0.0
H1596 H 0.66212 0.85589 0.38559 0.0
H1597 H 0.64025 0.82069 0.36741 0.0
H1598 H 0.68879 0.81993 0.30806 0.0
H1599 H 0.71152 0.8545 0.32669 0.0
H1600 H 0.61668 0.81937 0.32435 0.0
H1601 H 0.68944 0.74374 0.3275 0.0
H1602 H 0.69125 0.77368 0.34379 0.0
H1603 H 0.69677 0.77322 0.31215 0.0
C1604 C 0.66846 0.848 0.36886 0.0
C1605 C 0.68883 0.85794 0.3578 0.0
C1606 C 0.65576 0.82798 0.35837 0.0
C1607 C 0.66305 0.81732 0.33653 0.0
C1608 C 0.6831 0.82743 0.32516 0.0
H1609 H 0.59829 0.69077 0.25536 0.0
H1610 H 0.62304 0.72735 0.26686 0.0
C1611 C 0.6959 0.84746 0.33571 0.0
C1612 C 0.6492 0.79602 0.32567 0.0
H1613 H 0.65304 0.7324 0.3089 0.0
C1614 C 0.62468 0.80039 0.32092 0.0
C1615 C 0.65963 0.77124 0.32106 0.0
C1616 C 0.68566 0.76501 0.32655 0.0
C1617 C 0.61027 0.78068 0.31198 0.0
C1618 C 0.62056 0.75576 0.30794 0.0
C1619 C 0.6452 0.75152 0.31201 0.0
C1620 C 0.60572 0.73353 0.30081 0.0
C1621 C 0.58412 0.78671 0.30695 0.0
C1622 C 0.58803 0.72461 0.31622 0.0
C1623 C 0.57395 0.70374 0.30977 0.0
C1624 C 0.57724 0.69121 0.28774 0.0
C1625 C 0.59517 0.70001 0.27239 0.0
C1626 C 0.60936 0.72089 0.27895 0.0
H1627 H 0.5805 0.8079 0.30462 0.0
H1628 H 0.57788 0.77667 0.2906 0.0
H1629 H 0.57345 0.77986 0.32229 0.0
H1630 H 0.58519 0.73373 0.33337 0.0
H1631 H 0.56043 0.69749 0.32212 0.0
H1632 H 0.62914 0.34007 0.5703 0.0
H1633 H 0.59887 0.37505 0.57614 0.0
H1634 H 0.54301 0.32211 0.55853 0.0
H1635 H 0.57283 0.28757 0.55256 0.0
H1636 H 0.5365 0.37329 0.53804 0.0
H1637 H 0.55552 0.37256 0.63641 0.0
H1638 H 0.57983 0.37789 0.61628 0.0
H1639 H 0.56627 0.34677 0.61743 0.0
C1640 C 0.61041 0.33616 0.56732 0.0
C1641 C 0.60323 0.31114 0.56122 0.0
C1642 C 0.59318 0.35605 0.57074 0.0
C1643 C 0.56871 0.35104 0.56797 0.0
C1644 C 0.56178 0.32638 0.56074 0.0
H1645 H 0.43535 0.38185 0.62446 0.0
H1646 H 0.47564 0.36893 0.61234 0.0
C1647 C 0.57884 0.30663 0.55747 0.0
C1648 C 0.54979 0.37029 0.57434 0.0
H1649 H 0.52025 0.39376 0.62297 0.0
C1650 C 0.5332 0.37843 0.55651 0.0
C1651 C 0.54552 0.37668 0.59851 0.0
C1652 C 0.56259 0.36802 0.61839 0.0
C1653 C 0.51169 0.39139 0.56239 0.0
C1654 C 0.50684 0.39646 0.58671 0.0
C1655 C 0.5241 0.38981 0.60435 0.0
C1656 C 0.4828 0.40533 0.5945 0.0
C1657 C 0.49357 0.39789 0.5428 0.0
C1658 C 0.47353 0.43019 0.5886 0.0
C1659 C 0.45044 0.43772 0.59563 0.0
C1660 C 0.43631 0.42052 0.60875 0.0
C1661 C 0.44584 0.39573 0.61473 0.0
C1662 C 0.46884 0.38827 0.60773 0.0
H1663 H 0.49898 0.38988 0.52523 0.0
H1664 H 0.47586 0.39019 0.54749 0.0
H1665 H 0.49149 0.41928 0.54088 0.0
H1666 H 0.48415 0.44374 0.57862 0.0
H1667 H 0.44375 0.45708 0.59102 0.0
H1668 H 0.1774 0.63437 0.6787 0.0
H1669 H 0.15323 0.66958 0.69597 0.0
H1670 H 0.21359 0.71975 0.69326 0.0
H1671 H 0.23801 0.68458 0.67625 0.0
H1672 H 0.1605 0.70115 0.73815 0.0
H1673 H 0.16053 0.75852 0.65298 0.0
H1674 H 0.16916 0.72452 0.65433 0.0
H1675 H 0.18927 0.74842 0.66518 0.0
C1676 C 0.18569 0.65272 0.68218 0.0
C1677 C 0.2096 0.6567 0.67585 0.0
C1678 C 0.17181 0.67286 0.69195 0.0
C1679 C 0.18151 0.69738 0.69551 0.0
C1680 C 0.20563 0.70112 0.69022 0.0
H1681 H 0.09768 0.84034 0.72735 0.0
H1682 H 0.13267 0.81094 0.72218 0.0
C1683 C 0.21954 0.681 0.68047 0.0
C1684 C 0.16601 0.71923 0.70379 0.0
H1685 H 0.13851 0.77595 0.68478 0.0
C1686 C 0.15586 0.71764 0.72659 0.0
C1687 C 0.16016 0.74084 0.68875 0.0
C1688 C 0.17016 0.74326 0.66387 0.0
C1689 C 0.13953 0.73678 0.73452 0.0
C1690 C 0.1328 0.75774 0.71903 0.0
C1691 C 0.14373 0.75991 0.69665 0.0
C1692 C 0.11246 0.77576 0.72445 0.0
C1693 C 0.12943 0.73421 0.75933 0.0
C1694 C 0.0896 0.76577 0.72738 0.0
C1695 C 0.0698 0.7824 0.73028 0.0
C1696 C 0.07235 0.80943 0.73019 0.0
C1697 C 0.09527 0.81957 0.72767 0.0
C1698 C 0.1152 0.80281 0.72467 0.0
H1699 H 0.14189 0.72299 0.77145 0.0
H1700 H 0.12565 0.75353 0.76728 0.0
H1701 H 0.11244 0.72362 0.7583 0.0
H1702 H 0.08691 0.74506 0.72668 0.0
H1703 H 0.05235 0.77402 0.73215 0.0
H1704 H 0.44587 0.83815 1.00354 0.0
H1705 H 0.48049 0.86467 0.99442 0.0
H1706 H 0.49017 0.82359 0.92825 0.0
H1707 H 0.45566 0.79759 0.93686 0.0
H1708 H 0.52696 0.84838 0.98847 0.0
H1709 H 0.49461 0.89753 0.90527 0.0
H1710 H 0.47479 0.88091 0.92517 0.0
H1711 H 0.49192 0.86303 0.90344 0.0
C1712 C 0.45511 0.83508 0.98685 0.0
C1713 C 0.44784 0.81572 0.97093 0.0
C1714 C 0.47497 0.85021 0.9817 0.0
C1715 C 0.48777 0.84645 0.96045 0.0
C1716 C 0.4803 0.82739 0.94446 0.0
H1717 H 0.6212 0.87886 0.89605 0.0
H1718 H 0.58248 0.86362 0.90911 0.0
C1719 C 0.46055 0.81235 0.94954 0.0
C1720 C 0.50982 0.86107 0.95543 0.0
H1721 H 0.5374 0.89553 0.9115 0.0
C1722 C 0.52909 0.85911 0.97185 0.0
C1723 C 0.51266 0.87515 0.93375 0.0
C1724 C 0.49229 0.87952 0.91603 0.0
C1725 C 0.55142 0.86965 0.9666 0.0
C1726 C 0.55452 0.8826 0.94443 0.0
C1727 C 0.53504 0.8854 0.92841 0.0
C1728 C 0.57816 0.89214 0.93692 0.0
C1729 C 0.57189 0.86592 0.9843 0.0
C1730 C 0.58858 0.91337 0.94816 0.0
C1731 C 0.61068 0.92242 0.94052 0.0
C1732 C 0.62282 0.9104 0.92147 0.0
C1733 C 0.61228 0.88898 0.91044 0.0
C1734 C 0.59017 0.88009 0.91799 0.0
H1735 H 0.56749 0.85242 0.99917 0.0
H1736 H 0.58806 0.85826 0.97514 0.0
H1737 H 0.57632 0.88494 0.99208 0.0
H1738 H 0.57946 0.92314 0.96264 0.0
H1739 H 0.618 0.93916 0.94924 0.0
H1740 H 0.9556 0.03894 0.45441 0.0
H1741 H 0.99207 0.06139 0.46578 0.0
H1742 H 0.96814 0.12835 0.42421 0.0
H1743 H 0.932 0.106 0.41232 0.0
H1744 H 0.02788 0.08287 0.43491 0.0
H1745 H 0.98414 0.15798 0.49091 0.0
H1746 H 0.96961 0.12844 0.48265 0.0
H1747 H 0.9707 0.15512 0.46169 0.0
C1748 C 0.95808 0.05842 0.4476 0.0
C1749 C 0.94063 0.07064 0.4325 0.0
C1750 C 0.97895 0.07125 0.4542 0.0
C1751 C 0.98275 0.09666 0.44607 0.0
C1752 C 0.96541 0.10892 0.43108 0.0
H1753 H 0.07982 0.21873 0.44634 0.0
H1754 H 0.04867 0.18716 0.44195 0.0
C1755 C 0.94464 0.09611 0.42439 0.0
C1756 C 1.00492 0.11042 0.45282 0.0
H1757 H 0.02406 0.16591 0.47885 0.0
C1758 C 0.02717 0.10085 0.44481 0.0
C1759 C 1.00399 0.13373 0.46592 0.0
C1760 C 0.98087 0.14435 0.47601 0.0
C1761 C 0.04826 0.11484 0.44828 0.0
C1762 C 0.04709 0.13881 0.46041 0.0
C1763 C 0.025 0.14763 0.46943 0.0
C1764 C 0.06769 0.15659 0.46179 0.0
C1765 C 0.07134 0.10457 0.43787 0.0
C1766 C 0.08926 0.14985 0.474 0.0
C1767 C 0.10751 0.16804 0.47629 0.0
C1768 C 0.10426 0.19325 0.4667 0.0
C1769 C 0.08292 0.19953 0.45405 0.0
C1770 C 0.06499 0.18147 0.45156 0.0
H1771 H 0.06841 0.08822 0.42547 0.0
H1772 H 0.08054 0.1202 0.42806 0.0
H1773 H 0.08341 0.09751 0.45263 0.0
H1774 H 0.09168 0.13091 0.4824 0.0
H1775 H 0.1236 0.16275 0.48633 0.0
loop_
_geom_bond_atom_site_label_1
_geom_bond_atom_site_label_2
_geom_bond_distance
_geom_bond_site_symmetry_2
_ccdc_geom_bond_type
La0 C2 2.928 . S
La0 O20 2.521 . S
La0 O21 2.628 . S
La0 O22 2.554 . S
La0 O23 2.757 . S
La0 O24 2.470 . S
La0 O29 2.482 . S
La0 O31 2.503 . S
La1 C11 2.928 . S
La1 O23 2.482 . S
La1 O25 2.503 . S
La1 O26 2.521 . S
La1 O27 2.628 . S
La1 O28 2.554 . S
La1 O29 2.757 . S
La1 O30 2.470 . S
C2 La0 2.928 . S
C2 C3 1.503 . S
C2 O20 1.261 . S
C2 O21 1.243 . S
C3 C2 1.503 . S
C3 C4 1.394 . S
C3 C8 1.373 . S
C4 C3 1.394 . S
C4 C5 1.380 . S
C4 H32 0.930 . S
C5 C4 1.380 . S
C5 C6 1.376 . S
C5 H33 0.930 . S
C6 C5 1.376 . S
C6 C7 1.370 . S
C7 C6 1.370 . S
C7 C8 1.396 . S
C7 H34 0.929 . S
C8 C3 1.373 . S
C8 C7 1.396 . S
C8 H35 0.929 . S
C9 O22 1.240 . S
C9 O23 1.289 . S
C10 O24 1.258 . S
C10 O25 1.256 . S
C11 La1 2.928 . S
C11 C12 1.503 . S
C11 O26 1.261 . S
C11 O27 1.243 . S
C12 C11 1.503 . S
C12 C13 1.394 . S
C12 C17 1.373 . S
C13 C12 1.394 . S
C13 C14 1.380 . S
C13 H36 0.930 . S
C14 C13 1.380 . S
C14 C15 1.376 . S
C14 H37 0.930 . S
C15 C14 1.376 . S
C15 C16 1.370 . S
C16 C15 1.370 . S
C16 C17 1.396 . S
C16 H38 0.929 . S
C17 C12 1.373 . S
C17 C16 1.396 . S
C17 H39 0.929 . S
C18 O28 1.240 . S
C18 O29 1.289 . S
C19 O30 1.258 . S
C19 O31 1.256 . S
O20 La0 2.521 . S
O20 C2 1.261 . S
O21 La0 2.628 . S
O21 C2 1.243 . S
O22 La0 2.554 . S
O22 C9 1.240 . S
O23 La0 2.757 . S
O23 La1 2.482 . S
O23 C9 1.289 . S
O24 La0 2.470 . S
O24 C10 1.258 . S
O25 La1 2.503 . S
O25 C10 1.256 . S
O26 La1 2.521 . S
O26 C11 1.261 . S
O27 La1 2.628 . S
O27 C11 1.243 . S
O28 La1 2.554 . S
O28 C18 1.240 . S
O29 La0 2.482 . S
O29 La1 2.757 . S
O29 C18 1.289 . S
O30 La1 2.470 . S
O30 C19 1.258 . S
O31 La0 2.503 . S
O31 C19 1.256 . S
H32 C4 0.930 . S
H33 C5 0.930 . S
H34 C7 0.929 . S
H35 C8 0.929 . S
H36 C13 0.930 . S
H37 C14 0.930 . S
H38 C16 0.929 . S
H39 C17 0.929 . S
La40 C42 2.928 . S
La40 O60 2.521 . S
La40 O61 2.628 . S
La40 O62 2.554 1_655 S
La40 O63 2.757 1_655 S
La40 O64 2.470 1_655 S
La40 O69 2.485 . S
La40 O71 2.503 . S
La41 C51 2.928 . S
La41 O63 2.482 . S
La41 O65 2.503 . S
La41 O66 2.521 . S
La41 O67 2.628 . S
La41 O68 2.554 . S
La41 O69 2.739 1_455 S
La41 O70 2.470 . S
C42 La40 2.928 . S
C42 C43 1.503 . S
C42 O60 1.261 . S
C42 O61 1.243 . S
C43 C42 1.503 . S
C43 C44 1.394 . S
C43 C48 1.373 . S
C44 C43 1.394 . S
C44 C45 1.380 . S
C44 H72 0.930 . S
C45 C44 1.380 . S
C45 C46 1.376 . S
C45 H73 0.930 . S
C46 C45 1.376 . S
C46 C47 1.370 . S
C47 C46 1.370 . S
C47 C48 1.396 . S
C47 H74 0.929 . S
C48 C43 1.373 . S
C48 C47 1.396 . S
C48 H75 0.929 . S
C49 O62 1.240 . S
C49 O63 1.289 . S
C50 O64 1.258 . S
C50 O65 1.256 . S
C51 La41 2.928 . S
C51 C52 1.503 . S
C51 O66 1.261 . S
C51 O67 1.243 . S
C52 C51 1.503 . S
C52 C53 1.394 . S
C52 C57 1.373 . S
C53 C52 1.394 . S
C53 C54 1.380 . S
C53 H76 0.930 . S
C54 C53 1.380 . S
C54 C55 1.376 . S
C54 H77 0.930 . S
C55 C54 1.376 . S
C55 C56 1.370 . S
C56 C55 1.370 . S
C56 C57 1.396 . S
C56 H78 0.929 . S
C57 C52 1.373 . S
C57 C56 1.396 . S
C57 H79 0.929 . S
C58 O68 1.240 1_655 S
C58 O69 1.293 . S
C59 O70 1.258 . S
C59 O71 1.256 1_455 S
O60 La40 2.521 . S
O60 C42 1.261 . S
O61 La40 2.628 . S
O61 C42 1.243 . S
O62 La40 2.554 1_455 S
O62 C49 1.240 . S
O63 La40 2.757 1_455 S
O63 La41 2.482 . S
O63 C49 1.289 . S
O64 La40 2.470 1_455 S
O64 C50 1.258 . S
O65 La41 2.503 . S
O65 C50 1.256 . S
O66 La41 2.521 . S
O66 C51 1.261 . S
O67 La41 2.628 . S
O67 C51 1.243 . S
O68 La41 2.554 . S
O68 C58 1.240 1_455 S
O69 La40 2.485 . S
O69 La41 2.739 1_655 S
O69 C58 1.293 . S
O70 La41 2.470 . S
O70 C59 1.258 . S
O71 La40 2.503 . S
O71 C59 1.256 1_655 S
H72 C44 0.930 . S
H73 C45 0.930 . S
H74 C47 0.929 . S
H75 C48 0.929 . S
H76 C53 0.930 . S
H77 C54 0.930 . S
H78 C56 0.929 . S
H79 C57 0.929 . S
La80 C82 2.928 . S
La80 O100 2.521 . S
La80 O101 2.628 . S
La80 O102 2.554 1_554 S
La80 O103 2.757 1_554 S
La80 O104 2.470 1_554 S
La80 O109 2.482 . S
La80 O111 2.503 . S
La81 C91 2.928 . S
La81 O103 2.482 . S
La81 O105 2.503 . S
La81 O106 2.521 . S
La81 O107 2.628 . S
La81 O108 2.554 . S
La81 O109 2.757 1_556 S
La81 O110 2.470 . S
C82 La80 2.928 . S
C82 C83 1.503 . S
C82 O100 1.261 . S
C82 O101 1.243 . S
C83 C82 1.503 . S
C83 C84 1.394 . S
C83 C88 1.373 . S
C84 C83 1.394 . S
C84 C85 1.380 . S
C84 H112 0.930 . S
C85 C84 1.380 . S
C85 C86 1.376 . S
C85 H113 0.930 . S
C86 C85 1.376 . S
C86 C87 1.370 . S
C87 C86 1.370 . S
C87 C88 1.396 . S
C87 H114 0.929 . S
C88 C83 1.373 . S
C88 C87 1.396 . S
C88 H115 0.929 . S
C89 O102 1.240 . S
C89 O103 1.289 . S
C90 O104 1.258 . S
C90 O105 1.256 . S
C91 La81 2.928 . S
C91 C92 1.503 . S
C91 O106 1.261 . S
C91 O107 1.243 . S
C92 C91 1.503 . S
C92 C93 1.394 . S
C92 C97 1.373 . S
C93 C92 1.394 . S
C93 C94 1.380 . S
C93 H116 0.930 . S
C94 C93 1.380 . S
C94 C95 1.376 . S
C94 H117 0.930 . S
C95 C94 1.376 . S
C95 C96 1.370 . S
C96 C95 1.370 . S
C96 C97 1.396 . S
C96 H118 0.929 . S
C97 C92 1.373 . S
C97 C96 1.396 . S
C97 H119 0.929 . S
C98 O108 1.240 1_554 S
C98 O109 1.289 . S
C99 O110 1.258 . S
C99 O111 1.256 1_556 S
O100 La80 2.521 . S
O100 C82 1.261 . S
O101 La80 2.628 . S
O101 C82 1.243 . S
O102 La80 2.554 1_556 S
O102 C89 1.240 . S
O103 La80 2.757 1_556 S
O103 La81 2.482 . S
O103 C89 1.289 . S
O104 La80 2.470 1_556 S
O104 C90 1.258 . S
O105 La81 2.503 . S
O105 C90 1.256 . S
O106 La81 2.521 . S
O106 C91 1.261 . S
O107 La81 2.628 . S
O107 C91 1.243 . S
O108 La81 2.554 . S
O108 C98 1.240 1_556 S
O109 La80 2.482 . S
O109 La81 2.757 1_554 S
O109 C98 1.289 . S
O110 La81 2.470 . S
O110 C99 1.258 . S
O111 La80 2.503 . S
O111 C99 1.256 1_554 S
H112 C84 0.930 . S
H113 C85 0.930 . S
H114 C87 0.929 . S
H115 C88 0.929 . S
H116 C93 0.930 . S
H117 C94 0.930 . S
H118 C96 0.929 . S
H119 C97 0.929 . S
La120 C122 2.928 . S
La120 O140 2.521 . S
La120 O141 2.628 . S
La120 O142 2.554 . S
La120 O143 2.757 . S
La120 O144 2.470 . S
La120 O149 2.482 . S
La120 O151 2.503 . S
La121 C131 2.928 . S
La121 O143 2.482 . S
La121 O145 2.503 . S
La121 O146 2.521 . S
La121 O147 2.628 . S
La121 O148 2.554 . S
La121 O149 2.757 . S
La121 O150 2.470 . S
C122 La120 2.928 . S
C122 C123 1.503 . S
C122 O140 1.261 . S
C122 O141 1.243 . S
C123 C122 1.503 . S
C123 C124 1.394 . S
C123 C128 1.373 . S
C124 C123 1.394 . S
C124 C125 1.380 . S
C124 H152 0.930 . S
C125 C124 1.380 . S
C125 C126 1.376 . S
C125 H153 0.930 . S
C126 C125 1.376 . S
C126 C127 1.370 . S
C127 C126 1.370 . S
C127 C128 1.396 . S
C127 H154 0.929 . S
C128 C123 1.373 . S
C128 C127 1.396 . S
C128 H155 0.929 . S
C129 O142 1.240 . S
C129 O143 1.289 . S
C130 O144 1.258 . S
C130 O145 1.256 . S
C131 La121 2.928 . S
C131 C132 1.503 . S
C131 O146 1.261 . S
C131 O147 1.243 . S
C132 C131 1.503 . S
C132 C133 1.394 . S
C132 C137 1.373 . S
C133 C132 1.394 . S
C133 C134 1.380 . S
C133 H156 0.930 . S
C134 C133 1.380 . S
C134 C135 1.376 . S
C134 H157 0.930 . S
C135 C134 1.376 . S
C135 C136 1.370 . S
C136 C135 1.370 . S
C136 C137 1.396 . S
C136 H158 0.929 . S
C137 C132 1.373 . S
C137 C136 1.396 . S
C137 H159 0.929 . S
C138 O148 1.240 . S
C138 O149 1.289 . S
C139 O150 1.258 . S
C139 O151 1.256 . S
O140 La120 2.521 . S
O140 C122 1.261 . S
O141 La120 2.628 . S
O141 C122 1.243 . S
O142 La120 2.554 . S
O142 C129 1.240 . S
O143 La120 2.757 . S
O143 La121 2.482 . S
O143 C129 1.289 . S
O144 La120 2.470 . S
O144 C130 1.258 . S
O145 La121 2.503 . S
O145 C130 1.256 . S
O146 La121 2.521 . S
O146 C131 1.261 . S
O147 La121 2.628 . S
O147 C131 1.243 . S
O148 La121 2.554 . S
O148 C138 1.240 . S
O149 La120 2.482 . S
O149 La121 2.757 . S
O149 C138 1.289 . S
O150 La121 2.470 . S
O150 C139 1.258 . S
O151 La120 2.503 . S
O151 C139 1.256 . S
H152 C124 0.930 . S
H153 C125 0.930 . S
H154 C127 0.929 . S
H155 C128 0.929 . S
H156 C133 0.930 . S
H157 C134 0.930 . S
H158 C136 0.929 . S
H159 C137 0.929 . S
La160 C162 2.928 . S
La160 O180 2.521 . S
La160 O181 2.628 . S
La160 O182 2.554 . S
La160 O183 2.757 . S
La160 O184 2.470 . S
La160 O189 2.482 . S
La160 O191 2.503 . S
La161 C171 2.928 . S
La161 O183 2.482 . S
La161 O185 2.503 . S
La161 O186 2.521 . S
La161 O187 2.628 . S
La161 O188 2.554 . S
La161 O189 2.757 . S
La161 O190 2.470 . S
C162 La160 2.928 . S
C162 C163 1.503 . S
C162 O180 1.261 . S
C162 O181 1.243 . S
C163 C162 1.503 . S
C163 C164 1.394 . S
C163 C168 1.373 . S
C164 C163 1.394 . S
C164 C165 1.380 . S
C164 H192 0.930 . S
C165 C164 1.380 . S
C165 C166 1.376 . S
C165 H193 0.930 . S
C166 C165 1.376 . S
C166 C167 1.370 . S
C167 C166 1.370 . S
C167 C168 1.396 . S
C167 H194 0.929 . S
C168 C163 1.373 . S
C168 C167 1.396 . S
C168 H195 0.929 . S
C169 O182 1.240 . S
C169 O183 1.289 . S
C170 O184 1.258 . S
C170 O185 1.256 . S
C171 La161 2.928 . S
C171 C172 1.503 . S
C171 O186 1.261 . S
C171 O187 1.243 . S
C172 C171 1.503 . S
C172 C173 1.394 . S
C172 C177 1.373 . S
C173 C172 1.394 . S
C173 C174 1.380 . S
C173 H196 0.930 . S
C174 C173 1.380 . S
C174 C175 1.376 . S
C174 H197 0.930 . S
C175 C174 1.376 . S
C175 C176 1.370 . S
C176 C175 1.370 . S
C176 C177 1.396 . S
C176 H198 0.929 . S
C177 C172 1.373 . S
C177 C176 1.396 . S
C177 H199 0.929 . S
C178 O188 1.240 . S
C178 O189 1.289 . S
C179 O190 1.258 . S
C179 O191 1.256 . S
O180 La160 2.521 . S
O180 C162 1.261 . S
O181 La160 2.628 . S
O181 C162 1.243 . S
O182 La160 2.554 . S
O182 C169 1.240 . S
O183 La160 2.757 . S
O183 La161 2.482 . S
O183 C169 1.289 . S
O184 La160 2.470 . S
O184 C170 1.258 . S
O185 La161 2.503 . S
O185 C170 1.256 . S
O186 La161 2.521 . S
O186 C171 1.261 . S
O187 La161 2.628 . S
O187 C171 1.243 . S
O188 La161 2.554 . S
O188 C178 1.240 . S
O189 La160 2.482 . S
O189 La161 2.757 . S
O189 C178 1.289 . S
O190 La161 2.470 . S
O190 C179 1.258 . S
O191 La160 2.503 . S
O191 C179 1.256 . S
H192 C164 0.930 . S
H193 C165 0.930 . S
H194 C167 0.929 . S
H195 C168 0.929 . S
H196 C173 0.930 . S
H197 C174 0.930 . S
H198 C176 0.929 . S
H199 C177 0.929 . S
La200 C202 2.928 . S
La200 O220 2.521 . S
La200 O221 2.628 . S
La200 O222 2.554 . S
La200 O223 2.757 . S
La200 O224 2.470 . S
La200 O229 2.482 . S
La200 O231 2.503 1_655 S
La201 C211 2.928 . S
La201 O223 2.482 1_455 S
La201 O225 2.503 1_455 S
La201 O226 2.521 . S
La201 O227 2.628 . S
La201 O228 2.554 . S
La201 O229 2.757 1_455 S
La201 O230 2.470 . S
C202 La200 2.928 . S
C202 C203 1.503 . S
C202 O220 1.261 . S
C202 O221 1.243 . S
C203 C202 1.503 . S
C203 C204 1.394 . S
C203 C208 1.373 . S
C204 C203 1.394 . S
C204 C205 1.380 . S
C204 H232 0.930 . S
C205 C204 1.380 . S
C205 C206 1.376 . S
C205 H233 0.930 . S
C206 C205 1.376 . S
C206 C207 1.370 . S
C207 C206 1.370 . S
C207 C208 1.396 . S
C207 H234 0.929 . S
C208 C203 1.373 . S
C208 C207 1.396 . S
C208 H235 0.929 . S
C209 O222 1.240 . S
C209 O223 1.289 . S
C210 O224 1.258 . S
C210 O225 1.256 . S
C211 La201 2.928 . S
C211 C212 1.503 . S
C211 O226 1.261 . S
C211 O227 1.243 . S
C212 C211 1.503 . S
C212 C213 1.394 . S
C212 C217 1.373 . S
C213 C212 1.394 . S
C213 C214 1.380 . S
C213 H236 0.930 . S
C214 C213 1.380 . S
C214 C215 1.376 . S
C214 H237 0.930 . S
C215 C214 1.376 . S
C215 C216 1.370 . S
C216 C215 1.370 . S
C216 C217 1.396 . S
C216 H238 0.929 . S
C217 C212 1.373 . S
C217 C216 1.396 . S
C217 H239 0.929 . S
C218 O228 1.240 . S
C218 O229 1.289 1_455 S
C219 O230 1.258 . S
C219 O231 1.256 . S
O220 La200 2.521 . S
O220 C202 1.261 . S
O221 La200 2.628 . S
O221 C202 1.243 . S
O222 La200 2.554 . S
O222 C209 1.240 . S
O223 La200 2.757 . S
O223 La201 2.482 1_655 S
O223 C209 1.289 . S
O224 La200 2.470 . S
O224 C210 1.258 . S
O225 La201 2.503 1_655 S
O225 C210 1.256 . S
O226 La201 2.521 . S
O226 C211 1.261 . S
O227 La201 2.628 . S
O227 C211 1.243 . S
O228 La201 2.554 . S
O228 C218 1.240 . S
O229 La200 2.482 . S
O229 La201 2.757 1_655 S
O229 C218 1.289 1_655 S
O230 La201 2.470 . S
O230 C219 1.258 . S
O231 La200 2.503 1_455 S
O231 C219 1.256 . S
H232 C204 0.930 . S
H233 C205 0.930 . S
H234 C207 0.929 . S
H235 C208 0.929 . S
H236 C213 0.930 . S
H237 C214 0.930 . S
H238 C216 0.929 . S
H239 C217 0.929 . S
La240 C242 2.928 . S
La240 O260 2.521 . S
La240 O261 2.628 . S
La240 O262 2.554 . S
La240 O263 2.757 . S
La240 O264 2.470 . S
La240 O269 2.482 . S
La240 O271 2.503 1_554 S
La241 C251 2.928 . S
La241 O263 2.482 1_556 S
La241 O265 2.503 1_556 S
La241 O266 2.521 . S
La241 O267 2.628 . S
La241 O268 2.554 . S
La241 O269 2.757 1_556 S
La241 O270 2.470 . S
C242 La240 2.928 . S
C242 C243 1.503 . S
C242 O260 1.261 . S
C242 O261 1.243 . S
C243 C242 1.503 . S
C243 C244 1.394 . S
C243 C248 1.373 . S
C244 C243 1.394 . S
C244 C245 1.380 . S
C244 H272 0.930 . S
C245 C244 1.380 . S
C245 C246 1.376 . S
C245 H273 0.930 . S
C246 C245 1.376 . S
C246 C247 1.370 . S
C247 C246 1.370 . S
C247 C248 1.396 . S
C247 H274 0.929 . S
C248 C243 1.373 . S
C248 C247 1.396 . S
C248 H275 0.929 . S
C249 O262 1.240 . S
C249 O263 1.289 . S
C250 O264 1.258 . S
C250 O265 1.256 . S
C251 La241 2.928 . S
C251 C252 1.503 . S
C251 O266 1.261 . S
C251 O267 1.243 . S
C252 C251 1.503 . S
C252 C253 1.394 . S
C252 C257 1.373 . S
C253 C252 1.394 . S
C253 C254 1.380 . S
C253 H276 0.930 . S
C254 C253 1.380 . S
C254 C255 1.376 . S
C254 H277 0.930 . S
C255 C254 1.376 . S
C255 C256 1.370 . S
C256 C255 1.370 . S
C256 C257 1.396 . S
C256 H278 0.929 . S
C257 C252 1.373 . S
C257 C256 1.396 . S
C257 H279 0.929 . S
C258 O268 1.240 . S
C258 O269 1.289 1_556 S
C259 O270 1.258 . S
C259 O271 1.256 . S
O260 La240 2.521 . S
O260 C242 1.261 . S
O261 La240 2.628 . S
O261 C242 1.243 . S
O262 La240 2.554 . S
O262 C249 1.240 . S
O263 La240 2.757 . S
O263 La241 2.482 1_554 S
O263 C249 1.289 . S
O264 La240 2.470 . S
O264 C250 1.258 . S
O265 La241 2.503 1_554 S
O265 C250 1.256 . S
O266 La241 2.521 . S
O266 C251 1.261 . S
O267 La241 2.628 . S
O267 C251 1.243 . S
O268 La241 2.554 . S
O268 C258 1.240 . S
O269 La240 2.482 . S
O269 La241 2.757 1_554 S
O269 C258 1.289 1_554 S
O270 La241 2.470 . S
O270 C259 1.258 . S
O271 La240 2.503 1_556 S
O271 C259 1.256 . S
H272 C244 0.930 . S
H273 C245 0.930 . S
H274 C247 0.929 . S
H275 C248 0.929 . S
H276 C253 0.930 . S
H277 C254 0.930 . S
H278 C256 0.929 . S
H279 C257 0.929 . S
La280 C282 2.928 . S
La280 O300 2.521 . S
La280 O301 2.628 . S
La280 O302 2.554 . S
La280 O303 2.757 . S
La280 O304 2.470 . S
La280 O309 2.482 . S
La280 O311 2.503 . S
La281 C291 2.928 . S
La281 O303 2.482 . S
La281 O305 2.503 . S
La281 O306 2.521 . S
La281 O307 2.628 . S
La281 O308 2.554 . S
La281 O309 2.757 . S
La281 O310 2.470 . S
C282 La280 2.928 . S
C282 C283 1.503 . S
C282 O300 1.261 . S
C282 O301 1.243 . S
C283 C282 1.503 . S
C283 C284 1.394 . S
C283 C288 1.373 . S
C284 C283 1.394 . S
C284 C285 1.380 . S
C284 H312 0.930 . S
C285 C284 1.380 . S
C285 C286 1.376 . S
C285 H313 0.930 . S
C286 C285 1.376 . S
C286 C287 1.370 . S
C287 C286 1.370 . S
C287 C288 1.396 . S
C287 H314 0.929 . S
C288 C283 1.373 . S
C288 C287 1.396 . S
C288 H315 0.929 . S
C289 O302 1.240 . S
C289 O303 1.289 . S
C290 O304 1.258 . S
C290 O305 1.256 . S
C291 La281 2.928 . S
C291 C292 1.503 . S
C291 O306 1.261 . S
C291 O307 1.243 . S
C292 C291 1.503 . S
C292 C293 1.394 . S
C292 C297 1.373 . S
C293 C292 1.394 . S
C293 C294 1.380 . S
C293 H316 0.930 . S
C294 C293 1.380 . S
C294 C295 1.376 . S
C294 H317 0.930 . S
C295 C294 1.376 . S
C295 C296 1.370 . S
C296 C295 1.370 . S
C296 C297 1.396 . S
C296 H318 0.929 . S
C297 C292 1.373 . S
C297 C296 1.396 . S
C297 H319 0.929 . S
C298 O308 1.240 . S
C298 O309 1.289 . S
C299 O310 1.258 . S
C299 O311 1.256 . S
O300 La280 2.521 . S
O300 C282 1.261 . S
O301 La280 2.628 . S
O301 C282 1.243 . S
O302 La280 2.554 . S
O302 C289 1.240 . S
O303 La280 2.757 . S
O303 La281 2.482 . S
O303 C289 1.289 . S
O304 La280 2.470 . S
O304 C290 1.258 . S
O305 La281 2.503 . S
O305 C290 1.256 . S
O306 La281 2.521 . S
O306 C291 1.261 . S
O307 La281 2.628 . S
O307 C291 1.243 . S
O308 La281 2.554 . S
O308 C298 1.240 . S
O309 La280 2.482 . S
O309 La281 2.757 . S
O309 C298 1.289 . S
O310 La281 2.470 . S
O310 C299 1.258 . S
O311 La280 2.503 . S
O311 C299 1.256 . S
H312 C284 0.930 . S
H313 C285 0.930 . S
H314 C287 0.929 . S
H315 C288 0.929 . S
H316 C293 0.930 . S
H317 C294 0.930 . S
H318 C296 0.929 . S
H319 C297 0.929 . S
La320 C322 2.928 . S
La320 O340 2.521 . S
La320 O341 2.628 . S
La320 O342 2.554 . S
La320 O343 2.757 . S
La320 O344 2.470 . S
La320 O349 2.482 . S
La320 O351 2.503 . S
La321 C331 2.928 . S
La321 O343 2.482 . S
La321 O345 2.503 . S
La321 O346 2.521 . S
La321 O347 2.628 . S
La321 O348 2.554 . S
La321 O349 2.757 . S
La321 O350 2.470 . S
C322 La320 2.928 . S
C322 C323 1.503 . S
C322 O340 1.261 . S
C322 O341 1.243 . S
C323 C322 1.503 . S
C323 C324 1.394 . S
C323 C328 1.373 . S
C324 C323 1.394 . S
C324 C325 1.380 . S
C324 H352 0.930 . S
C325 C324 1.380 . S
C325 C326 1.376 . S
C325 H353 0.930 . S
C326 C325 1.376 . S
C326 C327 1.370 . S
C327 C326 1.370 . S
C327 C328 1.396 . S
C327 H354 0.929 . S
C328 C323 1.373 . S
C328 C327 1.396 . S
C328 H355 0.929 . S
C329 O342 1.240 . S
C329 O343 1.289 . S
C330 O344 1.258 . S
C330 O345 1.256 . S
C331 La321 2.928 . S
C331 C332 1.503 . S
C331 O346 1.261 . S
C331 O347 1.243 . S
C332 C331 1.503 . S
C332 C333 1.394 . S
C332 C337 1.373 . S
C333 C332 1.394 . S
C333 C334 1.380 . S
C333 H356 0.930 . S
C334 C333 1.380 . S
C334 C335 1.376 . S
C334 H357 0.930 . S
C335 C334 1.376 . S
C335 C336 1.370 . S
C336 C335 1.370 . S
C336 C337 1.396 . S
C336 H358 0.929 . S
C337 C332 1.373 . S
C337 C336 1.396 . S
C337 H359 0.929 . S
C338 O348 1.240 . S
C338 O349 1.289 . S
C339 O350 1.258 . S
C339 O351 1.256 . S
O340 La320 2.521 . S
O340 C322 1.261 . S
O341 La320 2.628 . S
O341 C322 1.243 . S
O342 La320 2.554 . S
O342 C329 1.240 . S
O343 La320 2.757 . S
O343 La321 2.482 . S
O343 C329 1.289 . S
O344 La320 2.470 . S
O344 C330 1.258 . S
O345 La321 2.503 . S
O345 C330 1.256 . S
O346 La321 2.521 . S
O346 C331 1.261 . S
O347 La321 2.628 . S
O347 C331 1.243 . S
O348 La321 2.554 . S
O348 C338 1.240 . S
O349 La320 2.482 . S
O349 La321 2.757 . S
O349 C338 1.289 . S
O350 La321 2.470 . S
O350 C339 1.258 . S
O351 La320 2.503 . S
O351 C339 1.256 . S
H352 C324 0.930 . S
H353 C325 0.930 . S
H354 C327 0.929 . S
H355 C328 0.929 . S
H356 C333 0.930 . S
H357 C334 0.930 . S
H358 C336 0.929 . S
H359 C337 0.929 . S
La360 C362 2.928 . S
La360 O380 2.521 . S
La360 O381 2.628 . S
La360 O382 2.554 1_565 S
La360 O383 2.757 1_565 S
La360 O384 2.470 1_565 S
La360 O389 2.482 . S
La360 O391 2.503 . S
La361 C371 2.928 . S
La361 O383 2.482 . S
La361 O385 2.503 . S
La361 O386 2.521 . S
La361 O387 2.628 . S
La361 O388 2.554 1_545 S
La361 O389 2.757 1_545 S
La361 O390 2.470 1_545 S
C362 La360 2.928 . S
C362 C363 1.503 . S
C362 O380 1.261 . S
C362 O381 1.243 . S
C363 C362 1.503 . S
C363 C364 1.394 . S
C363 C368 1.373 . S
C364 C363 1.394 . S
C364 C365 1.380 . S
C364 H392 0.930 . S
C365 C364 1.380 . S
C365 C366 1.376 . S
C365 H393 0.930 . S
C366 C365 1.376 . S
C366 C367 1.370 . S
C367 C366 1.370 . S
C367 C368 1.396 . S
C367 H394 0.929 . S
C368 C363 1.373 . S
C368 C367 1.396 . S
C368 H395 0.929 . S
C369 O382 1.240 . S
C369 O383 1.289 . S
C370 O384 1.258 . S
C370 O385 1.256 . S
C371 La361 2.928 . S
C371 C372 1.503 . S
C371 O386 1.261 . S
C371 O387 1.243 . S
C372 C371 1.503 . S
C372 C373 1.394 . S
C372 C377 1.373 . S
C373 C372 1.394 . S
C373 C374 1.380 . S
C373 H396 0.930 . S
C374 C373 1.380 . S
C374 C375 1.376 . S
C374 H397 0.930 . S
C375 C374 1.376 . S
C375 C376 1.370 . S
C376 C375 1.370 . S
C376 C377 1.396 . S
C376 H398 0.929 . S
C377 C372 1.373 . S
C377 C376 1.396 . S
C377 H399 0.929 . S
C378 O388 1.240 . S
C378 O389 1.289 . S
C379 O390 1.258 . S
C379 O391 1.256 . S
O380 La360 2.521 . S
O380 C362 1.261 . S
O381 La360 2.628 . S
O381 C362 1.243 . S
O382 La360 2.554 1_545 S
O382 C369 1.240 . S
O383 La360 2.757 1_545 S
O383 La361 2.482 . S
O383 C369 1.289 . S
O384 La360 2.470 1_545 S
O384 C370 1.258 . S
O385 La361 2.503 . S
O385 C370 1.256 . S
O386 La361 2.521 . S
O386 C371 1.261 . S
O387 La361 2.628 . S
O387 C371 1.243 . S
O388 La361 2.554 1_565 S
O388 C378 1.240 . S
O389 La360 2.482 . S
O389 La361 2.757 1_565 S
O389 C378 1.289 . S
O390 La361 2.470 1_565 S
O390 C379 1.258 . S
O391 La360 2.503 . S
O391 C379 1.256 . S
H392 C364 0.930 . S
H393 C365 0.930 . S
H394 C367 0.929 . S
H395 C368 0.929 . S
H396 C373 0.930 . S
H397 C374 0.930 . S
H398 C376 0.929 . S
H399 C377 0.929 . S
La400 C402 2.928 . S
La400 O420 2.521 . S
La400 O421 2.628 . S
La400 O422 2.554 . S
La400 O423 2.757 . S
La400 O424 2.470 . S
La400 O429 2.482 . S
La400 O431 2.503 1_565 S
La401 C411 2.928 . S
La401 O423 2.482 1_545 S
La401 O425 2.503 1_545 S
La401 O426 2.521 . S
La401 O427 2.628 . S
La401 O428 2.554 . S
La401 O429 2.757 1_545 S
La401 O430 2.470 . S
C402 La400 2.928 . S
C402 C403 1.503 . S
C402 O420 1.261 . S
C402 O421 1.243 . S
C403 C402 1.503 . S
C403 C404 1.394 . S
C403 C408 1.373 . S
C404 C403 1.394 . S
C404 C405 1.380 . S
C404 H432 0.930 . S
C405 C404 1.380 . S
C405 C406 1.376 . S
C405 H433 0.930 . S
C406 C405 1.376 . S
C406 C407 1.370 . S
C407 C406 1.370 . S
C407 C408 1.396 . S
C407 H434 0.929 . S
C408 C403 1.373 . S
C408 C407 1.396 . S
C408 H435 0.929 . S
C409 O422 1.240 . S
C409 O423 1.289 . S
C410 O424 1.258 . S
C410 O425 1.256 . S
C411 La401 2.928 . S
C411 C412 1.503 . S
C411 O426 1.261 . S
C411 O427 1.243 . S
C412 C411 1.503 . S
C412 C413 1.394 . S
C412 C417 1.373 . S
C413 C412 1.394 . S
C413 C414 1.380 . S
C413 H436 0.930 . S
C414 C413 1.380 . S
C414 C415 1.376 . S
C414 H437 0.930 . S
C415 C414 1.376 . S
C415 C416 1.370 . S
C416 C415 1.370 . S
C416 C417 1.396 . S
C416 H438 0.929 . S
C417 C412 1.373 . S
C417 C416 1.396 . S
C417 H439 0.929 . S
C418 O428 1.240 . S
C418 O429 1.289 1_545 S
C419 O430 1.258 . S
C419 O431 1.256 . S
O420 La400 2.521 . S
O420 C402 1.261 . S
O421 La400 2.628 . S
O421 C402 1.243 . S
O422 La400 2.554 . S
O422 C409 1.240 . S
O423 La400 2.757 . S
O423 La401 2.482 1_565 S
O423 C409 1.289 . S
O424 La400 2.470 . S
O424 C410 1.258 . S
O425 La401 2.503 1_565 S
O425 C410 1.256 . S
O426 La401 2.521 . S
O426 C411 1.261 . S
O427 La401 2.628 . S
O427 C411 1.243 . S
O428 La401 2.554 . S
O428 C418 1.240 . S
O429 La400 2.482 . S
O429 La401 2.757 1_565 S
O429 C418 1.289 1_565 S
O430 La401 2.470 . S
O430 C419 1.258 . S
O431 La400 2.503 1_545 S
O431 C419 1.256 . S
H432 C404 0.930 . S
H433 C405 0.930 . S
H434 C407 0.929 . S
H435 C408 0.929 . S
H436 C413 0.930 . S
H437 C414 0.930 . S
H438 C416 0.929 . S
H439 C417 0.929 . S
La440 C442 2.928 . S
La440 O460 2.521 . S
La440 O461 2.628 . S
La440 O462 2.554 . S
La440 O463 2.757 . S
La440 O464 2.470 . S
La440 O469 2.482 . S
La440 O471 2.503 . S
La441 C451 2.928 . S
La441 O463 2.482 . S
La441 O465 2.503 . S
La441 O466 2.521 . S
La441 O467 2.628 . S
La441 O468 2.554 . S
La441 O469 2.757 . S
La441 O470 2.470 . S
C442 La440 2.928 . S
C442 C443 1.503 . S
C442 O460 1.261 . S
C442 O461 1.243 . S
C443 C442 1.503 . S
C443 C444 1.394 . S
C443 C448 1.373 . S
C444 C443 1.394 . S
C444 C445 1.380 . S
C444 H472 0.930 . S
C445 C444 1.380 . S
C445 C446 1.376 . S
C445 H473 0.930 . S
C446 C445 1.376 . S
C446 C447 1.370 . S
C447 C446 1.370 . S
C447 C448 1.396 . S
C447 H474 0.929 . S
C448 C443 1.373 . S
C448 C447 1.396 . S
C448 H475 0.929 . S
C449 O462 1.240 . S
C449 O463 1.289 . S
C450 O464 1.258 . S
C450 O465 1.256 . S
C451 La441 2.928 . S
C451 C452 1.503 . S
C451 O466 1.261 . S
C451 O467 1.243 . S
C452 C451 1.503 . S
C452 C453 1.394 . S
C452 C457 1.373 . S
C453 C452 1.394 . S
C453 C454 1.380 . S
C453 H476 0.930 . S
C454 C453 1.380 . S
C454 C455 1.376 . S
C454 H477 0.930 . S
C455 C454 1.376 . S
C455 C456 1.370 . S
C456 C455 1.370 . S
C456 C457 1.396 . S
C456 H478 0.929 . S
C457 C452 1.373 . S
C457 C456 1.396 . S
C457 H479 0.929 . S
C458 O468 1.240 . S
C458 O469 1.289 . S
C459 O470 1.258 . S
C459 O471 1.256 . S
O460 La440 2.521 . S
O460 C442 1.261 . S
O461 La440 2.628 . S
O461 C442 1.243 . S
O462 La440 2.554 . S
O462 C449 1.240 . S
O463 La440 2.757 . S
O463 La441 2.482 . S
O463 C449 1.289 . S
O464 La440 2.470 . S
O464 C450 1.258 . S
O465 La441 2.503 . S
O465 C450 1.256 . S
O466 La441 2.521 . S
O466 C451 1.261 . S
O467 La441 2.628 . S
O467 C451 1.243 . S
O468 La441 2.554 . S
O468 C458 1.240 . S
O469 La440 2.482 . S
O469 La441 2.757 . S
O469 C458 1.289 . S
O470 La441 2.470 . S
O470 C459 1.258 . S
O471 La440 2.503 . S
O471 C459 1.256 . S
H472 C444 0.930 . S
H473 C445 0.930 . S
H474 C447 0.929 . S
H475 C448 0.929 . S
H476 C453 0.930 . S
H477 C454 0.930 . S
H478 C456 0.929 . S
H479 C457 0.929 . S
H480 C488 0.929 . S
H481 C490 0.930 . S
H482 C492 0.930 . S
H483 C495 0.929 . S
H484 C498 0.930 . S
H485 C500 0.960 . S
H486 C500 0.960 . S
H487 C500 0.960 . S
C488 H480 0.929 . S
C488 C489 1.377 . S
C488 C490 1.384 . S
C489 C488 1.377 . S
C489 C495 1.390 . S
C490 H481 0.930 . S
C490 C488 1.384 . S
C490 C491 1.372 . S
C491 C490 1.372 . S
C491 C492 1.400 . S
C491 C496 1.490 . S
C492 H482 0.930 . S
C492 C491 1.400 . S
C492 C495 1.386 . S
H493 C509 0.930 . S
H494 C510 0.931 . S
C495 H483 0.929 . S
C495 C489 1.390 . S
C495 C492 1.386 . S
C496 C491 1.490 . S
C496 C498 1.395 . S
C496 C499 1.403 . S
H497 C503 0.930 . S
C498 H484 0.930 . S
C498 C496 1.395 . S
C498 C501 1.403 . S
C499 C496 1.403 . S
C499 C500 1.524 . S
C499 C503 1.400 . S
C500 H485 0.960 . S
C500 H486 0.960 . S
C500 H487 0.960 . S
C500 C499 1.524 . S
C501 C498 1.403 . S
C501 C502 1.392 . S
C501 C505 1.495 . S
C502 C501 1.392 . S
C502 C503 1.385 . S
C502 C504 1.478 . S
C503 H497 0.930 . S
C503 C499 1.400 . S
C503 C502 1.385 . S
C504 C502 1.478 . S
C504 C506 1.381 . S
C504 C510 1.383 . S
C505 C501 1.495 . S
C505 H511 0.959 . S
C505 H512 0.961 . S
C505 H513 0.960 . S
C506 C504 1.381 . S
C506 C507 1.394 . S
C506 H514 0.930 . S
C507 C506 1.394 . S
C507 C508 1.383 . S
C507 H515 0.929 . S
C508 C507 1.383 . S
C508 C509 1.377 . S
C509 H493 0.930 . S
C509 C508 1.377 . S
C509 C510 1.379 . S
C510 H494 0.931 . S
C510 C504 1.383 . S
C510 C509 1.379 . S
H511 C505 0.959 . S
H512 C505 0.961 . S
H513 C505 0.960 . S
H514 C506 0.930 . S
H515 C507 0.929 . S
H516 C524 0.929 . S
H517 C526 0.930 . S
H518 C528 0.930 . S
H519 C531 0.912 1_545 S
H520 C534 0.930 . S
H521 C536 0.960 1_545 S
H522 C536 0.965 . S
H523 C536 0.960 1_545 S
C524 H516 0.929 . S
C524 C525 1.377 . S
C524 C526 1.384 . S
C525 C524 1.377 . S
C525 C531 1.390 . S
C526 H517 0.930 . S
C526 C524 1.384 . S
C526 C527 1.372 . S
C527 C526 1.372 . S
C527 C528 1.400 . S
C527 C532 1.490 . S
C528 H518 0.930 . S
C528 C527 1.400 . S
C528 C531 1.386 . S
H529 C545 0.930 . S
H530 C546 0.931 . S
C531 H519 0.912 1_565 S
C531 C525 1.390 . S
C531 C528 1.386 . S
C532 C527 1.490 . S
C532 C534 1.395 . S
C532 C535 1.403 . S
H533 C539 0.930 . S
C534 H520 0.930 . S
C534 C532 1.395 . S
C534 C537 1.403 . S
C535 C532 1.403 . S
C535 C536 1.524 . S
C535 C539 1.400 . S
C536 H521 0.960 1_565 S
C536 H522 0.965 . S
C536 H523 0.960 1_565 S
C536 C535 1.524 . S
C537 C534 1.403 . S
C537 C538 1.392 . S
C537 C541 1.495 . S
C538 C537 1.392 . S
C538 C539 1.385 . S
C538 C540 1.478 . S
C539 H533 0.930 . S
C539 C535 1.400 . S
C539 C538 1.385 . S
C540 C538 1.478 . S
C540 C542 1.381 . S
C540 C546 1.383 . S
C541 C537 1.495 . S
C541 H547 0.959 . S
C541 H548 0.961 . S
C541 H549 0.960 . S
C542 C540 1.381 . S
C542 C543 1.394 . S
C542 H550 0.930 . S
C543 C542 1.394 . S
C543 C544 1.383 . S
C543 H551 0.929 . S
C544 C543 1.383 . S
C544 C545 1.377 . S
C545 H529 0.930 . S
C545 C544 1.377 . S
C545 C546 1.379 . S
C546 H530 0.931 . S
C546 C540 1.383 . S
C546 C545 1.379 . S
H547 C541 0.959 . S
H548 C541 0.961 . S
H549 C541 0.960 . S
H550 C542 0.930 . S
H551 C543 0.929 . S
H552 C560 0.929 . S
H553 C562 0.930 . S
H554 C564 0.930 . S
H555 C567 0.929 . S
H556 C570 0.930 . S
H557 C572 0.960 . S
H558 C572 0.960 . S
H559 C572 0.960 1_556 S
C560 H552 0.929 . S
C560 C561 1.377 1_554 S
C560 C562 1.384 . S
C561 C560 1.377 1_556 S
C561 C567 1.390 . S
C562 H553 0.930 . S
C562 C560 1.384 . S
C562 C563 1.372 . S
C563 C562 1.372 . S
C563 C564 1.400 1_554 S
C563 C568 1.490 . S
C564 H554 0.930 . S
C564 C563 1.400 1_556 S
C564 C567 1.386 . S
H565 C581 0.930 . S
H566 C582 0.931 . S
C567 H555 0.929 . S
C567 C561 1.390 . S
C567 C564 1.386 . S
C568 C563 1.490 . S
C568 C570 1.395 . S
C568 C571 1.403 . S
H569 C575 0.930 . S
C570 H556 0.930 . S
C570 C568 1.395 . S
C570 C573 1.403 . S
C571 C568 1.403 . S
C571 C572 1.524 . S
C571 C575 1.400 . S
C572 H557 0.960 . S
C572 H558 0.960 . S
C572 H559 0.960 1_554 S
C572 C571 1.524 . S
C573 C570 1.403 . S
C573 C574 1.392 . S
C573 C577 1.495 . S
C574 C573 1.392 . S
C574 C575 1.385 . S
C574 C576 1.478 . S
C575 H569 0.930 . S
C575 C571 1.400 . S
C575 C574 1.385 . S
C576 C574 1.478 . S
C576 C578 1.381 . S
C576 C582 1.383 . S
C577 C573 1.495 . S
C577 H583 0.959 . S
C577 H584 0.961 . S
C577 H585 0.960 . S
C578 C576 1.381 . S
C578 C579 1.394 . S
C578 H586 0.930 . S
C579 C578 1.394 . S
C579 C580 1.383 . S
C579 H587 0.929 . S
C580 C579 1.383 . S
C580 C581 1.377 . S
C581 H565 0.930 . S
C581 C580 1.377 . S
C581 C582 1.379 . S
C582 H566 0.931 . S
C582 C576 1.383 . S
C582 C581 1.379 . S
H583 C577 0.959 . S
H584 C577 0.961 . S
H585 C577 0.960 . S
H586 C578 0.930 . S
H587 C579 0.929 . S
H588 C596 0.929 . S
H589 C598 0.930 . S
H590 C600 0.930 . S
H591 C603 0.929 . S
H592 C606 0.930 . S
H593 C608 0.960 . S
H594 C608 0.960 . S
H595 C608 0.960 . S
C596 H588 0.929 . S
C596 C597 1.377 . S
C596 C598 1.384 . S
C597 C596 1.377 . S
C597 C603 1.390 . S
C598 H589 0.930 . S
C598 C596 1.384 . S
C598 C599 1.372 . S
C599 C598 1.372 . S
C599 C600 1.400 . S
C599 C604 1.490 . S
C600 H590 0.930 . S
C600 C599 1.400 . S
C600 C603 1.386 . S
H601 C617 0.930 . S
H602 C618 0.931 . S
C603 H591 0.929 . S
C603 C597 1.390 . S
C603 C600 1.386 . S
C604 C599 1.490 . S
C604 C606 1.395 . S
C604 C607 1.403 . S
H605 C611 0.930 . S
C606 H592 0.930 . S
C606 C604 1.395 . S
C606 C609 1.403 . S
C607 C604 1.403 . S
C607 C608 1.524 . S
C607 C611 1.400 . S
C608 H593 0.960 . S
C608 H594 0.960 . S
C608 H595 0.960 . S
C608 C607 1.524 . S
C609 C606 1.403 . S
C609 C610 1.392 . S
C609 C613 1.495 . S
C610 C609 1.392 . S
C610 C611 1.385 . S
C610 C612 1.478 . S
C611 H605 0.930 . S
C611 C607 1.400 . S
C611 C610 1.385 . S
C612 C610 1.478 . S
C612 C614 1.381 . S
C612 C618 1.383 . S
C613 C609 1.495 . S
C613 H619 0.959 . S
C613 H620 0.961 1_545 S
C613 H621 0.960 . S
C614 C612 1.381 . S
C614 C615 1.394 . S
C614 H622 0.930 . S
C615 C614 1.394 . S
C615 C616 1.383 . S
C615 H623 0.929 . S
C616 C615 1.383 . S
C616 C617 1.377 . S
C617 H601 0.930 . S
C617 C616 1.377 . S
C617 C618 1.379 . S
C618 H602 0.931 . S
C618 C612 1.383 . S
C618 C617 1.379 . S
H619 C613 0.959 . S
H620 C613 0.961 1_565 S
H621 C613 0.960 . S
H622 C614 0.930 . S
H623 C615 0.929 . S
H624 C632 0.929 . S
H625 C634 0.930 . S
H626 C636 0.930 . S
H627 C639 0.929 . S
H628 C642 0.930 . S
H629 C644 0.960 . S
H630 C644 0.960 . S
H631 C644 0.960 . S
C632 H624 0.929 . S
C632 C633 1.377 . S
C632 C634 1.384 . S
C633 C632 1.377 . S
C633 C639 1.390 . S
C634 H625 0.930 . S
C634 C632 1.384 . S
C634 C635 1.372 . S
C635 C634 1.372 . S
C635 C636 1.400 . S
C635 C640 1.490 . S
C636 H626 0.930 . S
C636 C635 1.400 . S
C636 C639 1.386 . S
H637 C653 0.930 . S
H638 C654 0.931 . S
C639 H627 0.929 . S
C639 C633 1.390 . S
C639 C636 1.386 . S
C640 C635 1.490 . S
C640 C642 1.395 . S
C640 C643 1.403 . S
H641 C647 0.930 . S
C642 H628 0.930 . S
C642 C640 1.395 . S
C642 C645 1.403 . S
C643 C640 1.403 . S
C643 C644 1.524 . S
C643 C647 1.400 . S
C644 H629 0.960 . S
C644 H630 0.960 . S
C644 H631 0.960 . S
C644 C643 1.524 . S
C645 C642 1.403 . S
C645 C646 1.392 . S
C645 C649 1.495 . S
C646 C645 1.392 . S
C646 C647 1.385 . S
C646 C648 1.478 . S
C647 H641 0.930 . S
C647 C643 1.400 . S
C647 C646 1.385 . S
C648 C646 1.478 . S
C648 C650 1.381 . S
C648 C654 1.383 . S
C649 C645 1.495 . S
C649 H655 0.959 . S
C649 H656 0.961 . S
C649 H657 0.960 . S
C650 C648 1.381 . S
C650 C651 1.394 . S
C650 H658 0.930 . S
C651 C650 1.394 . S
C651 C652 1.383 . S
C651 H659 0.929 . S
C652 C651 1.383 . S
C652 C653 1.377 . S
C653 H637 0.930 . S
C653 C652 1.377 . S
C653 C654 1.379 . S
C654 H638 0.931 . S
C654 C648 1.383 . S
C654 C653 1.379 . S
H655 C649 0.959 . S
H656 C649 0.961 . S
H657 C649 0.960 . S
H658 C650 0.930 . S
H659 C651 0.929 . S
H660 C668 0.929 . S
H661 C670 0.930 . S
H662 C672 0.930 . S
H663 C675 0.929 . S
H664 C678 0.930 . S
H665 C680 0.960 . S
H666 C680 0.960 . S
H667 C680 0.960 . S
C668 H660 0.929 . S
C668 C669 1.377 . S
C668 C670 1.384 . S
C669 C668 1.377 . S
C669 C675 1.390 . S
C670 H661 0.930 . S
C670 C668 1.384 . S
C670 C671 1.372 . S
C671 C670 1.372 . S
C671 C672 1.400 . S
C671 C676 1.490 . S
C672 H662 0.930 . S
C672 C671 1.400 . S
C672 C675 1.386 . S
H673 C689 0.930 . S
H674 C690 0.931 . S
C675 H663 0.929 . S
C675 C669 1.390 . S
C675 C672 1.386 . S
C676 C671 1.490 . S
C676 C678 1.395 . S
C676 C679 1.403 . S
H677 C683 0.930 . S
C678 H664 0.930 . S
C678 C676 1.395 . S
C678 C681 1.403 . S
C679 C676 1.403 . S
C679 C680 1.524 . S
C679 C683 1.400 . S
C680 H665 0.960 . S
C680 H666 0.960 . S
C680 H667 0.960 . S
C680 C679 1.524 . S
C681 C678 1.403 . S
C681 C682 1.392 . S
C681 C685 1.495 . S
C682 C681 1.392 . S
C682 C683 1.385 . S
C682 C684 1.478 . S
C683 H677 0.930 . S
C683 C679 1.400 . S
C683 C682 1.385 . S
C684 C682 1.478 . S
C684 C686 1.381 . S
C684 C690 1.383 . S
C685 C681 1.495 . S
C685 H691 0.959 . S
C685 H692 0.961 . S
C685 H693 0.960 . S
C686 C684 1.381 . S
C686 C687 1.394 . S
C686 H694 0.930 . S
C687 C686 1.394 . S
C687 C688 1.383 . S
C687 H695 0.929 . S
C688 C687 1.383 . S
C688 C689 1.377 . S
C689 H673 0.930 . S
C689 C688 1.377 . S
C689 C690 1.379 . S
C690 H674 0.931 . S
C690 C684 1.383 . S
C690 C689 1.379 . S
H691 C685 0.959 . S
H692 C685 0.961 . S
H693 C685 0.960 . S
H694 C686 0.930 . S
H695 C687 0.929 . S
H696 C704 0.929 . S
H697 C706 0.930 . S
H698 C708 0.930 . S
H699 C711 0.929 . S
H700 C714 0.930 . S
H701 C716 0.960 . S
H702 C716 0.960 . S
H703 C716 0.960 . S
C704 H696 0.929 . S
C704 C705 1.377 . S
C704 C706 1.384 . S
C705 C704 1.377 . S
C705 C711 1.390 . S
C706 H697 0.930 . S
C706 C704 1.384 . S
C706 C707 1.372 . S
C707 C706 1.372 . S
C707 C708 1.400 . S
C707 C712 1.490 . S
C708 H698 0.930 . S
C708 C707 1.400 . S
C708 C711 1.386 . S
H709 C725 0.930 . S
H710 C726 0.931 . S
C711 H699 0.929 . S
C711 C705 1.390 . S
C711 C708 1.386 . S
C712 C707 1.490 . S
C712 C714 1.395 . S
C712 C715 1.403 . S
H713 C719 0.930 . S
C714 H700 0.930 . S
C714 C712 1.395 . S
C714 C717 1.403 . S
C715 C712 1.403 . S
C715 C716 1.524 . S
C715 C719 1.400 . S
C716 H701 0.960 . S
C716 H702 0.960 . S
C716 H703 0.960 . S
C716 C715 1.524 . S
C717 C714 1.403 . S
C717 C718 1.392 . S
C717 C721 1.495 . S
C718 C717 1.392 . S
C718 C719 1.385 . S
C718 C720 1.478 . S
C719 H713 0.930 . S
C719 C715 1.400 . S
C719 C718 1.385 . S
C720 C718 1.478 . S
C720 C722 1.381 . S
C720 C726 1.383 . S
C721 C717 1.495 . S
C721 H727 0.959 . S
C721 H728 0.961 . S
C721 H729 0.960 . S
C722 C720 1.381 . S
C722 C723 1.394 . S
C722 H730 0.930 . S
C723 C722 1.394 . S
C723 C724 1.383 . S
C723 H731 0.929 1_556 S
C724 C723 1.383 . S
C724 C725 1.377 . S
C725 H709 0.930 . S
C725 C724 1.377 . S
C725 C726 1.379 . S
C726 H710 0.931 . S
C726 C720 1.383 . S
C726 C725 1.379 . S
H727 C721 0.959 . S
H728 C721 0.961 . S
H729 C721 0.960 . S
H730 C722 0.930 . S
H731 C723 0.929 1_554 S
H732 C740 0.929 . S
H733 C742 0.930 . S
H734 C744 0.930 . S
H735 C747 0.929 . S
H736 C750 0.930 . S
H737 C752 0.960 . S
H738 C752 0.960 . S
H739 C752 0.960 . S
C740 H732 0.929 . S
C740 C741 1.377 . S
C740 C742 1.384 . S
C741 C740 1.377 . S
C741 C747 1.390 . S
C742 H733 0.930 . S
C742 C740 1.384 . S
C742 C743 1.372 . S
C743 C742 1.372 . S
C743 C744 1.400 . S
C743 C748 1.490 . S
C744 H734 0.930 . S
C744 C743 1.400 . S
C744 C747 1.386 . S
H745 C761 0.930 . S
H746 C762 0.931 . S
C747 H735 0.929 . S
C747 C741 1.390 . S
C747 C744 1.386 . S
C748 C743 1.490 . S
C748 C750 1.395 . S
C748 C751 1.403 . S
H749 C755 0.930 . S
C750 H736 0.930 . S
C750 C748 1.395 . S
C750 C753 1.403 . S
C751 C748 1.403 . S
C751 C752 1.524 . S
C751 C755 1.400 . S
C752 H737 0.960 . S
C752 H738 0.960 . S
C752 H739 0.960 . S
C752 C751 1.524 . S
C753 C750 1.403 . S
C753 C754 1.392 . S
C753 C757 1.495 . S
C754 C753 1.392 . S
C754 C755 1.385 . S
C754 C756 1.478 . S
C755 H749 0.930 . S
C755 C751 1.400 . S
C755 C754 1.385 . S
C756 C754 1.478 . S
C756 C758 1.381 . S
C756 C762 1.383 . S
C757 C753 1.495 . S
C757 H763 0.959 . S
C757 H764 0.961 . S
C757 H765 0.960 . S
C758 C756 1.381 . S
C758 C759 1.394 . S
C758 H766 0.930 . S
C759 C758 1.394 . S
C759 C760 1.383 . S
C759 H767 0.929 . S
C760 C759 1.383 . S
C760 C761 1.377 . S
C761 H745 0.930 . S
C761 C760 1.377 . S
C761 C762 1.379 . S
C762 H746 0.931 . S
C762 C756 1.383 . S
C762 C761 1.379 . S
H763 C757 0.959 . S
H764 C757 0.961 . S
H765 C757 0.960 . S
H766 C758 0.930 . S
H767 C759 0.929 . S
H768 C776 0.929 . S
H769 C778 0.930 . S
H770 C780 0.930 . S
H771 C783 0.929 . S
H772 C786 0.930 . S
H773 C788 0.960 . S
H774 C788 0.960 . S
H775 C788 0.960 . S
C776 H768 0.929 . S
C776 C777 1.377 . S
C776 C778 1.384 . S
C777 C776 1.377 . S
C777 C783 1.390 . S
C778 H769 0.930 . S
C778 C776 1.384 . S
C778 C779 1.372 . S
C779 C778 1.372 . S
C779 C780 1.400 . S
C779 C784 1.490 . S
C780 H770 0.930 . S
C780 C779 1.400 . S
C780 C783 1.386 . S
H781 C797 0.930 . S
H782 C798 0.931 . S
C783 H771 0.929 . S
C783 C777 1.390 . S
C783 C780 1.386 . S
C784 C779 1.490 . S
C784 C786 1.395 . S
C784 C787 1.403 . S
H785 C791 0.930 . S
C786 H772 0.930 . S
C786 C784 1.395 . S
C786 C789 1.403 . S
C787 C784 1.403 . S
C787 C788 1.524 . S
C787 C791 1.400 . S
C788 H773 0.960 . S
C788 H774 0.960 . S
C788 H775 0.960 . S
C788 C787 1.524 . S
C789 C786 1.403 . S
C789 C790 1.392 . S
C789 C793 1.495 . S
C790 C789 1.392 . S
C790 C791 1.385 . S
C790 C792 1.478 . S
C791 H785 0.930 . S
C791 C787 1.400 . S
C791 C790 1.385 . S
C792 C790 1.478 . S
C792 C794 1.381 . S
C792 C798 1.383 . S
C793 C789 1.495 . S
C793 H799 0.959 . S
C793 H800 0.961 . S
C793 H801 0.960 . S
C794 C792 1.381 . S
C794 C795 1.394 . S
C794 H802 0.930 . S
C795 C794 1.394 . S
C795 C796 1.383 . S
C795 H803 0.929 . S
C796 C795 1.383 . S
C796 C797 1.377 . S
C797 H781 0.930 . S
C797 C796 1.377 . S
C797 C798 1.379 . S
C798 H782 0.931 . S
C798 C792 1.383 . S
C798 C797 1.379 . S
H799 C793 0.959 . S
H800 C793 0.961 . S
H801 C793 0.960 . S
H802 C794 0.930 . S
H803 C795 0.929 . S
H804 C812 0.929 . S
H805 C814 0.930 . S
H806 C816 0.930 . S
H807 C819 0.929 . S
H808 C822 0.930 . S
H809 C824 0.960 . S
H810 C824 0.960 . S
H811 C824 0.960 . S
C812 H804 0.929 . S
C812 C813 1.377 . S
C812 C814 1.384 . S
C813 C812 1.377 . S
C813 C819 1.390 . S
C814 H805 0.930 . S
C814 C812 1.384 . S
C814 C815 1.372 . S
C815 C814 1.372 . S
C815 C816 1.400 . S
C815 C820 1.490 . S
C816 H806 0.930 . S
C816 C815 1.400 . S
C816 C819 1.386 . S
H817 C833 0.930 . S
H818 C834 0.931 . S
C819 H807 0.929 . S
C819 C813 1.390 . S
C819 C816 1.386 . S
C820 C815 1.490 . S
C820 C822 1.395 . S
C820 C823 1.403 . S
H821 C827 0.930 . S
C822 H808 0.930 . S
C822 C820 1.395 . S
C822 C825 1.403 . S
C823 C820 1.403 . S
C823 C824 1.524 . S
C823 C827 1.400 . S
C824 H809 0.960 . S
C824 H810 0.960 . S
C824 H811 0.960 . S
C824 C823 1.524 . S
C825 C822 1.403 . S
C825 C826 1.392 . S
C825 C829 1.495 . S
C826 C825 1.392 . S
C826 C827 1.385 . S
C826 C828 1.478 . S
C827 H821 0.930 . S
C827 C823 1.400 . S
C827 C826 1.385 . S
C828 C826 1.478 . S
C828 C830 1.381 . S
C828 C834 1.383 . S
C829 C825 1.495 . S
C829 H835 0.959 . S
C829 H836 0.961 . S
C829 H837 0.960 . S
C830 C828 1.381 . S
C830 C831 1.394 . S
C830 H838 0.930 . S
C831 C830 1.394 . S
C831 C832 1.383 . S
C831 H839 0.929 . S
C832 C831 1.383 . S
C832 C833 1.377 . S
C833 H817 0.930 . S
C833 C832 1.377 . S
C833 C834 1.379 . S
C834 H818 0.931 . S
C834 C828 1.383 . S
C834 C833 1.379 . S
H835 C829 0.959 . S
H836 C829 0.961 . S
H837 C829 0.960 . S
H838 C830 0.930 . S
H839 C831 0.929 . S
H840 C848 0.929 . S
H841 C850 0.930 . S
H842 C852 0.930 . S
H843 C855 0.929 . S
H844 C858 0.930 1_455 S
H845 C860 0.960 . S
H846 C860 0.960 . S
H847 C860 0.960 . S
C848 H840 0.929 . S
C848 C849 1.377 . S
C848 C850 1.384 . S
C849 C848 1.377 . S
C849 C855 1.390 1_455 S
C850 H841 0.930 . S
C850 C848 1.384 . S
C850 C851 1.372 1_455 S
C851 C850 1.372 1_655 S
C851 C852 1.400 . S
C851 C856 1.490 . S
C852 H842 0.930 . S
C852 C851 1.400 . S
C852 C855 1.386 . S
H853 C869 0.930 . S
H854 C870 0.931 . S
C855 H843 0.929 . S
C855 C849 1.390 1_655 S
C855 C852 1.386 . S
C856 C851 1.490 . S
C856 C858 1.395 . S
C856 C859 1.403 . S
H857 C863 0.930 . S
C858 H844 0.930 1_655 S
C858 C856 1.395 . S
C858 C861 1.403 . S
C859 C856 1.403 . S
C859 C860 1.524 . S
C859 C863 1.400 . S
C860 H845 0.960 . S
C860 H846 0.960 . S
C860 H847 0.960 . S
C860 C859 1.524 . S
C861 C858 1.403 . S
C861 C862 1.392 . S
C861 C865 1.495 . S
C862 C861 1.392 . S
C862 C863 1.385 . S
C862 C864 1.478 . S
C863 H857 0.930 . S
C863 C859 1.400 . S
C863 C862 1.385 . S
C864 C862 1.478 . S
C864 C866 1.381 . S
C864 C870 1.383 . S
C865 C861 1.495 . S
C865 H871 0.959 1_655 S
C865 H872 0.961 . S
C865 H873 0.960 1_655 S
C866 C864 1.381 . S
C866 C867 1.394 . S
C866 H874 0.930 . S
C867 C866 1.394 . S
C867 C868 1.383 . S
C867 H875 0.929 . S
C868 C867 1.383 . S
C868 C869 1.377 . S
C869 H853 0.930 . S
C869 C868 1.377 . S
C869 C870 1.379 . S
C870 H854 0.931 . S
C870 C864 1.383 . S
C870 C869 1.379 . S
H871 C865 0.959 1_455 S
H872 C865 0.961 . S
H873 C865 0.960 1_455 S
H874 C866 0.930 . S
H875 C867 0.929 . S
H876 C884 0.929 . S
H877 C886 0.930 . S
H878 C888 0.930 . S
H879 C891 0.929 . S
H880 C894 0.930 . S
H881 C896 0.960 . S
H882 C896 0.960 . S
H883 C896 0.960 . S
C884 H876 0.929 . S
C884 C885 1.377 . S
C884 C886 1.384 . S
C885 C884 1.377 . S
C885 C891 1.390 . S
C886 H877 0.930 . S
C886 C884 1.384 . S
C886 C887 1.372 . S
C887 C886 1.372 . S
C887 C888 1.400 . S
C887 C892 1.490 . S
C888 H878 0.930 . S
C888 C887 1.400 . S
C888 C891 1.386 . S
H889 C905 0.930 . S
H890 C906 0.931 . S
C891 H879 0.929 . S
C891 C885 1.390 . S
C891 C888 1.386 . S
C892 C887 1.490 . S
C892 C894 1.395 . S
C892 C895 1.403 . S
H893 C899 0.930 . S
C894 H880 0.930 . S
C894 C892 1.395 . S
C894 C897 1.403 . S
C895 C892 1.403 . S
C895 C896 1.524 . S
C895 C899 1.400 . S
C896 H881 0.960 . S
C896 H882 0.960 . S
C896 H883 0.960 . S
C896 C895 1.524 . S
C897 C894 1.403 . S
C897 C898 1.392 . S
C897 C901 1.495 . S
C898 C897 1.392 . S
C898 C899 1.385 . S
C898 C900 1.478 . S
C899 H893 0.930 . S
C899 C895 1.400 . S
C899 C898 1.385 . S
C900 C898 1.478 . S
C900 C902 1.381 . S
C900 C906 1.383 . S
C901 C897 1.495 . S
C901 H907 0.959 . S
C901 H908 0.961 . S
C901 H909 0.960 . S
C902 C900 1.381 . S
C902 C903 1.394 . S
C902 H910 0.930 . S
C903 C902 1.394 . S
C903 C904 1.383 . S
C903 H911 0.929 . S
C904 C903 1.383 . S
C904 C905 1.377 . S
C905 H889 0.930 . S
C905 C904 1.377 . S
C905 C906 1.379 . S
C906 H890 0.931 . S
C906 C900 1.383 . S
C906 C905 1.379 . S
H907 C901 0.959 . S
H908 C901 0.961 . S
H909 C901 0.960 . S
H910 C902 0.930 . S
H911 C903 0.929 . S
H912 C920 0.929 . S
H913 C922 0.930 . S
H914 C924 0.930 . S
H915 C927 0.929 . S
H916 C930 0.930 . S
H917 C932 0.960 . S
H918 C932 0.960 . S
H919 C932 0.960 . S
C920 H912 0.929 . S
C920 C921 1.377 . S
C920 C922 1.384 . S
C921 C920 1.377 . S
C921 C927 1.390 . S
C922 H913 0.930 . S
C922 C920 1.384 . S
C922 C923 1.372 . S
C923 C922 1.372 . S
C923 C924 1.400 . S
C923 C928 1.490 . S
C924 H914 0.930 . S
C924 C923 1.400 . S
C924 C927 1.386 . S
H925 C941 0.930 . S
H926 C942 0.931 . S
C927 H915 0.929 . S
C927 C921 1.390 . S
C927 C924 1.386 . S
C928 C923 1.490 . S
C928 C930 1.395 . S
C928 C931 1.403 . S
H929 C935 0.930 . S
C930 H916 0.930 . S
C930 C928 1.395 . S
C930 C933 1.403 . S
C931 C928 1.403 . S
C931 C932 1.524 . S
C931 C935 1.400 . S
C932 H917 0.960 . S
C932 H918 0.960 . S
C932 H919 0.960 . S
C932 C931 1.524 . S
C933 C930 1.403 . S
C933 C934 1.392 . S
C933 C937 1.495 . S
C934 C933 1.392 . S
C934 C935 1.385 . S
C934 C936 1.478 . S
C935 H929 0.930 . S
C935 C931 1.400 . S
C935 C934 1.385 . S
C936 C934 1.478 . S
C936 C938 1.381 . S
C936 C942 1.383 . S
C937 C933 1.495 . S
C937 H943 0.959 . S
C937 H944 0.961 . S
C937 H945 0.960 . S
C938 C936 1.381 . S
C938 C939 1.394 . S
C938 H946 0.930 . S
C939 C938 1.394 . S
C939 C940 1.383 . S
C939 H947 0.929 . S
C940 C939 1.383 . S
C940 C941 1.377 . S
C941 H925 0.930 . S
C941 C940 1.377 . S
C941 C942 1.379 . S
C942 H926 0.931 . S
C942 C936 1.383 . S
C942 C941 1.379 . S
H943 C937 0.959 . S
H944 C937 0.961 . S
H945 C937 0.960 . S
H946 C938 0.930 . S
H947 C939 0.929 . S
H948 C956 0.929 . S
H949 C958 0.930 . S
H950 C960 0.930 . S
H951 C963 0.929 . S
H952 C966 0.930 . S
H953 C968 0.960 . S
H954 C968 0.960 . S
H955 C968 0.960 . S
C956 H948 0.929 . S
C956 C957 1.377 . S
C956 C958 1.384 . S
C957 C956 1.377 . S
C957 C963 1.390 . S
C958 H949 0.930 . S
C958 C956 1.384 . S
C958 C959 1.372 . S
C959 C958 1.372 . S
C959 C960 1.400 . S
C959 C964 1.490 . S
C960 H950 0.930 . S
C960 C959 1.400 . S
C960 C963 1.386 . S
H961 C977 0.930 . S
H962 C978 0.931 . S
C963 H951 0.929 . S
C963 C957 1.390 . S
C963 C960 1.386 . S
C964 C959 1.490 . S
C964 C966 1.395 . S
C964 C967 1.403 . S
H965 C971 0.930 . S
C966 H952 0.930 . S
C966 C964 1.395 . S
C966 C969 1.403 . S
C967 C964 1.403 . S
C967 C968 1.524 . S
C967 C971 1.400 . S
C968 H953 0.960 . S
C968 H954 0.960 . S
C968 H955 0.960 . S
C968 C967 1.524 . S
C969 C966 1.403 . S
C969 C970 1.392 . S
C969 C973 1.495 . S
C970 C969 1.392 . S
C970 C971 1.385 . S
C970 C972 1.478 . S
C971 H965 0.930 . S
C971 C967 1.400 . S
C971 C970 1.385 . S
C972 C970 1.478 . S
C972 C974 1.381 . S
C972 C978 1.383 . S
C973 C969 1.495 . S
C973 H979 0.959 . S
C973 H980 0.961 . S
C973 H981 0.960 . S
C974 C972 1.381 . S
C974 C975 1.394 . S
C974 H982 0.930 . S
C975 C974 1.394 . S
C975 C976 1.383 . S
C975 H983 0.929 . S
C976 C975 1.383 . S
C976 C977 1.377 . S
C977 H961 0.930 . S
C977 C976 1.377 . S
C977 C978 1.379 . S
C978 H962 0.931 . S
C978 C972 1.383 . S
C978 C977 1.379 . S
H979 C973 0.959 . S
H980 C973 0.961 . S
H981 C973 0.960 . S
H982 C974 0.930 . S
H983 C975 0.929 . S
H984 C992 0.929 . S
H985 C994 0.930 . S
H986 C996 0.930 . S
H987 C999 0.929 . S
H988 C1002 0.930 . S
H989 C1004 0.960 . S
H990 C1004 0.960 . S
H991 C1004 0.960 . S
C992 H984 0.929 . S
C992 C993 1.377 . S
C992 C994 1.384 . S
C993 C992 1.377 . S
C993 C999 1.390 . S
C994 H985 0.930 . S
C994 C992 1.384 . S
C994 C995 1.372 . S
C995 C994 1.372 . S
C995 C996 1.400 . S
C995 C1000 1.490 . S
C996 H986 0.930 . S
C996 C995 1.400 . S
C996 C999 1.386 . S
H997 C1013 0.930 . S
H998 C1014 0.931 . S
C999 H987 0.929 . S
C999 C993 1.390 . S
C999 C996 1.386 . S
C1000 C995 1.490 . S
C1000 C1002 1.395 . S
C1000 C1003 1.403 . S
H1001 C1007 0.930 . S
C1002 H988 0.930 . S
C1002 C1000 1.395 . S
C1002 C1005 1.403 . S
C1003 C1000 1.403 . S
C1003 C1004 1.524 . S
C1003 C1007 1.400 . S
C1004 H989 0.960 . S
C1004 H990 0.960 . S
C1004 H991 0.960 . S
C1004 C1003 1.524 . S
C1005 C1002 1.403 . S
C1005 C1006 1.392 . S
C1005 C1009 1.495 . S
C1006 C1005 1.392 . S
C1006 C1007 1.385 . S
C1006 C1008 1.478 . S
C1007 H1001 0.930 . S
C1007 C1003 1.400 . S
C1007 C1006 1.385 . S
C1008 C1006 1.478 . S
C1008 C1010 1.381 . S
C1008 C1014 1.383 . S
C1009 C1005 1.495 . S
C1009 H1015 0.959 . S
C1009 H1016 0.961 . S
C1009 H1017 0.960 . S
C1010 C1008 1.381 . S
C1010 C1011 1.394 . S
C1010 H1018 0.930 . S
C1011 C1010 1.394 . S
C1011 C1012 1.383 . S
C1011 H1019 0.929 . S
C1012 C1011 1.383 . S
C1012 C1013 1.377 . S
C1013 H997 0.930 . S
C1013 C1012 1.377 . S
C1013 C1014 1.379 . S
C1014 H998 0.931 . S
C1014 C1008 1.383 . S
C1014 C1013 1.379 . S
H1015 C1009 0.959 . S
H1016 C1009 0.961 . S
H1017 C1009 0.960 . S
H1018 C1010 0.930 . S
H1019 C1011 0.929 . S
H1020 C1028 0.929 . S
H1021 C1030 0.930 . S
H1022 C1032 0.930 . S
H1023 C1035 0.929 . S
H1024 C1038 0.930 . S
H1025 C1040 0.960 . S
H1026 C1040 0.944 1_554 S
H1027 C1040 0.960 . S
C1028 H1020 0.929 . S
C1028 C1029 1.377 . S
C1028 C1030 1.384 . S
C1029 C1028 1.377 . S
C1029 C1035 1.390 . S
C1030 H1021 0.930 . S
C1030 C1028 1.384 . S
C1030 C1031 1.372 . S
C1031 C1030 1.372 . S
C1031 C1032 1.400 . S
C1031 C1036 1.490 . S
C1032 H1022 0.930 . S
C1032 C1031 1.400 . S
C1032 C1035 1.386 . S
H1033 C1049 0.930 . S
H1034 C1050 0.931 . S
C1035 H1023 0.929 . S
C1035 C1029 1.390 . S
C1035 C1032 1.386 . S
C1036 C1031 1.490 . S
C1036 C1038 1.395 . S
C1036 C1039 1.403 1_554 S
H1037 C1043 0.930 . S
C1038 H1024 0.930 . S
C1038 C1036 1.395 . S
C1038 C1041 1.403 . S
C1039 C1036 1.403 1_556 S
C1039 C1040 1.524 . S
C1039 C1043 1.400 . S
C1040 H1025 0.960 . S
C1040 H1026 0.944 1_556 S
C1040 H1027 0.960 . S
C1040 C1039 1.524 . S
C1041 C1038 1.403 . S
C1041 C1042 1.392 1_554 S
C1041 C1045 1.495 . S
C1042 C1041 1.392 1_556 S
C1042 C1043 1.385 . S
C1042 C1044 1.478 . S
C1043 H1037 0.930 . S
C1043 C1039 1.400 . S
C1043 C1042 1.385 . S
C1044 C1042 1.478 . S
C1044 C1046 1.381 . S
C1044 C1050 1.383 . S
C1045 C1041 1.495 . S
C1045 H1051 0.959 . S
C1045 H1052 0.961 . S
C1045 H1053 0.960 . S
C1046 C1044 1.381 . S
C1046 C1047 1.394 . S
C1046 H1054 0.930 . S
C1047 C1046 1.394 . S
C1047 C1048 1.383 . S
C1047 H1055 0.929 . S
C1048 C1047 1.383 . S
C1048 C1049 1.377 . S
C1049 H1033 0.930 . S
C1049 C1048 1.377 . S
C1049 C1050 1.379 . S
C1050 H1034 0.931 . S
C1050 C1044 1.383 . S
C1050 C1049 1.379 . S
H1051 C1045 0.959 . S
H1052 C1045 0.961 . S
H1053 C1045 0.960 . S
H1054 C1046 0.930 . S
H1055 C1047 0.929 . S
H1056 C1064 0.929 . S
H1057 C1066 0.930 . S
H1058 C1068 0.930 . S
H1059 C1071 0.929 . S
H1060 C1074 0.930 . S
H1061 C1076 0.960 . S
H1062 C1076 0.960 . S
H1063 C1076 0.960 . S
C1064 H1056 0.929 . S
C1064 C1065 1.377 . S
C1064 C1066 1.384 . S
C1065 C1064 1.377 . S
C1065 C1071 1.390 . S
C1066 H1057 0.930 . S
C1066 C1064 1.384 . S
C1066 C1067 1.372 . S
C1067 C1066 1.372 . S
C1067 C1068 1.400 . S
C1067 C1072 1.490 . S
C1068 H1058 0.930 . S
C1068 C1067 1.400 . S
C1068 C1071 1.386 . S
H1069 C1085 0.930 . S
H1070 C1086 0.931 . S
C1071 H1059 0.929 . S
C1071 C1065 1.390 . S
C1071 C1068 1.386 . S
C1072 C1067 1.490 . S
C1072 C1074 1.395 . S
C1072 C1075 1.403 . S
H1073 C1079 0.930 . S
C1074 H1060 0.930 . S
C1074 C1072 1.395 . S
C1074 C1077 1.403 . S
C1075 C1072 1.403 . S
C1075 C1076 1.524 . S
C1075 C1079 1.400 . S
C1076 H1061 0.960 . S
C1076 H1062 0.960 . S
C1076 H1063 0.960 . S
C1076 C1075 1.524 . S
C1077 C1074 1.403 . S
C1077 C1078 1.392 . S
C1077 C1081 1.495 . S
C1078 C1077 1.392 . S
C1078 C1079 1.385 . S
C1078 C1080 1.478 . S
C1079 H1073 0.930 . S
C1079 C1075 1.400 . S
C1079 C1078 1.385 . S
C1080 C1078 1.478 . S
C1080 C1082 1.381 . S
C1080 C1086 1.383 . S
C1081 C1077 1.495 . S
C1081 H1087 0.959 . S
C1081 H1088 0.961 . S
C1081 H1089 0.960 . S
C1082 C1080 1.381 . S
C1082 C1083 1.394 . S
C1082 H1090 0.930 . S
C1083 C1082 1.394 . S
C1083 C1084 1.383 . S
C1083 H1091 0.929 . S
C1084 C1083 1.383 . S
C1084 C1085 1.377 . S
C1085 H1069 0.930 . S
C1085 C1084 1.377 . S
C1085 C1086 1.379 . S
C1086 H1070 0.931 . S
C1086 C1080 1.383 . S
C1086 C1085 1.379 . S
H1087 C1081 0.959 . S
H1088 C1081 0.961 . S
H1089 C1081 0.960 . S
H1090 C1082 0.930 . S
H1091 C1083 0.929 . S
H1092 C1100 0.929 . S
H1093 C1102 0.930 . S
H1094 C1104 0.930 . S
H1095 C1107 0.929 . S
H1096 C1110 0.930 . S
H1097 C1112 0.960 . S
H1098 C1112 0.960 1_554 S
H1099 C1112 0.960 1_554 S
C1100 H1092 0.929 . S
C1100 C1101 1.377 . S
C1100 C1102 1.384 . S
C1101 C1100 1.377 . S
C1101 C1107 1.390 . S
C1102 H1093 0.930 . S
C1102 C1100 1.384 . S
C1102 C1103 1.372 . S
C1103 C1102 1.372 . S
C1103 C1104 1.400 . S
C1103 C1108 1.490 1_554 S
C1104 H1094 0.930 . S
C1104 C1103 1.400 . S
C1104 C1107 1.386 . S
H1105 C1121 0.930 . S
H1106 C1122 0.931 . S
C1107 H1095 0.929 . S
C1107 C1101 1.390 . S
C1107 C1104 1.386 . S
C1108 C1103 1.490 1_556 S
C1108 C1110 1.395 . S
C1108 C1111 1.403 . S
H1109 C1115 0.930 . S
C1110 H1096 0.930 . S
C1110 C1108 1.395 . S
C1110 C1113 1.403 . S
C1111 C1108 1.403 . S
C1111 C1112 1.524 . S
C1111 C1115 1.400 . S
C1112 H1097 0.960 . S
C1112 H1098 0.960 1_556 S
C1112 H1099 0.960 1_556 S
C1112 C1111 1.524 . S
C1113 C1110 1.403 . S
C1113 C1114 1.392 . S
C1113 C1117 1.495 . S
C1114 C1113 1.392 . S
C1114 C1115 1.385 . S
C1114 C1116 1.478 . S
C1115 H1109 0.930 . S
C1115 C1111 1.400 . S
C1115 C1114 1.385 . S
C1116 C1114 1.478 . S
C1116 C1118 1.381 . S
C1116 C1122 1.383 . S
C1117 C1113 1.495 . S
C1117 H1123 0.959 . S
C1117 H1124 0.961 . S
C1117 H1125 0.960 . S
C1118 C1116 1.381 . S
C1118 C1119 1.394 . S
C1118 H1126 0.930 . S
C1119 C1118 1.394 . S
C1119 C1120 1.383 . S
C1119 H1127 0.929 . S
C1120 C1119 1.383 . S
C1120 C1121 1.377 . S
C1121 H1105 0.930 . S
C1121 C1120 1.377 . S
C1121 C1122 1.379 . S
C1122 H1106 0.931 . S
C1122 C1116 1.383 . S
C1122 C1121 1.379 . S
H1123 C1117 0.959 . S
H1124 C1117 0.961 . S
H1125 C1117 0.960 . S
H1126 C1118 0.930 . S
H1127 C1119 0.929 . S
H1128 C1136 0.929 . S
H1129 C1138 0.930 . S
H1130 C1140 0.930 . S
H1131 C1143 0.929 . S
H1132 C1146 0.930 . S
H1133 C1148 0.960 . S
H1134 C1148 0.960 . S
H1135 C1148 0.960 . S
C1136 H1128 0.929 . S
C1136 C1137 1.377 . S
C1136 C1138 1.384 . S
C1137 C1136 1.377 . S
C1137 C1143 1.390 . S
C1138 H1129 0.930 . S
C1138 C1136 1.384 . S
C1138 C1139 1.372 . S
C1139 C1138 1.372 . S
C1139 C1140 1.400 . S
C1139 C1144 1.490 . S
C1140 H1130 0.930 . S
C1140 C1139 1.400 . S
C1140 C1143 1.386 . S
H1141 C1157 0.930 . S
H1142 C1158 0.931 . S
C1143 H1131 0.929 . S
C1143 C1137 1.390 . S
C1143 C1140 1.386 . S
C1144 C1139 1.490 . S
C1144 C1146 1.395 . S
C1144 C1147 1.403 . S
H1145 C1151 0.930 . S
C1146 H1132 0.930 . S
C1146 C1144 1.395 . S
C1146 C1149 1.403 . S
C1147 C1144 1.403 . S
C1147 C1148 1.524 . S
C1147 C1151 1.400 . S
C1148 H1133 0.960 . S
C1148 H1134 0.960 . S
C1148 H1135 0.960 . S
C1148 C1147 1.524 . S
C1149 C1146 1.403 . S
C1149 C1150 1.392 . S
C1149 C1153 1.495 . S
C1150 C1149 1.392 . S
C1150 C1151 1.385 . S
C1150 C1152 1.478 . S
C1151 H1145 0.930 . S
C1151 C1147 1.400 . S
C1151 C1150 1.385 . S
C1152 C1150 1.478 . S
C1152 C1154 1.381 . S
C1152 C1158 1.383 . S
C1153 C1149 1.495 . S
C1153 H1159 0.959 . S
C1153 H1160 0.961 . S
C1153 H1161 0.960 . S
C1154 C1152 1.381 . S
C1154 C1155 1.394 . S
C1154 H1162 0.930 . S
C1155 C1154 1.394 . S
C1155 C1156 1.383 . S
C1155 H1163 0.929 . S
C1156 C1155 1.383 . S
C1156 C1157 1.377 . S
C1157 H1141 0.930 . S
C1157 C1156 1.377 . S
C1157 C1158 1.379 . S
C1158 H1142 0.931 . S
C1158 C1152 1.383 . S
C1158 C1157 1.379 . S
H1159 C1153 0.959 . S
H1160 C1153 0.961 . S
H1161 C1153 0.960 . S
H1162 C1154 0.930 . S
H1163 C1155 0.929 . S
H1164 C1172 0.929 . S
H1165 C1174 0.930 . S
H1166 C1176 0.930 . S
H1167 C1179 0.929 . S
H1168 C1182 0.930 . S
H1169 C1184 0.960 . S
H1170 C1184 0.960 . S
H1171 C1184 0.960 . S
C1172 H1164 0.929 . S
C1172 C1173 1.377 . S
C1172 C1174 1.384 . S
C1173 C1172 1.377 . S
C1173 C1179 1.390 . S
C1174 H1165 0.930 . S
C1174 C1172 1.384 . S
C1174 C1175 1.372 . S
C1175 C1174 1.372 . S
C1175 C1176 1.400 . S
C1175 C1180 1.490 . S
C1176 H1166 0.930 . S
C1176 C1175 1.400 . S
C1176 C1179 1.386 . S
H1177 C1193 0.930 . S
H1178 C1194 0.931 . S
C1179 H1167 0.929 . S
C1179 C1173 1.390 . S
C1179 C1176 1.386 . S
C1180 C1175 1.490 . S
C1180 C1182 1.395 . S
C1180 C1183 1.403 . S
H1181 C1187 0.930 . S
C1182 H1168 0.930 . S
C1182 C1180 1.395 . S
C1182 C1185 1.403 . S
C1183 C1180 1.403 . S
C1183 C1184 1.524 . S
C1183 C1187 1.400 . S
C1184 H1169 0.960 . S
C1184 H1170 0.960 . S
C1184 H1171 0.960 . S
C1184 C1183 1.524 . S
C1185 C1182 1.403 . S
C1185 C1186 1.392 . S
C1185 C1189 1.495 . S
C1186 C1185 1.392 . S
C1186 C1187 1.385 . S
C1186 C1188 1.478 . S
C1187 H1181 0.930 . S
C1187 C1183 1.400 . S
C1187 C1186 1.385 . S
C1188 C1186 1.478 . S
C1188 C1190 1.381 . S
C1188 C1194 1.383 . S
C1189 C1185 1.495 . S
C1189 H1195 0.959 . S
C1189 H1196 0.961 . S
C1189 H1197 0.960 . S
C1190 C1188 1.381 . S
C1190 C1191 1.394 . S
C1190 H1198 0.930 . S
C1191 C1190 1.394 . S
C1191 C1192 1.383 . S
C1191 H1199 0.929 . S
C1192 C1191 1.383 . S
C1192 C1193 1.377 . S
C1193 H1177 0.930 . S
C1193 C1192 1.377 . S
C1193 C1194 1.379 . S
C1194 H1178 0.931 . S
C1194 C1188 1.383 . S
C1194 C1193 1.379 . S
H1195 C1189 0.959 . S
H1196 C1189 0.961 . S
H1197 C1189 0.960 . S
H1198 C1190 0.930 . S
H1199 C1191 0.929 . S
H1200 C1208 0.929 . S
H1201 C1210 0.930 . S
H1202 C1212 0.930 . S
H1203 C1215 0.929 . S
H1204 C1218 0.930 . S
H1205 C1220 0.960 . S
H1206 C1220 0.960 . S
H1207 C1220 0.960 . S
C1208 H1200 0.929 . S
C1208 C1209 1.377 . S
C1208 C1210 1.384 . S
C1209 C1208 1.377 . S
C1209 C1215 1.390 . S
C1210 H1201 0.930 . S
C1210 C1208 1.384 . S
C1210 C1211 1.372 . S
C1211 C1210 1.372 . S
C1211 C1212 1.400 . S
C1211 C1216 1.490 . S
C1212 H1202 0.930 . S
C1212 C1211 1.400 . S
C1212 C1215 1.386 . S
H1213 C1229 0.930 . S
H1214 C1230 0.931 . S
C1215 H1203 0.929 . S
C1215 C1209 1.390 . S
C1215 C1212 1.386 . S
C1216 C1211 1.490 . S
C1216 C1218 1.395 . S
C1216 C1219 1.403 . S
H1217 C1223 0.930 . S
C1218 H1204 0.930 . S
C1218 C1216 1.395 . S
C1218 C1221 1.403 . S
C1219 C1216 1.403 . S
C1219 C1220 1.524 . S
C1219 C1223 1.400 . S
C1220 H1205 0.960 . S
C1220 H1206 0.960 . S
C1220 H1207 0.960 . S
C1220 C1219 1.524 . S
C1221 C1218 1.403 . S
C1221 C1222 1.392 . S
C1221 C1225 1.495 . S
C1222 C1221 1.392 . S
C1222 C1223 1.385 . S
C1222 C1224 1.478 . S
C1223 H1217 0.930 . S
C1223 C1219 1.400 . S
C1223 C1222 1.385 . S
C1224 C1222 1.478 . S
C1224 C1226 1.381 . S
C1224 C1230 1.383 . S
C1225 C1221 1.495 . S
C1225 H1231 0.959 . S
C1225 H1232 0.961 . S
C1225 H1233 0.960 . S
C1226 C1224 1.381 . S
C1226 C1227 1.394 . S
C1226 H1234 0.930 . S
C1227 C1226 1.394 . S
C1227 C1228 1.383 . S
C1227 H1235 0.929 . S
C1228 C1227 1.383 . S
C1228 C1229 1.377 . S
C1229 H1213 0.930 . S
C1229 C1228 1.377 . S
C1229 C1230 1.379 . S
C1230 H1214 0.931 . S
C1230 C1224 1.383 . S
C1230 C1229 1.379 . S
H1231 C1225 0.959 . S
H1232 C1225 0.961 . S
H1233 C1225 0.960 . S
H1234 C1226 0.930 . S
H1235 C1227 0.929 . S
H1236 C1244 0.929 . S
H1237 C1246 0.930 . S
H1238 C1248 0.930 . S
H1239 C1251 0.929 . S
H1240 C1254 0.930 . S
H1241 C1256 0.960 . S
H1242 C1256 0.960 . S
H1243 C1256 0.960 . S
C1244 H1236 0.929 . S
C1244 C1245 1.377 . S
C1244 C1246 1.384 . S
C1245 C1244 1.377 . S
C1245 C1251 1.390 . S
C1246 H1237 0.930 . S
C1246 C1244 1.384 . S
C1246 C1247 1.372 . S
C1247 C1246 1.372 . S
C1247 C1248 1.400 . S
C1247 C1252 1.490 . S
C1248 H1238 0.930 . S
C1248 C1247 1.400 . S
C1248 C1251 1.386 . S
H1249 C1265 0.930 . S
H1250 C1266 0.931 . S
C1251 H1239 0.929 . S
C1251 C1245 1.390 . S
C1251 C1248 1.386 . S
C1252 C1247 1.490 . S
C1252 C1254 1.395 . S
C1252 C1255 1.403 . S
H1253 C1259 0.930 1_565 S
C1254 H1240 0.930 . S
C1254 C1252 1.395 . S
C1254 C1257 1.403 . S
C1255 C1252 1.403 . S
C1255 C1256 1.524 . S
C1255 C1259 1.400 . S
C1256 H1241 0.960 . S
C1256 H1242 0.960 . S
C1256 H1243 0.960 . S
C1256 C1255 1.524 . S
C1257 C1254 1.403 . S
C1257 C1258 1.392 . S
C1257 C1261 1.495 . S
C1258 C1257 1.392 . S
C1258 C1259 1.385 . S
C1258 C1260 1.478 1_545 S
C1259 H1253 0.930 1_545 S
C1259 C1255 1.400 . S
C1259 C1258 1.385 . S
C1260 C1258 1.478 1_565 S
C1260 C1262 1.381 . S
C1260 C1266 1.383 . S
C1261 C1257 1.495 . S
C1261 H1267 0.959 . S
C1261 H1268 0.961 . S
C1261 H1269 0.937 1_545 S
C1262 C1260 1.381 . S
C1262 C1263 1.394 . S
C1262 H1270 0.930 . S
C1263 C1262 1.394 . S
C1263 C1264 1.383 . S
C1263 H1271 0.929 . S
C1264 C1263 1.383 . S
C1264 C1265 1.377 . S
C1265 H1249 0.930 . S
C1265 C1264 1.377 . S
C1265 C1266 1.379 . S
C1266 H1250 0.931 . S
C1266 C1260 1.383 . S
C1266 C1265 1.379 . S
H1267 C1261 0.959 . S
H1268 C1261 0.961 . S
H1269 C1261 0.937 1_565 S
H1270 C1262 0.930 . S
H1271 C1263 0.929 . S
H1272 C1280 0.929 . S
H1273 C1282 0.930 . S
H1274 C1284 0.930 . S
H1275 C1287 0.929 . S
H1276 C1290 0.930 . S
H1277 C1292 0.960 . S
H1278 C1292 0.960 . S
H1279 C1292 0.960 . S
C1280 H1272 0.929 . S
C1280 C1281 1.377 . S
C1280 C1282 1.384 . S
C1281 C1280 1.377 . S
C1281 C1287 1.390 . S
C1282 H1273 0.930 . S
C1282 C1280 1.384 . S
C1282 C1283 1.372 . S
C1283 C1282 1.372 . S
C1283 C1284 1.400 . S
C1283 C1288 1.490 . S
C1284 H1274 0.930 . S
C1284 C1283 1.400 . S
C1284 C1287 1.386 . S
H1285 C1301 0.930 . S
H1286 C1302 0.931 . S
C1287 H1275 0.929 . S
C1287 C1281 1.390 . S
C1287 C1284 1.386 . S
C1288 C1283 1.490 . S
C1288 C1290 1.395 . S
C1288 C1291 1.403 . S
H1289 C1295 0.930 . S
C1290 H1276 0.930 . S
C1290 C1288 1.395 . S
C1290 C1293 1.403 . S
C1291 C1288 1.403 . S
C1291 C1292 1.524 . S
C1291 C1295 1.400 . S
C1292 H1277 0.960 . S
C1292 H1278 0.960 . S
C1292 H1279 0.960 . S
C1292 C1291 1.524 . S
C1293 C1290 1.403 . S
C1293 C1294 1.392 . S
C1293 C1297 1.495 . S
C1294 C1293 1.392 . S
C1294 C1295 1.385 . S
C1294 C1296 1.478 . S
C1295 H1289 0.930 . S
C1295 C1291 1.400 . S
C1295 C1294 1.385 . S
C1296 C1294 1.478 . S
C1296 C1298 1.381 . S
C1296 C1302 1.383 . S
C1297 C1293 1.495 . S
C1297 H1303 0.959 . S
C1297 H1304 0.961 . S
C1297 H1305 0.960 . S
C1298 C1296 1.381 . S
C1298 C1299 1.394 . S
C1298 H1306 0.930 . S
C1299 C1298 1.394 . S
C1299 C1300 1.383 . S
C1299 H1307 0.929 . S
C1300 C1299 1.383 . S
C1300 C1301 1.377 . S
C1301 H1285 0.930 . S
C1301 C1300 1.377 . S
C1301 C1302 1.379 . S
C1302 H1286 0.931 . S
C1302 C1296 1.383 . S
C1302 C1301 1.379 . S
H1303 C1297 0.959 . S
H1304 C1297 0.961 . S
H1305 C1297 0.960 . S
H1306 C1298 0.930 . S
H1307 C1299 0.929 . S
H1308 C1316 0.929 . S
H1309 C1318 0.930 . S
H1310 C1320 0.930 . S
H1311 C1323 0.929 . S
H1312 C1326 0.930 . S
H1313 C1328 0.960 . S
H1314 C1328 0.960 . S
H1315 C1328 0.960 . S
C1316 H1308 0.929 . S
C1316 C1317 1.377 . S
C1316 C1318 1.384 . S
C1317 C1316 1.377 . S
C1317 C1323 1.390 . S
C1318 H1309 0.930 . S
C1318 C1316 1.384 . S
C1318 C1319 1.372 . S
C1319 C1318 1.372 . S
C1319 C1320 1.400 . S
C1319 C1324 1.490 . S
C1320 H1310 0.930 . S
C1320 C1319 1.400 . S
C1320 C1323 1.386 . S
H1321 C1337 0.930 . S
H1322 C1338 0.931 . S
C1323 H1311 0.929 . S
C1323 C1317 1.390 . S
C1323 C1320 1.386 . S
C1324 C1319 1.490 . S
C1324 C1326 1.395 . S
C1324 C1327 1.403 1_545 S
H1325 C1331 0.930 . S
C1326 H1312 0.930 . S
C1326 C1324 1.395 . S
C1326 C1329 1.403 1_545 S
C1327 C1324 1.403 1_565 S
C1327 C1328 1.524 . S
C1327 C1331 1.400 . S
C1328 H1313 0.960 . S
C1328 H1314 0.960 . S
C1328 H1315 0.960 . S
C1328 C1327 1.524 . S
C1329 C1326 1.403 1_565 S
C1329 C1330 1.392 . S
C1329 C1333 1.495 . S
C1330 C1329 1.392 . S
C1330 C1331 1.385 . S
C1330 C1332 1.478 . S
C1331 H1325 0.930 . S
C1331 C1327 1.400 . S
C1331 C1330 1.385 . S
C1332 C1330 1.478 . S
C1332 C1334 1.381 . S
C1332 C1338 1.383 . S
C1333 C1329 1.495 . S
C1333 H1339 0.959 1_565 S
C1333 H1340 0.961 . S
C1333 H1341 0.960 . S
C1334 C1332 1.381 . S
C1334 C1335 1.394 . S
C1334 H1342 0.930 . S
C1335 C1334 1.394 . S
C1335 C1336 1.383 . S
C1335 H1343 0.929 . S
C1336 C1335 1.383 . S
C1336 C1337 1.377 . S
C1337 H1321 0.930 . S
C1337 C1336 1.377 . S
C1337 C1338 1.379 . S
C1338 H1322 0.931 . S
C1338 C1332 1.383 . S
C1338 C1337 1.379 . S
H1339 C1333 0.959 1_545 S
H1340 C1333 0.961 . S
H1341 C1333 0.960 . S
H1342 C1334 0.930 . S
H1343 C1335 0.929 . S
H1344 C1352 0.929 . S
H1345 C1354 0.930 . S
H1346 C1356 0.930 . S
H1347 C1359 0.929 . S
H1348 C1362 0.930 . S
H1349 C1364 0.960 . S
H1350 C1364 0.960 . S
H1351 C1364 0.960 . S
C1352 H1344 0.929 . S
C1352 C1353 1.377 . S
C1352 C1354 1.384 . S
C1353 C1352 1.377 . S
C1353 C1359 1.390 . S
C1354 H1345 0.930 . S
C1354 C1352 1.384 . S
C1354 C1355 1.372 . S
C1355 C1354 1.372 . S
C1355 C1356 1.400 . S
C1355 C1360 1.490 . S
C1356 H1346 0.930 . S
C1356 C1355 1.400 . S
C1356 C1359 1.386 . S
H1357 C1373 0.930 . S
H1358 C1374 0.931 . S
C1359 H1347 0.929 . S
C1359 C1353 1.390 . S
C1359 C1356 1.386 . S
C1360 C1355 1.490 . S
C1360 C1362 1.395 . S
C1360 C1363 1.403 . S
H1361 C1367 0.930 . S
C1362 H1348 0.930 . S
C1362 C1360 1.395 . S
C1362 C1365 1.403 . S
C1363 C1360 1.403 . S
C1363 C1364 1.524 . S
C1363 C1367 1.400 . S
C1364 H1349 0.960 . S
C1364 H1350 0.960 . S
C1364 H1351 0.960 . S
C1364 C1363 1.524 . S
C1365 C1362 1.403 . S
C1365 C1366 1.392 . S
C1365 C1369 1.495 . S
C1366 C1365 1.392 . S
C1366 C1367 1.385 . S
C1366 C1368 1.478 . S
C1367 H1361 0.930 . S
C1367 C1363 1.400 . S
C1367 C1366 1.385 . S
C1368 C1366 1.478 . S
C1368 C1370 1.381 . S
C1368 C1374 1.383 . S
C1369 C1365 1.495 . S
C1369 H1375 0.959 . S
C1369 H1376 0.961 . S
C1369 H1377 0.960 . S
C1370 C1368 1.381 . S
C1370 C1371 1.394 . S
C1370 H1378 0.930 . S
C1371 C1370 1.394 . S
C1371 C1372 1.383 . S
C1371 H1379 0.929 . S
C1372 C1371 1.383 . S
C1372 C1373 1.377 . S
C1373 H1357 0.930 . S
C1373 C1372 1.377 . S
C1373 C1374 1.379 . S
C1374 H1358 0.931 . S
C1374 C1368 1.383 . S
C1374 C1373 1.379 . S
H1375 C1369 0.959 . S
H1376 C1369 0.961 . S
H1377 C1369 0.960 . S
H1378 C1370 0.930 . S
H1379 C1371 0.929 . S
H1380 C1388 0.929 . S
H1381 C1390 0.930 . S
H1382 C1392 0.930 . S
H1383 C1395 0.929 . S
H1384 C1398 0.930 . S
H1385 C1400 0.960 . S
H1386 C1400 0.960 . S
H1387 C1400 0.960 . S
C1388 H1380 0.929 . S
C1388 C1389 1.377 . S
C1388 C1390 1.384 . S
C1389 C1388 1.377 . S
C1389 C1395 1.390 . S
C1390 H1381 0.930 . S
C1390 C1388 1.384 . S
C1390 C1391 1.372 . S
C1391 C1390 1.372 . S
C1391 C1392 1.400 . S
C1391 C1396 1.490 . S
C1392 H1382 0.930 . S
C1392 C1391 1.400 . S
C1392 C1395 1.386 . S
H1393 C1409 0.930 . S
H1394 C1410 0.931 . S
C1395 H1383 0.929 . S
C1395 C1389 1.390 . S
C1395 C1392 1.386 . S
C1396 C1391 1.490 . S
C1396 C1398 1.395 . S
C1396 C1399 1.403 . S
H1397 C1403 0.930 . S
C1398 H1384 0.930 . S
C1398 C1396 1.395 . S
C1398 C1401 1.403 . S
C1399 C1396 1.403 . S
C1399 C1400 1.524 . S
C1399 C1403 1.400 . S
C1400 H1385 0.960 . S
C1400 H1386 0.960 . S
C1400 H1387 0.960 . S
C1400 C1399 1.524 . S
C1401 C1398 1.403 . S
C1401 C1402 1.392 . S
C1401 C1405 1.495 . S
C1402 C1401 1.392 . S
C1402 C1403 1.385 . S
C1402 C1404 1.478 . S
C1403 H1397 0.930 . S
C1403 C1399 1.400 . S
C1403 C1402 1.385 . S
C1404 C1402 1.478 . S
C1404 C1406 1.381 . S
C1404 C1410 1.383 . S
C1405 C1401 1.495 . S
C1405 H1411 0.959 . S
C1405 H1412 0.961 . S
C1405 H1413 0.960 . S
C1406 C1404 1.381 . S
C1406 C1407 1.394 . S
C1406 H1414 0.930 . S
C1407 C1406 1.394 . S
C1407 C1408 1.383 . S
C1407 H1415 0.929 . S
C1408 C1407 1.383 . S
C1408 C1409 1.377 . S
C1409 H1393 0.930 . S
C1409 C1408 1.377 . S
C1409 C1410 1.379 . S
C1410 H1394 0.931 . S
C1410 C1404 1.383 . S
C1410 C1409 1.379 . S
H1411 C1405 0.959 . S
H1412 C1405 0.961 . S
H1413 C1405 0.960 . S
H1414 C1406 0.930 . S
H1415 C1407 0.929 . S
H1416 C1424 0.929 . S
H1417 C1426 0.930 . S
H1418 C1428 0.930 . S
H1419 C1431 0.929 . S
H1420 C1434 0.930 . S
H1421 C1436 0.960 . S
H1422 C1436 0.960 . S
H1423 C1436 0.960 . S
C1424 H1416 0.929 . S
C1424 C1425 1.377 . S
C1424 C1426 1.384 . S
C1425 C1424 1.377 . S
C1425 C1431 1.390 . S
C1426 H1417 0.930 . S
C1426 C1424 1.384 . S
C1426 C1427 1.372 . S
C1427 C1426 1.372 . S
C1427 C1428 1.400 . S
C1427 C1432 1.490 . S
C1428 H1418 0.930 . S
C1428 C1427 1.400 . S
C1428 C1431 1.386 . S
H1429 C1445 0.930 . S
H1430 C1446 0.931 . S
C1431 H1419 0.929 . S
C1431 C1425 1.390 . S
C1431 C1428 1.386 . S
C1432 C1427 1.490 . S
C1432 C1434 1.395 . S
C1432 C1435 1.403 . S
H1433 C1439 0.930 . S
C1434 H1420 0.930 . S
C1434 C1432 1.395 . S
C1434 C1437 1.403 . S
C1435 C1432 1.403 . S
C1435 C1436 1.524 . S
C1435 C1439 1.400 . S
C1436 H1421 0.960 . S
C1436 H1422 0.960 . S
C1436 H1423 0.960 . S
C1436 C1435 1.524 . S
C1437 C1434 1.403 . S
C1437 C1438 1.392 . S
C1437 C1441 1.495 . S
C1438 C1437 1.392 . S
C1438 C1439 1.385 . S
C1438 C1440 1.478 . S
C1439 H1433 0.930 . S
C1439 C1435 1.400 . S
C1439 C1438 1.385 . S
C1440 C1438 1.478 . S
C1440 C1442 1.381 . S
C1440 C1446 1.383 . S
C1441 C1437 1.495 . S
C1441 H1447 0.959 . S
C1441 H1448 0.961 . S
C1441 H1449 0.960 . S
C1442 C1440 1.381 . S
C1442 C1443 1.394 . S
C1442 H1450 0.930 . S
C1443 C1442 1.394 . S
C1443 C1444 1.383 . S
C1443 H1451 0.929 . S
C1444 C1443 1.383 . S
C1444 C1445 1.377 . S
C1445 H1429 0.930 . S
C1445 C1444 1.377 . S
C1445 C1446 1.379 . S
C1446 H1430 0.931 . S
C1446 C1440 1.383 . S
C1446 C1445 1.379 . S
H1447 C1441 0.959 . S
H1448 C1441 0.961 . S
H1449 C1441 0.960 . S
H1450 C1442 0.930 . S
H1451 C1443 0.929 . S
H1452 C1460 0.929 . S
H1453 C1462 0.930 . S
H1454 C1464 0.930 . S
H1455 C1467 0.929 . S
H1456 C1470 0.930 . S
H1457 C1472 0.960 . S
H1458 C1472 0.960 . S
H1459 C1472 0.960 . S
C1460 H1452 0.929 . S
C1460 C1461 1.377 . S
C1460 C1462 1.384 . S
C1461 C1460 1.377 . S
C1461 C1467 1.390 . S
C1462 H1453 0.930 . S
C1462 C1460 1.384 . S
C1462 C1463 1.372 . S
C1463 C1462 1.372 . S
C1463 C1464 1.400 . S
C1463 C1468 1.490 . S
C1464 H1454 0.930 . S
C1464 C1463 1.400 . S
C1464 C1467 1.386 . S
H1465 C1481 0.930 . S
H1466 C1482 0.931 . S
C1467 H1455 0.929 . S
C1467 C1461 1.390 . S
C1467 C1464 1.386 . S
C1468 C1463 1.490 . S
C1468 C1470 1.395 . S
C1468 C1471 1.403 . S
H1469 C1475 0.930 . S
C1470 H1456 0.930 . S
C1470 C1468 1.395 . S
C1470 C1473 1.403 . S
C1471 C1468 1.403 . S
C1471 C1472 1.524 . S
C1471 C1475 1.400 . S
C1472 H1457 0.960 . S
C1472 H1458 0.960 . S
C1472 H1459 0.960 . S
C1472 C1471 1.524 . S
C1473 C1470 1.403 . S
C1473 C1474 1.392 . S
C1473 C1477 1.495 . S
C1474 C1473 1.392 . S
C1474 C1475 1.385 . S
C1474 C1476 1.478 . S
C1475 H1469 0.930 . S
C1475 C1471 1.400 . S
C1475 C1474 1.385 . S
C1476 C1474 1.478 . S
C1476 C1478 1.381 . S
C1476 C1482 1.383 . S
C1477 C1473 1.495 . S
C1477 H1483 0.959 . S
C1477 H1484 0.961 . S
C1477 H1485 0.960 . S
C1478 C1476 1.381 . S
C1478 C1479 1.394 . S
C1478 H1486 0.930 . S
C1479 C1478 1.394 . S
C1479 C1480 1.383 . S
C1479 H1487 0.929 . S
C1480 C1479 1.383 . S
C1480 C1481 1.377 . S
C1481 H1465 0.930 . S
C1481 C1480 1.377 . S
C1481 C1482 1.379 . S
C1482 H1466 0.931 . S
C1482 C1476 1.383 . S
C1482 C1481 1.379 . S
H1483 C1477 0.959 . S
H1484 C1477 0.961 . S
H1485 C1477 0.960 . S
H1486 C1478 0.930 . S
H1487 C1479 0.929 . S
H1488 C1496 0.929 . S
H1489 C1498 0.930 . S
H1490 C1500 0.930 . S
H1491 C1503 0.929 . S
H1492 C1506 0.930 . S
H1493 C1508 0.960 . S
H1494 C1508 0.960 . S
H1495 C1508 0.960 . S
C1496 H1488 0.929 . S
C1496 C1497 1.377 . S
C1496 C1498 1.384 . S
C1497 C1496 1.377 . S
C1497 C1503 1.390 . S
C1498 H1489 0.930 . S
C1498 C1496 1.384 . S
C1498 C1499 1.372 . S
C1499 C1498 1.372 . S
C1499 C1500 1.400 . S
C1499 C1504 1.490 . S
C1500 H1490 0.930 . S
C1500 C1499 1.400 . S
C1500 C1503 1.386 . S
H1501 C1517 0.930 . S
H1502 C1518 0.931 . S
C1503 H1491 0.929 . S
C1503 C1497 1.390 . S
C1503 C1500 1.386 . S
C1504 C1499 1.490 . S
C1504 C1506 1.395 . S
C1504 C1507 1.403 . S
H1505 C1511 0.930 . S
C1506 H1492 0.930 . S
C1506 C1504 1.395 . S
C1506 C1509 1.403 . S
C1507 C1504 1.403 . S
C1507 C1508 1.524 . S
C1507 C1511 1.400 . S
C1508 H1493 0.960 . S
C1508 H1494 0.960 . S
C1508 H1495 0.960 . S
C1508 C1507 1.524 . S
C1509 C1506 1.403 . S
C1509 C1510 1.392 . S
C1509 C1513 1.495 . S
C1510 C1509 1.392 . S
C1510 C1511 1.385 . S
C1510 C1512 1.478 . S
C1511 H1505 0.930 . S
C1511 C1507 1.400 . S
C1511 C1510 1.385 . S
C1512 C1510 1.478 . S
C1512 C1514 1.381 . S
C1512 C1518 1.383 . S
C1513 C1509 1.495 . S
C1513 H1519 0.959 . S
C1513 H1520 0.961 . S
C1513 H1521 0.960 . S
C1514 C1512 1.381 . S
C1514 C1515 1.394 . S
C1514 H1522 0.930 . S
C1515 C1514 1.394 . S
C1515 C1516 1.383 . S
C1515 H1523 0.929 . S
C1516 C1515 1.383 . S
C1516 C1517 1.377 . S
C1517 H1501 0.930 . S
C1517 C1516 1.377 . S
C1517 C1518 1.379 . S
C1518 H1502 0.931 . S
C1518 C1512 1.383 . S
C1518 C1517 1.379 . S
H1519 C1513 0.959 . S
H1520 C1513 0.961 . S
H1521 C1513 0.960 . S
H1522 C1514 0.930 . S
H1523 C1515 0.929 . S
H1524 C1532 0.929 . S
H1525 C1534 0.930 . S
H1526 C1536 0.930 . S
H1527 C1539 0.929 . S
H1528 C1542 0.930 . S
H1529 C1544 0.960 . S
H1530 C1544 0.960 . S
H1531 C1544 0.960 . S
C1532 H1524 0.929 . S
C1532 C1533 1.377 . S
C1532 C1534 1.384 . S
C1533 C1532 1.377 . S
C1533 C1539 1.390 . S
C1534 H1525 0.930 . S
C1534 C1532 1.384 . S
C1534 C1535 1.372 . S
C1535 C1534 1.372 . S
C1535 C1536 1.400 . S
C1535 C1540 1.490 . S
C1536 H1526 0.930 . S
C1536 C1535 1.400 . S
C1536 C1539 1.386 . S
H1537 C1553 0.930 . S
H1538 C1554 0.931 . S
C1539 H1527 0.929 . S
C1539 C1533 1.390 . S
C1539 C1536 1.386 . S
C1540 C1535 1.490 . S
C1540 C1542 1.395 . S
C1540 C1543 1.403 . S
H1541 C1547 0.930 . S
C1542 H1528 0.930 . S
C1542 C1540 1.395 . S
C1542 C1545 1.403 . S
C1543 C1540 1.403 . S
C1543 C1544 1.524 . S
C1543 C1547 1.400 . S
C1544 H1529 0.960 . S
C1544 H1530 0.960 . S
C1544 H1531 0.960 . S
C1544 C1543 1.524 . S
C1545 C1542 1.403 . S
C1545 C1546 1.392 . S
C1545 C1549 1.495 . S
C1546 C1545 1.392 . S
C1546 C1547 1.385 . S
C1546 C1548 1.478 . S
C1547 H1541 0.930 . S
C1547 C1543 1.400 . S
C1547 C1546 1.385 . S
C1548 C1546 1.478 . S
C1548 C1550 1.381 . S
C1548 C1554 1.383 . S
C1549 C1545 1.495 . S
C1549 H1555 0.959 . S
C1549 H1556 0.961 . S
C1549 H1557 0.960 . S
C1550 C1548 1.381 . S
C1550 C1551 1.394 . S
C1550 H1558 0.930 . S
C1551 C1550 1.394 . S
C1551 C1552 1.383 . S
C1551 H1559 0.929 . S
C1552 C1551 1.383 . S
C1552 C1553 1.377 . S
C1553 H1537 0.930 . S
C1553 C1552 1.377 . S
C1553 C1554 1.379 . S
C1554 H1538 0.931 . S
C1554 C1548 1.383 . S
C1554 C1553 1.379 . S
H1555 C1549 0.959 . S
H1556 C1549 0.961 . S
H1557 C1549 0.960 . S
H1558 C1550 0.930 . S
H1559 C1551 0.929 . S
H1560 C1568 0.929 . S
H1561 C1570 0.930 . S
H1562 C1572 0.930 . S
H1563 C1575 0.929 . S
H1564 C1578 0.930 . S
H1565 C1580 0.960 . S
H1566 C1580 0.960 . S
H1567 C1580 0.960 . S
C1568 H1560 0.929 . S
C1568 C1569 1.377 . S
C1568 C1570 1.384 . S
C1569 C1568 1.377 . S
C1569 C1575 1.390 . S
C1570 H1561 0.930 . S
C1570 C1568 1.384 . S
C1570 C1571 1.372 . S
C1571 C1570 1.372 . S
C1571 C1572 1.400 . S
C1571 C1576 1.490 . S
C1572 H1562 0.930 . S
C1572 C1571 1.400 . S
C1572 C1575 1.386 . S
H1573 C1589 0.930 . S
H1574 C1590 0.931 . S
C1575 H1563 0.929 . S
C1575 C1569 1.390 . S
C1575 C1572 1.386 . S
C1576 C1571 1.490 . S
C1576 C1578 1.395 . S
C1576 C1579 1.403 . S
H1577 C1583 0.951 . S
C1578 H1564 0.930 . S
C1578 C1576 1.395 . S
C1578 C1581 1.403 . S
C1579 C1576 1.403 . S
C1579 C1580 1.524 . S
C1579 C1583 1.380 1_455 S
C1580 H1565 0.960 . S
C1580 H1566 0.960 . S
C1580 H1567 0.960 . S
C1580 C1579 1.524 . S
C1581 C1578 1.403 . S
C1581 C1582 1.373 1_455 S
C1581 C1585 1.495 . S
C1582 C1581 1.373 1_655 S
C1582 C1583 1.385 . S
C1582 C1584 1.497 . S
C1583 H1577 0.951 . S
C1583 C1579 1.380 1_655 S
C1583 C1582 1.385 . S
C1584 C1582 1.497 . S
C1584 C1586 1.381 . S
C1584 C1590 1.383 . S
C1585 C1581 1.495 . S
C1585 H1591 0.959 . S
C1585 H1592 0.961 . S
C1585 H1593 0.960 . S
C1586 C1584 1.381 . S
C1586 C1587 1.394 . S
C1586 H1594 0.930 . S
C1587 C1586 1.394 . S
C1587 C1588 1.383 . S
C1587 H1595 0.929 . S
C1588 C1587 1.383 . S
C1588 C1589 1.377 . S
C1589 H1573 0.930 . S
C1589 C1588 1.377 . S
C1589 C1590 1.379 . S
C1590 H1574 0.931 . S
C1590 C1584 1.383 . S
C1590 C1589 1.379 . S
H1591 C1585 0.959 . S
H1592 C1585 0.961 . S
H1593 C1585 0.960 . S
H1594 C1586 0.930 . S
H1595 C1587 0.929 . S
H1596 C1604 0.929 . S
H1597 C1606 0.930 . S
H1598 C1608 0.930 . S
H1599 C1611 0.929 . S
H1600 C1614 0.930 . S
H1601 C1616 0.960 . S
H1602 C1616 0.960 . S
H1603 C1616 0.960 . S
C1604 H1596 0.929 . S
C1604 C1605 1.377 . S
C1604 C1606 1.384 . S
C1605 C1604 1.377 . S
C1605 C1611 1.390 . S
C1606 H1597 0.930 . S
C1606 C1604 1.384 . S
C1606 C1607 1.372 . S
C1607 C1606 1.372 . S
C1607 C1608 1.400 . S
C1607 C1612 1.490 . S
C1608 H1598 0.930 . S
C1608 C1607 1.400 . S
C1608 C1611 1.386 . S
H1609 C1625 0.930 . S
H1610 C1626 0.931 . S
C1611 H1599 0.929 . S
C1611 C1605 1.390 . S
C1611 C1608 1.386 . S
C1612 C1607 1.490 . S
C1612 C1614 1.395 . S
C1612 C1615 1.403 . S
H1613 C1619 0.930 . S
C1614 H1600 0.930 . S
C1614 C1612 1.395 . S
C1614 C1617 1.403 . S
C1615 C1612 1.403 . S
C1615 C1616 1.524 . S
C1615 C1619 1.400 . S
C1616 H1601 0.960 . S
C1616 H1602 0.960 . S
C1616 H1603 0.960 . S
C1616 C1615 1.524 . S
C1617 C1614 1.403 . S
C1617 C1618 1.392 . S
C1617 C1621 1.495 . S
C1618 C1617 1.392 . S
C1618 C1619 1.385 . S
C1618 C1620 1.478 . S
C1619 H1613 0.930 . S
C1619 C1615 1.400 . S
C1619 C1618 1.385 . S
C1620 C1618 1.478 . S
C1620 C1622 1.381 . S
C1620 C1626 1.383 . S
C1621 C1617 1.495 . S
C1621 H1627 0.959 . S
C1621 H1628 0.961 . S
C1621 H1629 0.960 . S
C1622 C1620 1.381 . S
C1622 C1623 1.394 . S
C1622 H1630 0.930 . S
C1623 C1622 1.394 . S
C1623 C1624 1.383 . S
C1623 H1631 0.929 . S
C1624 C1623 1.383 . S
C1624 C1625 1.377 . S
C1625 H1609 0.930 . S
C1625 C1624 1.377 . S
C1625 C1626 1.379 . S
C1626 H1610 0.931 . S
C1626 C1620 1.383 . S
C1626 C1625 1.379 . S
H1627 C1621 0.959 . S
H1628 C1621 0.961 . S
H1629 C1621 0.960 . S
H1630 C1622 0.930 . S
H1631 C1623 0.929 . S
H1632 C1640 0.929 . S
H1633 C1642 0.930 . S
H1634 C1644 0.930 . S
H1635 C1647 0.929 . S
H1636 C1650 0.930 . S
H1637 C1652 0.960 . S
H1638 C1652 0.960 . S
H1639 C1652 0.960 . S
C1640 H1632 0.929 . S
C1640 C1641 1.377 . S
C1640 C1642 1.384 . S
C1641 C1640 1.377 . S
C1641 C1647 1.390 . S
C1642 H1633 0.930 . S
C1642 C1640 1.384 . S
C1642 C1643 1.372 . S
C1643 C1642 1.372 . S
C1643 C1644 1.400 . S
C1643 C1648 1.490 . S
C1644 H1634 0.930 . S
C1644 C1643 1.400 . S
C1644 C1647 1.386 . S
H1645 C1661 0.930 . S
H1646 C1662 0.931 . S
C1647 H1635 0.929 . S
C1647 C1641 1.390 . S
C1647 C1644 1.386 . S
C1648 C1643 1.490 . S
C1648 C1650 1.395 . S
C1648 C1651 1.403 . S
H1649 C1655 0.930 . S
C1650 H1636 0.930 . S
C1650 C1648 1.395 . S
C1650 C1653 1.403 . S
C1651 C1648 1.403 . S
C1651 C1652 1.524 . S
C1651 C1655 1.400 . S
C1652 H1637 0.960 . S
C1652 H1638 0.960 . S
C1652 H1639 0.960 . S
C1652 C1651 1.524 . S
C1653 C1650 1.403 . S
C1653 C1654 1.392 . S
C1653 C1657 1.495 . S
C1654 C1653 1.392 . S
C1654 C1655 1.385 . S
C1654 C1656 1.478 . S
C1655 H1649 0.930 . S
C1655 C1651 1.400 . S
C1655 C1654 1.385 . S
C1656 C1654 1.478 . S
C1656 C1658 1.381 . S
C1656 C1662 1.383 . S
C1657 C1653 1.495 . S
C1657 H1663 0.959 . S
C1657 H1664 0.961 . S
C1657 H1665 0.960 . S
C1658 C1656 1.381 . S
C1658 C1659 1.394 . S
C1658 H1666 0.930 . S
C1659 C1658 1.394 . S
C1659 C1660 1.383 . S
C1659 H1667 0.929 . S
C1660 C1659 1.383 . S
C1660 C1661 1.377 . S
C1661 H1645 0.930 . S
C1661 C1660 1.377 . S
C1661 C1662 1.379 . S
C1662 H1646 0.931 . S
C1662 C1656 1.383 . S
C1662 C1661 1.379 . S
H1663 C1657 0.959 . S
H1664 C1657 0.961 . S
H1665 C1657 0.960 . S
H1666 C1658 0.930 . S
H1667 C1659 0.929 . S
H1668 C1676 0.929 . S
H1669 C1678 0.930 . S
H1670 C1680 0.930 . S
H1671 C1683 0.929 . S
H1672 C1686 0.930 . S
H1673 C1688 0.960 . S
H1674 C1688 0.960 . S
H1675 C1688 0.960 . S
C1676 H1668 0.929 . S
C1676 C1677 1.377 . S
C1676 C1678 1.384 . S
C1677 C1676 1.377 . S
C1677 C1683 1.390 . S
C1678 H1669 0.930 . S
C1678 C1676 1.384 . S
C1678 C1679 1.372 . S
C1679 C1678 1.372 . S
C1679 C1680 1.400 . S
C1679 C1684 1.490 . S
C1680 H1670 0.930 . S
C1680 C1679 1.400 . S
C1680 C1683 1.386 . S
H1681 C1697 0.930 . S
H1682 C1698 0.931 . S
C1683 H1671 0.929 . S
C1683 C1677 1.390 . S
C1683 C1680 1.386 . S
C1684 C1679 1.490 . S
C1684 C1686 1.395 . S
C1684 C1687 1.403 . S
H1685 C1691 0.930 . S
C1686 H1672 0.930 . S
C1686 C1684 1.395 . S
C1686 C1689 1.403 . S
C1687 C1684 1.403 . S
C1687 C1688 1.524 . S
C1687 C1691 1.400 . S
C1688 H1673 0.960 . S
C1688 H1674 0.960 . S
C1688 H1675 0.960 . S
C1688 C1687 1.524 . S
C1689 C1686 1.403 . S
C1689 C1690 1.392 . S
C1689 C1693 1.495 . S
C1690 C1689 1.392 . S
C1690 C1691 1.385 . S
C1690 C1692 1.478 . S
C1691 H1685 0.930 . S
C1691 C1687 1.400 . S
C1691 C1690 1.385 . S
C1692 C1690 1.478 . S
C1692 C1694 1.381 . S
C1692 C1698 1.383 . S
C1693 C1689 1.495 . S
C1693 H1699 0.959 . S
C1693 H1700 0.961 . S
C1693 H1701 0.960 . S
C1694 C1692 1.381 . S
C1694 C1695 1.394 . S
C1694 H1702 0.930 . S
C1695 C1694 1.394 . S
C1695 C1696 1.383 . S
C1695 H1703 0.929 . S
C1696 C1695 1.383 . S
C1696 C1697 1.377 . S
C1697 H1681 0.930 . S
C1697 C1696 1.377 . S
C1697 C1698 1.379 . S
C1698 H1682 0.931 . S
C1698 C1692 1.383 . S
C1698 C1697 1.379 . S
H1699 C1693 0.959 . S
H1700 C1693 0.961 . S
H1701 C1693 0.960 . S
H1702 C1694 0.930 . S
H1703 C1695 0.929 . S
H1704 C1712 0.929 . S
H1705 C1714 0.930 . S
H1706 C1716 0.930 . S
H1707 C1719 0.929 . S
H1708 C1722 0.930 . S
H1709 C1724 0.960 . S
H1710 C1724 0.960 . S
H1711 C1724 0.960 . S
C1712 H1704 0.929 . S
C1712 C1713 1.377 . S
C1712 C1714 1.384 . S
C1713 C1712 1.377 . S
C1713 C1719 1.390 . S
C1714 H1705 0.930 . S
C1714 C1712 1.384 . S
C1714 C1715 1.372 . S
C1715 C1714 1.372 . S
C1715 C1716 1.400 . S
C1715 C1720 1.490 . S
C1716 H1706 0.930 . S
C1716 C1715 1.400 . S
C1716 C1719 1.386 . S
H1717 C1733 0.930 . S
H1718 C1734 0.931 . S
C1719 H1707 0.929 . S
C1719 C1713 1.390 . S
C1719 C1716 1.386 . S
C1720 C1715 1.490 . S
C1720 C1722 1.395 . S
C1720 C1723 1.403 . S
H1721 C1727 0.930 . S
C1722 H1708 0.930 . S
C1722 C1720 1.395 . S
C1722 C1725 1.403 . S
C1723 C1720 1.403 . S
C1723 C1724 1.524 . S
C1723 C1727 1.400 . S
C1724 H1709 0.960 . S
C1724 H1710 0.960 . S
C1724 H1711 0.960 . S
C1724 C1723 1.524 . S
C1725 C1722 1.403 . S
C1725 C1726 1.392 . S
C1725 C1729 1.495 . S
C1726 C1725 1.392 . S
C1726 C1727 1.385 . S
C1726 C1728 1.478 . S
C1727 H1721 0.930 . S
C1727 C1723 1.400 . S
C1727 C1726 1.385 . S
C1728 C1726 1.478 . S
C1728 C1730 1.381 . S
C1728 C1734 1.383 . S
C1729 C1725 1.495 . S
C1729 H1735 0.959 . S
C1729 H1736 0.961 . S
C1729 H1737 0.960 . S
C1730 C1728 1.381 . S
C1730 C1731 1.394 . S
C1730 H1738 0.930 . S
C1731 C1730 1.394 . S
C1731 C1732 1.383 . S
C1731 H1739 0.929 . S
C1732 C1731 1.383 . S
C1732 C1733 1.377 . S
C1733 H1717 0.930 . S
C1733 C1732 1.377 . S
C1733 C1734 1.379 . S
C1734 H1718 0.931 . S
C1734 C1728 1.383 . S
C1734 C1733 1.379 . S
H1735 C1729 0.959 . S
H1736 C1729 0.961 . S
H1737 C1729 0.960 . S
H1738 C1730 0.930 . S
H1739 C1731 0.929 . S
H1740 C1748 0.929 . S
H1741 C1750 0.930 . S
H1742 C1752 0.930 . S
H1743 C1755 0.929 . S
H1744 C1758 0.930 . S
H1745 C1760 0.960 . S
H1746 C1760 0.960 . S
H1747 C1760 0.960 . S
C1748 H1740 0.929 . S
C1748 C1749 1.377 . S
C1748 C1750 1.384 . S
C1749 C1748 1.377 . S
C1749 C1755 1.390 . S
C1750 H1741 0.930 . S
C1750 C1748 1.384 . S
C1750 C1751 1.372 . S
C1751 C1750 1.372 . S
C1751 C1752 1.400 . S
C1751 C1756 1.490 . S
C1752 H1742 0.930 . S
C1752 C1751 1.400 . S
C1752 C1755 1.386 . S
H1753 C1769 0.930 . S
H1754 C1770 0.931 . S
C1755 H1743 0.929 . S
C1755 C1749 1.390 . S
C1755 C1752 1.386 . S
C1756 C1751 1.490 . S
C1756 C1758 1.395 . S
C1756 C1759 1.403 . S
H1757 C1763 0.930 . S
C1758 H1744 0.930 . S
C1758 C1756 1.395 . S
C1758 C1761 1.403 . S
C1759 C1756 1.403 . S
C1759 C1760 1.524 . S
C1759 C1763 1.400 . S
C1760 H1745 0.960 . S
C1760 H1746 0.960 . S
C1760 H1747 0.960 . S
C1760 C1759 1.524 . S
C1761 C1758 1.403 . S
C1761 C1762 1.392 1_655 S
C1761 C1765 1.495 1_655 S
C1762 C1761 1.392 1_455 S
C1762 C1763 1.385 1_455 S
C1762 C1764 1.478 . S
C1763 H1757 0.930 . S
C1763 C1759 1.400 . S
C1763 C1762 1.385 1_655 S
C1764 C1762 1.478 . S
C1764 C1766 1.381 . S
C1764 C1770 1.383 . S
C1765 C1761 1.495 1_455 S
C1765 H1771 0.959 1_455 S
C1765 H1772 0.961 . S
C1765 H1773 0.960 . S
C1766 C1764 1.381 . S
C1766 C1767 1.394 . S
C1766 H1774 0.930 . S
C1767 C1766 1.394 . S
C1767 C1768 1.383 . S
C1767 H1775 0.929 . S
C1768 C1767 1.383 . S
C1768 C1769 1.377 . S
C1769 H1753 0.930 . S
C1769 C1768 1.377 . S
C1769 C1770 1.379 . S
C1770 H1754 0.931 . S
C1770 C1764 1.383 . S
C1770 C1769 1.379 . S
H1771 C1765 0.959 1_655 S
H1772 C1765 0.961 . S
H1773 C1765 0.960 . S
H1774 C1766 0.930 . S
H1775 C1767 0.929 . S
C489 C18 0.850 . S
C508 C458 0.837 . S
C525 C379 1.560 . S
C544 C58 1.641 . S
C561 C99 1.105 . S
C580 C338 1.172 . S
C597 C138 1.936 . S
C616 C418 1.930 . S
C633 C178 1.606 . S
C652 C419 1.568 . S
C669 C219 1.369 . S
C688 C459 1.374 . S
C705 C378 1.705 . S
C724 C258 1.703 . S
C741 C299 1.621 . S
C760 C339 1.671 . S
C777 C139 1.682 . S
C796 C179 1.735 . S
C813 C19 1.419 . S
C832 C218 1.477 . S
C849 C59 1.559 . S
C868 C259 1.571 . S
C885 C298 1.798 . S
C904 C98 1.789 . S
C921 C6 1.513 . S
C940 C329 1.378 . S
C957 C46 1.829 . S
C976 C409 1.714 . S
C993 C449 1.780 . S
C1012 C95 1.831 . S
C1029 C126 1.492 . S
C1048 C370 1.470 . S
C1065 C166 1.132 . S
C1084 C369 1.118 . S
C1101 C330 1.763 . S
C1120 C215 1.722 . S
C1137 C410 1.286 . S
C1156 C246 1.293 . S
C1173 C450 2.694 . S
C1192 C295 2.599 . S
C1209 C10 2.755 . S
C1228 C135 2.672 . S
C1245 C15 1.884 . S
C1264 C50 1.912 . S
C1281 C55 2.182 . S
C1300 C89 2.161 . S
C1317 C130 1.674 . S
C1336 C86 1.710 . S
C1353 C206 1.420 . S
C1372 C170 1.391 . S
C1389 C209 1.095 . S
C1408 C255 1.131 . S
C1425 C250 1.419 . S
C1444 C286 1.444 . S
C1461 C175 0.588 . S
C1480 C289 0.641 . S
C1497 C335 0.488 . S
C1516 C129 0.519 . S
C1533 C210 1.475 . S
C1552 C375 1.421 . S
C1569 C326 1.286 . S
C1588 C249 1.201 . S
C1605 C406 1.857 . S
C1624 C290 1.819 . S
C1641 C169 1.155 . S
C1660 C446 1.212 . S
C1677 C455 1.529 . S
C1696 C49 1.448 . S
C1713 C90 1.472 . S
C1732 C366 1.487 . S
C1749 C415 1.612 . S
C1768 C9 1.601 . S
