# Generated by pormake.
# Topology lhb, (8)-cn, num edge types: 1
# Building blocks:
#     Node 0, Type 0, BuildingBlock: EBIMEJ_clean_sbu_0, # of connection points: 8
#     Node 1, Type 0, BuildingBlock: EBIMEJ_clean_sbu_0, # of connection points: 8
#     Node 2, Type 0, BuildingBlock: EBIMEJ_clean_sbu_0, # of connection points: 8
#     Node 3, Type 0, BuildingBlock: EBIMEJ_clean_sbu_0, # of connection points: 8
#     Node 4, Type 0, BuildingBlock: EBIMEJ_clean_sbu_0, # of connection points: 8
#     Node 5, Type 0, BuildingBlock: EBIMEJ_clean_sbu_0, # of connection points: 8
#     Node 6, Type 0, BuildingBlock: EBIMEJ_clean_sbu_0, # of connection points: 8
#     Node 7, Type 0, BuildingBlock: EBIMEJ_clean_sbu_0, # of connection points: 8
#     Edge 8, Type (0, 0), BuildingBlock: KIFKEQ_clean_linker_1, # of connection points: 2
#     Edge 9, Type (0, 0), BuildingBlock: KIFKEQ_clean_linker_1, # of connection points: 2
#     Edge 10, Type (0, 0), BuildingBlock: KIFKEQ_clean_linker_1, # of connection points: 2
#     Edge 11, Type (0, 0), BuildingBlock: KIFKEQ_clean_linker_1, # of connection points: 2
#     Edge 12, Type (0, 0), BuildingBlock: KIFKEQ_clean_linker_1, # of connection points: 2
#     Edge 13, Type (0, 0), BuildingBlock: KIFKEQ_clean_linker_1, # of connection points: 2
#     Edge 14, Type (0, 0), BuildingBlock: KIFKEQ_clean_linker_1, # of connection points: 2
#     Edge 15, Type (0, 0), BuildingBlock: KIFKEQ_clean_linker_1, # of connection points: 2
#     Edge 16, Type (0, 0), BuildingBlock: KIFKEQ_clean_linker_1, # of connection points: 2
#     Edge 17, Type (0, 0), BuildingBlock: KIFKEQ_clean_linker_1, # of connection points: 2
#     Edge 18, Type (0, 0), BuildingBlock: KIFKEQ_clean_linker_1, # of connection points: 2
#     Edge 19, Type (0, 0), BuildingBlock: KIFKEQ_clean_linker_1, # of connection points: 2
#     Edge 20, Type (0, 0), BuildingBlock: KIFKEQ_clean_linker_1, # of connection points: 2
#     Edge 21, Type (0, 0), BuildingBlock: KIFKEQ_clean_linker_1, # of connection points: 2
#     Edge 22, Type (0, 0), BuildingBlock: KIFKEQ_clean_linker_1, # of connection points: 2
#     Edge 23, Type (0, 0), BuildingBlock: KIFKEQ_clean_linker_1, # of connection points: 2
#     Edge 24, Type (0, 0), BuildingBlock: KIFKEQ_clean_linker_1, # of connection points: 2
#     Edge 25, Type (0, 0), BuildingBlock: KIFKEQ_clean_linker_1, # of connection points: 2
#     Edge 26, Type (0, 0), BuildingBlock: KIFKEQ_clean_linker_1, # of connection points: 2
#     Edge 27, Type (0, 0), BuildingBlock: KIFKEQ_clean_linker_1, # of connection points: 2
#     Edge 28, Type (0, 0), BuildingBlock: KIFKEQ_clean_linker_1, # of connection points: 2
#     Edge 29, Type (0, 0), BuildingBlock: KIFKEQ_clean_linker_1, # of connection points: 2
#     Edge 30, Type (0, 0), BuildingBlock: KIFKEQ_clean_linker_1, # of connection points: 2
#     Edge 31, Type (0, 0), BuildingBlock: KIFKEQ_clean_linker_1, # of connection points: 2
#     Edge 32, Type (0, 0), BuildingBlock: KIFKEQ_clean_linker_1, # of connection points: 2
#     Edge 33, Type (0, 0), BuildingBlock: KIFKEQ_clean_linker_1, # of connection points: 2
#     Edge 34, Type (0, 0), BuildingBlock: KIFKEQ_clean_linker_1, # of connection points: 2
#     Edge 35, Type (0, 0), BuildingBlock: KIFKEQ_clean_linker_1, # of connection points: 2
#     Edge 36, Type (0, 0), BuildingBlock: KIFKEQ_clean_linker_1, # of connection points: 2
#     Edge 37, Type (0, 0), BuildingBlock: KIFKEQ_clean_linker_1, # of connection points: 2
#     Edge 38, Type (0, 0), BuildingBlock: KIFKEQ_clean_linker_1, # of connection points: 2
#     Edge 39, Type (0, 0), BuildingBlock: KIFKEQ_clean_linker_1, # of connection points: 2
# Relax obj value: 0.072
# Max RMSD: 0.174
# Mean RMSD: 0.174
data_MOF--net-lhb--node1-EBIMEJ_clean_sbu_0--edge1-KIFKEQ_clean_linker_1
_symmetry_space_group_name_H-M    P1
_symmetry_Int_Tables_number       1
_symmetry_cell_setting            triclinic
loop_
_symmetry_equiv_pos_as_xyz
'x, y, z'
_cell_length_a     31.732831
_cell_length_b     15.957044
_cell_length_c     67.743644
_cell_angle_alpha  82.033739
_cell_angle_beta   89.990266
_cell_angle_gamma 90.005042
loop_
_atom_site_label
_atom_site_type_symbol
_atom_site_fract_x
_atom_site_fract_y
_atom_site_fract_z
_atom_type_partial_charge
Co0 Co 0.99069 0.92705 0.99057 0.0
Co1 Co 0.07111 -0.00425 1.01541 0.0
Co2 Co 0.99076 0.93647 0.03693 0.0
H3 H 0.99783 0.95248 1.01381 0.0
O4 O 0.01008 -0.00027 1.0098 0.0
H5 H 0.0619 -0.00994 0.03884 0.0
O6 O 0.05133 0.9414 0.04322 0.0
Co7 Co 0.06287 0.02554 0.06154 0.0
O8 O 0.12185 0.05894 0.05139 0.0
O9 O 0.13174 0.00246 1.02311 0.0
O10 O 0.02221 0.96197 0.08193 0.0
O11 O 0.976 0.89261 0.06493 0.0
O12 O 0.95936 0.89791 0.96584 0.0
O13 O 0.96084 0.02195 0.97189 0.0
O14 O 0.02634 0.10918 0.04473 0.0
O15 O 0.06546 0.11932 1.01746 0.0
C16 C 0.91501 0.884 1.01648 0.0
C17 C 0.07491 -0.01654 0.97169 0.0
C18 C 0.08647 0.07133 0.09387 0.0
C19 C 0.01767 0.78329 1.01846 0.0
C20 C 0.14544 0.04184 0.03713 0.0
C21 C 0.99062 0.91248 0.08124 0.0
C22 C 0.94811 0.9728 0.9602 0.0
C23 C 0.04089 0.15245 0.02911 0.0
O24 O 0.93635 0.87123 1.00122 0.0
O25 O 0.92992 0.92524 0.02983 0.0
O26 O 0.08751 0.02205 0.98617 0.0
O27 O 0.04156 0.9384 0.97256 0.0
O28 O 0.0801 0.12098 0.07808 0.0
O29 O 0.07978 -0.0039 0.0912 0.0
O30 O 0.02356 0.82391 1.00125 0.0
O31 O 1.00051 0.81672 0.0325 0.0
Co32 Co 0.21856 0.27698 0.3118 0.0
Co33 Co 0.2919 0.18324 0.28821 0.0
Co34 Co 0.21272 0.24248 0.26581 0.0
H35 H 0.22092 0.24001 0.28928 0.0
O36 O 0.23122 0.19151 0.29399 0.0
H37 H 0.28635 0.20172 0.2651 0.0
O38 O 0.27412 0.24896 0.26103 0.0
Co39 Co 0.29469 0.17744 0.24192 0.0
O40 O 0.34624 0.11452 0.25304 0.0
O41 O 0.35322 0.16714 0.28171 0.0
O42 O 0.24204 0.16863 0.2261 0.0
O43 O 0.19735 0.26304 0.2362 0.0
O44 O 0.23155 0.32976 0.33752 0.0
O45 O 0.17055 0.29556 0.33159 0.0
O46 O 0.25942 0.07703 0.25162 0.0
O47 O 0.27905 0.06433 0.28343 0.0
C48 C 0.13668 0.28475 0.28661 0.0
C49 C 0.28955 0.1605 0.33224 0.0
C50 C 0.33668 0.22676 0.21154 0.0
C51 C 0.23803 0.40506 0.27869 0.0
C52 C 0.36735 0.12382 0.26855 0.0
C53 C 0.20852 0.21281 0.22372 0.0
C54 C 0.19407 0.32701 0.34355 0.0
C55 C 0.26216 0.03432 0.26878 0.0
O56 O 0.15888 0.30403 0.30116 0.0
O57 O 0.15194 0.24617 0.2728 0.0
O58 O 0.30457 0.13833 0.31624 0.0
O59 O 0.2586 0.21214 0.33244 0.0
O60 O 0.32688 0.15117 0.2172 0.0
O61 O 0.32314 0.27484 0.2233 0.0
O62 O 0.25209 0.36691 0.29504 0.0
O63 O 0.2155 0.36696 0.26712 0.0
Co64 Co 0.72125 0.77377 0.31207 0.0
Co65 Co 0.79426 0.68553 0.28714 0.0
Co66 Co 0.71365 0.74489 0.26585 0.0
H67 H 0.72286 0.7389 0.28928 0.0
O68 O 0.7337 0.69046 0.29362 0.0
H69 H 0.78662 0.70135 0.26403 0.0
O70 O 0.77456 0.74888 0.26008 0.0
Co71 Co 0.79239 0.67547 0.24076 0.0
O72 O 0.84556 0.61648 0.25159 0.0
O73 O 0.85508 0.67297 0.27965 0.0
O74 O 0.74145 0.68641 0.2229 0.0
O75 O 0.69686 0.77206 0.23662 0.0
O76 O 0.73136 0.83875 0.33622 0.0
O77 O 0.67487 0.77687 0.33359 0.0
O78 O 0.75966 0.57261 0.25186 0.0
O79 O 0.78402 0.56565 0.28289 0.0
C80 C 0.63878 0.78857 0.28767 0.0
C81 C 0.79435 0.6617 0.33149 0.0
C82 C 0.83289 0.7216 0.2097 0.0
C83 C 0.74376 0.9013 0.27973 0.0
C84 C 0.86829 0.62891 0.26643 0.0
C85 C 0.70867 0.73293 0.2221 0.0
C86 C 0.69587 0.82146 0.34393 0.0
C87 C 0.76623 0.53211 0.26903 0.0
O88 O 0.66171 0.80574 0.30215 0.0
O89 O 0.65322 0.75057 0.27359 0.0
O90 O 0.80925 0.64241 0.31515 0.0
O91 O 0.76238 0.71029 0.33224 0.0
O92 O 0.81151 0.65493 0.21281 0.0
O93 O 0.83144 0.76227 0.22429 0.0
O94 O 0.75784 0.8582 0.29548 0.0
O95 O 0.71922 0.86829 0.26805 0.0
Co96 Co 0.99293 0.42326 0.49097 0.0
Co97 Co 0.07169 0.49466 0.51604 0.0
Co98 Co 0.99093 0.43504 0.53722 0.0
H99 H 0.99874 0.45018 0.51414 0.0
O100 O 0.01077 0.49769 0.51011 0.0
H101 H 0.06196 0.4905 0.53942 0.0
O102 O 0.05131 0.44209 0.54391 0.0
Co103 Co 0.0627 0.52721 0.56204 0.0
O104 O 0.12203 0.55885 0.5521 0.0
O105 O 0.13215 0.50132 0.52398 0.0
O106 O 0.01967 0.46875 0.58196 0.0
O107 O 0.97568 0.39304 0.56524 0.0
O108 O 0.97392 0.40336 0.46294 0.0
O109 O 0.95326 0.5095 0.47468 0.0
O110 O 0.0263 0.60916 0.54468 0.0
O111 O 0.0664 0.61847 0.5178 0.0
C112 C 0.91743 0.37453 0.51659 0.0
C113 C 0.07688 0.48068 0.47237 0.0
C114 C 0.08805 0.57654 0.59379 0.0
C115 C 0.02126 0.28213 0.51966 0.0
C116 C 0.14575 0.54101 0.53795 0.0
C117 C 0.98871 0.41754 0.58137 0.0
C118 C 0.95211 0.46949 0.45997 0.0
C119 C 0.04209 0.65249 0.52938 0.0
O120 O 0.94037 0.36183 0.50184 0.0
O121 O 0.93029 0.41985 0.52963 0.0
O122 O 0.08879 0.51998 0.48684 0.0
O123 O 0.04395 0.43455 0.47314 0.0
O124 O 0.09116 0.61847 0.57674 0.0
O125 O 0.07098 0.50626 0.59278 0.0
O126 O 0.02643 0.32176 0.50227 0.0
O127 O 1.003 0.31538 0.53345 0.0
Co128 Co 0.22085 0.7785 0.81201 0.0
Co129 Co 0.29114 0.68197 0.78762 0.0
Co130 Co 0.21073 0.74278 0.76643 0.0
H131 H 0.22081 0.74 0.78969 0.0
O132 O 0.23098 0.69128 0.7943 0.0
H133 H 0.2844 0.70091 0.76441 0.0
O134 O 0.27187 0.74818 0.76071 0.0
Co135 Co 0.29194 0.67953 0.74074 0.0
O136 O 0.34309 0.61345 0.7517 0.0
O137 O 0.35186 0.66522 0.78037 0.0
O138 O 0.24102 0.68978 0.72272 0.0
O139 O 0.19329 0.7666 0.73724 0.0
O140 O 0.19133 0.86969 0.82632 0.0
O141 O 0.21476 0.76133 0.84287 0.0
O142 O 0.2586 0.57631 0.75072 0.0
O143 O 0.2773 0.56404 0.78274 0.0
C144 C 0.1369 0.78788 0.7884 0.0
C145 C 0.29301 0.66294 0.83162 0.0
C146 C 0.33488 0.73242 0.71064 0.0
C147 C 0.23883 0.90476 0.77866 0.0
C148 C 0.36505 0.6218 0.76706 0.0
C149 C 0.20637 0.73053 0.72245 0.0
C150 C 0.19611 0.83028 0.84355 0.0
C151 C 0.26098 0.53393 0.76798 0.0
O152 O 0.16098 0.80704 0.80229 0.0
O153 O 0.1503 0.74791 0.77442 0.0
O154 O 0.30533 0.6363 0.8156 0.0
O155 O 0.26342 0.71757 0.83192 0.0
O156 O 0.34695 0.677 0.72442 0.0
O157 O 0.29871 0.75863 0.71405 0.0
O158 O 0.25438 0.86649 0.79467 0.0
O159 O 0.21457 0.86691 0.76779 0.0
Co160 Co 0.71602 0.27106 0.81172 0.0
Co161 Co 0.78904 0.17691 0.78883 0.0
Co162 Co 0.71115 0.23769 0.76572 0.0
H163 H 0.71836 0.23401 0.78927 0.0
O164 O 0.72811 0.18496 0.79393 0.0
H165 H 0.78522 0.19693 0.76549 0.0
O166 O 0.77276 0.24404 0.7616 0.0
Co167 Co 0.79658 0.17792 0.74199 0.0
O168 O 0.85237 0.13107 0.75243 0.0
O169 O 0.85085 0.16312 0.78353 0.0
O170 O 0.74266 0.16343 0.72726 0.0
O171 O 0.69763 0.25979 0.73608 0.0
O172 O 0.696 0.36602 0.82785 0.0
O173 O 0.70133 0.24266 0.84166 0.0
O174 O 0.78698 0.05612 0.75092 0.0
O175 O 0.77763 0.05804 0.7836 0.0
C176 C 0.63453 0.27979 0.78612 0.0
C177 C 0.78723 0.1575 0.83265 0.0
C178 C 0.83069 0.23257 0.70981 0.0
C179 C 0.73889 0.39643 0.77882 0.0
C180 C 0.8698 0.1341 0.76922 0.0
C181 C 0.70949 0.20828 0.72406 0.0
C182 C 0.6921 0.31723 0.84397 0.0
C183 C 0.77922 0.01941 0.76832 0.0
O184 O 0.65644 0.29796 0.80088 0.0
O185 O 0.6501 0.24241 0.77216 0.0
O186 O 0.80019 0.13019 0.81688 0.0
O187 O 0.75777 0.21259 0.83252 0.0
O188 O 0.81551 0.15979 0.71401 0.0
O189 O 0.82619 0.27552 0.72389 0.0
O190 O 0.75222 0.35664 0.79512 0.0
O191 O 0.71447 0.36162 0.76744 0.0
Co192 Co 0.48862 0.92724 0.49097 0.0
Co193 Co 0.57054 -0.00716 0.51526 0.0
Co194 Co 0.49093 0.93451 0.5375 0.0
H195 H 0.49691 0.95123 0.51429 0.0
O196 O 0.50927 -0.00163 0.51027 0.0
H197 H 0.56248 -0.0128 0.53877 0.0
O198 O 0.55183 0.93864 0.54321 0.0
Co199 Co 0.56516 0.0223 0.56146 0.0
O200 O 0.62448 0.05323 0.55095 0.0
O201 O 0.63135 -0.00217 0.5223 0.0
O202 O 0.52494 0.95847 0.58216 0.0
O203 O 0.47736 0.89033 0.5656 0.0
O204 O 0.43483 0.92082 0.47411 0.0
O205 O 0.48113 0.00917 0.46484 0.0
O206 O 0.52955 0.11019 0.54536 0.0
O207 O 0.5659 0.11678 0.51725 0.0
C208 C 0.41389 0.88441 0.51771 0.0
C209 C 0.57341 -0.02318 0.47189 0.0
C210 C 0.58913 0.06733 0.59377 0.0
C211 C 0.51578 0.78159 0.51832 0.0
C212 C 0.64661 0.03576 0.53622 0.0
C213 C 0.49292 0.90974 0.58177 0.0
C214 C 0.44601 -0.02043 0.46091 0.0
C215 C 0.54235 0.15132 0.52909 0.0
O216 O 0.43431 0.8727 0.5021 0.0
O217 O 0.42968 0.92441 0.53108 0.0
O218 O 0.5859 0.01836 0.48587 0.0
O219 O 0.54003 0.93163 0.4733 0.0
O220 O 0.58104 0.11754 0.57827 0.0
O221 O 0.58396 -0.00802 0.59082 0.0
O222 O 0.52101 0.82266 0.5011 0.0
O223 O 0.49961 0.81461 0.53267 0.0
Co224 Co 0.48944 0.42689 0.99192 0.0
Co225 Co 0.57122 0.49442 1.01611 0.0
Co226 Co 0.49172 0.4357 0.03843 0.0
H227 H 0.49756 0.45191 1.01517 0.0
O228 O 0.50981 0.49907 1.01107 0.0
H229 H 0.56272 0.49167 0.0396 0.0
O230 O 0.55242 0.44309 0.04427 0.0
Co231 Co 0.56428 0.52907 0.06212 0.0
O232 O 0.62334 0.55882 0.05147 0.0
O233 O 0.63219 0.50088 1.02329 0.0
O234 O 0.52214 0.47106 0.08265 0.0
O235 O 0.47847 0.3923 0.06659 0.0
O236 O 0.48755 0.45197 0.96123 0.0
O237 O 0.43525 0.47647 0.97779 0.0
O238 O 0.52778 0.61053 0.04466 0.0
O239 O 0.56689 0.61878 1.01745 0.0
C240 C 0.41454 0.38356 1.01838 0.0
C241 C 0.57682 0.46076 0.97478 0.0
C242 C 0.59007 0.58029 0.09357 0.0
C243 C 0.51834 0.28257 1.01967 0.0
C244 C 0.64645 0.5407 0.03713 0.0
C245 C 0.49174 0.41816 0.08251 0.0
C246 C 0.45035 0.47842 0.96061 0.0
C247 C 0.54331 0.65344 0.02923 0.0
O248 O 0.43453 0.37423 1.00251 0.0
O249 O 0.43059 0.42155 0.03205 0.0
O250 O 0.58661 0.51457 0.98662 0.0
O251 O 0.54404 0.41424 0.97753 0.0
O252 O 0.59523 0.61908 0.07631 0.0
O253 O 0.5707 0.51211 0.09295 0.0
O254 O 0.52121 0.32194 1.00214 0.0
O255 O 0.50292 0.3162 0.03409 0.0
H256 H 0.10559 0.23084 0.10269 0.0
H257 H 0.09466 0.97025 0.12941 0.0
H258 H 0.12872 0.26976 0.13483 0.0
H259 H 0.11583 0.00879 0.16138 0.0
H260 H 0.21026 0.0724 0.20584 0.0
H261 H 0.17863 0.04544 0.17535 0.0
H262 H 0.11423 0.28599 0.17006 0.0
H263 H 0.1487 0.31595 0.2011 0.0
C264 C 0.1078 0.18201 0.11545 0.0
C265 C 0.09886 0.09717 0.1134 0.0
C266 C 0.12065 0.20446 0.13394 0.0
C267 C 0.12475 0.14257 0.15083 0.0
C268 C 0.11413 0.05834 0.14875 0.0
C269 C 0.10174 0.03599 0.13035 0.0
C270 C 0.18935 0.12044 0.19841 0.0
C271 C 0.18258 0.19716 0.20609 0.0
C272 C 0.17057 0.10406 0.1808 0.0
C273 C 0.14329 0.16277 0.17008 0.0
C274 C 0.1353 0.23927 0.17783 0.0
C275 C 0.15464 0.25621 0.19573 0.0
H276 H 0.91526 0.828 0.08611 0.0
H277 H 0.01614 0.92418 0.11949 0.0
H278 H 0.87735 0.78321 0.11696 0.0
H279 H 0.97887 0.87673 0.15042 0.0
H280 H 0.88079 0.86409 0.20024 0.0
H281 H 0.919 0.90878 0.16927 0.0
H282 H 0.87716 0.68321 0.1463 0.0
H283 H 0.83806 0.64031 0.17699 0.0
C284 C 0.92968 0.83864 0.10003 0.0
C285 C 0.96885 0.87983 0.10022 0.0
C286 C 0.90794 0.81258 0.1178 0.0
C287 C 0.9249 0.82637 0.13628 0.0
C288 C 0.9644 0.86633 0.13648 0.0
C289 C 0.98601 0.89295 0.1187 0.0
C290 C 0.87978 0.82425 0.18854 0.0
C291 C 0.85648 0.74869 0.19104 0.0
C292 C 0.90193 0.84948 0.17082 0.0
C293 C 0.90137 0.79958 0.15521 0.0
C294 C 0.87795 0.72393 0.15782 0.0
C295 C 0.85574 0.69892 0.1755 0.0
H296 H 0.04675 0.52611 0.43525 0.0
H297 H 0.15932 0.43551 0.46675 0.0
H298 H 0.07702 0.49476 0.4041 0.0
H299 H 0.18965 0.40083 0.43553 0.0
H300 H 0.24144 0.39187 0.37184 0.0
H301 H 0.21714 0.44124 0.40255 0.0
H302 H 0.08958 0.37333 0.38905 0.0
H303 H 0.11383 0.32659 0.35825 0.0
C304 C 0.07866 0.50176 0.43537 0.0
C305 C 0.10096 0.48503 0.45342 0.0
C306 C 0.09578 0.48198 0.41753 0.0
C307 C 0.1356 0.4433 0.41715 0.0
C308 C 0.15903 0.43093 0.43507 0.0
C309 C 0.14188 0.45157 0.45301 0.0
C310 C 0.20817 0.38795 0.37543 0.0
C311 C 0.17955 0.35587 0.36247 0.0
C312 C 0.19421 0.41583 0.39314 0.0
C313 C 0.15119 0.4126 0.39838 0.0
C314 C 0.12278 0.37919 0.38544 0.0
C315 C 0.13672 0.35151 0.36778 0.0
H316 H 0.87026 0.57911 0.33629 0.0
H317 H 0.76861 0.67222 0.36976 0.0
H318 H 0.90813 0.53412 0.36715 0.0
H319 H 0.80591 0.62461 0.40069 0.0
H320 H 0.90341 0.6111 0.45079 0.0
H321 H 0.86529 0.6564 0.41982 0.0
H322 H 0.90865 0.43322 0.3963 0.0
H323 H 0.94764 0.38975 0.42699 0.0
C324 C 0.85567 0.58903 0.35024 0.0
C325 C 0.81625 0.62931 0.35046 0.0
C326 C 0.87739 0.56286 0.36801 0.0
C327 C 0.86022 0.57565 0.38652 0.0
C328 C 0.82053 0.61492 0.38675 0.0
C329 C 0.79892 0.64163 0.36897 0.0
C330 C 0.90477 0.5719 0.43897 0.0
C331 C 0.92848 0.49685 0.44132 0.0
C332 C 0.88268 0.59749 0.42125 0.0
C333 C 0.88368 0.54848 0.40547 0.0
C334 C 0.90749 0.47331 0.40794 0.0
C335 C 0.92965 0.44795 0.42562 0.0
H336 H 0.12808 0.72481 0.59825 0.0
H337 H 0.07927 0.4968 0.63218 0.0
H338 H 0.15086 0.77455 0.62905 0.0
H339 H 0.10264 0.54566 0.66306 0.0
H340 H 0.12464 0.67881 0.71765 0.0
H341 H 0.0927 0.6464 0.6865 0.0
H342 H 0.20328 0.74523 0.65409 0.0
H343 H 0.23426 0.77799 0.68491 0.0
C344 C 0.1222 0.68523 0.61231 0.0
C345 C 0.1019 0.6067 0.61268 0.0
C346 C 0.13541 0.71362 0.63004 0.0
C347 C 0.1287 0.66446 0.64874 0.0
C348 C 0.10789 0.58616 0.64908 0.0
C349 C 0.09478 0.55767 0.63131 0.0
C350 C 0.14122 0.69657 0.70371 0.0
C351 C 0.18163 0.7327 0.70371 0.0
C352 C 0.12334 0.6765 0.68588 0.0
C353 C 0.14535 0.69264 0.6676 0.0
C354 C 0.18488 0.73269 0.66763 0.0
C355 C 0.20273 0.75189 0.68538 0.0
H356 H 0.84517 0.14221 0.67936 0.0
H357 H 0.86568 0.38806 0.69741 0.0
H358 H 0.88339 0.186 0.64853 0.0
H359 H 0.90307 0.43325 0.66615 0.0
H360 H 1.0067 0.45319 0.61895 0.0
H361 H 0.96807 0.40967 0.64961 0.0
H362 H 0.87899 0.27536 0.61731 0.0
H363 H 0.91836 0.31674 0.58667 0.0
C364 C 0.85758 0.20602 0.67663 0.0
C365 C 0.85251 0.2617 0.69081 0.0
C366 C 0.8793 0.23135 0.65888 0.0
C367 C 0.89638 0.31321 0.65479 0.0
C368 C 0.89088 0.36931 0.66892 0.0
C369 C 0.86922 0.34375 0.68677 0.0
C370 C 0.97909 0.41384 0.61834 0.0
C371 C 0.96591 0.38819 0.60025 0.0
C372 C 0.95662 0.38958 0.63595 0.0
C373 C 0.92025 0.33926 0.63598 0.0
C374 C 0.90715 0.31325 0.61793 0.0
C375 C 0.92971 0.33726 0.6003 0.0
H376 H 0.20943 0.75806 0.88225 0.0
H377 H 0.15024 0.97255 0.84731 0.0
H378 H 0.18488 0.80764 0.91287 0.0
H379 H 0.12613 0.02291 0.87783 0.0
H380 H 0.04376 0.01778 0.93441 0.0
H381 H 0.07547 -0.01399 0.90363 0.0
H382 H 0.19124 0.91539 0.93513 0.0
H383 H 0.15873 0.94698 0.96624 0.0
C384 C 0.19141 0.81617 0.8811 0.0
C385 C 0.18178 0.86121 0.86228 0.0
C386 C 0.17759 0.8451 0.89871 0.0
C387 C 0.15349 0.9197 0.898 0.0
C388 C 0.14424 0.9649 0.8791 0.0
C389 C 0.15822 0.93619 0.86153 0.0
C390 C 0.0765 -0.00173 0.93465 0.0
C391 C 0.09897 -0.01333 0.95273 0.0
C392 C 0.09474 -0.02038 0.91694 0.0
C393 C 0.13605 0.94768 0.91671 0.0
C394 C 0.15925 0.93917 0.93469 0.0
C395 C 0.14097 0.9588 0.95248 0.0
H396 H 0.85028 0.0396 0.8394 0.0
H397 H 0.77371 0.20748 0.86935 0.0
H398 H 0.88854 -0.00389 0.87022 0.0
H399 H 0.81158 0.16243 0.9003 0.0
H400 H 0.92094 0.13204 0.94561 0.0
H401 H 0.88118 0.17557 0.91498 0.0
H402 H 0.87939 0.91648 0.90307 0.0
H403 H 0.91965 0.87354 0.93344 0.0
C404 C 0.84124 0.06668 0.85258 0.0
C405 C 0.80871 0.12699 0.85182 0.0
C406 C 0.86315 0.0414 0.87031 0.0
C407 C 0.85318 0.07574 0.88776 0.0
C408 C 0.82042 0.13546 0.88708 0.0
C409 C 0.79843 0.16071 0.86934 0.0
C410 C 0.91195 0.08451 0.93643 0.0
C411 C 0.9234 -0.00057 0.9419 0.0
C412 C 0.88898 0.1093 0.91895 0.0
C413 C 0.87705 0.04951 0.90654 0.0
C414 C 0.88848 0.96435 0.91212 0.0
C415 C 0.91135 0.93963 0.92959 0.0
H416 H 0.71702 0.07304 0.70438 0.0
H417 H 0.64658 0.30602 0.70234 0.0
H418 H 0.68537 0.04594 0.67391 0.0
H419 H 0.61261 0.27592 0.6712 0.0
H420 H 0.60462 0.22734 0.60317 0.0
H421 H 0.62764 0.26585 0.63537 0.0
H422 H 0.62208 0.00249 0.66086 0.0
H423 H 0.6008 0.96449 0.62883 0.0
C424 C 0.69428 0.11878 0.69756 0.0
C425 C 0.68481 0.19253 0.70604 0.0
C426 C 0.67557 0.10223 0.67995 0.0
C427 C 0.64589 0.15788 0.66999 0.0
C428 C 0.63553 0.23161 0.67842 0.0
C429 C 0.65466 0.24862 0.69635 0.0
C430 C 0.60838 0.1779 0.61571 0.0
C431 C 0.60149 0.09265 0.61334 0.0
C432 C 0.62117 0.20007 0.63423 0.0
C433 C 0.62728 0.13744 0.65081 0.0
C434 C 0.61871 0.05263 0.64845 0.0
C435 C 0.60632 0.03061 0.63002 0.0
H436 H 0.52206 0.91159 0.61991 0.0
H437 H 0.41456 0.83797 0.58709 0.0
H438 H 0.48457 0.86864 0.65117 0.0
H439 H 0.37723 0.79549 0.61834 0.0
H440 H 0.30759 0.82932 0.67667 0.0
H441 H 0.34654 0.86888 0.64564 0.0
H442 H 0.45609 0.73688 0.67185 0.0
H443 H 0.41691 0.69652 0.70286 0.0
C444 C 0.4906 0.88576 0.61932 0.0
C445 C 0.47144 0.87821 0.60091 0.0
C446 C 0.46916 0.86092 0.63727 0.0
C447 C 0.42785 0.82906 0.63724 0.0
C448 C 0.40886 0.82066 0.61887 0.0
C449 C 0.43045 0.84441 0.60094 0.0
C450 C 0.33999 0.80886 0.67582 0.0
C451 C 0.35916 0.75965 0.69218 0.0
C452 C 0.36223 0.83112 0.65801 0.0
C453 C 0.40437 0.80572 0.65625 0.0
C454 C 0.42377 0.7578 0.67277 0.0
C455 C 0.40131 0.7345 0.69049 0.0
H456 H 0.62897 0.57056 0.9495 0.0
H457 H 0.58289 0.31362 0.95994 0.0
H458 H 0.66171 0.54022 0.91815 0.0
H459 H 0.61251 0.28545 0.92901 0.0
H460 H 0.69209 0.22002 0.88025 0.0
H461 H 0.67305 0.25951 0.91239 0.0
H462 H 0.64526 0.51368 0.88446 0.0
H463 H 0.66653 0.47423 0.85214 0.0
C464 C 0.62631 0.50768 0.94533 0.0
C465 C 0.60315 0.44486 0.95734 0.0
C466 C 0.64451 0.49043 0.92722 0.0
C467 C 0.64004 0.41 0.92085 0.0
C468 C 0.61783 0.34745 0.93331 0.0
C469 C 0.60025 0.36421 0.95118 0.0
C470 C 0.68211 0.2845 0.88092 0.0
C471 C 0.6804 0.34358 0.86354 0.0
C472 C 0.6709 0.30735 0.89944 0.0
C473 C 0.6568 0.38985 0.90123 0.0
C474 C 0.65612 0.44979 0.88384 0.0
C475 C 0.6679 0.42696 0.86524 0.0
H476 H 0.48115 0.49895 0.92268 0.0
H477 H 0.36675 0.51784 0.95624 0.0
H478 H 0.44285 0.54168 0.89171 0.0
H479 H 0.32794 0.55788 0.92526 0.0
H480 H 0.28124 0.71515 0.86811 0.0
H481 H 0.31888 0.67064 0.89892 0.0
H482 H 0.39214 0.49562 0.86964 0.0
H483 H 0.35507 0.54191 0.83851 0.0
C484 C 0.44771 0.51192 0.92341 0.0
C485 C 0.42697 0.50535 0.94188 0.0
C486 C 0.42563 0.53576 0.90563 0.0
C487 C 0.38215 0.55313 0.90587 0.0
C488 C 0.36147 0.54631 0.92444 0.0
C489 C 0.38365 0.52299 0.94223 0.0
C490 C 0.3051 0.66667 0.86818 0.0
C491 C 0.31483 0.63199 0.85072 0.0
C492 C 0.32669 0.64081 0.88598 0.0
C493 C 0.35862 0.57928 0.8869 0.0
C494 C 0.36816 0.54397 0.86948 0.0
C495 C 0.34662 0.57008 0.85162 0.0
H496 H 0.63568 0.72296 0.09739 0.0
H497 H 0.57622 0.50853 0.13224 0.0
H498 H 0.65889 0.7741 0.12797 0.0
H499 H 0.59987 0.55875 0.16289 0.0
H500 H 0.62497 0.69616 0.21644 0.0
H501 H 0.59301 0.66526 0.18516 0.0
H502 H 0.7088 0.73935 0.154 0.0
H503 H 0.7399 0.77067 0.18494 0.0
C504 C 0.62751 0.68673 0.1116 0.0
C505 C 0.60413 0.61153 0.11231 0.0
C506 C 0.64095 0.7159 0.12921 0.0
C507 C 0.63134 0.67092 0.1481 0.0
C508 C 0.60743 0.5961 0.14875 0.0
C509 C 0.59414 0.56676 0.13112 0.0
C510 C 0.64281 0.70905 0.20272 0.0
C511 C 0.68464 0.73774 0.2031 0.0
C512 C 0.62486 0.68976 0.18482 0.0
C513 C 0.64826 0.69926 0.16689 0.0
C514 C 0.68935 0.73219 0.16726 0.0
C515 C 0.70724 0.75064 0.18506 0.0
H516 H 0.36512 0.12949 0.18437 0.0
H517 H 0.36089 0.38781 0.19658 0.0
H518 H 0.40295 0.17486 0.15341 0.0
H519 H 0.39822 0.43376 0.16536 0.0
H520 H 0.5039 0.47114 0.11893 0.0
H521 H 0.46706 0.42493 0.15001 0.0
H522 H 0.392 0.25342 0.12056 0.0
H523 H 0.42952 0.29807 0.0895 0.0
C524 C 0.37228 0.19608 0.18041 0.0
C525 C 0.36016 0.25509 0.19292 0.0
C526 C 0.39371 0.22219 0.16259 0.0
C527 C 0.40362 0.30799 0.15684 0.0
C528 C 0.39156 0.36704 0.16943 0.0
C529 C 0.37002 0.34086 0.18727 0.0
C530 C 0.47986 0.42295 0.11906 0.0
C531 C 0.47003 0.38797 0.10165 0.0
C532 C 0.45838 0.3971 0.13689 0.0
C533 C 0.42649 0.33552 0.13783 0.0
C534 C 0.41674 0.30023 0.12046 0.0
C535 C 0.43818 0.32617 0.1026 0.0
H536 H 0.65876 0.95486 0.46538 0.0
H537 H 0.53958 -0.00449 0.43506 0.0
H538 H 0.69086 0.91966 0.43444 0.0
H539 H 0.57112 0.96274 0.40446 0.0
H540 H 0.61942 0.79053 0.36199 0.0
H541 H 0.59378 0.83667 0.39262 0.0
H542 H 0.71215 0.96301 0.39951 0.0
H543 H 0.73813 0.91489 0.36887 0.0
C544 C 0.63982 0.95932 0.45198 0.0
C545 C 0.59663 -0.02147 0.4527 0.0
C546 C 0.65806 0.93844 0.43425 0.0
C547 C 0.63342 0.93629 0.41693 0.0
C548 C 0.59099 0.96114 0.41751 0.0
C549 C 0.57295 -0.0186 0.43506 0.0
C550 C 0.64004 0.82809 0.37002 0.0
C551 C 0.68074 0.84938 0.36285 0.0
C552 C 0.62524 0.85524 0.38758 0.0
C553 C 0.65059 0.90492 0.39857 0.0
C554 C 0.6917 0.92483 0.39158 0.0
C555 C 0.70653 0.89761 0.37393 0.0
H556 H 0.4732 0.07939 0.4274 0.0
H557 H 0.36439 0.9422 0.45288 0.0
H558 H 0.43444 0.11995 0.39636 0.0
H559 H 0.32531 -0.0159 0.42189 0.0
H560 H 0.2604 0.16507 0.37024 0.0
H561 H 0.29749 0.12093 0.4016 0.0
H562 H 0.40398 0.0426 0.36899 0.0
H563 H 0.36707 0.08578 0.33766 0.0
C564 C 0.44095 0.05824 0.42639 0.0
C565 C 0.42185 0.00736 0.44251 0.0
C566 C 0.41883 0.08112 0.4086 0.0
C567 C 0.37691 0.05489 0.4067 0.0
C568 C 0.35752 0.00548 0.42298 0.0
C569 C 0.3799 -0.01867 0.44066 0.0
C570 C 0.29157 0.13777 0.36975 0.0
C571 C 0.31065 0.1288 0.3514 0.0
C572 C 0.31274 0.11235 0.38771 0.0
C573 C 0.35367 0.07872 0.38772 0.0
C574 C 0.3726 0.06905 0.36942 0.0
C575 C 0.35125 0.09323 0.35149 0.0
H576 H 0.07771 0.69433 1.00152 0.0
H577 H 0.96936 0.6665 0.04046 0.0
H578 H 0.08291 0.54051 1.00367 0.0
H579 H 0.97263 0.51413 0.04165 0.0
H580 H 0.01508 0.24571 0.05733 0.0
H581 H 0.01201 0.39768 0.05507 0.0
H582 H 0.0494 0.42132 0.99311 0.0
H583 H 0.05488 0.26734 0.99577 0.0
C584 C 0.05517 0.65501 1.01057 0.0
C585 C 0.02361 0.69154 1.02109 0.0
C586 C 0.05773 0.56724 1.0116 0.0
C587 C 0.02814 0.51496 1.0228 0.0
C588 C 0.99655 0.55222 0.03327 0.0
C589 C 0.99465 0.63955 0.03262 0.0
C590 C 0.02228 0.28303 0.04313 0.0
C591 C 0.03503 0.24463 0.02667 0.0
C592 C 0.02037 0.37048 0.04182 0.0
C593 C 0.03027 0.42184 1.02389 0.0
C594 C 0.04222 0.38349 1.00724 0.0
C595 C 0.04492 0.29547 1.00867 0.0
H596 H 0.29704 0.50125 0.29392 0.0
H597 H 0.18732 0.51736 0.25577 0.0
H598 H 0.29829 0.6546 0.29177 0.0
H599 H 0.18772 0.67099 0.25413 0.0
H600 H 0.23358 0.94689 0.23965 0.0
H601 H 0.22696 0.79488 0.24126 0.0
H602 H 0.2577 0.76423 0.30402 0.0
H603 H 0.266 0.9169 0.30228 0.0
C604 C 0.27333 0.53776 0.28498 0.0
C605 C 0.2421 0.4976 0.27501 0.0
C606 C 0.27371 0.62544 0.28396 0.0
C607 C 0.24261 0.67469 0.27311 0.0
C608 C 0.21219 0.6347 0.26256 0.0
C609 C 0.21206 0.54683 0.26342 0.0
C610 C 0.23848 0.90801 0.25389 0.0
C611 C 0.25101 0.94391 0.2708 0.0
C612 C 0.23448 0.82074 0.2548 0.0
C613 C 0.2425 0.76755 0.27267 0.0
C614 C 0.2524 0.80368 0.28989 0.0
C615 C 0.25675 0.89111 0.28896 0.0
H616 H 0.72672 0.0161 0.24671 0.0
H617 H 0.77508 -0.00549 0.3069 0.0
H618 H 0.73277 0.16996 0.24382 0.0
H619 H 0.77889 0.14645 0.30445 0.0
H620 H 0.81815 0.41672 0.28907 0.0
H621 H 0.81593 0.26435 0.28991 0.0
H622 H 0.70044 0.28782 0.25558 0.0
H623 H 0.7045 0.44173 0.2537 0.0
C624 C 0.73874 0.04416 0.25926 0.0
C625 C 0.75058 -0.00668 0.27698 0.0
C626 C 0.74179 0.13216 0.2577 0.0
C627 C 0.75616 0.17056 0.27394 0.0
C628 C 0.76847 0.11922 0.2915 0.0
C629 C 0.76611 0.03176 0.29294 0.0
C630 C 0.79196 0.38904 0.28198 0.0
C631 C 0.7611 0.44022 0.27158 0.0
C632 C 0.79069 0.30176 0.28241 0.0
C633 C 0.7579 0.26372 0.27288 0.0
C634 C 0.72653 0.31519 0.26276 0.0
C635 C 0.72843 0.40296 0.26192 0.0
H636 H 0.03264 0.74351 0.55984 0.0
H637 H 0.04912 0.76926 0.49597 0.0
H638 H 0.03421 0.89555 0.55858 0.0
H639 H 0.04786 0.92333 0.49443 0.0
H640 H 0.07736 0.19592 0.49955 0.0
H641 H 0.08563 0.04267 0.50236 0.0
H642 H 0.99108 0.0114 0.54886 0.0
H643 H 0.98467 0.16347 0.54676 0.0
C644 C 0.0357 0.78199 0.54543 0.0
C645 C 0.0401 0.74491 0.52793 0.0
C646 C 0.03657 0.8693 0.54471 0.0
C647 C 0.04072 0.92177 0.5264 0.0
C648 C 0.04518 0.88463 0.50882 0.0
C649 C 0.04537 0.79669 0.50962 0.0
C650 C 0.059 0.1559 0.5106 0.0
C651 C 0.03046 0.19122 0.52296 0.0
C652 C 0.06337 0.06831 0.51206 0.0
C653 C 0.03876 0.01473 0.5257 0.0
C654 C 0.0111 0.05062 0.53842 0.0
C655 C 1.00733 0.13795 0.53721 0.0
H656 H 0.29867 0.00224 0.79294 0.0
H657 H 0.18636 0.01579 0.75651 0.0
H658 H 0.2994 0.15577 0.79059 0.0
H659 H 0.18634 0.16937 0.75467 0.0
H660 H 0.2314 0.44585 0.73914 0.0
H661 H 0.2252 0.29355 0.74095 0.0
H662 H 0.25837 0.26441 0.80342 0.0
H663 H 0.26606 0.41715 0.8015 0.0
C664 C 0.2743 0.03818 0.78434 0.0
C665 C 0.24248 -0.00269 0.77492 0.0
C666 C 0.2744 0.12591 0.7832 0.0
C667 C 0.24247 0.17433 0.77277 0.0
C668 C 0.21143 0.13364 0.76276 0.0
C669 C 0.21155 0.0458 0.76375 0.0
C670 C 0.2369 0.40721 0.75335 0.0
C671 C 0.24991 0.44352 0.77012 0.0
C672 C 0.23316 0.31984 0.75438 0.0
C673 C 0.24204 0.26711 0.77222 0.0
C674 C 0.25241 0.30361 0.78932 0.0
C675 C 0.2564 0.39108 0.78827 0.0
H676 H 0.68471 0.51891 0.76279 0.0
H677 H 0.81016 0.47759 0.78701 0.0
H678 H 0.69465 0.67227 0.76113 0.0
H679 H 0.82034 0.63071 0.7848 0.0
H680 H 0.82426 0.91203 0.74944 0.0
H681 H 0.81501 0.75924 0.75131 0.0
H682 H 0.71426 0.7673 0.79381 0.0
H683 H 0.72417 0.9211 0.79237 0.0
C684 C 0.71463 0.54285 0.76732 0.0
C685 C 0.74682 0.48733 0.77495 0.0
C686 C 0.72004 0.62991 0.76661 0.0
C687 C 0.75798 0.66184 0.77308 0.0
C688 C 0.79077 0.6066 0.77989 0.0
C689 C 0.78504 0.51966 0.78104 0.0
C690 C 0.80025 0.88104 0.75924 0.0
C691 C 0.77467 0.92753 0.7707 0.0
C692 C 0.7951 0.79414 0.7603 0.0
C693 C 0.76377 0.75298 0.77252 0.0
C694 C 0.73837 0.79889 0.78418 0.0
C695 C 0.74418 0.886 0.78347 0.0
H696 H 0.58244 0.69156 0.50733 0.0
H697 H 0.45769 0.66692 0.53277 0.0
H698 H 0.58677 0.53775 0.50867 0.0
H699 H 0.46026 0.51468 0.53278 0.0
H700 H 0.49741 0.24338 0.55258 0.0
H701 H 0.49153 0.39512 0.54972 0.0
H702 H 0.56137 0.42058 0.49434 0.0
H703 H 0.5693 0.26707 0.49783 0.0
C704 C 0.55608 0.65274 0.51322 0.0
C705 C 0.52022 0.68977 0.5204 0.0
C706 C 0.55817 0.56508 0.51371 0.0
C707 C 0.52385 0.51366 0.52084 0.0
C708 C 0.48771 0.55183 0.52769 0.0
C709 C 0.48618 0.63892 0.52773 0.0
C710 C 0.51133 0.28099 0.53968 0.0
C711 C 0.53414 0.24307 0.52551 0.0
C712 C 0.50766 0.36842 0.53796 0.0
C713 C 0.5261 0.42038 0.52184 0.0
C714 C 0.54748 0.38243 0.50717 0.0
C715 C 0.55162 0.29448 0.50903 0.0
H716 H 0.54809 0.76987 0.99561 0.0
H717 H 0.5362 0.74485 0.0597 0.0
H718 H 0.54567 0.924 0.99394 0.0
H719 H 0.53659 0.89698 0.05826 0.0
H720 H 0.4841 0.16262 0.04721 0.0
H721 H 0.49167 0.01064 0.04918 0.0
H722 H 0.58266 0.04545 1.00113 0.0
H723 H 0.57312 0.19835 0.99849 0.0
C724 C 0.54516 0.79748 1.00928 0.0
C725 C 0.54141 0.74589 0.0277 0.0
C726 C 0.54428 0.88548 1.0084 0.0
C727 C 0.54062 0.92283 0.02599 0.0
C728 C 0.53821 0.87055 0.0444 0.0
C729 C 0.53806 0.78319 0.04522 0.0
C730 C 0.5062 0.13781 0.03729 0.0
C731 C 0.52799 0.19188 1.02269 0.0
C732 C 0.51065 0.05061 0.03841 0.0
C733 C 0.5377 0.01574 1.02525 0.0
C734 C 0.5609 0.07022 1.01119 0.0
C735 C 0.5558 0.15762 1.00981 0.0
H736 H 0.37938 0.31687 0.05385 0.0
H737 H 0.35773 0.34895 0.99036 0.0
H738 H 0.31779 0.22562 0.05902 0.0
H739 H 0.29469 0.26144 0.99547 0.0
H740 H 0.2053 0.04029 1.00753 0.0
H741 H 0.27054 0.12216 1.00356 0.0
H742 H 0.24534 0.21911 0.05891 0.0
H743 H 0.1822 0.13451 0.06338 0.0
C744 C 0.36071 0.3063 0.04104 0.0
C745 C 0.37329 0.34046 1.02172 0.0
C746 C 0.32532 0.25365 0.04396 0.0
C747 C 0.30107 0.23507 0.02766 0.0
C748 C 0.31298 0.27208 1.00838 0.0
C749 C 0.34882 0.32342 1.00545 0.0
C750 C 0.21424 0.07767 1.01904 0.0
C751 C 0.18823 0.08063 0.03573 0.0
C752 C 0.2514 0.12578 1.01664 0.0
C753 C 0.26325 0.17865 0.03077 0.0
C754 C 0.2379 0.17883 0.04777 0.0
C755 C 0.20125 0.1302 0.05029 0.0
H756 H 0.85967 0.84237 0.98854 0.0
H757 H 0.87922 0.82157 0.05205 0.0
H758 H 0.79679 0.75442 0.99403 0.0
H759 H 0.81814 0.72949 0.05767 0.0
H760 H 0.68345 0.63673 0.06259 0.0
H761 H 0.74631 0.72131 0.0575 0.0
H762 H 0.77151 0.61727 1.00303 0.0
H763 H 0.70622 0.53566 1.00756 0.0
C764 C 0.85034 0.81914 1.00371 0.0
C765 C 0.87408 0.83972 1.01988 0.0
C766 C 0.81462 0.76751 1.00688 0.0
C767 C 0.80219 0.73354 0.02631 0.0
C768 C 0.82591 0.75524 0.04248 0.0
C769 C 0.86107 0.80835 0.0393 0.0
C770 C 0.70239 0.63082 0.04956 0.0
C771 C 0.68929 0.57932 0.0354 0.0
C772 C 0.73896 0.67948 0.04669 0.0
C773 C 0.76431 0.67728 0.02975 0.0
C774 C 0.7524 0.62251 1.01604 0.0
C775 C 0.71521 0.57451 1.01877 0.0
H776 H 0.09454 0.3327 0.25186 0.0
H777 H 0.08365 0.32712 0.31554 0.0
H778 H 0.03175 0.41978 0.24701 0.0
H779 H 0.01914 0.41063 0.31086 0.0
H780 H 0.92943 0.63436 0.2954 0.0
H781 H 0.99312 0.54757 0.30043 0.0
H782 H 0.95984 0.42497 0.24954 0.0
H783 H 0.89852 0.51385 0.24391 0.0
C784 C 0.07788 0.34769 0.26488 0.0
C785 C 0.09396 0.32234 0.28408 0.0
C786 C 0.04173 0.39808 0.26213 0.0
C787 C 0.02008 0.42312 0.27853 0.0
C788 C 0.0353 0.39458 0.29782 0.0
C789 C 0.07197 0.34546 0.30054 0.0
C790 C 0.9362 0.58975 0.28514 0.0
C791 C 0.90886 0.58193 0.26917 0.0
C792 C 0.97248 0.53905 0.28815 0.0
C793 C 0.98193 0.47863 0.27541 0.0
C794 C 0.9545 0.47157 0.25945 0.0
C795 C 0.91888 0.52274 0.25628 0.0
H796 H 0.37878 0.82108 0.55343 0.0
H797 H 0.35745 0.84537 0.48999 0.0
H798 H 0.31751 0.72915 0.55912 0.0
H799 H 0.29478 0.75723 0.49558 0.0
H800 H 0.20617 0.53601 0.50877 0.0
H801 H 0.27129 0.61805 0.50452 0.0
H802 H 0.24501 0.72159 0.55893 0.0
H803 H 0.18197 0.63683 0.56372 0.0
C804 C 0.36025 0.80864 0.54073 0.0
C805 C 0.37282 0.84085 0.52129 0.0
C806 C 0.32506 0.75559 0.54395 0.0
C807 C 0.30104 0.73465 0.52781 0.0
C808 C 0.31293 0.76969 0.50839 0.0
C809 C 0.34856 0.82141 0.50517 0.0
C810 C 0.21484 0.57488 0.52003 0.0
C811 C 0.18854 0.57966 0.53654 0.0
C812 C 0.25194 0.62306 0.51746 0.0
C813 C 0.26341 0.67788 0.53122 0.0
C814 C 0.23783 0.67982 0.54808 0.0
C815 C 0.20125 0.63107 0.55078 0.0
H816 H 0.88748 0.25759 0.49446 0.0
H817 H 0.85557 0.38257 0.54512 0.0
H818 H 0.82542 0.17041 0.49993 0.0
H819 H 0.7913 0.29749 0.55001 0.0
H820 H 0.69879 0.08042 0.56523 0.0
H821 H 0.7639 0.16209 0.56071 0.0
H822 H 0.75353 0.16637 0.49692 0.0
H823 H 0.69006 0.08109 0.50162 0.0
C824 C 0.86679 0.26774 0.50662 0.0
C825 C 0.87672 0.32776 0.51931 0.0
C826 C 0.83075 0.21757 0.5097 0.0
C827 C 0.80282 0.22641 0.52538 0.0
C828 C 0.81228 0.28753 0.53794 0.0
C829 C 0.84892 0.33725 0.53502 0.0
C830 C 0.71102 0.0974 0.55028 0.0
C831 C 0.68942 0.07341 0.5338 0.0
C832 C 0.74808 0.14545 0.54764 0.0
C833 C 0.76417 0.17206 0.52842 0.0
C834 C 0.74288 0.14622 0.512 0.0
C835 C 0.70631 0.09693 0.51468 0.0
H836 H 0.92854 0.10294 0.74167 0.0
H837 H 0.90321 0.06404 0.80491 0.0
H838 H 0.99074 0.01341 0.74702 0.0
H839 H 0.96422 0.97136 0.81024 0.0
H840 H 0.09979 0.87778 0.81513 0.0
H841 H 0.0371 0.96383 0.81067 0.0
H842 H 0.01249 0.87143 0.75474 0.0
H843 H 0.07722 0.78796 0.75871 0.0
C844 C 0.93649 0.07575 0.75676 0.0
C845 C 0.91107 0.09122 0.77288 0.0
C846 C 0.97184 0.0232 0.75981 0.0
C847 C 0.98245 -0.0163 0.77905 0.0
C848 C 0.95754 0.00114 0.79523 0.0
C849 C 0.92251 0.05471 0.7922 0.0
C850 C 0.08093 0.87468 0.80192 0.0
C851 C 0.09402 0.82607 0.78718 0.0
C852 C 0.04458 0.92417 0.79942 0.0
C853 C 0.01965 0.92583 0.78223 0.0
C854 C 0.03139 0.87358 0.76796 0.0
C855 C 0.06823 0.82454 0.77036 0.0
H856 H 0.59226 0.32934 0.75144 0.0
H857 H 0.58118 0.31918 0.81523 0.0
H858 H 0.52895 0.41516 0.7469 0.0
H859 H 0.51621 0.4013 0.81085 0.0
H860 H 0.42577 0.62426 0.79631 0.0
H861 H 0.48962 0.53793 0.80101 0.0
H862 H 0.45695 0.41963 0.74938 0.0
H863 H 0.39531 0.50814 0.74413 0.0
C864 C 0.57547 0.34308 0.76454 0.0
C865 C 0.59165 0.31682 0.78369 0.0
C866 C 0.53901 0.39271 0.76197 0.0
C867 C 0.51716 0.4161 0.7785 0.0
C868 C 0.5325 0.38659 0.79771 0.0
C869 C 0.56945 0.33825 0.80026 0.0
C870 C 0.43263 0.58053 0.78585 0.0
C871 C 0.40538 0.57388 0.76978 0.0
C872 C 0.46903 0.53012 0.78866 0.0
C873 C 0.47876 0.4711 0.7756 0.0
C874 C 0.45138 0.4651 0.75956 0.0
C875 C 0.41559 0.516 0.7566 0.0
H876 H 0.58927 0.81756 0.25435 0.0
H877 H 0.59174 0.84763 0.31674 0.0
H878 H 0.52494 0.90039 0.25007 0.0
H879 H 0.52622 0.92765 0.31269 0.0
H880 H 0.43328 0.14535 0.29416 0.0
H881 H 0.49773 0.0604 0.2992 0.0
H882 H 0.45343 0.90286 0.25647 0.0
H883 H 0.39108 -0.01076 0.25079 0.0
C884 C 0.57549 0.83988 0.26729 0.0
C885 C 0.59575 0.82562 0.28588 0.0
C886 C 0.53843 0.88772 0.26486 0.0
C887 C 0.52019 0.92161 0.28102 0.0
C888 C 0.53966 0.90444 0.29979 0.0
C889 C 0.57702 0.85743 0.30217 0.0
C890 C 0.43767 0.09298 0.28577 0.0
C891 C 0.40724 0.07509 0.27188 0.0
C892 C 0.47442 0.04364 0.28876 0.0
C893 C 0.48115 -0.02545 0.27816 0.0
C894 C 0.45022 0.95649 0.26454 0.0
C895 C 0.41413 0.00625 0.26134 0.0
loop_
_geom_bond_atom_site_label_1
_geom_bond_atom_site_label_2
_geom_bond_distance
_geom_bond_site_symmetry_2
_ccdc_geom_bond_type
Co0 H3 2.400 1_565 S
Co0 O4 2.009 1_565 S
Co0 O12 2.115 . S
Co0 O13 2.315 1_565 S
Co0 O24 2.053 . S
Co0 O27 2.094 1_655 S
Co0 O30 2.125 . S
Co1 O4 2.126 1_455 S
Co1 H5 2.388 1_546 S
Co1 O6 2.053 1_546 S
Co1 O9 2.047 . S
Co1 O15 2.113 . S
Co1 O26 2.063 . S
Co2 H3 2.388 1_564 S
Co2 O4 2.053 1_564 S
Co2 O6 2.126 1_655 S
Co2 O11 2.063 . S
Co2 O25 2.047 . S
Co2 O31 2.113 . S
H3 Co0 2.400 1_545 S
H3 Co2 2.388 1_546 S
H3 O4 0.760 . S
O4 Co0 2.009 1_545 S
O4 Co1 2.126 1_655 S
O4 Co2 2.053 1_546 S
O4 H3 0.760 . S
H5 Co1 2.388 1_564 S
H5 O6 0.760 . S
H5 Co7 2.400 1_565 S
O6 Co1 2.053 1_564 S
O6 Co2 2.126 1_455 S
O6 H5 0.760 . S
O6 Co7 2.009 1_565 S
Co7 H5 2.400 1_545 S
Co7 O6 2.009 1_545 S
Co7 O8 2.053 . S
Co7 O10 2.094 1_455 S
Co7 O14 2.122 . S
Co7 O28 2.115 . S
Co7 O29 2.315 1_545 S
O8 Co7 2.053 . S
O8 C20 1.259 . S
O9 Co1 2.047 . S
O9 C20 1.257 1_556 S
O10 Co7 2.094 1_655 S
O10 C21 1.253 1_545 S
O11 Co2 2.063 . S
O11 C21 1.268 . S
O12 Co0 2.115 . S
O12 C22 1.281 . S
O13 Co0 2.315 1_545 S
O13 C22 1.252 1_545 S
O14 Co7 2.122 . S
O14 C23 1.272 . S
O15 Co1 2.113 . S
O15 C23 1.245 1_556 S
C16 O24 1.259 . S
C16 O25 1.257 1_556 S
C17 O26 1.268 . S
C17 O27 1.253 1_545 S
C18 O28 1.281 . S
C18 O29 1.252 1_545 S
C19 O30 1.315 . S
C19 O31 1.211 1_556 S
C20 O8 1.259 . S
C20 O9 1.257 1_554 S
C21 O10 1.253 1_565 S
C21 O11 1.268 . S
C22 O12 1.281 . S
C22 O13 1.252 1_565 S
C23 O14 1.272 . S
C23 O15 1.245 1_554 S
O24 Co0 2.053 . S
O24 C16 1.259 . S
O25 Co2 2.047 . S
O25 C16 1.257 1_554 S
O26 Co1 2.063 . S
O26 C17 1.268 . S
O27 Co0 2.094 1_455 S
O27 C17 1.253 1_565 S
O28 Co7 2.115 . S
O28 C18 1.281 . S
O29 Co7 2.315 1_565 S
O29 C18 1.252 1_565 S
O30 Co0 2.125 . S
O30 C19 1.315 . S
O31 Co2 2.113 . S
O31 C19 1.211 1_554 S
Co32 H35 2.400 . S
Co32 O36 2.009 . S
Co32 O44 2.115 . S
Co32 O45 2.315 . S
Co32 O56 2.053 . S
Co32 O59 2.094 . S
Co32 O62 2.122 . S
Co33 O36 2.126 . S
Co33 H37 2.388 . S
Co33 O38 2.053 . S
Co33 O41 2.047 . S
Co33 O47 2.113 . S
Co33 O58 2.063 . S
Co34 H35 2.388 . S
Co34 O36 2.053 . S
Co34 O38 2.126 . S
Co34 O43 2.063 . S
Co34 O57 2.047 . S
Co34 O63 2.113 . S
H35 Co32 2.400 . S
H35 Co34 2.388 . S
H35 O36 0.760 . S
O36 Co32 2.009 . S
O36 Co33 2.126 . S
O36 Co34 2.053 . S
O36 H35 0.760 . S
H37 Co33 2.388 . S
H37 O38 0.760 . S
H37 Co39 2.400 . S
O38 Co33 2.053 . S
O38 Co34 2.126 . S
O38 H37 0.760 . S
O38 Co39 2.009 . S
Co39 H37 2.400 . S
Co39 O38 2.009 . S
Co39 O40 2.053 . S
Co39 O42 2.094 . S
Co39 O46 2.122 . S
Co39 O60 2.115 . S
Co39 O61 2.315 . S
O40 Co39 2.053 . S
O40 C52 1.259 . S
O41 Co33 2.047 . S
O41 C52 1.257 . S
O42 Co39 2.094 . S
O42 C53 1.253 . S
O43 Co34 2.063 . S
O43 C53 1.268 . S
O44 Co32 2.115 . S
O44 C54 1.281 . S
O45 Co32 2.315 . S
O45 C54 1.252 . S
O46 Co39 2.122 . S
O46 C55 1.272 . S
O47 Co33 2.113 . S
O47 C55 1.245 . S
C48 O56 1.259 . S
C48 O57 1.257 . S
C49 O58 1.268 . S
C49 O59 1.253 . S
C50 O60 1.281 . S
C50 O61 1.252 . S
C51 O62 1.272 . S
C51 O63 1.245 . S
C52 O40 1.259 . S
C52 O41 1.257 . S
C53 O42 1.253 . S
C53 O43 1.268 . S
C54 O44 1.281 . S
C54 O45 1.252 . S
C55 O46 1.272 . S
C55 O47 1.245 . S
O56 Co32 2.053 . S
O56 C48 1.259 . S
O57 Co34 2.047 . S
O57 C48 1.257 . S
O58 Co33 2.063 . S
O58 C49 1.268 . S
O59 Co32 2.094 . S
O59 C49 1.253 . S
O60 Co39 2.115 . S
O60 C50 1.281 . S
O61 Co39 2.315 . S
O61 C50 1.252 . S
O62 Co32 2.122 . S
O62 C51 1.272 . S
O63 Co34 2.113 . S
O63 C51 1.245 . S
Co64 H67 2.400 . S
Co64 O68 2.009 . S
Co64 O76 2.115 . S
Co64 O77 2.315 . S
Co64 O88 2.053 . S
Co64 O91 2.094 . S
Co64 O94 2.122 . S
Co65 O68 2.126 . S
Co65 H69 2.388 . S
Co65 O70 2.053 . S
Co65 O73 2.047 . S
Co65 O79 2.113 . S
Co65 O90 2.063 . S
Co66 H67 2.388 . S
Co66 O68 2.053 . S
Co66 O70 2.126 . S
Co66 O75 2.063 . S
Co66 O89 2.047 . S
Co66 O95 2.113 . S
H67 Co64 2.400 . S
H67 Co66 2.388 . S
H67 O68 0.760 . S
O68 Co64 2.009 . S
O68 Co65 2.126 . S
O68 Co66 2.053 . S
O68 H67 0.760 . S
H69 Co65 2.388 . S
H69 O70 0.760 . S
H69 Co71 2.400 . S
O70 Co65 2.053 . S
O70 Co66 2.126 . S
O70 H69 0.760 . S
O70 Co71 2.009 . S
Co71 H69 2.400 . S
Co71 O70 2.009 . S
Co71 O72 2.053 . S
Co71 O74 2.094 . S
Co71 O78 2.122 . S
Co71 O92 2.115 . S
Co71 O93 2.315 . S
O72 Co71 2.053 . S
O72 C84 1.259 . S
O73 Co65 2.047 . S
O73 C84 1.257 . S
O74 Co71 2.094 . S
O74 C85 1.253 . S
O75 Co66 2.063 . S
O75 C85 1.268 . S
O76 Co64 2.115 . S
O76 C86 1.281 . S
O77 Co64 2.315 . S
O77 C86 1.252 . S
O78 Co71 2.122 . S
O78 C87 1.272 . S
O79 Co65 2.113 . S
O79 C87 1.245 . S
C80 O88 1.259 . S
C80 O89 1.257 . S
C81 O90 1.268 . S
C81 O91 1.253 . S
C82 O92 1.281 . S
C82 O93 1.252 . S
C83 O94 1.272 . S
C83 O95 1.245 . S
C84 O72 1.259 . S
C84 O73 1.257 . S
C85 O74 1.253 . S
C85 O75 1.268 . S
C86 O76 1.281 . S
C86 O77 1.252 . S
C87 O78 1.272 . S
C87 O79 1.245 . S
O88 Co64 2.053 . S
O88 C80 1.259 . S
O89 Co66 2.047 . S
O89 C80 1.257 . S
O90 Co65 2.063 . S
O90 C81 1.268 . S
O91 Co64 2.094 . S
O91 C81 1.253 . S
O92 Co71 2.115 . S
O92 C82 1.281 . S
O93 Co71 2.315 . S
O93 C82 1.252 . S
O94 Co64 2.122 . S
O94 C83 1.272 . S
O95 Co66 2.113 . S
O95 C83 1.245 . S
Co96 H99 2.400 . S
Co96 O100 2.009 . S
Co96 O108 2.115 . S
Co96 O109 2.315 . S
Co96 O120 2.053 . S
Co96 O123 2.094 1_655 S
Co96 O126 2.125 . S
Co97 O100 2.126 1_455 S
Co97 H101 2.388 . S
Co97 O102 2.053 . S
Co97 O105 2.047 . S
Co97 O111 2.113 . S
Co97 O122 2.063 . S
Co98 H99 2.388 . S
Co98 O100 2.053 . S
Co98 O102 2.126 1_655 S
Co98 O107 2.063 . S
Co98 O121 2.047 . S
Co98 O127 2.113 . S
H99 Co96 2.400 . S
H99 Co98 2.388 . S
H99 O100 0.760 . S
O100 Co96 2.009 . S
O100 Co97 2.126 1_655 S
O100 Co98 2.053 . S
O100 H99 0.760 . S
H101 Co97 2.388 . S
H101 O102 0.760 . S
H101 Co103 2.400 . S
O102 Co97 2.053 . S
O102 Co98 2.126 1_455 S
O102 H101 0.760 . S
O102 Co103 2.009 . S
Co103 H101 2.400 . S
Co103 O102 2.009 . S
Co103 O104 2.053 . S
Co103 O106 2.094 1_455 S
Co103 O110 2.122 . S
Co103 O124 2.115 . S
Co103 O125 2.315 . S
O104 Co103 2.053 . S
O104 C116 1.259 . S
O105 Co97 2.047 . S
O105 C116 1.257 . S
O106 Co103 2.094 1_655 S
O106 C117 1.253 . S
O107 Co98 2.063 . S
O107 C117 1.268 . S
O108 Co96 2.115 . S
O108 C118 1.281 . S
O109 Co96 2.315 . S
O109 C118 1.252 . S
O110 Co103 2.122 . S
O110 C119 1.272 . S
O111 Co97 2.113 . S
O111 C119 1.245 . S
C112 O120 1.259 . S
C112 O121 1.257 . S
C113 O122 1.268 . S
C113 O123 1.253 . S
C114 O124 1.281 . S
C114 O125 1.252 . S
C115 O126 1.272 . S
C115 O127 1.245 . S
C116 O104 1.259 . S
C116 O105 1.257 . S
C117 O106 1.253 . S
C117 O107 1.268 . S
C118 O108 1.281 . S
C118 O109 1.252 . S
C119 O110 1.272 . S
C119 O111 1.245 . S
O120 Co96 2.053 . S
O120 C112 1.259 . S
O121 Co98 2.047 . S
O121 C112 1.257 . S
O122 Co97 2.063 . S
O122 C113 1.268 . S
O123 Co96 2.094 1_455 S
O123 C113 1.253 . S
O124 Co103 2.115 . S
O124 C114 1.281 . S
O125 Co103 2.315 . S
O125 C114 1.252 . S
O126 Co96 2.125 . S
O126 C115 1.272 . S
O127 Co98 2.113 . S
O127 C115 1.245 . S
Co128 H131 2.400 . S
Co128 O132 2.009 . S
Co128 O140 2.115 . S
Co128 O141 2.315 . S
Co128 O152 2.053 . S
Co128 O155 2.094 . S
Co128 O158 2.122 . S
Co129 O132 2.126 . S
Co129 H133 2.388 . S
Co129 O134 2.053 . S
Co129 O137 2.047 . S
Co129 O143 2.113 . S
Co129 O154 2.063 . S
Co130 H131 2.388 . S
Co130 O132 2.053 . S
Co130 O134 2.126 . S
Co130 O139 2.063 . S
Co130 O153 2.047 . S
Co130 O159 2.113 . S
H131 Co128 2.400 . S
H131 Co130 2.388 . S
H131 O132 0.760 . S
O132 Co128 2.009 . S
O132 Co129 2.126 . S
O132 Co130 2.053 . S
O132 H131 0.760 . S
H133 Co129 2.388 . S
H133 O134 0.760 . S
H133 Co135 2.400 . S
O134 Co129 2.053 . S
O134 Co130 2.126 . S
O134 H133 0.760 . S
O134 Co135 2.009 . S
Co135 H133 2.400 . S
Co135 O134 2.009 . S
Co135 O136 2.053 . S
Co135 O138 2.094 . S
Co135 O142 2.122 . S
Co135 O156 2.115 . S
Co135 O157 2.315 . S
O136 Co135 2.053 . S
O136 C148 1.259 . S
O137 Co129 2.047 . S
O137 C148 1.257 . S
O138 Co135 2.094 . S
O138 C149 1.253 . S
O139 Co130 2.063 . S
O139 C149 1.268 . S
O140 Co128 2.115 . S
O140 C150 1.281 . S
O141 Co128 2.315 . S
O141 C150 1.252 . S
O142 Co135 2.122 . S
O142 C151 1.272 . S
O143 Co129 2.113 . S
O143 C151 1.245 . S
C144 O152 1.259 . S
C144 O153 1.257 . S
C145 O154 1.268 . S
C145 O155 1.253 . S
C146 O156 1.281 . S
C146 O157 1.252 . S
C147 O158 1.272 . S
C147 O159 1.245 . S
C148 O136 1.259 . S
C148 O137 1.257 . S
C149 O138 1.253 . S
C149 O139 1.268 . S
C150 O140 1.281 . S
C150 O141 1.252 . S
C151 O142 1.272 . S
C151 O143 1.245 . S
O152 Co128 2.053 . S
O152 C144 1.259 . S
O153 Co130 2.047 . S
O153 C144 1.257 . S
O154 Co129 2.063 . S
O154 C145 1.268 . S
O155 Co128 2.094 . S
O155 C145 1.253 . S
O156 Co135 2.115 . S
O156 C146 1.281 . S
O157 Co135 2.315 . S
O157 C146 1.252 . S
O158 Co128 2.122 . S
O158 C147 1.272 . S
O159 Co130 2.113 . S
O159 C147 1.245 . S
Co160 H163 2.400 . S
Co160 O164 2.009 . S
Co160 O172 2.115 . S
Co160 O173 2.315 . S
Co160 O184 2.053 . S
Co160 O187 2.094 . S
Co160 O190 2.122 . S
Co161 O164 2.126 . S
Co161 H165 2.388 . S
Co161 O166 2.053 . S
Co161 O169 2.047 . S
Co161 O175 2.113 . S
Co161 O186 2.063 . S
Co162 H163 2.388 . S
Co162 O164 2.053 . S
Co162 O166 2.126 . S
Co162 O171 2.063 . S
Co162 O185 2.047 . S
Co162 O191 2.113 . S
H163 Co160 2.400 . S
H163 Co162 2.388 . S
H163 O164 0.760 . S
O164 Co160 2.009 . S
O164 Co161 2.126 . S
O164 Co162 2.053 . S
O164 H163 0.760 . S
H165 Co161 2.388 . S
H165 O166 0.760 . S
H165 Co167 2.400 . S
O166 Co161 2.053 . S
O166 Co162 2.126 . S
O166 H165 0.760 . S
O166 Co167 2.009 . S
Co167 H165 2.400 . S
Co167 O166 2.009 . S
Co167 O168 2.053 . S
Co167 O170 2.094 . S
Co167 O174 2.122 . S
Co167 O188 2.115 . S
Co167 O189 2.315 . S
O168 Co167 2.053 . S
O168 C180 1.259 . S
O169 Co161 2.047 . S
O169 C180 1.257 . S
O170 Co167 2.094 . S
O170 C181 1.253 . S
O171 Co162 2.063 . S
O171 C181 1.268 . S
O172 Co160 2.115 . S
O172 C182 1.281 . S
O173 Co160 2.315 . S
O173 C182 1.252 . S
O174 Co167 2.122 . S
O174 C183 1.272 . S
O175 Co161 2.113 . S
O175 C183 1.245 . S
C176 O184 1.259 . S
C176 O185 1.257 . S
C177 O186 1.268 . S
C177 O187 1.253 . S
C178 O188 1.281 . S
C178 O189 1.252 . S
C179 O190 1.272 . S
C179 O191 1.245 . S
C180 O168 1.259 . S
C180 O169 1.257 . S
C181 O170 1.253 . S
C181 O171 1.268 . S
C182 O172 1.281 . S
C182 O173 1.252 . S
C183 O174 1.272 . S
C183 O175 1.245 . S
O184 Co160 2.053 . S
O184 C176 1.259 . S
O185 Co162 2.047 . S
O185 C176 1.257 . S
O186 Co161 2.063 . S
O186 C177 1.268 . S
O187 Co160 2.094 . S
O187 C177 1.253 . S
O188 Co167 2.115 . S
O188 C178 1.281 . S
O189 Co167 2.315 . S
O189 C178 1.252 . S
O190 Co160 2.122 . S
O190 C179 1.272 . S
O191 Co162 2.113 . S
O191 C179 1.245 . S
Co192 H195 2.400 1_565 S
Co192 O196 2.009 1_565 S
Co192 O204 2.115 . S
Co192 O205 2.315 1_565 S
Co192 O216 2.053 . S
Co192 O219 2.094 . S
Co192 O222 2.122 . S
Co193 O196 2.126 . S
Co193 H197 2.388 1_545 S
Co193 O198 2.053 1_545 S
Co193 O201 2.047 . S
Co193 O207 2.113 . S
Co193 O218 2.063 . S
Co194 H195 2.388 1_565 S
Co194 O196 2.053 1_565 S
Co194 O198 2.126 . S
Co194 O203 2.063 . S
Co194 O217 2.047 . S
Co194 O223 2.113 . S
H195 Co192 2.400 1_545 S
H195 Co194 2.388 1_545 S
H195 O196 0.760 . S
O196 Co192 2.009 1_545 S
O196 Co193 2.126 . S
O196 Co194 2.053 1_545 S
O196 H195 0.760 . S
H197 Co193 2.388 1_565 S
H197 O198 0.760 . S
H197 Co199 2.400 1_565 S
O198 Co193 2.053 1_565 S
O198 Co194 2.126 . S
O198 H197 0.760 . S
O198 Co199 2.009 1_565 S
Co199 H197 2.400 1_545 S
Co199 O198 2.009 1_545 S
Co199 O200 2.053 . S
Co199 O202 2.094 . S
Co199 O206 2.122 . S
Co199 O220 2.115 . S
Co199 O221 2.315 1_545 S
O200 Co199 2.053 . S
O200 C212 1.259 . S
O201 Co193 2.047 . S
O201 C212 1.257 . S
O202 Co199 2.094 . S
O202 C213 1.253 1_545 S
O203 Co194 2.063 . S
O203 C213 1.268 . S
O204 Co192 2.115 . S
O204 C214 1.281 . S
O205 Co192 2.315 1_545 S
O205 C214 1.252 1_545 S
O206 Co199 2.122 . S
O206 C215 1.272 . S
O207 Co193 2.113 . S
O207 C215 1.245 . S
C208 O216 1.259 . S
C208 O217 1.257 . S
C209 O218 1.268 . S
C209 O219 1.253 1_545 S
C210 O220 1.281 . S
C210 O221 1.252 1_545 S
C211 O222 1.272 . S
C211 O223 1.245 . S
C212 O200 1.259 . S
C212 O201 1.257 . S
C213 O202 1.253 1_565 S
C213 O203 1.268 . S
C214 O204 1.281 . S
C214 O205 1.252 1_565 S
C215 O206 1.272 . S
C215 O207 1.245 . S
O216 Co192 2.053 . S
O216 C208 1.259 . S
O217 Co194 2.047 . S
O217 C208 1.257 . S
O218 Co193 2.063 . S
O218 C209 1.268 . S
O219 Co192 2.094 . S
O219 C209 1.253 1_565 S
O220 Co199 2.115 . S
O220 C210 1.281 . S
O221 Co199 2.315 1_565 S
O221 C210 1.252 1_565 S
O222 Co192 2.122 . S
O222 C211 1.272 . S
O223 Co194 2.113 . S
O223 C211 1.245 . S
Co224 H227 2.400 . S
Co224 O228 2.009 . S
Co224 O236 2.115 . S
Co224 O237 2.315 . S
Co224 O248 2.053 . S
Co224 O251 2.094 . S
Co224 O254 2.122 . S
Co225 O228 2.126 . S
Co225 H229 2.388 1_556 S
Co225 O230 2.053 1_556 S
Co225 O233 2.047 . S
Co225 O239 2.113 . S
Co225 O250 2.063 . S
Co226 H227 2.388 1_554 S
Co226 O228 2.053 1_554 S
Co226 O230 2.126 . S
Co226 O235 2.063 . S
Co226 O249 2.047 . S
Co226 O255 2.113 . S
H227 Co224 2.400 . S
H227 Co226 2.388 1_556 S
H227 O228 0.760 . S
O228 Co224 2.009 . S
O228 Co225 2.126 . S
O228 Co226 2.053 1_556 S
O228 H227 0.760 . S
H229 Co225 2.388 1_554 S
H229 O230 0.760 . S
H229 Co231 2.400 . S
O230 Co225 2.053 1_554 S
O230 Co226 2.126 . S
O230 H229 0.760 . S
O230 Co231 2.009 . S
Co231 H229 2.400 . S
Co231 O230 2.009 . S
Co231 O232 2.053 . S
Co231 O234 2.094 . S
Co231 O238 2.122 . S
Co231 O252 2.115 . S
Co231 O253 2.315 . S
O232 Co231 2.053 . S
O232 C244 1.259 . S
O233 Co225 2.047 . S
O233 C244 1.257 1_556 S
O234 Co231 2.094 . S
O234 C245 1.253 . S
O235 Co226 2.063 . S
O235 C245 1.268 . S
O236 Co224 2.115 . S
O236 C246 1.281 . S
O237 Co224 2.315 . S
O237 C246 1.252 . S
O238 Co231 2.122 . S
O238 C247 1.272 . S
O239 Co225 2.113 . S
O239 C247 1.245 1_556 S
C240 O248 1.259 . S
C240 O249 1.257 1_556 S
C241 O250 1.268 . S
C241 O251 1.253 . S
C242 O252 1.281 . S
C242 O253 1.252 . S
C243 O254 1.315 . S
C243 O255 1.211 1_556 S
C244 O232 1.259 . S
C244 O233 1.257 1_554 S
C245 O234 1.253 . S
C245 O235 1.268 . S
C246 O236 1.281 . S
C246 O237 1.252 . S
C247 O238 1.272 . S
C247 O239 1.245 1_554 S
O248 Co224 2.053 . S
O248 C240 1.259 . S
O249 Co226 2.047 . S
O249 C240 1.257 1_554 S
O250 Co225 2.063 . S
O250 C241 1.268 . S
O251 Co224 2.094 . S
O251 C241 1.253 . S
O252 Co231 2.115 . S
O252 C242 1.281 . S
O253 Co231 2.315 . S
O253 C242 1.252 . S
O254 Co224 2.122 . S
O254 C243 1.315 . S
O255 Co226 2.113 . S
O255 C243 1.211 1_554 S
H256 C264 0.950 . S
H257 C269 0.950 1_565 S
H258 C266 0.950 . S
H259 C268 0.950 . S
H260 C270 0.950 . S
H261 C272 0.950 . S
H262 C274 0.950 . S
H263 C275 0.950 . S
C264 H256 0.950 . S
C264 C265 1.386 . S
C264 C266 1.391 . S
C265 C264 1.386 . S
C265 C269 1.393 . S
C266 H258 0.950 . S
C266 C264 1.391 . S
C266 C267 1.400 . S
C267 C266 1.400 . S
C267 C268 1.398 . S
C267 C273 1.491 . S
C268 H259 0.950 . S
C268 C267 1.398 . S
C268 C269 1.391 . S
C269 H257 0.950 1_545 S
C269 C265 1.393 . S
C269 C268 1.391 . S
C270 H260 0.950 . S
C270 C271 1.386 . S
C270 C272 1.391 . S
C271 C270 1.386 . S
C271 C275 1.393 . S
C272 H261 0.950 . S
C272 C270 1.391 . S
C272 C273 1.400 . S
C273 C267 1.491 . S
C273 C272 1.400 . S
C273 C274 1.398 . S
C274 H262 0.950 . S
C274 C273 1.398 . S
C274 C275 1.391 . S
C275 H263 0.950 . S
C275 C271 1.393 . S
C275 C274 1.391 . S
H276 C284 0.950 . S
H277 C289 0.950 . S
H278 C286 0.950 . S
H279 C288 0.950 . S
H280 C290 0.950 . S
H281 C292 0.950 . S
H282 C294 0.950 . S
H283 C295 0.950 . S
C284 H276 0.950 . S
C284 C285 1.386 . S
C284 C286 1.391 . S
C285 C284 1.386 . S
C285 C289 1.393 . S
C286 H278 0.950 . S
C286 C284 1.391 . S
C286 C287 1.400 . S
C287 C286 1.400 . S
C287 C288 1.398 . S
C287 C293 1.491 . S
C288 H279 0.950 . S
C288 C287 1.398 . S
C288 C289 1.391 . S
C289 H277 0.950 . S
C289 C285 1.393 . S
C289 C288 1.391 . S
C290 H280 0.950 . S
C290 C291 1.386 . S
C290 C292 1.391 . S
C291 C290 1.386 . S
C291 C295 1.393 . S
C292 H281 0.950 . S
C292 C290 1.391 . S
C292 C293 1.400 . S
C293 C287 1.491 . S
C293 C292 1.400 . S
C293 C294 1.398 . S
C294 H282 0.950 . S
C294 C293 1.398 . S
C294 C295 1.391 . S
C295 H283 0.950 . S
C295 C291 1.393 . S
C295 C294 1.391 . S
H296 C304 0.950 . S
H297 C309 0.950 . S
H298 C306 0.950 . S
H299 C308 0.950 . S
H300 C310 0.950 . S
H301 C312 0.950 . S
H302 C314 0.950 . S
H303 C315 0.950 . S
C304 H296 0.950 . S
C304 C305 1.386 . S
C304 C306 1.391 . S
C305 C304 1.386 . S
C305 C309 1.393 . S
C306 H298 0.950 . S
C306 C304 1.391 . S
C306 C307 1.400 . S
C307 C306 1.400 . S
C307 C308 1.398 . S
C307 C313 1.491 . S
C308 H299 0.950 . S
C308 C307 1.398 . S
C308 C309 1.391 . S
C309 H297 0.950 . S
C309 C305 1.393 . S
C309 C308 1.391 . S
C310 H300 0.950 . S
C310 C311 1.386 . S
C310 C312 1.391 . S
C311 C310 1.386 . S
C311 C315 1.393 . S
C312 H301 0.950 . S
C312 C310 1.391 . S
C312 C313 1.400 . S
C313 C307 1.491 . S
C313 C312 1.400 . S
C313 C314 1.398 . S
C314 H302 0.950 . S
C314 C313 1.398 . S
C314 C315 1.391 . S
C315 H303 0.950 . S
C315 C311 1.393 . S
C315 C314 1.391 . S
H316 C324 0.950 . S
H317 C329 0.950 . S
H318 C326 0.950 . S
H319 C328 0.950 . S
H320 C330 0.950 . S
H321 C332 0.950 . S
H322 C334 0.950 . S
H323 C335 0.950 . S
C324 H316 0.950 . S
C324 C325 1.386 . S
C324 C326 1.391 . S
C325 C324 1.386 . S
C325 C329 1.393 . S
C326 H318 0.950 . S
C326 C324 1.391 . S
C326 C327 1.400 . S
C327 C326 1.400 . S
C327 C328 1.398 . S
C327 C333 1.491 . S
C328 H319 0.950 . S
C328 C327 1.398 . S
C328 C329 1.391 . S
C329 H317 0.950 . S
C329 C325 1.393 . S
C329 C328 1.391 . S
C330 H320 0.950 . S
C330 C331 1.386 . S
C330 C332 1.391 . S
C331 C330 1.386 . S
C331 C335 1.393 . S
C332 H321 0.950 . S
C332 C330 1.391 . S
C332 C333 1.400 . S
C333 C327 1.491 . S
C333 C332 1.400 . S
C333 C334 1.398 . S
C334 H322 0.950 . S
C334 C333 1.398 . S
C334 C335 1.391 . S
C335 H323 0.950 . S
C335 C331 1.393 . S
C335 C334 1.391 . S
H336 C344 0.950 . S
H337 C349 0.950 . S
H338 C346 0.950 . S
H339 C348 0.950 . S
H340 C350 0.950 . S
H341 C352 0.950 . S
H342 C354 0.950 . S
H343 C355 0.950 . S
C344 H336 0.950 . S
C344 C345 1.386 . S
C344 C346 1.391 . S
C345 C344 1.386 . S
C345 C349 1.393 . S
C346 H338 0.950 . S
C346 C344 1.391 . S
C346 C347 1.400 . S
C347 C346 1.400 . S
C347 C348 1.398 . S
C347 C353 1.491 . S
C348 H339 0.950 . S
C348 C347 1.398 . S
C348 C349 1.391 . S
C349 H337 0.950 . S
C349 C345 1.393 . S
C349 C348 1.391 . S
C350 H340 0.950 . S
C350 C351 1.386 . S
C350 C352 1.391 . S
C351 C350 1.386 . S
C351 C355 1.393 . S
C352 H341 0.950 . S
C352 C350 1.391 . S
C352 C353 1.400 . S
C353 C347 1.491 . S
C353 C352 1.400 . S
C353 C354 1.398 . S
C354 H342 0.950 . S
C354 C353 1.398 . S
C354 C355 1.391 . S
C355 H343 0.950 . S
C355 C351 1.393 . S
C355 C354 1.391 . S
H356 C364 0.950 . S
H357 C369 0.950 . S
H358 C366 0.950 . S
H359 C368 0.950 . S
H360 C370 0.950 . S
H361 C372 0.950 . S
H362 C374 0.950 . S
H363 C375 0.950 . S
C364 H356 0.950 . S
C364 C365 1.386 . S
C364 C366 1.391 . S
C365 C364 1.386 . S
C365 C369 1.393 . S
C366 H358 0.950 . S
C366 C364 1.391 . S
C366 C367 1.400 . S
C367 C366 1.400 . S
C367 C368 1.398 . S
C367 C373 1.491 . S
C368 H359 0.950 . S
C368 C367 1.398 . S
C368 C369 1.391 . S
C369 H357 0.950 . S
C369 C365 1.393 . S
C369 C368 1.391 . S
C370 H360 0.950 . S
C370 C371 1.386 . S
C370 C372 1.391 . S
C371 C370 1.386 . S
C371 C375 1.393 . S
C372 H361 0.950 . S
C372 C370 1.391 . S
C372 C373 1.400 . S
C373 C367 1.491 . S
C373 C372 1.400 . S
C373 C374 1.398 . S
C374 H362 0.950 . S
C374 C373 1.398 . S
C374 C375 1.391 . S
C375 H363 0.950 . S
C375 C371 1.393 . S
C375 C374 1.391 . S
H376 C384 0.950 . S
H377 C389 0.950 . S
H378 C386 0.950 . S
H379 C388 0.950 . S
H380 C390 0.950 . S
H381 C392 0.950 . S
H382 C394 0.950 . S
H383 C395 0.950 . S
C384 H376 0.950 . S
C384 C385 1.386 . S
C384 C386 1.391 . S
C385 C384 1.386 . S
C385 C389 1.393 . S
C386 H378 0.950 . S
C386 C384 1.391 . S
C386 C387 1.400 . S
C387 C386 1.400 . S
C387 C388 1.398 . S
C387 C393 1.491 . S
C388 H379 0.950 . S
C388 C387 1.398 . S
C388 C389 1.391 . S
C389 H377 0.950 . S
C389 C385 1.393 . S
C389 C388 1.391 . S
C390 H380 0.950 . S
C390 C391 1.386 1_545 S
C390 C392 1.391 . S
C391 C390 1.386 1_565 S
C391 C395 1.393 . S
C392 H381 0.950 . S
C392 C390 1.391 . S
C392 C393 1.400 1_545 S
C393 C387 1.491 . S
C393 C392 1.400 1_565 S
C393 C394 1.398 . S
C394 H382 0.950 . S
C394 C393 1.398 . S
C394 C395 1.391 . S
C395 H383 0.950 . S
C395 C391 1.393 . S
C395 C394 1.391 . S
H396 C404 0.950 . S
H397 C409 0.950 . S
H398 C406 0.958 . S
H399 C408 0.950 . S
H400 C410 0.950 . S
H401 C412 0.950 . S
H402 C414 0.950 . S
H403 C415 0.950 . S
C404 H396 0.950 . S
C404 C405 1.386 . S
C404 C406 1.391 . S
C405 C404 1.386 . S
C405 C409 1.393 . S
C406 H398 0.958 . S
C406 C404 1.391 . S
C406 C407 1.400 . S
C407 C406 1.400 . S
C407 C408 1.398 . S
C407 C413 1.491 . S
C408 H399 0.950 . S
C408 C407 1.398 . S
C408 C409 1.391 . S
C409 H397 0.950 . S
C409 C405 1.393 . S
C409 C408 1.391 . S
C410 H400 0.950 . S
C410 C411 1.386 1_545 S
C410 C412 1.391 . S
C411 C410 1.386 1_565 S
C411 C415 1.393 . S
C412 H401 0.950 . S
C412 C410 1.391 . S
C412 C413 1.400 . S
C413 C407 1.491 . S
C413 C412 1.400 . S
C413 C414 1.398 1_545 S
C414 H402 0.950 . S
C414 C413 1.398 1_565 S
C414 C415 1.391 . S
C415 H403 0.950 . S
C415 C411 1.393 . S
C415 C414 1.391 . S
H416 C424 0.950 . S
H417 C429 0.950 . S
H418 C426 0.950 . S
H419 C428 0.950 . S
H420 C430 0.950 . S
H421 C432 0.950 . S
H422 C434 0.950 . S
H423 C435 0.950 1_565 S
C424 H416 0.950 . S
C424 C425 1.386 . S
C424 C426 1.391 . S
C425 C424 1.386 . S
C425 C429 1.393 . S
C426 H418 0.950 . S
C426 C424 1.391 . S
C426 C427 1.400 . S
C427 C426 1.400 . S
C427 C428 1.398 . S
C427 C433 1.491 . S
C428 H419 0.950 . S
C428 C427 1.398 . S
C428 C429 1.391 . S
C429 H417 0.950 . S
C429 C425 1.393 . S
C429 C428 1.391 . S
C430 H420 0.950 . S
C430 C431 1.386 . S
C430 C432 1.391 . S
C431 C430 1.386 . S
C431 C435 1.393 . S
C432 H421 0.950 . S
C432 C430 1.391 . S
C432 C433 1.400 . S
C433 C427 1.491 . S
C433 C432 1.400 . S
C433 C434 1.398 . S
C434 H422 0.950 . S
C434 C433 1.398 . S
C434 C435 1.391 . S
C435 H423 0.950 1_545 S
C435 C431 1.393 . S
C435 C434 1.391 . S
H436 C444 0.950 . S
H437 C449 0.950 1_545 S
H438 C446 0.950 . S
H439 C448 0.950 . S
H440 C450 0.950 . S
H441 C452 0.950 . S
H442 C454 0.950 . S
H443 C455 0.950 . S
C444 H436 0.950 . S
C444 C445 1.386 . S
C444 C446 1.391 . S
C445 C444 1.386 . S
C445 C449 1.393 . S
C446 H438 0.950 . S
C446 C444 1.391 . S
C446 C447 1.400 . S
C447 C446 1.400 . S
C447 C448 1.398 . S
C447 C453 1.491 . S
C448 H439 0.950 . S
C448 C447 1.398 . S
C448 C449 1.391 . S
C449 H437 0.950 1_565 S
C449 C445 1.393 . S
C449 C448 1.391 . S
C450 H440 0.950 . S
C450 C451 1.386 . S
C450 C452 1.391 . S
C451 C450 1.386 . S
C451 C455 1.393 . S
C452 H441 0.950 . S
C452 C450 1.391 . S
C452 C453 1.400 . S
C453 C447 1.491 . S
C453 C452 1.400 . S
C453 C454 1.398 . S
C454 H442 0.950 . S
C454 C453 1.398 . S
C454 C455 1.391 . S
C455 H443 0.950 . S
C455 C451 1.393 . S
C455 C454 1.391 . S
H456 C464 0.950 . S
H457 C469 0.950 . S
H458 C466 0.950 . S
H459 C468 0.950 . S
H460 C470 0.950 . S
H461 C472 0.950 . S
H462 C474 0.950 . S
H463 C475 0.950 . S
C464 H456 0.950 . S
C464 C465 1.386 . S
C464 C466 1.391 . S
C465 C464 1.386 . S
C465 C469 1.393 . S
C466 H458 0.950 . S
C466 C464 1.391 . S
C466 C467 1.400 . S
C467 C466 1.400 . S
C467 C468 1.398 . S
C467 C473 1.491 . S
C468 H459 0.950 . S
C468 C467 1.398 . S
C468 C469 1.391 . S
C469 H457 0.950 . S
C469 C465 1.393 . S
C469 C468 1.391 . S
C470 H460 0.950 . S
C470 C471 1.386 . S
C470 C472 1.391 . S
C471 C470 1.386 . S
C471 C475 1.393 . S
C472 H461 0.950 . S
C472 C470 1.391 . S
C472 C473 1.400 . S
C473 C467 1.491 . S
C473 C472 1.400 . S
C473 C474 1.398 . S
C474 H462 0.950 . S
C474 C473 1.398 . S
C474 C475 1.391 . S
C475 H463 0.950 . S
C475 C471 1.393 . S
C475 C474 1.391 . S
H476 C484 0.950 . S
H477 C489 0.950 . S
H478 C486 0.950 . S
H479 C488 0.950 . S
H480 C490 0.950 . S
H481 C492 0.950 . S
H482 C494 0.950 . S
H483 C495 0.950 . S
C484 H476 0.950 . S
C484 C485 1.386 . S
C484 C486 1.391 . S
C485 C484 1.386 . S
C485 C489 1.393 . S
C486 H478 0.950 . S
C486 C484 1.391 . S
C486 C487 1.400 . S
C487 C486 1.400 . S
C487 C488 1.398 . S
C487 C493 1.491 . S
C488 H479 0.950 . S
C488 C487 1.398 . S
C488 C489 1.391 . S
C489 H477 0.950 . S
C489 C485 1.393 . S
C489 C488 1.391 . S
C490 H480 0.950 . S
C490 C491 1.386 . S
C490 C492 1.391 . S
C491 C490 1.386 . S
C491 C495 1.393 . S
C492 H481 0.950 . S
C492 C490 1.391 . S
C492 C493 1.400 . S
C493 C487 1.491 . S
C493 C492 1.400 . S
C493 C494 1.398 . S
C494 H482 0.950 . S
C494 C493 1.398 . S
C494 C495 1.391 . S
C495 H483 0.950 . S
C495 C491 1.393 . S
C495 C494 1.391 . S
H496 C504 0.950 . S
H497 C509 0.950 . S
H498 C506 0.950 . S
H499 C508 0.950 . S
H500 C510 0.950 . S
H501 C512 0.950 . S
H502 C514 0.950 . S
H503 C515 0.950 . S
C504 H496 0.950 . S
C504 C505 1.386 . S
C504 C506 1.391 . S
C505 C504 1.386 . S
C505 C509 1.393 . S
C506 H498 0.950 . S
C506 C504 1.391 . S
C506 C507 1.400 . S
C507 C506 1.400 . S
C507 C508 1.398 . S
C507 C513 1.491 . S
C508 H499 0.950 . S
C508 C507 1.398 . S
C508 C509 1.391 . S
C509 H497 0.950 . S
C509 C505 1.393 . S
C509 C508 1.391 . S
C510 H500 0.950 . S
C510 C511 1.386 . S
C510 C512 1.391 . S
C511 C510 1.386 . S
C511 C515 1.393 . S
C512 H501 0.950 . S
C512 C510 1.391 . S
C512 C513 1.400 . S
C513 C507 1.491 . S
C513 C512 1.400 . S
C513 C514 1.398 . S
C514 H502 0.950 . S
C514 C513 1.398 . S
C514 C515 1.391 . S
C515 H503 0.950 . S
C515 C511 1.393 . S
C515 C514 1.391 . S
H516 C524 0.950 . S
H517 C529 0.950 . S
H518 C526 0.950 . S
H519 C528 0.950 . S
H520 C530 0.950 . S
H521 C532 0.950 . S
H522 C534 0.950 . S
H523 C535 0.950 . S
C524 H516 0.950 . S
C524 C525 1.386 . S
C524 C526 1.391 . S
C525 C524 1.386 . S
C525 C529 1.393 . S
C526 H518 0.950 . S
C526 C524 1.391 . S
C526 C527 1.400 . S
C527 C526 1.400 . S
C527 C528 1.398 . S
C527 C533 1.491 . S
C528 H519 0.950 . S
C528 C527 1.398 . S
C528 C529 1.391 . S
C529 H517 0.950 . S
C529 C525 1.393 . S
C529 C528 1.391 . S
C530 H520 0.950 . S
C530 C531 1.386 . S
C530 C532 1.391 . S
C531 C530 1.386 . S
C531 C535 1.393 . S
C532 H521 0.950 . S
C532 C530 1.391 . S
C532 C533 1.400 . S
C533 C527 1.491 . S
C533 C532 1.400 . S
C533 C534 1.398 . S
C534 H522 0.950 . S
C534 C533 1.398 . S
C534 C535 1.391 . S
C535 H523 0.950 . S
C535 C531 1.393 . S
C535 C534 1.391 . S
H536 C544 0.950 . S
H537 C549 0.950 . S
H538 C546 0.950 1_545 S
H539 C548 0.950 . S
H540 C550 0.950 . S
H541 C552 0.950 . S
H542 C554 0.950 . S
H543 C555 0.950 . S
C544 H536 0.950 . S
C544 C545 1.386 1_545 S
C544 C546 1.391 1_545 S
C545 C544 1.386 1_565 S
C545 C549 1.393 . S
C546 H538 0.950 1_565 S
C546 C544 1.391 1_565 S
C546 C547 1.400 . S
C547 C546 1.400 . S
C547 C548 1.398 . S
C547 C553 1.491 . S
C548 H539 0.950 . S
C548 C547 1.398 . S
C548 C549 1.391 . S
C549 H537 0.950 . S
C549 C545 1.393 . S
C549 C548 1.391 . S
C550 H540 0.950 . S
C550 C551 1.386 . S
C550 C552 1.391 . S
C551 C550 1.386 . S
C551 C555 1.393 . S
C552 H541 0.950 . S
C552 C550 1.391 . S
C552 C553 1.400 . S
C553 C547 1.491 . S
C553 C552 1.400 . S
C553 C554 1.398 . S
C554 H542 0.950 . S
C554 C553 1.398 . S
C554 C555 1.391 . S
C555 H543 0.950 . S
C555 C551 1.393 . S
C555 C554 1.391 . S
H556 C564 0.950 . S
H557 C569 0.950 . S
H558 C566 0.950 . S
H559 C568 0.950 . S
H560 C570 0.950 . S
H561 C572 0.950 . S
H562 C574 0.950 . S
H563 C575 0.950 . S
C564 H556 0.950 . S
C564 C565 1.386 1_545 S
C564 C566 1.391 . S
C565 C564 1.386 1_565 S
C565 C569 1.393 . S
C566 H558 0.950 . S
C566 C564 1.391 . S
C566 C567 1.400 . S
C567 C566 1.400 . S
C567 C568 1.398 1_545 S
C567 C573 1.491 . S
C568 H559 0.950 . S
C568 C567 1.398 1_565 S
C568 C569 1.391 . S
C569 H557 0.950 . S
C569 C565 1.393 . S
C569 C568 1.391 . S
C570 H560 0.950 . S
C570 C571 1.386 . S
C570 C572 1.391 . S
C571 C570 1.386 . S
C571 C575 1.393 . S
C572 H561 0.950 . S
C572 C570 1.391 . S
C572 C573 1.400 . S
C573 C567 1.491 . S
C573 C572 1.400 . S
C573 C574 1.398 . S
C574 H562 0.950 . S
C574 C573 1.398 . S
C574 C575 1.391 . S
C575 H563 0.950 . S
C575 C571 1.393 . S
C575 C574 1.391 . S
H576 C584 0.949 1_556 S
H577 C589 0.950 . S
H578 C586 0.965 . S
H579 C588 0.950 . S
H580 C590 0.950 . S
H581 C592 0.950 . S
H582 C594 0.950 . S
H583 C595 0.950 . S
C584 H576 0.949 1_554 S
C584 C585 1.387 . S
C584 C586 1.380 1_554 S
C585 C584 1.387 . S
C585 C589 1.393 1_455 S
C586 H578 0.965 . S
C586 C584 1.380 1_556 S
C586 C587 1.399 1_556 S
C587 C586 1.399 1_554 S
C587 C588 1.398 1_455 S
C587 C593 1.498 . S
C588 H579 0.950 . S
C588 C587 1.398 1_655 S
C588 C589 1.391 . S
C589 H577 0.950 . S
C589 C585 1.393 1_655 S
C589 C588 1.391 . S
C590 H580 0.950 . S
C590 C591 1.386 1_654 S
C590 C592 1.391 . S
C591 C590 1.386 1_456 S
C591 C595 1.393 . S
C592 H581 0.950 . S
C592 C590 1.391 . S
C592 C593 1.402 1_655 S
C593 C587 1.498 . S
C593 C592 1.402 1_455 S
C593 C594 1.390 1_554 S
C594 H582 0.950 . S
C594 C593 1.390 1_556 S
C594 C595 1.391 . S
C595 H583 0.950 . S
C595 C591 1.393 . S
C595 C594 1.391 . S
H596 C604 0.950 . S
H597 C609 0.950 . S
H598 C606 0.950 . S
H599 C608 0.950 . S
H600 C610 0.950 . S
H601 C612 0.950 . S
H602 C614 0.950 . S
H603 C615 0.950 . S
C604 H596 0.950 . S
C604 C605 1.386 . S
C604 C606 1.391 . S
C605 C604 1.386 . S
C605 C609 1.393 . S
C606 H598 0.950 . S
C606 C604 1.391 . S
C606 C607 1.400 . S
C607 C606 1.400 . S
C607 C608 1.398 . S
C607 C613 1.491 . S
C608 H599 0.950 . S
C608 C607 1.398 . S
C608 C609 1.391 . S
C609 H597 0.950 . S
C609 C605 1.393 . S
C609 C608 1.391 . S
C610 H600 0.950 . S
C610 C611 1.386 . S
C610 C612 1.391 . S
C611 C610 1.386 . S
C611 C615 1.393 . S
C612 H601 0.950 . S
C612 C610 1.391 . S
C612 C613 1.400 . S
C613 C607 1.491 . S
C613 C612 1.400 . S
C613 C614 1.398 . S
C614 H602 0.950 . S
C614 C613 1.398 . S
C614 C615 1.391 . S
C615 H603 0.950 . S
C615 C611 1.393 . S
C615 C614 1.391 . S
H616 C624 0.950 . S
H617 C629 0.950 . S
H618 C626 0.950 . S
H619 C628 0.950 . S
H620 C630 0.950 . S
H621 C632 0.950 . S
H622 C634 0.950 . S
H623 C635 0.950 . S
C624 H616 0.950 . S
C624 C625 1.386 . S
C624 C626 1.391 . S
C625 C624 1.386 . S
C625 C629 1.393 . S
C626 H618 0.950 . S
C626 C624 1.391 . S
C626 C627 1.400 . S
C627 C626 1.400 . S
C627 C628 1.398 . S
C627 C633 1.491 . S
C628 H619 0.950 . S
C628 C627 1.398 . S
C628 C629 1.391 . S
C629 H617 0.950 . S
C629 C625 1.393 . S
C629 C628 1.391 . S
C630 H620 0.950 . S
C630 C631 1.386 . S
C630 C632 1.391 . S
C631 C630 1.386 . S
C631 C635 1.393 . S
C632 H621 0.950 . S
C632 C630 1.391 . S
C632 C633 1.400 . S
C633 C627 1.491 . S
C633 C632 1.400 . S
C633 C634 1.398 . S
C634 H622 0.950 . S
C634 C633 1.398 . S
C634 C635 1.391 . S
C635 H623 0.950 . S
C635 C631 1.393 . S
C635 C634 1.391 . S
H636 C644 0.950 1_655 S
H637 C649 0.950 . S
H638 C646 0.944 1_655 S
H639 C648 0.950 . S
H640 C650 0.950 . S
H641 C652 0.950 . S
H642 C654 0.950 . S
H643 C655 0.950 . S
C644 H636 0.950 1_455 S
C644 C645 1.386 . S
C644 C646 1.393 . S
C645 C644 1.386 . S
C645 C649 1.393 . S
C646 H638 0.944 1_455 S
C646 C644 1.393 . S
C646 C647 1.405 . S
C647 C646 1.405 . S
C647 C648 1.398 . S
C647 C653 1.491 1_565 S
C648 H639 0.950 . S
C648 C647 1.398 . S
C648 C649 1.391 . S
C649 H637 0.950 . S
C649 C645 1.393 . S
C649 C648 1.391 . S
C650 H640 0.950 . S
C650 C651 1.386 . S
C650 C652 1.391 . S
C651 C650 1.386 . S
C651 C655 1.393 1_455 S
C652 H641 0.950 . S
C652 C650 1.391 . S
C652 C653 1.400 . S
C653 C647 1.491 1_545 S
C653 C652 1.400 . S
C653 C654 1.398 1_455 S
C654 H642 0.950 . S
C654 C653 1.398 1_655 S
C654 C655 1.391 . S
C655 H643 0.950 . S
C655 C651 1.393 1_655 S
C655 C654 1.391 . S
H656 C664 0.950 . S
H657 C669 0.950 . S
H658 C666 0.950 . S
H659 C668 0.950 . S
H660 C670 0.950 . S
H661 C672 0.950 . S
H662 C674 0.950 . S
H663 C675 0.950 . S
C664 H656 0.950 . S
C664 C665 1.386 . S
C664 C666 1.391 . S
C665 C664 1.386 . S
C665 C669 1.393 . S
C666 H658 0.950 . S
C666 C664 1.391 . S
C666 C667 1.400 . S
C667 C666 1.400 . S
C667 C668 1.398 . S
C667 C673 1.491 . S
C668 H659 0.950 . S
C668 C667 1.398 . S
C668 C669 1.391 . S
C669 H657 0.950 . S
C669 C665 1.393 . S
C669 C668 1.391 . S
C670 H660 0.950 . S
C670 C671 1.386 . S
C670 C672 1.391 . S
C671 C670 1.386 . S
C671 C675 1.393 . S
C672 H661 0.950 . S
C672 C670 1.391 . S
C672 C673 1.400 . S
C673 C667 1.491 . S
C673 C672 1.400 . S
C673 C674 1.398 . S
C674 H662 0.950 . S
C674 C673 1.398 . S
C674 C675 1.391 . S
C675 H663 0.950 . S
C675 C671 1.393 . S
C675 C674 1.391 . S
H676 C684 0.950 . S
H677 C689 0.950 . S
H678 C686 0.950 . S
H679 C688 0.950 . S
H680 C690 0.950 . S
H681 C692 0.950 . S
H682 C694 0.950 . S
H683 C695 0.950 . S
C684 H676 0.950 . S
C684 C685 1.386 . S
C684 C686 1.391 . S
C685 C684 1.386 . S
C685 C689 1.393 . S
C686 H678 0.950 . S
C686 C684 1.391 . S
C686 C687 1.400 . S
C687 C686 1.400 . S
C687 C688 1.398 . S
C687 C693 1.491 . S
C688 H679 0.950 . S
C688 C687 1.398 . S
C688 C689 1.391 . S
C689 H677 0.950 . S
C689 C685 1.393 . S
C689 C688 1.391 . S
C690 H680 0.950 . S
C690 C691 1.386 . S
C690 C692 1.391 . S
C691 C690 1.386 . S
C691 C695 1.393 . S
C692 H681 0.950 . S
C692 C690 1.391 . S
C692 C693 1.400 . S
C693 C687 1.491 . S
C693 C692 1.400 . S
C693 C694 1.398 . S
C694 H682 0.950 . S
C694 C693 1.398 . S
C694 C695 1.391 . S
C695 H683 0.950 . S
C695 C691 1.393 . S
C695 C694 1.391 . S
H696 C704 0.950 . S
H697 C709 0.950 . S
H698 C706 0.950 . S
H699 C708 0.950 . S
H700 C710 0.950 . S
H701 C712 0.950 . S
H702 C714 0.950 . S
H703 C715 0.950 . S
C704 H696 0.950 . S
C704 C705 1.386 . S
C704 C706 1.391 . S
C705 C704 1.386 . S
C705 C709 1.393 . S
C706 H698 0.950 . S
C706 C704 1.391 . S
C706 C707 1.400 . S
C707 C706 1.400 . S
C707 C708 1.398 . S
C707 C713 1.491 . S
C708 H699 0.950 . S
C708 C707 1.398 . S
C708 C709 1.391 . S
C709 H697 0.950 . S
C709 C705 1.393 . S
C709 C708 1.391 . S
C710 H700 0.950 . S
C710 C711 1.386 . S
C710 C712 1.391 . S
C711 C710 1.386 . S
C711 C715 1.393 . S
C712 H701 0.950 . S
C712 C710 1.391 . S
C712 C713 1.400 . S
C713 C707 1.491 . S
C713 C712 1.400 . S
C713 C714 1.398 . S
C714 H702 0.950 . S
C714 C713 1.398 . S
C714 C715 1.391 . S
C715 H703 0.950 . S
C715 C711 1.393 . S
C715 C714 1.391 . S
H716 C724 0.950 . S
H717 C729 0.950 . S
H718 C726 0.950 . S
H719 C728 0.950 . S
H720 C730 0.950 . S
H721 C732 0.950 . S
H722 C734 0.950 . S
H723 C735 0.950 . S
C724 H716 0.950 . S
C724 C725 1.425 . S
C724 C726 1.391 . S
C725 C724 1.425 . S
C725 C729 1.342 1_556 S
C726 H718 0.950 . S
C726 C724 1.391 . S
C726 C727 1.367 1_556 S
C727 C726 1.367 1_554 S
C727 C728 1.423 . S
C727 C733 1.500 1_565 S
C728 H719 0.950 . S
C728 C727 1.423 . S
C728 C729 1.391 . S
C729 H717 0.950 . S
C729 C725 1.342 1_554 S
C729 C728 1.391 . S
C730 H720 0.950 . S
C730 C731 1.386 . S
C730 C732 1.391 . S
C731 C730 1.386 . S
C731 C735 1.393 1_554 S
C732 H721 0.950 . S
C732 C730 1.391 . S
C732 C733 1.400 . S
C733 C727 1.500 1_545 S
C733 C732 1.400 . S
C733 C734 1.398 1_554 S
C734 H722 0.950 . S
C734 C733 1.398 1_556 S
C734 C735 1.391 . S
C735 H723 0.950 . S
C735 C731 1.393 1_556 S
C735 C734 1.391 . S
H736 C744 0.950 . S
H737 C749 0.950 . S
H738 C746 0.950 . S
H739 C748 0.950 . S
H740 C750 0.950 . S
H741 C752 0.950 . S
H742 C754 0.950 . S
H743 C755 0.950 . S
C744 H736 0.950 . S
C744 C745 1.386 1_554 S
C744 C746 1.391 . S
C745 C744 1.386 1_556 S
C745 C749 1.393 . S
C746 H738 0.950 . S
C746 C744 1.391 . S
C746 C747 1.416 . S
C747 C746 1.416 . S
C747 C748 1.383 1_554 S
C747 C753 1.491 . S
C748 H739 0.950 . S
C748 C747 1.383 1_556 S
C748 C749 1.391 . S
C749 H737 0.950 . S
C749 C745 1.393 . S
C749 C748 1.391 . S
C750 H740 0.950 . S
C750 C751 1.386 1_556 S
C750 C752 1.391 . S
C751 C750 1.386 1_554 S
C751 C755 1.393 . S
C752 H741 0.950 . S
C752 C750 1.391 . S
C752 C753 1.400 1_556 S
C753 C747 1.491 . S
C753 C752 1.400 1_554 S
C753 C754 1.398 . S
C754 H742 0.950 . S
C754 C753 1.398 . S
C754 C755 1.391 . S
C755 H743 0.950 . S
C755 C751 1.393 . S
C755 C754 1.391 . S
H756 C764 0.950 . S
H757 C769 0.950 . S
H758 C766 0.950 . S
H759 C768 0.950 . S
H760 C770 0.950 . S
H761 C772 0.950 . S
H762 C774 0.950 . S
H763 C775 0.950 . S
C764 H756 0.950 . S
C764 C765 1.386 . S
C764 C766 1.391 . S
C765 C764 1.386 . S
C765 C769 1.393 1_556 S
C766 H758 0.950 . S
C766 C764 1.391 . S
C766 C767 1.395 1_556 S
C767 C766 1.395 1_554 S
C767 C768 1.403 . S
C767 C773 1.491 . S
C768 H759 0.950 . S
C768 C767 1.403 . S
C768 C769 1.391 . S
C769 H757 0.950 . S
C769 C765 1.393 1_554 S
C769 C768 1.391 . S
C770 H760 0.950 . S
C770 C771 1.386 . S
C770 C772 1.391 . S
C771 C770 1.386 . S
C771 C775 1.393 1_554 S
C772 H761 0.950 . S
C772 C770 1.391 . S
C772 C773 1.400 . S
C773 C767 1.491 . S
C773 C772 1.400 . S
C773 C774 1.398 1_554 S
C774 H762 0.950 . S
C774 C773 1.398 1_556 S
C774 C775 1.391 . S
C775 H763 0.950 . S
C775 C771 1.393 1_556 S
C775 C774 1.391 . S
H776 C784 0.950 . S
H777 C789 0.950 . S
H778 C786 0.950 . S
H779 C788 0.950 . S
H780 C790 0.950 . S
H781 C792 0.950 . S
H782 C794 0.950 1_455 S
H783 C795 0.950 . S
C784 H776 0.950 . S
C784 C785 1.386 . S
C784 C786 1.391 . S
C785 C784 1.386 . S
C785 C789 1.393 . S
C786 H778 0.950 . S
C786 C784 1.391 . S
C786 C787 1.400 . S
C787 C786 1.400 . S
C787 C788 1.398 . S
C787 C793 1.491 1_455 S
C788 H779 0.950 . S
C788 C787 1.398 . S
C788 C789 1.391 . S
C789 H777 0.950 . S
C789 C785 1.393 . S
C789 C788 1.391 . S
C790 H780 0.950 . S
C790 C791 1.386 . S
C790 C792 1.391 . S
C791 C790 1.386 . S
C791 C795 1.393 . S
C792 H781 0.950 . S
C792 C790 1.391 . S
C792 C793 1.400 . S
C793 C787 1.491 1_655 S
C793 C792 1.400 . S
C793 C794 1.398 . S
C794 H782 0.950 1_655 S
C794 C793 1.398 . S
C794 C795 1.391 . S
C795 H783 0.950 . S
C795 C791 1.393 . S
C795 C794 1.391 . S
H796 C804 0.950 . S
H797 C809 0.950 . S
H798 C806 0.950 . S
H799 C808 0.950 . S
H800 C810 0.950 . S
H801 C812 0.950 . S
H802 C814 0.950 . S
H803 C815 0.950 . S
C804 H796 0.950 . S
C804 C805 1.386 . S
C804 C806 1.391 . S
C805 C804 1.386 . S
C805 C809 1.393 . S
C806 H798 0.950 . S
C806 C804 1.391 . S
C806 C807 1.400 . S
C807 C806 1.400 . S
C807 C808 1.398 . S
C807 C813 1.491 . S
C808 H799 0.950 . S
C808 C807 1.398 . S
C808 C809 1.391 . S
C809 H797 0.950 . S
C809 C805 1.393 . S
C809 C808 1.391 . S
C810 H800 0.950 . S
C810 C811 1.386 . S
C810 C812 1.391 . S
C811 C810 1.386 . S
C811 C815 1.393 . S
C812 H801 0.950 . S
C812 C810 1.391 . S
C812 C813 1.400 . S
C813 C807 1.491 . S
C813 C812 1.400 . S
C813 C814 1.398 . S
C814 H802 0.950 . S
C814 C813 1.398 . S
C814 C815 1.391 . S
C815 H803 0.950 . S
C815 C811 1.393 . S
C815 C814 1.391 . S
H816 C824 0.950 . S
H817 C829 0.950 . S
H818 C826 0.950 . S
H819 C828 0.950 . S
H820 C830 0.950 . S
H821 C832 0.950 . S
H822 C834 0.950 . S
H823 C835 0.950 . S
C824 H816 0.950 . S
C824 C825 1.386 . S
C824 C826 1.391 . S
C825 C824 1.386 . S
C825 C829 1.393 . S
C826 H818 0.950 . S
C826 C824 1.391 . S
C826 C827 1.400 . S
C827 C826 1.400 . S
C827 C828 1.398 . S
C827 C833 1.491 . S
C828 H819 0.950 . S
C828 C827 1.398 . S
C828 C829 1.391 . S
C829 H817 0.950 . S
C829 C825 1.393 . S
C829 C828 1.391 . S
C830 H820 0.950 . S
C830 C831 1.386 . S
C830 C832 1.391 . S
C831 C830 1.386 . S
C831 C835 1.393 . S
C832 H821 0.950 . S
C832 C830 1.391 . S
C832 C833 1.400 . S
C833 C827 1.491 . S
C833 C832 1.400 . S
C833 C834 1.398 . S
C834 H822 0.950 . S
C834 C833 1.398 . S
C834 C835 1.391 . S
C835 H823 0.950 . S
C835 C831 1.393 . S
C835 C834 1.391 . S
H836 C844 0.950 . S
H837 C849 0.950 . S
H838 C846 0.950 1_565 S
H839 C848 0.950 . S
H840 C850 0.950 . S
H841 C852 0.950 1_545 S
H842 C854 0.950 . S
H843 C855 0.950 . S
C844 H836 0.950 . S
C844 C845 1.386 . S
C844 C846 1.391 . S
C845 C844 1.386 . S
C845 C849 1.393 . S
C846 H838 0.950 1_545 S
C846 C844 1.391 . S
C846 C847 1.400 . S
C847 C846 1.400 . S
C847 C848 1.398 . S
C847 C853 1.491 1_645 S
C848 H839 0.950 . S
C848 C847 1.398 . S
C848 C849 1.391 . S
C849 H837 0.950 . S
C849 C845 1.393 . S
C849 C848 1.391 . S
C850 H840 0.950 . S
C850 C851 1.386 . S
C850 C852 1.391 . S
C851 C850 1.386 . S
C851 C855 1.393 . S
C852 H841 0.950 1_565 S
C852 C850 1.391 . S
C852 C853 1.400 . S
C853 C847 1.491 1_465 S
C853 C852 1.400 . S
C853 C854 1.398 . S
C854 H842 0.950 . S
C854 C853 1.398 . S
C854 C855 1.391 . S
C855 H843 0.950 . S
C855 C851 1.393 . S
C855 C854 1.391 . S
H856 C864 0.950 . S
H857 C869 0.950 . S
H858 C866 0.950 . S
H859 C868 0.950 . S
H860 C870 0.950 . S
H861 C872 0.950 . S
H862 C874 0.950 . S
H863 C875 0.950 . S
C864 H856 0.950 . S
C864 C865 1.386 . S
C864 C866 1.391 . S
C865 C864 1.386 . S
C865 C869 1.393 . S
C866 H858 0.950 . S
C866 C864 1.391 . S
C866 C867 1.400 . S
C867 C866 1.400 . S
C867 C868 1.398 . S
C867 C873 1.491 . S
C868 H859 0.950 . S
C868 C867 1.398 . S
C868 C869 1.391 . S
C869 H857 0.950 . S
C869 C865 1.393 . S
C869 C868 1.391 . S
C870 H860 0.950 . S
C870 C871 1.386 . S
C870 C872 1.391 . S
C871 C870 1.386 . S
C871 C875 1.393 . S
C872 H861 0.950 . S
C872 C870 1.391 . S
C872 C873 1.400 . S
C873 C867 1.491 . S
C873 C872 1.400 . S
C873 C874 1.398 . S
C874 H862 0.950 . S
C874 C873 1.398 . S
C874 C875 1.391 . S
C875 H863 0.950 . S
C875 C871 1.393 . S
C875 C874 1.391 . S
H876 C884 0.950 . S
H877 C889 0.950 1_545 S
H878 C886 0.950 . S
H879 C888 0.950 . S
H880 C890 0.950 . S
H881 C892 0.950 . S
H882 C894 0.950 . S
H883 C895 0.950 1_565 S
C884 H876 0.950 . S
C884 C885 1.386 . S
C884 C886 1.391 . S
C885 C884 1.386 . S
C885 C889 1.393 . S
C886 H878 0.950 . S
C886 C884 1.391 . S
C886 C887 1.400 . S
C887 C886 1.400 . S
C887 C888 1.398 1_565 S
C887 C893 1.491 1_565 S
C888 H879 0.950 . S
C888 C887 1.398 1_545 S
C888 C889 1.391 1_545 S
C889 H877 0.950 1_565 S
C889 C885 1.393 . S
C889 C888 1.391 1_565 S
C890 H880 0.950 . S
C890 C891 1.386 . S
C890 C892 1.391 . S
C891 C890 1.386 . S
C891 C895 1.393 . S
C892 H881 0.950 . S
C892 C890 1.391 . S
C892 C893 1.400 . S
C893 C887 1.491 1_545 S
C893 C892 1.400 . S
C893 C894 1.398 1_545 S
C894 H882 0.950 . S
C894 C893 1.398 1_565 S
C894 C895 1.391 1_565 S
C895 H883 0.950 1_545 S
C895 C891 1.393 . S
C895 C894 1.391 1_545 S
C265 C18 2.179 . S
C271 C53 2.148 . S
C285 C21 1.835 . S
C291 C82 1.796 . S
C305 C113 2.154 . S
C311 C54 2.180 . S
C325 C81 1.841 . S
C331 C118 1.805 . S
C345 C114 2.175 . S
C351 C149 2.142 . S
C365 C178 1.803 . S
C371 C117 1.838 . S
C385 C150 2.170 . S
C391 C17 2.137 1_565 S
C405 C177 1.833 . S
C411 C22 1.790 . S
C425 C181 2.144 . S
C431 C210 2.169 . S
C445 C213 1.841 . S
C451 C146 1.807 . S
C465 C241 2.141 . S
C471 C182 2.167 . S
C485 C246 1.801 . S
C491 C145 1.839 . S
C505 C242 2.172 . S
C511 C85 2.139 . S
C525 C50 1.806 . S
C531 C245 1.840 . S
C545 C209 2.135 1_565 S
C551 C86 2.164 . S
C565 C214 1.807 . S
C571 C49 1.841 . S
C585 C19 0.956 1_454 S
C591 C23 0.963 1_556 S
C605 C51 0.953 . S
C611 C55 0.953 1_565 S
C625 C83 0.930 1_545 S
C631 C87 0.930 . S
C645 C119 0.936 . S
C651 C115 0.936 1_455 S
C665 C147 0.964 1_545 S
C671 C151 0.964 . S
C685 C179 0.935 . S
C691 C183 0.935 1_565 S
C705 C211 0.961 . S
C711 C215 0.961 . S
C725 C247 0.951 1_556 S
C731 C243 0.953 1_554 S
C745 C240 1.369 . S
C751 C20 1.369 . S
C765 C16 1.365 . S
C771 C244 1.365 . S
C785 C48 1.369 . S
C791 C84 1.369 . S
C805 C208 1.368 . S
C811 C116 1.368 . S
C825 C112 1.365 . S
C831 C212 1.365 . S
C845 C180 1.368 . S
C851 C144 1.368 . S
C865 C176 1.369 . S
C871 C148 1.369 . S
C885 C80 1.365 . S
C891 C52 1.365 . S
