# Generated by pormake.
# Topology lcy-e, (6)-cn, num edge types: 1
# Building blocks:
#     Node 0, Type 0, BuildingBlock: KUMJIN_clean_sbu_1, # of connection points: 6
#     Node 1, Type 0, BuildingBlock: KUMJIN_clean_sbu_1, # of connection points: 6
#     Node 2, Type 0, BuildingBlock: KUMJIN_clean_sbu_1, # of connection points: 6
#     Node 3, Type 0, BuildingBlock: KUMJIN_clean_sbu_1, # of connection points: 6
#     Node 4, Type 0, BuildingBlock: KUMJIN_clean_sbu_1, # of connection points: 6
#     Node 5, Type 0, BuildingBlock: KUMJIN_clean_sbu_1, # of connection points: 6
#     Node 6, Type 0, BuildingBlock: KUMJIN_clean_sbu_1, # of connection points: 6
#     Node 7, Type 0, BuildingBlock: KUMJIN_clean_sbu_1, # of connection points: 6
#     Node 8, Type 0, BuildingBlock: KUMJIN_clean_sbu_1, # of connection points: 6
#     Node 9, Type 0, BuildingBlock: KUMJIN_clean_sbu_1, # of connection points: 6
#     Node 10, Type 0, BuildingBlock: KUMJIN_clean_sbu_1, # of connection points: 6
#     Node 11, Type 0, BuildingBlock: KUMJIN_clean_sbu_1, # of connection points: 6
#     Edge 12, Type (0, 0), BuildingBlock: XIVTED_clean_linker_0, # of connection points: 2
#     Edge 13, Type (0, 0), BuildingBlock: XIVTED_clean_linker_0, # of connection points: 2
#     Edge 14, Type (0, 0), BuildingBlock: XIVTED_clean_linker_0, # of connection points: 2
#     Edge 15, Type (0, 0), BuildingBlock: XIVTED_clean_linker_0, # of connection points: 2
#     Edge 16, Type (0, 0), BuildingBlock: XIVTED_clean_linker_0, # of connection points: 2
#     Edge 17, Type (0, 0), BuildingBlock: XIVTED_clean_linker_0, # of connection points: 2
#     Edge 18, Type (0, 0), BuildingBlock: XIVTED_clean_linker_0, # of connection points: 2
#     Edge 19, Type (0, 0), BuildingBlock: XIVTED_clean_linker_0, # of connection points: 2
#     Edge 20, Type (0, 0), BuildingBlock: XIVTED_clean_linker_0, # of connection points: 2
#     Edge 21, Type (0, 0), BuildingBlock: XIVTED_clean_linker_0, # of connection points: 2
#     Edge 22, Type (0, 0), BuildingBlock: XIVTED_clean_linker_0, # of connection points: 2
#     Edge 23, Type (0, 0), BuildingBlock: XIVTED_clean_linker_0, # of connection points: 2
#     Edge 24, Type (0, 0), BuildingBlock: XIVTED_clean_linker_0, # of connection points: 2
#     Edge 25, Type (0, 0), BuildingBlock: XIVTED_clean_linker_0, # of connection points: 2
#     Edge 26, Type (0, 0), BuildingBlock: XIVTED_clean_linker_0, # of connection points: 2
#     Edge 27, Type (0, 0), BuildingBlock: XIVTED_clean_linker_0, # of connection points: 2
#     Edge 28, Type (0, 0), BuildingBlock: XIVTED_clean_linker_0, # of connection points: 2
#     Edge 29, Type (0, 0), BuildingBlock: XIVTED_clean_linker_0, # of connection points: 2
#     Edge 30, Type (0, 0), BuildingBlock: XIVTED_clean_linker_0, # of connection points: 2
#     Edge 31, Type (0, 0), BuildingBlock: XIVTED_clean_linker_0, # of connection points: 2
#     Edge 32, Type (0, 0), BuildingBlock: XIVTED_clean_linker_0, # of connection points: 2
#     Edge 33, Type (0, 0), BuildingBlock: XIVTED_clean_linker_0, # of connection points: 2
#     Edge 34, Type (0, 0), BuildingBlock: XIVTED_clean_linker_0, # of connection points: 2
#     Edge 35, Type (0, 0), BuildingBlock: XIVTED_clean_linker_0, # of connection points: 2
#     Edge 36, Type (0, 0), BuildingBlock: XIVTED_clean_linker_0, # of connection points: 2
#     Edge 37, Type (0, 0), BuildingBlock: XIVTED_clean_linker_0, # of connection points: 2
#     Edge 38, Type (0, 0), BuildingBlock: XIVTED_clean_linker_0, # of connection points: 2
#     Edge 39, Type (0, 0), BuildingBlock: XIVTED_clean_linker_0, # of connection points: 2
#     Edge 40, Type (0, 0), BuildingBlock: XIVTED_clean_linker_0, # of connection points: 2
#     Edge 41, Type (0, 0), BuildingBlock: XIVTED_clean_linker_0, # of connection points: 2
#     Edge 42, Type (0, 0), BuildingBlock: XIVTED_clean_linker_0, # of connection points: 2
#     Edge 43, Type (0, 0), BuildingBlock: XIVTED_clean_linker_0, # of connection points: 2
#     Edge 44, Type (0, 0), BuildingBlock: XIVTED_clean_linker_0, # of connection points: 2
#     Edge 45, Type (0, 0), BuildingBlock: XIVTED_clean_linker_0, # of connection points: 2
#     Edge 46, Type (0, 0), BuildingBlock: XIVTED_clean_linker_0, # of connection points: 2
#     Edge 47, Type (0, 0), BuildingBlock: XIVTED_clean_linker_0, # of connection points: 2
# Relax obj value: 0.092
# Max RMSD: 0.241
# Mean RMSD: 0.240
data_MOF--net-lcy-e--node1-KUMJIN_clean_sbu_1--edge1-XIVTED_clean_linker_0
_symmetry_space_group_name_H-M    P1
_symmetry_Int_Tables_number       1
_symmetry_cell_setting            triclinic
loop_
_symmetry_equiv_pos_as_xyz
'x, y, z'
_cell_length_a     44.349267
_cell_length_b     44.136127
_cell_length_c     44.386462
_cell_angle_alpha  89.931308
_cell_angle_beta   90.111553
_cell_angle_gamma 89.796517
loop_
_atom_site_label
_atom_site_type_symbol
_atom_site_fract_x
_atom_site_fract_y
_atom_site_fract_z
_atom_type_partial_charge
Eu0 Eu 0.14849 0.20495 0.5199 0.0
C1 C 0.05594 0.30154 0.46069 0.0
N2 N 0.07148 0.27796 0.44835 0.0
C3 C 0.02881 0.26547 0.41756 0.0
C4 C 0.0254 0.30663 0.45322 0.0
C5 C 0.05904 0.26134 0.42558 0.0
C6 C 0.01169 0.28769 0.432 0.0
C7 C 0.0562 0.34815 0.48993 0.0
C8 C 0.07132 0.32254 0.47839 0.0
C9 C 0.0253 0.35204 0.48418 0.0
C10 C 0.00998 0.33141 0.46577 0.0
Eu11 Eu 0.12261 0.27448 0.46269 0.0
N12 N 0.10139 0.31867 0.48319 0.0
C13 C 0.07283 0.36965 0.50609 0.0
C14 C 0.11802 0.34031 0.49736 0.0
C15 C 0.10396 0.36593 0.50943 0.0
H16 H 0.07235 0.24486 0.41343 0.0
H17 H 0.11715 0.38283 0.52113 0.0
H18 H 0.20551 0.24412 0.55605 0.0
H19 H 0.15684 0.10015 0.45628 0.0
H20 H 0.14208 0.33782 0.49908 0.0
H21 H 0.06201 0.38963 0.5153 0.0
H22 H 0.13093 0.14176 0.48349 0.0
H23 H 0.01882 0.25166 0.40009 0.0
H24 H 0.01327 0.37149 0.49301 0.0
H25 H 0.98643 0.33543 0.46053 0.0
H26 H 0.26028 0.24798 0.55302 0.0
H27 H 0.98834 0.29099 0.42555 0.0
H28 H 0.21243 0.10057 0.45152 0.0
N29 N 0.20191 0.21008 0.52191 0.0
C30 C 0.21758 0.18873 0.50612 0.0
C31 C 0.24853 0.23164 0.53918 0.0
C32 C 0.2494 0.1892 0.50507 0.0
C33 C 0.2171 0.22994 0.54005 0.0
C34 C 0.26473 0.2116 0.52113 0.0
N35 N 0.17137 0.1654 0.49292 0.0
C36 C 0.15516 0.14197 0.48122 0.0
C37 C 0.21768 0.14223 0.47669 0.0
C38 C 0.20197 0.16541 0.49196 0.0
C39 C 0.20116 0.11872 0.46349 0.0
C40 C 0.16977 0.11845 0.46601 0.0
H41 H 0.28913 0.21275 0.52082 0.0
H42 H 0.28942 0.16713 0.48754 0.0
H43 H 0.26165 0.126 0.46279 0.0
O44 O 0.12707 0.16482 0.53926 0.0
O45 O 0.1558 0.20325 0.46893 0.0
O46 O 0.16831 0.25208 0.46155 0.0
O47 O 0.1625 0.18703 0.56375 0.0
O48 O 0.10157 0.20045 0.50003 0.0
O49 O 0.10341 0.22711 0.45484 0.0
O50 O 0.1395 0.31449 0.43915 0.0
O51 O 0.10206 0.27843 0.51017 0.0
O52 O 0.11183 0.23475 0.53882 0.0
O53 O 0.12769 0.2746 0.41368 0.0
O54 O 0.16561 0.27616 0.48993 0.0
O55 O 0.15835 0.25364 0.53574 0.0
C56 C 0.17177 0.22359 0.45463 0.0
C57 C 0.12495 0.16159 0.59211 0.0
C58 C 0.09878 0.12798 0.62735 0.0
C59 C 0.0914 0.15347 0.64496 0.0
C60 C 0.11688 0.18661 0.60983 0.0
C61 C 0.10029 0.18247 0.63616 0.0
C62 C 0.1158 0.13234 0.60086 0.0
C63 C 0.09005 0.20838 0.4738 0.0
C64 C 0.14239 0.16563 0.56417 0.0
C65 C 0.26503 0.16683 0.48885 0.0
C66 C 0.24923 0.14333 0.47485 0.0
C67 C 0.09821 0.26094 0.53417 0.0
C68 C 0.12391 0.32187 0.38876 0.0
C69 C 0.12906 0.34948 0.34125 0.0
C70 C 0.09835 0.35738 0.34293 0.0
C71 C 0.09345 0.33029 0.38997 0.0
C72 C 0.14184 0.33179 0.36451 0.0
C73 C 0.08077 0.34792 0.36716 0.0
C74 C 0.16663 0.2772 0.51936 0.0
C75 C 0.13708 0.30255 0.41245 0.0
H76 H 0.07895 0.15103 0.66577 0.0
H77 H 0.12341 0.20932 0.60333 0.0
H78 H 0.09431 0.20185 0.64986 0.0
H79 H 0.12154 0.11315 0.58675 0.0
H80 H 0.08796 0.37122 0.32558 0.0
H81 H 0.07944 0.32331 0.4085 0.0
H82 H 0.16542 0.3253 0.36346 0.0
H83 H 0.05721 0.35427 0.36825 0.0
Eu84 Eu 0.05541 0.89736 0.76902 0.0
C85 C 0.95392 0.80783 0.72318 0.0
N86 N 0.97868 0.81952 0.70951 0.0
C87 C 0.99115 0.7707 0.68944 0.0
C88 C 0.94766 0.77657 0.72165 0.0
C89 C 0.99638 0.80181 0.69164 0.0
C90 C 0.96695 0.75791 0.70491 0.0
C91 C 0.90827 0.81593 0.7522 0.0
C92 C 0.93431 0.82735 0.73811 0.0
C93 C 0.90252 0.78466 0.75157 0.0
C94 C 0.92211 0.76505 0.73627 0.0
Eu95 Eu 0.98578 0.8721 0.71508 0.0
N96 N 0.94039 0.85754 0.73831 0.0
C97 C 0.8885 0.83637 0.76608 0.0
C98 C 0.9204 0.87768 0.75024 0.0
C99 C 0.89441 0.86741 0.76476 0.0
H100 H 0.0137 0.81176 0.67801 0.0
H101 H 0.87878 0.88346 0.7746 0.0
H102 H 0.02448 0.95604 0.80911 0.0
H103 H 0.15349 0.89692 0.69593 0.0
H104 H 0.92411 0.90167 0.74801 0.0
H105 H 0.86826 0.82848 0.77719 0.0
H106 H 0.11157 0.87443 0.72524 0.0
H107 H 0.00547 0.75672 0.67541 0.0
H108 H 0.88268 0.77546 0.76241 0.0
H109 H 0.91705 0.74107 0.73549 0.0
H110 H 0.02728 0.01143 0.80982 0.0
H111 H 0.96282 0.73381 0.70304 0.0
H112 H 0.15986 0.95262 0.69465 0.0
N113 N 0.05698 0.95083 0.77401 0.0
C114 C 0.07865 0.96493 0.75747 0.0
C115 C 0.04155 0.99866 0.79465 0.0
C116 C 0.08181 0.99672 0.75819 0.0
C117 C 0.03956 0.96709 0.79361 0.0
C118 C 0.06245 0.01359 0.77656 0.0
N119 N 0.09435 0.91705 0.73923 0.0
C120 C 0.1143 0.89875 0.7245 0.0
C121 C 0.12176 0.96133 0.72389 0.0
C122 C 0.09834 0.94753 0.74028 0.0
C123 C 0.14158 0.94285 0.70754 0.0
C124 C 0.138 0.9114 0.7081 0.0
H125 H 0.06411 0.03805 0.77764 0.0
H126 H 0.10703 0.03505 0.74118 0.0
H127 H 0.14212 1.00405 0.71132 0.0
O128 O 0.08998 0.86697 0.78746 0.0
O129 O 0.05315 0.90867 0.71905 0.0
O130 O 1.00378 0.91998 0.71368 0.0
O131 O 0.08132 0.90983 0.80907 0.0
O132 O 0.05637 0.85005 0.74872 0.0
O133 O 0.03323 0.85712 0.70279 0.0
O134 O 0.94632 0.88297 0.6871 0.0
O135 O 0.99276 0.84391 0.75887 0.0
O136 O 0.01725 0.875 0.79331 0.0
O137 O 0.98933 0.87385 0.66608 0.0
O138 O 0.97909 0.91525 0.74186 0.0
O139 O 0.00797 0.91184 0.78554 0.0
C140 C 0.03198 0.92615 0.70806 0.0
C141 C 0.10378 0.87112 0.83885 0.0
C142 C 0.14055 0.85049 0.87452 0.0
C143 C 0.11728 0.8459 0.89537 0.0
C144 C 0.08075 0.86621 0.85988 0.0
C145 C 0.08756 0.85368 0.88804 0.0
C146 C 0.1337 0.86312 0.8462 0.0
C147 C 0.05278 0.84292 0.72019 0.0
C148 C 0.09731 0.88504 0.80938 0.0
C149 C 0.10449 0.01065 0.74107 0.0
C150 C 0.12452 0.99299 0.72412 0.0
C151 C 0.99966 0.85194 0.78685 0.0
C152 C 0.94555 0.86686 0.63598 0.0
C153 C 0.91473 0.87202 0.59016 0.0
C154 C 0.91961 0.84093 0.58456 0.0
C155 C 0.94925 0.83594 0.63005 0.0
C156 C 0.92809 0.88486 0.61613 0.0
C157 C 0.93641 0.82312 0.60445 0.0
C158 C 0.98332 0.92038 0.77073 0.0
C159 C 0.96103 0.88094 0.66182 0.0
H160 H 0.12215 0.83628 0.91732 0.0
H161 H 0.05764 0.87221 0.85459 0.0
H162 H 0.06975 0.85006 0.90427 0.0
H163 H 0.15161 0.86687 0.83004 0.0
H164 H 0.91088 0.83022 0.56446 0.0
H165 H 0.96251 0.82177 0.64487 0.0
H166 H 0.92502 0.90872 0.62101 0.0
H167 H 0.93981 0.7993 0.59977 0.0
Eu168 Eu 0.39895 0.7384 0.95403 0.0
C169 C 0.30694 0.78717 0.05215 0.0
N170 N 0.31976 0.80185 0.02853 0.0
C171 C 0.27236 0.82493 0.01617 0.0
C172 C 0.27573 0.78956 0.05765 0.0
C173 C 0.30341 0.82192 0.01177 0.0
C174 C 0.25833 0.80823 0.03887 0.0
C175 C 0.31281 0.75589 0.09682 0.0
C176 C 0.32533 0.77082 0.07174 0.0
C177 C 0.28153 0.75714 0.10162 0.0
C178 C 0.26306 0.77401 0.08215 0.0
Eu179 Eu 0.37197 0.79417 0.02218 0.0
N180 N 0.35554 0.77001 0.06654 0.0
C181 C 0.3322 0.74059 0.11663 0.0
C182 C 0.37465 0.75683 0.08672 0.0
C183 C 0.36331 0.74144 0.11178 0.0
H184 H 0.31444 0.83629 0.9956 0.0
H185 H 0.37858 0.73058 0.12752 0.0
H186 H 0.45769 0.69915 0.9855 0.0
H187 H 0.39731 0.80529 0.85131 0.0
H188 H 0.39859 0.75888 0.08391 0.0
H189 H 0.32347 0.7288 0.13616 0.0
H190 H 0.37544 0.77801 0.89503 0.0
H191 H 0.25937 0.84048 1.00238 0.0
H192 H 0.27149 0.74566 0.12069 0.0
H193 H 0.23907 0.77538 0.08657 0.0
H194 H 0.51283 0.69847 0.9825 0.0
H195 H 0.23429 0.81076 0.04241 0.0
H196 H 0.45275 0.80807 0.84548 0.0
N197 N 0.45224 0.73415 0.95261 0.0
C198 C 0.46608 0.75036 0.93055 0.0
C199 C 0.5 0.71358 0.96811 0.0
C200 C 0.4977 0.74956 0.92718 0.0
C201 C 0.46859 0.71464 0.97022 0.0
C202 C 0.51468 0.73148 0.94682 0.0
N203 N 0.41814 0.76671 0.91366 0.0
C204 C 0.39965 0.7794 0.89246 0.0
C205 C 0.46196 0.78169 0.88566 0.0
C206 C 0.44851 0.76645 0.91008 0.0
C207 C 0.44326 0.79614 0.86456 0.0
C208 C 0.41195 0.79468 0.8678 0.0
H209 H 0.53901 0.73025 0.94495 0.0
H210 H 0.53557 0.76567 0.90093 0.0
H211 H 0.50425 0.79358 0.86445 0.0
O212 O 0.3685 0.71825 0.92085 0.0
O213 O 0.40585 0.78917 0.95305 0.0
O214 O 0.41859 0.79799 1.00149 0.0
O215 O 0.41156 0.69725 0.92948 0.0
O216 O 0.35076 0.75638 0.95385 0.0
O217 O 0.35481 0.80397 0.97476 0.0
O218 O 0.38436 0.82135 0.06148 0.0
O219 O 0.34658 0.74814 0.01759 0.0
O220 O 0.37937 0.71477 0.99371 0.0
O221 O 0.37162 0.84377 0.02 0.0
O222 O 0.41655 0.76976 0.02909 0.0
O223 O 0.41473 0.72473 1.0022 0.0
C224 C 0.42273 0.80299 0.9728 0.0
C225 C 0.37298 0.66631 0.90879 0.0
C226 C 0.35051 0.62982 0.87396 0.0
C227 C 0.34506 0.61037 0.89843 0.0
C228 C 0.36741 0.64654 0.93286 0.0
C229 C 0.35364 0.61863 0.92761 0.0
C230 C 0.36477 0.65777 0.8793 0.0
C231 C 0.3412 0.78449 0.95688 0.0
C232 C 0.38668 0.69617 0.91393 0.0
C233 C 0.5113 0.76589 0.9037 0.0
C234 C 0.49347 0.78175 0.88289 0.0
C235 C 0.35555 0.72035 0.01034 0.0
C236 C 0.36739 0.87228 0.06539 0.0
C237 C 0.37383 0.91916 0.09421 0.0
C238 C 0.34277 0.91932 0.10016 0.0
C239 C 0.33645 0.87294 0.07168 0.0
C240 C 0.3861 0.89559 0.0766 0.0
C241 C 0.32423 0.89646 0.08883 0.0
C242 C 0.42292 0.7408 0.02618 0.0
C243 C 0.38067 0.84724 0.0478 0.0
H244 H 0.33429 0.58866 0.89493 0.0
H245 H 0.37361 0.65276 0.95563 0.0
H246 H 0.34941 0.60341 0.94625 0.0
H247 H 0.36885 0.67313 0.86067 0.0
H248 H 0.33288 0.93713 0.11376 0.0
H249 H 0.32179 0.8552 0.06358 0.0
H250 H 0.41012 0.89507 0.07214 0.0
H251 H 0.30032 0.89681 0.09363 0.0
Eu252 Eu 0.45976 0.11665 0.27365 0.0
C253 C 0.54298 0.21196 0.21364 0.0
N254 N 0.52025 0.19583 0.20081 0.0
C255 C 0.50203 0.24069 0.17612 0.0
C256 C 0.5452 0.24354 0.20923 0.0
C257 C 0.50131 0.20933 0.18054 0.0
C258 C 0.52375 0.25798 0.19098 0.0
C259 C 0.59066 0.21225 0.24075 0.0
C260 C 0.56565 0.19654 0.22902 0.0
C261 C 0.59209 0.24387 0.23771 0.0
C262 C 0.56945 0.25947 0.22195 0.0
Eu263 Eu 0.52077 0.14304 0.21047 0.0
N264 N 0.56397 0.16588 0.23127 0.0
C265 C 0.61396 0.19557 0.25432 0.0
C266 C 0.58774 0.14935 0.24206 0.0
C267 C 0.61269 0.16394 0.25457 0.0
H268 H 0.48587 0.19585 0.16741 0.0
H269 H 0.631 0.15081 0.26416 0.0
H270 H 0.48957 0.057 0.30985 0.0
H271 H 0.36339 0.12344 0.19628 0.0
H272 H 0.58696 0.12495 0.24157 0.0
H273 H 0.63347 0.20684 0.26375 0.0
H274 H 0.40534 0.14369 0.22611 0.0
H275 H 0.48627 0.2514 0.16077 0.0
H276 H 0.61107 0.25636 0.24669 0.0
H277 H 0.5714 0.28375 0.21892 0.0
H278 H 0.47956 1.00221 0.31535 0.0
H279 H 0.52464 0.28219 0.18707 0.0
H280 H 0.35103 0.06895 0.19885 0.0
N281 N 0.45304 0.06432 0.27964 0.0
C282 C 0.4289 0.05227 0.26507 0.0
C283 C 0.46525 0.01601 0.30106 0.0
C284 C 0.42237 0.02112 0.26764 0.0
C285 C 0.47099 0.04696 0.29773 0.0
C286 C 0.44087 1.00302 0.28593 0.0
N287 N 0.4185 0.10086 0.24383 0.0
C288 C 0.40117 0.11975 0.22666 0.0
C289 C 0.387 0.05851 0.23026 0.0
C290 C 0.41137 0.07091 0.24651 0.0
C291 C 0.36991 0.07763 0.21171 0.0
C292 C 0.37691 0.10838 0.21007 0.0
H293 H 0.43657 0.979 0.28846 0.0
H294 H 0.39271 0.98501 0.25322 0.0
H295 H 0.3618 0.01767 0.22053 0.0
O296 O 0.41769 0.12882 0.29674 0.0
O297 O 0.47438 0.08538 0.23554 0.0
O298 O 0.47966 0.11643 0.19467 0.0
O299 O 0.45612 0.11101 0.32252 0.0
O300 O 0.45232 0.16261 0.25209 0.0
O301 O 0.47169 0.15695 0.20438 0.0
O302 O 0.5465 0.11005 0.18377 0.0
O303 O 0.53004 0.15573 0.25973 0.0
O304 O 0.48333 0.16165 0.28111 0.0
O305 O 0.54189 0.156 0.16819 0.0
O306 O 0.53032 0.09978 0.23698 0.0
O307 O 0.50887 0.10413 0.28473 0.0
C308 C 0.47229 0.09008 0.20638 0.0
C309 C 0.41078 0.12425 0.3512 0.0
C310 C 0.36735 0.14357 0.37947 0.0
C311 C 0.38114 0.13387 0.40627 0.0
C312 C 0.42372 0.11437 0.37841 0.0
C313 C 0.40897 0.11916 0.40568 0.0
C314 C 0.38211 0.13854 0.35175 0.0
C315 C 0.45581 0.17214 0.2243 0.0
C316 C 0.42853 0.12151 0.32307 0.0
C317 C 0.398 0.0089 0.25157 0.0
C318 C 0.38043 0.02751 0.23291 0.0
C319 C 0.51244 0.16672 0.28088 0.0
C320 C 0.54803 0.11889 0.1311 0.0
C321 C 0.56976 0.10238 0.08354 0.0
C322 C 0.54107 0.1036 0.07025 0.0
C323 C 0.51941 0.11989 0.11758 0.0
C324 C 0.57322 0.11005 0.11403 0.0
C325 C 0.51601 0.11225 0.08724 0.0
C326 C 0.5308 0.09509 0.26639 0.0
C327 C 0.55231 0.12919 0.16223 0.0
H328 H 0.37025 0.13767 0.42778 0.0
H329 H 0.4456 0.10339 0.37872 0.0
H330 H 0.41934 0.11176 0.42653 0.0
H331 H 0.3718 0.14651 0.33104 0.0
H332 H 0.53812 0.09791 0.04668 0.0
H333 H 0.49984 0.12702 0.13036 0.0
H334 H 0.59545 0.10961 0.12426 0.0
H335 H 0.49396 0.11326 0.07679 0.0
Eu336 Eu 0.64183 0.30253 0.48829 0.0
C337 C 0.55291 0.20633 0.54582 0.0
N338 N 0.5672 0.23009 0.55904 0.0
C339 C 0.52193 0.2435 0.58528 0.0
C340 C 0.52187 0.20144 0.55048 0.0
C341 C 0.55277 0.24721 0.58014 0.0
C342 C 0.50624 0.22091 0.56989 0.0
C343 C 0.55572 0.16052 0.51562 0.0
C344 C 0.56973 0.18577 0.52895 0.0
C345 C 0.52453 0.15642 0.51905 0.0
C346 C 0.50767 0.17677 0.5365 0.0
Eu347 Eu 0.6189 0.2349 0.54778 0.0
N348 N 0.59987 0.19046 0.52569 0.0
C349 C 0.5736 0.13989 0.49961 0.0
C350 C 0.61762 0.16972 0.51153 0.0
C351 C 0.60476 0.14427 0.49797 0.0
H352 H 0.56519 0.26322 0.59357 0.0
H353 H 0.61887 0.12805 0.4863 0.0
H354 H 0.69787 0.27171 0.44564 0.0
H355 H 0.64372 0.40363 0.5583 0.0
H356 H 0.64165 0.17263 0.51108 0.0
H357 H 0.56368 0.12019 0.48902 0.0
H358 H 0.62025 0.36087 0.53068 0.0
H359 H 0.51041 0.25771 0.60149 0.0
H360 H 0.51332 0.13724 0.5088 0.0
H361 H 0.48377 0.17286 0.53958 0.0
H362 H 0.75272 0.27635 0.44045 0.0
H363 H 0.48239 0.21789 0.57411 0.0
H364 H 0.69917 0.40982 0.55767 0.0
N365 N 0.69454 0.30468 0.48064 0.0
C366 C 0.7091 0.32704 0.49592 0.0
C367 C 0.74081 0.29041 0.45649 0.0
C368 C 0.74048 0.33111 0.49279 0.0
C369 C 0.70966 0.28739 0.46005 0.0
C370 C 0.75636 0.31207 0.47322 0.0
N371 N 0.66221 0.34287 0.51607 0.0
C372 C 0.64449 0.36359 0.53058 0.0
C373 C 0.70677 0.37081 0.52907 0.0
C374 C 0.69247 0.3468 0.51385 0.0
C375 C 0.689 0.39108 0.54568 0.0
C376 C 0.65768 0.38767 0.54611 0.0
H377 H 0.78046 0.31453 0.47018 0.0
H378 H 0.77904 0.35772 0.50671 0.0
H379 H 0.74954 0.39239 0.53851 0.0
O380 O 0.61104 0.33706 0.47038 0.0
O381 O 0.65178 0.30382 0.53853 0.0
O382 O 0.66552 0.25575 0.54983 0.0
O383 O 0.65189 0.3266 0.44637 0.0
O384 O 0.59477 0.30151 0.50833 0.0
O385 O 0.60139 0.28282 0.55644 0.0
O386 O 0.63444 0.19498 0.57261 0.0
O387 O 0.59361 0.23508 0.50216 0.0
O388 O 0.61814 0.2642 0.46549 0.0
O389 O 0.6209 0.23509 0.59709 0.0
O390 O 0.66212 0.23046 0.52116 0.0
O391 O 0.65733 0.25409 0.47492 0.0
C392 C 0.67035 0.28485 0.55146 0.0
C393 C 0.61147 0.34783 0.41816 0.0
C394 C 0.588 0.38272 0.38193 0.0
C395 C 0.58133 0.35772 0.36342 0.0
C396 C 0.60429 0.32333 0.39947 0.0
C397 C 0.5894 0.32835 0.37217 0.0
C398 C 0.60334 0.37747 0.40935 0.0
C399 C 0.5866 0.2997 0.53676 0.0
C400 C 0.62746 0.34301 0.4469 0.0
C401 C 0.75492 0.35444 0.50869 0.0
C402 C 0.73813 0.37421 0.52679 0.0
C403 C 0.59742 0.24487 0.4742 0.0
C404 C 0.61792 0.18786 0.62276 0.0
C405 C 0.6247 0.15799 0.66874 0.0
C406 C 0.59359 0.15217 0.66899 0.0
C407 C 0.58701 0.18138 0.62322 0.0
C408 C 0.63686 0.17575 0.64537 0.0
C409 C 0.57496 0.16361 0.64624 0.0
C410 C 0.66575 0.23071 0.49182 0.0
C411 C 0.63079 0.20725 0.59902 0.0
H412 H 0.57009 0.36086 0.34196 0.0
H413 H 0.61029 0.30041 0.40594 0.0
H414 H 0.58409 0.30938 0.35769 0.0
H415 H 0.60859 0.39632 0.42408 0.0
H416 H 0.58375 0.13856 0.68674 0.0
H417 H 0.57217 0.19005 0.60591 0.0
H418 H 0.6608 0.18061 0.64513 0.0
H419 H 0.55105 0.15879 0.64654 0.0
Eu420 Eu 0.01668 0.35865 0.80297 0.0
C421 C 0.96741 0.454 0.70696 0.0
N422 N 0.95338 0.43974 0.73013 0.0
C423 C 0.92885 0.48606 0.74414 0.0
C424 C 0.96385 0.48544 0.70248 0.0
C425 C 0.93288 0.45482 0.7474 0.0
C426 C 0.94485 0.50157 0.72192 0.0
C427 C 0.99808 0.45079 0.66183 0.0
C428 C 0.98406 0.43682 0.68666 0.0
C429 C 0.99564 0.4823 0.65803 0.0
C430 C 0.97853 0.49957 0.67827 0.0
Eu431 Eu 0.96261 0.38732 0.73451 0.0
N432 N 0.98593 0.40634 0.69082 0.0
C433 C 0.01366 0.43256 0.64124 0.0
C434 C 0.99972 0.38832 0.67009 0.0
C435 C 0.01417 0.40115 0.6452 0.0
H436 H 0.91896 0.44263 0.76312 0.0
H437 H 0.02543 0.38679 0.62895 0.0
H438 H 0.05452 0.29842 0.77246 0.0
H439 H 0.94461 0.36289 0.90176 0.0
H440 H 0.99911 0.36405 0.67237 0.0
H441 H 0.02472 0.44243 0.62184 0.0
H442 H 0.97397 0.38386 0.85906 0.0
H443 H 0.91302 0.49803 0.75837 0.0
H444 H 0.00639 0.49345 0.63916 0.0
H445 H 0.97624 0.52374 0.67462 0.0
H446 H 0.0541 0.24308 0.77653 0.0
H447 H 0.94147 0.52574 0.7192 0.0
H448 H 0.94218 0.30737 0.90936 0.0
N449 N 0.02019 0.30514 0.8055 0.0
C450 C 1.00368 0.29191 0.82771 0.0
C451 C 0.03947 0.25651 0.79077 0.0
C452 C 1.00376 0.26018 0.83159 0.0
C453 C 0.03908 0.28805 0.78808 0.0
C454 C 0.02143 0.24247 0.81233 0.0
N455 N 0.98678 0.34057 0.84262 0.0
C456 C 0.97272 0.35962 0.86234 0.0
C457 C 0.97077 0.29721 0.87116 0.0
C458 C 0.98714 0.31015 0.84721 0.0
C459 C 0.95506 0.31647 0.89073 0.0
C460 C 0.95627 0.34782 0.88646 0.0
H461 H 0.02201 0.21803 0.81453 0.0
H462 H 0.98635 0.22279 0.85796 0.0
H463 H 0.95768 0.25522 0.89272 0.0
O464 O 0.0364 0.38828 0.83713 0.0
O465 O 0.96632 0.35012 0.80155 0.0
O466 O 0.96014 0.33945 0.7524 0.0
O467 O 0.05726 0.34514 0.82765 0.0
O468 O 0.99968 0.40714 0.80315 0.0
O469 O 0.95245 0.40257 0.78247 0.0
O470 O 0.9361 0.37571 0.69468 0.0
O471 O 0.00827 0.41253 0.7397 0.0
O472 O 0.04114 0.37938 0.76418 0.0
O473 O 0.91327 0.38605 0.73648 0.0
O474 O 0.98884 0.34433 0.72421 0.0
O475 O 0.03137 0.34289 0.75543 0.0
C476 C 0.95465 0.33317 0.78053 0.0
C477 C 0.08852 0.38401 0.8469 0.0
C478 C 0.12636 0.40691 0.87993 0.0
C479 C 0.14531 0.4105 0.85477 0.0
C480 C 0.10764 0.38808 0.82216 0.0
C481 C 0.13595 0.4012 0.82616 0.0
C482 C 0.09786 0.39348 0.87569 0.0
C483 C 0.97172 0.41657 0.80017 0.0
C484 C 0.0587 0.37005 0.84325 0.0
C485 C 0.98672 0.24714 0.85485 0.0
C486 C 0.97044 0.26561 0.87469 0.0
C487 C 0.03577 0.40308 0.74701 0.0
C488 C 0.88533 0.39179 0.69094 0.0
C489 C 0.84001 0.38528 0.66027 0.0
C490 C 0.83885 0.41673 0.65575 0.0
C491 C 0.88382 0.42314 0.68612 0.0
C492 C 0.86321 0.37287 0.67814 0.0
C493 C 0.86054 0.43552 0.66876 0.0
C494 C 0.01674 0.33592 0.7302 0.0
C495 C 0.91023 0.37818 0.70829 0.0
H496 H 0.16758 0.42018 0.8572 0.0
H497 H 0.10072 0.38101 0.79984 0.0
H498 H 0.15075 0.40412 0.80702 0.0
H499 H 0.08272 0.39073 0.89464 0.0
H500 H 0.8211 0.42672 0.64214 0.0
H501 H 0.90072 0.438 0.69548 0.0
H502 H 0.86436 0.34856 0.68157 0.0
H503 H 0.85946 0.45975 0.66515 0.0
Eu504 Eu 0.86028 0.7025 0.98628 0.0
C505 C 0.94432 0.80756 0.04051 0.0
N506 N 0.93431 0.78032 0.05071 0.0
C507 C 0.98381 0.76834 0.06914 0.0
C508 C 0.97502 0.81549 0.0429 0.0
C509 C 0.9532 0.76154 0.06627 0.0
C510 C 0.99489 0.79521 0.05694 0.0
C511 C 0.93329 0.85649 0.01785 0.0
C512 C 0.92363 0.82799 0.0284 0.0
C513 C 0.964 0.86401 0.0193 0.0
C514 C 0.98478 0.84361 0.03187 0.0
Eu515 Eu 0.88215 0.77122 0.04443 0.0
N516 N 0.89405 0.8201 0.0271 0.0
C517 C 0.91173 0.87663 0.00627 0.0
C518 C 0.8728 0.84015 0.01732 0.0
C519 C 0.8813 0.86854 0.0063 0.0
H520 H 0.94463 0.7421 0.07785 0.0
H521 H 0.86437 0.88427 0.99816 0.0
H522 H 0.80193 0.74049 0.9512 0.0
H523 H 0.85815 0.59955 0.05327 0.0
H524 H 0.84927 0.83443 0.01873 0.0
H525 H 0.91826 0.89869 0.99783 0.0
H526 H 0.88176 0.64301 0.02697 0.0
H527 H 0.99868 0.75314 0.08131 0.0
H528 H 0.97185 0.88574 0.01115 0.0
H529 H 0.00831 0.84998 0.03334 0.0
H530 H 0.74689 0.73982 0.95172 0.0
H531 H 0.0186 0.80054 0.05937 0.0
H532 H 0.80256 0.59492 0.05438 0.0
N533 N 0.8069 0.70465 0.9833 0.0
C534 C 0.79243 0.68187 0.99817 0.0
C535 C 0.75941 0.72372 0.9653 0.0
C536 C 0.76067 0.67999 0.99796 0.0
C537 C 0.79089 0.72448 0.96574 0.0
C538 C 0.74421 0.70165 0.98178 0.0
N539 N 0.83983 0.66249 0.01411 0.0
C540 C 0.85747 0.64097 0.02753 0.0
C541 C 0.79495 0.63563 0.02811 0.0
C542 C 0.80933 0.65985 0.01325 0.0
C543 C 0.8128 0.61383 0.04272 0.0
C544 C 0.8442 0.61642 0.04227 0.0
H545 H 0.7198 0.70097 0.98111 0.0
H546 H 0.72192 0.65468 0.01357 0.0
H547 H 0.75191 0.61589 0.03988 0.0
O548 O 0.88445 0.66342 0.9678 0.0
O549 O 0.8487 0.70303 0.03632 0.0
O550 O 0.83489 0.75183 0.04316 0.0
O551 O 0.84675 0.68222 0.94339 0.0
O552 O 0.9066 0.69948 0.00811 0.0
O553 O 0.89971 0.72345 0.05403 0.0
O554 O 0.8676 0.80778 0.0747 0.0
O555 O 0.90929 0.7725 1.0 0.0
O556 O 0.8933 0.73511 0.96613 0.0
O557 O 0.87961 0.76401 0.093 0.0
O558 O 0.84118 0.77476 0.01413 0.0
O559 O 0.85024 0.75076 0.96912 0.0
C560 C 0.83047 0.72303 0.04836 0.0
C561 C 0.88374 0.65534 0.91527 0.0
C562 C 0.90725 0.61876 0.88125 0.0
C563 C 0.91542 0.64265 0.86207 0.0
C564 C 0.89169 0.67886 0.89559 0.0
C565 C 0.90749 0.67248 0.86913 0.0
C566 C 0.89129 0.62521 0.90786 0.0
C567 C 0.91409 0.70406 0.03647 0.0
C568 C 0.86788 0.66165 0.94371 0.0
C569 C 0.74629 0.6563 0.01338 0.0
C570 C 0.76337 0.63413 0.02828 0.0
C571 C 0.91021 0.75843 0.97357 0.0
C572 C 0.88547 0.80653 0.1252 0.0
C573 C 0.88174 0.83734 0.17119 0.0
C574 C 0.91255 0.83142 0.1766 0.0
C575 C 0.91617 0.80177 0.13106 0.0
C576 C 0.86825 0.82448 0.14525 0.0
C577 C 0.92954 0.81407 0.15662 0.0
C578 C 0.84196 0.77498 0.98458 0.0
C579 C 0.87106 0.79169 0.09906 0.0
H580 H 0.92769 0.63815 0.84146 0.0
H581 H 0.88569 0.70209 0.90069 0.0
H582 H 0.91365 0.69072 0.85406 0.0
H583 H 0.88514 0.6069 0.92294 0.0
H584 H 0.92365 0.8398 0.19665 0.0
H585 H 0.92975 0.78804 0.1162 0.0
H586 H 0.84456 0.82838 0.14058 0.0
H587 H 0.95316 0.80983 0.16118 0.0
Eu588 Eu 0.4851 0.64759 0.3023 0.0
C589 C 0.53397 0.55551 0.202 0.0
N590 N 0.5452 0.56552 0.22862 0.0
C591 C 0.56088 0.5152 0.24158 0.0
C592 C 0.53422 0.5244 0.19488 0.0
C593 C 0.56019 0.54629 0.24744 0.0
C594 C 0.54731 0.5041 0.21541 0.0
C595 C 0.51216 0.56708 0.15319 0.0
C596 C 0.52333 0.57664 0.18135 0.0
C597 C 0.51118 0.53598 0.14648 0.0
C598 C 0.52226 0.51471 0.16724 0.0
Eu599 Eu 0.54245 0.61799 0.23721 0.0
N600 N 0.52468 0.60656 0.18846 0.0
C601 C 0.50266 0.58909 0.1325 0.0
C602 C 0.51725 0.62811 0.16773 0.0
C603 C 0.50557 0.61976 0.13967 0.0
H604 H 0.57241 0.555 0.26648 0.0
H605 H 0.49918 0.63697 0.12346 0.0
H606 H 0.44792 0.70508 0.26603 0.0
H607 H 0.55551 0.65069 0.4025 0.0
H608 H 0.52088 0.65172 0.17256 0.0
H609 H 0.49379 0.58267 0.11067 0.0
H610 H 0.52781 0.62657 0.36027 0.0
H611 H 0.57231 0.49992 0.25694 0.0
H612 H 0.50245 0.52819 0.12504 0.0
H613 H 0.52202 0.49087 0.16146 0.0
H614 H 0.44726 0.76059 0.26673 0.0
H615 H 0.54807 0.48002 0.21074 0.0
H616 H 0.5563 0.70659 0.40694 0.0
N617 N 0.48098 0.70102 0.30086 0.0
C618 C 0.49655 0.71585 0.3228 0.0
C619 C 0.46154 0.7483 0.28235 0.0
C620 C 0.49581 0.74774 0.32468 0.0
C621 C 0.46254 0.71666 0.28162 0.0
C622 C 0.47851 0.76393 0.30373 0.0
N623 N 0.51427 0.66852 0.34105 0.0
C624 C 0.52836 0.65099 0.36218 0.0
C625 C 0.52845 0.71383 0.36742 0.0
C626 C 0.51298 0.69914 0.34386 0.0
C627 C 0.54413 0.69612 0.38852 0.0
C628 C 0.54386 0.66455 0.38603 0.0
H629 H 0.47746 0.78845 0.30439 0.0
H630 H 0.51176 0.78698 0.34923 0.0
H631 H 0.54011 0.7573 0.38674 0.0
O632 O 0.46602 0.62142 0.33967 0.0
O633 O 0.53562 0.65763 0.3012 0.0
O634 O 0.54438 0.66701 0.252 0.0
O635 O 0.44343 0.66203 0.32449 0.0
O636 O 0.50178 0.59915 0.30625 0.0
O637 O 0.54918 0.60312 0.28601 0.0
O638 O 0.57756 0.62533 0.20226 0.0
O639 O 0.4979 0.59084 0.2415 0.0
O640 O 0.46223 0.62178 0.26525 0.0
O641 O 0.5897 0.61501 0.24912 0.0
O642 O 0.51657 0.66144 0.22802 0.0
O643 O 0.47088 0.65893 0.25325 0.0
C644 C 0.5475 0.67474 0.28025 0.0
C645 C 0.41391 0.62577 0.35125 0.0
C646 C 0.38 0.60457 0.38927 0.0
C647 C 0.3575 0.60192 0.36719 0.0
C648 C 0.39102 0.62303 0.32959 0.0
C649 C 0.36305 0.61098 0.33753 0.0
C650 C 0.40833 0.61636 0.38115 0.0
C651 C 0.52926 0.58873 0.30257 0.0
C652 C 0.4432 0.63957 0.34358 0.0
C653 C 0.51193 0.76249 0.34762 0.0
C654 C 0.52804 0.74558 0.36903 0.0
C655 C 0.46975 0.59782 0.24922 0.0
C656 C 0.63177 0.62136 0.21497 0.0
C657 C 0.67526 0.63512 0.18379 0.0
C658 C 0.69416 0.62003 0.20439 0.0
C659 C 0.65146 0.60651 0.23501 0.0
C660 C 0.64381 0.63596 0.18919 0.0
C661 C 0.68235 0.60592 0.22975 0.0
C662 C 0.48725 0.66583 0.22918 0.0
C663 C 0.59908 0.62098 0.22189 0.0
H664 H 0.33553 0.593 0.37298 0.0
H665 H 0.39464 0.63055 0.30666 0.0
H666 H 0.34548 0.60897 0.32071 0.0
H667 H 0.42576 0.61872 0.39815 0.0
H668 H 0.71833 0.61922 0.20086 0.0
H669 H 0.64297 0.59507 0.25485 0.0
H670 H 0.62899 0.6475 0.17346 0.0
H671 H 0.69722 0.59437 0.24538 0.0
Eu672 Eu 0.26776 0.45431 0.10826 0.0
C673 C 0.21027 0.54128 0.20601 0.0
N674 N 0.1983 0.51815 0.18972 0.0
C675 C 0.17358 0.49909 0.2338 0.0
C676 C 0.20529 0.54334 0.23732 0.0
C677 C 0.17891 0.49814 0.2028 0.0
C678 C 0.18716 0.52154 0.25122 0.0
C679 C 0.23934 0.58786 0.20761 0.0
C680 C 0.22682 0.5636 0.19125 0.0
C681 C 0.23501 0.58949 0.23888 0.0
C682 C 0.21799 0.56735 0.25367 0.0
Eu683 Eu 0.2093 0.51889 0.13774 0.0
N684 N 0.23092 0.56144 0.16096 0.0
C685 C 0.25588 0.60981 0.19201 0.0
C686 C 0.24642 0.58305 0.14555 0.0
C687 C 0.25931 0.60745 0.16083 0.0
H688 H 0.16674 0.48193 0.18933 0.0
H689 H 0.27181 0.62446 0.14855 0.0
H690 H 0.30718 0.48592 0.0505 0.0
H691 H 0.19955 0.35222 0.10934 0.0
H692 H 0.24877 0.58157 0.12152 0.0
H693 H 0.2659 0.62877 0.2038 0.0
H694 H 0.22689 0.39577 0.13148 0.0
H695 H 0.15859 0.48282 0.24412 0.0
H696 H 0.24453 0.60795 0.25182 0.0
H697 H 0.21451 0.56918 0.27776 0.0
H698 H 0.30926 0.48203 0.99536 0.0
H699 H 0.18279 0.52237 0.27521 0.0
H700 H 0.19861 0.34533 0.05399 0.0
N701 N 0.2735 0.45187 0.05534 0.0
C702 C 0.25793 0.42936 0.04139 0.0
C703 C 0.2944 0.46736 0.00799 0.0
C704 C 0.25932 0.42568 0.00987 0.0
C705 C 0.29266 0.46989 0.03932 0.0
C706 C 0.27735 0.44544 0.99314 0.0
N707 N 0.23991 0.41352 0.089 0.0
C708 C 0.22624 0.39286 0.10731 0.0
C709 C 0.22607 0.38482 0.04514 0.0
C710 C 0.24129 0.40923 0.05874 0.0
C711 C 0.21057 0.36437 0.0636 0.0
C712 C 0.21095 0.36823 0.09486 0.0
H713 H 0.27896 0.44337 0.96888 0.0
H714 H 0.24388 0.39906 0.97188 0.0
H715 H 0.21494 0.3632 1.00278 0.0
O716 O 0.28774 0.42023 0.1381 0.0
O717 O 0.21777 0.45337 0.09787 0.0
O718 O 0.20739 0.50274 0.08931 0.0
O719 O 0.31015 0.43168 0.09655 0.0
O720 O 0.25018 0.45282 0.1563 0.0
O721 O 0.20179 0.46961 0.14953 0.0
O722 O 0.18151 0.55947 0.12975 0.0
O723 O 0.25588 0.51607 0.16213 0.0
O724 O 0.28995 0.49485 0.12835 0.0
O725 O 0.16042 0.51555 0.13336 0.0
O726 O 0.23454 0.5324 0.09585 0.0
O727 O 0.27849 0.50316 0.09188 0.0
C728 C 0.2052 0.47437 0.08138 0.0
C729 C 0.34001 0.41008 0.13572 0.0
C730 C 0.37568 0.37527 0.16007 0.0
C731 C 0.39545 0.39978 0.16443 0.0
C732 C 0.35998 0.43412 0.1405 0.0
C733 C 0.38761 0.4289 0.15472 0.0
C734 C 0.34792 0.3807 0.14547 0.0
C735 C 0.2216 0.45268 0.16376 0.0
C736 C 0.31077 0.41499 0.12076 0.0
C737 C 0.24326 0.40205 0.9961 0.0
C738 C 0.22682 0.38159 0.0137 0.0
C739 C 0.2838 0.51073 0.15259 0.0
C740 C 0.12933 0.55837 0.14278 0.0
C741 C 0.08195 0.58706 0.13766 0.0
C742 C 0.07579 0.58052 0.16813 0.0
C743 C 0.1228 0.55312 0.17317 0.0
C744 C 0.10893 0.57551 0.12504 0.0
C745 C 0.09613 0.56399 0.18567 0.0
C746 C 0.2622 0.52796 0.086 0.0
C747 C 0.15625 0.5445 0.12888 0.0
H748 H 0.4172 0.39639 0.17507 0.0
H749 H 0.35423 0.45683 0.13318 0.0
H750 H 0.40307 0.4475 0.15821 0.0
H751 H 0.33223 0.36223 0.14205 0.0
H752 H 0.05495 0.58784 0.17854 0.0
H753 H 0.13804 0.54021 0.18717 0.0
H754 H 0.11416 0.57981 0.10158 0.0
H755 H 0.09101 0.55931 0.20905 0.0
Eu756 Eu 0.77486 0.05204 0.89562 0.0
C757 C 0.7145 0.95603 0.80702 0.0
N758 N 0.70462 0.98212 0.82011 0.0
C759 C 0.68241 0.99792 0.7733 0.0
C760 C 0.71008 0.95079 0.77598 0.0
C761 C 0.68716 1.00202 0.80415 0.0
C762 C 0.6944 0.97247 0.75902 0.0
C763 C 0.73803 0.9064 0.81203 0.0
C764 C 0.72788 0.93375 0.82491 0.0
C765 C 0.73465 0.90169 0.78094 0.0
C766 C 0.72061 0.92376 0.76299 0.0
Eu767 Eu 0.71457 0.98623 0.87236 0.0
N768 N 0.73093 0.9388 0.85497 0.0
C769 C 0.75106 0.88446 0.83087 0.0
C770 C 0.74249 0.91716 0.87361 0.0
C771 C 0.75308 0.88978 0.86184 0.0
H772 H 0.67585 0.0206 0.81517 0.0
H773 H 0.76258 0.87275 0.87667 0.0
H774 H 0.80631 0.01319 0.95531 0.0
H775 H 0.71068 0.15718 0.89448 0.0
H776 H 0.74309 0.92095 0.89755 0.0
H777 H 0.7592 0.86318 0.82181 0.0
H778 H 0.73613 0.11243 0.87213 0.0
H779 H 0.66901 0.01412 0.7607 0.0
H780 H 0.74238 0.88084 0.77062 0.0
H781 H 0.71758 0.91948 0.73915 0.0
H782 H 0.80456 0.01506 0.01027 0.0
H783 H 0.69044 0.96922 0.73515 0.0
H784 H 0.70889 0.16308 0.94989 0.0
N785 N 0.77619 0.05058 0.94898 0.0
C786 C 0.76205 0.07439 0.96266 0.0
C787 C 0.79209 0.03158 0.99716 0.0
C788 C 0.76156 0.07687 0.99436 0.0
C789 C 0.79234 0.03017 0.96572 0.0
C790 C 0.77634 0.05478 0.01155 0.0
N791 N 0.74786 0.09351 0.91458 0.0
C792 C 0.73526 0.11502 0.89634 0.0
C793 C 0.73383 0.12172 0.95869 0.0
C794 C 0.74822 0.09673 0.94505 0.0
C795 C 0.72016 0.14359 0.94021 0.0
C796 C 0.721 0.14029 0.90891 0.0
H797 H 0.77645 0.05591 0.03593 0.0
H798 H 0.74614 0.10361 0.03227 0.0
H799 H 0.72191 0.14278 1.00109 0.0
O800 O 0.79533 0.09171 0.87449 0.0
O801 O 0.72481 0.05377 0.90688 0.0
O802 O 0.71691 0.00496 0.91954 0.0
O803 O 0.81941 0.06785 0.9095 0.0
O804 O 0.75529 0.05569 0.84853 0.0
O805 O 0.70826 0.03472 0.85565 0.0
O806 O 0.6844 0.94904 0.88541 0.0
O807 O 0.76083 0.97989 0.84981 0.0
O808 O 0.79207 0.02153 0.85917 0.0
O809 O 0.66657 0.99419 0.87865 0.0
O810 O 0.74378 0.98022 0.91382 0.0
O811 O 0.78983 1.00306 0.90636 0.0
C812 C 0.71197 0.0337 0.92428 0.0
C813 C 0.84832 0.09396 0.87273 0.0
C814 C 0.88311 0.12803 0.84666 0.0
C815 C 0.9021 0.10305 0.84097 0.0
C816 C 0.86732 0.06937 0.86624 0.0
C817 C 0.89414 0.07401 0.85056 0.0
C818 C 0.85617 0.12318 0.86277 0.0
C819 C 0.72732 0.05117 0.83994 0.0
C820 C 0.82022 0.08975 0.88981 0.0
C821 C 0.74681 0.1015 0.00796 0.0
C822 C 0.73309 0.12388 0.99021 0.0
C823 C 0.78572 0.99581 0.84566 0.0
C824 C 0.63284 0.95349 0.87102 0.0
C825 C 0.58659 0.92349 0.87527 0.0
C826 C 0.578 0.934 0.84648 0.0
C827 C 0.62382 0.963 0.84223 0.0
C828 C 0.61426 0.93357 0.88747 0.0
C829 C 0.59658 0.95331 0.8301 0.0
C830 C 0.77339 0.97944 0.9145 0.0
C831 C 0.66033 0.96601 0.88493 0.0
H832 H 0.92332 0.10591 0.82932 0.0
H833 H 0.86153 0.04665 0.87339 0.0
H834 H 0.9089 0.05501 0.84588 0.0
H835 H 0.84104 0.14197 0.86728 0.0
H836 H 0.55654 0.9278 0.83665 0.0
H837 H 0.63741 0.97854 0.82937 0.0
H838 H 0.62132 0.92615 0.90968 0.0
H839 H 0.58957 0.96121 0.80807 0.0
Eu840 Eu 0.73549 0.95849 0.39206 0.0
C841 C 0.79611 0.05162 0.30414 0.0
N842 N 0.80871 0.02744 0.31849 0.0
C843 C 0.83444 0.01311 0.27325 0.0
C844 C 0.80109 0.05653 0.27316 0.0
C845 C 0.82893 0.00929 0.304 0.0
C846 C 0.82007 0.03655 0.25763 0.0
C847 C 0.76592 0.09758 0.30653 0.0
C848 C 0.779 0.07216 0.32074 0.0
C849 C 0.77 0.10194 0.27546 0.0
C850 C 0.78761 0.08154 0.25885 0.0
Eu851 Eu 0.79741 0.02271 0.37015 0.0
N852 N 0.77523 0.06728 0.35079 0.0
C853 C 0.74941 0.11807 0.32408 0.0
C854 C 0.7606 0.08796 0.3682 0.0
C855 C 0.74706 0.11342 0.35512 0.0
H856 H 0.84154 0.99246 0.3163 0.0
H857 H 0.73506 0.12957 0.36902 0.0
H858 H 0.697 0.99214 0.45007 0.0
H859 H 0.79364 0.85015 0.39043 0.0
H860 H 0.75991 0.08517 0.39217 0.0
H861 H 0.73896 0.13787 0.314 0.0
H862 H 0.77131 0.89697 0.36874 0.0
H863 H 0.85013 0.99829 0.26175 0.0
H864 H 0.76001 0.1213 0.26414 0.0
H865 H 0.79102 0.08554 0.23501 0.0
H866 H 0.69378 0.98747 0.50494 0.0
H867 H 0.82454 0.03961 0.23383 0.0
H868 H 0.793 0.84211 0.44565 0.0
N869 N 0.72871 0.95593 0.44505 0.0
C870 C 0.74216 0.93186 0.45891 0.0
C871 C 0.70787 0.97198 0.49232 0.0
C872 C 0.73974 0.9276 0.49032 0.0
C873 C 0.71041 0.97497 0.46109 0.0
C874 C 0.72296 0.94847 0.50708 0.0
N875 N 0.75935 0.9151 0.41135 0.0
C876 C 0.77124 0.89349 0.39285 0.0
C877 C 0.76964 0.88427 0.45486 0.0
C878 C 0.75716 0.91046 0.4415 0.0
C879 C 0.7832 0.86255 0.43623 0.0
C880 C 0.78369 0.86703 0.40505 0.0
H881 H 0.72059 0.94599 0.53125 0.0
H882 H 0.75183 0.89873 0.52803 0.0
H883 H 0.7779 0.86075 0.49694 0.0
O884 O 0.71432 0.92804 0.35934 0.0
O885 O 0.78502 0.95335 0.40432 0.0
O886 O 0.79832 1.00128 0.41676 0.0
O887 O 0.69296 0.93567 0.40227 0.0
O888 O 0.7587 0.95623 0.3462 0.0
O889 O 0.80661 0.97426 0.35538 0.0
O890 O 0.82332 0.06186 0.38533 0.0
O891 O 0.75436 0.01896 0.34072 0.0
O892 O 0.71581 1.00021 0.37075 0.0
O893 O 0.84684 0.02131 0.37135 0.0
O894 O 0.77076 0.03026 0.41298 0.0
O895 O 0.72405 0.00738 0.40772 0.0
C896 C 0.79983 0.97209 0.42166 0.0
C897 C 0.66236 0.91564 0.36296 0.0
C898 C 0.62562 0.88008 0.34161 0.0
C899 C 0.6056 0.90458 0.33743 0.0
C900 C 0.64211 0.93959 0.35828 0.0
C901 C 0.61383 0.93399 0.34565 0.0
C902 C 0.65409 0.88594 0.35465 0.0
C903 C 0.78786 0.95664 0.34043 0.0
C904 C 0.69202 0.9209 0.37692 0.0
C905 C 0.7533 0.9022 0.50391 0.0
C906 C 0.76807 0.88052 0.48621 0.0
C907 C 0.72553 0.01569 0.34748 0.0
C908 C 0.87345 0.06809 0.36846 0.0
C909 C 0.91728 0.10094 0.3757 0.0
C910 C 0.91729 0.10703 0.34464 0.0
C911 C 0.87401 0.0745 0.33753 0.0
C912 C 0.89538 0.08114 0.38753 0.0
C913 C 0.89594 0.09372 0.32572 0.0
C914 C 0.74151 0.02963 0.41775 0.0
C915 C 0.84948 0.04899 0.38136 0.0
H916 H 0.58332 0.90102 0.3281 0.0
H917 H 0.64812 0.96252 0.36453 0.0
H918 H 0.59814 0.95253 0.34228 0.0
H919 H 0.66999 0.86753 0.35803 0.0
H920 H 0.93395 0.12208 0.33501 0.0
H921 H 0.85739 0.06493 0.32254 0.0
H922 H 0.89495 0.07653 0.41152 0.0
H923 H 0.89622 0.09856 0.30181 0.0
Eu924 Eu 0.30011 0.48728 0.64481 0.0
C925 C 0.20487 0.54072 0.55351 0.0
N926 N 0.22906 0.55418 0.56661 0.0
C927 C 0.24315 0.57607 0.5193 0.0
C928 C 0.19971 0.54333 0.52226 0.0
C929 C 0.24719 0.57288 0.55037 0.0
C930 C 0.21957 0.56082 0.50507 0.0
C931 C 0.15907 0.51127 0.55875 0.0
C932 C 0.18464 0.52511 0.5716 0.0
C933 C 0.15439 0.51297 0.52749 0.0
C934 C 0.17461 0.52903 0.50931 0.0
Eu935 Eu 0.23483 0.54653 0.61886 0.0
N936 N 0.1897 0.52395 0.60181 0.0
C937 C 0.1387 0.49654 0.57779 0.0
C938 C 0.1691 0.51109 0.62052 0.0
C939 C 0.14357 0.49677 0.60887 0.0
H940 H 0.26388 0.58643 0.56159 0.0
H941 H 0.12751 0.48624 0.62389 0.0
H942 H 0.2686 0.4464 0.70207 0.0
H943 H 0.40337 0.55303 0.64476 0.0
H944 H 0.17189 0.51251 0.6444 0.0
H945 H 0.1188 0.48559 0.5688 0.0
H946 H 0.35884 0.52768 0.6223 0.0
H947 H 0.25788 0.59071 0.50647 0.0
H948 H 0.13492 0.50238 0.51722 0.0
H949 H 0.17038 0.53064 0.48531 0.0
H950 H 0.27266 0.44313 0.75706 0.0
H951 H 0.21632 0.56349 0.48101 0.0
H952 H 0.41078 0.55231 0.70006 0.0
N953 N 0.30254 0.48033 0.69772 0.0
C954 C 0.32532 0.49522 0.7119 0.0
C955 C 0.2873 0.45825 0.7447 0.0
C956 C 0.32926 0.49291 0.74337 0.0
C957 C 0.28462 0.46077 0.71343 0.0
C958 C 0.30942 0.47473 0.75981 0.0
N959 N 0.34122 0.51405 0.66461 0.0
C960 C 0.36202 0.52761 0.64646 0.0
C961 C 0.37059 0.52592 0.70857 0.0
C962 C 0.34567 0.51181 0.6948 0.0
C963 C 0.39132 0.54121 0.69031 0.0
C964 C 0.38717 0.54178 0.65909 0.0
H965 H 0.31168 0.47242 0.78401 0.0
H966 H 0.35652 0.50667 0.78151 0.0
H967 H 0.39281 0.5354 0.75102 0.0
O968 O 0.33263 0.46692 0.61365 0.0
O969 O 0.30182 0.53755 0.65587 0.0
O970 O 0.25306 0.54757 0.66652 0.0
O971 O 0.32375 0.44521 0.65629 0.0
O972 O 0.30191 0.5071 0.59754 0.0
O973 O 0.28318 0.55532 0.60381 0.0
O974 O 0.196 0.57582 0.62867 0.0
O975 O 0.24068 0.50231 0.59146 0.0
O976 O 0.25925 0.46547 0.62408 0.0
O977 O 0.23994 0.59562 0.62127 0.0
O978 O 0.2246 0.52054 0.66177 0.0
O979 O 0.25202 0.47537 0.66097 0.0
C980 C 0.28161 0.55029 0.67314 0.0
C981 C 0.34628 0.41503 0.618 0.0
C982 C 0.38374 0.37936 0.59859 0.0
C983 C 0.36074 0.35818 0.59369 0.0
C984 C 0.32353 0.39368 0.61284 0.0
C985 C 0.33082 0.36535 0.60075 0.0
C986 C 0.37639 0.40783 0.61076 0.0
C987 C 0.30048 0.53576 0.58947 0.0
C988 C 0.33953 0.44464 0.63161 0.0
C989 C 0.35333 0.50803 0.75734 0.0
C990 C 0.37404 0.52433 0.73997 0.0
C991 C 0.24307 0.47388 0.60066 0.0
C992 C 0.19732 0.62764 0.61384 0.0
C993 C 0.16764 0.67436 0.61928 0.0
C994 C 0.17318 0.68069 0.58865 0.0
C995 C 0.20183 0.63437 0.58336 0.0
C996 C 0.18011 0.64763 0.6318 0.0
C997 C 0.1899 0.66077 0.57091 0.0
C998 C 0.22845 0.49194 0.66952 0.0
C999 C 0.21162 0.60074 0.62757 0.0
H1000 H 0.36598 0.33609 0.58439 0.0
H1001 H 0.30028 0.39887 0.6183 0.0
H1002 H 0.31324 0.34885 0.59691 0.0
H1003 H 0.39408 0.42426 0.61473 0.0
H1004 H 0.16495 0.70136 0.57832 0.0
H1005 H 0.21495 0.61953 0.56923 0.0
H1006 H 0.17642 0.64228 0.65534 0.0
H1007 H 0.19389 0.66601 0.54743 0.0
H1008 H 0.15275 0.30285 0.57413 0.0
H1009 H 0.25659 0.44936 0.54587 0.0
H1010 H 0.2087 0.31505 0.49576 0.0
H1011 H 0.19586 0.44101 0.62085 0.0
H1012 H 0.23831 0.40064 0.5264 0.0
H1013 H 0.16874 0.35291 0.59238 0.0
C1014 C 0.16881 0.3158 0.56109 0.0
C1015 C 0.17944 0.30477 0.53345 0.0
C1016 C 0.22861 0.40963 0.54691 0.0
C1017 C 0.19751 0.36216 0.55382 0.0
C1018 C 0.23876 0.43763 0.55771 0.0
C1019 C 0.22736 0.44925 0.58472 0.0
C1020 C 0.20714 0.39305 0.56345 0.0
C1021 C 0.20505 0.43274 0.59986 0.0
C1022 C 0.17767 0.34452 0.57129 0.0
C1023 C 0.19992 0.32269 0.5172 0.0
N1024 N 0.19576 0.40543 0.58916 0.0
N1025 N 0.20818 0.35042 0.52755 0.0
H1026 H 0.80459 0.9363 0.84392 0.0
H1027 H 0.95662 0.9733 0.75555 0.0
H1028 H 0.82675 0.02577 0.8119 0.0
H1029 H 0.95089 0.89941 0.81866 0.0
H1030 H 0.90664 0.9906 0.77139 0.0
H1031 H 0.85489 0.91864 0.828 0.0
C1032 C 0.81964 0.95196 0.83274 0.0
C1033 C 0.8115 0.98252 0.82916 0.0
C1034 C 0.91649 0.97091 0.78222 0.0
C1035 C 0.86892 0.96275 0.81151 0.0
C1036 C 0.94517 0.96133 0.7735 0.0
C1037 C 0.95814 0.9354 0.78641 0.0
C1038 C 0.90025 0.95395 0.80346 0.0
C1039 C 0.94202 0.92006 0.8089 0.0
C1040 C 0.84848 0.94204 0.8242 0.0
C1041 C 0.83209 1.00201 0.81504 0.0
N1042 N 0.91364 0.9293 0.81644 0.0
N1043 N 0.85979 0.99185 0.80684 0.0
H1044 H 0.38001 0.664 0.01305 0.0
H1045 H 0.23288 0.57631 0.06085 0.0
H1046 H 0.29844 0.71264 0.03592 0.0
H1047 H 0.32236 0.54074 0.07673 0.0
H1048 H 0.2548 0.62417 0.04453 0.0
H1049 H 0.35749 0.61753 0.02997 0.0
C1050 C 0.35731 0.66517 0.02189 0.0
C1051 C 0.34122 0.69275 0.02314 0.0
C1052 C 0.26959 0.60585 0.05144 0.0
C1053 C 0.31494 0.63835 0.04222 0.0
C1054 C 0.25721 0.57832 0.06048 0.0
C1055 C 0.27583 0.55434 0.07043 0.0
C1056 C 0.3009 0.60935 0.05154 0.0
C1057 C 0.30712 0.55841 0.06919 0.0
C1058 C 0.3445 0.6383 0.03158 0.0
C1059 C 0.31179 0.6921 0.0347 0.0
N1060 N 0.31866 0.58542 0.05994 0.0
N1061 N 0.29942 0.66518 0.04356 0.0
H1062 H 0.55413 0.10076 0.32349 0.0
H1063 H 0.70042 0.99911 0.29383 0.0
H1064 H 0.5717 0.05916 0.23734 0.0
H1065 H 0.69574 0.0666 0.36348 0.0
H1066 H 0.65225 0.01804 0.2734 0.0
H1067 H 0.604 0.08393 0.34084 0.0
C1068 C 0.56825 0.08771 0.30839 0.0
C1069 C 0.55872 0.08141 0.27893 0.0
C1070 C 0.66201 0.02903 0.2929 0.0
C1071 C 0.61585 0.06222 0.29852 0.0
C1072 C 0.68965 0.01851 0.30423 0.0
C1073 C 0.70208 0.03166 0.3301 0.0
C1074 C 0.64651 0.05233 0.30807 0.0
C1075 C 0.6868 0.05598 0.34348 0.0
C1076 C 0.59685 0.0784 0.31817 0.0
C1077 C 0.57812 0.06456 0.26025 0.0
N1078 N 0.65966 0.06535 0.33256 0.0
N1079 N 0.60571 0.05555 0.27034 0.0
H1080 H 0.70914 0.19657 0.51825 0.0
H1081 H 0.77025 0.06663 0.45711 0.0
H1082 H 0.65622 0.20238 0.4369 0.0
H1083 H 0.68403 0.05475 0.41374 0.0
H1084 H 0.75479 0.11669 0.47332 0.0
H1085 H 0.72603 0.1464 0.50367 0.0
C1086 C 0.7017 0.18758 0.49679 0.0
C1087 C 0.68131 0.20389 0.47872 0.0
C1088 C 0.7388 0.10308 0.46088 0.0
C1089 C 0.70084 0.14572 0.46156 0.0
C1090 C 0.74767 0.07428 0.45157 0.0
C1091 C 0.72858 0.05642 0.43367 0.0
C1092 C 0.71032 0.11444 0.45267 0.0
C1093 C 0.69961 0.06783 0.42721 0.0
C1094 C 0.71138 0.15874 0.48844 0.0
C1095 C 0.67213 0.19072 0.45138 0.0
N1096 N 0.6915 0.09633 0.43631 0.0
N1097 N 0.68166 0.1622 0.44378 0.0
H1098 H 0.04411 0.46133 0.72421 0.0
H1099 H 0.21434 0.4314 0.67406 0.0
H1100 H 0.09062 0.37668 0.74051 0.0
H1101 H 0.18399 0.52007 0.70187 0.0
H1102 H 0.16645 0.41028 0.69172 0.0
H1103 H 0.0925 0.48329 0.70734 0.0
C1104 C 0.06423 0.44734 0.72398 0.0
C1105 C 0.0632 0.41719 0.73396 0.0
C1106 C 0.17042 0.43436 0.69408 0.0
C1107 C 0.11811 0.44184 0.71464 0.0
C1108 C 0.19788 0.44635 0.68429 0.0
C1109 C 0.20301 0.47762 0.68592 0.0
C1110 C 0.14791 0.4538 0.7054 0.0
C1111 C 0.18082 0.49586 0.69968 0.0
C1112 C 0.09179 0.45987 0.7146 0.0
C1113 C 0.09012 0.40011 0.73329 0.0
N1114 N 0.15401 0.48381 0.70832 0.0
N1115 N 0.11625 0.41257 0.72372 0.0
H1116 H 0.75222 0.94555 0.96061 0.0
H1117 H 0.86684 0.80637 0.93725 0.0
H1118 H 0.82566 0.94995 0.89737 0.0
H1119 H 0.79149 0.80667 0.99835 0.0
H1120 H 0.85256 0.85782 0.92062 0.0
H1121 H 0.76819 0.89484 0.97509 0.0
C1122 C 0.77211 0.93595 0.95011 0.0
C1123 C 0.78752 0.95192 0.9276 0.0
C1124 C 0.83895 0.84643 0.93736 0.0
C1125 C 0.80572 0.8931 0.94362 0.0
C1126 C 0.84684 0.81694 0.94651 0.0
C1127 C 0.83021 0.80229 0.9691 0.0
C1128 C 0.81423 0.86114 0.9509 0.0
C1129 C 0.80484 0.81715 0.98081 0.0
C1130 C 0.78108 0.90678 0.95816 0.0
C1131 C 0.81314 0.93834 0.91477 0.0
N1132 N 0.79781 0.84571 0.97176 0.0
N1133 N 0.8213 0.90951 0.92271 0.0
H1134 H 0.41469 0.59158 0.27512 0.0
H1135 H 0.34107 0.51333 0.13092 0.0
H1136 H 0.46473 0.5644 0.1966 0.0
H1137 H 0.28868 0.53808 0.20915 0.0
H1138 H 0.38614 0.53095 0.15567 0.0
H1139 H 0.36896 0.5706 0.2529 0.0
C1140 C 0.41615 0.58099 0.25321 0.0
C1141 C 0.44372 0.58014 0.23755 0.0
C1142 C 0.36491 0.53262 0.16757 0.0
C1143 C 0.3911 0.55593 0.21186 0.0
C1144 C 0.33885 0.52247 0.15344 0.0
C1145 C 0.31066 0.52387 0.16799 0.0
C1146 C 0.36325 0.54471 0.19664 0.0
C1147 C 0.30975 0.53654 0.19698 0.0
C1148 C 0.38994 0.56901 0.24056 0.0
C1149 C 0.44423 0.56561 0.20953 0.0
N1150 N 0.3357 0.54645 0.21038 0.0
N1151 N 0.4183 0.55433 0.19749 0.0
H1152 H 0.48859 0.21191 0.31549 0.0
H1153 H 0.60415 0.18844 0.45075 0.0
H1154 H 0.5673 0.15496 0.30739 0.0
H1155 H 0.55485 0.27183 0.43953 0.0
H1156 H 0.58513 0.17106 0.40178 0.0
H1157 H 0.50829 0.23134 0.3634 0.0
C1158 C 0.51006 0.20357 0.32377 0.0
C1159 C 0.52609 0.18146 0.30766 0.0
C1160 C 0.57808 0.19296 0.41025 0.0
C1161 C 0.54824 0.20281 0.36288 0.0
C1162 C 0.58844 0.20256 0.43843 0.0
C1163 C 0.58026 0.23112 0.44946 0.0
C1164 C 0.55915 0.212 0.39319 0.0
C1165 C 0.56093 0.24927 0.43205 0.0
C1166 C 0.52126 0.21463 0.35108 0.0
C1167 C 0.55406 0.17179 0.31919 0.0
N1168 N 0.55088 0.23937 0.40481 0.0
N1169 N 0.564 0.18209 0.34637 0.0
H1170 H 0.09409 0.31994 0.5538 0.0
H1171 H 0.00575 0.28069 0.70552 0.0
H1172 H 0.06775 0.22889 0.57675 0.0
H1173 H 0.06143 0.35969 0.69594 0.0
H1174 H 0.02418 0.2623 0.65663 0.0
H1175 H 0.07604 0.33714 0.60314 0.0
C1176 C 0.08378 0.30374 0.5688 0.0
C1177 C 0.08216 0.27302 0.56092 0.0
C1178 C 0.03281 0.28341 0.66549 0.0
C1179 C 0.06222 0.29229 0.61777 0.0
C1180 C 0.02258 0.29367 0.69349 0.0
C1181 C 0.03293 0.3212 0.70517 0.0
C1182 C 0.0527 0.30141 0.64859 0.0
C1183 C 0.05396 0.33775 0.68833 0.0
C1184 C 0.07399 0.31344 0.59721 0.0
C1185 C 0.06934 0.25283 0.5818 0.0
N1186 N 0.06285 0.32785 0.6607 0.0
N1187 N 0.05991 0.26279 0.60919 0.0
H1188 H 0.9692 0.7968 0.79071 0.0
H1189 H 0.93199 0.81669 0.96659 0.0
H1190 H 0.9987 0.87268 0.84452 0.0
H1191 H 0.92723 0.7304 0.92144 0.0
H1192 H 0.95339 0.83882 0.92081 0.0
H1193 H 0.94888 0.77331 0.83687 0.0
C1194 C 0.97136 0.80855 0.812 0.0
C1195 C 0.98594 0.83669 0.81351 0.0
C1196 C 0.9478 0.81496 0.921 0.0
C1197 C 0.96278 0.81012 0.86627 0.0
C1198 C 0.93591 0.80225 0.94736 0.0
C1199 C 0.92769 0.77161 0.94808 0.0
C1200 C 0.95123 0.79701 0.89498 0.0
C1201 C 0.93276 0.75423 0.92192 0.0
C1202 C 0.95992 0.79511 0.83836 0.0
C1203 C 0.98805 0.85081 0.84194 0.0
N1204 N 0.94389 0.76716 0.89645 0.0
N1205 N 0.97661 0.8375 0.86695 0.0
H1206 H 0.4381 0.64602 0.19716 0.0
H1207 H 0.46732 0.7632 0.06179 0.0
H1208 H 0.50667 0.71487 0.19823 0.0
H1209 H 0.40859 0.68632 0.05265 0.0
H1210 H 0.48104 0.746 0.11229 0.0
H1211 H 0.42392 0.66201 0.14576 0.0
C1212 C 0.44945 0.66514 0.18694 0.0
C1213 C 0.47323 0.67953 0.20208 0.0
C1214 C 0.46547 0.73252 0.09916 0.0
C1215 C 0.45795 0.69723 0.14314 0.0
C1216 C 0.45795 0.74216 0.07012 0.0
C1217 C 0.43706 0.72595 0.05274 0.0
C1218 C 0.45175 0.7066 0.11134 0.0
C1219 C 0.42517 0.69916 0.06497 0.0
C1220 C 0.44177 0.67388 0.15744 0.0
C1221 C 0.48794 0.70347 0.18747 0.0
N1222 N 0.43237 0.69049 0.09365 0.0
N1223 N 0.48016 0.71146 0.1589 0.0
H1224 H 0.18491 0.37687 0.34052 0.0
H1225 H 0.16891 0.422 0.16683 0.0
H1226 H 0.1138 0.34573 0.28199 0.0
H1227 H 0.2501 0.43963 0.21725 0.0
H1228 H 0.14915 0.39345 0.20947 0.0
H1229 H 0.21039 0.39914 0.29653 0.0
C1230 C 0.17494 0.3743 0.31838 0.0
C1231 C 0.14703 0.35974 0.31491 0.0
C1232 C 0.17141 0.40329 0.21128 0.0
C1233 C 0.17579 0.38523 0.26474 0.0
C1234 C 0.18265 0.4196 0.18691 0.0
C1235 C 0.2111 0.43313 0.18861 0.0
C1236 C 0.18854 0.40073 0.23785 0.0
C1237 C 0.22809 0.4293 0.21507 0.0
C1238 C 0.18939 0.38711 0.29334 0.0
C1239 C 0.135 0.35722 0.28577 0.0
N1240 N 0.21641 0.41371 0.23887 0.0
N1241 N 0.14929 0.37 0.26196 0.0
H1242 H 0.92084 0.93258 0.5734 0.0
H1243 H 0.82349 0.91538 0.42672 0.0
H1244 H 0.86566 0.85377 0.55699 0.0
H1245 H 0.82024 1.00113 0.47294 0.0
H1246 H 0.84928 0.89307 0.47 0.0
H1247 H 0.89286 0.95955 0.53356 0.0
C1248 C 0.9028 0.92094 0.5618 0.0
C1249 C 0.89626 0.89039 0.56836 0.0
C1250 C 0.84292 0.91679 0.4707 0.0
C1251 C 0.86494 0.92099 0.52225 0.0
C1252 C 0.82796 0.92948 0.44611 0.0
C1253 C 0.81858 0.95982 0.44665 0.0
C1254 C 0.84981 0.93483 0.49572 0.0
C1255 C 0.82665 0.97748 0.47177 0.0
C1256 C 0.88698 0.93637 0.53896 0.0
C1257 C 0.87257 0.87675 0.5522 0.0
N1258 N 0.8419 0.96473 0.4954 0.0
N1259 N 0.85823 0.8919 0.5297 0.0
H1260 H 0.24961 0.55325 0.72554 0.0
H1261 H 0.38393 0.62692 0.8219 0.0
H1262 H 0.33412 0.58012 0.68612 0.0
H1263 H 0.29442 0.61205 0.85636 0.0
H1264 H 0.36707 0.60887 0.77223 0.0
H1265 H 0.26611 0.57424 0.77379 0.0
C1266 C 0.27163 0.56371 0.72704 0.0
C1267 C 0.29076 0.56452 0.70194 0.0
C1268 C 0.35105 0.60985 0.79059 0.0
C1269 C 0.30997 0.58847 0.75721 0.0
C1270 C 0.36065 0.62022 0.81886 0.0
C1271 C 0.34051 0.62092 0.84322 0.0
C1272 C 0.32103 0.60039 0.78663 0.0
C1273 C 0.3107 0.61161 0.83822 0.0
C1274 C 0.28112 0.57559 0.75463 0.0
C1275 C 0.31898 0.57845 0.70514 0.0
N1276 N 0.30189 0.60176 0.81057 0.0
N1277 N 0.32787 0.58966 0.7323 0.0
H1278 H 0.60449 0.13874 0.04855 0.0
H1279 H 0.69899 1.00236 0.97588 0.0
H1280 H 0.59306 0.04585 0.07591 0.0
H1281 H 0.68167 0.08717 0.93062 0.0
H1282 H 0.66824 0.01983 0.01843 0.0
H1283 H 0.64256 0.12242 0.01176 0.0
C1284 C 0.61045 0.11496 0.04704 0.0
C1285 C 0.59585 0.0935 0.06503 0.0
C1286 C 0.6714 0.03465 0.99924 0.0
C1287 C 0.63863 0.07465 0.02299 0.0
C1288 C 0.68876 0.02466 0.97493 0.0
C1289 C 0.69309 0.04352 0.94986 0.0
C1290 C 0.65846 0.06373 0.99845 0.0
C1291 C 0.67939 0.07219 0.94978 0.0
C1292 C 0.63193 0.10564 0.02601 0.0
C1293 C 0.60406 0.06296 0.06236 0.0
N1294 N 0.66282 0.0815 0.97376 0.0
N1295 N 0.62484 0.05434 0.04153 0.0
H1296 H 0.62068 0.17124 0.72828 0.0
H1297 H 0.74811 0.05344 0.78213 0.0
H1298 H 0.67116 0.11676 0.66554 0.0
H1299 H 0.67914 0.08945 0.84026 0.0
H1300 H 0.7255 0.08122 0.73947 0.0
H1301 H 0.64797 0.14724 0.77001 0.0
C1302 C 0.63774 0.15433 0.72337 0.0
C1303 C 0.64375 0.14594 0.69355 0.0
C1304 C 0.71551 0.08327 0.76161 0.0
C1305 C 0.67474 0.11791 0.74115 0.0
C1306 C 0.7285 0.06762 0.78591 0.0
C1307 C 0.71547 0.0694 0.81461 0.0
C1308 C 0.68975 0.10131 0.76632 0.0
C1309 C 0.68978 0.08754 0.8184 0.0
C1310 C 0.6532 0.14053 0.74715 0.0
C1311 C 0.66612 0.124 0.68828 0.0
N1312 N 0.67786 0.1029 0.79459 0.0
N1313 N 0.6807 0.11055 0.71189 0.0
H1314 H 0.20861 0.50517 0.02817 0.0
H1315 H 0.11749 0.37933 0.93497 0.0
H1316 H 0.1713 0.42475 0.0684 0.0
H1317 H 0.15829 0.45809 0.89443 0.0
H1318 H 0.1353 0.3964 0.98429 0.0
H1319 H 0.18871 0.48917 0.97916 0.0
C1320 C 0.1959 0.48431 0.02667 0.0
C1321 C 0.19158 0.46616 0.05219 0.0
C1322 C 0.14034 0.40994 0.96458 0.0
C1323 C 0.16885 0.44761 0.99637 0.0
C1324 C 0.12999 0.4003 0.9364 0.0
C1325 C 0.13643 0.41721 0.91035 0.0
C1326 C 0.15715 0.43678 0.96687 0.0
C1327 C 0.15314 0.44401 0.91371 0.0
C1328 C 0.18472 0.47505 0.9987 0.0
C1329 C 0.17523 0.43922 0.04911 0.0
N1330 N 0.16289 0.45292 0.94136 0.0
N1331 N 0.16449 0.4307 0.02169 0.0
H1332 H 0.84656 0.94049 0.33043 0.0
H1333 H 0.82204 0.83226 0.18995 0.0
H1334 H 0.75704 0.92802 0.29437 0.0
H1335 H 0.90173 0.88675 0.20281 0.0
H1336 H 0.79717 0.861 0.2305 0.0
H1337 H 0.86716 0.91302 0.28753 0.0
C1338 C 0.83117 0.9321 0.31342 0.0
C1339 C 0.80005 0.93742 0.31567 0.0
C1340 C 0.82008 0.86657 0.22424 0.0
C1341 C 0.8236 0.90486 0.26669 0.0
C1342 C 0.83428 0.85032 0.20096 0.0
C1343 C 0.86445 0.85646 0.19319 0.0
C1344 C 0.83629 0.88876 0.24009 0.0
C1345 C 0.87896 0.88023 0.20851 0.0
C1346 C 0.843 0.91634 0.28892 0.0
C1347 C 0.78123 0.92483 0.2934 0.0
N1348 N 0.86497 0.89507 0.23135 0.0
N1349 N 0.79328 0.90911 0.26979 0.0
H1350 H 0.32244 0.50048 0.54352 0.0
H1351 H 0.3518 0.63846 0.43202 0.0
H1352 H 0.31652 0.59354 0.57256 0.0
H1353 H 0.39101 0.55038 0.41722 0.0
H1354 H 0.33549 0.62199 0.48233 0.0
H1355 H 0.34517 0.51751 0.4962 0.0
C1356 C 0.32606 0.52449 0.54008 0.0
C1357 C 0.31691 0.54565 0.5619 0.0
C1358 C 0.34805 0.60638 0.46829 0.0
C1359 C 0.34261 0.56531 0.50744 0.0
C1360 C 0.35737 0.6158 0.43967 0.0
C1361 C 0.37307 0.59583 0.42078 0.0
C1362 C 0.35401 0.57657 0.47789 0.0
C1363 C 0.37923 0.56649 0.43136 0.0
C1364 C 0.339 0.53419 0.51299 0.0
C1365 C 0.32249 0.57645 0.55613 0.0
N1366 N 0.36949 0.55764 0.45912 0.0
N1367 N 0.33449 0.58537 0.52933 0.0
H1368 H 0.17949 0.17285 0.4199 0.0
H1369 H 0.35686 0.19965 0.40217 0.0
H1370 H 0.22567 0.25286 0.45065 0.0
H1371 H 0.31132 0.12267 0.36404 0.0
H1372 H 0.30804 0.22147 0.41605 0.0
H1373 H 0.22631 0.15561 0.39576 0.0
C1374 C 0.19943 0.18689 0.42128 0.0
C1375 C 0.19883 0.21411 0.43753 0.0
C1376 C 0.30855 0.20006 0.40417 0.0
C1377 C 0.25236 0.19472 0.40999 0.0
C1378 C 0.33641 0.18775 0.39606 0.0
C1379 C 0.33799 0.15955 0.38165 0.0
C1380 C 0.28196 0.18383 0.39828 0.0
C1381 C 0.31094 0.1447 0.37474 0.0
C1382 C 0.2261 0.17712 0.40746 0.0
C1383 C 0.22513 0.23167 0.4384 0.0
N1384 N 0.28401 0.15684 0.38342 0.0
N1385 N 0.25086 0.22152 0.42515 0.0
H1386 H 0.12918 0.07337 0.6233 0.0
H1387 H 1.00216 0.98017 0.71169 0.0
H1388 H 0.04478 0.11209 0.65298 0.0
H1389 H 0.08021 0.938 0.67176 0.0
H1390 H 0.01783 0.02886 0.69056 0.0
H1391 H 0.1122 0.0237 0.64099 0.0
C1392 C 0.107 0.07147 0.63328 0.0
C1393 C 0.08852 0.09717 0.63677 0.0
C1394 C 0.0315 0.00897 0.68624 0.0
C1395 C 0.06906 0.0403 0.65739 0.0
C1396 C 0.02245 0.98116 0.69817 0.0
C1397 C 0.04008 0.95517 0.69361 0.0
C1398 C 0.05831 0.01079 0.66947 0.0
C1399 C 0.06622 0.95767 0.67606 0.0
C1400 C 0.09739 0.04309 0.64353 0.0
C1401 C 0.06014 0.09319 0.65028 0.0
N1402 N 0.07467 0.98503 0.66476 0.0
N1403 N 0.05139 0.06542 0.66015 0.0
H1404 H 0.18267 0.88557 0.90228 0.0
H1405 H 0.29661 0.74861 0.93335 0.0
H1406 H 0.1687 0.79612 0.86644 0.0
H1407 H 0.32238 0.84226 0.94294 0.0
H1408 H 0.24896 0.76502 0.91052 0.0
H1409 H 0.23297 0.86987 0.91984 0.0
C1410 C 0.19048 0.86274 0.89779 0.0
C1411 C 0.17185 0.84212 0.88273 0.0
C1412 C 0.26508 0.78198 0.91757 0.0
C1413 C 0.22894 0.82382 0.903 0.0
C1414 C 0.29235 0.77263 0.93056 0.0
C1415 C 0.31332 0.79409 0.94073 0.0
C1416 C 0.25857 0.81305 0.91485 0.0
C1417 C 0.30656 0.82491 0.93624 0.0
C1418 C 0.21909 0.85376 0.9078 0.0
C1419 C 0.18263 0.81266 0.87782 0.0
N1420 N 0.27966 0.83346 0.92403 0.0
N1421 N 0.21041 0.8043 0.88807 0.0
H1422 H 0.47068 0.03026 0.22133 0.0
H1423 H 0.39883 0.96928 0.06732 0.0
H1424 H 0.451 0.09071 0.14739 0.0
H1425 H 0.39099 0.92369 0.15273 0.0
H1426 H 0.4253 0.01133 0.09269 0.0
H1427 H 0.44892 0.98861 0.19306 0.0
C1428 C 0.46167 0.03489 0.19912 0.0
C1429 C 0.46195 0.06439 0.18716 0.0
C1430 C 0.418 0.99199 0.10578 0.0
C1431 C 0.43773 0.01598 0.15389 0.0
C1432 C 0.40316 0.96796 0.09131 0.0
C1433 C 0.39305 0.94294 0.108 0.0
C1434 C 0.42296 0.99074 0.13708 0.0
C1435 C 0.3987 0.94245 0.13906 0.0
C1436 C 0.44936 0.01092 0.18287 0.0
C1437 C 0.45098 0.06846 0.15768 0.0
N1438 N 0.41329 0.96589 0.15254 0.0
N1439 N 0.43921 0.04454 0.14205 0.0
H1440 H 0.79207 0.35708 0.6866 0.0
H1441 H 0.72993 0.27631 0.53933 0.0
H1442 H 0.83547 0.37057 0.60092 0.0
H1443 H 0.66956 0.3197 0.60187 0.0
H1444 H 0.77304 0.29877 0.56631 0.0
H1445 H 0.7508 0.33022 0.66073 0.0
C1446 C 0.79307 0.3539 0.66243 0.0
C1447 C 0.81706 0.36586 0.64576 0.0
C1448 C 0.75034 0.30301 0.57428 0.0
C1449 C 0.77045 0.33528 0.6163 0.0
C1450 C 0.72589 0.29018 0.55905 0.0
C1451 C 0.69639 0.29632 0.56854 0.0
C1452 C 0.74515 0.32096 0.59986 0.0
C1453 C 0.69209 0.3146 0.59396 0.0
C1454 C 0.76955 0.33885 0.64772 0.0
C1455 C 0.81733 0.36148 0.61446 0.0
N1456 N 0.71626 0.32606 0.609 0.0
N1457 N 0.79441 0.34642 0.60068 0.0
H1458 H 0.00762 0.46274 0.8198 0.0
H1459 H 0.87029 0.57212 0.86485 0.0
H1460 H 0.91465 0.43452 0.81685 0.0
H1461 H 0.96369 0.5946 0.8787 0.0
H1462 H 0.88565 0.52151 0.84735 0.0
H1463 H 0.99181 0.51073 0.84225 0.0
C1464 C 0.98385 0.46657 0.82401 0.0
C1465 C 0.96237 0.44477 0.81588 0.0
C1466 C 0.90278 0.53734 0.85459 0.0
C1467 C 0.94401 0.49994 0.84146 0.0
C1468 C 0.89399 0.56612 0.86464 0.0
C1469 C 0.91581 0.58732 0.87329 0.0
C1470 C 0.9336 0.52976 0.85335 0.0
C1471 C 0.94626 0.57879 0.87216 0.0
C1472 C 0.97482 0.49406 0.83675 0.0
C1473 C 0.93192 0.45097 0.8221 0.0
N1474 N 0.95426 0.55071 0.86236 0.0
N1475 N 0.92361 0.47808 0.83421 0.0
H1476 H 0.77665 0.75221 0.06038 0.0
H1477 H 0.70746 0.60642 0.14065 0.0
H1478 H 0.82651 0.67059 0.08027 0.0
H1479 H 0.67785 0.69545 0.16743 0.0
H1480 H 0.74296 0.62945 0.10541 0.0
H1481 H 0.73376 0.73206 0.08956 0.0
C1482 C 0.7786 0.73013 0.07089 0.0
C1483 C 0.805 0.71275 0.06743 0.0
C1484 C 0.72836 0.64399 0.11861 0.0
C1485 C 0.75604 0.68948 0.09993 0.0
C1486 C 0.70787 0.63087 0.13844 0.0
C1487 C 0.68973 0.64905 0.15697 0.0
C1488 C 0.73087 0.67563 0.11716 0.0
C1489 C 0.6913 0.68066 0.15335 0.0
C1490 C 0.75411 0.71864 0.08733 0.0
C1491 C 0.80637 0.6844 0.08162 0.0
N1492 N 0.71183 0.69305 0.13404 0.0
N1493 N 0.78219 0.67353 0.09687 0.0
H1494 H 0.53488 0.4004 0.35535 0.0
H1495 H 0.5846 0.57183 0.32496 0.0
H1496 H 0.61964 0.43636 0.38677 0.0
H1497 H 0.49359 0.53976 0.31369 0.0
H1498 H 0.59888 0.52228 0.34599 0.0
H1499 H 0.52055 0.45084 0.33778 0.0
C1500 C 0.55056 0.41889 0.35854 0.0
C1501 C 0.57863 0.41393 0.37248 0.0
C1502 C 0.57574 0.52616 0.33913 0.0
C1503 C 0.56211 0.47219 0.35249 0.0
C1504 C 0.5676 0.55441 0.32716 0.0
C1505 C 0.53788 0.55988 0.31756 0.0
C1506 C 0.55407 0.50309 0.3413 0.0
C1507 C 0.51671 0.53657 0.32095 0.0
C1508 C 0.54223 0.4478 0.34866 0.0
C1509 C 0.59769 0.43905 0.37637 0.0
N1510 N 0.52527 0.50917 0.33225 0.0
N1511 N 0.58918 0.46701 0.36627 0.0
H1512 H 0.40316 0.35973 0.21325 0.0
H1513 H 0.42768 0.18529 0.17068 0.0
H1514 H 0.36784 0.32023 0.13166 0.0
H1515 H 0.44818 0.22296 0.25785 0.0
H1516 H 0.40539 0.23408 0.15561 0.0
H1517 H 0.42 0.30966 0.22951 0.0
C1518 C 0.39894 0.34052 0.1987 0.0
C1519 C 0.38426 0.34436 0.17088 0.0
C1520 C 0.41457 0.23161 0.1781 0.0
C1521 C 0.40338 0.28658 0.18958 0.0
C1522 C 0.4273 0.20383 0.18665 0.0
C1523 C 0.44001 0.20031 0.21538 0.0
C1524 C 0.41472 0.25603 0.19843 0.0
C1525 C 0.43865 0.2248 0.23544 0.0
C1526 C 0.40841 0.31184 0.20812 0.0
C1527 C 0.37894 0.31841 0.15332 0.0
N1528 N 0.42654 0.25169 0.22649 0.0
N1529 N 0.3887 0.29068 0.16285 0.0
H1530 H 0.91834 0.32109 0.8285 0.0
H1531 H 0.91078 0.14324 0.79349 0.0
H1532 H 0.95976 0.27905 0.75132 0.0
H1533 H 0.87462 0.18341 0.87446 0.0
H1534 H 0.92649 0.19324 0.77663 0.0
H1535 H 0.89913 0.27151 0.84424 0.0
C1536 C 0.92314 0.30138 0.81478 0.0
C1537 C 0.94077 0.304 0.78875 0.0
C1538 C 0.91504 0.19118 0.79806 0.0
C1539 C 0.91894 0.24734 0.80645 0.0
C1540 C 0.90622 0.16252 0.80786 0.0
C1541 C 0.89153 0.15885 0.83565 0.0
C1542 C 0.90904 0.21664 0.81599 0.0
C1543 C 0.88562 0.185 0.85278 0.0
C1544 C 0.91221 0.27313 0.82374 0.0
C1545 C 0.94618 0.27795 0.77153 0.0
N1546 N 0.89447 0.21273 0.84273 0.0
N1547 N 0.9355 0.25066 0.78081 0.0
H1548 H 0.06573 0.58226 0.07716 0.0
H1549 H 0.92414 0.69242 0.09615 0.0
H1550 H 0.04739 0.63482 0.15711 0.0
H1551 H 0.95964 0.67223 0.00795 0.0
H1552 H 0.96627 0.66512 0.11877 0.0
H1553 H 0.02546 0.61033 0.05084 0.0
C1554 C 0.05354 0.59974 0.08918 0.0
C1555 C 0.05976 0.60556 0.11978 0.0
C1556 C 0.96495 0.66665 0.09445 0.0
C1557 C 0.01319 0.63719 0.08989 0.0
C1558 C 0.9408 0.68222 0.08146 0.0
C1559 C 0.93855 0.68521 0.05005 0.0
C1560 C 0.98695 0.6532 0.07603 0.0
C1561 C 0.96057 0.67075 0.03228 0.0
C1562 C 0.03042 0.61562 0.07415 0.0
C1563 C 0.04296 0.62857 0.13397 0.0
N1564 N 0.98391 0.65539 0.0455 0.0
N1565 N 0.02039 0.64314 0.1191 0.0
H1566 H 0.63647 0.82538 0.37035 0.0
H1567 H 0.54309 0.72792 0.24924 0.0
H1568 H 0.59389 0.86317 0.29121 0.0
H1569 H 0.58295 0.68876 0.32892 0.0
H1570 H 0.56338 0.77734 0.26365 0.0
H1571 H 0.6191 0.77495 0.35505 0.0
C1572 C 0.6237 0.82313 0.34966 0.0
C1573 C 0.61653 0.8488 0.33219 0.0
C1574 C 0.56785 0.75798 0.278 0.0
C1575 C 0.59637 0.79098 0.31462 0.0
C1576 C 0.55639 0.72972 0.26966 0.0
C1577 C 0.56119 0.70432 0.28805 0.0
C1578 C 0.58457 0.76089 0.30481 0.0
C1579 C 0.57849 0.70792 0.31431 0.0
C1580 C 0.61362 0.79431 0.34103 0.0
C1581 C 0.59959 0.8443 0.30576 0.0
N1582 N 0.58948 0.73568 0.32198 0.0
N1583 N 0.59011 0.81612 0.29787 0.0
H1584 H 0.54058 0.31968 0.50065 0.0
H1585 H 0.42626 0.35326 0.63484 0.0
H1586 H 0.56825 0.31625 0.59384 0.0
H1587 H 0.4121 0.3866 0.54471 0.0
H1588 H 0.47719 0.33645 0.62035 0.0
H1589 H 0.49254 0.34192 0.51613 0.0
C1590 C 0.53663 0.32363 0.5244 0.0
C1591 C 0.55829 0.3153 0.54604 0.0
C1592 C 0.4631 0.3478 0.60384 0.0
C1593 C 0.50296 0.34054 0.56396 0.0
C1594 C 0.43414 0.35736 0.61211 0.0
C1595 C 0.41526 0.37144 0.59092 0.0
C1596 C 0.47304 0.35208 0.57408 0.0
C1597 C 0.42616 0.37591 0.56165 0.0
C1598 C 0.50911 0.33631 0.53322 0.0
C1599 C 0.55186 0.32133 0.57645 0.0
N1600 N 0.45426 0.3661 0.55402 0.0
N1601 N 0.52464 0.33317 0.58454 0.0
H1602 H 0.17466 0.69171 0.67912 0.0
H1603 H 0.06338 0.83217 0.66065 0.0
H1604 H 0.11812 0.70688 0.6012 0.0
H1605 H 0.08491 0.7976 0.74913 0.0
H1606 H 0.09001 0.78948 0.63834 0.0
H1607 H 0.14695 0.73205 0.70567 0.0
C1608 C 0.15634 0.7032 0.66764 0.0
C1609 C 0.14927 0.69618 0.63749 0.0
C1610 C 0.0889 0.79112 0.66265 0.0
C1611 C 0.1181 0.74274 0.66755 0.0
C1612 C 0.07373 0.81558 0.67545 0.0
C1613 C 0.07132 0.81822 0.70685 0.0
C1614 C 0.10252 0.76925 0.68125 0.0
C1615 C 0.08595 0.79633 0.7248 0.0
C1616 C 0.14068 0.72633 0.68279 0.0
C1617 C 0.12524 0.71201 0.62394 0.0
N1618 N 0.10095 0.77268 0.71175 0.0
N1619 N 0.1109 0.73466 0.63886 0.0
H1620 H 0.47638 0.81643 1.00126 0.0
H1621 H 0.5509 0.87838 0.85249 0.0
H1622 H 0.42555 0.83417 0.92022 0.0
H1623 H 0.57517 0.92075 0.9368 0.0
H1624 H 0.51181 0.85012 0.87847 0.0
H1625 H 0.51909 0.84493 0.97969 0.0
C1626 C 0.47415 0.82643 0.97907 0.0
C1627 C 0.44767 0.82239 0.96214 0.0
C1628 C 0.52587 0.86546 0.89128 0.0
C1629 C 0.49623 0.85404 0.9374 0.0
C1630 C 0.54812 0.88183 0.87647 0.0
C1631 C 0.56596 0.90285 0.89219 0.0
C1632 C 0.52172 0.86929 0.92229 0.0
C1633 C 0.56197 0.90501 0.92362 0.0
C1634 C 0.49848 0.8425 0.96682 0.0
C1635 C 0.44586 0.83593 0.93363 0.0
N1636 N 0.54014 0.88851 0.93769 0.0
N1637 N 0.46993 0.85068 0.92196 0.0
H1638 H 0.92445 0.16144 0.38466 0.0
H1639 H 0.08865 0.15007 0.45305 0.0
H1640 H 0.96219 0.07498 0.40988 0.0
H1641 H 0.03142 0.22686 0.47106 0.0
H1642 H 0.04477 0.12246 0.4334 0.0
H1643 H 0.96539 0.18684 0.41187 0.0
C1644 C 0.94121 0.14785 0.39631 0.0
C1645 C 0.93991 0.11612 0.39522 0.0
C1646 C 0.04183 0.14536 0.44165 0.0
C1647 C 0.98721 0.14496 0.42572 0.0
C1648 C 0.06684 0.16108 0.45287 0.0
C1649 C 0.0637 0.19102 0.46296 0.0
C1650 C 0.01365 0.15993 0.44002 0.0
C1651 C 0.03492 0.2042 0.46241 0.0
C1652 C 0.96453 0.16232 0.4118 0.0
C1653 C 0.9623 0.0995 0.41044 0.0
N1654 N 0.01109 0.18881 0.45065 0.0
N1655 N 0.98531 0.11411 0.42472 0.0
loop_
_geom_bond_atom_site_label_1
_geom_bond_atom_site_label_2
_geom_bond_distance
_geom_bond_site_symmetry_2
_ccdc_geom_bond_type
Eu0 N29 2.600 . S
Eu0 N35 2.562 . S
Eu0 O44 2.462 . S
Eu0 O45 2.373 . S
Eu0 O47 2.432 . S
Eu0 O48 2.291 . S
Eu0 O52 2.335 . S
Eu0 O55 2.372 . S
Eu0 C64 2.787 . S
C1 N2 1.365 . S
C1 C4 1.405 . S
C1 C8 1.448 . S
N2 C1 1.365 . S
N2 C5 1.319 . S
N2 Eu11 2.600 . S
C3 C5 1.410 . S
C3 C6 1.361 1_455 S
C3 H23 0.924 1_455 S
C4 C1 1.405 . S
C4 C6 1.403 1_455 S
C4 C10 1.439 1_455 S
C5 N2 1.319 . S
C5 C3 1.410 . S
C5 H16 0.930 . S
C6 C3 1.361 1_655 S
C6 C4 1.403 1_655 S
C6 H27 0.929 . S
C7 C8 1.430 . S
C7 C9 1.387 . S
C7 C13 1.404 . S
C8 C1 1.448 . S
C8 C7 1.430 . S
C8 N12 1.351 . S
C9 C7 1.387 . S
C9 C10 1.374 1_455 S
C9 H24 0.918 1_455 S
C10 C4 1.439 1_655 S
C10 C9 1.374 1_655 S
C10 H25 0.931 . S
Eu11 N2 2.600 . S
Eu11 N12 2.562 . S
Eu11 O46 2.335 . S
Eu11 O49 2.372 . S
Eu11 O50 2.462 . S
Eu11 O51 2.373 . S
Eu11 O53 2.432 . S
Eu11 O54 2.291 . S
Eu11 C75 2.787 . S
N12 C8 1.351 . S
N12 Eu11 2.562 . S
N12 C14 1.325 . S
C13 C7 1.404 . S
C13 C15 1.366 . S
C13 H21 0.930 . S
C14 N12 1.325 . S
C14 C15 1.416 . S
C14 H20 0.929 . S
C15 C13 1.366 . S
C15 C14 1.416 . S
C15 H17 0.930 . S
H16 C5 0.930 . S
H17 C15 0.930 . S
H18 C33 0.930 . S
H19 C40 0.930 . S
H20 C14 0.929 . S
H21 C13 0.930 . S
H22 C36 0.929 . S
H23 C3 0.924 1_655 S
H24 C9 0.918 1_655 S
H25 C10 0.931 . S
H26 C31 0.931 . S
H27 C6 0.929 . S
H28 C39 0.930 . S
N29 Eu0 2.600 . S
N29 C30 1.365 . S
N29 C33 1.319 . S
C30 N29 1.365 . S
C30 C32 1.405 . S
C30 C38 1.448 . S
C31 H26 0.931 . S
C31 C33 1.397 . S
C31 C34 1.367 . S
C32 C30 1.405 . S
C32 C34 1.403 . S
C32 C65 1.439 . S
C33 H18 0.930 . S
C33 N29 1.319 . S
C33 C31 1.397 . S
C34 C31 1.367 . S
C34 C32 1.403 . S
C34 H41 0.929 . S
N35 Eu0 2.562 . S
N35 C36 1.325 . S
N35 C38 1.351 . S
C36 H22 0.929 . S
C36 N35 1.325 . S
C36 C40 1.416 . S
C37 C38 1.430 . S
C37 C39 1.404 . S
C37 C66 1.387 . S
C38 C30 1.448 . S
C38 N35 1.351 . S
C38 C37 1.430 . S
C39 H28 0.930 . S
C39 C37 1.404 . S
C39 C40 1.366 . S
C40 H19 0.930 . S
C40 C36 1.416 . S
C40 C39 1.366 . S
H41 C34 0.929 . S
H42 C65 0.931 . S
H43 C66 0.931 . S
O44 Eu0 2.462 . S
O44 C64 1.252 . S
O45 Eu0 2.373 . S
O45 C56 1.249 . S
O46 Eu11 2.335 . S
O46 C56 1.264 . S
O47 Eu0 2.432 . S
O47 C64 1.268 . S
O48 Eu0 2.291 . S
O48 C63 1.255 . S
O49 Eu11 2.372 . S
O49 C63 1.257 . S
O50 Eu11 2.462 . S
O50 C75 1.252 . S
O51 Eu11 2.373 . S
O51 C67 1.249 . S
O52 Eu0 2.335 . S
O52 C67 1.264 . S
O53 Eu11 2.432 . S
O53 C75 1.268 . S
O54 Eu11 2.291 . S
O54 C74 1.255 . S
O55 Eu0 2.372 . S
O55 C74 1.257 . S
C56 O45 1.249 . S
C56 O46 1.264 . S
C57 C60 1.382 . S
C57 C62 1.390 . S
C57 C64 1.506 . S
C58 C59 1.398 . S
C58 C62 1.392 . S
C59 C58 1.398 . S
C59 C61 1.372 . S
C59 H76 0.931 . S
C60 C57 1.382 . S
C60 C61 1.390 . S
C60 H77 0.931 . S
C61 C59 1.372 . S
C61 C60 1.390 . S
C61 H78 0.929 . S
C62 C57 1.390 . S
C62 C58 1.392 . S
C62 H79 0.930 . S
C63 O48 1.255 . S
C63 O49 1.257 . S
C64 Eu0 2.787 . S
C64 O44 1.252 . S
C64 O47 1.268 . S
C64 C57 1.506 . S
C65 C32 1.439 . S
C65 H42 0.931 . S
C65 C66 1.374 . S
C66 C37 1.387 . S
C66 H43 0.931 . S
C66 C65 1.374 . S
C67 O51 1.249 . S
C67 O52 1.264 . S
C68 C71 1.382 . S
C68 C72 1.390 . S
C68 C75 1.506 . S
C69 C70 1.398 . S
C69 C72 1.392 . S
C70 C69 1.398 . S
C70 C73 1.372 . S
C70 H80 0.931 . S
C71 C68 1.382 . S
C71 C73 1.390 . S
C71 H81 0.931 . S
C72 C68 1.390 . S
C72 C69 1.392 . S
C72 H82 0.930 . S
C73 C70 1.372 . S
C73 C71 1.390 . S
C73 H83 0.929 . S
C74 O54 1.255 . S
C74 O55 1.257 . S
C75 Eu11 2.787 . S
C75 O50 1.252 . S
C75 O53 1.268 . S
C75 C68 1.506 . S
H76 C59 0.931 . S
H77 C60 0.931 . S
H78 C61 0.929 . S
H79 C62 0.930 . S
H80 C70 0.931 . S
H81 C71 0.931 . S
H82 C72 0.930 . S
H83 C73 0.929 . S
Eu84 N113 2.600 . S
Eu84 N119 2.562 . S
Eu84 O128 2.462 . S
Eu84 O129 2.373 . S
Eu84 O131 2.432 . S
Eu84 O132 2.291 . S
Eu84 O136 2.335 . S
Eu84 O139 2.372 1_455 S
Eu84 C148 2.787 . S
C85 N86 1.365 . S
C85 C88 1.405 . S
C85 C92 1.448 . S
N86 C85 1.365 . S
N86 C89 1.319 . S
N86 Eu95 2.600 . S
C87 C89 1.397 . S
C87 C90 1.367 . S
C87 H107 0.931 1_655 S
C88 C85 1.405 . S
C88 C90 1.403 . S
C88 C94 1.439 . S
C89 N86 1.319 . S
C89 C87 1.397 . S
C89 H100 0.930 1_655 S
C90 C87 1.367 . S
C90 C88 1.403 . S
C90 H111 0.929 . S
C91 C92 1.430 . S
C91 C93 1.387 . S
C91 C97 1.404 . S
C92 C85 1.448 . S
C92 C91 1.430 . S
C92 N96 1.351 . S
C93 C91 1.387 . S
C93 C94 1.374 . S
C93 H108 0.931 . S
C94 C88 1.439 . S
C94 C93 1.374 . S
C94 H109 0.931 . S
Eu95 N86 2.600 . S
Eu95 N96 2.562 . S
Eu95 O130 2.335 1_655 S
Eu95 O133 2.372 1_655 S
Eu95 O134 2.462 . S
Eu95 O135 2.373 . S
Eu95 O137 2.432 . S
Eu95 O138 2.291 . S
Eu95 C159 2.787 . S
N96 C92 1.351 . S
N96 Eu95 2.562 . S
N96 C98 1.325 . S
C97 C91 1.404 . S
C97 C99 1.366 . S
C97 H105 0.930 . S
C98 N96 1.325 . S
C98 C99 1.416 . S
C98 H104 0.929 . S
C99 C97 1.366 . S
C99 C98 1.416 . S
C99 H101 0.930 . S
H100 C89 0.930 1_455 S
H101 C99 0.930 . S
H102 C117 0.930 . S
H103 C124 0.930 . S
H104 C98 0.929 . S
H105 C97 0.930 . S
H106 C120 0.929 . S
H107 C87 0.931 1_455 S
H108 C93 0.931 . S
H109 C94 0.931 . S
H110 C115 0.931 1_545 S
H111 C90 0.929 . S
H112 C123 0.930 . S
N113 Eu84 2.600 . S
N113 C114 1.365 . S
N113 C117 1.319 . S
C114 N113 1.365 . S
C114 C116 1.405 . S
C114 C122 1.448 . S
C115 H110 0.931 1_565 S
C115 C117 1.397 . S
C115 C118 1.367 1_565 S
C116 C114 1.405 . S
C116 C118 1.403 1_565 S
C116 C149 1.439 1_565 S
C117 H102 0.930 . S
C117 N113 1.319 . S
C117 C115 1.397 . S
C118 C115 1.367 1_545 S
C118 C116 1.403 1_545 S
C118 H125 0.929 . S
N119 Eu84 2.562 . S
N119 C120 1.325 . S
N119 C122 1.351 . S
C120 H106 0.929 . S
C120 N119 1.325 . S
C120 C124 1.416 . S
C121 C122 1.430 . S
C121 C123 1.404 . S
C121 C150 1.387 . S
C122 C114 1.448 . S
C122 N119 1.351 . S
C122 C121 1.430 . S
C123 H112 0.930 . S
C123 C121 1.404 . S
C123 C124 1.366 . S
C124 H103 0.930 . S
C124 C120 1.416 . S
C124 C123 1.366 . S
H125 C118 0.929 . S
H126 C149 0.931 . S
H127 C150 0.937 . S
O128 Eu84 2.462 . S
O128 C148 1.252 . S
O129 Eu84 2.373 . S
O129 C140 1.249 . S
O130 Eu95 2.335 1_455 S
O130 C140 1.264 . S
O131 Eu84 2.432 . S
O131 C148 1.268 . S
O132 Eu84 2.291 . S
O132 C147 1.255 . S
O133 Eu95 2.372 1_455 S
O133 C147 1.257 . S
O134 Eu95 2.462 . S
O134 C159 1.252 . S
O135 Eu95 2.373 . S
O135 C151 1.249 . S
O136 Eu84 2.335 . S
O136 C151 1.264 1_455 S
O137 Eu95 2.432 . S
O137 C159 1.268 . S
O138 Eu95 2.291 . S
O138 C158 1.255 . S
O139 Eu84 2.372 1_655 S
O139 C158 1.257 . S
C140 O129 1.249 . S
C140 O130 1.264 . S
C141 C144 1.382 . S
C141 C146 1.390 . S
C141 C148 1.506 . S
C142 C143 1.398 . S
C142 C146 1.392 . S
C143 C142 1.398 . S
C143 C145 1.372 . S
C143 H160 0.931 . S
C144 C141 1.382 . S
C144 C145 1.390 . S
C144 H161 0.931 . S
C145 C143 1.372 . S
C145 C144 1.390 . S
C145 H162 0.929 . S
C146 C141 1.390 . S
C146 C142 1.392 . S
C146 H163 0.930 . S
C147 O132 1.255 . S
C147 O133 1.257 . S
C148 Eu84 2.787 . S
C148 O128 1.252 . S
C148 O131 1.268 . S
C148 C141 1.506 . S
C149 C116 1.439 1_545 S
C149 H126 0.931 . S
C149 C150 1.374 1_545 S
C150 C121 1.387 . S
C150 H127 0.937 . S
C150 C149 1.374 1_565 S
C151 O135 1.249 . S
C151 O136 1.264 1_655 S
C152 C155 1.382 . S
C152 C156 1.390 . S
C152 C159 1.506 . S
C153 C154 1.398 . S
C153 C156 1.392 . S
C154 C153 1.398 . S
C154 C157 1.372 . S
C154 H164 0.931 . S
C155 C152 1.382 . S
C155 C157 1.390 . S
C155 H165 0.931 . S
C156 C152 1.390 . S
C156 C153 1.392 . S
C156 H166 0.930 . S
C157 C154 1.372 . S
C157 C155 1.390 . S
C157 H167 0.929 . S
C158 O138 1.255 . S
C158 O139 1.257 . S
C159 Eu95 2.787 . S
C159 O134 1.252 . S
C159 O137 1.268 . S
C159 C152 1.506 . S
H160 C143 0.931 . S
H161 C144 0.931 . S
H162 C145 0.929 . S
H163 C146 0.930 . S
H164 C154 0.931 . S
H165 C155 0.931 . S
H166 C156 0.930 . S
H167 C157 0.929 . S
Eu168 N197 2.600 . S
Eu168 N203 2.562 . S
Eu168 O212 2.462 . S
Eu168 O213 2.373 . S
Eu168 O215 2.432 . S
Eu168 O216 2.291 . S
Eu168 O220 2.335 . S
Eu168 O223 2.372 1_556 S
Eu168 C232 2.787 . S
C169 N170 1.365 . S
C169 C172 1.405 . S
C169 C176 1.448 . S
N170 C169 1.365 . S
N170 C173 1.319 . S
N170 Eu179 2.600 . S
C171 C173 1.397 . S
C171 C174 1.367 . S
C171 H191 0.931 1_554 S
C172 C169 1.405 . S
C172 C174 1.403 . S
C172 C178 1.439 . S
C173 N170 1.319 . S
C173 C171 1.397 . S
C173 H184 0.930 1_554 S
C174 C171 1.367 . S
C174 C172 1.403 . S
C174 H195 0.929 . S
C175 C176 1.430 . S
C175 C177 1.387 . S
C175 C181 1.404 . S
C176 C169 1.448 . S
C176 C175 1.430 . S
C176 N180 1.351 . S
C177 C175 1.387 . S
C177 C178 1.374 . S
C177 H192 0.931 . S
C178 C172 1.439 . S
C178 C177 1.374 . S
C178 H193 0.931 . S
Eu179 N170 2.600 . S
Eu179 N180 2.562 . S
Eu179 O214 2.335 1_554 S
Eu179 O217 2.372 1_554 S
Eu179 O218 2.462 . S
Eu179 O219 2.373 . S
Eu179 O221 2.432 . S
Eu179 O222 2.291 . S
Eu179 C243 2.787 . S
N180 C176 1.351 . S
N180 Eu179 2.562 . S
N180 C182 1.325 . S
C181 C175 1.404 . S
C181 C183 1.366 . S
C181 H189 0.930 . S
C182 N180 1.325 . S
C182 C183 1.416 . S
C182 H188 0.929 . S
C183 C181 1.366 . S
C183 C182 1.416 . S
C183 H185 0.930 . S
H184 C173 0.930 1_556 S
H185 C183 0.930 . S
H186 C201 0.930 . S
H187 C208 0.930 . S
H188 C182 0.929 . S
H189 C181 0.930 . S
H190 C204 0.929 . S
H191 C171 0.931 1_556 S
H192 C177 0.931 . S
H193 C178 0.931 . S
H194 C199 0.931 . S
H195 C174 0.929 . S
H196 C207 0.930 . S
N197 Eu168 2.600 . S
N197 C198 1.365 . S
N197 C201 1.319 . S
C198 N197 1.365 . S
C198 C200 1.405 . S
C198 C206 1.448 . S
C199 H194 0.931 . S
C199 C201 1.397 . S
C199 C202 1.367 . S
C200 C198 1.405 . S
C200 C202 1.403 . S
C200 C233 1.439 . S
C201 H186 0.930 . S
C201 N197 1.319 . S
C201 C199 1.397 . S
C202 C199 1.367 . S
C202 C200 1.403 . S
C202 H209 0.929 . S
N203 Eu168 2.562 . S
N203 C204 1.325 . S
N203 C206 1.351 . S
C204 H190 0.929 . S
C204 N203 1.325 . S
C204 C208 1.416 . S
C205 C206 1.430 . S
C205 C207 1.404 . S
C205 C234 1.387 . S
C206 C198 1.448 . S
C206 N203 1.351 . S
C206 C205 1.430 . S
C207 H196 0.930 . S
C207 C205 1.404 . S
C207 C208 1.366 . S
C208 H187 0.930 . S
C208 C204 1.416 . S
C208 C207 1.366 . S
H209 C202 0.929 . S
H210 C233 0.931 . S
H211 C234 0.931 . S
O212 Eu168 2.462 . S
O212 C232 1.252 . S
O213 Eu168 2.373 . S
O213 C224 1.249 . S
O214 Eu179 2.335 1_556 S
O214 C224 1.264 . S
O215 Eu168 2.432 . S
O215 C232 1.268 . S
O216 Eu168 2.291 . S
O216 C231 1.255 . S
O217 Eu179 2.372 1_556 S
O217 C231 1.257 . S
O218 Eu179 2.462 . S
O218 C243 1.252 . S
O219 Eu179 2.373 . S
O219 C235 1.249 . S
O220 Eu168 2.335 . S
O220 C235 1.264 1_556 S
O221 Eu179 2.432 . S
O221 C243 1.268 . S
O222 Eu179 2.291 . S
O222 C242 1.255 . S
O223 Eu168 2.372 1_554 S
O223 C242 1.257 . S
C224 O213 1.249 . S
C224 O214 1.264 . S
C225 C228 1.382 . S
C225 C230 1.390 . S
C225 C232 1.506 . S
C226 C227 1.398 . S
C226 C230 1.392 . S
C227 C226 1.398 . S
C227 C229 1.372 . S
C227 H244 0.931 . S
C228 C225 1.382 . S
C228 C229 1.390 . S
C228 H245 0.931 . S
C229 C227 1.372 . S
C229 C228 1.390 . S
C229 H246 0.929 . S
C230 C225 1.390 . S
C230 C226 1.392 . S
C230 H247 0.930 . S
C231 O216 1.255 . S
C231 O217 1.257 . S
C232 Eu168 2.787 . S
C232 O212 1.252 . S
C232 O215 1.268 . S
C232 C225 1.506 . S
C233 C200 1.439 . S
C233 H210 0.931 . S
C233 C234 1.374 . S
C234 C205 1.387 . S
C234 H211 0.931 . S
C234 C233 1.374 . S
C235 O219 1.249 . S
C235 O220 1.264 1_554 S
C236 C239 1.382 . S
C236 C240 1.390 . S
C236 C243 1.506 . S
C237 C238 1.398 . S
C237 C240 1.392 . S
C238 C237 1.398 . S
C238 C241 1.372 . S
C238 H248 0.931 . S
C239 C236 1.382 . S
C239 C241 1.390 . S
C239 H249 0.931 . S
C240 C236 1.390 . S
C240 C237 1.392 . S
C240 H250 0.930 . S
C241 C238 1.372 . S
C241 C239 1.390 . S
C241 H251 0.929 . S
C242 O222 1.255 . S
C242 O223 1.257 . S
C243 Eu179 2.787 . S
C243 O218 1.252 . S
C243 O221 1.268 . S
C243 C236 1.506 . S
H244 C227 0.931 . S
H245 C228 0.931 . S
H246 C229 0.929 . S
H247 C230 0.930 . S
H248 C238 0.931 . S
H249 C239 0.931 . S
H250 C240 0.930 . S
H251 C241 0.929 . S
Eu252 N281 2.600 . S
Eu252 N287 2.562 . S
Eu252 O296 2.462 . S
Eu252 O297 2.373 . S
Eu252 O299 2.432 . S
Eu252 O300 2.291 . S
Eu252 O304 2.335 . S
Eu252 O307 2.372 . S
Eu252 C316 2.787 . S
C253 N254 1.365 . S
C253 C256 1.405 . S
C253 C260 1.448 . S
N254 C253 1.365 . S
N254 C257 1.319 . S
N254 Eu263 2.600 . S
C255 C257 1.397 . S
C255 C258 1.367 . S
C255 H275 0.931 . S
C256 C253 1.405 . S
C256 C258 1.403 . S
C256 C262 1.439 . S
C257 N254 1.319 . S
C257 C255 1.397 . S
C257 H268 0.930 . S
C258 C255 1.367 . S
C258 C256 1.403 . S
C258 H279 0.929 . S
C259 C260 1.430 . S
C259 C261 1.387 . S
C259 C265 1.404 . S
C260 C253 1.448 . S
C260 C259 1.430 . S
C260 N264 1.351 . S
C261 C259 1.387 . S
C261 C262 1.374 . S
C261 H276 0.931 . S
C262 C256 1.439 . S
C262 C261 1.374 . S
C262 H277 0.931 . S
Eu263 N254 2.600 . S
Eu263 N264 2.562 . S
Eu263 O298 2.335 . S
Eu263 O301 2.372 . S
Eu263 O302 2.462 . S
Eu263 O303 2.373 . S
Eu263 O305 2.432 . S
Eu263 O306 2.291 . S
Eu263 C327 2.787 . S
N264 C260 1.351 . S
N264 Eu263 2.562 . S
N264 C266 1.325 . S
C265 C259 1.404 . S
C265 C267 1.366 . S
C265 H273 0.930 . S
C266 N264 1.325 . S
C266 C267 1.416 . S
C266 H272 0.929 . S
C267 C265 1.366 . S
C267 C266 1.416 . S
C267 H269 0.930 . S
H268 C257 0.930 . S
H269 C267 0.930 . S
H270 C285 0.930 . S
H271 C292 0.930 . S
H272 C266 0.929 . S
H273 C265 0.930 . S
H274 C288 0.929 . S
H275 C255 0.931 . S
H276 C261 0.931 . S
H277 C262 0.931 . S
H278 C283 0.931 1_565 S
H279 C258 0.929 . S
H280 C291 0.930 . S
N281 Eu252 2.600 . S
N281 C282 1.365 . S
N281 C285 1.319 . S
C282 N281 1.365 . S
C282 C284 1.405 . S
C282 C290 1.448 . S
C283 H278 0.931 1_545 S
C283 C285 1.397 . S
C283 C286 1.367 1_545 S
C284 C282 1.405 . S
C284 C286 1.403 1_545 S
C284 C317 1.439 1_545 S
C285 H270 0.930 . S
C285 N281 1.319 . S
C285 C283 1.397 . S
C286 C283 1.367 1_565 S
C286 C284 1.403 1_565 S
C286 H293 0.929 . S
N287 Eu252 2.562 . S
N287 C288 1.325 . S
N287 C290 1.351 . S
C288 H274 0.929 . S
C288 N287 1.325 . S
C288 C292 1.416 . S
C289 C290 1.430 . S
C289 C291 1.404 . S
C289 C318 1.387 . S
C290 C282 1.448 . S
C290 N287 1.351 . S
C290 C289 1.430 . S
C291 H280 0.930 . S
C291 C289 1.404 . S
C291 C292 1.366 . S
C292 H271 0.930 . S
C292 C288 1.416 . S
C292 C291 1.366 . S
H293 C286 0.929 . S
H294 C317 0.931 . S
H295 C318 0.946 . S
O296 Eu252 2.462 . S
O296 C316 1.252 . S
O297 Eu252 2.373 . S
O297 C308 1.249 . S
O298 Eu263 2.335 . S
O298 C308 1.264 . S
O299 Eu252 2.432 . S
O299 C316 1.268 . S
O300 Eu252 2.291 . S
O300 C315 1.255 . S
O301 Eu263 2.372 . S
O301 C315 1.257 . S
O302 Eu263 2.462 . S
O302 C327 1.252 . S
O303 Eu263 2.373 . S
O303 C319 1.249 . S
O304 Eu252 2.335 . S
O304 C319 1.264 . S
O305 Eu263 2.432 . S
O305 C327 1.268 . S
O306 Eu263 2.291 . S
O306 C326 1.255 . S
O307 Eu252 2.372 . S
O307 C326 1.257 . S
C308 O297 1.249 . S
C308 O298 1.264 . S
C309 C312 1.382 . S
C309 C314 1.390 . S
C309 C316 1.506 . S
C310 C311 1.398 . S
C310 C314 1.392 . S
C311 C310 1.398 . S
C311 C313 1.372 . S
C311 H328 0.931 . S
C312 C309 1.382 . S
C312 C313 1.390 . S
C312 H329 0.931 . S
C313 C311 1.372 . S
C313 C312 1.390 . S
C313 H330 0.929 . S
C314 C309 1.390 . S
C314 C310 1.392 . S
C314 H331 0.930 . S
C315 O300 1.255 . S
C315 O301 1.257 . S
C316 Eu252 2.787 . S
C316 O296 1.252 . S
C316 O299 1.268 . S
C316 C309 1.506 . S
C317 C284 1.439 1_565 S
C317 H294 0.931 . S
C317 C318 1.374 1_565 S
C318 C289 1.387 . S
C318 H295 0.946 . S
C318 C317 1.374 1_545 S
C319 O303 1.249 . S
C319 O304 1.264 . S
C320 C323 1.382 . S
C320 C324 1.390 . S
C320 C327 1.506 . S
C321 C322 1.398 . S
C321 C324 1.392 . S
C322 C321 1.398 . S
C322 C325 1.372 . S
C322 H332 0.931 . S
C323 C320 1.382 . S
C323 C325 1.390 . S
C323 H333 0.931 . S
C324 C320 1.390 . S
C324 C321 1.392 . S
C324 H334 0.930 . S
C325 C322 1.372 . S
C325 C323 1.390 . S
C325 H335 0.929 . S
C326 O306 1.255 . S
C326 O307 1.257 . S
C327 Eu263 2.787 . S
C327 O302 1.252 . S
C327 O305 1.268 . S
C327 C320 1.506 . S
H328 C311 0.931 . S
H329 C312 0.931 . S
H330 C313 0.929 . S
H331 C314 0.930 . S
H332 C322 0.931 . S
H333 C323 0.931 . S
H334 C324 0.930 . S
H335 C325 0.929 . S
Eu336 N365 2.600 . S
Eu336 N371 2.562 . S
Eu336 O380 2.462 . S
Eu336 O381 2.373 . S
Eu336 O383 2.432 . S
Eu336 O384 2.291 . S
Eu336 O388 2.335 . S
Eu336 O391 2.372 . S
Eu336 C400 2.787 . S
C337 N338 1.365 . S
C337 C340 1.405 . S
C337 C344 1.448 . S
N338 C337 1.365 . S
N338 C341 1.319 . S
N338 Eu347 2.600 . S
C339 C341 1.397 . S
C339 C342 1.367 . S
C339 H359 0.931 . S
C340 C337 1.405 . S
C340 C342 1.403 . S
C340 C346 1.439 . S
C341 N338 1.319 . S
C341 C339 1.397 . S
C341 H352 0.930 . S
C342 C339 1.367 . S
C342 C340 1.403 . S
C342 H363 0.929 . S
C343 C344 1.430 . S
C343 C345 1.387 . S
C343 C349 1.404 . S
C344 C337 1.448 . S
C344 C343 1.430 . S
C344 N348 1.351 . S
C345 C343 1.387 . S
C345 C346 1.374 . S
C345 H360 0.931 . S
C346 C340 1.439 . S
C346 C345 1.374 . S
C346 H361 0.931 . S
Eu347 N338 2.600 . S
Eu347 N348 2.562 . S
Eu347 O382 2.335 . S
Eu347 O385 2.372 . S
Eu347 O386 2.462 . S
Eu347 O387 2.373 . S
Eu347 O389 2.432 . S
Eu347 O390 2.291 . S
Eu347 C411 2.787 . S
N348 C344 1.351 . S
N348 Eu347 2.562 . S
N348 C350 1.325 . S
C349 C343 1.404 . S
C349 C351 1.366 . S
C349 H357 0.930 . S
C350 N348 1.325 . S
C350 C351 1.416 . S
C350 H356 0.929 . S
C351 C349 1.366 . S
C351 C350 1.416 . S
C351 H353 0.930 . S
H352 C341 0.930 . S
H353 C351 0.930 . S
H354 C369 0.930 . S
H355 C376 0.930 . S
H356 C350 0.929 . S
H357 C349 0.930 . S
H358 C372 0.929 . S
H359 C339 0.931 . S
H360 C345 0.931 . S
H361 C346 0.931 . S
H362 C367 0.931 . S
H363 C342 0.929 . S
H364 C375 0.930 . S
N365 Eu336 2.600 . S
N365 C366 1.365 . S
N365 C369 1.319 . S
C366 N365 1.365 . S
C366 C368 1.405 . S
C366 C374 1.448 . S
C367 H362 0.931 . S
C367 C369 1.397 . S
C367 C370 1.367 . S
C368 C366 1.405 . S
C368 C370 1.403 . S
C368 C401 1.439 . S
C369 H354 0.930 . S
C369 N365 1.319 . S
C369 C367 1.397 . S
C370 C367 1.367 . S
C370 C368 1.403 . S
C370 H377 0.929 . S
N371 Eu336 2.562 . S
N371 C372 1.325 . S
N371 C374 1.351 . S
C372 H358 0.929 . S
C372 N371 1.325 . S
C372 C376 1.416 . S
C373 C374 1.430 . S
C373 C375 1.404 . S
C373 C402 1.387 . S
C374 C366 1.448 . S
C374 N371 1.351 . S
C374 C373 1.430 . S
C375 H364 0.930 . S
C375 C373 1.404 . S
C375 C376 1.366 . S
C376 H355 0.930 . S
C376 C372 1.416 . S
C376 C375 1.366 . S
H377 C370 0.929 . S
H378 C401 0.931 . S
H379 C402 0.931 . S
O380 Eu336 2.462 . S
O380 C400 1.252 . S
O381 Eu336 2.373 . S
O381 C392 1.249 . S
O382 Eu347 2.335 . S
O382 C392 1.264 . S
O383 Eu336 2.432 . S
O383 C400 1.268 . S
O384 Eu336 2.291 . S
O384 C399 1.255 . S
O385 Eu347 2.372 . S
O385 C399 1.257 . S
O386 Eu347 2.462 . S
O386 C411 1.252 . S
O387 Eu347 2.373 . S
O387 C403 1.249 . S
O388 Eu336 2.335 . S
O388 C403 1.264 . S
O389 Eu347 2.432 . S
O389 C411 1.268 . S
O390 Eu347 2.291 . S
O390 C410 1.255 . S
O391 Eu336 2.372 . S
O391 C410 1.257 . S
C392 O381 1.249 . S
C392 O382 1.264 . S
C393 C396 1.382 . S
C393 C398 1.390 . S
C393 C400 1.506 . S
C394 C395 1.398 . S
C394 C398 1.392 . S
C395 C394 1.398 . S
C395 C397 1.372 . S
C395 H412 0.931 . S
C396 C393 1.382 . S
C396 C397 1.390 . S
C396 H413 0.931 . S
C397 C395 1.372 . S
C397 C396 1.390 . S
C397 H414 0.929 . S
C398 C393 1.390 . S
C398 C394 1.392 . S
C398 H415 0.930 . S
C399 O384 1.255 . S
C399 O385 1.257 . S
C400 Eu336 2.787 . S
C400 O380 1.252 . S
C400 O383 1.268 . S
C400 C393 1.506 . S
C401 C368 1.439 . S
C401 H378 0.931 . S
C401 C402 1.374 . S
C402 C373 1.387 . S
C402 H379 0.931 . S
C402 C401 1.374 . S
C403 O387 1.249 . S
C403 O388 1.264 . S
C404 C407 1.382 . S
C404 C408 1.390 . S
C404 C411 1.506 . S
C405 C406 1.398 . S
C405 C408 1.392 . S
C406 C405 1.398 . S
C406 C409 1.372 . S
C406 H416 0.931 . S
C407 C404 1.382 . S
C407 C409 1.390 . S
C407 H417 0.931 . S
C408 C404 1.390 . S
C408 C405 1.392 . S
C408 H418 0.930 . S
C409 C406 1.372 . S
C409 C407 1.390 . S
C409 H419 0.929 . S
C410 O390 1.255 . S
C410 O391 1.257 . S
C411 Eu347 2.787 . S
C411 O386 1.252 . S
C411 O389 1.268 . S
C411 C404 1.506 . S
H412 C395 0.931 . S
H413 C396 0.931 . S
H414 C397 0.929 . S
H415 C398 0.930 . S
H416 C406 0.931 . S
H417 C407 0.931 . S
H418 C408 0.930 . S
H419 C409 0.929 . S
Eu420 N449 2.600 . S
Eu420 N455 2.565 . S
Eu420 O464 2.462 . S
Eu420 O465 2.373 1_455 S
Eu420 O467 2.432 . S
Eu420 O468 2.291 1_455 S
Eu420 O472 2.335 . S
Eu420 O475 2.372 . S
Eu420 C484 2.787 . S
C421 N422 1.365 . S
C421 C424 1.405 . S
C421 C428 1.448 . S
N422 C421 1.365 . S
N422 C425 1.319 . S
N422 Eu431 2.600 . S
C423 C425 1.397 . S
C423 C426 1.367 . S
C423 H443 0.931 . S
C424 C421 1.405 . S
C424 C426 1.403 . S
C424 C430 1.439 . S
C425 N422 1.319 . S
C425 C423 1.397 . S
C425 H436 0.930 . S
C426 C423 1.367 . S
C426 C424 1.403 . S
C426 H447 0.929 . S
C427 C428 1.430 . S
C427 C429 1.387 . S
C427 C433 1.404 . S
C428 C421 1.448 . S
C428 C427 1.430 . S
C428 N432 1.351 . S
C429 C427 1.387 . S
C429 C430 1.374 . S
C429 H444 0.931 . S
C430 C424 1.439 . S
C430 C429 1.374 . S
C430 H445 0.931 . S
Eu431 N422 2.600 . S
Eu431 N432 2.562 . S
Eu431 O466 2.335 . S
Eu431 O469 2.372 . S
Eu431 O470 2.462 . S
Eu431 O471 2.373 . S
Eu431 O473 2.432 . S
Eu431 O474 2.291 . S
Eu431 C495 2.787 . S
N432 C428 1.351 . S
N432 Eu431 2.562 . S
N432 C434 1.325 . S
C433 C427 1.404 . S
C433 C435 1.366 . S
C433 H441 0.930 1_655 S
C434 N432 1.325 . S
C434 C435 1.416 . S
C434 H440 0.929 . S
C435 C433 1.366 . S
C435 C434 1.416 . S
C435 H437 0.930 1_655 S
H436 C425 0.930 . S
H437 C435 0.930 1_455 S
H438 C453 0.930 . S
H439 C460 0.930 . S
H440 C434 0.929 . S
H441 C433 0.930 1_455 S
H442 C456 0.929 . S
H443 C423 0.931 . S
H444 C429 0.931 . S
H445 C430 0.931 . S
H446 C451 0.931 . S
H447 C426 0.929 . S
H448 C459 0.930 . S
N449 Eu420 2.600 . S
N449 C450 1.365 . S
N449 C453 1.319 . S
C450 N449 1.365 . S
C450 C452 1.405 . S
C450 C458 1.448 . S
C451 H446 0.931 . S
C451 C453 1.397 . S
C451 C454 1.367 . S
C452 C450 1.405 . S
C452 C454 1.403 . S
C452 C485 1.439 . S
C453 H438 0.930 . S
C453 N449 1.319 . S
C453 C451 1.397 . S
C454 C451 1.367 . S
C454 C452 1.403 . S
C454 H461 0.929 . S
N455 Eu420 2.565 . S
N455 C456 1.320 1_455 S
N455 C458 1.352 . S
C456 H442 0.929 . S
C456 N455 1.320 1_655 S
C456 C460 1.416 . S
C457 C458 1.430 1_655 S
C457 C459 1.404 . S
C457 C486 1.387 . S
C458 C450 1.448 . S
C458 N455 1.352 . S
C458 C457 1.430 1_455 S
C459 H448 0.930 . S
C459 C457 1.404 . S
C459 C460 1.366 . S
C460 H439 0.930 . S
C460 C456 1.416 . S
C460 C459 1.366 . S
H461 C454 0.929 . S
H462 C485 0.931 . S
H463 C486 0.931 . S
O464 Eu420 2.462 . S
O464 C484 1.252 . S
O465 Eu420 2.373 1_655 S
O465 C476 1.249 . S
O466 Eu431 2.335 . S
O466 C476 1.264 . S
O467 Eu420 2.432 . S
O467 C484 1.268 . S
O468 Eu420 2.291 1_655 S
O468 C483 1.255 . S
O469 Eu431 2.372 . S
O469 C483 1.257 . S
O470 Eu431 2.462 . S
O470 C495 1.252 . S
O471 Eu431 2.373 . S
O471 C487 1.249 1_655 S
O472 Eu420 2.335 . S
O472 C487 1.264 . S
O473 Eu431 2.432 . S
O473 C495 1.268 . S
O474 Eu431 2.291 . S
O474 C494 1.255 1_655 S
O475 Eu420 2.372 . S
O475 C494 1.257 . S
C476 O465 1.249 . S
C476 O466 1.264 . S
C477 C480 1.382 . S
C477 C482 1.390 . S
C477 C484 1.506 . S
C478 C479 1.398 . S
C478 C482 1.392 . S
C479 C478 1.398 . S
C479 C481 1.372 . S
C479 H496 0.931 . S
C480 C477 1.382 . S
C480 C481 1.390 . S
C480 H497 0.931 . S
C481 C479 1.372 . S
C481 C480 1.390 . S
C481 H498 0.929 . S
C482 C477 1.390 . S
C482 C478 1.392 . S
C482 H499 0.930 . S
C483 O468 1.255 . S
C483 O469 1.257 . S
C484 Eu420 2.787 . S
C484 O464 1.252 . S
C484 O467 1.268 . S
C484 C477 1.506 . S
C485 C452 1.439 . S
C485 H462 0.931 . S
C485 C486 1.374 1_455 S
C486 C457 1.387 . S
C486 H463 0.931 . S
C486 C485 1.374 1_655 S
C487 O471 1.249 1_455 S
C487 O472 1.264 . S
C488 C491 1.382 . S
C488 C492 1.390 . S
C488 C495 1.506 . S
C489 C490 1.398 . S
C489 C492 1.392 . S
C490 C489 1.398 . S
C490 C493 1.372 . S
C490 H500 0.931 . S
C491 C488 1.382 . S
C491 C493 1.390 . S
C491 H501 0.931 . S
C492 C488 1.390 . S
C492 C489 1.392 . S
C492 H502 0.930 . S
C493 C490 1.372 . S
C493 C491 1.390 . S
C493 H503 0.929 . S
C494 O474 1.255 1_455 S
C494 O475 1.257 . S
C495 Eu431 2.787 . S
C495 O470 1.252 . S
C495 O473 1.268 . S
C495 C488 1.506 . S
H496 C479 0.931 . S
H497 C480 0.931 . S
H498 C481 0.929 . S
H499 C482 0.930 . S
H500 C490 0.931 . S
H501 C491 0.931 . S
H502 C492 0.930 . S
H503 C493 0.929 . S
Eu504 N533 2.600 . S
Eu504 N539 2.562 . S
Eu504 O548 2.462 . S
Eu504 O549 2.373 1_556 S
Eu504 O551 2.432 . S
Eu504 O552 2.291 1_556 S
Eu504 O556 2.335 . S
Eu504 O559 2.372 . S
Eu504 C568 2.787 . S
C505 N506 1.365 . S
C505 C508 1.405 . S
C505 C512 1.448 . S
N506 C505 1.365 . S
N506 C509 1.319 . S
N506 Eu515 2.600 . S
C507 C509 1.397 . S
C507 C510 1.367 1_655 S
C507 H527 0.931 1_655 S
C508 C505 1.405 . S
C508 C510 1.403 1_655 S
C508 C514 1.439 1_655 S
C509 N506 1.319 . S
C509 C507 1.397 . S
C509 H520 0.930 . S
C510 C507 1.367 1_455 S
C510 C508 1.403 1_455 S
C510 H531 0.929 . S
C511 C512 1.430 . S
C511 C513 1.387 . S
C511 C517 1.404 . S
C512 C505 1.448 . S
C512 C511 1.430 . S
C512 N516 1.351 . S
C513 C511 1.387 . S
C513 C514 1.374 1_655 S
C513 H528 0.931 . S
C514 C508 1.439 1_455 S
C514 C513 1.374 1_455 S
C514 H529 0.931 . S
Eu515 N506 2.600 . S
Eu515 N516 2.562 . S
Eu515 O550 2.335 . S
Eu515 O553 2.372 . S
Eu515 O554 2.462 . S
Eu515 O555 2.341 1_554 S
Eu515 O557 2.432 . S
Eu515 O558 2.291 . S
Eu515 C579 2.787 . S
N516 C512 1.351 . S
N516 Eu515 2.562 . S
N516 C518 1.325 . S
C517 C511 1.404 . S
C517 C519 1.367 . S
C517 H525 0.930 1_554 S
C518 N516 1.325 . S
C518 C519 1.422 . S
C518 H524 0.929 . S
C519 C517 1.367 . S
C519 C518 1.422 . S
C519 H521 0.922 1_554 S
H520 C509 0.930 . S
H521 C519 0.922 1_556 S
H522 C537 0.930 . S
H523 C544 0.930 . S
H524 C518 0.929 . S
H525 C517 0.930 1_556 S
H526 C540 0.929 . S
H527 C507 0.931 1_455 S
H528 C513 0.931 . S
H529 C514 0.931 . S
H530 C535 0.931 . S
H531 C510 0.929 . S
H532 C543 0.930 . S
N533 Eu504 2.600 . S
N533 C534 1.365 . S
N533 C537 1.319 . S
C534 N533 1.365 . S
C534 C536 1.405 . S
C534 C542 1.448 . S
C535 H530 0.931 . S
C535 C537 1.397 . S
C535 C538 1.367 . S
C536 C534 1.405 . S
C536 C538 1.403 . S
C536 C569 1.439 . S
C537 H522 0.930 . S
C537 N533 1.319 . S
C537 C535 1.397 . S
C538 C535 1.367 . S
C538 C536 1.403 . S
C538 H545 0.929 . S
N539 Eu504 2.562 . S
N539 C540 1.325 1_556 S
N539 C542 1.351 . S
C540 H526 0.929 . S
C540 N539 1.325 1_554 S
C540 C544 1.416 . S
C541 C542 1.430 1_554 S
C541 C543 1.404 . S
C541 C570 1.387 . S
C542 C534 1.448 . S
C542 N539 1.351 . S
C542 C541 1.430 1_556 S
C543 H532 0.930 . S
C543 C541 1.404 . S
C543 C544 1.366 . S
C544 H523 0.930 . S
C544 C540 1.416 . S
C544 C543 1.366 . S
H545 C538 0.929 . S
H546 C569 0.931 . S
H547 C570 0.931 . S
O548 Eu504 2.462 . S
O548 C568 1.252 . S
O549 Eu504 2.373 1_554 S
O549 C560 1.249 . S
O550 Eu515 2.335 . S
O550 C560 1.264 . S
O551 Eu504 2.432 . S
O551 C568 1.268 . S
O552 Eu504 2.291 1_554 S
O552 C567 1.255 . S
O553 Eu515 2.372 . S
O553 C567 1.257 . S
O554 Eu515 2.462 . S
O554 C579 1.252 . S
O555 Eu515 2.341 1_556 S
O555 C571 1.284 . S
O556 Eu504 2.335 . S
O556 C571 1.264 . S
O557 Eu515 2.432 . S
O557 C579 1.268 . S
O558 Eu515 2.291 . S
O558 C578 1.255 1_554 S
O559 Eu504 2.372 . S
O559 C578 1.257 . S
C560 O549 1.249 . S
C560 O550 1.264 . S
C561 C564 1.382 . S
C561 C566 1.390 . S
C561 C568 1.506 . S
C562 C563 1.398 . S
C562 C566 1.392 . S
C563 C562 1.398 . S
C563 C565 1.372 . S
C563 H580 0.931 . S
C564 C561 1.382 . S
C564 C565 1.390 . S
C564 H581 0.931 . S
C565 C563 1.372 . S
C565 C564 1.390 . S
C565 H582 0.929 . S
C566 C561 1.390 . S
C566 C562 1.392 . S
C566 H583 0.930 . S
C567 O552 1.255 . S
C567 O553 1.257 . S
C568 Eu504 2.787 . S
C568 O548 1.252 . S
C568 O551 1.268 . S
C568 C561 1.506 . S
C569 C536 1.439 . S
C569 H546 0.931 . S
C569 C570 1.374 1_556 S
C570 C541 1.387 . S
C570 H547 0.931 . S
C570 C569 1.374 1_554 S
C571 O555 1.284 . S
C571 O556 1.264 . S
C572 C575 1.382 . S
C572 C576 1.390 . S
C572 C579 1.506 . S
C573 C574 1.398 . S
C573 C576 1.392 . S
C574 C573 1.398 . S
C574 C577 1.372 . S
C574 H584 0.931 . S
C575 C572 1.382 . S
C575 C577 1.390 . S
C575 H585 0.931 . S
C576 C572 1.390 . S
C576 C573 1.392 . S
C576 H586 0.930 . S
C577 C574 1.372 . S
C577 C575 1.390 . S
C577 H587 0.929 . S
C578 O558 1.255 1_556 S
C578 O559 1.257 . S
C579 Eu515 2.787 . S
C579 O554 1.252 . S
C579 O557 1.268 . S
C579 C572 1.506 . S
H580 C563 0.931 . S
H581 C564 0.931 . S
H582 C565 0.929 . S
H583 C566 0.930 . S
H584 C574 0.931 . S
H585 C575 0.931 . S
H586 C576 0.930 . S
H587 C577 0.929 . S
Eu588 N617 2.600 . S
Eu588 N623 2.562 . S
Eu588 O632 2.462 . S
Eu588 O633 2.373 . S
Eu588 O635 2.432 . S
Eu588 O636 2.291 . S
Eu588 O640 2.335 . S
Eu588 O643 2.372 . S
Eu588 C652 2.787 . S
C589 N590 1.365 . S
C589 C592 1.405 . S
C589 C596 1.448 . S
N590 C589 1.365 . S
N590 C593 1.319 . S
N590 Eu599 2.600 . S
C591 C593 1.397 . S
C591 C594 1.367 . S
C591 H611 0.931 . S
C592 C589 1.405 . S
C592 C594 1.403 . S
C592 C598 1.439 . S
C593 N590 1.319 . S
C593 C591 1.397 . S
C593 H604 0.930 . S
C594 C591 1.367 . S
C594 C592 1.403 . S
C594 H615 0.929 . S
C595 C596 1.430 . S
C595 C597 1.387 . S
C595 C601 1.404 . S
C596 C589 1.448 . S
C596 C595 1.430 . S
C596 N600 1.351 . S
C597 C595 1.387 . S
C597 C598 1.374 . S
C597 H612 0.931 . S
C598 C592 1.439 . S
C598 C597 1.374 . S
C598 H613 0.931 . S
Eu599 N590 2.600 . S
Eu599 N600 2.562 . S
Eu599 O634 2.335 . S
Eu599 O637 2.372 . S
Eu599 O638 2.462 . S
Eu599 O639 2.373 . S
Eu599 O641 2.432 . S
Eu599 O642 2.291 . S
Eu599 C663 2.787 . S
N600 C596 1.351 . S
N600 Eu599 2.562 . S
N600 C602 1.325 . S
C601 C595 1.404 . S
C601 C603 1.366 . S
C601 H609 0.930 . S
C602 N600 1.325 . S
C602 C603 1.416 . S
C602 H608 0.929 . S
C603 C601 1.366 . S
C603 C602 1.416 . S
C603 H605 0.930 . S
H604 C593 0.930 . S
H605 C603 0.930 . S
H606 C621 0.930 . S
H607 C628 0.930 . S
H608 C602 0.929 . S
H609 C601 0.930 . S
H610 C624 0.929 . S
H611 C591 0.931 . S
H612 C597 0.931 . S
H613 C598 0.931 . S
H614 C619 0.931 . S
H615 C594 0.929 . S
H616 C627 0.930 . S
N617 Eu588 2.600 . S
N617 C618 1.365 . S
N617 C621 1.319 . S
C618 N617 1.365 . S
C618 C620 1.405 . S
C618 C626 1.448 . S
C619 H614 0.931 . S
C619 C621 1.397 . S
C619 C622 1.367 . S
C620 C618 1.405 . S
C620 C622 1.403 . S
C620 C653 1.439 . S
C621 H606 0.930 . S
C621 N617 1.319 . S
C621 C619 1.397 . S
C622 C619 1.367 . S
C622 C620 1.403 . S
C622 H629 0.929 . S
N623 Eu588 2.562 . S
N623 C624 1.325 . S
N623 C626 1.351 . S
C624 H610 0.929 . S
C624 N623 1.325 . S
C624 C628 1.416 . S
C625 C626 1.430 . S
C625 C627 1.404 . S
C625 C654 1.387 . S
C626 C618 1.448 . S
C626 N623 1.351 . S
C626 C625 1.430 . S
C627 H616 0.930 . S
C627 C625 1.404 . S
C627 C628 1.366 . S
C628 H607 0.930 . S
C628 C624 1.416 . S
C628 C627 1.366 . S
H629 C622 0.929 . S
H630 C653 0.931 . S
H631 C654 0.931 . S
O632 Eu588 2.462 . S
O632 C652 1.252 . S
O633 Eu588 2.373 . S
O633 C644 1.249 . S
O634 Eu599 2.335 . S
O634 C644 1.264 . S
O635 Eu588 2.432 . S
O635 C652 1.268 . S
O636 Eu588 2.291 . S
O636 C651 1.255 . S
O637 Eu599 2.372 . S
O637 C651 1.257 . S
O638 Eu599 2.462 . S
O638 C663 1.252 . S
O639 Eu599 2.373 . S
O639 C655 1.249 . S
O640 Eu588 2.335 . S
O640 C655 1.264 . S
O641 Eu599 2.432 . S
O641 C663 1.268 . S
O642 Eu599 2.291 . S
O642 C662 1.255 . S
O643 Eu588 2.372 . S
O643 C662 1.257 . S
C644 O633 1.249 . S
C644 O634 1.264 . S
C645 C648 1.382 . S
C645 C650 1.390 . S
C645 C652 1.506 . S
C646 C647 1.398 . S
C646 C650 1.392 . S
C647 C646 1.398 . S
C647 C649 1.372 . S
C647 H664 0.931 . S
C648 C645 1.382 . S
C648 C649 1.390 . S
C648 H665 0.931 . S
C649 C647 1.372 . S
C649 C648 1.390 . S
C649 H666 0.929 . S
C650 C645 1.390 . S
C650 C646 1.392 . S
C650 H667 0.930 . S
C651 O636 1.255 . S
C651 O637 1.257 . S
C652 Eu588 2.787 . S
C652 O632 1.252 . S
C652 O635 1.268 . S
C652 C645 1.506 . S
C653 C620 1.439 . S
C653 H630 0.931 . S
C653 C654 1.374 . S
C654 C625 1.387 . S
C654 H631 0.931 . S
C654 C653 1.374 . S
C655 O639 1.249 . S
C655 O640 1.264 . S
C656 C659 1.382 . S
C656 C660 1.390 . S
C656 C663 1.506 . S
C657 C658 1.398 . S
C657 C660 1.392 . S
C658 C657 1.398 . S
C658 C661 1.372 . S
C658 H668 0.931 . S
C659 C656 1.382 . S
C659 C661 1.390 . S
C659 H669 0.931 . S
C660 C656 1.390 . S
C660 C657 1.392 . S
C660 H670 0.930 . S
C661 C658 1.372 . S
C661 C659 1.390 . S
C661 H671 0.929 . S
C662 O642 1.255 . S
C662 O643 1.257 . S
C663 Eu599 2.787 . S
C663 O638 1.252 . S
C663 O641 1.268 . S
C663 C656 1.506 . S
H664 C647 0.931 . S
H665 C648 0.931 . S
H666 C649 0.929 . S
H667 C650 0.930 . S
H668 C658 0.931 . S
H669 C659 0.931 . S
H670 C660 0.930 . S
H671 C661 0.929 . S
Eu672 N701 2.600 . S
Eu672 N707 2.562 . S
Eu672 O716 2.462 . S
Eu672 O717 2.373 . S
Eu672 O719 2.432 . S
Eu672 O720 2.291 . S
Eu672 O724 2.335 . S
Eu672 O727 2.372 . S
Eu672 C736 2.787 . S
C673 N674 1.365 . S
C673 C676 1.405 . S
C673 C680 1.448 . S
N674 C673 1.365 . S
N674 C677 1.319 . S
N674 Eu683 2.600 . S
C675 C677 1.397 . S
C675 C678 1.367 . S
C675 H695 0.931 . S
C676 C673 1.405 . S
C676 C678 1.403 . S
C676 C682 1.439 . S
C677 N674 1.319 . S
C677 C675 1.397 . S
C677 H688 0.930 . S
C678 C675 1.367 . S
C678 C676 1.403 . S
C678 H699 0.929 . S
C679 C680 1.430 . S
C679 C681 1.387 . S
C679 C685 1.404 . S
C680 C673 1.448 . S
C680 C679 1.430 . S
C680 N684 1.351 . S
C681 C679 1.387 . S
C681 C682 1.374 . S
C681 H696 0.931 . S
C682 C676 1.439 . S
C682 C681 1.374 . S
C682 H697 0.931 . S
Eu683 N674 2.600 . S
Eu683 N684 2.562 . S
Eu683 O718 2.335 . S
Eu683 O721 2.372 . S
Eu683 O722 2.462 . S
Eu683 O723 2.373 . S
Eu683 O725 2.432 . S
Eu683 O726 2.291 . S
Eu683 C747 2.787 . S
N684 C680 1.351 . S
N684 Eu683 2.562 . S
N684 C686 1.325 . S
C685 C679 1.404 . S
C685 C687 1.366 . S
C685 H693 0.930 . S
C686 N684 1.325 . S
C686 C687 1.416 . S
C686 H692 0.929 . S
C687 C685 1.366 . S
C687 C686 1.416 . S
C687 H689 0.930 . S
H688 C677 0.930 . S
H689 C687 0.930 . S
H690 C705 0.930 . S
H691 C712 0.930 . S
H692 C686 0.929 . S
H693 C685 0.930 . S
H694 C708 0.929 . S
H695 C675 0.931 . S
H696 C681 0.931 . S
H697 C682 0.931 . S
H698 C703 0.931 1_556 S
H699 C678 0.929 . S
H700 C711 0.930 . S
N701 Eu672 2.600 . S
N701 C702 1.365 . S
N701 C705 1.319 . S
C702 N701 1.365 . S
C702 C704 1.405 . S
C702 C710 1.448 . S
C703 H698 0.931 1_554 S
C703 C705 1.397 . S
C703 C706 1.367 1_554 S
C704 C702 1.405 . S
C704 C706 1.403 1_554 S
C704 C737 1.439 1_554 S
C705 H690 0.930 . S
C705 N701 1.319 . S
C705 C703 1.397 . S
C706 C703 1.367 1_556 S
C706 C704 1.403 1_556 S
C706 H713 0.929 . S
N707 Eu672 2.562 . S
N707 C708 1.325 . S
N707 C710 1.351 . S
C708 H694 0.929 . S
C708 N707 1.325 . S
C708 C712 1.416 . S
C709 C710 1.430 . S
C709 C711 1.404 . S
C709 C738 1.387 . S
C710 C702 1.448 . S
C710 N707 1.351 . S
C710 C709 1.430 . S
C711 H700 0.930 . S
C711 C709 1.404 . S
C711 C712 1.366 . S
C712 H691 0.930 . S
C712 C708 1.416 . S
C712 C711 1.366 . S
H713 C706 0.929 . S
H714 C737 0.931 . S
H715 C738 0.935 . S
O716 Eu672 2.462 . S
O716 C736 1.252 . S
O717 Eu672 2.373 . S
O717 C728 1.249 . S
O718 Eu683 2.335 . S
O718 C728 1.264 . S
O719 Eu672 2.432 . S
O719 C736 1.268 . S
O720 Eu672 2.291 . S
O720 C735 1.255 . S
O721 Eu683 2.372 . S
O721 C735 1.257 . S
O722 Eu683 2.462 . S
O722 C747 1.252 . S
O723 Eu683 2.373 . S
O723 C739 1.249 . S
O724 Eu672 2.335 . S
O724 C739 1.264 . S
O725 Eu683 2.432 . S
O725 C747 1.268 . S
O726 Eu683 2.291 . S
O726 C746 1.255 . S
O727 Eu672 2.372 . S
O727 C746 1.257 . S
C728 O717 1.249 . S
C728 O718 1.264 . S
C729 C732 1.382 . S
C729 C734 1.390 . S
C729 C736 1.506 . S
C730 C731 1.398 . S
C730 C734 1.392 . S
C731 C730 1.398 . S
C731 C733 1.372 . S
C731 H748 0.931 . S
C732 C729 1.382 . S
C732 C733 1.390 . S
C732 H749 0.931 . S
C733 C731 1.372 . S
C733 C732 1.390 . S
C733 H750 0.929 . S
C734 C729 1.390 . S
C734 C730 1.392 . S
C734 H751 0.930 . S
C735 O720 1.255 . S
C735 O721 1.257 . S
C736 Eu672 2.787 . S
C736 O716 1.252 . S
C736 O719 1.268 . S
C736 C729 1.506 . S
C737 C704 1.439 1_556 S
C737 H714 0.931 . S
C737 C738 1.374 1_556 S
C738 C709 1.387 . S
C738 H715 0.935 . S
C738 C737 1.374 1_554 S
C739 O723 1.249 . S
C739 O724 1.264 . S
C740 C743 1.382 . S
C740 C744 1.390 . S
C740 C747 1.506 . S
C741 C742 1.398 . S
C741 C744 1.392 . S
C742 C741 1.398 . S
C742 C745 1.372 . S
C742 H752 0.931 . S
C743 C740 1.382 . S
C743 C745 1.390 . S
C743 H753 0.931 . S
C744 C740 1.390 . S
C744 C741 1.392 . S
C744 H754 0.930 . S
C745 C742 1.372 . S
C745 C743 1.390 . S
C745 H755 0.929 . S
C746 O726 1.255 . S
C746 O727 1.257 . S
C747 Eu683 2.787 . S
C747 O722 1.252 . S
C747 O725 1.268 . S
C747 C740 1.506 . S
H748 C731 0.931 . S
H749 C732 0.931 . S
H750 C733 0.929 . S
H751 C734 0.930 . S
H752 C742 0.931 . S
H753 C743 0.931 . S
H754 C744 0.930 . S
H755 C745 0.929 . S
Eu756 N785 2.600 . S
Eu756 N791 2.562 . S
Eu756 O800 2.462 . S
Eu756 O801 2.373 . S
Eu756 O803 2.432 . S
Eu756 O804 2.291 . S
Eu756 O808 2.335 . S
Eu756 O811 2.372 1_545 S
Eu756 C820 2.787 . S
C757 N758 1.365 . S
C757 C760 1.405 . S
C757 C764 1.448 . S
N758 C757 1.365 . S
N758 C761 1.319 . S
N758 Eu767 2.600 . S
C759 C761 1.397 . S
C759 C762 1.367 . S
C759 H779 0.931 1_565 S
C760 C757 1.405 . S
C760 C762 1.403 . S
C760 C766 1.439 . S
C761 N758 1.319 . S
C761 C759 1.397 . S
C761 H772 0.930 1_565 S
C762 C759 1.367 . S
C762 C760 1.403 . S
C762 H783 0.929 . S
C763 C764 1.430 . S
C763 C765 1.387 . S
C763 C769 1.404 . S
C764 C757 1.448 . S
C764 C763 1.430 . S
C764 N768 1.351 . S
C765 C763 1.387 . S
C765 C766 1.374 . S
C765 H780 0.931 . S
C766 C760 1.439 . S
C766 C765 1.374 . S
C766 H781 0.931 . S
Eu767 N758 2.600 . S
Eu767 N768 2.562 . S
Eu767 O802 2.335 1_565 S
Eu767 O805 2.372 1_565 S
Eu767 O806 2.462 . S
Eu767 O807 2.373 . S
Eu767 O809 2.432 . S
Eu767 O810 2.291 . S
Eu767 C831 2.787 . S
N768 C764 1.351 . S
N768 Eu767 2.562 . S
N768 C770 1.325 . S
C769 C763 1.404 . S
C769 C771 1.366 . S
C769 H777 0.930 . S
C770 N768 1.325 . S
C770 C771 1.416 . S
C770 H776 0.929 . S
C771 C769 1.366 . S
C771 C770 1.416 . S
C771 H773 0.930 . S
H772 C761 0.930 1_545 S
H773 C771 0.930 . S
H774 C789 0.930 . S
H775 C796 0.930 . S
H776 C770 0.929 . S
H777 C769 0.930 . S
H778 C792 0.929 . S
H779 C759 0.931 1_545 S
H780 C765 0.931 . S
H781 C766 0.931 . S
H782 C787 0.931 1_554 S
H783 C762 0.929 . S
H784 C795 0.930 . S
N785 Eu756 2.600 . S
N785 C786 1.365 . S
N785 C789 1.319 . S
C786 N785 1.365 . S
C786 C788 1.405 . S
C786 C794 1.448 . S
C787 H782 0.931 1_556 S
C787 C789 1.397 . S
C787 C790 1.367 1_556 S
C788 C786 1.405 . S
C788 C790 1.403 1_556 S
C788 C821 1.439 1_556 S
C789 H774 0.930 . S
C789 N785 1.319 . S
C789 C787 1.397 . S
C790 C787 1.367 1_554 S
C790 C788 1.403 1_554 S
C790 H797 0.929 . S
N791 Eu756 2.562 . S
N791 C792 1.325 . S
N791 C794 1.351 . S
C792 H778 0.929 . S
C792 N791 1.325 . S
C792 C796 1.416 . S
C793 C794 1.430 . S
C793 C795 1.404 . S
C793 C822 1.387 . S
C794 C786 1.448 . S
C794 N791 1.351 . S
C794 C793 1.430 . S
C795 H784 0.930 . S
C795 C793 1.404 . S
C795 C796 1.366 . S
C796 H775 0.930 . S
C796 C792 1.416 . S
C796 C795 1.366 . S
H797 C790 0.929 . S
H798 C821 0.931 . S
H799 C822 0.931 . S
O800 Eu756 2.462 . S
O800 C820 1.252 . S
O801 Eu756 2.373 . S
O801 C812 1.249 . S
O802 Eu767 2.335 1_545 S
O802 C812 1.264 . S
O803 Eu756 2.432 . S
O803 C820 1.268 . S
O804 Eu756 2.291 . S
O804 C819 1.255 . S
O805 Eu767 2.372 1_545 S
O805 C819 1.257 . S
O806 Eu767 2.462 . S
O806 C831 1.252 . S
O807 Eu767 2.373 . S
O807 C823 1.249 . S
O808 Eu756 2.335 . S
O808 C823 1.264 1_545 S
O809 Eu767 2.432 . S
O809 C831 1.268 . S
O810 Eu767 2.291 . S
O810 C830 1.255 . S
O811 Eu756 2.372 1_565 S
O811 C830 1.257 . S
C812 O801 1.249 . S
C812 O802 1.264 . S
C813 C816 1.382 . S
C813 C818 1.390 . S
C813 C820 1.506 . S
C814 C815 1.398 . S
C814 C818 1.392 . S
C815 C814 1.398 . S
C815 C817 1.372 . S
C815 H832 0.931 . S
C816 C813 1.382 . S
C816 C817 1.390 . S
C816 H833 0.931 . S
C817 C815 1.372 . S
C817 C816 1.390 . S
C817 H834 0.929 . S
C818 C813 1.390 . S
C818 C814 1.392 . S
C818 H835 0.930 . S
C819 O804 1.255 . S
C819 O805 1.257 . S
C820 Eu756 2.787 . S
C820 O800 1.252 . S
C820 O803 1.268 . S
C820 C813 1.506 . S
C821 C788 1.439 1_554 S
C821 H798 0.931 . S
C821 C822 1.374 1_554 S
C822 C793 1.387 . S
C822 H799 0.931 . S
C822 C821 1.374 1_556 S
C823 O807 1.249 . S
C823 O808 1.264 1_565 S
C824 C827 1.382 . S
C824 C828 1.390 . S
C824 C831 1.506 . S
C825 C826 1.398 . S
C825 C828 1.392 . S
C826 C825 1.398 . S
C826 C829 1.372 . S
C826 H836 0.931 . S
C827 C824 1.382 . S
C827 C829 1.390 . S
C827 H837 0.931 . S
C828 C824 1.390 . S
C828 C825 1.392 . S
C828 H838 0.930 . S
C829 C826 1.372 . S
C829 C827 1.390 . S
C829 H839 0.929 . S
C830 O810 1.255 . S
C830 O811 1.257 . S
C831 Eu767 2.787 . S
C831 O806 1.252 . S
C831 O809 1.268 . S
C831 C824 1.506 . S
H832 C815 0.931 . S
H833 C816 0.931 . S
H834 C817 0.929 . S
H835 C818 0.930 . S
H836 C826 0.931 . S
H837 C827 0.931 . S
H838 C828 0.930 . S
H839 C829 0.929 . S
Eu840 N869 2.600 . S
Eu840 N875 2.562 . S
Eu840 O884 2.462 . S
Eu840 O885 2.373 . S
Eu840 O887 2.432 . S
Eu840 O888 2.291 . S
Eu840 O892 2.335 . S
Eu840 O895 2.372 1_565 S
Eu840 C904 2.787 . S
C841 N842 1.365 . S
C841 C844 1.405 . S
C841 C848 1.448 . S
N842 C841 1.365 . S
N842 C845 1.319 . S
N842 Eu851 2.600 . S
C843 C845 1.397 . S
C843 C846 1.367 . S
C843 H863 0.931 1_545 S
C844 C841 1.405 . S
C844 C846 1.403 . S
C844 C850 1.439 . S
C845 N842 1.319 . S
C845 C843 1.397 . S
C845 H856 0.930 1_545 S
C846 C843 1.367 . S
C846 C844 1.403 . S
C846 H867 0.929 . S
C847 C848 1.430 . S
C847 C849 1.387 . S
C847 C853 1.404 . S
C848 C841 1.448 . S
C848 C847 1.430 . S
C848 N852 1.351 . S
C849 C847 1.387 . S
C849 C850 1.374 . S
C849 H864 0.931 . S
C850 C844 1.439 . S
C850 C849 1.374 . S
C850 H865 0.931 . S
Eu851 N842 2.600 . S
Eu851 N852 2.562 . S
Eu851 O886 2.335 1_545 S
Eu851 O889 2.372 1_545 S
Eu851 O890 2.462 . S
Eu851 O891 2.373 . S
Eu851 O893 2.432 . S
Eu851 O894 2.291 . S
Eu851 C915 2.787 . S
N852 C848 1.351 . S
N852 Eu851 2.562 . S
N852 C854 1.325 . S
C853 C847 1.404 . S
C853 C855 1.366 . S
C853 H861 0.930 . S
C854 N852 1.325 . S
C854 C855 1.416 . S
C854 H860 0.929 . S
C855 C853 1.366 . S
C855 C854 1.416 . S
C855 H857 0.930 . S
H856 C845 0.930 1_565 S
H857 C855 0.930 . S
H858 C873 0.930 . S
H859 C880 0.930 . S
H860 C854 0.929 . S
H861 C853 0.930 . S
H862 C876 0.929 . S
H863 C843 0.931 1_565 S
H864 C849 0.931 . S
H865 C850 0.931 . S
H866 C871 0.931 . S
H867 C846 0.929 . S
H868 C879 0.930 . S
N869 Eu840 2.600 . S
N869 C870 1.365 . S
N869 C873 1.319 . S
C870 N869 1.365 . S
C870 C872 1.405 . S
C870 C878 1.448 . S
C871 H866 0.931 . S
C871 C873 1.397 . S
C871 C874 1.367 . S
C872 C870 1.405 . S
C872 C874 1.403 . S
C872 C905 1.439 . S
C873 H858 0.930 . S
C873 N869 1.319 . S
C873 C871 1.397 . S
C874 C871 1.367 . S
C874 C872 1.403 . S
C874 H881 0.929 . S
N875 Eu840 2.562 . S
N875 C876 1.325 . S
N875 C878 1.351 . S
C876 H862 0.929 . S
C876 N875 1.325 . S
C876 C880 1.416 . S
C877 C878 1.430 . S
C877 C879 1.404 . S
C877 C906 1.387 . S
C878 C870 1.448 . S
C878 N875 1.351 . S
C878 C877 1.430 . S
C879 H868 0.930 . S
C879 C877 1.404 . S
C879 C880 1.366 . S
C880 H859 0.930 . S
C880 C876 1.416 . S
C880 C879 1.366 . S
H881 C874 0.929 . S
H882 C905 0.931 . S
H883 C906 0.931 . S
O884 Eu840 2.462 . S
O884 C904 1.252 . S
O885 Eu840 2.373 . S
O885 C896 1.249 . S
O886 Eu851 2.335 1_565 S
O886 C896 1.264 . S
O887 Eu840 2.432 . S
O887 C904 1.268 . S
O888 Eu840 2.291 . S
O888 C903 1.255 . S
O889 Eu851 2.372 1_565 S
O889 C903 1.257 . S
O890 Eu851 2.462 . S
O890 C915 1.252 . S
O891 Eu851 2.373 . S
O891 C907 1.249 . S
O892 Eu840 2.335 . S
O892 C907 1.264 1_565 S
O893 Eu851 2.432 . S
O893 C915 1.268 . S
O894 Eu851 2.291 . S
O894 C914 1.255 . S
O895 Eu840 2.372 1_545 S
O895 C914 1.257 . S
C896 O885 1.249 . S
C896 O886 1.264 . S
C897 C900 1.382 . S
C897 C902 1.390 . S
C897 C904 1.506 . S
C898 C899 1.398 . S
C898 C902 1.392 . S
C899 C898 1.398 . S
C899 C901 1.372 . S
C899 H916 0.931 . S
C900 C897 1.382 . S
C900 C901 1.390 . S
C900 H917 0.931 . S
C901 C899 1.372 . S
C901 C900 1.390 . S
C901 H918 0.929 . S
C902 C897 1.390 . S
C902 C898 1.392 . S
C902 H919 0.930 . S
C903 O888 1.255 . S
C903 O889 1.257 . S
C904 Eu840 2.787 . S
C904 O884 1.252 . S
C904 O887 1.268 . S
C904 C897 1.506 . S
C905 C872 1.439 . S
C905 H882 0.931 . S
C905 C906 1.374 . S
C906 C877 1.387 . S
C906 H883 0.931 . S
C906 C905 1.374 . S
C907 O891 1.249 . S
C907 O892 1.264 1_545 S
C908 C911 1.382 . S
C908 C912 1.390 . S
C908 C915 1.506 . S
C909 C910 1.398 . S
C909 C912 1.392 . S
C910 C909 1.398 . S
C910 C913 1.372 . S
C910 H920 0.931 . S
C911 C908 1.382 . S
C911 C913 1.390 . S
C911 H921 0.931 . S
C912 C908 1.390 . S
C912 C909 1.392 . S
C912 H922 0.930 . S
C913 C910 1.372 . S
C913 C911 1.390 . S
C913 H923 0.929 . S
C914 O894 1.255 . S
C914 O895 1.257 . S
C915 Eu851 2.787 . S
C915 O890 1.252 . S
C915 O893 1.268 . S
C915 C908 1.506 . S
H916 C899 0.931 . S
H917 C900 0.931 . S
H918 C901 0.929 . S
H919 C902 0.930 . S
H920 C910 0.931 . S
H921 C911 0.931 . S
H922 C912 0.930 . S
H923 C913 0.929 . S
Eu924 N953 2.600 . S
Eu924 N959 2.562 . S
Eu924 O968 2.462 . S
Eu924 O969 2.373 . S
Eu924 O971 2.432 . S
Eu924 O972 2.291 . S
Eu924 O976 2.335 . S
Eu924 O979 2.372 . S
Eu924 C988 2.787 . S
C925 N926 1.365 . S
C925 C928 1.405 . S
C925 C932 1.448 . S
N926 C925 1.365 . S
N926 C929 1.319 . S
N926 Eu935 2.600 . S
C927 C929 1.397 . S
C927 C930 1.367 . S
C927 H947 0.931 . S
C928 C925 1.405 . S
C928 C930 1.403 . S
C928 C934 1.439 . S
C929 N926 1.319 . S
C929 C927 1.397 . S
C929 H940 0.930 . S
C930 C927 1.367 . S
C930 C928 1.403 . S
C930 H951 0.929 . S
C931 C932 1.430 . S
C931 C933 1.387 . S
C931 C937 1.404 . S
C932 C925 1.448 . S
C932 C931 1.430 . S
C932 N936 1.351 . S
C933 C931 1.387 . S
C933 C934 1.374 . S
C933 H948 0.931 . S
C934 C928 1.439 . S
C934 C933 1.374 . S
C934 H949 0.931 . S
Eu935 N926 2.600 . S
Eu935 N936 2.562 . S
Eu935 O970 2.335 . S
Eu935 O973 2.372 . S
Eu935 O974 2.462 . S
Eu935 O975 2.373 . S
Eu935 O977 2.432 . S
Eu935 O978 2.291 . S
Eu935 C999 2.787 . S
N936 C932 1.351 . S
N936 Eu935 2.562 . S
N936 C938 1.325 . S
C937 C931 1.404 . S
C937 C939 1.366 . S
C937 H945 0.930 . S
C938 N936 1.325 . S
C938 C939 1.416 . S
C938 H944 0.929 . S
C939 C937 1.366 . S
C939 C938 1.416 . S
C939 H941 0.930 . S
H940 C929 0.930 . S
H941 C939 0.930 . S
H942 C957 0.930 . S
H943 C964 0.930 . S
H944 C938 0.929 . S
H945 C937 0.930 . S
H946 C960 0.929 . S
H947 C927 0.931 . S
H948 C933 0.931 . S
H949 C934 0.931 . S
H950 C955 0.931 . S
H951 C930 0.929 . S
H952 C963 0.930 . S
N953 Eu924 2.600 . S
N953 C954 1.365 . S
N953 C957 1.319 . S
C954 N953 1.365 . S
C954 C956 1.405 . S
C954 C962 1.448 . S
C955 H950 0.931 . S
C955 C957 1.397 . S
C955 C958 1.367 . S
C956 C954 1.405 . S
C956 C958 1.403 . S
C956 C989 1.439 . S
C957 H942 0.930 . S
C957 N953 1.319 . S
C957 C955 1.397 . S
C958 C955 1.367 . S
C958 C956 1.403 . S
C958 H965 0.929 . S
N959 Eu924 2.562 . S
N959 C960 1.325 . S
N959 C962 1.351 . S
C960 H946 0.929 . S
C960 N959 1.325 . S
C960 C964 1.416 . S
C961 C962 1.430 . S
C961 C963 1.404 . S
C961 C990 1.387 . S
C962 C954 1.448 . S
C962 N959 1.351 . S
C962 C961 1.430 . S
C963 H952 0.930 . S
C963 C961 1.404 . S
C963 C964 1.366 . S
C964 H943 0.930 . S
C964 C960 1.416 . S
C964 C963 1.366 . S
H965 C958 0.929 . S
H966 C989 0.931 . S
H967 C990 0.931 . S
O968 Eu924 2.462 . S
O968 C988 1.252 . S
O969 Eu924 2.373 . S
O969 C980 1.249 . S
O970 Eu935 2.335 . S
O970 C980 1.264 . S
O971 Eu924 2.432 . S
O971 C988 1.268 . S
O972 Eu924 2.291 . S
O972 C987 1.255 . S
O973 Eu935 2.372 . S
O973 C987 1.257 . S
O974 Eu935 2.462 . S
O974 C999 1.252 . S
O975 Eu935 2.373 . S
O975 C991 1.249 . S
O976 Eu924 2.335 . S
O976 C991 1.264 . S
O977 Eu935 2.432 . S
O977 C999 1.268 . S
O978 Eu935 2.291 . S
O978 C998 1.255 . S
O979 Eu924 2.372 . S
O979 C998 1.257 . S
C980 O969 1.249 . S
C980 O970 1.264 . S
C981 C984 1.382 . S
C981 C986 1.390 . S
C981 C988 1.506 . S
C982 C983 1.398 . S
C982 C986 1.392 . S
C983 C982 1.398 . S
C983 C985 1.372 . S
C983 H1000 0.931 . S
C984 C981 1.382 . S
C984 C985 1.390 . S
C984 H1001 0.931 . S
C985 C983 1.372 . S
C985 C984 1.390 . S
C985 H1002 0.929 . S
C986 C981 1.390 . S
C986 C982 1.392 . S
C986 H1003 0.930 . S
C987 O972 1.255 . S
C987 O973 1.257 . S
C988 Eu924 2.787 . S
C988 O968 1.252 . S
C988 O971 1.268 . S
C988 C981 1.506 . S
C989 C956 1.439 . S
C989 H966 0.931 . S
C989 C990 1.374 . S
C990 C961 1.387 . S
C990 H967 0.931 . S
C990 C989 1.374 . S
C991 O975 1.249 . S
C991 O976 1.264 . S
C992 C995 1.382 . S
C992 C996 1.390 . S
C992 C999 1.506 . S
C993 C994 1.398 . S
C993 C996 1.392 . S
C994 C993 1.398 . S
C994 C997 1.372 . S
C994 H1004 0.931 . S
C995 C992 1.382 . S
C995 C997 1.390 . S
C995 H1005 0.931 . S
C996 C992 1.390 . S
C996 C993 1.392 . S
C996 H1006 0.930 . S
C997 C994 1.372 . S
C997 C995 1.390 . S
C997 H1007 0.929 . S
C998 O978 1.255 . S
C998 O979 1.257 . S
C999 Eu935 2.787 . S
C999 O974 1.252 . S
C999 O977 1.268 . S
C999 C992 1.506 . S
H1000 C983 0.931 . S
H1001 C984 0.931 . S
H1002 C985 0.929 . S
H1003 C986 0.930 . S
H1004 C994 0.931 . S
H1005 C995 0.931 . S
H1006 C996 0.930 . S
H1007 C997 0.929 . S
H1008 C1014 0.930 . S
H1009 C1018 0.930 . S
H1010 C1023 0.929 . S
H1011 C1021 0.929 . S
H1012 C1016 0.929 . S
H1013 C1022 0.929 . S
C1014 H1008 0.930 . S
C1014 C1015 1.367 . S
C1014 C1022 1.378 . S
C1015 C1014 1.367 . S
C1015 C1023 1.433 . S
C1016 H1012 0.929 . S
C1016 C1018 1.378 . S
C1016 C1020 1.350 . S
C1017 C1020 1.463 . S
C1017 C1022 1.350 . S
C1017 N1025 1.427 . S
C1018 H1009 0.930 . S
C1018 C1016 1.378 . S
C1018 C1019 1.367 . S
C1019 C1018 1.367 . S
C1019 C1021 1.433 . S
C1020 C1016 1.350 . S
C1020 C1017 1.463 . S
C1020 N1024 1.427 . S
C1021 H1011 0.929 . S
C1021 C1019 1.433 . S
C1021 N1024 1.384 . S
C1022 H1013 0.929 . S
C1022 C1014 1.378 . S
C1022 C1017 1.350 . S
C1023 H1010 0.929 . S
C1023 C1015 1.433 . S
C1023 N1025 1.384 . S
N1024 C1020 1.427 . S
N1024 C1021 1.384 . S
N1025 C1017 1.427 . S
N1025 C1023 1.384 . S
H1026 C1032 0.930 . S
H1027 C1036 0.930 . S
H1028 C1041 0.929 . S
H1029 C1039 0.929 . S
H1030 C1034 0.929 . S
H1031 C1040 0.929 . S
C1032 H1026 0.930 . S
C1032 C1033 1.367 . S
C1032 C1040 1.378 . S
C1033 C1032 1.367 . S
C1033 C1041 1.433 1_565 S
C1034 H1030 0.929 . S
C1034 C1036 1.378 . S
C1034 C1038 1.350 . S
C1035 C1038 1.463 . S
C1035 C1040 1.350 . S
C1035 N1043 1.427 . S
C1036 H1027 0.930 . S
C1036 C1034 1.378 . S
C1036 C1037 1.367 . S
C1037 C1036 1.367 . S
C1037 C1039 1.433 . S
C1038 C1034 1.350 . S
C1038 C1035 1.463 . S
C1038 N1042 1.427 . S
C1039 H1029 0.929 . S
C1039 C1037 1.433 . S
C1039 N1042 1.384 . S
C1040 H1031 0.929 . S
C1040 C1032 1.378 . S
C1040 C1035 1.350 . S
C1041 H1028 0.929 . S
C1041 C1033 1.433 1_545 S
C1041 N1043 1.384 1_545 S
N1042 C1038 1.427 . S
N1042 C1039 1.384 . S
N1043 C1035 1.427 . S
N1043 C1041 1.384 1_565 S
H1044 C1050 0.930 1_556 S
H1045 C1054 0.930 . S
H1046 C1059 0.929 . S
H1047 C1057 0.929 . S
H1048 C1052 0.929 . S
H1049 C1058 0.929 . S
C1050 H1044 0.930 1_554 S
C1050 C1051 1.367 . S
C1050 C1058 1.378 . S
C1051 C1050 1.367 . S
C1051 C1059 1.433 . S
C1052 H1048 0.929 . S
C1052 C1054 1.378 . S
C1052 C1056 1.350 . S
C1053 C1056 1.463 . S
C1053 C1058 1.350 . S
C1053 N1061 1.427 . S
C1054 H1045 0.930 . S
C1054 C1052 1.378 . S
C1054 C1055 1.367 . S
C1055 C1054 1.367 . S
C1055 C1057 1.433 . S
C1056 C1052 1.350 . S
C1056 C1053 1.463 . S
C1056 N1060 1.427 . S
C1057 H1047 0.929 . S
C1057 C1055 1.433 . S
C1057 N1060 1.384 . S
C1058 H1049 0.929 . S
C1058 C1050 1.378 . S
C1058 C1053 1.350 . S
C1059 H1046 0.929 . S
C1059 C1051 1.433 . S
C1059 N1061 1.384 . S
N1060 C1056 1.427 . S
N1060 C1057 1.384 . S
N1061 C1053 1.427 . S
N1061 C1059 1.384 . S
H1062 C1068 0.930 . S
H1063 C1072 0.930 1_565 S
H1064 C1077 0.929 . S
H1065 C1075 0.929 . S
H1066 C1070 0.929 . S
H1067 C1076 0.929 . S
C1068 H1062 0.930 . S
C1068 C1069 1.367 . S
C1068 C1076 1.378 . S
C1069 C1068 1.367 . S
C1069 C1077 1.433 . S
C1070 H1066 0.929 . S
C1070 C1072 1.378 . S
C1070 C1074 1.350 . S
C1071 C1074 1.463 . S
C1071 C1076 1.350 . S
C1071 N1079 1.427 . S
C1072 H1063 0.930 1_545 S
C1072 C1070 1.378 . S
C1072 C1073 1.367 . S
C1073 C1072 1.367 . S
C1073 C1075 1.433 . S
C1074 C1070 1.350 . S
C1074 C1071 1.463 . S
C1074 N1078 1.427 . S
C1075 H1065 0.929 . S
C1075 C1073 1.433 . S
C1075 N1078 1.384 . S
C1076 H1067 0.929 . S
C1076 C1068 1.378 . S
C1076 C1071 1.350 . S
C1077 H1064 0.929 . S
C1077 C1069 1.433 . S
C1077 N1079 1.384 . S
N1078 C1074 1.427 . S
N1078 C1075 1.384 . S
N1079 C1071 1.427 . S
N1079 C1077 1.384 . S
H1080 C1086 0.930 . S
H1081 C1090 0.930 . S
H1082 C1095 0.929 . S
H1083 C1093 0.929 . S
H1084 C1088 0.929 . S
H1085 C1094 0.929 . S
C1086 H1080 0.930 . S
C1086 C1087 1.367 . S
C1086 C1094 1.378 . S
C1087 C1086 1.367 . S
C1087 C1095 1.433 . S
C1088 H1084 0.929 . S
C1088 C1090 1.378 . S
C1088 C1092 1.350 . S
C1089 C1092 1.463 . S
C1089 C1094 1.350 . S
C1089 N1097 1.427 . S
C1090 H1081 0.930 . S
C1090 C1088 1.378 . S
C1090 C1091 1.367 . S
C1091 C1090 1.367 . S
C1091 C1093 1.433 . S
C1092 C1088 1.350 . S
C1092 C1089 1.463 . S
C1092 N1096 1.427 . S
C1093 H1083 0.929 . S
C1093 C1091 1.433 . S
C1093 N1096 1.384 . S
C1094 H1085 0.929 . S
C1094 C1086 1.378 . S
C1094 C1089 1.350 . S
C1095 H1082 0.929 . S
C1095 C1087 1.433 . S
C1095 N1097 1.384 . S
N1096 C1092 1.427 . S
N1096 C1093 1.384 . S
N1097 C1089 1.427 . S
N1097 C1095 1.384 . S
H1098 C1104 0.930 . S
H1099 C1108 0.930 . S
H1100 C1113 0.929 . S
H1101 C1111 0.929 . S
H1102 C1106 0.929 . S
H1103 C1112 0.929 . S
C1104 H1098 0.930 . S
C1104 C1105 1.367 . S
C1104 C1112 1.378 . S
C1105 C1104 1.367 . S
C1105 C1113 1.433 . S
C1106 H1102 0.929 . S
C1106 C1108 1.378 . S
C1106 C1110 1.350 . S
C1107 C1110 1.463 . S
C1107 C1112 1.350 . S
C1107 N1115 1.427 . S
C1108 H1099 0.930 . S
C1108 C1106 1.378 . S
C1108 C1109 1.367 . S
C1109 C1108 1.367 . S
C1109 C1111 1.433 . S
C1110 C1106 1.350 . S
C1110 C1107 1.463 . S
C1110 N1114 1.427 . S
C1111 H1101 0.929 . S
C1111 C1109 1.433 . S
C1111 N1114 1.384 . S
C1112 H1103 0.929 . S
C1112 C1104 1.378 . S
C1112 C1107 1.350 . S
C1113 H1100 0.929 . S
C1113 C1105 1.433 . S
C1113 N1115 1.384 . S
N1114 C1110 1.427 . S
N1114 C1111 1.384 . S
N1115 C1107 1.427 . S
N1115 C1113 1.384 . S
H1116 C1122 0.930 . S
H1117 C1126 0.930 . S
H1118 C1131 0.929 . S
H1119 C1129 0.929 . S
H1120 C1124 0.929 . S
H1121 C1130 0.929 . S
C1122 H1116 0.930 . S
C1122 C1123 1.367 . S
C1122 C1130 1.378 . S
C1123 C1122 1.367 . S
C1123 C1131 1.433 . S
C1124 H1120 0.929 . S
C1124 C1126 1.378 . S
C1124 C1128 1.350 . S
C1125 C1128 1.463 . S
C1125 C1130 1.350 . S
C1125 N1133 1.427 . S
C1126 H1117 0.930 . S
C1126 C1124 1.378 . S
C1126 C1127 1.367 . S
C1127 C1126 1.367 . S
C1127 C1129 1.433 . S
C1128 C1124 1.350 . S
C1128 C1125 1.463 . S
C1128 N1132 1.427 . S
C1129 H1119 0.929 . S
C1129 C1127 1.433 . S
C1129 N1132 1.384 . S
C1130 H1121 0.929 . S
C1130 C1122 1.378 . S
C1130 C1125 1.350 . S
C1131 H1118 0.929 . S
C1131 C1123 1.433 . S
C1131 N1133 1.384 . S
N1132 C1128 1.427 . S
N1132 C1129 1.384 . S
N1133 C1125 1.427 . S
N1133 C1131 1.384 . S
H1134 C1140 0.930 . S
H1135 C1144 0.930 . S
H1136 C1149 0.929 . S
H1137 C1147 0.929 . S
H1138 C1142 0.929 . S
H1139 C1148 0.929 . S
C1140 H1134 0.930 . S
C1140 C1141 1.367 . S
C1140 C1148 1.378 . S
C1141 C1140 1.367 . S
C1141 C1149 1.433 . S
C1142 H1138 0.929 . S
C1142 C1144 1.378 . S
C1142 C1146 1.350 . S
C1143 C1146 1.463 . S
C1143 C1148 1.350 . S
C1143 N1151 1.427 . S
C1144 H1135 0.930 . S
C1144 C1142 1.378 . S
C1144 C1145 1.367 . S
C1145 C1144 1.367 . S
C1145 C1147 1.433 . S
C1146 C1142 1.350 . S
C1146 C1143 1.463 . S
C1146 N1150 1.427 . S
C1147 H1137 0.929 . S
C1147 C1145 1.433 . S
C1147 N1150 1.384 . S
C1148 H1139 0.929 . S
C1148 C1140 1.378 . S
C1148 C1143 1.350 . S
C1149 H1136 0.929 . S
C1149 C1141 1.433 . S
C1149 N1151 1.384 . S
N1150 C1146 1.427 . S
N1150 C1147 1.384 . S
N1151 C1143 1.427 . S
N1151 C1149 1.384 . S
H1152 C1158 0.930 . S
H1153 C1162 0.930 . S
H1154 C1167 0.929 . S
H1155 C1165 0.929 . S
H1156 C1160 0.929 . S
H1157 C1166 0.929 . S
C1158 H1152 0.930 . S
C1158 C1159 1.367 . S
C1158 C1166 1.378 . S
C1159 C1158 1.367 . S
C1159 C1167 1.433 . S
C1160 H1156 0.929 . S
C1160 C1162 1.378 . S
C1160 C1164 1.350 . S
C1161 C1164 1.463 . S
C1161 C1166 1.350 . S
C1161 N1169 1.427 . S
C1162 H1153 0.930 . S
C1162 C1160 1.378 . S
C1162 C1163 1.367 . S
C1163 C1162 1.367 . S
C1163 C1165 1.433 . S
C1164 C1160 1.350 . S
C1164 C1161 1.463 . S
C1164 N1168 1.427 . S
C1165 H1155 0.929 . S
C1165 C1163 1.433 . S
C1165 N1168 1.384 . S
C1166 H1157 0.929 . S
C1166 C1158 1.378 . S
C1166 C1161 1.350 . S
C1167 H1154 0.929 . S
C1167 C1159 1.433 . S
C1167 N1169 1.384 . S
N1168 C1164 1.427 . S
N1168 C1165 1.384 . S
N1169 C1161 1.427 . S
N1169 C1167 1.384 . S
H1170 C1176 0.930 . S
H1171 C1180 0.930 . S
H1172 C1185 0.929 . S
H1173 C1183 0.929 . S
H1174 C1178 0.929 . S
H1175 C1184 0.929 . S
C1176 H1170 0.930 . S
C1176 C1177 1.367 . S
C1176 C1184 1.378 . S
C1177 C1176 1.367 . S
C1177 C1185 1.433 . S
C1178 H1174 0.929 . S
C1178 C1180 1.378 . S
C1178 C1182 1.350 . S
C1179 C1182 1.463 . S
C1179 C1184 1.350 . S
C1179 N1187 1.427 . S
C1180 H1171 0.930 . S
C1180 C1178 1.378 . S
C1180 C1181 1.367 . S
C1181 C1180 1.367 . S
C1181 C1183 1.433 . S
C1182 C1178 1.350 . S
C1182 C1179 1.463 . S
C1182 N1186 1.427 . S
C1183 H1173 0.929 . S
C1183 C1181 1.433 . S
C1183 N1186 1.384 . S
C1184 H1175 0.929 . S
C1184 C1176 1.378 . S
C1184 C1179 1.350 . S
C1185 H1172 0.929 . S
C1185 C1177 1.433 . S
C1185 N1187 1.384 . S
N1186 C1182 1.427 . S
N1186 C1183 1.384 . S
N1187 C1179 1.427 . S
N1187 C1185 1.384 . S
H1188 C1194 0.930 . S
H1189 C1198 0.930 . S
H1190 C1203 0.929 . S
H1191 C1201 0.929 . S
H1192 C1196 0.929 . S
H1193 C1202 0.929 . S
C1194 H1188 0.930 . S
C1194 C1195 1.367 . S
C1194 C1202 1.378 . S
C1195 C1194 1.367 . S
C1195 C1203 1.433 . S
C1196 H1192 0.929 . S
C1196 C1198 1.378 . S
C1196 C1200 1.350 . S
C1197 C1200 1.463 . S
C1197 C1202 1.350 . S
C1197 N1205 1.427 . S
C1198 H1189 0.930 . S
C1198 C1196 1.378 . S
C1198 C1199 1.367 . S
C1199 C1198 1.367 . S
C1199 C1201 1.433 . S
C1200 C1196 1.350 . S
C1200 C1197 1.463 . S
C1200 N1204 1.427 . S
C1201 H1191 0.929 . S
C1201 C1199 1.433 . S
C1201 N1204 1.384 . S
C1202 H1193 0.929 . S
C1202 C1194 1.378 . S
C1202 C1197 1.350 . S
C1203 H1190 0.929 . S
C1203 C1195 1.433 . S
C1203 N1205 1.384 . S
N1204 C1200 1.427 . S
N1204 C1201 1.384 . S
N1205 C1197 1.427 . S
N1205 C1203 1.384 . S
H1206 C1212 0.930 . S
H1207 C1216 0.930 . S
H1208 C1221 0.929 . S
H1209 C1219 0.929 . S
H1210 C1214 0.929 . S
H1211 C1220 0.929 . S
C1212 H1206 0.930 . S
C1212 C1213 1.367 . S
C1212 C1220 1.378 . S
C1213 C1212 1.367 . S
C1213 C1221 1.433 . S
C1214 H1210 0.929 . S
C1214 C1216 1.378 . S
C1214 C1218 1.350 . S
C1215 C1218 1.463 . S
C1215 C1220 1.350 . S
C1215 N1223 1.427 . S
C1216 H1207 0.930 . S
C1216 C1214 1.378 . S
C1216 C1217 1.367 . S
C1217 C1216 1.367 . S
C1217 C1219 1.433 . S
C1218 C1214 1.350 . S
C1218 C1215 1.463 . S
C1218 N1222 1.427 . S
C1219 H1209 0.929 . S
C1219 C1217 1.433 . S
C1219 N1222 1.384 . S
C1220 H1211 0.929 . S
C1220 C1212 1.378 . S
C1220 C1215 1.350 . S
C1221 H1208 0.929 . S
C1221 C1213 1.433 . S
C1221 N1223 1.384 . S
N1222 C1218 1.427 . S
N1222 C1219 1.384 . S
N1223 C1215 1.427 . S
N1223 C1221 1.384 . S
H1224 C1230 0.930 . S
H1225 C1234 0.930 . S
H1226 C1239 0.929 . S
H1227 C1237 0.929 . S
H1228 C1232 0.929 . S
H1229 C1238 0.929 . S
C1230 H1224 0.930 . S
C1230 C1231 1.367 . S
C1230 C1238 1.378 . S
C1231 C1230 1.367 . S
C1231 C1239 1.433 . S
C1232 H1228 0.929 . S
C1232 C1234 1.378 . S
C1232 C1236 1.350 . S
C1233 C1236 1.463 . S
C1233 C1238 1.350 . S
C1233 N1241 1.427 . S
C1234 H1225 0.930 . S
C1234 C1232 1.378 . S
C1234 C1235 1.367 . S
C1235 C1234 1.367 . S
C1235 C1237 1.433 . S
C1236 C1232 1.350 . S
C1236 C1233 1.463 . S
C1236 N1240 1.427 . S
C1237 H1227 0.929 . S
C1237 C1235 1.433 . S
C1237 N1240 1.384 . S
C1238 H1229 0.929 . S
C1238 C1230 1.378 . S
C1238 C1233 1.350 . S
C1239 H1226 0.929 . S
C1239 C1231 1.433 . S
C1239 N1241 1.384 . S
N1240 C1236 1.427 . S
N1240 C1237 1.384 . S
N1241 C1233 1.427 . S
N1241 C1239 1.384 . S
H1242 C1248 0.930 . S
H1243 C1252 0.930 . S
H1244 C1257 0.929 . S
H1245 C1255 0.929 . S
H1246 C1250 0.929 . S
H1247 C1256 0.929 . S
C1248 H1242 0.930 . S
C1248 C1249 1.367 . S
C1248 C1256 1.378 . S
C1249 C1248 1.367 . S
C1249 C1257 1.433 . S
C1250 H1246 0.929 . S
C1250 C1252 1.378 . S
C1250 C1254 1.350 . S
C1251 C1254 1.463 . S
C1251 C1256 1.350 . S
C1251 N1259 1.427 . S
C1252 H1243 0.930 . S
C1252 C1250 1.378 . S
C1252 C1253 1.367 . S
C1253 C1252 1.367 . S
C1253 C1255 1.433 . S
C1254 C1250 1.350 . S
C1254 C1251 1.463 . S
C1254 N1258 1.427 . S
C1255 H1245 0.929 . S
C1255 C1253 1.433 . S
C1255 N1258 1.384 . S
C1256 H1247 0.929 . S
C1256 C1248 1.378 . S
C1256 C1251 1.350 . S
C1257 H1244 0.929 . S
C1257 C1249 1.433 . S
C1257 N1259 1.384 . S
N1258 C1254 1.427 . S
N1258 C1255 1.384 . S
N1259 C1251 1.427 . S
N1259 C1257 1.384 . S
H1260 C1266 0.930 . S
H1261 C1270 0.930 . S
H1262 C1275 0.929 . S
H1263 C1273 0.929 . S
H1264 C1268 0.929 . S
H1265 C1274 0.929 . S
C1266 H1260 0.930 . S
C1266 C1267 1.367 . S
C1266 C1274 1.378 . S
C1267 C1266 1.367 . S
C1267 C1275 1.433 . S
C1268 H1264 0.929 . S
C1268 C1270 1.378 . S
C1268 C1272 1.350 . S
C1269 C1272 1.463 . S
C1269 C1274 1.350 . S
C1269 N1277 1.427 . S
C1270 H1261 0.930 . S
C1270 C1268 1.378 . S
C1270 C1271 1.367 . S
C1271 C1270 1.367 . S
C1271 C1273 1.433 . S
C1272 C1268 1.350 . S
C1272 C1269 1.463 . S
C1272 N1276 1.427 . S
C1273 H1263 0.929 . S
C1273 C1271 1.433 . S
C1273 N1276 1.384 . S
C1274 H1265 0.929 . S
C1274 C1266 1.378 . S
C1274 C1269 1.350 . S
C1275 H1262 0.929 . S
C1275 C1267 1.433 . S
C1275 N1277 1.384 . S
N1276 C1272 1.427 . S
N1276 C1273 1.384 . S
N1277 C1269 1.427 . S
N1277 C1275 1.384 . S
H1278 C1284 0.930 . S
H1279 C1288 0.930 1_565 S
H1280 C1293 0.929 . S
H1281 C1291 0.929 . S
H1282 C1286 0.929 1_554 S
H1283 C1292 0.929 . S
C1284 H1278 0.930 . S
C1284 C1285 1.367 . S
C1284 C1292 1.378 . S
C1285 C1284 1.367 . S
C1285 C1293 1.433 . S
C1286 H1282 0.929 1_556 S
C1286 C1288 1.378 . S
C1286 C1290 1.350 . S
C1287 C1290 1.463 1_554 S
C1287 C1292 1.350 . S
C1287 N1295 1.427 . S
C1288 H1279 0.930 1_545 S
C1288 C1286 1.378 . S
C1288 C1289 1.367 . S
C1289 C1288 1.367 . S
C1289 C1291 1.433 . S
C1290 C1286 1.350 . S
C1290 C1287 1.463 1_556 S
C1290 N1294 1.427 . S
C1291 H1281 0.929 . S
C1291 C1289 1.433 . S
C1291 N1294 1.384 . S
C1292 H1283 0.929 . S
C1292 C1284 1.378 . S
C1292 C1287 1.350 . S
C1293 H1280 0.929 . S
C1293 C1285 1.433 . S
C1293 N1295 1.384 . S
N1294 C1290 1.427 . S
N1294 C1291 1.384 . S
N1295 C1287 1.427 . S
N1295 C1293 1.384 . S
H1296 C1302 0.930 . S
H1297 C1306 0.930 . S
H1298 C1311 0.929 . S
H1299 C1309 0.929 . S
H1300 C1304 0.929 . S
H1301 C1310 0.929 . S
C1302 H1296 0.930 . S
C1302 C1303 1.367 . S
C1302 C1310 1.378 . S
C1303 C1302 1.367 . S
C1303 C1311 1.433 . S
C1304 H1300 0.929 . S
C1304 C1306 1.378 . S
C1304 C1308 1.350 . S
C1305 C1308 1.463 . S
C1305 C1310 1.350 . S
C1305 N1313 1.427 . S
C1306 H1297 0.930 . S
C1306 C1304 1.378 . S
C1306 C1307 1.367 . S
C1307 C1306 1.367 . S
C1307 C1309 1.433 . S
C1308 C1304 1.350 . S
C1308 C1305 1.463 . S
C1308 N1312 1.427 . S
C1309 H1299 0.929 . S
C1309 C1307 1.433 . S
C1309 N1312 1.384 . S
C1310 H1301 0.929 . S
C1310 C1302 1.378 . S
C1310 C1305 1.350 . S
C1311 H1298 0.929 . S
C1311 C1303 1.433 . S
C1311 N1313 1.384 . S
N1312 C1308 1.427 . S
N1312 C1309 1.384 . S
N1313 C1305 1.427 . S
N1313 C1311 1.384 . S
H1314 C1320 0.930 . S
H1315 C1324 0.930 . S
H1316 C1329 0.929 . S
H1317 C1327 0.929 . S
H1318 C1322 0.929 . S
H1319 C1328 0.929 1_556 S
C1320 H1314 0.930 . S
C1320 C1321 1.367 . S
C1320 C1328 1.378 . S
C1321 C1320 1.367 . S
C1321 C1329 1.433 . S
C1322 H1318 0.929 . S
C1322 C1324 1.378 . S
C1322 C1326 1.350 . S
C1323 C1326 1.463 . S
C1323 C1328 1.350 1_556 S
C1323 N1331 1.427 1_556 S
C1324 H1315 0.930 . S
C1324 C1322 1.378 . S
C1324 C1325 1.367 . S
C1325 C1324 1.367 . S
C1325 C1327 1.433 . S
C1326 C1322 1.350 . S
C1326 C1323 1.463 . S
C1326 N1330 1.427 . S
C1327 H1317 0.929 . S
C1327 C1325 1.433 . S
C1327 N1330 1.384 . S
C1328 H1319 0.929 1_554 S
C1328 C1320 1.378 . S
C1328 C1323 1.350 1_554 S
C1329 H1316 0.929 . S
C1329 C1321 1.433 . S
C1329 N1331 1.384 . S
N1330 C1326 1.427 . S
N1330 C1327 1.384 . S
N1331 C1323 1.427 1_554 S
N1331 C1329 1.384 . S
H1332 C1338 0.930 . S
H1333 C1342 0.930 . S
H1334 C1347 0.929 . S
H1335 C1345 0.929 . S
H1336 C1340 0.929 . S
H1337 C1346 0.929 . S
C1338 H1332 0.930 . S
C1338 C1339 1.367 . S
C1338 C1346 1.378 . S
C1339 C1338 1.367 . S
C1339 C1347 1.433 . S
C1340 H1336 0.929 . S
C1340 C1342 1.378 . S
C1340 C1344 1.350 . S
C1341 C1344 1.463 . S
C1341 C1346 1.350 . S
C1341 N1349 1.427 . S
C1342 H1333 0.930 . S
C1342 C1340 1.378 . S
C1342 C1343 1.367 . S
C1343 C1342 1.367 . S
C1343 C1345 1.433 . S
C1344 C1340 1.350 . S
C1344 C1341 1.463 . S
C1344 N1348 1.427 . S
C1345 H1335 0.929 . S
C1345 C1343 1.433 . S
C1345 N1348 1.384 . S
C1346 H1337 0.929 . S
C1346 C1338 1.378 . S
C1346 C1341 1.350 . S
C1347 H1334 0.929 . S
C1347 C1339 1.433 . S
C1347 N1349 1.384 . S
N1348 C1344 1.427 . S
N1348 C1345 1.384 . S
N1349 C1341 1.427 . S
N1349 C1347 1.384 . S
H1350 C1356 0.930 . S
H1351 C1360 0.930 . S
H1352 C1365 0.929 . S
H1353 C1363 0.929 . S
H1354 C1358 0.929 . S
H1355 C1364 0.929 . S
C1356 H1350 0.930 . S
C1356 C1357 1.367 . S
C1356 C1364 1.378 . S
C1357 C1356 1.367 . S
C1357 C1365 1.433 . S
C1358 H1354 0.929 . S
C1358 C1360 1.378 . S
C1358 C1362 1.350 . S
C1359 C1362 1.463 . S
C1359 C1364 1.350 . S
C1359 N1367 1.427 . S
C1360 H1351 0.930 . S
C1360 C1358 1.378 . S
C1360 C1361 1.367 . S
C1361 C1360 1.367 . S
C1361 C1363 1.433 . S
C1362 C1358 1.350 . S
C1362 C1359 1.463 . S
C1362 N1366 1.427 . S
C1363 H1353 0.929 . S
C1363 C1361 1.433 . S
C1363 N1366 1.384 . S
C1364 H1355 0.929 . S
C1364 C1356 1.378 . S
C1364 C1359 1.350 . S
C1365 H1352 0.929 . S
C1365 C1357 1.433 . S
C1365 N1367 1.384 . S
N1366 C1362 1.427 . S
N1366 C1363 1.384 . S
N1367 C1359 1.427 . S
N1367 C1365 1.384 . S
H1368 C1374 0.930 . S
H1369 C1378 0.930 . S
H1370 C1383 0.929 . S
H1371 C1381 0.929 . S
H1372 C1376 0.929 . S
H1373 C1382 0.929 . S
C1374 H1368 0.930 . S
C1374 C1375 1.367 . S
C1374 C1382 1.378 . S
C1375 C1374 1.367 . S
C1375 C1383 1.433 . S
C1376 H1372 0.929 . S
C1376 C1378 1.378 . S
C1376 C1380 1.350 . S
C1377 C1380 1.463 . S
C1377 C1382 1.350 . S
C1377 N1385 1.427 . S
C1378 H1369 0.930 . S
C1378 C1376 1.378 . S
C1378 C1379 1.367 . S
C1379 C1378 1.367 . S
C1379 C1381 1.433 . S
C1380 C1376 1.350 . S
C1380 C1377 1.463 . S
C1380 N1384 1.427 . S
C1381 H1371 0.929 . S
C1381 C1379 1.433 . S
C1381 N1384 1.384 . S
C1382 H1373 0.929 . S
C1382 C1374 1.378 . S
C1382 C1377 1.350 . S
C1383 H1370 0.929 . S
C1383 C1375 1.433 . S
C1383 N1385 1.384 . S
N1384 C1380 1.427 . S
N1384 C1381 1.384 . S
N1385 C1377 1.427 . S
N1385 C1383 1.384 . S
H1386 C1392 0.930 . S
H1387 C1396 0.930 1_655 S
H1388 C1401 0.929 . S
H1389 C1399 0.929 . S
H1390 C1394 0.929 1_545 S
H1391 C1400 0.929 . S
C1392 H1386 0.930 . S
C1392 C1393 1.367 . S
C1392 C1400 1.378 . S
C1393 C1392 1.367 . S
C1393 C1401 1.433 . S
C1394 H1390 0.929 1_565 S
C1394 C1396 1.378 . S
C1394 C1398 1.350 1_565 S
C1395 C1398 1.463 . S
C1395 C1400 1.350 . S
C1395 N1403 1.427 . S
C1396 H1387 0.930 1_455 S
C1396 C1394 1.378 . S
C1396 C1397 1.367 . S
C1397 C1396 1.367 . S
C1397 C1399 1.433 . S
C1398 C1394 1.350 1_545 S
C1398 C1395 1.463 . S
C1398 N1402 1.427 1_545 S
C1399 H1389 0.929 . S
C1399 C1397 1.433 . S
C1399 N1402 1.384 . S
C1400 H1391 0.929 . S
C1400 C1392 1.378 . S
C1400 C1395 1.350 . S
C1401 H1388 0.929 . S
C1401 C1393 1.433 . S
C1401 N1403 1.384 . S
N1402 C1398 1.427 1_565 S
N1402 C1399 1.384 . S
N1403 C1395 1.427 . S
N1403 C1401 1.384 . S
H1404 C1410 0.930 . S
H1405 C1414 0.930 . S
H1406 C1419 0.929 . S
H1407 C1417 0.929 . S
H1408 C1412 0.929 . S
H1409 C1418 0.929 . S
C1410 H1404 0.930 . S
C1410 C1411 1.367 . S
C1410 C1418 1.378 . S
C1411 C1410 1.367 . S
C1411 C1419 1.433 . S
C1412 H1408 0.929 . S
C1412 C1414 1.378 . S
C1412 C1416 1.350 . S
C1413 C1416 1.463 . S
C1413 C1418 1.350 . S
C1413 N1421 1.427 . S
C1414 H1405 0.930 . S
C1414 C1412 1.378 . S
C1414 C1415 1.367 . S
C1415 C1414 1.367 . S
C1415 C1417 1.433 . S
C1416 C1412 1.350 . S
C1416 C1413 1.463 . S
C1416 N1420 1.427 . S
C1417 H1407 0.929 . S
C1417 C1415 1.433 . S
C1417 N1420 1.384 . S
C1418 H1409 0.929 . S
C1418 C1410 1.378 . S
C1418 C1413 1.350 . S
C1419 H1406 0.929 . S
C1419 C1411 1.433 . S
C1419 N1421 1.384 . S
N1420 C1416 1.427 . S
N1420 C1417 1.384 . S
N1421 C1413 1.427 . S
N1421 C1419 1.384 . S
H1422 C1428 0.930 . S
H1423 C1432 0.930 . S
H1424 C1437 0.929 . S
H1425 C1435 0.929 . S
H1426 C1430 0.929 . S
H1427 C1436 0.929 1_565 S
C1428 H1422 0.930 . S
C1428 C1429 1.367 . S
C1428 C1436 1.378 . S
C1429 C1428 1.367 . S
C1429 C1437 1.433 . S
C1430 H1426 0.929 . S
C1430 C1432 1.378 . S
C1430 C1434 1.350 . S
C1431 C1434 1.469 . S
C1431 C1436 1.349 1_565 S
C1431 N1439 1.422 1_565 S
C1432 H1423 0.930 . S
C1432 C1430 1.378 . S
C1432 C1433 1.367 . S
C1433 C1432 1.367 . S
C1433 C1435 1.433 . S
C1434 C1430 1.350 . S
C1434 C1431 1.469 . S
C1434 N1438 1.427 . S
C1435 H1425 0.929 . S
C1435 C1433 1.433 . S
C1435 N1438 1.384 . S
C1436 H1427 0.929 1_545 S
C1436 C1428 1.378 . S
C1436 C1431 1.349 1_545 S
C1437 H1424 0.929 . S
C1437 C1429 1.433 . S
C1437 N1439 1.384 . S
N1438 C1434 1.427 . S
N1438 C1435 1.384 . S
N1439 C1431 1.422 1_545 S
N1439 C1437 1.384 . S
H1440 C1446 0.930 . S
H1441 C1450 0.930 . S
H1442 C1455 0.929 . S
H1443 C1453 0.929 . S
H1444 C1448 0.929 . S
H1445 C1454 0.929 . S
C1446 H1440 0.930 . S
C1446 C1447 1.367 . S
C1446 C1454 1.378 . S
C1447 C1446 1.367 . S
C1447 C1455 1.433 . S
C1448 H1444 0.929 . S
C1448 C1450 1.378 . S
C1448 C1452 1.350 . S
C1449 C1452 1.463 . S
C1449 C1454 1.350 . S
C1449 N1457 1.427 . S
C1450 H1441 0.930 . S
C1450 C1448 1.378 . S
C1450 C1451 1.367 . S
C1451 C1450 1.367 . S
C1451 C1453 1.433 . S
C1452 C1448 1.350 . S
C1452 C1449 1.463 . S
C1452 N1456 1.427 . S
C1453 H1443 0.929 . S
C1453 C1451 1.433 . S
C1453 N1456 1.384 . S
C1454 H1445 0.929 . S
C1454 C1446 1.378 . S
C1454 C1449 1.350 . S
C1455 H1442 0.929 . S
C1455 C1447 1.433 . S
C1455 N1457 1.384 . S
N1456 C1452 1.427 . S
N1456 C1453 1.384 . S
N1457 C1449 1.427 . S
N1457 C1455 1.384 . S
H1458 C1464 0.930 . S
H1459 C1468 0.930 . S
H1460 C1473 0.929 . S
H1461 C1471 0.929 . S
H1462 C1466 0.929 . S
H1463 C1472 0.929 . S
C1464 H1458 0.930 . S
C1464 C1465 1.367 . S
C1464 C1472 1.378 . S
C1465 C1464 1.367 . S
C1465 C1473 1.433 . S
C1466 H1462 0.929 . S
C1466 C1468 1.378 . S
C1466 C1470 1.350 . S
C1467 C1470 1.463 . S
C1467 C1472 1.350 . S
C1467 N1475 1.427 . S
C1468 H1459 0.930 . S
C1468 C1466 1.378 . S
C1468 C1469 1.367 . S
C1469 C1468 1.367 . S
C1469 C1471 1.433 . S
C1470 C1466 1.350 . S
C1470 C1467 1.463 . S
C1470 N1474 1.427 . S
C1471 H1461 0.929 . S
C1471 C1469 1.433 . S
C1471 N1474 1.384 . S
C1472 H1463 0.929 . S
C1472 C1464 1.378 . S
C1472 C1467 1.350 . S
C1473 H1460 0.929 . S
C1473 C1465 1.433 . S
C1473 N1475 1.384 . S
N1474 C1470 1.427 . S
N1474 C1471 1.384 . S
N1475 C1467 1.427 . S
N1475 C1473 1.384 . S
H1476 C1482 0.930 . S
H1477 C1486 0.930 . S
H1478 C1491 0.929 . S
H1479 C1489 0.929 . S
H1480 C1484 0.929 . S
H1481 C1490 0.929 . S
C1482 H1476 0.930 . S
C1482 C1483 1.367 . S
C1482 C1490 1.378 . S
C1483 C1482 1.367 . S
C1483 C1491 1.433 . S
C1484 H1480 0.929 . S
C1484 C1486 1.378 . S
C1484 C1488 1.350 . S
C1485 C1488 1.463 . S
C1485 C1490 1.350 . S
C1485 N1493 1.427 . S
C1486 H1477 0.930 . S
C1486 C1484 1.378 . S
C1486 C1487 1.367 . S
C1487 C1486 1.367 . S
C1487 C1489 1.433 . S
C1488 C1484 1.350 . S
C1488 C1485 1.463 . S
C1488 N1492 1.427 . S
C1489 H1479 0.929 . S
C1489 C1487 1.433 . S
C1489 N1492 1.384 . S
C1490 H1481 0.929 . S
C1490 C1482 1.378 . S
C1490 C1485 1.350 . S
C1491 H1478 0.929 . S
C1491 C1483 1.433 . S
C1491 N1493 1.384 . S
N1492 C1488 1.427 . S
N1492 C1489 1.384 . S
N1493 C1485 1.427 . S
N1493 C1491 1.384 . S
H1494 C1500 0.930 . S
H1495 C1504 0.930 . S
H1496 C1509 0.929 . S
H1497 C1507 0.929 . S
H1498 C1502 0.929 . S
H1499 C1508 0.929 . S
C1500 H1494 0.930 . S
C1500 C1501 1.367 . S
C1500 C1508 1.378 . S
C1501 C1500 1.367 . S
C1501 C1509 1.433 . S
C1502 H1498 0.929 . S
C1502 C1504 1.378 . S
C1502 C1506 1.350 . S
C1503 C1506 1.463 . S
C1503 C1508 1.350 . S
C1503 N1511 1.427 . S
C1504 H1495 0.930 . S
C1504 C1502 1.378 . S
C1504 C1505 1.367 . S
C1505 C1504 1.367 . S
C1505 C1507 1.433 . S
C1506 C1502 1.350 . S
C1506 C1503 1.463 . S
C1506 N1510 1.427 . S
C1507 H1497 0.929 . S
C1507 C1505 1.433 . S
C1507 N1510 1.384 . S
C1508 H1499 0.929 . S
C1508 C1500 1.378 . S
C1508 C1503 1.350 . S
C1509 H1496 0.929 . S
C1509 C1501 1.433 . S
C1509 N1511 1.384 . S
N1510 C1506 1.427 . S
N1510 C1507 1.384 . S
N1511 C1503 1.427 . S
N1511 C1509 1.384 . S
H1512 C1518 0.930 . S
H1513 C1522 0.930 . S
H1514 C1527 0.929 . S
H1515 C1525 0.929 . S
H1516 C1520 0.929 . S
H1517 C1526 0.929 . S
C1518 H1512 0.930 . S
C1518 C1519 1.367 . S
C1518 C1526 1.378 . S
C1519 C1518 1.367 . S
C1519 C1527 1.433 . S
C1520 H1516 0.929 . S
C1520 C1522 1.378 . S
C1520 C1524 1.350 . S
C1521 C1524 1.463 . S
C1521 C1526 1.350 . S
C1521 N1529 1.427 . S
C1522 H1513 0.930 . S
C1522 C1520 1.378 . S
C1522 C1523 1.367 . S
C1523 C1522 1.367 . S
C1523 C1525 1.433 . S
C1524 C1520 1.350 . S
C1524 C1521 1.463 . S
C1524 N1528 1.427 . S
C1525 H1515 0.929 . S
C1525 C1523 1.433 . S
C1525 N1528 1.384 . S
C1526 H1517 0.929 . S
C1526 C1518 1.378 . S
C1526 C1521 1.350 . S
C1527 H1514 0.929 . S
C1527 C1519 1.433 . S
C1527 N1529 1.384 . S
N1528 C1524 1.427 . S
N1528 C1525 1.384 . S
N1529 C1521 1.427 . S
N1529 C1527 1.384 . S
H1530 C1536 0.930 . S
H1531 C1540 0.930 . S
H1532 C1545 0.929 . S
H1533 C1543 0.929 . S
H1534 C1538 0.929 . S
H1535 C1544 0.929 . S
C1536 H1530 0.930 . S
C1536 C1537 1.367 . S
C1536 C1544 1.378 . S
C1537 C1536 1.367 . S
C1537 C1545 1.433 . S
C1538 H1534 0.929 . S
C1538 C1540 1.378 . S
C1538 C1542 1.350 . S
C1539 C1542 1.463 . S
C1539 C1544 1.350 . S
C1539 N1547 1.427 . S
C1540 H1531 0.930 . S
C1540 C1538 1.378 . S
C1540 C1541 1.367 . S
C1541 C1540 1.367 . S
C1541 C1543 1.433 . S
C1542 C1538 1.350 . S
C1542 C1539 1.463 . S
C1542 N1546 1.427 . S
C1543 H1533 0.929 . S
C1543 C1541 1.433 . S
C1543 N1546 1.384 . S
C1544 H1535 0.929 . S
C1544 C1536 1.378 . S
C1544 C1539 1.350 . S
C1545 H1532 0.929 . S
C1545 C1537 1.433 . S
C1545 N1547 1.384 . S
N1546 C1542 1.427 . S
N1546 C1543 1.384 . S
N1547 C1539 1.427 . S
N1547 C1545 1.384 . S
H1548 C1554 0.930 . S
H1549 C1558 0.930 . S
H1550 C1563 0.929 . S
H1551 C1561 0.920 1_556 S
H1552 C1556 0.929 . S
H1553 C1562 0.929 . S
C1554 H1548 0.930 . S
C1554 C1555 1.367 . S
C1554 C1562 1.378 . S
C1555 C1554 1.367 . S
C1555 C1563 1.433 . S
C1556 H1552 0.929 . S
C1556 C1558 1.378 . S
C1556 C1560 1.350 . S
C1557 C1560 1.463 1_455 S
C1557 C1562 1.350 . S
C1557 N1565 1.427 . S
C1558 H1549 0.930 . S
C1558 C1556 1.378 . S
C1558 C1559 1.367 . S
C1559 C1558 1.367 . S
C1559 C1561 1.433 . S
C1560 C1556 1.350 . S
C1560 C1557 1.463 1_655 S
C1560 N1564 1.427 . S
C1561 H1551 0.920 1_554 S
C1561 C1559 1.433 . S
C1561 N1564 1.384 . S
C1562 H1553 0.929 . S
C1562 C1554 1.378 . S
C1562 C1557 1.350 . S
C1563 H1550 0.929 . S
C1563 C1555 1.433 . S
C1563 N1565 1.384 . S
N1564 C1560 1.427 . S
N1564 C1561 1.384 . S
N1565 C1557 1.427 . S
N1565 C1563 1.384 . S
H1566 C1572 0.930 . S
H1567 C1576 0.930 . S
H1568 C1581 0.929 . S
H1569 C1579 0.929 . S
H1570 C1574 0.929 . S
H1571 C1580 0.929 . S
C1572 H1566 0.930 . S
C1572 C1573 1.367 . S
C1572 C1580 1.378 . S
C1573 C1572 1.367 . S
C1573 C1581 1.433 . S
C1574 H1570 0.929 . S
C1574 C1576 1.378 . S
C1574 C1578 1.350 . S
C1575 C1578 1.463 . S
C1575 C1580 1.350 . S
C1575 N1583 1.427 . S
C1576 H1567 0.930 . S
C1576 C1574 1.378 . S
C1576 C1577 1.367 . S
C1577 C1576 1.367 . S
C1577 C1579 1.433 . S
C1578 C1574 1.350 . S
C1578 C1575 1.463 . S
C1578 N1582 1.427 . S
C1579 H1569 0.929 . S
C1579 C1577 1.433 . S
C1579 N1582 1.384 . S
C1580 H1571 0.929 . S
C1580 C1572 1.378 . S
C1580 C1575 1.350 . S
C1581 H1568 0.929 . S
C1581 C1573 1.433 . S
C1581 N1583 1.384 . S
N1582 C1578 1.427 . S
N1582 C1579 1.384 . S
N1583 C1575 1.427 . S
N1583 C1581 1.384 . S
H1584 C1590 0.930 . S
H1585 C1594 0.930 . S
H1586 C1599 0.929 . S
H1587 C1597 0.929 . S
H1588 C1592 0.929 . S
H1589 C1598 0.929 . S
C1590 H1584 0.930 . S
C1590 C1591 1.367 . S
C1590 C1598 1.378 . S
C1591 C1590 1.367 . S
C1591 C1599 1.433 . S
C1592 H1588 0.929 . S
C1592 C1594 1.378 . S
C1592 C1596 1.350 . S
C1593 C1596 1.463 . S
C1593 C1598 1.350 . S
C1593 N1601 1.427 . S
C1594 H1585 0.930 . S
C1594 C1592 1.378 . S
C1594 C1595 1.367 . S
C1595 C1594 1.367 . S
C1595 C1597 1.433 . S
C1596 C1592 1.350 . S
C1596 C1593 1.463 . S
C1596 N1600 1.427 . S
C1597 H1587 0.929 . S
C1597 C1595 1.433 . S
C1597 N1600 1.384 . S
C1598 H1589 0.929 . S
C1598 C1590 1.378 . S
C1598 C1593 1.350 . S
C1599 H1586 0.929 . S
C1599 C1591 1.433 . S
C1599 N1601 1.384 . S
N1600 C1596 1.427 . S
N1600 C1597 1.384 . S
N1601 C1593 1.427 . S
N1601 C1599 1.384 . S
H1602 C1608 0.930 . S
H1603 C1612 0.930 . S
H1604 C1617 0.929 . S
H1605 C1615 0.929 . S
H1606 C1610 0.929 . S
H1607 C1616 0.929 . S
C1608 H1602 0.930 . S
C1608 C1609 1.367 . S
C1608 C1616 1.378 . S
C1609 C1608 1.367 . S
C1609 C1617 1.433 . S
C1610 H1606 0.929 . S
C1610 C1612 1.378 . S
C1610 C1614 1.350 . S
C1611 C1614 1.463 . S
C1611 C1616 1.350 . S
C1611 N1619 1.427 . S
C1612 H1603 0.930 . S
C1612 C1610 1.378 . S
C1612 C1613 1.367 . S
C1613 C1612 1.367 . S
C1613 C1615 1.433 . S
C1614 C1610 1.350 . S
C1614 C1611 1.463 . S
C1614 N1618 1.427 . S
C1615 H1605 0.929 . S
C1615 C1613 1.433 . S
C1615 N1618 1.384 . S
C1616 H1607 0.929 . S
C1616 C1608 1.378 . S
C1616 C1611 1.350 . S
C1617 H1604 0.929 . S
C1617 C1609 1.433 . S
C1617 N1619 1.384 . S
N1618 C1614 1.427 . S
N1618 C1615 1.384 . S
N1619 C1611 1.427 . S
N1619 C1617 1.384 . S
H1620 C1626 0.930 1_554 S
H1621 C1630 0.930 . S
H1622 C1635 0.929 . S
H1623 C1633 0.929 . S
H1624 C1628 0.929 . S
H1625 C1634 0.929 . S
C1626 H1620 0.930 1_556 S
C1626 C1627 1.367 . S
C1626 C1634 1.378 . S
C1627 C1626 1.367 . S
C1627 C1635 1.433 . S
C1628 H1624 0.929 . S
C1628 C1630 1.378 . S
C1628 C1632 1.350 . S
C1629 C1632 1.463 . S
C1629 C1634 1.350 . S
C1629 N1637 1.427 . S
C1630 H1621 0.930 . S
C1630 C1628 1.378 . S
C1630 C1631 1.367 . S
C1631 C1630 1.367 . S
C1631 C1633 1.433 . S
C1632 C1628 1.350 . S
C1632 C1629 1.463 . S
C1632 N1636 1.427 . S
C1633 H1623 0.929 . S
C1633 C1631 1.433 . S
C1633 N1636 1.384 . S
C1634 H1625 0.929 . S
C1634 C1626 1.378 . S
C1634 C1629 1.350 . S
C1635 H1622 0.929 . S
C1635 C1627 1.433 . S
C1635 N1637 1.384 . S
N1636 C1632 1.427 . S
N1636 C1633 1.384 . S
N1637 C1629 1.427 . S
N1637 C1635 1.384 . S
H1638 C1644 0.930 . S
H1639 C1648 0.930 . S
H1640 C1653 0.929 . S
H1641 C1651 0.929 . S
H1642 C1646 0.929 . S
H1643 C1652 0.929 . S
C1644 H1638 0.930 . S
C1644 C1645 1.367 . S
C1644 C1652 1.378 . S
C1645 C1644 1.367 . S
C1645 C1653 1.433 . S
C1646 H1642 0.929 . S
C1646 C1648 1.378 . S
C1646 C1650 1.335 1_455 S
C1647 C1650 1.484 . S
C1647 C1652 1.350 . S
C1647 N1655 1.427 . S
C1648 H1639 0.930 . S
C1648 C1646 1.378 . S
C1648 C1649 1.367 . S
C1649 C1648 1.367 . S
C1649 C1651 1.433 . S
C1650 C1646 1.335 1_655 S
C1650 C1647 1.484 . S
C1650 N1654 1.422 1_655 S
C1651 H1641 0.929 . S
C1651 C1649 1.433 . S
C1651 N1654 1.384 . S
C1652 H1643 0.929 . S
C1652 C1644 1.378 . S
C1652 C1647 1.350 . S
C1653 H1640 0.929 . S
C1653 C1645 1.433 . S
C1653 N1655 1.384 . S
N1654 C1650 1.422 1_455 S
N1654 C1651 1.384 . S
N1655 C1647 1.427 . S
N1655 C1653 1.384 . S
C1015 C74 1.626 . S
C1019 C991 1.677 . S
C1033 C823 1.702 . S
C1037 C158 1.663 . S
C1051 C235 1.677 . S
C1055 C746 1.635 . S
C1069 C326 1.654 . S
C1073 C907 1.706 . S
C1087 C410 1.668 . S
C1091 C914 1.667 . S
C1105 C487 1.694 . S
C1109 C998 1.644 . S
C1123 C830 1.678 . S
C1127 C578 1.666 . S
C1141 C655 1.663 . S
C1145 C739 1.662 . S
C1159 C319 1.667 . S
C1163 C403 1.665 . S
C1177 C67 1.702 . S
C1181 C494 1.660 . S
C1195 C151 1.672 . S
C1199 C571 1.670 . S
C1213 C662 1.677 . S
C1217 C242 1.692 . S
C1231 C69 1.424 . S
C1235 C735 1.653 . S
C1249 C153 1.422 . S
C1253 C896 1.638 . S
C1267 C980 1.645 . S
C1271 C226 1.617 . S
C1285 C321 1.386 . S
C1289 C812 1.604 . S
C1303 C405 1.398 . S
C1307 C819 1.644 . S
C1321 C728 1.627 . S
C1325 C478 1.621 . S
C1339 C903 1.643 . S
C1343 C573 1.415 . S
C1357 C987 1.698 . S
C1361 C646 1.645 . S
C1375 C56 1.633 . S
C1379 C310 1.616 . S
C1393 C58 1.565 . S
C1397 C140 1.589 . S
C1411 C142 1.605 . S
C1415 C231 1.660 . S
C1429 C308 1.595 . S
C1433 C237 1.380 . S
C1447 C489 1.423 . S
C1451 C392 1.639 . S
C1465 C483 1.676 . S
C1469 C562 1.616 . S
C1483 C560 1.640 . S
C1487 C657 1.415 . S
C1501 C394 1.621 . S
C1505 C651 1.669 . S
C1519 C730 1.582 . S
C1523 C315 1.620 . S
C1537 C476 1.626 . S
C1541 C814 1.599 . S
C1555 C741 1.399 . S
C1559 C567 1.627 . S
C1573 C898 1.611 . S
C1577 C644 1.638 . S
C1591 C399 1.661 . S
C1595 C982 1.606 . S
C1609 C993 1.414 . S
C1613 C147 1.641 . S
C1627 C224 1.634 . S
C1631 C825 1.410 . S
C1645 C909 1.430 . S
C1649 C63 1.670 . S
