# Generated by pormake.
# Topology wjh, (4)-cn, num edge types: 1
# Building blocks:
#     Node 0, Type 0, BuildingBlock: ICAMEG_clean_sbu_1, # of connection points: 4
#     Node 1, Type 0, BuildingBlock: ICAMEG_clean_sbu_1, # of connection points: 4
#     Node 2, Type 0, BuildingBlock: ICAMEG_clean_sbu_1, # of connection points: 4
#     Node 3, Type 0, BuildingBlock: ICAMEG_clean_sbu_1, # of connection points: 4
#     Node 4, Type 0, BuildingBlock: ICAMEG_clean_sbu_1, # of connection points: 4
#     Node 5, Type 0, BuildingBlock: ICAMEG_clean_sbu_1, # of connection points: 4
#     Node 6, Type 0, BuildingBlock: ICAMEG_clean_sbu_1, # of connection points: 4
#     Node 7, Type 0, BuildingBlock: ICAMEG_clean_sbu_1, # of connection points: 4
#     Node 8, Type 0, BuildingBlock: ICAMEG_clean_sbu_1, # of connection points: 4
#     Node 9, Type 0, BuildingBlock: ICAMEG_clean_sbu_1, # of connection points: 4
#     Node 10, Type 0, BuildingBlock: ICAMEG_clean_sbu_1, # of connection points: 4
#     Node 11, Type 0, BuildingBlock: ICAMEG_clean_sbu_1, # of connection points: 4
#     Edge 12, Type (0, 0), BuildingBlock: XIVTED_clean_linker_0, # of connection points: 2
#     Edge 13, Type (0, 0), BuildingBlock: XIVTED_clean_linker_0, # of connection points: 2
#     Edge 14, Type (0, 0), BuildingBlock: XIVTED_clean_linker_0, # of connection points: 2
#     Edge 15, Type (0, 0), BuildingBlock: XIVTED_clean_linker_0, # of connection points: 2
#     Edge 16, Type (0, 0), BuildingBlock: XIVTED_clean_linker_0, # of connection points: 2
#     Edge 17, Type (0, 0), BuildingBlock: XIVTED_clean_linker_0, # of connection points: 2
#     Edge 18, Type (0, 0), BuildingBlock: XIVTED_clean_linker_0, # of connection points: 2
#     Edge 19, Type (0, 0), BuildingBlock: XIVTED_clean_linker_0, # of connection points: 2
#     Edge 20, Type (0, 0), BuildingBlock: XIVTED_clean_linker_0, # of connection points: 2
#     Edge 21, Type (0, 0), BuildingBlock: XIVTED_clean_linker_0, # of connection points: 2
#     Edge 22, Type (0, 0), BuildingBlock: XIVTED_clean_linker_0, # of connection points: 2
#     Edge 23, Type (0, 0), BuildingBlock: XIVTED_clean_linker_0, # of connection points: 2
#     Edge 24, Type (0, 0), BuildingBlock: XIVTED_clean_linker_0, # of connection points: 2
#     Edge 25, Type (0, 0), BuildingBlock: XIVTED_clean_linker_0, # of connection points: 2
#     Edge 26, Type (0, 0), BuildingBlock: XIVTED_clean_linker_0, # of connection points: 2
#     Edge 27, Type (0, 0), BuildingBlock: XIVTED_clean_linker_0, # of connection points: 2
#     Edge 28, Type (0, 0), BuildingBlock: XIVTED_clean_linker_0, # of connection points: 2
#     Edge 29, Type (0, 0), BuildingBlock: XIVTED_clean_linker_0, # of connection points: 2
#     Edge 30, Type (0, 0), BuildingBlock: XIVTED_clean_linker_0, # of connection points: 2
#     Edge 31, Type (0, 0), BuildingBlock: XIVTED_clean_linker_0, # of connection points: 2
#     Edge 32, Type (0, 0), BuildingBlock: XIVTED_clean_linker_0, # of connection points: 2
#     Edge 33, Type (0, 0), BuildingBlock: XIVTED_clean_linker_0, # of connection points: 2
#     Edge 34, Type (0, 0), BuildingBlock: XIVTED_clean_linker_0, # of connection points: 2
#     Edge 35, Type (0, 0), BuildingBlock: XIVTED_clean_linker_0, # of connection points: 2
# Relax obj value: 0.058
# Max RMSD: 0.097
# Mean RMSD: 0.097
data_MOF--net-wjh--node1-ICAMEG_clean_sbu_1--edge1-XIVTED_clean_linker_0
_symmetry_space_group_name_H-M    P1
_symmetry_Int_Tables_number       1
_symmetry_cell_setting            triclinic
loop_
_symmetry_equiv_pos_as_xyz
'x, y, z'
_cell_length_a     63.805178
_cell_length_b     63.801353
_cell_length_c     30.079923
_cell_angle_alpha  89.978382
_cell_angle_beta   89.986649
_cell_angle_gamma 120.01671
loop_
_atom_site_label
_atom_site_type_symbol
_atom_site_fract_x
_atom_site_fract_y
_atom_site_fract_z
_atom_type_partial_charge
Co0 Co 0.50837 0.15199 0.06124 0.0
Co1 Co 0.56303 0.15722 0.0297 0.0
O2 O 0.538 0.16631 0.02559 0.0
C3 C 0.53297 0.2042 0.08407 0.0
O4 O 0.55322 0.20364 0.08659 0.0
C5 C 0.54662 0.14608 0.93705 0.0
O6 O 0.52447 0.13741 0.95195 0.0
O7 O 0.53843 0.12198 0.03045 0.0
O8 O 0.50286 0.11877 0.04956 0.0
H9 H 0.60207 0.11184 0.09146 0.0
H10 H 0.5152 0.18639 0.98883 0.0
O11 O 0.51328 0.1851 0.0739 0.0
H12 H 0.44153 0.11018 0.94891 0.0
H13 H 0.43007 0.14432 0.11481 0.0
H14 H 0.48615 0.11257 0.12797 0.0
H15 H 0.46358 0.11321 0.01814 0.0
H16 H 0.46743 0.16169 0.06996 0.0
O17 O 0.56449 0.15582 0.96363 0.0
H18 H 0.57065 0.12347 0.08614 0.0
H19 H 0.60899 0.17201 0.98071 0.0
H20 H 0.4489 0.09453 0.1732 0.0
H21 H 0.49359 0.18423 0.91946 0.0
H22 H 0.42056 0.11043 0.16677 0.0
H23 H 0.45651 0.14589 0.89906 0.0
O24 O 0.52636 0.15378 0.11669 0.0
H25 H 0.60095 0.24251 0.97266 0.0
H26 H 0.6062 0.18909 0.08519 0.0
H27 H 0.63611 0.23275 0.08595 0.0
H28 H 0.63361 0.25978 0.02936 0.0
H29 H 0.5713 0.19875 0.97334 0.0
H30 H 0.64073 0.16075 0.98464 0.0
H31 H 0.63742 0.13053 0.04044 0.0
O32 O 0.562 0.15793 0.09537 0.0
C33 C 0.5158 0.10948 0.03872 0.0
C34 C 0.60375 0.12508 0.06709 0.0
C35 C 0.62544 0.15251 0.0071 0.0
N36 N 0.58808 0.14853 0.03339 0.0
C37 C 0.58606 0.13179 0.06401 0.0
C38 C 0.60739 0.15878 0.00498 0.0
C39 C 0.62357 0.13556 0.03843 0.0
C40 C 0.49896 0.16971 0.98036 0.0
N41 N 0.4906 0.14998 0.00758 0.0
C42 C 0.48685 0.16857 0.94096 0.0
C43 C 0.46606 0.14704 0.92951 0.0
C44 C 0.45766 0.12699 0.95745 0.0
C45 C 0.47025 0.12879 -0.00345 0.0
C46 C 0.44225 0.13721 0.11786 0.0
C47 C 0.47383 0.11948 0.1248 0.0
C48 C 0.46346 0.14701 0.09263 0.0
N49 N 0.47887 0.13804 0.09615 0.0
C50 C 0.45281 0.10924 0.15058 0.0
C51 C 0.43693 0.11819 0.14699 0.0
C52 C 0.54692 0.15585 0.12514 0.0
C53 C 0.60227 0.23091 -0.00258 0.0
C54 C 0.60496 0.20074 0.06052 0.0
C55 C 0.62198 0.22544 0.06106 0.0
C56 C 0.62057 0.24059 0.02928 0.0
N57 N 0.58709 0.19139 0.02912 0.0
C58 C 0.58559 0.20612 -0.00215 0.0
Co59 Co 0.36289 0.51022 0.24037 0.0
Co60 Co 0.41163 0.56386 0.20313 0.0
O61 O 0.3775 0.53872 0.20161 0.0
C62 C 0.33446 0.53432 0.25884 0.0
O63 O 0.35517 0.55471 0.26104 0.0
C64 C 0.40516 0.54684 0.11091 0.0
O65 O 0.39265 0.5247 0.12649 0.0
O66 O 0.42205 0.53916 0.202 0.0
O67 O 0.39129 0.50532 0.23184 0.0
H68 H 0.4975 0.60331 0.25763 0.0
H69 H 0.33452 0.51344 0.16534 0.0
O70 O 0.33414 0.51459 0.2502 0.0
H71 H 0.34019 0.44039 0.13608 0.0
H72 H 0.29349 0.4327 0.29979 0.0
H73 H 0.38083 0.49127 0.31201 0.0
H74 H 0.3587 0.46493 0.20327 0.0
H75 H 0.31277 0.46858 0.251 0.0
O76 O 0.41288 0.56486 0.13703 0.0
H77 H 0.45436 0.5718 0.25552 0.0
H78 H 0.44159 0.60955 0.15245 0.0
H79 H 0.36235 0.45554 0.36121 0.0
H80 H 0.31555 0.4893 0.09792 0.0
H81 H 0.31836 0.42596 0.35527 0.0
H82 H 0.31839 0.45252 0.0829 0.0
O83 O 0.37864 0.53015 0.294 0.0
H84 H 0.3629 0.60132 0.15155 0.0
H85 H 0.42435 0.60751 0.25841 0.0
H86 H 0.4106 0.63739 0.26117 0.0
H87 H 0.37966 0.6344 0.20744 0.0
H88 H 0.37704 0.5717 0.15022 0.0
H89 H 0.48463 0.64135 0.15312 0.0
H90 H 0.51289 0.63839 0.20614 0.0
O91 O 0.41165 0.56348 0.269 0.0
C92 C 0.41262 0.51738 0.21578 0.0
C93 C 0.48536 0.60484 0.23446 0.0
C94 C 0.47814 0.62617 0.17577 0.0
N95 N 0.44545 0.58893 0.20413 0.0
C96 C 0.4609 0.58709 0.2332 0.0
C97 C 0.4538 0.60808 0.17547 0.0
C98 C 0.49398 0.62451 0.20554 0.0
C99 C 0.33563 0.49733 0.15922 0.0
N100 N 0.34758 0.49053 0.1883 0.0
C101 C 0.32494 0.48379 0.12091 0.0
C102 C 0.32657 0.46318 0.11247 0.0
C103 C 0.33881 0.45637 0.14228 0.0
C104 C 0.3493 0.47036 0.18022 0.0
C105 C 0.31269 0.44543 0.30263 0.0
C106 C 0.36172 0.47838 0.309 0.0
C107 C 0.32369 0.46579 0.27515 0.0
N108 N 0.34794 0.48188 0.27841 0.0
C109 C 0.35134 0.45823 0.33706 0.0
C110 C 0.32665 0.44165 0.33374 0.0
C111 C 0.3982 0.55012 0.3003 0.0
C112 C 0.37643 0.60284 0.17507 0.0
C113 C 0.41084 0.60605 0.235 0.0
C114 C 0.40317 0.62306 0.23665 0.0
C115 C 0.38582 0.62138 0.20648 0.0
N116 N 0.40155 0.58793 0.20409 0.0
C117 C 0.38457 0.58619 0.17436 0.0
Co118 Co 0.85355 0.35742 0.40077 0.0
Co119 Co 0.84901 0.40744 0.37076 0.0
O120 O 0.8397 0.37332 0.3655 0.0
C121 C 0.80117 0.32999 0.4223 0.0
O122 O 0.80194 0.35088 0.42542 0.0
C123 C 0.86045 0.40306 0.27782 0.0
O124 O 0.86898 0.38934 0.29208 0.0
O125 O 0.88417 0.41779 0.37174 0.0
O126 O 0.88695 0.38509 0.39013 0.0
H127 H 0.89466 0.49117 0.43548 0.0
H128 H 0.81957 0.33082 0.3273 0.0
O129 O 0.82024 0.32929 0.41234 0.0
H130 H 0.89571 0.3331 0.28788 0.0
H131 H 0.86007 0.28579 0.45214 0.0
H132 H 0.89252 0.37363 0.46818 0.0
H133 H 0.89238 0.3515 0.35769 0.0
H134 H 0.84331 0.30653 0.40784 0.0
O135 O 0.85073 0.41101 0.30482 0.0
H136 H 0.88271 0.44809 0.42858 0.0
H137 H 0.83484 0.43944 0.32298 0.0
H138 H 0.90995 0.35365 0.51288 0.0
H139 H 0.82202 0.31199 0.25733 0.0
H140 H 0.8937 0.30941 0.505 0.0
H141 H 0.86033 0.31313 0.23718 0.0
O142 O 0.85154 0.37309 0.45679 0.0
H143 H 0.76396 0.36112 0.31241 0.0
H144 H 0.81712 0.41859 0.42659 0.0
H145 H 0.77353 0.40513 0.42702 0.0
H146 H 0.74664 0.3762 0.3696 0.0
H147 H 0.80764 0.37492 0.31345 0.0
H148 H 0.84643 0.48249 0.32848 0.0
H149 H 0.87647 0.50864 0.38518 0.0
O150 O 0.84793 0.40501 0.43632 0.0
C151 C 0.89647 0.40743 0.37981 0.0
C152 C 0.88149 0.47994 0.41073 0.0
C153 C 0.85445 0.47508 0.35064 0.0
N154 N 0.85796 0.44123 0.37564 0.0
C155 C 0.8746 0.45552 0.40675 0.0
C156 C 0.848 0.45073 0.34762 0.0
C157 C 0.8713 0.48974 0.38247 0.0
C158 C 0.83623 0.3312 0.31893 0.0
N159 N 0.85578 0.34215 0.34662 0.0
C160 C 0.83754 0.32059 0.2792 0.0
C161 C 0.85905 0.32126 0.26788 0.0
C162 C 0.87891 0.33248 0.2963 0.0
C163 C 0.87695 0.34292 0.33573 0.0
C164 C 0.86733 0.30508 0.45582 0.0
C165 C 0.88545 0.3544 0.46438 0.0
C166 C 0.85788 0.31691 0.43091 0.0
N167 N 0.86704 0.34129 0.43524 0.0
C168 C 0.89535 0.34318 0.48986 0.0
C169 C 0.8862 0.31835 0.48546 0.0
C170 C 0.8496 0.3916 0.46574 0.0
C171 C 0.7755 0.37378 0.33754 0.0
C172 C 0.80553 0.40596 0.40157 0.0
C173 C 0.78087 0.39844 0.40192 0.0
C174 C 0.76579 0.38222 0.36967 0.0
N175 N 0.81492 0.39761 0.36992 0.0
C176 C 0.80026 0.38172 0.33818 0.0
Co177 Co 0.49499 0.85267 0.56972 0.0
Co178 Co 0.44024 0.84671 0.53676 0.0
O179 O 0.46552 0.83793 0.53365 0.0
C180 C 0.47074 0.80055 0.59359 0.0
O181 O 0.45027 0.80074 0.59521 0.0
C182 C 0.45732 0.85792 0.44451 0.0
O183 O 0.47934 0.86651 0.46002 0.0
O184 O 0.46456 0.88203 0.53748 0.0
O185 O 0.50028 0.8857 0.55687 0.0
H186 H 0.40003 0.89137 0.59658 0.0
H187 H 0.48878 0.81796 0.49842 0.0
O188 O 0.49034 0.81978 0.58351 0.0
H189 H 0.56234 0.89422 0.45811 0.0
H190 H 0.57333 0.86139 0.62571 0.0
H191 H 0.5166 0.8925 0.63564 0.0
H192 H 0.53988 0.89141 0.52669 0.0
H193 H 0.53619 0.84349 0.58022 0.0
O194 O 0.43922 0.84809 0.47062 0.0
H195 H 0.43181 0.88019 0.59235 0.0
H196 H 0.39452 0.83149 0.48664 0.0
H197 H 0.55362 0.91108 0.68146 0.0
H198 H 0.51082 0.81989 0.42973 0.0
H199 H 0.58228 0.8955 0.67666 0.0
H200 H 0.54784 0.85826 0.40913 0.0
O201 O 0.47665 0.85101 0.62462 0.0
H202 H 0.40345 0.76144 0.48025 0.0
H203 H 0.3968 0.81457 0.59152 0.0
H204 H 0.3672 0.77082 0.59223 0.0
H205 H 0.37042 0.74394 0.53627 0.0
H206 H 0.43277 0.80529 0.48097 0.0
H207 H 0.36244 0.8423 0.48946 0.0
H208 H 0.36503 0.87237 0.54486 0.0
O209 O 0.44081 0.84602 0.60246 0.0
C210 C 0.48718 0.89476 0.54559 0.0
C211 C 0.39866 0.87819 0.57238 0.0
C212 C 0.37758 0.85067 0.51222 0.0
N213 N 0.41493 0.85507 0.53952 0.0
C214 C 0.41656 0.87174 0.56992 0.0
C215 C 0.39582 0.84466 0.51072 0.0
C216 C 0.37904 0.86754 0.54332 0.0
C217 C 0.50499 0.83465 0.48986 0.0
N218 N 0.51309 0.85452 0.5166 0.0
C219 C 0.51734 0.83567 0.45085 0.0
C220 C 0.5381 0.85721 0.43928 0.0
C221 C 0.54624 0.8774 0.46673 0.0
C222 C 0.53341 0.87572 0.50546 0.0
C223 C 0.561 0.86836 0.62805 0.0
C224 C 0.52906 0.88573 0.63318 0.0
C225 C 0.53992 0.85826 0.60246 0.0
N226 N 0.52433 0.86705 0.60509 0.0
C227 C 0.54996 0.89627 0.65929 0.0
C228 C 0.56602 0.88751 0.65661 0.0
C229 C 0.45587 0.8485 0.63258 0.0
C230 C 0.40182 0.77298 0.50473 0.0
C231 C 0.39834 0.80298 0.56713 0.0
C232 C 0.3815 0.77823 0.56764 0.0
C233 C 0.38331 0.76316 0.53621 0.0
N234 N 0.41642 0.81247 0.53611 0.0
C235 C 0.41831 0.79782 0.50519 0.0
Co236 Co 0.64952 0.49914 0.73096 0.0
Co237 Co 0.60052 0.44441 0.69842 0.0
O238 O 0.63464 0.46949 0.69536 0.0
C239 C 0.6764 0.47426 0.7563 0.0
O240 O 0.65539 0.45419 0.75829 0.0
C241 C 0.60684 0.46045 0.60528 0.0
O242 O 0.62026 0.4827 0.61978 0.0
O243 O 0.58987 0.46899 0.69764 0.0
O244 O 0.62199 0.50464 0.71735 0.0
H245 H 0.51538 0.4054 0.75682 0.0
H246 H 0.67805 0.49222 0.6606 0.0
O247 O 0.67744 0.49409 0.74553 0.0
H248 H 0.67617 0.56589 0.61784 0.0
H249 H 0.71958 0.57739 0.78612 0.0
H250 H 0.63151 0.52156 0.79561 0.0
H251 H 0.65615 0.54387 0.6866 0.0
H252 H 0.7001 0.53995 0.74149 0.0
O253 O 0.59839 0.44275 0.63231 0.0
H254 H 0.55848 0.43686 0.75273 0.0
H255 H 0.56994 0.39828 0.64949 0.0
H256 H 0.65021 0.5589 0.84056 0.0
H257 H 0.69851 0.5138 0.59175 0.0
H258 H 0.69456 0.58711 0.83597 0.0
H259 H 0.69758 0.55088 0.56992 0.0
O260 O 0.63257 0.48126 0.78612 0.0
H261 H 0.64889 0.40673 0.64589 0.0
H262 H 0.58852 0.40127 0.75467 0.0
H263 H 0.60244 0.37153 0.75753 0.0
H264 H 0.63284 0.37415 0.70284 0.0
H265 H 0.63459 0.43621 0.64447 0.0
H266 H 0.52691 0.3665 0.6522 0.0
H267 H 0.49934 0.3699 0.70628 0.0
O268 O 0.60148 0.44554 0.76408 0.0
C269 C 0.59988 0.49164 0.70567 0.0
C270 C 0.52723 0.40367 0.7332 0.0
C271 C 0.5337 0.38185 0.67444 0.0
N272 N 0.56674 0.41932 0.70114 0.0
C273 C 0.55167 0.42139 0.73082 0.0
C274 C 0.55803 0.39993 0.673 0.0
C275 C 0.51824 0.38377 0.70481 0.0
C276 C 0.67776 0.50846 0.65151 0.0
N277 N 0.66602 0.51684 0.67767 0.0
C278 C 0.68929 0.52055 0.61241 0.0
C279 C 0.68873 0.54134 0.60015 0.0
C280 C 0.67671 0.54976 0.62701 0.0
C281 C 0.66536 0.53719 0.66584 0.0
C282 C 0.70024 0.56526 0.78836 0.0
C283 C 0.6508 0.53382 0.79324 0.0
C284 C 0.68911 0.54401 0.76325 0.0
N285 N 0.66467 0.52868 0.76575 0.0
C286 C 0.66129 0.5549 0.81886 0.0
C287 C 0.68618 0.57071 0.81631 0.0
C288 C 0.61403 0.46065 0.79412 0.0
C289 C 0.63559 0.40536 0.66983 0.0
C290 C 0.60178 0.40256 0.73082 0.0
C291 C 0.60956 0.38564 0.73254 0.0
C292 C 0.62661 0.38711 0.70183 0.0
N293 N 0.61067 0.4204 0.69932 0.0
C294 C 0.62736 0.42194 0.66907 0.0
Co295 Co 0.15219 0.64328 0.90817 0.0
Co296 Co 0.15734 0.59473 0.8711 0.0
O297 O 0.16655 0.62891 0.87007 0.0
C298 C 0.20452 0.67187 0.92848 0.0
O299 O 0.20425 0.65121 0.93146 0.0
C300 C 0.14889 0.60227 0.77806 0.0
O301 O 0.13896 0.61463 0.7929 0.0
O302 O 0.12233 0.58452 0.86754 0.0
O303 O 0.11901 0.61482 0.89875 0.0
H304 H 0.10933 0.5083 0.92228 0.0
H305 H 0.18446 0.67203 0.83408 0.0
O306 O 0.18516 0.67208 0.91887 0.0
H307 H 0.10588 0.66614 0.80213 0.0
H308 H 0.14321 0.71228 0.96677 0.0
H309 H 0.11464 0.62497 0.9787 0.0
H310 H 0.11134 0.6474 0.86959 0.0
H311 H 0.16038 0.69329 0.9187 0.0
O312 O 0.15851 0.59416 0.80496 0.0
H313 H 0.12127 0.55152 0.92101 0.0
H314 H 0.17393 0.56512 0.82171 0.0
H315 H 0.09683 0.64317 0.02717 0.0
H316 H 0.17986 0.69124 0.76642 0.0
H317 H 0.11113 0.68714 0.02136 0.0
H318 H 0.14031 0.68829 0.75004 0.0
O319 O 0.1559 0.62735 0.96201 0.0
H320 H 0.24462 0.6436 0.82568 0.0
H321 H 0.1869 0.58123 0.92866 0.0
H322 H 0.23039 0.59474 0.93458 0.0
H323 H 0.25958 0.62614 0.88282 0.0
H324 H 0.20097 0.62969 0.82117 0.0
H325 H 0.1624 0.52201 0.8216 0.0
H326 H 0.12996 0.49329 0.8723 0.0
O327 O 0.15552 0.59402 0.93698 0.0
C328 C 0.10986 0.59375 0.8816 0.0
C329 C 0.12354 0.52065 0.90013 0.0
C330 C 0.15331 0.52833 0.84359 0.0
N331 N 0.14839 0.56085 0.87156 0.0
C332 C 0.13043 0.54515 0.89935 0.0
C333 C 0.15972 0.55271 0.84372 0.0
C334 C 0.13511 0.51223 0.87205 0.0
C335 C 0.16727 0.67087 0.82737 0.0
N336 N 0.14823 0.65873 0.85585 0.0
C337 C 0.16474 0.6817 0.78893 0.0
C338 C 0.14254 0.68001 0.77972 0.0
C339 C 0.1232 0.66757 0.80892 0.0
C340 C 0.12639 0.65694 0.84701 0.0
C341 C 0.13679 0.69309 0.96954 0.0
C342 C 0.12082 0.64408 0.97575 0.0
C343 C 0.14647 0.68225 0.94247 0.0
N344 N 0.13835 0.65801 0.94563 0.0
C345 C 0.11073 0.6543 0.00339 0.0
C346 C 0.11878 0.67897 0.00015 0.0
C347 C 0.15559 0.60744 0.96832 0.0
C348 C 0.23207 0.62986 0.84835 0.0
C349 C 0.19949 0.59494 0.9061 0.0
C350 C 0.22409 0.60248 0.90954 0.0
C351 C 0.24046 0.62008 0.88046 0.0
N352 N 0.19141 0.60462 0.8745 0.0
C353 C 0.20734 0.62185 0.84584 0.0
Co354 Co 0.88468 0.50042 0.83378 0.0
Co355 Co 0.88443 0.44859 0.8667 0.0
O356 O 0.87267 0.47157 0.87131 0.0
C357 C 0.83171 0.47548 0.82033 0.0
O358 O 0.83259 0.45553 0.81469 0.0
C359 C 0.88892 0.46035 0.96243 0.0
O360 O 0.89811 0.48327 0.95195 0.0
O361 O 0.91844 0.47531 0.87295 0.0
O362 O 0.91869 0.50635 0.83693 0.0
H363 H 0.93881 0.4186 0.81006 0.0
H364 H 0.85561 0.49601 0.91367 0.0
O365 O 0.85099 0.49526 0.82935 0.0
H366 H 0.93434 0.57011 0.93697 0.0
H367 H 0.88886 0.57739 0.78153 0.0
H368 H 0.91875 0.52037 0.75787 0.0
H369 H 0.92646 0.5461 0.86843 0.0
H370 H 0.87475 0.54133 0.82923 0.0
O371 O 0.88231 0.44432 0.93232 0.0
H372 H 0.9233 0.44702 0.81547 0.0
H373 H 0.87094 0.40149 0.91043 0.0
H374 H 0.93351 0.55631 0.70961 0.0
H375 H 0.86264 0.51962 0.98255 0.0
H376 H 0.91853 0.58511 0.72132 0.0
H377 H 0.90228 0.55692 -0.00542 0.0
O378 O 0.87861 0.48067 0.77934 0.0
H379 H 0.79642 0.40251 0.90847 0.0
H380 H 0.85829 0.40665 0.80488 0.0
H381 H 0.81583 0.3743 0.79609 0.0
H382 H 0.78455 0.37206 0.84817 0.0
H383 H 0.83908 0.43474 0.91576 0.0
H384 H 0.88601 0.37269 0.90635 0.0
H385 H 0.92012 0.38113 0.85574 0.0
O386 O 0.88666 0.45175 0.80076 0.0
C387 C 0.92944 0.49644 0.85594 0.0
C388 C 0.92389 0.41469 0.83214 0.0
C389 C 0.89428 0.38894 0.88623 0.0
N390 N 0.89613 0.42583 0.86298 0.0
C391 C 0.915 0.43068 0.83526 0.0
C392 C 0.88586 0.40534 0.88847 0.0
C393 C 0.91341 0.39368 0.85781 0.0
C394 C 0.87281 0.51235 0.9185 0.0
N395 N 0.89056 0.51971 0.88702 0.0
C396 C 0.87673 0.52559 0.95764 0.0
C397 C 0.89899 0.54649 0.96439 0.0
C398 C 0.91699 0.55389 0.9321 0.0
C399 C 0.91244 0.54018 0.89341 0.0
C400 C 0.89556 0.56501 0.77616 0.0
C401 C 0.91229 0.53292 0.76335 0.0
C402 C 0.88761 0.54454 0.80302 0.0
N403 N 0.8961 0.5289 0.79657 0.0
C404 C 0.92065 0.55319 0.73584 0.0
C405 C 0.91222 0.56933 0.74239 0.0
C406 C 0.88179 0.46288 0.77103 0.0
C407 C 0.80989 0.40327 0.88563 0.0
C408 C 0.84479 0.40588 0.82755 0.0
C409 C 0.82077 0.38747 0.82249 0.0
C410 C 0.80324 0.38621 0.85175 0.0
N411 N 0.85117 0.42256 0.86085 0.0
C412 C 0.83409 0.42141 0.8897 0.0
Co413 Co 0.3836 0.88154 0.00468 0.0
Co414 Co 0.43675 0.88339 0.03512 0.0
O415 O 0.40183 0.87059 0.04076 0.0
C416 C 0.35801 0.82863 0.98872 0.0
O417 O 0.37935 0.83063 0.98317 0.0
C418 C 0.42977 0.8892 0.13033 0.0
O419 O 0.41522 0.89728 0.11896 0.0
O420 O 0.44337 0.91732 0.03835 0.0
O421 O 0.41019 0.91607 0.00996 0.0
H422 H 0.51995 0.93815 0.9736 0.0
H423 H 0.36046 0.85041 0.08324 0.0
O424 O 0.35642 0.84723 -0.00151 0.0
H425 H 0.35894 0.92568 0.11255 0.0
H426 H 0.30819 0.88149 0.95525 0.0
H427 H 0.39598 0.91693 0.93151 0.0
H428 H 0.37608 0.92053 0.04268 0.0
H429 H 0.33173 0.86844 0.00091 0.0
O430 O 0.43977 0.88289 0.10083 0.0
H431 H 0.47591 0.92161 0.98048 0.0
H432 H 0.47188 0.87231 0.07964 0.0
H433 H 0.37318 0.93067 0.88534 0.0
H434 H 0.34294 0.8547 0.15343 0.0
H435 H 0.32895 0.9129 0.8971 0.0
H436 H 0.34218 0.89259 0.1685 0.0
O437 O 0.39817 0.87764 0.94892 0.0
H438 H 0.3976 0.79649 0.08363 0.0
H439 H 0.4527 0.85681 0.9749 0.0
H440 H 0.44373 0.81456 0.96922 0.0
H441 H 0.41602 0.78407 0.0239 0.0
H442 H 0.40689 0.8389 0.08784 0.0
H443 H 0.51591 0.88844 0.07409 0.0
H444 H 0.54023 0.92154 0.02064 0.0
O445 O 0.43472 0.88401 0.96947 0.0
C446 C 0.4318 0.92764 0.02492 0.0
C447 C 0.50954 0.92368 -0.00308 0.0
C448 C 0.50727 0.8958 0.05336 0.0
N449 N 0.47132 0.89591 0.03019 0.0
C450 C 0.48459 0.9142 0.00088 0.0
C451 C 0.48236 0.88678 0.05642 0.0
C452 C 0.52091 0.91437 0.02335 0.0
C453 C 0.36 0.86686 0.08941 0.0
N454 N 0.36925 0.88518 0.05889 0.0
C455 C 0.35014 0.86922 0.12928 0.0
C456 C 0.34975 0.89051 0.13774 0.0
C457 C 0.35918 0.90909 0.10638 0.0
C458 C 0.36893 0.9061 0.06693 0.0
C459 C 0.32746 0.8894 0.94986 0.0
C460 C 0.37676 0.90923 0.93698 0.0
C461 C 0.34087 0.88204 0.97554 0.0
N462 N 0.36523 0.89205 0.96907 0.0
C463 C 0.36394 0.91703 0.91067 0.0
C464 C 0.33912 0.90703 0.91725 0.0
C465 C 0.41889 0.88024 0.94008 0.0
C466 C 0.40975 0.80962 0.05969 0.0
C467 C 0.44057 0.84364 -0.00126 0.0
C468 C 0.4356 0.81975 -0.00458 0.0
C469 C 0.42007 0.80266 0.02612 0.0
N470 N 0.4304 0.85034 0.03179 0.0
C471 C 0.41516 0.83368 0.06202 0.0
Co472 Co 0.5065 0.38584 0.16248 0.0
Co473 Co 0.55777 0.43776 0.19575 0.0
O474 O 0.53555 0.40281 0.19939 0.0
C475 C 0.5323 0.35885 0.14624 0.0
O476 O 0.55193 0.37995 0.14053 0.0
C477 C 0.54699 0.4291 0.29159 0.0
O478 O 0.52404 0.41525 0.28152 0.0
O479 O 0.53052 0.44403 0.20456 0.0
O480 O 0.49987 0.41343 0.16752 0.0
H481 H 0.58506 0.5224 0.14356 0.0
H482 H 0.5121 0.36086 0.2407 0.0
O483 O 0.51237 0.3578 0.1562 0.0
H484 H 0.43722 0.36343 0.26821 0.0
H485 H 0.42997 0.31255 0.11026 0.0
H486 H 0.48546 0.39999 0.08847 0.0
H487 H 0.46064 0.38056 0.19933 0.0
H488 H 0.46629 0.33466 0.15721 0.0
O489 O 0.56275 0.43918 0.26117 0.0
H490 H 0.5576 0.47823 0.14767 0.0
H491 H 0.60503 0.47177 0.23848 0.0
H492 H 0.44924 0.37864 0.04101 0.0
H493 H 0.48911 0.34331 0.30987 0.0
H494 H 0.4212 0.3346 0.05179 0.0
H495 H 0.45142 0.34461 0.32402 0.0
O496 O 0.52581 0.40036 0.10785 0.0
H497 H 0.60622 0.3974 0.23038 0.0
H498 H 0.59913 0.45536 0.13196 0.0
H499 H 0.63211 0.44649 0.11971 0.0
H500 H 0.63584 0.41734 0.16918 0.0
H501 H 0.57333 0.4066 0.24114 0.0
H502 H 0.6329 0.51589 0.23565 0.0
H503 H 0.62302 0.54151 0.18778 0.0
O504 O 0.55386 0.43755 0.13002 0.0
C505 C 0.50938 0.43376 0.18767 0.0
C506 C 0.5896 0.51143 0.16444 0.0
C507 C 0.61643 0.50778 0.21617 0.0
N508 N 0.57979 0.47243 0.19302 0.0
C509 C 0.57415 0.4864 0.16682 0.0
C510 C 0.60056 0.48281 0.21772 0.0
C511 C 0.61088 0.52214 0.18929 0.0
C512 C 0.49559 0.36127 0.24645 0.0
N513 N 0.48767 0.37163 0.21596 0.0
C514 C 0.4827 0.3514 0.28574 0.0
C515 C 0.46158 0.35217 0.2937 0.0
C516 C 0.45361 0.36275 0.26241 0.0
C517 C 0.46698 0.37247 0.22352 0.0
C518 C 0.44201 0.33175 0.10531 0.0
C519 C 0.47325 0.38086 0.09354 0.0
C520 C 0.46262 0.34435 0.13174 0.0
N521 N 0.47784 0.36863 0.12582 0.0
C522 C 0.45281 0.36885 0.06648 0.0
C523 C 0.4371 0.34414 0.07252 0.0
C524 C 0.543 0.42172 0.0999 0.0
C525 C 0.60482 0.41017 0.20867 0.0
C526 C 0.60054 0.44257 0.15351 0.0
C527 C 0.61931 0.43768 0.14649 0.0
C528 C 0.62141 0.42134 0.17428 0.0
N529 N 0.58432 0.43153 0.18728 0.0
C530 C 0.5863 0.41553 0.21472 0.0
Co531 Co 0.12401 0.50138 0.34092 0.0
Co532 Co 0.12273 0.55339 0.36805 0.0
O533 O 0.13556 0.53136 0.3749 0.0
C534 C 0.17664 0.5282 0.32208 0.0
O535 O 0.17459 0.54742 0.3152 0.0
C536 C 0.11851 0.54294 0.46421 0.0
O537 O 0.11035 0.52006 0.4547 0.0
O538 O 0.08886 0.52621 0.37395 0.0
O539 O 0.08959 0.49367 0.34732 0.0
H540 H 0.06703 0.58045 0.30589 0.0
H541 H 0.15626 0.51095 0.41828 0.0
O542 O 0.15818 0.50828 0.33365 0.0
H543 H 0.0813 0.435 0.45402 0.0
H544 H 0.12311 0.42486 0.29651 0.0
H545 H 0.08753 0.47684 0.26999 0.0
H546 H 0.08547 0.45581 0.38269 0.0
H547 H 0.13691 0.46245 0.33946 0.0
O548 O 0.12432 0.55851 0.43343 0.0
H549 H 0.08364 0.55309 0.3143 0.0
H550 H 0.13462 0.60067 0.409 0.0
H551 H 0.07302 0.43929 0.22655 0.0
H552 H 0.15296 0.49062 0.48986 0.0
H553 H 0.09086 0.41302 0.23971 0.0
H554 H 0.11523 0.4524 0.50817 0.0
O555 O 0.12715 0.51863 0.28389 0.0
H556 H 0.21041 0.60208 0.41116 0.0
H557 H 0.14836 0.5945 0.30439 0.0
H558 H 0.19051 0.62754 0.29542 0.0
H559 H 0.22187 0.63151 0.34909 0.0
H560 H 0.16806 0.56915 0.41864 0.0
H561 H 0.11844 0.62845 0.40188 0.0
H562 H 0.08446 0.61844 0.34989 0.0
O563 O 0.12103 0.54919 0.3027 0.0
C564 C 0.0783 0.50407 0.362 0.0
C565 C 0.08189 0.58504 0.32855 0.0
C566 C 0.11072 0.61197 0.38247 0.0
N567 N 0.11019 0.57536 0.36185 0.0
C568 C 0.09141 0.56966 0.33337 0.0
C569 C 0.11977 0.59614 0.38643 0.0
C570 C 0.09166 0.60635 0.35328 0.0
C571 C 0.13987 0.49421 0.42587 0.0
N572 N 0.12109 0.48456 0.39633 0.0
C573 C 0.13807 0.48283 0.46651 0.0
C574 C 0.11688 0.46141 0.47678 0.0
C575 C 0.09782 0.45165 0.44644 0.0
C576 C 0.10026 0.46356 0.40616 0.0
C577 C 0.11516 0.43613 0.29053 0.0
C578 C 0.09526 0.46542 0.27608 0.0
C579 C 0.12295 0.45746 0.31467 0.0
N580 N 0.1129 0.47172 0.30744 0.0
C581 C 0.08703 0.44422 0.2513 0.0
C582 C 0.09706 0.4295 0.25867 0.0
C583 C 0.12439 0.53653 0.27399 0.0
C584 C 0.19689 0.60058 0.38763 0.0
C585 C 0.1619 0.59605 0.32781 0.0
C586 C 0.18574 0.61484 0.32262 0.0
C587 C 0.20332 0.61706 0.35276 0.0
N588 N 0.15573 0.57995 0.36211 0.0
C589 C 0.17287 0.58203 0.39181 0.0
Co590 Co 0.61942 0.1218 0.49716 0.0
Co591 Co 0.56644 0.12077 0.52586 0.0
O592 O 0.60128 0.1333 0.53215 0.0
C593 C 0.6457 0.17466 0.48007 0.0
O594 O 0.62455 0.17298 0.47379 0.0
C595 C 0.57289 0.11555 0.62152 0.0
O596 O 0.58729 0.10717 0.61097 0.0
O597 O 0.55947 0.08677 0.53054 0.0
O598 O 0.59253 0.08742 0.50299 0.0
H599 H 0.48334 0.06609 0.46401 0.0
H600 H 0.64241 0.1533 0.57527 0.0
O601 O 0.64691 0.15593 0.49054 0.0
H602 H 0.64296 0.07779 0.60752 0.0
H603 H 0.69452 0.12052 0.45017 0.0
H604 H 0.60695 0.08588 0.42501 0.0
H605 H 0.62627 0.08274 0.53691 0.0
H606 H 0.67113 0.13426 0.49457 0.0
O607 O 0.56317 0.12184 0.59144 0.0
H608 H 0.5273 0.08231 0.47167 0.0
H609 H 0.53144 0.13265 0.56858 0.0
H610 H 0.6296 0.07146 0.38011 0.0
H611 H 0.6595 0.14923 0.64617 0.0
H612 H 0.67371 0.08882 0.39259 0.0
H613 H 0.65976 0.11122 0.66271 0.0
O614 O 0.60526 0.12559 0.44078 0.0
H615 H 0.60619 0.20812 0.57154 0.0
H616 H 0.55107 0.14716 0.46386 0.0
H617 H 0.56051 0.18949 0.45646 0.0
H618 H 0.58824 0.22031 0.51059 0.0
H619 H 0.59643 0.16561 0.57747 0.0
H620 H 0.4875 0.11685 0.56222 0.0
H621 H 0.46317 0.08338 0.5095 0.0
O622 O 0.56871 0.1196 0.4603 0.0
C623 C 0.5709 0.07616 0.51797 0.0
C624 C 0.49376 0.08072 0.487 0.0
C625 C 0.49609 0.10919 0.54216 0.0
N626 N 0.53194 0.10852 0.52029 0.0
C627 C 0.51866 0.09002 0.49139 0.0
C628 C 0.52095 0.11802 0.54569 0.0
C629 C 0.48245 0.09042 0.51257 0.0
C630 C 0.64266 0.13679 0.58209 0.0
N631 N 0.63338 0.11829 0.55198 0.0
C632 C 0.65227 0.13456 0.62235 0.0
C633 C 0.65238 0.11321 0.63164 0.0
C634 C 0.64293 0.09444 0.60071 0.0
C635 C 0.63343 0.0973 0.56084 0.0
C636 C 0.6753 0.11279 0.44448 0.0
C637 C 0.62611 0.09341 0.43079 0.0
C638 C 0.66197 0.12053 0.46944 0.0
N639 N 0.63767 0.11074 0.46258 0.0
C640 C 0.63885 0.08522 0.4052 0.0
C641 C 0.66361 0.09499 0.41219 0.0
C642 C 0.58467 0.12314 0.43131 0.0
C643 C 0.59404 0.19485 0.54782 0.0
C644 C 0.56321 0.16046 0.48748 0.0
C645 C 0.56844 0.1844 0.48317 0.0
C646 C 0.58398 0.20168 0.51357 0.0
N647 N 0.57313 0.1539 0.52117 0.0
C648 C 0.58837 0.17073 0.55112 0.0
Co649 Co 0.50289 0.62286 0.67307 0.0
Co650 Co 0.45178 0.56909 0.70203 0.0
O651 O 0.47367 0.60399 0.7089 0.0
C652 C 0.47505 0.64801 0.65826 0.0
O653 O 0.45586 0.62659 0.6524 0.0
C654 C 0.4644 0.57485 0.7973 0.0
O655 O 0.48699 0.59002 0.78648 0.0
O656 O 0.47928 0.56276 0.70423 0.0
O657 O 0.51122 0.59651 0.67733 0.0
H658 H 0.42406 0.48683 0.63676 0.0
H659 H 0.49437 0.645 0.75251 0.0
O660 O 0.49534 0.64979 0.66788 0.0
H661 H 0.5716 0.64729 0.78104 0.0
H662 H 0.57782 0.69927 0.62547 0.0
H663 H 0.52641 0.61159 0.59925 0.0
H664 H 0.54951 0.63058 0.71084 0.0
H665 H 0.54122 0.67494 0.67072 0.0
O666 O 0.44821 0.56513 0.76755 0.0
H667 H 0.45126 0.53083 0.64533 0.0
H668 H 0.40564 0.53308 0.74582 0.0
H669 H 0.56297 0.63519 0.55347 0.0
H670 H 0.51597 0.66208 0.82304 0.0
H671 H 0.58895 0.67936 0.56647 0.0
H672 H 0.55484 0.66322 0.83771 0.0
O673 O 0.48466 0.60869 0.61691 0.0
H674 H 0.40339 0.60688 0.75408 0.0
H675 H 0.40916 0.55353 0.64216 0.0
H676 H 0.3756 0.56214 0.63799 0.0
H677 H 0.37255 0.58897 0.69427 0.0
H678 H 0.43679 0.59796 0.75677 0.0
H679 H 0.37806 0.48907 0.7386 0.0
H680 H 0.38715 0.46567 0.68362 0.0
O681 O 0.45445 0.57197 0.63659 0.0
C682 C 0.50124 0.57469 0.69127 0.0
C683 C 0.41986 0.49684 0.66074 0.0
C684 C 0.39406 0.4981 0.71793 0.0
N685 N 0.42995 0.53454 0.69579 0.0
C686 C 0.43516 0.52177 0.66566 0.0
C687 C 0.40977 0.523 0.72194 0.0
C688 C 0.39917 0.48498 0.68707 0.0
C689 C 0.51138 0.64563 0.75852 0.0
N690 N 0.52069 0.63683 0.72758 0.0
C691 C 0.52349 0.65524 0.79857 0.0
C692 C 0.54527 0.65584 0.80681 0.0
C693 C 0.55467 0.64688 0.77504 0.0
C694 C 0.54205 0.63736 0.73541 0.0
C695 C 0.56667 0.68003 0.61954 0.0
C696 C 0.53772 0.63078 0.60527 0.0
C697 C 0.5459 0.66617 0.64498 0.0
N698 N 0.53181 0.64184 0.63782 0.0
C699 C 0.55836 0.64406 0.57917 0.0
C700 C 0.57291 0.66885 0.58645 0.0
C701 C 0.46656 0.58805 0.6076 0.0
C702 C 0.4045 0.59511 0.72943 0.0
C703 C 0.40801 0.56528 0.66669 0.0
C704 C 0.38893 0.57005 0.66422 0.0
C705 C 0.38721 0.58509 0.69583 0.0
N706 N 0.42488 0.57516 0.69978 0.0
C707 C 0.42331 0.58992 0.73089 0.0
H708 H 0.51785 0.14377 0.19901 0.0
H709 H 0.61547 0.13884 0.35946 0.0
H710 H 0.58999 0.16256 0.15714 0.0
H711 H 0.54173 0.11571 0.39765 0.0
H712 H 0.60687 0.14839 0.2853 0.0
H713 H 0.52715 0.13549 0.27344 0.0
C714 C 0.53572 0.14645 0.20553 0.0
C715 C 0.55309 0.15377 0.17164 0.0
C716 C 0.59258 0.14115 0.30995 0.0
C717 C 0.56375 0.14399 0.25657 0.0
C718 C 0.59744 0.13554 0.35219 0.0
C719 C 0.57936 0.12656 0.38495 0.0
C720 C 0.56951 0.13776 0.30052 0.0
C721 C 0.55633 0.12275 0.37364 0.0
C722 C 0.54098 0.14154 0.24797 0.0
C723 C 0.57595 0.15684 0.18209 0.0
N724 N 0.55212 0.12847 0.33248 0.0
N725 N 0.58056 0.15182 0.22356 0.0
H726 H 0.43689 0.59286 0.32821 0.0
H727 H 0.43071 0.54508 0.57507 0.0
H728 H 0.37983 0.52403 0.37699 0.0
H729 H 0.48153 0.61845 0.53496 0.0
H730 H 0.41319 0.53691 0.50131 0.0
H731 H 0.45396 0.6027 0.40282 0.0
C732 C 0.42777 0.57989 0.35465 0.0
C733 C 0.40691 0.55748 0.3462 0.0
C734 C 0.42816 0.55481 0.50853 0.0
C735 C 0.42663 0.56862 0.43154 0.0
C736 C 0.43831 0.55952 0.55071 0.0
C737 C 0.4576 0.58259 0.56143 0.0
C738 C 0.43737 0.57322 0.47648 0.0
C739 C 0.4667 0.60042 0.52818 0.0
C740 C 0.43761 0.58554 0.39723 0.0
C741 C 0.39593 0.54149 0.38185 0.0
N742 N 0.45644 0.59535 0.48709 0.0
N743 N 0.40604 0.54731 0.42289 0.0
H744 H 0.86566 0.47692 0.69866 0.0
H745 H 0.86219 0.37474 0.53928 0.0
H746 H 0.88858 0.4265 0.73925 0.0
H747 H 0.8414 0.42677 0.49854 0.0
H748 H 0.86995 0.392 0.6141 0.0
H749 H 0.85589 0.4581 0.62533 0.0
C750 C 0.86882 0.46204 0.69211 0.0
C751 C 0.87788 0.45326 0.72528 0.0
C752 C 0.86354 0.3995 0.58877 0.0
C753 C 0.86648 0.43144 0.64155 0.0
C754 C 0.85894 0.38954 0.54614 0.0
C755 C 0.85127 0.39939 0.51245 0.0
C756 C 0.86041 0.4194 0.59767 0.0
C757 C 0.84745 0.41865 0.52328 0.0
C758 C 0.8631 0.45119 0.65029 0.0
C759 C 0.88152 0.43384 0.71484 0.0
N760 N 0.8522 0.42809 0.56484 0.0
N761 N 0.87574 0.42354 0.67394 0.0
H762 H 0.4122 0.84061 0.66368 0.0
H763 H 0.46227 0.88826 0.90765 0.0
H764 H 0.48461 0.86131 0.70693 0.0
H765 H 0.38863 0.86422 0.8675 0.0
H766 H 0.47072 0.87897 0.83384 0.0
H767 H 0.40301 0.84857 0.73814 0.0
C768 C 0.42614 0.8466 0.68891 0.0
C769 C 0.4493 0.85039 0.67888 0.0
C770 C 0.45272 0.87576 0.84107 0.0
C771 C 0.43885 0.85979 0.76424 0.0
C772 C 0.44785 0.88115 0.88325 0.0
C773 C 0.42461 0.87692 0.89396 0.0
C774 C 0.43428 0.8661 0.80912 0.0
C775 C 0.40679 0.8678 0.86075 0.0
C776 C 0.42085 0.85123 0.73143 0.0
C777 C 0.46653 0.85812 0.71306 0.0
N778 N 0.41199 0.86261 0.8198 0.0
N779 N 0.46099 0.86271 0.75417 0.0
H780 H 0.57776 0.46596 0.06875 0.0
H781 H 0.57883 0.41683 0.82534 0.0
H782 H 0.53004 0.39222 0.02668 0.0
H783 H 0.62872 0.48991 0.86803 0.0
H784 H 0.56114 0.40755 0.89922 0.0
H785 H 0.59615 0.4753 -0.00481 0.0
C786 C 0.57101 0.45173 0.044 0.0
C787 C 0.55237 0.42818 0.05408 0.0
C788 C 0.57604 0.42558 0.89258 0.0
C789 C 0.57354 0.43884 0.96975 0.0
C790 C 0.58626 0.43091 0.85035 0.0
C791 C 0.6053 0.45426 0.84032 0.0
C792 C 0.58479 0.44371 0.92517 0.0
C793 C 0.61412 0.47167 0.87425 0.0
C794 C 0.58162 0.4571 0.00201 0.0
C795 C 0.54434 0.4106 0.02048 0.0
N796 N 0.60368 0.46607 0.91515 0.0
N797 N 0.55505 0.41628 0.97986 0.0
H798 H 0.13924 0.52076 0.20175 0.0
H799 H 0.14775 0.62594 0.04467 0.0
H800 H 0.11651 0.57164 0.24008 0.0
H801 H 0.15777 0.56773 -0.00355 0.0
H802 H 0.13967 0.60788 0.11857 0.0
H803 H 0.14817 0.53854 0.1271 0.0
C804 C 0.1359 0.53545 0.19442 0.0
C805 C 0.12727 0.5448 0.22737 0.0
C806 C 0.14372 0.59911 0.09181 0.0
C807 C 0.13778 0.56539 0.14256 0.0
C808 C 0.14851 0.60952 0.04965 0.0
C809 C 0.15336 0.59831 0.01418 0.0
C810 C 0.14385 0.57739 0.09866 0.0
C811 C 0.15403 0.57698 0.02272 0.0
C812 C 0.14112 0.54567 0.15193 0.0
C813 C 0.12334 0.56393 0.21599 0.0
N814 N 0.14925 0.56717 0.06409 0.0
N815 N 0.12877 0.57365 0.17469 0.0
H816 H 0.57198 0.35376 0.1313 0.0
H817 H 0.49374 0.21059 0.09148 0.0
H818 H 0.49421 0.31226 0.14441 0.0
H819 H 0.57179 0.24968 0.09836 0.0
H820 H 0.49371 0.24806 0.10779 0.0
H821 H 0.57243 0.31625 0.1167 0.0
C822 C 0.555 0.33678 0.13122 0.0
C823 C 0.53301 0.33621 0.13905 0.0
C824 C 0.51086 0.24846 0.10582 0.0
C825 C 0.53341 0.29317 0.12209 0.0
C826 C 0.5109 0.22706 0.09636 0.0
C827 C 0.53281 0.22694 0.09358 0.0
C828 C 0.53289 0.27005 0.11229 0.0
C829 C 0.55446 0.24888 0.10032 0.0
C830 C 0.55528 0.31536 0.12291 0.0
C831 C 0.5116 0.31362 0.13862 0.0
N832 N 0.55395 0.26954 0.10925 0.0
N833 N 0.51234 0.29307 0.1301 0.0
H834 H 0.32737 0.57306 0.26972 0.0
H835 H 0.18592 0.49069 0.32323 0.0
H836 H 0.28905 0.49492 0.26828 0.0
H837 H 0.22084 0.56796 0.30309 0.0
H838 H 0.22427 0.49236 0.30787 0.0
H839 H 0.28922 0.57197 0.28593 0.0
C840 C 0.31096 0.55567 0.27279 0.0
C841 C 0.31145 0.53405 0.26765 0.0
C842 C 0.22358 0.50897 0.30681 0.0
C843 C 0.26773 0.53268 0.28642 0.0
C844 C 0.20167 0.50805 0.31575 0.0
C845 C 0.2001 0.52922 0.31438 0.0
C846 C 0.24422 0.53123 0.29664 0.0
C847 C 0.22117 0.55117 0.30439 0.0
C848 C 0.28917 0.55507 0.28199 0.0
C849 C 0.28957 0.51206 0.27187 0.0
N850 N 0.24235 0.55161 0.29594 0.0
N851 N 0.26867 0.51196 0.28114 0.0
H852 H 0.65082 0.21942 0.46418 0.0
H853 H 0.79433 0.28418 0.42888 0.0
H854 H 0.69226 0.18326 0.47975 0.0
H855 H 0.75568 0.32358 0.43529 0.0
H856 H 0.75658 0.24673 0.44378 0.0
H857 H 0.68851 0.25747 0.45039 0.0
C858 C 0.66781 0.21947 0.46479 0.0
C859 C 0.66833 0.19806 0.4731 0.0
C860 C 0.75632 0.26355 0.44201 0.0
C861 C 0.71152 0.24154 0.4571 0.0
C862 C 0.7779 0.28498 0.43336 0.0
C863 C 0.77823 0.30712 0.43089 0.0
C864 C 0.73478 0.26413 0.44798 0.0
C865 C 0.75632 0.30696 0.43706 0.0
C866 C 0.68933 0.24121 0.45696 0.0
C867 C 0.69092 0.19926 0.47356 0.0
N868 N 0.73548 0.2858 0.44521 0.0
N869 N 0.71154 0.22057 0.4655 0.0
H870 H 0.51042 0.79511 0.60297 0.0
H871 H 0.43463 0.65179 0.64255 0.0
H872 H 0.43234 0.75472 0.60776 0.0
H873 H 0.51217 0.69502 0.65759 0.0
H874 H 0.43314 0.6888 0.62772 0.0
H875 H 0.51116 0.75815 0.6203 0.0
C876 C 0.4934 0.77846 0.60762 0.0
C877 C 0.47127 0.77808 0.6039 0.0
C878 C 0.45046 0.69016 0.63443 0.0
C879 C 0.47201 0.7355 0.6238 0.0
C880 C 0.45133 0.66904 0.64288 0.0
C881 C 0.47357 0.67025 0.65125 0.0
C882 C 0.47199 0.71266 0.63403 0.0
C883 C 0.4946 0.69314 0.65134 0.0
C884 C 0.49384 0.75733 0.61766 0.0
C885 C 0.44982 0.75591 0.6104 0.0
N886 N 0.4933 0.71337 0.64266 0.0
N887 N 0.45072 0.7355 0.61991 0.0
H888 H 0.6819 0.43487 0.77153 0.0
H889 H 0.82433 0.51426 0.81926 0.0
H890 H 0.72235 0.51292 0.76503 0.0
H891 H 0.78643 0.43646 0.80603 0.0
H892 H 0.78648 0.51388 0.80484 0.0
H893 H 0.71938 0.4349 0.78901 0.0
C894 C 0.69864 0.45202 0.77384 0.0
C895 C 0.69894 0.47393 0.76677 0.0
C896 C 0.78641 0.49688 0.80515 0.0
C897 C 0.74193 0.47408 0.78692 0.0
C898 C 0.80803 0.49707 0.81354 0.0
C899 C 0.80862 0.47535 0.81373 0.0
C900 C 0.76511 0.47482 0.79708 0.0
C901 C 0.78688 0.45365 0.80604 0.0
C902 C 0.72004 0.45201 0.78376 0.0
C903 C 0.72121 0.49558 0.77009 0.0
N904 N 0.76603 0.45393 0.79802 0.0
N905 N 0.74176 0.4951 0.77999 0.0
H906 H 0.21037 0.71729 0.93519 0.0
H907 H 0.35378 0.78419 0.97355 0.0
H908 H 0.25032 0.67921 0.94181 0.0
H909 H 0.31118 0.81925 0.98719 0.0
H910 H 0.31657 0.74584 0.95909 0.0
H911 H 0.24763 0.75511 0.95078 0.0
C912 C 0.22698 0.71686 0.93983 0.0
C913 C 0.22717 0.69498 0.93723 0.0
C914 C 0.31539 0.76192 0.96538 0.0
C915 C 0.27004 0.73839 0.95515 0.0
C916 C 0.33663 0.78384 0.97361 0.0
C917 C 0.33565 0.80503 0.98155 0.0
C918 C 0.293 0.76119 0.96476 0.0
C919 C 0.31287 0.80342 0.9813 0.0
C920 C 0.24827 0.7385 0.94889 0.0
C921 C 0.24929 0.69562 0.94365 0.0
N922 N 0.29252 0.78195 0.97287 0.0
N923 N 0.26984 0.71696 0.95222 0.0
H924 H 0.53591 0.1206 0.65415 0.0
H925 H 0.58835 0.15202 0.90007 0.0
H926 H 0.59936 0.11788 0.69513 0.0
H927 H 0.51458 0.13153 0.86769 0.0
H928 H 0.5945 0.14365 0.8235 0.0
H929 H 0.52941 0.12813 0.73095 0.0
C930 C 0.54846 0.12152 0.67939 0.0
C931 C 0.56825 0.11866 0.66832 0.0
C932 C 0.57698 0.14099 0.83319 0.0
C933 C 0.56098 0.12747 0.75619 0.0
C934 C 0.57347 0.14592 0.87679 0.0
C935 C 0.55088 0.14247 0.89025 0.0
C936 C 0.55786 0.13281 0.80271 0.0
C937 C 0.53226 0.1344 0.85872 0.0
C938 C 0.54468 0.12576 0.72322 0.0
C939 C 0.58383 0.11989 0.70235 0.0
N940 N 0.53619 0.1299 0.81631 0.0
N941 N 0.57997 0.12441 0.74484 0.0
H942 H 0.42418 0.53563 0.82971 0.0
H943 H 0.43907 0.58933 0.07316 0.0
H944 H 0.48724 0.60207 0.87096 0.0
H945 H 0.3902 0.51402 0.04268 0.0
H946 H 0.45462 0.59559 -0.00256 0.0
H947 H 0.40967 0.5284 0.90623 0.0
C948 C 0.43505 0.54865 0.855 0.0
C949 C 0.4569 0.56955 0.84408 0.0
C950 C 0.44051 0.5777 0.00734 0.0
C951 C 0.44024 0.56148 0.93153 0.0
C952 C 0.43144 0.57412 0.05045 0.0
C953 C 0.41325 0.55108 0.06423 0.0
C954 C 0.43114 0.5582 0.9776 0.0
C955 C 0.40421 0.53206 0.03342 0.0
C956 C 0.42676 0.54447 0.89865 0.0
C957 C 0.47033 0.58571 0.8781 0.0
N958 N 0.41322 0.53607 -0.00859 0.0
N959 N 0.46164 0.58145 0.92039 0.0
H960 H 0.883 0.41787 -0.00564 0.0
H961 H 0.85505 0.43947 0.24233 0.0
H962 H 0.88779 0.48479 0.03671 0.0
H963 H 0.87427 0.38557 0.20737 0.0
H964 H 0.8629 0.45418 0.1658 0.0
H965 H 0.87612 0.40388 0.07113 0.0
C966 C 0.88263 0.42966 0.01988 0.0
C967 C 0.8859 0.45252 0.0092 0.0
C968 C 0.86541 0.43916 0.17493 0.0
C969 C 0.87788 0.43648 0.09713 0.0
C970 C 0.86078 0.43062 0.21849 0.0
C971 C 0.86399 0.41122 0.23119 0.0
C972 C 0.87303 0.42805 0.14372 0.0
C973 C 0.8716 0.40058 0.199 0.0
C974 C 0.87878 0.42166 0.06371 0.0
C975 C 0.88542 0.46708 0.04362 0.0
N976 N 0.87578 0.40909 0.15663 0.0
N977 N 0.88128 0.45872 0.08616 0.0
H978 H 0.48997 0.87279 0.37614 0.0
H979 H 0.40277 0.88696 0.20311 0.0
H980 H 0.41609 0.85269 0.40662 0.0
H981 H 0.46679 0.88471 0.16434 0.0
H982 H 0.40958 0.87943 0.28033 0.0
H983 H 0.48372 0.88172 0.29979 0.0
C984 C 0.47242 0.87016 0.36672 0.0
C985 C 0.45351 0.86193 0.39768 0.0
C986 C 0.42212 0.88064 0.25481 0.0
C987 C 0.44635 0.87238 0.31081 0.0
C988 C 0.41833 0.88509 0.21091 0.0
C989 C 0.43418 0.88634 0.17738 0.0
C990 C 0.44203 0.87776 0.26507 0.0
C991 C 0.45401 0.88368 0.18916 0.0
C992 C 0.46887 0.87526 0.32321 0.0
C993 C 0.43113 0.85886 0.38374 0.0
N994 N 0.45739 0.87954 0.23204 0.0
N995 N 0.42821 0.86422 0.34135 0.0
H996 H 0.62527 0.49177 0.53489 0.0
H997 H 0.52259 0.40323 0.36565 0.0
H998 H 0.57072 0.41872 0.56913 0.0
H999 H 0.58997 0.46494 0.32348 0.0
H1000 H 0.53757 0.41071 0.44244 0.0
H1001 H 0.61039 0.48414 0.45824 0.0
C1002 C 0.61026 0.47412 0.52625 0.0
C1003 C 0.59925 0.45586 0.55835 0.0
C1004 C 0.54903 0.42255 0.41625 0.0
C1005 C 0.58198 0.44714 0.47119 0.0
C1006 C 0.54045 0.41837 0.37258 0.0
C1007 C 0.55509 0.43343 0.33824 0.0
C1008 C 0.57222 0.4421 0.42549 0.0
C1009 C 0.57814 0.45276 0.34893 0.0
C1010 C 0.60179 0.46978 0.48257 0.0
C1011 C 0.57984 0.4333 0.54538 0.0
N1012 N 0.58595 0.45659 0.39163 0.0
N1013 N 0.57171 0.42963 0.50283 0.0
H1014 H 0.12269 0.58492 0.49509 0.0
H1015 H 0.15777 0.56842 0.741 0.0
H1016 H 0.12245 0.52031 0.53865 0.0
H1017 H 0.13323 0.61856 0.70834 0.0
H1018 H 0.14979 0.55357 0.66472 0.0
H1019 H 0.13073 0.60004 0.57124 0.0
C1020 C 0.12427 0.57387 0.52076 0.0
C1021 C 0.12193 0.55132 0.51063 0.0
C1022 C 0.14619 0.56784 0.67426 0.0
C1023 C 0.13136 0.56867 0.59765 0.0
C1024 C 0.15091 0.57649 0.7177 0.0
C1025 C 0.14612 0.59477 0.73107 0.0
C1026 C 0.13688 0.57771 0.64379 0.0
C1027 C 0.13713 0.60442 0.69945 0.0
C1028 C 0.1288 0.58251 0.56419 0.0
C1029 C 0.12402 0.53773 0.54515 0.0
N1030 N 0.13283 0.59578 0.65717 0.0
N1031 N 0.12882 0.54672 0.58721 0.0
H1032 H 0.53713 0.08135 0.03172 0.0
H1033 H 0.41202 0.95666 0.01072 0.0
H1034 H 0.46716 0.07637 0.03901 0.0
H1035 H 0.4797 0.96004 0.04224 0.0
H1036 H 0.4325 1.00075 0.01354 0.0
H1037 H 0.5169 0.03716 0.02804 0.0
C1038 C 0.51753 0.07103 0.03236 0.0
C1039 C 0.50386 0.0827 0.03564 0.0
C1040 C 0.44285 0.99183 0.01996 0.0
C1041 C 0.48062 0.03205 0.03129 0.0
C1042 C 0.43117 0.96661 0.01834 0.0
C1043 C 0.44407 0.95448 0.02656 0.0
C1044 C 0.46772 0.00519 0.02933 0.0
C1045 C 0.46894 0.96852 0.03595 0.0
C1046 C 0.50601 0.04578 0.03044 0.0
C1047 C 0.4785 0.06826 0.03655 0.0
N1048 N 0.47995 0.99311 0.03692 0.0
N1049 N 0.46773 0.04375 0.03423 0.0
H1050 H 0.48046 0.43713 0.12465 0.0
H1051 H 0.41665 0.48803 0.27697 0.0
H1052 H 0.50589 0.4583 0.25898 0.0
H1053 H 0.44114 0.51898 0.14671 0.0
H1054 H 0.44087 0.46792 0.2705 0.0
H1055 H 0.45718 0.45823 0.13124 0.0
C1056 C 0.48102 0.44612 0.15554 0.0
C1057 C 0.49513 0.44612 0.1913 0.0
C1058 C 0.44088 0.47914 0.24346 0.0
C1059 C 0.46826 0.46957 0.19926 0.0
C1060 C 0.42706 0.49049 0.247 0.0
C1061 C 0.42706 0.50522 0.21238 0.0
C1062 C 0.45405 0.48191 0.20444 0.0
C1063 C 0.44086 0.5079 0.17424 0.0
C1064 C 0.46789 0.45819 0.15915 0.0
C1065 C 0.49534 0.45808 0.23059 0.0
N1066 N 0.4536 0.49608 0.17099 0.0
N1067 N 0.48184 0.46909 0.23378 0.0
H1068 H 0.04892 0.45506 0.3508 0.0
H1069 H 0.92497 0.45685 0.37248 0.0
H1070 H 0.0463 0.52007 0.37922 0.0
H1071 H 0.92927 0.39151 0.38073 0.0
H1072 H 0.96916 0.48049 0.36836 0.0
H1073 H 0.00485 0.43171 0.35517 0.0
C1074 C 0.03914 0.46447 0.35808 0.0
C1075 C 0.05148 0.48963 0.36492 0.0
C1076 C 0.96039 0.46097 0.3711 0.0
C1077 C 1.0008 0.46288 0.36947 0.0
C1078 C 0.93514 0.44743 0.37329 0.0
C1079 C 0.92327 0.42208 0.37688 0.0
C1080 C 0.97394 0.44912 0.37203 0.0
C1081 C 0.93753 0.41097 0.37799 0.0
C1082 C 0.01393 0.45107 0.3606 0.0
C1083 C 0.03766 0.50073 0.37397 0.0
N1084 N 0.96205 0.42454 0.37539 0.0
N1085 N 0.01308 0.4873 0.37581 0.0
H1086 H 0.46565 0.92261 0.53646 0.0
H1087 H 0.59039 0.04675 0.50565 0.0
H1088 H 0.53577 0.928 0.54456 0.0
H1089 H 0.52309 0.04418 0.53713 0.0
H1090 H 0.56995 0.00278 0.51213 0.0
H1091 H 0.48573 0.96669 0.52925 0.0
C1092 C 0.48525 0.93299 0.53661 0.0
C1093 C 0.49901 0.92147 0.54108 0.0
C1094 C 0.55967 0.01185 0.51773 0.0
C1095 C 0.52207 0.97197 0.5326 0.0
C1096 C 0.57133 0.03701 0.51399 0.0
C1097 C 0.55854 0.04934 0.52119 0.0
C1098 C 0.53492 0.99875 0.5282 0.0
C1099 C 0.53377 0.03555 0.53157 0.0
C1100 C 0.49668 0.95818 0.53264 0.0
C1101 C 0.52437 0.93598 0.54123 0.0
N1102 N 0.52276 0.01101 0.53463 0.0
N1103 N 0.53504 0.96041 0.53687 0.0
H1104 H 0.55052 0.47013 0.69673 0.0
H1105 H 0.55018 0.59497 0.67775 0.0
H1106 H 0.61524 0.54025 0.70575 0.0
H1107 H 0.48597 0.52667 0.70662 0.0
H1108 H 0.57406 0.57475 0.68005 0.0
H1109 H 0.5264 0.49015 0.69229 0.0
C1110 C 0.55971 0.48972 0.69756 0.0
C1111 C 0.58502 0.5035 0.70163 0.0
C1112 C 0.55475 0.56422 0.68597 0.0
C1113 C 0.55742 0.5265 0.69645 0.0
C1114 C 0.54106 0.57575 0.68465 0.0
C1115 C 0.51597 0.56259 0.69234 0.0
C1116 C 0.54332 0.53926 0.69451 0.0
C1117 C 0.50524 0.53763 0.70079 0.0
C1118 C 0.54589 0.50112 0.6952 0.0
C1119 C 0.59582 0.52884 0.70272 0.0
N1120 N 0.51896 0.52678 0.70152 0.0
N1121 N 0.58199 0.5395 0.70003 0.0
H1122 H 0.07643 0.58888 0.94326 0.0
H1123 H 0.96131 0.52541 0.79232 0.0
H1124 H 0.08305 0.56581 0.81184 0.0
H1125 H 0.95797 0.49926 0.92584 0.0
H1126 H 0.00574 0.54873 0.79793 0.0
H1127 H 0.03214 0.56429 0.937 0.0
C1128 C 0.06852 0.57873 0.91305 0.0
C1129 C 0.08328 0.57923 0.87803 0.0
C1130 C 0.99519 0.53782 0.82584 0.0
C1131 C 0.033 0.55176 0.8704 0.0
C1132 C 0.96996 0.52465 0.82278 0.0
C1133 C 0.95609 0.51037 0.85863 0.0
C1134 C 0.00645 0.5373 0.86552 0.0
C1135 C 0.9681 0.50993 0.89738 0.0
C1136 C 0.04337 0.56468 0.90964 0.0
C1137 C 0.07221 0.56571 0.83963 0.0
N1138 N 0.99264 0.52349 0.90008 0.0
N1139 N 0.04764 0.55272 0.83655 0.0
loop_
_geom_bond_atom_site_label_1
_geom_bond_atom_site_label_2
_geom_bond_distance
_geom_bond_site_symmetry_2
_ccdc_geom_bond_type
Co0 O2 2.143 . S
Co0 O8 2.074 . S
Co0 O11 2.093 . S
Co0 O24 2.097 . S
Co0 N41 2.151 . S
Co0 N49 2.214 . S
Co1 O2 2.160 . S
Co1 O7 2.058 . S
Co1 O17 2.057 1_554 S
Co1 O32 2.037 . S
Co1 N36 2.145 . S
Co1 N57 2.257 . S
O2 Co0 2.143 . S
O2 Co1 2.160 . S
C3 O4 1.278 . S
C3 O11 1.224 . S
O4 C3 1.278 . S
C5 O6 1.245 . S
C5 O17 1.232 . S
O6 C5 1.245 . S
O7 Co1 2.058 . S
O7 C33 1.269 . S
O8 Co0 2.074 . S
O8 C33 1.257 . S
H9 C34 0.930 . S
H10 C40 0.930 . S
O11 Co0 2.093 . S
O11 C3 1.224 . S
H12 C44 0.929 . S
H13 C46 0.930 . S
H14 C47 0.930 . S
H15 C45 0.929 . S
H16 C48 0.928 . S
O17 Co1 2.057 1_556 S
O17 C5 1.232 . S
H18 C37 0.929 . S
H19 C38 0.929 1_556 S
H20 C50 0.931 . S
H21 C42 0.929 . S
H22 C51 0.930 . S
H23 C43 0.928 1_556 S
O24 Co0 2.097 . S
O24 C52 1.214 . S
H25 C53 0.929 . S
H26 C54 0.929 . S
H27 C55 0.930 . S
H28 C56 0.929 . S
H29 C58 0.942 . S
H30 C35 0.930 1_556 S
H31 C39 0.930 . S
O32 Co1 2.037 . S
O32 C52 1.234 . S
C33 O7 1.269 . S
C33 O8 1.257 . S
C34 H9 0.930 . S
C34 C37 1.388 . S
C34 C39 1.418 . S
C35 H30 0.930 1_554 S
C35 C38 1.404 . S
C35 C39 1.353 . S
N36 Co1 2.145 . S
N36 C37 1.397 . S
N36 C38 1.334 . S
C37 H18 0.929 . S
C37 C34 1.388 . S
C37 N36 1.397 . S
C38 H19 0.929 1_554 S
C38 C35 1.404 . S
C38 N36 1.334 . S
C39 H31 0.930 . S
C39 C34 1.418 . S
C39 C35 1.353 . S
C40 H10 0.930 . S
C40 N41 1.330 . S
C40 C42 1.446 1_554 S
N41 Co0 2.151 . S
N41 C40 1.330 . S
N41 C45 1.418 . S
C42 H21 0.929 . S
C42 C40 1.446 1_556 S
C42 C43 1.331 1_556 S
C43 H23 0.928 1_554 S
C43 C42 1.331 1_554 S
C43 C44 1.270 . S
C44 H12 0.929 . S
C44 C43 1.270 . S
C44 C45 1.251 . S
C45 H15 0.929 . S
C45 N41 1.418 . S
C45 C44 1.251 . S
C46 H13 0.930 . S
C46 C48 1.406 . S
C46 C51 1.261 . S
C47 H14 0.930 . S
C47 N49 1.325 . S
C47 C50 1.357 . S
C48 H16 0.928 . S
C48 C46 1.406 . S
C48 N49 1.261 . S
N49 Co0 2.214 . S
N49 C47 1.325 . S
N49 C48 1.261 . S
C50 H20 0.931 . S
C50 C47 1.357 . S
C50 C51 1.312 . S
C51 H22 0.930 . S
C51 C46 1.261 . S
C51 C50 1.312 . S
C52 O24 1.214 . S
C52 O32 1.234 . S
C53 H25 0.929 . S
C53 C56 1.391 . S
C53 C58 1.391 . S
C54 H26 0.929 . S
C54 C55 1.390 . S
C54 N57 1.391 . S
C55 H27 0.930 . S
C55 C54 1.390 . S
C55 C56 1.392 . S
C56 H28 0.929 . S
C56 C53 1.391 . S
C56 C55 1.392 . S
N57 Co1 2.257 . S
N57 C54 1.391 . S
N57 C58 1.388 . S
C58 H29 0.942 . S
C58 C53 1.391 . S
C58 N57 1.388 . S
Co59 O61 2.143 . S
Co59 O67 2.074 . S
Co59 O70 2.093 . S
Co59 O83 2.097 . S
Co59 N100 2.151 . S
Co59 N108 2.214 . S
Co60 O61 2.160 . S
Co60 O66 2.058 . S
Co60 O76 2.057 . S
Co60 O91 2.037 . S
Co60 N95 2.145 . S
Co60 N116 2.257 . S
O61 Co59 2.143 . S
O61 Co60 2.160 . S
C62 O63 1.278 . S
C62 O70 1.224 . S
O63 C62 1.278 . S
C64 O65 1.245 . S
C64 O76 1.232 . S
O65 C64 1.245 . S
O66 Co60 2.058 . S
O66 C92 1.269 . S
O67 Co59 2.074 . S
O67 C92 1.257 . S
H68 C93 0.930 . S
H69 C99 0.930 . S
O70 Co59 2.093 . S
O70 C62 1.224 . S
H71 C103 0.929 . S
H72 C105 0.930 . S
H73 C106 0.930 . S
H74 C104 0.929 . S
H75 C107 0.928 . S
O76 Co60 2.057 . S
O76 C64 1.232 . S
H77 C96 0.929 . S
H78 C97 0.929 . S
H79 C109 0.931 . S
H80 C101 0.929 . S
H81 C110 0.930 . S
H82 C102 0.931 . S
O83 Co59 2.097 . S
O83 C111 1.214 . S
H84 C112 0.929 . S
H85 C113 0.929 . S
H86 C114 0.930 . S
H87 C115 0.929 . S
H88 C117 0.930 . S
H89 C94 0.930 . S
H90 C98 0.930 . S
O91 Co60 2.037 . S
O91 C111 1.234 . S
C92 O66 1.269 . S
C92 O67 1.257 . S
C93 H68 0.930 . S
C93 C96 1.388 . S
C93 C98 1.418 . S
C94 H89 0.930 . S
C94 C97 1.404 . S
C94 C98 1.353 . S
N95 Co60 2.145 . S
N95 C96 1.397 . S
N95 C97 1.334 . S
C96 H77 0.929 . S
C96 C93 1.388 . S
C96 N95 1.397 . S
C97 H78 0.929 . S
C97 C94 1.404 . S
C97 N95 1.334 . S
C98 H90 0.930 . S
C98 C93 1.418 . S
C98 C94 1.353 . S
C99 H69 0.930 . S
C99 N100 1.330 . S
C99 C101 1.446 . S
N100 Co59 2.151 . S
N100 C99 1.330 . S
N100 C104 1.418 . S
C101 H80 0.929 . S
C101 C99 1.446 . S
C101 C102 1.332 . S
C102 H82 0.931 . S
C102 C101 1.332 . S
C102 C103 1.267 . S
C103 H71 0.929 . S
C103 C102 1.267 . S
C103 C104 1.251 . S
C104 H74 0.929 . S
C104 N100 1.418 . S
C104 C103 1.251 . S
C105 H72 0.930 . S
C105 C107 1.406 . S
C105 C110 1.261 . S
C106 H73 0.930 . S
C106 N108 1.325 . S
C106 C109 1.357 . S
C107 H75 0.928 . S
C107 C105 1.406 . S
C107 N108 1.261 . S
N108 Co59 2.214 . S
N108 C106 1.325 . S
N108 C107 1.261 . S
C109 H79 0.931 . S
C109 C106 1.357 . S
C109 C110 1.312 . S
C110 H81 0.930 . S
C110 C105 1.261 . S
C110 C109 1.312 . S
C111 O83 1.214 . S
C111 O91 1.234 . S
C112 H84 0.929 . S
C112 C115 1.391 . S
C112 C117 1.391 . S
C113 H85 0.929 . S
C113 C114 1.390 . S
C113 N116 1.391 . S
C114 H86 0.930 . S
C114 C113 1.390 . S
C114 C115 1.392 . S
C115 H87 0.929 . S
C115 C112 1.391 . S
C115 C114 1.392 . S
N116 Co60 2.257 . S
N116 C113 1.391 . S
N116 C117 1.388 . S
C117 H88 0.930 . S
C117 C112 1.391 . S
C117 N116 1.388 . S
Co118 O120 2.143 . S
Co118 O126 2.074 . S
Co118 O129 2.093 . S
Co118 O142 2.097 . S
Co118 N159 2.151 . S
Co118 N167 2.214 . S
Co119 O120 2.160 . S
Co119 O125 2.058 . S
Co119 O135 2.057 . S
Co119 O150 2.037 . S
Co119 N154 2.145 . S
Co119 N175 2.257 . S
O120 Co118 2.143 . S
O120 Co119 2.160 . S
C121 O122 1.278 . S
C121 O129 1.224 . S
O122 C121 1.278 . S
C123 O124 1.245 . S
C123 O135 1.232 . S
O124 C123 1.245 . S
O125 Co119 2.058 . S
O125 C151 1.269 . S
O126 Co118 2.074 . S
O126 C151 1.257 . S
H127 C152 0.930 . S
H128 C158 0.930 . S
O129 Co118 2.093 . S
O129 C121 1.224 . S
H130 C162 0.929 . S
H131 C164 0.930 . S
H132 C165 0.930 . S
H133 C163 0.929 . S
H134 C166 0.928 . S
O135 Co119 2.057 . S
O135 C123 1.232 . S
H136 C155 0.929 . S
H137 C156 0.929 . S
H138 C168 0.931 . S
H139 C160 0.929 . S
H140 C169 0.930 . S
H141 C161 0.931 . S
O142 Co118 2.097 . S
O142 C170 1.214 . S
H143 C171 0.929 . S
H144 C172 0.929 . S
H145 C173 0.930 . S
H146 C174 0.929 . S
H147 C176 0.930 . S
H148 C153 0.930 . S
H149 C157 0.930 . S
O150 Co119 2.037 . S
O150 C170 1.234 . S
C151 O125 1.269 . S
C151 O126 1.257 . S
C152 H127 0.930 . S
C152 C155 1.388 . S
C152 C157 1.418 . S
C153 H148 0.930 . S
C153 C156 1.404 . S
C153 C157 1.353 . S
N154 Co119 2.145 . S
N154 C155 1.397 . S
N154 C156 1.334 . S
C155 H136 0.929 . S
C155 C152 1.388 . S
C155 N154 1.397 . S
C156 H137 0.929 . S
C156 C153 1.404 . S
C156 N154 1.334 . S
C157 H149 0.930 . S
C157 C152 1.418 . S
C157 C153 1.353 . S
C158 H128 0.930 . S
C158 N159 1.330 . S
C158 C160 1.446 . S
N159 Co118 2.151 . S
N159 C158 1.330 . S
N159 C163 1.418 . S
C160 H139 0.929 . S
C160 C158 1.446 . S
C160 C161 1.332 . S
C161 H141 0.931 . S
C161 C160 1.332 . S
C161 C162 1.267 . S
C162 H130 0.929 . S
C162 C161 1.267 . S
C162 C163 1.251 . S
C163 H133 0.929 . S
C163 N159 1.418 . S
C163 C162 1.251 . S
C164 H131 0.930 . S
C164 C166 1.406 . S
C164 C169 1.261 . S
C165 H132 0.930 . S
C165 N167 1.325 . S
C165 C168 1.357 . S
C166 H134 0.928 . S
C166 C164 1.406 . S
C166 N167 1.261 . S
N167 Co118 2.214 . S
N167 C165 1.325 . S
N167 C166 1.261 . S
C168 H138 0.931 . S
C168 C165 1.357 . S
C168 C169 1.312 . S
C169 H140 0.930 . S
C169 C164 1.261 . S
C169 C168 1.312 . S
C170 O142 1.214 . S
C170 O150 1.234 . S
C171 H143 0.929 . S
C171 C174 1.391 . S
C171 C176 1.391 . S
C172 H144 0.929 . S
C172 C173 1.390 . S
C172 N175 1.391 . S
C173 H145 0.930 . S
C173 C172 1.390 . S
C173 C174 1.392 . S
C174 H146 0.929 . S
C174 C171 1.391 . S
C174 C173 1.392 . S
N175 Co119 2.257 . S
N175 C172 1.391 . S
N175 C176 1.388 . S
C176 H147 0.930 . S
C176 C171 1.391 . S
C176 N175 1.388 . S
Co177 O179 2.143 . S
Co177 O185 2.074 . S
Co177 O188 2.093 . S
Co177 O201 2.097 . S
Co177 N218 2.151 . S
Co177 N226 2.214 . S
Co178 O179 2.160 . S
Co178 O184 2.058 . S
Co178 O194 2.057 . S
Co178 O209 2.037 . S
Co178 N213 2.145 . S
Co178 N234 2.257 . S
O179 Co177 2.143 . S
O179 Co178 2.160 . S
C180 O181 1.278 . S
C180 O188 1.224 . S
O181 C180 1.278 . S
C182 O183 1.245 . S
C182 O194 1.232 . S
O183 C182 1.245 . S
O184 Co178 2.058 . S
O184 C210 1.269 . S
O185 Co177 2.074 . S
O185 C210 1.257 . S
H186 C211 0.930 . S
H187 C217 0.930 . S
O188 Co177 2.093 . S
O188 C180 1.224 . S
H189 C221 0.929 . S
H190 C223 0.930 . S
H191 C224 0.930 . S
H192 C222 0.929 . S
H193 C225 0.928 . S
O194 Co178 2.057 . S
O194 C182 1.232 . S
H195 C214 0.929 . S
H196 C215 0.929 . S
H197 C227 0.931 . S
H198 C219 0.929 . S
H199 C228 0.930 . S
H200 C220 0.931 . S
O201 Co177 2.097 . S
O201 C229 1.214 . S
H202 C230 0.929 . S
H203 C231 0.929 . S
H204 C232 0.930 . S
H205 C233 0.929 . S
H206 C235 0.930 . S
H207 C212 0.930 . S
H208 C216 0.930 . S
O209 Co178 2.037 . S
O209 C229 1.234 . S
C210 O184 1.269 . S
C210 O185 1.257 . S
C211 H186 0.930 . S
C211 C214 1.388 . S
C211 C216 1.418 . S
C212 H207 0.930 . S
C212 C215 1.404 . S
C212 C216 1.353 . S
N213 Co178 2.145 . S
N213 C214 1.397 . S
N213 C215 1.334 . S
C214 H195 0.929 . S
C214 C211 1.388 . S
C214 N213 1.397 . S
C215 H196 0.929 . S
C215 C212 1.404 . S
C215 N213 1.334 . S
C216 H208 0.930 . S
C216 C211 1.418 . S
C216 C212 1.353 . S
C217 H187 0.930 . S
C217 N218 1.330 . S
C217 C219 1.446 . S
N218 Co177 2.151 . S
N218 C217 1.330 . S
N218 C222 1.418 . S
C219 H198 0.929 . S
C219 C217 1.446 . S
C219 C220 1.332 . S
C220 H200 0.931 . S
C220 C219 1.332 . S
C220 C221 1.267 . S
C221 H189 0.929 . S
C221 C220 1.267 . S
C221 C222 1.251 . S
C222 H192 0.929 . S
C222 N218 1.418 . S
C222 C221 1.251 . S
C223 H190 0.930 . S
C223 C225 1.406 . S
C223 C228 1.261 . S
C224 H191 0.930 . S
C224 N226 1.325 . S
C224 C227 1.357 . S
C225 H193 0.928 . S
C225 C223 1.406 . S
C225 N226 1.261 . S
N226 Co177 2.214 . S
N226 C224 1.325 . S
N226 C225 1.261 . S
C227 H197 0.931 . S
C227 C224 1.357 . S
C227 C228 1.312 . S
C228 H199 0.930 . S
C228 C223 1.261 . S
C228 C227 1.312 . S
C229 O201 1.214 . S
C229 O209 1.234 . S
C230 H202 0.929 . S
C230 C233 1.391 . S
C230 C235 1.391 . S
C231 H203 0.929 . S
C231 C232 1.390 . S
C231 N234 1.391 . S
C232 H204 0.930 . S
C232 C231 1.390 . S
C232 C233 1.392 . S
C233 H205 0.929 . S
C233 C230 1.391 . S
C233 C232 1.392 . S
N234 Co178 2.257 . S
N234 C231 1.391 . S
N234 C235 1.388 . S
C235 H206 0.930 . S
C235 C230 1.391 . S
C235 N234 1.388 . S
Co236 O238 2.143 . S
Co236 O244 2.074 . S
Co236 O247 2.093 . S
Co236 O260 2.097 . S
Co236 N277 2.151 . S
Co236 N285 2.214 . S
Co237 O238 2.160 . S
Co237 O243 2.058 . S
Co237 O253 2.057 . S
Co237 O268 2.037 . S
Co237 N272 2.145 . S
Co237 N293 2.257 . S
O238 Co236 2.143 . S
O238 Co237 2.160 . S
C239 O240 1.278 . S
C239 O247 1.224 . S
O240 C239 1.278 . S
C241 O242 1.245 . S
C241 O253 1.232 . S
O242 C241 1.245 . S
O243 Co237 2.058 . S
O243 C269 1.269 . S
O244 Co236 2.074 . S
O244 C269 1.257 . S
H245 C270 0.930 . S
H246 C276 0.930 . S
O247 Co236 2.093 . S
O247 C239 1.224 . S
H248 C280 0.929 . S
H249 C282 0.930 . S
H250 C283 0.930 . S
H251 C281 0.929 . S
H252 C284 0.928 . S
O253 Co237 2.057 . S
O253 C241 1.232 . S
H254 C273 0.929 . S
H255 C274 0.929 . S
H256 C286 0.931 . S
H257 C278 0.929 . S
H258 C287 0.930 . S
H259 C279 0.931 . S
O260 Co236 2.097 . S
O260 C288 1.214 . S
H261 C289 0.929 . S
H262 C290 0.929 . S
H263 C291 0.930 . S
H264 C292 0.929 . S
H265 C294 0.930 . S
H266 C271 0.930 . S
H267 C275 0.930 . S
O268 Co237 2.037 . S
O268 C288 1.234 . S
C269 O243 1.269 . S
C269 O244 1.257 . S
C270 H245 0.930 . S
C270 C273 1.388 . S
C270 C275 1.418 . S
C271 H266 0.930 . S
C271 C274 1.404 . S
C271 C275 1.353 . S
N272 Co237 2.145 . S
N272 C273 1.397 . S
N272 C274 1.334 . S
C273 H254 0.929 . S
C273 C270 1.388 . S
C273 N272 1.397 . S
C274 H255 0.929 . S
C274 C271 1.404 . S
C274 N272 1.334 . S
C275 H267 0.930 . S
C275 C270 1.418 . S
C275 C271 1.353 . S
C276 H246 0.930 . S
C276 N277 1.330 . S
C276 C278 1.446 . S
N277 Co236 2.151 . S
N277 C276 1.330 . S
N277 C281 1.418 . S
C278 H257 0.929 . S
C278 C276 1.446 . S
C278 C279 1.332 . S
C279 H259 0.931 . S
C279 C278 1.332 . S
C279 C280 1.267 . S
C280 H248 0.929 . S
C280 C279 1.267 . S
C280 C281 1.251 . S
C281 H251 0.929 . S
C281 N277 1.418 . S
C281 C280 1.251 . S
C282 H249 0.930 . S
C282 C284 1.406 . S
C282 C287 1.261 . S
C283 H250 0.930 . S
C283 N285 1.325 . S
C283 C286 1.357 . S
C284 H252 0.928 . S
C284 C282 1.406 . S
C284 N285 1.261 . S
N285 Co236 2.214 . S
N285 C283 1.325 . S
N285 C284 1.261 . S
C286 H256 0.931 . S
C286 C283 1.357 . S
C286 C287 1.312 . S
C287 H258 0.930 . S
C287 C282 1.261 . S
C287 C286 1.312 . S
C288 O260 1.214 . S
C288 O268 1.234 . S
C289 H261 0.929 . S
C289 C292 1.391 . S
C289 C294 1.391 . S
C290 H262 0.929 . S
C290 C291 1.390 . S
C290 N293 1.391 . S
C291 H263 0.930 . S
C291 C290 1.390 . S
C291 C292 1.392 . S
C292 H264 0.929 . S
C292 C289 1.391 . S
C292 C291 1.392 . S
N293 Co237 2.257 . S
N293 C290 1.391 . S
N293 C294 1.388 . S
C294 H265 0.930 . S
C294 C289 1.391 . S
C294 N293 1.388 . S
Co295 O297 2.143 . S
Co295 O303 2.074 . S
Co295 O306 2.093 . S
Co295 O319 2.097 . S
Co295 N336 2.151 . S
Co295 N344 2.214 . S
Co296 O297 2.160 . S
Co296 O302 2.058 . S
Co296 O312 2.057 . S
Co296 O327 2.037 . S
Co296 N331 2.145 . S
Co296 N352 2.257 . S
O297 Co295 2.143 . S
O297 Co296 2.160 . S
C298 O299 1.278 . S
C298 O306 1.224 . S
O299 C298 1.278 . S
C300 O301 1.245 . S
C300 O312 1.232 . S
O301 C300 1.245 . S
O302 Co296 2.058 . S
O302 C328 1.269 . S
O303 Co295 2.074 . S
O303 C328 1.257 . S
H304 C329 0.930 . S
H305 C335 0.930 . S
O306 Co295 2.093 . S
O306 C298 1.224 . S
H307 C339 0.929 . S
H308 C341 0.930 . S
H309 C342 0.930 . S
H310 C340 0.929 . S
H311 C343 0.928 . S
O312 Co296 2.057 . S
O312 C300 1.232 . S
H313 C332 0.929 . S
H314 C333 0.929 . S
H315 C345 0.931 . S
H316 C337 0.929 . S
H317 C346 0.930 . S
H318 C338 0.931 . S
O319 Co295 2.097 . S
O319 C347 1.214 . S
H320 C348 0.929 . S
H321 C349 0.929 . S
H322 C350 0.930 . S
H323 C351 0.929 . S
H324 C353 0.930 . S
H325 C330 0.930 . S
H326 C334 0.930 . S
O327 Co296 2.037 . S
O327 C347 1.234 . S
C328 O302 1.269 . S
C328 O303 1.257 . S
C329 H304 0.930 . S
C329 C332 1.388 . S
C329 C334 1.418 . S
C330 H325 0.930 . S
C330 C333 1.404 . S
C330 C334 1.353 . S
N331 Co296 2.145 . S
N331 C332 1.397 . S
N331 C333 1.334 . S
C332 H313 0.929 . S
C332 C329 1.388 . S
C332 N331 1.397 . S
C333 H314 0.929 . S
C333 C330 1.404 . S
C333 N331 1.334 . S
C334 H326 0.930 . S
C334 C329 1.418 . S
C334 C330 1.353 . S
C335 H305 0.930 . S
C335 N336 1.330 . S
C335 C337 1.446 . S
N336 Co295 2.151 . S
N336 C335 1.330 . S
N336 C340 1.418 . S
C337 H316 0.929 . S
C337 C335 1.446 . S
C337 C338 1.332 . S
C338 H318 0.931 . S
C338 C337 1.332 . S
C338 C339 1.267 . S
C339 H307 0.929 . S
C339 C338 1.267 . S
C339 C340 1.251 . S
C340 H310 0.929 . S
C340 N336 1.418 . S
C340 C339 1.251 . S
C341 H308 0.930 . S
C341 C343 1.406 1_554 S
C341 C346 1.261 . S
C342 H309 0.930 . S
C342 N344 1.325 1_554 S
C342 C345 1.357 . S
C343 H311 0.928 . S
C343 C341 1.406 1_556 S
C343 N344 1.261 . S
N344 Co295 2.214 . S
N344 C342 1.325 1_556 S
N344 C343 1.261 . S
C345 H315 0.931 . S
C345 C342 1.357 . S
C345 C346 1.312 . S
C346 H317 0.930 . S
C346 C341 1.261 . S
C346 C345 1.312 . S
C347 O319 1.214 . S
C347 O327 1.234 . S
C348 H320 0.929 . S
C348 C351 1.391 . S
C348 C353 1.391 . S
C349 H321 0.929 . S
C349 C350 1.390 . S
C349 N352 1.391 . S
C350 H322 0.930 . S
C350 C349 1.390 . S
C350 C351 1.392 . S
C351 H323 0.929 . S
C351 C348 1.391 . S
C351 C350 1.392 . S
N352 Co296 2.257 . S
N352 C349 1.391 . S
N352 C353 1.388 . S
C353 H324 0.930 . S
C353 C348 1.391 . S
C353 N352 1.388 . S
Co354 O356 2.143 . S
Co354 O362 2.074 . S
Co354 O365 2.093 . S
Co354 O378 2.097 . S
Co354 N395 2.151 . S
Co354 N403 2.214 . S
Co355 O356 2.160 . S
Co355 O361 2.058 . S
Co355 O371 2.057 . S
Co355 O386 2.037 . S
Co355 N390 2.145 . S
Co355 N411 2.257 . S
O356 Co354 2.143 . S
O356 Co355 2.160 . S
C357 O358 1.278 . S
C357 O365 1.224 . S
O358 C357 1.278 . S
C359 O360 1.245 . S
C359 O371 1.232 . S
O360 C359 1.245 . S
O361 Co355 2.058 . S
O361 C387 1.269 . S
O362 Co354 2.074 . S
O362 C387 1.257 . S
H363 C388 0.930 . S
H364 C394 0.930 . S
O365 Co354 2.093 . S
O365 C357 1.224 . S
H366 C398 0.929 . S
H367 C400 0.930 . S
H368 C401 0.930 . S
H369 C399 0.929 . S
H370 C402 0.928 . S
O371 Co355 2.057 . S
O371 C359 1.232 . S
H372 C391 0.929 . S
H373 C392 0.929 . S
H374 C404 0.931 . S
H375 C396 0.929 . S
H376 C405 0.930 . S
H377 C397 0.931 . S
O378 Co354 2.097 . S
O378 C406 1.214 . S
H379 C407 0.929 . S
H380 C408 0.929 . S
H381 C409 0.930 . S
H382 C410 0.929 . S
H383 C412 0.930 . S
H384 C389 0.930 . S
H385 C393 0.930 . S
O386 Co355 2.037 . S
O386 C406 1.234 . S
C387 O361 1.269 . S
C387 O362 1.257 . S
C388 H363 0.930 . S
C388 C391 1.388 . S
C388 C393 1.418 . S
C389 H384 0.930 . S
C389 C392 1.404 . S
C389 C393 1.353 . S
N390 Co355 2.145 . S
N390 C391 1.397 . S
N390 C392 1.334 . S
C391 H372 0.929 . S
C391 C388 1.388 . S
C391 N390 1.397 . S
C392 H373 0.929 . S
C392 C389 1.404 . S
C392 N390 1.334 . S
C393 H385 0.930 . S
C393 C388 1.418 . S
C393 C389 1.353 . S
C394 H364 0.930 . S
C394 N395 1.330 . S
C394 C396 1.446 . S
N395 Co354 2.151 . S
N395 C394 1.330 . S
N395 C399 1.418 . S
C396 H375 0.929 . S
C396 C394 1.446 . S
C396 C397 1.332 . S
C397 H377 0.931 . S
C397 C396 1.332 . S
C397 C398 1.267 . S
C398 H366 0.929 . S
C398 C397 1.267 . S
C398 C399 1.251 . S
C399 H369 0.929 . S
C399 N395 1.418 . S
C399 C398 1.251 . S
C400 H367 0.930 . S
C400 C402 1.406 . S
C400 C405 1.261 . S
C401 H368 0.930 . S
C401 N403 1.325 . S
C401 C404 1.357 . S
C402 H370 0.928 . S
C402 C400 1.406 . S
C402 N403 1.261 . S
N403 Co354 2.214 . S
N403 C401 1.325 . S
N403 C402 1.261 . S
C404 H374 0.931 . S
C404 C401 1.357 . S
C404 C405 1.312 . S
C405 H376 0.930 . S
C405 C400 1.261 . S
C405 C404 1.312 . S
C406 O378 1.214 . S
C406 O386 1.234 . S
C407 H379 0.929 . S
C407 C410 1.391 . S
C407 C412 1.391 . S
C408 H380 0.929 . S
C408 C409 1.390 . S
C408 N411 1.391 . S
C409 H381 0.930 . S
C409 C408 1.390 . S
C409 C410 1.392 . S
C410 H382 0.929 . S
C410 C407 1.391 . S
C410 C409 1.392 . S
N411 Co355 2.257 . S
N411 C408 1.391 . S
N411 C412 1.388 . S
C412 H383 0.930 . S
C412 C407 1.391 . S
C412 N411 1.388 . S
Co413 O415 2.143 1_556 S
Co413 O421 2.074 1_556 S
Co413 O424 2.093 . S
Co413 O437 2.097 . S
Co413 N454 2.151 1_556 S
Co413 N462 2.214 . S
Co414 O415 2.160 . S
Co414 O420 2.058 . S
Co414 O430 2.057 . S
Co414 O445 2.037 1_554 S
Co414 N449 2.145 . S
Co414 N470 2.257 . S
O415 Co413 2.143 1_554 S
O415 Co414 2.160 . S
C416 O417 1.278 . S
C416 O424 1.224 1_554 S
O417 C416 1.278 . S
C418 O419 1.245 . S
C418 O430 1.232 . S
O419 C418 1.245 . S
O420 Co414 2.058 . S
O420 C446 1.269 . S
O421 Co413 2.074 1_554 S
O421 C446 1.257 . S
H422 C447 0.930 1_556 S
H423 C453 0.930 . S
O424 Co413 2.093 . S
O424 C416 1.224 1_556 S
H425 C457 0.929 . S
H426 C459 0.930 . S
H427 C460 0.930 . S
H428 C458 0.929 . S
H429 C461 0.928 . S
O430 Co414 2.057 . S
O430 C418 1.232 . S
H431 C450 0.929 1_556 S
H432 C451 0.929 . S
H433 C463 0.931 . S
H434 C455 0.929 . S
H435 C464 0.930 . S
H436 C456 0.931 . S
O437 Co413 2.097 . S
O437 C465 1.214 . S
H438 C466 0.929 . S
H439 C467 0.929 1_556 S
H440 C468 0.930 . S
H441 C469 0.929 . S
H442 C471 0.930 . S
H443 C448 0.930 . S
H444 C452 0.930 . S
O445 Co414 2.037 1_556 S
O445 C465 1.234 . S
C446 O420 1.269 . S
C446 O421 1.257 . S
C447 H422 0.930 1_554 S
C447 C450 1.388 . S
C447 C452 1.418 . S
C448 H443 0.930 . S
C448 C451 1.404 . S
C448 C452 1.353 . S
N449 Co414 2.145 . S
N449 C450 1.397 . S
N449 C451 1.334 . S
C450 H431 0.929 1_554 S
C450 C447 1.388 . S
C450 N449 1.397 . S
C451 H432 0.929 . S
C451 C448 1.404 . S
C451 N449 1.334 . S
C452 H444 0.930 . S
C452 C447 1.418 . S
C452 C448 1.353 . S
C453 H423 0.930 . S
C453 N454 1.330 . S
C453 C455 1.446 . S
N454 Co413 2.151 1_554 S
N454 C453 1.330 . S
N454 C458 1.418 . S
C455 H434 0.929 . S
C455 C453 1.446 . S
C455 C456 1.332 . S
C456 H436 0.931 . S
C456 C455 1.332 . S
C456 C457 1.267 . S
C457 H425 0.929 . S
C457 C456 1.267 . S
C457 C458 1.251 . S
C458 H428 0.929 . S
C458 N454 1.418 . S
C458 C457 1.251 . S
C459 H426 0.930 . S
C459 C461 1.406 . S
C459 C464 1.261 . S
C460 H427 0.930 . S
C460 N462 1.325 . S
C460 C463 1.357 . S
C461 H429 0.928 . S
C461 C459 1.406 . S
C461 N462 1.261 . S
N462 Co413 2.214 . S
N462 C460 1.325 . S
N462 C461 1.261 . S
C463 H433 0.931 . S
C463 C460 1.357 . S
C463 C464 1.312 . S
C464 H435 0.930 . S
C464 C459 1.261 . S
C464 C463 1.312 . S
C465 O437 1.214 . S
C465 O445 1.234 . S
C466 H438 0.929 . S
C466 C469 1.391 . S
C466 C471 1.391 . S
C467 H439 0.929 1_554 S
C467 C468 1.390 1_554 S
C467 N470 1.391 . S
C468 H440 0.930 . S
C468 C467 1.390 1_556 S
C468 C469 1.392 1_556 S
C469 H441 0.929 . S
C469 C466 1.391 . S
C469 C468 1.392 1_554 S
N470 Co414 2.257 . S
N470 C467 1.391 . S
N470 C471 1.388 . S
C471 H442 0.930 . S
C471 C466 1.391 . S
C471 N470 1.388 . S
Co472 O474 2.143 . S
Co472 O480 2.074 . S
Co472 O483 2.093 . S
Co472 O496 2.097 . S
Co472 N513 2.151 . S
Co472 N521 2.214 . S
Co473 O474 2.160 . S
Co473 O479 2.058 . S
Co473 O489 2.057 . S
Co473 O504 2.037 . S
Co473 N508 2.145 . S
Co473 N529 2.257 . S
O474 Co472 2.143 . S
O474 Co473 2.160 . S
C475 O476 1.278 . S
C475 O483 1.224 . S
O476 C475 1.278 . S
C477 O478 1.245 . S
C477 O489 1.232 . S
O478 C477 1.245 . S
O479 Co473 2.058 . S
O479 C505 1.269 . S
O480 Co472 2.074 . S
O480 C505 1.257 . S
H481 C506 0.930 . S
H482 C512 0.930 . S
O483 Co472 2.093 . S
O483 C475 1.224 . S
H484 C516 0.929 . S
H485 C518 0.930 . S
H486 C519 0.930 . S
H487 C517 0.929 . S
H488 C520 0.928 . S
O489 Co473 2.057 . S
O489 C477 1.232 . S
H490 C509 0.929 . S
H491 C510 0.929 . S
H492 C522 0.931 . S
H493 C514 0.929 . S
H494 C523 0.930 . S
H495 C515 0.931 . S
O496 Co472 2.097 . S
O496 C524 1.214 . S
H497 C525 0.929 . S
H498 C526 0.929 . S
H499 C527 0.930 . S
H500 C528 0.929 . S
H501 C530 0.930 . S
H502 C507 0.930 . S
H503 C511 0.930 . S
O504 Co473 2.037 . S
O504 C524 1.234 . S
C505 O479 1.269 . S
C505 O480 1.257 . S
C506 H481 0.930 . S
C506 C509 1.388 . S
C506 C511 1.418 . S
C507 H502 0.930 . S
C507 C510 1.404 . S
C507 C511 1.353 . S
N508 Co473 2.145 . S
N508 C509 1.397 . S
N508 C510 1.334 . S
C509 H490 0.929 . S
C509 C506 1.388 . S
C509 N508 1.397 . S
C510 H491 0.929 . S
C510 C507 1.404 . S
C510 N508 1.334 . S
C511 H503 0.930 . S
C511 C506 1.418 . S
C511 C507 1.353 . S
C512 H482 0.930 . S
C512 N513 1.330 . S
C512 C514 1.446 . S
N513 Co472 2.151 . S
N513 C512 1.330 . S
N513 C517 1.418 . S
C514 H493 0.929 . S
C514 C512 1.446 . S
C514 C515 1.332 . S
C515 H495 0.931 . S
C515 C514 1.332 . S
C515 C516 1.267 . S
C516 H484 0.929 . S
C516 C515 1.267 . S
C516 C517 1.251 . S
C517 H487 0.929 . S
C517 N513 1.418 . S
C517 C516 1.251 . S
C518 H485 0.930 . S
C518 C520 1.406 . S
C518 C523 1.261 . S
C519 H486 0.930 . S
C519 N521 1.325 . S
C519 C522 1.357 . S
C520 H488 0.928 . S
C520 C518 1.406 . S
C520 N521 1.261 . S
N521 Co472 2.214 . S
N521 C519 1.325 . S
N521 C520 1.261 . S
C522 H492 0.931 . S
C522 C519 1.357 . S
C522 C523 1.312 . S
C523 H494 0.930 . S
C523 C518 1.261 . S
C523 C522 1.312 . S
C524 O496 1.214 . S
C524 O504 1.234 . S
C525 H497 0.929 . S
C525 C528 1.391 . S
C525 C530 1.391 . S
C526 H498 0.929 . S
C526 C527 1.390 . S
C526 N529 1.391 . S
C527 H499 0.930 . S
C527 C526 1.390 . S
C527 C528 1.392 . S
C528 H500 0.929 . S
C528 C525 1.391 . S
C528 C527 1.392 . S
N529 Co473 2.257 . S
N529 C526 1.391 . S
N529 C530 1.388 . S
C530 H501 0.930 . S
C530 C525 1.391 . S
C530 N529 1.388 . S
Co531 O533 2.143 . S
Co531 O539 2.074 . S
Co531 O542 2.093 . S
Co531 O555 2.097 . S
Co531 N572 2.151 . S
Co531 N580 2.214 . S
Co532 O533 2.160 . S
Co532 O538 2.058 . S
Co532 O548 2.057 . S
Co532 O563 2.037 . S
Co532 N567 2.145 . S
Co532 N588 2.257 . S
O533 Co531 2.143 . S
O533 Co532 2.160 . S
C534 O535 1.278 . S
C534 O542 1.224 . S
O535 C534 1.278 . S
C536 O537 1.245 . S
C536 O548 1.232 . S
O537 C536 1.245 . S
O538 Co532 2.058 . S
O538 C564 1.269 . S
O539 Co531 2.074 . S
O539 C564 1.257 . S
H540 C565 0.930 . S
H541 C571 0.930 . S
O542 Co531 2.093 . S
O542 C534 1.224 . S
H543 C575 0.929 . S
H544 C577 0.930 . S
H545 C578 0.930 . S
H546 C576 0.929 . S
H547 C579 0.928 . S
O548 Co532 2.057 . S
O548 C536 1.232 . S
H549 C568 0.929 . S
H550 C569 0.929 . S
H551 C581 0.931 . S
H552 C573 0.929 . S
H553 C582 0.930 . S
H554 C574 0.931 . S
O555 Co531 2.097 . S
O555 C583 1.214 . S
H556 C584 0.929 . S
H557 C585 0.929 . S
H558 C586 0.930 . S
H559 C587 0.929 . S
H560 C589 0.930 . S
H561 C566 0.930 . S
H562 C570 0.930 . S
O563 Co532 2.037 . S
O563 C583 1.234 . S
C564 O538 1.269 . S
C564 O539 1.257 . S
C565 H540 0.930 . S
C565 C568 1.388 . S
C565 C570 1.418 . S
C566 H561 0.930 . S
C566 C569 1.404 . S
C566 C570 1.353 . S
N567 Co532 2.145 . S
N567 C568 1.397 . S
N567 C569 1.334 . S
C568 H549 0.929 . S
C568 C565 1.388 . S
C568 N567 1.397 . S
C569 H550 0.929 . S
C569 C566 1.404 . S
C569 N567 1.334 . S
C570 H562 0.930 . S
C570 C565 1.418 . S
C570 C566 1.353 . S
C571 H541 0.930 . S
C571 N572 1.330 . S
C571 C573 1.446 . S
N572 Co531 2.151 . S
N572 C571 1.330 . S
N572 C576 1.418 . S
C573 H552 0.929 . S
C573 C571 1.446 . S
C573 C574 1.332 . S
C574 H554 0.931 . S
C574 C573 1.332 . S
C574 C575 1.267 . S
C575 H543 0.929 . S
C575 C574 1.267 . S
C575 C576 1.251 . S
C576 H546 0.929 . S
C576 N572 1.418 . S
C576 C575 1.251 . S
C577 H544 0.930 . S
C577 C579 1.406 . S
C577 C582 1.261 . S
C578 H545 0.930 . S
C578 N580 1.325 . S
C578 C581 1.357 . S
C579 H547 0.928 . S
C579 C577 1.406 . S
C579 N580 1.261 . S
N580 Co531 2.214 . S
N580 C578 1.325 . S
N580 C579 1.261 . S
C581 H551 0.931 . S
C581 C578 1.357 . S
C581 C582 1.312 . S
C582 H553 0.930 . S
C582 C577 1.261 . S
C582 C581 1.312 . S
C583 O555 1.214 . S
C583 O563 1.234 . S
C584 H556 0.929 . S
C584 C587 1.391 . S
C584 C589 1.391 . S
C585 H557 0.929 . S
C585 C586 1.390 . S
C585 N588 1.391 . S
C586 H558 0.930 . S
C586 C585 1.390 . S
C586 C587 1.392 . S
C587 H559 0.929 . S
C587 C584 1.391 . S
C587 C586 1.392 . S
N588 Co532 2.257 . S
N588 C585 1.391 . S
N588 C589 1.388 . S
C589 H560 0.930 . S
C589 C584 1.391 . S
C589 N588 1.388 . S
Co590 O592 2.143 . S
Co590 O598 2.074 . S
Co590 O601 2.093 . S
Co590 O614 2.097 . S
Co590 N631 2.151 . S
Co590 N639 2.214 . S
Co591 O592 2.160 . S
Co591 O597 2.058 . S
Co591 O607 2.057 . S
Co591 O622 2.037 . S
Co591 N626 2.145 . S
Co591 N647 2.257 . S
O592 Co590 2.143 . S
O592 Co591 2.160 . S
C593 O594 1.278 . S
C593 O601 1.224 . S
O594 C593 1.278 . S
C595 O596 1.245 . S
C595 O607 1.232 . S
O596 C595 1.245 . S
O597 Co591 2.058 . S
O597 C623 1.269 . S
O598 Co590 2.074 . S
O598 C623 1.257 . S
H599 C624 0.930 . S
H600 C630 0.930 . S
O601 Co590 2.093 . S
O601 C593 1.224 . S
H602 C634 0.929 . S
H603 C636 0.930 . S
H604 C637 0.930 . S
H605 C635 0.929 . S
H606 C638 0.928 . S
O607 Co591 2.057 . S
O607 C595 1.232 . S
H608 C627 0.929 . S
H609 C628 0.929 . S
H610 C640 0.931 . S
H611 C632 0.929 . S
H612 C641 0.930 . S
H613 C633 0.931 . S
O614 Co590 2.097 . S
O614 C642 1.214 . S
H615 C643 0.929 . S
H616 C644 0.929 . S
H617 C645 0.930 . S
H618 C646 0.929 . S
H619 C648 0.930 . S
H620 C625 0.930 . S
H621 C629 0.930 . S
O622 Co591 2.037 . S
O622 C642 1.234 . S
C623 O597 1.269 . S
C623 O598 1.257 . S
C624 H599 0.930 . S
C624 C627 1.388 . S
C624 C629 1.418 . S
C625 H620 0.930 . S
C625 C628 1.404 . S
C625 C629 1.353 . S
N626 Co591 2.145 . S
N626 C627 1.397 . S
N626 C628 1.334 . S
C627 H608 0.929 . S
C627 C624 1.388 . S
C627 N626 1.397 . S
C628 H609 0.929 . S
C628 C625 1.404 . S
C628 N626 1.334 . S
C629 H621 0.930 . S
C629 C624 1.418 . S
C629 C625 1.353 . S
C630 H600 0.930 . S
C630 N631 1.330 . S
C630 C632 1.446 . S
N631 Co590 2.151 . S
N631 C630 1.330 . S
N631 C635 1.418 . S
C632 H611 0.929 . S
C632 C630 1.446 . S
C632 C633 1.332 . S
C633 H613 0.931 . S
C633 C632 1.332 . S
C633 C634 1.267 . S
C634 H602 0.929 . S
C634 C633 1.267 . S
C634 C635 1.251 . S
C635 H605 0.929 . S
C635 N631 1.418 . S
C635 C634 1.251 . S
C636 H603 0.930 . S
C636 C638 1.406 . S
C636 C641 1.261 . S
C637 H604 0.930 . S
C637 N639 1.325 . S
C637 C640 1.357 . S
C638 H606 0.928 . S
C638 C636 1.406 . S
C638 N639 1.261 . S
N639 Co590 2.214 . S
N639 C637 1.325 . S
N639 C638 1.261 . S
C640 H610 0.931 . S
C640 C637 1.357 . S
C640 C641 1.312 . S
C641 H612 0.930 . S
C641 C636 1.261 . S
C641 C640 1.312 . S
C642 O614 1.214 . S
C642 O622 1.234 . S
C643 H615 0.929 . S
C643 C646 1.391 . S
C643 C648 1.391 . S
C644 H616 0.929 . S
C644 C645 1.390 . S
C644 N647 1.391 . S
C645 H617 0.930 . S
C645 C644 1.390 . S
C645 C646 1.392 . S
C646 H618 0.929 . S
C646 C643 1.391 . S
C646 C645 1.392 . S
N647 Co591 2.257 . S
N647 C644 1.391 . S
N647 C648 1.388 . S
C648 H619 0.930 . S
C648 C643 1.391 . S
C648 N647 1.388 . S
Co649 O651 2.143 . S
Co649 O657 2.074 . S
Co649 O660 2.093 . S
Co649 O673 2.097 . S
Co649 N690 2.151 . S
Co649 N698 2.214 . S
Co650 O651 2.160 . S
Co650 O656 2.058 . S
Co650 O666 2.057 . S
Co650 O681 2.037 . S
Co650 N685 2.145 . S
Co650 N706 2.257 . S
O651 Co649 2.143 . S
O651 Co650 2.160 . S
C652 O653 1.278 . S
C652 O660 1.224 . S
O653 C652 1.278 . S
C654 O655 1.245 . S
C654 O666 1.232 . S
O655 C654 1.245 . S
O656 Co650 2.058 . S
O656 C682 1.269 . S
O657 Co649 2.074 . S
O657 C682 1.257 . S
H658 C683 0.930 . S
H659 C689 0.930 . S
O660 Co649 2.093 . S
O660 C652 1.224 . S
H661 C693 0.929 . S
H662 C695 0.930 . S
H663 C696 0.930 . S
H664 C694 0.929 . S
H665 C697 0.928 . S
O666 Co650 2.057 . S
O666 C654 1.232 . S
H667 C686 0.929 . S
H668 C687 0.929 . S
H669 C699 0.931 . S
H670 C691 0.929 . S
H671 C700 0.930 . S
H672 C692 0.931 . S
O673 Co649 2.097 . S
O673 C701 1.214 . S
H674 C702 0.929 . S
H675 C703 0.929 . S
H676 C704 0.930 . S
H677 C705 0.929 . S
H678 C707 0.930 . S
H679 C684 0.930 . S
H680 C688 0.930 . S
O681 Co650 2.037 . S
O681 C701 1.234 . S
C682 O656 1.269 . S
C682 O657 1.257 . S
C683 H658 0.930 . S
C683 C686 1.388 . S
C683 C688 1.418 . S
C684 H679 0.930 . S
C684 C687 1.404 . S
C684 C688 1.353 . S
N685 Co650 2.145 . S
N685 C686 1.397 . S
N685 C687 1.334 . S
C686 H667 0.929 . S
C686 C683 1.388 . S
C686 N685 1.397 . S
C687 H668 0.929 . S
C687 C684 1.404 . S
C687 N685 1.334 . S
C688 H680 0.930 . S
C688 C683 1.418 . S
C688 C684 1.353 . S
C689 H659 0.930 . S
C689 N690 1.330 . S
C689 C691 1.446 . S
N690 Co649 2.151 . S
N690 C689 1.330 . S
N690 C694 1.418 . S
C691 H670 0.929 . S
C691 C689 1.446 . S
C691 C692 1.332 . S
C692 H672 0.931 . S
C692 C691 1.332 . S
C692 C693 1.267 . S
C693 H661 0.929 . S
C693 C692 1.267 . S
C693 C694 1.251 . S
C694 H664 0.929 . S
C694 N690 1.418 . S
C694 C693 1.251 . S
C695 H662 0.930 . S
C695 C697 1.406 . S
C695 C700 1.261 . S
C696 H663 0.930 . S
C696 N698 1.325 . S
C696 C699 1.357 . S
C697 H665 0.928 . S
C697 C695 1.406 . S
C697 N698 1.261 . S
N698 Co649 2.214 . S
N698 C696 1.325 . S
N698 C697 1.261 . S
C699 H669 0.931 . S
C699 C696 1.357 . S
C699 C700 1.312 . S
C700 H671 0.930 . S
C700 C695 1.261 . S
C700 C699 1.312 . S
C701 O673 1.214 . S
C701 O681 1.234 . S
C702 H674 0.929 . S
C702 C705 1.391 . S
C702 C707 1.391 . S
C703 H675 0.929 . S
C703 C704 1.390 . S
C703 N706 1.391 . S
C704 H676 0.930 . S
C704 C703 1.390 . S
C704 C705 1.392 . S
C705 H677 0.929 . S
C705 C702 1.391 . S
C705 C704 1.392 . S
N706 Co650 2.257 . S
N706 C703 1.391 . S
N706 C707 1.388 . S
C707 H678 0.930 . S
C707 C702 1.391 . S
C707 N706 1.388 . S
H708 C714 0.930 . S
H709 C718 0.930 . S
H710 C723 0.929 . S
H711 C721 0.929 . S
H712 C716 0.929 . S
H713 C722 0.929 . S
C714 H708 0.930 . S
C714 C715 1.367 . S
C714 C722 1.378 . S
C715 C714 1.367 . S
C715 C723 1.433 . S
C716 H712 0.929 . S
C716 C718 1.378 . S
C716 C720 1.350 . S
C717 C720 1.463 . S
C717 C722 1.350 . S
C717 N725 1.427 . S
C718 H709 0.930 . S
C718 C716 1.378 . S
C718 C719 1.367 . S
C719 C718 1.367 . S
C719 C721 1.433 . S
C720 C716 1.350 . S
C720 C717 1.463 . S
C720 N724 1.427 . S
C721 H711 0.929 . S
C721 C719 1.433 . S
C721 N724 1.384 . S
C722 H713 0.929 . S
C722 C714 1.378 . S
C722 C717 1.350 . S
C723 H710 0.929 . S
C723 C715 1.433 . S
C723 N725 1.384 . S
N724 C720 1.427 . S
N724 C721 1.384 . S
N725 C717 1.427 . S
N725 C723 1.384 . S
H726 C732 0.930 . S
H727 C736 0.930 . S
H728 C741 0.929 . S
H729 C739 0.929 . S
H730 C734 0.929 . S
H731 C740 0.929 . S
C732 H726 0.930 . S
C732 C733 1.367 . S
C732 C740 1.378 . S
C733 C732 1.367 . S
C733 C741 1.433 . S
C734 H730 0.929 . S
C734 C736 1.378 . S
C734 C738 1.350 . S
C735 C738 1.463 . S
C735 C740 1.350 . S
C735 N743 1.427 . S
C736 H727 0.930 . S
C736 C734 1.378 . S
C736 C737 1.367 . S
C737 C736 1.367 . S
C737 C739 1.433 . S
C738 C734 1.350 . S
C738 C735 1.463 . S
C738 N742 1.427 . S
C739 H729 0.929 . S
C739 C737 1.433 . S
C739 N742 1.384 . S
C740 H731 0.929 . S
C740 C732 1.378 . S
C740 C735 1.350 . S
C741 H728 0.929 . S
C741 C733 1.433 . S
C741 N743 1.384 . S
N742 C738 1.427 . S
N742 C739 1.384 . S
N743 C735 1.427 . S
N743 C741 1.384 . S
H744 C750 0.930 . S
H745 C754 0.930 . S
H746 C759 0.929 . S
H747 C757 0.929 . S
H748 C752 0.929 . S
H749 C758 0.929 . S
C750 H744 0.930 . S
C750 C751 1.367 . S
C750 C758 1.378 . S
C751 C750 1.367 . S
C751 C759 1.433 . S
C752 H748 0.929 . S
C752 C754 1.378 . S
C752 C756 1.350 . S
C753 C756 1.463 . S
C753 C758 1.350 . S
C753 N761 1.427 . S
C754 H745 0.930 . S
C754 C752 1.378 . S
C754 C755 1.367 . S
C755 C754 1.367 . S
C755 C757 1.433 . S
C756 C752 1.350 . S
C756 C753 1.463 . S
C756 N760 1.427 . S
C757 H747 0.929 . S
C757 C755 1.433 . S
C757 N760 1.384 . S
C758 H749 0.929 . S
C758 C750 1.378 . S
C758 C753 1.350 . S
C759 H746 0.929 . S
C759 C751 1.433 . S
C759 N761 1.384 . S
N760 C756 1.427 . S
N760 C757 1.384 . S
N761 C753 1.427 . S
N761 C759 1.384 . S
H762 C768 0.930 . S
H763 C772 0.930 . S
H764 C777 0.929 . S
H765 C775 0.929 . S
H766 C770 0.929 . S
H767 C776 0.929 . S
C768 H762 0.930 . S
C768 C769 1.367 . S
C768 C776 1.378 . S
C769 C768 1.367 . S
C769 C777 1.433 . S
C770 H766 0.929 . S
C770 C772 1.378 . S
C770 C774 1.350 . S
C771 C774 1.463 . S
C771 C776 1.350 . S
C771 N779 1.427 . S
C772 H763 0.930 . S
C772 C770 1.378 . S
C772 C773 1.367 . S
C773 C772 1.367 . S
C773 C775 1.433 . S
C774 C770 1.350 . S
C774 C771 1.463 . S
C774 N778 1.427 . S
C775 H765 0.929 . S
C775 C773 1.433 . S
C775 N778 1.384 . S
C776 H767 0.929 . S
C776 C768 1.378 . S
C776 C771 1.350 . S
C777 H764 0.929 . S
C777 C769 1.433 . S
C777 N779 1.384 . S
N778 C774 1.427 . S
N778 C775 1.384 . S
N779 C771 1.427 . S
N779 C777 1.384 . S
H780 C786 0.930 . S
H781 C790 0.930 . S
H782 C795 0.929 . S
H783 C793 0.929 . S
H784 C788 0.929 . S
H785 C794 0.929 . S
C786 H780 0.930 . S
C786 C787 1.367 . S
C786 C794 1.378 . S
C787 C786 1.367 . S
C787 C795 1.433 . S
C788 H784 0.929 . S
C788 C790 1.378 . S
C788 C792 1.350 . S
C789 C792 1.463 . S
C789 C794 1.350 1_556 S
C789 N797 1.427 . S
C790 H781 0.930 . S
C790 C788 1.378 . S
C790 C791 1.367 . S
C791 C790 1.367 . S
C791 C793 1.433 . S
C792 C788 1.350 . S
C792 C789 1.463 . S
C792 N796 1.427 . S
C793 H783 0.929 . S
C793 C791 1.433 . S
C793 N796 1.384 . S
C794 H785 0.929 . S
C794 C786 1.378 . S
C794 C789 1.350 1_554 S
C795 H782 0.929 . S
C795 C787 1.433 . S
C795 N797 1.384 1_554 S
N796 C792 1.427 . S
N796 C793 1.384 . S
N797 C789 1.427 . S
N797 C795 1.384 1_556 S
H798 C804 0.930 . S
H799 C808 0.930 . S
H800 C813 0.929 . S
H801 C811 0.929 . S
H802 C806 0.929 . S
H803 C812 0.929 . S
C804 H798 0.930 . S
C804 C805 1.367 . S
C804 C812 1.378 . S
C805 C804 1.367 . S
C805 C813 1.433 . S
C806 H802 0.929 . S
C806 C808 1.378 . S
C806 C810 1.350 . S
C807 C810 1.463 . S
C807 C812 1.350 . S
C807 N815 1.427 . S
C808 H799 0.930 . S
C808 C806 1.378 . S
C808 C809 1.367 . S
C809 C808 1.367 . S
C809 C811 1.433 . S
C810 C806 1.350 . S
C810 C807 1.463 . S
C810 N814 1.427 . S
C811 H801 0.929 . S
C811 C809 1.433 . S
C811 N814 1.384 . S
C812 H803 0.929 . S
C812 C804 1.378 . S
C812 C807 1.350 . S
C813 H800 0.929 . S
C813 C805 1.433 . S
C813 N815 1.384 . S
N814 C810 1.427 . S
N814 C811 1.384 . S
N815 C807 1.427 . S
N815 C813 1.384 . S
H816 C822 0.930 . S
H817 C826 0.930 . S
H818 C831 0.929 . S
H819 C829 0.929 . S
H820 C824 0.929 . S
H821 C830 0.929 . S
C822 H816 0.930 . S
C822 C823 1.367 . S
C822 C830 1.378 . S
C823 C822 1.367 . S
C823 C831 1.433 . S
C824 H820 0.929 . S
C824 C826 1.378 . S
C824 C828 1.350 . S
C825 C828 1.463 . S
C825 C830 1.350 . S
C825 N833 1.427 . S
C826 H817 0.930 . S
C826 C824 1.378 . S
C826 C827 1.367 . S
C827 C826 1.367 . S
C827 C829 1.433 . S
C828 C824 1.350 . S
C828 C825 1.463 . S
C828 N832 1.427 . S
C829 H819 0.929 . S
C829 C827 1.433 . S
C829 N832 1.384 . S
C830 H821 0.929 . S
C830 C822 1.378 . S
C830 C825 1.350 . S
C831 H818 0.929 . S
C831 C823 1.433 . S
C831 N833 1.384 . S
N832 C828 1.427 . S
N832 C829 1.384 . S
N833 C825 1.427 . S
N833 C831 1.384 . S
H834 C840 0.930 . S
H835 C844 0.930 . S
H836 C849 0.929 . S
H837 C847 0.929 . S
H838 C842 0.929 . S
H839 C848 0.929 . S
C840 H834 0.930 . S
C840 C841 1.367 . S
C840 C848 1.378 . S
C841 C840 1.367 . S
C841 C849 1.433 . S
C842 H838 0.929 . S
C842 C844 1.378 . S
C842 C846 1.350 . S
C843 C846 1.463 . S
C843 C848 1.350 . S
C843 N851 1.427 . S
C844 H835 0.930 . S
C844 C842 1.378 . S
C844 C845 1.367 . S
C845 C844 1.367 . S
C845 C847 1.433 . S
C846 C842 1.350 . S
C846 C843 1.463 . S
C846 N850 1.427 . S
C847 H837 0.929 . S
C847 C845 1.433 . S
C847 N850 1.384 . S
C848 H839 0.929 . S
C848 C840 1.378 . S
C848 C843 1.350 . S
C849 H836 0.929 . S
C849 C841 1.433 . S
C849 N851 1.384 . S
N850 C846 1.427 . S
N850 C847 1.384 . S
N851 C843 1.427 . S
N851 C849 1.384 . S
H852 C858 0.930 . S
H853 C862 0.930 . S
H854 C867 0.929 . S
H855 C865 0.929 . S
H856 C860 0.929 . S
H857 C866 0.929 . S
C858 H852 0.930 . S
C858 C859 1.367 . S
C858 C866 1.378 . S
C859 C858 1.367 . S
C859 C867 1.433 . S
C860 H856 0.929 . S
C860 C862 1.378 . S
C860 C864 1.350 . S
C861 C864 1.463 . S
C861 C866 1.350 . S
C861 N869 1.427 . S
C862 H853 0.930 . S
C862 C860 1.378 . S
C862 C863 1.367 . S
C863 C862 1.367 . S
C863 C865 1.433 . S
C864 C860 1.350 . S
C864 C861 1.463 . S
C864 N868 1.427 . S
C865 H855 0.929 . S
C865 C863 1.433 . S
C865 N868 1.384 . S
C866 H857 0.929 . S
C866 C858 1.378 . S
C866 C861 1.350 . S
C867 H854 0.929 . S
C867 C859 1.433 . S
C867 N869 1.384 . S
N868 C864 1.427 . S
N868 C865 1.384 . S
N869 C861 1.427 . S
N869 C867 1.384 . S
H870 C876 0.930 . S
H871 C880 0.930 . S
H872 C885 0.929 . S
H873 C883 0.929 . S
H874 C878 0.929 . S
H875 C884 0.929 . S
C876 H870 0.930 . S
C876 C877 1.367 . S
C876 C884 1.378 . S
C877 C876 1.367 . S
C877 C885 1.433 . S
C878 H874 0.929 . S
C878 C880 1.378 . S
C878 C882 1.350 . S
C879 C882 1.463 . S
C879 C884 1.350 . S
C879 N887 1.427 . S
C880 H871 0.930 . S
C880 C878 1.378 . S
C880 C881 1.367 . S
C881 C880 1.367 . S
C881 C883 1.433 . S
C882 C878 1.350 . S
C882 C879 1.463 . S
C882 N886 1.427 . S
C883 H873 0.929 . S
C883 C881 1.433 . S
C883 N886 1.384 . S
C884 H875 0.929 . S
C884 C876 1.378 . S
C884 C879 1.350 . S
C885 H872 0.929 . S
C885 C877 1.433 . S
C885 N887 1.384 . S
N886 C882 1.427 . S
N886 C883 1.384 . S
N887 C879 1.427 . S
N887 C885 1.384 . S
H888 C894 0.930 . S
H889 C898 0.930 . S
H890 C903 0.929 . S
H891 C901 0.929 . S
H892 C896 0.929 . S
H893 C902 0.929 . S
C894 H888 0.930 . S
C894 C895 1.367 . S
C894 C902 1.378 . S
C895 C894 1.367 . S
C895 C903 1.433 . S
C896 H892 0.929 . S
C896 C898 1.378 . S
C896 C900 1.350 . S
C897 C900 1.463 . S
C897 C902 1.350 . S
C897 N905 1.427 . S
C898 H889 0.930 . S
C898 C896 1.378 . S
C898 C899 1.367 . S
C899 C898 1.367 . S
C899 C901 1.433 . S
C900 C896 1.350 . S
C900 C897 1.463 . S
C900 N904 1.427 . S
C901 H891 0.929 . S
C901 C899 1.433 . S
C901 N904 1.384 . S
C902 H893 0.929 . S
C902 C894 1.378 . S
C902 C897 1.350 . S
C903 H890 0.929 . S
C903 C895 1.433 . S
C903 N905 1.384 . S
N904 C900 1.427 . S
N904 C901 1.384 . S
N905 C897 1.427 . S
N905 C903 1.384 . S
H906 C912 0.930 . S
H907 C916 0.930 . S
H908 C921 0.929 . S
H909 C919 0.929 . S
H910 C914 0.929 . S
H911 C920 0.929 . S
C912 H906 0.930 . S
C912 C913 1.367 . S
C912 C920 1.378 . S
C913 C912 1.367 . S
C913 C921 1.433 . S
C914 H910 0.929 . S
C914 C916 1.378 . S
C914 C918 1.350 . S
C915 C918 1.463 . S
C915 C920 1.350 . S
C915 N923 1.427 . S
C916 H907 0.930 . S
C916 C914 1.378 . S
C916 C917 1.349 1_556 S
C917 C916 1.349 1_554 S
C917 C919 1.442 . S
C918 C914 1.350 . S
C918 C915 1.463 . S
C918 N922 1.414 1_556 S
C919 H909 0.929 . S
C919 C917 1.442 . S
C919 N922 1.391 . S
C920 H911 0.929 . S
C920 C912 1.378 . S
C920 C915 1.350 . S
C921 H908 0.929 . S
C921 C913 1.433 . S
C921 N923 1.384 . S
N922 C918 1.414 1_554 S
N922 C919 1.391 . S
N923 C915 1.427 . S
N923 C921 1.384 . S
H924 C930 0.930 . S
H925 C934 0.930 . S
H926 C939 0.929 . S
H927 C937 0.929 . S
H928 C932 0.929 . S
H929 C938 0.929 . S
C930 H924 0.930 . S
C930 C931 1.367 . S
C930 C938 1.378 . S
C931 C930 1.367 . S
C931 C939 1.433 . S
C932 H928 0.929 . S
C932 C934 1.378 . S
C932 C936 1.350 . S
C933 C936 1.463 . S
C933 C938 1.350 . S
C933 N941 1.427 . S
C934 H925 0.930 . S
C934 C932 1.378 . S
C934 C935 1.367 . S
C935 C934 1.367 . S
C935 C937 1.433 . S
C936 C932 1.350 . S
C936 C933 1.463 . S
C936 N940 1.427 . S
C937 H927 0.929 . S
C937 C935 1.433 . S
C937 N940 1.384 . S
C938 H929 0.929 . S
C938 C930 1.378 . S
C938 C933 1.350 . S
C939 H926 0.929 . S
C939 C931 1.433 . S
C939 N941 1.384 . S
N940 C936 1.427 . S
N940 C937 1.384 . S
N941 C933 1.427 . S
N941 C939 1.384 . S
H942 C948 0.930 . S
H943 C952 0.930 . S
H944 C957 0.929 . S
H945 C955 0.929 . S
H946 C950 0.929 1_556 S
H947 C956 0.929 . S
C948 H942 0.930 . S
C948 C949 1.367 . S
C948 C956 1.378 . S
C949 C948 1.367 . S
C949 C957 1.433 . S
C950 H946 0.929 1_554 S
C950 C952 1.378 . S
C950 C954 1.350 1_554 S
C951 C954 1.463 . S
C951 C956 1.350 . S
C951 N959 1.427 . S
C952 H943 0.930 . S
C952 C950 1.378 . S
C952 C953 1.367 . S
C953 C952 1.367 . S
C953 C955 1.433 . S
C954 C950 1.350 1_556 S
C954 C951 1.463 . S
C954 N958 1.427 1_556 S
C955 H945 0.929 . S
C955 C953 1.433 . S
C955 N958 1.384 . S
C956 H947 0.929 . S
C956 C948 1.378 . S
C956 C951 1.350 . S
C957 H944 0.929 . S
C957 C949 1.433 . S
C957 N959 1.384 . S
N958 C954 1.427 1_554 S
N958 C955 1.384 . S
N959 C951 1.427 . S
N959 C957 1.384 . S
H960 C966 0.945 . S
H961 C970 0.930 . S
H962 C975 0.929 . S
H963 C973 0.929 . S
H964 C968 0.929 . S
H965 C974 0.929 . S
C966 H960 0.945 . S
C966 C967 1.367 . S
C966 C974 1.378 . S
C967 C966 1.367 . S
C967 C975 1.433 . S
C968 H964 0.929 . S
C968 C970 1.378 . S
C968 C972 1.350 . S
C969 C972 1.463 . S
C969 C974 1.350 . S
C969 N977 1.427 . S
C970 H961 0.930 . S
C970 C968 1.378 . S
C970 C971 1.367 . S
C971 C970 1.367 . S
C971 C973 1.433 . S
C972 C968 1.350 . S
C972 C969 1.463 . S
C972 N976 1.427 . S
C973 H963 0.929 . S
C973 C971 1.433 . S
C973 N976 1.384 . S
C974 H965 0.929 . S
C974 C966 1.378 . S
C974 C969 1.350 . S
C975 H962 0.929 . S
C975 C967 1.433 . S
C975 N977 1.384 . S
N976 C972 1.427 . S
N976 C973 1.384 . S
N977 C969 1.427 . S
N977 C975 1.384 . S
H978 C984 0.930 . S
H979 C988 0.930 . S
H980 C993 0.929 . S
H981 C991 0.929 . S
H982 C986 0.929 . S
H983 C992 0.929 . S
C984 H978 0.930 . S
C984 C985 1.367 . S
C984 C992 1.378 . S
C985 C984 1.367 . S
C985 C993 1.433 . S
C986 H982 0.929 . S
C986 C988 1.378 . S
C986 C990 1.350 . S
C987 C990 1.463 . S
C987 C992 1.350 . S
C987 N995 1.427 . S
C988 H979 0.930 . S
C988 C986 1.378 . S
C988 C989 1.367 . S
C989 C988 1.367 . S
C989 C991 1.433 . S
C990 C986 1.350 . S
C990 C987 1.463 . S
C990 N994 1.427 . S
C991 H981 0.929 . S
C991 C989 1.433 . S
C991 N994 1.384 . S
C992 H983 0.929 . S
C992 C984 1.378 . S
C992 C987 1.350 . S
C993 H980 0.929 . S
C993 C985 1.433 . S
C993 N995 1.384 . S
N994 C990 1.427 . S
N994 C991 1.384 . S
N995 C987 1.427 . S
N995 C993 1.384 . S
H996 C1002 0.930 . S
H997 C1006 0.930 . S
H998 C1011 0.929 . S
H999 C1009 0.929 . S
H1000 C1004 0.929 . S
H1001 C1010 0.929 . S
C1002 H996 0.930 . S
C1002 C1003 1.367 . S
C1002 C1010 1.378 . S
C1003 C1002 1.367 . S
C1003 C1011 1.433 . S
C1004 H1000 0.929 . S
C1004 C1006 1.378 . S
C1004 C1008 1.350 . S
C1005 C1008 1.463 . S
C1005 C1010 1.350 . S
C1005 N1013 1.427 . S
C1006 H997 0.930 . S
C1006 C1004 1.378 . S
C1006 C1007 1.367 . S
C1007 C1006 1.367 . S
C1007 C1009 1.433 . S
C1008 C1004 1.350 . S
C1008 C1005 1.463 . S
C1008 N1012 1.427 . S
C1009 H999 0.929 . S
C1009 C1007 1.433 . S
C1009 N1012 1.384 . S
C1010 H1001 0.929 . S
C1010 C1002 1.378 . S
C1010 C1005 1.350 . S
C1011 H998 0.929 . S
C1011 C1003 1.433 . S
C1011 N1013 1.384 . S
N1012 C1008 1.427 . S
N1012 C1009 1.384 . S
N1013 C1005 1.427 . S
N1013 C1011 1.384 . S
H1014 C1020 0.930 . S
H1015 C1024 0.930 . S
H1016 C1029 0.929 . S
H1017 C1027 0.929 . S
H1018 C1022 0.929 . S
H1019 C1028 0.929 . S
C1020 H1014 0.930 . S
C1020 C1021 1.367 . S
C1020 C1028 1.378 . S
C1021 C1020 1.367 . S
C1021 C1029 1.433 . S
C1022 H1018 0.929 . S
C1022 C1024 1.378 . S
C1022 C1026 1.350 . S
C1023 C1026 1.463 . S
C1023 C1028 1.350 . S
C1023 N1031 1.427 . S
C1024 H1015 0.930 . S
C1024 C1022 1.378 . S
C1024 C1025 1.367 . S
C1025 C1024 1.367 . S
C1025 C1027 1.433 . S
C1026 C1022 1.350 . S
C1026 C1023 1.463 . S
C1026 N1030 1.427 . S
C1027 H1017 0.929 . S
C1027 C1025 1.433 . S
C1027 N1030 1.384 . S
C1028 H1019 0.929 . S
C1028 C1020 1.378 . S
C1028 C1023 1.350 . S
C1029 H1016 0.929 . S
C1029 C1021 1.433 . S
C1029 N1031 1.384 . S
N1030 C1026 1.427 . S
N1030 C1027 1.384 . S
N1031 C1023 1.427 . S
N1031 C1029 1.384 . S
H1032 C1038 0.930 . S
H1033 C1042 0.930 . S
H1034 C1047 0.929 . S
H1035 C1045 0.929 . S
H1036 C1040 0.929 . S
H1037 C1046 0.929 1_556 S
C1038 H1032 0.930 . S
C1038 C1039 1.367 . S
C1038 C1046 1.378 . S
C1039 C1038 1.367 . S
C1039 C1047 1.433 . S
C1040 H1036 0.929 . S
C1040 C1042 1.378 . S
C1040 C1044 1.350 . S
C1041 C1044 1.463 1_545 S
C1041 C1046 1.350 . S
C1041 N1049 1.427 . S
C1042 H1033 0.930 . S
C1042 C1040 1.378 . S
C1042 C1043 1.367 . S
C1043 C1042 1.367 . S
C1043 C1045 1.433 1_554 S
C1044 C1040 1.350 . S
C1044 C1041 1.463 1_565 S
C1044 N1048 1.427 . S
C1045 H1035 0.929 . S
C1045 C1043 1.433 1_556 S
C1045 N1048 1.384 1_556 S
C1046 H1037 0.929 1_554 S
C1046 C1038 1.378 . S
C1046 C1041 1.350 . S
C1047 H1034 0.929 . S
C1047 C1039 1.433 . S
C1047 N1049 1.384 . S
N1048 C1044 1.427 . S
N1048 C1045 1.384 1_554 S
N1049 C1041 1.427 . S
N1049 C1047 1.384 . S
H1050 C1056 0.930 . S
H1051 C1060 0.930 . S
H1052 C1065 0.929 . S
H1053 C1063 0.929 . S
H1054 C1058 0.929 . S
H1055 C1064 0.929 . S
C1056 H1050 0.930 . S
C1056 C1057 1.367 . S
C1056 C1064 1.378 . S
C1057 C1056 1.367 . S
C1057 C1065 1.433 . S
C1058 H1054 0.929 . S
C1058 C1060 1.378 . S
C1058 C1062 1.350 . S
C1059 C1062 1.463 . S
C1059 C1064 1.350 . S
C1059 N1067 1.427 . S
C1060 H1051 0.930 . S
C1060 C1058 1.378 . S
C1060 C1061 1.367 . S
C1061 C1060 1.367 . S
C1061 C1063 1.433 . S
C1062 C1058 1.350 . S
C1062 C1059 1.463 . S
C1062 N1066 1.427 . S
C1063 H1053 0.929 . S
C1063 C1061 1.433 . S
C1063 N1066 1.384 . S
C1064 H1055 0.929 . S
C1064 C1056 1.378 . S
C1064 C1059 1.350 . S
C1065 H1052 0.929 . S
C1065 C1057 1.433 . S
C1065 N1067 1.384 . S
N1066 C1062 1.427 . S
N1066 C1063 1.384 . S
N1067 C1059 1.427 . S
N1067 C1065 1.384 . S
H1068 C1074 0.930 . S
H1069 C1078 0.930 . S
H1070 C1083 0.929 . S
H1071 C1081 0.929 . S
H1072 C1076 0.929 . S
H1073 C1082 0.929 . S
C1074 H1068 0.930 . S
C1074 C1075 1.367 . S
C1074 C1082 1.378 . S
C1075 C1074 1.367 . S
C1075 C1083 1.433 . S
C1076 H1072 0.929 . S
C1076 C1078 1.378 . S
C1076 C1080 1.350 . S
C1077 C1080 1.463 1_455 S
C1077 C1082 1.350 . S
C1077 N1085 1.427 . S
C1078 H1069 0.930 . S
C1078 C1076 1.378 . S
C1078 C1079 1.367 . S
C1079 C1078 1.367 . S
C1079 C1081 1.433 . S
C1080 C1076 1.350 . S
C1080 C1077 1.463 1_655 S
C1080 N1084 1.427 . S
C1081 H1071 0.929 . S
C1081 C1079 1.433 . S
C1081 N1084 1.384 . S
C1082 H1073 0.929 . S
C1082 C1074 1.378 . S
C1082 C1077 1.350 . S
C1083 H1070 0.929 . S
C1083 C1075 1.433 . S
C1083 N1085 1.384 . S
N1084 C1080 1.427 . S
N1084 C1081 1.384 . S
N1085 C1077 1.427 . S
N1085 C1083 1.384 . S
H1086 C1092 0.930 . S
H1087 C1096 0.930 . S
H1088 C1101 0.929 . S
H1089 C1099 0.929 . S
H1090 C1094 0.929 . S
H1091 C1100 0.929 . S
C1092 H1086 0.930 . S
C1092 C1093 1.367 . S
C1092 C1100 1.378 . S
C1093 C1092 1.367 . S
C1093 C1101 1.433 . S
C1094 H1090 0.929 . S
C1094 C1096 1.378 . S
C1094 C1098 1.350 . S
C1095 C1098 1.463 1_565 S
C1095 C1100 1.350 . S
C1095 N1103 1.427 . S
C1096 H1087 0.930 . S
C1096 C1094 1.378 . S
C1096 C1097 1.367 . S
C1097 C1096 1.367 . S
C1097 C1099 1.433 . S
C1098 C1094 1.350 . S
C1098 C1095 1.463 1_545 S
C1098 N1102 1.427 . S
C1099 H1089 0.929 . S
C1099 C1097 1.433 . S
C1099 N1102 1.384 . S
C1100 H1091 0.929 . S
C1100 C1092 1.378 . S
C1100 C1095 1.350 . S
C1101 H1088 0.929 . S
C1101 C1093 1.433 . S
C1101 N1103 1.384 . S
N1102 C1098 1.427 . S
N1102 C1099 1.384 . S
N1103 C1095 1.427 . S
N1103 C1101 1.384 . S
H1104 C1110 0.930 . S
H1105 C1114 0.930 . S
H1106 C1119 0.929 . S
H1107 C1117 0.929 . S
H1108 C1112 0.929 . S
H1109 C1118 0.929 . S
C1110 H1104 0.930 . S
C1110 C1111 1.367 . S
C1110 C1118 1.378 . S
C1111 C1110 1.367 . S
C1111 C1119 1.433 . S
C1112 H1108 0.929 . S
C1112 C1114 1.378 . S
C1112 C1116 1.350 . S
C1113 C1116 1.463 . S
C1113 C1118 1.350 . S
C1113 N1121 1.427 . S
C1114 H1105 0.930 . S
C1114 C1112 1.378 . S
C1114 C1115 1.367 . S
C1115 C1114 1.367 . S
C1115 C1117 1.433 . S
C1116 C1112 1.350 . S
C1116 C1113 1.463 . S
C1116 N1120 1.427 . S
C1117 H1107 0.929 . S
C1117 C1115 1.433 . S
C1117 N1120 1.384 . S
C1118 H1109 0.929 . S
C1118 C1110 1.378 . S
C1118 C1113 1.350 . S
C1119 H1106 0.929 . S
C1119 C1111 1.433 . S
C1119 N1121 1.384 . S
N1120 C1116 1.427 . S
N1120 C1117 1.384 . S
N1121 C1113 1.427 . S
N1121 C1119 1.384 . S
H1122 C1128 0.930 . S
H1123 C1132 0.930 . S
H1124 C1137 0.929 . S
H1125 C1135 0.929 . S
H1126 C1130 0.929 . S
H1127 C1136 0.929 . S
C1128 H1122 0.930 . S
C1128 C1129 1.367 . S
C1128 C1136 1.378 . S
C1129 C1128 1.367 . S
C1129 C1137 1.433 . S
C1130 H1126 0.929 . S
C1130 C1132 1.378 . S
C1130 C1134 1.350 . S
C1131 C1134 1.463 1_455 S
C1131 C1136 1.350 . S
C1131 N1139 1.427 . S
C1132 H1123 0.930 . S
C1132 C1130 1.378 . S
C1132 C1133 1.367 . S
C1133 C1132 1.367 . S
C1133 C1135 1.433 . S
C1134 C1130 1.350 . S
C1134 C1131 1.463 1_655 S
C1134 N1138 1.427 . S
C1135 H1125 0.929 . S
C1135 C1133 1.433 . S
C1135 N1138 1.384 . S
C1136 H1127 0.929 . S
C1136 C1128 1.378 . S
C1136 C1131 1.350 . S
C1137 H1124 0.929 . S
C1137 C1129 1.433 . S
C1137 N1139 1.384 . S
N1138 C1134 1.427 . S
N1138 C1135 1.384 . S
N1139 C1131 1.427 . S
N1139 C1137 1.384 . S
C715 C52 1.379 . S
C719 C642 1.376 . S
C733 C111 1.380 . S
C737 C701 1.376 . S
C751 C406 1.378 . S
C755 C170 1.377 . S
C769 C229 1.379 . S
C773 C465 1.377 . S
C787 C524 1.377 . S
C791 C288 1.378 . S
C805 C583 1.380 . S
C809 C347 1.376 1_554 S
C823 C475 1.417 . S
C827 C3 1.419 . S
C841 C62 1.424 . S
C845 C534 1.427 . S
C859 C593 1.425 . S
C863 C121 1.428 . S
C877 C180 1.419 . S
C881 C652 1.418 . S
C895 C239 1.428 . S
C899 C357 1.430 . S
C913 C298 1.422 . S
C917 C416 1.423 . S
C931 C595 1.428 . S
C935 C5 1.429 . S
C949 C654 1.426 . S
C953 C64 1.431 . S
C967 C359 1.429 1_554 S
C971 C123 1.428 . S
C985 C182 1.428 . S
C989 C418 1.432 . S
C1003 C241 1.431 . S
C1007 C477 1.431 . S
C1021 C536 1.427 . S
C1025 C300 1.430 . S
C1039 C33 1.409 . S
C1043 C446 1.411 . S
C1057 C505 1.412 . S
C1061 C92 1.414 . S
C1075 C564 1.413 . S
C1079 C151 1.409 . S
C1093 C210 1.408 . S
C1097 C623 1.412 . S
C1111 C269 1.411 . S
C1115 C682 1.414 . S
C1129 C328 1.413 . S
C1133 C387 1.413 . S
