# Generated by pormake.
# Topology cds-f, (5)-cn, num edge types: 1
# Building blocks:
#     Node 0, Type 0, BuildingBlock: XOMCOT_clean_sbu_0, # of connection points: 5
#     Node 1, Type 0, BuildingBlock: XOMCOT_clean_sbu_0, # of connection points: 5
#     Node 2, Type 0, BuildingBlock: XOMCOT_clean_sbu_0, # of connection points: 5
#     Node 3, Type 0, BuildingBlock: XOMCOT_clean_sbu_0, # of connection points: 5
#     Node 4, Type 0, BuildingBlock: XOMCOT_clean_sbu_0, # of connection points: 5
#     Node 5, Type 0, BuildingBlock: XOMCOT_clean_sbu_0, # of connection points: 5
#     Node 6, Type 0, BuildingBlock: XOMCOT_clean_sbu_0, # of connection points: 5
#     Node 7, Type 0, BuildingBlock: XOMCOT_clean_sbu_0, # of connection points: 5
#     Node 8, Type 0, BuildingBlock: XOMCOT_clean_sbu_0, # of connection points: 5
#     Node 9, Type 0, BuildingBlock: XOMCOT_clean_sbu_0, # of connection points: 5
#     Node 10, Type 0, BuildingBlock: XOMCOT_clean_sbu_0, # of connection points: 5
#     Node 11, Type 0, BuildingBlock: XOMCOT_clean_sbu_0, # of connection points: 5
#     Node 12, Type 0, BuildingBlock: XOMCOT_clean_sbu_0, # of connection points: 5
#     Node 13, Type 0, BuildingBlock: XOMCOT_clean_sbu_0, # of connection points: 5
#     Node 14, Type 0, BuildingBlock: XOMCOT_clean_sbu_0, # of connection points: 5
#     Node 15, Type 0, BuildingBlock: XOMCOT_clean_sbu_0, # of connection points: 5
#     Edge 16, Type (0, 0), BuildingBlock: UVAHIK_clean_linker_0, # of connection points: 2
#     Edge 17, Type (0, 0), BuildingBlock: UVAHIK_clean_linker_0, # of connection points: 2
#     Edge 18, Type (0, 0), BuildingBlock: UVAHIK_clean_linker_0, # of connection points: 2
#     Edge 19, Type (0, 0), BuildingBlock: UVAHIK_clean_linker_0, # of connection points: 2
#     Edge 20, Type (0, 0), BuildingBlock: UVAHIK_clean_linker_0, # of connection points: 2
#     Edge 21, Type (0, 0), BuildingBlock: UVAHIK_clean_linker_0, # of connection points: 2
#     Edge 22, Type (0, 0), BuildingBlock: UVAHIK_clean_linker_0, # of connection points: 2
#     Edge 23, Type (0, 0), BuildingBlock: UVAHIK_clean_linker_0, # of connection points: 2
#     Edge 24, Type (0, 0), BuildingBlock: UVAHIK_clean_linker_0, # of connection points: 2
#     Edge 25, Type (0, 0), BuildingBlock: UVAHIK_clean_linker_0, # of connection points: 2
#     Edge 26, Type (0, 0), BuildingBlock: UVAHIK_clean_linker_0, # of connection points: 2
#     Edge 27, Type (0, 0), BuildingBlock: UVAHIK_clean_linker_0, # of connection points: 2
#     Edge 28, Type (0, 0), BuildingBlock: UVAHIK_clean_linker_0, # of connection points: 2
#     Edge 29, Type (0, 0), BuildingBlock: UVAHIK_clean_linker_0, # of connection points: 2
#     Edge 30, Type (0, 0), BuildingBlock: UVAHIK_clean_linker_0, # of connection points: 2
#     Edge 31, Type (0, 0), BuildingBlock: UVAHIK_clean_linker_0, # of connection points: 2
#     Edge 32, Type (0, 0), BuildingBlock: UVAHIK_clean_linker_0, # of connection points: 2
#     Edge 33, Type (0, 0), BuildingBlock: UVAHIK_clean_linker_0, # of connection points: 2
#     Edge 34, Type (0, 0), BuildingBlock: UVAHIK_clean_linker_0, # of connection points: 2
#     Edge 35, Type (0, 0), BuildingBlock: UVAHIK_clean_linker_0, # of connection points: 2
#     Edge 36, Type (0, 0), BuildingBlock: UVAHIK_clean_linker_0, # of connection points: 2
#     Edge 37, Type (0, 0), BuildingBlock: UVAHIK_clean_linker_0, # of connection points: 2
#     Edge 38, Type (0, 0), BuildingBlock: UVAHIK_clean_linker_0, # of connection points: 2
#     Edge 39, Type (0, 0), BuildingBlock: UVAHIK_clean_linker_0, # of connection points: 2
#     Edge 40, Type (0, 0), BuildingBlock: UVAHIK_clean_linker_0, # of connection points: 2
#     Edge 41, Type (0, 0), BuildingBlock: UVAHIK_clean_linker_0, # of connection points: 2
#     Edge 42, Type (0, 0), BuildingBlock: UVAHIK_clean_linker_0, # of connection points: 2
#     Edge 43, Type (0, 0), BuildingBlock: UVAHIK_clean_linker_0, # of connection points: 2
#     Edge 44, Type (0, 0), BuildingBlock: UVAHIK_clean_linker_0, # of connection points: 2
#     Edge 45, Type (0, 0), BuildingBlock: UVAHIK_clean_linker_0, # of connection points: 2
#     Edge 46, Type (0, 0), BuildingBlock: UVAHIK_clean_linker_0, # of connection points: 2
#     Edge 47, Type (0, 0), BuildingBlock: UVAHIK_clean_linker_0, # of connection points: 2
#     Edge 48, Type (0, 0), BuildingBlock: UVAHIK_clean_linker_0, # of connection points: 2
#     Edge 49, Type (0, 0), BuildingBlock: UVAHIK_clean_linker_0, # of connection points: 2
#     Edge 50, Type (0, 0), BuildingBlock: UVAHIK_clean_linker_0, # of connection points: 2
#     Edge 51, Type (0, 0), BuildingBlock: UVAHIK_clean_linker_0, # of connection points: 2
#     Edge 52, Type (0, 0), BuildingBlock: UVAHIK_clean_linker_0, # of connection points: 2
#     Edge 53, Type (0, 0), BuildingBlock: UVAHIK_clean_linker_0, # of connection points: 2
#     Edge 54, Type (0, 0), BuildingBlock: UVAHIK_clean_linker_0, # of connection points: 2
#     Edge 55, Type (0, 0), BuildingBlock: UVAHIK_clean_linker_0, # of connection points: 2
# Relax obj value: 0.288
# Max RMSD: 0.220
# Mean RMSD: 0.216
data_MOF--net-cds-f--node1-XOMCOT_clean_sbu_0--edge1-UVAHIK_clean_linker_0
_symmetry_space_group_name_H-M    P1
_symmetry_Int_Tables_number       1
_symmetry_cell_setting            triclinic
loop_
_symmetry_equiv_pos_as_xyz
'x, y, z'
_cell_length_a     44.451135
_cell_length_b     44.433979
_cell_length_c     73.847898
_cell_angle_alpha  89.824812
_cell_angle_beta   90.09303
_cell_angle_gamma 93.112248
loop_
_atom_site_label
_atom_site_type_symbol
_atom_site_fract_x
_atom_site_fract_y
_atom_site_fract_z
_atom_type_partial_charge
Co0 Co 0.24653 0.27296 0.11299 0.0
C1 C 0.17825 0.27021 0.11085 0.0
C2 C 0.1974 0.227 0.11187 0.0
C3 C 0.16659 0.22261 0.11166 0.0
N4 N 0.20492 0.25681 0.11128 0.0
N5 N 0.15454 0.24976 0.11104 0.0
H6 H 0.17578 0.29415 0.11084 0.0
H7 H 0.21341 0.20954 0.1125 0.0
C8 C 0.24094 0.24285 0.07748 0.0
O9 O 0.21544 0.2563 0.07609 0.0
N10 N 0.288 0.28809 0.11531 0.0
C11 C 0.297 0.31638 0.12012 0.0
C12 C 0.32794 0.31902 0.11998 0.0
C13 C 0.31359 0.27367 0.11255 0.0
N14 N 0.33839 0.29222 0.11522 0.0
C15 C 0.22404 0.33039 0.1039 0.0
C16 C 0.26021 0.34041 0.07385 0.0
C17 C 0.24499 0.36441 0.08099 0.0
C18 C 0.22581 0.35887 0.09579 0.0
C19 C 0.25762 0.31222 0.08225 0.0
N20 N 0.23986 0.30736 0.09723 0.0
H21 H 0.2122 0.3279 0.11659 0.0
H22 H 0.27244 0.29539 0.07769 0.0
H23 H 0.28206 0.33395 0.12346 0.0
H24 H 0.31404 0.25033 0.10847 0.0
O25 O 0.23754 0.29117 0.13583 0.0
O26 O 0.25244 0.24472 0.13271 0.0
O27 O 0.2575 0.24714 0.09157 0.0
C28 C 0.24405 0.26597 0.14343 0.0
H29 H 0.15403 0.20105 0.11188 0.0
H30 H 0.34171 0.33904 0.1234 0.0
H31 H 0.27568 0.34391 0.06262 0.0
H32 H 0.21444 0.37706 0.10211 0.0
Co33 Co 0.7829 0.2713 0.61206 0.0
C34 C 0.78797 0.33955 0.61266 0.0
C35 C 0.83072 0.31953 0.61273 0.0
C36 C 0.83563 0.35038 0.61314 0.0
N37 N 0.8008 0.31253 0.61253 0.0
N38 N 0.80873 0.36299 0.6131 0.0
H39 H 0.76413 0.34246 0.613 0.0
H40 H 0.84792 0.30322 0.6128 0.0
C41 C 0.80638 0.28047 0.6497 0.0
O42 O 0.79966 0.3088 0.64848 0.0
N43 N 0.76573 0.23031 0.61112 0.0
C44 C 0.73768 0.22188 0.6055 0.0
C45 C 0.73412 0.19099 0.60609 0.0
C46 C 0.77911 0.20435 0.61475 0.0
N47 N 0.76013 0.17993 0.61187 0.0
C48 C 0.7258 0.29794 0.61235 0.0
C49 C 0.70608 0.27367 0.645 0.0
C50 C 0.68568 0.28839 0.63406 0.0
C51 C 0.69611 0.30121 0.61773 0.0
C52 C 0.73568 0.27098 0.63914 0.0
N53 N 0.7454 0.28315 0.62299 0.0
H54 H 0.73262 0.30616 0.59913 0.0
H55 H 0.7498 0.25699 0.64704 0.0
H56 H 0.72108 0.2371 0.60093 0.0
H57 H 0.80221 0.20338 0.61929 0.0
O58 O 0.77249 0.27622 0.58694 0.0
O59 O 0.81576 0.25965 0.59675 0.0
O60 O 0.80106 0.26241 0.63649 0.0
C61 C 0.7986 0.2661 0.58312 0.0
H62 H 0.85739 0.36256 0.61329 0.0
H63 H 0.71419 0.17762 0.602 0.0
H64 H 0.69891 0.26311 0.65763 0.0
H65 H 0.68099 0.31202 0.60855 0.0
Co66 Co 0.77651 0.77595 0.12322 0.0
C67 C 0.84302 0.77575 0.11858 0.0
C68 C 0.82377 0.81164 0.10374 0.0
C69 C 0.85461 0.81429 0.10185 0.0
N70 N 0.81648 0.78748 0.11418 0.0
N71 N 0.8668 0.79184 0.11126 0.0
H72 H 0.84489 0.75662 0.12754 0.0
H73 H 0.80786 0.82688 0.0983 0.0
C74 C 0.73913 0.77835 0.08975 0.0
O75 O 0.72682 0.75192 0.09448 0.0
N76 N 0.73594 0.76554 0.13286 0.0
C77 C 0.72897 0.74822 0.14748 0.0
C78 C 0.69847 0.74789 0.15056 0.0
C79 C 0.70936 0.77716 0.12814 0.0
N80 N 0.68592 0.76595 0.1383 0.0
C81 C 0.77502 0.71119 0.12319 0.0
C82 C 0.78669 0.70438 0.08672 0.0
C83 C 0.77799 0.67895 0.09709 0.0
C84 C 0.77329 0.68247 0.11567 0.0
C85 C 0.78784 0.73287 0.09483 0.0
N86 N 0.77973 0.73612 0.11256 0.0
H87 H 0.77249 0.71322 0.13757 0.0
H88 H 0.79399 0.75244 0.08663 0.0
H89 H 0.74489 0.73737 0.15601 0.0
H90 H 0.70723 0.79424 0.11786 0.0
O91 O 0.79394 0.76802 0.14641 0.0
O92 O 0.77739 0.81222 0.13774 0.0
O93 O 0.75865 0.79182 0.10008 0.0
C94 C 0.78988 0.79605 0.15013 0.0
H95 H 0.86707 0.83169 0.09427 0.0
H96 H 0.68663 0.73523 0.16113 0.0
H97 H 0.79138 0.70242 0.0724 0.0
H98 H 0.76809 0.66313 0.12431 0.0
Co99 Co 0.25605 0.76503 0.61687 0.0
C100 C 0.25096 0.69693 0.61856 0.0
C101 C 0.20887 0.71727 0.62242 0.0
C102 C 0.2038 0.68644 0.62293 0.0
N103 N 0.23851 0.72401 0.61985 0.0
N104 N 0.2303 0.67362 0.62048 0.0
H105 H 0.27447 0.6939 0.61635 0.0
H106 H 0.19199 0.73377 0.62369 0.0
C107 C 0.2357 0.76065 0.6549 0.0
O108 O 0.24699 0.73393 0.65499 0.0
N109 N 0.27284 0.80574 0.61335 0.0
C110 C 0.29912 0.81305 0.60499 0.0
C111 C 0.30345 0.84386 0.60456 0.0
C112 C 0.2613 0.83226 0.61779 0.0
N113 N 0.27975 0.85606 0.61262 0.0
C114 C 0.31374 0.7392 0.61936 0.0
C115 C 0.33334 0.77156 0.64943 0.0
C116 C 0.35377 0.75451 0.6401 0.0
C117 C 0.34353 0.73761 0.62514 0.0
C118 C 0.30366 0.7722 0.64336 0.0
N119 N 0.29388 0.75586 0.62859 0.0
H120 H 0.30739 0.72873 0.60666 0.0
H121 H 0.28948 0.788 0.64972 0.0
H122 H 0.314 0.79702 0.5994 0.0
H123 H 0.24 0.83404 0.62466 0.0
O124 O 0.26629 0.75569 0.59233 0.0
O125 O 0.223 0.77378 0.60093 0.0
O126 O 0.23769 0.77704 0.64063 0.0
C127 C 0.23997 0.76475 0.58788 0.0
H128 H 0.18212 0.67446 0.62454 0.0
H129 H 0.32234 0.85629 0.59834 0.0
H130 H 0.34063 0.78554 0.66078 0.0
H131 H 0.35897 0.72508 0.61715 0.0
Co132 Co 0.2684 0.7805 0.87259 0.0
C133 C 0.33644 0.7858 0.86984 0.0
C134 C 0.31568 0.82759 0.86548 0.0
C135 C 0.34643 0.83272 0.86426 0.0
N136 N 0.30923 0.7981 0.86885 0.0
N137 N 0.35954 0.80641 0.867 0.0
H138 H 0.33974 0.76255 0.87286 0.0
H139 H 0.29902 0.84427 0.86392 0.0
C140 C 0.2717 0.79779 0.83397 0.0
O141 O 0.29846 0.78662 0.83409 0.0
N142 N 0.22785 0.76369 0.87684 0.0
C143 C 0.22099 0.73691 0.88479 0.0
C144 C 0.19028 0.73304 0.88636 0.0
C145 C 0.20111 0.77602 0.87385 0.0
N146 N 0.1776 0.75767 0.87962 0.0
C147 C 0.29467 0.72298 0.87209 0.0
C148 C 0.26177 0.70024 0.84295 0.0
C149 C 0.27864 0.68072 0.85324 0.0
C150 C 0.29593 0.69257 0.86765 0.0
C151 C 0.26136 0.73056 0.84773 0.0
N152 N 0.27779 0.74182 0.86213 0.0
H153 H 0.30544 0.73068 0.88446 0.0
H154 H 0.24554 0.74407 0.84077 0.0
H155 H 0.23725 0.72129 0.88932 0.0
H156 H 0.19906 0.79819 0.86803 0.0
O157 O 0.27833 0.77245 0.8974 0.0
O158 O 0.25971 0.8148 0.88745 0.0
O159 O 0.25562 0.79673 0.84833 0.0
C160 C 0.26917 0.79904 0.90101 0.0
H161 H 0.35814 0.85417 0.86135 0.0
H162 H 0.17833 0.71337 0.89202 0.0
H163 H 0.24763 0.69181 0.83192 0.0
H164 H 0.30843 0.67802 0.87633 0.0
Co165 Co 0.26061 0.25811 0.36766 0.0
C166 C 0.25629 0.19034 0.36561 0.0
C167 C 0.21596 0.20895 0.37541 0.0
C168 C 0.21148 0.17815 0.37487 0.0
N169 N 0.24417 0.21675 0.36984 0.0
N170 N 0.23681 0.16634 0.3687 0.0
H171 H 0.27839 0.18855 0.35988 0.0
H172 H 0.19941 0.22456 0.37937 0.0
C173 C 0.21472 0.27926 0.39462 0.0
O174 O 0.19755 0.29032 0.38204 0.0
N175 N 0.27666 0.29947 0.36545 0.0
C176 C 0.305 0.30775 0.36035 0.0
C177 C 0.30794 0.33865 0.35927 0.0
C178 C 0.26262 0.32557 0.36728 0.0
N179 N 0.28131 0.34992 0.36358 0.0
C180 C 0.31809 0.23343 0.37362 0.0
C181 C 0.32952 0.26006 0.40687 0.0
C182 C 0.35243 0.24489 0.39841 0.0
C183 C 0.34616 0.23085 0.38177 0.0
C184 C 0.30169 0.26208 0.39828 0.0
N185 N 0.29619 0.249 0.38175 0.0
H186 H 0.31488 0.22457 0.36015 0.0
H187 H 0.28556 0.27591 0.40461 0.0
H188 H 0.32231 0.29234 0.35737 0.0
H189 H 0.23912 0.3268 0.37067 0.0
O190 O 0.27565 0.25005 0.34399 0.0
O191 O 0.23006 0.26556 0.34938 0.0
O192 O 0.2392 0.26728 0.39063 0.0
C193 C 0.24997 0.25756 0.33759 0.0
H194 H 0.19108 0.1655 0.37889 0.0
H195 H 0.32825 0.3518 0.35562 0.0
H196 H 0.33344 0.27136 0.4197 0.0
H197 H 0.36343 0.21962 0.37447 0.0
Co198 Co 0.77627 0.24586 0.87275 0.0
C199 C 0.70831 0.2406 0.87033 0.0
C200 C 0.72904 0.19965 0.86377 0.0
C201 C 0.69826 0.19462 0.86262 0.0
N202 N 0.73551 0.22862 0.86836 0.0
N203 N 0.68514 0.22041 0.86676 0.0
H204 H 0.70514 0.26321 0.8747 0.0
H205 H 0.74569 0.18326 0.86134 0.0
C206 C 0.77387 0.23117 0.83357 0.0
O207 O 0.74633 0.24047 0.83366 0.0
N208 N 0.81671 0.26219 0.8776 0.0
C209 C 0.82388 0.28728 0.88719 0.0
C210 C 0.85473 0.29155 0.88783 0.0
C211 C 0.84326 0.2513 0.87265 0.0
N212 N 0.86698 0.26898 0.87868 0.0
C213 C 0.74992 0.3035 0.87326 0.0
C214 C 0.78202 0.32773 0.8442 0.0
C215 C 0.76419 0.34639 0.85435 0.0
C216 C 0.74753 0.33385 0.86884 0.0
C217 C 0.78344 0.29744 0.84892 0.0
N218 N 0.7671 0.28532 0.86313 0.0
H219 H 0.73946 0.29527 0.88561 0.0
H220 H 0.79969 0.2846 0.84195 0.0
H221 H 0.80777 0.30142 0.89339 0.0
H222 H 0.84514 0.23106 0.86471 0.0
O223 O 0.76569 0.25198 0.89765 0.0
O224 O 0.7847 0.21042 0.88693 0.0
O225 O 0.7896 0.23184 0.84811 0.0
C226 C 0.77467 0.22511 0.90071 0.0
H227 H 0.68659 0.17356 0.85887 0.0
H228 H 0.86715 0.30961 0.89484 0.0
H229 H 0.79584 0.3368 0.83319 0.0
H230 H 0.73443 0.34783 0.87746 0.0
Co231 Co 0.77715 0.76554 0.3618 0.0
C232 C 0.77171 0.83133 0.3679 0.0
C233 C 0.80722 0.81327 0.38362 0.0
C234 C 0.80744 0.84385 0.38649 0.0
N235 N 0.78471 0.80535 0.3721 0.0
N236 N 0.78519 0.85532 0.37658 0.0
H237 H 0.75321 0.83265 0.35844 0.0
H238 H 0.82323 0.7981 0.38899 0.0
C239 C 0.77779 0.72715 0.39516 0.0
O240 O 0.75267 0.71318 0.38955 0.0
N241 N 0.77093 0.72519 0.35092 0.0
C242 C 0.75824 0.71853 0.33465 0.0
C243 C 0.75992 0.68824 0.33121 0.0
C244 C 0.78177 0.69871 0.35651 0.0
N245 N 0.77442 0.67573 0.34509 0.0
C246 C 0.71294 0.75835 0.35852 0.0
C247 C 0.69948 0.76919 0.39438 0.0
C248 C 0.67638 0.75892 0.38263 0.0
C249 C 0.68326 0.75454 0.36438 0.0
C250 C 0.72911 0.7725 0.38792 0.0
N251 N 0.73572 0.76512 0.37043 0.0
H252 H 0.71748 0.75575 0.34435 0.0
H253 H 0.74689 0.77986 0.39715 0.0
H254 H 0.74891 0.73457 0.32548 0.0
H255 H 0.79577 0.69612 0.3683 0.0
O256 O 0.77112 0.78397 0.33866 0.0
O257 O 0.81525 0.76989 0.34908 0.0
O258 O 0.79111 0.74755 0.38534 0.0
C259 C 0.79985 0.78203 0.33618 0.0
H260 H 0.82374 0.85678 0.39462 0.0
H261 H 0.7509 0.67628 0.31948 0.0
H262 H 0.69488 0.77363 0.40849 0.0
H263 H 0.66578 0.74811 0.35468 0.0
Co264 Co 0.76646 0.76812 0.87618 0.0
C265 C 0.83489 0.7736 0.87996 0.0
C266 C 0.81401 0.81585 0.878 0.0
C267 C 0.84468 0.82147 0.87845 0.0
N268 N 0.80759 0.78584 0.87877 0.0
N269 N 0.85784 0.79494 0.87956 0.0
H270 H 0.83843 0.74983 0.87986 0.0
H271 H 0.79748 0.83264 0.87642 0.0
C272 C 0.78624 0.78601 0.8393 0.0
O273 O 0.81246 0.776 0.84376 0.0
N274 N 0.72523 0.7518 0.87408 0.0
C275 C 0.71483 0.72421 0.87953 0.0
C276 C 0.68402 0.72211 0.87762 0.0
C277 C 0.70051 0.76635 0.86922 0.0
N278 N 0.67493 0.74861 0.8712 0.0
C279 C 0.79346 0.71109 0.87923 0.0
C280 C 0.77248 0.68872 0.84641 0.0
C281 C 0.78588 0.66927 0.85855 0.0
C282 C 0.79722 0.68092 0.87494 0.0
C283 C 0.76942 0.71872 0.85114 0.0
N284 N 0.7799 0.72976 0.86737 0.0
H285 H 0.80011 0.71906 0.89253 0.0
H286 H 0.75619 0.73216 0.84233 0.0
H287 H 0.72855 0.70711 0.88513 0.0
H288 H 0.70122 0.78959 0.86475 0.0
O289 O 0.76528 0.75883 0.90159 0.0
O290 O 0.75207 0.80205 0.88958 0.0
O291 O 0.76444 0.78466 0.85063 0.0
C292 C 0.75506 0.78536 0.90394 0.0
H293 H 0.85641 0.84342 0.87764 0.0
H294 H 0.66933 0.70295 0.88148 0.0
H295 H 0.76299 0.68043 0.83373 0.0
H296 H 0.80703 0.66639 0.88489 0.0
Co297 Co 0.25948 0.75802 0.36438 0.0
C298 C 0.25322 0.69119 0.36641 0.0
C299 C 0.21508 0.71203 0.37771 0.0
C300 C 0.21051 0.68122 0.37926 0.0
N301 N 0.24187 0.71823 0.36973 0.0
N302 N 0.23453 0.66803 0.3722 0.0
H303 H 0.27486 0.6886 0.3601 0.0
H304 H 0.19987 0.72877 0.38205 0.0
C305 C 0.25944 0.79069 0.40004 0.0
O306 O 0.28536 0.80465 0.39593 0.0
N307 N 0.27661 0.79834 0.35872 0.0
C308 C 0.30217 0.80589 0.34955 0.0
C309 C 0.30518 0.8367 0.34784 0.0
C310 C 0.26381 0.82486 0.36172 0.0
N311 N 0.28119 0.8487 0.3556 0.0
C312 C 0.31942 0.73906 0.36009 0.0
C313 C 0.3355 0.73834 0.3962 0.0
C314 C 0.35801 0.7368 0.383 0.0
C315 C 0.34923 0.73518 0.3648 0.0
C316 C 0.30559 0.74172 0.3908 0.0
N317 N 0.29853 0.74518 0.37289 0.0
H318 H 0.31368 0.73867 0.34591 0.0
H319 H 0.28854 0.74216 0.40112 0.0
H320 H 0.31739 0.79046 0.34386 0.0
H321 H 0.24249 0.82663 0.36858 0.0
O322 O 0.26274 0.74716 0.33934 0.0
O323 O 0.22335 0.76818 0.35148 0.0
O324 O 0.2471 0.77139 0.38918 0.0
C325 C 0.23644 0.75795 0.33719 0.0
H326 H 0.19073 0.66952 0.38496 0.0
H327 H 0.32339 0.84926 0.34101 0.0
H328 H 0.34101 0.73819 0.41048 0.0
H329 H 0.36551 0.73206 0.35416 0.0
Co330 Co 0.2775 0.25625 0.8727 0.0
C331 C 0.20935 0.2508 0.87294 0.0
C332 C 0.22965 0.21452 0.85938 0.0
C333 C 0.19892 0.20949 0.85865 0.0
N334 N 0.23639 0.24053 0.8682 0.0
N335 N 0.18607 0.2323 0.86717 0.0
H336 H 0.2064 0.27083 0.88074 0.0
H337 H 0.24601 0.19992 0.85393 0.0
C338 C 0.29489 0.23117 0.83617 0.0
O339 O 0.30366 0.2059 0.84319 0.0
N340 N 0.3187 0.27104 0.87692 0.0
C341 C 0.32768 0.29537 0.88677 0.0
C342 C 0.35868 0.29772 0.8871 0.0
C343 C 0.34433 0.2586 0.87163 0.0
N344 N 0.36917 0.2746 0.8776 0.0
C345 C 0.25072 0.31235 0.88083 0.0
C346 C 0.27393 0.34368 0.85117 0.0
C347 C 0.25662 0.35887 0.86366 0.0
C348 C 0.2449 0.34277 0.87867 0.0
C349 C 0.27901 0.31334 0.85377 0.0
N350 N 0.26677 0.29764 0.86818 0.0
H351 H 0.24293 0.30088 0.89299 0.0
H352 H 0.29435 0.30329 0.84459 0.0
H353 H 0.31275 0.31014 0.8935 0.0
H354 H 0.34478 0.23827 0.86366 0.0
O355 O 0.27069 0.25455 0.89832 0.0
O356 O 0.28747 0.21697 0.88209 0.0
O357 O 0.28546 0.25179 0.84625 0.0
C358 C 0.2797 0.22732 0.89781 0.0
H359 H 0.187 0.1906 0.85212 0.0
H360 H 0.37243 0.31472 0.89421 0.0
H361 H 0.28475 0.35542 0.83986 0.0
H362 H 0.23174 0.35362 0.88883 0.0
Co363 Co 0.76305 0.26469 0.36786 0.0
C364 C 0.77689 0.33159 0.36539 0.0
C365 C 0.7813 0.31473 0.39245 0.0
C366 C 0.7871 0.34544 0.39268 0.0
N367 N 0.77544 0.30574 0.37529 0.0
N368 N 0.78419 0.35604 0.37571 0.0
H369 H 0.77215 0.33277 0.35105 0.0
H370 H 0.78018 0.30027 0.40424 0.0
C371 C 0.81024 0.25019 0.39431 0.0
O372 O 0.83009 0.26335 0.3833 0.0
N373 N 0.75026 0.22402 0.36065 0.0
C374 C 0.72524 0.21633 0.35106 0.0
C375 C 0.72326 0.18555 0.34888 0.0
C376 C 0.76317 0.19778 0.36426 0.0
N377 N 0.74706 0.17383 0.35719 0.0
C378 C 0.70742 0.29008 0.37687 0.0
C379 C 0.68856 0.24571 0.40135 0.0
C380 C 0.66892 0.2682 0.39681 0.0
C381 C 0.67889 0.29095 0.38467 0.0
C382 C 0.71691 0.24573 0.3933 0.0
N383 N 0.72581 0.2675 0.38107 0.0
H384 H 0.71444 0.30701 0.36698 0.0
H385 H 0.73119 0.22746 0.39635 0.0
H386 H 0.70926 0.23203 0.34623 0.0
H387 H 0.78387 0.19624 0.37185 0.0
O388 O 0.75026 0.27921 0.3447 0.0
O389 O 0.79598 0.26397 0.35071 0.0
O390 O 0.78248 0.24828 0.38995 0.0
C391 C 0.77705 0.2739 0.33891 0.0
H392 H 0.7917 0.35914 0.40457 0.0
H393 H 0.70519 0.17273 0.3421 0.0
H394 H 0.68181 0.22782 0.41074 0.0
H395 H 0.66428 0.30849 0.38057 0.0
Co396 Co 0.74736 0.27848 0.11694 0.0
C397 C 0.67919 0.27152 0.11872 0.0
C398 C 0.70101 0.22989 0.1212 0.0
C399 C 0.67039 0.22379 0.12184 0.0
N400 N 0.70672 0.2598 0.11912 0.0
N401 N 0.65656 0.24996 0.12026 0.0
H402 H 0.67546 0.29509 0.11722 0.0
H403 H 0.71808 0.21347 0.12177 0.0
C404 C 0.73553 0.2459 0.08262 0.0
O405 O 0.70884 0.25717 0.08319 0.0
N406 N 0.78793 0.29628 0.11534 0.0
C407 C 0.79624 0.32527 0.11889 0.0
C408 C 0.82712 0.32873 0.11836 0.0
C409 C 0.81386 0.28239 0.11277 0.0
N410 N 0.83823 0.30179 0.1146 0.0
C411 C 0.71942 0.33387 0.10996 0.0
C412 C 0.74456 0.34404 0.07616 0.0
C413 C 0.73033 0.36754 0.08468 0.0
C414 C 0.71685 0.3618 0.10159 0.0
C415 C 0.74688 0.31652 0.08509 0.0
N416 N 0.73435 0.31151 0.10183 0.0
H417 H 0.71133 0.33115 0.12367 0.0
H418 H 0.76116 0.30044 0.07909 0.0
H419 H 0.78095 0.34254 0.12218 0.0
H420 H 0.81489 0.25843 0.11042 0.0
O421 O 0.74317 0.29699 0.14024 0.0
O422 O 0.76064 0.25182 0.13592 0.0
O423 O 0.7548 0.25246 0.0951 0.0
C424 C 0.75417 0.27305 0.14717 0.0
H425 H 0.65928 0.20158 0.12287 0.0
H426 H 0.8404 0.34947 0.1208 0.0
H427 H 0.75546 0.34739 0.06315 0.0
H428 H 0.70644 0.37943 0.10902 0.0
Co429 Co 0.76918 0.76983 0.61203 0.0
C430 C 0.77577 0.838 0.60802 0.0
C431 C 0.81766 0.81635 0.60767 0.0
C432 C 0.82366 0.84694 0.60639 0.0
N433 N 0.78763 0.81052 0.60882 0.0
N434 N 0.79734 0.86068 0.60667 0.0
H435 H 0.75213 0.84175 0.60887 0.0
H436 H 0.83426 0.79948 0.60838 0.0
C437 C 0.79465 0.78753 0.64781 0.0
O438 O 0.78666 0.81481 0.64399 0.0
N439 N 0.75193 0.72893 0.61457 0.0
C440 C 0.72298 0.71973 0.61159 0.0
C441 C 0.72046 0.68879 0.61212 0.0
C442 C 0.76674 0.70332 0.61663 0.0
N443 N 0.74801 0.67832 0.6151 0.0
C444 C 0.71266 0.79809 0.61281 0.0
C445 C 0.69579 0.77751 0.64685 0.0
C446 C 0.6744 0.79062 0.63587 0.0
C447 C 0.68338 0.80193 0.61889 0.0
C448 C 0.72481 0.77424 0.6403 0.0
N449 N 0.7331 0.78434 0.62342 0.0
H450 H 0.71827 0.80451 0.59905 0.0
H451 H 0.73937 0.76082 0.64822 0.0
H452 H 0.70502 0.73439 0.60853 0.0
H453 H 0.79093 0.70305 0.61819 0.0
O454 O 0.7557 0.77015 0.58738 0.0
O455 O 0.79994 0.7547 0.59628 0.0
O456 O 0.78976 0.76613 0.63642 0.0
C457 C 0.78114 0.75907 0.58309 0.0
H458 H 0.84587 0.85814 0.60603 0.0
H459 H 0.69986 0.67513 0.61005 0.0
H460 H 0.68962 0.76806 0.65995 0.0
H461 H 0.6673 0.81153 0.60979 0.0
Co462 Co 0.27572 0.7692 0.12134 0.0
C463 C 0.34261 0.77642 0.12147 0.0
C464 C 0.32235 0.81391 0.10879 0.0
C465 C 0.35323 0.8185 0.10789 0.0
N466 N 0.31571 0.78746 0.11717 0.0
N467 N 0.366 0.79494 0.11585 0.0
H468 H 0.34499 0.75504 0.12824 0.0
H469 H 0.3059 0.82884 0.10365 0.0
C470 C 0.24322 0.77557 0.08605 0.0
O471 O 0.23053 0.74846 0.08851 0.0
N472 N 0.23519 0.75134 0.12591 0.0
C473 C 0.22749 0.72496 0.13419 0.0
C474 C 0.19667 0.72192 0.13576 0.0
C475 C 0.20868 0.76451 0.12329 0.0
N476 N 0.18466 0.74666 0.12875 0.0
C477 C 0.29325 0.70803 0.12029 0.0
C478 C 0.29883 0.70362 0.08316 0.0
C479 C 0.30025 0.67766 0.0938 0.0
C480 C 0.29886 0.68028 0.11262 0.0
C481 C 0.29409 0.73118 0.0915 0.0
N482 N 0.28837 0.73251 0.10968 0.0
H483 H 0.29217 0.70951 0.13484 0.0
H484 H 0.29464 0.75119 0.0832 0.0
H485 H 0.24285 0.70922 0.13947 0.0
H486 H 0.2071 0.78659 0.11727 0.0
O487 O 0.28684 0.76024 0.14584 0.0
O488 O 0.26605 0.80217 0.13697 0.0
O489 O 0.2619 0.78676 0.09771 0.0
C490 C 0.27615 0.7859 0.15011 0.0
H491 H 0.36535 0.83792 0.102 0.0
H492 H 0.18421 0.70313 0.14208 0.0
H493 H 0.30112 0.70254 0.06858 0.0
H494 H 0.30078 0.66077 0.1213 0.0
Co495 Co 0.26323 0.26573 0.60918 0.0
C496 C 0.2595 0.19862 0.61158 0.0
C497 C 0.22522 0.2191 0.62704 0.0
C498 C 0.22114 0.18833 0.62868 0.0
N499 N 0.24923 0.22554 0.61638 0.0
N500 N 0.24264 0.17541 0.61896 0.0
H501 H 0.27852 0.19611 0.60268 0.0
H502 H 0.21147 0.23571 0.6331 0.0
C503 C 0.27655 0.29443 0.64494 0.0
O504 O 0.30069 0.30757 0.63747 0.0
N505 N 0.27573 0.30695 0.60176 0.0
C506 C 0.28967 0.31574 0.58622 0.0
C507 C 0.29053 0.34661 0.58492 0.0
C508 C 0.26664 0.33295 0.60903 0.0
N509 N 0.27619 0.35755 0.59933 0.0
C510 C 0.32569 0.2596 0.60103 0.0
C511 C 0.34343 0.2431 0.63536 0.0
C512 C 0.36541 0.25196 0.62256 0.0
C513 C 0.35624 0.25862 0.60494 0.0
C514 C 0.31293 0.24453 0.63081 0.0
N515 N 0.30464 0.25568 0.61434 0.0
H516 H 0.31912 0.26405 0.58734 0.0
H517 H 0.29608 0.2383 0.64088 0.0
H518 H 0.2968 0.30101 0.57567 0.0
H519 H 0.25274 0.33383 0.62099 0.0
O520 O 0.26162 0.25342 0.58435 0.0
O521 O 0.22364 0.27265 0.59908 0.0
O522 O 0.25768 0.27896 0.63513 0.0
C523 C 0.23419 0.26199 0.58405 0.0
H524 H 0.20381 0.1764 0.63659 0.0
H525 H 0.29963 0.35983 0.57367 0.0
H526 H 0.34968 0.23673 0.64897 0.0
H527 H 0.37261 0.26386 0.59438 0.0
C528 C 0.87982 0.27278 0.10249 0.0
C529 C 0.86966 0.29526 0.11395 0.0
C530 C 0.91061 0.26757 0.10141 0.0
C531 C 0.98617 0.30407 0.11181 0.0
H532 H 1.01307 0.22302 0.10692 0.0
C533 C 0.11218 0.28081 0.10222 0.0
C534 C 0.12285 0.25538 0.111 0.0
C535 C 0.08129 0.2856 0.10178 0.0
C536 C 1.00599 0.24581 0.10843 0.0
H537 H 0.88368 0.3289 0.13387 0.0
H538 H 0.93692 0.31956 0.13229 0.0
H539 H 0.95935 0.231 0.1081 0.0
H540 H 0.10948 0.21557 0.12667 0.0
H541 H 0.05592 0.22412 0.12621 0.0
H542 H 0.03275 0.3188 0.11283 0.0
C543 C 0.92144 0.30656 0.12364 0.0
C544 C 0.9751 0.25042 0.10885 0.0
C545 C 0.89082 0.31189 0.1246 0.0
C546 C 0.10198 0.23509 0.11951 0.0
C547 C 0.07118 0.23997 0.11919 0.0
C548 C 0.01703 0.29944 0.11149 0.0
C549 C 0.93186 0.28458 0.11189 0.0
C550 C 0.96475 0.2796 0.1107 0.0
C551 C 0.06035 0.26519 0.11023 0.0
C552 C 0.02741 0.27023 0.10993 0.0
H553 H 0.86406 0.25976 0.09403 0.0
H554 H 0.91778 0.25063 0.09208 0.0
H555 H 0.97912 0.32693 0.11293 0.0
H556 H 0.12764 0.29666 0.09536 0.0
H557 H 0.07381 0.30507 0.09455 0.0
C558 C 0.74277 0.12726 0.61829 0.0
C559 C 0.76609 0.14842 0.6135 0.0
C560 C 0.74751 0.09643 0.61848 0.0
C561 C 0.79473 0.04042 0.59807 0.0
H562 H 0.76174 0.98797 0.63601 0.0
C563 C 0.81675 0.91319 0.60062 0.0
C564 C 0.79361 0.89289 0.60688 0.0
C565 C 0.81398 0.94436 0.60165 0.0
C566 C 0.77075 1.00217 0.62515 0.0
H567 H 0.81288 0.15378 0.60544 0.0
H568 H 0.82126 0.09966 0.6057 0.0
H569 H 0.75675 0.04221 0.63805 0.0
H570 H 0.74906 0.89008 0.61897 0.0
H571 H 0.74381 0.94422 0.62015 0.0
H572 H 0.80815 1.00046 0.58492 0.0
C573 C 0.79923 0.10706 0.60928 0.0
C574 C 0.76802 0.03334 0.62639 0.0
C575 C 0.79456 0.13804 0.6093 0.0
C576 C 0.76732 0.90478 0.61387 0.0
C577 C 0.76447 0.936 0.61479 0.0
C578 C 0.79727 1.00922 0.59675 0.0
C579 C 0.77566 0.08587 0.61372 0.0
C580 C 0.77988 0.05285 0.61284 0.0
C581 C 0.78788 0.95626 0.60884 0.0
C582 C 0.78523 0.9896 0.61024 0.0
H583 H 0.72068 0.13459 0.62176 0.0
H584 H 0.72881 0.08077 0.62184 0.0
H585 H 0.80371 0.05476 0.58726 0.0
H586 H 0.83718 0.90509 0.59491 0.0
H587 H 0.83265 0.95911 0.59708 0.0
C588 C 0.91995 0.8119 0.11225 0.0
C589 C 0.89861 0.78742 0.11371 0.0
C590 C 0.95078 0.80779 0.11424 0.0
C591 C 1.00532 0.75432 0.1322 0.0
H592 H 0.06183 0.79998 0.10137 0.0
C593 C 0.13105 0.7278 0.12793 0.0
C594 C 0.15283 0.75203 0.1272 0.0
C595 C 0.10029 0.73265 0.12658 0.0
C596 C 0.04642 0.78731 0.11024 0.0
H597 H 0.8933 0.73931 0.11848 0.0
H598 H 0.94714 0.732 0.12179 0.0
H599 H 1.00799 0.80678 0.09839 0.0
H600 H 0.15871 0.8006 0.12436 0.0
H601 H 0.105 0.80902 0.12185 0.0
H602 H 0.0438 0.73464 0.14391 0.0
C603 C 0.93995 0.75455 0.11935 0.0
C604 C 1.01545 0.7912 0.10855 0.0
C605 C 0.90901 0.75871 0.11743 0.0
C606 C 0.1428 0.78131 0.12484 0.0
C607 C 0.11192 0.78616 0.1234 0.0
C608 C 0.03628 0.75035 0.13384 0.0
C609 C 0.96132 0.77904 0.1177 0.0
C610 C 0.99441 0.77476 0.11949 0.0
C611 C 0.09023 0.76187 0.12434 0.0
C612 C 0.05727 0.76674 0.12286 0.0
H613 H 0.91286 0.83446 0.1098 0.0
H614 H 0.96635 0.82733 0.11327 0.0
H615 H 0.98997 0.74164 0.1411 0.0
H616 H 0.13765 0.70484 0.12929 0.0
H617 H 0.08437 0.71332 0.12698 0.0
C618 C 0.3003 0.90887 0.61449 0.0
C619 C 0.27538 0.88792 0.61461 0.0
C620 C 0.29636 0.93982 0.61524 0.0
C621 C 0.23972 0.99645 0.60672 0.0
H622 H 0.29664 0.04929 0.63298 0.0
C623 C 0.22126 0.12284 0.61849 0.0
C624 C 0.24634 0.14345 0.61713 0.0
C625 C 0.22475 0.0918 0.61775 0.0
C626 C 0.28076 0.0349 0.6254 0.0
H627 H 0.22665 0.88343 0.61603 0.0
H628 H 0.21973 0.93754 0.61778 0.0
H629 H 0.30204 0.99502 0.63361 0.0
H630 H 0.29476 0.14744 0.61366 0.0
H631 H 0.30092 0.09306 0.61226 0.0
H632 H 0.2183 0.03643 0.59866 0.0
C633 C 0.24239 0.92992 0.61676 0.0
C634 C 0.28381 1.00371 0.62577 0.0
C635 C 0.24636 0.89883 0.61598 0.0
C636 C 0.27499 0.1322 0.61465 0.0
C637 C 0.27853 0.10104 0.61404 0.0
C638 C 0.23658 0.02764 0.60642 0.0
C639 C 0.26737 0.95085 0.61624 0.0
C640 C 0.26341 0.98403 0.61638 0.0
C641 C 0.25345 0.08045 0.61571 0.0
C642 C 0.25711 0.04728 0.61572 0.0
H643 H 0.32302 0.90141 0.61376 0.0
H644 H 0.31614 0.95512 0.61462 0.0
H645 H 0.22387 0.98212 0.59907 0.0
H646 H 0.19883 0.13071 0.62016 0.0
H647 H 0.20498 0.07665 0.61921 0.0
C648 C 0.90899 0.81079 0.86885 0.0
C649 C 0.88979 0.7906 0.87871 0.0
C650 C 0.94003 0.8072 0.86825 0.0
C651 C 0.99823 0.75154 0.87722 0.0
H652 H 0.05255 0.8229 0.87715 0.0
C653 C 0.12556 0.74614 0.89066 0.0
C654 C 0.14568 0.76286 0.87926 0.0
C655 C 0.0946 0.7499 0.88992 0.0
C656 C 0.03768 0.80277 0.87697 0.0
H657 H 0.88821 0.75071 0.89562 0.0
H658 H 0.94256 0.74471 0.89499 0.0
H659 H 0.99824 0.82827 0.87753 0.0
H660 H 0.14843 0.79727 0.85834 0.0
H661 H 0.09418 0.80425 0.85734 0.0
H662 H 0.03783 0.72611 0.87713 0.0
C663 C 0.93357 0.76305 0.88737 0.0
C664 C 1.00646 0.80579 0.87715 0.0
C665 C 0.90239 0.76648 0.88781 0.0
C666 C 0.13382 0.78411 0.8674 0.0
C667 C 0.10269 0.78807 0.86679 0.0
C668 C 0.02942 0.74854 0.87722 0.0
C669 C 0.95289 0.78346 0.87763 0.0
C670 C 0.98624 0.78021 0.87732 0.0
C671 C 0.0827 0.77072 0.87792 0.0
C672 C 0.04953 0.7741 0.87717 0.0
H673 H 0.89995 0.82923 0.86137 0.0
H674 H 0.95389 0.82296 0.86023 0.0
H675 H 0.98354 0.7313 0.87697 0.0
H676 H 0.13361 0.73016 0.90035 0.0
H677 H 0.07994 0.73665 0.89896 0.0
C678 C 0.30072 0.90172 0.35801 0.0
C679 C 0.27614 0.88043 0.35728 0.0
C680 C 0.2962 0.93251 0.35929 0.0
C681 C 0.24031 0.98903 0.35022 0.0
H682 H 0.29088 0.03933 0.38205 0.0
C683 C 0.21703 0.11369 0.36399 0.0
C684 C 0.24165 0.13466 0.3662 0.0
C685 C 0.22135 0.08286 0.36255 0.0
C686 C 0.27684 0.02574 0.37288 0.0
H687 H 0.22742 0.87501 0.35742 0.0
H688 H 0.21943 0.92898 0.35975 0.0
H689 H 0.29756 0.98529 0.38076 0.0
H690 H 0.29034 0.13927 0.36832 0.0
H691 H 0.29798 0.08555 0.36532 0.0
H692 H 0.21976 0.02945 0.3422 0.0
C693 C 0.24227 0.9217 0.3592 0.0
C694 C 0.2806 0.99469 0.3722 0.0
C695 C 0.24682 0.89077 0.35804 0.0
C696 C 0.27084 0.12391 0.36653 0.0
C697 C 0.27519 0.09299 0.36504 0.0
C698 C 0.23664 0.02012 0.35084 0.0
C699 C 0.26694 0.94296 0.35983 0.0
C700 C 0.26239 0.97593 0.36086 0.0
C701 C 0.25046 0.07201 0.36317 0.0
C702 C 0.25483 0.03893 0.3622 0.0
H703 H 0.3236 0.89457 0.35771 0.0
H704 H 0.31571 0.9482 0.35958 0.0
H705 H 0.22622 0.97534 0.34113 0.0
H706 H 0.19424 0.12101 0.36339 0.0
H707 H 0.20172 0.06748 0.36131 0.0
C708 C 0.91969 0.28979 0.87689 0.0
C709 C 0.89879 0.26486 0.87632 0.0
C710 C 0.95061 0.28596 0.87555 0.0
C711 C 1.00755 0.22925 0.88202 0.0
H712 H 0.05899 0.28646 0.85495 0.0
C713 C 0.13351 0.21079 0.86878 0.0
C714 C 0.15411 0.23598 0.86925 0.0
C715 C 0.10249 0.21427 0.86987 0.0
C716 C 0.04503 0.27049 0.86278 0.0
H717 H 0.89426 0.21628 0.87361 0.0
H718 H 0.94832 0.20958 0.87101 0.0
H719 H 1.00476 0.29208 0.85562 0.0
H720 H 0.15792 0.28468 0.87147 0.0
H721 H 0.10378 0.29073 0.87373 0.0
H722 H 0.04783 0.2077 0.88922 0.0
C723 C 0.94069 0.23213 0.87272 0.0
C724 C 1.01387 0.27367 0.86312 0.0
C725 C 0.90966 0.23598 0.87401 0.0
C726 C 0.1428 0.26476 0.87119 0.0
C727 C 0.11169 0.26825 0.87226 0.0
C728 C 0.03872 0.22607 0.88169 0.0
C729 C 0.96159 0.25708 0.87358 0.0
C730 C 0.99471 0.25313 0.87278 0.0
C731 C 0.0911 0.24304 0.87149 0.0
C732 C 0.0579 0.24667 0.87207 0.0
H733 H 0.91218 0.3124 0.8784 0.0
H734 H 0.96596 0.30568 0.87643 0.0
H735 H 0.99358 0.2133 0.88985 0.0
H736 H 0.14132 0.18825 0.86756 0.0
H737 H 0.08739 0.19435 0.86907 0.0
C738 C 0.7678 0.13078 0.37374 0.0
C739 C 0.75281 0.14216 0.35862 0.0
C740 C 0.77148 0.09974 0.37556 0.0
C741 C 0.7401 0.02538 0.35868 0.0
H742 H 0.81259 0.9956 0.37985 0.0
C743 C 0.76586 0.89823 0.3591 0.0
C744 C 0.77921 0.88694 0.37484 0.0
C745 C 0.7621 0.92923 0.35707 0.0
C746 C 0.79205 1.00352 0.37407 0.0
H747 H 0.7312 0.12984 0.33317 0.0
H748 H 0.73793 0.07609 0.33617 0.0
H749 H 0.808 0.04971 0.37633 0.0
H750 H 0.79771 0.89957 0.40111 0.0
H751 H 0.79128 0.95325 0.39755 0.0
H752 H 0.72429 0.9791 0.35631 0.0
C753 C 0.74611 0.0909 0.34692 0.0
C754 C 0.78939 0.03463 0.37207 0.0
C755 C 0.74232 0.12183 0.34516 0.0
C756 C 0.78796 0.9074 0.38864 0.0
C757 C 0.78429 0.93829 0.38659 0.0
C758 C 0.74282 0.99426 0.36061 0.0
C759 C 0.7604 0.0793 0.36225 0.0
C760 C 0.76336 0.04606 0.36436 0.0
C761 C 0.77163 0.94972 0.37071 0.0
C762 C 0.76879 0.98289 0.36839 0.0
H763 H 0.77588 0.14574 0.38443 0.0
H764 H 0.78231 0.09171 0.38765 0.0
H765 H 0.71947 0.03323 0.35298 0.0
H766 H 0.75912 0.88328 0.34811 0.0
H767 H 0.75246 0.93724 0.34459 0.0
C768 C 0.28348 0.40586 0.07418 0.0
C769 C 0.25298 0.39582 0.07524 0.0
C770 C 0.29154 0.43639 0.07176 0.0
C771 C 0.26663 0.50978 0.05745 0.0
H772 H 0.31564 0.54103 0.09733 0.0
C773 C 0.27551 0.636 0.07591 0.0
C774 C 0.30072 0.64751 0.08557 0.0
C775 C 0.27295 0.60556 0.07112 0.0
C776 C 0.30266 0.53285 0.08577 0.0
H777 H 0.20705 0.40957 0.0736 0.0
H778 H 0.22125 0.46319 0.069 0.0
H779 H 0.30487 0.48717 0.09468 0.0
H780 H 0.34395 0.6373 0.09678 0.0
H781 H 0.34063 0.58457 0.08742 0.0
H782 H 0.26467 0.55538 0.04834 0.0
C783 C 0.2388 0.4473 0.07011 0.0
C784 C 0.2963 0.50187 0.08437 0.0
C785 C 0.2307 0.41674 0.07283 0.0
C786 C 0.32428 0.62875 0.08935 0.0
C787 C 0.3221 0.59848 0.08418 0.0
C788 C 0.27351 0.54085 0.05862 0.0
C789 C 0.2693 0.45745 0.07011 0.0
C790 C 0.27786 0.49009 0.07038 0.0
C791 C 0.29586 0.58614 0.07564 0.0
C792 C 0.29118 0.55289 0.07302 0.0
H793 H 0.30117 0.39036 0.07626 0.0
H794 H 0.3152 0.4437 0.07177 0.0
H795 H 0.25248 0.50113 0.04647 0.0
H796 H 0.25692 0.6501 0.07308 0.0
H797 H 0.25222 0.59706 0.06481 0.0
C798 C 0.41321 0.23416 0.63633 0.0
C799 C 0.39756 0.25662 0.62755 0.0
C800 C 0.44418 0.2386 0.63974 0.0
C801 C 0.51027 0.28477 0.62302 0.0
H802 H 0.55021 0.25535 0.66576 0.0
C803 C 0.63584 0.31238 0.6346 0.0
C804 C 0.65302 0.2875 0.63843 0.0
C805 C 0.60448 0.30996 0.63601 0.0
C806 C 0.5393 0.26362 0.65375 0.0
H807 H 0.40121 0.30195 0.6166 0.0
H808 H 0.45467 0.31004 0.62292 0.0
H809 H 0.49538 0.24803 0.66289 0.0
H810 H 0.65072 0.24096 0.64759 0.0
H811 H 0.59598 0.2369 0.65019 0.0
H812 H 0.55393 0.30028 0.61382 0.0
C813 C 0.44361 0.28858 0.62659 0.0
C814 C 0.50796 0.25933 0.65206 0.0
C815 C 0.41295 0.28401 0.62302 0.0
C816 C 0.63823 0.26069 0.64474 0.0
C817 C 0.60683 0.25831 0.6462 0.0
C818 C 0.5414 0.28922 0.62476 0.0
C819 C 0.45982 0.2657 0.63458 0.0
C820 C 0.49308 0.26994 0.63667 0.0
C821 C 0.5896 0.28264 0.64131 0.0
C822 C 0.55629 0.27876 0.64013 0.0
H823 H 0.40174 0.21288 0.63999 0.0
H824 H 0.45601 0.22046 0.64584 0.0
H825 H 0.49974 0.29254 0.61075 0.0
H826 H 0.6466 0.33349 0.63001 0.0
H827 H 0.59179 0.32927 0.63246 0.0
C828 C 0.71004 0.41879 0.07995 0.0
C829 C 0.73315 0.39886 0.07739 0.0
C830 C 0.71481 0.44946 0.07601 0.0
C831 C 0.77777 0.50661 0.07353 0.0
H832 H 0.71407 0.55924 0.0611 0.0
C833 C 0.79466 0.63625 0.07795 0.0
C834 C 0.7727 0.64889 0.08878 0.0
C835 C 0.79022 0.60666 0.0716 0.0
C836 C 0.73214 0.54478 0.06447 0.0
H837 H 0.7789 0.39552 0.06755 0.0
H838 H 0.78664 0.44855 0.05998 0.0
H839 H 0.70524 0.50473 0.05823 0.0
H840 H 0.72833 0.64147 0.10058 0.0
H841 H 0.72048 0.59008 0.08945 0.0
H842 H 0.80436 0.54666 0.0802 0.0
C843 C 0.76507 0.44063 0.06549 0.0
C844 C 0.72706 0.51357 0.06291 0.0
C845 C 0.76041 0.41003 0.06959 0.0
C846 C 0.74572 0.63208 0.0924 0.0
C847 C 0.74111 0.6028 0.08587 0.0
C848 C 0.78291 0.53781 0.07494 0.0
C849 C 0.74274 0.46092 0.06925 0.0
C850 C 0.7495 0.49405 0.06798 0.0
C851 C 0.76352 0.58955 0.07571 0.0
C852 C 0.75983 0.55715 0.07098 0.0
H853 H 0.6886 0.41091 0.08566 0.0
H854 H 0.6971 0.46437 0.07921 0.0
H855 H 0.79548 0.49237 0.07781 0.0
H856 H 0.81565 0.64882 0.07499 0.0
H857 H 0.80782 0.59698 0.06375 0.0
C858 C 0.62369 0.81271 0.63832 0.0
C859 C 0.64211 0.78833 0.64088 0.0
C860 C 0.59263 0.80917 0.64138 0.0
C861 C 0.53178 0.75172 0.63907 0.0
H862 H 0.48517 0.80731 0.66626 0.0
C863 C 0.40344 0.73196 0.64563 0.0
C864 C 0.38632 0.75749 0.64434 0.0
C865 C 0.43467 0.73516 0.64793 0.0
C866 C 0.49779 0.79173 0.65845 0.0
H867 H 0.64257 0.74128 0.64878 0.0
H868 H 0.58845 0.73515 0.65399 0.0
H869 H 0.53998 0.81505 0.66493 0.0
H870 H 0.38821 0.80631 0.64452 0.0
H871 H 0.44261 0.81201 0.64792 0.0
H872 H 0.48998 0.72911 0.63182 0.0
C873 C 0.59803 0.75698 0.64976 0.0
C874 C 0.52916 0.79615 0.65777 0.0
C875 C 0.62902 0.7606 0.64694 0.0
C876 C 0.40086 0.78624 0.64577 0.0
C877 C 0.43208 0.78947 0.64778 0.0
C878 C 0.50047 0.74755 0.63951 0.0
C879 C 0.5795 0.78107 0.64675 0.0
C880 C 0.54639 0.7762 0.64804 0.0
C881 C 0.44949 0.76399 0.64863 0.0
C882 C 0.48299 0.76755 0.64914 0.0
H883 H 0.63324 0.8343 0.63366 0.0
H884 H 0.57874 0.82804 0.63886 0.0
H885 H 0.54456 0.73625 0.63126 0.0
H886 H 0.39268 0.70956 0.64467 0.0
H887 H 0.44721 0.715 0.64892 0.0
C888 C 0.25455 0.41093 0.8767 0.0
C889 C 0.253 0.39178 0.86156 0.0
C890 C 0.2543 0.44216 0.8745 0.0
C891 C 0.27568 0.50115 0.84207 0.0
H892 H 0.22824 0.55191 0.87218 0.0
C893 C 0.24588 0.63372 0.84931 0.0
C894 C 0.27493 0.64768 0.85068 0.0
C895 C 0.24183 0.60237 0.84907 0.0
C896 C 0.24145 0.53798 0.86359 0.0
H897 H 0.24824 0.39049 0.8323 0.0
H898 H 0.24858 0.44506 0.82849 0.0
H899 H 0.22217 0.49707 0.87518 0.0
H900 H 0.32256 0.6399 0.85222 0.0
H901 H 0.31548 0.58485 0.85155 0.0
H902 H 0.29541 0.54209 0.83074 0.0
C903 C 0.25023 0.4358 0.84202 0.0
C904 C 0.23812 0.50668 0.8654 0.0
C905 C 0.25012 0.40458 0.84423 0.0
C906 C 0.29994 0.62968 0.85117 0.0
C907 C 0.29589 0.59827 0.8507 0.0
C908 C 0.2793 0.53247 0.84043 0.0
C909 C 0.25278 0.45488 0.85711 0.0
C910 C 0.25527 0.48799 0.85469 0.0
C911 C 0.26676 0.58435 0.85001 0.0
C912 C 0.26228 0.55116 0.85121 0.0
H913 H 0.25723 0.40196 0.89022 0.0
H914 H 0.25652 0.45642 0.88635 0.0
H915 H 0.28937 0.48722 0.83377 0.0
H916 H 0.22616 0.64702 0.84918 0.0
H917 H 0.21915 0.59218 0.84841 0.0
C918 C 0.62052 0.23887 0.40345 0.0
C919 C 0.63739 0.26655 0.40346 0.0
C920 C 0.59 0.23752 0.40794 0.0
C921 C 0.52527 0.28532 0.40764 0.0
H922 H 0.48485 0.21571 0.43061 0.0
C923 C 0.39647 0.27424 0.41208 0.0
C924 C 0.38364 0.24666 0.40567 0.0
C925 C 0.4271 0.27732 0.41632 0.0
C926 C 0.49585 0.2353 0.4242 0.0
H927 H 0.63587 0.31428 0.4091 0.0
H928 H 0.58249 0.31191 0.41712 0.0
H929 H 0.53986 0.22047 0.43006 0.0
H930 H 0.39247 0.20017 0.39985 0.0
H931 H 0.44608 0.20564 0.40703 0.0
H932 H 0.4814 0.29978 0.40137 0.0
C933 C 0.59278 0.29132 0.41331 0.0
C934 C 0.52733 0.23802 0.42385 0.0
C935 C 0.62333 0.29269 0.40874 0.0
C936 C 0.40178 0.22178 0.40457 0.0
C937 C 0.43242 0.22485 0.40886 0.0
C938 C 0.49386 0.28266 0.40806 0.0
C939 C 0.5756 0.2638 0.4126 0.0
C940 C 0.5424 0.26273 0.41519 0.0
C941 C 0.44558 0.25289 0.41427 0.0
C942 C 0.47879 0.25731 0.41599 0.0
H943 H 0.63056 0.21839 0.39918 0.0
H944 H 0.5774 0.21603 0.40693 0.0
H945 H 0.53606 0.30439 0.4006 0.0
H946 H 0.38323 0.29394 0.41292 0.0
H947 H 0.43654 0.29911 0.42066 0.0
C948 C 0.80989 0.61939 0.85797 0.0
C949 C 0.78458 0.63641 0.85513 0.0
C950 C 0.80775 0.58809 0.85573 0.0
C951 C 0.75362 0.52413 0.85904 0.0
H952 H 0.81086 0.48089 0.83099 0.0
C953 C 0.73947 0.39542 0.8507 0.0
C954 C 0.76577 0.37936 0.8513 0.0
C955 C 0.7413 0.42684 0.84919 0.0
C956 C 0.79487 0.49255 0.83907 0.0
H957 H 0.73722 0.63416 0.84786 0.0
H958 H 0.73346 0.57953 0.84415 0.0
H959 H 0.81586 0.53584 0.83252 0.0
H960 H 0.81455 0.38337 0.85086 0.0
H961 H 0.81788 0.43807 0.84881 0.0
H962 H 0.73323 0.48119 0.86625 0.0
C963 C 0.75496 0.59039 0.84793 0.0
C964 C 0.79772 0.52401 0.83986 0.0
C965 C 0.75719 0.62164 0.8499 0.0
C966 C 0.7939 0.3952 0.85012 0.0
C967 C 0.79577 0.42659 0.84889 0.0
C968 C 0.75101 0.49271 0.85848 0.0
C969 C 0.78013 0.57331 0.85096 0.0
C970 C 0.77712 0.54005 0.84986 0.0
C971 C 0.7695 0.44289 0.8486 0.0
C972 C 0.77162 0.47646 0.84851 0.0
H973 H 0.83123 0.63029 0.86201 0.0
H974 H 0.82743 0.57534 0.85825 0.0
H975 H 0.73765 0.53599 0.86703 0.0
H976 H 0.71751 0.38367 0.85148 0.0
H977 H 0.72057 0.43853 0.84863 0.0
C978 C 0.40209 0.72284 0.40248 0.0
C979 C 0.39059 0.73856 0.38765 0.0
C980 C 0.43327 0.72343 0.40566 0.0
C981 C 0.50265 0.72984 0.38028 0.0
H982 H 0.54487 0.75389 0.42437 0.0
C983 C 0.6298 0.72524 0.38381 0.0
C984 C 0.64516 0.75229 0.38902 0.0
C985 C 0.59917 0.72031 0.38737 0.0
C986 C 0.53329 0.747 0.41203 0.0
H987 H 0.40254 0.7692 0.36552 0.0
H988 H 0.45647 0.76949 0.37078 0.0
H989 H 0.4894 0.75228 0.4235 0.0
H990 H 0.64114 0.79451 0.40315 0.0
H991 H 0.58704 0.78608 0.4092 0.0
H992 H 0.54591 0.72517 0.36853 0.0
C993 C 0.44156 0.75639 0.37975 0.0
C994 C 0.50168 0.74589 0.41158 0.0
C995 C 0.41067 0.75601 0.37669 0.0
C996 C 0.62975 0.77349 0.39898 0.0
C997 C 0.59888 0.76861 0.40248 0.0
C998 C 0.53397 0.73061 0.38077 0.0
C999 C 0.45321 0.73963 0.39399 0.0
C1000 C 0.48622 0.73785 0.39556 0.0
C1001 C 0.58311 0.74241 0.39612 0.0
C1002 C 0.54971 0.73955 0.39654 0.0
H1003 H 0.38717 0.70931 0.41121 0.0
H1004 H 0.44186 0.71035 0.41674 0.0
H1005 H 0.4912 0.72346 0.36779 0.0
H1006 H 0.64134 0.70826 0.37644 0.0
H1007 H 0.58775 0.69964 0.38264 0.0
C1008 C 0.22999 0.21513 0.04887 0.0
C1009 C 0.25133 0.22605 0.06161 0.0
C1010 C 0.23907 0.20345 0.03239 0.0
C1011 C 0.30117 0.21254 0.00024 0.0
H1012 H 0.251 0.15418 0.9733 0.0
C1013 C 0.30931 0.20493 0.9226 0.0
C1014 C 0.28131 0.21004 0.91471 0.0
C1015 C 0.311 0.19648 0.94087 0.0
C1016 C 0.26548 0.17026 0.98068 0.0
H1017 H 0.29904 0.23179 0.06753 0.0
H1018 H 0.31513 0.21123 0.03849 0.0
H1019 H 0.24498 0.15804 0.00605 0.0
H1020 H 0.23321 0.20908 0.91908 0.0
H1021 H 0.2359 0.19337 0.9507 0.0
H1022 H 0.32074 0.22559 0.97473 0.0
C1023 C 0.29127 0.21191 0.04129 0.0
C1024 C 0.26198 0.17258 -0.00057 0.0
C1025 C 0.28209 0.22347 0.05795 0.0
C1026 C 0.25497 0.20466 0.92486 0.0
C1027 C 0.25657 0.19569 0.94295 0.0
C1028 C 0.30483 0.21003 0.98149 0.0
C1029 C 0.26981 0.20243 0.02813 0.0
C1030 C 0.27874 0.19476 0.00931 0.0
C1031 C 0.28465 0.19265 0.95137 0.0
C1032 C 0.28607 0.18982 0.97141 0.0
H1033 H 0.2061 0.21664 0.05133 0.0
H1034 H 0.22185 0.19683 0.02258 0.0
H1035 H 0.31435 0.22999 0.00735 0.0
H1036 H 0.32993 0.20964 0.91506 0.0
H1037 H 0.33292 0.19432 0.94702 0.0
C1038 C 0.84649 0.2524 0.42057 0.0
C1039 C 0.81849 0.24265 0.41317 0.0
C1040 C 0.85196 0.24938 0.43918 0.0
C1041 C 0.81966 0.21379 0.48153 0.0
H1042 H 0.85427 0.28591 0.50467 0.0
C1043 C 0.78461 0.25599 0.55103 0.0
C1044 C 0.80722 0.26054 0.56419 0.0
C1045 C 0.7921 0.2499 0.53314 0.0
C1046 C 0.84508 0.26543 0.49837 0.0
H1047 H 0.77505 0.22032 0.41931 0.0
H1048 H 0.78417 0.21573 0.45142 0.0
H1049 H 0.85699 0.28101 0.47176 0.0
H1050 H 0.8554 0.2627 0.56899 0.0
H1051 H 0.86861 0.2532 0.53719 0.0
H1052 H 0.80571 0.19946 0.50811 0.0
C1053 C 0.80221 0.22535 0.44304 0.0
C1054 C 0.84671 0.26249 0.47953 0.0
C1055 C 0.79683 0.22826 0.42454 0.0
C1056 C 0.83757 0.25922 0.55907 0.0
C1057 C 0.84512 0.25383 0.54098 0.0
C1058 C 0.8176 0.21699 0.50028 0.0
C1059 C 0.82955 0.23652 0.45073 0.0
C1060 C 0.83307 0.23708 0.47081 0.0
C1061 C 0.82236 0.24885 0.52795 0.0
C1062 C 0.82953 0.24319 0.50877 0.0
H1063 H 0.8637 0.26351 0.41217 0.0
H1064 H 0.87344 0.25783 0.44458 0.0
H1065 H 0.80962 0.19356 0.47537 0.0
H1066 H 0.76103 0.25668 0.55461 0.0
H1067 H 0.77421 0.24638 0.52326 0.0
C1068 C 0.7511 0.82508 0.92775 0.0
C1069 C 0.74632 0.79505 0.92211 0.0
C1070 C 0.74516 0.833 0.94572 0.0
C1071 C 0.70233 0.81008 0.98605 0.0
H1072 H 0.77362 0.83201 0.01438 0.0
C1073 C 0.71399 0.77398 0.05957 0.0
C1074 C 0.73287 0.79063 0.07157 0.0
C1075 C 0.71092 0.78325 0.04164 0.0
C1076 C 0.75321 0.82676 0.00673 0.0
H1077 H 0.73026 0.75013 0.93024 0.0
H1078 H 0.71894 0.76412 0.9613 0.0
H1079 H 0.77622 0.83335 0.9814 0.0
H1080 H 0.76192 0.83118 0.07444 0.0
H1081 H 0.75609 0.84774 0.04312 0.0
H1082 H 0.67936 0.80272 0.01121 0.0
C1083 C 0.7276 0.78143 0.95202 0.0
C1084 C 0.75479 0.8275 0.98782 0.0
C1085 C 0.73428 0.77341 0.93433 0.0
C1086 C 0.74736 0.81771 0.06549 0.0
C1087 C 0.74414 0.82712 0.04751 0.0
C1088 C 0.70059 0.80979 0.00492 0.0
C1089 C 0.73347 0.81113 0.95798 0.0
C1090 C 0.72971 0.8179 0.97738 0.0
C1091 C 0.72645 0.80959 0.03524 0.0
C1092 C 0.7264 0.81668 0.01551 0.0
H1093 H 0.76051 0.84208 0.91852 0.0
H1094 H 0.75001 0.85599 0.9501 0.0
H1095 H 0.68265 0.80277 0.97821 0.0
H1096 H 0.70245 0.75303 0.06378 0.0
H1097 H 0.69752 0.76881 0.0326 0.0
C1098 C 0.26187 0.81159 0.43152 0.0
C1099 C 0.2469 0.79334 0.41847 0.0
C1100 C 0.25208 0.81104 0.44949 0.0
C1101 C 0.21491 0.75854 0.4812 0.0
H1102 H 0.22102 0.82673 0.51391 0.0
C1103 C 0.20928 0.78584 0.56286 0.0
C1104 C 0.23086 0.766 0.56874 0.0
C1105 C 0.20354 0.78934 0.54435 0.0
C1106 C 0.21867 0.80755 0.5049 0.0
H1107 H 0.20865 0.76177 0.4138 0.0
H1108 H 0.19168 0.76088 0.44514 0.0
H1109 H 0.22462 0.83522 0.48121 0.0
H1110 H 0.2622 0.73321 0.56011 0.0
H1111 H 0.25186 0.73892 0.52795 0.0
H1112 H 0.21017 0.7308 0.50487 0.0
C1113 C 0.2112 0.77528 0.44151 0.0
C1114 C 0.22101 0.81238 0.48623 0.0
C1115 C 0.22092 0.77587 0.42355 0.0
C1116 C 0.24552 0.74873 0.55594 0.0
C1117 C 0.23945 0.75185 0.53754 0.0
C1118 C 0.21279 0.75372 0.49983 0.0
C1119 C 0.22716 0.79222 0.45476 0.0
C1120 C 0.21998 0.78785 0.47423 0.0
C1121 C 0.21887 0.7726 0.53153 0.0
C1122 C 0.21553 0.77809 0.51188 0.0
H1123 H 0.28185 0.82541 0.42803 0.0
H1124 H 0.26502 0.82416 0.45943 0.0
H1125 H 0.21426 0.73914 0.47233 0.0
H1126 H 0.19777 0.7995 0.57249 0.0
H1127 H 0.18752 0.80544 0.54003 0.0
C1128 C 0.24848 0.83176 0.92503 0.0
C1129 C 0.26827 0.80977 0.91982 0.0
C1130 C 0.24514 0.83886 0.94336 0.0
C1131 C 0.2266 0.82584 0.98289 0.0
H1132 H 0.29441 0.82909 0.01606 0.0
C1133 C 0.22156 0.77766 0.05482 0.0
C1134 C 0.24015 0.7908 0.06837 0.0
C1135 C 0.22201 0.78954 0.0373 0.0
C1136 C 0.27516 0.82889 0.00704 0.0
H1137 H 0.30125 0.77921 0.92938 0.0
H1138 H 0.29575 0.7918 0.96118 0.0
H1139 H 0.30333 0.83376 0.98363 0.0
H1140 H 0.27209 0.82812 0.07448 0.0
H1141 H 0.27283 0.8488 0.04386 0.0
H1142 H 0.19849 0.81962 0.0063 0.0
C1143 C 0.28277 0.80357 0.95124 0.0
C1144 C 0.28032 0.83132 0.98846 0.0
C1145 C 0.28575 0.79617 0.93305 0.0
C1146 C 0.25772 0.81724 0.06431 0.0
C1147 C 0.25822 0.82908 0.04677 0.0
C1148 C 0.22143 0.82327 0.00151 0.0
C1149 C 0.26197 0.82447 0.95664 0.0
C1150 C 0.25618 0.82867 0.97618 0.0
C1151 C 0.24107 0.81481 0.03295 0.0
C1152 C 0.24574 0.82366 0.01373 0.0
H1153 H 0.23467 0.84248 0.91507 0.0
H1154 H 0.22898 0.85508 0.94719 0.0
H1155 H 0.20757 0.8236 0.97372 0.0
H1156 H 0.20761 0.7574 0.05752 0.0
H1157 H 0.20874 0.77783 0.02692 0.0
C1158 C 0.21185 0.25163 0.42372 0.0
C1159 C 0.20511 0.27734 0.41374 0.0
C1160 C 0.2077 0.25059 0.44237 0.0
C1161 C 0.17408 0.28485 0.4824 0.0
H1162 H 0.24475 0.25444 0.50555 0.0
C1163 C 0.20335 0.28692 0.56047 0.0
C1164 C 0.21764 0.26145 0.56677 0.0
C1165 C 0.19547 0.28928 0.5421 0.0
C1166 C 0.22466 0.26267 0.49935 0.0
H1167 H 0.18697 0.3215 0.41525 0.0
H1168 H 0.18019 0.31998 0.44841 0.0
H1169 H 0.24303 0.25869 0.47289 0.0
H1170 H 0.23228 0.21744 0.55951 0.0
H1171 H 0.21768 0.221 0.52783 0.0
H1172 H 0.15603 0.28896 0.5093 0.0
C1173 C 0.18845 0.30052 0.4416 0.0
C1174 C 0.22369 0.26515 0.48058 0.0
C1175 C 0.19231 0.30142 0.42268 0.0
C1176 C 0.2214 0.23736 0.55493 0.0
C1177 C 0.21326 0.23952 0.53678 0.0
C1178 C 0.1751 0.28242 0.5014 0.0
C1179 C 0.19717 0.27545 0.45167 0.0
C1180 C 0.19817 0.27555 0.47181 0.0
C1181 C 0.20172 0.26611 0.52993 0.0
C1182 C 0.20019 0.27059 0.50999 0.0
H1183 H 0.22127 0.23252 0.41714 0.0
H1184 H 0.21384 0.23061 0.44964 0.0
H1185 H 0.15419 0.29311 0.47601 0.0
H1186 H 0.20059 0.30594 0.56935 0.0
H1187 H 0.1866 0.31003 0.5372 0.0
C1188 C 0.77422 0.22382 0.06239 0.0
C1189 C 0.74404 0.22936 0.06621 0.0
C1190 C 0.78204 0.21166 0.04564 0.0
C1191 C 0.74825 0.17716 0.00336 0.0
H1192 H 0.81429 0.22192 0.97953 0.0
C1193 C 0.74881 0.21801 0.93018 0.0
C1194 C 0.77353 0.21256 0.91913 0.0
C1195 C 0.74874 0.20954 0.94836 0.0
C1196 C 0.79624 0.20868 0.98611 0.0
H1197 H 0.69827 0.22476 0.05593 0.0
H1198 H 0.71175 0.20454 0.02694 0.0
H1199 H 0.80814 0.22625 0.01222 0.0
H1200 H 0.81739 0.1937 0.91811 0.0
H1201 H 0.81788 0.18002 0.9505 0.0
H1202 H 0.73482 0.16202 0.97686 0.0
C1203 C 0.72952 0.20899 0.03677 0.0
C1204 C 0.7927 0.21107 0.00487 0.0
C1205 C 0.72177 0.221 0.05341 0.0
C1206 C 0.79796 0.1978 0.92641 0.0
C1207 C 0.79829 0.1901 0.94484 0.0
C1208 C 0.75149 0.17524 0.9846 0.0
C1209 C 0.7598 0.20477 0.03245 0.0
C1210 C 0.76783 0.19643 0.0136 0.0
C1211 C 0.77374 0.1962 0.95595 0.0
C1212 C 0.77484 0.19188 0.97577 0.0
H1213 H 0.7919 0.22993 0.07203 0.0
H1214 H 0.80554 0.2084 0.04286 0.0
H1215 H 0.72933 0.16489 0.00969 0.0
H1216 H 0.72976 0.22943 0.92481 0.0
H1217 H 0.72972 0.21479 0.95673 0.0
C1218 C 0.7785 0.69544 0.42312 0.0
C1219 C 0.78874 0.72146 0.41367 0.0
C1220 C 0.78494 0.69224 0.44152 0.0
C1221 C 0.82775 0.72766 0.4805 0.0
H1222 H 0.75509 0.70284 0.50675 0.0
C1223 C 0.76527 0.75548 0.55089 0.0
C1224 C 0.78727 0.75094 0.56414 0.0
C1225 C 0.7697 0.74684 0.53306 0.0
C1226 C 0.77564 0.70969 0.49963 0.0
H1227 H 0.8154 0.76364 0.41575 0.0
H1228 H 0.82573 0.75866 0.44791 0.0
H1229 H 0.75684 0.69589 0.47426 0.0
H1230 H 0.83151 0.73427 0.56902 0.0
H1231 H 0.8394 0.71917 0.53744 0.0
H1232 H 0.84562 0.74324 0.50603 0.0
C1233 C 0.81328 0.74033 0.44113 0.0
C1234 C 0.77683 0.70534 0.48099 0.0
C1235 C 0.80718 0.74332 0.42267 0.0
C1236 C 0.81417 0.738 0.55907 0.0
C1237 C 0.81869 0.72942 0.54105 0.0
C1238 C 0.82649 0.73211 0.49925 0.0
C1239 C 0.80134 0.71525 0.45093 0.0
C1240 C 0.80253 0.71511 0.47107 0.0
C1241 C 0.79625 0.73341 0.52795 0.0
C1242 C 0.79999 0.72413 0.50886 0.0
H1243 H 0.76463 0.67798 0.41645 0.0
H1244 H 0.77601 0.67227 0.44853 0.0
H1245 H 0.84807 0.73501 0.47332 0.0
H1246 H 0.74436 0.76555 0.55429 0.0
H1247 H 0.75229 0.75087 0.52319 0.0
C1248 C 0.61264 0.27962 0.11199 0.0
C1249 C 0.62436 0.25366 0.11963 0.0
C1250 C 0.58147 0.28268 0.11097 0.0
C1251 C 0.50843 0.25193 0.13009 0.0
H1252 H 0.47498 0.29082 0.08813 0.0
C1253 C 0.37949 0.25697 0.11845 0.0
C1254 C 0.36969 0.28549 0.11369 0.0
C1255 C 0.41029 0.25152 0.11836 0.0
C1256 C 0.48399 0.28002 0.09998 0.0
H1257 H 0.6119 0.21082 0.13254 0.0
H1258 H 0.55796 0.21569 0.13022 0.0
H1259 H 0.5291 0.28484 0.0899 0.0
H1260 H 0.38436 0.33014 0.10432 0.0
H1261 H 0.43784 0.32068 0.10409 0.0
H1262 H 0.46315 0.24697 0.14006 0.0
C1263 C 0.57282 0.23396 0.12523 0.0
C1264 C 0.51508 0.27671 0.10105 0.0
C1265 C 0.60395 0.23098 0.12634 0.0
C1266 C 0.39122 0.30805 0.10826 0.0
C1267 C 0.42187 0.30254 0.10797 0.0
C1268 C 0.47729 0.25504 0.12894 0.0
C1269 C 0.56109 0.25981 0.11749 0.0
C1270 C 0.52781 0.26284 0.11619 0.0
C1271 C 0.43185 0.27435 0.11325 0.0
C1272 C 0.46472 0.26935 0.11395 0.0
H1273 H 0.62742 0.2975 0.10651 0.0
H1274 H 0.57339 0.30314 0.10517 0.0
H1275 H 0.51733 0.24155 0.1421 0.0
H1276 H 0.36345 0.23921 0.12278 0.0
H1277 H 0.41725 0.22948 0.12236 0.0
C1278 C 0.82456 0.41557 0.62147 0.0
C1279 C 0.80337 0.39484 0.61358 0.0
C1280 C 0.81958 0.44643 0.62178 0.0
C1281 C 0.77626 0.50432 0.59879 0.0
H1282 H 0.79454 0.55188 0.64175 0.0
C1283 C 0.73678 0.62505 0.60629 0.0
C1284 C 0.75572 0.64702 0.61494 0.0
C1285 C 0.74382 0.59478 0.60614 0.0
C1286 C 0.78971 0.53907 0.62954 0.0
H1287 H 0.76032 0.39063 0.59974 0.0
H1288 H 0.7515 0.44433 0.6004 0.0
H1289 H 0.80411 0.49828 0.64158 0.0
H1290 H 0.7972 0.65391 0.63021 0.0
H1291 H 0.80985 0.60103 0.62965 0.0
H1292 H 0.762 0.54496 0.58669 0.0
C1293 C 0.77211 0.43672 0.60627 0.0
C1294 C 0.79514 0.50827 0.62946 0.0
C1295 C 0.77701 0.40583 0.60606 0.0
C1296 C 0.78214 0.63775 0.62334 0.0
C1297 C 0.78923 0.60732 0.62317 0.0
C1298 C 0.77095 0.53509 0.59884 0.0
C1299 C 0.79336 0.45746 0.6141 0.0
C1300 C 0.78824 0.49042 0.61413 0.0
C1301 C 0.77015 0.58541 0.61453 0.0
C1302 C 0.7773 0.55288 0.61428 0.0
H1303 H 0.84495 0.40793 0.62757 0.0
H1304 H 0.83653 0.46173 0.6278 0.0
H1305 H 0.77123 0.49146 0.58662 0.0
H1306 H 0.71649 0.63113 0.59941 0.0
H1307 H 0.72831 0.57863 0.59957 0.0
C1308 C 0.63353 0.76357 0.15028 0.0
C1309 C 0.65406 0.771 0.13622 0.0
C1310 C 0.60254 0.76631 0.14791 0.0
C1311 C 0.54609 0.80432 0.12061 0.0
H1312 H 0.49163 0.73875 0.13699 0.0
C1313 C 0.41842 0.8028 0.10475 0.0
C1314 C 0.39794 0.79083 0.11774 0.0
C1315 C 0.44947 0.7999 0.10678 0.0
C1316 C 0.50636 0.75753 0.13256 0.0
H1317 H 0.65737 0.78772 0.10861 0.0
H1318 H 0.60339 0.79312 0.10467 0.0
H1319 H 0.54578 0.73554 0.14108 0.0
H1320 H 0.39423 0.76635 0.14308 0.0
H1321 H 0.4484 0.76185 0.14694 0.0
H1322 H 0.50685 0.82669 0.11244 0.0
C1323 C 0.61148 0.7851 0.11756 0.0
C1324 C 0.53753 0.75561 0.13486 0.0
C1325 C 0.64255 0.78208 0.11986 0.0
C1326 C 0.40935 0.77556 0.13275 0.0
C1327 C 0.4405 0.77294 0.1349 0.0
C1328 C 0.51491 0.80641 0.11847 0.0
C1329 C 0.59103 0.77688 0.13148 0.0
C1330 C 0.55782 0.77896 0.12891 0.0
C1331 C 0.46111 0.78523 0.12199 0.0
C1332 C 0.4945 0.78301 0.12437 0.0
H1333 H 0.64126 0.75554 0.16322 0.0
H1334 H 0.58754 0.7603 0.15905 0.0
H1335 H 0.56102 0.8229 0.11607 0.0
H1336 H 0.41041 0.81422 0.09286 0.0
H1337 H 0.46431 0.80902 0.09628 0.0
C1338 C 0.24719 0.39761 0.61355 0.0
C1339 C 0.27159 0.38896 0.60301 0.0
C1340 C 0.24265 0.42818 0.61664 0.0
C1341 C 0.28215 0.50425 0.61521 0.0
H1342 H 0.20143 0.53281 0.61229 0.0
C1343 C 0.25994 0.63112 0.61012 0.0
C1344 C 0.23523 0.6417 0.61962 0.0
C1345 C 0.26437 0.6002 0.60904 0.0
C1346 C 0.22409 0.5252 0.61338 0.0
H1347 H 0.31079 0.40597 0.58792 0.0
H1348 H 0.30259 0.45885 0.59296 0.0
H1349 H 0.20905 0.47914 0.60902 0.0
H1350 H 0.19619 0.62773 0.63577 0.0
H1351 H 0.20389 0.57396 0.63388 0.0
H1352 H 0.29724 0.55028 0.61941 0.0
C1353 C 0.28702 0.44211 0.59898 0.0
C1354 C 0.22846 0.49436 0.61152 0.0
C1355 C 0.29151 0.41167 0.59588 0.0
C1356 C 0.21519 0.62048 0.62809 0.0
C1357 C 0.21961 0.58956 0.62701 0.0
C1358 C 0.27779 0.53505 0.61705 0.0
C1359 C 0.2625 0.45085 0.60936 0.0
C1360 C 0.25759 0.48349 0.61225 0.0
C1361 C 0.24422 0.57899 0.61743 0.0
C1362 C 0.24873 0.546 0.61602 0.0
H1363 H 0.23128 0.38084 0.61918 0.0
H1364 H 0.22367 0.43405 0.62484 0.0
H1365 H 0.30485 0.49668 0.61618 0.0
H1366 H 0.27559 0.64663 0.60317 0.0
H1367 H 0.2833 0.59291 0.6013 0.0
C1368 C 0.62158 0.73383 0.86456 0.0
C1369 C 0.64402 0.75638 0.86859 0.0
C1370 C 0.59128 0.74059 0.86335 0.0
C1371 C 0.53787 0.7962 0.87857 0.0
H1372 H 0.48506 0.75718 0.84286 0.0
C1373 C 0.41287 0.82531 0.8704 0.0
C1374 C 0.3915 0.80146 0.86692 0.0
C1375 C 0.44379 0.82067 0.87014 0.0
C1376 C 0.49939 0.76803 0.85306 0.0
H1377 H 0.652 0.80398 0.8742 0.0
H1378 H 0.59904 0.81594 0.87188 0.0
H1379 H 0.53867 0.74824 0.84267 0.0
H1380 H 0.38635 0.75393 0.86029 0.0
H1381 H 0.44007 0.74571 0.86022 0.0
H1382 H 0.49853 0.81577 0.88907 0.0
C1383 C 0.60496 0.79287 0.86983 0.0
C1384 C 0.53021 0.76295 0.85293 0.0
C1385 C 0.63538 0.7861 0.87096 0.0
C1386 C 0.40199 0.7728 0.86322 0.0
C1387 C 0.43292 0.76816 0.86296 0.0
C1388 C 0.50702 0.80126 0.87872 0.0
C1389 C 0.58246 0.77013 0.86617 0.0
C1390 C 0.54986 0.77679 0.86575 0.0
C1391 C 0.45428 0.79204 0.86638 0.0
C1392 C 0.48729 0.7871 0.86603 0.0
H1393 H 0.62742 0.71078 0.86244 0.0
H1394 H 0.57466 0.72242 0.86068 0.0
H1395 H 0.55219 0.8069 0.88883 0.0
H1396 H 0.40577 0.84762 0.8735 0.0
H1397 H 0.45949 0.83968 0.87267 0.0
C1398 C 0.29083 0.4023 0.35264 0.0
C1399 C 0.27467 0.38145 0.36381 0.0
C1400 C 0.28571 0.43304 0.35339 0.0
C1401 C 0.23096 0.48787 0.36892 0.0
H1402 H 0.30011 0.54463 0.36513 0.0
C1403 C 0.22315 0.61554 0.38282 0.0
C1404 C 0.23909 0.636 0.37126 0.0
C1405 C 0.22717 0.58456 0.38183 0.0
C1406 C 0.2805 0.52914 0.36601 0.0
H1407 H 0.24007 0.37676 0.38439 0.0
H1408 H 0.23122 0.43056 0.38585 0.0
H1409 H 0.30724 0.49074 0.36371 0.0
H1410 H 0.27177 0.63934 0.34945 0.0
H1411 H 0.2789 0.5854 0.34783 0.0
H1412 H 0.20428 0.52641 0.37137 0.0
C1413 C 0.24768 0.42303 0.37632 0.0
C1414 C 0.28457 0.49815 0.36518 0.0
C1415 C 0.25274 0.39214 0.37551 0.0
C1416 C 0.25936 0.62449 0.35875 0.0
C1417 C 0.26345 0.59346 0.3578 0.0
C1418 C 0.22691 0.5189 0.36981 0.0
C1419 C 0.26434 0.44395 0.36539 0.0
C1420 C 0.25986 0.47703 0.36655 0.0
C1421 C 0.24734 0.57306 0.3693 0.0
C1422 C 0.25162 0.53997 0.36832 0.0
H1423 H 0.30742 0.39485 0.34318 0.0
H1424 H 0.29846 0.44825 0.34443 0.0
H1425 H 0.21134 0.4724 0.36977 0.0
H1426 H 0.20778 0.6234 0.39287 0.0
H1427 H 0.21478 0.56963 0.39112 0.0
C1428 C 0.42283 0.29186 0.87479 0.0
C1429 C 0.40043 0.26826 0.875 0.0
C1430 C 0.45326 0.2859 0.87301 0.0
C1431 C 0.50675 0.22653 0.88034 0.0
H1432 H 0.55938 0.27697 0.8497 0.0
C1433 C 0.63174 0.20079 0.86869 0.0
C1434 C 0.65314 0.22527 0.86737 0.0
C1435 C 0.60083 0.20545 0.86911 0.0
C1436 C 0.54515 0.26287 0.85852 0.0
H1437 H 0.3926 0.21979 0.87342 0.0
H1438 H 0.44585 0.20931 0.87028 0.0
H1439 H 0.50584 0.28592 0.85109 0.0
H1440 H 0.65813 0.27405 0.86534 0.0
H1441 H 0.60461 0.28215 0.86671 0.0
H1442 H 0.54606 0.20382 0.88806 0.0
C1443 C 0.43978 0.23249 0.87156 0.0
C1444 C 0.51437 0.26797 0.85926 0.0
C1445 C 0.40924 0.23849 0.87318 0.0
C1446 C 0.6426 0.25457 0.86656 0.0
C1447 C 0.61169 0.25922 0.86709 0.0
C1448 C 0.53759 0.22155 0.8797 0.0
C1449 C 0.46218 0.25614 0.87151 0.0
C1450 C 0.49478 0.24995 0.87023 0.0
C1451 C 0.59032 0.23473 0.86833 0.0
C1452 C 0.5573 0.23973 0.86883 0.0
H1453 H 0.41684 0.31506 0.87597 0.0
H1454 H 0.46989 0.30464 0.87318 0.0
H1455 H 0.49239 0.21248 0.88912 0.0
H1456 H 0.63874 0.17791 0.86953 0.0
H1457 H 0.58517 0.18596 0.86985 0.0
C1458 C 0.76479 0.39909 0.3587 0.0
C1459 C 0.78612 0.38739 0.37046 0.0
C1460 C 0.76493 0.43019 0.35522 0.0
C1461 C 0.79608 0.50409 0.37395 0.0
H1462 H 0.76545 0.53526 0.32892 0.0
C1463 C 0.77633 0.63107 0.36506 0.0
C1464 C 0.77895 0.64407 0.34774 0.0
C1465 C 0.77816 0.59993 0.36746 0.0
C1466 C 0.77456 0.52713 0.34151 0.0
H1467 H 0.82518 0.3987 0.38704 0.0
H1468 H 0.82667 0.45243 0.3803 0.0
H1469 H 0.76814 0.48128 0.33295 0.0
H1470 H 0.78663 0.63475 0.31944 0.0
H1471 H 0.79135 0.58075 0.32362 0.0
H1472 H 0.80399 0.54988 0.38217 0.0
C1473 C 0.80886 0.43813 0.37433 0.0
C1474 C 0.77558 0.49589 0.34396 0.0
C1475 C 0.80828 0.40721 0.37808 0.0
C1476 C 0.78425 0.62531 0.33293 0.0
C1477 C 0.78668 0.59424 0.33535 0.0
C1478 C 0.79556 0.5353 0.37137 0.0
C1479 C 0.7868 0.45031 0.36316 0.0
C1480 C 0.78623 0.48379 0.36027 0.0
C1481 C 0.78326 0.5809 0.35264 0.0
C1482 C 0.78459 0.54742 0.35517 0.0
H1483 H 0.74724 0.38434 0.35282 0.0
H1484 H 0.74724 0.43844 0.34677 0.0
H1485 H 0.80391 0.496 0.38686 0.0
H1486 H 0.77175 0.64489 0.37668 0.0
H1487 H 0.77475 0.59077 0.38094 0.0
C1488 C 0.21605 0.25987 0.31017 0.0
C1489 C 0.2447 0.25683 0.3178 0.0
C1490 C 0.21199 0.25801 0.29131 0.0
C1491 C 0.25002 0.23144 0.24966 0.0
H1492 H 0.19988 0.28687 0.22468 0.0
C1493 C 0.24201 0.23347 0.17139 0.0
C1494 C 0.24132 0.26203 0.16327 0.0
C1495 C 0.23857 0.2302 0.19017 0.0
C1496 C 0.21414 0.27131 0.23142 0.0
H1497 H 0.29163 0.25025 0.31162 0.0
H1498 H 0.28478 0.24783 0.2792 0.0
H1499 H 0.20121 0.28645 0.25766 0.0
H1500 H 0.23678 0.30959 0.16845 0.0
H1501 H 0.23191 0.30413 0.20102 0.0
H1502 H 0.26432 0.21746 0.22355 0.0
C1503 C 0.26517 0.25069 0.28758 0.0
C1504 C 0.21454 0.27078 0.25038 0.0
C1505 C 0.26914 0.25237 0.30625 0.0
C1506 C 0.23726 0.28722 0.17427 0.0
C1507 C 0.23414 0.28403 0.193 0.0
C1508 C 0.24984 0.23215 0.23075 0.0
C1509 C 0.23655 0.25316 0.27981 0.0
C1510 C 0.23307 0.25134 0.25974 0.0
C1511 C 0.23466 0.25549 0.20124 0.0
C1512 C 0.23241 0.25256 0.22135 0.0
H1513 H 0.19679 0.26328 0.31874 0.0
H1514 H 0.1896 0.25994 0.28579 0.0
H1515 H 0.26406 0.21566 0.2564 0.0
H1516 H 0.24485 0.21362 0.16322 0.0
H1517 H 0.23875 0.20781 0.19598 0.0
C1518 C 0.77019 0.21273 0.80185 0.0
C1519 C 0.78787 0.22549 0.81592 0.0
C1520 C 0.78125 0.21247 0.78417 0.0
C1521 C 0.8232 0.26099 0.75497 0.0
H1522 H 0.82165 0.19495 0.72075 0.0
C1523 C 0.83327 0.28682 0.67917 0.0
C1524 C 0.81524 0.26872 0.6675 0.0
C1525 C 0.83818 0.27771 0.69701 0.0
C1526 C 0.82192 0.21375 0.73004 0.0
H1527 H 0.83139 0.24675 0.82281 0.0
H1528 H 0.85032 0.24744 0.79158 0.0
H1529 H 0.81463 0.18446 0.75302 0.0
H1530 H 0.789 0.22646 0.66498 0.0
H1531 H 0.79568 0.21138 0.69633 0.0
H1532 H 0.82757 0.2906 0.73234 0.0
C1533 C 0.8282 0.23705 0.79439 0.0
C1534 C 0.81826 0.20762 0.74854 0.0
C1535 C 0.81742 0.23657 0.81221 0.0
C1536 C 0.80317 0.24076 0.67372 0.0
C1537 C 0.80724 0.23206 0.69174 0.0
C1538 C 0.82605 0.2672 0.73649 0.0
C1539 C 0.80989 0.22563 0.7802 0.0
C1540 C 0.81845 0.23124 0.7611 0.0
C1541 C 0.82418 0.25079 0.70383 0.0
C1542 C 0.82489 0.24372 0.72366 0.0
H1543 H 0.74732 0.2041 0.80441 0.0
H1544 H 0.76663 0.20381 0.77341 0.0
H1545 H 0.8229 0.27961 0.76439 0.0
H1546 H 0.84312 0.30835 0.67459 0.0
H1547 H 0.85227 0.29234 0.70557 0.0
C1548 C 0.77657 0.81739 0.17988 0.0
C1549 C 0.79857 0.80805 0.16793 0.0
C1550 C 0.78371 0.82247 0.1981 0.0
C1551 C 0.84065 0.80049 0.23207 0.0
H1552 H 0.79111 0.84679 0.26341 0.0
C1553 C 0.82363 0.77018 0.30697 0.0
C1554 C 0.81327 0.79167 0.3189 0.0
C1555 C 0.82915 0.77777 0.28885 0.0
C1556 C 0.80582 0.83421 0.25498 0.0
H1557 H 0.84547 0.7986 0.16491 0.0
H1558 H 0.85873 0.80971 0.19633 0.0
H1559 H 0.78747 0.85294 0.231 0.0
H1560 H 0.80244 0.83819 0.32205 0.0
H1561 H 0.81432 0.8523 0.29081 0.0
H1562 H 0.85996 0.78275 0.25605 0.0
C1563 C 0.83561 0.81178 0.19209 0.0
C1564 C 0.80322 0.83731 0.23622 0.0
C1565 C 0.82821 0.80583 0.17403 0.0
C1566 C 0.81058 0.82135 0.31295 0.0
C1567 C 0.81694 0.82922 0.29498 0.0
C1568 C 0.84384 0.798 0.25083 0.0
C1569 C 0.8132 0.81891 0.2046 0.0
C1570 C 0.8197 0.81962 0.22447 0.0
C1571 C 0.82494 0.80721 0.28244 0.0
C1572 C 0.82561 0.81389 0.26259 0.0
H1573 H 0.75343 0.8187 0.17542 0.0
H1574 H 0.76558 0.8274 0.2072 0.0
H1575 H 0.85371 0.78621 0.22364 0.0
H1576 H 0.82521 0.74698 0.31129 0.0
H1577 H 0.83476 0.75993 0.27971 0.0
C1578 C 0.228 0.8093 0.81392 0.0
C1579 C 0.25921 0.80777 0.81655 0.0
C1580 C 0.21644 0.81456 0.79659 0.0
C1581 C 0.23931 0.83636 0.74937 0.0
H1582 H 0.1788 0.77463 0.7355 0.0
C1583 C 0.22306 0.80409 0.6747 0.0
C1584 C 0.22487 0.77291 0.67213 0.0
C1585 C 0.21734 0.8155 0.69196 0.0
C1586 C 0.19551 0.79222 0.73916 0.0
H1587 H 0.30283 0.81272 0.80345 0.0
H1588 H 0.28291 0.82148 0.77348 0.0
H1589 H 0.18915 0.7838 0.76744 0.0
H1590 H 0.2198 0.72916 0.6852 0.0
H1591 H 0.21031 0.74884 0.71505 0.0
H1592 H 0.24759 0.84291 0.72111 0.0
C1593 C 0.2672 0.81889 0.78464 0.0
C1594 C 0.20121 0.79774 0.75749 0.0
C1595 C 0.27866 0.8135 0.80184 0.0
C1596 C 0.21883 0.75333 0.68678 0.0
C1597 C 0.21302 0.76465 0.70391 0.0
C1598 C 0.23377 0.83069 0.73104 0.0
C1599 C 0.23594 0.81865 0.78167 0.0
C1600 C 0.22429 0.81878 0.76279 0.0
C1601 C 0.21312 0.7959 0.70686 0.0
C1602 C 0.21292 0.80745 0.72574 0.0
H1603 H 0.21246 0.80505 0.82503 0.0
H1604 H 0.19226 0.81446 0.79476 0.0
H1605 H 0.25678 0.8532 0.75303 0.0
H1606 H 0.22752 0.81974 0.66363 0.0
H1607 H 0.21729 0.83968 0.69375 0.0
C1608 C 0.80426 0.80844 0.81035 0.0
C1609 C 0.78128 0.79276 0.82008 0.0
C1610 C 0.8037 0.80889 0.79148 0.0
C1611 C 0.78426 0.76082 0.75454 0.0
H1612 H 0.79357 0.83219 0.72439 0.0
C1613 C 0.7872 0.75681 0.67595 0.0
C1614 C 0.80179 0.78123 0.66686 0.0
C1615 C 0.7858 0.75654 0.69489 0.0
C1616 C 0.79164 0.81195 0.73259 0.0
H1617 H 0.73907 0.76624 0.81794 0.0
H1618 H 0.73861 0.76619 0.78466 0.0
H1619 H 0.78558 0.83746 0.75679 0.0
H1620 H 0.82954 0.82237 0.67019 0.0
H1621 H 0.82929 0.82073 0.7031 0.0
H1622 H 0.79176 0.73521 0.73064 0.0
C1623 C 0.75673 0.7785 0.79174 0.0
C1624 C 0.78659 0.81508 0.75111 0.0
C1625 C 0.75686 0.77877 0.8107 0.0
C1626 C 0.81787 0.80345 0.67693 0.0
C1627 C 0.81721 0.80276 0.6958 0.0
C1628 C 0.78992 0.75765 0.73603 0.0
C1629 C 0.78055 0.79297 0.78204 0.0
C1630 C 0.78294 0.78957 0.76223 0.0
C1631 C 0.79965 0.78031 0.70502 0.0
C1632 C 0.79394 0.78322 0.72482 0.0
H1633 H 0.82342 0.81915 0.81735 0.0
H1634 H 0.82233 0.82011 0.78425 0.0
H1635 H 0.78195 0.74083 0.76298 0.0
H1636 H 0.77464 0.73934 0.66849 0.0
H1637 H 0.77215 0.73878 0.70144 0.0
C1638 C 0.24461 0.80508 0.1749 0.0
C1639 C 0.27174 0.79345 0.16921 0.0
C1640 C 0.23709 0.80501 0.1933 0.0
C1641 C 0.25573 0.76258 0.23453 0.0
H1642 H 0.20592 0.81874 0.25893 0.0
C1643 C 0.2218 0.73813 0.30705 0.0
C1644 C 0.22506 0.76261 0.31888 0.0
C1645 C 0.22001 0.74299 0.28842 0.0
C1646 C 0.21993 0.80289 0.25233 0.0
H1647 H 0.31352 0.77534 0.17804 0.0
H1648 H 0.30147 0.777 0.21016 0.0
H1649 H 0.22173 0.82862 0.22771 0.0
H1650 H 0.22754 0.81119 0.32102 0.0
H1651 H 0.22597 0.81993 0.28843 0.0
H1652 H 0.25563 0.73769 0.25913 0.0
C1653 C 0.28522 0.78481 0.20052 0.0
C1654 C 0.22881 0.80845 0.23438 0.0
C1655 C 0.29237 0.78422 0.18217 0.0
C1656 C 0.22445 0.79202 0.31204 0.0
C1657 C 0.22358 0.79695 0.29334 0.0
C1658 C 0.24727 0.75726 0.25243 0.0
C1659 C 0.25686 0.79372 0.20626 0.0
C1660 C 0.24713 0.78848 0.22533 0.0
C1661 C 0.22285 0.77244 0.28126 0.0
C1662 C 0.22932 0.77732 0.26165 0.0
H1663 H 0.22822 0.812 0.16506 0.0
H1664 H 0.21505 0.81197 0.19718 0.0
H1665 H 0.26911 0.74619 0.22792 0.0
H1666 H 0.22239 0.71527 0.31215 0.0
H1667 H 0.21834 0.72355 0.27959 0.0
C1668 C 0.29793 0.30566 0.6757 0.0
C1669 C 0.27548 0.29114 0.66493 0.0
C1670 C 0.3001 0.29904 0.69415 0.0
C1671 C 0.279 0.23963 0.72775 0.0
H1672 H 0.30052 0.30264 0.76232 0.0
C1673 C 0.30636 0.21636 0.8039 0.0
C1674 C 0.29382 0.23613 0.81628 0.0
C1675 C 0.30495 0.2221 0.78518 0.0
C1676 C 0.29441 0.28475 0.75286 0.0
H1677 H 0.23696 0.25897 0.66534 0.0
H1678 H 0.24036 0.24792 0.69765 0.0
H1679 H 0.29437 0.31551 0.73057 0.0
H1680 H 0.26898 0.27681 0.81851 0.0
H1681 H 0.26662 0.28651 0.78642 0.0
H1682 H 0.27832 0.20899 0.7503 0.0
C1683 C 0.25667 0.26403 0.69171 0.0
C1684 C 0.29114 0.29211 0.7346 0.0
C1685 C 0.25448 0.27068 0.67323 0.0
C1686 C 0.27951 0.26134 0.80952 0.0
C1687 C 0.27815 0.26702 0.79101 0.0
C1688 C 0.28228 0.23223 0.74609 0.0
C1689 C 0.27983 0.27775 0.70234 0.0
C1690 C 0.28321 0.26971 0.72181 0.0
C1691 C 0.29106 0.24772 0.77858 0.0
C1692 C 0.28971 0.25479 0.75889 0.0
H1693 H 0.31459 0.32143 0.66978 0.0
H1694 H 0.31837 0.30987 0.70185 0.0
H1695 H 0.27333 0.22173 0.71821 0.0
H1696 H 0.31741 0.19668 0.80864 0.0
H1697 H 0.31515 0.2068 0.77592 0.0
C1698 C 0.805 0.25869 0.31127 0.0
C1699 C 0.7843 0.2771 0.31951 0.0
C1700 C 0.80808 0.25857 0.29239 0.0
C1701 C 0.79314 0.30186 0.25102 0.0
H1702 H 0.77862 0.22421 0.22782 0.0
C1703 C 0.77808 0.24894 0.17407 0.0
C1704 C 0.76037 0.27129 0.1668 0.0
C1705 C 0.78552 0.24912 0.19253 0.0
C1706 C 0.78328 0.24602 0.23403 0.0
H1707 H 0.75185 0.31092 0.31474 0.0
H1708 H 0.75777 0.31132 0.28194 0.0
H1709 H 0.78591 0.22675 0.26062 0.0
H1710 H 0.73577 0.31072 0.17322 0.0
H1711 H 0.74796 0.31059 0.20524 0.0
H1712 H 0.79021 0.3213 0.22463 0.0
C1713 C 0.77144 0.29681 0.28995 0.0
C1714 C 0.78747 0.24745 0.25281 0.0
C1715 C 0.76796 0.2965 0.30871 0.0
C1716 C 0.74968 0.29332 0.17837 0.0
C1717 C 0.75693 0.29341 0.19673 0.0
C1718 C 0.78923 0.30044 0.23228 0.0
C1719 C 0.79098 0.27735 0.28156 0.0
C1720 C 0.79157 0.27546 0.26152 0.0
C1721 C 0.7753 0.27163 0.20403 0.0
C1722 C 0.78328 0.27258 0.22361 0.0
H1723 H 0.81768 0.24335 0.31932 0.0
H1724 H 0.82337 0.24344 0.28623 0.0
H1725 H 0.79667 0.32372 0.25737 0.0
H1726 H 0.78675 0.23176 0.16544 0.0
H1727 H 0.79978 0.23206 0.1977 0.0
loop_
_geom_bond_atom_site_label_1
_geom_bond_atom_site_label_2
_geom_bond_distance
_geom_bond_site_symmetry_2
_ccdc_geom_bond_type
Co0 N4 2.148 . S
Co0 N10 2.128 . S
Co0 N20 2.194 . S
Co0 O25 2.351 . S
Co0 O26 2.155 . S
Co0 O27 2.096 . S
C1 N4 1.301 . S
C1 N5 1.328 . S
C1 H6 0.930 . S
C2 C3 1.333 . S
C2 N4 1.317 . S
C2 H7 0.930 . S
C3 C2 1.333 . S
C3 N5 1.350 . S
C3 H29 0.931 . S
N4 Co0 2.148 . S
N4 C1 1.301 . S
N4 C2 1.317 . S
N5 C1 1.328 . S
N5 C3 1.350 . S
H6 C1 0.930 . S
H7 C2 0.930 . S
C8 O9 1.224 . S
C8 O27 1.247 . S
O9 C8 1.224 . S
N10 Co0 2.128 . S
N10 C11 1.355 . S
N10 C13 1.311 . S
C11 N10 1.355 . S
C11 C12 1.363 . S
C11 H23 0.929 . S
C12 C11 1.363 . S
C12 N14 1.375 . S
C12 H30 0.931 . S
C13 N10 1.311 . S
C13 N14 1.347 . S
C13 H24 0.929 . S
N14 C12 1.375 . S
N14 C13 1.347 . S
C15 C18 1.365 . S
C15 N20 1.328 . S
C15 H21 0.929 . S
C16 C17 1.362 . S
C16 C19 1.378 . S
C16 H31 0.929 . S
C17 C16 1.362 . S
C17 C18 1.366 . S
C18 C15 1.365 . S
C18 C17 1.366 . S
C18 H32 0.930 . S
C19 C16 1.378 . S
C19 N20 1.315 . S
C19 H22 0.930 . S
N20 Co0 2.194 . S
N20 C15 1.328 . S
N20 C19 1.315 . S
H21 C15 0.929 . S
H22 C19 0.930 . S
H23 C11 0.929 . S
H24 C13 0.929 . S
O25 Co0 2.351 . S
O25 C28 1.244 . S
O26 Co0 2.155 . S
O26 C28 1.240 . S
O27 Co0 2.096 . S
O27 C8 1.247 . S
C28 O25 1.244 . S
C28 O26 1.240 . S
H29 C3 0.931 . S
H30 C12 0.931 . S
H31 C16 0.929 . S
H32 C18 0.930 . S
Co33 N37 2.148 . S
Co33 N43 2.128 . S
Co33 N53 2.194 . S
Co33 O58 2.351 . S
Co33 O59 2.155 . S
Co33 O60 2.096 . S
C34 N37 1.301 . S
C34 N38 1.328 . S
C34 H39 0.930 . S
C35 C36 1.333 . S
C35 N37 1.317 . S
C35 H40 0.930 . S
C36 C35 1.333 . S
C36 N38 1.350 . S
C36 H62 0.931 . S
N37 Co33 2.148 . S
N37 C34 1.301 . S
N37 C35 1.317 . S
N38 C34 1.328 . S
N38 C36 1.350 . S
H39 C34 0.930 . S
H40 C35 0.930 . S
C41 O42 1.224 . S
C41 O60 1.247 . S
O42 C41 1.224 . S
N43 Co33 2.128 . S
N43 C44 1.355 . S
N43 C46 1.311 . S
C44 N43 1.355 . S
C44 C45 1.363 . S
C44 H56 0.929 . S
C45 C44 1.363 . S
C45 N47 1.375 . S
C45 H63 0.931 . S
C46 N43 1.311 . S
C46 N47 1.347 . S
C46 H57 0.929 . S
N47 C45 1.375 . S
N47 C46 1.347 . S
C48 C51 1.365 . S
C48 N53 1.328 . S
C48 H54 0.929 . S
C49 C50 1.362 . S
C49 C52 1.378 . S
C49 H64 0.929 . S
C50 C49 1.362 . S
C50 C51 1.366 . S
C51 C48 1.365 . S
C51 C50 1.366 . S
C51 H65 0.930 . S
C52 C49 1.378 . S
C52 N53 1.315 . S
C52 H55 0.930 . S
N53 Co33 2.194 . S
N53 C48 1.328 . S
N53 C52 1.315 . S
H54 C48 0.929 . S
H55 C52 0.930 . S
H56 C44 0.929 . S
H57 C46 0.929 . S
O58 Co33 2.351 . S
O58 C61 1.244 . S
O59 Co33 2.155 . S
O59 C61 1.240 . S
O60 Co33 2.096 . S
O60 C41 1.247 . S
C61 O58 1.244 . S
C61 O59 1.240 . S
H62 C36 0.931 . S
H63 C45 0.931 . S
H64 C49 0.929 . S
H65 C51 0.930 . S
Co66 N70 2.148 . S
Co66 N76 2.128 . S
Co66 N86 2.194 . S
Co66 O91 2.351 . S
Co66 O92 2.155 . S
Co66 O93 2.096 . S
C67 N70 1.301 . S
C67 N71 1.328 . S
C67 H72 0.930 . S
C68 C69 1.333 . S
C68 N70 1.317 . S
C68 H73 0.930 . S
C69 C68 1.333 . S
C69 N71 1.350 . S
C69 H95 0.931 . S
N70 Co66 2.148 . S
N70 C67 1.301 . S
N70 C68 1.317 . S
N71 C67 1.328 . S
N71 C69 1.350 . S
H72 C67 0.930 . S
H73 C68 0.930 . S
C74 O75 1.224 . S
C74 O93 1.247 . S
O75 C74 1.224 . S
N76 Co66 2.128 . S
N76 C77 1.355 . S
N76 C79 1.311 . S
C77 N76 1.355 . S
C77 C78 1.363 . S
C77 H89 0.929 . S
C78 C77 1.363 . S
C78 N80 1.375 . S
C78 H96 0.931 . S
C79 N76 1.311 . S
C79 N80 1.347 . S
C79 H90 0.929 . S
N80 C78 1.375 . S
N80 C79 1.347 . S
C81 C84 1.365 . S
C81 N86 1.328 . S
C81 H87 0.929 . S
C82 C83 1.362 . S
C82 C85 1.378 . S
C82 H97 0.929 . S
C83 C82 1.362 . S
C83 C84 1.366 . S
C84 C81 1.365 . S
C84 C83 1.366 . S
C84 H98 0.930 . S
C85 C82 1.378 . S
C85 N86 1.315 . S
C85 H88 0.930 . S
N86 Co66 2.194 . S
N86 C81 1.328 . S
N86 C85 1.315 . S
H87 C81 0.929 . S
H88 C85 0.930 . S
H89 C77 0.929 . S
H90 C79 0.929 . S
O91 Co66 2.351 . S
O91 C94 1.244 . S
O92 Co66 2.155 . S
O92 C94 1.240 . S
O93 Co66 2.096 . S
O93 C74 1.247 . S
C94 O91 1.244 . S
C94 O92 1.240 . S
H95 C69 0.931 . S
H96 C78 0.931 . S
H97 C82 0.929 . S
H98 C84 0.930 . S
Co99 N103 2.148 . S
Co99 N109 2.128 . S
Co99 N119 2.194 . S
Co99 O124 2.351 . S
Co99 O125 2.155 . S
Co99 O126 2.096 . S
C100 N103 1.301 . S
C100 N104 1.328 . S
C100 H105 0.930 . S
C101 C102 1.333 . S
C101 N103 1.317 . S
C101 H106 0.930 . S
C102 C101 1.333 . S
C102 N104 1.350 . S
C102 H128 0.931 . S
N103 Co99 2.148 . S
N103 C100 1.301 . S
N103 C101 1.317 . S
N104 C100 1.328 . S
N104 C102 1.350 . S
H105 C100 0.930 . S
H106 C101 0.930 . S
C107 O108 1.224 . S
C107 O126 1.247 . S
O108 C107 1.224 . S
N109 Co99 2.128 . S
N109 C110 1.355 . S
N109 C112 1.311 . S
C110 N109 1.355 . S
C110 C111 1.363 . S
C110 H122 0.929 . S
C111 C110 1.363 . S
C111 N113 1.375 . S
C111 H129 0.931 . S
C112 N109 1.311 . S
C112 N113 1.347 . S
C112 H123 0.929 . S
N113 C111 1.375 . S
N113 C112 1.347 . S
C114 C117 1.365 . S
C114 N119 1.328 . S
C114 H120 0.929 . S
C115 C116 1.362 . S
C115 C118 1.378 . S
C115 H130 0.929 . S
C116 C115 1.362 . S
C116 C117 1.366 . S
C117 C114 1.365 . S
C117 C116 1.366 . S
C117 H131 0.930 . S
C118 C115 1.378 . S
C118 N119 1.315 . S
C118 H121 0.930 . S
N119 Co99 2.194 . S
N119 C114 1.328 . S
N119 C118 1.315 . S
H120 C114 0.929 . S
H121 C118 0.930 . S
H122 C110 0.929 . S
H123 C112 0.929 . S
O124 Co99 2.351 . S
O124 C127 1.244 . S
O125 Co99 2.155 . S
O125 C127 1.240 . S
O126 Co99 2.096 . S
O126 C107 1.247 . S
C127 O124 1.244 . S
C127 O125 1.240 . S
H128 C102 0.931 . S
H129 C111 0.931 . S
H130 C115 0.929 . S
H131 C117 0.930 . S
Co132 N136 2.148 . S
Co132 N142 2.128 . S
Co132 N152 2.194 . S
Co132 O157 2.351 . S
Co132 O158 2.155 . S
Co132 O159 2.096 . S
C133 N136 1.301 . S
C133 N137 1.328 . S
C133 H138 0.930 . S
C134 C135 1.333 . S
C134 N136 1.317 . S
C134 H139 0.930 . S
C135 C134 1.333 . S
C135 N137 1.350 . S
C135 H161 0.931 . S
N136 Co132 2.148 . S
N136 C133 1.301 . S
N136 C134 1.317 . S
N137 C133 1.328 . S
N137 C135 1.350 . S
H138 C133 0.930 . S
H139 C134 0.930 . S
C140 O141 1.224 . S
C140 O159 1.247 . S
O141 C140 1.224 . S
N142 Co132 2.128 . S
N142 C143 1.355 . S
N142 C145 1.311 . S
C143 N142 1.355 . S
C143 C144 1.363 . S
C143 H155 0.929 . S
C144 C143 1.363 . S
C144 N146 1.375 . S
C144 H162 0.931 . S
C145 N142 1.311 . S
C145 N146 1.347 . S
C145 H156 0.929 . S
N146 C144 1.375 . S
N146 C145 1.347 . S
C147 C150 1.365 . S
C147 N152 1.328 . S
C147 H153 0.929 . S
C148 C149 1.362 . S
C148 C151 1.378 . S
C148 H163 0.929 . S
C149 C148 1.362 . S
C149 C150 1.366 . S
C150 C147 1.365 . S
C150 C149 1.366 . S
C150 H164 0.930 . S
C151 C148 1.378 . S
C151 N152 1.315 . S
C151 H154 0.930 . S
N152 Co132 2.194 . S
N152 C147 1.328 . S
N152 C151 1.315 . S
H153 C147 0.929 . S
H154 C151 0.930 . S
H155 C143 0.929 . S
H156 C145 0.929 . S
O157 Co132 2.351 . S
O157 C160 1.244 . S
O158 Co132 2.155 . S
O158 C160 1.240 . S
O159 Co132 2.096 . S
O159 C140 1.247 . S
C160 O157 1.244 . S
C160 O158 1.240 . S
H161 C135 0.931 . S
H162 C144 0.931 . S
H163 C148 0.929 . S
H164 C150 0.930 . S
Co165 N169 2.148 . S
Co165 N175 2.128 . S
Co165 N185 2.194 . S
Co165 O190 2.351 . S
Co165 O191 2.155 . S
Co165 O192 2.096 . S
C166 N169 1.301 . S
C166 N170 1.328 . S
C166 H171 0.930 . S
C167 C168 1.333 . S
C167 N169 1.317 . S
C167 H172 0.930 . S
C168 C167 1.333 . S
C168 N170 1.350 . S
C168 H194 0.931 . S
N169 Co165 2.148 . S
N169 C166 1.301 . S
N169 C167 1.317 . S
N170 C166 1.328 . S
N170 C168 1.350 . S
H171 C166 0.930 . S
H172 C167 0.930 . S
C173 O174 1.224 . S
C173 O192 1.247 . S
O174 C173 1.224 . S
N175 Co165 2.128 . S
N175 C176 1.355 . S
N175 C178 1.311 . S
C176 N175 1.355 . S
C176 C177 1.363 . S
C176 H188 0.929 . S
C177 C176 1.363 . S
C177 N179 1.375 . S
C177 H195 0.931 . S
C178 N175 1.311 . S
C178 N179 1.347 . S
C178 H189 0.929 . S
N179 C177 1.375 . S
N179 C178 1.347 . S
C180 C183 1.365 . S
C180 N185 1.328 . S
C180 H186 0.929 . S
C181 C182 1.362 . S
C181 C184 1.378 . S
C181 H196 0.929 . S
C182 C181 1.362 . S
C182 C183 1.366 . S
C183 C180 1.365 . S
C183 C182 1.366 . S
C183 H197 0.930 . S
C184 C181 1.378 . S
C184 N185 1.315 . S
C184 H187 0.930 . S
N185 Co165 2.194 . S
N185 C180 1.328 . S
N185 C184 1.315 . S
H186 C180 0.929 . S
H187 C184 0.930 . S
H188 C176 0.929 . S
H189 C178 0.929 . S
O190 Co165 2.351 . S
O190 C193 1.244 . S
O191 Co165 2.155 . S
O191 C193 1.240 . S
O192 Co165 2.096 . S
O192 C173 1.247 . S
C193 O190 1.244 . S
C193 O191 1.240 . S
H194 C168 0.931 . S
H195 C177 0.931 . S
H196 C181 0.929 . S
H197 C183 0.930 . S
Co198 N202 2.148 . S
Co198 N208 2.128 . S
Co198 N218 2.194 . S
Co198 O223 2.351 . S
Co198 O224 2.155 . S
Co198 O225 2.096 . S
C199 N202 1.301 . S
C199 N203 1.328 . S
C199 H204 0.930 . S
C200 C201 1.333 . S
C200 N202 1.317 . S
C200 H205 0.930 . S
C201 C200 1.333 . S
C201 N203 1.350 . S
C201 H227 0.931 . S
N202 Co198 2.148 . S
N202 C199 1.301 . S
N202 C200 1.317 . S
N203 C199 1.328 . S
N203 C201 1.350 . S
H204 C199 0.930 . S
H205 C200 0.930 . S
C206 O207 1.224 . S
C206 O225 1.247 . S
O207 C206 1.224 . S
N208 Co198 2.128 . S
N208 C209 1.355 . S
N208 C211 1.311 . S
C209 N208 1.355 . S
C209 C210 1.363 . S
C209 H221 0.929 . S
C210 C209 1.363 . S
C210 N212 1.375 . S
C210 H228 0.931 . S
C211 N208 1.311 . S
C211 N212 1.347 . S
C211 H222 0.929 . S
N212 C210 1.375 . S
N212 C211 1.347 . S
C213 C216 1.365 . S
C213 N218 1.328 . S
C213 H219 0.929 . S
C214 C215 1.362 . S
C214 C217 1.378 . S
C214 H229 0.929 . S
C215 C214 1.362 . S
C215 C216 1.366 . S
C216 C213 1.365 . S
C216 C215 1.366 . S
C216 H230 0.930 . S
C217 C214 1.378 . S
C217 N218 1.315 . S
C217 H220 0.930 . S
N218 Co198 2.194 . S
N218 C213 1.328 . S
N218 C217 1.315 . S
H219 C213 0.929 . S
H220 C217 0.930 . S
H221 C209 0.929 . S
H222 C211 0.929 . S
O223 Co198 2.351 . S
O223 C226 1.244 . S
O224 Co198 2.155 . S
O224 C226 1.240 . S
O225 Co198 2.096 . S
O225 C206 1.247 . S
C226 O223 1.244 . S
C226 O224 1.240 . S
H227 C201 0.931 . S
H228 C210 0.931 . S
H229 C214 0.929 . S
H230 C216 0.930 . S
Co231 N235 2.148 . S
Co231 N241 2.128 . S
Co231 N251 2.194 . S
Co231 O256 2.351 . S
Co231 O257 2.155 . S
Co231 O258 2.096 . S
C232 N235 1.301 . S
C232 N236 1.328 . S
C232 H237 0.930 . S
C233 C234 1.333 . S
C233 N235 1.317 . S
C233 H238 0.930 . S
C234 C233 1.333 . S
C234 N236 1.350 . S
C234 H260 0.931 . S
N235 Co231 2.148 . S
N235 C232 1.301 . S
N235 C233 1.317 . S
N236 C232 1.328 . S
N236 C234 1.350 . S
H237 C232 0.930 . S
H238 C233 0.930 . S
C239 O240 1.224 . S
C239 O258 1.247 . S
O240 C239 1.224 . S
N241 Co231 2.128 . S
N241 C242 1.355 . S
N241 C244 1.311 . S
C242 N241 1.355 . S
C242 C243 1.363 . S
C242 H254 0.929 . S
C243 C242 1.363 . S
C243 N245 1.375 . S
C243 H261 0.931 . S
C244 N241 1.311 . S
C244 N245 1.347 . S
C244 H255 0.929 . S
N245 C243 1.375 . S
N245 C244 1.347 . S
C246 C249 1.365 . S
C246 N251 1.328 . S
C246 H252 0.929 . S
C247 C248 1.362 . S
C247 C250 1.378 . S
C247 H262 0.929 . S
C248 C247 1.362 . S
C248 C249 1.366 . S
C249 C246 1.365 . S
C249 C248 1.366 . S
C249 H263 0.930 . S
C250 C247 1.378 . S
C250 N251 1.315 . S
C250 H253 0.930 . S
N251 Co231 2.194 . S
N251 C246 1.328 . S
N251 C250 1.315 . S
H252 C246 0.929 . S
H253 C250 0.930 . S
H254 C242 0.929 . S
H255 C244 0.929 . S
O256 Co231 2.351 . S
O256 C259 1.244 . S
O257 Co231 2.155 . S
O257 C259 1.240 . S
O258 Co231 2.096 . S
O258 C239 1.247 . S
C259 O256 1.244 . S
C259 O257 1.240 . S
H260 C234 0.931 . S
H261 C243 0.931 . S
H262 C247 0.929 . S
H263 C249 0.930 . S
Co264 N268 2.148 . S
Co264 N274 2.128 . S
Co264 N284 2.194 . S
Co264 O289 2.351 . S
Co264 O290 2.155 . S
Co264 O291 2.096 . S
C265 N268 1.301 . S
C265 N269 1.328 . S
C265 H270 0.930 . S
C266 C267 1.333 . S
C266 N268 1.317 . S
C266 H271 0.930 . S
C267 C266 1.333 . S
C267 N269 1.350 . S
C267 H293 0.931 . S
N268 Co264 2.148 . S
N268 C265 1.301 . S
N268 C266 1.317 . S
N269 C265 1.328 . S
N269 C267 1.350 . S
H270 C265 0.930 . S
H271 C266 0.930 . S
C272 O273 1.224 . S
C272 O291 1.247 . S
O273 C272 1.224 . S
N274 Co264 2.128 . S
N274 C275 1.355 . S
N274 C277 1.311 . S
C275 N274 1.355 . S
C275 C276 1.363 . S
C275 H287 0.929 . S
C276 C275 1.363 . S
C276 N278 1.375 . S
C276 H294 0.931 . S
C277 N274 1.311 . S
C277 N278 1.347 . S
C277 H288 0.929 . S
N278 C276 1.375 . S
N278 C277 1.347 . S
C279 C282 1.365 . S
C279 N284 1.328 . S
C279 H285 0.929 . S
C280 C281 1.362 . S
C280 C283 1.378 . S
C280 H295 0.929 . S
C281 C280 1.362 . S
C281 C282 1.366 . S
C282 C279 1.365 . S
C282 C281 1.366 . S
C282 H296 0.930 . S
C283 C280 1.378 . S
C283 N284 1.315 . S
C283 H286 0.930 . S
N284 Co264 2.194 . S
N284 C279 1.328 . S
N284 C283 1.315 . S
H285 C279 0.929 . S
H286 C283 0.930 . S
H287 C275 0.929 . S
H288 C277 0.929 . S
O289 Co264 2.351 . S
O289 C292 1.244 . S
O290 Co264 2.155 . S
O290 C292 1.240 . S
O291 Co264 2.096 . S
O291 C272 1.247 . S
C292 O289 1.244 . S
C292 O290 1.240 . S
H293 C267 0.931 . S
H294 C276 0.931 . S
H295 C280 0.929 . S
H296 C282 0.930 . S
Co297 N301 2.148 . S
Co297 N307 2.128 . S
Co297 N317 2.194 . S
Co297 O322 2.351 . S
Co297 O323 2.155 . S
Co297 O324 2.096 . S
C298 N301 1.301 . S
C298 N302 1.328 . S
C298 H303 0.930 . S
C299 C300 1.333 . S
C299 N301 1.317 . S
C299 H304 0.930 . S
C300 C299 1.333 . S
C300 N302 1.350 . S
C300 H326 0.931 . S
N301 Co297 2.148 . S
N301 C298 1.301 . S
N301 C299 1.317 . S
N302 C298 1.328 . S
N302 C300 1.350 . S
H303 C298 0.930 . S
H304 C299 0.930 . S
C305 O306 1.224 . S
C305 O324 1.247 . S
O306 C305 1.224 . S
N307 Co297 2.128 . S
N307 C308 1.355 . S
N307 C310 1.311 . S
C308 N307 1.355 . S
C308 C309 1.363 . S
C308 H320 0.929 . S
C309 C308 1.363 . S
C309 N311 1.375 . S
C309 H327 0.931 . S
C310 N307 1.311 . S
C310 N311 1.347 . S
C310 H321 0.929 . S
N311 C309 1.375 . S
N311 C310 1.347 . S
C312 C315 1.365 . S
C312 N317 1.328 . S
C312 H318 0.929 . S
C313 C314 1.362 . S
C313 C316 1.378 . S
C313 H328 0.929 . S
C314 C313 1.362 . S
C314 C315 1.366 . S
C315 C312 1.365 . S
C315 C314 1.366 . S
C315 H329 0.930 . S
C316 C313 1.378 . S
C316 N317 1.315 . S
C316 H319 0.930 . S
N317 Co297 2.194 . S
N317 C312 1.328 . S
N317 C316 1.315 . S
H318 C312 0.929 . S
H319 C316 0.930 . S
H320 C308 0.929 . S
H321 C310 0.929 . S
O322 Co297 2.351 . S
O322 C325 1.244 . S
O323 Co297 2.155 . S
O323 C325 1.240 . S
O324 Co297 2.096 . S
O324 C305 1.247 . S
C325 O322 1.244 . S
C325 O323 1.240 . S
H326 C300 0.931 . S
H327 C309 0.931 . S
H328 C313 0.929 . S
H329 C315 0.930 . S
Co330 N334 2.148 . S
Co330 N340 2.128 . S
Co330 N350 2.194 . S
Co330 O355 2.351 . S
Co330 O356 2.155 . S
Co330 O357 2.096 . S
C331 N334 1.301 . S
C331 N335 1.328 . S
C331 H336 0.930 . S
C332 C333 1.333 . S
C332 N334 1.317 . S
C332 H337 0.930 . S
C333 C332 1.333 . S
C333 N335 1.350 . S
C333 H359 0.931 . S
N334 Co330 2.148 . S
N334 C331 1.301 . S
N334 C332 1.317 . S
N335 C331 1.328 . S
N335 C333 1.350 . S
H336 C331 0.930 . S
H337 C332 0.930 . S
C338 O339 1.224 . S
C338 O357 1.247 . S
O339 C338 1.224 . S
N340 Co330 2.128 . S
N340 C341 1.355 . S
N340 C343 1.311 . S
C341 N340 1.355 . S
C341 C342 1.363 . S
C341 H353 0.929 . S
C342 C341 1.363 . S
C342 N344 1.375 . S
C342 H360 0.931 . S
C343 N340 1.311 . S
C343 N344 1.347 . S
C343 H354 0.929 . S
N344 C342 1.375 . S
N344 C343 1.347 . S
C345 C348 1.365 . S
C345 N350 1.328 . S
C345 H351 0.929 . S
C346 C347 1.362 . S
C346 C349 1.378 . S
C346 H361 0.929 . S
C347 C346 1.362 . S
C347 C348 1.366 . S
C348 C345 1.365 . S
C348 C347 1.366 . S
C348 H362 0.930 . S
C349 C346 1.378 . S
C349 N350 1.315 . S
C349 H352 0.930 . S
N350 Co330 2.194 . S
N350 C345 1.328 . S
N350 C349 1.315 . S
H351 C345 0.929 . S
H352 C349 0.930 . S
H353 C341 0.929 . S
H354 C343 0.929 . S
O355 Co330 2.351 . S
O355 C358 1.244 . S
O356 Co330 2.155 . S
O356 C358 1.240 . S
O357 Co330 2.096 . S
O357 C338 1.247 . S
C358 O355 1.244 . S
C358 O356 1.240 . S
H359 C333 0.931 . S
H360 C342 0.931 . S
H361 C346 0.929 . S
H362 C348 0.930 . S
Co363 N367 2.148 . S
Co363 N373 2.128 . S
Co363 N383 2.194 . S
Co363 O388 2.351 . S
Co363 O389 2.155 . S
Co363 O390 2.096 . S
C364 N367 1.301 . S
C364 N368 1.328 . S
C364 H369 0.930 . S
C365 C366 1.333 . S
C365 N367 1.317 . S
C365 H370 0.930 . S
C366 C365 1.333 . S
C366 N368 1.350 . S
C366 H392 0.931 . S
N367 Co363 2.148 . S
N367 C364 1.301 . S
N367 C365 1.317 . S
N368 C364 1.328 . S
N368 C366 1.350 . S
H369 C364 0.930 . S
H370 C365 0.930 . S
C371 O372 1.224 . S
C371 O390 1.247 . S
O372 C371 1.224 . S
N373 Co363 2.128 . S
N373 C374 1.355 . S
N373 C376 1.311 . S
C374 N373 1.355 . S
C374 C375 1.363 . S
C374 H386 0.929 . S
C375 C374 1.363 . S
C375 N377 1.375 . S
C375 H393 0.931 . S
C376 N373 1.311 . S
C376 N377 1.347 . S
C376 H387 0.929 . S
N377 C375 1.375 . S
N377 C376 1.347 . S
C378 C381 1.365 . S
C378 N383 1.328 . S
C378 H384 0.929 . S
C379 C380 1.362 . S
C379 C382 1.378 . S
C379 H394 0.929 . S
C380 C379 1.362 . S
C380 C381 1.366 . S
C381 C378 1.365 . S
C381 C380 1.366 . S
C381 H395 0.930 . S
C382 C379 1.378 . S
C382 N383 1.315 . S
C382 H385 0.930 . S
N383 Co363 2.194 . S
N383 C378 1.328 . S
N383 C382 1.315 . S
H384 C378 0.929 . S
H385 C382 0.930 . S
H386 C374 0.929 . S
H387 C376 0.929 . S
O388 Co363 2.351 . S
O388 C391 1.244 . S
O389 Co363 2.155 . S
O389 C391 1.240 . S
O390 Co363 2.096 . S
O390 C371 1.247 . S
C391 O388 1.244 . S
C391 O389 1.240 . S
H392 C366 0.931 . S
H393 C375 0.931 . S
H394 C379 0.929 . S
H395 C381 0.930 . S
Co396 N400 2.148 . S
Co396 N406 2.128 . S
Co396 N416 2.194 . S
Co396 O421 2.351 . S
Co396 O422 2.155 . S
Co396 O423 2.096 . S
C397 N400 1.301 . S
C397 N401 1.328 . S
C397 H402 0.930 . S
C398 C399 1.333 . S
C398 N400 1.317 . S
C398 H403 0.930 . S
C399 C398 1.333 . S
C399 N401 1.350 . S
C399 H425 0.931 . S
N400 Co396 2.148 . S
N400 C397 1.301 . S
N400 C398 1.317 . S
N401 C397 1.328 . S
N401 C399 1.350 . S
H402 C397 0.930 . S
H403 C398 0.930 . S
C404 O405 1.224 . S
C404 O423 1.247 . S
O405 C404 1.224 . S
N406 Co396 2.128 . S
N406 C407 1.355 . S
N406 C409 1.311 . S
C407 N406 1.355 . S
C407 C408 1.363 . S
C407 H419 0.929 . S
C408 C407 1.363 . S
C408 N410 1.375 . S
C408 H426 0.931 . S
C409 N406 1.311 . S
C409 N410 1.347 . S
C409 H420 0.929 . S
N410 C408 1.375 . S
N410 C409 1.347 . S
C411 C414 1.365 . S
C411 N416 1.328 . S
C411 H417 0.929 . S
C412 C413 1.362 . S
C412 C415 1.378 . S
C412 H427 0.929 . S
C413 C412 1.362 . S
C413 C414 1.366 . S
C414 C411 1.365 . S
C414 C413 1.366 . S
C414 H428 0.930 . S
C415 C412 1.378 . S
C415 N416 1.315 . S
C415 H418 0.930 . S
N416 Co396 2.194 . S
N416 C411 1.328 . S
N416 C415 1.315 . S
H417 C411 0.929 . S
H418 C415 0.930 . S
H419 C407 0.929 . S
H420 C409 0.929 . S
O421 Co396 2.351 . S
O421 C424 1.244 . S
O422 Co396 2.155 . S
O422 C424 1.240 . S
O423 Co396 2.096 . S
O423 C404 1.247 . S
C424 O421 1.244 . S
C424 O422 1.240 . S
H425 C399 0.931 . S
H426 C408 0.931 . S
H427 C412 0.929 . S
H428 C414 0.930 . S
Co429 N433 2.148 . S
Co429 N439 2.128 . S
Co429 N449 2.194 . S
Co429 O454 2.351 . S
Co429 O455 2.155 . S
Co429 O456 2.096 . S
C430 N433 1.301 . S
C430 N434 1.328 . S
C430 H435 0.930 . S
C431 C432 1.333 . S
C431 N433 1.317 . S
C431 H436 0.930 . S
C432 C431 1.333 . S
C432 N434 1.350 . S
C432 H458 0.931 . S
N433 Co429 2.148 . S
N433 C430 1.301 . S
N433 C431 1.317 . S
N434 C430 1.328 . S
N434 C432 1.350 . S
H435 C430 0.930 . S
H436 C431 0.930 . S
C437 O438 1.224 . S
C437 O456 1.247 . S
O438 C437 1.224 . S
N439 Co429 2.128 . S
N439 C440 1.355 . S
N439 C442 1.311 . S
C440 N439 1.355 . S
C440 C441 1.363 . S
C440 H452 0.929 . S
C441 C440 1.363 . S
C441 N443 1.375 . S
C441 H459 0.931 . S
C442 N439 1.311 . S
C442 N443 1.347 . S
C442 H453 0.929 . S
N443 C441 1.375 . S
N443 C442 1.347 . S
C444 C447 1.365 . S
C444 N449 1.328 . S
C444 H450 0.929 . S
C445 C446 1.362 . S
C445 C448 1.378 . S
C445 H460 0.929 . S
C446 C445 1.362 . S
C446 C447 1.366 . S
C447 C444 1.365 . S
C447 C446 1.366 . S
C447 H461 0.930 . S
C448 C445 1.378 . S
C448 N449 1.315 . S
C448 H451 0.930 . S
N449 Co429 2.194 . S
N449 C444 1.328 . S
N449 C448 1.315 . S
H450 C444 0.929 . S
H451 C448 0.930 . S
H452 C440 0.929 . S
H453 C442 0.929 . S
O454 Co429 2.351 . S
O454 C457 1.244 . S
O455 Co429 2.155 . S
O455 C457 1.240 . S
O456 Co429 2.096 . S
O456 C437 1.247 . S
C457 O454 1.244 . S
C457 O455 1.240 . S
H458 C432 0.931 . S
H459 C441 0.931 . S
H460 C445 0.929 . S
H461 C447 0.930 . S
Co462 N466 2.148 . S
Co462 N472 2.128 . S
Co462 N482 2.194 . S
Co462 O487 2.351 . S
Co462 O488 2.155 . S
Co462 O489 2.096 . S
C463 N466 1.301 . S
C463 N467 1.328 . S
C463 H468 0.930 . S
C464 C465 1.333 . S
C464 N466 1.317 . S
C464 H469 0.930 . S
C465 C464 1.333 . S
C465 N467 1.350 . S
C465 H491 0.931 . S
N466 Co462 2.148 . S
N466 C463 1.301 . S
N466 C464 1.317 . S
N467 C463 1.328 . S
N467 C465 1.350 . S
H468 C463 0.930 . S
H469 C464 0.930 . S
C470 O471 1.224 . S
C470 O489 1.247 . S
O471 C470 1.224 . S
N472 Co462 2.128 . S
N472 C473 1.355 . S
N472 C475 1.311 . S
C473 N472 1.355 . S
C473 C474 1.363 . S
C473 H485 0.929 . S
C474 C473 1.363 . S
C474 N476 1.375 . S
C474 H492 0.931 . S
C475 N472 1.311 . S
C475 N476 1.347 . S
C475 H486 0.929 . S
N476 C474 1.375 . S
N476 C475 1.347 . S
C477 C480 1.365 . S
C477 N482 1.328 . S
C477 H483 0.929 . S
C478 C479 1.362 . S
C478 C481 1.378 . S
C478 H493 0.929 . S
C479 C478 1.362 . S
C479 C480 1.366 . S
C480 C477 1.365 . S
C480 C479 1.366 . S
C480 H494 0.930 . S
C481 C478 1.378 . S
C481 N482 1.315 . S
C481 H484 0.930 . S
N482 Co462 2.194 . S
N482 C477 1.328 . S
N482 C481 1.315 . S
H483 C477 0.929 . S
H484 C481 0.930 . S
H485 C473 0.929 . S
H486 C475 0.929 . S
O487 Co462 2.351 . S
O487 C490 1.244 . S
O488 Co462 2.155 . S
O488 C490 1.240 . S
O489 Co462 2.096 . S
O489 C470 1.247 . S
C490 O487 1.244 . S
C490 O488 1.240 . S
H491 C465 0.931 . S
H492 C474 0.931 . S
H493 C478 0.929 . S
H494 C480 0.930 . S
Co495 N499 2.148 . S
Co495 N505 2.128 . S
Co495 N515 2.194 . S
Co495 O520 2.351 . S
Co495 O521 2.155 . S
Co495 O522 2.096 . S
C496 N499 1.301 . S
C496 N500 1.328 . S
C496 H501 0.930 . S
C497 C498 1.333 . S
C497 N499 1.317 . S
C497 H502 0.930 . S
C498 C497 1.333 . S
C498 N500 1.350 . S
C498 H524 0.931 . S
N499 Co495 2.148 . S
N499 C496 1.301 . S
N499 C497 1.317 . S
N500 C496 1.328 . S
N500 C498 1.350 . S
H501 C496 0.930 . S
H502 C497 0.930 . S
C503 O504 1.224 . S
C503 O522 1.247 . S
O504 C503 1.224 . S
N505 Co495 2.128 . S
N505 C506 1.355 . S
N505 C508 1.311 . S
C506 N505 1.355 . S
C506 C507 1.363 . S
C506 H518 0.929 . S
C507 C506 1.363 . S
C507 N509 1.375 . S
C507 H525 0.931 . S
C508 N505 1.311 . S
C508 N509 1.347 . S
C508 H519 0.929 . S
N509 C507 1.375 . S
N509 C508 1.347 . S
C510 C513 1.365 . S
C510 N515 1.328 . S
C510 H516 0.929 . S
C511 C512 1.362 . S
C511 C514 1.378 . S
C511 H526 0.929 . S
C512 C511 1.362 . S
C512 C513 1.366 . S
C513 C510 1.365 . S
C513 C512 1.366 . S
C513 H527 0.930 . S
C514 C511 1.378 . S
C514 N515 1.315 . S
C514 H517 0.930 . S
N515 Co495 2.194 . S
N515 C510 1.328 . S
N515 C514 1.315 . S
H516 C510 0.929 . S
H517 C514 0.930 . S
H518 C506 0.929 . S
H519 C508 0.929 . S
O520 Co495 2.351 . S
O520 C523 1.244 . S
O521 Co495 2.155 . S
O521 C523 1.240 . S
O522 Co495 2.096 . S
O522 C503 1.247 . S
C523 O520 1.244 . S
C523 O521 1.240 . S
H524 C498 0.931 . S
H525 C507 0.931 . S
H526 C511 0.929 . S
H527 C513 0.930 . S
C528 C529 1.349 . S
C528 C530 1.327 . S
C528 H553 0.950 . S
C529 C528 1.349 . S
C529 C545 1.349 . S
C530 C528 1.327 . S
C530 C549 1.429 . S
C530 H554 0.950 . S
C531 C548 1.574 1_655 S
C531 C550 1.368 . S
C531 H555 0.949 . S
H532 C536 0.933 1_455 S
C533 C534 1.349 . S
C533 C535 1.327 . S
C533 H556 0.950 . S
C534 C533 1.349 . S
C534 C546 1.349 . S
C535 C533 1.327 . S
C535 C551 1.429 . S
C535 H557 0.950 . S
C536 H532 0.933 1_655 S
C536 C544 1.605 . S
C536 C552 1.356 1_655 S
H537 C545 0.950 . S
H538 C543 0.950 . S
H539 C544 0.949 . S
H540 C546 0.950 . S
H541 C547 0.950 . S
H542 C548 0.949 . S
C543 H538 0.950 . S
C543 C545 1.327 . S
C543 C549 1.429 . S
C544 C536 1.605 . S
C544 H539 0.949 . S
C544 C550 1.368 . S
C545 C529 1.349 . S
C545 H537 0.950 . S
C545 C543 1.327 . S
C546 C534 1.349 . S
C546 H540 0.950 . S
C546 C547 1.327 . S
C547 H541 0.950 . S
C547 C546 1.327 . S
C547 C551 1.429 . S
C548 C531 1.574 1_455 S
C548 H542 0.949 . S
C548 C552 1.368 . S
C549 C530 1.429 . S
C549 C543 1.429 . S
C549 C550 1.523 . S
C550 C531 1.368 . S
C550 C544 1.368 . S
C550 C549 1.523 . S
C551 C535 1.429 . S
C551 C547 1.429 . S
C551 C552 1.523 . S
C552 C536 1.356 1_455 S
C552 C548 1.368 . S
C552 C551 1.523 . S
H553 C528 0.950 . S
H554 C530 0.950 . S
H555 C531 0.949 . S
H556 C533 0.950 . S
H557 C535 0.950 . S
C558 C559 1.349 . S
C558 C560 1.327 . S
C558 H583 0.950 . S
C559 C558 1.349 . S
C559 C575 1.349 . S
C560 C558 1.327 . S
C560 C579 1.429 . S
C560 H584 0.950 . S
C561 C578 1.574 1_545 S
C561 C580 1.368 . S
C561 H585 0.949 . S
H562 C566 0.949 . S
C563 C564 1.349 . S
C563 C565 1.327 . S
C563 H586 0.950 . S
C564 C563 1.349 . S
C564 C576 1.349 . S
C565 C563 1.327 . S
C565 C581 1.429 . S
C565 H587 0.950 . S
C566 H562 0.949 . S
C566 C574 1.574 1_565 S
C566 C582 1.368 . S
H567 C575 0.950 . S
H568 C573 0.950 . S
H569 C574 0.949 . S
H570 C576 0.950 . S
H571 C577 0.950 . S
H572 C578 0.949 . S
C573 H568 0.950 . S
C573 C575 1.327 . S
C573 C579 1.429 . S
C574 C566 1.574 1_545 S
C574 H569 0.949 . S
C574 C580 1.368 . S
C575 C559 1.349 . S
C575 H567 0.950 . S
C575 C573 1.327 . S
C576 C564 1.349 . S
C576 H570 0.950 . S
C576 C577 1.327 . S
C577 H571 0.950 . S
C577 C576 1.327 . S
C577 C581 1.429 . S
C578 C561 1.574 1_565 S
C578 H572 0.949 . S
C578 C582 1.368 . S
C579 C560 1.429 . S
C579 C573 1.429 . S
C579 C580 1.523 . S
C580 C561 1.368 . S
C580 C574 1.368 . S
C580 C579 1.523 . S
C581 C565 1.429 . S
C581 C577 1.429 . S
C581 C582 1.523 . S
C582 C566 1.368 . S
C582 C578 1.368 . S
C582 C581 1.523 . S
H583 C558 0.950 . S
H584 C560 0.950 . S
H585 C561 0.949 . S
H586 C563 0.950 . S
H587 C565 0.950 . S
C588 C589 1.349 . S
C588 C590 1.327 . S
C588 H613 0.950 . S
C589 C588 1.349 . S
C589 C605 1.349 . S
C590 C588 1.327 . S
C590 C609 1.429 . S
C590 H614 0.950 . S
C591 C608 1.574 1_655 S
C591 C610 1.368 . S
C591 H615 0.949 . S
H592 C596 0.949 . S
C593 C594 1.349 . S
C593 C595 1.327 . S
C593 H616 0.950 . S
C594 C593 1.349 . S
C594 C606 1.349 . S
C595 C593 1.327 . S
C595 C611 1.429 . S
C595 H617 0.950 . S
C596 H592 0.949 . S
C596 C604 1.574 . S
C596 C612 1.368 . S
H597 C605 0.950 . S
H598 C603 0.950 . S
H599 C604 0.949 1_655 S
H600 C606 0.950 . S
H601 C607 0.950 . S
H602 C608 0.949 . S
C603 H598 0.950 . S
C603 C605 1.327 . S
C603 C609 1.429 . S
C604 C596 1.574 . S
C604 H599 0.949 1_455 S
C604 C610 1.368 1_455 S
C605 C589 1.349 . S
C605 H597 0.950 . S
C605 C603 1.327 . S
C606 C594 1.349 . S
C606 H600 0.950 . S
C606 C607 1.327 . S
C607 H601 0.950 . S
C607 C606 1.327 . S
C607 C611 1.429 . S
C608 C591 1.574 1_455 S
C608 H602 0.949 . S
C608 C612 1.368 . S
C609 C590 1.429 . S
C609 C603 1.429 . S
C609 C610 1.523 . S
C610 C591 1.368 . S
C610 C604 1.368 1_655 S
C610 C609 1.523 . S
C611 C595 1.429 . S
C611 C607 1.429 . S
C611 C612 1.523 . S
C612 C596 1.368 . S
C612 C608 1.368 . S
C612 C611 1.523 . S
H613 C588 0.950 . S
H614 C590 0.950 . S
H615 C591 0.949 . S
H616 C593 0.950 . S
H617 C595 0.950 . S
C618 C619 1.349 . S
C618 C620 1.327 . S
C618 H643 0.950 . S
C619 C618 1.349 . S
C619 C635 1.349 . S
C620 C618 1.327 . S
C620 C639 1.429 . S
C620 H644 0.950 . S
C621 C638 1.574 1_565 S
C621 C640 1.368 . S
C621 H645 0.949 . S
H622 C626 0.949 . S
C623 C624 1.349 . S
C623 C625 1.327 . S
C623 H646 0.950 . S
C624 C623 1.349 . S
C624 C636 1.349 . S
C625 C623 1.327 . S
C625 C641 1.429 . S
C625 H647 0.950 . S
C626 H622 0.949 . S
C626 C634 1.574 1_545 S
C626 C642 1.368 . S
H627 C635 0.950 . S
H628 C633 0.950 . S
H629 C634 0.949 . S
H630 C636 0.950 . S
H631 C637 0.950 . S
H632 C638 0.949 . S
C633 H628 0.950 . S
C633 C635 1.327 . S
C633 C639 1.429 . S
C634 C626 1.574 1_565 S
C634 H629 0.949 . S
C634 C640 1.368 . S
C635 C619 1.349 . S
C635 H627 0.950 . S
C635 C633 1.327 . S
C636 C624 1.349 . S
C636 H630 0.950 . S
C636 C637 1.327 . S
C637 H631 0.950 . S
C637 C636 1.327 . S
C637 C641 1.429 . S
C638 C621 1.574 1_545 S
C638 H632 0.949 . S
C638 C642 1.368 . S
C639 C620 1.429 . S
C639 C633 1.429 . S
C639 C640 1.523 . S
C640 C621 1.368 . S
C640 C634 1.368 . S
C640 C639 1.523 . S
C641 C625 1.429 . S
C641 C637 1.429 . S
C641 C642 1.523 . S
C642 C626 1.368 . S
C642 C638 1.368 . S
C642 C641 1.523 . S
H643 C618 0.950 . S
H644 C620 0.950 . S
H645 C621 0.949 . S
H646 C623 0.950 . S
H647 C625 0.950 . S
C648 C649 1.349 . S
C648 C650 1.327 . S
C648 H673 0.950 . S
C649 C648 1.349 . S
C649 C665 1.349 . S
C650 C648 1.327 . S
C650 C669 1.429 . S
C650 H674 0.950 . S
C651 C668 1.574 1_655 S
C651 C670 1.368 . S
C651 H675 0.949 . S
H652 C656 0.949 . S
C653 C654 1.349 . S
C653 C655 1.327 . S
C653 H676 0.950 . S
C654 C653 1.349 . S
C654 C666 1.349 . S
C655 C653 1.327 . S
C655 C671 1.429 . S
C655 H677 0.950 . S
C656 H652 0.949 . S
C656 C664 1.574 1_455 S
C656 C672 1.368 . S
H657 C665 0.950 . S
H658 C663 0.950 . S
H659 C664 0.949 . S
H660 C666 0.950 . S
H661 C667 0.950 . S
H662 C668 0.949 . S
C663 H658 0.950 . S
C663 C665 1.327 . S
C663 C669 1.429 . S
C664 C656 1.574 1_655 S
C664 H659 0.949 . S
C664 C670 1.368 . S
C665 C649 1.349 . S
C665 H657 0.950 . S
C665 C663 1.327 . S
C666 C654 1.349 . S
C666 H660 0.950 . S
C666 C667 1.327 . S
C667 H661 0.950 . S
C667 C666 1.327 . S
C667 C671 1.429 . S
C668 C651 1.574 1_455 S
C668 H662 0.949 . S
C668 C672 1.368 . S
C669 C650 1.429 . S
C669 C663 1.429 . S
C669 C670 1.523 . S
C670 C651 1.368 . S
C670 C664 1.368 . S
C670 C669 1.523 . S
C671 C655 1.429 . S
C671 C667 1.429 . S
C671 C672 1.523 . S
C672 C656 1.368 . S
C672 C668 1.368 . S
C672 C671 1.523 . S
H673 C648 0.950 . S
H674 C650 0.950 . S
H675 C651 0.949 . S
H676 C653 0.950 . S
H677 C655 0.950 . S
C678 C679 1.349 . S
C678 C680 1.327 . S
C678 H703 0.950 . S
C679 C678 1.349 . S
C679 C695 1.349 . S
C680 C678 1.327 . S
C680 C699 1.429 . S
C680 H704 0.950 . S
C681 C698 1.574 . S
C681 C700 1.368 . S
C681 H705 0.949 . S
H682 C686 0.949 . S
C683 C684 1.349 . S
C683 C685 1.327 . S
C683 H706 0.950 . S
C684 C683 1.349 . S
C684 C696 1.349 . S
C685 C683 1.327 . S
C685 C701 1.429 . S
C685 H707 0.950 . S
C686 H682 0.949 . S
C686 C694 1.574 1_545 S
C686 C702 1.368 . S
H687 C695 0.950 . S
H688 C693 0.950 . S
H689 C694 0.949 . S
H690 C696 0.950 . S
H691 C697 0.950 . S
H692 C698 0.949 1_545 S
C693 H688 0.950 . S
C693 C695 1.327 . S
C693 C699 1.429 . S
C694 C686 1.574 1_565 S
C694 H689 0.949 . S
C694 C700 1.368 . S
C695 C679 1.349 . S
C695 H687 0.950 . S
C695 C693 1.327 . S
C696 C684 1.349 . S
C696 H690 0.950 . S
C696 C697 1.327 . S
C697 H691 0.950 . S
C697 C696 1.327 . S
C697 C701 1.429 . S
C698 C681 1.574 . S
C698 H692 0.949 1_565 S
C698 C702 1.368 1_565 S
C699 C680 1.429 . S
C699 C693 1.429 . S
C699 C700 1.523 . S
C700 C681 1.368 . S
C700 C694 1.368 . S
C700 C699 1.523 . S
C701 C685 1.429 . S
C701 C697 1.429 . S
C701 C702 1.523 . S
C702 C686 1.368 . S
C702 C698 1.368 1_545 S
C702 C701 1.523 . S
H703 C678 0.950 . S
H704 C680 0.950 . S
H705 C681 0.949 . S
H706 C683 0.950 . S
H707 C685 0.950 . S
C708 C709 1.349 . S
C708 C710 1.327 . S
C708 H733 0.950 . S
C709 C708 1.349 . S
C709 C725 1.349 . S
C710 C708 1.327 . S
C710 C729 1.429 . S
C710 H734 0.950 . S
C711 C728 1.574 1_655 S
C711 C730 1.368 . S
C711 H735 0.949 . S
H712 C716 0.949 . S
C713 C714 1.349 . S
C713 C715 1.327 . S
C713 H736 0.950 . S
C714 C713 1.349 . S
C714 C726 1.349 . S
C715 C713 1.327 . S
C715 C731 1.429 . S
C715 H737 0.950 . S
C716 H712 0.949 . S
C716 C724 1.574 1_455 S
C716 C732 1.368 . S
H717 C725 0.950 . S
H718 C723 0.950 . S
H719 C724 0.949 . S
H720 C726 0.950 . S
H721 C727 0.950 . S
H722 C728 0.949 . S
C723 H718 0.950 . S
C723 C725 1.327 . S
C723 C729 1.429 . S
C724 C716 1.574 1_655 S
C724 H719 0.949 . S
C724 C730 1.368 . S
C725 C709 1.349 . S
C725 H717 0.950 . S
C725 C723 1.327 . S
C726 C714 1.349 . S
C726 H720 0.950 . S
C726 C727 1.327 . S
C727 H721 0.950 . S
C727 C726 1.327 . S
C727 C731 1.429 . S
C728 C711 1.574 1_455 S
C728 H722 0.949 . S
C728 C732 1.368 . S
C729 C710 1.429 . S
C729 C723 1.429 . S
C729 C730 1.523 . S
C730 C711 1.368 . S
C730 C724 1.368 . S
C730 C729 1.523 . S
C731 C715 1.429 . S
C731 C727 1.429 . S
C731 C732 1.523 . S
C732 C716 1.368 . S
C732 C728 1.368 . S
C732 C731 1.523 . S
H733 C708 0.950 . S
H734 C710 0.950 . S
H735 C711 0.949 . S
H736 C713 0.950 . S
H737 C715 0.950 . S
C738 C739 1.349 . S
C738 C740 1.327 . S
C738 H763 0.950 . S
C739 C738 1.349 . S
C739 C755 1.349 . S
C740 C738 1.327 . S
C740 C759 1.429 . S
C740 H764 0.950 . S
C741 C758 1.574 1_545 S
C741 C760 1.368 . S
C741 H765 0.949 . S
H742 C746 0.949 1_565 S
C743 C744 1.349 . S
C743 C745 1.327 . S
C743 H766 0.950 . S
C744 C743 1.349 . S
C744 C756 1.349 . S
C745 C743 1.327 . S
C745 C761 1.429 . S
C745 H767 0.950 . S
C746 H742 0.949 1_545 S
C746 C754 1.574 . S
C746 C762 1.368 1_545 S
H747 C755 0.950 . S
H748 C753 0.950 . S
H749 C754 0.949 . S
H750 C756 0.950 . S
H751 C757 0.950 . S
H752 C758 0.949 . S
C753 H748 0.950 . S
C753 C755 1.327 . S
C753 C759 1.429 . S
C754 C746 1.574 . S
C754 H749 0.949 . S
C754 C760 1.368 . S
C755 C739 1.349 . S
C755 H747 0.950 . S
C755 C753 1.327 . S
C756 C744 1.349 . S
C756 H750 0.950 . S
C756 C757 1.327 . S
C757 H751 0.950 . S
C757 C756 1.327 . S
C757 C761 1.429 . S
C758 C741 1.574 1_565 S
C758 H752 0.949 . S
C758 C762 1.368 . S
C759 C740 1.429 . S
C759 C753 1.429 . S
C759 C760 1.523 . S
C760 C741 1.368 . S
C760 C754 1.368 . S
C760 C759 1.523 . S
C761 C745 1.429 . S
C761 C757 1.429 . S
C761 C762 1.523 . S
C762 C746 1.368 1_565 S
C762 C758 1.368 . S
C762 C761 1.523 . S
H763 C738 0.950 . S
H764 C740 0.950 . S
H765 C741 0.949 . S
H766 C743 0.950 . S
H767 C745 0.950 . S
C768 C769 1.349 . S
C768 C770 1.327 . S
C768 H793 0.950 . S
C769 C768 1.349 . S
C769 C785 1.349 . S
C770 C768 1.327 . S
C770 C789 1.429 . S
C770 H794 0.950 . S
C771 C788 1.574 . S
C771 C790 1.368 . S
C771 H795 0.949 . S
H772 C776 0.949 . S
C773 C774 1.349 . S
C773 C775 1.327 . S
C773 H796 0.950 . S
C774 C773 1.349 . S
C774 C786 1.349 . S
C775 C773 1.327 . S
C775 C791 1.429 . S
C775 H797 0.950 . S
C776 H772 0.949 . S
C776 C784 1.574 . S
C776 C792 1.368 . S
H777 C785 0.950 . S
H778 C783 0.950 . S
H779 C784 0.949 . S
H780 C786 0.950 . S
H781 C787 0.950 . S
H782 C788 0.949 . S
C783 H778 0.950 . S
C783 C785 1.327 . S
C783 C789 1.429 . S
C784 C776 1.574 . S
C784 H779 0.949 . S
C784 C790 1.368 . S
C785 C769 1.349 . S
C785 H777 0.950 . S
C785 C783 1.327 . S
C786 C774 1.349 . S
C786 H780 0.950 . S
C786 C787 1.327 . S
C787 H781 0.950 . S
C787 C786 1.327 . S
C787 C791 1.429 . S
C788 C771 1.574 . S
C788 H782 0.949 . S
C788 C792 1.368 . S
C789 C770 1.429 . S
C789 C783 1.429 . S
C789 C790 1.523 . S
C790 C771 1.368 . S
C790 C784 1.368 . S
C790 C789 1.523 . S
C791 C775 1.429 . S
C791 C787 1.429 . S
C791 C792 1.523 . S
C792 C776 1.368 . S
C792 C788 1.368 . S
C792 C791 1.523 . S
H793 C768 0.950 . S
H794 C770 0.950 . S
H795 C771 0.949 . S
H796 C773 0.950 . S
H797 C775 0.950 . S
C798 C799 1.349 . S
C798 C800 1.327 . S
C798 H823 0.950 . S
C799 C798 1.349 . S
C799 C815 1.349 . S
C800 C798 1.327 . S
C800 C819 1.429 . S
C800 H824 0.950 . S
C801 C818 1.574 . S
C801 C820 1.368 . S
C801 H825 0.949 . S
H802 C806 0.949 . S
C803 C804 1.349 . S
C803 C805 1.327 . S
C803 H826 0.950 . S
C804 C803 1.349 . S
C804 C816 1.349 . S
C805 C803 1.327 . S
C805 C821 1.429 . S
C805 H827 0.950 . S
C806 H802 0.949 . S
C806 C814 1.574 . S
C806 C822 1.368 . S
H807 C815 0.950 . S
H808 C813 0.950 . S
H809 C814 0.949 . S
H810 C816 0.950 . S
H811 C817 0.950 . S
H812 C818 0.949 . S
C813 H808 0.950 . S
C813 C815 1.327 . S
C813 C819 1.429 . S
C814 C806 1.574 . S
C814 H809 0.949 . S
C814 C820 1.368 . S
C815 C799 1.349 . S
C815 H807 0.950 . S
C815 C813 1.327 . S
C816 C804 1.349 . S
C816 H810 0.950 . S
C816 C817 1.327 . S
C817 H811 0.950 . S
C817 C816 1.327 . S
C817 C821 1.429 . S
C818 C801 1.574 . S
C818 H812 0.949 . S
C818 C822 1.368 . S
C819 C800 1.429 . S
C819 C813 1.429 . S
C819 C820 1.523 . S
C820 C801 1.368 . S
C820 C814 1.368 . S
C820 C819 1.523 . S
C821 C805 1.429 . S
C821 C817 1.429 . S
C821 C822 1.523 . S
C822 C806 1.368 . S
C822 C818 1.368 . S
C822 C821 1.523 . S
H823 C798 0.950 . S
H824 C800 0.950 . S
H825 C801 0.949 . S
H826 C803 0.950 . S
H827 C805 0.950 . S
C828 C829 1.349 . S
C828 C830 1.327 . S
C828 H853 0.950 . S
C829 C828 1.349 . S
C829 C845 1.349 . S
C830 C828 1.327 . S
C830 C849 1.429 . S
C830 H854 0.950 . S
C831 C848 1.574 . S
C831 C850 1.368 . S
C831 H855 0.949 . S
H832 C836 0.949 . S
C833 C834 1.349 . S
C833 C835 1.327 . S
C833 H856 0.950 . S
C834 C833 1.349 . S
C834 C846 1.349 . S
C835 C833 1.327 . S
C835 C851 1.429 . S
C835 H857 0.950 . S
C836 H832 0.949 . S
C836 C844 1.574 . S
C836 C852 1.368 . S
H837 C845 0.950 . S
H838 C843 0.950 . S
H839 C844 0.949 . S
H840 C846 0.950 . S
H841 C847 0.950 . S
H842 C848 0.949 . S
C843 H838 0.950 . S
C843 C845 1.327 . S
C843 C849 1.429 . S
C844 C836 1.574 . S
C844 H839 0.949 . S
C844 C850 1.368 . S
C845 C829 1.349 . S
C845 H837 0.950 . S
C845 C843 1.327 . S
C846 C834 1.349 . S
C846 H840 0.950 . S
C846 C847 1.327 . S
C847 H841 0.950 . S
C847 C846 1.327 . S
C847 C851 1.429 . S
C848 C831 1.574 . S
C848 H842 0.949 . S
C848 C852 1.368 . S
C849 C830 1.429 . S
C849 C843 1.429 . S
C849 C850 1.523 . S
C850 C831 1.368 . S
C850 C844 1.368 . S
C850 C849 1.523 . S
C851 C835 1.429 . S
C851 C847 1.429 . S
C851 C852 1.523 . S
C852 C836 1.368 . S
C852 C848 1.368 . S
C852 C851 1.523 . S
H853 C828 0.950 . S
H854 C830 0.950 . S
H855 C831 0.949 . S
H856 C833 0.950 . S
H857 C835 0.950 . S
C858 C859 1.349 . S
C858 C860 1.327 . S
C858 H883 0.950 . S
C859 C858 1.349 . S
C859 C875 1.349 . S
C860 C858 1.327 . S
C860 C879 1.429 . S
C860 H884 0.950 . S
C861 C878 1.574 . S
C861 C880 1.368 . S
C861 H885 0.949 . S
H862 C866 0.949 . S
C863 C864 1.349 . S
C863 C865 1.327 . S
C863 H886 0.950 . S
C864 C863 1.349 . S
C864 C876 1.349 . S
C865 C863 1.327 . S
C865 C881 1.429 . S
C865 H887 0.950 . S
C866 H862 0.949 . S
C866 C874 1.574 . S
C866 C882 1.368 . S
H867 C875 0.950 . S
H868 C873 0.950 . S
H869 C874 0.949 . S
H870 C876 0.950 . S
H871 C877 0.950 . S
H872 C878 0.949 . S
C873 H868 0.950 . S
C873 C875 1.327 . S
C873 C879 1.429 . S
C874 C866 1.574 . S
C874 H869 0.949 . S
C874 C880 1.368 . S
C875 C859 1.349 . S
C875 H867 0.950 . S
C875 C873 1.327 . S
C876 C864 1.349 . S
C876 H870 0.950 . S
C876 C877 1.327 . S
C877 H871 0.950 . S
C877 C876 1.327 . S
C877 C881 1.429 . S
C878 C861 1.574 . S
C878 H872 0.949 . S
C878 C882 1.368 . S
C879 C860 1.429 . S
C879 C873 1.429 . S
C879 C880 1.523 . S
C880 C861 1.368 . S
C880 C874 1.368 . S
C880 C879 1.523 . S
C881 C865 1.429 . S
C881 C877 1.429 . S
C881 C882 1.523 . S
C882 C866 1.368 . S
C882 C878 1.368 . S
C882 C881 1.523 . S
H883 C858 0.950 . S
H884 C860 0.950 . S
H885 C861 0.949 . S
H886 C863 0.950 . S
H887 C865 0.950 . S
C888 C889 1.349 . S
C888 C890 1.327 . S
C888 H913 0.950 . S
C889 C888 1.349 . S
C889 C905 1.349 . S
C890 C888 1.327 . S
C890 C909 1.429 . S
C890 H914 0.950 . S
C891 C908 1.574 . S
C891 C910 1.368 . S
C891 H915 0.949 . S
H892 C896 0.949 . S
C893 C894 1.349 . S
C893 C895 1.327 . S
C893 H916 0.950 . S
C894 C893 1.349 . S
C894 C906 1.349 . S
C895 C893 1.327 . S
C895 C911 1.429 . S
C895 H917 0.950 . S
C896 H892 0.949 . S
C896 C904 1.574 . S
C896 C912 1.368 . S
H897 C905 0.950 . S
H898 C903 0.950 . S
H899 C904 0.949 . S
H900 C906 0.950 . S
H901 C907 0.950 . S
H902 C908 0.949 . S
C903 H898 0.950 . S
C903 C905 1.327 . S
C903 C909 1.429 . S
C904 C896 1.574 . S
C904 H899 0.949 . S
C904 C910 1.368 . S
C905 C889 1.349 . S
C905 H897 0.950 . S
C905 C903 1.327 . S
C906 C894 1.349 . S
C906 H900 0.950 . S
C906 C907 1.327 . S
C907 H901 0.950 . S
C907 C906 1.327 . S
C907 C911 1.429 . S
C908 C891 1.574 . S
C908 H902 0.949 . S
C908 C912 1.368 . S
C909 C890 1.429 . S
C909 C903 1.429 . S
C909 C910 1.523 . S
C910 C891 1.368 . S
C910 C904 1.368 . S
C910 C909 1.523 . S
C911 C895 1.429 . S
C911 C907 1.429 . S
C911 C912 1.523 . S
C912 C896 1.368 . S
C912 C908 1.368 . S
C912 C911 1.523 . S
H913 C888 0.950 . S
H914 C890 0.950 . S
H915 C891 0.949 . S
H916 C893 0.950 . S
H917 C895 0.950 . S
C918 C919 1.349 . S
C918 C920 1.327 . S
C918 H943 0.950 . S
C919 C918 1.349 . S
C919 C935 1.349 . S
C920 C918 1.327 . S
C920 C939 1.429 . S
C920 H944 0.950 . S
C921 C938 1.574 . S
C921 C940 1.368 . S
C921 H945 0.949 . S
H922 C926 0.949 . S
C923 C924 1.349 . S
C923 C925 1.327 . S
C923 H946 0.950 . S
C924 C923 1.349 . S
C924 C936 1.349 . S
C925 C923 1.327 . S
C925 C941 1.429 . S
C925 H947 0.950 . S
C926 H922 0.949 . S
C926 C934 1.574 . S
C926 C942 1.368 . S
H927 C935 0.950 . S
H928 C933 0.950 . S
H929 C934 0.949 . S
H930 C936 0.950 . S
H931 C937 0.950 . S
H932 C938 0.949 . S
C933 H928 0.950 . S
C933 C935 1.327 . S
C933 C939 1.429 . S
C934 C926 1.574 . S
C934 H929 0.949 . S
C934 C940 1.368 . S
C935 C919 1.349 . S
C935 H927 0.950 . S
C935 C933 1.327 . S
C936 C924 1.349 . S
C936 H930 0.950 . S
C936 C937 1.327 . S
C937 H931 0.950 . S
C937 C936 1.327 . S
C937 C941 1.429 . S
C938 C921 1.574 . S
C938 H932 0.949 . S
C938 C942 1.368 . S
C939 C920 1.429 . S
C939 C933 1.429 . S
C939 C940 1.523 . S
C940 C921 1.368 . S
C940 C934 1.368 . S
C940 C939 1.523 . S
C941 C925 1.429 . S
C941 C937 1.429 . S
C941 C942 1.523 . S
C942 C926 1.368 . S
C942 C938 1.368 . S
C942 C941 1.523 . S
H943 C918 0.950 . S
H944 C920 0.950 . S
H945 C921 0.949 . S
H946 C923 0.950 . S
H947 C925 0.950 . S
C948 C949 1.349 . S
C948 C950 1.327 . S
C948 H973 0.950 . S
C949 C948 1.349 . S
C949 C965 1.349 . S
C950 C948 1.327 . S
C950 C969 1.429 . S
C950 H974 0.950 . S
C951 C968 1.574 . S
C951 C970 1.368 . S
C951 H975 0.949 . S
H952 C956 0.949 . S
C953 C954 1.349 . S
C953 C955 1.327 . S
C953 H976 0.950 . S
C954 C953 1.349 . S
C954 C966 1.349 . S
C955 C953 1.327 . S
C955 C971 1.429 . S
C955 H977 0.950 . S
C956 H952 0.949 . S
C956 C964 1.574 . S
C956 C972 1.368 . S
H957 C965 0.950 . S
H958 C963 0.950 . S
H959 C964 0.949 . S
H960 C966 0.950 . S
H961 C967 0.950 . S
H962 C968 0.949 . S
C963 H958 0.950 . S
C963 C965 1.327 . S
C963 C969 1.429 . S
C964 C956 1.574 . S
C964 H959 0.949 . S
C964 C970 1.368 . S
C965 C949 1.349 . S
C965 H957 0.950 . S
C965 C963 1.327 . S
C966 C954 1.349 . S
C966 H960 0.950 . S
C966 C967 1.327 . S
C967 H961 0.950 . S
C967 C966 1.327 . S
C967 C971 1.429 . S
C968 C951 1.574 . S
C968 H962 0.949 . S
C968 C972 1.368 . S
C969 C950 1.429 . S
C969 C963 1.429 . S
C969 C970 1.523 . S
C970 C951 1.368 . S
C970 C964 1.368 . S
C970 C969 1.523 . S
C971 C955 1.429 . S
C971 C967 1.429 . S
C971 C972 1.523 . S
C972 C956 1.368 . S
C972 C968 1.368 . S
C972 C971 1.523 . S
H973 C948 0.950 . S
H974 C950 0.950 . S
H975 C951 0.949 . S
H976 C953 0.950 . S
H977 C955 0.950 . S
C978 C979 1.349 . S
C978 C980 1.327 . S
C978 H1003 0.950 . S
C979 C978 1.349 . S
C979 C995 1.349 . S
C980 C978 1.327 . S
C980 C999 1.429 . S
C980 H1004 0.950 . S
C981 C998 1.574 . S
C981 C1000 1.368 . S
C981 H1005 0.949 . S
H982 C986 0.949 . S
C983 C984 1.349 . S
C983 C985 1.327 . S
C983 H1006 0.950 . S
C984 C983 1.349 . S
C984 C996 1.349 . S
C985 C983 1.327 . S
C985 C1001 1.429 . S
C985 H1007 0.950 . S
C986 H982 0.949 . S
C986 C994 1.574 . S
C986 C1002 1.368 . S
H987 C995 0.950 . S
H988 C993 0.950 . S
H989 C994 0.949 . S
H990 C996 0.950 . S
H991 C997 0.950 . S
H992 C998 0.949 . S
C993 H988 0.950 . S
C993 C995 1.327 . S
C993 C999 1.429 . S
C994 C986 1.574 . S
C994 H989 0.949 . S
C994 C1000 1.368 . S
C995 C979 1.349 . S
C995 H987 0.950 . S
C995 C993 1.327 . S
C996 C984 1.349 . S
C996 H990 0.950 . S
C996 C997 1.327 . S
C997 H991 0.950 . S
C997 C996 1.327 . S
C997 C1001 1.429 . S
C998 C981 1.574 . S
C998 H992 0.949 . S
C998 C1002 1.368 . S
C999 C980 1.429 . S
C999 C993 1.429 . S
C999 C1000 1.523 . S
C1000 C981 1.368 . S
C1000 C994 1.368 . S
C1000 C999 1.523 . S
C1001 C985 1.429 . S
C1001 C997 1.429 . S
C1001 C1002 1.523 . S
C1002 C986 1.368 . S
C1002 C998 1.368 . S
C1002 C1001 1.523 . S
H1003 C978 0.950 . S
H1004 C980 0.950 . S
H1005 C981 0.949 . S
H1006 C983 0.950 . S
H1007 C985 0.950 . S
C1008 C1009 1.349 . S
C1008 C1010 1.327 . S
C1008 H1033 0.950 . S
C1009 C1008 1.349 . S
C1009 C1025 1.349 . S
C1010 C1008 1.327 . S
C1010 C1029 1.429 . S
C1010 H1034 0.950 . S
C1011 C1028 1.574 1_554 S
C1011 C1030 1.368 . S
C1011 H1035 0.949 . S
H1012 C1016 0.949 . S
C1013 C1014 1.349 . S
C1013 C1015 1.327 . S
C1013 H1036 0.950 . S
C1014 C1013 1.349 . S
C1014 C1026 1.349 . S
C1015 C1013 1.327 . S
C1015 C1031 1.429 . S
C1015 H1037 0.950 . S
C1016 H1012 0.949 . S
C1016 C1024 1.574 1_556 S
C1016 C1032 1.368 . S
H1017 C1025 0.950 . S
H1018 C1023 0.950 . S
H1019 C1024 0.949 . S
H1020 C1026 0.950 . S
H1021 C1027 0.950 . S
H1022 C1028 0.949 . S
C1023 H1018 0.950 . S
C1023 C1025 1.327 . S
C1023 C1029 1.429 . S
C1024 C1016 1.574 1_554 S
C1024 H1019 0.949 . S
C1024 C1030 1.368 . S
C1025 C1009 1.349 . S
C1025 H1017 0.950 . S
C1025 C1023 1.327 . S
C1026 C1014 1.349 . S
C1026 H1020 0.950 . S
C1026 C1027 1.327 . S
C1027 H1021 0.950 . S
C1027 C1026 1.327 . S
C1027 C1031 1.429 . S
C1028 C1011 1.574 1_556 S
C1028 H1022 0.949 . S
C1028 C1032 1.368 . S
C1029 C1010 1.429 . S
C1029 C1023 1.429 . S
C1029 C1030 1.523 . S
C1030 C1011 1.368 . S
C1030 C1024 1.368 . S
C1030 C1029 1.523 . S
C1031 C1015 1.429 . S
C1031 C1027 1.429 . S
C1031 C1032 1.523 . S
C1032 C1016 1.368 . S
C1032 C1028 1.368 . S
C1032 C1031 1.523 . S
H1033 C1008 0.950 . S
H1034 C1010 0.950 . S
H1035 C1011 0.949 . S
H1036 C1013 0.950 . S
H1037 C1015 0.950 . S
C1038 C1039 1.349 . S
C1038 C1040 1.327 . S
C1038 H1063 0.950 . S
C1039 C1038 1.349 . S
C1039 C1055 1.349 . S
C1040 C1038 1.327 . S
C1040 C1059 1.429 . S
C1040 H1064 0.950 . S
C1041 C1058 1.574 . S
C1041 C1060 1.368 . S
C1041 H1065 0.949 . S
H1042 C1046 0.949 . S
C1043 C1044 1.349 . S
C1043 C1045 1.327 . S
C1043 H1066 0.950 . S
C1044 C1043 1.349 . S
C1044 C1056 1.349 . S
C1045 C1043 1.327 . S
C1045 C1061 1.429 . S
C1045 H1067 0.950 . S
C1046 H1042 0.949 . S
C1046 C1054 1.574 . S
C1046 C1062 1.368 . S
H1047 C1055 0.950 . S
H1048 C1053 0.950 . S
H1049 C1054 0.949 . S
H1050 C1056 0.950 . S
H1051 C1057 0.950 . S
H1052 C1058 0.949 . S
C1053 H1048 0.950 . S
C1053 C1055 1.327 . S
C1053 C1059 1.429 . S
C1054 C1046 1.574 . S
C1054 H1049 0.949 . S
C1054 C1060 1.368 . S
C1055 C1039 1.349 . S
C1055 H1047 0.950 . S
C1055 C1053 1.327 . S
C1056 C1044 1.349 . S
C1056 H1050 0.950 . S
C1056 C1057 1.327 . S
C1057 H1051 0.950 . S
C1057 C1056 1.327 . S
C1057 C1061 1.429 . S
C1058 C1041 1.574 . S
C1058 H1052 0.949 . S
C1058 C1062 1.368 . S
C1059 C1040 1.429 . S
C1059 C1053 1.429 . S
C1059 C1060 1.523 . S
C1060 C1041 1.368 . S
C1060 C1054 1.368 . S
C1060 C1059 1.523 . S
C1061 C1045 1.429 . S
C1061 C1057 1.429 . S
C1061 C1062 1.523 . S
C1062 C1046 1.368 . S
C1062 C1058 1.368 . S
C1062 C1061 1.523 . S
H1063 C1038 0.950 . S
H1064 C1040 0.950 . S
H1065 C1041 0.949 . S
H1066 C1043 0.950 . S
H1067 C1045 0.950 . S
C1068 C1069 1.349 . S
C1068 C1070 1.327 . S
C1068 H1093 0.950 . S
C1069 C1068 1.349 . S
C1069 C1085 1.349 . S
C1070 C1068 1.327 . S
C1070 C1089 1.429 . S
C1070 H1094 0.950 . S
C1071 C1088 1.574 1_556 S
C1071 C1090 1.368 . S
C1071 H1095 0.949 . S
H1072 C1076 0.949 . S
C1073 C1074 1.349 . S
C1073 C1075 1.327 . S
C1073 H1096 0.950 . S
C1074 C1073 1.349 . S
C1074 C1086 1.349 . S
C1075 C1073 1.327 . S
C1075 C1091 1.429 . S
C1075 H1097 0.950 . S
C1076 H1072 0.949 . S
C1076 C1084 1.574 1_554 S
C1076 C1092 1.368 . S
H1077 C1085 0.950 . S
H1078 C1083 0.950 . S
H1079 C1084 0.949 . S
H1080 C1086 0.950 . S
H1081 C1087 0.950 . S
H1082 C1088 0.949 . S
C1083 H1078 0.950 . S
C1083 C1085 1.327 . S
C1083 C1089 1.429 . S
C1084 C1076 1.574 1_556 S
C1084 H1079 0.949 . S
C1084 C1090 1.368 . S
C1085 C1069 1.349 . S
C1085 H1077 0.950 . S
C1085 C1083 1.327 . S
C1086 C1074 1.349 . S
C1086 H1080 0.950 . S
C1086 C1087 1.327 . S
C1087 H1081 0.950 . S
C1087 C1086 1.327 . S
C1087 C1091 1.429 . S
C1088 C1071 1.574 1_554 S
C1088 H1082 0.949 . S
C1088 C1092 1.368 . S
C1089 C1070 1.429 . S
C1089 C1083 1.429 . S
C1089 C1090 1.523 . S
C1090 C1071 1.368 . S
C1090 C1084 1.368 . S
C1090 C1089 1.523 . S
C1091 C1075 1.429 . S
C1091 C1087 1.429 . S
C1091 C1092 1.523 . S
C1092 C1076 1.368 . S
C1092 C1088 1.368 . S
C1092 C1091 1.523 . S
H1093 C1068 0.950 . S
H1094 C1070 0.950 . S
H1095 C1071 0.949 . S
H1096 C1073 0.950 . S
H1097 C1075 0.950 . S
C1098 C1099 1.349 . S
C1098 C1100 1.327 . S
C1098 H1123 0.950 . S
C1099 C1098 1.349 . S
C1099 C1115 1.349 . S
C1100 C1098 1.327 . S
C1100 C1119 1.429 . S
C1100 H1124 0.950 . S
C1101 C1118 1.574 . S
C1101 C1120 1.368 . S
C1101 H1125 0.949 . S
H1102 C1106 0.949 . S
C1103 C1104 1.349 . S
C1103 C1105 1.327 . S
C1103 H1126 0.950 . S
C1104 C1103 1.349 . S
C1104 C1116 1.349 . S
C1105 C1103 1.327 . S
C1105 C1121 1.429 . S
C1105 H1127 0.950 . S
C1106 H1102 0.949 . S
C1106 C1114 1.574 . S
C1106 C1122 1.368 . S
H1107 C1115 0.950 . S
H1108 C1113 0.950 . S
H1109 C1114 0.949 . S
H1110 C1116 0.950 . S
H1111 C1117 0.950 . S
H1112 C1118 0.949 . S
C1113 H1108 0.950 . S
C1113 C1115 1.327 . S
C1113 C1119 1.429 . S
C1114 C1106 1.574 . S
C1114 H1109 0.949 . S
C1114 C1120 1.368 . S
C1115 C1099 1.349 . S
C1115 H1107 0.950 . S
C1115 C1113 1.327 . S
C1116 C1104 1.349 . S
C1116 H1110 0.950 . S
C1116 C1117 1.327 . S
C1117 H1111 0.950 . S
C1117 C1116 1.327 . S
C1117 C1121 1.429 . S
C1118 C1101 1.574 . S
C1118 H1112 0.949 . S
C1118 C1122 1.368 . S
C1119 C1100 1.429 . S
C1119 C1113 1.429 . S
C1119 C1120 1.523 . S
C1120 C1101 1.368 . S
C1120 C1114 1.368 . S
C1120 C1119 1.523 . S
C1121 C1105 1.429 . S
C1121 C1117 1.429 . S
C1121 C1122 1.523 . S
C1122 C1106 1.368 . S
C1122 C1118 1.368 . S
C1122 C1121 1.523 . S
H1123 C1098 0.950 . S
H1124 C1100 0.950 . S
H1125 C1101 0.949 . S
H1126 C1103 0.950 . S
H1127 C1105 0.950 . S
C1128 C1129 1.349 . S
C1128 C1130 1.327 . S
C1128 H1153 0.950 . S
C1129 C1128 1.349 . S
C1129 C1145 1.349 . S
C1130 C1128 1.327 . S
C1130 C1149 1.429 . S
C1130 H1154 0.950 . S
C1131 C1148 1.574 1_556 S
C1131 C1150 1.368 . S
C1131 H1155 0.949 . S
H1132 C1136 0.949 . S
C1133 C1134 1.349 . S
C1133 C1135 1.327 . S
C1133 H1156 0.950 . S
C1134 C1133 1.349 . S
C1134 C1146 1.349 . S
C1135 C1133 1.327 . S
C1135 C1151 1.429 . S
C1135 H1157 0.950 . S
C1136 H1132 0.949 . S
C1136 C1144 1.574 1_554 S
C1136 C1152 1.368 . S
H1137 C1145 0.950 . S
H1138 C1143 0.950 . S
H1139 C1144 0.949 . S
H1140 C1146 0.950 . S
H1141 C1147 0.950 . S
H1142 C1148 0.949 . S
C1143 H1138 0.950 . S
C1143 C1145 1.327 . S
C1143 C1149 1.429 . S
C1144 C1136 1.574 1_556 S
C1144 H1139 0.949 . S
C1144 C1150 1.368 . S
C1145 C1129 1.349 . S
C1145 H1137 0.950 . S
C1145 C1143 1.327 . S
C1146 C1134 1.349 . S
C1146 H1140 0.950 . S
C1146 C1147 1.327 . S
C1147 H1141 0.950 . S
C1147 C1146 1.327 . S
C1147 C1151 1.429 . S
C1148 C1131 1.574 1_554 S
C1148 H1142 0.949 . S
C1148 C1152 1.368 . S
C1149 C1130 1.429 . S
C1149 C1143 1.429 . S
C1149 C1150 1.523 . S
C1150 C1131 1.368 . S
C1150 C1144 1.368 . S
C1150 C1149 1.523 . S
C1151 C1135 1.429 . S
C1151 C1147 1.429 . S
C1151 C1152 1.523 . S
C1152 C1136 1.368 . S
C1152 C1148 1.368 . S
C1152 C1151 1.523 . S
H1153 C1128 0.950 . S
H1154 C1130 0.950 . S
H1155 C1131 0.949 . S
H1156 C1133 0.950 . S
H1157 C1135 0.950 . S
C1158 C1159 1.349 . S
C1158 C1160 1.327 . S
C1158 H1183 0.950 . S
C1159 C1158 1.349 . S
C1159 C1175 1.349 . S
C1160 C1158 1.327 . S
C1160 C1179 1.429 . S
C1160 H1184 0.950 . S
C1161 C1178 1.574 . S
C1161 C1180 1.368 . S
C1161 H1185 0.949 . S
H1162 C1166 0.949 . S
C1163 C1164 1.349 . S
C1163 C1165 1.327 . S
C1163 H1186 0.950 . S
C1164 C1163 1.349 . S
C1164 C1176 1.349 . S
C1165 C1163 1.327 . S
C1165 C1181 1.429 . S
C1165 H1187 0.950 . S
C1166 H1162 0.949 . S
C1166 C1174 1.574 . S
C1166 C1182 1.368 . S
H1167 C1175 0.950 . S
H1168 C1173 0.950 . S
H1169 C1174 0.949 . S
H1170 C1176 0.950 . S
H1171 C1177 0.950 . S
H1172 C1178 0.949 . S
C1173 H1168 0.950 . S
C1173 C1175 1.327 . S
C1173 C1179 1.429 . S
C1174 C1166 1.574 . S
C1174 H1169 0.949 . S
C1174 C1180 1.368 . S
C1175 C1159 1.349 . S
C1175 H1167 0.950 . S
C1175 C1173 1.327 . S
C1176 C1164 1.349 . S
C1176 H1170 0.950 . S
C1176 C1177 1.327 . S
C1177 H1171 0.950 . S
C1177 C1176 1.327 . S
C1177 C1181 1.429 . S
C1178 C1161 1.574 . S
C1178 H1172 0.949 . S
C1178 C1182 1.368 . S
C1179 C1160 1.429 . S
C1179 C1173 1.429 . S
C1179 C1180 1.523 . S
C1180 C1161 1.368 . S
C1180 C1174 1.368 . S
C1180 C1179 1.523 . S
C1181 C1165 1.429 . S
C1181 C1177 1.429 . S
C1181 C1182 1.523 . S
C1182 C1166 1.368 . S
C1182 C1178 1.368 . S
C1182 C1181 1.523 . S
H1183 C1158 0.950 . S
H1184 C1160 0.950 . S
H1185 C1161 0.949 . S
H1186 C1163 0.950 . S
H1187 C1165 0.950 . S
C1188 C1189 1.349 . S
C1188 C1190 1.327 . S
C1188 H1213 0.950 . S
C1189 C1188 1.349 . S
C1189 C1205 1.349 . S
C1190 C1188 1.327 . S
C1190 C1209 1.429 . S
C1190 H1214 0.950 . S
C1191 C1208 1.574 1_554 S
C1191 C1210 1.368 . S
C1191 H1215 0.949 . S
H1192 C1196 0.949 . S
C1193 C1194 1.349 . S
C1193 C1195 1.327 . S
C1193 H1216 0.950 . S
C1194 C1193 1.349 . S
C1194 C1206 1.349 . S
C1195 C1193 1.327 . S
C1195 C1211 1.429 . S
C1195 H1217 0.950 . S
C1196 H1192 0.949 . S
C1196 C1204 1.574 1_556 S
C1196 C1212 1.368 . S
H1197 C1205 0.950 . S
H1198 C1203 0.950 . S
H1199 C1204 0.949 . S
H1200 C1206 0.950 . S
H1201 C1207 0.950 . S
H1202 C1208 0.949 . S
C1203 H1198 0.950 . S
C1203 C1205 1.327 . S
C1203 C1209 1.429 . S
C1204 C1196 1.574 1_554 S
C1204 H1199 0.949 . S
C1204 C1210 1.368 . S
C1205 C1189 1.349 . S
C1205 H1197 0.950 . S
C1205 C1203 1.327 . S
C1206 C1194 1.349 . S
C1206 H1200 0.950 . S
C1206 C1207 1.327 . S
C1207 H1201 0.950 . S
C1207 C1206 1.327 . S
C1207 C1211 1.429 . S
C1208 C1191 1.574 1_556 S
C1208 H1202 0.949 . S
C1208 C1212 1.368 . S
C1209 C1190 1.429 . S
C1209 C1203 1.429 . S
C1209 C1210 1.523 . S
C1210 C1191 1.368 . S
C1210 C1204 1.368 . S
C1210 C1209 1.523 . S
C1211 C1195 1.429 . S
C1211 C1207 1.429 . S
C1211 C1212 1.523 . S
C1212 C1196 1.368 . S
C1212 C1208 1.368 . S
C1212 C1211 1.523 . S
H1213 C1188 0.950 . S
H1214 C1190 0.950 . S
H1215 C1191 0.949 . S
H1216 C1193 0.950 . S
H1217 C1195 0.950 . S
C1218 C1219 1.349 . S
C1218 C1220 1.327 . S
C1218 H1243 0.950 . S
C1219 C1218 1.349 . S
C1219 C1235 1.349 . S
C1220 C1218 1.327 . S
C1220 C1239 1.429 . S
C1220 H1244 0.950 . S
C1221 C1238 1.574 . S
C1221 C1240 1.368 . S
C1221 H1245 0.949 . S
H1222 C1226 0.949 . S
C1223 C1224 1.349 . S
C1223 C1225 1.327 . S
C1223 H1246 0.950 . S
C1224 C1223 1.349 . S
C1224 C1236 1.349 . S
C1225 C1223 1.327 . S
C1225 C1241 1.429 . S
C1225 H1247 0.950 . S
C1226 H1222 0.949 . S
C1226 C1234 1.574 . S
C1226 C1242 1.368 . S
H1227 C1235 0.950 . S
H1228 C1233 0.950 . S
H1229 C1234 0.949 . S
H1230 C1236 0.950 . S
H1231 C1237 0.950 . S
H1232 C1238 0.949 . S
C1233 H1228 0.950 . S
C1233 C1235 1.327 . S
C1233 C1239 1.429 . S
C1234 C1226 1.574 . S
C1234 H1229 0.949 . S
C1234 C1240 1.368 . S
C1235 C1219 1.349 . S
C1235 H1227 0.950 . S
C1235 C1233 1.327 . S
C1236 C1224 1.349 . S
C1236 H1230 0.950 . S
C1236 C1237 1.327 . S
C1237 H1231 0.950 . S
C1237 C1236 1.327 . S
C1237 C1241 1.429 . S
C1238 C1221 1.574 . S
C1238 H1232 0.949 . S
C1238 C1242 1.368 . S
C1239 C1220 1.429 . S
C1239 C1233 1.429 . S
C1239 C1240 1.523 . S
C1240 C1221 1.368 . S
C1240 C1234 1.368 . S
C1240 C1239 1.523 . S
C1241 C1225 1.429 . S
C1241 C1237 1.429 . S
C1241 C1242 1.523 . S
C1242 C1226 1.368 . S
C1242 C1238 1.368 . S
C1242 C1241 1.523 . S
H1243 C1218 0.950 . S
H1244 C1220 0.950 . S
H1245 C1221 0.949 . S
H1246 C1223 0.950 . S
H1247 C1225 0.950 . S
C1248 C1249 1.349 . S
C1248 C1250 1.327 . S
C1248 H1273 0.950 . S
C1249 C1248 1.349 . S
C1249 C1265 1.349 . S
C1250 C1248 1.327 . S
C1250 C1269 1.429 . S
C1250 H1274 0.950 . S
C1251 C1268 1.574 . S
C1251 C1270 1.368 . S
C1251 H1275 0.949 . S
H1252 C1256 0.949 . S
C1253 C1254 1.349 . S
C1253 C1255 1.327 . S
C1253 H1276 0.950 . S
C1254 C1253 1.349 . S
C1254 C1266 1.349 . S
C1255 C1253 1.327 . S
C1255 C1271 1.429 . S
C1255 H1277 0.950 . S
C1256 H1252 0.949 . S
C1256 C1264 1.574 . S
C1256 C1272 1.368 . S
H1257 C1265 0.950 . S
H1258 C1263 0.950 . S
H1259 C1264 0.949 . S
H1260 C1266 0.950 . S
H1261 C1267 0.950 . S
H1262 C1268 0.949 . S
C1263 H1258 0.950 . S
C1263 C1265 1.327 . S
C1263 C1269 1.429 . S
C1264 C1256 1.574 . S
C1264 H1259 0.949 . S
C1264 C1270 1.368 . S
C1265 C1249 1.349 . S
C1265 H1257 0.950 . S
C1265 C1263 1.327 . S
C1266 C1254 1.349 . S
C1266 H1260 0.950 . S
C1266 C1267 1.327 . S
C1267 H1261 0.950 . S
C1267 C1266 1.327 . S
C1267 C1271 1.429 . S
C1268 C1251 1.574 . S
C1268 H1262 0.949 . S
C1268 C1272 1.368 . S
C1269 C1250 1.429 . S
C1269 C1263 1.429 . S
C1269 C1270 1.523 . S
C1270 C1251 1.368 . S
C1270 C1264 1.368 . S
C1270 C1269 1.523 . S
C1271 C1255 1.429 . S
C1271 C1267 1.429 . S
C1271 C1272 1.523 . S
C1272 C1256 1.368 . S
C1272 C1268 1.368 . S
C1272 C1271 1.523 . S
H1273 C1248 0.950 . S
H1274 C1250 0.950 . S
H1275 C1251 0.949 . S
H1276 C1253 0.950 . S
H1277 C1255 0.950 . S
C1278 C1279 1.349 . S
C1278 C1280 1.327 . S
C1278 H1303 0.950 . S
C1279 C1278 1.349 . S
C1279 C1295 1.349 . S
C1280 C1278 1.327 . S
C1280 C1299 1.429 . S
C1280 H1304 0.950 . S
C1281 C1298 1.574 . S
C1281 C1300 1.368 . S
C1281 H1305 0.949 . S
H1282 C1286 0.949 . S
C1283 C1284 1.349 . S
C1283 C1285 1.327 . S
C1283 H1306 0.950 . S
C1284 C1283 1.349 . S
C1284 C1296 1.349 . S
C1285 C1283 1.327 . S
C1285 C1301 1.429 . S
C1285 H1307 0.950 . S
C1286 H1282 0.949 . S
C1286 C1294 1.574 . S
C1286 C1302 1.368 . S
H1287 C1295 0.950 . S
H1288 C1293 0.950 . S
H1289 C1294 0.949 . S
H1290 C1296 0.950 . S
H1291 C1297 0.950 . S
H1292 C1298 0.949 . S
C1293 H1288 0.950 . S
C1293 C1295 1.327 . S
C1293 C1299 1.429 . S
C1294 C1286 1.574 . S
C1294 H1289 0.949 . S
C1294 C1300 1.368 . S
C1295 C1279 1.349 . S
C1295 H1287 0.950 . S
C1295 C1293 1.327 . S
C1296 C1284 1.349 . S
C1296 H1290 0.950 . S
C1296 C1297 1.327 . S
C1297 H1291 0.950 . S
C1297 C1296 1.327 . S
C1297 C1301 1.429 . S
C1298 C1281 1.574 . S
C1298 H1292 0.949 . S
C1298 C1302 1.368 . S
C1299 C1280 1.429 . S
C1299 C1293 1.429 . S
C1299 C1300 1.523 . S
C1300 C1281 1.368 . S
C1300 C1294 1.368 . S
C1300 C1299 1.523 . S
C1301 C1285 1.429 . S
C1301 C1297 1.429 . S
C1301 C1302 1.523 . S
C1302 C1286 1.368 . S
C1302 C1298 1.368 . S
C1302 C1301 1.523 . S
H1303 C1278 0.950 . S
H1304 C1280 0.950 . S
H1305 C1281 0.949 . S
H1306 C1283 0.950 . S
H1307 C1285 0.950 . S
C1308 C1309 1.349 . S
C1308 C1310 1.327 . S
C1308 H1333 0.950 . S
C1309 C1308 1.349 . S
C1309 C1325 1.349 . S
C1310 C1308 1.327 . S
C1310 C1329 1.429 . S
C1310 H1334 0.950 . S
C1311 C1328 1.574 . S
C1311 C1330 1.368 . S
C1311 H1335 0.949 . S
H1312 C1316 0.949 . S
C1313 C1314 1.349 . S
C1313 C1315 1.327 . S
C1313 H1336 0.950 . S
C1314 C1313 1.349 . S
C1314 C1326 1.349 . S
C1315 C1313 1.327 . S
C1315 C1331 1.429 . S
C1315 H1337 0.950 . S
C1316 H1312 0.949 . S
C1316 C1324 1.574 . S
C1316 C1332 1.368 . S
H1317 C1325 0.950 . S
H1318 C1323 0.950 . S
H1319 C1324 0.949 . S
H1320 C1326 0.950 . S
H1321 C1327 0.950 . S
H1322 C1328 0.949 . S
C1323 H1318 0.950 . S
C1323 C1325 1.327 . S
C1323 C1329 1.429 . S
C1324 C1316 1.574 . S
C1324 H1319 0.949 . S
C1324 C1330 1.368 . S
C1325 C1309 1.349 . S
C1325 H1317 0.950 . S
C1325 C1323 1.327 . S
C1326 C1314 1.349 . S
C1326 H1320 0.950 . S
C1326 C1327 1.327 . S
C1327 H1321 0.950 . S
C1327 C1326 1.327 . S
C1327 C1331 1.429 . S
C1328 C1311 1.574 . S
C1328 H1322 0.949 . S
C1328 C1332 1.368 . S
C1329 C1310 1.429 . S
C1329 C1323 1.429 . S
C1329 C1330 1.523 . S
C1330 C1311 1.368 . S
C1330 C1324 1.368 . S
C1330 C1329 1.523 . S
C1331 C1315 1.429 . S
C1331 C1327 1.429 . S
C1331 C1332 1.523 . S
C1332 C1316 1.368 . S
C1332 C1328 1.368 . S
C1332 C1331 1.523 . S
H1333 C1308 0.950 . S
H1334 C1310 0.950 . S
H1335 C1311 0.949 . S
H1336 C1313 0.950 . S
H1337 C1315 0.950 . S
C1338 C1339 1.349 . S
C1338 C1340 1.327 . S
C1338 H1363 0.950 . S
C1339 C1338 1.349 . S
C1339 C1355 1.349 . S
C1340 C1338 1.327 . S
C1340 C1359 1.429 . S
C1340 H1364 0.950 . S
C1341 C1358 1.574 . S
C1341 C1360 1.368 . S
C1341 H1365 0.949 . S
H1342 C1346 0.949 . S
C1343 C1344 1.349 . S
C1343 C1345 1.327 . S
C1343 H1366 0.950 . S
C1344 C1343 1.349 . S
C1344 C1356 1.349 . S
C1345 C1343 1.327 . S
C1345 C1361 1.429 . S
C1345 H1367 0.950 . S
C1346 H1342 0.949 . S
C1346 C1354 1.574 . S
C1346 C1362 1.368 . S
H1347 C1355 0.950 . S
H1348 C1353 0.950 . S
H1349 C1354 0.949 . S
H1350 C1356 0.950 . S
H1351 C1357 0.950 . S
H1352 C1358 0.949 . S
C1353 H1348 0.950 . S
C1353 C1355 1.327 . S
C1353 C1359 1.429 . S
C1354 C1346 1.574 . S
C1354 H1349 0.949 . S
C1354 C1360 1.368 . S
C1355 C1339 1.349 . S
C1355 H1347 0.950 . S
C1355 C1353 1.327 . S
C1356 C1344 1.349 . S
C1356 H1350 0.950 . S
C1356 C1357 1.327 . S
C1357 H1351 0.950 . S
C1357 C1356 1.327 . S
C1357 C1361 1.429 . S
C1358 C1341 1.574 . S
C1358 H1352 0.949 . S
C1358 C1362 1.368 . S
C1359 C1340 1.429 . S
C1359 C1353 1.429 . S
C1359 C1360 1.523 . S
C1360 C1341 1.368 . S
C1360 C1354 1.368 . S
C1360 C1359 1.523 . S
C1361 C1345 1.429 . S
C1361 C1357 1.429 . S
C1361 C1362 1.523 . S
C1362 C1346 1.368 . S
C1362 C1358 1.368 . S
C1362 C1361 1.523 . S
H1363 C1338 0.950 . S
H1364 C1340 0.950 . S
H1365 C1341 0.949 . S
H1366 C1343 0.950 . S
H1367 C1345 0.950 . S
C1368 C1369 1.349 . S
C1368 C1370 1.327 . S
C1368 H1393 0.950 . S
C1369 C1368 1.349 . S
C1369 C1385 1.349 . S
C1370 C1368 1.327 . S
C1370 C1389 1.429 . S
C1370 H1394 0.950 . S
C1371 C1388 1.574 . S
C1371 C1390 1.368 . S
C1371 H1395 0.949 . S
H1372 C1376 0.949 . S
C1373 C1374 1.349 . S
C1373 C1375 1.327 . S
C1373 H1396 0.950 . S
C1374 C1373 1.349 . S
C1374 C1386 1.349 . S
C1375 C1373 1.327 . S
C1375 C1391 1.429 . S
C1375 H1397 0.950 . S
C1376 H1372 0.949 . S
C1376 C1384 1.574 . S
C1376 C1392 1.368 . S
H1377 C1385 0.950 . S
H1378 C1383 0.950 . S
H1379 C1384 0.949 . S
H1380 C1386 0.950 . S
H1381 C1387 0.950 . S
H1382 C1388 0.949 . S
C1383 H1378 0.950 . S
C1383 C1385 1.327 . S
C1383 C1389 1.429 . S
C1384 C1376 1.574 . S
C1384 H1379 0.949 . S
C1384 C1390 1.368 . S
C1385 C1369 1.349 . S
C1385 H1377 0.950 . S
C1385 C1383 1.327 . S
C1386 C1374 1.349 . S
C1386 H1380 0.950 . S
C1386 C1387 1.327 . S
C1387 H1381 0.950 . S
C1387 C1386 1.327 . S
C1387 C1391 1.429 . S
C1388 C1371 1.574 . S
C1388 H1382 0.949 . S
C1388 C1392 1.368 . S
C1389 C1370 1.429 . S
C1389 C1383 1.429 . S
C1389 C1390 1.523 . S
C1390 C1371 1.368 . S
C1390 C1384 1.368 . S
C1390 C1389 1.523 . S
C1391 C1375 1.429 . S
C1391 C1387 1.429 . S
C1391 C1392 1.523 . S
C1392 C1376 1.368 . S
C1392 C1388 1.368 . S
C1392 C1391 1.523 . S
H1393 C1368 0.950 . S
H1394 C1370 0.950 . S
H1395 C1371 0.949 . S
H1396 C1373 0.950 . S
H1397 C1375 0.950 . S
C1398 C1399 1.349 . S
C1398 C1400 1.327 . S
C1398 H1423 0.950 . S
C1399 C1398 1.349 . S
C1399 C1415 1.349 . S
C1400 C1398 1.327 . S
C1400 C1419 1.429 . S
C1400 H1424 0.950 . S
C1401 C1418 1.574 . S
C1401 C1420 1.368 . S
C1401 H1425 0.949 . S
H1402 C1406 0.949 . S
C1403 C1404 1.349 . S
C1403 C1405 1.327 . S
C1403 H1426 0.950 . S
C1404 C1403 1.349 . S
C1404 C1416 1.349 . S
C1405 C1403 1.327 . S
C1405 C1421 1.429 . S
C1405 H1427 0.950 . S
C1406 H1402 0.949 . S
C1406 C1414 1.574 . S
C1406 C1422 1.368 . S
H1407 C1415 0.950 . S
H1408 C1413 0.950 . S
H1409 C1414 0.949 . S
H1410 C1416 0.950 . S
H1411 C1417 0.950 . S
H1412 C1418 0.949 . S
C1413 H1408 0.950 . S
C1413 C1415 1.327 . S
C1413 C1419 1.429 . S
C1414 C1406 1.574 . S
C1414 H1409 0.949 . S
C1414 C1420 1.368 . S
C1415 C1399 1.349 . S
C1415 H1407 0.950 . S
C1415 C1413 1.327 . S
C1416 C1404 1.349 . S
C1416 H1410 0.950 . S
C1416 C1417 1.327 . S
C1417 H1411 0.950 . S
C1417 C1416 1.327 . S
C1417 C1421 1.429 . S
C1418 C1401 1.574 . S
C1418 H1412 0.949 . S
C1418 C1422 1.368 . S
C1419 C1400 1.429 . S
C1419 C1413 1.429 . S
C1419 C1420 1.523 . S
C1420 C1401 1.368 . S
C1420 C1414 1.368 . S
C1420 C1419 1.523 . S
C1421 C1405 1.429 . S
C1421 C1417 1.429 . S
C1421 C1422 1.523 . S
C1422 C1406 1.368 . S
C1422 C1418 1.368 . S
C1422 C1421 1.523 . S
H1423 C1398 0.950 . S
H1424 C1400 0.950 . S
H1425 C1401 0.949 . S
H1426 C1403 0.950 . S
H1427 C1405 0.950 . S
C1428 C1429 1.349 . S
C1428 C1430 1.327 . S
C1428 H1453 0.950 . S
C1429 C1428 1.349 . S
C1429 C1445 1.349 . S
C1430 C1428 1.327 . S
C1430 C1449 1.429 . S
C1430 H1454 0.950 . S
C1431 C1448 1.574 . S
C1431 C1450 1.368 . S
C1431 H1455 0.949 . S
H1432 C1436 0.949 . S
C1433 C1434 1.349 . S
C1433 C1435 1.327 . S
C1433 H1456 0.950 . S
C1434 C1433 1.349 . S
C1434 C1446 1.349 . S
C1435 C1433 1.327 . S
C1435 C1451 1.429 . S
C1435 H1457 0.950 . S
C1436 H1432 0.949 . S
C1436 C1444 1.574 . S
C1436 C1452 1.368 . S
H1437 C1445 0.950 . S
H1438 C1443 0.950 . S
H1439 C1444 0.949 . S
H1440 C1446 0.950 . S
H1441 C1447 0.950 . S
H1442 C1448 0.949 . S
C1443 H1438 0.950 . S
C1443 C1445 1.327 . S
C1443 C1449 1.429 . S
C1444 C1436 1.574 . S
C1444 H1439 0.949 . S
C1444 C1450 1.368 . S
C1445 C1429 1.349 . S
C1445 H1437 0.950 . S
C1445 C1443 1.327 . S
C1446 C1434 1.349 . S
C1446 H1440 0.950 . S
C1446 C1447 1.327 . S
C1447 H1441 0.950 . S
C1447 C1446 1.327 . S
C1447 C1451 1.429 . S
C1448 C1431 1.574 . S
C1448 H1442 0.949 . S
C1448 C1452 1.368 . S
C1449 C1430 1.429 . S
C1449 C1443 1.429 . S
C1449 C1450 1.523 . S
C1450 C1431 1.368 . S
C1450 C1444 1.368 . S
C1450 C1449 1.523 . S
C1451 C1435 1.429 . S
C1451 C1447 1.429 . S
C1451 C1452 1.523 . S
C1452 C1436 1.368 . S
C1452 C1448 1.368 . S
C1452 C1451 1.523 . S
H1453 C1428 0.950 . S
H1454 C1430 0.950 . S
H1455 C1431 0.949 . S
H1456 C1433 0.950 . S
H1457 C1435 0.950 . S
C1458 C1459 1.349 . S
C1458 C1460 1.327 . S
C1458 H1483 0.950 . S
C1459 C1458 1.349 . S
C1459 C1475 1.349 . S
C1460 C1458 1.327 . S
C1460 C1479 1.429 . S
C1460 H1484 0.950 . S
C1461 C1478 1.574 . S
C1461 C1480 1.368 . S
C1461 H1485 0.949 . S
H1462 C1466 0.949 . S
C1463 C1464 1.349 . S
C1463 C1465 1.327 . S
C1463 H1486 0.950 . S
C1464 C1463 1.349 . S
C1464 C1476 1.349 . S
C1465 C1463 1.327 . S
C1465 C1481 1.429 . S
C1465 H1487 0.950 . S
C1466 H1462 0.949 . S
C1466 C1474 1.574 . S
C1466 C1482 1.368 . S
H1467 C1475 0.950 . S
H1468 C1473 0.950 . S
H1469 C1474 0.949 . S
H1470 C1476 0.950 . S
H1471 C1477 0.950 . S
H1472 C1478 0.949 . S
C1473 H1468 0.950 . S
C1473 C1475 1.327 . S
C1473 C1479 1.429 . S
C1474 C1466 1.574 . S
C1474 H1469 0.949 . S
C1474 C1480 1.368 . S
C1475 C1459 1.349 . S
C1475 H1467 0.950 . S
C1475 C1473 1.327 . S
C1476 C1464 1.349 . S
C1476 H1470 0.950 . S
C1476 C1477 1.327 . S
C1477 H1471 0.950 . S
C1477 C1476 1.327 . S
C1477 C1481 1.429 . S
C1478 C1461 1.574 . S
C1478 H1472 0.949 . S
C1478 C1482 1.368 . S
C1479 C1460 1.429 . S
C1479 C1473 1.429 . S
C1479 C1480 1.523 . S
C1480 C1461 1.368 . S
C1480 C1474 1.368 . S
C1480 C1479 1.523 . S
C1481 C1465 1.429 . S
C1481 C1477 1.429 . S
C1481 C1482 1.523 . S
C1482 C1466 1.368 . S
C1482 C1478 1.368 . S
C1482 C1481 1.523 . S
H1483 C1458 0.950 . S
H1484 C1460 0.950 . S
H1485 C1461 0.949 . S
H1486 C1463 0.950 . S
H1487 C1465 0.950 . S
C1488 C1489 1.349 . S
C1488 C1490 1.327 . S
C1488 H1513 0.950 . S
C1489 C1488 1.349 . S
C1489 C1505 1.349 . S
C1490 C1488 1.327 . S
C1490 C1509 1.429 . S
C1490 H1514 0.950 . S
C1491 C1508 1.574 . S
C1491 C1510 1.368 . S
C1491 H1515 0.949 . S
H1492 C1496 0.949 . S
C1493 C1494 1.349 . S
C1493 C1495 1.327 . S
C1493 H1516 0.950 . S
C1494 C1493 1.349 . S
C1494 C1506 1.349 . S
C1495 C1493 1.327 . S
C1495 C1511 1.429 . S
C1495 H1517 0.950 . S
C1496 H1492 0.949 . S
C1496 C1504 1.574 . S
C1496 C1512 1.368 . S
H1497 C1505 0.950 . S
H1498 C1503 0.950 . S
H1499 C1504 0.949 . S
H1500 C1506 0.950 . S
H1501 C1507 0.950 . S
H1502 C1508 0.949 . S
C1503 H1498 0.950 . S
C1503 C1505 1.327 . S
C1503 C1509 1.429 . S
C1504 C1496 1.574 . S
C1504 H1499 0.949 . S
C1504 C1510 1.368 . S
C1505 C1489 1.349 . S
C1505 H1497 0.950 . S
C1505 C1503 1.327 . S
C1506 C1494 1.349 . S
C1506 H1500 0.950 . S
C1506 C1507 1.327 . S
C1507 H1501 0.950 . S
C1507 C1506 1.327 . S
C1507 C1511 1.429 . S
C1508 C1491 1.574 . S
C1508 H1502 0.949 . S
C1508 C1512 1.368 . S
C1509 C1490 1.429 . S
C1509 C1503 1.429 . S
C1509 C1510 1.523 . S
C1510 C1491 1.368 . S
C1510 C1504 1.368 . S
C1510 C1509 1.523 . S
C1511 C1495 1.429 . S
C1511 C1507 1.429 . S
C1511 C1512 1.523 . S
C1512 C1496 1.368 . S
C1512 C1508 1.368 . S
C1512 C1511 1.523 . S
H1513 C1488 0.950 . S
H1514 C1490 0.950 . S
H1515 C1491 0.949 . S
H1516 C1493 0.950 . S
H1517 C1495 0.950 . S
C1518 C1519 1.349 . S
C1518 C1520 1.327 . S
C1518 H1543 0.950 . S
C1519 C1518 1.349 . S
C1519 C1535 1.349 . S
C1520 C1518 1.327 . S
C1520 C1539 1.429 . S
C1520 H1544 0.950 . S
C1521 C1538 1.574 . S
C1521 C1540 1.368 . S
C1521 H1545 0.949 . S
H1522 C1526 0.949 . S
C1523 C1524 1.349 . S
C1523 C1525 1.327 . S
C1523 H1546 0.950 . S
C1524 C1523 1.349 . S
C1524 C1536 1.349 . S
C1525 C1523 1.327 . S
C1525 C1541 1.429 . S
C1525 H1547 0.950 . S
C1526 H1522 0.949 . S
C1526 C1534 1.574 . S
C1526 C1542 1.368 . S
H1527 C1535 0.950 . S
H1528 C1533 0.950 . S
H1529 C1534 0.949 . S
H1530 C1536 0.950 . S
H1531 C1537 0.950 . S
H1532 C1538 0.949 . S
C1533 H1528 0.950 . S
C1533 C1535 1.327 . S
C1533 C1539 1.429 . S
C1534 C1526 1.574 . S
C1534 H1529 0.949 . S
C1534 C1540 1.368 . S
C1535 C1519 1.349 . S
C1535 H1527 0.950 . S
C1535 C1533 1.327 . S
C1536 C1524 1.349 . S
C1536 H1530 0.950 . S
C1536 C1537 1.327 . S
C1537 H1531 0.950 . S
C1537 C1536 1.327 . S
C1537 C1541 1.429 . S
C1538 C1521 1.574 . S
C1538 H1532 0.949 . S
C1538 C1542 1.368 . S
C1539 C1520 1.429 . S
C1539 C1533 1.429 . S
C1539 C1540 1.523 . S
C1540 C1521 1.368 . S
C1540 C1534 1.368 . S
C1540 C1539 1.523 . S
C1541 C1525 1.429 . S
C1541 C1537 1.429 . S
C1541 C1542 1.523 . S
C1542 C1526 1.368 . S
C1542 C1538 1.368 . S
C1542 C1541 1.523 . S
H1543 C1518 0.950 . S
H1544 C1520 0.950 . S
H1545 C1521 0.949 . S
H1546 C1523 0.950 . S
H1547 C1525 0.950 . S
C1548 C1549 1.349 . S
C1548 C1550 1.327 . S
C1548 H1573 0.950 . S
C1549 C1548 1.349 . S
C1549 C1565 1.349 . S
C1550 C1548 1.327 . S
C1550 C1569 1.429 . S
C1550 H1574 0.950 . S
C1551 C1568 1.574 . S
C1551 C1570 1.368 . S
C1551 H1575 0.949 . S
H1552 C1556 0.949 . S
C1553 C1554 1.349 . S
C1553 C1555 1.327 . S
C1553 H1576 0.950 . S
C1554 C1553 1.349 . S
C1554 C1566 1.349 . S
C1555 C1553 1.327 . S
C1555 C1571 1.429 . S
C1555 H1577 0.950 . S
C1556 H1552 0.949 . S
C1556 C1564 1.574 . S
C1556 C1572 1.368 . S
H1557 C1565 0.950 . S
H1558 C1563 0.950 . S
H1559 C1564 0.949 . S
H1560 C1566 0.950 . S
H1561 C1567 0.950 . S
H1562 C1568 0.949 . S
C1563 H1558 0.950 . S
C1563 C1565 1.327 . S
C1563 C1569 1.429 . S
C1564 C1556 1.574 . S
C1564 H1559 0.949 . S
C1564 C1570 1.368 . S
C1565 C1549 1.349 . S
C1565 H1557 0.950 . S
C1565 C1563 1.327 . S
C1566 C1554 1.349 . S
C1566 H1560 0.950 . S
C1566 C1567 1.327 . S
C1567 H1561 0.950 . S
C1567 C1566 1.327 . S
C1567 C1571 1.429 . S
C1568 C1551 1.574 . S
C1568 H1562 0.949 . S
C1568 C1572 1.368 . S
C1569 C1550 1.429 . S
C1569 C1563 1.429 . S
C1569 C1570 1.523 . S
C1570 C1551 1.368 . S
C1570 C1564 1.368 . S
C1570 C1569 1.523 . S
C1571 C1555 1.429 . S
C1571 C1567 1.429 . S
C1571 C1572 1.523 . S
C1572 C1556 1.368 . S
C1572 C1568 1.368 . S
C1572 C1571 1.523 . S
H1573 C1548 0.950 . S
H1574 C1550 0.950 . S
H1575 C1551 0.949 . S
H1576 C1553 0.950 . S
H1577 C1555 0.950 . S
C1578 C1579 1.349 . S
C1578 C1580 1.327 . S
C1578 H1603 0.950 . S
C1579 C1578 1.349 . S
C1579 C1595 1.349 . S
C1580 C1578 1.327 . S
C1580 C1599 1.429 . S
C1580 H1604 0.950 . S
C1581 C1598 1.574 . S
C1581 C1600 1.368 . S
C1581 H1605 0.949 . S
H1582 C1586 0.949 . S
C1583 C1584 1.349 . S
C1583 C1585 1.327 . S
C1583 H1606 0.950 . S
C1584 C1583 1.349 . S
C1584 C1596 1.349 . S
C1585 C1583 1.327 . S
C1585 C1601 1.429 . S
C1585 H1607 0.950 . S
C1586 H1582 0.949 . S
C1586 C1594 1.574 . S
C1586 C1602 1.368 . S
H1587 C1595 0.950 . S
H1588 C1593 0.950 . S
H1589 C1594 0.949 . S
H1590 C1596 0.950 . S
H1591 C1597 0.950 . S
H1592 C1598 0.949 . S
C1593 H1588 0.950 . S
C1593 C1595 1.327 . S
C1593 C1599 1.429 . S
C1594 C1586 1.574 . S
C1594 H1589 0.949 . S
C1594 C1600 1.368 . S
C1595 C1579 1.349 . S
C1595 H1587 0.950 . S
C1595 C1593 1.327 . S
C1596 C1584 1.349 . S
C1596 H1590 0.950 . S
C1596 C1597 1.327 . S
C1597 H1591 0.950 . S
C1597 C1596 1.327 . S
C1597 C1601 1.429 . S
C1598 C1581 1.574 . S
C1598 H1592 0.949 . S
C1598 C1602 1.368 . S
C1599 C1580 1.429 . S
C1599 C1593 1.429 . S
C1599 C1600 1.523 . S
C1600 C1581 1.368 . S
C1600 C1594 1.368 . S
C1600 C1599 1.523 . S
C1601 C1585 1.429 . S
C1601 C1597 1.429 . S
C1601 C1602 1.523 . S
C1602 C1586 1.368 . S
C1602 C1598 1.368 . S
C1602 C1601 1.523 . S
H1603 C1578 0.950 . S
H1604 C1580 0.950 . S
H1605 C1581 0.949 . S
H1606 C1583 0.950 . S
H1607 C1585 0.950 . S
C1608 C1609 1.349 . S
C1608 C1610 1.327 . S
C1608 H1633 0.950 . S
C1609 C1608 1.349 . S
C1609 C1625 1.349 . S
C1610 C1608 1.327 . S
C1610 C1629 1.429 . S
C1610 H1634 0.950 . S
C1611 C1628 1.574 . S
C1611 C1630 1.368 . S
C1611 H1635 0.949 . S
H1612 C1616 0.949 . S
C1613 C1614 1.349 . S
C1613 C1615 1.327 . S
C1613 H1636 0.950 . S
C1614 C1613 1.349 . S
C1614 C1626 1.349 . S
C1615 C1613 1.327 . S
C1615 C1631 1.429 . S
C1615 H1637 0.950 . S
C1616 H1612 0.949 . S
C1616 C1624 1.574 . S
C1616 C1632 1.368 . S
H1617 C1625 0.950 . S
H1618 C1623 0.950 . S
H1619 C1624 0.949 . S
H1620 C1626 0.950 . S
H1621 C1627 0.950 . S
H1622 C1628 0.949 . S
C1623 H1618 0.950 . S
C1623 C1625 1.327 . S
C1623 C1629 1.429 . S
C1624 C1616 1.574 . S
C1624 H1619 0.949 . S
C1624 C1630 1.368 . S
C1625 C1609 1.349 . S
C1625 H1617 0.950 . S
C1625 C1623 1.327 . S
C1626 C1614 1.349 . S
C1626 H1620 0.950 . S
C1626 C1627 1.327 . S
C1627 H1621 0.950 . S
C1627 C1626 1.327 . S
C1627 C1631 1.429 . S
C1628 C1611 1.574 . S
C1628 H1622 0.949 . S
C1628 C1632 1.368 . S
C1629 C1610 1.429 . S
C1629 C1623 1.429 . S
C1629 C1630 1.523 . S
C1630 C1611 1.368 . S
C1630 C1624 1.368 . S
C1630 C1629 1.523 . S
C1631 C1615 1.429 . S
C1631 C1627 1.429 . S
C1631 C1632 1.523 . S
C1632 C1616 1.368 . S
C1632 C1628 1.368 . S
C1632 C1631 1.523 . S
H1633 C1608 0.950 . S
H1634 C1610 0.950 . S
H1635 C1611 0.949 . S
H1636 C1613 0.950 . S
H1637 C1615 0.950 . S
C1638 C1639 1.349 . S
C1638 C1640 1.327 . S
C1638 H1663 0.950 . S
C1639 C1638 1.349 . S
C1639 C1655 1.349 . S
C1640 C1638 1.327 . S
C1640 C1659 1.429 . S
C1640 H1664 0.950 . S
C1641 C1658 1.574 . S
C1641 C1660 1.368 . S
C1641 H1665 0.949 . S
H1642 C1646 0.949 . S
C1643 C1644 1.349 . S
C1643 C1645 1.327 . S
C1643 H1666 0.950 . S
C1644 C1643 1.349 . S
C1644 C1656 1.349 . S
C1645 C1643 1.327 . S
C1645 C1661 1.429 . S
C1645 H1667 0.950 . S
C1646 H1642 0.949 . S
C1646 C1654 1.574 . S
C1646 C1662 1.368 . S
H1647 C1655 0.950 . S
H1648 C1653 0.950 . S
H1649 C1654 0.949 . S
H1650 C1656 0.950 . S
H1651 C1657 0.950 . S
H1652 C1658 0.949 . S
C1653 H1648 0.950 . S
C1653 C1655 1.327 . S
C1653 C1659 1.429 . S
C1654 C1646 1.574 . S
C1654 H1649 0.949 . S
C1654 C1660 1.368 . S
C1655 C1639 1.349 . S
C1655 H1647 0.950 . S
C1655 C1653 1.327 . S
C1656 C1644 1.349 . S
C1656 H1650 0.950 . S
C1656 C1657 1.327 . S
C1657 H1651 0.950 . S
C1657 C1656 1.327 . S
C1657 C1661 1.429 . S
C1658 C1641 1.574 . S
C1658 H1652 0.949 . S
C1658 C1662 1.368 . S
C1659 C1640 1.429 . S
C1659 C1653 1.429 . S
C1659 C1660 1.523 . S
C1660 C1641 1.368 . S
C1660 C1654 1.368 . S
C1660 C1659 1.523 . S
C1661 C1645 1.429 . S
C1661 C1657 1.429 . S
C1661 C1662 1.523 . S
C1662 C1646 1.368 . S
C1662 C1658 1.368 . S
C1662 C1661 1.523 . S
H1663 C1638 0.950 . S
H1664 C1640 0.950 . S
H1665 C1641 0.949 . S
H1666 C1643 0.950 . S
H1667 C1645 0.950 . S
C1668 C1669 1.349 . S
C1668 C1670 1.327 . S
C1668 H1693 0.950 . S
C1669 C1668 1.349 . S
C1669 C1685 1.349 . S
C1670 C1668 1.327 . S
C1670 C1689 1.429 . S
C1670 H1694 0.950 . S
C1671 C1688 1.574 . S
C1671 C1690 1.368 . S
C1671 H1695 0.949 . S
H1672 C1676 0.949 . S
C1673 C1674 1.349 . S
C1673 C1675 1.327 . S
C1673 H1696 0.950 . S
C1674 C1673 1.349 . S
C1674 C1686 1.349 . S
C1675 C1673 1.327 . S
C1675 C1691 1.429 . S
C1675 H1697 0.950 . S
C1676 H1672 0.949 . S
C1676 C1684 1.574 . S
C1676 C1692 1.368 . S
H1677 C1685 0.950 . S
H1678 C1683 0.950 . S
H1679 C1684 0.949 . S
H1680 C1686 0.950 . S
H1681 C1687 0.950 . S
H1682 C1688 0.949 . S
C1683 H1678 0.950 . S
C1683 C1685 1.327 . S
C1683 C1689 1.429 . S
C1684 C1676 1.574 . S
C1684 H1679 0.949 . S
C1684 C1690 1.368 . S
C1685 C1669 1.349 . S
C1685 H1677 0.950 . S
C1685 C1683 1.327 . S
C1686 C1674 1.349 . S
C1686 H1680 0.950 . S
C1686 C1687 1.327 . S
C1687 H1681 0.950 . S
C1687 C1686 1.327 . S
C1687 C1691 1.429 . S
C1688 C1671 1.574 . S
C1688 H1682 0.949 . S
C1688 C1692 1.368 . S
C1689 C1670 1.429 . S
C1689 C1683 1.429 . S
C1689 C1690 1.523 . S
C1690 C1671 1.368 . S
C1690 C1684 1.368 . S
C1690 C1689 1.523 . S
C1691 C1675 1.429 . S
C1691 C1687 1.429 . S
C1691 C1692 1.523 . S
C1692 C1676 1.368 . S
C1692 C1688 1.368 . S
C1692 C1691 1.523 . S
H1693 C1668 0.950 . S
H1694 C1670 0.950 . S
H1695 C1671 0.949 . S
H1696 C1673 0.950 . S
H1697 C1675 0.950 . S
C1698 C1699 1.349 . S
C1698 C1700 1.327 . S
C1698 H1723 0.950 . S
C1699 C1698 1.349 . S
C1699 C1715 1.349 . S
C1700 C1698 1.327 . S
C1700 C1719 1.429 . S
C1700 H1724 0.950 . S
C1701 C1718 1.574 . S
C1701 C1720 1.368 . S
C1701 H1725 0.949 . S
H1702 C1706 0.949 . S
C1703 C1704 1.349 . S
C1703 C1705 1.327 . S
C1703 H1726 0.950 . S
C1704 C1703 1.349 . S
C1704 C1716 1.349 . S
C1705 C1703 1.327 . S
C1705 C1721 1.429 . S
C1705 H1727 0.950 . S
C1706 H1702 0.949 . S
C1706 C1714 1.574 . S
C1706 C1722 1.368 . S
H1707 C1715 0.950 . S
H1708 C1713 0.950 . S
H1709 C1714 0.949 . S
H1710 C1716 0.950 . S
H1711 C1717 0.950 . S
H1712 C1718 0.949 . S
C1713 H1708 0.950 . S
C1713 C1715 1.327 . S
C1713 C1719 1.429 . S
C1714 C1706 1.574 . S
C1714 H1709 0.949 . S
C1714 C1720 1.368 . S
C1715 C1699 1.349 . S
C1715 H1707 0.950 . S
C1715 C1713 1.327 . S
C1716 C1704 1.349 . S
C1716 H1710 0.950 . S
C1716 C1717 1.327 . S
C1717 H1711 0.950 . S
C1717 C1716 1.327 . S
C1717 C1721 1.429 . S
C1718 C1701 1.574 . S
C1718 H1712 0.949 . S
C1718 C1722 1.368 . S
C1719 C1700 1.429 . S
C1719 C1713 1.429 . S
C1719 C1720 1.523 . S
C1720 C1701 1.368 . S
C1720 C1714 1.368 . S
C1720 C1719 1.523 . S
C1721 C1705 1.429 . S
C1721 C1717 1.429 . S
C1721 C1722 1.523 . S
C1722 C1706 1.368 . S
C1722 C1718 1.368 . S
C1722 C1721 1.523 . S
H1723 C1698 0.950 . S
H1724 C1700 0.950 . S
H1725 C1701 0.949 . S
H1726 C1703 0.950 . S
H1727 C1705 0.950 . S
C529 N410 1.435 . S
C534 N5 1.435 . S
C559 N47 1.418 . S
C564 N434 1.433 . S
C589 N71 1.435 . S
C594 N476 1.435 . S
C619 N113 1.418 . S
C624 N500 1.433 . S
C649 N269 1.433 . S
C654 N146 1.418 . S
C679 N311 1.435 . S
C684 N170 1.435 . S
C709 N212 1.418 . S
C714 N335 1.433 . S
C739 N377 1.435 . S
C744 N236 1.435 . S
C769 C17 0.969 . S
C774 C479 0.968 . S
C799 C512 0.947 . S
C804 C50 0.946 . S
C829 C413 0.968 . S
C834 C83 0.969 . S
C859 C446 0.947 . S
C864 C116 0.946 . S
C889 C347 0.947 . S
C894 C149 0.946 . S
C919 C380 0.968 . S
C924 C182 0.969 . S
C949 C281 0.947 . S
C954 C215 0.946 . S
C979 C314 0.968 . S
C984 C248 0.969 . S
C1009 C8 1.029 . S
C1014 C358 1.062 . S
C1039 C371 1.090 . S
C1044 C61 1.073 . S
C1069 C292 1.062 . S
C1074 C74 1.029 . S
C1099 C305 1.090 . S
C1104 C127 1.073 . S
C1129 C160 1.073 . S
C1134 C470 1.090 . S
C1159 C173 1.029 . S
C1164 C523 1.062 . S
C1189 C404 1.090 . S
C1194 C226 1.073 . S
C1219 C239 1.029 . S
C1224 C457 1.062 . S
C1249 N401 1.914 . S
C1254 N14 1.901 . S
C1279 N38 1.925 . S
C1284 N443 1.926 . S
C1309 N80 1.901 . S
C1314 N467 1.914 . S
C1339 N509 1.926 . S
C1344 N104 1.925 . S
C1369 N278 1.926 . S
C1374 N137 1.925 . S
C1399 N179 1.901 . S
C1404 N302 1.914 . S
C1429 N344 1.926 . S
C1434 N203 1.925 . S
C1459 N368 1.914 . S
C1464 N245 1.901 . S
C1489 C193 1.264 . S
C1494 C28 1.264 . S
C1519 C206 1.219 . S
C1524 C41 1.219 . S
C1549 C94 1.264 . S
C1554 C259 1.264 . S
C1579 C140 1.219 . S
C1584 C107 1.219 . S
C1609 C272 1.007 . S
C1614 C437 1.007 . S
C1639 C490 1.041 . S
C1644 C325 1.041 . S
C1669 C503 1.007 . S
C1674 C338 1.007 . S
C1699 C391 1.041 . S
C1704 C424 1.041 . S
