# Generated by pormake.
# Topology sxb, (6)-cn, num edge types: 1
# Building blocks:
#     Node 0, Type 0, BuildingBlock: UKALOJ_clean_sbu_0, # of connection points: 6
#     Node 1, Type 0, BuildingBlock: UKALOJ_clean_sbu_0, # of connection points: 6
#     Node 2, Type 0, BuildingBlock: UKALOJ_clean_sbu_0, # of connection points: 6
#     Node 3, Type 0, BuildingBlock: UKALOJ_clean_sbu_0, # of connection points: 6
#     Edge 4, Type (0, 0), BuildingBlock: EZIPEK_clean_linker_0, # of connection points: 2
#     Edge 5, Type (0, 0), BuildingBlock: EZIPEK_clean_linker_0, # of connection points: 2
#     Edge 6, Type (0, 0), BuildingBlock: EZIPEK_clean_linker_0, # of connection points: 2
#     Edge 7, Type (0, 0), BuildingBlock: EZIPEK_clean_linker_0, # of connection points: 2
#     Edge 8, Type (0, 0), BuildingBlock: EZIPEK_clean_linker_0, # of connection points: 2
#     Edge 9, Type (0, 0), BuildingBlock: EZIPEK_clean_linker_0, # of connection points: 2
#     Edge 10, Type (0, 0), BuildingBlock: EZIPEK_clean_linker_0, # of connection points: 2
#     Edge 11, Type (0, 0), BuildingBlock: EZIPEK_clean_linker_0, # of connection points: 2
#     Edge 12, Type (0, 0), BuildingBlock: EZIPEK_clean_linker_0, # of connection points: 2
#     Edge 13, Type (0, 0), BuildingBlock: EZIPEK_clean_linker_0, # of connection points: 2
#     Edge 14, Type (0, 0), BuildingBlock: EZIPEK_clean_linker_0, # of connection points: 2
#     Edge 15, Type (0, 0), BuildingBlock: EZIPEK_clean_linker_0, # of connection points: 2
# Relax obj value: 0.081
# Max RMSD: 0.145
# Mean RMSD: 0.145
data_MOF--net-sxb--node1-UKALOJ_clean_sbu_0--edge1-EZIPEK_clean_linker_0
_symmetry_space_group_name_H-M    P1
_symmetry_Int_Tables_number       1
_symmetry_cell_setting            triclinic
loop_
_symmetry_equiv_pos_as_xyz
'x, y, z'
_cell_length_a     10.662111
_cell_length_b     19.852058
_cell_length_c     32.207607
_cell_angle_alpha  98.227655
_cell_angle_beta   90.283415
_cell_angle_gamma 89.929328
loop_
_atom_site_label
_atom_site_type_symbol
_atom_site_fract_x
_atom_site_fract_y
_atom_site_fract_z
_atom_type_partial_charge
Zn0 Zn -0.02118 0.0434 0.08115 0.0
O1 O 0.05681 0.94496 0.08069 0.0
C2 C 0.22165 0.07602 0.04719 0.0
Zn3 Zn -0.02638 0.02777 1.01168 0.0
C4 C 0.07704 0.90739 0.04599 0.0
O5 O 0.03991 0.9268 1.01208 0.0
C6 C 0.87903 0.16453 0.04649 0.0
O7 O 0.78796 -0.00407 1.01137 0.0
O8 O 0.79319 0.0079 0.07986 0.0
N9 N -0.01578 0.01248 0.94768 0.0
C10 C 0.91374 0.03061 0.91613 0.0
C11 C 0.07882 0.98261 0.88882 0.0
N12 N 0.08617 0.9824 0.93048 0.0
N13 N -0.02813 0.01288 0.87899 0.0
C14 C 0.95924 0.02028 0.17465 0.0
C15 C 0.00068 0.11941 0.20674 0.0
N16 N -0.02153 0.06102 0.14522 0.0
N17 N 0.00371 0.1226 0.16525 0.0
N18 N -0.02729 0.05574 0.21336 0.0
H19 H 0.87604 0.93421 0.1362 0.0
H20 H 0.87907 0.9285 0.19186 0.0
H21 H 0.02092 0.9172 0.1617 0.0
C22 C 0.93122 0.94576 0.16558 0.0
C23 C 0.79079 0.06719 0.92174 0.0
H24 H 0.7325 0.04498 0.94458 0.0
H25 H 0.73938 0.06446 0.89151 0.0
H26 H 0.80767 0.12142 0.93429 0.0
O27 O 0.90724 0.12906 1.01171 0.0
O28 O 0.90343 0.14194 0.08057 0.0
C29 C 0.73132 0.99423 0.04585 0.0
O30 O 0.16332 0.07868 0.08162 0.0
O31 O 0.16063 0.05924 1.01341 0.0
Zn32 Zn 0.96044 0.02711 0.57761 0.0
O33 O 0.77448 0.06084 0.57451 0.0
C34 C 0.86545 0.88809 0.5492 0.0
Zn35 Zn 0.96684 0.00346 0.50831 0.0
C36 C 0.71867 0.0557 0.53914 0.0
O37 O 0.7813 0.03601 0.50621 0.0
C38 C 0.20938 0.9763 0.54629 0.0
O39 O 0.03984 0.10234 0.50395 0.0
O40 O 0.03342 0.12465 0.57262 0.0
N41 N -0.03055 0.97735 0.44456 0.0
C42 C 0.95058 0.01382 0.41286 0.0
C43 C -0.00288 0.91271 0.38541 0.0
N44 N -0.00225 0.91448 0.42741 0.0
N45 N -0.03239 0.97447 0.3756 0.0
C46 C 0.89885 0.03581 0.67352 0.0
C47 C 0.06558 0.08446 0.69953 0.0
N48 N -0.03122 0.05091 0.64128 0.0
N49 N 0.07148 0.08169 0.65766 0.0
N50 N 0.9587 0.05561 0.71034 0.0
H51 H 0.71722 0.02004 0.64462 0.0
H52 H 0.72341 0.00677 0.69908 0.0
H53 H 0.78986 0.94498 0.6587 0.0
C54 C 0.77476 0.00014 0.66888 0.0
C55 C 0.91975 0.08816 0.41829 0.0
H56 H 0.86395 0.10288 0.4471 0.0
H57 H 0.86706 0.10121 0.39074 0.0
H58 H 0.0084 0.11772 0.42107 0.0
O59 O 0.15284 0.97123 0.5112 0.0
O60 O 0.14632 0.99399 0.57929 0.0
C61 C 0.06522 0.1417 0.53765 0.0
O62 O 0.88917 0.92867 0.58252 0.0
O63 O 0.89466 0.90482 0.51383 0.0
Zn64 Zn 0.49516 0.5514 0.0878 0.0
O65 O 0.56254 0.45103 0.08965 0.0
C66 C 0.73836 0.5828 0.05307 0.0
Zn67 Zn 0.49114 0.53286 1.01857 0.0
C68 C 0.59187 0.41425 0.05551 0.0
O69 O 0.56725 0.43492 1.02086 0.0
C70 C 0.39207 0.66957 0.05103 0.0
O71 O 0.30683 0.49667 1.01908 0.0
O72 O 0.30813 0.52056 0.08742 0.0
N73 N 0.50026 0.51437 0.95475 0.0
C74 C 0.42976 0.53184 0.92305 0.0
C75 C 0.59175 0.48016 0.89591 0.0
N76 N 0.6003 0.48205 0.93771 0.0
N77 N 0.48599 0.51133 0.88588 0.0
C78 C 0.47478 0.5331 0.18161 0.0
C79 C 0.53375 0.63046 0.21222 0.0
N80 N 0.49817 0.5719 0.15149 0.0
N81 N 0.53455 0.63239 0.17057 0.0
N82 N 0.49698 0.56859 0.21976 0.0
H83 H 0.38308 0.4488 0.14362 0.0
H84 H 0.3723 0.44871 0.19975 0.0
H85 H 0.5175 0.42706 0.17308 0.0
C86 C 0.43353 0.4603 0.17392 0.0
C87 C 0.30882 0.5705 0.92852 0.0
H88 H 0.25738 0.55783 0.95613 0.0
H89 H 0.24942 0.5594 0.89997 0.0
H90 H 0.32907 0.62586 0.93396 0.0
O91 O 0.41359 0.63076 1.01688 0.0
O92 O 0.42842 0.65178 0.0855 0.0
C93 C 0.24808 0.50125 0.05364 0.0
O94 O 0.68074 0.58199 0.0873 0.0
O95 O 0.67675 0.56896 1.01911 0.0
Zn96 Zn 0.47208 0.52045 0.58267 0.0
O97 O 0.28584 0.55563 0.583 0.0
C98 C 0.37527 0.38384 0.54998 0.0
Zn99 Zn 0.47675 0.50355 0.51313 0.0
C100 C 0.2293 0.55322 0.54791 0.0
O101 O 0.29161 0.53631 0.51463 0.0
C102 C 0.71988 0.47109 0.54735 0.0
O103 O 0.545 0.604 0.51172 0.0
O104 O 0.54632 0.61942 0.58053 0.0
N105 N 0.4627 0.4835 0.44905 0.0
C106 C 0.51133 0.51194 0.41711 0.0
C107 C 0.37879 0.43729 0.3906 0.0
N108 N 0.38106 0.43687 0.43236 0.0
N109 N 0.45983 0.48398 0.38035 0.0
C110 C 0.41667 0.52522 0.67911 0.0
C111 C 0.58889 0.5683 0.70432 0.0
N112 N 0.48716 0.5385 0.64654 0.0
N113 N 0.59348 0.56564 0.66244 0.0
N114 N 0.47929 0.54294 0.71563 0.0
H115 H 0.24222 0.49712 0.70598 0.0
H116 H 0.29788 0.43901 0.66163 0.0
H117 H 0.2303 0.51868 0.65342 0.0
C118 C 0.28906 0.49343 0.67505 0.0
C119 C 0.60633 0.56793 0.4218 0.0
H120 H 0.55927 0.61694 0.43311 0.0
H121 H 0.65218 0.57231 0.39147 0.0
H122 H 0.67863 0.55789 0.44494 0.0
O123 O 0.66362 0.47072 0.51239 0.0
O124 O 0.657 0.48551 0.58075 0.0
C125 C 0.57233 0.64071 0.54622 0.0
O126 O 0.3996 0.42101 0.5846 0.0
O127 O 0.40645 0.40403 0.51581 0.0
C128 C 0.34979 0.78153 0.02589 0.0
C129 C 0.31312 0.73142 0.05062 0.0
C130 C 0.1168 0.79405 0.0694 0.0
C131 C 0.15435 0.84471 0.04525 0.0
N132 N 0.29801 0.88247 0.99538 0.0
N133 N 0.16859 0.69359 0.10028 0.0
C134 C 0.26811 0.83713 1.02193 0.0
C135 C 0.19881 0.73879 0.07368 0.0
N136 N 0.46759 0.77896 1.00899 0.0
N137 N -0.00205 0.79582 0.08542 0.0
H138 H 0.21549 0.64794 0.10125 0.0
H139 H 0.10077 0.70338 0.12349 0.0
H140 H 0.93334 0.83384 0.08134 0.0
H141 H 0.95832 0.7565 0.09909 0.0
H142 H 0.50695 0.81795 0.99495 0.0
H143 H 0.53169 0.74033 1.0123 0.0
H144 H 0.36465 0.87251 0.97181 0.0
H145 H 0.25178 0.92843 0.99481 0.0
C146 C 0.78458 0.35072 0.07373 0.0
C147 C 0.66254 0.34976 0.05549 0.0
C148 C 0.6838 0.22763 0.03036 0.0
C149 C 0.80686 0.22887 0.04782 0.0
N150 N -0.0173 0.29236 0.07998 0.0
N151 N 0.48637 0.28644 1.02347 0.0
C152 C 0.85896 0.2905 0.06831 0.0
C153 C 0.61007 0.28807 0.03525 0.0
N154 N 0.82901 0.40892 0.09691 0.0
N155 N 0.6376 0.16868 1.00865 0.0
H156 H 0.42871 0.32935 0.02762 0.0
H157 H 0.43701 0.24208 1.01289 0.0
H158 H 0.68136 0.12177 1.00818 0.0
H159 H 0.55936 0.16663 0.98913 0.0
H160 H 0.907 0.41003 0.11652 0.0
H161 H 0.78368 0.4557 0.0991 0.0
H162 H 0.03164 0.33697 0.09037 0.0
H163 H 0.04058 0.24954 0.07586 0.0
C164 C 0.09235 0.26769 0.55611 0.0
C165 C 0.14165 0.20432 0.53744 0.0
C166 C 0.34696 0.25788 0.52928 0.0
C167 C 0.29788 0.32113 0.54842 0.0
N168 N 0.12886 0.38525 0.58504 0.0
N169 N 0.31018 0.1399 0.50066 0.0
C170 C 0.17207 0.32571 0.56328 0.0
C171 C 0.26726 0.19966 0.52233 0.0
N172 N 0.96657 0.27333 0.56428 0.0
N173 N 0.47239 0.25259 0.5205 0.0
H174 H 0.25972 0.09467 0.49717 0.0
H175 H 0.39289 0.13583 0.4835 0.0
H176 H 0.53375 0.29384 0.52601 0.0
H177 H 0.51864 0.20675 0.51129 0.0
H178 H 0.9206 0.31939 0.57311 0.0
H179 H 0.90486 0.23227 0.55836 0.0
H180 H 0.04724 0.38862 0.60278 0.0
H181 H 0.1782 0.43078 0.58799 0.0
C182 C 0.84613 0.76094 0.53464 0.0
C183 C 0.79294 0.82453 0.55094 0.0
C184 C 0.59704 0.76732 0.56658 0.0
C185 C 0.64649 0.70446 0.54688 0.0
N186 N 0.81638 0.64114 0.51028 0.0
N187 N 0.614 0.89025 0.57891 0.0
C188 C 0.77031 0.70133 0.53021 0.0
C189 C 0.66779 0.8282 0.56641 0.0
N190 N -0.02854 0.75704 0.52559 0.0
N191 N 0.48173 0.76887 0.58517 0.0
H192 H 0.66118 0.93607 0.57905 0.0
H193 H 0.51992 0.897 0.58664 0.0
H194 H 0.42204 0.72689 0.58256 0.0
H195 H 0.44704 0.81059 0.60506 0.0
H196 H 0.02017 0.71144 0.51827 0.0
H197 H 0.03011 0.79953 0.52907 0.0
H198 H 0.89615 0.63761 0.49161 0.0
H199 H 0.77156 0.59477 0.51054 0.0
C200 C 0.42077 0.04448 1.00822 0.0
C201 C 0.36137 0.06961 0.04665 0.0
C202 C 0.53158 0.02296 0.08509 0.0
C203 C 0.5914 -0.00147 0.04669 0.0
N204 N 0.56358 0.9608 0.97289 0.0
N205 N 0.38995 0.10695 0.1206 0.0
C206 C 0.52685 0.00157 1.0085 0.0
C207 C 0.42555 0.06599 0.08491 0.0
N208 N 0.38064 0.0652 0.97177 0.0
N209 N 0.57132 0.00158 0.12138 0.0
H210 H 0.32189 0.1447 0.12021 0.0
H211 H 0.43943 0.10993 0.1488 0.0
H212 H 0.63917 0.96365 0.12146 0.0
H213 H 0.52519 0.01404 0.1499 0.0
H214 H 0.42651 0.0523 0.94324 0.0
H215 H 0.31319 0.10329 0.97149 0.0
H216 H 0.51471 0.95748 0.94457 0.0
H217 H 0.63325 0.92391 0.9734 0.0
C218 C 0.40609 0.0245 0.58228 0.0
C219 C 0.34879 0.9842 0.54728 0.0
C220 C 0.52088 0.01163 0.50263 0.0
C221 C 0.57887 0.05098 0.53773 0.0
N222 N 0.5492 0.11693 0.60547 0.0
N223 N 0.37856 0.91917 0.4791 0.0
C224 C 0.51254 0.06436 0.57591 0.0
C225 C 0.41461 0.9716 0.50887 0.0
N226 N 0.36661 0.01976 0.62201 0.0
N227 N 0.56095 0.01674 0.46302 0.0
H228 H 0.30725 0.88556 0.48459 0.0
H229 H 0.42929 0.90411 0.45176 0.0
H230 H 0.62646 0.05319 0.45715 0.0
H231 H 0.51597 0.99276 0.43611 0.0
H232 H 0.41129 0.0445 0.64875 0.0
H233 H 0.30268 0.98283 0.62827 0.0
H234 H 0.49825 0.13272 0.63267 0.0
H235 H 0.62178 0.14973 0.5999 0.0
C236 C 0.93877 0.55175 1.01463 0.0
C237 C 0.87815 0.57704 0.05276 0.0
C238 C 0.04766 0.53132 0.092 0.0
C239 C 0.10818 0.50618 0.05383 0.0
N240 N 0.08002 0.46654 0.9802 0.0
N241 N 0.90303 0.61444 0.12685 0.0
C242 C 0.04442 0.50864 1.01541 0.0
C243 C 0.94119 0.57391 0.0913 0.0
N244 N 0.9004 0.57239 0.97798 0.0
N245 N 0.08772 0.51114 0.1286 0.0
H246 H 0.83432 0.65176 0.12609 0.0
H247 H 0.95084 0.61773 0.15536 0.0
H248 H 0.15596 0.4735 0.12901 0.0
H249 H 0.04151 0.52394 0.15707 0.0
H250 H 0.94757 0.55925 0.9497 0.0
H251 H 0.83293 0.61037 0.97731 0.0
H252 H 0.0307 0.46273 0.95193 0.0
H253 H 0.1483 0.42904 0.98111 0.0
C254 C 0.02226 0.55291 0.58402 0.0
C255 C 0.08954 0.54757 0.546 0.0
C256 C 0.92643 0.4728 0.51114 0.0
C257 C 0.85954 0.47766 0.54927 0.0
N258 N 0.87556 0.49771 0.62484 0.0
N259 N 0.07372 0.52807 0.47047 0.0
C260 C 0.91619 0.51089 0.58669 0.0
C261 C 0.03264 0.51475 0.50854 0.0
N262 N 0.05674 0.60038 0.61698 0.0
N263 N 0.89128 0.4259 0.47796 0.0
H264 H 0.13939 0.56614 0.4678 0.0
H265 H 0.02958 0.50924 0.44225 0.0
H266 H 0.82006 0.39069 0.48052 0.0
H267 H 0.94272 0.41637 0.4503 0.0
H268 H 0.00488 0.61024 0.64453 0.0
H269 H 0.1281 0.63547 0.61432 0.0
H270 H 0.91974 0.51696 0.65298 0.0
H271 H 0.81088 0.45927 0.6277 0.0
C272 C 0.08415 0.00599 0.31542 0.0
C273 C -0.03174 0.9941 0.33435 0.0
C274 C 0.85442 0.02346 0.27315 0.0
C275 C -0.02943 0.03177 0.25339 0.0
N276 N 0.19485 0.02133 0.25174 0.0
N277 N 0.74424 0.98322 0.33083 0.0
C278 C 0.08533 0.02018 0.27345 0.0
C279 C 0.85341 0.00044 0.313 0.0
N280 N 0.19234 0.00581 0.33831 0.0
N281 N 0.74594 0.03944 0.25403 0.0
H282 H 0.74186 0.96722 0.3603 0.0
H283 H 0.65761 0.98075 0.31566 0.0
H284 H 0.74497 0.05539 0.22454 0.0
H285 H 0.65817 0.0407 0.26811 0.0
H286 H 0.27914 0.02047 0.32797 0.0
H287 H 0.19363 -0.00422 0.36923 0.0
H288 H 0.28129 0.00716 0.26293 0.0
H289 H 0.19762 0.03149 0.22086 0.0
C290 C 0.92278 0.96794 0.80577 0.0
C291 C 0.93749 0.02466 0.83735 0.0
C292 C 0.9196 0.10049 0.7841 0.0
C293 C 0.92987 0.04376 0.75231 0.0
N294 N 0.96027 0.92281 0.73319 0.0
N295 N 0.96667 0.14561 0.85626 0.0
C296 C 0.9343 0.97696 0.76305 0.0
C297 C 0.93821 0.09146 0.82663 0.0
N298 N 0.90023 0.90536 0.81696 0.0
N299 N 0.89466 0.1631 0.77322 0.0
H300 H -0.01235 0.14048 0.88727 0.0
H301 H -0.01935 0.19465 0.84924 0.0
H302 H 0.88037 0.17024 0.74204 0.0
H303 H 0.87617 0.20584 0.7951 0.0
H304 H 0.87859 0.86272 0.79531 0.0
H305 H 0.89083 0.89815 0.84828 0.0
H306 H -0.02316 0.87393 0.74017 0.0
H307 H -0.02277 0.92775 0.70196 0.0
C308 C 0.3765 0.54842 0.32648 0.0
C309 C 0.47048 0.50584 0.33992 0.0
C310 C 0.58569 0.50764 0.27459 0.0
C311 C 0.48741 0.54639 0.2601 0.0
N312 N 0.28241 0.59632 0.26841 0.0
N313 N 0.65708 0.43875 0.32675 0.0
C314 C 0.38071 0.56479 0.28504 0.0
C315 C 0.57328 0.48367 0.3139 0.0
N316 N 0.28568 0.57461 0.35395 0.0
N317 N 0.69167 0.49552 0.25104 0.0
H318 H 0.65021 0.42159 0.35581 0.0
H319 H 0.72836 0.41541 0.30794 0.0
H320 H 0.70194 0.51224 0.22197 0.0
H321 H 0.77207 0.47289 0.26121 0.0
H322 H 0.22092 0.61111 0.3476 0.0
H323 H 0.28101 0.56356 0.38461 0.0
H324 H 0.19634 0.60543 0.28327 0.0
H325 H 0.28401 0.60891 0.23805 0.0
C326 C 0.44328 0.46926 0.77044 0.0
C327 C 0.44745 0.53492 0.75804 0.0
C328 C 0.4595 0.5869 0.83154 0.0
C329 C 0.45148 0.52141 0.84396 0.0
N330 N 0.40219 0.40288 0.82658 0.0
N331 N 0.42512 0.65578 0.77608 0.0
C332 C 0.4309 0.46351 0.81366 0.0
C333 C 0.44282 0.59362 0.78858 0.0
N334 N 0.46154 0.41277 0.74157 0.0
N335 N 0.49334 0.64163 0.85999 0.0
H336 H 0.41215 0.66124 0.74457 0.0
H337 H 0.41104 0.70022 0.797 0.0
H338 H 0.51312 0.63788 0.89128 0.0
H339 H 0.51277 0.68938 0.85174 0.0
H340 H 0.47212 0.36408 0.74961 0.0
H341 H 0.47726 0.41516 0.70994 0.0
H342 H 0.37623 0.35972 0.80601 0.0
H343 H 0.39253 0.39815 0.85828 0.0
loop_
_geom_bond_atom_site_label_1
_geom_bond_atom_site_label_2
_geom_bond_distance
_geom_bond_site_symmetry_2
_ccdc_geom_bond_type
Zn0 O1 2.055 1_645 S
Zn0 O8 2.046 1_545 S
Zn0 N16 2.036 . S
Zn0 O28 2.053 . S
Zn0 O30 2.066 1_655 S
O1 Zn0 2.055 1_465 S
O1 C4 1.259 . S
C2 O30 1.256 . S
C2 O31 1.244 1_554 S
Zn3 O5 2.046 1_655 S
Zn3 O7 2.055 . S
Zn3 N9 2.036 1_655 S
Zn3 O27 2.066 1_565 S
Zn3 O31 2.053 1_665 S
C4 O1 1.259 . S
C4 O5 1.254 1_554 S
O5 Zn3 2.046 1_455 S
O5 C4 1.254 1_556 S
C6 O27 1.256 1_554 S
C6 O28 1.244 . S
O7 Zn3 2.055 . S
O7 C29 1.259 1_556 S
O8 Zn0 2.046 1_565 S
O8 C29 1.254 . S
N9 Zn3 2.036 1_455 S
N9 C10 1.298 1_465 S
N9 N12 1.398 . S
C10 N9 1.298 1_645 S
C10 N13 1.367 1_655 S
C10 C23 1.481 . S
C11 N12 1.299 . S
C11 N13 1.379 1_565 S
N12 N9 1.398 . S
N12 C11 1.299 . S
N13 C10 1.367 1_455 S
N13 C11 1.379 1_545 S
C14 N16 1.298 1_465 S
C14 N18 1.367 1_565 S
C14 C22 1.481 . S
C15 N17 1.299 . S
C15 N18 1.379 1_655 S
N16 Zn0 2.036 . S
N16 C14 1.298 1_645 S
N16 N17 1.398 . S
N17 C15 1.299 . S
N17 N16 1.398 . S
N18 C14 1.367 1_545 S
N18 C15 1.379 1_455 S
H19 C22 0.980 . S
H20 C22 0.981 . S
H21 C22 0.981 . S
C22 C14 1.481 . S
C22 H19 0.980 . S
C22 H20 0.981 . S
C22 H21 0.981 . S
C23 C10 1.481 . S
C23 H24 0.980 1_545 S
C23 H25 0.981 1_545 S
C23 H26 0.981 . S
H24 C23 0.980 1_565 S
H25 C23 0.981 1_565 S
H26 C23 0.981 . S
O27 Zn3 2.066 1_545 S
O27 C6 1.256 1_556 S
O28 Zn0 2.053 . S
O28 C6 1.244 . S
C29 O7 1.259 1_554 S
C29 O8 1.254 . S
O30 Zn0 2.066 1_455 S
O30 C2 1.256 . S
O31 C2 1.244 1_556 S
O31 Zn3 2.053 1_445 S
Zn32 O33 2.055 . S
Zn32 O40 2.046 1_655 S
Zn32 N48 2.036 1_655 S
Zn32 O60 2.053 1_655 S
Zn32 O62 2.066 1_545 S
O33 Zn32 2.055 . S
O33 C36 1.259 . S
C34 O62 1.256 . S
C34 O63 1.244 . S
Zn35 O37 2.046 . S
Zn35 O39 2.055 1_655 S
Zn35 N41 2.036 . S
Zn35 O59 2.066 1_655 S
Zn35 O63 2.053 1_545 S
C36 O33 1.259 . S
C36 O37 1.254 . S
O37 Zn35 2.046 . S
O37 C36 1.254 . S
C38 O59 1.256 . S
C38 O60 1.244 . S
O39 Zn35 2.055 1_455 S
O39 C61 1.259 . S
O40 Zn32 2.046 1_455 S
O40 C61 1.254 . S
N41 Zn35 2.036 . S
N41 C42 1.298 1_655 S
N41 N44 1.398 1_545 S
C42 N41 1.298 1_455 S
C42 N45 1.367 . S
C42 C55 1.481 . S
C43 N44 1.299 . S
C43 N45 1.379 1_665 S
N44 N41 1.398 1_565 S
N44 C43 1.299 . S
N45 C42 1.367 . S
N45 C43 1.379 1_445 S
C46 N48 1.298 1_655 S
C46 N50 1.367 1_655 S
C46 C54 1.481 . S
C47 N49 1.299 . S
C47 N50 1.379 . S
N48 Zn32 2.036 1_455 S
N48 C46 1.298 1_455 S
N48 N49 1.398 . S
N49 C47 1.299 . S
N49 N48 1.398 . S
N50 C46 1.367 1_455 S
N50 C47 1.379 . S
H51 C54 0.980 . S
H52 C54 0.981 . S
H53 C54 0.981 1_565 S
C54 C46 1.481 . S
C54 H51 0.980 . S
C54 H52 0.981 . S
C54 H53 0.981 1_545 S
C55 C42 1.481 . S
C55 H56 0.980 . S
C55 H57 0.981 . S
C55 H58 0.981 . S
H56 C55 0.980 . S
H57 C55 0.981 . S
H58 C55 0.981 . S
O59 Zn35 2.066 1_455 S
O59 C38 1.256 . S
O60 Zn32 2.053 1_455 S
O60 C38 1.244 . S
C61 O39 1.259 . S
C61 O40 1.254 . S
O62 Zn32 2.066 1_565 S
O62 C34 1.256 . S
O63 C34 1.244 . S
O63 Zn35 2.053 1_565 S
Zn64 O65 2.055 . S
Zn64 O72 2.046 . S
Zn64 N80 2.036 . S
Zn64 O92 2.053 . S
Zn64 O94 2.066 . S
O65 Zn64 2.055 . S
O65 C68 1.259 . S
C66 O94 1.256 . S
C66 O95 1.244 1_554 S
Zn67 O69 2.046 . S
Zn67 O71 2.055 . S
Zn67 N73 2.036 . S
Zn67 O91 2.066 . S
Zn67 O95 2.053 . S
C68 O65 1.259 . S
C68 O69 1.254 1_554 S
O69 Zn67 2.046 . S
O69 C68 1.254 1_556 S
C70 O91 1.256 1_554 S
C70 O92 1.244 . S
O71 Zn67 2.055 . S
O71 C93 1.259 1_556 S
O72 Zn64 2.046 . S
O72 C93 1.254 . S
N73 Zn67 2.036 . S
N73 C74 1.298 . S
N73 N76 1.398 . S
C74 N73 1.298 . S
C74 N77 1.367 . S
C74 C87 1.481 . S
C75 N76 1.299 . S
C75 N77 1.379 . S
N76 N73 1.398 . S
N76 C75 1.299 . S
N77 C74 1.367 . S
N77 C75 1.379 . S
C78 N80 1.298 . S
C78 N82 1.367 . S
C78 C86 1.481 . S
C79 N81 1.299 . S
C79 N82 1.379 . S
N80 Zn64 2.036 . S
N80 C78 1.298 . S
N80 N81 1.398 . S
N81 C79 1.299 . S
N81 N80 1.398 . S
N82 C78 1.367 . S
N82 C79 1.379 . S
H83 C86 0.980 . S
H84 C86 0.981 . S
H85 C86 0.981 . S
C86 C78 1.481 . S
C86 H83 0.980 . S
C86 H84 0.981 . S
C86 H85 0.981 . S
C87 C74 1.481 . S
C87 H88 0.980 . S
C87 H89 0.981 . S
C87 H90 0.981 . S
H88 C87 0.980 . S
H89 C87 0.981 . S
H90 C87 0.981 . S
O91 Zn67 2.066 . S
O91 C70 1.256 1_556 S
O92 Zn64 2.053 . S
O92 C70 1.244 . S
C93 O71 1.259 1_554 S
C93 O72 1.254 . S
O94 Zn64 2.066 . S
O94 C66 1.256 . S
O95 C66 1.244 1_556 S
O95 Zn67 2.053 . S
Zn96 O97 2.055 . S
Zn96 O104 2.046 . S
Zn96 N112 2.036 . S
Zn96 O124 2.053 . S
Zn96 O126 2.066 . S
O97 Zn96 2.055 . S
O97 C100 1.259 . S
C98 O126 1.256 . S
C98 O127 1.244 . S
Zn99 O101 2.046 . S
Zn99 O103 2.055 . S
Zn99 N105 2.036 . S
Zn99 O123 2.066 . S
Zn99 O127 2.053 . S
C100 O97 1.259 . S
C100 O101 1.254 . S
O101 Zn99 2.046 . S
O101 C100 1.254 . S
C102 O123 1.256 . S
C102 O124 1.244 . S
O103 Zn99 2.055 . S
O103 C125 1.259 . S
O104 Zn96 2.046 . S
O104 C125 1.254 . S
N105 Zn99 2.036 . S
N105 C106 1.298 . S
N105 N108 1.398 . S
C106 N105 1.298 . S
C106 N109 1.367 . S
C106 C119 1.481 . S
C107 N108 1.299 . S
C107 N109 1.379 . S
N108 N105 1.398 . S
N108 C107 1.299 . S
N109 C106 1.367 . S
N109 C107 1.379 . S
C110 N112 1.298 . S
C110 N114 1.367 . S
C110 C118 1.481 . S
C111 N113 1.299 . S
C111 N114 1.379 . S
N112 Zn96 2.036 . S
N112 C110 1.298 . S
N112 N113 1.398 . S
N113 C111 1.299 . S
N113 N112 1.398 . S
N114 C110 1.367 . S
N114 C111 1.379 . S
H115 C118 0.980 . S
H116 C118 0.981 . S
H117 C118 0.981 . S
C118 C110 1.481 . S
C118 H115 0.980 . S
C118 H116 0.981 . S
C118 H117 0.981 . S
C119 C106 1.481 . S
C119 H120 0.980 . S
C119 H121 0.981 . S
C119 H122 0.981 . S
H120 C119 0.980 . S
H121 C119 0.981 . S
H122 C119 0.981 . S
O123 Zn99 2.066 . S
O123 C102 1.256 . S
O124 Zn96 2.053 . S
O124 C102 1.244 . S
C125 O103 1.259 . S
C125 O104 1.254 . S
O126 Zn96 2.066 . S
O126 C98 1.256 . S
O127 C98 1.244 . S
O127 Zn99 2.053 . S
C128 C129 1.363 1_556 S
C128 C134 1.379 . S
C128 N136 1.356 . S
C129 C128 1.363 1_554 S
C129 C135 1.363 . S
C130 C131 1.363 . S
C130 C135 1.379 . S
C130 N137 1.356 . S
C131 C130 1.363 . S
C131 C134 1.363 1_554 S
N132 C134 1.356 . S
N132 H144 0.984 . S
N132 H145 0.985 . S
N133 C135 1.356 . S
N133 H138 0.984 . S
N133 H139 0.985 . S
C134 C128 1.379 . S
C134 C131 1.363 1_556 S
C134 N132 1.356 . S
C135 C129 1.363 . S
C135 C130 1.379 . S
C135 N133 1.356 . S
N136 C128 1.356 . S
N136 H142 0.984 . S
N136 H143 0.984 . S
N137 C130 1.356 . S
N137 H140 0.984 1_455 S
N137 H141 0.985 1_455 S
H138 N133 0.984 . S
H139 N133 0.985 . S
H140 N137 0.984 1_655 S
H141 N137 0.985 1_655 S
H142 N136 0.984 . S
H143 N136 0.984 . S
H144 N132 0.984 . S
H145 N132 0.985 . S
C146 C147 1.363 . S
C146 C152 1.379 . S
C146 N154 1.356 . S
C147 C146 1.363 . S
C147 C153 1.363 1_554 S
C148 C149 1.363 1_556 S
C148 C153 1.379 . S
C148 N155 1.356 . S
C149 C148 1.363 1_554 S
C149 C152 1.363 . S
N150 C152 1.356 . S
N150 H162 0.984 . S
N150 H163 0.985 . S
N151 C153 1.356 . S
N151 H156 0.984 . S
N151 H157 0.985 . S
C152 C146 1.379 . S
C152 C149 1.363 . S
C152 N150 1.356 . S
C153 C147 1.363 1_556 S
C153 C148 1.379 . S
C153 N151 1.356 . S
N154 C146 1.356 . S
N154 H160 0.984 . S
N154 H161 0.984 . S
N155 C148 1.356 . S
N155 H158 0.984 . S
N155 H159 0.985 . S
H156 N151 0.984 . S
H157 N151 0.985 . S
H158 N155 0.984 . S
H159 N155 0.985 . S
H160 N154 0.984 . S
H161 N154 0.984 . S
H162 N150 0.984 . S
H163 N150 0.985 . S
C164 C165 1.363 . S
C164 C170 1.379 . S
C164 N172 1.356 . S
C165 C164 1.363 . S
C165 C171 1.363 . S
C166 C167 1.363 . S
C166 C171 1.379 . S
C166 N173 1.356 . S
C167 C166 1.363 . S
C167 C170 1.363 . S
N168 C170 1.356 . S
N168 H180 0.984 . S
N168 H181 0.985 . S
N169 C171 1.356 . S
N169 H174 0.984 . S
N169 H175 0.985 . S
C170 C164 1.379 . S
C170 C167 1.363 . S
C170 N168 1.356 . S
C171 C165 1.363 . S
C171 C166 1.379 . S
C171 N169 1.356 . S
N172 C164 1.356 . S
N172 H178 0.984 1_455 S
N172 H179 0.984 1_455 S
N173 C166 1.356 . S
N173 H176 0.984 . S
N173 H177 0.985 . S
H174 N169 0.984 . S
H175 N169 0.985 . S
H176 N173 0.984 . S
H177 N173 0.985 . S
H178 N172 0.984 1_655 S
H179 N172 0.984 1_655 S
H180 N168 0.984 . S
H181 N168 0.985 . S
C182 C183 1.363 . S
C182 C188 1.379 . S
C182 N190 1.356 . S
C183 C182 1.363 . S
C183 C189 1.363 . S
C184 C185 1.363 . S
C184 C189 1.379 . S
C184 N191 1.356 . S
C185 C184 1.363 . S
C185 C188 1.363 . S
N186 C188 1.356 . S
N186 H198 0.984 . S
N186 H199 0.985 . S
N187 C189 1.356 . S
N187 H192 0.984 . S
N187 H193 0.985 . S
C188 C182 1.379 . S
C188 C185 1.363 . S
C188 N186 1.356 . S
C189 C183 1.363 . S
C189 C184 1.379 . S
C189 N187 1.356 . S
N190 C182 1.356 . S
N190 H196 0.984 1_655 S
N190 H197 0.984 1_655 S
N191 C184 1.356 . S
N191 H194 0.984 . S
N191 H195 0.985 . S
H192 N187 0.984 . S
H193 N187 0.985 . S
H194 N191 0.984 . S
H195 N191 0.985 . S
H196 N190 0.984 1_455 S
H197 N190 0.984 1_455 S
H198 N186 0.984 . S
H199 N186 0.985 . S
C200 C201 1.363 1_556 S
C200 C206 1.379 1_545 S
C200 N208 1.356 . S
C201 C200 1.363 1_554 S
C201 C207 1.363 . S
C202 C203 1.363 1_545 S
C202 C207 1.379 . S
C202 N209 1.356 1_545 S
C203 C202 1.363 1_565 S
C203 C206 1.363 1_554 S
N204 C206 1.356 . S
N204 H216 0.984 . S
N204 H217 0.985 . S
N205 C207 1.356 . S
N205 H210 0.984 . S
N205 H211 0.985 . S
C206 C200 1.379 1_565 S
C206 C203 1.363 1_556 S
C206 N204 1.356 . S
C207 C201 1.363 . S
C207 C202 1.379 . S
C207 N205 1.356 . S
N208 C200 1.356 . S
N208 H214 0.985 . S
N208 H215 0.984 . S
N209 C202 1.356 1_565 S
N209 H212 0.984 . S
N209 H213 0.985 1_565 S
H210 N205 0.984 . S
H211 N205 0.985 . S
H212 N209 0.984 . S
H213 N209 0.985 1_545 S
H214 N208 0.985 . S
H215 N208 0.984 . S
H216 N204 0.984 . S
H217 N204 0.985 . S
C218 C219 1.363 . S
C218 C224 1.379 . S
C218 N226 1.356 . S
C219 C218 1.363 . S
C219 C225 1.363 1_545 S
C220 C221 1.363 . S
C220 C225 1.379 1_545 S
C220 N227 1.356 1_545 S
C221 C220 1.363 . S
C221 C224 1.363 . S
N222 C224 1.356 . S
N222 H234 0.984 . S
N222 H235 0.985 . S
N223 C225 1.356 . S
N223 H228 0.984 . S
N223 H229 0.985 . S
C224 C218 1.379 . S
C224 C221 1.363 . S
C224 N222 1.356 . S
C225 C219 1.363 1_565 S
C225 C220 1.379 1_565 S
C225 N223 1.356 . S
N226 C218 1.356 . S
N226 H232 0.984 . S
N226 H233 0.984 . S
N227 C220 1.356 1_565 S
N227 H230 0.984 1_565 S
N227 H231 0.985 . S
H228 N223 0.984 . S
H229 N223 0.985 . S
H230 N227 0.984 1_545 S
H231 N227 0.985 . S
H232 N226 0.984 . S
H233 N226 0.984 . S
H234 N222 0.984 . S
H235 N222 0.985 . S
C236 C237 1.363 1_556 S
C236 C242 1.379 1_655 S
C236 N244 1.356 . S
C237 C236 1.363 1_554 S
C237 C243 1.363 . S
C238 C239 1.363 . S
C238 C243 1.379 1_455 S
C238 N245 1.356 . S
C239 C238 1.363 . S
C239 C242 1.363 1_554 S
N240 C242 1.356 . S
N240 H252 0.984 . S
N240 H253 0.985 . S
N241 C243 1.356 . S
N241 H246 0.984 . S
N241 H247 0.985 . S
C242 C236 1.379 1_455 S
C242 C239 1.363 1_556 S
C242 N240 1.356 . S
C243 C237 1.363 . S
C243 C238 1.379 1_655 S
C243 N241 1.356 . S
N244 C236 1.356 . S
N244 H250 0.984 . S
N244 H251 0.984 . S
N245 C238 1.356 . S
N245 H248 0.984 . S
N245 H249 0.985 . S
H246 N241 0.984 . S
H247 N241 0.985 . S
H248 N245 0.984 . S
H249 N245 0.985 . S
H250 N244 0.984 . S
H251 N244 0.984 . S
H252 N240 0.984 . S
H253 N240 0.985 . S
C254 C255 1.363 . S
C254 C260 1.379 1_455 S
C254 N262 1.356 . S
C255 C254 1.363 . S
C255 C261 1.363 . S
C256 C257 1.363 . S
C256 C261 1.379 1_655 S
C256 N263 1.356 . S
C257 C256 1.363 . S
C257 C260 1.363 . S
N258 C260 1.356 . S
N258 H270 0.984 . S
N258 H271 0.985 . S
N259 C261 1.356 . S
N259 H264 0.984 . S
N259 H265 0.985 . S
C260 C254 1.379 1_655 S
C260 C257 1.363 . S
C260 N258 1.356 . S
C261 C255 1.363 . S
C261 C256 1.379 1_455 S
C261 N259 1.356 . S
N262 C254 1.356 . S
N262 H268 0.984 . S
N262 H269 0.984 . S
N263 C256 1.356 . S
N263 H266 0.984 . S
N263 H267 0.985 . S
H264 N259 0.984 . S
H265 N259 0.985 . S
H266 N263 0.984 . S
H267 N263 0.985 . S
H268 N262 0.984 . S
H269 N262 0.984 . S
H270 N258 0.984 . S
H271 N258 0.985 . S
C272 C273 1.363 1_565 S
C272 C278 1.379 . S
C272 N280 1.356 . S
C273 C272 1.363 1_545 S
C273 C279 1.363 . S
C274 C275 1.363 . S
C274 C279 1.379 . S
C274 N281 1.356 1_455 S
C275 C274 1.363 . S
C275 C278 1.363 1_545 S
N276 C278 1.356 . S
N276 H288 0.984 . S
N276 H289 0.985 . S
N277 C279 1.356 1_655 S
N277 H282 0.984 . S
N277 H283 0.985 . S
C278 C272 1.379 . S
C278 C275 1.363 1_565 S
C278 N276 1.356 . S
C279 C273 1.363 . S
C279 C274 1.379 . S
C279 N277 1.356 1_455 S
N280 C272 1.356 . S
N280 H286 0.984 . S
N280 H287 0.984 . S
N281 C274 1.356 1_655 S
N281 H284 0.984 . S
N281 H285 0.985 . S
H282 N277 0.984 . S
H283 N277 0.985 . S
H284 N281 0.984 . S
H285 N281 0.985 . S
H286 N280 0.984 . S
H287 N280 0.984 . S
H288 N276 0.984 . S
H289 N276 0.985 . S
C290 C291 1.363 1_465 S
C290 C296 1.379 . S
C290 N298 1.356 . S
C291 C290 1.363 1_645 S
C291 C297 1.363 . S
C292 C293 1.363 . S
C292 C297 1.379 . S
C292 N299 1.356 . S
C293 C292 1.363 . S
C293 C296 1.363 1_645 S
N294 C296 1.356 . S
N294 H306 0.984 . S
N294 H307 0.985 . S
N295 C297 1.356 . S
N295 H300 0.984 . S
N295 H301 0.985 . S
C296 C290 1.379 . S
C296 C293 1.363 1_465 S
C296 N294 1.356 . S
C297 C291 1.363 . S
C297 C292 1.379 . S
C297 N295 1.356 . S
N298 C290 1.356 . S
N298 H304 0.984 . S
N298 H305 0.984 . S
N299 C292 1.356 . S
N299 H302 0.984 . S
N299 H303 0.985 . S
H300 N295 0.984 . S
H301 N295 0.985 . S
H302 N299 0.984 . S
H303 N299 0.985 . S
H304 N298 0.984 . S
H305 N298 0.984 . S
H306 N294 0.984 . S
H307 N294 0.985 . S
C308 C309 1.363 . S
C308 C314 1.379 . S
C308 N316 1.356 . S
C309 C308 1.363 . S
C309 C315 1.363 . S
C310 C311 1.363 . S
C310 C315 1.379 . S
C310 N317 1.356 . S
C311 C310 1.363 . S
C311 C314 1.363 . S
N312 C314 1.356 . S
N312 H324 0.984 . S
N312 H325 0.985 . S
N313 C315 1.356 . S
N313 H318 0.984 . S
N313 H319 0.985 . S
C314 C308 1.379 . S
C314 C311 1.363 . S
C314 N312 1.356 . S
C315 C309 1.363 . S
C315 C310 1.379 . S
C315 N313 1.356 . S
N316 C308 1.356 . S
N316 H322 0.984 . S
N316 H323 0.984 . S
N317 C310 1.356 . S
N317 H320 0.984 . S
N317 H321 0.985 . S
H318 N313 0.984 . S
H319 N313 0.985 . S
H320 N317 0.984 . S
H321 N317 0.985 . S
H322 N316 0.984 . S
H323 N316 0.984 . S
H324 N312 0.984 . S
H325 N312 0.985 . S
C326 C327 1.363 . S
C326 C332 1.379 . S
C326 N334 1.356 . S
C327 C326 1.363 . S
C327 C333 1.363 . S
C328 C329 1.363 . S
C328 C333 1.379 . S
C328 N335 1.356 . S
C329 C328 1.363 . S
C329 C332 1.363 . S
N330 C332 1.356 . S
N330 H342 0.984 . S
N330 H343 0.985 . S
N331 C333 1.356 . S
N331 H336 0.984 . S
N331 H337 0.985 . S
C332 C326 1.379 . S
C332 C329 1.363 . S
C332 N330 1.356 . S
C333 C327 1.363 . S
C333 C328 1.379 . S
C333 N331 1.356 . S
N334 C326 1.356 . S
N334 H340 0.984 . S
N334 H341 0.984 . S
N335 C328 1.356 . S
N335 H338 0.984 . S
N335 H339 0.985 . S
H336 N331 0.984 . S
H337 N331 0.985 . S
H338 N335 0.984 . S
H339 N335 0.985 . S
H340 N334 0.984 . S
H341 N334 0.984 . S
H342 N330 0.984 . S
H343 N330 0.985 . S
C129 C70 1.581 . S
C131 C4 1.594 . S
C147 C68 1.594 . S
C149 C6 1.582 . S
C165 C61 1.594 . S
C167 C98 1.581 . S
C183 C34 1.581 . S
C185 C125 1.594 . S
C201 C2 1.127 . S
C203 C29 1.135 . S
C219 C38 1.127 . S
C221 C36 1.135 . S
C237 C66 1.127 . S
C239 C93 1.135 . S
C255 C100 1.135 . S
C257 C102 1.127 . S
C273 N45 1.482 . S
C275 N18 1.482 . S
C291 N13 1.459 1_655 S
C293 N50 1.459 1_655 S
C309 N109 1.482 . S
C311 N82 1.482 . S
C327 N114 1.459 . S
C329 N77 1.459 . S
