# Generated by pormake.
# Topology vmo, (7)-cn, num edge types: 1
# Building blocks:
#     Node 0, Type 0, BuildingBlock: NUHQUE_clean_sbu_2, # of connection points: 7
#     Node 1, Type 0, BuildingBlock: NUHQUE_clean_sbu_2, # of connection points: 7
#     Node 2, Type 0, BuildingBlock: NUHQUE_clean_sbu_2, # of connection points: 7
#     Node 3, Type 0, BuildingBlock: NUHQUE_clean_sbu_2, # of connection points: 7
#     Node 4, Type 0, BuildingBlock: NUHQUE_clean_sbu_2, # of connection points: 7
#     Node 5, Type 0, BuildingBlock: NUHQUE_clean_sbu_2, # of connection points: 7
#     Node 6, Type 0, BuildingBlock: NUHQUE_clean_sbu_2, # of connection points: 7
#     Node 7, Type 0, BuildingBlock: NUHQUE_clean_sbu_2, # of connection points: 7
#     Edge 8, Type (0, 0), BuildingBlock: UVAHIK_clean_linker_0, # of connection points: 2
#     Edge 9, Type (0, 0), BuildingBlock: UVAHIK_clean_linker_0, # of connection points: 2
#     Edge 10, Type (0, 0), BuildingBlock: UVAHIK_clean_linker_0, # of connection points: 2
#     Edge 11, Type (0, 0), BuildingBlock: UVAHIK_clean_linker_0, # of connection points: 2
#     Edge 12, Type (0, 0), BuildingBlock: UVAHIK_clean_linker_0, # of connection points: 2
#     Edge 13, Type (0, 0), BuildingBlock: UVAHIK_clean_linker_0, # of connection points: 2
#     Edge 14, Type (0, 0), BuildingBlock: UVAHIK_clean_linker_0, # of connection points: 2
#     Edge 15, Type (0, 0), BuildingBlock: UVAHIK_clean_linker_0, # of connection points: 2
#     Edge 16, Type (0, 0), BuildingBlock: UVAHIK_clean_linker_0, # of connection points: 2
#     Edge 17, Type (0, 0), BuildingBlock: UVAHIK_clean_linker_0, # of connection points: 2
#     Edge 18, Type (0, 0), BuildingBlock: UVAHIK_clean_linker_0, # of connection points: 2
#     Edge 19, Type (0, 0), BuildingBlock: UVAHIK_clean_linker_0, # of connection points: 2
#     Edge 20, Type (0, 0), BuildingBlock: UVAHIK_clean_linker_0, # of connection points: 2
#     Edge 21, Type (0, 0), BuildingBlock: UVAHIK_clean_linker_0, # of connection points: 2
#     Edge 22, Type (0, 0), BuildingBlock: UVAHIK_clean_linker_0, # of connection points: 2
#     Edge 23, Type (0, 0), BuildingBlock: UVAHIK_clean_linker_0, # of connection points: 2
#     Edge 24, Type (0, 0), BuildingBlock: UVAHIK_clean_linker_0, # of connection points: 2
#     Edge 25, Type (0, 0), BuildingBlock: UVAHIK_clean_linker_0, # of connection points: 2
#     Edge 26, Type (0, 0), BuildingBlock: UVAHIK_clean_linker_0, # of connection points: 2
#     Edge 27, Type (0, 0), BuildingBlock: UVAHIK_clean_linker_0, # of connection points: 2
#     Edge 28, Type (0, 0), BuildingBlock: UVAHIK_clean_linker_0, # of connection points: 2
#     Edge 29, Type (0, 0), BuildingBlock: UVAHIK_clean_linker_0, # of connection points: 2
#     Edge 30, Type (0, 0), BuildingBlock: UVAHIK_clean_linker_0, # of connection points: 2
#     Edge 31, Type (0, 0), BuildingBlock: UVAHIK_clean_linker_0, # of connection points: 2
#     Edge 32, Type (0, 0), BuildingBlock: UVAHIK_clean_linker_0, # of connection points: 2
#     Edge 33, Type (0, 0), BuildingBlock: UVAHIK_clean_linker_0, # of connection points: 2
#     Edge 34, Type (0, 0), BuildingBlock: UVAHIK_clean_linker_0, # of connection points: 2
#     Edge 35, Type (0, 0), BuildingBlock: UVAHIK_clean_linker_0, # of connection points: 2
# Relax obj value: 0.215
# Max RMSD: 0.259
# Mean RMSD: 0.259
data_MOF--net-vmo--node1-NUHQUE_clean_sbu_2--edge1-UVAHIK_clean_linker_0
_symmetry_space_group_name_H-M    P1
_symmetry_Int_Tables_number       1
_symmetry_cell_setting            triclinic
loop_
_symmetry_equiv_pos_as_xyz
'x, y, z'
_cell_length_a     40.516738
_cell_length_b     71.576814
_cell_length_c     33.91445
_cell_angle_alpha  89.961294
_cell_angle_beta   113.59965
_cell_angle_gamma 89.987255
loop_
_atom_site_label
_atom_site_type_symbol
_atom_site_fract_x
_atom_site_fract_y
_atom_site_fract_z
_atom_type_partial_charge
O0 O 0.23903 0.44425 0.26055 0.0
Tb1 Tb 0.2037 0.42898 0.20395 0.0
Eu2 Eu 0.20941 0.39135 0.09456 0.0
C3 C 0.24528 0.43831 0.29958 0.0
O4 O 0.2359 0.42122 0.30469 0.0
C5 C 0.18689 0.38826 0.17362 0.0
O6 O 0.17815 0.38744 1.02261 0.0
C7 C 0.27552 0.37978 0.12517 0.0
C8 C 0.14624 0.39529 1.00318 0.0
O9 O 0.13308 0.40493 1.02653 0.0
C10 C 0.21672 0.43539 0.12515 0.0
C11 C 0.30367 0.36966 0.11643 0.0
C12 C 0.33931 0.37624 0.13523 0.0
C13 C 0.3676 0.36588 0.13211 0.0
C14 C 0.35995 0.34878 0.11013 0.0
C15 C 0.32474 0.34163 0.09238 0.0
C16 C 0.2965 0.35237 0.09477 0.0
O17 O 0.2138 0.40021 0.19006 0.0
O18 O 0.18049 0.38064 0.13558 0.0
O19 O 0.16341 0.43241 0.23121 0.0
O20 O 0.14707 0.43352 0.16339 0.0
C21 C 0.13615 0.43436 0.19456 0.0
O22 O 0.20208 0.41882 0.1217 0.0
O23 O 0.21796 0.44505 0.15858 0.0
O24 O 0.24848 0.36981 0.12603 0.0
O25 O 0.2662 0.39664 0.10869 0.0
H26 H 0.34518 0.38919 0.15333 0.0
H27 H 0.38189 0.34056 0.10858 0.0
H28 H 0.26936 0.34681 0.08191 0.0
O29 O 0.88404 0.43659 0.27307 0.0
Tb30 Tb 0.90019 0.42925 0.3405 0.0
Eu31 Eu 0.90055 0.38799 0.44367 0.0
C32 C 0.90796 0.44398 0.26049 0.0
O33 O 0.94167 0.44511 0.28819 0.0
C34 C 0.92931 0.38936 0.37165 0.0
O35 O 0.92901 0.38422 0.51608 0.0
C36 C 0.83695 0.37316 0.40805 0.0
C37 C 0.95076 0.39752 0.539 0.0
O38 O 0.95506 0.41238 0.51879 0.0
C39 C 0.8714 0.42859 0.40858 0.0
C40 C 0.80897 0.36165 0.4138 0.0
C41 C 0.77266 0.36662 0.39112 0.0
C42 C 0.74485 0.35496 0.39145 0.0
C43 C 0.75397 0.33844 0.41588 0.0
C44 C 0.7901 0.33313 0.43838 0.0
C45 C 0.81756 0.3449 0.43742 0.0
O46 O 0.90016 0.39979 0.35599 0.0
O47 O 0.93533 0.38035 0.40778 0.0
O48 O 0.92234 0.45572 0.36963 0.0
O49 O 0.95586 0.4317 0.38764 0.0
C50 C 0.95361 0.44942 0.39536 0.0
O51 O 0.90063 0.41819 0.42414 0.0
O52 O 0.86243 0.43528 0.36941 0.0
O53 O 0.8666 0.3647 0.41056 0.0
O54 O 0.84237 0.39012 0.42434 0.0
H55 H 0.76614 0.37913 0.37142 0.0
H56 H 0.73276 0.32927 0.41607 0.0
H57 H 0.8455 0.34084 0.45427 0.0
O58 O 0.88697 0.55245 0.77523 0.0
Tb59 Tb 0.89932 0.55997 0.84174 0.0
Eu60 Eu 0.8961 0.60063 0.94293 0.0
C61 C 0.9129 0.54568 0.76538 0.0
O62 O 0.94585 0.54524 0.79526 0.0
C63 C 0.92597 0.60005 0.87203 0.0
O64 O 0.92405 0.60433 1.01531 0.0
C65 C 0.83251 0.61549 0.90667 0.0
C66 C 0.94563 0.59094 0.03818 0.0
O67 O 0.94982 0.57609 1.0179 0.0
C68 C 0.86703 0.56012 0.90658 0.0
C69 C 0.80436 0.62705 0.91194 0.0
C70 C 0.76817 0.62159 0.89048 0.0
C71 C 0.74005 0.63312 0.8905 0.0
C72 C 0.74888 0.65008 0.91321 0.0
C73 C 0.78475 0.65608 0.93353 0.0
C74 C 0.81253 0.64431 0.93351 0.0
O75 O 0.89727 0.58934 0.85626 0.0
O76 O 0.93163 0.60879 0.90831 0.0
O77 O 0.92222 0.534 0.87331 0.0
O78 O 0.9546 0.55847 0.89041 0.0
C79 C 0.95304 0.5408 0.899 0.0
O80 O 0.89639 0.57033 0.92409 0.0
O81 O 0.85962 0.55365 0.86754 0.0
O82 O 0.86221 0.62388 0.90926 0.0
O83 O 0.83786 0.59856 0.92318 0.0
H84 H 0.76198 0.60872 0.87211 0.0
H85 H 0.72765 0.65891 0.91461 0.0
H86 H 0.84026 0.64896 0.94851 0.0
O87 O 0.23203 0.54377 0.75683 0.0
Tb88 Tb 0.1969 0.55951 0.70089 0.0
Eu89 Eu 0.20496 0.59763 0.59308 0.0
C90 C 0.24034 0.54984 0.79622 0.0
O91 O 0.2326 0.56715 0.80205 0.0
C92 C 0.18211 0.60052 0.67214 0.0
O93 O 0.17369 0.60117 0.5211 0.0
C94 C 0.2709 0.60936 0.62341 0.0
C95 C 0.14195 0.59315 0.50191 0.0
O96 O 0.129 0.58351 0.52551 0.0
C97 C 0.21061 0.55313 0.62255 0.0
C98 C 0.29993 0.61901 0.61549 0.0
C99 C 0.33518 0.61205 0.63576 0.0
C100 C 0.36449 0.62202 0.63427 0.0
C101 C 0.35817 0.63904 0.6119 0.0
C102 C 0.32326 0.64655 0.59242 0.0
C103 C 0.29406 0.63624 0.5936 0.0
O104 O 0.20848 0.58824 0.68835 0.0
O105 O 0.17613 0.6083 0.63431 0.0
O106 O 0.15648 0.55615 0.72804 0.0
O107 O 0.14003 0.55593 0.66016 0.0
C108 C 0.12908 0.55484 0.69129 0.0
O109 O 0.19807 0.57014 0.62049 0.0
O110 O 0.21037 0.54331 0.65509 0.0
O111 O 0.2436 0.61958 0.6227 0.0
O112 O 0.2619 0.59228 0.60832 0.0
H113 H 0.33995 0.59916 0.65404 0.0
H114 H 0.38085 0.64695 0.6115 0.0
H115 H 0.26716 0.6421 0.57965 0.0
O116 O 0.75338 0.94507 0.26425 0.0
Tb117 Tb 0.71706 0.92924 0.20936 0.0
Eu118 Eu 0.72564 0.89129 0.10216 0.0
C119 C 0.76001 0.93981 0.30386 0.0
O120 O 0.74996 0.92307 0.31045 0.0
C121 C 0.70248 0.88831 0.18098 0.0
O122 O 0.69537 0.88655 1.02996 0.0
C123 C 0.79312 0.88162 0.13542 0.0
C124 C 0.66331 0.89416 1.00943 0.0
O125 O 0.64933 0.9038 0.03196 0.0
C126 C 0.72777 0.93573 0.12904 0.0
C127 C 0.82252 0.87141 0.12928 0.0
C128 C 0.85854 0.87708 0.15239 0.0
C129 C 0.8873 0.86575 0.15333 0.0
C130 C 0.87952 0.84903 0.1298 0.0
C131 C 0.84394 0.84297 0.10732 0.0
C132 C 0.81549 0.85444 0.10643 0.0
O133 O 0.72885 0.9006 0.1968 0.0
O134 O 0.69647 0.8805 0.14317 0.0
O135 O 0.67945 0.93124 0.24074 0.0
O136 O 0.65924 0.93204 0.17238 0.0
C137 C 0.65061 0.93226 0.20544 0.0
O138 O 0.71558 0.91867 0.12741 0.0
O139 O 0.72785 0.9456 0.16164 0.0
O140 O 0.7669 0.87136 0.13762 0.0
O141 O 0.78209 0.89772 0.1155 0.0
H142 H 0.86415 0.88968 0.1717 0.0
H143 H 0.90152 0.84033 0.13004 0.0
H144 H 0.78796 0.84961 0.09025 0.0
O145 O 0.35843 0.94322 0.30995 0.0
Tb146 Tb 0.38187 0.93165 0.37504 0.0
Eu147 Eu 0.41329 0.89511 0.44937 0.0
C148 C 0.38123 0.95071 0.29551 0.0
O149 O 0.41554 0.95096 0.32139 0.0
C150 C 0.44464 0.9046 0.37835 0.0
O151 O 0.44772 0.88857 0.51983 0.0
C152 C 0.3655 0.86962 0.41082 0.0
C153 C 0.46903 0.90171 0.54425 0.0
O154 O 0.47034 0.91778 0.52621 0.0
C155 C 0.35466 0.92554 0.44484 0.0
C156 C 0.33186 0.86118 0.41077 0.0
C157 C 0.29801 0.8701 0.39071 0.0
C158 C 0.26654 0.8614 0.38979 0.0
C159 C 0.26892 0.84365 0.40828 0.0
C160 C 0.302 0.83428 0.42701 0.0
C161 C 0.33337 0.84323 0.42847 0.0
O162 O 0.41308 0.91197 0.35449 0.0
O163 O 0.45326 0.90004 0.419 0.0
O164 O 0.38903 0.96113 0.39003 0.0
O165 O 0.42565 0.94172 0.43339 0.0
C166 C 0.41589 0.95923 0.42704 0.0
O167 O 0.3863 0.91848 0.46897 0.0
O168 O 0.34292 0.92528 0.4024 0.0
O169 O 0.39573 0.86614 0.44426 0.0
O170 O 0.3638 0.88676 0.39601 0.0
H171 H 0.29601 0.88369 0.37586 0.0
H172 H 0.24459 0.83697 0.40735 0.0
H173 H 0.35892 0.83593 0.44225 0.0
O174 O 0.36914 0.04087 0.81684 0.0
Tb175 Tb 0.38842 0.05738 0.87622 0.0
Eu176 Eu 0.41092 0.09485 0.94801 0.0
C177 C 0.36098 0.04839 0.77853 0.0
O178 O 0.36154 0.06664 0.77502 0.0
C179 C 0.44107 0.08841 0.87446 0.0
O180 O 0.44634 0.1021 1.01837 0.0
C181 C 0.36137 0.11973 0.91043 0.0
C182 C 0.45518 0.08914 0.04876 0.0
O183 O 0.44273 0.07217 0.03785 0.0
C184 C 0.35521 0.06145 0.94157 0.0
C185 C 0.32738 0.12761 0.91056 0.0
C186 C 0.29371 0.11878 0.88871 0.0
C187 C 0.26177 0.12711 0.88746 0.0
C188 C 0.26367 0.14444 0.90758 0.0
C189 C 0.29661 0.15377 0.92803 0.0
C190 C 0.32834 0.14515 0.92976 0.0
O191 O 0.41015 0.08024 0.85177 0.0
O192 O 0.4504 0.09228 0.91565 0.0
O193 O 0.41381 0.03095 0.90374 0.0
O194 O 0.43513 0.05605 0.93757 0.0
C195 C 0.43781 0.03795 0.93884 0.0
O196 O 0.38425 0.07067 0.96627 0.0
O197 O 0.34599 0.06007 0.89965 0.0
O198 O 0.39142 0.12341 0.94389 0.0
O199 O 0.36057 0.10274 0.89525 0.0
H200 H 0.2922 0.10557 0.87248 0.0
H201 H 0.23908 0.15098 0.90616 0.0
H202 H 0.35376 0.15248 0.9447 0.0
O203 O 0.73884 0.03943 0.75392 0.0
Tb204 Tb 0.70648 0.0569 0.69968 0.0
Eu205 Eu 0.72346 0.09725 0.60177 0.0
C206 C 0.75337 0.04579 0.79354 0.0
O207 O 0.75343 0.06385 0.80023 0.0
C208 C 0.69894 0.09903 0.68015 0.0
O209 O 0.69489 0.10262 0.52953 0.0
C210 C 0.79122 0.1064 0.63509 0.0
C211 C 0.65944 0.10226 0.50949 0.0
O212 O 0.64021 0.09968 0.53237 0.0
C213 C 0.7207 0.0519 0.62165 0.0
C214 C 0.81913 0.11667 0.62605 0.0
C215 C 0.85577 0.11197 0.64837 0.0
C216 C 0.88304 0.12316 0.64461 0.0
C217 C 0.87285 0.13885 0.61732 0.0
C218 C 0.83656 0.14397 0.59564 0.0
C219 C 0.8098 0.1326 0.59959 0.0
O220 O 0.72322 0.08556 0.69445 0.0
O221 O 0.69469 0.10771 0.64369 0.0
O222 O 0.66605 0.05344 0.72664 0.0
O223 O 0.64902 0.05883 0.65959 0.0
C224 C 0.63848 0.05619 0.69067 0.0
O225 O 0.71233 0.06942 0.62399 0.0
O226 O 0.7172 0.0412 0.65111 0.0
O227 O 0.76541 0.11668 0.63825 0.0
O228 O 0.77969 0.09035 0.6153 0.0
H229 H 0.86299 0.10016 0.67022 0.0
H230 H 0.89346 0.14766 0.61433 0.0
H231 H 0.78171 0.13649 0.58322 0.0
C232 C 0.69272 0.37744 0.35894 0.0
C233 C 0.70642 0.35913 0.36365 0.0
C234 C 0.65662 0.38112 0.33223 0.0
C235 C 0.57866 0.36032 0.24189 0.0
H236 H 0.52172 0.39474 0.2771 0.0
C237 C 0.42942 0.37136 0.13453 0.0
C238 C 0.40574 0.37156 0.15547 0.0
C239 C 0.46648 0.37347 0.15794 0.0
C240 C 0.53719 0.38503 0.26682 0.0
H241 H 0.69283 0.33041 0.34302 0.0
H242 H 0.63017 0.33665 0.29808 0.0
H243 H 0.58561 0.39059 0.32237 0.0
H244 H 0.40199 0.37488 0.21698 0.0
H245 H 0.46674 0.3781 0.25817 0.0
H246 H 0.53029 0.35397 0.18767 0.0
C247 C 0.64725 0.34828 0.31444 0.0
C248 C 0.57397 0.38282 0.29257 0.0
C249 C 0.68318 0.34464 0.3409 0.0
C250 C 0.41964 0.37487 0.19998 0.0
C251 C 0.45681 0.37674 0.22355 0.0
C252 C 0.542 0.36244 0.21638 0.0
C253 C 0.63346 0.36656 0.30951 0.0
C254 C 0.59503 0.37018 0.28077 0.0
C255 C 0.48084 0.3755 0.203 0.0
C256 C 0.52058 0.37465 0.22868 0.0
H257 H 0.70982 0.38892 0.37614 0.0
H258 H 0.64699 0.39538 0.32897 0.0
H259 H 0.59411 0.35073 0.23131 0.0
H260 H 0.41931 0.36897 0.10016 0.0
H261 H 0.48397 0.37295 0.14078 0.0
C262 C 0.41305 0.61213 0.70432 0.0
C263 C 0.40214 0.61612 0.66032 0.0
C264 C 0.44954 0.60978 0.73074 0.0
C265 C 0.54021 0.60146 0.73286 0.0
H266 H 0.57196 0.63537 0.83016 0.0
C267 C 0.68917 0.60966 0.86033 0.0
C268 C 0.70147 0.62828 0.86472 0.0
C269 C 0.65272 0.60548 0.83645 0.0
C270 C 0.56343 0.62571 0.80335 0.0
H271 H 0.42053 0.61959 0.60895 0.0
H272 H 0.48437 0.61524 0.65508 0.0
H273 H 0.50767 0.63168 0.78643 0.0
H274 H 0.68485 0.65691 0.84521 0.0
H275 H 0.62157 0.64964 0.80568 0.0
H276 H 0.59635 0.5958 0.74971 0.0
C277 C 0.4647 0.61399 0.66912 0.0
C278 C 0.52667 0.6235 0.77849 0.0
C279 C 0.42824 0.61658 0.64279 0.0
C280 C 0.67644 0.64249 0.844 0.0
C281 C 0.64012 0.63835 0.82097 0.0
C282 C 0.5771 0.60344 0.75829 0.0
C283 C 0.47581 0.61115 0.7136 0.0
C284 C 0.51467 0.61163 0.74249 0.0
C285 C 0.62785 0.61986 0.81714 0.0
C286 C 0.58899 0.61591 0.79316 0.0
H287 H 0.39359 0.61187 0.71881 0.0
H288 H 0.45735 0.6075 0.76488 0.0
H289 H 0.53166 0.59219 0.70533 0.0
H290 H 0.70751 0.59835 0.87593 0.0
H291 H 0.64381 0.5911 0.83391 0.0
C292 C 0.94733 0.85565 0.20793 0.0
C293 C 0.92552 0.86994 0.18199 0.0
C294 C 0.98386 0.85863 0.23268 0.0
C295 C 0.06108 0.8881 0.24085 0.0
H296 H 0.10547 0.8632 0.35121 0.0
C297 C 0.21435 0.87169 0.32318 0.0
C298 C 0.23035 0.86999 0.36817 0.0
C299 C 0.17746 0.87572 0.30205 0.0
C300 C 0.09373 0.87058 0.32086 0.0
H301 H 0.92494 0.89882 0.16274 0.0
H302 H 0.98931 0.90417 0.20662 0.0
H303 H 1.04054 0.86296 0.31335 0.0
H304 H 0.22122 0.87232 0.42655 0.0
H305 H 0.1575 0.88022 0.39021 0.0
H306 H 0.11455 0.89578 0.24866 0.0
C307 C 0.97795 0.89054 0.20724 0.0
C308 C 0.05629 0.87019 0.29875 0.0
C309 C 0.94105 0.88755 0.18243 0.0
C310 C 0.20946 0.87358 0.39181 0.0
C311 C 0.17282 0.87787 0.37083 0.0
C312 C 0.09872 0.88855 0.26314 0.0
C313 C 0.99987 0.87604 0.23253 0.0
C314 C 1.03943 0.87856 0.258 0.0
C315 C 0.15589 0.87826 0.32555 0.0
C316 C 0.11566 0.87951 0.30319 0.0
H317 H 0.93616 0.84198 0.20877 0.0
H318 H 0.99978 0.84703 0.25116 0.0
H319 H 1.04909 0.89464 0.20947 0.0
H320 H 0.22981 0.86872 0.30423 0.0
H321 H 0.16555 0.87574 0.26722 0.0
C322 C 0.94586 0.13472 0.68809 0.0
C323 C 0.9222 0.11958 0.67101 0.0
C324 C 0.98285 0.13188 0.71 0.0
C325 C 1.05236 0.09905 0.77351 0.0
H326 H 0.11443 0.13023 0.73883 0.0
C327 C 0.20078 0.11705 0.88191 0.0
C328 C 0.22564 0.11884 0.86273 0.0
C329 C 0.1646 0.11291 0.85698 0.0
C330 C 0.09759 0.12121 0.74861 0.0
H331 H 0.9193 0.08937 0.66593 0.0
H332 H 0.98434 0.08438 0.70576 0.0
H333 H 1.0493 0.13153 0.69862 0.0
H334 H 0.23245 0.11685 0.80277 0.0
H335 H 0.16902 0.10972 0.75896 0.0
H336 H 0.1008 0.08927 0.82462 0.0
C337 C 0.97385 0.0985 0.70118 0.0
C338 C 0.06023 0.12208 0.72577 0.0
C339 C 0.93661 0.10137 0.67853 0.0
C340 C 0.21395 0.1154 0.81844 0.0
C341 C 0.1776 0.1115 0.79335 0.0
C342 C 0.08985 0.09838 0.79685 0.0
C343 C 0.9974 0.11378 0.71634 0.0
C344 C 1.03714 0.11126 0.73834 0.0
C345 C 0.1523 0.11071 0.81217 0.0
C346 C 0.11288 0.10965 0.78497 0.0
H347 H 0.93585 0.14892 0.68451 0.0
H348 H 1.00017 0.14391 0.72221 0.0
H349 H 1.03523 0.09059 0.78401 0.0
H350 H 0.20907 0.11968 0.91599 0.0
H351 H 0.14586 0.11254 0.87249 0.0
C352 C 0.27132 0.18621 0.92191 0.0
C353 C 0.29746 0.17295 0.9454 0.0
C354 C 0.27213 0.20431 0.93769 0.0
C355 C 0.30861 0.23223 0.03772 0.0
H356 H 0.29031 0.27423 0.95947 0.0
C357 C 0.34219 0.30786 0.09767 0.0
C358 C 0.31845 0.32224 0.07514 0.0
C359 C 0.33723 0.28965 0.08173 0.0
C360 C 0.29495 0.26266 0.98163 0.0
H361 H 0.34486 0.16835 1.0041 0.0
H362 H 0.34664 0.20008 0.03142 0.0
H363 H 0.28692 0.24248 0.93207 0.0
H364 H 0.27041 0.32865 1.01853 0.0
H365 H 0.26145 0.29662 0.99064 0.0
H366 H 0.31694 0.2524 0.08734 0.0
C367 C 0.32523 0.19638 1.00095 0.0
C368 C 0.29307 0.24444 0.96594 0.0
C369 C 0.32446 0.17825 0.98511 0.0
C370 C 0.28915 0.31788 0.03658 0.0
C371 C 0.28422 0.29958 1.02049 0.0
C372 C 0.31048 0.25043 0.05339 0.0
C373 C 0.29911 0.20964 0.97737 0.0
C374 C 0.30017 0.229 0.99386 0.0
C375 C 0.30831 0.28527 0.04287 0.0
C376 C 0.30403 0.26588 1.02562 0.0
H377 H 0.25043 0.18268 0.89091 0.0
H378 H 0.2514 0.21409 0.91888 0.0
H379 H 0.31356 0.22066 0.05997 0.0
H380 H 0.36468 0.31066 0.12788 0.0
H381 H 0.35651 0.27905 0.09959 0.0
C382 C 0.82335 0.3026 0.45239 0.0
C383 C 0.79852 0.31446 0.45929 0.0
C384 C 0.82797 0.28418 0.46747 0.0
C385 C 0.81136 0.25227 0.54357 0.0
H386 H 0.81488 0.21372 0.46502 0.0
C387 C 0.80278 0.17434 0.58023 0.0
C388 C 0.82735 0.16232 0.57321 0.0
C389 C 0.79788 0.19262 0.5644 0.0
C390 C 0.81426 0.22431 0.48749 0.0
H391 H 0.76032 0.31657 0.48915 0.0
H392 H 0.76815 0.28442 0.51518 0.0
H393 H 0.81145 0.24647 0.44383 0.0
H394 H 0.86457 0.1598 0.54204 0.0
H395 H 0.85642 0.19178 0.51493 0.0
H396 H 0.81427 0.23015 0.58729 0.0
C397 C 0.78414 0.28933 0.49822 0.0
C398 C 0.81239 0.2431 0.4754 0.0
C399 C 0.77946 0.30772 0.48305 0.0
C400 C 0.84569 0.16876 0.54834 0.0
C401 C 0.84081 0.18706 0.53253 0.0
C402 C 0.81327 0.2335 0.55568 0.0
C403 C 0.80795 0.27724 0.48991 0.0
C404 C 0.81089 0.2573 0.50329 0.0
C405 C 0.81744 0.19934 0.5412 0.0
C406 C 0.81468 0.21928 0.52776 0.0
H407 H 0.8382 0.30731 0.43386 0.0
H408 H 0.84691 0.27531 0.46108 0.0
H409 H 0.81072 0.26287 0.56603 0.0
H410 H 0.78848 0.1699 0.5996 0.0
H411 H 0.7792 0.20161 0.57102 0.0
C412 C 0.80965 0.82033 0.04808 0.0
C413 C 0.83709 0.82383 0.08874 0.0
C414 C 0.80392 0.80221 0.03105 0.0
C415 C 0.82206 0.75246 0.06316 0.0
H416 H 0.80394 0.74476 0.94313 0.0
C417 C 0.82053 0.6788 0.99173 0.0
C418 C 0.79246 0.67528 0.95155 0.0
C419 C 0.82671 0.69696 1.00854 0.0
C420 C 0.80868 0.74669 0.97665 0.0
H421 H 0.87918 0.81093 0.14403 0.0
H422 H 0.86974 0.77961 0.1141 0.0
H423 H 0.81177 0.77642 0.97201 0.0
H424 H 0.74978 0.68813 0.89681 0.0
H425 H 0.76018 0.71958 0.92629 0.0
H426 H 0.81899 0.72273 0.06779 0.0
C427 C 0.8525 0.79076 0.09533 0.0
C428 C 0.81306 0.76484 0.99315 0.0
C429 C 0.85823 0.8088 0.11224 0.0
C430 C 0.77125 0.69032 0.9282 0.0
C431 C 0.77749 0.70841 0.94485 0.0
C432 C 0.81772 0.73431 0.04667 0.0
C433 C 0.82535 0.78722 0.05452 0.0
C434 C 0.81982 0.76795 0.03662 0.0
C435 C 0.80515 0.71195 0.9853 0.0
C436 C 0.81092 0.73121 1.0032 0.0
H437 H 0.79293 0.83162 1.02923 0.0
H438 H 0.78251 0.79991 0.99969 0.0
H439 H 0.82671 0.75438 0.09665 0.0
H440 H 0.83728 0.66749 1.01044 0.0
H441 H 0.84849 0.69928 0.03962 0.0
C442 C 0.28978 0.67041 0.53548 0.0
C443 C 0.31826 0.66589 0.57471 0.0
C444 C 0.28604 0.68863 0.51901 0.0
C445 C 0.31439 0.73763 0.55162 0.0
H446 H 0.29178 0.74512 0.43034 0.0
C447 C 0.33059 0.80939 0.48295 0.0
C448 C 0.30333 0.81489 0.44359 0.0
C449 C 0.33126 0.79123 0.49862 0.0
C450 C 0.29774 0.74329 0.46421 0.0
H451 H 0.36425 0.67719 0.62816 0.0
H452 H 0.35825 0.70862 0.59917 0.0
H453 H 0.29375 0.7135 0.45811 0.0
H454 H 0.25591 0.80544 0.38934 0.0
H455 H 0.25681 0.77391 0.41689 0.0
H456 H 0.31869 0.7674 0.5578 0.0
C457 C 0.33865 0.69821 0.58109 0.0
C458 C 0.29878 0.72515 0.48011 0.0
C459 C 0.3424 0.68007 0.59744 0.0
C460 C 0.27702 0.80174 0.42006 0.0
C461 C 0.27776 0.78359 0.43562 0.0
C462 C 0.31341 0.75575 0.53574 0.0
C463 C 0.31053 0.70274 0.54161 0.0
C464 C 0.30742 0.72208 0.5241 0.0
C465 C 0.3048 0.77811 0.47516 0.0
C466 C 0.30531 0.75881 0.49189 0.0
H467 H 0.27074 0.6598 0.51723 0.0
H468 H 0.26384 0.6917 0.4887 0.0
H469 H 0.3205 0.73583 0.58553 0.0
H470 H 0.35113 0.81921 0.50196 0.0
H471 H 0.35271 0.78741 0.52896 0.0
C472 C 0.24449 0.51712 0.82426 0.0
C473 C 0.25075 0.53634 0.83236 0.0
C474 C 0.24777 0.50474 0.85761 0.0
C475 C 0.24399 0.50569 0.96487 0.0
H476 H 0.26979 0.45332 0.9687 0.0
C477 C 0.25058 0.45998 0.10526 0.0
C478 C 0.23067 0.44331 0.0945 0.0
C479 C 0.25859 0.46969 0.07454 0.0
C480 C 0.26242 0.46791 0.96787 0.0
H481 H 0.26817 0.55741 0.88234 0.0
H482 H 0.27541 0.5358 0.94074 0.0
H483 H 0.27537 0.47376 0.91368 0.0
H484 H 0.20551 0.42312 0.04383 0.0
H485 H 0.21957 0.44019 0.98962 0.0
H486 H 0.23112 0.49993 1.01888 0.0
C487 C 0.26658 0.53032 0.90839 0.0
C488 C 0.26554 0.47964 0.93634 0.0
C489 C 0.26279 0.54272 0.87497 0.0
C490 C 0.22095 0.43589 0.05301 0.0
C491 C 0.22901 0.44567 1.02204 0.0
C492 C 0.24123 0.49407 0.99643 0.0
C493 C 0.2578 0.51127 0.89996 0.0
C494 C 0.25633 0.49872 0.93444 0.0
C495 C 0.24682 0.46301 0.0322 0.0
C496 C 0.25042 0.47507 0.9984 0.0
H497 H 0.23501 0.51174 0.79174 0.0
H498 H 0.24056 0.49024 0.84968 0.0
H499 H 0.23555 0.5201 0.96382 0.0
H500 H 0.25883 0.46599 0.13708 0.0
H501 H 0.27299 0.48281 0.08359 0.0
C502 C 0.86924 0.53183 0.69623 0.0
C503 C 0.9048 0.53648 0.72343 0.0
C504 C 0.86218 0.52096 0.65944 0.0
C505 C 0.90718 0.48671 0.61572 0.0
H506 H 0.8215 0.49277 0.51062 0.0
C507 C 0.84985 0.45782 0.43114 0.0
C508 C 0.86158 0.43919 0.43975 0.0
C509 C 0.85071 0.4696 0.46445 0.0
C510 C 0.84563 0.49093 0.53968 0.0
H511 H 0.96066 0.53435 0.73196 0.0
H512 H 0.94834 0.51584 0.66741 0.0
H513 H 0.83383 0.51491 0.5695 0.0
H514 H 0.8799 0.41783 0.48907 0.0
H515 H 0.88048 0.43817 0.54695 0.0
H516 H 0.91968 0.46315 0.58556 0.0
C517 C 0.92592 0.52009 0.67503 0.0
C518 C 0.85255 0.50353 0.57361 0.0
C519 C 0.93298 0.53083 0.71192 0.0
C520 C 0.87107 0.43216 0.48154 0.0
C521 C 0.87178 0.44389 0.51479 0.0
C522 C 0.90032 0.47417 0.58183 0.0
C523 C 0.89051 0.51461 0.64888 0.0
C524 C 0.88342 0.50158 0.6121 0.0
C525 C 0.86304 0.46295 0.50699 0.0
C526 C 0.8694 0.47606 0.54341 0.0
H527 H 0.84695 0.53591 0.70426 0.0
H528 H 0.83462 0.5169 0.64031 0.0
H529 H 0.93101 0.48459 0.64498 0.0
H530 H 0.84263 0.46375 0.39938 0.0
H531 H 0.84389 0.48419 0.45725 0.0
C532 C 0.86085 0.45861 0.19482 0.0
C533 C 0.89677 0.45303 0.21781 0.0
C534 C 0.85129 0.46925 0.15718 0.0
C535 C 0.87923 0.48212 0.07028 0.0
H536 H 0.82887 0.52875 0.06559 0.0
C537 C 0.84109 0.53124 0.9247 0.0
C538 C 0.85492 0.54941 0.93577 0.0
C539 C 0.83916 0.51914 0.9561 0.0
C540 C 0.84269 0.51571 0.06634 0.0
H541 H 0.95047 0.45346 0.21836 0.0
H542 H 0.93358 0.47165 0.15218 0.0
H543 H 0.84034 0.50717 0.1258 0.0
H544 H 0.87424 0.56966 0.98749 0.0
H545 H 0.87025 0.54863 0.04212 0.0
H546 H 0.88189 0.49068 1.01111 0.0
C547 C 0.9129 0.46794 0.16344 0.0
C548 C 0.84908 0.50333 0.10061 0.0
C549 C 0.92258 0.45758 0.2014 0.0
C550 C 0.86362 0.55573 0.978 0.0
C551 C 0.8613 0.54369 1.00929 0.0
C552 C 0.87223 0.49432 0.03563 0.0
C553 C 0.87731 0.47419 0.1414 0.0
C554 C 0.86792 0.48655 0.10326 0.0
C555 C 0.85046 0.52503 0.99902 0.0
C556 C 0.8544 0.51138 0.03363 0.0
H557 H 0.84038 0.45539 0.20674 0.0
H558 H 0.82361 0.47377 0.14064 0.0
H559 H 0.89374 0.46927 0.07146 0.0
H560 H 0.83419 0.52587 0.89252 0.0
H561 H 0.83023 0.5049 0.94718 0.0
C562 C 0.21678 0.55285 0.55134 0.0
C563 C 0.2245 0.54498 0.59205 0.0
C564 C 0.22515 0.54307 0.52059 0.0
C565 C 0.23478 0.49458 0.49288 0.0
H566 H 0.27674 0.51439 0.41702 0.0
C567 C 0.26382 0.44554 0.37773 0.0
C568 C 0.25444 0.45187 0.33543 0.0
C569 C 0.2658 0.45802 0.41031 0.0
C570 C 0.26473 0.50868 0.43774 0.0
H571 H 0.24942 0.5214 0.63356 0.0
H572 H 0.26409 0.5046 0.58056 0.0
H573 H 0.26881 0.53483 0.47062 0.0
H574 H 0.24175 0.47649 0.29467 0.0
H575 H 0.24431 0.49816 0.35118 0.0
H576 H 0.2295 0.4687 0.45985 0.0
C577 C 0.25098 0.51808 0.57187 0.0
C578 C 0.26022 0.5204 0.46841 0.0
C579 C 0.24268 0.52778 0.60232 0.0
C580 C 0.24919 0.47114 0.32698 0.0
C581 C 0.25071 0.48361 0.35949 0.0
C582 C 0.23898 0.48297 0.46221 0.0
C583 C 0.24128 0.52528 0.53022 0.0
C584 C 0.24551 0.51338 0.49659 0.0
C585 C 0.25788 0.47711 0.40129 0.0
C586 C 0.2543 0.48975 0.43441 0.0
H587 H 0.20278 0.56607 0.54257 0.0
H588 H 0.21737 0.54897 0.48871 0.0
H589 H 0.22259 0.48885 0.51344 0.0
H590 H 0.26836 0.43082 0.3854 0.0
H591 H 0.27248 0.45255 0.44238 0.0
C592 C 0.73266 0.93567 0.05728 0.0
C593 C 0.74109 0.94374 0.0979 0.0
C594 C 0.74059 0.94515 1.02587 0.0
C595 C 0.75316 0.99348 0.99733 0.0
H596 H 0.78499 0.97093 0.91469 0.0
C597 C 0.77724 0.03915 0.87272 0.0
C598 C 0.7629 0.03256 0.83016 0.0
C599 C 0.78056 0.02725 0.90683 0.0
C600 C 0.7759 0.97742 0.93741 0.0
H601 H 0.7668 0.96738 0.13858 0.0
H602 H 0.78117 0.98361 0.08455 0.0
H603 H 0.77928 0.95164 0.97134 0.0
H604 H 0.7428 0.00794 0.79039 0.0
H605 H 0.74798 0.98731 0.8497 0.0
H606 H 0.7488 0.01906 0.96329 0.0
C607 C 0.76759 0.97025 0.0763 0.0
C608 C 0.77263 0.96635 0.96984 0.0
C609 C 0.75953 0.96086 0.10739 0.0
C610 C 0.75395 0.01351 0.82278 0.0
C611 C 0.75704 0.00163 0.85689 0.0
C612 C 0.75631 0.00447 0.96504 0.0
C613 C 0.75718 0.96284 0.0347 0.0
C614 C 0.7613 0.97429 1.00026 0.0
C615 C 0.76935 0.00848 0.89921 0.0
C616 C 0.76776 -0.00336 0.93463 0.0
H617 H 0.71845 0.92252 0.04911 0.0
H618 H 0.73214 0.93906 0.99411 0.0
H619 H 0.7435 -1e-05 1.01953 0.0
H620 H 0.78472 0.05369 0.87961 0.0
H621 H 0.79099 0.03291 0.93913 0.0
C622 C 0.34896 0.04442 0.7002 0.0
C623 C 0.3535 0.0364 0.73997 0.0
C624 C 0.34369 0.03317 0.66434 0.0
C625 C 0.31583 0.9855 0.62029 0.0
H626 H 0.36704 -0.00278 0.54824 0.0
C627 C 0.33777 0.93199 0.50607 0.0
C628 C 0.33874 0.93806 0.46718 0.0
C629 C 0.33332 0.94474 0.53476 0.0
C630 C 0.35198 0.99392 0.56748 0.0
H631 H 0.35571 0.01014 0.77284 0.0
H632 H 0.34647 0.99056 0.7104 0.0
H633 H 0.37277 0.01781 0.60798 0.0
H634 H 0.33498 0.96225 0.42729 0.0
H635 H 0.327 0.9847 0.47745 0.0
H636 H 0.29557 0.96145 0.58032 0.0
C637 C 0.3467 0.00558 0.70681 0.0
C638 C 0.35535 0.00572 0.6019 0.0
C639 C 0.35217 0.01683 0.74275 0.0
C640 C 0.33341 0.95712 0.45654 0.0
C641 C 0.32948 0.96999 0.48565 0.0
C642 C 0.31245 0.97373 0.58591 0.0
C643 C 0.34259 0.01359 0.66715 0.0
C644 C 0.33767 0.00154 0.62914 0.0
C645 C 0.3303 0.96399 0.52566 0.0
C646 C 0.33085 0.97762 0.55935 0.0
H647 H 0.34987 0.05943 0.69678 0.0
H648 H 0.34023 0.03986 0.63428 0.0
H649 H 0.30129 0.98201 0.64002 0.0
H650 H 0.34263 0.91744 0.51547 0.0
H651 H 0.33457 0.93957 0.56535 0.0
C652 C 0.33341 0.96306 0.22612 0.0
C653 C 0.36968 0.95898 0.25174 0.0
C654 C 0.3238 0.97192 0.186 0.0
C655 C 0.35852 0.98295 0.10176 0.0
H656 H 0.29378 0.02537 0.07613 0.0
C657 C 0.3341 0.02988 0.95383 0.0
C658 C 0.3394 0.04896 0.96418 0.0
C659 C 0.3294 0.01717 0.98275 0.0
C660 C 0.31174 0.01348 0.08265 0.0
H661 H 0.42408 0.96048 0.25451 0.0
H662 H 0.4075 0.97578 0.18542 0.0
H663 H 0.30302 0.00592 0.13891 0.0
H664 H 0.34189 0.06982 1.01144 0.0
H665 H 0.33279 0.0479 0.06109 0.0
H666 H 0.36858 0.99101 0.04675 0.0
C667 C 0.38631 0.97213 0.19584 0.0
C668 C 0.31681 0.00222 0.11847 0.0
C669 C 0.39587 0.96347 0.23582 0.0
C670 C 0.33736 0.05522 1.00238 0.0
C671 C 0.33219 0.04262 0.03089 0.0
C672 C 0.35334 0.99415 0.06587 0.0
C673 C 0.35022 0.97666 0.17047 0.0
C674 C 0.34099 0.98709 0.12916 0.0
C675 C 0.32945 0.02334 1.02226 0.0
C676 C 0.33054 0.00984 0.05641 0.0
H677 H 0.31259 0.95977 0.23742 0.0
H678 H 0.29571 0.9751 0.16718 0.0
H679 H 0.37701 0.97128 0.10864 0.0
H680 H 0.33631 0.0246 0.92506 0.0
H681 H 0.32713 0.00242 0.97497 0.0
C682 C 0.7692 0.97311 0.32905 0.0
C683 C 0.77059 0.95393 0.33875 0.0
C684 C 0.77234 0.98652 0.36038 0.0
C685 C 0.7995 0.99378 0.47747 0.0
H686 H 0.72073 0.02939 0.44215 0.0
C687 C 0.749 0.02613 0.59705 0.0
C688 C 0.73498 0.04436 0.59095 0.0
C689 C 0.75996 0.01793 0.56702 0.0
C690 C 0.7434 0.01987 0.45248 0.0
H691 H 0.77882 0.93387 0.38976 0.0
H692 H 0.78476 0.95723 0.44446 0.0
H693 H 0.72934 0.00968 0.38842 0.0
H694 H 0.72213 0.06843 0.54887 0.0
H695 H 0.74161 0.05412 0.496 0.0
H696 H 0.81313 0.00364 0.54162 0.0
C697 C 0.7811 0.96192 0.4126 0.0
C698 C 0.74831 0.00853 0.42163 0.0
C699 C 0.77758 0.94851 0.38119 0.0
C700 C 0.73299 0.05442 0.55451 0.0
C701 C 0.74392 0.04615 0.52414 0.0
C702 C 0.79476 0.0052 0.50824 0.0
C703 C 0.77742 0.98106 0.40223 0.0
C704 C 0.77576 0.99497 0.43397 0.0
C705 C 0.75721 0.02769 0.52987 0.0
C706 C 0.76592 0.01795 0.49636 0.0
H707 H 0.76383 0.97779 0.29668 0.0
H708 H 0.76981 0.00116 0.35155 0.0
H709 H 0.82126 0.9837 0.48787 0.0
H710 H 0.75086 0.01795 0.62475 0.0
H711 H 0.76934 0.0036 0.57224 0.0
C712 C 0.96907 0.51284 0.9451 0.0
C713 C 0.97339 0.53205 0.94085 0.0
C714 C 0.97793 0.50497 0.98555 0.0
C715 C 1.0318 0.51098 0.0999 0.0
H716 H 0.97176 0.46952 0.10461 0.0
C717 C 0.09858 0.4558 0.21638 0.0
C718 C 0.10084 0.44166 0.18895 0.0
C719 C 0.06967 0.46832 0.20177 0.0
C720 C 0.98826 0.48141 0.10448 0.0
H721 H 0.99223 0.55801 0.97539 0.0
H722 H 1.0088 0.54405 0.0468 0.0
H723 H 0.95009 0.49092 0.04354 0.0
H724 H 0.07253 0.42707 0.12908 0.0
H725 H 1.02175 0.44841 0.10397 0.0
H726 H 0.07114 0.50069 0.15901 0.0
C727 C 0.99804 0.53517 1.01869 0.0
C728 C 0.97611 0.49352 0.06929 0.0
C729 C 0.98916 0.54308 0.97795 0.0
C730 C 0.07133 0.43809 0.15037 0.0
C731 C 1.04212 0.45029 0.13623 0.0
C732 C 1.04388 0.49894 0.13522 0.0
C733 C 0.99117 0.51615 1.02268 0.0
C734 C 0.99898 0.50747 0.06515 0.0
C735 C 1.04275 0.46649 0.16002 0.0
C736 C 1.02342 0.48315 0.136 0.0
H737 H 0.95686 0.50407 0.91692 0.0
H738 H 0.97371 0.49012 0.98764 0.0
H739 H 1.04984 0.52175 0.0979 0.0
H740 H 0.12115 0.45868 0.24649 0.0
H741 H 0.07056 0.48058 0.22089 0.0
C742 C 0.09014 0.53403 0.71255 0.0
C743 C 0.09334 0.54797 0.68519 0.0
C744 C 0.06075 0.52182 0.69761 0.0
C745 C 0.98058 0.50893 0.5984 0.0
H746 H 1.04282 0.4682 0.59564 0.0
C747 C 0.96759 0.47744 0.44115 0.0
C748 C 0.97271 0.45828 0.43737 0.0
C749 C 0.97445 0.48528 0.4812 0.0
C750 C 1.02453 0.47908 0.59648 0.0
H751 H 0.06611 0.56261 0.62507 0.0
H752 H 1.01466 0.54178 0.5993 0.0
H753 H 0.06239 0.4892 0.65661 0.0
H754 H 0.99082 0.43237 0.47253 0.0
H755 H 1.00385 0.44624 0.54318 0.0
H756 H 0.94382 0.49945 0.5366 0.0
C757 C 1.03461 0.53981 0.63178 0.0
C758 C 1.03561 0.4911 0.63176 0.0
C759 C 0.06424 0.55172 0.64631 0.0
C760 C 0.98725 0.44727 0.47472 0.0
C761 C 0.99406 0.45514 0.51501 0.0
C762 C 0.96937 0.49682 0.56323 0.0
C763 C 1.03437 0.52371 0.65551 0.0
C764 C 1.01513 0.50706 0.63126 0.0
C765 C 0.98645 0.47409 0.5184 0.0
C766 C 0.99262 0.48274 0.56048 0.0
H767 H 0.11232 0.53103 0.74295 0.0
H768 H 0.06095 0.50966 0.71676 0.0
H769 H 0.96395 0.5209 0.59762 0.0
H770 H 0.95618 0.48618 0.41276 0.0
H771 H 0.96971 0.50009 0.48287 0.0
C772 C 0.44746 0.00824 0.97962 0.0
C773 C 0.4557 0.02719 0.9786 0.0
C774 C 0.45877 -0.00127 1.0187 0.0
C775 C 0.47274 0.9818 0.1044 0.0
H776 H 0.57053 0.99125 0.18523 0.0
C777 C 0.61029 0.94753 0.23472 0.0
C778 C 0.6145 0.93642 0.20298 0.0
C779 C 0.57806 0.9572 0.22527 0.0
C780 C 0.54266 0.98872 0.16406 0.0
H781 H 0.48374 0.05088 1.01688 0.0
H782 H 0.50224 0.03464 0.08548 0.0
H783 H 0.5413 0.01333 0.12852 0.0
H784 H 0.58723 0.92351 0.14068 0.0
H785 H 0.53085 0.94 0.12439 0.0
H786 H 0.47669 0.95573 0.13726 0.0
C787 C 0.48722 0.02696 0.05633 0.0
C788 C 0.52578 0.00144 0.13105 0.0
C789 C 0.47655 0.03633 1.01706 0.0
C790 C 0.58459 0.93241 0.16509 0.0
C791 C 0.55216 0.94168 0.15611 0.0
C792 C 0.49011 0.96878 0.13685 0.0
C793 C 0.47816 0.00805 0.05776 0.0
C794 C 0.49157 -0.00251 0.09904 0.0
C795 C 0.5499 0.9555 0.18436 0.0
C796 C 0.52612 0.97159 0.16505 0.0
H797 H 0.43141 0.00085 0.95032 0.0
H798 H 0.45247 0.98401 1.01802 0.0
H799 H 0.44563 0.97877 0.08157 0.0
H800 H 0.63308 0.95055 0.26452 0.0
H801 H 0.57682 0.9677 0.24763 0.0
C802 C 0.40609 0.99044 0.45206 0.0
C803 C 0.42486 0.9734 0.46097 0.0
C804 C 0.41148 0.00337 0.48474 0.0
C805 C 0.45532 0.01083 0.60298 0.0
H806 H 0.48911 0.05602 0.56878 0.0
C807 C 0.5891 0.03947 0.70087 0.0
C808 C 0.60085 0.05491 0.68479 0.0
C809 C 0.5524 0.03537 0.68522 0.0
C810 C 0.47902 0.04399 0.57972 0.0
H811 H 0.46275 0.95609 0.51106 0.0
H812 H 0.47362 0.9791 0.56813 0.0
H813 H 0.45091 0.03534 0.51482 0.0
H814 H 0.58446 0.08 0.64643 0.0
H815 H 0.52034 0.07429 0.62343 0.0
H816 H 0.48464 0.01925 0.66818 0.0
C817 C 0.45405 0.98228 0.53604 0.0
C818 C 0.45689 0.03194 0.54812 0.0
C819 C 0.44852 0.96929 0.50329 0.0
C820 C 0.57574 0.06778 0.65846 0.0
C821 C 0.539 0.0643 0.64489 0.0
C822 C 0.47702 0.02313 0.63484 0.0
C823 C 0.43594 -0.00045 0.52693 0.0
C824 C 0.44738 0.01457 0.55949 0.0
C825 C 0.52699 0.04702 0.65413 0.0
C826 C 0.49208 0.03896 0.62357 0.0
H827 H 0.38696 0.99377 0.41982 0.0
H828 H 0.39713 0.01654 0.47687 0.0
H829 H 0.44712 -0.00224 0.61244 0.0
H830 H 0.60832 0.02952 0.72184 0.0
H831 H 0.54485 0.02204 0.69412 0.0
C832 C 0.96855 0.38001 0.60946 0.0
C833 C 0.97023 0.39617 0.58669 0.0
C834 C 0.98733 0.37905 0.65441 0.0
C835 C 1.02915 0.40948 0.75082 0.0
H836 H 0.07846 0.36427 0.80692 0.0
C837 C 0.09182 0.40266 0.93595 0.0
C838 C 0.12568 0.39397 0.95565 0.0
C839 C 0.07261 0.40209 0.89126 0.0
C840 C 0.06503 0.37705 0.79177 0.0
H841 H 0.9931 0.42401 0.59376 0.0
H842 H 1.02575 0.42229 0.67127 0.0
H843 H 1.04568 0.3649 0.72866 0.0
H844 H 0.16557 0.37761 0.94335 0.0
H845 H 0.13212 0.37673 0.86514 0.0
H846 H 1.04891 0.42179 0.81349 0.0
C847 C 1.00969 0.41038 0.65474 0.0
C848 C 1.04585 0.37734 0.74687 0.0
C849 C 0.99108 0.41131 0.61002 0.0
C850 C 0.13958 0.38445 0.92934 0.0
C851 C 0.12027 0.38386 0.88446 0.0
C852 C 1.04817 0.40917 0.79556 0.0
C853 C 1.00807 0.39428 0.67772 0.0
C854 C 1.02776 0.39361 0.72571 0.0
C855 C 0.08663 0.39284 0.86474 0.0
C856 C 0.06644 0.39298 0.81678 0.0
H857 H 0.95274 0.36809 0.59258 0.0
H858 H 0.98513 0.36648 0.67098 0.0
H859 H 1.01527 0.4222 0.73591 0.0
H860 H 0.08006 0.41004 0.95506 0.0
H861 H 1.04657 0.40888 0.87751 0.0
C862 C 0.08756 0.58556 0.43491 0.0
C863 C 0.12131 0.59435 0.45441 0.0
C864 C 0.06826 0.58609 0.39024 0.0
C865 C 0.06018 0.61123 0.29066 0.0
H866 H 1.01076 0.56603 0.23495 0.0
C867 C 0.96339 0.60835 0.10864 0.0
C868 C 0.96516 0.59223 0.08583 0.0
C869 C 0.98225 0.60926 0.15357 0.0
C870 C 1.02455 0.57877 0.24983 0.0
H871 H 0.16096 0.6108 0.44184 0.0
H872 H 0.12736 0.61161 0.36369 0.0
H873 H 1.04457 0.56641 0.3125 0.0
H874 H 0.98827 0.56445 0.09273 0.0
H875 H 1.02111 0.56611 0.17021 0.0
H876 H 1.0406 0.62344 0.22757 0.0
C877 C 0.11565 0.60445 0.38312 0.0
C878 C 1.04366 0.57906 0.29454 0.0
C879 C 0.13504 0.6039 0.42797 0.0
C880 C 0.98619 0.5771 0.10905 0.0
C881 C 1.0049 0.578 0.15374 0.0
C882 C 1.04092 0.61096 0.2458 0.0
C883 C 0.08209 0.5954 0.36359 0.0
C884 C 0.0618 0.59527 0.31569 0.0
C885 C 1.00317 0.59405 0.17677 0.0
C886 C 1.02296 0.59468 0.22471 0.0
H887 H 0.07596 0.57815 0.45415 0.0
H888 H 1.04229 0.57924 0.37661 0.0
H889 H 0.0735 0.62403 0.30578 0.0
H890 H 0.94745 0.62025 0.09183 0.0
H891 H 0.97998 0.62179 0.17019 0.0
C892 C 0.65816 0.88364 0.93562 0.0
C893 C 0.64355 0.8929 0.96159 0.0
C894 C 0.63958 0.88332 0.89049 0.0
C895 C 0.56862 0.90932 0.8013 0.0
H896 H 0.56655 0.86583 0.73229 0.0
C897 C 0.51192 0.91385 0.61601 0.0
C898 C 0.49032 0.89914 0.59153 0.0
C899 C 0.53105 0.91217 0.66057 0.0
C900 C 0.56664 0.87807 0.75107 0.0
H901 H 0.59734 0.90874 0.95993 0.0
H902 H 0.56526 0.90807 0.88222 0.0
H903 H 0.59867 0.86443 0.81073 0.0
H904 H 0.47261 0.87089 0.59532 0.0
H905 H 0.50604 0.86794 0.67347 0.0
H906 H 0.53637 0.92292 0.74216 0.0
C907 C 0.59128 0.90127 0.89636 0.0
C908 C 0.58544 0.87733 0.79611 0.0
C909 C 0.6097 0.90155 0.94122 0.0
C910 C 0.48894 0.88251 0.61303 0.0
C911 C 0.50828 0.8808 0.65788 0.0
C912 C 0.55007 0.91008 0.75647 0.0
C913 C 0.60601 0.89234 0.87015 0.0
C914 C 0.5866 0.89295 0.82195 0.0
C915 C 0.52932 0.89571 0.6824 0.0
C916 C 0.5488 0.8945 0.73053 0.0
H917 H 0.68415 0.87683 0.95008 0.0
H918 H 0.65197 0.87639 0.87149 0.0
H919 H 0.56916 0.92173 0.81978 0.0
H920 H 0.51394 0.92686 0.6008 0.0
H921 H 0.54741 0.92384 0.67794 0.0
C922 C 0.48808 0.11117 0.11126 0.0
C923 C 0.47901 0.09295 0.09487 0.0
C924 C 0.50964 0.11411 0.15529 0.0
C925 C 0.57588 0.09009 0.25245 0.0
H926 H 0.54748 0.12635 0.31777 0.0
C927 C 0.66056 0.10262 0.4353 0.0
C928 C 0.64109 0.10383 0.46153 0.0
C929 C 0.64272 0.10301 0.39016 0.0
C930 C 0.55584 0.11615 0.30004 0.0
H931 H 0.48602 0.0636 0.11242 0.0
H932 H 0.52356 0.06868 0.18787 0.0
H933 H 0.5133 0.12389 0.23988 0.0
H934 H 0.58742 0.10683 0.46029 0.0
H935 H 0.55657 0.10764 0.3821 0.0
H936 H 0.61795 0.08208 0.31249 0.0
C937 C 0.51425 0.08075 0.16704 0.0
C938 C 0.5364 0.11488 0.25523 0.0
C939 C 0.49244 0.07785 0.12353 0.0
C940 C 0.60341 0.10586 0.44131 0.0
C941 C 0.58565 0.10644 0.39628 0.0
C942 C 0.59552 0.09151 0.29709 0.0
C943 C 0.52313 0.09889 0.18376 0.0
C944 C 0.54576 0.1016 0.23087 0.0
C945 C 0.60494 0.10483 0.36993 0.0
C946 C 0.58549 0.10435 0.32174 0.0
H947 H 0.47817 0.12314 0.09027 0.0
H948 H 0.51602 0.12829 0.16699 0.0
H949 H 0.58415 0.07982 0.23479 0.0
H950 H 0.68956 0.10102 0.44962 0.0
H951 H 0.65857 0.10189 0.37105 0.0
C952 C 0.12468 0.3808 0.16929 0.0
C953 C 0.16033 0.38646 0.19336 0.0
C954 C 0.09962 0.38017 0.18825 0.0
C955 C 0.09353 0.38162 0.29613 0.0
H956 H 0.99342 0.39265 0.22641 0.0
C957 C 0.98637 0.37725 0.36834 0.0
C958 C 0.95599 0.38892 0.35177 0.0
C959 C 1.01076 0.3763 0.34855 0.0
C960 C 1.02133 0.38984 0.24676 0.0
H961 H 0.19807 0.39484 0.25649 0.0
H962 H 0.15454 0.39491 0.28893 0.0
H963 H 1.03664 0.39274 0.19364 0.0
H964 H 0.92708 0.40827 0.30081 0.0
H965 H 0.97069 0.40801 0.26838 0.0
H966 H 0.07892 0.38007 0.34984 0.0
C967 C 0.14559 0.39055 0.25572 0.0
C968 C 1.04618 0.38949 0.22757 0.0
C969 C 0.17062 0.39084 0.23695 0.0
C970 C 0.95063 0.39957 0.31498 0.0
C971 C 0.97546 0.39905 0.29583 0.0
C972 C 0.06889 0.38243 0.3155 0.0
C973 C 0.10957 0.38529 0.2317 0.0
C974 C 0.08272 0.38534 0.25192 0.0
C975 C 1.0059 0.38729 0.31209 0.0
C976 C 1.0323 0.38649 0.29119 0.0
H977 H 0.11598 0.37713 0.13566 0.0
H978 H 0.0725 0.3756 0.16875 0.0
H979 H 0.12114 0.37799 0.31612 0.0
H980 H 0.99104 0.36856 0.39623 0.0
H981 H 1.03309 0.36665 0.36165 0.0
C982 C 0.16576 0.59772 0.73537 0.0
C983 C 0.15578 0.6027 0.69213 0.0
C984 C 0.14091 0.59837 0.75436 0.0
C985 C 1.04183 0.60169 0.7269 0.0
H986 H 0.07579 0.60879 0.85008 0.0
C987 C 0.94644 0.59103 0.81404 0.0
C988 C 0.95264 0.60082 0.85216 0.0
C989 C 0.97113 0.59176 0.79475 0.0
C990 C 0.06545 0.6071 0.81553 0.0
H991 H 0.11223 0.61348 0.63539 0.0
H992 H 0.06913 0.61564 0.66896 0.0
H993 H 0.11788 0.61074 0.81614 0.0
H994 H 0.98906 0.61993 0.89891 0.0
H995 H 1.03103 0.62225 0.86416 0.0
H996 H 0.98899 0.59934 0.72585 0.0
C997 C 0.09582 0.61032 0.68794 0.0
C998 C 0.08998 0.60783 0.79598 0.0
C999 C 0.12068 0.60932 0.66871 0.0
C1000 C 0.98373 0.61191 0.86993 0.0
C1001 C 1.00804 0.61309 0.85003 0.0
C1002 C 1.01713 0.60143 0.74631 0.0
C1003 C 0.10542 0.60461 0.73098 0.0
C1004 C 0.07871 0.60487 0.75141 0.0
C1005 C 1.00231 0.60291 0.8122 0.0
C1006 C 1.02855 0.60389 0.79109 0.0
H1007 H 0.19281 0.59297 0.75447 0.0
H1008 H 0.14956 0.59352 0.78719 0.0
H1009 H 1.03188 0.59907 0.69267 0.0
H1010 H 0.92225 0.58288 0.79884 0.0
H1011 H 0.96565 0.58341 0.76624 0.0
C1012 C 0.49922 0.88839 0.37552 0.0
C1013 C 0.47067 0.90116 0.35798 0.0
C1014 C 0.5234 0.88534 0.35582 0.0
C1015 C 0.53685 0.89587 0.25347 0.0
H1016 H 0.63409 0.87982 0.32324 0.0
C1017 C 0.63947 0.88227 0.17629 0.0
C1018 C 0.67581 0.88656 0.20082 0.0
C1019 C 0.61425 0.88242 0.19518 0.0
C1020 C 0.60724 0.88458 0.30309 0.0
H1021 H 0.4456 0.92085 0.3059 0.0
H1022 H 0.48854 0.91667 0.27364 0.0
H1023 H 0.59193 0.88439 0.35643 0.0
H1024 H 0.7145 0.89318 0.26484 0.0
H1025 H 0.67099 0.89427 0.29731 0.0
H1026 H 0.55304 0.89742 0.20082 0.0
C1027 C 0.49179 0.90824 0.30144 0.0
C1028 C 0.58252 0.88685 0.32219 0.0
C1029 C 0.46715 0.91088 0.32044 0.0
C1030 C 0.6866 0.89011 0.24493 0.0
C1031 C 0.66148 0.89047 0.26371 0.0
C1032 C 0.56182 0.89404 0.2346 0.0
C1033 C 0.52034 0.89534 0.31852 0.0
C1034 C 0.54679 0.89256 0.29781 0.0
C1035 C 0.62469 0.8869 0.23911 0.0
C1036 C 0.59753 0.88835 0.25904 0.0
H1037 H 0.5026 0.88051 0.40417 0.0
H1038 H 0.54423 0.87495 0.36981 0.0
H1039 H 0.50962 0.89988 0.23287 0.0
H1040 H 0.6303 0.87929 0.14225 0.0
H1041 H 0.58653 0.87909 0.17509 0.0
C1042 C 0.46241 0.08232 0.81561 0.0
C1043 C 0.46633 0.09214 0.85321 0.0
C1044 C 0.48687 0.08482 0.79634 0.0
C1045 C 0.55146 0.11681 0.7821 0.0
H1046 H 0.59746 0.07209 0.76369 0.0
C1047 C 0.63956 0.11098 0.67927 0.0
C1048 C 0.67275 0.10178 0.70053 0.0
C1049 C 0.61428 0.11191 0.69811 0.0
C1050 C 0.5847 0.08469 0.76838 0.0
H1051 H 0.4988 0.11271 0.89925 0.0
H1052 H 0.54113 0.11748 0.8646 0.0
H1053 H 0.5529 0.06956 0.7952 0.0
H1054 H 0.70635 0.08794 0.75974 0.0
H1055 H 0.66195 0.08869 0.79139 0.0
H1056 H 0.58289 0.13185 0.7542 0.0
C1057 C 0.51912 0.1077 0.85047 0.0
C1058 C 0.55916 0.08324 0.78639 0.0
C1059 C 0.49499 0.10491 0.8704 0.0
C1060 C 0.68072 0.09455 0.74188 0.0
C1061 C 0.65532 0.09507 0.76016 0.0
C1062 C 0.57644 0.11821 0.76298 0.0
C1063 C 0.51559 0.09747 0.81355 0.0
C1064 C 0.54246 0.09928 0.79385 0.0
C1065 C 0.62152 0.1034 0.73817 0.0
C1066 C 0.5936 0.10216 0.75636 0.0
H1067 H 0.44084 0.0723 0.80149 0.0
H1068 H 0.48336 0.07679 0.76786 0.0
H1069 H 0.53886 0.12938 0.78724 0.0
H1070 H 0.63266 0.11694 0.6476 0.0
H1071 H 0.58846 0.11849 0.68049 0.0
loop_
_geom_bond_atom_site_label_1
_geom_bond_atom_site_label_2
_geom_bond_distance
_geom_bond_site_symmetry_2
_ccdc_geom_bond_type
O0 Tb1 2.292 . S
O0 C3 1.255 . S
Tb1 O0 2.292 . S
Tb1 O17 2.326 . S
Tb1 O19 2.500 . S
Tb1 O20 2.473 . S
Tb1 O23 2.324 . S
Eu2 O6 2.292 1_554 S
Eu2 C7 2.852 . S
Eu2 O18 2.324 . S
Eu2 O22 2.326 . S
Eu2 O24 2.500 . S
Eu2 O25 2.473 . S
C3 O0 1.255 . S
C3 O4 1.247 . S
O4 C3 1.247 . S
C5 O17 1.242 . S
C5 O18 1.258 . S
O6 Eu2 2.292 1_556 S
O6 C8 1.255 . S
C7 Eu2 2.852 . S
C7 C11 1.503 . S
C7 O24 1.273 . S
C7 O25 1.257 . S
C8 O6 1.255 . S
C8 O9 1.247 . S
O9 C8 1.247 . S
C10 O22 1.242 . S
C10 O23 1.258 . S
C11 C7 1.503 . S
C11 C12 1.379 . S
C11 C16 1.392 . S
C12 C11 1.379 . S
C12 C13 1.404 . S
C12 H26 0.929 . S
C13 C12 1.404 . S
C13 C14 1.389 . S
C14 C13 1.389 . S
C14 C15 1.399 . S
C14 H27 0.931 . S
C15 C14 1.399 . S
C15 C16 1.390 . S
C16 C11 1.392 . S
C16 C15 1.390 . S
C16 H28 0.929 . S
O17 Tb1 2.326 . S
O17 C5 1.242 . S
O18 Eu2 2.324 . S
O18 C5 1.258 . S
O19 Tb1 2.500 . S
O19 C21 1.273 . S
O20 Tb1 2.473 . S
O20 C21 1.257 . S
C21 O19 1.273 . S
C21 O20 1.257 . S
O22 Eu2 2.326 . S
O22 C10 1.242 . S
O23 Tb1 2.324 . S
O23 C10 1.258 . S
O24 Eu2 2.500 . S
O24 C7 1.273 . S
O25 Eu2 2.473 . S
O25 C7 1.257 . S
H26 C12 0.929 . S
H27 C14 0.931 . S
H28 C16 0.929 . S
O29 Tb30 2.292 . S
O29 C32 1.255 . S
Tb30 O29 2.292 . S
Tb30 O46 2.326 . S
Tb30 O48 2.500 . S
Tb30 O49 2.473 . S
Tb30 O52 2.324 . S
Eu31 O35 2.292 . S
Eu31 C36 2.852 . S
Eu31 O47 2.324 . S
Eu31 O51 2.326 . S
Eu31 O53 2.500 . S
Eu31 O54 2.473 . S
C32 O29 1.255 . S
C32 O33 1.247 . S
O33 C32 1.247 . S
C34 O46 1.242 . S
C34 O47 1.258 . S
O35 Eu31 2.292 . S
O35 C37 1.255 . S
C36 Eu31 2.852 . S
C36 C40 1.503 . S
C36 O53 1.273 . S
C36 O54 1.257 . S
C37 O35 1.255 . S
C37 O38 1.247 . S
O38 C37 1.247 . S
C39 O51 1.242 . S
C39 O52 1.258 . S
C40 C36 1.503 . S
C40 C41 1.379 . S
C40 C45 1.392 . S
C41 C40 1.379 . S
C41 C42 1.404 . S
C41 H55 0.929 . S
C42 C41 1.404 . S
C42 C43 1.389 . S
C43 C42 1.389 . S
C43 C44 1.399 . S
C43 H56 0.931 . S
C44 C43 1.399 . S
C44 C45 1.390 . S
C45 C40 1.392 . S
C45 C44 1.390 . S
C45 H57 0.929 . S
O46 Tb30 2.326 . S
O46 C34 1.242 . S
O47 Eu31 2.324 . S
O47 C34 1.258 . S
O48 Tb30 2.500 . S
O48 C50 1.273 . S
O49 Tb30 2.473 . S
O49 C50 1.257 . S
C50 O48 1.273 . S
C50 O49 1.257 . S
O51 Eu31 2.326 . S
O51 C39 1.242 . S
O52 Tb30 2.324 . S
O52 C39 1.258 . S
O53 Eu31 2.500 . S
O53 C36 1.273 . S
O54 Eu31 2.473 . S
O54 C36 1.257 . S
H55 C41 0.929 . S
H56 C43 0.931 . S
H57 C45 0.929 . S
O58 Tb59 2.292 . S
O58 C61 1.255 . S
Tb59 O58 2.292 . S
Tb59 O75 2.326 . S
Tb59 O77 2.500 . S
Tb59 O78 2.473 . S
Tb59 O81 2.324 . S
Eu60 O64 2.292 1_556 S
Eu60 C65 2.852 . S
Eu60 O76 2.324 . S
Eu60 O80 2.326 . S
Eu60 O82 2.500 . S
Eu60 O83 2.473 . S
C61 O58 1.255 . S
C61 O62 1.247 . S
O62 C61 1.247 . S
C63 O75 1.242 . S
C63 O76 1.258 . S
O64 Eu60 2.292 1_554 S
O64 C66 1.255 . S
C65 Eu60 2.852 . S
C65 C69 1.503 . S
C65 O82 1.273 . S
C65 O83 1.257 . S
C66 O64 1.255 . S
C66 O67 1.247 . S
O67 C66 1.247 . S
C68 O80 1.242 . S
C68 O81 1.258 . S
C69 C65 1.503 . S
C69 C70 1.379 . S
C69 C74 1.392 . S
C70 C69 1.379 . S
C70 C71 1.404 . S
C70 H84 0.929 . S
C71 C70 1.404 . S
C71 C72 1.389 . S
C72 C71 1.389 . S
C72 C73 1.399 . S
C72 H85 0.931 . S
C73 C72 1.399 . S
C73 C74 1.390 . S
C74 C69 1.392 . S
C74 C73 1.390 . S
C74 H86 0.929 . S
O75 Tb59 2.326 . S
O75 C63 1.242 . S
O76 Eu60 2.324 . S
O76 C63 1.258 . S
O77 Tb59 2.500 . S
O77 C79 1.273 . S
O78 Tb59 2.473 . S
O78 C79 1.257 . S
C79 O77 1.273 . S
C79 O78 1.257 . S
O80 Eu60 2.326 . S
O80 C68 1.242 . S
O81 Tb59 2.324 . S
O81 C68 1.258 . S
O82 Eu60 2.500 . S
O82 C65 1.273 . S
O83 Eu60 2.473 . S
O83 C65 1.257 . S
H84 C70 0.929 . S
H85 C72 0.931 . S
H86 C74 0.929 . S
O87 Tb88 2.292 . S
O87 C90 1.255 . S
Tb88 O87 2.292 . S
Tb88 O104 2.326 . S
Tb88 O106 2.500 . S
Tb88 O107 2.473 . S
Tb88 O110 2.324 . S
Eu89 O93 2.292 . S
Eu89 C94 2.852 . S
Eu89 O105 2.324 . S
Eu89 O109 2.326 . S
Eu89 O111 2.500 . S
Eu89 O112 2.473 . S
C90 O87 1.255 . S
C90 O91 1.247 . S
O91 C90 1.247 . S
C92 O104 1.242 . S
C92 O105 1.258 . S
O93 Eu89 2.292 . S
O93 C95 1.255 . S
C94 Eu89 2.852 . S
C94 C98 1.503 . S
C94 O111 1.273 . S
C94 O112 1.257 . S
C95 O93 1.255 . S
C95 O96 1.247 . S
O96 C95 1.247 . S
C97 O109 1.242 . S
C97 O110 1.258 . S
C98 C94 1.503 . S
C98 C99 1.379 . S
C98 C103 1.392 . S
C99 C98 1.379 . S
C99 C100 1.404 . S
C99 H113 0.929 . S
C100 C99 1.404 . S
C100 C101 1.389 . S
C101 C100 1.389 . S
C101 C102 1.399 . S
C101 H114 0.931 . S
C102 C101 1.399 . S
C102 C103 1.390 . S
C103 C98 1.392 . S
C103 C102 1.390 . S
C103 H115 0.929 . S
O104 Tb88 2.326 . S
O104 C92 1.242 . S
O105 Eu89 2.324 . S
O105 C92 1.258 . S
O106 Tb88 2.500 . S
O106 C108 1.273 . S
O107 Tb88 2.473 . S
O107 C108 1.257 . S
C108 O106 1.273 . S
C108 O107 1.257 . S
O109 Eu89 2.326 . S
O109 C97 1.242 . S
O110 Tb88 2.324 . S
O110 C97 1.258 . S
O111 Eu89 2.500 . S
O111 C94 1.273 . S
O112 Eu89 2.473 . S
O112 C94 1.257 . S
H113 C99 0.929 . S
H114 C101 0.931 . S
H115 C103 0.929 . S
O116 Tb117 2.292 . S
O116 C119 1.255 . S
Tb117 O116 2.292 . S
Tb117 O133 2.326 . S
Tb117 O135 2.500 . S
Tb117 O136 2.473 . S
Tb117 O139 2.324 . S
Eu118 O122 2.292 1_554 S
Eu118 C123 2.852 . S
Eu118 O134 2.324 . S
Eu118 O138 2.326 . S
Eu118 O140 2.500 . S
Eu118 O141 2.473 . S
C119 O116 1.255 . S
C119 O120 1.247 . S
O120 C119 1.247 . S
C121 O133 1.242 . S
C121 O134 1.258 . S
O122 Eu118 2.292 1_556 S
O122 C124 1.255 . S
C123 Eu118 2.852 . S
C123 C127 1.503 . S
C123 O140 1.273 . S
C123 O141 1.257 . S
C124 O122 1.255 . S
C124 O125 1.247 . S
O125 C124 1.247 . S
C126 O138 1.242 . S
C126 O139 1.258 . S
C127 C123 1.503 . S
C127 C128 1.379 . S
C127 C132 1.392 . S
C128 C127 1.379 . S
C128 C129 1.404 . S
C128 H142 0.929 . S
C129 C128 1.404 . S
C129 C130 1.389 . S
C130 C129 1.389 . S
C130 C131 1.399 . S
C130 H143 0.931 . S
C131 C130 1.399 . S
C131 C132 1.390 . S
C132 C127 1.392 . S
C132 C131 1.390 . S
C132 H144 0.929 . S
O133 Tb117 2.326 . S
O133 C121 1.242 . S
O134 Eu118 2.324 . S
O134 C121 1.258 . S
O135 Tb117 2.500 . S
O135 C137 1.273 . S
O136 Tb117 2.473 . S
O136 C137 1.257 . S
C137 O135 1.273 . S
C137 O136 1.257 . S
O138 Eu118 2.326 . S
O138 C126 1.242 . S
O139 Tb117 2.324 . S
O139 C126 1.258 . S
O140 Eu118 2.500 . S
O140 C123 1.273 . S
O141 Eu118 2.473 . S
O141 C123 1.257 . S
H142 C128 0.929 . S
H143 C130 0.931 . S
H144 C132 0.929 . S
O145 Tb146 2.292 . S
O145 C148 1.255 . S
Tb146 O145 2.292 . S
Tb146 O162 2.326 . S
Tb146 O164 2.500 . S
Tb146 O165 2.473 . S
Tb146 O168 2.324 . S
Eu147 O151 2.292 . S
Eu147 C152 2.852 . S
Eu147 O163 2.324 . S
Eu147 O167 2.326 . S
Eu147 O169 2.500 . S
Eu147 O170 2.473 . S
C148 O145 1.255 . S
C148 O149 1.247 . S
O149 C148 1.247 . S
C150 O162 1.242 . S
C150 O163 1.258 . S
O151 Eu147 2.292 . S
O151 C153 1.255 . S
C152 Eu147 2.852 . S
C152 C156 1.503 . S
C152 O169 1.273 . S
C152 O170 1.257 . S
C153 O151 1.255 . S
C153 O154 1.247 . S
O154 C153 1.247 . S
C155 O167 1.242 . S
C155 O168 1.258 . S
C156 C152 1.503 . S
C156 C157 1.379 . S
C156 C161 1.392 . S
C157 C156 1.379 . S
C157 C158 1.404 . S
C157 H171 0.929 . S
C158 C157 1.404 . S
C158 C159 1.389 . S
C159 C158 1.389 . S
C159 C160 1.399 . S
C159 H172 0.931 . S
C160 C159 1.399 . S
C160 C161 1.390 . S
C161 C156 1.392 . S
C161 C160 1.390 . S
C161 H173 0.929 . S
O162 Tb146 2.326 . S
O162 C150 1.242 . S
O163 Eu147 2.324 . S
O163 C150 1.258 . S
O164 Tb146 2.500 . S
O164 C166 1.273 . S
O165 Tb146 2.473 . S
O165 C166 1.257 . S
C166 O164 1.273 . S
C166 O165 1.257 . S
O167 Eu147 2.326 . S
O167 C155 1.242 . S
O168 Tb146 2.324 . S
O168 C155 1.258 . S
O169 Eu147 2.500 . S
O169 C152 1.273 . S
O170 Eu147 2.473 . S
O170 C152 1.257 . S
H171 C157 0.929 . S
H172 C159 0.931 . S
H173 C161 0.929 . S
O174 Tb175 2.292 . S
O174 C177 1.255 . S
Tb175 O174 2.292 . S
Tb175 O191 2.326 . S
Tb175 O193 2.500 . S
Tb175 O194 2.473 . S
Tb175 O197 2.324 . S
Eu176 O180 2.292 1_556 S
Eu176 C181 2.852 . S
Eu176 O192 2.324 . S
Eu176 O196 2.326 . S
Eu176 O198 2.500 . S
Eu176 O199 2.473 . S
C177 O174 1.255 . S
C177 O178 1.247 . S
O178 C177 1.247 . S
C179 O191 1.242 . S
C179 O192 1.258 . S
O180 Eu176 2.292 1_554 S
O180 C182 1.255 . S
C181 Eu176 2.852 . S
C181 C185 1.503 . S
C181 O198 1.273 . S
C181 O199 1.257 . S
C182 O180 1.255 . S
C182 O183 1.247 . S
O183 C182 1.247 . S
C184 O196 1.242 . S
C184 O197 1.258 . S
C185 C181 1.503 . S
C185 C186 1.379 . S
C185 C190 1.392 . S
C186 C185 1.379 . S
C186 C187 1.404 . S
C186 H200 0.929 . S
C187 C186 1.404 . S
C187 C188 1.389 . S
C188 C187 1.389 . S
C188 C189 1.399 . S
C188 H201 0.931 . S
C189 C188 1.399 . S
C189 C190 1.390 . S
C190 C185 1.392 . S
C190 C189 1.390 . S
C190 H202 0.929 . S
O191 Tb175 2.326 . S
O191 C179 1.242 . S
O192 Eu176 2.324 . S
O192 C179 1.258 . S
O193 Tb175 2.500 . S
O193 C195 1.273 . S
O194 Tb175 2.473 . S
O194 C195 1.257 . S
C195 O193 1.273 . S
C195 O194 1.257 . S
O196 Eu176 2.326 . S
O196 C184 1.242 . S
O197 Tb175 2.324 . S
O197 C184 1.258 . S
O198 Eu176 2.500 . S
O198 C181 1.273 . S
O199 Eu176 2.473 . S
O199 C181 1.257 . S
H200 C186 0.929 . S
H201 C188 0.931 . S
H202 C190 0.929 . S
O203 Tb204 2.292 . S
O203 C206 1.255 . S
Tb204 O203 2.292 . S
Tb204 O220 2.326 . S
Tb204 O222 2.500 . S
Tb204 O223 2.473 . S
Tb204 O226 2.324 . S
Eu205 O209 2.292 . S
Eu205 C210 2.852 . S
Eu205 O221 2.324 . S
Eu205 O225 2.326 . S
Eu205 O227 2.500 . S
Eu205 O228 2.473 . S
C206 O203 1.255 . S
C206 O207 1.247 . S
O207 C206 1.247 . S
C208 O220 1.242 . S
C208 O221 1.258 . S
O209 Eu205 2.292 . S
O209 C211 1.255 . S
C210 Eu205 2.852 . S
C210 C214 1.503 . S
C210 O227 1.273 . S
C210 O228 1.257 . S
C211 O209 1.255 . S
C211 O212 1.247 . S
O212 C211 1.247 . S
C213 O225 1.242 . S
C213 O226 1.258 . S
C214 C210 1.503 . S
C214 C215 1.379 . S
C214 C219 1.392 . S
C215 C214 1.379 . S
C215 C216 1.404 . S
C215 H229 0.929 . S
C216 C215 1.404 . S
C216 C217 1.389 . S
C217 C216 1.389 . S
C217 C218 1.399 . S
C217 H230 0.931 . S
C218 C217 1.399 . S
C218 C219 1.390 . S
C219 C214 1.392 . S
C219 C218 1.390 . S
C219 H231 0.929 . S
O220 Tb204 2.326 . S
O220 C208 1.242 . S
O221 Eu205 2.324 . S
O221 C208 1.258 . S
O222 Tb204 2.500 . S
O222 C224 1.273 . S
O223 Tb204 2.473 . S
O223 C224 1.257 . S
C224 O222 1.273 . S
C224 O223 1.257 . S
O225 Eu205 2.326 . S
O225 C213 1.242 . S
O226 Tb204 2.324 . S
O226 C213 1.258 . S
O227 Eu205 2.500 . S
O227 C210 1.273 . S
O228 Eu205 2.473 . S
O228 C210 1.257 . S
H229 C215 0.929 . S
H230 C217 0.931 . S
H231 C219 0.929 . S
C232 C233 1.349 . S
C232 C234 1.327 . S
C232 H257 0.950 . S
C233 C232 1.349 . S
C233 C249 1.349 . S
C234 C232 1.327 . S
C234 C253 1.429 . S
C234 H258 0.950 . S
C235 C252 1.574 . S
C235 C254 1.368 . S
C235 H259 0.949 . S
H236 C240 0.949 . S
C237 C238 1.349 . S
C237 C239 1.327 . S
C237 H260 0.950 . S
C238 C237 1.349 . S
C238 C250 1.349 . S
C239 C237 1.327 . S
C239 C255 1.429 . S
C239 H261 0.950 . S
C240 H236 0.949 . S
C240 C248 1.574 . S
C240 C256 1.368 . S
H241 C249 0.950 . S
H242 C247 0.950 . S
H243 C248 0.949 . S
H244 C250 0.950 . S
H245 C251 0.950 . S
H246 C252 0.949 . S
C247 H242 0.950 . S
C247 C249 1.327 . S
C247 C253 1.429 . S
C248 C240 1.574 . S
C248 H243 0.949 . S
C248 C254 1.368 . S
C249 C233 1.349 . S
C249 H241 0.950 . S
C249 C247 1.327 . S
C250 C238 1.349 . S
C250 H244 0.950 . S
C250 C251 1.327 . S
C251 H245 0.950 . S
C251 C250 1.327 . S
C251 C255 1.429 . S
C252 C235 1.574 . S
C252 H246 0.949 . S
C252 C256 1.368 . S
C253 C234 1.429 . S
C253 C247 1.429 . S
C253 C254 1.523 . S
C254 C235 1.368 . S
C254 C248 1.368 . S
C254 C253 1.523 . S
C255 C239 1.429 . S
C255 C251 1.429 . S
C255 C256 1.523 . S
C256 C240 1.368 . S
C256 C252 1.368 . S
C256 C255 1.523 . S
H257 C232 0.950 . S
H258 C234 0.950 . S
H259 C235 0.949 . S
H260 C237 0.950 . S
H261 C239 0.950 . S
C262 C263 1.349 . S
C262 C264 1.327 . S
C262 H287 0.950 . S
C263 C262 1.349 . S
C263 C279 1.349 . S
C264 C262 1.327 . S
C264 C283 1.429 . S
C264 H288 0.950 . S
C265 C282 1.574 . S
C265 C284 1.368 . S
C265 H289 0.949 . S
H266 C270 0.949 . S
C267 C268 1.349 . S
C267 C269 1.327 . S
C267 H290 0.950 . S
C268 C267 1.349 . S
C268 C280 1.349 . S
C269 C267 1.327 . S
C269 C285 1.429 . S
C269 H291 0.950 . S
C270 H266 0.949 . S
C270 C278 1.574 . S
C270 C286 1.368 . S
H271 C279 0.950 . S
H272 C277 0.950 . S
H273 C278 0.949 . S
H274 C280 0.950 . S
H275 C281 0.950 . S
H276 C282 0.949 . S
C277 H272 0.950 . S
C277 C279 1.327 . S
C277 C283 1.429 . S
C278 C270 1.574 . S
C278 H273 0.949 . S
C278 C284 1.368 . S
C279 C263 1.349 . S
C279 H271 0.950 . S
C279 C277 1.327 . S
C280 C268 1.349 . S
C280 H274 0.950 . S
C280 C281 1.327 . S
C281 H275 0.950 . S
C281 C280 1.327 . S
C281 C285 1.429 . S
C282 C265 1.574 . S
C282 H276 0.949 . S
C282 C286 1.368 . S
C283 C264 1.429 . S
C283 C277 1.429 . S
C283 C284 1.523 . S
C284 C265 1.368 . S
C284 C278 1.368 . S
C284 C283 1.523 . S
C285 C269 1.429 . S
C285 C281 1.429 . S
C285 C286 1.523 . S
C286 C270 1.368 . S
C286 C282 1.368 . S
C286 C285 1.523 . S
H287 C262 0.950 . S
H288 C264 0.950 . S
H289 C265 0.949 . S
H290 C267 0.950 . S
H291 C269 0.950 . S
C292 C293 1.349 . S
C292 C294 1.327 . S
C292 H317 0.950 . S
C293 C292 1.349 . S
C293 C309 1.349 . S
C294 C292 1.327 . S
C294 C313 1.429 . S
C294 H318 0.950 . S
C295 C312 1.574 1_655 S
C295 C314 1.368 . S
C295 H319 0.949 . S
H296 C300 0.949 . S
C297 C298 1.349 . S
C297 C299 1.327 . S
C297 H320 0.950 . S
C298 C297 1.349 . S
C298 C310 1.349 . S
C299 C297 1.327 . S
C299 C315 1.429 . S
C299 H321 0.950 . S
C300 H296 0.949 . S
C300 C308 1.574 1_455 S
C300 C316 1.368 . S
H301 C309 0.950 . S
H302 C307 0.950 . S
H303 C308 0.949 . S
H304 C310 0.950 . S
H305 C311 0.950 . S
H306 C312 0.949 . S
C307 H302 0.950 . S
C307 C309 1.327 . S
C307 C313 1.429 . S
C308 C300 1.574 1_655 S
C308 H303 0.949 . S
C308 C314 1.368 . S
C309 C293 1.349 . S
C309 H301 0.950 . S
C309 C307 1.327 . S
C310 C298 1.349 . S
C310 H304 0.950 . S
C310 C311 1.327 . S
C311 H305 0.950 . S
C311 C310 1.327 . S
C311 C315 1.429 . S
C312 C295 1.574 1_455 S
C312 H306 0.949 . S
C312 C316 1.368 . S
C313 C294 1.429 . S
C313 C307 1.429 . S
C313 C314 1.523 . S
C314 C295 1.368 . S
C314 C308 1.368 . S
C314 C313 1.523 . S
C315 C299 1.429 . S
C315 C311 1.429 . S
C315 C316 1.523 . S
C316 C300 1.368 . S
C316 C312 1.368 . S
C316 C315 1.523 . S
H317 C292 0.950 . S
H318 C294 0.950 . S
H319 C295 0.949 . S
H320 C297 0.950 . S
H321 C299 0.950 . S
C322 C323 1.349 . S
C322 C324 1.327 . S
C322 H347 0.950 . S
C323 C322 1.349 . S
C323 C339 1.349 . S
C324 C322 1.327 . S
C324 C343 1.429 . S
C324 H348 0.950 . S
C325 C342 1.574 1_655 S
C325 C344 1.368 . S
C325 H349 0.949 . S
H326 C330 0.949 . S
C327 C328 1.349 . S
C327 C329 1.327 . S
C327 H350 0.950 . S
C328 C327 1.349 . S
C328 C340 1.349 . S
C329 C327 1.327 . S
C329 C345 1.429 . S
C329 H351 0.950 . S
C330 H326 0.949 . S
C330 C338 1.574 1_455 S
C330 C346 1.368 . S
H331 C339 0.950 . S
H332 C337 0.950 . S
H333 C338 0.949 . S
H334 C340 0.950 . S
H335 C341 0.950 . S
H336 C342 0.949 . S
C337 H332 0.950 . S
C337 C339 1.327 . S
C337 C343 1.429 . S
C338 C330 1.574 1_655 S
C338 H333 0.949 . S
C338 C344 1.368 . S
C339 C323 1.349 . S
C339 H331 0.950 . S
C339 C337 1.327 . S
C340 C328 1.349 . S
C340 H334 0.950 . S
C340 C341 1.327 . S
C341 H335 0.950 . S
C341 C340 1.327 . S
C341 C345 1.429 . S
C342 C325 1.574 1_455 S
C342 H336 0.949 . S
C342 C346 1.368 . S
C343 C324 1.429 . S
C343 C337 1.429 . S
C343 C344 1.523 . S
C344 C325 1.368 . S
C344 C338 1.368 . S
C344 C343 1.523 . S
C345 C329 1.429 . S
C345 C341 1.429 . S
C345 C346 1.523 . S
C346 C330 1.368 . S
C346 C342 1.368 . S
C346 C345 1.523 . S
H347 C322 0.950 . S
H348 C324 0.950 . S
H349 C325 0.949 . S
H350 C327 0.950 . S
H351 C329 0.950 . S
C352 C353 1.349 . S
C352 C354 1.327 . S
C352 H377 0.950 . S
C353 C352 1.349 . S
C353 C369 1.349 . S
C354 C352 1.327 . S
C354 C373 1.429 . S
C354 H378 0.950 . S
C355 C372 1.574 . S
C355 C374 1.368 1_554 S
C355 H379 0.949 . S
H356 C360 0.949 . S
C357 C358 1.349 . S
C357 C359 1.327 . S
C357 H380 0.950 . S
C358 C357 1.349 . S
C358 C370 1.349 . S
C359 C357 1.327 . S
C359 C375 1.429 . S
C359 H381 0.950 . S
C360 H356 0.949 . S
C360 C368 1.574 . S
C360 C376 1.368 1_556 S
H361 C369 0.950 1_554 S
H362 C367 0.950 . S
H363 C368 0.949 . S
H364 C370 0.950 1_556 S
H365 C371 0.950 . S
H366 C372 0.949 . S
C367 H362 0.950 . S
C367 C369 1.327 1_554 S
C367 C373 1.429 1_554 S
C368 C360 1.574 . S
C368 H363 0.949 . S
C368 C374 1.368 . S
C369 C353 1.349 . S
C369 H361 0.950 1_556 S
C369 C367 1.327 1_556 S
C370 C358 1.349 . S
C370 H364 0.950 1_554 S
C370 C371 1.327 1_554 S
C371 H365 0.950 . S
C371 C370 1.327 1_556 S
C371 C375 1.429 1_556 S
C372 C355 1.574 . S
C372 H366 0.949 . S
C372 C376 1.368 . S
C373 C354 1.429 . S
C373 C367 1.429 1_556 S
C373 C374 1.523 . S
C374 C355 1.368 1_556 S
C374 C368 1.368 . S
C374 C373 1.523 . S
C375 C359 1.429 . S
C375 C371 1.429 1_554 S
C375 C376 1.523 . S
C376 C360 1.368 1_554 S
C376 C372 1.368 . S
C376 C375 1.523 . S
H377 C352 0.950 . S
H378 C354 0.950 . S
H379 C355 0.949 . S
H380 C357 0.950 . S
H381 C359 0.950 . S
C382 C383 1.349 . S
C382 C384 1.327 . S
C382 H407 0.950 . S
C383 C382 1.349 . S
C383 C399 1.349 . S
C384 C382 1.327 . S
C384 C403 1.429 . S
C384 H408 0.950 . S
C385 C402 1.574 . S
C385 C404 1.368 . S
C385 H409 0.949 . S
H386 C390 0.949 . S
C387 C388 1.349 . S
C387 C389 1.327 . S
C387 H410 0.950 . S
C388 C387 1.349 . S
C388 C400 1.349 . S
C389 C387 1.327 . S
C389 C405 1.429 . S
C389 H411 0.950 . S
C390 H386 0.949 . S
C390 C398 1.574 . S
C390 C406 1.368 . S
H391 C399 0.950 . S
H392 C397 0.950 . S
H393 C398 0.949 . S
H394 C400 0.950 . S
H395 C401 0.950 . S
H396 C402 0.949 . S
C397 H392 0.950 . S
C397 C399 1.327 . S
C397 C403 1.429 . S
C398 C390 1.574 . S
C398 H393 0.949 . S
C398 C404 1.368 . S
C399 C383 1.349 . S
C399 H391 0.950 . S
C399 C397 1.327 . S
C400 C388 1.349 . S
C400 H394 0.950 . S
C400 C401 1.327 . S
C401 H395 0.950 . S
C401 C400 1.327 . S
C401 C405 1.429 . S
C402 C385 1.574 . S
C402 H396 0.949 . S
C402 C406 1.368 . S
C403 C384 1.429 . S
C403 C397 1.429 . S
C403 C404 1.523 . S
C404 C385 1.368 . S
C404 C398 1.368 . S
C404 C403 1.523 . S
C405 C389 1.429 . S
C405 C401 1.429 . S
C405 C406 1.523 . S
C406 C390 1.368 . S
C406 C402 1.368 . S
C406 C405 1.523 . S
H407 C382 0.950 . S
H408 C384 0.950 . S
H409 C385 0.949 . S
H410 C387 0.950 . S
H411 C389 0.950 . S
C412 C413 1.349 . S
C412 C414 1.327 1_554 S
C412 H437 0.950 1_554 S
C413 C412 1.349 . S
C413 C429 1.349 . S
C414 C412 1.327 1_556 S
C414 C433 1.429 1_556 S
C414 H438 0.950 . S
C415 C432 1.574 . S
C415 C434 1.368 . S
C415 H439 0.949 . S
H416 C420 0.949 . S
C417 C418 1.349 . S
C417 C419 1.327 1_556 S
C417 H440 0.950 1_556 S
C418 C417 1.349 . S
C418 C430 1.349 . S
C419 C417 1.327 1_554 S
C419 C435 1.429 1_554 S
C419 H441 0.950 . S
C420 H416 0.949 . S
C420 C428 1.574 . S
C420 C436 1.368 . S
H421 C429 0.950 . S
H422 C427 0.950 . S
H423 C428 0.949 . S
H424 C430 0.950 . S
H425 C431 0.950 . S
H426 C432 0.949 . S
C427 H422 0.950 . S
C427 C429 1.327 . S
C427 C433 1.429 . S
C428 C420 1.574 . S
C428 H423 0.949 . S
C428 C434 1.368 1_556 S
C429 C413 1.349 . S
C429 H421 0.950 . S
C429 C427 1.327 . S
C430 C418 1.349 . S
C430 H424 0.950 . S
C430 C431 1.327 . S
C431 H425 0.950 . S
C431 C430 1.327 . S
C431 C435 1.429 . S
C432 C415 1.574 . S
C432 H426 0.949 . S
C432 C436 1.368 1_554 S
C433 C414 1.429 1_554 S
C433 C427 1.429 . S
C433 C434 1.523 . S
C434 C415 1.368 . S
C434 C428 1.368 1_554 S
C434 C433 1.523 . S
C435 C419 1.429 1_556 S
C435 C431 1.429 . S
C435 C436 1.523 . S
C436 C420 1.368 . S
C436 C432 1.368 1_556 S
C436 C435 1.523 . S
H437 C412 0.950 1_556 S
H438 C414 0.950 . S
H439 C415 0.949 . S
H440 C417 0.950 1_554 S
H441 C419 0.950 . S
C442 C443 1.349 . S
C442 C444 1.327 . S
C442 H467 0.950 . S
C443 C442 1.349 . S
C443 C459 1.349 . S
C444 C442 1.327 . S
C444 C463 1.429 . S
C444 H468 0.950 . S
C445 C462 1.574 . S
C445 C464 1.368 . S
C445 H469 0.949 . S
H446 C450 0.949 . S
C447 C448 1.349 . S
C447 C449 1.327 . S
C447 H470 0.950 . S
C448 C447 1.349 . S
C448 C460 1.349 . S
C449 C447 1.327 . S
C449 C465 1.429 . S
C449 H471 0.950 . S
C450 H446 0.949 . S
C450 C458 1.574 . S
C450 C466 1.368 . S
H451 C459 0.950 . S
H452 C457 0.950 . S
H453 C458 0.949 . S
H454 C460 0.950 . S
H455 C461 0.950 . S
H456 C462 0.949 . S
C457 H452 0.950 . S
C457 C459 1.327 . S
C457 C463 1.429 . S
C458 C450 1.574 . S
C458 H453 0.949 . S
C458 C464 1.368 . S
C459 C443 1.349 . S
C459 H451 0.950 . S
C459 C457 1.327 . S
C460 C448 1.349 . S
C460 H454 0.950 . S
C460 C461 1.327 . S
C461 H455 0.950 . S
C461 C460 1.327 . S
C461 C465 1.429 . S
C462 C445 1.574 . S
C462 H456 0.949 . S
C462 C466 1.368 . S
C463 C444 1.429 . S
C463 C457 1.429 . S
C463 C464 1.523 . S
C464 C445 1.368 . S
C464 C458 1.368 . S
C464 C463 1.523 . S
C465 C449 1.429 . S
C465 C461 1.429 . S
C465 C466 1.523 . S
C466 C450 1.368 . S
C466 C462 1.368 . S
C466 C465 1.523 . S
H467 C442 0.950 . S
H468 C444 0.950 . S
H469 C445 0.949 . S
H470 C447 0.950 . S
H471 C449 0.950 . S
C472 C473 1.349 . S
C472 C474 1.327 . S
C472 H497 0.950 . S
C473 C472 1.349 . S
C473 C489 1.349 . S
C474 C472 1.327 . S
C474 C493 1.429 . S
C474 H498 0.950 . S
C475 C492 1.574 . S
C475 C494 1.368 . S
C475 H499 0.949 . S
H476 C480 0.949 . S
C477 C478 1.349 . S
C477 C479 1.327 . S
C477 H500 0.950 1_556 S
C478 C477 1.349 . S
C478 C490 1.349 . S
C479 C477 1.327 . S
C479 C495 1.429 . S
C479 H501 0.950 . S
C480 H476 0.949 . S
C480 C488 1.574 . S
C480 C496 1.368 . S
H481 C489 0.950 . S
H482 C487 0.950 . S
H483 C488 0.949 . S
H484 C490 0.950 . S
H485 C491 0.950 . S
H486 C492 0.949 . S
C487 H482 0.950 . S
C487 C489 1.327 . S
C487 C493 1.429 . S
C488 C480 1.574 . S
C488 H483 0.949 . S
C488 C494 1.368 . S
C489 C473 1.349 . S
C489 H481 0.950 . S
C489 C487 1.327 . S
C490 C478 1.349 . S
C490 H484 0.950 . S
C490 C491 1.327 . S
C491 H485 0.950 . S
C491 C490 1.327 . S
C491 C495 1.429 . S
C492 C475 1.574 . S
C492 H486 0.949 . S
C492 C496 1.368 . S
C493 C474 1.429 . S
C493 C487 1.429 . S
C493 C494 1.523 . S
C494 C475 1.368 . S
C494 C488 1.368 . S
C494 C493 1.523 . S
C495 C479 1.429 . S
C495 C491 1.429 . S
C495 C496 1.523 . S
C496 C480 1.368 . S
C496 C492 1.368 . S
C496 C495 1.523 . S
H497 C472 0.950 . S
H498 C474 0.950 . S
H499 C475 0.949 . S
H500 C477 0.950 1_554 S
H501 C479 0.950 . S
C502 C503 1.349 . S
C502 C504 1.327 . S
C502 H527 0.950 . S
C503 C502 1.349 . S
C503 C519 1.349 . S
C504 C502 1.327 . S
C504 C523 1.429 . S
C504 H528 0.950 . S
C505 C522 1.574 . S
C505 C524 1.368 . S
C505 H529 0.949 . S
H506 C510 0.949 . S
C507 C508 1.349 . S
C507 C509 1.327 . S
C507 H530 0.950 . S
C508 C507 1.349 . S
C508 C520 1.349 . S
C509 C507 1.327 . S
C509 C525 1.429 . S
C509 H531 0.950 . S
C510 H506 0.949 . S
C510 C518 1.574 . S
C510 C526 1.368 . S
H511 C519 0.950 . S
H512 C517 0.950 . S
H513 C518 0.949 . S
H514 C520 0.950 . S
H515 C521 0.950 . S
H516 C522 0.949 . S
C517 H512 0.950 . S
C517 C519 1.327 . S
C517 C523 1.429 . S
C518 C510 1.574 . S
C518 H513 0.949 . S
C518 C524 1.368 . S
C519 C503 1.349 . S
C519 H511 0.950 . S
C519 C517 1.327 . S
C520 C508 1.349 . S
C520 H514 0.950 . S
C520 C521 1.327 . S
C521 H515 0.950 . S
C521 C520 1.327 . S
C521 C525 1.429 . S
C522 C505 1.574 . S
C522 H516 0.949 . S
C522 C526 1.368 . S
C523 C504 1.429 . S
C523 C517 1.429 . S
C523 C524 1.523 . S
C524 C505 1.368 . S
C524 C518 1.368 . S
C524 C523 1.523 . S
C525 C509 1.429 . S
C525 C521 1.429 . S
C525 C526 1.523 . S
C526 C510 1.368 . S
C526 C522 1.368 . S
C526 C525 1.523 . S
H527 C502 0.950 . S
H528 C504 0.950 . S
H529 C505 0.949 . S
H530 C507 0.950 . S
H531 C509 0.950 . S
C532 C533 1.349 . S
C532 C534 1.327 . S
C532 H557 0.950 . S
C533 C532 1.349 . S
C533 C549 1.349 . S
C534 C532 1.327 . S
C534 C553 1.429 . S
C534 H558 0.950 . S
C535 C552 1.574 . S
C535 C554 1.368 . S
C535 H559 0.949 . S
H536 C540 0.949 . S
C537 C538 1.349 . S
C537 C539 1.327 . S
C537 H560 0.950 1_554 S
C538 C537 1.349 . S
C538 C550 1.349 . S
C539 C537 1.327 . S
C539 C555 1.429 . S
C539 H561 0.950 . S
C540 H536 0.949 . S
C540 C548 1.574 . S
C540 C556 1.368 . S
H541 C549 0.950 . S
H542 C547 0.950 . S
H543 C548 0.949 . S
H544 C550 0.950 . S
H545 C551 0.950 . S
H546 C552 0.949 . S
C547 H542 0.950 . S
C547 C549 1.327 . S
C547 C553 1.429 . S
C548 C540 1.574 . S
C548 H543 0.949 . S
C548 C554 1.368 . S
C549 C533 1.349 . S
C549 H541 0.950 . S
C549 C547 1.327 . S
C550 C538 1.349 . S
C550 H544 0.950 . S
C550 C551 1.327 . S
C551 H545 0.950 . S
C551 C550 1.327 . S
C551 C555 1.429 . S
C552 C535 1.574 . S
C552 H546 0.949 . S
C552 C556 1.368 . S
C553 C534 1.429 . S
C553 C547 1.429 . S
C553 C554 1.523 . S
C554 C535 1.368 . S
C554 C548 1.368 . S
C554 C553 1.523 . S
C555 C539 1.429 . S
C555 C551 1.429 . S
C555 C556 1.523 . S
C556 C540 1.368 . S
C556 C552 1.368 . S
C556 C555 1.523 . S
H557 C532 0.950 . S
H558 C534 0.950 . S
H559 C535 0.949 . S
H560 C537 0.950 1_556 S
H561 C539 0.950 . S
C562 C563 1.349 . S
C562 C564 1.327 . S
C562 H587 0.950 . S
C563 C562 1.349 . S
C563 C579 1.349 . S
C564 C562 1.327 . S
C564 C583 1.429 . S
C564 H588 0.950 . S
C565 C582 1.574 . S
C565 C584 1.368 . S
C565 H589 0.949 . S
H566 C570 0.949 . S
C567 C568 1.349 . S
C567 C569 1.327 . S
C567 H590 0.950 . S
C568 C567 1.349 . S
C568 C580 1.349 . S
C569 C567 1.327 . S
C569 C585 1.429 . S
C569 H591 0.950 . S
C570 H566 0.949 . S
C570 C578 1.574 . S
C570 C586 1.368 . S
H571 C579 0.950 . S
H572 C577 0.950 . S
H573 C578 0.949 . S
H574 C580 0.950 . S
H575 C581 0.950 . S
H576 C582 0.949 . S
C577 H572 0.950 . S
C577 C579 1.327 . S
C577 C583 1.429 . S
C578 C570 1.574 . S
C578 H573 0.949 . S
C578 C584 1.368 . S
C579 C563 1.349 . S
C579 H571 0.950 . S
C579 C577 1.327 . S
C580 C568 1.349 . S
C580 H574 0.950 . S
C580 C581 1.327 . S
C581 H575 0.950 . S
C581 C580 1.327 . S
C581 C585 1.429 . S
C582 C565 1.574 . S
C582 H576 0.949 . S
C582 C586 1.368 . S
C583 C564 1.429 . S
C583 C577 1.429 . S
C583 C584 1.523 . S
C584 C565 1.368 . S
C584 C578 1.368 . S
C584 C583 1.523 . S
C585 C569 1.429 . S
C585 C581 1.429 . S
C585 C586 1.523 . S
C586 C570 1.368 . S
C586 C582 1.368 . S
C586 C585 1.523 . S
H587 C562 0.950 . S
H588 C564 0.950 . S
H589 C565 0.949 . S
H590 C567 0.950 . S
H591 C569 0.950 . S
C592 C593 1.349 . S
C592 C594 1.327 . S
C592 H617 0.950 . S
C593 C592 1.349 . S
C593 C609 1.349 . S
C594 C592 1.327 . S
C594 C613 1.429 . S
C594 H618 0.950 . S
C595 C612 1.574 1_565 S
C595 C614 1.368 . S
C595 H619 0.949 1_565 S
H596 C600 0.949 . S
C597 C598 1.349 . S
C597 C599 1.327 . S
C597 H620 0.950 . S
C598 C597 1.349 . S
C598 C610 1.349 . S
C599 C597 1.327 . S
C599 C615 1.429 . S
C599 H621 0.950 . S
C600 H596 0.949 . S
C600 C608 1.574 . S
C600 C616 1.368 1_565 S
H601 C609 0.950 1_554 S
H602 C607 0.950 . S
H603 C608 0.949 . S
H604 C610 0.950 . S
H605 C611 0.950 1_565 S
H606 C612 0.949 . S
C607 H602 0.950 . S
C607 C609 1.327 . S
C607 C613 1.429 . S
C608 C600 1.574 . S
C608 H603 0.949 . S
C608 C614 1.368 . S
C609 C593 1.349 . S
C609 H601 0.950 1_556 S
C609 C607 1.327 . S
C610 C598 1.349 . S
C610 H604 0.950 . S
C610 C611 1.327 . S
C611 H605 0.950 1_545 S
C611 C610 1.327 . S
C611 C615 1.429 . S
C612 C595 1.574 1_545 S
C612 H606 0.949 . S
C612 C616 1.368 . S
C613 C594 1.429 . S
C613 C607 1.429 . S
C613 C614 1.523 . S
C614 C595 1.368 . S
C614 C608 1.368 . S
C614 C613 1.523 . S
C615 C599 1.429 . S
C615 C611 1.429 . S
C615 C616 1.523 . S
C616 C600 1.368 1_545 S
C616 C612 1.368 . S
C616 C615 1.523 . S
H617 C592 0.950 . S
H618 C594 0.950 . S
H619 C595 0.949 1_545 S
H620 C597 0.950 . S
H621 C599 0.950 . S
C622 C623 1.349 . S
C622 C624 1.327 . S
C622 H647 0.950 . S
C623 C622 1.349 . S
C623 C639 1.349 . S
C624 C622 1.327 . S
C624 C643 1.429 . S
C624 H648 0.950 . S
C625 C642 1.574 . S
C625 C644 1.368 1_565 S
C625 H649 0.949 . S
H626 C630 0.963 . S
C627 C628 1.349 . S
C627 C629 1.327 . S
C627 H650 0.950 . S
C628 C627 1.349 . S
C628 C640 1.349 . S
C629 C627 1.327 . S
C629 C645 1.429 . S
C629 H651 0.950 . S
C630 H626 0.963 . S
C630 C638 1.574 1_565 S
C630 C646 1.368 . S
H631 C639 0.950 . S
H632 C637 0.950 1_565 S
H633 C638 0.949 . S
H634 C640 0.950 . S
H635 C641 0.950 . S
H636 C642 0.949 . S
C637 H632 0.950 1_545 S
C637 C639 1.327 . S
C637 C643 1.429 . S
C638 C630 1.574 1_545 S
C638 H633 0.949 . S
C638 C644 1.368 . S
C639 C623 1.349 . S
C639 H631 0.950 . S
C639 C637 1.327 . S
C640 C628 1.349 . S
C640 H634 0.950 . S
C640 C641 1.327 . S
C641 H635 0.950 . S
C641 C640 1.327 . S
C641 C645 1.429 . S
C642 C625 1.574 . S
C642 H636 0.949 . S
C642 C646 1.368 . S
C643 C624 1.429 . S
C643 C637 1.429 . S
C643 C644 1.523 . S
C644 C625 1.368 1_545 S
C644 C638 1.368 . S
C644 C643 1.523 . S
C645 C629 1.429 . S
C645 C641 1.429 . S
C645 C646 1.523 . S
C646 C630 1.368 . S
C646 C642 1.368 . S
C646 C645 1.523 . S
H647 C622 0.950 . S
H648 C624 0.950 . S
H649 C625 0.949 . S
H650 C627 0.950 . S
H651 C629 0.950 . S
C652 C653 1.349 . S
C652 C654 1.327 . S
C652 H677 0.950 . S
C653 C652 1.349 . S
C653 C669 1.349 . S
C654 C652 1.327 . S
C654 C673 1.429 . S
C654 H678 0.950 . S
C655 C672 1.574 1_565 S
C655 C674 1.368 . S
C655 H679 0.949 . S
H656 C660 0.949 . S
C657 C658 1.349 . S
C657 C659 1.327 . S
C657 H680 0.950 1_554 S
C658 C657 1.349 . S
C658 C670 1.349 . S
C659 C657 1.327 . S
C659 C675 1.429 . S
C659 H681 0.950 . S
C660 H656 0.949 . S
C660 C668 1.574 . S
C660 C676 1.368 . S
H661 C669 0.950 . S
H662 C667 0.950 . S
H663 C668 0.949 . S
H664 C670 0.950 . S
H665 C671 0.950 . S
H666 C672 0.949 . S
C667 H662 0.950 . S
C667 C669 1.327 . S
C667 C673 1.429 . S
C668 C660 1.574 . S
C668 H663 0.949 . S
C668 C674 1.368 1_545 S
C669 C653 1.349 . S
C669 H661 0.950 . S
C669 C667 1.327 . S
C670 C658 1.349 . S
C670 H664 0.950 . S
C670 C671 1.327 . S
C671 H665 0.950 . S
C671 C670 1.327 . S
C671 C675 1.429 . S
C672 C655 1.574 1_545 S
C672 H666 0.949 . S
C672 C676 1.368 . S
C673 C654 1.429 . S
C673 C667 1.429 . S
C673 C674 1.523 . S
C674 C655 1.368 . S
C674 C668 1.368 1_565 S
C674 C673 1.523 . S
C675 C659 1.429 . S
C675 C671 1.429 . S
C675 C676 1.523 . S
C676 C660 1.368 . S
C676 C672 1.368 . S
C676 C675 1.523 . S
H677 C652 0.950 . S
H678 C654 0.950 . S
H679 C655 0.949 . S
H680 C657 0.950 1_556 S
H681 C659 0.950 . S
C682 C683 1.349 . S
C682 C684 1.327 . S
C682 H707 0.950 . S
C683 C682 1.349 . S
C683 C699 1.349 . S
C684 C682 1.327 . S
C684 C703 1.429 . S
C684 H708 0.950 . S
C685 C702 1.574 1_565 S
C685 C704 1.368 . S
C685 H709 0.949 . S
H686 C690 0.949 . S
C687 C688 1.349 . S
C687 C689 1.327 . S
C687 H710 0.950 . S
C688 C687 1.349 . S
C688 C700 1.349 . S
C689 C687 1.327 . S
C689 C705 1.429 . S
C689 H711 0.950 . S
C690 H686 0.949 . S
C690 C698 1.574 . S
C690 C706 1.368 . S
H691 C699 0.950 . S
H692 C697 0.950 . S
H693 C698 0.949 . S
H694 C700 0.950 . S
H695 C701 0.950 . S
H696 C702 0.949 . S
C697 H692 0.950 . S
C697 C699 1.327 . S
C697 C703 1.429 . S
C698 C690 1.574 . S
C698 H693 0.949 . S
C698 C704 1.368 1_545 S
C699 C683 1.349 . S
C699 H691 0.950 . S
C699 C697 1.327 . S
C700 C688 1.349 . S
C700 H694 0.950 . S
C700 C701 1.327 . S
C701 H695 0.950 . S
C701 C700 1.327 . S
C701 C705 1.429 . S
C702 C685 1.574 1_545 S
C702 H696 0.949 . S
C702 C706 1.368 . S
C703 C684 1.429 . S
C703 C697 1.429 . S
C703 C704 1.523 . S
C704 C685 1.368 . S
C704 C698 1.368 1_565 S
C704 C703 1.523 . S
C705 C689 1.429 . S
C705 C701 1.429 . S
C705 C706 1.523 . S
C706 C690 1.368 . S
C706 C702 1.368 . S
C706 C705 1.523 . S
H707 C682 0.950 . S
H708 C684 0.950 . S
H709 C685 0.949 . S
H710 C687 0.950 . S
H711 C689 0.950 . S
C712 C713 1.349 . S
C712 C714 1.327 . S
C712 H737 0.950 . S
C713 C712 1.349 . S
C713 C729 1.349 . S
C714 C712 1.327 . S
C714 C733 1.429 . S
C714 H738 0.950 . S
C715 C732 1.574 1_655 S
C715 C734 1.368 1_554 S
C715 H739 0.949 . S
H716 C720 0.949 . S
C717 C718 1.349 . S
C717 C719 1.327 . S
C717 H740 0.950 . S
C718 C717 1.349 . S
C718 C730 1.349 . S
C719 C717 1.327 . S
C719 C735 1.429 . S
C719 H741 0.950 . S
C720 H716 0.949 . S
C720 C728 1.574 1_455 S
C720 C736 1.368 1_556 S
H721 C729 0.950 . S
H722 C727 0.950 . S
H723 C728 0.949 . S
H724 C730 0.950 . S
H725 C731 0.950 . S
H726 C732 0.949 . S
C727 H722 0.950 . S
C727 C729 1.327 . S
C727 C733 1.429 . S
C728 C720 1.574 1_655 S
C728 H723 0.949 . S
C728 C734 1.368 . S
C729 C713 1.349 . S
C729 H721 0.950 . S
C729 C727 1.327 . S
C730 C718 1.349 . S
C730 H724 0.950 . S
C730 C731 1.327 . S
C731 H725 0.950 . S
C731 C730 1.327 . S
C731 C735 1.429 . S
C732 C715 1.574 1_455 S
C732 H726 0.949 . S
C732 C736 1.368 . S
C733 C714 1.429 . S
C733 C727 1.429 . S
C733 C734 1.523 . S
C734 C715 1.368 1_556 S
C734 C728 1.368 . S
C734 C733 1.523 . S
C735 C719 1.429 . S
C735 C731 1.429 . S
C735 C736 1.523 . S
C736 C720 1.368 1_554 S
C736 C732 1.368 . S
C736 C735 1.523 . S
H737 C712 0.950 . S
H738 C714 0.950 . S
H739 C715 0.949 . S
H740 C717 0.950 . S
H741 C719 0.950 . S
C742 C743 1.349 . S
C742 C744 1.327 . S
C742 H767 0.950 . S
C743 C742 1.349 . S
C743 C759 1.349 . S
C744 C742 1.327 . S
C744 C763 1.429 . S
C744 H768 0.950 . S
C745 C762 1.574 . S
C745 C764 1.368 1_655 S
C745 H769 0.949 . S
H746 C750 0.949 . S
C747 C748 1.349 . S
C747 C749 1.327 . S
C747 H770 0.950 . S
C748 C747 1.349 . S
C748 C760 1.349 . S
C749 C747 1.327 . S
C749 C765 1.429 . S
C749 H771 0.950 . S
C750 H746 0.949 . S
C750 C758 1.574 . S
C750 C766 1.368 1_455 S
H751 C759 0.950 . S
H752 C757 0.950 . S
H753 C758 0.949 . S
H754 C760 0.950 . S
H755 C761 0.950 . S
H756 C762 0.949 . S
C757 H752 0.950 . S
C757 C759 1.327 . S
C757 C763 1.429 . S
C758 C750 1.574 . S
C758 H753 0.949 . S
C758 C764 1.368 . S
C759 C743 1.349 . S
C759 H751 0.950 . S
C759 C757 1.327 . S
C760 C748 1.349 . S
C760 H754 0.950 . S
C760 C761 1.327 . S
C761 H755 0.950 . S
C761 C760 1.327 . S
C761 C765 1.429 . S
C762 C745 1.574 . S
C762 H756 0.949 . S
C762 C766 1.368 . S
C763 C744 1.429 . S
C763 C757 1.429 . S
C763 C764 1.523 . S
C764 C745 1.368 1_455 S
C764 C758 1.368 . S
C764 C763 1.523 . S
C765 C749 1.429 . S
C765 C761 1.429 . S
C765 C766 1.523 . S
C766 C750 1.368 1_655 S
C766 C762 1.368 . S
C766 C765 1.523 . S
H767 C742 0.950 . S
H768 C744 0.950 . S
H769 C745 0.949 . S
H770 C747 0.950 . S
H771 C749 0.950 . S
C772 C773 1.349 . S
C772 C774 1.327 . S
C772 H797 0.950 . S
C773 C772 1.349 . S
C773 C789 1.349 . S
C774 C772 1.327 . S
C774 C793 1.429 . S
C774 H798 0.950 . S
C775 C792 1.576 . S
C775 C794 1.368 1_554 S
C775 H799 0.949 . S
H776 C780 0.949 . S
C777 C778 1.349 . S
C777 C779 1.327 . S
C777 H800 0.950 . S
C778 C777 1.349 . S
C778 C790 1.349 . S
C779 C777 1.327 . S
C779 C795 1.429 . S
C779 H801 0.950 . S
C780 H776 0.949 . S
C780 C788 1.576 . S
C780 C796 1.368 1_556 S
H781 C789 0.950 . S
H782 C787 0.950 . S
H783 C788 0.949 1_545 S
H784 C790 0.950 . S
H785 C791 0.950 . S
H786 C792 0.949 1_565 S
C787 H782 0.950 . S
C787 C789 1.327 . S
C787 C793 1.429 . S
C788 C780 1.576 . S
C788 H783 0.949 1_565 S
C788 C794 1.366 1_565 S
C789 C773 1.349 . S
C789 H781 0.950 . S
C789 C787 1.327 . S
C790 C778 1.349 . S
C790 H784 0.950 . S
C790 C791 1.327 . S
C791 H785 0.950 . S
C791 C790 1.327 . S
C791 C795 1.429 . S
C792 C775 1.576 . S
C792 H786 0.949 1_545 S
C792 C796 1.366 1_545 S
C793 C774 1.429 . S
C793 C787 1.429 . S
C793 C794 1.523 . S
C794 C775 1.368 1_556 S
C794 C788 1.366 1_545 S
C794 C793 1.523 . S
C795 C779 1.429 . S
C795 C791 1.429 . S
C795 C796 1.523 . S
C796 C780 1.368 1_554 S
C796 C792 1.366 1_565 S
C796 C795 1.523 . S
H797 C772 0.950 . S
H798 C774 0.950 . S
H799 C775 0.949 . S
H800 C777 0.950 . S
H801 C779 0.950 . S
C802 C803 1.349 . S
C802 C804 1.327 . S
C802 H827 0.950 . S
C803 C802 1.349 . S
C803 C819 1.349 . S
C804 C802 1.327 . S
C804 C823 1.429 . S
C804 H828 0.950 . S
C805 C822 1.574 . S
C805 C824 1.368 . S
C805 H829 0.949 . S
H806 C810 0.949 . S
C807 C808 1.349 . S
C807 C809 1.327 . S
C807 H830 0.950 . S
C808 C807 1.349 . S
C808 C820 1.349 . S
C809 C807 1.327 . S
C809 C825 1.429 . S
C809 H831 0.950 . S
C810 H806 0.949 . S
C810 C818 1.574 . S
C810 C826 1.368 . S
H811 C819 0.950 . S
H812 C817 0.950 . S
H813 C818 0.949 . S
H814 C820 0.950 . S
H815 C821 0.950 . S
H816 C822 0.949 . S
C817 H812 0.950 . S
C817 C819 1.327 . S
C817 C823 1.429 . S
C818 C810 1.574 . S
C818 H813 0.949 . S
C818 C824 1.368 1_545 S
C819 C803 1.349 . S
C819 H811 0.950 . S
C819 C817 1.327 . S
C820 C808 1.349 . S
C820 H814 0.950 . S
C820 C821 1.327 . S
C821 H815 0.950 . S
C821 C820 1.327 . S
C821 C825 1.429 . S
C822 C805 1.574 . S
C822 H816 0.949 . S
C822 C826 1.368 1_565 S
C823 C804 1.429 . S
C823 C817 1.429 . S
C823 C824 1.523 . S
C824 C805 1.368 . S
C824 C818 1.368 1_565 S
C824 C823 1.523 . S
C825 C809 1.429 . S
C825 C821 1.429 . S
C825 C826 1.523 . S
C826 C810 1.368 . S
C826 C822 1.368 1_545 S
C826 C825 1.523 . S
H827 C802 0.950 . S
H828 C804 0.950 . S
H829 C805 0.949 . S
H830 C807 0.950 . S
H831 C809 0.950 . S
C832 C833 1.349 . S
C832 C834 1.327 . S
C832 H857 0.950 . S
C833 C832 1.349 . S
C833 C849 1.349 . S
C834 C832 1.327 . S
C834 C853 1.429 . S
C834 H858 0.950 . S
C835 C852 1.574 . S
C835 C854 1.368 . S
C835 H859 0.949 . S
H836 C840 0.949 . S
C837 C838 1.349 . S
C837 C839 1.327 . S
C837 H860 0.950 . S
C838 C837 1.349 . S
C838 C850 1.349 . S
C839 C837 1.327 . S
C839 C855 1.429 . S
C839 H861 0.950 . S
C840 H836 0.949 . S
C840 C848 1.574 . S
C840 C856 1.368 . S
H841 C849 0.950 . S
H842 C847 0.950 . S
H843 C848 0.949 . S
H844 C850 0.950 . S
H845 C851 0.950 . S
H846 C852 0.949 . S
C847 H842 0.950 . S
C847 C849 1.327 . S
C847 C853 1.429 . S
C848 C840 1.574 . S
C848 H843 0.949 . S
C848 C854 1.368 1_455 S
C849 C833 1.349 . S
C849 H841 0.950 . S
C849 C847 1.327 . S
C850 C838 1.349 . S
C850 H844 0.950 . S
C850 C851 1.327 . S
C851 H845 0.950 . S
C851 C850 1.327 . S
C851 C855 1.429 . S
C852 C835 1.574 . S
C852 H846 0.949 . S
C852 C856 1.368 1_655 S
C853 C834 1.429 . S
C853 C847 1.429 . S
C853 C854 1.523 . S
C854 C835 1.368 . S
C854 C848 1.368 1_655 S
C854 C853 1.523 . S
C855 C839 1.429 . S
C855 C851 1.429 . S
C855 C856 1.523 . S
C856 C840 1.368 . S
C856 C852 1.368 1_455 S
C856 C855 1.523 . S
H857 C832 0.950 . S
H858 C834 0.950 . S
H859 C835 0.949 . S
H860 C837 0.950 . S
H861 C839 0.950 . S
C862 C863 1.349 . S
C862 C864 1.327 . S
C862 H887 0.950 . S
C863 C862 1.349 . S
C863 C879 1.349 . S
C864 C862 1.327 . S
C864 C883 1.429 . S
C864 H888 0.950 . S
C865 C882 1.574 . S
C865 C884 1.368 . S
C865 H889 0.949 . S
H866 C870 0.949 . S
C867 C868 1.349 . S
C867 C869 1.327 . S
C867 H890 0.950 . S
C868 C867 1.349 . S
C868 C880 1.349 . S
C869 C867 1.327 . S
C869 C885 1.429 . S
C869 H891 0.950 . S
C870 H866 0.949 . S
C870 C878 1.574 . S
C870 C886 1.368 . S
H871 C879 0.950 . S
H872 C877 0.950 . S
H873 C878 0.949 . S
H874 C880 0.950 . S
H875 C881 0.950 . S
H876 C882 0.949 . S
C877 H872 0.950 . S
C877 C879 1.327 . S
C877 C883 1.429 . S
C878 C870 1.574 . S
C878 H873 0.949 . S
C878 C884 1.368 1_655 S
C879 C863 1.349 . S
C879 H871 0.950 . S
C879 C877 1.327 . S
C880 C868 1.349 . S
C880 H874 0.950 . S
C880 C881 1.327 . S
C881 H875 0.950 . S
C881 C880 1.327 . S
C881 C885 1.429 . S
C882 C865 1.574 . S
C882 H876 0.949 . S
C882 C886 1.368 1_455 S
C883 C864 1.429 . S
C883 C877 1.429 . S
C883 C884 1.523 . S
C884 C865 1.368 . S
C884 C878 1.368 1_455 S
C884 C883 1.523 . S
C885 C869 1.429 . S
C885 C881 1.429 . S
C885 C886 1.523 . S
C886 C870 1.368 . S
C886 C882 1.368 1_655 S
C886 C885 1.523 . S
H887 C862 0.950 . S
H888 C864 0.950 . S
H889 C865 0.949 . S
H890 C867 0.950 . S
H891 C869 0.950 . S
C892 C893 1.349 . S
C892 C894 1.327 . S
C892 H917 0.950 . S
C893 C892 1.349 . S
C893 C909 1.349 . S
C894 C892 1.327 . S
C894 C913 1.429 . S
C894 H918 0.950 . S
C895 C912 1.574 . S
C895 C914 1.368 . S
C895 H919 0.949 . S
H896 C900 0.949 . S
C897 C898 1.349 . S
C897 C899 1.327 . S
C897 H920 0.950 . S
C898 C897 1.349 . S
C898 C910 1.349 . S
C899 C897 1.327 . S
C899 C915 1.429 . S
C899 H921 0.950 . S
C900 H896 0.949 . S
C900 C908 1.574 . S
C900 C916 1.368 . S
H901 C909 0.950 . S
H902 C907 0.950 . S
H903 C908 0.949 . S
H904 C910 0.950 . S
H905 C911 0.950 . S
H906 C912 0.949 . S
C907 H902 0.950 . S
C907 C909 1.327 . S
C907 C913 1.429 . S
C908 C900 1.574 . S
C908 H903 0.949 . S
C908 C914 1.368 . S
C909 C893 1.349 . S
C909 H901 0.950 . S
C909 C907 1.327 . S
C910 C898 1.349 . S
C910 H904 0.950 . S
C910 C911 1.327 . S
C911 H905 0.950 . S
C911 C910 1.327 . S
C911 C915 1.429 . S
C912 C895 1.574 . S
C912 H906 0.949 . S
C912 C916 1.368 . S
C913 C894 1.429 . S
C913 C907 1.429 . S
C913 C914 1.523 . S
C914 C895 1.368 . S
C914 C908 1.368 . S
C914 C913 1.523 . S
C915 C899 1.429 . S
C915 C911 1.429 . S
C915 C916 1.523 . S
C916 C900 1.368 . S
C916 C912 1.368 . S
C916 C915 1.523 . S
H917 C892 0.950 . S
H918 C894 0.950 . S
H919 C895 0.949 . S
H920 C897 0.950 . S
H921 C899 0.950 . S
C922 C923 1.349 . S
C922 C924 1.327 . S
C922 H947 0.950 . S
C923 C922 1.349 . S
C923 C939 1.349 . S
C924 C922 1.327 . S
C924 C943 1.429 . S
C924 H948 0.950 . S
C925 C942 1.574 . S
C925 C944 1.368 . S
C925 H949 0.949 . S
H926 C930 0.949 . S
C927 C928 1.349 . S
C927 C929 1.327 . S
C927 H950 0.950 . S
C928 C927 1.349 . S
C928 C940 1.349 . S
C929 C927 1.327 . S
C929 C945 1.429 . S
C929 H951 0.950 . S
C930 H926 0.949 . S
C930 C938 1.574 . S
C930 C946 1.368 . S
H931 C939 0.950 . S
H932 C937 0.950 . S
H933 C938 0.949 . S
H934 C940 0.950 . S
H935 C941 0.950 . S
H936 C942 0.949 . S
C937 H932 0.950 . S
C937 C939 1.327 . S
C937 C943 1.429 . S
C938 C930 1.574 . S
C938 H933 0.949 . S
C938 C944 1.368 . S
C939 C923 1.349 . S
C939 H931 0.950 . S
C939 C937 1.327 . S
C940 C928 1.349 . S
C940 H934 0.950 . S
C940 C941 1.327 . S
C941 H935 0.950 . S
C941 C940 1.327 . S
C941 C945 1.429 . S
C942 C925 1.574 . S
C942 H936 0.949 . S
C942 C946 1.368 . S
C943 C924 1.429 . S
C943 C937 1.429 . S
C943 C944 1.523 . S
C944 C925 1.368 . S
C944 C938 1.368 . S
C944 C943 1.523 . S
C945 C929 1.429 . S
C945 C941 1.429 . S
C945 C946 1.523 . S
C946 C930 1.368 . S
C946 C942 1.368 . S
C946 C945 1.523 . S
H947 C922 0.950 . S
H948 C924 0.950 . S
H949 C925 0.949 . S
H950 C927 0.950 . S
H951 C929 0.950 . S
C952 C953 1.349 . S
C952 C954 1.327 . S
C952 H977 0.950 . S
C953 C952 1.349 . S
C953 C969 1.349 . S
C954 C952 1.327 . S
C954 C973 1.429 . S
C954 H978 0.950 . S
C955 C972 1.574 . S
C955 C974 1.368 . S
C955 H979 0.949 . S
H956 C960 0.949 . S
C957 C958 1.349 . S
C957 C959 1.327 . S
C957 H980 0.950 . S
C958 C957 1.349 . S
C958 C970 1.349 . S
C959 C957 1.327 . S
C959 C975 1.429 . S
C959 H981 0.950 . S
C960 H956 0.949 . S
C960 C968 1.574 . S
C960 C976 1.368 . S
H961 C969 0.950 . S
H962 C967 0.950 . S
H963 C968 0.949 . S
H964 C970 0.950 . S
H965 C971 0.950 . S
H966 C972 0.949 . S
C967 H962 0.950 . S
C967 C969 1.327 . S
C967 C973 1.429 . S
C968 C960 1.574 . S
C968 H963 0.949 . S
C968 C974 1.368 1_655 S
C969 C953 1.349 . S
C969 H961 0.950 . S
C969 C967 1.327 . S
C970 C958 1.349 . S
C970 H964 0.950 . S
C970 C971 1.327 . S
C971 H965 0.950 . S
C971 C970 1.327 . S
C971 C975 1.429 . S
C972 C955 1.574 . S
C972 H966 0.949 . S
C972 C976 1.368 1_455 S
C973 C954 1.429 . S
C973 C967 1.429 . S
C973 C974 1.523 . S
C974 C955 1.368 . S
C974 C968 1.368 1_455 S
C974 C973 1.523 . S
C975 C959 1.429 . S
C975 C971 1.429 . S
C975 C976 1.523 . S
C976 C960 1.368 . S
C976 C972 1.368 1_655 S
C976 C975 1.523 . S
H977 C952 0.950 . S
H978 C954 0.950 . S
H979 C955 0.949 . S
H980 C957 0.950 . S
H981 C959 0.950 . S
C982 C983 1.349 . S
C982 C984 1.327 . S
C982 H1007 0.950 . S
C983 C982 1.349 . S
C983 C999 1.349 . S
C984 C982 1.327 . S
C984 C1003 1.429 . S
C984 H1008 0.950 . S
C985 C1002 1.574 . S
C985 C1004 1.368 1_655 S
C985 H1009 0.949 . S
H986 C990 0.949 . S
C987 C988 1.349 . S
C987 C989 1.327 . S
C987 H1010 0.950 . S
C988 C987 1.349 . S
C988 C1000 1.349 . S
C989 C987 1.327 . S
C989 C1005 1.429 . S
C989 H1011 0.950 . S
C990 H986 0.949 . S
C990 C998 1.574 . S
C990 C1006 1.368 1_455 S
H991 C999 0.950 . S
H992 C997 0.950 . S
H993 C998 0.949 . S
H994 C1000 0.950 . S
H995 C1001 0.950 . S
H996 C1002 0.949 . S
C997 H992 0.950 . S
C997 C999 1.327 . S
C997 C1003 1.429 . S
C998 C990 1.574 . S
C998 H993 0.949 . S
C998 C1004 1.368 . S
C999 C983 1.349 . S
C999 H991 0.950 . S
C999 C997 1.327 . S
C1000 C988 1.349 . S
C1000 H994 0.950 . S
C1000 C1001 1.327 . S
C1001 H995 0.950 . S
C1001 C1000 1.327 . S
C1001 C1005 1.429 . S
C1002 C985 1.574 . S
C1002 H996 0.949 . S
C1002 C1006 1.368 . S
C1003 C984 1.429 . S
C1003 C997 1.429 . S
C1003 C1004 1.523 . S
C1004 C985 1.368 1_455 S
C1004 C998 1.368 . S
C1004 C1003 1.523 . S
C1005 C989 1.429 . S
C1005 C1001 1.429 . S
C1005 C1006 1.523 . S
C1006 C990 1.368 1_655 S
C1006 C1002 1.368 . S
C1006 C1005 1.523 . S
H1007 C982 0.950 . S
H1008 C984 0.950 . S
H1009 C985 0.949 . S
H1010 C987 0.950 . S
H1011 C989 0.950 . S
C1012 C1013 1.349 . S
C1012 C1014 1.327 . S
C1012 H1037 0.950 . S
C1013 C1012 1.349 . S
C1013 C1029 1.349 . S
C1014 C1012 1.327 . S
C1014 C1033 1.429 . S
C1014 H1038 0.950 . S
C1015 C1032 1.574 . S
C1015 C1034 1.368 . S
C1015 H1039 0.949 . S
H1016 C1020 0.949 . S
C1017 C1018 1.349 . S
C1017 C1019 1.327 . S
C1017 H1040 0.950 . S
C1018 C1017 1.349 . S
C1018 C1030 1.349 . S
C1019 C1017 1.327 . S
C1019 C1035 1.429 . S
C1019 H1041 0.950 . S
C1020 H1016 0.949 . S
C1020 C1028 1.574 . S
C1020 C1036 1.368 . S
H1021 C1029 0.950 . S
H1022 C1027 0.950 . S
H1023 C1028 0.949 . S
H1024 C1030 0.950 . S
H1025 C1031 0.950 . S
H1026 C1032 0.949 . S
C1027 H1022 0.950 . S
C1027 C1029 1.327 . S
C1027 C1033 1.429 . S
C1028 C1020 1.574 . S
C1028 H1023 0.949 . S
C1028 C1034 1.368 . S
C1029 C1013 1.349 . S
C1029 H1021 0.950 . S
C1029 C1027 1.327 . S
C1030 C1018 1.349 . S
C1030 H1024 0.950 . S
C1030 C1031 1.327 . S
C1031 H1025 0.950 . S
C1031 C1030 1.327 . S
C1031 C1035 1.429 . S
C1032 C1015 1.574 . S
C1032 H1026 0.949 . S
C1032 C1036 1.368 . S
C1033 C1014 1.429 . S
C1033 C1027 1.429 . S
C1033 C1034 1.523 . S
C1034 C1015 1.368 . S
C1034 C1028 1.368 . S
C1034 C1033 1.523 . S
C1035 C1019 1.429 . S
C1035 C1031 1.429 . S
C1035 C1036 1.523 . S
C1036 C1020 1.368 . S
C1036 C1032 1.368 . S
C1036 C1035 1.523 . S
H1037 C1012 0.950 . S
H1038 C1014 0.950 . S
H1039 C1015 0.949 . S
H1040 C1017 0.950 . S
H1041 C1019 0.950 . S
C1042 C1043 1.349 . S
C1042 C1044 1.327 . S
C1042 H1067 0.950 . S
C1043 C1042 1.349 . S
C1043 C1059 1.349 . S
C1044 C1042 1.327 . S
C1044 C1063 1.429 . S
C1044 H1068 0.950 . S
C1045 C1062 1.574 . S
C1045 C1064 1.368 . S
C1045 H1069 0.949 . S
H1046 C1050 0.949 . S
C1047 C1048 1.349 . S
C1047 C1049 1.327 . S
C1047 H1070 0.950 . S
C1048 C1047 1.349 . S
C1048 C1060 1.349 . S
C1049 C1047 1.327 . S
C1049 C1065 1.429 . S
C1049 H1071 0.950 . S
C1050 H1046 0.949 . S
C1050 C1058 1.574 . S
C1050 C1066 1.368 . S
H1051 C1059 0.950 . S
H1052 C1057 0.950 . S
H1053 C1058 0.949 . S
H1054 C1060 0.950 . S
H1055 C1061 0.950 . S
H1056 C1062 0.949 . S
C1057 H1052 0.950 . S
C1057 C1059 1.327 . S
C1057 C1063 1.429 . S
C1058 C1050 1.574 . S
C1058 H1053 0.949 . S
C1058 C1064 1.368 . S
C1059 C1043 1.349 . S
C1059 H1051 0.950 . S
C1059 C1057 1.327 . S
C1060 C1048 1.349 . S
C1060 H1054 0.950 . S
C1060 C1061 1.327 . S
C1061 H1055 0.950 . S
C1061 C1060 1.327 . S
C1061 C1065 1.429 . S
C1062 C1045 1.574 . S
C1062 H1056 0.949 . S
C1062 C1066 1.368 . S
C1063 C1044 1.429 . S
C1063 C1057 1.429 . S
C1063 C1064 1.523 . S
C1064 C1045 1.368 . S
C1064 C1058 1.368 . S
C1064 C1063 1.523 . S
C1065 C1049 1.429 . S
C1065 C1061 1.429 . S
C1065 C1066 1.523 . S
C1066 C1050 1.368 . S
C1066 C1062 1.368 . S
C1066 C1065 1.523 . S
H1067 C1042 0.950 . S
H1068 C1044 0.950 . S
H1069 C1045 0.949 . S
H1070 C1047 0.950 . S
H1071 C1049 0.950 . S
C233 C42 3.419 . S
C238 C13 3.419 . S
C263 C100 3.419 . S
C268 C71 3.419 . S
C293 C129 3.419 . S
C298 C158 3.419 . S
C323 C216 3.419 . S
C328 C187 3.419 . S
C353 C189 2.444 . S
C358 C15 2.444 . S
C383 C44 2.444 . S
C388 C218 2.444 . S
C413 C131 2.444 . S
C418 C73 2.444 . S
C443 C102 2.444 . S
C448 C160 2.444 . S
C473 C90 1.983 . S
C478 C10 1.894 1_556 S
C503 C61 1.983 . S
C508 C39 1.894 . S
C533 C32 1.983 . S
C538 C68 1.894 1_554 S
C563 C97 1.894 . S
C568 C3 1.983 . S
C593 C126 1.894 1_556 S
C598 C206 1.983 . S
C623 C177 1.983 . S
C628 C155 1.894 . S
C653 C148 1.983 . S
C658 C184 1.894 1_554 S
C683 C119 1.983 . S
C688 C213 1.894 . S
C713 C79 1.155 . S
C718 C21 1.155 . S
C743 C108 1.155 . S
C748 C50 1.155 . S
C773 C195 1.155 . S
C778 C137 1.155 . S
C803 C166 1.155 . S
C808 C224 1.155 . S
C833 C37 0.899 . S
C838 C8 0.899 . S
C863 C95 0.899 . S
C868 C66 0.899 . S
C893 C124 0.899 . S
C898 C153 0.899 . S
C923 C182 0.899 . S
C928 C211 0.899 . S
C953 C5 2.463 . S
C958 C34 2.463 . S
C983 C92 2.463 . S
C988 C63 2.463 . S
C1013 C150 2.463 . S
C1018 C121 2.463 . S
C1043 C179 2.463 . S
C1048 C208 2.463 . S
