# Generated by pormake.
# Topology whp, (6)-cn, num edge types: 1
# Building blocks:
#     Node 0, Type 0, BuildingBlock: VOLQOD_clean_sbu_1, # of connection points: 6
#     Node 1, Type 0, BuildingBlock: VOLQOD_clean_sbu_1, # of connection points: 6
#     Node 2, Type 0, BuildingBlock: VOLQOD_clean_sbu_1, # of connection points: 6
#     Node 3, Type 0, BuildingBlock: VOLQOD_clean_sbu_1, # of connection points: 6
#     Node 4, Type 0, BuildingBlock: VOLQOD_clean_sbu_1, # of connection points: 6
#     Node 5, Type 0, BuildingBlock: VOLQOD_clean_sbu_1, # of connection points: 6
#     Node 6, Type 0, BuildingBlock: VOLQOD_clean_sbu_1, # of connection points: 6
#     Node 7, Type 0, BuildingBlock: VOLQOD_clean_sbu_1, # of connection points: 6
#     Node 8, Type 0, BuildingBlock: VOLQOD_clean_sbu_1, # of connection points: 6
#     Node 9, Type 0, BuildingBlock: VOLQOD_clean_sbu_1, # of connection points: 6
#     Node 10, Type 0, BuildingBlock: VOLQOD_clean_sbu_1, # of connection points: 6
#     Node 11, Type 0, BuildingBlock: VOLQOD_clean_sbu_1, # of connection points: 6
#     Node 12, Type 0, BuildingBlock: VOLQOD_clean_sbu_1, # of connection points: 6
#     Node 13, Type 0, BuildingBlock: VOLQOD_clean_sbu_1, # of connection points: 6
#     Node 14, Type 0, BuildingBlock: VOLQOD_clean_sbu_1, # of connection points: 6
#     Node 15, Type 0, BuildingBlock: VOLQOD_clean_sbu_1, # of connection points: 6
#     Edge 16, Type (0, 0), BuildingBlock: AJUNOK_clean_linker_0, # of connection points: 2
#     Edge 17, Type (0, 0), BuildingBlock: AJUNOK_clean_linker_0, # of connection points: 2
#     Edge 18, Type (0, 0), BuildingBlock: AJUNOK_clean_linker_0, # of connection points: 2
#     Edge 19, Type (0, 0), BuildingBlock: AJUNOK_clean_linker_0, # of connection points: 2
#     Edge 20, Type (0, 0), BuildingBlock: AJUNOK_clean_linker_0, # of connection points: 2
#     Edge 21, Type (0, 0), BuildingBlock: AJUNOK_clean_linker_0, # of connection points: 2
#     Edge 22, Type (0, 0), BuildingBlock: AJUNOK_clean_linker_0, # of connection points: 2
#     Edge 23, Type (0, 0), BuildingBlock: AJUNOK_clean_linker_0, # of connection points: 2
#     Edge 24, Type (0, 0), BuildingBlock: AJUNOK_clean_linker_0, # of connection points: 2
#     Edge 25, Type (0, 0), BuildingBlock: AJUNOK_clean_linker_0, # of connection points: 2
#     Edge 26, Type (0, 0), BuildingBlock: AJUNOK_clean_linker_0, # of connection points: 2
#     Edge 27, Type (0, 0), BuildingBlock: AJUNOK_clean_linker_0, # of connection points: 2
#     Edge 28, Type (0, 0), BuildingBlock: AJUNOK_clean_linker_0, # of connection points: 2
#     Edge 29, Type (0, 0), BuildingBlock: AJUNOK_clean_linker_0, # of connection points: 2
#     Edge 30, Type (0, 0), BuildingBlock: AJUNOK_clean_linker_0, # of connection points: 2
#     Edge 31, Type (0, 0), BuildingBlock: AJUNOK_clean_linker_0, # of connection points: 2
#     Edge 32, Type (0, 0), BuildingBlock: AJUNOK_clean_linker_0, # of connection points: 2
#     Edge 33, Type (0, 0), BuildingBlock: AJUNOK_clean_linker_0, # of connection points: 2
#     Edge 34, Type (0, 0), BuildingBlock: AJUNOK_clean_linker_0, # of connection points: 2
#     Edge 35, Type (0, 0), BuildingBlock: AJUNOK_clean_linker_0, # of connection points: 2
#     Edge 36, Type (0, 0), BuildingBlock: AJUNOK_clean_linker_0, # of connection points: 2
#     Edge 37, Type (0, 0), BuildingBlock: AJUNOK_clean_linker_0, # of connection points: 2
#     Edge 38, Type (0, 0), BuildingBlock: AJUNOK_clean_linker_0, # of connection points: 2
#     Edge 39, Type (0, 0), BuildingBlock: AJUNOK_clean_linker_0, # of connection points: 2
#     Edge 40, Type (0, 0), BuildingBlock: AJUNOK_clean_linker_0, # of connection points: 2
#     Edge 41, Type (0, 0), BuildingBlock: AJUNOK_clean_linker_0, # of connection points: 2
#     Edge 42, Type (0, 0), BuildingBlock: AJUNOK_clean_linker_0, # of connection points: 2
#     Edge 43, Type (0, 0), BuildingBlock: AJUNOK_clean_linker_0, # of connection points: 2
#     Edge 44, Type (0, 0), BuildingBlock: AJUNOK_clean_linker_0, # of connection points: 2
#     Edge 45, Type (0, 0), BuildingBlock: AJUNOK_clean_linker_0, # of connection points: 2
#     Edge 46, Type (0, 0), BuildingBlock: AJUNOK_clean_linker_0, # of connection points: 2
#     Edge 47, Type (0, 0), BuildingBlock: AJUNOK_clean_linker_0, # of connection points: 2
#     Edge 48, Type (0, 0), BuildingBlock: AJUNOK_clean_linker_0, # of connection points: 2
#     Edge 49, Type (0, 0), BuildingBlock: AJUNOK_clean_linker_0, # of connection points: 2
#     Edge 50, Type (0, 0), BuildingBlock: AJUNOK_clean_linker_0, # of connection points: 2
#     Edge 51, Type (0, 0), BuildingBlock: AJUNOK_clean_linker_0, # of connection points: 2
#     Edge 52, Type (0, 0), BuildingBlock: AJUNOK_clean_linker_0, # of connection points: 2
#     Edge 53, Type (0, 0), BuildingBlock: AJUNOK_clean_linker_0, # of connection points: 2
#     Edge 54, Type (0, 0), BuildingBlock: AJUNOK_clean_linker_0, # of connection points: 2
#     Edge 55, Type (0, 0), BuildingBlock: AJUNOK_clean_linker_0, # of connection points: 2
#     Edge 56, Type (0, 0), BuildingBlock: AJUNOK_clean_linker_0, # of connection points: 2
#     Edge 57, Type (0, 0), BuildingBlock: AJUNOK_clean_linker_0, # of connection points: 2
#     Edge 58, Type (0, 0), BuildingBlock: AJUNOK_clean_linker_0, # of connection points: 2
#     Edge 59, Type (0, 0), BuildingBlock: AJUNOK_clean_linker_0, # of connection points: 2
#     Edge 60, Type (0, 0), BuildingBlock: AJUNOK_clean_linker_0, # of connection points: 2
#     Edge 61, Type (0, 0), BuildingBlock: AJUNOK_clean_linker_0, # of connection points: 2
#     Edge 62, Type (0, 0), BuildingBlock: AJUNOK_clean_linker_0, # of connection points: 2
#     Edge 63, Type (0, 0), BuildingBlock: AJUNOK_clean_linker_0, # of connection points: 2
# Relax obj value: 0.402
# Max RMSD: 0.252
# Mean RMSD: 0.249
data_MOF--net-whp--node1-VOLQOD_clean_sbu_1--edge1-AJUNOK_clean_linker_0
_symmetry_space_group_name_H-M    P1
_symmetry_Int_Tables_number       1
_symmetry_cell_setting            triclinic
loop_
_symmetry_equiv_pos_as_xyz
'x, y, z'
_cell_length_a     40.264378
_cell_length_b     40.208755
_cell_length_c     21.936254
_cell_angle_alpha  90.231415
_cell_angle_beta   89.984093
_cell_angle_gamma 90.361372
loop_
_atom_site_label
_atom_site_type_symbol
_atom_site_fract_x
_atom_site_fract_y
_atom_site_fract_z
_atom_type_partial_charge
O0 O 0.30894 0.5734 0.40737 0.0
Zn1 Zn 0.28548 0.56368 0.32949 0.0
O2 O 0.29013 0.51799 0.30656 0.0
Zn3 Zn 0.24667 0.4972 0.29896 0.0
Zn4 Zn 0.31441 0.49683 0.36967 0.0
Zn5 Zn 0.31743 0.51455 0.23468 0.0
O6 O 0.24396 0.4756 0.21336 0.0
O7 O 0.28829 0.49785 0.16717 0.0
O8 O 0.23832 0.57725 0.33653 0.0
O9 O 0.21069 0.53243 0.30521 0.0
O10 O 0.23696 0.46857 0.37511 0.0
O11 O 0.28312 0.47754 0.42814 0.0
O12 O 0.34302 0.46116 0.33772 0.0
O13 O 0.30851 0.5931 0.2703 0.0
O14 O 0.3522 0.47922 0.24378 0.0
O15 O 0.34005 0.55888 0.2157 0.0
C16 C 0.33364 0.55899 0.43157 0.0
C17 C 0.2615 0.48069 0.16528 0.0
C18 C 0.25358 0.46654 0.42476 0.0
C19 C 0.21115 0.5625 0.324 0.0
C20 C 0.35759 0.45873 0.28662 0.0
C21 C 0.33158 0.58814 0.23183 0.0
O22 O 0.34177 0.52968 0.41595 0.0
O23 O 0.89026 0.30635 0.88174 0.0
Zn24 Zn 0.90361 0.28325 0.80473 0.0
O25 O 0.95016 0.28928 0.78669 0.0
Zn26 Zn 0.97113 0.24589 0.77771 0.0
Zn27 Zn 0.96955 0.3129 0.85317 0.0
Zn28 Zn 0.95525 0.31837 0.71699 0.0
O29 O -0.00684 0.2447 0.69216 0.0
O30 O 0.97342 0.29079 0.64891 0.0
O31 O 0.89056 0.23561 0.80948 0.0
O32 O 0.93603 0.20884 0.78119 0.0
O33 O -0.00023 0.23603 0.85423 0.0
O34 O -0.00897 0.28183 0.9087 0.0
O35 O 0.00216 0.34659 0.82761 0.0
O36 O 0.87577 0.30553 0.74258 0.0
O37 O -0.01113 0.35528 0.73124 0.0
O38 O 0.91102 0.33982 0.69604 0.0
C39 C 0.90503 0.32961 0.91049 0.0
C40 C -0.01042 0.26364 0.64551 0.0
C41 C 0.00261 0.25268 0.90397 0.0
C42 C 0.9056 0.20866 0.79758 0.0
C43 C 0.00607 0.3624 0.7782 0.0
C44 C 0.88151 0.32997 0.70745 0.0
O45 O 0.93533 0.33649 0.9006 0.0
O46 O 0.17187 0.90359 0.4382 0.0
Zn47 Zn 0.18646 0.90839 0.35169 0.0
O48 O 0.18082 0.95262 0.32136 0.0
Zn49 Zn 0.22371 0.97427 0.31221 0.0
Zn50 Zn 0.15509 0.97383 0.3827 0.0
Zn51 Zn 0.15465 0.953 0.24764 0.0
O52 O 0.22537 -0.00382 0.22685 0.0
O53 O 0.18268 0.9708 0.18061 0.0
O54 O 0.23332 0.89364 0.3452 0.0
O55 O 0.2601 0.93932 0.31599 0.0
O56 O 0.23264 0.00344 0.38821 0.0
O57 O 0.18473 -0.00152 0.43759 0.0
O58 O 0.12161 0.00357 0.34859 0.0
O59 O 0.15634 0.87788 0.30605 0.0
O60 O 0.11679 -0.01469 0.25358 0.0
O61 O 0.13491 0.90744 0.23004 0.0
C62 C 0.14517 0.91566 0.45942 0.0
C63 C 0.20802 -0.01004 0.17892 0.0
C64 C 0.2146 0.00863 0.43539 0.0
C65 C 0.2601 0.90871 0.3312 0.0
C66 C 0.1077 0.00437 0.29674 0.0
C67 C 0.1376 0.8804 0.25971 0.0
O68 O 0.13183 0.94084 0.43497 0.0
O69 O 0.57367 0.16213 0.8842 0.0
Zn70 Zn 0.5614 0.18692 0.80945 0.0
O71 O 0.51495 0.18237 0.79122 0.0
Zn72 Zn 0.49578 0.22662 0.78287 0.0
Zn73 Zn 0.49446 0.15943 0.8574 0.0
Zn74 Zn 0.5095 0.15344 0.72095 0.0
O75 O 0.47322 0.22853 0.69828 0.0
O76 O 0.49089 0.18157 0.65417 0.0
O77 O 0.57572 0.23396 0.81814 0.0
O78 O 0.53211 0.26256 0.78713 0.0
O79 O 0.46757 0.23747 0.85912 0.0
O80 O 0.47401 0.19141 0.91348 0.0
O81 O 0.46023 0.12778 0.82989 0.0
O82 O 0.58907 0.16507 0.74622 0.0
O83 O 0.47517 0.11724 0.7348 0.0
O84 O 0.55356 0.13134 0.69865 0.0
C85 C 0.55838 0.13941 0.91312 0.0
C86 C 0.47544 0.20918 0.65168 0.0
C87 C 0.4637 0.22104 0.90857 0.0
C88 C 0.56216 0.26152 0.80562 0.0
C89 C 0.45659 0.1116 0.78056 0.0
C90 C 0.58319 0.14086 0.71032 0.0
O91 O 0.5277 0.13379 0.90429 0.0
O92 O 0.80568 0.39348 0.11201 0.0
Zn93 Zn 0.7853 0.40441 0.19287 0.0
O94 O 0.79433 0.44956 0.21805 0.0
Zn95 Zn 0.75306 0.47378 0.22638 0.0
Zn96 Zn 0.82029 0.46888 0.15497 0.0
Zn97 Zn 0.82141 0.45084 0.29084 0.0
O98 O 0.75234 0.49609 0.31151 0.0
O99 O 0.79408 0.47016 0.3582 0.0
O100 O 0.73689 0.39426 0.18988 0.0
O101 O 0.71435 0.44134 0.22212 0.0
O102 O 0.74525 0.5024 0.14967 0.0
O103 O 0.79144 0.49252 0.09773 0.0
O104 O 0.85529 0.49843 0.18632 0.0
O105 O 0.80789 0.37316 0.24876 0.0
O106 O 0.86053 0.48206 0.28225 0.0
O107 O 0.83932 0.40476 0.30928 0.0
C108 C 0.83143 0.4064 0.08805 0.0
C109 C 0.76915 0.48962 0.35977 0.0
C110 C 0.76241 0.50453 0.10063 0.0
C111 C 0.7115 0.4113 0.2039 0.0
C112 C 0.87002 0.49966 0.23739 0.0
C113 C 0.83034 0.37627 0.2892 0.0
O114 O 0.84246 0.43435 0.10608 0.0
O115 O 0.0832 0.81873 0.67038 0.0
Zn116 Zn 0.06517 0.79033 0.73721 0.0
O117 O 0.01783 0.79441 0.74285 0.0
Zn118 Zn -0.0024 0.75053 0.74969 0.0
Zn119 Zn 0.00193 0.81658 0.67254 0.0
Zn120 Zn 0.0096 0.8242 0.81023 0.0
O121 O 0.97554 0.74841 0.83527 0.0
O122 O -0.00762 0.79609 0.87852 0.0
O123 O 0.07882 0.74361 0.72266 0.0
O124 O 0.03332 0.71454 0.74337 0.0
O125 O 0.96925 0.7405 0.67258 0.0
O126 O 0.98345 0.78384 0.61528 0.0
O127 O 0.96622 0.84792 0.69289 0.0
O128 O 0.08744 0.80775 0.812 0.0
O129 O 0.97332 0.85739 0.79148 0.0
O130 O 0.05266 0.84892 0.83128 0.0
C131 C 0.0695 0.83886 0.63383 0.0
C132 C 0.97776 0.76787 0.88185 0.0
C133 C 0.9698 0.75548 0.62104 0.0
C134 C 0.06399 0.71583 0.72857 0.0
C135 C 0.95792 0.86261 0.74179 0.0
C136 C 0.08169 0.83646 0.83392 0.0
O137 O 0.0381 0.84147 0.63124 0.0
O138 O 0.66594 0.06775 0.08747 0.0
Zn139 Zn 0.68723 0.06099 0.16845 0.0
O140 O 0.67783 0.01852 0.203 0.0
Zn141 Zn 0.71901 -0.00556 0.2119 0.0
Zn142 Zn 0.65031 -0.00226 0.14427 0.0
Zn143 Zn 0.65115 0.02159 0.27595 0.0
O144 O 0.71827 0.973 0.29772 0.0
O145 O 0.67778 0.0019 0.34316 0.0
O146 O 0.73538 0.07037 0.16286 0.0
O147 O 0.75861 0.02658 0.20623 0.0
O148 O 0.72529 0.96487 0.13544 0.0
O149 O 0.67825 0.97401 0.08555 0.0
O150 O 0.61771 0.96787 0.18129 0.0
O151 O 0.66614 0.09545 0.21911 0.0
O152 O 0.61039 -0.00841 0.27175 0.0
O153 O 0.6369 0.06978 0.29096 0.0
C154 C 0.63726 0.05706 0.0728 0.0
C155 C 0.70127 0.98076 0.34531 0.0
C156 C 0.70739 0.96218 0.08732 0.0
C157 C 0.76101 0.05521 0.18152 0.0
C158 C 0.60223 0.97014 0.23151 0.0
C159 C 0.64581 0.09633 0.26338 0.0
O160 O 0.62512 0.03138 0.09797 0.0
O161 O 0.39414 0.65895 0.63571 0.0
Zn162 Zn 0.40509 0.68248 0.71337 0.0
O163 O 0.45117 0.67864 0.73371 0.0
Zn164 Zn 0.47051 0.72302 0.74238 0.0
Zn165 Zn 0.4717 0.6555 0.66821 0.0
Zn166 Zn 0.45657 0.64989 0.80381 0.0
O167 O 0.49298 0.7249 0.82747 0.0
O168 O 0.47375 0.67858 0.8716 0.0
O169 O 0.39016 0.72936 0.70862 0.0
O170 O 0.43397 0.75846 0.73948 0.0
O171 O 0.49879 0.73384 0.66557 0.0
O172 O 0.49148 0.68739 0.61191 0.0
O173 O 0.5071 0.6261 0.69621 0.0
O174 O 0.37741 0.65889 0.77425 0.0
O175 O 0.49248 0.6153 0.79135 0.0
O176 O 0.4127 0.62676 0.82481 0.0
C177 C 0.40919 0.6355 0.60849 0.0
C178 C 0.48965 0.70613 0.87445 0.0
C179 C 0.50219 0.71702 0.61617 0.0
C180 C 0.40368 0.75703 0.72219 0.0
C181 C 0.51167 0.61092 0.74596 0.0
C182 C 0.38318 0.63547 0.81141 0.0
O183 O 0.43916 0.62869 0.62092 0.0
O184 O 0.66465 0.39533 0.62021 0.0
Zn185 Zn 0.68718 0.40619 0.69802 0.0
O186 O 0.68208 0.45203 0.71909 0.0
Zn187 Zn 0.72591 0.4727 0.72672 0.0
Zn188 Zn 0.65767 0.47224 0.65471 0.0
Zn189 Zn 0.65437 0.45573 0.79088 0.0
O190 O 0.72813 0.49491 0.81215 0.0
O191 O 0.68331 0.47327 0.85786 0.0
O192 O 0.73419 0.39302 0.69076 0.0
O193 O 0.76244 0.43753 0.72083 0.0
O194 O 0.73545 0.50125 0.65013 0.0
O195 O 0.68889 0.49319 0.59768 0.0
O196 O 0.62719 0.50646 0.68587 0.0
O197 O 0.66431 0.37695 0.75748 0.0
O198 O 0.61905 0.49083 0.78147 0.0
O199 O 0.63226 0.41114 0.81095 0.0
C200 C 0.64087 0.40934 0.59263 0.0
C201 C 0.71002 0.49052 0.85981 0.0
C202 C 0.71842 0.50422 0.6011 0.0
C203 C 0.76163 0.40738 0.70231 0.0
C204 C 0.61303 0.51016 0.73711 0.0
C205 C 0.64105 0.38184 0.79558 0.0
O206 O 0.63215 0.43879 0.60618 0.0
O207 O 0.07877 0.66802 0.13923 0.0
Zn208 Zn 0.06582 0.68734 0.21942 0.0
O209 O 0.02001 0.67842 0.23969 0.0
Zn210 Zn -0.00351 0.72014 0.25035 0.0
Zn211 Zn 0.0017 0.65427 0.17273 0.0
Zn212 Zn 0.01684 0.64952 0.30982 0.0
O213 O 0.97308 0.71936 0.33433 0.0
O214 O -0.00287 0.67568 0.3783 0.0
O215 O 0.07631 0.73564 0.21837 0.0
O216 O 0.02974 0.75835 0.25297 0.0
O217 O 0.96926 0.73028 0.17226 0.0
O218 O 0.97838 0.68459 0.11786 0.0
O219 O 0.97214 0.61811 0.19847 0.0
O220 O 0.09569 0.66393 0.27711 0.0
O221 O -0.01425 0.61066 0.29537 0.0
O222 O 0.06219 0.63081 0.33028 0.0
C223 C 0.06573 0.6439 0.11018 0.0
C224 C 0.97849 0.70117 0.38131 0.0
C225 C 0.96688 0.7138 0.12226 0.0
C226 C 0.05974 0.76089 0.23483 0.0
C227 C 0.96963 0.60209 0.24794 0.0
C228 C 0.09126 0.64024 0.31458 0.0
O229 O 0.03675 0.63352 0.12291 0.0
O230 O 0.79732 0.07456 0.60544 0.0
Zn231 Zn 0.77782 0.06439 0.68637 0.0
O232 O 0.78343 0.01856 0.70733 0.0
Zn233 Zn 0.73974 -0.00247 0.7146 0.0
Zn234 Zn 0.80826 -0.00136 0.64293 0.0
Zn235 Zn 0.81139 0.01484 0.77868 0.0
O236 O 0.73853 0.97415 0.79866 0.0
O237 O 0.78297 -0.00358 0.845 0.0
O238 O 0.73063 0.07784 0.68502 0.0
O239 O 0.70274 0.03261 0.71181 0.0
O240 O 0.73047 0.9695 0.63678 0.0
O241 O 0.7776 0.97694 0.58597 0.0
O242 O 0.84018 0.9653 0.67231 0.0
O243 O 0.80333 0.09369 0.74277 0.0
O244 O 0.84733 0.98037 0.76846 0.0
O245 O 0.8333 0.05942 0.79954 0.0
C246 C 0.82181 0.06116 0.57867 0.0
C247 C 0.75677 0.9784 0.84624 0.0
C248 C 0.74792 0.96627 0.58824 0.0
C249 C 0.70331 0.06323 0.69641 0.0
C250 C 0.85433 0.96163 0.72348 0.0
C251 C 0.82603 0.0887 0.78189 0.0
O252 O 0.83227 0.0327 0.59437 0.0
O253 O 0.39312 0.80528 0.13304 0.0
Zn254 Zn 0.40461 0.78479 0.2126 0.0
O255 O 0.45053 0.7916 0.2339 0.0
Zn256 Zn 0.47198 0.74834 0.24226 0.0
Zn257 Zn 0.47043 0.81593 0.16901 0.0
Zn258 Zn 0.45407 0.8203 0.30504 0.0
O259 O 0.49434 0.74769 0.32752 0.0
O260 O 0.47341 0.79317 0.3717 0.0
O261 O 0.39221 0.73719 0.20887 0.0
O262 O 0.4374 0.71064 0.23829 0.0
O263 O 0.5005 0.73889 0.16525 0.0
O264 O 0.49371 0.78576 0.11381 0.0
O265 O 0.50067 0.85109 0.19716 0.0
O266 O 0.37509 0.80827 0.27073 0.0
O267 O 0.48589 0.859 0.2933 0.0
O268 O 0.40902 0.83954 0.32697 0.0
C269 C 0.4075 0.82874 0.10461 0.0
C270 C 0.49034 0.7665 0.37449 0.0
C271 C 0.50442 0.75625 0.11684 0.0
C272 C 0.40711 0.71031 0.221 0.0
C273 C 0.50308 0.86705 0.24696 0.0
C274 C 0.37985 0.83105 0.31017 0.0
O275 O 0.43672 0.83792 0.11841 0.0
O276 O 0.16397 0.58205 0.90199 0.0
Zn277 Zn 0.18555 0.56886 0.82429 0.0
O278 O 0.1773 0.52299 0.80522 0.0
Zn279 Zn 0.21952 0.49977 0.79782 0.0
Zn280 Zn 0.15158 0.50467 0.86997 0.0
Zn281 Zn 0.14924 0.52017 0.73399 0.0
O282 O 0.21993 0.47718 0.71271 0.0
O283 O 0.17684 0.50151 0.66689 0.0
O284 O 0.23347 0.57921 0.83088 0.0
O285 O 0.25853 0.5327 0.8032 0.0
O286 O 0.22699 0.47098 0.87473 0.0
O287 O 0.18114 0.48203 0.92719 0.0
O288 O 0.11781 0.47266 0.84063 0.0
O289 O 0.16436 0.59873 0.76392 0.0
O290 O 0.11219 0.48659 0.74379 0.0
O291 O 0.12917 0.56543 0.71461 0.0
C292 C 0.13943 0.56926 0.92985 0.0
C293 C 0.20217 0.48262 0.66507 0.0
C294 C 0.20979 0.46921 0.92382 0.0
C295 C 0.25985 0.56303 0.82054 0.0
C296 C 0.10376 0.46892 0.78923 0.0
C297 C 0.13988 0.59449 0.72806 0.0
O298 O 0.12916 0.54008 0.91734 0.0
O299 O 0.8845 0.15675 0.36652 0.0
Zn300 Zn 0.90109 0.1798 0.29225 0.0
O301 O 0.94815 0.17396 0.282 0.0
Zn302 Zn 0.9704 0.21705 0.27608 0.0
Zn303 Zn 0.96442 0.15049 0.35087 0.0
Zn304 Zn 0.95516 0.14519 0.21245 0.0
O305 O -0.00665 0.219 0.19147 0.0
O306 O 0.97391 0.17309 0.1457 0.0
O307 O 0.88891 0.2273 0.29874 0.0
O308 O 0.93615 0.25419 0.28082 0.0
O309 O -0.00159 0.22623 0.35382 0.0
O310 O -0.01463 0.18161 0.40834 0.0
O311 O -0.00301 0.11667 0.32789 0.0
O312 O 0.87538 0.15787 0.2257 0.0
O313 O -0.01077 0.10993 0.22878 0.0
O314 O 0.91202 0.12194 0.18898 0.0
C315 C 0.89768 0.13482 0.40003 0.0
C316 C -0.00985 0.20043 0.14393 0.0
C317 C -0.00136 0.21022 0.40425 0.0
C318 C 0.90514 0.25429 0.29284 0.0
C319 C 0.0038 0.10217 0.27803 0.0
C320 C 0.88219 0.13187 0.19509 0.0
O321 O 0.92828 0.12786 0.39555 0.0
O322 O 0.30388 0.89175 0.91168 0.0
Zn323 Zn 0.28019 0.90333 0.83493 0.0
O324 O 0.28778 0.94883 0.81339 0.0
Zn325 Zn 0.24588 0.97226 0.80878 0.0
Zn326 Zn 0.31429 0.96787 0.87569 0.0
Zn327 Zn 0.31521 0.95142 0.7416 0.0
O328 O 0.24494 -0.00459 0.72463 0.0
O329 O 0.28685 0.97025 0.67613 0.0
O330 O 0.23201 0.89301 0.84408 0.0
O331 O 0.20704 0.93926 0.8147 0.0
O332 O 0.23959 0.0006 0.88718 0.0
O333 O 0.28563 -0.01203 0.93749 0.0
O334 O 0.34464 0.00228 0.84456 0.0
O335 O 0.30114 0.87284 0.77431 0.0
O336 O 0.35221 -0.01457 0.7496 0.0
O337 O 0.33492 0.90598 0.72168 0.0
C338 C 0.33069 0.90434 0.9322 0.0
C339 C 0.26189 -0.0103 0.67603 0.0
C340 C 0.25703 0.00101 0.93609 0.0
C341 C 0.20565 0.90922 0.83339 0.0
C342 C 0.35901 0.00515 0.79337 0.0
C343 C 0.3249 0.87696 0.73675 0.0
O344 O 0.34048 0.93311 0.91636 0.0
O345 O 0.46498 0.26151 0.19876 0.0
Zn346 Zn 0.47386 0.28218 0.28337 0.0
O347 O 0.52073 0.29385 0.28923 0.0
Zn348 Zn 0.54045 0.27395 0.3584 0.0
Zn349 Zn 0.54538 0.27969 0.21986 0.0
Zn350 Zn 0.52657 0.34091 0.29884 0.0
O351 O 0.56992 0.30598 0.40149 0.0
O352 O 0.54224 0.35225 0.38271 0.0
O353 O 0.45847 0.2569 0.36104 0.0
O354 O 0.505 0.26212 0.41554 0.0
O355 O 0.56512 0.23245 0.33795 0.0
O356 O 0.56747 0.23571 0.23709 0.0
O357 O 0.58154 0.31315 0.19939 0.0
O358 O 0.44736 0.32453 0.28166 0.0
O359 O 0.56307 0.35809 0.24683 0.0
O360 O 0.48525 0.36504 0.2809 0.0
C361 C 0.48229 0.26532 0.15015 0.0
C362 C 0.56424 0.33649 0.41231 0.0
C363 C 0.57371 0.22049 0.28668 0.0
C364 C 0.47442 0.25472 0.41141 0.0
C365 C 0.58419 0.34395 0.21266 0.0
C366 C 0.45529 0.35516 0.27751 0.0
O367 O 0.51267 0.27454 0.15191 0.0
C368 C 0.34178 0.60794 0.49962 0.0
C369 C 0.35351 0.57736 0.47725 0.0
C370 C 0.36011 0.62654 0.54166 0.0
C371 C 0.39101 0.61542 0.56291 0.0
H372 H 0.31815 0.61775 0.48471 0.0
H373 H 0.34989 0.64991 0.55738 0.0
S374 S 0.43297 0.53688 0.51884 0.0
N375 N 0.39805 0.53665 0.47949 0.0
N376 N 0.43261 0.57171 0.55887 0.0
C377 C 0.40317 0.58487 0.54099 0.0
C378 C 0.38436 0.56579 0.49819 0.0
C379 C 0.83952 0.35562 0.02412 0.0
C380 C 0.84978 0.38794 0.04066 0.0
C381 C 0.85745 0.33693 0.98171 0.0
C382 C 0.88641 0.34979 0.9547 0.0
H383 H 0.81768 0.3444 0.04451 0.0
H384 H 0.8488 0.31204 0.97077 0.0
S385 S 0.92266 0.43398 0.97877 0.0
N386 N 0.88997 0.43266 0.02403 0.0
N387 N 0.92366 0.39738 0.94462 0.0
C388 C 0.89664 0.38229 0.9698 0.0
C389 C 0.87831 0.40142 0.01265 0.0
C390 C 0.07468 0.88317 0.55556 0.0
C391 C 0.09014 0.85958 0.59309 0.0
C392 C 0.09298 0.9021 0.51423 0.0
C393 C 0.12745 0.89804 0.5084 0.0
H394 H 0.04806 0.88682 0.55722 0.0
H395 H 0.07972 0.91925 0.48522 0.0
S396 S 0.1806 0.84217 0.60006 0.0
N397 N 0.14254 0.83502 0.62496 0.0
N398 N 0.17694 0.87064 0.54652 0.0
C399 C 0.14355 0.8755 0.54709 0.0
C400 C 0.12491 0.85628 0.58964 0.0
C401 C 0.61005 0.1271 0.97053 0.0
C402 C 0.57739 0.11803 0.95473 0.0
C403 C 0.62938 0.10682 1.00753 0.0
C404 C 0.61686 0.07659 0.03027 0.0
H405 H 0.62092 0.15015 0.95435 0.0
H406 H 0.65425 0.11523 0.01882 0.0
S407 S 0.53303 0.04082 1.00081 0.0
N408 N 0.53345 0.07638 0.96355 0.0
N409 N 0.56985 0.03814 0.03333 0.0
C410 C 0.58429 0.06698 0.01443 0.0
C411 C 0.56451 0.08775 0.97676 0.0
C412 C 0.57393 0.3857 0.47937 0.0
C413 C 0.58418 0.3543 0.45847 0.0
C414 C 0.59261 0.40346 0.52224 0.0
C415 C 0.6223 0.39052 0.54577 0.0
H416 H 0.55115 0.39667 0.46284 0.0
H417 H 0.58346 0.42739 0.53736 0.0
S418 S 0.66099 0.30996 0.50341 0.0
N419 N 0.62655 0.31139 0.46286 0.0
N420 N 0.66177 0.34478 0.5434 0.0
C421 C 0.6331 0.35927 0.52469 0.0
C422 C 0.61401 0.34115 0.48111 0.0
C423 C 0.09018 0.57825 0.99573 0.0
C424 C 0.1216 0.58903 0.97586 0.0
C425 C 0.0722 0.59655 0.0383 0.0
C426 C 0.08498 0.62629 0.06308 0.0
H427 H 0.07913 0.55554 0.97807 0.0
H428 H 0.04818 0.58695 0.05224 0.0
S429 S 0.16628 0.66547 0.0261 0.0
N430 N 0.16493 0.63142 0.98392 0.0
N431 N 0.13099 0.66596 0.06434 0.0
C432 C 0.11638 0.63753 0.04352 0.0
C433 C 0.13472 0.61887 0.99983 0.0
C434 C 0.88964 0.08707 0.46999 0.0
C435 C 0.87717 0.1164 0.44419 0.0
C436 C 0.87118 0.06904 0.51235 0.0
C437 C 0.8396 0.07974 0.53094 0.0
H438 H 0.91394 0.07783 0.45746 0.0
H439 H 0.88212 0.04683 0.53138 0.0
S440 S 0.79514 0.15449 0.47571 0.0
N441 N 0.83094 0.15508 0.43911 0.0
N442 N 0.79607 0.12106 0.51905 0.0
C443 C 0.82652 0.1088 0.5049 0.0
C444 C 0.84534 0.12715 0.46141 0.0
C445 C 0.33624 0.85948 1.00881 0.0
C446 C 0.35106 0.88489 0.97431 0.0
C447 C 0.35491 0.84093 0.04985 0.0
C448 C 0.38909 0.84702 0.05759 0.0
H449 H 0.30989 0.85425 1.005 0.0
H450 H 0.3422 0.82211 0.07645 0.0
S451 S 0.44025 0.90875 0.97307 0.0
N452 N 0.40218 0.91385 0.94709 0.0
N453 N 0.43748 0.87884 0.02412 0.0
C454 C 0.40444 0.87171 0.02179 0.0
C455 C 0.38535 0.89072 0.98022 0.0
C456 C 0.37594 0.40122 0.30801 0.0
C457 C 0.38129 0.43157 0.27782 0.0
C458 C 0.39935 0.37579 0.30499 0.0
C459 C 0.42915 0.38023 0.27279 0.0
H460 H 0.35371 0.39726 0.33496 0.0
H461 H 0.39473 0.35313 0.33028 0.0
S462 S 0.454 0.45415 0.18261 0.0
N463 N 0.41746 0.46392 0.2116 0.0
N464 N 0.46202 0.41624 0.20705 0.0
C465 C 0.43432 0.41 0.24068 0.0
C466 C 0.41019 0.43566 0.24282 0.0
C467 C 0.04145 0.40301 0.83386 0.0
C468 C 0.03008 0.39034 0.77773 0.0
C469 C 0.06464 0.42876 0.83657 0.0
C470 C 0.07766 0.4431 0.78328 0.0
H471 H 0.03242 0.39298 0.87658 0.0
H472 H 0.07253 0.43731 0.88121 0.0
S473 S 0.05585 0.4194 0.62437 0.0
N474 N 0.03314 0.39435 0.66719 0.0
N475 N 0.07718 0.44308 0.67222 0.0
C476 C 0.06617 0.43118 0.72654 0.0
C477 C 0.0423 0.40475 0.72378 0.0
C478 C 0.06314 0.03898 0.34031 0.0
C479 C 0.07999 0.02754 0.28835 0.0
C480 C 0.03814 0.06248 0.33578 0.0
C481 C 0.0289 0.07568 0.27908 0.0
H482 H 0.06941 0.0299 0.38528 0.0
H483 H 0.0262 0.07052 0.37754 0.0
S484 S 0.06462 0.05311 0.12859 0.0
N485 N 0.08524 0.03019 0.17794 0.0
N486 N 0.03784 0.07488 0.16924 0.0
C487 C 0.04483 0.06382 0.22624 0.0
C488 C 0.07047 0.03961 0.23092 0.0
C489 C 0.38482 0.05757 0.83039 0.0
C490 C 0.38331 0.03251 0.7856 0.0
C491 C 0.40797 0.0833 0.82696 0.0
C492 C 0.43085 0.08523 0.77865 0.0
H493 H 0.36807 0.05737 0.86906 0.0
H494 H 0.40805 0.10165 0.86328 0.0
S495 S 0.43652 0.02671 0.64776 0.0
N496 N 0.4059 0.01177 0.68984 0.0
N497 N 0.44988 0.06047 0.68346 0.0
C498 C 0.42916 0.06092 0.73236 0.0
C499 C 0.40532 0.03449 0.73584 0.0
C500 C 0.92864 0.56505 0.30035 0.0
C501 C 0.94783 0.57273 0.24869 0.0
C502 C 0.9043 0.53996 0.29776 0.0
C503 C 0.8987 0.52208 0.24348 0.0
H504 H 0.93127 0.57955 0.34181 0.0
H505 H 0.88872 0.53573 0.3373 0.0
S506 S 0.94716 0.52828 0.10012 0.0
N507 N 0.96304 0.55731 0.14503 0.0
N508 N 0.91741 0.51033 0.14022 0.0
C509 C 0.9195 0.52789 0.19325 0.0
C510 C 0.94409 0.55322 0.19585 0.0
C511 C 0.92755 0.91215 0.78266 0.0
C512 C 0.93002 0.88624 0.73965 0.0
C513 C 0.9026 0.93619 0.77797 0.0
C514 C 0.87929 0.93508 0.73015 0.0
H515 H 0.94555 0.91443 0.81916 0.0
H516 H 0.9021 0.95621 0.81115 0.0
S517 S 0.87236 0.86959 0.61073 0.0
N518 N 0.90514 0.85908 0.65123 0.0
N519 N 0.85843 0.90405 0.64241 0.0
C520 C 0.88068 0.90842 0.68847 0.0
C521 C 0.90598 0.88406 0.69323 0.0
C522 C 0.53205 0.91232 0.19277 0.0
C523 C 0.52534 0.89623 0.2482 0.0
C524 C 0.5558 0.93744 0.18911 0.0
C525 C 0.57385 0.9476 0.2407 0.0
H526 H 0.51941 0.90492 0.15121 0.0
H527 H 0.56072 0.94835 0.14488 0.0
S528 S 0.56375 0.91567 0.3979 0.0
N529 N 0.53683 0.89382 0.35703 0.0
N530 N 0.58201 0.94158 0.34993 0.0
C531 C 0.56613 0.9333 0.29734 0.0
C532 C 0.54171 0.90743 0.30115 0.0
C533 C 0.53793 0.55952 0.78781 0.0
C534 C 0.53951 0.58738 0.74933 0.0
C535 C 0.56249 0.53495 0.78539 0.0
C536 C 0.58924 0.53757 0.74435 0.0
H537 H 0.51696 0.55599 0.8181 0.0
H538 H 0.55982 0.51321 0.81402 0.0
S539 S 0.60764 0.60858 0.64184 0.0
N540 N 0.57211 0.6182 0.67476 0.0
N541 N 0.618 0.57213 0.67009 0.0
C542 C 0.59208 0.56632 0.70847 0.0
C543 C 0.56727 0.59122 0.71102 0.0
C544 C 0.25872 0.46882 0.99333 0.0
C545 C 0.2254 0.46011 0.98269 0.0
C546 C 0.27075 0.47309 0.0529 0.0
C547 C 0.24998 0.46875 0.10427 0.0
H548 H 0.27482 0.47547 0.95566 0.0
H549 H 0.29605 0.48192 0.05834 0.0
S550 S 0.16287 0.43808 0.10054 0.0
N551 N 0.17348 0.44136 0.02809 0.0
N552 N 0.19601 0.44944 0.13995 0.0
C553 C 0.21773 0.45625 0.09419 0.0
C554 C 0.20551 0.45187 0.03345 0.0
C555 C 0.00968 0.21918 0.57396 0.0
C556 C 0.00119 0.2526 0.58407 0.0
C557 C 0.01294 0.20646 0.51463 0.0
C558 C 0.00778 0.22656 0.46289 0.0
H559 H 0.01145 0.20207 0.6118 0.0
H560 H 0.01692 0.17998 0.50935 0.0
S561 S -0.00708 0.31746 0.46448 0.0
N562 N -0.00604 0.30702 0.53716 0.0
N563 N -0.0006 0.28275 0.42598 0.0
C564 C 0.00321 0.26079 0.47235 0.0
C565 C -4e-05 0.27385 0.53285 0.0
C566 C 0.2637 0.01374 0.0469 0.0
C567 C 0.24236 0.00998 0.99615 0.0
C568 C 0.25202 0.01007 0.10677 0.0
C569 C 0.2185 0.00259 0.1182 0.0
H570 H 0.29021 0.01681 0.04026 0.0
H571 H 0.26986 0.01048 0.14373 0.0
S572 S 0.15093 -0.00094 1.00276 0.0
N573 N 0.1851 0.00465 0.96237 0.0
N574 N 0.16292 -0.00159 0.07471 0.0
C575 C 0.19623 0.00303 0.06844 0.0
C576 C 0.20818 0.00671 1.00744 0.0
C577 C 0.45859 0.26562 0.51784 0.0
C578 C 0.45891 0.24324 0.46831 0.0
C579 C 0.46051 0.25433 0.5782 0.0
C580 C 0.46326 0.22021 0.59097 0.0
H581 H 0.46046 0.29213 0.50964 0.0
H582 H 0.46307 0.2726 0.61435 0.0
S583 S 0.45812 0.15144 0.47748 0.0
N584 N 0.45695 0.18562 0.43607 0.0
N585 N 0.46001 0.16397 0.54921 0.0
C586 C 0.45954 0.19753 0.54202 0.0
C587 C 0.45747 0.20916 0.48068 0.0
C588 C 0.77904 0.49699 0.472 0.0
C589 C 0.75862 0.50251 0.42066 0.0
C590 C 0.76733 0.50193 0.53159 0.0
C591 C 0.73467 0.51252 0.54227 0.0
H592 H 0.80366 0.48668 0.46652 0.0
H593 H 0.78292 0.49433 0.56924 0.0
S594 S 0.67386 0.53817 0.42447 0.0
N595 N 0.70614 0.52493 0.38502 0.0
N596 N 0.68421 0.53429 0.49691 0.0
C597 C 0.71544 0.52196 0.49153 0.0
C598 C 0.72734 0.51689 0.43077 0.0
C599 C 0.95725 0.72305 0.95233 0.0
C600 C 0.96606 0.75653 0.94307 0.0
C601 C 0.9533 0.71024 1.01131 0.0
C602 C 0.95821 0.73025 0.06366 0.0
H603 H 0.95557 0.70599 0.9141 0.0
H604 H 0.94899 0.68373 0.01584 0.0
S605 S 0.97358 0.82128 0.0642 0.0
N606 N 0.9732 0.81091 0.99132 0.0
N607 N 0.96656 0.78647 0.10182 0.0
C608 C 0.96312 0.76452 0.05494 0.0
C609 C 0.967 0.77769 0.99477 0.0
C610 C 0.74253 0.95647 0.41807 0.0
C611 C 0.71009 0.96723 0.40622 0.0
C612 C 0.75348 0.95165 0.47808 0.0
C613 C 0.73249 0.95764 0.52857 0.0
H614 H 0.76039 0.9543 0.38134 0.0
H615 H 0.7795 0.94609 0.48505 0.0
S616 S 0.64267 0.97696 0.52072 0.0
N617 N 0.655 0.9765 0.44894 0.0
N618 N 0.6759 0.96824 0.56158 0.0
C619 C 0.69886 0.96404 0.51681 0.0
C620 C 0.68763 0.96882 0.45565 0.0
C621 C 0.50245 0.70752 0.04631 0.0
C622 C 0.51286 0.74035 0.0576 0.0
C623 C 0.49724 0.69604 0.98655 0.0
C624 C 0.50222 0.71691 0.93555 0.0
H625 H 0.49519 0.69153 0.08373 0.0
H626 H 0.48714 0.6712 0.98081 0.0
S627 S 0.53743 0.80239 0.94064 0.0
N628 N 0.53408 0.79153 0.01289 0.0
N629 N 0.52408 0.77008 0.90073 0.0
C630 C 0.51639 0.74846 0.94613 0.0
C631 C 0.52185 0.76008 1.00706 0.0
C632 C 0.75457 0.51198 0.93019 0.0
C633 C 0.72113 0.50328 0.92048 0.0
C634 C 0.76702 0.51675 0.98936 0.0
C635 C 0.74661 0.51287 0.04129 0.0
H636 H 0.77185 0.51275 0.89236 0.0
H637 H 0.79351 0.52076 0.99454 0.0
S638 S 0.65551 0.49858 0.0397 0.0
N639 N 0.66642 0.49757 0.96717 0.0
N640 N 0.69006 0.50587 0.07806 0.0
C641 C 0.71238 0.50826 0.03175 0.0
C642 C 0.69963 0.50346 0.97146 0.0
C643 C 0.95653 0.74484 0.45243 0.0
C644 C 0.96651 0.71181 0.44268 0.0
C645 C 0.95355 0.75782 0.5116 0.0
C646 C 0.96039 0.73834 0.56343 0.0
H647 H 0.95353 0.7616 0.41432 0.0
H648 H 0.9485 0.78413 0.51659 0.0
S649 S 0.97958 0.64832 0.56314 0.0
N650 N 0.977 0.65816 0.49029 0.0
N651 N 0.97195 0.68294 0.60122 0.0
C652 C 0.96638 0.70432 0.55455 0.0
C653 C 0.96942 0.691 0.49422 0.0
C654 C 0.70144 0.95015 0.97611 0.0
C655 C 0.72247 0.95366 0.02735 0.0
C656 C 0.71317 0.95558 0.91672 0.0
C657 C 0.74645 0.96447 0.9062 0.0
H658 H 0.67501 0.94614 0.98218 0.0
H659 H 0.69544 0.9553 0.87959 0.0
S660 S 0.81361 0.96741 0.02261 0.0
N661 N 0.7795 0.95987 0.06208 0.0
N662 N 0.80179 0.9693 0.95066 0.0
C663 C 0.76861 0.96354 0.95613 0.0
C664 C 0.75661 0.95813 0.01664 0.0
C665 C 0.49645 0.77717 0.48676 0.0
C666 C 0.50271 0.75645 0.4358 0.0
C667 C 0.50063 0.76579 0.54662 0.0
C668 C 0.51132 0.73326 0.55789 0.0
H669 H 0.48598 0.80169 0.48079 0.0
H670 H 0.49234 0.78147 0.58385 0.0
S671 S 0.53957 0.67219 0.44176 0.0
N672 N 0.52636 0.70409 0.40149 0.0
N673 N 0.53452 0.68285 0.51392 0.0
C674 C 0.52177 0.71389 0.50774 0.0
C675 C 0.51733 0.72539 0.44671 0.0
C676 C 0.24507 0.45867 0.59476 0.0
C677 C 0.21231 0.46923 0.60449 0.0
C678 C 0.2572 0.45349 0.53558 0.0
C679 C 0.23714 0.45883 0.48376 0.0
H680 H 0.26223 0.45678 0.63259 0.0
H681 H 0.28337 0.448 0.53033 0.0
S682 S 0.1472 0.47809 0.48537 0.0
N683 N 0.15807 0.4781 0.55792 0.0
N684 N 0.18125 0.46914 0.4469 0.0
C685 C 0.20329 0.46526 0.49323 0.0
C686 C 0.19083 0.47043 0.55355 0.0
C687 C -0.00257 0.19111 0.03145 0.0
C688 C 0.00267 0.21158 0.08321 0.0
C689 C 0.00183 0.20324 0.97208 0.0
C690 C 0.01169 0.23631 0.96208 0.0
H691 H -0.01238 0.16612 0.03638 0.0
H692 H -0.00566 0.18757 0.93414 0.0
S693 S 0.03693 0.29745 0.08097 0.0
N694 N 0.02438 0.26461 0.11982 0.0
N695 N 0.03287 0.28726 1.00835 0.0
C696 C 0.02106 0.25563 0.01316 0.0
C697 C 0.01643 0.24336 0.07368 0.0
C698 C 0.26273 0.00686 0.5062 0.0
C699 C 0.23005 0.01712 0.4949 0.0
C700 C 0.27352 0.00048 0.5657 0.0
C701 C 0.25212 0.00419 0.61632 0.0
H702 H 0.27905 0.00038 0.46876 0.0
H703 H 0.2982 -0.00961 0.57139 0.0
S704 S 0.16727 0.03948 0.61199 0.0
N705 N 0.17879 0.03763 0.53981 0.0
N706 N 0.199 0.02534 0.65166 0.0
C707 C 0.22096 0.01871 0.60623 0.0
C708 C 0.21001 0.02536 0.54552 0.0
C709 C 0.47198 0.2685 0.97929 0.0
C710 C 0.45585 0.23819 0.96654 0.0
C711 C 0.47817 0.27836 0.0396 0.0
C712 C 0.46786 0.25867 0.08922 0.0
H713 H 0.48318 0.28281 0.94283 0.0
H714 H 0.49312 0.30049 0.04736 0.0
S715 S 0.41828 0.18096 0.07995 0.0
N716 N 0.42503 0.19129 1.00816 0.0
N717 N 0.43604 0.21041 0.12164 0.0
C718 C 0.44808 0.23058 0.07718 0.0
C719 C 0.44217 0.22024 0.0157 0.0
C720 C 0.18118 0.6165 0.32923 0.0
C721 C 0.17988 0.58151 0.32973 0.0
C722 C 0.15219 0.63543 0.32923 0.0
C723 C 0.12067 0.62023 0.33054 0.0
H724 H 0.20476 0.6295 0.32611 0.0
H725 H 0.15451 0.66221 0.32548 0.0
S726 S 0.1036 0.52958 0.34054 0.0
N727 N 0.1445 0.53244 0.33773 0.0
N728 N 0.08982 0.56815 0.338 0.0
C729 C 0.11895 0.58536 0.33535 0.0
C730 C 0.14859 0.56596 0.33463 0.0
C731 C 0.83216 0.14921 0.80165 0.0
C732 C 0.84688 0.11766 0.79896 0.0
C733 C 0.85146 0.17821 0.80322 0.0
C734 C 0.88642 0.177 0.80121 0.0
H735 H 0.80537 0.15157 0.8 0.0
H736 H 0.83866 0.20182 0.80349 0.0
S737 S 0.93724 0.10026 0.7993 0.0
N738 N 0.89847 0.08659 0.79866 0.0
N739 N 0.935 0.14127 0.80122 0.0
C740 C 0.90156 0.14551 0.80154 0.0
C741 C 0.88174 0.11581 0.80071 0.0
C742 C 0.29021 0.85471 0.33044 0.0
C743 C 0.29152 0.88969 0.33246 0.0
C744 C 0.31917 0.83579 0.3278 0.0
C745 C 0.3507 0.85099 0.32796 0.0
H746 H 0.26658 0.84171 0.32855 0.0
H747 H 0.31681 0.80903 0.32322 0.0
S748 S 0.36806 0.94154 0.33939 0.0
N749 N 0.32712 0.93872 0.33942 0.0
N750 N 0.38173 0.90297 0.33473 0.0
C751 C 0.35254 0.88581 0.33362 0.0
C752 C 0.32292 0.90521 0.33556 0.0
C753 C 0.56709 0.32403 0.80712 0.0
C754 C 0.58223 0.29261 0.81166 0.0
C755 C 0.5861 0.35349 0.80793 0.0
C756 C 0.62091 0.35252 0.81274 0.0
H757 H 0.54048 0.32591 0.80104 0.0
H758 H 0.57366 0.37696 0.80067 0.0
S759 S 0.67262 0.27742 0.83245 0.0
N760 N 0.6343 0.26297 0.8267 0.0
N761 N 0.66955 0.31821 0.82729 0.0
C762 C 0.63615 0.32158 0.82082 0.0
C763 C 0.61696 0.29167 0.82048 0.0
C764 C 0.67561 0.36088 0.18907 0.0
C765 C 0.6782 0.39545 0.19909 0.0
C766 C 0.64475 0.34466 0.18868 0.0
C767 C 0.6152 0.36233 0.19844 0.0
H768 H 0.69766 0.34587 0.18361 0.0
H769 H 0.64431 0.31782 0.18412 0.0
S770 S 0.60773 0.45388 0.2164 0.0
N771 N 0.64807 0.44736 0.21138 0.0
N772 N 0.59006 0.41684 0.21085 0.0
C773 C 0.6172 0.39719 0.20428 0.0
C774 C 0.64867 0.41374 0.20468 0.0
C775 C 0.06733 0.65334 0.72251 0.0
C776 C 0.08318 0.68465 0.719 0.0
C777 C 0.08557 0.62369 0.71928 0.0
C778 C 0.12033 0.6243 0.71284 0.0
H779 H 0.04078 0.65165 0.73001 0.0
H780 H 0.07261 0.6003 0.72611 0.0
S781 S 0.17348 0.69902 0.69269 0.0
N782 N 0.13566 0.71386 0.70158 0.0
N783 N 0.16952 0.65822 0.69655 0.0
C784 C 0.13619 0.65516 0.70512 0.0
C785 C 0.11775 0.6853 0.70797 0.0
C786 C 0.79409 0.10673 0.16176 0.0
C787 C 0.79356 0.07261 0.17636 0.0
C788 C 0.82359 0.12518 0.16272 0.0
C789 C 0.85396 0.11029 0.17741 0.0
H790 H 0.7713 0.1199 0.15221 0.0
H791 H 0.82235 0.15174 0.15484 0.0
S792 S 0.8672 0.02101 0.21127 0.0
N793 N 0.82677 0.02397 0.20006 0.0
N794 N 0.88246 0.05885 0.20157 0.0
C795 C 0.85437 0.07576 0.18769 0.0
C796 C 0.82411 0.0569 0.18741 0.0
C797 C 0.37943 0.84865 0.72159 0.0
C798 C 0.3445 0.84723 0.72027 0.0
C799 C 0.39848 0.81946 0.72114 0.0
C800 C 0.38332 0.78779 0.71864 0.0
H801 H 0.3921 0.87235 0.72668 0.0
H802 H 0.42525 0.82175 0.72421 0.0
S803 S 0.29244 0.77112 0.70811 0.0
N804 N 0.29556 0.81202 0.71189 0.0
N805 N 0.33092 0.75727 0.7102 0.0
C806 C 0.34835 0.78629 0.71384 0.0
C807 C 0.32909 0.81595 0.71485 0.0
C808 C 0.85347 0.38492 0.70261 0.0
C809 C 0.85277 0.35053 0.69077 0.0
C810 C 0.82401 0.40343 0.70463 0.0
C811 C 0.79287 0.3882 0.69444 0.0
H812 H 0.87662 0.39716 0.71464 0.0
H813 H 0.82562 0.42957 0.71645 0.0
S814 S 0.7788 0.29933 0.65275 0.0
N815 N 0.8193 0.30255 0.66279 0.0
N816 N 0.764 0.33694 0.66516 0.0
C817 C 0.79233 0.35415 0.67812 0.0
C818 C 0.82226 0.33544 0.67663 0.0
C819 C 0.09154 0.84373 0.29174 0.0
C820 C 0.11497 0.85259 0.24705 0.0
C821 C 0.07227 0.81483 0.28573 0.0
C822 C 0.07656 0.79348 0.23564 0.0
H823 H 0.08874 0.85884 0.33244 0.0
H824 H 0.05518 0.80833 0.32201 0.0
S825 S 0.13305 0.80704 0.10419 0.0
N826 N 0.1399 0.83937 0.14934 0.0
N827 N 0.1044 0.78421 0.13854 0.0
C828 C 0.09914 0.80272 0.18957 0.0
C829 C 0.11821 0.83257 0.19514 0.0
C830 C 0.64082 0.06727 0.70118 0.0
C831 C 0.67196 0.08264 0.69157 0.0
C832 C 0.61133 0.08586 0.70129 0.0
C833 C 0.61196 0.12047 0.69216 0.0
H834 H 0.63925 0.0409 0.71069 0.0
H835 H 0.58821 0.0734 0.71262 0.0
S836 S 0.68587 0.17233 0.65737 0.0
N837 N 0.70068 0.1345 0.66637 0.0
N838 N 0.64542 0.16892 0.66775 0.0
C839 C 0.64247 0.13578 0.67889 0.0
C840 C 0.6724 0.11702 0.67832 0.0
C841 C 0.40408 0.64775 0.2264 0.0
C842 C 0.38838 0.67837 0.21512 0.0
C843 C 0.38603 0.6177 0.22587 0.0
C844 C 0.35168 0.61731 0.21444 0.0
H845 H 0.43023 0.64703 0.2378 0.0
H846 H 0.3986 0.595 0.23851 0.0
S847 S 0.29929 0.68934 0.17465 0.0
N848 N 0.33664 0.70539 0.1857 0.0
N849 N 0.30316 0.64905 0.18632 0.0
C850 C 0.33609 0.64722 0.19961 0.0
C851 C 0.35431 0.67772 0.19952 0.0
C852 C 0.35282 0.58144 0.81433 0.0
C853 C 0.35434 0.61533 0.83006 0.0
C854 C 0.32232 0.56422 0.81337 0.0
C855 C 0.29239 0.58036 0.82831 0.0
H856 H 0.37488 0.56882 0.7983 0.0
H857 H 0.3221 0.53855 0.79823 0.0
S858 S 0.28464 0.66803 0.8816 0.0
N859 N 0.32454 0.66355 0.86675 0.0
N860 N 0.26739 0.63156 0.86672 0.0
C861 C 0.29427 0.61372 0.8487 0.0
C862 C 0.32521 0.6311 0.84911 0.0
C863 C 0.83368 0.31499 0.29884 0.0
C864 C 0.84948 0.34612 0.30397 0.0
C865 C 0.85194 0.28559 0.297 0.0
C866 C 0.88689 0.28604 0.29958 0.0
H867 H 0.80696 0.31337 0.29345 0.0
H868 H 0.83844 0.26242 0.29108 0.0
S869 S 0.94011 0.36097 0.32026 0.0
N870 N 0.90194 0.37566 0.31693 0.0
N871 N 0.93648 0.32018 0.31355 0.0
C872 C 0.90299 0.31689 0.3083 0.0
C873 C 0.88423 0.34696 0.31073 0.0
C874 C 0.11297 0.88989 0.8235 0.0
C875 C 0.11084 0.85763 0.84786 0.0
C876 C 0.14349 0.90698 0.82082 0.0
C877 C 0.17294 0.89243 0.84253 0.0
H878 H 0.09143 0.9011 0.80252 0.0
H879 H 0.14418 0.93113 0.79912 0.0
S880 S 0.17897 0.81056 0.92024 0.0
N881 N 0.13955 0.81338 0.90045 0.0
N882 N 0.19672 0.84534 0.89679 0.0
C883 C 0.17043 0.86114 0.87127 0.0
C884 C 0.13944 0.8438 0.8736 0.0
C885 C 0.63224 0.15396 0.23133 0.0
C886 C 0.62902 0.12851 0.27513 0.0
C887 C 0.61421 0.18336 0.23568 0.0
C888 C 0.5925 0.18904 0.28452 0.0
H889 H 0.64814 0.15095 0.19188 0.0
H890 H 0.6174 0.20183 0.20028 0.0
S891 S 0.57587 0.13154 0.41321 0.0
N892 N 0.60288 0.1115 0.37011 0.0
N893 N 0.56931 0.16744 0.37905 0.0
C894 C 0.58961 0.16444 0.32986 0.0
C895 C 0.60775 0.13404 0.32496 0.0
loop_
_geom_bond_atom_site_label_1
_geom_bond_atom_site_label_2
_geom_bond_distance
_geom_bond_site_symmetry_2
_ccdc_geom_bond_type
O0 Zn1 1.953 . S
O0 C16 1.225 . S
Zn1 O0 1.953 . S
Zn1 O2 1.949 . S
Zn1 O8 1.919 . S
Zn1 O13 1.924 . S
O2 Zn1 1.949 . S
O2 Zn3 1.923 . S
O2 Zn4 1.950 . S
O2 Zn5 1.945 . S
Zn3 O2 1.923 . S
Zn3 O6 1.933 . S
Zn3 O9 1.941 . S
Zn3 O10 1.965 . S
Zn4 O2 1.950 . S
Zn4 O11 1.938 . S
Zn4 O12 1.906 . S
Zn4 O22 1.953 . S
Zn5 O2 1.945 . S
Zn5 O7 1.932 . S
Zn5 O14 1.977 . S
Zn5 O15 1.910 . S
O6 Zn3 1.933 . S
O6 C17 1.226 . S
O7 Zn5 1.932 . S
O7 C17 1.307 . S
O8 Zn1 1.919 . S
O8 C19 1.253 . S
O9 Zn3 1.941 . S
O9 C19 1.283 . S
O10 Zn3 1.965 . S
O10 C18 1.303 . S
O11 Zn4 1.938 . S
O11 C18 1.247 . S
O12 Zn4 1.906 . S
O12 C20 1.304 . S
O13 Zn1 1.924 . S
O13 C21 1.311 . S
O14 Zn5 1.977 . S
O14 C20 1.272 . S
O15 Zn5 1.910 . S
O15 C21 1.231 . S
C16 O0 1.225 . S
C16 O22 1.298 . S
C17 O6 1.226 . S
C17 O7 1.307 . S
C18 O10 1.303 . S
C18 O11 1.247 . S
C19 O8 1.253 . S
C19 O9 1.283 . S
C20 O12 1.304 . S
C20 O14 1.272 . S
C21 O13 1.311 . S
C21 O15 1.231 . S
O22 Zn4 1.953 . S
O22 C16 1.298 . S
O23 Zn24 1.953 . S
O23 C39 1.225 . S
Zn24 O23 1.953 . S
Zn24 O25 1.949 . S
Zn24 O31 1.919 . S
Zn24 O36 1.924 . S
O25 Zn24 1.949 . S
O25 Zn26 1.923 . S
O25 Zn27 1.950 . S
O25 Zn28 1.945 . S
Zn26 O25 1.923 . S
Zn26 O29 1.933 1_655 S
Zn26 O32 1.941 . S
Zn26 O33 1.965 1_655 S
Zn27 O25 1.950 . S
Zn27 O34 1.938 1_655 S
Zn27 O35 1.906 1_655 S
Zn27 O45 1.953 . S
Zn28 O25 1.945 . S
Zn28 O30 1.932 . S
Zn28 O37 1.977 1_655 S
Zn28 O38 1.910 . S
O29 Zn26 1.933 1_455 S
O29 C40 1.226 . S
O30 Zn28 1.932 . S
O30 C40 1.307 1_655 S
O31 Zn24 1.919 . S
O31 C42 1.253 . S
O32 Zn26 1.941 . S
O32 C42 1.283 . S
O33 Zn26 1.965 1_455 S
O33 C41 1.303 . S
O34 Zn27 1.938 1_455 S
O34 C41 1.247 . S
O35 Zn27 1.906 1_455 S
O35 C43 1.304 . S
O36 Zn24 1.924 . S
O36 C44 1.311 . S
O37 Zn28 1.977 1_455 S
O37 C43 1.272 . S
O38 Zn28 1.910 . S
O38 C44 1.231 . S
C39 O23 1.225 . S
C39 O45 1.298 . S
C40 O29 1.226 . S
C40 O30 1.307 1_455 S
C41 O33 1.303 . S
C41 O34 1.247 . S
C42 O31 1.253 . S
C42 O32 1.283 . S
C43 O35 1.304 . S
C43 O37 1.272 . S
C44 O36 1.311 . S
C44 O38 1.231 . S
O45 Zn27 1.953 . S
O45 C39 1.298 . S
O46 Zn47 1.953 . S
O46 C62 1.225 . S
Zn47 O46 1.953 . S
Zn47 O48 1.949 . S
Zn47 O54 1.919 . S
Zn47 O59 1.924 . S
O48 Zn47 1.949 . S
O48 Zn49 1.923 . S
O48 Zn50 1.950 . S
O48 Zn51 1.945 . S
Zn49 O48 1.923 . S
Zn49 O52 1.933 1_565 S
Zn49 O55 1.941 . S
Zn49 O56 1.965 1_565 S
Zn50 O48 1.950 . S
Zn50 O57 1.938 1_565 S
Zn50 O58 1.906 1_565 S
Zn50 O68 1.953 . S
Zn51 O48 1.945 . S
Zn51 O53 1.932 . S
Zn51 O60 1.977 1_565 S
Zn51 O61 1.910 . S
O52 Zn49 1.933 1_545 S
O52 C63 1.226 . S
O53 Zn51 1.932 . S
O53 C63 1.307 1_565 S
O54 Zn47 1.919 . S
O54 C65 1.253 . S
O55 Zn49 1.941 . S
O55 C65 1.283 . S
O56 Zn49 1.965 1_545 S
O56 C64 1.303 . S
O57 Zn50 1.938 1_545 S
O57 C64 1.247 . S
O58 Zn50 1.906 1_545 S
O58 C66 1.304 . S
O59 Zn47 1.924 . S
O59 C67 1.311 . S
O60 Zn51 1.977 1_545 S
O60 C66 1.272 . S
O61 Zn51 1.910 . S
O61 C67 1.231 . S
C62 O46 1.225 . S
C62 O68 1.298 . S
C63 O52 1.226 . S
C63 O53 1.307 1_545 S
C64 O56 1.303 . S
C64 O57 1.247 . S
C65 O54 1.253 . S
C65 O55 1.283 . S
C66 O58 1.304 . S
C66 O60 1.272 . S
C67 O59 1.311 . S
C67 O61 1.231 . S
O68 Zn50 1.953 . S
O68 C62 1.298 . S
O69 Zn70 1.953 . S
O69 C85 1.225 . S
Zn70 O69 1.953 . S
Zn70 O71 1.949 . S
Zn70 O77 1.919 . S
Zn70 O82 1.924 . S
O71 Zn70 1.949 . S
O71 Zn72 1.923 . S
O71 Zn73 1.950 . S
O71 Zn74 1.945 . S
Zn72 O71 1.923 . S
Zn72 O75 1.933 . S
Zn72 O78 1.941 . S
Zn72 O79 1.965 . S
Zn73 O71 1.950 . S
Zn73 O80 1.938 . S
Zn73 O81 1.906 . S
Zn73 O91 1.953 . S
Zn74 O71 1.945 . S
Zn74 O76 1.932 . S
Zn74 O83 1.977 . S
Zn74 O84 1.910 . S
O75 Zn72 1.933 . S
O75 C86 1.226 . S
O76 Zn74 1.932 . S
O76 C86 1.307 . S
O77 Zn70 1.919 . S
O77 C88 1.253 . S
O78 Zn72 1.941 . S
O78 C88 1.283 . S
O79 Zn72 1.965 . S
O79 C87 1.303 . S
O80 Zn73 1.938 . S
O80 C87 1.247 . S
O81 Zn73 1.906 . S
O81 C89 1.304 . S
O82 Zn70 1.924 . S
O82 C90 1.311 . S
O83 Zn74 1.977 . S
O83 C89 1.272 . S
O84 Zn74 1.910 . S
O84 C90 1.231 . S
C85 O69 1.225 . S
C85 O91 1.298 . S
C86 O75 1.226 . S
C86 O76 1.307 . S
C87 O79 1.303 . S
C87 O80 1.247 . S
C88 O77 1.253 . S
C88 O78 1.283 . S
C89 O81 1.304 . S
C89 O83 1.272 . S
C90 O82 1.311 . S
C90 O84 1.231 . S
O91 Zn73 1.953 . S
O91 C85 1.298 . S
O92 Zn93 1.953 . S
O92 C108 1.225 . S
Zn93 O92 1.953 . S
Zn93 O94 1.949 . S
Zn93 O100 1.919 . S
Zn93 O105 1.924 . S
O94 Zn93 1.949 . S
O94 Zn95 1.923 . S
O94 Zn96 1.950 . S
O94 Zn97 1.945 . S
Zn95 O94 1.923 . S
Zn95 O98 1.933 . S
Zn95 O101 1.941 . S
Zn95 O102 1.965 . S
Zn96 O94 1.950 . S
Zn96 O103 1.938 . S
Zn96 O104 1.906 . S
Zn96 O114 1.953 . S
Zn97 O94 1.945 . S
Zn97 O99 1.932 . S
Zn97 O106 1.977 . S
Zn97 O107 1.910 . S
O98 Zn95 1.933 . S
O98 C109 1.226 . S
O99 Zn97 1.932 . S
O99 C109 1.307 . S
O100 Zn93 1.919 . S
O100 C111 1.253 . S
O101 Zn95 1.941 . S
O101 C111 1.283 . S
O102 Zn95 1.965 . S
O102 C110 1.303 . S
O103 Zn96 1.938 . S
O103 C110 1.247 . S
O104 Zn96 1.906 . S
O104 C112 1.304 . S
O105 Zn93 1.924 . S
O105 C113 1.311 . S
O106 Zn97 1.977 . S
O106 C112 1.272 . S
O107 Zn97 1.910 . S
O107 C113 1.231 . S
C108 O92 1.225 . S
C108 O114 1.298 . S
C109 O98 1.226 . S
C109 O99 1.307 . S
C110 O102 1.303 . S
C110 O103 1.247 . S
C111 O100 1.253 . S
C111 O101 1.283 . S
C112 O104 1.304 . S
C112 O106 1.272 . S
C113 O105 1.311 . S
C113 O107 1.231 . S
O114 Zn96 1.953 . S
O114 C108 1.298 . S
O115 Zn116 1.953 . S
O115 C131 1.225 . S
Zn116 O115 1.953 . S
Zn116 O117 1.949 . S
Zn116 O123 1.919 . S
Zn116 O128 1.924 . S
O117 Zn116 1.949 . S
O117 Zn118 1.923 . S
O117 Zn119 1.950 . S
O117 Zn120 1.945 . S
Zn118 O117 1.923 . S
Zn118 O121 1.933 1_455 S
Zn118 O124 1.941 . S
Zn118 O125 1.965 1_455 S
Zn119 O117 1.950 . S
Zn119 O126 1.938 1_455 S
Zn119 O127 1.906 1_455 S
Zn119 O137 1.953 . S
Zn120 O117 1.945 . S
Zn120 O122 1.932 . S
Zn120 O129 1.977 1_455 S
Zn120 O130 1.910 . S
O121 Zn118 1.933 1_655 S
O121 C132 1.226 . S
O122 Zn120 1.932 . S
O122 C132 1.307 1_455 S
O123 Zn116 1.919 . S
O123 C134 1.253 . S
O124 Zn118 1.941 . S
O124 C134 1.283 . S
O125 Zn118 1.965 1_655 S
O125 C133 1.303 . S
O126 Zn119 1.938 1_655 S
O126 C133 1.247 . S
O127 Zn119 1.906 1_655 S
O127 C135 1.304 . S
O128 Zn116 1.924 . S
O128 C136 1.311 . S
O129 Zn120 1.977 1_655 S
O129 C135 1.272 . S
O130 Zn120 1.910 . S
O130 C136 1.231 . S
C131 O115 1.225 . S
C131 O137 1.298 . S
C132 O121 1.226 . S
C132 O122 1.307 1_655 S
C133 O125 1.303 . S
C133 O126 1.247 . S
C134 O123 1.253 . S
C134 O124 1.283 . S
C135 O127 1.304 . S
C135 O129 1.272 . S
C136 O128 1.311 . S
C136 O130 1.231 . S
O137 Zn119 1.953 . S
O137 C131 1.298 . S
O138 Zn139 1.953 . S
O138 C154 1.225 . S
Zn139 O138 1.953 . S
Zn139 O140 1.949 . S
Zn139 O146 1.919 . S
Zn139 O151 1.924 . S
O140 Zn139 1.949 . S
O140 Zn141 1.923 . S
O140 Zn142 1.950 . S
O140 Zn143 1.945 . S
Zn141 O140 1.923 . S
Zn141 O144 1.933 1_545 S
Zn141 O147 1.941 . S
Zn141 O148 1.965 1_545 S
Zn142 O140 1.950 . S
Zn142 O149 1.938 1_545 S
Zn142 O150 1.906 1_545 S
Zn142 O160 1.953 . S
Zn143 O140 1.945 . S
Zn143 O145 1.932 . S
Zn143 O152 1.977 1_545 S
Zn143 O153 1.910 . S
O144 Zn141 1.933 1_565 S
O144 C155 1.226 . S
O145 Zn143 1.932 . S
O145 C155 1.307 1_545 S
O146 Zn139 1.919 . S
O146 C157 1.253 . S
O147 Zn141 1.941 . S
O147 C157 1.283 . S
O148 Zn141 1.965 1_565 S
O148 C156 1.303 . S
O149 Zn142 1.938 1_565 S
O149 C156 1.247 . S
O150 Zn142 1.906 1_565 S
O150 C158 1.304 . S
O151 Zn139 1.924 . S
O151 C159 1.311 . S
O152 Zn143 1.977 1_565 S
O152 C158 1.272 . S
O153 Zn143 1.910 . S
O153 C159 1.231 . S
C154 O138 1.225 . S
C154 O160 1.298 . S
C155 O144 1.226 . S
C155 O145 1.307 1_565 S
C156 O148 1.303 . S
C156 O149 1.247 . S
C157 O146 1.253 . S
C157 O147 1.283 . S
C158 O150 1.304 . S
C158 O152 1.272 . S
C159 O151 1.311 . S
C159 O153 1.231 . S
O160 Zn142 1.953 . S
O160 C154 1.298 . S
O161 Zn162 1.953 . S
O161 C177 1.225 . S
Zn162 O161 1.953 . S
Zn162 O163 1.949 . S
Zn162 O169 1.919 . S
Zn162 O174 1.924 . S
O163 Zn162 1.949 . S
O163 Zn164 1.923 . S
O163 Zn165 1.950 . S
O163 Zn166 1.945 . S
Zn164 O163 1.923 . S
Zn164 O167 1.933 . S
Zn164 O170 1.941 . S
Zn164 O171 1.965 . S
Zn165 O163 1.950 . S
Zn165 O172 1.938 . S
Zn165 O173 1.906 . S
Zn165 O183 1.953 . S
Zn166 O163 1.945 . S
Zn166 O168 1.932 . S
Zn166 O175 1.977 . S
Zn166 O176 1.910 . S
O167 Zn164 1.933 . S
O167 C178 1.226 . S
O168 Zn166 1.932 . S
O168 C178 1.307 . S
O169 Zn162 1.919 . S
O169 C180 1.253 . S
O170 Zn164 1.941 . S
O170 C180 1.283 . S
O171 Zn164 1.965 . S
O171 C179 1.303 . S
O172 Zn165 1.938 . S
O172 C179 1.247 . S
O173 Zn165 1.906 . S
O173 C181 1.304 . S
O174 Zn162 1.924 . S
O174 C182 1.311 . S
O175 Zn166 1.977 . S
O175 C181 1.272 . S
O176 Zn166 1.910 . S
O176 C182 1.231 . S
C177 O161 1.225 . S
C177 O183 1.298 . S
C178 O167 1.226 . S
C178 O168 1.307 . S
C179 O171 1.303 . S
C179 O172 1.247 . S
C180 O169 1.253 . S
C180 O170 1.283 . S
C181 O173 1.304 . S
C181 O175 1.272 . S
C182 O174 1.311 . S
C182 O176 1.231 . S
O183 Zn165 1.953 . S
O183 C177 1.298 . S
O184 Zn185 1.953 . S
O184 C200 1.225 . S
Zn185 O184 1.953 . S
Zn185 O186 1.949 . S
Zn185 O192 1.919 . S
Zn185 O197 1.924 . S
O186 Zn185 1.949 . S
O186 Zn187 1.923 . S
O186 Zn188 1.950 . S
O186 Zn189 1.945 . S
Zn187 O186 1.923 . S
Zn187 O190 1.933 . S
Zn187 O193 1.941 . S
Zn187 O194 1.965 . S
Zn188 O186 1.950 . S
Zn188 O195 1.938 . S
Zn188 O196 1.906 . S
Zn188 O206 1.953 . S
Zn189 O186 1.945 . S
Zn189 O191 1.932 . S
Zn189 O198 1.977 . S
Zn189 O199 1.910 . S
O190 Zn187 1.933 . S
O190 C201 1.226 . S
O191 Zn189 1.932 . S
O191 C201 1.307 . S
O192 Zn185 1.919 . S
O192 C203 1.253 . S
O193 Zn187 1.941 . S
O193 C203 1.283 . S
O194 Zn187 1.965 . S
O194 C202 1.303 . S
O195 Zn188 1.938 . S
O195 C202 1.247 . S
O196 Zn188 1.906 . S
O196 C204 1.304 . S
O197 Zn185 1.924 . S
O197 C205 1.311 . S
O198 Zn189 1.977 . S
O198 C204 1.272 . S
O199 Zn189 1.910 . S
O199 C205 1.231 . S
C200 O184 1.225 . S
C200 O206 1.298 . S
C201 O190 1.226 . S
C201 O191 1.307 . S
C202 O194 1.303 . S
C202 O195 1.247 . S
C203 O192 1.253 . S
C203 O193 1.283 . S
C204 O196 1.304 . S
C204 O198 1.272 . S
C205 O197 1.311 . S
C205 O199 1.231 . S
O206 Zn188 1.953 . S
O206 C200 1.298 . S
O207 Zn208 1.953 . S
O207 C223 1.225 . S
Zn208 O207 1.953 . S
Zn208 O209 1.949 . S
Zn208 O215 1.919 . S
Zn208 O220 1.924 . S
O209 Zn208 1.949 . S
O209 Zn210 1.923 . S
O209 Zn211 1.950 . S
O209 Zn212 1.945 . S
Zn210 O209 1.923 . S
Zn210 O213 1.933 1_455 S
Zn210 O216 1.941 . S
Zn210 O217 1.965 1_455 S
Zn211 O209 1.950 . S
Zn211 O218 1.938 1_455 S
Zn211 O219 1.906 1_455 S
Zn211 O229 1.953 . S
Zn212 O209 1.945 . S
Zn212 O214 1.932 . S
Zn212 O221 1.977 1_455 S
Zn212 O222 1.910 . S
O213 Zn210 1.933 1_655 S
O213 C224 1.226 . S
O214 Zn212 1.932 . S
O214 C224 1.307 1_455 S
O215 Zn208 1.919 . S
O215 C226 1.253 . S
O216 Zn210 1.941 . S
O216 C226 1.283 . S
O217 Zn210 1.965 1_655 S
O217 C225 1.303 . S
O218 Zn211 1.938 1_655 S
O218 C225 1.247 . S
O219 Zn211 1.906 1_655 S
O219 C227 1.304 . S
O220 Zn208 1.924 . S
O220 C228 1.311 . S
O221 Zn212 1.977 1_655 S
O221 C227 1.272 . S
O222 Zn212 1.910 . S
O222 C228 1.231 . S
C223 O207 1.225 . S
C223 O229 1.298 . S
C224 O213 1.226 . S
C224 O214 1.307 1_655 S
C225 O217 1.303 . S
C225 O218 1.247 . S
C226 O215 1.253 . S
C226 O216 1.283 . S
C227 O219 1.304 . S
C227 O221 1.272 . S
C228 O220 1.311 . S
C228 O222 1.231 . S
O229 Zn211 1.953 . S
O229 C223 1.298 . S
O230 Zn231 1.953 . S
O230 C246 1.225 . S
Zn231 O230 1.953 . S
Zn231 O232 1.949 . S
Zn231 O238 1.919 . S
Zn231 O243 1.924 . S
O232 Zn231 1.949 . S
O232 Zn233 1.923 . S
O232 Zn234 1.950 . S
O232 Zn235 1.945 . S
Zn233 O232 1.923 . S
Zn233 O236 1.933 1_545 S
Zn233 O239 1.941 . S
Zn233 O240 1.965 1_545 S
Zn234 O232 1.950 . S
Zn234 O241 1.938 1_545 S
Zn234 O242 1.906 1_545 S
Zn234 O252 1.953 . S
Zn235 O232 1.945 . S
Zn235 O237 1.932 . S
Zn235 O244 1.977 1_545 S
Zn235 O245 1.910 . S
O236 Zn233 1.933 1_565 S
O236 C247 1.226 . S
O237 Zn235 1.932 . S
O237 C247 1.307 1_545 S
O238 Zn231 1.919 . S
O238 C249 1.253 . S
O239 Zn233 1.941 . S
O239 C249 1.283 . S
O240 Zn233 1.965 1_565 S
O240 C248 1.303 . S
O241 Zn234 1.938 1_565 S
O241 C248 1.247 . S
O242 Zn234 1.906 1_565 S
O242 C250 1.304 . S
O243 Zn231 1.924 . S
O243 C251 1.311 . S
O244 Zn235 1.977 1_565 S
O244 C250 1.272 . S
O245 Zn235 1.910 . S
O245 C251 1.231 . S
C246 O230 1.225 . S
C246 O252 1.298 . S
C247 O236 1.226 . S
C247 O237 1.307 1_565 S
C248 O240 1.303 . S
C248 O241 1.247 . S
C249 O238 1.253 . S
C249 O239 1.283 . S
C250 O242 1.304 . S
C250 O244 1.272 . S
C251 O243 1.311 . S
C251 O245 1.231 . S
O252 Zn234 1.953 . S
O252 C246 1.298 . S
O253 Zn254 1.953 . S
O253 C269 1.225 . S
Zn254 O253 1.953 . S
Zn254 O255 1.949 . S
Zn254 O261 1.919 . S
Zn254 O266 1.924 . S
O255 Zn254 1.949 . S
O255 Zn256 1.923 . S
O255 Zn257 1.950 . S
O255 Zn258 1.945 . S
Zn256 O255 1.923 . S
Zn256 O259 1.933 . S
Zn256 O262 1.941 . S
Zn256 O263 1.965 . S
Zn257 O255 1.950 . S
Zn257 O264 1.938 . S
Zn257 O265 1.906 . S
Zn257 O275 1.953 . S
Zn258 O255 1.945 . S
Zn258 O260 1.932 . S
Zn258 O267 1.977 . S
Zn258 O268 1.910 . S
O259 Zn256 1.933 . S
O259 C270 1.226 . S
O260 Zn258 1.932 . S
O260 C270 1.307 . S
O261 Zn254 1.919 . S
O261 C272 1.253 . S
O262 Zn256 1.941 . S
O262 C272 1.283 . S
O263 Zn256 1.965 . S
O263 C271 1.303 . S
O264 Zn257 1.938 . S
O264 C271 1.247 . S
O265 Zn257 1.906 . S
O265 C273 1.304 . S
O266 Zn254 1.924 . S
O266 C274 1.311 . S
O267 Zn258 1.977 . S
O267 C273 1.272 . S
O268 Zn258 1.910 . S
O268 C274 1.231 . S
C269 O253 1.225 . S
C269 O275 1.298 . S
C270 O259 1.226 . S
C270 O260 1.307 . S
C271 O263 1.303 . S
C271 O264 1.247 . S
C272 O261 1.253 . S
C272 O262 1.283 . S
C273 O265 1.304 . S
C273 O267 1.272 . S
C274 O266 1.311 . S
C274 O268 1.231 . S
O275 Zn257 1.953 . S
O275 C269 1.298 . S
O276 Zn277 1.953 . S
O276 C292 1.225 . S
Zn277 O276 1.953 . S
Zn277 O278 1.949 . S
Zn277 O284 1.919 . S
Zn277 O289 1.924 . S
O278 Zn277 1.949 . S
O278 Zn279 1.923 . S
O278 Zn280 1.950 . S
O278 Zn281 1.945 . S
Zn279 O278 1.923 . S
Zn279 O282 1.933 . S
Zn279 O285 1.941 . S
Zn279 O286 1.965 . S
Zn280 O278 1.950 . S
Zn280 O287 1.938 . S
Zn280 O288 1.906 . S
Zn280 O298 1.953 . S
Zn281 O278 1.945 . S
Zn281 O283 1.932 . S
Zn281 O290 1.977 . S
Zn281 O291 1.910 . S
O282 Zn279 1.933 . S
O282 C293 1.226 . S
O283 Zn281 1.932 . S
O283 C293 1.307 . S
O284 Zn277 1.919 . S
O284 C295 1.253 . S
O285 Zn279 1.941 . S
O285 C295 1.283 . S
O286 Zn279 1.965 . S
O286 C294 1.303 . S
O287 Zn280 1.938 . S
O287 C294 1.247 . S
O288 Zn280 1.906 . S
O288 C296 1.304 . S
O289 Zn277 1.924 . S
O289 C297 1.311 . S
O290 Zn281 1.977 . S
O290 C296 1.272 . S
O291 Zn281 1.910 . S
O291 C297 1.231 . S
C292 O276 1.225 . S
C292 O298 1.298 . S
C293 O282 1.226 . S
C293 O283 1.307 . S
C294 O286 1.303 . S
C294 O287 1.247 . S
C295 O284 1.253 . S
C295 O285 1.283 . S
C296 O288 1.304 . S
C296 O290 1.272 . S
C297 O289 1.311 . S
C297 O291 1.231 . S
O298 Zn280 1.953 . S
O298 C292 1.298 . S
O299 Zn300 1.953 . S
O299 C315 1.225 . S
Zn300 O299 1.953 . S
Zn300 O301 1.949 . S
Zn300 O307 1.919 . S
Zn300 O312 1.924 . S
O301 Zn300 1.949 . S
O301 Zn302 1.923 . S
O301 Zn303 1.950 . S
O301 Zn304 1.945 . S
Zn302 O301 1.923 . S
Zn302 O305 1.933 1_655 S
Zn302 O308 1.941 . S
Zn302 O309 1.965 1_655 S
Zn303 O301 1.950 . S
Zn303 O310 1.938 1_655 S
Zn303 O311 1.906 1_655 S
Zn303 O321 1.953 . S
Zn304 O301 1.945 . S
Zn304 O306 1.932 . S
Zn304 O313 1.977 1_655 S
Zn304 O314 1.910 . S
O305 Zn302 1.933 1_455 S
O305 C316 1.226 . S
O306 Zn304 1.932 . S
O306 C316 1.307 1_655 S
O307 Zn300 1.919 . S
O307 C318 1.253 . S
O308 Zn302 1.941 . S
O308 C318 1.283 . S
O309 Zn302 1.965 1_455 S
O309 C317 1.303 . S
O310 Zn303 1.938 1_455 S
O310 C317 1.247 . S
O311 Zn303 1.906 1_455 S
O311 C319 1.304 . S
O312 Zn300 1.924 . S
O312 C320 1.311 . S
O313 Zn304 1.977 1_455 S
O313 C319 1.272 . S
O314 Zn304 1.910 . S
O314 C320 1.231 . S
C315 O299 1.225 . S
C315 O321 1.298 . S
C316 O305 1.226 . S
C316 O306 1.307 1_455 S
C317 O309 1.303 . S
C317 O310 1.247 . S
C318 O307 1.253 . S
C318 O308 1.283 . S
C319 O311 1.304 . S
C319 O313 1.272 . S
C320 O312 1.311 . S
C320 O314 1.231 . S
O321 Zn303 1.953 . S
O321 C315 1.298 . S
O322 Zn323 1.953 . S
O322 C338 1.225 . S
Zn323 O322 1.953 . S
Zn323 O324 1.949 . S
Zn323 O330 1.919 . S
Zn323 O335 1.924 . S
O324 Zn323 1.949 . S
O324 Zn325 1.923 . S
O324 Zn326 1.950 . S
O324 Zn327 1.945 . S
Zn325 O324 1.923 . S
Zn325 O328 1.933 1_565 S
Zn325 O331 1.941 . S
Zn325 O332 1.965 1_565 S
Zn326 O324 1.950 . S
Zn326 O333 1.938 1_565 S
Zn326 O334 1.906 1_565 S
Zn326 O344 1.953 . S
Zn327 O324 1.945 . S
Zn327 O329 1.932 . S
Zn327 O336 1.977 1_565 S
Zn327 O337 1.910 . S
O328 Zn325 1.933 1_545 S
O328 C339 1.226 . S
O329 Zn327 1.932 . S
O329 C339 1.307 1_565 S
O330 Zn323 1.919 . S
O330 C341 1.253 . S
O331 Zn325 1.941 . S
O331 C341 1.283 . S
O332 Zn325 1.965 1_545 S
O332 C340 1.303 . S
O333 Zn326 1.938 1_545 S
O333 C340 1.247 . S
O334 Zn326 1.906 1_545 S
O334 C342 1.304 . S
O335 Zn323 1.924 . S
O335 C343 1.311 . S
O336 Zn327 1.977 1_545 S
O336 C342 1.272 . S
O337 Zn327 1.910 . S
O337 C343 1.231 . S
C338 O322 1.225 . S
C338 O344 1.298 . S
C339 O328 1.226 . S
C339 O329 1.307 1_545 S
C340 O332 1.303 . S
C340 O333 1.247 . S
C341 O330 1.253 . S
C341 O331 1.283 . S
C342 O334 1.304 . S
C342 O336 1.272 . S
C343 O335 1.311 . S
C343 O337 1.231 . S
O344 Zn326 1.953 . S
O344 C338 1.298 . S
O345 Zn346 1.953 . S
O345 C361 1.225 . S
Zn346 O345 1.953 . S
Zn346 O347 1.949 . S
Zn346 O353 1.919 . S
Zn346 O358 1.924 . S
O347 Zn346 1.949 . S
O347 Zn348 1.923 . S
O347 Zn349 1.950 . S
O347 Zn350 1.945 . S
Zn348 O347 1.923 . S
Zn348 O351 1.933 . S
Zn348 O354 1.941 . S
Zn348 O355 1.965 . S
Zn349 O347 1.950 . S
Zn349 O356 1.938 . S
Zn349 O357 1.906 . S
Zn349 O367 1.953 . S
Zn350 O347 1.945 . S
Zn350 O352 1.932 . S
Zn350 O359 1.977 . S
Zn350 O360 1.910 . S
O351 Zn348 1.933 . S
O351 C362 1.226 . S
O352 Zn350 1.932 . S
O352 C362 1.307 . S
O353 Zn346 1.919 . S
O353 C364 1.253 . S
O354 Zn348 1.941 . S
O354 C364 1.283 . S
O355 Zn348 1.965 . S
O355 C363 1.303 . S
O356 Zn349 1.938 . S
O356 C363 1.247 . S
O357 Zn349 1.906 . S
O357 C365 1.304 . S
O358 Zn346 1.924 . S
O358 C366 1.311 . S
O359 Zn350 1.977 . S
O359 C365 1.272 . S
O360 Zn350 1.910 . S
O360 C366 1.231 . S
C361 O345 1.225 . S
C361 O367 1.298 . S
C362 O351 1.226 . S
C362 O352 1.307 . S
C363 O355 1.303 . S
C363 O356 1.247 . S
C364 O353 1.253 . S
C364 O354 1.283 . S
C365 O357 1.304 . S
C365 O359 1.272 . S
C366 O358 1.311 . S
C366 O360 1.231 . S
O367 Zn349 1.953 . S
O367 C361 1.298 . S
C368 C369 1.369 . S
C368 C370 1.419 . S
C368 H372 0.930 . S
C369 C368 1.369 . S
C369 C378 1.429 . S
C370 C368 1.419 . S
C370 C371 1.363 . S
C370 H373 0.929 . S
C371 C370 1.363 . S
C371 C377 1.428 . S
H372 C368 0.930 . S
H373 C370 0.929 . S
S374 N375 1.613 . S
S374 N376 1.610 . S
N375 S374 1.613 . S
N375 C378 1.350 . S
N376 S374 1.610 . S
N376 C377 1.351 . S
C377 C371 1.428 . S
C377 N376 1.351 . S
C377 C378 1.434 . S
C378 C369 1.429 . S
C378 N375 1.350 . S
C378 C377 1.434 . S
C379 C380 1.369 . S
C379 C381 1.419 . S
C379 H383 0.930 . S
C380 C379 1.369 . S
C380 C389 1.429 1_554 S
C381 C379 1.419 . S
C381 C382 1.363 1_554 S
C381 H384 0.929 . S
C382 C381 1.363 1_556 S
C382 C388 1.428 . S
H383 C379 0.930 . S
H384 C381 0.929 . S
S385 N386 1.613 . S
S385 N387 1.610 . S
N386 S385 1.613 . S
N386 C389 1.350 . S
N387 S385 1.610 . S
N387 C388 1.351 . S
C388 C382 1.428 . S
C388 N387 1.351 . S
C388 C389 1.434 . S
C389 C380 1.429 1_556 S
C389 N386 1.350 . S
C389 C388 1.434 . S
C390 C391 1.369 . S
C390 C392 1.419 . S
C390 H394 0.930 . S
C391 C390 1.369 . S
C391 C400 1.429 . S
C392 C390 1.419 . S
C392 C393 1.363 . S
C392 H395 0.929 . S
C393 C392 1.363 . S
C393 C399 1.428 . S
H394 C390 0.930 . S
H395 C392 0.929 . S
S396 N397 1.613 . S
S396 N398 1.610 . S
N397 S396 1.613 . S
N397 C400 1.350 . S
N398 S396 1.610 . S
N398 C399 1.351 . S
C399 C393 1.428 . S
C399 N398 1.351 . S
C399 C400 1.434 . S
C400 C391 1.429 . S
C400 N397 1.350 . S
C400 C399 1.434 . S
C401 C402 1.369 1_554 S
C401 C403 1.419 . S
C401 H405 0.930 . S
C402 C401 1.369 1_556 S
C402 C411 1.429 . S
C403 C401 1.419 . S
C403 C404 1.363 . S
C403 H406 0.929 . S
C404 C403 1.363 . S
C404 C410 1.428 1_554 S
H405 C401 0.930 . S
H406 C403 0.929 . S
S407 N408 1.613 . S
S407 N409 1.610 . S
N408 S407 1.613 . S
N408 C411 1.350 . S
N409 S407 1.610 . S
N409 C410 1.351 . S
C410 C404 1.428 1_556 S
C410 N409 1.351 . S
C410 C411 1.434 . S
C411 C402 1.429 . S
C411 N408 1.350 . S
C411 C410 1.434 . S
C412 C413 1.369 . S
C412 C414 1.419 . S
C412 H416 0.930 . S
C413 C412 1.369 . S
C413 C422 1.429 . S
C414 C412 1.419 . S
C414 C415 1.363 . S
C414 H417 0.929 . S
C415 C414 1.363 . S
C415 C421 1.428 . S
H416 C412 0.930 . S
H417 C414 0.929 . S
S418 N419 1.613 . S
S418 N420 1.610 . S
N419 S418 1.613 . S
N419 C422 1.350 . S
N420 S418 1.610 . S
N420 C421 1.351 . S
C421 C415 1.428 . S
C421 N420 1.351 . S
C421 C422 1.434 . S
C422 C413 1.429 . S
C422 N419 1.350 . S
C422 C421 1.434 . S
C423 C424 1.369 . S
C423 C425 1.419 1_556 S
C423 H427 0.930 . S
C424 C423 1.369 . S
C424 C433 1.429 . S
C425 C423 1.419 1_554 S
C425 C426 1.363 . S
C425 H428 0.929 . S
C426 C425 1.363 . S
C426 C432 1.428 . S
H427 C423 0.930 . S
H428 C425 0.929 . S
S429 N430 1.613 . S
S429 N431 1.610 . S
N430 S429 1.613 . S
N430 C433 1.350 1_554 S
N431 S429 1.610 . S
N431 C432 1.351 . S
C432 C426 1.428 . S
C432 N431 1.351 . S
C432 C433 1.434 1_554 S
C433 C424 1.429 . S
C433 N430 1.350 1_556 S
C433 C432 1.434 1_556 S
C434 C435 1.369 . S
C434 C436 1.419 . S
C434 H438 0.930 . S
C435 C434 1.369 . S
C435 C444 1.429 . S
C436 C434 1.419 . S
C436 C437 1.363 . S
C436 H439 0.929 . S
C437 C436 1.363 . S
C437 C443 1.428 . S
H438 C434 0.930 . S
H439 C436 0.929 . S
S440 N441 1.613 . S
S440 N442 1.610 . S
N441 S440 1.613 . S
N441 C444 1.350 . S
N442 S440 1.610 . S
N442 C443 1.351 . S
C443 C437 1.428 . S
C443 N442 1.351 . S
C443 C444 1.434 . S
C444 C435 1.429 . S
C444 N441 1.350 . S
C444 C443 1.434 . S
C445 C446 1.369 1_554 S
C445 C447 1.419 . S
C445 H449 0.930 . S
C446 C445 1.369 1_556 S
C446 C455 1.429 . S
C447 C445 1.419 . S
C447 C448 1.363 . S
C447 H450 0.929 . S
C448 C447 1.363 . S
C448 C454 1.428 1_554 S
H449 C445 0.930 . S
H450 C447 0.929 . S
S451 N452 1.613 . S
S451 N453 1.610 . S
N452 S451 1.613 . S
N452 C455 1.350 . S
N453 S451 1.610 . S
N453 C454 1.351 . S
C454 C448 1.428 1_556 S
C454 N453 1.351 . S
C454 C455 1.434 . S
C455 C446 1.429 . S
C455 N452 1.350 . S
C455 C454 1.434 . S
C456 C457 1.369 . S
C456 C458 1.419 . S
C456 H460 0.930 . S
C457 C456 1.369 . S
C457 C466 1.429 . S
C458 C456 1.419 . S
C458 C459 1.363 . S
C458 H461 0.929 . S
C459 C458 1.363 . S
C459 C465 1.428 . S
H460 C456 0.930 . S
H461 C458 0.929 . S
S462 N463 1.613 . S
S462 N464 1.610 . S
N463 S462 1.613 . S
N463 C466 1.350 . S
N464 S462 1.610 . S
N464 C465 1.351 . S
C465 C459 1.428 . S
C465 N464 1.351 . S
C465 C466 1.434 . S
C466 C457 1.429 . S
C466 N463 1.350 . S
C466 C465 1.434 . S
C467 C468 1.369 . S
C467 C469 1.419 . S
C467 H471 0.930 . S
C468 C467 1.369 . S
C468 C477 1.429 . S
C469 C467 1.419 . S
C469 C470 1.363 . S
C469 H472 0.929 . S
C470 C469 1.363 . S
C470 C476 1.428 . S
H471 C467 0.930 . S
H472 C469 0.929 . S
S473 N474 1.613 . S
S473 N475 1.610 . S
N474 S473 1.613 . S
N474 C477 1.350 . S
N475 S473 1.610 . S
N475 C476 1.351 . S
C476 C470 1.428 . S
C476 N475 1.351 . S
C476 C477 1.434 . S
C477 C468 1.429 . S
C477 N474 1.350 . S
C477 C476 1.434 . S
C478 C479 1.369 . S
C478 C480 1.419 . S
C478 H482 0.930 . S
C479 C478 1.369 . S
C479 C488 1.429 . S
C480 C478 1.419 . S
C480 C481 1.363 . S
C480 H483 0.929 . S
C481 C480 1.363 . S
C481 C487 1.428 . S
H482 C478 0.930 . S
H483 C480 0.929 . S
S484 N485 1.613 . S
S484 N486 1.610 . S
N485 S484 1.613 . S
N485 C488 1.350 . S
N486 S484 1.610 . S
N486 C487 1.351 . S
C487 C481 1.428 . S
C487 N486 1.351 . S
C487 C488 1.434 . S
C488 C479 1.429 . S
C488 N485 1.350 . S
C488 C487 1.434 . S
C489 C490 1.369 . S
C489 C491 1.419 . S
C489 H493 0.930 . S
C490 C489 1.369 . S
C490 C499 1.429 . S
C491 C489 1.419 . S
C491 C492 1.363 . S
C491 H494 0.929 . S
C492 C491 1.363 . S
C492 C498 1.428 . S
H493 C489 0.930 . S
H494 C491 0.929 . S
S495 N496 1.613 . S
S495 N497 1.610 . S
N496 S495 1.613 . S
N496 C499 1.350 . S
N497 S495 1.610 . S
N497 C498 1.351 . S
C498 C492 1.428 . S
C498 N497 1.351 . S
C498 C499 1.434 . S
C499 C490 1.429 . S
C499 N496 1.350 . S
C499 C498 1.434 . S
C500 C501 1.369 . S
C500 C502 1.419 . S
C500 H504 0.930 . S
C501 C500 1.369 . S
C501 C510 1.429 . S
C502 C500 1.419 . S
C502 C503 1.363 . S
C502 H505 0.929 . S
C503 C502 1.363 . S
C503 C509 1.428 . S
H504 C500 0.930 . S
H505 C502 0.929 . S
S506 N507 1.613 . S
S506 N508 1.610 . S
N507 S506 1.613 . S
N507 C510 1.350 . S
N508 S506 1.610 . S
N508 C509 1.351 . S
C509 C503 1.428 . S
C509 N508 1.351 . S
C509 C510 1.434 . S
C510 C501 1.429 . S
C510 N507 1.350 . S
C510 C509 1.434 . S
C511 C512 1.369 . S
C511 C513 1.419 . S
C511 H515 0.930 . S
C512 C511 1.369 . S
C512 C521 1.429 . S
C513 C511 1.419 . S
C513 C514 1.363 . S
C513 H516 0.929 . S
C514 C513 1.363 . S
C514 C520 1.428 . S
H515 C511 0.930 . S
H516 C513 0.929 . S
S517 N518 1.613 . S
S517 N519 1.610 . S
N518 S517 1.613 . S
N518 C521 1.350 . S
N519 S517 1.610 . S
N519 C520 1.351 . S
C520 C514 1.428 . S
C520 N519 1.351 . S
C520 C521 1.434 . S
C521 C512 1.429 . S
C521 N518 1.350 . S
C521 C520 1.434 . S
C522 C523 1.369 . S
C522 C524 1.419 . S
C522 H526 0.930 . S
C523 C522 1.369 . S
C523 C532 1.429 . S
C524 C522 1.419 . S
C524 C525 1.363 . S
C524 H527 0.929 . S
C525 C524 1.363 . S
C525 C531 1.428 . S
H526 C522 0.930 . S
H527 C524 0.929 . S
S528 N529 1.613 . S
S528 N530 1.610 . S
N529 S528 1.613 . S
N529 C532 1.350 . S
N530 S528 1.610 . S
N530 C531 1.351 . S
C531 C525 1.428 . S
C531 N530 1.351 . S
C531 C532 1.434 . S
C532 C523 1.429 . S
C532 N529 1.350 . S
C532 C531 1.434 . S
C533 C534 1.369 . S
C533 C535 1.419 . S
C533 H537 0.930 . S
C534 C533 1.369 . S
C534 C543 1.429 . S
C535 C533 1.419 . S
C535 C536 1.363 . S
C535 H538 0.929 . S
C536 C535 1.363 . S
C536 C542 1.428 . S
H537 C533 0.930 . S
H538 C535 0.929 . S
S539 N540 1.613 . S
S539 N541 1.610 . S
N540 S539 1.613 . S
N540 C543 1.350 . S
N541 S539 1.610 . S
N541 C542 1.351 . S
C542 C536 1.428 . S
C542 N541 1.351 . S
C542 C543 1.434 . S
C543 C534 1.429 . S
C543 N540 1.350 . S
C543 C542 1.434 . S
C544 C545 1.369 1_554 S
C544 C546 1.419 . S
C544 H548 0.930 1_554 S
C545 C544 1.369 1_556 S
C545 C554 1.429 1_556 S
C546 C544 1.419 . S
C546 C547 1.363 . S
C546 H549 0.929 . S
C547 C546 1.363 . S
C547 C553 1.428 . S
H548 C544 0.930 1_556 S
H549 C546 0.929 . S
S550 N551 1.613 . S
S550 N552 1.610 . S
N551 S550 1.613 . S
N551 C554 1.350 . S
N552 S550 1.610 . S
N552 C553 1.351 . S
C553 C547 1.428 . S
C553 N552 1.351 . S
C553 C554 1.434 . S
C554 C545 1.429 1_554 S
C554 N551 1.350 . S
C554 C553 1.434 . S
C555 C556 1.369 1_655 S
C555 C557 1.419 . S
C555 H559 0.930 . S
C556 C555 1.369 1_455 S
C556 C565 1.429 . S
C557 C555 1.419 . S
C557 C558 1.363 1_655 S
C557 H560 0.929 . S
C558 C557 1.363 1_455 S
C558 C564 1.428 . S
H559 C555 0.930 . S
H560 C557 0.929 . S
S561 N562 1.613 . S
S561 N563 1.610 . S
N562 S561 1.613 . S
N562 C565 1.350 . S
N563 S561 1.610 . S
N563 C564 1.351 . S
C564 C558 1.428 . S
C564 N563 1.351 . S
C564 C565 1.434 . S
C565 C556 1.429 . S
C565 N562 1.350 . S
C565 C564 1.434 . S
C566 C567 1.369 1_554 S
C566 C568 1.419 . S
C566 H570 0.930 . S
C567 C566 1.369 1_556 S
C567 C576 1.429 1_546 S
C568 C566 1.419 . S
C568 C569 1.363 . S
C568 H571 0.929 . S
C569 C568 1.363 . S
C569 C575 1.428 1_545 S
H570 C566 0.930 . S
H571 C568 0.929 . S
S572 N573 1.613 1_554 S
S572 N574 1.610 . S
N573 S572 1.613 1_556 S
N573 C576 1.350 1_556 S
N574 S572 1.610 . S
N574 C575 1.351 . S
C575 C569 1.428 1_565 S
C575 N574 1.351 . S
C575 C576 1.434 . S
C576 C567 1.429 1_564 S
C576 N573 1.350 1_554 S
C576 C575 1.434 . S
C577 C578 1.369 . S
C577 C579 1.419 . S
C577 H581 0.930 . S
C578 C577 1.369 . S
C578 C587 1.429 . S
C579 C577 1.419 . S
C579 C580 1.363 . S
C579 H582 0.929 . S
C580 C579 1.363 . S
C580 C586 1.428 . S
H581 C577 0.930 . S
H582 C579 0.929 . S
S583 N584 1.613 . S
S583 N585 1.610 . S
N584 S583 1.613 . S
N584 C587 1.350 . S
N585 S583 1.610 . S
N585 C586 1.351 . S
C586 C580 1.428 . S
C586 N585 1.351 . S
C586 C587 1.434 . S
C587 C578 1.429 . S
C587 N584 1.350 . S
C587 C586 1.434 . S
C588 C589 1.369 . S
C588 C590 1.419 . S
C588 H592 0.930 . S
C589 C588 1.369 . S
C589 C598 1.429 . S
C590 C588 1.419 . S
C590 C591 1.363 . S
C590 H593 0.929 . S
C591 C590 1.363 . S
C591 C597 1.428 . S
H592 C588 0.930 . S
H593 C590 0.929 . S
S594 N595 1.613 . S
S594 N596 1.610 . S
N595 S594 1.613 . S
N595 C598 1.350 . S
N596 S594 1.610 . S
N596 C597 1.351 . S
C597 C591 1.428 . S
C597 N596 1.351 . S
C597 C598 1.434 . S
C598 C589 1.429 . S
C598 N595 1.350 . S
C598 C597 1.434 . S
C599 C600 1.358 1_455 S
C599 C601 1.418 . S
C599 H603 0.942 . S
C600 C599 1.358 1_655 S
C600 C609 1.429 . S
C601 C599 1.418 . S
C601 C602 1.361 1_456 S
C601 H604 0.932 . S
C602 C601 1.361 1_654 S
C602 C608 1.428 1_554 S
H603 C599 0.942 . S
H604 C601 0.932 . S
S605 N606 1.613 . S
S605 N607 1.610 1_556 S
N606 S605 1.613 . S
N606 C609 1.350 . S
N607 S605 1.610 1_554 S
N607 C608 1.351 1_554 S
C608 C602 1.428 1_556 S
C608 N607 1.351 1_556 S
C608 C609 1.434 . S
C609 C600 1.429 . S
C609 N606 1.350 . S
C609 C608 1.434 . S
C610 C611 1.369 . S
C610 C612 1.419 . S
C610 H614 0.930 . S
C611 C610 1.369 . S
C611 C620 1.429 1_565 S
C612 C610 1.419 . S
C612 C613 1.363 . S
C612 H615 0.929 . S
C613 C612 1.363 . S
C613 C619 1.428 1_565 S
H614 C610 0.930 . S
H615 C612 0.929 . S
S616 N617 1.613 . S
S616 N618 1.610 . S
N617 S616 1.613 . S
N617 C620 1.350 . S
N618 S616 1.610 . S
N618 C619 1.351 . S
C619 C613 1.428 1_545 S
C619 N618 1.351 . S
C619 C620 1.434 . S
C620 C611 1.429 1_545 S
C620 N617 1.350 . S
C620 C619 1.434 . S
C621 C622 1.369 1_556 S
C621 C623 1.419 . S
C621 H625 0.930 1_556 S
C622 C621 1.369 1_554 S
C622 C631 1.429 1_554 S
C623 C621 1.419 . S
C623 C624 1.363 . S
C623 H626 0.929 . S
C624 C623 1.363 . S
C624 C630 1.428 . S
H625 C621 0.930 1_554 S
H626 C623 0.929 . S
S627 N628 1.613 . S
S627 N629 1.610 . S
N628 S627 1.613 . S
N628 C631 1.350 . S
N629 S627 1.610 . S
N629 C630 1.351 . S
C630 C624 1.428 . S
C630 N629 1.351 . S
C630 C631 1.434 . S
C631 C622 1.429 1_556 S
C631 N628 1.350 . S
C631 C630 1.434 . S
C632 C633 1.369 . S
C632 C634 1.419 . S
C632 H636 0.930 . S
C633 C632 1.369 . S
C633 C642 1.429 . S
C634 C632 1.419 . S
C634 C635 1.363 1_556 S
C634 H637 0.929 . S
C635 C634 1.363 1_554 S
C635 C641 1.428 1_554 S
H636 C632 0.930 . S
H637 C634 0.929 . S
S638 N639 1.613 . S
S638 N640 1.610 1_556 S
N639 S638 1.613 . S
N639 C642 1.350 . S
N640 S638 1.610 1_554 S
N640 C641 1.351 1_554 S
C641 C635 1.428 1_556 S
C641 N640 1.351 1_556 S
C641 C642 1.434 . S
C642 C633 1.429 . S
C642 N639 1.350 . S
C642 C641 1.434 . S
C643 C644 1.369 . S
C643 C645 1.419 . S
C643 H647 0.930 . S
C644 C643 1.369 . S
C644 C653 1.429 1_655 S
C645 C643 1.419 . S
C645 C646 1.363 . S
C645 H648 0.929 . S
C646 C645 1.363 . S
C646 C652 1.428 1_655 S
H647 C643 0.930 . S
H648 C645 0.929 . S
S649 N650 1.613 . S
S649 N651 1.610 . S
N650 S649 1.613 . S
N650 C653 1.350 . S
N651 S649 1.610 . S
N651 C652 1.351 . S
C652 C646 1.428 1_455 S
C652 N651 1.351 . S
C652 C653 1.434 . S
C653 C644 1.429 1_455 S
C653 N650 1.350 . S
C653 C652 1.434 . S
C654 C655 1.369 1_556 S
C654 C656 1.419 . S
C654 H658 0.930 . S
C655 C654 1.369 1_554 S
C655 C664 1.429 1_564 S
C656 C654 1.419 . S
C656 C657 1.363 . S
C656 H659 0.929 . S
C657 C656 1.363 . S
C657 C663 1.428 1_565 S
H658 C654 0.930 . S
H659 C656 0.929 . S
S660 N661 1.613 1_556 S
S660 N662 1.610 . S
N661 S660 1.613 1_554 S
N661 C664 1.350 1_554 S
N662 S660 1.610 . S
N662 C663 1.351 . S
C663 C657 1.428 1_545 S
C663 N662 1.351 . S
C663 C664 1.434 . S
C664 C655 1.429 1_546 S
C664 N661 1.350 1_556 S
C664 C663 1.434 . S
C665 C666 1.369 . S
C665 C667 1.419 . S
C665 H669 0.930 . S
C666 C665 1.369 . S
C666 C675 1.429 . S
C667 C665 1.419 . S
C667 C668 1.363 . S
C667 H670 0.929 . S
C668 C667 1.363 . S
C668 C674 1.428 . S
H669 C665 0.930 . S
H670 C667 0.929 . S
S671 N672 1.613 . S
S671 N673 1.610 . S
N672 S671 1.613 . S
N672 C675 1.350 . S
N673 S671 1.610 . S
N673 C674 1.351 . S
C674 C668 1.428 . S
C674 N673 1.351 . S
C674 C675 1.434 . S
C675 C666 1.429 . S
C675 N672 1.350 . S
C675 C674 1.434 . S
C676 C677 1.369 . S
C676 C678 1.419 . S
C676 H680 0.930 . S
C677 C676 1.369 . S
C677 C686 1.429 . S
C678 C676 1.419 . S
C678 C679 1.363 . S
C678 H681 0.929 . S
C679 C678 1.363 . S
C679 C685 1.428 . S
H680 C676 0.930 . S
H681 C678 0.929 . S
S682 N683 1.613 . S
S682 N684 1.610 . S
N683 S682 1.613 . S
N683 C686 1.350 . S
N684 S682 1.610 . S
N684 C685 1.351 . S
C685 C679 1.428 . S
C685 N684 1.351 . S
C685 C686 1.434 . S
C686 C677 1.429 . S
C686 N683 1.350 . S
C686 C685 1.434 . S
C687 C688 1.369 . S
C687 C689 1.419 . S
C687 H691 0.930 . S
C688 C687 1.369 . S
C688 C697 1.429 . S
C689 C687 1.419 . S
C689 C690 1.363 1_554 S
C689 H692 0.929 1_554 S
C690 C689 1.363 1_556 S
C690 C696 1.428 1_556 S
H691 C687 0.930 . S
H692 C689 0.929 1_556 S
S693 N694 1.613 . S
S693 N695 1.610 . S
N694 S693 1.613 . S
N694 C697 1.350 . S
N695 S693 1.610 . S
N695 C696 1.351 . S
C696 C690 1.428 1_554 S
C696 N695 1.351 . S
C696 C697 1.434 . S
C697 C688 1.429 . S
C697 N694 1.350 . S
C697 C696 1.434 . S
C698 C699 1.369 1_565 S
C698 C700 1.419 . S
C698 H702 0.930 . S
C699 C698 1.369 1_545 S
C699 C708 1.429 . S
C700 C698 1.419 . S
C700 C701 1.363 1_565 S
C700 H703 0.929 . S
C701 C700 1.363 1_545 S
C701 C707 1.428 . S
H702 C698 0.930 . S
H703 C700 0.929 . S
S704 N705 1.613 . S
S704 N706 1.610 . S
N705 S704 1.613 . S
N705 C708 1.350 . S
N706 S704 1.610 . S
N706 C707 1.351 . S
C707 C701 1.428 . S
C707 N706 1.351 . S
C707 C708 1.434 . S
C708 C699 1.429 . S
C708 N705 1.350 . S
C708 C707 1.434 . S
C709 C710 1.369 1_554 S
C709 C711 1.419 . S
C709 H713 0.930 1_554 S
C710 C709 1.369 1_556 S
C710 C719 1.429 1_556 S
C711 C709 1.419 . S
C711 C712 1.363 . S
C711 H714 0.929 . S
C712 C711 1.363 . S
C712 C718 1.428 . S
H713 C709 0.930 1_556 S
H714 C711 0.929 . S
S715 N716 1.613 . S
S715 N717 1.610 . S
N716 S715 1.613 . S
N716 C719 1.350 . S
N717 S715 1.610 . S
N717 C718 1.351 . S
C718 C712 1.428 . S
C718 N717 1.351 . S
C718 C719 1.434 . S
C719 C710 1.429 1_554 S
C719 N716 1.350 . S
C719 C718 1.434 . S
C720 C721 1.369 . S
C720 C722 1.419 . S
C720 H724 0.930 . S
C721 C720 1.369 . S
C721 C730 1.429 . S
C722 C720 1.419 . S
C722 C723 1.363 . S
C722 H725 0.929 . S
C723 C722 1.363 . S
C723 C729 1.428 . S
H724 C720 0.930 . S
H725 C722 0.929 . S
S726 N727 1.613 . S
S726 N728 1.610 . S
N727 S726 1.613 . S
N727 C730 1.350 . S
N728 S726 1.610 . S
N728 C729 1.351 . S
C729 C723 1.428 . S
C729 N728 1.351 . S
C729 C730 1.434 . S
C730 C721 1.429 . S
C730 N727 1.350 . S
C730 C729 1.434 . S
C731 C732 1.369 . S
C731 C733 1.419 . S
C731 H735 0.930 . S
C732 C731 1.369 . S
C732 C741 1.429 . S
C733 C731 1.419 . S
C733 C734 1.363 . S
C733 H736 0.929 . S
C734 C733 1.363 . S
C734 C740 1.428 . S
H735 C731 0.930 . S
H736 C733 0.929 . S
S737 N738 1.613 . S
S737 N739 1.610 . S
N738 S737 1.613 . S
N738 C741 1.350 . S
N739 S737 1.610 . S
N739 C740 1.351 . S
C740 C734 1.428 . S
C740 N739 1.351 . S
C740 C741 1.434 . S
C741 C732 1.429 . S
C741 N738 1.350 . S
C741 C740 1.434 . S
C742 C743 1.369 . S
C742 C744 1.419 . S
C742 H746 0.930 . S
C743 C742 1.369 . S
C743 C752 1.429 . S
C744 C742 1.419 . S
C744 C745 1.363 . S
C744 H747 0.929 . S
C745 C744 1.363 . S
C745 C751 1.428 . S
H746 C742 0.930 . S
H747 C744 0.929 . S
S748 N749 1.613 . S
S748 N750 1.610 . S
N749 S748 1.613 . S
N749 C752 1.350 . S
N750 S748 1.610 . S
N750 C751 1.351 . S
C751 C745 1.428 . S
C751 N750 1.351 . S
C751 C752 1.434 . S
C752 C743 1.429 . S
C752 N749 1.350 . S
C752 C751 1.434 . S
C753 C754 1.369 . S
C753 C755 1.419 . S
C753 H757 0.930 . S
C754 C753 1.369 . S
C754 C763 1.429 . S
C755 C753 1.419 . S
C755 C756 1.363 . S
C755 H758 0.929 . S
C756 C755 1.363 . S
C756 C762 1.428 . S
H757 C753 0.930 . S
H758 C755 0.929 . S
S759 N760 1.613 . S
S759 N761 1.610 . S
N760 S759 1.613 . S
N760 C763 1.350 . S
N761 S759 1.610 . S
N761 C762 1.351 . S
C762 C756 1.428 . S
C762 N761 1.351 . S
C762 C763 1.434 . S
C763 C754 1.429 . S
C763 N760 1.350 . S
C763 C762 1.434 . S
C764 C765 1.369 . S
C764 C766 1.419 . S
C764 H768 0.930 . S
C765 C764 1.369 . S
C765 C774 1.429 . S
C766 C764 1.419 . S
C766 C767 1.363 . S
C766 H769 0.929 . S
C767 C766 1.363 . S
C767 C773 1.428 . S
H768 C764 0.930 . S
H769 C766 0.929 . S
S770 N771 1.613 . S
S770 N772 1.610 . S
N771 S770 1.613 . S
N771 C774 1.350 . S
N772 S770 1.610 . S
N772 C773 1.351 . S
C773 C767 1.428 . S
C773 N772 1.351 . S
C773 C774 1.434 . S
C774 C765 1.429 . S
C774 N771 1.350 . S
C774 C773 1.434 . S
C775 C776 1.369 . S
C775 C777 1.419 . S
C775 H779 0.930 . S
C776 C775 1.369 . S
C776 C785 1.429 . S
C777 C775 1.419 . S
C777 C778 1.363 . S
C777 H780 0.929 . S
C778 C777 1.363 . S
C778 C784 1.428 . S
H779 C775 0.930 . S
H780 C777 0.929 . S
S781 N782 1.613 . S
S781 N783 1.610 . S
N782 S781 1.613 . S
N782 C785 1.350 . S
N783 S781 1.610 . S
N783 C784 1.351 . S
C784 C778 1.428 . S
C784 N783 1.351 . S
C784 C785 1.434 . S
C785 C776 1.429 . S
C785 N782 1.350 . S
C785 C784 1.434 . S
C786 C787 1.369 . S
C786 C788 1.419 . S
C786 H790 0.930 . S
C787 C786 1.369 . S
C787 C796 1.429 . S
C788 C786 1.419 . S
C788 C789 1.363 . S
C788 H791 0.929 . S
C789 C788 1.363 . S
C789 C795 1.428 . S
H790 C786 0.930 . S
H791 C788 0.929 . S
S792 N793 1.613 . S
S792 N794 1.610 . S
N793 S792 1.613 . S
N793 C796 1.350 . S
N794 S792 1.610 . S
N794 C795 1.351 . S
C795 C789 1.428 . S
C795 N794 1.351 . S
C795 C796 1.434 . S
C796 C787 1.429 . S
C796 N793 1.350 . S
C796 C795 1.434 . S
C797 C798 1.369 . S
C797 C799 1.419 . S
C797 H801 0.930 . S
C798 C797 1.369 . S
C798 C807 1.429 . S
C799 C797 1.419 . S
C799 C800 1.363 . S
C799 H802 0.929 . S
C800 C799 1.363 . S
C800 C806 1.428 . S
H801 C797 0.930 . S
H802 C799 0.929 . S
S803 N804 1.613 . S
S803 N805 1.610 . S
N804 S803 1.613 . S
N804 C807 1.350 . S
N805 S803 1.610 . S
N805 C806 1.351 . S
C806 C800 1.428 . S
C806 N805 1.351 . S
C806 C807 1.434 . S
C807 C798 1.429 . S
C807 N804 1.350 . S
C807 C806 1.434 . S
C808 C809 1.369 . S
C808 C810 1.419 . S
C808 H812 0.930 . S
C809 C808 1.369 . S
C809 C818 1.429 . S
C810 C808 1.419 . S
C810 C811 1.363 . S
C810 H813 0.929 . S
C811 C810 1.363 . S
C811 C817 1.428 . S
H812 C808 0.930 . S
H813 C810 0.929 . S
S814 N815 1.613 . S
S814 N816 1.610 . S
N815 S814 1.613 . S
N815 C818 1.350 . S
N816 S814 1.610 . S
N816 C817 1.351 . S
C817 C811 1.428 . S
C817 N816 1.351 . S
C817 C818 1.434 . S
C818 C809 1.429 . S
C818 N815 1.350 . S
C818 C817 1.434 . S
C819 C820 1.369 . S
C819 C821 1.419 . S
C819 H823 0.930 . S
C820 C819 1.369 . S
C820 C829 1.429 . S
C821 C819 1.419 . S
C821 C822 1.363 . S
C821 H824 0.929 . S
C822 C821 1.363 . S
C822 C828 1.428 . S
H823 C819 0.930 . S
H824 C821 0.929 . S
S825 N826 1.613 . S
S825 N827 1.610 . S
N826 S825 1.613 . S
N826 C829 1.350 . S
N827 S825 1.610 . S
N827 C828 1.351 . S
C828 C822 1.428 . S
C828 N827 1.351 . S
C828 C829 1.434 . S
C829 C820 1.429 . S
C829 N826 1.350 . S
C829 C828 1.434 . S
C830 C831 1.369 . S
C830 C832 1.419 . S
C830 H834 0.930 . S
C831 C830 1.369 . S
C831 C840 1.429 . S
C832 C830 1.419 . S
C832 C833 1.363 . S
C832 H835 0.929 . S
C833 C832 1.363 . S
C833 C839 1.428 . S
H834 C830 0.930 . S
H835 C832 0.929 . S
S836 N837 1.613 . S
S836 N838 1.610 . S
N837 S836 1.613 . S
N837 C840 1.350 . S
N838 S836 1.610 . S
N838 C839 1.351 . S
C839 C833 1.428 . S
C839 N838 1.351 . S
C839 C840 1.434 . S
C840 C831 1.429 . S
C840 N837 1.350 . S
C840 C839 1.434 . S
C841 C842 1.369 . S
C841 C843 1.419 . S
C841 H845 0.930 . S
C842 C841 1.369 . S
C842 C851 1.429 . S
C843 C841 1.419 . S
C843 C844 1.363 . S
C843 H846 0.929 . S
C844 C843 1.363 . S
C844 C850 1.428 . S
H845 C841 0.930 . S
H846 C843 0.929 . S
S847 N848 1.613 . S
S847 N849 1.610 . S
N848 S847 1.613 . S
N848 C851 1.350 . S
N849 S847 1.610 . S
N849 C850 1.351 . S
C850 C844 1.428 . S
C850 N849 1.351 . S
C850 C851 1.434 . S
C851 C842 1.429 . S
C851 N848 1.350 . S
C851 C850 1.434 . S
C852 C853 1.369 . S
C852 C854 1.419 . S
C852 H856 0.930 . S
C853 C852 1.369 . S
C853 C862 1.429 . S
C854 C852 1.419 . S
C854 C855 1.363 . S
C854 H857 0.929 . S
C855 C854 1.363 . S
C855 C861 1.428 . S
H856 C852 0.930 . S
H857 C854 0.929 . S
S858 N859 1.613 . S
S858 N860 1.610 . S
N859 S858 1.613 . S
N859 C862 1.350 . S
N860 S858 1.610 . S
N860 C861 1.351 . S
C861 C855 1.428 . S
C861 N860 1.351 . S
C861 C862 1.434 . S
C862 C853 1.429 . S
C862 N859 1.350 . S
C862 C861 1.434 . S
C863 C864 1.369 . S
C863 C865 1.419 . S
C863 H867 0.930 . S
C864 C863 1.369 . S
C864 C873 1.429 . S
C865 C863 1.419 . S
C865 C866 1.363 . S
C865 H868 0.929 . S
C866 C865 1.363 . S
C866 C872 1.428 . S
H867 C863 0.930 . S
H868 C865 0.929 . S
S869 N870 1.613 . S
S869 N871 1.610 . S
N870 S869 1.613 . S
N870 C873 1.350 . S
N871 S869 1.610 . S
N871 C872 1.351 . S
C872 C866 1.428 . S
C872 N871 1.351 . S
C872 C873 1.434 . S
C873 C864 1.429 . S
C873 N870 1.350 . S
C873 C872 1.434 . S
C874 C875 1.369 . S
C874 C876 1.419 . S
C874 H878 0.930 . S
C875 C874 1.369 . S
C875 C884 1.429 . S
C876 C874 1.419 . S
C876 C877 1.363 . S
C876 H879 0.929 . S
C877 C876 1.363 . S
C877 C883 1.428 . S
H878 C874 0.930 . S
H879 C876 0.929 . S
S880 N881 1.613 . S
S880 N882 1.610 . S
N881 S880 1.613 . S
N881 C884 1.350 . S
N882 S880 1.610 . S
N882 C883 1.351 . S
C883 C877 1.428 . S
C883 N882 1.351 . S
C883 C884 1.434 . S
C884 C875 1.429 . S
C884 N881 1.350 . S
C884 C883 1.434 . S
C885 C886 1.369 . S
C885 C887 1.419 . S
C885 H889 0.930 . S
C886 C885 1.369 . S
C886 C895 1.429 . S
C887 C885 1.419 . S
C887 C888 1.363 . S
C887 H890 0.929 . S
C888 C887 1.363 . S
C888 C894 1.428 . S
H889 C885 0.930 . S
H890 C887 0.929 . S
S891 N892 1.613 . S
S891 N893 1.610 . S
N892 S891 1.613 . S
N892 C895 1.350 . S
N893 S891 1.610 . S
N893 C894 1.351 . S
C894 C888 1.428 . S
C894 N893 1.351 . S
C894 C895 1.434 . S
C895 C886 1.429 . S
C895 N892 1.350 . S
C895 C894 1.434 . S
C369 C16 1.220 . S
C371 C177 1.211 . S
C380 C108 1.218 . S
C382 C39 1.208 . S
C391 C131 1.210 . S
C393 C62 1.218 . S
C402 C85 1.212 . S
C404 C154 1.212 . S
C413 C362 1.197 . S
C415 C200 1.210 . S
C424 C292 1.216 . S
C426 C223 1.211 . S
C435 C315 1.217 . S
C437 C246 1.214 . S
C446 C338 1.211 . S
C448 C269 1.219 . S
C457 C20 1.275 . S
C459 C366 1.269 . S
C468 C43 1.270 . S
C470 C296 1.269 . S
C479 C66 1.265 . S
C481 C319 1.264 . S
C490 C342 1.257 . S
C492 C89 1.257 . S
C501 C227 1.259 . S
C503 C112 1.259 . S
C512 C135 1.261 . S
C514 C250 1.263 . S
C523 C273 1.263 . S
C525 C158 1.263 . S
C534 C181 1.244 . S
C536 C204 1.244 . S
C545 C294 1.596 . S
C547 C17 1.601 . S
C556 C40 1.601 . S
C558 C317 1.603 . S
C567 C340 1.599 . S
C569 C63 1.595 . S
C578 C364 1.625 . S
C580 C86 1.618 . S
C589 C109 1.610 . S
C591 C202 1.607 . S
C600 C132 1.598 . S
C602 C225 1.603 . S
C611 C155 1.601 . S
C613 C248 1.603 . S
C622 C271 1.596 . S
C624 C178 1.601 . S
C633 C201 1.600 . S
C635 C110 1.599 . S
C644 C224 1.596 . S
C646 C133 1.600 . S
C655 C156 1.592 . S
C657 C247 1.591 . S
C666 C270 1.604 . S
C668 C179 1.598 . S
C677 C293 1.604 . S
C679 C18 1.604 . S
C688 C316 1.601 . S
C690 C41 1.597 . S
C699 C64 1.600 . S
C701 C339 1.602 . S
C710 C87 1.649 . S
C712 C361 1.644 . S
C721 C19 1.602 . S
C723 C228 1.570 . S
C732 C251 1.574 . S
C734 C42 1.600 . S
C743 C65 1.600 . S
C745 C274 1.565 . S
C754 C88 1.616 . S
C756 C205 1.578 . S
C765 C111 1.580 . S
C767 C365 1.601 . S
C776 C134 1.599 . S
C778 C297 1.563 . S
C787 C157 1.603 . S
C789 C320 1.570 . S
C798 C343 1.561 . S
C800 C180 1.601 . S
C809 C44 1.568 . S
C811 C203 1.605 . S
C820 C67 1.567 . S
C822 C226 1.596 . S
C831 C249 1.605 . S
C833 C90 1.565 . S
C842 C272 1.601 . S
C844 C21 1.562 . S
C853 C182 1.567 . S
C855 C295 1.595 . S
C864 C113 1.564 . S
C866 C318 1.600 . S
C875 C136 1.560 . S
C877 C341 1.601 . S
C886 C159 1.570 . S
C888 C363 1.648 . S
