# Generated by pormake.
# Topology lhb, (8)-cn, num edge types: 1
# Building blocks:
#     Node 0, Type 0, BuildingBlock: TAGTUT_clean_sbu_1, # of connection points: 8
#     Node 1, Type 0, BuildingBlock: TAGTUT_clean_sbu_1, # of connection points: 8
#     Node 2, Type 0, BuildingBlock: TAGTUT_clean_sbu_1, # of connection points: 8
#     Node 3, Type 0, BuildingBlock: TAGTUT_clean_sbu_1, # of connection points: 8
#     Node 4, Type 0, BuildingBlock: TAGTUT_clean_sbu_1, # of connection points: 8
#     Node 5, Type 0, BuildingBlock: TAGTUT_clean_sbu_1, # of connection points: 8
#     Node 6, Type 0, BuildingBlock: TAGTUT_clean_sbu_1, # of connection points: 8
#     Node 7, Type 0, BuildingBlock: TAGTUT_clean_sbu_1, # of connection points: 8
#     Edge 8, Type (0, 0), BuildingBlock: AJUNOK_clean_linker_0, # of connection points: 2
#     Edge 9, Type (0, 0), BuildingBlock: AJUNOK_clean_linker_0, # of connection points: 2
#     Edge 10, Type (0, 0), BuildingBlock: AJUNOK_clean_linker_0, # of connection points: 2
#     Edge 11, Type (0, 0), BuildingBlock: AJUNOK_clean_linker_0, # of connection points: 2
#     Edge 12, Type (0, 0), BuildingBlock: AJUNOK_clean_linker_0, # of connection points: 2
#     Edge 13, Type (0, 0), BuildingBlock: AJUNOK_clean_linker_0, # of connection points: 2
#     Edge 14, Type (0, 0), BuildingBlock: AJUNOK_clean_linker_0, # of connection points: 2
#     Edge 15, Type (0, 0), BuildingBlock: AJUNOK_clean_linker_0, # of connection points: 2
#     Edge 16, Type (0, 0), BuildingBlock: AJUNOK_clean_linker_0, # of connection points: 2
#     Edge 17, Type (0, 0), BuildingBlock: AJUNOK_clean_linker_0, # of connection points: 2
#     Edge 18, Type (0, 0), BuildingBlock: AJUNOK_clean_linker_0, # of connection points: 2
#     Edge 19, Type (0, 0), BuildingBlock: AJUNOK_clean_linker_0, # of connection points: 2
#     Edge 20, Type (0, 0), BuildingBlock: AJUNOK_clean_linker_0, # of connection points: 2
#     Edge 21, Type (0, 0), BuildingBlock: AJUNOK_clean_linker_0, # of connection points: 2
#     Edge 22, Type (0, 0), BuildingBlock: AJUNOK_clean_linker_0, # of connection points: 2
#     Edge 23, Type (0, 0), BuildingBlock: AJUNOK_clean_linker_0, # of connection points: 2
#     Edge 24, Type (0, 0), BuildingBlock: AJUNOK_clean_linker_0, # of connection points: 2
#     Edge 25, Type (0, 0), BuildingBlock: AJUNOK_clean_linker_0, # of connection points: 2
#     Edge 26, Type (0, 0), BuildingBlock: AJUNOK_clean_linker_0, # of connection points: 2
#     Edge 27, Type (0, 0), BuildingBlock: AJUNOK_clean_linker_0, # of connection points: 2
#     Edge 28, Type (0, 0), BuildingBlock: AJUNOK_clean_linker_0, # of connection points: 2
#     Edge 29, Type (0, 0), BuildingBlock: AJUNOK_clean_linker_0, # of connection points: 2
#     Edge 30, Type (0, 0), BuildingBlock: AJUNOK_clean_linker_0, # of connection points: 2
#     Edge 31, Type (0, 0), BuildingBlock: AJUNOK_clean_linker_0, # of connection points: 2
#     Edge 32, Type (0, 0), BuildingBlock: AJUNOK_clean_linker_0, # of connection points: 2
#     Edge 33, Type (0, 0), BuildingBlock: AJUNOK_clean_linker_0, # of connection points: 2
#     Edge 34, Type (0, 0), BuildingBlock: AJUNOK_clean_linker_0, # of connection points: 2
#     Edge 35, Type (0, 0), BuildingBlock: AJUNOK_clean_linker_0, # of connection points: 2
#     Edge 36, Type (0, 0), BuildingBlock: AJUNOK_clean_linker_0, # of connection points: 2
#     Edge 37, Type (0, 0), BuildingBlock: AJUNOK_clean_linker_0, # of connection points: 2
#     Edge 38, Type (0, 0), BuildingBlock: AJUNOK_clean_linker_0, # of connection points: 2
#     Edge 39, Type (0, 0), BuildingBlock: AJUNOK_clean_linker_0, # of connection points: 2
# Relax obj value: 0.058
# Max RMSD: 0.155
# Mean RMSD: 0.155
data_MOF--net-lhb--node1-TAGTUT_clean_sbu_1--edge1-AJUNOK_clean_linker_0
_symmetry_space_group_name_H-M    P1
_symmetry_Int_Tables_number       1
_symmetry_cell_setting            triclinic
loop_
_symmetry_equiv_pos_as_xyz
'x, y, z'
_cell_length_a     26.172428
_cell_length_b     11.252509
_cell_length_c     46.375998
_cell_angle_alpha  93.762066
_cell_angle_beta   89.735207
_cell_angle_gamma 90.034939
loop_
_atom_site_label
_atom_site_type_symbol
_atom_site_fract_x
_atom_site_fract_y
_atom_site_fract_z
_atom_type_partial_charge
C0 C 0.08648 0.0311 0.10252 0.0
C1 C 0.12491 0.11579 0.01694 0.0
C2 C 0.93437 0.22504 0.0033 0.0
Mg3 Mg 0.08385 0.89007 0.04218 0.0
O4 O 0.01943 0.95648 0.04066 0.0
Mg5 Mg 0.01079 0.12804 0.05166 0.0
Mg6 Mg 0.97745 0.95236 0.00462 0.0
O7 O 0.93719 0.95364 0.96888 0.0
Mg8 Mg 0.87547 0.03529 0.96698 0.0
Mg9 Mg 0.94047 0.78532 0.95488 0.0
C10 C 0.0183 0.68711 0.00718 0.0
C11 C 0.0542 0.89564 0.95051 0.0
O12 O 0.0561 0.10662 0.09252 0.0
O13 O 0.10076 0.93646 0.08765 0.0
O14 O 0.08677 0.17388 0.02839 0.0
O15 O 0.12888 0.003 0.01754 0.0
O16 O 0.05691 0.71908 0.02303 0.0
O17 O 0.9842 0.75954 0.99912 0.0
C18 C 0.91148 0.95805 0.06271 0.0
O19 O 0.91102 0.92634 0.03568 0.0
O20 O 0.94011 0.04409 0.07276 0.0
O21 O 0.91089 0.85752 0.91021 0.0
O22 O 0.87074 0.03094 0.92222 0.0
O23 O 0.85636 0.75379 0.97345 0.0
C24 C 0.8895 0.95544 0.90346 0.0
O25 O 0.82064 0.93116 0.98516 0.0
O26 O 0.89575 0.20225 0.98721 0.0
C27 C 0.81947 0.81837 0.98434 0.0
O28 O 0.96552 0.14486 0.01036 0.0
O29 O 0.0475 0.96249 0.97377 0.0
O30 O 0.01996 0.82391 0.94028 0.0
C31 C 0.38745 0.17263 0.15048 0.0
C32 C 0.45026 0.0447 0.23144 0.0
C33 C 0.25692 0.92349 0.25835 0.0
Mg34 Mg 0.39514 0.26198 0.21391 0.0
O35 O 0.33117 0.18752 0.21386 0.0
Mg36 Mg 0.33013 0.016 0.2025 0.0
Mg37 Mg 0.29253 0.18987 0.25067 0.0
O38 O 0.25528 0.19832 0.28887 0.0
Mg39 Mg 0.19403 0.12459 0.29596 0.0
Mg40 Mg 0.26257 0.37222 0.29833 0.0
C41 C 0.33478 0.45805 0.24791 0.0
C42 C 0.36809 0.21955 0.30466 0.0
O43 O 0.36229 0.07955 0.15737 0.0
O44 O 0.40506 0.24974 0.1692 0.0
O45 O 0.41291 -0.01621 0.22035 0.0
O46 O 0.44922 0.15771 0.23366 0.0
O47 O 0.37471 0.43161 0.23295 0.0
O48 O 0.30112 0.38226 0.25428 0.0
C49 C 0.21506 0.1169 0.19844 0.0
O50 O 0.21993 0.18625 0.2215 0.0
O51 O 0.25123 0.05062 0.18819 0.0
O52 O 0.22464 0.35299 0.34239 0.0
O53 O 0.18645 0.17467 0.34209 0.0
O54 O 0.18123 0.40634 0.2791 0.0
C55 C 0.19946 0.27428 0.35515 0.0
O56 O 0.14134 0.22944 0.27359 0.0
O57 O 0.22139 0.95361 0.27674 0.0
C58 C 0.14249 0.34178 0.27107 0.0
O59 O 0.28756 -0.00251 0.2475 0.0
O60 O 0.36191 0.17644 0.27876 0.0
O61 O 0.33919 0.30293 0.31591 0.0
C62 C 0.88279 0.65634 0.1541 0.0
C63 C 0.94938 0.54635 0.23682 0.0
C64 C 0.75547 0.41957 0.26481 0.0
Mg65 Mg 0.89118 0.75642 0.21652 0.0
O66 O 0.82881 0.6766 0.21804 0.0
Mg67 Mg 0.82889 0.50373 0.20812 0.0
Mg68 Mg 0.78873 0.68482 0.25428 0.0
O69 O 0.74856 0.69852 0.29144 0.0
Mg70 Mg 0.68787 0.62292 0.29908 0.0
Mg71 Mg 0.75516 0.87197 0.29963 0.0
C72 C 0.83099 0.95314 0.24995 0.0
C73 C 0.85882 0.71664 0.31033 0.0
O74 O 0.86086 0.56065 0.16211 0.0
O75 O 0.89838 0.73932 0.17189 0.0
O76 O 0.91249 0.48 0.227 0.0
O77 O 0.94741 0.65893 0.23654 0.0
O78 O 0.87032 0.927 0.23451 0.0
O79 O 0.79731 0.87741 0.25644 0.0
C80 C 0.7131 0.60021 0.20165 0.0
O81 O 0.71754 0.67508 0.22377 0.0
O82 O 0.74961 0.53157 0.19282 0.0
O83 O 0.71441 0.86125 0.34301 0.0
O84 O 0.67658 0.68328 0.34466 0.0
O85 O 0.67606 0.90035 0.2778 0.0
C86 C 0.68914 0.78532 0.35657 0.0
O87 O 0.63707 0.7217 0.27403 0.0
O88 O 0.71876 0.45021 0.28242 0.0
C89 C 0.63846 0.83251 0.26954 0.0
O90 O 0.78488 0.49333 0.25302 0.0
O91 O 0.85725 0.67704 0.28389 0.0
O92 O 0.82906 0.80123 0.32008 0.0
C93 C 0.08686 0.55707 0.60469 0.0
C94 C 0.14181 0.61502 0.51931 0.0
C95 C 0.95116 0.73033 0.49799 0.0
Mg96 Mg 0.0914 0.40118 0.54677 0.0
O97 O 0.02936 0.47322 0.54055 0.0
Mg98 Mg 0.0233 0.64844 0.54795 0.0
Mg99 Mg 0.99195 0.46056 0.50273 0.0
O100 O 0.95403 0.45318 0.46604 0.0
Mg101 Mg 0.89152 0.53298 0.46486 0.0
Mg102 Mg 0.95365 0.27973 0.45654 0.0
C103 C 0.02682 0.19656 0.51198 0.0
C104 C 0.07013 0.37252 0.45113 0.0
O105 O 0.06201 0.63467 0.59153 0.0
O106 O 0.09971 0.45584 0.59241 0.0
O107 O 0.10296 0.67881 0.52734 0.0
O108 O 0.14387 0.50365 0.52307 0.0
O109 O 0.06379 0.22825 0.52907 0.0
O110 O 0.99501 0.26885 0.50174 0.0
C111 C 0.91609 0.50497 0.55683 0.0
O112 O 0.92181 0.45548 0.53143 0.0
O113 O 0.94659 0.58742 0.56678 0.0
O114 O 0.9226 0.33476 0.4106 0.0
O115 O 0.88542 0.51421 0.42025 0.0
O116 O 0.8699 0.25701 0.47475 0.0
C117 C 0.90101 0.43052 0.40257 0.0
O118 O 0.83443 0.43502 0.48471 0.0
O119 O 0.91195 0.70464 0.4826 0.0
C120 C 0.83248 0.32215 0.48439 0.0
O121 O 0.98434 0.65386 0.50445 0.0
O122 O 0.06511 0.4476 0.4732 0.0
O123 O 0.03357 0.30555 0.44178 0.0
C124 C 0.39027 0.72944 0.65521 0.0
C125 C 0.449 0.61085 0.73823 0.0
C126 C 0.25487 0.48305 0.76179 0.0
Mg127 Mg 0.39243 0.82249 0.71854 0.0
O128 O 0.32932 0.74564 0.71755 0.0
Mg129 Mg 0.33039 0.57343 0.70675 0.0
Mg130 Mg 0.28714 0.75027 0.75319 0.0
O131 O 0.24549 0.75923 0.78969 0.0
Mg132 Mg 0.18608 0.67812 0.79668 0.0
Mg133 Mg 0.2483 0.93273 0.79837 0.0
C134 C 0.3293 0.01681 0.75166 0.0
C135 C 0.35526 0.7909 0.80994 0.0
O136 O 0.36583 0.63491 0.6619 0.0
O137 O 0.4051 0.80934 0.67409 0.0
O138 O 0.41275 0.54653 0.72689 0.0
O139 O 0.44649 0.72351 0.73961 0.0
O140 O 0.37021 -0.01041 0.7377 0.0
O141 O 0.29328 0.94344 0.75595 0.0
C142 C 0.21481 0.67017 0.69931 0.0
O143 O 0.21787 0.74101 0.72214 0.0
O144 O 0.25171 0.60324 0.69019 0.0
O145 O 0.20642 0.91224 0.8417 0.0
O146 O 0.17743 0.72491 0.84238 0.0
O147 O 0.1683 0.9549 0.77581 0.0
C148 C 0.18544 0.82823 0.85485 0.0
O149 O 0.13072 0.77437 0.77443 0.0
O150 O 0.21716 0.51111 0.77876 0.0
C151 C 0.13074 0.8842 0.76918 0.0
O152 O 0.28468 0.55841 0.75091 0.0
O153 O 0.3535 0.74401 0.7841 0.0
O154 O 0.32362 0.87305 0.81894 0.0
C155 C 0.87186 0.25195 0.65604 0.0
C156 C 0.94124 0.07851 0.73109 0.0
C157 C 0.74699 0.963 0.76032 0.0
Mg158 Mg 0.88779 0.30743 0.72085 0.0
O159 O 0.82293 0.23651 0.72001 0.0
Mg160 Mg 0.81859 0.07013 0.70453 0.0
Mg161 Mg 0.784 0.23177 0.75638 0.0
O162 O 0.74641 0.23255 0.79439 0.0
Mg163 Mg 0.68387 0.16086 0.79953 0.0
Mg164 Mg 0.75475 0.405 0.80556 0.0
C165 C 0.82972 0.49931 0.75774 0.0
C166 C 0.85863 0.24426 0.81063 0.0
O167 O 0.84875 0.15293 0.6606 0.0
O168 O 0.89215 0.31736 0.67635 0.0
O169 O 0.90191 0.02416 0.7203 0.0
O170 O 0.94316 0.19095 0.73518 0.0
O171 O 0.87071 0.47209 0.74381 0.0
O172 O 0.79478 0.42399 0.76248 0.0
C173 C 0.70434 0.17991 0.70391 0.0
O174 O 0.71097 0.24116 0.728 0.0
O175 O 0.7392 0.11413 0.69199 0.0
O176 O 0.71431 0.37958 0.84848 0.0
O177 O 0.67373 0.2037 0.84596 0.0
O178 O 0.6749 0.44676 0.78551 0.0
C179 C 0.68735 0.30063 0.86004 0.0
O180 O 0.63359 0.27293 0.77768 0.0
O181 O 0.7113 -0.00767 0.77872 0.0
C182 C 0.63594 0.38576 0.77621 0.0
O183 O 0.77739 0.03855 0.74977 0.0
O184 O 0.85293 0.20789 0.78416 0.0
O185 O 0.83009 0.32646 0.82283 0.0
C186 C 0.57996 0.08094 0.60855 0.0
C187 C 0.6394 0.1276 0.52265 0.0
C188 C 0.44744 0.25226 0.49992 0.0
Mg189 Mg 0.58474 0.92089 0.55129 0.0
O190 O 0.52516 -0.00194 0.54292 0.0
Mg191 Mg 0.52035 0.17331 0.55023 0.0
Mg192 Mg 0.48788 -0.01503 0.50506 0.0
O193 O 0.44996 -0.02206 0.46822 0.0
Mg194 Mg 0.38786 0.05747 0.46488 0.0
Mg195 Mg 0.45166 0.80667 0.45716 0.0
C196 C 0.52139 0.71924 0.51451 0.0
C197 C 0.56737 0.90532 0.45344 0.0
O198 O 0.55813 0.16015 0.59436 0.0
O199 O 0.59096 -0.02287 0.59705 0.0
O200 O 0.60164 0.19749 0.52955 0.0
O201 O 0.63922 0.01759 0.52788 0.0
O202 O 0.55635 0.74975 0.53303 0.0
O203 O 0.49109 0.79242 0.50329 0.0
C204 C 0.41596 0.02203 0.56051 0.0
O205 O 0.41773 -0.0204 0.53423 0.0
O206 O 0.44395 0.11132 0.5693 0.0
O207 O 0.42442 0.86616 0.4108 0.0
O208 O 0.38722 0.04562 0.41986 0.0
O209 O 0.36717 0.77902 0.47353 0.0
C210 C 0.40486 0.96354 0.40238 0.0
O211 O 0.32934 0.95539 0.48198 0.0
O212 O 0.40824 0.22624 0.48448 0.0
C213 C 0.32829 0.8425 0.4817 0.0
O214 O 0.48069 0.17662 0.50667 0.0
O215 O 0.56164 -0.02339 0.47608 0.0
O216 O 0.53154 0.83823 0.44341 0.0
C217 C 0.57975 0.53521 0.10591 0.0
C218 C 0.62674 0.62312 0.02077 0.0
C219 C 0.43138 0.74894 0.00974 0.0
Mg220 Mg 0.57728 0.40448 0.04446 0.0
O221 O 0.5149 0.47854 0.04255 0.0
Mg222 Mg 0.5111 0.65105 0.05403 0.0
Mg223 Mg 0.47466 0.48114 0.00591 0.0
O224 O 0.43484 0.48926 0.97029 0.0
Mg225 Mg 0.37136 0.56405 0.97296 0.0
Mg226 Mg 0.4342 0.32253 0.95485 0.0
C227 C 0.5087 0.21303 0.00798 0.0
C228 C 0.55144 0.41265 0.95214 0.0
O229 O 0.55346 0.61863 0.09586 0.0
O230 O 0.59122 0.43989 0.09047 0.0
O231 O 0.59014 0.68759 0.03194 0.0
O232 O 0.62701 0.51015 0.02117 0.0
O233 O 0.54783 0.24203 0.02359 0.0
O234 O 0.47562 0.28759 0.99978 0.0
C235 C 0.4069 0.49665 0.06305 0.0
O236 O 0.4062 0.46764 0.03591 0.0
O237 O 0.43679 0.57927 0.0736 0.0
O238 O 0.40573 0.41469 0.91169 0.0
O239 O 0.36236 0.57696 0.92897 0.0
O240 O 0.34961 0.28769 0.97187 0.0
C241 C 0.38285 0.51491 0.90806 0.0
O242 O 0.31634 0.45823 0.98991 0.0
O243 O 0.38984 0.72274 0.99662 0.0
C244 C 0.31327 0.34684 0.98486 0.0
O245 O 0.46793 0.6751 0.01214 0.0
O246 O 0.54689 0.47786 0.97586 0.0
O247 O 0.51441 0.35211 0.94104 0.0
C248 C 0.12234 0.96673 0.14859 0.0
C249 C 0.10826 0.05928 0.13146 0.0
C250 C 0.15088 -0.00987 0.17369 0.0
C251 C 0.16734 0.10638 0.18213 0.0
H252 H 0.11366 0.87505 0.14179 0.0
H253 H 0.16459 0.91513 0.185 0.0
S254 S 0.13505 0.38161 0.14688 0.0
N255 N 0.10738 0.27392 0.12664 0.0
N256 N 0.16303 0.3161 0.17348 0.0
C257 C 0.1496 0.20093 0.16683 0.0
C258 C 0.11972 0.17763 0.14141 0.0
C259 C 0.85235 0.82357 0.08971 0.0
C260 C 0.9017 0.8614 0.08243 0.0
C261 C 0.84536 0.73777 0.11039 0.0
C262 C 0.88749 0.68524 0.12367 0.0
H263 H 0.81922 0.86546 0.08084 0.0
H264 H 0.80699 0.72107 0.11801 0.0
S265 S 0.02383 0.74179 0.10896 0.0
N266 N 0.99292 0.8298 0.08791 0.0
N267 N 0.97935 0.66864 0.12576 0.0
C268 C 0.93646 0.71382 0.11416 0.0
C269 C 0.94367 0.8023 0.09393 0.0
C270 C 0.13304 0.23932 0.42643 0.0
C271 C 0.1183 0.3569 0.43486 0.0
C272 C 0.16297 0.21371 0.40176 0.0
C273 C 0.1798 0.305 0.3848 0.0
H274 H 0.11714 0.16542 0.43738 0.0
H275 H 0.16997 0.12122 0.39491 0.0
S276 S 0.16075 0.62998 0.40159 0.0
N277 N 0.1291 0.56641 0.42736 0.0
N278 N 0.18673 0.52004 0.38117 0.0
C279 C 0.17073 0.42428 0.39518 0.0
C280 C 0.1397 0.44993 0.42028 0.0
C281 C 0.9234 0.59849 0.33744 0.0
C282 C 0.87263 0.62662 0.33088 0.0
C283 C 0.9341 0.51553 0.35822 0.0
C284 C 0.8944 0.45591 0.37217 0.0
H285 H 0.95462 0.64538 0.3278 0.0
H286 H 0.9732 0.50625 0.36531 0.0
S287 S 0.75612 0.48605 0.3594 0.0
N288 N 0.78304 0.57886 0.33779 0.0
N289 N 0.80358 0.42205 0.37568 0.0
C290 C 0.84427 0.47473 0.36338 0.0
C291 C 0.83327 0.56079 0.34316 0.0
C292 C 0.12368 0.71148 0.63958 0.0
C293 C 0.1071 0.59306 0.63358 0.0
C294 C 0.15408 0.74232 0.66375 0.0
C295 C 0.16749 0.65626 0.68284 0.0
H296 H 0.11713 0.77825 0.6242 0.0
H297 H 0.17113 0.83019 0.66588 0.0
S298 S 0.12495 0.34213 0.68024 0.0
N299 N 0.09998 0.39495 0.65105 0.0
N300 N 0.15606 0.45411 0.69689 0.0
C301 C 0.14631 0.54179 0.67887 0.0
C302 C 0.11636 0.50966 0.65406 0.0
C303 C 0.86669 0.43542 0.62939 0.0
C304 C 0.8688 0.30953 0.6281 0.0
C305 C 0.87527 0.49947 0.60506 0.0
C306 C 0.88583 0.44078 0.57815 0.0
H307 H 0.86153 0.4861 0.64988 0.0
H308 H 0.87795 0.59565 0.60793 0.0
S309 S 0.87959 0.11294 0.56121 0.0
N310 N 0.87086 0.12881 0.59658 0.0
N311 N 0.88626 0.24886 0.55023 0.0
C312 C 0.88053 0.31501 0.57562 0.0
C313 C 0.87223 0.24932 0.60075 0.0
C314 C 0.14375 0.96884 0.89174 0.0
C315 C 0.16469 0.85541 0.88425 0.0
C316 C 0.11256 -0.01173 0.91632 0.0
C317 C 0.10228 0.89533 0.93422 0.0
H318 H 0.14759 0.03991 0.8772 0.0
H319 H 0.09246 0.07226 0.91964 0.0
S320 S 0.15748 0.59163 0.92795 0.0
N321 N 0.18005 0.65599 0.89951 0.0
N322 N 0.12186 0.69319 0.94577 0.0
C323 C 0.12793 0.78654 0.92888 0.0
C324 C 0.15903 0.76621 0.9038 0.0
C325 C 0.86085 0.04103 0.82839 0.0
C326 C 0.88143 0.15766 0.82942 0.0
C327 C 0.8683 0.96593 0.85109 0.0
C328 C 0.89784 0.00416 0.87503 0.0
H329 H 0.83461 0.01198 0.81133 0.0
H330 H 0.84722 0.88304 0.8511 0.0
S331 S 0.96805 0.29081 0.88532 0.0
N332 N 0.93721 0.30092 0.85456 0.0
N333 N 0.95424 0.15776 0.89631 0.0
C334 C 0.92349 0.11459 0.87449 0.0
C335 C 0.9144 0.1923 0.85198 0.0
C336 C 0.64524 0.26179 0.66921 0.0
C337 C 0.6553 0.17538 0.68886 0.0
C338 C 0.61655 0.233 0.64423 0.0
C339 C 0.59807 0.11633 0.63801 0.0
H340 H 0.66424 0.34747 0.67144 0.0
H341 H 0.61308 0.29939 0.62846 0.0
S342 S 0.60482 0.86715 0.68622 0.0
N343 N 0.63718 -0.02379 0.70333 0.0
N344 N 0.58405 0.92113 0.65613 0.0
C345 C 0.60298 0.03372 0.65918 0.0
C346 C 0.63125 0.06388 0.6848 0.0
C347 C 0.44945 0.89513 0.59756 0.0
C348 C 0.40692 0.93242 0.58204 0.0
C349 C 0.44482 0.81156 0.61838 0.0
C350 C 0.39719 0.76264 0.62513 0.0
H351 H 0.48676 0.93329 0.59411 0.0
H352 H 0.47812 0.79333 0.6312 0.0
S353 S 0.27525 0.815 0.58739 0.0
N354 N 0.317 0.90007 0.57151 0.0
N355 N 0.30729 0.74738 0.61227 0.0
C356 C 0.35493 0.79118 0.60812 0.0
C357 C 0.35999 0.87522 0.58623 0.0
C358 C 0.62078 0.48251 0.92067 0.0
C359 C 0.60071 0.3938 0.93727 0.0
C360 C 0.65298 0.45215 0.89701 0.0
C361 C 0.66513 0.33201 0.88899 0.0
H362 H 0.60768 0.57366 0.92419 0.0
H363 H 0.66457 0.52228 0.88344 0.0
S364 S 0.63033 0.07101 0.92964 0.0
N365 N 0.60185 0.18478 0.94738 0.0
N366 N 0.66133 0.1274 0.90259 0.0
C367 C 0.64953 0.24466 0.90735 0.0
C368 C 0.61765 0.27587 0.93165 0.0
C369 C 0.38783 0.70562 0.88407 0.0
C370 C 0.38786 0.57952 0.88108 0.0
C371 C 0.38421 0.77504 0.86034 0.0
C372 C 0.38065 0.7223 0.83225 0.0
H373 H 0.38824 0.75247 0.90525 0.0
H374 H 0.38008 0.87056 0.8643 0.0
S375 S 0.39508 0.39835 0.81163 0.0
N376 N 0.39547 0.40622 0.84735 0.0
N377 N 0.38883 0.53658 0.80216 0.0
C378 C 0.38769 0.59709 0.82848 0.0
C379 C 0.39117 0.52571 0.85301 0.0
C380 C 0.62136 0.45677 0.14893 0.0
C381 C 0.60176 0.55449 0.13527 0.0
C382 C 0.6526 0.47345 0.17317 0.0
C383 C 0.66594 0.58837 0.18452 0.0
H384 H 0.61516 0.36676 0.13984 0.0
H385 H 0.66994 0.3956 0.18166 0.0
S386 S 0.61586 0.8732 0.16086 0.0
N387 N 0.59055 0.77048 0.13814 0.0
N388 N 0.65084 0.80055 0.18347 0.0
C389 C 0.64209 0.68644 0.17329 0.0
C390 C 0.60963 0.66973 0.14863 0.0
C391 C 0.43771 0.24868 0.11111 0.0
C392 C 0.38981 0.21064 0.12067 0.0
C393 C 0.44191 0.33999 0.09222 0.0
C394 C 0.39843 0.3965 0.08171 0.0
H395 H 0.47232 0.21616 0.12065 0.0
H396 H 0.47984 0.36993 0.08675 0.0
S397 S 0.26397 0.31551 0.09582 0.0
N398 N 0.29767 0.22681 0.11553 0.0
N399 N 0.3059 0.39566 0.07865 0.0
C400 C 0.35024 0.35107 0.08849 0.0
C401 C 0.34588 0.25843 0.10823 0.0
C402 C 0.62862 -0.02352 0.41781 0.0
C403 C 0.61581 0.8921 0.43758 0.0
C404 C 0.65604 0.94254 0.39249 0.0
C405 C 0.67033 0.82273 0.38595 0.0
H406 H 0.61278 0.06554 0.42032 0.0
H407 H 0.66207 0.00849 0.37681 0.0
S408 S 0.65469 0.57488 0.43405 0.0
N409 N 0.62701 0.68995 0.45169 0.0
N410 N 0.67678 0.62502 0.40372 0.0
C411 C 0.66231 0.74099 0.40707 0.0
C412 C 0.63575 0.77637 0.4331 0.0
C413 C 0.37713 0.95817 0.35095 0.0
C414 C 0.41116 -0.00053 0.37256 0.0
C415 C 0.36781 0.02586 0.3271 0.0
C416 C 0.39118 0.13813 0.3246 0.0
H417 H 0.35418 0.87959 0.35379 0.0
H418 H 0.3384 -0.00459 0.31197 0.0
S419 S 0.48966 0.27458 0.37297 0.0
N420 N 0.47416 0.14966 0.38772 0.0
N421 N 0.45432 0.27914 0.34364 0.0
C422 C 0.42839 0.17494 0.34469 0.0
C423 C 0.43907 0.10454 0.36844 0.0
C424 C 0.97851 0.51751 0.98064 0.0
C425 C 1.00428 0.5632 0.00528 0.0
C426 C 0.95285 0.40986 0.98095 0.0
C427 C 0.95188 0.34652 0.00605 0.0
H428 H 0.97736 0.56648 0.96129 0.0
H429 H 0.93486 0.37458 0.96118 0.0
S430 S 0.01059 0.43313 0.07663 0.0
N431 N 0.02717 0.53914 0.05546 0.0
N432 N 0.97532 0.33943 0.05642 0.0
C433 C 0.97671 0.3921 0.03092 0.0
C434 C 1.00421 0.49984 0.03038 0.0
C435 C 0.30018 0.62648 0.27741 0.0
C436 C 0.31939 0.57993 0.25087 0.0
C437 C 0.27605 0.73633 0.27925 0.0
C438 C 0.27037 0.80008 0.25446 0.0
H439 H 0.30383 0.57779 0.29669 0.0
H440 H 0.26368 0.77355 0.30028 0.0
S441 S 0.30793 0.7064 0.17944 0.0
N442 N 0.32783 0.59835 0.19904 0.0
N443 N 0.28084 0.80536 0.20252 0.0
C444 C 0.2876 0.75202 0.22766 0.0
C445 C 0.31286 0.64142 0.22586 0.0
C446 C 0.81017 0.14157 0.23081 0.0
C447 C 0.81781 0.07571 0.25499 0.0
C448 C 0.78653 0.25168 0.2339 0.0
C449 C 0.76981 0.2967 0.26117 0.0
H450 H 0.8209 0.10598 0.20934 0.0
H451 H 0.78154 0.30215 0.215 0.0
S452 S 0.78542 0.16034 0.33115 0.0
N453 N 0.81133 0.0644 0.30692 0.0
N454 N 0.76407 0.27079 0.31278 0.0
C455 C 0.77754 0.23155 0.28549 0.0
C456 C 0.80266 0.12082 0.28239 0.0
C457 C 0.97371 0.9172 0.47845 0.0
C458 C 0.96514 0.85273 0.50282 0.0
C459 C 0.99759 0.02709 0.48129 0.0
C460 C 0.01358 0.07329 0.5085 0.0
H461 H 0.96333 0.88086 0.45704 0.0
H462 H 1.00301 0.07687 0.46229 0.0
S463 S 0.99549 0.94192 0.57897 0.0
N464 N 0.97031 0.84447 0.55492 0.0
N465 N 0.01747 0.0513 0.56033 0.0
C466 C 0.00507 0.0098 0.53304 0.0
C467 C 0.97987 0.89903 0.53018 0.0
C468 C 0.31442 0.20513 0.73143 0.0
C469 C 0.31715 0.13971 0.75603 0.0
C470 C 0.29141 0.31577 0.73308 0.0
C471 C 0.27075 0.36172 0.75931 0.0
H472 H 0.32815 0.16841 0.71062 0.0
H473 H 0.28962 0.36541 0.71386 0.0
S474 S 0.2746 0.22889 0.83035 0.0
N475 N 0.30248 0.13021 0.80752 0.0
N476 N 0.25767 0.33983 0.81083 0.0
C477 C 0.27435 0.29809 0.78423 0.0
C478 C 0.29836 0.18615 0.78255 0.0
C479 C 0.78731 0.66822 0.78358 0.0
C480 C 0.8139 0.62186 0.75919 0.0
C481 C 0.76211 0.77643 0.78298 0.0
C482 C 0.76262 0.8398 0.75785 0.0
H483 H 0.78574 0.62021 0.80307 0.0
H484 H 0.74381 0.81255 0.80266 0.0
S485 S 0.82112 0.74677 0.68721 0.0
N486 N 0.83613 0.64053 0.70857 0.0
N487 N 0.78739 0.84439 0.70744 0.0
C488 C 0.78751 0.79214 0.73303 0.0
C489 C 0.81381 0.68296 0.73373 0.0
C490 C 0.4998 0.53133 0.53437 0.0
C491 C 0.50904 0.5958 0.51002 0.0
C492 C 0.47672 0.42038 0.53124 0.0
C493 C 0.46214 0.37402 0.50381 0.0
H494 H 0.50859 0.56872 0.55592 0.0
H495 H 0.4702 0.37081 0.55017 0.0
S496 S 0.48422 0.5031 0.43346 0.0
N497 N 0.50696 0.60239 0.45785 0.0
N498 N 0.4619 0.39337 0.45185 0.0
C499 C 0.47233 0.43629 0.47931 0.0
C500 C 0.49654 0.54784 0.48246 0.0
C501 C 0.44108 0.93335 0.98652 0.0
C502 C 0.44481 0.87198 0.01182 0.0
C503 C 0.4645 0.0427 0.98479 0.0
C504 C 0.49216 0.09191 0.00829 0.0
H505 H 0.42187 0.89429 0.9675 0.0
H506 H 0.46096 0.08901 0.96512 0.0
S507 S 0.50707 -0.02904 0.08048 0.0
N508 N 0.47344 0.86998 0.0614 0.0
N509 N 0.51846 0.0777 0.05853 0.0
C510 C 0.49486 0.03274 0.03409 0.0
C511 C 0.47064 0.92178 0.0358 0.0
C512 C 0.2537 0.17174 0.9827 0.0
C513 C 0.26472 0.28917 0.99289 0.0
C514 C 0.20704 0.1184 0.98927 0.0
C515 C 0.16961 0.18046 0.00628 0.0
H516 H 0.28121 0.12046 0.96955 0.0
H517 H 0.20068 0.02685 0.98136 0.0
S518 S 0.179 0.49086 0.0381 0.0
N519 N 0.23359 0.46671 0.02082 0.0
N520 N 0.14631 0.36619 0.03277 0.0
C521 C 0.17958 0.29875 0.01607 0.0
C522 C 0.22708 0.35292 0.0096 0.0
C523 C 0.75331 0.6573 0.98222 0.0
C524 C 0.77194 0.76515 0.99496 0.0
C525 C 0.70503 0.61465 0.98976 0.0
C526 C 0.67372 0.67858 0.01022 0.0
H527 H 0.77556 0.60695 0.96589 0.0
H528 H 0.69219 0.53052 0.97958 0.0
S529 S 0.70673 0.96129 0.05142 0.0
N530 N 0.75657 0.93187 0.03023 0.0
N531 N 0.66589 0.8519 0.04401 0.0
C532 C 0.69213 0.78593 0.02326 0.0
C533 C 0.74131 0.82882 0.01582 0.0
C534 C 0.05934 0.33003 0.2445 0.0
C535 C 0.09502 0.39821 0.26123 0.0
C536 C 0.01166 0.37684 0.23739 0.0
C537 C 0.99772 0.49367 0.24679 0.0
H538 H 0.06827 0.23936 0.23682 0.0
H539 H 0.98598 0.32168 0.22403 0.0
S540 S 0.07603 0.70662 0.29277 0.0
N541 N 0.11224 0.58694 0.28791 0.0
N542 N 0.02287 0.67496 0.27487 0.0
C543 C 0.0329 0.56235 0.26385 0.0
C544 C 0.08149 0.51486 0.2709 0.0
C545 C 0.27946 0.66478 0.4966 0.0
C546 C 0.27991 0.78492 0.4901 0.0
C547 C 0.23431 0.60986 0.50515 0.0
C548 C 0.18769 0.67277 0.50754 0.0
H549 H 0.3144 0.61307 0.4956 0.0
H550 H 0.23643 0.51784 0.51058 0.0
S551 S 0.16703 -0.01352 0.49011 0.0
N552 N 0.22867 0.96325 0.48463 0.0
N553 N 0.14419 0.8598 0.50072 0.0
C554 C 0.18722 0.79194 0.50017 0.0
C555 C 0.23318 0.84803 0.49149 0.0
C556 C 0.74749 0.34092 0.50908 0.0
C557 C 0.78406 0.26809 0.49405 0.0
C558 C 0.70002 0.2961 0.51717 0.0
C559 C 0.6871 0.17626 0.51075 0.0
H560 H 0.75556 0.43387 0.51485 0.0
H561 H 0.67385 0.35528 0.52924 0.0
S562 S 0.76719 0.94939 0.46998 0.0
N563 N 0.80274 0.07089 0.47186 0.0
N564 N 0.71351 -0.01369 0.48712 0.0
C565 C 0.7228 0.10255 0.49529 0.0
C566 C 0.77126 0.14835 0.48702 0.0
C567 C 0.99093 0.96409 0.76526 0.0
C568 C 0.98728 0.01274 0.73828 0.0
C569 C 0.03793 0.9228 0.77499 0.0
C570 C 0.08272 0.93137 0.7583 0.0
H571 H 0.95774 0.96175 0.77928 0.0
H572 H 0.03952 0.8863 0.79602 0.0
S573 S 0.09177 0.04025 0.68496 0.0
N574 N 0.03112 0.05974 0.69418 0.0
N575 N 0.11971 -0.01725 0.71274 0.0
C576 C 0.07923 -0.02336 0.731 0.0
C577 C 0.03132 0.01743 0.72094 0.0
C578 C 0.54794 0.37787 0.75496 0.0
C579 C 0.59005 0.44641 0.76534 0.0
C580 C 0.5024 0.43124 0.74667 0.0
C581 C 0.49686 0.55562 0.74832 0.0
H582 H 0.54976 0.2815 0.7534 0.0
H583 H 0.47137 0.3742 0.73889 0.0
S584 S 0.5962 0.77654 0.7732 0.0
N585 N 0.62347 0.64589 0.77619 0.0
N586 N 0.53835 0.74678 0.76073 0.0
C587 C 0.53894 0.62563 0.7584 0.0
C588 C 0.58536 0.57102 0.76678 0.0
C589 C 0.58057 0.00523 0.26476 0.0
C590 C 0.59227 0.88541 0.25739 0.0
C591 C 0.53417 0.05426 0.25671 0.0
C592 C 0.49758 -0.01402 0.24068 0.0
H593 H 0.60673 0.06102 0.27765 0.0
H594 H 0.52695 0.14684 0.26337 0.0
S595 S 0.51165 0.66951 0.21389 0.0
N596 N 0.56476 0.70023 0.23196 0.0
N597 N 0.47765 0.79335 0.21639 0.0
C598 C 0.50927 0.86647 0.23256 0.0
C599 C 0.55659 0.81613 0.24095 0.0
loop_
_geom_bond_atom_site_label_1
_geom_bond_atom_site_label_2
_geom_bond_distance
_geom_bond_site_symmetry_2
_ccdc_geom_bond_type
C0 O12 1.241 1_565 S
C0 O13 1.280 . S
C1 O14 1.277 . S
C1 O15 1.245 . S
C2 O26 1.239 1_554 S
C2 O28 1.306 1_655 S
Mg3 O4 1.926 . S
Mg3 O13 1.984 . S
Mg3 O15 1.988 1_565 S
Mg3 O16 2.061 . S
O4 Mg3 1.926 . S
O4 Mg5 1.986 1_565 S
O4 Mg6 1.916 1_565 S
Mg5 O4 1.986 1_545 S
Mg5 O12 2.042 . S
Mg5 O14 2.041 . S
Mg5 O20 2.038 1_455 S
Mg5 O28 2.238 . S
Mg6 O4 1.916 1_545 S
Mg6 O7 1.918 1_454 S
Mg6 O17 2.098 1_444 S
Mg6 O19 2.078 1_445 S
Mg6 O28 2.115 . S
Mg6 O29 2.080 1_554 S
O7 Mg6 1.918 1_656 S
O7 Mg8 1.926 . S
O7 Mg9 1.986 1_545 S
Mg8 O7 1.926 . S
Mg8 O22 1.984 . S
Mg8 O25 1.988 1_545 S
Mg8 O26 2.061 . S
Mg9 O7 1.986 1_565 S
Mg9 O17 2.238 . S
Mg9 O21 2.042 . S
Mg9 O23 2.041 . S
Mg9 O30 2.038 1_655 S
C10 O16 1.247 . S
C10 O17 1.289 1_454 S
C11 O29 1.245 1_565 S
C11 O30 1.274 . S
O12 C0 1.241 1_545 S
O12 Mg5 2.042 . S
O13 C0 1.280 . S
O13 Mg3 1.984 . S
O14 C1 1.277 . S
O14 Mg5 2.041 . S
O15 C1 1.245 . S
O15 Mg3 1.988 1_545 S
O16 Mg3 2.061 . S
O16 C10 1.247 . S
O17 Mg6 2.098 1_666 S
O17 Mg9 2.238 . S
O17 C10 1.289 1_656 S
C18 O19 1.245 1_545 S
C18 O20 1.274 . S
O19 Mg6 2.078 1_665 S
O19 C18 1.245 1_565 S
O20 Mg5 2.038 1_655 S
O20 C18 1.274 . S
O21 Mg9 2.042 . S
O21 C24 1.241 1_565 S
O22 Mg8 1.984 . S
O22 C24 1.280 . S
O23 Mg9 2.041 . S
O23 C27 1.277 . S
C24 O21 1.241 1_545 S
C24 O22 1.280 . S
O25 Mg8 1.988 1_565 S
O25 C27 1.245 . S
O26 C2 1.239 1_556 S
O26 Mg8 2.061 . S
C27 O23 1.277 . S
C27 O25 1.245 . S
O28 C2 1.306 1_455 S
O28 Mg5 2.238 . S
O28 Mg6 2.115 . S
O29 Mg6 2.080 1_556 S
O29 C11 1.245 1_545 S
O30 Mg9 2.038 1_455 S
O30 C11 1.274 . S
C31 O43 1.241 . S
C31 O44 1.280 . S
C32 O45 1.277 . S
C32 O46 1.245 . S
C33 O57 1.247 . S
C33 O59 1.289 1_565 S
Mg34 O35 1.926 . S
Mg34 O44 1.984 . S
Mg34 O46 1.988 . S
Mg34 O47 2.061 . S
O35 Mg34 1.926 . S
O35 Mg36 1.986 . S
O35 Mg37 1.917 . S
Mg36 O35 1.986 . S
Mg36 O43 2.042 . S
Mg36 O45 2.041 . S
Mg36 O51 2.038 . S
Mg36 O59 2.238 . S
Mg37 O35 1.917 . S
Mg37 O38 1.917 . S
Mg37 O48 2.106 . S
Mg37 O50 2.079 . S
Mg37 O59 2.106 . S
Mg37 O60 2.079 . S
O38 Mg37 1.917 . S
O38 Mg39 1.926 . S
O38 Mg40 1.986 . S
Mg39 O38 1.926 . S
Mg39 O53 1.984 . S
Mg39 O56 1.988 . S
Mg39 O57 2.061 1_545 S
Mg40 O38 1.986 . S
Mg40 O48 2.238 . S
Mg40 O52 2.042 . S
Mg40 O54 2.041 . S
Mg40 O61 2.038 . S
C41 O47 1.247 . S
C41 O48 1.289 . S
C42 O60 1.245 . S
C42 O61 1.274 . S
O43 C31 1.241 . S
O43 Mg36 2.042 . S
O44 C31 1.280 . S
O44 Mg34 1.984 . S
O45 C32 1.277 . S
O45 Mg36 2.041 . S
O46 C32 1.245 . S
O46 Mg34 1.988 . S
O47 Mg34 2.061 . S
O47 C41 1.247 . S
O48 Mg37 2.106 . S
O48 Mg40 2.238 . S
O48 C41 1.289 . S
C49 O50 1.245 . S
C49 O51 1.274 . S
O50 Mg37 2.079 . S
O50 C49 1.245 . S
O51 Mg36 2.038 . S
O51 C49 1.274 . S
O52 Mg40 2.042 . S
O52 C55 1.241 . S
O53 Mg39 1.984 . S
O53 C55 1.280 . S
O54 Mg40 2.041 . S
O54 C58 1.277 . S
C55 O52 1.241 . S
C55 O53 1.280 . S
O56 Mg39 1.988 . S
O56 C58 1.245 . S
O57 C33 1.247 . S
O57 Mg39 2.061 1_565 S
C58 O54 1.277 . S
C58 O56 1.245 . S
O59 C33 1.289 1_545 S
O59 Mg36 2.238 . S
O59 Mg37 2.106 . S
O60 Mg37 2.079 . S
O60 C42 1.245 . S
O61 Mg40 2.038 . S
O61 C42 1.274 . S
C62 O74 1.241 . S
C62 O75 1.280 . S
C63 O76 1.277 . S
C63 O77 1.245 . S
C64 O88 1.247 . S
C64 O90 1.289 . S
Mg65 O66 1.926 . S
Mg65 O75 1.984 . S
Mg65 O77 1.988 . S
Mg65 O78 2.061 1_565 S
O66 Mg65 1.926 . S
O66 Mg67 1.986 . S
O66 Mg68 1.917 . S
Mg67 O66 1.986 . S
Mg67 O74 2.042 . S
Mg67 O76 2.041 . S
Mg67 O82 2.038 . S
Mg67 O90 2.238 . S
Mg68 O66 1.917 . S
Mg68 O69 1.917 . S
Mg68 O79 2.106 . S
Mg68 O81 2.079 . S
Mg68 O90 2.106 . S
Mg68 O91 2.079 . S
O69 Mg68 1.917 . S
O69 Mg70 1.926 . S
O69 Mg71 1.986 . S
Mg70 O69 1.926 . S
Mg70 O84 1.984 . S
Mg70 O87 1.988 . S
Mg70 O88 2.061 . S
Mg71 O69 1.986 . S
Mg71 O79 2.238 . S
Mg71 O83 2.042 . S
Mg71 O85 2.041 . S
Mg71 O92 2.038 . S
C72 O78 1.247 . S
C72 O79 1.289 1_545 S
C73 O91 1.245 . S
C73 O92 1.274 . S
O74 C62 1.241 . S
O74 Mg67 2.042 . S
O75 C62 1.280 . S
O75 Mg65 1.984 . S
O76 C63 1.277 . S
O76 Mg67 2.041 . S
O77 C63 1.245 . S
O77 Mg65 1.988 . S
O78 Mg65 2.061 1_545 S
O78 C72 1.247 . S
O79 Mg68 2.106 . S
O79 Mg71 2.238 . S
O79 C72 1.289 1_565 S
C80 O81 1.245 . S
C80 O82 1.274 . S
O81 Mg68 2.079 . S
O81 C80 1.245 . S
O82 Mg67 2.038 . S
O82 C80 1.274 . S
O83 Mg71 2.042 . S
O83 C86 1.241 . S
O84 Mg70 1.984 . S
O84 C86 1.280 . S
O85 Mg71 2.041 . S
O85 C89 1.277 . S
C86 O83 1.241 . S
C86 O84 1.280 . S
O87 Mg70 1.988 . S
O87 C89 1.245 . S
O88 C64 1.247 . S
O88 Mg70 2.061 . S
C89 O85 1.277 . S
C89 O87 1.245 . S
O90 C64 1.289 . S
O90 Mg67 2.238 . S
O90 Mg68 2.106 . S
O91 Mg68 2.079 . S
O91 C73 1.245 . S
O92 Mg71 2.038 . S
O92 C73 1.274 . S
C93 O105 1.241 . S
C93 O106 1.280 . S
C94 O107 1.277 . S
C94 O108 1.245 . S
C95 O119 1.247 . S
C95 O121 1.289 1_655 S
Mg96 O97 1.926 . S
Mg96 O106 1.984 . S
Mg96 O108 1.988 . S
Mg96 O109 2.061 . S
O97 Mg96 1.926 . S
O97 Mg98 1.986 . S
O97 Mg99 1.917 . S
Mg98 O97 1.986 . S
Mg98 O105 2.042 . S
Mg98 O107 2.041 . S
Mg98 O113 2.038 1_455 S
Mg98 O121 2.238 . S
Mg99 O97 1.917 . S
Mg99 O100 1.917 1_455 S
Mg99 O110 2.106 1_455 S
Mg99 O112 2.079 1_455 S
Mg99 O121 2.106 . S
Mg99 O122 2.079 . S
O100 Mg99 1.917 1_655 S
O100 Mg101 1.926 . S
O100 Mg102 1.986 . S
Mg101 O100 1.926 . S
Mg101 O115 1.984 . S
Mg101 O118 1.988 . S
Mg101 O119 2.061 . S
Mg102 O100 1.986 . S
Mg102 O110 2.238 . S
Mg102 O114 2.042 . S
Mg102 O116 2.041 . S
Mg102 O123 2.038 1_655 S
C103 O109 1.247 . S
C103 O110 1.289 1_455 S
C104 O122 1.245 . S
C104 O123 1.274 . S
O105 C93 1.241 . S
O105 Mg98 2.042 . S
O106 C93 1.280 . S
O106 Mg96 1.984 . S
O107 C94 1.277 . S
O107 Mg98 2.041 . S
O108 C94 1.245 . S
O108 Mg96 1.988 . S
O109 Mg96 2.061 . S
O109 C103 1.247 . S
O110 Mg99 2.106 1_655 S
O110 Mg102 2.238 . S
O110 C103 1.289 1_655 S
C111 O112 1.245 . S
C111 O113 1.274 . S
O112 Mg99 2.079 1_655 S
O112 C111 1.245 . S
O113 Mg98 2.038 1_655 S
O113 C111 1.274 . S
O114 Mg102 2.042 . S
O114 C117 1.241 . S
O115 Mg101 1.984 . S
O115 C117 1.280 . S
O116 Mg102 2.041 . S
O116 C120 1.277 . S
C117 O114 1.241 . S
C117 O115 1.280 . S
O118 Mg101 1.988 . S
O118 C120 1.245 . S
O119 C95 1.247 . S
O119 Mg101 2.061 . S
C120 O116 1.277 . S
C120 O118 1.245 . S
O121 C95 1.289 1_455 S
O121 Mg98 2.238 . S
O121 Mg99 2.106 . S
O122 Mg99 2.079 . S
O122 C104 1.245 . S
O123 Mg102 2.038 1_455 S
O123 C104 1.274 . S
C124 O136 1.241 . S
C124 O137 1.280 . S
C125 O138 1.277 . S
C125 O139 1.245 . S
C126 O150 1.247 . S
C126 O152 1.289 . S
Mg127 O128 1.926 . S
Mg127 O137 1.984 . S
Mg127 O139 1.988 . S
Mg127 O140 2.061 1_565 S
O128 Mg127 1.926 . S
O128 Mg129 1.986 . S
O128 Mg130 1.917 . S
Mg129 O128 1.986 . S
Mg129 O136 2.042 . S
Mg129 O138 2.041 . S
Mg129 O144 2.038 . S
Mg129 O152 2.238 . S
Mg130 O128 1.917 . S
Mg130 O131 1.917 . S
Mg130 O141 2.106 . S
Mg130 O143 2.079 . S
Mg130 O152 2.106 . S
Mg130 O153 2.079 . S
O131 Mg130 1.917 . S
O131 Mg132 1.926 . S
O131 Mg133 1.986 . S
Mg132 O131 1.926 . S
Mg132 O146 1.984 . S
Mg132 O149 1.988 . S
Mg132 O150 2.061 . S
Mg133 O131 1.986 . S
Mg133 O141 2.238 . S
Mg133 O145 2.042 . S
Mg133 O147 2.041 . S
Mg133 O154 2.038 . S
C134 O140 1.247 . S
C134 O141 1.289 1_545 S
C135 O153 1.245 . S
C135 O154 1.274 . S
O136 C124 1.241 . S
O136 Mg129 2.042 . S
O137 C124 1.280 . S
O137 Mg127 1.984 . S
O138 C125 1.277 . S
O138 Mg129 2.041 . S
O139 C125 1.245 . S
O139 Mg127 1.988 . S
O140 Mg127 2.061 1_545 S
O140 C134 1.247 . S
O141 Mg130 2.106 . S
O141 Mg133 2.238 . S
O141 C134 1.289 1_565 S
C142 O143 1.245 . S
C142 O144 1.274 . S
O143 Mg130 2.079 . S
O143 C142 1.245 . S
O144 Mg129 2.038 . S
O144 C142 1.274 . S
O145 Mg133 2.042 . S
O145 C148 1.241 . S
O146 Mg132 1.984 . S
O146 C148 1.280 . S
O147 Mg133 2.041 . S
O147 C151 1.277 . S
C148 O145 1.241 . S
C148 O146 1.280 . S
O149 Mg132 1.988 . S
O149 C151 1.245 . S
O150 C126 1.247 . S
O150 Mg132 2.061 . S
C151 O147 1.277 . S
C151 O149 1.245 . S
O152 C126 1.289 . S
O152 Mg129 2.238 . S
O152 Mg130 2.106 . S
O153 Mg130 2.079 . S
O153 C135 1.245 . S
O154 Mg133 2.038 . S
O154 C135 1.274 . S
C155 O167 1.241 . S
C155 O168 1.280 . S
C156 O169 1.277 . S
C156 O170 1.245 . S
C157 O181 1.247 . S
C157 O183 1.289 1_565 S
Mg158 O159 1.926 . S
Mg158 O168 1.984 . S
Mg158 O170 1.988 . S
Mg158 O171 2.061 . S
O159 Mg158 1.926 . S
O159 Mg160 1.986 . S
O159 Mg161 1.917 . S
Mg160 O159 1.986 . S
Mg160 O167 2.042 . S
Mg160 O169 2.041 . S
Mg160 O175 2.038 . S
Mg160 O183 2.238 . S
Mg161 O159 1.917 . S
Mg161 O162 1.917 . S
Mg161 O172 2.106 . S
Mg161 O174 2.079 . S
Mg161 O183 2.106 . S
Mg161 O184 2.079 . S
O162 Mg161 1.917 . S
O162 Mg163 1.926 . S
O162 Mg164 1.986 . S
Mg163 O162 1.926 . S
Mg163 O177 1.984 . S
Mg163 O180 1.988 . S
Mg163 O181 2.061 1_545 S
Mg164 O162 1.986 . S
Mg164 O172 2.238 . S
Mg164 O176 2.042 . S
Mg164 O178 2.041 . S
Mg164 O185 2.038 . S
C165 O171 1.247 . S
C165 O172 1.289 . S
C166 O184 1.245 . S
C166 O185 1.274 . S
O167 C155 1.241 . S
O167 Mg160 2.042 . S
O168 C155 1.280 . S
O168 Mg158 1.984 . S
O169 C156 1.277 . S
O169 Mg160 2.041 . S
O170 C156 1.245 . S
O170 Mg158 1.988 . S
O171 Mg158 2.061 . S
O171 C165 1.247 . S
O172 Mg161 2.106 . S
O172 Mg164 2.238 . S
O172 C165 1.289 . S
C173 O174 1.245 . S
C173 O175 1.274 . S
O174 Mg161 2.079 . S
O174 C173 1.245 . S
O175 Mg160 2.038 . S
O175 C173 1.274 . S
O176 Mg164 2.042 . S
O176 C179 1.241 . S
O177 Mg163 1.984 . S
O177 C179 1.280 . S
O178 Mg164 2.041 . S
O178 C182 1.277 . S
C179 O176 1.241 . S
C179 O177 1.280 . S
O180 Mg163 1.988 . S
O180 C182 1.245 . S
O181 C157 1.247 . S
O181 Mg163 2.061 1_565 S
C182 O178 1.277 . S
C182 O180 1.245 . S
O183 C157 1.289 1_545 S
O183 Mg160 2.238 . S
O183 Mg161 2.106 . S
O184 Mg161 2.079 . S
O184 C166 1.245 . S
O185 Mg164 2.038 . S
O185 C166 1.274 . S
C186 O198 1.241 1_565 S
C186 O199 1.280 . S
C187 O200 1.277 . S
C187 O201 1.245 . S
C188 O212 1.247 . S
C188 O214 1.289 . S
Mg189 O190 1.926 . S
Mg189 O199 1.984 . S
Mg189 O201 1.988 1_565 S
Mg189 O202 2.061 . S
O190 Mg189 1.926 . S
O190 Mg191 1.986 1_565 S
O190 Mg192 1.916 1_565 S
Mg191 O190 1.986 1_545 S
Mg191 O198 2.042 . S
Mg191 O200 2.041 . S
Mg191 O206 2.038 . S
Mg191 O214 2.238 . S
Mg192 O190 1.916 1_545 S
Mg192 O193 1.917 . S
Mg192 O203 2.101 1_545 S
Mg192 O205 2.078 1_545 S
Mg192 O214 2.112 . S
Mg192 O215 2.079 . S
O193 Mg192 1.917 . S
O193 Mg194 1.926 . S
O193 Mg195 1.986 1_545 S
Mg194 O193 1.926 . S
Mg194 O208 1.984 . S
Mg194 O211 1.988 1_545 S
Mg194 O212 2.061 . S
Mg195 O193 1.986 1_565 S
Mg195 O203 2.238 . S
Mg195 O207 2.042 . S
Mg195 O209 2.041 . S
Mg195 O216 2.038 . S
C196 O202 1.247 . S
C196 O203 1.289 . S
C197 O215 1.245 1_565 S
C197 O216 1.274 . S
O198 C186 1.241 1_545 S
O198 Mg191 2.042 . S
O199 C186 1.280 . S
O199 Mg189 1.984 . S
O200 C187 1.277 . S
O200 Mg191 2.041 . S
O201 C187 1.245 . S
O201 Mg189 1.988 1_545 S
O202 Mg189 2.061 . S
O202 C196 1.247 . S
O203 Mg192 2.101 1_565 S
O203 Mg195 2.238 . S
O203 C196 1.289 . S
C204 O205 1.245 1_545 S
C204 O206 1.274 . S
O205 Mg192 2.078 1_565 S
O205 C204 1.245 1_565 S
O206 Mg191 2.038 . S
O206 C204 1.274 . S
O207 Mg195 2.042 . S
O207 C210 1.241 1_565 S
O208 Mg194 1.984 . S
O208 C210 1.280 . S
O209 Mg195 2.041 . S
O209 C213 1.277 . S
C210 O207 1.241 1_545 S
C210 O208 1.280 . S
O211 Mg194 1.988 1_565 S
O211 C213 1.245 . S
O212 C188 1.247 . S
O212 Mg194 2.061 . S
C213 O209 1.277 . S
C213 O211 1.245 . S
O214 C188 1.289 . S
O214 Mg191 2.238 . S
O214 Mg192 2.112 . S
O215 Mg192 2.079 . S
O215 C197 1.245 1_545 S
O216 Mg195 2.038 . S
O216 C197 1.274 . S
C217 O229 1.241 . S
C217 O230 1.280 . S
C218 O231 1.277 . S
C218 O232 1.245 . S
C219 O243 1.239 1_554 S
C219 O245 1.306 . S
Mg220 O221 1.926 . S
Mg220 O230 1.984 . S
Mg220 O232 1.988 . S
Mg220 O233 2.061 . S
O221 Mg220 1.926 . S
O221 Mg222 1.986 . S
O221 Mg223 1.917 . S
Mg222 O221 1.986 . S
Mg222 O229 2.042 . S
Mg222 O231 2.041 . S
Mg222 O237 2.038 . S
Mg222 O245 2.238 . S
Mg223 O221 1.917 . S
Mg223 O224 1.917 1_554 S
Mg223 O234 2.106 1_554 S
Mg223 O236 2.079 . S
Mg223 O245 2.106 . S
Mg223 O246 2.079 1_554 S
O224 Mg223 1.917 1_556 S
O224 Mg225 1.926 . S
O224 Mg226 1.986 . S
Mg225 O224 1.926 . S
Mg225 O239 1.984 . S
Mg225 O242 1.988 . S
Mg225 O243 2.061 . S
Mg226 O224 1.986 . S
Mg226 O234 2.238 . S
Mg226 O238 2.042 . S
Mg226 O240 2.041 . S
Mg226 O247 2.038 . S
C227 O233 1.247 . S
C227 O234 1.289 1_554 S
C228 O246 1.245 . S
C228 O247 1.274 . S
O229 C217 1.241 . S
O229 Mg222 2.042 . S
O230 C217 1.280 . S
O230 Mg220 1.984 . S
O231 C218 1.277 . S
O231 Mg222 2.041 . S
O232 C218 1.245 . S
O232 Mg220 1.988 . S
O233 Mg220 2.061 . S
O233 C227 1.247 . S
O234 Mg223 2.106 1_556 S
O234 Mg226 2.238 . S
O234 C227 1.289 1_556 S
C235 O236 1.245 . S
C235 O237 1.274 . S
O236 Mg223 2.079 . S
O236 C235 1.245 . S
O237 Mg222 2.038 . S
O237 C235 1.274 . S
O238 Mg226 2.042 . S
O238 C241 1.241 . S
O239 Mg225 1.984 . S
O239 C241 1.280 . S
O240 Mg226 2.041 . S
O240 C244 1.277 . S
C241 O238 1.241 . S
C241 O239 1.280 . S
O242 Mg225 1.988 . S
O242 C244 1.245 . S
O243 C219 1.239 1_556 S
O243 Mg225 2.061 . S
C244 O240 1.277 . S
C244 O242 1.245 . S
O245 C219 1.306 . S
O245 Mg222 2.238 . S
O245 Mg223 2.106 . S
O246 Mg223 2.079 1_556 S
O246 C228 1.245 . S
O247 Mg226 2.038 . S
O247 C228 1.274 . S
C248 C249 1.369 . S
C248 C250 1.419 . S
C248 H252 0.930 1_545 S
C249 C248 1.369 . S
C249 C258 1.429 . S
C250 C248 1.419 . S
C250 C251 1.363 . S
C250 H253 0.929 . S
C251 C250 1.363 . S
C251 C257 1.428 . S
H252 C248 0.930 1_565 S
H253 C250 0.929 . S
S254 N255 1.613 . S
S254 N256 1.610 . S
N255 S254 1.613 . S
N255 C258 1.350 . S
N256 S254 1.610 . S
N256 C257 1.351 . S
C257 C251 1.428 . S
C257 N256 1.351 . S
C257 C258 1.434 . S
C258 C249 1.429 . S
C258 N255 1.350 . S
C258 C257 1.434 . S
C259 C260 1.369 . S
C259 C261 1.419 . S
C259 H263 0.930 1_565 S
C260 C259 1.369 . S
C260 C269 1.429 . S
C261 C259 1.419 . S
C261 C262 1.363 . S
C261 H264 0.929 . S
C262 C261 1.363 . S
C262 C268 1.428 . S
H263 C259 0.930 1_545 S
H264 C261 0.929 . S
S265 N266 1.613 . S
S265 N267 1.610 1_455 S
N266 S265 1.613 . S
N266 C269 1.350 1_455 S
N267 S265 1.610 1_655 S
N267 C268 1.351 . S
C268 C262 1.428 . S
C268 N267 1.351 . S
C268 C269 1.434 . S
C269 C260 1.429 . S
C269 N266 1.350 1_655 S
C269 C268 1.434 . S
C270 C271 1.369 . S
C270 C272 1.419 . S
C270 H274 0.930 . S
C271 C270 1.369 . S
C271 C280 1.429 . S
C272 C270 1.419 . S
C272 C273 1.363 . S
C272 H275 0.929 . S
C273 C272 1.363 . S
C273 C279 1.428 . S
H274 C270 0.930 . S
H275 C272 0.929 . S
S276 N277 1.613 1_655 S
S276 N278 1.610 1_655 S
N277 S276 1.613 1_455 S
N277 C280 1.350 . S
N278 S276 1.610 1_455 S
N278 C279 1.351 . S
C279 C273 1.428 . S
C279 N278 1.351 . S
C279 C280 1.434 . S
C280 C271 1.429 . S
C280 N277 1.350 . S
C280 C279 1.434 . S
C281 C282 1.369 . S
C281 C283 1.419 . S
C281 H285 0.930 . S
C282 C281 1.369 . S
C282 C291 1.429 . S
C283 C281 1.419 . S
C283 C284 1.363 . S
C283 H286 0.929 . S
C284 C283 1.363 . S
C284 C290 1.428 . S
H285 C281 0.930 . S
H286 C283 0.929 . S
S287 N288 1.613 . S
S287 N289 1.610 . S
N288 S287 1.613 . S
N288 C291 1.350 . S
N289 S287 1.610 . S
N289 C290 1.351 . S
C290 C284 1.428 . S
C290 N289 1.351 . S
C290 C291 1.434 . S
C291 C282 1.429 . S
C291 N288 1.350 . S
C291 C290 1.434 . S
C292 C293 1.369 . S
C292 C294 1.419 . S
C292 H296 0.930 . S
C293 C292 1.369 . S
C293 C302 1.429 . S
C294 C292 1.419 . S
C294 C295 1.363 . S
C294 H297 0.929 . S
C295 C294 1.363 . S
C295 C301 1.428 . S
H296 C292 0.930 . S
H297 C294 0.929 . S
S298 N299 1.613 . S
S298 N300 1.610 . S
N299 S298 1.613 . S
N299 C302 1.350 . S
N300 S298 1.610 . S
N300 C301 1.351 . S
C301 C295 1.428 . S
C301 N300 1.351 . S
C301 C302 1.434 . S
C302 C293 1.429 . S
C302 N299 1.350 . S
C302 C301 1.434 . S
C303 C304 1.369 . S
C303 C305 1.419 . S
C303 H307 0.930 . S
C304 C303 1.369 . S
C304 C313 1.429 . S
C305 C303 1.419 . S
C305 C306 1.363 . S
C305 H308 0.929 . S
C306 C305 1.363 . S
C306 C312 1.428 . S
H307 C303 0.930 . S
H308 C305 0.929 . S
S309 N310 1.613 . S
S309 N311 1.610 . S
N310 S309 1.613 . S
N310 C313 1.350 . S
N311 S309 1.610 . S
N311 C312 1.351 . S
C312 C306 1.428 . S
C312 N311 1.351 . S
C312 C313 1.434 . S
C313 C304 1.429 . S
C313 N310 1.350 . S
C313 C312 1.434 . S
C314 C315 1.369 . S
C314 C316 1.419 . S
C314 H318 0.930 . S
C315 C314 1.369 . S
C315 C324 1.429 . S
C316 C314 1.419 . S
C316 C317 1.363 . S
C316 H319 0.929 . S
C317 C316 1.363 . S
C317 C323 1.428 . S
H318 C314 0.930 . S
H319 C316 0.929 . S
S320 N321 1.613 . S
S320 N322 1.610 . S
N321 S320 1.613 . S
N321 C324 1.350 . S
N322 S320 1.610 . S
N322 C323 1.351 . S
C323 C317 1.428 . S
C323 N322 1.351 . S
C323 C324 1.434 . S
C324 C315 1.429 . S
C324 N321 1.350 . S
C324 C323 1.434 . S
C325 C326 1.369 . S
C325 C327 1.419 . S
C325 H329 0.930 . S
C326 C325 1.369 . S
C326 C335 1.429 . S
C327 C325 1.419 . S
C327 C328 1.363 . S
C327 H330 0.929 1_545 S
C328 C327 1.363 . S
C328 C334 1.428 . S
H329 C325 0.930 . S
H330 C327 0.929 1_565 S
S331 N332 1.613 . S
S331 N333 1.610 . S
N332 S331 1.613 . S
N332 C335 1.350 . S
N333 S331 1.610 . S
N333 C334 1.351 . S
C334 C328 1.428 . S
C334 N333 1.351 . S
C334 C335 1.434 . S
C335 C326 1.429 . S
C335 N332 1.350 . S
C335 C334 1.434 . S
C336 C337 1.369 . S
C336 C338 1.419 . S
C336 H340 0.930 . S
C337 C336 1.369 . S
C337 C346 1.429 . S
C338 C336 1.419 . S
C338 C339 1.363 . S
C338 H341 0.929 . S
C339 C338 1.363 . S
C339 C345 1.428 1_545 S
H340 C336 0.930 . S
H341 C338 0.929 . S
S342 N343 1.613 . S
S342 N344 1.610 . S
N343 S342 1.613 . S
N343 C346 1.350 1_565 S
N344 S342 1.610 . S
N344 C345 1.351 . S
C345 C339 1.428 1_565 S
C345 N344 1.351 . S
C345 C346 1.434 1_565 S
C346 C337 1.429 . S
C346 N343 1.350 1_545 S
C346 C345 1.434 1_545 S
C347 C348 1.369 . S
C347 C349 1.419 . S
C347 H351 0.930 . S
C348 C347 1.369 . S
C348 C357 1.429 . S
C349 C347 1.419 . S
C349 C350 1.363 . S
C349 H352 0.929 . S
C350 C349 1.363 . S
C350 C356 1.428 . S
H351 C347 0.930 . S
H352 C349 0.929 . S
S353 N354 1.613 . S
S353 N355 1.610 . S
N354 S353 1.613 . S
N354 C357 1.350 . S
N355 S353 1.610 . S
N355 C356 1.351 . S
C356 C350 1.428 . S
C356 N355 1.351 . S
C356 C357 1.434 . S
C357 C348 1.429 . S
C357 N354 1.350 . S
C357 C356 1.434 . S
C358 C359 1.369 . S
C358 C360 1.419 . S
C358 H362 0.930 . S
C359 C358 1.369 . S
C359 C368 1.429 . S
C360 C358 1.419 . S
C360 C361 1.363 . S
C360 H363 0.929 . S
C361 C360 1.363 . S
C361 C367 1.428 . S
H362 C358 0.930 . S
H363 C360 0.929 . S
S364 N365 1.613 . S
S364 N366 1.610 . S
N365 S364 1.613 . S
N365 C368 1.350 . S
N366 S364 1.610 . S
N366 C367 1.351 . S
C367 C361 1.428 . S
C367 N366 1.351 . S
C367 C368 1.434 . S
C368 C359 1.429 . S
C368 N365 1.350 . S
C368 C367 1.434 . S
C369 C370 1.369 . S
C369 C371 1.419 . S
C369 H373 0.930 . S
C370 C369 1.369 . S
C370 C379 1.429 . S
C371 C369 1.419 . S
C371 C372 1.363 . S
C371 H374 0.929 . S
C372 C371 1.363 . S
C372 C378 1.428 . S
H373 C369 0.930 . S
H374 C371 0.929 . S
S375 N376 1.613 . S
S375 N377 1.610 . S
N376 S375 1.613 . S
N376 C379 1.350 . S
N377 S375 1.610 . S
N377 C378 1.351 . S
C378 C372 1.428 . S
C378 N377 1.351 . S
C378 C379 1.434 . S
C379 C370 1.429 . S
C379 N376 1.350 . S
C379 C378 1.434 . S
C380 C381 1.369 . S
C380 C382 1.419 . S
C380 H384 0.930 . S
C381 C380 1.369 . S
C381 C390 1.429 . S
C382 C380 1.419 . S
C382 C383 1.363 . S
C382 H385 0.929 . S
C383 C382 1.363 . S
C383 C389 1.428 . S
H384 C380 0.930 . S
H385 C382 0.929 . S
S386 N387 1.613 . S
S386 N388 1.610 . S
N387 S386 1.613 . S
N387 C390 1.350 . S
N388 S386 1.610 . S
N388 C389 1.351 . S
C389 C383 1.428 . S
C389 N388 1.351 . S
C389 C390 1.434 . S
C390 C381 1.429 . S
C390 N387 1.350 . S
C390 C389 1.434 . S
C391 C392 1.369 . S
C391 C393 1.419 . S
C391 H395 0.930 . S
C392 C391 1.369 . S
C392 C401 1.429 . S
C393 C391 1.419 . S
C393 C394 1.363 . S
C393 H396 0.929 . S
C394 C393 1.363 . S
C394 C400 1.428 . S
H395 C391 0.930 . S
H396 C393 0.929 . S
S397 N398 1.613 . S
S397 N399 1.610 . S
N398 S397 1.613 . S
N398 C401 1.350 . S
N399 S397 1.610 . S
N399 C400 1.351 . S
C400 C394 1.428 . S
C400 N399 1.351 . S
C400 C401 1.434 . S
C401 C392 1.429 . S
C401 N398 1.350 . S
C401 C400 1.434 . S
C402 C403 1.369 . S
C402 C404 1.419 . S
C402 H406 0.930 1_565 S
C403 C402 1.369 . S
C403 C412 1.429 . S
C404 C402 1.419 . S
C404 C405 1.363 . S
C404 H407 0.929 . S
C405 C404 1.363 . S
C405 C411 1.428 . S
H406 C402 0.930 1_545 S
H407 C404 0.929 . S
S408 N409 1.613 . S
S408 N410 1.610 . S
N409 S408 1.613 . S
N409 C412 1.350 . S
N410 S408 1.610 . S
N410 C411 1.351 . S
C411 C405 1.428 . S
C411 N410 1.351 . S
C411 C412 1.434 . S
C412 C403 1.429 . S
C412 N409 1.350 . S
C412 C411 1.434 . S
C413 C414 1.369 . S
C413 C415 1.419 . S
C413 H417 0.930 1_545 S
C414 C413 1.369 . S
C414 C423 1.429 . S
C415 C413 1.419 . S
C415 C416 1.363 . S
C415 H418 0.929 . S
C416 C415 1.363 . S
C416 C422 1.428 . S
H417 C413 0.930 1_565 S
H418 C415 0.929 . S
S419 N420 1.613 . S
S419 N421 1.610 . S
N420 S419 1.613 . S
N420 C423 1.350 . S
N421 S419 1.610 . S
N421 C422 1.351 . S
C422 C416 1.428 . S
C422 N421 1.351 . S
C422 C423 1.434 . S
C423 C414 1.429 . S
C423 N420 1.350 . S
C423 C422 1.434 . S
C424 C425 1.369 1_556 S
C424 C426 1.419 . S
C424 H428 0.930 . S
C425 C424 1.369 1_554 S
C425 C434 1.429 1_455 S
C426 C424 1.419 . S
C426 C427 1.376 1_455 S
C426 H429 0.929 . S
C427 C426 1.376 1_655 S
C427 C433 1.414 1_556 S
H428 C424 0.930 . S
H429 C426 0.929 . S
S430 N431 1.613 . S
S430 N432 1.610 . S
N431 S430 1.613 . S
N431 C434 1.350 . S
N432 S430 1.610 . S
N432 C433 1.351 . S
C433 C427 1.414 1_554 S
C433 N432 1.351 . S
C433 C434 1.434 . S
C434 C425 1.429 1_655 S
C434 N431 1.350 . S
C434 C433 1.434 . S
C435 C436 1.369 . S
C435 C437 1.419 . S
C435 H439 0.930 . S
C436 C435 1.369 . S
C436 C445 1.429 . S
C437 C435 1.419 . S
C437 C438 1.363 . S
C437 H440 0.929 . S
C438 C437 1.363 . S
C438 C444 1.428 . S
H439 C435 0.930 . S
H440 C437 0.929 . S
S441 N442 1.613 . S
S441 N443 1.610 . S
N442 S441 1.613 . S
N442 C445 1.350 . S
N443 S441 1.610 . S
N443 C444 1.351 . S
C444 C438 1.428 . S
C444 N443 1.351 . S
C444 C445 1.434 . S
C445 C436 1.429 . S
C445 N442 1.350 . S
C445 C444 1.434 . S
C446 C447 1.369 . S
C446 C448 1.419 . S
C446 H450 0.930 . S
C447 C446 1.369 . S
C447 C456 1.429 . S
C448 C446 1.419 . S
C448 C449 1.363 . S
C448 H451 0.929 . S
C449 C448 1.363 . S
C449 C455 1.428 . S
H450 C446 0.930 . S
H451 C448 0.929 . S
S452 N453 1.613 . S
S452 N454 1.610 . S
N453 S452 1.613 . S
N453 C456 1.350 . S
N454 S452 1.610 . S
N454 C455 1.351 . S
C455 C449 1.428 . S
C455 N454 1.351 . S
C455 C456 1.434 . S
C456 C447 1.429 . S
C456 N453 1.350 . S
C456 C455 1.434 . S
C457 C458 1.369 . S
C457 C459 1.419 1_565 S
C457 H461 0.930 . S
C458 C457 1.369 . S
C458 C467 1.428 1_655 S
C459 C457 1.419 1_545 S
C459 C460 1.363 1_655 S
C459 H462 0.929 . S
C460 C459 1.363 1_455 S
C460 C466 1.428 . S
H461 C457 0.930 . S
H462 C459 0.929 . S
S463 N464 1.613 . S
S463 N465 1.610 1_565 S
N464 S463 1.613 . S
N464 C467 1.350 . S
N465 S463 1.610 1_545 S
N465 C466 1.351 . S
C466 C460 1.428 . S
C466 N465 1.351 . S
C466 C467 1.434 1_545 S
C467 C458 1.428 1_455 S
C467 N464 1.350 . S
C467 C466 1.434 1_565 S
C468 C469 1.369 . S
C468 C470 1.419 . S
C468 H472 0.930 . S
C469 C468 1.369 . S
C469 C478 1.429 . S
C470 C468 1.419 . S
C470 C471 1.363 . S
C470 H473 0.929 . S
C471 C470 1.363 . S
C471 C477 1.428 . S
H472 C468 0.930 . S
H473 C470 0.929 . S
S474 N475 1.613 . S
S474 N476 1.610 . S
N475 S474 1.613 . S
N475 C478 1.350 . S
N476 S474 1.610 . S
N476 C477 1.351 . S
C477 C471 1.428 . S
C477 N476 1.351 . S
C477 C478 1.434 . S
C478 C469 1.429 . S
C478 N475 1.350 . S
C478 C477 1.434 . S
C479 C480 1.369 . S
C479 C481 1.419 . S
C479 H483 0.930 . S
C480 C479 1.369 . S
C480 C489 1.429 . S
C481 C479 1.419 . S
C481 C482 1.363 . S
C481 H484 0.929 . S
C482 C481 1.363 . S
C482 C488 1.428 . S
H483 C479 0.930 . S
H484 C481 0.929 . S
S485 N486 1.613 . S
S485 N487 1.610 . S
N486 S485 1.613 . S
N486 C489 1.350 . S
N487 S485 1.610 . S
N487 C488 1.351 . S
C488 C482 1.428 . S
C488 N487 1.351 . S
C488 C489 1.434 . S
C489 C480 1.429 . S
C489 N486 1.350 . S
C489 C488 1.434 . S
C490 C491 1.369 . S
C490 C492 1.419 . S
C490 H494 0.930 . S
C491 C490 1.369 . S
C491 C500 1.429 . S
C492 C490 1.419 . S
C492 C493 1.363 . S
C492 H495 0.929 . S
C493 C492 1.363 . S
C493 C499 1.428 . S
H494 C490 0.930 . S
H495 C492 0.929 . S
S496 N497 1.613 . S
S496 N498 1.610 . S
N497 S496 1.613 . S
N497 C500 1.350 . S
N498 S496 1.610 . S
N498 C499 1.351 . S
C499 C493 1.428 . S
C499 N498 1.351 . S
C499 C500 1.434 . S
C500 C491 1.429 . S
C500 N497 1.350 . S
C500 C499 1.434 . S
C501 C502 1.387 . S
C501 C503 1.419 1_565 S
C501 H505 0.930 . S
C502 C501 1.387 . S
C502 C511 1.411 1_556 S
C503 C501 1.419 1_545 S
C503 C504 1.363 1_556 S
C503 H506 0.929 . S
C504 C503 1.363 1_554 S
C504 C510 1.428 . S
H505 C501 0.930 . S
H506 C503 0.929 . S
S507 N508 1.613 1_545 S
S507 N509 1.610 . S
N508 S507 1.613 1_565 S
N508 C511 1.350 . S
N509 S507 1.610 . S
N509 C510 1.351 . S
C510 C504 1.428 . S
C510 N509 1.351 . S
C510 C511 1.434 1_545 S
C511 C502 1.411 1_554 S
C511 N508 1.350 . S
C511 C510 1.434 1_565 S
C512 C513 1.369 . S
C512 C514 1.419 . S
C512 H516 0.930 . S
C513 C512 1.369 . S
C513 C522 1.429 1_556 S
C514 C512 1.419 . S
C514 C515 1.363 1_556 S
C514 H517 0.929 . S
C515 C514 1.363 1_554 S
C515 C521 1.428 . S
H516 C512 0.930 . S
H517 C514 0.929 . S
S518 N519 1.613 . S
S518 N520 1.610 . S
N519 S518 1.613 . S
N519 C522 1.350 . S
N520 S518 1.610 . S
N520 C521 1.351 . S
C521 C515 1.428 . S
C521 N520 1.351 . S
C521 C522 1.434 . S
C522 C513 1.429 1_554 S
C522 N519 1.350 . S
C522 C521 1.434 . S
C523 C524 1.369 . S
C523 C525 1.419 . S
C523 H527 0.930 . S
C524 C523 1.369 . S
C524 C533 1.429 1_556 S
C525 C523 1.419 . S
C525 C526 1.363 1_556 S
C525 H528 0.929 . S
C526 C525 1.363 1_554 S
C526 C532 1.428 . S
H527 C523 0.930 . S
H528 C525 0.929 . S
S529 N530 1.613 . S
S529 N531 1.610 . S
N530 S529 1.613 . S
N530 C533 1.350 . S
N531 S529 1.610 . S
N531 C532 1.351 . S
C532 C526 1.428 . S
C532 N531 1.351 . S
C532 C533 1.434 . S
C533 C524 1.429 1_554 S
C533 N530 1.350 . S
C533 C532 1.434 . S
C534 C535 1.369 . S
C534 C536 1.419 1_455 S
C534 H538 0.930 . S
C535 C534 1.369 . S
C535 C544 1.429 . S
C536 C534 1.419 1_655 S
C536 C537 1.363 . S
C536 H539 0.929 . S
C537 C536 1.363 . S
C537 C543 1.440 . S
H538 C534 0.930 . S
H539 C536 0.929 . S
S540 N541 1.613 . S
S540 N542 1.610 1_455 S
N541 S540 1.613 . S
N541 C544 1.350 . S
N542 S540 1.610 1_655 S
N542 C543 1.352 . S
C543 C537 1.440 . S
C543 N542 1.352 . S
C543 C544 1.420 1_655 S
C544 C535 1.429 . S
C544 N541 1.350 . S
C544 C543 1.420 1_455 S
C545 C546 1.369 . S
C545 C547 1.419 . S
C545 H549 0.930 . S
C546 C545 1.369 . S
C546 C555 1.429 . S
C547 C545 1.419 . S
C547 C548 1.363 . S
C547 H550 0.929 . S
C548 C547 1.363 . S
C548 C554 1.428 . S
H549 C545 0.930 . S
H550 C547 0.929 . S
S551 N552 1.613 1_545 S
S551 N553 1.610 1_545 S
N552 S551 1.613 1_565 S
N552 C555 1.350 . S
N553 S551 1.610 1_565 S
N553 C554 1.351 . S
C554 C548 1.428 . S
C554 N553 1.351 . S
C554 C555 1.434 . S
C555 C546 1.429 . S
C555 N552 1.350 . S
C555 C554 1.434 . S
C556 C557 1.369 . S
C556 C558 1.419 . S
C556 H560 0.930 . S
C557 C556 1.369 . S
C557 C566 1.429 . S
C558 C556 1.419 . S
C558 C559 1.363 . S
C558 H561 0.929 . S
C559 C558 1.363 . S
C559 C565 1.428 . S
H560 C556 0.930 . S
H561 C558 0.929 . S
S562 N563 1.613 . S
S562 N564 1.610 . S
N563 S562 1.613 . S
N563 C566 1.350 . S
N564 S562 1.610 . S
N564 C565 1.351 . S
C565 C559 1.428 . S
C565 N564 1.351 . S
C565 C566 1.434 . S
C566 C557 1.429 . S
C566 N563 1.350 . S
C566 C565 1.434 . S
C567 C568 1.369 1_565 S
C567 C569 1.419 1_655 S
C567 H571 0.930 . S
C568 C567 1.369 1_545 S
C568 C577 1.429 . S
C569 C567 1.419 1_455 S
C569 C570 1.363 . S
C569 H572 0.929 . S
C570 C569 1.363 . S
C570 C576 1.428 1_565 S
H571 C567 0.930 . S
H572 C569 0.929 . S
S573 N574 1.613 1_455 S
S573 N575 1.610 . S
N574 S573 1.613 1_655 S
N574 C577 1.350 . S
N575 S573 1.610 . S
N575 C576 1.351 . S
C576 C570 1.428 1_545 S
C576 N575 1.351 . S
C576 C577 1.434 1_455 S
C577 C568 1.429 . S
C577 N574 1.350 . S
C577 C576 1.434 1_655 S
C578 C579 1.369 . S
C578 C580 1.419 . S
C578 H582 0.930 . S
C579 C578 1.369 . S
C579 C588 1.429 . S
C580 C578 1.419 . S
C580 C581 1.363 . S
C580 H583 0.929 . S
C581 C580 1.363 . S
C581 C587 1.428 . S
H582 C578 0.930 . S
H583 C580 0.929 . S
S584 N585 1.613 . S
S584 N586 1.610 . S
N585 S584 1.613 . S
N585 C588 1.350 . S
N586 S584 1.610 . S
N586 C587 1.351 . S
C587 C581 1.428 . S
C587 N586 1.351 . S
C587 C588 1.434 . S
C588 C579 1.429 . S
C588 N585 1.350 . S
C588 C587 1.434 . S
C589 C590 1.369 1_545 S
C589 C591 1.419 . S
C589 H593 0.930 . S
C590 C589 1.369 1_565 S
C590 C599 1.429 . S
C591 C589 1.419 . S
C591 C592 1.363 . S
C591 H594 0.929 . S
C592 C591 1.363 . S
C592 C598 1.428 1_545 S
H593 C589 0.930 . S
H594 C591 0.929 . S
S595 N596 1.613 . S
S595 N597 1.610 . S
N596 S595 1.613 . S
N596 C599 1.350 . S
N597 S595 1.610 . S
N597 C598 1.351 . S
C598 C592 1.428 1_565 S
C598 N597 1.351 . S
C598 C599 1.434 . S
C599 C590 1.429 . S
C599 N596 1.350 . S
C599 C598 1.434 . S
C249 C0 1.578 1_545 S
C251 C49 1.619 . S
C260 C18 1.793 1_565 S
C262 C62 1.787 . S
C271 C104 1.615 . S
C273 C55 1.581 . S
C282 C73 1.793 . S
C284 C117 1.787 . S
C293 C93 1.589 . S
C295 C142 1.617 . S
C304 C155 1.788 . S
C306 C111 1.794 . S
C315 C148 1.588 . S
C317 C11 1.619 . S
C326 C166 1.798 . S
C328 C24 1.788 . S
C337 C173 1.614 . S
C339 C186 1.586 1_545 S
C348 C204 1.798 1_565 S
C350 C124 1.790 . S
C359 C228 1.622 . S
C361 C179 1.586 . S
C370 C241 1.791 . S
C372 C135 1.796 . S
C381 C217 1.576 . S
C383 C80 1.621 . S
C392 C31 1.791 . S
C394 C235 1.796 . S
C403 C197 1.620 . S
C405 C86 1.586 . S
C414 C210 1.786 . S
C416 C42 1.796 . S
C425 C10 0.959 . S
C427 C2 0.946 1_556 S
C436 C41 0.955 . S
C438 C33 0.955 . S
C447 C72 0.958 . S
C449 C64 0.953 . S
C458 C95 0.953 . S
C460 C103 0.957 . S
C469 C134 0.959 . S
C471 C126 0.952 . S
C480 C165 0.959 . S
C482 C157 0.952 . S
C491 C196 0.956 . S
C493 C188 0.955 . S
C502 C219 0.941 1_556 S
C504 C227 0.958 . S
C513 C244 1.466 . S
C515 C1 1.463 . S
C524 C27 1.465 . S
C526 C218 1.463 . S
C535 C58 1.465 . S
C537 C63 1.463 . S
C546 C213 1.461 . S
C548 C94 1.466 . S
C557 C120 1.467 . S
C559 C187 1.461 . S
C568 C156 1.461 . S
C570 C151 1.466 . S
C579 C182 1.466 . S
C581 C125 1.462 . S
C590 C89 1.465 . S
C592 C32 1.463 . S
