# Generated by pormake.
# Topology uod, (4)-cn, num edge types: 1
# Building blocks:
#     Node 0, Type 0, BuildingBlock: CEKHIL_clean_sbu_0, # of connection points: 4
#     Node 1, Type 0, BuildingBlock: CEKHIL_clean_sbu_0, # of connection points: 4
#     Node 2, Type 0, BuildingBlock: CEKHIL_clean_sbu_0, # of connection points: 4
#     Node 3, Type 0, BuildingBlock: CEKHIL_clean_sbu_0, # of connection points: 4
#     Node 4, Type 0, BuildingBlock: CEKHIL_clean_sbu_0, # of connection points: 4
#     Node 5, Type 0, BuildingBlock: CEKHIL_clean_sbu_0, # of connection points: 4
#     Node 6, Type 0, BuildingBlock: CEKHIL_clean_sbu_0, # of connection points: 4
#     Node 7, Type 0, BuildingBlock: CEKHIL_clean_sbu_0, # of connection points: 4
#     Node 8, Type 0, BuildingBlock: CEKHIL_clean_sbu_0, # of connection points: 4
#     Node 9, Type 0, BuildingBlock: CEKHIL_clean_sbu_0, # of connection points: 4
#     Node 10, Type 0, BuildingBlock: CEKHIL_clean_sbu_0, # of connection points: 4
#     Node 11, Type 0, BuildingBlock: CEKHIL_clean_sbu_0, # of connection points: 4
#     Node 12, Type 0, BuildingBlock: CEKHIL_clean_sbu_0, # of connection points: 4
#     Node 13, Type 0, BuildingBlock: CEKHIL_clean_sbu_0, # of connection points: 4
#     Node 14, Type 0, BuildingBlock: CEKHIL_clean_sbu_0, # of connection points: 4
#     Node 15, Type 0, BuildingBlock: CEKHIL_clean_sbu_0, # of connection points: 4
#     Node 16, Type 0, BuildingBlock: CEKHIL_clean_sbu_0, # of connection points: 4
#     Node 17, Type 0, BuildingBlock: CEKHIL_clean_sbu_0, # of connection points: 4
#     Node 18, Type 0, BuildingBlock: CEKHIL_clean_sbu_0, # of connection points: 4
#     Node 19, Type 0, BuildingBlock: CEKHIL_clean_sbu_0, # of connection points: 4
#     Node 20, Type 0, BuildingBlock: CEKHIL_clean_sbu_0, # of connection points: 4
#     Node 21, Type 0, BuildingBlock: CEKHIL_clean_sbu_0, # of connection points: 4
#     Node 22, Type 0, BuildingBlock: CEKHIL_clean_sbu_0, # of connection points: 4
#     Node 23, Type 0, BuildingBlock: CEKHIL_clean_sbu_0, # of connection points: 4
#     Node 24, Type 0, BuildingBlock: CEKHIL_clean_sbu_0, # of connection points: 4
#     Node 25, Type 0, BuildingBlock: CEKHIL_clean_sbu_0, # of connection points: 4
#     Node 26, Type 0, BuildingBlock: CEKHIL_clean_sbu_0, # of connection points: 4
#     Node 27, Type 0, BuildingBlock: CEKHIL_clean_sbu_0, # of connection points: 4
#     Node 28, Type 0, BuildingBlock: CEKHIL_clean_sbu_0, # of connection points: 4
#     Node 29, Type 0, BuildingBlock: CEKHIL_clean_sbu_0, # of connection points: 4
#     Node 30, Type 0, BuildingBlock: CEKHIL_clean_sbu_0, # of connection points: 4
#     Node 31, Type 0, BuildingBlock: CEKHIL_clean_sbu_0, # of connection points: 4
#     Edge 32, Type (0, 0), None
#     Edge 33, Type (0, 0), None
#     Edge 34, Type (0, 0), None
#     Edge 35, Type (0, 0), None
#     Edge 36, Type (0, 0), None
#     Edge 37, Type (0, 0), None
#     Edge 38, Type (0, 0), None
#     Edge 39, Type (0, 0), None
#     Edge 40, Type (0, 0), None
#     Edge 41, Type (0, 0), None
#     Edge 42, Type (0, 0), None
#     Edge 43, Type (0, 0), None
#     Edge 44, Type (0, 0), None
#     Edge 45, Type (0, 0), None
#     Edge 46, Type (0, 0), None
#     Edge 47, Type (0, 0), None
#     Edge 48, Type (0, 0), None
#     Edge 49, Type (0, 0), None
#     Edge 50, Type (0, 0), None
#     Edge 51, Type (0, 0), None
#     Edge 52, Type (0, 0), None
#     Edge 53, Type (0, 0), None
#     Edge 54, Type (0, 0), None
#     Edge 55, Type (0, 0), None
#     Edge 56, Type (0, 0), None
#     Edge 57, Type (0, 0), None
#     Edge 58, Type (0, 0), None
#     Edge 59, Type (0, 0), None
#     Edge 60, Type (0, 0), None
#     Edge 61, Type (0, 0), None
#     Edge 62, Type (0, 0), None
#     Edge 63, Type (0, 0), None
#     Edge 64, Type (0, 0), None
#     Edge 65, Type (0, 0), None
#     Edge 66, Type (0, 0), None
#     Edge 67, Type (0, 0), None
#     Edge 68, Type (0, 0), None
#     Edge 69, Type (0, 0), None
#     Edge 70, Type (0, 0), None
#     Edge 71, Type (0, 0), None
#     Edge 72, Type (0, 0), None
#     Edge 73, Type (0, 0), None
#     Edge 74, Type (0, 0), None
#     Edge 75, Type (0, 0), None
#     Edge 76, Type (0, 0), None
#     Edge 77, Type (0, 0), None
#     Edge 78, Type (0, 0), None
#     Edge 79, Type (0, 0), None
#     Edge 80, Type (0, 0), None
#     Edge 81, Type (0, 0), None
#     Edge 82, Type (0, 0), None
#     Edge 83, Type (0, 0), None
#     Edge 84, Type (0, 0), None
#     Edge 85, Type (0, 0), None
#     Edge 86, Type (0, 0), None
#     Edge 87, Type (0, 0), None
#     Edge 88, Type (0, 0), None
#     Edge 89, Type (0, 0), None
#     Edge 90, Type (0, 0), None
#     Edge 91, Type (0, 0), None
#     Edge 92, Type (0, 0), None
#     Edge 93, Type (0, 0), None
#     Edge 94, Type (0, 0), None
#     Edge 95, Type (0, 0), None
# Relax obj value: 0.152
# Max RMSD: 0.156
# Mean RMSD: 0.156
data_MOF--net-uod--node1-CEKHIL_clean_sbu_0--edge1-none
_symmetry_space_group_name_H-M    P1
_symmetry_Int_Tables_number       1
_symmetry_cell_setting            triclinic
loop_
_symmetry_equiv_pos_as_xyz
'x, y, z'
_cell_length_a     40.51125
_cell_length_b     11.431055
_cell_length_c     27.470284
_cell_angle_alpha  89.999999
_cell_angle_beta   89.999216
_cell_angle_gamma 90.035307
loop_
_atom_site_label
_atom_site_type_symbol
_atom_site_fract_x
_atom_site_fract_y
_atom_site_fract_z
_atom_type_partial_charge
Co0 Co 0.06776 0.34544 0.07501 0.0
O1 O 1.02407 0.40453 0.05565 0.0
O2 O 0.06773 0.4143 0.00885 0.0
C3 C 0.053 0.17584 0.11307 0.0
O4 O 0.11703 0.30234 0.08979 0.0
Co5 Co 0.07741 0.34545 0.18798 0.0
O6 O 0.12366 0.30136 0.17214 0.0
C7 C 0.06851 0.55839 0.1301 0.0
C8 C 0.03741 0.44891 0.01706 0.0
C9 C 0.13528 0.2925 0.12911 0.0
O10 O 0.07914 0.50225 0.0943 0.0
O11 O 0.06351 0.51157 0.17188 0.0
O12 O 0.05575 0.1789 0.06583 0.0
O13 O 0.05406 0.27699 0.13353 0.0
Co14 Co 0.23965 0.89572 0.07501 0.0
O15 O 0.28334 0.83663 0.05565 0.0
O16 O 0.23968 0.82686 0.00885 0.0
C17 C 0.25441 0.06532 0.11307 0.0
O18 O 0.19038 0.93883 0.08979 0.0
Co19 Co 0.23 0.89571 0.18799 0.0
O20 O 0.18375 0.9398 0.17214 0.0
C21 C 0.2389 0.68277 0.1301 0.0
C22 C 0.27 0.79225 0.01706 0.0
C23 C 0.17213 0.94866 0.12911 0.0
O24 O 0.22827 0.73891 0.09431 0.0
O25 O 0.2439 0.7296 0.17188 0.0
O26 O 0.25166 0.06226 0.06583 0.0
O27 O 0.25335 0.96417 0.13353 0.0
Co28 Co 0.06777 0.89574 0.17933 0.0
O29 O 1.02407 0.83657 0.19871 0.0
O30 O 0.06774 0.82693 0.24549 0.0
C31 C 0.05304 0.06528 0.14126 0.0
O32 O 0.11705 0.93892 0.16453 0.0
Co33 Co 0.07742 0.8957 0.06635 0.0
O34 O 0.12368 0.93977 0.08218 0.0
C35 C 0.0685 0.68275 0.12426 0.0
C36 C 0.03742 0.79224 0.23729 0.0
C37 C 0.1353 0.94871 0.12521 0.0
O38 O 0.07912 0.73894 0.16005 0.0
O39 O 0.06351 0.72952 0.08246 0.0
O40 O 0.05579 0.06225 0.1885 0.0
O41 O 0.05407 0.96412 0.1208 0.0
Co42 Co 0.23964 0.34542 0.17933 0.0
O43 O 0.28333 0.40459 0.19871 0.0
O44 O 0.23966 0.41423 0.24549 0.0
C45 C 0.25437 0.17588 0.14126 0.0
O46 O 0.19036 0.30225 0.16453 0.0
Co47 Co 0.22999 0.34547 0.06635 0.0
O48 O 0.18373 0.3014 0.08218 0.0
C49 C 0.23891 0.55841 0.12426 0.0
C50 C 0.26999 0.44892 0.23729 0.0
C51 C 0.17211 0.29245 0.12521 0.0
O52 O 0.22829 0.50222 0.16005 0.0
O53 O 0.2439 0.51165 0.08246 0.0
O54 O 0.25162 0.17891 0.1885 0.0
O55 O 0.25334 0.27704 0.1208 0.0
Co56 Co 0.98965 0.6457 0.92934 0.0
O57 O 0.03333 0.58659 0.94871 0.0
O58 O 0.98967 0.57683 0.9955 0.0
C59 C 1.0044 0.8153 0.89129 0.0
O60 O 0.94038 0.68882 0.91457 0.0
Co61 Co 0.97999 0.6457 0.81637 0.0
O62 O 0.93375 0.68979 0.83222 0.0
C63 C 0.98889 0.43276 0.87426 0.0
C64 C 1.01999 0.54219 0.98729 0.0
C65 C 0.92213 0.69865 0.87524 0.0
O66 O 0.97826 0.4889 0.91005 0.0
O67 O 0.99391 0.47959 0.83248 0.0
O68 O 1.00166 0.81224 0.93853 0.0
O69 O 1.00335 0.71415 0.87083 0.0
Co70 Co 0.81776 0.09545 0.92935 0.0
O71 O 0.77408 0.15455 0.94871 0.0
O72 O 0.81774 0.16431 0.99551 0.0
C73 C 0.80301 0.92585 0.89129 0.0
O74 O 0.86703 0.05233 0.91457 0.0
Co75 Co 0.82742 0.09545 0.81637 0.0
O76 O 0.87366 0.05136 0.83222 0.0
C77 C 0.81852 0.30839 0.87426 0.0
C78 C 0.78742 0.19893 0.9873 0.0
C79 C 0.88528 0.0425 0.87525 0.0
O80 O 0.82915 0.25225 0.91005 0.0
O81 O 0.81351 0.26156 0.83248 0.0
O82 O 0.80575 0.92891 0.93853 0.0
O83 O 0.80406 0.027 0.87083 0.0
Co84 Co 0.98964 0.0954 0.82503 0.0
O85 O 0.03334 0.15456 0.80565 0.0
O86 O 0.98967 0.16421 0.75887 0.0
C87 C 1.00438 0.92586 0.8631 0.0
O88 O 0.94037 0.05224 0.83983 0.0
Co89 Co 0.98 0.09546 0.93801 0.0
O90 O 0.93374 0.05139 0.92218 0.0
C91 C 0.98892 0.3084 0.8801 0.0
C92 C 1.01999 0.19889 0.76706 0.0
C93 C 0.92212 0.04244 0.87915 0.0
O94 O 0.97829 0.2522 0.84431 0.0
O95 O 0.9939 0.26164 0.9219 0.0
O96 O 1.00162 0.92889 0.81586 0.0
O97 O 1.00335 0.02702 0.88356 0.0
Co98 Co 0.81777 0.64575 0.82503 0.0
O99 O 0.77407 0.58659 0.80565 0.0
O100 O 0.81774 0.57694 0.75887 0.0
C101 C 0.80304 0.81529 0.8631 0.0
O102 O 0.86704 0.68891 0.83983 0.0
Co103 Co 0.82741 0.6457 0.93801 0.0
O104 O 0.87368 0.68977 0.92218 0.0
C105 C 0.8185 0.43275 0.8801 0.0
C106 C 0.78742 0.54226 0.76706 0.0
C107 C 0.88529 0.69871 0.87915 0.0
O108 O 0.82912 0.48895 0.84431 0.0
O109 O 0.81352 0.47951 0.9219 0.0
O110 O 0.80579 0.81226 0.81586 0.0
O111 O 0.80407 0.71413 0.88356 0.0
Co112 Co 0.06776 0.84544 0.57501 0.0
O113 O 1.02407 0.90453 0.55565 0.0
O114 O 0.06773 0.9143 0.50885 0.0
C115 C 0.053 0.67585 0.61307 0.0
O116 O 0.11703 0.80234 0.58979 0.0
Co117 Co 0.07741 0.84546 0.68798 0.0
O118 O 0.12366 0.80137 0.67214 0.0
C119 C 0.06851 0.0584 0.6301 0.0
C120 C 0.03741 0.94891 0.51706 0.0
C121 C 0.13528 0.79251 0.62911 0.0
O122 O 0.07914 0.00226 0.5943 0.0
O123 O 0.06351 0.01158 0.67188 0.0
O124 O 0.05575 0.6789 0.56583 0.0
O125 O 0.05405 0.777 0.63353 0.0
Co126 Co 0.23965 0.39573 0.57501 0.0
O127 O 0.28334 0.33664 0.55564 0.0
O128 O 0.23968 0.32687 0.50885 0.0
C129 C 0.25441 0.56533 0.61307 0.0
O130 O 0.19038 0.43883 0.58979 0.0
Co131 Co 0.23 0.39572 0.68798 0.0
O132 O 0.18375 0.43982 0.67214 0.0
C133 C 0.23889 0.18278 0.6301 0.0
C134 C 0.27 0.29225 0.51706 0.0
C135 C 0.17213 0.44867 0.62911 0.0
O136 O 0.22827 0.23892 0.5943 0.0
O137 O 0.2439 0.2296 0.67188 0.0
O138 O 0.25166 0.56227 0.56583 0.0
O139 O 0.25335 0.46418 0.63353 0.0
Co140 Co 0.06777 0.39574 0.67932 0.0
O141 O 1.02408 0.33656 0.6987 0.0
O142 O 0.06775 0.32692 0.74549 0.0
C143 C 0.05304 0.56528 0.64126 0.0
O144 O 0.11705 0.43893 0.66453 0.0
Co145 Co 0.07742 0.3957 0.56635 0.0
O146 O 0.12368 0.43977 0.58218 0.0
C147 C 0.0685 0.18276 0.62426 0.0
C148 C 0.03743 0.29221 0.73728 0.0
C149 C 0.1353 0.44872 0.62521 0.0
O150 O 0.07913 0.23895 0.66004 0.0
O151 O 0.06351 0.22953 0.58246 0.0
O152 O 0.05579 0.56225 0.6885 0.0
O153 O 0.05407 0.46413 0.6208 0.0
Co154 Co 0.23964 0.84543 0.67933 0.0
O155 O 0.28333 0.90459 0.69871 0.0
O156 O 0.23966 0.91424 0.74549 0.0
C157 C 0.25437 0.67589 0.64126 0.0
O158 O 0.19036 0.80225 0.66453 0.0
Co159 Co 0.22999 0.84547 0.56635 0.0
O160 O 0.18373 0.80141 0.58218 0.0
C161 C 0.23891 0.05842 0.62426 0.0
C162 C 0.26999 0.94892 0.73729 0.0
C163 C 0.17211 0.79246 0.62521 0.0
O164 O 0.22829 0.00223 0.66005 0.0
O165 O 0.24389 0.01165 0.58246 0.0
O166 O 0.25162 0.67892 0.6885 0.0
O167 O 0.25334 0.77704 0.6208 0.0
Co168 Co 0.98964 0.14571 0.42935 0.0
O169 O 0.03333 0.0866 0.44871 0.0
O170 O 0.98967 0.07683 0.49551 0.0
C171 C 1.0044 0.3153 0.39129 0.0
O172 O 0.94038 0.18883 0.41457 0.0
Co173 Co 0.97999 0.1457 0.31637 0.0
O174 O 0.93375 0.18979 0.33222 0.0
C175 C 0.98889 0.93276 0.37426 0.0
C176 C 1.01998 0.04219 0.48729 0.0
C177 C 0.92213 0.19865 0.37524 0.0
O178 O 0.97826 0.9889 0.41005 0.0
O179 O 0.9939 0.97959 0.33248 0.0
O180 O 1.00166 0.31224 0.43853 0.0
O181 O 1.00335 0.21416 0.37083 0.0
Co182 Co 0.81776 0.59545 0.42935 0.0
O183 O 0.77407 0.65455 0.44871 0.0
O184 O 0.81773 0.66432 0.49551 0.0
C185 C 0.803 0.42585 0.39129 0.0
O186 O 0.86703 0.55233 0.41457 0.0
Co187 Co 0.82742 0.59545 0.31637 0.0
O188 O 0.87366 0.55136 0.33222 0.0
C189 C 0.81852 0.80839 0.37426 0.0
C190 C 0.78742 0.69893 0.4873 0.0
C191 C 0.88528 0.5425 0.37525 0.0
O192 O 0.82915 0.75225 0.41005 0.0
O193 O 0.81351 0.76157 0.33248 0.0
O194 O 0.80575 0.42891 0.43853 0.0
O195 O 0.80406 0.527 0.37083 0.0
Co196 Co 0.98964 0.59541 0.32503 0.0
O197 O 0.03334 0.65458 0.30565 0.0
O198 O 0.98967 0.66423 0.25887 0.0
C199 C 1.00437 0.42587 0.3631 0.0
O200 O 0.94036 0.55223 0.33983 0.0
Co201 Co 0.98 0.59546 0.43801 0.0
O202 O 0.93373 0.55139 0.42218 0.0
C203 C 0.98891 0.8084 0.3801 0.0
C204 C 1.01999 0.69893 0.26708 0.0
C205 C 0.92211 0.54244 0.37915 0.0
O206 O 0.97829 0.75221 0.34431 0.0
O207 O 0.9939 0.76164 0.4219 0.0
O208 O 1.00162 0.4289 0.31586 0.0
O209 O 1.00334 0.52702 0.38356 0.0
Co210 Co 0.81777 0.14575 0.32503 0.0
O211 O 0.77407 0.08659 0.30565 0.0
O212 O 0.81774 0.07694 0.25887 0.0
C213 C 0.80303 0.31529 0.3631 0.0
O214 O 0.86704 0.18892 0.33983 0.0
Co215 Co 0.82741 0.1457 0.43801 0.0
O216 O 0.87367 0.18977 0.42218 0.0
C217 C 0.81849 0.93276 0.3801 0.0
C218 C 0.78742 0.04226 0.26706 0.0
C219 C 0.88529 0.19871 0.37915 0.0
O220 O 0.82911 0.98895 0.34431 0.0
O221 O 0.81351 0.97952 0.4219 0.0
O222 O 0.80579 0.31226 0.31586 0.0
O223 O 0.80406 0.21414 0.38356 0.0
Co224 Co 0.56776 0.34544 0.57501 0.0
O225 O 0.52407 0.40453 0.55565 0.0
O226 O 0.56773 0.4143 0.50885 0.0
C227 C 0.553 0.17585 0.61307 0.0
O228 O 0.61703 0.30234 0.58979 0.0
Co229 Co 0.57741 0.34545 0.68798 0.0
O230 O 0.62366 0.30136 0.67214 0.0
C231 C 0.56851 0.55839 0.6301 0.0
C232 C 0.53741 0.44891 0.51706 0.0
C233 C 0.63528 0.29251 0.62911 0.0
O234 O 0.57914 0.50225 0.5943 0.0
O235 O 0.56351 0.51157 0.67188 0.0
O236 O 0.55575 0.1789 0.56583 0.0
O237 O 0.55405 0.277 0.63353 0.0
Co238 Co 0.73965 0.89572 0.57501 0.0
O239 O 0.78334 0.83662 0.55565 0.0
O240 O 0.73968 0.82685 0.50885 0.0
C241 C 0.7544 0.06532 0.61307 0.0
O242 O 0.69038 0.93884 0.58979 0.0
Co243 Co 0.72999 0.89572 0.68799 0.0
O244 O 0.68375 0.9398 0.67214 0.0
C245 C 0.73889 0.68278 0.6301 0.0
C246 C 0.76999 0.79222 0.51707 0.0
C247 C 0.67213 0.94867 0.62911 0.0
O248 O 0.72826 0.73892 0.59431 0.0
O249 O 0.7439 0.7296 0.67188 0.0
O250 O 0.75166 0.06226 0.56583 0.0
O251 O 0.75335 0.96418 0.63353 0.0
Co252 Co 0.56777 0.89575 0.67933 0.0
O253 O 0.52407 0.83657 0.69871 0.0
O254 O 0.56774 0.82693 0.74549 0.0
C255 C 0.55303 0.06528 0.64126 0.0
O256 O 0.61705 0.93892 0.66453 0.0
Co257 Co 0.57741 0.8957 0.56635 0.0
O258 O 0.62368 0.93978 0.58218 0.0
C259 C 0.5685 0.68276 0.62426 0.0
C260 C 0.53742 0.79225 0.73729 0.0
C261 C 0.6353 0.94872 0.62521 0.0
O262 O 0.57912 0.73895 0.66005 0.0
O263 O 0.56351 0.72952 0.58246 0.0
O264 O 0.55579 0.06225 0.6885 0.0
O265 O 0.55407 0.96413 0.6208 0.0
Co266 Co 0.73964 0.34543 0.67932 0.0
O267 O 0.78333 0.4046 0.6987 0.0
O268 O 0.73966 0.41425 0.74549 0.0
C269 C 0.75437 0.17589 0.64126 0.0
O270 O 0.69036 0.30225 0.66453 0.0
Co271 Co 0.72999 0.34548 0.56635 0.0
O272 O 0.68373 0.30141 0.58218 0.0
C273 C 0.73891 0.55841 0.62426 0.0
C274 C 0.76998 0.44895 0.73728 0.0
C275 C 0.67211 0.29246 0.62521 0.0
O276 O 0.72828 0.50222 0.66005 0.0
O277 O 0.7439 0.51165 0.58246 0.0
O278 O 0.75162 0.17892 0.6885 0.0
O279 O 0.75334 0.27704 0.6208 0.0
Co280 Co 0.48964 0.64571 0.42935 0.0
O281 O 0.53333 0.5866 0.44871 0.0
O282 O 0.48967 0.57683 0.49551 0.0
C283 C 0.5044 0.8153 0.39129 0.0
O284 O 0.44038 0.68883 0.41457 0.0
Co285 Co 0.47999 0.64571 0.31637 0.0
O286 O 0.43375 0.6898 0.33222 0.0
C287 C 0.48889 0.43277 0.37426 0.0
C288 C 0.51998 0.54219 0.48729 0.0
C289 C 0.42213 0.69866 0.37525 0.0
O290 O 0.47825 0.48891 0.41005 0.0
O291 O 0.4939 0.47959 0.33248 0.0
O292 O 0.50166 0.81224 0.43853 0.0
O293 O 0.50335 0.71416 0.37083 0.0
Co294 Co 0.31776 0.09545 0.42934 0.0
O295 O 0.27407 0.15457 0.44871 0.0
O296 O 0.31773 0.16433 0.4955 0.0
C297 C 0.303 0.92586 0.39129 0.0
O298 O 0.36703 0.05233 0.41457 0.0
Co299 Co 0.32742 0.09546 0.31637 0.0
O300 O 0.37366 0.05137 0.33222 0.0
C301 C 0.31851 0.30839 0.37426 0.0
C302 C 0.28742 0.19897 0.48729 0.0
C303 C 0.38528 0.0425 0.37524 0.0
O304 O 0.32915 0.25225 0.41005 0.0
O305 O 0.3135 0.26157 0.33248 0.0
O306 O 0.30575 0.92892 0.43853 0.0
O307 O 0.30406 0.027 0.37083 0.0
Co308 Co 0.48964 0.09541 0.32503 0.0
O309 O 0.53334 0.15456 0.30565 0.0
O310 O 0.48967 0.16421 0.25886 0.0
C311 C 0.50437 0.92587 0.3631 0.0
O312 O 0.44037 0.05224 0.33983 0.0
Co313 Co 0.48 0.09546 0.43801 0.0
O314 O 0.43373 0.05139 0.42218 0.0
C315 C 0.48891 0.3084 0.3801 0.0
C316 C 0.51999 0.19889 0.26706 0.0
C317 C 0.42211 0.04244 0.37915 0.0
O318 O 0.47829 0.25221 0.3443 0.0
O319 O 0.49389 0.26164 0.4219 0.0
O320 O 0.50162 0.92889 0.31586 0.0
O321 O 0.50334 0.02702 0.38356 0.0
Co322 Co 0.31777 0.64575 0.32503 0.0
O323 O 0.27407 0.58658 0.30565 0.0
O324 O 0.31774 0.57693 0.25887 0.0
C325 C 0.30303 0.81529 0.3631 0.0
O326 O 0.36704 0.68892 0.33983 0.0
Co327 Co 0.32741 0.6457 0.43801 0.0
O328 O 0.37367 0.68977 0.42218 0.0
C329 C 0.31849 0.43276 0.3801 0.0
C330 C 0.28742 0.54223 0.26708 0.0
C331 C 0.38529 0.69872 0.37915 0.0
O332 O 0.32912 0.48895 0.34431 0.0
O333 O 0.31351 0.47952 0.4219 0.0
O334 O 0.30579 0.81226 0.31586 0.0
O335 O 0.30406 0.71414 0.38356 0.0
Co336 Co 0.56776 0.84544 0.07501 0.0
O337 O 0.52407 0.90453 0.05565 0.0
O338 O 0.56773 0.9143 0.00885 0.0
C339 C 0.553 0.67584 0.11307 0.0
O340 O 0.61703 0.80234 0.08979 0.0
Co341 Co 0.57741 0.84545 0.18798 0.0
O342 O 0.62366 0.80136 0.17214 0.0
C343 C 0.56852 0.05839 0.1301 0.0
C344 C 0.53741 0.94891 0.01706 0.0
C345 C 0.63528 0.7925 0.12911 0.0
O346 O 0.57914 0.00225 0.0943 0.0
O347 O 0.56351 0.01157 0.17188 0.0
O348 O 0.55575 0.6789 0.06583 0.0
O349 O 0.55406 0.77699 0.13353 0.0
Co350 Co 0.73965 0.39572 0.07501 0.0
O351 O 0.78334 0.33662 0.05565 0.0
O352 O 0.73968 0.32685 0.00885 0.0
C353 C 0.75441 0.56532 0.11307 0.0
O354 O 0.69038 0.43884 0.08979 0.0
Co355 Co 0.73 0.39571 0.18799 0.0
O356 O 0.68375 0.4398 0.17214 0.0
C357 C 0.7389 0.18277 0.1301 0.0
C358 C 0.76999 0.29222 0.01707 0.0
C359 C 0.67213 0.44867 0.12911 0.0
O360 O 0.72827 0.23892 0.09431 0.0
O361 O 0.7439 0.2296 0.17188 0.0
O362 O 0.75166 0.56226 0.06583 0.0
O363 O 0.75335 0.46417 0.13353 0.0
Co364 Co 0.56777 0.39574 0.17932 0.0
O365 O 0.52408 0.33655 0.1987 0.0
O366 O 0.56775 0.32691 0.24549 0.0
C367 C 0.55304 0.56527 0.14126 0.0
O368 O 0.61705 0.43893 0.16453 0.0
Co369 Co 0.57742 0.3957 0.06635 0.0
O370 O 0.62368 0.43977 0.08218 0.0
C371 C 0.5685 0.18276 0.12426 0.0
C372 C 0.53743 0.29221 0.23728 0.0
C373 C 0.6353 0.44872 0.12521 0.0
O374 O 0.57913 0.23895 0.16004 0.0
O375 O 0.56351 0.22952 0.08246 0.0
O376 O 0.55579 0.56224 0.1885 0.0
O377 O 0.55407 0.46412 0.1208 0.0
Co378 Co 0.73964 0.84543 0.17932 0.0
O379 O 0.78333 0.9046 0.1987 0.0
O380 O 0.73966 0.91425 0.24549 0.0
C381 C 0.75437 0.67589 0.14126 0.0
O382 O 0.69036 0.80224 0.16453 0.0
Co383 Co 0.72999 0.84547 0.06635 0.0
O384 O 0.68373 0.8014 0.08218 0.0
C385 C 0.73891 0.05841 0.12426 0.0
C386 C 0.76998 0.94895 0.23728 0.0
C387 C 0.67211 0.79245 0.12521 0.0
O388 O 0.72828 0.00222 0.16005 0.0
O389 O 0.7439 0.01165 0.08246 0.0
O390 O 0.75162 0.67892 0.1885 0.0
O391 O 0.75334 0.77704 0.1208 0.0
Co392 Co 0.48965 0.1457 0.92934 0.0
O393 O 0.53334 0.08659 0.94871 0.0
O394 O 0.48967 0.07683 0.99551 0.0
C395 C 0.5044 0.3153 0.89129 0.0
O396 O 0.44038 0.18882 0.91457 0.0
Co397 Co 0.47999 0.1457 0.81637 0.0
O398 O 0.43375 0.18979 0.83222 0.0
C399 C 0.48889 0.93276 0.87426 0.0
C400 C 0.51999 0.04219 0.98729 0.0
C401 C 0.42213 0.19865 0.87524 0.0
O402 O 0.47826 0.9889 0.91005 0.0
O403 O 0.4939 0.97958 0.83248 0.0
O404 O 0.50166 0.31224 0.93853 0.0
O405 O 0.50335 0.21415 0.87082 0.0
Co406 Co 0.31776 0.59545 0.92935 0.0
O407 O 0.27407 0.65456 0.94871 0.0
O408 O 0.31773 0.66432 0.99551 0.0
C409 C 0.303 0.42585 0.89129 0.0
O410 O 0.36703 0.55232 0.91457 0.0
Co411 Co 0.32742 0.59545 0.81637 0.0
O412 O 0.37366 0.55136 0.83222 0.0
C413 C 0.31852 0.80839 0.87426 0.0
C414 C 0.28742 0.69896 0.98729 0.0
C415 C 0.38528 0.54249 0.87525 0.0
O416 O 0.32915 0.75225 0.91005 0.0
O417 O 0.31351 0.76156 0.83248 0.0
O418 O 0.30575 0.42891 0.93853 0.0
O419 O 0.30406 0.527 0.87083 0.0
Co420 Co 0.48964 0.59541 0.82503 0.0
O421 O 0.53334 0.65458 0.80565 0.0
O422 O 0.48967 0.66422 0.75887 0.0
C423 C 0.50438 0.42587 0.8631 0.0
O424 O 0.44037 0.55223 0.83983 0.0
Co425 Co 0.48 0.59545 0.93801 0.0
O426 O 0.43373 0.55138 0.92218 0.0
C427 C 0.48891 0.8084 0.8801 0.0
C428 C 0.51999 0.69893 0.76708 0.0
C429 C 0.42211 0.54243 0.87915 0.0
O430 O 0.47829 0.7522 0.84431 0.0
O431 O 0.4939 0.76164 0.9219 0.0
O432 O 0.50162 0.4289 0.81586 0.0
O433 O 0.50334 0.52702 0.88356 0.0
Co434 Co 0.31777 0.14574 0.82503 0.0
O435 O 0.27407 0.08658 0.80565 0.0
O436 O 0.31774 0.07693 0.75887 0.0
C437 C 0.30303 0.31528 0.8631 0.0
O438 O 0.36704 0.18892 0.83983 0.0
Co439 Co 0.32741 0.14569 0.93801 0.0
O440 O 0.37368 0.18976 0.92218 0.0
C441 C 0.3185 0.93275 0.8801 0.0
C442 C 0.28742 0.04223 0.76708 0.0
C443 C 0.38529 0.19871 0.87915 0.0
O444 O 0.32912 0.98895 0.84431 0.0
O445 O 0.31351 0.97951 0.9219 0.0
O446 O 0.30579 0.31226 0.81586 0.0
O447 O 0.30407 0.21413 0.88356 0.0
loop_
_geom_bond_atom_site_label_1
_geom_bond_atom_site_label_2
_geom_bond_distance
_geom_bond_site_symmetry_2
_ccdc_geom_bond_type
Co0 O1 2.216 1_455 S
Co0 O2 2.091 . S
Co0 O4 2.004 . S
Co0 O10 2.021 . S
Co0 O12 2.137 . S
Co0 O13 2.244 . S
O1 Co0 2.216 1_655 S
O1 C8 1.247 1_655 S
O2 Co0 2.091 . S
O2 C8 1.261 . S
C3 O12 1.247 . S
C3 O13 1.272 . S
O4 Co0 2.004 . S
O4 C9 1.259 . S
Co5 O6 2.061 . S
Co5 O11 2.052 . S
Co5 O13 2.135 . S
O6 Co5 2.061 . S
O6 C9 1.235 . S
C7 O10 1.238 . S
C7 O11 1.241 . S
C8 O1 1.247 1_455 S
C8 O2 1.261 . S
C9 O4 1.259 . S
C9 O6 1.235 . S
O10 Co0 2.021 . S
O10 C7 1.238 . S
O11 Co5 2.052 . S
O11 C7 1.241 . S
O12 Co0 2.137 . S
O12 C3 1.247 . S
O13 Co0 2.244 . S
O13 C3 1.272 . S
O13 Co5 2.135 . S
Co14 O15 2.216 . S
Co14 O16 2.091 . S
Co14 O18 2.004 . S
Co14 O24 2.021 . S
Co14 O26 2.137 1_565 S
Co14 O27 2.244 . S
O15 Co14 2.216 . S
O15 C22 1.247 . S
O16 Co14 2.091 . S
O16 C22 1.261 . S
C17 O26 1.247 . S
C17 O27 1.272 1_545 S
O18 Co14 2.004 . S
O18 C23 1.259 . S
Co19 O20 2.061 . S
Co19 O25 2.052 . S
Co19 O27 2.135 . S
O20 Co19 2.061 . S
O20 C23 1.235 . S
C21 O24 1.238 . S
C21 O25 1.241 . S
C22 O15 1.247 . S
C22 O16 1.261 . S
C23 O18 1.259 . S
C23 O20 1.235 . S
O24 Co14 2.021 . S
O24 C21 1.238 . S
O25 Co19 2.052 . S
O25 C21 1.241 . S
O26 Co14 2.137 1_545 S
O26 C17 1.247 . S
O27 Co14 2.244 . S
O27 C17 1.272 1_565 S
O27 Co19 2.135 . S
Co28 O29 2.216 1_455 S
Co28 O30 2.091 . S
Co28 O32 2.004 . S
Co28 O38 2.021 . S
Co28 O40 2.137 1_565 S
Co28 O41 2.244 . S
O29 Co28 2.216 1_655 S
O29 C36 1.247 1_655 S
O30 Co28 2.091 . S
O30 C36 1.261 . S
C31 O40 1.247 . S
C31 O41 1.272 1_545 S
O32 Co28 2.004 . S
O32 C37 1.259 . S
Co33 O34 2.061 . S
Co33 O39 2.052 . S
Co33 O41 2.135 . S
O34 Co33 2.061 . S
O34 C37 1.235 . S
C35 O38 1.238 . S
C35 O39 1.241 . S
C36 O29 1.247 1_455 S
C36 O30 1.261 . S
C37 O32 1.259 . S
C37 O34 1.235 . S
O38 Co28 2.021 . S
O38 C35 1.238 . S
O39 Co33 2.052 . S
O39 C35 1.241 . S
O40 Co28 2.137 1_545 S
O40 C31 1.247 . S
O41 Co28 2.244 . S
O41 C31 1.272 1_565 S
O41 Co33 2.135 . S
Co42 O43 2.216 . S
Co42 O44 2.091 . S
Co42 O46 2.004 . S
Co42 O52 2.021 . S
Co42 O54 2.137 . S
Co42 O55 2.244 . S
O43 Co42 2.216 . S
O43 C50 1.247 . S
O44 Co42 2.091 . S
O44 C50 1.261 . S
C45 O54 1.247 . S
C45 O55 1.272 . S
O46 Co42 2.004 . S
O46 C51 1.259 . S
Co47 O48 2.061 . S
Co47 O53 2.052 . S
Co47 O55 2.135 . S
O48 Co47 2.061 . S
O48 C51 1.235 . S
C49 O52 1.238 . S
C49 O53 1.241 . S
C50 O43 1.247 . S
C50 O44 1.261 . S
C51 O46 1.259 . S
C51 O48 1.235 . S
O52 Co42 2.021 . S
O52 C49 1.238 . S
O53 Co47 2.052 . S
O53 C49 1.241 . S
O54 Co42 2.137 . S
O54 C45 1.247 . S
O55 Co42 2.244 . S
O55 C45 1.272 . S
O55 Co47 2.135 . S
Co56 O57 2.216 1_655 S
Co56 O58 2.091 . S
Co56 O60 2.004 . S
Co56 O66 2.021 . S
Co56 O68 2.137 . S
Co56 O69 2.244 . S
O57 Co56 2.216 1_455 S
O57 C64 1.247 1_455 S
O58 Co56 2.091 . S
O58 C64 1.261 . S
C59 O68 1.247 . S
C59 O69 1.272 . S
O60 Co56 2.004 . S
O60 C65 1.259 . S
Co61 O62 2.061 . S
Co61 O67 2.052 . S
Co61 O69 2.135 . S
O62 Co61 2.061 . S
O62 C65 1.235 . S
C63 O66 1.238 . S
C63 O67 1.241 . S
C64 O57 1.247 1_655 S
C64 O58 1.261 . S
C65 O60 1.259 . S
C65 O62 1.235 . S
O66 Co56 2.021 . S
O66 C63 1.238 . S
O67 Co61 2.052 . S
O67 C63 1.241 . S
O68 Co56 2.137 . S
O68 C59 1.247 . S
O69 Co56 2.244 . S
O69 C59 1.272 . S
O69 Co61 2.135 . S
Co70 O71 2.216 . S
Co70 O72 2.091 . S
Co70 O74 2.004 . S
Co70 O80 2.021 . S
Co70 O82 2.137 1_545 S
Co70 O83 2.244 . S
O71 Co70 2.216 . S
O71 C78 1.247 . S
O72 Co70 2.091 . S
O72 C78 1.261 . S
C73 O82 1.247 . S
C73 O83 1.272 1_565 S
O74 Co70 2.004 . S
O74 C79 1.259 . S
Co75 O76 2.061 . S
Co75 O81 2.052 . S
Co75 O83 2.135 . S
O76 Co75 2.061 . S
O76 C79 1.235 . S
C77 O80 1.238 . S
C77 O81 1.241 . S
C78 O71 1.247 . S
C78 O72 1.261 . S
C79 O74 1.259 . S
C79 O76 1.235 . S
O80 Co70 2.021 . S
O80 C77 1.238 . S
O81 Co75 2.052 . S
O81 C77 1.241 . S
O82 Co70 2.137 1_565 S
O82 C73 1.247 . S
O83 Co70 2.244 . S
O83 C73 1.272 1_545 S
O83 Co75 2.135 . S
Co84 O85 2.216 1_655 S
Co84 O86 2.091 . S
Co84 O88 2.004 . S
Co84 O94 2.021 . S
Co84 O96 2.137 1_545 S
Co84 O97 2.244 . S
O85 Co84 2.216 1_455 S
O85 C92 1.247 1_455 S
O86 Co84 2.091 . S
O86 C92 1.261 . S
C87 O96 1.247 . S
C87 O97 1.272 1_565 S
O88 Co84 2.004 . S
O88 C93 1.259 . S
Co89 O90 2.061 . S
Co89 O95 2.052 . S
Co89 O97 2.135 . S
O90 Co89 2.061 . S
O90 C93 1.235 . S
C91 O94 1.238 . S
C91 O95 1.241 . S
C92 O85 1.247 1_655 S
C92 O86 1.261 . S
C93 O88 1.259 . S
C93 O90 1.235 . S
O94 Co84 2.021 . S
O94 C91 1.238 . S
O95 Co89 2.052 . S
O95 C91 1.241 . S
O96 Co84 2.137 1_565 S
O96 C87 1.247 . S
O97 Co84 2.244 . S
O97 C87 1.272 1_545 S
O97 Co89 2.135 . S
Co98 O99 2.216 . S
Co98 O100 2.091 . S
Co98 O102 2.004 . S
Co98 O108 2.021 . S
Co98 O110 2.137 . S
Co98 O111 2.244 . S
O99 Co98 2.216 . S
O99 C106 1.247 . S
O100 Co98 2.091 . S
O100 C106 1.261 . S
C101 O110 1.247 . S
C101 O111 1.272 . S
O102 Co98 2.004 . S
O102 C107 1.259 . S
Co103 O104 2.061 . S
Co103 O109 2.052 . S
Co103 O111 2.135 . S
O104 Co103 2.061 . S
O104 C107 1.235 . S
C105 O108 1.238 . S
C105 O109 1.241 . S
C106 O99 1.247 . S
C106 O100 1.261 . S
C107 O102 1.259 . S
C107 O104 1.235 . S
O108 Co98 2.021 . S
O108 C105 1.238 . S
O109 Co103 2.052 . S
O109 C105 1.241 . S
O110 Co98 2.137 . S
O110 C101 1.247 . S
O111 Co98 2.244 . S
O111 C101 1.272 . S
O111 Co103 2.135 . S
Co112 O113 2.216 1_455 S
Co112 O114 2.091 . S
Co112 O116 2.004 . S
Co112 O122 2.021 1_565 S
Co112 O124 2.137 . S
Co112 O125 2.244 . S
O113 Co112 2.216 1_655 S
O113 C120 1.247 1_655 S
O114 Co112 2.091 . S
O114 C120 1.261 . S
C115 O124 1.247 . S
C115 O125 1.272 . S
O116 Co112 2.004 . S
O116 C121 1.259 . S
Co117 O118 2.061 . S
Co117 O123 2.052 1_565 S
Co117 O125 2.135 . S
O118 Co117 2.061 . S
O118 C121 1.235 . S
C119 O122 1.238 . S
C119 O123 1.241 . S
C120 O113 1.247 1_455 S
C120 O114 1.261 . S
C121 O116 1.259 . S
C121 O118 1.235 . S
O122 Co112 2.021 1_545 S
O122 C119 1.238 . S
O123 Co117 2.052 1_545 S
O123 C119 1.241 . S
O124 Co112 2.137 . S
O124 C115 1.247 . S
O125 Co112 2.244 . S
O125 C115 1.272 . S
O125 Co117 2.135 . S
Co126 O127 2.216 . S
Co126 O128 2.091 . S
Co126 O130 2.004 . S
Co126 O136 2.021 . S
Co126 O138 2.137 . S
Co126 O139 2.244 . S
O127 Co126 2.216 . S
O127 C134 1.247 . S
O128 Co126 2.091 . S
O128 C134 1.261 . S
C129 O138 1.247 . S
C129 O139 1.272 . S
O130 Co126 2.004 . S
O130 C135 1.259 . S
Co131 O132 2.061 . S
Co131 O137 2.052 . S
Co131 O139 2.135 . S
O132 Co131 2.061 . S
O132 C135 1.235 . S
C133 O136 1.238 . S
C133 O137 1.241 . S
C134 O127 1.247 . S
C134 O128 1.261 . S
C135 O130 1.259 . S
C135 O132 1.235 . S
O136 Co126 2.021 . S
O136 C133 1.238 . S
O137 Co131 2.052 . S
O137 C133 1.241 . S
O138 Co126 2.137 . S
O138 C129 1.247 . S
O139 Co126 2.244 . S
O139 C129 1.272 . S
O139 Co131 2.135 . S
Co140 O141 2.216 1_455 S
Co140 O142 2.091 . S
Co140 O144 2.004 . S
Co140 O150 2.021 . S
Co140 O152 2.137 . S
Co140 O153 2.244 . S
O141 Co140 2.216 1_655 S
O141 C148 1.247 1_655 S
O142 Co140 2.091 . S
O142 C148 1.261 . S
C143 O152 1.247 . S
C143 O153 1.272 . S
O144 Co140 2.004 . S
O144 C149 1.259 . S
Co145 O146 2.061 . S
Co145 O151 2.052 . S
Co145 O153 2.135 . S
O146 Co145 2.061 . S
O146 C149 1.235 . S
C147 O150 1.238 . S
C147 O151 1.241 . S
C148 O141 1.247 1_455 S
C148 O142 1.261 . S
C149 O144 1.259 . S
C149 O146 1.235 . S
O150 Co140 2.021 . S
O150 C147 1.238 . S
O151 Co145 2.052 . S
O151 C147 1.241 . S
O152 Co140 2.137 . S
O152 C143 1.247 . S
O153 Co140 2.244 . S
O153 C143 1.272 . S
O153 Co145 2.135 . S
Co154 O155 2.216 . S
Co154 O156 2.091 . S
Co154 O158 2.004 . S
Co154 O164 2.021 1_565 S
Co154 O166 2.137 . S
Co154 O167 2.244 . S
O155 Co154 2.216 . S
O155 C162 1.247 . S
O156 Co154 2.091 . S
O156 C162 1.261 . S
C157 O166 1.247 . S
C157 O167 1.272 . S
O158 Co154 2.004 . S
O158 C163 1.259 . S
Co159 O160 2.061 . S
Co159 O165 2.052 1_565 S
Co159 O167 2.135 . S
O160 Co159 2.061 . S
O160 C163 1.235 . S
C161 O164 1.238 . S
C161 O165 1.241 . S
C162 O155 1.247 . S
C162 O156 1.261 . S
C163 O158 1.259 . S
C163 O160 1.235 . S
O164 Co154 2.021 1_545 S
O164 C161 1.238 . S
O165 Co159 2.052 1_545 S
O165 C161 1.241 . S
O166 Co154 2.137 . S
O166 C157 1.247 . S
O167 Co154 2.244 . S
O167 C157 1.272 . S
O167 Co159 2.135 . S
Co168 O169 2.216 1_655 S
Co168 O170 2.091 . S
Co168 O172 2.004 . S
Co168 O178 2.021 1_545 S
Co168 O180 2.137 . S
Co168 O181 2.244 . S
O169 Co168 2.216 1_455 S
O169 C176 1.247 1_455 S
O170 Co168 2.091 . S
O170 C176 1.261 . S
C171 O180 1.247 . S
C171 O181 1.272 . S
O172 Co168 2.004 . S
O172 C177 1.259 . S
Co173 O174 2.061 . S
Co173 O179 2.052 1_545 S
Co173 O181 2.135 . S
O174 Co173 2.061 . S
O174 C177 1.235 . S
C175 O178 1.238 . S
C175 O179 1.241 . S
C176 O169 1.247 1_655 S
C176 O170 1.261 . S
C177 O172 1.259 . S
C177 O174 1.235 . S
O178 Co168 2.021 1_565 S
O178 C175 1.238 . S
O179 Co173 2.052 1_565 S
O179 C175 1.241 . S
O180 Co168 2.137 . S
O180 C171 1.247 . S
O181 Co168 2.244 . S
O181 C171 1.272 . S
O181 Co173 2.135 . S
Co182 O183 2.216 . S
Co182 O184 2.091 . S
Co182 O186 2.004 . S
Co182 O192 2.021 . S
Co182 O194 2.137 . S
Co182 O195 2.244 . S
O183 Co182 2.216 . S
O183 C190 1.247 . S
O184 Co182 2.091 . S
O184 C190 1.261 . S
C185 O194 1.247 . S
C185 O195 1.272 . S
O186 Co182 2.004 . S
O186 C191 1.259 . S
Co187 O188 2.061 . S
Co187 O193 2.052 . S
Co187 O195 2.135 . S
O188 Co187 2.061 . S
O188 C191 1.235 . S
C189 O192 1.238 . S
C189 O193 1.241 . S
C190 O183 1.247 . S
C190 O184 1.261 . S
C191 O186 1.259 . S
C191 O188 1.235 . S
O192 Co182 2.021 . S
O192 C189 1.238 . S
O193 Co187 2.052 . S
O193 C189 1.241 . S
O194 Co182 2.137 . S
O194 C185 1.247 . S
O195 Co182 2.244 . S
O195 C185 1.272 . S
O195 Co187 2.135 . S
Co196 O197 2.216 1_655 S
Co196 O198 2.091 . S
Co196 O200 2.004 . S
Co196 O206 2.021 . S
Co196 O208 2.137 . S
Co196 O209 2.244 . S
O197 Co196 2.216 1_455 S
O197 C204 1.247 1_455 S
O198 Co196 2.091 . S
O198 C204 1.261 . S
C199 O208 1.247 . S
C199 O209 1.272 . S
O200 Co196 2.004 . S
O200 C205 1.259 . S
Co201 O202 2.061 . S
Co201 O207 2.052 . S
Co201 O209 2.135 . S
O202 Co201 2.061 . S
O202 C205 1.235 . S
C203 O206 1.238 . S
C203 O207 1.241 . S
C204 O197 1.247 1_655 S
C204 O198 1.261 . S
C205 O200 1.259 . S
C205 O202 1.235 . S
O206 Co196 2.021 . S
O206 C203 1.238 . S
O207 Co201 2.052 . S
O207 C203 1.241 . S
O208 Co196 2.137 . S
O208 C199 1.247 . S
O209 Co196 2.244 . S
O209 C199 1.272 . S
O209 Co201 2.135 . S
Co210 O211 2.216 . S
Co210 O212 2.091 . S
Co210 O214 2.004 . S
Co210 O220 2.021 1_545 S
Co210 O222 2.137 . S
Co210 O223 2.244 . S
O211 Co210 2.216 . S
O211 C218 1.247 . S
O212 Co210 2.091 . S
O212 C218 1.261 . S
C213 O222 1.247 . S
C213 O223 1.272 . S
O214 Co210 2.004 . S
O214 C219 1.259 . S
Co215 O216 2.061 . S
Co215 O221 2.052 1_545 S
Co215 O223 2.135 . S
O216 Co215 2.061 . S
O216 C219 1.235 . S
C217 O220 1.238 . S
C217 O221 1.241 . S
C218 O211 1.247 . S
C218 O212 1.261 . S
C219 O214 1.259 . S
C219 O216 1.235 . S
O220 Co210 2.021 1_565 S
O220 C217 1.238 . S
O221 Co215 2.052 1_565 S
O221 C217 1.241 . S
O222 Co210 2.137 . S
O222 C213 1.247 . S
O223 Co210 2.244 . S
O223 C213 1.272 . S
O223 Co215 2.135 . S
Co224 O225 2.216 . S
Co224 O226 2.091 . S
Co224 O228 2.004 . S
Co224 O234 2.021 . S
Co224 O236 2.137 . S
Co224 O237 2.244 . S
O225 Co224 2.216 . S
O225 C232 1.247 . S
O226 Co224 2.091 . S
O226 C232 1.261 . S
C227 O236 1.247 . S
C227 O237 1.272 . S
O228 Co224 2.004 . S
O228 C233 1.259 . S
Co229 O230 2.061 . S
Co229 O235 2.052 . S
Co229 O237 2.135 . S
O230 Co229 2.061 . S
O230 C233 1.235 . S
C231 O234 1.238 . S
C231 O235 1.241 . S
C232 O225 1.247 . S
C232 O226 1.261 . S
C233 O228 1.259 . S
C233 O230 1.235 . S
O234 Co224 2.021 . S
O234 C231 1.238 . S
O235 Co229 2.052 . S
O235 C231 1.241 . S
O236 Co224 2.137 . S
O236 C227 1.247 . S
O237 Co224 2.244 . S
O237 C227 1.272 . S
O237 Co229 2.135 . S
Co238 O239 2.216 . S
Co238 O240 2.091 . S
Co238 O242 2.004 . S
Co238 O248 2.021 . S
Co238 O250 2.137 1_565 S
Co238 O251 2.244 . S
O239 Co238 2.216 . S
O239 C246 1.247 . S
O240 Co238 2.091 . S
O240 C246 1.261 . S
C241 O250 1.247 . S
C241 O251 1.272 1_545 S
O242 Co238 2.004 . S
O242 C247 1.259 . S
Co243 O244 2.061 . S
Co243 O249 2.052 . S
Co243 O251 2.135 . S
O244 Co243 2.061 . S
O244 C247 1.235 . S
C245 O248 1.238 . S
C245 O249 1.241 . S
C246 O239 1.247 . S
C246 O240 1.261 . S
C247 O242 1.259 . S
C247 O244 1.235 . S
O248 Co238 2.021 . S
O248 C245 1.238 . S
O249 Co243 2.052 . S
O249 C245 1.241 . S
O250 Co238 2.137 1_545 S
O250 C241 1.247 . S
O251 Co238 2.244 . S
O251 C241 1.272 1_565 S
O251 Co243 2.135 . S
Co252 O253 2.216 . S
Co252 O254 2.091 . S
Co252 O256 2.004 . S
Co252 O262 2.021 . S
Co252 O264 2.137 1_565 S
Co252 O265 2.244 . S
O253 Co252 2.216 . S
O253 C260 1.247 . S
O254 Co252 2.091 . S
O254 C260 1.261 . S
C255 O264 1.247 . S
C255 O265 1.272 1_545 S
O256 Co252 2.004 . S
O256 C261 1.259 . S
Co257 O258 2.061 . S
Co257 O263 2.052 . S
Co257 O265 2.135 . S
O258 Co257 2.061 . S
O258 C261 1.235 . S
C259 O262 1.238 . S
C259 O263 1.241 . S
C260 O253 1.247 . S
C260 O254 1.261 . S
C261 O256 1.259 . S
C261 O258 1.235 . S
O262 Co252 2.021 . S
O262 C259 1.238 . S
O263 Co257 2.052 . S
O263 C259 1.241 . S
O264 Co252 2.137 1_545 S
O264 C255 1.247 . S
O265 Co252 2.244 . S
O265 C255 1.272 1_565 S
O265 Co257 2.135 . S
Co266 O267 2.216 . S
Co266 O268 2.091 . S
Co266 O270 2.004 . S
Co266 O276 2.021 . S
Co266 O278 2.137 . S
Co266 O279 2.244 . S
O267 Co266 2.216 . S
O267 C274 1.247 . S
O268 Co266 2.091 . S
O268 C274 1.261 . S
C269 O278 1.247 . S
C269 O279 1.272 . S
O270 Co266 2.004 . S
O270 C275 1.259 . S
Co271 O272 2.061 . S
Co271 O277 2.052 . S
Co271 O279 2.135 . S
O272 Co271 2.061 . S
O272 C275 1.235 . S
C273 O276 1.238 . S
C273 O277 1.241 . S
C274 O267 1.247 . S
C274 O268 1.261 . S
C275 O270 1.259 . S
C275 O272 1.235 . S
O276 Co266 2.021 . S
O276 C273 1.238 . S
O277 Co271 2.052 . S
O277 C273 1.241 . S
O278 Co266 2.137 . S
O278 C269 1.247 . S
O279 Co266 2.244 . S
O279 C269 1.272 . S
O279 Co271 2.135 . S
Co280 O281 2.216 . S
Co280 O282 2.091 . S
Co280 O284 2.004 . S
Co280 O290 2.021 . S
Co280 O292 2.137 . S
Co280 O293 2.244 . S
O281 Co280 2.216 . S
O281 C288 1.247 . S
O282 Co280 2.091 . S
O282 C288 1.261 . S
C283 O292 1.247 . S
C283 O293 1.272 . S
O284 Co280 2.004 . S
O284 C289 1.259 . S
Co285 O286 2.061 . S
Co285 O291 2.052 . S
Co285 O293 2.135 . S
O286 Co285 2.061 . S
O286 C289 1.235 . S
C287 O290 1.238 . S
C287 O291 1.241 . S
C288 O281 1.247 . S
C288 O282 1.261 . S
C289 O284 1.259 . S
C289 O286 1.235 . S
O290 Co280 2.021 . S
O290 C287 1.238 . S
O291 Co285 2.052 . S
O291 C287 1.241 . S
O292 Co280 2.137 . S
O292 C283 1.247 . S
O293 Co280 2.244 . S
O293 C283 1.272 . S
O293 Co285 2.135 . S
Co294 O295 2.216 . S
Co294 O296 2.091 . S
Co294 O298 2.004 . S
Co294 O304 2.021 . S
Co294 O306 2.137 1_545 S
Co294 O307 2.244 . S
O295 Co294 2.216 . S
O295 C302 1.247 . S
O296 Co294 2.091 . S
O296 C302 1.261 . S
C297 O306 1.247 . S
C297 O307 1.272 1_565 S
O298 Co294 2.004 . S
O298 C303 1.259 . S
Co299 O300 2.061 . S
Co299 O305 2.052 . S
Co299 O307 2.135 . S
O300 Co299 2.061 . S
O300 C303 1.235 . S
C301 O304 1.238 . S
C301 O305 1.241 . S
C302 O295 1.247 . S
C302 O296 1.261 . S
C303 O298 1.259 . S
C303 O300 1.235 . S
O304 Co294 2.021 . S
O304 C301 1.238 . S
O305 Co299 2.052 . S
O305 C301 1.241 . S
O306 Co294 2.137 1_565 S
O306 C297 1.247 . S
O307 Co294 2.244 . S
O307 C297 1.272 1_545 S
O307 Co299 2.135 . S
Co308 O309 2.216 . S
Co308 O310 2.091 . S
Co308 O312 2.004 . S
Co308 O318 2.021 . S
Co308 O320 2.137 1_545 S
Co308 O321 2.244 . S
O309 Co308 2.216 . S
O309 C316 1.247 . S
O310 Co308 2.091 . S
O310 C316 1.261 . S
C311 O320 1.247 . S
C311 O321 1.272 1_565 S
O312 Co308 2.004 . S
O312 C317 1.259 . S
Co313 O314 2.061 . S
Co313 O319 2.052 . S
Co313 O321 2.135 . S
O314 Co313 2.061 . S
O314 C317 1.235 . S
C315 O318 1.238 . S
C315 O319 1.241 . S
C316 O309 1.247 . S
C316 O310 1.261 . S
C317 O312 1.259 . S
C317 O314 1.235 . S
O318 Co308 2.021 . S
O318 C315 1.238 . S
O319 Co313 2.052 . S
O319 C315 1.241 . S
O320 Co308 2.137 1_565 S
O320 C311 1.247 . S
O321 Co308 2.244 . S
O321 C311 1.272 1_545 S
O321 Co313 2.135 . S
Co322 O323 2.216 . S
Co322 O324 2.091 . S
Co322 O326 2.004 . S
Co322 O332 2.021 . S
Co322 O334 2.137 . S
Co322 O335 2.244 . S
O323 Co322 2.216 . S
O323 C330 1.247 . S
O324 Co322 2.091 . S
O324 C330 1.261 . S
C325 O334 1.247 . S
C325 O335 1.272 . S
O326 Co322 2.004 . S
O326 C331 1.259 . S
Co327 O328 2.061 . S
Co327 O333 2.052 . S
Co327 O335 2.135 . S
O328 Co327 2.061 . S
O328 C331 1.235 . S
C329 O332 1.238 . S
C329 O333 1.241 . S
C330 O323 1.247 . S
C330 O324 1.261 . S
C331 O326 1.259 . S
C331 O328 1.235 . S
O332 Co322 2.021 . S
O332 C329 1.238 . S
O333 Co327 2.052 . S
O333 C329 1.241 . S
O334 Co322 2.137 . S
O334 C325 1.247 . S
O335 Co322 2.244 . S
O335 C325 1.272 . S
O335 Co327 2.135 . S
Co336 O337 2.216 . S
Co336 O338 2.091 . S
Co336 O340 2.004 . S
Co336 O346 2.021 1_565 S
Co336 O348 2.137 . S
Co336 O349 2.244 . S
O337 Co336 2.216 . S
O337 C344 1.247 . S
O338 Co336 2.091 . S
O338 C344 1.261 . S
C339 O348 1.247 . S
C339 O349 1.272 . S
O340 Co336 2.004 . S
O340 C345 1.259 . S
Co341 O342 2.061 . S
Co341 O347 2.052 1_565 S
Co341 O349 2.135 . S
O342 Co341 2.061 . S
O342 C345 1.235 . S
C343 O346 1.238 . S
C343 O347 1.241 . S
C344 O337 1.247 . S
C344 O338 1.261 . S
C345 O340 1.259 . S
C345 O342 1.235 . S
O346 Co336 2.021 1_545 S
O346 C343 1.238 . S
O347 Co341 2.052 1_545 S
O347 C343 1.241 . S
O348 Co336 2.137 . S
O348 C339 1.247 . S
O349 Co336 2.244 . S
O349 C339 1.272 . S
O349 Co341 2.135 . S
Co350 O351 2.216 . S
Co350 O352 2.091 . S
Co350 O354 2.004 . S
Co350 O360 2.021 . S
Co350 O362 2.137 . S
Co350 O363 2.244 . S
O351 Co350 2.216 . S
O351 C358 1.247 . S
O352 Co350 2.091 . S
O352 C358 1.261 . S
C353 O362 1.247 . S
C353 O363 1.272 . S
O354 Co350 2.004 . S
O354 C359 1.259 . S
Co355 O356 2.061 . S
Co355 O361 2.052 . S
Co355 O363 2.135 . S
O356 Co355 2.061 . S
O356 C359 1.235 . S
C357 O360 1.238 . S
C357 O361 1.241 . S
C358 O351 1.247 . S
C358 O352 1.261 . S
C359 O354 1.259 . S
C359 O356 1.235 . S
O360 Co350 2.021 . S
O360 C357 1.238 . S
O361 Co355 2.052 . S
O361 C357 1.241 . S
O362 Co350 2.137 . S
O362 C353 1.247 . S
O363 Co350 2.244 . S
O363 C353 1.272 . S
O363 Co355 2.135 . S
Co364 O365 2.216 . S
Co364 O366 2.091 . S
Co364 O368 2.004 . S
Co364 O374 2.021 . S
Co364 O376 2.137 . S
Co364 O377 2.244 . S
O365 Co364 2.216 . S
O365 C372 1.247 . S
O366 Co364 2.091 . S
O366 C372 1.261 . S
C367 O376 1.247 . S
C367 O377 1.272 . S
O368 Co364 2.004 . S
O368 C373 1.259 . S
Co369 O370 2.061 . S
Co369 O375 2.052 . S
Co369 O377 2.135 . S
O370 Co369 2.061 . S
O370 C373 1.235 . S
C371 O374 1.238 . S
C371 O375 1.241 . S
C372 O365 1.247 . S
C372 O366 1.261 . S
C373 O368 1.259 . S
C373 O370 1.235 . S
O374 Co364 2.021 . S
O374 C371 1.238 . S
O375 Co369 2.052 . S
O375 C371 1.241 . S
O376 Co364 2.137 . S
O376 C367 1.247 . S
O377 Co364 2.244 . S
O377 C367 1.272 . S
O377 Co369 2.135 . S
Co378 O379 2.216 . S
Co378 O380 2.091 . S
Co378 O382 2.004 . S
Co378 O388 2.021 1_565 S
Co378 O390 2.137 . S
Co378 O391 2.244 . S
O379 Co378 2.216 . S
O379 C386 1.247 . S
O380 Co378 2.091 . S
O380 C386 1.261 . S
C381 O390 1.247 . S
C381 O391 1.272 . S
O382 Co378 2.004 . S
O382 C387 1.259 . S
Co383 O384 2.061 . S
Co383 O389 2.052 1_565 S
Co383 O391 2.135 . S
O384 Co383 2.061 . S
O384 C387 1.235 . S
C385 O388 1.238 . S
C385 O389 1.241 . S
C386 O379 1.247 . S
C386 O380 1.261 . S
C387 O382 1.259 . S
C387 O384 1.235 . S
O388 Co378 2.021 1_545 S
O388 C385 1.238 . S
O389 Co383 2.052 1_545 S
O389 C385 1.241 . S
O390 Co378 2.137 . S
O390 C381 1.247 . S
O391 Co378 2.244 . S
O391 C381 1.272 . S
O391 Co383 2.135 . S
Co392 O393 2.216 . S
Co392 O394 2.091 . S
Co392 O396 2.004 . S
Co392 O402 2.021 1_545 S
Co392 O404 2.137 . S
Co392 O405 2.244 . S
O393 Co392 2.216 . S
O393 C400 1.247 . S
O394 Co392 2.091 . S
O394 C400 1.261 . S
C395 O404 1.247 . S
C395 O405 1.272 . S
O396 Co392 2.004 . S
O396 C401 1.259 . S
Co397 O398 2.061 . S
Co397 O403 2.052 1_545 S
Co397 O405 2.135 . S
O398 Co397 2.061 . S
O398 C401 1.235 . S
C399 O402 1.238 . S
C399 O403 1.241 . S
C400 O393 1.247 . S
C400 O394 1.261 . S
C401 O396 1.259 . S
C401 O398 1.235 . S
O402 Co392 2.021 1_565 S
O402 C399 1.238 . S
O403 Co397 2.052 1_565 S
O403 C399 1.241 . S
O404 Co392 2.137 . S
O404 C395 1.247 . S
O405 Co392 2.244 . S
O405 C395 1.272 . S
O405 Co397 2.135 . S
Co406 O407 2.216 . S
Co406 O408 2.091 . S
Co406 O410 2.004 . S
Co406 O416 2.021 . S
Co406 O418 2.137 . S
Co406 O419 2.244 . S
O407 Co406 2.216 . S
O407 C414 1.247 . S
O408 Co406 2.091 . S
O408 C414 1.261 . S
C409 O418 1.247 . S
C409 O419 1.272 . S
O410 Co406 2.004 . S
O410 C415 1.259 . S
Co411 O412 2.061 . S
Co411 O417 2.052 . S
Co411 O419 2.135 . S
O412 Co411 2.061 . S
O412 C415 1.235 . S
C413 O416 1.238 . S
C413 O417 1.241 . S
C414 O407 1.247 . S
C414 O408 1.261 . S
C415 O410 1.259 . S
C415 O412 1.235 . S
O416 Co406 2.021 . S
O416 C413 1.238 . S
O417 Co411 2.052 . S
O417 C413 1.241 . S
O418 Co406 2.137 . S
O418 C409 1.247 . S
O419 Co406 2.244 . S
O419 C409 1.272 . S
O419 Co411 2.135 . S
Co420 O421 2.216 . S
Co420 O422 2.091 . S
Co420 O424 2.004 . S
Co420 O430 2.021 . S
Co420 O432 2.137 . S
Co420 O433 2.244 . S
O421 Co420 2.216 . S
O421 C428 1.247 . S
O422 Co420 2.091 . S
O422 C428 1.261 . S
C423 O432 1.247 . S
C423 O433 1.272 . S
O424 Co420 2.004 . S
O424 C429 1.259 . S
Co425 O426 2.061 . S
Co425 O431 2.052 . S
Co425 O433 2.135 . S
O426 Co425 2.061 . S
O426 C429 1.235 . S
C427 O430 1.238 . S
C427 O431 1.241 . S
C428 O421 1.247 . S
C428 O422 1.261 . S
C429 O424 1.259 . S
C429 O426 1.235 . S
O430 Co420 2.021 . S
O430 C427 1.238 . S
O431 Co425 2.052 . S
O431 C427 1.241 . S
O432 Co420 2.137 . S
O432 C423 1.247 . S
O433 Co420 2.244 . S
O433 C423 1.272 . S
O433 Co425 2.135 . S
Co434 O435 2.216 . S
Co434 O436 2.091 . S
Co434 O438 2.004 . S
Co434 O444 2.021 1_545 S
Co434 O446 2.137 . S
Co434 O447 2.244 . S
O435 Co434 2.216 . S
O435 C442 1.247 . S
O436 Co434 2.091 . S
O436 C442 1.261 . S
C437 O446 1.247 . S
C437 O447 1.272 . S
O438 Co434 2.004 . S
O438 C443 1.259 . S
Co439 O440 2.061 . S
Co439 O445 2.052 1_545 S
Co439 O447 2.135 . S
O440 Co439 2.061 . S
O440 C443 1.235 . S
C441 O444 1.238 . S
C441 O445 1.241 . S
C442 O435 1.247 . S
C442 O436 1.261 . S
C443 O438 1.259 . S
C443 O440 1.235 . S
O444 Co434 2.021 1_565 S
O444 C441 1.238 . S
O445 Co439 2.052 1_565 S
O445 C441 1.241 . S
O446 Co434 2.137 . S
O446 C437 1.247 . S
O447 Co434 2.244 . S
O447 C437 1.272 . S
O447 Co439 2.135 . S
C35 C7 1.758 . S
C21 C49 1.758 . S
C91 C63 1.758 . S
C105 C77 1.758 . S
C119 C147 1.758 . S
C161 C133 1.758 . S
C175 C203 1.758 . S
C189 C217 1.758 . S
C259 C231 1.758 . S
C245 C273 1.758 . S
C287 C315 1.758 . S
C329 C301 1.758 . S
C371 C343 1.758 . S
C385 C357 1.758 . S
C427 C399 1.758 . S
C413 C441 1.758 . S
C64 C8 1.980 1_656 S
C414 C22 1.980 1_556 S
C36 C204 1.980 1_455 S
C50 C330 1.980 . S
C78 C358 1.980 1_556 S
C92 C148 1.980 1_655 S
C274 C106 1.980 . S
C176 C120 1.980 1_645 S
C302 C134 1.980 . S
C162 C442 1.980 1_565 S
C190 C246 1.980 . S
C386 C218 1.980 1_565 S
C288 C232 1.980 . S
C260 C428 1.980 . S
C316 C372 1.980 . S
C400 C344 1.980 1_546 S
C51 C9 1.442 . S
C37 C23 1.442 . S
C107 C65 1.442 . S
C93 C79 1.442 . S
C163 C121 1.442 . S
C149 C135 1.442 . S
C219 C177 1.442 . S
C205 C191 1.442 . S
C233 C275 1.442 . S
C261 C247 1.442 . S
C289 C331 1.442 . S
C317 C303 1.442 . S
C387 C345 1.442 . S
C359 C373 1.442 . S
C401 C443 1.442 . S
C429 C415 1.442 . S
C31 C3 1.558 . S
C17 C45 1.558 . S
C59 C87 1.558 . S
C73 C101 1.558 . S
C115 C143 1.558 . S
C129 C157 1.558 . S
C199 C171 1.558 . S
C213 C185 1.558 . S
C255 C227 1.558 . S
C269 C241 1.558 . S
C283 C311 1.558 . S
C325 C297 1.558 . S
C367 C339 1.558 . S
C353 C381 1.558 . S
C395 C423 1.558 . S
C437 C409 1.558 . S
