# Generated by pormake.
# Topology vcj, (7)-cn, num edge types: 1
# Building blocks:
#     Node 0, Type 0, BuildingBlock: HICVOG_clean_sbu_0, # of connection points: 7
#     Node 1, Type 0, BuildingBlock: HICVOG_clean_sbu_0, # of connection points: 7
#     Node 2, Type 0, BuildingBlock: HICVOG_clean_sbu_0, # of connection points: 7
#     Node 3, Type 0, BuildingBlock: HICVOG_clean_sbu_0, # of connection points: 7
#     Node 4, Type 0, BuildingBlock: HICVOG_clean_sbu_0, # of connection points: 7
#     Node 5, Type 0, BuildingBlock: HICVOG_clean_sbu_0, # of connection points: 7
#     Node 6, Type 0, BuildingBlock: HICVOG_clean_sbu_0, # of connection points: 7
#     Node 7, Type 0, BuildingBlock: HICVOG_clean_sbu_0, # of connection points: 7
#     Edge 8, Type (0, 0), BuildingBlock: UVAHIK_clean_linker_0, # of connection points: 2
#     Edge 9, Type (0, 0), BuildingBlock: UVAHIK_clean_linker_0, # of connection points: 2
#     Edge 10, Type (0, 0), BuildingBlock: UVAHIK_clean_linker_0, # of connection points: 2
#     Edge 11, Type (0, 0), BuildingBlock: UVAHIK_clean_linker_0, # of connection points: 2
#     Edge 12, Type (0, 0), BuildingBlock: UVAHIK_clean_linker_0, # of connection points: 2
#     Edge 13, Type (0, 0), BuildingBlock: UVAHIK_clean_linker_0, # of connection points: 2
#     Edge 14, Type (0, 0), BuildingBlock: UVAHIK_clean_linker_0, # of connection points: 2
#     Edge 15, Type (0, 0), BuildingBlock: UVAHIK_clean_linker_0, # of connection points: 2
#     Edge 16, Type (0, 0), BuildingBlock: UVAHIK_clean_linker_0, # of connection points: 2
#     Edge 17, Type (0, 0), BuildingBlock: UVAHIK_clean_linker_0, # of connection points: 2
#     Edge 18, Type (0, 0), BuildingBlock: UVAHIK_clean_linker_0, # of connection points: 2
#     Edge 19, Type (0, 0), BuildingBlock: UVAHIK_clean_linker_0, # of connection points: 2
#     Edge 20, Type (0, 0), BuildingBlock: UVAHIK_clean_linker_0, # of connection points: 2
#     Edge 21, Type (0, 0), BuildingBlock: UVAHIK_clean_linker_0, # of connection points: 2
#     Edge 22, Type (0, 0), BuildingBlock: UVAHIK_clean_linker_0, # of connection points: 2
#     Edge 23, Type (0, 0), BuildingBlock: UVAHIK_clean_linker_0, # of connection points: 2
#     Edge 24, Type (0, 0), BuildingBlock: UVAHIK_clean_linker_0, # of connection points: 2
#     Edge 25, Type (0, 0), BuildingBlock: UVAHIK_clean_linker_0, # of connection points: 2
#     Edge 26, Type (0, 0), BuildingBlock: UVAHIK_clean_linker_0, # of connection points: 2
#     Edge 27, Type (0, 0), BuildingBlock: UVAHIK_clean_linker_0, # of connection points: 2
#     Edge 28, Type (0, 0), BuildingBlock: UVAHIK_clean_linker_0, # of connection points: 2
#     Edge 29, Type (0, 0), BuildingBlock: UVAHIK_clean_linker_0, # of connection points: 2
#     Edge 30, Type (0, 0), BuildingBlock: UVAHIK_clean_linker_0, # of connection points: 2
#     Edge 31, Type (0, 0), BuildingBlock: UVAHIK_clean_linker_0, # of connection points: 2
#     Edge 32, Type (0, 0), BuildingBlock: UVAHIK_clean_linker_0, # of connection points: 2
#     Edge 33, Type (0, 0), BuildingBlock: UVAHIK_clean_linker_0, # of connection points: 2
#     Edge 34, Type (0, 0), BuildingBlock: UVAHIK_clean_linker_0, # of connection points: 2
#     Edge 35, Type (0, 0), BuildingBlock: UVAHIK_clean_linker_0, # of connection points: 2
# Relax obj value: 0.117
# Max RMSD: 0.191
# Mean RMSD: 0.191
data_MOF--net-vcj--node1-HICVOG_clean_sbu_0--edge1-UVAHIK_clean_linker_0
_symmetry_space_group_name_H-M    P1
_symmetry_Int_Tables_number       1
_symmetry_cell_setting            triclinic
loop_
_symmetry_equiv_pos_as_xyz
'x, y, z'
_cell_length_a     44.27711
_cell_length_b     57.074611
_cell_length_c     27.731494
_cell_angle_alpha  90.01218
_cell_angle_beta   89.966927
_cell_angle_gamma 90.072399
loop_
_atom_site_label
_atom_site_type_symbol
_atom_site_fract_x
_atom_site_fract_y
_atom_site_fract_z
_atom_type_partial_charge
Zn0 Zn 0.34435 0.42201 0.25852 0.0
C1 C 0.39181 0.44872 0.15048 0.0
N2 N 0.37069 0.4655 0.15302 0.0
C3 C 0.35023 0.45616 0.18309 0.0
N4 N 0.35834 0.43457 0.198 0.0
N5 N 0.38441 0.42964 0.17683 0.0
C6 C 0.45941 0.40561 0.20928 0.0
O7 O 0.44193 0.40731 0.2474 0.0
O8 O 0.29876 0.42374 0.26378 0.0
Zn9 Zn 0.40171 0.39851 0.16806 0.0
N10 N 0.36172 0.44195 0.30775 0.0
C11 C 0.40501 0.46276 0.33517 0.0
C12 C 0.39121 0.44793 0.30197 0.0
C13 C 0.34535 0.45015 0.34576 0.0
N14 N 0.38871 0.4711 0.37287 0.0
C15 C 0.35918 0.46521 0.3795 0.0
O16 O 0.39136 0.37469 0.22056 0.0
C17 C 0.37542 0.37267 0.25868 0.0
O18 O 0.35837 0.38915 0.27332 0.0
H19 H 0.40379 0.44139 0.27144 0.0
H20 H 0.32176 0.44543 0.3488 0.0
C21 C 0.3968 0.3655 0.08685 0.0
C22 C 0.38707 0.35887 0.0403 0.0
C23 C 0.36004 0.39458 0.03373 0.0
C24 C 0.36938 0.40095 0.07975 0.0
N25 N 0.38808 0.38666 0.10524 0.0
N26 N 0.36914 0.37383 0.0151 0.0
H27 H 0.4114 0.35421 0.10777 0.0
C28 C 0.28222 0.40566 0.25894 0.0
O29 O 0.29499 0.38548 0.24888 0.0
O30 O 0.44727 0.40171 0.16849 0.0
H31 H 0.36168 0.4173 0.09472 0.0
H32 H 0.42843 0.46774 0.33088 0.0
H33 H 0.34552 0.406 1.01299 0.0
Zn34 Zn 0.1535 0.59898 0.75782 0.0
C35 C 0.10532 0.57122 0.65154 0.0
N36 N 0.12696 0.5548 0.65294 0.0
C37 C 0.1477 0.56441 0.68219 0.0
N38 N 0.13909 0.58576 0.69792 0.0
N39 N 0.1126 0.59033 0.67783 0.0
C40 C 0.0383 0.61431 0.70092 0.0
O41 O 0.05493 0.61093 0.73951 0.0
O42 O 0.19905 0.5977 0.76255 0.0
Zn43 Zn 0.09679 0.62165 0.66599 0.0
N44 N 0.13702 0.57937 0.80853 0.0
C45 C 0.09546 0.55696 0.83752 0.0
C46 C 0.10804 0.57195 0.80331 0.0
C47 C 0.15394 0.57262 0.84709 0.0
N48 N 0.11238 0.54999 0.87569 0.0
C49 C 0.14134 0.55746 0.88183 0.0
O50 O 0.10562 0.64549 0.71903 0.0
C51 C 0.12192 0.64806 0.75657 0.0
O52 O 0.13962 0.632 0.77121 0.0
H53 H 0.09492 0.57742 0.77246 0.0
H54 H 0.1771 0.57853 0.84984 0.0
C55 C 0.10563 0.65246 0.58097 0.0
C56 C 0.12024 0.65873 0.53737 0.0
C57 C 0.15177 0.62524 0.54494 0.0
C58 C 0.13756 0.6193 0.58782 0.0
N59 N 0.11459 0.63273 0.60507 0.0
N60 N 0.14284 0.64466 0.52096 0.0
H61 H 0.08733 0.66287 0.59538 0.0
C62 C 0.21542 0.61559 0.75445 0.0
O63 O 0.20245 0.6353 0.74155 0.0
O64 O 0.05139 0.61939 0.66143 0.0
H65 H 0.14509 0.60401 0.60711 0.0
H66 H 0.07249 0.55078 0.83362 0.0
H67 H 0.16994 0.61458 0.53086 0.0
Zn68 Zn 0.90378 0.12208 0.85803 0.0
C69 C 0.85138 0.06502 0.84131 0.0
N70 N 0.87215 0.05494 0.86971 0.0
C71 C 0.89362 0.07149 0.87267 0.0
N72 N 0.88608 0.09115 0.8483 0.0
N73 N 0.85962 0.08681 0.82788 0.0
C74 C 0.78257 0.11568 0.77964 0.0
O75 O 0.79542 0.13477 0.79645 0.0
O76 O 0.94911 0.11865 0.85697 0.0
Zn77 Zn 0.84461 0.10041 0.76906 0.0
N78 N 0.89049 0.1336 0.92134 0.0
C79 C 0.86328 0.12509 0.99345 0.0
C80 C 0.87245 0.11892 0.94723 0.0
C81 C 0.89867 0.15495 0.93956 0.0
N82 N 0.87185 0.14603 1.0119 0.0
C83 C 0.88909 0.16138 0.98633 0.0
O84 O 0.85798 0.13364 0.75606 0.0
C85 C 0.87622 0.14946 0.77029 0.0
O86 O 0.89348 0.14638 0.80654 0.0
H87 H 0.86514 0.10243 0.93237 0.0
H88 H 0.91272 0.16655 0.9183 0.0
C89 C 0.84327 0.07433 0.67918 0.0
C90 C 0.85564 0.05926 0.64407 0.0
C91 C 0.90193 0.05896 0.68728 0.0
C92 C 0.88958 0.07381 0.72189 0.0
N93 N 0.86053 0.08112 0.71738 0.0
N94 N 0.88471 0.05196 0.64948 0.0
H95 H 0.82004 0.08009 0.67704 0.0
C96 C 0.9608 0.11439 0.81601 0.0
O97 O 0.94295 0.11242 0.7784 0.0
O98 O 0.79911 0.09866 0.76651 0.0
H99 H 0.9029 0.07923 0.75255 0.0
H100 H 0.8493 0.11337 0.01449 0.0
H101 H 0.92497 0.05289 0.69061 0.0
Zn102 Zn 0.65408 0.9212 0.26917 0.0
C103 C 0.60576 0.94898 0.37516 0.0
N104 N 0.62649 0.96605 0.37162 0.0
C105 C 0.64719 0.95659 0.34215 0.0
N106 N 0.63952 0.93469 0.32848 0.0
N107 N 0.6136 0.92965 0.34998 0.0
C108 C 0.53879 0.90667 0.32493 0.0
O109 O 0.55524 0.91087 0.28645 0.0
O110 O 0.6996 0.9225 0.2656 0.0
Zn111 Zn 0.59743 0.89836 0.36117 0.0
N112 N 0.63829 0.94074 0.21801 0.0
C113 C 0.59647 0.96148 0.18549 0.0
C114 C 0.60894 0.94744 0.22134 0.0
C115 C 0.65586 0.94763 0.18028 0.0
N116 N 0.61394 0.96845 0.14791 0.0
C117 C 0.64349 0.96209 0.14407 0.0
O118 O 0.60695 0.87432 0.30899 0.0
C119 C 0.62252 0.87198 0.2706 0.0
O120 O 0.63965 0.88828 0.25519 0.0
H121 H 0.59539 0.94189 0.25167 0.0
H122 H 0.67896 0.9416 0.17851 0.0
C123 C 0.60437 0.86653 0.44378 0.0
C124 C 0.615 0.86067 0.49021 0.0
C125 C 0.64232 0.89643 0.49291 0.0
C126 C 0.63197 0.9021 0.44707 0.0
N127 N 0.61275 0.88739 0.42355 0.0
N128 N 0.63352 0.876 0.51343 0.0
H129 H 0.58922 0.85496 0.4245 0.0
C130 C 0.71595 0.90436 0.27028 0.0
O131 O 0.70298 0.88412 0.27942 0.0
O132 O 0.552 0.90074 0.36376 0.0
H133 H 0.63917 0.9183 0.4307 0.0
H134 H 0.5731 0.96689 0.18757 0.0
H135 H 0.65727 0.90817 0.51211 0.0
Zn136 Zn 0.59596 0.62178 0.8606 0.0
C137 C 0.6487 0.5652 0.84401 0.0
N138 N 0.62807 0.55513 0.87281 0.0
C139 C 0.60623 0.57136 0.87496 0.0
N140 N 0.61339 0.59085 0.84975 0.0
N141 N 0.63989 0.58667 0.82931 0.0
C142 C 0.71558 0.61739 0.76656 0.0
O143 O 0.7027 0.63776 0.77441 0.0
O144 O 0.55054 0.61839 0.86037 0.0
Zn145 Zn 0.65368 0.60003 0.76919 0.0
N146 N 0.60977 0.63298 0.92388 0.0
C147 C 0.63773 0.62416 0.99503 0.0
C148 C 0.62827 0.61829 0.94879 0.0
C149 C 0.60142 0.65407 0.94308 0.0
N150 N 0.62893 0.64481 0.01449 0.0
C151 C 0.61124 0.66016 0.98988 0.0
O152 O 0.63896 0.63281 0.75574 0.0
C153 C 0.62167 0.64893 0.7713 0.0
O154 O 0.60587 0.64631 0.80939 0.0
H155 H 0.63571 0.60201 0.93318 0.0
H156 H 0.587 0.6657 0.92264 0.0
C157 C 0.65519 0.57343 0.6807 0.0
C158 C 0.64286 0.5589 0.64455 0.0
C159 C 0.59582 0.55945 0.68593 0.0
C160 C 0.60828 0.57356 0.72176 0.0
N161 N 0.63762 0.58032 0.71841 0.0
N162 N 0.61331 0.55248 0.64837 0.0
H163 H 0.67829 0.57951 0.67888 0.0
C164 C 0.53854 0.61452 0.81948 0.0
O165 O 0.55614 0.61289 0.78147 0.0
O166 O 0.6992 0.59913 0.76385 0.0
H167 H 0.59471 0.57911 0.75207 0.0
H168 H 0.65208 0.61242 0.0153 0.0
H169 H 0.57245 0.55399 0.688 0.0
Zn170 Zn 0.90041 0.3983 0.35901 0.0
C171 C 0.85099 0.45646 0.34136 0.0
N172 N 0.87137 0.46572 0.37167 0.0
C173 C 0.89237 0.44884 0.3744 0.0
N174 N 0.885 0.42981 0.34789 0.0
N175 N 0.85906 0.43486 0.32653 0.0
C176 C 0.78285 0.40683 0.27491 0.0
O177 O 0.79573 0.38795 0.2925 0.0
O178 O 0.94596 0.40032 0.36404 0.0
Zn179 Zn 0.84494 0.42224 0.26627 0.0
N180 N 0.88221 0.38704 0.4194 0.0
C181 C 0.84431 0.39421 0.47854 0.0
C182 C 0.85883 0.40025 0.43598 0.0
C183 C 0.89127 0.36743 0.44381 0.0
N184 N 0.85333 0.37491 0.50285 0.0
C185 C 0.87633 0.36107 0.48707 0.0
O186 O 0.85897 0.38937 0.25157 0.0
C187 C 0.87598 0.37292 0.26647 0.0
O188 O 0.8914 0.37486 0.30513 0.0
H189 H 0.85126 0.41544 0.41639 0.0
H190 H 0.90989 0.3572 0.42993 0.0
C191 C 0.84576 0.4506 0.17917 0.0
C192 C 0.85967 0.46558 0.14535 0.0
C193 C 0.90571 0.46249 0.18885 0.0
C194 C 0.89184 0.44771 0.2221 0.0
N195 N 0.8622 0.44212 0.2168 0.0
N196 N 0.88935 0.47112 0.15154 0.0
H197 H 0.82207 0.44614 0.17646 0.0
C198 C 0.9593 0.40523 0.32466 0.0
O199 O 0.94289 0.40837 0.28576 0.0
O200 O 0.79939 0.42392 0.26186 0.0
H201 H 0.90451 0.4409 0.25226 0.0
H202 H 0.82582 0.4047 0.4921 0.0
H203 H 0.92926 0.46719 0.19278 0.0
Zn204 Zn 0.15434 0.91918 0.25582 0.0
C205 C 0.1038 0.9482 0.15337 0.0
N206 N 0.12442 0.96535 0.15701 0.0
C207 C 0.14549 0.95578 0.18563 0.0
N208 N 0.13812 0.93374 0.1987 0.0
N209 N 0.11201 0.92873 0.17773 0.0
C210 C 0.0381 0.90473 0.19977 0.0
O211 O 0.05487 0.90779 0.23833 0.0
O212 O 0.2 0.91989 0.25627 0.0
Zn213 Zn 0.09645 0.89743 0.16482 0.0
N214 N 0.13924 0.93769 0.3094 0.0
C215 C 0.09642 0.95537 0.34619 0.0
C216 C 0.10917 0.94233 0.30899 0.0
C217 C 0.15727 0.94576 0.34558 0.0
N218 N 0.1143 0.96334 0.38237 0.0
C219 C 0.14456 0.95905 0.38339 0.0
O220 O 0.10517 0.87313 0.21697 0.0
C221 C 0.12212 0.87017 0.25362 0.0
O222 O 0.14036 0.88599 0.26782 0.0
H223 H 0.09525 0.9359 0.27987 0.0
H224 H 0.18101 0.94151 0.34506 0.0
C225 C 0.10589 0.86693 0.08002 0.0
C226 C 0.12041 0.86088 0.03624 0.0
C227 C 0.1505 0.89529 0.04258 0.0
C228 C 0.13641 0.90099 0.0857 0.0
N229 N 0.11421 0.88697 0.10363 0.0
N230 N 0.14225 0.87551 0.01913 0.0
H231 H 0.08815 0.85612 0.09504 0.0
C232 C 0.21402 0.9086 0.28881 0.0
O233 O 0.19836 0.89658 0.32061 0.0
O234 O 0.05105 0.89971 0.16015 0.0
H235 H 0.14337 0.91658 0.10463 0.0
H236 H 0.07248 0.95913 0.34637 0.0
H237 H 0.16805 0.90641 0.02793 0.0
Zn238 Zn 0.40281 0.12219 0.66841 0.0
C239 C 0.35222 0.06413 0.68438 0.0
N240 N 0.373 0.05468 0.65507 0.0
C241 C 0.39397 0.07162 0.65235 0.0
N242 N 0.38612 0.09089 0.67772 0.0
N243 N 0.35999 0.0859 0.69861 0.0
C244 C 0.28368 0.11449 0.74862 0.0
O245 O 0.29679 0.1336 0.73246 0.0
O246 O 0.44824 0.11945 0.66921 0.0
Zn247 Zn 0.34544 0.09851 0.75858 0.0
N248 N 0.38909 0.13377 0.6054 0.0
C249 C 0.36172 0.12511 0.53356 0.0
C250 C 0.37108 0.119 0.57969 0.0
C251 C 0.39711 0.15512 0.58705 0.0
N252 N 0.37014 0.14606 0.51497 0.0
C253 C 0.38739 0.16147 0.54034 0.0
O254 O 0.35961 0.13125 0.77396 0.0
C255 C 0.37655 0.14781 0.75922 0.0
O256 O 0.39231 0.14593 0.72089 0.0
H257 H 0.36398 0.10246 0.59459 0.0
H258 H 0.4112 0.16677 0.60811 0.0
C259 C 0.34383 0.07163 0.84711 0.0
C260 C 0.35577 0.056 0.88148 0.0
C261 C 0.40162 0.05466 0.83703 0.0
C262 C 0.38969 0.07011 0.80321 0.0
N263 N 0.36104 0.07819 0.80869 0.0
N264 N 0.38441 0.04789 0.87509 0.0
H265 H 0.32093 0.07807 0.85005 0.0
C266 C 0.45987 0.11442 0.70983 0.0
O267 O 0.44189 0.11124 0.74697 0.0
O268 O 0.29997 0.09723 0.7612 0.0
H269 H 0.40302 0.07543 0.77245 0.0
H270 H 0.34775 0.11333 0.51266 0.0
H271 H 0.42432 0.04795 0.83295 0.0
C272 C 0.31734 0.49076 0.19103 0.0
C273 C 0.31981 0.46635 0.18661 0.0
C274 C 0.29209 0.50241 0.17284 0.0
C275 C 0.21738 0.49578 0.11276 0.0
H276 H 0.2511 0.54139 0.02407 0.0
C277 C 0.15404 0.5261 0.94143 0.0
C278 C 0.15883 0.54891 0.92396 0.0
C279 C 0.17044 0.51765 0.98084 0.0
C280 C 0.24096 0.52916 0.04915 0.0
H281 H 0.29671 0.43473 0.16434 0.0
H282 H 0.25234 0.45502 0.13301 0.0
H283 H 0.28293 0.52424 0.0855 0.0
H284 H 0.18349 0.58123 0.93596 0.0
H285 H 0.21158 0.56678 1.00529 0.0
H286 H 0.17537 0.50058 0.07577 0.0
C287 C 0.26974 0.46521 0.15075 0.0
C288 C 0.25931 0.51928 0.08458 0.0
C289 C 0.29504 0.45353 0.16918 0.0
C290 C 0.17981 0.56336 0.94768 0.0
C291 C 0.19591 0.55503 0.98756 0.0
C292 C 0.19882 0.50591 0.07751 0.0
C293 C 0.26903 0.48986 0.14943 0.0
C294 C 0.24792 0.50224 0.11641 0.0
C295 C 0.19174 0.53194 1.00437 0.0
C296 C 0.21052 0.52247 0.04466 0.0
H297 H 0.33627 0.50102 0.20401 0.0
H298 H 0.29188 0.52139 0.1733 0.0
H299 H 0.20794 0.48273 0.1368 0.0
H300 H 0.13804 0.51452 0.92389 0.0
H301 H 0.16689 0.49968 0.992 0.0
C302 C 0.1834 0.53116 0.68033 0.0
C303 C 0.17887 0.55546 0.68214 0.0
C304 C 0.20998 0.52195 0.66097 0.0
C305 C 0.26507 0.54008 0.56896 0.0
H306 H 0.29497 0.47687 0.58705 0.0
C307 C 0.35046 0.49781 0.43805 0.0
C308 C 0.34251 0.47544 0.42096 0.0
C309 C 0.33509 0.50787 0.47687 0.0
C310 C 0.2868 0.49456 0.58163 0.0
H311 H 0.19937 0.58922 0.66821 0.0
H312 H 0.24677 0.57329 0.63813 0.0
H313 H 0.26281 0.49462 0.6487 0.0
H314 H 0.31291 0.44565 0.43294 0.0
H315 H 0.28593 0.46334 0.50064 0.0
H316 H 0.28882 0.5399 0.50176 0.0
C317 C 0.2295 0.56122 0.65034 0.0
C318 C 0.26839 0.50476 0.61693 0.0
C319 C 0.20264 0.57042 0.66896 0.0
C320 C 0.31924 0.4631 0.44445 0.0
C321 C 0.30406 0.47309 0.4837 0.0
C322 C 0.28374 0.53 0.53409 0.0
C323 C 0.23269 0.53691 0.64313 0.0
C324 C 0.25661 0.52746 0.61049 0.0
C325 C 0.31165 0.49567 0.50002 0.0
C326 C 0.29422 0.50694 0.53946 0.0
H327 H 0.16518 0.51927 0.68952 0.0
H328 H 0.21133 0.50317 0.65596 0.0
H329 H 0.25602 0.55735 0.56187 0.0
H330 H 0.36832 0.50777 0.42089 0.0
H331 H 0.34157 0.52523 0.48883 0.0
C332 C 0.81647 0.03158 0.83147 0.0
C333 C 0.82049 0.05563 0.83946 0.0
C334 C 0.79097 0.02008 0.84948 0.0
C335 C 0.75821 0.99951 0.93409 0.0
H336 H 0.67952 0.02548 0.96357 0.0
C337 C 0.69298 0.9735 0.10498 0.0
C338 C 0.66146 0.97064 0.10215 0.0
C339 C 0.70926 0.98233 0.06577 0.0
C340 C 0.70127 0.01781 0.95524 0.0
H341 H 0.80004 0.08697 0.86864 0.0
H342 H 0.75565 0.06706 0.9004 0.0
H343 H 0.71057 0.04349 0.90072 0.0
H344 H 0.62251 0.97502 0.05551 0.0
H345 H 0.65102 0.99036 0.98719 0.0
H346 H 0.74919 0.97403 0.98873 0.0
C347 C 0.77173 0.05696 0.87961 0.0
C348 C 0.71914 0.02823 0.91943 0.0
C349 C 0.79711 0.06849 0.86102 0.0
C350 C 0.64674 0.97698 0.05909 0.0
C351 C 0.66305 0.98585 0.01989 0.0
C352 C 0.74041 0.98913 0.96972 0.0
C353 C 0.76939 0.03238 0.87683 0.0
C354 C 0.74812 0.01948 0.90904 0.0
C355 C 0.69452 0.98863 0.02275 0.0
C356 C 0.71203 0.99845 0.98157 0.0
H357 H 0.83436 0.02129 0.81527 0.0
H358 H 0.78946 1.00125 0.84541 0.0
H359 H 0.78056 0.99244 0.9279 0.0
H360 H 0.70515 0.96957 0.1378 0.0
H361 H 0.73341 0.98474 0.06961 0.0
C362 C 0.67998 0.99135 0.33444 0.0
C363 C 0.67758 0.96694 0.33904 0.0
C364 C 0.70503 1.00318 0.353 0.0
C365 C 0.77955 0.99711 0.41366 0.0
H366 H 0.7453 0.04245 0.50235 0.0
C367 C 0.84273 0.02779 0.5848 0.0
C368 C 0.83783 0.05057 0.60236 0.0
C369 C 0.82625 0.01924 0.54555 0.0
C370 C 0.75558 0.0303 0.47727 0.0
H371 H 0.70068 0.9355 0.36216 0.0
H372 H 0.74478 0.95608 0.39386 0.0
H373 H 0.71371 0.02508 0.44071 0.0
H374 H 0.81276 0.08268 0.59085 0.0
H375 H 0.78451 0.06806 0.52174 0.0
H376 H 0.82146 1.00222 0.45073 0.0
C377 C 0.72744 0.96614 0.37575 0.0
C378 C 0.73737 0.02029 0.44174 0.0
C379 C 0.7023 0.95428 0.35706 0.0
C380 C 0.81656 0.06484 0.57901 0.0
C381 C 0.80036 0.05641 0.53927 0.0
C382 C 0.79797 1.00737 0.44898 0.0
C383 C 0.72802 0.99079 0.37682 0.0
C384 C 0.74896 1.00334 0.40993 0.0
C385 C 0.80474 0.03339 0.52224 0.0
C386 C 0.78608 0.02382 0.48186 0.0
H387 H 0.66108 1.00148 0.32106 0.0
H388 H 0.70515 0.02216 0.35241 0.0
H389 H 0.78913 0.98413 0.38963 0.0
H390 H 0.85893 0.01633 0.60208 0.0
H391 H 0.82995 1.00131 0.5343 0.0
C392 C 0.68463 0.53209 0.84495 0.0
C393 C 0.67996 0.55639 0.84344 0.0
C394 C 0.71129 0.52292 0.86401 0.0
C395 C 0.76631 0.54107 0.956 0.0
H396 H 0.79602 0.4778 0.93794 0.0
C397 C 0.85117 0.49837 0.08721 0.0
C398 C 0.843 0.47601 0.10416 0.0
C399 C 0.83593 0.50855 0.04843 0.0
C400 C 0.78792 0.49551 0.94335 0.0
H401 H 0.70044 0.59018 0.8571 0.0
H402 H 0.74795 0.57432 0.88685 0.0
H403 H 0.76413 0.49564 0.87615 0.0
H404 H 0.81313 0.44641 0.09206 0.0
H405 H 0.7864 0.46431 0.02438 0.0
H406 H 0.78987 0.54082 0.02333 0.0
C407 C 0.73069 0.56223 0.87472 0.0
C408 C 0.76965 0.50576 0.90797 0.0
C409 C 0.70374 0.57139 0.85634 0.0
C410 C 0.81962 0.46384 0.08064 0.0
C411 C 0.80459 0.47395 0.04141 0.0
C412 C 0.78485 0.53094 0.99095 0.0
C413 C 0.73396 0.53791 0.88183 0.0
C414 C 0.7579 0.52848 0.91441 0.0
C415 C 0.81243 0.49649 0.02517 0.0
C416 C 0.79523 0.50785 0.98561 0.0
H417 H 0.66644 0.52016 0.83584 0.0
H418 H 0.71271 0.50414 0.86889 0.0
H419 H 0.7573 0.55835 0.96309 0.0
H420 H 0.86912 0.5082 0.10441 0.0
H421 H 0.84259 0.52589 0.03655 0.0
C422 C 0.79647 0.45328 0.35941 0.0
C423 C 0.82029 0.46617 0.33907 0.0
C424 C 0.77122 0.46484 0.3783 0.0
C425 C 0.719 0.49355 0.41911 0.0
H426 H 0.74933 0.547 0.49073 0.0
C427 C 0.64633 0.54414 0.55943 0.0
C428 C 0.66091 0.55035 0.60273 0.0
C429 C 0.66276 0.53537 0.52027 0.0
C430 C 0.74046 0.5321 0.47111 0.0
H431 H 0.83507 0.50066 0.31717 0.0
H432 H 0.79036 0.52078 0.34755 0.0
H433 H 0.78084 0.52888 0.42983 0.0
H434 H 0.70445 0.55122 0.63886 0.0
H435 H 0.7329 0.53617 0.57082 0.0
H436 H 0.67914 0.49619 0.46274 0.0
C437 C 0.79145 0.50188 0.35062 0.0
C438 C 0.75836 0.52189 0.4354 0.0
C439 C 0.81684 0.49036 0.33241 0.0
C440 C 0.69239 0.5474 0.60585 0.0
C441 C 0.70879 0.53865 0.56671 0.0
C442 C 0.70104 0.5038 0.45503 0.0
C443 C 0.76943 0.48948 0.37692 0.0
C444 C 0.74816 0.5022 0.40946 0.0
C445 C 0.69421 0.53253 0.52341 0.0
C446 C 0.71188 0.52288 0.4822 0.0
H447 H 0.79895 0.43467 0.36599 0.0
H448 H 0.7548 0.45464 0.39822 0.0
H449 H 0.71031 0.47852 0.3997 0.0
H450 H 0.62213 0.54617 0.55564 0.0
H451 H 0.65084 0.53101 0.48737 0.0
C452 C 0.34198 0.02466 0.94055 0.0
C453 C 0.33794 0.04762 0.92345 0.0
C454 C 0.32536 0.01638 0.97991 0.0
C455 C 0.25543 0.02881 0.04909 0.0
H456 H 0.28751 0.98159 0.13563 0.0
C457 C 0.17886 0.99033 0.19189 0.0
C458 C 0.17603 0.96595 0.1873 0.0
C459 C 0.20401 1.00192 0.17295 0.0
C460 C 0.27834 0.99487 0.1119 0.0
H461 H 0.31433 0.08032 0.936 0.0
H462 H 0.28581 0.06612 1.00523 0.0
H463 H 0.32035 0.99926 0.07466 0.0
H464 H 0.19831 0.93433 0.16309 0.0
H465 H 0.24256 0.95445 0.13087 0.0
H466 H 0.21343 0.02428 0.08578 0.0
C467 C 0.30109 0.05417 0.98726 0.0
C468 C 0.29705 1.00489 0.07668 0.0
C469 C 0.31743 0.06235 0.94744 0.0
C470 C 0.20031 0.95308 0.1684 0.0
C471 C 0.22554 0.96468 0.14939 0.0
C472 C 0.23691 0.01902 0.08452 0.0
C473 C 0.30457 0.03097 1.00377 0.0
C474 C 0.28567 0.0217 0.04417 0.0
C475 C 0.22667 0.98931 0.14872 0.0
C476 C 0.24796 1.00168 0.11589 0.0
H477 H 0.35758 0.01286 0.92279 0.0
H478 H 0.32834 0.99832 0.99079 0.0
H479 H 0.24554 0.04128 0.02431 0.0
H480 H 0.16026 1.00064 0.20583 0.0
H481 H 0.20452 0.02089 0.17378 0.0
C482 C 0.31845 0.02995 0.69325 0.0
C483 C 0.32163 0.05417 0.68663 0.0
C484 C 0.29322 0.01821 0.67504 0.0
C485 C 0.26077 0.99843 0.58935 0.0
H486 H 0.1804 0.0224 0.56475 0.0
C487 C 0.19395 0.97272 0.41982 0.0
C488 C 0.1628 0.96831 0.42437 0.0
C489 C 0.21044 0.98182 0.45853 0.0
C490 C 0.20265 0.01531 0.57167 0.0
H491 H 0.29991 0.0855 0.65986 0.0
H492 H 0.2559 0.06515 0.62789 0.0
H493 H 0.21149 0.04034 0.62769 0.0
H494 H 0.12471 0.97037 0.47357 0.0
H495 H 0.15357 0.98626 0.54088 0.0
H496 H 0.25224 0.97365 0.53314 0.0
C497 C 0.27249 0.0551 0.6477 0.0
C498 C 0.22052 0.02568 0.60755 0.0
C499 C 0.29764 0.06686 0.66644 0.0
C500 C 0.14863 0.97353 0.46859 0.0
C501 C 0.16513 0.9827 0.50724 0.0
C502 C 0.243 0.98814 0.55359 0.0
C503 C 0.27103 0.03046 0.64894 0.0
C504 C 0.25002 0.0176 0.61629 0.0
C505 C 0.19626 0.9869 0.50272 0.0
C506 C 0.21398 0.99674 0.54358 0.0
H507 H 0.33681 0.01979 0.70838 0.0
H508 H 0.29237 0.99929 0.67786 0.0
H509 H 0.28353 0.99194 0.59427 0.0
H510 H 0.20567 0.96971 0.38615 0.0
H511 H 0.23428 0.98533 0.45348 0.0
C512 C 0.44602 0.45781 0.1387 0.0
C513 C 0.4181 0.45149 0.11871 0.0
C514 C 0.46746 0.46977 0.11077 0.0
C515 C 0.46766 0.51044 1.00752 0.0
H516 H 0.55466 0.50664 0.01908 0.0
C517 C 0.5521 0.56156 0.88595 0.0
C518 C 0.57988 0.56795 0.90638 0.0
C519 C 0.53069 0.54929 0.91338 0.0
C520 C 0.53037 0.50819 0.01602 0.0
H521 H 0.39124 0.45127 0.05361 0.0
H522 H 0.42898 0.47114 1.00427 0.0
H523 H 0.52308 0.47808 0.06073 0.0
H524 H 0.60651 0.5679 0.97172 0.0
H525 H 0.56881 0.54752 0.02019 0.0
H526 H 0.47495 0.54057 0.96285 0.0
C527 C 0.43429 0.46735 0.04158 0.0
C528 C 0.51228 0.49169 0.03971 0.0
C529 C 0.41291 0.45553 0.06953 0.0
C530 C 0.58495 0.5636 0.95548 0.0
C531 C 0.5636 0.55149 0.98292 0.0
C532 C 0.48575 0.52694 0.98383 0.0
C533 C 0.46113 0.47573 0.06251 0.0
C534 C 0.48069 0.49257 0.03573 0.0
C535 C 0.53691 0.5431 0.96156 0.0
C536 C 0.51734 0.52609 0.9879 0.0
H537 H 0.45008 0.45557 0.17695 0.0
H538 H 0.48784 0.476 0.12814 0.0
H539 H 0.44336 0.512 1.0045 0.0
H540 H 0.54813 0.56405 0.84775 0.0
H541 H 0.51041 0.54307 0.8957 0.0
C542 C 0.94652 0.45801 0.38549 0.0
C543 C 0.91875 0.45159 0.40591 0.0
C544 C 0.96806 0.46999 0.4131 0.0
C545 C 0.9928 0.51292 0.46457 0.0
H546 H 0.00899 0.5037 0.60055 0.0
C547 C 0.08328 0.56431 0.57125 0.0
C548 C 0.0787 0.56818 0.62065 0.0
C549 C 0.0617 0.55234 0.54395 0.0
C550 C 0.00425 0.50678 0.56277 0.0
H551 H 0.89218 0.45131 0.47129 0.0
H552 H 0.92975 0.47179 0.51983 0.0
H553 H 0.97936 0.47469 0.55656 0.0
H554 H 0.04755 0.56371 0.67998 0.0
H555 H 0.00909 0.54353 0.63199 0.0
H556 H 0.01761 0.54502 0.47076 0.0
C557 C 0.93529 0.46748 0.48283 0.0
C558 C 0.98748 0.49 0.53745 0.0
C559 C 0.9138 0.45558 0.45518 0.0
C560 C 0.05117 0.56154 0.6416 0.0
C561 C 0.0295 0.54951 0.61431 0.0
C562 C 0.00953 0.5297 0.48989 0.0
C563 C 0.96202 0.47588 0.4615 0.0
C564 C 0.98158 0.49283 0.48799 0.0
C565 C 0.03519 0.54377 0.56572 0.0
C566 C 0.0155 0.52686 0.53934 0.0
H567 H 0.95043 0.45575 0.3472 0.0
H568 H 0.98866 0.47585 0.39579 0.0
H569 H 0.98807 0.51598 0.42678 0.0
H570 H 0.10472 0.56877 0.5547 0.0
H571 H 0.06699 0.54816 0.5068 0.0
C572 C 0.05008 0.95815 0.14049 0.0
C573 C 0.07775 0.9508 0.12114 0.0
C574 C 0.02916 0.96999 0.11155 0.0
C575 C 0.98523 0.99148 0.03905 0.0
H576 H 0.02424 0.03862 0.95951 0.0
C577 C 0.91507 0.06416 0.95315 0.0
C578 C 0.92005 0.06807 0.90385 0.0
C579 C 0.93611 0.05182 0.98065 0.0
C580 C 0.01297 0.02548 0.98122 0.0
H581 H 0.1047 0.94867 0.05628 0.0
H582 H 0.06785 0.96856 1.00518 0.0
H583 H 0.05482 1.00981 1.00221 0.0
H584 H 0.95137 0.06313 0.84494 0.0
H585 H 0.98852 0.04169 0.89297 0.0
H586 H 0.9434 1.00714 0.01817 0.0
C587 C 0.06234 0.96556 0.04274 0.0
C588 C 0.03048 1.00883 1.00551 0.0
C589 C 0.08318 0.95375 0.07169 0.0
C590 C 0.94749 0.06098 0.88327 0.0
C591 C 0.96858 0.04845 0.91076 0.0
C592 C 0.96774 1.00811 0.01476 0.0
C593 C 0.03578 0.97489 0.06286 0.0
C594 C 0.01684 0.99164 0.03483 0.0
C595 C 0.96237 0.0427 0.95919 0.0
C596 C 0.98137 0.02543 0.98577 0.0
H597 H 0.04587 0.95673 0.17887 0.0
H598 H 0.00901 0.97698 0.12835 0.0
H599 H 0.97396 0.97839 0.06088 0.0
H600 H 0.89373 0.06894 0.96955 0.0
H601 H 0.93093 0.04822 0.0181 0.0
C602 C 0.4482 0.06248 0.64211 0.0
C603 C 0.42055 0.06881 0.62129 0.0
C604 C 0.4699 0.05051 0.61483 0.0
C605 C 0.4898 0.03046 0.49071 0.0
H606 H 0.51909 0.97525 0.55739 0.0
C607 C 0.55178 0.95853 0.38616 0.0
C608 C 0.57937 0.9518 0.40661 0.0
C609 C 0.53037 0.97058 0.41383 0.0
C610 C 0.51123 0.99062 0.53829 0.0
H611 H 0.39431 0.06878 0.55557 0.0
H612 H 0.43216 0.04846 0.50767 0.0
H613 H 0.48991 1.00449 0.6014 0.0
H614 H 0.60584 0.95125 0.47207 0.0
H615 H 0.56853 0.97185 0.52066 0.0
H616 H 0.51109 0.01661 0.42761 0.0
C617 C 0.43751 0.05285 0.54469 0.0
C618 C 0.49473 1.00751 0.56362 0.0
C619 C 0.41586 0.06469 0.572 0.0
C620 C 0.5843 0.95565 0.45593 0.0
C621 C 0.56297 0.96766 0.48363 0.0
C622 C 0.5063 0.01358 0.4654 0.0
C623 C 0.46414 0.04457 0.56638 0.0
C624 C 0.48377 0.02765 0.54014 0.0
C625 C 0.53643 0.97631 0.46229 0.0
C626 C 0.51717 0.9934 0.48881 0.0
H627 H 0.45188 0.0648 0.68044 0.0
H628 H 0.4904 0.04469 0.63243 0.0
H629 H 0.4819 0.04582 0.47159 0.0
H630 H 0.54793 0.95645 0.34781 0.0
H631 H 0.50992 0.97666 0.3965 0.0
C632 C 0.39304 0.18969 0.77152 0.0
C633 C 0.37935 0.16923 0.78946 0.0
C634 C 0.39646 0.20949 0.80096 0.0
C635 C 0.3687 0.23581 0.91644 0.0
H636 H 0.43827 0.27637 0.90015 0.0
C637 C 0.39103 0.3149 0.04257 0.0
C638 C 0.39482 0.33614 0.01766 0.0
C639 C 0.39264 0.29349 0.01778 0.0
C640 C 0.41875 0.26517 0.90516 0.0
H641 H 0.35891 0.15354 0.85287 0.0
H642 H 0.36568 0.18754 0.90429 0.0
H643 H 0.43331 0.24131 0.85037 0.0
H644 H 0.40478 0.35162 0.94814 0.0
H645 H 0.40846 0.31438 0.90534 0.0
H646 H 0.35442 0.25966 0.97164 0.0
C647 C 0.37302 0.1887 0.86713 0.0
C648 C 0.41572 0.24514 0.87631 0.0
C649 C 0.36924 0.16907 0.83756 0.0
C650 C 0.40189 0.3355 0.96827 0.0
C651 C 0.40406 0.31417 0.94377 0.0
C652 C 0.37197 0.25564 0.9457 0.0
C653 C 0.38665 0.20926 0.84935 0.0
C654 C 0.39045 0.23029 0.88111 0.0
C655 C 0.3986 0.29295 0.96789 0.0
C656 C 0.39684 0.27069 0.94003 0.0
H657 H 0.401 0.19046 0.73461 0.0
H658 H 0.40654 0.22506 0.7855 0.0
H659 H 0.34863 0.22518 0.92082 0.0
H660 H 0.38514 0.31488 0.08048 0.0
H661 H 0.38849 0.27738 0.03733 0.0
C662 C 0.09442 0.83343 0.27834 0.0
C663 C 0.11985 0.84815 0.28211 0.0
C664 C 0.09188 0.81329 0.30707 0.0
C665 C 0.13777 0.7703 0.3722 0.0
H666 H 0.0644 0.75541 0.44253 0.0
C667 C 0.12061 0.68044 0.45921 0.0
C668 C 0.11292 0.68007 0.5085 0.0
C669 C 0.11854 0.70099 0.43225 0.0
C670 C 0.08503 0.75942 0.4232 0.0
H671 H 0.16268 0.85296 0.31883 0.0
H672 H 0.1585 0.81768 0.36793 0.0
H673 H 0.06701 0.79129 0.39361 0.0
H674 H 0.09551 0.70131 0.56724 0.0
H675 H 0.09126 0.73729 0.51937 0.0
H676 H 0.15577 0.73848 0.40108 0.0
C677 C 0.14044 0.8218 0.343 0.0
C678 C 0.08646 0.77982 0.39494 0.0
C679 C 0.14278 0.84207 0.3149 0.0
C680 C 0.10138 0.70072 0.52938 0.0
C681 C 0.09906 0.72141 0.50202 0.0
C682 C 0.13619 0.74983 0.39972 0.0
C683 C 0.11494 0.80721 0.3396 0.0
C684 C 0.11291 0.78549 0.36923 0.0
C685 C 0.10849 0.72187 0.45352 0.0
C686 C 0.10983 0.7441 0.42548 0.0
H687 H 0.07625 0.83766 0.2537 0.0
H688 H 0.07207 0.80228 0.30336 0.0
H689 H 0.15839 0.77408 0.35264 0.0
H690 H 0.12913 0.66488 0.44147 0.0
H691 H 0.12542 0.70066 0.39475 0.0
C692 C 0.89204 0.20545 0.98389 0.0
C693 C 0.89629 0.18429 1.00886 0.0
C694 C 0.89329 0.22692 1.00856 0.0
C695 C 0.91927 0.25564 0.12096 0.0
H696 H 0.84895 0.29523 0.10501 0.0
C697 C 0.89297 0.33117 0.2542 0.0
C698 C 0.87914 0.35153 0.23619 0.0
C699 C 0.89658 0.31137 0.22482 0.0
C700 C 0.86907 0.2847 0.10947 0.0
H701 H 0.90667 0.16904 0.07842 0.0
H702 H 0.90971 0.20637 0.12099 0.0
H703 H 0.85495 0.26067 0.05447 0.0
H704 H 0.85865 0.36702 0.17269 0.0
H705 H 0.86574 0.33302 0.12139 0.0
H706 H 0.93366 0.27967 0.17557 0.0
C707 C 0.90522 0.20648 0.08259 0.0
C708 C 0.87246 0.26483 0.08037 0.0
C709 C 0.90342 0.18509 0.05822 0.0
C710 C 0.8691 0.35158 0.18806 0.0
C711 C 0.87306 0.33194 0.15856 0.0
C712 C 0.91611 0.2757 0.14966 0.0
C713 C 0.89936 0.22761 0.0584 0.0
C714 C 0.89741 0.24991 0.08615 0.0
C715 C 0.88681 0.31148 0.17643 0.0
C716 C 0.89076 0.29041 0.14477 0.0
H717 H 0.88609 0.20534 0.94601 0.0
H718 H 0.88884 0.24294 0.98893 0.0
H719 H 0.93886 0.24456 0.12604 0.0
H720 H 0.90088 0.33047 0.29113 0.0
H721 H 0.90676 0.29588 0.24035 0.0
C722 C 0.62937 0.67167 0.69474 0.0
C723 C 0.6188 0.67084 0.74261 0.0
C724 C 0.62581 0.69189 0.66682 0.0
C725 C 0.61702 0.75543 0.67562 0.0
H726 H 0.58716 0.75125 0.54444 0.0
C727 C 0.59955 0.83904 0.5641 0.0
C728 C 0.60723 0.83848 0.51502 0.0
C729 C 0.59718 0.81834 0.59073 0.0
C730 C 0.59589 0.75277 0.58076 0.0
H731 H 0.59641 0.69085 0.79866 0.0
H732 H 0.5908 0.72639 0.75007 0.0
H733 H 0.59141 0.71582 0.59335 0.0
H734 H 0.61783 0.8158 0.45485 0.0
H735 H 0.61473 0.77952 0.50154 0.0
H736 H 0.62276 0.79204 0.66301 0.0
C737 C 0.60168 0.71124 0.7342 0.0
C738 C 0.5982 0.73243 0.60886 0.0
C739 C 0.60483 0.69087 0.76198 0.0
C740 C 0.61142 0.81669 0.49251 0.0
C741 C 0.60964 0.7959 0.51944 0.0
C742 C 0.61514 0.77569 0.6474 0.0
C743 C 0.61197 0.71192 0.6862 0.0
C744 C 0.6088 0.73355 0.65661 0.0
C745 C 0.60323 0.79648 0.5693 0.0
C746 C 0.60448 0.77473 0.59951 0.0
H747 H 0.64013 0.65657 0.6785 0.0
H748 H 0.63426 0.69195 0.63015 0.0
H749 H 0.6257 0.75682 0.71203 0.0
H750 H 0.59607 0.85563 0.58228 0.0
H751 H 0.59123 0.81961 0.62851 0.0
C752 C 0.60954 0.70421 0.99101 0.0
C753 C 0.60369 0.68266 1.0136 0.0
C754 C 0.60836 0.72516 0.01755 0.0
C755 C 0.613 0.74551 0.1454 0.0
H756 H 0.59313 0.80597 0.09047 0.0
C757 C 0.60498 0.83025 0.26026 0.0
C758 C 0.61954 0.85019 0.24149 0.0
C759 C 0.60155 0.81001 0.23212 0.0
C760 C 0.59888 0.7892 0.10622 0.0
H761 H 0.59018 0.66617 0.08047 0.0
H762 H 0.58643 0.70251 0.12592 0.0
H763 H 0.58786 0.77065 0.04138 0.0
H764 H 0.64173 0.86439 0.17804 0.0
H765 H 0.63548 0.82921 0.12907 0.0
H766 H 0.62361 0.76409 0.21038 0.0
C767 C 0.59317 0.70343 0.08843 0.0
C768 C 0.59595 0.76891 0.07804 0.0
C769 C 0.5949 0.68256 0.06223 0.0
C770 C 0.6305 0.84937 0.19384 0.0
C771 C 0.62671 0.82926 0.16555 0.0
C772 C 0.61555 0.76572 0.17366 0.0
C773 C 0.60097 0.72498 0.06708 0.0
C774 C 0.60306 0.74674 0.09716 0.0
C775 C 0.61223 0.80934 0.18433 0.0
C776 C 0.60868 0.78782 0.15439 0.0
H777 H 0.61683 0.70474 0.95374 0.0
H778 H 0.61474 0.7413 0.99974 0.0
H779 H 0.61951 0.72895 0.1613 0.0
H780 H 0.59623 0.83024 0.29675 0.0
H781 H 0.59014 0.79498 0.24755 0.0
C782 C 0.87583 0.3395 0.56538 0.0
C783 C 0.88377 0.33984 0.5162 0.0
C784 C 0.87804 0.319 0.59251 0.0
C785 C 0.91215 0.26071 0.6018 0.0
H786 H 0.83899 0.24581 0.67268 0.0
C787 C 0.90357 0.18638 0.74589 0.0
C788 C 0.87817 0.17162 0.74225 0.0
C789 C 0.90587 0.20663 0.71744 0.0
C790 C 0.85956 0.24966 0.65302 0.0
H791 H 0.90171 0.31865 0.4578 0.0
H792 H 0.90616 0.28277 0.50593 0.0
H793 H 0.84135 0.28143 0.62428 0.0
H794 H 0.83513 0.16684 0.70615 0.0
H795 H 0.83892 0.20231 0.65749 0.0
H796 H 0.93037 0.22887 0.63116 0.0
C797 C 0.89809 0.29862 0.5231 0.0
C798 C 0.86099 0.27015 0.62553 0.0
C799 C 0.89566 0.31924 0.49559 0.0
C800 C 0.85501 0.17778 0.70995 0.0
C801 C 0.85712 0.19815 0.68211 0.0
C802 C 0.91087 0.24029 0.62999 0.0
C803 C 0.88844 0.29817 0.57149 0.0
C804 C 0.88728 0.27596 0.59965 0.0
C805 C 0.88262 0.21276 0.68532 0.0
C806 C 0.88449 0.23453 0.65581 0.0
H807 H 0.86702 0.35502 0.58289 0.0
H808 H 0.87099 0.31935 0.62992 0.0
H809 H 0.93273 0.26478 0.58236 0.0
H810 H 0.9219 0.1821 0.77017 0.0
H811 H 0.92567 0.21765 0.72101 0.0
C812 C 0.09478 0.68508 0.7805 0.0
C813 C 0.11976 0.67002 0.78518 0.0
C814 C 0.09243 0.7053 0.80903 0.0
C815 C 0.13868 0.7478 0.87483 0.0
H816 H 0.06495 0.76394 0.94285 0.0
C817 C 0.12202 0.83842 0.95894 0.0
C818 C 0.11375 0.83918 1.00799 0.0
C819 C 0.12011 0.81766 0.93258 0.0
C820 C 0.08568 0.75957 0.92417 0.0
H821 H 0.16197 0.66462 0.8233 0.0
H822 H 0.15813 0.70004 0.87208 0.0
H823 H 0.06721 0.72779 0.89474 0.0
H824 H 0.09569 0.81833 0.06691 0.0
H825 H 0.09168 0.78206 0.02004 0.0
H826 H 0.15711 0.77957 0.90349 0.0
C827 C 0.14028 0.69613 0.84661 0.0
C828 C 0.08691 0.73902 0.89638 0.0
C829 C 0.14242 0.67579 0.81871 0.0
C830 C 0.10198 0.81866 0.02922 0.0
C831 C 0.09979 0.7978 1.00244 0.0
C832 C 0.1373 0.76843 0.90187 0.0
C833 C 0.11525 0.71109 0.84223 0.0
C834 C 0.11348 0.73292 0.87149 0.0
C835 C 0.10963 0.79699 0.9542 0.0
C836 C 0.1108 0.7746 0.92677 0.0
H837 H 0.07683 0.6811 0.75525 0.0
H838 H 0.073 0.7166 0.80459 0.0
H839 H 0.1594 0.74366 0.85588 0.0
H840 H 0.13076 0.85383 0.94088 0.0
H841 H 0.12735 0.8177 0.89524 0.0
C842 C 0.3922 0.33088 0.27109 0.0
C843 C 0.37812 0.3512 0.28883 0.0
C844 C 0.39556 0.31106 0.30049 0.0
C845 C 0.36717 0.28433 0.41536 0.0
H846 H 0.43736 0.24445 0.40029 0.0
C847 C 0.39005 0.20556 0.54223 0.0
C848 C 0.39453 0.18433 0.51757 0.0
C849 C 0.39126 0.22695 0.51729 0.0
C850 C 0.41765 0.25546 0.40495 0.0
H851 H 0.35686 0.36659 0.35183 0.0
H852 H 0.36351 0.33258 0.40317 0.0
H853 H 0.43229 0.27945 0.35043 0.0
H854 H 0.40526 0.1689 0.4483 0.0
H855 H 0.40827 0.20611 0.40527 0.0
H856 H 0.35283 0.26036 0.47034 0.0
C857 C 0.37123 0.33153 0.36619 0.0
C858 C 0.41457 0.27545 0.37605 0.0
C859 C 0.36752 0.35118 0.33667 0.0
C860 C 0.40184 0.18501 0.46826 0.0
C861 C 0.40362 0.20632 0.44363 0.0
C862 C 0.37049 0.26453 0.44468 0.0
C863 C 0.38528 0.31112 0.34864 0.0
C864 C 0.38909 0.29008 0.3804 0.0
C865 C 0.39753 0.22751 0.4675 0.0
C866 C 0.39559 0.24972 0.43946 0.0
H867 H 0.40054 0.33023 0.23439 0.0
H868 H 0.40598 0.2956 0.28517 0.0
H869 H 0.34694 0.29478 0.41941 0.0
H870 H 0.38396 0.20555 0.58007 0.0
H871 H 0.38663 0.24303 0.53668 0.0
C872 C 0.73548 0.4283 0.25179 0.0
C873 C 0.74958 0.40789 0.26911 0.0
C874 C 0.70415 0.42897 0.24513 0.0
C875 C 0.63339 0.39918 0.28197 0.0
H876 H 0.59986 0.42927 0.16866 0.0
C877 C 0.5053 0.41218 0.26011 0.0
C878 C 0.49264 0.40772 0.21454 0.0
C879 C 0.53658 0.41328 0.2661 0.0
C880 C 0.60887 0.42066 0.20033 0.0
H881 H 0.74171 0.37226 0.29327 0.0
H882 H 0.68728 0.37336 0.28128 0.0
H883 H 0.65452 0.42875 0.18061 0.0
H884 H 0.50301 0.40153 0.13919 0.0
H885 H 0.5578 0.40317 0.14976 0.0
H886 H 0.58795 0.39059 0.30122 0.0
C887 C 0.70033 0.38896 0.27336 0.0
C888 C 0.64019 0.42061 0.20749 0.0
C889 C 0.73161 0.38829 0.28002 0.0
C890 C 0.51204 0.40491 0.17481 0.0
C891 C 0.54344 0.40599 0.18084 0.0
C892 C 0.60215 0.39924 0.27485 0.0
C893 C 0.68618 0.40927 0.25571 0.0
C894 C 0.65284 0.4098 0.24836 0.0
C895 C 0.5561 0.40992 0.22671 0.0
C896 C 0.58946 0.40998 0.23396 0.0
H897 H 0.74864 0.44376 0.24328 0.0
H898 H 0.69396 0.44501 0.23213 0.0
H899 H 0.64228 0.39091 0.31411 0.0
H900 H 0.49105 0.41467 0.29145 0.0
H901 H 0.54548 0.41681 0.30174 0.0
C902 C 0.98655 0.61662 0.66382 0.0
C903 C 0.00498 0.61246 0.70416 0.0
C904 C 0.95504 0.61563 0.66798 0.0
C905 C 0.89346 0.59324 0.74648 0.0
H906 H 0.84609 0.64224 0.68628 0.0
C907 C 0.76264 0.59401 0.75159 0.0
C908 C 0.74867 0.61581 0.7593 0.0
C909 C 0.79375 0.59265 0.74319 0.0
C910 C 0.859 0.62849 0.70353 0.0
H911 H 0.00477 0.60353 0.78024 0.0
H912 H 0.95011 0.60203 0.78749 0.0
H913 H 0.90062 0.64125 0.67418 0.0
H914 H 0.75654 0.65323 0.76495 0.0
H915 H 0.81075 0.65083 0.75088 0.0
H916 H 0.85197 0.58087 0.77696 0.0
C917 C 0.95987 0.60583 0.75253 0.0
C918 C 0.89023 0.62775 0.69607 0.0
C919 C 0.99127 0.60686 0.74841 0.0
C920 C 0.76654 0.63616 0.75896 0.0
C921 C 0.79762 0.63481 0.75051 0.0
C922 C 0.86223 0.59396 0.75388 0.0
C923 C 0.94134 0.61036 0.7125 0.0
C924 C 0.90789 0.61026 0.71787 0.0
C925 C 0.81159 0.61306 0.74224 0.0
C926 C 0.84466 0.61174 0.7329 0.0
H927 H 0.99642 0.62084 0.62915 0.0
H928 H 0.9414 0.61894 0.6363 0.0
H929 H 0.90634 0.57937 0.76336 0.0
H930 H 0.74953 0.57797 0.75168 0.0
H931 H 0.80374 0.57564 0.7366 0.0
C932 C 0.23624 0.09263 0.76951 0.0
C933 C 0.2504 0.1133 0.75363 0.0
C934 C 0.20492 0.0918 0.77587 0.0
C935 C 0.13422 0.12179 0.74087 0.0
H936 H 0.10112 0.09066 0.85346 0.0
C937 C 0.00627 0.10803 0.76416 0.0
C938 C 0.99394 0.11234 0.81002 0.0
C939 C 0.03751 0.10707 0.75758 0.0
C940 C 0.11002 0.09954 0.822 0.0
H941 H 0.24268 0.14924 0.73144 0.0
H942 H 0.18816 0.14786 0.74287 0.0
H943 H 0.15571 0.09144 0.841 0.0
H944 H 0.00479 0.11843 0.88524 0.0
H945 H 0.05947 0.11699 0.87364 0.0
H946 H 0.08869 0.13036 0.72236 0.0
C947 C 0.2012 0.13219 0.74997 0.0
C948 C 0.14128 0.09976 0.81455 0.0
C949 C 0.2325 0.13302 0.74362 0.0
C950 C 0.01358 0.11515 0.84941 0.0
C951 C 0.04491 0.11418 0.8428 0.0
C952 C 0.10301 0.12155 0.74827 0.0
C953 C 0.18703 0.11162 0.76641 0.0
C954 C 0.15376 0.11095 0.77395 0.0
C955 C 0.05724 0.1104 0.79667 0.0
C956 C 0.09051 0.11045 0.78893 0.0
H957 H 0.24936 0.07706 0.77725 0.0
H958 H 0.19468 0.07557 0.78788 0.0
H959 H 0.14303 0.13037 0.70898 0.0
H960 H 0.99181 0.10559 0.73307 0.0
H961 H 0.04622 0.10368 0.72174 0.0
C962 C 0.48725 0.90142 0.36125 0.0
C963 C 0.5055 0.90877 0.32263 0.0
C964 C 0.45574 0.90265 0.35793 0.0
C965 C 0.39411 0.90669 0.26755 0.0
H966 H 0.34515 0.92216 0.37902 0.0
C967 C 0.26468 0.92058 0.25616 0.0
C968 C 0.24738 0.90961 0.29222 0.0
C969 C 0.2962 0.92146 0.25977 0.0
C970 C 0.35854 0.91767 0.34764 0.0
H971 H 0.505 0.92392 0.25089 0.0
H972 H 0.45029 0.92654 0.24554 0.0
H973 H 0.40008 0.92223 0.38594 0.0
H974 H 0.24961 0.89114 0.36052 0.0
H975 H 0.30445 0.89272 0.36676 0.0
H976 H 0.35249 0.9023 0.22925 0.0
C977 C 0.46017 0.91924 0.27793 0.0
C978 C 0.39002 0.91764 0.35163 0.0
C979 C 0.4916 0.91786 0.28112 0.0
C980 C 0.26225 0.8997 0.33205 0.0
C981 C 0.29368 0.90074 0.33584 0.0
C982 C 0.36264 0.90689 0.26351 0.0
C983 C 0.44179 0.91143 0.31605 0.0
C984 C 0.40824 0.91202 0.31169 0.0
C985 C 0.31103 0.91157 0.29972 0.0
C986 C 0.3445 0.91222 0.30358 0.0
H987 H 0.49726 0.89432 0.39373 0.0
H988 H 0.44234 0.89622 0.38781 0.0
H989 H 0.40734 0.90187 0.23623 0.0
H990 H 0.25393 0.92843 0.22505 0.0
H991 H 0.30895 0.93009 0.23155 0.0
C992 C 0.48596 0.61432 0.85397 0.0
C993 C 0.50535 0.61249 0.81398 0.0
C994 C 0.45458 0.61337 0.84787 0.0
C995 C 0.39595 0.62298 0.75531 0.0
H996 H 0.34361 0.5902 0.84493 0.0
C997 C 0.26657 0.63439 0.75324 0.0
C998 C 0.24866 0.61433 0.76019 0.0
C999 C 0.29784 0.63344 0.75968 0.0
C1000 C 0.35795 0.59929 0.81938 0.0
H1001 H 0.50695 0.60749 0.73643 0.0
H1002 H 0.45248 0.60567 0.72596 0.0
H1003 H 0.3983 0.58926 0.85671 0.0
H1004 H 0.24967 0.57741 0.77876 0.0
H1005 H 0.30435 0.57574 0.7897 0.0
H1006 H 0.35577 0.63279 0.71763 0.0
C1007 C 0.46142 0.60825 0.76192 0.0
C1008 C 0.38926 0.59896 0.82644 0.0
C1009 C 0.4927 0.60916 0.768 0.0
C1010 C 0.26279 0.59323 0.77337 0.0
C1011 C 0.29411 0.59229 0.7799 0.0
C1012 C 0.36471 0.62336 0.74835 0.0
C1013 C 0.44194 0.61061 0.80165 0.0
C1014 C 0.40863 0.61081 0.79445 0.0
C1015 C 0.312 0.61241 0.77321 0.0
C1016 C 0.3453 0.61157 0.78032 0.0
H1017 H 0.495 0.6168 0.88991 0.0
H1018 H 0.4402 0.61539 0.8792 0.0
H1019 H 0.41017 0.63252 0.73029 0.0
H1020 H 0.25643 0.65095 0.74321 0.0
H1021 H 0.31089 0.64933 0.7548 0.0
C1022 C 0.23137 0.38664 0.266 0.0
C1023 C 0.24911 0.40708 0.26657 0.0
C1024 C 0.20032 0.38773 0.2749 0.0
C1025 C 0.13523 0.42809 0.27401 0.0
H1026 H 0.09763 0.37961 0.35164 0.0
C1027 C 0.00645 0.41346 0.27795 0.0
C1028 C 0.99264 0.40737 0.32187 0.0
C1029 C 0.03784 0.41492 0.27421 0.0
C1030 C 0.1078 0.39343 0.33034 0.0
H1031 H 0.24799 0.44479 0.27624 0.0
H1032 H 0.19376 0.44666 0.29194 0.0
H1033 H 0.1522 0.37931 0.33949 0.0
H1034 H 0.00107 0.39852 0.39668 0.0
H1035 H 0.05612 0.40111 0.39015 0.0
H1036 H 0.09084 0.44227 0.26503 0.0
C1037 C 0.20387 0.42979 0.2844 0.0
C1038 C 0.13905 0.3931 0.32286 0.0
C1039 C 0.23499 0.4287 0.27562 0.0
C1040 C 0.01101 0.40312 0.36226 0.0
C1041 C 0.04254 0.40451 0.35845 0.0
C1042 C 0.10397 0.42839 0.28138 0.0
C1043 C 0.18619 0.40928 0.28448 0.0
C1044 C 0.15311 0.41028 0.29417 0.0
C1045 C 0.05632 0.41032 0.31427 0.0
C1046 C 0.08981 0.41092 0.30921 0.0
H1047 H 0.24146 0.3697 0.25901 0.0
H1048 H 0.18732 0.37165 0.27383 0.0
H1049 H 0.14527 0.44151 0.2515 0.0
H1050 H 0.99303 0.41688 0.24609 0.0
H1051 H 0.04766 0.41912 0.23948 0.0
C1052 C 0.76311 0.92744 0.25369 0.0
C1053 C 0.74904 0.90579 0.26291 0.0
C1054 C 0.79418 0.92859 0.24468 0.0
C1055 C 0.8587 0.89208 0.20544 0.0
H1056 H 0.90714 0.94153 0.26218 0.0
C1057 C 0.98617 0.90273 0.16319 0.0
C1058 C 0.00485 0.90692 0.20325 0.0
C1059 C 0.9547 0.90406 0.16766 0.0
C1060 C 0.89393 0.92758 0.24613 0.0
H1061 H 0.75669 0.86845 0.27071 0.0
H1062 H 0.81082 0.87051 0.25554 0.0
H1063 H 0.85284 0.9405 0.27691 0.0
H1064 H 0.00512 0.9163 0.27912 0.0
H1065 H 0.95055 0.91842 0.28688 0.0
H1066 H 0.89992 0.87879 0.17577 0.0
C1067 C 0.79779 0.88655 0.25448 0.0
C1068 C 0.86276 0.92712 0.2542 0.0
C1069 C 0.76678 0.8854 0.26357 0.0
C1070 C 0.99143 0.91292 0.24751 0.0
C1071 C 0.96009 0.91432 0.25192 0.0
C1072 C 0.88986 0.89257 0.19728 0.0
C1073 C 0.81184 0.90813 0.2446 0.0
C1074 C 0.84482 0.90921 0.2344 0.0
C1075 C 0.94131 0.90974 0.2122 0.0
C1076 C 0.9079 0.91017 0.21799 0.0
H1077 H 0.75011 0.9435 0.25297 0.0
H1078 H 0.80424 0.94548 0.23689 0.0
H1079 H 0.84546 0.87823 0.18909 0.0
H1080 H 0.99582 0.89821 0.12852 0.0
H1081 H 0.94085 0.90069 0.13623 0.0
C1082 C 0.51277 0.11629 0.67697 0.0
C1083 C 0.49302 0.11262 0.71596 0.0
C1084 C 0.5441 0.11545 0.68376 0.0
C1085 C 0.60179 0.12157 0.77919 0.0
H1086 H 0.65515 0.09324 0.68492 0.0
C1087 C 0.73116 0.13377 0.78549 0.0
C1088 C 0.74931 0.11432 0.77442 0.0
C1089 C 0.69988 0.13283 0.77889 0.0
C1090 C 0.64054 0.10105 0.71179 0.0
H1091 H 0.49071 0.1045 0.79233 0.0
H1092 H 0.5451 0.10284 0.80396 0.0
H1093 H 0.60061 0.09238 0.67191 0.0
H1094 H 0.74874 0.07843 0.74861 0.0
H1095 H 0.6941 0.07675 0.73748 0.0
H1096 H 0.64158 0.12998 0.8194 0.0
C1097 C 0.53648 0.10679 0.76833 0.0
C1098 C 0.6093 0.1008 0.70405 0.0
C1099 C 0.50525 0.10761 0.76156 0.0
C1100 C 0.73542 0.09378 0.75721 0.0
C1101 C 0.70412 0.09286 0.75056 0.0
C1102 C 0.63298 0.12187 0.78687 0.0
C1103 C 0.55631 0.11094 0.72967 0.0
C1104 C 0.58955 0.11106 0.73768 0.0
C1105 C 0.68599 0.11241 0.76109 0.0
C1106 C 0.65275 0.11166 0.75324 0.0
H1107 H 0.50407 0.12012 0.64134 0.0
H1108 H 0.55874 0.11889 0.65327 0.0
H1109 H 0.58728 0.12988 0.80557 0.0
H1110 H 0.74111 0.14988 0.79871 0.0
H1111 H 0.68665 0.1483 0.78685 0.0
loop_
_geom_bond_atom_site_label_1
_geom_bond_atom_site_label_2
_geom_bond_distance
_geom_bond_site_symmetry_2
_ccdc_geom_bond_type
Zn0 N4 2.020 . S
Zn0 O8 2.019 . S
Zn0 N10 2.119 . S
Zn0 O18 1.975 . S
C1 N2 1.334 . S
C1 N5 1.336 . S
N2 C1 1.334 . S
N2 C3 1.334 . S
C3 N2 1.334 . S
C3 N4 1.336 . S
N4 Zn0 2.020 . S
N4 C3 1.336 . S
N4 N5 1.354 . S
N5 C1 1.336 . S
N5 N4 1.354 . S
N5 Zn9 2.020 . S
C6 O7 1.244 . S
C6 O30 1.257 . S
O7 C6 1.244 . S
O8 Zn0 2.019 . S
O8 C28 1.257 . S
Zn9 N5 2.020 . S
Zn9 O16 1.975 . S
Zn9 N25 2.119 . S
Zn9 O30 2.019 . S
N10 Zn0 2.119 . S
N10 C12 1.334 . S
N10 C13 1.328 . S
C11 C12 1.391 . S
C11 N14 1.329 . S
C11 H32 0.930 . S
C12 N10 1.334 . S
C12 C11 1.391 . S
C12 H19 0.930 . S
C13 N10 1.328 . S
C13 C15 1.392 . S
C13 H20 0.930 . S
N14 C11 1.329 . S
N14 C15 1.331 . S
C15 C13 1.392 . S
C15 N14 1.331 . S
O16 Zn9 1.975 . S
O16 C17 1.252 . S
C17 O16 1.252 . S
C17 O18 1.252 . S
O18 Zn0 1.975 . S
O18 C17 1.252 . S
H19 C12 0.930 . S
H20 C13 0.930 . S
C21 C22 1.392 . S
C21 N25 1.328 . S
C21 H27 0.930 . S
C22 C21 1.392 . S
C22 N26 1.331 . S
C23 C24 1.391 . S
C23 N26 1.329 . S
C23 H33 0.930 . S
C24 C23 1.391 . S
C24 N25 1.334 . S
C24 H31 0.930 . S
N25 Zn9 2.119 . S
N25 C21 1.328 . S
N25 C24 1.334 . S
N26 C22 1.331 . S
N26 C23 1.329 . S
H27 C21 0.930 . S
C28 O8 1.257 . S
C28 O29 1.244 . S
O29 C28 1.244 . S
O30 C6 1.257 . S
O30 Zn9 2.019 . S
H31 C24 0.930 . S
H32 C11 0.930 . S
H33 C23 0.930 . S
Zn34 N38 2.020 . S
Zn34 O42 2.019 . S
Zn34 N44 2.119 . S
Zn34 O52 1.975 . S
C35 N36 1.334 . S
C35 N39 1.336 . S
N36 C35 1.334 . S
N36 C37 1.334 . S
C37 N36 1.334 . S
C37 N38 1.336 . S
N38 Zn34 2.020 . S
N38 C37 1.336 . S
N38 N39 1.354 . S
N39 C35 1.336 . S
N39 N38 1.354 . S
N39 Zn43 2.020 . S
C40 O41 1.244 . S
C40 O64 1.257 . S
O41 C40 1.244 . S
O42 Zn34 2.019 . S
O42 C62 1.257 . S
Zn43 N39 2.020 . S
Zn43 O50 1.975 . S
Zn43 N59 2.119 . S
Zn43 O64 2.019 . S
N44 Zn34 2.119 . S
N44 C46 1.334 . S
N44 C47 1.328 . S
C45 C46 1.391 . S
C45 N48 1.329 . S
C45 H66 0.930 . S
C46 N44 1.334 . S
C46 C45 1.391 . S
C46 H53 0.930 . S
C47 N44 1.328 . S
C47 C49 1.392 . S
C47 H54 0.930 . S
N48 C45 1.329 . S
N48 C49 1.331 . S
C49 C47 1.392 . S
C49 N48 1.331 . S
O50 Zn43 1.975 . S
O50 C51 1.252 . S
C51 O50 1.252 . S
C51 O52 1.252 . S
O52 Zn34 1.975 . S
O52 C51 1.252 . S
H53 C46 0.930 . S
H54 C47 0.930 . S
C55 C56 1.392 . S
C55 N59 1.328 . S
C55 H61 0.930 . S
C56 C55 1.392 . S
C56 N60 1.331 . S
C57 C58 1.391 . S
C57 N60 1.329 . S
C57 H67 0.930 . S
C58 C57 1.391 . S
C58 N59 1.334 . S
C58 H65 0.930 . S
N59 Zn43 2.119 . S
N59 C55 1.328 . S
N59 C58 1.334 . S
N60 C56 1.331 . S
N60 C57 1.329 . S
H61 C55 0.930 . S
C62 O42 1.257 . S
C62 O63 1.244 . S
O63 C62 1.244 . S
O64 C40 1.257 . S
O64 Zn43 2.019 . S
H65 C58 0.930 . S
H66 C45 0.930 . S
H67 C57 0.930 . S
Zn68 N72 2.020 . S
Zn68 O76 2.019 . S
Zn68 N78 2.119 . S
Zn68 O86 1.975 . S
C69 N70 1.334 . S
C69 N73 1.336 . S
N70 C69 1.334 . S
N70 C71 1.334 . S
C71 N70 1.334 . S
C71 N72 1.336 . S
N72 Zn68 2.020 . S
N72 C71 1.336 . S
N72 N73 1.354 . S
N73 C69 1.336 . S
N73 N72 1.354 . S
N73 Zn77 2.020 . S
C74 O75 1.244 . S
C74 O98 1.257 . S
O75 C74 1.244 . S
O76 Zn68 2.019 . S
O76 C96 1.257 . S
Zn77 N73 2.020 . S
Zn77 O84 1.975 . S
Zn77 N93 2.119 . S
Zn77 O98 2.019 . S
N78 Zn68 2.119 . S
N78 C80 1.334 . S
N78 C81 1.328 . S
C79 C80 1.391 . S
C79 N82 1.329 . S
C79 H100 0.930 . S
C80 N78 1.334 . S
C80 C79 1.391 . S
C80 H87 0.930 . S
C81 N78 1.328 . S
C81 C83 1.392 . S
C81 H88 0.930 . S
N82 C79 1.329 . S
N82 C83 1.331 . S
C83 C81 1.392 . S
C83 N82 1.331 . S
O84 Zn77 1.975 . S
O84 C85 1.252 . S
C85 O84 1.252 . S
C85 O86 1.252 . S
O86 Zn68 1.975 . S
O86 C85 1.252 . S
H87 C80 0.930 . S
H88 C81 0.930 . S
C89 C90 1.392 . S
C89 N93 1.328 . S
C89 H95 0.930 . S
C90 C89 1.392 . S
C90 N94 1.331 . S
C91 C92 1.391 . S
C91 N94 1.329 . S
C91 H101 0.930 . S
C92 C91 1.391 . S
C92 N93 1.334 . S
C92 H99 0.930 . S
N93 Zn77 2.119 . S
N93 C89 1.328 . S
N93 C92 1.334 . S
N94 C90 1.331 . S
N94 C91 1.329 . S
H95 C89 0.930 . S
C96 O76 1.257 . S
C96 O97 1.244 . S
O97 C96 1.244 . S
O98 C74 1.257 . S
O98 Zn77 2.019 . S
H99 C92 0.930 . S
H100 C79 0.930 . S
H101 C91 0.930 . S
Zn102 N106 2.020 . S
Zn102 O110 2.019 . S
Zn102 N112 2.119 . S
Zn102 O120 1.975 . S
C103 N104 1.334 . S
C103 N107 1.336 . S
N104 C103 1.334 . S
N104 C105 1.334 . S
C105 N104 1.334 . S
C105 N106 1.336 . S
N106 Zn102 2.020 . S
N106 C105 1.336 . S
N106 N107 1.354 . S
N107 C103 1.336 . S
N107 N106 1.354 . S
N107 Zn111 2.020 . S
C108 O109 1.244 . S
C108 O132 1.257 . S
O109 C108 1.244 . S
O110 Zn102 2.019 . S
O110 C130 1.257 . S
Zn111 N107 2.020 . S
Zn111 O118 1.975 . S
Zn111 N127 2.119 . S
Zn111 O132 2.019 . S
N112 Zn102 2.119 . S
N112 C114 1.334 . S
N112 C115 1.328 . S
C113 C114 1.391 . S
C113 N116 1.329 . S
C113 H134 0.930 . S
C114 N112 1.334 . S
C114 C113 1.391 . S
C114 H121 0.930 . S
C115 N112 1.328 . S
C115 C117 1.392 . S
C115 H122 0.930 . S
N116 C113 1.329 . S
N116 C117 1.331 . S
C117 C115 1.392 . S
C117 N116 1.331 . S
O118 Zn111 1.975 . S
O118 C119 1.252 . S
C119 O118 1.252 . S
C119 O120 1.252 . S
O120 Zn102 1.975 . S
O120 C119 1.252 . S
H121 C114 0.930 . S
H122 C115 0.930 . S
C123 C124 1.392 . S
C123 N127 1.328 . S
C123 H129 0.930 . S
C124 C123 1.392 . S
C124 N128 1.331 . S
C125 C126 1.391 . S
C125 N128 1.329 . S
C125 H135 0.930 . S
C126 C125 1.391 . S
C126 N127 1.334 . S
C126 H133 0.930 . S
N127 Zn111 2.119 . S
N127 C123 1.328 . S
N127 C126 1.334 . S
N128 C124 1.331 . S
N128 C125 1.329 . S
H129 C123 0.930 . S
C130 O110 1.257 . S
C130 O131 1.244 . S
O131 C130 1.244 . S
O132 C108 1.257 . S
O132 Zn111 2.019 . S
H133 C126 0.930 . S
H134 C113 0.930 . S
H135 C125 0.930 . S
Zn136 N140 2.020 . S
Zn136 O144 2.019 . S
Zn136 N146 2.119 . S
Zn136 O154 1.975 . S
C137 N138 1.334 . S
C137 N141 1.336 . S
N138 C137 1.334 . S
N138 C139 1.334 . S
C139 N138 1.334 . S
C139 N140 1.336 . S
N140 Zn136 2.020 . S
N140 C139 1.336 . S
N140 N141 1.354 . S
N141 C137 1.336 . S
N141 N140 1.354 . S
N141 Zn145 2.020 . S
C142 O143 1.244 . S
C142 O166 1.257 . S
O143 C142 1.244 . S
O144 Zn136 2.019 . S
O144 C164 1.257 . S
Zn145 N141 2.020 . S
Zn145 O152 1.975 . S
Zn145 N161 2.119 . S
Zn145 O166 2.019 . S
N146 Zn136 2.119 . S
N146 C148 1.334 . S
N146 C149 1.328 . S
C147 C148 1.391 . S
C147 N150 1.329 . S
C147 H168 0.930 . S
C148 N146 1.334 . S
C148 C147 1.391 . S
C148 H155 0.930 . S
C149 N146 1.328 . S
C149 C151 1.392 . S
C149 H156 0.930 . S
N150 C147 1.329 . S
N150 C151 1.331 . S
C151 C149 1.392 . S
C151 N150 1.331 . S
O152 Zn145 1.975 . S
O152 C153 1.252 . S
C153 O152 1.252 . S
C153 O154 1.252 . S
O154 Zn136 1.975 . S
O154 C153 1.252 . S
H155 C148 0.930 . S
H156 C149 0.930 . S
C157 C158 1.392 . S
C157 N161 1.328 . S
C157 H163 0.930 . S
C158 C157 1.392 . S
C158 N162 1.331 . S
C159 C160 1.391 . S
C159 N162 1.329 . S
C159 H169 0.930 . S
C160 C159 1.391 . S
C160 N161 1.334 . S
C160 H167 0.930 . S
N161 Zn145 2.119 . S
N161 C157 1.328 . S
N161 C160 1.334 . S
N162 C158 1.331 . S
N162 C159 1.329 . S
H163 C157 0.930 . S
C164 O144 1.257 . S
C164 O165 1.244 . S
O165 C164 1.244 . S
O166 C142 1.257 . S
O166 Zn145 2.019 . S
H167 C160 0.930 . S
H168 C147 0.930 . S
H169 C159 0.930 . S
Zn170 N174 2.020 . S
Zn170 O178 2.019 . S
Zn170 N180 2.119 . S
Zn170 O188 1.975 . S
C171 N172 1.334 . S
C171 N175 1.336 . S
N172 C171 1.334 . S
N172 C173 1.334 . S
C173 N172 1.334 . S
C173 N174 1.336 . S
N174 Zn170 2.020 . S
N174 C173 1.336 . S
N174 N175 1.354 . S
N175 C171 1.336 . S
N175 N174 1.354 . S
N175 Zn179 2.020 . S
C176 O177 1.244 . S
C176 O200 1.257 . S
O177 C176 1.244 . S
O178 Zn170 2.019 . S
O178 C198 1.257 . S
Zn179 N175 2.020 . S
Zn179 O186 1.975 . S
Zn179 N195 2.119 . S
Zn179 O200 2.019 . S
N180 Zn170 2.119 . S
N180 C182 1.334 . S
N180 C183 1.328 . S
C181 C182 1.391 . S
C181 N184 1.329 . S
C181 H202 0.930 . S
C182 N180 1.334 . S
C182 C181 1.391 . S
C182 H189 0.930 . S
C183 N180 1.328 . S
C183 C185 1.392 . S
C183 H190 0.930 . S
N184 C181 1.329 . S
N184 C185 1.331 . S
C185 C183 1.392 . S
C185 N184 1.331 . S
O186 Zn179 1.975 . S
O186 C187 1.252 . S
C187 O186 1.252 . S
C187 O188 1.252 . S
O188 Zn170 1.975 . S
O188 C187 1.252 . S
H189 C182 0.930 . S
H190 C183 0.930 . S
C191 C192 1.392 . S
C191 N195 1.328 . S
C191 H197 0.930 . S
C192 C191 1.392 . S
C192 N196 1.331 . S
C193 C194 1.391 . S
C193 N196 1.329 . S
C193 H203 0.930 . S
C194 C193 1.391 . S
C194 N195 1.334 . S
C194 H201 0.930 . S
N195 Zn179 2.119 . S
N195 C191 1.328 . S
N195 C194 1.334 . S
N196 C192 1.331 . S
N196 C193 1.329 . S
H197 C191 0.930 . S
C198 O178 1.257 . S
C198 O199 1.244 . S
O199 C198 1.244 . S
O200 C176 1.257 . S
O200 Zn179 2.019 . S
H201 C194 0.930 . S
H202 C181 0.930 . S
H203 C193 0.930 . S
Zn204 N208 2.020 . S
Zn204 O212 2.019 . S
Zn204 N214 2.119 . S
Zn204 O222 1.975 . S
C205 N206 1.334 . S
C205 N209 1.336 . S
N206 C205 1.334 . S
N206 C207 1.334 . S
C207 N206 1.334 . S
C207 N208 1.336 . S
N208 Zn204 2.020 . S
N208 C207 1.336 . S
N208 N209 1.354 . S
N209 C205 1.336 . S
N209 N208 1.354 . S
N209 Zn213 2.020 . S
C210 O211 1.244 . S
C210 O234 1.257 . S
O211 C210 1.244 . S
O212 Zn204 2.019 . S
O212 C232 1.257 . S
Zn213 N209 2.020 . S
Zn213 O220 1.975 . S
Zn213 N229 2.119 . S
Zn213 O234 2.019 . S
N214 Zn204 2.119 . S
N214 C216 1.334 . S
N214 C217 1.328 . S
C215 C216 1.391 . S
C215 N218 1.329 . S
C215 H236 0.930 . S
C216 N214 1.334 . S
C216 C215 1.391 . S
C216 H223 0.930 . S
C217 N214 1.328 . S
C217 C219 1.392 . S
C217 H224 0.930 . S
N218 C215 1.329 . S
N218 C219 1.331 . S
C219 C217 1.392 . S
C219 N218 1.331 . S
O220 Zn213 1.975 . S
O220 C221 1.252 . S
C221 O220 1.252 . S
C221 O222 1.252 . S
O222 Zn204 1.975 . S
O222 C221 1.252 . S
H223 C216 0.930 . S
H224 C217 0.930 . S
C225 C226 1.392 . S
C225 N229 1.328 . S
C225 H231 0.930 . S
C226 C225 1.392 . S
C226 N230 1.331 . S
C227 C228 1.391 . S
C227 N230 1.329 . S
C227 H237 0.930 . S
C228 C227 1.391 . S
C228 N229 1.334 . S
C228 H235 0.930 . S
N229 Zn213 2.119 . S
N229 C225 1.328 . S
N229 C228 1.334 . S
N230 C226 1.331 . S
N230 C227 1.329 . S
H231 C225 0.930 . S
C232 O212 1.257 . S
C232 O233 1.244 . S
O233 C232 1.244 . S
O234 C210 1.257 . S
O234 Zn213 2.019 . S
H235 C228 0.930 . S
H236 C215 0.930 . S
H237 C227 0.930 . S
Zn238 N242 2.020 . S
Zn238 O246 2.019 . S
Zn238 N248 2.119 . S
Zn238 O256 1.975 . S
C239 N240 1.334 . S
C239 N243 1.336 . S
N240 C239 1.334 . S
N240 C241 1.334 . S
C241 N240 1.334 . S
C241 N242 1.336 . S
N242 Zn238 2.020 . S
N242 C241 1.336 . S
N242 N243 1.354 . S
N243 C239 1.336 . S
N243 N242 1.354 . S
N243 Zn247 2.020 . S
C244 O245 1.244 . S
C244 O268 1.257 . S
O245 C244 1.244 . S
O246 Zn238 2.019 . S
O246 C266 1.257 . S
Zn247 N243 2.020 . S
Zn247 O254 1.975 . S
Zn247 N263 2.119 . S
Zn247 O268 2.019 . S
N248 Zn238 2.119 . S
N248 C250 1.334 . S
N248 C251 1.328 . S
C249 C250 1.391 . S
C249 N252 1.329 . S
C249 H270 0.930 . S
C250 N248 1.334 . S
C250 C249 1.391 . S
C250 H257 0.930 . S
C251 N248 1.328 . S
C251 C253 1.392 . S
C251 H258 0.930 . S
N252 C249 1.329 . S
N252 C253 1.331 . S
C253 C251 1.392 . S
C253 N252 1.331 . S
O254 Zn247 1.975 . S
O254 C255 1.252 . S
C255 O254 1.252 . S
C255 O256 1.252 . S
O256 Zn238 1.975 . S
O256 C255 1.252 . S
H257 C250 0.930 . S
H258 C251 0.930 . S
C259 C260 1.392 . S
C259 N263 1.328 . S
C259 H265 0.930 . S
C260 C259 1.392 . S
C260 N264 1.331 . S
C261 C262 1.391 . S
C261 N264 1.329 . S
C261 H271 0.930 . S
C262 C261 1.391 . S
C262 N263 1.334 . S
C262 H269 0.930 . S
N263 Zn247 2.119 . S
N263 C259 1.328 . S
N263 C262 1.334 . S
N264 C260 1.331 . S
N264 C261 1.329 . S
H265 C259 0.930 . S
C266 O246 1.257 . S
C266 O267 1.244 . S
O267 C266 1.244 . S
O268 C244 1.257 . S
O268 Zn247 2.019 . S
H269 C262 0.930 . S
H270 C249 0.930 . S
H271 C261 0.930 . S
C272 C273 1.349 . S
C272 C274 1.327 . S
C272 H297 0.950 . S
C273 C272 1.349 . S
C273 C289 1.349 . S
C274 C272 1.327 . S
C274 C293 1.429 . S
C274 H298 0.950 . S
C275 C292 1.574 . S
C275 C294 1.368 . S
C275 H299 0.949 . S
H276 C280 0.949 1_556 S
C277 C278 1.349 . S
C277 C279 1.327 . S
C277 H300 0.950 . S
C278 C277 1.349 . S
C278 C290 1.349 . S
C279 C277 1.327 . S
C279 C295 1.429 . S
C279 H301 0.950 . S
C280 H276 0.949 1_554 S
C280 C288 1.574 . S
C280 C296 1.368 1_554 S
H281 C289 0.950 . S
H282 C287 0.950 . S
H283 C288 0.949 . S
H284 C290 0.950 . S
H285 C291 0.950 . S
H286 C292 0.949 . S
C287 H282 0.950 . S
C287 C289 1.327 . S
C287 C293 1.429 . S
C288 C280 1.574 . S
C288 H283 0.949 . S
C288 C294 1.368 . S
C289 C273 1.349 . S
C289 H281 0.950 . S
C289 C287 1.327 . S
C290 C278 1.349 . S
C290 H284 0.950 . S
C290 C291 1.327 . S
C291 H285 0.950 . S
C291 C290 1.327 . S
C291 C295 1.429 . S
C292 C275 1.574 . S
C292 H286 0.949 . S
C292 C296 1.368 1_554 S
C293 C274 1.429 . S
C293 C287 1.429 . S
C293 C294 1.523 . S
C294 C275 1.368 . S
C294 C288 1.368 . S
C294 C293 1.523 . S
C295 C279 1.429 . S
C295 C291 1.429 . S
C295 C296 1.523 . S
C296 C280 1.368 1_556 S
C296 C292 1.368 1_556 S
C296 C295 1.523 . S
H297 C272 0.950 . S
H298 C274 0.950 . S
H299 C275 0.949 . S
H300 C277 0.950 . S
H301 C279 0.950 . S
C302 C303 1.349 . S
C302 C304 1.327 . S
C302 H327 0.950 . S
C303 C302 1.349 . S
C303 C319 1.349 . S
C304 C302 1.327 . S
C304 C323 1.429 . S
C304 H328 0.950 . S
C305 C322 1.574 . S
C305 C324 1.368 . S
C305 H329 0.949 . S
H306 C310 0.949 . S
C307 C308 1.349 . S
C307 C309 1.327 . S
C307 H330 0.950 . S
C308 C307 1.349 . S
C308 C320 1.349 . S
C309 C307 1.327 . S
C309 C325 1.429 . S
C309 H331 0.950 . S
C310 H306 0.949 . S
C310 C318 1.574 . S
C310 C326 1.368 . S
H311 C319 0.950 . S
H312 C317 0.950 . S
H313 C318 0.949 . S
H314 C320 0.950 . S
H315 C321 0.950 . S
H316 C322 0.949 . S
C317 H312 0.950 . S
C317 C319 1.327 . S
C317 C323 1.429 . S
C318 C310 1.574 . S
C318 H313 0.949 . S
C318 C324 1.368 . S
C319 C303 1.349 . S
C319 H311 0.950 . S
C319 C317 1.327 . S
C320 C308 1.349 . S
C320 H314 0.950 . S
C320 C321 1.327 . S
C321 H315 0.950 . S
C321 C320 1.327 . S
C321 C325 1.429 . S
C322 C305 1.574 . S
C322 H316 0.949 . S
C322 C326 1.368 . S
C323 C304 1.429 . S
C323 C317 1.429 . S
C323 C324 1.523 . S
C324 C305 1.368 . S
C324 C318 1.368 . S
C324 C323 1.523 . S
C325 C309 1.429 . S
C325 C321 1.429 . S
C325 C326 1.523 . S
C326 C310 1.368 . S
C326 C322 1.368 . S
C326 C325 1.523 . S
H327 C302 0.950 . S
H328 C304 0.950 . S
H329 C305 0.949 . S
H330 C307 0.950 . S
H331 C309 0.950 . S
C332 C333 1.349 . S
C332 C334 1.327 . S
C332 H357 0.950 . S
C333 C332 1.349 . S
C333 C349 1.349 . S
C334 C332 1.327 . S
C334 C353 1.429 . S
C334 H358 0.950 . S
C335 C352 1.574 1_556 S
C335 C354 1.368 . S
C335 H359 0.949 . S
H336 C340 0.949 . S
C337 C338 1.349 . S
C337 C339 1.327 . S
C337 H360 0.950 . S
C338 C337 1.349 . S
C338 C350 1.349 . S
C339 C337 1.327 . S
C339 C355 1.429 . S
C339 H361 0.950 . S
C340 H336 0.949 . S
C340 C348 1.574 1_565 S
C340 C356 1.368 1_556 S
H341 C349 0.950 . S
H342 C347 0.950 . S
H343 C348 0.949 . S
H344 C350 0.950 . S
H345 C351 0.950 1_556 S
H346 C352 0.949 . S
C347 H342 0.950 . S
C347 C349 1.327 . S
C347 C353 1.429 . S
C348 C340 1.574 1_545 S
C348 H343 0.949 . S
C348 C354 1.368 . S
C349 C333 1.349 . S
C349 H341 0.950 . S
C349 C347 1.327 . S
C350 C338 1.349 . S
C350 H344 0.950 . S
C350 C351 1.327 . S
C351 H345 0.950 1_554 S
C351 C350 1.327 . S
C351 C355 1.429 . S
C352 C335 1.574 1_554 S
C352 H346 0.949 . S
C352 C356 1.368 1_545 S
C353 C334 1.429 . S
C353 C347 1.429 . S
C353 C354 1.523 . S
C354 C335 1.368 . S
C354 C348 1.368 . S
C354 C353 1.523 . S
C355 C339 1.429 . S
C355 C351 1.429 . S
C355 C356 1.523 . S
C356 C340 1.368 1_554 S
C356 C352 1.368 1_565 S
C356 C355 1.523 . S
H357 C332 0.950 . S
H358 C334 0.950 . S
H359 C335 0.949 . S
H360 C337 0.950 . S
H361 C339 0.950 . S
C362 C363 1.349 . S
C362 C364 1.327 . S
C362 H387 0.950 . S
C363 C362 1.349 . S
C363 C379 1.349 . S
C364 C362 1.327 . S
C364 C383 1.429 . S
C364 H388 0.950 . S
C365 C382 1.574 . S
C365 C384 1.368 . S
C365 H389 0.949 . S
H366 C370 0.949 . S
C367 C368 1.349 . S
C367 C369 1.327 . S
C367 H390 0.950 . S
C368 C367 1.349 . S
C368 C380 1.349 . S
C369 C367 1.327 . S
C369 C385 1.429 . S
C369 H391 0.950 1_545 S
C370 H366 0.949 . S
C370 C378 1.574 . S
C370 C386 1.368 . S
H371 C379 0.950 . S
H372 C377 0.950 . S
H373 C378 0.949 . S
H374 C380 0.950 . S
H375 C381 0.950 . S
H376 C382 0.949 . S
C377 H372 0.950 . S
C377 C379 1.327 . S
C377 C383 1.429 . S
C378 C370 1.574 . S
C378 H373 0.949 . S
C378 C384 1.368 1_545 S
C379 C363 1.349 . S
C379 H371 0.950 . S
C379 C377 1.327 . S
C380 C368 1.349 . S
C380 H374 0.950 . S
C380 C381 1.327 . S
C381 H375 0.950 . S
C381 C380 1.327 . S
C381 C385 1.429 . S
C382 C365 1.574 . S
C382 H376 0.949 . S
C382 C386 1.368 1_565 S
C383 C364 1.429 . S
C383 C377 1.429 . S
C383 C384 1.523 . S
C384 C365 1.368 . S
C384 C378 1.368 1_565 S
C384 C383 1.523 . S
C385 C369 1.429 . S
C385 C381 1.429 . S
C385 C386 1.523 . S
C386 C370 1.368 . S
C386 C382 1.368 1_545 S
C386 C385 1.523 . S
H387 C362 0.950 . S
H388 C364 0.950 . S
H389 C365 0.949 . S
H390 C367 0.950 . S
H391 C369 0.950 1_565 S
C392 C393 1.349 . S
C392 C394 1.327 . S
C392 H417 0.950 . S
C393 C392 1.349 . S
C393 C409 1.349 . S
C394 C392 1.327 . S
C394 C413 1.429 . S
C394 H418 0.950 . S
C395 C412 1.574 1_556 S
C395 C414 1.368 . S
C395 H419 0.953 . S
H396 C400 0.949 . S
C397 C398 1.349 . S
C397 C399 1.327 . S
C397 H420 0.950 . S
C398 C397 1.349 . S
C398 C410 1.349 . S
C399 C397 1.327 . S
C399 C415 1.429 . S
C399 H421 0.950 . S
C400 H396 0.949 . S
C400 C408 1.574 . S
C400 C416 1.368 1_556 S
H401 C409 0.950 . S
H402 C407 0.950 . S
H403 C408 0.949 . S
H404 C410 0.950 . S
H405 C411 0.950 1_556 S
H406 C412 0.949 . S
C407 H402 0.950 . S
C407 C409 1.327 . S
C407 C413 1.429 . S
C408 C400 1.574 . S
C408 H403 0.949 . S
C408 C414 1.368 . S
C409 C393 1.349 . S
C409 H401 0.950 . S
C409 C407 1.327 . S
C410 C398 1.349 . S
C410 H404 0.950 . S
C410 C411 1.327 . S
C411 H405 0.950 1_554 S
C411 C410 1.327 . S
C411 C415 1.429 . S
C412 C395 1.574 1_554 S
C412 H406 0.949 . S
C412 C416 1.368 . S
C413 C394 1.429 . S
C413 C407 1.429 . S
C413 C414 1.523 . S
C414 C395 1.368 . S
C414 C408 1.368 . S
C414 C413 1.523 . S
C415 C399 1.429 . S
C415 C411 1.429 . S
C415 C416 1.523 . S
C416 C400 1.368 1_554 S
C416 C412 1.368 . S
C416 C415 1.523 . S
H417 C392 0.950 . S
H418 C394 0.950 . S
H419 C395 0.953 . S
H420 C397 0.950 . S
H421 C399 0.950 . S
C422 C423 1.349 . S
C422 C424 1.327 . S
C422 H447 0.950 . S
C423 C422 1.349 . S
C423 C439 1.349 . S
C424 C422 1.327 . S
C424 C443 1.429 . S
C424 H448 0.950 . S
C425 C442 1.574 . S
C425 C444 1.368 . S
C425 H449 0.949 . S
H426 C430 0.949 . S
C427 C428 1.349 . S
C427 C429 1.327 . S
C427 H450 0.950 . S
C428 C427 1.349 . S
C428 C440 1.349 . S
C429 C427 1.327 . S
C429 C445 1.429 . S
C429 H451 0.950 . S
C430 H426 0.949 . S
C430 C438 1.574 . S
C430 C446 1.368 . S
H431 C439 0.950 . S
H432 C437 0.950 . S
H433 C438 0.949 . S
H434 C440 0.950 . S
H435 C441 0.950 . S
H436 C442 0.949 . S
C437 H432 0.950 . S
C437 C439 1.327 . S
C437 C443 1.429 . S
C438 C430 1.574 . S
C438 H433 0.949 . S
C438 C444 1.368 . S
C439 C423 1.349 . S
C439 H431 0.950 . S
C439 C437 1.327 . S
C440 C428 1.349 . S
C440 H434 0.950 . S
C440 C441 1.327 . S
C441 H435 0.950 . S
C441 C440 1.327 . S
C441 C445 1.429 . S
C442 C425 1.574 . S
C442 H436 0.949 . S
C442 C446 1.368 . S
C443 C424 1.429 . S
C443 C437 1.429 . S
C443 C444 1.523 . S
C444 C425 1.368 . S
C444 C438 1.368 . S
C444 C443 1.523 . S
C445 C429 1.429 . S
C445 C441 1.429 . S
C445 C446 1.523 . S
C446 C430 1.368 . S
C446 C442 1.368 . S
C446 C445 1.523 . S
H447 C422 0.950 . S
H448 C424 0.950 . S
H449 C425 0.949 . S
H450 C427 0.950 . S
H451 C429 0.950 . S
C452 C453 1.349 . S
C452 C454 1.327 . S
C452 H477 0.950 . S
C453 C452 1.349 . S
C453 C469 1.349 . S
C454 C452 1.327 . S
C454 C473 1.429 . S
C454 H478 0.950 1_545 S
C455 C472 1.582 1_545 S
C455 C474 1.367 1_554 S
C455 H479 0.945 1_554 S
H456 C460 0.949 . S
C457 C458 1.349 . S
C457 C459 1.327 . S
C457 H480 0.950 . S
C458 C457 1.349 . S
C458 C470 1.349 . S
C459 C457 1.327 . S
C459 C475 1.429 . S
C459 H481 0.950 . S
C460 H456 0.949 . S
C460 C468 1.574 . S
C460 C476 1.368 . S
H461 C469 0.950 . S
H462 C467 0.950 . S
H463 C468 0.949 . S
H464 C470 0.950 . S
H465 C471 0.950 . S
H466 C472 0.950 1_545 S
C467 H462 0.950 . S
C467 C469 1.327 . S
C467 C473 1.429 . S
C468 C460 1.574 . S
C468 H463 0.949 . S
C468 C474 1.368 1_564 S
C469 C453 1.349 . S
C469 H461 0.950 . S
C469 C467 1.327 . S
C470 C458 1.349 . S
C470 H464 0.950 . S
C470 C471 1.327 . S
C471 H465 0.950 . S
C471 C470 1.327 . S
C471 C475 1.429 . S
C472 C455 1.582 1_565 S
C472 H466 0.950 1_565 S
C472 C476 1.364 . S
C473 C454 1.429 . S
C473 C467 1.429 . S
C473 C474 1.523 . S
C474 C455 1.367 1_556 S
C474 C468 1.368 1_546 S
C474 C473 1.523 . S
C475 C459 1.429 . S
C475 C471 1.429 . S
C475 C476 1.523 . S
C476 C460 1.368 . S
C476 C472 1.364 . S
C476 C475 1.523 . S
H477 C452 0.950 . S
H478 C454 0.950 1_565 S
H479 C455 0.945 1_556 S
H480 C457 0.950 . S
H481 C459 0.950 . S
C482 C483 1.349 . S
C482 C484 1.327 . S
C482 H507 0.950 . S
C483 C482 1.349 . S
C483 C499 1.349 . S
C484 C482 1.327 . S
C484 C503 1.429 . S
C484 H508 0.950 . S
C485 C502 1.574 . S
C485 C504 1.368 . S
C485 H509 0.949 . S
H486 C490 0.949 . S
C487 C488 1.349 . S
C487 C489 1.327 . S
C487 H510 0.950 . S
C488 C487 1.349 . S
C488 C500 1.349 . S
C489 C487 1.327 . S
C489 C505 1.429 . S
C489 H511 0.950 . S
C490 H486 0.949 . S
C490 C498 1.574 1_565 S
C490 C506 1.368 . S
H491 C499 0.950 . S
H492 C497 0.950 . S
H493 C498 0.949 . S
H494 C500 0.950 . S
H495 C501 0.950 . S
H496 C502 0.949 . S
C497 H492 0.950 . S
C497 C499 1.327 . S
C497 C503 1.429 . S
C498 C490 1.574 1_545 S
C498 H493 0.949 . S
C498 C504 1.368 . S
C499 C483 1.349 . S
C499 H491 0.950 . S
C499 C497 1.327 . S
C500 C488 1.349 . S
C500 H494 0.950 . S
C500 C501 1.327 . S
C501 H495 0.950 . S
C501 C500 1.327 . S
C501 C505 1.429 . S
C502 C485 1.574 . S
C502 H496 0.949 . S
C502 C506 1.368 1_545 S
C503 C484 1.429 . S
C503 C497 1.429 . S
C503 C504 1.523 . S
C504 C485 1.368 . S
C504 C498 1.368 . S
C504 C503 1.523 . S
C505 C489 1.429 . S
C505 C501 1.429 . S
C505 C506 1.523 . S
C506 C490 1.368 . S
C506 C502 1.368 1_565 S
C506 C505 1.523 . S
H507 C482 0.950 . S
H508 C484 0.950 . S
H509 C485 0.949 . S
H510 C487 0.950 . S
H511 C489 0.950 . S
C512 C513 1.349 . S
C512 C514 1.327 . S
C512 H537 0.950 . S
C513 C512 1.349 . S
C513 C529 1.349 . S
C514 C512 1.327 . S
C514 C533 1.429 . S
C514 H538 0.950 . S
C515 C532 1.574 . S
C515 C534 1.368 1_556 S
C515 H539 0.949 . S
H516 C520 0.949 . S
C517 C518 1.349 . S
C517 C519 1.327 . S
C517 H540 0.950 . S
C518 C517 1.349 . S
C518 C530 1.349 . S
C519 C517 1.327 . S
C519 C535 1.429 . S
C519 H541 0.950 . S
C520 H516 0.949 . S
C520 C528 1.574 . S
C520 C536 1.368 1_554 S
H521 C529 0.950 . S
H522 C527 0.950 . S
H523 C528 0.949 . S
H524 C530 0.950 . S
H525 C531 0.950 . S
H526 C532 0.949 . S
C527 H522 0.950 . S
C527 C529 1.327 . S
C527 C533 1.429 . S
C528 C520 1.574 . S
C528 H523 0.949 . S
C528 C534 1.368 . S
C529 C513 1.349 . S
C529 H521 0.950 . S
C529 C527 1.327 . S
C530 C518 1.349 . S
C530 H524 0.950 . S
C530 C531 1.327 . S
C531 H525 0.950 . S
C531 C530 1.327 . S
C531 C535 1.429 . S
C532 C515 1.574 . S
C532 H526 0.949 . S
C532 C536 1.368 . S
C533 C514 1.429 . S
C533 C527 1.429 . S
C533 C534 1.523 . S
C534 C515 1.368 1_554 S
C534 C528 1.368 . S
C534 C533 1.523 . S
C535 C519 1.429 . S
C535 C531 1.429 . S
C535 C536 1.523 . S
C536 C520 1.368 1_556 S
C536 C532 1.368 . S
C536 C535 1.523 . S
H537 C512 0.950 . S
H538 C514 0.950 . S
H539 C515 0.949 . S
H540 C517 0.950 . S
H541 C519 0.950 . S
C542 C543 1.349 . S
C542 C544 1.327 . S
C542 H567 0.950 . S
C543 C542 1.349 . S
C543 C559 1.349 . S
C544 C542 1.327 . S
C544 C563 1.429 . S
C544 H568 0.950 . S
C545 C562 1.574 . S
C545 C564 1.368 . S
C545 H569 0.949 . S
H546 C550 0.949 . S
C547 C548 1.349 . S
C547 C549 1.327 . S
C547 H570 0.950 . S
C548 C547 1.349 . S
C548 C560 1.349 . S
C549 C547 1.327 . S
C549 C565 1.429 . S
C549 H571 0.950 . S
C550 H546 0.949 . S
C550 C558 1.574 . S
C550 C566 1.368 . S
H551 C559 0.950 . S
H552 C557 0.950 . S
H553 C558 0.949 . S
H554 C560 0.950 . S
H555 C561 0.950 . S
H556 C562 0.949 . S
C557 H552 0.950 . S
C557 C559 1.327 . S
C557 C563 1.429 . S
C558 C550 1.574 . S
C558 H553 0.949 . S
C558 C564 1.368 1_455 S
C559 C543 1.349 . S
C559 H551 0.950 . S
C559 C557 1.327 . S
C560 C548 1.349 . S
C560 H554 0.950 . S
C560 C561 1.327 . S
C561 H555 0.950 . S
C561 C560 1.327 . S
C561 C565 1.429 . S
C562 C545 1.574 . S
C562 H556 0.949 . S
C562 C566 1.368 1_655 S
C563 C544 1.429 . S
C563 C557 1.429 . S
C563 C564 1.523 . S
C564 C545 1.368 . S
C564 C558 1.368 1_655 S
C564 C563 1.523 . S
C565 C549 1.429 . S
C565 C561 1.429 . S
C565 C566 1.523 . S
C566 C550 1.368 . S
C566 C562 1.368 1_455 S
C566 C565 1.523 . S
H567 C542 0.950 . S
H568 C544 0.950 . S
H569 C545 0.949 . S
H570 C547 0.950 . S
H571 C549 0.950 . S
C572 C573 1.349 . S
C572 C574 1.327 . S
C572 H597 0.950 . S
C573 C572 1.349 . S
C573 C589 1.349 . S
C574 C572 1.327 . S
C574 C593 1.429 . S
C574 H598 0.950 . S
C575 C592 1.574 1_554 S
C575 C594 1.368 1_655 S
C575 H599 0.949 . S
H576 C580 0.949 . S
C577 C578 1.349 . S
C577 C579 1.327 . S
C577 H600 0.950 . S
C578 C577 1.349 . S
C578 C590 1.349 . S
C579 C577 1.327 . S
C579 C595 1.429 . S
C579 H601 0.950 . S
C580 H576 0.949 . S
C580 C588 1.574 1_556 S
C580 C596 1.368 1_455 S
H581 C589 0.950 . S
H582 C587 0.950 1_655 S
H583 C588 0.949 . S
H584 C590 0.950 . S
H585 C591 0.950 1_455 S
H586 C592 0.949 . S
C587 H582 0.950 1_455 S
C587 C589 1.327 . S
C587 C593 1.429 . S
C588 C580 1.574 1_554 S
C588 H583 0.949 . S
C588 C594 1.368 1_545 S
C589 C573 1.349 . S
C589 H581 0.950 . S
C589 C587 1.327 . S
C590 C578 1.349 . S
C590 H584 0.950 . S
C590 C591 1.327 . S
C591 H585 0.950 1_655 S
C591 C590 1.327 . S
C591 C595 1.429 . S
C592 C575 1.574 1_556 S
C592 H586 0.949 . S
C592 C596 1.368 1_565 S
C593 C574 1.429 . S
C593 C587 1.429 . S
C593 C594 1.523 . S
C594 C575 1.368 1_455 S
C594 C588 1.368 1_565 S
C594 C593 1.523 . S
C595 C579 1.429 . S
C595 C591 1.429 . S
C595 C596 1.523 . S
C596 C580 1.368 1_655 S
C596 C592 1.368 1_545 S
C596 C595 1.523 . S
H597 C572 0.950 . S
H598 C574 0.950 . S
H599 C575 0.949 . S
H600 C577 0.950 . S
H601 C579 0.950 . S
C602 C603 1.349 . S
C602 C604 1.327 . S
C602 H627 0.950 . S
C603 C602 1.349 . S
C603 C619 1.349 . S
C604 C602 1.327 . S
C604 C623 1.429 . S
C604 H628 0.950 . S
C605 C622 1.574 . S
C605 C624 1.368 . S
C605 H629 0.949 . S
H606 C610 0.949 . S
C607 C608 1.349 . S
C607 C609 1.327 . S
C607 H630 0.950 . S
C608 C607 1.349 . S
C608 C620 1.349 . S
C609 C607 1.327 . S
C609 C625 1.429 . S
C609 H631 0.950 . S
C610 H606 0.949 . S
C610 C618 1.574 . S
C610 C626 1.368 . S
H611 C619 0.950 . S
H612 C617 0.950 . S
H613 C618 0.949 . S
H614 C620 0.950 . S
H615 C621 0.950 . S
H616 C622 0.949 . S
C617 H612 0.950 . S
C617 C619 1.327 . S
C617 C623 1.429 . S
C618 C610 1.574 . S
C618 H613 0.949 . S
C618 C624 1.368 1_565 S
C619 C603 1.349 . S
C619 H611 0.950 . S
C619 C617 1.327 . S
C620 C608 1.349 . S
C620 H614 0.950 . S
C620 C621 1.327 . S
C621 H615 0.950 . S
C621 C620 1.327 . S
C621 C625 1.429 . S
C622 C605 1.574 . S
C622 H616 0.949 . S
C622 C626 1.368 1_545 S
C623 C604 1.429 . S
C623 C617 1.429 . S
C623 C624 1.523 . S
C624 C605 1.368 . S
C624 C618 1.368 1_545 S
C624 C623 1.523 . S
C625 C609 1.429 . S
C625 C621 1.429 . S
C625 C626 1.523 . S
C626 C610 1.368 . S
C626 C622 1.368 1_565 S
C626 C625 1.523 . S
H627 C602 0.950 . S
H628 C604 0.950 . S
H629 C605 0.949 . S
H630 C607 0.950 . S
H631 C609 0.950 . S
C632 C633 1.349 . S
C632 C634 1.327 . S
C632 H657 0.950 . S
C633 C632 1.349 . S
C633 C649 1.349 . S
C634 C632 1.327 . S
C634 C653 1.429 . S
C634 H658 0.950 . S
C635 C652 1.574 1_556 S
C635 C654 1.368 . S
C635 H659 0.949 . S
H636 C640 0.949 . S
C637 C638 1.349 . S
C637 C639 1.327 . S
C637 H660 0.950 . S
C638 C637 1.349 . S
C638 C650 1.349 . S
C639 C637 1.327 . S
C639 C655 1.429 . S
C639 H661 0.950 . S
C640 H636 0.949 . S
C640 C648 1.574 . S
C640 C656 1.368 . S
H641 C649 0.950 . S
H642 C647 0.950 . S
H643 C648 0.949 . S
H644 C650 0.950 . S
H645 C651 0.950 1_556 S
H646 C652 0.949 . S
C647 H642 0.950 . S
C647 C649 1.327 . S
C647 C653 1.429 . S
C648 C640 1.574 . S
C648 H643 0.949 . S
C648 C654 1.368 . S
C649 C633 1.349 . S
C649 H641 0.950 . S
C649 C647 1.327 . S
C650 C638 1.349 . S
C650 H644 0.950 . S
C650 C651 1.327 . S
C651 H645 0.950 1_554 S
C651 C650 1.327 . S
C651 C655 1.429 . S
C652 C635 1.574 1_554 S
C652 H646 0.949 . S
C652 C656 1.368 1_554 S
C653 C634 1.429 . S
C653 C647 1.429 . S
C653 C654 1.523 . S
C654 C635 1.368 . S
C654 C648 1.368 . S
C654 C653 1.523 . S
C655 C639 1.429 . S
C655 C651 1.429 . S
C655 C656 1.523 1_554 S
C656 C640 1.368 . S
C656 C652 1.368 1_556 S
C656 C655 1.523 1_556 S
H657 C632 0.950 . S
H658 C634 0.950 . S
H659 C635 0.949 . S
H660 C637 0.950 . S
H661 C639 0.950 . S
C662 C663 1.349 . S
C662 C664 1.327 . S
C662 H687 0.950 . S
C663 C662 1.349 . S
C663 C679 1.349 . S
C664 C662 1.327 . S
C664 C683 1.429 . S
C664 H688 0.950 . S
C665 C682 1.574 . S
C665 C684 1.368 . S
C665 H689 0.949 . S
H666 C670 0.949 . S
C667 C668 1.349 . S
C667 C669 1.327 . S
C667 H690 0.950 . S
C668 C667 1.349 . S
C668 C680 1.349 . S
C669 C667 1.327 . S
C669 C685 1.429 . S
C669 H691 0.950 . S
C670 H666 0.949 . S
C670 C678 1.574 . S
C670 C686 1.368 . S
H671 C679 0.950 . S
H672 C677 0.950 . S
H673 C678 0.949 . S
H674 C680 0.950 . S
H675 C681 0.950 . S
H676 C682 0.949 . S
C677 H672 0.950 . S
C677 C679 1.327 . S
C677 C683 1.429 . S
C678 C670 1.574 . S
C678 H673 0.949 . S
C678 C684 1.368 . S
C679 C663 1.349 . S
C679 H671 0.950 . S
C679 C677 1.327 . S
C680 C668 1.349 . S
C680 H674 0.950 . S
C680 C681 1.327 . S
C681 H675 0.950 . S
C681 C680 1.327 . S
C681 C685 1.429 . S
C682 C665 1.574 . S
C682 H676 0.949 . S
C682 C686 1.368 . S
C683 C664 1.429 . S
C683 C677 1.429 . S
C683 C684 1.523 . S
C684 C665 1.368 . S
C684 C678 1.368 . S
C684 C683 1.523 . S
C685 C669 1.429 . S
C685 C681 1.429 . S
C685 C686 1.523 . S
C686 C670 1.368 . S
C686 C682 1.368 . S
C686 C685 1.523 . S
H687 C662 0.950 . S
H688 C664 0.950 . S
H689 C665 0.949 . S
H690 C667 0.950 . S
H691 C669 0.950 . S
C692 C693 1.349 . S
C692 C694 1.327 . S
C692 H717 0.950 . S
C693 C692 1.349 . S
C693 C709 1.349 . S
C694 C692 1.327 . S
C694 C713 1.429 . S
C694 H718 0.950 . S
C695 C712 1.574 . S
C695 C714 1.368 . S
C695 H719 0.949 . S
H696 C700 0.949 . S
C697 C698 1.349 . S
C697 C699 1.327 . S
C697 H720 0.950 . S
C698 C697 1.349 . S
C698 C710 1.349 . S
C699 C697 1.327 . S
C699 C715 1.429 . S
C699 H721 0.950 . S
C700 H696 0.949 . S
C700 C708 1.560 1_554 S
C700 C716 1.368 . S
H701 C709 0.950 . S
H702 C707 0.950 1_554 S
H703 C708 0.969 . S
H704 C710 0.950 . S
H705 C711 0.950 . S
H706 C712 0.949 . S
C707 H702 0.950 1_556 S
C707 C709 1.327 . S
C707 C713 1.429 . S
C708 C700 1.560 1_556 S
C708 H703 0.969 . S
C708 C714 1.360 1_556 S
C709 C693 1.349 . S
C709 H701 0.950 . S
C709 C707 1.327 . S
C710 C698 1.349 . S
C710 H704 0.950 . S
C710 C711 1.327 . S
C711 H705 0.950 . S
C711 C710 1.327 . S
C711 C715 1.429 . S
C712 C695 1.574 . S
C712 H706 0.949 . S
C712 C716 1.368 . S
C713 C694 1.429 . S
C713 C707 1.429 . S
C713 C714 1.523 1_556 S
C714 C695 1.368 . S
C714 C708 1.360 1_554 S
C714 C713 1.523 1_554 S
C715 C699 1.429 . S
C715 C711 1.429 . S
C715 C716 1.523 . S
C716 C700 1.368 . S
C716 C712 1.368 . S
C716 C715 1.523 . S
H717 C692 0.950 . S
H718 C694 0.950 . S
H719 C695 0.949 . S
H720 C697 0.950 . S
H721 C699 0.950 . S
C722 C723 1.349 . S
C722 C724 1.327 . S
C722 H747 0.950 . S
C723 C722 1.349 . S
C723 C739 1.349 . S
C724 C722 1.327 . S
C724 C743 1.429 . S
C724 H748 0.950 . S
C725 C742 1.574 . S
C725 C744 1.368 . S
C725 H749 0.949 . S
H726 C730 0.949 . S
C727 C728 1.349 . S
C727 C729 1.327 . S
C727 H750 0.950 . S
C728 C727 1.349 . S
C728 C740 1.349 . S
C729 C727 1.327 . S
C729 C745 1.429 . S
C729 H751 0.950 . S
C730 H726 0.949 . S
C730 C738 1.574 . S
C730 C746 1.368 . S
H731 C739 0.950 . S
H732 C737 0.950 . S
H733 C738 0.949 . S
H734 C740 0.950 . S
H735 C741 0.950 . S
H736 C742 0.949 . S
C737 H732 0.950 . S
C737 C739 1.327 . S
C737 C743 1.429 . S
C738 C730 1.574 . S
C738 H733 0.949 . S
C738 C744 1.368 . S
C739 C723 1.349 . S
C739 H731 0.950 . S
C739 C737 1.327 . S
C740 C728 1.349 . S
C740 H734 0.950 . S
C740 C741 1.327 . S
C741 H735 0.950 . S
C741 C740 1.327 . S
C741 C745 1.429 . S
C742 C725 1.574 . S
C742 H736 0.949 . S
C742 C746 1.368 . S
C743 C724 1.429 . S
C743 C737 1.429 . S
C743 C744 1.523 . S
C744 C725 1.368 . S
C744 C738 1.368 . S
C744 C743 1.523 . S
C745 C729 1.429 . S
C745 C741 1.429 . S
C745 C746 1.523 . S
C746 C730 1.368 . S
C746 C742 1.368 . S
C746 C745 1.523 . S
H747 C722 0.950 . S
H748 C724 0.950 . S
H749 C725 0.949 . S
H750 C727 0.950 . S
H751 C729 0.950 . S
C752 C753 1.349 . S
C752 C754 1.327 . S
C752 H777 0.950 . S
C753 C752 1.349 . S
C753 C769 1.349 . S
C754 C752 1.327 . S
C754 C773 1.429 . S
C754 H778 0.950 . S
C755 C772 1.574 . S
C755 C774 1.368 . S
C755 H779 0.949 . S
H756 C760 0.949 . S
C757 C758 1.349 . S
C757 C759 1.327 . S
C757 H780 0.950 . S
C758 C757 1.349 . S
C758 C770 1.349 . S
C759 C757 1.327 . S
C759 C775 1.429 . S
C759 H781 0.950 . S
C760 H756 0.949 . S
C760 C768 1.574 . S
C760 C776 1.368 . S
H761 C769 0.950 . S
H762 C767 0.950 1_554 S
H763 C768 0.949 1_556 S
H764 C770 0.950 . S
H765 C771 0.950 . S
H766 C772 0.949 . S
C767 H762 0.950 1_556 S
C767 C769 1.327 . S
C767 C773 1.429 . S
C768 C760 1.574 . S
C768 H763 0.949 1_554 S
C768 C774 1.368 . S
C769 C753 1.349 . S
C769 H761 0.950 . S
C769 C767 1.327 . S
C770 C758 1.349 . S
C770 H764 0.950 . S
C770 C771 1.327 . S
C771 H765 0.950 . S
C771 C770 1.327 . S
C771 C775 1.429 . S
C772 C755 1.574 . S
C772 H766 0.949 . S
C772 C776 1.368 . S
C773 C754 1.429 . S
C773 C767 1.429 . S
C773 C774 1.523 1_556 S
C774 C755 1.368 . S
C774 C768 1.368 . S
C774 C773 1.523 1_554 S
C775 C759 1.429 . S
C775 C771 1.429 . S
C775 C776 1.523 . S
C776 C760 1.368 . S
C776 C772 1.368 . S
C776 C775 1.523 . S
H777 C752 0.950 . S
H778 C754 0.950 . S
H779 C755 0.949 . S
H780 C757 0.950 . S
H781 C759 0.950 . S
C782 C783 1.349 . S
C782 C784 1.327 . S
C782 H807 0.950 . S
C783 C782 1.349 . S
C783 C799 1.349 . S
C784 C782 1.327 . S
C784 C803 1.429 . S
C784 H808 0.950 . S
C785 C802 1.574 . S
C785 C804 1.368 . S
C785 H809 0.949 . S
H786 C790 0.949 . S
C787 C788 1.349 . S
C787 C789 1.327 . S
C787 H810 0.950 . S
C788 C787 1.349 . S
C788 C800 1.349 . S
C789 C787 1.327 . S
C789 C805 1.429 . S
C789 H811 0.950 . S
C790 H786 0.949 . S
C790 C798 1.574 . S
C790 C806 1.368 . S
H791 C799 0.950 . S
H792 C797 0.950 . S
H793 C798 0.949 . S
H794 C800 0.950 . S
H795 C801 0.950 . S
H796 C802 0.949 . S
C797 H792 0.950 . S
C797 C799 1.327 . S
C797 C803 1.429 . S
C798 C790 1.574 . S
C798 H793 0.949 . S
C798 C804 1.368 . S
C799 C783 1.349 . S
C799 H791 0.950 . S
C799 C797 1.327 . S
C800 C788 1.349 . S
C800 H794 0.950 . S
C800 C801 1.327 . S
C801 H795 0.950 . S
C801 C800 1.327 . S
C801 C805 1.429 . S
C802 C785 1.574 . S
C802 H796 0.949 . S
C802 C806 1.368 . S
C803 C784 1.429 . S
C803 C797 1.429 . S
C803 C804 1.523 . S
C804 C785 1.368 . S
C804 C798 1.368 . S
C804 C803 1.523 . S
C805 C789 1.429 . S
C805 C801 1.429 . S
C805 C806 1.523 . S
C806 C790 1.368 . S
C806 C802 1.368 . S
C806 C805 1.523 . S
H807 C782 0.950 . S
H808 C784 0.950 . S
H809 C785 0.949 . S
H810 C787 0.950 . S
H811 C789 0.950 . S
C812 C813 1.349 . S
C812 C814 1.327 . S
C812 H837 0.950 . S
C813 C812 1.349 . S
C813 C829 1.349 . S
C814 C812 1.327 . S
C814 C833 1.429 . S
C814 H838 0.950 . S
C815 C832 1.574 . S
C815 C834 1.368 . S
C815 H839 0.949 . S
H816 C820 0.949 1_554 S
C817 C818 1.349 . S
C817 C819 1.327 . S
C817 H840 0.950 . S
C818 C817 1.349 . S
C818 C830 1.349 . S
C819 C817 1.327 . S
C819 C835 1.429 . S
C819 H841 0.950 1_554 S
C820 H816 0.949 1_556 S
C820 C828 1.574 . S
C820 C836 1.368 . S
H821 C829 0.950 . S
H822 C827 0.950 . S
H823 C828 0.949 . S
H824 C830 0.950 . S
H825 C831 0.950 . S
H826 C832 0.949 . S
C827 H822 0.950 . S
C827 C829 1.327 . S
C827 C833 1.429 . S
C828 C820 1.574 . S
C828 H823 0.949 . S
C828 C834 1.368 . S
C829 C813 1.349 . S
C829 H821 0.950 . S
C829 C827 1.327 . S
C830 C818 1.349 . S
C830 H824 0.950 . S
C830 C831 1.327 . S
C831 H825 0.950 . S
C831 C830 1.327 . S
C831 C835 1.429 . S
C832 C815 1.574 . S
C832 H826 0.949 . S
C832 C836 1.368 . S
C833 C814 1.429 . S
C833 C827 1.429 . S
C833 C834 1.523 . S
C834 C815 1.368 . S
C834 C828 1.368 . S
C834 C833 1.523 . S
C835 C819 1.429 . S
C835 C831 1.429 . S
C835 C836 1.523 1_554 S
C836 C820 1.368 . S
C836 C832 1.368 . S
C836 C835 1.523 1_556 S
H837 C812 0.950 . S
H838 C814 0.950 . S
H839 C815 0.949 . S
H840 C817 0.950 . S
H841 C819 0.950 1_556 S
C842 C843 1.349 . S
C842 C844 1.327 . S
C842 H867 0.950 . S
C843 C842 1.349 . S
C843 C859 1.349 . S
C844 C842 1.327 . S
C844 C863 1.429 . S
C844 H868 0.950 . S
C845 C862 1.574 . S
C845 C864 1.368 . S
C845 H869 0.949 . S
H846 C850 0.949 . S
C847 C848 1.349 . S
C847 C849 1.327 . S
C847 H870 0.950 . S
C848 C847 1.349 . S
C848 C860 1.349 . S
C849 C847 1.327 . S
C849 C865 1.429 . S
C849 H871 0.950 . S
C850 H846 0.949 . S
C850 C858 1.574 . S
C850 C866 1.368 . S
H851 C859 0.950 . S
H852 C857 0.950 . S
H853 C858 0.949 . S
H854 C860 0.950 . S
H855 C861 0.950 . S
H856 C862 0.949 . S
C857 H852 0.950 . S
C857 C859 1.327 . S
C857 C863 1.429 . S
C858 C850 1.574 . S
C858 H853 0.949 . S
C858 C864 1.368 . S
C859 C843 1.349 . S
C859 H851 0.950 . S
C859 C857 1.327 . S
C860 C848 1.349 . S
C860 H854 0.950 . S
C860 C861 1.327 . S
C861 H855 0.950 . S
C861 C860 1.327 . S
C861 C865 1.429 . S
C862 C845 1.574 . S
C862 H856 0.949 . S
C862 C866 1.368 . S
C863 C844 1.429 . S
C863 C857 1.429 . S
C863 C864 1.523 . S
C864 C845 1.368 . S
C864 C858 1.368 . S
C864 C863 1.523 . S
C865 C849 1.429 . S
C865 C861 1.429 . S
C865 C866 1.523 . S
C866 C850 1.368 . S
C866 C862 1.368 . S
C866 C865 1.523 . S
H867 C842 0.950 . S
H868 C844 0.950 . S
H869 C845 0.949 . S
H870 C847 0.950 . S
H871 C849 0.950 . S
C872 C873 1.349 . S
C872 C874 1.327 . S
C872 H897 0.950 . S
C873 C872 1.349 . S
C873 C889 1.349 . S
C874 C872 1.327 . S
C874 C893 1.429 . S
C874 H898 0.950 . S
C875 C892 1.574 . S
C875 C894 1.368 . S
C875 H899 0.949 . S
H876 C880 0.949 . S
C877 C878 1.349 . S
C877 C879 1.327 . S
C877 H900 0.950 . S
C878 C877 1.349 . S
C878 C890 1.349 . S
C879 C877 1.327 . S
C879 C895 1.429 . S
C879 H901 0.950 . S
C880 H876 0.949 . S
C880 C888 1.574 . S
C880 C896 1.368 . S
H881 C889 0.950 . S
H882 C887 0.950 . S
H883 C888 0.949 . S
H884 C890 0.950 . S
H885 C891 0.950 . S
H886 C892 0.949 . S
C887 H882 0.950 . S
C887 C889 1.327 . S
C887 C893 1.429 . S
C888 C880 1.574 . S
C888 H883 0.949 . S
C888 C894 1.368 . S
C889 C873 1.349 . S
C889 H881 0.950 . S
C889 C887 1.327 . S
C890 C878 1.349 . S
C890 H884 0.950 . S
C890 C891 1.327 . S
C891 H885 0.950 . S
C891 C890 1.327 . S
C891 C895 1.429 . S
C892 C875 1.574 . S
C892 H886 0.949 . S
C892 C896 1.368 . S
C893 C874 1.429 . S
C893 C887 1.429 . S
C893 C894 1.523 . S
C894 C875 1.368 . S
C894 C888 1.368 . S
C894 C893 1.523 . S
C895 C879 1.429 . S
C895 C891 1.429 . S
C895 C896 1.523 . S
C896 C880 1.368 . S
C896 C892 1.368 . S
C896 C895 1.523 . S
H897 C872 0.950 . S
H898 C874 0.950 . S
H899 C875 0.949 . S
H900 C877 0.950 . S
H901 C879 0.950 . S
C902 C903 1.349 . S
C902 C904 1.327 . S
C902 H927 0.950 . S
C903 C902 1.349 . S
C903 C919 1.349 . S
C904 C902 1.327 . S
C904 C923 1.429 . S
C904 H928 0.950 . S
C905 C922 1.574 . S
C905 C924 1.368 . S
C905 H929 0.949 . S
H906 C910 0.949 . S
C907 C908 1.349 . S
C907 C909 1.327 . S
C907 H930 0.950 . S
C908 C907 1.349 . S
C908 C920 1.349 . S
C909 C907 1.327 . S
C909 C925 1.429 . S
C909 H931 0.950 . S
C910 H906 0.949 . S
C910 C918 1.574 . S
C910 C926 1.368 . S
H911 C919 0.950 . S
H912 C917 0.950 . S
H913 C918 0.949 . S
H914 C920 0.950 . S
H915 C921 0.950 . S
H916 C922 0.949 . S
C917 H912 0.950 . S
C917 C919 1.327 . S
C917 C923 1.429 . S
C918 C910 1.574 . S
C918 H913 0.949 . S
C918 C924 1.368 . S
C919 C903 1.349 . S
C919 H911 0.950 . S
C919 C917 1.327 . S
C920 C908 1.349 . S
C920 H914 0.950 . S
C920 C921 1.327 . S
C921 H915 0.950 . S
C921 C920 1.327 . S
C921 C925 1.429 . S
C922 C905 1.574 . S
C922 H916 0.949 . S
C922 C926 1.368 . S
C923 C904 1.429 . S
C923 C917 1.429 . S
C923 C924 1.523 . S
C924 C905 1.368 . S
C924 C918 1.368 . S
C924 C923 1.523 . S
C925 C909 1.429 . S
C925 C921 1.429 . S
C925 C926 1.523 . S
C926 C910 1.368 . S
C926 C922 1.368 . S
C926 C925 1.523 . S
H927 C902 0.950 . S
H928 C904 0.950 . S
H929 C905 0.949 . S
H930 C907 0.950 . S
H931 C909 0.950 . S
C932 C933 1.349 . S
C932 C934 1.327 . S
C932 H957 0.950 . S
C933 C932 1.349 . S
C933 C949 1.349 . S
C934 C932 1.327 . S
C934 C953 1.429 . S
C934 H958 0.950 . S
C935 C952 1.574 . S
C935 C954 1.368 . S
C935 H959 0.949 . S
H936 C940 0.949 . S
C937 C938 1.349 . S
C937 C939 1.327 . S
C937 H960 0.950 . S
C938 C937 1.349 . S
C938 C950 1.349 . S
C939 C937 1.327 . S
C939 C955 1.429 . S
C939 H961 0.950 . S
C940 H936 0.949 . S
C940 C948 1.574 . S
C940 C956 1.368 . S
H941 C949 0.950 . S
H942 C947 0.950 . S
H943 C948 0.949 . S
H944 C950 0.950 . S
H945 C951 0.950 . S
H946 C952 0.949 . S
C947 H942 0.950 . S
C947 C949 1.327 . S
C947 C953 1.429 . S
C948 C940 1.574 . S
C948 H943 0.949 . S
C948 C954 1.368 . S
C949 C933 1.349 . S
C949 H941 0.950 . S
C949 C947 1.327 . S
C950 C938 1.349 . S
C950 H944 0.950 . S
C950 C951 1.327 . S
C951 H945 0.950 . S
C951 C950 1.327 . S
C951 C955 1.429 . S
C952 C935 1.574 . S
C952 H946 0.949 . S
C952 C956 1.368 . S
C953 C934 1.429 . S
C953 C947 1.429 . S
C953 C954 1.523 . S
C954 C935 1.368 . S
C954 C948 1.368 . S
C954 C953 1.523 . S
C955 C939 1.429 . S
C955 C951 1.429 . S
C955 C956 1.523 . S
C956 C940 1.368 . S
C956 C952 1.368 . S
C956 C955 1.523 . S
H957 C932 0.950 . S
H958 C934 0.950 . S
H959 C935 0.949 . S
H960 C937 0.950 . S
H961 C939 0.950 . S
C962 C963 1.349 . S
C962 C964 1.327 . S
C962 H987 0.950 . S
C963 C962 1.349 . S
C963 C979 1.349 . S
C964 C962 1.327 . S
C964 C983 1.429 . S
C964 H988 0.950 . S
C965 C982 1.574 . S
C965 C984 1.368 . S
C965 H989 0.949 . S
H966 C970 0.949 . S
C967 C968 1.349 . S
C967 C969 1.327 . S
C967 H990 0.950 . S
C968 C967 1.349 . S
C968 C980 1.349 . S
C969 C967 1.327 . S
C969 C985 1.429 . S
C969 H991 0.950 . S
C970 H966 0.949 . S
C970 C978 1.574 . S
C970 C986 1.368 . S
H971 C979 0.950 . S
H972 C977 0.950 . S
H973 C978 0.949 . S
H974 C980 0.950 . S
H975 C981 0.950 . S
H976 C982 0.949 . S
C977 H972 0.950 . S
C977 C979 1.327 . S
C977 C983 1.429 . S
C978 C970 1.574 . S
C978 H973 0.949 . S
C978 C984 1.368 . S
C979 C963 1.349 . S
C979 H971 0.950 . S
C979 C977 1.327 . S
C980 C968 1.349 . S
C980 H974 0.950 . S
C980 C981 1.327 . S
C981 H975 0.950 . S
C981 C980 1.327 . S
C981 C985 1.429 . S
C982 C965 1.574 . S
C982 H976 0.949 . S
C982 C986 1.368 . S
C983 C964 1.429 . S
C983 C977 1.429 . S
C983 C984 1.523 . S
C984 C965 1.368 . S
C984 C978 1.368 . S
C984 C983 1.523 . S
C985 C969 1.429 . S
C985 C981 1.429 . S
C985 C986 1.523 . S
C986 C970 1.368 . S
C986 C982 1.368 . S
C986 C985 1.523 . S
H987 C962 0.950 . S
H988 C964 0.950 . S
H989 C965 0.949 . S
H990 C967 0.950 . S
H991 C969 0.950 . S
C992 C993 1.349 . S
C992 C994 1.327 . S
C992 H1017 0.950 . S
C993 C992 1.349 . S
C993 C1009 1.349 . S
C994 C992 1.327 . S
C994 C1013 1.429 . S
C994 H1018 0.950 . S
C995 C1012 1.574 . S
C995 C1014 1.368 . S
C995 H1019 0.949 . S
H996 C1000 0.949 . S
C997 C998 1.349 . S
C997 C999 1.327 . S
C997 H1020 0.950 . S
C998 C997 1.349 . S
C998 C1010 1.349 . S
C999 C997 1.327 . S
C999 C1015 1.429 . S
C999 H1021 0.950 . S
C1000 H996 0.949 . S
C1000 C1008 1.574 . S
C1000 C1016 1.368 . S
H1001 C1009 0.950 . S
H1002 C1007 0.950 . S
H1003 C1008 0.949 . S
H1004 C1010 0.950 . S
H1005 C1011 0.950 . S
H1006 C1012 0.949 . S
C1007 H1002 0.950 . S
C1007 C1009 1.327 . S
C1007 C1013 1.429 . S
C1008 C1000 1.574 . S
C1008 H1003 0.949 . S
C1008 C1014 1.368 . S
C1009 C993 1.349 . S
C1009 H1001 0.950 . S
C1009 C1007 1.327 . S
C1010 C998 1.349 . S
C1010 H1004 0.950 . S
C1010 C1011 1.327 . S
C1011 H1005 0.950 . S
C1011 C1010 1.327 . S
C1011 C1015 1.429 . S
C1012 C995 1.574 . S
C1012 H1006 0.949 . S
C1012 C1016 1.368 . S
C1013 C994 1.429 . S
C1013 C1007 1.429 . S
C1013 C1014 1.523 . S
C1014 C995 1.368 . S
C1014 C1008 1.368 . S
C1014 C1013 1.523 . S
C1015 C999 1.429 . S
C1015 C1011 1.429 . S
C1015 C1016 1.523 . S
C1016 C1000 1.368 . S
C1016 C1012 1.368 . S
C1016 C1015 1.523 . S
H1017 C992 0.950 . S
H1018 C994 0.950 . S
H1019 C995 0.949 . S
H1020 C997 0.950 . S
H1021 C999 0.950 . S
C1022 C1023 1.349 . S
C1022 C1024 1.327 . S
C1022 H1047 0.950 . S
C1023 C1022 1.349 . S
C1023 C1039 1.349 . S
C1024 C1022 1.327 . S
C1024 C1043 1.429 . S
C1024 H1048 0.950 . S
C1025 C1042 1.574 . S
C1025 C1044 1.368 . S
C1025 H1049 0.949 . S
H1026 C1030 0.949 . S
C1027 C1028 1.349 . S
C1027 C1029 1.327 . S
C1027 H1050 0.950 . S
C1028 C1027 1.349 . S
C1028 C1040 1.349 . S
C1029 C1027 1.327 . S
C1029 C1045 1.429 . S
C1029 H1051 0.950 . S
C1030 H1026 0.949 . S
C1030 C1038 1.574 . S
C1030 C1046 1.368 . S
H1031 C1039 0.950 . S
H1032 C1037 0.950 . S
H1033 C1038 0.949 . S
H1034 C1040 0.950 . S
H1035 C1041 0.950 . S
H1036 C1042 0.949 . S
C1037 H1032 0.950 . S
C1037 C1039 1.327 . S
C1037 C1043 1.429 . S
C1038 C1030 1.574 . S
C1038 H1033 0.949 . S
C1038 C1044 1.368 . S
C1039 C1023 1.349 . S
C1039 H1031 0.950 . S
C1039 C1037 1.327 . S
C1040 C1028 1.349 . S
C1040 H1034 0.950 . S
C1040 C1041 1.327 . S
C1041 H1035 0.950 . S
C1041 C1040 1.327 . S
C1041 C1045 1.429 . S
C1042 C1025 1.574 . S
C1042 H1036 0.949 . S
C1042 C1046 1.368 . S
C1043 C1024 1.429 . S
C1043 C1037 1.429 . S
C1043 C1044 1.523 . S
C1044 C1025 1.368 . S
C1044 C1038 1.368 . S
C1044 C1043 1.523 . S
C1045 C1029 1.429 . S
C1045 C1041 1.429 . S
C1045 C1046 1.523 . S
C1046 C1030 1.368 . S
C1046 C1042 1.368 . S
C1046 C1045 1.523 . S
H1047 C1022 0.950 . S
H1048 C1024 0.950 . S
H1049 C1025 0.949 . S
H1050 C1027 0.950 . S
H1051 C1029 0.950 . S
C1052 C1053 1.349 . S
C1052 C1054 1.327 . S
C1052 H1077 0.950 . S
C1053 C1052 1.349 . S
C1053 C1069 1.349 . S
C1054 C1052 1.327 . S
C1054 C1073 1.429 . S
C1054 H1078 0.950 . S
C1055 C1072 1.574 . S
C1055 C1074 1.368 . S
C1055 H1079 0.949 . S
H1056 C1060 0.949 . S
C1057 C1058 1.349 . S
C1057 C1059 1.327 . S
C1057 H1080 0.950 . S
C1058 C1057 1.349 . S
C1058 C1070 1.349 . S
C1059 C1057 1.327 . S
C1059 C1075 1.429 . S
C1059 H1081 0.950 . S
C1060 H1056 0.949 . S
C1060 C1068 1.574 . S
C1060 C1076 1.368 . S
H1061 C1069 0.950 . S
H1062 C1067 0.950 . S
H1063 C1068 0.949 . S
H1064 C1070 0.950 . S
H1065 C1071 0.950 . S
H1066 C1072 0.949 . S
C1067 H1062 0.950 . S
C1067 C1069 1.327 . S
C1067 C1073 1.429 . S
C1068 C1060 1.574 . S
C1068 H1063 0.949 . S
C1068 C1074 1.368 . S
C1069 C1053 1.349 . S
C1069 H1061 0.950 . S
C1069 C1067 1.327 . S
C1070 C1058 1.349 . S
C1070 H1064 0.950 . S
C1070 C1071 1.327 . S
C1071 H1065 0.950 . S
C1071 C1070 1.327 . S
C1071 C1075 1.429 . S
C1072 C1055 1.574 . S
C1072 H1066 0.949 . S
C1072 C1076 1.368 . S
C1073 C1054 1.429 . S
C1073 C1067 1.429 . S
C1073 C1074 1.523 . S
C1074 C1055 1.368 . S
C1074 C1068 1.368 . S
C1074 C1073 1.523 . S
C1075 C1059 1.429 . S
C1075 C1071 1.429 . S
C1075 C1076 1.523 . S
C1076 C1060 1.368 . S
C1076 C1072 1.368 . S
C1076 C1075 1.523 . S
H1077 C1052 0.950 . S
H1078 C1054 0.950 . S
H1079 C1055 0.949 . S
H1080 C1057 0.950 . S
H1081 C1059 0.950 . S
C1082 C1083 1.349 . S
C1082 C1084 1.327 . S
C1082 H1107 0.950 . S
C1083 C1082 1.349 . S
C1083 C1099 1.349 . S
C1084 C1082 1.327 . S
C1084 C1103 1.429 . S
C1084 H1108 0.950 . S
C1085 C1102 1.574 . S
C1085 C1104 1.368 . S
C1085 H1109 0.949 . S
H1086 C1090 0.949 . S
C1087 C1088 1.349 . S
C1087 C1089 1.327 . S
C1087 H1110 0.950 . S
C1088 C1087 1.349 . S
C1088 C1100 1.349 . S
C1089 C1087 1.327 . S
C1089 C1105 1.429 . S
C1089 H1111 0.950 . S
C1090 H1086 0.949 . S
C1090 C1098 1.574 . S
C1090 C1106 1.368 . S
H1091 C1099 0.950 . S
H1092 C1097 0.950 . S
H1093 C1098 0.949 . S
H1094 C1100 0.950 . S
H1095 C1101 0.950 . S
H1096 C1102 0.949 . S
C1097 H1092 0.950 . S
C1097 C1099 1.327 . S
C1097 C1103 1.429 . S
C1098 C1090 1.574 . S
C1098 H1093 0.949 . S
C1098 C1104 1.368 . S
C1099 C1083 1.349 . S
C1099 H1091 0.950 . S
C1099 C1097 1.327 . S
C1100 C1088 1.349 . S
C1100 H1094 0.950 . S
C1100 C1101 1.327 . S
C1101 H1095 0.950 . S
C1101 C1100 1.327 . S
C1101 C1105 1.429 . S
C1102 C1085 1.574 . S
C1102 H1096 0.949 . S
C1102 C1106 1.368 . S
C1103 C1084 1.429 . S
C1103 C1097 1.429 . S
C1103 C1104 1.523 . S
C1104 C1085 1.368 . S
C1104 C1098 1.368 . S
C1104 C1103 1.523 . S
C1105 C1089 1.429 . S
C1105 C1101 1.429 . S
C1105 C1106 1.523 . S
C1106 C1090 1.368 . S
C1106 C1102 1.368 . S
C1106 C1105 1.523 . S
H1107 C1082 0.950 . S
H1108 C1084 0.950 . S
H1109 C1085 0.949 . S
H1110 C1087 0.950 . S
H1111 C1089 0.950 . S
C273 C3 1.464 . S
C278 C49 1.572 . S
C303 C37 1.464 . S
C308 C15 1.572 . S
C333 C69 1.464 . S
C338 C117 1.572 . S
C363 C105 1.465 . S
C368 C90 1.572 . S
C393 C137 1.464 . S
C398 C192 1.572 . S
C423 C171 1.464 . S
C428 C158 1.572 . S
C453 C260 1.572 . S
C458 C207 1.464 . S
C483 C239 1.465 . S
C488 C219 1.572 . S
C513 C1 1.969 . S
C518 C139 1.969 . S
C543 C173 1.969 . S
C548 C35 1.969 . S
C573 C205 1.969 . S
C578 C71 1.969 . S
C603 C241 1.969 . S
C608 C103 1.969 . S
C633 C255 1.889 . S
C638 C22 1.670 . S
C663 C221 1.889 . S
C668 C56 1.671 . S
C693 C83 1.671 . S
C698 C187 1.889 . S
C723 C153 1.889 . S
C728 C124 1.670 . S
C753 C151 1.670 . S
C758 C119 1.889 . S
C783 C185 1.671 . S
C788 C85 1.889 . S
C813 C51 1.889 . S
C818 C226 1.671 . S
C843 C17 1.889 . S
C848 C253 1.670 . S
C873 C176 1.232 . S
C878 C6 1.233 . S
C903 C40 1.233 1_655 S
C908 C142 1.232 . S
C933 C244 1.232 . S
C938 C96 1.233 1_455 S
C963 C108 1.233 . S
C968 C232 1.232 . S
C993 C164 1.233 . S
C998 C62 1.232 . S
C1023 C28 1.232 . S
C1028 C198 1.233 1_455 S
C1053 C130 1.232 . S
C1058 C210 1.233 1_655 S
C1083 C266 1.233 . S
C1088 C74 1.232 . S
