# Generated by pormake.
# Topology ske, (6)-cn, num edge types: 1
# Building blocks:
#     Node 0, Type 0, BuildingBlock: KUMBOL_clean_sbu_1, # of connection points: 6
#     Node 1, Type 0, BuildingBlock: KUMBOL_clean_sbu_1, # of connection points: 6
#     Node 2, Type 0, BuildingBlock: KUMBOL_clean_sbu_1, # of connection points: 6
#     Node 3, Type 0, BuildingBlock: KUMBOL_clean_sbu_1, # of connection points: 6
#     Node 4, Type 0, BuildingBlock: KUMBOL_clean_sbu_1, # of connection points: 6
#     Node 5, Type 0, BuildingBlock: KUMBOL_clean_sbu_1, # of connection points: 6
#     Node 6, Type 0, BuildingBlock: KUMBOL_clean_sbu_1, # of connection points: 6
#     Node 7, Type 0, BuildingBlock: KUMBOL_clean_sbu_1, # of connection points: 6
#     Edge 8, Type (0, 0), BuildingBlock: OJICUG_clean_linker_0, # of connection points: 2
#     Edge 9, Type (0, 0), BuildingBlock: OJICUG_clean_linker_0, # of connection points: 2
#     Edge 10, Type (0, 0), BuildingBlock: OJICUG_clean_linker_0, # of connection points: 2
#     Edge 11, Type (0, 0), BuildingBlock: OJICUG_clean_linker_0, # of connection points: 2
#     Edge 12, Type (0, 0), BuildingBlock: OJICUG_clean_linker_0, # of connection points: 2
#     Edge 13, Type (0, 0), BuildingBlock: OJICUG_clean_linker_0, # of connection points: 2
#     Edge 14, Type (0, 0), BuildingBlock: OJICUG_clean_linker_0, # of connection points: 2
#     Edge 15, Type (0, 0), BuildingBlock: OJICUG_clean_linker_0, # of connection points: 2
#     Edge 16, Type (0, 0), BuildingBlock: OJICUG_clean_linker_0, # of connection points: 2
#     Edge 17, Type (0, 0), BuildingBlock: OJICUG_clean_linker_0, # of connection points: 2
#     Edge 18, Type (0, 0), BuildingBlock: OJICUG_clean_linker_0, # of connection points: 2
#     Edge 19, Type (0, 0), BuildingBlock: OJICUG_clean_linker_0, # of connection points: 2
#     Edge 20, Type (0, 0), BuildingBlock: OJICUG_clean_linker_0, # of connection points: 2
#     Edge 21, Type (0, 0), BuildingBlock: OJICUG_clean_linker_0, # of connection points: 2
#     Edge 22, Type (0, 0), BuildingBlock: OJICUG_clean_linker_0, # of connection points: 2
#     Edge 23, Type (0, 0), BuildingBlock: OJICUG_clean_linker_0, # of connection points: 2
#     Edge 24, Type (0, 0), BuildingBlock: OJICUG_clean_linker_0, # of connection points: 2
#     Edge 25, Type (0, 0), BuildingBlock: OJICUG_clean_linker_0, # of connection points: 2
#     Edge 26, Type (0, 0), BuildingBlock: OJICUG_clean_linker_0, # of connection points: 2
#     Edge 27, Type (0, 0), BuildingBlock: OJICUG_clean_linker_0, # of connection points: 2
#     Edge 28, Type (0, 0), BuildingBlock: OJICUG_clean_linker_0, # of connection points: 2
#     Edge 29, Type (0, 0), BuildingBlock: OJICUG_clean_linker_0, # of connection points: 2
#     Edge 30, Type (0, 0), BuildingBlock: OJICUG_clean_linker_0, # of connection points: 2
#     Edge 31, Type (0, 0), BuildingBlock: OJICUG_clean_linker_0, # of connection points: 2
# Relax obj value: 0.211
# Max RMSD: 0.238
# Mean RMSD: 0.234
data_MOF--net-ske--node1-KUMBOL_clean_sbu_1--edge1-OJICUG_clean_linker_0
_symmetry_space_group_name_H-M    P1
_symmetry_Int_Tables_number       1
_symmetry_cell_setting            triclinic
loop_
_symmetry_equiv_pos_as_xyz
'x, y, z'
_cell_length_a     83.868372
_cell_length_b     21.679057
_cell_length_c     11.22659
_cell_angle_alpha  99.297041
_cell_angle_beta   90.034775
_cell_angle_gamma 89.930282
loop_
_atom_site_label
_atom_site_type_symbol
_atom_site_fract_x
_atom_site_fract_y
_atom_site_fract_z
_atom_type_partial_charge
C0 C 0.09157 0.25297 0.81291 0.0
C1 C 0.08054 0.35572 0.88864 0.0
C2 C 0.08828 0.31431 0.79686 0.0
C3 C 0.07604 0.33484 0.99585 0.0
C4 C 0.08736 0.23252 0.92172 0.0
C5 C 0.0795 0.27359 1.01254 0.0
N6 N 0.09978 0.21471 0.72548 0.0
C7 C 0.10281 0.15418 0.73686 0.0
C8 C 0.09166 0.17198 0.93751 0.0
C9 C 0.09915 0.13229 0.84395 0.0
Gd10 Gd 0.15317 0.26496 0.54462 0.0
Gd11 Gd 0.10554 0.25785 0.55194 0.0
N12 N 0.09348 0.33437 0.69465 0.0
C13 C 0.0779 0.41744 0.87124 0.0
C14 C 0.09067 0.3941 0.67617 0.0
C15 C 0.08294 0.43661 0.76445 0.0
H16 H 0.09408 0.40895 0.59262 0.0
H17 H 0.08082 0.48408 0.74986 0.0
H18 H 0.16672 0.12028 0.56182 0.0
H19 H 0.10776 0.12227 0.66328 0.0
H20 H 0.18235 0.0376 0.43722 0.0
H21 H 0.07202 0.45067 0.93976 0.0
H22 H 0.07013 0.36609 0.06744 0.0
H23 H 0.1539 0.38787 0.39859 0.0
H24 H 0.0893 0.1554 0.02142 0.0
H25 H 0.10202 0.08471 0.854 0.0
H26 H 0.19767 0.12832 0.09172 0.0
H27 H 0.07625 0.25877 0.09685 0.0
H28 H 0.18048 0.33752 0.07228 0.0
H29 H 0.16452 0.41503 0.20881 0.0
N30 N 0.16275 0.29507 0.36604 0.0
C31 C 0.17216 0.25288 0.29546 0.0
C32 C 0.16035 0.35325 0.3379 0.0
C33 C 0.17569 0.32526 0.15496 0.0
C34 C 0.1666 0.369 0.23136 0.0
C35 C 0.17867 0.2665 0.18695 0.0
H36 H 0.19292 0.23065 0.02994 0.0
N37 N 0.16823 0.18337 0.43529 0.0
C38 C 0.17476 0.19505 0.33029 0.0
C39 C 0.18661 0.09203 0.29595 0.0
C40 C 0.18406 0.14952 0.25743 0.0
C41 C 0.17113 0.12814 0.47519 0.0
C42 C 0.1802 0.08148 0.40564 0.0
O43 O 0.11972 0.29538 0.72698 0.0
O44 O 0.14255 0.23747 0.71498 0.0
O45 O 0.17663 0.25103 0.61937 0.0
O46 O 0.16662 0.34382 0.63942 0.0
O47 O 0.11502 0.34273 0.48373 0.0
O48 O 0.13896 0.35642 0.5872 0.0
O49 O 0.14142 0.24253 0.35708 0.0
O50 O 0.1146 0.27082 0.36466 0.0
O51 O 0.08207 0.28423 0.49037 0.0
O52 O 0.0872 0.18807 0.50398 0.0
O53 O 0.14166 0.17844 0.5944 0.0
O54 O 0.1189 0.16752 0.47978 0.0
C55 C 0.13111 0.26749 0.78047 0.0
C56 C 0.12714 0.37771 0.52718 0.0
C57 C 0.19492 0.33398 0.62094 0.0
C58 C 0.22403 0.33818 0.64615 0.0
C59 C 0.21117 0.39131 0.49687 0.0
C60 C 0.19624 0.37144 0.53044 0.0
C61 C 0.22498 0.37459 0.55361 0.0
C62 C 0.20888 0.31795 0.6793 0.0
C63 C 0.17921 0.31029 0.65379 0.0
C64 C 0.19053 0.1628 0.14896 0.0
C65 C 0.18785 0.22112 0.11383 0.0
H66 H 0.19367 0.05582 0.24248 0.0
C67 C 0.12802 0.25591 0.30426 0.0
C68 C 0.13142 0.14311 0.52605 0.0
C69 C 0.0663 0.20558 0.37148 0.0
C70 C 0.03947 0.19173 0.28308 0.0
C71 C 0.06251 0.14207 0.17508 0.0
C72 C 0.07259 0.16806 0.26875 0.0
C73 C 0.04617 0.15402 0.18156 0.0
C74 C 0.0497 0.21722 0.37854 0.0
C75 C 0.07659 0.22742 0.47667 0.0
H76 H 0.21203 0.42005 0.42675 0.0
H77 H 0.18577 0.3855 0.48563 0.0
H78 H 0.23639 0.39125 0.5268 0.0
H79 H 0.20795 0.28913 0.74944 0.0
H80 H 0.06729 0.11142 0.09775 0.0
H81 H 0.08523 0.15767 0.26228 0.0
H82 H 0.0387 0.13201 0.10814 0.0
H83 H 0.04478 0.24542 0.45864 0.0
C84 C 0.83914 0.31775 0.32343 0.0
C85 C 0.83203 0.22767 0.17484 0.0
C86 C 0.83877 0.25316 0.28713 0.0
C87 C 0.82569 0.26765 0.10001 0.0
C88 C 0.8327 0.35795 0.24876 0.0
C89 C 0.82601 0.33255 0.13689 0.0
N90 N 0.84609 0.34121 0.43093 0.0
C91 C 0.8461 0.40395 0.47223 0.0
C92 C 0.83322 0.42255 0.28867 0.0
C93 C 0.83984 0.44558 0.40126 0.0
Gd94 Gd 0.90313 0.23594 0.53625 0.0
Gd95 Gd 0.85595 0.26749 0.54404 0.0
N96 N 0.8455 0.21557 0.35993 0.0
C97 C 0.83191 0.16268 0.14084 0.0
C98 C 0.84474 0.15213 0.32935 0.0
C99 C 0.83815 0.1248 0.21893 0.0
H100 H 0.84882 0.12205 0.39029 0.0
H101 H 0.83775 0.07443 0.19465 0.0
H102 H 0.91375 0.391 0.60413 0.0
H103 H 0.85066 0.42191 0.56101 0.0
H104 H 0.92254 0.46387 0.78087 0.0
H105 H 0.82684 0.14127 0.05531 0.0
H106 H 0.8205 0.24884 1.01331 0.0
H107 H 0.90707 0.09334 0.60915 0.0
H108 H 0.8284 0.45498 0.23392 0.0
H109 H 0.84002 0.49536 0.4338 0.0
H110 H 0.9336 0.33385 0.07677 0.0
H111 H 0.82105 0.36271 0.07811 0.0
H112 H 0.92698 0.11273 0.96396 0.0
H113 H 0.91697 0.04543 0.78078 0.0
N114 N 0.91152 0.18633 0.69579 0.0
C115 C 0.91774 0.22423 0.79337 0.0
C116 C 0.91151 0.12282 0.68908 0.0
C117 C 0.92302 0.13388 0.88843 0.0
C118 C 0.91721 0.09568 0.78547 0.0
C119 C 0.9234 0.19887 0.89339 0.0
H120 H 0.93312 0.2206 0.07397 0.0
N121 N 0.91241 0.31218 0.69621 0.0
C122 C 0.91773 0.28877 0.79499 0.0
C123 C 0.9248 0.39281 0.89323 0.0
C124 C 0.92378 0.32879 0.89683 0.0
C125 C 0.9152 0.37353 0.68792 0.0
C126 C 0.92084 0.41502 0.78728 0.0
O127 O 0.86893 0.27814 0.36744 0.0
O128 O 0.89174 0.21695 0.34724 0.0
O129 O 0.9256 0.26759 0.46472 0.0
O130 O 0.92248 0.17138 0.48468 0.0
O131 O 0.86448 0.16971 0.5679 0.0
O132 O 0.88792 0.15323 0.45802 0.0
O133 O 0.88852 0.21692 0.70156 0.0
O134 O 0.86844 0.28927 0.72711 0.0
O135 O 0.8346 0.22077 0.59825 0.0
O136 O 0.837 0.32053 0.64517 0.0
O137 O 0.8943 0.32895 0.49021 0.0
O138 O 0.87241 0.34783 0.61368 0.0
C139 C 0.88007 0.2465 0.29987 0.0
C140 C 0.87558 0.13227 0.51189 0.0
C141 C 0.94315 0.19121 0.35362 0.0
C142 C 0.9705 0.18182 0.27499 0.0
C143 C 0.94906 0.12004 0.16916 0.0
C144 C 0.9381 0.14687 0.25581 0.0
C145 C 0.96505 0.13776 0.17766 0.0
C146 C 0.95942 0.20828 0.36339 0.0
C147 C 0.9322 0.21267 0.45483 0.0
C148 C 0.92908 0.30367 0.99759 0.0
C149 C 0.92891 0.239 0.99576 0.0
H150 H 0.92935 0.425 0.96957 0.0
C151 C 0.87862 0.25315 0.77294 0.0
C152 C 0.88346 0.36745 0.5457 0.0
C153 C 0.81071 0.28159 0.60885 0.0
C154 C 0.78203 0.2623 0.63045 0.0
C155 C 0.79126 0.33201 0.49556 0.0
C156 C 0.80699 0.32223 0.52725 0.0
C157 C 0.77888 0.30249 0.54655 0.0
C158 C 0.79811 0.25186 0.66107 0.0
C159 C 0.82757 0.27285 0.64393 0.0
H160 H 0.94526 0.08422 0.09636 0.0
H161 H 0.92578 0.13173 0.24819 0.0
H162 H 0.97329 0.11527 0.10993 0.0
H163 H 0.96347 0.24103 0.44075 0.0
H164 H 0.78862 0.36365 0.43275 0.0
H165 H 0.81614 0.34783 0.48952 0.0
H166 H 0.76676 0.31277 0.5227 0.0
H167 H 0.80082 0.22111 0.72549 0.0
C168 C 0.08969 0.77535 0.21679 0.0
C169 C 0.08485 0.6696 0.11461 0.0
C170 C 0.09042 0.71105 0.21628 0.0
C171 C 0.07935 0.69326 1.01272 0.0
C172 C 0.08369 0.79924 0.11606 0.0
C173 C 0.07872 0.75784 1.01361 0.0
N174 N 0.09529 0.81464 0.31478 0.0
C175 C 0.09436 0.87801 0.32111 0.0
C176 C 0.08308 0.86417 0.12073 0.0
C177 C 0.0883 0.90372 0.22404 0.0
Gd178 Gd 0.15187 0.73789 0.46614 0.0
Gd179 Gd 0.10438 0.76756 0.47583 0.0
N180 N 0.09581 0.6892 0.31654 0.0
C181 C 0.08438 0.60564 0.11982 0.0
C182 C 0.09338 0.62782 0.32651 0.0
C183 C 0.08828 0.5849 0.22734 0.0
H184 H 0.09474 0.61139 0.41144 0.0
H185 H 0.08692 0.53605 0.23509 0.0
H186 H 0.15867 0.87387 0.64817 0.0
H187 H 0.09836 0.90849 0.40133 0.0
H188 H 0.17067 0.91074 0.84774 0.0
H189 H 0.08021 0.57236 0.04367 0.0
H190 H 0.07518 0.66199 0.93369 0.0
H191 H 0.15742 0.58237 0.41089 0.0
H192 H 0.07874 0.88427 0.04488 0.0
H193 H 0.08777 0.95393 0.22853 0.0
H194 H 0.18878 0.72284 0.98076 0.0
H195 H 0.07425 0.77522 0.93486 0.0
H196 H 0.18015 0.52783 0.71919 0.0
H197 H 0.1683 0.49981 0.51583 0.0
N198 N 0.16192 0.65563 0.55719 0.0
C199 C 0.16906 0.67242 0.66659 0.0
C200 C 0.16205 0.59483 0.50138 0.0
C201 C 0.17517 0.56415 0.67441 0.0
C202 C 0.16844 0.54809 0.55975 0.0
C203 C 0.17571 0.627 0.72875 0.0
H204 H 0.1879 0.61147 0.89162 0.0
N205 N 0.16289 0.77801 0.65509 0.0
C206 C 0.16981 0.73549 0.71616 0.0
C207 C 0.17704 0.81818 0.87801 0.0
C208 C 0.17686 0.75441 0.83011 0.0
C209 C 0.16345 0.84029 0.69956 0.0
C210 C 0.1704 0.86129 0.8121 0.0
O211 O 0.11899 0.79015 0.31295 0.0
O212 O 0.13899 0.7175 0.28501 0.0
O213 O 0.17305 0.78902 0.42109 0.0
O214 O 0.17065 0.69085 0.35351 0.0
O215 O 0.11378 0.67637 0.5256 0.0
O216 O 0.135 0.65939 0.39676 0.0
O217 O 0.13947 0.73201 0.64748 0.0
O218 O 0.11552 0.78675 0.66522 0.0
O219 O 0.08203 0.7336 0.54519 0.0
O220 O 0.08487 0.83078 0.53137 0.0
O221 O 0.14338 0.83713 0.45251 0.0
O222 O 0.11904 0.85208 0.55309 0.0
C223 C 0.12895 0.75461 0.24057 0.0
C224 C 0.12473 0.63893 0.46928 0.0
C225 C 0.19696 0.72759 0.39645 0.0
C226 C 0.22572 0.74698 0.3791 0.0
C227 C 0.21629 0.66693 0.49082 0.0
C228 C 0.2006 0.6802 0.46398 0.0
C229 C 0.22874 0.69971 0.44868 0.0
C230 C 0.20966 0.76086 0.35333 0.0
C231 C 0.18007 0.73901 0.36484 0.0
C232 C 0.18334 0.7092 0.89291 0.0
C233 C 0.18279 0.64572 0.84229 0.0
H234 H 0.18235 0.83462 0.9654 0.0
C235 C 0.1277 0.76037 0.71336 0.0
C236 C 0.132 0.87353 0.50759 0.0
C237 C 0.06435 0.80769 0.66171 0.0
C238 C 0.03694 0.81172 0.73923 0.0
C239 C 0.05726 0.88114 0.8408 0.0
C240 C 0.06864 0.85532 0.7564 0.0
C241 C 0.04156 0.85966 0.83247 0.0
C242 C 0.04851 0.78539 0.65458 0.0
C243 C 0.07533 0.78842 0.55946 0.0
H244 H 0.21882 0.62998 0.54245 0.0
H245 H 0.19142 0.65181 0.49371 0.0
H246 H 0.24081 0.68648 0.46782 0.0
H247 H 0.20705 0.79685 0.29949 0.0
H248 H 0.06053 0.91898 0.91162 0.0
H249 H 0.08065 0.8739 0.76294 0.0
H250 H 0.03298 0.88074 0.89897 0.0
H251 H 0.045 0.74989 0.57976 0.0
C252 C 0.83944 0.72134 0.75729 0.0
C253 C 0.83253 0.82541 0.8588 0.0
C254 C 0.83913 0.78579 0.75863 0.0
C255 C 0.82707 0.80002 0.9587 0.0
C256 C 0.83355 0.69562 0.85611 0.0
C257 C 0.82755 0.73539 0.95723 0.0
N258 N 0.84594 0.68383 0.66041 0.0
C259 C 0.84604 0.62031 0.65326 0.0
C260 C 0.83405 0.63062 0.85079 0.0
C261 C 0.84018 0.59279 0.74853 0.0
Gd262 Gd 0.90186 0.76267 0.50581 0.0
Gd263 Gd 0.85482 0.73407 0.50308 0.0
N264 N 0.84454 0.80938 0.66049 0.0
C265 C 0.83108 0.88921 0.85406 0.0
C266 C 0.84135 0.87028 0.65066 0.0
C267 C 0.83516 0.91144 0.74841 0.0
H268 H 0.84305 0.88759 0.56684 0.0
H269 H 0.83316 0.96002 0.741 0.0
H270 H 0.90318 0.62727 0.31011 0.0
H271 H 0.85061 0.5911 0.57354 0.0
H272 H 0.91181 0.59103 0.10058 0.0
H273 H 0.82609 0.92111 0.9291 0.0
H274 H 0.82211 0.82989 0.03664 0.0
H275 H 0.90927 0.91706 0.56239 0.0
H276 H 0.82981 0.60916 0.92512 0.0
H277 H 0.84046 0.5425 0.74329 0.0
H278 H 0.93331 0.77473 0.97226 0.0
H279 H 0.82311 0.71671 0.03445 0.0
H280 H 0.93096 0.96802 0.24711 0.0
H281 H 0.92074 0.99757 0.45518 0.0
N282 N 0.9124 0.84334 0.41448 0.0
C283 C 0.91844 0.82553 0.30149 0.0
C284 C 0.91343 0.90389 0.47071 0.0
C285 C 0.9259 0.9325 0.29348 0.0
C286 C 0.92007 0.94945 0.41078 0.0
C287 C 0.92516 0.86995 0.23738 0.0
H288 H 0.93581 0.88439 0.06823 0.0
N289 N 0.90982 0.72166 0.30876 0.0
C290 C 0.91725 0.76294 0.24745 0.0
C291 C 0.92029 0.68167 0.0745 0.0
C292 C 0.92248 0.74407 0.12785 0.0
C293 C 0.90832 0.66025 0.25919 0.0
C294 C 0.91335 0.6395 0.14082 0.0
O295 O 0.86909 0.7159 0.67048 0.0
O296 O 0.8908 0.78168 0.69486 0.0
O297 O 0.92251 0.70516 0.52238 0.0
O298 O 0.92339 0.80337 0.59857 0.0
O299 O 0.86443 0.82895 0.47128 0.0
O300 O 0.88675 0.84396 0.59201 0.0
O301 O 0.88777 0.77908 0.33657 0.0
O302 O 0.86616 0.71281 0.31522 0.0
O303 O 0.83351 0.76726 0.41737 0.0
O304 O 0.83465 0.67324 0.45518 0.0
O305 O 0.89333 0.66619 0.53381 0.0
O306 O 0.86957 0.64879 0.4289 0.0
C307 C 0.87957 0.74981 0.74081 0.0
C308 C 0.87497 0.86616 0.5342 0.0
C309 C 0.94274 0.73501 0.66738 0.0
C310 C 0.97059 0.73366 0.73421 0.0
C311 C 0.95061 0.67014 0.8145 0.0
C312 C 0.93883 0.69209 0.74374 0.0
C313 C 0.96635 0.69052 0.80968 0.0
C314 C 0.9586 0.75631 0.66412 0.0
C315 C 0.93119 0.75076 0.57768 0.0
C316 C 0.92927 0.78826 0.06432 0.0
C317 C 0.93065 0.85088 0.11898 0.0
H318 H 0.92378 0.6656 0.98205 0.0
C319 C 0.87691 0.7463 0.26813 0.0
C320 C 0.88204 0.6285 0.48272 0.0
C321 C 0.81548 0.69113 0.31041 0.0
C322 C 0.78834 0.68257 0.22634 0.0
C323 C 0.8095 0.61387 0.13451 0.0
C324 C 0.8204 0.64227 0.22036 0.0
C325 C 0.79366 0.63403 0.13664 0.0
C326 C 0.79947 0.71125 0.31262 0.0
C327 C 0.82601 0.71448 0.41356 0.0
H328 H 0.94761 0.63627 0.87185 0.0
H329 H 0.92678 0.67437 0.74627 0.0
H330 H 0.97524 0.67253 0.86517 0.0
H331 H 0.96176 0.78817 0.60279 0.0
H332 H 0.81323 0.57489 0.06768 0.0
H333 H 0.83253 0.62488 0.21854 0.0
H334 H 0.78543 0.60991 0.0707 0.0
H335 H 0.79559 0.74803 0.38388 0.0
C336 C 0.59606 0.80555 0.3344 0.0
C337 C 0.59642 0.9184 0.37223 0.0
C338 C 0.59801 0.86146 0.2924 0.0
C339 C 0.59499 0.91766 0.49672 0.0
C340 C 0.59268 0.80459 0.45697 0.0
C341 C 0.59307 0.86075 0.53914 0.0
N342 N 0.59618 0.7522 0.25297 0.0
C343 C 0.59108 0.69716 0.28422 0.0
C344 C 0.58854 0.74753 0.49188 0.0
C345 C 0.5873 0.69389 0.40447 0.0
Gd346 Gd 0.65331 0.76313 0.03856 0.0
Gd347 Gd 0.60469 0.75996 0.05678 0.0
N348 N 0.59927 0.85995 0.17143 0.0
C349 C 0.59517 0.97374 0.32371 0.0
C350 C 0.59563 0.91248 0.12355 0.0
C351 C 0.5941 0.97042 0.19863 0.0
H352 H 0.59439 0.91032 0.02707 0.0
H353 H 0.59208 0.01238 0.15993 0.0
H354 H 0.66575 0.69644 0.7608 0.0
H355 H 0.59059 0.6555 0.21675 0.0
H356 H 0.67369 0.73076 0.56958 0.0
H357 H 0.5939 0.01854 0.38175 0.0
H358 H 0.59454 0.96079 0.56011 0.0
H359 H 0.66204 0.88222 0.25937 0.0
H360 H 0.58591 0.74459 0.58513 0.0
H361 H 0.58376 0.64987 0.43007 0.0
H362 H 0.67955 0.95292 0.67586 0.0
H363 H 0.59125 0.86097 0.63468 0.0
H364 H 0.67789 0.03691 0.09768 0.0
H365 H 0.67181 0.99073 0.28009 0.0
N366 N 0.66325 0.86624 0.06776 0.0
C367 C 0.66722 0.88988 0.96719 0.0
C368 C 0.66526 0.90114 0.17954 0.0
C369 C 0.67384 0.98903 0.08823 0.0
C370 C 0.67053 0.96299 0.19143 0.0
C371 C 0.67231 0.95234 0.97425 0.0
H372 H 0.67979 0.02356 0.87104 0.0
N373 N 0.66359 0.78915 0.8571 0.0
C374 C 0.66713 0.85022 0.85791 0.0
C375 C 0.67365 0.82855 0.64603 0.0
C376 C 0.67208 0.87185 0.75206 0.0
C377 C 0.66714 0.74579 0.7579 0.0
C378 C 0.67177 0.76493 0.64989 0.0
O379 O 0.6203 0.72262 0.20184 0.0
O380 O 0.64279 0.78309 0.2302 0.0
O381 O 0.66616 0.71008 0.15791 0.0
O382 O 0.67895 0.74827 0.0214 0.0
O383 O 0.61646 0.83859 0.98018 0.0
O384 O 0.63732 0.84507 0.10726 0.0
O385 O 0.63977 0.72324 0.86223 0.0
O386 O 0.61482 0.7699 0.86784 0.0
O387 O 0.57901 0.77076 0.06727 0.0
O388 O 0.58895 0.7012 0.93041 0.0
O389 O 0.64274 0.66539 0.98875 0.0
O390 O 0.61559 0.66371 0.04024 0.0
C391 C 0.63124 0.75239 0.27511 0.0
C392 C 0.62869 0.86982 0.03018 0.0
C393 C 0.6928 0.74483 0.20237 0.0
C394 C 0.72098 0.75143 0.26443 0.0
C395 C 0.70113 0.81958 0.3759 0.0
C396 C 0.6891 0.79131 0.30046 0.0
C397 C 0.71687 0.79983 0.35856 0.0
C398 C 0.70883 0.72482 0.18451 0.0
C399 C 0.68016 0.72041 0.11483 0.0
C400 C 0.67599 0.93521 0.75673 0.0
C401 C 0.67617 0.97538 0.8679 0.0
H402 H 0.6768 0.84356 0.56207 0.0
C403 C 0.62764 0.74612 0.8067 0.0
C404 C 0.62931 0.63602 1.00712 0.0
C405 C 0.56459 0.75004 0.88789 0.0
C406 C 0.53692 0.76109 0.82349 0.0
C407 C 0.55842 0.81516 0.73738 0.0
C408 C 0.56954 0.79034 0.8093 0.0
C409 C 0.54224 0.80094 0.74459 0.0
C410 C 0.54827 0.73521 0.8943 0.0
C411 C 0.576 0.72943 0.97349 0.0
H412 H 0.69833 0.85744 0.44791 0.0
H413 H 0.67693 0.80628 0.31799 0.0
H414 H 0.72589 0.8231 0.41872 0.0
H415 H 0.71175 0.68845 0.10964 0.0
H416 H 0.56229 0.84624 0.67683 0.0
H417 H 0.58197 0.80342 0.80527 0.0
H418 H 0.53388 0.82095 0.68791 0.0
H419 H 0.54437 0.70543 0.95745 0.0
C420 C 0.33831 0.74537 0.79054 0.0
C421 C 0.33156 0.63661 0.72569 0.0
C422 C 0.33773 0.68459 0.81344 0.0
C423 C 0.32693 0.65025 0.61241 0.0
C424 C 0.33305 0.75995 0.67909 0.0
C425 C 0.32768 0.71181 0.58913 0.0
N426 N 0.34387 0.79062 0.87854 0.0
C427 C 0.34312 0.85214 0.8655 0.0
C428 C 0.33315 0.82259 0.6623 0.0
C429 C 0.33799 0.869 0.75665 0.0
Gd430 Gd 0.40096 0.74807 0.06627 0.0
Gd431 Gd 0.35351 0.7581 0.0554 0.0
N432 N 0.34224 0.67316 0.92415 0.0
C433 C 0.32972 0.57689 0.75595 0.0
C434 C 0.33906 0.61653 0.95738 0.0
C435 C 0.33318 0.56717 0.87318 0.0
H436 H 0.34094 0.60929 0.04925 0.0
H437 H 0.33112 0.52191 0.89924 0.0
H438 H 0.40999 0.89398 0.19342 0.0
H439 H 0.3471 0.88762 0.93804 0.0
H440 H 0.42011 0.9487 0.38959 0.0
H441 H 0.32503 0.53873 0.69117 0.0
H442 H 0.32235 0.61383 0.54335 0.0
H443 H 0.40618 0.59278 0.0754 0.0
H444 H 0.32923 0.83571 0.57786 0.0
H445 H 0.33785 0.91765 0.7454 0.0
H446 H 0.42678 0.78512 0.62785 0.0
H447 H 0.32376 0.72188 0.50228 0.0
H448 H 0.41709 0.57448 0.43947 0.0
H449 H 0.41086 0.52615 0.22969 0.0
N450 N 0.40699 0.67795 0.19971 0.0
C451 C 0.41208 0.70543 0.31118 0.0
C452 C 0.40762 0.61447 0.16802 0.0
C453 C 0.41448 0.60398 0.37263 0.0
C454 C 0.41085 0.57652 0.25464 0.0
C455 C 0.41562 0.66909 0.40115 0.0
H456 H 0.42271 0.67127 0.58632 0.0
N457 N 0.41 0.80477 0.24858 0.0
C458 C 0.41415 0.77019 0.33498 0.0
C459 C 0.42181 0.86452 0.46814 0.0
C460 C 0.41977 0.79951 0.44843 0.0
C461 C 0.41255 0.86771 0.26518 0.0
C462 C 0.41835 0.89862 0.37569 0.0
O463 O 0.36764 0.77699 0.88762 0.0
O464 O 0.39072 0.71889 0.87354 0.0
O465 O 0.41985 0.79035 0.97038 0.0
O466 O 0.42498 0.71172 0.05829 0.0
O467 O 0.36516 0.66964 0.09794 0.0
O468 O 0.38806 0.65922 0.98502 0.0
O469 O 0.38593 0.78699 0.23695 0.0
O470 O 0.36386 0.72628 0.22546 0.0
O471 O 0.32881 0.74177 0.10169 0.0
O472 O 0.34008 0.82897 0.17428 0.0
O473 O 0.39167 0.83923 0.0196 0.0
O474 O 0.36673 0.85022 0.11123 0.0
C475 C 0.37887 0.74526 0.82137 0.0
C476 C 0.37567 0.63451 0.03162 0.0
C477 C 0.4416 0.72302 0.89698 0.0
C478 C 0.46902 0.70598 0.82292 0.0
C479 C 0.44743 0.64 0.7305 0.0
C480 C 0.4365 0.6729 0.81065 0.0
C481 C 0.46355 0.65623 0.73651 0.0
C482 C 0.45786 0.73981 0.90227 0.0
C483 C 0.43068 0.75091 0.99382 0.0
C484 C 0.42278 0.76338 0.53914 0.0
C485 C 0.42051 0.69855 0.51576 0.0
H486 H 0.42609 0.88878 0.55418 0.0
C487 C 0.37551 0.75494 0.29121 0.0
C488 C 0.3792 0.87308 0.06114 0.0
C489 C 0.31185 0.82971 0.1466 0.0
C490 C 0.28293 0.84037 0.17704 0.0
C491 C 0.29713 0.90948 0.06335 0.0
C492 C 0.31152 0.87997 0.08205 0.0
C493 C 0.2829 0.88968 0.10976 0.0
C494 C 0.29752 0.81047 0.19475 0.0
C495 C 0.3269 0.7968 0.16538 0.0
H496 H 0.44342 0.60114 0.6644 0.0
H497 H 0.42413 0.65827 0.80737 0.0
H498 H 0.47176 0.62973 0.6735 0.0
H499 H 0.46194 0.7771 0.97176 0.0
H500 H 0.29703 0.94818 1.0133 0.0
H501 H 0.32236 0.89676 0.04678 0.0
H502 H 0.27193 0.91382 0.09531 0.0
H503 H 0.29771 0.77185 0.24525 0.0
C504 C 0.59213 0.24188 0.69075 0.0
C505 C 0.58169 0.13722 0.62567 0.0
C506 C 0.58968 0.18087 0.71205 0.0
C507 C 0.57632 0.15523 0.51779 0.0
C508 C 0.58689 0.2597 0.58178 0.0
C509 C 0.57896 0.21617 0.49573 0.0
N510 N 0.60031 0.28278 0.77383 0.0
C511 C 0.60262 0.34303 0.75714 0.0
C512 C 0.59008 0.32046 0.56137 0.0
C513 C 0.59782 0.36245 0.64988 0.0
Gd514 Gd 0.65488 0.24774 0.96129 0.0
Gd515 Gd 0.6071 0.24463 0.95104 0.0
N516 N 0.59551 0.16379 0.81535 0.0
C517 C 0.5794 0.07653 0.64989 0.0
C518 C 0.5932 0.10481 0.83989 0.0
C519 C 0.58518 0.06029 0.7574 0.0
H520 H 0.59709 0.0923 0.92445 0.0
H521 H 0.58333 0.01359 0.77726 0.0
H522 H 0.66879 0.3889 0.92755 0.0
H523 H 0.60789 0.37658 0.82661 0.0
H524 H 0.68373 0.47597 0.04608 0.0
H525 H 0.57316 0.04192 0.58628 0.0
H526 H 0.57023 0.12215 0.45026 0.0
H527 H 0.65723 0.12847 0.11546 0.0
H528 H 0.58659 0.33548 0.4779 0.0
H529 H 0.59998 0.40999 0.63597 0.0
H530 H 0.69837 0.39792 0.40765 0.0
H531 H 0.5749 0.22907 0.41142 0.0
H532 H 0.68262 0.18914 0.44412 0.0
H533 H 0.66763 0.10716 0.31086 0.0
N534 N 0.66493 0.22257 0.14309 0.0
C535 C 0.67384 0.26717 0.21188 0.0
C536 C 0.66318 0.16494 0.17513 0.0
C537 C 0.67786 0.19887 0.35933 0.0
C538 C 0.66934 0.15254 0.2846 0.0
C539 C 0.68036 0.25684 0.32274 0.0
H540 H 0.69415 0.29763 0.47904 0.0
N541 N 0.66974 0.3318 0.06402 0.0
C542 C 0.6761 0.32379 0.1719 0.0
C543 C 0.68759 0.42724 0.1964 0.0
C544 C 0.68511 0.37146 0.24146 0.0
C545 C 0.67275 0.38492 0.01729 0.0
C546 C 0.68151 0.43373 0.08324 0.0
O547 O 0.62159 0.21156 0.77593 0.0
O548 O 0.64383 0.27323 0.79039 0.0
O549 O 0.67818 0.26164 0.88425 0.0
O550 O 0.66843 0.16863 0.86849 0.0
O551 O 0.61774 0.16267 0.02244 0.0
O552 O 0.6415 0.1549 0.918 0.0
O553 O 0.64281 0.26806 0.14803 0.0
O554 O 0.61642 0.23419 0.13893 0.0
O555 O 0.58378 0.21651 1.01138 0.0
O556 O 0.58855 0.31349 1.00101 0.0
O557 O 0.6427 0.33315 0.91181 0.0
O558 O 0.61936 0.3371 0.0203 0.0
C559 C 0.63271 0.24148 0.72403 0.0
C560 C 0.63059 0.13144 0.98243 0.0
C561 C 0.6967 0.17957 0.88513 0.0
C562 C 0.7258 0.17702 0.86034 0.0
C563 C 0.71313 0.12123 1.00636 0.0
C564 C 0.69816 0.14141 0.97428 0.0
C565 C 0.72686 0.13891 0.95024 0.0
C566 C 0.71057 0.19708 0.82814 0.0
C567 C 0.68089 0.20232 0.85209 0.0
C568 C 0.69148 0.36172 0.35274 0.0
C569 C 0.68911 0.30456 0.3933 0.0
H570 H 0.69444 0.465 0.24705 0.0
C571 C 0.6296 0.25222 0.20014 0.0
C572 C 0.63118 0.36506 0.97309 0.0
C573 C 0.56705 0.29328 0.12699 0.0
C574 C 0.53958 0.30178 0.20288 0.0
C575 C 0.56102 0.35914 0.31763 0.0
C576 C 0.57208 0.33433 0.22968 0.0
C577 C 0.5449 0.34331 0.3043 0.0
C578 C 0.55082 0.27644 0.11482 0.0
C579 C 0.57808 0.27303 0.02565 0.0
H580 H 0.71409 0.09162 0.075 0.0
H581 H 0.68774 0.12705 0.01903 0.0
H582 H 0.7383 0.12201 0.97612 0.0
H583 H 0.70951 0.22712 0.76014 0.0
H584 H 0.56491 0.39148 0.39589 0.0
H585 H 0.58447 0.34823 0.24053 0.0
H586 H 0.53659 0.36324 0.37386 0.0
H587 H 0.54684 0.24549 0.03469 0.0
C588 C 0.33881 0.15416 0.16776 0.0
C589 C 0.33132 0.22714 0.34643 0.0
C590 C 0.33778 0.21482 0.22928 0.0
C591 C 0.32625 0.17709 0.40231 0.0
C592 C 0.33296 0.1041 0.22094 0.0
C593 C 0.32705 0.11569 0.33964 0.0
N594 N 0.34428 0.14493 0.05221 0.0
C595 C 0.34287 0.08774 0.9816 0.0
C596 C 0.33259 0.0444 0.15143 0.0
C597 C 0.33725 0.0365 0.0305 0.0
Gd598 Gd 0.40285 0.25089 0.97259 0.0
Gd599 Gd 0.35408 0.2336 0.97917 0.0
N600 N 0.34302 0.26208 0.17299 0.0
C601 C 0.32996 0.28945 0.40293 0.0
C602 C 0.34093 0.32303 0.22471 0.0
C603 C 0.33461 0.3376 0.34119 0.0
H604 H 0.34454 0.36009 0.17681 0.0
H605 H 0.33332 0.3859 0.38328 0.0
H606 H 0.40608 0.09096 0.88325 0.0
H607 H 0.34625 0.08154 0.88747 0.0
H608 H 0.40874 0.01852 0.69316 0.0
H609 H 0.32507 0.30089 0.49314 0.0
H610 H 0.32138 0.18546 0.49288 0.0
H611 H 0.41448 0.38939 0.91779 0.0
H612 H 0.32816 0.00469 0.18885 0.0
H613 H 0.33641 0.99116 0.97453 0.0
H614 H 0.42173 0.15019 0.40455 0.0
H615 H 0.32266 0.07771 0.38253 0.0
H616 H 0.42986 0.36827 0.54913 0.0
H617 H 0.42543 0.43543 0.74664 0.0
N618 N 0.41259 0.29834 0.81614 0.0
C619 C 0.4157 0.25969 0.71075 0.0
C620 C 0.41638 0.36019 0.83138 0.0
C621 C 0.42522 0.34792 0.62403 0.0
C622 C 0.42265 0.38609 0.73519 0.0
C623 C 0.42176 0.28393 0.61073 0.0
H624 H 0.4279 0.26245 0.4216 0.0
N625 N 0.40713 0.17319 0.80175 0.0
C626 C 0.41237 0.19598 0.70208 0.0
C627 C 0.41281 0.09148 0.58762 0.0
C628 C 0.41499 0.15572 0.59188 0.0
C629 C 0.40708 0.11008 0.80111 0.0
C630 C 0.4093 0.06845 0.69356 0.0
O631 O 0.3665 0.24626 0.16411 0.0
O632 O 0.39428 0.25316 0.16802 0.0
O633 O 0.42704 0.21623 0.96388 0.0
O634 O 0.42196 0.30357 0.07756 0.0
O635 O 0.36343 0.33238 0.97954 0.0
O636 O 0.39044 0.34291 0.03758 0.0
O637 O 0.3872 0.28365 0.8244 0.0
O638 O 0.36661 0.21378 0.79555 0.0
O639 O 0.3349 0.29494 0.93444 0.0
O640 O 0.33358 0.19615 0.87311 0.0
O641 O 0.39283 0.16476 0.03523 0.0
O642 O 0.37081 0.15356 0.91541 0.0
C643 C 0.38026 0.25193 0.22258 0.0
C644 C 0.3762 0.36584 0.01807 0.0
C645 C 0.44445 0.24402 0.12602 0.0
C646 C 0.47229 0.2376 0.19011 0.0
C647 C 0.4518 0.17522 0.26744 0.0
C648 C 0.44022 0.1999 0.19895 0.0
C649 C 0.4677 0.19364 0.26282 0.0
C650 C 0.4605 0.26334 0.12279 0.0
C651 C 0.43286 0.26232 0.03917 0.0
C652 C 0.42016 0.18041 0.49041 0.0
C653 C 0.42372 0.24414 0.50014 0.0
H654 H 0.41468 0.0591 0.50465 0.0
C655 C 0.37691 0.25018 0.75146 0.0
C656 C 0.38031 0.13224 0.9925 0.0
C657 C 0.30909 0.24768 0.92215 0.0
C658 C 0.28046 0.2674 0.89551 0.0
C659 C 0.2895 0.21226 0.05563 0.0
C660 C 0.30522 0.21752 0.01968 0.0
C661 C 0.27723 0.23657 0.99407 0.0
C662 C 0.29659 0.27265 0.85949 0.0
C663 C 0.32601 0.24903 0.88279 0.0
H664 H 0.44853 0.14069 0.3226 0.0
H665 H 0.42804 0.18343 0.20036 0.0
H666 H 0.47646 0.17336 0.31606 0.0
H667 H 0.46392 0.29597 0.06369 0.0
H668 H 0.2868 0.18814 0.13042 0.0
H669 H 0.3143 0.1964 0.0666 0.0
H670 H 0.26511 0.22969 0.02237 0.0
H671 H 0.29941 0.29567 0.78339 0.0
C672 C 0.23931 0.33051 0.83557 0.0
C673 C 0.23882 0.32254 0.70913 0.0
H674 H 0.25297 0.32292 0.99307 0.0
C675 C 0.25261 0.30072 0.64389 0.0
H676 H 0.22905 0.34862 0.88855 0.0
C677 C 0.26638 0.28495 0.70383 0.0
C678 C 0.26671 0.29122 0.83053 0.0
H679 H 0.2526 0.29417 0.54618 0.0
H680 H 0.27652 0.26579 0.65063 0.0
C681 C 0.25309 0.31574 0.89536 0.0
C682 C 0.74092 0.19549 0.67564 0.0
C683 C 0.74057 0.19562 0.80076 0.0
H684 H 0.75438 0.21379 0.52345 0.0
C685 C 0.75445 0.21354 0.86837 0.0
H686 H 0.7306 0.18067 0.62035 0.0
C687 C 0.76815 0.23275 0.81276 0.0
C688 C 0.76831 0.23443 0.68809 0.0
H689 H 0.75458 0.21456 0.96513 0.0
H690 H 0.77838 0.24858 0.86827 0.0
C691 C 0.75461 0.21431 0.62006 0.0
C692 C 0.26745 0.81153 0.35109 0.0
C693 C 0.26784 0.8209 0.23035 0.0
H694 H 0.25375 0.78425 0.49417 0.0
C695 C 0.25374 0.81143 0.16154 0.0
H696 H 0.27799 0.81985 0.40731 0.0
C697 C 0.23979 0.79016 0.21092 0.0
C698 C 0.2396 0.77843 0.33059 0.0
H699 H 0.25366 0.81837 0.06814 0.0
H700 H 0.22939 0.78042 0.15379 0.0
C701 C 0.25352 0.79119 0.40079 0.0
C702 C 0.74712 0.72585 0.35572 0.0
C703 C 0.738 0.73036 0.25196 0.0
H704 H 0.76985 0.70742 0.42922 0.0
C705 C 0.74556 0.71799 0.1388 0.0
H706 H 0.74167 0.73374 0.44433 0.0
C707 C 0.76188 0.70292 0.13021 0.0
C708 C 0.77103 0.69982 0.23454 0.0
H709 H 0.73899 0.7216 0.05714 0.0
H710 H 0.76739 0.69475 0.04184 0.0
C711 C 0.76336 0.71103 0.3472 0.0
C712 C 0.13666 0.98246 0.61755 0.0
C713 C 0.13307 0.94214 0.51001 0.0
H714 H 0.13942 0.07749 0.70574 0.0
C715 C 0.12939 0.96823 0.40645 0.0
H716 H 0.13937 0.96365 0.69897 0.0
C717 C 0.12876 0.03344 0.41145 0.0
C718 C 0.13239 0.07388 0.51898 0.0
H719 H 0.12656 0.93813 0.32242 0.0
H720 H 0.12551 0.05227 0.33108 0.0
C721 C 0.13666 0.04757 0.62134 0.0
C722 C 0.88342 0.48232 0.62955 0.0
C723 C 0.88364 0.43426 0.52931 0.0
H724 H 0.88334 0.58142 0.69264 0.0
C725 C 0.88351 0.45052 0.41287 0.0
H726 H 0.88349 0.47115 0.72018 0.0
C727 C 0.88271 0.51354 0.39709 0.0
C728 C 0.88276 0.56157 0.49743 0.0
H729 H 0.88355 0.41436 0.33409 0.0
H730 H 0.88226 0.52478 0.30657 0.0
C731 C 0.88335 0.54529 0.61373 0.0
C732 C 0.87564 0.95543 0.4167 0.0
C733 C 0.87459 0.93423 0.52842 0.0
H734 H 0.87726 0.03483 0.32423 0.0
C735 C 0.87357 0.97861 0.63425 0.0
H736 H 0.8766 0.92217 0.33389 0.0
C737 C 0.87331 0.04289 0.62832 0.0
C738 C 0.87474 0.06415 0.51683 0.0
H739 H 0.8728 0.9635 0.72145 0.0
H740 H 0.87248 0.07612 0.71127 0.0
C741 C 0.87606 0.01974 0.41119 0.0
C742 C 0.12513 0.52456 0.38352 0.0
C743 C 0.12499 0.57211 0.48463 0.0
H744 H 0.12546 0.42572 0.31854 0.0
C745 C 0.12565 0.55535 0.60051 0.0
H746 H 0.12465 0.53621 0.29332 0.0
C747 C 0.12685 0.49224 0.61477 0.0
C748 C 0.12674 0.44472 0.51355 0.0
H749 H 0.12568 0.59118 0.67985 0.0
H750 H 0.12753 0.4805 0.70483 0.0
C751 C 0.12562 0.4615 0.39797 0.0
C752 C 0.64044 0.53058 0.91737 0.0
C753 C 0.62971 0.56666 0.99576 0.0
H754 H 0.64873 0.43893 0.84356 0.0
C755 C 0.61937 0.53583 0.06547 0.0
H756 H 0.64842 0.55273 0.86126 0.0
C757 C 0.61994 0.47075 0.05865 0.0
C758 C 0.63072 0.43449 0.98076 0.0
H759 H 0.611 0.56218 0.12739 0.0
H760 H 0.61193 0.44891 0.11498 0.0
C761 C 0.64075 0.46525 0.90848 0.0
C762 C 0.38113 0.98752 0.14388 0.0
C763 C 0.37894 0.9395 0.04532 0.0
H764 H 0.38362 0.08645 0.2034 0.0
C765 C 0.37694 0.95518 0.92963 0.0
H766 H 0.3828 0.97646 0.23379 0.0
C767 C 0.37697 0.01782 0.91263 0.0
C768 C 0.37944 0.06596 1.01074 0.0
H769 H 0.37524 0.9189 0.85236 0.0
H770 H 0.37539 0.02859 0.82244 0.0
C771 C 0.38163 0.0502 0.12641 0.0
C772 C 0.3677 0.47352 0.11452 0.0
C773 C 0.37531 0.43417 0.02003 0.0
H774 H 0.36191 0.56789 0.19273 0.0
C775 C 0.3824 0.46064 0.92685 0.0
H776 H 0.36218 0.4542 0.18748 0.0
C777 C 0.38229 0.52549 0.92953 0.0
C778 C 0.37497 0.56533 0.02518 0.0
H779 H 0.388 0.43108 0.85157 0.0
H780 H 0.38801 0.54453 0.85697 0.0
C781 C 0.36754 0.53851 0.11715 0.0
C782 C 0.62986 0.01825 0.89153 0.0
C783 C 0.63119 0.06447 0.99391 0.0
H784 H 0.6272 0.92052 0.82421 0.0
C785 C 0.63198 0.04635 0.10849 0.0
H786 H 0.62886 0.03117 0.80254 0.0
C787 C 0.63195 0.98293 0.12016 0.0
C788 C 0.63025 0.93666 0.01794 0.0
H789 H 0.63268 0.0813 0.18903 0.0
H790 H 0.63259 0.97013 0.20941 0.0
C791 C 0.62897 0.95503 0.90385 0.0
C792 C 0.13888 0.21919 0.09216 0.0
C793 C 0.12856 0.25834 0.16997 0.0
H794 H 0.14761 0.19046 0.91142 0.0
C795 C 0.11947 0.30216 0.11861 0.0
H796 H 0.14621 0.18515 0.12748 0.0
C797 C 0.12069 0.30672 0.99449 0.0
C798 C 0.13054 0.26595 0.91556 0.0
H799 H 0.11162 0.33414 0.17507 0.0
H800 H 0.11385 0.3424 0.96038 0.0
C801 C 0.13975 0.22253 0.96749 0.0
C802 C 0.886 0.19861 0.0804 0.0
C803 C 0.87971 0.24783 0.16481 0.0
H804 H 0.88954 0.15959 0.8936 0.0
C805 C 0.8726 0.29808 0.11799 0.0
H806 H 0.89131 0.15846 0.11133 0.0
C807 C 0.87209 0.29966 0.99236 0.0
C808 C 0.87855 0.25076 0.9079 0.0
H809 H 0.8676 0.3371 0.17886 0.0
H810 H 0.86677 0.33982 0.96156 0.0
C811 C 0.88513 0.19958 0.95467 0.0
C812 C 0.13615 0.70952 0.02196 0.0
C813 C 0.129 0.75713 0.10564 0.0
H814 H 0.14135 0.673 0.83615 0.0
C815 C 0.12183 0.80691 0.05801 0.0
H816 H 0.14196 0.67051 0.05338 0.0
C817 C 0.12105 0.80754 0.93209 0.0
C818 C 0.12804 0.75958 0.84855 0.0
H819 H 0.11687 0.84602 0.11849 0.0
H820 H 0.11524 0.84647 0.90034 0.0
C821 C 0.13577 0.71095 0.89632 0.0
C822 C 0.8856 0.7975 0.96014 0.0
C823 C 0.87923 0.7484 0.87591 0.0
H824 H 0.88961 0.83612 0.14672 0.0
C825 C 0.87218 0.69826 0.92299 0.0
H826 H 0.89119 0.83698 0.92897 0.0
C827 C 0.87104 0.69804 0.04878 0.0
C828 C 0.8773 0.74735 0.133 0.0
H829 H 0.86768 0.65839 0.86214 0.0
H830 H 0.86552 0.6584 0.07991 0.0
C831 C 0.88464 0.79701 0.08594 0.0
C832 C 0.62585 0.69536 0.45693 0.0
C833 C 0.6308 0.74948 0.41117 0.0
H834 H 0.62103 0.65126 0.61332 0.0
C835 C 0.63489 0.80175 0.49822 0.0
H836 H 0.62267 0.65374 0.3945 0.0
C837 C 0.63363 0.80058 0.62428 0.0
C838 C 0.6286 0.74676 0.67018 0.0
H839 H 0.6388 0.84445 0.46881 0.0
H840 H 0.63694 0.84191 0.68632 0.0
C841 C 0.62487 0.69389 0.58341 0.0
C842 C 0.38304 0.80072 0.63754 0.0
C843 C 0.37889 0.7463 0.68499 0.0
H844 H 0.38532 0.84649 0.48083 0.0
C845 C 0.37336 0.69513 0.60085 0.0
H846 H 0.38718 0.84152 0.698 0.0
C847 C 0.37209 0.69825 0.47525 0.0
C848 C 0.37651 0.75237 0.42735 0.0
H849 H 0.36969 0.65273 0.63255 0.0
H850 H 0.36776 0.65763 0.415 0.0
C851 C 0.38197 0.80357 0.51186 0.0
C852 C 0.62125 0.20573 0.38575 0.0
C853 C 0.63014 0.25008 0.33449 0.0
H854 H 0.61571 0.16565 0.54411 0.0
C855 C 0.64021 0.29016 0.41254 0.0
H856 H 0.6136 0.17304 0.32911 0.0
C857 C 0.64111 0.28697 0.53723 0.0
C858 C 0.63213 0.24298 0.589 0.0
H859 H 0.64733 0.32479 0.37739 0.0
H860 H 0.64882 0.3196 0.59342 0.0
C861 C 0.62244 0.20159 0.51001 0.0
C862 C 0.37171 0.20377 0.40538 0.0
C863 C 0.37963 0.25193 0.35802 0.0
H864 H 0.36474 0.16474 0.56242 0.0
C865 C 0.38612 0.30084 0.44205 0.0
H866 H 0.36646 0.16535 0.34447 0.0
C867 C 0.38471 0.30144 0.56834 0.0
C868 C 0.37731 0.25205 0.61589 0.0
H869 H 0.39206 0.33941 0.41023 0.0
H870 H 0.38958 0.34072 0.62916 0.0
C871 C 0.37065 0.20358 0.53135 0.0
C872 C 0.01313 0.19445 0.39433 0.0
C873 C 0.02177 0.20062 0.28933 0.0
H874 H 0.99008 0.18389 0.47253 0.0
C875 C 0.0132 0.20896 0.18527 0.0
H876 H 0.01931 0.18764 0.47592 0.0
C877 C 0.99654 0.20648 0.18323 0.0
C878 C 0.98792 0.19604 0.28544 0.0
H879 H 0.01942 0.21526 0.10355 0.0
H880 H 0.99038 0.21058 0.09998 0.0
C881 C 0.99636 0.19227 0.39243 0.0
C882 C 0.99994 0.70893 0.71532 0.0
C883 C 0.98755 0.75345 0.72735 0.0
H884 H 0.02521 0.6923 0.70784 0.0
C885 C 0.99155 0.81698 0.73712 0.0
H886 H 0.99724 0.65955 0.70646 0.0
C887 C 0.00755 0.83567 0.7391 0.0
C888 C 0.01995 0.79124 0.72931 0.0
H889 H 0.9823 0.85236 0.74683 0.0
H890 H 0.01026 0.88509 0.74897 0.0
C891 C 0.01595 0.72757 0.71525 0.0
C892 C 0.51414 0.68585 0.8283 0.0
C893 C 0.51955 0.74743 0.83168 0.0
H894 H 0.49401 0.62457 0.8227 0.0
C895 C 0.50818 0.79575 0.83816 0.0
H896 H 0.52257 0.64759 0.82285 0.0
C897 C 0.49181 0.78266 0.83889 0.0
C898 C 0.48641 0.72082 0.83131 0.0
H899 H 0.51195 0.8438 0.84211 0.0
H900 H 0.48337 0.82074 0.84182 0.0
C901 C 0.49778 0.67266 0.82727 0.0
C902 C 0.50118 0.20756 0.16229 0.0
C903 C 0.48944 0.25456 0.18309 0.0
H904 H 0.52617 0.18564 0.15042 0.0
C905 C 0.49431 0.31735 0.20362 0.0
H906 H 0.49778 0.15873 0.14544 0.0
C907 C 0.51057 0.33269 0.2081 0.0
C908 C 0.52232 0.28561 0.18978 0.0
H909 H 0.48555 0.35451 0.2203 0.0
H910 H 0.51398 0.38147 0.22689 0.0
C911 C 0.51742 0.22291 0.16448 0.0
loop_
_geom_bond_atom_site_label_1
_geom_bond_atom_site_label_2
_geom_bond_distance
_geom_bond_site_symmetry_2
_ccdc_geom_bond_type
C0 C2 1.422 . S
C0 C4 1.415 . S
C0 N6 1.369 . S
C1 C2 1.421 . S
C1 C3 1.417 . S
C1 C13 1.422 . S
C2 C0 1.422 . S
C2 C1 1.421 . S
C2 N12 1.359 . S
C3 C1 1.417 . S
C3 C5 1.329 . S
C3 H22 0.930 1_556 S
C4 C0 1.415 . S
C4 C5 1.437 . S
C4 C8 1.413 . S
C5 C3 1.329 . S
C5 C4 1.437 . S
C5 H27 0.929 . S
N6 C0 1.369 . S
N6 C7 1.338 . S
N6 Gd11 2.622 . S
C7 N6 1.338 . S
C7 C9 1.378 . S
C7 H19 0.929 . S
C8 C4 1.413 . S
C8 C9 1.348 . S
C8 H24 0.931 . S
C9 C7 1.378 . S
C9 C8 1.348 . S
C9 H25 0.930 . S
Gd10 N30 2.622 . S
Gd10 N37 2.570 . S
Gd10 O44 2.353 . S
Gd10 O45 2.468 . S
Gd10 O46 2.427 . S
Gd10 O48 2.388 . S
Gd10 O49 2.386 . S
Gd10 O53 2.307 . S
Gd10 C63 2.805 . S
Gd11 N6 2.622 . S
Gd11 N12 2.570 . S
Gd11 O43 2.386 . S
Gd11 O47 2.307 . S
Gd11 O50 2.353 . S
Gd11 O51 2.468 . S
Gd11 O52 2.427 . S
Gd11 O54 2.388 . S
Gd11 C75 2.805 . S
N12 C2 1.359 . S
N12 Gd11 2.570 . S
N12 C14 1.343 . S
C13 C1 1.422 . S
C13 C15 1.321 . S
C13 H21 0.931 . S
C14 N12 1.343 . S
C14 C15 1.390 . S
C14 H16 0.931 . S
C15 C13 1.321 . S
C15 C14 1.390 . S
C15 H17 0.930 . S
H16 C14 0.931 . S
H17 C15 0.930 . S
H18 C41 0.931 . S
H19 C7 0.929 . S
H20 C42 0.930 . S
H21 C13 0.931 . S
H22 C3 0.930 1_554 S
H23 C32 0.929 . S
H24 C8 0.931 . S
H25 C9 0.930 . S
H26 C64 0.930 . S
H27 C5 0.929 . S
H28 C33 0.931 . S
H29 C34 0.930 . S
N30 Gd10 2.622 . S
N30 C31 1.369 . S
N30 C32 1.338 . S
C31 N30 1.369 . S
C31 C35 1.415 . S
C31 C38 1.422 . S
C32 H23 0.929 . S
C32 N30 1.338 . S
C32 C34 1.378 . S
C33 H28 0.931 . S
C33 C34 1.348 . S
C33 C35 1.413 . S
C34 H29 0.930 . S
C34 C32 1.378 . S
C34 C33 1.348 . S
C35 C31 1.415 . S
C35 C33 1.413 . S
C35 C65 1.437 . S
H36 C65 0.929 1_556 S
N37 Gd10 2.570 . S
N37 C38 1.359 . S
N37 C41 1.343 . S
C38 C31 1.422 . S
C38 N37 1.359 . S
C38 C40 1.421 . S
C39 C40 1.422 . S
C39 C42 1.321 . S
C39 H66 0.931 1_554 S
C40 C38 1.421 . S
C40 C39 1.422 . S
C40 C64 1.417 1_554 S
C41 H18 0.931 . S
C41 N37 1.343 . S
C41 C42 1.390 . S
C42 H20 0.930 . S
C42 C39 1.321 . S
C42 C41 1.390 . S
O43 Gd11 2.386 . S
O43 C55 1.265 . S
O44 Gd10 2.353 . S
O44 C55 1.242 . S
O45 Gd10 2.468 . S
O45 C63 1.263 . S
O46 Gd10 2.427 . S
O46 C63 1.252 . S
O47 Gd11 2.307 . S
O47 C56 1.261 . S
O48 Gd10 2.388 . S
O48 C56 1.252 . S
O49 Gd10 2.386 . S
O49 C67 1.265 . S
O50 Gd11 2.353 . S
O50 C67 1.242 . S
O51 Gd11 2.468 . S
O51 C75 1.263 . S
O52 Gd11 2.427 . S
O52 C75 1.252 . S
O53 Gd10 2.307 . S
O53 C68 1.261 . S
O54 Gd11 2.388 . S
O54 C68 1.252 . S
C55 O43 1.265 . S
C55 O44 1.242 . S
C56 O47 1.261 . S
C56 O48 1.252 . S
C57 C60 1.394 . S
C57 C62 1.370 . S
C57 C63 1.500 . S
C58 C61 1.383 . S
C58 C62 1.395 . S
C59 C60 1.396 . S
C59 C61 1.365 . S
C59 H76 0.929 . S
C60 C57 1.394 . S
C60 C59 1.396 . S
C60 H77 0.930 . S
C61 C58 1.383 . S
C61 C59 1.365 . S
C61 H78 0.931 . S
C62 C57 1.370 . S
C62 C58 1.395 . S
C62 H79 0.930 . S
C63 Gd10 2.805 . S
C63 O45 1.263 . S
C63 O46 1.252 . S
C63 C57 1.500 . S
C64 H26 0.930 . S
C64 C40 1.417 1_556 S
C64 C65 1.329 1_556 S
C65 C35 1.437 . S
C65 H36 0.929 1_554 S
C65 C64 1.329 1_554 S
H66 C39 0.931 1_556 S
C67 O49 1.265 . S
C67 O50 1.242 . S
C68 O53 1.261 . S
C68 O54 1.252 . S
C69 C72 1.394 . S
C69 C74 1.370 . S
C69 C75 1.500 . S
C70 C73 1.383 . S
C70 C74 1.395 . S
C71 C72 1.396 . S
C71 C73 1.365 . S
C71 H80 0.929 . S
C72 C69 1.394 . S
C72 C71 1.396 . S
C72 H81 0.930 . S
C73 C70 1.383 . S
C73 C71 1.365 . S
C73 H82 0.931 . S
C74 C69 1.370 . S
C74 C70 1.395 . S
C74 H83 0.930 . S
C75 Gd11 2.805 . S
C75 O51 1.263 . S
C75 O52 1.252 . S
C75 C69 1.500 . S
H76 C59 0.929 . S
H77 C60 0.930 . S
H78 C61 0.931 . S
H79 C62 0.930 . S
H80 C71 0.929 . S
H81 C72 0.930 . S
H82 C73 0.931 . S
H83 C74 0.930 . S
C84 C86 1.422 . S
C84 C88 1.415 . S
C84 N90 1.369 . S
C85 C86 1.421 . S
C85 C87 1.417 1_554 S
C85 C97 1.422 . S
C86 C84 1.422 . S
C86 C85 1.421 . S
C86 N96 1.359 . S
C87 C85 1.417 1_556 S
C87 C89 1.329 1_556 S
C87 H106 0.930 . S
C88 C84 1.415 . S
C88 C89 1.437 . S
C88 C92 1.413 . S
C89 C87 1.329 1_554 S
C89 C88 1.437 . S
C89 H111 0.929 1_554 S
N90 C84 1.369 . S
N90 C91 1.338 . S
N90 Gd95 2.622 . S
C91 N90 1.338 . S
C91 C93 1.378 . S
C91 H103 0.929 . S
C92 C88 1.413 . S
C92 C93 1.348 . S
C92 H108 0.931 . S
C93 C91 1.378 . S
C93 C92 1.348 . S
C93 H109 0.930 . S
Gd94 N114 2.622 . S
Gd94 N121 2.570 . S
Gd94 O128 2.353 . S
Gd94 O129 2.468 . S
Gd94 O130 2.427 . S
Gd94 O132 2.388 . S
Gd94 O133 2.386 . S
Gd94 O137 2.307 . S
Gd94 C147 2.805 . S
Gd95 N90 2.622 . S
Gd95 N96 2.570 . S
Gd95 O127 2.386 . S
Gd95 O131 2.307 . S
Gd95 O134 2.353 . S
Gd95 O135 2.468 . S
Gd95 O136 2.427 . S
Gd95 O138 2.388 . S
Gd95 C159 2.805 . S
N96 C86 1.359 . S
N96 Gd95 2.570 . S
N96 C98 1.343 . S
C97 C85 1.422 . S
C97 C99 1.321 . S
C97 H105 0.931 1_554 S
C98 N96 1.343 . S
C98 C99 1.390 . S
C98 H100 0.931 . S
C99 C97 1.321 . S
C99 C98 1.390 . S
C99 H101 0.930 . S
H100 C98 0.931 . S
H101 C99 0.930 . S
H102 C125 0.931 . S
H103 C91 0.929 . S
H104 C126 0.930 . S
H105 C97 0.931 1_556 S
H106 C87 0.930 . S
H107 C116 0.929 . S
H108 C92 0.931 . S
H109 C93 0.930 . S
H110 C148 0.930 1_554 S
H111 C89 0.929 1_556 S
H112 C117 0.931 . S
H113 C118 0.930 . S
N114 Gd94 2.622 . S
N114 C115 1.369 . S
N114 C116 1.338 . S
C115 N114 1.369 . S
C115 C119 1.415 . S
C115 C122 1.422 . S
C116 H107 0.929 . S
C116 N114 1.338 . S
C116 C118 1.378 . S
C117 H112 0.931 . S
C117 C118 1.348 . S
C117 C119 1.413 . S
C118 H113 0.930 . S
C118 C116 1.378 . S
C118 C117 1.348 . S
C119 C115 1.415 . S
C119 C117 1.413 . S
C119 C149 1.437 . S
H120 C149 0.929 . S
N121 Gd94 2.570 . S
N121 C122 1.359 . S
N121 C125 1.343 . S
C122 C115 1.422 . S
C122 N121 1.359 . S
C122 C124 1.421 . S
C123 C124 1.422 . S
C123 C126 1.321 . S
C123 H150 0.931 . S
C124 C122 1.421 . S
C124 C123 1.422 . S
C124 C148 1.417 . S
C125 H102 0.931 . S
C125 N121 1.343 . S
C125 C126 1.390 . S
C126 H104 0.930 . S
C126 C123 1.321 . S
C126 C125 1.390 . S
O127 Gd95 2.386 . S
O127 C139 1.265 . S
O128 Gd94 2.353 . S
O128 C139 1.242 . S
O129 Gd94 2.468 . S
O129 C147 1.263 . S
O130 Gd94 2.427 . S
O130 C147 1.252 . S
O131 Gd95 2.307 . S
O131 C140 1.261 . S
O132 Gd94 2.388 . S
O132 C140 1.252 . S
O133 Gd94 2.386 . S
O133 C151 1.265 . S
O134 Gd95 2.353 . S
O134 C151 1.242 . S
O135 Gd95 2.468 . S
O135 C159 1.263 . S
O136 Gd95 2.427 . S
O136 C159 1.252 . S
O137 Gd94 2.307 . S
O137 C152 1.261 . S
O138 Gd95 2.388 . S
O138 C152 1.252 . S
C139 O127 1.265 . S
C139 O128 1.242 . S
C140 O131 1.261 . S
C140 O132 1.252 . S
C141 C144 1.394 . S
C141 C146 1.370 . S
C141 C147 1.500 . S
C142 C145 1.383 . S
C142 C146 1.395 . S
C143 C144 1.396 . S
C143 C145 1.365 . S
C143 H160 0.929 . S
C144 C141 1.394 . S
C144 C143 1.396 . S
C144 H161 0.930 . S
C145 C142 1.383 . S
C145 C143 1.365 . S
C145 H162 0.931 . S
C146 C141 1.370 . S
C146 C142 1.395 . S
C146 H163 0.930 . S
C147 Gd94 2.805 . S
C147 O129 1.263 . S
C147 O130 1.252 . S
C147 C141 1.500 . S
C148 H110 0.930 1_556 S
C148 C124 1.417 . S
C148 C149 1.329 . S
C149 C119 1.437 . S
C149 H120 0.929 . S
C149 C148 1.329 . S
H150 C123 0.931 . S
C151 O133 1.265 . S
C151 O134 1.242 . S
C152 O137 1.261 . S
C152 O138 1.252 . S
C153 C156 1.394 . S
C153 C158 1.370 . S
C153 C159 1.500 . S
C154 C157 1.383 . S
C154 C158 1.395 . S
C155 C156 1.396 . S
C155 C157 1.365 . S
C155 H164 0.929 . S
C156 C153 1.394 . S
C156 C155 1.396 . S
C156 H165 0.930 . S
C157 C154 1.383 . S
C157 C155 1.365 . S
C157 H166 0.931 . S
C158 C153 1.370 . S
C158 C154 1.395 . S
C158 H167 0.930 . S
C159 Gd95 2.805 . S
C159 O135 1.263 . S
C159 O136 1.252 . S
C159 C153 1.500 . S
H160 C143 0.929 . S
H161 C144 0.930 . S
H162 C145 0.931 . S
H163 C146 0.930 . S
H164 C155 0.929 . S
H165 C156 0.930 . S
H166 C157 0.931 . S
H167 C158 0.930 . S
C168 C170 1.422 . S
C168 C172 1.415 . S
C168 N174 1.369 . S
C169 C170 1.421 . S
C169 C171 1.417 . S
C169 C181 1.422 . S
C170 C168 1.422 . S
C170 C169 1.421 . S
C170 N180 1.359 . S
C171 C169 1.417 . S
C171 C173 1.329 . S
C171 H190 0.930 1_554 S
C172 C168 1.415 . S
C172 C173 1.437 . S
C172 C176 1.413 . S
C173 C171 1.329 . S
C173 C172 1.437 . S
C173 H195 0.929 . S
N174 C168 1.369 . S
N174 C175 1.338 . S
N174 Gd179 2.622 . S
C175 N174 1.338 . S
C175 C177 1.378 . S
C175 H187 0.929 . S
C176 C172 1.413 . S
C176 C177 1.348 . S
C176 H192 0.931 . S
C177 C175 1.378 . S
C177 C176 1.348 . S
C177 H193 0.930 . S
Gd178 N198 2.622 . S
Gd178 N205 2.570 . S
Gd178 O212 2.353 . S
Gd178 O213 2.468 . S
Gd178 O214 2.427 . S
Gd178 O216 2.388 . S
Gd178 O217 2.386 . S
Gd178 O221 2.307 . S
Gd178 C231 2.805 . S
Gd179 N174 2.622 . S
Gd179 N180 2.570 . S
Gd179 O211 2.386 . S
Gd179 O215 2.307 . S
Gd179 O218 2.353 . S
Gd179 O219 2.468 . S
Gd179 O220 2.427 . S
Gd179 O222 2.388 . S
Gd179 C243 2.805 . S
N180 C170 1.359 . S
N180 Gd179 2.570 . S
N180 C182 1.343 . S
C181 C169 1.422 . S
C181 C183 1.321 . S
C181 H189 0.931 . S
C182 N180 1.343 . S
C182 C183 1.390 . S
C182 H184 0.931 . S
C183 C181 1.321 . S
C183 C182 1.390 . S
C183 H185 0.930 . S
H184 C182 0.931 . S
H185 C183 0.930 . S
H186 C209 0.931 . S
H187 C175 0.929 . S
H188 C210 0.930 . S
H189 C181 0.931 . S
H190 C171 0.930 1_556 S
H191 C200 0.929 . S
H192 C176 0.931 . S
H193 C177 0.930 . S
H194 C232 0.930 . S
H195 C173 0.929 . S
H196 C201 0.931 . S
H197 C202 0.930 . S
N198 Gd178 2.622 . S
N198 C199 1.369 . S
N198 C200 1.338 . S
C199 N198 1.369 . S
C199 C203 1.415 . S
C199 C206 1.422 . S
C200 H191 0.929 . S
C200 N198 1.338 . S
C200 C202 1.378 . S
C201 H196 0.931 . S
C201 C202 1.348 . S
C201 C203 1.413 . S
C202 H197 0.930 . S
C202 C200 1.378 . S
C202 C201 1.348 . S
C203 C199 1.415 . S
C203 C201 1.413 . S
C203 C233 1.437 . S
H204 C233 0.929 1_554 S
N205 Gd178 2.570 . S
N205 C206 1.359 . S
N205 C209 1.343 . S
C206 C199 1.422 . S
C206 N205 1.359 . S
C206 C208 1.421 . S
C207 C208 1.422 . S
C207 C210 1.321 . S
C207 H234 0.931 1_556 S
C208 C206 1.421 . S
C208 C207 1.422 . S
C208 C232 1.417 1_556 S
C209 H186 0.931 . S
C209 N205 1.343 . S
C209 C210 1.390 . S
C210 H188 0.930 . S
C210 C207 1.321 . S
C210 C209 1.390 . S
O211 Gd179 2.386 . S
O211 C223 1.265 . S
O212 Gd178 2.353 . S
O212 C223 1.242 . S
O213 Gd178 2.468 . S
O213 C231 1.263 . S
O214 Gd178 2.427 . S
O214 C231 1.252 . S
O215 Gd179 2.307 . S
O215 C224 1.261 . S
O216 Gd178 2.388 . S
O216 C224 1.252 . S
O217 Gd178 2.386 . S
O217 C235 1.265 . S
O218 Gd179 2.353 . S
O218 C235 1.242 . S
O219 Gd179 2.468 . S
O219 C243 1.263 . S
O220 Gd179 2.427 . S
O220 C243 1.252 . S
O221 Gd178 2.307 . S
O221 C236 1.261 . S
O222 Gd179 2.388 . S
O222 C236 1.252 . S
C223 O211 1.265 . S
C223 O212 1.242 . S
C224 O215 1.261 . S
C224 O216 1.252 . S
C225 C228 1.394 . S
C225 C230 1.370 . S
C225 C231 1.500 . S
C226 C229 1.383 . S
C226 C230 1.395 . S
C227 C228 1.396 . S
C227 C229 1.365 . S
C227 H244 0.929 . S
C228 C225 1.394 . S
C228 C227 1.396 . S
C228 H245 0.930 . S
C229 C226 1.383 . S
C229 C227 1.365 . S
C229 H246 0.931 . S
C230 C225 1.370 . S
C230 C226 1.395 . S
C230 H247 0.930 . S
C231 Gd178 2.805 . S
C231 O213 1.263 . S
C231 O214 1.252 . S
C231 C225 1.500 . S
C232 H194 0.930 . S
C232 C208 1.417 1_554 S
C232 C233 1.329 1_554 S
C233 C203 1.437 . S
C233 H204 0.929 1_556 S
C233 C232 1.329 1_556 S
H234 C207 0.931 1_554 S
C235 O217 1.265 . S
C235 O218 1.242 . S
C236 O221 1.261 . S
C236 O222 1.252 . S
C237 C240 1.394 . S
C237 C242 1.370 . S
C237 C243 1.500 . S
C238 C241 1.383 . S
C238 C242 1.395 . S
C239 C240 1.396 . S
C239 C241 1.365 . S
C239 H248 0.929 . S
C240 C237 1.394 . S
C240 C239 1.396 . S
C240 H249 0.930 . S
C241 C238 1.383 . S
C241 C239 1.365 . S
C241 H250 0.931 . S
C242 C237 1.370 . S
C242 C238 1.395 . S
C242 H251 0.930 . S
C243 Gd179 2.805 . S
C243 O219 1.263 . S
C243 O220 1.252 . S
C243 C237 1.500 . S
H244 C227 0.929 . S
H245 C228 0.930 . S
H246 C229 0.931 . S
H247 C230 0.930 . S
H248 C239 0.929 . S
H249 C240 0.930 . S
H250 C241 0.931 . S
H251 C242 0.930 . S
C252 C254 1.422 . S
C252 C256 1.415 . S
C252 N258 1.369 . S
C253 C254 1.421 . S
C253 C255 1.417 1_556 S
C253 C265 1.422 . S
C254 C252 1.422 . S
C254 C253 1.421 . S
C254 N264 1.359 . S
C255 C253 1.417 1_554 S
C255 C257 1.329 1_554 S
C255 H274 0.930 . S
C256 C252 1.415 . S
C256 C257 1.437 . S
C256 C260 1.413 . S
C257 C255 1.329 1_556 S
C257 C256 1.437 . S
C257 H279 0.929 1_556 S
N258 C252 1.369 . S
N258 C259 1.338 . S
N258 Gd263 2.622 . S
C259 N258 1.338 . S
C259 C261 1.378 . S
C259 H271 0.929 . S
C260 C256 1.413 . S
C260 C261 1.348 . S
C260 H276 0.931 . S
C261 C259 1.378 . S
C261 C260 1.348 . S
C261 H277 0.930 . S
Gd262 N282 2.622 . S
Gd262 N289 2.570 . S
Gd262 O296 2.353 . S
Gd262 O297 2.468 . S
Gd262 O298 2.427 . S
Gd262 O300 2.388 . S
Gd262 O301 2.386 . S
Gd262 O305 2.307 . S
Gd262 C315 2.805 . S
Gd263 N258 2.622 . S
Gd263 N264 2.570 . S
Gd263 O295 2.386 . S
Gd263 O299 2.307 . S
Gd263 O302 2.353 . S
Gd263 O303 2.468 . S
Gd263 O304 2.427 . S
Gd263 O306 2.388 . S
Gd263 C327 2.805 . S
N264 C254 1.359 . S
N264 Gd263 2.570 . S
N264 C266 1.343 . S
C265 C253 1.422 . S
C265 C267 1.321 . S
C265 H273 0.931 1_556 S
C266 N264 1.343 . S
C266 C267 1.390 . S
C266 H268 0.931 . S
C267 C265 1.321 . S
C267 C266 1.390 . S
C267 H269 0.930 . S
H268 C266 0.931 . S
H269 C267 0.930 . S
H270 C293 0.931 . S
H271 C259 0.929 . S
H272 C294 0.930 . S
H273 C265 0.931 1_554 S
H274 C255 0.930 . S
H275 C284 0.929 . S
H276 C260 0.931 . S
H277 C261 0.930 . S
H278 C316 0.930 1_556 S
H279 C257 0.929 1_554 S
H280 C285 0.931 . S
H281 C286 0.930 . S
N282 Gd262 2.622 . S
N282 C283 1.369 . S
N282 C284 1.338 . S
C283 N282 1.369 . S
C283 C287 1.415 . S
C283 C290 1.422 . S
C284 H275 0.929 . S
C284 N282 1.338 . S
C284 C286 1.378 . S
C285 H280 0.931 . S
C285 C286 1.348 . S
C285 C287 1.413 . S
C286 H281 0.930 . S
C286 C284 1.378 . S
C286 C285 1.348 . S
C287 C283 1.415 . S
C287 C285 1.413 . S
C287 C317 1.437 . S
H288 C317 0.929 . S
N289 Gd262 2.570 . S
N289 C290 1.359 . S
N289 C293 1.343 . S
C290 C283 1.422 . S
C290 N289 1.359 . S
C290 C292 1.421 . S
C291 C292 1.422 . S
C291 C294 1.321 . S
C291 H318 0.931 . S
C292 C290 1.421 . S
C292 C291 1.422 . S
C292 C316 1.417 . S
C293 H270 0.931 . S
C293 N289 1.343 . S
C293 C294 1.390 . S
C294 H272 0.930 . S
C294 C291 1.321 . S
C294 C293 1.390 . S
O295 Gd263 2.386 . S
O295 C307 1.265 . S
O296 Gd262 2.353 . S
O296 C307 1.242 . S
O297 Gd262 2.468 . S
O297 C315 1.263 . S
O298 Gd262 2.427 . S
O298 C315 1.252 . S
O299 Gd263 2.307 . S
O299 C308 1.261 . S
O300 Gd262 2.388 . S
O300 C308 1.252 . S
O301 Gd262 2.386 . S
O301 C319 1.265 . S
O302 Gd263 2.353 . S
O302 C319 1.242 . S
O303 Gd263 2.468 . S
O303 C327 1.263 . S
O304 Gd263 2.427 . S
O304 C327 1.252 . S
O305 Gd262 2.307 . S
O305 C320 1.261 . S
O306 Gd263 2.388 . S
O306 C320 1.252 . S
C307 O295 1.265 . S
C307 O296 1.242 . S
C308 O299 1.261 . S
C308 O300 1.252 . S
C309 C312 1.394 . S
C309 C314 1.370 . S
C309 C315 1.500 . S
C310 C313 1.383 . S
C310 C314 1.395 . S
C311 C312 1.396 . S
C311 C313 1.365 . S
C311 H328 0.929 . S
C312 C309 1.394 . S
C312 C311 1.396 . S
C312 H329 0.930 . S
C313 C310 1.383 . S
C313 C311 1.365 . S
C313 H330 0.931 . S
C314 C309 1.370 . S
C314 C310 1.395 . S
C314 H331 0.930 . S
C315 Gd262 2.805 . S
C315 O297 1.263 . S
C315 O298 1.252 . S
C315 C309 1.500 . S
C316 H278 0.930 1_554 S
C316 C292 1.417 . S
C316 C317 1.329 . S
C317 C287 1.437 . S
C317 H288 0.929 . S
C317 C316 1.329 . S
H318 C291 0.931 . S
C319 O301 1.265 . S
C319 O302 1.242 . S
C320 O305 1.261 . S
C320 O306 1.252 . S
C321 C324 1.394 . S
C321 C326 1.370 . S
C321 C327 1.500 . S
C322 C325 1.383 . S
C322 C326 1.395 . S
C323 C324 1.396 . S
C323 C325 1.365 . S
C323 H332 0.929 . S
C324 C321 1.394 . S
C324 C323 1.396 . S
C324 H333 0.930 . S
C325 C322 1.383 . S
C325 C323 1.365 . S
C325 H334 0.931 . S
C326 C321 1.370 . S
C326 C322 1.395 . S
C326 H335 0.930 . S
C327 Gd263 2.805 . S
C327 O303 1.263 . S
C327 O304 1.252 . S
C327 C321 1.500 . S
H328 C311 0.929 . S
H329 C312 0.930 . S
H330 C313 0.931 . S
H331 C314 0.930 . S
H332 C323 0.929 . S
H333 C324 0.930 . S
H334 C325 0.931 . S
H335 C326 0.930 . S
C336 C338 1.422 . S
C336 C340 1.415 . S
C336 N342 1.369 . S
C337 C338 1.421 . S
C337 C339 1.417 . S
C337 C349 1.422 . S
C338 C336 1.422 . S
C338 C337 1.421 . S
C338 N348 1.359 . S
C339 C337 1.417 . S
C339 C341 1.329 . S
C339 H358 0.930 . S
C340 C336 1.415 . S
C340 C341 1.437 . S
C340 C344 1.413 . S
C341 C339 1.329 . S
C341 C340 1.437 . S
C341 H363 0.929 . S
N342 C336 1.369 . S
N342 C343 1.338 . S
N342 Gd347 2.622 . S
C343 N342 1.338 . S
C343 C345 1.378 . S
C343 H355 0.929 . S
C344 C340 1.413 . S
C344 C345 1.348 . S
C344 H360 0.931 . S
C345 C343 1.378 . S
C345 C344 1.348 . S
C345 H361 0.930 . S
Gd346 N366 2.622 . S
Gd346 N373 2.570 . S
Gd346 O380 2.353 1_556 S
Gd346 O381 2.468 1_556 S
Gd346 O382 2.427 1_556 S
Gd346 O384 2.388 1_556 S
Gd346 O385 2.386 . S
Gd346 O389 2.307 . S
Gd346 C399 2.805 1_556 S
Gd347 N342 2.622 . S
Gd347 N348 2.570 . S
Gd347 O379 2.386 . S
Gd347 O383 2.307 . S
Gd347 O386 2.353 1_554 S
Gd347 O387 2.468 1_554 S
Gd347 O388 2.427 1_554 S
Gd347 O390 2.388 1_554 S
Gd347 C411 2.805 1_554 S
N348 C338 1.359 . S
N348 Gd347 2.570 . S
N348 C350 1.343 . S
C349 C337 1.422 . S
C349 C351 1.321 . S
C349 H357 0.931 . S
C350 N348 1.343 . S
C350 C351 1.390 . S
C350 H352 0.931 . S
C351 C349 1.321 . S
C351 C350 1.390 . S
C351 H353 0.930 . S
H352 C350 0.931 . S
H353 C351 0.930 . S
H354 C377 0.931 . S
H355 C343 0.929 . S
H356 C378 0.930 . S
H357 C349 0.931 . S
H358 C339 0.930 . S
H359 C368 0.929 . S
H360 C344 0.931 . S
H361 C345 0.930 . S
H362 C400 0.930 . S
H363 C341 0.929 . S
H364 C369 0.931 . S
H365 C370 0.930 1_545 S
N366 Gd346 2.622 . S
N366 C367 1.369 . S
N366 C368 1.338 . S
C367 N366 1.369 . S
C367 C371 1.415 . S
C367 C374 1.422 . S
C368 H359 0.929 . S
C368 N366 1.338 . S
C368 C370 1.378 . S
C369 H364 0.931 . S
C369 C370 1.348 . S
C369 C371 1.413 . S
C370 H365 0.930 1_565 S
C370 C368 1.378 . S
C370 C369 1.348 . S
C371 C367 1.415 . S
C371 C369 1.413 . S
C371 C401 1.437 . S
H372 C401 0.929 . S
N373 Gd346 2.570 . S
N373 C374 1.359 . S
N373 C377 1.343 . S
C374 C367 1.422 . S
C374 N373 1.359 . S
C374 C376 1.421 . S
C375 C376 1.422 . S
C375 C378 1.321 . S
C375 H402 0.931 . S
C376 C374 1.421 . S
C376 C375 1.422 . S
C376 C400 1.417 . S
C377 H354 0.931 . S
C377 N373 1.343 . S
C377 C378 1.390 . S
C378 H356 0.930 . S
C378 C375 1.321 . S
C378 C377 1.390 . S
O379 Gd347 2.386 . S
O379 C391 1.265 . S
O380 Gd346 2.353 1_554 S
O380 C391 1.242 . S
O381 Gd346 2.468 1_554 S
O381 C399 1.263 . S
O382 Gd346 2.427 1_554 S
O382 C399 1.252 . S
O383 Gd347 2.307 . S
O383 C392 1.261 . S
O384 Gd346 2.388 1_554 S
O384 C392 1.252 . S
O385 Gd346 2.386 . S
O385 C403 1.265 . S
O386 Gd347 2.353 1_556 S
O386 C403 1.242 . S
O387 Gd347 2.468 1_556 S
O387 C411 1.263 . S
O388 Gd347 2.427 1_556 S
O388 C411 1.252 . S
O389 Gd346 2.307 . S
O389 C404 1.261 . S
O390 Gd347 2.388 1_556 S
O390 C404 1.252 . S
C391 O379 1.265 . S
C391 O380 1.242 . S
C392 O383 1.261 . S
C392 O384 1.252 . S
C393 C396 1.394 . S
C393 C398 1.370 . S
C393 C399 1.500 . S
C394 C397 1.383 . S
C394 C398 1.395 . S
C395 C396 1.396 . S
C395 C397 1.365 . S
C395 H412 0.929 . S
C396 C393 1.394 . S
C396 C395 1.396 . S
C396 H413 0.930 . S
C397 C394 1.383 . S
C397 C395 1.365 . S
C397 H414 0.931 . S
C398 C393 1.370 . S
C398 C394 1.395 . S
C398 H415 0.930 . S
C399 Gd346 2.805 1_554 S
C399 O381 1.263 . S
C399 O382 1.252 . S
C399 C393 1.500 . S
C400 H362 0.930 . S
C400 C376 1.417 . S
C400 C401 1.329 . S
C401 C371 1.437 . S
C401 H372 0.929 . S
C401 C400 1.329 . S
H402 C375 0.931 . S
C403 O385 1.265 . S
C403 O386 1.242 . S
C404 O389 1.261 . S
C404 O390 1.252 . S
C405 C408 1.394 . S
C405 C410 1.370 . S
C405 C411 1.500 . S
C406 C409 1.383 . S
C406 C410 1.395 . S
C407 C408 1.396 . S
C407 C409 1.365 . S
C407 H416 0.929 . S
C408 C405 1.394 . S
C408 C407 1.396 . S
C408 H417 0.930 . S
C409 C406 1.383 . S
C409 C407 1.365 . S
C409 H418 0.931 . S
C410 C405 1.370 . S
C410 C406 1.395 . S
C410 H419 0.930 . S
C411 Gd347 2.805 1_556 S
C411 O387 1.263 . S
C411 O388 1.252 . S
C411 C405 1.500 . S
H412 C395 0.929 . S
H413 C396 0.930 . S
H414 C397 0.931 . S
H415 C398 0.930 . S
H416 C407 0.929 . S
H417 C408 0.930 . S
H418 C409 0.931 . S
H419 C410 0.930 . S
C420 C422 1.422 . S
C420 C424 1.415 . S
C420 N426 1.369 . S
C421 C422 1.421 . S
C421 C423 1.417 . S
C421 C433 1.422 . S
C422 C420 1.422 . S
C422 C421 1.421 . S
C422 N432 1.359 . S
C423 C421 1.417 . S
C423 C425 1.329 . S
C423 H442 0.930 . S
C424 C420 1.415 . S
C424 C425 1.437 . S
C424 C428 1.413 . S
C425 C423 1.329 . S
C425 C424 1.437 . S
C425 H447 0.929 . S
N426 C420 1.369 . S
N426 C427 1.338 . S
N426 Gd431 2.622 . S
C427 N426 1.338 . S
C427 C429 1.378 . S
C427 H439 0.929 . S
C428 C424 1.413 . S
C428 C429 1.348 . S
C428 H444 0.931 . S
C429 C427 1.378 . S
C429 C428 1.348 . S
C429 H445 0.930 1_565 S
Gd430 N450 2.622 . S
Gd430 N457 2.570 . S
Gd430 O464 2.353 1_554 S
Gd430 O465 2.468 1_554 S
Gd430 O466 2.427 1_554 S
Gd430 O468 2.388 1_554 S
Gd430 O469 2.386 . S
Gd430 O473 2.307 . S
Gd430 C483 2.805 1_554 S
Gd431 N426 2.622 . S
Gd431 N432 2.570 . S
Gd431 O463 2.386 . S
Gd431 O467 2.307 . S
Gd431 O470 2.353 1_556 S
Gd431 O471 2.468 1_556 S
Gd431 O472 2.427 1_556 S
Gd431 O474 2.388 1_556 S
Gd431 C495 2.805 1_556 S
N432 C422 1.359 . S
N432 Gd431 2.570 . S
N432 C434 1.343 . S
C433 C421 1.422 . S
C433 C435 1.321 . S
C433 H441 0.931 . S
C434 N432 1.343 . S
C434 C435 1.390 . S
C434 H436 0.931 . S
C435 C433 1.321 . S
C435 C434 1.390 . S
C435 H437 0.930 . S
H436 C434 0.931 . S
H437 C435 0.930 . S
H438 C461 0.931 . S
H439 C427 0.929 . S
H440 C462 0.930 . S
H441 C433 0.931 . S
H442 C423 0.930 . S
H443 C452 0.929 . S
H444 C428 0.931 . S
H445 C429 0.930 1_545 S
H446 C484 0.930 . S
H447 C425 0.929 . S
H448 C453 0.931 . S
H449 C454 0.930 . S
N450 Gd430 2.622 . S
N450 C451 1.369 . S
N450 C452 1.338 . S
C451 N450 1.369 . S
C451 C455 1.415 . S
C451 C458 1.422 . S
C452 H443 0.929 . S
C452 N450 1.338 . S
C452 C454 1.378 . S
C453 H448 0.931 . S
C453 C454 1.348 . S
C453 C455 1.413 . S
C454 H449 0.930 . S
C454 C452 1.378 . S
C454 C453 1.348 . S
C455 C451 1.415 . S
C455 C453 1.413 . S
C455 C485 1.437 . S
H456 C485 0.929 . S
N457 Gd430 2.570 . S
N457 C458 1.359 . S
N457 C461 1.343 . S
C458 C451 1.422 . S
C458 N457 1.359 . S
C458 C460 1.421 . S
C459 C460 1.422 . S
C459 C462 1.321 . S
C459 H486 0.931 . S
C460 C458 1.421 . S
C460 C459 1.422 . S
C460 C484 1.417 . S
C461 H438 0.931 . S
C461 N457 1.343 . S
C461 C462 1.390 . S
C462 H440 0.930 . S
C462 C459 1.321 . S
C462 C461 1.390 . S
O463 Gd431 2.386 . S
O463 C475 1.265 . S
O464 Gd430 2.353 1_556 S
O464 C475 1.242 . S
O465 Gd430 2.468 1_556 S
O465 C483 1.263 . S
O466 Gd430 2.427 1_556 S
O466 C483 1.252 . S
O467 Gd431 2.307 . S
O467 C476 1.261 . S
O468 Gd430 2.388 1_556 S
O468 C476 1.252 . S
O469 Gd430 2.386 . S
O469 C487 1.265 . S
O470 Gd431 2.353 1_554 S
O470 C487 1.242 . S
O471 Gd431 2.468 1_554 S
O471 C495 1.263 . S
O472 Gd431 2.427 1_554 S
O472 C495 1.252 . S
O473 Gd430 2.307 . S
O473 C488 1.261 . S
O474 Gd431 2.388 1_554 S
O474 C488 1.252 . S
C475 O463 1.265 . S
C475 O464 1.242 . S
C476 O467 1.261 . S
C476 O468 1.252 . S
C477 C480 1.394 . S
C477 C482 1.370 . S
C477 C483 1.500 . S
C478 C481 1.383 . S
C478 C482 1.395 . S
C479 C480 1.396 . S
C479 C481 1.365 . S
C479 H496 0.929 . S
C480 C477 1.394 . S
C480 C479 1.396 . S
C480 H497 0.930 . S
C481 C478 1.383 . S
C481 C479 1.365 . S
C481 H498 0.931 . S
C482 C477 1.370 . S
C482 C478 1.395 . S
C482 H499 0.930 . S
C483 Gd430 2.805 1_556 S
C483 O465 1.263 . S
C483 O466 1.252 . S
C483 C477 1.500 . S
C484 H446 0.930 . S
C484 C460 1.417 . S
C484 C485 1.329 . S
C485 C455 1.437 . S
C485 H456 0.929 . S
C485 C484 1.329 . S
H486 C459 0.931 . S
C487 O469 1.265 . S
C487 O470 1.242 . S
C488 O473 1.261 . S
C488 O474 1.252 . S
C489 C492 1.394 . S
C489 C494 1.370 . S
C489 C495 1.500 . S
C490 C493 1.383 . S
C490 C494 1.395 . S
C491 C492 1.396 . S
C491 C493 1.365 . S
C491 H500 0.929 . S
C492 C489 1.394 . S
C492 C491 1.396 . S
C492 H501 0.930 . S
C493 C490 1.383 . S
C493 C491 1.365 . S
C493 H502 0.931 . S
C494 C489 1.370 . S
C494 C490 1.395 . S
C494 H503 0.930 . S
C495 Gd431 2.805 1_554 S
C495 O471 1.263 . S
C495 O472 1.252 . S
C495 C489 1.500 . S
H496 C479 0.929 . S
H497 C480 0.930 . S
H498 C481 0.931 . S
H499 C482 0.930 . S
H500 C491 0.929 . S
H501 C492 0.930 . S
H502 C493 0.931 . S
H503 C494 0.930 . S
C504 C506 1.422 . S
C504 C508 1.415 . S
C504 N510 1.369 . S
C505 C506 1.421 . S
C505 C507 1.417 . S
C505 C517 1.422 . S
C506 C504 1.422 . S
C506 C505 1.421 . S
C506 N516 1.359 . S
C507 C505 1.417 . S
C507 C509 1.329 . S
C507 H526 0.930 . S
C508 C504 1.415 . S
C508 C509 1.437 . S
C508 C512 1.413 . S
C509 C507 1.329 . S
C509 C508 1.437 . S
C509 H531 0.929 . S
N510 C504 1.369 . S
N510 C511 1.338 . S
N510 Gd515 2.622 . S
C511 N510 1.338 . S
C511 C513 1.378 . S
C511 H523 0.929 . S
C512 C508 1.413 . S
C512 C513 1.348 . S
C512 H528 0.931 . S
C513 C511 1.378 . S
C513 C512 1.348 . S
C513 H529 0.930 . S
Gd514 N534 2.622 . S
Gd514 N541 2.570 . S
Gd514 O548 2.353 1_554 S
Gd514 O549 2.468 1_554 S
Gd514 O550 2.427 1_554 S
Gd514 O552 2.388 1_554 S
Gd514 O553 2.386 . S
Gd514 O557 2.307 . S
Gd514 C567 2.805 1_554 S
Gd515 N510 2.622 . S
Gd515 N516 2.570 . S
Gd515 O547 2.386 . S
Gd515 O551 2.307 . S
Gd515 O554 2.353 1_556 S
Gd515 O555 2.468 1_556 S
Gd515 O556 2.427 1_556 S
Gd515 O558 2.388 1_556 S
Gd515 C579 2.805 1_556 S
N516 C506 1.359 . S
N516 Gd515 2.570 . S
N516 C518 1.343 . S
C517 C505 1.422 . S
C517 C519 1.321 . S
C517 H525 0.931 . S
C518 N516 1.343 . S
C518 C519 1.390 . S
C518 H520 0.931 . S
C519 C517 1.321 . S
C519 C518 1.390 . S
C519 H521 0.930 . S
H520 C518 0.931 . S
H521 C519 0.930 . S
H522 C545 0.931 . S
H523 C511 0.929 . S
H524 C546 0.930 . S
H525 C517 0.931 . S
H526 C507 0.930 . S
H527 C536 0.929 . S
H528 C512 0.931 . S
H529 C513 0.930 . S
H530 C568 0.930 . S
H531 C509 0.929 . S
H532 C537 0.931 . S
H533 C538 0.930 1_565 S
N534 Gd514 2.622 . S
N534 C535 1.369 . S
N534 C536 1.338 . S
C535 N534 1.369 . S
C535 C539 1.415 . S
C535 C542 1.422 . S
C536 H527 0.929 . S
C536 N534 1.338 . S
C536 C538 1.378 . S
C537 H532 0.931 . S
C537 C538 1.348 . S
C537 C539 1.413 . S
C538 H533 0.930 1_545 S
C538 C536 1.378 . S
C538 C537 1.348 . S
C539 C535 1.415 . S
C539 C537 1.413 . S
C539 C569 1.437 . S
H540 C569 0.929 . S
N541 Gd514 2.570 . S
N541 C542 1.359 . S
N541 C545 1.343 . S
C542 C535 1.422 . S
C542 N541 1.359 . S
C542 C544 1.421 . S
C543 C544 1.422 . S
C543 C546 1.321 . S
C543 H570 0.931 . S
C544 C542 1.421 . S
C544 C543 1.422 . S
C544 C568 1.417 . S
C545 H522 0.931 . S
C545 N541 1.343 . S
C545 C546 1.390 . S
C546 H524 0.930 . S
C546 C543 1.321 . S
C546 C545 1.390 . S
O547 Gd515 2.386 . S
O547 C559 1.265 . S
O548 Gd514 2.353 1_556 S
O548 C559 1.242 . S
O549 Gd514 2.468 1_556 S
O549 C567 1.263 . S
O550 Gd514 2.427 1_556 S
O550 C567 1.252 . S
O551 Gd515 2.307 . S
O551 C560 1.261 . S
O552 Gd514 2.388 1_556 S
O552 C560 1.252 . S
O553 Gd514 2.386 . S
O553 C571 1.265 . S
O554 Gd515 2.353 1_554 S
O554 C571 1.242 . S
O555 Gd515 2.468 1_554 S
O555 C579 1.263 . S
O556 Gd515 2.427 1_554 S
O556 C579 1.252 . S
O557 Gd514 2.307 . S
O557 C572 1.261 . S
O558 Gd515 2.388 1_554 S
O558 C572 1.252 . S
C559 O547 1.265 . S
C559 O548 1.242 . S
C560 O551 1.261 . S
C560 O552 1.252 . S
C561 C564 1.394 . S
C561 C566 1.370 . S
C561 C567 1.500 . S
C562 C565 1.383 . S
C562 C566 1.395 . S
C563 C564 1.396 . S
C563 C565 1.365 . S
C563 H580 0.929 . S
C564 C561 1.394 . S
C564 C563 1.396 . S
C564 H581 0.930 . S
C565 C562 1.383 . S
C565 C563 1.365 . S
C565 H582 0.931 . S
C566 C561 1.370 . S
C566 C562 1.395 . S
C566 H583 0.930 . S
C567 Gd514 2.805 1_556 S
C567 O549 1.263 . S
C567 O550 1.252 . S
C567 C561 1.500 . S
C568 H530 0.930 . S
C568 C544 1.417 . S
C568 C569 1.329 . S
C569 C539 1.437 . S
C569 H540 0.929 . S
C569 C568 1.329 . S
H570 C543 0.931 . S
C571 O553 1.265 . S
C571 O554 1.242 . S
C572 O557 1.261 . S
C572 O558 1.252 . S
C573 C576 1.394 . S
C573 C578 1.370 . S
C573 C579 1.500 . S
C574 C577 1.383 . S
C574 C578 1.395 . S
C575 C576 1.396 . S
C575 C577 1.365 . S
C575 H584 0.929 . S
C576 C573 1.394 . S
C576 C575 1.396 . S
C576 H585 0.930 . S
C577 C574 1.383 . S
C577 C575 1.365 . S
C577 H586 0.931 . S
C578 C573 1.370 . S
C578 C574 1.395 . S
C578 H587 0.930 . S
C579 Gd515 2.805 1_554 S
C579 O555 1.263 . S
C579 O556 1.252 . S
C579 C573 1.500 . S
H580 C563 0.929 . S
H581 C564 0.930 . S
H582 C565 0.931 . S
H583 C566 0.930 . S
H584 C575 0.929 . S
H585 C576 0.930 . S
H586 C577 0.931 . S
H587 C578 0.930 . S
C588 C590 1.422 . S
C588 C592 1.415 . S
C588 N594 1.369 . S
C589 C590 1.421 . S
C589 C591 1.417 . S
C589 C601 1.422 . S
C590 C588 1.422 . S
C590 C589 1.421 . S
C590 N600 1.359 . S
C591 C589 1.417 . S
C591 C593 1.329 . S
C591 H610 0.930 . S
C592 C588 1.415 . S
C592 C593 1.437 . S
C592 C596 1.413 . S
C593 C591 1.329 . S
C593 C592 1.437 . S
C593 H615 0.929 . S
N594 C588 1.369 . S
N594 C595 1.338 . S
N594 Gd599 2.622 . S
C595 N594 1.338 . S
C595 C597 1.378 . S
C595 H607 0.929 . S
C596 C592 1.413 . S
C596 C597 1.348 . S
C596 H612 0.931 . S
C597 C595 1.378 . S
C597 C596 1.348 . S
C597 H613 0.930 1_545 S
Gd598 N618 2.622 . S
Gd598 N625 2.570 . S
Gd598 O632 2.353 1_556 S
Gd598 O633 2.468 1_556 S
Gd598 O634 2.427 1_556 S
Gd598 O636 2.388 1_556 S
Gd598 O637 2.386 . S
Gd598 O641 2.307 . S
Gd598 C651 2.805 1_556 S
Gd599 N594 2.622 . S
Gd599 N600 2.570 . S
Gd599 O631 2.386 . S
Gd599 O635 2.307 . S
Gd599 O638 2.353 1_554 S
Gd599 O639 2.468 1_554 S
Gd599 O640 2.427 1_554 S
Gd599 O642 2.388 1_554 S
Gd599 C663 2.805 1_554 S
N600 C590 1.359 . S
N600 Gd599 2.570 . S
N600 C602 1.343 . S
C601 C589 1.422 . S
C601 C603 1.321 . S
C601 H609 0.931 . S
C602 N600 1.343 . S
C602 C603 1.390 . S
C602 H604 0.931 . S
C603 C601 1.321 . S
C603 C602 1.390 . S
C603 H605 0.930 . S
H604 C602 0.931 . S
H605 C603 0.930 . S
H606 C629 0.931 . S
H607 C595 0.929 . S
H608 C630 0.930 . S
H609 C601 0.931 . S
H610 C591 0.930 . S
H611 C620 0.929 . S
H612 C596 0.931 . S
H613 C597 0.930 1_565 S
H614 C652 0.930 . S
H615 C593 0.929 . S
H616 C621 0.931 . S
H617 C622 0.930 . S
N618 Gd598 2.622 . S
N618 C619 1.369 . S
N618 C620 1.338 . S
C619 N618 1.369 . S
C619 C623 1.415 . S
C619 C626 1.422 . S
C620 H611 0.929 . S
C620 N618 1.338 . S
C620 C622 1.378 . S
C621 H616 0.931 . S
C621 C622 1.348 . S
C621 C623 1.413 . S
C622 H617 0.930 . S
C622 C620 1.378 . S
C622 C621 1.348 . S
C623 C619 1.415 . S
C623 C621 1.413 . S
C623 C653 1.437 . S
H624 C653 0.929 . S
N625 Gd598 2.570 . S
N625 C626 1.359 . S
N625 C629 1.343 . S
C626 C619 1.422 . S
C626 N625 1.359 . S
C626 C628 1.421 . S
C627 C628 1.422 . S
C627 C630 1.321 . S
C627 H654 0.931 . S
C628 C626 1.421 . S
C628 C627 1.422 . S
C628 C652 1.417 . S
C629 H606 0.931 . S
C629 N625 1.343 . S
C629 C630 1.390 . S
C630 H608 0.930 . S
C630 C627 1.321 . S
C630 C629 1.390 . S
O631 Gd599 2.386 . S
O631 C643 1.265 . S
O632 Gd598 2.353 1_554 S
O632 C643 1.242 . S
O633 Gd598 2.468 1_554 S
O633 C651 1.263 . S
O634 Gd598 2.427 1_554 S
O634 C651 1.252 . S
O635 Gd599 2.307 . S
O635 C644 1.261 . S
O636 Gd598 2.388 1_554 S
O636 C644 1.252 . S
O637 Gd598 2.386 . S
O637 C655 1.265 . S
O638 Gd599 2.353 1_556 S
O638 C655 1.242 . S
O639 Gd599 2.468 1_556 S
O639 C663 1.263 . S
O640 Gd599 2.427 1_556 S
O640 C663 1.252 . S
O641 Gd598 2.307 . S
O641 C656 1.261 . S
O642 Gd599 2.388 1_556 S
O642 C656 1.252 . S
C643 O631 1.265 . S
C643 O632 1.242 . S
C644 O635 1.261 . S
C644 O636 1.252 . S
C645 C648 1.394 . S
C645 C650 1.370 . S
C645 C651 1.500 . S
C646 C649 1.383 . S
C646 C650 1.395 . S
C647 C648 1.396 . S
C647 C649 1.365 . S
C647 H664 0.929 . S
C648 C645 1.394 . S
C648 C647 1.396 . S
C648 H665 0.930 . S
C649 C646 1.383 . S
C649 C647 1.365 . S
C649 H666 0.931 . S
C650 C645 1.370 . S
C650 C646 1.395 . S
C650 H667 0.930 . S
C651 Gd598 2.805 1_554 S
C651 O633 1.263 . S
C651 O634 1.252 . S
C651 C645 1.500 . S
C652 H614 0.930 . S
C652 C628 1.417 . S
C652 C653 1.329 . S
C653 C623 1.437 . S
C653 H624 0.929 . S
C653 C652 1.329 . S
H654 C627 0.931 . S
C655 O637 1.265 . S
C655 O638 1.242 . S
C656 O641 1.261 . S
C656 O642 1.252 . S
C657 C660 1.394 . S
C657 C662 1.370 . S
C657 C663 1.500 . S
C658 C661 1.383 . S
C658 C662 1.395 . S
C659 C660 1.396 . S
C659 C661 1.365 . S
C659 H668 0.929 . S
C660 C657 1.394 . S
C660 C659 1.396 . S
C660 H669 0.930 . S
C661 C658 1.383 . S
C661 C659 1.365 . S
C661 H670 0.931 . S
C662 C657 1.370 . S
C662 C658 1.395 . S
C662 H671 0.930 . S
C663 Gd599 2.805 1_556 S
C663 O639 1.263 . S
C663 O640 1.252 . S
C663 C657 1.500 . S
H664 C647 0.929 . S
H665 C648 0.930 . S
H666 C649 0.931 . S
H667 C650 0.930 . S
H668 C659 0.929 . S
H669 C660 0.930 . S
H670 C661 0.931 . S
H671 C662 0.930 . S
C672 C673 1.387 . S
C672 H676 0.950 . S
C672 C681 1.390 . S
C673 C672 1.387 . S
C673 C675 1.387 . S
H674 C681 0.950 . S
C675 C673 1.387 . S
C675 C677 1.390 . S
C675 H679 0.950 . S
H676 C672 0.950 . S
C677 C675 1.390 . S
C677 C678 1.387 . S
C677 H680 0.950 . S
C678 C677 1.387 . S
C678 C681 1.387 . S
H679 C675 0.950 . S
H680 C677 0.950 . S
C681 C672 1.390 . S
C681 H674 0.950 . S
C681 C678 1.387 . S
C682 C683 1.387 . S
C682 H686 0.950 . S
C682 C691 1.390 . S
C683 C682 1.387 . S
C683 C685 1.387 . S
H684 C691 0.950 . S
C685 C683 1.387 . S
C685 C687 1.390 . S
C685 H689 0.950 . S
H686 C682 0.950 . S
C687 C685 1.390 . S
C687 C688 1.387 . S
C687 H690 0.950 . S
C688 C687 1.387 . S
C688 C691 1.387 . S
H689 C685 0.950 . S
H690 C687 0.950 . S
C691 C682 1.390 . S
C691 H684 0.950 . S
C691 C688 1.387 . S
C692 C693 1.387 . S
C692 H696 0.950 . S
C692 C701 1.390 . S
C693 C692 1.387 . S
C693 C695 1.387 . S
H694 C701 0.950 . S
C695 C693 1.387 . S
C695 C697 1.390 . S
C695 H699 0.950 . S
H696 C692 0.950 . S
C697 C695 1.390 . S
C697 C698 1.387 . S
C697 H700 0.950 . S
C698 C697 1.387 . S
C698 C701 1.387 . S
H699 C695 0.950 . S
H700 C697 0.950 . S
C701 C692 1.390 . S
C701 H694 0.950 . S
C701 C698 1.387 . S
C702 C703 1.387 . S
C702 H706 0.950 . S
C702 C711 1.390 . S
C703 C702 1.387 . S
C703 C705 1.387 . S
H704 C711 0.950 . S
C705 C703 1.387 . S
C705 C707 1.390 . S
C705 H709 0.950 . S
H706 C702 0.950 . S
C707 C705 1.390 . S
C707 C708 1.387 . S
C707 H710 0.950 . S
C708 C707 1.387 . S
C708 C711 1.387 . S
H709 C705 0.950 . S
H710 C707 0.950 . S
C711 C702 1.390 . S
C711 H704 0.950 . S
C711 C708 1.387 . S
C712 C713 1.387 . S
C712 H716 0.950 . S
C712 C721 1.390 1_565 S
C713 C712 1.387 . S
C713 C715 1.387 . S
H714 C721 0.950 . S
C715 C713 1.387 . S
C715 C717 1.390 1_565 S
C715 H719 0.950 . S
H716 C712 0.950 . S
C717 C715 1.390 1_545 S
C717 C718 1.387 . S
C717 H720 0.950 . S
C718 C717 1.387 . S
C718 C721 1.387 . S
H719 C715 0.950 . S
H720 C717 0.950 . S
C721 C712 1.390 1_545 S
C721 H714 0.950 . S
C721 C718 1.387 . S
C722 C723 1.387 . S
C722 H726 0.950 . S
C722 C731 1.390 . S
C723 C722 1.387 . S
C723 C725 1.387 . S
H724 C731 0.950 . S
C725 C723 1.387 . S
C725 C727 1.390 . S
C725 H729 0.950 . S
H726 C722 0.950 . S
C727 C725 1.390 . S
C727 C728 1.387 . S
C727 H730 0.950 . S
C728 C727 1.387 . S
C728 C731 1.387 . S
H729 C725 0.950 . S
H730 C727 0.950 . S
C731 C722 1.390 . S
C731 H724 0.950 . S
C731 C728 1.387 . S
C732 C733 1.387 . S
C732 H736 0.950 . S
C732 C741 1.390 1_565 S
C733 C732 1.387 . S
C733 C735 1.387 . S
H734 C741 0.950 . S
C735 C733 1.387 . S
C735 C737 1.390 1_565 S
C735 H739 0.950 . S
H736 C732 0.950 . S
C737 C735 1.390 1_545 S
C737 C738 1.387 . S
C737 H740 0.950 . S
C738 C737 1.387 . S
C738 C741 1.387 . S
H739 C735 0.950 . S
H740 C737 0.950 . S
C741 C732 1.390 1_545 S
C741 H734 0.950 . S
C741 C738 1.387 . S
C742 C743 1.387 . S
C742 H746 0.950 . S
C742 C751 1.390 . S
C743 C742 1.387 . S
C743 C745 1.387 . S
H744 C751 0.950 . S
C745 C743 1.387 . S
C745 C747 1.390 . S
C745 H749 0.950 . S
H746 C742 0.950 . S
C747 C745 1.390 . S
C747 C748 1.387 . S
C747 H750 0.950 . S
C748 C747 1.387 . S
C748 C751 1.387 . S
H749 C745 0.950 . S
H750 C747 0.950 . S
C751 C742 1.390 . S
C751 H744 0.950 . S
C751 C748 1.387 . S
C752 C753 1.387 . S
C752 H756 0.950 . S
C752 C761 1.390 1_556 S
C753 C752 1.387 . S
C753 C755 1.387 . S
H754 C761 0.950 . S
C755 C753 1.387 . S
C755 C757 1.390 1_556 S
C755 H759 0.950 . S
H756 C752 0.950 . S
C757 C755 1.390 1_554 S
C757 C758 1.387 . S
C757 H760 0.950 . S
C758 C757 1.387 . S
C758 C761 1.387 . S
H759 C755 0.950 . S
H760 C757 0.950 . S
C761 C752 1.390 1_554 S
C761 H754 0.950 . S
C761 C758 1.387 . S
C762 C763 1.387 . S
C762 H766 0.950 . S
C762 C771 1.390 1_564 S
C763 C762 1.387 . S
C763 C765 1.387 . S
H764 C771 0.950 . S
C765 C763 1.387 . S
C765 C767 1.390 1_564 S
C765 H769 0.950 . S
H766 C762 0.950 . S
C767 C765 1.390 1_546 S
C767 C768 1.387 . S
C767 H770 0.950 . S
C768 C767 1.387 . S
C768 C771 1.387 . S
H769 C765 0.950 . S
H770 C767 0.950 . S
C771 C762 1.390 1_546 S
C771 H764 0.950 . S
C771 C768 1.387 . S
C772 C773 1.387 . S
C772 H776 0.950 . S
C772 C781 1.390 1_554 S
C773 C772 1.387 . S
C773 C775 1.387 . S
H774 C781 0.950 . S
C775 C773 1.387 . S
C775 C777 1.390 1_554 S
C775 H779 0.950 . S
H776 C772 0.950 . S
C777 C775 1.390 1_556 S
C777 C778 1.387 . S
C777 H780 0.950 . S
C778 C777 1.387 . S
C778 C781 1.387 . S
H779 C775 0.950 . S
H780 C777 0.950 . S
C781 C772 1.390 1_556 S
C781 H774 0.950 . S
C781 C778 1.387 . S
C782 C783 1.387 . S
C782 H786 0.950 . S
C782 C791 1.390 1_546 S
C783 C782 1.387 . S
C783 C785 1.387 . S
H784 C791 0.950 . S
C785 C783 1.387 . S
C785 C787 1.390 1_546 S
C785 H789 0.950 . S
H786 C782 0.950 . S
C787 C785 1.390 1_564 S
C787 C788 1.387 . S
C787 H790 0.950 . S
C788 C787 1.387 . S
C788 C791 1.387 . S
H789 C785 0.950 . S
H790 C787 0.950 . S
C791 C782 1.390 1_564 S
C791 H784 0.950 . S
C791 C788 1.387 . S
C792 C793 1.387 1_556 S
C792 H796 0.950 1_556 S
C792 C801 1.390 . S
C793 C792 1.387 1_554 S
C793 C795 1.387 . S
H794 C801 0.950 . S
C795 C793 1.387 . S
C795 C797 1.390 1_554 S
C795 H799 0.950 . S
H796 C792 0.950 1_554 S
C797 C795 1.390 1_556 S
C797 C798 1.387 . S
C797 H800 0.950 . S
C798 C797 1.387 . S
C798 C801 1.387 . S
H799 C795 0.950 . S
H800 C797 0.950 . S
C801 C792 1.390 . S
C801 H794 0.950 . S
C801 C798 1.387 . S
C802 C803 1.387 1_556 S
C802 H806 0.948 1_556 S
C802 C811 1.390 . S
C803 C802 1.387 1_554 S
C803 C805 1.387 . S
H804 C811 0.950 . S
C805 C803 1.387 . S
C805 C807 1.390 1_554 S
C805 H809 0.950 . S
H806 C802 0.948 1_554 S
C807 C805 1.390 1_556 S
C807 C808 1.387 . S
C807 H810 0.950 . S
C808 C807 1.387 . S
C808 C811 1.387 . S
H809 C805 0.950 . S
H810 C807 0.950 . S
C811 C802 1.390 . S
C811 H804 0.950 . S
C811 C808 1.387 . S
C812 C813 1.387 . S
C812 H816 0.950 . S
C812 C821 1.390 1_554 S
C813 C812 1.387 . S
C813 C815 1.387 . S
H814 C821 0.950 . S
C815 C813 1.387 . S
C815 C817 1.390 . S
C815 H819 0.950 . S
H816 C812 0.950 . S
C817 C815 1.390 . S
C817 C818 1.387 1_554 S
C817 H820 0.950 . S
C818 C817 1.387 1_556 S
C818 C821 1.387 . S
H819 C815 0.950 . S
H820 C817 0.950 . S
C821 C812 1.390 1_556 S
C821 H814 0.950 . S
C821 C818 1.387 . S
C822 C823 1.387 1_554 S
C822 H826 0.951 . S
C822 C831 1.390 . S
C823 C822 1.387 1_556 S
C823 C825 1.387 . S
H824 C831 0.950 . S
C825 C823 1.387 . S
C825 C827 1.390 1_556 S
C825 H829 0.950 . S
H826 C822 0.951 . S
C827 C825 1.390 1_554 S
C827 C828 1.387 . S
C827 H830 0.950 . S
C828 C827 1.387 . S
C828 C831 1.387 . S
H829 C825 0.950 . S
H830 C827 0.950 . S
C831 C822 1.390 . S
C831 H824 0.950 . S
C831 C828 1.387 . S
C832 C833 1.387 . S
C832 H836 0.950 . S
C832 C841 1.390 . S
C833 C832 1.387 . S
C833 C835 1.387 . S
H834 C841 0.950 . S
C835 C833 1.387 . S
C835 C837 1.390 . S
C835 H839 0.950 . S
H836 C832 0.950 . S
C837 C835 1.390 . S
C837 C838 1.387 . S
C837 H840 0.950 . S
C838 C837 1.387 . S
C838 C841 1.387 . S
H839 C835 0.950 . S
H840 C837 0.950 . S
C841 C832 1.390 . S
C841 H834 0.950 . S
C841 C838 1.387 . S
C842 C843 1.387 . S
C842 H846 0.950 . S
C842 C851 1.390 . S
C843 C842 1.387 . S
C843 C845 1.387 . S
H844 C851 0.950 . S
C845 C843 1.387 . S
C845 C847 1.390 . S
C845 H849 0.950 . S
H846 C842 0.950 . S
C847 C845 1.390 . S
C847 C848 1.387 . S
C847 H850 0.950 . S
C848 C847 1.387 . S
C848 C851 1.387 . S
H849 C845 0.950 . S
H850 C847 0.950 . S
C851 C842 1.390 . S
C851 H844 0.950 . S
C851 C848 1.387 . S
C852 C853 1.387 . S
C852 H856 0.950 . S
C852 C861 1.390 . S
C853 C852 1.387 . S
C853 C855 1.387 . S
H854 C861 0.950 . S
C855 C853 1.387 . S
C855 C857 1.390 . S
C855 H859 0.950 . S
H856 C852 0.950 . S
C857 C855 1.390 . S
C857 C858 1.387 . S
C857 H860 0.950 . S
C858 C857 1.387 . S
C858 C861 1.387 . S
H859 C855 0.950 . S
H860 C857 0.950 . S
C861 C852 1.390 . S
C861 H854 0.950 . S
C861 C858 1.387 . S
C862 C863 1.387 . S
C862 H866 0.950 . S
C862 C871 1.390 . S
C863 C862 1.387 . S
C863 C865 1.387 . S
H864 C871 0.950 . S
C865 C863 1.387 . S
C865 C867 1.390 . S
C865 H869 0.950 . S
H866 C862 0.950 . S
C867 C865 1.390 . S
C867 C868 1.387 . S
C867 H870 0.950 . S
C868 C867 1.387 . S
C868 C871 1.387 . S
H869 C865 0.950 . S
H870 C867 0.950 . S
C871 C862 1.390 . S
C871 H864 0.950 . S
C871 C868 1.387 . S
C872 C873 1.387 . S
C872 H876 0.950 . S
C872 C881 1.390 1_455 S
C873 C872 1.387 . S
C873 C875 1.387 . S
H874 C881 0.950 . S
C875 C873 1.387 . S
C875 C877 1.390 1_455 S
C875 H879 0.950 . S
H876 C872 0.950 . S
C877 C875 1.390 1_655 S
C877 C878 1.387 . S
C877 H880 0.950 . S
C878 C877 1.387 . S
C878 C881 1.387 . S
H879 C875 0.950 . S
H880 C877 0.950 . S
C881 C872 1.390 1_655 S
C881 H874 0.950 . S
C881 C878 1.387 . S
C882 C883 1.387 . S
C882 H886 0.950 . S
C882 C891 1.390 1_655 S
C883 C882 1.387 . S
C883 C885 1.387 . S
H884 C891 0.950 . S
C885 C883 1.387 . S
C885 C887 1.390 1_655 S
C885 H889 0.950 . S
H886 C882 0.950 . S
C887 C885 1.390 1_455 S
C887 C888 1.387 . S
C887 H890 0.950 . S
C888 C887 1.387 . S
C888 C891 1.387 . S
H889 C885 0.950 . S
H890 C887 0.950 . S
C891 C882 1.390 1_455 S
C891 H884 0.950 . S
C891 C888 1.387 . S
C892 C893 1.387 . S
C892 H896 0.950 . S
C892 C901 1.390 . S
C893 C892 1.387 . S
C893 C895 1.387 . S
H894 C901 0.950 . S
C895 C893 1.387 . S
C895 C897 1.390 . S
C895 H899 0.950 . S
H896 C892 0.950 . S
C897 C895 1.390 . S
C897 C898 1.387 . S
C897 H900 0.950 . S
C898 C897 1.387 . S
C898 C901 1.387 . S
H899 C895 0.950 . S
H900 C897 0.950 . S
C901 C892 1.390 . S
C901 H894 0.950 . S
C901 C898 1.387 . S
C902 C903 1.387 . S
C902 H906 0.950 . S
C902 C911 1.390 . S
C903 C902 1.387 . S
C903 C905 1.387 . S
H904 C911 0.950 . S
C905 C903 1.387 . S
C905 C907 1.390 . S
C905 H909 0.950 . S
H906 C902 0.950 . S
C907 C905 1.390 . S
C907 C908 1.387 . S
C907 H910 0.950 . S
C908 C907 1.387 . S
C908 C911 1.387 . S
H909 C905 0.950 . S
H910 C907 0.950 . S
C911 C902 1.390 . S
C911 H904 0.950 . S
C911 C908 1.387 . S
C673 C58 1.512 . S
C678 C658 1.512 . S
C683 C562 1.513 . S
C688 C154 1.512 . S
C693 C490 1.518 . S
C698 C226 1.517 . S
C703 C394 1.513 . S
C708 C322 1.513 . S
C713 C236 2.319 . S
C718 C68 2.319 . S
C723 C152 0.787 . S
C728 C320 0.787 . S
C733 C308 2.319 . S
C738 C140 2.319 . S
C743 C224 0.787 . S
C748 C56 0.787 . S
C753 C404 2.312 . S
C758 C572 2.311 . S
C763 C488 0.757 . S
C768 C656 0.758 . S
C773 C644 2.312 . S
C778 C476 2.311 . S
C783 C560 0.757 . S
C788 C392 0.758 . S
C793 C67 1.809 . S
C798 C55 1.809 . S
C803 C139 1.811 . S
C808 C151 1.811 . S
C813 C223 1.810 . S
C818 C235 1.810 . S
C823 C307 1.811 . S
C828 C319 1.811 . S
C833 C391 1.810 . S
C838 C403 1.810 . S
C843 C475 1.810 . S
C848 C487 1.810 . S
C853 C571 1.811 . S
C858 C559 1.811 . S
C863 C643 1.810 . S
C868 C655 1.810 . S
C873 C70 1.947 . S
C878 C142 1.948 . S
C883 C310 1.948 . S
C888 C238 1.947 . S
C893 C406 1.947 . S
C898 C478 1.949 . S
C903 C646 1.948 . S
C908 C574 1.949 . S
