# Generated by pormake.
# Topology umq, (4)-cn, num edge types: 1
# Building blocks:
#     Node 0, Type 0, BuildingBlock: AZAVOO_clean_sbu_0, # of connection points: 4
#     Node 1, Type 0, BuildingBlock: AZAVOO_clean_sbu_0, # of connection points: 4
#     Node 2, Type 0, BuildingBlock: AZAVOO_clean_sbu_0, # of connection points: 4
#     Node 3, Type 0, BuildingBlock: AZAVOO_clean_sbu_0, # of connection points: 4
#     Node 4, Type 0, BuildingBlock: AZAVOO_clean_sbu_0, # of connection points: 4
#     Node 5, Type 0, BuildingBlock: AZAVOO_clean_sbu_0, # of connection points: 4
#     Node 6, Type 0, BuildingBlock: AZAVOO_clean_sbu_0, # of connection points: 4
#     Node 7, Type 0, BuildingBlock: AZAVOO_clean_sbu_0, # of connection points: 4
#     Node 8, Type 0, BuildingBlock: AZAVOO_clean_sbu_0, # of connection points: 4
#     Node 9, Type 0, BuildingBlock: AZAVOO_clean_sbu_0, # of connection points: 4
#     Node 10, Type 0, BuildingBlock: AZAVOO_clean_sbu_0, # of connection points: 4
#     Node 11, Type 0, BuildingBlock: AZAVOO_clean_sbu_0, # of connection points: 4
#     Node 12, Type 0, BuildingBlock: AZAVOO_clean_sbu_0, # of connection points: 4
#     Node 13, Type 0, BuildingBlock: AZAVOO_clean_sbu_0, # of connection points: 4
#     Node 14, Type 0, BuildingBlock: AZAVOO_clean_sbu_0, # of connection points: 4
#     Node 15, Type 0, BuildingBlock: AZAVOO_clean_sbu_0, # of connection points: 4
#     Node 16, Type 0, BuildingBlock: AZAVOO_clean_sbu_0, # of connection points: 4
#     Node 17, Type 0, BuildingBlock: AZAVOO_clean_sbu_0, # of connection points: 4
#     Node 18, Type 0, BuildingBlock: AZAVOO_clean_sbu_0, # of connection points: 4
#     Node 19, Type 0, BuildingBlock: AZAVOO_clean_sbu_0, # of connection points: 4
#     Node 20, Type 0, BuildingBlock: AZAVOO_clean_sbu_0, # of connection points: 4
#     Node 21, Type 0, BuildingBlock: AZAVOO_clean_sbu_0, # of connection points: 4
#     Node 22, Type 0, BuildingBlock: AZAVOO_clean_sbu_0, # of connection points: 4
#     Node 23, Type 0, BuildingBlock: AZAVOO_clean_sbu_0, # of connection points: 4
#     Node 24, Type 0, BuildingBlock: AZAVOO_clean_sbu_0, # of connection points: 4
#     Node 25, Type 0, BuildingBlock: AZAVOO_clean_sbu_0, # of connection points: 4
#     Node 26, Type 0, BuildingBlock: AZAVOO_clean_sbu_0, # of connection points: 4
#     Node 27, Type 0, BuildingBlock: AZAVOO_clean_sbu_0, # of connection points: 4
#     Node 28, Type 0, BuildingBlock: AZAVOO_clean_sbu_0, # of connection points: 4
#     Node 29, Type 0, BuildingBlock: AZAVOO_clean_sbu_0, # of connection points: 4
#     Node 30, Type 0, BuildingBlock: AZAVOO_clean_sbu_0, # of connection points: 4
#     Node 31, Type 0, BuildingBlock: AZAVOO_clean_sbu_0, # of connection points: 4
#     Edge 32, Type (0, 0), BuildingBlock: UVAHIK_clean_linker_0, # of connection points: 2
#     Edge 33, Type (0, 0), BuildingBlock: UVAHIK_clean_linker_0, # of connection points: 2
#     Edge 34, Type (0, 0), BuildingBlock: UVAHIK_clean_linker_0, # of connection points: 2
#     Edge 35, Type (0, 0), BuildingBlock: UVAHIK_clean_linker_0, # of connection points: 2
#     Edge 36, Type (0, 0), BuildingBlock: UVAHIK_clean_linker_0, # of connection points: 2
#     Edge 37, Type (0, 0), BuildingBlock: UVAHIK_clean_linker_0, # of connection points: 2
#     Edge 38, Type (0, 0), BuildingBlock: UVAHIK_clean_linker_0, # of connection points: 2
#     Edge 39, Type (0, 0), BuildingBlock: UVAHIK_clean_linker_0, # of connection points: 2
#     Edge 40, Type (0, 0), BuildingBlock: UVAHIK_clean_linker_0, # of connection points: 2
#     Edge 41, Type (0, 0), BuildingBlock: UVAHIK_clean_linker_0, # of connection points: 2
#     Edge 42, Type (0, 0), BuildingBlock: UVAHIK_clean_linker_0, # of connection points: 2
#     Edge 43, Type (0, 0), BuildingBlock: UVAHIK_clean_linker_0, # of connection points: 2
#     Edge 44, Type (0, 0), BuildingBlock: UVAHIK_clean_linker_0, # of connection points: 2
#     Edge 45, Type (0, 0), BuildingBlock: UVAHIK_clean_linker_0, # of connection points: 2
#     Edge 46, Type (0, 0), BuildingBlock: UVAHIK_clean_linker_0, # of connection points: 2
#     Edge 47, Type (0, 0), BuildingBlock: UVAHIK_clean_linker_0, # of connection points: 2
#     Edge 48, Type (0, 0), BuildingBlock: UVAHIK_clean_linker_0, # of connection points: 2
#     Edge 49, Type (0, 0), BuildingBlock: UVAHIK_clean_linker_0, # of connection points: 2
#     Edge 50, Type (0, 0), BuildingBlock: UVAHIK_clean_linker_0, # of connection points: 2
#     Edge 51, Type (0, 0), BuildingBlock: UVAHIK_clean_linker_0, # of connection points: 2
#     Edge 52, Type (0, 0), BuildingBlock: UVAHIK_clean_linker_0, # of connection points: 2
#     Edge 53, Type (0, 0), BuildingBlock: UVAHIK_clean_linker_0, # of connection points: 2
#     Edge 54, Type (0, 0), BuildingBlock: UVAHIK_clean_linker_0, # of connection points: 2
#     Edge 55, Type (0, 0), BuildingBlock: UVAHIK_clean_linker_0, # of connection points: 2
#     Edge 56, Type (0, 0), BuildingBlock: UVAHIK_clean_linker_0, # of connection points: 2
#     Edge 57, Type (0, 0), BuildingBlock: UVAHIK_clean_linker_0, # of connection points: 2
#     Edge 58, Type (0, 0), BuildingBlock: UVAHIK_clean_linker_0, # of connection points: 2
#     Edge 59, Type (0, 0), BuildingBlock: UVAHIK_clean_linker_0, # of connection points: 2
#     Edge 60, Type (0, 0), BuildingBlock: UVAHIK_clean_linker_0, # of connection points: 2
#     Edge 61, Type (0, 0), BuildingBlock: UVAHIK_clean_linker_0, # of connection points: 2
#     Edge 62, Type (0, 0), BuildingBlock: UVAHIK_clean_linker_0, # of connection points: 2
#     Edge 63, Type (0, 0), BuildingBlock: UVAHIK_clean_linker_0, # of connection points: 2
#     Edge 64, Type (0, 0), BuildingBlock: UVAHIK_clean_linker_0, # of connection points: 2
#     Edge 65, Type (0, 0), BuildingBlock: UVAHIK_clean_linker_0, # of connection points: 2
#     Edge 66, Type (0, 0), BuildingBlock: UVAHIK_clean_linker_0, # of connection points: 2
#     Edge 67, Type (0, 0), BuildingBlock: UVAHIK_clean_linker_0, # of connection points: 2
#     Edge 68, Type (0, 0), BuildingBlock: UVAHIK_clean_linker_0, # of connection points: 2
#     Edge 69, Type (0, 0), BuildingBlock: UVAHIK_clean_linker_0, # of connection points: 2
#     Edge 70, Type (0, 0), BuildingBlock: UVAHIK_clean_linker_0, # of connection points: 2
#     Edge 71, Type (0, 0), BuildingBlock: UVAHIK_clean_linker_0, # of connection points: 2
#     Edge 72, Type (0, 0), BuildingBlock: UVAHIK_clean_linker_0, # of connection points: 2
#     Edge 73, Type (0, 0), BuildingBlock: UVAHIK_clean_linker_0, # of connection points: 2
#     Edge 74, Type (0, 0), BuildingBlock: UVAHIK_clean_linker_0, # of connection points: 2
#     Edge 75, Type (0, 0), BuildingBlock: UVAHIK_clean_linker_0, # of connection points: 2
#     Edge 76, Type (0, 0), BuildingBlock: UVAHIK_clean_linker_0, # of connection points: 2
#     Edge 77, Type (0, 0), BuildingBlock: UVAHIK_clean_linker_0, # of connection points: 2
#     Edge 78, Type (0, 0), BuildingBlock: UVAHIK_clean_linker_0, # of connection points: 2
#     Edge 79, Type (0, 0), BuildingBlock: UVAHIK_clean_linker_0, # of connection points: 2
#     Edge 80, Type (0, 0), BuildingBlock: UVAHIK_clean_linker_0, # of connection points: 2
#     Edge 81, Type (0, 0), BuildingBlock: UVAHIK_clean_linker_0, # of connection points: 2
#     Edge 82, Type (0, 0), BuildingBlock: UVAHIK_clean_linker_0, # of connection points: 2
#     Edge 83, Type (0, 0), BuildingBlock: UVAHIK_clean_linker_0, # of connection points: 2
#     Edge 84, Type (0, 0), BuildingBlock: UVAHIK_clean_linker_0, # of connection points: 2
#     Edge 85, Type (0, 0), BuildingBlock: UVAHIK_clean_linker_0, # of connection points: 2
#     Edge 86, Type (0, 0), BuildingBlock: UVAHIK_clean_linker_0, # of connection points: 2
#     Edge 87, Type (0, 0), BuildingBlock: UVAHIK_clean_linker_0, # of connection points: 2
#     Edge 88, Type (0, 0), BuildingBlock: UVAHIK_clean_linker_0, # of connection points: 2
#     Edge 89, Type (0, 0), BuildingBlock: UVAHIK_clean_linker_0, # of connection points: 2
#     Edge 90, Type (0, 0), BuildingBlock: UVAHIK_clean_linker_0, # of connection points: 2
#     Edge 91, Type (0, 0), BuildingBlock: UVAHIK_clean_linker_0, # of connection points: 2
#     Edge 92, Type (0, 0), BuildingBlock: UVAHIK_clean_linker_0, # of connection points: 2
#     Edge 93, Type (0, 0), BuildingBlock: UVAHIK_clean_linker_0, # of connection points: 2
#     Edge 94, Type (0, 0), BuildingBlock: UVAHIK_clean_linker_0, # of connection points: 2
#     Edge 95, Type (0, 0), BuildingBlock: UVAHIK_clean_linker_0, # of connection points: 2
# Relax obj value: 0.102
# Max RMSD: 0.122
# Mean RMSD: 0.122
data_MOF--net-umq--node1-AZAVOO_clean_sbu_0--edge1-UVAHIK_clean_linker_0
_symmetry_space_group_name_H-M    P1
_symmetry_Int_Tables_number       1
_symmetry_cell_setting            triclinic
loop_
_symmetry_equiv_pos_as_xyz
'x, y, z'
_cell_length_a     83.478996
_cell_length_b     83.449791
_cell_length_c     58.226526
_cell_angle_alpha  89.995928
_cell_angle_beta   89.998715
_cell_angle_gamma 89.989882
loop_
_atom_site_label
_atom_site_type_symbol
_atom_site_fract_x
_atom_site_fract_y
_atom_site_fract_z
_atom_type_partial_charge
Mg0 Mg 0.23102 0.0893 0.17118 0.0
O1 O 0.24849 0.11015 0.17754 0.0
O2 O 0.24789 0.11548 0.21514 0.0
Mg3 Mg 0.23051 0.09848 0.23281 0.0
C4 C 0.25317 0.11822 0.19494 0.0
C5 C 0.23968 0.07274 0.1248 0.0
O6 O 0.2337 0.06053 0.1362 0.0
O7 O 0.24925 0.07174 0.18643 0.0
O8 O 0.24712 0.07758 0.22377 0.0
O9 O 0.21065 0.10661 0.16724 0.0
O10 O 0.21777 0.09566 0.20017 0.0
C11 C 0.25308 0.06931 0.20741 0.0
C12 C 0.20878 0.1056 0.18927 0.0
O13 O 0.24081 0.08623 0.13482 0.0
Mg14 Mg 0.90657 0.23842 0.17162 0.0
O15 O 0.8841 0.25406 0.17616 0.0
O16 O 0.87682 0.2527 0.21303 0.0
Mg17 Mg 0.89469 0.23715 0.2323 0.0
C18 C 0.87468 0.25781 0.1926 0.0
C19 C 0.92329 0.24685 0.12517 0.0
O20 O 0.93534 0.24027 0.1362 0.0
O21 O 0.92205 0.25788 0.18826 0.0
O22 O 0.91434 0.25559 0.22491 0.0
O23 O 0.89112 0.21679 0.16641 0.0
O24 O 0.90024 0.22467 0.20014 0.0
C25 C 0.92295 0.26208 0.20934 0.0
C26 C 0.89145 0.21497 0.18849 0.0
O27 O 0.90997 0.24849 0.1355 0.0
Mg28 Mg 0.76089 0.90838 0.17343 0.0
O29 O 0.74395 0.88723 0.18091 0.0
O30 O 0.74501 0.88201 0.2185 0.0
Mg31 Mg 0.76158 0.90009 0.23541 0.0
C32 C 0.7397 0.87903 0.1984 0.0
C33 C 0.75067 0.8974 0.12498 0.0
O34 O 0.75495 0.88387 0.13474 0.0
O35 O 0.7422 0.92574 0.18796 0.0
O36 O 0.74395 0.9199 0.22539 0.0
O37 O 0.78161 0.89155 0.1701 0.0
O38 O 0.77431 0.90286 0.2027 0.0
C39 C 0.73788 0.92789 0.20881 0.0
C40 C 0.78346 0.8929 0.19208 0.0
O41 O 0.75113 0.91023 0.13677 0.0
Mg42 Mg 0.09141 0.76187 0.17221 0.0
O43 O 0.11264 0.7449 0.17907 0.0
O44 O 0.11832 0.74638 0.21651 0.0
Mg45 Mg 0.10081 0.76337 0.23379 0.0
C46 C 0.12102 0.7408 0.19648 0.0
C47 C 0.0753 0.75241 0.12573 0.0
O48 O 0.0629 0.75839 0.13668 0.0
O49 O 0.07417 0.74355 0.18801 0.0
O50 O 0.08058 0.74588 0.22517 0.0
O51 O 0.10833 0.78247 0.16774 0.0
O52 O 0.09747 0.77562 0.20085 0.0
C53 C 0.07227 0.73964 0.20907 0.0
C54 C 0.10727 0.78462 0.18971 0.0
O55 O 0.08867 0.75153 0.13609 0.0
Mg56 Mg 0.23612 0.90566 0.33056 0.0
O57 O 0.25218 0.88354 0.3254 0.0
O58 O 0.25119 0.87691 0.28826 0.0
Mg59 Mg 0.23544 0.89484 0.26944 0.0
C60 C 0.25619 0.87449 0.30867 0.0
C61 C 0.2448 0.92196 0.37736 0.0
O62 O 0.23866 0.9343 0.36643 0.0
O63 O 0.25535 0.92184 0.3147 0.0
O64 O 0.25341 0.91473 0.27776 0.0
O65 O 0.21477 0.8897 0.33496 0.0
O66 O 0.22264 0.89954 0.30165 0.0
C67 C 0.25964 0.9232 0.2937 0.0
C68 C 0.21307 0.89034 0.31288 0.0
O69 O 0.246 0.90865 0.3669 0.0
Mg70 Mg 0.0868 0.23174 0.33384 0.0
O71 O 0.10786 0.2487 0.32615 0.0
O72 O 0.11252 0.2474 0.28839 0.0
Mg73 Mg 0.09474 0.23028 0.27187 0.0
C74 C 0.11574 0.25291 0.30832 0.0
C75 C 0.07132 0.24079 0.38067 0.0
O76 O 0.05898 0.23455 0.36988 0.0
O77 O 0.06936 0.25019 0.31888 0.0
O78 O 0.07455 0.24761 0.2814 0.0
O79 O 0.10383 0.21115 0.33762 0.0
O80 O 0.09236 0.21801 0.30494 0.0
C81 C 0.06672 0.25395 0.29792 0.0
C82 C 0.10244 0.20907 0.31568 0.0
O83 O 0.08458 0.24198 0.37008 0.0
Mg84 Mg 0.76299 0.09244 0.32731 0.0
O85 O 0.74659 0.11433 0.32274 0.0
O86 O 0.74693 0.12084 0.28552 0.0
Mg87 Mg 0.76297 0.10332 0.26626 0.0
C88 C 0.74216 0.12323 0.30606 0.0
C89 C 0.76043 0.07825 0.37596 0.0
O90 O 0.77172 0.06943 0.36659 0.0
O91 O 0.74372 0.07625 0.31175 0.0
O92 O 0.74557 0.08291 0.27466 0.0
O93 O 0.78422 0.10856 0.33151 0.0
O94 O 0.77608 0.09888 0.29824 0.0
C95 C 0.7395 0.07449 0.29079 0.0
C96 C 0.7857 0.10807 0.30939 0.0
O97 O 0.75363 0.0889 0.36378 0.0
Mg98 Mg 0.90593 0.76526 0.33296 0.0
O99 O 0.88501 0.74803 0.32591 0.0
O100 O 0.87952 0.74946 0.28841 0.0
Mg101 Mg 0.89657 0.76714 0.27144 0.0
C102 C 0.87684 0.74377 0.30839 0.0
C103 C 0.92264 0.75501 0.37862 0.0
O104 O 0.93498 0.76076 0.36728 0.0
O105 O 0.92337 0.74733 0.31678 0.0
O106 O 0.91742 0.75026 0.27958 0.0
O107 O 0.88868 0.78554 0.33794 0.0
O108 O 0.89954 0.77915 0.30464 0.0
C109 C 0.92572 0.74393 0.29563 0.0
C110 C 0.88961 0.78788 0.31599 0.0
O111 O 0.90905 0.75462 0.3688 0.0
Mg112 Mg 0.76164 0.90667 0.82993 0.0
O113 O 0.7437 0.88629 0.82276 0.0
O114 O 0.74365 0.88162 0.78498 0.0
Mg115 Mg 0.76049 0.89929 0.76778 0.0
C116 C 0.73872 0.87853 0.80524 0.0
C117 C 0.75173 0.89593 0.87882 0.0
O118 O 0.75538 0.88219 0.86911 0.0
O119 O 0.74354 0.92497 0.81667 0.0
O120 O 0.74373 0.91966 0.77897 0.0
O121 O 0.78165 0.88902 0.83207 0.0
O122 O 0.77417 0.90093 0.79996 0.0
C123 C 0.73861 0.92758 0.79624 0.0
C124 C 0.78312 0.89052 0.81004 0.0
O125 O 0.75258 0.90868 0.86692 0.0
Mg126 Mg 0.0922 0.76374 0.83446 0.0
O127 O 0.11281 0.74651 0.82579 0.0
O128 O 0.11834 0.74923 0.78844 0.0
Mg129 Mg 0.10078 0.76703 0.7728 0.0
C130 C 0.12102 0.74288 0.80801 0.0
C131 C 0.07626 0.75325 0.8803 0.0
O132 O 0.06396 0.75946 0.86939 0.0
O133 O 0.07429 0.7463 0.81811 0.0
O134 O 0.08054 0.74943 0.78099 0.0
O135 O 0.11006 0.78355 0.83932 0.0
O136 O 0.09794 0.77815 0.80651 0.0
C137 C 0.07225 0.7429 0.79688 0.0
C138 C 0.1084 0.78636 0.81758 0.0
O139 O 0.0897 0.75251 0.87006 0.0
Mg140 Mg 0.23015 0.08816 0.8327 0.0
O141 O 0.24677 0.10978 0.82729 0.0
O142 O 0.24599 0.11615 0.79004 0.0
Mg143 Mg 0.22954 0.09866 0.77148 0.0
C144 C 0.25107 0.11857 0.81042 0.0
C145 C 0.23885 0.07158 0.87923 0.0
O146 O 0.2327 0.05933 0.86813 0.0
O147 O 0.24899 0.07153 0.81688 0.0
O148 O 0.24681 0.07815 0.77981 0.0
O149 O 0.20922 0.10469 0.83711 0.0
O150 O 0.21676 0.09454 0.80384 0.0
C151 C 0.25296 0.06969 0.79583 0.0
C152 C 0.20746 0.10403 0.81504 0.0
O153 O 0.24004 0.08497 0.86897 0.0
Mg154 Mg 0.90478 0.23227 0.83449 0.0
O155 O 0.88381 0.24923 0.82627 0.0
O156 O 0.87874 0.24694 0.78872 0.0
Mg157 Mg 0.89612 0.22909 0.77287 0.0
C158 C 0.8758 0.25305 0.80838 0.0
C159 C 0.92113 0.24267 0.87999 0.0
O160 O 0.93327 0.23629 0.86889 0.0
O161 O 0.92224 0.25004 0.818 0.0
O162 O 0.91666 0.24639 0.78082 0.0
O163 O 0.88759 0.21197 0.83987 0.0
O164 O 0.89881 0.21783 0.80661 0.0
C165 C 0.92473 0.25311 0.79678 0.0
C166 C 0.8888 0.20925 0.81805 0.0
O167 O 0.90761 0.24348 0.87003 0.0
Mg168 Mg 0.76077 0.0908 0.6709 0.0
O169 O 0.74371 0.11227 0.67547 0.0
O170 O 0.74279 0.11786 0.71298 0.0
Mg171 Mg 0.75813 0.09993 0.73241 0.0
C172 C 0.73867 0.12072 0.69228 0.0
C173 C 0.75946 0.07736 0.62154 0.0
O174 O 0.77031 0.06814 0.63116 0.0
O175 O 0.74158 0.07366 0.68407 0.0
O176 O 0.74107 0.07974 0.72151 0.0
O177 O 0.78168 0.10741 0.66908 0.0
O178 O 0.77266 0.09672 0.70127 0.0
C179 C 0.73613 0.07158 0.70436 0.0
C180 C 0.78244 0.10639 0.69125 0.0
O181 O 0.75262 0.088 0.6337 0.0
Mg182 Mg 0.90673 0.7642 0.66927 0.0
O183 O 0.88556 0.74725 0.67623 0.0
O184 O 0.87965 0.74907 0.71357 0.0
Mg185 Mg 0.89691 0.76652 0.73061 0.0
C186 C 0.8771 0.74329 0.69361 0.0
C187 C 0.92345 0.75396 0.62358 0.0
O188 O 0.93575 0.75995 0.63473 0.0
O189 O 0.92395 0.74625 0.68589 0.0
O190 O 0.91768 0.74943 0.72293 0.0
O191 O 0.88964 0.78453 0.66376 0.0
O192 O 0.90024 0.77833 0.69732 0.0
C193 C 0.9261 0.74296 0.70712 0.0
C194 C 0.8904 0.78698 0.68569 0.0
O195 O 0.90992 0.75336 0.63357 0.0
Mg196 Mg 0.23463 0.9042 0.66885 0.0
O197 O 0.25171 0.88337 0.67715 0.0
O198 O 0.24913 0.87778 0.71451 0.0
Mg199 Mg 0.23155 0.89541 0.73048 0.0
C200 C 0.25535 0.87508 0.69486 0.0
C201 C 0.24465 0.92023 0.62294 0.0
O202 O 0.23828 0.93241 0.63396 0.0
O203 O 0.25227 0.92194 0.68518 0.0
O204 O 0.2492 0.91561 0.72229 0.0
O205 O 0.21462 0.88654 0.66403 0.0
O206 O 0.22031 0.89848 0.69689 0.0
C207 C 0.25572 0.92391 0.7064 0.0
C208 C 0.21192 0.88816 0.68581 0.0
O209 O 0.24568 0.9068 0.63314 0.0
Mg210 Mg 0.08896 0.23493 0.67308 0.0
O211 O 0.11048 0.25171 0.67907 0.0
O212 O 0.11632 0.25071 0.7165 0.0
Mg213 Mg 0.09877 0.23417 0.73455 0.0
C214 C 0.11899 0.25596 0.69627 0.0
C215 C 0.07263 0.24318 0.62646 0.0
O216 O 0.06052 0.23687 0.63769 0.0
O217 O 0.07208 0.2537 0.6886 0.0
O218 O 0.07867 0.25177 0.72574 0.0
O219 O 0.10553 0.214 0.66896 0.0
O220 O 0.09505 0.22152 0.70202 0.0
C221 C 0.07034 0.2579 0.70957 0.0
C222 C 0.1046 0.21219 0.691 0.0
O223 O 0.08599 0.24473 0.6367 0.0
Mg224 Mg 0.73515 0.59199 0.67171 0.0
O225 O 0.75225 0.61298 0.67871 0.0
O226 O 0.75039 0.61927 0.71592 0.0
Mg227 Mg 0.73326 0.60173 0.73313 0.0
C228 C 0.75617 0.62164 0.69591 0.0
C229 C 0.74452 0.57572 0.62542 0.0
O230 O 0.7382 0.5635 0.63639 0.0
O231 O 0.75308 0.5745 0.6879 0.0
O232 O 0.75069 0.58132 0.72492 0.0
O233 O 0.71507 0.60955 0.66709 0.0
O234 O 0.72131 0.59812 0.70011 0.0
C235 C 0.7569 0.57277 0.70904 0.0
C236 C 0.71276 0.60831 0.689 0.0
O237 O 0.74569 0.58909 0.63574 0.0
Mg238 Mg 0.40468 0.73042 0.67105 0.0
O239 O 0.3837 0.74757 0.67838 0.0
O240 O 0.37826 0.74586 0.71588 0.0
Mg241 Mg 0.39538 0.72814 0.73258 0.0
C242 C 0.37554 0.75168 0.69599 0.0
C243 C 0.42111 0.7401 0.62504 0.0
O244 O 0.43331 0.73382 0.6361 0.0
O245 O 0.42211 0.74831 0.68737 0.0
O246 O 0.41616 0.74509 0.72452 0.0
O247 O 0.38753 0.71006 0.66594 0.0
O248 O 0.39842 0.71636 0.69925 0.0
C249 C 0.42445 0.75156 0.70857 0.0
C250 C 0.38856 0.7076 0.68784 0.0
O251 O 0.40767 0.74113 0.63521 0.0
Mg252 Mg 0.26451 0.40396 0.66818 0.0
O253 O 0.24732 0.38301 0.67532 0.0
O254 O 0.24885 0.37756 0.71284 0.0
Mg255 Mg 0.26645 0.39471 0.72974 0.0
C256 C 0.24312 0.37485 0.69289 0.0
C257 C 0.25923 0.41841 0.61998 0.0
O258 O 0.26976 0.42831 0.62891 0.0
O259 O 0.24646 0.42133 0.68426 0.0
O260 O 0.24938 0.41538 0.72146 0.0
O261 O 0.28482 0.38672 0.66331 0.0
O262 O 0.2784 0.39767 0.69653 0.0
C263 C 0.24299 0.42362 0.7054 0.0
C264 C 0.28712 0.3877 0.68525 0.0
O265 O 0.25393 0.40699 0.63229 0.0
Mg266 Mg 0.5877 0.26239 0.67227 0.0
O267 O 0.60946 0.24584 0.67687 0.0
O268 O 0.61584 0.24593 0.71415 0.0
Mg269 Mg 0.59828 0.26192 0.73342 0.0
C270 C 0.61829 0.24127 0.69356 0.0
C271 C 0.57357 0.25964 0.62341 0.0
O272 O 0.56438 0.27068 0.63267 0.0
O273 O 0.5713 0.24314 0.68744 0.0
O274 O 0.57782 0.24467 0.72461 0.0
O275 O 0.60402 0.28348 0.6684 0.0
O276 O 0.59415 0.27532 0.70155 0.0
C277 C 0.56943 0.23876 0.70832 0.0
C278 C 0.60351 0.28485 0.69053 0.0
O279 O 0.58435 0.25314 0.6357 0.0
Mg280 Mg 0.73381 0.40463 0.83129 0.0
O281 O 0.75082 0.3838 0.82297 0.0
O282 O 0.74928 0.37897 0.78531 0.0
Mg283 Mg 0.73164 0.39659 0.76939 0.0
C284 C 0.75499 0.37591 0.80516 0.0
C285 C 0.74485 0.41925 0.87871 0.0
O286 O 0.73953 0.43249 0.86917 0.0
O287 O 0.75175 0.42241 0.81585 0.0
O288 O 0.74861 0.4172 0.77846 0.0
O289 O 0.7135 0.3874 0.83561 0.0
O290 O 0.7197 0.39903 0.80277 0.0
C291 C 0.75504 0.42517 0.79476 0.0
C292 C 0.711 0.38888 0.81377 0.0
O293 O 0.74467 0.40632 0.86718 0.0
Mg294 Mg 0.59107 0.73301 0.83644 0.0
O295 O 0.61128 0.75077 0.82803 0.0
O296 O 0.617 0.74824 0.7907 0.0
Mg297 Mg 0.60009 0.72991 0.77488 0.0
C298 C 0.61943 0.75465 0.8103 0.0
C299 C 0.57468 0.74275 0.88226 0.0
O300 O 0.5627 0.73591 0.87137 0.0
O301 O 0.57281 0.74999 0.81984 0.0
O302 O 0.57935 0.74696 0.78281 0.0
O303 O 0.60942 0.71368 0.84156 0.0
O304 O 0.59737 0.71875 0.80859 0.0
C305 C 0.57081 0.75331 0.79858 0.0
C306 C 0.60799 0.71083 0.8198 0.0
O307 O 0.58805 0.74416 0.87201 0.0
Mg308 Mg 0.25907 0.58733 0.82865 0.0
O309 O 0.2427 0.60893 0.8211 0.0
O310 O 0.24428 0.61438 0.78361 0.0
Mg311 Mg 0.26055 0.596 0.76678 0.0
C312 C 0.23885 0.61736 0.80364 0.0
C313 C 0.24861 0.59822 0.87711 0.0
O314 O 0.25317 0.61175 0.8676 0.0
O315 O 0.24017 0.57043 0.81351 0.0
O316 O 0.24245 0.57651 0.77622 0.0
O317 O 0.28016 0.60367 0.83252 0.0
O318 O 0.27287 0.59267 0.7997 0.0
C319 C 0.23605 0.56852 0.79253 0.0
C320 C 0.28216 0.60235 0.81056 0.0
O321 O 0.24896 0.58547 0.86514 0.0
Mg322 Mg 0.40557 0.25682 0.82749 0.0
O323 O 0.38345 0.2406 0.82345 0.0
O324 O 0.37671 0.24075 0.78631 0.0
Mg325 Mg 0.39447 0.25608 0.76651 0.0
C326 C 0.37435 0.23621 0.80697 0.0
C327 C 0.41947 0.2549 0.87647 0.0
O328 O 0.42813 0.26631 0.8671 0.0
O329 O 0.42168 0.23729 0.81236 0.0
O330 O 0.41451 0.23837 0.77538 0.0
O331 O 0.38966 0.27827 0.83117 0.0
O332 O 0.39921 0.26963 0.79807 0.0
C333 C 0.42305 0.23254 0.79157 0.0
C334 C 0.39013 0.27948 0.80901 0.0
O335 O 0.40904 0.24783 0.86421 0.0
Mg336 Mg 0.26027 0.40265 0.32699 0.0
O337 O 0.24298 0.38164 0.32081 0.0
O338 O 0.24369 0.37612 0.28327 0.0
Mg339 Mg 0.26101 0.39312 0.26548 0.0
C340 C 0.23839 0.37344 0.30348 0.0
C341 C 0.25599 0.41748 0.37509 0.0
O342 O 0.26628 0.42731 0.36546 0.0
O343 O 0.24198 0.41996 0.31143 0.0
O344 O 0.24427 0.414 0.27415 0.0
O345 O 0.28074 0.38556 0.33132 0.0
O346 O 0.27363 0.39621 0.29817 0.0
C347 C 0.2382 0.4223 0.29041 0.0
C348 C 0.28266 0.38642 0.30928 0.0
O349 O 0.25043 0.40594 0.36326 0.0
Mg350 Mg 0.58937 0.263 0.32954 0.0
O351 O 0.61128 0.24667 0.32448 0.0
O352 O 0.61742 0.2472 0.28713 0.0
Mg353 Mg 0.59964 0.26315 0.26827 0.0
C354 C 0.62005 0.24237 0.30758 0.0
C355 C 0.57509 0.25982 0.37808 0.0
O356 O 0.56578 0.27066 0.36859 0.0
O357 O 0.57306 0.24373 0.31423 0.0
O358 O 0.57941 0.24564 0.27704 0.0
O359 O 0.6055 0.28425 0.33352 0.0
O360 O 0.59552 0.27619 0.3004 0.0
C361 C 0.57114 0.23952 0.2933 0.0
C362 C 0.60483 0.28577 0.31141 0.0
O363 O 0.58613 0.25355 0.36604 0.0
Mg364 Mg 0.73485 0.59187 0.33333 0.0
O365 O 0.7518 0.61313 0.32644 0.0
O366 O 0.75043 0.61861 0.28892 0.0
Mg367 Mg 0.73355 0.60099 0.27167 0.0
C368 C 0.75593 0.62142 0.30896 0.0
C369 C 0.74406 0.57576 0.37982 0.0
O370 O 0.73802 0.56344 0.36877 0.0
O371 O 0.75327 0.57462 0.31782 0.0
O372 O 0.7511 0.58086 0.28058 0.0
O373 O 0.7142 0.60876 0.33758 0.0
O374 O 0.72118 0.59784 0.30456 0.0
C375 C 0.7573 0.57264 0.29682 0.0
C376 C 0.71214 0.60766 0.3156 0.0
O377 O 0.74506 0.58916 0.36953 0.0
Mg378 Mg 0.40477 0.73046 0.33314 0.0
O379 O 0.38313 0.74701 0.32748 0.0
O380 O 0.37706 0.74629 0.29012 0.0
Mg381 Mg 0.39471 0.72988 0.27179 0.0
C382 C 0.37447 0.75133 0.31048 0.0
C383 C 0.42121 0.73952 0.37959 0.0
O384 O 0.43358 0.73373 0.36835 0.0
O385 O 0.4214 0.74938 0.31759 0.0
O386 O 0.41511 0.74721 0.2804 0.0
O387 O 0.38833 0.70942 0.33732 0.0
O388 O 0.39862 0.71707 0.30419 0.0
C389 C 0.42341 0.75338 0.29658 0.0
C390 C 0.38914 0.70769 0.31525 0.0
O391 O 0.40774 0.74033 0.36947 0.0
Mg392 Mg 0.26112 0.58747 0.17147 0.0
O393 O 0.24469 0.60899 0.17909 0.0
O394 O 0.24623 0.61438 0.2166 0.0
Mg395 Mg 0.26255 0.59601 0.23337 0.0
C396 C 0.24079 0.61737 0.19658 0.0
C397 C 0.25047 0.59837 0.12305 0.0
O398 O 0.25504 0.61193 0.13248 0.0
O399 O 0.24221 0.57056 0.18653 0.0
O400 O 0.2444 0.57656 0.22386 0.0
O401 O 0.28215 0.6039 0.16769 0.0
O402 O 0.27489 0.59279 0.20046 0.0
C403 C 0.23802 0.56862 0.20748 0.0
C404 C 0.28415 0.60254 0.18965 0.0
O405 O 0.25095 0.58563 0.13503 0.0
Mg406 Mg 0.40639 0.25896 0.17042 0.0
O407 O 0.38505 0.24195 0.17663 0.0
O408 O 0.37911 0.24339 0.214 0.0
Mg409 Mg 0.39637 0.26035 0.23178 0.0
C410 C 0.37655 0.23783 0.19391 0.0
C411 C 0.42019 0.25574 0.12178 0.0
O412 O 0.42882 0.26732 0.13075 0.0
O413 O 0.42345 0.24059 0.18652 0.0
O414 O 0.4167 0.24286 0.22357 0.0
O415 O 0.38952 0.27955 0.16558 0.0
O416 O 0.39995 0.27263 0.19895 0.0
C417 C 0.42516 0.23664 0.2076 0.0
C418 C 0.39026 0.28163 0.18759 0.0
O419 O 0.40975 0.24888 0.13428 0.0
Mg420 Mg 0.73296 0.40868 0.1724 0.0
O421 O 0.74958 0.38696 0.17713 0.0
O422 O 0.7487 0.37994 0.21413 0.0
Mg423 Mg 0.73226 0.39715 0.23326 0.0
C424 C 0.75381 0.37786 0.19369 0.0
C425 C 0.74407 0.40149 0.1221 0.0
O426 O 0.74025 0.38696 0.12882 0.0
O427 O 0.75176 0.42495 0.18894 0.0
O428 O 0.74957 0.41782 0.22581 0.0
O429 O 0.71198 0.39228 0.1673 0.0
O430 O 0.71958 0.40174 0.20094 0.0
C431 C 0.75572 0.4265 0.21004 0.0
C432 C 0.71022 0.39254 0.18939 0.0
O433 O 0.74286 0.41301 0.13629 0.0
Mg434 Mg 0.58954 0.73521 0.17445 0.0
O435 O 0.6106 0.75243 0.18106 0.0
O436 O 0.61629 0.75119 0.21852 0.0
Mg437 Mg 0.59902 0.73408 0.23601 0.0
C438 C 0.61893 0.75671 0.19843 0.0
C439 C 0.57331 0.7438 0.12778 0.0
O440 O 0.56117 0.73727 0.13867 0.0
O441 O 0.5721 0.75341 0.19014 0.0
O442 O 0.57857 0.75129 0.22731 0.0
O443 O 0.60668 0.71478 0.17007 0.0
O444 O 0.59583 0.72164 0.20318 0.0
C445 C 0.57017 0.75738 0.21117 0.0
C446 C 0.60572 0.71271 0.19207 0.0
O447 O 0.58658 0.74534 0.13824 0.0
C448 C 0.35437 0.22123 0.2101 0.0
C449 C 0.3636 0.22586 0.19102 0.0
C450 C 0.34273 0.20937 0.20806 0.0
C451 C 0.3167 0.18808 0.16768 0.0
H452 H 0.31544 0.15663 0.21671 0.0
C453 C 0.27261 0.13375 0.17043 0.0
C454 C 0.26549 0.13084 0.19195 0.0
C455 C 0.28485 0.14512 0.16821 0.0
C456 C 0.31557 0.16537 0.20296 0.0
H457 H 0.36743 0.2219 0.15458 0.0
H458 H 0.34692 0.20103 0.15107 0.0
H459 H 0.33639 0.17687 0.21645 0.0
H460 H 0.26534 0.13804 0.22781 0.0
H461 H 0.28646 0.15778 0.22386 0.0
H462 H 0.29564 0.17658 0.15442 0.0
C463 C 0.34881 0.20669 0.16759 0.0
C464 C 0.32757 0.17696 0.2028 0.0
C465 C 0.36057 0.21859 0.16964 0.0
C466 C 0.27061 0.13981 0.21101 0.0
C467 C 0.28281 0.1511 0.20879 0.0
C468 C 0.30462 0.17643 0.16784 0.0
C469 C 0.33997 0.2018 0.1869 0.0
C470 C 0.32806 0.18866 0.18548 0.0
C471 C 0.29023 0.15372 0.18748 0.0
C472 C 0.30374 0.1652 0.18581 0.0
H473 H 0.35623 0.22663 0.22681 0.0
H474 H 0.33588 0.20609 0.22315 0.0
H475 H 0.31679 0.19698 0.15414 0.0
H476 H 0.26893 0.12707 0.15539 0.0
H477 H 0.29039 0.14688 0.15158 0.0
C478 C 0.85933 0.27666 0.16702 0.0
C479 C 0.86092 0.26856 0.1881 0.0
C480 C 0.84661 0.2873 0.16341 0.0
C481 C 0.80661 0.29837 0.18585 0.0
H482 H 0.81644 0.3408 0.16261 0.0
C483 C 0.76788 0.35295 0.20641 0.0
C484 C 0.76493 0.36439 0.1892 0.0
C485 C 0.77848 0.34033 0.20256 0.0
C486 C 0.81343 0.32892 0.16873 0.0
H487 H 0.85015 0.26506 0.22169 0.0
H488 H 0.82817 0.28356 0.21543 0.0
H489 H 0.8371 0.32005 0.16231 0.0
H490 H 0.77079 0.37143 0.15429 0.0
H491 H 0.78949 0.34931 0.14767 0.0
H492 H 0.78312 0.30734 0.19296 0.0
C493 C 0.83664 0.28162 0.2016 0.0
C494 C 0.82525 0.31703 0.16855 0.0
C495 C 0.84935 0.2711 0.20526 0.0
C496 C 0.77279 0.36283 0.16793 0.0
C497 C 0.78353 0.35021 0.16414 0.0
C498 C 0.79482 0.31022 0.18605 0.0
C499 C 0.83517 0.28992 0.18073 0.0
C500 C 0.82208 0.30178 0.17773 0.0
C501 C 0.78647 0.33884 0.18144 0.0
C502 C 0.79825 0.32575 0.17812 0.0
H503 H 0.86803 0.27497 0.15344 0.0
H504 H 0.84572 0.29349 0.14711 0.0
H505 H 0.80371 0.28662 0.1926 0.0
H506 H 0.76203 0.35374 0.22298 0.0
H507 H 0.78068 0.33191 0.21637 0.0
C508 C 0.6347 0.77616 0.17424 0.0
C509 C 0.63175 0.76883 0.1956 0.0
C510 C 0.6463 0.7882 0.17222 0.0
C511 C 0.66717 0.81815 0.20751 0.0
H512 H 0.69873 0.81932 0.15864 0.0
C513 C 0.72314 0.85687 0.21479 0.0
C514 C 0.72781 0.86599 0.19563 0.0
C515 C 0.7113 0.8452 0.21279 0.0
C516 C 0.68985 0.81925 0.17221 0.0
H517 H 0.63913 0.76808 0.23138 0.0
H518 H 0.65924 0.78887 0.22778 0.0
H519 H 0.67803 0.79847 0.15859 0.0
H520 H 0.72399 0.8696 0.15911 0.0
H521 H 0.70315 0.84911 0.15569 0.0
H522 H 0.67894 0.83872 0.2213 0.0
C523 C 0.65242 0.78553 0.21268 0.0
C524 C 0.67803 0.80734 0.17218 0.0
C525 C 0.64092 0.77353 0.2147 0.0
C526 C 0.72064 0.86282 0.17423 0.0
C527 C 0.70875 0.85106 0.17223 0.0
C528 C 0.67892 0.82999 0.20753 0.0
C529 C 0.65509 0.79317 0.19154 0.0
C530 C 0.66679 0.80649 0.19013 0.0
C531 C 0.70379 0.84233 0.1916 0.0
C532 C 0.6906 0.83048 0.19018 0.0
H533 H 0.62788 0.77279 0.15917 0.0
H534 H 0.6481 0.79391 0.15572 0.0
H535 H 0.65844 0.81803 0.22127 0.0
H536 H 0.72849 0.85884 0.2315 0.0
H537 H 0.70798 0.83842 0.22793 0.0
C538 C 0.22503 0.64011 0.21298 0.0
C539 C 0.22917 0.63065 0.1939 0.0
C540 C 0.21342 0.65202 0.2111 0.0
C541 C 0.19165 0.67781 0.17055 0.0
H542 H 0.16112 0.6802 0.22065 0.0
C543 C 0.1367 0.72111 0.17259 0.0
C544 C 0.13394 0.72878 0.19376 0.0
C545 C 0.14833 0.70908 0.17073 0.0
C546 C 0.16962 0.67977 0.20661 0.0
H547 H 0.22463 0.6267 0.15762 0.0
H548 H 0.20416 0.64758 0.15443 0.0
H549 H 0.18141 0.6593 0.2207 0.0
H550 H 0.14172 0.73018 0.22932 0.0
H551 H 0.1619 0.70942 0.22598 0.0
H552 H 0.17979 0.69845 0.1566 0.0
C553 C 0.21003 0.64572 0.17081 0.0
C554 C 0.18124 0.6678 0.20664 0.0
C555 C 0.2217 0.63373 0.17268 0.0
C556 C 0.14336 0.72446 0.21279 0.0
C557 C 0.15491 0.71248 0.21093 0.0
C558 C 0.17995 0.68984 0.17051 0.0
C559 C 0.20559 0.65479 0.19013 0.0
C560 C 0.19259 0.66687 0.18887 0.0
C561 C 0.15735 0.70447 0.19001 0.0
C562 C 0.16903 0.69111 0.1888 0.0
H563 H 0.23063 0.63822 0.22955 0.0
H564 H 0.2105 0.65904 0.22618 0.0
H565 H 0.20027 0.67739 0.15666 0.0
H566 H 0.12968 0.72417 0.15758 0.0
H567 H 0.14995 0.70308 0.1544 0.0
C568 C 0.26993 0.84957 0.29524 0.0
C569 C 0.267 0.86071 0.31286 0.0
C570 C 0.2803 0.83672 0.29876 0.0
C571 C 0.31462 0.82397 0.33317 0.0
H572 H 0.30469 0.78244 0.30686 0.0
C573 C 0.35903 0.77044 0.33552 0.0
C574 C 0.36105 0.76263 0.3143 0.0
C575 C 0.34658 0.78147 0.33863 0.0
C576 C 0.30764 0.79398 0.31428 0.0
H577 H 0.27262 0.86694 0.34815 0.0
H578 H 0.29087 0.84439 0.35423 0.0
H579 H 0.28448 0.80354 0.30658 0.0
H580 H 0.35135 0.7601 0.27987 0.0
H581 H 0.32981 0.77926 0.28531 0.0
H582 H 0.33795 0.81449 0.3403 0.0
C583 C 0.28511 0.84572 0.33768 0.0
C584 C 0.29608 0.80605 0.31412 0.0
C585 C 0.27462 0.85859 0.3342 0.0
C586 C 0.3502 0.76589 0.29644 0.0
C587 C 0.33774 0.77679 0.2996 0.0
C588 C 0.32621 0.81187 0.33334 0.0
C589 C 0.28805 0.83466 0.31996 0.0
C590 C 0.29958 0.82131 0.32299 0.0
C591 C 0.33583 0.78476 0.32067 0.0
C592 C 0.32297 0.79689 0.32332 0.0
H593 H 0.26427 0.85079 0.27859 0.0
H594 H 0.28251 0.82856 0.28463 0.0
H595 H 0.3177 0.83564 0.34 0.0
H596 H 0.36718 0.7682 0.34964 0.0
H597 H 0.34534 0.78738 0.3551 0.0
C598 C 0.22107 0.3517 0.28755 0.0
C599 C 0.22619 0.36073 0.30655 0.0
C600 C 0.20903 0.34026 0.28989 0.0
C601 C 0.18784 0.31468 0.33122 0.0
H602 H 0.15567 0.3137 0.28317 0.0
C603 C 0.13224 0.27226 0.33161 0.0
C604 C 0.12873 0.26492 0.31043 0.0
C605 C 0.14401 0.28418 0.33302 0.0
C606 C 0.16462 0.31375 0.29665 0.0
H607 H 0.22287 0.36448 0.34315 0.0
H608 H 0.20169 0.3444 0.34718 0.0
H609 H 0.17645 0.33412 0.28233 0.0
H610 H 0.13524 0.26405 0.27432 0.0
H611 H 0.15566 0.28461 0.27688 0.0
H612 H 0.17598 0.29411 0.34536 0.0
C613 C 0.20711 0.34623 0.33049 0.0
C614 C 0.17652 0.32544 0.29616 0.0
C615 C 0.2192 0.35775 0.32814 0.0
C616 C 0.13748 0.26951 0.29088 0.0
C617 C 0.14916 0.28138 0.2923 0.0
C618 C 0.17587 0.30292 0.33171 0.0
C619 C 0.20176 0.33754 0.31129 0.0
C620 C 0.18845 0.32585 0.31315 0.0
C621 C 0.15241 0.28902 0.31328 0.0
C622 C 0.16435 0.30216 0.31413 0.0
H623 H 0.22624 0.35353 0.27069 0.0
H624 H 0.20539 0.33353 0.27487 0.0
H625 H 0.19692 0.31469 0.34451 0.0
H626 H 0.12574 0.269 0.34701 0.0
H627 H 0.14625 0.28989 0.34941 0.0
C628 C 0.7234 0.13854 0.33184 0.0
C629 C 0.73104 0.13673 0.31045 0.0
C630 C 0.71253 0.15106 0.33546 0.0
C631 C 0.70023 0.19045 0.31227 0.0
H632 H 0.65859 0.18042 0.33806 0.0
C633 C 0.6448 0.22848 0.2939 0.0
C634 C 0.63376 0.23144 0.31162 0.0
C635 C 0.6576 0.21802 0.29728 0.0
C636 C 0.67026 0.18349 0.33122 0.0
H637 H 0.73343 0.14688 0.27627 0.0
H638 H 0.71454 0.16853 0.28258 0.0
H639 H 0.6796 0.16001 0.33781 0.0
H640 H 0.62762 0.22577 0.34692 0.0
H641 H 0.65007 0.20734 0.35275 0.0
H642 H 0.6908 0.21374 0.30507 0.0
C643 C 0.71702 0.16039 0.29662 0.0
C644 C 0.68228 0.17181 0.33108 0.0
C645 C 0.72777 0.14786 0.29295 0.0
C646 C 0.63591 0.22376 0.33291 0.0
C647 C 0.64871 0.21317 0.33624 0.0
C648 C 0.68825 0.20209 0.31241 0.0
C649 C 0.70922 0.1621 0.31785 0.0
C650 C 0.69724 0.17504 0.321 0.0
C651 C 0.65969 0.21021 0.31843 0.0
C652 C 0.67299 0.19859 0.32129 0.0
H653 H 0.72566 0.13017 0.34569 0.0
H654 H 0.70674 0.15214 0.35204 0.0
H655 H 0.71176 0.1934 0.30483 0.0
H656 H 0.64356 0.23418 0.27728 0.0
H657 H 0.6657 0.21579 0.28309 0.0
C658 C 0.77235 0.64364 0.29243 0.0
C659 C 0.7679 0.63441 0.3116 0.0
C660 C 0.78424 0.65527 0.29424 0.0
C661 C 0.80615 0.68101 0.33452 0.0
H662 H 0.83706 0.68245 0.28483 0.0
C663 C 0.86114 0.72413 0.3323 0.0
C664 C 0.86411 0.73153 0.311 0.0
C665 C 0.84956 0.71206 0.33421 0.0
C666 C 0.82846 0.68229 0.29875 0.0
H667 H 0.77222 0.63055 0.34795 0.0
H668 H 0.79314 0.651 0.35105 0.0
H669 H 0.81654 0.66178 0.28501 0.0
H670 H 0.85685 0.73232 0.27518 0.0
H671 H 0.83674 0.71149 0.2786 0.0
H672 H 0.81809 0.70172 0.34809 0.0
C673 C 0.78731 0.64915 0.33465 0.0
C674 C 0.81671 0.67045 0.29886 0.0
C675 C 0.77538 0.63742 0.33283 0.0
C676 C 0.85502 0.72683 0.29182 0.0
C677 C 0.84353 0.7148 0.29373 0.0
C678 C 0.81796 0.69293 0.33441 0.0
C679 C 0.79203 0.658 0.31525 0.0
C680 C 0.80522 0.66986 0.31647 0.0
C681 C 0.84081 0.70713 0.31485 0.0
C682 C 0.82903 0.69386 0.31625 0.0
H683 H 0.76678 0.64179 0.27584 0.0
H684 H 0.78737 0.66213 0.2791 0.0
H685 H 0.79742 0.68087 0.34828 0.0
H686 H 0.86791 0.72748 0.34743 0.0
H687 H 0.84775 0.70632 0.35069 0.0
C688 C 0.72005 0.86224 0.82994 0.0
C689 C 0.72656 0.86577 0.80822 0.0
C690 C 0.70813 0.85055 0.83227 0.0
C691 C 0.67727 0.82971 0.79824 0.0
H692 H 0.67839 0.79761 0.84637 0.0
C693 C 0.6401 0.77243 0.79251 0.0
C694 C 0.6318 0.76731 0.8122 0.0
C695 C 0.65129 0.78478 0.79385 0.0
C696 C 0.67782 0.80663 0.83303 0.0
H697 H 0.72589 0.85941 0.77204 0.0
H698 H 0.70536 0.83909 0.77618 0.0
H699 H 0.69874 0.81875 0.84553 0.0
H700 H 0.62908 0.77101 0.84891 0.0
H701 H 0.64875 0.79268 0.85118 0.0
H702 H 0.65658 0.81756 0.78549 0.0
C703 C 0.70922 0.84554 0.79135 0.0
C704 C 0.68945 0.81872 0.83255 0.0
C705 C 0.72109 0.85715 0.78902 0.0
C706 C 0.63522 0.77467 0.83339 0.0
C707 C 0.64652 0.78703 0.83474 0.0
C708 C 0.66572 0.81767 0.79869 0.0
C709 C 0.70247 0.84222 0.81292 0.0
C710 C 0.68946 0.83019 0.81485 0.0
C711 C 0.65451 0.79233 0.8149 0.0
C712 C 0.66605 0.80581 0.8158 0.0
H713 H 0.72401 0.86864 0.8451 0.0
H714 H 0.7031 0.84827 0.84911 0.0
H715 H 0.67673 0.8386 0.7847 0.0
H716 H 0.63787 0.76701 0.77591 0.0
H717 H 0.65747 0.78841 0.77834 0.0
C718 C 0.13663 0.72244 0.83058 0.0
C719 C 0.13375 0.73057 0.80981 0.0
C720 C 0.14814 0.71026 0.83171 0.0
C721 C 0.16899 0.68149 0.79439 0.0
H722 H 0.19945 0.67767 0.84439 0.0
C723 C 0.22346 0.64042 0.7874 0.0
C724 C 0.22738 0.63078 0.80638 0.0
C725 C 0.2121 0.65256 0.78939 0.0
C726 C 0.19089 0.67849 0.83047 0.0
H727 H 0.14112 0.73257 0.77414 0.0
H728 H 0.16113 0.71153 0.7762 0.0
H729 H 0.17939 0.69909 0.8451 0.0
H730 H 0.22269 0.62669 0.84259 0.0
H731 H 0.20267 0.64796 0.84598 0.0
H732 H 0.18041 0.66103 0.77966 0.0
C733 C 0.15432 0.71436 0.79151 0.0
C734 C 0.17943 0.69073 0.83087 0.0
C735 C 0.14289 0.7265 0.79038 0.0
C736 C 0.21993 0.63387 0.82761 0.0
C737 C 0.20851 0.64608 0.82959 0.0
C738 C 0.18039 0.6693 0.794 0.0
C739 C 0.15693 0.70595 0.81207 0.0
C740 C 0.16854 0.6925 0.81262 0.0
C741 C 0.20432 0.65539 0.81038 0.0
C742 C 0.19164 0.66781 0.81182 0.0
H743 H 0.12983 0.72529 0.84589 0.0
H744 H 0.14986 0.70394 0.84777 0.0
H745 H 0.16052 0.6823 0.78035 0.0
H746 H 0.22905 0.63852 0.77083 0.0
H747 H 0.20938 0.65975 0.77439 0.0
C748 C 0.34913 0.22266 0.79447 0.0
C749 C 0.36056 0.22555 0.81171 0.0
C750 C 0.33625 0.21242 0.79847 0.0
C751 C 0.32383 0.17819 0.83315 0.0
H752 H 0.28201 0.18847 0.80813 0.0
C753 C 0.27032 0.13374 0.83557 0.0
C754 C 0.26237 0.13196 0.81442 0.0
C755 C 0.28134 0.14617 0.83884 0.0
C756 C 0.29362 0.18542 0.8152 0.0
H757 H 0.36729 0.21999 0.84683 0.0
H758 H 0.34469 0.20192 0.85375 0.0
H759 H 0.30315 0.20861 0.80759 0.0
H760 H 0.25957 0.14208 0.78028 0.0
H761 H 0.27872 0.16359 0.78597 0.0
H762 H 0.31438 0.15482 0.84012 0.0
C763 C 0.34581 0.20764 0.83713 0.0
C764 C 0.30571 0.19695 0.8149 0.0
C765 C 0.3587 0.21802 0.83318 0.0
C766 C 0.26548 0.14304 0.79678 0.0
C767 C 0.27637 0.15548 0.8001 0.0
C768 C 0.3117 0.16663 0.83345 0.0
C769 C 0.33446 0.20475 0.81978 0.0
C770 C 0.32108 0.19331 0.82325 0.0
C771 C 0.28448 0.15716 0.8211 0.0
C772 C 0.29661 0.17 0.82386 0.0
H773 H 0.35013 0.22825 0.77775 0.0
H774 H 0.32786 0.21024 0.78463 0.0
H775 H 0.33558 0.17502 0.83959 0.0
H776 H 0.2682 0.12541 0.84952 0.0
H777 H 0.28737 0.14723 0.85524 0.0
C778 C 0.85414 0.26956 0.7905 0.0
C779 C 0.86297 0.26527 0.81012 0.0
C780 C 0.84256 0.28156 0.79159 0.0
C781 C 0.81638 0.30402 0.83083 0.0
H782 H 0.81548 0.33452 0.78058 0.0
C783 C 0.77442 0.35967 0.82862 0.0
C784 C 0.76709 0.363 0.80738 0.0
C785 C 0.78624 0.34784 0.83031 0.0
C786 C 0.81547 0.32602 0.79464 0.0
H787 H 0.86623 0.27004 0.84647 0.0
H788 H 0.84593 0.29113 0.84831 0.0
H789 H 0.83586 0.31369 0.78123 0.0
H790 H 0.76623 0.35619 0.77139 0.0
H791 H 0.78663 0.33557 0.77444 0.0
H792 H 0.79584 0.31637 0.84411 0.0
C793 C 0.848 0.28509 0.83211 0.0
C794 C 0.82715 0.31409 0.79501 0.0
C795 C 0.85967 0.27306 0.83102 0.0
C796 C 0.77167 0.35406 0.788 0.0
C797 C 0.78346 0.34228 0.7897 0.0
C798 C 0.80464 0.31599 0.83044 0.0
C799 C 0.83949 0.2896 0.81231 0.0
C800 C 0.8276 0.30281 0.81291 0.0
C801 C 0.791 0.33914 0.8108 0.0
C802 C 0.80392 0.32696 0.81214 0.0
H803 H 0.85624 0.26376 0.77413 0.0
H804 H 0.83597 0.28455 0.77614 0.0
H805 H 0.81638 0.29543 0.84478 0.0
H806 H 0.77118 0.36633 0.8439 0.0
H807 H 0.7919 0.34575 0.84678 0.0
C808 C 0.63376 0.2228 0.66757 0.0
C809 C 0.63183 0.23024 0.68909 0.0
C810 C 0.64642 0.21211 0.6638 0.0
C811 C 0.68596 0.2003 0.68679 0.0
H812 H 0.67668 0.1586 0.66059 0.0
C813 C 0.7244 0.14533 0.70558 0.0
C814 C 0.72771 0.13435 0.6879 0.0
C815 C 0.71387 0.15803 0.70197 0.0
C816 C 0.67954 0.17029 0.66753 0.0
H817 H 0.64187 0.23241 0.72337 0.0
H818 H 0.66376 0.21385 0.71678 0.0
H819 H 0.65592 0.17927 0.66097 0.0
H820 H 0.72261 0.12821 0.65243 0.0
H821 H 0.70399 0.15049 0.64619 0.0
H822 H 0.70938 0.19122 0.69402 0.0
C823 C 0.6556 0.21636 0.70277 0.0
C824 C 0.66766 0.18213 0.66775 0.0
C825 C 0.64295 0.22691 0.70659 0.0
C826 C 0.72031 0.13647 0.6664 0.0
C827 C 0.70962 0.14917 0.66284 0.0
C828 C 0.6978 0.18851 0.68657 0.0
C829 C 0.65747 0.2088 0.68138 0.0
C830 C 0.67062 0.19708 0.67802 0.0
C831 C 0.70631 0.16007 0.68062 0.0
C832 C 0.69457 0.17323 0.67758 0.0
H833 H 0.62541 0.22509 0.65372 0.0
H834 H 0.64761 0.20649 0.64711 0.0
H835 H 0.6887 0.21184 0.69438 0.0
H836 H 0.72989 0.14412 0.72234 0.0
H837 H 0.71137 0.16607 0.71613 0.0
C838 C 0.77553 0.63722 0.67147 0.0
C839 C 0.76777 0.63489 0.69266 0.0
C840 C 0.78658 0.64968 0.6687 0.0
C841 C 0.79887 0.68835 0.69405 0.0
H842 H 0.84004 0.67959 0.66583 0.0
C843 C 0.85357 0.72828 0.70922 0.0
C844 C 0.86386 0.73164 0.69073 0.0
C845 C 0.84116 0.71724 0.70684 0.0
C846 C 0.8285 0.6823 0.67341 0.0
H847 H 0.76549 0.64395 0.72749 0.0
H848 H 0.78473 0.6655 0.72265 0.0
H849 H 0.81943 0.6588 0.66632 0.0
H850 H 0.86908 0.72599 0.65511 0.0
H851 H 0.84729 0.70662 0.65099 0.0
H852 H 0.808 0.7117 0.70157 0.0
C853 C 0.78217 0.65782 0.70811 0.0
C854 C 0.81671 0.6704 0.67369 0.0
C855 C 0.77122 0.64536 0.71092 0.0
C856 C 0.86138 0.72369 0.66971 0.0
C857 C 0.84896 0.71255 0.66736 0.0
C858 C 0.81063 0.70022 0.69376 0.0
C859 C 0.78999 0.66012 0.687 0.0
C860 C 0.8019 0.67319 0.68448 0.0
C861 C 0.83871 0.70924 0.68591 0.0
C862 C 0.8257 0.69721 0.68391 0.0
H863 H 0.77315 0.62939 0.65704 0.0
H864 H 0.79236 0.65123 0.65219 0.0
H865 H 0.78746 0.69097 0.70206 0.0
H866 H 0.8551 0.73414 0.72568 0.0
H867 H 0.83364 0.71476 0.72158 0.0
C868 C 0.27154 0.85295 0.7122 0.0
C869 C 0.26742 0.86213 0.69284 0.0
C870 C 0.28331 0.84115 0.71078 0.0
C871 C 0.30525 0.81509 0.67071 0.0
H872 H 0.33548 0.81257 0.72117 0.0
C873 C 0.35993 0.77167 0.67253 0.0
C874 C 0.36279 0.76394 0.69362 0.0
C875 C 0.34838 0.78378 0.67088 0.0
C876 C 0.32706 0.81303 0.70703 0.0
H877 H 0.2723 0.86582 0.65659 0.0
H878 H 0.293 0.84515 0.65419 0.0
H879 H 0.31521 0.83351 0.72103 0.0
H880 H 0.35534 0.76259 0.72933 0.0
H881 H 0.33525 0.78349 0.72636 0.0
H882 H 0.31714 0.79445 0.65684 0.0
C883 C 0.28699 0.84711 0.67043 0.0
C884 C 0.31544 0.82502 0.70696 0.0
C885 C 0.27518 0.85899 0.67186 0.0
C886 C 0.3536 0.76835 0.71284 0.0
C887 C 0.34212 0.78042 0.71119 0.0
C888 C 0.31692 0.80303 0.67079 0.0
C889 C 0.2913 0.83821 0.68997 0.0
C890 C 0.30424 0.82603 0.68902 0.0
C891 C 0.33951 0.78842 0.69031 0.0
C892 C 0.32776 0.80173 0.68917 0.0
H893 H 0.26575 0.85492 0.72861 0.0
H894 H 0.28614 0.83428 0.72604 0.0
H895 H 0.29672 0.81553 0.65671 0.0
H896 H 0.36678 0.76855 0.65738 0.0
H897 H 0.34666 0.78978 0.65457 0.0
C898 C 0.14149 0.27237 0.71196 0.0
C899 C 0.13207 0.26776 0.69307 0.0
C900 C 0.15324 0.28409 0.70962 0.0
C901 C 0.17904 0.30501 0.66839 0.0
H902 H 0.18129 0.33655 0.71722 0.0
C903 C 0.22324 0.35925 0.66923 0.0
C904 C 0.23078 0.36219 0.69044 0.0
C905 C 0.21097 0.34787 0.66754 0.0
C906 C 0.18089 0.32777 0.70352 0.0
H907 H 0.128 0.27159 0.65666 0.0
H908 H 0.14868 0.29221 0.65261 0.0
H909 H 0.1602 0.31645 0.71774 0.0
H910 H 0.23164 0.35505 0.72631 0.0
H911 H 0.21044 0.33531 0.72328 0.0
H912 H 0.19993 0.31636 0.65436 0.0
C913 C 0.14688 0.28665 0.66922 0.0
C914 C 0.16881 0.31627 0.70382 0.0
C915 C 0.13501 0.27489 0.67157 0.0
C916 C 0.22604 0.35324 0.70973 0.0
C917 C 0.2138 0.34196 0.70804 0.0
C918 C 0.19118 0.31659 0.66809 0.0
C919 C 0.15592 0.29153 0.68834 0.0
C920 C 0.16795 0.30454 0.68656 0.0
C921 C 0.20597 0.33931 0.68705 0.0
C922 C 0.19241 0.32786 0.68596 0.0
H923 H 0.13969 0.26707 0.72875 0.0
H924 H 0.16025 0.28736 0.72456 0.0
H925 H 0.17867 0.29609 0.65489 0.0
H926 H 0.22662 0.36591 0.65402 0.0
H927 H 0.20511 0.34609 0.65114 0.0
C928 C 0.24809 0.08465 0.08708 0.0
C929 C 0.24343 0.0712 0.1 0.0
C930 C 0.25009 0.0835 0.06328 0.0
C931 C 0.23647 0.05927 0.01417 0.0
H932 H 0.26899 0.08284 0.98071 0.0
C933 C 0.24073 0.05561 0.91562 0.0
C934 C 0.24275 0.07024 0.904 0.0
C935 C 0.24291 0.05469 0.9394 0.0
C936 C 0.25978 0.07626 0.9898 0.0
H937 H 0.23794 0.04582 0.09815 0.0
H938 H 0.2416 0.0438 0.05673 0.0
H939 H 0.26913 0.08307 0.02267 0.0
H940 H 0.24926 0.09524 0.9082 0.0
H941 H 0.25286 0.09366 0.94965 0.0
H942 H 0.22692 0.0527 0.98145 0.0
C943 C 0.24343 0.0553 0.06492 0.0
C944 C 0.25986 0.07639 0.01385 0.0
C945 C 0.24142 0.05645 0.08871 0.0
C946 C 0.24759 0.08378 0.91659 0.0
C947 C 0.24974 0.08286 0.94038 0.0
C948 C 0.23639 0.05914 0.99018 0.0
C949 C 0.24749 0.06888 0.05185 0.0
C950 C 0.24812 0.06801 0.02632 0.0
C951 C 0.24714 0.06836 0.95214 0.0
C952 C 0.24795 0.06775 0.97768 0.0
H953 H 0.24975 0.0962 0.09522 0.0
H954 H 0.25309 0.09423 0.05373 0.0
H955 H 0.22707 0.05292 0.02319 0.0
H956 H 0.23712 0.04492 0.90644 0.0
H957 H 0.24108 0.04327 0.94785 0.0
C958 C 0.90942 0.25217 0.91733 0.0
C959 C 0.92279 0.24714 0.90452 0.0
C960 C 0.91069 0.25477 0.941 0.0
C961 C 0.93506 0.24212 0.99043 0.0
H962 H 0.91196 0.27557 0.02268 0.0
C963 C 0.93918 0.24814 0.08868 0.0
C964 C 0.92463 0.25053 0.10033 0.0
C965 C 0.94005 0.24995 0.06484 0.0
C966 C 0.91841 0.26611 0.01393 0.0
H967 H 0.94817 0.24166 0.90641 0.0
H968 H 0.9504 0.24635 0.94758 0.0
H969 H 0.91149 0.27479 0.98073 0.0
H970 H 0.89972 0.25737 0.09613 0.0
H971 H 0.90119 0.26033 0.05456 0.0
H972 H 0.94171 0.2332 0.02348 0.0
C973 C 0.93886 0.24801 0.93941 0.0
C974 C 0.91814 0.26567 0.9899 0.0
C975 C 0.9376 0.24541 0.91576 0.0
C976 C 0.91113 0.25542 0.0877 0.0
C977 C 0.91199 0.2572 0.06385 0.0
C978 C 0.93531 0.24255 0.01441 0.0
C979 C 0.92536 0.25241 0.9524 0.0
C980 C 0.92636 0.25358 0.97787 0.0
C981 C 0.92638 0.25417 0.05206 0.0
C982 C 0.92688 0.25446 0.02649 0.0
H983 H 0.89784 0.25363 0.90921 0.0
H984 H 0.90002 0.25803 0.9505 0.0
H985 H 0.94128 0.23247 0.98177 0.0
H986 H 0.94985 0.24449 0.09789 0.0
H987 H 0.9514 0.24782 0.05637 0.0
C988 C 0.74702 0.91126 0.91539 0.0
C989 C 0.74812 0.89655 0.90373 0.0
C990 C 0.74515 0.91165 0.93929 0.0
C991 C 0.75316 0.88664 0.99016 0.0
H992 H 0.72676 0.91758 0.02238 0.0
C993 C 0.74566 0.88333 0.08779 0.0
C994 C 0.74702 0.89775 0.10008 0.0
C995 C 0.74394 0.88343 0.06395 0.0
C996 C 0.73427 0.90894 0.01362 0.0
H997 H 0.74729 0.87072 0.90789 0.0
H998 H 0.74382 0.87142 0.94935 0.0
H999 H 0.72706 0.91731 0.98034 0.0
H1000 H 0.74694 0.92366 0.09702 0.0
H1001 H 0.74414 0.92384 0.05523 0.0
H1002 H 0.76056 0.87837 0.0232 0.0
C1003 C 0.74476 0.88266 0.94016 0.0
C1004 C 0.73444 0.90879 0.98955 0.0
C1005 C 0.74666 0.88227 0.91634 0.0
C1006 C 0.74594 0.91233 0.08805 0.0
C1007 C 0.74427 0.91244 0.06411 0.0
C1008 C 0.75299 0.8868 0.01412 0.0
C1009 C 0.74433 0.89734 0.952 0.0
C1010 C 0.74386 0.89759 0.97755 0.0
C1011 C 0.74362 0.89797 0.05174 0.0
C1012 C 0.74351 0.89789 0.02617 0.0
H1013 H 0.74809 0.92248 0.90617 0.0
H1014 H 0.74494 0.92316 0.94789 0.0
H1015 H 0.76085 0.8781 0.98152 0.0
H1016 H 0.74626 0.87188 0.09653 0.0
H1017 H 0.74311 0.87208 0.05502 0.0
C1018 C 0.06016 0.75042 0.91639 0.0
C1019 C 0.07492 0.74899 0.90495 0.0
C1020 C 0.05916 0.74813 0.94013 0.0
C1021 C 0.08092 0.73205 0.99089 0.0
H1022 H 0.05626 0.76409 0.02371 0.0
C1023 C 0.08783 0.74404 0.08839 0.0
C1024 C 0.07413 0.74844 0.10095 0.0
C1025 C 0.08702 0.74193 0.06458 0.0
C1026 C 0.06298 0.75486 0.01486 0.0
H1027 H 0.1001 0.74334 0.90941 0.0
H1028 H 0.09838 0.73951 0.95085 0.0
H1029 H 0.05644 0.76417 0.98198 0.0
H1030 H 0.04866 0.7533 0.09845 0.0
H1031 H 0.04721 0.74942 0.05702 0.0
H1032 H 0.08768 0.72295 0.02393 0.0
C1033 C 0.08754 0.74227 0.94145 0.0
C1034 C 0.06308 0.75491 0.99087 0.0
C1035 C 0.08854 0.74455 0.91767 0.0
C1036 C 0.05947 0.75004 0.08929 0.0
C1037 C 0.05866 0.74791 0.0655 0.0
C1038 C 0.08081 0.732 0.01495 0.0
C1039 C 0.0729 0.74437 0.95303 0.0
C1040 C 0.07214 0.7436 0.97857 0.0
C1041 C 0.07248 0.74415 0.05278 0.0
C1042 C 0.07193 0.74349 0.02722 0.0
H1043 H 0.0494 0.7537 0.90711 0.0
H1044 H 0.04764 0.74954 0.94844 0.0
H1045 H 0.08787 0.72305 0.98195 0.0
H1046 H 0.09932 0.74271 0.09682 0.0
H1047 H 0.09793 0.73918 0.05532 0.0
C1048 C 0.25333 0.90945 0.41463 0.0
C1049 C 0.24865 0.92311 0.40217 0.0
C1050 C 0.25542 0.91021 0.43845 0.0
C1051 C 0.24215 0.93381 0.48843 0.0
H1052 H 0.27453 0.90941 0.52094 0.0
C1053 C 0.24698 0.93646 0.58688 0.0
C1054 C 0.24874 0.9217 0.59824 0.0
C1055 C 0.24913 0.93755 0.56313 0.0
C1056 C 0.26537 0.91622 0.51211 0.0
H1057 H 0.24325 0.94847 0.40489 0.0
H1058 H 0.2471 0.94983 0.44633 0.0
H1059 H 0.27449 0.90975 0.47898 0.0
H1060 H 0.2548 0.89662 0.59361 0.0
H1061 H 0.25838 0.8985 0.55213 0.0
H1062 H 0.23284 0.94008 0.52142 0.0
C1063 C 0.24885 0.93845 0.43776 0.0
C1064 C 0.26534 0.91642 0.48806 0.0
C1065 C 0.24673 0.93768 0.41396 0.0
C1066 C 0.25334 0.90818 0.58541 0.0
C1067 C 0.25547 0.90927 0.56162 0.0
C1068 C 0.24218 0.93363 0.51242 0.0
C1069 C 0.25291 0.92465 0.45037 0.0
C1070 C 0.25364 0.92512 0.47593 0.0
C1071 C 0.25306 0.9239 0.55012 0.0
C1072 C 0.25371 0.92474 0.52458 0.0
H1073 H 0.25492 0.89802 0.4061 0.0
H1074 H 0.25841 0.89932 0.44761 0.0
H1075 H 0.23277 0.94039 0.47969 0.0
H1076 H 0.24357 0.94714 0.59625 0.0
H1077 H 0.24748 0.94907 0.55489 0.0
C1078 C 0.08466 0.25146 0.58875 0.0
C1079 C 0.0712 0.24673 0.60159 0.0
C1080 C 0.08365 0.25322 0.56489 0.0
C1081 C 0.05981 0.23884 0.51577 0.0
H1082 H 0.08314 0.27131 0.48185 0.0
C1083 C 0.05567 0.24276 0.41729 0.0
C1084 C 0.0702 0.24476 0.40544 0.0
C1085 C 0.05491 0.24498 0.44107 0.0
C1086 C 0.07664 0.26211 0.49108 0.0
H1087 H 0.04592 0.24089 0.5995 0.0
H1088 H 0.04411 0.24415 0.55801 0.0
H1089 H 0.08333 0.27176 0.52382 0.0
H1090 H 0.09522 0.25128 0.40922 0.0
H1091 H 0.09393 0.25501 0.45072 0.0
H1092 H 0.05332 0.22902 0.48318 0.0
C1093 C 0.05554 0.2462 0.56631 0.0
C1094 C 0.07674 0.26237 0.51513 0.0
C1095 C 0.05656 0.24442 0.59014 0.0
C1096 C 0.08383 0.24963 0.41781 0.0
C1097 C 0.08307 0.25185 0.44161 0.0
C1098 C 0.0597 0.23859 0.49179 0.0
C1099 C 0.06914 0.2503 0.55332 0.0
C1100 C 0.06841 0.25066 0.52777 0.0
C1101 C 0.06867 0.24926 0.45359 0.0
C1102 C 0.06819 0.25015 0.47912 0.0
H1103 H 0.09613 0.25334 0.59701 0.0
H1104 H 0.0944 0.25626 0.55543 0.0
H1105 H 0.05352 0.22945 0.52491 0.0
H1106 H 0.04491 0.23912 0.4083 0.0
H1107 H 0.04356 0.24317 0.44969 0.0
C1108 C 0.74556 0.08676 0.58568 0.0
C1109 C 0.75618 0.07611 0.59658 0.0
C1110 C 0.74338 0.08621 0.56186 0.0
C1111 C 0.74996 0.06054 0.51056 0.0
H1112 H 0.75079 0.10099 0.47781 0.0
C1113 C 0.76473 0.06512 0.41413 0.0
C1114 C 0.75678 0.07668 0.40078 0.0
C1115 C 0.76234 0.06438 0.43785 0.0
C1116 C 0.75025 0.08959 0.48667 0.0
H1117 H 0.77252 0.05626 0.59101 0.0
H1118 H 0.76884 0.0554 0.54959 0.0
H1119 H 0.75073 0.1009 0.51964 0.0
H1120 H 0.73963 0.09621 0.40183 0.0
H1121 H 0.73536 0.09483 0.44329 0.0
H1122 H 0.74983 0.04923 0.47756 0.0
C1123 C 0.76205 0.06408 0.55942 0.0
C1124 C 0.75022 0.08954 0.51068 0.0
C1125 C 0.76424 0.06464 0.5832 0.0
C1126 C 0.746 0.08719 0.41162 0.0
C1127 C 0.74362 0.08647 0.4354 0.0
C1128 C 0.75 0.06059 0.48655 0.0
C1129 C 0.75174 0.07497 0.54841 0.0
C1130 C 0.75034 0.07501 0.52293 0.0
C1131 C 0.75192 0.07518 0.44884 0.0
C1132 C 0.75041 0.07511 0.47431 0.0
H1133 H 0.73912 0.09571 0.59549 0.0
H1134 H 0.7352 0.09464 0.55395 0.0
H1135 H 0.74977 0.04914 0.51945 0.0
H1136 H 0.77313 0.05684 0.40636 0.0
H1137 H 0.76908 0.05567 0.44768 0.0
C1138 C 0.93967 0.75121 0.58755 0.0
C1139 C 0.92489 0.74975 0.59892 0.0
C1140 C 0.94072 0.74894 0.56381 0.0
C1141 C 0.91889 0.73301 0.51296 0.0
H1142 H 0.94334 0.76525 0.48024 0.0
C1143 C 0.91067 0.74627 0.41613 0.0
C1144 C 0.9242 0.75072 0.40323 0.0
C1145 C 0.91186 0.74382 0.43984 0.0
C1146 C 0.93668 0.75597 0.48906 0.0
H1147 H 0.89973 0.74407 0.59435 0.0
H1148 H 0.90151 0.74031 0.55294 0.0
H1149 H 0.9435 0.76501 0.52197 0.0
H1150 H 0.94975 0.7553 0.40498 0.0
H1151 H 0.95185 0.75085 0.44624 0.0
H1152 H 0.9118 0.72421 0.47991 0.0
C1153 C 0.91235 0.74306 0.56238 0.0
C1154 C 0.93678 0.75583 0.51305 0.0
C1155 C 0.91131 0.74531 0.58614 0.0
C1156 C 0.93907 0.75201 0.41442 0.0
C1157 C 0.94026 0.74955 0.43811 0.0
C1158 C 0.91879 0.73316 0.48892 0.0
C1159 C 0.927 0.74518 0.55085 0.0
C1160 C 0.92775 0.74447 0.52532 0.0
C1161 C 0.92661 0.74574 0.45119 0.0
C1162 C 0.92755 0.74475 0.47668 0.0
H1163 H 0.9504 0.7545 0.59689 0.0
H1164 H 0.95225 0.75038 0.55553 0.0
H1165 H 0.91198 0.72396 0.52187 0.0
H1166 H 0.89904 0.74516 0.40806 0.0
H1167 H 0.90109 0.74104 0.44939 0.0
C1168 C 0.75311 0.58798 0.58799 0.0
C1169 C 0.74848 0.5744 0.60066 0.0
C1170 C 0.75517 0.58705 0.56418 0.0
C1171 C 0.74176 0.56306 0.51465 0.0
H1172 H 0.77396 0.58728 0.4815 0.0
C1173 C 0.74625 0.55978 0.41615 0.0
C1174 C 0.74801 0.57447 0.40459 0.0
C1175 C 0.74841 0.55885 0.43992 0.0
C1176 C 0.76485 0.58052 0.49051 0.0
H1177 H 0.74318 0.549 0.59833 0.0
H1178 H 0.74698 0.54734 0.55691 0.0
H1179 H 0.7741 0.58724 0.52347 0.0
H1180 H 0.75406 0.59957 0.40889 0.0
H1181 H 0.75767 0.59797 0.45037 0.0
H1182 H 0.73232 0.55656 0.48184 0.0
C1183 C 0.7487 0.5588 0.56531 0.0
C1184 C 0.76492 0.5805 0.51456 0.0
C1185 C 0.74662 0.55973 0.5891 0.0
C1186 C 0.7526 0.58807 0.41724 0.0
C1187 C 0.75475 0.58713 0.44104 0.0
C1188 C 0.74169 0.56308 0.49066 0.0
C1189 C 0.75268 0.57251 0.55248 0.0
C1190 C 0.7533 0.57187 0.52693 0.0
C1191 C 0.75238 0.57258 0.45273 0.0
C1192 C 0.75315 0.5719 0.47827 0.0
H1193 H 0.75464 0.59947 0.59634 0.0
H1194 H 0.7581 0.59788 0.55484 0.0
H1195 H 0.73244 0.55653 0.52357 0.0
H1196 H 0.74284 0.54904 0.40693 0.0
H1197 H 0.74677 0.54738 0.44832 0.0
C1198 C 0.40899 0.74803 0.41707 0.0
C1199 C 0.42257 0.74345 0.40435 0.0
C1200 C 0.40999 0.75024 0.44084 0.0
C1201 C 0.43415 0.73738 0.49042 0.0
H1202 H 0.40992 0.76981 0.52309 0.0
C1203 C 0.43725 0.74232 0.58887 0.0
C1204 C 0.42253 0.74413 0.60032 0.0
C1205 C 0.43826 0.74444 0.5651 0.0
C1206 C 0.41669 0.76063 0.51422 0.0
H1207 H 0.44801 0.73835 0.40656 0.0
H1208 H 0.44976 0.74238 0.44794 0.0
H1209 H 0.4099 0.76961 0.48113 0.0
H1210 H 0.39746 0.75024 0.59583 0.0
H1211 H 0.3992 0.75375 0.55435 0.0
H1212 H 0.44069 0.72818 0.52337 0.0
C1213 C 0.43828 0.74397 0.43959 0.0
C1214 C 0.41668 0.76051 0.49017 0.0
C1215 C 0.43728 0.74175 0.41583 0.0
C1216 C 0.40899 0.74874 0.58756 0.0
C1217 C 0.41 0.75084 0.56376 0.0
C1218 C 0.43416 0.73749 0.51441 0.0
C1219 C 0.42458 0.74794 0.45246 0.0
C1220 C 0.42531 0.74879 0.47798 0.0
C1221 C 0.42459 0.7484 0.55217 0.0
C1222 C 0.42532 0.74902 0.52663 0.0
H1223 H 0.39747 0.74945 0.40877 0.0
H1224 H 0.39917 0.75316 0.45022 0.0
H1225 H 0.44069 0.72799 0.48163 0.0
H1226 H 0.44794 0.73889 0.59818 0.0
H1227 H 0.44975 0.74276 0.55678 0.0
C1228 C 0.24258 0.40751 0.411 0.0
C1229 C 0.25222 0.41894 0.39988 0.0
C1230 C 0.24027 0.40816 0.4348 0.0
C1231 C 0.24468 0.4347 0.48574 0.0
H1232 H 0.24978 0.3947 0.51883 0.0
C1233 C 0.26133 0.43196 0.58172 0.0
C1234 C 0.25484 0.41967 0.59537 0.0
C1235 C 0.25839 0.43244 0.55811 0.0
C1236 C 0.24804 0.40595 0.50989 0.0
H1237 H 0.26652 0.44036 0.40498 0.0
H1238 H 0.26263 0.4414 0.44634 0.0
H1239 H 0.24921 0.39455 0.47702 0.0
H1240 H 0.23966 0.39858 0.59499 0.0
H1241 H 0.23442 0.3995 0.55375 0.0
H1242 H 0.24389 0.44614 0.51865 0.0
C1243 C 0.25671 0.43201 0.43672 0.0
C1244 C 0.2477 0.40586 0.48588 0.0
C1245 C 0.25903 0.43135 0.41297 0.0
C1246 C 0.2449 0.40817 0.58496 0.0
C1247 C 0.24198 0.40864 0.5613 0.0
C1248 C 0.24501 0.43479 0.50976 0.0
C1249 C 0.24752 0.42028 0.44799 0.0
C1250 C 0.2463 0.42027 0.4735 0.0
C1251 C 0.24888 0.42065 0.54754 0.0
C1252 C 0.24697 0.42044 0.52212 0.0
H1253 H 0.2371 0.39783 0.40142 0.0
H1254 H 0.23295 0.39907 0.44291 0.0
H1255 H 0.24331 0.44598 0.47675 0.0
H1256 H 0.26904 0.44101 0.58916 0.0
H1257 H 0.26406 0.44175 0.54801 0.0
C1258 C 0.56058 0.26354 0.58505 0.0
C1259 C 0.57227 0.25594 0.59857 0.0
C1260 C 0.56009 0.26113 0.56131 0.0
C1261 C 0.58607 0.24991 0.51293 0.0
H1262 H 0.54597 0.24816 0.4794 0.0
C1263 C 0.58441 0.24573 0.41383 0.0
C1264 C 0.57355 0.2561 0.40289 0.0
C1265 C 0.58364 0.24329 0.4376 0.0
C1266 C 0.55727 0.24871 0.4885 0.0
H1267 H 0.59232 0.23939 0.59781 0.0
H1268 H 0.59139 0.2351 0.55634 0.0
H1269 H 0.54569 0.24814 0.5213 0.0
H1270 H 0.55306 0.27166 0.40827 0.0
H1271 H 0.55182 0.26754 0.44957 0.0
H1272 H 0.59765 0.25085 0.48017 0.0
C1273 C 0.58271 0.24309 0.5641 0.0
C1274 C 0.55711 0.2487 0.51252 0.0
C1275 C 0.58319 0.24548 0.58789 0.0
C1276 C 0.56162 0.26359 0.41612 0.0
C1277 C 0.56084 0.26114 0.43983 0.0
C1278 C 0.58624 0.24993 0.48891 0.0
C1279 C 0.57129 0.25105 0.55049 0.0
C1280 C 0.57149 0.24957 0.52502 0.0
C1281 C 0.57197 0.25114 0.45092 0.0
C1282 C 0.57183 0.2496 0.4764 0.0
H1283 H 0.55199 0.27168 0.5927 0.0
H1284 H 0.55125 0.2676 0.55134 0.0
H1285 H 0.59736 0.25081 0.522 0.0
H1286 H 0.59372 0.23973 0.40413 0.0
H1287 H 0.59227 0.23535 0.44556 0.0
C1288 C 0.75256 0.40433 0.91441 0.0
C1289 C 0.74921 0.41894 0.9034 0.0
C1290 C 0.75497 0.40375 0.93815 0.0
C1291 C 0.74502 0.42631 0.99077 0.0
H1292 H 0.77337 0.39543 0.01951 0.0
C1293 C 0.74949 0.42031 0.08935 0.0
C1294 C 0.74832 0.40456 0.09777 0.0
C1295 C 0.75203 0.42314 0.06594 0.0
C1296 C 0.76537 0.40409 0.01172 0.0
H1297 H 0.74661 0.44455 0.90859 0.0
H1298 H 0.75113 0.44358 0.94996 0.0
H1299 H 0.77375 0.39869 0.97784 0.0
H1300 H 0.74957 0.37944 0.08834 0.0
H1301 H 0.75402 0.38439 0.04759 0.0
H1302 H 0.73651 0.43156 0.02461 0.0
C1303 C 0.75152 0.4325 0.9403 0.0
C1304 C 0.76557 0.40595 0.98784 0.0
C1305 C 0.74903 0.43307 0.91655 0.0
C1306 C 0.75036 0.39172 0.08242 0.0
C1307 C 0.75302 0.39455 0.05906 0.0
C1308 C 0.7449 0.42452 0.01463 0.0
C1309 C 0.7542 0.41778 0.95148 0.0
C1310 C 0.75518 0.41688 0.97701 0.0
C1311 C 0.7536 0.41029 0.05049 0.0
C1312 C 0.75488 0.4132 0.02536 0.0
H1313 H 0.75278 0.3932 0.90483 0.0
H1314 H 0.75681 0.39217 0.94614 0.0
H1315 H 0.73667 0.43466 0.98306 0.0
H1316 H 0.74801 0.43048 0.10071 0.0
H1317 H 0.75261 0.4354 0.05989 0.0
C1318 C 0.58555 0.75265 0.09046 0.0
C1319 C 0.57203 0.74763 0.10297 0.0
C1320 C 0.58471 0.75466 0.06663 0.0
C1321 C 0.56145 0.7405 0.01683 0.0
H1322 H 0.58478 0.77347 0.98392 0.0
C1323 C 0.55846 0.74476 0.91836 0.0
C1324 C 0.57313 0.74693 0.90692 0.0
C1325 C 0.55735 0.747 0.9421 0.0
C1326 C 0.57827 0.76414 0.99286 0.0
H1327 H 0.54683 0.74157 0.10033 0.0
H1328 H 0.54532 0.74527 0.05888 0.0
H1329 H 0.58454 0.77359 0.02589 0.0
H1330 H 0.59799 0.75382 0.91137 0.0
H1331 H 0.59609 0.75755 0.95282 0.0
H1332 H 0.55541 0.73085 0.98396 0.0
C1333 C 0.55666 0.74734 0.06742 0.0
C1334 C 0.57814 0.76421 0.01692 0.0
C1335 C 0.55751 0.74531 0.09122 0.0
C1336 C 0.5865 0.75204 0.91964 0.0
C1337 C 0.5854 0.75426 0.94341 0.0
C1338 C 0.56159 0.74043 0.99285 0.0
C1339 C 0.57033 0.75172 0.05476 0.0
C1340 C 0.56981 0.75231 0.0292 0.0
C1341 C 0.57088 0.75143 0.95501 0.0
C1342 C 0.57009 0.75217 0.98054 0.0
H1343 H 0.59693 0.75455 0.09896 0.0
H1344 H 0.5955 0.75791 0.05742 0.0
H1345 H 0.55518 0.73097 0.02569 0.0
H1346 H 0.54788 0.74095 0.90909 0.0
H1347 H 0.54591 0.74502 0.95041 0.0
C1348 C 0.24497 0.58323 0.08653 0.0
C1349 C 0.24643 0.59788 0.09828 0.0
C1350 C 0.24289 0.58296 0.06265 0.0
C1351 C 0.25108 0.60812 0.01197 0.0
H1352 H 0.22429 0.57767 0.9795 0.0
C1353 C 0.24358 0.61211 0.91444 0.0
C1354 C 0.24483 0.59775 0.90197 0.0
C1355 C 0.24181 0.61187 0.93827 0.0
C1356 C 0.23191 0.58617 0.98834 0.0
H1357 H 0.24592 0.62372 0.09434 0.0
H1358 H 0.24206 0.62326 0.05295 0.0
H1359 H 0.22466 0.5777 0.02155 0.0
H1360 H 0.24448 0.57183 0.9047 0.0
H1361 H 0.24158 0.57142 0.94648 0.0
H1362 H 0.25852 0.61649 0.97901 0.0
C1363 C 0.24291 0.61196 0.06203 0.0
C1364 C 0.23212 0.58619 0.01241 0.0
C1365 C 0.24504 0.61222 0.08581 0.0
C1366 C 0.24356 0.58311 0.9138 0.0
C1367 C 0.24184 0.58287 0.93774 0.0
C1368 C 0.25087 0.60811 0.98802 0.0
C1369 C 0.24221 0.59734 0.05007 0.0
C1370 C 0.24168 0.59722 0.02451 0.0
C1371 C 0.24133 0.59727 0.9503 0.0
C1372 C 0.24125 0.59719 0.97587 0.0
H1373 H 0.24599 0.57196 0.09564 0.0
H1374 H 0.24247 0.57149 0.05396 0.0
H1375 H 0.25889 0.61652 0.02068 0.0
H1376 H 0.24432 0.6236 0.90585 0.0
H1377 H 0.24109 0.62318 0.94734 0.0
C1378 C 0.43241 0.25948 0.9147 0.0
C1379 C 0.42099 0.25135 0.90133 0.0
C1380 C 0.43316 0.25711 0.93843 0.0
C1381 C 0.40818 0.2447 0.98731 0.0
H1382 H 0.44867 0.24479 0.01994 0.0
C1383 C 0.41118 0.24093 0.08644 0.0
C1384 C 0.42165 0.25188 0.09701 0.0
C1385 C 0.41177 0.2384 0.06268 0.0
C1386 C 0.43726 0.24482 0.01109 0.0
H1387 H 0.40169 0.23397 0.90238 0.0
H1388 H 0.40308 0.22975 0.94387 0.0
H1389 H 0.44851 0.24475 0.97805 0.0
H1390 H 0.44129 0.26837 0.09094 0.0
H1391 H 0.44223 0.26408 0.04967 0.0
H1392 H 0.39692 0.24514 0.02033 0.0
C1393 C 0.41133 0.23811 0.93597 0.0
C1394 C 0.43716 0.24479 0.98708 0.0
C1395 C 0.4106 0.24046 0.91218 0.0
C1396 C 0.43304 0.25985 0.08339 0.0
C1397 C 0.43366 0.25731 0.0597 0.0
C1398 C 0.40827 0.24473 0.01133 0.0
C1399 C 0.42251 0.24656 0.94941 0.0
C1400 C 0.42262 0.24502 0.97489 0.0
C1401 C 0.42289 0.24672 0.04898 0.0
C1402 C 0.42281 0.24508 0.02352 0.0
H1403 H 0.44059 0.26797 0.90692 0.0
H1404 H 0.44178 0.26398 0.94826 0.0
H1405 H 0.39676 0.24508 0.97848 0.0
H1406 H 0.40228 0.23455 0.09644 0.0
H1407 H 0.40344 0.23002 0.05501 0.0
C1408 C 0.26891 0.04466 0.19694 0.0
C1409 C 0.26363 0.05567 0.21357 0.0
C1410 C 0.27656 0.03047 0.2036 0.0
C1411 C 0.29222 0.00816 0.2552 0.0
H1412 H 0.27218 0.97207 0.2248 0.0
C1413 C 0.27144 0.95049 0.29967 0.0
C1414 C 0.27043 0.93636 0.28664 0.0
C1415 C 0.27786 0.96443 0.28996 0.0
C1416 C 0.27826 0.98191 0.23323 0.0
H1417 H 0.2636 0.06103 0.25009 0.0
H1418 H 0.27625 0.03632 0.2616 0.0
H1419 H 0.27023 -0.0016 0.20781 0.0
H1420 H 0.2773 0.92514 0.2545 0.0
H1421 H 0.28861 0.94936 0.23775 0.0
H1422 H 0.29913 0.99158 0.28159 0.0
C1423 C 0.27478 0.03857 0.24341 0.0
C1424 C 0.27717 0.99711 0.2234 0.0
C1425 C 0.26729 0.05275 0.23678 0.0
C1426 C 0.27762 0.93594 0.2648 0.0
C1427 C 0.28409 0.94981 0.25518 0.0
C1428 C 0.29315 0.99293 0.26519 0.0
C1429 C 0.27898 0.02695 0.22701 0.0
C1430 C 0.28356 0.01055 0.2347 0.0
C1431 C 0.28343 0.9644 0.26714 0.0
C1432 C 0.28568 0.97976 0.25469 0.0
H1433 H 0.26648 0.04664 0.17888 0.0
H1434 H 0.27996 0.02195 0.19045 0.0
H1435 H 0.29763 0.01817 0.26412 0.0
H1436 H 0.26605 0.95118 0.31656 0.0
H1437 H 0.27715 0.9755 0.29962 0.0
C1438 C 0.93485 0.28014 0.23889 0.0
C1439 C 0.93576 0.27311 0.21698 0.0
C1440 C 0.94844 0.28679 0.24906 0.0
C1441 C 0.99164 0.29633 0.24059 0.0
H1442 H 0.9964 0.2727 0.29752 0.0
C1443 C 0.05066 0.26902 0.26891 0.0
C1444 C 0.0534 0.26496 0.29201 0.0
C1445 C 0.03672 0.27699 0.26241 0.0
C1446 C 0.99529 0.27985 0.28208 0.0
H1447 H 0.95111 0.26925 0.18747 0.0
H1448 H 0.97492 0.28065 0.20536 0.0
H1449 H 0.97027 0.27497 0.28001 0.0
H1450 H 0.04435 0.26756 0.32673 0.0
H1451 H 0.02004 0.28183 0.31541 0.0
H1452 H 0.01689 0.30063 0.24229 0.0
C1453 C 0.9637 0.2811 0.21467 0.0
C1454 C 0.98022 0.28113 0.27195 0.0
C1455 C 0.95005 0.27451 0.20441 0.0
C1456 C 0.0425 0.2703 0.30874 0.0
C1457 C 0.02853 0.27842 0.30222 0.0
C1458 C 0.00675 0.29521 0.25089 0.0
C1459 C 0.96322 0.28648 0.23758 0.0
C1460 C 0.97834 0.28875 0.25058 0.0
C1461 C 0.02516 0.28126 0.27886 0.0
C1462 C 0.00888 0.28624 0.27117 0.0
H1463 H 0.9239 0.27953 0.24884 0.0
H1464 H 0.94763 0.29116 0.26655 0.0
H1465 H 0.99051 0.30248 0.22429 0.0
H1466 H 0.05889 0.26531 0.25554 0.0
H1467 H 0.03457 0.27878 0.24425 0.0
C1468 C 0.72561 0.05805 0.26098 0.0
C1469 C 0.72867 0.06116 0.28431 0.0
C1470 C 0.7183 0.04381 0.2542 0.0
C1471 C 0.71598 0.00262 0.27534 0.0
H1472 H 0.69675 0.99567 0.21552 0.0
C1473 C 0.71891 0.94088 0.2361 0.0
C1474 C 0.72685 0.9411 0.21481 0.0
C1475 C 0.71175 0.95473 0.24469 0.0
C1476 C 0.70197 0.99742 0.23237 0.0
H1477 H 0.7247 0.05253 0.31899 0.0
H1478 H 0.71148 0.0278 0.30718 0.0
H1479 H 0.6968 0.02254 0.23223 0.0
H1480 H 0.732 0.95548 0.18472 0.0
H1481 H 0.71974 0.97983 0.19992 0.0
H1482 H 0.72168 0.97773 0.27521 0.0
C1483 C 0.71528 0.03617 0.29405 0.0
C1484 C 0.70206 0.01281 0.24193 0.0
C1485 C 0.72279 0.05039 0.30085 0.0
C1486 C 0.72603 0.95498 0.20122 0.0
C1487 C 0.71894 0.96891 0.20992 0.0
C1488 C 0.71572 0.98727 0.26593 0.0
C1489 C 0.71367 0.03234 0.27059 0.0
C1490 C 0.70975 0.01572 0.26307 0.0
C1491 C 0.71248 0.96912 0.23225 0.0
C1492 C 0.70932 0.98461 0.24394 0.0
H1493 H 0.72977 0.06615 0.24772 0.0
H1494 H 0.71742 0.04135 0.23599 0.0
H1495 H 0.72222 0.00431 0.29146 0.0
H1496 H 0.71908 0.93024 0.24678 0.0
H1497 H 0.70656 0.95444 0.26174 0.0
C1498 C 0.05923 0.72157 0.23754 0.0
C1499 C 0.05893 0.72901 0.21588 0.0
C1500 C 0.04533 0.71496 0.24684 0.0
C1501 C 0.00234 0.7058 0.23601 0.0
H1502 H 0.99653 0.72731 0.29444 0.0
C1503 C 0.94228 0.73045 0.26557 0.0
C1504 C 0.93934 0.73352 0.28895 0.0
C1505 C 0.9565 0.7232 0.25857 0.0
C1506 C -0.00207 0.72075 0.27852 0.0
H1507 H 0.04428 0.73381 0.18593 0.0
H1508 H 0.01987 0.72249 0.20233 0.0
H1509 H 0.02289 0.72605 0.27748 0.0
H1510 H 0.94837 0.72984 0.32348 0.0
H1511 H 0.97312 0.71679 0.31126 0.0
H1512 H 0.97715 0.70104 0.23676 0.0
C1513 C 0.03088 0.72167 0.21209 0.0
C1514 C 0.01314 0.72006 0.26871 0.0
C1515 C 0.04486 0.72821 0.20269 0.0
C1516 C 0.95036 0.72788 0.30531 0.0
C1517 C 0.96459 0.72046 0.29828 0.0
C1518 C 0.98709 0.70634 0.24597 0.0
C1519 C 0.03081 0.71575 0.23473 0.0
C1520 C 0.01541 0.71316 0.24693 0.0
C1521 C 0.96813 0.71867 0.27476 0.0
C1522 C 0.98458 0.71447 0.26688 0.0
H1523 H 0.06999 0.72173 0.24794 0.0
H1524 H 0.04572 0.71016 0.26412 0.0
H1525 H 0.00379 0.70021 0.21935 0.0
H1526 H 0.93399 0.73443 0.25245 0.0
H1527 H 0.95877 0.7222 0.24032 0.0
C1528 C 0.73099 0.95608 0.8024 0.0
C1529 C 0.72808 0.94136 0.79161 0.0
C1530 C 0.72389 0.97007 0.79403 0.0
C1531 C 0.70756 0.98502 0.73877 0.0
H1532 H 0.70844 0.02474 0.77302 0.0
C1533 C 0.72824 0.04318 0.698 0.0
C1534 C 0.72558 0.05782 0.70915 0.0
C1535 C 0.72156 0.02909 0.70667 0.0
C1536 C 0.70766 0.01384 0.76302 0.0
H1537 H 0.71418 0.92928 0.76544 0.0
H1538 H 0.70087 0.95347 0.75182 0.0
H1539 H 0.70819 -0.00041 0.79345 0.0
H1540 H 0.71231 0.06964 0.73624 0.0
H1541 H 0.69971 0.04525 0.75047 0.0
H1542 H 0.70646 -0.00074 0.70837 0.0
C1543 C 0.70928 0.95449 0.76589 0.0
C1544 C 0.70786 -0.00071 0.77487 0.0
C1545 C 0.71676 0.94058 0.77384 0.0
C1546 C 0.71472 0.05842 0.72754 0.0
C1547 C 0.70766 0.04439 0.73584 0.0
C1548 C 0.70688 -0.00044 0.72695 0.0
C1549 C 0.71342 0.96957 0.775 0.0
C1550 C 0.70883 0.98468 0.7629 0.0
C1551 C 0.71174 0.02939 0.72639 0.0
C1552 C 0.70794 0.01419 0.73883 0.0
H1553 H 0.73977 0.95699 0.81604 0.0
H1554 H 0.72763 0.98133 0.80149 0.0
H1555 H 0.70822 0.97414 0.72871 0.0
H1556 H 0.73664 0.04238 0.68385 0.0
H1557 H 0.7252 0.0179 0.69889 0.0
C1558 C 0.95112 0.72733 0.69817 0.0
C1559 C 0.93975 0.73273 0.7142 0.0
C1560 C 0.96548 0.72039 0.70563 0.0
C1561 C 0.98795 0.70753 0.75867 0.0
H1562 H 0.02325 0.72841 0.72757 0.0
C1563 C 0.04487 0.73123 0.80271 0.0
C1564 C 0.059 0.73228 0.78971 0.0
C1565 C 0.03106 0.72444 0.79312 0.0
C1566 C 0.01365 0.72212 0.73624 0.0
H1567 H 0.93389 0.73357 0.75054 0.0
H1568 H 0.95887 0.72216 0.76342 0.0
H1569 H 0.99703 0.72854 0.71009 0.0
H1570 H 0.07038 0.72529 0.75775 0.0
H1571 H 0.04644 0.71328 0.74125 0.0
H1572 H 0.00462 0.70222 0.78569 0.0
C1573 C 0.95681 0.72301 0.7451 0.0
C1574 C -0.00148 0.72215 0.72613 0.0
C1575 C 0.94245 0.72978 0.73767 0.0
C1576 C 0.05955 0.72494 0.76799 0.0
C1577 C 0.04584 0.71807 0.75852 0.0
C1578 C 0.00311 0.70766 0.76894 0.0
C1579 C 0.96881 0.71885 0.72926 0.0
C1580 C 0.98533 0.7154 0.73758 0.0
C1581 C 0.03125 0.71852 0.77048 0.0
C1582 C 0.016 0.71543 0.75814 0.0
H1583 H 0.94933 0.7292 0.67994 0.0
H1584 H 0.9743 0.71696 0.69291 0.0
H1585 H 0.97813 0.70191 0.76777 0.0
H1586 H 0.04411 0.73676 0.81951 0.0
H1587 H 0.01998 0.72501 0.80276 0.0
C1588 C 0.26729 0.95135 0.70066 0.0
C1589 C 0.26631 0.93718 0.71361 0.0
C1590 C 0.27392 0.9652 0.71035 0.0
C1591 C 0.27557 0.98252 0.76725 0.0
H1592 H 0.29568 0.01835 0.7363 0.0
C1593 C 0.26888 0.04492 0.80526 0.0
C1594 C 0.26359 0.05624 0.78909 0.0
C1595 C 0.27616 0.03067 0.79798 0.0
C1596 C 0.29007 0.00845 0.74523 0.0
H1597 H 0.27329 0.9258 0.74557 0.0
H1598 H 0.285 0.94984 0.76226 0.0
H1599 H 0.29588 0.99188 0.71829 0.0
H1600 H 0.26333 0.0622 0.75275 0.0
H1601 H 0.2753 0.0374 0.74018 0.0
H1602 H 0.26863 -0.00098 0.79328 0.0
C1603 C 0.2803 0.95041 0.74494 0.0
C1604 C 0.29024 0.9933 0.73492 0.0
C1605 C 0.2736 0.93665 0.73536 0.0
C1606 C 0.26702 0.05365 0.76573 0.0
C1607 C 0.27411 0.03941 0.75847 0.0
C1608 C 0.27523 0.99764 0.7774 0.0
C1609 C 0.27974 0.96503 0.73305 0.0
C1610 C 0.28253 0.9803 0.7455 0.0
C1611 C 0.27814 0.02742 0.7744 0.0
C1612 C 0.28193 0.01095 0.76614 0.0
H1613 H 0.2618 0.9521 0.68384 0.0
H1614 H 0.27327 0.9763 0.70077 0.0
H1615 H 0.26932 0.97282 0.77576 0.0
H1616 H 0.26665 0.04663 0.82342 0.0
H1617 H 0.2795 0.02188 0.81079 0.0
C1618 C 0.9411 0.26662 0.76656 0.0
C1619 C 0.9382 0.26365 0.78997 0.0
C1620 C 0.95517 0.27409 0.75947 0.0
C1621 C 0.99653 0.27736 0.77933 0.0
H1622 H 0.00196 0.29754 0.71981 0.0
C1623 C 0.05758 0.2764 0.73773 0.0
C1624 C 0.05712 0.26872 0.71625 0.0
C1625 C 0.04374 0.28315 0.74704 0.0
C1626 C 0.00064 0.29206 0.73657 0.0
H1627 H 0.94714 0.26773 0.82446 0.0
H1628 H 0.97166 0.28114 0.81207 0.0
H1629 H 0.97539 0.29653 0.73741 0.0
H1630 H 0.04229 0.26366 0.68657 0.0
H1631 H 0.01801 0.27521 0.70301 0.0
H1632 H 0.02155 0.27233 0.77818 0.0
C1633 C 0.96319 0.27723 0.79914 0.0
C1634 C 0.98543 0.29142 0.74664 0.0
C1635 C 0.9491 0.26961 0.80627 0.0
C1636 C 0.04299 0.26944 0.7032 0.0
C1637 C 0.02908 0.27612 0.71261 0.0
C1638 C 0.0117 0.27816 0.7694 0.0
C1639 C 0.96671 0.27894 0.7756 0.0
C1640 C 0.98308 0.28338 0.76766 0.0
C1641 C 0.02915 0.28226 0.73514 0.0
C1642 C 0.01382 0.2849 0.74749 0.0
H1643 H 0.93289 0.2624 0.75348 0.0
H1644 H 0.95743 0.27501 0.7412 0.0
H1645 H 0.99526 0.27089 0.79534 0.0
H1646 H 0.06839 0.27631 0.74801 0.0
H1647 H 0.04424 0.28812 0.76422 0.0
C1648 C 0.77445 0.55965 0.73813 0.0
C1649 C 0.76739 0.55939 0.7162 0.0
C1650 C 0.78106 0.54577 0.74751 0.0
C1651 C 0.77637 0.51329 0.76887 0.0
H1652 H 0.79701 0.47808 0.73718 0.0
C1653 C 0.77037 0.45016 0.80501 0.0
C1654 C 0.76529 0.43901 0.78846 0.0
C1655 C 0.77737 0.46466 0.79821 0.0
C1656 C 0.79125 0.4878 0.74632 0.0
H1657 H 0.7632 0.54481 0.68599 0.0
H1658 H 0.77454 0.52042 0.70254 0.0
H1659 H 0.79713 0.5048 0.71996 0.0
H1660 H 0.76508 0.43367 0.75193 0.0
H1661 H 0.77662 0.45887 0.7402 0.0
H1662 H 0.7694 0.49635 0.79432 0.0
C1663 C 0.77506 0.53141 0.71243 0.0
C1664 C 0.79138 0.5031 0.73646 0.0
C1665 C 0.7685 0.54537 0.70295 0.0
C1666 C 0.76861 0.44207 0.76518 0.0
C1667 C 0.77546 0.45654 0.75842 0.0
C1668 C 0.77609 0.49802 0.77857 0.0
C1669 C 0.78067 0.5313 0.73523 0.0
C1670 C 0.78347 0.51588 0.7473 0.0
C1671 C 0.77933 0.46832 0.77475 0.0
C1672 C 0.78299 0.48494 0.76702 0.0
H1673 H 0.77405 0.57037 0.7486 0.0
H1674 H 0.7856 0.54613 0.76494 0.0
H1675 H 0.76998 0.52282 0.77756 0.0
H1676 H 0.76819 0.44809 0.8231 0.0
H1677 H 0.78056 0.4733 0.81131 0.0
C1678 C 0.5432 0.76454 0.80412 0.0
C1679 C 0.55738 0.76364 0.79121 0.0
C1680 C 0.52932 0.7711 0.79441 0.0
C1681 C 0.51196 0.77294 0.7375 0.0
H1682 H 0.47629 0.79322 0.76856 0.0
C1683 C 0.44948 0.76711 0.69936 0.0
C1684 C 0.43812 0.76182 0.71548 0.0
C1685 C 0.46382 0.77415 0.70673 0.0
C1686 C 0.48614 0.78757 0.7596 0.0
H1687 H 0.56873 0.77065 0.75923 0.0
H1688 H 0.54465 0.78223 0.7425 0.0
H1689 H 0.50274 0.79317 0.78659 0.0
H1690 H 0.43223 0.76129 0.75182 0.0
H1691 H 0.45716 0.77286 0.76453 0.0
H1692 H 0.49542 0.76622 0.71141 0.0
C1693 C 0.54409 0.77752 0.75982 0.0
C1694 C 0.50129 0.78759 0.76993 0.0
C1695 C 0.55788 0.77089 0.76942 0.0
C1696 C 0.4408 0.76498 0.73889 0.0
C1697 C 0.45512 0.77185 0.74623 0.0
C1698 C 0.49685 0.77275 0.72734 0.0
C1699 C 0.52948 0.77694 0.77172 0.0
C1700 C 0.51423 0.77981 0.7593 0.0
C1701 C 0.46711 0.77591 0.73033 0.0
C1702 C 0.4836 0.77952 0.73864 0.0
H1703 H 0.54248 0.75908 0.82097 0.0
H1704 H 0.51822 0.77043 0.80399 0.0
H1705 H 0.52162 0.76664 0.72896 0.0
H1706 H 0.4477 0.76508 0.68117 0.0
H1707 H 0.47264 0.7775 0.69396 0.0
C1708 C 0.22628 0.44784 0.69571 0.0
C1709 C 0.23226 0.437 0.71207 0.0
C1710 C 0.21835 0.46179 0.70273 0.0
C1711 C 0.20325 0.48363 0.75508 0.0
H1712 H 0.22182 0.52021 0.72398 0.0
C1713 C 0.22438 0.54125 0.79901 0.0
C1714 C 0.22506 0.55541 0.78602 0.0
C1715 C 0.21774 0.52735 0.78953 0.0
C1716 C 0.21613 0.51022 0.73263 0.0
H1717 H 0.23329 0.43165 0.74857 0.0
H1718 H 0.22015 0.45595 0.76069 0.0
H1719 H 0.22389 0.49399 0.70671 0.0
H1720 H 0.21738 0.56678 0.75437 0.0
H1721 H 0.20563 0.54262 0.73805 0.0
H1722 H 0.19666 0.49997 0.78193 0.0
C1723 C 0.22128 0.45375 0.74244 0.0
C1724 C 0.21729 0.4951 0.72264 0.0
C1725 C 0.22905 0.43981 0.73544 0.0
C1726 C 0.21731 0.55593 0.76459 0.0
C1727 C 0.21059 0.5421 0.75522 0.0
C1728 C 0.20225 0.4988 0.76523 0.0
C1729 C 0.21634 0.46523 0.72626 0.0
C1730 C 0.21148 0.48149 0.73418 0.0
C1731 C 0.2116 0.52746 0.76701 0.0
C1732 C 0.20922 0.51215 0.75448 0.0
H1733 H 0.22834 0.44593 0.67755 0.0
H1734 H 0.2144 0.47021 0.68976 0.0
H1735 H 0.19829 0.47347 0.7642 0.0
H1736 H 0.23023 0.54052 0.81558 0.0
H1737 H 0.21874 0.51624 0.79905 0.0
C1738 C 0.4361 0.2142 0.76337 0.0
C1739 C 0.43628 0.22167 0.78502 0.0
C1740 C 0.45005 0.20756 0.75426 0.0
C1741 C 0.49306 0.19861 0.76563 0.0
H1742 H 0.49915 0.22058 0.70762 0.0
C1743 C 0.55305 0.22439 0.73774 0.0
C1744 C 0.55609 0.22785 0.71451 0.0
C1745 C 0.53891 0.21678 0.74431 0.0
C1746 C 0.49769 0.21388 0.72341 0.0
H1747 H 0.45077 0.22638 0.81518 0.0
H1748 H 0.47523 0.215 0.79913 0.0
H1749 H 0.47265 0.21884 0.72401 0.0
H1750 H 0.54742 0.22441 0.67974 0.0
H1751 H 0.52287 0.2107 0.69118 0.0
H1752 H 0.51833 0.1942 0.76535 0.0
C1753 C 0.46428 0.2142 0.78921 0.0
C1754 C 0.4824 0.21292 0.7329 0.0
C1755 C 0.45026 0.22078 0.79841 0.0
C1756 C 0.54534 0.22217 0.69782 0.0
C1757 C 0.53121 0.21438 0.7044 0.0
C1758 C 0.5084 0.19941 0.75599 0.0
C1759 C 0.4645 0.20832 0.76656 0.0
C1760 C 0.48 0.20587 0.75455 0.0
C1761 C 0.52749 0.21225 0.72781 0.0
C1762 C 0.51102 0.20773 0.73526 0.0
H1763 H 0.42542 0.21442 0.7528 0.0
H1764 H 0.44979 0.2028 0.73695 0.0
H1765 H 0.49154 0.1929 0.7822 0.0
H1766 H 0.56113 0.2284 0.75111 0.0
H1767 H 0.5365 0.21552 0.76249 0.0
C1768 C 0.22557 0.54175 0.20041 0.0
C1769 C 0.22678 0.55568 0.21382 0.0
C1770 C 0.21831 0.528 0.20941 0.0
C1771 C 0.21542 0.51001 0.2657 0.0
H1772 H 0.19575 0.47483 0.2327 0.0
C1773 C 0.22214 0.4468 0.30074 0.0
C1774 C 0.22773 0.43596 0.2841 0.0
C1775 C 0.21479 0.46114 0.29407 0.0
C1776 C 0.20121 0.48455 0.24222 0.0
H1777 H 0.21951 0.56686 0.24581 0.0
H1778 H 0.20672 0.54298 0.26132 0.0
H1779 H 0.19578 0.50165 0.2158 0.0
H1780 H 0.22853 0.431 0.24748 0.0
H1781 H 0.21643 0.45598 0.23597 0.0
H1782 H 0.22203 0.49298 0.29119 0.0
C1783 C 0.21172 0.5425 0.24416 0.0
C1784 C 0.20117 0.4999 0.23254 0.0
C1785 C 0.21905 0.55617 0.23526 0.0
C1786 C 0.22459 0.43915 0.26081 0.0
C1787 C 0.21742 0.45349 0.25417 0.0
C1788 C 0.21562 0.49469 0.27522 0.0
C1789 C 0.21208 0.52803 0.23188 0.0
C1790 C 0.20881 0.51266 0.24382 0.0
C1791 C 0.21302 0.46499 0.27064 0.0
C1792 C 0.20914 0.48162 0.26317 0.0
H1793 H 0.23137 0.54104 0.1838 0.0
H1794 H 0.21883 0.51701 0.19953 0.0
H1795 H 0.22159 0.51951 0.27475 0.0
H1796 H 0.22413 0.4446 0.31885 0.0
H1797 H 0.21119 0.46955 0.30726 0.0
C1798 C 0.55491 0.22514 0.26373 0.0
C1799 C 0.5578 0.22865 0.28699 0.0
C1800 C 0.54067 0.21783 0.25694 0.0
C1801 C 0.49925 0.21637 0.27718 0.0
H1802 H 0.4928 0.19578 0.21817 0.0
C1803 C 0.43792 0.21854 0.23632 0.0
C1804 C 0.43836 0.22589 0.2146 0.0
C1805 C 0.45167 0.21165 0.24565 0.0
C1806 C 0.49441 0.20139 0.23479 0.0
H1807 H 0.54877 0.22547 0.32162 0.0
H1808 H 0.52403 0.21226 0.30982 0.0
H1809 H 0.51948 0.19601 0.23549 0.0
H1810 H 0.4531 0.23028 0.18462 0.0
H1811 H 0.47728 0.21849 0.20108 0.0
H1812 H 0.47442 0.22227 0.27617 0.0
C1813 C 0.53258 0.2157 0.29673 0.0
C1814 C 0.50968 0.20158 0.2447 0.0
C1815 C 0.54681 0.2232 0.30352 0.0
C1816 C 0.45241 0.22477 0.20143 0.0
C1817 C 0.46625 0.21794 0.21085 0.0
C1818 C 0.48402 0.21602 0.26742 0.0
C1819 C 0.52899 0.21366 0.27326 0.0
C1820 C 0.51243 0.20973 0.26553 0.0
C1821 C 0.4662 0.21207 0.23352 0.0
C1822 C 0.48154 0.20911 0.24569 0.0
H1823 H 0.56319 0.22895 0.25048 0.0
H1824 H 0.5384 0.2166 0.23873 0.0
H1825 H 0.50082 0.22297 0.29303 0.0
H1826 H 0.42716 0.21894 0.24672 0.0
H1827 H 0.45119 0.20691 0.26296 0.0
C1828 C 0.77582 0.55975 0.26882 0.0
C1829 C 0.76811 0.55938 0.29028 0.0
C1830 C 0.78278 0.54593 0.2598 0.0
C1831 C 0.79246 0.50308 0.27114 0.0
H1832 H 0.77217 0.49691 0.21191 0.0
C1833 C 0.76917 0.44268 0.24057 0.0
C1834 C 0.76632 0.43988 0.2171 0.0
C1835 C 0.77628 0.4569 0.24787 0.0
C1836 C 0.77841 0.49841 0.22806 0.0
H1837 H 0.76313 0.54473 0.32017 0.0
H1838 H 0.77502 0.52044 0.3042 0.0
H1839 H 0.77267 0.52328 0.22887 0.0
H1840 H 0.77045 0.44905 0.18275 0.0
H1841 H 0.78331 0.47375 0.19549 0.0
H1842 H 0.79764 0.47795 0.27061 0.0
C1843 C 0.77581 0.53144 0.29441 0.0
C1844 C 0.77865 0.51363 0.23788 0.0
C1845 C 0.76893 0.54535 0.30355 0.0
C1846 C 0.7722 0.45094 0.20098 0.0
C1847 C 0.7795 0.46515 0.20831 0.0
C1848 C 0.79236 0.48781 0.26118 0.0
C1849 C 0.78206 0.53142 0.27195 0.0
C1850 C 0.7851 0.51603 0.25992 0.0
C1851 C 0.78091 0.46865 0.2319 0.0
C1852 C 0.78469 0.48516 0.23996 0.0
H1853 H 0.77565 0.5705 0.25838 0.0
H1854 H 0.78782 0.54636 0.24266 0.0
H1855 H 0.79771 0.50462 0.28801 0.0
H1856 H 0.76499 0.43435 0.25352 0.0
H1857 H 0.77702 0.45911 0.26616 0.0
C1858 C 0.43974 0.76743 0.2668 0.0
C1859 C 0.43685 0.76409 0.29011 0.0
C1860 C 0.45399 0.77467 0.2599 0.0
C1861 C 0.49545 0.7765 0.28003 0.0
H1862 H 0.50171 0.79699 0.2209 0.0
C1863 C 0.55695 0.77538 0.23957 0.0
C1864 C 0.55674 0.76793 0.21792 0.0
C1865 C 0.54302 0.78201 0.24874 0.0
C1866 C 0.50015 0.79141 0.23755 0.0
H1867 H 0.44592 0.76743 0.32469 0.0
H1868 H 0.47068 0.78053 0.31267 0.0
H1869 H 0.47502 0.79648 0.23817 0.0
H1870 H 0.54221 0.7631 0.18786 0.0
H1871 H 0.51773 0.77446 0.20404 0.0
H1872 H 0.52036 0.77094 0.27913 0.0
C1873 C 0.46212 0.77702 0.29964 0.0
C1874 C 0.48487 0.79106 0.24743 0.0
C1875 C 0.44788 0.76958 0.30656 0.0
C1876 C 0.54272 0.76871 0.20462 0.0
C1877 C 0.52871 0.77527 0.21389 0.0
C1878 C 0.51069 0.77703 0.2703 0.0
C1879 C 0.46568 0.77895 0.27614 0.0
C1880 C 0.4822 0.78295 0.26833 0.0
C1881 C 0.52855 0.78123 0.23651 0.0
C1882 C 0.51311 0.78392 0.24855 0.0
H1883 H 0.43144 0.76357 0.25361 0.0
H1884 H 0.45624 0.77581 0.24166 0.0
H1885 H 0.49394 0.76994 0.29592 0.0
H1886 H 0.56768 0.77524 0.25006 0.0
H1887 H 0.54333 0.78682 0.26601 0.0
C1888 C 0.18813 0.12751 0.19007 0.0
C1889 C 0.19751 0.11615 0.2018 0.0
C1890 C 0.17758 0.13746 0.20215 0.0
C1891 C 0.171 0.15533 0.2585 0.0
H1892 H 0.12645 0.15857 0.24037 0.0
C1893 C 0.12484 0.18902 0.31438 0.0
C1894 C 0.1129 0.19782 0.30298 0.0
C1895 C 0.13494 0.17873 0.3021 0.0
C1896 C 0.1389 0.15803 0.2455 0.0
H1897 H 0.20267 0.10602 0.23535 0.0
H1898 H 0.18475 0.1237 0.25632 0.0
H1899 H 0.14472 0.14192 0.21805 0.0
H1900 H 0.10188 0.20223 0.26982 0.0
H1901 H 0.11988 0.18511 0.2484 0.0
H1902 H 0.16545 0.17173 0.28552 0.0
C1903 C 0.18566 0.12496 0.23784 0.0
C1904 C 0.14933 0.14844 0.23271 0.0
C1905 C 0.19598 0.11487 0.22578 0.0
C1906 C 0.11113 0.1959 0.27914 0.0
C1907 C 0.12134 0.18583 0.26685 0.0
C1908 C 0.16065 0.16512 0.27108 0.0
C1909 C 0.17638 0.13635 0.22617 0.0
C1910 C 0.16544 0.14695 0.23917 0.0
C1911 C 0.13342 0.17712 0.27812 0.0
C1912 C 0.14443 0.16656 0.26482 0.0
H1913 H 0.18896 0.12874 0.17159 0.0
H1914 H 0.17053 0.14618 0.19278 0.0
H1915 H 0.18343 0.15446 0.2637 0.0
H1916 H 0.12643 0.1901 0.33277 0.0
H1917 H 0.14388 0.17198 0.31148 0.0
C1918 C 0.87028 0.19361 0.18789 0.0
C1919 C 0.88121 0.20306 0.20025 0.0
C1920 C 0.8604 0.18266 0.19932 0.0
C1921 C 0.85582 0.16126 0.25515 0.0
H1922 H 0.81179 0.15646 0.23513 0.0
C1923 C 0.8068 0.12949 0.30902 0.0
C1924 C 0.79719 0.11846 0.29707 0.0
C1925 C 0.81745 0.13943 0.29713 0.0
C1926 C 0.8241 0.15762 0.2408 0.0
H1927 H 0.89069 0.20801 0.23422 0.0
H1928 H 0.87311 0.18959 0.25413 0.0
H1929 H 0.82967 0.17436 0.21419 0.0
H1930 H 0.79171 0.10884 0.26332 0.0
H1931 H 0.80993 0.12641 0.24267 0.0
H1932 H 0.85002 0.14479 0.28214 0.0
C1933 C 0.87228 0.19036 0.2356 0.0
C1934 C 0.83438 0.1678 0.22875 0.0
C1935 C 0.88223 0.20114 0.22418 0.0
C1936 C 0.79863 0.11743 0.27305 0.0
C1937 C 0.8091 0.12747 0.26118 0.0
C1938 C 0.84548 0.15124 0.26736 0.0
C1939 C 0.8612 0.18099 0.22337 0.0
C1940 C 0.85037 0.16977 0.23578 0.0
C1941 C 0.81858 0.13859 0.27307 0.0
C1942 C 0.82953 0.14932 0.26029 0.0
H1943 H 0.8693 0.1947 0.16941 0.0
H1944 H 0.8522 0.17544 0.18929 0.0
H1945 H 0.86814 0.16224 0.26082 0.0
H1946 H 0.80603 0.13053 0.32753 0.0
H1947 H 0.8246 0.14796 0.30669 0.0
C1948 C 0.86721 0.80799 0.31608 0.0
C1949 C 0.87888 0.79925 0.30399 0.0
C1950 C 0.85694 0.81848 0.30443 0.0
C1951 C 0.83891 0.82534 0.24833 0.0
H1952 H 0.8338 0.86944 0.2679 0.0
C1953 C 0.80409 0.87107 0.19333 0.0
C1954 C 0.79478 0.88256 0.20485 0.0
C1955 C 0.81455 0.86114 0.20556 0.0
C1956 C 0.83486 0.8571 0.26237 0.0
H1957 H 0.8893 0.79521 0.27031 0.0
H1958 H 0.87109 0.813 0.25005 0.0
H1959 H 0.85112 0.85149 0.28974 0.0
H1960 H 0.78959 0.89294 0.2382 0.0
H1961 H 0.80706 0.87519 0.25953 0.0
H1962 H 0.82239 0.83066 0.22137 0.0
C1963 C 0.86982 0.81164 0.26847 0.0
C1964 C 0.84483 0.84686 0.27488 0.0
C1965 C 0.88021 0.8014 0.28012 0.0
C1966 C 0.79633 0.88404 0.22878 0.0
C1967 C 0.80659 0.87398 0.24103 0.0
C1968 C 0.82874 0.83549 0.23602 0.0
C1969 C 0.85806 0.82023 0.28048 0.0
C1970 C 0.84702 0.83093 0.26786 0.0
C1971 C 0.81584 0.86237 0.22961 0.0
C1972 C 0.82665 0.85154 0.24279 0.0
H1973 H 0.86594 0.80668 0.3345 0.0
H1974 H 0.84794 0.82499 0.31405 0.0
H1975 H 0.8403 0.81304 0.24271 0.0
H1976 H 0.8033 0.86973 0.17486 0.0
H1977 H 0.82172 0.85258 0.19608 0.0
C1978 C 0.19194 0.86893 0.31261 0.0
C1979 C 0.20146 0.88002 0.30064 0.0
C1980 C 0.18126 0.859 0.30076 0.0
C1981 C 0.16088 0.8544 0.24408 0.0
H1982 H 0.15525 0.81053 0.26449 0.0
C1983 C 0.12937 0.80504 0.19017 0.0
C1984 C 0.11772 0.79609 0.20199 0.0
C1985 C 0.13936 0.81564 0.20208 0.0
C1986 C 0.15667 0.82279 0.25868 0.0
H1987 H 0.2068 0.88969 0.2669 0.0
H1988 H 0.18894 0.87197 0.24629 0.0
H1989 H 0.173 0.82834 0.2858 0.0
H1990 H 0.10708 0.79176 0.23546 0.0
H1991 H 0.12482 0.80979 0.25616 0.0
H1992 H 0.14484 0.84856 0.21656 0.0
C1993 C 0.18941 0.87107 0.26482 0.0
C1994 C 0.16675 0.83304 0.27096 0.0
C1995 C 0.1999 0.88111 0.27667 0.0
C1996 C 0.11616 0.79813 0.22586 0.0
C1997 C 0.12628 0.8085 0.23776 0.0
C1998 C 0.15099 0.84406 0.23162 0.0
C1999 C 0.17996 0.85985 0.27667 0.0
C2000 C 0.16898 0.84899 0.26385 0.0
C2001 C 0.138 0.81732 0.22602 0.0
C2002 C 0.14876 0.82819 0.23886 0.0
H2003 H 0.19276 0.8679 0.33111 0.0
H2004 H 0.17396 0.85072 0.31054 0.0
H2005 H 0.16203 0.86667 0.2383 0.0
H2006 H 0.13082 0.80381 0.17177 0.0
H2007 H 0.14835 0.82231 0.19265 0.0
C2008 C 0.86757 0.8066 0.68511 0.0
C2009 C 0.87944 0.79827 0.6974 0.0
C2010 C 0.85696 0.81686 0.69654 0.0
C2011 C 0.83861 0.82343 0.75255 0.0
H2012 H 0.83194 0.8672 0.73245 0.0
C2013 C 0.80367 0.86868 0.80799 0.0
C2014 C 0.794 0.88001 0.79677 0.0
C2015 C 0.81396 0.85879 0.79543 0.0
C2016 C 0.83343 0.85493 0.73811 0.0
H2017 H 0.88989 0.79479 0.73119 0.0
H2018 H 0.87112 0.8122 0.75107 0.0
H2019 H 0.84976 0.84969 0.71067 0.0
H2020 H 0.78782 0.89001 0.76352 0.0
H2021 H 0.80508 0.87233 0.74163 0.0
H2022 H 0.82208 0.82838 0.77963 0.0
C2023 C 0.86994 0.81068 0.73267 0.0
C2024 C 0.84369 0.84495 0.72564 0.0
C2025 C 0.88066 0.80066 0.72124 0.0
C2026 C 0.7949 0.88128 0.77274 0.0
C2027 C 0.80502 0.87125 0.76016 0.0
C2028 C 0.82818 0.83331 0.76481 0.0
C2029 C 0.85794 0.81879 0.72047 0.0
C2030 C 0.84648 0.82917 0.7329 0.0
C2031 C 0.81471 0.85988 0.77132 0.0
C2032 C 0.82556 0.84925 0.7579 0.0
H2033 H 0.86637 0.80509 0.66671 0.0
H2034 H 0.84778 0.82301 0.68678 0.0
H2035 H 0.84044 0.81122 0.75833 0.0
H2036 H 0.80337 0.8675 0.82651 0.0
H2037 H 0.82147 0.85043 0.8047 0.0
C2038 C 0.19408 0.88305 0.71921 0.0
C2039 C 0.20059 0.87777 0.69829 0.0
C2040 C 0.18383 0.87321 0.73179 0.0
C2041 C 0.17477 0.83203 0.7446 0.0
H2042 H 0.13301 0.84763 0.76358 0.0
C2043 C 0.13438 0.80117 0.81316 0.0
C2044 C 0.11894 0.79755 0.8051 0.0
C2045 C 0.14455 0.81101 0.80023 0.0
C2046 C 0.14466 0.84318 0.75843 0.0
H2047 H 0.20158 0.85806 0.67411 0.0
H2048 H 0.18384 0.84055 0.69661 0.0
H2049 H 0.15029 0.8646 0.73979 0.0
H2050 H 0.10185 0.80164 0.77767 0.0
H2051 H 0.11942 0.81921 0.75555 0.0
H2052 H 0.16924 0.81072 0.76367 0.0
C2053 C 0.18661 0.85242 0.70301 0.0
C2054 C 0.15451 0.85284 0.74488 0.0
C2055 C 0.19664 0.86244 0.69013 0.0
C2056 C 0.11372 0.80421 0.78425 0.0
C2057 C 0.12372 0.81429 0.77163 0.0
C2058 C 0.16504 0.82248 0.75857 0.0
C2059 C 0.18013 0.85777 0.72393 0.0
C2060 C 0.1696 0.84732 0.73777 0.0
C2061 C 0.13926 0.81764 0.77938 0.0
C2062 C 0.14988 0.82796 0.76548 0.0
H2063 H 0.1969 0.89484 0.72588 0.0
H2064 H 0.17902 0.87755 0.74791 0.0
H2065 H 0.18643 0.8276 0.73945 0.0
H2066 H 0.13872 0.7961 0.82912 0.0
H2067 H 0.1565 0.81351 0.80655 0.0
C2068 C 0.1261 0.19113 0.69166 0.0
C2069 C 0.11486 0.20062 0.70343 0.0
C2070 C 0.13584 0.18035 0.70367 0.0
C2071 C 0.15325 0.17312 0.76024 0.0
H2072 H 0.15687 0.12889 0.74062 0.0
C2073 C 0.18705 0.12613 0.81464 0.0
C2074 C 0.19613 0.11464 0.80276 0.0
C2075 C 0.17666 0.13635 0.80274 0.0
C2076 C 0.15621 0.14126 0.74618 0.0
H2077 H 0.10469 0.20573 0.73696 0.0
H2078 H 0.12197 0.18737 0.75783 0.0
H2079 H 0.14025 0.14745 0.71871 0.0
H2080 H 0.201 0.10455 0.76913 0.0
H2081 H 0.18365 0.12273 0.7484 0.0
H2082 H 0.16949 0.16719 0.78731 0.0
C2083 C 0.12332 0.18838 0.73938 0.0
C2084 C 0.14664 0.15185 0.73363 0.0
C2085 C 0.11346 0.19895 0.72738 0.0
C2086 C 0.19442 0.11343 0.77882 0.0
C2087 C 0.18424 0.12374 0.76691 0.0
C2088 C 0.163 0.16261 0.77261 0.0
C2089 C 0.13462 0.179 0.72767 0.0
C2090 C 0.14505 0.16786 0.74059 0.0
C2091 C 0.17523 0.13537 0.77867 0.0
C2092 C 0.1646 0.14652 0.76577 0.0
H2093 H 0.12742 0.19207 0.6732 0.0
H2094 H 0.1445 0.17325 0.69426 0.0
H2095 H 0.15232 0.18547 0.76584 0.0
H2096 H 0.18798 0.12727 0.83312 0.0
H2097 H 0.1697 0.14495 0.81244 0.0
C2098 C 0.88029 0.19474 0.78258 0.0
C2099 C 0.87828 0.19764 0.80617 0.0
C2100 C 0.8701 0.18429 0.77094 0.0
C2101 C 0.8304 0.16465 0.77543 0.0
H2102 H 0.8468 0.13931 0.72475 0.0
C2103 C 0.79367 0.11567 0.72885 0.0
C2104 C 0.79351 0.11655 0.70473 0.0
C2105 C 0.80402 0.1253 0.74166 0.0
C2106 C 0.84206 0.1464 0.73878 0.0
H2107 H 0.86434 0.19135 0.83626 0.0
H2108 H 0.84682 0.17262 0.81607 0.0
H2109 H 0.8651 0.15585 0.74712 0.0
H2110 H 0.80437 0.128 0.67513 0.0
H2111 H 0.82273 0.14462 0.69759 0.0
H2112 H 0.80739 0.15478 0.76726 0.0
C2113 C 0.85599 0.17884 0.8064 0.0
C2114 C 0.85251 0.15593 0.75158 0.0
C2115 C 0.86611 0.18948 0.81803 0.0
C2116 C 0.80414 0.12709 0.69368 0.0
C2117 C 0.81468 0.13655 0.7065 0.0
C2118 C 0.81999 0.15493 0.76282 0.0
C2119 C 0.85779 0.17621 0.78264 0.0
C2120 C 0.84679 0.16534 0.76991 0.0
C2121 C 0.81464 0.1358 0.73061 0.0
C2122 C 0.82571 0.14585 0.74424 0.0
H2123 H 0.8897 0.20057 0.77295 0.0
H2124 H 0.87175 0.1828 0.75262 0.0
H2125 H 0.8255 0.1719 0.78916 0.0
H2126 H 0.7859 0.10748 0.73795 0.0
H2127 H 0.80391 0.12435 0.76021 0.0
C2128 C 0.69584 0.61437 0.72305 0.0
C2129 C 0.70181 0.61905 0.70155 0.0
C2130 C 0.68599 0.62459 0.73568 0.0
C2131 C 0.66092 0.66131 0.73056 0.0
H2132 H 0.66335 0.65976 0.79702 0.0
C2133 C 0.6142 0.69334 0.78642 0.0
C2134 C 0.61898 0.70001 0.80744 0.0
C2135 C 0.62464 0.6837 0.77385 0.0
C2136 C 0.66264 0.66056 0.77849 0.0
H2137 H 0.70225 0.63812 0.67633 0.0
H2138 H 0.68554 0.65635 0.69876 0.0
H2139 H 0.68129 0.64332 0.77429 0.0
H2140 H 0.63843 0.70191 0.83188 0.0
H2141 H 0.65702 0.68555 0.80951 0.0
H2142 H 0.64286 0.67917 0.73473 0.0
C2143 C 0.68806 0.64457 0.70566 0.0
C2144 C 0.67277 0.65088 0.76538 0.0
C2145 C 0.69768 0.63417 0.6928 0.0
C2146 C 0.63441 0.69678 0.8158 0.0
C2147 C 0.64502 0.68735 0.80297 0.0
C2148 C 0.65099 0.67121 0.74365 0.0
C2149 C 0.68212 0.63994 0.72734 0.0
C2150 C 0.67189 0.65092 0.74123 0.0
C2151 C 0.64029 0.68074 0.78174 0.0
C2152 C 0.65151 0.67079 0.76782 0.0
H2153 H 0.6987 0.6027 0.73011 0.0
H2154 H 0.68134 0.62036 0.75193 0.0
H2155 H 0.65974 0.66163 0.71205 0.0
H2156 H 0.60229 0.69551 0.77968 0.0
H2157 H 0.62035 0.67849 0.75797 0.0
C2158 C 0.30316 0.62386 0.80967 0.0
C2159 C 0.29379 0.61247 0.79802 0.0
C2160 C 0.31386 0.63361 0.79757 0.0
C2161 C 0.32061 0.65126 0.74129 0.0
H2162 H 0.36495 0.65512 0.76022 0.0
C2163 C 0.36655 0.68709 0.68764 0.0
C2164 C 0.37808 0.69595 0.69975 0.0
C2165 C 0.35658 0.67627 0.69919 0.0
C2166 C 0.35256 0.65439 0.75487 0.0
H2167 H 0.28885 0.60199 0.76462 0.0
H2168 H 0.30705 0.61937 0.74356 0.0
H2169 H 0.34681 0.63795 0.78194 0.0
H2170 H 0.38849 0.70001 0.73341 0.0
H2171 H 0.3707 0.68201 0.75357 0.0
H2172 H 0.32606 0.66805 0.71472 0.0
C2173 C 0.30601 0.6208 0.762 0.0
C2174 C 0.34221 0.6445 0.76729 0.0
C2175 C 0.29554 0.61089 0.7741 0.0
C2176 C 0.37956 0.69363 0.72355 0.0
C2177 C 0.36948 0.68305 0.73512 0.0
C2178 C 0.33088 0.66136 0.72908 0.0
C2179 C 0.31523 0.63227 0.7736 0.0
C2180 C 0.32616 0.64285 0.7606 0.0
C2181 C 0.35784 0.67421 0.72313 0.0
C2182 C 0.34699 0.66308 0.73571 0.0
H2183 H 0.30216 0.62532 0.8281 0.0
H2184 H 0.32085 0.64242 0.80687 0.0
H2185 H 0.30823 0.65025 0.73592 0.0
H2186 H 0.36521 0.68848 0.66924 0.0
H2187 H 0.34796 0.66947 0.68929 0.0
C2188 C 0.38066 0.29196 0.77239 0.0
C2189 C 0.37988 0.29099 0.79646 0.0
C2190 C 0.37082 0.30253 0.76034 0.0
C2191 C 0.33384 0.3269 0.76644 0.0
H2192 H 0.34974 0.34741 0.71115 0.0
C2193 C 0.30074 0.37856 0.72118 0.0
C2194 C 0.29839 0.37694 0.69738 0.0
C2195 C 0.31081 0.36809 0.73299 0.0
C2196 C 0.34513 0.34166 0.72646 0.0
H2197 H 0.36847 0.30078 0.82682 0.0
H2198 H 0.35166 0.31969 0.80585 0.0
H2199 H 0.36727 0.32963 0.73292 0.0
H2200 H 0.30526 0.36337 0.66717 0.0
H2201 H 0.32322 0.34519 0.68789 0.0
H2202 H 0.31184 0.33937 0.7602 0.0
C2203 C 0.35953 0.31188 0.7962 0.0
C2204 C 0.35513 0.33142 0.73893 0.0
C2205 C 0.36926 0.30113 0.80826 0.0
C2206 C 0.30675 0.36488 0.68552 0.0
C2207 C 0.31704 0.35451 0.69734 0.0
C2208 C 0.32394 0.3373 0.75414 0.0
C2209 C 0.36012 0.31265 0.77205 0.0
C2210 C 0.34959 0.32385 0.75905 0.0
C2211 C 0.319 0.35592 0.72123 0.0
C2212 C 0.32948 0.34474 0.73402 0.0
H2213 H 0.38886 0.28455 0.76272 0.0
H2214 H 0.37148 0.30258 0.74177 0.0
H2215 H 0.32904 0.32107 0.78156 0.0
H2216 H 0.29484 0.38795 0.73079 0.0
H2217 H 0.31234 0.3696 0.75134 0.0
C2218 C 0.61344 0.29715 0.72705 0.0
C2219 C 0.61414 0.29608 0.70297 0.0
C2220 C 0.62376 0.30732 0.73899 0.0
C2221 C 0.64744 0.34368 0.73368 0.0
H2222 H 0.67175 0.32662 0.78492 0.0
C2223 C 0.69708 0.38035 0.77775 0.0
C2224 C 0.69942 0.37854 0.8015 0.0
C2225 C 0.68648 0.37041 0.76592 0.0
C2226 C 0.66487 0.33168 0.77093 0.0
H2227 H 0.62591 0.30529 0.67249 0.0
H2228 H 0.64377 0.32339 0.69345 0.0
H2229 H 0.65357 0.30918 0.76374 0.0
H2230 H 0.69203 0.36517 0.83162 0.0
H2231 H 0.67307 0.34816 0.81113 0.0
H2232 H 0.65829 0.36627 0.74111 0.0
C2233 C 0.63531 0.31614 0.703 0.0
C2234 C 0.65454 0.32164 0.75872 0.0
C2235 C 0.62512 0.30577 0.69104 0.0
C2236 C 0.69062 0.36678 0.81328 0.0
C2237 C 0.67983 0.35694 0.80147 0.0
C2238 C 0.6576 0.35379 0.74608 0.0
C2239 C 0.63481 0.31687 0.7271 0.0
C2240 C 0.64579 0.32754 0.73993 0.0
C2241 C 0.67771 0.35857 0.77759 0.0
C2242 C 0.66652 0.3479 0.7648 0.0
H2243 H 0.6049 0.29018 0.73679 0.0
H2244 H 0.62297 0.30786 0.75755 0.0
H2245 H 0.64066 0.34856 0.71944 0.0
H2246 H 0.70343 0.38944 0.76816 0.0
H2247 H 0.68537 0.37191 0.74752 0.0
C2248 C 0.36798 0.30185 0.18752 0.0
C2249 C 0.37955 0.29298 0.19962 0.0
C2250 C 0.35769 0.31229 0.19919 0.0
C2251 C 0.33943 0.31895 0.25528 0.0
H2252 H 0.33392 0.3629 0.23526 0.0
C2253 C 0.30343 0.36467 0.30898 0.0
C2254 C 0.29409 0.3759 0.29702 0.0
C2255 C 0.31414 0.35473 0.29719 0.0
C2256 C 0.3351 0.3506 0.24091 0.0
H2257 H 0.38975 0.28866 0.23337 0.0
H2258 H 0.3715 0.3064 0.25366 0.0
H2259 H 0.3516 0.34508 0.21381 0.0
H2260 H 0.28901 0.38575 0.2633 0.0
H2261 H 0.30691 0.36802 0.24275 0.0
H2262 H 0.32267 0.32419 0.28198 0.0
C2263 C 0.37032 0.30517 0.23521 0.0
C2264 C 0.34528 0.34044 0.22863 0.0
C2265 C 0.38075 0.29496 0.22354 0.0
C2266 C 0.29578 0.37707 0.27307 0.0
C2267 C 0.30629 0.36703 0.26127 0.0
C2268 C 0.32907 0.32903 0.26737 0.0
C2269 C 0.35867 0.31388 0.22318 0.0
C2270 C 0.34757 0.32455 0.23577 0.0
C2271 C 0.31564 0.35573 0.27314 0.0
C2272 C 0.3268 0.34501 0.26039 0.0
H2273 H 0.36681 0.30067 0.16907 0.0
H2274 H 0.34876 0.31888 0.18955 0.0
H2275 H 0.3409 0.30668 0.26099 0.0
H2276 H 0.30251 0.36357 0.32747 0.0
H2277 H 0.32135 0.34639 0.30699 0.0
C2278 C 0.61403 0.29866 0.27494 0.0
C2279 C 0.61517 0.29724 0.29895 0.0
C2280 C 0.62403 0.3091 0.26295 0.0
C2281 C 0.64766 0.34556 0.26882 0.0
H2282 H 0.67073 0.32982 0.21557 0.0
C2283 C 0.69686 0.3829 0.22521 0.0
C2284 C 0.69869 0.38192 0.20127 0.0
C2285 C 0.68634 0.37272 0.23674 0.0
C2286 C 0.66419 0.33451 0.23015 0.0
H2287 H 0.62741 0.30608 0.32927 0.0
H2288 H 0.64475 0.32463 0.30822 0.0
H2289 H 0.65302 0.31184 0.23667 0.0
H2290 H 0.69051 0.36979 0.17052 0.0
H2291 H 0.67168 0.3523 0.19057 0.0
H2292 H 0.65844 0.36829 0.26213 0.0
C2293 C 0.63617 0.31747 0.29876 0.0
C2294 C 0.65412 0.32417 0.2423 0.0
C2295 C 0.62628 0.30684 0.31077 0.0
C2296 C 0.68946 0.37075 0.18901 0.0
C2297 C 0.67876 0.36065 0.20054 0.0
C2298 C 0.65756 0.35596 0.25651 0.0
C2299 C 0.63522 0.31858 0.27471 0.0
C2300 C 0.64584 0.32958 0.26183 0.0
C2301 C 0.67714 0.36146 0.22459 0.0
C2302 C 0.66607 0.35054 0.23711 0.0
H2303 H 0.60537 0.29175 0.26531 0.0
H2304 H 0.62288 0.30992 0.24445 0.0
H2305 H 0.64123 0.35008 0.28362 0.0
H2306 H 0.70356 0.39152 0.2352 0.0
H2307 H 0.68563 0.37357 0.25526 0.0
C2308 C 0.69879 0.61663 0.27935 0.0
C2309 C 0.70066 0.61808 0.30324 0.0
C2310 C 0.68837 0.62669 0.26741 0.0
C2311 C 0.66625 0.66516 0.27287 0.0
H2312 H 0.64352 0.64908 0.21952 0.0
C2313 C 0.61505 0.69958 0.22829 0.0
C2314 C 0.61636 0.70141 0.20436 0.0
C2315 C 0.62535 0.68935 0.24017 0.0
C2316 C 0.6499 0.65373 0.23428 0.0
H2317 H 0.69257 0.63089 0.33347 0.0
H2318 H 0.67385 0.64808 0.31278 0.0
H2319 H 0.66083 0.63112 0.24132 0.0
H2320 H 0.62918 0.69347 0.17402 0.0
H2321 H 0.64699 0.67521 0.19486 0.0
H2322 H 0.65481 0.68765 0.26609 0.0
C2323 C 0.68088 0.63951 0.3031 0.0
C2324 C 0.65987 0.64348 0.24677 0.0
C2325 C 0.69152 0.62957 0.31503 0.0
C2326 C 0.62793 0.6924 0.19247 0.0
C2327 C 0.63808 0.68194 0.20435 0.0
C2328 C 0.65608 0.67532 0.26058 0.0
C2329 C 0.67926 0.63828 0.27909 0.0
C2330 C 0.66826 0.64908 0.26617 0.0
C2331 C 0.63697 0.68047 0.22834 0.0
C2332 C 0.64787 0.66971 0.24114 0.0
H2333 H 0.70539 0.60774 0.26972 0.0
H2334 H 0.68765 0.62549 0.24892 0.0
H2335 H 0.67273 0.67001 0.2874 0.0
H2336 H 0.60605 0.70598 0.23797 0.0
H2337 H 0.62408 0.68822 0.25862 0.0
C2338 C 0.29756 0.61098 0.22612 0.0
C2339 C 0.29568 0.61273 0.20227 0.0
C2340 C 0.30792 0.62095 0.23832 0.0
C2341 C 0.32945 0.65976 0.23382 0.0
H2342 H 0.3525 0.64346 0.28676 0.0
C2343 C 0.37998 0.69469 0.27886 0.0
C2344 C 0.37875 0.69623 0.30284 0.0
C2345 C 0.36989 0.68434 0.26685 0.0
C2346 C 0.34603 0.64817 0.27212 0.0
H2347 H 0.30372 0.62596 0.17237 0.0
H2348 H 0.3223 0.643 0.19351 0.0
H2349 H 0.33544 0.62547 0.26458 0.0
H2350 H 0.3663 0.68762 0.33313 0.0
H2351 H 0.34883 0.66917 0.31204 0.0
H2352 H 0.34051 0.68236 0.24109 0.0
C2353 C 0.31533 0.63426 0.20296 0.0
C2354 C 0.33621 0.6379 0.25942 0.0
C2355 C 0.30477 0.6244 0.19077 0.0
C2356 C 0.36749 0.68679 0.31464 0.0
C2357 C 0.35753 0.67621 0.30262 0.0
C2358 C 0.33945 0.66995 0.24632 0.0
C2359 C 0.31692 0.63276 0.22695 0.0
C2360 C 0.32773 0.64358 0.24014 0.0
C2361 C 0.35854 0.67506 0.27858 0.0
C2362 C 0.34779 0.66426 0.26561 0.0
H2363 H 0.291 0.60193 0.2355 0.0
H2364 H 0.30864 0.61953 0.25678 0.0
H2365 H 0.32289 0.66467 0.21941 0.0
H2366 H 0.38877 0.70144 0.26924 0.0
H2367 H 0.37109 0.68347 0.24836 0.0
loop_
_geom_bond_atom_site_label_1
_geom_bond_atom_site_label_2
_geom_bond_distance
_geom_bond_site_symmetry_2
_ccdc_geom_bond_type
Mg0 O1 2.028 . S
Mg0 O7 1.986 . S
Mg0 O9 2.114 . S
Mg0 O10 2.251 . S
Mg0 O13 2.010 . S
O1 Mg0 2.028 . S
O1 C4 1.250 . S
O2 Mg3 2.028 . S
O2 C4 1.248 . S
Mg3 O2 2.028 . S
Mg3 O8 2.032 . S
Mg3 O10 2.079 . S
C4 O1 1.250 . S
C4 O2 1.248 . S
C5 O6 1.264 . S
C5 O13 1.249 . S
O6 C5 1.264 . S
O7 Mg0 1.986 . S
O7 C11 1.246 . S
O8 Mg3 2.032 . S
O8 C11 1.259 . S
O9 Mg0 2.114 . S
O9 C12 1.252 . S
O10 Mg0 2.251 . S
O10 Mg3 2.079 . S
O10 C12 1.273 . S
C11 O7 1.246 . S
C11 O8 1.259 . S
C12 O9 1.252 . S
C12 O10 1.273 . S
O13 Mg0 2.010 . S
O13 C5 1.249 . S
Mg14 O15 2.028 . S
Mg14 O21 1.986 . S
Mg14 O23 2.114 . S
Mg14 O24 2.251 . S
Mg14 O27 2.010 . S
O15 Mg14 2.028 . S
O15 C18 1.250 . S
O16 Mg17 2.028 . S
O16 C18 1.248 . S
Mg17 O16 2.028 . S
Mg17 O22 2.032 . S
Mg17 O24 2.079 . S
C18 O15 1.250 . S
C18 O16 1.248 . S
C19 O20 1.264 . S
C19 O27 1.249 . S
O20 C19 1.264 . S
O21 Mg14 1.986 . S
O21 C25 1.246 . S
O22 Mg17 2.032 . S
O22 C25 1.259 . S
O23 Mg14 2.114 . S
O23 C26 1.252 . S
O24 Mg14 2.251 . S
O24 Mg17 2.079 . S
O24 C26 1.273 . S
C25 O21 1.246 . S
C25 O22 1.259 . S
C26 O23 1.252 . S
C26 O24 1.273 . S
O27 Mg14 2.010 . S
O27 C19 1.249 . S
Mg28 O29 2.028 . S
Mg28 O35 1.986 . S
Mg28 O37 2.114 . S
Mg28 O38 2.251 . S
Mg28 O41 2.010 . S
O29 Mg28 2.028 . S
O29 C32 1.250 . S
O30 Mg31 2.028 . S
O30 C32 1.248 . S
Mg31 O30 2.028 . S
Mg31 O36 2.032 . S
Mg31 O38 2.079 . S
C32 O29 1.250 . S
C32 O30 1.248 . S
C33 O34 1.264 . S
C33 O41 1.249 . S
O34 C33 1.264 . S
O35 Mg28 1.986 . S
O35 C39 1.246 . S
O36 Mg31 2.032 . S
O36 C39 1.259 . S
O37 Mg28 2.114 . S
O37 C40 1.252 . S
O38 Mg28 2.251 . S
O38 Mg31 2.079 . S
O38 C40 1.273 . S
C39 O35 1.246 . S
C39 O36 1.259 . S
C40 O37 1.252 . S
C40 O38 1.273 . S
O41 Mg28 2.010 . S
O41 C33 1.249 . S
Mg42 O43 2.028 . S
Mg42 O49 1.986 . S
Mg42 O51 2.114 . S
Mg42 O52 2.251 . S
Mg42 O55 2.010 . S
O43 Mg42 2.028 . S
O43 C46 1.250 . S
O44 Mg45 2.028 . S
O44 C46 1.248 . S
Mg45 O44 2.028 . S
Mg45 O50 2.032 . S
Mg45 O52 2.079 . S
C46 O43 1.250 . S
C46 O44 1.248 . S
C47 O48 1.264 . S
C47 O55 1.249 . S
O48 C47 1.264 . S
O49 Mg42 1.986 . S
O49 C53 1.246 . S
O50 Mg45 2.032 . S
O50 C53 1.259 . S
O51 Mg42 2.114 . S
O51 C54 1.252 . S
O52 Mg42 2.251 . S
O52 Mg45 2.079 . S
O52 C54 1.273 . S
C53 O49 1.246 . S
C53 O50 1.259 . S
C54 O51 1.252 . S
C54 O52 1.273 . S
O55 Mg42 2.010 . S
O55 C47 1.249 . S
Mg56 O57 2.028 . S
Mg56 O63 1.986 . S
Mg56 O65 2.114 . S
Mg56 O66 2.251 . S
Mg56 O69 2.010 . S
O57 Mg56 2.028 . S
O57 C60 1.250 . S
O58 Mg59 2.028 . S
O58 C60 1.248 . S
Mg59 O58 2.028 . S
Mg59 O64 2.032 . S
Mg59 O66 2.079 . S
C60 O57 1.250 . S
C60 O58 1.248 . S
C61 O62 1.264 . S
C61 O69 1.249 . S
O62 C61 1.264 . S
O63 Mg56 1.986 . S
O63 C67 1.246 . S
O64 Mg59 2.032 . S
O64 C67 1.259 . S
O65 Mg56 2.114 . S
O65 C68 1.252 . S
O66 Mg56 2.251 . S
O66 Mg59 2.079 . S
O66 C68 1.273 . S
C67 O63 1.246 . S
C67 O64 1.259 . S
C68 O65 1.252 . S
C68 O66 1.273 . S
O69 Mg56 2.010 . S
O69 C61 1.249 . S
Mg70 O71 2.028 . S
Mg70 O77 1.986 . S
Mg70 O79 2.114 . S
Mg70 O80 2.251 . S
Mg70 O83 2.010 . S
O71 Mg70 2.028 . S
O71 C74 1.250 . S
O72 Mg73 2.028 . S
O72 C74 1.248 . S
Mg73 O72 2.028 . S
Mg73 O78 2.032 . S
Mg73 O80 2.079 . S
C74 O71 1.250 . S
C74 O72 1.248 . S
C75 O76 1.264 . S
C75 O83 1.249 . S
O76 C75 1.264 . S
O77 Mg70 1.986 . S
O77 C81 1.246 . S
O78 Mg73 2.032 . S
O78 C81 1.259 . S
O79 Mg70 2.114 . S
O79 C82 1.252 . S
O80 Mg70 2.251 . S
O80 Mg73 2.079 . S
O80 C82 1.273 . S
C81 O77 1.246 . S
C81 O78 1.259 . S
C82 O79 1.252 . S
C82 O80 1.273 . S
O83 Mg70 2.010 . S
O83 C75 1.249 . S
Mg84 O85 2.028 . S
Mg84 O91 1.986 . S
Mg84 O93 2.114 . S
Mg84 O94 2.251 . S
Mg84 O97 2.010 . S
O85 Mg84 2.028 . S
O85 C88 1.250 . S
O86 Mg87 2.028 . S
O86 C88 1.248 . S
Mg87 O86 2.028 . S
Mg87 O92 2.032 . S
Mg87 O94 2.079 . S
C88 O85 1.250 . S
C88 O86 1.248 . S
C89 O90 1.264 . S
C89 O97 1.249 . S
O90 C89 1.264 . S
O91 Mg84 1.986 . S
O91 C95 1.246 . S
O92 Mg87 2.032 . S
O92 C95 1.259 . S
O93 Mg84 2.114 . S
O93 C96 1.252 . S
O94 Mg84 2.251 . S
O94 Mg87 2.079 . S
O94 C96 1.273 . S
C95 O91 1.246 . S
C95 O92 1.259 . S
C96 O93 1.252 . S
C96 O94 1.273 . S
O97 Mg84 2.010 . S
O97 C89 1.249 . S
Mg98 O99 2.028 . S
Mg98 O105 1.986 . S
Mg98 O107 2.114 . S
Mg98 O108 2.251 . S
Mg98 O111 2.010 . S
O99 Mg98 2.028 . S
O99 C102 1.250 . S
O100 Mg101 2.028 . S
O100 C102 1.248 . S
Mg101 O100 2.028 . S
Mg101 O106 2.032 . S
Mg101 O108 2.079 . S
C102 O99 1.250 . S
C102 O100 1.248 . S
C103 O104 1.264 . S
C103 O111 1.249 . S
O104 C103 1.264 . S
O105 Mg98 1.986 . S
O105 C109 1.246 . S
O106 Mg101 2.032 . S
O106 C109 1.259 . S
O107 Mg98 2.114 . S
O107 C110 1.252 . S
O108 Mg98 2.251 . S
O108 Mg101 2.079 . S
O108 C110 1.273 . S
C109 O105 1.246 . S
C109 O106 1.259 . S
C110 O107 1.252 . S
C110 O108 1.273 . S
O111 Mg98 2.010 . S
O111 C103 1.249 . S
Mg112 O113 2.028 . S
Mg112 O119 1.986 . S
Mg112 O121 2.114 . S
Mg112 O122 2.251 . S
Mg112 O125 2.010 . S
O113 Mg112 2.028 . S
O113 C116 1.250 . S
O114 Mg115 2.028 . S
O114 C116 1.248 . S
Mg115 O114 2.028 . S
Mg115 O120 2.032 . S
Mg115 O122 2.079 . S
C116 O113 1.250 . S
C116 O114 1.248 . S
C117 O118 1.264 . S
C117 O125 1.249 . S
O118 C117 1.264 . S
O119 Mg112 1.986 . S
O119 C123 1.246 . S
O120 Mg115 2.032 . S
O120 C123 1.259 . S
O121 Mg112 2.114 . S
O121 C124 1.252 . S
O122 Mg112 2.251 . S
O122 Mg115 2.079 . S
O122 C124 1.273 . S
C123 O119 1.246 . S
C123 O120 1.259 . S
C124 O121 1.252 . S
C124 O122 1.273 . S
O125 Mg112 2.010 . S
O125 C117 1.249 . S
Mg126 O127 2.028 . S
Mg126 O133 1.986 . S
Mg126 O135 2.114 . S
Mg126 O136 2.251 . S
Mg126 O139 2.010 . S
O127 Mg126 2.028 . S
O127 C130 1.250 . S
O128 Mg129 2.028 . S
O128 C130 1.248 . S
Mg129 O128 2.028 . S
Mg129 O134 2.032 . S
Mg129 O136 2.079 . S
C130 O127 1.250 . S
C130 O128 1.248 . S
C131 O132 1.264 . S
C131 O139 1.249 . S
O132 C131 1.264 . S
O133 Mg126 1.986 . S
O133 C137 1.246 . S
O134 Mg129 2.032 . S
O134 C137 1.259 . S
O135 Mg126 2.114 . S
O135 C138 1.252 . S
O136 Mg126 2.251 . S
O136 Mg129 2.079 . S
O136 C138 1.273 . S
C137 O133 1.246 . S
C137 O134 1.259 . S
C138 O135 1.252 . S
C138 O136 1.273 . S
O139 Mg126 2.010 . S
O139 C131 1.249 . S
Mg140 O141 2.028 . S
Mg140 O147 1.986 . S
Mg140 O149 2.114 . S
Mg140 O150 2.251 . S
Mg140 O153 2.010 . S
O141 Mg140 2.028 . S
O141 C144 1.250 . S
O142 Mg143 2.028 . S
O142 C144 1.248 . S
Mg143 O142 2.028 . S
Mg143 O148 2.032 . S
Mg143 O150 2.079 . S
C144 O141 1.250 . S
C144 O142 1.248 . S
C145 O146 1.264 . S
C145 O153 1.249 . S
O146 C145 1.264 . S
O147 Mg140 1.986 . S
O147 C151 1.246 . S
O148 Mg143 2.032 . S
O148 C151 1.259 . S
O149 Mg140 2.114 . S
O149 C152 1.252 . S
O150 Mg140 2.251 . S
O150 Mg143 2.079 . S
O150 C152 1.273 . S
C151 O147 1.246 . S
C151 O148 1.259 . S
C152 O149 1.252 . S
C152 O150 1.273 . S
O153 Mg140 2.010 . S
O153 C145 1.249 . S
Mg154 O155 2.028 . S
Mg154 O161 1.986 . S
Mg154 O163 2.114 . S
Mg154 O164 2.251 . S
Mg154 O167 2.010 . S
O155 Mg154 2.028 . S
O155 C158 1.250 . S
O156 Mg157 2.028 . S
O156 C158 1.248 . S
Mg157 O156 2.028 . S
Mg157 O162 2.032 . S
Mg157 O164 2.079 . S
C158 O155 1.250 . S
C158 O156 1.248 . S
C159 O160 1.264 . S
C159 O167 1.249 . S
O160 C159 1.264 . S
O161 Mg154 1.986 . S
O161 C165 1.246 . S
O162 Mg157 2.032 . S
O162 C165 1.259 . S
O163 Mg154 2.114 . S
O163 C166 1.252 . S
O164 Mg154 2.251 . S
O164 Mg157 2.079 . S
O164 C166 1.273 . S
C165 O161 1.246 . S
C165 O162 1.259 . S
C166 O163 1.252 . S
C166 O164 1.273 . S
O167 Mg154 2.010 . S
O167 C159 1.249 . S
Mg168 O169 2.028 . S
Mg168 O175 1.986 . S
Mg168 O177 2.114 . S
Mg168 O178 2.251 . S
Mg168 O181 2.010 . S
O169 Mg168 2.028 . S
O169 C172 1.250 . S
O170 Mg171 2.028 . S
O170 C172 1.248 . S
Mg171 O170 2.028 . S
Mg171 O176 2.032 . S
Mg171 O178 2.079 . S
C172 O169 1.250 . S
C172 O170 1.248 . S
C173 O174 1.264 . S
C173 O181 1.249 . S
O174 C173 1.264 . S
O175 Mg168 1.986 . S
O175 C179 1.246 . S
O176 Mg171 2.032 . S
O176 C179 1.259 . S
O177 Mg168 2.114 . S
O177 C180 1.252 . S
O178 Mg168 2.251 . S
O178 Mg171 2.079 . S
O178 C180 1.273 . S
C179 O175 1.246 . S
C179 O176 1.259 . S
C180 O177 1.252 . S
C180 O178 1.273 . S
O181 Mg168 2.010 . S
O181 C173 1.249 . S
Mg182 O183 2.028 . S
Mg182 O189 1.986 . S
Mg182 O191 2.114 . S
Mg182 O192 2.251 . S
Mg182 O195 2.010 . S
O183 Mg182 2.028 . S
O183 C186 1.250 . S
O184 Mg185 2.028 . S
O184 C186 1.248 . S
Mg185 O184 2.028 . S
Mg185 O190 2.032 . S
Mg185 O192 2.079 . S
C186 O183 1.250 . S
C186 O184 1.248 . S
C187 O188 1.264 . S
C187 O195 1.249 . S
O188 C187 1.264 . S
O189 Mg182 1.986 . S
O189 C193 1.246 . S
O190 Mg185 2.032 . S
O190 C193 1.259 . S
O191 Mg182 2.114 . S
O191 C194 1.252 . S
O192 Mg182 2.251 . S
O192 Mg185 2.079 . S
O192 C194 1.273 . S
C193 O189 1.246 . S
C193 O190 1.259 . S
C194 O191 1.252 . S
C194 O192 1.273 . S
O195 Mg182 2.010 . S
O195 C187 1.249 . S
Mg196 O197 2.028 . S
Mg196 O203 1.986 . S
Mg196 O205 2.114 . S
Mg196 O206 2.251 . S
Mg196 O209 2.010 . S
O197 Mg196 2.028 . S
O197 C200 1.250 . S
O198 Mg199 2.028 . S
O198 C200 1.248 . S
Mg199 O198 2.028 . S
Mg199 O204 2.032 . S
Mg199 O206 2.079 . S
C200 O197 1.250 . S
C200 O198 1.248 . S
C201 O202 1.264 . S
C201 O209 1.249 . S
O202 C201 1.264 . S
O203 Mg196 1.986 . S
O203 C207 1.246 . S
O204 Mg199 2.032 . S
O204 C207 1.259 . S
O205 Mg196 2.114 . S
O205 C208 1.252 . S
O206 Mg196 2.251 . S
O206 Mg199 2.079 . S
O206 C208 1.273 . S
C207 O203 1.246 . S
C207 O204 1.259 . S
C208 O205 1.252 . S
C208 O206 1.273 . S
O209 Mg196 2.010 . S
O209 C201 1.249 . S
Mg210 O211 2.028 . S
Mg210 O217 1.986 . S
Mg210 O219 2.114 . S
Mg210 O220 2.251 . S
Mg210 O223 2.010 . S
O211 Mg210 2.028 . S
O211 C214 1.250 . S
O212 Mg213 2.028 . S
O212 C214 1.248 . S
Mg213 O212 2.028 . S
Mg213 O218 2.032 . S
Mg213 O220 2.079 . S
C214 O211 1.250 . S
C214 O212 1.248 . S
C215 O216 1.264 . S
C215 O223 1.249 . S
O216 C215 1.264 . S
O217 Mg210 1.986 . S
O217 C221 1.246 . S
O218 Mg213 2.032 . S
O218 C221 1.259 . S
O219 Mg210 2.114 . S
O219 C222 1.252 . S
O220 Mg210 2.251 . S
O220 Mg213 2.079 . S
O220 C222 1.273 . S
C221 O217 1.246 . S
C221 O218 1.259 . S
C222 O219 1.252 . S
C222 O220 1.273 . S
O223 Mg210 2.010 . S
O223 C215 1.249 . S
Mg224 O225 2.028 . S
Mg224 O231 1.986 . S
Mg224 O233 2.114 . S
Mg224 O234 2.251 . S
Mg224 O237 2.010 . S
O225 Mg224 2.028 . S
O225 C228 1.250 . S
O226 Mg227 2.028 . S
O226 C228 1.248 . S
Mg227 O226 2.028 . S
Mg227 O232 2.032 . S
Mg227 O234 2.079 . S
C228 O225 1.250 . S
C228 O226 1.248 . S
C229 O230 1.264 . S
C229 O237 1.249 . S
O230 C229 1.264 . S
O231 Mg224 1.986 . S
O231 C235 1.246 . S
O232 Mg227 2.032 . S
O232 C235 1.259 . S
O233 Mg224 2.114 . S
O233 C236 1.252 . S
O234 Mg224 2.251 . S
O234 Mg227 2.079 . S
O234 C236 1.273 . S
C235 O231 1.246 . S
C235 O232 1.259 . S
C236 O233 1.252 . S
C236 O234 1.273 . S
O237 Mg224 2.010 . S
O237 C229 1.249 . S
Mg238 O239 2.028 . S
Mg238 O245 1.986 . S
Mg238 O247 2.114 . S
Mg238 O248 2.251 . S
Mg238 O251 2.010 . S
O239 Mg238 2.028 . S
O239 C242 1.250 . S
O240 Mg241 2.028 . S
O240 C242 1.248 . S
Mg241 O240 2.028 . S
Mg241 O246 2.032 . S
Mg241 O248 2.079 . S
C242 O239 1.250 . S
C242 O240 1.248 . S
C243 O244 1.264 . S
C243 O251 1.249 . S
O244 C243 1.264 . S
O245 Mg238 1.986 . S
O245 C249 1.246 . S
O246 Mg241 2.032 . S
O246 C249 1.259 . S
O247 Mg238 2.114 . S
O247 C250 1.252 . S
O248 Mg238 2.251 . S
O248 Mg241 2.079 . S
O248 C250 1.273 . S
C249 O245 1.246 . S
C249 O246 1.259 . S
C250 O247 1.252 . S
C250 O248 1.273 . S
O251 Mg238 2.010 . S
O251 C243 1.249 . S
Mg252 O253 2.028 . S
Mg252 O259 1.986 . S
Mg252 O261 2.114 . S
Mg252 O262 2.251 . S
Mg252 O265 2.010 . S
O253 Mg252 2.028 . S
O253 C256 1.250 . S
O254 Mg255 2.028 . S
O254 C256 1.248 . S
Mg255 O254 2.028 . S
Mg255 O260 2.032 . S
Mg255 O262 2.079 . S
C256 O253 1.250 . S
C256 O254 1.248 . S
C257 O258 1.264 . S
C257 O265 1.249 . S
O258 C257 1.264 . S
O259 Mg252 1.986 . S
O259 C263 1.246 . S
O260 Mg255 2.032 . S
O260 C263 1.259 . S
O261 Mg252 2.114 . S
O261 C264 1.252 . S
O262 Mg252 2.251 . S
O262 Mg255 2.079 . S
O262 C264 1.273 . S
C263 O259 1.246 . S
C263 O260 1.259 . S
C264 O261 1.252 . S
C264 O262 1.273 . S
O265 Mg252 2.010 . S
O265 C257 1.249 . S
Mg266 O267 2.028 . S
Mg266 O273 1.986 . S
Mg266 O275 2.114 . S
Mg266 O276 2.251 . S
Mg266 O279 2.010 . S
O267 Mg266 2.028 . S
O267 C270 1.250 . S
O268 Mg269 2.028 . S
O268 C270 1.248 . S
Mg269 O268 2.028 . S
Mg269 O274 2.032 . S
Mg269 O276 2.079 . S
C270 O267 1.250 . S
C270 O268 1.248 . S
C271 O272 1.264 . S
C271 O279 1.249 . S
O272 C271 1.264 . S
O273 Mg266 1.986 . S
O273 C277 1.246 . S
O274 Mg269 2.032 . S
O274 C277 1.259 . S
O275 Mg266 2.114 . S
O275 C278 1.252 . S
O276 Mg266 2.251 . S
O276 Mg269 2.079 . S
O276 C278 1.273 . S
C277 O273 1.246 . S
C277 O274 1.259 . S
C278 O275 1.252 . S
C278 O276 1.273 . S
O279 Mg266 2.010 . S
O279 C271 1.249 . S
Mg280 O281 2.028 . S
Mg280 O287 1.986 . S
Mg280 O289 2.114 . S
Mg280 O290 2.251 . S
Mg280 O293 2.010 . S
O281 Mg280 2.028 . S
O281 C284 1.250 . S
O282 Mg283 2.028 . S
O282 C284 1.248 . S
Mg283 O282 2.028 . S
Mg283 O288 2.032 . S
Mg283 O290 2.079 . S
C284 O281 1.250 . S
C284 O282 1.248 . S
C285 O286 1.264 . S
C285 O293 1.249 . S
O286 C285 1.264 . S
O287 Mg280 1.986 . S
O287 C291 1.246 . S
O288 Mg283 2.032 . S
O288 C291 1.259 . S
O289 Mg280 2.114 . S
O289 C292 1.252 . S
O290 Mg280 2.251 . S
O290 Mg283 2.079 . S
O290 C292 1.273 . S
C291 O287 1.246 . S
C291 O288 1.259 . S
C292 O289 1.252 . S
C292 O290 1.273 . S
O293 Mg280 2.010 . S
O293 C285 1.249 . S
Mg294 O295 2.028 . S
Mg294 O301 1.986 . S
Mg294 O303 2.114 . S
Mg294 O304 2.251 . S
Mg294 O307 2.010 . S
O295 Mg294 2.028 . S
O295 C298 1.250 . S
O296 Mg297 2.028 . S
O296 C298 1.248 . S
Mg297 O296 2.028 . S
Mg297 O302 2.032 . S
Mg297 O304 2.079 . S
C298 O295 1.250 . S
C298 O296 1.248 . S
C299 O300 1.264 . S
C299 O307 1.249 . S
O300 C299 1.264 . S
O301 Mg294 1.986 . S
O301 C305 1.246 . S
O302 Mg297 2.032 . S
O302 C305 1.259 . S
O303 Mg294 2.114 . S
O303 C306 1.252 . S
O304 Mg294 2.251 . S
O304 Mg297 2.079 . S
O304 C306 1.273 . S
C305 O301 1.246 . S
C305 O302 1.259 . S
C306 O303 1.252 . S
C306 O304 1.273 . S
O307 Mg294 2.010 . S
O307 C299 1.249 . S
Mg308 O309 2.028 . S
Mg308 O315 1.986 . S
Mg308 O317 2.114 . S
Mg308 O318 2.251 . S
Mg308 O321 2.010 . S
O309 Mg308 2.028 . S
O309 C312 1.250 . S
O310 Mg311 2.028 . S
O310 C312 1.248 . S
Mg311 O310 2.028 . S
Mg311 O316 2.032 . S
Mg311 O318 2.079 . S
C312 O309 1.250 . S
C312 O310 1.248 . S
C313 O314 1.264 . S
C313 O321 1.249 . S
O314 C313 1.264 . S
O315 Mg308 1.986 . S
O315 C319 1.246 . S
O316 Mg311 2.032 . S
O316 C319 1.259 . S
O317 Mg308 2.114 . S
O317 C320 1.252 . S
O318 Mg308 2.251 . S
O318 Mg311 2.079 . S
O318 C320 1.273 . S
C319 O315 1.246 . S
C319 O316 1.259 . S
C320 O317 1.252 . S
C320 O318 1.273 . S
O321 Mg308 2.010 . S
O321 C313 1.249 . S
Mg322 O323 2.028 . S
Mg322 O329 1.986 . S
Mg322 O331 2.114 . S
Mg322 O332 2.251 . S
Mg322 O335 2.010 . S
O323 Mg322 2.028 . S
O323 C326 1.250 . S
O324 Mg325 2.028 . S
O324 C326 1.248 . S
Mg325 O324 2.028 . S
Mg325 O330 2.032 . S
Mg325 O332 2.079 . S
C326 O323 1.250 . S
C326 O324 1.248 . S
C327 O328 1.264 . S
C327 O335 1.249 . S
O328 C327 1.264 . S
O329 Mg322 1.986 . S
O329 C333 1.246 . S
O330 Mg325 2.032 . S
O330 C333 1.259 . S
O331 Mg322 2.114 . S
O331 C334 1.252 . S
O332 Mg322 2.251 . S
O332 Mg325 2.079 . S
O332 C334 1.273 . S
C333 O329 1.246 . S
C333 O330 1.259 . S
C334 O331 1.252 . S
C334 O332 1.273 . S
O335 Mg322 2.010 . S
O335 C327 1.249 . S
Mg336 O337 2.028 . S
Mg336 O343 1.986 . S
Mg336 O345 2.114 . S
Mg336 O346 2.251 . S
Mg336 O349 2.010 . S
O337 Mg336 2.028 . S
O337 C340 1.250 . S
O338 Mg339 2.028 . S
O338 C340 1.248 . S
Mg339 O338 2.028 . S
Mg339 O344 2.032 . S
Mg339 O346 2.079 . S
C340 O337 1.250 . S
C340 O338 1.248 . S
C341 O342 1.264 . S
C341 O349 1.249 . S
O342 C341 1.264 . S
O343 Mg336 1.986 . S
O343 C347 1.246 . S
O344 Mg339 2.032 . S
O344 C347 1.259 . S
O345 Mg336 2.114 . S
O345 C348 1.252 . S
O346 Mg336 2.251 . S
O346 Mg339 2.079 . S
O346 C348 1.273 . S
C347 O343 1.246 . S
C347 O344 1.259 . S
C348 O345 1.252 . S
C348 O346 1.273 . S
O349 Mg336 2.010 . S
O349 C341 1.249 . S
Mg350 O351 2.028 . S
Mg350 O357 1.986 . S
Mg350 O359 2.114 . S
Mg350 O360 2.251 . S
Mg350 O363 2.010 . S
O351 Mg350 2.028 . S
O351 C354 1.250 . S
O352 Mg353 2.028 . S
O352 C354 1.248 . S
Mg353 O352 2.028 . S
Mg353 O358 2.032 . S
Mg353 O360 2.079 . S
C354 O351 1.250 . S
C354 O352 1.248 . S
C355 O356 1.264 . S
C355 O363 1.249 . S
O356 C355 1.264 . S
O357 Mg350 1.986 . S
O357 C361 1.246 . S
O358 Mg353 2.032 . S
O358 C361 1.259 . S
O359 Mg350 2.114 . S
O359 C362 1.252 . S
O360 Mg350 2.251 . S
O360 Mg353 2.079 . S
O360 C362 1.273 . S
C361 O357 1.246 . S
C361 O358 1.259 . S
C362 O359 1.252 . S
C362 O360 1.273 . S
O363 Mg350 2.010 . S
O363 C355 1.249 . S
Mg364 O365 2.028 . S
Mg364 O371 1.986 . S
Mg364 O373 2.114 . S
Mg364 O374 2.251 . S
Mg364 O377 2.010 . S
O365 Mg364 2.028 . S
O365 C368 1.250 . S
O366 Mg367 2.028 . S
O366 C368 1.248 . S
Mg367 O366 2.028 . S
Mg367 O372 2.032 . S
Mg367 O374 2.079 . S
C368 O365 1.250 . S
C368 O366 1.248 . S
C369 O370 1.264 . S
C369 O377 1.249 . S
O370 C369 1.264 . S
O371 Mg364 1.986 . S
O371 C375 1.246 . S
O372 Mg367 2.032 . S
O372 C375 1.259 . S
O373 Mg364 2.114 . S
O373 C376 1.252 . S
O374 Mg364 2.251 . S
O374 Mg367 2.079 . S
O374 C376 1.273 . S
C375 O371 1.246 . S
C375 O372 1.259 . S
C376 O373 1.252 . S
C376 O374 1.273 . S
O377 Mg364 2.010 . S
O377 C369 1.249 . S
Mg378 O379 2.028 . S
Mg378 O385 1.986 . S
Mg378 O387 2.114 . S
Mg378 O388 2.251 . S
Mg378 O391 2.010 . S
O379 Mg378 2.028 . S
O379 C382 1.250 . S
O380 Mg381 2.028 . S
O380 C382 1.248 . S
Mg381 O380 2.028 . S
Mg381 O386 2.032 . S
Mg381 O388 2.079 . S
C382 O379 1.250 . S
C382 O380 1.248 . S
C383 O384 1.264 . S
C383 O391 1.249 . S
O384 C383 1.264 . S
O385 Mg378 1.986 . S
O385 C389 1.246 . S
O386 Mg381 2.032 . S
O386 C389 1.259 . S
O387 Mg378 2.114 . S
O387 C390 1.252 . S
O388 Mg378 2.251 . S
O388 Mg381 2.079 . S
O388 C390 1.273 . S
C389 O385 1.246 . S
C389 O386 1.259 . S
C390 O387 1.252 . S
C390 O388 1.273 . S
O391 Mg378 2.010 . S
O391 C383 1.249 . S
Mg392 O393 2.028 . S
Mg392 O399 1.986 . S
Mg392 O401 2.114 . S
Mg392 O402 2.251 . S
Mg392 O405 2.010 . S
O393 Mg392 2.028 . S
O393 C396 1.250 . S
O394 Mg395 2.028 . S
O394 C396 1.248 . S
Mg395 O394 2.028 . S
Mg395 O400 2.032 . S
Mg395 O402 2.079 . S
C396 O393 1.250 . S
C396 O394 1.248 . S
C397 O398 1.264 . S
C397 O405 1.249 . S
O398 C397 1.264 . S
O399 Mg392 1.986 . S
O399 C403 1.246 . S
O400 Mg395 2.032 . S
O400 C403 1.259 . S
O401 Mg392 2.114 . S
O401 C404 1.252 . S
O402 Mg392 2.251 . S
O402 Mg395 2.079 . S
O402 C404 1.273 . S
C403 O399 1.246 . S
C403 O400 1.259 . S
C404 O401 1.252 . S
C404 O402 1.273 . S
O405 Mg392 2.010 . S
O405 C397 1.249 . S
Mg406 O407 2.028 . S
Mg406 O413 1.986 . S
Mg406 O415 2.114 . S
Mg406 O416 2.251 . S
Mg406 O419 2.010 . S
O407 Mg406 2.028 . S
O407 C410 1.250 . S
O408 Mg409 2.028 . S
O408 C410 1.248 . S
Mg409 O408 2.028 . S
Mg409 O414 2.032 . S
Mg409 O416 2.079 . S
C410 O407 1.250 . S
C410 O408 1.248 . S
C411 O412 1.264 . S
C411 O419 1.249 . S
O412 C411 1.264 . S
O413 Mg406 1.986 . S
O413 C417 1.246 . S
O414 Mg409 2.032 . S
O414 C417 1.259 . S
O415 Mg406 2.114 . S
O415 C418 1.252 . S
O416 Mg406 2.251 . S
O416 Mg409 2.079 . S
O416 C418 1.273 . S
C417 O413 1.246 . S
C417 O414 1.259 . S
C418 O415 1.252 . S
C418 O416 1.273 . S
O419 Mg406 2.010 . S
O419 C411 1.249 . S
Mg420 O421 2.028 . S
Mg420 O427 1.986 . S
Mg420 O429 2.114 . S
Mg420 O430 2.251 . S
Mg420 O433 2.010 . S
O421 Mg420 2.028 . S
O421 C424 1.250 . S
O422 Mg423 2.028 . S
O422 C424 1.248 . S
Mg423 O422 2.028 . S
Mg423 O428 2.032 . S
Mg423 O430 2.079 . S
C424 O421 1.250 . S
C424 O422 1.248 . S
C425 O426 1.264 . S
C425 O433 1.249 . S
O426 C425 1.264 . S
O427 Mg420 1.986 . S
O427 C431 1.246 . S
O428 Mg423 2.032 . S
O428 C431 1.259 . S
O429 Mg420 2.114 . S
O429 C432 1.252 . S
O430 Mg420 2.251 . S
O430 Mg423 2.079 . S
O430 C432 1.273 . S
C431 O427 1.246 . S
C431 O428 1.259 . S
C432 O429 1.252 . S
C432 O430 1.273 . S
O433 Mg420 2.010 . S
O433 C425 1.249 . S
Mg434 O435 2.028 . S
Mg434 O441 1.986 . S
Mg434 O443 2.114 . S
Mg434 O444 2.251 . S
Mg434 O447 2.010 . S
O435 Mg434 2.028 . S
O435 C438 1.250 . S
O436 Mg437 2.028 . S
O436 C438 1.248 . S
Mg437 O436 2.028 . S
Mg437 O442 2.032 . S
Mg437 O444 2.079 . S
C438 O435 1.250 . S
C438 O436 1.248 . S
C439 O440 1.264 . S
C439 O447 1.249 . S
O440 C439 1.264 . S
O441 Mg434 1.986 . S
O441 C445 1.246 . S
O442 Mg437 2.032 . S
O442 C445 1.259 . S
O443 Mg434 2.114 . S
O443 C446 1.252 . S
O444 Mg434 2.251 . S
O444 Mg437 2.079 . S
O444 C446 1.273 . S
C445 O441 1.246 . S
C445 O442 1.259 . S
C446 O443 1.252 . S
C446 O444 1.273 . S
O447 Mg434 2.010 . S
O447 C439 1.249 . S
C448 C449 1.349 . S
C448 C450 1.327 . S
C448 H473 0.950 . S
C449 C448 1.349 . S
C449 C465 1.349 . S
C450 C448 1.327 . S
C450 C469 1.429 . S
C450 H474 0.950 . S
C451 C468 1.574 . S
C451 C470 1.368 . S
C451 H475 0.949 . S
H452 C456 0.949 . S
C453 C454 1.349 . S
C453 C455 1.327 . S
C453 H476 0.950 . S
C454 C453 1.349 . S
C454 C466 1.349 . S
C455 C453 1.327 . S
C455 C471 1.429 . S
C455 H477 0.950 . S
C456 H452 0.949 . S
C456 C464 1.574 . S
C456 C472 1.368 . S
H457 C465 0.950 . S
H458 C463 0.950 . S
H459 C464 0.949 . S
H460 C466 0.950 . S
H461 C467 0.950 . S
H462 C468 0.949 . S
C463 H458 0.950 . S
C463 C465 1.327 . S
C463 C469 1.429 . S
C464 C456 1.574 . S
C464 H459 0.949 . S
C464 C470 1.368 . S
C465 C449 1.349 . S
C465 H457 0.950 . S
C465 C463 1.327 . S
C466 C454 1.349 . S
C466 H460 0.950 . S
C466 C467 1.327 . S
C467 H461 0.950 . S
C467 C466 1.327 . S
C467 C471 1.429 . S
C468 C451 1.574 . S
C468 H462 0.949 . S
C468 C472 1.368 . S
C469 C450 1.429 . S
C469 C463 1.429 . S
C469 C470 1.523 . S
C470 C451 1.368 . S
C470 C464 1.368 . S
C470 C469 1.523 . S
C471 C455 1.429 . S
C471 C467 1.429 . S
C471 C472 1.523 . S
C472 C456 1.368 . S
C472 C468 1.368 . S
C472 C471 1.523 . S
H473 C448 0.950 . S
H474 C450 0.950 . S
H475 C451 0.949 . S
H476 C453 0.950 . S
H477 C455 0.950 . S
C478 C479 1.349 . S
C478 C480 1.327 . S
C478 H503 0.950 . S
C479 C478 1.349 . S
C479 C495 1.349 . S
C480 C478 1.327 . S
C480 C499 1.429 . S
C480 H504 0.950 . S
C481 C498 1.574 . S
C481 C500 1.368 . S
C481 H505 0.949 . S
H482 C486 0.949 . S
C483 C484 1.349 . S
C483 C485 1.327 . S
C483 H506 0.950 . S
C484 C483 1.349 . S
C484 C496 1.349 . S
C485 C483 1.327 . S
C485 C501 1.429 . S
C485 H507 0.950 . S
C486 H482 0.949 . S
C486 C494 1.574 . S
C486 C502 1.368 . S
H487 C495 0.950 . S
H488 C493 0.950 . S
H489 C494 0.949 . S
H490 C496 0.950 . S
H491 C497 0.950 . S
H492 C498 0.949 . S
C493 H488 0.950 . S
C493 C495 1.327 . S
C493 C499 1.429 . S
C494 C486 1.574 . S
C494 H489 0.949 . S
C494 C500 1.368 . S
C495 C479 1.349 . S
C495 H487 0.950 . S
C495 C493 1.327 . S
C496 C484 1.349 . S
C496 H490 0.950 . S
C496 C497 1.327 . S
C497 H491 0.950 . S
C497 C496 1.327 . S
C497 C501 1.429 . S
C498 C481 1.574 . S
C498 H492 0.949 . S
C498 C502 1.368 . S
C499 C480 1.429 . S
C499 C493 1.429 . S
C499 C500 1.523 . S
C500 C481 1.368 . S
C500 C494 1.368 . S
C500 C499 1.523 . S
C501 C485 1.429 . S
C501 C497 1.429 . S
C501 C502 1.523 . S
C502 C486 1.368 . S
C502 C498 1.368 . S
C502 C501 1.523 . S
H503 C478 0.950 . S
H504 C480 0.950 . S
H505 C481 0.949 . S
H506 C483 0.950 . S
H507 C485 0.950 . S
C508 C509 1.349 . S
C508 C510 1.327 . S
C508 H533 0.950 . S
C509 C508 1.349 . S
C509 C525 1.349 . S
C510 C508 1.327 . S
C510 C529 1.429 . S
C510 H534 0.950 . S
C511 C528 1.574 . S
C511 C530 1.368 . S
C511 H535 0.949 . S
H512 C516 0.949 . S
C513 C514 1.349 . S
C513 C515 1.327 . S
C513 H536 0.950 . S
C514 C513 1.349 . S
C514 C526 1.349 . S
C515 C513 1.327 . S
C515 C531 1.429 . S
C515 H537 0.950 . S
C516 H512 0.949 . S
C516 C524 1.574 . S
C516 C532 1.368 . S
H517 C525 0.950 . S
H518 C523 0.950 . S
H519 C524 0.949 . S
H520 C526 0.950 . S
H521 C527 0.950 . S
H522 C528 0.949 . S
C523 H518 0.950 . S
C523 C525 1.327 . S
C523 C529 1.429 . S
C524 C516 1.574 . S
C524 H519 0.949 . S
C524 C530 1.368 . S
C525 C509 1.349 . S
C525 H517 0.950 . S
C525 C523 1.327 . S
C526 C514 1.349 . S
C526 H520 0.950 . S
C526 C527 1.327 . S
C527 H521 0.950 . S
C527 C526 1.327 . S
C527 C531 1.429 . S
C528 C511 1.574 . S
C528 H522 0.949 . S
C528 C532 1.368 . S
C529 C510 1.429 . S
C529 C523 1.429 . S
C529 C530 1.523 . S
C530 C511 1.368 . S
C530 C524 1.368 . S
C530 C529 1.523 . S
C531 C515 1.429 . S
C531 C527 1.429 . S
C531 C532 1.523 . S
C532 C516 1.368 . S
C532 C528 1.368 . S
C532 C531 1.523 . S
H533 C508 0.950 . S
H534 C510 0.950 . S
H535 C511 0.949 . S
H536 C513 0.950 . S
H537 C515 0.950 . S
C538 C539 1.349 . S
C538 C540 1.327 . S
C538 H563 0.950 . S
C539 C538 1.349 . S
C539 C555 1.349 . S
C540 C538 1.327 . S
C540 C559 1.429 . S
C540 H564 0.950 . S
C541 C558 1.574 . S
C541 C560 1.368 . S
C541 H565 0.949 . S
H542 C546 0.949 . S
C543 C544 1.349 . S
C543 C545 1.327 . S
C543 H566 0.950 . S
C544 C543 1.349 . S
C544 C556 1.349 . S
C545 C543 1.327 . S
C545 C561 1.429 . S
C545 H567 0.950 . S
C546 H542 0.949 . S
C546 C554 1.574 . S
C546 C562 1.368 . S
H547 C555 0.950 . S
H548 C553 0.950 . S
H549 C554 0.949 . S
H550 C556 0.950 . S
H551 C557 0.950 . S
H552 C558 0.949 . S
C553 H548 0.950 . S
C553 C555 1.327 . S
C553 C559 1.429 . S
C554 C546 1.574 . S
C554 H549 0.949 . S
C554 C560 1.368 . S
C555 C539 1.349 . S
C555 H547 0.950 . S
C555 C553 1.327 . S
C556 C544 1.349 . S
C556 H550 0.950 . S
C556 C557 1.327 . S
C557 H551 0.950 . S
C557 C556 1.327 . S
C557 C561 1.429 . S
C558 C541 1.574 . S
C558 H552 0.949 . S
C558 C562 1.368 . S
C559 C540 1.429 . S
C559 C553 1.429 . S
C559 C560 1.523 . S
C560 C541 1.368 . S
C560 C554 1.368 . S
C560 C559 1.523 . S
C561 C545 1.429 . S
C561 C557 1.429 . S
C561 C562 1.523 . S
C562 C546 1.368 . S
C562 C558 1.368 . S
C562 C561 1.523 . S
H563 C538 0.950 . S
H564 C540 0.950 . S
H565 C541 0.949 . S
H566 C543 0.950 . S
H567 C545 0.950 . S
C568 C569 1.349 . S
C568 C570 1.327 . S
C568 H593 0.950 . S
C569 C568 1.349 . S
C569 C585 1.349 . S
C570 C568 1.327 . S
C570 C589 1.429 . S
C570 H594 0.950 . S
C571 C588 1.574 . S
C571 C590 1.368 . S
C571 H595 0.949 . S
H572 C576 0.949 . S
C573 C574 1.349 . S
C573 C575 1.327 . S
C573 H596 0.950 . S
C574 C573 1.349 . S
C574 C586 1.349 . S
C575 C573 1.327 . S
C575 C591 1.429 . S
C575 H597 0.950 . S
C576 H572 0.949 . S
C576 C584 1.574 . S
C576 C592 1.368 . S
H577 C585 0.950 . S
H578 C583 0.950 . S
H579 C584 0.949 . S
H580 C586 0.950 . S
H581 C587 0.950 . S
H582 C588 0.949 . S
C583 H578 0.950 . S
C583 C585 1.327 . S
C583 C589 1.429 . S
C584 C576 1.574 . S
C584 H579 0.949 . S
C584 C590 1.368 . S
C585 C569 1.349 . S
C585 H577 0.950 . S
C585 C583 1.327 . S
C586 C574 1.349 . S
C586 H580 0.950 . S
C586 C587 1.327 . S
C587 H581 0.950 . S
C587 C586 1.327 . S
C587 C591 1.429 . S
C588 C571 1.574 . S
C588 H582 0.949 . S
C588 C592 1.368 . S
C589 C570 1.429 . S
C589 C583 1.429 . S
C589 C590 1.523 . S
C590 C571 1.368 . S
C590 C584 1.368 . S
C590 C589 1.523 . S
C591 C575 1.429 . S
C591 C587 1.429 . S
C591 C592 1.523 . S
C592 C576 1.368 . S
C592 C588 1.368 . S
C592 C591 1.523 . S
H593 C568 0.950 . S
H594 C570 0.950 . S
H595 C571 0.949 . S
H596 C573 0.950 . S
H597 C575 0.950 . S
C598 C599 1.349 . S
C598 C600 1.327 . S
C598 H623 0.950 . S
C599 C598 1.349 . S
C599 C615 1.349 . S
C600 C598 1.327 . S
C600 C619 1.429 . S
C600 H624 0.950 . S
C601 C618 1.574 . S
C601 C620 1.368 . S
C601 H625 0.949 . S
H602 C606 0.949 . S
C603 C604 1.349 . S
C603 C605 1.327 . S
C603 H626 0.950 . S
C604 C603 1.349 . S
C604 C616 1.349 . S
C605 C603 1.327 . S
C605 C621 1.429 . S
C605 H627 0.950 . S
C606 H602 0.949 . S
C606 C614 1.574 . S
C606 C622 1.368 . S
H607 C615 0.950 . S
H608 C613 0.950 . S
H609 C614 0.949 . S
H610 C616 0.950 . S
H611 C617 0.950 . S
H612 C618 0.949 . S
C613 H608 0.950 . S
C613 C615 1.327 . S
C613 C619 1.429 . S
C614 C606 1.574 . S
C614 H609 0.949 . S
C614 C620 1.368 . S
C615 C599 1.349 . S
C615 H607 0.950 . S
C615 C613 1.327 . S
C616 C604 1.349 . S
C616 H610 0.950 . S
C616 C617 1.327 . S
C617 H611 0.950 . S
C617 C616 1.327 . S
C617 C621 1.429 . S
C618 C601 1.574 . S
C618 H612 0.949 . S
C618 C622 1.368 . S
C619 C600 1.429 . S
C619 C613 1.429 . S
C619 C620 1.523 . S
C620 C601 1.368 . S
C620 C614 1.368 . S
C620 C619 1.523 . S
C621 C605 1.429 . S
C621 C617 1.429 . S
C621 C622 1.523 . S
C622 C606 1.368 . S
C622 C618 1.368 . S
C622 C621 1.523 . S
H623 C598 0.950 . S
H624 C600 0.950 . S
H625 C601 0.949 . S
H626 C603 0.950 . S
H627 C605 0.950 . S
C628 C629 1.349 . S
C628 C630 1.327 . S
C628 H653 0.950 . S
C629 C628 1.349 . S
C629 C645 1.349 . S
C630 C628 1.327 . S
C630 C649 1.429 . S
C630 H654 0.950 . S
C631 C648 1.574 . S
C631 C650 1.368 . S
C631 H655 0.949 . S
H632 C636 0.949 . S
C633 C634 1.349 . S
C633 C635 1.327 . S
C633 H656 0.950 . S
C634 C633 1.349 . S
C634 C646 1.349 . S
C635 C633 1.327 . S
C635 C651 1.429 . S
C635 H657 0.950 . S
C636 H632 0.949 . S
C636 C644 1.574 . S
C636 C652 1.368 . S
H637 C645 0.950 . S
H638 C643 0.950 . S
H639 C644 0.949 . S
H640 C646 0.950 . S
H641 C647 0.950 . S
H642 C648 0.949 . S
C643 H638 0.950 . S
C643 C645 1.327 . S
C643 C649 1.429 . S
C644 C636 1.574 . S
C644 H639 0.949 . S
C644 C650 1.368 . S
C645 C629 1.349 . S
C645 H637 0.950 . S
C645 C643 1.327 . S
C646 C634 1.349 . S
C646 H640 0.950 . S
C646 C647 1.327 . S
C647 H641 0.950 . S
C647 C646 1.327 . S
C647 C651 1.429 . S
C648 C631 1.574 . S
C648 H642 0.949 . S
C648 C652 1.368 . S
C649 C630 1.429 . S
C649 C643 1.429 . S
C649 C650 1.523 . S
C650 C631 1.368 . S
C650 C644 1.368 . S
C650 C649 1.523 . S
C651 C635 1.429 . S
C651 C647 1.429 . S
C651 C652 1.523 . S
C652 C636 1.368 . S
C652 C648 1.368 . S
C652 C651 1.523 . S
H653 C628 0.950 . S
H654 C630 0.950 . S
H655 C631 0.949 . S
H656 C633 0.950 . S
H657 C635 0.950 . S
C658 C659 1.349 . S
C658 C660 1.327 . S
C658 H683 0.950 . S
C659 C658 1.349 . S
C659 C675 1.349 . S
C660 C658 1.327 . S
C660 C679 1.429 . S
C660 H684 0.950 . S
C661 C678 1.574 . S
C661 C680 1.368 . S
C661 H685 0.949 . S
H662 C666 0.949 . S
C663 C664 1.349 . S
C663 C665 1.327 . S
C663 H686 0.950 . S
C664 C663 1.349 . S
C664 C676 1.349 . S
C665 C663 1.327 . S
C665 C681 1.429 . S
C665 H687 0.950 . S
C666 H662 0.949 . S
C666 C674 1.574 . S
C666 C682 1.368 . S
H667 C675 0.950 . S
H668 C673 0.950 . S
H669 C674 0.949 . S
H670 C676 0.950 . S
H671 C677 0.950 . S
H672 C678 0.949 . S
C673 H668 0.950 . S
C673 C675 1.327 . S
C673 C679 1.429 . S
C674 C666 1.574 . S
C674 H669 0.949 . S
C674 C680 1.368 . S
C675 C659 1.349 . S
C675 H667 0.950 . S
C675 C673 1.327 . S
C676 C664 1.349 . S
C676 H670 0.950 . S
C676 C677 1.327 . S
C677 H671 0.950 . S
C677 C676 1.327 . S
C677 C681 1.429 . S
C678 C661 1.574 . S
C678 H672 0.949 . S
C678 C682 1.368 . S
C679 C660 1.429 . S
C679 C673 1.429 . S
C679 C680 1.523 . S
C680 C661 1.368 . S
C680 C674 1.368 . S
C680 C679 1.523 . S
C681 C665 1.429 . S
C681 C677 1.429 . S
C681 C682 1.523 . S
C682 C666 1.368 . S
C682 C678 1.368 . S
C682 C681 1.523 . S
H683 C658 0.950 . S
H684 C660 0.950 . S
H685 C661 0.949 . S
H686 C663 0.950 . S
H687 C665 0.950 . S
C688 C689 1.349 . S
C688 C690 1.327 . S
C688 H713 0.950 . S
C689 C688 1.349 . S
C689 C705 1.349 . S
C690 C688 1.327 . S
C690 C709 1.429 . S
C690 H714 0.950 . S
C691 C708 1.574 . S
C691 C710 1.368 . S
C691 H715 0.949 . S
H692 C696 0.949 . S
C693 C694 1.349 . S
C693 C695 1.327 . S
C693 H716 0.950 . S
C694 C693 1.349 . S
C694 C706 1.349 . S
C695 C693 1.327 . S
C695 C711 1.429 . S
C695 H717 0.950 . S
C696 H692 0.949 . S
C696 C704 1.574 . S
C696 C712 1.368 . S
H697 C705 0.950 . S
H698 C703 0.950 . S
H699 C704 0.949 . S
H700 C706 0.950 . S
H701 C707 0.950 . S
H702 C708 0.949 . S
C703 H698 0.950 . S
C703 C705 1.327 . S
C703 C709 1.429 . S
C704 C696 1.574 . S
C704 H699 0.949 . S
C704 C710 1.368 . S
C705 C689 1.349 . S
C705 H697 0.950 . S
C705 C703 1.327 . S
C706 C694 1.349 . S
C706 H700 0.950 . S
C706 C707 1.327 . S
C707 H701 0.950 . S
C707 C706 1.327 . S
C707 C711 1.429 . S
C708 C691 1.574 . S
C708 H702 0.949 . S
C708 C712 1.368 . S
C709 C690 1.429 . S
C709 C703 1.429 . S
C709 C710 1.523 . S
C710 C691 1.368 . S
C710 C704 1.368 . S
C710 C709 1.523 . S
C711 C695 1.429 . S
C711 C707 1.429 . S
C711 C712 1.523 . S
C712 C696 1.368 . S
C712 C708 1.368 . S
C712 C711 1.523 . S
H713 C688 0.950 . S
H714 C690 0.950 . S
H715 C691 0.949 . S
H716 C693 0.950 . S
H717 C695 0.950 . S
C718 C719 1.349 . S
C718 C720 1.327 . S
C718 H743 0.950 . S
C719 C718 1.349 . S
C719 C735 1.349 . S
C720 C718 1.327 . S
C720 C739 1.429 . S
C720 H744 0.950 . S
C721 C738 1.574 . S
C721 C740 1.368 . S
C721 H745 0.949 . S
H722 C726 0.949 . S
C723 C724 1.349 . S
C723 C725 1.327 . S
C723 H746 0.950 . S
C724 C723 1.349 . S
C724 C736 1.349 . S
C725 C723 1.327 . S
C725 C741 1.429 . S
C725 H747 0.950 . S
C726 H722 0.949 . S
C726 C734 1.574 . S
C726 C742 1.368 . S
H727 C735 0.950 . S
H728 C733 0.950 . S
H729 C734 0.949 . S
H730 C736 0.950 . S
H731 C737 0.950 . S
H732 C738 0.949 . S
C733 H728 0.950 . S
C733 C735 1.327 . S
C733 C739 1.429 . S
C734 C726 1.574 . S
C734 H729 0.949 . S
C734 C740 1.368 . S
C735 C719 1.349 . S
C735 H727 0.950 . S
C735 C733 1.327 . S
C736 C724 1.349 . S
C736 H730 0.950 . S
C736 C737 1.327 . S
C737 H731 0.950 . S
C737 C736 1.327 . S
C737 C741 1.429 . S
C738 C721 1.574 . S
C738 H732 0.949 . S
C738 C742 1.368 . S
C739 C720 1.429 . S
C739 C733 1.429 . S
C739 C740 1.523 . S
C740 C721 1.368 . S
C740 C734 1.368 . S
C740 C739 1.523 . S
C741 C725 1.429 . S
C741 C737 1.429 . S
C741 C742 1.523 . S
C742 C726 1.368 . S
C742 C738 1.368 . S
C742 C741 1.523 . S
H743 C718 0.950 . S
H744 C720 0.950 . S
H745 C721 0.949 . S
H746 C723 0.950 . S
H747 C725 0.950 . S
C748 C749 1.349 . S
C748 C750 1.327 . S
C748 H773 0.950 . S
C749 C748 1.349 . S
C749 C765 1.349 . S
C750 C748 1.327 . S
C750 C769 1.429 . S
C750 H774 0.950 . S
C751 C768 1.574 . S
C751 C770 1.368 . S
C751 H775 0.949 . S
H752 C756 0.949 . S
C753 C754 1.349 . S
C753 C755 1.327 . S
C753 H776 0.950 . S
C754 C753 1.349 . S
C754 C766 1.349 . S
C755 C753 1.327 . S
C755 C771 1.429 . S
C755 H777 0.950 . S
C756 H752 0.949 . S
C756 C764 1.574 . S
C756 C772 1.368 . S
H757 C765 0.950 . S
H758 C763 0.950 . S
H759 C764 0.949 . S
H760 C766 0.950 . S
H761 C767 0.950 . S
H762 C768 0.949 . S
C763 H758 0.950 . S
C763 C765 1.327 . S
C763 C769 1.429 . S
C764 C756 1.574 . S
C764 H759 0.949 . S
C764 C770 1.368 . S
C765 C749 1.349 . S
C765 H757 0.950 . S
C765 C763 1.327 . S
C766 C754 1.349 . S
C766 H760 0.950 . S
C766 C767 1.327 . S
C767 H761 0.950 . S
C767 C766 1.327 . S
C767 C771 1.429 . S
C768 C751 1.574 . S
C768 H762 0.949 . S
C768 C772 1.368 . S
C769 C750 1.429 . S
C769 C763 1.429 . S
C769 C770 1.523 . S
C770 C751 1.368 . S
C770 C764 1.368 . S
C770 C769 1.523 . S
C771 C755 1.429 . S
C771 C767 1.429 . S
C771 C772 1.523 . S
C772 C756 1.368 . S
C772 C768 1.368 . S
C772 C771 1.523 . S
H773 C748 0.950 . S
H774 C750 0.950 . S
H775 C751 0.949 . S
H776 C753 0.950 . S
H777 C755 0.950 . S
C778 C779 1.349 . S
C778 C780 1.327 . S
C778 H803 0.950 . S
C779 C778 1.349 . S
C779 C795 1.349 . S
C780 C778 1.327 . S
C780 C799 1.429 . S
C780 H804 0.950 . S
C781 C798 1.574 . S
C781 C800 1.368 . S
C781 H805 0.949 . S
H782 C786 0.949 . S
C783 C784 1.349 . S
C783 C785 1.327 . S
C783 H806 0.950 . S
C784 C783 1.349 . S
C784 C796 1.349 . S
C785 C783 1.327 . S
C785 C801 1.429 . S
C785 H807 0.950 . S
C786 H782 0.949 . S
C786 C794 1.574 . S
C786 C802 1.368 . S
H787 C795 0.950 . S
H788 C793 0.950 . S
H789 C794 0.949 . S
H790 C796 0.950 . S
H791 C797 0.950 . S
H792 C798 0.949 . S
C793 H788 0.950 . S
C793 C795 1.327 . S
C793 C799 1.429 . S
C794 C786 1.574 . S
C794 H789 0.949 . S
C794 C800 1.368 . S
C795 C779 1.349 . S
C795 H787 0.950 . S
C795 C793 1.327 . S
C796 C784 1.349 . S
C796 H790 0.950 . S
C796 C797 1.327 . S
C797 H791 0.950 . S
C797 C796 1.327 . S
C797 C801 1.429 . S
C798 C781 1.574 . S
C798 H792 0.949 . S
C798 C802 1.368 . S
C799 C780 1.429 . S
C799 C793 1.429 . S
C799 C800 1.523 . S
C800 C781 1.368 . S
C800 C794 1.368 . S
C800 C799 1.523 . S
C801 C785 1.429 . S
C801 C797 1.429 . S
C801 C802 1.523 . S
C802 C786 1.368 . S
C802 C798 1.368 . S
C802 C801 1.523 . S
H803 C778 0.950 . S
H804 C780 0.950 . S
H805 C781 0.949 . S
H806 C783 0.950 . S
H807 C785 0.950 . S
C808 C809 1.349 . S
C808 C810 1.327 . S
C808 H833 0.950 . S
C809 C808 1.349 . S
C809 C825 1.349 . S
C810 C808 1.327 . S
C810 C829 1.429 . S
C810 H834 0.950 . S
C811 C828 1.574 . S
C811 C830 1.368 . S
C811 H835 0.949 . S
H812 C816 0.949 . S
C813 C814 1.349 . S
C813 C815 1.327 . S
C813 H836 0.950 . S
C814 C813 1.349 . S
C814 C826 1.349 . S
C815 C813 1.327 . S
C815 C831 1.429 . S
C815 H837 0.950 . S
C816 H812 0.949 . S
C816 C824 1.574 . S
C816 C832 1.368 . S
H817 C825 0.950 . S
H818 C823 0.950 . S
H819 C824 0.949 . S
H820 C826 0.950 . S
H821 C827 0.950 . S
H822 C828 0.949 . S
C823 H818 0.950 . S
C823 C825 1.327 . S
C823 C829 1.429 . S
C824 C816 1.574 . S
C824 H819 0.949 . S
C824 C830 1.368 . S
C825 C809 1.349 . S
C825 H817 0.950 . S
C825 C823 1.327 . S
C826 C814 1.349 . S
C826 H820 0.950 . S
C826 C827 1.327 . S
C827 H821 0.950 . S
C827 C826 1.327 . S
C827 C831 1.429 . S
C828 C811 1.574 . S
C828 H822 0.949 . S
C828 C832 1.368 . S
C829 C810 1.429 . S
C829 C823 1.429 . S
C829 C830 1.523 . S
C830 C811 1.368 . S
C830 C824 1.368 . S
C830 C829 1.523 . S
C831 C815 1.429 . S
C831 C827 1.429 . S
C831 C832 1.523 . S
C832 C816 1.368 . S
C832 C828 1.368 . S
C832 C831 1.523 . S
H833 C808 0.950 . S
H834 C810 0.950 . S
H835 C811 0.949 . S
H836 C813 0.950 . S
H837 C815 0.950 . S
C838 C839 1.349 . S
C838 C840 1.327 . S
C838 H863 0.950 . S
C839 C838 1.349 . S
C839 C855 1.349 . S
C840 C838 1.327 . S
C840 C859 1.429 . S
C840 H864 0.950 . S
C841 C858 1.574 . S
C841 C860 1.368 . S
C841 H865 0.949 . S
H842 C846 0.949 . S
C843 C844 1.349 . S
C843 C845 1.327 . S
C843 H866 0.950 . S
C844 C843 1.349 . S
C844 C856 1.349 . S
C845 C843 1.327 . S
C845 C861 1.429 . S
C845 H867 0.950 . S
C846 H842 0.949 . S
C846 C854 1.574 . S
C846 C862 1.368 . S
H847 C855 0.950 . S
H848 C853 0.950 . S
H849 C854 0.949 . S
H850 C856 0.950 . S
H851 C857 0.950 . S
H852 C858 0.949 . S
C853 H848 0.950 . S
C853 C855 1.327 . S
C853 C859 1.429 . S
C854 C846 1.574 . S
C854 H849 0.949 . S
C854 C860 1.368 . S
C855 C839 1.349 . S
C855 H847 0.950 . S
C855 C853 1.327 . S
C856 C844 1.349 . S
C856 H850 0.950 . S
C856 C857 1.327 . S
C857 H851 0.950 . S
C857 C856 1.327 . S
C857 C861 1.429 . S
C858 C841 1.574 . S
C858 H852 0.949 . S
C858 C862 1.368 . S
C859 C840 1.429 . S
C859 C853 1.429 . S
C859 C860 1.523 . S
C860 C841 1.368 . S
C860 C854 1.368 . S
C860 C859 1.523 . S
C861 C845 1.429 . S
C861 C857 1.429 . S
C861 C862 1.523 . S
C862 C846 1.368 . S
C862 C858 1.368 . S
C862 C861 1.523 . S
H863 C838 0.950 . S
H864 C840 0.950 . S
H865 C841 0.949 . S
H866 C843 0.950 . S
H867 C845 0.950 . S
C868 C869 1.349 . S
C868 C870 1.327 . S
C868 H893 0.950 . S
C869 C868 1.349 . S
C869 C885 1.349 . S
C870 C868 1.327 . S
C870 C889 1.429 . S
C870 H894 0.950 . S
C871 C888 1.574 . S
C871 C890 1.368 . S
C871 H895 0.949 . S
H872 C876 0.949 . S
C873 C874 1.349 . S
C873 C875 1.327 . S
C873 H896 0.950 . S
C874 C873 1.349 . S
C874 C886 1.349 . S
C875 C873 1.327 . S
C875 C891 1.429 . S
C875 H897 0.950 . S
C876 H872 0.949 . S
C876 C884 1.574 . S
C876 C892 1.368 . S
H877 C885 0.950 . S
H878 C883 0.950 . S
H879 C884 0.949 . S
H880 C886 0.950 . S
H881 C887 0.950 . S
H882 C888 0.949 . S
C883 H878 0.950 . S
C883 C885 1.327 . S
C883 C889 1.429 . S
C884 C876 1.574 . S
C884 H879 0.949 . S
C884 C890 1.368 . S
C885 C869 1.349 . S
C885 H877 0.950 . S
C885 C883 1.327 . S
C886 C874 1.349 . S
C886 H880 0.950 . S
C886 C887 1.327 . S
C887 H881 0.950 . S
C887 C886 1.327 . S
C887 C891 1.429 . S
C888 C871 1.574 . S
C888 H882 0.949 . S
C888 C892 1.368 . S
C889 C870 1.429 . S
C889 C883 1.429 . S
C889 C890 1.523 . S
C890 C871 1.368 . S
C890 C884 1.368 . S
C890 C889 1.523 . S
C891 C875 1.429 . S
C891 C887 1.429 . S
C891 C892 1.523 . S
C892 C876 1.368 . S
C892 C888 1.368 . S
C892 C891 1.523 . S
H893 C868 0.950 . S
H894 C870 0.950 . S
H895 C871 0.949 . S
H896 C873 0.950 . S
H897 C875 0.950 . S
C898 C899 1.349 . S
C898 C900 1.327 . S
C898 H923 0.950 . S
C899 C898 1.349 . S
C899 C915 1.349 . S
C900 C898 1.327 . S
C900 C919 1.429 . S
C900 H924 0.950 . S
C901 C918 1.574 . S
C901 C920 1.368 . S
C901 H925 0.949 . S
H902 C906 0.949 . S
C903 C904 1.349 . S
C903 C905 1.327 . S
C903 H926 0.950 . S
C904 C903 1.349 . S
C904 C916 1.349 . S
C905 C903 1.327 . S
C905 C921 1.429 . S
C905 H927 0.950 . S
C906 H902 0.949 . S
C906 C914 1.574 . S
C906 C922 1.368 . S
H907 C915 0.950 . S
H908 C913 0.950 . S
H909 C914 0.949 . S
H910 C916 0.950 . S
H911 C917 0.950 . S
H912 C918 0.949 . S
C913 H908 0.950 . S
C913 C915 1.327 . S
C913 C919 1.429 . S
C914 C906 1.574 . S
C914 H909 0.949 . S
C914 C920 1.368 . S
C915 C899 1.349 . S
C915 H907 0.950 . S
C915 C913 1.327 . S
C916 C904 1.349 . S
C916 H910 0.950 . S
C916 C917 1.327 . S
C917 H911 0.950 . S
C917 C916 1.327 . S
C917 C921 1.429 . S
C918 C901 1.574 . S
C918 H912 0.949 . S
C918 C922 1.368 . S
C919 C900 1.429 . S
C919 C913 1.429 . S
C919 C920 1.523 . S
C920 C901 1.368 . S
C920 C914 1.368 . S
C920 C919 1.523 . S
C921 C905 1.429 . S
C921 C917 1.429 . S
C921 C922 1.523 . S
C922 C906 1.368 . S
C922 C918 1.368 . S
C922 C921 1.523 . S
H923 C898 0.950 . S
H924 C900 0.950 . S
H925 C901 0.949 . S
H926 C903 0.950 . S
H927 C905 0.950 . S
C928 C929 1.349 . S
C928 C930 1.327 . S
C928 H953 0.950 . S
C929 C928 1.349 . S
C929 C945 1.349 . S
C930 C928 1.327 . S
C930 C949 1.429 . S
C930 H954 0.950 . S
C931 C948 1.574 1_554 S
C931 C950 1.368 . S
C931 H955 0.949 . S
H932 C936 0.949 . S
C933 C934 1.349 . S
C933 C935 1.327 . S
C933 H956 0.950 . S
C934 C933 1.349 . S
C934 C946 1.349 . S
C935 C933 1.327 . S
C935 C951 1.429 . S
C935 H957 0.950 . S
C936 H932 0.949 . S
C936 C944 1.574 1_556 S
C936 C952 1.368 . S
H937 C945 0.950 . S
H938 C943 0.950 . S
H939 C944 0.949 . S
H940 C946 0.950 . S
H941 C947 0.950 . S
H942 C948 0.949 . S
C943 H938 0.950 . S
C943 C945 1.327 . S
C943 C949 1.429 . S
C944 C936 1.574 1_554 S
C944 H939 0.949 . S
C944 C950 1.368 . S
C945 C929 1.349 . S
C945 H937 0.950 . S
C945 C943 1.327 . S
C946 C934 1.349 . S
C946 H940 0.950 . S
C946 C947 1.327 . S
C947 H941 0.950 . S
C947 C946 1.327 . S
C947 C951 1.429 . S
C948 C931 1.574 1_556 S
C948 H942 0.949 . S
C948 C952 1.368 . S
C949 C930 1.429 . S
C949 C943 1.429 . S
C949 C950 1.523 . S
C950 C931 1.368 . S
C950 C944 1.368 . S
C950 C949 1.523 . S
C951 C935 1.429 . S
C951 C947 1.429 . S
C951 C952 1.523 . S
C952 C936 1.368 . S
C952 C948 1.368 . S
C952 C951 1.523 . S
H953 C928 0.950 . S
H954 C930 0.950 . S
H955 C931 0.949 . S
H956 C933 0.950 . S
H957 C935 0.950 . S
C958 C959 1.349 . S
C958 C960 1.327 . S
C958 H983 0.950 . S
C959 C958 1.349 . S
C959 C975 1.349 . S
C960 C958 1.327 . S
C960 C979 1.429 . S
C960 H984 0.950 . S
C961 C978 1.574 1_556 S
C961 C980 1.368 . S
C961 H985 0.949 . S
H962 C966 0.949 . S
C963 C964 1.349 . S
C963 C965 1.327 . S
C963 H986 0.950 . S
C964 C963 1.349 . S
C964 C976 1.349 . S
C965 C963 1.327 . S
C965 C981 1.429 . S
C965 H987 0.950 . S
C966 H962 0.949 . S
C966 C974 1.574 1_554 S
C966 C982 1.368 . S
H967 C975 0.950 . S
H968 C973 0.950 . S
H969 C974 0.949 . S
H970 C976 0.950 . S
H971 C977 0.950 . S
H972 C978 0.949 . S
C973 H968 0.950 . S
C973 C975 1.327 . S
C973 C979 1.429 . S
C974 C966 1.574 1_556 S
C974 H969 0.949 . S
C974 C980 1.368 . S
C975 C959 1.349 . S
C975 H967 0.950 . S
C975 C973 1.327 . S
C976 C964 1.349 . S
C976 H970 0.950 . S
C976 C977 1.327 . S
C977 H971 0.950 . S
C977 C976 1.327 . S
C977 C981 1.429 . S
C978 C961 1.574 1_554 S
C978 H972 0.949 . S
C978 C982 1.368 . S
C979 C960 1.429 . S
C979 C973 1.429 . S
C979 C980 1.523 . S
C980 C961 1.368 . S
C980 C974 1.368 . S
C980 C979 1.523 . S
C981 C965 1.429 . S
C981 C977 1.429 . S
C981 C982 1.523 . S
C982 C966 1.368 . S
C982 C978 1.368 . S
C982 C981 1.523 . S
H983 C958 0.950 . S
H984 C960 0.950 . S
H985 C961 0.949 . S
H986 C963 0.950 . S
H987 C965 0.950 . S
C988 C989 1.349 . S
C988 C990 1.327 . S
C988 H1013 0.950 . S
C989 C988 1.349 . S
C989 C1005 1.349 . S
C990 C988 1.327 . S
C990 C1009 1.429 . S
C990 H1014 0.950 . S
C991 C1008 1.574 1_556 S
C991 C1010 1.368 . S
C991 H1015 0.949 . S
H992 C996 0.949 . S
C993 C994 1.349 . S
C993 C995 1.327 . S
C993 H1016 0.950 . S
C994 C993 1.349 . S
C994 C1006 1.349 . S
C995 C993 1.327 . S
C995 C1011 1.429 . S
C995 H1017 0.950 . S
C996 H992 0.949 . S
C996 C1004 1.574 1_554 S
C996 C1012 1.368 . S
H997 C1005 0.950 . S
H998 C1003 0.950 . S
H999 C1004 0.949 . S
H1000 C1006 0.950 . S
H1001 C1007 0.950 . S
H1002 C1008 0.949 . S
C1003 H998 0.950 . S
C1003 C1005 1.327 . S
C1003 C1009 1.429 . S
C1004 C996 1.574 1_556 S
C1004 H999 0.949 . S
C1004 C1010 1.368 . S
C1005 C989 1.349 . S
C1005 H997 0.950 . S
C1005 C1003 1.327 . S
C1006 C994 1.349 . S
C1006 H1000 0.950 . S
C1006 C1007 1.327 . S
C1007 H1001 0.950 . S
C1007 C1006 1.327 . S
C1007 C1011 1.429 . S
C1008 C991 1.574 1_554 S
C1008 H1002 0.949 . S
C1008 C1012 1.368 . S
C1009 C990 1.429 . S
C1009 C1003 1.429 . S
C1009 C1010 1.523 . S
C1010 C991 1.368 . S
C1010 C1004 1.368 . S
C1010 C1009 1.523 . S
C1011 C995 1.429 . S
C1011 C1007 1.429 . S
C1011 C1012 1.523 . S
C1012 C996 1.368 . S
C1012 C1008 1.368 . S
C1012 C1011 1.523 . S
H1013 C988 0.950 . S
H1014 C990 0.950 . S
H1015 C991 0.949 . S
H1016 C993 0.950 . S
H1017 C995 0.950 . S
C1018 C1019 1.349 . S
C1018 C1020 1.327 . S
C1018 H1043 0.950 . S
C1019 C1018 1.349 . S
C1019 C1035 1.349 . S
C1020 C1018 1.327 . S
C1020 C1039 1.429 . S
C1020 H1044 0.950 . S
C1021 C1038 1.574 1_556 S
C1021 C1040 1.368 . S
C1021 H1045 0.949 . S
H1022 C1026 0.949 . S
C1023 C1024 1.349 . S
C1023 C1025 1.327 . S
C1023 H1046 0.950 . S
C1024 C1023 1.349 . S
C1024 C1036 1.349 . S
C1025 C1023 1.327 . S
C1025 C1041 1.429 . S
C1025 H1047 0.950 . S
C1026 H1022 0.949 . S
C1026 C1034 1.574 1_554 S
C1026 C1042 1.368 . S
H1027 C1035 0.950 . S
H1028 C1033 0.950 . S
H1029 C1034 0.949 . S
H1030 C1036 0.950 . S
H1031 C1037 0.950 . S
H1032 C1038 0.949 . S
C1033 H1028 0.950 . S
C1033 C1035 1.327 . S
C1033 C1039 1.429 . S
C1034 C1026 1.574 1_556 S
C1034 H1029 0.949 . S
C1034 C1040 1.368 . S
C1035 C1019 1.349 . S
C1035 H1027 0.950 . S
C1035 C1033 1.327 . S
C1036 C1024 1.349 . S
C1036 H1030 0.950 . S
C1036 C1037 1.327 . S
C1037 H1031 0.950 . S
C1037 C1036 1.327 . S
C1037 C1041 1.429 . S
C1038 C1021 1.574 1_554 S
C1038 H1032 0.949 . S
C1038 C1042 1.368 . S
C1039 C1020 1.429 . S
C1039 C1033 1.429 . S
C1039 C1040 1.523 . S
C1040 C1021 1.368 . S
C1040 C1034 1.368 . S
C1040 C1039 1.523 . S
C1041 C1025 1.429 . S
C1041 C1037 1.429 . S
C1041 C1042 1.523 . S
C1042 C1026 1.368 . S
C1042 C1038 1.368 . S
C1042 C1041 1.523 . S
H1043 C1018 0.950 . S
H1044 C1020 0.950 . S
H1045 C1021 0.949 . S
H1046 C1023 0.950 . S
H1047 C1025 0.950 . S
C1048 C1049 1.349 . S
C1048 C1050 1.327 . S
C1048 H1073 0.950 . S
C1049 C1048 1.349 . S
C1049 C1065 1.349 . S
C1050 C1048 1.327 . S
C1050 C1069 1.429 . S
C1050 H1074 0.950 . S
C1051 C1068 1.574 . S
C1051 C1070 1.368 . S
C1051 H1075 0.949 . S
H1052 C1056 0.949 . S
C1053 C1054 1.349 . S
C1053 C1055 1.327 . S
C1053 H1076 0.950 . S
C1054 C1053 1.349 . S
C1054 C1066 1.349 . S
C1055 C1053 1.327 . S
C1055 C1071 1.429 . S
C1055 H1077 0.950 . S
C1056 H1052 0.949 . S
C1056 C1064 1.574 . S
C1056 C1072 1.368 . S
H1057 C1065 0.950 . S
H1058 C1063 0.950 . S
H1059 C1064 0.949 . S
H1060 C1066 0.950 . S
H1061 C1067 0.950 . S
H1062 C1068 0.949 . S
C1063 H1058 0.950 . S
C1063 C1065 1.327 . S
C1063 C1069 1.429 . S
C1064 C1056 1.574 . S
C1064 H1059 0.949 . S
C1064 C1070 1.368 . S
C1065 C1049 1.349 . S
C1065 H1057 0.950 . S
C1065 C1063 1.327 . S
C1066 C1054 1.349 . S
C1066 H1060 0.950 . S
C1066 C1067 1.327 . S
C1067 H1061 0.950 . S
C1067 C1066 1.327 . S
C1067 C1071 1.429 . S
C1068 C1051 1.574 . S
C1068 H1062 0.949 . S
C1068 C1072 1.368 . S
C1069 C1050 1.429 . S
C1069 C1063 1.429 . S
C1069 C1070 1.523 . S
C1070 C1051 1.368 . S
C1070 C1064 1.368 . S
C1070 C1069 1.523 . S
C1071 C1055 1.429 . S
C1071 C1067 1.429 . S
C1071 C1072 1.523 . S
C1072 C1056 1.368 . S
C1072 C1068 1.368 . S
C1072 C1071 1.523 . S
H1073 C1048 0.950 . S
H1074 C1050 0.950 . S
H1075 C1051 0.949 . S
H1076 C1053 0.950 . S
H1077 C1055 0.950 . S
C1078 C1079 1.349 . S
C1078 C1080 1.327 . S
C1078 H1103 0.950 . S
C1079 C1078 1.349 . S
C1079 C1095 1.349 . S
C1080 C1078 1.327 . S
C1080 C1099 1.429 . S
C1080 H1104 0.950 . S
C1081 C1098 1.574 . S
C1081 C1100 1.368 . S
C1081 H1105 0.949 . S
H1082 C1086 0.949 . S
C1083 C1084 1.349 . S
C1083 C1085 1.327 . S
C1083 H1106 0.950 . S
C1084 C1083 1.349 . S
C1084 C1096 1.349 . S
C1085 C1083 1.327 . S
C1085 C1101 1.429 . S
C1085 H1107 0.950 . S
C1086 H1082 0.949 . S
C1086 C1094 1.574 . S
C1086 C1102 1.368 . S
H1087 C1095 0.950 . S
H1088 C1093 0.950 . S
H1089 C1094 0.949 . S
H1090 C1096 0.950 . S
H1091 C1097 0.950 . S
H1092 C1098 0.949 . S
C1093 H1088 0.950 . S
C1093 C1095 1.327 . S
C1093 C1099 1.429 . S
C1094 C1086 1.574 . S
C1094 H1089 0.949 . S
C1094 C1100 1.368 . S
C1095 C1079 1.349 . S
C1095 H1087 0.950 . S
C1095 C1093 1.327 . S
C1096 C1084 1.349 . S
C1096 H1090 0.950 . S
C1096 C1097 1.327 . S
C1097 H1091 0.950 . S
C1097 C1096 1.327 . S
C1097 C1101 1.429 . S
C1098 C1081 1.574 . S
C1098 H1092 0.949 . S
C1098 C1102 1.368 . S
C1099 C1080 1.429 . S
C1099 C1093 1.429 . S
C1099 C1100 1.523 . S
C1100 C1081 1.368 . S
C1100 C1094 1.368 . S
C1100 C1099 1.523 . S
C1101 C1085 1.429 . S
C1101 C1097 1.429 . S
C1101 C1102 1.523 . S
C1102 C1086 1.368 . S
C1102 C1098 1.368 . S
C1102 C1101 1.523 . S
H1103 C1078 0.950 . S
H1104 C1080 0.950 . S
H1105 C1081 0.949 . S
H1106 C1083 0.950 . S
H1107 C1085 0.950 . S
C1108 C1109 1.349 . S
C1108 C1110 1.327 . S
C1108 H1133 0.950 . S
C1109 C1108 1.349 . S
C1109 C1125 1.349 . S
C1110 C1108 1.327 . S
C1110 C1129 1.429 . S
C1110 H1134 0.950 . S
C1111 C1128 1.574 . S
C1111 C1130 1.368 . S
C1111 H1135 0.949 . S
H1112 C1116 0.949 . S
C1113 C1114 1.349 . S
C1113 C1115 1.327 . S
C1113 H1136 0.950 . S
C1114 C1113 1.349 . S
C1114 C1126 1.349 . S
C1115 C1113 1.327 . S
C1115 C1131 1.429 . S
C1115 H1137 0.950 . S
C1116 H1112 0.949 . S
C1116 C1124 1.574 . S
C1116 C1132 1.368 . S
H1117 C1125 0.950 . S
H1118 C1123 0.950 . S
H1119 C1124 0.949 . S
H1120 C1126 0.950 . S
H1121 C1127 0.950 . S
H1122 C1128 0.949 . S
C1123 H1118 0.950 . S
C1123 C1125 1.327 . S
C1123 C1129 1.429 . S
C1124 C1116 1.574 . S
C1124 H1119 0.949 . S
C1124 C1130 1.368 . S
C1125 C1109 1.349 . S
C1125 H1117 0.950 . S
C1125 C1123 1.327 . S
C1126 C1114 1.349 . S
C1126 H1120 0.950 . S
C1126 C1127 1.327 . S
C1127 H1121 0.950 . S
C1127 C1126 1.327 . S
C1127 C1131 1.429 . S
C1128 C1111 1.574 . S
C1128 H1122 0.949 . S
C1128 C1132 1.368 . S
C1129 C1110 1.429 . S
C1129 C1123 1.429 . S
C1129 C1130 1.523 . S
C1130 C1111 1.368 . S
C1130 C1124 1.368 . S
C1130 C1129 1.523 . S
C1131 C1115 1.429 . S
C1131 C1127 1.429 . S
C1131 C1132 1.523 . S
C1132 C1116 1.368 . S
C1132 C1128 1.368 . S
C1132 C1131 1.523 . S
H1133 C1108 0.950 . S
H1134 C1110 0.950 . S
H1135 C1111 0.949 . S
H1136 C1113 0.950 . S
H1137 C1115 0.950 . S
C1138 C1139 1.349 . S
C1138 C1140 1.327 . S
C1138 H1163 0.950 . S
C1139 C1138 1.349 . S
C1139 C1155 1.349 . S
C1140 C1138 1.327 . S
C1140 C1159 1.429 . S
C1140 H1164 0.950 . S
C1141 C1158 1.574 . S
C1141 C1160 1.368 . S
C1141 H1165 0.949 . S
H1142 C1146 0.949 . S
C1143 C1144 1.349 . S
C1143 C1145 1.327 . S
C1143 H1166 0.950 . S
C1144 C1143 1.349 . S
C1144 C1156 1.349 . S
C1145 C1143 1.327 . S
C1145 C1161 1.429 . S
C1145 H1167 0.950 . S
C1146 H1142 0.949 . S
C1146 C1154 1.574 . S
C1146 C1162 1.368 . S
H1147 C1155 0.950 . S
H1148 C1153 0.950 . S
H1149 C1154 0.949 . S
H1150 C1156 0.950 . S
H1151 C1157 0.950 . S
H1152 C1158 0.949 . S
C1153 H1148 0.950 . S
C1153 C1155 1.327 . S
C1153 C1159 1.429 . S
C1154 C1146 1.574 . S
C1154 H1149 0.949 . S
C1154 C1160 1.368 . S
C1155 C1139 1.349 . S
C1155 H1147 0.950 . S
C1155 C1153 1.327 . S
C1156 C1144 1.349 . S
C1156 H1150 0.950 . S
C1156 C1157 1.327 . S
C1157 H1151 0.950 . S
C1157 C1156 1.327 . S
C1157 C1161 1.429 . S
C1158 C1141 1.574 . S
C1158 H1152 0.949 . S
C1158 C1162 1.368 . S
C1159 C1140 1.429 . S
C1159 C1153 1.429 . S
C1159 C1160 1.523 . S
C1160 C1141 1.368 . S
C1160 C1154 1.368 . S
C1160 C1159 1.523 . S
C1161 C1145 1.429 . S
C1161 C1157 1.429 . S
C1161 C1162 1.523 . S
C1162 C1146 1.368 . S
C1162 C1158 1.368 . S
C1162 C1161 1.523 . S
H1163 C1138 0.950 . S
H1164 C1140 0.950 . S
H1165 C1141 0.949 . S
H1166 C1143 0.950 . S
H1167 C1145 0.950 . S
C1168 C1169 1.349 . S
C1168 C1170 1.327 . S
C1168 H1193 0.950 . S
C1169 C1168 1.349 . S
C1169 C1185 1.349 . S
C1170 C1168 1.327 . S
C1170 C1189 1.429 . S
C1170 H1194 0.950 . S
C1171 C1188 1.574 . S
C1171 C1190 1.368 . S
C1171 H1195 0.949 . S
H1172 C1176 0.949 . S
C1173 C1174 1.349 . S
C1173 C1175 1.327 . S
C1173 H1196 0.950 . S
C1174 C1173 1.349 . S
C1174 C1186 1.349 . S
C1175 C1173 1.327 . S
C1175 C1191 1.429 . S
C1175 H1197 0.950 . S
C1176 H1172 0.949 . S
C1176 C1184 1.574 . S
C1176 C1192 1.368 . S
H1177 C1185 0.950 . S
H1178 C1183 0.950 . S
H1179 C1184 0.949 . S
H1180 C1186 0.950 . S
H1181 C1187 0.950 . S
H1182 C1188 0.949 . S
C1183 H1178 0.950 . S
C1183 C1185 1.327 . S
C1183 C1189 1.429 . S
C1184 C1176 1.574 . S
C1184 H1179 0.949 . S
C1184 C1190 1.368 . S
C1185 C1169 1.349 . S
C1185 H1177 0.950 . S
C1185 C1183 1.327 . S
C1186 C1174 1.349 . S
C1186 H1180 0.950 . S
C1186 C1187 1.327 . S
C1187 H1181 0.950 . S
C1187 C1186 1.327 . S
C1187 C1191 1.429 . S
C1188 C1171 1.574 . S
C1188 H1182 0.949 . S
C1188 C1192 1.368 . S
C1189 C1170 1.429 . S
C1189 C1183 1.429 . S
C1189 C1190 1.523 . S
C1190 C1171 1.368 . S
C1190 C1184 1.368 . S
C1190 C1189 1.523 . S
C1191 C1175 1.429 . S
C1191 C1187 1.429 . S
C1191 C1192 1.523 . S
C1192 C1176 1.368 . S
C1192 C1188 1.368 . S
C1192 C1191 1.523 . S
H1193 C1168 0.950 . S
H1194 C1170 0.950 . S
H1195 C1171 0.949 . S
H1196 C1173 0.950 . S
H1197 C1175 0.950 . S
C1198 C1199 1.349 . S
C1198 C1200 1.327 . S
C1198 H1223 0.950 . S
C1199 C1198 1.349 . S
C1199 C1215 1.349 . S
C1200 C1198 1.327 . S
C1200 C1219 1.429 . S
C1200 H1224 0.950 . S
C1201 C1218 1.574 . S
C1201 C1220 1.368 . S
C1201 H1225 0.949 . S
H1202 C1206 0.949 . S
C1203 C1204 1.349 . S
C1203 C1205 1.327 . S
C1203 H1226 0.950 . S
C1204 C1203 1.349 . S
C1204 C1216 1.349 . S
C1205 C1203 1.327 . S
C1205 C1221 1.429 . S
C1205 H1227 0.950 . S
C1206 H1202 0.949 . S
C1206 C1214 1.574 . S
C1206 C1222 1.368 . S
H1207 C1215 0.950 . S
H1208 C1213 0.950 . S
H1209 C1214 0.949 . S
H1210 C1216 0.950 . S
H1211 C1217 0.950 . S
H1212 C1218 0.949 . S
C1213 H1208 0.950 . S
C1213 C1215 1.327 . S
C1213 C1219 1.429 . S
C1214 C1206 1.574 . S
C1214 H1209 0.949 . S
C1214 C1220 1.368 . S
C1215 C1199 1.349 . S
C1215 H1207 0.950 . S
C1215 C1213 1.327 . S
C1216 C1204 1.349 . S
C1216 H1210 0.950 . S
C1216 C1217 1.327 . S
C1217 H1211 0.950 . S
C1217 C1216 1.327 . S
C1217 C1221 1.429 . S
C1218 C1201 1.574 . S
C1218 H1212 0.949 . S
C1218 C1222 1.368 . S
C1219 C1200 1.429 . S
C1219 C1213 1.429 . S
C1219 C1220 1.523 . S
C1220 C1201 1.368 . S
C1220 C1214 1.368 . S
C1220 C1219 1.523 . S
C1221 C1205 1.429 . S
C1221 C1217 1.429 . S
C1221 C1222 1.523 . S
C1222 C1206 1.368 . S
C1222 C1218 1.368 . S
C1222 C1221 1.523 . S
H1223 C1198 0.950 . S
H1224 C1200 0.950 . S
H1225 C1201 0.949 . S
H1226 C1203 0.950 . S
H1227 C1205 0.950 . S
C1228 C1229 1.349 . S
C1228 C1230 1.327 . S
C1228 H1253 0.950 . S
C1229 C1228 1.349 . S
C1229 C1245 1.349 . S
C1230 C1228 1.327 . S
C1230 C1249 1.429 . S
C1230 H1254 0.950 . S
C1231 C1248 1.574 . S
C1231 C1250 1.368 . S
C1231 H1255 0.949 . S
H1232 C1236 0.949 . S
C1233 C1234 1.349 . S
C1233 C1235 1.327 . S
C1233 H1256 0.950 . S
C1234 C1233 1.349 . S
C1234 C1246 1.349 . S
C1235 C1233 1.327 . S
C1235 C1251 1.429 . S
C1235 H1257 0.950 . S
C1236 H1232 0.949 . S
C1236 C1244 1.574 . S
C1236 C1252 1.368 . S
H1237 C1245 0.950 . S
H1238 C1243 0.950 . S
H1239 C1244 0.949 . S
H1240 C1246 0.950 . S
H1241 C1247 0.950 . S
H1242 C1248 0.949 . S
C1243 H1238 0.950 . S
C1243 C1245 1.327 . S
C1243 C1249 1.429 . S
C1244 C1236 1.574 . S
C1244 H1239 0.949 . S
C1244 C1250 1.368 . S
C1245 C1229 1.349 . S
C1245 H1237 0.950 . S
C1245 C1243 1.327 . S
C1246 C1234 1.349 . S
C1246 H1240 0.950 . S
C1246 C1247 1.327 . S
C1247 H1241 0.950 . S
C1247 C1246 1.327 . S
C1247 C1251 1.429 . S
C1248 C1231 1.574 . S
C1248 H1242 0.949 . S
C1248 C1252 1.368 . S
C1249 C1230 1.429 . S
C1249 C1243 1.429 . S
C1249 C1250 1.523 . S
C1250 C1231 1.368 . S
C1250 C1244 1.368 . S
C1250 C1249 1.523 . S
C1251 C1235 1.429 . S
C1251 C1247 1.429 . S
C1251 C1252 1.523 . S
C1252 C1236 1.368 . S
C1252 C1248 1.368 . S
C1252 C1251 1.523 . S
H1253 C1228 0.950 . S
H1254 C1230 0.950 . S
H1255 C1231 0.949 . S
H1256 C1233 0.950 . S
H1257 C1235 0.950 . S
C1258 C1259 1.349 . S
C1258 C1260 1.327 . S
C1258 H1283 0.950 . S
C1259 C1258 1.349 . S
C1259 C1275 1.349 . S
C1260 C1258 1.327 . S
C1260 C1279 1.429 . S
C1260 H1284 0.950 . S
C1261 C1278 1.574 . S
C1261 C1280 1.368 . S
C1261 H1285 0.949 . S
H1262 C1266 0.949 . S
C1263 C1264 1.349 . S
C1263 C1265 1.327 . S
C1263 H1286 0.950 . S
C1264 C1263 1.349 . S
C1264 C1276 1.349 . S
C1265 C1263 1.327 . S
C1265 C1281 1.429 . S
C1265 H1287 0.950 . S
C1266 H1262 0.949 . S
C1266 C1274 1.574 . S
C1266 C1282 1.368 . S
H1267 C1275 0.950 . S
H1268 C1273 0.950 . S
H1269 C1274 0.949 . S
H1270 C1276 0.950 . S
H1271 C1277 0.950 . S
H1272 C1278 0.949 . S
C1273 H1268 0.950 . S
C1273 C1275 1.327 . S
C1273 C1279 1.429 . S
C1274 C1266 1.574 . S
C1274 H1269 0.949 . S
C1274 C1280 1.368 . S
C1275 C1259 1.349 . S
C1275 H1267 0.950 . S
C1275 C1273 1.327 . S
C1276 C1264 1.349 . S
C1276 H1270 0.950 . S
C1276 C1277 1.327 . S
C1277 H1271 0.950 . S
C1277 C1276 1.327 . S
C1277 C1281 1.429 . S
C1278 C1261 1.574 . S
C1278 H1272 0.949 . S
C1278 C1282 1.368 . S
C1279 C1260 1.429 . S
C1279 C1273 1.429 . S
C1279 C1280 1.523 . S
C1280 C1261 1.368 . S
C1280 C1274 1.368 . S
C1280 C1279 1.523 . S
C1281 C1265 1.429 . S
C1281 C1277 1.429 . S
C1281 C1282 1.523 . S
C1282 C1266 1.368 . S
C1282 C1278 1.368 . S
C1282 C1281 1.523 . S
H1283 C1258 0.950 . S
H1284 C1260 0.950 . S
H1285 C1261 0.949 . S
H1286 C1263 0.950 . S
H1287 C1265 0.950 . S
C1288 C1289 1.349 . S
C1288 C1290 1.327 . S
C1288 H1313 0.950 . S
C1289 C1288 1.349 . S
C1289 C1305 1.349 . S
C1290 C1288 1.327 . S
C1290 C1309 1.429 . S
C1290 H1314 0.950 . S
C1291 C1308 1.574 1_556 S
C1291 C1310 1.368 . S
C1291 H1315 0.949 . S
H1292 C1296 0.949 . S
C1293 C1294 1.349 . S
C1293 C1295 1.327 . S
C1293 H1316 0.950 . S
C1294 C1293 1.349 . S
C1294 C1306 1.349 . S
C1295 C1293 1.327 . S
C1295 C1311 1.429 . S
C1295 H1317 0.950 . S
C1296 H1292 0.949 . S
C1296 C1304 1.574 1_554 S
C1296 C1312 1.368 . S
H1297 C1305 0.950 . S
H1298 C1303 0.950 . S
H1299 C1304 0.949 . S
H1300 C1306 0.950 . S
H1301 C1307 0.950 . S
H1302 C1308 0.949 . S
C1303 H1298 0.950 . S
C1303 C1305 1.327 . S
C1303 C1309 1.429 . S
C1304 C1296 1.574 1_556 S
C1304 H1299 0.949 . S
C1304 C1310 1.368 . S
C1305 C1289 1.349 . S
C1305 H1297 0.950 . S
C1305 C1303 1.327 . S
C1306 C1294 1.349 . S
C1306 H1300 0.950 . S
C1306 C1307 1.327 . S
C1307 H1301 0.950 . S
C1307 C1306 1.327 . S
C1307 C1311 1.429 . S
C1308 C1291 1.574 1_554 S
C1308 H1302 0.949 . S
C1308 C1312 1.368 . S
C1309 C1290 1.429 . S
C1309 C1303 1.429 . S
C1309 C1310 1.523 . S
C1310 C1291 1.368 . S
C1310 C1304 1.368 . S
C1310 C1309 1.523 . S
C1311 C1295 1.429 . S
C1311 C1307 1.429 . S
C1311 C1312 1.523 . S
C1312 C1296 1.368 . S
C1312 C1308 1.368 . S
C1312 C1311 1.523 . S
H1313 C1288 0.950 . S
H1314 C1290 0.950 . S
H1315 C1291 0.949 . S
H1316 C1293 0.950 . S
H1317 C1295 0.950 . S
C1318 C1319 1.349 . S
C1318 C1320 1.327 . S
C1318 H1343 0.950 . S
C1319 C1318 1.349 . S
C1319 C1335 1.349 . S
C1320 C1318 1.327 . S
C1320 C1339 1.429 . S
C1320 H1344 0.950 . S
C1321 C1338 1.574 1_554 S
C1321 C1340 1.368 . S
C1321 H1345 0.949 . S
H1322 C1326 0.949 . S
C1323 C1324 1.349 . S
C1323 C1325 1.327 . S
C1323 H1346 0.950 . S
C1324 C1323 1.349 . S
C1324 C1336 1.349 . S
C1325 C1323 1.327 . S
C1325 C1341 1.429 . S
C1325 H1347 0.950 . S
C1326 H1322 0.949 . S
C1326 C1334 1.574 1_556 S
C1326 C1342 1.368 . S
H1327 C1335 0.950 . S
H1328 C1333 0.950 . S
H1329 C1334 0.949 . S
H1330 C1336 0.950 . S
H1331 C1337 0.950 . S
H1332 C1338 0.949 . S
C1333 H1328 0.950 . S
C1333 C1335 1.327 . S
C1333 C1339 1.429 . S
C1334 C1326 1.574 1_554 S
C1334 H1329 0.949 . S
C1334 C1340 1.368 . S
C1335 C1319 1.349 . S
C1335 H1327 0.950 . S
C1335 C1333 1.327 . S
C1336 C1324 1.349 . S
C1336 H1330 0.950 . S
C1336 C1337 1.327 . S
C1337 H1331 0.950 . S
C1337 C1336 1.327 . S
C1337 C1341 1.429 . S
C1338 C1321 1.574 1_556 S
C1338 H1332 0.949 . S
C1338 C1342 1.368 . S
C1339 C1320 1.429 . S
C1339 C1333 1.429 . S
C1339 C1340 1.523 . S
C1340 C1321 1.368 . S
C1340 C1334 1.368 . S
C1340 C1339 1.523 . S
C1341 C1325 1.429 . S
C1341 C1337 1.429 . S
C1341 C1342 1.523 . S
C1342 C1326 1.368 . S
C1342 C1338 1.368 . S
C1342 C1341 1.523 . S
H1343 C1318 0.950 . S
H1344 C1320 0.950 . S
H1345 C1321 0.949 . S
H1346 C1323 0.950 . S
H1347 C1325 0.950 . S
C1348 C1349 1.349 . S
C1348 C1350 1.327 . S
C1348 H1373 0.950 . S
C1349 C1348 1.349 . S
C1349 C1365 1.349 . S
C1350 C1348 1.327 . S
C1350 C1369 1.429 . S
C1350 H1374 0.950 . S
C1351 C1368 1.574 1_554 S
C1351 C1370 1.368 . S
C1351 H1375 0.949 . S
H1352 C1356 0.949 . S
C1353 C1354 1.349 . S
C1353 C1355 1.327 . S
C1353 H1376 0.950 . S
C1354 C1353 1.349 . S
C1354 C1366 1.349 . S
C1355 C1353 1.327 . S
C1355 C1371 1.429 . S
C1355 H1377 0.950 . S
C1356 H1352 0.949 . S
C1356 C1364 1.574 1_556 S
C1356 C1372 1.368 . S
H1357 C1365 0.950 . S
H1358 C1363 0.950 . S
H1359 C1364 0.949 . S
H1360 C1366 0.950 . S
H1361 C1367 0.950 . S
H1362 C1368 0.949 . S
C1363 H1358 0.950 . S
C1363 C1365 1.327 . S
C1363 C1369 1.429 . S
C1364 C1356 1.574 1_554 S
C1364 H1359 0.949 . S
C1364 C1370 1.368 . S
C1365 C1349 1.349 . S
C1365 H1357 0.950 . S
C1365 C1363 1.327 . S
C1366 C1354 1.349 . S
C1366 H1360 0.950 . S
C1366 C1367 1.327 . S
C1367 H1361 0.950 . S
C1367 C1366 1.327 . S
C1367 C1371 1.429 . S
C1368 C1351 1.574 1_556 S
C1368 H1362 0.949 . S
C1368 C1372 1.368 . S
C1369 C1350 1.429 . S
C1369 C1363 1.429 . S
C1369 C1370 1.523 . S
C1370 C1351 1.368 . S
C1370 C1364 1.368 . S
C1370 C1369 1.523 . S
C1371 C1355 1.429 . S
C1371 C1367 1.429 . S
C1371 C1372 1.523 . S
C1372 C1356 1.368 . S
C1372 C1368 1.368 . S
C1372 C1371 1.523 . S
H1373 C1348 0.950 . S
H1374 C1350 0.950 . S
H1375 C1351 0.949 . S
H1376 C1353 0.950 . S
H1377 C1355 0.950 . S
C1378 C1379 1.349 . S
C1378 C1380 1.327 . S
C1378 H1403 0.950 . S
C1379 C1378 1.349 . S
C1379 C1395 1.349 . S
C1380 C1378 1.327 . S
C1380 C1399 1.429 . S
C1380 H1404 0.950 . S
C1381 C1398 1.574 1_556 S
C1381 C1400 1.368 . S
C1381 H1405 0.949 . S
H1382 C1386 0.949 . S
C1383 C1384 1.349 . S
C1383 C1385 1.327 . S
C1383 H1406 0.950 . S
C1384 C1383 1.349 . S
C1384 C1396 1.349 . S
C1385 C1383 1.327 . S
C1385 C1401 1.429 . S
C1385 H1407 0.950 . S
C1386 H1382 0.949 . S
C1386 C1394 1.574 1_554 S
C1386 C1402 1.368 . S
H1387 C1395 0.950 . S
H1388 C1393 0.950 . S
H1389 C1394 0.949 . S
H1390 C1396 0.950 . S
H1391 C1397 0.950 . S
H1392 C1398 0.949 . S
C1393 H1388 0.950 . S
C1393 C1395 1.327 . S
C1393 C1399 1.429 . S
C1394 C1386 1.574 1_556 S
C1394 H1389 0.949 . S
C1394 C1400 1.368 . S
C1395 C1379 1.349 . S
C1395 H1387 0.950 . S
C1395 C1393 1.327 . S
C1396 C1384 1.349 . S
C1396 H1390 0.950 . S
C1396 C1397 1.327 . S
C1397 H1391 0.950 . S
C1397 C1396 1.327 . S
C1397 C1401 1.429 . S
C1398 C1381 1.574 1_554 S
C1398 H1392 0.949 . S
C1398 C1402 1.368 . S
C1399 C1380 1.429 . S
C1399 C1393 1.429 . S
C1399 C1400 1.523 . S
C1400 C1381 1.368 . S
C1400 C1394 1.368 . S
C1400 C1399 1.523 . S
C1401 C1385 1.429 . S
C1401 C1397 1.429 . S
C1401 C1402 1.523 . S
C1402 C1386 1.368 . S
C1402 C1398 1.368 . S
C1402 C1401 1.523 . S
H1403 C1378 0.950 . S
H1404 C1380 0.950 . S
H1405 C1381 0.949 . S
H1406 C1383 0.950 . S
H1407 C1385 0.950 . S
C1408 C1409 1.349 . S
C1408 C1410 1.327 . S
C1408 H1433 0.950 . S
C1409 C1408 1.349 . S
C1409 C1425 1.349 . S
C1410 C1408 1.327 . S
C1410 C1429 1.429 . S
C1410 H1434 0.950 . S
C1411 C1428 1.574 1_545 S
C1411 C1430 1.368 . S
C1411 H1435 0.949 . S
H1412 C1416 0.949 . S
C1413 C1414 1.349 . S
C1413 C1415 1.327 . S
C1413 H1436 0.950 . S
C1414 C1413 1.349 . S
C1414 C1426 1.349 . S
C1415 C1413 1.327 . S
C1415 C1431 1.429 . S
C1415 H1437 0.950 . S
C1416 H1412 0.949 . S
C1416 C1424 1.574 1_565 S
C1416 C1432 1.368 . S
H1417 C1425 0.950 . S
H1418 C1423 0.950 . S
H1419 C1424 0.949 . S
H1420 C1426 0.950 . S
H1421 C1427 0.950 . S
H1422 C1428 0.949 . S
C1423 H1418 0.950 . S
C1423 C1425 1.327 . S
C1423 C1429 1.429 . S
C1424 C1416 1.574 1_545 S
C1424 H1419 0.949 . S
C1424 C1430 1.368 . S
C1425 C1409 1.349 . S
C1425 H1417 0.950 . S
C1425 C1423 1.327 . S
C1426 C1414 1.349 . S
C1426 H1420 0.950 . S
C1426 C1427 1.327 . S
C1427 H1421 0.950 . S
C1427 C1426 1.327 . S
C1427 C1431 1.429 . S
C1428 C1411 1.574 1_565 S
C1428 H1422 0.949 . S
C1428 C1432 1.368 . S
C1429 C1410 1.429 . S
C1429 C1423 1.429 . S
C1429 C1430 1.523 . S
C1430 C1411 1.368 . S
C1430 C1424 1.368 . S
C1430 C1429 1.523 . S
C1431 C1415 1.429 . S
C1431 C1427 1.429 . S
C1431 C1432 1.523 . S
C1432 C1416 1.368 . S
C1432 C1428 1.368 . S
C1432 C1431 1.523 . S
H1433 C1408 0.950 . S
H1434 C1410 0.950 . S
H1435 C1411 0.949 . S
H1436 C1413 0.950 . S
H1437 C1415 0.950 . S
C1438 C1439 1.349 . S
C1438 C1440 1.327 . S
C1438 H1463 0.950 . S
C1439 C1438 1.349 . S
C1439 C1455 1.349 . S
C1440 C1438 1.327 . S
C1440 C1459 1.429 . S
C1440 H1464 0.950 . S
C1441 C1458 1.574 1_655 S
C1441 C1460 1.368 . S
C1441 H1465 0.949 . S
H1442 C1446 0.949 . S
C1443 C1444 1.349 . S
C1443 C1445 1.327 . S
C1443 H1466 0.950 . S
C1444 C1443 1.349 . S
C1444 C1456 1.349 . S
C1445 C1443 1.327 . S
C1445 C1461 1.429 . S
C1445 H1467 0.950 . S
C1446 H1442 0.949 . S
C1446 C1454 1.574 1_455 S
C1446 C1462 1.368 . S
H1447 C1455 0.950 . S
H1448 C1453 0.950 . S
H1449 C1454 0.949 . S
H1450 C1456 0.950 . S
H1451 C1457 0.950 . S
H1452 C1458 0.949 . S
C1453 H1448 0.950 . S
C1453 C1455 1.327 . S
C1453 C1459 1.429 . S
C1454 C1446 1.574 1_655 S
C1454 H1449 0.949 . S
C1454 C1460 1.368 . S
C1455 C1439 1.349 . S
C1455 H1447 0.950 . S
C1455 C1453 1.327 . S
C1456 C1444 1.349 . S
C1456 H1450 0.950 . S
C1456 C1457 1.327 . S
C1457 H1451 0.950 . S
C1457 C1456 1.327 . S
C1457 C1461 1.429 . S
C1458 C1441 1.574 1_455 S
C1458 H1452 0.949 . S
C1458 C1462 1.368 . S
C1459 C1440 1.429 . S
C1459 C1453 1.429 . S
C1459 C1460 1.523 . S
C1460 C1441 1.368 . S
C1460 C1454 1.368 . S
C1460 C1459 1.523 . S
C1461 C1445 1.429 . S
C1461 C1457 1.429 . S
C1461 C1462 1.523 . S
C1462 C1446 1.368 . S
C1462 C1458 1.368 . S
C1462 C1461 1.523 . S
H1463 C1438 0.950 . S
H1464 C1440 0.950 . S
H1465 C1441 0.949 . S
H1466 C1443 0.950 . S
H1467 C1445 0.950 . S
C1468 C1469 1.349 . S
C1468 C1470 1.327 . S
C1468 H1493 0.950 . S
C1469 C1468 1.349 . S
C1469 C1485 1.349 . S
C1470 C1468 1.327 . S
C1470 C1489 1.429 . S
C1470 H1494 0.950 . S
C1471 C1488 1.574 1_545 S
C1471 C1490 1.368 . S
C1471 H1495 0.949 . S
H1472 C1476 0.949 . S
C1473 C1474 1.349 . S
C1473 C1475 1.327 . S
C1473 H1496 0.950 . S
C1474 C1473 1.349 . S
C1474 C1486 1.349 . S
C1475 C1473 1.327 . S
C1475 C1491 1.429 . S
C1475 H1497 0.950 . S
C1476 H1472 0.949 . S
C1476 C1484 1.574 1_565 S
C1476 C1492 1.368 . S
H1477 C1485 0.950 . S
H1478 C1483 0.950 . S
H1479 C1484 0.949 . S
H1480 C1486 0.950 . S
H1481 C1487 0.950 . S
H1482 C1488 0.949 . S
C1483 H1478 0.950 . S
C1483 C1485 1.327 . S
C1483 C1489 1.429 . S
C1484 C1476 1.574 1_545 S
C1484 H1479 0.949 . S
C1484 C1490 1.368 . S
C1485 C1469 1.349 . S
C1485 H1477 0.950 . S
C1485 C1483 1.327 . S
C1486 C1474 1.349 . S
C1486 H1480 0.950 . S
C1486 C1487 1.327 . S
C1487 H1481 0.950 . S
C1487 C1486 1.327 . S
C1487 C1491 1.429 . S
C1488 C1471 1.574 1_565 S
C1488 H1482 0.949 . S
C1488 C1492 1.368 . S
C1489 C1470 1.429 . S
C1489 C1483 1.429 . S
C1489 C1490 1.523 . S
C1490 C1471 1.368 . S
C1490 C1484 1.368 . S
C1490 C1489 1.523 . S
C1491 C1475 1.429 . S
C1491 C1487 1.429 . S
C1491 C1492 1.523 . S
C1492 C1476 1.368 . S
C1492 C1488 1.368 . S
C1492 C1491 1.523 . S
H1493 C1468 0.950 . S
H1494 C1470 0.950 . S
H1495 C1471 0.949 . S
H1496 C1473 0.950 . S
H1497 C1475 0.950 . S
C1498 C1499 1.349 . S
C1498 C1500 1.327 . S
C1498 H1523 0.950 . S
C1499 C1498 1.349 . S
C1499 C1515 1.349 . S
C1500 C1498 1.327 . S
C1500 C1519 1.429 . S
C1500 H1524 0.950 . S
C1501 C1518 1.574 1_455 S
C1501 C1520 1.368 . S
C1501 H1525 0.949 . S
H1502 C1506 0.949 . S
C1503 C1504 1.349 . S
C1503 C1505 1.327 . S
C1503 H1526 0.950 . S
C1504 C1503 1.349 . S
C1504 C1516 1.349 . S
C1505 C1503 1.327 . S
C1505 C1521 1.429 . S
C1505 H1527 0.950 . S
C1506 H1502 0.949 . S
C1506 C1514 1.574 1_655 S
C1506 C1522 1.368 . S
H1507 C1515 0.950 . S
H1508 C1513 0.950 . S
H1509 C1514 0.949 . S
H1510 C1516 0.950 . S
H1511 C1517 0.950 . S
H1512 C1518 0.949 . S
C1513 H1508 0.950 . S
C1513 C1515 1.327 . S
C1513 C1519 1.429 . S
C1514 C1506 1.574 1_455 S
C1514 H1509 0.949 . S
C1514 C1520 1.368 . S
C1515 C1499 1.349 . S
C1515 H1507 0.950 . S
C1515 C1513 1.327 . S
C1516 C1504 1.349 . S
C1516 H1510 0.950 . S
C1516 C1517 1.327 . S
C1517 H1511 0.950 . S
C1517 C1516 1.327 . S
C1517 C1521 1.429 . S
C1518 C1501 1.574 1_655 S
C1518 H1512 0.949 . S
C1518 C1522 1.368 . S
C1519 C1500 1.429 . S
C1519 C1513 1.429 . S
C1519 C1520 1.523 . S
C1520 C1501 1.368 . S
C1520 C1514 1.368 . S
C1520 C1519 1.523 . S
C1521 C1505 1.429 . S
C1521 C1517 1.429 . S
C1521 C1522 1.523 . S
C1522 C1506 1.368 . S
C1522 C1518 1.368 . S
C1522 C1521 1.523 . S
H1523 C1498 0.950 . S
H1524 C1500 0.950 . S
H1525 C1501 0.949 . S
H1526 C1503 0.950 . S
H1527 C1505 0.950 . S
C1528 C1529 1.349 . S
C1528 C1530 1.327 . S
C1528 H1553 0.950 . S
C1529 C1528 1.349 . S
C1529 C1545 1.349 . S
C1530 C1528 1.327 . S
C1530 C1549 1.429 . S
C1530 H1554 0.950 . S
C1531 C1548 1.574 1_565 S
C1531 C1550 1.368 . S
C1531 H1555 0.949 . S
H1532 C1536 0.949 . S
C1533 C1534 1.349 . S
C1533 C1535 1.327 . S
C1533 H1556 0.950 . S
C1534 C1533 1.349 . S
C1534 C1546 1.349 . S
C1535 C1533 1.327 . S
C1535 C1551 1.429 . S
C1535 H1557 0.950 . S
C1536 H1532 0.949 . S
C1536 C1544 1.574 1_545 S
C1536 C1552 1.368 . S
H1537 C1545 0.950 . S
H1538 C1543 0.950 . S
H1539 C1544 0.949 . S
H1540 C1546 0.950 . S
H1541 C1547 0.950 . S
H1542 C1548 0.949 . S
C1543 H1538 0.950 . S
C1543 C1545 1.327 . S
C1543 C1549 1.429 . S
C1544 C1536 1.574 1_565 S
C1544 H1539 0.949 . S
C1544 C1550 1.368 . S
C1545 C1529 1.349 . S
C1545 H1537 0.950 . S
C1545 C1543 1.327 . S
C1546 C1534 1.349 . S
C1546 H1540 0.950 . S
C1546 C1547 1.327 . S
C1547 H1541 0.950 . S
C1547 C1546 1.327 . S
C1547 C1551 1.429 . S
C1548 C1531 1.574 1_545 S
C1548 H1542 0.949 . S
C1548 C1552 1.368 . S
C1549 C1530 1.429 . S
C1549 C1543 1.429 . S
C1549 C1550 1.523 . S
C1550 C1531 1.368 . S
C1550 C1544 1.368 . S
C1550 C1549 1.523 . S
C1551 C1535 1.429 . S
C1551 C1547 1.429 . S
C1551 C1552 1.523 . S
C1552 C1536 1.368 . S
C1552 C1548 1.368 . S
C1552 C1551 1.523 . S
H1553 C1528 0.950 . S
H1554 C1530 0.950 . S
H1555 C1531 0.949 . S
H1556 C1533 0.950 . S
H1557 C1535 0.950 . S
C1558 C1559 1.349 . S
C1558 C1560 1.327 . S
C1558 H1583 0.950 . S
C1559 C1558 1.349 . S
C1559 C1575 1.349 . S
C1560 C1558 1.327 . S
C1560 C1579 1.429 . S
C1560 H1584 0.950 . S
C1561 C1578 1.574 1_655 S
C1561 C1580 1.368 . S
C1561 H1585 0.949 . S
H1562 C1566 0.949 . S
C1563 C1564 1.349 . S
C1563 C1565 1.327 . S
C1563 H1586 0.950 . S
C1564 C1563 1.349 . S
C1564 C1576 1.349 . S
C1565 C1563 1.327 . S
C1565 C1581 1.429 . S
C1565 H1587 0.950 . S
C1566 H1562 0.949 . S
C1566 C1574 1.574 1_455 S
C1566 C1582 1.368 . S
H1567 C1575 0.950 . S
H1568 C1573 0.950 . S
H1569 C1574 0.949 . S
H1570 C1576 0.950 . S
H1571 C1577 0.950 . S
H1572 C1578 0.949 . S
C1573 H1568 0.950 . S
C1573 C1575 1.327 . S
C1573 C1579 1.429 . S
C1574 C1566 1.574 1_655 S
C1574 H1569 0.949 . S
C1574 C1580 1.368 . S
C1575 C1559 1.349 . S
C1575 H1567 0.950 . S
C1575 C1573 1.327 . S
C1576 C1564 1.349 . S
C1576 H1570 0.950 . S
C1576 C1577 1.327 . S
C1577 H1571 0.950 . S
C1577 C1576 1.327 . S
C1577 C1581 1.429 . S
C1578 C1561 1.574 1_455 S
C1578 H1572 0.949 . S
C1578 C1582 1.368 . S
C1579 C1560 1.429 . S
C1579 C1573 1.429 . S
C1579 C1580 1.523 . S
C1580 C1561 1.368 . S
C1580 C1574 1.368 . S
C1580 C1579 1.523 . S
C1581 C1565 1.429 . S
C1581 C1577 1.429 . S
C1581 C1582 1.523 . S
C1582 C1566 1.368 . S
C1582 C1578 1.368 . S
C1582 C1581 1.523 . S
H1583 C1558 0.950 . S
H1584 C1560 0.950 . S
H1585 C1561 0.949 . S
H1586 C1563 0.950 . S
H1587 C1565 0.950 . S
C1588 C1589 1.349 . S
C1588 C1590 1.327 . S
C1588 H1613 0.950 . S
C1589 C1588 1.349 . S
C1589 C1605 1.349 . S
C1590 C1588 1.327 . S
C1590 C1609 1.429 . S
C1590 H1614 0.950 . S
C1591 C1608 1.574 1_565 S
C1591 C1610 1.368 . S
C1591 H1615 0.949 . S
H1592 C1596 0.949 . S
C1593 C1594 1.349 . S
C1593 C1595 1.327 . S
C1593 H1616 0.950 . S
C1594 C1593 1.349 . S
C1594 C1606 1.349 . S
C1595 C1593 1.327 . S
C1595 C1611 1.429 . S
C1595 H1617 0.950 . S
C1596 H1592 0.949 . S
C1596 C1604 1.574 1_545 S
C1596 C1612 1.368 . S
H1597 C1605 0.950 . S
H1598 C1603 0.950 . S
H1599 C1604 0.949 . S
H1600 C1606 0.950 . S
H1601 C1607 0.950 . S
H1602 C1608 0.949 . S
C1603 H1598 0.950 . S
C1603 C1605 1.327 . S
C1603 C1609 1.429 . S
C1604 C1596 1.574 1_565 S
C1604 H1599 0.949 . S
C1604 C1610 1.368 . S
C1605 C1589 1.349 . S
C1605 H1597 0.950 . S
C1605 C1603 1.327 . S
C1606 C1594 1.349 . S
C1606 H1600 0.950 . S
C1606 C1607 1.327 . S
C1607 H1601 0.950 . S
C1607 C1606 1.327 . S
C1607 C1611 1.429 . S
C1608 C1591 1.574 1_545 S
C1608 H1602 0.949 . S
C1608 C1612 1.368 . S
C1609 C1590 1.429 . S
C1609 C1603 1.429 . S
C1609 C1610 1.523 . S
C1610 C1591 1.368 . S
C1610 C1604 1.368 . S
C1610 C1609 1.523 . S
C1611 C1595 1.429 . S
C1611 C1607 1.429 . S
C1611 C1612 1.523 . S
C1612 C1596 1.368 . S
C1612 C1608 1.368 . S
C1612 C1611 1.523 . S
H1613 C1588 0.950 . S
H1614 C1590 0.950 . S
H1615 C1591 0.949 . S
H1616 C1593 0.950 . S
H1617 C1595 0.950 . S
C1618 C1619 1.349 . S
C1618 C1620 1.327 . S
C1618 H1643 0.950 . S
C1619 C1618 1.349 . S
C1619 C1635 1.349 . S
C1620 C1618 1.327 . S
C1620 C1639 1.429 . S
C1620 H1644 0.950 . S
C1621 C1638 1.574 1_655 S
C1621 C1640 1.368 . S
C1621 H1645 0.949 . S
H1622 C1626 0.949 . S
C1623 C1624 1.349 . S
C1623 C1625 1.327 . S
C1623 H1646 0.950 . S
C1624 C1623 1.349 . S
C1624 C1636 1.349 . S
C1625 C1623 1.327 . S
C1625 C1641 1.429 . S
C1625 H1647 0.950 . S
C1626 H1622 0.949 . S
C1626 C1634 1.574 1_455 S
C1626 C1642 1.368 . S
H1627 C1635 0.950 . S
H1628 C1633 0.950 . S
H1629 C1634 0.949 . S
H1630 C1636 0.950 . S
H1631 C1637 0.950 . S
H1632 C1638 0.949 . S
C1633 H1628 0.950 . S
C1633 C1635 1.327 . S
C1633 C1639 1.429 . S
C1634 C1626 1.574 1_655 S
C1634 H1629 0.949 . S
C1634 C1640 1.368 . S
C1635 C1619 1.349 . S
C1635 H1627 0.950 . S
C1635 C1633 1.327 . S
C1636 C1624 1.349 . S
C1636 H1630 0.950 . S
C1636 C1637 1.327 . S
C1637 H1631 0.950 . S
C1637 C1636 1.327 . S
C1637 C1641 1.429 . S
C1638 C1621 1.574 1_455 S
C1638 H1632 0.949 . S
C1638 C1642 1.368 . S
C1639 C1620 1.429 . S
C1639 C1633 1.429 . S
C1639 C1640 1.523 . S
C1640 C1621 1.368 . S
C1640 C1634 1.368 . S
C1640 C1639 1.523 . S
C1641 C1625 1.429 . S
C1641 C1637 1.429 . S
C1641 C1642 1.523 . S
C1642 C1626 1.368 . S
C1642 C1638 1.368 . S
C1642 C1641 1.523 . S
H1643 C1618 0.950 . S
H1644 C1620 0.950 . S
H1645 C1621 0.949 . S
H1646 C1623 0.950 . S
H1647 C1625 0.950 . S
C1648 C1649 1.349 . S
C1648 C1650 1.327 . S
C1648 H1673 0.950 . S
C1649 C1648 1.349 . S
C1649 C1665 1.349 . S
C1650 C1648 1.327 . S
C1650 C1669 1.429 . S
C1650 H1674 0.950 . S
C1651 C1668 1.574 . S
C1651 C1670 1.368 . S
C1651 H1675 0.949 . S
H1652 C1656 0.949 . S
C1653 C1654 1.349 . S
C1653 C1655 1.327 . S
C1653 H1676 0.950 . S
C1654 C1653 1.349 . S
C1654 C1666 1.349 . S
C1655 C1653 1.327 . S
C1655 C1671 1.429 . S
C1655 H1677 0.950 . S
C1656 H1652 0.949 . S
C1656 C1664 1.574 . S
C1656 C1672 1.368 . S
H1657 C1665 0.950 . S
H1658 C1663 0.950 . S
H1659 C1664 0.949 . S
H1660 C1666 0.950 . S
H1661 C1667 0.950 . S
H1662 C1668 0.949 . S
C1663 H1658 0.950 . S
C1663 C1665 1.327 . S
C1663 C1669 1.429 . S
C1664 C1656 1.574 . S
C1664 H1659 0.949 . S
C1664 C1670 1.368 . S
C1665 C1649 1.349 . S
C1665 H1657 0.950 . S
C1665 C1663 1.327 . S
C1666 C1654 1.349 . S
C1666 H1660 0.950 . S
C1666 C1667 1.327 . S
C1667 H1661 0.950 . S
C1667 C1666 1.327 . S
C1667 C1671 1.429 . S
C1668 C1651 1.574 . S
C1668 H1662 0.949 . S
C1668 C1672 1.368 . S
C1669 C1650 1.429 . S
C1669 C1663 1.429 . S
C1669 C1670 1.523 . S
C1670 C1651 1.368 . S
C1670 C1664 1.368 . S
C1670 C1669 1.523 . S
C1671 C1655 1.429 . S
C1671 C1667 1.429 . S
C1671 C1672 1.523 . S
C1672 C1656 1.368 . S
C1672 C1668 1.368 . S
C1672 C1671 1.523 . S
H1673 C1648 0.950 . S
H1674 C1650 0.950 . S
H1675 C1651 0.949 . S
H1676 C1653 0.950 . S
H1677 C1655 0.950 . S
C1678 C1679 1.349 . S
C1678 C1680 1.327 . S
C1678 H1703 0.950 . S
C1679 C1678 1.349 . S
C1679 C1695 1.349 . S
C1680 C1678 1.327 . S
C1680 C1699 1.429 . S
C1680 H1704 0.950 . S
C1681 C1698 1.574 . S
C1681 C1700 1.368 . S
C1681 H1705 0.949 . S
H1682 C1686 0.949 . S
C1683 C1684 1.349 . S
C1683 C1685 1.327 . S
C1683 H1706 0.950 . S
C1684 C1683 1.349 . S
C1684 C1696 1.349 . S
C1685 C1683 1.327 . S
C1685 C1701 1.429 . S
C1685 H1707 0.950 . S
C1686 H1682 0.949 . S
C1686 C1694 1.574 . S
C1686 C1702 1.368 . S
H1687 C1695 0.950 . S
H1688 C1693 0.950 . S
H1689 C1694 0.949 . S
H1690 C1696 0.950 . S
H1691 C1697 0.950 . S
H1692 C1698 0.949 . S
C1693 H1688 0.950 . S
C1693 C1695 1.327 . S
C1693 C1699 1.429 . S
C1694 C1686 1.574 . S
C1694 H1689 0.949 . S
C1694 C1700 1.368 . S
C1695 C1679 1.349 . S
C1695 H1687 0.950 . S
C1695 C1693 1.327 . S
C1696 C1684 1.349 . S
C1696 H1690 0.950 . S
C1696 C1697 1.327 . S
C1697 H1691 0.950 . S
C1697 C1696 1.327 . S
C1697 C1701 1.429 . S
C1698 C1681 1.574 . S
C1698 H1692 0.949 . S
C1698 C1702 1.368 . S
C1699 C1680 1.429 . S
C1699 C1693 1.429 . S
C1699 C1700 1.523 . S
C1700 C1681 1.368 . S
C1700 C1694 1.368 . S
C1700 C1699 1.523 . S
C1701 C1685 1.429 . S
C1701 C1697 1.429 . S
C1701 C1702 1.523 . S
C1702 C1686 1.368 . S
C1702 C1698 1.368 . S
C1702 C1701 1.523 . S
H1703 C1678 0.950 . S
H1704 C1680 0.950 . S
H1705 C1681 0.949 . S
H1706 C1683 0.950 . S
H1707 C1685 0.950 . S
C1708 C1709 1.349 . S
C1708 C1710 1.327 . S
C1708 H1733 0.950 . S
C1709 C1708 1.349 . S
C1709 C1725 1.349 . S
C1710 C1708 1.327 . S
C1710 C1729 1.429 . S
C1710 H1734 0.950 . S
C1711 C1728 1.574 . S
C1711 C1730 1.368 . S
C1711 H1735 0.949 . S
H1712 C1716 0.949 . S
C1713 C1714 1.349 . S
C1713 C1715 1.327 . S
C1713 H1736 0.950 . S
C1714 C1713 1.349 . S
C1714 C1726 1.349 . S
C1715 C1713 1.327 . S
C1715 C1731 1.429 . S
C1715 H1737 0.950 . S
C1716 H1712 0.949 . S
C1716 C1724 1.574 . S
C1716 C1732 1.368 . S
H1717 C1725 0.950 . S
H1718 C1723 0.950 . S
H1719 C1724 0.949 . S
H1720 C1726 0.950 . S
H1721 C1727 0.950 . S
H1722 C1728 0.949 . S
C1723 H1718 0.950 . S
C1723 C1725 1.327 . S
C1723 C1729 1.429 . S
C1724 C1716 1.574 . S
C1724 H1719 0.949 . S
C1724 C1730 1.368 . S
C1725 C1709 1.349 . S
C1725 H1717 0.950 . S
C1725 C1723 1.327 . S
C1726 C1714 1.349 . S
C1726 H1720 0.950 . S
C1726 C1727 1.327 . S
C1727 H1721 0.950 . S
C1727 C1726 1.327 . S
C1727 C1731 1.429 . S
C1728 C1711 1.574 . S
C1728 H1722 0.949 . S
C1728 C1732 1.368 . S
C1729 C1710 1.429 . S
C1729 C1723 1.429 . S
C1729 C1730 1.523 . S
C1730 C1711 1.368 . S
C1730 C1724 1.368 . S
C1730 C1729 1.523 . S
C1731 C1715 1.429 . S
C1731 C1727 1.429 . S
C1731 C1732 1.523 . S
C1732 C1716 1.368 . S
C1732 C1728 1.368 . S
C1732 C1731 1.523 . S
H1733 C1708 0.950 . S
H1734 C1710 0.950 . S
H1735 C1711 0.949 . S
H1736 C1713 0.950 . S
H1737 C1715 0.950 . S
C1738 C1739 1.349 . S
C1738 C1740 1.327 . S
C1738 H1763 0.950 . S
C1739 C1738 1.349 . S
C1739 C1755 1.349 . S
C1740 C1738 1.327 . S
C1740 C1759 1.429 . S
C1740 H1764 0.950 . S
C1741 C1758 1.574 . S
C1741 C1760 1.368 . S
C1741 H1765 0.949 . S
H1742 C1746 0.949 . S
C1743 C1744 1.349 . S
C1743 C1745 1.327 . S
C1743 H1766 0.950 . S
C1744 C1743 1.349 . S
C1744 C1756 1.349 . S
C1745 C1743 1.327 . S
C1745 C1761 1.429 . S
C1745 H1767 0.950 . S
C1746 H1742 0.949 . S
C1746 C1754 1.574 . S
C1746 C1762 1.368 . S
H1747 C1755 0.950 . S
H1748 C1753 0.950 . S
H1749 C1754 0.949 . S
H1750 C1756 0.950 . S
H1751 C1757 0.950 . S
H1752 C1758 0.949 . S
C1753 H1748 0.950 . S
C1753 C1755 1.327 . S
C1753 C1759 1.429 . S
C1754 C1746 1.574 . S
C1754 H1749 0.949 . S
C1754 C1760 1.368 . S
C1755 C1739 1.349 . S
C1755 H1747 0.950 . S
C1755 C1753 1.327 . S
C1756 C1744 1.349 . S
C1756 H1750 0.950 . S
C1756 C1757 1.327 . S
C1757 H1751 0.950 . S
C1757 C1756 1.327 . S
C1757 C1761 1.429 . S
C1758 C1741 1.574 . S
C1758 H1752 0.949 . S
C1758 C1762 1.368 . S
C1759 C1740 1.429 . S
C1759 C1753 1.429 . S
C1759 C1760 1.523 . S
C1760 C1741 1.368 . S
C1760 C1754 1.368 . S
C1760 C1759 1.523 . S
C1761 C1745 1.429 . S
C1761 C1757 1.429 . S
C1761 C1762 1.523 . S
C1762 C1746 1.368 . S
C1762 C1758 1.368 . S
C1762 C1761 1.523 . S
H1763 C1738 0.950 . S
H1764 C1740 0.950 . S
H1765 C1741 0.949 . S
H1766 C1743 0.950 . S
H1767 C1745 0.950 . S
C1768 C1769 1.349 . S
C1768 C1770 1.327 . S
C1768 H1793 0.950 . S
C1769 C1768 1.349 . S
C1769 C1785 1.349 . S
C1770 C1768 1.327 . S
C1770 C1789 1.429 . S
C1770 H1794 0.950 . S
C1771 C1788 1.574 . S
C1771 C1790 1.368 . S
C1771 H1795 0.949 . S
H1772 C1776 0.949 . S
C1773 C1774 1.349 . S
C1773 C1775 1.327 . S
C1773 H1796 0.950 . S
C1774 C1773 1.349 . S
C1774 C1786 1.349 . S
C1775 C1773 1.327 . S
C1775 C1791 1.429 . S
C1775 H1797 0.950 . S
C1776 H1772 0.949 . S
C1776 C1784 1.574 . S
C1776 C1792 1.368 . S
H1777 C1785 0.950 . S
H1778 C1783 0.950 . S
H1779 C1784 0.949 . S
H1780 C1786 0.950 . S
H1781 C1787 0.950 . S
H1782 C1788 0.949 . S
C1783 H1778 0.950 . S
C1783 C1785 1.327 . S
C1783 C1789 1.429 . S
C1784 C1776 1.574 . S
C1784 H1779 0.949 . S
C1784 C1790 1.368 . S
C1785 C1769 1.349 . S
C1785 H1777 0.950 . S
C1785 C1783 1.327 . S
C1786 C1774 1.349 . S
C1786 H1780 0.950 . S
C1786 C1787 1.327 . S
C1787 H1781 0.950 . S
C1787 C1786 1.327 . S
C1787 C1791 1.429 . S
C1788 C1771 1.574 . S
C1788 H1782 0.949 . S
C1788 C1792 1.368 . S
C1789 C1770 1.429 . S
C1789 C1783 1.429 . S
C1789 C1790 1.523 . S
C1790 C1771 1.368 . S
C1790 C1784 1.368 . S
C1790 C1789 1.523 . S
C1791 C1775 1.429 . S
C1791 C1787 1.429 . S
C1791 C1792 1.523 . S
C1792 C1776 1.368 . S
C1792 C1788 1.368 . S
C1792 C1791 1.523 . S
H1793 C1768 0.950 . S
H1794 C1770 0.950 . S
H1795 C1771 0.949 . S
H1796 C1773 0.950 . S
H1797 C1775 0.950 . S
C1798 C1799 1.349 . S
C1798 C1800 1.327 . S
C1798 H1823 0.950 . S
C1799 C1798 1.349 . S
C1799 C1815 1.349 . S
C1800 C1798 1.327 . S
C1800 C1819 1.429 . S
C1800 H1824 0.950 . S
C1801 C1818 1.574 . S
C1801 C1820 1.368 . S
C1801 H1825 0.949 . S
H1802 C1806 0.949 . S
C1803 C1804 1.349 . S
C1803 C1805 1.327 . S
C1803 H1826 0.950 . S
C1804 C1803 1.349 . S
C1804 C1816 1.349 . S
C1805 C1803 1.327 . S
C1805 C1821 1.429 . S
C1805 H1827 0.950 . S
C1806 H1802 0.949 . S
C1806 C1814 1.574 . S
C1806 C1822 1.368 . S
H1807 C1815 0.950 . S
H1808 C1813 0.950 . S
H1809 C1814 0.949 . S
H1810 C1816 0.950 . S
H1811 C1817 0.950 . S
H1812 C1818 0.949 . S
C1813 H1808 0.950 . S
C1813 C1815 1.327 . S
C1813 C1819 1.429 . S
C1814 C1806 1.574 . S
C1814 H1809 0.949 . S
C1814 C1820 1.368 . S
C1815 C1799 1.349 . S
C1815 H1807 0.950 . S
C1815 C1813 1.327 . S
C1816 C1804 1.349 . S
C1816 H1810 0.950 . S
C1816 C1817 1.327 . S
C1817 H1811 0.950 . S
C1817 C1816 1.327 . S
C1817 C1821 1.429 . S
C1818 C1801 1.574 . S
C1818 H1812 0.949 . S
C1818 C1822 1.368 . S
C1819 C1800 1.429 . S
C1819 C1813 1.429 . S
C1819 C1820 1.523 . S
C1820 C1801 1.368 . S
C1820 C1814 1.368 . S
C1820 C1819 1.523 . S
C1821 C1805 1.429 . S
C1821 C1817 1.429 . S
C1821 C1822 1.523 . S
C1822 C1806 1.368 . S
C1822 C1818 1.368 . S
C1822 C1821 1.523 . S
H1823 C1798 0.950 . S
H1824 C1800 0.950 . S
H1825 C1801 0.949 . S
H1826 C1803 0.950 . S
H1827 C1805 0.950 . S
C1828 C1829 1.349 . S
C1828 C1830 1.327 . S
C1828 H1853 0.950 . S
C1829 C1828 1.349 . S
C1829 C1845 1.349 . S
C1830 C1828 1.327 . S
C1830 C1849 1.429 . S
C1830 H1854 0.950 . S
C1831 C1848 1.574 . S
C1831 C1850 1.368 . S
C1831 H1855 0.949 . S
H1832 C1836 0.949 . S
C1833 C1834 1.349 . S
C1833 C1835 1.327 . S
C1833 H1856 0.950 . S
C1834 C1833 1.349 . S
C1834 C1846 1.349 . S
C1835 C1833 1.327 . S
C1835 C1851 1.429 . S
C1835 H1857 0.950 . S
C1836 H1832 0.949 . S
C1836 C1844 1.574 . S
C1836 C1852 1.368 . S
H1837 C1845 0.950 . S
H1838 C1843 0.950 . S
H1839 C1844 0.949 . S
H1840 C1846 0.950 . S
H1841 C1847 0.950 . S
H1842 C1848 0.949 . S
C1843 H1838 0.950 . S
C1843 C1845 1.327 . S
C1843 C1849 1.429 . S
C1844 C1836 1.574 . S
C1844 H1839 0.949 . S
C1844 C1850 1.368 . S
C1845 C1829 1.349 . S
C1845 H1837 0.950 . S
C1845 C1843 1.327 . S
C1846 C1834 1.349 . S
C1846 H1840 0.950 . S
C1846 C1847 1.327 . S
C1847 H1841 0.950 . S
C1847 C1846 1.327 . S
C1847 C1851 1.429 . S
C1848 C1831 1.574 . S
C1848 H1842 0.949 . S
C1848 C1852 1.368 . S
C1849 C1830 1.429 . S
C1849 C1843 1.429 . S
C1849 C1850 1.523 . S
C1850 C1831 1.368 . S
C1850 C1844 1.368 . S
C1850 C1849 1.523 . S
C1851 C1835 1.429 . S
C1851 C1847 1.429 . S
C1851 C1852 1.523 . S
C1852 C1836 1.368 . S
C1852 C1848 1.368 . S
C1852 C1851 1.523 . S
H1853 C1828 0.950 . S
H1854 C1830 0.950 . S
H1855 C1831 0.949 . S
H1856 C1833 0.950 . S
H1857 C1835 0.950 . S
C1858 C1859 1.349 . S
C1858 C1860 1.327 . S
C1858 H1883 0.950 . S
C1859 C1858 1.349 . S
C1859 C1875 1.349 . S
C1860 C1858 1.327 . S
C1860 C1879 1.429 . S
C1860 H1884 0.950 . S
C1861 C1878 1.574 . S
C1861 C1880 1.368 . S
C1861 H1885 0.949 . S
H1862 C1866 0.949 . S
C1863 C1864 1.349 . S
C1863 C1865 1.327 . S
C1863 H1886 0.950 . S
C1864 C1863 1.349 . S
C1864 C1876 1.349 . S
C1865 C1863 1.327 . S
C1865 C1881 1.429 . S
C1865 H1887 0.950 . S
C1866 H1862 0.949 . S
C1866 C1874 1.574 . S
C1866 C1882 1.368 . S
H1867 C1875 0.950 . S
H1868 C1873 0.950 . S
H1869 C1874 0.949 . S
H1870 C1876 0.950 . S
H1871 C1877 0.950 . S
H1872 C1878 0.949 . S
C1873 H1868 0.950 . S
C1873 C1875 1.327 . S
C1873 C1879 1.429 . S
C1874 C1866 1.574 . S
C1874 H1869 0.949 . S
C1874 C1880 1.368 . S
C1875 C1859 1.349 . S
C1875 H1867 0.950 . S
C1875 C1873 1.327 . S
C1876 C1864 1.349 . S
C1876 H1870 0.950 . S
C1876 C1877 1.327 . S
C1877 H1871 0.950 . S
C1877 C1876 1.327 . S
C1877 C1881 1.429 . S
C1878 C1861 1.574 . S
C1878 H1872 0.949 . S
C1878 C1882 1.368 . S
C1879 C1860 1.429 . S
C1879 C1873 1.429 . S
C1879 C1880 1.523 . S
C1880 C1861 1.368 . S
C1880 C1874 1.368 . S
C1880 C1879 1.523 . S
C1881 C1865 1.429 . S
C1881 C1877 1.429 . S
C1881 C1882 1.523 . S
C1882 C1866 1.368 . S
C1882 C1878 1.368 . S
C1882 C1881 1.523 . S
H1883 C1858 0.950 . S
H1884 C1860 0.950 . S
H1885 C1861 0.949 . S
H1886 C1863 0.950 . S
H1887 C1865 0.950 . S
C1888 C1889 1.349 . S
C1888 C1890 1.327 . S
C1888 H1913 0.950 . S
C1889 C1888 1.349 . S
C1889 C1905 1.349 . S
C1890 C1888 1.327 . S
C1890 C1909 1.429 . S
C1890 H1914 0.950 . S
C1891 C1908 1.574 . S
C1891 C1910 1.368 . S
C1891 H1915 0.949 . S
H1892 C1896 0.949 . S
C1893 C1894 1.349 . S
C1893 C1895 1.327 . S
C1893 H1916 0.950 . S
C1894 C1893 1.349 . S
C1894 C1906 1.349 . S
C1895 C1893 1.327 . S
C1895 C1911 1.429 . S
C1895 H1917 0.950 . S
C1896 H1892 0.949 . S
C1896 C1904 1.574 . S
C1896 C1912 1.368 . S
H1897 C1905 0.950 . S
H1898 C1903 0.950 . S
H1899 C1904 0.949 . S
H1900 C1906 0.950 . S
H1901 C1907 0.950 . S
H1902 C1908 0.949 . S
C1903 H1898 0.950 . S
C1903 C1905 1.327 . S
C1903 C1909 1.429 . S
C1904 C1896 1.574 . S
C1904 H1899 0.949 . S
C1904 C1910 1.368 . S
C1905 C1889 1.349 . S
C1905 H1897 0.950 . S
C1905 C1903 1.327 . S
C1906 C1894 1.349 . S
C1906 H1900 0.950 . S
C1906 C1907 1.327 . S
C1907 H1901 0.950 . S
C1907 C1906 1.327 . S
C1907 C1911 1.429 . S
C1908 C1891 1.574 . S
C1908 H1902 0.949 . S
C1908 C1912 1.368 . S
C1909 C1890 1.429 . S
C1909 C1903 1.429 . S
C1909 C1910 1.523 . S
C1910 C1891 1.368 . S
C1910 C1904 1.368 . S
C1910 C1909 1.523 . S
C1911 C1895 1.429 . S
C1911 C1907 1.429 . S
C1911 C1912 1.523 . S
C1912 C1896 1.368 . S
C1912 C1908 1.368 . S
C1912 C1911 1.523 . S
H1913 C1888 0.950 . S
H1914 C1890 0.950 . S
H1915 C1891 0.949 . S
H1916 C1893 0.950 . S
H1917 C1895 0.950 . S
C1918 C1919 1.349 . S
C1918 C1920 1.327 . S
C1918 H1943 0.950 . S
C1919 C1918 1.349 . S
C1919 C1935 1.349 . S
C1920 C1918 1.327 . S
C1920 C1939 1.429 . S
C1920 H1944 0.950 . S
C1921 C1938 1.574 . S
C1921 C1940 1.368 . S
C1921 H1945 0.949 . S
H1922 C1926 0.949 . S
C1923 C1924 1.349 . S
C1923 C1925 1.327 . S
C1923 H1946 0.950 . S
C1924 C1923 1.349 . S
C1924 C1936 1.349 . S
C1925 C1923 1.327 . S
C1925 C1941 1.429 . S
C1925 H1947 0.950 . S
C1926 H1922 0.949 . S
C1926 C1934 1.574 . S
C1926 C1942 1.368 . S
H1927 C1935 0.950 . S
H1928 C1933 0.950 . S
H1929 C1934 0.949 . S
H1930 C1936 0.950 . S
H1931 C1937 0.950 . S
H1932 C1938 0.949 . S
C1933 H1928 0.950 . S
C1933 C1935 1.327 . S
C1933 C1939 1.429 . S
C1934 C1926 1.574 . S
C1934 H1929 0.949 . S
C1934 C1940 1.368 . S
C1935 C1919 1.349 . S
C1935 H1927 0.950 . S
C1935 C1933 1.327 . S
C1936 C1924 1.349 . S
C1936 H1930 0.950 . S
C1936 C1937 1.327 . S
C1937 H1931 0.950 . S
C1937 C1936 1.327 . S
C1937 C1941 1.429 . S
C1938 C1921 1.574 . S
C1938 H1932 0.949 . S
C1938 C1942 1.368 . S
C1939 C1920 1.429 . S
C1939 C1933 1.429 . S
C1939 C1940 1.523 . S
C1940 C1921 1.368 . S
C1940 C1934 1.368 . S
C1940 C1939 1.523 . S
C1941 C1925 1.429 . S
C1941 C1937 1.429 . S
C1941 C1942 1.523 . S
C1942 C1926 1.368 . S
C1942 C1938 1.368 . S
C1942 C1941 1.523 . S
H1943 C1918 0.950 . S
H1944 C1920 0.950 . S
H1945 C1921 0.949 . S
H1946 C1923 0.950 . S
H1947 C1925 0.950 . S
C1948 C1949 1.349 . S
C1948 C1950 1.327 . S
C1948 H1973 0.950 . S
C1949 C1948 1.349 . S
C1949 C1965 1.349 . S
C1950 C1948 1.327 . S
C1950 C1969 1.429 . S
C1950 H1974 0.950 . S
C1951 C1968 1.574 . S
C1951 C1970 1.368 . S
C1951 H1975 0.949 . S
H1952 C1956 0.949 . S
C1953 C1954 1.349 . S
C1953 C1955 1.327 . S
C1953 H1976 0.950 . S
C1954 C1953 1.349 . S
C1954 C1966 1.349 . S
C1955 C1953 1.327 . S
C1955 C1971 1.429 . S
C1955 H1977 0.950 . S
C1956 H1952 0.949 . S
C1956 C1964 1.574 . S
C1956 C1972 1.368 . S
H1957 C1965 0.950 . S
H1958 C1963 0.950 . S
H1959 C1964 0.949 . S
H1960 C1966 0.950 . S
H1961 C1967 0.950 . S
H1962 C1968 0.949 . S
C1963 H1958 0.950 . S
C1963 C1965 1.327 . S
C1963 C1969 1.429 . S
C1964 C1956 1.574 . S
C1964 H1959 0.949 . S
C1964 C1970 1.368 . S
C1965 C1949 1.349 . S
C1965 H1957 0.950 . S
C1965 C1963 1.327 . S
C1966 C1954 1.349 . S
C1966 H1960 0.950 . S
C1966 C1967 1.327 . S
C1967 H1961 0.950 . S
C1967 C1966 1.327 . S
C1967 C1971 1.429 . S
C1968 C1951 1.574 . S
C1968 H1962 0.949 . S
C1968 C1972 1.368 . S
C1969 C1950 1.429 . S
C1969 C1963 1.429 . S
C1969 C1970 1.523 . S
C1970 C1951 1.368 . S
C1970 C1964 1.368 . S
C1970 C1969 1.523 . S
C1971 C1955 1.429 . S
C1971 C1967 1.429 . S
C1971 C1972 1.523 . S
C1972 C1956 1.368 . S
C1972 C1968 1.368 . S
C1972 C1971 1.523 . S
H1973 C1948 0.950 . S
H1974 C1950 0.950 . S
H1975 C1951 0.949 . S
H1976 C1953 0.950 . S
H1977 C1955 0.950 . S
C1978 C1979 1.349 . S
C1978 C1980 1.327 . S
C1978 H2003 0.950 . S
C1979 C1978 1.349 . S
C1979 C1995 1.349 . S
C1980 C1978 1.327 . S
C1980 C1999 1.429 . S
C1980 H2004 0.950 . S
C1981 C1998 1.574 . S
C1981 C2000 1.368 . S
C1981 H2005 0.949 . S
H1982 C1986 0.949 . S
C1983 C1984 1.349 . S
C1983 C1985 1.327 . S
C1983 H2006 0.950 . S
C1984 C1983 1.349 . S
C1984 C1996 1.349 . S
C1985 C1983 1.327 . S
C1985 C2001 1.429 . S
C1985 H2007 0.950 . S
C1986 H1982 0.949 . S
C1986 C1994 1.574 . S
C1986 C2002 1.368 . S
H1987 C1995 0.950 . S
H1988 C1993 0.950 . S
H1989 C1994 0.949 . S
H1990 C1996 0.950 . S
H1991 C1997 0.950 . S
H1992 C1998 0.949 . S
C1993 H1988 0.950 . S
C1993 C1995 1.327 . S
C1993 C1999 1.429 . S
C1994 C1986 1.574 . S
C1994 H1989 0.949 . S
C1994 C2000 1.368 . S
C1995 C1979 1.349 . S
C1995 H1987 0.950 . S
C1995 C1993 1.327 . S
C1996 C1984 1.349 . S
C1996 H1990 0.950 . S
C1996 C1997 1.327 . S
C1997 H1991 0.950 . S
C1997 C1996 1.327 . S
C1997 C2001 1.429 . S
C1998 C1981 1.574 . S
C1998 H1992 0.949 . S
C1998 C2002 1.368 . S
C1999 C1980 1.429 . S
C1999 C1993 1.429 . S
C1999 C2000 1.523 . S
C2000 C1981 1.368 . S
C2000 C1994 1.368 . S
C2000 C1999 1.523 . S
C2001 C1985 1.429 . S
C2001 C1997 1.429 . S
C2001 C2002 1.523 . S
C2002 C1986 1.368 . S
C2002 C1998 1.368 . S
C2002 C2001 1.523 . S
H2003 C1978 0.950 . S
H2004 C1980 0.950 . S
H2005 C1981 0.949 . S
H2006 C1983 0.950 . S
H2007 C1985 0.950 . S
C2008 C2009 1.349 . S
C2008 C2010 1.327 . S
C2008 H2033 0.950 . S
C2009 C2008 1.349 . S
C2009 C2025 1.349 . S
C2010 C2008 1.327 . S
C2010 C2029 1.429 . S
C2010 H2034 0.950 . S
C2011 C2028 1.574 . S
C2011 C2030 1.368 . S
C2011 H2035 0.949 . S
H2012 C2016 0.949 . S
C2013 C2014 1.349 . S
C2013 C2015 1.327 . S
C2013 H2036 0.950 . S
C2014 C2013 1.349 . S
C2014 C2026 1.349 . S
C2015 C2013 1.327 . S
C2015 C2031 1.429 . S
C2015 H2037 0.950 . S
C2016 H2012 0.949 . S
C2016 C2024 1.574 . S
C2016 C2032 1.368 . S
H2017 C2025 0.950 . S
H2018 C2023 0.950 . S
H2019 C2024 0.949 . S
H2020 C2026 0.950 . S
H2021 C2027 0.950 . S
H2022 C2028 0.949 . S
C2023 H2018 0.950 . S
C2023 C2025 1.327 . S
C2023 C2029 1.429 . S
C2024 C2016 1.574 . S
C2024 H2019 0.949 . S
C2024 C2030 1.368 . S
C2025 C2009 1.349 . S
C2025 H2017 0.950 . S
C2025 C2023 1.327 . S
C2026 C2014 1.349 . S
C2026 H2020 0.950 . S
C2026 C2027 1.327 . S
C2027 H2021 0.950 . S
C2027 C2026 1.327 . S
C2027 C2031 1.429 . S
C2028 C2011 1.574 . S
C2028 H2022 0.949 . S
C2028 C2032 1.368 . S
C2029 C2010 1.429 . S
C2029 C2023 1.429 . S
C2029 C2030 1.523 . S
C2030 C2011 1.368 . S
C2030 C2024 1.368 . S
C2030 C2029 1.523 . S
C2031 C2015 1.429 . S
C2031 C2027 1.429 . S
C2031 C2032 1.523 . S
C2032 C2016 1.368 . S
C2032 C2028 1.368 . S
C2032 C2031 1.523 . S
H2033 C2008 0.950 . S
H2034 C2010 0.950 . S
H2035 C2011 0.949 . S
H2036 C2013 0.950 . S
H2037 C2015 0.950 . S
C2038 C2039 1.349 . S
C2038 C2040 1.327 . S
C2038 H2063 0.950 . S
C2039 C2038 1.349 . S
C2039 C2055 1.349 . S
C2040 C2038 1.327 . S
C2040 C2059 1.429 . S
C2040 H2064 0.950 . S
C2041 C2058 1.574 . S
C2041 C2060 1.368 . S
C2041 H2065 0.949 . S
H2042 C2046 0.949 . S
C2043 C2044 1.349 . S
C2043 C2045 1.327 . S
C2043 H2066 0.950 . S
C2044 C2043 1.349 . S
C2044 C2056 1.349 . S
C2045 C2043 1.327 . S
C2045 C2061 1.429 . S
C2045 H2067 0.950 . S
C2046 H2042 0.949 . S
C2046 C2054 1.574 . S
C2046 C2062 1.368 . S
H2047 C2055 0.950 . S
H2048 C2053 0.950 . S
H2049 C2054 0.949 . S
H2050 C2056 0.950 . S
H2051 C2057 0.950 . S
H2052 C2058 0.949 . S
C2053 H2048 0.950 . S
C2053 C2055 1.327 . S
C2053 C2059 1.429 . S
C2054 C2046 1.574 . S
C2054 H2049 0.949 . S
C2054 C2060 1.368 . S
C2055 C2039 1.349 . S
C2055 H2047 0.950 . S
C2055 C2053 1.327 . S
C2056 C2044 1.349 . S
C2056 H2050 0.950 . S
C2056 C2057 1.327 . S
C2057 H2051 0.950 . S
C2057 C2056 1.327 . S
C2057 C2061 1.429 . S
C2058 C2041 1.574 . S
C2058 H2052 0.949 . S
C2058 C2062 1.368 . S
C2059 C2040 1.429 . S
C2059 C2053 1.429 . S
C2059 C2060 1.523 . S
C2060 C2041 1.368 . S
C2060 C2054 1.368 . S
C2060 C2059 1.523 . S
C2061 C2045 1.429 . S
C2061 C2057 1.429 . S
C2061 C2062 1.523 . S
C2062 C2046 1.368 . S
C2062 C2058 1.368 . S
C2062 C2061 1.523 . S
H2063 C2038 0.950 . S
H2064 C2040 0.950 . S
H2065 C2041 0.949 . S
H2066 C2043 0.950 . S
H2067 C2045 0.950 . S
C2068 C2069 1.349 . S
C2068 C2070 1.327 . S
C2068 H2093 0.950 . S
C2069 C2068 1.349 . S
C2069 C2085 1.349 . S
C2070 C2068 1.327 . S
C2070 C2089 1.429 . S
C2070 H2094 0.950 . S
C2071 C2088 1.574 . S
C2071 C2090 1.368 . S
C2071 H2095 0.949 . S
H2072 C2076 0.949 . S
C2073 C2074 1.349 . S
C2073 C2075 1.327 . S
C2073 H2096 0.950 . S
C2074 C2073 1.349 . S
C2074 C2086 1.349 . S
C2075 C2073 1.327 . S
C2075 C2091 1.429 . S
C2075 H2097 0.950 . S
C2076 H2072 0.949 . S
C2076 C2084 1.574 . S
C2076 C2092 1.368 . S
H2077 C2085 0.950 . S
H2078 C2083 0.950 . S
H2079 C2084 0.949 . S
H2080 C2086 0.950 . S
H2081 C2087 0.950 . S
H2082 C2088 0.949 . S
C2083 H2078 0.950 . S
C2083 C2085 1.327 . S
C2083 C2089 1.429 . S
C2084 C2076 1.574 . S
C2084 H2079 0.949 . S
C2084 C2090 1.368 . S
C2085 C2069 1.349 . S
C2085 H2077 0.950 . S
C2085 C2083 1.327 . S
C2086 C2074 1.349 . S
C2086 H2080 0.950 . S
C2086 C2087 1.327 . S
C2087 H2081 0.950 . S
C2087 C2086 1.327 . S
C2087 C2091 1.429 . S
C2088 C2071 1.574 . S
C2088 H2082 0.949 . S
C2088 C2092 1.368 . S
C2089 C2070 1.429 . S
C2089 C2083 1.429 . S
C2089 C2090 1.523 . S
C2090 C2071 1.368 . S
C2090 C2084 1.368 . S
C2090 C2089 1.523 . S
C2091 C2075 1.429 . S
C2091 C2087 1.429 . S
C2091 C2092 1.523 . S
C2092 C2076 1.368 . S
C2092 C2088 1.368 . S
C2092 C2091 1.523 . S
H2093 C2068 0.950 . S
H2094 C2070 0.950 . S
H2095 C2071 0.949 . S
H2096 C2073 0.950 . S
H2097 C2075 0.950 . S
C2098 C2099 1.349 . S
C2098 C2100 1.327 . S
C2098 H2123 0.950 . S
C2099 C2098 1.349 . S
C2099 C2115 1.349 . S
C2100 C2098 1.327 . S
C2100 C2119 1.429 . S
C2100 H2124 0.950 . S
C2101 C2118 1.574 . S
C2101 C2120 1.368 . S
C2101 H2125 0.949 . S
H2102 C2106 0.949 . S
C2103 C2104 1.349 . S
C2103 C2105 1.327 . S
C2103 H2126 0.950 . S
C2104 C2103 1.349 . S
C2104 C2116 1.349 . S
C2105 C2103 1.327 . S
C2105 C2121 1.429 . S
C2105 H2127 0.950 . S
C2106 H2102 0.949 . S
C2106 C2114 1.574 . S
C2106 C2122 1.368 . S
H2107 C2115 0.950 . S
H2108 C2113 0.950 . S
H2109 C2114 0.949 . S
H2110 C2116 0.950 . S
H2111 C2117 0.950 . S
H2112 C2118 0.949 . S
C2113 H2108 0.950 . S
C2113 C2115 1.327 . S
C2113 C2119 1.429 . S
C2114 C2106 1.574 . S
C2114 H2109 0.949 . S
C2114 C2120 1.368 . S
C2115 C2099 1.349 . S
C2115 H2107 0.950 . S
C2115 C2113 1.327 . S
C2116 C2104 1.349 . S
C2116 H2110 0.950 . S
C2116 C2117 1.327 . S
C2117 H2111 0.950 . S
C2117 C2116 1.327 . S
C2117 C2121 1.429 . S
C2118 C2101 1.574 . S
C2118 H2112 0.949 . S
C2118 C2122 1.368 . S
C2119 C2100 1.429 . S
C2119 C2113 1.429 . S
C2119 C2120 1.523 . S
C2120 C2101 1.368 . S
C2120 C2114 1.368 . S
C2120 C2119 1.523 . S
C2121 C2105 1.429 . S
C2121 C2117 1.429 . S
C2121 C2122 1.523 . S
C2122 C2106 1.368 . S
C2122 C2118 1.368 . S
C2122 C2121 1.523 . S
H2123 C2098 0.950 . S
H2124 C2100 0.950 . S
H2125 C2101 0.949 . S
H2126 C2103 0.950 . S
H2127 C2105 0.950 . S
C2128 C2129 1.349 . S
C2128 C2130 1.327 . S
C2128 H2153 0.950 . S
C2129 C2128 1.349 . S
C2129 C2145 1.349 . S
C2130 C2128 1.327 . S
C2130 C2149 1.429 . S
C2130 H2154 0.950 . S
C2131 C2148 1.574 . S
C2131 C2150 1.368 . S
C2131 H2155 0.949 . S
H2132 C2136 0.949 . S
C2133 C2134 1.349 . S
C2133 C2135 1.327 . S
C2133 H2156 0.950 . S
C2134 C2133 1.349 . S
C2134 C2146 1.349 . S
C2135 C2133 1.327 . S
C2135 C2151 1.429 . S
C2135 H2157 0.950 . S
C2136 H2132 0.949 . S
C2136 C2144 1.574 . S
C2136 C2152 1.368 . S
H2137 C2145 0.950 . S
H2138 C2143 0.950 . S
H2139 C2144 0.949 . S
H2140 C2146 0.950 . S
H2141 C2147 0.950 . S
H2142 C2148 0.949 . S
C2143 H2138 0.950 . S
C2143 C2145 1.327 . S
C2143 C2149 1.429 . S
C2144 C2136 1.574 . S
C2144 H2139 0.949 . S
C2144 C2150 1.368 . S
C2145 C2129 1.349 . S
C2145 H2137 0.950 . S
C2145 C2143 1.327 . S
C2146 C2134 1.349 . S
C2146 H2140 0.950 . S
C2146 C2147 1.327 . S
C2147 H2141 0.950 . S
C2147 C2146 1.327 . S
C2147 C2151 1.429 . S
C2148 C2131 1.574 . S
C2148 H2142 0.949 . S
C2148 C2152 1.368 . S
C2149 C2130 1.429 . S
C2149 C2143 1.429 . S
C2149 C2150 1.523 . S
C2150 C2131 1.368 . S
C2150 C2144 1.368 . S
C2150 C2149 1.523 . S
C2151 C2135 1.429 . S
C2151 C2147 1.429 . S
C2151 C2152 1.523 . S
C2152 C2136 1.368 . S
C2152 C2148 1.368 . S
C2152 C2151 1.523 . S
H2153 C2128 0.950 . S
H2154 C2130 0.950 . S
H2155 C2131 0.949 . S
H2156 C2133 0.950 . S
H2157 C2135 0.950 . S
C2158 C2159 1.349 . S
C2158 C2160 1.327 . S
C2158 H2183 0.950 . S
C2159 C2158 1.349 . S
C2159 C2175 1.349 . S
C2160 C2158 1.327 . S
C2160 C2179 1.429 . S
C2160 H2184 0.950 . S
C2161 C2178 1.574 . S
C2161 C2180 1.368 . S
C2161 H2185 0.949 . S
H2162 C2166 0.949 . S
C2163 C2164 1.349 . S
C2163 C2165 1.327 . S
C2163 H2186 0.950 . S
C2164 C2163 1.349 . S
C2164 C2176 1.349 . S
C2165 C2163 1.327 . S
C2165 C2181 1.429 . S
C2165 H2187 0.950 . S
C2166 H2162 0.949 . S
C2166 C2174 1.574 . S
C2166 C2182 1.368 . S
H2167 C2175 0.950 . S
H2168 C2173 0.950 . S
H2169 C2174 0.949 . S
H2170 C2176 0.950 . S
H2171 C2177 0.950 . S
H2172 C2178 0.949 . S
C2173 H2168 0.950 . S
C2173 C2175 1.327 . S
C2173 C2179 1.429 . S
C2174 C2166 1.574 . S
C2174 H2169 0.949 . S
C2174 C2180 1.368 . S
C2175 C2159 1.349 . S
C2175 H2167 0.950 . S
C2175 C2173 1.327 . S
C2176 C2164 1.349 . S
C2176 H2170 0.950 . S
C2176 C2177 1.327 . S
C2177 H2171 0.950 . S
C2177 C2176 1.327 . S
C2177 C2181 1.429 . S
C2178 C2161 1.574 . S
C2178 H2172 0.949 . S
C2178 C2182 1.368 . S
C2179 C2160 1.429 . S
C2179 C2173 1.429 . S
C2179 C2180 1.523 . S
C2180 C2161 1.368 . S
C2180 C2174 1.368 . S
C2180 C2179 1.523 . S
C2181 C2165 1.429 . S
C2181 C2177 1.429 . S
C2181 C2182 1.523 . S
C2182 C2166 1.368 . S
C2182 C2178 1.368 . S
C2182 C2181 1.523 . S
H2183 C2158 0.950 . S
H2184 C2160 0.950 . S
H2185 C2161 0.949 . S
H2186 C2163 0.950 . S
H2187 C2165 0.950 . S
C2188 C2189 1.349 . S
C2188 C2190 1.327 . S
C2188 H2213 0.950 . S
C2189 C2188 1.349 . S
C2189 C2205 1.349 . S
C2190 C2188 1.327 . S
C2190 C2209 1.429 . S
C2190 H2214 0.950 . S
C2191 C2208 1.574 . S
C2191 C2210 1.368 . S
C2191 H2215 0.949 . S
H2192 C2196 0.949 . S
C2193 C2194 1.349 . S
C2193 C2195 1.327 . S
C2193 H2216 0.950 . S
C2194 C2193 1.349 . S
C2194 C2206 1.349 . S
C2195 C2193 1.327 . S
C2195 C2211 1.429 . S
C2195 H2217 0.950 . S
C2196 H2192 0.949 . S
C2196 C2204 1.574 . S
C2196 C2212 1.368 . S
H2197 C2205 0.950 . S
H2198 C2203 0.950 . S
H2199 C2204 0.949 . S
H2200 C2206 0.950 . S
H2201 C2207 0.950 . S
H2202 C2208 0.949 . S
C2203 H2198 0.950 . S
C2203 C2205 1.327 . S
C2203 C2209 1.429 . S
C2204 C2196 1.574 . S
C2204 H2199 0.949 . S
C2204 C2210 1.368 . S
C2205 C2189 1.349 . S
C2205 H2197 0.950 . S
C2205 C2203 1.327 . S
C2206 C2194 1.349 . S
C2206 H2200 0.950 . S
C2206 C2207 1.327 . S
C2207 H2201 0.950 . S
C2207 C2206 1.327 . S
C2207 C2211 1.429 . S
C2208 C2191 1.574 . S
C2208 H2202 0.949 . S
C2208 C2212 1.368 . S
C2209 C2190 1.429 . S
C2209 C2203 1.429 . S
C2209 C2210 1.523 . S
C2210 C2191 1.368 . S
C2210 C2204 1.368 . S
C2210 C2209 1.523 . S
C2211 C2195 1.429 . S
C2211 C2207 1.429 . S
C2211 C2212 1.523 . S
C2212 C2196 1.368 . S
C2212 C2208 1.368 . S
C2212 C2211 1.523 . S
H2213 C2188 0.950 . S
H2214 C2190 0.950 . S
H2215 C2191 0.949 . S
H2216 C2193 0.950 . S
H2217 C2195 0.950 . S
C2218 C2219 1.349 . S
C2218 C2220 1.327 . S
C2218 H2243 0.950 . S
C2219 C2218 1.349 . S
C2219 C2235 1.349 . S
C2220 C2218 1.327 . S
C2220 C2239 1.429 . S
C2220 H2244 0.950 . S
C2221 C2238 1.574 . S
C2221 C2240 1.368 . S
C2221 H2245 0.949 . S
H2222 C2226 0.949 . S
C2223 C2224 1.349 . S
C2223 C2225 1.327 . S
C2223 H2246 0.950 . S
C2224 C2223 1.349 . S
C2224 C2236 1.349 . S
C2225 C2223 1.327 . S
C2225 C2241 1.429 . S
C2225 H2247 0.950 . S
C2226 H2222 0.949 . S
C2226 C2234 1.574 . S
C2226 C2242 1.368 . S
H2227 C2235 0.950 . S
H2228 C2233 0.950 . S
H2229 C2234 0.949 . S
H2230 C2236 0.950 . S
H2231 C2237 0.950 . S
H2232 C2238 0.949 . S
C2233 H2228 0.950 . S
C2233 C2235 1.327 . S
C2233 C2239 1.429 . S
C2234 C2226 1.574 . S
C2234 H2229 0.949 . S
C2234 C2240 1.368 . S
C2235 C2219 1.349 . S
C2235 H2227 0.950 . S
C2235 C2233 1.327 . S
C2236 C2224 1.349 . S
C2236 H2230 0.950 . S
C2236 C2237 1.327 . S
C2237 H2231 0.950 . S
C2237 C2236 1.327 . S
C2237 C2241 1.429 . S
C2238 C2221 1.574 . S
C2238 H2232 0.949 . S
C2238 C2242 1.368 . S
C2239 C2220 1.429 . S
C2239 C2233 1.429 . S
C2239 C2240 1.523 . S
C2240 C2221 1.368 . S
C2240 C2234 1.368 . S
C2240 C2239 1.523 . S
C2241 C2225 1.429 . S
C2241 C2237 1.429 . S
C2241 C2242 1.523 . S
C2242 C2226 1.368 . S
C2242 C2238 1.368 . S
C2242 C2241 1.523 . S
H2243 C2218 0.950 . S
H2244 C2220 0.950 . S
H2245 C2221 0.949 . S
H2246 C2223 0.950 . S
H2247 C2225 0.950 . S
C2248 C2249 1.349 . S
C2248 C2250 1.327 . S
C2248 H2273 0.950 . S
C2249 C2248 1.349 . S
C2249 C2265 1.349 . S
C2250 C2248 1.327 . S
C2250 C2269 1.429 . S
C2250 H2274 0.950 . S
C2251 C2268 1.574 . S
C2251 C2270 1.368 . S
C2251 H2275 0.949 . S
H2252 C2256 0.949 . S
C2253 C2254 1.349 . S
C2253 C2255 1.327 . S
C2253 H2276 0.950 . S
C2254 C2253 1.349 . S
C2254 C2266 1.349 . S
C2255 C2253 1.327 . S
C2255 C2271 1.429 . S
C2255 H2277 0.950 . S
C2256 H2252 0.949 . S
C2256 C2264 1.574 . S
C2256 C2272 1.368 . S
H2257 C2265 0.950 . S
H2258 C2263 0.950 . S
H2259 C2264 0.949 . S
H2260 C2266 0.950 . S
H2261 C2267 0.950 . S
H2262 C2268 0.949 . S
C2263 H2258 0.950 . S
C2263 C2265 1.327 . S
C2263 C2269 1.429 . S
C2264 C2256 1.574 . S
C2264 H2259 0.949 . S
C2264 C2270 1.368 . S
C2265 C2249 1.349 . S
C2265 H2257 0.950 . S
C2265 C2263 1.327 . S
C2266 C2254 1.349 . S
C2266 H2260 0.950 . S
C2266 C2267 1.327 . S
C2267 H2261 0.950 . S
C2267 C2266 1.327 . S
C2267 C2271 1.429 . S
C2268 C2251 1.574 . S
C2268 H2262 0.949 . S
C2268 C2272 1.368 . S
C2269 C2250 1.429 . S
C2269 C2263 1.429 . S
C2269 C2270 1.523 . S
C2270 C2251 1.368 . S
C2270 C2264 1.368 . S
C2270 C2269 1.523 . S
C2271 C2255 1.429 . S
C2271 C2267 1.429 . S
C2271 C2272 1.523 . S
C2272 C2256 1.368 . S
C2272 C2268 1.368 . S
C2272 C2271 1.523 . S
H2273 C2248 0.950 . S
H2274 C2250 0.950 . S
H2275 C2251 0.949 . S
H2276 C2253 0.950 . S
H2277 C2255 0.950 . S
C2278 C2279 1.349 . S
C2278 C2280 1.327 . S
C2278 H2303 0.950 . S
C2279 C2278 1.349 . S
C2279 C2295 1.349 . S
C2280 C2278 1.327 . S
C2280 C2299 1.429 . S
C2280 H2304 0.950 . S
C2281 C2298 1.574 . S
C2281 C2300 1.368 . S
C2281 H2305 0.949 . S
H2282 C2286 0.949 . S
C2283 C2284 1.349 . S
C2283 C2285 1.327 . S
C2283 H2306 0.950 . S
C2284 C2283 1.349 . S
C2284 C2296 1.349 . S
C2285 C2283 1.327 . S
C2285 C2301 1.429 . S
C2285 H2307 0.950 . S
C2286 H2282 0.949 . S
C2286 C2294 1.574 . S
C2286 C2302 1.368 . S
H2287 C2295 0.950 . S
H2288 C2293 0.950 . S
H2289 C2294 0.949 . S
H2290 C2296 0.950 . S
H2291 C2297 0.950 . S
H2292 C2298 0.949 . S
C2293 H2288 0.950 . S
C2293 C2295 1.327 . S
C2293 C2299 1.429 . S
C2294 C2286 1.574 . S
C2294 H2289 0.949 . S
C2294 C2300 1.368 . S
C2295 C2279 1.349 . S
C2295 H2287 0.950 . S
C2295 C2293 1.327 . S
C2296 C2284 1.349 . S
C2296 H2290 0.950 . S
C2296 C2297 1.327 . S
C2297 H2291 0.950 . S
C2297 C2296 1.327 . S
C2297 C2301 1.429 . S
C2298 C2281 1.574 . S
C2298 H2292 0.949 . S
C2298 C2302 1.368 . S
C2299 C2280 1.429 . S
C2299 C2293 1.429 . S
C2299 C2300 1.523 . S
C2300 C2281 1.368 . S
C2300 C2294 1.368 . S
C2300 C2299 1.523 . S
C2301 C2285 1.429 . S
C2301 C2297 1.429 . S
C2301 C2302 1.523 . S
C2302 C2286 1.368 . S
C2302 C2298 1.368 . S
C2302 C2301 1.523 . S
H2303 C2278 0.950 . S
H2304 C2280 0.950 . S
H2305 C2281 0.949 . S
H2306 C2283 0.950 . S
H2307 C2285 0.950 . S
C2308 C2309 1.349 . S
C2308 C2310 1.327 . S
C2308 H2333 0.950 . S
C2309 C2308 1.349 . S
C2309 C2325 1.349 . S
C2310 C2308 1.327 . S
C2310 C2329 1.429 . S
C2310 H2334 0.950 . S
C2311 C2328 1.574 . S
C2311 C2330 1.368 . S
C2311 H2335 0.949 . S
H2312 C2316 0.949 . S
C2313 C2314 1.349 . S
C2313 C2315 1.327 . S
C2313 H2336 0.950 . S
C2314 C2313 1.349 . S
C2314 C2326 1.349 . S
C2315 C2313 1.327 . S
C2315 C2331 1.429 . S
C2315 H2337 0.950 . S
C2316 H2312 0.949 . S
C2316 C2324 1.574 . S
C2316 C2332 1.368 . S
H2317 C2325 0.950 . S
H2318 C2323 0.950 . S
H2319 C2324 0.949 . S
H2320 C2326 0.950 . S
H2321 C2327 0.950 . S
H2322 C2328 0.949 . S
C2323 H2318 0.950 . S
C2323 C2325 1.327 . S
C2323 C2329 1.429 . S
C2324 C2316 1.574 . S
C2324 H2319 0.949 . S
C2324 C2330 1.368 . S
C2325 C2309 1.349 . S
C2325 H2317 0.950 . S
C2325 C2323 1.327 . S
C2326 C2314 1.349 . S
C2326 H2320 0.950 . S
C2326 C2327 1.327 . S
C2327 H2321 0.950 . S
C2327 C2326 1.327 . S
C2327 C2331 1.429 . S
C2328 C2311 1.574 . S
C2328 H2322 0.949 . S
C2328 C2332 1.368 . S
C2329 C2310 1.429 . S
C2329 C2323 1.429 . S
C2329 C2330 1.523 . S
C2330 C2311 1.368 . S
C2330 C2324 1.368 . S
C2330 C2329 1.523 . S
C2331 C2315 1.429 . S
C2331 C2327 1.429 . S
C2331 C2332 1.523 . S
C2332 C2316 1.368 . S
C2332 C2328 1.368 . S
C2332 C2331 1.523 . S
H2333 C2308 0.950 . S
H2334 C2310 0.950 . S
H2335 C2311 0.949 . S
H2336 C2313 0.950 . S
H2337 C2315 0.950 . S
C2338 C2339 1.349 . S
C2338 C2340 1.327 . S
C2338 H2363 0.950 . S
C2339 C2338 1.349 . S
C2339 C2355 1.349 . S
C2340 C2338 1.327 . S
C2340 C2359 1.429 . S
C2340 H2364 0.950 . S
C2341 C2358 1.574 . S
C2341 C2360 1.368 . S
C2341 H2365 0.949 . S
H2342 C2346 0.949 . S
C2343 C2344 1.349 . S
C2343 C2345 1.327 . S
C2343 H2366 0.950 . S
C2344 C2343 1.349 . S
C2344 C2356 1.349 . S
C2345 C2343 1.327 . S
C2345 C2361 1.429 . S
C2345 H2367 0.950 . S
C2346 H2342 0.949 . S
C2346 C2354 1.574 . S
C2346 C2362 1.368 . S
H2347 C2355 0.950 . S
H2348 C2353 0.950 . S
H2349 C2354 0.949 . S
H2350 C2356 0.950 . S
H2351 C2357 0.950 . S
H2352 C2358 0.949 . S
C2353 H2348 0.950 . S
C2353 C2355 1.327 . S
C2353 C2359 1.429 . S
C2354 C2346 1.574 . S
C2354 H2349 0.949 . S
C2354 C2360 1.368 . S
C2355 C2339 1.349 . S
C2355 H2347 0.950 . S
C2355 C2353 1.327 . S
C2356 C2344 1.349 . S
C2356 H2350 0.950 . S
C2356 C2357 1.327 . S
C2357 H2351 0.950 . S
C2357 C2356 1.327 . S
C2357 C2361 1.429 . S
C2358 C2341 1.574 . S
C2358 H2352 0.949 . S
C2358 C2362 1.368 . S
C2359 C2340 1.429 . S
C2359 C2353 1.429 . S
C2359 C2360 1.523 . S
C2360 C2341 1.368 . S
C2360 C2354 1.368 . S
C2360 C2359 1.523 . S
C2361 C2345 1.429 . S
C2361 C2357 1.429 . S
C2361 C2362 1.523 . S
C2362 C2346 1.368 . S
C2362 C2358 1.368 . S
C2362 C2361 1.523 . S
H2363 C2338 0.950 . S
H2364 C2340 0.950 . S
H2365 C2341 0.949 . S
H2366 C2343 0.950 . S
H2367 C2345 0.950 . S
C449 C410 1.132 . S
C454 C4 1.132 . S
C479 C18 1.132 . S
C484 C424 1.132 . S
C509 C438 1.132 . S
C514 C32 1.132 . S
C539 C396 1.132 . S
C544 C46 1.132 . S
C569 C60 1.132 . S
C574 C382 1.132 . S
C599 C340 1.132 . S
C604 C74 1.132 . S
C629 C88 1.132 . S
C634 C354 1.132 . S
C659 C368 1.132 . S
C664 C102 1.132 . S
C689 C116 1.132 . S
C694 C298 1.132 . S
C719 C130 1.132 . S
C724 C312 1.132 . S
C749 C326 1.132 . S
C754 C144 1.132 . S
C779 C158 1.132 . S
C784 C284 1.132 . S
C809 C270 1.132 . S
C814 C172 1.132 . S
C839 C228 1.132 . S
C844 C186 1.132 . S
C869 C200 1.132 . S
C874 C242 1.132 . S
C899 C214 1.132 . S
C904 C256 1.132 . S
C929 C5 1.275 . S
C934 C145 1.275 . S
C959 C159 1.275 . S
C964 C19 1.275 . S
C989 C117 1.275 . S
C994 C33 1.275 . S
C1019 C131 1.275 . S
C1024 C47 1.275 . S
C1049 C61 1.275 . S
C1054 C201 1.275 . S
C1079 C215 1.275 . S
C1084 C75 1.275 . S
C1109 C173 1.275 . S
C1114 C89 1.275 . S
C1139 C187 1.275 . S
C1144 C103 1.275 . S
C1169 C229 1.275 . S
C1174 C369 1.275 . S
C1199 C383 1.275 . S
C1204 C243 1.275 . S
C1229 C341 1.275 . S
C1234 C257 1.275 . S
C1259 C271 1.275 . S
C1264 C355 1.275 . S
C1289 C285 1.275 . S
C1294 C425 1.275 . S
C1319 C439 1.275 . S
C1324 C299 1.275 . S
C1349 C397 1.275 . S
C1354 C313 1.275 . S
C1379 C327 1.275 . S
C1384 C411 1.275 . S
C1409 C11 1.059 . S
C1414 C67 1.059 . S
C1439 C25 1.059 . S
C1444 C81 1.059 . S
C1469 C95 1.059 . S
C1474 C39 1.059 . S
C1499 C53 1.059 . S
C1504 C109 1.059 . S
C1529 C123 1.059 . S
C1534 C179 1.059 . S
C1559 C193 1.059 . S
C1564 C137 1.059 . S
C1589 C207 1.059 . S
C1594 C151 1.059 . S
C1619 C165 1.059 . S
C1624 C221 1.059 . S
C1649 C235 1.059 . S
C1654 C291 1.059 . S
C1679 C305 1.059 . S
C1684 C249 1.059 . S
C1709 C263 1.059 . S
C1714 C319 1.059 . S
C1739 C333 1.059 . S
C1744 C277 1.059 . S
C1769 C403 1.059 . S
C1774 C347 1.059 . S
C1799 C361 1.059 . S
C1804 C417 1.059 . S
C1829 C375 1.059 . S
C1834 C431 1.059 . S
C1859 C389 1.059 . S
C1864 C445 1.059 . S
C1889 C12 1.537 . S
C1894 C82 1.537 . S
C1919 C26 1.537 . S
C1924 C96 1.537 . S
C1949 C110 1.537 . S
C1954 C40 1.537 . S
C1979 C68 1.537 . S
C1984 C54 1.537 . S
C2009 C194 1.537 . S
C2014 C124 1.537 . S
C2039 C208 1.537 . S
C2044 C138 1.537 . S
C2069 C222 1.537 . S
C2074 C152 1.537 . S
C2099 C166 1.537 . S
C2104 C180 1.537 . S
C2129 C236 1.537 . S
C2134 C306 1.537 . S
C2159 C320 1.537 . S
C2164 C250 1.537 . S
C2189 C334 1.537 . S
C2194 C264 1.537 . S
C2219 C278 1.537 . S
C2224 C292 1.537 . S
C2249 C418 1.537 . S
C2254 C348 1.537 . S
C2279 C362 1.537 . S
C2284 C432 1.537 . S
C2309 C376 1.537 . S
C2314 C446 1.537 . S
C2339 C404 1.537 . S
C2344 C390 1.537 . S
