# Generated by pormake.
# Topology umb, (4)-cn, num edge types: 1
# Building blocks:
#     Node 0, Type 0, BuildingBlock: ESEHIV_clean_sbu_0, # of connection points: 4
#     Node 1, Type 0, BuildingBlock: ESEHIV_clean_sbu_0, # of connection points: 4
#     Node 2, Type 0, BuildingBlock: ESEHIV_clean_sbu_0, # of connection points: 4
#     Node 3, Type 0, BuildingBlock: ESEHIV_clean_sbu_0, # of connection points: 4
#     Node 4, Type 0, BuildingBlock: ESEHIV_clean_sbu_0, # of connection points: 4
#     Node 5, Type 0, BuildingBlock: ESEHIV_clean_sbu_0, # of connection points: 4
#     Node 6, Type 0, BuildingBlock: ESEHIV_clean_sbu_0, # of connection points: 4
#     Node 7, Type 0, BuildingBlock: ESEHIV_clean_sbu_0, # of connection points: 4
#     Node 8, Type 0, BuildingBlock: ESEHIV_clean_sbu_0, # of connection points: 4
#     Node 9, Type 0, BuildingBlock: ESEHIV_clean_sbu_0, # of connection points: 4
#     Node 10, Type 0, BuildingBlock: ESEHIV_clean_sbu_0, # of connection points: 4
#     Node 11, Type 0, BuildingBlock: ESEHIV_clean_sbu_0, # of connection points: 4
#     Edge 12, Type (0, 0), BuildingBlock: TEMPAE_clean_linker_10, # of connection points: 2
#     Edge 13, Type (0, 0), BuildingBlock: TEMPAE_clean_linker_10, # of connection points: 2
#     Edge 14, Type (0, 0), BuildingBlock: TEMPAE_clean_linker_10, # of connection points: 2
#     Edge 15, Type (0, 0), BuildingBlock: TEMPAE_clean_linker_10, # of connection points: 2
#     Edge 16, Type (0, 0), BuildingBlock: TEMPAE_clean_linker_10, # of connection points: 2
#     Edge 17, Type (0, 0), BuildingBlock: TEMPAE_clean_linker_10, # of connection points: 2
#     Edge 18, Type (0, 0), BuildingBlock: TEMPAE_clean_linker_10, # of connection points: 2
#     Edge 19, Type (0, 0), BuildingBlock: TEMPAE_clean_linker_10, # of connection points: 2
#     Edge 20, Type (0, 0), BuildingBlock: TEMPAE_clean_linker_10, # of connection points: 2
#     Edge 21, Type (0, 0), BuildingBlock: TEMPAE_clean_linker_10, # of connection points: 2
#     Edge 22, Type (0, 0), BuildingBlock: TEMPAE_clean_linker_10, # of connection points: 2
#     Edge 23, Type (0, 0), BuildingBlock: TEMPAE_clean_linker_10, # of connection points: 2
#     Edge 24, Type (0, 0), BuildingBlock: TEMPAE_clean_linker_10, # of connection points: 2
#     Edge 25, Type (0, 0), BuildingBlock: TEMPAE_clean_linker_10, # of connection points: 2
#     Edge 26, Type (0, 0), BuildingBlock: TEMPAE_clean_linker_10, # of connection points: 2
#     Edge 27, Type (0, 0), BuildingBlock: TEMPAE_clean_linker_10, # of connection points: 2
#     Edge 28, Type (0, 0), BuildingBlock: TEMPAE_clean_linker_10, # of connection points: 2
#     Edge 29, Type (0, 0), BuildingBlock: TEMPAE_clean_linker_10, # of connection points: 2
#     Edge 30, Type (0, 0), BuildingBlock: TEMPAE_clean_linker_10, # of connection points: 2
#     Edge 31, Type (0, 0), BuildingBlock: TEMPAE_clean_linker_10, # of connection points: 2
#     Edge 32, Type (0, 0), BuildingBlock: TEMPAE_clean_linker_10, # of connection points: 2
#     Edge 33, Type (0, 0), BuildingBlock: TEMPAE_clean_linker_10, # of connection points: 2
#     Edge 34, Type (0, 0), BuildingBlock: TEMPAE_clean_linker_10, # of connection points: 2
#     Edge 35, Type (0, 0), BuildingBlock: TEMPAE_clean_linker_10, # of connection points: 2
# Relax obj value: 0.174
# Max RMSD: 0.161
# Mean RMSD: 0.145
data_MOF--net-umb--node1-ESEHIV_clean_sbu_0--edge1-TEMPAE_clean_linker_10
_symmetry_space_group_name_H-M    P1
_symmetry_Int_Tables_number       1
_symmetry_cell_setting            triclinic
loop_
_symmetry_equiv_pos_as_xyz
'x, y, z'
_cell_length_a     51.210359
_cell_length_b     54.894847
_cell_length_c     40.889126
_cell_angle_alpha  90.08392
_cell_angle_beta   89.94755
_cell_angle_gamma 117.70915
loop_
_atom_site_label
_atom_site_type_symbol
_atom_site_fract_x
_atom_site_fract_y
_atom_site_fract_z
_atom_type_partial_charge
Cu0 Cu 0.55993 0.17887 0.34731 0.0
N1 N 0.5967 0.1827 0.33523 0.0
N2 N 0.64528 0.20632 0.3265 0.0
C3 C 0.61874 0.20576 0.32295 0.0
C4 C 0.63919 0.18182 0.34008 0.0
C5 C 0.60928 0.16736 0.34551 0.0
O6 O 0.5509 0.20291 0.31933 0.0
C7 C 0.58484 0.20362 0.40845 0.0
O8 O 0.60772 0.21919 0.39029 0.0
H9 H 0.6155 0.22286 0.3148 0.0
H10 H 0.5981 0.14847 0.35923 0.0
N11 N 0.53226 0.14261 0.33895 0.0
N12 N 0.51161 0.09668 0.33659 0.0
C13 C 0.53176 0.11978 0.35158 0.0
C14 C 0.51153 0.13383 0.31548 0.0
C15 C 0.49872 0.10555 0.31398 0.0
C16 C 0.56172 0.22894 0.32197 0.0
O17 O 0.57896 0.24151 0.34686 0.0
H18 H 0.54656 0.12029 0.37071 0.0
H19 H 0.50711 0.14715 0.29948 0.0
O20 O 0.5612 0.18614 0.3945 0.0
H21 H 0.65538 0.17601 0.34908 0.0
H22 H 0.48241 0.09275 0.29626 0.0
Cu23 Cu 0.36683 0.5573 0.67748 0.0
N24 N 0.40011 0.59063 0.67024 0.0
N25 N 0.43749 0.63247 0.67847 0.0
C26 C 0.41427 0.61088 0.69202 0.0
C27 C 0.43813 0.6254 0.64697 0.0
C28 C 0.41514 0.5994 0.64205 0.0
O29 O 0.33555 0.55593 0.64937 0.0
C30 C 0.35293 0.57097 0.74012 0.0
O31 O 0.34643 0.58807 0.72387 0.0
H32 H 0.4069 0.61044 0.71689 0.0
H33 H 0.40932 0.58792 0.61937 0.0
N34 N 0.37817 0.53116 0.66502 0.0
N35 N 0.41026 0.5144 0.66152 0.0
C36 C 0.39954 0.52793 0.68031 0.0
C37 C 0.37507 0.5192 0.63554 0.0
C38 C 0.39459 0.50853 0.63348 0.0
C39 C 0.31561 0.53365 0.63734 0.0
O40 O 0.31294 0.51001 0.64789 0.0
H41 H 0.40874 0.53753 0.70355 0.0
H42 H 0.36194 0.52066 0.61569 0.0
O43 O 0.35922 0.55441 0.72426 0.0
H44 H 0.45345 0.63843 0.62857 0.0
H45 H 0.39899 0.49974 0.61176 0.0
Cu46 Cu 0.8363 0.40152 0.99137 0.0
N47 N 0.83177 0.38893 0.03445 0.0
N48 N 0.82374 0.38844 0.08842 0.0
C49 C 0.82287 0.39952 0.05921 0.0
C50 C 0.8334 0.36987 0.08151 0.0
C51 C 0.83836 0.37026 0.04822 0.0
O52 O 0.87785 0.42655 0.98428 0.0
C53 C 0.8003 0.42697 0.9676 0.0
O54 O 0.80337 0.42137 0.93704 0.0
H55 H 0.81642 0.41551 0.05574 0.0
H56 H 0.84703 0.35843 0.03517 0.0
N57 N 0.82364 0.37212 0.96157 0.0
N58 N 0.80042 0.34168 0.92151 0.0
C59 C 0.80012 0.36142 0.94124 0.0
C60 C 0.83896 0.35841 0.95479 0.0
C61 C 0.8248 0.33971 0.93024 0.0
C62 C 0.89121 0.44793 1.00197 0.0
O63 O 0.8761 0.45355 1.02401 0.0
H64 H 0.78358 0.36842 0.94028 0.0
H65 H 0.85941 0.36218 0.96656 0.0
O66 O 0.8129 0.42072 0.99038 0.0
H67 H 0.83783 0.3577 0.09931 0.0
H68 H 0.83202 0.3258 0.91959 0.0
Cu69 Cu 0.4364 0.82269 0.34627 0.0
N70 N 0.40017 0.81953 0.33312 0.0
N71 N 0.35238 0.79682 0.31957 0.0
C72 C 0.37916 0.79763 0.31757 0.0
C73 C 0.35728 0.81986 0.3362 0.0
C74 C 0.38662 0.83367 0.34466 0.0
O75 O 0.44572 0.79929 0.31755 0.0
C76 C 0.44742 0.82638 0.4156 0.0
O77 O 0.47097 0.84954 0.40874 0.0
H78 H 0.38316 0.78146 0.3076 0.0
H79 H 0.39646 0.85103 0.36108 0.0
N80 N 0.46532 0.85908 0.34068 0.0
N81 N 0.48764 0.905 0.33851 0.0
C82 C 0.46401 0.88217 0.34934 0.0
C83 C 0.49075 0.86759 0.32406 0.0
C84 C 0.50456 0.89592 0.32262 0.0
C85 C 0.43377 0.77314 0.31921 0.0
O86 O 0.41528 0.76048 0.34315 0.0
H87 H 0.44567 0.88225 0.3623 0.0
H88 H 0.49826 0.85406 0.31296 0.0
O89 O 0.43139 0.81152 0.39228 0.0
H90 H 0.34042 0.82485 0.34505 0.0
H91 H 0.52521 0.90879 0.3104 0.0
Cu92 Cu 0.63213 0.45208 0.6735 0.0
N93 N 0.60056 0.41806 0.66363 0.0
N94 N 0.5662 0.37473 0.67089 0.0
C95 C 0.59041 0.39599 0.68326 0.0
C96 C 0.56119 0.38343 0.64188 0.0
C97 C 0.58236 0.41043 0.6376 0.0
O98 O 0.66581 0.45433 0.64891 0.0
C99 C 0.61164 0.44676 0.73721 0.0
O100 O 0.58764 0.44173 0.72072 0.0
H101 H 0.60083 0.3954 0.70606 0.0
H102 H 0.58429 0.42354 0.61705 0.0
N103 N 0.62223 0.47863 0.65796 0.0
N104 N 0.59691 0.5024 0.65423 0.0
C105 C 0.60874 0.49079 0.6745 0.0
C106 C 0.61986 0.48359 0.6262 0.0
C107 C 0.60437 0.49831 0.6238 0.0
C108 C 0.68377 0.47634 0.63447 0.0
O109 O 0.68327 0.49949 0.64141 0.0
H110 H 0.60579 0.48948 0.7007 0.0
H111 H 0.62652 0.47489 0.60609 0.0
O112 O 0.63545 0.453 0.72137 0.0
H113 H 0.54356 0.3712 0.62512 0.0
H114 H 0.5965 0.50296 0.60129 0.0
Cu115 Cu 0.16918 0.60616 0.99632 0.0
N116 N 0.17505 0.61915 0.03934 0.0
N117 N 0.18574 0.6213 0.09273 0.0
C118 C 0.18295 0.60787 0.06419 0.0
C119 C 0.17923 0.64188 0.0854 0.0
C120 C 0.17271 0.64053 0.05243 0.0
O121 O 0.1273 0.58214 0.98969 0.0
C122 C 0.20308 0.57977 0.97005 0.0
O123 O 0.20049 0.58727 0.94025 0.0
H124 H 0.18609 0.5898 0.06138 0.0
H125 H 0.16674 0.65415 0.03897 0.0
N126 N 0.18201 0.63543 0.96639 0.0
N127 N 0.20524 0.66564 0.92617 0.0
C128 C 0.20585 0.6464 0.94649 0.0
C129 C 0.16625 0.64854 0.95879 0.0
C130 C 0.18041 0.66708 0.93415 0.0
C131 C 0.11347 0.56018 1.00624 0.0
O132 O 0.12813 0.55333 1.02751 0.0
H133 H 0.22279 0.63989 0.94618 0.0
H134 H 0.14545 0.64438 0.97 0.0
O135 O 0.19109 0.58552 0.99396 0.0
H136 H 0.17948 0.65705 0.1025 0.0
H137 H 0.17282 0.68045 0.92284 0.0
Cu138 Cu 0.81825 0.45808 0.38328 0.0
N139 N 0.81492 0.42429 0.39604 0.0
N140 N 0.80513 0.38035 0.39272 0.0
C141 C 0.80506 0.40185 0.37698 0.0
C142 C 0.81521 0.38957 0.42311 0.0
C143 C 0.82143 0.41685 0.42502 0.0
O144 O 0.79398 0.46728 0.41204 0.0
C145 C 0.82878 0.45253 0.31842 0.0
O146 O 0.8521 0.45326 0.33265 0.0
H147 H 0.79679 0.40098 0.35244 0.0
H148 H 0.82976 0.43024 0.44607 0.0
N149 N 0.85707 0.48432 0.39017 0.0
N150 N 0.90573 0.50169 0.39514 0.0
C151 C 0.87967 0.47869 0.39434 0.0
C152 C 0.86906 0.51193 0.38903 0.0
C153 C 0.89928 0.52278 0.39219 0.0
C154 C 0.76885 0.44974 0.42261 0.0
O155 O 0.75605 0.42492 0.40986 0.0
H156 H 0.87711 0.45799 0.39536 0.0
H157 H 0.85683 0.52325 0.38488 0.0
O158 O 0.80972 0.45515 0.33623 0.0
H159 H 0.81741 0.37736 0.44265 0.0
H160 H 0.9153 0.54431 0.39066 0.0
Cu161 Cu 0.38857 0.824 0.71512 0.0
N162 N 0.42274 0.82249 0.72776 0.0
N163 N 0.44974 0.80217 0.74331 0.0
C164 C 0.42376 0.80281 0.74636 0.0
C165 C 0.46603 0.82316 0.72294 0.0
C166 C 0.44928 0.83546 0.71322 0.0
O167 O 0.35617 0.79999 0.74382 0.0
C168 C 0.39087 0.7988 0.65483 0.0
O169 O 0.40022 0.78489 0.67329 0.0
H170 H 0.40472 0.78751 0.75913 0.0
H171 H 0.45483 0.85055 0.69397 0.0
N172 N 0.39502 0.86012 0.72015 0.0
N173 N 0.41877 0.90604 0.72246 0.0
C174 C 0.42138 0.88276 0.72009 0.0
C175 C 0.37489 0.86929 0.72287 0.0
C176 C 0.38951 0.89768 0.72442 0.0
C177 C 0.34445 0.7738 0.74389 0.0
O178 O 0.35268 0.76138 0.72178 0.0
H179 H 0.44214 0.88224 0.7185 0.0
H180 H 0.35127 0.85626 0.72317 0.0
O181 O 0.38253 0.81497 0.66842 0.0
H182 H 0.48701 0.82708 0.71238 0.0
H183 H 0.37935 0.91108 0.72598 0.0
Cu184 Cu 0.5581 0.39582 0.06731 0.0
N185 N 0.5499 0.38475 1.02363 0.0
N186 N 0.55681 0.38612 0.96939 0.0
C187 C 0.56745 0.3986 0.99841 0.0
C188 C 0.53145 0.36339 0.97685 0.0
C189 C 0.52728 0.36259 1.01031 0.0
O190 O 0.54335 0.42207 0.07581 0.0
C191 C 0.61186 0.39687 0.06273 0.0
O192 O 0.59427 0.37041 0.05899 0.0
H193 H 0.5879 0.41736 1.00152 0.0
H194 H 0.50904 0.34702 1.02388 0.0
N195 N 0.54028 0.36598 0.09631 0.0
N196 N 0.53266 0.33636 0.13739 0.0
C197 C 0.55288 0.35799 0.12019 0.0
C198 C 0.51119 0.34892 0.09861 0.0
C199 C 0.50642 0.33066 0.12378 0.0
C200 C 0.55637 0.44656 0.06488 0.0
O201 O 0.58137 0.45476 0.04898 0.0
H202 H 0.5763 0.36824 0.12535 0.0
H203 H 0.49454 0.34994 0.08325 0.0
O204 O 0.60062 0.41256 0.06977 0.0
H205 H 0.51661 0.3486 0.95942 0.0
H206 H 0.48523 0.31434 0.13134 0.0
Cu207 Cu 0.18933 0.5479 0.37739 0.0
N208 N 0.19078 0.58132 0.38868 0.0
N209 N 0.19664 0.62407 0.38437 0.0
C210 C 0.19526 0.60205 0.36829 0.0
C211 C 0.19217 0.61657 0.41617 0.0
C212 C 0.18836 0.59007 0.4187 0.0
O213 O 0.21262 0.53941 0.40836 0.0
C214 C 0.22109 0.56852 0.31767 0.0
O215 O 0.24198 0.58664 0.33633 0.0
H216 H 0.19906 0.6016 0.34236 0.0
H217 H 0.18504 0.57832 0.44092 0.0
N218 N 0.15056 0.52176 0.38303 0.0
N219 N 0.10202 0.50488 0.38842 0.0
C220 C 0.12725 0.52619 0.37805 0.0
C221 C 0.1399 0.49676 0.39692 0.0
C222 C 0.10977 0.48623 0.40032 0.0
C223 C 0.23726 0.55709 0.41989 0.0
O224 O 0.25042 0.58191 0.40725 0.0
H225 H 0.12906 0.54538 0.36877 0.0
H226 H 0.15322 0.4874 0.40518 0.0
O227 O 0.19878 0.5489 0.33108 0.0
H228 H 0.1928 0.62963 0.43632 0.0
H229 H 0.09489 0.46673 0.41132 0.0
Cu230 Cu 0.61465 0.17965 0.71493 0.0
N231 N 0.58072 0.18149 0.72793 0.0
N232 N 0.55468 0.20364 0.73972 0.0
C233 C 0.58063 0.20309 0.74329 0.0
C234 C 0.53731 0.18055 0.72286 0.0
C235 C 0.55346 0.16707 0.71544 0.0
O236 O 0.64746 0.20457 0.74261 0.0
C237 C 0.61183 0.20387 0.65433 0.0
O238 O 0.60282 0.21806 0.67285 0.0
H239 H 0.60034 0.21967 0.75352 0.0
H240 H 0.54689 0.1501 0.69856 0.0
N241 N 0.60862 0.14392 0.72208 0.0
N242 N 0.58563 0.09805 0.72556 0.0
C243 C 0.58449 0.12054 0.71399 0.0
C244 C 0.62589 0.13604 0.73905 0.0
C245 C 0.61175 0.10772 0.74128 0.0
C246 C 0.66019 0.23076 0.74118 0.0
O247 O 0.65282 0.24286 0.7179 0.0
H248 H 0.56593 0.12009 0.70102 0.0
H249 H 0.64687 0.14997 0.74985 0.0
O250 O 0.6199 0.18752 0.66788 0.0
H251 H 0.51593 0.17571 0.71268 0.0
H252 H 0.61991 0.09531 0.75391 0.0
Cu253 Cu 0.43842 0.6076 0.06348 0.0
N254 N 0.44611 0.62001 1.02015 0.0
N255 N 0.4377 0.62114 0.96649 0.0
C256 C 0.42559 0.61344 0.99652 0.0
C257 C 0.46716 0.63357 0.97171 0.0
C258 C 0.47225 0.6328 1.00477 0.0
O259 O 0.45345 0.58118 0.07119 0.0
C260 C 0.37857 0.56872 0.05482 0.0
O261 O 0.38938 0.5533 0.0422 0.0
H262 H 0.40219 0.60235 1.00121 0.0
H263 H 0.49344 0.63961 1.01648 0.0
N264 N 0.45649 0.63712 0.0927 0.0
N265 N 0.46393 0.66674 0.13378 0.0
C266 C 0.44371 0.64572 0.11575 0.0
C267 C 0.48567 0.65326 0.09615 0.0
C268 C 0.49034 0.6715 0.12139 0.0
C269 C 0.456 0.56669 0.0482 0.0
O270 O 0.44726 0.56876 1.01861 0.0
H271 H 0.42013 0.63627 0.11977 0.0
H272 H 0.50241 0.65159 0.08156 0.0
O273 O 0.39603 0.5914 0.06835 0.0
H274 H 0.48393 0.64124 0.9529 0.0
H275 H 0.51158 0.68713 0.12988 0.0
C276 C 0.61499 0.2231 0.45911 0.0
C277 C 0.58801 0.20473 0.44472 0.0
C278 C 0.61945 0.22334 0.49304 0.0
C279 C 0.59636 0.20483 0.51335 0.0
C280 C 0.56891 0.1865 0.49911 0.0
C281 C 0.56507 0.18664 0.465 0.0
C282 C 0.64904 0.24326 0.5071 0.0
C283 C 0.54367 0.16654 0.51992 0.0
C284 C 0.61606 0.18805 0.59755 0.0
C285 C 0.60952 0.205 0.61809 0.0
C286 C 0.61193 0.1878 0.56346 0.0
C287 C 0.60095 0.20486 0.5495 0.0
C288 C 0.59465 0.22223 0.57007 0.0
C289 C 0.59904 0.22211 0.60399 0.0
C290 C 0.61908 0.16908 0.54238 0.0
C291 C 0.583 0.2408 0.55629 0.0
H292 H 0.63294 0.23716 0.44378 0.0
H293 H 0.54419 0.17231 0.45419 0.0
H294 H 0.64623 0.25681 0.52538 0.0
H295 H 0.65895 0.23178 0.52 0.0
H296 H 0.66472 0.25635 0.48801 0.0
H297 H 0.52363 0.15385 0.50523 0.0
H298 H 0.55033 0.15262 0.53302 0.0
H299 H 0.53802 0.17791 0.53873 0.0
H300 H 0.62406 0.17468 0.60813 0.0
H301 H 0.59384 0.23528 0.61953 0.0
H302 H 0.63579 0.18135 0.52374 0.0
H303 H 0.59903 0.15437 0.52908 0.0
H304 H 0.62765 0.15724 0.55689 0.0
H305 H 0.59883 0.25515 0.53821 0.0
H306 H 0.57915 0.25306 0.57556 0.0
H307 H 0.56194 0.22835 0.54322 0.0
C308 C 0.37487 0.56271 0.79101 0.0
C309 C 0.35965 0.57522 0.77568 0.0
C310 C 0.38554 0.56971 0.82309 0.0
C311 C 0.38057 0.58944 0.84061 0.0
C312 C 0.36393 0.60112 0.82594 0.0
C313 C 0.35385 0.59403 0.79358 0.0
C314 C 0.40326 0.55682 0.83773 0.0
C315 C 0.35773 0.62189 0.84397 0.0
C316 C 0.39371 0.59251 0.93255 0.0
C317 C 0.42251 0.61438 0.93529 0.0
C318 C 0.37947 0.58464 0.90209 0.0
C319 C 0.39427 0.59888 0.8735 0.0
C320 C 0.42298 0.62134 0.8761 0.0
C321 C 0.43666 0.62886 0.90688 0.0
C322 C 0.34874 0.56075 0.90046 0.0
C323 C 0.43959 0.63704 0.8462 0.0
H324 H 0.3796 0.54823 0.77745 0.0
H325 H 0.34209 0.60379 0.78202 0.0
H326 H 0.42621 0.57296 0.84223 0.0
H327 H 0.39382 0.5473 0.86167 0.0
H328 H 0.40395 0.54085 0.82157 0.0
H329 H 0.34226 0.62716 0.83037 0.0
H330 H 0.34824 0.61388 0.86843 0.0
H331 H 0.37865 0.64104 0.84789 0.0
H332 H 0.38244 0.58088 0.95402 0.0
H333 H 0.4586 0.64604 0.9086 0.0
H334 H 0.3481 0.54494 0.8831 0.0
H335 H 0.33319 0.56799 0.89118 0.0
H336 H 0.34082 0.55091 0.92468 0.0
H337 H 0.44364 0.62313 0.82961 0.0
H338 H 0.46113 0.65483 0.85246 0.0
H339 H 0.42621 0.64468 0.83245 0.0
C340 C 0.79633 0.43397 0.26853 0.0
C341 C 0.82437 0.4458 0.28303 0.0
C342 C 0.79234 0.42434 0.23595 0.0
C343 C 0.81696 0.42665 0.21765 0.0
C344 C 0.84537 0.43953 0.23192 0.0
C345 C 0.84868 0.44891 0.26426 0.0
C346 C 0.76174 0.4109 0.2215 0.0
C347 C 0.8723 0.44265 0.21337 0.0
C348 C 0.81255 0.37935 0.14756 0.0
C349 C 0.81844 0.39675 0.12038 0.0
C350 C 0.81009 0.38819 0.1792 0.0
C351 C 0.81351 0.41509 0.18391 0.0
C352 C 0.81774 0.43218 0.15643 0.0
C353 C 0.82028 0.42289 0.12513 0.0
C354 C 0.80539 0.36922 0.20782 0.0
C355 C 0.82136 0.46095 0.16025 0.0
H356 H 0.77742 0.43134 0.28294 0.0
H357 H 0.87048 0.45823 0.27515 0.0
H358 H 0.76171 0.42006 0.19734 0.0
H359 H 0.75453 0.38869 0.21746 0.0
H360 H 0.74543 0.41297 0.23766 0.0
H361 H 0.89295 0.45387 0.22769 0.0
H362 H 0.86987 0.42206 0.20693 0.0
H363 H 0.87454 0.45391 0.19017 0.0
H364 H 0.81039 0.35893 0.14425 0.0
H365 H 0.82498 0.43673 0.10462 0.0
H366 H 0.78738 0.36825 0.22373 0.0
H367 H 0.82574 0.37737 0.22287 0.0
H368 H 0.79991 0.34802 0.19987 0.0
H369 H 0.8043 0.46103 0.17692 0.0
H370 H 0.81994 0.46998 0.13643 0.0
H371 H 0.8432 0.47438 0.17129 0.0
C372 C 0.41015 0.79748 0.45799 0.0
C373 C 0.438 0.81921 0.45027 0.0
C374 C 0.40018 0.79205 0.49059 0.0
C375 C 0.41852 0.80861 0.51619 0.0
C376 C 0.44686 0.83018 0.50858 0.0
C377 C 0.4562 0.83523 0.47582 0.0
C378 C 0.3698 0.7689 0.4976 0.0
C379 C 0.46725 0.84821 0.53508 0.0
C380 C 0.38732 0.81549 0.59845 0.0
C381 C 0.39441 0.79876 0.61865 0.0
C382 C 0.39398 0.81805 0.56481 0.0
C383 C 0.40822 0.80365 0.55096 0.0
C384 C 0.41436 0.7859 0.57096 0.0
C385 C 0.40733 0.78362 0.60444 0.0
C386 C 0.38679 0.837 0.54432 0.0
C387 C 0.42953 0.77018 0.55731 0.0
H388 H 0.39582 0.78504 0.43848 0.0
H389 H 0.47774 0.85205 0.47022 0.0
H390 H 0.37129 0.75417 0.51511 0.0
H391 H 0.35603 0.77722 0.50924 0.0
H392 H 0.35849 0.75753 0.47511 0.0
H393 H 0.48883 0.86373 0.52523 0.0
H394 H 0.45679 0.85913 0.54819 0.0
H395 H 0.47127 0.83537 0.55331 0.0
H396 H 0.3773 0.82724 0.60908 0.0
H397 H 0.4129 0.77058 0.61971 0.0
H398 H 0.37435 0.82612 0.52214 0.0
H399 H 0.40753 0.85476 0.53601 0.0
H400 H 0.3736 0.84495 0.55804 0.0
H401 H 0.41767 0.7583 0.53536 0.0
H402 H 0.43088 0.75577 0.57546 0.0
H403 H 0.45224 0.78485 0.54953 0.0
C404 C 0.58872 0.42361 0.93173 0.0
C405 C 0.56937 0.39564 0.93727 0.0
C406 C 0.59971 0.43343 0.90031 0.0
C407 C 0.59106 0.41493 0.87356 0.0
C408 C 0.5725 0.38653 0.87911 0.0
C409 C 0.56194 0.37725 0.91083 0.0
C410 C 0.61949 0.46385 0.89553 0.0
C411 C 0.56281 0.36607 0.85128 0.0
C412 C 0.58444 0.44063 0.78947 0.0
C413 C 0.60913 0.44194 0.77305 0.0
C414 C 0.57886 0.43259 0.8223 0.0
C415 C 0.59843 0.42559 0.83941 0.0
C416 C 0.62408 0.42786 0.82343 0.0
C417 C 0.62918 0.43607 0.79036 0.0
C418 C 0.55139 0.43071 0.83835 0.0
C419 C 0.64552 0.42067 0.84089 0.0
H420 H 0.59454 0.43815 0.95172 0.0
H421 H 0.54759 0.35556 0.9148 0.0
H422 H 0.63909 0.46734 0.88074 0.0
H423 H 0.60736 0.47291 0.88192 0.0
H424 H 0.62708 0.47496 0.91916 0.0
H425 H 0.55059 0.34448 0.85998 0.0
H426 H 0.54829 0.37016 0.8345 0.0
H427 H 0.58218 0.36833 0.83688 0.0
H428 H 0.56894 0.44533 0.77638 0.0
H429 H 0.6482 0.43687 0.77778 0.0
H430 H 0.55723 0.44312 0.86113 0.0
H431 H 0.53651 0.40906 0.84525 0.0
H432 H 0.5391 0.438 0.82209 0.0
H433 H 0.65216 0.43168 0.86463 0.0
H434 H 0.66564 0.42584 0.82613 0.0
H435 H 0.63469 0.3983 0.84629 0.0
C436 C 0.24081 0.59953 0.26885 0.0
C437 C 0.21975 0.57459 0.28242 0.0
C438 C 0.23733 0.60752 0.23714 0.0
C439 C 0.21219 0.59019 0.21846 0.0
C440 C 0.19147 0.56451 0.23151 0.0
C441 C 0.19552 0.55702 0.26322 0.0
C442 C 0.25997 0.63504 0.22418 0.0
C443 C 0.16433 0.54542 0.21248 0.0
C444 C 0.18395 0.62167 0.1533 0.0
C445 C 0.19344 0.61455 0.12429 0.0
C446 C 0.19035 0.6143 0.18406 0.0
C447 C 0.20666 0.5994 0.18599 0.0
C448 C 0.2168 0.59259 0.15687 0.0
C449 C 0.21009 0.60023 0.12645 0.0
C450 C 0.17908 0.62195 0.2145 0.0
C451 C 0.23449 0.57697 0.15782 0.0
H452 H 0.25954 0.61336 0.28343 0.0
H453 H 0.17907 0.53773 0.27341 0.0
H454 H 0.26762 0.63257 0.19959 0.0
H455 H 0.24983 0.64892 0.22151 0.0
H456 H 0.27941 0.6451 0.24058 0.0
H457 H 0.15115 0.52559 0.22532 0.0
H458 H 0.15014 0.55547 0.20848 0.0
H459 H 0.17066 0.54108 0.18805 0.0
H460 H 0.17087 0.63246 0.15199 0.0
H461 H 0.21804 0.59506 0.10431 0.0
H462 H 0.19751 0.63337 0.23174 0.0
H463 H 0.16306 0.603 0.22719 0.0
H464 H 0.16811 0.6348 0.209 0.0
H465 H 0.25442 0.58814 0.1732 0.0
H466 H 0.2415 0.57396 0.13306 0.0
H467 H 0.2212 0.55649 0.16914 0.0
C468 C 0.77559 0.33058 0.40156 0.0
C469 C 0.79214 0.35259 0.38064 0.0
C470 C 0.75667 0.30453 0.38887 0.0
C471 C 0.75446 0.30057 0.35453 0.0
C472 C 0.7738 0.32182 0.33363 0.0
C473 C 0.79241 0.34768 0.34699 0.0
C474 C 0.73664 0.28225 0.41203 0.0
C475 C 0.77269 0.31824 0.29697 0.0
C476 C 0.69987 0.22834 0.32809 0.0
C477 C 0.67366 0.23062 0.32679 0.0
C478 C 0.72701 0.25133 0.33511 0.0
C479 C 0.72786 0.27709 0.34084 0.0
C480 C 0.702 0.27998 0.33685 0.0
C481 C 0.67533 0.25679 0.32989 0.0
C482 C 0.75428 0.24759 0.3384 0.0
C483 C 0.70197 0.30722 0.34233 0.0
H484 H 0.77545 0.33424 0.42757 0.0
H485 H 0.80588 0.36455 0.33088 0.0
H486 H 0.71401 0.28005 0.41038 0.0
H487 H 0.7354 0.26216 0.40531 0.0
H488 H 0.74417 0.28702 0.43782 0.0
H489 H 0.79321 0.33381 0.28511 0.0
H490 H 0.76925 0.29738 0.2902 0.0
H491 H 0.75388 0.32069 0.28706 0.0
H492 H 0.69903 0.20841 0.32494 0.0
H493 H 0.65558 0.25921 0.32907 0.0
H494 H 0.75851 0.24587 0.36468 0.0
H495 H 0.77393 0.26552 0.32833 0.0
H496 H 0.75164 0.22863 0.32581 0.0
H497 H 0.7067 0.31326 0.36843 0.0
H498 H 0.68049 0.30639 0.33592 0.0
H499 H 0.71946 0.3236 0.32751 0.0
C500 C 0.48328 0.78149 0.74847 0.0
C501 C 0.45456 0.77863 0.74883 0.0
C502 C 0.48808 0.75852 0.74402 0.0
C503 C 0.46357 0.73232 0.73955 0.0
C504 C 0.43466 0.72891 0.74413 0.0
C505 C 0.43053 0.75209 0.74886 0.0
C506 C 0.51928 0.76278 0.74106 0.0
C507 C 0.40778 0.70119 0.74017 0.0
C508 C 0.45855 0.6826 0.67405 0.0
C509 C 0.45284 0.65937 0.69285 0.0
C510 C 0.46544 0.70778 0.68905 0.0
C511 C 0.46706 0.70974 0.72363 0.0
C512 C 0.46531 0.6874 0.74233 0.0
C513 C 0.45783 0.66225 0.7267 0.0
C514 C 0.46739 0.73122 0.66806 0.0
C515 C 0.46844 0.68911 0.77904 0.0
H516 H 0.50198 0.80186 0.74949 0.0
H517 H 0.40822 0.74935 0.74939 0.0
H518 H 0.5212 0.74459 0.74995 0.0
H519 H 0.52605 0.76604 0.715 0.0
H520 H 0.53485 0.78124 0.755 0.0
H521 H 0.38712 0.70168 0.74746 0.0
H522 H 0.40568 0.69462 0.71419 0.0
H523 H 0.40998 0.6854 0.75508 0.0
H524 H 0.45482 0.68047 0.6479 0.0
H525 H 0.45413 0.64441 0.74117 0.0
H526 H 0.48691 0.75072 0.67492 0.0
H527 H 0.4475 0.73401 0.67204 0.0
H528 H 0.46886 0.7274 0.64159 0.0
H529 H 0.48456 0.71011 0.78705 0.0
H530 H 0.47554 0.67413 0.78842 0.0
H531 H 0.44683 0.68419 0.79027 0.0
C532 C 0.65817 0.43509 0.03982 0.0
C533 C 0.64293 0.40826 0.05227 0.0
C534 C 0.68587 0.4443 1.02478 0.0
C535 C 0.69851 0.42626 1.0224 0.0
C536 C 0.68374 0.39962 0.03632 0.0
C537 C 0.65611 0.39094 0.05095 0.0
C538 C 0.70092 0.4728 1.01022 0.0
C539 C 0.69667 0.37987 0.03485 0.0
C540 C 0.75203 0.42699 0.95832 0.0
C541 C 0.77738 0.43474 0.9774 0.0
C542 C 0.72664 0.42675 0.97178 0.0
C543 C 0.72685 0.43447 1.00494 0.0
C544 C 0.75345 0.44532 1.02294 0.0
C545 C 0.77842 0.44533 1.00892 0.0
C546 C 0.6988 0.41552 0.9516 0.0
C547 C 0.75481 0.45415 0.05815 0.0
H548 H 0.64787 0.44844 0.04044 0.0
H549 H 0.64443 0.37024 0.06065 0.0
H550 H 0.72456 0.48353 1.01722 0.0
H551 H 0.69993 0.47124 0.98316 0.0
H552 H 0.69034 0.48552 1.01804 0.0
H553 H 0.68278 0.36024 0.04778 0.0
H554 H 0.69907 0.37511 1.00898 0.0
H555 H 0.71899 0.38941 0.04598 0.0
H556 H 0.75114 0.41891 0.93391 0.0
H557 H 0.79818 0.4518 1.0236 0.0
H558 H 0.68717 0.42807 0.95509 0.0
H559 H 0.68368 0.39425 0.9597 0.0
H560 H 0.70338 0.41495 0.92512 0.0
H561 H 0.74268 0.46625 0.0616 0.0
H562 H 0.77791 0.46665 0.06662 0.0
H563 H 0.74417 0.43563 0.0739 0.0
C564 C 0.29781 0.77499 0.31739 0.0
C565 C 0.32405 0.77279 0.31544 0.0
C566 C 0.27053 0.75161 0.32236 0.0
C567 C 0.26961 0.72559 0.32543 0.0
C568 C 0.29526 0.72283 0.3191 0.0
C569 C 0.32212 0.74642 0.3141 0.0
C570 C 0.24324 0.7551 0.32706 0.0
C571 C 0.29507 0.69523 0.32101 0.0
C572 C 0.22666 0.67413 0.39018 0.0
C573 C 0.20831 0.6514 0.37104 0.0
C574 C 0.24471 0.6996 0.37573 0.0
C575 C 0.24419 0.70237 0.34131 0.0
C576 C 0.22307 0.68052 0.3224 0.0
C577 C 0.20537 0.65519 0.33754 0.0
C578 C 0.26672 0.7225 0.39694 0.0
C579 C 0.22092 0.68278 0.28584 0.0
H580 H 0.29871 0.79508 0.31693 0.0
H581 H 0.34177 0.74396 0.31183 0.0
H582 H 0.22362 0.73757 0.31622 0.0
H583 H 0.23902 0.75567 0.3536 0.0
H584 H 0.24583 0.77456 0.31597 0.0
H585 H 0.29122 0.68783 0.34668 0.0
H586 H 0.27693 0.67978 0.30593 0.0
H587 H 0.31618 0.69626 0.31256 0.0
H588 H 0.22899 0.6715 0.41606 0.0
H589 H 0.19054 0.63788 0.32275 0.0
H590 H 0.26671 0.74223 0.39123 0.0
H591 H 0.28922 0.7252 0.39195 0.0
H592 H 0.26203 0.71816 0.42343 0.0
H593 H 0.22813 0.70432 0.27803 0.0
H594 H 0.19796 0.66973 0.27728 0.0
H595 H 0.2352 0.67531 0.2736 0.0
C596 C 0.54418 0.32464 0.665 0.0
C597 C 0.55158 0.3477 0.68479 0.0
C598 C 0.53753 0.29913 0.67897 0.0
C599 C 0.53801 0.29683 0.71349 0.0
C600 C 0.54164 0.31922 0.73348 0.0
C601 C 0.54871 0.34457 0.71883 0.0
C602 C 0.5336 0.27567 0.65675 0.0
C603 C 0.54127 0.31737 0.77031 0.0
C604 C 0.52206 0.22552 0.74156 0.0
C605 C 0.55055 0.22788 0.74097 0.0
C606 C 0.51746 0.24837 0.73511 0.0
C607 C 0.54195 0.27394 0.72766 0.0
C608 C 0.57088 0.27695 0.72986 0.0
C609 C 0.5748 0.25394 0.73658 0.0
C610 C 0.48637 0.24462 0.7341 0.0
C611 C 0.59774 0.30397 0.72235 0.0
H612 H 0.5463 0.32713 0.63869 0.0
H613 H 0.5538 0.36241 0.73405 0.0
H614 H 0.55384 0.27308 0.65745 0.0
H615 H 0.51495 0.25611 0.66512 0.0
H616 H 0.52955 0.27941 0.631 0.0
H617 H 0.53631 0.33315 0.78169 0.0
H618 H 0.52479 0.29669 0.77881 0.0
H619 H 0.56328 0.32096 0.77907 0.0
H620 H 0.50327 0.20555 0.74552 0.0
H621 H 0.59692 0.25622 0.73578 0.0
H622 H 0.47862 0.2417 0.70837 0.0
H623 H 0.48531 0.26303 0.74382 0.0
H624 H 0.47101 0.22628 0.7483 0.0
H625 H 0.59743 0.30928 0.69622 0.0
H626 H 0.6187 0.30322 0.7272 0.0
H627 H 0.59756 0.32079 0.73723 0.0
C628 C 0.25038 0.57826 0.95991 0.0
C629 C 0.22413 0.56922 0.97767 0.0
C630 C 0.27362 0.57393 0.97181 0.0
C631 C 0.27016 0.55983 1.00183 0.0
C632 C 0.24269 0.54851 1.01822 0.0
C633 C 0.2201 0.55359 1.0061 0.0
C634 C 0.30267 0.58658 0.95374 0.0
C635 C 0.23783 0.53281 0.04984 0.0
C636 C 0.33076 0.54156 1.02528 0.0
C637 C 0.34854 0.56383 0.04554 0.0
C638 C 0.30461 0.53942 1.01161 0.0
C639 C 0.29623 0.56014 1.01818 0.0
C640 C 0.31339 0.58197 0.03975 0.0
C641 C 0.33919 0.58343 0.05333 0.0
C642 C 0.2866 0.51563 0.98915 0.0
C643 C 0.3052 0.6045 0.04741 0.0
H644 H 0.25364 0.59053 0.93807 0.0
H645 H 0.19968 0.5464 1.01976 0.0
H646 H 0.31849 0.60539 0.96688 0.0
H647 H 0.31236 0.57226 0.95295 0.0
H648 H 0.3003 0.59239 0.92832 0.0
H649 H 0.21407 0.52137 0.05632 0.0
H650 H 0.24693 0.51803 0.04823 0.0
H651 H 0.24952 0.5474 0.06998 0.0
H652 H 0.33778 0.5263 1.0191 0.0
H653 H 0.35272 0.60069 0.06897 0.0
H654 H 0.28811 0.52327 0.96376 0.0
H655 H 0.263 0.50585 0.99632 0.0
H656 H 0.2943 0.49976 0.98933 0.0
H657 H 0.30511 0.61534 1.02456 0.0
H658 H 0.32071 0.61985 0.06499 0.0
H659 H 0.28264 0.59554 0.05786 0.0
C660 C 0.48152 0.04638 0.32937 0.0
C661 C 0.50736 0.0689 0.34072 0.0
C662 C 0.4781 0.0195 0.33066 0.0
C663 C 0.50088 0.01487 0.34408 0.0
C664 C 0.52652 0.03727 0.35672 0.0
C665 C 0.52953 0.06399 0.35471 0.0
C666 C 0.45044 0.99614 0.31682 0.0
C667 C 0.55117 0.03313 0.37153 0.0
C668 C 0.48167 0.94148 0.36776 0.0
C669 C 0.49219 0.93291 0.34071 0.0
C670 C 0.48477 0.96825 0.3695 0.0
C671 C 0.49846 0.98679 0.3434 0.0
C672 C 0.50941 0.97834 0.3162 0.0
C673 C 0.50626 0.95156 0.31527 0.0
C674 C 0.47321 0.97663 0.39912 0.0
C675 C 0.52389 0.99741 0.28773 0.0
H676 H 0.46399 0.04973 0.31911 0.0
H677 H 0.54975 0.08106 0.36327 0.0
H678 H 0.45623 0.98659 0.29598 0.0
H679 H 0.43957 0.97993 0.33558 0.0
H680 H 0.4344 0.00304 0.30817 0.0
H681 H 0.56859 0.05231 0.38256 0.0
H682 H 0.54235 0.01698 0.39066 0.0
H683 H 0.56141 0.02597 0.35241 0.0
H684 H 0.4711 0.92722 0.38764 0.0
H685 H 0.51406 0.94494 0.29412 0.0
H686 H 0.45569 0.98198 0.39168 0.0
H687 H 0.49115 0.99526 0.41048 0.0
H688 H 0.46402 0.96008 0.4178 0.0
H689 H 0.50807 0.00346 0.27641 0.0
H690 H 0.53161 0.98782 0.26865 0.0
H691 H 0.54303 0.01653 0.29638 0.0
C692 C 0.44161 0.4923 0.65071 0.0
C693 C 0.43719 0.51271 0.66658 0.0
C694 C 0.46888 0.49222 0.65224 0.0
C695 C 0.49223 0.51298 0.67029 0.0
C696 C 0.48761 0.53297 0.68752 0.0
C697 C 0.46016 0.53268 0.68535 0.0
C698 C 0.47298 0.47042 0.63369 0.0
C699 C 0.51195 0.55524 0.70725 0.0
C700 C 0.55462 0.49651 0.68841 0.0
C701 C 0.57374 0.50934 0.66206 0.0
C702 C 0.52875 0.49887 0.69259 0.0
C703 C 0.52177 0.51426 0.66977 0.0
C704 C 0.5419 0.5288 0.64449 0.0
C705 C 0.56773 0.52624 0.64103 0.0
C706 C 0.50798 0.48335 0.72012 0.0
C707 C 0.53527 0.54565 0.61985 0.0
H708 H 0.42382 0.47665 0.63658 0.0
H709 H 0.45721 0.54882 0.69732 0.0
H710 H 0.4901 0.48025 0.61456 0.0
H711 H 0.48079 0.4593 0.65045 0.0
H712 H 0.4523 0.4552 0.62177 0.0
H713 H 0.50397 0.56762 0.72168 0.0
H714 H 0.5219 0.54612 0.72423 0.0
H715 H 0.5297 0.56924 0.69062 0.0
H716 H 0.55878 0.48319 0.70469 0.0
H717 H 0.58267 0.53654 0.621 0.0
H718 H 0.48827 0.4655 0.70997 0.0
H719 H 0.50022 0.49664 0.7329 0.0
H720 H 0.51846 0.47561 0.73828 0.0
H721 H 0.5163 0.53178 0.60445 0.0
H722 H 0.55438 0.55771 0.60361 0.0
H723 H 0.52893 0.56002 0.63245 0.0
C724 C 0.94045 0.45834 0.9777 0.0
C725 C 0.9237 0.46525 0.99947 0.0
C726 C 0.97138 0.47371 0.97665 0.0
C727 C 0.98595 0.49653 0.99786 0.0
C728 C 0.96912 0.50394 1.01936 0.0
C729 C 0.93826 0.48825 1.0199 0.0
C730 C 0.98851 0.46517 0.95332 0.0
C731 C 0.98375 0.52813 0.04236 0.0
C732 C 0.06577 0.51964 1.02211 0.0
C733 C 0.08101 0.5432 1.00277 0.0
C734 C 0.03494 0.50402 1.02029 0.0
C735 C 0.01884 0.51208 0.99857 0.0
C736 C 0.03411 0.53552 0.9785 0.0
C737 C 0.06498 0.5508 0.98085 0.0
C738 C 0.01954 0.47917 0.04212 0.0
C739 C 0.01777 0.54474 0.95497 0.0
H740 H 0.92944 0.44064 0.9618 0.0
H741 H 0.92558 0.49382 0.03677 0.0
H742 H 0.003 0.48279 0.93763 0.0
H743 H 0.00298 0.45894 0.96732 0.0
H744 H 0.97386 0.44776 0.93737 0.0
H745 H 0.9675 0.53183 0.0567 0.0
H746 H 0.99825 0.52447 0.05965 0.0
H747 H 0.99791 0.54705 1.0284 0.0
H748 H 0.07789 0.51353 0.03908 0.0
H749 H 0.07652 0.56892 0.96575 0.0
H750 H 0.00592 0.46067 1.02719 0.0
H751 H 0.00441 0.4823 0.05905 0.0
H752 H 0.0353 0.47508 0.05684 0.0
H753 H 0.00393 0.52763 0.93828 0.0
H754 H 0.03294 0.56267 0.94006 0.0
H755 H 0.00273 0.55046 0.96873 0.0
C756 C 0.05399 0.49073 0.41517 0.0
C757 C 0.07356 0.504 0.38944 0.0
C758 C 0.02683 0.49105 0.41722 0.0
C759 C 0.01909 0.5048 0.39282 0.0
C760 C 0.03869 0.5181 0.3667 0.0
C761 C 0.06572 0.51755 0.36536 0.0
C762 C 0.00642 0.4767 0.44546 0.0
C763 C 0.03099 0.53267 0.34002 0.0
C764 C 0.93814 0.48203 0.37875 0.0
C765 C 0.93431 0.50281 0.39462 0.0
C766 C 0.96562 0.48244 0.37809 0.0
C767 C 0.98989 0.50418 0.39371 0.0
C768 C 0.98629 0.52535 0.40965 0.0
C769 C 0.95846 0.52447 0.40978 0.0
C770 C 0.96869 0.45967 0.36049 0.0
C771 C 0.01178 0.5488 0.42661 0.0
H772 H 0.06021 0.48062 0.43407 0.0
H773 H 0.0807 0.52756 0.34528 0.0
H774 H 0.00112 0.49144 0.45888 0.0
H775 H 0.98531 0.46004 0.43612 0.0
H776 H 0.01612 0.46764 0.4629 0.0
H777 H 0.04904 0.54258 0.32185 0.0
H778 H 0.01082 0.5178 0.32703 0.0
H779 H 0.02611 0.54866 0.35079 0.0
H780 H 0.91966 0.4656 0.36633 0.0
H781 H 0.95542 0.54045 0.42213 0.0
H782 H 0.97673 0.44902 0.37766 0.0
H783 H 0.98525 0.46845 0.34063 0.0
H784 H 0.94753 0.44421 0.34969 0.0
H785 H 0.02089 0.54064 0.44582 0.0
H786 H 0.00524 0.56351 0.43808 0.0
H787 H 0.02976 0.56015 0.40884 0.0
C788 C 0.54161 0.06165 0.6986 0.0
C789 C 0.5624 0.07003 0.72402 0.0
C790 C 0.51784 0.03499 0.69777 0.0
C791 C 0.51487 0.01615 0.72286 0.0
C792 C 0.53601 0.02427 0.74829 0.0
C793 C 0.55949 0.05112 0.74859 0.0
C794 C 0.49582 0.02704 0.67015 0.0
C795 C 0.53363 0.00467 0.77538 0.0
C796 C 0.43959 0.9551 0.73786 0.0
C797 C 0.4425 0.93383 0.72199 0.0
C798 C 0.46293 0.98206 0.73822 0.0
C799 C 0.48977 0.98783 0.72233 0.0
C800 C 0.49273 0.96653 0.70598 0.0
C801 C 0.46906 0.93984 0.70594 0.0
C802 C 0.45897 0.0043 0.75585 0.0
C803 C 0.52095 0.97189 0.68861 0.0
H804 H 0.54393 0.07594 0.67923 0.0
H805 H 0.57517 0.05746 0.76853 0.0
H806 H 0.495 0.00915 0.65668 0.0
H807 H 0.47342 0.0207 0.68012 0.0
H808 H 0.50126 0.04415 0.65258 0.0
H809 H 0.55209 0.01407 0.79314 0.0
H810 H 0.51254 0.99802 0.78874 0.0
H811 H 0.53346 0.98594 0.76493 0.0
H812 H 0.41926 0.95057 0.75051 0.0
H813 H 0.47131 0.92369 0.69303 0.0
H814 H 0.46282 0.02131 0.73874 0.0
H815 H 0.47548 0.01309 0.77576 0.0
H816 H 0.43658 0.99653 0.76658 0.0
H817 H 0.5261 0.98776 0.66944 0.0
H818 H 0.51965 0.95305 0.677 0.0
H819 H 0.53959 0.98003 0.70618 0.0
C820 C 0.46931 0.53056 0.02918 0.0
C821 C 0.46956 0.54832 0.05405 0.0
C822 C 0.48313 0.51391 0.03335 0.0
C823 C 0.49781 0.51506 0.06309 0.0
C824 C 0.4978 0.53261 0.08853 0.0
C825 C 0.4836 0.54898 0.08376 0.0
C826 C 0.48241 0.49535 1.00566 0.0
C827 C 0.51328 0.53448 0.12054 0.0
C828 C 0.51334 0.45471 0.0792 0.0
C829 C 0.5423 0.46485 0.06746 0.0
C830 C 0.49889 0.47111 0.07897 0.0
C831 C 0.51379 0.49839 0.06691 0.0
C832 C 0.5434 0.50908 0.05622 0.0
C833 C 0.55724 0.49218 0.05653 0.0
C834 C 0.46729 0.45889 0.09046 0.0
C835 C 0.56016 0.5381 0.04339 0.0
H836 H 0.45842 0.52976 1.00619 0.0
H837 H 0.48397 0.56267 0.10309 0.0
H838 H 0.50518 0.50145 0.99711 0.0
H839 H 0.47297 0.47376 1.01428 0.0
H840 H 0.46919 0.49614 0.98453 0.0
H841 H 0.51037 0.54836 0.13831 0.0
H842 H 0.5048 0.51377 0.13167 0.0
H843 H 0.53722 0.54223 0.11613 0.0
H844 H 0.50158 0.43364 0.08771 0.0
H845 H 0.57967 0.50028 0.04759 0.0
H846 H 0.45277 0.45714 0.0695 0.0
H847 H 0.46477 0.47254 0.10882 0.0
H848 H 0.45955 0.43816 0.1014 0.0
H849 H 0.54983 0.54008 1.02039 0.0
H850 H 0.58368 0.54401 0.03838 0.0
H851 H 0.55914 0.55288 0.06121 0.0
C852 C 0.56698 0.27359 0.29925 0.0
C853 C 0.55686 0.24516 0.29564 0.0
C854 C 0.56357 0.28933 0.27403 0.0
C855 C 0.54996 0.27646 0.24425 0.0
C856 C 0.53969 0.24778 0.24047 0.0
C857 C 0.54312 0.2325 0.26619 0.0
C858 C 0.57456 0.31977 0.27925 0.0
C859 C 0.52524 0.23323 0.20909 0.0
C860 C 0.5159 0.30994 0.18892 0.0
C861 C 0.53761 0.32229 0.16474 0.0
C862 C 0.51984 0.29539 0.2151 0.0
C863 C 0.54607 0.29285 0.21719 0.0
C864 C 0.56824 0.30551 0.19307 0.0
C865 C 0.56382 0.32018 0.16726 0.0
C866 C 0.49578 0.28255 0.24045 0.0
C867 C 0.59643 0.30313 0.19418 0.0
H868 H 0.57763 0.28362 0.32184 0.0
H869 H 0.53537 0.21061 0.26298 0.0
H870 H 0.59142 0.33162 0.26055 0.0
H871 H 0.55613 0.32487 0.27624 0.0
H872 H 0.5844 0.32665 0.30388 0.0
H873 H 0.51881 0.21092 0.20981 0.0
H874 H 0.50524 0.23563 0.20428 0.0
H875 H 0.54051 0.24267 0.18823 0.0
H876 H 0.49581 0.31183 0.18752 0.0
H877 H 0.58057 0.32941 0.14857 0.0
H878 H 0.50481 0.29023 0.26516 0.0
H879 H 0.48721 0.25991 0.24061 0.0
H880 H 0.47709 0.28707 0.23587 0.0
H881 H 0.60787 0.31113 0.21782 0.0
H882 H 0.61174 0.31457 0.17398 0.0
H883 H 0.59127 0.28117 0.19256 0.0
C884 C 0.27835 0.56464 0.4584 0.0
C885 C 0.24822 0.55125 0.45085 0.0
C886 C 0.28861 0.56061 0.48878 0.0
C887 C 0.26811 0.54357 0.51258 0.0
C888 C 0.23764 0.53007 0.50504 0.0
C889 C 0.22812 0.53372 0.4741 0.0
C890 C 0.32135 0.5747 0.49549 0.0
C891 C 0.215 0.51242 0.53001 0.0
C892 C 0.29491 0.51508 0.58232 0.0
C893 C 0.30055 0.53472 0.60693 0.0
C894 C 0.28443 0.51773 0.55149 0.0
C895 C 0.27852 0.5401 0.54547 0.0
C896 C 0.28304 0.55938 0.57072 0.0
C897 C 0.29452 0.55674 0.60097 0.0
C898 C 0.28074 0.49719 0.52499 0.0
C899 C 0.27614 0.58302 0.56565 0.0
H900 H 0.29392 0.5782 0.44048 0.0
H901 H 0.20473 0.52367 0.46857 0.0
H902 H 0.32649 0.58966 0.51579 0.0
H903 H 0.32848 0.55936 0.5033 0.0
H904 H 0.33445 0.58582 0.47372 0.0
H905 H 0.19212 0.50352 0.52039 0.0
H906 H 0.21937 0.49535 0.53796 0.0
H907 H 0.21662 0.52489 0.55203 0.0
H908 H 0.30005 0.49829 0.58662 0.0
H909 H 0.29892 0.57198 0.61995 0.0
H910 H 0.29526 0.50797 0.50398 0.0
H911 H 0.25773 0.48722 0.51583 0.0
H912 H 0.28622 0.48093 0.53364 0.0
H913 H 0.29097 0.59713 0.54672 0.0
H914 H 0.27877 0.59497 0.58845 0.0
H915 H 0.25318 0.57521 0.55669 0.0
C916 C 0.75049 0.32109 0.89657 0.0
C917 C 0.78016 0.32669 0.89539 0.0
C918 C 0.73056 0.30585 0.87161 0.0
C919 C 0.74054 0.29611 0.84466 0.0
C920 C 0.77054 0.30208 0.84313 0.0
C921 C 0.78989 0.3172 0.86842 0.0
C922 C 0.69874 0.29985 0.87429 0.0
C923 C 0.78225 0.29239 0.81475 0.0
C924 C 0.68582 0.23471 0.79487 0.0
C925 C 0.68128 0.24746 0.76726 0.0
C926 C 0.70468 0.25028 0.82036 0.0
C927 C 0.71965 0.27938 0.81822 0.0
C928 C 0.71529 0.29238 0.79035 0.0
C929 C 0.69612 0.27631 0.76532 0.0
C930 C 0.70858 0.23556 0.84964 0.0
C931 C 0.73097 0.32331 0.78692 0.0
H932 H 0.7427 0.32813 0.91735 0.0
H933 H 0.81284 0.32184 0.86686 0.0
H934 H 0.69231 0.30773 0.8524 0.0
H935 H 0.68428 0.27728 0.87513 0.0
H936 H 0.69454 0.30926 0.89644 0.0
H937 H 0.80626 0.29912 0.81691 0.0
H938 H 0.77043 0.2696 0.81328 0.0
H939 H 0.77818 0.3004 0.79145 0.0
H940 H 0.67437 0.21247 0.79679 0.0
H941 H 0.69278 0.28643 0.74419 0.0
H942 H 0.70261 0.24292 0.87234 0.0
H943 H 0.73205 0.24028 0.8519 0.0
H944 H 0.69486 0.21288 0.848 0.0
H945 H 0.72543 0.33291 0.80789 0.0
H946 H 0.72506 0.33029 0.7639 0.0
H947 H 0.75519 0.33094 0.78734 0.0
C948 C 0.4797 0.69198 0.18623 0.0
C949 C 0.4588 0.68084 0.16103 0.0
C950 C 0.47552 0.70636 0.2125 0.0
C951 C 0.4499 0.70998 0.21364 0.0
C952 C 0.42856 0.69859 0.18844 0.0
C953 C 0.43319 0.68405 0.16256 0.0
C954 C 0.49865 0.71781 0.23901 0.0
C955 C 0.40107 0.70217 0.18851 0.0
C956 C 0.42719 0.72838 0.29526 0.0
C957 C 0.43865 0.75704 0.29269 0.0
C958 C 0.43071 0.71283 0.26982 0.0
C959 C 0.44579 0.72615 0.24087 0.0
C960 C 0.45738 0.75506 0.23811 0.0
C961 C 0.45382 0.77013 0.26405 0.0
C962 C 0.41827 0.68211 0.27393 0.0
C963 C 0.47341 0.77009 0.20762 0.0
H964 H 0.4993 0.68922 0.18558 0.0
H965 H 0.41708 0.67575 0.14309 0.0
H966 H 0.50805 0.74053 0.24 0.0
H967 H 0.48849 0.7097 0.26318 0.0
H968 H 0.51693 0.71258 0.23503 0.0
H969 H 0.38639 0.69171 0.16746 0.0
H970 H 0.38853 0.69384 0.21148 0.0
H971 H 0.40722 0.72439 0.18763 0.0
H972 H 0.41542 0.71802 0.31722 0.0
H973 H 0.46261 0.79222 0.26164 0.0
H974 H 0.43616 0.67619 0.27153 0.0
H975 H 0.40197 0.67124 0.25435 0.0
H976 H 0.40734 0.67487 0.29801 0.0
H977 H 0.49306 0.76696 0.20352 0.0
H978 H 0.48068 0.79254 0.20905 0.0
H979 H 0.45885 0.76161 0.186 0.0
C980 C 0.70485 0.49301 0.57904 0.0
C981 C 0.69969 0.47462 0.60498 0.0
C982 C 0.71626 0.48971 0.54908 0.0
C983 C 0.72353 0.46795 0.54521 0.0
C984 C 0.71945 0.44993 0.57176 0.0
C985 C 0.70712 0.45321 0.60117 0.0
C986 C 0.71953 0.50893 0.52118 0.0
C987 C 0.72774 0.42697 0.56896 0.0
C988 C 0.72658 0.44147 0.45979 0.0
C989 C 0.75681 0.45571 0.45279 0.0
C990 C 0.71536 0.44565 0.48951 0.0
C991 C 0.73498 0.46384 0.51321 0.0
C992 C 0.76554 0.4782 0.50625 0.0
C993 C 0.77601 0.47427 0.47596 0.0
C994 C 0.68253 0.43055 0.49559 0.0
C995 C 0.78729 0.49719 0.53112 0.0
H996 H 0.69871 0.50934 0.58161 0.0
H997 H 0.70312 0.43893 0.62113 0.0
H998 H 0.74272 0.51939 0.51257 0.0
H999 H 0.70572 0.49698 0.50024 0.0
H1000 H 0.71292 0.52485 0.52818 0.0
H1001 H 0.72514 0.41601 0.5925 0.0
H1002 H 0.71369 0.41187 0.55032 0.0
H1003 H 0.75096 0.43528 0.56071 0.0
H1004 H 0.71168 0.42709 0.44197 0.0
H1005 H 0.79948 0.48502 0.47092 0.0
H1006 H 0.67426 0.44544 0.50171 0.0
H1007 H 0.67774 0.41657 0.51682 0.0
H1008 H 0.67014 0.41821 0.47408 0.0
H1009 H 0.78194 0.51401 0.53751 0.0
H1010 H 0.8104 0.50646 0.52213 0.0
H1011 H 0.7857 0.48567 0.55396 0.0
C1012 C 0.21551 0.68886 0.87236 0.0
C1013 C 0.22549 0.68038 0.89995 0.0
C1014 C 0.23477 0.70363 0.84686 0.0
C1015 C 0.26495 0.71028 0.84883 0.0
C1016 C 0.2752 0.70158 0.87643 0.0
C1017 C 0.25534 0.68666 0.90157 0.0
C1018 C 0.22277 0.71217 0.81778 0.0
C1019 C 0.30722 0.70834 0.87957 0.0
C1020 C 0.30948 0.72868 0.76958 0.0
C1021 C 0.32361 0.75757 0.77038 0.0
C1022 C 0.29054 0.71306 0.79497 0.0
C1023 C 0.28571 0.72658 0.82208 0.0
C1024 C 0.29999 0.75572 0.82311 0.0
C1025 C 0.31862 0.77084 0.79724 0.0
C1026 C 0.27556 0.68205 0.79271 0.0
C1027 C 0.29561 0.77098 0.85159 0.0
H1028 H 0.19242 0.68366 0.87046 0.0
H1029 H 0.26331 0.68038 0.92282 0.0
H1030 H 0.23413 0.73491 0.8155 0.0
H1031 H 0.22716 0.70372 0.79497 0.0
H1032 H 0.19866 0.70503 0.81971 0.0
H1033 H 0.31165 0.69982 0.90229 0.0
H1034 H 0.31397 0.70005 0.85827 0.0
H1035 H 0.32124 0.73099 0.87957 0.0
H1036 H 0.31318 0.71818 0.74902 0.0
H1037 H 0.32955 0.79312 0.79829 0.0
H1038 H 0.25126 0.67393 0.79296 0.0
H1039 H 0.28139 0.67331 0.81425 0.0
H1040 H 0.28179 0.67466 0.77018 0.0
H1041 H 0.272 0.76585 0.85354 0.0
H1042 H 0.30891 0.79365 0.84918 0.0
H1043 H 0.30176 0.76445 0.87475 0.0
loop_
_geom_bond_atom_site_label_1
_geom_bond_atom_site_label_2
_geom_bond_distance
_geom_bond_site_symmetry_2
_ccdc_geom_bond_type
Cu0 N1 1.999 . S
Cu0 O6 1.974 . S
Cu0 N11 1.985 . S
Cu0 O20 1.959 . S
N1 Cu0 1.999 . S
N1 C3 1.263 . S
N1 C5 1.389 . S
N2 C3 1.358 . S
N2 C4 1.400 . S
C3 N1 1.263 . S
C3 N2 1.358 . S
C3 H9 0.930 . S
C4 N2 1.400 . S
C4 C5 1.351 . S
C4 H21 0.930 . S
C5 N1 1.389 . S
C5 C4 1.351 . S
C5 H10 0.930 . S
O6 Cu0 1.974 . S
O6 C16 1.282 . S
C7 O8 1.261 . S
C7 O20 1.251 . S
O8 C7 1.261 . S
H9 C3 0.930 . S
H10 C5 0.930 . S
N11 Cu0 1.985 . S
N11 C13 1.335 . S
N11 C14 1.390 . S
N12 C13 1.345 . S
N12 C15 1.336 . S
C13 N11 1.335 . S
C13 N12 1.345 . S
C13 H18 0.930 . S
C14 N11 1.390 . S
C14 C15 1.346 . S
C14 H19 0.930 . S
C15 N12 1.336 . S
C15 C14 1.346 . S
C15 H22 0.929 . S
C16 O6 1.282 . S
C16 O17 1.216 . S
O17 C16 1.216 . S
H18 C13 0.930 . S
H19 C14 0.930 . S
O20 Cu0 1.959 . S
O20 C7 1.251 . S
H21 C4 0.930 . S
H22 C15 0.929 . S
Cu23 N24 1.999 . S
Cu23 O29 1.974 . S
Cu23 N34 1.985 . S
Cu23 O43 1.959 . S
N24 Cu23 1.999 . S
N24 C26 1.263 . S
N24 C28 1.389 . S
N25 C26 1.358 . S
N25 C27 1.400 . S
C26 N24 1.263 . S
C26 N25 1.358 . S
C26 H32 0.930 . S
C27 N25 1.400 . S
C27 C28 1.351 . S
C27 H44 0.930 . S
C28 N24 1.389 . S
C28 C27 1.351 . S
C28 H33 0.930 . S
O29 Cu23 1.974 . S
O29 C39 1.282 . S
C30 O31 1.261 . S
C30 O43 1.251 . S
O31 C30 1.261 . S
H32 C26 0.930 . S
H33 C28 0.930 . S
N34 Cu23 1.985 . S
N34 C36 1.335 . S
N34 C37 1.390 . S
N35 C36 1.345 . S
N35 C38 1.336 . S
C36 N34 1.335 . S
C36 N35 1.345 . S
C36 H41 0.930 . S
C37 N34 1.390 . S
C37 C38 1.346 . S
C37 H42 0.930 . S
C38 N35 1.336 . S
C38 C37 1.346 . S
C38 H45 0.929 . S
C39 O29 1.282 . S
C39 O40 1.216 . S
O40 C39 1.216 . S
H41 C36 0.930 . S
H42 C37 0.930 . S
O43 Cu23 1.959 . S
O43 C30 1.251 . S
H44 C27 0.930 . S
H45 C38 0.929 . S
Cu46 N47 1.999 . S
Cu46 O52 1.974 . S
Cu46 N57 1.985 1_554 S
Cu46 O66 1.959 . S
N47 Cu46 1.999 . S
N47 C49 1.263 . S
N47 C51 1.389 . S
N48 C49 1.358 . S
N48 C50 1.400 . S
C49 N47 1.263 . S
C49 N48 1.358 . S
C49 H55 0.930 . S
C50 N48 1.400 . S
C50 C51 1.351 . S
C50 H67 0.930 . S
C51 N47 1.389 . S
C51 C50 1.351 . S
C51 H56 0.930 . S
O52 Cu46 1.974 . S
O52 C62 1.282 1_554 S
C53 O54 1.261 . S
C53 O66 1.251 1_556 S
O54 C53 1.261 . S
H55 C49 0.930 . S
H56 C51 0.930 . S
N57 Cu46 1.985 1_556 S
N57 C59 1.335 . S
N57 C60 1.390 . S
N58 C59 1.345 . S
N58 C61 1.336 . S
C59 N57 1.335 . S
C59 N58 1.345 . S
C59 H64 0.930 . S
C60 N57 1.390 . S
C60 C61 1.346 . S
C60 H65 0.930 . S
C61 N58 1.336 . S
C61 C60 1.346 . S
C61 H68 0.929 . S
C62 O52 1.282 1_556 S
C62 O63 1.216 . S
O63 C62 1.216 . S
H64 C59 0.930 . S
H65 C60 0.930 . S
O66 Cu46 1.959 . S
O66 C53 1.251 1_554 S
H67 C50 0.930 . S
H68 C61 0.929 . S
Cu69 N70 1.999 . S
Cu69 O75 1.974 . S
Cu69 N80 1.985 . S
Cu69 O89 1.959 . S
N70 Cu69 1.999 . S
N70 C72 1.263 . S
N70 C74 1.389 . S
N71 C72 1.358 . S
N71 C73 1.400 . S
C72 N70 1.263 . S
C72 N71 1.358 . S
C72 H78 0.930 . S
C73 N71 1.400 . S
C73 C74 1.351 . S
C73 H90 0.930 . S
C74 N70 1.389 . S
C74 C73 1.351 . S
C74 H79 0.930 . S
O75 Cu69 1.974 . S
O75 C85 1.282 . S
C76 O77 1.261 . S
C76 O89 1.251 . S
O77 C76 1.261 . S
H78 C72 0.930 . S
H79 C74 0.930 . S
N80 Cu69 1.985 . S
N80 C82 1.335 . S
N80 C83 1.390 . S
N81 C82 1.345 . S
N81 C84 1.336 . S
C82 N80 1.335 . S
C82 N81 1.345 . S
C82 H87 0.930 . S
C83 N80 1.390 . S
C83 C84 1.346 . S
C83 H88 0.930 . S
C84 N81 1.336 . S
C84 C83 1.346 . S
C84 H91 0.929 . S
C85 O75 1.282 . S
C85 O86 1.216 . S
O86 C85 1.216 . S
H87 C82 0.930 . S
H88 C83 0.930 . S
O89 Cu69 1.959 . S
O89 C76 1.251 . S
H90 C73 0.930 . S
H91 C84 0.929 . S
Cu92 N93 1.999 . S
Cu92 O98 1.974 . S
Cu92 N103 1.985 . S
Cu92 O112 1.959 . S
N93 Cu92 1.999 . S
N93 C95 1.263 . S
N93 C97 1.389 . S
N94 C95 1.358 . S
N94 C96 1.400 . S
C95 N93 1.263 . S
C95 N94 1.358 . S
C95 H101 0.930 . S
C96 N94 1.400 . S
C96 C97 1.351 . S
C96 H113 0.930 . S
C97 N93 1.389 . S
C97 C96 1.351 . S
C97 H102 0.930 . S
O98 Cu92 1.974 . S
O98 C108 1.282 . S
C99 O100 1.261 . S
C99 O112 1.251 . S
O100 C99 1.261 . S
H101 C95 0.930 . S
H102 C97 0.930 . S
N103 Cu92 1.985 . S
N103 C105 1.335 . S
N103 C106 1.390 . S
N104 C105 1.345 . S
N104 C107 1.336 . S
C105 N103 1.335 . S
C105 N104 1.345 . S
C105 H110 0.930 . S
C106 N103 1.390 . S
C106 C107 1.346 . S
C106 H111 0.930 . S
C107 N104 1.336 . S
C107 C106 1.346 . S
C107 H114 0.929 . S
C108 O98 1.282 . S
C108 O109 1.216 . S
O109 C108 1.216 . S
H110 C105 0.930 . S
H111 C106 0.930 . S
O112 Cu92 1.959 . S
O112 C99 1.251 . S
H113 C96 0.930 . S
H114 C107 0.929 . S
Cu115 N116 1.999 . S
Cu115 O121 1.974 . S
Cu115 N126 1.985 1_554 S
Cu115 O135 1.959 . S
N116 Cu115 1.999 . S
N116 C118 1.263 . S
N116 C120 1.389 . S
N117 C118 1.358 . S
N117 C119 1.400 . S
C118 N116 1.263 . S
C118 N117 1.358 . S
C118 H124 0.930 . S
C119 N117 1.400 . S
C119 C120 1.351 . S
C119 H136 0.930 . S
C120 N116 1.389 . S
C120 C119 1.351 . S
C120 H125 0.930 . S
O121 Cu115 1.974 . S
O121 C131 1.282 1_554 S
C122 O123 1.261 . S
C122 O135 1.251 1_556 S
O123 C122 1.261 . S
H124 C118 0.930 . S
H125 C120 0.930 . S
N126 Cu115 1.985 1_556 S
N126 C128 1.335 . S
N126 C129 1.390 . S
N127 C128 1.345 . S
N127 C130 1.336 . S
C128 N126 1.335 . S
C128 N127 1.345 . S
C128 H133 0.930 . S
C129 N126 1.390 . S
C129 C130 1.346 . S
C129 H134 0.930 . S
C130 N127 1.336 . S
C130 C129 1.346 . S
C130 H137 0.929 . S
C131 O121 1.282 1_556 S
C131 O132 1.216 . S
O132 C131 1.216 . S
H133 C128 0.930 . S
H134 C129 0.930 . S
O135 Cu115 1.959 . S
O135 C122 1.251 1_554 S
H136 C119 0.930 . S
H137 C130 0.929 . S
Cu138 N139 1.999 . S
Cu138 O144 1.974 . S
Cu138 N149 1.985 . S
Cu138 O158 1.959 . S
N139 Cu138 1.999 . S
N139 C141 1.263 . S
N139 C143 1.389 . S
N140 C141 1.358 . S
N140 C142 1.400 . S
C141 N139 1.263 . S
C141 N140 1.358 . S
C141 H147 0.930 . S
C142 N140 1.400 . S
C142 C143 1.351 . S
C142 H159 0.930 . S
C143 N139 1.389 . S
C143 C142 1.351 . S
C143 H148 0.930 . S
O144 Cu138 1.974 . S
O144 C154 1.282 . S
C145 O146 1.261 . S
C145 O158 1.251 . S
O146 C145 1.261 . S
H147 C141 0.930 . S
H148 C143 0.930 . S
N149 Cu138 1.985 . S
N149 C151 1.335 . S
N149 C152 1.390 . S
N150 C151 1.345 . S
N150 C153 1.336 . S
C151 N149 1.335 . S
C151 N150 1.345 . S
C151 H156 0.930 . S
C152 N149 1.390 . S
C152 C153 1.346 . S
C152 H157 0.930 . S
C153 N150 1.336 . S
C153 C152 1.346 . S
C153 H160 0.929 . S
C154 O144 1.282 . S
C154 O155 1.216 . S
O155 C154 1.216 . S
H156 C151 0.930 . S
H157 C152 0.930 . S
O158 Cu138 1.959 . S
O158 C145 1.251 . S
H159 C142 0.930 . S
H160 C153 0.929 . S
Cu161 N162 1.999 . S
Cu161 O167 1.974 . S
Cu161 N172 1.985 . S
Cu161 O181 1.959 . S
N162 Cu161 1.999 . S
N162 C164 1.263 . S
N162 C166 1.389 . S
N163 C164 1.358 . S
N163 C165 1.400 . S
C164 N162 1.263 . S
C164 N163 1.358 . S
C164 H170 0.930 . S
C165 N163 1.400 . S
C165 C166 1.351 . S
C165 H182 0.930 . S
C166 N162 1.389 . S
C166 C165 1.351 . S
C166 H171 0.930 . S
O167 Cu161 1.974 . S
O167 C177 1.282 . S
C168 O169 1.261 . S
C168 O181 1.251 . S
O169 C168 1.261 . S
H170 C164 0.930 . S
H171 C166 0.930 . S
N172 Cu161 1.985 . S
N172 C174 1.335 . S
N172 C175 1.390 . S
N173 C174 1.345 . S
N173 C176 1.336 . S
C174 N172 1.335 . S
C174 N173 1.345 . S
C174 H179 0.930 . S
C175 N172 1.390 . S
C175 C176 1.346 . S
C175 H180 0.930 . S
C176 N173 1.336 . S
C176 C175 1.346 . S
C176 H183 0.929 . S
C177 O167 1.282 . S
C177 O178 1.216 . S
O178 C177 1.216 . S
H179 C174 0.930 . S
H180 C175 0.930 . S
O181 Cu161 1.959 . S
O181 C168 1.251 . S
H182 C165 0.930 . S
H183 C176 0.929 . S
Cu184 N185 1.999 . S
Cu184 O190 1.974 . S
Cu184 N195 1.985 1_556 S
Cu184 O204 1.959 . S
N185 Cu184 1.999 . S
N185 C187 1.263 . S
N185 C189 1.389 . S
N186 C187 1.358 . S
N186 C188 1.400 . S
C187 N185 1.263 . S
C187 N186 1.358 . S
C187 H193 0.930 . S
C188 N186 1.400 . S
C188 C189 1.351 . S
C188 H205 0.930 . S
C189 N185 1.389 . S
C189 C188 1.351 . S
C189 H194 0.930 . S
O190 Cu184 1.974 . S
O190 C200 1.282 1_556 S
C191 O192 1.261 . S
C191 O204 1.251 1_554 S
O192 C191 1.261 . S
H193 C187 0.930 . S
H194 C189 0.930 . S
N195 Cu184 1.985 1_554 S
N195 C197 1.335 . S
N195 C198 1.390 . S
N196 C197 1.345 . S
N196 C199 1.336 . S
C197 N195 1.335 . S
C197 N196 1.345 . S
C197 H202 0.930 . S
C198 N195 1.390 . S
C198 C199 1.346 . S
C198 H203 0.930 . S
C199 N196 1.336 . S
C199 C198 1.346 . S
C199 H206 0.929 . S
C200 O190 1.282 1_554 S
C200 O201 1.216 . S
O201 C200 1.216 . S
H202 C197 0.930 . S
H203 C198 0.930 . S
O204 Cu184 1.959 . S
O204 C191 1.251 1_556 S
H205 C188 0.930 . S
H206 C199 0.929 . S
Cu207 N208 1.999 . S
Cu207 O213 1.974 . S
Cu207 N218 1.985 . S
Cu207 O227 1.959 . S
N208 Cu207 1.999 . S
N208 C210 1.263 . S
N208 C212 1.389 . S
N209 C210 1.358 . S
N209 C211 1.400 . S
C210 N208 1.263 . S
C210 N209 1.358 . S
C210 H216 0.930 . S
C211 N209 1.400 . S
C211 C212 1.351 . S
C211 H228 0.930 . S
C212 N208 1.389 . S
C212 C211 1.351 . S
C212 H217 0.930 . S
O213 Cu207 1.974 . S
O213 C223 1.282 . S
C214 O215 1.261 . S
C214 O227 1.251 . S
O215 C214 1.261 . S
H216 C210 0.930 . S
H217 C212 0.930 . S
N218 Cu207 1.985 . S
N218 C220 1.335 . S
N218 C221 1.390 . S
N219 C220 1.345 . S
N219 C222 1.336 . S
C220 N218 1.335 . S
C220 N219 1.345 . S
C220 H225 0.930 . S
C221 N218 1.390 . S
C221 C222 1.346 . S
C221 H226 0.930 . S
C222 N219 1.336 . S
C222 C221 1.346 . S
C222 H229 0.929 . S
C223 O213 1.282 . S
C223 O224 1.216 . S
O224 C223 1.216 . S
H225 C220 0.930 . S
H226 C221 0.930 . S
O227 Cu207 1.959 . S
O227 C214 1.251 . S
H228 C211 0.930 . S
H229 C222 0.929 . S
Cu230 N231 1.999 . S
Cu230 O236 1.974 . S
Cu230 N241 1.985 . S
Cu230 O250 1.959 . S
N231 Cu230 1.999 . S
N231 C233 1.263 . S
N231 C235 1.389 . S
N232 C233 1.358 . S
N232 C234 1.400 . S
C233 N231 1.263 . S
C233 N232 1.358 . S
C233 H239 0.930 . S
C234 N232 1.400 . S
C234 C235 1.351 . S
C234 H251 0.930 . S
C235 N231 1.389 . S
C235 C234 1.351 . S
C235 H240 0.930 . S
O236 Cu230 1.974 . S
O236 C246 1.282 . S
C237 O238 1.261 . S
C237 O250 1.251 . S
O238 C237 1.261 . S
H239 C233 0.930 . S
H240 C235 0.930 . S
N241 Cu230 1.985 . S
N241 C243 1.335 . S
N241 C244 1.390 . S
N242 C243 1.345 . S
N242 C245 1.336 . S
C243 N241 1.335 . S
C243 N242 1.345 . S
C243 H248 0.930 . S
C244 N241 1.390 . S
C244 C245 1.346 . S
C244 H249 0.930 . S
C245 N242 1.336 . S
C245 C244 1.346 . S
C245 H252 0.929 . S
C246 O236 1.282 . S
C246 O247 1.216 . S
O247 C246 1.216 . S
H248 C243 0.930 . S
H249 C244 0.930 . S
O250 Cu230 1.959 . S
O250 C237 1.251 . S
H251 C234 0.930 . S
H252 C245 0.929 . S
Cu253 N254 1.999 . S
Cu253 O259 1.974 . S
Cu253 N264 1.985 1_556 S
Cu253 O273 1.959 . S
N254 Cu253 1.999 . S
N254 C256 1.263 . S
N254 C258 1.389 . S
N255 C256 1.358 . S
N255 C257 1.400 . S
C256 N254 1.263 . S
C256 N255 1.358 . S
C256 H262 0.930 . S
C257 N255 1.400 . S
C257 C258 1.351 . S
C257 H274 0.930 . S
C258 N254 1.389 . S
C258 C257 1.351 . S
C258 H263 0.930 . S
O259 Cu253 1.974 . S
O259 C269 1.282 1_556 S
C260 O261 1.261 . S
C260 O273 1.251 1_554 S
O261 C260 1.261 . S
H262 C256 0.930 . S
H263 C258 0.930 . S
N264 Cu253 1.985 1_554 S
N264 C266 1.335 . S
N264 C267 1.390 . S
N265 C266 1.345 . S
N265 C268 1.336 . S
C266 N264 1.335 . S
C266 N265 1.345 . S
C266 H271 0.930 . S
C267 N264 1.390 . S
C267 C268 1.346 . S
C267 H272 0.930 . S
C268 N265 1.336 . S
C268 C267 1.346 . S
C268 H275 0.929 . S
C269 O259 1.282 1_554 S
C269 O270 1.216 . S
O270 C269 1.216 . S
H271 C266 0.930 . S
H272 C267 0.930 . S
O273 Cu253 1.959 . S
O273 C260 1.251 1_556 S
H274 C257 0.930 . S
H275 C268 0.929 . S
C276 C277 1.391 . S
C276 C278 1.394 . S
C276 H292 0.931 . S
C277 C276 1.391 . S
C277 C281 1.376 . S
C278 C276 1.394 . S
C278 C279 1.369 . S
C278 C282 1.531 . S
C279 C278 1.369 . S
C279 C280 1.410 . S
C279 C287 1.503 . S
C280 C279 1.410 . S
C280 C281 1.392 . S
C280 C283 1.511 . S
C281 C277 1.376 . S
C281 C280 1.392 . S
C281 H293 0.929 . S
C282 C278 1.531 . S
C282 H294 0.960 . S
C282 H295 0.962 . S
C282 H296 0.960 . S
C283 C280 1.511 . S
C283 H297 0.961 . S
C283 H298 0.961 . S
C283 H299 0.961 . S
C284 C285 1.370 . S
C284 C286 1.363 . S
C284 H300 0.931 . S
C285 C284 1.370 . S
C285 C289 1.408 . S
C286 C284 1.363 . S
C286 C287 1.370 . S
C286 C290 1.524 . S
C287 C279 1.503 . S
C287 C286 1.370 . S
C287 C288 1.403 . S
C288 C287 1.403 . S
C288 C289 1.404 . S
C288 C291 1.539 . S
C289 C285 1.408 . S
C289 C288 1.404 . S
C289 H301 0.930 . S
C290 C286 1.524 . S
C290 H302 0.956 . S
C290 H303 0.961 . S
C290 H304 0.961 . S
C291 C288 1.539 . S
C291 H305 0.958 . S
C291 H306 0.961 . S
C291 H307 0.960 . S
H292 C276 0.931 . S
H293 C281 0.929 . S
H294 C282 0.960 . S
H295 C282 0.962 . S
H296 C282 0.960 . S
H297 C283 0.961 . S
H298 C283 0.961 . S
H299 C283 0.961 . S
H300 C284 0.931 . S
H301 C289 0.930 . S
H302 C290 0.956 . S
H303 C290 0.961 . S
H304 C290 0.961 . S
H305 C291 0.958 . S
H306 C291 0.961 . S
H307 C291 0.960 . S
C308 C309 1.391 . S
C308 C310 1.394 . S
C308 H324 0.931 . S
C309 C308 1.391 . S
C309 C313 1.376 . S
C310 C308 1.394 . S
C310 C311 1.369 . S
C310 C314 1.531 . S
C311 C310 1.369 . S
C311 C312 1.410 . S
C311 C319 1.503 . S
C312 C311 1.410 . S
C312 C313 1.392 . S
C312 C315 1.511 . S
C313 C309 1.376 . S
C313 C312 1.392 . S
C313 H325 0.929 . S
C314 C310 1.531 . S
C314 H326 0.960 . S
C314 H327 0.962 . S
C314 H328 0.960 . S
C315 C312 1.511 . S
C315 H329 0.961 . S
C315 H330 0.961 . S
C315 H331 0.961 . S
C316 C317 1.370 . S
C316 C318 1.363 . S
C316 H332 0.931 . S
C317 C316 1.370 . S
C317 C321 1.408 . S
C318 C316 1.363 . S
C318 C319 1.370 . S
C318 C322 1.524 . S
C319 C311 1.503 . S
C319 C318 1.370 . S
C319 C320 1.403 . S
C320 C319 1.403 . S
C320 C321 1.404 . S
C320 C323 1.539 . S
C321 C317 1.408 . S
C321 C320 1.404 . S
C321 H333 0.930 . S
C322 C318 1.524 . S
C322 H334 0.956 . S
C322 H335 0.961 . S
C322 H336 0.961 . S
C323 C320 1.539 . S
C323 H337 0.958 . S
C323 H338 0.961 . S
C323 H339 0.960 . S
H324 C308 0.931 . S
H325 C313 0.929 . S
H326 C314 0.960 . S
H327 C314 0.962 . S
H328 C314 0.960 . S
H329 C315 0.961 . S
H330 C315 0.961 . S
H331 C315 0.961 . S
H332 C316 0.931 . S
H333 C321 0.930 . S
H334 C322 0.956 . S
H335 C322 0.961 . S
H336 C322 0.961 . S
H337 C323 0.958 . S
H338 C323 0.961 . S
H339 C323 0.960 . S
C340 C341 1.391 . S
C340 C342 1.394 . S
C340 H356 0.931 . S
C341 C340 1.391 . S
C341 C345 1.376 . S
C342 C340 1.394 . S
C342 C343 1.369 . S
C342 C346 1.531 . S
C343 C342 1.369 . S
C343 C344 1.410 . S
C343 C351 1.503 . S
C344 C343 1.410 . S
C344 C345 1.392 . S
C344 C347 1.511 . S
C345 C341 1.376 . S
C345 C344 1.392 . S
C345 H357 0.929 . S
C346 C342 1.531 . S
C346 H358 0.960 . S
C346 H359 0.962 . S
C346 H360 0.960 . S
C347 C344 1.511 . S
C347 H361 0.961 . S
C347 H362 0.961 . S
C347 H363 0.961 . S
C348 C349 1.370 . S
C348 C350 1.363 . S
C348 H364 0.931 . S
C349 C348 1.370 . S
C349 C353 1.408 . S
C350 C348 1.363 . S
C350 C351 1.370 . S
C350 C354 1.524 . S
C351 C343 1.503 . S
C351 C350 1.370 . S
C351 C352 1.403 . S
C352 C351 1.403 . S
C352 C353 1.404 . S
C352 C355 1.539 . S
C353 C349 1.408 . S
C353 C352 1.404 . S
C353 H365 0.930 . S
C354 C350 1.524 . S
C354 H366 0.956 . S
C354 H367 0.961 . S
C354 H368 0.961 . S
C355 C352 1.539 . S
C355 H369 0.958 . S
C355 H370 0.961 . S
C355 H371 0.960 . S
H356 C340 0.931 . S
H357 C345 0.929 . S
H358 C346 0.960 . S
H359 C346 0.962 . S
H360 C346 0.960 . S
H361 C347 0.961 . S
H362 C347 0.961 . S
H363 C347 0.961 . S
H364 C348 0.931 . S
H365 C353 0.930 . S
H366 C354 0.956 . S
H367 C354 0.961 . S
H368 C354 0.961 . S
H369 C355 0.958 . S
H370 C355 0.961 . S
H371 C355 0.960 . S
C372 C373 1.391 . S
C372 C374 1.394 . S
C372 H388 0.931 . S
C373 C372 1.391 . S
C373 C377 1.376 . S
C374 C372 1.394 . S
C374 C375 1.369 . S
C374 C378 1.531 . S
C375 C374 1.369 . S
C375 C376 1.410 . S
C375 C383 1.503 . S
C376 C375 1.410 . S
C376 C377 1.392 . S
C376 C379 1.511 . S
C377 C373 1.376 . S
C377 C376 1.392 . S
C377 H389 0.929 . S
C378 C374 1.531 . S
C378 H390 0.960 . S
C378 H391 0.962 . S
C378 H392 0.960 . S
C379 C376 1.511 . S
C379 H393 0.961 . S
C379 H394 0.961 . S
C379 H395 0.961 . S
C380 C381 1.370 . S
C380 C382 1.363 . S
C380 H396 0.931 . S
C381 C380 1.370 . S
C381 C385 1.408 . S
C382 C380 1.363 . S
C382 C383 1.370 . S
C382 C386 1.524 . S
C383 C375 1.503 . S
C383 C382 1.370 . S
C383 C384 1.403 . S
C384 C383 1.403 . S
C384 C385 1.404 . S
C384 C387 1.539 . S
C385 C381 1.408 . S
C385 C384 1.404 . S
C385 H397 0.930 . S
C386 C382 1.524 . S
C386 H398 0.956 . S
C386 H399 0.961 . S
C386 H400 0.961 . S
C387 C384 1.539 . S
C387 H401 0.958 . S
C387 H402 0.961 . S
C387 H403 0.960 . S
H388 C372 0.931 . S
H389 C377 0.929 . S
H390 C378 0.960 . S
H391 C378 0.962 . S
H392 C378 0.960 . S
H393 C379 0.961 . S
H394 C379 0.961 . S
H395 C379 0.961 . S
H396 C380 0.931 . S
H397 C385 0.930 . S
H398 C386 0.956 . S
H399 C386 0.961 . S
H400 C386 0.961 . S
H401 C387 0.958 . S
H402 C387 0.961 . S
H403 C387 0.960 . S
C404 C405 1.391 . S
C404 C406 1.394 . S
C404 H420 0.931 . S
C405 C404 1.391 . S
C405 C409 1.376 . S
C406 C404 1.394 . S
C406 C407 1.369 . S
C406 C410 1.531 . S
C407 C406 1.369 . S
C407 C408 1.410 . S
C407 C415 1.503 . S
C408 C407 1.410 . S
C408 C409 1.392 . S
C408 C411 1.511 . S
C409 C405 1.376 . S
C409 C408 1.392 . S
C409 H421 0.929 . S
C410 C406 1.531 . S
C410 H422 0.960 . S
C410 H423 0.962 . S
C410 H424 0.960 . S
C411 C408 1.511 . S
C411 H425 0.961 . S
C411 H426 0.961 . S
C411 H427 0.961 . S
C412 C413 1.370 . S
C412 C414 1.363 . S
C412 H428 0.931 . S
C413 C412 1.370 . S
C413 C417 1.408 . S
C414 C412 1.363 . S
C414 C415 1.370 . S
C414 C418 1.524 . S
C415 C407 1.503 . S
C415 C414 1.370 . S
C415 C416 1.403 . S
C416 C415 1.403 . S
C416 C417 1.404 . S
C416 C419 1.539 . S
C417 C413 1.408 . S
C417 C416 1.404 . S
C417 H429 0.930 . S
C418 C414 1.524 . S
C418 H430 0.956 . S
C418 H431 0.961 . S
C418 H432 0.961 . S
C419 C416 1.539 . S
C419 H433 0.958 . S
C419 H434 0.961 . S
C419 H435 0.960 . S
H420 C404 0.931 . S
H421 C409 0.929 . S
H422 C410 0.960 . S
H423 C410 0.962 . S
H424 C410 0.960 . S
H425 C411 0.961 . S
H426 C411 0.961 . S
H427 C411 0.961 . S
H428 C412 0.931 . S
H429 C417 0.930 . S
H430 C418 0.956 . S
H431 C418 0.961 . S
H432 C418 0.961 . S
H433 C419 0.958 . S
H434 C419 0.961 . S
H435 C419 0.960 . S
C436 C437 1.391 . S
C436 C438 1.394 . S
C436 H452 0.931 . S
C437 C436 1.391 . S
C437 C441 1.376 . S
C438 C436 1.394 . S
C438 C439 1.369 . S
C438 C442 1.531 . S
C439 C438 1.369 . S
C439 C440 1.410 . S
C439 C447 1.503 . S
C440 C439 1.410 . S
C440 C441 1.392 . S
C440 C443 1.511 . S
C441 C437 1.376 . S
C441 C440 1.392 . S
C441 H453 0.929 . S
C442 C438 1.531 . S
C442 H454 0.960 . S
C442 H455 0.962 . S
C442 H456 0.960 . S
C443 C440 1.511 . S
C443 H457 0.961 . S
C443 H458 0.961 . S
C443 H459 0.961 . S
C444 C445 1.370 . S
C444 C446 1.363 . S
C444 H460 0.931 . S
C445 C444 1.370 . S
C445 C449 1.408 . S
C446 C444 1.363 . S
C446 C447 1.370 . S
C446 C450 1.524 . S
C447 C439 1.503 . S
C447 C446 1.370 . S
C447 C448 1.403 . S
C448 C447 1.403 . S
C448 C449 1.404 . S
C448 C451 1.539 . S
C449 C445 1.408 . S
C449 C448 1.404 . S
C449 H461 0.930 . S
C450 C446 1.524 . S
C450 H462 0.956 . S
C450 H463 0.961 . S
C450 H464 0.961 . S
C451 C448 1.539 . S
C451 H465 0.958 . S
C451 H466 0.961 . S
C451 H467 0.960 . S
H452 C436 0.931 . S
H453 C441 0.929 . S
H454 C442 0.960 . S
H455 C442 0.962 . S
H456 C442 0.960 . S
H457 C443 0.961 . S
H458 C443 0.961 . S
H459 C443 0.961 . S
H460 C444 0.931 . S
H461 C449 0.930 . S
H462 C450 0.956 . S
H463 C450 0.961 . S
H464 C450 0.961 . S
H465 C451 0.958 . S
H466 C451 0.961 . S
H467 C451 0.960 . S
C468 C469 1.391 . S
C468 C470 1.394 . S
C468 H484 0.931 . S
C469 C468 1.391 . S
C469 C473 1.376 . S
C470 C468 1.394 . S
C470 C471 1.369 . S
C470 C474 1.531 . S
C471 C470 1.369 . S
C471 C472 1.410 . S
C471 C479 1.503 . S
C472 C471 1.410 . S
C472 C473 1.392 . S
C472 C475 1.511 . S
C473 C469 1.376 . S
C473 C472 1.392 . S
C473 H485 0.929 . S
C474 C470 1.531 . S
C474 H486 0.960 . S
C474 H487 0.962 . S
C474 H488 0.960 . S
C475 C472 1.511 . S
C475 H489 0.961 . S
C475 H490 0.961 . S
C475 H491 0.961 . S
C476 C477 1.370 . S
C476 C478 1.363 . S
C476 H492 0.931 . S
C477 C476 1.370 . S
C477 C481 1.408 . S
C478 C476 1.363 . S
C478 C479 1.370 . S
C478 C482 1.524 . S
C479 C471 1.503 . S
C479 C478 1.370 . S
C479 C480 1.403 . S
C480 C479 1.403 . S
C480 C481 1.404 . S
C480 C483 1.539 . S
C481 C477 1.408 . S
C481 C480 1.404 . S
C481 H493 0.930 . S
C482 C478 1.524 . S
C482 H494 0.956 . S
C482 H495 0.961 . S
C482 H496 0.961 . S
C483 C480 1.539 . S
C483 H497 0.958 . S
C483 H498 0.961 . S
C483 H499 0.960 . S
H484 C468 0.931 . S
H485 C473 0.929 . S
H486 C474 0.960 . S
H487 C474 0.962 . S
H488 C474 0.960 . S
H489 C475 0.961 . S
H490 C475 0.961 . S
H491 C475 0.961 . S
H492 C476 0.931 . S
H493 C481 0.930 . S
H494 C482 0.956 . S
H495 C482 0.961 . S
H496 C482 0.961 . S
H497 C483 0.958 . S
H498 C483 0.961 . S
H499 C483 0.960 . S
C500 C501 1.391 . S
C500 C502 1.394 . S
C500 H516 0.931 . S
C501 C500 1.391 . S
C501 C505 1.376 . S
C502 C500 1.394 . S
C502 C503 1.369 . S
C502 C506 1.531 . S
C503 C502 1.369 . S
C503 C504 1.410 . S
C503 C511 1.503 . S
C504 C503 1.410 . S
C504 C505 1.392 . S
C504 C507 1.511 . S
C505 C501 1.376 . S
C505 C504 1.392 . S
C505 H517 0.929 . S
C506 C502 1.531 . S
C506 H518 0.960 . S
C506 H519 0.962 . S
C506 H520 0.960 . S
C507 C504 1.511 . S
C507 H521 0.961 . S
C507 H522 0.961 . S
C507 H523 0.961 . S
C508 C509 1.370 . S
C508 C510 1.363 . S
C508 H524 0.931 . S
C509 C508 1.370 . S
C509 C513 1.408 . S
C510 C508 1.363 . S
C510 C511 1.370 . S
C510 C514 1.524 . S
C511 C503 1.503 . S
C511 C510 1.370 . S
C511 C512 1.403 . S
C512 C511 1.403 . S
C512 C513 1.404 . S
C512 C515 1.539 . S
C513 C509 1.408 . S
C513 C512 1.404 . S
C513 H525 0.930 . S
C514 C510 1.524 . S
C514 H526 0.956 . S
C514 H527 0.961 . S
C514 H528 0.961 . S
C515 C512 1.539 . S
C515 H529 0.958 . S
C515 H530 0.961 . S
C515 H531 0.960 . S
H516 C500 0.931 . S
H517 C505 0.929 . S
H518 C506 0.960 . S
H519 C506 0.962 . S
H520 C506 0.960 . S
H521 C507 0.961 . S
H522 C507 0.961 . S
H523 C507 0.961 . S
H524 C508 0.931 . S
H525 C513 0.930 . S
H526 C514 0.956 . S
H527 C514 0.961 . S
H528 C514 0.961 . S
H529 C515 0.958 . S
H530 C515 0.961 . S
H531 C515 0.960 . S
C532 C533 1.391 1_556 S
C532 C534 1.394 . S
C532 H548 0.931 . S
C533 C532 1.391 1_554 S
C533 C537 1.376 . S
C534 C532 1.394 . S
C534 C535 1.369 1_556 S
C534 C538 1.531 . S
C535 C534 1.369 1_554 S
C535 C536 1.410 . S
C535 C543 1.504 1_554 S
C536 C535 1.410 . S
C536 C537 1.392 . S
C536 C539 1.511 . S
C537 C533 1.376 . S
C537 C536 1.392 . S
C537 H549 0.929 . S
C538 C534 1.531 . S
C538 H550 0.960 . S
C538 H551 0.962 . S
C538 H552 0.960 . S
C539 C536 1.511 . S
C539 H553 0.961 . S
C539 H554 0.961 . S
C539 H555 0.961 . S
C540 C541 1.370 . S
C540 C542 1.363 . S
C540 H556 0.931 . S
C541 C540 1.370 . S
C541 C545 1.408 1_556 S
C542 C540 1.363 . S
C542 C543 1.370 . S
C542 C546 1.524 . S
C543 C535 1.504 1_556 S
C543 C542 1.370 . S
C543 C544 1.403 1_556 S
C544 C543 1.403 1_554 S
C544 C545 1.404 . S
C544 C547 1.539 . S
C545 C541 1.408 1_554 S
C545 C544 1.404 . S
C545 H557 0.930 . S
C546 C542 1.524 . S
C546 H558 0.956 . S
C546 H559 0.961 1_556 S
C546 H560 0.961 . S
C547 C544 1.539 . S
C547 H561 0.958 1_554 S
C547 H562 0.961 . S
C547 H563 0.960 . S
H548 C532 0.931 . S
H549 C537 0.929 . S
H550 C538 0.960 . S
H551 C538 0.962 . S
H552 C538 0.960 . S
H553 C539 0.961 . S
H554 C539 0.961 . S
H555 C539 0.961 . S
H556 C540 0.931 . S
H557 C545 0.930 . S
H558 C546 0.956 . S
H559 C546 0.961 1_554 S
H560 C546 0.961 . S
H561 C547 0.958 1_556 S
H562 C547 0.961 . S
H563 C547 0.960 . S
C564 C565 1.391 . S
C564 C566 1.394 . S
C564 H580 0.931 . S
C565 C564 1.391 . S
C565 C569 1.376 . S
C566 C564 1.394 . S
C566 C567 1.369 . S
C566 C570 1.531 . S
C567 C566 1.369 . S
C567 C568 1.410 . S
C567 C575 1.503 . S
C568 C567 1.410 . S
C568 C569 1.392 . S
C568 C571 1.511 . S
C569 C565 1.376 . S
C569 C568 1.392 . S
C569 H581 0.929 . S
C570 C566 1.531 . S
C570 H582 0.960 . S
C570 H583 0.962 . S
C570 H584 0.960 . S
C571 C568 1.511 . S
C571 H585 0.961 . S
C571 H586 0.961 . S
C571 H587 0.961 . S
C572 C573 1.370 . S
C572 C574 1.363 . S
C572 H588 0.931 . S
C573 C572 1.370 . S
C573 C577 1.408 . S
C574 C572 1.363 . S
C574 C575 1.370 . S
C574 C578 1.524 . S
C575 C567 1.503 . S
C575 C574 1.370 . S
C575 C576 1.403 . S
C576 C575 1.403 . S
C576 C577 1.404 . S
C576 C579 1.539 . S
C577 C573 1.408 . S
C577 C576 1.404 . S
C577 H589 0.930 . S
C578 C574 1.524 . S
C578 H590 0.956 . S
C578 H591 0.961 . S
C578 H592 0.961 . S
C579 C576 1.539 . S
C579 H593 0.958 . S
C579 H594 0.961 . S
C579 H595 0.960 . S
H580 C564 0.931 . S
H581 C569 0.929 . S
H582 C570 0.960 . S
H583 C570 0.962 . S
H584 C570 0.960 . S
H585 C571 0.961 . S
H586 C571 0.961 . S
H587 C571 0.961 . S
H588 C572 0.931 . S
H589 C577 0.930 . S
H590 C578 0.956 . S
H591 C578 0.961 . S
H592 C578 0.961 . S
H593 C579 0.958 . S
H594 C579 0.961 . S
H595 C579 0.960 . S
C596 C597 1.391 . S
C596 C598 1.394 . S
C596 H612 0.931 . S
C597 C596 1.391 . S
C597 C601 1.376 . S
C598 C596 1.394 . S
C598 C599 1.369 . S
C598 C602 1.531 . S
C599 C598 1.369 . S
C599 C600 1.410 . S
C599 C607 1.503 . S
C600 C599 1.410 . S
C600 C601 1.392 . S
C600 C603 1.511 . S
C601 C597 1.376 . S
C601 C600 1.392 . S
C601 H613 0.929 . S
C602 C598 1.531 . S
C602 H614 0.960 . S
C602 H615 0.962 . S
C602 H616 0.960 . S
C603 C600 1.511 . S
C603 H617 0.961 . S
C603 H618 0.961 . S
C603 H619 0.961 . S
C604 C605 1.370 . S
C604 C606 1.363 . S
C604 H620 0.931 . S
C605 C604 1.370 . S
C605 C609 1.408 . S
C606 C604 1.363 . S
C606 C607 1.370 . S
C606 C610 1.524 . S
C607 C599 1.503 . S
C607 C606 1.370 . S
C607 C608 1.403 . S
C608 C607 1.403 . S
C608 C609 1.404 . S
C608 C611 1.539 . S
C609 C605 1.408 . S
C609 C608 1.404 . S
C609 H621 0.930 . S
C610 C606 1.524 . S
C610 H622 0.956 . S
C610 H623 0.961 . S
C610 H624 0.961 . S
C611 C608 1.539 . S
C611 H625 0.958 . S
C611 H626 0.961 . S
C611 H627 0.960 . S
H612 C596 0.931 . S
H613 C601 0.929 . S
H614 C602 0.960 . S
H615 C602 0.962 . S
H616 C602 0.960 . S
H617 C603 0.961 . S
H618 C603 0.961 . S
H619 C603 0.961 . S
H620 C604 0.931 . S
H621 C609 0.930 . S
H622 C610 0.956 . S
H623 C610 0.961 . S
H624 C610 0.961 . S
H625 C611 0.958 . S
H626 C611 0.961 . S
H627 C611 0.960 . S
C628 C629 1.391 . S
C628 C630 1.394 . S
C628 H644 0.931 . S
C629 C628 1.391 . S
C629 C633 1.376 1_556 S
C630 C628 1.394 . S
C630 C631 1.369 . S
C630 C634 1.531 . S
C631 C630 1.369 . S
C631 C632 1.410 1_556 S
C631 C639 1.504 . S
C632 C631 1.410 1_554 S
C632 C633 1.392 . S
C632 C635 1.511 . S
C633 C629 1.376 1_554 S
C633 C632 1.392 . S
C633 H645 0.929 . S
C634 C630 1.531 . S
C634 H646 0.960 . S
C634 H647 0.962 . S
C634 H648 0.960 . S
C635 C632 1.511 . S
C635 H649 0.961 . S
C635 H650 0.961 . S
C635 H651 0.961 . S
C636 C637 1.370 . S
C636 C638 1.363 . S
C636 H652 0.931 . S
C637 C636 1.370 . S
C637 C641 1.408 1_554 S
C638 C636 1.363 . S
C638 C639 1.369 1_554 S
C638 C642 1.524 . S
C639 C631 1.504 . S
C639 C638 1.369 1_556 S
C639 C640 1.404 . S
C640 C639 1.404 . S
C640 C641 1.404 . S
C640 C643 1.539 . S
C641 C637 1.408 1_556 S
C641 C640 1.404 . S
C641 H653 0.930 . S
C642 C638 1.524 . S
C642 H654 0.956 1_554 S
C642 H655 0.961 . S
C642 H656 0.961 . S
C643 C640 1.539 . S
C643 H657 0.958 . S
C643 H658 0.961 . S
C643 H659 0.960 . S
H644 C628 0.931 . S
H645 C633 0.929 . S
H646 C634 0.960 . S
H647 C634 0.962 . S
H648 C634 0.960 . S
H649 C635 0.961 . S
H650 C635 0.961 . S
H651 C635 0.961 . S
H652 C636 0.931 . S
H653 C641 0.930 . S
H654 C642 0.956 1_556 S
H655 C642 0.961 . S
H656 C642 0.961 . S
H657 C643 0.958 . S
H658 C643 0.961 . S
H659 C643 0.960 . S
C660 C661 1.391 . S
C660 C662 1.394 . S
C660 H676 0.931 . S
C661 C660 1.391 . S
C661 C665 1.376 . S
C662 C660 1.394 . S
C662 C663 1.369 . S
C662 C666 1.531 1_545 S
C663 C662 1.369 . S
C663 C664 1.410 . S
C663 C671 1.503 1_545 S
C664 C663 1.410 . S
C664 C665 1.392 . S
C664 C667 1.511 . S
C665 C661 1.376 . S
C665 C664 1.392 . S
C665 H677 0.929 . S
C666 C662 1.531 1_565 S
C666 H678 0.960 . S
C666 H679 0.962 . S
C666 H680 0.960 . S
C667 C664 1.511 . S
C667 H681 0.961 . S
C667 H682 0.961 . S
C667 H683 0.961 . S
C668 C669 1.370 . S
C668 C670 1.363 . S
C668 H684 0.931 . S
C669 C668 1.370 . S
C669 C673 1.408 . S
C670 C668 1.363 . S
C670 C671 1.370 . S
C670 C674 1.524 1_565 S
C671 C663 1.503 1_565 S
C671 C670 1.370 . S
C671 C672 1.403 . S
C672 C671 1.403 . S
C672 C673 1.404 . S
C672 C675 1.539 . S
C673 C669 1.408 . S
C673 C672 1.404 . S
C673 H685 0.930 . S
C674 C670 1.524 1_545 S
C674 H686 0.946 . S
C674 H687 0.961 . S
C674 H688 0.961 . S
C675 C672 1.539 . S
C675 H689 0.958 . S
C675 H690 0.961 . S
C675 H691 0.960 . S
H676 C660 0.931 . S
H677 C665 0.929 . S
H678 C666 0.960 . S
H679 C666 0.962 . S
H680 C666 0.960 . S
H681 C667 0.961 . S
H682 C667 0.961 . S
H683 C667 0.961 . S
H684 C668 0.931 . S
H685 C673 0.930 . S
H686 C674 0.946 . S
H687 C674 0.961 . S
H688 C674 0.961 . S
H689 C675 0.958 . S
H690 C675 0.961 . S
H691 C675 0.960 . S
C692 C693 1.391 . S
C692 C694 1.394 . S
C692 H708 0.931 . S
C693 C692 1.391 . S
C693 C697 1.376 . S
C694 C692 1.394 . S
C694 C695 1.369 . S
C694 C698 1.531 . S
C695 C694 1.369 . S
C695 C696 1.410 . S
C695 C703 1.503 . S
C696 C695 1.410 . S
C696 C697 1.392 . S
C696 C699 1.511 . S
C697 C693 1.376 . S
C697 C696 1.392 . S
C697 H709 0.929 . S
C698 C694 1.531 . S
C698 H710 0.960 . S
C698 H711 0.962 . S
C698 H712 0.960 . S
C699 C696 1.511 . S
C699 H713 0.961 . S
C699 H714 0.961 . S
C699 H715 0.961 . S
C700 C701 1.370 . S
C700 C702 1.363 . S
C700 H716 0.931 . S
C701 C700 1.370 . S
C701 C705 1.408 . S
C702 C700 1.363 . S
C702 C703 1.370 . S
C702 C706 1.524 . S
C703 C695 1.503 . S
C703 C702 1.370 . S
C703 C704 1.403 . S
C704 C703 1.403 . S
C704 C705 1.404 . S
C704 C707 1.539 . S
C705 C701 1.408 . S
C705 C704 1.404 . S
C705 H717 0.930 . S
C706 C702 1.524 . S
C706 H718 0.956 . S
C706 H719 0.961 . S
C706 H720 0.961 . S
C707 C704 1.539 . S
C707 H721 0.958 . S
C707 H722 0.961 . S
C707 H723 0.960 . S
H708 C692 0.931 . S
H709 C697 0.929 . S
H710 C698 0.960 . S
H711 C698 0.962 . S
H712 C698 0.960 . S
H713 C699 0.961 . S
H714 C699 0.961 . S
H715 C699 0.961 . S
H716 C700 0.931 . S
H717 C705 0.930 . S
H718 C706 0.956 . S
H719 C706 0.961 . S
H720 C706 0.961 . S
H721 C707 0.958 . S
H722 C707 0.961 . S
H723 C707 0.960 . S
C724 C725 1.391 . S
C724 C726 1.394 . S
C724 H740 0.931 . S
C725 C724 1.391 . S
C725 C729 1.376 . S
C726 C724 1.394 . S
C726 C727 1.369 . S
C726 C730 1.531 1_655 S
C727 C726 1.369 . S
C727 C728 1.410 . S
C727 C735 1.503 1_655 S
C728 C727 1.410 . S
C728 C729 1.392 . S
C728 C731 1.511 . S
C729 C725 1.376 . S
C729 C728 1.392 . S
C729 H741 0.929 . S
C730 C726 1.531 1_455 S
C730 H742 0.960 . S
C730 H743 0.962 1_556 S
C730 H744 0.960 . S
C731 C728 1.511 . S
C731 H745 0.961 1_556 S
C731 H746 0.961 1_556 S
C731 H747 0.961 . S
C732 C733 1.352 1_554 S
C732 C734 1.363 . S
C732 H748 0.931 . S
C733 C732 1.352 1_556 S
C733 C737 1.429 . S
C734 C732 1.363 . S
C734 C735 1.370 1_554 S
C734 C738 1.524 . S
C735 C727 1.503 1_455 S
C735 C734 1.370 1_556 S
C735 C736 1.403 . S
C736 C735 1.403 . S
C736 C737 1.404 . S
C736 C739 1.539 . S
C737 C733 1.429 . S
C737 C736 1.404 . S
C737 H749 0.930 . S
C738 C734 1.524 . S
C738 H750 0.956 . S
C738 H751 0.961 1_455 S
C738 H752 0.961 . S
C739 C736 1.539 . S
C739 H753 0.958 . S
C739 H754 0.961 . S
C739 H755 0.960 1_455 S
H740 C724 0.931 . S
H741 C729 0.929 . S
H742 C730 0.960 . S
H743 C730 0.962 1_554 S
H744 C730 0.960 . S
H745 C731 0.961 1_554 S
H746 C731 0.961 1_554 S
H747 C731 0.961 . S
H748 C732 0.931 . S
H749 C737 0.930 . S
H750 C738 0.956 . S
H751 C738 0.961 1_655 S
H752 C738 0.961 . S
H753 C739 0.958 . S
H754 C739 0.961 . S
H755 C739 0.960 1_655 S
C756 C757 1.391 . S
C756 C758 1.394 . S
C756 H772 0.931 . S
C757 C756 1.391 . S
C757 C761 1.376 . S
C758 C756 1.394 . S
C758 C759 1.369 . S
C758 C762 1.531 . S
C759 C758 1.369 . S
C759 C760 1.410 . S
C759 C767 1.503 1_455 S
C760 C759 1.410 . S
C760 C761 1.392 . S
C760 C763 1.511 . S
C761 C757 1.376 . S
C761 C760 1.392 . S
C761 H773 0.929 . S
C762 C758 1.531 . S
C762 H774 0.960 . S
C762 H775 0.962 1_455 S
C762 H776 0.960 . S
C763 C760 1.511 . S
C763 H777 0.961 . S
C763 H778 0.961 . S
C763 H779 0.961 . S
C764 C765 1.370 . S
C764 C766 1.363 . S
C764 H780 0.931 . S
C765 C764 1.370 . S
C765 C769 1.408 . S
C766 C764 1.363 . S
C766 C767 1.370 . S
C766 C770 1.524 . S
C767 C759 1.503 1_655 S
C767 C766 1.370 . S
C767 C768 1.403 . S
C768 C767 1.403 . S
C768 C769 1.404 . S
C768 C771 1.539 1_655 S
C769 C765 1.408 . S
C769 C768 1.404 . S
C769 H781 0.930 . S
C770 C766 1.524 . S
C770 H782 0.956 . S
C770 H783 0.961 . S
C770 H784 0.961 . S
C771 C768 1.539 1_455 S
C771 H785 0.958 . S
C771 H786 0.961 . S
C771 H787 0.960 . S
H772 C756 0.931 . S
H773 C761 0.929 . S
H774 C762 0.960 . S
H775 C762 0.962 1_655 S
H776 C762 0.960 . S
H777 C763 0.961 . S
H778 C763 0.961 . S
H779 C763 0.961 . S
H780 C764 0.931 . S
H781 C769 0.930 . S
H782 C770 0.956 . S
H783 C770 0.961 . S
H784 C770 0.961 . S
H785 C771 0.958 . S
H786 C771 0.961 . S
H787 C771 0.960 . S
C788 C789 1.391 . S
C788 C790 1.394 . S
C788 H804 0.931 . S
C789 C788 1.391 . S
C789 C793 1.376 . S
C790 C788 1.394 . S
C790 C791 1.369 . S
C790 C794 1.531 . S
C791 C790 1.369 . S
C791 C792 1.410 . S
C791 C799 1.503 1_545 S
C792 C791 1.410 . S
C792 C793 1.392 . S
C792 C795 1.511 1_545 S
C793 C789 1.376 . S
C793 C792 1.392 . S
C793 H805 0.929 . S
C794 C790 1.531 . S
C794 H806 0.960 . S
C794 H807 0.962 . S
C794 H808 0.960 . S
C795 C792 1.511 1_565 S
C795 H809 0.961 . S
C795 H810 0.961 . S
C795 H811 0.961 . S
C796 C797 1.370 . S
C796 C798 1.363 . S
C796 H812 0.931 . S
C797 C796 1.370 . S
C797 C801 1.408 . S
C798 C796 1.363 . S
C798 C799 1.370 . S
C798 C802 1.524 1_565 S
C799 C791 1.503 1_565 S
C799 C798 1.370 . S
C799 C800 1.403 . S
C800 C799 1.403 . S
C800 C801 1.404 . S
C800 C803 1.539 . S
C801 C797 1.408 . S
C801 C800 1.404 . S
C801 H813 0.930 . S
C802 C798 1.524 1_545 S
C802 H814 0.956 . S
C802 H815 0.961 . S
C802 H816 0.961 . S
C803 C800 1.539 . S
C803 H817 0.958 . S
C803 H818 0.961 . S
C803 H819 0.960 . S
H804 C788 0.931 . S
H805 C793 0.929 . S
H806 C794 0.960 . S
H807 C794 0.962 . S
H808 C794 0.960 . S
H809 C795 0.961 . S
H810 C795 0.961 . S
H811 C795 0.961 . S
H812 C796 0.931 . S
H813 C801 0.930 . S
H814 C802 0.956 . S
H815 C802 0.961 . S
H816 C802 0.961 . S
H817 C803 0.958 . S
H818 C803 0.961 . S
H819 C803 0.960 . S
C820 C821 1.391 . S
C820 C822 1.394 . S
C820 H836 0.931 . S
C821 C820 1.391 . S
C821 C825 1.376 1_556 S
C822 C820 1.394 . S
C822 C823 1.369 . S
C822 C826 1.531 . S
C823 C822 1.369 . S
C823 C824 1.410 1_556 S
C823 C831 1.503 . S
C824 C823 1.410 1_554 S
C824 C825 1.392 . S
C824 C827 1.511 . S
C825 C821 1.376 1_554 S
C825 C824 1.392 . S
C825 H837 0.929 . S
C826 C822 1.531 . S
C826 H838 0.960 . S
C826 H839 0.962 . S
C826 H840 0.960 . S
C827 C824 1.511 . S
C827 H841 0.961 . S
C827 H842 0.961 . S
C827 H843 0.961 . S
C828 C829 1.367 1_554 S
C828 C830 1.363 . S
C828 H844 0.931 . S
C829 C828 1.367 1_556 S
C829 C833 1.412 . S
C830 C828 1.363 . S
C830 C831 1.370 1_554 S
C830 C834 1.524 . S
C831 C823 1.503 . S
C831 C830 1.370 1_556 S
C831 C832 1.403 . S
C832 C831 1.403 . S
C832 C833 1.404 . S
C832 C835 1.539 . S
C833 C829 1.412 . S
C833 C832 1.404 . S
C833 H845 0.930 . S
C834 C830 1.524 . S
C834 H846 0.956 . S
C834 H847 0.961 . S
C834 H848 0.961 . S
C835 C832 1.539 . S
C835 H849 0.958 . S
C835 H850 0.961 . S
C835 H851 0.960 . S
H836 C820 0.931 . S
H837 C825 0.929 . S
H838 C826 0.960 . S
H839 C826 0.962 . S
H840 C826 0.960 . S
H841 C827 0.961 . S
H842 C827 0.961 . S
H843 C827 0.961 . S
H844 C828 0.931 . S
H845 C833 0.930 . S
H846 C834 0.956 . S
H847 C834 0.961 . S
H848 C834 0.961 . S
H849 C835 0.958 . S
H850 C835 0.961 . S
H851 C835 0.960 . S
C852 C853 1.391 . S
C852 C854 1.394 . S
C852 H868 0.931 . S
C853 C852 1.391 . S
C853 C857 1.376 . S
C854 C852 1.394 . S
C854 C855 1.369 . S
C854 C858 1.531 . S
C855 C854 1.369 . S
C855 C856 1.410 . S
C855 C863 1.503 . S
C856 C855 1.410 . S
C856 C857 1.392 . S
C856 C859 1.511 . S
C857 C853 1.376 . S
C857 C856 1.392 . S
C857 H869 0.929 . S
C858 C854 1.531 . S
C858 H870 0.960 . S
C858 H871 0.962 . S
C858 H872 0.960 . S
C859 C856 1.511 . S
C859 H873 0.961 . S
C859 H874 0.961 . S
C859 H875 0.961 . S
C860 C861 1.370 . S
C860 C862 1.363 . S
C860 H876 0.931 . S
C861 C860 1.370 . S
C861 C865 1.408 . S
C862 C860 1.363 . S
C862 C863 1.370 . S
C862 C866 1.524 . S
C863 C855 1.503 . S
C863 C862 1.370 . S
C863 C864 1.403 . S
C864 C863 1.403 . S
C864 C865 1.404 . S
C864 C867 1.539 . S
C865 C861 1.408 . S
C865 C864 1.404 . S
C865 H877 0.930 . S
C866 C862 1.524 . S
C866 H878 0.956 . S
C866 H879 0.961 . S
C866 H880 0.961 . S
C867 C864 1.539 . S
C867 H881 0.958 . S
C867 H882 0.961 . S
C867 H883 0.960 . S
H868 C852 0.931 . S
H869 C857 0.929 . S
H870 C858 0.960 . S
H871 C858 0.962 . S
H872 C858 0.960 . S
H873 C859 0.961 . S
H874 C859 0.961 . S
H875 C859 0.961 . S
H876 C860 0.931 . S
H877 C865 0.930 . S
H878 C866 0.956 . S
H879 C866 0.961 . S
H880 C866 0.961 . S
H881 C867 0.958 . S
H882 C867 0.961 . S
H883 C867 0.960 . S
C884 C885 1.391 . S
C884 C886 1.394 . S
C884 H900 0.931 . S
C885 C884 1.391 . S
C885 C889 1.376 . S
C886 C884 1.394 . S
C886 C887 1.369 . S
C886 C890 1.531 . S
C887 C886 1.369 . S
C887 C888 1.410 . S
C887 C895 1.503 . S
C888 C887 1.410 . S
C888 C889 1.392 . S
C888 C891 1.511 . S
C889 C885 1.376 . S
C889 C888 1.392 . S
C889 H901 0.929 . S
C890 C886 1.531 . S
C890 H902 0.960 . S
C890 H903 0.962 . S
C890 H904 0.960 . S
C891 C888 1.511 . S
C891 H905 0.961 . S
C891 H906 0.961 . S
C891 H907 0.961 . S
C892 C893 1.370 . S
C892 C894 1.363 . S
C892 H908 0.931 . S
C893 C892 1.370 . S
C893 C897 1.408 . S
C894 C892 1.363 . S
C894 C895 1.370 . S
C894 C898 1.524 . S
C895 C887 1.503 . S
C895 C894 1.370 . S
C895 C896 1.403 . S
C896 C895 1.403 . S
C896 C897 1.404 . S
C896 C899 1.539 . S
C897 C893 1.408 . S
C897 C896 1.404 . S
C897 H909 0.930 . S
C898 C894 1.524 . S
C898 H910 0.956 . S
C898 H911 0.961 . S
C898 H912 0.961 . S
C899 C896 1.539 . S
C899 H913 0.958 . S
C899 H914 0.961 . S
C899 H915 0.960 . S
H900 C884 0.931 . S
H901 C889 0.929 . S
H902 C890 0.960 . S
H903 C890 0.962 . S
H904 C890 0.960 . S
H905 C891 0.961 . S
H906 C891 0.961 . S
H907 C891 0.961 . S
H908 C892 0.931 . S
H909 C897 0.930 . S
H910 C898 0.956 . S
H911 C898 0.961 . S
H912 C898 0.961 . S
H913 C899 0.958 . S
H914 C899 0.961 . S
H915 C899 0.960 . S
C916 C917 1.391 . S
C916 C918 1.394 . S
C916 H932 0.931 . S
C917 C916 1.391 . S
C917 C921 1.376 . S
C918 C916 1.394 . S
C918 C919 1.369 . S
C918 C922 1.531 . S
C919 C918 1.369 . S
C919 C920 1.410 . S
C919 C927 1.503 . S
C920 C919 1.410 . S
C920 C921 1.392 . S
C920 C923 1.511 . S
C921 C917 1.376 . S
C921 C920 1.392 . S
C921 H933 0.929 . S
C922 C918 1.531 . S
C922 H934 0.960 . S
C922 H935 0.962 . S
C922 H936 0.960 . S
C923 C920 1.511 . S
C923 H937 0.961 . S
C923 H938 0.961 . S
C923 H939 0.961 . S
C924 C925 1.370 . S
C924 C926 1.363 . S
C924 H940 0.931 . S
C925 C924 1.370 . S
C925 C929 1.408 . S
C926 C924 1.363 . S
C926 C927 1.370 . S
C926 C930 1.524 . S
C927 C919 1.503 . S
C927 C926 1.370 . S
C927 C928 1.403 . S
C928 C927 1.403 . S
C928 C929 1.404 . S
C928 C931 1.539 . S
C929 C925 1.408 . S
C929 C928 1.404 . S
C929 H941 0.930 . S
C930 C926 1.524 . S
C930 H942 0.956 . S
C930 H943 0.961 . S
C930 H944 0.961 . S
C931 C928 1.539 . S
C931 H945 0.958 . S
C931 H946 0.961 . S
C931 H947 0.960 . S
H932 C916 0.931 . S
H933 C921 0.929 . S
H934 C922 0.960 . S
H935 C922 0.962 . S
H936 C922 0.960 . S
H937 C923 0.961 . S
H938 C923 0.961 . S
H939 C923 0.961 . S
H940 C924 0.931 . S
H941 C929 0.930 . S
H942 C930 0.956 . S
H943 C930 0.961 . S
H944 C930 0.961 . S
H945 C931 0.958 . S
H946 C931 0.961 . S
H947 C931 0.960 . S
C948 C949 1.391 . S
C948 C950 1.394 . S
C948 H964 0.931 . S
C949 C948 1.391 . S
C949 C953 1.376 . S
C950 C948 1.394 . S
C950 C951 1.369 . S
C950 C954 1.531 . S
C951 C950 1.369 . S
C951 C952 1.410 . S
C951 C959 1.503 . S
C952 C951 1.410 . S
C952 C953 1.392 . S
C952 C955 1.511 . S
C953 C949 1.376 . S
C953 C952 1.392 . S
C953 H965 0.929 . S
C954 C950 1.531 . S
C954 H966 0.960 . S
C954 H967 0.962 . S
C954 H968 0.960 . S
C955 C952 1.511 . S
C955 H969 0.961 . S
C955 H970 0.961 . S
C955 H971 0.961 . S
C956 C957 1.370 . S
C956 C958 1.363 . S
C956 H972 0.931 . S
C957 C956 1.370 . S
C957 C961 1.408 . S
C958 C956 1.363 . S
C958 C959 1.370 . S
C958 C962 1.524 . S
C959 C951 1.503 . S
C959 C958 1.370 . S
C959 C960 1.403 . S
C960 C959 1.403 . S
C960 C961 1.404 . S
C960 C963 1.539 . S
C961 C957 1.408 . S
C961 C960 1.404 . S
C961 H973 0.930 . S
C962 C958 1.524 . S
C962 H974 0.956 . S
C962 H975 0.961 . S
C962 H976 0.961 . S
C963 C960 1.539 . S
C963 H977 0.958 . S
C963 H978 0.961 . S
C963 H979 0.960 . S
H964 C948 0.931 . S
H965 C953 0.929 . S
H966 C954 0.960 . S
H967 C954 0.962 . S
H968 C954 0.960 . S
H969 C955 0.961 . S
H970 C955 0.961 . S
H971 C955 0.961 . S
H972 C956 0.931 . S
H973 C961 0.930 . S
H974 C962 0.956 . S
H975 C962 0.961 . S
H976 C962 0.961 . S
H977 C963 0.958 . S
H978 C963 0.961 . S
H979 C963 0.960 . S
C980 C981 1.391 . S
C980 C982 1.394 . S
C980 H996 0.931 . S
C981 C980 1.391 . S
C981 C985 1.376 . S
C982 C980 1.394 . S
C982 C983 1.369 . S
C982 C986 1.531 . S
C983 C982 1.369 . S
C983 C984 1.410 . S
C983 C991 1.503 . S
C984 C983 1.410 . S
C984 C985 1.392 . S
C984 C987 1.511 . S
C985 C981 1.376 . S
C985 C984 1.392 . S
C985 H997 0.929 . S
C986 C982 1.531 . S
C986 H998 0.960 . S
C986 H999 0.962 . S
C986 H1000 0.960 . S
C987 C984 1.511 . S
C987 H1001 0.961 . S
C987 H1002 0.961 . S
C987 H1003 0.961 . S
C988 C989 1.370 . S
C988 C990 1.363 . S
C988 H1004 0.931 . S
C989 C988 1.370 . S
C989 C993 1.408 . S
C990 C988 1.363 . S
C990 C991 1.370 . S
C990 C994 1.524 . S
C991 C983 1.503 . S
C991 C990 1.370 . S
C991 C992 1.403 . S
C992 C991 1.403 . S
C992 C993 1.404 . S
C992 C995 1.539 . S
C993 C989 1.408 . S
C993 C992 1.404 . S
C993 H1005 0.930 . S
C994 C990 1.524 . S
C994 H1006 0.956 . S
C994 H1007 0.961 . S
C994 H1008 0.961 . S
C995 C992 1.539 . S
C995 H1009 0.958 . S
C995 H1010 0.961 . S
C995 H1011 0.960 . S
H996 C980 0.931 . S
H997 C985 0.929 . S
H998 C986 0.960 . S
H999 C986 0.962 . S
H1000 C986 0.960 . S
H1001 C987 0.961 . S
H1002 C987 0.961 . S
H1003 C987 0.961 . S
H1004 C988 0.931 . S
H1005 C993 0.930 . S
H1006 C994 0.956 . S
H1007 C994 0.961 . S
H1008 C994 0.961 . S
H1009 C995 0.958 . S
H1010 C995 0.961 . S
H1011 C995 0.960 . S
C1012 C1013 1.391 . S
C1012 C1014 1.394 . S
C1012 H1028 0.931 . S
C1013 C1012 1.391 . S
C1013 C1017 1.376 . S
C1014 C1012 1.394 . S
C1014 C1015 1.369 . S
C1014 C1018 1.531 . S
C1015 C1014 1.369 . S
C1015 C1016 1.410 . S
C1015 C1023 1.503 . S
C1016 C1015 1.410 . S
C1016 C1017 1.392 . S
C1016 C1019 1.511 . S
C1017 C1013 1.376 . S
C1017 C1016 1.392 . S
C1017 H1029 0.929 . S
C1018 C1014 1.531 . S
C1018 H1030 0.960 . S
C1018 H1031 0.962 . S
C1018 H1032 0.960 . S
C1019 C1016 1.511 . S
C1019 H1033 0.961 . S
C1019 H1034 0.961 . S
C1019 H1035 0.961 . S
C1020 C1021 1.370 . S
C1020 C1022 1.363 . S
C1020 H1036 0.931 . S
C1021 C1020 1.370 . S
C1021 C1025 1.408 . S
C1022 C1020 1.363 . S
C1022 C1023 1.370 . S
C1022 C1026 1.524 . S
C1023 C1015 1.503 . S
C1023 C1022 1.370 . S
C1023 C1024 1.403 . S
C1024 C1023 1.403 . S
C1024 C1025 1.404 . S
C1024 C1027 1.539 . S
C1025 C1021 1.408 . S
C1025 C1024 1.404 . S
C1025 H1037 0.930 . S
C1026 C1022 1.524 . S
C1026 H1038 0.956 . S
C1026 H1039 0.961 . S
C1026 H1040 0.961 . S
C1027 C1024 1.539 . S
C1027 H1041 0.958 . S
C1027 H1042 0.961 . S
C1027 H1043 0.960 . S
H1028 C1012 0.931 . S
H1029 C1017 0.929 . S
H1030 C1018 0.960 . S
H1031 C1018 0.962 . S
H1032 C1018 0.960 . S
H1033 C1019 0.961 . S
H1034 C1019 0.961 . S
H1035 C1019 0.961 . S
H1036 C1020 0.931 . S
H1037 C1025 0.930 . S
H1038 C1026 0.956 . S
H1039 C1026 0.961 . S
H1040 C1026 0.961 . S
H1041 C1027 0.958 . S
H1042 C1027 0.961 . S
H1043 C1027 0.960 . S
C277 C7 1.735 . S
C285 C237 1.756 . S
C309 C30 1.353 . S
C317 N255 1.303 . S
C341 C145 1.397 . S
C349 N48 1.339 . S
C373 C76 1.742 . S
C381 C168 1.753 . S
C405 N186 1.315 . S
C413 C99 1.383 . S
C437 C214 1.395 . S
C445 N117 1.331 . S
C469 N140 1.002 . S
C477 N2 0.981 . S
C501 N163 0.981 . S
C509 N25 0.946 . S
C533 C191 1.500 . S
C541 C53 1.517 . S
C565 N71 1.001 . S
C573 N209 0.956 . S
C597 N94 1.008 . S
C605 N232 0.995 . S
C629 C122 1.552 . S
C637 C260 1.539 . S
C661 N12 2.459 . S
C669 N81 2.463 . S
C693 N35 2.213 . S
C701 N104 2.249 . S
C725 C62 2.481 . S
C733 C131 2.495 . S
C757 N219 2.213 . S
C765 N150 2.249 . S
C789 N242 2.485 . S
C797 N173 2.465 . S
C821 C269 2.514 1_556 S
C829 C200 2.486 1_556 S
C853 C16 2.213 . S
C861 N196 2.234 . S
C885 C223 1.945 . S
C893 C39 1.946 . S
C917 N58 2.223 . S
C925 C246 2.215 . S
C949 N265 2.234 . S
C957 C85 2.226 . S
C981 C108 1.934 . S
C989 C154 1.949 . S
C1013 N127 2.234 . S
C1021 C177 2.223 . S
