# Generated by pormake.
# Topology wje, (4)-cn, num edge types: 1
# Building blocks:
#     Node 0, Type 0, BuildingBlock: QUQFOY_clean_sbu_3, # of connection points: 4
#     Node 1, Type 0, BuildingBlock: QUQFOY_clean_sbu_3, # of connection points: 4
#     Node 2, Type 0, BuildingBlock: QUQFOY_clean_sbu_3, # of connection points: 4
#     Node 3, Type 0, BuildingBlock: QUQFOY_clean_sbu_3, # of connection points: 4
#     Node 4, Type 0, BuildingBlock: QUQFOY_clean_sbu_3, # of connection points: 4
#     Node 5, Type 0, BuildingBlock: QUQFOY_clean_sbu_3, # of connection points: 4
#     Node 6, Type 0, BuildingBlock: QUQFOY_clean_sbu_3, # of connection points: 4
#     Node 7, Type 0, BuildingBlock: QUQFOY_clean_sbu_3, # of connection points: 4
#     Node 8, Type 0, BuildingBlock: QUQFOY_clean_sbu_3, # of connection points: 4
#     Node 9, Type 0, BuildingBlock: QUQFOY_clean_sbu_3, # of connection points: 4
#     Node 10, Type 0, BuildingBlock: QUQFOY_clean_sbu_3, # of connection points: 4
#     Node 11, Type 0, BuildingBlock: QUQFOY_clean_sbu_3, # of connection points: 4
#     Edge 12, Type (0, 0), BuildingBlock: CIFDUS_clean_linker_0, # of connection points: 2
#     Edge 13, Type (0, 0), BuildingBlock: CIFDUS_clean_linker_0, # of connection points: 2
#     Edge 14, Type (0, 0), BuildingBlock: CIFDUS_clean_linker_0, # of connection points: 2
#     Edge 15, Type (0, 0), BuildingBlock: CIFDUS_clean_linker_0, # of connection points: 2
#     Edge 16, Type (0, 0), BuildingBlock: CIFDUS_clean_linker_0, # of connection points: 2
#     Edge 17, Type (0, 0), BuildingBlock: CIFDUS_clean_linker_0, # of connection points: 2
#     Edge 18, Type (0, 0), BuildingBlock: CIFDUS_clean_linker_0, # of connection points: 2
#     Edge 19, Type (0, 0), BuildingBlock: CIFDUS_clean_linker_0, # of connection points: 2
#     Edge 20, Type (0, 0), BuildingBlock: CIFDUS_clean_linker_0, # of connection points: 2
#     Edge 21, Type (0, 0), BuildingBlock: CIFDUS_clean_linker_0, # of connection points: 2
#     Edge 22, Type (0, 0), BuildingBlock: CIFDUS_clean_linker_0, # of connection points: 2
#     Edge 23, Type (0, 0), BuildingBlock: CIFDUS_clean_linker_0, # of connection points: 2
#     Edge 24, Type (0, 0), BuildingBlock: CIFDUS_clean_linker_0, # of connection points: 2
#     Edge 25, Type (0, 0), BuildingBlock: CIFDUS_clean_linker_0, # of connection points: 2
#     Edge 26, Type (0, 0), BuildingBlock: CIFDUS_clean_linker_0, # of connection points: 2
#     Edge 27, Type (0, 0), BuildingBlock: CIFDUS_clean_linker_0, # of connection points: 2
#     Edge 28, Type (0, 0), BuildingBlock: CIFDUS_clean_linker_0, # of connection points: 2
#     Edge 29, Type (0, 0), BuildingBlock: CIFDUS_clean_linker_0, # of connection points: 2
#     Edge 30, Type (0, 0), BuildingBlock: CIFDUS_clean_linker_0, # of connection points: 2
#     Edge 31, Type (0, 0), BuildingBlock: CIFDUS_clean_linker_0, # of connection points: 2
#     Edge 32, Type (0, 0), BuildingBlock: CIFDUS_clean_linker_0, # of connection points: 2
#     Edge 33, Type (0, 0), BuildingBlock: CIFDUS_clean_linker_0, # of connection points: 2
#     Edge 34, Type (0, 0), BuildingBlock: CIFDUS_clean_linker_0, # of connection points: 2
#     Edge 35, Type (0, 0), BuildingBlock: CIFDUS_clean_linker_0, # of connection points: 2
# Relax obj value: 0.144
# Max RMSD: 0.092
# Mean RMSD: 0.092
data_MOF--net-wje--node1-QUQFOY_clean_sbu_3--edge1-CIFDUS_clean_linker_0
_symmetry_space_group_name_H-M    P1
_symmetry_Int_Tables_number       1
_symmetry_cell_setting            triclinic
loop_
_symmetry_equiv_pos_as_xyz
'x, y, z'
_cell_length_a     37.042208
_cell_length_b     37.001576
_cell_length_c     35.070138
_cell_angle_alpha  90.00101
_cell_angle_beta   90.053628
_cell_angle_gamma 119.8551
loop_
_atom_site_label
_atom_site_type_symbol
_atom_site_fract_x
_atom_site_fract_y
_atom_site_fract_z
_atom_type_partial_charge
C0 C 0.21482 0.92527 0.2843 0.0
O1 O 0.22972 0.90336 0.27145 0.0
Cd2 Cd 0.29987 0.92386 0.28741 0.0
O3 O 0.23856 0.96299 0.29421 0.0
Cd4 Cd 0.31232 0.01807 0.28624 0.0
C5 C 0.30567 0.97608 0.37312 0.0
O6 O 0.34106 -0.01684 0.25073 0.0
O7 O 0.38599 0.03709 0.28227 0.0
O8 O 0.2945 0.04229 0.22946 0.0
C9 C 0.37864 0.00684 0.26034 0.0
O10 O 0.30187 0.94505 0.35397 0.0
C11 C 0.3071 0.07919 0.24099 0.0
O12 O 0.31113 0.0092 0.35644 0.0
O13 O 0.32123 0.08798 0.27496 0.0
C14 C 0.29036 0.23341 0.61667 0.0
O15 O 0.32926 0.25236 0.61036 0.0
Cd16 Cd 0.37281 0.3229 0.62944 0.0
O17 O 0.27152 0.25317 0.62524 0.0
Cd18 Cd 0.28455 0.3257 0.62466 0.0
C19 C 0.31864 0.31934 0.71288 0.0
O20 O 0.3503 0.36091 0.59297 0.0
O21 O 0.33412 0.40101 0.62431 0.0
O22 O 0.24486 0.31016 0.5666 0.0
C23 C 0.3603 0.39739 0.60369 0.0
O24 O 0.34907 0.32011 0.69512 0.0
C25 C 0.21831 0.31959 0.57867 0.0
O26 O 0.28961 0.32136 0.6949 0.0
O27 O 0.22132 0.33075 0.61348 0.0
C28 C 0.00811 0.27261 0.96517 0.0
O29 O 0.02797 0.30972 0.95279 0.0
Cd30 Cd -0.00107 0.35306 0.96632 0.0
O31 O 0.96933 0.25528 0.9722 0.0
Cd32 Cd 0.9107 0.26752 0.95731 0.0
C33 C 0.94106 0.29994 0.04737 0.0
O34 O 0.94304 0.33285 0.92407 0.0
O35 O 0.88508 0.31722 0.95197 0.0
O36 O 0.8967 0.22809 0.89903 0.0
C37 C 0.91575 0.34285 0.93189 0.0
O38 O -0.02743 0.32975 0.03103 0.0
C39 C 0.85927 0.20124 0.90674 0.0
O40 O 0.91118 0.27153 0.02787 0.0
O41 O 0.84551 0.20388 0.93937 0.0
C42 C 0.74228 0.06111 0.26506 0.0
O43 O 0.72684 0.08309 0.25373 0.0
Cd44 Cd 0.65743 0.06335 0.27216 0.0
O45 O 0.71898 0.02362 0.27579 0.0
Cd46 Cd 0.64482 0.96888 0.27206 0.0
C47 C 0.65326 0.01345 0.35839 0.0
O48 O 0.61399 0.00266 0.23753 0.0
O49 O 0.57117 0.94915 0.27066 0.0
O50 O 0.65795 0.93869 0.21663 0.0
C51 C 0.57704 0.97904 0.24891 0.0
O52 O 0.65692 0.04455 0.33945 0.0
C53 C 0.64668 0.90329 0.23135 0.0
O54 O 0.64765 -0.01966 0.34161 0.0
O55 O 0.63512 0.89819 0.26612 0.0
C56 C 0.66148 0.71868 0.63023 0.0
O57 O 0.62211 0.69596 0.63004 0.0
Cd58 Cd 0.5846 0.62392 0.64365 0.0
O59 O 0.68532 0.70303 0.63158 0.0
Cd60 Cd 0.67773 0.63217 0.62596 0.0
C61 C 0.64899 0.62739 0.7187 0.0
O62 O 0.61036 0.59673 0.59813 0.0
O63 O 0.63064 0.55566 0.6205 0.0
O64 O 0.71251 0.65242 0.5651 0.0
C65 C 0.60249 0.55979 0.60379 0.0
O66 O 0.61559 0.6242 0.70509 0.0
C67 C 0.7413 0.64451 0.57299 0.0
O68 O 0.67803 0.63044 0.69684 0.0
O69 O 0.74209 0.63235 0.60685 0.0
C70 C 0.90129 0.6586 0.92501 0.0
O71 O 0.88125 0.62057 0.9151 0.0
Cd72 Cd 0.90609 0.57555 0.9369 0.0
O73 O 0.93897 0.67516 0.93597 0.0
Cd74 Cd -0.00265 0.66087 0.93624 0.0
C75 C 0.9518 0.62752 0.02257 0.0
O76 O 0.96857 0.59474 0.90447 0.0
O77 O 0.02256 0.61105 0.93959 0.0
O78 O 0.02342 0.70134 0.8787 0.0
C79 C -0.00587 0.58466 0.91793 0.0
O80 O 0.9228 0.59782 0.00357 0.0
C81 C 0.05859 0.72806 0.8921 0.0
O82 O -0.01569 0.65601 0.00594 0.0
O83 O 0.0655 0.72432 0.92713 0.0
C84 C 0.01371 0.7288 0.33742 0.0
O85 O 0.03358 0.71369 0.35415 0.0
Cd86 Cd 0.01182 0.64361 0.33599 0.0
O87 O -0.0232 0.70508 0.32556 0.0
Cd88 Cd 0.92103 0.63262 0.33798 0.0
C89 C 0.96007 0.63951 0.25057 0.0
O90 O 0.95324 0.60001 0.37271 0.0
O91 O 0.89936 0.55839 0.33898 0.0
O92 O 0.90494 0.65511 0.39645 0.0
C93 C 0.92837 0.56322 0.36146 0.0
O94 O -0.009 0.64293 0.26957 0.0
C95 C 0.86705 0.64282 0.38887 0.0
O96 O 0.92707 0.63394 0.26746 0.0
O97 O 0.85381 0.62692 0.35594 0.0
C98 C 0.28529 0.04174 0.69849 0.0
O99 O 0.32386 0.06049 0.70634 0.0
Cd100 Cd 0.36672 0.03284 0.68659 0.0
O101 O 0.26618 0.00362 0.68842 0.0
Cd102 Cd 0.27754 0.94299 0.68799 0.0
C103 C 0.31421 -0.01362 0.60123 0.0
O104 O 0.34241 0.97094 0.72117 0.0
O105 O 0.32587 0.91559 0.68821 0.0
O106 O 0.2357 0.91714 0.74475 0.0
C107 C 0.35194 0.94428 0.70984 0.0
O108 O 0.34441 0.01497 0.6201 0.0
C109 C 0.20917 0.88197 0.73119 0.0
O110 O 0.28452 0.95493 0.61806 0.0
O111 O 0.21329 0.87518 0.69624 0.0
C112 C 0.21043 0.28298 0.02653 0.0
O113 O 0.22406 0.3194 0.03982 0.0
Cd114 Cd 0.29426 0.36981 0.02493 0.0
O115 O 0.23529 0.27 0.01751 0.0
Cd116 Cd 0.30925 0.2905 0.02824 0.0
C117 C 0.30383 0.32416 0.9404 0.0
O118 O 0.33673 0.35459 0.06339 0.0
O119 O 0.38215 0.34606 0.03203 0.0
O120 O 0.29192 0.24878 0.08528 0.0
C121 C 0.37439 0.36883 0.05375 0.0
O122 O 0.29867 0.35102 0.95874 0.0
C123 C 0.30558 0.2252 0.07406 0.0
O124 O 0.30967 0.29718 0.95795 0.0
O125 O 0.32008 0.23083 0.04025 0.0
C126 C 0.92049 0.23954 0.36699 0.0
O127 O 0.90007 0.25797 0.37391 0.0
Cd128 Cd 0.92685 0.32819 0.35343 0.0
O129 O 0.9591 0.26003 0.359 0.0
Cd130 Cd 0.01774 0.33259 0.3624 0.0
C131 C -0.01923 0.32509 0.2724 0.0
O132 O -0.01432 0.36796 0.39154 0.0
O133 O 0.043 0.40791 0.36183 0.0
O134 O 0.04015 0.31658 0.42154 0.0
C135 C 0.01224 0.40437 0.38083 0.0
O136 O 0.94986 0.32508 0.28844 0.0
C137 C 0.07614 0.32541 0.41011 0.0
O138 O 0.01132 0.32815 0.29204 0.0
O139 O 0.08517 0.33693 0.37549 0.0
C140 C 0.64256 0.91372 0.66217 0.0
O141 O 0.60355 0.89802 0.66656 0.0
Cd142 Cd 0.56774 0.93576 0.66341 0.0
O143 O 0.66721 0.95301 0.66291 0.0
Cd144 Cd 0.66449 0.01802 0.67596 0.0
C145 C 0.62865 -0.00713 0.58514 0.0
O146 O 0.59988 -0.01136 0.70851 0.0
O147 O 0.61969 0.04954 0.68541 0.0
O148 O 0.7045 0.03082 0.73386 0.0
C149 C 0.59262 0.01833 0.70402 0.0
O150 O 0.59553 0.9648 0.601 0.0
C151 C 0.73239 0.06774 0.72565 0.0
O152 O 0.66011 0.01854 0.60498 0.0
O153 O 0.73056 0.08121 0.69264 0.0
C154 C 0.73319 0.67459 0.03133 0.0
O155 O 0.71694 0.63635 0.04002 0.0
Cd156 Cd 0.64573 0.58981 0.02597 0.0
O157 O 0.7107 0.69113 0.02523 0.0
Cd158 Cd 0.63737 0.67397 0.03526 0.0
C159 C 0.63743 0.64097 0.94522 0.0
O160 O 0.60894 0.60882 0.06822 0.0
O161 O 0.56346 0.6204 0.04108 0.0
O162 O 0.65458 0.71799 0.09124 0.0
C163 C 0.57107 0.59602 0.06055 0.0
O164 O 0.64112 0.6118 0.96081 0.0
C165 C 0.64233 0.74192 0.07776 0.0
O166 O 0.63432 0.66811 0.96531 0.0
O167 O 0.62844 0.73493 0.04372 0.0
H168 H 0.30625 0.07766 0.1639 0.0
H169 H 0.30726 0.15102 0.25993 0.0
H170 H 0.30559 0.20202 0.21646 0.0
H171 H 0.304 0.2256 0.1512 0.0
H172 H 0.30802 0.15473 0.05525 0.0
H173 H 0.30759 0.1027 0.09872 0.0
C174 C 0.30594 0.10475 0.17533 0.0
C175 C 0.30648 0.11043 0.21508 0.0
C176 C 0.30593 0.13428 0.15019 0.0
C177 C 0.30679 0.14598 0.22947 0.0
C178 C 0.30578 0.17506 0.20463 0.0
C179 C 0.30461 0.19866 0.1398 0.0
C180 C 0.30564 0.19375 0.10006 0.0
C181 C 0.30532 0.16949 0.16496 0.0
C182 C 0.30715 0.15912 0.0857 0.0
C183 C 0.30686 0.12939 0.11054 0.0
H184 H 0.21947 0.3186 0.50155 0.0
H185 H 0.14686 0.32049 0.59687 0.0
H186 H 0.09577 0.32111 0.55286 0.0
H187 H 0.07251 0.32216 0.48736 0.0
H188 H 0.14738 0.32427 0.39224 0.0
H189 H 0.19701 0.32105 0.43624 0.0
C190 C 0.19233 0.3189 0.51275 0.0
C191 C 0.18678 0.31921 0.55245 0.0
C192 C 0.16366 0.32009 0.48732 0.0
C193 C 0.15179 0.32019 0.56646 0.0
C194 C 0.12261 0.32054 0.54131 0.0
C195 C 0.0996 0.32173 0.47623 0.0
C196 C 0.10616 0.32322 0.43655 0.0
C197 C 0.12832 0.32063 0.5017 0.0
C198 C 0.14165 0.32316 0.42262 0.0
C199 C 0.16998 0.32127 0.44776 0.0
H200 H 0.72516 0.05828 0.80227 0.0
H201 H 0.8075 0.13841 0.71437 0.0
H202 H 0.85534 0.1853 0.76308 0.0
H203 H 0.87191 0.20506 0.83045 0.0
H204 H 0.7866 0.12795 0.91808 0.0
H205 H 0.74161 0.07815 0.86961 0.0
C206 C 0.75384 0.08575 0.79375 0.0
C207 C 0.76299 0.09472 0.75474 0.0
C208 C 0.78042 0.11316 0.82186 0.0
C209 C 0.79985 0.1308 0.74418 0.0
C210 C 0.82713 0.15761 0.77202 0.0
C211 C 0.84365 0.17716 0.83899 0.0
C212 C 0.83268 0.17006 0.87786 0.0
C213 C 0.81747 0.14934 0.81092 0.0
C214 C 0.79569 0.1341 0.8884 0.0
C215 C 0.77001 0.10565 0.86069 0.0
H216 H 0.64571 0.74821 0.15488 0.0
H217 H 0.64088 0.81109 0.05303 0.0
H218 H 0.64286 0.86703 0.09177 0.0
H219 H 0.6457 0.8978 0.15443 0.0
H220 H 0.64609 0.833 0.25656 0.0
H221 H 0.64604 0.77787 0.21783 0.0
C222 C 0.64526 0.77426 0.14118 0.0
C223 C 0.64347 0.77572 0.10114 0.0
C224 C 0.64553 0.80582 0.16366 0.0
C225 C 0.64227 0.8093 0.08378 0.0
C226 C 0.64345 0.84128 0.10591 0.0
C227 C 0.64592 0.87167 0.16824 0.0
C228 C 0.64623 0.86959 0.2083 0.0
C229 C 0.64507 0.83983 0.14584 0.0
C230 C 0.64588 0.83528 0.22578 0.0
C231 C 0.64591 0.80383 0.20365 0.0
H232 H 0.88054 0.65089 0.46496 0.0
H233 H 0.79164 0.63867 0.37908 0.0
H234 H 0.74598 0.64041 0.4287 0.0
H235 H 0.73073 0.64353 0.4965 0.0
H236 H 0.81745 0.6506 0.58245 0.0
H237 H 0.86483 0.65287 0.53264 0.0
C238 C 0.8513 0.64892 0.45703 0.0
C239 C 0.83959 0.64497 0.41834 0.0
C240 C 0.82489 0.64892 0.48571 0.0
C241 C 0.80134 0.64179 0.40862 0.0
C242 C 0.77529 0.64279 0.43698 0.0
C243 C 0.76016 0.64589 0.50435 0.0
C244 C 0.77076 0.6472 0.54313 0.0
C245 C 0.78666 0.64611 0.47561 0.0
C246 C 0.80865 0.6496 0.55284 0.0
C247 C 0.8357 0.65089 0.52437 0.0
H248 H 0.20681 0.88096 0.80839 0.0
H249 H 0.13826 0.81113 0.70941 0.0
H250 H 0.08503 0.75802 0.75073 0.0
H251 H 0.05873 0.73109 0.81486 0.0
H252 H 0.12928 0.79911 0.91375 0.0
H253 H 0.18117 0.85344 0.87246 0.0
C254 C 0.18009 0.85424 0.79581 0.0
C255 C 0.17633 0.85011 0.75585 0.0
C256 C 0.15013 0.82353 0.81971 0.0
C257 C 0.14183 0.81504 0.74005 0.0
C258 C 0.11143 0.7847 0.76366 0.0
C259 C 0.08538 0.75789 0.82742 0.0
C260 C 0.09005 0.76118 0.86737 0.0
C261 C 0.11536 0.78858 0.80351 0.0
C262 C 0.12498 0.79585 0.88314 0.0
C263 C 0.1546 0.82692 0.85954 0.0
H264 H 0.46152 0.05849 0.25178 0.0
H265 H 0.36676 0.92871 0.25221 0.0
H266 H 0.41996 0.90835 0.24693 0.0
H267 H 0.49379 0.92755 0.24692 0.0
H268 H 0.58839 0.05721 0.24157 0.0
H269 H 0.535 0.07762 0.24355 0.0
C270 C 0.45266 0.02581 0.25033 0.0
C271 C 0.41053 -0.00487 0.25286 0.0
C272 C 0.48333 0.01435 0.24648 0.0
C273 C 0.39912 0.95286 0.25038 0.0
C274 C 0.42949 0.94119 0.24749 0.0
C275 C 0.50255 0.96022 0.24572 0.0
C276 C 0.54476 -0.00915 0.24456 0.0
C277 C 0.47171 0.97166 0.24622 0.0
C278 C 0.55596 0.03308 0.24249 0.0
C279 C 0.5255 0.04478 0.24382 0.0
H280 H 0.53194 0.56389 0.59827 0.0
H281 H 0.57745 0.47686 0.59965 0.0
H282 H 0.50587 0.41854 0.59597 0.0
H283 H 0.43052 0.39266 0.59624 0.0
H284 H 0.38559 0.48001 0.60173 0.0
H285 H 0.4571 0.53824 0.59867 0.0
C286 C 0.52627 0.53218 0.59747 0.0
C287 C 0.55982 0.52457 0.5992 0.0
C288 C 0.48523 0.49905 0.59672 0.0
C289 C 0.552 0.48336 0.59844 0.0
C290 C 0.51117 0.45011 0.59635 0.0
C291 C 0.43643 0.42446 0.59633 0.0
C292 C 0.40303 0.43224 0.59904 0.0
C293 C 0.47756 0.45762 0.59602 0.0
C294 C 0.41096 0.47346 0.59969 0.0
C295 C 0.45174 0.50665 0.59797 0.0
H296 H 0.91965 0.51393 0.91221 0.0
H297 H 0.05169 0.5596 0.91842 0.0
H298 H 0.03893 0.48802 0.91945 0.0
H299 H -0.00989 0.41289 0.92314 0.0
H300 H 0.85794 0.36743 0.92421 0.0
H301 H 0.8707 0.43855 0.91565 0.0
C302 C 0.94559 0.50811 0.91323 0.0
C303 C -0.01345 0.54176 0.91498 0.0
C304 C 0.93791 0.46701 0.91541 0.0
C305 C 0.01993 0.53401 0.91701 0.0
C306 C 0.01263 0.49319 0.91766 0.0
C307 C 0.96411 0.41854 0.92101 0.0
C308 C 0.92315 0.38512 0.92409 0.0
C309 C -0.02825 0.4595 0.91754 0.0
C310 C 0.88973 0.39281 0.92193 0.0
C311 C 0.89702 0.43338 0.91706 0.0
H312 H 0.00304 0.56947 0.37467 0.0
H313 H 0.87205 0.48032 0.36513 0.0
H314 H 0.88636 0.42305 0.37454 0.0
H315 H 0.93657 0.39852 0.38145 0.0
H316 H 0.06807 0.48738 0.38359 0.0
H317 H 0.05325 0.5449 0.38148 0.0
C318 C -0.02237 0.5375 0.37513 0.0
C319 C 0.93655 0.52892 0.36948 0.0
C320 C -0.01373 0.50486 0.3791 0.0
C321 C 0.9039 0.48747 0.36943 0.0
C322 C 0.91208 0.45483 0.3748 0.0
C323 C 0.96193 0.43049 0.38194 0.0
C324 C 0.00333 0.4389 0.38289 0.0
C325 C 0.9532 0.46316 0.37911 0.0
C326 C 0.03597 0.48035 0.38289 0.0
C327 C 0.02751 0.51314 0.38163 0.0
H328 H 0.52159 0.94491 0.71326 0.0
H329 H 0.56952 0.07767 0.70966 0.0
H330 H 0.49869 0.06628 0.71558 0.0
H331 H 0.42309 0.01826 0.71678 0.0
H332 H 0.37552 0.88562 0.71251 0.0
H333 H 0.44654 0.89717 0.7148 0.0
C334 C 0.51664 0.97142 0.71408 0.0
C335 C 0.55065 0.0121 0.71094 0.0
C336 C 0.47595 0.96454 0.71589 0.0
C337 C 0.54373 0.04609 0.7119 0.0
C338 C 0.50331 0.03957 0.71524 0.0
C339 C 0.42833 -0.00808 0.71683 0.0
C340 C 0.39434 0.95114 0.71461 0.0
C341 C 0.46917 -0.0011 0.71652 0.0
C342 C 0.40138 0.91724 0.71416 0.0
C343 C 0.44188 0.92385 0.71543 0.0
H344 H 0.4576 0.4011 0.06024 0.0
H345 H 0.3614 0.43438 0.06317 0.0
H346 H 0.41398 0.50816 0.06737 0.0
H347 H 0.48754 0.56341 0.06525 0.0
H348 H 0.58357 0.52978 0.06668 0.0
H349 H 0.53093 0.45599 0.06616 0.0
C350 C 0.44828 0.42458 0.06221 0.0
C351 C 0.40591 0.41258 0.06096 0.0
C352 C 0.4786 0.46681 0.06526 0.0
C353 C 0.39395 0.44302 0.06407 0.0
C354 C 0.42397 0.48518 0.0663 0.0
C355 C 0.49681 0.53984 0.06589 0.0
C356 C 0.53923 0.55189 0.06549 0.0
C357 C 0.46639 0.49747 0.06618 0.0
C358 C 0.55103 0.52122 0.06688 0.0
C359 C 0.52098 0.47902 0.06641 0.0
H360 H 0.063 0.79995 0.37618 0.0
H361 H 0.01935 0.75072 0.26364 0.0
H362 H 0.07599 0.81358 0.23506 0.0
H363 H 0.14619 0.87437 0.24323 0.0
H364 H 0.18809 0.92546 0.35553 0.0
H365 H 0.12333 0.87076 0.38323 0.0
C366 C 0.06508 0.80394 0.34545 0.0
C367 C 0.03777 0.77098 0.32193 0.0
C368 C 0.0976 0.84019 0.32927 0.0
C369 C 0.04022 0.77603 0.28216 0.0
C370 C 0.0728 0.81174 0.26582 0.0
C371 C 0.14018 0.8744 0.27351 0.0
C372 C 0.17162 0.90321 0.29748 0.0
C373 C 0.10293 0.8429 0.28917 0.0
C374 C 0.16396 0.90344 0.33665 0.0
C375 C 0.12719 0.87193 0.35254 0.0
H376 H 0.26536 0.19682 0.68412 0.0
H377 H 0.27419 0.1718 0.56564 0.0
H378 H 0.26081 0.10172 0.58177 0.0
H379 H 0.26296 0.05543 0.63049 0.0
H380 H 0.26972 0.08795 0.74918 0.0
H381 H 0.25961 0.14671 0.73275 0.0
C382 C 0.26261 0.1752 0.66186 0.0
C383 C 0.27012 0.18866 0.62384 0.0
C384 C 0.25831 0.13659 0.67174 0.0
C385 C 0.26793 0.16144 0.59502 0.0
C386 C 0.26068 0.12169 0.60432 0.0
C387 C 0.26044 0.0745 0.6527 0.0
C388 C 0.26646 0.06755 0.6909 0.0
C389 C 0.25812 0.10991 0.64273 0.0
C390 C 0.26459 0.09281 0.71966 0.0
C391 C 0.25924 0.12651 0.71019 0.0
H392 H 0.13936 0.26269 0.06467 0.0
H393 H 0.18756 0.25778 0.95422 0.0
H394 H 0.12333 0.24634 0.92387 0.0
H395 H 0.061 0.25404 0.92839 0.0
H396 H 0.01099 0.25508 0.03896 0.0
H397 H 0.06781 0.25069 0.06992 0.0
C398 C 0.13489 0.25731 0.03417 0.0
C399 C 0.16788 0.26147 0.01154 0.0
C400 C 0.09788 0.25066 0.01698 0.0
C401 C 0.16221 0.25446 0.97208 0.0
C402 C 0.12573 0.2484 0.95468 0.0
C403 C 0.06177 0.25148 0.95917 0.0
C404 C 0.03251 0.25523 0.98154 0.0
C405 C 0.0944 0.24881 0.9767 0.0
C406 C 0.03336 0.25199 0.02136 0.0
C407 C 0.06602 0.24993 0.03905 0.0
H408 H 0.91729 0.20727 0.29863 0.0
H409 H 0.86816 0.17493 0.41251 0.0
H410 H 0.81259 0.10725 0.38983 0.0
H411 H 0.76965 0.06652 0.33597 0.0
H412 H 0.81071 0.10771 0.22119 0.0
H413 H 0.87831 0.1621 0.24518 0.0
C414 C 0.89535 0.18449 0.31858 0.0
C415 C 0.89663 0.19535 0.35709 0.0
C416 C 0.86172 0.14756 0.30473 0.0
C417 C 0.86765 0.16663 0.38281 0.0
C418 C 0.8358 0.12826 0.36974 0.0
C419 C 0.79422 0.08635 0.31628 0.0
C420 C 0.78589 0.08325 0.27701 0.0
C421 C 0.83121 0.11956 0.33049 0.0
C422 C 0.81701 0.1096 0.25152 0.0
C423 C 0.85534 0.14083 0.26529 0.0
H424 H 0.64517 0.76567 0.58363 0.0
H425 H 0.71322 0.7709 0.68495 0.0
H426 H 0.71983 0.83823 0.70213 0.0
H427 H 0.69292 0.88752 0.69433 0.0
H428 H 0.62238 0.87888 0.59353 0.0
H429 H 0.63056 0.82155 0.56958 0.0
C430 C 0.66283 0.78249 0.60865 0.0
C431 C 0.67846 0.76374 0.63316 0.0
C432 C 0.66532 0.82019 0.61872 0.0
C433 C 0.70124 0.78527 0.6656 0.0
C434 C 0.70449 0.8234 0.67565 0.0
C435 C 0.68055 0.87369 0.6667 0.0
C436 C 0.65659 0.88649 0.64582 0.0
C437 C 0.68466 0.84001 0.65344 0.0
C438 C 0.64051 0.86878 0.61006 0.0
C439 C 0.64512 0.83608 0.59641 0.0
H440 H 0.75299 0.68565 0.95818 0.0
H441 H 0.80588 0.70312 0.07061 0.0
H442 H 0.87072 0.71178 0.04352 0.0
H443 H 0.90405 0.69703 -0.00973 0.0
H444 H 0.84347 0.6636 0.88064 0.0
H445 H 0.79024 0.67924 0.90341 0.0
C446 C 0.77956 0.69324 0.97641 0.0
C447 C 0.77543 0.69444 0.01608 0.0
C448 C 0.81492 0.69439 0.96091 0.0
C449 C 0.80905 0.70281 0.03992 0.0
C450 C 0.84576 0.70721 0.02443 0.0
C451 C 0.88008 0.69484 0.97101 0.0
C452 C 0.87746 0.67945 0.93388 0.0
C453 C 0.84798 0.70057 -0.01473 0.0
C454 C 0.84589 0.67559 0.90928 0.0
C455 C 0.81541 0.68422 0.92241 0.0
H456 H 0.3372 0.03786 0.42702 0.0
H457 H 0.26488 0.90436 0.41378 0.0
H458 H 0.25899 0.89555 0.48276 0.0
H459 H 0.27623 0.9254 0.54739 0.0
H460 H 0.35197 0.05858 0.56077 0.0
H461 H 0.35449 0.06775 0.49178 0.0
C462 C 0.32 0.00691 0.43929 0.0
C463 C 0.3017 0.9719 0.41522 0.0
C464 C 0.31739 0.0019 0.47921 0.0
C465 C 0.27968 0.93192 0.4316 0.0
C466 C 0.27615 0.92678 0.47112 0.0
C467 C 0.29303 0.9564 0.53517 0.0
C468 C 0.31392 -0.00884 0.55924 0.0
C469 C 0.29517 0.96148 0.49528 0.0
C470 C 0.33587 0.03117 0.54291 0.0
C471 C 0.33729 0.03652 0.50339 0.0
H472 H 0.33714 0.29351 0.88871 0.0
H473 H 0.2641 0.35463 0.89721 0.0
H474 H 0.26016 0.35668 0.82795 0.0
H475 H 0.27921 0.34319 0.76445 0.0
H476 H 0.35552 0.28562 0.7559 0.0
H477 H 0.35625 0.28005 0.82514 0.0
C478 C 0.32022 0.30707 0.87536 0.0
C479 C 0.30113 0.324 0.89818 0.0
C480 C 0.3187 0.30894 0.83531 0.0
C481 C 0.27949 0.34171 0.88038 0.0
C482 C 0.27707 0.34282 0.8407 0.0
C483 C 0.29575 0.32921 0.77778 0.0
C484 C 0.31731 0.31497 0.75499 0.0
C485 C 0.29684 0.32685 0.81781 0.0
C486 C 0.3389 0.29719 0.77275 0.0
C487 C 0.33931 0.29388 0.8124 0.0
H488 H 0.9132 0.28897 0.22583 0.0
H489 H 0.04744 0.352 0.22442 0.0
H490 H 0.04664 0.34911 0.15467 0.0
H491 H 0.00793 0.331 0.09424 0.0
H492 H 0.87367 0.26489 0.09535 0.0
H493 H 0.87427 0.26643 0.16527 0.0
C494 C 0.94231 0.30208 0.21025 0.0
C495 C -0.01959 0.32118 0.23028 0.0
C496 C 0.94155 0.29978 0.1702 0.0
C497 C 0.01777 0.33725 0.20972 0.0
C498 C 0.0173 0.3357 0.16985 0.0
C499 C -0.02125 0.31694 0.10977 0.0
C500 C 0.94075 0.29837 0.08963 0.0
C501 C -0.02059 0.31746 0.14982 0.0
C502 C 0.90327 0.27948 0.11017 0.0
C503 C 0.90365 0.28047 0.15011 0.0
H504 H 0.61524 0.95052 0.40958 0.0
H505 H 0.69605 0.08347 0.4016 0.0
H506 H 0.69762 0.08939 0.47113 0.0
H507 H 0.67395 0.0567 0.53474 0.0
H508 H 0.58919 0.92416 0.54111 0.0
H509 H 0.59128 0.91827 0.47225 0.0
C510 C 0.63343 -0.01929 0.42311 0.0
C511 C 0.65548 0.01641 0.40052 0.0
C512 C 0.63329 -0.01595 0.46302 0.0
C513 C 0.67856 0.05546 0.41842 0.0
C514 C 0.67953 0.0589 0.45819 0.0
C515 C 0.65608 0.02664 0.52095 0.0
C516 C 0.63124 -0.00892 0.54307 0.0
C517 C 0.65666 0.02343 0.48088 0.0
C518 C 0.60813 0.95223 0.52478 0.0
C519 C 0.60941 0.94869 0.48532 0.0
H520 H 0.67594 0.61506 0.89531 0.0
H521 H 0.59954 0.67277 0.90071 0.0
H522 H 0.59706 0.67397 0.83105 0.0
H523 H 0.61475 0.65675 0.76895 0.0
H524 H 0.69432 0.60272 0.76265 0.0
H525 H 0.69778 0.60222 0.83254 0.0
C526 C 0.6587 0.62784 0.88118 0.0
C527 C 0.63745 0.64331 0.90309 0.0
C528 C 0.65806 0.62911 0.84112 0.0
C529 C 0.61601 0.66059 0.88448 0.0
C530 C 0.61453 0.66119 0.84468 0.0
C531 C 0.63287 0.64482 0.78285 0.0
C532 C 0.6538 0.62923 0.7607 0.0
C533 C 0.63512 0.64522 0.82278 0.0
C534 C 0.67786 0.61476 0.77908 0.0
C535 C 0.6797 0.61435 0.819 0.0
H536 H 0.89862 0.6066 0.19636 0.0
H537 H 0.03161 0.68226 0.21035 0.0
H538 H 0.04094 0.68733 0.14142 0.0
H539 H 0.01187 0.66788 0.07675 0.0
H540 H 0.87924 0.58921 0.06256 0.0
H541 H 0.86937 0.58787 0.13138 0.0
C542 C 0.92954 0.62442 0.18425 0.0
C543 C 0.9643 0.64378 0.20851 0.0
C544 C 0.93489 0.62655 0.14435 0.0
C545 C 0.00427 0.66661 0.19235 0.0
C546 C 0.00971 0.66965 0.15287 0.0
C547 C -0.01919 0.65069 0.08872 0.0
C548 C 0.94646 0.62857 0.06445 0.0
C549 C -0.02467 0.64934 0.12853 0.0
C550 C 0.90639 0.60624 0.08053 0.0
C551 C 0.90062 0.6055 0.11996 0.0
loop_
_geom_bond_atom_site_label_1
_geom_bond_atom_site_label_2
_geom_bond_distance
_geom_bond_site_symmetry_2
_ccdc_geom_bond_type
C0 O1 1.306 . S
C0 O3 1.160 . S
O1 C0 1.306 . S
O1 Cd2 2.228 . S
Cd2 O1 2.228 . S
Cd2 O6 2.273 . S
Cd2 O10 2.277 . S
O3 C0 1.160 . S
O3 Cd4 2.203 1_565 S
Cd4 O3 2.203 1_545 S
Cd4 O6 2.411 1_545 S
Cd4 O7 2.333 . S
Cd4 O8 2.352 . S
Cd4 O12 2.277 . S
Cd4 O13 2.356 . S
C5 O10 1.209 1_545 S
C5 O12 1.226 . S
O6 Cd2 2.273 . S
O6 Cd4 2.411 1_565 S
O6 C9 1.320 1_565 S
O7 Cd4 2.333 . S
O7 C9 1.214 . S
O8 Cd4 2.352 . S
O8 C11 1.258 . S
C9 O6 1.320 1_545 S
C9 O7 1.214 . S
O10 Cd2 2.277 . S
O10 C5 1.209 1_565 S
C11 O8 1.258 . S
C11 O13 1.282 . S
O12 Cd4 2.277 . S
O12 C5 1.226 . S
O13 Cd4 2.356 . S
O13 C11 1.282 . S
C14 O15 1.306 . S
C14 O17 1.160 . S
O15 C14 1.306 . S
O15 Cd16 2.228 . S
Cd16 O15 2.228 . S
Cd16 O20 2.273 . S
Cd16 O24 2.277 . S
O17 C14 1.160 . S
O17 Cd18 2.203 . S
Cd18 O17 2.203 . S
Cd18 O20 2.411 . S
Cd18 O21 2.333 . S
Cd18 O22 2.352 . S
Cd18 O26 2.277 . S
Cd18 O27 2.356 . S
C19 O24 1.209 . S
C19 O26 1.226 . S
O20 Cd16 2.273 . S
O20 Cd18 2.411 . S
O20 C23 1.320 . S
O21 Cd18 2.333 . S
O21 C23 1.214 . S
O22 Cd18 2.352 . S
O22 C25 1.258 . S
C23 O20 1.320 . S
C23 O21 1.214 . S
O24 Cd16 2.277 . S
O24 C19 1.209 . S
C25 O22 1.258 . S
C25 O27 1.282 . S
O26 Cd18 2.277 . S
O26 C19 1.226 . S
O27 Cd18 2.356 . S
O27 C25 1.282 . S
C28 O29 1.306 . S
C28 O31 1.160 . S
O29 C28 1.306 . S
O29 Cd30 2.228 1_556 S
Cd30 O29 2.228 1_554 S
Cd30 O34 2.273 1_554 S
Cd30 O38 2.277 . S
O31 C28 1.160 . S
O31 Cd32 2.203 1_455 S
Cd32 O31 2.203 1_655 S
Cd32 O34 2.411 1_655 S
Cd32 O35 2.333 . S
Cd32 O36 2.352 . S
Cd32 O40 2.277 1_556 S
Cd32 O41 2.356 . S
C33 O38 1.209 1_655 S
C33 O40 1.226 . S
O34 Cd30 2.273 1_556 S
O34 Cd32 2.411 1_455 S
O34 C37 1.320 1_455 S
O35 Cd32 2.333 . S
O35 C37 1.214 . S
O36 Cd32 2.352 . S
O36 C39 1.258 . S
C37 O34 1.320 1_655 S
C37 O35 1.214 . S
O38 Cd30 2.277 . S
O38 C33 1.209 1_455 S
C39 O36 1.258 . S
C39 O41 1.282 . S
O40 Cd32 2.277 1_554 S
O40 C33 1.226 . S
O41 Cd32 2.356 . S
O41 C39 1.282 . S
C42 O43 1.306 . S
C42 O45 1.160 . S
O43 C42 1.306 . S
O43 Cd44 2.228 . S
Cd44 O43 2.228 . S
Cd44 O48 2.273 . S
Cd44 O52 2.277 . S
O45 C42 1.160 . S
O45 Cd46 2.203 1_545 S
Cd46 O45 2.203 1_565 S
Cd46 O48 2.411 1_565 S
Cd46 O49 2.333 . S
Cd46 O50 2.352 . S
Cd46 O54 2.277 . S
Cd46 O55 2.356 . S
C47 O52 1.209 1_565 S
C47 O54 1.226 . S
O48 Cd44 2.273 . S
O48 Cd46 2.411 1_545 S
O48 C51 1.320 1_545 S
O49 Cd46 2.333 . S
O49 C51 1.214 . S
O50 Cd46 2.352 . S
O50 C53 1.258 . S
C51 O48 1.320 1_565 S
C51 O49 1.214 . S
O52 Cd44 2.277 . S
O52 C47 1.209 1_545 S
C53 O50 1.258 . S
C53 O55 1.282 . S
O54 Cd46 2.277 . S
O54 C47 1.226 . S
O55 Cd46 2.356 . S
O55 C53 1.282 . S
C56 O57 1.306 . S
C56 O59 1.160 . S
O57 C56 1.306 . S
O57 Cd58 2.228 . S
Cd58 O57 2.228 . S
Cd58 O62 2.273 . S
Cd58 O66 2.277 . S
O59 C56 1.160 . S
O59 Cd60 2.203 . S
Cd60 O59 2.203 . S
Cd60 O62 2.411 . S
Cd60 O63 2.333 . S
Cd60 O64 2.352 . S
Cd60 O68 2.277 . S
Cd60 O69 2.356 . S
C61 O66 1.209 . S
C61 O68 1.226 . S
O62 Cd58 2.273 . S
O62 Cd60 2.411 . S
O62 C65 1.320 . S
O63 Cd60 2.333 . S
O63 C65 1.214 . S
O64 Cd60 2.352 . S
O64 C67 1.258 . S
C65 O62 1.320 . S
C65 O63 1.214 . S
O66 Cd58 2.277 . S
O66 C61 1.209 . S
C67 O64 1.258 . S
C67 O69 1.282 . S
O68 Cd60 2.277 . S
O68 C61 1.226 . S
O69 Cd60 2.356 . S
O69 C67 1.282 . S
C70 O71 1.306 . S
C70 O73 1.160 . S
O71 C70 1.306 . S
O71 Cd72 2.228 1_556 S
Cd72 O71 2.228 1_554 S
Cd72 O76 2.273 1_554 S
Cd72 O80 2.277 . S
O73 C70 1.160 . S
O73 Cd74 2.203 1_655 S
Cd74 O73 2.203 1_455 S
Cd74 O76 2.411 1_455 S
Cd74 O77 2.333 . S
Cd74 O78 2.352 . S
Cd74 O82 2.277 1_556 S
Cd74 O83 2.356 . S
C75 O80 1.209 1_455 S
C75 O82 1.226 . S
O76 Cd72 2.273 1_556 S
O76 Cd74 2.411 1_655 S
O76 C79 1.320 1_655 S
O77 Cd74 2.333 . S
O77 C79 1.214 . S
O78 Cd74 2.352 . S
O78 C81 1.258 . S
C79 O76 1.320 1_455 S
C79 O77 1.214 . S
O80 Cd72 2.277 . S
O80 C75 1.209 1_655 S
C81 O78 1.258 . S
C81 O83 1.282 . S
O82 Cd74 2.277 1_554 S
O82 C75 1.226 . S
O83 Cd74 2.356 . S
O83 C81 1.282 . S
C84 O85 1.306 . S
C84 O87 1.160 . S
O85 C84 1.306 . S
O85 Cd86 2.228 . S
Cd86 O85 2.228 . S
Cd86 O90 2.273 . S
Cd86 O94 2.277 . S
O87 C84 1.160 . S
O87 Cd88 2.203 1_455 S
Cd88 O87 2.203 1_655 S
Cd88 O90 2.411 1_655 S
Cd88 O91 2.333 . S
Cd88 O92 2.352 . S
Cd88 O96 2.277 . S
Cd88 O97 2.356 . S
C89 O94 1.209 1_655 S
C89 O96 1.226 . S
O90 Cd86 2.273 . S
O90 Cd88 2.411 1_455 S
O90 C93 1.320 1_455 S
O91 Cd88 2.333 . S
O91 C93 1.214 . S
O92 Cd88 2.352 . S
O92 C95 1.258 . S
C93 O90 1.320 1_655 S
C93 O91 1.214 . S
O94 Cd86 2.277 . S
O94 C89 1.209 1_455 S
C95 O92 1.258 . S
C95 O97 1.282 . S
O96 Cd88 2.277 . S
O96 C89 1.226 . S
O97 Cd88 2.356 . S
O97 C95 1.282 . S
C98 O99 1.306 . S
C98 O101 1.160 . S
O99 C98 1.306 . S
O99 Cd100 2.228 . S
Cd100 O99 2.228 . S
Cd100 O104 2.273 . S
Cd100 O108 2.277 . S
O101 C98 1.160 . S
O101 Cd102 2.203 1_545 S
Cd102 O101 2.203 1_565 S
Cd102 O104 2.411 1_565 S
Cd102 O105 2.333 . S
Cd102 O106 2.352 . S
Cd102 O110 2.277 . S
Cd102 O111 2.356 . S
C103 O108 1.209 1_565 S
C103 O110 1.226 . S
O104 Cd100 2.273 . S
O104 Cd102 2.411 1_545 S
O104 C107 1.320 1_545 S
O105 Cd102 2.333 . S
O105 C107 1.214 . S
O106 Cd102 2.352 . S
O106 C109 1.258 . S
C107 O104 1.320 1_565 S
C107 O105 1.214 . S
O108 Cd100 2.277 . S
O108 C103 1.209 1_545 S
C109 O106 1.258 . S
C109 O111 1.282 . S
O110 Cd102 2.277 . S
O110 C103 1.226 . S
O111 Cd102 2.356 . S
O111 C109 1.282 . S
C112 O113 1.306 . S
C112 O115 1.160 . S
O113 C112 1.306 . S
O113 Cd114 2.228 1_554 S
Cd114 O113 2.228 1_556 S
Cd114 O118 2.273 1_556 S
Cd114 O122 2.277 . S
O115 C112 1.160 . S
O115 Cd116 2.203 . S
Cd116 O115 2.203 . S
Cd116 O118 2.411 . S
Cd116 O119 2.333 . S
Cd116 O120 2.352 . S
Cd116 O124 2.277 1_554 S
Cd116 O125 2.356 . S
C117 O122 1.209 . S
C117 O124 1.226 . S
O118 Cd114 2.273 1_554 S
O118 Cd116 2.411 . S
O118 C121 1.320 . S
O119 Cd116 2.333 . S
O119 C121 1.214 . S
O120 Cd116 2.352 . S
O120 C123 1.258 . S
C121 O118 1.320 . S
C121 O119 1.214 . S
O122 Cd114 2.277 . S
O122 C117 1.209 . S
C123 O120 1.258 . S
C123 O125 1.282 . S
O124 Cd116 2.277 1_556 S
O124 C117 1.226 . S
O125 Cd116 2.356 . S
O125 C123 1.282 . S
C126 O127 1.306 . S
C126 O129 1.160 . S
O127 C126 1.306 . S
O127 Cd128 2.228 . S
Cd128 O127 2.228 . S
Cd128 O132 2.273 . S
Cd128 O136 2.277 . S
O129 C126 1.160 . S
O129 Cd130 2.203 1_655 S
Cd130 O129 2.203 1_455 S
Cd130 O132 2.411 1_455 S
Cd130 O133 2.333 . S
Cd130 O134 2.352 . S
Cd130 O138 2.277 . S
Cd130 O139 2.356 . S
C131 O136 1.209 1_455 S
C131 O138 1.226 . S
O132 Cd128 2.273 . S
O132 Cd130 2.411 1_655 S
O132 C135 1.320 1_655 S
O133 Cd130 2.333 . S
O133 C135 1.214 . S
O134 Cd130 2.352 . S
O134 C137 1.258 . S
C135 O132 1.320 1_455 S
C135 O133 1.214 . S
O136 Cd128 2.277 . S
O136 C131 1.209 1_655 S
C137 O134 1.258 . S
C137 O139 1.282 . S
O138 Cd130 2.277 . S
O138 C131 1.226 . S
O139 Cd130 2.356 . S
O139 C137 1.282 . S
C140 O141 1.306 . S
C140 O143 1.160 . S
O141 C140 1.306 . S
O141 Cd142 2.228 . S
Cd142 O141 2.228 . S
Cd142 O146 2.273 . S
Cd142 O150 2.277 . S
O143 C140 1.160 . S
O143 Cd144 2.203 1_565 S
Cd144 O143 2.203 1_545 S
Cd144 O146 2.411 1_545 S
Cd144 O147 2.333 . S
Cd144 O148 2.352 . S
Cd144 O152 2.277 . S
Cd144 O153 2.356 . S
C145 O150 1.209 1_545 S
C145 O152 1.226 . S
O146 Cd142 2.273 . S
O146 Cd144 2.411 1_565 S
O146 C149 1.320 1_565 S
O147 Cd144 2.333 . S
O147 C149 1.214 . S
O148 Cd144 2.352 . S
O148 C151 1.258 . S
C149 O146 1.320 1_545 S
C149 O147 1.214 . S
O150 Cd142 2.277 . S
O150 C145 1.209 1_565 S
C151 O148 1.258 . S
C151 O153 1.282 . S
O152 Cd144 2.277 . S
O152 C145 1.226 . S
O153 Cd144 2.356 . S
O153 C151 1.282 . S
C154 O155 1.306 . S
C154 O157 1.160 . S
O155 C154 1.306 . S
O155 Cd156 2.228 1_554 S
Cd156 O155 2.228 1_556 S
Cd156 O160 2.273 1_556 S
Cd156 O164 2.277 . S
O157 C154 1.160 . S
O157 Cd158 2.203 . S
Cd158 O157 2.203 . S
Cd158 O160 2.411 . S
Cd158 O161 2.333 . S
Cd158 O162 2.352 . S
Cd158 O166 2.277 1_554 S
Cd158 O167 2.356 . S
C159 O164 1.209 . S
C159 O166 1.226 . S
O160 Cd156 2.273 1_554 S
O160 Cd158 2.411 . S
O160 C163 1.320 . S
O161 Cd158 2.333 . S
O161 C163 1.214 . S
O162 Cd158 2.352 . S
O162 C165 1.258 . S
C163 O160 1.320 . S
C163 O161 1.214 . S
O164 Cd156 2.277 . S
O164 C159 1.209 . S
C165 O162 1.258 . S
C165 O167 1.282 . S
O166 Cd158 2.277 1_556 S
O166 C159 1.226 . S
O167 Cd158 2.356 . S
O167 C165 1.282 . S
H168 C174 0.930 . S
H169 C177 0.930 . S
H170 C178 0.930 . S
H171 C179 0.930 . S
H172 C182 0.930 . S
H173 C183 0.930 . S
C174 H168 0.930 . S
C174 C175 1.355 . S
C174 C176 1.415 . S
C175 C174 1.355 . S
C175 C177 1.419 . S
C176 C174 1.415 . S
C176 C181 1.425 . S
C176 C183 1.409 . S
C177 H169 0.930 . S
C177 C175 1.419 . S
C177 C178 1.362 . S
C178 H170 0.930 . S
C178 C177 1.362 . S
C178 C181 1.409 . S
C179 H171 0.930 . S
C179 C180 1.355 . S
C179 C181 1.415 . S
C180 C179 1.355 . S
C180 C182 1.419 . S
C181 C176 1.425 . S
C181 C178 1.409 . S
C181 C179 1.415 . S
C182 H172 0.930 . S
C182 C180 1.419 . S
C182 C183 1.362 . S
C183 H173 0.930 . S
C183 C176 1.409 . S
C183 C182 1.362 . S
H184 C190 0.930 . S
H185 C193 0.930 . S
H186 C194 0.930 . S
H187 C195 0.930 . S
H188 C198 0.930 . S
H189 C199 0.930 . S
C190 H184 0.930 . S
C190 C191 1.355 . S
C190 C192 1.415 . S
C191 C190 1.355 . S
C191 C193 1.419 . S
C192 C190 1.415 . S
C192 C197 1.425 . S
C192 C199 1.409 . S
C193 H185 0.930 . S
C193 C191 1.419 . S
C193 C194 1.362 . S
C194 H186 0.930 . S
C194 C193 1.362 . S
C194 C197 1.409 . S
C195 H187 0.930 . S
C195 C196 1.355 . S
C195 C197 1.415 . S
C196 C195 1.355 . S
C196 C198 1.419 . S
C197 C192 1.425 . S
C197 C194 1.409 . S
C197 C195 1.415 . S
C198 H188 0.930 . S
C198 C196 1.419 . S
C198 C199 1.362 . S
C199 H189 0.930 . S
C199 C192 1.409 . S
C199 C198 1.362 . S
H200 C206 0.930 . S
H201 C209 0.930 . S
H202 C210 0.930 . S
H203 C211 0.930 . S
H204 C214 0.930 . S
H205 C215 0.930 . S
C206 H200 0.930 . S
C206 C207 1.355 . S
C206 C208 1.415 . S
C207 C206 1.355 . S
C207 C209 1.419 . S
C208 C206 1.415 . S
C208 C213 1.425 . S
C208 C215 1.409 . S
C209 H201 0.930 . S
C209 C207 1.419 . S
C209 C210 1.362 . S
C210 H202 0.930 . S
C210 C209 1.362 . S
C210 C213 1.409 . S
C211 H203 0.930 . S
C211 C212 1.355 . S
C211 C213 1.415 . S
C212 C211 1.355 . S
C212 C214 1.419 . S
C213 C208 1.425 . S
C213 C210 1.409 . S
C213 C211 1.415 . S
C214 H204 0.930 . S
C214 C212 1.419 . S
C214 C215 1.362 . S
C215 H205 0.930 . S
C215 C208 1.409 . S
C215 C214 1.362 . S
H216 C222 0.930 . S
H217 C225 0.930 . S
H218 C226 0.930 . S
H219 C227 0.930 . S
H220 C230 0.930 . S
H221 C231 0.930 . S
C222 H216 0.930 . S
C222 C223 1.355 . S
C222 C224 1.415 . S
C223 C222 1.355 . S
C223 C225 1.419 . S
C224 C222 1.415 . S
C224 C229 1.425 . S
C224 C231 1.409 . S
C225 H217 0.930 . S
C225 C223 1.419 . S
C225 C226 1.362 . S
C226 H218 0.930 . S
C226 C225 1.362 . S
C226 C229 1.409 . S
C227 H219 0.930 . S
C227 C228 1.355 . S
C227 C229 1.415 . S
C228 C227 1.355 . S
C228 C230 1.419 . S
C229 C224 1.425 . S
C229 C226 1.409 . S
C229 C227 1.415 . S
C230 H220 0.930 . S
C230 C228 1.419 . S
C230 C231 1.362 . S
C231 H221 0.930 . S
C231 C224 1.409 . S
C231 C230 1.362 . S
H232 C238 0.930 . S
H233 C241 0.930 . S
H234 C242 0.930 . S
H235 C243 0.930 . S
H236 C246 0.930 . S
H237 C247 0.930 . S
C238 H232 0.930 . S
C238 C239 1.355 . S
C238 C240 1.415 . S
C239 C238 1.355 . S
C239 C241 1.419 . S
C240 C238 1.415 . S
C240 C245 1.425 . S
C240 C247 1.409 . S
C241 H233 0.930 . S
C241 C239 1.419 . S
C241 C242 1.362 . S
C242 H234 0.930 . S
C242 C241 1.362 . S
C242 C245 1.409 . S
C243 H235 0.930 . S
C243 C244 1.355 . S
C243 C245 1.415 . S
C244 C243 1.355 . S
C244 C246 1.419 . S
C245 C240 1.425 . S
C245 C242 1.409 . S
C245 C243 1.415 . S
C246 H236 0.930 . S
C246 C244 1.419 . S
C246 C247 1.362 . S
C247 H237 0.930 . S
C247 C240 1.409 . S
C247 C246 1.362 . S
H248 C254 0.930 . S
H249 C257 0.930 . S
H250 C258 0.930 . S
H251 C259 0.930 . S
H252 C262 0.930 . S
H253 C263 0.930 . S
C254 H248 0.930 . S
C254 C255 1.355 . S
C254 C256 1.415 . S
C255 C254 1.355 . S
C255 C257 1.419 . S
C256 C254 1.415 . S
C256 C261 1.425 . S
C256 C263 1.409 . S
C257 H249 0.930 . S
C257 C255 1.419 . S
C257 C258 1.362 . S
C258 H250 0.930 . S
C258 C257 1.362 . S
C258 C261 1.409 . S
C259 H251 0.930 . S
C259 C260 1.355 . S
C259 C261 1.415 . S
C260 C259 1.355 . S
C260 C262 1.419 . S
C261 C256 1.425 . S
C261 C258 1.409 . S
C261 C259 1.415 . S
C262 H252 0.930 . S
C262 C260 1.419 . S
C262 C263 1.362 . S
C263 H253 0.930 . S
C263 C256 1.409 . S
C263 C262 1.362 . S
H264 C270 0.930 . S
H265 C273 0.930 . S
H266 C274 0.930 . S
H267 C275 0.930 . S
H268 C278 0.930 . S
H269 C279 0.930 . S
C270 H264 0.930 . S
C270 C271 1.355 . S
C270 C272 1.415 . S
C271 C270 1.355 . S
C271 C273 1.419 1_545 S
C272 C270 1.415 . S
C272 C277 1.425 1_545 S
C272 C279 1.409 . S
C273 H265 0.930 . S
C273 C271 1.419 1_565 S
C273 C274 1.362 . S
C274 H266 0.930 . S
C274 C273 1.362 . S
C274 C277 1.409 . S
C275 H267 0.930 . S
C275 C276 1.355 . S
C275 C277 1.415 . S
C276 C275 1.355 . S
C276 C278 1.419 1_565 S
C277 C272 1.425 1_565 S
C277 C274 1.409 . S
C277 C275 1.415 . S
C278 H268 0.930 . S
C278 C276 1.419 1_545 S
C278 C279 1.362 . S
C279 H269 0.930 . S
C279 C272 1.409 . S
C279 C278 1.362 . S
H280 C286 0.930 . S
H281 C289 0.930 . S
H282 C290 0.930 . S
H283 C291 0.930 . S
H284 C294 0.930 . S
H285 C295 0.930 . S
C286 H280 0.930 . S
C286 C287 1.355 . S
C286 C288 1.415 . S
C287 C286 1.355 . S
C287 C289 1.419 . S
C288 C286 1.415 . S
C288 C293 1.425 . S
C288 C295 1.409 . S
C289 H281 0.930 . S
C289 C287 1.419 . S
C289 C290 1.362 . S
C290 H282 0.930 . S
C290 C289 1.362 . S
C290 C293 1.409 . S
C291 H283 0.930 . S
C291 C292 1.355 . S
C291 C293 1.415 . S
C292 C291 1.355 . S
C292 C294 1.419 . S
C293 C288 1.425 . S
C293 C290 1.409 . S
C293 C291 1.415 . S
C294 H284 0.930 . S
C294 C292 1.419 . S
C294 C295 1.362 . S
C295 H285 0.930 . S
C295 C288 1.409 . S
C295 C294 1.362 . S
H296 C302 0.930 1_554 S
H297 C305 0.930 . S
H298 C306 0.930 . S
H299 C307 0.930 . S
H300 C310 0.930 . S
H301 C311 0.930 . S
C302 H296 0.930 1_556 S
C302 C303 1.355 . S
C302 C304 1.415 . S
C303 C302 1.355 . S
C303 C305 1.419 1_455 S
C304 C302 1.415 . S
C304 C309 1.425 1_455 S
C304 C311 1.409 1_556 S
C305 H297 0.930 . S
C305 C303 1.419 1_655 S
C305 C306 1.362 . S
C306 H298 0.930 . S
C306 C305 1.362 . S
C306 C309 1.409 . S
C307 H299 0.930 . S
C307 C308 1.355 . S
C307 C309 1.415 . S
C308 C307 1.355 . S
C308 C310 1.419 1_656 S
C309 C304 1.425 1_655 S
C309 C306 1.409 . S
C309 C307 1.415 . S
C310 H300 0.930 . S
C310 C308 1.419 1_454 S
C310 C311 1.362 . S
C311 H301 0.930 . S
C311 C304 1.409 1_554 S
C311 C310 1.362 . S
H312 C318 0.930 . S
H313 C321 0.930 . S
H314 C322 0.930 . S
H315 C323 0.930 . S
H316 C326 0.930 . S
H317 C327 0.930 . S
C318 H312 0.930 . S
C318 C319 1.355 1_455 S
C318 C320 1.415 . S
C319 C318 1.355 1_655 S
C319 C321 1.419 . S
C320 C318 1.415 . S
C320 C325 1.425 1_455 S
C320 C327 1.409 . S
C321 H313 0.930 . S
C321 C319 1.419 . S
C321 C322 1.362 . S
C322 H314 0.930 . S
C322 C321 1.362 . S
C322 C325 1.409 . S
C323 H315 0.930 . S
C323 C324 1.355 1_655 S
C323 C325 1.415 . S
C324 C323 1.355 1_455 S
C324 C326 1.419 . S
C325 C320 1.425 1_655 S
C325 C322 1.409 . S
C325 C323 1.415 . S
C326 H316 0.930 . S
C326 C324 1.419 . S
C326 C327 1.362 . S
C327 H317 0.930 . S
C327 C320 1.409 . S
C327 C326 1.362 . S
H328 C334 0.930 . S
H329 C337 0.930 . S
H330 C338 0.930 . S
H331 C339 0.930 . S
H332 C342 0.930 . S
H333 C343 0.930 . S
C334 H328 0.930 . S
C334 C335 1.355 1_565 S
C334 C336 1.415 . S
C335 C334 1.355 1_545 S
C335 C337 1.419 . S
C336 C334 1.415 . S
C336 C341 1.425 1_565 S
C336 C343 1.409 . S
C337 H329 0.930 . S
C337 C335 1.419 . S
C337 C338 1.362 . S
C338 H330 0.930 . S
C338 C337 1.362 . S
C338 C341 1.409 . S
C339 H331 0.930 . S
C339 C340 1.355 1_545 S
C339 C341 1.415 . S
C340 C339 1.355 1_565 S
C340 C342 1.419 . S
C341 C336 1.425 1_545 S
C341 C338 1.409 . S
C341 C339 1.415 . S
C342 H332 0.930 . S
C342 C340 1.419 . S
C342 C343 1.362 . S
C343 H333 0.930 . S
C343 C336 1.409 . S
C343 C342 1.362 . S
H344 C350 0.930 . S
H345 C353 0.930 . S
H346 C354 0.930 . S
H347 C355 0.930 . S
H348 C358 0.930 . S
H349 C359 0.930 . S
C350 H344 0.930 . S
C350 C351 1.355 . S
C350 C352 1.415 . S
C351 C350 1.355 . S
C351 C353 1.419 . S
C352 C350 1.415 . S
C352 C357 1.425 . S
C352 C359 1.409 . S
C353 H345 0.930 . S
C353 C351 1.419 . S
C353 C354 1.362 . S
C354 H346 0.930 . S
C354 C353 1.362 . S
C354 C357 1.409 . S
C355 H347 0.930 . S
C355 C356 1.355 . S
C355 C357 1.415 . S
C356 C355 1.355 . S
C356 C358 1.419 . S
C357 C352 1.425 . S
C357 C354 1.409 . S
C357 C355 1.415 . S
C358 H348 0.930 . S
C358 C356 1.419 . S
C358 C359 1.362 . S
C359 H349 0.930 . S
C359 C352 1.409 . S
C359 C358 1.362 . S
H360 C366 0.930 . S
H361 C369 0.930 . S
H362 C370 0.930 . S
H363 C371 0.930 . S
H364 C374 0.930 . S
H365 C375 0.930 . S
C366 H360 0.930 . S
C366 C367 1.355 . S
C366 C368 1.415 . S
C367 C366 1.355 . S
C367 C369 1.419 . S
C368 C366 1.415 . S
C368 C373 1.425 . S
C368 C375 1.409 . S
C369 H361 0.930 . S
C369 C367 1.419 . S
C369 C370 1.362 . S
C370 H362 0.930 . S
C370 C369 1.362 . S
C370 C373 1.409 . S
C371 H363 0.930 . S
C371 C372 1.355 . S
C371 C373 1.415 . S
C372 C371 1.355 . S
C372 C374 1.419 . S
C373 C368 1.425 . S
C373 C370 1.409 . S
C373 C371 1.415 . S
C374 H364 0.930 . S
C374 C372 1.419 . S
C374 C375 1.362 . S
C375 H365 0.930 . S
C375 C368 1.409 . S
C375 C374 1.362 . S
H376 C382 0.930 . S
H377 C385 0.930 . S
H378 C386 0.930 . S
H379 C387 0.930 . S
H380 C390 0.930 . S
H381 C391 0.930 . S
C382 H376 0.930 . S
C382 C383 1.355 . S
C382 C384 1.415 . S
C383 C382 1.355 . S
C383 C385 1.419 . S
C384 C382 1.415 . S
C384 C389 1.425 . S
C384 C391 1.409 . S
C385 H377 0.930 . S
C385 C383 1.419 . S
C385 C386 1.362 . S
C386 H378 0.930 . S
C386 C385 1.362 . S
C386 C389 1.409 . S
C387 H379 0.930 . S
C387 C388 1.355 . S
C387 C389 1.415 . S
C388 C387 1.355 . S
C388 C390 1.419 . S
C389 C384 1.425 . S
C389 C386 1.409 . S
C389 C387 1.415 . S
C390 H380 0.930 . S
C390 C388 1.419 . S
C390 C391 1.362 . S
C391 H381 0.930 . S
C391 C384 1.409 . S
C391 C390 1.362 . S
H392 C398 0.930 . S
H393 C401 0.930 . S
H394 C402 0.930 . S
H395 C403 0.930 . S
H396 C406 0.930 . S
H397 C407 0.930 . S
C398 H392 0.930 . S
C398 C399 1.355 . S
C398 C400 1.415 . S
C399 C398 1.355 . S
C399 C401 1.419 1_554 S
C400 C398 1.415 . S
C400 C405 1.425 1_554 S
C400 C407 1.409 . S
C401 H393 0.930 . S
C401 C399 1.419 1_556 S
C401 C402 1.362 . S
C402 H394 0.930 . S
C402 C401 1.362 . S
C402 C405 1.409 . S
C403 H395 0.930 . S
C403 C404 1.355 . S
C403 C405 1.415 . S
C404 C403 1.355 . S
C404 C406 1.419 1_556 S
C405 C400 1.425 1_556 S
C405 C402 1.409 . S
C405 C403 1.415 . S
C406 H396 0.930 . S
C406 C404 1.419 1_554 S
C406 C407 1.362 . S
C407 H397 0.930 . S
C407 C400 1.409 . S
C407 C406 1.362 . S
H408 C414 0.930 . S
H409 C417 0.930 . S
H410 C418 0.930 . S
H411 C419 0.930 . S
H412 C422 0.930 . S
H413 C423 0.930 . S
C414 H408 0.930 . S
C414 C415 1.355 . S
C414 C416 1.415 . S
C415 C414 1.355 . S
C415 C417 1.419 . S
C416 C414 1.415 . S
C416 C421 1.425 . S
C416 C423 1.409 . S
C417 H409 0.930 . S
C417 C415 1.419 . S
C417 C418 1.362 . S
C418 H410 0.930 . S
C418 C417 1.362 . S
C418 C421 1.409 . S
C419 H411 0.930 . S
C419 C420 1.355 . S
C419 C421 1.415 . S
C420 C419 1.355 . S
C420 C422 1.419 . S
C421 C416 1.425 . S
C421 C418 1.409 . S
C421 C419 1.415 . S
C422 H412 0.930 . S
C422 C420 1.419 . S
C422 C423 1.362 . S
C423 H413 0.930 . S
C423 C416 1.409 . S
C423 C422 1.362 . S
H424 C430 0.930 . S
H425 C433 0.930 . S
H426 C434 0.930 . S
H427 C435 0.930 . S
H428 C438 0.930 . S
H429 C439 0.930 . S
C430 H424 0.930 . S
C430 C431 1.355 . S
C430 C432 1.415 . S
C431 C430 1.355 . S
C431 C433 1.419 . S
C432 C430 1.415 . S
C432 C437 1.425 . S
C432 C439 1.409 . S
C433 H425 0.930 . S
C433 C431 1.419 . S
C433 C434 1.362 . S
C434 H426 0.930 . S
C434 C433 1.362 . S
C434 C437 1.409 . S
C435 H427 0.930 . S
C435 C436 1.355 . S
C435 C437 1.415 . S
C436 C435 1.355 . S
C436 C438 1.419 . S
C437 C432 1.425 . S
C437 C434 1.409 . S
C437 C435 1.415 . S
C438 H428 0.930 . S
C438 C436 1.419 . S
C438 C439 1.362 . S
C439 H429 0.930 . S
C439 C432 1.409 . S
C439 C438 1.362 . S
H440 C446 0.930 . S
H441 C449 0.930 . S
H442 C450 0.930 . S
H443 C451 0.930 . S
H444 C454 0.930 . S
H445 C455 0.930 . S
C446 H440 0.930 . S
C446 C447 1.355 1_556 S
C446 C448 1.415 . S
C447 C446 1.355 1_554 S
C447 C449 1.419 . S
C448 C446 1.415 . S
C448 C453 1.425 1_556 S
C448 C455 1.409 . S
C449 H441 0.930 . S
C449 C447 1.419 . S
C449 C450 1.362 . S
C450 H442 0.930 . S
C450 C449 1.362 . S
C450 C453 1.409 . S
C451 H443 0.930 . S
C451 C452 1.355 1_554 S
C451 C453 1.415 . S
C452 C451 1.355 1_556 S
C452 C454 1.419 . S
C453 C448 1.425 1_554 S
C453 C450 1.409 . S
C453 C451 1.415 . S
C454 H444 0.930 . S
C454 C452 1.419 . S
C454 C455 1.362 . S
C455 H445 0.930 . S
C455 C448 1.409 . S
C455 C454 1.362 . S
H456 C462 0.930 . S
H457 C465 0.930 . S
H458 C466 0.930 . S
H459 C467 0.930 . S
H460 C470 0.930 . S
H461 C471 0.930 . S
C462 H456 0.930 . S
C462 C463 1.355 . S
C462 C464 1.415 . S
C463 C462 1.355 . S
C463 C465 1.419 1_545 S
C464 C462 1.415 . S
C464 C469 1.425 1_545 S
C464 C471 1.409 . S
C465 H457 0.930 . S
C465 C463 1.419 1_565 S
C465 C466 1.362 . S
C466 H458 0.930 . S
C466 C465 1.362 . S
C466 C469 1.409 . S
C467 H459 0.930 . S
C467 C468 1.355 . S
C467 C469 1.415 . S
C468 C467 1.355 . S
C468 C470 1.419 1_565 S
C469 C464 1.425 1_565 S
C469 C466 1.409 . S
C469 C467 1.415 . S
C470 H460 0.930 . S
C470 C468 1.419 1_545 S
C470 C471 1.362 . S
C471 H461 0.930 . S
C471 C464 1.409 . S
C471 C470 1.362 . S
H472 C478 0.930 . S
H473 C481 0.930 . S
H474 C482 0.930 . S
H475 C483 0.930 . S
H476 C486 0.930 . S
H477 C487 0.930 . S
C478 H472 0.930 . S
C478 C479 1.355 . S
C478 C480 1.415 . S
C479 C478 1.355 . S
C479 C481 1.419 . S
C480 C478 1.415 . S
C480 C485 1.425 . S
C480 C487 1.409 . S
C481 H473 0.930 . S
C481 C479 1.419 . S
C481 C482 1.362 . S
C482 H474 0.930 . S
C482 C481 1.362 . S
C482 C485 1.409 . S
C483 H475 0.930 . S
C483 C484 1.355 . S
C483 C485 1.415 . S
C484 C483 1.355 . S
C484 C486 1.419 . S
C485 C480 1.425 . S
C485 C482 1.409 . S
C485 C483 1.415 . S
C486 H476 0.930 . S
C486 C484 1.419 . S
C486 C487 1.362 . S
C487 H477 0.930 . S
C487 C480 1.409 . S
C487 C486 1.362 . S
H488 C494 0.929 . S
H489 C497 0.930 . S
H490 C498 0.930 . S
H491 C499 0.929 . S
H492 C502 0.930 . S
H493 C503 0.930 . S
C494 H488 0.929 . S
C494 C495 1.356 1_655 S
C494 C496 1.415 . S
C495 C494 1.356 1_455 S
C495 C497 1.419 . S
C496 C494 1.415 . S
C496 C501 1.425 1_655 S
C496 C503 1.409 . S
C497 H489 0.930 . S
C497 C495 1.419 . S
C497 C498 1.362 . S
C498 H490 0.930 . S
C498 C497 1.362 . S
C498 C501 1.409 . S
C499 H491 0.929 . S
C499 C500 1.355 1_455 S
C499 C501 1.415 . S
C500 C499 1.355 1_655 S
C500 C502 1.419 . S
C501 C496 1.425 1_455 S
C501 C498 1.409 . S
C501 C499 1.415 . S
C502 H492 0.930 . S
C502 C500 1.419 . S
C502 C503 1.362 . S
C503 H493 0.930 . S
C503 C496 1.409 . S
C503 C502 1.362 . S
H504 C510 0.930 . S
H505 C513 0.930 . S
H506 C514 0.930 . S
H507 C515 0.930 . S
H508 C518 0.930 . S
H509 C519 0.930 . S
C510 H504 0.930 . S
C510 C511 1.355 . S
C510 C512 1.415 . S
C511 C510 1.355 . S
C511 C513 1.419 1_565 S
C512 C510 1.415 . S
C512 C517 1.425 1_565 S
C512 C519 1.409 . S
C513 H505 0.930 . S
C513 C511 1.419 1_545 S
C513 C514 1.362 . S
C514 H506 0.930 . S
C514 C513 1.362 . S
C514 C517 1.409 . S
C515 H507 0.930 . S
C515 C516 1.355 . S
C515 C517 1.415 . S
C516 C515 1.355 . S
C516 C518 1.419 1_545 S
C517 C512 1.425 1_545 S
C517 C514 1.409 . S
C517 C515 1.415 . S
C518 H508 0.930 . S
C518 C516 1.419 1_565 S
C518 C519 1.362 . S
C519 H509 0.930 . S
C519 C512 1.409 . S
C519 C518 1.362 . S
H520 C526 0.930 . S
H521 C529 0.930 . S
H522 C530 0.930 . S
H523 C531 0.930 . S
H524 C534 0.930 . S
H525 C535 0.930 . S
C526 H520 0.930 . S
C526 C527 1.355 . S
C526 C528 1.415 . S
C527 C526 1.355 . S
C527 C529 1.419 . S
C528 C526 1.415 . S
C528 C533 1.425 . S
C528 C535 1.409 . S
C529 H521 0.930 . S
C529 C527 1.419 . S
C529 C530 1.362 . S
C530 H522 0.930 . S
C530 C529 1.362 . S
C530 C533 1.409 . S
C531 H523 0.930 . S
C531 C532 1.355 . S
C531 C533 1.415 . S
C532 C531 1.355 . S
C532 C534 1.419 . S
C533 C528 1.425 . S
C533 C530 1.409 . S
C533 C531 1.415 . S
C534 H524 0.930 . S
C534 C532 1.419 . S
C534 C535 1.362 . S
C535 H525 0.930 . S
C535 C528 1.409 . S
C535 C534 1.362 . S
H536 C542 0.930 . S
H537 C545 0.930 . S
H538 C546 0.930 . S
H539 C547 0.930 . S
H540 C550 0.930 . S
H541 C551 0.930 . S
C542 H536 0.930 . S
C542 C543 1.355 . S
C542 C544 1.415 . S
C543 C542 1.355 . S
C543 C545 1.419 1_655 S
C544 C542 1.415 . S
C544 C549 1.425 1_655 S
C544 C551 1.409 . S
C545 H537 0.930 . S
C545 C543 1.419 1_455 S
C545 C546 1.362 . S
C546 H538 0.930 . S
C546 C545 1.362 . S
C546 C549 1.409 . S
C547 H539 0.930 . S
C547 C548 1.355 . S
C547 C549 1.415 . S
C548 C547 1.355 . S
C548 C550 1.419 1_455 S
C549 C544 1.425 1_455 S
C549 C546 1.409 . S
C549 C547 1.415 . S
C550 H540 0.930 . S
C550 C548 1.419 1_655 S
C550 C551 1.362 . S
C551 H541 0.930 . S
C551 C544 1.409 . S
C551 C550 1.362 . S
C175 C11 1.735 . S
C180 C123 1.739 . S
C191 C25 1.734 . S
C196 C137 1.738 . S
C207 C151 1.735 . S
C212 C39 1.739 . S
C223 C165 1.739 . S
C228 C53 1.735 . S
C239 C95 1.732 . S
C244 C67 1.734 . S
C255 C109 1.739 . S
C260 C81 1.744 . S
C271 C9 1.583 . S
C276 C51 1.577 . S
C287 C65 1.590 . S
C292 C23 1.595 . S
C303 C79 1.589 . S
C308 C37 1.578 . S
C319 C93 1.590 . S
C324 C135 1.595 . S
C335 C149 1.593 . S
C340 C107 1.593 . S
C351 C121 1.579 . S
C356 C163 1.580 . S
C367 C84 0.936 . S
C372 C0 0.923 . S
C383 C14 0.981 . S
C388 C98 1.027 . S
C399 C112 0.922 . S
C404 C28 0.945 . S
C415 C126 0.993 . S
C420 C42 1.033 . S
C431 C56 1.017 . S
C436 C140 0.967 . S
C447 C154 1.033 . S
C452 C70 1.035 . S
C463 C5 1.093 . S
C468 C103 1.090 . S
C479 C117 1.088 . S
C484 C19 1.087 . S
C495 C131 1.126 . S
C500 C33 1.118 . S
C511 C47 1.093 . S
C516 C145 1.090 . S
C527 C159 1.149 . S
C532 C61 1.147 . S
C543 C89 1.090 . S
C548 C75 1.088 . S
