# Generated by pormake.
# Topology uny, (4)-cn, num edge types: 1
# Building blocks:
#     Node 0, Type 0, BuildingBlock: QUQFOY_clean_sbu_1, # of connection points: 4
#     Node 1, Type 0, BuildingBlock: QUQFOY_clean_sbu_1, # of connection points: 4
#     Node 2, Type 0, BuildingBlock: QUQFOY_clean_sbu_1, # of connection points: 4
#     Node 3, Type 0, BuildingBlock: QUQFOY_clean_sbu_1, # of connection points: 4
#     Node 4, Type 0, BuildingBlock: QUQFOY_clean_sbu_1, # of connection points: 4
#     Node 5, Type 0, BuildingBlock: QUQFOY_clean_sbu_1, # of connection points: 4
#     Node 6, Type 0, BuildingBlock: QUQFOY_clean_sbu_1, # of connection points: 4
#     Node 7, Type 0, BuildingBlock: QUQFOY_clean_sbu_1, # of connection points: 4
#     Node 8, Type 0, BuildingBlock: QUQFOY_clean_sbu_1, # of connection points: 4
#     Node 9, Type 0, BuildingBlock: QUQFOY_clean_sbu_1, # of connection points: 4
#     Node 10, Type 0, BuildingBlock: QUQFOY_clean_sbu_1, # of connection points: 4
#     Node 11, Type 0, BuildingBlock: QUQFOY_clean_sbu_1, # of connection points: 4
#     Node 12, Type 0, BuildingBlock: QUQFOY_clean_sbu_1, # of connection points: 4
#     Node 13, Type 0, BuildingBlock: QUQFOY_clean_sbu_1, # of connection points: 4
#     Node 14, Type 0, BuildingBlock: QUQFOY_clean_sbu_1, # of connection points: 4
#     Node 15, Type 0, BuildingBlock: QUQFOY_clean_sbu_1, # of connection points: 4
#     Node 16, Type 0, BuildingBlock: QUQFOY_clean_sbu_1, # of connection points: 4
#     Node 17, Type 0, BuildingBlock: QUQFOY_clean_sbu_1, # of connection points: 4
#     Edge 18, Type (0, 0), BuildingBlock: XIVTED_clean_linker_0, # of connection points: 2
#     Edge 19, Type (0, 0), BuildingBlock: XIVTED_clean_linker_0, # of connection points: 2
#     Edge 20, Type (0, 0), BuildingBlock: XIVTED_clean_linker_0, # of connection points: 2
#     Edge 21, Type (0, 0), BuildingBlock: XIVTED_clean_linker_0, # of connection points: 2
#     Edge 22, Type (0, 0), BuildingBlock: XIVTED_clean_linker_0, # of connection points: 2
#     Edge 23, Type (0, 0), BuildingBlock: XIVTED_clean_linker_0, # of connection points: 2
#     Edge 24, Type (0, 0), BuildingBlock: XIVTED_clean_linker_0, # of connection points: 2
#     Edge 25, Type (0, 0), BuildingBlock: XIVTED_clean_linker_0, # of connection points: 2
#     Edge 26, Type (0, 0), BuildingBlock: XIVTED_clean_linker_0, # of connection points: 2
#     Edge 27, Type (0, 0), BuildingBlock: XIVTED_clean_linker_0, # of connection points: 2
#     Edge 28, Type (0, 0), BuildingBlock: XIVTED_clean_linker_0, # of connection points: 2
#     Edge 29, Type (0, 0), BuildingBlock: XIVTED_clean_linker_0, # of connection points: 2
#     Edge 30, Type (0, 0), BuildingBlock: XIVTED_clean_linker_0, # of connection points: 2
#     Edge 31, Type (0, 0), BuildingBlock: XIVTED_clean_linker_0, # of connection points: 2
#     Edge 32, Type (0, 0), BuildingBlock: XIVTED_clean_linker_0, # of connection points: 2
#     Edge 33, Type (0, 0), BuildingBlock: XIVTED_clean_linker_0, # of connection points: 2
#     Edge 34, Type (0, 0), BuildingBlock: XIVTED_clean_linker_0, # of connection points: 2
#     Edge 35, Type (0, 0), BuildingBlock: XIVTED_clean_linker_0, # of connection points: 2
#     Edge 36, Type (0, 0), BuildingBlock: XIVTED_clean_linker_0, # of connection points: 2
#     Edge 37, Type (0, 0), BuildingBlock: XIVTED_clean_linker_0, # of connection points: 2
#     Edge 38, Type (0, 0), BuildingBlock: XIVTED_clean_linker_0, # of connection points: 2
#     Edge 39, Type (0, 0), BuildingBlock: XIVTED_clean_linker_0, # of connection points: 2
#     Edge 40, Type (0, 0), BuildingBlock: XIVTED_clean_linker_0, # of connection points: 2
#     Edge 41, Type (0, 0), BuildingBlock: XIVTED_clean_linker_0, # of connection points: 2
#     Edge 42, Type (0, 0), BuildingBlock: XIVTED_clean_linker_0, # of connection points: 2
#     Edge 43, Type (0, 0), BuildingBlock: XIVTED_clean_linker_0, # of connection points: 2
#     Edge 44, Type (0, 0), BuildingBlock: XIVTED_clean_linker_0, # of connection points: 2
#     Edge 45, Type (0, 0), BuildingBlock: XIVTED_clean_linker_0, # of connection points: 2
#     Edge 46, Type (0, 0), BuildingBlock: XIVTED_clean_linker_0, # of connection points: 2
#     Edge 47, Type (0, 0), BuildingBlock: XIVTED_clean_linker_0, # of connection points: 2
#     Edge 48, Type (0, 0), BuildingBlock: XIVTED_clean_linker_0, # of connection points: 2
#     Edge 49, Type (0, 0), BuildingBlock: XIVTED_clean_linker_0, # of connection points: 2
#     Edge 50, Type (0, 0), BuildingBlock: XIVTED_clean_linker_0, # of connection points: 2
#     Edge 51, Type (0, 0), BuildingBlock: XIVTED_clean_linker_0, # of connection points: 2
#     Edge 52, Type (0, 0), BuildingBlock: XIVTED_clean_linker_0, # of connection points: 2
#     Edge 53, Type (0, 0), BuildingBlock: XIVTED_clean_linker_0, # of connection points: 2
# Relax obj value: 0.072
# Max RMSD: 0.472
# Mean RMSD: 0.335
data_MOF--net-uny--node1-QUQFOY_clean_sbu_1--edge1-XIVTED_clean_linker_0
_symmetry_space_group_name_H-M    P1
_symmetry_Int_Tables_number       1
_symmetry_cell_setting            triclinic
loop_
_symmetry_equiv_pos_as_xyz
'x, y, z'
_cell_length_a     47.054967
_cell_length_b     47.543088
_cell_length_c     5.9017415
_cell_angle_alpha  81.945331
_cell_angle_beta   91.698375
_cell_angle_gamma 120.19852
loop_
_atom_site_label
_atom_site_type_symbol
_atom_site_fract_x
_atom_site_fract_y
_atom_site_fract_z
_atom_type_partial_charge
O0 O 0.02679 0.17616 0.67694 0.0
Cd1 Cd 0.03672 0.225 0.52691 0.0
Cd2 Cd 0.0486 0.2182 0.9017 0.0
O3 O 0.02812 0.17559 0.67975 0.0
O4 O 0.99442 0.21645 0.38074 0.0
O5 O 1.01096 0.23977 0.69672 0.0
C6 C 0.98787 0.22622 0.55664 0.0
C7 C 0.09729 0.27126 0.80904 0.0
C8 C 0.99847 0.15516 0.62721 0.0
C9 C 0.08338 0.22064 0.32666 0.0
O10 O 0.0567 0.20335 0.23479 0.0
O11 O 0.08611 0.24632 0.3895 0.0
O12 O 0.09496 0.24382 0.79809 0.0
O13 O 0.07017 0.2704 0.84924 0.0
O14 O 0.85108 0.89598 0.68703 0.0
Cd15 Cd 0.83137 0.84894 0.66601 0.0
Cd16 Cd 0.86024 0.83769 0.42741 0.0
O17 O 0.88422 0.89107 0.46361 0.0
O18 O 0.78257 0.83095 0.62206 0.0
O19 O 0.81947 0.85777 0.33607 0.0
C20 C 0.78989 0.84699 0.41596 0.0
C21 C 0.83496 0.78615 0.35018 0.0
C22 C 0.87818 0.9093 0.57183 0.0
C23 C 0.89742 0.84358 0.76054 0.0
O24 O 0.89261 0.82944 0.58913 0.0
O25 O 0.87611 0.85093 0.81895 0.0
O26 O 0.85374 0.81039 0.19325 0.0
O27 O 0.82283 0.7924 0.51971 0.0
O28 O 0.23224 0.08404 0.46446 0.0
Cd29 Cd 0.21933 0.03914 0.40825 0.0
Cd30 Cd 0.20386 1.00639 0.76047 0.0
O31 O 0.19704 0.05129 0.73676 0.0
O32 O 0.23835 0.05376 0.08426 0.0
O33 O 0.26713 0.05086 0.37982 0.0
C34 C 0.26685 0.06322 0.17036 0.0
C35 C 0.23025 0.97779 0.79918 0.0
C36 C 0.20872 0.07773 0.59215 0.0
C37 C 0.14467 0.98017 0.62575 0.0
O38 O 0.15893 0.96559 0.71433 0.0
O39 O 0.16355 1.00903 0.52708 0.0
O40 O 0.22184 0.98491 -0.01823 0.0
O41 O 0.23149 0.99431 0.60219 0.0
O42 O 0.0873 0.90945 0.31884 0.0
Cd43 Cd 0.06499 0.86225 0.43939 0.0
Cd44 Cd 0.06062 0.8667 0.04717 0.0
O45 O 0.11274 0.90478 0.04876 0.0
O46 O 0.1026 0.86336 0.62266 0.0
O47 O 0.08979 0.84398 0.2914 0.0
C48 C 0.11056 0.85417 0.44943 0.0
C49 C 0.02131 0.81129 -0.00308 0.0
C50 C 0.11098 0.92324 0.17828 0.0
C51 C 1.01476 0.87792 0.28819 0.0
O52 O 0.03516 0.88905 0.12157 0.0
O53 O 1.01589 0.85677 0.44396 0.0
O54 O 0.03574 0.83429 0.82508 0.0
O55 O 0.0318 0.81833 0.19647 0.0
O56 O 0.22158 0.18884 0.07059 0.0
Cd57 Cd 0.24124 0.23439 -0.06411 0.0
Cd58 Cd 0.21418 0.24342 0.24844 0.0
O59 O 0.2138 0.19938 0.40667 0.0
O60 O 0.2825 0.23159 0.90973 0.0
O61 O 0.27161 0.24929 0.20536 0.0
C62 C 0.28952 0.23981 0.11384 0.0
C63 C 0.22559 0.29508 0.31435 0.0
C64 C 0.21299 0.17917 0.27904 0.0
C65 C 0.16482 0.20553 -0.04402 0.0
O66 O 0.17253 0.22798 0.07562 0.0
O67 O 0.18875 0.20519 0.86228 0.0
O68 O 0.20795 0.26917 0.46055 0.0
O69 O 0.24253 0.29276 0.15651 0.0
O70 O 0.8449 0.97149 0.18639 0.0
Cd71 Cd 0.84604 1.00724 0.34037 0.0
Cd72 Cd 0.85659 0.04346 -0.02303 0.0
O73 O 0.88039 0.01404 -0.03672 0.0
O74 O 0.83557 0.98279 0.65673 0.0
O75 O 0.7984 0.98769 0.45086 0.0
C76 C 0.80524 0.97184 0.61935 0.0
C77 C 0.84429 0.08103 0.10156 0.0
C78 C 0.87007 0.98461 0.05717 0.0
C79 C 0.9156 0.0719 0.14743 0.0
O80 O 0.9031 0.07662 -0.03445 0.0
O81 O 0.89703 0.04938 0.30947 0.0
O82 O 0.84638 0.07955 0.88504 0.0
O83 O 0.84449 0.05816 0.24782 0.0
O84 O 0.75137 0.54774 0.1493 0.0
Cd85 Cd 0.73689 0.57944 0.18332 0.0
Cd86 Cd 0.7281 0.58118 0.76315 0.0
O87 O 0.76537 0.56647 0.78659 0.0
O88 O 0.7731 0.61114 0.36097 0.0
O89 O 0.76727 0.62267 -0.01041 0.0
C90 C 0.78511 0.63013 0.16636 0.0
C91 C 0.68762 0.5946 0.68853 0.0
C92 C 0.76501 0.54799 -0.02992 0.0
C93 C 0.67844 0.52584 0.06674 0.0
O94 O 0.69496 0.53658 0.88002 0.0
O95 O 0.68626 0.54438 0.22236 0.0
O96 O 0.69877 0.58567 0.53003 0.0
O97 O 0.70442 0.60267 0.87096 0.0
O98 O 0.52056 0.22749 0.08243 0.0
Cd99 Cd 0.50544 0.18487 0.30247 0.0
Cd100 Cd 0.52868 0.16687 -0.02021 0.0
O101 O 0.56019 0.22115 -0.00708 0.0
O102 O 0.4851 0.19417 0.56516 0.0
O103 O 0.45451 0.15851 0.34016 0.0
C104 C 0.4563 0.17606 0.49433 0.0
C105 C 0.51214 0.11521 0.87902 0.0
C106 C 0.55145 0.24008 0.05764 0.0
C107 C 0.57244 0.18153 0.29884 0.0
O108 O 0.56065 0.16034 0.1684 0.0
O109 O 0.55353 0.19041 0.38089 0.0
O110 O 0.49676 0.11773 0.04718 0.0
O111 O 0.53122 0.14196 0.74245 0.0
O112 O 0.83356 0.306 0.24745 0.0
Cd113 Cd 0.87737 0.34166 0.32417 0.0
Cd114 Cd 0.8958 0.38285 0.01082 0.0
O115 O 0.8405 0.35045 0.04603 0.0
O116 O 0.89018 0.31338 0.52297 0.0
O117 O 0.90401 0.32956 0.14783 0.0
C118 C 0.89973 0.30906 0.332 0.0
C119 C 0.95103 0.41304 -0.04507 0.0
C120 C 0.82085 0.32117 0.14184 0.0
C121 C 0.87474 0.41023 0.2449 0.0
O122 O 0.89753 0.42195 0.09752 0.0
O123 O 0.86586 0.38161 0.35525 0.0
O124 O 0.9323 0.40832 0.77958 0.0
O125 O 0.93851 0.39332 0.14696 0.0
O126 O 0.73664 0.22261 0.85728 0.0
Cd127 Cd 0.7098 0.17343 0.92537 0.0
Cd128 Cd 0.70466 0.17869 0.53077 0.0
O129 O 0.75414 0.21894 0.53077 0.0
O130 O 0.74199 0.16434 0.11394 0.0
O131 O 0.7336 0.15611 0.75291 0.0
C132 C 0.75137 0.15908 -0.07261 0.0
C133 C 0.66132 0.12542 0.47009 0.0
C134 C 0.75647 0.23647 0.6855 0.0
C135 C 0.66018 0.18843 0.76169 0.0
O136 O 0.68376 0.20288 0.61753 0.0
O137 O 0.65928 0.16538 0.90851 0.0
O138 O 0.67632 0.14908 0.30336 0.0
O139 O 0.6734 0.13017 0.66936 0.0
O140 O 0.82281 0.54324 0.57978 0.0
Cd141 Cd 0.86734 0.55128 0.68728 0.0
Cd142 Cd 0.88838 0.53514 0.43023 0.0
O143 O 0.8308 0.50728 0.45952 0.0
O144 O 0.88207 0.58607 0.88791 0.0
O145 O 0.89498 0.59657 0.51439 0.0
C146 C 0.89163 0.6067 0.69943 0.0
C147 C 0.9445 0.56588 0.37108 0.0
C148 C 0.81025 0.51525 0.52091 0.0
C149 C 0.87017 0.48286 0.70092 0.0
O150 O 0.89418 0.49754 0.56161 0.0
O151 O 0.85893 0.4999 0.76997 0.0
O152 O 0.92586 0.55369 0.20162 0.0
O153 O 0.93077 0.56765 0.55271 0.0
O154 O 0.52414 0.32577 0.30885 0.0
Cd155 Cd 0.49099 0.33942 0.27492 0.0
Cd156 Cd 0.51368 0.37009 0.87992 0.0
O157 O 0.53692 0.3391 -0.06226 0.0
O158 O 0.44739 0.29726 0.35657 0.0
O159 O 0.46531 0.31953 -0.00251 0.0
C160 C 0.4444 0.29483 0.13935 0.0
C161 C 0.5047 0.41421 0.9192 0.0
C162 C 0.54113 0.32764 0.1401 0.0
C163 C 0.54966 0.40249 0.2428 0.0
O164 O 0.5509 0.39195 0.06397 0.0
O165 O 0.52283 0.38778 0.36706 0.0
O166 O 0.52227 0.4156 0.74849 0.0
O167 O 0.48601 0.38536 0.03545 0.0
O168 O 0.33338 0.85065 0.11582 0.0
Cd169 Cd 0.37303 0.89227 -0.0072 0.0
Cd170 Cd 0.37722 0.88709 0.39363 0.0
O171 O 0.32564 0.86168 0.44088 0.0
O172 O 0.3455 0.90478 0.78623 0.0
O173 O 0.36161 0.92274 0.12093 0.0
C174 C 0.34104 0.91664 -0.04059 0.0
C175 C 0.42802 0.93632 0.44934 0.0
C176 C 0.31604 0.84135 0.29592 0.0
C177 C 0.39927 0.8494 0.19286 0.0
O178 O 0.37811 0.8469 0.32669 0.0
O179 O 0.40942 0.87401 0.03076 0.0
O180 O 0.41168 0.91337 0.61851 0.0
O181 O 0.41561 0.93211 0.25103 0.0
O182 O 0.21749 0.57942 0.56774 0.0
Cd183 Cd 0.18909 0.53294 0.69985 0.0
Cd184 Cd 0.1945 0.53154 0.31806 0.0
O185 O 0.18516 0.57198 0.28912 0.0
O186 O 0.15526 0.53763 0.87244 0.0
O187 O 0.14408 0.51423 0.55733 0.0
C188 C 0.13571 0.52653 0.70651 0.0
C189 C 0.17723 0.47864 0.23948 0.0
C190 C 0.20668 0.59152 0.4141 0.0
C191 C 0.25181 0.54182 0.58174 0.0
O192 O 0.24236 0.55031 0.39679 0.0
O193 O 0.23031 0.52527 0.74715 0.0
O194 O 0.18794 0.50368 0.08112 0.0
O195 O 0.17106 0.48237 0.44169 0.0
O196 O 0.59449 0.75343 0.2314 0.0
Cd197 Cd 0.59729 0.71285 0.26363 0.0
Cd198 Cd 0.5757 0.67388 0.55827 0.0
O199 O 0.57263 0.72106 0.55283 0.0
O200 O 0.64817 0.74579 0.23652 0.0
O201 O 0.625 0.72027 0.56861 0.0
C202 C 0.65063 0.74345 0.45529 0.0
C203 C 0.58539 0.63822 0.36015 0.0
C204 C 0.57849 0.74726 0.41356 0.0
C205 C 0.51848 0.65718 0.50099 0.0
O206 O 0.53066 0.64522 0.65257 0.0
O207 O 0.53766 0.67964 0.33247 0.0
O208 O 0.5994 0.64764 0.54876 0.0
O209 O 0.5712 0.65342 0.26227 0.0
O210 O 0.4248 0.56796 0.08558 0.0
Cd211 Cd 0.40347 0.52093 0.19189 0.0
Cd212 Cd 0.36678 0.50672 0.86513 0.0
O213 O 0.40713 0.55511 0.74775 0.0
O214 O 0.44966 0.52956 0.23283 0.0
O215 O 0.42252 0.51063 0.9248 0.0
C216 C 0.44998 0.52249 0.02852 0.0
C217 C 0.33342 0.46179 0.68061 0.0
C218 C 0.42401 0.57696 0.87721 0.0
C219 C 0.34387 0.53311 0.15811 0.0
O220 O 0.33208 0.51024 0.0379 0.0
O221 O 0.37227 0.54174 0.23623 0.0
O222 O 0.34196 0.49117 0.5896 0.0
O223 O 0.34978 0.45837 0.85135 0.0
O224 O 0.60195 0.86525 0.31683 0.0
Cd225 Cd 0.58112 0.89181 0.18036 0.0
Cd226 Cd 0.57001 0.90145 0.58444 0.0
O227 O 0.58878 0.86638 0.66513 0.0
O228 O 0.6138 0.91519 0.91631 0.0
O229 O 0.61603 0.93673 0.22958 0.0
C230 C 0.63158 0.93443 0.06103 0.0
C231 C 0.57331 0.94425 0.77853 0.0
C232 C 0.60076 0.85543 0.528 0.0
C233 C 0.50805 0.86909 0.3107 0.0
O234 O 0.52214 0.88207 0.48409 0.0
O235 O 0.52595 0.86732 0.1596 0.0
O236 O 0.55688 0.91376 0.85835 0.0
O237 O 0.59195 0.95192 0.59748 0.0
O238 O 0.19444 0.64379 -0.05016 0.0
Cd239 Cd 0.18659 0.67978 0.01849 0.0
Cd240 Cd 0.20341 0.71979 0.72133 0.0
O241 O 0.23038 0.68943 0.7613 0.0
O242 O 0.1477 0.65492 0.23692 0.0
O243 O 0.14422 0.66338 0.85803 0.0
C244 C 0.13061 0.6464 0.05608 0.0
C245 C 0.16927 0.74075 0.71041 0.0
C246 C 0.22258 0.66051 0.85606 0.0
C247 C 0.25573 0.75439 0.90286 0.0
O248 O 0.24085 0.76431 0.76923 0.0
O249 O 0.23883 0.72509 0.01115 0.0
O250 O 0.17768 0.73483 0.5216 0.0
O251 O 0.17204 0.72557 0.90347 0.0
H252 H 0.28412 0.46979 0.50429 0.0
H253 H 0.15513 0.27218 0.82048 0.0
H254 H 0.30752 0.39522 0.78255 0.0
H255 H 0.11613 0.33787 0.75061 0.0
H256 H 0.21031 0.31875 0.78352 0.0
H257 H 0.23259 0.40279 0.64751 0.0
C258 C 0.27632 0.44455 0.57221 0.0
C259 C 0.29966 0.43525 0.64662 0.0
C260 C 0.18981 0.32308 0.77663 0.0
C261 C 0.23183 0.38648 0.69566 0.0
C262 C 0.15797 0.2964 0.79711 0.0
C263 C 0.13057 0.30091 0.78643 0.0
C264 C 0.19473 0.35486 0.74038 0.0
C265 C 0.13642 0.3332 0.75779 0.0
C266 C 0.24262 0.42298 0.59677 0.0
C267 C 0.28949 0.40219 0.72747 0.0
N268 N 0.16802 0.35908 0.73355 0.0
N269 N 0.25709 0.37867 0.74817 0.0
H270 H 0.81288 0.91142 0.3134 0.0
H271 H 0.6508 0.91868 0.47177 0.0
H272 H 0.72499 0.81917 0.2819 0.0
H273 H 0.68288 0.94796 0.76171 0.0
H274 H 0.68312 0.8928 0.52696 0.0
H275 H 0.74998 0.90922 0.22223 0.0
C276 C 0.78679 0.89784 0.28797 0.0
C277 C 0.7707 0.86323 0.31769 0.0
C278 C 0.68531 0.90621 0.36162 0.0
C279 C 0.73215 0.89522 0.21782 0.0
C280 C 0.66618 0.9212 0.32899 0.0
C281 C 0.66295 0.93461 0.10978 0.0
C282 C 0.70559 0.90859 0.18145 0.0
C283 C 0.68384 0.93723 -0.06636 0.0
C284 C 0.77047 0.91582 0.23723 0.0
C285 C 0.73679 0.84545 0.27671 0.0
N286 N 0.70463 0.92506 -0.02439 0.0
N287 N 0.71812 0.86037 0.23525 0.0
H288 H 0.27461 0.9605 0.69215 0.0
H289 H 0.1299 0.76115 0.9027 0.0
H290 H 0.17262 0.92202 0.88185 0.0
H291 H 0.22229 0.79749 0.53948 0.0
H292 H 0.14613 0.81895 -0.06948 0.0
H293 H 0.22739 0.88986 0.74773 0.0
C294 C 0.25014 0.93957 0.73381 0.0
C295 C 0.22471 0.94437 0.7995 0.0
C296 C 0.16327 0.81381 0.85403 0.0
C297 C 0.20875 0.87847 0.78152 0.0
C298 C 0.15364 0.78102 0.83153 0.0
C299 C 0.17467 0.77436 0.71433 0.0
C300 C 0.19507 0.83947 0.77477 0.0
C301 C 0.20534 0.80107 0.63032 0.0
C302 C 0.24494 0.90826 0.71957 0.0
C303 C 0.19212 0.91764 0.8404 0.0
N304 N 0.21495 0.83196 0.66789 0.0
N305 N 0.18429 0.88595 0.83726 0.0
H306 H 0.45579 0.24476 0.10455 0.0
H307 H 0.26583 0.11582 0.92462 0.0
H308 H 0.38275 0.27281 -0.03674 0.0
H309 H 0.3337 0.08618 0.2095 0.0
H310 H 0.31008 0.173 0.87532 0.0
H311 H 0.41451 0.1876 0.06271 0.0
C312 C 0.43089 0.23878 0.06601 0.0
C313 C 0.42173 0.26278 0.05837 0.0
C314 C 0.31563 0.15404 -0.05682 0.0
C315 C 0.3744 0.19752 0.00706 0.0
C316 C 0.29026 0.12109 -0.0298 0.0
C317 C 0.2957 0.09579 0.07428 0.0
C318 C 0.34738 0.16212 0.01176 0.0
C319 C 0.32817 0.10466 0.12904 0.0
C320 C 0.40726 0.20605 0.04503 0.0
C321 C 0.39013 0.25444 -0.01238 0.0
N322 N 0.35273 0.13692 0.09485 0.0
N323 N 0.36741 0.22243 -0.03069 0.0
H324 H 0.77418 0.11877 0.81993 0.0
H325 H 0.96432 0.26571 0.66484 0.0
H326 H 0.80627 0.21848 0.90988 0.0
H327 H 0.93376 0.16519 0.60993 0.0
H328 H 0.90669 0.24893 0.75477 0.0
H329 H 0.83182 0.13511 0.73058 0.0
C330 C 0.79343 0.14399 0.82388 0.0
C331 C 0.78579 0.16686 0.88737 0.0
C332 C 0.91255 0.23043 0.725 0.0
C333 C 0.85163 0.18626 0.77313 0.0
C334 C 0.94545 0.24011 0.67173 0.0
C335 C 0.95352 0.21708 0.61811 0.0
C336 C 0.88752 0.19731 0.72977 0.0
C337 C 0.92834 0.18402 0.63941 0.0
C338 C 0.82629 0.15348 0.76919 0.0
C339 C 0.81136 0.19963 0.8751 0.0
N340 N 0.89658 0.1752 0.69106 0.0
N341 N 0.84295 0.20827 0.82073 0.0
H342 H 0.9351 0.67404 0.6134 0.0
H343 H 0.79116 0.7204 0.51548 0.0
H344 H 0.83212 0.60166 0.71962 0.0
H345 H 0.89262 0.78794 0.29337 0.0
H346 H 0.80506 0.6767 0.6171 0.0
H347 H 0.9202 0.71724 0.54432 0.0
C348 C 0.90947 0.6673 0.62508 0.0
C349 C 0.88484 0.63427 0.67679 0.0
C350 C 0.82433 0.70127 0.54939 0.0
C351 C 0.86744 0.68341 0.59004 0.0
C352 C 0.81623 0.726 0.48757 0.0
C353 C 0.8405 0.75767 0.39015 0.0
C354 C 0.85734 0.70881 0.52715 0.0
C355 C 0.87283 0.76373 0.36289 0.0
C356 C 0.90088 0.69189 0.58398 0.0
C357 C 0.8519 0.62687 0.68678 0.0
N358 N 0.88028 0.73984 0.43379 0.0
N359 N 0.84415 0.65108 0.64396 0.0
H360 H 0.83764 0.6211 0.20492 0.0
H361 H 0.97269 0.805 0.7116 0.0
H362 H 0.8126 0.6967 0.03329 0.0
H363 H 0.99597 0.74891 0.24214 0.0
H364 H 0.91473 0.76277 0.76833 0.0
H365 H 0.89641 0.66307 0.13914 0.0
C366 C 0.84463 0.6467 0.1577 0.0
C367 C 0.82041 0.65577 0.13436 0.0
C368 C 0.93261 0.75892 0.86468 0.0
C369 C 0.88749 0.7038 0.05555 0.0
C370 C 0.96582 0.78329 0.83455 0.0
C371 C 0.9892 0.78107 -0.02343 0.0
C372 C 0.92297 0.73016 0.01995 0.0
C373 C 0.97877 0.7518 0.12923 0.0
C374 C 0.87811 0.67055 0.11928 0.0
C375 C 0.83059 0.68886 0.05958 0.0
N376 N 0.94659 0.72718 0.14294 0.0
N377 N 0.86332 0.71169 0.02324 0.0
H378 H 0.34698 0.27866 0.3356 0.0
H379 H 0.38879 0.13251 0.5196 0.0
H380 H 0.28048 0.17905 0.23665 0.0
H381 H 0.46026 0.2329 0.58467 0.0
H382 H 0.34524 0.14685 0.51775 0.0
H383 H 0.38468 0.26106 0.51548 0.0
C384 C 0.33998 0.25297 0.35418 0.0
C385 C 0.31126 0.23045 0.25674 0.0
C386 C 0.37059 0.16589 0.52844 0.0
C387 C 0.35378 0.20977 0.46931 0.0
C388 C 0.39541 0.15752 0.53381 0.0
C389 C 0.42856 0.18167 0.54491 0.0
C390 C 0.37889 0.199 0.52228 0.0
C391 C 0.43531 0.21358 0.56771 0.0
C392 C 0.36139 0.24278 0.45944 0.0
C393 C 0.30304 0.19739 0.29523 0.0
N394 N 0.41103 0.22151 0.54874 0.0
N395 N 0.32407 0.18809 0.39491 0.0
H396 H 0.90452 0.13363 0.11218 0.0
H397 H 0.84062 0.25376 0.38798 0.0
H398 H 0.8027 0.10022 0.26461 0.0
H399 H 0.94167 0.28838 0.19574 0.0
H400 H 0.82637 0.19817 0.33863 0.0
H401 H 0.91906 0.18912 0.17088 0.0
C402 C 0.88525 0.13795 0.16205 0.0
C403 C 0.85229 0.11266 0.1758 0.0
C404 C 0.85175 0.21775 0.30776 0.0
C405 C 0.86873 0.17641 0.24509 0.0
C406 C 0.85998 0.24956 0.33785 0.0
C407 C 0.89266 0.27556 0.30512 0.0
C408 C 0.87646 0.21122 0.252 0.0
C409 C 0.91637 0.26884 0.23062 0.0
C410 C 0.89357 0.16967 0.19615 0.0
C411 C 0.82836 0.11931 0.24629 0.0
N412 N 0.90796 0.2372 0.21198 0.0
N413 N 0.83698 0.15069 0.27449 0.0
H414 H 0.81748 0.92248 0.80563 0.0
H415 H 0.64132 0.794 0.46434 0.0
H416 H 0.73914 0.94086 0.61614 0.0
H417 H 0.70793 0.76087 0.70835 0.0
H418 H 0.67198 0.84247 0.64504 0.0
H419 H 0.77823 0.86341 0.86169 0.0
C420 C 0.79191 0.91412 0.77586 0.0
C421 C 0.78138 0.93693 0.70737 0.0
C422 C 0.68046 0.82509 0.65989 0.0
C423 C 0.73604 0.86828 0.76359 0.0
C424 C 0.66245 0.79685 0.55732 0.0
C425 C 0.67206 0.77334 0.56564 0.0
C426 C 0.71101 0.83254 0.74918 0.0
C427 C 0.70013 0.77891 0.68911 0.0
C428 C 0.76943 0.88 0.80425 0.0
C429 C 0.74807 0.92436 0.67872 0.0
N430 N 0.71935 0.80853 0.76851 0.0
N431 N 0.72687 0.89123 0.70938 0.0
H432 H 0.16456 0.91524 0.39295 0.0
H433 H 0.2842 0.85868 -0.04092 0.0
H434 H 0.13408 0.81437 0.35476 0.0
H435 H 0.32134 0.95562 0.13668 0.0
H436 H 0.23163 0.84082 0.15144 0.0
H437 H 0.22161 0.93093 0.29843 0.0
C438 C 0.17006 0.89624 0.3697 0.0
C439 C 0.14503 0.86308 0.39902 0.0
C440 C 0.2509 0.86624 0.14424 0.0
C441 C 0.21029 0.88098 0.28162 0.0
C442 C 0.28111 0.87656 0.03312 0.0
C443 C 0.30729 0.90904 0.02543 0.0
C444 C 0.24496 0.88948 0.22253 0.0
C445 C 0.30157 0.93075 0.12911 0.0
C446 C 0.20268 0.90525 0.31546 0.0
C447 C 0.15299 0.83995 0.34723 0.0
N448 N 0.27076 0.92097 0.21539 0.0
N449 N 0.18483 0.84929 0.29183 0.0
H450 H 0.16568 0.2901 0.29886 0.0
H451 H 0.22813 0.48084 0.02415 0.0
H452 H 0.26874 0.36275 0.24235 0.0
H453 H 0.13569 0.41212 0.38772 0.0
H454 H 0.24075 0.43715 0.02649 0.0
H455 H 0.15176 0.33289 0.25653 0.0
C456 C 0.18556 0.31499 0.2857 0.0
C457 C 0.21851 0.32249 0.28878 0.0
C458 C 0.21708 0.43123 0.09645 0.0
C459 C 0.2025 0.37255 0.21829 0.0
C460 C 0.20987 0.45628 0.09646 0.0
C461 C 0.18076 0.45025 0.20456 0.0
C462 C 0.19433 0.39928 0.19685 0.0
C463 C 0.15837 0.4179 0.30142 0.0
C464 C 0.17743 0.33963 0.25504 0.0
C465 C 0.24301 0.35573 0.2476 0.0
N466 N 0.16546 0.39353 0.29275 0.0
N467 N 0.23452 0.37959 0.21342 0.0
H468 H 0.94942 0.46916 0.85725 0.0
H469 H 0.1356 0.59191 0.13514 0.0
H470 H 1.0144 0.43394 0.10872 0.0
H471 H 0.06427 0.62226 -0.0227 0.0
H472 H 0.09241 0.53441 0.13594 0.0
H473 H 0.99 0.52395 -0.06955 0.0
C474 C 0.97269 0.47308 0.9219 0.0
C475 C 0.97884 0.44692 -0.0318 0.0
C476 C 0.08598 0.55346 0.10409 0.0
C477 C 0.02677 0.51095 0.04291 0.0
C478 C 0.11066 0.5864 0.10345 0.0
C479 C 0.1033 0.61186 0.0634 0.0
C480 C 0.05359 0.54576 0.05795 0.0
C481 C 0.07087 0.60339 0.01487 0.0
C482 C 0.99593 0.50456 -0.03521 0.0
C483 C 1.00908 0.4536 0.06175 0.0
N484 N 0.04732 0.57116 0.01319 0.0
N485 N 0.03222 0.48508 0.09143 0.0
H486 H 0.49976 0.58483 0.91262 0.0
H487 H 0.63459 0.53595 0.63008 0.0
H488 H 0.47348 0.48594 0.85407 0.0
H489 H 0.65978 0.63177 0.77727 0.0
H490 H 0.57629 0.51816 0.67922 0.0
H491 H 0.55716 0.60321 0.82131 0.0
C492 C 0.50607 0.56707 0.87519 0.0
C493 C 0.48213 0.5336 0.90545 0.0
C494 C 0.59437 0.54289 0.70485 0.0
C495 C 0.5486 0.55459 0.79163 0.0
C496 C 0.62783 0.55342 0.67056 0.0
C497 C 0.65229 0.58569 0.69494 0.0
C498 C 0.58464 0.56485 0.75792 0.0
C499 C 0.64187 0.60686 0.75257 0.0
C500 C 0.53913 0.57761 0.82259 0.0
C501 C 0.49151 0.51179 0.84533 0.0
N502 N 0.609 0.59624 0.77806 0.0
N503 N 0.52402 0.5225 0.79538 0.0
H504 H 0.46971 0.04846 0.84112 0.0
H505 H 0.61543 1.01031 0.79884 0.0
H506 H 0.56866 0.11675 -0.00278 0.0
H507 H 0.51612 0.93208 -0.01566 0.0
H508 H 0.59957 0.04994 0.881 0.0
H509 H 0.48459 1.0048 0.88703 0.0
C510 C 0.49479 0.05473 0.87542 0.0
C511 C 0.51871 0.08729 0.8972 0.0
C512 C 0.58115 0.02406 0.90252 0.0
C513 C 0.53623 0.03798 -0.06104 0.0
C514 C 0.59035 1.00146 0.85727 0.0
C515 C 0.56676 0.96805 0.8734 0.0
C516 C 0.54779 0.01347 -0.0491 0.0
C517 C 0.5349 0.95786 -0.0392 0.0
C518 C 0.50335 0.02989 0.90013 0.0
C519 C 0.55038 0.09342 -0.04748 0.0
N520 N 0.526 0.98049 -0.01086 0.0
N521 N 0.55838 0.06955 -0.03536 0.0
H522 H 0.44816 1.00231 0.35709 0.0
H523 H 0.64133 0.06323 0.36542 0.0
H524 H 0.48377 0.93727 0.61398 0.0
H525 H 0.60395 0.12369 0.54235 0.0
H526 H 0.58408 0.01736 0.36586 0.0
H527 H 0.50482 0.04913 0.36157 0.0
C528 C 0.46792 0.99763 0.40626 0.0
C529 C 0.46123 0.96528 0.47304 0.0
C530 C 0.58849 0.04127 0.39252 0.0
C531 C 0.52667 0.01843 0.44587 0.0
C532 C 0.62116 0.06729 0.39513 0.0
C533 C 0.62745 0.09775 0.44668 0.0
C534 C 0.56193 0.04605 0.43373 0.0
C535 C 0.60032 0.10138 0.48854 0.0
C536 C 0.50031 0.02429 0.40422 0.0
C537 C 0.48784 0.96099 0.53856 0.0
N538 N 0.56893 0.07623 0.47659 0.0
N539 N 0.51934 0.98684 0.51222 0.0
H540 H 0.94939 0.51266 0.34094 0.0
H541 H 0.13871 0.58584 0.65635 0.0
H542 H 1.00804 0.61193 0.48639 0.0
H543 H 0.07067 0.48334 0.63269 0.0
H544 H 0.09385 0.5978 0.57235 0.0
H545 H 0.99415 0.50284 0.44601 0.0
C546 C 0.97216 0.53288 0.38748 0.0
C547 C 0.97496 0.56344 0.39847 0.0
C548 C 0.08857 0.57265 0.58833 0.0
C549 C 0.02804 0.5527 0.50859 0.0
C550 C 0.11421 0.56579 0.6357 0.0
C551 C 0.10814 0.53333 0.66165 0.0
C552 C 0.05656 0.54689 0.56025 0.0
C553 C 0.07627 0.50852 0.62304 0.0
C554 C 0.99794 0.52722 0.4474 0.0
C555 C 1.00498 0.5882 0.46931 0.0
N556 N 0.05184 0.51578 0.57554 0.0
N557 N 0.03056 0.58252 0.51729 0.0
H558 H 0.56675 0.46435 -0.06939 0.0
H559 H 0.5237 0.58815 0.34995 0.0
H560 H 0.4906 0.46449 0.25496 0.0
H561 H 0.60262 0.5764 0.2313 0.0
H562 H 0.50439 0.53004 0.34145 0.0
H563 H 0.58869 0.51162 0.1332 0.0
C564 C 0.54953 0.46771 0.02404 0.0
C565 C 0.51554 0.44468 0.02809 0.0
C566 C 0.53042 0.54758 0.3174 0.0
C567 C 0.54102 0.50251 0.23964 0.0
C568 C 0.54172 0.58106 0.32062 0.0
C569 C 0.57553 0.60487 0.30474 0.0
C570 C 0.55267 0.53726 0.28177 0.0
C571 C 0.59893 0.59572 0.26672 0.0
C572 C 0.56233 0.49503 0.14007 0.0
C573 C 0.49353 0.44857 0.15975 0.0
N574 N 0.58657 0.56229 0.24834 0.0
N575 N 0.50687 0.47808 0.25506 0.0
H576 H 0.05826 0.15656 0.42555 0.0
H577 H 0.21579 0.13149 0.78369 0.0
H578 H 0.14894 0.24286 0.47005 0.0
H579 H 0.14843 0.09488 0.0267 0.0
H580 H 0.17578 0.15497 0.82402 0.0
H581 H 0.08515 0.12358 0.46032 0.0
C582 C 0.08388 0.16838 0.45282 0.0
C583 C 0.10097 0.20271 0.43289 0.0
C584 C 0.17261 0.14183 0.6873 0.0
C585 C 0.13377 0.16559 0.46968 0.0
C586 C 0.19184 0.11975 0.72173 0.0
C587 C 0.19008 0.09627 0.52995 0.0
C588 C 0.15071 0.14586 0.46216 0.0
C589 C 0.15709 0.10607 0.18111 0.0
C590 C 0.09962 0.1499 0.46117 0.0
C591 C 0.13487 0.21718 0.46293 0.0
N592 N 0.14507 0.12934 0.24263 0.0
N593 N 0.15026 0.19871 0.47867 0.0
H594 H 0.03103 0.11562 0.64875 0.0
H595 H 0.86044 0.9532 0.54783 0.0
H596 H 0.93654 0.10881 0.62251 0.0
H597 H 0.95895 0.98327 0.57797 0.0
H598 H 0.8916 1.0103 0.58509 0.0
H599 H 1.00577 0.05784 0.62672 0.0
C600 C 1.00523 0.10303 0.63121 0.0
C601 C 0.98632 0.11882 0.62915 0.0
C602 C 0.90477 0.99818 0.56644 0.0
C603 C 0.95628 0.04974 0.62713 0.0
C604 C 0.88675 0.96493 0.553 0.0
C605 C 0.90129 0.94579 0.55918 0.0
C606 C 0.93849 0.01432 0.58685 0.0
C607 C 0.93601 0.96096 0.57496 0.0
C608 C 0.99051 0.06885 0.62993 0.0
C609 C 0.95237 0.09829 0.63188 0.0
N610 N 0.95387 0.99514 0.58384 0.0
N611 N 0.93866 0.06522 0.63635 0.0
H612 H 0.94169 0.82407 0.86864 0.0
H613 H 0.10137 1.00604 0.63448 0.0
H614 H 0.93247 0.90887 0.71862 0.0
H615 H 0.10233 0.91631 0.68657 0.0
H616 H 0.04092 0.97466 0.682 0.0
H617 H 1.00133 0.85922 0.82899 0.0
C618 C 0.9526 0.85042 0.83168 0.0
C619 C 0.93248 0.86408 0.80254 0.0
C620 C 0.05442 0.96181 0.67797 0.0
C621 C 1.0013 0.90536 0.75401 0.0
C622 C 0.08914 0.97992 0.6446 0.0
C623 C 0.10754 0.96383 0.64615 0.0
C624 C 0.03794 0.9272 0.71132 0.0
C625 C 0.0897 0.9298 0.69 0.0
C626 C 0.9867 0.87076 0.807 0.0
C627 C 0.94761 0.89827 0.74659 0.0
N628 N 0.05644 0.91278 0.7094 0.0
N629 N 0.98098 0.91801 0.72634 0.0
H630 H 0.94649 0.84612 0.32746 0.0
H631 H 0.93771 0.01228 0.07106 0.0
H632 H 0.03174 0.94281 0.23399 0.0
H633 H 0.8795 0.94653 0.04912 0.0
H634 H 0.97313 0.98807 0.11032 0.0
H635 H 0.91257 0.87172 0.23333 0.0
C636 C 0.9581 0.87266 0.29651 0.0
C637 C 0.99239 0.89206 0.28745 0.0
C638 C 0.94709 0.97231 0.08899 0.0
C639 C 0.95331 0.92185 0.18537 0.0
C640 C 0.92709 0.98655 0.06781 0.0
C641 C 0.8907 0.96536 0.05129 0.0
C642 C 0.93338 0.93794 0.10625 0.0
C643 C 0.87767 0.92787 0.04992 0.0
C644 C 0.93863 0.88743 0.24585 0.0
C645 C 1.00585 0.92653 0.23629 0.0
N646 N 0.90076 0.91847 0.06923 0.0
N647 N 0.98657 0.94024 0.18855 0.0
H648 H 0.23855 0.1448 0.08887 0.0
H649 H 0.07812 0.95491 0.13091 0.0
H650 H 0.12256 0.08877 0.64811 0.0
H651 H 0.17788 1.00663 0.09736 0.0
H652 H 0.09609 0.012 0.16606 0.0
H653 H 0.20927 0.08276 0.03362 0.0
C654 C 0.21513 0.12822 0.17769 0.0
C655 C 0.1981 0.14258 0.34086 0.0
C656 C 0.11412 1.00467 0.14492 0.0
C657 C 0.15984 0.05714 0.26217 0.0
C658 C 0.10387 0.97189 0.13153 0.0
C659 C 0.12566 0.95961 0.13114 0.0
C660 C 0.14738 0.02659 0.15196 0.0
C661 C 0.15948 0.98141 0.12394 0.0
C662 C 0.19606 0.08844 0.14379 0.0
C663 C 0.14198 0.0909 0.53742 0.0
N664 N 0.16924 0.01475 0.11729 0.0
N665 N 0.13687 0.05924 0.44222 0.0
H666 H 0.12278 0.13399 0.90021 0.0
H667 H 0.95734 0.13612 0.13689 0.0
H668 H 0.11923 0.21929 -0.02463 0.0
H669 H 0.99081 0.07048 0.13055 0.0
H670 H 1.01458 0.16455 0.09434 0.0
H671 H 0.06444 0.10013 -0.00393 0.0
C672 C 0.1107 0.14649 -0.0576 0.0
C673 C 0.12775 0.18115 -0.05788 0.0
C674 C 1.00381 0.13886 0.11647 0.0
C675 C 0.05766 0.14152 0.01533 0.0
C676 C 0.9698 0.12221 0.13468 0.0
C677 C 0.95184 0.08831 0.14881 0.0
C678 C 0.0214 0.12277 0.08981 0.0
C679 C 0.968 0.07027 0.13846 0.0
C680 C 0.07618 0.12657 -0.01372 0.0
C681 C 0.10748 0.19396 -0.0429 0.0
N682 N 1.00255 0.08794 0.11329 0.0
N683 N 0.07414 0.17484 -0.01511 0.0
H684 H 0.73299 0.48113 -0.00045 0.0
H685 H 0.89883 0.47497 0.20497 0.0
H686 H 0.82802 0.56353 0.0237 0.0
H687 H 0.80673 0.38526 0.25365 0.0
H688 H 0.86967 0.50478 0.15907 0.0
H689 H 0.75486 0.44342 0.0879 0.0
C690 C 0.75865 0.49122 0.02029 0.0
C691 C 0.77901 0.52568 -0.01082 0.0
C692 C 0.85524 0.47849 0.19082 0.0
C693 C 0.80537 0.48313 0.07821 0.0
C694 C 0.87219 0.46136 0.21299 0.0
C695 C 0.85523 0.4273 0.24178 0.0
C696 C 0.82123 0.46259 0.16067 0.0
C697 C 0.82064 0.41144 0.23166 0.0
C698 C 0.7714 0.46979 0.06274 0.0
C699 C 0.81217 0.53767 0.01904 0.0
N700 N 0.80454 0.429 0.1913 0.0
N701 N 0.82447 0.51684 0.04656 0.0
H702 H 0.55904 0.29268 0.64826 0.0
H703 H 0.6809 0.48665 0.79169 0.0
H704 H 0.58526 0.29131 0.01435 0.0
H705 H 0.63344 0.48146 0.46844 0.0
H706 H 0.66365 0.4123 0.90365 0.0
H707 H 0.59244 0.3566 0.58104 0.0
C708 C 0.57932 0.30259 0.51887 0.0
C709 C 0.57833 0.27755 0.1366 0.0
C710 C 0.65426 0.42499 -0.01261 0.0
C711 C 0.60843 0.36351 0.19079 0.0
C712 C 0.66776 0.46945 -0.06513 0.0
C713 C 0.66029 0.49002 0.11271 0.0
C714 C 0.62873 0.39941 0.18914 0.0
C715 C 0.63731 0.46789 0.34828 0.0
C716 C 0.59474 0.34346 0.4552 0.0
C717 C 0.59577 0.31236 0.91383 0.0
N718 N 0.62062 0.41427 0.36933 0.0
N719 N 0.60725 0.34797 -0.03033 0.0
H720 H 0.77712 0.34615 0.0854 0.0
H721 H 0.61975 0.16544 0.2764 0.0
H722 H 0.77952 0.25641 0.16723 0.0
H723 H 0.64351 0.26268 0.18142 0.0
H724 H 0.67884 0.20132 0.2103 0.0
H725 H 0.71694 0.31467 0.11808 0.0
C726 C 0.76538 0.32004 0.11565 0.0
C727 C 0.78405 0.30415 0.13302 0.0
C728 C 0.66371 0.21209 0.22241 0.0
C729 C 0.71456 0.26748 0.1701 0.0
C730 C 0.62987 0.19157 0.26258 0.0
C731 C 0.60897 0.20438 0.26703 0.0
C732 C 0.67809 0.24604 0.20039 0.0
C733 C 0.62214 0.23868 0.21267 0.0
C734 C 0.7307 0.30192 0.13178 0.0
C735 C 0.76655 0.26991 0.16022 0.0
N736 N 0.65653 0.25883 0.18851 0.0
N737 N 0.73318 0.25294 0.18271 0.0
H738 H 0.68196 0.25258 0.73349 0.0
H739 H 0.50553 0.26041 0.33974 0.0
H740 H 0.59227 0.16124 0.78092 0.0
H741 H 0.64353 0.34073 0.22161 0.0
H742 H 0.56842 0.24953 0.5175 0.0
H743 H 0.65302 0.28175 0.67677 0.0
C744 C 0.65575 0.2384 0.73094 0.0
C745 C 0.63962 0.20407 0.76579 0.0
C746 C 0.54621 0.24547 0.49158 0.0
C747 C 0.6046 0.2378 0.6684 0.0
C748 C 0.53165 0.26946 0.33854 0.0
C749 C 0.55876 0.30873 0.19693 0.0
C750 C 0.5885 0.25687 0.52185 0.0
C751 C 0.61904 0.31933 0.26952 0.0
C752 C 0.63869 0.25519 0.69703 0.0
C753 C 0.60539 0.18736 0.77034 0.0
N754 N 0.61835 0.29004 0.4123 0.0
N755 N 0.58896 0.20434 0.72055 0.0
H756 H 0.82305 0.2801 0.6983 0.0
H757 H 0.80278 0.439 0.72983 0.0
H758 H 0.73071 0.27631 0.61518 0.0
H759 H 0.8953 0.443 0.70649 0.0
H760 H 0.77414 0.37926 0.7059 0.0
H761 H 0.84992 0.33961 0.67724 0.0
C762 C 0.80839 0.2919 0.67141 0.0
C763 C 0.77458 0.27319 0.65013 0.0
C764 C 0.80066 0.39289 0.71419 0.0
C765 C 0.8047 0.3421 0.65085 0.0
C766 C 0.81692 0.42709 0.72544 0.0
C767 C 0.85145 0.44596 0.72913 0.0
C768 C 0.81943 0.37758 0.69702 0.0
C769 C 0.86869 0.42939 0.72084 0.0
C770 C 0.82368 0.32632 0.65639 0.0
C771 C 0.75672 0.28988 0.63001 0.0
N772 N 0.85262 0.39649 0.71263 0.0
N773 N 0.77169 0.32306 0.63085 0.0
H774 H 0.60953 0.45258 -0.06944 0.0
H775 H 0.76574 0.44459 0.55654 0.0
H776 H 0.57178 0.4166 0.70832 0.0
H777 H 0.76734 0.53585 0.50554 0.0
H778 H 0.70547 0.41497 0.62884 0.0
H779 H 0.69469 0.45807 0.23328 0.0
C780 C 0.61273 0.43898 0.08173 0.0
C781 C 0.58187 0.42754 0.30104 0.0
C782 C 0.71918 0.44152 0.61486 0.0
C783 C 0.66485 0.44385 0.56354 0.0
C784 C 0.754 0.45872 0.5683 0.0
C785 C 0.77273 0.49363 0.53115 0.0
C786 C 0.7022 0.45907 0.62161 0.0
C787 C 0.75457 0.50944 0.52966 0.0
C788 C 0.67015 0.44941 0.30599 0.0
C789 C 0.59158 0.42604 0.58806 0.0
N790 N 0.72135 0.49254 0.56647 0.0
N791 N 0.62768 0.43384 0.67882 0.0
H792 H 0.56464 0.80458 -0.05555 0.0
H793 H 0.41073 0.79878 -0.0005 0.0
H794 H 0.52462 0.74264 0.14044 0.0
H795 H 0.45908 0.84827 0.77856 0.0
H796 H 0.46149 0.78985 0.04094 0.0
H797 H 0.52645 0.79092 0.81355 0.0
C798 C 0.54396 0.78728 0.81856 0.0
C799 C 0.56146 0.76706 0.43935 0.0
C800 C 0.4589 0.80409 0.15705 0.0
C801 C 0.49294 0.78588 0.46161 0.0
C802 C 0.42986 0.81482 0.09567 0.0
C803 C 0.41701 0.8299 0.28704 0.0
C804 C 0.47652 0.80392 0.4118 0.0
C805 C 0.44807 0.82916 0.66699 0.0
C806 C 0.50846 0.7916 0.73836 0.0
C807 C 0.53249 0.76361 0.2252 0.0
N808 N 0.47139 0.81624 0.62999 0.0
N809 N 0.50485 0.7742 0.25466 0.0
H810 H 0.27252 0.63415 0.39295 0.0
H811 H 0.25141 0.79251 0.29564 0.0
H812 H 0.17975 0.6305 0.3944 0.0
H813 H 0.3163 0.79757 0.38452 0.0
H814 H 0.22642 0.73304 0.37044 0.0
H815 H 0.30129 0.69414 0.37475 0.0
C816 C 0.2582 0.64633 0.37839 0.0
C817 C 0.22352 0.62775 0.37721 0.0
C818 C 0.2526 0.7475 0.38788 0.0
C819 C 0.25637 0.69638 0.36763 0.0
C820 C 0.26629 0.78162 0.34802 0.0
C821 C 0.30222 0.80219 0.36465 0.0
C822 C 0.2719 0.7321 0.4012 0.0
C823 C 0.32244 0.78356 0.40574 0.0
C824 C 0.27473 0.68061 0.3688 0.0
C825 C 0.20626 0.64419 0.38023 0.0
N826 N 0.30505 0.75024 0.42035 0.0
N827 N 0.22277 0.67757 0.36397 0.0
H828 H 0.45807 0.67725 -0.03236 0.0
H829 H 0.29081 0.51403 0.66087 0.0
H830 H 0.46012 0.60067 0.34422 0.0
H831 H 0.32944 0.61495 0.57546 0.0
H832 H 0.35153 0.54317 0.65449 0.0
H833 H 0.39382 0.64229 0.90207 0.0
C834 C 0.44999 0.66035 0.8405 0.0
C835 C 0.48262 0.64748 0.54496 0.0
C836 C 0.3392 0.55689 0.64095 0.0
C837 C 0.39425 0.60883 0.63041 0.0
C838 C 0.30466 0.54058 0.6409 0.0
C839 C 0.28805 0.55828 0.60787 0.0
C840 C 0.35766 0.59093 0.62151 0.0
C841 C 0.30604 0.59304 0.57501 0.0
C842 C 0.40949 0.63648 0.81549 0.0
C843 C 0.45308 0.61613 0.40993 0.0
N844 N 0.34036 0.60839 0.59018 0.0
N845 N 0.41508 0.60192 0.46215 0.0
H846 H 0.203 0.59736 0.90155 0.0
H847 H 0.3725 0.59942 0.16542 0.0
H848 H 0.29335 0.68957 0.84433 0.0
H849 H 0.27873 0.51397 0.13782 0.0
H850 H 0.34713 0.63478 0.07921 0.0
H851 H 0.23293 0.56879 -0.00185 0.0
C852 C 0.22937 0.61175 0.91462 0.0
C853 C 0.24484 0.64585 0.87229 0.0
C854 C 0.33222 0.60836 0.08814 0.0
C855 C 0.28075 0.61267 -0.01256 0.0
C856 C 0.3467 0.58837 0.13576 0.0
C857 C 0.32812 0.554 0.1507 0.0
C858 C 0.2984 0.59356 0.0545 0.0
C859 C 0.29431 0.54029 0.12598 0.0
C860 C 0.24667 0.59528 -0.02876 0.0
C861 C 0.2797 0.66308 0.87834 0.0
N862 N 0.28101 0.55998 0.0747 0.0
N863 N 0.29648 0.64633 -0.06384 0.0
H864 H 0.42626 0.65659 0.34496 0.0
H865 H 0.61878 0.80236 0.82227 0.0
H866 H 0.48846 0.61933 0.05122 0.0
H867 H 0.54667 0.82362 0.33925 0.0
H868 H 0.57301 0.73505 0.91493 0.0
H869 H 0.47741 0.71422 0.38352 0.0
C870 C 0.4434 0.65804 0.47848 0.0
C871 C 0.4442 0.61345 0.7998 0.0
C872 C 0.56569 0.75196 0.83462 0.0
C873 C 0.50489 0.69906 0.70559 0.0
C874 C 0.5957 0.79276 0.73949 0.0
C875 C 0.58827 0.81978 0.5548 0.0
C876 C 0.52597 0.73353 0.74708 0.0
C877 C 0.55056 0.80579 0.45554 0.0
C878 C 0.47698 0.69448 0.49744 0.0
C879 C 0.47969 0.63319 -0.05656 0.0
N880 N 0.51657 0.75583 0.58551 0.0
N881 N 0.50385 0.67104 0.88561 0.0
H882 H 0.29591 0.82127 0.80093 0.0
H883 H 0.41892 0.76536 0.46241 0.0
H884 H 0.30047 0.73361 -0.00706 0.0
H885 H 0.47186 0.90266 0.3955 0.0
H886 H 0.37224 0.76378 0.66537 0.0
H887 H 0.35718 0.85244 0.72729 0.0
C888 C 0.30969 0.8086 0.83046 0.0
C889 C 0.29263 0.77447 0.90057 0.0
C890 C 0.39244 0.78838 0.61193 0.0
C891 C 0.36206 0.81034 0.809 0.0
C892 C 0.42137 0.78939 0.47042 0.0
C893 C 0.4695 0.85173 0.32708 0.0
C894 C 0.39401 0.8222 0.67241 0.0
C895 C 0.45644 0.87655 0.43264 0.0
C896 C 0.3444 0.82652 0.7843 0.0
C897 C 0.31178 0.75971 -0.05935 0.0
N898 N 0.42259 0.85983 0.58922 0.0
N899 N 0.34498 0.77781 0.90241 0.0
loop_
_geom_bond_atom_site_label_1
_geom_bond_atom_site_label_2
_geom_bond_distance
_geom_bond_site_symmetry_2
_ccdc_geom_bond_type
O0 Cd1 2.223 . S
O0 C8 1.315 1_556 S
Cd1 O0 2.223 . S
Cd1 O4 2.297 . S
Cd1 O5 2.439 . S
Cd1 O11 2.240 1_655 S
Cd2 O3 2.240 . S
Cd2 O10 2.223 . S
Cd2 O12 2.297 . S
Cd2 O13 2.439 . S
O3 Cd2 2.240 . S
O3 C8 1.279 1_455 S
O4 Cd1 2.297 . S
O4 C6 1.247 . S
O5 Cd1 2.439 . S
O5 C6 1.208 . S
C6 O4 1.247 . S
C6 O5 1.208 . S
C7 O12 1.247 . S
C7 O13 1.208 . S
C8 O0 1.315 1_554 S
C8 O3 1.279 1_655 S
C9 O10 1.315 1_556 S
C9 O11 1.279 . S
O10 Cd2 2.223 . S
O10 C9 1.315 1_554 S
O11 Cd1 2.240 1_455 S
O11 C9 1.279 . S
O12 Cd2 2.297 . S
O12 C7 1.247 . S
O13 Cd2 2.439 . S
O13 C7 1.208 . S
O14 Cd15 2.223 . S
O14 C22 1.315 1_554 S
Cd15 O14 2.223 . S
Cd15 O18 2.297 . S
Cd15 O19 2.439 . S
Cd15 O25 2.240 . S
Cd16 O17 2.240 . S
Cd16 O24 2.223 . S
Cd16 O26 2.297 . S
Cd16 O27 2.439 . S
O17 Cd16 2.240 . S
O17 C22 1.279 . S
O18 Cd15 2.297 . S
O18 C20 1.247 . S
O19 Cd15 2.439 . S
O19 C20 1.208 . S
C20 O18 1.247 . S
C20 O19 1.208 . S
C21 O26 1.247 . S
C21 O27 1.208 . S
C22 O14 1.315 1_556 S
C22 O17 1.279 . S
C23 O24 1.315 1_554 S
C23 O25 1.279 . S
O24 Cd16 2.223 . S
O24 C23 1.315 1_556 S
O25 Cd15 2.240 . S
O25 C23 1.279 . S
O26 Cd16 2.297 . S
O26 C21 1.247 . S
O27 Cd16 2.439 . S
O27 C21 1.208 . S
O28 Cd29 2.223 1_554 S
O28 C36 1.315 . S
Cd29 O28 2.223 1_556 S
Cd29 O32 2.297 . S
Cd29 O33 2.439 . S
Cd29 O39 2.240 . S
Cd30 O31 2.263 . S
Cd30 O38 2.227 1_545 S
Cd30 O40 2.273 1_545 S
Cd30 O41 2.424 1_545 S
O31 Cd30 2.263 . S
O31 C36 1.279 . S
O32 Cd29 2.297 . S
O32 C34 1.247 . S
O33 Cd29 2.439 . S
O33 C34 1.208 . S
C34 O32 1.247 . S
C34 O33 1.208 . S
C35 O40 1.247 . S
C35 O41 1.208 . S
C36 O28 1.315 . S
C36 O31 1.279 . S
C37 O38 1.315 1_556 S
C37 O39 1.279 1_565 S
O38 Cd30 2.227 1_565 S
O38 C37 1.315 1_554 S
O39 Cd29 2.240 . S
O39 C37 1.279 1_545 S
O40 Cd30 2.273 1_565 S
O40 C35 1.247 . S
O41 Cd30 2.424 1_565 S
O41 C35 1.208 . S
O42 Cd43 2.223 . S
O42 C50 1.315 1_554 S
Cd43 O42 2.223 . S
Cd43 O46 2.297 . S
Cd43 O47 2.439 . S
Cd43 O53 2.240 . S
Cd44 O45 2.240 1_655 S
Cd44 O52 2.223 . S
Cd44 O54 2.297 . S
Cd44 O55 2.439 . S
O45 Cd44 2.240 1_455 S
O45 C50 1.279 . S
O46 Cd43 2.297 . S
O46 C48 1.247 . S
O47 Cd43 2.439 . S
O47 C48 1.208 . S
C48 O46 1.247 . S
C48 O47 1.208 . S
C49 O54 1.247 . S
C49 O55 1.208 . S
C50 O42 1.315 1_556 S
C50 O45 1.279 . S
C51 O52 1.315 1_554 S
C51 O53 1.279 1_655 S
O52 Cd44 2.223 . S
O52 C51 1.315 1_556 S
O53 Cd43 2.240 . S
O53 C51 1.279 1_455 S
O54 Cd44 2.297 . S
O54 C49 1.247 . S
O55 Cd44 2.439 . S
O55 C49 1.208 . S
O56 Cd57 2.223 . S
O56 C64 1.315 1_556 S
Cd57 O56 2.223 . S
Cd57 O60 2.297 . S
Cd57 O61 2.439 . S
Cd57 O67 2.240 . S
Cd58 O59 2.240 . S
Cd58 O66 2.223 . S
Cd58 O68 2.297 . S
Cd58 O69 2.439 . S
O59 Cd58 2.240 . S
O59 C64 1.279 . S
O60 Cd57 2.297 . S
O60 C62 1.247 . S
O61 Cd57 2.439 . S
O61 C62 1.208 . S
C62 O60 1.247 . S
C62 O61 1.208 . S
C63 O68 1.247 . S
C63 O69 1.208 . S
C64 O56 1.315 1_554 S
C64 O59 1.279 . S
C65 O66 1.315 1_556 S
C65 O67 1.279 . S
O66 Cd58 2.223 . S
O66 C65 1.315 1_554 S
O67 Cd57 2.240 . S
O67 C65 1.279 . S
O68 Cd58 2.297 . S
O68 C63 1.247 . S
O69 Cd58 2.439 . S
O69 C63 1.208 . S
O70 Cd71 2.223 1_556 S
O70 C78 1.315 . S
Cd71 O70 2.223 1_554 S
Cd71 O74 2.297 . S
Cd71 O75 2.439 . S
Cd71 O81 2.240 1_565 S
Cd72 O73 2.240 1_545 S
Cd72 O80 2.223 . S
Cd72 O82 2.297 . S
Cd72 O83 2.439 . S
O73 Cd72 2.240 1_565 S
O73 C78 1.279 . S
O74 Cd71 2.297 . S
O74 C76 1.247 . S
O75 Cd71 2.439 . S
O75 C76 1.208 . S
C76 O74 1.247 . S
C76 O75 1.208 . S
C77 O82 1.247 . S
C77 O83 1.208 . S
C78 O70 1.315 . S
C78 O73 1.279 . S
C79 O80 1.315 1_554 S
C79 O81 1.279 . S
O80 Cd72 2.223 . S
O80 C79 1.315 1_556 S
O81 Cd71 2.240 1_545 S
O81 C79 1.279 . S
O82 Cd72 2.297 . S
O82 C77 1.247 . S
O83 Cd72 2.439 . S
O83 C77 1.208 . S
O84 Cd85 2.223 . S
O84 C92 1.315 1_554 S
Cd85 O84 2.223 . S
Cd85 O88 2.297 . S
Cd85 O89 2.439 . S
Cd85 O95 2.240 . S
Cd86 O87 2.240 . S
Cd86 O94 2.223 . S
Cd86 O96 2.297 . S
Cd86 O97 2.439 . S
O87 Cd86 2.240 . S
O87 C92 1.279 . S
O88 Cd85 2.297 . S
O88 C90 1.247 . S
O89 Cd85 2.439 . S
O89 C90 1.208 . S
C90 O88 1.247 . S
C90 O89 1.208 . S
C91 O96 1.247 . S
C91 O97 1.208 . S
C92 O84 1.315 1_556 S
C92 O87 1.279 . S
C93 O94 1.315 1_554 S
C93 O95 1.279 . S
O94 Cd86 2.223 . S
O94 C93 1.315 1_556 S
O95 Cd85 2.240 . S
O95 C93 1.279 . S
O96 Cd86 2.297 . S
O96 C91 1.247 . S
O97 Cd86 2.439 . S
O97 C91 1.208 . S
O98 Cd99 2.223 . S
O98 C106 1.315 . S
Cd99 O98 2.223 . S
Cd99 O102 2.297 . S
Cd99 O103 2.439 . S
Cd99 O109 2.240 . S
Cd100 O101 2.240 . S
Cd100 O108 2.223 . S
Cd100 O110 2.297 . S
Cd100 O111 2.439 . S
O101 Cd100 2.240 . S
O101 C106 1.279 . S
O102 Cd99 2.297 . S
O102 C104 1.247 . S
O103 Cd99 2.439 . S
O103 C104 1.208 . S
C104 O102 1.247 . S
C104 O103 1.208 . S
C105 O110 1.247 . S
C105 O111 1.208 . S
C106 O98 1.315 . S
C106 O101 1.279 . S
C107 O108 1.315 . S
C107 O109 1.279 . S
O108 Cd100 2.223 . S
O108 C107 1.315 . S
O109 Cd99 2.240 . S
O109 C107 1.279 . S
O110 Cd100 2.297 . S
O110 C105 1.247 . S
O111 Cd100 2.439 . S
O111 C105 1.208 . S
O112 Cd113 2.223 1_556 S
O112 C120 1.315 . S
Cd113 O112 2.223 1_554 S
Cd113 O116 2.297 . S
Cd113 O117 2.439 1_554 S
Cd113 O123 2.240 1_554 S
Cd114 O115 2.240 . S
Cd114 O122 2.223 . S
Cd114 O124 2.297 . S
Cd114 O125 2.439 . S
O115 Cd114 2.240 . S
O115 C120 1.279 . S
O116 Cd113 2.297 . S
O116 C118 1.247 1_554 S
O117 Cd113 2.439 1_556 S
O117 C118 1.208 . S
C118 O116 1.247 1_556 S
C118 O117 1.208 . S
C119 O124 1.247 . S
C119 O125 1.208 . S
C120 O112 1.315 . S
C120 O115 1.279 . S
C121 O122 1.315 . S
C121 O123 1.279 . S
O122 Cd114 2.223 . S
O122 C121 1.315 . S
O123 Cd113 2.240 1_556 S
O123 C121 1.279 . S
O124 Cd114 2.297 . S
O124 C119 1.247 . S
O125 Cd114 2.439 . S
O125 C119 1.208 . S
O126 Cd127 2.223 . S
O126 C134 1.315 1_554 S
Cd127 O126 2.223 . S
Cd127 O130 2.297 . S
Cd127 O131 2.439 . S
Cd127 O137 2.240 . S
Cd128 O129 2.240 . S
Cd128 O136 2.223 . S
Cd128 O138 2.297 . S
Cd128 O139 2.439 . S
O129 Cd128 2.240 . S
O129 C134 1.279 . S
O130 Cd127 2.297 . S
O130 C132 1.247 . S
O131 Cd127 2.439 . S
O131 C132 1.208 . S
C132 O130 1.247 . S
C132 O131 1.208 . S
C133 O138 1.247 . S
C133 O139 1.208 . S
C134 O126 1.315 1_556 S
C134 O129 1.279 . S
C135 O136 1.315 1_554 S
C135 O137 1.279 . S
O136 Cd128 2.223 . S
O136 C135 1.315 1_556 S
O137 Cd127 2.240 . S
O137 C135 1.279 . S
O138 Cd128 2.297 . S
O138 C133 1.247 . S
O139 Cd128 2.439 . S
O139 C133 1.208 . S
O140 Cd141 2.223 1_556 S
O140 C148 1.315 . S
Cd141 O140 2.223 1_554 S
Cd141 O144 2.297 . S
Cd141 O145 2.439 1_554 S
Cd141 O151 2.240 . S
Cd142 O143 2.240 . S
Cd142 O150 2.223 . S
Cd142 O152 2.297 . S
Cd142 O153 2.439 . S
O143 Cd142 2.240 . S
O143 C148 1.279 . S
O144 Cd141 2.297 . S
O144 C146 1.247 . S
O145 Cd141 2.439 1_556 S
O145 C146 1.208 1_556 S
C146 O144 1.247 . S
C146 O145 1.208 1_554 S
C147 O152 1.247 . S
C147 O153 1.208 . S
C148 O140 1.315 . S
C148 O143 1.279 . S
C149 O150 1.315 . S
C149 O151 1.279 1_556 S
O150 Cd142 2.223 . S
O150 C149 1.315 . S
O151 Cd141 2.240 . S
O151 C149 1.279 1_554 S
O152 Cd142 2.297 . S
O152 C147 1.247 . S
O153 Cd142 2.439 . S
O153 C147 1.208 . S
O154 Cd155 2.223 . S
O154 C162 1.315 . S
Cd155 O154 2.223 . S
Cd155 O158 2.297 . S
Cd155 O159 2.439 . S
Cd155 O165 2.240 . S
Cd156 O157 2.240 . S
Cd156 O164 2.223 1_556 S
Cd156 O166 2.297 . S
Cd156 O167 2.439 . S
O157 Cd156 2.240 . S
O157 C162 1.279 1_556 S
O158 Cd155 2.297 . S
O158 C160 1.247 . S
O159 Cd155 2.439 . S
O159 C160 1.208 . S
C160 O158 1.247 . S
C160 O159 1.208 . S
C161 O166 1.247 . S
C161 O167 1.208 . S
C162 O154 1.315 . S
C162 O157 1.279 1_554 S
C163 O164 1.315 . S
C163 O165 1.279 . S
O164 Cd156 2.223 1_554 S
O164 C163 1.315 . S
O165 Cd155 2.240 . S
O165 C163 1.279 . S
O166 Cd156 2.297 . S
O166 C161 1.247 . S
O167 Cd156 2.439 . S
O167 C161 1.208 . S
O168 Cd169 2.223 . S
O168 C176 1.315 1_556 S
Cd169 O168 2.223 . S
Cd169 O172 2.297 . S
Cd169 O173 2.439 . S
Cd169 O179 2.240 . S
Cd170 O171 2.240 . S
Cd170 O178 2.223 . S
Cd170 O180 2.297 . S
Cd170 O181 2.439 . S
O171 Cd170 2.240 . S
O171 C176 1.279 . S
O172 Cd169 2.297 . S
O172 C174 1.247 . S
O173 Cd169 2.439 . S
O173 C174 1.208 . S
C174 O172 1.247 . S
C174 O173 1.208 . S
C175 O180 1.247 . S
C175 O181 1.208 . S
C176 O168 1.315 1_554 S
C176 O171 1.279 . S
C177 O178 1.315 1_556 S
C177 O179 1.279 . S
O178 Cd170 2.223 . S
O178 C177 1.315 1_554 S
O179 Cd169 2.240 . S
O179 C177 1.279 . S
O180 Cd170 2.297 . S
O180 C175 1.247 . S
O181 Cd170 2.439 . S
O181 C175 1.208 . S
O182 Cd183 2.223 . S
O182 C190 1.315 . S
Cd183 O182 2.223 . S
Cd183 O186 2.297 . S
Cd183 O187 2.439 . S
Cd183 O193 2.240 . S
Cd184 O185 2.240 . S
Cd184 O192 2.223 1_556 S
Cd184 O194 2.297 . S
Cd184 O195 2.439 1_556 S
O185 Cd184 2.240 . S
O185 C190 1.279 1_556 S
O186 Cd183 2.297 . S
O186 C188 1.247 . S
O187 Cd183 2.439 . S
O187 C188 1.208 . S
C188 O186 1.247 . S
C188 O187 1.208 . S
C189 O194 1.247 . S
C189 O195 1.208 1_556 S
C190 O182 1.315 . S
C190 O185 1.279 1_554 S
C191 O192 1.315 . S
C191 O193 1.279 . S
O192 Cd184 2.223 1_554 S
O192 C191 1.315 . S
O193 Cd183 2.240 . S
O193 C191 1.279 . S
O194 Cd184 2.297 . S
O194 C189 1.247 . S
O195 Cd184 2.439 1_554 S
O195 C189 1.208 1_554 S
O196 Cd197 2.223 . S
O196 C204 1.315 . S
Cd197 O196 2.223 . S
Cd197 O200 2.297 . S
Cd197 O201 2.439 . S
Cd197 O207 2.240 . S
Cd198 O199 2.240 . S
Cd198 O206 2.223 1_554 S
Cd198 O208 2.297 . S
Cd198 O209 2.439 1_554 S
O199 Cd198 2.240 . S
O199 C204 1.279 1_554 S
O200 Cd197 2.297 . S
O200 C202 1.247 . S
O201 Cd197 2.439 . S
O201 C202 1.208 . S
C202 O200 1.247 . S
C202 O201 1.208 . S
C203 O208 1.247 . S
C203 O209 1.208 1_554 S
C204 O196 1.315 . S
C204 O199 1.279 1_556 S
C205 O206 1.315 . S
C205 O207 1.279 . S
O206 Cd198 2.223 1_556 S
O206 C205 1.315 . S
O207 Cd197 2.240 . S
O207 C205 1.279 . S
O208 Cd198 2.297 . S
O208 C203 1.247 . S
O209 Cd198 2.439 1_556 S
O209 C203 1.208 1_556 S
O210 Cd211 2.223 . S
O210 C218 1.315 1_554 S
Cd211 O210 2.223 . S
Cd211 O214 2.297 . S
Cd211 O215 2.439 . S
Cd211 O221 2.240 . S
Cd212 O213 2.240 . S
Cd212 O220 2.223 . S
Cd212 O222 2.297 . S
Cd212 O223 2.439 . S
O213 Cd212 2.240 . S
O213 C218 1.279 . S
O214 Cd211 2.297 . S
O214 C216 1.247 . S
O215 Cd211 2.439 . S
O215 C216 1.208 . S
C216 O214 1.247 . S
C216 O215 1.208 . S
C217 O222 1.247 . S
C217 O223 1.208 . S
C218 O210 1.315 1_556 S
C218 O213 1.279 . S
C219 O220 1.315 1_554 S
C219 O221 1.279 . S
O220 Cd212 2.223 . S
O220 C219 1.315 1_556 S
O221 Cd211 2.240 . S
O221 C219 1.279 . S
O222 Cd212 2.297 . S
O222 C217 1.247 . S
O223 Cd212 2.439 . S
O223 C217 1.208 . S
O224 Cd225 2.223 . S
O224 C232 1.315 . S
Cd225 O224 2.223 . S
Cd225 O228 2.297 . S
Cd225 O229 2.439 . S
Cd225 O235 2.240 . S
Cd226 O227 2.240 . S
Cd226 O234 2.223 . S
Cd226 O236 2.297 . S
Cd226 O237 2.439 . S
O227 Cd226 2.240 . S
O227 C232 1.279 . S
O228 Cd225 2.297 . S
O228 C230 1.247 . S
O229 Cd225 2.439 . S
O229 C230 1.208 . S
C230 O228 1.247 . S
C230 O229 1.208 . S
C231 O236 1.247 . S
C231 O237 1.208 . S
C232 O224 1.315 . S
C232 O227 1.279 . S
C233 O234 1.315 . S
C233 O235 1.279 . S
O234 Cd226 2.223 . S
O234 C233 1.315 . S
O235 Cd225 2.240 . S
O235 C233 1.279 . S
O236 Cd226 2.297 . S
O236 C231 1.247 . S
O237 Cd226 2.439 . S
O237 C231 1.208 . S
O238 Cd239 2.223 . S
O238 C246 1.315 . S
Cd239 O238 2.223 . S
Cd239 O242 2.297 . S
Cd239 O243 2.439 . S
Cd239 O249 2.240 . S
Cd240 O241 2.240 1_556 S
Cd240 O248 2.223 1_556 S
Cd240 O250 2.297 . S
Cd240 O251 2.439 1_556 S
O241 Cd240 2.240 1_554 S
O241 C246 1.279 . S
O242 Cd239 2.297 . S
O242 C244 1.247 . S
O243 Cd239 2.439 . S
O243 C244 1.208 . S
C244 O242 1.247 . S
C244 O243 1.208 . S
C245 O250 1.247 1_554 S
C245 O251 1.208 . S
C246 O238 1.315 . S
C246 O241 1.279 . S
C247 O248 1.315 . S
C247 O249 1.279 . S
O248 Cd240 2.223 1_554 S
O248 C247 1.315 . S
O249 Cd239 2.240 . S
O249 C247 1.279 . S
O250 Cd240 2.297 . S
O250 C245 1.247 1_556 S
O251 Cd240 2.439 1_554 S
O251 C245 1.208 . S
H252 C258 0.930 . S
H253 C262 0.930 . S
H254 C267 0.929 . S
H255 C265 0.929 . S
H256 C260 0.929 . S
H257 C266 0.929 . S
C258 H252 0.930 . S
C258 C259 1.367 . S
C258 C266 1.378 . S
C259 C258 1.367 . S
C259 C267 1.433 1_556 S
C260 H256 0.929 . S
C260 C262 1.378 . S
C260 C264 1.350 . S
C261 C264 1.463 1_556 S
C261 C266 1.350 . S
C261 N269 1.427 1_556 S
C262 H253 0.930 . S
C262 C260 1.378 . S
C262 C263 1.367 . S
C263 C262 1.367 . S
C263 C265 1.433 1_554 S
C264 C260 1.350 . S
C264 C261 1.463 1_554 S
C264 N268 1.427 1_554 S
C265 H255 0.929 . S
C265 C263 1.433 1_556 S
C265 N268 1.384 . S
C266 H257 0.929 . S
C266 C258 1.378 . S
C266 C261 1.350 . S
C267 H254 0.929 . S
C267 C259 1.433 1_554 S
C267 N269 1.384 . S
N268 C264 1.427 1_556 S
N268 C265 1.384 . S
N269 C261 1.427 1_554 S
N269 C267 1.384 . S
H270 C276 0.930 . S
H271 C280 0.930 . S
H272 C285 0.929 . S
H273 C283 0.929 . S
H274 C278 0.929 1_554 S
H275 C284 0.929 . S
C276 H270 0.930 . S
C276 C277 1.367 1_556 S
C276 C284 1.378 . S
C277 C276 1.367 1_554 S
C277 C285 1.433 . S
C278 H274 0.929 1_556 S
C278 C280 1.378 . S
C278 C282 1.350 . S
C279 C282 1.463 . S
C279 C284 1.350 . S
C279 N287 1.427 1_556 S
C280 H271 0.930 . S
C280 C278 1.378 . S
C280 C281 1.367 . S
C281 C280 1.367 . S
C281 C283 1.433 . S
C282 C278 1.350 . S
C282 C279 1.463 . S
C282 N286 1.427 . S
C283 H273 0.929 . S
C283 C281 1.433 . S
C283 N286 1.384 . S
C284 H275 0.929 . S
C284 C276 1.378 . S
C284 C279 1.350 . S
C285 H272 0.929 . S
C285 C277 1.433 . S
C285 N287 1.384 . S
N286 C282 1.427 . S
N286 C283 1.384 . S
N287 C279 1.427 1_554 S
N287 C285 1.384 . S
H288 C294 0.930 . S
H289 C298 0.930 . S
H290 C303 0.929 . S
H291 C301 0.929 . S
H292 C296 0.929 . S
H293 C302 0.929 . S
C294 H288 0.930 . S
C294 C295 1.367 . S
C294 C302 1.378 . S
C295 C294 1.367 . S
C295 C303 1.433 1_554 S
C296 H292 0.929 . S
C296 C298 1.378 . S
C296 C300 1.350 1_556 S
C297 C300 1.463 . S
C297 C302 1.350 . S
C297 N305 1.427 1_554 S
C298 H289 0.930 . S
C298 C296 1.378 . S
C298 C299 1.367 1_556 S
C299 C298 1.367 1_554 S
C299 C301 1.433 . S
C300 C296 1.350 1_554 S
C300 C297 1.463 . S
C300 N304 1.427 . S
C301 H291 0.929 . S
C301 C299 1.433 . S
C301 N304 1.384 . S
C302 H293 0.929 . S
C302 C294 1.378 . S
C302 C297 1.350 . S
C303 H290 0.929 . S
C303 C295 1.433 1_556 S
C303 N305 1.384 . S
N304 C300 1.427 . S
N304 C301 1.384 . S
N305 C297 1.427 1_556 S
N305 C303 1.384 . S
H306 C312 0.930 . S
H307 C316 0.930 1_554 S
H308 C321 0.929 . S
H309 C319 0.929 . S
H310 C314 0.929 . S
H311 C320 0.929 . S
C312 H306 0.930 . S
C312 C313 1.367 . S
C312 C320 1.378 1_554 S
C313 C312 1.367 . S
C313 C321 1.433 . S
C314 H310 0.929 . S
C314 C316 1.378 1_554 S
C314 C318 1.350 1_554 S
C315 C318 1.463 1_554 S
C315 C320 1.350 1_554 S
C315 N323 1.427 . S
C316 H307 0.930 1_556 S
C316 C314 1.378 1_556 S
C316 C317 1.367 . S
C317 C316 1.367 . S
C317 C319 1.433 . S
C318 C314 1.350 1_556 S
C318 C315 1.463 1_556 S
C318 N322 1.427 . S
C319 H309 0.929 . S
C319 C317 1.433 . S
C319 N322 1.384 . S
C320 H311 0.929 . S
C320 C312 1.378 1_556 S
C320 C315 1.350 1_556 S
C321 H308 0.929 . S
C321 C313 1.433 . S
C321 N323 1.384 . S
N322 C318 1.427 . S
N322 C319 1.384 . S
N323 C315 1.427 . S
N323 C321 1.384 . S
H324 C330 0.930 . S
H325 C334 0.930 . S
H326 C339 0.929 . S
H327 C337 0.929 . S
H328 C332 0.929 . S
H329 C338 0.929 1_556 S
C330 H324 0.930 . S
C330 C331 1.367 . S
C330 C338 1.378 . S
C331 C330 1.367 . S
C331 C339 1.433 . S
C332 H328 0.929 . S
C332 C334 1.378 . S
C332 C336 1.350 . S
C333 C336 1.463 . S
C333 C338 1.350 . S
C333 N341 1.427 . S
C334 H325 0.930 . S
C334 C332 1.378 . S
C334 C335 1.367 1_554 S
C335 C334 1.367 1_556 S
C335 C337 1.433 . S
C336 C332 1.350 . S
C336 C333 1.463 . S
C336 N340 1.427 1_554 S
C337 H327 0.929 . S
C337 C335 1.433 . S
C337 N340 1.384 . S
C338 H329 0.929 1_554 S
C338 C330 1.378 . S
C338 C333 1.350 . S
C339 H326 0.929 . S
C339 C331 1.433 . S
C339 N341 1.384 . S
N340 C336 1.427 1_556 S
N340 C337 1.384 . S
N341 C333 1.427 . S
N341 C339 1.384 . S
H342 C348 0.930 . S
H343 C352 0.930 . S
H344 C357 0.929 . S
H345 C355 0.929 1_554 S
H346 C350 0.929 . S
H347 C356 0.929 . S
C348 H342 0.930 . S
C348 C349 1.367 . S
C348 C356 1.378 . S
C349 C348 1.367 . S
C349 C357 1.433 1_554 S
C350 H346 0.929 . S
C350 C352 1.378 . S
C350 C354 1.350 . S
C351 C354 1.463 . S
C351 C356 1.350 1_556 S
C351 N359 1.427 . S
C352 H343 0.930 . S
C352 C350 1.378 . S
C352 C353 1.367 . S
C353 C352 1.367 . S
C353 C355 1.433 . S
C354 C350 1.350 . S
C354 C351 1.463 . S
C354 N358 1.427 . S
C355 H345 0.929 1_556 S
C355 C353 1.433 . S
C355 N358 1.384 . S
C356 H347 0.929 . S
C356 C348 1.378 . S
C356 C351 1.350 1_554 S
C357 H344 0.929 . S
C357 C349 1.433 1_556 S
C357 N359 1.384 . S
N358 C354 1.427 . S
N358 C355 1.384 . S
N359 C351 1.427 . S
N359 C357 1.384 . S
H360 C366 0.930 . S
H361 C370 0.930 . S
H362 C375 0.929 . S
H363 C373 0.929 . S
H364 C368 0.929 . S
H365 C374 0.929 . S
C366 H360 0.930 . S
C366 C367 1.367 . S
C366 C374 1.378 . S
C367 C366 1.367 . S
C367 C375 1.433 . S
C368 H364 0.929 . S
C368 C370 1.378 . S
C368 C372 1.350 . S
C369 C372 1.463 1_554 S
C369 C374 1.350 . S
C369 N377 1.427 . S
C370 H361 0.930 . S
C370 C368 1.378 . S
C370 C371 1.367 . S
C371 C370 1.367 . S
C371 C373 1.433 . S
C372 C368 1.350 . S
C372 C369 1.463 1_556 S
C372 N376 1.427 . S
C373 H363 0.929 . S
C373 C371 1.433 . S
C373 N376 1.384 . S
C374 H365 0.929 . S
C374 C366 1.378 . S
C374 C369 1.350 . S
C375 H362 0.929 . S
C375 C367 1.433 . S
C375 N377 1.384 . S
N376 C372 1.427 . S
N376 C373 1.384 . S
N377 C369 1.427 . S
N377 C375 1.384 . S
H378 C384 0.930 . S
H379 C388 0.930 . S
H380 C393 0.929 . S
H381 C391 0.929 . S
H382 C386 0.929 1_556 S
H383 C392 0.929 . S
C384 H378 0.930 . S
C384 C385 1.367 1_554 S
C384 C392 1.378 . S
C385 C384 1.367 1_556 S
C385 C393 1.433 . S
C386 H382 0.929 1_554 S
C386 C388 1.378 . S
C386 C390 1.350 . S
C387 C390 1.463 . S
C387 C392 1.350 . S
C387 N395 1.427 1_554 S
C388 H379 0.930 . S
C388 C386 1.378 . S
C388 C389 1.367 . S
C389 C388 1.367 . S
C389 C391 1.433 . S
C390 C386 1.350 . S
C390 C387 1.463 . S
C390 N394 1.427 . S
C391 H381 0.929 . S
C391 C389 1.433 . S
C391 N394 1.384 . S
C392 H383 0.929 . S
C392 C384 1.378 . S
C392 C387 1.350 . S
C393 H380 0.929 . S
C393 C385 1.433 . S
C393 N395 1.384 . S
N394 C390 1.427 . S
N394 C391 1.384 . S
N395 C387 1.427 1_556 S
N395 C393 1.384 . S
H396 C402 0.930 . S
H397 C406 0.930 . S
H398 C411 0.929 1_554 S
H399 C409 0.929 . S
H400 C404 0.929 . S
H401 C410 0.929 . S
C402 H396 0.930 . S
C402 C403 1.367 . S
C402 C410 1.378 . S
C403 C402 1.367 . S
C403 C411 1.433 . S
C404 H400 0.929 . S
C404 C406 1.378 . S
C404 C408 1.350 1_554 S
C405 C408 1.463 . S
C405 C410 1.350 . S
C405 N413 1.427 1_556 S
C406 H397 0.930 . S
C406 C404 1.378 . S
C406 C407 1.367 1_554 S
C407 C406 1.367 1_556 S
C407 C409 1.433 . S
C408 C404 1.350 1_556 S
C408 C405 1.463 . S
C408 N412 1.427 . S
C409 H399 0.929 . S
C409 C407 1.433 . S
C409 N412 1.384 . S
C410 H401 0.929 . S
C410 C402 1.378 . S
C410 C405 1.350 . S
C411 H398 0.929 1_556 S
C411 C403 1.433 . S
C411 N413 1.384 1_556 S
N412 C408 1.427 . S
N412 C409 1.384 . S
N413 C405 1.427 1_554 S
N413 C411 1.384 1_554 S
H414 C420 0.930 . S
H415 C424 0.930 . S
H416 C429 0.929 . S
H417 C427 0.929 . S
H418 C422 0.929 . S
H419 C428 0.929 . S
C420 H414 0.930 . S
C420 C421 1.367 . S
C420 C428 1.378 . S
C421 C420 1.367 . S
C421 C429 1.433 1_554 S
C422 H418 0.929 . S
C422 C424 1.378 . S
C422 C426 1.350 . S
C423 C426 1.463 1_554 S
C423 C428 1.350 . S
C423 N431 1.427 1_554 S
C424 H415 0.930 . S
C424 C422 1.378 . S
C424 C425 1.367 . S
C425 C424 1.367 . S
C425 C427 1.433 1_556 S
C426 C422 1.350 . S
C426 C423 1.463 1_556 S
C426 N430 1.427 1_556 S
C427 H417 0.929 . S
C427 C425 1.433 1_554 S
C427 N430 1.384 . S
C428 H419 0.929 . S
C428 C420 1.378 . S
C428 C423 1.350 . S
C429 H416 0.929 . S
C429 C421 1.433 1_556 S
C429 N431 1.384 . S
N430 C426 1.427 1_554 S
N430 C427 1.384 . S
N431 C423 1.427 1_556 S
N431 C429 1.384 . S
H432 C438 0.930 . S
H433 C442 0.930 . S
H434 C447 0.929 . S
H435 C445 0.929 . S
H436 C440 0.929 . S
H437 C446 0.929 . S
C438 H432 0.930 . S
C438 C439 1.367 . S
C438 C446 1.378 . S
C439 C438 1.367 . S
C439 C447 1.433 1_554 S
C440 H436 0.929 . S
C440 C442 1.378 . S
C440 C444 1.350 . S
C441 C444 1.463 . S
C441 C446 1.350 1_556 S
C441 N449 1.427 . S
C442 H433 0.930 . S
C442 C440 1.378 . S
C442 C443 1.367 . S
C443 C442 1.367 . S
C443 C445 1.433 . S
C444 C440 1.350 . S
C444 C441 1.463 . S
C444 N448 1.427 . S
C445 H435 0.929 . S
C445 C443 1.433 . S
C445 N448 1.384 . S
C446 H437 0.929 . S
C446 C438 1.378 . S
C446 C441 1.350 1_554 S
C447 H434 0.929 . S
C447 C439 1.433 1_556 S
C447 N449 1.384 . S
N448 C444 1.427 . S
N448 C445 1.384 . S
N449 C441 1.427 . S
N449 C447 1.384 . S
H450 C456 0.930 . S
H451 C460 0.930 . S
H452 C465 0.929 . S
H453 C463 0.929 . S
H454 C458 0.929 . S
H455 C464 0.929 . S
C456 H450 0.930 . S
C456 C457 1.367 . S
C456 C464 1.378 . S
C457 C456 1.367 . S
C457 C465 1.433 1_554 S
C458 H454 0.929 . S
C458 C460 1.378 . S
C458 C462 1.350 1_556 S
C459 C462 1.463 . S
C459 C464 1.350 . S
C459 N467 1.427 1_554 S
C460 H451 0.930 . S
C460 C458 1.378 . S
C460 C461 1.367 . S
C461 C460 1.367 . S
C461 C463 1.433 1_556 S
C462 C458 1.350 1_554 S
C462 C459 1.463 . S
C462 N466 1.427 . S
C463 H453 0.929 . S
C463 C461 1.433 1_554 S
C463 N466 1.384 . S
C464 H455 0.929 . S
C464 C456 1.378 . S
C464 C459 1.350 . S
C465 H452 0.929 . S
C465 C457 1.433 1_556 S
C465 N467 1.384 . S
N466 C462 1.427 . S
N466 C463 1.384 . S
N467 C459 1.427 1_556 S
N467 C465 1.384 . S
H468 C474 0.930 1_556 S
H469 C478 0.930 1_554 S
H470 C483 0.929 . S
H471 C481 0.929 . S
H472 C476 0.929 . S
H473 C482 0.929 . S
C474 H468 0.930 1_554 S
C474 C475 1.367 . S
C474 C482 1.378 1_554 S
C475 C474 1.367 . S
C475 C483 1.433 . S
C476 H472 0.929 . S
C476 C478 1.378 1_554 S
C476 C480 1.350 1_554 S
C477 C480 1.463 1_554 S
C477 C482 1.350 1_454 S
C477 N485 1.427 . S
C478 H469 0.930 1_556 S
C478 C476 1.378 1_556 S
C478 C479 1.367 . S
C479 C478 1.367 . S
C479 C481 1.433 . S
C480 C476 1.350 1_556 S
C480 C477 1.463 1_556 S
C480 N484 1.427 . S
C481 H471 0.929 . S
C481 C479 1.433 . S
C481 N484 1.384 . S
C482 H473 0.929 . S
C482 C474 1.378 1_556 S
C482 C477 1.350 1_656 S
C483 H470 0.929 . S
C483 C475 1.433 . S
C483 N485 1.384 1_655 S
N484 C480 1.427 . S
N484 C481 1.384 . S
N485 C477 1.427 . S
N485 C483 1.384 1_455 S
H486 C492 0.930 . S
H487 C496 0.930 . S
H488 C501 0.929 . S
H489 C499 0.929 . S
H490 C494 0.929 . S
H491 C500 0.929 . S
C492 H486 0.930 . S
C492 C493 1.367 . S
C492 C500 1.378 . S
C493 C492 1.367 . S
C493 C501 1.433 . S
C494 H490 0.929 . S
C494 C496 1.378 . S
C494 C498 1.350 . S
C495 C498 1.463 1_554 S
C495 C500 1.350 . S
C495 N503 1.427 1_554 S
C496 H487 0.930 . S
C496 C494 1.378 . S
C496 C497 1.367 . S
C497 C496 1.367 . S
C497 C499 1.433 . S
C498 C494 1.350 . S
C498 C495 1.463 1_556 S
C498 N502 1.427 1_556 S
C499 H489 0.929 . S
C499 C497 1.433 . S
C499 N502 1.384 1_556 S
C500 H491 0.929 . S
C500 C492 1.378 . S
C500 C495 1.350 . S
C501 H488 0.929 . S
C501 C493 1.433 . S
C501 N503 1.384 1_554 S
N502 C498 1.427 1_554 S
N502 C499 1.384 1_554 S
N503 C495 1.427 1_556 S
N503 C501 1.384 1_556 S
H504 C510 0.930 . S
H505 C514 0.930 . S
H506 C519 0.929 1_556 S
H507 C517 0.929 . S
H508 C512 0.929 . S
H509 C518 0.929 . S
C510 H504 0.930 . S
C510 C511 1.367 . S
C510 C518 1.378 . S
C511 C510 1.367 . S
C511 C519 1.433 . S
C512 H508 0.929 . S
C512 C514 1.378 1_545 S
C512 C516 1.350 . S
C513 C516 1.463 1_554 S
C513 C518 1.350 . S
C513 N521 1.427 1_554 S
C514 H505 0.930 . S
C514 C512 1.378 1_565 S
C514 C515 1.367 . S
C515 C514 1.367 . S
C515 C517 1.433 1_556 S
C516 C512 1.350 . S
C516 C513 1.463 1_556 S
C516 N520 1.427 1_546 S
C517 H507 0.929 . S
C517 C515 1.433 1_554 S
C517 N520 1.384 . S
C518 H509 0.929 . S
C518 C510 1.378 . S
C518 C513 1.350 . S
C519 H506 0.929 1_554 S
C519 C511 1.433 . S
C519 N521 1.384 1_554 S
N520 C516 1.427 1_564 S
N520 C517 1.384 . S
N521 C513 1.427 1_556 S
N521 C519 1.384 1_556 S
H522 C528 0.930 . S
H523 C532 0.930 . S
H524 C537 0.929 . S
H525 C535 0.929 . S
H526 C530 0.929 . S
H527 C536 0.929 . S
C528 H522 0.930 . S
C528 C529 1.367 . S
C528 C536 1.378 1_565 S
C529 C528 1.367 . S
C529 C537 1.433 . S
C530 H526 0.929 . S
C530 C532 1.378 . S
C530 C534 1.350 . S
C531 C534 1.463 . S
C531 C536 1.350 . S
C531 N539 1.427 1_545 S
C532 H523 0.930 . S
C532 C530 1.378 . S
C532 C533 1.367 . S
C533 C532 1.367 . S
C533 C535 1.433 . S
C534 C530 1.350 . S
C534 C531 1.463 . S
C534 N538 1.427 . S
C535 H525 0.929 . S
C535 C533 1.433 . S
C535 N538 1.384 . S
C536 H527 0.929 . S
C536 C528 1.378 1_545 S
C536 C531 1.350 . S
C537 H524 0.929 . S
C537 C529 1.433 . S
C537 N539 1.384 . S
N538 C534 1.427 . S
N538 C535 1.384 . S
N539 C531 1.427 1_565 S
N539 C537 1.384 . S
H540 C546 0.930 . S
H541 C550 0.930 . S
H542 C555 0.929 . S
H543 C553 0.929 . S
H544 C548 0.929 . S
H545 C554 0.929 . S
C546 H540 0.930 . S
C546 C547 1.367 . S
C546 C554 1.378 . S
C547 C546 1.367 . S
C547 C555 1.433 . S
C548 H544 0.929 . S
C548 C550 1.378 . S
C548 C552 1.350 . S
C549 C552 1.463 . S
C549 C554 1.350 1_455 S
C549 N557 1.427 . S
C550 H541 0.930 . S
C550 C548 1.378 . S
C550 C551 1.367 . S
C551 C550 1.367 . S
C551 C553 1.433 . S
C552 C548 1.350 . S
C552 C549 1.463 . S
C552 N556 1.427 . S
C553 H543 0.929 . S
C553 C551 1.433 . S
C553 N556 1.384 . S
C554 H545 0.929 . S
C554 C546 1.378 . S
C554 C549 1.350 1_655 S
C555 H542 0.929 . S
C555 C547 1.433 . S
C555 N557 1.384 1_655 S
N556 C552 1.427 . S
N556 C553 1.384 . S
N557 C549 1.427 . S
N557 C555 1.384 1_455 S
H558 C564 0.930 . S
H559 C568 0.930 . S
H560 C573 0.929 . S
H561 C571 0.929 . S
H562 C566 0.929 . S
H563 C572 0.929 . S
C564 H558 0.930 . S
C564 C565 1.367 . S
C564 C572 1.378 . S
C565 C564 1.367 . S
C565 C573 1.433 1_554 S
C566 H562 0.929 . S
C566 C568 1.378 . S
C566 C570 1.350 . S
C567 C570 1.463 . S
C567 C572 1.350 . S
C567 N575 1.427 . S
C568 H559 0.930 . S
C568 C566 1.378 . S
C568 C569 1.367 . S
C569 C568 1.367 . S
C569 C571 1.433 1_556 S
C570 C566 1.350 . S
C570 C567 1.463 . S
C570 N574 1.427 . S
C571 H561 0.929 . S
C571 C569 1.433 1_554 S
C571 N574 1.384 1_554 S
C572 H563 0.929 . S
C572 C564 1.378 . S
C572 C567 1.350 . S
C573 H560 0.929 . S
C573 C565 1.433 1_556 S
C573 N575 1.384 1_556 S
N574 C570 1.427 . S
N574 C571 1.384 1_556 S
N575 C567 1.427 . S
N575 C573 1.384 1_554 S
H576 C582 0.930 . S
H577 C586 0.930 . S
H578 C591 0.929 . S
H579 C589 0.929 . S
H580 C584 0.929 . S
H581 C590 0.929 . S
C582 H576 0.930 . S
C582 C583 1.367 . S
C582 C590 1.378 . S
C583 C582 1.367 . S
C583 C591 1.433 . S
C584 H580 0.929 . S
C584 C586 1.378 . S
C584 C588 1.350 . S
C585 C588 1.463 . S
C585 C590 1.350 . S
C585 N593 1.427 . S
C586 H577 0.930 . S
C586 C584 1.378 . S
C586 C587 1.367 . S
C587 C586 1.367 . S
C587 C589 1.433 . S
C588 C584 1.350 . S
C588 C585 1.463 . S
C588 N592 1.427 . S
C589 H579 0.929 . S
C589 C587 1.433 . S
C589 N592 1.384 . S
C590 H581 0.929 . S
C590 C582 1.378 . S
C590 C585 1.350 . S
C591 H578 0.929 . S
C591 C583 1.433 . S
C591 N593 1.384 . S
N592 C588 1.427 . S
N592 C589 1.384 . S
N593 C585 1.427 . S
N593 C591 1.384 . S
H594 C600 0.930 . S
H595 C604 0.930 . S
H596 C609 0.929 . S
H597 C607 0.929 . S
H598 C602 0.929 . S
H599 C608 0.929 . S
C600 H594 0.930 . S
C600 C601 1.367 1_556 S
C600 C608 1.378 . S
C601 C600 1.367 1_554 S
C601 C609 1.433 . S
C602 H598 0.929 . S
C602 C604 1.378 . S
C602 C606 1.350 1_564 S
C603 C606 1.463 1_554 S
C603 C608 1.350 1_554 S
C603 N611 1.427 . S
C604 H595 0.930 . S
C604 C602 1.378 . S
C604 C605 1.367 1_554 S
C605 C604 1.367 1_556 S
C605 C607 1.433 . S
C606 C602 1.350 1_546 S
C606 C603 1.463 1_556 S
C606 N610 1.427 . S
C607 H597 0.929 . S
C607 C605 1.433 . S
C607 N610 1.385 1_565 S
C608 H599 0.929 . S
C608 C600 1.378 . S
C608 C603 1.350 1_556 S
C609 H596 0.929 . S
C609 C601 1.433 . S
C609 N611 1.384 . S
N610 C606 1.427 . S
N610 C607 1.385 1_545 S
N611 C603 1.427 . S
N611 C609 1.384 . S
H612 C618 0.930 . S
H613 C622 0.930 1_545 S
H614 C627 0.929 . S
H615 C625 0.929 . S
H616 C620 0.929 . S
H617 C626 0.929 . S
C618 H612 0.930 . S
C618 C619 1.367 . S
C618 C626 1.378 1_654 S
C619 C618 1.367 . S
C619 C627 1.433 1_554 S
C620 H616 0.929 . S
C620 C622 1.378 . S
C620 C624 1.350 . S
C621 C624 1.463 . S
C621 C626 1.350 . S
C621 N629 1.427 1_455 S
C622 H613 0.930 1_565 S
C622 C620 1.378 . S
C622 C623 1.367 . S
C623 C622 1.367 . S
C623 C625 1.433 . S
C624 C620 1.350 . S
C624 C621 1.463 . S
C624 N628 1.427 . S
C625 H615 0.929 . S
C625 C623 1.433 . S
C625 N628 1.384 . S
C626 H617 0.929 . S
C626 C618 1.378 1_456 S
C626 C621 1.350 . S
C627 H614 0.929 . S
C627 C619 1.433 1_556 S
C627 N629 1.384 . S
N628 C624 1.427 . S
N628 C625 1.384 . S
N629 C621 1.427 1_655 S
N629 C627 1.384 . S
H630 C636 0.930 . S
H631 C640 0.930 . S
H632 C645 0.929 1_556 S
H633 C643 0.929 . S
H634 C638 0.929 . S
H635 C644 0.929 . S
C636 H630 0.930 . S
C636 C637 1.367 . S
C636 C644 1.378 . S
C637 C636 1.367 . S
C637 C645 1.433 . S
C638 H634 0.929 . S
C638 C640 1.378 . S
C638 C642 1.350 . S
C639 C642 1.463 . S
C639 C644 1.350 . S
C639 N647 1.427 . S
C640 H631 0.930 . S
C640 C638 1.378 . S
C640 C641 1.367 . S
C641 C640 1.367 . S
C641 C643 1.433 . S
C642 C638 1.350 . S
C642 C639 1.463 . S
C642 N646 1.427 . S
C643 H633 0.929 . S
C643 C641 1.433 . S
C643 N646 1.384 . S
C644 H635 0.929 . S
C644 C636 1.378 . S
C644 C639 1.350 . S
C645 H632 0.929 1_554 S
C645 C637 1.433 . S
C645 N647 1.384 . S
N646 C642 1.427 . S
N646 C643 1.384 . S
N647 C639 1.427 . S
N647 C645 1.384 . S
H648 C654 0.930 . S
H649 C658 0.930 . S
H650 C663 0.929 . S
H651 C661 0.929 . S
H652 C656 0.929 . S
H653 C662 0.929 . S
C654 H648 0.930 . S
C654 C655 1.367 1_556 S
C654 C662 1.378 . S
C655 C654 1.367 1_554 S
C655 C663 1.433 . S
C656 H652 0.929 . S
C656 C658 1.378 . S
C656 C660 1.350 1_564 S
C657 C660 1.463 1_554 S
C657 C662 1.350 1_554 S
C657 N665 1.427 . S
C658 H649 0.930 . S
C658 C656 1.378 . S
C658 C659 1.367 1_554 S
C659 C658 1.367 1_556 S
C659 C661 1.433 . S
C660 C656 1.350 1_546 S
C660 C657 1.463 1_556 S
C660 N664 1.427 . S
C661 H651 0.929 . S
C661 C659 1.433 . S
C661 N664 1.384 1_565 S
C662 H653 0.929 . S
C662 C654 1.378 . S
C662 C657 1.350 1_556 S
C663 H650 0.929 . S
C663 C655 1.433 . S
C663 N665 1.384 . S
N664 C660 1.427 . S
N664 C661 1.384 1_545 S
N665 C657 1.427 . S
N665 C663 1.384 . S
H666 C672 0.930 . S
H667 C676 0.930 . S
H668 C681 0.929 1_556 S
H669 C679 0.929 . S
H670 C674 0.929 1_455 S
H671 C680 0.929 . S
C672 H666 0.930 . S
C672 C673 1.367 1_554 S
C672 C680 1.378 . S
C673 C672 1.367 1_556 S
C673 C681 1.433 1_556 S
C674 H670 0.929 1_655 S
C674 C676 1.378 . S
C674 C678 1.350 1_655 S
C675 C678 1.463 . S
C675 C680 1.350 . S
C675 N683 1.427 . S
C676 H667 0.930 . S
C676 C674 1.378 . S
C676 C677 1.367 . S
C677 C676 1.367 . S
C677 C679 1.433 . S
C678 C674 1.350 1_455 S
C678 C675 1.463 . S
C678 N682 1.427 . S
C679 H669 0.929 . S
C679 C677 1.433 . S
C679 N682 1.384 1_655 S
C680 H671 0.929 . S
C680 C672 1.378 . S
C680 C675 1.350 . S
C681 H668 0.929 1_554 S
C681 C673 1.433 1_554 S
C681 N683 1.384 . S
N682 C678 1.427 . S
N682 C679 1.384 1_455 S
N683 C675 1.427 . S
N683 C681 1.384 . S
H684 C690 0.930 . S
H685 C694 0.930 . S
H686 C699 0.929 . S
H687 C697 0.929 . S
H688 C692 0.929 . S
H689 C698 0.929 . S
C690 H684 0.930 . S
C690 C691 1.367 . S
C690 C698 1.378 . S
C691 C690 1.367 . S
C691 C699 1.433 1_556 S
C692 H688 0.929 . S
C692 C694 1.378 . S
C692 C696 1.350 . S
C693 C696 1.463 . S
C693 C698 1.350 1_554 S
C693 N701 1.427 . S
C694 H685 0.930 . S
C694 C692 1.378 . S
C694 C695 1.367 . S
C695 C694 1.367 . S
C695 C697 1.433 . S
C696 C692 1.350 . S
C696 C693 1.463 . S
C696 N700 1.427 . S
C697 H687 0.929 . S
C697 C695 1.433 . S
C697 N700 1.384 . S
C698 H689 0.929 . S
C698 C690 1.378 . S
C698 C693 1.350 1_556 S
C699 H686 0.929 . S
C699 C691 1.433 1_554 S
C699 N701 1.384 . S
N700 C696 1.427 . S
N700 C697 1.384 . S
N701 C693 1.427 . S
N701 C699 1.384 . S
H702 C708 0.930 . S
H703 C712 0.932 . S
H704 C717 0.929 1_556 S
H705 C715 0.929 . S
H706 C710 0.929 1_556 S
H707 C716 0.929 . S
C708 H702 0.930 . S
C708 C709 1.367 . S
C708 C716 1.378 . S
C709 C708 1.367 . S
C709 C717 1.433 . S
C710 H706 0.929 1_554 S
C710 C712 1.378 . S
C710 C714 1.350 . S
C711 C714 1.463 . S
C711 C716 1.350 . S
C711 N719 1.427 . S
C712 H703 0.932 . S
C712 C710 1.378 . S
C712 C713 1.367 . S
C713 C712 1.367 . S
C713 C715 1.433 . S
C714 C710 1.350 . S
C714 C711 1.463 . S
C714 N718 1.427 . S
C715 H705 0.929 . S
C715 C713 1.433 . S
C715 N718 1.384 . S
C716 H707 0.929 . S
C716 C708 1.378 . S
C716 C711 1.350 . S
C717 H704 0.929 1_554 S
C717 C709 1.433 . S
C717 N719 1.384 . S
N718 C714 1.427 . S
N718 C715 1.384 . S
N719 C711 1.427 . S
N719 C717 1.384 . S
H720 C726 0.930 . S
H721 C730 0.930 . S
H722 C735 0.929 . S
H723 C733 0.929 . S
H724 C728 0.929 . S
H725 C734 0.929 . S
C726 H720 0.930 . S
C726 C727 1.367 . S
C726 C734 1.378 . S
C727 C726 1.367 . S
C727 C735 1.433 . S
C728 H724 0.929 . S
C728 C730 1.378 . S
C728 C732 1.350 . S
C729 C732 1.463 . S
C729 C734 1.350 . S
C729 N737 1.427 . S
C730 H721 0.930 . S
C730 C728 1.378 . S
C730 C731 1.367 . S
C731 C730 1.367 . S
C731 C733 1.433 . S
C732 C728 1.350 . S
C732 C729 1.463 . S
C732 N736 1.427 . S
C733 H723 0.929 . S
C733 C731 1.433 . S
C733 N736 1.384 . S
C734 H725 0.929 . S
C734 C726 1.378 . S
C734 C729 1.350 . S
C735 H722 0.929 . S
C735 C727 1.433 . S
C735 N737 1.384 . S
N736 C732 1.427 . S
N736 C733 1.384 . S
N737 C729 1.427 . S
N737 C735 1.384 . S
H738 C744 0.930 . S
H739 C748 0.930 . S
H740 C753 0.929 . S
H741 C751 0.929 . S
H742 C746 0.929 . S
H743 C752 0.929 . S
C744 H738 0.930 . S
C744 C745 1.367 1_556 S
C744 C752 1.378 . S
C745 C744 1.367 1_554 S
C745 C753 1.433 1_554 S
C746 H742 0.929 . S
C746 C748 1.378 . S
C746 C750 1.350 . S
C747 C750 1.463 . S
C747 C752 1.350 . S
C747 N755 1.427 . S
C748 H739 0.930 . S
C748 C746 1.378 . S
C748 C749 1.367 . S
C749 C748 1.367 . S
C749 C751 1.433 . S
C750 C746 1.350 . S
C750 C747 1.463 . S
C750 N754 1.427 . S
C751 H741 0.929 . S
C751 C749 1.433 . S
C751 N754 1.384 . S
C752 H743 0.929 . S
C752 C744 1.378 . S
C752 C747 1.350 . S
C753 H740 0.929 . S
C753 C745 1.433 1_556 S
C753 N755 1.384 . S
N754 C750 1.427 . S
N754 C751 1.384 . S
N755 C747 1.427 . S
N755 C753 1.384 . S
H756 C762 0.930 . S
H757 C766 0.930 . S
H758 C771 0.929 . S
H759 C769 0.929 . S
H760 C764 0.929 . S
H761 C770 0.929 . S
C762 H756 0.930 . S
C762 C763 1.367 1_554 S
C762 C770 1.378 . S
C763 C762 1.367 1_556 S
C763 C771 1.433 . S
C764 H760 0.929 . S
C764 C766 1.378 . S
C764 C768 1.350 . S
C765 C768 1.463 . S
C765 C770 1.350 1_556 S
C765 N773 1.427 . S
C766 H757 0.930 . S
C766 C764 1.378 . S
C766 C767 1.367 1_556 S
C767 C766 1.367 1_554 S
C767 C769 1.433 . S
C768 C764 1.350 . S
C768 C765 1.463 . S
C768 N772 1.427 1_556 S
C769 H759 0.929 . S
C769 C767 1.433 . S
C769 N772 1.384 . S
C770 H761 0.929 . S
C770 C762 1.378 . S
C770 C765 1.350 1_554 S
C771 H758 0.929 . S
C771 C763 1.433 . S
C771 N773 1.384 . S
N772 C768 1.427 1_554 S
N772 C769 1.384 . S
N773 C765 1.427 . S
N773 C771 1.384 . S
H774 C780 0.930 . S
H775 C784 0.930 . S
H776 C789 0.929 . S
H777 C787 0.929 . S
H778 C782 0.929 . S
H779 C788 0.929 . S
C780 H774 0.930 . S
C780 C781 1.367 . S
C780 C788 1.378 . S
C781 C780 1.367 . S
C781 C789 1.433 . S
C782 H778 0.929 . S
C782 C784 1.378 . S
C782 C786 1.350 . S
C783 C786 1.463 . S
C783 C788 1.350 . S
C783 N791 1.427 . S
C784 H775 0.930 . S
C784 C782 1.378 . S
C784 C785 1.367 . S
C785 C784 1.367 . S
C785 C787 1.433 . S
C786 C782 1.350 . S
C786 C783 1.463 . S
C786 N790 1.427 . S
C787 H777 0.929 . S
C787 C785 1.433 . S
C787 N790 1.384 . S
C788 H779 0.929 . S
C788 C780 1.378 . S
C788 C783 1.350 . S
C789 H776 0.929 . S
C789 C781 1.433 . S
C789 N791 1.384 . S
N790 C786 1.427 . S
N790 C787 1.384 . S
N791 C783 1.427 . S
N791 C789 1.384 . S
H792 C798 0.930 1_554 S
H793 C802 0.930 . S
H794 C807 0.929 . S
H795 C805 0.929 . S
H796 C800 0.929 . S
H797 C806 0.929 . S
C798 H792 0.930 1_556 S
C798 C799 1.367 . S
C798 C806 1.378 . S
C799 C798 1.367 . S
C799 C807 1.433 . S
C800 H796 0.929 . S
C800 C802 1.378 1_554 S
C800 C804 1.350 . S
C801 C804 1.463 . S
C801 C806 1.350 . S
C801 N809 1.427 . S
C802 H793 0.930 . S
C802 C800 1.378 1_556 S
C802 C803 1.367 . S
C803 C802 1.367 . S
C803 C805 1.433 1_556 S
C804 C800 1.350 . S
C804 C801 1.463 . S
C804 N808 1.427 . S
C805 H795 0.929 . S
C805 C803 1.433 1_554 S
C805 N808 1.384 . S
C806 H797 0.929 . S
C806 C798 1.378 . S
C806 C801 1.350 . S
C807 H794 0.929 . S
C807 C799 1.433 . S
C807 N809 1.384 . S
N808 C804 1.427 . S
N808 C805 1.384 . S
N809 C801 1.427 . S
N809 C807 1.384 . S
H810 C816 0.930 . S
H811 C820 0.930 . S
H812 C825 0.929 . S
H813 C823 0.929 . S
H814 C818 0.929 . S
H815 C824 0.929 . S
C816 H810 0.930 . S
C816 C817 1.367 1_554 S
C816 C824 1.378 . S
C817 C816 1.367 1_556 S
C817 C825 1.433 . S
C818 H814 0.929 . S
C818 C820 1.378 . S
C818 C822 1.350 1_556 S
C819 C822 1.463 . S
C819 C824 1.350 . S
C819 N827 1.427 1_554 S
C820 H811 0.930 . S
C820 C818 1.378 . S
C820 C821 1.367 1_556 S
C821 C820 1.367 1_554 S
C821 C823 1.433 . S
C822 C818 1.350 1_554 S
C822 C819 1.463 . S
C822 N826 1.427 . S
C823 H813 0.929 . S
C823 C821 1.433 . S
C823 N826 1.384 . S
C824 H815 0.929 . S
C824 C816 1.378 . S
C824 C819 1.350 . S
C825 H812 0.929 . S
C825 C817 1.433 . S
C825 N827 1.384 . S
N826 C822 1.427 . S
N826 C823 1.384 . S
N827 C819 1.427 1_556 S
N827 C825 1.384 . S
H828 C834 0.930 . S
H829 C838 0.930 . S
H830 C843 0.929 . S
H831 C841 0.929 . S
H832 C836 0.929 . S
H833 C842 0.929 . S
C834 H828 0.930 . S
C834 C835 1.367 . S
C834 C842 1.378 . S
C835 C834 1.367 . S
C835 C843 1.433 . S
C836 H832 0.929 . S
C836 C838 1.378 . S
C836 C840 1.350 . S
C837 C840 1.463 . S
C837 C842 1.350 . S
C837 N845 1.427 . S
C838 H829 0.930 . S
C838 C836 1.378 . S
C838 C839 1.367 . S
C839 C838 1.367 . S
C839 C841 1.433 . S
C840 C836 1.350 . S
C840 C837 1.463 . S
C840 N844 1.427 . S
C841 H831 0.929 . S
C841 C839 1.433 . S
C841 N844 1.384 . S
C842 H833 0.929 . S
C842 C834 1.378 . S
C842 C837 1.350 . S
C843 H830 0.929 . S
C843 C835 1.433 . S
C843 N845 1.384 . S
N844 C840 1.427 . S
N844 C841 1.384 . S
N845 C837 1.427 . S
N845 C843 1.384 . S
H846 C852 0.930 . S
H847 C856 0.930 . S
H848 C861 0.929 . S
H849 C859 0.929 . S
H850 C854 0.929 . S
H851 C860 0.929 . S
C852 H846 0.930 . S
C852 C853 1.367 . S
C852 C860 1.378 . S
C853 C852 1.367 . S
C853 C861 1.433 . S
C854 H850 0.929 . S
C854 C856 1.378 1_556 S
C854 C858 1.350 . S
C855 C858 1.463 . S
C855 C860 1.350 . S
C855 N863 1.427 . S
C856 H847 0.930 . S
C856 C854 1.378 1_554 S
C856 C857 1.367 . S
C857 C856 1.367 . S
C857 C859 1.433 1_554 S
C858 C854 1.350 . S
C858 C855 1.463 . S
C858 N862 1.427 . S
C859 H849 0.929 . S
C859 C857 1.433 1_556 S
C859 N862 1.384 . S
C860 H851 0.929 . S
C860 C852 1.378 . S
C860 C855 1.350 . S
C861 H848 0.929 . S
C861 C853 1.433 . S
C861 N863 1.384 . S
N862 C858 1.427 . S
N862 C859 1.384 . S
N863 C855 1.427 . S
N863 C861 1.384 . S
H864 C870 0.930 . S
H865 C874 0.930 1_554 S
H866 C879 0.929 1_554 S
H867 C877 0.929 . S
H868 C872 0.929 1_554 S
H869 C878 0.929 . S
C870 H864 0.930 . S
C870 C871 1.367 . S
C870 C878 1.378 . S
C871 C870 1.367 . S
C871 C879 1.433 . S
C872 H868 0.929 1_556 S
C872 C874 1.378 . S
C872 C876 1.350 . S
C873 C876 1.463 . S
C873 C878 1.350 . S
C873 N881 1.427 . S
C874 H865 0.930 1_556 S
C874 C872 1.378 . S
C874 C875 1.367 . S
C875 C874 1.367 . S
C875 C877 1.433 . S
C876 C872 1.350 . S
C876 C873 1.463 . S
C876 N880 1.427 . S
C877 H867 0.929 . S
C877 C875 1.433 . S
C877 N880 1.384 . S
C878 H869 0.929 . S
C878 C870 1.378 . S
C878 C873 1.350 . S
C879 H866 0.929 1_556 S
C879 C871 1.433 . S
C879 N881 1.384 . S
N880 C876 1.427 . S
N880 C877 1.384 . S
N881 C873 1.427 . S
N881 C879 1.384 . S
H882 C888 0.930 . S
H883 C892 0.930 . S
H884 C897 0.929 . S
H885 C895 0.929 . S
H886 C890 0.929 . S
H887 C896 0.929 . S
C888 H882 0.930 . S
C888 C889 1.367 . S
C888 C896 1.378 . S
C889 C888 1.367 . S
C889 C897 1.433 . S
C890 H886 0.929 . S
C890 C892 1.378 . S
C890 C894 1.350 . S
C891 C894 1.463 . S
C891 C896 1.350 . S
C891 N899 1.427 . S
C892 H883 0.930 . S
C892 C890 1.378 . S
C892 C893 1.367 . S
C893 C892 1.367 . S
C893 C895 1.433 . S
C894 C890 1.350 . S
C894 C891 1.463 . S
C894 N898 1.427 . S
C895 H885 0.929 . S
C895 C893 1.433 . S
C895 N898 1.384 . S
C896 H887 0.929 . S
C896 C888 1.378 . S
C896 C891 1.350 . S
C897 H884 0.929 . S
C897 C889 1.433 . S
C897 N899 1.384 . S
N898 C894 1.427 . S
N898 C895 1.384 . S
N899 C891 1.427 . S
N899 C897 1.384 . S
C259 C217 1.621 . S
C263 C7 1.616 . S
C277 C20 2.008 . S
C281 C230 2.052 . S
C295 C35 1.784 . S
C299 C245 1.767 . S
C313 C160 1.856 . S
C317 C34 1.818 . S
C331 C132 1.846 . S
C335 C6 1.880 . S
C349 C146 1.657 . S
C353 C21 1.656 . S
C367 C90 1.615 . S
C371 C49 1.608 . S
C385 C62 2.018 . S
C389 C104 2.061 . S
C403 C77 1.779 . S
C407 C118 1.761 . S
C421 C76 1.824 . S
C425 C202 1.858 . S
C439 C48 1.871 . S
C443 C174 1.841 . S
C457 C63 1.653 . S
C461 C189 1.653 . S
C475 C119 1.577 . S
C479 C244 1.577 . S
C493 C216 1.883 . S
C497 C91 1.883 . S
C511 C105 1.567 . S
C515 C231 1.567 . S
C529 C175 1.549 . S
C533 C133 1.549 . S
C547 C147 1.496 . S
C551 C188 1.496 . S
C565 C161 2.251 1_554 S
C569 C203 2.252 1_556 S
C583 C9 1.157 . S
C587 C36 1.157 . S
C601 C8 1.091 . S
C605 C22 1.079 . S
C619 C23 1.598 . S
C623 C37 1.650 1_554 S
C637 C51 1.156 . S
C641 C78 1.157 . S
C655 C64 1.079 . S
C659 C50 1.089 . S
C673 C65 1.591 . S
C677 C79 1.639 1_556 S
C691 C92 1.383 . S
C695 C121 1.371 . S
C709 C106 1.080 . S
C713 C93 1.043 . S
C727 C120 1.217 . S
C731 C107 1.148 . S
C745 C135 1.667 . S
C749 C162 1.643 . S
C763 C134 1.062 . S
C767 C149 1.040 1_554 S
C781 C163 1.020 . S
C785 C148 1.045 . S
C799 C204 1.652 . S
C803 C177 1.676 . S
C817 C190 1.041 1_556 S
C821 C176 1.063 . S
C835 C205 1.024 . S
C839 C191 1.046 . S
C853 C246 1.368 . S
C857 C219 1.380 . S
C871 C218 1.067 . S
C875 C232 1.099 . S
C889 C247 1.214 . S
C893 C233 1.147 . S
