# Generated by pormake.
# Topology neb, (4)-cn, num edge types: 1
# Building blocks:
#     Node 0, Type 0, BuildingBlock: CEKHIL_clean_sbu_0, # of connection points: 4
#     Node 1, Type 0, BuildingBlock: CEKHIL_clean_sbu_0, # of connection points: 4
#     Node 2, Type 0, BuildingBlock: CEKHIL_clean_sbu_0, # of connection points: 4
#     Node 3, Type 0, BuildingBlock: CEKHIL_clean_sbu_0, # of connection points: 4
#     Node 4, Type 0, BuildingBlock: CEKHIL_clean_sbu_0, # of connection points: 4
#     Node 5, Type 0, BuildingBlock: CEKHIL_clean_sbu_0, # of connection points: 4
#     Node 6, Type 0, BuildingBlock: CEKHIL_clean_sbu_0, # of connection points: 4
#     Node 7, Type 0, BuildingBlock: CEKHIL_clean_sbu_0, # of connection points: 4
#     Node 8, Type 0, BuildingBlock: CEKHIL_clean_sbu_0, # of connection points: 4
#     Node 9, Type 0, BuildingBlock: CEKHIL_clean_sbu_0, # of connection points: 4
#     Node 10, Type 0, BuildingBlock: CEKHIL_clean_sbu_0, # of connection points: 4
#     Node 11, Type 0, BuildingBlock: CEKHIL_clean_sbu_0, # of connection points: 4
#     Node 12, Type 0, BuildingBlock: CEKHIL_clean_sbu_0, # of connection points: 4
#     Node 13, Type 0, BuildingBlock: CEKHIL_clean_sbu_0, # of connection points: 4
#     Node 14, Type 0, BuildingBlock: CEKHIL_clean_sbu_0, # of connection points: 4
#     Node 15, Type 0, BuildingBlock: CEKHIL_clean_sbu_0, # of connection points: 4
#     Edge 16, Type (0, 0), BuildingBlock: KIFKEQ_clean_linker_1, # of connection points: 2
#     Edge 17, Type (0, 0), BuildingBlock: KIFKEQ_clean_linker_1, # of connection points: 2
#     Edge 18, Type (0, 0), BuildingBlock: KIFKEQ_clean_linker_1, # of connection points: 2
#     Edge 19, Type (0, 0), BuildingBlock: KIFKEQ_clean_linker_1, # of connection points: 2
#     Edge 20, Type (0, 0), BuildingBlock: KIFKEQ_clean_linker_1, # of connection points: 2
#     Edge 21, Type (0, 0), BuildingBlock: KIFKEQ_clean_linker_1, # of connection points: 2
#     Edge 22, Type (0, 0), BuildingBlock: KIFKEQ_clean_linker_1, # of connection points: 2
#     Edge 23, Type (0, 0), BuildingBlock: KIFKEQ_clean_linker_1, # of connection points: 2
#     Edge 24, Type (0, 0), BuildingBlock: KIFKEQ_clean_linker_1, # of connection points: 2
#     Edge 25, Type (0, 0), BuildingBlock: KIFKEQ_clean_linker_1, # of connection points: 2
#     Edge 26, Type (0, 0), BuildingBlock: KIFKEQ_clean_linker_1, # of connection points: 2
#     Edge 27, Type (0, 0), BuildingBlock: KIFKEQ_clean_linker_1, # of connection points: 2
#     Edge 28, Type (0, 0), BuildingBlock: KIFKEQ_clean_linker_1, # of connection points: 2
#     Edge 29, Type (0, 0), BuildingBlock: KIFKEQ_clean_linker_1, # of connection points: 2
#     Edge 30, Type (0, 0), BuildingBlock: KIFKEQ_clean_linker_1, # of connection points: 2
#     Edge 31, Type (0, 0), BuildingBlock: KIFKEQ_clean_linker_1, # of connection points: 2
#     Edge 32, Type (0, 0), BuildingBlock: KIFKEQ_clean_linker_1, # of connection points: 2
#     Edge 33, Type (0, 0), BuildingBlock: KIFKEQ_clean_linker_1, # of connection points: 2
#     Edge 34, Type (0, 0), BuildingBlock: KIFKEQ_clean_linker_1, # of connection points: 2
#     Edge 35, Type (0, 0), BuildingBlock: KIFKEQ_clean_linker_1, # of connection points: 2
#     Edge 36, Type (0, 0), BuildingBlock: KIFKEQ_clean_linker_1, # of connection points: 2
#     Edge 37, Type (0, 0), BuildingBlock: KIFKEQ_clean_linker_1, # of connection points: 2
#     Edge 38, Type (0, 0), BuildingBlock: KIFKEQ_clean_linker_1, # of connection points: 2
#     Edge 39, Type (0, 0), BuildingBlock: KIFKEQ_clean_linker_1, # of connection points: 2
#     Edge 40, Type (0, 0), BuildingBlock: KIFKEQ_clean_linker_1, # of connection points: 2
#     Edge 41, Type (0, 0), BuildingBlock: KIFKEQ_clean_linker_1, # of connection points: 2
#     Edge 42, Type (0, 0), BuildingBlock: KIFKEQ_clean_linker_1, # of connection points: 2
#     Edge 43, Type (0, 0), BuildingBlock: KIFKEQ_clean_linker_1, # of connection points: 2
#     Edge 44, Type (0, 0), BuildingBlock: KIFKEQ_clean_linker_1, # of connection points: 2
#     Edge 45, Type (0, 0), BuildingBlock: KIFKEQ_clean_linker_1, # of connection points: 2
#     Edge 46, Type (0, 0), BuildingBlock: KIFKEQ_clean_linker_1, # of connection points: 2
#     Edge 47, Type (0, 0), BuildingBlock: KIFKEQ_clean_linker_1, # of connection points: 2
# Relax obj value: 0.002
# Max RMSD: 0.027
# Mean RMSD: 0.027
data_MOF--net-neb--node1-CEKHIL_clean_sbu_0--edge1-KIFKEQ_clean_linker_1
_symmetry_space_group_name_H-M    P1
_symmetry_Int_Tables_number       1
_symmetry_cell_setting            triclinic
loop_
_symmetry_equiv_pos_as_xyz
'x, y, z'
_cell_length_a     42.046356
_cell_length_b     22.970651
_cell_length_c     76.413304
_cell_angle_alpha  90.000037
_cell_angle_beta   92.697573
_cell_angle_gamma 90.012344
loop_
_atom_site_label
_atom_site_type_symbol
_atom_site_fract_x
_atom_site_fract_y
_atom_site_fract_z
_atom_type_partial_charge
Co0 Co 0.13152 0.10015 0.45795 0.0
O1 O 0.12 0.04879 0.47657 0.0
O2 O 0.08539 0.0957 0.45912 0.0
C3 C 0.16896 0.14906 0.47443 0.0
O4 O 0.13452 0.15945 0.43799 0.0
Co5 Co 0.1996 0.09929 0.44437 0.0
O6 O 0.18573 0.16998 0.43133 0.0
C7 C 0.15406 0.00807 0.43226 0.0
C8 C 0.09053 0.06157 0.47257 0.0
C9 C 0.15654 0.18458 0.4295 0.0
O10 O 0.13184 0.03277 0.4407 0.0
O11 O 0.18295 0.02589 0.43307 0.0
O12 O 0.1391 0.16291 0.47488 0.0
O13 O 0.17506 0.10381 0.46511 0.0
Co14 Co 0.12432 0.10238 0.81669 0.0
O15 O 0.1368 0.04938 0.79861 0.0
O16 O 0.17042 0.09938 0.81586 0.0
C17 C 0.08687 0.14934 0.79972 0.0
O18 O 0.12064 0.16314 0.83618 0.0
Co19 Co 0.05593 0.10192 0.82994 0.0
O20 O 0.06943 0.17305 0.8429 0.0
C21 C 0.10151 0.0115 0.84261 0.0
C22 C 0.16604 0.06354 0.80277 0.0
C23 C 0.09856 0.18821 0.84463 0.0
O24 O 0.12396 0.03634 0.83439 0.0
O25 O 0.07254 0.02883 0.84144 0.0
O26 O 0.11669 0.16357 0.79925 0.0
O27 O 0.08086 0.1047 0.80932 0.0
Co28 Co 0.8747 0.90256 0.5667 0.0
O29 O 0.88713 0.95657 0.54886 0.0
O30 O 0.92075 0.90581 0.5659 0.0
C31 C 0.83735 0.85642 0.54948 0.0
O32 O 0.87118 0.84081 0.58589 0.0
Co33 Co 0.80652 0.90028 0.5801 0.0
O34 O 0.81967 0.82508 0.5909 0.0
C35 C 0.8518 0.99071 0.59334 0.0
C36 C 0.91637 0.94218 0.55295 0.0
C37 C 0.84901 0.81195 0.59316 0.0
O38 O 0.87422 0.96748 0.58471 0.0
O39 O 0.823 0.97235 0.59232 0.0
O40 O 0.86718 0.84237 0.54896 0.0
O41 O 0.83121 0.9003 0.55937 0.0
Co42 Co 0.88169 0.90332 0.20782 0.0
O43 O 0.87091 0.95705 0.22602 0.0
O44 O 0.83571 0.90995 0.20897 0.0
C45 C 0.91852 0.85422 0.22461 0.0
O46 O 0.88376 0.84198 0.18836 0.0
Co47 Co 0.94952 0.8989 0.19389 0.0
O48 O 0.93509 0.82414 0.18334 0.0
C49 C 0.90516 0.99135 0.18119 0.0
C50 C 0.84129 0.94499 0.22215 0.0
C51 C 0.9056 0.81219 0.18109 0.0
O52 O 0.88283 0.96877 0.19002 0.0
O53 O 0.93374 0.97184 0.18185 0.0
O54 O 0.88844 0.84236 0.22537 0.0
O55 O 0.92527 0.89796 0.21479 0.0
Co56 Co 0.13042 0.602 0.95767 0.0
O57 O 0.11933 0.54938 0.97608 0.0
O58 O 0.08437 0.59658 0.95891 0.0
C59 C 0.16768 0.65099 0.97419 0.0
O60 O 0.13301 0.66222 0.93797 0.0
Co61 Co 0.19827 0.60258 0.94371 0.0
O62 O 0.18447 0.6767 0.93243 0.0
C63 C 0.15325 0.51021 0.93203 0.0
C64 C 0.08977 0.56192 0.9722 0.0
C65 C 0.15513 0.69011 0.93032 0.0
O66 O 0.13092 0.53586 0.9401 0.0
O67 O 0.18226 0.52749 0.933 0.0
O68 O 0.1377 0.66361 0.97495 0.0
O69 O 0.17403 0.60647 0.96459 0.0
Co70 Co 0.1249 0.60034 0.31703 0.0
O71 O 0.1373 0.54794 0.29879 0.0
O72 O 0.17098 0.59783 0.31604 0.0
C73 C 0.08716 0.64729 0.3003 0.0
O74 O 0.12124 0.66032 0.3367 0.0
Co75 Co 0.05694 0.59887 0.33067 0.0
O76 O 0.06976 0.6728 0.34245 0.0
C77 C 0.10261 0.50748 0.34237 0.0
C78 C 0.16654 0.56226 0.30289 0.0
C79 C 0.09898 0.68711 0.34453 0.0
O80 O 0.12498 0.53408 0.33458 0.0
O81 O 0.07347 0.5239 0.34119 0.0
O82 O 0.11693 0.66184 0.29978 0.0
O83 O 0.08134 0.60237 0.30983 0.0
Co84 Co 0.87483 0.40262 0.06688 0.0
O85 O 0.88712 0.45646 0.04896 0.0
O86 O 0.92087 0.40618 0.06605 0.0
C87 C 0.83755 0.3561 0.0497 0.0
O88 O 0.87156 0.34112 0.08617 0.0
Co89 Co 0.80676 0.39975 0.08035 0.0
O90 O 0.82018 0.32505 0.09138 0.0
C91 C 0.85167 0.49114 0.09333 0.0
C92 C 0.91639 0.4423 0.05305 0.0
C93 C 0.84957 0.31224 0.09358 0.0
O94 O 0.87419 0.46783 0.08479 0.0
O95 O 0.82293 0.47247 0.09234 0.0
O96 O 0.8674 0.34215 0.04922 0.0
O97 O 0.83133 0.39997 0.05957 0.0
Co98 Co 0.87995 0.40282 0.70757 0.0
O99 O 0.86758 0.45755 0.72523 0.0
O100 O 0.83393 0.40643 0.7083 0.0
C101 C 0.91712 0.35673 0.72491 0.0
O102 O 0.88335 0.34035 0.68856 0.0
Co103 Co 0.94816 0.3998 0.6941 0.0
O104 O 0.93483 0.32446 0.68349 0.0
C105 C 0.90301 0.49014 0.68069 0.0
C106 C 0.83833 0.44306 0.72118 0.0
C107 C 0.90548 0.31134 0.6813 0.0
O108 O 0.88059 0.46706 0.68936 0.0
O109 O 0.93181 0.47176 0.68174 0.0
O110 O 0.88719 0.34355 0.72558 0.0
O111 O 0.92348 0.40006 0.71485 0.0
Co112 Co 0.63144 0.10071 0.95749 0.0
O113 O 0.62067 0.04767 0.97587 0.0
O114 O 0.58545 0.09444 0.95876 0.0
C115 C 0.66855 0.1501 0.97399 0.0
O116 O 0.63356 0.1612 0.93782 0.0
Co117 Co 0.69921 0.1029 0.94339 0.0
O118 O 0.68485 0.17671 0.93212 0.0
C119 C 0.65474 0.00956 0.93181 0.0
C120 C 0.59105 0.05968 0.972 0.0
C121 C 0.65542 0.18955 0.93011 0.0
O122 O 0.63226 0.03477 0.93988 0.0
O123 O 0.68364 0.02741 0.93275 0.0
O124 O 0.63851 0.16224 0.97482 0.0
O125 O 0.67505 0.10586 0.96432 0.0
Co126 Co 0.62575 0.10393 0.31636 0.0
O127 O 0.63845 0.0499 0.29861 0.0
O128 O 0.67184 0.10104 0.31569 0.0
C129 C 0.58847 0.14962 0.29898 0.0
O130 O 0.62197 0.16578 0.3355 0.0
Co131 Co 0.55747 0.10603 0.32958 0.0
O132 O 0.57042 0.18128 0.34042 0.0
C133 C 0.60274 0.01587 0.34301 0.0
C134 C 0.66763 0.06458 0.30275 0.0
C135 C 0.59973 0.19455 0.34273 0.0
O136 O 0.62522 0.03912 0.33442 0.0
O137 O 0.57393 0.03412 0.3419 0.0
O138 O 0.61827 0.16395 0.29856 0.0
O139 O 0.58231 0.10582 0.3089 0.0
Co140 Co 0.37517 0.90265 0.06653 0.0
O141 O 0.38807 0.9546 0.0483 0.0
O142 O 0.4213 0.90418 0.06566 0.0
C143 C 0.33727 0.85615 0.04975 0.0
O144 O 0.37087 0.84285 0.08619 0.0
Co145 Co 0.30696 0.90699 0.07985 0.0
O146 O 0.31969 0.83612 0.09323 0.0
C147 C 0.3532 0.99727 0.09144 0.0
C148 C 0.41719 0.93976 0.05249 0.0
C149 C 0.34857 0.8194 0.09485 0.0
O150 O 0.37553 0.96924 0.08403 0.0
O151 O 0.32388 0.98214 0.08996 0.0
O152 O 0.36696 0.84106 0.04932 0.0
O153 O 0.33168 0.90147 0.05917 0.0
Co154 Co 0.38117 0.90587 0.70756 0.0
O155 O 0.36969 0.95616 0.72645 0.0
O156 O 0.33505 0.9096 0.70892 0.0
C157 C 0.41908 0.85673 0.7236 0.0
O158 O 0.38421 0.84769 0.68733 0.0
Co159 Co 0.44897 0.90974 0.69366 0.0
O160 O 0.43525 0.8399 0.68007 0.0
C161 C 0.40319 1.00182 0.68305 0.0
C162 C 0.34023 0.94328 0.72247 0.0
C163 C 0.40619 0.82412 0.67845 0.0
O164 O 0.38096 0.974 0.69061 0.0
O165 O 0.43239 0.98584 0.68408 0.0
O166 O 0.38928 0.84241 0.72417 0.0
O167 O 0.4248 0.90266 0.71449 0.0
Co168 Co 0.63036 0.60335 0.45727 0.0
O169 O 0.61815 0.54836 0.4749 0.0
O170 O 0.58435 0.59944 0.45807 0.0
C171 C 0.66753 0.64945 0.47461 0.0
O172 O 0.63366 0.66604 0.4383 0.0
Co173 Co 0.69856 0.6067 0.44376 0.0
O174 O 0.68515 0.68214 0.43327 0.0
C175 C 0.65344 0.51633 0.43032 0.0
C176 C 0.58886 0.56269 0.4709 0.0
C177 C 0.65579 0.69521 0.43108 0.0
O178 O 0.63102 0.53929 0.43901 0.0
O179 O 0.68223 0.53477 0.43137 0.0
O180 O 0.63759 0.66249 0.47532 0.0
O181 O 0.6739 0.60624 0.46451 0.0
Co182 Co 0.62398 0.60077 0.81651 0.0
O183 O 0.63501 0.54825 0.79806 0.0
O184 O 0.67002 0.59458 0.81543 0.0
C185 C 0.58718 0.65065 0.79988 0.0
O186 O 0.62164 0.66096 0.83628 0.0
Co187 Co 0.5558 0.60271 0.83011 0.0
O188 O 0.57059 0.67283 0.84313 0.0
C189 C 0.6003 0.5101 0.84233 0.0
C190 C 0.66459 0.56029 0.80205 0.0
C191 C 0.59991 0.68667 0.84484 0.0
O192 O 0.62282 0.53415 0.83396 0.0
O193 O 0.57156 0.5287 0.84144 0.0
O194 O 0.61725 0.66279 0.79928 0.0
O195 O 0.58046 0.60618 0.80939 0.0
Co196 Co 0.37455 0.40617 0.56666 0.0
O197 O 0.38591 0.45724 0.54793 0.0
O198 O 0.42065 0.41086 0.56543 0.0
C199 C 0.33718 0.35641 0.55039 0.0
O200 O 0.37156 0.34735 0.58674 0.0
Co201 Co 0.3065 0.40894 0.58035 0.0
O202 O 0.32042 0.33903 0.59381 0.0
C203 C 0.35192 0.50119 0.59134 0.0
C204 C 0.4154 0.44465 0.55192 0.0
C205 C 0.3495 0.32349 0.59551 0.0
O206 O 0.37425 0.47375 0.58377 0.0
O207 O 0.32275 0.48497 0.59021 0.0
O208 O 0.36713 0.34335 0.5498 0.0
O209 O 0.33095 0.40186 0.55962 0.0
Co210 Co 0.38084 0.40354 0.20742 0.0
O211 O 0.36953 0.45523 0.22601 0.0
O212 O 0.33474 0.40795 0.20875 0.0
C213 C 0.41849 0.35464 0.22371 0.0
O214 O 0.38387 0.34402 0.18752 0.0
Co215 Co 0.44883 0.40667 0.19357 0.0
O216 O 0.43504 0.33593 0.18047 0.0
C217 C 0.40299 0.49799 0.18242 0.0
C218 C 0.34003 0.44236 0.22212 0.0
C219 C 0.40601 0.32001 0.17885 0.0
O220 O 0.3808 0.47048 0.19008 0.0
O221 O 0.43223 0.48223 0.18356 0.0
O222 O 0.38859 0.34137 0.22448 0.0
O223 O 0.42447 0.39987 0.21433 0.0
H224 H 0.27255 0.35915 0.55339 0.0
H225 H 0.34605 0.28275 0.52321 0.0
H226 H 0.23205 0.30843 0.53522 0.0
H227 H 0.30588 0.23477 0.50445 0.0
H228 H 0.22918 0.11199 0.48329 0.0
H229 H 0.26913 0.16013 0.50227 0.0
H230 H 0.20555 0.30639 0.50777 0.0
H231 H 0.16503 0.2563 0.48956 0.0
C232 C 0.28 0.33171 0.5428 0.0
C233 C 0.31244 0.32473 0.53977 0.0
C234 C 0.25679 0.30297 0.53225 0.0
C235 C 0.26548 0.26735 0.51822 0.0
C236 C 0.29808 0.26067 0.51527 0.0
C237 C 0.32122 0.28853 0.526 0.0
C238 C 0.22383 0.15453 0.48852 0.0
C239 C 0.19398 0.18035 0.48495 0.0
C240 C 0.24683 0.18244 0.49937 0.0
C241 C 0.2408 0.23747 0.50667 0.0
C242 C 0.211 0.26363 0.50277 0.0
C243 C 0.1878 0.23519 0.49216 0.0
H244 H 0.9162 0.03321 0.52995 0.0
H245 H 0.97595 0.89537 0.55128 0.0
H246 H 0.95795 0.06179 0.51064 0.0
H247 H 0.01715 0.92157 0.53137 0.0
H248 H 0.09727 0.01341 0.50503 0.0
H249 H 0.05615 0.98746 0.5248 0.0
H250 H 0.984 0.0374 0.48544 0.0
H251 H 0.02565 0.06648 0.46596 0.0
C252 C 0.93833 0.00899 0.53051 0.0
C253 C 0.94282 0.96224 0.54223 0.0
C254 C 0.96222 0.02493 0.51926 0.0
C255 C 0.99112 0.99392 0.5192 0.0
C256 C 0.9956 0.94738 0.53112 0.0
C257 C 0.97189 0.9321 0.54257 0.0
C258 C 0.07262 0.01861 0.50052 0.0
C259 C 0.06478 0.04195 0.48387 0.0
C260 C 0.04888 0.00334 0.51189 0.0
C261 C 0.01645 0.01003 0.50687 0.0
C262 C 0.00861 0.03253 0.49001 0.0
C263 C 0.03249 0.04871 0.47871 0.0
H264 H 0.27534 0.93886 0.71584 0.0
H265 H 0.34701 0.9906 0.75506 0.0
H266 H 0.23373 0.96822 0.73529 0.0
H267 H 0.30589 0.01686 0.7748 0.0
H268 H 0.22583 0.10981 0.80124 0.0
H269 H 0.26709 0.08324 0.78139 0.0
H270 H 0.20744 0.94398 0.76041 0.0
H271 H 0.16568 0.9729 0.77965 0.0
C272 C 0.2822 0.95635 0.72863 0.0
C273 C 0.31449 0.96268 0.73382 0.0
C274 C 0.25833 0.97272 0.73991 0.0
C275 C 0.26618 0.99498 0.75679 0.0
C276 C 0.29862 1.00117 0.76187 0.0
C277 C 0.32236 0.98571 0.75052 0.0
C278 C 0.22169 0.07322 0.79248 0.0
C279 C 0.19249 0.04346 0.79205 0.0
C280 C 0.24543 0.05773 0.78107 0.0
C281 C 0.24084 0.01135 0.7691 0.0
C282 C 0.2118 0.98072 0.76906 0.0
C283 C 0.1879 0.99687 0.78028 0.0
H284 H 0.09086 0.25578 0.78411 0.0
H285 H 0.02616 0.11309 0.79168 0.0
H286 H 0.04989 0.30619 0.76632 0.0
H287 H 0.98567 0.16163 0.77314 0.0
H288 H 0.90881 0.28571 0.75282 0.0
H289 H 0.9494 0.23761 0.77133 0.0
H290 H 0.02231 0.3072 0.73913 0.0
H291 H 0.98152 0.35788 0.72122 0.0
C292 C 0.06788 0.23507 0.78188 0.0
C293 C 0.06168 0.18059 0.78932 0.0
C294 C 0.04441 0.2637 0.77152 0.0
C295 C 0.0143 0.23811 0.76812 0.0
C296 C 0.00824 0.18345 0.77565 0.0
C297 C 0.03155 0.15531 0.78624 0.0
C298 C 0.93353 0.29062 0.74969 0.0
C299 C 0.94199 0.3256 0.73558 0.0
C300 C 0.95689 0.2627 0.76026 0.0
C301 C 0.98936 0.26818 0.75681 0.0
C302 C 0.9977 0.30271 0.74248 0.0
C303 C 0.97431 0.33145 0.73208 0.0
H304 H 0.77658 0.89252 0.5416 0.0
H305 H 0.84147 0.75051 0.53358 0.0
H306 H 0.73606 0.84417 0.52302 0.0
H307 H 0.80048 0.70026 0.51575 0.0
H308 H 0.73188 0.64893 0.47074 0.0
H309 H 0.7727 0.69962 0.48863 0.0
H310 H 0.69993 0.76798 0.52115 0.0
H311 H 0.65929 0.7199 0.50265 0.0
C312 C 0.782 0.85049 0.53604 0.0
C313 C 0.81219 0.82535 0.53901 0.0
C314 C 0.75868 0.82246 0.52544 0.0
C315 C 0.76479 0.76803 0.51778 0.0
C316 C 0.79496 0.74257 0.52106 0.0
C317 C 0.81844 0.77112 0.53142 0.0
C318 C 0.7247 0.6751 0.48167 0.0
C319 C 0.69241 0.68061 0.48526 0.0
C320 C 0.74811 0.70385 0.49205 0.0
C321 C 0.73982 0.73802 0.50647 0.0
C322 C 0.70738 0.74318 0.51001 0.0
C323 C 0.68399 0.71526 0.49946 0.0
H324 H 0.6679 0.9731 0.27995 0.0
H325 H 0.72698 0.11243 0.30096 0.0
H326 H 0.70964 0.9451 0.26059 0.0
H327 H 0.76819 0.08677 0.28098 0.0
H328 H 0.84849 0.99531 0.25434 0.0
H329 H 0.80756 0.0217 0.27422 0.0
H330 H 0.73504 0.97002 0.23527 0.0
H331 H 0.77643 0.94056 0.21572 0.0
C332 C 0.68988 0.99777 0.28043 0.0
C333 C 0.69418 0.0448 0.29207 0.0
C334 C 0.71376 0.98218 0.26914 0.0
C335 C 0.74246 0.01382 0.26896 0.0
C336 C 0.74679 0.06055 0.28082 0.0
C337 C 0.72308 0.0755 0.29231 0.0
C338 C 0.82379 0.98991 0.24995 0.0
C339 C 0.81576 0.96584 0.23341 0.0
C340 C 0.80016 0.00538 0.26138 0.0
C341 C 0.76769 0.99812 0.25652 0.0
C342 C 0.75968 0.97524 0.23974 0.0
C343 C 0.78342 0.95887 0.22839 0.0
H344 H 0.90951 0.78228 0.25225 0.0
H345 H 0.98296 0.85438 0.22113 0.0
H346 H 0.94972 0.73391 0.27096 0.0
H347 H 0.02336 0.80348 0.23925 0.0
H348 H 0.09091 0.75376 0.28475 0.0
H349 H 0.05013 0.80344 0.26667 0.0
H350 H 0.98626 0.65821 0.27321 0.0
H351 H 0.0266 0.61031 0.29206 0.0
C352 C 0.93431 0.78707 0.24926 0.0
C353 C 0.9431 0.82221 0.23524 0.0
C354 C 0.95745 0.759 0.25995 0.0
C355 C 0.99002 0.76456 0.25673 0.0
C356 C 0.99867 0.79899 0.24244 0.0
C357 C 0.9755 0.82784 0.23192 0.0
C358 C 0.06805 0.73273 0.2824 0.0
C359 C 0.06192 0.67822 0.28984 0.0
C360 C 0.04469 0.76095 0.27187 0.0
C361 C 0.01476 0.73491 0.26828 0.0
C362 C 0.00871 0.6803 0.27585 0.0
C363 C 0.03192 0.65256 0.28661 0.0
H364 H 0.27706 0.89439 0.04119 0.0
H365 H 0.34043 0.7492 0.03446 0.0
H366 H 0.2366 0.84695 0.02232 0.0
H367 H 0.29949 0.69999 0.01635 0.0
H368 H 0.23219 0.64889 0.97085 0.0
H369 H 0.27288 0.69942 0.98889 0.0
H370 H 0.19955 0.77222 0.02018 0.0
H371 H 0.15911 0.72425 1.00154 0.0
C372 C 0.28214 0.85186 0.03587 0.0
C373 C 0.31192 0.82556 0.03928 0.0
C374 C 0.25886 0.82438 0.02509 0.0
C375 C 0.26459 0.76939 0.01767 0.0
C376 C 0.2943 0.74276 0.02143 0.0
C377 C 0.31774 0.77071 0.03198 0.0
C378 C 0.22487 0.67606 0.98152 0.0
C379 C 0.19249 0.68272 0.98475 0.0
C380 C 0.2482 0.70471 0.992 0.0
C381 C 0.23971 0.73996 1.00616 0.0
C382 C 0.20717 0.7465 1.00927 0.0
C383 C 0.18388 0.71866 0.99862 0.0
H384 H 0.02487 0.56645 0.96577 0.0
H385 H 0.0969 0.51295 1.00456 0.0
H386 H 0.98346 0.53718 0.98536 0.0
H387 H 0.05599 0.48683 0.02445 0.0
H388 H 0.97592 0.39536 0.05127 0.0
H389 H 0.01696 0.42133 0.03123 0.0
H390 H 0.95772 0.56166 1.01061 0.0
H391 H 0.91612 0.53327 0.03003 0.0
C392 C 0.03185 0.54851 0.97849 0.0
C393 C 0.06419 0.54174 0.98353 0.0
C394 C 0.0081 0.53223 0.98985 0.0
C395 C 0.01611 0.50965 1.00667 0.0
C396 C 0.04859 0.50282 1.01158 0.0
C397 C 0.07221 0.51817 1.00014 0.0
C398 C 0.97182 0.43207 0.04255 0.0
C399 C 0.94278 0.46228 0.04227 0.0
C400 C 0.99544 0.44721 0.03103 0.0
C401 C 0.9909 0.49369 0.0191 0.0
C402 C 0.96203 0.52481 0.01922 0.0
C403 C 0.93822 0.509 0.03054 0.0
H404 H 0.27511 0.43771 0.21565 0.0
H405 H 0.34706 0.49101 0.25451 0.0
H406 H 0.23365 0.46727 0.23518 0.0
H407 H 0.30611 0.51745 0.27434 0.0
H408 H 0.22608 0.60938 0.30107 0.0
H409 H 0.26716 0.58327 0.28105 0.0
H410 H 0.2078 0.44309 0.26041 0.0
H411 H 0.16621 0.47158 0.2798 0.0
C412 C 0.28206 0.45563 0.22837 0.0
C413 C 0.31439 0.46228 0.23345 0.0
C414 C 0.25829 0.4721 0.2397 0.0
C415 C 0.26627 0.49477 0.25652 0.0
C416 C 0.29874 0.50141 0.26147 0.0
C417 C 0.32238 0.48586 0.25007 0.0
C418 C 0.22197 0.5727 0.29235 0.0
C419 C 0.19291 0.54254 0.29206 0.0
C420 C 0.2456 0.55747 0.28083 0.0
C421 C 0.24103 0.51096 0.26891 0.0
C422 C 0.21213 0.47996 0.26901 0.0
C423 C 0.18833 0.49585 0.28032 0.0
H424 H 0.65997 0.22174 1.00172 0.0
H425 H 0.73294 0.14989 0.97023 0.0
H426 H 0.70041 0.2698 0.02033 0.0
H427 H 0.77359 0.20062 0.98824 0.0
H428 H 0.84168 0.25038 0.03366 0.0
H429 H 0.8009 0.20088 0.01549 0.0
H430 H 0.73677 0.34537 0.02255 0.0
H431 H 0.77704 0.39291 0.04149 0.0
C432 C 0.68471 0.21698 0.99862 0.0
C433 C 0.69329 0.18199 0.98453 0.0
C434 C 0.70799 0.24488 1.00925 0.0
C435 C 0.7405 0.23939 1.00589 0.0
C436 C 0.74895 0.20508 0.99153 0.0
C437 C 0.72564 0.17634 0.98107 0.0
C438 C 0.81875 0.27126 0.03139 0.0
C439 C 0.8125 0.3254 0.03904 0.0
C440 C 0.7954 0.24317 0.02082 0.0
C441 C 0.76537 0.269 0.01738 0.0
C442 C 0.75927 0.32336 0.02509 0.0
C443 C 0.78245 0.35092 0.0359 0.0
H444 H 0.72946 0.56473 0.80858 0.0
H445 H 0.65758 0.51183 0.76962 0.0
H446 H 0.77096 0.53619 0.78896 0.0
H447 H 0.69858 0.48641 0.7497 0.0
H448 H 0.77886 0.39586 0.72283 0.0
H449 H 0.73774 0.42122 0.74286 0.0
H450 H 0.79669 0.5616 0.76374 0.0
H451 H 0.8384 0.53384 0.7443 0.0
C452 C 0.72253 0.54704 0.79582 0.0
C453 C 0.69021 0.54024 0.79073 0.0
C454 C 0.74633 0.5312 0.78444 0.0
C455 C 0.73839 0.50903 0.76756 0.0
C456 C 0.70593 0.50212 0.76262 0.0
C457 C 0.68226 0.51704 0.77407 0.0
C458 C 0.78288 0.43247 0.73159 0.0
C459 C 0.81188 0.46288 0.73193 0.0
C460 C 0.75921 0.44725 0.74312 0.0
C461 C 0.76365 0.49355 0.75512 0.0
C462 C 0.79246 0.52488 0.75506 0.0
C463 C 0.81633 0.50944 0.74373 0.0
H464 H 0.52621 0.0636 0.96551 0.0
H465 H 0.59822 0.00958 1.00424 0.0
H466 H 0.48479 0.03365 0.98497 0.0
H467 H 0.55724 0.98265 0.02404 0.0
H468 H 0.47655 0.89163 0.05075 0.0
H469 H 0.51787 0.91727 0.03079 0.0
H470 H 0.4593 0.05859 1.01023 0.0
H471 H 0.41751 0.03067 0.02955 0.0
C472 C 0.53318 0.04538 0.97819 0.0
C473 C 0.56551 0.03877 0.98326 0.0
C474 C 0.50943 0.02871 0.98948 0.0
C475 C 0.5174 0.00586 1.00628 0.0
C476 C 0.54988 0.99895 1.01119 0.0
C477 C 0.57352 0.01474 0.99981 0.0
C478 C 0.47267 0.92844 0.04205 0.0
C479 C 0.44376 0.95909 0.04175 0.0
C480 C 0.49644 0.94338 0.03058 0.0
C481 C 0.49213 0.99003 0.01868 0.0
C482 C 0.46341 0.02156 0.0188 0.0
C483 C 0.43949 0.00599 0.03006 0.0
H484 H 0.41043 0.2815 0.25111 0.0
H485 H 0.48294 0.35713 0.22006 0.0
H486 H 0.45114 0.2337 0.26956 0.0
H487 H 0.52394 0.30657 0.23789 0.0
H488 H 0.59219 0.25585 0.28321 0.0
H489 H 0.55127 0.30517 0.26509 0.0
H490 H 0.48791 0.15907 0.27154 0.0
H491 H 0.52829 0.11174 0.29044 0.0
C492 C 0.43515 0.28715 0.24806 0.0
C493 C 0.4435 0.3231 0.23415 0.0
C494 C 0.4586 0.25937 0.2586 0.0
C495 C 0.49108 0.2659 0.25531 0.0
C496 C 0.49932 0.30124 0.24112 0.0
C497 C 0.47581 0.3299 0.23076 0.0
C498 C 0.5694 0.23457 0.28081 0.0
C499 C 0.56338 0.18007 0.28829 0.0
C500 C 0.54597 0.26258 0.27027 0.0
C501 C 0.51609 0.23628 0.26669 0.0
C502 C 0.51027 0.18148 0.2742 0.0
C503 C 0.53351 0.15403 0.28499 0.0
H504 H 0.47942 0.89409 0.73217 0.0
H505 H 0.41557 0.74943 0.73868 0.0
H506 H 0.5196 0.84629 0.75111 0.0
H507 H 0.45625 0.69982 0.75688 0.0
H508 H 0.52261 0.6491 0.80283 0.0
H509 H 0.48236 0.69949 0.78447 0.0
H510 H 0.55649 0.7714 0.75355 0.0
H511 H 0.5965 0.72357 0.77251 0.0
C512 C 0.47419 0.85156 0.73744 0.0
C513 C 0.44434 0.82556 0.73397 0.0
C514 C 0.4973 0.82387 0.74827 0.0
C515 C 0.49134 0.76897 0.75568 0.0
C516 C 0.4616 0.74253 0.75181 0.0
C517 C 0.43832 0.7707 0.74121 0.0
C518 C 0.53021 0.67607 0.79218 0.0
C519 C 0.56268 0.68252 0.78915 0.0
C520 C 0.50713 0.70461 0.78151 0.0
C521 C 0.51596 0.73954 0.76736 0.0
C522 C 0.5486 0.74591 0.76444 0.0
C523 C 0.57164 0.71817 0.77528 0.0
H524 H 0.40841 0.49201 0.51936 0.0
H525 H 0.48034 0.43978 0.55837 0.0
H526 H 0.44936 0.51735 0.49942 0.0
H527 H 0.52182 0.46827 0.5387 0.0
H528 H 0.58929 0.4718 0.494 0.0
H529 H 0.5477 0.44341 0.51345 0.0
H530 H 0.48825 0.58316 0.49266 0.0
H531 H 0.52925 0.60916 0.47262 0.0
C532 C 0.43309 0.48688 0.52382 0.0
C533 C 0.44107 0.46397 0.54051 0.0
C534 C 0.45673 0.50179 0.51235 0.0
C535 C 0.4892 0.49518 0.5173 0.0
C536 C 0.49718 0.47308 0.53419 0.0
C537 C 0.4734 0.45725 0.54559 0.0
C538 C 0.56713 0.49592 0.49345 0.0
C539 C 0.56251 0.5425 0.48167 0.0
C540 C 0.54334 0.48011 0.50479 0.0
C541 C 0.51442 0.51106 0.50487 0.0
C542 C 0.5098 0.55739 0.49289 0.0
C543 C 0.53341 0.57254 0.48137 0.0
H544 H 0.05957 0.76956 0.35763 0.0
H545 H 0.15741 0.7118 0.36027 0.0
H546 H 0.07272 0.84531 0.379 0.0
H547 H 0.1704 0.78598 0.38223 0.0
H548 H 0.191 0.96175 0.40733 0.0
H549 H 0.17771 0.88574 0.38632 0.0
H550 H 0.08591 0.86462 0.40873 0.0
H551 H 0.09884 0.94311 0.42945 0.0
C552 C 0.08391 0.77282 0.36284 0.0
C553 C 0.10746 0.73459 0.35715 0.0
C554 C 0.09142 0.81607 0.37527 0.0
C555 C 0.12264 0.822 0.38252 0.0
C556 C 0.14619 0.78365 0.37679 0.0
C557 C 0.13875 0.74083 0.3642 0.0
C558 C 0.168 0.94082 0.40792 0.0
C559 C 0.14602 0.95876 0.42018 0.0
C560 C 0.16041 0.89671 0.39584 0.0
C561 C 0.13072 0.8685 0.39573 0.0
C562 C 0.10884 0.88583 0.40817 0.0
C563 C 0.11632 0.93061 0.42018 0.0
H564 H 0.19255 0.22521 0.40335 0.0
H565 H 0.1013 0.2489 0.42607 0.0
H566 H 0.17941 0.29999 0.38184 0.0
H567 H 0.08855 0.32608 0.40489 0.0
H568 H 0.06243 0.42493 0.35476 0.0
H569 H 0.07502 0.34647 0.37531 0.0
H570 H 0.17368 0.40022 0.37796 0.0
H571 H 0.16123 0.47713 0.35682 0.0
C572 C 0.16973 0.24685 0.40389 0.0
C573 C 0.14801 0.23101 0.41653 0.0
C574 C 0.16225 0.29022 0.39155 0.0
C575 C 0.13296 0.31974 0.39158 0.0
C576 C 0.11117 0.30388 0.40423 0.0
C577 C 0.11852 0.2598 0.41648 0.0
C578 C 0.08688 0.41975 0.35962 0.0
C579 C 0.11083 0.4574 0.35407 0.0
C580 C 0.09407 0.37494 0.37157 0.0
C581 C 0.12537 0.36683 0.37849 0.0
C582 C 0.14937 0.40424 0.37277 0.0
C583 C 0.14224 0.44863 0.36064 0.0
H584 H 0.06276 0.22873 0.87089 0.0
H585 H 0.15354 0.25334 0.84774 0.0
H586 H 0.07613 0.30329 0.89243 0.0
H587 H 0.1665 0.33038 0.86892 0.0
H588 H 0.19348 0.42881 0.91903 0.0
H589 H 0.18066 0.35074 0.89836 0.0
H590 H 0.08179 0.40307 0.89667 0.0
H591 H 0.09449 0.47939 0.91794 0.0
C592 C 0.0855 0.25059 0.87025 0.0
C593 C 0.10703 0.235 0.8575 0.0
C594 C 0.09313 0.29383 0.88261 0.0
C595 C 0.12238 0.32353 0.88249 0.0
C596 C 0.14394 0.30802 0.86968 0.0
C597 C 0.13645 0.26405 0.85741 0.0
C598 C 0.16894 0.42336 0.91435 0.0
C599 C 0.14501 0.46039 0.92022 0.0
C600 C 0.16161 0.37879 0.90232 0.0
C601 C 0.13017 0.37038 0.89564 0.0
C602 C 0.10621 0.40725 0.90166 0.0
C603 C 0.11349 0.45133 0.91387 0.0
H604 H 0.09688 0.71365 0.91408 0.0
H605 H 0.19413 0.77457 0.91811 0.0
H606 H 0.08412 0.78827 0.89217 0.0
H607 H 0.1812 0.85047 0.8968 0.0
H608 H 0.1569 0.94744 0.84611 0.0
H609 H 0.16926 0.86892 0.86688 0.0
H610 H 0.07636 0.88835 0.88811 0.0
H611 H 0.06366 0.96455 0.86703 0.0
C612 C 0.11543 0.74344 0.91047 0.0
C613 C 0.14652 0.73794 0.91786 0.0
C614 C 0.10813 0.78647 0.89791 0.0
C615 C 0.13164 0.82561 0.89256 0.0
C616 C 0.16259 0.82054 0.90022 0.0
C617 C 0.16996 0.77718 0.91261 0.0
C618 C 0.13907 0.93463 0.85514 0.0
C619 C 0.10926 0.96237 0.8548 0.0
C620 C 0.14622 0.88981 0.86717 0.0
C621 C 0.12385 0.87203 0.87929 0.0
C622 C 0.09403 0.89977 0.87884 0.0
C623 C 0.0868 0.94397 0.86674 0.0
H624 H 0.84709 0.28687 0.66538 0.0
H625 H 0.94448 0.22662 0.66919 0.0
H626 H 0.83425 0.21194 0.64358 0.0
H627 H 0.93147 0.15048 0.64795 0.0
H628 H 0.9069 0.0555 0.59688 0.0
H629 H 0.91924 0.13325 0.6179 0.0
H630 H 0.8268 0.11142 0.63949 0.0
H631 H 0.8141 0.0358 0.61818 0.0
C632 C 0.86566 0.25713 0.66176 0.0
C633 C 0.89682 0.26297 0.66904 0.0
C634 C 0.85831 0.21395 0.64926 0.0
C635 C 0.88184 0.17501 0.64385 0.0
C636 C 0.91284 0.18028 0.65143 0.0
C637 C 0.92025 0.22376 0.66377 0.0
C638 C 0.88916 0.06757 0.60605 0.0
C639 C 0.85948 0.03932 0.60574 0.0
C640 C 0.89631 0.11194 0.61822 0.0
C641 C 0.87406 0.12883 0.63051 0.0
C642 C 0.84437 0.10061 0.6301 0.0
C643 C 0.83714 0.05678 0.61786 0.0
H644 H 0.94042 0.53481 0.65564 0.0
H645 H 0.8481 0.55537 0.67742 0.0
H646 H 0.92762 0.61078 0.63443 0.0
H647 H 0.83567 0.63338 0.65653 0.0
H648 H 0.80986 0.72778 0.6055 0.0
H649 H 0.82297 0.65122 0.62658 0.0
H650 H 0.92045 0.71147 0.63049 0.0
H651 H 0.9075 0.78682 0.60885 0.0
C652 C 0.91747 0.55604 0.65608 0.0
C653 C 0.89529 0.53874 0.66831 0.0
C654 C 0.91018 0.60005 0.64391 0.0
C655 C 0.88059 0.62861 0.64367 0.0
C656 C 0.85851 0.61183 0.65606 0.0
C657 C 0.86571 0.56729 0.66816 0.0
C658 C 0.83416 0.7246 0.61079 0.0
C659 C 0.85763 0.76358 0.60543 0.0
C660 C 0.84163 0.68085 0.62304 0.0
C661 C 0.87275 0.67509 0.63044 0.0
C662 C 0.8963 0.71385 0.62496 0.0
C663 C 0.88888 0.7573 0.61255 0.0
H664 H 0.90693 0.55534 0.09708 0.0
H665 H 0.81337 0.53804 0.11762 0.0
H666 H 0.91909 0.6335 0.11797 0.0
H667 H 0.82587 0.61419 0.1388 0.0
H668 H 0.84719 0.78971 0.16476 0.0
H669 H 0.8341 0.71486 0.14292 0.0
H670 H 0.9306 0.65008 0.14812 0.0
H671 H 0.94385 0.72588 0.16937 0.0
C672 C 0.88898 0.56804 0.10605 0.0
C673 C 0.85916 0.54023 0.10559 0.0
C674 C 0.89601 0.61266 0.11815 0.0
C675 C 0.87353 0.6303 0.13021 0.0
C676 C 0.84365 0.60271 0.1296 0.0
C677 C 0.83654 0.55858 0.11744 0.0
C678 C 0.86554 0.75926 0.1613 0.0
C679 C 0.89659 0.76406 0.16881 0.0
C680 C 0.85804 0.71615 0.14878 0.0
C681 C 0.88133 0.67637 0.14358 0.0
C682 C 0.91218 0.68058 0.15141 0.0
C683 C 0.91972 0.7239 0.16377 0.0
H684 H 0.94234 0.03636 0.15605 0.0
H685 H 0.8505 0.05736 0.17837 0.0
H686 H 0.92922 0.11236 0.13489 0.0
H687 H 0.83778 0.13535 0.15753 0.0
H688 H 0.81079 0.22836 0.10643 0.0
H689 H 0.82442 0.15242 0.12762 0.0
H690 H 0.92186 0.21297 0.13074 0.0
H691 H 0.90839 0.28771 0.10899 0.0
C692 C 0.91945 0.05772 0.15662 0.0
C693 C 0.89747 0.04046 0.16898 0.0
C694 C 0.91197 0.10174 0.14448 0.0
C695 C 0.88239 0.13033 0.14439 0.0
C696 C 0.86058 0.11375 0.15694 0.0
C697 C 0.86796 0.06922 0.16901 0.0
C698 C 0.83519 0.22539 0.11156 0.0
C699 C 0.85849 0.26427 0.10595 0.0
C700 C 0.84297 0.182 0.12388 0.0
C701 C 0.87423 0.1765 0.1311 0.0
C702 C 0.89761 0.21516 0.12536 0.0
C703 C 0.88988 0.25826 0.11289 0.0
H704 H 0.65496 0.75188 0.84761 0.0
H705 H 0.56517 0.72557 0.87168 0.0
H706 H 0.66821 0.82904 0.86875 0.0
H707 H 0.57884 0.80014 0.89314 0.0
H708 H 0.59609 0.97713 0.918 0.0
H709 H 0.58367 0.90022 0.8969 0.0
H710 H 0.68293 0.85052 0.89814 0.0
H711 H 0.69546 0.92923 0.91866 0.0
C712 C 0.63819 0.76219 0.85749 0.0
C713 C 0.60891 0.7328 0.85782 0.0
C714 C 0.64583 0.80624 0.86971 0.0
C715 C 0.62456 0.8214 0.88271 0.0
C716 C 0.59556 0.79104 0.88315 0.0
C717 C 0.58777 0.74779 0.87083 0.0
C718 C 0.61524 0.94954 0.91387 0.0
C719 C 0.64677 0.9595 0.92006 0.0
C720 C 0.60812 0.90511 0.90177 0.0
C721 C 0.63226 0.86875 0.8957 0.0
C722 C 0.66374 0.87812 0.90218 0.0
C723 C 0.6709 0.92305 0.91411 0.0
H724 H 0.59679 0.21238 0.91416 0.0
H725 H 0.69386 0.27441 0.91762 0.0
H726 H 0.58342 0.28663 0.89221 0.0
H727 H 0.68033 0.34984 0.89628 0.0
H728 H 0.65543 0.44536 0.84557 0.0
H729 H 0.66796 0.36705 0.86635 0.0
H730 H 0.57532 0.38674 0.88786 0.0
H731 H 0.56243 0.46289 0.86676 0.0
C732 C 0.61518 0.24233 0.91042 0.0
C733 C 0.64641 0.23721 0.91766 0.0
C734 C 0.60752 0.28512 0.89783 0.0
C735 C 0.63081 0.32438 0.8923 0.0
C736 C 0.66188 0.31977 0.89983 0.0
C737 C 0.66959 0.27668 0.91224 0.0
C738 C 0.63767 0.43265 0.85465 0.0
C739 C 0.6079 0.46057 0.8544 0.0
C740 C 0.64492 0.38795 0.8667 0.0
C741 C 0.62273 0.3704 0.87894 0.0
C742 C 0.59288 0.39807 0.87852 0.0
C743 C 0.58554 0.44222 0.86641 0.0
H744 H 0.65818 0.22 0.35842 0.0
H745 H 0.56044 0.27839 0.35512 0.0
H746 H 0.67103 0.29537 0.38006 0.0
H747 H 0.57344 0.35499 0.37621 0.0
H748 H 0.5986 0.45085 0.42708 0.0
H749 H 0.58621 0.37287 0.40616 0.0
H750 H 0.67804 0.39609 0.38398 0.0
H751 H 0.6908 0.47203 0.4052 0.0
C752 C 0.63951 0.24938 0.36212 0.0
C753 C 0.60827 0.24292 0.35502 0.0
C754 C 0.64688 0.29285 0.37453 0.0
C755 C 0.62327 0.33145 0.38003 0.0
C756 C 0.59215 0.32549 0.37265 0.0
C757 C 0.58473 0.28173 0.3604 0.0
C758 C 0.61619 0.43908 0.41779 0.0
C759 C 0.64573 0.46778 0.41792 0.0
C760 C 0.60901 0.39455 0.40568 0.0
C761 C 0.63107 0.37795 0.39326 0.0
C762 C 0.66062 0.40668 0.39347 0.0
C763 C 0.66789 0.45068 0.40565 0.0
H764 H 0.59748 0.71964 0.41503 0.0
H765 H 0.69478 0.78028 0.41917 0.0
H766 H 0.58479 0.79465 0.39324 0.0
H767 H 0.68192 0.85646 0.39794 0.0
H768 H 0.6579 0.95134 0.34678 0.0
H769 H 0.67005 0.87367 0.36786 0.0
H770 H 0.57729 0.89514 0.38908 0.0
H771 H 0.56479 0.97068 0.36772 0.0
C772 C 0.61606 0.74947 0.41149 0.0
C773 C 0.64716 0.74371 0.41886 0.0
C774 C 0.60879 0.79271 0.39899 0.0
C775 C 0.63235 0.83175 0.39366 0.0
C776 C 0.66328 0.82658 0.40134 0.0
C777 C 0.6706 0.78307 0.41369 0.0
C778 C 0.64006 0.93922 0.35588 0.0
C779 C 0.61034 0.96734 0.35545 0.0
C780 C 0.64709 0.89488 0.36809 0.0
C781 C 0.6247 0.87791 0.38029 0.0
C782 C 0.59498 0.90602 0.37976 0.0
C783 C 0.58786 0.94981 0.36749 0.0
H784 H 0.35074 0.25578 0.17499 0.0
H785 H 0.44288 0.27835 0.15318 0.0
H786 H 0.33844 0.17858 0.15376 0.0
H787 H 0.43023 0.20341 0.13165 0.0
H788 H 0.4117 0.02615 0.10646 0.0
H789 H 0.42401 0.10288 0.12773 0.0
H790 H 0.32587 0.15938 0.12391 0.0
H791 H 0.3134 0.08135 0.10322 0.0
C792 C 0.36828 0.24461 0.16562 0.0
C793 C 0.39785 0.27322 0.16591 0.0
C794 C 0.36118 0.20052 0.15333 0.0
C795 C 0.38334 0.18437 0.1409 0.0
C796 C 0.41276 0.2135 0.14117 0.0
C797 C 0.41996 0.25696 0.15352 0.0
C798 C 0.39281 0.05525 0.11005 0.0
C799 C 0.36156 0.04736 0.10312 0.0
C800 C 0.39986 0.09949 0.12226 0.0
C801 C 0.37592 0.13753 0.1277 0.0
C802 C 0.34483 0.13037 0.1204 0.0
C803 C 0.33773 0.0858 0.10836 0.0
H804 H 0.44256 0.58162 0.17009 0.0
H805 H 0.34411 0.52731 0.16807 0.0
H806 H 0.4295 0.65949 0.14943 0.0
H807 H 0.33118 0.60373 0.14682 0.0
H808 H 0.31189 0.7784 0.12076 0.0
H809 H 0.3249 0.70395 0.14245 0.0
H810 H 0.41604 0.67777 0.11973 0.0
H811 H 0.40344 0.75438 0.0984 0.0
C812 C 0.41808 0.58624 0.16522 0.0
C813 C 0.39439 0.54809 0.17079 0.0
C814 C 0.41062 0.6307 0.1532 0.0
C815 C 0.37929 0.63797 0.14623 0.0
C816 C 0.3555 0.60027 0.15202 0.0
C817 C 0.36291 0.55618 0.16422 0.0
C818 C 0.33473 0.75676 0.12033 0.0
C819 C 0.35661 0.77252 0.10777 0.0
C820 C 0.34214 0.71363 0.13277 0.0
C821 C 0.37154 0.68437 0.13294 0.0
C822 C 0.39338 0.69988 0.12028 0.0
C823 C 0.38608 0.74362 0.10793 0.0
H824 H 0.35119 0.75919 0.67504 0.0
H825 H 0.44212 0.78443 0.65209 0.0
H826 H 0.33843 0.68244 0.65375 0.0
H827 H 0.42896 0.70991 0.63047 0.0
H828 H 0.41071 0.53227 0.60543 0.0
H829 H 0.42334 0.60948 0.62645 0.0
H830 H 0.32463 0.66278 0.62412 0.0
H831 H 0.31188 0.5841 0.60367 0.0
C832 C 0.36835 0.74873 0.66538 0.0
C833 C 0.39774 0.77789 0.66539 0.0
C834 C 0.36097 0.7049 0.65306 0.0
C835 C 0.38265 0.68955 0.64029 0.0
C836 C 0.41187 0.71935 0.64024 0.0
C837 C 0.41936 0.76255 0.65265 0.0
C838 C 0.39175 0.56076 0.60929 0.0
C839 C 0.36027 0.55175 0.60285 0.0
C840 C 0.39899 0.60532 0.62135 0.0
C841 C 0.37501 0.64261 0.62715 0.0
C842 C 0.34366 0.63438 0.62033 0.0
C843 C 0.33638 0.58944 0.60843 0.0
H844 H 0.31308 0.28336 0.62159 0.0
H845 H 0.40472 0.25924 0.59933 0.0
H846 H 0.326 0.20922 0.64334 0.0
H847 H 0.41726 0.18282 0.62078 0.0
H848 H 0.443 0.08576 0.67116 0.0
H849 H 0.43036 0.16405 0.65057 0.0
H850 H 0.33195 0.10883 0.64748 0.0
H851 H 0.34447 0.03194 0.66864 0.0
C852 C 0.33595 0.26179 0.6212 0.0
C853 C 0.35784 0.27734 0.60861 0.0
C854 C 0.3433 0.21881 0.63369 0.0
C855 C 0.37265 0.18945 0.63388 0.0
C856 C 0.3946 0.20496 0.62127 0.0
C857 C 0.38736 0.24859 0.60886 0.0
C858 C 0.41858 0.09062 0.66621 0.0
C859 C 0.39475 0.05245 0.67161 0.0
C860 C 0.41137 0.13531 0.65423 0.0
C861 C 0.38016 0.14283 0.64714 0.0
C862 C 0.3562 0.10517 0.65278 0.0
C863 C 0.36337 0.06083 0.66493 0.0
loop_
_geom_bond_atom_site_label_1
_geom_bond_atom_site_label_2
_geom_bond_distance
_geom_bond_site_symmetry_2
_ccdc_geom_bond_type
Co0 O1 2.216 . S
Co0 O2 2.091 . S
Co0 O4 2.004 . S
Co0 O10 2.021 . S
Co0 O12 2.137 . S
Co0 O13 2.244 . S
O1 Co0 2.216 . S
O1 C8 1.247 . S
O2 Co0 2.091 . S
O2 C8 1.261 . S
C3 O12 1.247 . S
C3 O13 1.272 . S
O4 Co0 2.004 . S
O4 C9 1.259 . S
Co5 O6 2.061 . S
Co5 O11 2.052 . S
Co5 O13 2.135 . S
O6 Co5 2.061 . S
O6 C9 1.235 . S
C7 O10 1.238 . S
C7 O11 1.241 . S
C8 O1 1.247 . S
C8 O2 1.261 . S
C9 O4 1.259 . S
C9 O6 1.235 . S
O10 Co0 2.021 . S
O10 C7 1.238 . S
O11 Co5 2.052 . S
O11 C7 1.241 . S
O12 Co0 2.137 . S
O12 C3 1.247 . S
O13 Co0 2.244 . S
O13 C3 1.272 . S
O13 Co5 2.135 . S
Co14 O15 2.216 . S
Co14 O16 2.091 . S
Co14 O18 2.004 . S
Co14 O24 2.021 . S
Co14 O26 2.137 . S
Co14 O27 2.244 . S
O15 Co14 2.216 . S
O15 C22 1.247 . S
O16 Co14 2.091 . S
O16 C22 1.261 . S
C17 O26 1.247 . S
C17 O27 1.272 . S
O18 Co14 2.004 . S
O18 C23 1.259 . S
Co19 O20 2.061 . S
Co19 O25 2.052 . S
Co19 O27 2.135 . S
O20 Co19 2.061 . S
O20 C23 1.235 . S
C21 O24 1.238 . S
C21 O25 1.241 . S
C22 O15 1.247 . S
C22 O16 1.261 . S
C23 O18 1.259 . S
C23 O20 1.235 . S
O24 Co14 2.021 . S
O24 C21 1.238 . S
O25 Co19 2.052 . S
O25 C21 1.241 . S
O26 Co14 2.137 . S
O26 C17 1.247 . S
O27 Co14 2.244 . S
O27 C17 1.272 . S
O27 Co19 2.135 . S
Co28 O29 2.216 . S
Co28 O30 2.091 . S
Co28 O32 2.004 . S
Co28 O38 2.021 . S
Co28 O40 2.137 . S
Co28 O41 2.244 . S
O29 Co28 2.216 . S
O29 C36 1.247 . S
O30 Co28 2.091 . S
O30 C36 1.261 . S
C31 O40 1.247 . S
C31 O41 1.272 . S
O32 Co28 2.004 . S
O32 C37 1.259 . S
Co33 O34 2.061 . S
Co33 O39 2.052 . S
Co33 O41 2.135 . S
O34 Co33 2.061 . S
O34 C37 1.235 . S
C35 O38 1.238 . S
C35 O39 1.241 . S
C36 O29 1.247 . S
C36 O30 1.261 . S
C37 O32 1.259 . S
C37 O34 1.235 . S
O38 Co28 2.021 . S
O38 C35 1.238 . S
O39 Co33 2.052 . S
O39 C35 1.241 . S
O40 Co28 2.137 . S
O40 C31 1.247 . S
O41 Co28 2.244 . S
O41 C31 1.272 . S
O41 Co33 2.135 . S
Co42 O43 2.216 . S
Co42 O44 2.091 . S
Co42 O46 2.004 . S
Co42 O52 2.021 . S
Co42 O54 2.137 . S
Co42 O55 2.244 . S
O43 Co42 2.216 . S
O43 C50 1.247 . S
O44 Co42 2.091 . S
O44 C50 1.261 . S
C45 O54 1.247 . S
C45 O55 1.272 . S
O46 Co42 2.004 . S
O46 C51 1.259 . S
Co47 O48 2.061 . S
Co47 O53 2.052 . S
Co47 O55 2.135 . S
O48 Co47 2.061 . S
O48 C51 1.235 . S
C49 O52 1.238 . S
C49 O53 1.241 . S
C50 O43 1.247 . S
C50 O44 1.261 . S
C51 O46 1.259 . S
C51 O48 1.235 . S
O52 Co42 2.021 . S
O52 C49 1.238 . S
O53 Co47 2.052 . S
O53 C49 1.241 . S
O54 Co42 2.137 . S
O54 C45 1.247 . S
O55 Co42 2.244 . S
O55 C45 1.272 . S
O55 Co47 2.135 . S
Co56 O57 2.216 . S
Co56 O58 2.091 . S
Co56 O60 2.004 . S
Co56 O66 2.021 . S
Co56 O68 2.137 . S
Co56 O69 2.244 . S
O57 Co56 2.216 . S
O57 C64 1.247 . S
O58 Co56 2.091 . S
O58 C64 1.261 . S
C59 O68 1.247 . S
C59 O69 1.272 . S
O60 Co56 2.004 . S
O60 C65 1.259 . S
Co61 O62 2.061 . S
Co61 O67 2.052 . S
Co61 O69 2.135 . S
O62 Co61 2.061 . S
O62 C65 1.235 . S
C63 O66 1.238 . S
C63 O67 1.241 . S
C64 O57 1.247 . S
C64 O58 1.261 . S
C65 O60 1.259 . S
C65 O62 1.235 . S
O66 Co56 2.021 . S
O66 C63 1.238 . S
O67 Co61 2.052 . S
O67 C63 1.241 . S
O68 Co56 2.137 . S
O68 C59 1.247 . S
O69 Co56 2.244 . S
O69 C59 1.272 . S
O69 Co61 2.135 . S
Co70 O71 2.216 . S
Co70 O72 2.091 . S
Co70 O74 2.004 . S
Co70 O80 2.021 . S
Co70 O82 2.137 . S
Co70 O83 2.244 . S
O71 Co70 2.216 . S
O71 C78 1.247 . S
O72 Co70 2.091 . S
O72 C78 1.261 . S
C73 O82 1.247 . S
C73 O83 1.272 . S
O74 Co70 2.004 . S
O74 C79 1.259 . S
Co75 O76 2.061 . S
Co75 O81 2.052 . S
Co75 O83 2.135 . S
O76 Co75 2.061 . S
O76 C79 1.235 . S
C77 O80 1.238 . S
C77 O81 1.241 . S
C78 O71 1.247 . S
C78 O72 1.261 . S
C79 O74 1.259 . S
C79 O76 1.235 . S
O80 Co70 2.021 . S
O80 C77 1.238 . S
O81 Co75 2.052 . S
O81 C77 1.241 . S
O82 Co70 2.137 . S
O82 C73 1.247 . S
O83 Co70 2.244 . S
O83 C73 1.272 . S
O83 Co75 2.135 . S
Co84 O85 2.216 . S
Co84 O86 2.091 . S
Co84 O88 2.004 . S
Co84 O94 2.021 . S
Co84 O96 2.137 . S
Co84 O97 2.244 . S
O85 Co84 2.216 . S
O85 C92 1.247 . S
O86 Co84 2.091 . S
O86 C92 1.261 . S
C87 O96 1.247 . S
C87 O97 1.272 . S
O88 Co84 2.004 . S
O88 C93 1.259 . S
Co89 O90 2.061 . S
Co89 O95 2.052 . S
Co89 O97 2.135 . S
O90 Co89 2.061 . S
O90 C93 1.235 . S
C91 O94 1.238 . S
C91 O95 1.241 . S
C92 O85 1.247 . S
C92 O86 1.261 . S
C93 O88 1.259 . S
C93 O90 1.235 . S
O94 Co84 2.021 . S
O94 C91 1.238 . S
O95 Co89 2.052 . S
O95 C91 1.241 . S
O96 Co84 2.137 . S
O96 C87 1.247 . S
O97 Co84 2.244 . S
O97 C87 1.272 . S
O97 Co89 2.135 . S
Co98 O99 2.216 . S
Co98 O100 2.091 . S
Co98 O102 2.004 . S
Co98 O108 2.021 . S
Co98 O110 2.137 . S
Co98 O111 2.244 . S
O99 Co98 2.216 . S
O99 C106 1.247 . S
O100 Co98 2.091 . S
O100 C106 1.261 . S
C101 O110 1.247 . S
C101 O111 1.272 . S
O102 Co98 2.004 . S
O102 C107 1.259 . S
Co103 O104 2.061 . S
Co103 O109 2.052 . S
Co103 O111 2.135 . S
O104 Co103 2.061 . S
O104 C107 1.235 . S
C105 O108 1.238 . S
C105 O109 1.241 . S
C106 O99 1.247 . S
C106 O100 1.261 . S
C107 O102 1.259 . S
C107 O104 1.235 . S
O108 Co98 2.021 . S
O108 C105 1.238 . S
O109 Co103 2.052 . S
O109 C105 1.241 . S
O110 Co98 2.137 . S
O110 C101 1.247 . S
O111 Co98 2.244 . S
O111 C101 1.272 . S
O111 Co103 2.135 . S
Co112 O113 2.216 . S
Co112 O114 2.091 . S
Co112 O116 2.004 . S
Co112 O122 2.021 . S
Co112 O124 2.137 . S
Co112 O125 2.244 . S
O113 Co112 2.216 . S
O113 C120 1.247 . S
O114 Co112 2.091 . S
O114 C120 1.261 . S
C115 O124 1.247 . S
C115 O125 1.272 . S
O116 Co112 2.004 . S
O116 C121 1.259 . S
Co117 O118 2.061 . S
Co117 O123 2.052 . S
Co117 O125 2.135 . S
O118 Co117 2.061 . S
O118 C121 1.235 . S
C119 O122 1.238 . S
C119 O123 1.241 . S
C120 O113 1.247 . S
C120 O114 1.261 . S
C121 O116 1.259 . S
C121 O118 1.235 . S
O122 Co112 2.021 . S
O122 C119 1.238 . S
O123 Co117 2.052 . S
O123 C119 1.241 . S
O124 Co112 2.137 . S
O124 C115 1.247 . S
O125 Co112 2.244 . S
O125 C115 1.272 . S
O125 Co117 2.135 . S
Co126 O127 2.216 . S
Co126 O128 2.091 . S
Co126 O130 2.004 . S
Co126 O136 2.021 . S
Co126 O138 2.137 . S
Co126 O139 2.244 . S
O127 Co126 2.216 . S
O127 C134 1.247 . S
O128 Co126 2.091 . S
O128 C134 1.261 . S
C129 O138 1.247 . S
C129 O139 1.272 . S
O130 Co126 2.004 . S
O130 C135 1.259 . S
Co131 O132 2.061 . S
Co131 O137 2.052 . S
Co131 O139 2.135 . S
O132 Co131 2.061 . S
O132 C135 1.235 . S
C133 O136 1.238 . S
C133 O137 1.241 . S
C134 O127 1.247 . S
C134 O128 1.261 . S
C135 O130 1.259 . S
C135 O132 1.235 . S
O136 Co126 2.021 . S
O136 C133 1.238 . S
O137 Co131 2.052 . S
O137 C133 1.241 . S
O138 Co126 2.137 . S
O138 C129 1.247 . S
O139 Co126 2.244 . S
O139 C129 1.272 . S
O139 Co131 2.135 . S
Co140 O141 2.216 . S
Co140 O142 2.091 . S
Co140 O144 2.004 . S
Co140 O150 2.021 . S
Co140 O152 2.137 . S
Co140 O153 2.244 . S
O141 Co140 2.216 . S
O141 C148 1.247 . S
O142 Co140 2.091 . S
O142 C148 1.261 . S
C143 O152 1.247 . S
C143 O153 1.272 . S
O144 Co140 2.004 . S
O144 C149 1.259 . S
Co145 O146 2.061 . S
Co145 O151 2.052 . S
Co145 O153 2.135 . S
O146 Co145 2.061 . S
O146 C149 1.235 . S
C147 O150 1.238 . S
C147 O151 1.241 . S
C148 O141 1.247 . S
C148 O142 1.261 . S
C149 O144 1.259 . S
C149 O146 1.235 . S
O150 Co140 2.021 . S
O150 C147 1.238 . S
O151 Co145 2.052 . S
O151 C147 1.241 . S
O152 Co140 2.137 . S
O152 C143 1.247 . S
O153 Co140 2.244 . S
O153 C143 1.272 . S
O153 Co145 2.135 . S
Co154 O155 2.216 . S
Co154 O156 2.091 . S
Co154 O158 2.004 . S
Co154 O164 2.021 . S
Co154 O166 2.137 . S
Co154 O167 2.244 . S
O155 Co154 2.216 . S
O155 C162 1.247 . S
O156 Co154 2.091 . S
O156 C162 1.261 . S
C157 O166 1.247 . S
C157 O167 1.272 . S
O158 Co154 2.004 . S
O158 C163 1.259 . S
Co159 O160 2.061 . S
Co159 O165 2.052 . S
Co159 O167 2.135 . S
O160 Co159 2.061 . S
O160 C163 1.235 . S
C161 O164 1.238 . S
C161 O165 1.241 . S
C162 O155 1.247 . S
C162 O156 1.261 . S
C163 O158 1.259 . S
C163 O160 1.235 . S
O164 Co154 2.021 . S
O164 C161 1.238 . S
O165 Co159 2.052 . S
O165 C161 1.241 . S
O166 Co154 2.137 . S
O166 C157 1.247 . S
O167 Co154 2.244 . S
O167 C157 1.272 . S
O167 Co159 2.135 . S
Co168 O169 2.216 . S
Co168 O170 2.091 . S
Co168 O172 2.004 . S
Co168 O178 2.021 . S
Co168 O180 2.137 . S
Co168 O181 2.244 . S
O169 Co168 2.216 . S
O169 C176 1.247 . S
O170 Co168 2.091 . S
O170 C176 1.261 . S
C171 O180 1.247 . S
C171 O181 1.272 . S
O172 Co168 2.004 . S
O172 C177 1.259 . S
Co173 O174 2.061 . S
Co173 O179 2.052 . S
Co173 O181 2.135 . S
O174 Co173 2.061 . S
O174 C177 1.235 . S
C175 O178 1.238 . S
C175 O179 1.241 . S
C176 O169 1.247 . S
C176 O170 1.261 . S
C177 O172 1.259 . S
C177 O174 1.235 . S
O178 Co168 2.021 . S
O178 C175 1.238 . S
O179 Co173 2.052 . S
O179 C175 1.241 . S
O180 Co168 2.137 . S
O180 C171 1.247 . S
O181 Co168 2.244 . S
O181 C171 1.272 . S
O181 Co173 2.135 . S
Co182 O183 2.216 . S
Co182 O184 2.091 . S
Co182 O186 2.004 . S
Co182 O192 2.021 . S
Co182 O194 2.137 . S
Co182 O195 2.244 . S
O183 Co182 2.216 . S
O183 C190 1.247 . S
O184 Co182 2.091 . S
O184 C190 1.261 . S
C185 O194 1.247 . S
C185 O195 1.272 . S
O186 Co182 2.004 . S
O186 C191 1.259 . S
Co187 O188 2.061 . S
Co187 O193 2.052 . S
Co187 O195 2.135 . S
O188 Co187 2.061 . S
O188 C191 1.235 . S
C189 O192 1.238 . S
C189 O193 1.241 . S
C190 O183 1.247 . S
C190 O184 1.261 . S
C191 O186 1.259 . S
C191 O188 1.235 . S
O192 Co182 2.021 . S
O192 C189 1.238 . S
O193 Co187 2.052 . S
O193 C189 1.241 . S
O194 Co182 2.137 . S
O194 C185 1.247 . S
O195 Co182 2.244 . S
O195 C185 1.272 . S
O195 Co187 2.135 . S
Co196 O197 2.216 . S
Co196 O198 2.091 . S
Co196 O200 2.004 . S
Co196 O206 2.021 . S
Co196 O208 2.137 . S
Co196 O209 2.244 . S
O197 Co196 2.216 . S
O197 C204 1.247 . S
O198 Co196 2.091 . S
O198 C204 1.261 . S
C199 O208 1.247 . S
C199 O209 1.272 . S
O200 Co196 2.004 . S
O200 C205 1.259 . S
Co201 O202 2.061 . S
Co201 O207 2.052 . S
Co201 O209 2.135 . S
O202 Co201 2.061 . S
O202 C205 1.235 . S
C203 O206 1.238 . S
C203 O207 1.241 . S
C204 O197 1.247 . S
C204 O198 1.261 . S
C205 O200 1.259 . S
C205 O202 1.235 . S
O206 Co196 2.021 . S
O206 C203 1.238 . S
O207 Co201 2.052 . S
O207 C203 1.241 . S
O208 Co196 2.137 . S
O208 C199 1.247 . S
O209 Co196 2.244 . S
O209 C199 1.272 . S
O209 Co201 2.135 . S
Co210 O211 2.216 . S
Co210 O212 2.091 . S
Co210 O214 2.004 . S
Co210 O220 2.021 . S
Co210 O222 2.137 . S
Co210 O223 2.244 . S
O211 Co210 2.216 . S
O211 C218 1.247 . S
O212 Co210 2.091 . S
O212 C218 1.261 . S
C213 O222 1.247 . S
C213 O223 1.272 . S
O214 Co210 2.004 . S
O214 C219 1.259 . S
Co215 O216 2.061 . S
Co215 O221 2.052 . S
Co215 O223 2.135 . S
O216 Co215 2.061 . S
O216 C219 1.235 . S
C217 O220 1.238 . S
C217 O221 1.241 . S
C218 O211 1.247 . S
C218 O212 1.261 . S
C219 O214 1.259 . S
C219 O216 1.235 . S
O220 Co210 2.021 . S
O220 C217 1.238 . S
O221 Co215 2.052 . S
O221 C217 1.241 . S
O222 Co210 2.137 . S
O222 C213 1.247 . S
O223 Co210 2.244 . S
O223 C213 1.272 . S
O223 Co215 2.135 . S
H224 C232 0.950 . S
H225 C237 0.950 . S
H226 C234 0.950 . S
H227 C236 0.950 . S
H228 C238 0.950 . S
H229 C240 0.950 . S
H230 C242 0.950 . S
H231 C243 0.950 . S
C232 H224 0.950 . S
C232 C233 1.386 . S
C232 C234 1.391 . S
C233 C232 1.386 . S
C233 C237 1.393 . S
C234 H226 0.950 . S
C234 C232 1.391 . S
C234 C235 1.400 . S
C235 C234 1.400 . S
C235 C236 1.398 . S
C235 C241 1.491 . S
C236 H227 0.950 . S
C236 C235 1.398 . S
C236 C237 1.391 . S
C237 H225 0.950 . S
C237 C233 1.393 . S
C237 C236 1.391 . S
C238 H228 0.950 . S
C238 C239 1.386 . S
C238 C240 1.391 . S
C239 C238 1.386 . S
C239 C243 1.393 . S
C240 H229 0.950 . S
C240 C238 1.391 . S
C240 C241 1.400 . S
C241 C235 1.491 . S
C241 C240 1.400 . S
C241 C242 1.398 . S
C242 H230 0.950 . S
C242 C241 1.398 . S
C242 C243 1.391 . S
C243 H231 0.950 . S
C243 C239 1.393 . S
C243 C242 1.391 . S
H244 C252 0.950 . S
H245 C257 0.950 . S
H246 C254 0.950 . S
H247 C256 0.950 1_455 S
H248 C258 0.950 . S
H249 C260 0.950 . S
H250 C262 0.950 1_655 S
H251 C263 0.950 . S
C252 H244 0.950 . S
C252 C253 1.386 . S
C252 C254 1.391 . S
C253 C252 1.386 . S
C253 C257 1.393 . S
C254 H246 0.950 . S
C254 C252 1.391 . S
C254 C255 1.400 . S
C255 C254 1.400 . S
C255 C256 1.398 1_565 S
C255 C261 1.491 1_665 S
C256 H247 0.950 1_655 S
C256 C255 1.398 1_545 S
C256 C257 1.391 1_545 S
C257 H245 0.950 . S
C257 C253 1.393 . S
C257 C256 1.391 1_565 S
C258 H248 0.950 . S
C258 C259 1.386 . S
C258 C260 1.391 . S
C259 C258 1.386 . S
C259 C263 1.393 . S
C260 H249 0.950 . S
C260 C258 1.391 . S
C260 C261 1.400 . S
C261 C255 1.491 1_445 S
C261 C260 1.400 . S
C261 C262 1.398 1_545 S
C262 H250 0.950 1_455 S
C262 C261 1.398 1_565 S
C262 C263 1.391 1_565 S
C263 H251 0.950 . S
C263 C259 1.393 . S
C263 C262 1.391 1_545 S
H264 C272 0.950 . S
H265 C277 0.950 . S
H266 C274 0.950 . S
H267 C276 0.950 1_545 S
H268 C278 0.950 . S
H269 C280 0.950 . S
H270 C282 0.950 1_565 S
H271 C283 0.950 . S
C272 H264 0.950 . S
C272 C273 1.386 . S
C272 C274 1.391 . S
C273 C272 1.386 . S
C273 C277 1.393 . S
C274 H266 0.950 . S
C274 C272 1.391 . S
C274 C275 1.400 . S
C275 C274 1.400 . S
C275 C276 1.398 . S
C275 C281 1.491 1_565 S
C276 H267 0.950 1_565 S
C276 C275 1.398 . S
C276 C277 1.391 . S
C277 H265 0.950 . S
C277 C273 1.393 . S
C277 C276 1.391 . S
C278 H268 0.950 . S
C278 C279 1.386 . S
C278 C280 1.391 . S
C279 C278 1.386 . S
C279 C283 1.393 . S
C280 H269 0.950 . S
C280 C278 1.391 . S
C280 C281 1.400 . S
C281 C275 1.491 1_545 S
C281 C280 1.400 . S
C281 C282 1.398 . S
C282 H270 0.950 1_545 S
C282 C281 1.398 . S
C282 C283 1.391 . S
C283 H271 0.950 . S
C283 C279 1.393 . S
C283 C282 1.391 . S
H284 C292 0.950 . S
H285 C297 0.950 . S
H286 C294 0.950 . S
H287 C296 0.950 1_655 S
H288 C298 0.950 . S
H289 C300 0.950 . S
H290 C302 0.950 1_455 S
H291 C303 0.950 . S
C292 H284 0.950 . S
C292 C293 1.386 . S
C292 C294 1.391 . S
C293 C292 1.386 . S
C293 C297 1.393 . S
C294 H286 0.950 . S
C294 C292 1.391 . S
C294 C295 1.400 . S
C295 C294 1.400 . S
C295 C296 1.398 . S
C295 C301 1.491 1_455 S
C296 H287 0.950 1_455 S
C296 C295 1.398 . S
C296 C297 1.391 . S
C297 H285 0.950 . S
C297 C293 1.393 . S
C297 C296 1.391 . S
C298 H288 0.950 . S
C298 C299 1.386 . S
C298 C300 1.391 . S
C299 C298 1.386 . S
C299 C303 1.393 . S
C300 H289 0.950 . S
C300 C298 1.391 . S
C300 C301 1.400 . S
C301 C295 1.491 1_655 S
C301 C300 1.400 . S
C301 C302 1.398 . S
C302 H290 0.950 1_655 S
C302 C301 1.398 . S
C302 C303 1.391 . S
C303 H291 0.950 . S
C303 C299 1.393 . S
C303 C302 1.391 . S
H304 C312 0.950 . S
H305 C317 0.950 . S
H306 C314 0.950 . S
H307 C316 0.950 . S
H308 C318 0.950 . S
H309 C320 0.950 . S
H310 C322 0.950 . S
H311 C323 0.950 . S
C312 H304 0.950 . S
C312 C313 1.386 . S
C312 C314 1.391 . S
C313 C312 1.386 . S
C313 C317 1.393 . S
C314 H306 0.950 . S
C314 C312 1.391 . S
C314 C315 1.400 . S
C315 C314 1.400 . S
C315 C316 1.398 . S
C315 C321 1.491 . S
C316 H307 0.950 . S
C316 C315 1.398 . S
C316 C317 1.391 . S
C317 H305 0.950 . S
C317 C313 1.393 . S
C317 C316 1.391 . S
C318 H308 0.950 . S
C318 C319 1.386 . S
C318 C320 1.391 . S
C319 C318 1.386 . S
C319 C323 1.393 . S
C320 H309 0.950 . S
C320 C318 1.391 . S
C320 C321 1.400 . S
C321 C315 1.491 . S
C321 C320 1.400 . S
C321 C322 1.398 . S
C322 H310 0.950 . S
C322 C321 1.398 . S
C322 C323 1.391 . S
C323 H311 0.950 . S
C323 C319 1.393 . S
C323 C322 1.391 . S
H324 C332 0.950 1_565 S
H325 C337 0.950 . S
H326 C334 0.950 . S
H327 C336 0.950 . S
H328 C338 0.950 1_545 S
H329 C340 0.950 . S
H330 C342 0.950 . S
H331 C343 0.950 . S
C332 H324 0.950 1_545 S
C332 C333 1.386 . S
C332 C334 1.391 1_545 S
C333 C332 1.386 . S
C333 C337 1.393 . S
C334 H326 0.950 . S
C334 C332 1.391 1_565 S
C334 C335 1.400 1_565 S
C335 C334 1.400 1_545 S
C335 C336 1.398 . S
C335 C341 1.491 1_545 S
C336 H327 0.950 . S
C336 C335 1.398 . S
C336 C337 1.391 . S
C337 H325 0.950 . S
C337 C333 1.393 . S
C337 C336 1.391 . S
C338 H328 0.950 1_565 S
C338 C339 1.386 . S
C338 C340 1.391 1_565 S
C339 C338 1.386 . S
C339 C343 1.393 . S
C340 H329 0.950 . S
C340 C338 1.391 1_545 S
C340 C341 1.400 1_545 S
C341 C335 1.491 1_565 S
C341 C340 1.400 1_565 S
C341 C342 1.398 . S
C342 H330 0.950 . S
C342 C341 1.398 . S
C342 C343 1.391 . S
C343 H331 0.950 . S
C343 C339 1.393 . S
C343 C342 1.391 . S
H344 C352 0.950 . S
H345 C357 0.950 . S
H346 C354 0.950 . S
H347 C356 0.950 1_455 S
H348 C358 0.950 . S
H349 C360 0.950 . S
H350 C362 0.950 1_655 S
H351 C363 0.950 . S
C352 H344 0.950 . S
C352 C353 1.386 . S
C352 C354 1.391 . S
C353 C352 1.386 . S
C353 C357 1.393 . S
C354 H346 0.950 . S
C354 C352 1.391 . S
C354 C355 1.400 . S
C355 C354 1.400 . S
C355 C356 1.398 . S
C355 C361 1.491 1_655 S
C356 H347 0.950 1_655 S
C356 C355 1.398 . S
C356 C357 1.391 . S
C357 H345 0.950 . S
C357 C353 1.393 . S
C357 C356 1.391 . S
C358 H348 0.950 . S
C358 C359 1.386 . S
C358 C360 1.391 . S
C359 C358 1.386 . S
C359 C363 1.393 . S
C360 H349 0.950 . S
C360 C358 1.391 . S
C360 C361 1.400 . S
C361 C355 1.491 1_455 S
C361 C360 1.400 . S
C361 C362 1.398 . S
C362 H350 0.950 1_455 S
C362 C361 1.398 . S
C362 C363 1.391 . S
C363 H351 0.950 . S
C363 C359 1.393 . S
C363 C362 1.391 . S
H364 C372 0.950 . S
H365 C377 0.950 . S
H366 C374 0.950 . S
H367 C376 0.950 1_556 S
H368 C378 0.950 . S
H369 C380 0.950 . S
H370 C382 0.950 1_554 S
H371 C383 0.950 . S
C372 H364 0.950 . S
C372 C373 1.386 . S
C372 C374 1.391 . S
C373 C372 1.386 . S
C373 C377 1.393 . S
C374 H366 0.950 . S
C374 C372 1.391 . S
C374 C375 1.400 . S
C375 C374 1.400 . S
C375 C376 1.398 . S
C375 C381 1.491 1_554 S
C376 H367 0.950 1_554 S
C376 C375 1.398 . S
C376 C377 1.391 . S
C377 H365 0.950 . S
C377 C373 1.393 . S
C377 C376 1.391 . S
C378 H368 0.950 . S
C378 C379 1.386 . S
C378 C380 1.391 . S
C379 C378 1.386 . S
C379 C383 1.393 . S
C380 H369 0.950 . S
C380 C378 1.391 . S
C380 C381 1.400 . S
C381 C375 1.491 1_556 S
C381 C380 1.400 . S
C381 C382 1.398 . S
C382 H370 0.950 1_556 S
C382 C381 1.398 . S
C382 C383 1.391 . S
C383 H371 0.950 . S
C383 C379 1.393 . S
C383 C382 1.391 . S
H384 C392 0.950 . S
H385 C397 0.950 . S
H386 C394 0.941 1_554 S
H387 C396 0.950 . S
H388 C398 0.950 . S
H389 C400 0.941 1_556 S
H390 C402 0.950 . S
H391 C403 0.950 . S
C392 H384 0.950 . S
C392 C393 1.386 . S
C392 C394 1.391 . S
C393 C392 1.386 . S
C393 C397 1.393 . S
C394 H386 0.941 1_556 S
C394 C392 1.391 . S
C394 C395 1.400 . S
C395 C394 1.400 . S
C395 C396 1.398 . S
C395 C401 1.491 1_456 S
C396 H387 0.950 . S
C396 C395 1.398 . S
C396 C397 1.391 . S
C397 H385 0.950 . S
C397 C393 1.393 . S
C397 C396 1.391 . S
C398 H388 0.950 . S
C398 C399 1.386 . S
C398 C400 1.391 . S
C399 C398 1.386 . S
C399 C403 1.393 . S
C400 H389 0.941 1_554 S
C400 C398 1.391 . S
C400 C401 1.400 . S
C401 C395 1.491 1_654 S
C401 C400 1.400 . S
C401 C402 1.398 . S
C402 H390 0.950 . S
C402 C401 1.398 . S
C402 C403 1.391 . S
C403 H391 0.950 . S
C403 C399 1.393 . S
C403 C402 1.391 . S
H404 C412 0.950 . S
H405 C417 0.950 . S
H406 C414 0.950 . S
H407 C416 0.950 . S
H408 C418 0.950 . S
H409 C420 0.950 . S
H410 C422 0.950 . S
H411 C423 0.950 . S
C412 H404 0.950 . S
C412 C413 1.386 . S
C412 C414 1.391 . S
C413 C412 1.386 . S
C413 C417 1.393 . S
C414 H406 0.950 . S
C414 C412 1.391 . S
C414 C415 1.400 . S
C415 C414 1.400 . S
C415 C416 1.398 . S
C415 C421 1.491 . S
C416 H407 0.950 . S
C416 C415 1.398 . S
C416 C417 1.391 . S
C417 H405 0.950 . S
C417 C413 1.393 . S
C417 C416 1.391 . S
C418 H408 0.950 . S
C418 C419 1.386 . S
C418 C420 1.391 . S
C419 C418 1.386 . S
C419 C423 1.393 . S
C420 H409 0.950 . S
C420 C418 1.391 . S
C420 C421 1.400 . S
C421 C415 1.491 . S
C421 C420 1.400 . S
C421 C422 1.398 . S
C422 H410 0.950 . S
C422 C421 1.398 . S
C422 C423 1.391 . S
C423 H411 0.950 . S
C423 C419 1.393 . S
C423 C422 1.391 . S
H424 C432 0.950 . S
H425 C437 0.950 . S
H426 C434 0.931 1_554 S
H427 C436 0.950 . S
H428 C438 0.950 . S
H429 C440 0.931 1_556 S
H430 C442 0.950 . S
H431 C443 0.950 . S
C432 H424 0.950 . S
C432 C433 1.386 . S
C432 C434 1.403 . S
C433 C432 1.386 . S
C433 C437 1.393 . S
C434 H426 0.931 1_556 S
C434 C432 1.403 . S
C434 C435 1.407 . S
C435 C434 1.407 . S
C435 C436 1.398 . S
C435 C441 1.491 1_556 S
C436 H427 0.950 . S
C436 C435 1.398 . S
C436 C437 1.391 . S
C437 H425 0.950 . S
C437 C433 1.393 . S
C437 C436 1.391 . S
C438 H428 0.950 . S
C438 C439 1.386 . S
C438 C440 1.403 . S
C439 C438 1.386 . S
C439 C443 1.393 . S
C440 H429 0.931 1_554 S
C440 C438 1.403 . S
C440 C441 1.407 . S
C441 C435 1.491 1_554 S
C441 C440 1.407 . S
C441 C442 1.398 . S
C442 H430 0.950 . S
C442 C441 1.398 . S
C442 C443 1.391 . S
C443 H431 0.950 . S
C443 C439 1.393 . S
C443 C442 1.391 . S
H444 C452 0.950 . S
H445 C457 0.950 . S
H446 C454 0.950 . S
H447 C456 0.950 . S
H448 C458 0.950 . S
H449 C460 0.950 . S
H450 C462 0.950 . S
H451 C463 0.950 . S
C452 H444 0.950 . S
C452 C453 1.386 . S
C452 C454 1.391 . S
C453 C452 1.386 . S
C453 C457 1.393 . S
C454 H446 0.950 . S
C454 C452 1.391 . S
C454 C455 1.400 . S
C455 C454 1.400 . S
C455 C456 1.398 . S
C455 C461 1.491 . S
C456 H447 0.950 . S
C456 C455 1.398 . S
C456 C457 1.391 . S
C457 H445 0.950 . S
C457 C453 1.393 . S
C457 C456 1.391 . S
C458 H448 0.950 . S
C458 C459 1.386 . S
C458 C460 1.391 . S
C459 C458 1.386 . S
C459 C463 1.393 . S
C460 H449 0.950 . S
C460 C458 1.391 . S
C460 C461 1.400 . S
C461 C455 1.491 . S
C461 C460 1.400 . S
C461 C462 1.398 . S
C462 H450 0.950 . S
C462 C461 1.398 . S
C462 C463 1.391 . S
C463 H451 0.950 . S
C463 C459 1.393 . S
C463 C462 1.391 . S
H464 C472 0.950 . S
H465 C477 0.950 . S
H466 C474 0.950 . S
H467 C476 0.947 . S
H468 C478 0.950 . S
H469 C480 0.950 . S
H470 C482 0.947 . S
H471 C483 0.950 . S
C472 H464 0.950 . S
C472 C473 1.386 . S
C472 C474 1.391 . S
C473 C472 1.386 . S
C473 C477 1.393 . S
C474 H466 0.950 . S
C474 C472 1.391 . S
C474 C475 1.400 . S
C475 C474 1.400 . S
C475 C476 1.399 1_556 S
C475 C481 1.491 1_546 S
C476 H467 0.947 . S
C476 C475 1.399 1_554 S
C476 C477 1.393 1_554 S
C477 H465 0.950 . S
C477 C473 1.393 . S
C477 C476 1.393 1_556 S
C478 H468 0.950 . S
C478 C479 1.386 . S
C478 C480 1.391 . S
C479 C478 1.386 . S
C479 C483 1.393 . S
C480 H469 0.950 . S
C480 C478 1.391 . S
C480 C481 1.400 . S
C481 C475 1.491 1_564 S
C481 C480 1.400 . S
C481 C482 1.399 1_554 S
C482 H470 0.947 . S
C482 C481 1.399 1_556 S
C482 C483 1.393 1_556 S
C483 H471 0.950 . S
C483 C479 1.393 . S
C483 C482 1.393 1_554 S
H484 C492 0.950 . S
H485 C497 0.950 . S
H486 C494 0.950 . S
H487 C496 0.950 . S
H488 C498 0.950 . S
H489 C500 0.950 . S
H490 C502 0.950 . S
H491 C503 0.950 . S
C492 H484 0.950 . S
C492 C493 1.386 . S
C492 C494 1.391 . S
C493 C492 1.386 . S
C493 C497 1.393 . S
C494 H486 0.950 . S
C494 C492 1.391 . S
C494 C495 1.400 . S
C495 C494 1.400 . S
C495 C496 1.398 . S
C495 C501 1.491 . S
C496 H487 0.950 . S
C496 C495 1.398 . S
C496 C497 1.391 . S
C497 H485 0.950 . S
C497 C493 1.393 . S
C497 C496 1.391 . S
C498 H488 0.950 . S
C498 C499 1.386 . S
C498 C500 1.391 . S
C499 C498 1.386 . S
C499 C503 1.393 . S
C500 H489 0.950 . S
C500 C498 1.391 . S
C500 C501 1.400 . S
C501 C495 1.491 . S
C501 C500 1.400 . S
C501 C502 1.398 . S
C502 H490 0.950 . S
C502 C501 1.398 . S
C502 C503 1.391 . S
C503 H491 0.950 . S
C503 C499 1.393 . S
C503 C502 1.391 . S
H504 C512 0.950 . S
H505 C517 0.950 . S
H506 C514 0.950 . S
H507 C516 0.950 . S
H508 C518 0.950 . S
H509 C520 0.950 . S
H510 C522 0.950 . S
H511 C523 0.950 . S
C512 H504 0.950 . S
C512 C513 1.386 . S
C512 C514 1.391 . S
C513 C512 1.386 . S
C513 C517 1.393 . S
C514 H506 0.950 . S
C514 C512 1.391 . S
C514 C515 1.400 . S
C515 C514 1.400 . S
C515 C516 1.398 . S
C515 C521 1.491 . S
C516 H507 0.950 . S
C516 C515 1.398 . S
C516 C517 1.391 . S
C517 H505 0.950 . S
C517 C513 1.393 . S
C517 C516 1.391 . S
C518 H508 0.950 . S
C518 C519 1.386 . S
C518 C520 1.391 . S
C519 C518 1.386 . S
C519 C523 1.393 . S
C520 H509 0.950 . S
C520 C518 1.391 . S
C520 C521 1.400 . S
C521 C515 1.491 . S
C521 C520 1.400 . S
C521 C522 1.398 . S
C522 H510 0.950 . S
C522 C521 1.398 . S
C522 C523 1.391 . S
C523 H511 0.950 . S
C523 C519 1.393 . S
C523 C522 1.391 . S
H524 C532 0.950 . S
H525 C537 0.950 . S
H526 C534 0.950 . S
H527 C536 0.950 . S
H528 C538 0.950 . S
H529 C540 0.950 . S
H530 C542 0.950 . S
H531 C543 0.950 . S
C532 H524 0.950 . S
C532 C533 1.386 . S
C532 C534 1.391 . S
C533 C532 1.386 . S
C533 C537 1.393 . S
C534 H526 0.950 . S
C534 C532 1.391 . S
C534 C535 1.400 . S
C535 C534 1.400 . S
C535 C536 1.398 . S
C535 C541 1.491 . S
C536 H527 0.950 . S
C536 C535 1.398 . S
C536 C537 1.391 . S
C537 H525 0.950 . S
C537 C533 1.393 . S
C537 C536 1.391 . S
C538 H528 0.950 . S
C538 C539 1.386 . S
C538 C540 1.391 . S
C539 C538 1.386 . S
C539 C543 1.393 . S
C540 H529 0.950 . S
C540 C538 1.391 . S
C540 C541 1.400 . S
C541 C535 1.491 . S
C541 C540 1.400 . S
C541 C542 1.398 . S
C542 H530 0.950 . S
C542 C541 1.398 . S
C542 C543 1.391 . S
C543 H531 0.950 . S
C543 C539 1.393 . S
C543 C542 1.391 . S
H544 C552 0.950 . S
H545 C557 0.950 . S
H546 C554 0.950 . S
H547 C556 0.950 . S
H548 C558 0.950 . S
H549 C560 0.950 . S
H550 C562 0.950 . S
H551 C563 0.950 . S
C552 H544 0.950 . S
C552 C553 1.386 . S
C552 C554 1.391 . S
C553 C552 1.386 . S
C553 C557 1.393 . S
C554 H546 0.950 . S
C554 C552 1.391 . S
C554 C555 1.400 . S
C555 C554 1.400 . S
C555 C556 1.398 . S
C555 C561 1.491 . S
C556 H547 0.950 . S
C556 C555 1.398 . S
C556 C557 1.391 . S
C557 H545 0.950 . S
C557 C553 1.393 . S
C557 C556 1.391 . S
C558 H548 0.950 . S
C558 C559 1.386 1_565 S
C558 C560 1.391 . S
C559 C558 1.386 1_545 S
C559 C563 1.393 . S
C560 H549 0.950 . S
C560 C558 1.391 . S
C560 C561 1.400 . S
C561 C555 1.491 . S
C561 C560 1.400 . S
C561 C562 1.398 . S
C562 H550 0.950 . S
C562 C561 1.398 . S
C562 C563 1.391 1_565 S
C563 H551 0.950 . S
C563 C559 1.393 . S
C563 C562 1.391 1_545 S
H564 C572 0.950 . S
H565 C577 0.950 . S
H566 C574 0.950 . S
H567 C576 0.950 . S
H568 C578 0.950 . S
H569 C580 0.950 . S
H570 C582 0.950 . S
H571 C583 0.950 . S
C572 H564 0.950 . S
C572 C573 1.386 . S
C572 C574 1.391 . S
C573 C572 1.386 . S
C573 C577 1.393 . S
C574 H566 0.950 . S
C574 C572 1.391 . S
C574 C575 1.400 . S
C575 C574 1.400 . S
C575 C576 1.398 . S
C575 C581 1.491 . S
C576 H567 0.950 . S
C576 C575 1.398 . S
C576 C577 1.391 . S
C577 H565 0.950 . S
C577 C573 1.393 . S
C577 C576 1.391 . S
C578 H568 0.950 . S
C578 C579 1.386 . S
C578 C580 1.391 . S
C579 C578 1.386 . S
C579 C583 1.393 . S
C580 H569 0.950 . S
C580 C578 1.391 . S
C580 C581 1.400 . S
C581 C575 1.491 . S
C581 C580 1.400 . S
C581 C582 1.398 . S
C582 H570 0.950 . S
C582 C581 1.398 . S
C582 C583 1.391 . S
C583 H571 0.950 . S
C583 C579 1.393 . S
C583 C582 1.391 . S
H584 C592 0.950 . S
H585 C597 0.950 . S
H586 C594 0.950 . S
H587 C596 0.950 . S
H588 C598 0.950 . S
H589 C600 0.950 . S
H590 C602 0.950 . S
H591 C603 0.950 . S
C592 H584 0.950 . S
C592 C593 1.386 . S
C592 C594 1.391 . S
C593 C592 1.386 . S
C593 C597 1.393 . S
C594 H586 0.950 . S
C594 C592 1.391 . S
C594 C595 1.400 . S
C595 C594 1.400 . S
C595 C596 1.398 . S
C595 C601 1.491 . S
C596 H587 0.950 . S
C596 C595 1.398 . S
C596 C597 1.391 . S
C597 H585 0.950 . S
C597 C593 1.393 . S
C597 C596 1.391 . S
C598 H588 0.950 . S
C598 C599 1.386 . S
C598 C600 1.391 . S
C599 C598 1.386 . S
C599 C603 1.393 . S
C600 H589 0.950 . S
C600 C598 1.391 . S
C600 C601 1.400 . S
C601 C595 1.491 . S
C601 C600 1.400 . S
C601 C602 1.398 . S
C602 H590 0.950 . S
C602 C601 1.398 . S
C602 C603 1.391 . S
C603 H591 0.950 . S
C603 C599 1.393 . S
C603 C602 1.391 . S
H604 C612 0.950 . S
H605 C617 0.950 . S
H606 C614 0.950 . S
H607 C616 0.950 . S
H608 C618 0.950 . S
H609 C620 0.950 . S
H610 C622 0.950 . S
H611 C623 0.950 . S
C612 H604 0.950 . S
C612 C613 1.386 . S
C612 C614 1.391 . S
C613 C612 1.386 . S
C613 C617 1.393 . S
C614 H606 0.950 . S
C614 C612 1.391 . S
C614 C615 1.400 . S
C615 C614 1.400 . S
C615 C616 1.398 . S
C615 C621 1.491 . S
C616 H607 0.950 . S
C616 C615 1.398 . S
C616 C617 1.391 . S
C617 H605 0.950 . S
C617 C613 1.393 . S
C617 C616 1.391 . S
C618 H608 0.950 . S
C618 C619 1.388 . S
C618 C620 1.391 1_545 S
C619 C618 1.388 . S
C619 C623 1.376 1_545 S
C620 H609 0.950 . S
C620 C618 1.391 1_565 S
C620 C621 1.400 . S
C621 C615 1.491 . S
C621 C620 1.400 . S
C621 C622 1.398 . S
C622 H610 0.950 . S
C622 C621 1.398 . S
C622 C623 1.391 . S
C623 H611 0.950 . S
C623 C619 1.376 1_565 S
C623 C622 1.391 . S
H624 C632 0.950 . S
H625 C637 0.950 . S
H626 C634 0.950 . S
H627 C636 0.950 . S
H628 C638 0.950 1_565 S
H629 C640 0.950 . S
H630 C642 0.950 . S
H631 C643 0.950 . S
C632 H624 0.950 . S
C632 C633 1.386 . S
C632 C634 1.391 . S
C633 C632 1.386 . S
C633 C637 1.393 . S
C634 H626 0.950 . S
C634 C632 1.391 . S
C634 C635 1.400 . S
C635 C634 1.400 . S
C635 C636 1.398 . S
C635 C641 1.491 . S
C636 H627 0.950 . S
C636 C635 1.398 . S
C636 C637 1.391 . S
C637 H625 0.950 . S
C637 C633 1.393 . S
C637 C636 1.391 . S
C638 H628 0.950 1_545 S
C638 C639 1.386 1_545 S
C638 C640 1.391 . S
C639 C638 1.386 1_565 S
C639 C643 1.393 1_565 S
C640 H629 0.950 . S
C640 C638 1.391 . S
C640 C641 1.400 . S
C641 C635 1.491 . S
C641 C640 1.400 . S
C641 C642 1.398 . S
C642 H630 0.950 . S
C642 C641 1.398 . S
C642 C643 1.391 . S
C643 H631 0.950 . S
C643 C639 1.393 1_545 S
C643 C642 1.391 . S
H644 C652 0.950 . S
H645 C657 0.950 . S
H646 C654 0.950 . S
H647 C656 0.950 . S
H648 C658 0.950 . S
H649 C660 0.950 . S
H650 C662 0.950 . S
H651 C663 0.950 . S
C652 H644 0.950 . S
C652 C653 1.386 . S
C652 C654 1.391 . S
C653 C652 1.386 . S
C653 C657 1.393 . S
C654 H646 0.950 . S
C654 C652 1.391 . S
C654 C655 1.400 . S
C655 C654 1.400 . S
C655 C656 1.398 . S
C655 C661 1.491 . S
C656 H647 0.950 . S
C656 C655 1.398 . S
C656 C657 1.391 . S
C657 H645 0.950 . S
C657 C653 1.393 . S
C657 C656 1.391 . S
C658 H648 0.950 . S
C658 C659 1.386 . S
C658 C660 1.391 . S
C659 C658 1.386 . S
C659 C663 1.393 . S
C660 H649 0.950 . S
C660 C658 1.391 . S
C660 C661 1.400 . S
C661 C655 1.491 . S
C661 C660 1.400 . S
C661 C662 1.398 . S
C662 H650 0.950 . S
C662 C661 1.398 . S
C662 C663 1.391 . S
C663 H651 0.950 . S
C663 C659 1.393 . S
C663 C662 1.391 . S
H664 C672 0.950 . S
H665 C677 0.950 . S
H666 C674 0.950 . S
H667 C676 0.950 . S
H668 C678 0.950 . S
H669 C680 0.950 . S
H670 C682 0.950 . S
H671 C683 0.950 . S
C672 H664 0.950 . S
C672 C673 1.386 . S
C672 C674 1.391 . S
C673 C672 1.386 . S
C673 C677 1.393 . S
C674 H666 0.950 . S
C674 C672 1.391 . S
C674 C675 1.400 . S
C675 C674 1.400 . S
C675 C676 1.398 . S
C675 C681 1.491 . S
C676 H667 0.950 . S
C676 C675 1.398 . S
C676 C677 1.391 . S
C677 H665 0.950 . S
C677 C673 1.393 . S
C677 C676 1.391 . S
C678 H668 0.950 . S
C678 C679 1.386 . S
C678 C680 1.391 . S
C679 C678 1.386 . S
C679 C683 1.393 . S
C680 H669 0.950 . S
C680 C678 1.391 . S
C680 C681 1.400 . S
C681 C675 1.491 . S
C681 C680 1.400 . S
C681 C682 1.398 . S
C682 H670 0.950 . S
C682 C681 1.398 . S
C682 C683 1.391 . S
C683 H671 0.950 . S
C683 C679 1.393 . S
C683 C682 1.391 . S
H684 C692 0.950 . S
H685 C697 0.950 . S
H686 C694 0.950 . S
H687 C696 0.950 . S
H688 C698 0.950 . S
H689 C700 0.950 . S
H690 C702 0.950 . S
H691 C703 0.950 . S
C692 H684 0.950 . S
C692 C693 1.386 1_545 S
C692 C694 1.391 . S
C693 C692 1.386 1_565 S
C693 C697 1.393 1_565 S
C694 H686 0.950 . S
C694 C692 1.391 . S
C694 C695 1.400 . S
C695 C694 1.400 . S
C695 C696 1.398 . S
C695 C701 1.491 . S
C696 H687 0.950 . S
C696 C695 1.398 . S
C696 C697 1.391 . S
C697 H685 0.950 . S
C697 C693 1.393 1_545 S
C697 C696 1.391 . S
C698 H688 0.950 . S
C698 C699 1.386 . S
C698 C700 1.391 . S
C699 C698 1.386 . S
C699 C703 1.393 . S
C700 H689 0.950 . S
C700 C698 1.391 . S
C700 C701 1.400 . S
C701 C695 1.491 . S
C701 C700 1.400 . S
C701 C702 1.398 . S
C702 H690 0.950 . S
C702 C701 1.398 . S
C702 C703 1.391 . S
C703 H691 0.950 . S
C703 C699 1.393 . S
C703 C702 1.391 . S
H704 C712 0.950 . S
H705 C717 0.950 . S
H706 C714 0.950 . S
H707 C716 0.950 . S
H708 C718 0.950 . S
H709 C720 0.950 . S
H710 C722 0.950 . S
H711 C723 0.964 . S
C712 H704 0.950 . S
C712 C713 1.386 . S
C712 C714 1.391 . S
C713 C712 1.386 . S
C713 C717 1.393 . S
C714 H706 0.950 . S
C714 C712 1.391 . S
C714 C715 1.400 . S
C715 C714 1.400 . S
C715 C716 1.398 . S
C715 C721 1.491 . S
C716 H707 0.950 . S
C716 C715 1.398 . S
C716 C717 1.391 . S
C717 H705 0.950 . S
C717 C713 1.393 . S
C717 C716 1.391 . S
C718 H708 0.950 . S
C718 C719 1.375 1_565 S
C718 C720 1.391 . S
C719 C718 1.375 1_545 S
C719 C723 1.393 . S
C720 H709 0.950 . S
C720 C718 1.391 . S
C720 C721 1.400 . S
C721 C715 1.491 . S
C721 C720 1.400 . S
C721 C722 1.398 . S
C722 H710 0.950 . S
C722 C721 1.398 . S
C722 C723 1.377 1_565 S
C723 H711 0.964 . S
C723 C719 1.393 . S
C723 C722 1.377 1_545 S
H724 C732 0.950 . S
H725 C737 0.950 . S
H726 C734 0.950 . S
H727 C736 0.950 . S
H728 C738 0.950 . S
H729 C740 0.950 . S
H730 C742 0.950 . S
H731 C743 0.950 . S
C732 H724 0.950 . S
C732 C733 1.386 . S
C732 C734 1.391 . S
C733 C732 1.386 . S
C733 C737 1.393 . S
C734 H726 0.950 . S
C734 C732 1.391 . S
C734 C735 1.400 . S
C735 C734 1.400 . S
C735 C736 1.398 . S
C735 C741 1.491 . S
C736 H727 0.950 . S
C736 C735 1.398 . S
C736 C737 1.391 . S
C737 H725 0.950 . S
C737 C733 1.393 . S
C737 C736 1.391 . S
C738 H728 0.950 . S
C738 C739 1.386 . S
C738 C740 1.391 . S
C739 C738 1.386 . S
C739 C743 1.393 . S
C740 H729 0.950 . S
C740 C738 1.391 . S
C740 C741 1.400 . S
C741 C735 1.491 . S
C741 C740 1.400 . S
C741 C742 1.398 . S
C742 H730 0.950 . S
C742 C741 1.398 . S
C742 C743 1.391 . S
C743 H731 0.950 . S
C743 C739 1.393 . S
C743 C742 1.391 . S
H744 C752 0.950 . S
H745 C757 0.950 . S
H746 C754 0.950 . S
H747 C756 0.950 . S
H748 C758 0.950 . S
H749 C760 0.950 . S
H750 C762 0.950 . S
H751 C763 0.950 . S
C752 H744 0.950 . S
C752 C753 1.386 . S
C752 C754 1.391 . S
C753 C752 1.386 . S
C753 C757 1.393 . S
C754 H746 0.950 . S
C754 C752 1.391 . S
C754 C755 1.400 . S
C755 C754 1.400 . S
C755 C756 1.398 . S
C755 C761 1.491 . S
C756 H747 0.950 . S
C756 C755 1.398 . S
C756 C757 1.391 . S
C757 H745 0.950 . S
C757 C753 1.393 . S
C757 C756 1.391 . S
C758 H748 0.950 . S
C758 C759 1.386 . S
C758 C760 1.391 . S
C759 C758 1.386 . S
C759 C763 1.393 . S
C760 H749 0.950 . S
C760 C758 1.391 . S
C760 C761 1.400 . S
C761 C755 1.491 . S
C761 C760 1.400 . S
C761 C762 1.398 . S
C762 H750 0.950 . S
C762 C761 1.398 . S
C762 C763 1.391 . S
C763 H751 0.950 . S
C763 C759 1.393 . S
C763 C762 1.391 . S
H764 C772 0.950 . S
H765 C777 0.950 . S
H766 C774 0.950 . S
H767 C776 0.950 . S
H768 C778 0.950 1_545 S
H769 C780 0.950 . S
H770 C782 0.950 . S
H771 C783 0.950 . S
C772 H764 0.950 . S
C772 C773 1.386 . S
C772 C774 1.391 . S
C773 C772 1.386 . S
C773 C777 1.393 . S
C774 H766 0.950 . S
C774 C772 1.391 . S
C774 C775 1.400 . S
C775 C774 1.400 . S
C775 C776 1.398 . S
C775 C781 1.491 . S
C776 H767 0.950 . S
C776 C775 1.398 . S
C776 C777 1.391 . S
C777 H765 0.950 . S
C777 C773 1.393 . S
C777 C776 1.391 . S
C778 H768 0.950 1_565 S
C778 C779 1.385 1_565 S
C778 C780 1.391 . S
C779 C778 1.385 1_545 S
C779 C783 1.391 1_545 S
C780 H769 0.950 . S
C780 C778 1.391 . S
C780 C781 1.400 . S
C781 C775 1.491 . S
C781 C780 1.400 . S
C781 C782 1.398 . S
C782 H770 0.950 . S
C782 C781 1.398 . S
C782 C783 1.391 . S
C783 H771 0.950 . S
C783 C779 1.391 1_565 S
C783 C782 1.391 . S
H784 C792 0.950 . S
H785 C797 0.950 . S
H786 C794 0.950 . S
H787 C796 0.950 . S
H788 C798 0.950 . S
H789 C800 0.950 . S
H790 C802 0.950 . S
H791 C803 0.950 . S
C792 H784 0.950 . S
C792 C793 1.386 . S
C792 C794 1.391 . S
C793 C792 1.386 . S
C793 C797 1.393 . S
C794 H786 0.950 . S
C794 C792 1.391 . S
C794 C795 1.400 . S
C795 C794 1.400 . S
C795 C796 1.398 . S
C795 C801 1.491 . S
C796 H787 0.950 . S
C796 C795 1.398 . S
C796 C797 1.391 . S
C797 H785 0.950 . S
C797 C793 1.393 . S
C797 C796 1.391 . S
C798 H788 0.950 . S
C798 C799 1.386 1_545 S
C798 C800 1.391 . S
C799 C798 1.386 1_565 S
C799 C803 1.393 . S
C800 H789 0.950 . S
C800 C798 1.391 . S
C800 C801 1.400 . S
C801 C795 1.491 . S
C801 C800 1.400 . S
C801 C802 1.398 . S
C802 H790 0.950 . S
C802 C801 1.398 . S
C802 C803 1.390 1_545 S
C803 H791 0.950 . S
C803 C799 1.393 . S
C803 C802 1.390 1_565 S
H804 C812 0.950 . S
H805 C817 0.950 . S
H806 C814 0.950 . S
H807 C816 0.950 . S
H808 C818 0.950 . S
H809 C820 0.950 . S
H810 C822 0.950 . S
H811 C823 0.950 . S
C812 H804 0.950 . S
C812 C813 1.386 . S
C812 C814 1.391 . S
C813 C812 1.386 . S
C813 C817 1.393 . S
C814 H806 0.950 . S
C814 C812 1.391 . S
C814 C815 1.400 . S
C815 C814 1.400 . S
C815 C816 1.398 . S
C815 C821 1.491 . S
C816 H807 0.950 . S
C816 C815 1.398 . S
C816 C817 1.391 . S
C817 H805 0.950 . S
C817 C813 1.393 . S
C817 C816 1.391 . S
C818 H808 0.950 . S
C818 C819 1.386 . S
C818 C820 1.391 . S
C819 C818 1.386 . S
C819 C823 1.393 . S
C820 H809 0.950 . S
C820 C818 1.391 . S
C820 C821 1.400 . S
C821 C815 1.491 . S
C821 C820 1.400 . S
C821 C822 1.398 . S
C822 H810 0.950 . S
C822 C821 1.398 . S
C822 C823 1.391 . S
C823 H811 0.950 . S
C823 C819 1.393 . S
C823 C822 1.391 . S
H824 C832 0.950 . S
H825 C837 0.950 . S
H826 C834 0.950 . S
H827 C836 0.950 . S
H828 C838 0.950 . S
H829 C840 0.950 . S
H830 C842 0.950 . S
H831 C843 0.950 . S
C832 H824 0.950 . S
C832 C833 1.386 . S
C832 C834 1.391 . S
C833 C832 1.386 . S
C833 C837 1.393 . S
C834 H826 0.950 . S
C834 C832 1.391 . S
C834 C835 1.400 . S
C835 C834 1.400 . S
C835 C836 1.398 . S
C835 C841 1.491 . S
C836 H827 0.950 . S
C836 C835 1.398 . S
C836 C837 1.391 . S
C837 H825 0.950 . S
C837 C833 1.393 . S
C837 C836 1.391 . S
C838 H828 0.950 . S
C838 C839 1.386 . S
C838 C840 1.391 . S
C839 C838 1.386 . S
C839 C843 1.393 . S
C840 H829 0.950 . S
C840 C838 1.391 . S
C840 C841 1.400 . S
C841 C835 1.491 . S
C841 C840 1.400 . S
C841 C842 1.398 . S
C842 H830 0.950 . S
C842 C841 1.398 . S
C842 C843 1.391 . S
C843 H831 0.950 . S
C843 C839 1.393 . S
C843 C842 1.391 . S
H844 C852 0.950 . S
H845 C857 0.950 . S
H846 C854 0.950 . S
H847 C856 0.950 . S
H848 C858 0.950 . S
H849 C860 0.950 . S
H850 C862 0.950 . S
H851 C863 0.950 . S
C852 H844 0.950 . S
C852 C853 1.386 . S
C852 C854 1.391 . S
C853 C852 1.386 . S
C853 C857 1.393 . S
C854 H846 0.950 . S
C854 C852 1.391 . S
C854 C855 1.400 . S
C855 C854 1.400 . S
C855 C856 1.398 . S
C855 C861 1.491 . S
C856 H847 0.950 . S
C856 C855 1.398 . S
C856 C857 1.391 . S
C857 H845 0.950 . S
C857 C853 1.393 . S
C857 C856 1.391 . S
C858 H848 0.950 . S
C858 C859 1.386 . S
C858 C860 1.391 1_565 S
C859 C858 1.386 . S
C859 C863 1.393 1_565 S
C860 H849 0.950 . S
C860 C858 1.391 1_545 S
C860 C861 1.400 . S
C861 C855 1.491 . S
C861 C860 1.400 . S
C861 C862 1.398 . S
C862 H850 0.950 . S
C862 C861 1.398 . S
C862 C863 1.391 . S
C863 H851 0.950 . S
C863 C859 1.393 1_545 S
C863 C862 1.391 . S
C233 C199 1.494 . S
C239 C3 1.494 . S
C253 C36 1.497 . S
C259 C8 1.497 . S
C273 C162 1.496 . S
C279 C22 1.496 . S
C293 C17 1.493 . S
C299 C101 1.493 . S
C313 C31 1.491 . S
C319 C171 1.491 . S
C333 C134 1.496 . S
C339 C50 1.496 . S
C353 C45 1.496 . S
C359 C73 1.496 . S
C373 C143 1.497 . S
C379 C59 1.497 . S
C393 C64 1.498 . S
C399 C92 1.498 . S
C413 C218 1.496 . S
C419 C78 1.496 . S
C433 C115 1.496 . S
C439 C87 1.496 . S
C453 C190 1.498 . S
C459 C106 1.498 . S
C473 C120 1.498 . S
C479 C148 1.498 . S
C493 C213 1.493 . S
C499 C129 1.493 . S
C513 C157 1.490 . S
C519 C185 1.490 . S
C533 C204 1.498 . S
C539 C176 1.498 . S
C553 C79 1.419 . S
C559 C7 1.409 . S
C573 C9 1.433 . S
C579 C77 1.425 . S
C593 C23 1.433 . S
C599 C63 1.424 . S
C613 C65 1.433 . S
C619 C21 1.443 . S
C633 C107 1.421 . S
C639 C35 1.410 . S
C653 C105 1.410 . S
C659 C37 1.421 . S
C673 C91 1.424 . S
C679 C51 1.428 . S
C693 C49 1.413 . S
C699 C93 1.424 . S
C713 C191 1.421 . S
C719 C119 1.428 . S
C733 C121 1.427 . S
C739 C189 1.423 . S
C753 C135 1.424 . S
C759 C175 1.420 . S
C773 C177 1.429 . S
C779 C133 1.428 . S
C793 C219 1.427 . S
C799 C147 1.417 . S
C813 C217 1.425 . S
C819 C149 1.433 . S
C833 C163 1.425 . S
C839 C203 1.414 . S
C853 C205 1.420 . S
C859 C161 1.414 . S
