# Generated by pormake.
# Topology vby, (6)-cn, num edge types: 1
# Building blocks:
#     Node 0, Type 0, BuildingBlock: BETDIP_clean_sbu_0, # of connection points: 6
#     Node 1, Type 0, BuildingBlock: BETDIP_clean_sbu_0, # of connection points: 6
#     Node 2, Type 0, BuildingBlock: BETDIP_clean_sbu_0, # of connection points: 6
#     Node 3, Type 0, BuildingBlock: BETDIP_clean_sbu_0, # of connection points: 6
#     Node 4, Type 0, BuildingBlock: BETDIP_clean_sbu_0, # of connection points: 6
#     Node 5, Type 0, BuildingBlock: BETDIP_clean_sbu_0, # of connection points: 6
#     Node 6, Type 0, BuildingBlock: BETDIP_clean_sbu_0, # of connection points: 6
#     Node 7, Type 0, BuildingBlock: BETDIP_clean_sbu_0, # of connection points: 6
#     Edge 8, Type (0, 0), BuildingBlock: XIVTED_clean_linker_0, # of connection points: 2
#     Edge 9, Type (0, 0), BuildingBlock: XIVTED_clean_linker_0, # of connection points: 2
#     Edge 10, Type (0, 0), BuildingBlock: XIVTED_clean_linker_0, # of connection points: 2
#     Edge 11, Type (0, 0), BuildingBlock: XIVTED_clean_linker_0, # of connection points: 2
#     Edge 12, Type (0, 0), BuildingBlock: XIVTED_clean_linker_0, # of connection points: 2
#     Edge 13, Type (0, 0), BuildingBlock: XIVTED_clean_linker_0, # of connection points: 2
#     Edge 14, Type (0, 0), BuildingBlock: XIVTED_clean_linker_0, # of connection points: 2
#     Edge 15, Type (0, 0), BuildingBlock: XIVTED_clean_linker_0, # of connection points: 2
#     Edge 16, Type (0, 0), BuildingBlock: XIVTED_clean_linker_0, # of connection points: 2
#     Edge 17, Type (0, 0), BuildingBlock: XIVTED_clean_linker_0, # of connection points: 2
#     Edge 18, Type (0, 0), BuildingBlock: XIVTED_clean_linker_0, # of connection points: 2
#     Edge 19, Type (0, 0), BuildingBlock: XIVTED_clean_linker_0, # of connection points: 2
#     Edge 20, Type (0, 0), BuildingBlock: XIVTED_clean_linker_0, # of connection points: 2
#     Edge 21, Type (0, 0), BuildingBlock: XIVTED_clean_linker_0, # of connection points: 2
#     Edge 22, Type (0, 0), BuildingBlock: XIVTED_clean_linker_0, # of connection points: 2
#     Edge 23, Type (0, 0), BuildingBlock: XIVTED_clean_linker_0, # of connection points: 2
#     Edge 24, Type (0, 0), BuildingBlock: XIVTED_clean_linker_0, # of connection points: 2
#     Edge 25, Type (0, 0), BuildingBlock: XIVTED_clean_linker_0, # of connection points: 2
#     Edge 26, Type (0, 0), BuildingBlock: XIVTED_clean_linker_0, # of connection points: 2
#     Edge 27, Type (0, 0), BuildingBlock: XIVTED_clean_linker_0, # of connection points: 2
#     Edge 28, Type (0, 0), BuildingBlock: XIVTED_clean_linker_0, # of connection points: 2
#     Edge 29, Type (0, 0), BuildingBlock: XIVTED_clean_linker_0, # of connection points: 2
#     Edge 30, Type (0, 0), BuildingBlock: XIVTED_clean_linker_0, # of connection points: 2
#     Edge 31, Type (0, 0), BuildingBlock: XIVTED_clean_linker_0, # of connection points: 2
# Relax obj value: 0.640
# Max RMSD: 0.255
# Mean RMSD: 0.213
data_MOF--net-vby--node1-BETDIP_clean_sbu_0--edge1-XIVTED_clean_linker_0
_symmetry_space_group_name_H-M    P1
_symmetry_Int_Tables_number       1
_symmetry_cell_setting            triclinic
loop_
_symmetry_equiv_pos_as_xyz
'x, y, z'
_cell_length_a     16.703634
_cell_length_b     69.078765
_cell_length_c     29.830301
_cell_angle_alpha  85.796931
_cell_angle_beta   92.125483
_cell_angle_gamma 74.876734
loop_
_atom_site_label
_atom_site_type_symbol
_atom_site_fract_x
_atom_site_fract_y
_atom_site_fract_z
_atom_type_partial_charge
Tb0 Tb 0.08868 0.50172 0.0041 0.0
Tb1 Tb 0.25207 0.50179 0.00596 0.0
C2 C 0.94206 0.50061 0.00695 0.0
C3 C 0.91657 0.48341 0.98983 0.0
C4 C 0.89841 0.46889 0.0202 0.0
C5 C 0.89767 0.44999 0.0066 0.0
C6 C 0.91612 0.44506 0.96239 0.0
C7 C 0.93134 0.45989 0.93166 0.0
C8 C 0.93034 0.47888 0.94499 0.0
C9 C 0.15184 0.49654 0.92381 0.0
C10 C 0.12919 0.54614 0.00561 0.0
C11 C 0.40254 0.49285 0.98971 0.0
C12 C 0.4554 0.47274 0.98234 0.0
C13 C 0.49203 0.46954 0.94116 0.0
C14 C 0.53402 0.45016 0.93151 0.0
C15 C 0.54017 0.43341 0.96282 0.0
C16 C 0.50369 0.43675 0.00426 0.0
C17 C 0.4616 0.45614 0.01385 0.0
C18 C 0.19652 0.50376 0.08828 0.0
C19 C 0.21005 0.45729 0.00874 0.0
O20 O 0.96587 0.51231 0.97673 0.0
O21 O 0.99326 0.496 0.04279 0.0
O22 O 0.16191 0.50936 0.95024 0.0
O23 O 0.10668 0.4862 0.94254 0.0
O24 O 0.07454 0.53519 0.01369 0.0
O25 O 0.20607 0.53577 -0.00263 0.0
O26 O 0.3431 0.50044 0.95869 0.0
O27 O 0.37662 0.49536 0.03016 0.0
O28 O 0.18029 0.49277 0.05881 0.0
O29 O 0.24545 0.51387 0.07166 0.0
O30 O 0.2656 0.46797 0.00196 0.0
O31 O 0.13307 0.46791 0.01474 0.0
H32 H 0.88839 0.47184 0.05501 0.0
H33 H 0.88234 0.43929 0.0309 0.0
H34 H 0.94564 0.4568 0.89739 0.0
H35 H 0.94498 0.48961 0.92047 0.0
H36 H 0.48755 0.48204 0.91619 0.0
H37 H 0.56384 0.44852 0.8999 0.0
H38 H 0.50653 0.42437 0.02922 0.0
H39 H 0.43253 0.45802 0.04567 0.0
Tb40 Tb 0.83569 0.75165 0.01855 0.0
Tb41 Tb 0.9996 0.75267 0.00567 0.0
C42 C 0.7013 0.75688 0.05671 0.0
C43 C 0.65868 0.77373 0.08183 0.0
C44 C 0.702 0.78697 0.09825 0.0
C45 C 0.65875 0.8053 0.1132 0.0
C46 C 0.572 0.81018 0.11363 0.0
C47 C 0.52985 0.79595 0.10142 0.0
C48 C 0.57283 0.77795 0.08521 0.0
C49 C 0.86801 0.75056 0.93186 0.0
C50 C 0.87538 0.79662 0.00948 0.0
C51 C 0.13865 0.75437 0.98114 0.0
C52 C 0.17133 0.77227 0.98321 0.0
C53 C 0.14905 0.78825 0.94896 0.0
C54 C 0.16294 0.80698 0.95583 0.0
C55 C 0.19811 0.81004 -0.0028 0.0
C56 C 0.22466 0.79382 0.03026 0.0
C57 C 0.21211 0.77512 0.02323 0.0
C58 C 0.95817 0.7567 0.09072 0.0
C59 C 0.96005 0.70773 0.01018 0.0
O60 O 0.77234 0.74603 0.07528 0.0
O61 O 0.70527 0.76127 0.01358 0.0
O62 O 0.8926 0.7611 0.95986 0.0
O63 O 0.82001 0.74105 0.95209 0.0
O64 O 0.82207 0.78565 0.02002 0.0
O65 O 0.95073 0.78644 -0.00096 0.0
O66 O 0.1283 0.74557 0.02009 0.0
O67 O 0.07488 0.75641 0.95267 0.0
O68 O 0.94156 0.74439 0.06474 0.0
O69 O 1.00151 0.7669 0.06924 0.0
O70 O 1.01411 0.71878 0.00128 0.0
O71 O 0.88361 0.7178 0.01989 0.0
H72 H 0.76878 0.78368 0.09718 0.0
H73 H 0.69233 0.8161 0.12187 0.0
H74 H 0.46262 0.79954 0.10049 0.0
H75 H 0.53847 0.76792 0.07289 0.0
H76 H 0.1177 0.78656 0.91763 0.0
H77 H 0.14411 0.81919 0.9295 0.0
H78 H 0.25491 0.79567 0.06184 0.0
H79 H 0.23082 0.76316 0.05014 0.0
Tb80 Tb 0.85335 0.78942 0.50432 0.0
Tb81 Tb 0.90136 0.74842 0.50885 0.0
C82 C 0.84518 0.82532 0.51836 0.0
C83 C 0.90685 0.83688 0.5121 0.0
C84 C 0.91413 0.851 0.54235 0.0
C85 C 0.98137 0.85954 0.54119 0.0
C86 C 0.04246 0.85396 0.50985 0.0
C87 C 0.03258 0.84053 0.47824 0.0
C88 C 0.96556 0.83203 0.47943 0.0
C89 C 0.85847 0.77627 0.42202 0.0
C90 C 0.05684 0.76751 0.50628 0.0
C91 C 0.90382 0.71311 0.49417 0.0
C92 C 0.83467 0.70345 0.49423 0.0
C93 C 0.76883 0.7092 0.46093 0.0
C94 C 0.70183 0.70061 0.46275 0.0
C95 C 0.69902 0.68624 0.49802 0.0
C96 C 0.76421 0.68083 0.53166 0.0
C97 C 0.83128 0.68928 0.52968 0.0
C98 C 0.90147 0.76119 0.59061 0.0
C99 C 0.69809 0.77042 0.50731 0.0
O100 O 0.86681 0.81037 0.54961 0.0
O101 O 0.81409 0.8201 0.48175 0.0
O102 O 0.91114 0.76954 0.45488 0.0
O103 O 0.80197 0.79117 0.43488 0.0
O104 O 0.99544 0.78424 0.50973 0.0
O105 O 0.03324 0.75062 0.50224 0.0
O106 O 0.89954 0.72734 0.46209 0.0
O107 O 0.9266 0.71802 0.53321 0.0
O108 O 0.84533 0.76795 0.55904 0.0
O109 O 0.95962 0.74715 0.57601 0.0
O110 O 0.75923 0.7538 0.50274 0.0
O111 O 0.72208 0.78714 0.51232 0.0
H112 H 0.86979 0.85477 0.56804 0.0
H113 H 0.98754 0.86976 0.56614 0.0
H114 H 0.07782 0.8362 0.45324 0.0
H115 H 0.96144 0.82106 0.45587 0.0
H116 H 0.7689 0.7203 0.43335 0.0
H117 H 0.65296 0.70495 0.4362 0.0
H118 H 0.76558 0.66932 0.55859 0.0
H119 H 0.88088 0.68464 0.55583 0.0
Tb120 Tb 0.16789 0.50125 0.50783 0.0
Tb121 Tb 0.22032 0.45988 0.5131 0.0
C122 C 0.12205 0.53802 0.51741 0.0
C123 C 0.03481 0.54992 0.51526 0.0
C124 C 1.00816 0.56485 0.5447 0.0
C125 C 0.9237 0.57468 0.54538 0.0
C126 C 0.86435 0.56955 0.51696 0.0
C127 C 0.89147 0.55435 0.48803 0.0
C128 C 0.9757 0.54471 0.48707 0.0
C129 C 0.1657 0.48732 0.42712 0.0
C130 C 0.37155 0.48045 0.51005 0.0
C131 C 0.23007 0.42379 0.50081 0.0
C132 C 0.16765 0.41241 0.50829 0.0
C133 C 0.14803 0.40095 0.4747 0.0
C134 C 0.07891 0.39313 0.47781 0.0
C135 C 1.02821 0.39664 0.51464 0.0
C136 C 0.05076 0.40727 0.54931 0.0
C137 C 0.11934 0.41517 0.54605 0.0
C138 C 0.22045 0.4737 0.59402 0.0
C139 C 1.01628 0.48051 0.51183 0.0
O140 O 0.14908 0.53096 0.47974 0.0
O141 O 0.14316 0.52436 0.55149 0.0
O142 O 0.22326 0.48146 0.45792 0.0
O143 O 0.1063 0.50079 0.44219 0.0
O144 O 0.30955 0.49681 0.51635 0.0
O145 O 0.34899 0.46364 0.50328 0.0
O146 O 0.20894 0.43839 0.46869 0.0
O147 O 0.26224 0.42935 0.53668 0.0
O148 O 0.16463 0.47994 0.56248 0.0
O149 O 0.27661 0.45882 0.58088 0.0
O150 O 0.07881 0.46393 0.50931 0.0
O151 O 0.03822 0.49759 0.51458 0.0
H152 H 0.05254 0.56886 0.56721 0.0
H153 H 0.90528 0.58667 0.56738 0.0
H154 H 0.84766 0.54992 0.46596 0.0
H155 H 0.99431 0.53302 0.46445 0.0
H156 H 0.18386 0.39885 0.44506 0.0
H157 H 0.06304 0.38517 0.45029 0.0
H158 H 1.01418 0.40994 0.57855 0.0
H159 H 0.13244 0.42413 0.57231 0.0
Tb160 Tb 0.59577 1.00193 0.01169 0.0
Tb161 Tb 0.76024 1.00193 0.00849 0.0
C162 C 0.44873 1.00185 0.02061 0.0
C163 C 0.41473 0.98615 0.00233 0.0
C164 C 0.38921 0.97239 0.03156 0.0
C165 C 0.37859 0.95449 0.01635 0.0
C166 C 0.39531 0.94972 0.97181 0.0
C167 C 0.4182 0.96391 0.94238 0.0
C168 C 0.4259 0.98203 0.95713 0.0
C169 C 0.65051 0.997 0.92941 0.0
C170 C 0.6378 1.04629 0.01018 0.0
C171 C 0.90727 0.99254 0.98718 0.0
C172 C 0.95096 0.97279 0.97256 0.0
C173 C 0.91671 0.96433 0.93737 0.0
C174 C 0.95232 0.94448 0.92791 0.0
C175 C 1.02199 0.93262 0.95387 0.0
C176 C 0.05581 0.94118 0.98906 0.0
C177 C 1.02078 0.961 -0.00181 0.0
C178 C 0.7106 1.00528 0.09126 0.0
C179 C 0.7165 0.95748 0.01295 0.0
O180 O 0.47012 1.01412 0.99072 0.0
O181 O 0.50595 0.99526 0.05338 0.0
O182 O 0.66525 1.00927 0.95589 0.0
O183 O 0.60277 0.98749 0.94866 0.0
O184 O 0.58369 1.03538 0.01991 0.0
O185 O 0.71407 1.03594 0.00069 0.0
O186 O 0.84662 1.00354 0.96 0.0
O187 O 0.88696 0.99218 0.02904 0.0
O188 O 0.69279 0.99362 0.06387 0.0
O189 O 0.75784 1.01529 0.07239 0.0
O190 O 0.7718 0.96815 0.00507 0.0
O191 O 0.64003 0.96808 0.02018 0.0
H192 H 0.38076 0.9751 0.06661 0.0
H193 H 0.35758 0.9444 0.03975 0.0
H194 H 0.43226 0.96097 0.90802 0.0
H195 H 0.44519 0.9923 0.93339 0.0
H196 H 0.86153 0.97288 0.91758 0.0
H197 H 0.92567 0.93844 0.90026 0.0
H198 H 0.11136 0.93278 0.00881 0.0
H199 H 0.04759 0.96706 0.0258 0.0
Tb200 Tb 0.34017 0.25171 0.01316 0.0
Tb201 Tb 0.5017 0.25264 0.01145 0.0
C202 C 0.19302 0.26025 0.03423 0.0
C203 C 0.1506 0.27901 0.05353 0.0
C204 C 0.1882 0.28595 0.08999 0.0
C205 C 0.15289 0.3049 0.10464 0.0
C206 C 0.08001 0.31742 0.08272 0.0
C207 C 0.04321 0.3105 0.04592 0.0
C208 C 0.0781 0.29152 0.03156 0.0
C209 C 0.39229 0.24793 0.93034 0.0
C210 C 0.3774 0.29662 0.00742 0.0
C211 C 0.64906 0.25335 0.00748 0.0
C212 C 0.68048 0.26864 0.02959 0.0
C213 C 0.7048 0.28364 0.0036 0.0
C214 C 0.71517 0.30075 0.02299 0.0
C215 C 0.69983 0.30342 0.06865 0.0
C216 C 0.67722 0.28812 0.09468 0.0
C217 C 0.66923 0.27085 0.07568 0.0
C218 C 0.4436 0.25887 0.09293 0.0
C219 C 0.4644 0.20775 0.01229 0.0
O220 O 0.25308 0.24789 0.05963 0.0
O221 O 0.21363 0.26266 -0.00721 0.0
O222 O 0.40813 0.25991 0.95747 0.0
O223 O 0.34511 0.23792 0.94929 0.0
O224 O 0.32435 0.28557 0.01693 0.0
O225 O 0.45394 0.28635 -0.00055 0.0
O226 O 0.62618 0.24028 0.03456 0.0
O227 O 0.59438 0.2605 0.97375 0.0
O228 O 0.4319 0.24574 0.06784 0.0
O229 O 0.48887 0.26861 0.07228 0.0
O230 O 0.51749 0.21899 0.00295 0.0
O231 O 0.38764 0.21783 0.02127 0.0
H232 H 0.24555 0.27686 0.10692 0.0
H233 H 0.18206 0.3097 0.13331 0.0
H234 H 0.98546 0.31946 0.02906 0.0
H235 H 0.04886 0.28668 0.00296 0.0
H236 H 0.71306 0.28246 0.96796 0.0
H237 H 0.73549 0.31182 0.00204 0.0
H238 H 0.6641 0.28954 0.12972 0.0
H239 H 0.65 0.25969 0.09694 0.0
Tb240 Tb 0.34836 0.28569 0.51022 0.0
Tb241 Tb 0.39033 0.2442 0.50517 0.0
C242 C 0.31325 0.32187 0.52663 0.0
C243 C 0.36351 0.33631 0.5183 0.0
C244 C 0.38393 0.34676 0.55375 0.0
C245 C 0.44877 0.35609 0.55037 0.0
C246 C 0.49444 0.35498 0.51151 0.0
C247 C 0.46946 0.34588 0.47479 0.0
C248 C 0.40475 0.33663 0.47813 0.0
C249 C 0.38409 0.2751 0.42709 0.0
C250 C 0.54572 0.26482 0.509 0.0
C251 C 0.41225 0.2093 0.48028 0.0
C252 C 0.38323 0.20085 0.4409 0.0
C253 C 0.36669 0.21229 0.39913 0.0
C254 C 0.3642 0.20297 0.35932 0.0
C255 C 0.37759 0.18201 0.36092 0.0
C256 C 0.38329 0.17101 0.40322 0.0
C257 C 0.38678 0.18037 0.44295 0.0
C258 C 0.41142 0.25311 0.58988 0.0
C259 C 0.1905 0.26561 0.5065 0.0
O260 O 0.34761 0.30699 0.55681 0.0
O261 O 0.2822 0.31565 0.49111 0.0
O262 O 0.34079 0.26788 0.45394 0.0
O263 O 0.40929 0.28863 0.4467 0.0
O264 O 0.48778 0.28 0.52331 0.0
O265 O 0.51809 0.24969 0.49436 0.0
O266 O 0.46048 0.22102 0.47097 0.0
O267 O 0.35783 0.21657 0.50921 0.0
O268 O 0.35249 0.26198 0.56167 0.0
O269 O 0.45685 0.23815 0.57125 0.0
O270 O 0.25016 0.24869 0.50231 0.0
O271 O 0.21557 0.28238 0.51081 0.0
H272 H 0.35356 0.34654 0.58519 0.0
H273 H 0.46665 0.36296 0.57927 0.0
H274 H 0.50238 0.34514 0.44408 0.0
H275 H 0.39058 0.32871 0.45015 0.0
H276 H 0.3639 0.22808 0.39725 0.0
H277 H 0.35971 0.21183 0.32735 0.0
H278 H 0.39458 0.15479 0.40574 0.0
H279 H 0.39944 0.17128 0.47488 0.0
Tb280 Tb 0.69376 1.0075 0.51198 0.0
Tb281 Tb 0.74473 0.96694 0.5191 0.0
C282 C 0.68122 1.04441 0.5133 0.0
C283 C 0.70971 1.05674 0.4785 0.0
C284 C 0.68648 1.07771 0.47786 0.0
C285 C 0.69273 1.08941 0.43857 0.0
C286 C 0.72055 1.08022 0.3993 0.0
C287 C 0.75053 1.05924 0.40135 0.0
C288 C 0.74608 1.04757 0.44095 0.0
C289 C 0.69414 0.99412 0.43039 0.0
C290 C 0.89776 0.98638 0.51468 0.0
C291 C 0.75723 0.93026 0.51126 0.0
C292 C 0.69642 0.91854 0.51882 0.0
C293 C 0.69107 0.90356 0.49048 0.0
C294 C 0.62507 0.89461 0.49297 0.0
C295 C 0.56338 0.90059 0.52382 0.0
C296 C 0.57152 0.9149 0.55362 0.0
C297 C 0.63708 0.92386 0.55099 0.0
C298 C 0.74014 0.98192 0.59929 0.0
C299 C 0.54171 0.98763 0.51925 0.0
O300 O 0.73893 1.03064 0.53691 0.0
O301 O 0.62137 1.03722 0.49872 0.0
O302 O 0.74977 0.9875 0.46193 0.0
O303 O 0.63881 1.00862 0.44464 0.0
O304 O 0.83564 1.00275 0.51992 0.0
O305 O 0.8748 0.9696 0.50899 0.0
O306 O 0.73701 0.94413 0.47761 0.0
O307 O 0.78472 0.93697 0.54689 0.0
O308 O 0.68553 0.98728 0.56735 0.0
O309 O 0.80004 0.96771 0.58689 0.0
O310 O 0.6031 0.97148 0.5118 0.0
O311 O 0.56596 1.00409 0.52706 0.0
H312 H 0.65771 1.08499 0.50636 0.0
H313 H 0.668 1.10559 0.4376 0.0
H314 H 0.7715 1.05185 0.37148 0.0
H315 H 0.76426 1.03133 0.44094 0.0
H316 H 0.73594 0.8994 0.46521 0.0
H317 H 0.62029 0.88374 0.46933 0.0
H318 H 0.52597 0.91958 0.57829 0.0
H319 H 0.63961 0.93549 0.57307 0.0
H320 H 0.57127 0.41572 0.88228 0.0
H321 H 0.95824 0.40759 0.01029 0.0
H322 H 0.63544 0.40359 0.02481 0.0
H323 H 0.86339 0.43663 0.87888 0.0
H324 H 0.89057 0.3811 -0.00345 0.0
H325 H 0.70902 0.39537 0.86776 0.0
C326 C 0.61319 0.40835 0.91065 0.0
C327 C 0.59559 0.4134 0.95471 0.0
C328 C 0.88805 0.39277 0.96989 0.0
C329 C 0.75212 0.39051 0.9382 0.0
C330 C 0.9251 0.40819 0.9781 0.0
C331 C 0.90965 0.42539 0.94748 0.0
C332 C 0.83286 0.39518 0.93193 0.0
C333 C 0.87252 0.42442 0.90497 0.0
C334 C 0.69157 0.39638 0.90231 0.0
C335 C 0.64865 0.40176 0.98995 0.0
N336 N 0.83324 0.40986 0.89889 0.0
N337 N 0.72607 0.39124 0.98092 0.0
H338 H 0.29287 0.82999 0.95028 0.0
H339 H 0.45177 0.82578 0.17136 0.0
H340 H 0.14225 0.83367 0.06492 0.0
H341 H 0.57584 0.84261 0.05706 0.0
H342 H 0.32142 0.84767 0.13861 0.0
H343 H 0.36935 0.85115 0.9843 0.0
C344 C 0.27332 0.83612 0.98172 0.0
C345 C 0.21429 0.82942 0.00598 0.0
C346 C 0.37741 0.84737 0.12117 0.0
C347 C 0.3027 0.85314 0.04605 0.0
C348 C 0.45241 0.83501 0.14047 0.0
C349 C 0.52269 0.83121 0.11494 0.0
C350 C 0.37382 0.85477 0.07565 0.0
C351 C 0.52115 0.84415 0.0763 0.0
C352 C 0.31723 0.8482 0.00147 0.0
C353 C 0.19003 0.83799 0.04614 0.0
N354 N 0.44661 0.85463 0.0563 0.0
N355 N 0.2361 0.84895 0.06572 0.0
H356 H 0.5508 0.80201 0.51427 0.0
H357 H 0.20415 0.73609 0.49855 0.0
H358 H 0.61918 0.73842 0.50046 0.0
H359 H 0.13554 0.7995 0.51445 0.0
H360 H 0.35166 0.73668 0.4988 0.0
H361 H 0.40316 0.80149 0.51404 0.0
C362 C 0.53611 0.78779 0.51113 0.0
C363 C 0.60241 0.77024 0.50727 0.0
C364 C 0.30495 0.75059 0.50223 0.0
C365 C 0.42481 0.76952 0.50699 0.0
C366 C 0.21876 0.75029 0.50209 0.0
C367 C 0.15243 0.76777 0.50639 0.0
C368 C 0.3299 0.76858 0.50669 0.0
C369 C 0.18091 0.78542 0.51083 0.0
C370 C 0.44984 0.78753 0.511 0.0
C371 C 0.57382 0.75257 0.50339 0.0
N372 N 0.26477 0.7853 0.51083 0.0
N373 N 0.48992 0.75274 0.50335 0.0
H374 H 0.93884 0.44844 0.50234 0.0
H375 H 0.44935 0.51233 0.52101 0.0
H376 H 0.86808 0.51165 0.52065 0.0
H377 H 0.51971 0.4494 0.50004 0.0
H378 H 0.59768 0.51236 0.52141 0.0
H379 H 0.79027 0.4485 0.50149 0.0
C380 C 0.89317 0.46244 0.5064 0.0
C381 C 0.92087 0.48007 0.51167 0.0
C382 C 0.58151 0.49843 0.51668 0.0
C383 C 0.74232 0.48016 0.51106 0.0
C384 C 0.49494 0.49838 0.51644 0.0
C385 C 0.46708 0.48084 0.51043 0.0
C386 C 0.64566 0.48076 0.51094 0.0
C387 C 0.53406 0.46353 0.50481 0.0
C388 C 0.80655 0.46243 0.50595 0.0
C389 C 0.8538 0.49746 0.51648 0.0
N390 N 0.61728 0.46399 0.50524 0.0
N391 N 0.7706 0.497 0.51613 0.0
H392 H 0.05994 0.92204 0.86859 0.0
H393 H 0.41618 0.91253 0.01888 0.0
H394 H 0.09484 0.8971 0.00657 0.0
H395 H 0.34803 0.94289 0.88573 0.0
H396 H 0.34934 0.88698 -0.00184 0.0
H397 H 0.20129 0.90382 0.85635 0.0
C398 C 0.09582 0.912 0.89601 0.0
C399 C 0.06946 0.91288 0.94011 0.0
C400 C 0.35239 0.89868 0.97276 0.0
C401 C 0.23187 0.89388 0.92714 0.0
C402 C 0.38879 0.91368 0.985 0.0
C403 C 0.38203 0.93087 0.95533 0.0
C404 C 0.30824 0.90101 0.93082 0.0
C405 C 0.3518 0.93055 0.91085 0.0
C406 C 0.17742 0.9016 0.88907 0.0
C407 C 0.11654 0.89842 0.97301 0.0
N408 N 0.31435 0.91615 0.90033 0.0
N409 N 0.19794 0.89018 0.96667 0.0
H410 H 0.05087 0.32297 0.1715 0.0
H411 H 0.67651 0.34257 0.03126 0.0
H412 H 1.00078 0.35474 0.03973 0.0
H413 H 0.75534 0.30542 0.1561 0.0
H414 H 0.74722 0.36662 0.05829 0.0
H415 H 0.9137 0.34085 0.19179 0.0
C416 C 1.01259 0.3344 0.14728 0.0
C417 C 0.03313 0.33587 0.10221 0.0
C418 C 0.74631 0.35355 0.08036 0.0
C419 C 0.87491 0.35467 0.12401 0.0
C420 C 0.70726 0.33957 0.06461 0.0
C421 C 0.71548 0.32108 0.08987 0.0
C422 C 0.7959 0.34864 0.1208 0.0
C423 C 0.75039 0.31889 0.13414 0.0
C424 C 0.93347 0.34464 0.15885 0.0
C425 C 0.98326 0.35182 0.07363 0.0
N426 N 0.79119 0.33221 0.14768 0.0
N427 N 0.90402 0.36013 0.08423 0.0
H428 H 0.11174 0.2343 0.49319 0.0
H429 H 0.62475 0.29563 0.52735 0.0
H430 H 0.04209 0.29659 0.51983 0.0
H431 H 0.6929 0.23493 0.48942 0.0
H432 H 0.77234 0.29611 0.52644 0.0
H433 H 0.96389 0.23408 0.49342 0.0
C434 C 0.06638 0.24809 0.49916 0.0
C435 C 0.09448 0.26551 0.50644 0.0
C436 C 0.75598 0.28256 0.51834 0.0
C437 C 0.91603 0.26529 0.50701 0.0
C438 C 0.66978 0.28222 0.51889 0.0
C439 C 0.64139 0.26516 0.50858 0.0
C440 C 0.81951 0.26563 0.50766 0.0
C441 C 0.70764 0.24863 0.4978 0.0
C442 C 0.98 0.24792 0.49926 0.0
C443 C 1.02765 0.28258 0.51388 0.0
N444 N 0.79067 0.24931 0.49782 0.0
N445 N 0.94451 0.28197 0.51404 0.0
H446 H 0.9742 1.01831 0.52703 0.0
H447 H 0.46455 0.95602 0.5047 0.0
H448 H 0.04703 0.9556 0.5041 0.0
H449 H 0.39309 1.01813 0.53276 0.0
H450 H 0.31645 0.95575 0.50339 0.0
H451 H 0.12219 1.01867 0.52839 0.0
C452 C 1.02029 1.00447 0.52219 0.0
C453 C 0.9932 0.98688 0.51539 0.0
C454 C 0.3324 0.96952 0.51006 0.0
C455 C 0.17144 0.98723 0.51692 0.0
C456 C 0.4188 0.96973 0.51081 0.0
C457 C 0.44627 0.98714 0.519 0.0
C458 C 0.26797 0.98685 0.51754 0.0
C459 C 0.37904 1.00413 0.52632 0.0
C460 C 0.10667 1.00472 0.52301 0.0
C461 C 0.06077 0.96975 0.50948 0.0
N462 N 0.29596 1.0035 0.5254 0.0
N463 N 0.1438 0.97041 0.51035 0.0
H464 H 0.86535 0.67924 0.02597 0.0
H465 H 0.22472 0.57453 0.99035 0.0
H466 H 0.11327 0.67929 -0.00742 0.0
H467 H 0.97592 0.57466 0.02228 0.0
H468 H 0.18661 0.6116 0.99121 0.0
H469 H 0.90363 0.64219 0.02498 0.0
C470 C 0.92815 0.67176 0.01833 0.0
C471 C 0.98486 0.68369 0.00935 0.0
C472 C 0.13968 0.60372 -0.0019 0.0
C473 C 1.0314 0.63897 0.00818 0.0
C474 C 0.16177 0.58205 -0.00237 0.0
C475 C 0.10472 0.57019 0.00623 0.0
C476 C 0.05843 0.61491 0.00732 0.0
C477 C 1.02398 0.58217 0.0153 0.0
C478 C 0.95033 0.6501 0.01779 0.0
C479 C 0.06544 0.67175 -0.00015 0.0
N480 N 1.00426 0.60314 0.01557 0.0
N481 N 0.0853 0.65078 -0.00042 0.0
H482 H 0.75923 0.58192 0.44133 0.0
H483 H 0.61544 0.67334 0.56717 0.0
H484 H 0.76703 0.58473 0.58542 0.0
H485 H 0.64287 0.67104 0.42441 0.0
H486 H 0.58272 0.64089 0.57003 0.0
H487 H 0.63707 0.6104 0.43405 0.0
C488 C 0.73384 0.58805 0.47172 0.0
C489 C 0.77646 0.5817 0.51392 0.0
C490 C 0.5924 0.64786 0.53767 0.0
C491 C 0.63839 0.61485 0.50538 0.0
C492 C 0.61127 0.6664 0.53606 0.0
C493 C 0.63808 0.67406 0.49613 0.0
C494 C 0.60304 0.63695 0.49938 0.0
C495 C 0.62701 0.66512 0.45649 0.0
C496 C 0.66367 0.6044 0.46748 0.0
C497 C 0.73901 0.58998 0.55194 0.0
N498 N 0.61337 0.64657 0.45934 0.0
N499 N 0.67359 0.60658 0.54669 0.0
H500 H 0.73193 1.07484 -0.00732 0.0
H501 H 0.37132 0.17908 0.02953 0.0
H502 H 0.48538 1.07455 0.02837 0.0
H503 H 0.61785 0.17961 -0.00569 0.0
H504 H 0.41088 0.142 0.02918 0.0
H505 H 0.69286 1.11194 -0.00696 0.0
C506 C 0.6693 1.08228 0.00069 0.0
C507 C 0.61314 1.07031 0.01051 0.0
C508 C 0.457 0.15003 0.02145 0.0
C509 C 0.56575 1.115 0.01096 0.0
C510 C 0.43407 0.17169 0.02162 0.0
C511 C 0.49003 0.18373 0.01193 0.0
C512 C 0.53804 0.13904 0.01147 0.0
C513 C 0.57062 0.17194 0.00212 0.0
C514 C 0.64667 1.10396 0.00087 0.0
C515 C 0.53275 1.08216 0.02045 0.0
N516 N 0.5912 0.15096 0.00218 0.0
N517 N 0.51246 1.10313 0.02037 0.0
H518 H 0.49465 0.18908 0.30545 0.0
H519 H 0.62392 1.07355 0.33016 0.0
H520 H 0.33696 0.1493 0.32805 0.0
H521 H 0.76303 1.11456 0.36996 0.0
H522 H 0.53676 1.1003 0.27794 0.0
H523 H 0.59577 0.16209 0.27441 0.0
C524 C 0.47884 0.17502 0.30159 0.0
C525 C 0.40947 0.171 0.32171 0.0
C526 C 0.58915 1.10314 0.29629 0.0
C527 C 0.5257 0.14011 0.28708 0.0
C528 C 0.63911 1.08787 0.32608 0.0
C529 C 0.69854 1.0922 0.35544 0.0
C530 C 0.59896 1.1227 0.29639 0.0
C531 C 0.71604 1.11089 0.34871 0.0
C532 C 0.53711 0.15956 0.28394 0.0
C533 C 0.39176 0.15266 0.3148 0.0
N534 N 0.66489 1.12569 0.32063 0.0
N535 N 0.45111 0.13756 0.29947 0.0
H536 H 0.11563 0.42921 0.0296 0.0
H537 H 0.4717 0.32487 0.9902 0.0
H538 H 0.35724 0.42913 0.9855 0.0
H539 H 0.22419 0.32471 0.02444 0.0
H540 H 0.43273 0.36194 0.99024 0.0
H541 H 0.15302 0.3921 0.02927 0.0
C542 C 0.17719 0.42164 0.02017 0.0
C543 C 0.23327 0.4334 0.0086 0.0
C544 C 0.38629 0.35398 -0.00224 0.0
C545 C 0.27834 0.38891 0.00801 0.0
C546 C 0.40883 0.33236 -0.00227 0.0
C547 C 0.35223 0.32052 0.00719 0.0
C548 C 0.30526 0.365 0.00756 0.0
C549 C 0.27165 0.33231 0.01679 0.0
C550 C 0.19879 0.40001 0.01997 0.0
C551 C 0.31158 0.42154 -0.00379 0.0
N552 N 0.2515 0.35325 0.01674 0.0
N553 N 0.33108 0.40062 -0.00357 0.0
H554 H 0.61621 0.93005 0.02363 0.0
H555 H 0.97287 0.82436 -0.00538 0.0
H556 H 0.87064 0.92842 0.00195 0.0
H557 H 0.72271 0.82533 0.02568 0.0
H558 H 0.93685 0.86138 -0.00436 0.0
H559 H 0.65199 0.89299 0.02306 0.0
C560 C 0.67996 0.92217 0.01871 0.0
C561 C 0.73945 0.93355 0.01277 0.0
C562 C 0.88916 0.85369 0.00222 0.0
C563 C 0.78267 0.88902 0.01183 0.0
C564 C 0.90996 0.83209 0.00161 0.0
C565 C 0.85175 0.82055 0.00993 0.0
C566 C 0.8081 0.86506 0.01108 0.0
C567 C 0.77135 0.83267 0.01887 0.0
C568 C 0.70062 0.90055 0.01835 0.0
C569 C 0.82089 0.92124 0.00647 0.0
N570 N 0.75275 0.8536 0.01906 0.0
N571 N 0.83919 0.90033 0.00615 0.0
H572 H 0.05578 0.89195 0.52276 0.0
H573 H 0.55149 0.86221 0.51274 0.0
H574 H 0.20276 0.83226 0.50171 0.0
H575 H 0.40297 0.92191 0.53239 0.0
H576 H 0.42472 0.85077 0.50907 0.0
H577 H 0.18298 0.90311 0.52724 0.0
C578 C 0.11482 0.88119 0.51917 0.0
C579 C 0.1186 0.86118 0.51165 0.0
C580 C 0.41996 0.86637 0.51427 0.0
C581 C 0.26442 0.87382 0.51659 0.0
C582 C 0.49228 0.87291 0.51621 0.0
C583 C 0.48792 0.89305 0.52299 0.0
C584 C 0.34272 0.88008 0.51898 0.0
C585 C 0.40952 0.90621 0.52777 0.0
C586 C 0.18741 0.88757 0.52156 0.0
C587 C 0.19677 0.84791 0.50681 0.0
N588 N 0.34014 0.89951 0.5256 0.0
N589 N 0.26655 0.85446 0.50941 0.0
H590 H 0.87855 0.41726 0.54379 0.0
H591 H 0.64292 0.33497 0.48105 0.0
H592 H 0.99762 0.36186 0.48753 0.0
H593 H 0.52459 0.38933 0.54138 0.0
H594 H 0.77254 0.34495 0.48197 0.0
H595 H 0.74854 0.40747 0.54292 0.0
C596 C 0.87767 0.40295 0.53155 0.0
C597 C 0.94947 0.39039 0.51566 0.0
C598 C 0.71826 0.35477 0.49485 0.0
C599 C 0.79997 0.37913 0.51422 0.0
C600 C 0.64393 0.34916 0.49399 0.0
C601 C 0.57248 0.36145 0.51074 0.0
C602 C 0.72154 0.37282 0.5126 0.0
C603 C 0.5782 0.37939 0.52824 0.0
C604 C 0.8031 0.39742 0.53086 0.0
C605 C 0.94382 0.37216 0.4996 0.0
N606 N 0.65142 0.38456 0.52862 0.0
N607 N 0.87044 0.36709 0.4993 0.0
H608 H 0.08415 0.48775 0.13412 0.0
H609 H 0.3083 0.48192 0.37977 0.0
H610 H 0.29813 0.51042 0.15643 0.0
H611 H 0.04376 0.49095 0.36117 0.0
H612 H 0.31669 0.48481 0.29724 0.0
H613 H 0.0783 0.48179 0.21646 0.0
C614 C 0.13001 0.4914 0.15621 0.0
C615 C 0.19134 0.49974 0.13809 0.0
C616 C 0.25695 0.48594 0.31127 0.0
C617 C 0.18639 0.49245 0.23249 0.0
C618 C 0.25226 0.48411 0.3584 0.0
C619 C 0.1752 0.48614 0.37755 0.0
C620 C 0.18439 0.48935 0.28287 0.0
C621 C 0.10447 0.48926 0.34795 0.0
C622 C 0.12662 0.48802 0.20322 0.0
C623 C 0.24929 0.50412 0.16864 0.0
N624 N 0.11074 0.49067 0.30234 0.0
N625 N 0.2458 0.5003 0.21401 0.0
H626 H 0.93816 0.72756 0.15593 0.0
H627 H 0.79503 0.80209 0.34735 0.0
H628 H 0.93467 0.79017 0.13711 0.0
H629 H 0.95299 0.74254 0.38436 0.0
H630 H 0.81722 0.79686 0.26774 0.0
H631 H 0.91546 0.73145 0.23676 0.0
C632 C 0.93188 0.74214 0.16859 0.0
C633 C 0.93875 0.75854 0.13943 0.0
C634 C 0.84684 0.78489 0.29322 0.0
C635 C 0.91101 0.7632 0.23196 0.0
C636 C 0.83411 0.78783 0.33887 0.0
C637 C 0.8723 0.77278 0.37315 0.0
C638 C 0.89627 0.76648 0.28091 0.0
C639 C 0.92232 0.75463 0.35943 0.0
C640 C 0.91947 0.74432 0.21482 0.0
C641 C 0.93037 0.77706 0.15813 0.0
N642 N 0.93213 0.75192 0.31459 0.0
N643 N 0.91615 0.77892 0.20268 0.0
H644 H 0.76742 0.74073 0.86691 0.0
H645 H 1.02295 0.75953 0.65551 0.0
H646 H 0.97238 0.76735 0.88037 0.0
H647 H 0.76012 0.76557 0.63984 0.0
H648 H 1.0132 0.75844 0.73766 0.0
H649 H 0.77067 0.74546 0.78454 0.0
C650 C 0.81343 0.74752 0.8527 0.0
C651 C 0.87002 0.75354 0.88122 0.0
C652 C 0.95741 0.7602 0.71636 0.0
C653 C 0.87487 0.7587 0.78591 0.0
C654 C 0.96285 0.76086 0.66932 0.0
C655 C 0.89213 0.7629 0.64034 0.0
C656 C 0.88101 0.76089 0.73534 0.0
C657 C 0.81615 0.76429 0.66056 0.0
C658 C 0.8149 0.75029 0.80547 0.0
C659 C 0.9278 0.76232 0.86021 0.0
N660 N 0.81287 0.76295 0.70659 0.0
N661 N 0.92939 0.76438 0.81418 0.0
H662 H 0.30871 0.45151 0.66774 0.0
H663 H 0.13917 0.52694 0.85505 0.0
H664 H 0.11614 0.50615 0.63145 0.0
H665 H 0.2082 0.46248 0.88238 0.0
H666 H 0.15571 0.52253 0.77386 0.0
H667 H 0.29756 0.45812 0.74706 0.0
C668 C 0.26423 0.46499 0.67632 0.0
C669 C 0.21311 0.47823 0.64246 0.0
C670 C 0.16802 0.5094 0.79781 0.0
C671 C 0.20137 0.48616 0.73415 0.0
C672 C 0.15957 0.51191 0.84416 0.0
C673 C 0.17316 0.49504 0.87568 0.0
C674 C 0.19228 0.48989 0.78305 0.0
C675 C 0.19763 0.4759 0.8594 0.0
C676 C 0.25792 0.46874 0.72179 0.0
C677 C 0.1568 0.49549 0.65617 0.0
N678 N 0.20698 0.47387 0.81461 0.0
N679 N 0.15279 0.49902 0.70081 0.0
H680 H 0.72255 1.03264 0.15003 0.0
H681 H 0.74689 0.96185 0.37834 0.0
H682 H 0.69084 0.97283 0.14642 0.0
H683 H 0.66779 1.02665 0.36989 0.0
H684 H 0.7502 0.96361 0.29512 0.0
H685 H 0.72482 1.02892 0.23223 0.0
C686 C 0.71566 1.01872 0.16659 0.0
C687 C 0.70583 1.00311 0.14118 0.0
C688 C 0.73275 0.97739 0.31173 0.0
C689 C 0.71032 0.99851 0.23603 0.0
C690 C 0.73173 0.97639 0.35916 0.0
C691 C 0.70768 0.99412 0.38121 0.0
C692 C 0.71116 0.99627 0.28646 0.0
C693 C 0.6872 1.01257 0.35455 0.0
C694 C 0.71711 1.01658 0.21362 0.0
C695 C 0.69767 0.98534 0.16465 0.0
N696 N 0.68985 1.01315 0.30899 0.0
N697 N 0.70072 0.98345 0.21077 0.0
H698 H 0.35095 0.23992 0.14926 0.0
H699 H 0.4991 0.28362 0.37193 0.0
H700 H 0.50786 0.28054 0.14985 0.0
H701 H 0.28372 0.26037 0.36955 0.0
H702 H 0.51196 0.27894 0.2917 0.0
H703 H 0.33388 0.24339 0.23072 0.0
C704 C 0.38197 0.24947 0.16638 0.0
C705 C 0.43106 0.25991 0.14238 0.0
C706 C 0.46202 0.27471 0.3086 0.0
C707 C 0.41244 0.26383 0.23564 0.0
C708 C 0.45468 0.2774 0.35457 0.0
C709 C 0.39131 0.272 0.37798 0.0
C710 C 0.40564 0.26649 0.28521 0.0
C711 C 0.33507 0.2642 0.35328 0.0
C712 C 0.372 0.25151 0.21284 0.0
C713 C 0.46942 0.27215 0.16656 0.0
N714 N 0.34381 0.26154 0.30846 0.0
N715 N 0.4597 0.27365 0.2114 0.0
H716 H 0.40301 0.28085 0.87403 0.0
H717 H 0.47802 0.22187 0.65302 0.0
H718 H 0.39703 0.21894 0.8725 0.0
H719 H 0.34041 0.28435 0.64195 0.0
H720 H 0.47479 0.22123 0.73497 0.0
H721 H 0.4056 0.28318 0.79098 0.0
C722 C 0.40315 0.2677 0.85634 0.0
C723 C 0.39999 0.24963 0.8804 0.0
C724 C 0.44534 0.23511 0.71472 0.0
C725 C 0.40395 0.25215 0.78544 0.0
C726 C 0.44726 0.23554 0.66775 0.0
C727 C 0.40899 0.25319 0.64015 0.0
C728 C 0.4068 0.25259 0.73504 0.0
C729 C 0.37027 0.27038 0.66171 0.0
C730 C 0.40394 0.2691 0.80894 0.0
C731 C 0.39946 0.23316 0.8555 0.0
N732 N 0.37077 0.26972 0.70781 0.0
N733 N 0.40223 0.23474 0.80973 0.0
H734 H 0.59188 0.99402 0.639 0.0
H735 H 0.7683 1.01018 0.88108 0.0
H736 H 0.85638 0.97934 0.66865 0.0
H737 H 0.56378 0.98352 0.86512 0.0
H738 H 0.79221 1.00738 0.80033 0.0
H739 H 0.5702 0.99895 0.71893 0.0
C740 C 0.64539 0.99205 0.66222 0.0
C741 C 0.72613 0.98616 0.64713 0.0
C742 C 0.74201 1.00223 0.81469 0.0
C743 C 0.70155 0.99223 0.73854 0.0
C744 C 0.72825 1.00385 0.86073 0.0
C745 C 0.66445 0.9969 0.8802 0.0
C746 C 0.68971 0.99428 0.7876 0.0
C747 C 0.61404 0.98898 0.85181 0.0
C748 C 0.63295 0.99479 0.70783 0.0
C749 C 0.79313 0.98376 0.6789 0.0
N750 N 0.6272 0.98806 0.80711 0.0
N751 N 0.77944 0.98694 0.723 0.0
loop_
_geom_bond_atom_site_label_1
_geom_bond_atom_site_label_2
_geom_bond_distance
_geom_bond_site_symmetry_2
_ccdc_geom_bond_type
Tb0 C2 2.809 . S
Tb0 O20 2.484 . S
Tb0 O21 2.440 1_554 S
Tb0 O22 2.658 1_654 S
Tb0 O23 2.409 1_654 S
Tb0 O24 2.378 1_554 S
Tb0 O28 2.325 1_655 S
Tb0 O31 2.341 1_655 S
Tb1 C11 2.809 . S
Tb1 O22 2.325 1_554 S
Tb1 O25 2.341 . S
Tb1 O26 2.484 1_554 S
Tb1 O27 2.440 . S
Tb1 O28 2.658 . S
Tb1 O29 2.409 . S
Tb1 O30 2.378 . S
C2 Tb0 2.809 . S
C2 C3 1.514 . S
C2 O20 1.248 . S
C2 O21 1.266 1_554 S
C3 C2 1.514 . S
C3 C4 1.359 . S
C3 C8 1.348 1_554 S
C4 C3 1.359 . S
C4 C5 1.380 . S
C4 H32 0.929 . S
C5 C4 1.380 . S
C5 C6 1.347 . S
C5 H33 0.931 . S
C6 C5 1.347 . S
C6 C7 1.369 1_554 S
C7 C6 1.369 1_556 S
C7 C8 1.408 . S
C7 H34 0.930 . S
C8 C3 1.348 1_556 S
C8 C7 1.408 . S
C8 H35 0.930 . S
C9 O22 1.281 . S
C9 O23 1.254 . S
C10 O24 1.236 1_454 S
C10 O25 1.266 . S
C11 Tb1 2.809 . S
C11 C12 1.514 . S
C11 O26 1.248 1_554 S
C11 O27 1.266 . S
C12 C11 1.514 . S
C12 C13 1.359 1_554 S
C12 C17 1.348 . S
C13 C12 1.359 1_556 S
C13 C14 1.380 . S
C13 H36 0.929 . S
C14 C13 1.380 . S
C14 C15 1.347 1_556 S
C14 H37 0.931 . S
C15 C14 1.347 1_554 S
C15 C16 1.369 . S
C16 C15 1.369 . S
C16 C17 1.408 . S
C16 H38 0.930 . S
C17 C12 1.348 . S
C17 C16 1.408 . S
C17 H39 0.930 . S
C18 O28 1.281 . S
C18 O29 1.254 . S
C19 O30 1.236 . S
C19 O31 1.266 . S
O20 Tb0 2.484 . S
O20 C2 1.248 . S
O21 Tb0 2.440 1_556 S
O21 C2 1.266 1_556 S
O22 Tb0 2.658 1_456 S
O22 Tb1 2.325 1_556 S
O22 C9 1.281 . S
O23 Tb0 2.409 1_456 S
O23 C9 1.254 . S
O24 Tb0 2.378 1_556 S
O24 C10 1.236 1_656 S
O25 Tb1 2.341 . S
O25 C10 1.266 . S
O26 Tb1 2.484 1_556 S
O26 C11 1.248 1_556 S
O27 Tb1 2.440 . S
O27 C11 1.266 . S
O28 Tb0 2.325 1_455 S
O28 Tb1 2.658 . S
O28 C18 1.281 . S
O29 Tb1 2.409 . S
O29 C18 1.254 . S
O30 Tb1 2.378 . S
O30 C19 1.236 . S
O31 Tb0 2.341 1_455 S
O31 C19 1.266 . S
H32 C4 0.929 . S
H33 C5 0.931 . S
H34 C7 0.930 . S
H35 C8 0.930 . S
H36 C13 0.929 . S
H37 C14 0.931 . S
H38 C16 0.930 . S
H39 C17 0.930 . S
Tb40 C42 2.809 . S
Tb40 O60 2.484 . S
Tb40 O61 2.440 1_554 S
Tb40 O62 2.658 1_554 S
Tb40 O63 2.409 1_554 S
Tb40 O64 2.378 1_554 S
Tb40 O68 2.325 . S
Tb40 O71 2.341 . S
Tb41 C51 2.809 . S
Tb41 O62 2.325 1_454 S
Tb41 O65 2.341 1_455 S
Tb41 O66 2.484 1_554 S
Tb41 O67 2.440 . S
Tb41 O68 2.658 1_455 S
Tb41 O69 2.409 1_455 S
Tb41 O70 2.378 . S
C42 Tb40 2.809 . S
C42 C43 1.514 . S
C42 O60 1.248 . S
C42 O61 1.266 1_554 S
C43 C42 1.514 . S
C43 C44 1.359 . S
C43 C48 1.348 1_554 S
C44 C43 1.359 . S
C44 C45 1.380 . S
C44 H72 0.929 . S
C45 C44 1.380 . S
C45 C46 1.347 . S
C45 H73 0.931 . S
C46 C45 1.347 . S
C46 C47 1.369 1_554 S
C47 C46 1.369 1_556 S
C47 C48 1.408 . S
C47 H74 0.930 . S
C48 C43 1.348 1_556 S
C48 C47 1.408 . S
C48 H75 0.930 . S
C49 O62 1.281 . S
C49 O63 1.254 . S
C50 O64 1.233 1_554 S
C50 O65 1.267 . S
C51 Tb41 2.809 . S
C51 C52 1.514 . S
C51 O66 1.248 1_554 S
C51 O67 1.266 . S
C52 C51 1.514 . S
C52 C53 1.359 1_554 S
C52 C57 1.348 . S
C53 C52 1.359 1_556 S
C53 C54 1.380 . S
C53 H76 0.929 . S
C54 C53 1.380 . S
C54 C55 1.347 1_556 S
C54 H77 0.931 . S
C55 C54 1.347 1_554 S
C55 C56 1.369 . S
C56 C55 1.369 . S
C56 C57 1.408 . S
C56 H78 0.930 . S
C57 C52 1.348 . S
C57 C56 1.408 . S
C57 H79 0.930 . S
C58 O68 1.281 . S
C58 O69 1.254 . S
C59 O70 1.236 1_655 S
C59 O71 1.266 . S
O60 Tb40 2.484 . S
O60 C42 1.248 . S
O61 Tb40 2.440 1_556 S
O61 C42 1.266 1_556 S
O62 Tb40 2.658 1_556 S
O62 Tb41 2.325 1_656 S
O62 C49 1.281 . S
O63 Tb40 2.409 1_556 S
O63 C49 1.254 . S
O64 Tb40 2.378 1_556 S
O64 C50 1.233 1_556 S
O65 Tb41 2.341 1_655 S
O65 C50 1.267 . S
O66 Tb41 2.484 1_556 S
O66 C51 1.248 1_556 S
O67 Tb41 2.440 . S
O67 C51 1.266 . S
O68 Tb40 2.325 . S
O68 Tb41 2.658 1_655 S
O68 C58 1.281 . S
O69 Tb41 2.409 1_655 S
O69 C58 1.254 . S
O70 Tb41 2.378 . S
O70 C59 1.236 1_455 S
O71 Tb40 2.341 . S
O71 C59 1.266 . S
H72 C44 0.929 . S
H73 C45 0.931 . S
H74 C47 0.930 . S
H75 C48 0.930 . S
H76 C53 0.929 . S
H77 C54 0.931 . S
H78 C56 0.930 . S
H79 C57 0.930 . S
Tb80 C82 2.809 . S
Tb80 O100 2.484 . S
Tb80 O101 2.440 . S
Tb80 O102 2.658 . S
Tb80 O103 2.409 . S
Tb80 O104 2.378 . S
Tb80 O108 2.325 . S
Tb80 O111 2.341 1_455 S
Tb81 C91 2.809 . S
Tb81 O102 2.325 . S
Tb81 O105 2.341 . S
Tb81 O106 2.484 . S
Tb81 O107 2.440 . S
Tb81 O108 2.658 . S
Tb81 O109 2.409 . S
Tb81 O110 2.378 1_455 S
C82 Tb80 2.809 . S
C82 C83 1.514 . S
C82 O100 1.248 . S
C82 O101 1.266 . S
C83 C82 1.514 . S
C83 C84 1.359 . S
C83 C88 1.348 . S
C84 C83 1.359 . S
C84 C85 1.380 . S
C84 H112 0.929 . S
C85 C84 1.380 . S
C85 C86 1.347 . S
C85 H113 0.931 . S
C86 C85 1.347 . S
C86 C87 1.369 . S
C87 C86 1.369 . S
C87 C88 1.408 . S
C87 H114 0.930 . S
C88 C83 1.348 . S
C88 C87 1.408 . S
C88 H115 0.930 . S
C89 O102 1.281 . S
C89 O103 1.254 . S
C90 O104 1.236 . S
C90 O105 1.266 . S
C91 Tb81 2.809 . S
C91 C92 1.514 1_455 S
C91 O106 1.248 . S
C91 O107 1.266 . S
C92 C91 1.514 1_655 S
C92 C93 1.359 . S
C92 C97 1.348 . S
C93 C92 1.359 . S
C93 C94 1.380 . S
C93 H116 0.929 . S
C94 C93 1.380 . S
C94 C95 1.347 . S
C94 H117 0.931 . S
C95 C94 1.347 . S
C95 C96 1.369 . S
C96 C95 1.369 . S
C96 C97 1.408 . S
C96 H118 0.930 . S
C97 C92 1.348 . S
C97 C96 1.408 . S
C97 H119 0.930 . S
C98 O108 1.281 . S
C98 O109 1.254 . S
C99 O110 1.236 . S
C99 O111 1.266 . S
O100 Tb80 2.484 . S
O100 C82 1.248 . S
O101 Tb80 2.440 . S
O101 C82 1.266 . S
O102 Tb80 2.658 . S
O102 Tb81 2.325 . S
O102 C89 1.281 . S
O103 Tb80 2.409 . S
O103 C89 1.254 . S
O104 Tb80 2.378 . S
O104 C90 1.236 . S
O105 Tb81 2.341 . S
O105 C90 1.266 . S
O106 Tb81 2.484 . S
O106 C91 1.248 . S
O107 Tb81 2.440 . S
O107 C91 1.266 . S
O108 Tb80 2.325 . S
O108 Tb81 2.658 . S
O108 C98 1.281 . S
O109 Tb81 2.409 . S
O109 C98 1.254 . S
O110 Tb81 2.378 1_655 S
O110 C99 1.236 . S
O111 Tb80 2.341 1_655 S
O111 C99 1.266 . S
H112 C84 0.929 . S
H113 C85 0.931 . S
H114 C87 0.930 . S
H115 C88 0.930 . S
H116 C93 0.929 . S
H117 C94 0.931 . S
H118 C96 0.930 . S
H119 C97 0.930 . S
Tb120 C122 2.809 . S
Tb120 O140 2.484 . S
Tb120 O141 2.440 . S
Tb120 O142 2.658 . S
Tb120 O143 2.409 . S
Tb120 O144 2.378 1_655 S
Tb120 O148 2.325 . S
Tb120 O151 2.341 . S
Tb121 C131 2.809 . S
Tb121 O142 2.325 . S
Tb121 O145 2.341 1_655 S
Tb121 O146 2.484 . S
Tb121 O147 2.440 . S
Tb121 O148 2.658 . S
Tb121 O149 2.409 . S
Tb121 O150 2.378 . S
C122 Tb120 2.809 . S
C122 C123 1.514 1_655 S
C122 O140 1.248 . S
C122 O141 1.266 . S
C123 C122 1.514 1_455 S
C123 C124 1.359 . S
C123 C128 1.348 . S
C124 C123 1.359 . S
C124 C125 1.380 . S
C124 H152 0.929 . S
C125 C124 1.380 . S
C125 C126 1.347 . S
C125 H153 0.931 . S
C126 C125 1.347 . S
C126 C127 1.369 . S
C127 C126 1.369 . S
C127 C128 1.408 . S
C127 H154 0.930 . S
C128 C123 1.348 . S
C128 C127 1.408 . S
C128 H155 0.930 . S
C129 O142 1.281 . S
C129 O143 1.254 . S
C130 O144 1.236 . S
C130 O145 1.266 . S
C131 Tb121 2.809 . S
C131 C132 1.514 . S
C131 O146 1.248 . S
C131 O147 1.266 . S
C132 C131 1.514 . S
C132 C133 1.359 . S
C132 C137 1.348 . S
C133 C132 1.359 . S
C133 C134 1.380 . S
C133 H156 0.929 . S
C134 C133 1.380 . S
C134 C135 1.347 . S
C134 H157 0.931 . S
C135 C134 1.347 . S
C135 C136 1.369 . S
C136 C135 1.369 . S
C136 C137 1.408 . S
C136 H158 0.930 . S
C137 C132 1.348 . S
C137 C136 1.408 . S
C137 H159 0.930 . S
C138 O148 1.281 . S
C138 O149 1.254 . S
C139 O150 1.236 . S
C139 O151 1.266 . S
O140 Tb120 2.484 . S
O140 C122 1.248 . S
O141 Tb120 2.440 . S
O141 C122 1.266 . S
O142 Tb120 2.658 . S
O142 Tb121 2.325 . S
O142 C129 1.281 . S
O143 Tb120 2.409 . S
O143 C129 1.254 . S
O144 Tb120 2.378 1_455 S
O144 C130 1.236 . S
O145 Tb121 2.341 1_455 S
O145 C130 1.266 . S
O146 Tb121 2.484 . S
O146 C131 1.248 . S
O147 Tb121 2.440 . S
O147 C131 1.266 . S
O148 Tb120 2.325 . S
O148 Tb121 2.658 . S
O148 C138 1.281 . S
O149 Tb121 2.409 . S
O149 C138 1.254 . S
O150 Tb121 2.378 . S
O150 C139 1.236 . S
O151 Tb120 2.341 . S
O151 C139 1.266 . S
H152 C124 0.929 . S
H153 C125 0.931 . S
H154 C127 0.930 . S
H155 C128 0.930 . S
H156 C133 0.929 . S
H157 C134 0.931 . S
H158 C136 0.930 . S
H159 C137 0.930 . S
Tb160 C162 2.809 . S
Tb160 O180 2.484 . S
Tb160 O181 2.440 1_554 S
Tb160 O182 2.658 1_554 S
Tb160 O183 2.409 1_554 S
Tb160 O184 2.378 1_554 S
Tb160 O188 2.325 . S
Tb160 O191 2.341 . S
Tb161 C171 2.809 . S
Tb161 O182 2.325 1_554 S
Tb161 O185 2.341 . S
Tb161 O186 2.484 1_554 S
Tb161 O187 2.440 . S
Tb161 O188 2.658 . S
Tb161 O189 2.409 . S
Tb161 O190 2.378 . S
C162 Tb160 2.809 . S
C162 C163 1.514 . S
C162 O180 1.248 . S
C162 O181 1.266 1_554 S
C163 C162 1.514 . S
C163 C164 1.359 . S
C163 C168 1.348 1_554 S
C164 C163 1.359 . S
C164 C165 1.380 . S
C164 H192 0.929 . S
C165 C164 1.380 . S
C165 C166 1.347 . S
C165 H193 0.931 . S
C166 C165 1.347 . S
C166 C167 1.369 1_554 S
C167 C166 1.369 1_556 S
C167 C168 1.408 . S
C167 H194 0.930 . S
C168 C163 1.348 1_556 S
C168 C167 1.408 . S
C168 H195 0.930 . S
C169 O182 1.281 . S
C169 O183 1.254 . S
C170 O184 1.236 1_554 S
C170 O185 1.266 . S
C171 Tb161 2.809 . S
C171 C172 1.514 . S
C171 O186 1.248 1_554 S
C171 O187 1.266 . S
C172 C171 1.514 . S
C172 C173 1.359 1_554 S
C172 C177 1.348 . S
C173 C172 1.359 1_556 S
C173 C174 1.380 . S
C173 H196 0.929 . S
C174 C173 1.380 . S
C174 C175 1.347 1_556 S
C174 H197 0.931 . S
C175 C174 1.347 1_554 S
C175 C176 1.369 . S
C176 C175 1.369 . S
C176 C177 1.408 . S
C176 H198 0.930 . S
C177 C172 1.348 . S
C177 C176 1.408 . S
C177 H199 0.930 . S
C178 O188 1.281 . S
C178 O189 1.254 . S
C179 O190 1.236 . S
C179 O191 1.266 . S
O180 Tb160 2.484 . S
O180 C162 1.248 . S
O181 Tb160 2.440 1_556 S
O181 C162 1.266 1_556 S
O182 Tb160 2.658 1_556 S
O182 Tb161 2.325 1_556 S
O182 C169 1.281 . S
O183 Tb160 2.409 1_556 S
O183 C169 1.254 . S
O184 Tb160 2.378 1_556 S
O184 C170 1.236 1_556 S
O185 Tb161 2.341 . S
O185 C170 1.266 . S
O186 Tb161 2.484 1_556 S
O186 C171 1.248 1_556 S
O187 Tb161 2.440 . S
O187 C171 1.266 . S
O188 Tb160 2.325 . S
O188 Tb161 2.658 . S
O188 C178 1.281 . S
O189 Tb161 2.409 . S
O189 C178 1.254 . S
O190 Tb161 2.378 . S
O190 C179 1.236 . S
O191 Tb160 2.341 . S
O191 C179 1.266 . S
H192 C164 0.929 . S
H193 C165 0.931 . S
H194 C167 0.930 . S
H195 C168 0.930 . S
H196 C173 0.929 . S
H197 C174 0.931 . S
H198 C176 0.930 . S
H199 C177 0.930 . S
Tb200 C202 2.809 . S
Tb200 O220 2.484 . S
Tb200 O221 2.440 1_554 S
Tb200 O222 2.658 1_554 S
Tb200 O223 2.409 1_554 S
Tb200 O224 2.378 1_554 S
Tb200 O228 2.325 . S
Tb200 O231 2.341 . S
Tb201 C211 2.809 . S
Tb201 O222 2.325 1_554 S
Tb201 O225 2.341 . S
Tb201 O226 2.484 1_554 S
Tb201 O227 2.440 . S
Tb201 O228 2.658 . S
Tb201 O229 2.409 . S
Tb201 O230 2.378 . S
C202 Tb200 2.809 . S
C202 C203 1.514 . S
C202 O220 1.248 . S
C202 O221 1.266 1_554 S
C203 C202 1.514 . S
C203 C204 1.359 . S
C203 C208 1.348 1_554 S
C204 C203 1.359 . S
C204 C205 1.380 . S
C204 H232 0.929 . S
C205 C204 1.380 . S
C205 C206 1.347 . S
C205 H233 0.931 . S
C206 C205 1.347 . S
C206 C207 1.369 1_554 S
C207 C206 1.369 1_556 S
C207 C208 1.408 . S
C207 H234 0.930 . S
C208 C203 1.348 1_556 S
C208 C207 1.408 . S
C208 H235 0.930 . S
C209 O222 1.281 . S
C209 O223 1.254 . S
C210 O224 1.234 1_554 S
C210 O225 1.267 . S
C211 Tb201 2.809 . S
C211 C212 1.514 . S
C211 O226 1.248 1_554 S
C211 O227 1.266 . S
C212 C211 1.514 . S
C212 C213 1.359 1_554 S
C212 C217 1.348 . S
C213 C212 1.359 1_556 S
C213 C214 1.380 . S
C213 H236 0.929 . S
C214 C213 1.380 . S
C214 C215 1.347 1_556 S
C214 H237 0.931 . S
C215 C214 1.347 1_554 S
C215 C216 1.369 . S
C216 C215 1.369 . S
C216 C217 1.408 . S
C216 H238 0.930 . S
C217 C212 1.348 . S
C217 C216 1.408 . S
C217 H239 0.930 . S
C218 O228 1.281 . S
C218 O229 1.254 . S
C219 O230 1.236 . S
C219 O231 1.266 . S
O220 Tb200 2.484 . S
O220 C202 1.248 . S
O221 Tb200 2.440 1_556 S
O221 C202 1.266 1_556 S
O222 Tb200 2.658 1_556 S
O222 Tb201 2.325 1_556 S
O222 C209 1.281 . S
O223 Tb200 2.409 1_556 S
O223 C209 1.254 . S
O224 Tb200 2.378 1_556 S
O224 C210 1.234 1_556 S
O225 Tb201 2.341 . S
O225 C210 1.267 . S
O226 Tb201 2.484 1_556 S
O226 C211 1.248 1_556 S
O227 Tb201 2.440 . S
O227 C211 1.266 . S
O228 Tb200 2.325 . S
O228 Tb201 2.658 . S
O228 C218 1.281 . S
O229 Tb201 2.409 . S
O229 C218 1.254 . S
O230 Tb201 2.378 . S
O230 C219 1.236 . S
O231 Tb200 2.341 . S
O231 C219 1.266 . S
H232 C204 0.929 . S
H233 C205 0.931 . S
H234 C207 0.930 . S
H235 C208 0.930 . S
H236 C213 0.929 . S
H237 C214 0.931 . S
H238 C216 0.930 . S
H239 C217 0.930 . S
Tb240 C242 2.809 . S
Tb240 O260 2.484 . S
Tb240 O261 2.440 . S
Tb240 O262 2.658 . S
Tb240 O263 2.409 . S
Tb240 O264 2.378 . S
Tb240 O268 2.325 . S
Tb240 O271 2.341 . S
Tb241 C251 2.809 . S
Tb241 O262 2.325 . S
Tb241 O265 2.341 . S
Tb241 O266 2.484 . S
Tb241 O267 2.440 . S
Tb241 O268 2.658 . S
Tb241 O269 2.409 . S
Tb241 O270 2.378 . S
C242 Tb240 2.809 . S
C242 C243 1.514 . S
C242 O260 1.248 . S
C242 O261 1.266 . S
C243 C242 1.514 . S
C243 C244 1.359 . S
C243 C248 1.348 . S
C244 C243 1.359 . S
C244 C245 1.380 . S
C244 H272 0.929 . S
C245 C244 1.380 . S
C245 C246 1.347 . S
C245 H273 0.931 . S
C246 C245 1.347 . S
C246 C247 1.369 . S
C247 C246 1.369 . S
C247 C248 1.408 . S
C247 H274 0.930 . S
C248 C243 1.348 . S
C248 C247 1.408 . S
C248 H275 0.930 . S
C249 O262 1.281 . S
C249 O263 1.254 . S
C250 O264 1.236 . S
C250 O265 1.266 . S
C251 Tb241 2.809 . S
C251 C252 1.514 . S
C251 O266 1.248 . S
C251 O267 1.266 . S
C252 C251 1.514 . S
C252 C253 1.359 . S
C252 C257 1.348 . S
C253 C252 1.359 . S
C253 C254 1.380 . S
C253 H276 0.929 . S
C254 C253 1.380 . S
C254 C255 1.347 . S
C254 H277 0.931 . S
C255 C254 1.347 . S
C255 C256 1.369 . S
C256 C255 1.369 . S
C256 C257 1.408 . S
C256 H278 0.930 . S
C257 C252 1.348 . S
C257 C256 1.408 . S
C257 H279 0.930 . S
C258 O268 1.281 . S
C258 O269 1.254 . S
C259 O270 1.236 . S
C259 O271 1.266 . S
O260 Tb240 2.484 . S
O260 C242 1.248 . S
O261 Tb240 2.440 . S
O261 C242 1.266 . S
O262 Tb240 2.658 . S
O262 Tb241 2.325 . S
O262 C249 1.281 . S
O263 Tb240 2.409 . S
O263 C249 1.254 . S
O264 Tb240 2.378 . S
O264 C250 1.236 . S
O265 Tb241 2.341 . S
O265 C250 1.266 . S
O266 Tb241 2.484 . S
O266 C251 1.248 . S
O267 Tb241 2.440 . S
O267 C251 1.266 . S
O268 Tb240 2.325 . S
O268 Tb241 2.658 . S
O268 C258 1.281 . S
O269 Tb241 2.409 . S
O269 C258 1.254 . S
O270 Tb241 2.378 . S
O270 C259 1.236 . S
O271 Tb240 2.341 . S
O271 C259 1.266 . S
H272 C244 0.929 . S
H273 C245 0.931 . S
H274 C247 0.930 . S
H275 C248 0.930 . S
H276 C253 0.929 . S
H277 C254 0.931 . S
H278 C256 0.930 . S
H279 C257 0.930 . S
Tb280 C282 2.809 . S
Tb280 O300 2.484 . S
Tb280 O301 2.440 . S
Tb280 O302 2.658 . S
Tb280 O303 2.409 . S
Tb280 O304 2.378 . S
Tb280 O308 2.325 . S
Tb280 O311 2.341 . S
Tb281 C291 2.809 . S
Tb281 O302 2.325 . S
Tb281 O305 2.341 . S
Tb281 O306 2.484 . S
Tb281 O307 2.440 . S
Tb281 O308 2.658 . S
Tb281 O309 2.409 . S
Tb281 O310 2.378 . S
C282 Tb280 2.809 . S
C282 C283 1.514 . S
C282 O300 1.248 . S
C282 O301 1.266 . S
C283 C282 1.514 . S
C283 C284 1.359 . S
C283 C288 1.348 . S
C284 C283 1.359 . S
C284 C285 1.380 . S
C284 H312 0.929 . S
C285 C284 1.380 . S
C285 C286 1.347 . S
C285 H313 0.931 . S
C286 C285 1.347 . S
C286 C287 1.369 . S
C287 C286 1.369 . S
C287 C288 1.408 . S
C287 H314 0.930 . S
C288 C283 1.348 . S
C288 C287 1.408 . S
C288 H315 0.930 . S
C289 O302 1.281 . S
C289 O303 1.254 . S
C290 O304 1.236 . S
C290 O305 1.266 . S
C291 Tb281 2.809 . S
C291 C292 1.514 . S
C291 O306 1.248 . S
C291 O307 1.266 . S
C292 C291 1.514 . S
C292 C293 1.359 . S
C292 C297 1.348 . S
C293 C292 1.359 . S
C293 C294 1.380 . S
C293 H316 0.929 . S
C294 C293 1.380 . S
C294 C295 1.347 . S
C294 H317 0.931 . S
C295 C294 1.347 . S
C295 C296 1.369 . S
C296 C295 1.369 . S
C296 C297 1.408 . S
C296 H318 0.930 . S
C297 C292 1.348 . S
C297 C296 1.408 . S
C297 H319 0.930 . S
C298 O308 1.281 . S
C298 O309 1.254 . S
C299 O310 1.236 . S
C299 O311 1.266 . S
O300 Tb280 2.484 . S
O300 C282 1.248 . S
O301 Tb280 2.440 . S
O301 C282 1.266 . S
O302 Tb280 2.658 . S
O302 Tb281 2.325 . S
O302 C289 1.281 . S
O303 Tb280 2.409 . S
O303 C289 1.254 . S
O304 Tb280 2.378 . S
O304 C290 1.236 . S
O305 Tb281 2.341 . S
O305 C290 1.266 . S
O306 Tb281 2.484 . S
O306 C291 1.248 . S
O307 Tb281 2.440 . S
O307 C291 1.266 . S
O308 Tb280 2.325 . S
O308 Tb281 2.658 . S
O308 C298 1.281 . S
O309 Tb281 2.409 . S
O309 C298 1.254 . S
O310 Tb281 2.378 . S
O310 C299 1.236 . S
O311 Tb280 2.341 . S
O311 C299 1.266 . S
H312 C284 0.929 . S
H313 C285 0.931 . S
H314 C287 0.930 . S
H315 C288 0.930 . S
H316 C293 0.929 . S
H317 C294 0.931 . S
H318 C296 0.930 . S
H319 C297 0.930 . S
H320 C326 0.930 . S
H321 C330 0.930 . S
H322 C335 0.929 . S
H323 C333 0.929 . S
H324 C328 0.929 . S
H325 C334 0.929 . S
C326 H320 0.930 . S
C326 C327 1.367 1_556 S
C326 C334 1.378 . S
C327 C326 1.367 1_554 S
C327 C335 1.433 . S
C328 H324 0.929 . S
C328 C330 1.378 . S
C328 C332 1.350 . S
C329 C332 1.463 . S
C329 C334 1.350 1_554 S
C329 N337 1.427 . S
C330 H321 0.930 . S
C330 C328 1.378 . S
C330 C331 1.367 . S
C331 C330 1.367 . S
C331 C333 1.433 1_554 S
C332 C328 1.350 . S
C332 C329 1.463 . S
C332 N336 1.427 1_554 S
C333 H323 0.929 . S
C333 C331 1.433 1_556 S
C333 N336 1.384 . S
C334 H325 0.929 . S
C334 C326 1.378 . S
C334 C329 1.350 1_556 S
C335 H322 0.929 . S
C335 C327 1.433 . S
C335 N337 1.384 . S
N336 C332 1.427 1_556 S
N336 C333 1.384 . S
N337 C329 1.427 . S
N337 C335 1.384 . S
H338 C344 0.930 . S
H339 C348 0.930 . S
H340 C353 0.929 . S
H341 C351 0.929 . S
H342 C346 0.929 . S
H343 C352 0.929 . S
C344 H338 0.930 . S
C344 C345 1.367 . S
C344 C352 1.378 . S
C345 C344 1.367 . S
C345 C353 1.433 1_556 S
C346 H342 0.929 . S
C346 C348 1.378 . S
C346 C350 1.350 . S
C347 C350 1.463 . S
C347 C352 1.350 1_554 S
C347 N355 1.427 . S
C348 H339 0.930 . S
C348 C346 1.378 . S
C348 C349 1.367 . S
C349 C348 1.367 . S
C349 C351 1.433 1_554 S
C350 C346 1.350 . S
C350 C347 1.463 . S
C350 N354 1.427 1_554 S
C351 H341 0.929 . S
C351 C349 1.433 1_556 S
C351 N354 1.384 . S
C352 H343 0.929 . S
C352 C344 1.378 . S
C352 C347 1.350 1_556 S
C353 H340 0.929 . S
C353 C345 1.433 1_554 S
C353 N355 1.384 . S
N354 C350 1.427 1_556 S
N354 C351 1.384 . S
N355 C347 1.427 . S
N355 C353 1.384 . S
H356 C362 0.930 . S
H357 C366 0.930 . S
H358 C371 0.929 . S
H359 C369 0.929 . S
H360 C364 0.929 . S
H361 C370 0.929 . S
C362 H356 0.930 . S
C362 C363 1.367 . S
C362 C370 1.378 . S
C363 C362 1.367 . S
C363 C371 1.433 . S
C364 H360 0.929 . S
C364 C366 1.378 . S
C364 C368 1.350 . S
C365 C368 1.463 . S
C365 C370 1.350 . S
C365 N373 1.427 . S
C366 H357 0.930 . S
C366 C364 1.378 . S
C366 C367 1.367 . S
C367 C366 1.367 . S
C367 C369 1.433 . S
C368 C364 1.350 . S
C368 C365 1.463 . S
C368 N372 1.427 . S
C369 H359 0.929 . S
C369 C367 1.433 . S
C369 N372 1.384 . S
C370 H361 0.929 . S
C370 C362 1.378 . S
C370 C365 1.350 . S
C371 H358 0.929 . S
C371 C363 1.433 . S
C371 N373 1.384 . S
N372 C368 1.427 . S
N372 C369 1.384 . S
N373 C365 1.427 . S
N373 C371 1.384 . S
H374 C380 0.930 . S
H375 C384 0.930 . S
H376 C389 0.929 . S
H377 C387 0.929 . S
H378 C382 0.929 . S
H379 C388 0.929 . S
C380 H374 0.930 . S
C380 C381 1.367 . S
C380 C388 1.378 . S
C381 C380 1.367 . S
C381 C389 1.433 . S
C382 H378 0.929 . S
C382 C384 1.378 . S
C382 C386 1.350 . S
C383 C386 1.463 . S
C383 C388 1.350 . S
C383 N391 1.427 . S
C384 H375 0.930 . S
C384 C382 1.378 . S
C384 C385 1.367 . S
C385 C384 1.367 . S
C385 C387 1.433 . S
C386 C382 1.350 . S
C386 C383 1.463 . S
C386 N390 1.427 . S
C387 H377 0.929 . S
C387 C385 1.433 . S
C387 N390 1.384 . S
C388 H379 0.929 . S
C388 C380 1.378 . S
C388 C383 1.350 . S
C389 H376 0.929 . S
C389 C381 1.433 . S
C389 N391 1.384 . S
N390 C386 1.427 . S
N390 C387 1.384 . S
N391 C383 1.427 . S
N391 C389 1.384 . S
H392 C398 0.930 . S
H393 C402 0.930 . S
H394 C407 0.929 . S
H395 C405 0.929 . S
H396 C400 0.929 . S
H397 C406 0.929 . S
C398 H392 0.930 . S
C398 C399 1.367 1_556 S
C398 C406 1.378 1_655 S
C399 C398 1.367 1_554 S
C399 C407 1.433 1_655 S
C400 H396 0.929 . S
C400 C402 1.378 . S
C400 C404 1.350 . S
C401 C404 1.463 . S
C401 C406 1.350 1_554 S
C401 N409 1.427 . S
C402 H393 0.930 . S
C402 C400 1.378 . S
C402 C403 1.367 . S
C403 C402 1.367 . S
C403 C405 1.433 1_554 S
C404 C400 1.350 . S
C404 C401 1.463 . S
C404 N408 1.427 1_554 S
C405 H395 0.929 . S
C405 C403 1.433 1_556 S
C405 N408 1.384 . S
C406 H397 0.929 . S
C406 C398 1.378 1_455 S
C406 C401 1.350 1_556 S
C407 H394 0.929 . S
C407 C399 1.433 1_455 S
C407 N409 1.384 . S
N408 C404 1.427 1_556 S
N408 C405 1.384 . S
N409 C401 1.427 . S
N409 C407 1.384 . S
H410 C416 0.930 . S
H411 C420 0.930 . S
H412 C425 0.929 . S
H413 C423 0.929 . S
H414 C418 0.929 . S
H415 C424 0.929 . S
C416 H410 0.930 . S
C416 C417 1.367 . S
C416 C424 1.378 1_455 S
C417 C416 1.367 . S
C417 C425 1.433 1_454 S
C418 H414 0.929 . S
C418 C420 1.378 . S
C418 C422 1.350 1_556 S
C419 C422 1.463 . S
C419 C424 1.350 . S
C419 N427 1.427 1_554 S
C420 H411 0.930 . S
C420 C418 1.378 . S
C420 C421 1.381 . S
C421 C420 1.381 . S
C421 C423 1.416 1_556 S
C422 C418 1.350 1_554 S
C422 C419 1.463 . S
C422 N426 1.427 . S
C423 H413 0.929 . S
C423 C421 1.416 1_554 S
C423 N426 1.384 . S
C424 H415 0.929 . S
C424 C416 1.378 1_655 S
C424 C419 1.350 . S
C425 H412 0.929 . S
C425 C417 1.433 1_656 S
C425 N427 1.384 . S
N426 C422 1.427 . S
N426 C423 1.384 . S
N427 C419 1.427 1_556 S
N427 C425 1.384 . S
H428 C434 0.930 . S
H429 C438 0.930 . S
H430 C443 0.929 . S
H431 C441 0.929 . S
H432 C436 0.929 1_455 S
H433 C442 0.929 . S
C434 H428 0.930 . S
C434 C435 1.367 . S
C434 C442 1.378 . S
C435 C434 1.367 . S
C435 C443 1.433 . S
C436 H432 0.929 1_655 S
C436 C438 1.378 . S
C436 C440 1.350 1_655 S
C437 C440 1.463 . S
C437 C442 1.350 . S
C437 N445 1.427 . S
C438 H429 0.930 . S
C438 C436 1.378 . S
C438 C439 1.367 . S
C439 C438 1.367 . S
C439 C441 1.433 . S
C440 C436 1.350 1_455 S
C440 C437 1.463 . S
C440 N444 1.427 1_455 S
C441 H431 0.929 . S
C441 C439 1.433 . S
C441 N444 1.384 . S
C442 H433 0.929 . S
C442 C434 1.378 . S
C442 C437 1.350 . S
C443 H430 0.929 . S
C443 C435 1.433 . S
C443 N445 1.384 . S
N444 C440 1.427 1_655 S
N444 C441 1.384 . S
N445 C437 1.427 . S
N445 C443 1.384 . S
H446 C452 0.930 . S
H447 C456 0.930 . S
H448 C461 0.929 . S
H449 C459 0.929 . S
H450 C454 0.929 1_655 S
H451 C460 0.929 . S
C452 H446 0.930 . S
C452 C453 1.367 . S
C452 C460 1.378 . S
C453 C452 1.367 . S
C453 C461 1.433 . S
C454 H450 0.929 1_455 S
C454 C456 1.378 . S
C454 C458 1.350 1_455 S
C455 C458 1.463 . S
C455 C460 1.350 . S
C455 N463 1.427 . S
C456 H447 0.930 . S
C456 C454 1.378 . S
C456 C457 1.367 . S
C457 C456 1.367 . S
C457 C459 1.433 . S
C458 C454 1.350 1_655 S
C458 C455 1.463 . S
C458 N462 1.427 1_655 S
C459 H449 0.929 . S
C459 C457 1.433 . S
C459 N462 1.384 . S
C460 H451 0.929 . S
C460 C452 1.378 . S
C460 C455 1.350 . S
C461 H448 0.929 . S
C461 C453 1.433 . S
C461 N463 1.384 . S
N462 C458 1.427 1_455 S
N462 C459 1.384 . S
N463 C455 1.427 . S
N463 C461 1.384 . S
H464 C470 0.930 . S
H465 C474 0.930 . S
H466 C479 0.929 . S
H467 C477 0.929 . S
H468 C472 0.929 . S
H469 C478 0.929 . S
C470 H464 0.930 . S
C470 C471 1.367 1_655 S
C470 C478 1.378 . S
C471 C470 1.367 1_455 S
C471 C479 1.433 1_554 S
C472 H468 0.929 . S
C472 C474 1.378 . S
C472 C476 1.361 1_556 S
C473 C476 1.467 1_655 S
C473 C478 1.360 . S
C473 N481 1.414 1_654 S
C474 H465 0.930 . S
C474 C472 1.378 . S
C474 C475 1.367 1_456 S
C475 C474 1.367 1_654 S
C475 C477 1.433 . S
C476 C472 1.361 1_554 S
C476 C473 1.467 1_455 S
C476 N480 1.413 1_455 S
C477 H467 0.929 . S
C477 C475 1.433 . S
C477 N480 1.384 . S
C478 H469 0.929 . S
C478 C470 1.378 . S
C478 C473 1.360 . S
C479 H466 0.929 . S
C479 C471 1.433 1_556 S
C479 N481 1.384 . S
N480 C476 1.413 1_655 S
N480 C477 1.384 . S
N481 C473 1.414 1_456 S
N481 C479 1.384 . S
H482 C488 0.930 . S
H483 C492 0.930 . S
H484 C497 0.929 . S
H485 C495 0.929 . S
H486 C490 0.929 . S
H487 C496 0.929 . S
C488 H482 0.930 . S
C488 C489 1.367 . S
C488 C496 1.378 . S
C489 C488 1.367 . S
C489 C497 1.433 . S
C490 H486 0.929 . S
C490 C492 1.378 . S
C490 C494 1.350 . S
C491 C494 1.463 1_455 S
C491 C496 1.350 . S
C491 N499 1.427 . S
C492 H483 0.930 . S
C492 C490 1.378 . S
C492 C493 1.367 . S
C493 C492 1.367 . S
C493 C495 1.433 . S
C494 C490 1.350 . S
C494 C491 1.463 1_655 S
C494 N498 1.427 . S
C495 H485 0.929 . S
C495 C493 1.433 . S
C495 N498 1.384 . S
C496 H487 0.929 . S
C496 C488 1.378 . S
C496 C491 1.350 . S
C497 H484 0.929 . S
C497 C489 1.433 . S
C497 N499 1.384 . S
N498 C494 1.427 . S
N498 C495 1.384 . S
N499 C491 1.427 . S
N499 C497 1.384 . S
H500 C506 0.930 . S
H501 C510 0.930 . S
H502 C515 0.929 . S
H503 C513 0.929 . S
H504 C508 0.929 . S
H505 C514 0.929 . S
C506 H500 0.930 . S
C506 C507 1.367 . S
C506 C514 1.378 . S
C507 C506 1.367 . S
C507 C515 1.433 1_554 S
C508 H504 0.929 . S
C508 C510 1.378 . S
C508 C512 1.350 1_556 S
C509 C512 1.463 1_565 S
C509 C514 1.350 . S
C509 N517 1.427 1_554 S
C510 H501 0.930 . S
C510 C508 1.378 . S
C510 C511 1.367 1_556 S
C511 C510 1.367 1_554 S
C511 C513 1.433 . S
C512 C508 1.350 1_554 S
C512 C509 1.463 1_545 S
C512 N516 1.427 . S
C513 H503 0.929 . S
C513 C511 1.433 . S
C513 N516 1.384 . S
C514 H505 0.929 . S
C514 C506 1.378 . S
C514 C509 1.350 . S
C515 H502 0.929 . S
C515 C507 1.433 1_556 S
C515 N517 1.384 . S
N516 C512 1.427 . S
N516 C513 1.384 . S
N517 C509 1.427 1_556 S
N517 C515 1.384 . S
H518 C524 0.930 . S
H519 C528 0.930 . S
H520 C533 0.929 . S
H521 C531 0.929 . S
H522 C526 0.929 . S
H523 C532 0.929 . S
C524 H518 0.930 . S
C524 C525 1.367 . S
C524 C532 1.378 . S
C525 C524 1.367 . S
C525 C533 1.433 . S
C526 H522 0.929 . S
C526 C528 1.378 . S
C526 C530 1.350 . S
C527 C530 1.463 1_545 S
C527 C532 1.350 . S
C527 N535 1.427 . S
C528 H519 0.930 . S
C528 C526 1.378 . S
C528 C529 1.367 . S
C529 C528 1.367 . S
C529 C531 1.433 . S
C530 C526 1.350 . S
C530 C527 1.463 1_565 S
C530 N534 1.427 . S
C531 H521 0.929 . S
C531 C529 1.433 . S
C531 N534 1.384 . S
C532 H523 0.929 . S
C532 C524 1.378 . S
C532 C527 1.350 . S
C533 H520 0.929 . S
C533 C525 1.433 . S
C533 N535 1.384 . S
N534 C530 1.427 . S
N534 C531 1.384 . S
N535 C527 1.427 . S
N535 C533 1.384 . S
H536 C542 0.930 . S
H537 C546 0.930 . S
H538 C551 0.929 . S
H539 C549 0.929 . S
H540 C544 0.929 . S
H541 C550 0.929 . S
C542 H536 0.930 . S
C542 C543 1.367 . S
C542 C550 1.378 . S
C543 C542 1.367 . S
C543 C551 1.433 1_554 S
C544 H540 0.929 . S
C544 C546 1.378 . S
C544 C548 1.350 1_556 S
C545 C548 1.463 . S
C545 C550 1.350 . S
C545 N553 1.427 1_554 S
C546 H537 0.930 . S
C546 C544 1.378 . S
C546 C547 1.367 1_556 S
C547 C546 1.367 1_554 S
C547 C549 1.433 . S
C548 C544 1.350 1_554 S
C548 C545 1.463 . S
C548 N552 1.427 . S
C549 H539 0.929 . S
C549 C547 1.433 . S
C549 N552 1.384 . S
C550 H541 0.929 . S
C550 C542 1.378 . S
C550 C545 1.350 . S
C551 H538 0.929 . S
C551 C543 1.433 1_556 S
C551 N553 1.384 . S
N552 C548 1.427 . S
N552 C549 1.384 . S
N553 C545 1.427 1_556 S
N553 C551 1.384 . S
H554 C560 0.930 . S
H555 C564 0.930 . S
H556 C569 0.929 . S
H557 C567 0.929 . S
H558 C562 0.929 . S
H559 C568 0.929 . S
C560 H554 0.930 . S
C560 C561 1.367 . S
C560 C568 1.378 . S
C561 C560 1.367 . S
C561 C569 1.433 . S
C562 H558 0.929 . S
C562 C564 1.378 . S
C562 C566 1.350 . S
C563 C566 1.463 . S
C563 C568 1.350 . S
C563 N571 1.427 . S
C564 H555 0.930 . S
C564 C562 1.378 . S
C564 C565 1.367 . S
C565 C564 1.367 . S
C565 C567 1.433 . S
C566 C562 1.350 . S
C566 C563 1.463 . S
C566 N570 1.427 . S
C567 H557 0.929 . S
C567 C565 1.433 . S
C567 N570 1.384 . S
C568 H559 0.929 . S
C568 C560 1.378 . S
C568 C563 1.350 . S
C569 H556 0.929 . S
C569 C561 1.433 . S
C569 N571 1.384 . S
N570 C566 1.427 . S
N570 C567 1.384 . S
N571 C563 1.427 . S
N571 C569 1.384 . S
H572 C578 0.930 . S
H573 C582 0.930 . S
H574 C587 0.929 . S
H575 C585 0.929 . S
H576 C580 0.929 . S
H577 C586 0.929 . S
C578 H572 0.930 . S
C578 C579 1.367 . S
C578 C586 1.378 . S
C579 C578 1.367 . S
C579 C587 1.433 . S
C580 H576 0.929 . S
C580 C582 1.378 . S
C580 C584 1.350 . S
C581 C584 1.463 . S
C581 C586 1.350 . S
C581 N589 1.427 . S
C582 H573 0.930 . S
C582 C580 1.378 . S
C582 C583 1.367 . S
C583 C582 1.367 . S
C583 C585 1.433 . S
C584 C580 1.350 . S
C584 C581 1.463 . S
C584 N588 1.427 . S
C585 H575 0.929 . S
C585 C583 1.433 . S
C585 N588 1.384 . S
C586 H577 0.929 . S
C586 C578 1.378 . S
C586 C581 1.350 . S
C587 H574 0.929 . S
C587 C579 1.433 . S
C587 N589 1.384 . S
N588 C584 1.427 . S
N588 C585 1.384 . S
N589 C581 1.427 . S
N589 C587 1.384 . S
H590 C596 0.930 . S
H591 C600 0.930 . S
H592 C605 0.929 . S
H593 C603 0.929 . S
H594 C598 0.929 . S
H595 C604 0.929 . S
C596 H590 0.930 . S
C596 C597 1.367 . S
C596 C604 1.378 . S
C597 C596 1.367 . S
C597 C605 1.433 . S
C598 H594 0.929 . S
C598 C600 1.378 . S
C598 C602 1.350 . S
C599 C602 1.463 . S
C599 C604 1.350 . S
C599 N607 1.427 . S
C600 H591 0.930 . S
C600 C598 1.378 . S
C600 C601 1.367 . S
C601 C600 1.367 . S
C601 C603 1.433 . S
C602 C598 1.350 . S
C602 C599 1.463 . S
C602 N606 1.427 . S
C603 H593 0.929 . S
C603 C601 1.433 . S
C603 N606 1.384 . S
C604 H595 0.929 . S
C604 C596 1.378 . S
C604 C599 1.350 . S
C605 H592 0.929 . S
C605 C597 1.433 . S
C605 N607 1.384 . S
N606 C602 1.427 . S
N606 C603 1.384 . S
N607 C599 1.427 . S
N607 C605 1.384 . S
H608 C614 0.928 1_655 S
H609 C618 0.930 . S
H610 C623 0.929 . S
H611 C621 0.929 . S
H612 C616 0.929 . S
H613 C622 0.929 . S
C614 H608 0.928 1_455 S
C614 C615 1.367 . S
C614 C622 1.378 1_455 S
C615 C614 1.367 . S
C615 C623 1.433 . S
C616 H612 0.929 . S
C616 C618 1.378 . S
C616 C620 1.350 . S
C617 C620 1.463 . S
C617 C622 1.350 1_455 S
C617 N625 1.427 . S
C618 H609 0.930 . S
C618 C616 1.378 . S
C618 C619 1.367 1_455 S
C619 C618 1.367 1_655 S
C619 C621 1.433 . S
C620 C616 1.350 . S
C620 C617 1.463 . S
C620 N624 1.427 1_455 S
C621 H611 0.929 . S
C621 C619 1.433 . S
C621 N624 1.384 . S
C622 H613 0.929 . S
C622 C614 1.378 1_655 S
C622 C617 1.350 1_655 S
C623 H610 0.929 . S
C623 C615 1.433 . S
C623 N625 1.384 . S
N624 C620 1.427 1_655 S
N624 C621 1.384 . S
N625 C617 1.427 . S
N625 C623 1.384 . S
H626 C632 0.935 . S
H627 C636 0.930 . S
H628 C641 0.929 . S
H629 C639 0.929 . S
H630 C634 0.929 . S
H631 C640 0.936 . S
C632 H626 0.935 . S
C632 C633 1.367 . S
C632 C640 1.374 1_655 S
C633 C632 1.367 . S
C633 C641 1.433 . S
C634 H630 0.929 . S
C634 C636 1.378 . S
C634 C638 1.350 . S
C635 C638 1.463 . S
C635 C640 1.346 1_655 S
C635 N643 1.427 . S
C636 H627 0.930 . S
C636 C634 1.378 . S
C636 C637 1.367 1_655 S
C637 C636 1.367 1_455 S
C637 C639 1.433 . S
C638 C634 1.350 . S
C638 C635 1.463 . S
C638 N642 1.427 1_655 S
C639 H629 0.929 . S
C639 C637 1.433 . S
C639 N642 1.384 . S
C640 H631 0.936 . S
C640 C632 1.374 1_455 S
C640 C635 1.346 1_455 S
C641 H628 0.929 . S
C641 C633 1.433 . S
C641 N643 1.384 . S
N642 C638 1.427 1_455 S
N642 C639 1.384 . S
N643 C635 1.427 . S
N643 C641 1.384 . S
H644 C650 0.930 . S
H645 C654 0.930 . S
H646 C659 0.929 . S
H647 C657 0.932 . S
H648 C652 0.929 . S
H649 C658 0.929 . S
C650 H644 0.930 . S
C650 C651 1.367 . S
C650 C658 1.378 . S
C651 C650 1.367 . S
C651 C659 1.433 . S
C652 H648 0.929 . S
C652 C654 1.378 . S
C652 C656 1.347 1_455 S
C653 C656 1.464 . S
C653 C658 1.350 . S
C653 N661 1.427 . S
C654 H645 0.930 . S
C654 C652 1.378 . S
C654 C655 1.367 . S
C655 C654 1.367 . S
C655 C657 1.427 1_455 S
C656 C652 1.347 1_655 S
C656 C653 1.464 . S
C656 N660 1.429 . S
C657 H647 0.932 . S
C657 C655 1.427 1_655 S
C657 N660 1.387 . S
C658 H649 0.929 . S
C658 C650 1.378 . S
C658 C653 1.350 . S
C659 H646 0.929 . S
C659 C651 1.433 . S
C659 N661 1.384 . S
N660 C656 1.429 . S
N660 C657 1.387 . S
N661 C653 1.427 . S
N661 C659 1.384 . S
H662 C668 0.930 . S
H663 C672 0.930 . S
H664 C677 0.929 . S
H665 C675 0.929 . S
H666 C670 0.929 1_655 S
H667 C676 0.929 . S
C668 H662 0.930 . S
C668 C669 1.367 1_455 S
C668 C676 1.378 . S
C669 C668 1.367 1_655 S
C669 C677 1.433 . S
C670 H666 0.929 1_455 S
C670 C672 1.378 . S
C670 C674 1.350 . S
C671 C674 1.463 . S
C671 C676 1.350 . S
C671 N679 1.427 1_455 S
C672 H663 0.930 . S
C672 C670 1.378 . S
C672 C673 1.367 . S
C673 C672 1.367 . S
C673 C675 1.433 . S
C674 C670 1.350 . S
C674 C671 1.463 . S
C674 N678 1.427 . S
C675 H665 0.929 . S
C675 C673 1.433 . S
C675 N678 1.384 . S
C676 H667 0.929 . S
C676 C668 1.378 . S
C676 C671 1.350 . S
C677 H664 0.929 . S
C677 C669 1.433 . S
C677 N679 1.384 . S
N678 C674 1.427 . S
N678 C675 1.384 . S
N679 C671 1.427 1_655 S
N679 C677 1.384 . S
H680 C686 0.930 . S
H681 C690 0.930 . S
H682 C695 0.929 . S
H683 C693 0.929 . S
H684 C688 0.929 . S
H685 C694 0.929 . S
C686 H680 0.930 . S
C686 C687 1.367 . S
C686 C694 1.378 . S
C687 C686 1.367 . S
C687 C695 1.433 . S
C688 H684 0.929 . S
C688 C690 1.378 . S
C688 C692 1.350 . S
C689 C692 1.463 . S
C689 C694 1.350 . S
C689 N697 1.427 . S
C690 H681 0.930 . S
C690 C688 1.378 . S
C690 C691 1.367 . S
C691 C690 1.367 . S
C691 C693 1.433 . S
C692 C688 1.350 . S
C692 C689 1.463 . S
C692 N696 1.427 . S
C693 H683 0.929 . S
C693 C691 1.433 . S
C693 N696 1.384 . S
C694 H685 0.929 . S
C694 C686 1.378 . S
C694 C689 1.350 . S
C695 H682 0.929 . S
C695 C687 1.433 . S
C695 N697 1.384 . S
N696 C692 1.427 . S
N696 C693 1.384 . S
N697 C689 1.427 . S
N697 C695 1.384 . S
H698 C704 0.930 . S
H699 C708 0.930 . S
H700 C713 0.929 . S
H701 C711 0.929 . S
H702 C706 0.929 . S
H703 C712 0.929 . S
C704 H698 0.930 . S
C704 C705 1.367 . S
C704 C712 1.378 . S
C705 C704 1.367 . S
C705 C713 1.433 . S
C706 H702 0.929 . S
C706 C708 1.378 . S
C706 C710 1.350 . S
C707 C710 1.463 . S
C707 C712 1.350 . S
C707 N715 1.427 . S
C708 H699 0.930 . S
C708 C706 1.378 . S
C708 C709 1.367 . S
C709 C708 1.367 . S
C709 C711 1.433 . S
C710 C706 1.350 . S
C710 C707 1.463 . S
C710 N714 1.427 . S
C711 H701 0.929 . S
C711 C709 1.433 . S
C711 N714 1.384 . S
C712 H703 0.929 . S
C712 C704 1.378 . S
C712 C707 1.350 . S
C713 H700 0.929 . S
C713 C705 1.433 . S
C713 N715 1.384 . S
N714 C710 1.427 . S
N714 C711 1.384 . S
N715 C707 1.427 . S
N715 C713 1.384 . S
H716 C722 0.930 . S
H717 C726 0.930 . S
H718 C731 0.929 . S
H719 C729 0.929 . S
H720 C724 0.929 . S
H721 C730 0.929 . S
C722 H716 0.930 . S
C722 C723 1.367 . S
C722 C730 1.378 . S
C723 C722 1.367 . S
C723 C731 1.433 . S
C724 H720 0.929 . S
C724 C726 1.378 . S
C724 C728 1.350 . S
C725 C728 1.463 . S
C725 C730 1.350 . S
C725 N733 1.427 . S
C726 H717 0.930 . S
C726 C724 1.378 . S
C726 C727 1.367 . S
C727 C726 1.367 . S
C727 C729 1.433 . S
C728 C724 1.350 . S
C728 C725 1.463 . S
C728 N732 1.427 . S
C729 H719 0.929 . S
C729 C727 1.433 . S
C729 N732 1.384 . S
C730 H721 0.929 . S
C730 C722 1.378 . S
C730 C725 1.350 . S
C731 H718 0.929 . S
C731 C723 1.433 . S
C731 N733 1.384 . S
N732 C728 1.427 . S
N732 C729 1.384 . S
N733 C725 1.427 . S
N733 C731 1.384 . S
H734 C740 0.930 . S
H735 C744 0.930 . S
H736 C749 0.929 . S
H737 C747 0.929 . S
H738 C742 0.929 . S
H739 C748 0.929 . S
C740 H734 0.930 . S
C740 C741 1.367 . S
C740 C748 1.378 . S
C741 C740 1.367 . S
C741 C749 1.433 . S
C742 H738 0.929 . S
C742 C744 1.378 . S
C742 C746 1.350 . S
C743 C746 1.463 . S
C743 C748 1.350 . S
C743 N751 1.427 . S
C744 H735 0.930 . S
C744 C742 1.378 . S
C744 C745 1.367 . S
C745 C744 1.367 . S
C745 C747 1.433 . S
C746 C742 1.350 . S
C746 C743 1.463 . S
C746 N750 1.427 . S
C747 H737 0.929 . S
C747 C745 1.433 . S
C747 N750 1.384 . S
C748 H739 0.929 . S
C748 C740 1.378 . S
C748 C743 1.350 . S
C749 H736 0.929 . S
C749 C741 1.433 . S
C749 N751 1.384 . S
N750 C746 1.427 . S
N750 C747 1.384 . S
N751 C743 1.427 . S
N751 C749 1.384 . S
C327 C15 0.693 . S
C331 C6 0.693 . S
C345 C55 0.714 1_556 S
C349 C46 0.714 . S
C363 C99 5.049 . S
C367 C90 5.049 . S
C381 C139 5.051 . S
C385 C130 5.051 . S
C399 C175 0.704 . S
C403 C166 0.704 . S
C417 C206 0.699 . S
C421 C215 0.695 1_556 S
C435 C259 5.052 . S
C439 C250 5.052 . S
C453 C290 5.052 . S
C457 C299 5.052 . S
C471 C59 4.827 1_455 S
C475 C10 4.827 1_655 S
C489 C126 0.761 . S
C493 C95 0.761 . S
C507 C170 4.829 . S
C511 C219 4.829 . S
C525 C255 0.745 . S
C529 C286 0.745 . S
C543 C19 4.326 . S
C547 C210 4.327 . S
C561 C179 4.326 . S
C565 C50 4.327 . S
C579 C86 0.393 . S
C583 C295 0.393 . S
C597 C135 0.391 . S
C601 C246 0.391 . S
C615 C18 1.700 . S
C619 C129 1.638 . S
C633 C58 1.481 . S
C637 C89 1.546 . S
C651 C49 1.692 . S
C655 C98 1.651 . S
C669 C138 1.546 . S
C673 C9 1.484 . S
C687 C178 1.694 . S
C691 C289 1.650 . S
C705 C218 1.482 . S
C709 C249 1.546 . S
C723 C209 1.697 . S
C727 C258 1.641 . S
C741 C298 1.561 . S
C745 C169 1.488 . S
