# Generated by pormake.
# Topology uoc, (4)-cn, num edge types: 1
# Building blocks:
#     Node 0, Type 0, BuildingBlock: QUQFOY_clean_sbu_1, # of connection points: 4
#     Node 1, Type 0, BuildingBlock: QUQFOY_clean_sbu_1, # of connection points: 4
#     Node 2, Type 0, BuildingBlock: QUQFOY_clean_sbu_1, # of connection points: 4
#     Node 3, Type 0, BuildingBlock: QUQFOY_clean_sbu_1, # of connection points: 4
#     Node 4, Type 0, BuildingBlock: QUQFOY_clean_sbu_1, # of connection points: 4
#     Node 5, Type 0, BuildingBlock: QUQFOY_clean_sbu_1, # of connection points: 4
#     Node 6, Type 0, BuildingBlock: QUQFOY_clean_sbu_1, # of connection points: 4
#     Node 7, Type 0, BuildingBlock: QUQFOY_clean_sbu_1, # of connection points: 4
#     Edge 8, Type (0, 0), BuildingBlock: FUNLAD_clean_linker_1, # of connection points: 2
#     Edge 9, Type (0, 0), BuildingBlock: FUNLAD_clean_linker_1, # of connection points: 2
#     Edge 10, Type (0, 0), BuildingBlock: FUNLAD_clean_linker_1, # of connection points: 2
#     Edge 11, Type (0, 0), BuildingBlock: FUNLAD_clean_linker_1, # of connection points: 2
#     Edge 12, Type (0, 0), BuildingBlock: FUNLAD_clean_linker_1, # of connection points: 2
#     Edge 13, Type (0, 0), BuildingBlock: FUNLAD_clean_linker_1, # of connection points: 2
#     Edge 14, Type (0, 0), BuildingBlock: FUNLAD_clean_linker_1, # of connection points: 2
#     Edge 15, Type (0, 0), BuildingBlock: FUNLAD_clean_linker_1, # of connection points: 2
#     Edge 16, Type (0, 0), BuildingBlock: FUNLAD_clean_linker_1, # of connection points: 2
#     Edge 17, Type (0, 0), BuildingBlock: FUNLAD_clean_linker_1, # of connection points: 2
#     Edge 18, Type (0, 0), BuildingBlock: FUNLAD_clean_linker_1, # of connection points: 2
#     Edge 19, Type (0, 0), BuildingBlock: FUNLAD_clean_linker_1, # of connection points: 2
#     Edge 20, Type (0, 0), BuildingBlock: FUNLAD_clean_linker_1, # of connection points: 2
#     Edge 21, Type (0, 0), BuildingBlock: FUNLAD_clean_linker_1, # of connection points: 2
#     Edge 22, Type (0, 0), BuildingBlock: FUNLAD_clean_linker_1, # of connection points: 2
#     Edge 23, Type (0, 0), BuildingBlock: FUNLAD_clean_linker_1, # of connection points: 2
# Relax obj value: 0.072
# Max RMSD: 0.102
# Mean RMSD: 0.102
data_MOF--net-uoc--node1-QUQFOY_clean_sbu_1--edge1-FUNLAD_clean_linker_1
_symmetry_space_group_name_H-M    P1
_symmetry_Int_Tables_number       1
_symmetry_cell_setting            triclinic
loop_
_symmetry_equiv_pos_as_xyz
'x, y, z'
_cell_length_a     28.589638
_cell_length_b     28.165112
_cell_length_c     58.412278
_cell_angle_alpha  89.881508
_cell_angle_beta   90.115819
_cell_angle_gamma 109.64056
loop_
_atom_site_label
_atom_site_type_symbol
_atom_site_fract_x
_atom_site_fract_y
_atom_site_fract_z
_atom_type_partial_charge
O0 O 0.15786 0.21218 0.12873 0.0
Cd1 Cd 0.19807 0.28809 0.13067 0.0
Cd2 Cd 0.10824 0.29134 0.14027 0.0
O3 O 0.08297 0.21845 0.12779 0.0
O4 O 0.2589 0.29693 0.11196 0.0
O5 O 0.20048 0.32869 0.10222 0.0
C6 C 0.24096 0.32035 0.09717 0.0
C7 C 0.08046 0.35572 0.12757 0.0
C8 C 0.11123 0.19204 0.12622 0.0
C9 C 0.18334 0.31481 0.1783 0.0
O10 O 0.13762 0.30063 0.17287 0.0
O11 O 0.21626 0.31851 0.16314 0.0
O12 O 0.0531 0.3201 0.14058 0.0
O13 O 0.12258 0.35337 0.12082 0.0
O14 O 0.70745 0.62692 0.40882 0.0
Cd15 Cd 0.77635 0.68207 0.40572 0.0
Cd16 Cd 0.80333 0.60031 0.39865 0.0
O17 O 0.73409 0.56214 0.41144 0.0
O18 O 0.76881 0.74269 0.42057 0.0
O19 O 0.81606 0.70132 0.43474 0.0
C20 C 0.79681 0.73659 0.43683 0.0
C21 C 0.87022 0.57674 0.41051 0.0
C22 C 0.69919 0.58033 0.41255 0.0
C23 C 0.80991 0.67018 0.35885 0.0
O24 O 0.80723 0.62633 0.36545 0.0
O25 O 0.80423 0.70196 0.37303 0.0
O26 O 0.83626 0.54852 0.3972 0.0
O27 O 0.8658 0.61837 0.41764 0.0
O28 O 0.36428 0.2925 0.62832 0.0
Cd29 Cd 0.32352 0.21782 0.63253 0.0
Cd30 Cd 0.41432 0.20929 0.63401 0.0
O31 O 0.43719 0.28354 0.62253 0.0
O32 O 0.25701 0.20994 0.6193 0.0
O33 O 0.30995 0.1772 0.60366 0.0
C34 C 0.26885 0.18683 0.60241 0.0
C35 C 0.43953 0.14636 0.61757 0.0
C36 C 0.4099 0.31113 0.62315 0.0
C37 C 0.3534 0.18888 0.67748 0.0
O38 O 0.39548 0.19695 0.66816 0.0
O39 O 0.31656 0.19102 0.66578 0.0
O40 O 0.46969 0.18179 0.62972 0.0
O41 O 0.39579 0.14832 0.61356 0.0
O42 O 0.79987 0.86216 0.91092 0.0
Cd43 Cd 0.7269 0.81856 0.90594 0.0
Cd44 Cd 0.72096 0.9093 0.89434 0.0
O45 O 0.79328 0.93762 0.90665 0.0
O46 O 0.71906 0.75718 0.92486 0.0
O47 O 0.68067 0.81184 0.93243 0.0
C48 C 0.69149 0.77259 0.93837 0.0
C49 C 0.65562 0.9352 0.9066 0.0
C50 C 0.81918 0.90982 0.91125 0.0
C51 C 0.70498 0.83131 0.85703 0.0
O52 O 0.71252 0.87712 0.86226 0.0
O53 O 0.70516 0.79926 0.87239 0.0
O54 O 0.68981 0.9633 0.89327 0.0
O55 O 0.6599 0.89355 0.91388 0.0
O56 O 0.66048 0.70737 0.6318 0.0
Cd57 Cd 0.7009 0.78214 0.63566 0.0
Cd58 Cd 0.6105 0.79145 0.6358 0.0
O59 O 0.58875 0.71751 0.62405 0.0
O60 O 0.76709 0.791 0.62199 0.0
O61 O 0.71217 0.82169 0.60655 0.0
C62 C 0.75362 0.81284 0.60501 0.0
C63 C 0.5848 0.85392 0.61898 0.0
C64 C 0.61544 0.68938 0.62557 0.0
C65 C 0.66984 0.81216 0.67986 0.0
O66 O 0.62806 0.80369 0.67011 0.0
O67 O 0.70718 0.81008 0.66862 0.0
O68 O 0.55462 0.81814 0.63097 0.0
O69 O 0.62889 0.85264 0.61539 0.0
O70 O 0.21655 0.14942 0.90737 0.0
Cd71 Cd 0.29001 0.1917 0.9029 0.0
Cd72 Cd 0.29477 0.09993 0.8926 0.0
O73 O 0.2224 0.07334 0.90493 0.0
O74 O 0.29895 0.25336 0.92171 0.0
O75 O 0.33488 0.1968 0.92982 0.0
C76 C 0.32511 0.23669 0.93557 0.0
C77 C 0.35934 0.07325 0.90546 0.0
C78 C 0.1968 0.10187 0.90855 0.0
C79 C 0.31283 0.17672 0.85448 0.0
O80 O 0.30394 0.13092 0.86021 0.0
O81 O 0.3133 0.20968 0.86943 0.0
O82 O 0.32486 0.04502 0.8923 0.0
O83 O 0.35575 0.11544 0.91227 0.0
O84 O 0.85749 0.79205 0.12985 0.0
Cd85 Cd 0.81739 0.71621 0.13261 0.0
Cd86 Cd 0.90755 0.71296 0.1419 0.0
O87 O 0.93222 0.78543 0.12887 0.0
O88 O 0.75575 0.70684 0.11436 0.0
O89 O 0.81386 0.67503 0.10434 0.0
C90 C 0.77318 0.68327 0.09951 0.0
C91 C 0.93464 0.64833 0.12908 0.0
C92 C 0.90405 0.8119 0.12707 0.0
C93 C 0.83384 0.6903 0.18032 0.0
O94 O 0.87941 0.70434 0.17468 0.0
O95 O 0.8005 0.68645 0.16529 0.0
O96 O 0.96265 0.68411 0.14181 0.0
O97 O 0.89216 0.65056 0.12274 0.0
O98 O 0.30845 0.3607 0.40748 0.0
Cd99 Cd 0.23785 0.30909 0.40364 0.0
Cd100 Cd 0.2167 0.39409 0.39772 0.0
O101 O 0.2859 0.42774 0.41165 0.0
O102 O 0.24128 0.24614 0.41801 0.0
O103 O 0.19756 0.29075 0.43246 0.0
C104 C 0.21436 0.25362 0.43436 0.0
C105 C 0.15087 0.41872 0.40992 0.0
C106 C 0.31905 0.40712 0.41231 0.0
C107 C 0.20735 0.32675 0.35691 0.0
O108 O 0.21301 0.37092 0.36408 0.0
O109 O 0.20997 0.2928 0.37072 0.0
O110 O 0.18594 0.44771 0.39735 0.0
O111 O 0.15366 0.37575 0.41616 0.0
H112 H 0.24366 0.34885 0.06183 0.0
C113 C 0.26189 0.33131 0.07388 0.0
H114 H 0.31252 0.29197 0.07785 0.0
H115 H 0.25508 0.19843 0.97885 0.0
H116 H 0.20713 0.12891 1.00265 0.0
H117 H 0.20274 0.13904 0.04443 0.0
H118 H 0.24588 0.21911 0.06256 0.0
C119 C 0.29616 0.3122 0.06622 0.0
C120 C 0.30257 0.30617 0.04123 0.0
C121 C 0.27872 0.2585 0.03098 0.0
C122 C 0.28236 0.25233 1.00696 0.0
C123 C 0.25543 0.20504 0.99708 0.0
C124 C 0.22728 0.16474 1.01054 0.0
C125 C 0.22473 0.17046 0.03404 0.0
C126 C 0.24984 0.2167 0.04422 0.0
H127 H 0.35832 0.24108 0.96993 0.0
C128 C 0.33705 0.25739 0.95888 0.0
H129 H 0.2918 0.30326 0.95739 0.0
H130 H 0.35364 0.40181 0.0556 0.0
H131 H 0.40206 0.47195 0.03178 0.0
H132 H 0.40961 0.46101 0.9902 0.0
H133 H 0.36882 0.37988 0.97213 0.0
C134 C 0.31395 0.28729 0.96806 0.0
C135 C 0.31144 0.29346 0.99332 0.0
C136 C 0.33539 0.34102 1.0036 0.0
C137 C 0.33095 0.3474 0.02759 0.0
C138 C 0.35553 0.39517 0.03744 0.0
C139 C 0.38349 0.43563 0.02398 0.0
C140 C 0.38775 0.42946 1.00056 0.0
C141 C 0.36412 0.38278 0.99039 0.0
H142 H 0.831 0.72355 0.32972 0.0
C143 C 0.81874 0.68391 0.33444 0.0
H144 H 0.79802 0.60876 0.32288 0.0
H145 H 0.79338 0.74504 0.22905 0.0
H146 H 0.73132 0.77103 0.24852 0.0
H147 H 0.70688 0.74415 0.28822 0.0
H148 H 0.74557 0.69252 0.30889 0.0
C149 C 0.81034 0.64837 0.31809 0.0
C150 C 0.8208 0.66082 0.29338 0.0
C151 C 0.79536 0.6883 0.28108 0.0
C152 C 0.80687 0.70078 0.25764 0.0
C153 C 0.78409 0.73197 0.2464 0.0
C154 C 0.74864 0.74755 0.25745 0.0
C155 C 0.73507 0.73265 0.27984 0.0
C156 C 0.75797 0.70334 0.29159 0.0
H157 H 0.78101 0.6592 0.20867 0.0
C158 C 0.81971 0.67924 0.20456 0.0
H159 H 0.89218 0.71459 0.21734 0.0
H160 H 0.87683 0.60798 0.31182 0.0
H161 H 0.9346 0.57705 0.29162 0.0
H162 H 0.94948 0.59279 0.25027 0.0
H163 H 0.90711 0.64011 0.22897 0.0
C164 C 0.85345 0.69473 0.22149 0.0
C165 C 0.84101 0.68249 0.24606 0.0
C166 C 0.86527 0.65372 0.2582 0.0
C167 C 0.85564 0.64344 0.2819 0.0
C168 C 0.88172 0.61598 0.29369 0.0
C169 C 0.9152 0.5981 0.28232 0.0
C170 C 0.92366 0.60705 0.25907 0.0
C171 C 0.89915 0.63448 0.24706 0.0
H172 H 0.20537 0.18785 0.58125 0.0
C173 C 0.23984 0.1795 0.58099 0.0
H174 H 0.29624 0.17005 0.56021 0.0
H175 H 0.13066 0.14926 0.47843 0.0
H176 H 0.09135 0.06399 0.49274 0.0
H177 H 0.12053 0.03593 0.52841 0.0
H178 H 0.18918 0.09304 0.55008 0.0
C179 C 0.26003 0.1747 0.56076 0.0
C180 C 0.24163 0.19076 0.53925 0.0
C181 C 0.20173 0.157 0.52679 0.0
C182 C 0.18533 0.17302 0.50604 0.0
C183 C 0.14505 0.13872 0.49407 0.0
C184 C 0.12208 0.08979 0.50214 0.0
C185 C 0.13848 0.07401 0.52225 0.0
C186 C 0.17782 0.10709 0.53452 0.0
H187 H 0.22544 0.19445 0.45613 0.0
C188 C 0.20931 0.22434 0.45574 0.0
H189 H 0.18143 0.27136 0.47548 0.0
H190 H 0.31873 0.26534 0.55925 0.0
H191 H 0.35834 0.35012 0.54489 0.0
H192 H 0.33051 0.37772 0.50879 0.0
H193 H 0.2628 0.32081 0.48693 0.0
C194 C 0.19473 0.23947 0.47544 0.0
C195 C 0.2091 0.22271 0.49779 0.0
C196 C 0.24865 0.25669 0.51046 0.0
C197 C 0.265 0.24066 0.53115 0.0
C198 C 0.30483 0.27534 0.54336 0.0
C199 C 0.32797 0.32421 0.53532 0.0
C200 C 0.31227 0.33976 0.51502 0.0
C201 C 0.2732 0.30661 0.50266 0.0
H202 H 0.69851 0.77812 0.82839 0.0
C203 C 0.69965 0.81601 0.83271 0.0
H204 H 0.7021 0.88712 0.82017 0.0
H205 H 0.79205 0.88374 0.72369 0.0
H206 H 0.85948 0.94721 0.74308 0.0
H207 H 0.85652 0.96023 0.78472 0.0
H208 H 0.78592 0.91027 0.80719 0.0
C209 C 0.69939 0.84873 0.81591 0.0
C210 C 0.70243 0.83692 0.79121 0.0
C211 C 0.74455 0.86577 0.77836 0.0
C212 C 0.74679 0.85756 0.75442 0.0
C213 C 0.78868 0.8879 0.74196 0.0
C214 C 0.82767 0.92453 0.75287 0.0
C215 C 0.82597 0.93191 0.7763 0.0
C216 C 0.78505 0.90304 0.78898 0.0
H217 H 0.64339 0.83214 0.7126 0.0
C218 C 0.67315 0.82204 0.70468 0.0
H219 H 0.73808 0.80381 0.71045 0.0
H220 H 0.61445 0.77718 0.81015 0.0
H221 H 0.55036 0.70921 0.79138 0.0
H222 H 0.55866 0.68893 0.75086 0.0
H223 H 0.63047 0.73752 0.72872 0.0
C224 C 0.70818 0.81415 0.71802 0.0
C225 C 0.70729 0.82 0.74339 0.0
C226 C 0.66654 0.78908 0.75649 0.0
C227 C 0.66327 0.79867 0.78025 0.0
C228 C 0.62016 0.76998 0.79239 0.0
C229 C 0.58285 0.73102 0.78177 0.0
C230 C 0.5874 0.71976 0.75893 0.0
C231 C 0.62864 0.74828 0.74636 0.0
H232 H 0.18445 0.27577 0.32708 0.0
C233 C 0.19848 0.31506 0.33232 0.0
H234 H 0.22285 0.39109 0.32169 0.0
H235 H 0.22216 0.25761 0.22651 0.0
H236 H 0.28188 0.22746 0.24574 0.0
H237 H 0.3068 0.25169 0.28566 0.0
H238 H 0.27091 0.30488 0.30677 0.0
C239 C 0.20885 0.35182 0.31642 0.0
C240 C 0.19848 0.34126 0.29156 0.0
C241 C 0.22235 0.31279 0.27902 0.0
C242 C 0.2106 0.30174 0.25548 0.0
C243 C 0.23172 0.2696 0.24398 0.0
C244 C 0.26582 0.25164 0.25488 0.0
C245 C 0.27965 0.26506 0.27738 0.0
C246 C 0.25837 0.29529 0.28938 0.0
H247 H 0.23707 0.34481 0.20651 0.0
C248 C 0.19811 0.32573 0.2025 0.0
H249 H 0.1256 0.29215 0.21551 0.0
H250 H 0.14601 0.39704 0.31042 0.0
H251 H 0.09072 0.43205 0.29049 0.0
H252 H 0.0754 0.41839 0.24906 0.0
H253 H 0.11486 0.36912 0.22738 0.0
C254 C 0.16461 0.31095 0.21953 0.0
C255 C 0.17781 0.32229 0.2441 0.0
C256 C 0.15531 0.35219 0.25646 0.0
C257 C 0.16519 0.36119 0.28023 0.0
C258 C 0.14085 0.38987 0.29224 0.0
C259 C 0.10881 0.4101 0.28103 0.0
C260 C 0.1001 0.40232 0.25772 0.0
C261 C 0.12292 0.37376 0.2455 0.0
H262 H 0.81592 0.81174 0.58315 0.0
C263 C 0.78098 0.81917 0.5832 0.0
H264 H 0.72202 0.82524 0.56302 0.0
H265 H 0.88079 0.8427 0.47885 0.0
H266 H 0.92005 0.92919 0.49153 0.0
H267 H 0.89348 0.95931 0.52722 0.0
H268 H 0.82755 0.90306 0.55055 0.0
C269 C 0.75869 0.8216 0.56318 0.0
C270 C 0.7756 0.80422 0.54169 0.0
C271 C 0.81394 0.83749 0.52826 0.0
C272 C 0.82876 0.82026 0.50749 0.0
C273 C 0.86754 0.85412 0.49454 0.0
C274 C 0.89049 0.90374 0.50167 0.0
C275 C 0.87558 0.9207 0.52179 0.0
C276 C 0.83777 0.88809 0.53502 0.0
H277 H 0.78402 0.79477 0.45855 0.0
C278 C 0.80121 0.7657 0.45818 0.0
H279 H 0.8319 0.72073 0.47792 0.0
H280 H 0.70139 0.73028 0.56374 0.0
H281 H 0.66175 0.64423 0.55101 0.0
H282 H 0.68686 0.61452 0.51489 0.0
H283 H 0.75187 0.6706 0.49135 0.0
C284 C 0.81753 0.75188 0.47781 0.0
C285 C 0.80494 0.76985 0.50019 0.0
C286 C 0.76705 0.73635 0.51385 0.0
C287 C 0.75228 0.75359 0.53456 0.0
C288 C 0.71403 0.71937 0.54778 0.0
C289 C 0.6909 0.66978 0.54069 0.0
C290 C 0.70507 0.65305 0.52038 0.0
C291 C 0.74258 0.68572 0.50704 0.0
H292 H 0.3783 0.16905 0.7107 0.0
C293 C 0.34917 0.17955 0.70235 0.0
H294 H 0.28494 0.19946 0.70719 0.0
H295 H 0.2322 0.09694 0.80463 0.0
H296 H 0.16183 0.04725 0.78193 0.0
H297 H 0.16053 0.05874 0.74009 0.0
H298 H 0.22942 0.12042 0.72073 0.0
C299 C 0.31419 0.18862 0.71521 0.0
C300 C 0.31424 0.18358 0.74066 0.0
C301 C 0.27389 0.14705 0.75169 0.0
C302 C 0.27515 0.1397 0.77576 0.0
C303 C 0.23382 0.10348 0.78635 0.0
C304 C 0.19302 0.07477 0.77353 0.0
C305 C 0.19225 0.08129 0.74998 0.0
C306 C 0.23208 0.1169 0.73909 0.0
H307 H 0.32125 0.22901 0.82521 0.0
C308 C 0.31909 0.19103 0.83002 0.0
H309 H 0.31541 0.11897 0.81841 0.0
H310 H 0.39277 0.26435 0.72588 0.0
H311 H 0.46438 0.31251 0.74828 0.0
H312 H 0.47087 0.29351 0.78916 0.0
H313 H 0.40516 0.22726 0.80801 0.0
C314 C 0.31909 0.1574 0.81366 0.0
C315 C 0.31714 0.16836 0.78876 0.0
C316 C 0.3572 0.20554 0.77779 0.0
C317 C 0.35494 0.21432 0.75386 0.0
C318 C 0.39377 0.25416 0.74368 0.0
C319 C 0.43492 0.28244 0.7564 0.0
C320 C 0.43846 0.2719 0.77944 0.0
C321 C 0.40022 0.23394 0.79009 0.0
H322 H 0.77025 0.65593 0.06403 0.0
C323 C 0.7517 0.67249 0.0763 0.0
H324 H 0.69995 0.71023 0.08085 0.0
H325 H 0.75598 0.81201 0.98344 0.0
H326 H 0.79895 0.88103 1.00851 0.0
H327 H 0.80155 0.86807 0.05019 0.0
H328 H 0.76156 0.78572 0.06693 0.0
C329 C 0.71676 0.69112 0.06894 0.0
C330 C 0.71052 0.69872 0.04404 0.0
C331 C 0.7323 0.74766 0.03459 0.0
C332 C 0.72966 0.75538 1.01062 0.0
C333 C 0.75481 0.80407 1.00157 0.0
C334 C 0.78015 0.84413 1.01577 0.0
C335 C 0.78169 0.83683 0.03922 0.0
C336 C 0.75838 0.78926 0.0486 0.0
H337 H 0.65614 0.7661 0.9723 0.0
C338 C 0.67885 0.75113 0.96154 0.0
H339 H 0.72604 0.70726 0.96054 0.0
H340 H 0.6634 0.60096 0.0568 0.0
H341 H 0.62002 0.53125 0.0317 0.0
H342 H 0.61421 0.54474 0.99018 0.0
H343 H 0.65169 0.628 0.97347 0.0
C344 C 0.70264 0.72202 0.97097 0.0
C345 C 0.70353 0.71441 0.99621 0.0
C346 C 0.68145 0.66561 1.00571 0.0
C347 C 0.68493 0.65776 0.02965 0.0
C348 C 0.66225 0.60876 0.0387 0.0
C349 C 0.63714 0.56853 0.0245 0.0
C350 C 0.63385 0.57613 1.00112 0.0
C351 C 0.6556 0.62404 0.99174 0.0
H352 H 0.11666 0.11632 0.12279 0.0
C353 C 0.09066 0.13701 0.12303 0.0
H354 H 0.01479 0.13079 0.12219 0.0
H355 H 0.95953 0.90828 0.0799 0.0
H356 H 0.95412 0.95478 0.04551 0.0
H357 H 0.98029 0.04765 0.04589 0.0
H358 H 0.01205 0.09468 0.08069 0.0
C359 C 0.04176 0.11131 0.12223 0.0
C360 C 0.0235 0.05523 0.12227 0.0
C361 C 1.00432 0.02836 0.10193 0.0
C362 C 0.98882 0.97478 0.10177 0.0
C363 C 0.97096 0.94892 0.08107 0.0
C364 C 0.9679 0.97516 0.06119 0.0
C365 C 0.98268 0.02747 0.0614 0.0
C366 C 1.00081 0.05399 0.08147 0.0
H367 H 0.89875 0.88715 0.12115 0.0
C368 C 0.92471 0.8666 0.12279 0.0
H369 H 1.00027 0.8728 0.1252 0.0
H370 H 0.05451 0.09503 0.16471 0.0
H371 H 0.05992 0.04863 0.19902 0.0
H372 H 0.03471 0.95584 0.19854 0.0
H373 H 1.00372 0.9089 0.16375 0.0
C374 C 0.97366 0.89219 0.12249 0.0
C375 C 0.9921 0.94825 0.12204 0.0
C376 C 0.01125 0.97515 0.14239 0.0
C377 C 0.02644 0.02866 0.14259 0.0
C378 C 0.04362 0.05445 0.1634 0.0
C379 C 0.04663 0.02826 0.18329 0.0
C380 C 0.03238 0.97603 0.18303 0.0
C381 C 0.01472 0.94956 0.16291 0.0
H382 H 0.07501 0.40452 0.42324 0.0
C383 C 0.10698 0.43277 0.41555 0.0
H384 H 0.13594 0.50569 0.4013 0.0
H385 H 0.93536 0.52213 0.36653 0.0
H386 H 0.97525 0.51386 0.33096 0.0
H387 H 0.0524 0.49295 0.331 0.0
H388 H 0.09034 0.48077 0.36663 0.0
C389 C 0.10443 0.47795 0.40956 0.0
C390 C 0.05684 0.48846 0.41001 0.0
C391 C 0.03476 0.49478 0.38897 0.0
C392 C 0.9897 0.50565 0.38892 0.0
C393 C 0.96905 0.51282 0.36763 0.0
C394 C 0.99165 0.50835 0.34703 0.0
C395 C 0.03512 0.4967 0.34706 0.0
C396 C 0.05658 0.48995 0.36769 0.0
H397 H 0.94578 0.5913 0.42444 0.0
C398 C 0.91458 0.56337 0.41608 0.0
H399 H 0.88764 0.49184 0.40042 0.0
H400 H 0.09148 0.48285 0.45332 0.0
H401 H 0.05003 0.48819 0.48895 0.0
H402 H 0.9691 0.50165 0.48882 0.0
H403 H 0.92953 0.51071 0.45308 0.0
C404 C 0.91838 0.5192 0.40933 0.0
C405 C 0.96639 0.50953 0.40991 0.0
C406 C 0.9882 0.5028 0.43096 0.0
C407 C 0.03396 0.49309 0.43102 0.0
C408 C 0.05602 0.48866 0.45227 0.0
C409 C 0.03274 0.49189 0.47285 0.0
C410 C 0.98724 0.49962 0.47278 0.0
C411 C 0.96503 0.505 0.45214 0.0
H412 H 0.40479 0.38687 0.61984 0.0
C413 C 0.43056 0.36593 0.61933 0.0
H414 H 0.50613 0.37178 0.61677 0.0
H415 H 0.56627 0.5947 0.57554 0.0
H416 H 0.57663 0.5484 0.54197 0.0
H417 H 0.5506 0.45551 0.54258 0.0
H418 H 0.51439 0.40831 0.5768 0.0
C419 C 0.47936 0.39145 0.61756 0.0
C420 C 0.49765 0.44759 0.61752 0.0
C421 C 0.51896 0.47449 0.59745 0.0
C422 C 0.53393 0.52804 0.59708 0.0
C423 C 0.55471 0.55404 0.57677 0.0
C424 C 0.56068 0.52792 0.55737 0.0
C425 C 0.546 0.47561 0.55771 0.0
C426 C 0.52528 0.44898 0.57746 0.0
H427 H 0.61997 0.61339 0.62207 0.0
C428 C 0.59475 0.63491 0.62098 0.0
H429 H 0.51987 0.63051 0.61712 0.0
H430 H 0.4646 0.40831 0.65993 0.0
H431 H 0.45385 0.45466 0.69323 0.0
H432 H 0.4758 0.54715 0.69189 0.0
H433 H 0.50918 0.5938 0.65726 0.0
C434 C 0.54636 0.61046 0.61723 0.0
C435 C 0.52749 0.55446 0.61679 0.0
C436 C 0.50625 0.52762 0.63687 0.0
C437 C 0.49227 0.47422 0.63741 0.0
C438 C 0.47399 0.44867 0.65819 0.0
C439 C 0.46805 0.47488 0.67754 0.0
C440 C 0.48051 0.52694 0.67681 0.0
C441 C 0.49962 0.55323 0.6568 0.0
H442 H 0.58016 0.91943 0.92059 0.0
C443 C 0.61043 0.94762 0.91179 0.0
H444 H 0.63368 0.01754 0.89467 0.0
H445 H 0.42688 0.0184 0.86065 0.0
H446 H 0.46765 0.01128 0.82521 0.0
H447 H 0.54784 0.99636 0.82546 0.0
H448 H 0.58798 0.98908 0.86115 0.0
C449 C 0.60398 0.99007 0.90409 0.0
C450 C 0.55436 0.99699 0.90446 0.0
C451 C 0.53073 1.00011 0.88339 0.0
C452 C 0.48376 0.00732 0.88324 0.0
C453 C 0.46193 0.01177 0.86188 0.0
C454 C 0.48502 0.00793 0.84134 0.0
C455 C 0.53019 0.99965 0.84148 0.0
C456 C 0.55293 0.99573 0.86216 0.0
H457 H 0.4345 0.08841 0.9198 0.0
C458 C 0.40417 0.06034 0.91098 0.0
H459 H 0.38063 0.99033 0.89402 0.0
H460 H 0.59122 0.99803 0.94785 0.0
H461 H 0.5486 0.00102 0.98338 0.0
H462 H 0.46411 0.00604 0.98312 0.0
H463 H 0.42215 0.00922 0.94732 0.0
C464 C 0.41033 0.01767 0.9035 0.0
C465 C 0.45979 0.01042 0.90417 0.0
C466 C 0.48297 0.00639 0.92526 0.0
C467 C 0.53079 0.0009 0.92541 0.0
C468 C 0.55418 1.00002 0.94671 0.0
C469 C 0.53025 0.00205 0.96725 0.0
C470 C 0.48275 0.00508 0.9671 0.0
C471 C 0.4592 0.0072 0.94642 0.0
H472 H 0.92084 0.57199 0.11519 0.0
C473 C 0.94843 0.60362 0.12354 0.0
H474 H 0.01861 0.63013 0.1395 0.0
H475 H 0.0273 0.42232 0.17288 0.0
H476 H 0.02158 0.46348 0.20857 0.0
H477 H 1.00489 0.54388 0.20883 0.0
H478 H 0.99454 0.5839 0.17339 0.0
C479 C 0.99164 0.59915 0.13048 0.0
C480 C 1.00034 0.54979 0.12986 0.0
C481 C 1.00537 0.52631 0.15081 0.0
C482 C 0.01361 0.47923 0.15068 0.0
C483 C 0.01986 0.45747 0.17189 0.0
C484 C 0.01683 0.48077 0.19256 0.0
C485 C 1.00756 0.52608 0.19271 0.0
C486 C 1.00185 0.54873 0.17217 0.0
H487 H 0.09345 0.43178 0.11336 0.0
C488 C 0.06649 0.40047 0.12221 0.0
H489 H 0.99795 0.3749 0.13954 0.0
H490 H 0.99786 0.58675 0.08663 0.0
H491 H 0.99994 0.54383 0.05089 0.0
H492 H 1.0072 0.45899 0.05075 0.0
H493 H 0.01347 0.41702 0.08635 0.0
C494 C 0.02416 0.40549 0.12998 0.0
C495 C 0.01591 0.45507 0.12961 0.0
C496 C 0.01022 0.47819 0.10867 0.0
C497 C 1.0036 0.52613 0.10877 0.0
C498 C 1.00088 0.54955 0.08758 0.0
C499 C 1.00235 0.52546 0.06693 0.0
C500 C 1.00663 0.47777 0.06685 0.0
C501 C 0.0105 0.45422 0.08741 0.0
H502 H 0.37853 0.47873 0.41992 0.0
C503 C 0.37059 0.43855 0.41734 0.0
H504 H 0.40109 0.38024 0.41373 0.0
H505 H 0.60071 0.53638 0.37471 0.0
H506 H 0.56419 0.49105 0.34028 0.0
H507 H 0.47979 0.42821 0.3408 0.0
H508 H 0.43139 0.41053 0.37575 0.0
C509 C 0.40805 0.41994 0.41716 0.0
C510 C 0.46027 0.45445 0.41767 0.0
C511 C 0.48838 0.46344 0.39718 0.0
C512 C 0.53715 0.4992 0.39693 0.0
C513 C 0.56383 0.50884 0.37603 0.0
C514 C 0.54321 0.48326 0.35607 0.0
C515 C 0.49569 0.44793 0.35636 0.0
C516 C 0.46835 0.43811 0.37658 0.0
H517 H 0.64239 0.50568 0.41761 0.0
C518 C 0.64834 0.54584 0.41652 0.0
H519 H 0.61397 0.60175 0.41619 0.0
H520 H 0.41761 0.44279 0.46015 0.0
H521 H 0.45463 0.48741 0.49481 0.0
H522 H 0.53927 0.54991 0.49433 0.0
H523 H 0.58746 0.56814 0.45917 0.0
C524 C 0.60917 0.56184 0.41704 0.0
C525 C 0.55798 0.52506 0.41731 0.0
C526 C 0.53018 0.51557 0.43787 0.0
C527 C 0.48125 0.47995 0.43809 0.0
C528 C 0.4546 0.4702 0.45896 0.0
C529 C 0.47551 0.49536 0.47898 0.0
C530 C 0.52319 0.53052 0.47872 0.0
C531 C 0.55042 0.54065 0.45845 0.0
H532 H 0.42362 0.07029 0.60284 0.0
C533 C 0.45241 0.1018 0.61062 0.0
H534 H 0.52417 0.12756 0.62505 0.0
H535 H 0.52754 0.91915 0.66005 0.0
H536 H 0.51963 0.96028 0.69546 0.0
H537 H 0.50348 0.04095 0.69511 0.0
H538 H 0.49552 0.08113 0.65935 0.0
C539 C 0.49608 0.09679 0.61644 0.0
C540 C 0.50354 0.04685 0.61609 0.0
C541 C 0.50742 0.02339 0.6372 0.0
C542 C 0.51567 0.97633 0.63741 0.0
C543 C 0.52035 0.9544 0.6588 0.0
C544 C 0.51605 0.97768 0.67931 0.0
C545 C 0.50706 0.02313 0.67911 0.0
C546 C 0.50274 0.04587 0.6584 0.0
H547 H 0.6001 0.92968 0.60392 0.0
C548 C 0.57146 0.89807 0.61173 0.0
H549 H 0.49956 0.87186 0.62593 0.0
H550 H 0.50091 0.0827 0.57273 0.0
H551 H 0.50621 0.04022 0.5372 0.0
H552 H 0.51636 0.95662 0.53757 0.0
H553 H 0.52195 0.91523 0.57347 0.0
C554 C 0.52752 0.90266 0.61727 0.0
C555 C 0.51959 0.95236 0.61651 0.0
C556 C 0.51519 0.97549 0.59539 0.0
C557 C 0.50776 0.02309 0.59518 0.0
C558 C 0.50523 0.04607 0.57387 0.0
C559 C 0.50842 0.02218 0.55336 0.0
C560 C 0.51426 0.97515 0.55356 0.0
C561 C 0.51761 0.95189 0.57428 0.0
H562 H 0.89156 0.90601 0.92198 0.0
C563 C 0.87292 0.93147 0.91578 0.0
H564 H 0.88307 0.00386 0.90233 0.0
H565 H 0.10004 0.02892 0.95301 0.0
H566 H 0.05549 0.02477 0.98873 0.0
H567 H 0.96494 0.00731 0.98884 0.0
H568 H 0.9183 0.99365 0.95322 0.0
C569 C 0.90037 0.97874 0.91003 0.0
C570 C 0.95555 0.99404 0.9101 0.0
C571 C 0.98234 0.00281 0.93102 0.0
C572 C 0.03474 0.01404 0.93092 0.0
C573 C 0.0604 0.02142 0.95209 0.0
C574 C 0.03525 0.0189 0.97271 0.0
C575 C 0.98424 0.00896 0.97277 0.0
C576 C 0.9579 0.00099 0.95223 0.0
H577 H 0.1245 0.10762 0.91791 0.0
C578 C 0.14303 0.08112 0.91311 0.0
H579 H 0.13267 0.00622 0.9032 0.0
H580 H 0.91541 0.97925 0.86699 0.0
H581 H 0.96007 0.98457 0.8313 0.0
H582 H 0.05103 0.00515 0.83109 0.0
H583 H 0.09785 0.02025 0.86658 0.0
C584 C 0.11552 0.03281 0.90939 0.0
C585 C 0.06032 0.01728 0.90988 0.0
C586 C 0.0335 0.00849 0.88897 0.0
C587 C 0.98111 0.99706 0.88908 0.0
C588 C 0.95527 0.98835 0.86792 0.0
C589 C 0.98044 0.99128 0.84729 0.0
C590 C 0.03164 0.00283 0.84718 0.0
C591 C 0.05806 0.01141 0.8677 0.0
loop_
_geom_bond_atom_site_label_1
_geom_bond_atom_site_label_2
_geom_bond_distance
_geom_bond_site_symmetry_2
_ccdc_geom_bond_type
O0 Cd1 2.223 . S
O0 C8 1.315 . S
Cd1 O0 2.223 . S
Cd1 O4 2.297 . S
Cd1 O5 2.439 . S
Cd1 O11 2.240 . S
Cd2 O3 2.240 . S
Cd2 O10 2.223 . S
Cd2 O12 2.297 . S
Cd2 O13 2.439 . S
O3 Cd2 2.240 . S
O3 C8 1.279 . S
O4 Cd1 2.297 . S
O4 C6 1.247 . S
O5 Cd1 2.439 . S
O5 C6 1.208 . S
C6 O4 1.247 . S
C6 O5 1.208 . S
C7 O12 1.247 . S
C7 O13 1.208 . S
C8 O0 1.315 . S
C8 O3 1.279 . S
C9 O10 1.315 . S
C9 O11 1.279 . S
O10 Cd2 2.223 . S
O10 C9 1.315 . S
O11 Cd1 2.240 . S
O11 C9 1.279 . S
O12 Cd2 2.297 . S
O12 C7 1.247 . S
O13 Cd2 2.439 . S
O13 C7 1.208 . S
O14 Cd15 2.223 . S
O14 C22 1.315 . S
Cd15 O14 2.223 . S
Cd15 O18 2.297 . S
Cd15 O19 2.439 . S
Cd15 O25 2.240 . S
Cd16 O17 2.240 . S
Cd16 O24 2.223 . S
Cd16 O26 2.297 . S
Cd16 O27 2.439 . S
O17 Cd16 2.240 . S
O17 C22 1.279 . S
O18 Cd15 2.297 . S
O18 C20 1.247 . S
O19 Cd15 2.439 . S
O19 C20 1.208 . S
C20 O18 1.247 . S
C20 O19 1.208 . S
C21 O26 1.247 . S
C21 O27 1.208 . S
C22 O14 1.315 . S
C22 O17 1.279 . S
C23 O24 1.315 . S
C23 O25 1.279 . S
O24 Cd16 2.223 . S
O24 C23 1.315 . S
O25 Cd15 2.240 . S
O25 C23 1.279 . S
O26 Cd16 2.297 . S
O26 C21 1.247 . S
O27 Cd16 2.439 . S
O27 C21 1.208 . S
O28 Cd29 2.223 . S
O28 C36 1.315 . S
Cd29 O28 2.223 . S
Cd29 O32 2.297 . S
Cd29 O33 2.439 . S
Cd29 O39 2.240 . S
Cd30 O31 2.240 . S
Cd30 O38 2.223 . S
Cd30 O40 2.297 . S
Cd30 O41 2.439 . S
O31 Cd30 2.240 . S
O31 C36 1.279 . S
O32 Cd29 2.297 . S
O32 C34 1.247 . S
O33 Cd29 2.439 . S
O33 C34 1.208 . S
C34 O32 1.247 . S
C34 O33 1.208 . S
C35 O40 1.247 . S
C35 O41 1.208 . S
C36 O28 1.315 . S
C36 O31 1.279 . S
C37 O38 1.315 . S
C37 O39 1.279 . S
O38 Cd30 2.223 . S
O38 C37 1.315 . S
O39 Cd29 2.240 . S
O39 C37 1.279 . S
O40 Cd30 2.297 . S
O40 C35 1.247 . S
O41 Cd30 2.439 . S
O41 C35 1.208 . S
O42 Cd43 2.223 . S
O42 C50 1.315 . S
Cd43 O42 2.223 . S
Cd43 O46 2.297 . S
Cd43 O47 2.439 . S
Cd43 O53 2.240 . S
Cd44 O45 2.240 . S
Cd44 O52 2.223 . S
Cd44 O54 2.297 . S
Cd44 O55 2.439 . S
O45 Cd44 2.240 . S
O45 C50 1.279 . S
O46 Cd43 2.297 . S
O46 C48 1.247 . S
O47 Cd43 2.439 . S
O47 C48 1.208 . S
C48 O46 1.247 . S
C48 O47 1.208 . S
C49 O54 1.247 . S
C49 O55 1.208 . S
C50 O42 1.315 . S
C50 O45 1.279 . S
C51 O52 1.315 . S
C51 O53 1.279 . S
O52 Cd44 2.223 . S
O52 C51 1.315 . S
O53 Cd43 2.240 . S
O53 C51 1.279 . S
O54 Cd44 2.297 . S
O54 C49 1.247 . S
O55 Cd44 2.439 . S
O55 C49 1.208 . S
O56 Cd57 2.223 . S
O56 C64 1.315 . S
Cd57 O56 2.223 . S
Cd57 O60 2.297 . S
Cd57 O61 2.439 . S
Cd57 O67 2.240 . S
Cd58 O59 2.240 . S
Cd58 O66 2.223 . S
Cd58 O68 2.297 . S
Cd58 O69 2.439 . S
O59 Cd58 2.240 . S
O59 C64 1.279 . S
O60 Cd57 2.297 . S
O60 C62 1.247 . S
O61 Cd57 2.439 . S
O61 C62 1.208 . S
C62 O60 1.247 . S
C62 O61 1.208 . S
C63 O68 1.247 . S
C63 O69 1.208 . S
C64 O56 1.315 . S
C64 O59 1.279 . S
C65 O66 1.315 . S
C65 O67 1.279 . S
O66 Cd58 2.223 . S
O66 C65 1.315 . S
O67 Cd57 2.240 . S
O67 C65 1.279 . S
O68 Cd58 2.297 . S
O68 C63 1.247 . S
O69 Cd58 2.439 . S
O69 C63 1.208 . S
O70 Cd71 2.223 . S
O70 C78 1.315 . S
Cd71 O70 2.223 . S
Cd71 O74 2.297 . S
Cd71 O75 2.439 . S
Cd71 O81 2.240 . S
Cd72 O73 2.240 . S
Cd72 O80 2.223 . S
Cd72 O82 2.297 . S
Cd72 O83 2.439 . S
O73 Cd72 2.240 . S
O73 C78 1.279 . S
O74 Cd71 2.297 . S
O74 C76 1.247 . S
O75 Cd71 2.439 . S
O75 C76 1.208 . S
C76 O74 1.247 . S
C76 O75 1.208 . S
C77 O82 1.247 . S
C77 O83 1.208 . S
C78 O70 1.315 . S
C78 O73 1.279 . S
C79 O80 1.315 . S
C79 O81 1.279 . S
O80 Cd72 2.223 . S
O80 C79 1.315 . S
O81 Cd71 2.240 . S
O81 C79 1.279 . S
O82 Cd72 2.297 . S
O82 C77 1.247 . S
O83 Cd72 2.439 . S
O83 C77 1.208 . S
O84 Cd85 2.223 . S
O84 C92 1.315 . S
Cd85 O84 2.223 . S
Cd85 O88 2.297 . S
Cd85 O89 2.439 . S
Cd85 O95 2.240 . S
Cd86 O87 2.240 . S
Cd86 O94 2.223 . S
Cd86 O96 2.297 . S
Cd86 O97 2.439 . S
O87 Cd86 2.240 . S
O87 C92 1.279 . S
O88 Cd85 2.297 . S
O88 C90 1.247 . S
O89 Cd85 2.439 . S
O89 C90 1.208 . S
C90 O88 1.247 . S
C90 O89 1.208 . S
C91 O96 1.247 . S
C91 O97 1.208 . S
C92 O84 1.315 . S
C92 O87 1.279 . S
C93 O94 1.315 . S
C93 O95 1.279 . S
O94 Cd86 2.223 . S
O94 C93 1.315 . S
O95 Cd85 2.240 . S
O95 C93 1.279 . S
O96 Cd86 2.297 . S
O96 C91 1.247 . S
O97 Cd86 2.439 . S
O97 C91 1.208 . S
O98 Cd99 2.223 . S
O98 C106 1.315 . S
Cd99 O98 2.223 . S
Cd99 O102 2.297 . S
Cd99 O103 2.439 . S
Cd99 O109 2.240 . S
Cd100 O101 2.240 . S
Cd100 O108 2.223 . S
Cd100 O110 2.297 . S
Cd100 O111 2.439 . S
O101 Cd100 2.240 . S
O101 C106 1.279 . S
O102 Cd99 2.297 . S
O102 C104 1.247 . S
O103 Cd99 2.439 . S
O103 C104 1.208 . S
C104 O102 1.247 . S
C104 O103 1.208 . S
C105 O110 1.247 . S
C105 O111 1.208 . S
C106 O98 1.315 . S
C106 O101 1.279 . S
C107 O108 1.315 . S
C107 O109 1.279 . S
O108 Cd100 2.223 . S
O108 C107 1.315 . S
O109 Cd99 2.240 . S
O109 C107 1.279 . S
O110 Cd100 2.297 . S
O110 C105 1.247 . S
O111 Cd100 2.439 . S
O111 C105 1.208 . S
H112 C113 0.951 . S
C113 H112 0.951 . S
C113 C119 1.265 . S
H114 C119 0.950 . S
H115 C123 0.949 . S
H116 C124 0.950 . S
H117 C125 0.951 . S
H118 C126 0.951 . S
C119 C113 1.265 . S
C119 H114 0.950 . S
C119 C120 1.478 . S
C120 C119 1.478 . S
C120 C121 1.397 . S
C120 C137 1.394 . S
C121 C120 1.397 . S
C121 C122 1.438 1_554 S
C121 C126 1.429 . S
C122 C121 1.438 1_556 S
C122 C123 1.428 . S
C122 C135 1.394 . S
C123 H115 0.949 . S
C123 C122 1.428 . S
C123 C124 1.345 . S
C124 H116 0.950 . S
C124 C123 1.345 . S
C124 C125 1.424 1_556 S
C125 H117 0.951 . S
C125 C124 1.424 1_554 S
C125 C126 1.347 . S
C126 H118 0.951 . S
C126 C121 1.429 . S
C126 C125 1.347 . S
H127 C128 0.951 . S
C128 H127 0.951 . S
C128 C134 1.265 . S
H129 C134 0.950 . S
H130 C138 0.949 . S
H131 C139 0.950 . S
H132 C140 0.951 . S
H133 C141 0.951 . S
C134 C128 1.265 . S
C134 H129 0.950 . S
C134 C135 1.478 . S
C135 C122 1.394 . S
C135 C134 1.478 . S
C135 C136 1.397 . S
C136 C135 1.397 . S
C136 C137 1.438 1_556 S
C136 C141 1.429 . S
C137 C120 1.394 . S
C137 C136 1.438 1_554 S
C137 C138 1.428 . S
C138 H130 0.949 . S
C138 C137 1.428 . S
C138 C139 1.345 . S
C139 H131 0.950 . S
C139 C138 1.345 . S
C139 C140 1.424 1_554 S
C140 H132 0.951 . S
C140 C139 1.424 1_556 S
C140 C141 1.347 . S
C141 H133 0.951 . S
C141 C136 1.429 . S
C141 C140 1.347 . S
H142 C143 0.951 . S
C143 H142 0.951 . S
C143 C149 1.265 . S
H144 C149 0.950 . S
H145 C153 0.949 . S
H146 C154 0.950 . S
H147 C155 0.951 . S
H148 C156 0.951 . S
C149 C143 1.265 . S
C149 H144 0.950 . S
C149 C150 1.478 . S
C150 C149 1.478 . S
C150 C151 1.397 . S
C150 C167 1.394 . S
C151 C150 1.397 . S
C151 C152 1.438 . S
C151 C156 1.429 . S
C152 C151 1.438 . S
C152 C153 1.428 . S
C152 C165 1.394 . S
C153 H145 0.949 . S
C153 C152 1.428 . S
C153 C154 1.345 . S
C154 H146 0.950 . S
C154 C153 1.345 . S
C154 C155 1.424 . S
C155 H147 0.951 . S
C155 C154 1.424 . S
C155 C156 1.347 . S
C156 H148 0.951 . S
C156 C151 1.429 . S
C156 C155 1.347 . S
H157 C158 0.951 . S
C158 H157 0.951 . S
C158 C164 1.265 . S
H159 C164 0.950 . S
H160 C168 0.949 . S
H161 C169 0.950 . S
H162 C170 0.951 . S
H163 C171 0.951 . S
C164 C158 1.265 . S
C164 H159 0.950 . S
C164 C165 1.478 . S
C165 C152 1.394 . S
C165 C164 1.478 . S
C165 C166 1.397 . S
C166 C165 1.397 . S
C166 C167 1.438 . S
C166 C171 1.429 . S
C167 C150 1.394 . S
C167 C166 1.438 . S
C167 C168 1.428 . S
C168 H160 0.949 . S
C168 C167 1.428 . S
C168 C169 1.345 . S
C169 H161 0.950 . S
C169 C168 1.345 . S
C169 C170 1.424 . S
C170 H162 0.951 . S
C170 C169 1.424 . S
C170 C171 1.347 . S
C171 H163 0.951 . S
C171 C166 1.429 . S
C171 C170 1.347 . S
H172 C173 0.951 . S
C173 H172 0.951 . S
C173 C179 1.265 . S
H174 C179 0.950 . S
H175 C183 0.949 . S
H176 C184 0.950 . S
H177 C185 0.951 . S
H178 C186 0.951 . S
C179 C173 1.265 . S
C179 H174 0.950 . S
C179 C180 1.478 . S
C180 C179 1.478 . S
C180 C181 1.397 . S
C180 C197 1.394 . S
C181 C180 1.397 . S
C181 C182 1.438 . S
C181 C186 1.429 . S
C182 C181 1.438 . S
C182 C183 1.428 . S
C182 C195 1.394 . S
C183 H175 0.949 . S
C183 C182 1.428 . S
C183 C184 1.345 . S
C184 H176 0.950 . S
C184 C183 1.345 . S
C184 C185 1.424 . S
C185 H177 0.951 . S
C185 C184 1.424 . S
C185 C186 1.347 . S
C186 H178 0.951 . S
C186 C181 1.429 . S
C186 C185 1.347 . S
H187 C188 0.951 . S
C188 H187 0.951 . S
C188 C194 1.265 . S
H189 C194 0.950 . S
H190 C198 0.949 . S
H191 C199 0.950 . S
H192 C200 0.951 . S
H193 C201 0.951 . S
C194 C188 1.265 . S
C194 H189 0.950 . S
C194 C195 1.478 . S
C195 C182 1.394 . S
C195 C194 1.478 . S
C195 C196 1.397 . S
C196 C195 1.397 . S
C196 C197 1.438 . S
C196 C201 1.429 . S
C197 C180 1.394 . S
C197 C196 1.438 . S
C197 C198 1.428 . S
C198 H190 0.949 . S
C198 C197 1.428 . S
C198 C199 1.345 . S
C199 H191 0.950 . S
C199 C198 1.345 . S
C199 C200 1.424 . S
C200 H192 0.951 . S
C200 C199 1.424 . S
C200 C201 1.347 . S
C201 H193 0.951 . S
C201 C196 1.429 . S
C201 C200 1.347 . S
H202 C203 0.951 . S
C203 H202 0.951 . S
C203 C209 1.265 . S
H204 C209 0.950 . S
H205 C213 0.949 . S
H206 C214 0.950 . S
H207 C215 0.951 . S
H208 C216 0.951 . S
C209 C203 1.265 . S
C209 H204 0.950 . S
C209 C210 1.478 . S
C210 C209 1.478 . S
C210 C211 1.397 . S
C210 C227 1.394 . S
C211 C210 1.397 . S
C211 C212 1.438 . S
C211 C216 1.429 . S
C212 C211 1.438 . S
C212 C213 1.428 . S
C212 C225 1.394 . S
C213 H205 0.949 . S
C213 C212 1.428 . S
C213 C214 1.345 . S
C214 H206 0.950 . S
C214 C213 1.345 . S
C214 C215 1.424 . S
C215 H207 0.951 . S
C215 C214 1.424 . S
C215 C216 1.347 . S
C216 H208 0.951 . S
C216 C211 1.429 . S
C216 C215 1.347 . S
H217 C218 0.951 . S
C218 H217 0.951 . S
C218 C224 1.265 . S
H219 C224 0.950 . S
H220 C228 0.949 . S
H221 C229 0.950 . S
H222 C230 0.951 . S
H223 C231 0.951 . S
C224 C218 1.265 . S
C224 H219 0.950 . S
C224 C225 1.478 . S
C225 C212 1.394 . S
C225 C224 1.478 . S
C225 C226 1.397 . S
C226 C225 1.397 . S
C226 C227 1.438 . S
C226 C231 1.429 . S
C227 C210 1.394 . S
C227 C226 1.438 . S
C227 C228 1.428 . S
C228 H220 0.949 . S
C228 C227 1.428 . S
C228 C229 1.345 . S
C229 H221 0.950 . S
C229 C228 1.345 . S
C229 C230 1.424 . S
C230 H222 0.951 . S
C230 C229 1.424 . S
C230 C231 1.347 . S
C231 H223 0.951 . S
C231 C226 1.429 . S
C231 C230 1.347 . S
H232 C233 0.951 . S
C233 H232 0.951 . S
C233 C239 1.265 . S
H234 C239 0.950 . S
H235 C243 0.949 . S
H236 C244 0.950 . S
H237 C245 0.951 . S
H238 C246 0.951 . S
C239 C233 1.265 . S
C239 H234 0.950 . S
C239 C240 1.478 . S
C240 C239 1.478 . S
C240 C241 1.397 . S
C240 C257 1.394 . S
C241 C240 1.397 . S
C241 C242 1.438 . S
C241 C246 1.429 . S
C242 C241 1.438 . S
C242 C243 1.428 . S
C242 C255 1.394 . S
C243 H235 0.949 . S
C243 C242 1.428 . S
C243 C244 1.345 . S
C244 H236 0.950 . S
C244 C243 1.345 . S
C244 C245 1.424 . S
C245 H237 0.951 . S
C245 C244 1.424 . S
C245 C246 1.347 . S
C246 H238 0.951 . S
C246 C241 1.429 . S
C246 C245 1.347 . S
H247 C248 0.951 . S
C248 H247 0.951 . S
C248 C254 1.265 . S
H249 C254 0.950 . S
H250 C258 0.949 . S
H251 C259 0.950 . S
H252 C260 0.951 . S
H253 C261 0.951 . S
C254 C248 1.265 . S
C254 H249 0.950 . S
C254 C255 1.478 . S
C255 C242 1.394 . S
C255 C254 1.478 . S
C255 C256 1.397 . S
C256 C255 1.397 . S
C256 C257 1.438 . S
C256 C261 1.429 . S
C257 C240 1.394 . S
C257 C256 1.438 . S
C257 C258 1.428 . S
C258 H250 0.949 . S
C258 C257 1.428 . S
C258 C259 1.345 . S
C259 H251 0.950 . S
C259 C258 1.345 . S
C259 C260 1.424 . S
C260 H252 0.951 . S
C260 C259 1.424 . S
C260 C261 1.347 . S
C261 H253 0.951 . S
C261 C256 1.429 . S
C261 C260 1.347 . S
H262 C263 0.951 . S
C263 H262 0.951 . S
C263 C269 1.265 . S
H264 C269 0.950 . S
H265 C273 0.949 . S
H266 C274 0.950 . S
H267 C275 0.951 . S
H268 C276 0.951 . S
C269 C263 1.265 . S
C269 H264 0.950 . S
C269 C270 1.478 . S
C270 C269 1.478 . S
C270 C271 1.397 . S
C270 C287 1.394 . S
C271 C270 1.397 . S
C271 C272 1.438 . S
C271 C276 1.429 . S
C272 C271 1.438 . S
C272 C273 1.428 . S
C272 C285 1.394 . S
C273 H265 0.949 . S
C273 C272 1.428 . S
C273 C274 1.345 . S
C274 H266 0.950 . S
C274 C273 1.345 . S
C274 C275 1.424 . S
C275 H267 0.951 . S
C275 C274 1.424 . S
C275 C276 1.347 . S
C276 H268 0.951 . S
C276 C271 1.429 . S
C276 C275 1.347 . S
H277 C278 0.951 . S
C278 H277 0.951 . S
C278 C284 1.265 . S
H279 C284 0.950 . S
H280 C288 0.949 . S
H281 C289 0.950 . S
H282 C290 0.951 . S
H283 C291 0.951 . S
C284 C278 1.265 . S
C284 H279 0.950 . S
C284 C285 1.478 . S
C285 C272 1.394 . S
C285 C284 1.478 . S
C285 C286 1.397 . S
C286 C285 1.397 . S
C286 C287 1.438 . S
C286 C291 1.429 . S
C287 C270 1.394 . S
C287 C286 1.438 . S
C287 C288 1.428 . S
C288 H280 0.949 . S
C288 C287 1.428 . S
C288 C289 1.345 . S
C289 H281 0.950 . S
C289 C288 1.345 . S
C289 C290 1.424 . S
C290 H282 0.951 . S
C290 C289 1.424 . S
C290 C291 1.347 . S
C291 H283 0.951 . S
C291 C286 1.429 . S
C291 C290 1.347 . S
H292 C293 0.951 . S
C293 H292 0.951 . S
C293 C299 1.265 . S
H294 C299 0.950 . S
H295 C303 0.949 . S
H296 C304 0.950 . S
H297 C305 0.951 . S
H298 C306 0.951 . S
C299 C293 1.265 . S
C299 H294 0.950 . S
C299 C300 1.478 . S
C300 C299 1.478 . S
C300 C301 1.397 . S
C300 C317 1.394 . S
C301 C300 1.397 . S
C301 C302 1.438 . S
C301 C306 1.429 . S
C302 C301 1.438 . S
C302 C303 1.428 . S
C302 C315 1.394 . S
C303 H295 0.949 . S
C303 C302 1.428 . S
C303 C304 1.345 . S
C304 H296 0.950 . S
C304 C303 1.345 . S
C304 C305 1.424 . S
C305 H297 0.951 . S
C305 C304 1.424 . S
C305 C306 1.347 . S
C306 H298 0.951 . S
C306 C301 1.429 . S
C306 C305 1.347 . S
H307 C308 0.951 . S
C308 H307 0.951 . S
C308 C314 1.265 . S
H309 C314 0.950 . S
H310 C318 0.949 . S
H311 C319 0.950 . S
H312 C320 0.951 . S
H313 C321 0.951 . S
C314 C308 1.265 . S
C314 H309 0.950 . S
C314 C315 1.478 . S
C315 C302 1.394 . S
C315 C314 1.478 . S
C315 C316 1.397 . S
C316 C315 1.397 . S
C316 C317 1.438 . S
C316 C321 1.429 . S
C317 C300 1.394 . S
C317 C316 1.438 . S
C317 C318 1.428 . S
C318 H310 0.949 . S
C318 C317 1.428 . S
C318 C319 1.345 . S
C319 H311 0.950 . S
C319 C318 1.345 . S
C319 C320 1.424 . S
C320 H312 0.951 . S
C320 C319 1.424 . S
C320 C321 1.347 . S
C321 H313 0.951 . S
C321 C316 1.429 . S
C321 C320 1.347 . S
H322 C323 0.951 . S
C323 H322 0.951 . S
C323 C329 1.265 . S
H324 C329 0.950 . S
H325 C333 0.949 . S
H326 C334 0.960 . S
H327 C335 0.951 . S
H328 C336 0.951 . S
C329 C323 1.265 . S
C329 H324 0.950 . S
C329 C330 1.478 . S
C330 C329 1.478 . S
C330 C331 1.397 . S
C330 C347 1.394 . S
C331 C330 1.397 . S
C331 C332 1.438 1_554 S
C331 C336 1.429 . S
C332 C331 1.438 1_556 S
C332 C333 1.428 . S
C332 C345 1.394 . S
C333 H325 0.949 . S
C333 C332 1.428 . S
C333 C334 1.345 1_556 S
C334 H326 0.960 . S
C334 C333 1.345 1_554 S
C334 C335 1.424 . S
C335 H327 0.951 . S
C335 C334 1.424 . S
C335 C336 1.347 . S
C336 H328 0.951 . S
C336 C331 1.429 . S
C336 C335 1.347 . S
H337 C338 0.951 . S
C338 H337 0.951 . S
C338 C344 1.265 . S
H339 C344 0.950 . S
H340 C348 0.949 . S
H341 C349 0.960 . S
H342 C350 0.951 . S
H343 C351 0.951 . S
C344 C338 1.265 . S
C344 H339 0.950 . S
C344 C345 1.478 . S
C345 C332 1.394 . S
C345 C344 1.478 . S
C345 C346 1.397 . S
C346 C345 1.397 . S
C346 C347 1.438 1_556 S
C346 C351 1.429 . S
C347 C330 1.394 . S
C347 C346 1.438 1_554 S
C347 C348 1.428 . S
C348 H340 0.949 . S
C348 C347 1.428 . S
C348 C349 1.345 1_554 S
C349 H341 0.960 . S
C349 C348 1.345 1_556 S
C349 C350 1.424 . S
C350 H342 0.951 . S
C350 C349 1.424 . S
C350 C351 1.347 . S
C351 H343 0.951 . S
C351 C346 1.429 . S
C351 C350 1.347 . S
H352 C353 0.951 . S
C353 H352 0.951 . S
C353 C359 1.265 . S
H354 C359 0.950 . S
H355 C363 0.949 . S
H356 C364 0.950 . S
H357 C365 0.951 . S
H358 C366 0.952 . S
C359 C353 1.265 . S
C359 H354 0.950 . S
C359 C360 1.478 . S
C360 C359 1.478 . S
C360 C361 1.397 1_455 S
C360 C377 1.394 . S
C361 C360 1.397 1_655 S
C361 C362 1.438 1_545 S
C361 C366 1.429 . S
C362 C361 1.438 1_565 S
C362 C363 1.428 . S
C362 C375 1.394 . S
C363 H355 0.949 . S
C363 C362 1.428 . S
C363 C364 1.345 . S
C364 H356 0.950 . S
C364 C363 1.345 . S
C364 C365 1.424 1_565 S
C365 H357 0.951 . S
C365 C364 1.424 1_545 S
C365 C366 1.347 . S
C366 H358 0.952 . S
C366 C361 1.429 . S
C366 C365 1.347 . S
H367 C368 0.951 . S
C368 H367 0.951 . S
C368 C374 1.265 . S
H369 C374 0.950 . S
H370 C378 0.949 . S
H371 C379 0.950 . S
H372 C380 0.951 . S
H373 C381 0.952 . S
C374 C368 1.265 . S
C374 H369 0.950 . S
C374 C375 1.478 . S
C375 C362 1.394 . S
C375 C374 1.478 . S
C375 C376 1.397 1_655 S
C376 C375 1.397 1_455 S
C376 C377 1.438 1_565 S
C376 C381 1.429 . S
C377 C360 1.394 . S
C377 C376 1.438 1_545 S
C377 C378 1.428 . S
C378 H370 0.949 . S
C378 C377 1.428 . S
C378 C379 1.345 . S
C379 H371 0.950 . S
C379 C378 1.345 . S
C379 C380 1.424 1_545 S
C380 H372 0.951 . S
C380 C379 1.424 1_565 S
C380 C381 1.347 . S
C381 H373 0.952 . S
C381 C376 1.429 . S
C381 C380 1.347 . S
H382 C383 0.951 . S
C383 H382 0.951 . S
C383 C389 1.265 . S
H384 C389 0.950 . S
H385 C393 0.949 . S
H386 C394 0.950 . S
H387 C395 0.951 . S
H388 C396 0.951 . S
C389 C383 1.265 . S
C389 H384 0.950 . S
C389 C390 1.478 . S
C390 C389 1.478 . S
C390 C391 1.397 . S
C390 C407 1.394 . S
C391 C390 1.397 . S
C391 C392 1.438 1_455 S
C391 C396 1.429 . S
C392 C391 1.438 1_655 S
C392 C393 1.428 . S
C392 C405 1.394 . S
C393 H385 0.949 . S
C393 C392 1.428 . S
C393 C394 1.345 . S
C394 H386 0.950 . S
C394 C393 1.345 . S
C394 C395 1.424 1_655 S
C395 H387 0.951 . S
C395 C394 1.424 1_455 S
C395 C396 1.347 . S
C396 H388 0.951 . S
C396 C391 1.429 . S
C396 C395 1.347 . S
H397 C398 0.951 . S
C398 H397 0.951 . S
C398 C404 1.265 . S
H399 C404 0.950 . S
H400 C408 0.949 . S
H401 C409 0.950 . S
H402 C410 0.951 . S
H403 C411 0.951 . S
C404 C398 1.265 . S
C404 H399 0.950 . S
C404 C405 1.478 . S
C405 C392 1.394 . S
C405 C404 1.478 . S
C405 C406 1.397 . S
C406 C405 1.397 . S
C406 C407 1.438 1_655 S
C406 C411 1.429 . S
C407 C390 1.394 . S
C407 C406 1.438 1_455 S
C407 C408 1.428 . S
C408 H400 0.949 . S
C408 C407 1.428 . S
C408 C409 1.345 . S
C409 H401 0.950 . S
C409 C408 1.345 . S
C409 C410 1.424 1_455 S
C410 H402 0.951 . S
C410 C409 1.424 1_655 S
C410 C411 1.347 . S
C411 H403 0.951 . S
C411 C406 1.429 . S
C411 C410 1.347 . S
H412 C413 0.951 . S
C413 H412 0.951 . S
C413 C419 1.265 . S
H414 C419 0.950 . S
H415 C423 0.949 . S
H416 C424 0.950 . S
H417 C425 0.951 . S
H418 C426 0.951 . S
C419 C413 1.265 . S
C419 H414 0.950 . S
C419 C420 1.478 . S
C420 C419 1.478 . S
C420 C421 1.397 . S
C420 C437 1.394 . S
C421 C420 1.397 . S
C421 C422 1.438 . S
C421 C426 1.429 . S
C422 C421 1.438 . S
C422 C423 1.428 . S
C422 C435 1.394 . S
C423 H415 0.949 . S
C423 C422 1.428 . S
C423 C424 1.345 . S
C424 H416 0.950 . S
C424 C423 1.345 . S
C424 C425 1.424 . S
C425 H417 0.951 . S
C425 C424 1.424 . S
C425 C426 1.347 . S
C426 H418 0.951 . S
C426 C421 1.429 . S
C426 C425 1.347 . S
H427 C428 0.951 . S
C428 H427 0.951 . S
C428 C434 1.265 . S
H429 C434 0.950 . S
H430 C438 0.949 . S
H431 C439 0.950 . S
H432 C440 0.951 . S
H433 C441 0.951 . S
C434 C428 1.265 . S
C434 H429 0.950 . S
C434 C435 1.478 . S
C435 C422 1.394 . S
C435 C434 1.478 . S
C435 C436 1.397 . S
C436 C435 1.397 . S
C436 C437 1.438 . S
C436 C441 1.429 . S
C437 C420 1.394 . S
C437 C436 1.438 . S
C437 C438 1.428 . S
C438 H430 0.949 . S
C438 C437 1.428 . S
C438 C439 1.345 . S
C439 H431 0.950 . S
C439 C438 1.345 . S
C439 C440 1.424 . S
C440 H432 0.951 . S
C440 C439 1.424 . S
C440 C441 1.347 . S
C441 H433 0.951 . S
C441 C436 1.429 . S
C441 C440 1.347 . S
H442 C443 0.951 . S
C443 H442 0.951 . S
C443 C449 1.265 . S
H444 C449 0.950 . S
H445 C453 0.949 . S
H446 C454 0.950 . S
H447 C455 0.951 . S
H448 C456 0.951 1_565 S
C449 C443 1.265 . S
C449 H444 0.950 . S
C449 C450 1.478 . S
C450 C449 1.478 . S
C450 C451 1.397 1_565 S
C450 C467 1.394 . S
C451 C450 1.397 1_545 S
C451 C452 1.438 . S
C451 C456 1.429 . S
C452 C451 1.438 . S
C452 C453 1.428 . S
C452 C465 1.394 . S
C453 H445 0.949 . S
C453 C452 1.428 . S
C453 C454 1.345 . S
C454 H446 0.950 . S
C454 C453 1.345 . S
C454 C455 1.424 . S
C455 H447 0.951 . S
C455 C454 1.424 . S
C455 C456 1.347 . S
C456 H448 0.951 1_545 S
C456 C451 1.429 . S
C456 C455 1.347 . S
H457 C458 0.951 . S
C458 H457 0.951 . S
C458 C464 1.265 . S
H459 C464 0.950 . S
H460 C468 0.949 . S
H461 C469 0.950 . S
H462 C470 0.951 . S
H463 C471 0.951 1_545 S
C464 C458 1.265 . S
C464 H459 0.950 . S
C464 C465 1.478 . S
C465 C452 1.394 . S
C465 C464 1.478 . S
C465 C466 1.397 1_545 S
C466 C465 1.397 1_565 S
C466 C467 1.438 . S
C466 C471 1.429 . S
C467 C450 1.394 . S
C467 C466 1.438 . S
C467 C468 1.428 . S
C468 H460 0.949 . S
C468 C467 1.428 . S
C468 C469 1.345 . S
C469 H461 0.950 . S
C469 C468 1.345 . S
C469 C470 1.424 . S
C470 H462 0.951 . S
C470 C469 1.424 . S
C470 C471 1.347 . S
C471 H463 0.951 1_565 S
C471 C466 1.429 . S
C471 C470 1.347 . S
H472 C473 0.951 . S
C473 H472 0.951 . S
C473 C479 1.265 . S
H474 C479 0.950 . S
H475 C483 0.949 . S
H476 C484 0.950 . S
H477 C485 0.951 . S
H478 C486 0.951 1_655 S
C479 C473 1.265 . S
C479 H474 0.950 . S
C479 C480 1.478 . S
C480 C479 1.478 . S
C480 C481 1.397 1_655 S
C480 C497 1.394 . S
C481 C480 1.397 1_455 S
C481 C482 1.438 . S
C481 C486 1.429 . S
C482 C481 1.438 . S
C482 C483 1.428 . S
C482 C495 1.394 . S
C483 H475 0.949 . S
C483 C482 1.428 . S
C483 C484 1.345 . S
C484 H476 0.950 . S
C484 C483 1.345 . S
C484 C485 1.424 . S
C485 H477 0.951 . S
C485 C484 1.424 . S
C485 C486 1.347 . S
C486 H478 0.951 1_455 S
C486 C481 1.429 . S
C486 C485 1.347 . S
H487 C488 0.951 . S
C488 H487 0.951 . S
C488 C494 1.265 . S
H489 C494 0.950 . S
H490 C498 0.949 . S
H491 C499 0.950 . S
H492 C500 0.951 . S
H493 C501 0.951 1_455 S
C494 C488 1.265 . S
C494 H489 0.950 . S
C494 C495 1.478 . S
C495 C482 1.394 . S
C495 C494 1.478 . S
C495 C496 1.397 1_455 S
C496 C495 1.397 1_655 S
C496 C497 1.438 . S
C496 C501 1.429 . S
C497 C480 1.394 . S
C497 C496 1.438 . S
C497 C498 1.428 . S
C498 H490 0.949 . S
C498 C497 1.428 . S
C498 C499 1.345 . S
C499 H491 0.950 . S
C499 C498 1.345 . S
C499 C500 1.424 . S
C500 H492 0.951 . S
C500 C499 1.424 . S
C500 C501 1.347 . S
C501 H493 0.951 1_655 S
C501 C496 1.429 . S
C501 C500 1.347 . S
H502 C503 0.951 . S
C503 H502 0.951 . S
C503 C509 1.265 . S
H504 C509 0.950 . S
H505 C513 0.949 . S
H506 C514 0.950 . S
H507 C515 0.951 . S
H508 C516 0.951 . S
C509 C503 1.265 . S
C509 H504 0.950 . S
C509 C510 1.478 . S
C510 C509 1.478 . S
C510 C511 1.397 . S
C510 C527 1.394 . S
C511 C510 1.397 . S
C511 C512 1.438 . S
C511 C516 1.429 . S
C512 C511 1.438 . S
C512 C513 1.428 . S
C512 C525 1.394 . S
C513 H505 0.949 . S
C513 C512 1.428 . S
C513 C514 1.345 . S
C514 H506 0.950 . S
C514 C513 1.345 . S
C514 C515 1.424 . S
C515 H507 0.951 . S
C515 C514 1.424 . S
C515 C516 1.347 . S
C516 H508 0.951 . S
C516 C511 1.429 . S
C516 C515 1.347 . S
H517 C518 0.951 . S
C518 H517 0.951 . S
C518 C524 1.265 . S
H519 C524 0.950 . S
H520 C528 0.949 . S
H521 C529 0.950 . S
H522 C530 0.951 . S
H523 C531 0.951 . S
C524 C518 1.265 . S
C524 H519 0.950 . S
C524 C525 1.478 . S
C525 C512 1.394 . S
C525 C524 1.478 . S
C525 C526 1.397 . S
C526 C525 1.397 . S
C526 C527 1.438 . S
C526 C531 1.429 . S
C527 C510 1.394 . S
C527 C526 1.438 . S
C527 C528 1.428 . S
C528 H520 0.949 . S
C528 C527 1.428 . S
C528 C529 1.345 . S
C529 H521 0.950 . S
C529 C528 1.345 . S
C529 C530 1.424 . S
C530 H522 0.951 . S
C530 C529 1.424 . S
C530 C531 1.347 . S
C531 H523 0.951 . S
C531 C526 1.429 . S
C531 C530 1.347 . S
H532 C533 0.951 . S
C533 H532 0.951 . S
C533 C539 1.265 . S
H534 C539 0.950 . S
H535 C543 0.949 . S
H536 C544 0.950 . S
H537 C545 0.951 . S
H538 C546 0.951 . S
C539 C533 1.265 . S
C539 H534 0.950 . S
C539 C540 1.478 . S
C540 C539 1.478 . S
C540 C541 1.397 . S
C540 C557 1.394 . S
C541 C540 1.397 . S
C541 C542 1.438 1_545 S
C541 C546 1.429 . S
C542 C541 1.438 1_565 S
C542 C543 1.428 . S
C542 C555 1.394 . S
C543 H535 0.949 . S
C543 C542 1.428 . S
C543 C544 1.345 1_565 S
C544 H536 0.950 . S
C544 C543 1.345 1_545 S
C544 C545 1.424 . S
C545 H537 0.951 . S
C545 C544 1.424 . S
C545 C546 1.347 . S
C546 H538 0.951 . S
C546 C541 1.429 . S
C546 C545 1.347 . S
H547 C548 0.951 . S
C548 H547 0.951 . S
C548 C554 1.265 . S
H549 C554 0.950 . S
H550 C558 0.949 . S
H551 C559 0.950 . S
H552 C560 0.951 . S
H553 C561 0.951 . S
C554 C548 1.265 . S
C554 H549 0.950 . S
C554 C555 1.478 . S
C555 C542 1.394 . S
C555 C554 1.478 . S
C555 C556 1.397 . S
C556 C555 1.397 . S
C556 C557 1.438 1_565 S
C556 C561 1.429 . S
C557 C540 1.394 . S
C557 C556 1.438 1_545 S
C557 C558 1.428 . S
C558 H550 0.949 . S
C558 C557 1.428 . S
C558 C559 1.345 1_545 S
C559 H551 0.950 . S
C559 C558 1.345 1_565 S
C559 C560 1.424 . S
C560 H552 0.951 . S
C560 C559 1.424 . S
C560 C561 1.347 . S
C561 H553 0.951 . S
C561 C556 1.429 . S
C561 C560 1.347 . S
H562 C563 0.951 . S
C563 H562 0.951 . S
C563 C569 1.265 . S
H564 C569 0.950 . S
H565 C573 0.949 . S
H566 C574 0.950 . S
H567 C575 0.951 . S
H568 C576 0.951 1_565 S
C569 C563 1.265 . S
C569 H564 0.950 . S
C569 C570 1.478 . S
C570 C569 1.478 . S
C570 C571 1.397 1_565 S
C570 C587 1.394 . S
C571 C570 1.397 1_545 S
C571 C572 1.438 1_655 S
C571 C576 1.429 . S
C572 C571 1.438 1_455 S
C572 C573 1.428 . S
C572 C585 1.394 . S
C573 H565 0.949 . S
C573 C572 1.428 . S
C573 C574 1.345 . S
C574 H566 0.950 . S
C574 C573 1.345 . S
C574 C575 1.424 1_455 S
C575 H567 0.951 . S
C575 C574 1.424 1_655 S
C575 C576 1.347 . S
C576 H568 0.951 1_545 S
C576 C571 1.429 . S
C576 C575 1.347 . S
H577 C578 0.951 . S
C578 H577 0.951 . S
C578 C584 1.265 . S
H579 C584 0.950 . S
H580 C588 0.949 . S
H581 C589 0.950 . S
H582 C590 0.951 . S
H583 C591 0.951 1_545 S
C584 C578 1.265 . S
C584 H579 0.950 . S
C584 C585 1.478 . S
C585 C572 1.394 . S
C585 C584 1.478 . S
C585 C586 1.397 1_545 S
C586 C585 1.397 1_565 S
C586 C587 1.438 1_455 S
C586 C591 1.429 . S
C587 C570 1.394 . S
C587 C586 1.438 1_655 S
C587 C588 1.428 . S
C588 H580 0.949 . S
C588 C587 1.428 . S
C588 C589 1.345 . S
C589 H581 0.950 . S
C589 C588 1.345 . S
C589 C590 1.424 1_655 S
C590 H582 0.951 . S
C590 C589 1.424 1_455 S
C590 C591 1.347 . S
C591 H583 0.951 1_565 S
C591 C586 1.429 . S
C591 C590 1.347 . S
C113 C6 1.380 . S
C128 C76 1.385 . S
C143 C23 1.208 . S
C158 C93 1.277 . S
C173 C34 1.335 . S
C188 C104 1.329 . S
C203 C51 1.267 . S
C218 C65 1.171 . S
C233 C107 1.207 . S
C248 C9 1.278 . S
C263 C62 1.348 . S
C278 C20 1.333 . S
C293 C37 1.161 . S
C308 C79 1.226 . S
C323 C90 1.365 . S
C338 C48 1.380 . S
C353 C8 1.550 . S
C368 C92 1.551 . S
C383 C105 1.650 . S
C398 C21 1.638 . S
C413 C36 1.547 . S
C428 C64 1.555 . S
C443 C49 1.649 . S
C458 C77 1.647 . S
C473 C91 1.649 . S
C488 C7 1.647 . S
C503 C106 1.572 . S
C518 C22 1.579 . S
C533 C35 1.648 . S
C548 C63 1.648 . S
C563 C50 1.553 . S
C578 C78 1.548 . S
