# Generated by pormake.
# Topology oof, (8)-cn, num edge types: 1
# Building blocks:
#     Node 0, Type 0, BuildingBlock: EBIMEJ_clean_sbu_0, # of connection points: 8
#     Node 1, Type 0, BuildingBlock: EBIMEJ_clean_sbu_0, # of connection points: 8
#     Node 2, Type 0, BuildingBlock: EBIMEJ_clean_sbu_0, # of connection points: 8
#     Node 3, Type 0, BuildingBlock: EBIMEJ_clean_sbu_0, # of connection points: 8
#     Edge 4, Type (0, 0), BuildingBlock: TEMPAE_clean_linker_10, # of connection points: 2
#     Edge 5, Type (0, 0), BuildingBlock: TEMPAE_clean_linker_10, # of connection points: 2
#     Edge 6, Type (0, 0), BuildingBlock: TEMPAE_clean_linker_10, # of connection points: 2
#     Edge 7, Type (0, 0), BuildingBlock: TEMPAE_clean_linker_10, # of connection points: 2
#     Edge 8, Type (0, 0), BuildingBlock: TEMPAE_clean_linker_10, # of connection points: 2
#     Edge 9, Type (0, 0), BuildingBlock: TEMPAE_clean_linker_10, # of connection points: 2
#     Edge 10, Type (0, 0), BuildingBlock: TEMPAE_clean_linker_10, # of connection points: 2
#     Edge 11, Type (0, 0), BuildingBlock: TEMPAE_clean_linker_10, # of connection points: 2
#     Edge 12, Type (0, 0), BuildingBlock: TEMPAE_clean_linker_10, # of connection points: 2
#     Edge 13, Type (0, 0), BuildingBlock: TEMPAE_clean_linker_10, # of connection points: 2
#     Edge 14, Type (0, 0), BuildingBlock: TEMPAE_clean_linker_10, # of connection points: 2
#     Edge 15, Type (0, 0), BuildingBlock: TEMPAE_clean_linker_10, # of connection points: 2
#     Edge 16, Type (0, 0), BuildingBlock: TEMPAE_clean_linker_10, # of connection points: 2
#     Edge 17, Type (0, 0), BuildingBlock: TEMPAE_clean_linker_10, # of connection points: 2
#     Edge 18, Type (0, 0), BuildingBlock: TEMPAE_clean_linker_10, # of connection points: 2
#     Edge 19, Type (0, 0), BuildingBlock: TEMPAE_clean_linker_10, # of connection points: 2
# Relax obj value: 0.053
# Max RMSD: 0.153
# Mean RMSD: 0.153
data_MOF--net-oof--node1-EBIMEJ_clean_sbu_0--edge1-TEMPAE_clean_linker_10
_symmetry_space_group_name_H-M    P1
_symmetry_Int_Tables_number       1
_symmetry_cell_setting            triclinic
loop_
_symmetry_equiv_pos_as_xyz
'x, y, z'
_cell_length_a     15.198154
_cell_length_b     68.410418
_cell_length_c     17.864184
_cell_angle_alpha  79.077521
_cell_angle_beta   123.03601
_cell_angle_gamma 95.872642
loop_
_atom_site_label
_atom_site_type_symbol
_atom_site_fract_x
_atom_site_fract_y
_atom_site_fract_z
_atom_type_partial_charge
Co0 Co 0.95525 0.18039 0.29626 0.0
Co1 Co 0.94914 0.15908 0.14148 0.0
Co2 Co 0.98002 0.13384 0.31371 0.0
H3 H 0.98195 0.15713 0.29315 0.0
O4 O 0.01877 0.16156 0.27061 0.0
H5 H 0.9605 0.13543 0.16852 0.0
O6 O 0.9191 0.1307 0.1865 0.0
Co7 Co 0.00928 0.11294 0.1807 0.0
O8 O 0.99836 0.12657 0.06522 0.0
O9 O 0.90198 0.15425 0.01695 0.0
O10 O 0.02559 0.09176 0.28473 0.0
O11 O 0.95679 0.10522 0.34754 0.0
O12 O 0.95727 0.20818 0.32636 0.0
O13 O 0.09688 0.19396 0.37604 0.0
O14 O 0.13659 0.12727 0.2678 0.0
O15 O 0.0961 0.15664 0.17805 0.0
C16 C 0.02102 0.15264 0.4697 0.0
C17 C 0.88835 0.19828 0.11566 0.0
C18 C 0.00345 0.08217 0.12052 0.0
C19 C 0.77877 0.15466 0.23416 0.0
C20 C 0.94826 0.14151 0.00498 0.0
C21 C 0.99173 0.09036 0.33722 0.0
C22 C 0.05533 0.20942 0.37137 0.0
C23 C 0.1627 0.14453 0.24508 0.0
O24 O 0.98665 0.16961 0.42098 0.0
O25 O 0.03481 0.13801 0.4412 0.0
O26 O 0.94763 0.18915 0.10265 0.0
O27 O 0.85409 0.18844 0.16225 0.0
O28 O 0.06964 0.08532 0.19964 0.0
O29 O 0.94019 0.09646 0.07564 0.0
O30 O 0.8132 0.17033 0.20859 0.0
O31 O 0.83828 0.13976 0.28363 0.0
Co32 Co 0.99146 0.92769 0.81929 0.0
Co33 Co 0.02151 0.90799 0.67954 0.0
Co34 Co 0.07289 0.88312 0.85927 0.0
H35 H 0.04728 0.90631 0.82841 0.0
O36 O 0.08253 0.91209 0.80569 0.0
H37 H 0.02418 0.88471 0.70351 0.0
O38 O 0.99184 0.88005 0.73008 0.0
Co39 Co 0.05534 0.86146 0.70445 0.0
O40 O 0.05365 0.87339 0.59265 0.0
O41 O 0.97418 0.90271 0.55404 0.0
O42 O 0.15285 0.84586 0.82589 0.0
O43 O 0.09082 0.85301 0.9064 0.0
O44 O 0.93021 0.94341 0.86984 0.0
O45 O 0.04752 0.95578 0.8503 0.0
O46 O 0.18418 0.87431 0.79758 0.0
O47 O 0.16713 0.90349 0.71547 0.0
C48 C 0.09036 0.90082 1.00365 0.0
C49 C 0.01443 0.95147 0.66301 0.0
C50 C 0.95789 0.83142 0.63824 0.0
C51 C 0.85474 0.89284 0.77938 0.0
C52 C 0.01332 0.88944 0.53758 0.0
C53 C 0.14265 0.84164 0.89333 0.0
C54 C 0.98856 0.95827 0.87664 0.0
C55 C 0.22433 0.88893 0.77197 0.0
O56 O 0.0263 0.91452 0.94445 0.0
O57 O 0.13294 0.8887 0.98513 0.0
O58 O 0.03506 0.93666 0.6406 0.0
O59 O 0.99277 0.94969 0.72411 0.0
O60 O 0.98976 0.84486 0.60007 0.0
O61 O 0.98029 0.83518 0.71251 0.0
O62 O 0.86412 0.91079 0.74883 0.0
O63 O 0.93376 0.88245 0.84198 0.0
Co64 Co 0.46459 0.67952 0.31096 0.0
Co65 Co 0.45394 0.65879 0.15563 0.0
Co66 Co 0.49294 0.63336 0.33016 0.0
H67 H 0.49415 0.65658 0.30858 0.0
O68 O 0.53008 0.66107 0.28508 0.0
H69 H 0.46747 0.63497 0.18181 0.0
O70 O 0.42952 0.63006 0.20287 0.0
Co71 Co 0.51121 0.61195 0.18973 0.0
O72 O 0.48058 0.62522 0.06745 0.0
O73 O 0.396 0.65414 0.02757 0.0
O74 O 0.50294 0.59008 0.27998 0.0
O75 O 0.47313 0.60473 0.36715 0.0
O76 O 0.47248 0.70488 0.36057 0.0
O77 O 0.60646 0.69383 0.3793 0.0
O78 O 0.63415 0.62815 0.269 0.0
O79 O 0.59341 0.65644 0.17638 0.0
C80 C 0.51201 0.65164 0.47773 0.0
C81 C 0.40607 0.70093 0.13129 0.0
C82 C 0.51712 0.58165 0.13232 0.0
C83 C 0.28697 0.65287 0.23459 0.0
C84 C 0.43232 0.64059 0.00983 0.0
C85 C 0.48521 0.58932 0.34263 0.0
C86 C 0.5689 0.70732 0.39264 0.0
C87 C 0.65903 0.64259 0.22821 0.0
O88 O 0.47046 0.66788 0.4252 0.0
O89 O 0.54214 0.638 0.45585 0.0
O90 O 0.45389 0.68885 0.11741 0.0
O91 O 0.37743 0.69558 0.1871 0.0
O92 O 0.59095 0.58719 0.20424 0.0
O93 O 0.44025 0.59326 0.09351 0.0
O94 O 0.3207 0.67028 0.22502 0.0
O95 O 0.34686 0.63842 0.28967 0.0
Co96 Co 0.5082 0.42756 0.83071 0.0
Co97 Co 0.52983 0.40694 0.68927 0.0
Co98 Co 0.56987 0.38185 0.86464 0.0
H99 H 0.55576 0.40538 0.83769 0.0
O100 O 0.59389 0.41044 0.81673 0.0
H101 H 0.52886 0.3836 0.71167 0.0
O102 O 0.49329 0.37933 0.73551 0.0
Co103 Co 0.55716 0.36008 0.71275 0.0
O104 O 0.54126 0.37153 0.59409 0.0
O105 O 0.4753 0.40207 0.56193 0.0
O106 O 0.64771 0.34406 0.83546 0.0
O107 O 0.57367 0.35183 0.90573 0.0
O108 O 0.4733 0.44161 0.90473 0.0
O109 O 0.55243 0.4569 0.8473 0.0
O110 O 0.69125 0.37193 0.80404 0.0
O111 O 0.67157 0.40099 0.72005 0.0
C112 C 0.58261 0.39909 0.00779 0.0
C113 C 0.52159 0.45032 0.66982 0.0
C114 C 0.45692 0.33077 0.64118 0.0
C115 C 0.35537 0.39572 0.77573 0.0
C116 C 0.50138 0.38778 0.53991 0.0
C117 C 0.62596 0.33985 0.89607 0.0
C118 C 0.51451 0.45787 0.89378 0.0
C119 C 0.7288 0.38613 0.77373 0.0
O120 O 0.52612 0.41367 0.94904 0.0
O121 O 0.626 0.38675 0.9911 0.0
O122 O 0.55038 0.43555 0.65339 0.0
O123 O 0.49587 0.44871 0.72811 0.0
O124 O 0.51953 0.34067 0.62361 0.0
O125 O 0.45081 0.33759 0.69848 0.0
O126 O 0.37641 0.41325 0.75085 0.0
O127 O 0.4263 0.38353 0.83748 0.0
C128 C 0.8874 0.15621 0.84256 0.0
C129 C 0.95732 0.14444 0.92474 0.0
C130 C 0.89785 0.15798 0.76768 0.0
C131 C 0.98026 0.14777 0.77558 0.0
C132 C 0.05239 0.13635 0.85924 0.0
C133 C 0.03992 0.1348 0.93209 0.0
C134 C 0.81824 0.1702 0.67973 0.0
C135 C 0.14314 0.12566 0.8721 0.0
C136 C 0.96776 0.1341 0.57276 0.0
C137 C 0.02659 0.14942 0.55627 0.0
C138 C 0.94903 0.13376 0.64195 0.0
C139 C 0.99275 0.14877 0.69757 0.0
C140 C 0.05511 0.1639 0.68284 0.0
C141 C 0.06981 0.16422 0.61148 0.0
C142 C 0.87993 0.11768 0.65389 0.0
C143 C 0.10477 0.17996 0.7415 0.0
H144 H 0.82361 0.1637 0.8362 0.0
H145 H 0.0963 0.12597 0.99572 0.0
H146 H 0.85427 0.1781 0.64266 0.0
H147 H 0.75679 0.16008 0.63673 0.0
H148 H 0.7795 0.18131 0.69059 0.0
H149 H 0.19451 0.11795 0.94261 0.0
H150 H 0.11303 0.11445 0.82604 0.0
H151 H 0.19156 0.13639 0.85463 0.0
H152 H 0.93091 0.12309 0.52792 0.0
H153 H 0.11316 0.17634 0.59728 0.0
H154 H 0.81321 0.12455 0.64847 0.0
H155 H 0.92495 0.10867 0.7223 0.0
H156 H 0.84826 0.10759 0.60273 0.0
H157 H 0.0429 0.18839 0.73685 0.0
H158 H 0.15179 0.19057 0.7217 0.0
H159 H 0.15663 0.17314 0.81336 0.0
C160 C 0.09499 0.88046 0.45976 0.0
C161 C 0.02384 0.89262 0.45762 0.0
C162 C 0.10983 0.88232 0.38805 0.0
C163 C 0.05205 0.8967 0.31055 0.0
C164 C 0.98141 0.9094 0.30775 0.0
C165 C 0.96847 0.90729 0.38167 0.0
C166 C 0.18724 0.86868 0.39518 0.0
C167 C 0.91849 0.92497 0.22617 0.0
C168 C 0.15664 0.90962 0.15506 0.0
C169 C 0.09623 0.89717 0.09031 0.0
C170 C 0.14279 0.90978 0.22684 0.0
C171 C 0.06417 0.89766 0.23213 0.0
C172 C 0.00285 0.88511 0.16639 0.0
C173 C 0.01997 0.88496 0.09666 0.0
C174 C 0.21114 0.92311 0.29621 0.0
C175 C 0.91778 0.87205 0.16878 0.0
H176 H 0.14058 0.86932 0.51844 0.0
H177 H 0.91433 0.91688 0.37944 0.0
H178 H 0.14639 0.85967 0.33969 0.0
H179 H 0.24808 0.87761 0.38785 0.0
H180 H 0.22694 0.85839 0.46059 0.0
H181 H 0.87138 0.93437 0.23613 0.0
H182 H 0.9714 0.93473 0.21071 0.0
H183 H 0.86463 0.91763 0.16629 0.0
H184 H 0.21257 0.91966 0.14797 0.0
H185 H 0.97007 0.87599 0.04425 0.0
H186 H 0.25386 0.91414 0.36489 0.0
H187 H 0.1616 0.93395 0.29623 0.0
H188 H 0.26937 0.93145 0.28316 0.0
H189 H 0.9527 0.86112 0.23228 0.0
H190 H 0.87395 0.86381 0.11051 0.0
H191 H 0.86136 0.88125 0.1683 0.0
C192 C 0.51314 0.63198 0.93099 0.0
C193 C 0.43689 0.64307 0.92704 0.0
C194 C 0.52632 0.63369 0.85858 0.0
C195 C 0.45924 0.64632 0.77732 0.0
C196 C 0.38101 0.65749 0.77134 0.0
C197 C 0.37168 0.65599 0.84695 0.0
C198 C 0.61345 0.62204 0.86996 0.0
C199 C 0.30762 0.67102 0.6851 0.0
C200 C 0.55789 0.66261 0.61948 0.0
C201 C 0.51292 0.64827 0.56206 0.0
C202 C 0.54009 0.66237 0.68899 0.0
C203 C 0.47312 0.64771 0.69983 0.0
C204 C 0.42739 0.63318 0.64162 0.0
C205 C 0.44888 0.6335 0.57407 0.0
C206 C 0.59577 0.67756 0.75173 0.0
C207 C 0.35371 0.61758 0.6493 0.0
H208 H 0.56571 0.62206 0.99235 0.0
H209 H 0.31293 0.66463 0.84293 0.0
H210 H 0.57945 0.61045 0.82567 0.0
H211 H 0.66165 0.63201 0.84948 0.0
H212 H 0.66603 0.61462 0.94081 0.0
H213 H 0.2491 0.67826 0.68995 0.0
H214 H 0.35333 0.68276 0.66871 0.0
H215 H 0.26545 0.66239 0.62818 0.0
H216 H 0.60583 0.67427 0.60888 0.0
H217 H 0.41108 0.62286 0.52745 0.0
H218 H 0.67063 0.67101 0.81123 0.0
H219 H 0.54887 0.68192 0.77647 0.0
H220 H 0.61508 0.69118 0.71834 0.0
H221 H 0.39613 0.60772 0.71569 0.0
H222 H 0.31899 0.60824 0.59505 0.0
H223 H 0.28925 0.62484 0.64584 0.0
C224 C 0.66135 0.3985 0.17354 0.0
C225 C 0.57654 0.39489 0.08904 0.0
C226 C 0.64744 0.39873 0.24533 0.0
C227 C 0.54642 0.39512 0.23216 0.0
C228 C 0.46101 0.39134 0.14666 0.0
C229 C 0.47713 0.39133 0.07643 0.0
C230 C 0.74163 0.40264 0.33504 0.0
C231 C 0.35207 0.3875 0.12893 0.0
C232 C 0.52231 0.37333 0.43213 0.0
C233 C 0.49908 0.39005 0.45389 0.0
C234 C 0.53965 0.37495 0.36183 0.0
C235 C 0.53055 0.39368 0.3088 0.0
C236 C 0.50305 0.4106 0.32741 0.0
C237 C 0.4884 0.40864 0.40024 0.0
C238 C 0.57084 0.35658 0.3461 0.0
C239 C 0.49178 0.43083 0.27171 0.0
H240 H 0.73753 0.40185 0.18255 0.0
H241 H 0.41085 0.38906 0.01015 0.0
H242 H 0.71997 0.41028 0.37229 0.0
H243 H 0.77871 0.38818 0.37699 0.0
H244 H 0.80106 0.41179 0.32626 0.0
H245 H 0.29307 0.38597 0.05732 0.0
H246 H 0.35191 0.37363 0.17267 0.0
H247 H 0.3276 0.39984 0.14608 0.0
H248 H 0.53069 0.35881 0.47229 0.0
H249 H 0.47166 0.42169 0.41661 0.0
H250 H 0.64862 0.35896 0.35394 0.0
H251 H 0.51355 0.35376 0.27604 0.0
H252 H 0.57543 0.34309 0.39388 0.0
H253 H 0.56768 0.43533 0.27831 0.0
H254 H 0.46724 0.44241 0.29275 0.0
H255 H 0.4331 0.43021 0.19909 0.0
C256 C 0.72575 0.15903 0.3358 0.0
C257 C 0.69672 0.15769 0.24805 0.0
C258 C 0.65107 0.16231 0.35376 0.0
C259 C 0.54498 0.1632 0.28263 0.0
C260 C 0.51588 0.16347 0.19218 0.0
C261 C 0.59356 0.16098 0.17569 0.0
C262 C 0.6856 0.16314 0.44985 0.0
C263 C 0.40254 0.16468 0.11432 0.0
C264 C 0.34353 0.13405 0.3118 0.0
C265 C 0.27315 0.14929 0.28544 0.0
C266 C 0.43945 0.13857 0.32024 0.0
C267 C 0.46479 0.15879 0.30441 0.0
C268 C 0.40163 0.17421 0.29293 0.0
C269 C 0.3045 0.16924 0.28201 0.0
C270 C 0.50672 0.12171 0.33431 0.0
C271 C 0.4309 0.19586 0.28267 0.0
H272 H 0.80684 0.15722 0.39095 0.0
H273 H 0.5734 0.16069 0.10758 0.0
H274 H 0.63181 0.17237 0.4526 0.0
H275 H 0.68664 0.14786 0.48496 0.0
H276 H 0.76639 0.16923 0.48749 0.0
H277 H 0.39471 0.16652 0.04778 0.0
H278 H 0.36099 0.15085 0.12177 0.0
H279 H 0.36267 0.17733 0.11455 0.0
H280 H 0.31918 0.11862 0.31578 0.0
H281 H 0.25029 0.18097 0.26431 0.0
H282 H 0.58879 0.12335 0.39071 0.0
H283 H 0.50767 0.12206 0.27236 0.0
H284 H 0.47755 0.10689 0.34963 0.0
H285 H 0.51728 0.19795 0.32236 0.0
H286 H 0.39495 0.20496 0.3046 0.0
H287 H 0.40117 0.20155 0.21045 0.0
C288 C 0.66099 0.89319 0.67374 0.0
C289 C 0.75108 0.88474 0.7532 0.0
C290 C 0.56233 0.88844 0.66029 0.0
C291 C 0.55669 0.87594 0.7302 0.0
C292 C 0.64535 0.86514 0.80339 0.0
C293 C 0.74215 0.86952 0.81337 0.0
C294 C 0.46622 0.89871 0.57741 0.0
C295 C 0.64137 0.85137 0.87836 0.0
C296 C 0.39605 0.89828 0.79403 0.0
C297 C 0.31398 0.88475 0.76987 0.0
C298 C 0.47687 0.89528 0.78245 0.0
C299 C 0.47092 0.87892 0.74131 0.0
C300 C 0.38651 0.86542 0.71518 0.0
C301 C 0.3101 0.86821 0.73235 0.0
C302 C 0.56804 0.90969 0.81387 0.0
C303 C 0.37562 0.84816 0.66898 0.0
H304 H 0.66791 0.90431 0.62515 0.0
H305 H 0.81179 0.86245 0.87352 0.0
H306 H 0.39629 0.88891 0.55597 0.0
H307 H 0.4501 0.91235 0.59322 0.0
H308 H 0.47782 0.90318 0.52023 0.0
H309 H 0.6319 0.86032 0.91931 0.0
H310 H 0.57334 0.84119 0.8502 0.0
H311 H 0.71397 0.8423 0.92402 0.0
H312 H 0.39684 0.91111 0.82198 0.0
H313 H 0.24476 0.85791 0.7127 0.0
H314 H 0.5686 0.91818 0.75472 0.0
H315 H 0.64349 0.90148 0.85881 0.0
H316 H 0.56404 0.92049 0.85119 0.0
H317 H 0.41119 0.85145 0.62776 0.0
H318 H 0.29184 0.84417 0.62465 0.0
H319 H 0.41527 0.83489 0.72076 0.0
C320 C 0.81701 0.62556 0.26435 0.0
C321 C 0.73437 0.63894 0.20599 0.0
C322 C 0.89303 0.62331 0.24568 0.0
C323 C 0.88394 0.63464 0.16672 0.0
C324 C 0.79254 0.64571 0.10129 0.0
C325 C 0.71972 0.64816 0.12274 0.0
C326 C 0.9898 0.61117 0.31669 0.0
C327 C 0.77921 0.65736 0.01497 0.0
C328 C 0.12993 0.6627 0.22107 0.0
C329 C 0.17662 0.65039 0.19867 0.0
C330 C 0.03266 0.65784 0.20882 0.0
C331 C 0.98006 0.64075 0.16916 0.0
C332 C 0.02282 0.62936 0.13829 0.0
C333 C 0.12334 0.63404 0.15602 0.0
C334 C 0.98996 0.67031 0.24375 0.0
C335 C 0.9652 0.61186 0.09087 0.0
H336 H 0.82582 0.61788 0.32704 0.0
H337 H 0.65309 0.65787 0.07509 0.0
H338 H 0.01998 0.60358 0.28551 0.0
H339 H 0.05237 0.62123 0.35931 0.0
H340 H 0.97401 0.5998 0.36138 0.0
H341 H 0.69588 0.6615 0.96378 0.0
H342 H 0.8256 0.6713 0.02957 0.0
H343 H 0.80834 0.64873 0.98606 0.0
H344 H 0.17335 0.67519 0.25506 0.0
H345 H 0.16145 0.62468 0.13907 0.0
H346 H 0.97637 0.66085 0.29429 0.0
H347 H 0.91379 0.67705 0.18746 0.0
H348 H 0.04406 0.68253 0.27623 0.0
H349 H 0.96905 0.59902 0.14083 0.0
H350 H -9e-05 0.60723 0.05598 0.0
H351 H 0.8811 0.61549 0.04056 0.0
C352 C 0.90309 0.37194 0.83651 0.0
C353 C 0.81075 0.38101 0.76274 0.0
C354 C 0.98364 0.3682 0.82545 0.0
C355 C 0.9682 0.37331 0.73846 0.0
C356 C 0.86863 0.37916 0.66211 0.0
C357 C 0.79176 0.38369 0.67545 0.0
C358 C 0.0885 0.36101 0.90772 0.0
C359 C 0.84746 0.38306 0.56773 0.0
C360 C 0.18627 0.40494 0.74413 0.0
C361 C 0.24778 0.39075 0.74681 0.0
C362 C 0.0928 0.3994 0.73872 0.0
C363 C 0.05923 0.37932 0.73217 0.0
C364 C 0.11634 0.36536 0.72602 0.0
C365 C 0.21225 0.37119 0.73565 0.0
C366 C 0.03396 0.4148 0.74588 0.0
C367 C 0.08018 0.34417 0.71408 0.0
H368 H 0.9145 0.36896 0.90309 0.0
H369 H 0.718 0.38984 0.61761 0.0
H370 H 0.11784 0.34867 0.8948 0.0
H371 H 0.1463 0.37332 0.92218 0.0
H372 H 0.08427 0.3558 0.96849 0.0
H373 H 0.76239 0.38186 0.51639 0.0
H374 H 0.87324 0.39837 0.5542 0.0
H375 H 0.89145 0.37247 0.55987 0.0
H376 H 0.21528 0.42001 0.75357 0.0
H377 H 0.26086 0.36036 0.73723 0.0
H378 H 0.02435 0.40958 0.80374 0.0
H379 H 0.95454 0.41717 0.68355 0.0
H380 H 0.07477 0.4294 0.75553 0.0
H381 H 0.1186 0.33455 0.78131 0.0
H382 H 0.10371 0.33853 0.67305 0.0
H383 H 0.99387 0.34264 0.6811 0.0
C384 C 0.39574 0.30803 0.52709 0.0
C385 C 0.39838 0.31306 0.60079 0.0
C386 C 0.33972 0.29127 0.48825 0.0
C387 C 0.28637 0.27912 0.52485 0.0
C388 C 0.28964 0.28409 0.59978 0.0
C389 C 0.34494 0.30107 0.63638 0.0
C390 C 0.33751 0.28657 0.40801 0.0
C391 C 0.23511 0.27141 0.64162 0.0
C392 C 0.06365 0.24558 0.38065 0.0
C393 C 0.11424 0.22712 0.4114 0.0
C394 C 0.11898 0.26268 0.4161 0.0
C395 C 0.22716 0.26119 0.48501 0.0
C396 C 0.27837 0.24251 0.51676 0.0
C397 C 0.22147 0.22572 0.4789 0.0
C398 C 0.06179 0.28235 0.37925 0.0
C399 C 0.39312 0.24023 0.59107 0.0
H400 H 0.43677 0.3173 0.49928 0.0
H401 H 0.34706 0.30486 0.69357 0.0
H402 H 0.3732 0.27174 0.42519 0.0
H403 H 0.25515 0.28588 0.35029 0.0
H404 H 0.38051 0.2978 0.38603 0.0
H405 H 0.2446 0.2774 0.69926 0.0
H406 H 0.15008 0.27042 0.59008 0.0
H407 H 0.26716 0.25605 0.66614 0.0
H408 H 0.98097 0.24674 0.32768 0.0
H409 H 0.2607 0.21145 0.50283 0.0
H410 H 0.0978 0.29304 0.34844 0.0
H411 H 0.06921 0.28881 0.4349 0.0
H412 H 0.97708 0.28088 0.32734 0.0
H413 H 0.44127 0.25003 0.57 0.0
H414 H 0.42107 0.22466 0.60874 0.0
H415 H 0.40681 0.24496 0.65271 0.0
C416 C 0.59323 0.30367 0.90916 0.0
C417 C 0.65803 0.31962 0.94811 0.0
C418 C 0.63409 0.28434 0.93251 0.0
C419 C 0.74277 0.28078 0.99691 0.0
C420 C 0.80779 0.29673 0.03894 0.0
C421 C 0.76488 0.31595 0.01326 0.0
C422 C 0.56149 0.26788 0.88576 0.0
C423 C 0.92354 0.29363 0.10883 0.0
C424 C 0.81364 0.22805 0.12302 0.0
C425 C 0.85861 0.2199 0.08438 0.0
C426 C 0.78025 0.24782 0.09751 0.0
C427 C 0.78583 0.26002 0.02725 0.0
C428 C 0.82983 0.25212 0.9863 0.0
C429 C 0.86733 0.23218 0.0163 0.0
C430 C 0.73721 0.25554 0.14539 0.0
C431 C 0.83483 0.26457 0.90951 0.0
H432 H 0.51173 0.30661 0.85565 0.0
H433 H 0.81623 0.32841 0.04019 0.0
H434 H 0.58969 0.26154 0.84973 0.0
H435 H 0.56161 0.25566 0.93646 0.0
H436 H 0.47946 0.27314 0.83622 0.0
H437 H 0.96223 0.30725 0.1388 0.0
H438 H 0.93578 0.28134 0.16401 0.0
H439 H 0.96275 0.28924 0.07727 0.0
H440 H 0.80255 0.21887 0.17358 0.0
H441 H 0.90012 0.22611 0.98481 0.0
H442 H 0.65324 0.25955 0.09692 0.0
H443 H 0.77976 0.26921 0.17225 0.0
H444 H 0.74407 0.24445 0.20253 0.0
H445 H 0.75416 0.26868 0.85142 0.0
H446 H 0.87404 0.25662 0.88663 0.0
H447 H 0.87761 0.27863 0.93036 0.0
C448 C 0.5766 0.74042 0.43547 0.0
C449 C 0.62847 0.72487 0.43374 0.0
C450 C 0.63013 0.75785 0.46808 0.0
C451 C 0.73864 0.75962 0.50131 0.0
C452 C 0.79198 0.74376 0.50166 0.0
C453 C 0.73606 0.72661 0.46735 0.0
C454 C 0.57008 0.77452 0.46536 0.0
C455 C 0.90794 0.74497 0.53773 0.0
C456 C 0.85913 0.81144 0.51172 0.0
C457 C 0.90298 0.8131 0.60249 0.0
C458 C 0.80498 0.79413 0.47764 0.0
C459 C 0.79639 0.77802 0.53629 0.0
C460 C 0.84213 0.77956 0.62836 0.0
C461 C 0.8941 0.79714 0.66012 0.0
C462 C 0.7563 0.79311 0.37883 0.0
C463 C 0.83617 0.76265 0.69342 0.0
H464 H 0.49327 0.73919 0.40908 0.0
H465 H 0.77648 0.7146 0.46623 0.0
H466 H 0.60517 0.77793 0.53452 0.0
H467 H 0.57549 0.78822 0.42347 0.0
H468 H 0.48586 0.77083 0.43703 0.0
H469 H 0.93819 0.7312 0.5348 0.0
H470 H 0.92367 0.75776 0.49813 0.0
H471 H 0.95256 0.74758 0.60897 0.0
H472 H 0.86582 0.82379 0.46708 0.0
H473 H 0.92869 0.79832 0.7306 0.0
H474 H 0.6708 0.79024 0.34598 0.0
H475 H 0.79087 0.78055 0.37203 0.0
H476 H 0.76808 0.80706 0.34183 0.0
H477 H 0.75293 0.75923 0.67013 0.0
H478 H 0.87747 0.76611 0.76328 0.0
H479 H 0.87146 0.74901 0.69519 0.0
C480 C 0.42857 0.73592 0.15401 0.0
C481 C 0.39018 0.72242 0.09264 0.0
C482 C 0.38966 0.7554 0.12748 0.0
C483 C 0.31126 0.76196 0.03601 0.0
C484 C 0.27685 0.74885 0.97195 0.0
C485 C 0.31551 0.72909 1.0013 0.0
C486 C 0.42819 0.76842 0.19922 0.0
C487 C 0.19699 0.75551 0.87293 0.0
C488 C 0.13852 0.8071 0.9727 0.0
C489 C 0.19371 0.82257 0.95219 0.0
C490 C 0.17667 0.78729 1.00204 0.0
C491 C 0.26983 0.78283 0.00772 0.0
C492 C 0.32686 0.79858 0.98971 0.0
C493 C 0.2897 0.81814 0.9647 0.0
C494 C 0.11541 0.77104 0.02379 0.0
C495 C 0.42531 0.79471 0.99324 0.0
H496 H 0.48515 0.73079 0.2248 0.0
H497 H 0.28343 0.71863 0.95389 0.0
H498 H 0.44059 0.784 0.17539 0.0
H499 H 0.36821 0.76861 0.21632 0.0
H500 H 0.50301 0.76282 0.2618 0.0
H501 H 0.18727 0.74447 0.83066 0.0
H502 H 0.11983 0.75773 0.86304 0.0
H503 H 0.22052 0.76999 0.84858 0.0
H504 H 0.06316 0.81026 0.96102 0.0
H505 H 0.33241 0.83 0.94814 0.0
H506 H 0.16854 0.76173 0.0899 0.0
H507 H 0.0793 0.76119 0.97158 0.0
H508 H 0.05206 0.77711 0.02618 0.0
H509 H 0.48692 0.78821 0.063 0.0
H510 H 0.45697 0.80847 0.97187 0.0
H511 H 0.40877 0.78374 0.94858 0.0
C512 C 0.92784 0.06228 0.99361 0.0
C513 C 0.00054 0.06397 0.08477 0.0
C514 C 0.92448 0.04517 0.95883 0.0
C515 C 0.99534 0.02926 0.01652 0.0
C516 C 0.06891 0.0309 0.10871 0.0
C517 C 0.07068 0.0482 0.14161 0.0
C518 C 0.84507 0.04414 0.86016 0.0
C519 C 0.14611 1.01439 0.17267 0.0
C520 C 0.92761 0.97747 0.94749 0.0
C521 C 0.98924 0.9764 0.91187 0.0
C522 C 0.92898 0.99451 0.98189 0.0
C523 C 0.99309 1.01098 0.98031 0.0
C524 C 0.05526 1.00996 0.94416 0.0
C525 C 0.05277 0.99272 0.91071 0.0
C526 C 0.86186 0.99487 0.02011 0.0
C527 C 0.12453 0.02712 0.94072 0.0
H528 H 0.87358 0.0744 0.94915 0.0
H529 H 0.12712 0.04938 0.21213 0.0
H530 H 0.88577 0.04217 0.82608 0.0
H531 H 0.79328 0.03105 0.85366 0.0
H532 H 0.79552 0.05774 0.82418 0.0
H533 H 0.19775 1.01786 0.24247 0.0
H534 H 0.10343 1.00035 0.17499 0.0
H535 H 0.19603 1.01168 0.14791 0.0
H536 H 0.87862 0.96491 0.94897 0.0
H537 H 0.10081 0.99203 0.8835 0.0
H538 H 0.80566 1.00748 0.98204 0.0
H539 H 0.91184 0.99727 0.09161 0.0
H540 H 0.817 0.98085 0.01715 0.0
H541 H 0.0759 0.04057 0.89842 0.0
H542 H 0.16995 0.02383 0.91253 0.0
H543 H 0.1804 0.03075 0.00963 0.0
C544 C 0.90762 0.06272 0.39001 0.0
C545 C 0.99564 0.07055 0.38875 0.0
C546 C 0.90869 0.04316 0.43279 0.0
C547 C 0.00135 0.03155 0.47815 0.0
C548 C 0.09135 0.0397 0.47908 0.0
C549 C 0.08662 0.05896 0.43273 0.0
C550 C 0.81013 0.03476 0.42778 0.0
C551 C 0.19276 0.02812 0.52927 0.0
C552 C 0.03406 0.98829 0.65965 0.0
C553 C 0.01402 0.97183 0.61608 0.0
C554 C 0.03098 1.00776 0.61585 0.0
C555 C 0.0048 1.01093 0.52533 0.0
C556 C 0.98386 0.99439 0.48065 0.0
C557 C 0.99004 0.97501 0.52699 0.0
C558 C 0.05675 0.02491 0.66685 0.0
C559 C 0.95332 0.99718 0.38346 0.0
H560 H 0.83686 0.07164 0.35479 0.0
H561 H 0.15469 0.06509 0.43168 0.0
H562 H 0.78691 0.02094 0.39731 0.0
H563 H 0.82478 0.03071 0.49678 0.0
H564 H 0.74359 0.04545 0.38707 0.0
H565 H 0.25696 0.03698 0.52698 0.0
H566 H 0.21794 0.02328 0.6011 0.0
H567 H 0.18091 1.01449 0.4997 0.0
H568 H 0.05341 0.98595 0.72869 0.0
H569 H 0.97346 0.96236 0.4927 0.0
H570 H 0.98883 0.0352 0.63181 0.0
H571 H 0.12355 0.03354 0.66847 0.0
H572 H 0.07747 0.01987 0.73748 0.0
H573 H 0.88247 1.00676 0.33991 0.0
H574 H 0.9368 0.98282 0.35774 0.0
H575 H 0.01709 1.00488 0.37672 0.0
C576 C 0.60646 0.55086 0.14714 0.0
C577 C 0.519 0.56357 0.09808 0.0
C578 C 0.60817 0.53359 0.11555 0.0
C579 C 0.52035 0.52888 0.03276 0.0
C580 C 0.43206 0.54175 0.98288 0.0
C581 C 0.43248 0.55888 0.01607 0.0
C582 C 0.70394 0.52036 0.17091 0.0
C583 C 0.33681 0.53739 0.89438 0.0
C584 C 0.556 0.49402 0.90724 0.0
C585 C 0.51721 0.47593 0.93023 0.0
C586 C 0.5579 0.5113 0.94031 0.0
C587 C 0.52054 0.51052 0.99829 0.0
C588 C 0.48189 0.49223 0.02216 0.0
C589 C 0.48046 0.47521 0.98772 0.0
C590 C 0.59948 0.53043 0.91278 0.0
C591 C 0.4414 0.49066 0.08373 0.0
H592 H 0.67363 0.55436 0.21055 0.0
H593 H 0.36463 0.56864 0.97764 0.0
H594 H 0.68174 0.50515 0.18993 0.0
H595 H 0.73722 0.51906 0.13011 0.0
H596 H 0.76585 0.52607 0.2336 0.0
H597 H 0.27479 0.54891 0.86343 0.0
H598 H 0.35961 0.5365 0.84575 0.0
H599 H 0.30336 0.52273 0.90522 0.0
H600 H 0.5843 0.49472 0.86268 0.0
H601 H 0.45053 0.46129 0.00596 0.0
H602 H 0.66663 0.53588 0.97375 0.0
H603 H 0.53784 0.5421 0.87757 0.0
H604 H 0.62566 0.52859 0.86732 0.0
H605 H 0.50309 0.49536 0.14902 0.0
H606 H 0.41636 0.47529 0.09766 0.0
H607 H 0.37359 0.50084 0.05257 0.0
C608 C 0.439 0.4838 0.60054 0.0
C609 C 0.5152 0.47044 0.61918 0.0
C610 C 0.43232 0.50323 0.55536 0.0
C611 C 0.50563 0.50968 0.53047 0.0
C612 C 0.58358 0.49633 0.54985 0.0
C613 C 0.5864 0.4767 0.59281 0.0
C614 C 0.34617 0.51679 0.53364 0.0
C615 C 0.66499 0.50288 0.52665 0.0
C616 C 0.43569 0.55357 0.34212 0.0
C617 C 0.48348 0.5694 0.39074 0.0
C618 C 0.441 0.53411 0.38676 0.0
C619 C 0.49891 0.53031 0.4825 0.0
C620 C 0.54789 0.54626 0.53203 0.0
C621 C 0.53797 0.56573 0.48534 0.0
C622 C 0.38454 0.51764 0.33145 0.0
C623 C 0.61287 0.5427 0.63419 0.0
H624 H 0.38342 0.47895 0.62048 0.0
H625 H 0.64608 0.46646 0.60816 0.0
H626 H 0.38071 0.52993 0.56842 0.0
H627 H 0.299 0.52238 0.45987 0.0
H628 H 0.29285 0.50918 0.55444 0.0
H629 H 0.7225 0.49092 0.54915 0.0
H630 H 0.62637 0.50751 0.45253 0.0
H631 H 0.70807 0.51601 0.55891 0.0
H632 H 0.39383 0.55646 0.26886 0.0
H633 H 0.57655 0.57796 0.52283 0.0
H634 H 0.32974 0.50993 0.35021 0.0
H635 H 0.4418 0.50641 0.34606 0.0
H636 H 0.33935 0.52326 0.25758 0.0
H637 H 0.56326 0.53633 0.6608 0.0
H638 H 0.64971 0.55658 0.66242 0.0
H639 H 0.67567 0.5317 0.65915 0.0
loop_
_geom_bond_atom_site_label_1
_geom_bond_atom_site_label_2
_geom_bond_distance
_geom_bond_site_symmetry_2
_ccdc_geom_bond_type
Co0 H3 2.400 1_655 S
Co0 O4 2.009 1_655 S
Co0 O12 2.115 . S
Co0 O13 2.315 1_655 S
Co0 O24 2.053 . S
Co0 O27 2.094 . S
Co0 O30 2.122 . S
Co1 O4 2.126 1_655 S
Co1 H5 2.388 . S
Co1 O6 2.053 . S
Co1 O9 2.047 . S
Co1 O15 2.113 1_655 S
Co1 O26 2.063 1_655 S
Co2 H3 2.388 . S
Co2 O4 2.053 . S
Co2 O6 2.126 1_455 S
Co2 O11 2.063 1_455 S
Co2 O25 2.047 . S
Co2 O31 2.113 1_455 S
H3 Co0 2.400 1_455 S
H3 Co2 2.388 . S
H3 O4 0.760 . S
O4 Co0 2.009 1_455 S
O4 Co1 2.126 1_455 S
O4 Co2 2.053 . S
O4 H3 0.760 . S
H5 Co1 2.388 . S
H5 O6 0.760 . S
H5 Co7 2.400 1_655 S
O6 Co1 2.053 . S
O6 Co2 2.126 1_655 S
O6 H5 0.760 . S
O6 Co7 2.009 1_655 S
Co7 H5 2.400 1_455 S
Co7 O6 2.009 1_455 S
Co7 O8 2.053 . S
Co7 O10 2.094 . S
Co7 O14 2.122 . S
Co7 O28 2.115 . S
Co7 O29 2.315 1_455 S
O8 Co7 2.053 . S
O8 C20 1.259 1_455 S
O9 Co1 2.047 . S
O9 C20 1.257 . S
O10 Co7 2.094 . S
O10 C21 1.253 . S
O11 Co2 2.063 1_655 S
O11 C21 1.268 1_655 S
O12 Co0 2.115 . S
O12 C22 1.281 1_655 S
O13 Co0 2.315 1_455 S
O13 C22 1.252 . S
O14 Co7 2.122 . S
O14 C23 1.272 . S
O15 Co1 2.113 1_455 S
O15 C23 1.245 . S
C16 O24 1.259 1_455 S
C16 O25 1.257 . S
C17 O26 1.268 1_655 S
C17 O27 1.253 . S
C18 O28 1.281 1_655 S
C18 O29 1.252 . S
C19 O30 1.272 . S
C19 O31 1.245 . S
C20 O8 1.259 1_655 S
C20 O9 1.257 . S
C21 O10 1.253 . S
C21 O11 1.268 1_455 S
C22 O12 1.281 1_455 S
C22 O13 1.252 . S
C23 O14 1.272 . S
C23 O15 1.245 . S
O24 Co0 2.053 . S
O24 C16 1.259 1_655 S
O25 Co2 2.047 . S
O25 C16 1.257 . S
O26 Co1 2.063 1_455 S
O26 C17 1.268 1_455 S
O27 Co0 2.094 . S
O27 C17 1.253 . S
O28 Co7 2.115 . S
O28 C18 1.281 1_455 S
O29 Co7 2.315 1_655 S
O29 C18 1.252 . S
O30 Co0 2.122 . S
O30 C19 1.272 . S
O31 Co2 2.113 1_655 S
O31 C19 1.245 . S
Co32 H35 2.400 1_655 S
Co32 O36 2.009 1_655 S
Co32 O44 2.115 . S
Co32 O45 2.315 1_655 S
Co32 O56 2.053 1_655 S
Co32 O59 2.094 . S
Co32 O62 2.122 . S
Co33 O36 2.126 . S
Co33 H37 2.388 1_455 S
Co33 O38 2.053 1_455 S
Co33 O41 2.047 1_455 S
Co33 O47 2.113 . S
Co33 O58 2.063 . S
Co34 H35 2.388 . S
Co34 O36 2.053 . S
Co34 O38 2.126 1_455 S
Co34 O43 2.063 . S
Co34 O57 2.047 . S
Co34 O63 2.113 1_455 S
H35 Co32 2.400 1_455 S
H35 Co34 2.388 . S
H35 O36 0.760 . S
O36 Co32 2.009 1_455 S
O36 Co33 2.126 . S
O36 Co34 2.053 . S
O36 H35 0.760 . S
H37 Co33 2.388 1_655 S
H37 O38 0.760 . S
H37 Co39 2.400 1_655 S
O38 Co33 2.053 1_655 S
O38 Co34 2.126 1_655 S
O38 H37 0.760 . S
O38 Co39 2.009 1_655 S
Co39 H37 2.400 1_455 S
Co39 O38 2.009 1_455 S
Co39 O40 2.053 . S
Co39 O42 2.094 . S
Co39 O46 2.122 . S
Co39 O60 2.115 . S
Co39 O61 2.315 1_455 S
O40 Co39 2.053 . S
O40 C52 1.259 1_455 S
O41 Co33 2.047 1_655 S
O41 C52 1.257 . S
O42 Co39 2.094 . S
O42 C53 1.253 . S
O43 Co34 2.063 . S
O43 C53 1.268 . S
O44 Co32 2.115 . S
O44 C54 1.281 1_655 S
O45 Co32 2.315 1_455 S
O45 C54 1.252 . S
O46 Co39 2.122 . S
O46 C55 1.272 . S
O47 Co33 2.113 . S
O47 C55 1.245 . S
C48 O56 1.259 . S
C48 O57 1.257 . S
C49 O58 1.268 1_655 S
C49 O59 1.253 . S
C50 O60 1.281 1_655 S
C50 O61 1.252 . S
C51 O62 1.272 . S
C51 O63 1.245 . S
C52 O40 1.259 1_655 S
C52 O41 1.257 . S
C53 O42 1.253 . S
C53 O43 1.268 . S
C54 O44 1.281 1_455 S
C54 O45 1.252 . S
C55 O46 1.272 . S
C55 O47 1.245 . S
O56 Co32 2.053 1_455 S
O56 C48 1.259 . S
O57 Co34 2.047 . S
O57 C48 1.257 . S
O58 Co33 2.063 . S
O58 C49 1.268 1_455 S
O59 Co32 2.094 . S
O59 C49 1.253 . S
O60 Co39 2.115 . S
O60 C50 1.281 1_455 S
O61 Co39 2.315 1_655 S
O61 C50 1.252 . S
O62 Co32 2.122 . S
O62 C51 1.272 . S
O63 Co34 2.113 1_655 S
O63 C51 1.245 . S
Co64 H67 2.400 . S
Co64 O68 2.009 . S
Co64 O76 2.115 . S
Co64 O77 2.315 . S
Co64 O88 2.053 . S
Co64 O91 2.094 . S
Co64 O94 2.122 . S
Co65 O68 2.126 . S
Co65 H69 2.388 . S
Co65 O70 2.053 . S
Co65 O73 2.047 . S
Co65 O79 2.113 . S
Co65 O90 2.063 . S
Co66 H67 2.388 . S
Co66 O68 2.053 . S
Co66 O70 2.126 . S
Co66 O75 2.063 . S
Co66 O89 2.047 . S
Co66 O95 2.113 . S
H67 Co64 2.400 . S
H67 Co66 2.388 . S
H67 O68 0.760 . S
O68 Co64 2.009 . S
O68 Co65 2.126 . S
O68 Co66 2.053 . S
O68 H67 0.760 . S
H69 Co65 2.388 . S
H69 O70 0.760 . S
H69 Co71 2.400 . S
O70 Co65 2.053 . S
O70 Co66 2.126 . S
O70 H69 0.760 . S
O70 Co71 2.009 . S
Co71 H69 2.400 . S
Co71 O70 2.009 . S
Co71 O72 2.053 . S
Co71 O74 2.094 . S
Co71 O78 2.122 . S
Co71 O92 2.115 . S
Co71 O93 2.315 . S
O72 Co71 2.053 . S
O72 C84 1.259 . S
O73 Co65 2.047 . S
O73 C84 1.257 . S
O74 Co71 2.094 . S
O74 C85 1.253 . S
O75 Co66 2.063 . S
O75 C85 1.268 . S
O76 Co64 2.115 . S
O76 C86 1.281 . S
O77 Co64 2.315 . S
O77 C86 1.252 . S
O78 Co71 2.122 . S
O78 C87 1.272 . S
O79 Co65 2.113 . S
O79 C87 1.245 . S
C80 O88 1.259 . S
C80 O89 1.257 . S
C81 O90 1.268 . S
C81 O91 1.253 . S
C82 O92 1.281 . S
C82 O93 1.252 . S
C83 O94 1.272 . S
C83 O95 1.245 . S
C84 O72 1.259 . S
C84 O73 1.257 . S
C85 O74 1.253 . S
C85 O75 1.268 . S
C86 O76 1.281 . S
C86 O77 1.252 . S
C87 O78 1.272 . S
C87 O79 1.245 . S
O88 Co64 2.053 . S
O88 C80 1.259 . S
O89 Co66 2.047 . S
O89 C80 1.257 . S
O90 Co65 2.063 . S
O90 C81 1.268 . S
O91 Co64 2.094 . S
O91 C81 1.253 . S
O92 Co71 2.115 . S
O92 C82 1.281 . S
O93 Co71 2.315 . S
O93 C82 1.252 . S
O94 Co64 2.122 . S
O94 C83 1.272 . S
O95 Co66 2.113 . S
O95 C83 1.245 . S
Co96 H99 2.400 . S
Co96 O100 2.009 . S
Co96 O108 2.115 . S
Co96 O109 2.315 . S
Co96 O120 2.053 . S
Co96 O123 2.094 . S
Co96 O126 2.122 . S
Co97 O100 2.126 . S
Co97 H101 2.388 . S
Co97 O102 2.053 . S
Co97 O105 2.047 . S
Co97 O111 2.113 . S
Co97 O122 2.063 . S
Co98 H99 2.388 . S
Co98 O100 2.053 . S
Co98 O102 2.126 . S
Co98 O107 2.063 . S
Co98 O121 2.047 . S
Co98 O127 2.113 . S
H99 Co96 2.400 . S
H99 Co98 2.388 . S
H99 O100 0.760 . S
O100 Co96 2.009 . S
O100 Co97 2.126 . S
O100 Co98 2.053 . S
O100 H99 0.760 . S
H101 Co97 2.388 . S
H101 O102 0.760 . S
H101 Co103 2.400 . S
O102 Co97 2.053 . S
O102 Co98 2.126 . S
O102 H101 0.760 . S
O102 Co103 2.009 . S
Co103 H101 2.400 . S
Co103 O102 2.009 . S
Co103 O104 2.053 . S
Co103 O106 2.094 . S
Co103 O110 2.122 . S
Co103 O124 2.115 . S
Co103 O125 2.315 . S
O104 Co103 2.053 . S
O104 C116 1.259 . S
O105 Co97 2.047 . S
O105 C116 1.257 . S
O106 Co103 2.094 . S
O106 C117 1.253 . S
O107 Co98 2.063 . S
O107 C117 1.268 . S
O108 Co96 2.115 . S
O108 C118 1.281 . S
O109 Co96 2.315 . S
O109 C118 1.252 . S
O110 Co103 2.122 . S
O110 C119 1.272 . S
O111 Co97 2.113 . S
O111 C119 1.245 . S
C112 O120 1.259 . S
C112 O121 1.257 . S
C113 O122 1.268 . S
C113 O123 1.253 . S
C114 O124 1.281 . S
C114 O125 1.252 . S
C115 O126 1.272 . S
C115 O127 1.245 . S
C116 O104 1.259 . S
C116 O105 1.257 . S
C117 O106 1.253 . S
C117 O107 1.268 . S
C118 O108 1.281 . S
C118 O109 1.252 . S
C119 O110 1.272 . S
C119 O111 1.245 . S
O120 Co96 2.053 . S
O120 C112 1.259 . S
O121 Co98 2.047 . S
O121 C112 1.257 . S
O122 Co97 2.063 . S
O122 C113 1.268 . S
O123 Co96 2.094 . S
O123 C113 1.253 . S
O124 Co103 2.115 . S
O124 C114 1.281 . S
O125 Co103 2.315 . S
O125 C114 1.252 . S
O126 Co96 2.122 . S
O126 C115 1.272 . S
O127 Co98 2.113 . S
O127 C115 1.245 . S
C128 C129 1.391 . S
C128 C130 1.394 . S
C128 H144 0.931 . S
C129 C128 1.391 . S
C129 C133 1.376 1_655 S
C130 C128 1.394 . S
C130 C131 1.369 1_655 S
C130 C134 1.531 . S
C131 C130 1.369 1_455 S
C131 C132 1.410 . S
C131 C139 1.503 . S
C132 C131 1.410 . S
C132 C133 1.392 . S
C132 C135 1.511 . S
C133 C129 1.376 1_455 S
C133 C132 1.392 . S
C133 H145 0.929 . S
C134 C130 1.531 . S
C134 H146 0.960 . S
C134 H147 0.962 . S
C134 H148 0.960 . S
C135 C132 1.511 . S
C135 H149 0.961 . S
C135 H150 0.961 . S
C135 H151 0.961 . S
C136 C137 1.370 1_655 S
C136 C138 1.363 . S
C136 H152 0.931 . S
C137 C136 1.370 1_455 S
C137 C141 1.408 . S
C138 C136 1.363 . S
C138 C139 1.370 1_655 S
C138 C142 1.524 . S
C139 C131 1.503 . S
C139 C138 1.370 1_455 S
C139 C140 1.403 . S
C140 C139 1.403 . S
C140 C141 1.404 . S
C140 C143 1.539 . S
C141 C137 1.408 . S
C141 C140 1.404 . S
C141 H153 0.930 . S
C142 C138 1.524 . S
C142 H154 0.956 . S
C142 H155 0.961 . S
C142 H156 0.961 . S
C143 C140 1.539 . S
C143 H157 0.958 . S
C143 H158 0.961 . S
C143 H159 0.960 . S
H144 C128 0.931 . S
H145 C133 0.929 . S
H146 C134 0.960 . S
H147 C134 0.962 . S
H148 C134 0.960 . S
H149 C135 0.961 . S
H150 C135 0.961 . S
H151 C135 0.961 . S
H152 C136 0.931 . S
H153 C141 0.930 . S
H154 C142 0.956 . S
H155 C142 0.961 . S
H156 C142 0.961 . S
H157 C143 0.958 . S
H158 C143 0.961 . S
H159 C143 0.960 . S
C160 C161 1.391 1_455 S
C160 C162 1.394 . S
C160 H176 0.931 . S
C161 C160 1.391 1_655 S
C161 C165 1.376 . S
C162 C160 1.394 . S
C162 C163 1.369 1_455 S
C162 C166 1.531 . S
C163 C162 1.369 1_655 S
C163 C164 1.410 . S
C163 C171 1.503 1_655 S
C164 C163 1.410 . S
C164 C165 1.392 . S
C164 C167 1.511 . S
C165 C161 1.376 . S
C165 C164 1.392 . S
C165 H177 0.929 . S
C166 C162 1.531 . S
C166 H178 0.960 . S
C166 H179 0.962 . S
C166 H180 0.960 . S
C167 C164 1.511 . S
C167 H181 0.961 . S
C167 H182 0.961 . S
C167 H183 0.961 . S
C168 C169 1.370 . S
C168 C170 1.363 . S
C168 H184 0.931 . S
C169 C168 1.370 . S
C169 C173 1.408 1_455 S
C170 C168 1.363 . S
C170 C171 1.370 . S
C170 C174 1.524 . S
C171 C163 1.503 1_455 S
C171 C170 1.370 . S
C171 C172 1.403 1_455 S
C172 C171 1.403 1_655 S
C172 C173 1.404 . S
C172 C175 1.539 . S
C173 C169 1.408 1_655 S
C173 C172 1.404 . S
C173 H185 0.930 . S
C174 C170 1.524 . S
C174 H186 0.956 . S
C174 H187 0.961 . S
C174 H188 0.961 . S
C175 C172 1.539 . S
C175 H189 0.958 . S
C175 H190 0.961 . S
C175 H191 0.960 . S
H176 C160 0.931 . S
H177 C165 0.929 . S
H178 C166 0.960 . S
H179 C166 0.962 . S
H180 C166 0.960 . S
H181 C167 0.961 . S
H182 C167 0.961 . S
H183 C167 0.961 . S
H184 C168 0.931 . S
H185 C173 0.930 . S
H186 C174 0.956 . S
H187 C174 0.961 . S
H188 C174 0.961 . S
H189 C175 0.958 . S
H190 C175 0.961 . S
H191 C175 0.960 . S
C192 C193 1.391 . S
C192 C194 1.394 . S
C192 H208 0.931 . S
C193 C192 1.391 . S
C193 C197 1.376 . S
C194 C192 1.394 . S
C194 C195 1.369 . S
C194 C198 1.531 . S
C195 C194 1.369 . S
C195 C196 1.410 . S
C195 C203 1.503 . S
C196 C195 1.410 . S
C196 C197 1.392 . S
C196 C199 1.511 . S
C197 C193 1.376 . S
C197 C196 1.392 . S
C197 H209 0.929 . S
C198 C194 1.531 . S
C198 H210 0.960 . S
C198 H211 0.962 . S
C198 H212 0.960 . S
C199 C196 1.511 . S
C199 H213 0.961 . S
C199 H214 0.961 . S
C199 H215 0.961 . S
C200 C201 1.370 . S
C200 C202 1.363 . S
C200 H216 0.931 . S
C201 C200 1.370 . S
C201 C205 1.408 . S
C202 C200 1.363 . S
C202 C203 1.370 . S
C202 C206 1.524 . S
C203 C195 1.503 . S
C203 C202 1.370 . S
C203 C204 1.403 . S
C204 C203 1.403 . S
C204 C205 1.404 . S
C204 C207 1.539 . S
C205 C201 1.408 . S
C205 C204 1.404 . S
C205 H217 0.930 . S
C206 C202 1.524 . S
C206 H218 0.956 . S
C206 H219 0.961 . S
C206 H220 0.961 . S
C207 C204 1.539 . S
C207 H221 0.958 . S
C207 H222 0.961 . S
C207 H223 0.960 . S
H208 C192 0.931 . S
H209 C197 0.929 . S
H210 C198 0.960 . S
H211 C198 0.962 . S
H212 C198 0.960 . S
H213 C199 0.961 . S
H214 C199 0.961 . S
H215 C199 0.961 . S
H216 C200 0.931 . S
H217 C205 0.930 . S
H218 C206 0.956 . S
H219 C206 0.961 . S
H220 C206 0.961 . S
H221 C207 0.958 . S
H222 C207 0.961 . S
H223 C207 0.960 . S
C224 C225 1.391 . S
C224 C226 1.394 . S
C224 H240 0.931 . S
C225 C224 1.391 . S
C225 C229 1.376 . S
C226 C224 1.394 . S
C226 C227 1.369 . S
C226 C230 1.531 . S
C227 C226 1.369 . S
C227 C228 1.410 . S
C227 C235 1.503 . S
C228 C227 1.410 . S
C228 C229 1.392 . S
C228 C231 1.511 . S
C229 C225 1.376 . S
C229 C228 1.392 . S
C229 H241 0.929 . S
C230 C226 1.531 . S
C230 H242 0.960 . S
C230 H243 0.962 . S
C230 H244 0.960 . S
C231 C228 1.511 . S
C231 H245 0.961 . S
C231 H246 0.961 . S
C231 H247 0.961 . S
C232 C233 1.370 . S
C232 C234 1.363 . S
C232 H248 0.931 . S
C233 C232 1.370 . S
C233 C237 1.408 . S
C234 C232 1.363 . S
C234 C235 1.370 . S
C234 C238 1.524 . S
C235 C227 1.503 . S
C235 C234 1.370 . S
C235 C236 1.403 . S
C236 C235 1.403 . S
C236 C237 1.404 . S
C236 C239 1.539 . S
C237 C233 1.408 . S
C237 C236 1.404 . S
C237 H249 0.930 . S
C238 C234 1.524 . S
C238 H250 0.956 . S
C238 H251 0.961 . S
C238 H252 0.961 . S
C239 C236 1.539 . S
C239 H253 0.958 . S
C239 H254 0.961 . S
C239 H255 0.960 . S
H240 C224 0.931 . S
H241 C229 0.929 . S
H242 C230 0.960 . S
H243 C230 0.962 . S
H244 C230 0.960 . S
H245 C231 0.961 . S
H246 C231 0.961 . S
H247 C231 0.961 . S
H248 C232 0.931 . S
H249 C237 0.930 . S
H250 C238 0.956 . S
H251 C238 0.961 . S
H252 C238 0.961 . S
H253 C239 0.958 . S
H254 C239 0.961 . S
H255 C239 0.960 . S
C256 C257 1.391 . S
C256 C258 1.394 . S
C256 H272 0.931 . S
C257 C256 1.391 . S
C257 C261 1.376 . S
C258 C256 1.394 . S
C258 C259 1.369 . S
C258 C262 1.531 . S
C259 C258 1.369 . S
C259 C260 1.410 . S
C259 C267 1.503 . S
C260 C259 1.410 . S
C260 C261 1.392 . S
C260 C263 1.511 . S
C261 C257 1.376 . S
C261 C260 1.392 . S
C261 H273 0.929 . S
C262 C258 1.531 . S
C262 H274 0.960 . S
C262 H275 0.962 . S
C262 H276 0.960 . S
C263 C260 1.511 . S
C263 H277 0.961 . S
C263 H278 0.961 . S
C263 H279 0.961 . S
C264 C265 1.370 . S
C264 C266 1.363 . S
C264 H280 0.931 . S
C265 C264 1.370 . S
C265 C269 1.408 . S
C266 C264 1.363 . S
C266 C267 1.370 . S
C266 C270 1.524 . S
C267 C259 1.503 . S
C267 C266 1.370 . S
C267 C268 1.403 . S
C268 C267 1.403 . S
C268 C269 1.404 . S
C268 C271 1.539 . S
C269 C265 1.408 . S
C269 C268 1.404 . S
C269 H281 0.930 . S
C270 C266 1.524 . S
C270 H282 0.956 . S
C270 H283 0.961 . S
C270 H284 0.961 . S
C271 C268 1.539 . S
C271 H285 0.958 . S
C271 H286 0.961 . S
C271 H287 0.960 . S
H272 C256 0.931 . S
H273 C261 0.929 . S
H274 C262 0.960 . S
H275 C262 0.962 . S
H276 C262 0.960 . S
H277 C263 0.961 . S
H278 C263 0.961 . S
H279 C263 0.961 . S
H280 C264 0.931 . S
H281 C269 0.930 . S
H282 C270 0.956 . S
H283 C270 0.961 . S
H284 C270 0.961 . S
H285 C271 0.958 . S
H286 C271 0.961 . S
H287 C271 0.960 . S
C288 C289 1.391 . S
C288 C290 1.394 . S
C288 H304 0.931 . S
C289 C288 1.391 . S
C289 C293 1.376 . S
C290 C288 1.394 . S
C290 C291 1.369 . S
C290 C294 1.531 . S
C291 C290 1.369 . S
C291 C292 1.410 . S
C291 C299 1.503 . S
C292 C291 1.410 . S
C292 C293 1.392 . S
C292 C295 1.511 . S
C293 C289 1.376 . S
C293 C292 1.392 . S
C293 H305 0.929 . S
C294 C290 1.531 . S
C294 H306 0.960 . S
C294 H307 0.962 . S
C294 H308 0.960 . S
C295 C292 1.511 . S
C295 H309 0.961 . S
C295 H310 0.961 . S
C295 H311 0.961 . S
C296 C297 1.370 . S
C296 C298 1.363 . S
C296 H312 0.931 . S
C297 C296 1.370 . S
C297 C301 1.408 . S
C298 C296 1.363 . S
C298 C299 1.370 . S
C298 C302 1.524 . S
C299 C291 1.503 . S
C299 C298 1.370 . S
C299 C300 1.403 . S
C300 C299 1.403 . S
C300 C301 1.404 . S
C300 C303 1.539 . S
C301 C297 1.408 . S
C301 C300 1.404 . S
C301 H313 0.930 . S
C302 C298 1.524 . S
C302 H314 0.956 . S
C302 H315 0.961 . S
C302 H316 0.961 . S
C303 C300 1.539 . S
C303 H317 0.958 . S
C303 H318 0.961 . S
C303 H319 0.960 . S
H304 C288 0.931 . S
H305 C293 0.929 . S
H306 C294 0.960 . S
H307 C294 0.962 . S
H308 C294 0.960 . S
H309 C295 0.961 . S
H310 C295 0.961 . S
H311 C295 0.961 . S
H312 C296 0.931 . S
H313 C301 0.930 . S
H314 C302 0.956 . S
H315 C302 0.961 . S
H316 C302 0.961 . S
H317 C303 0.958 . S
H318 C303 0.961 . S
H319 C303 0.960 . S
C320 C321 1.391 . S
C320 C322 1.394 . S
C320 H336 0.931 . S
C321 C320 1.391 . S
C321 C325 1.376 . S
C322 C320 1.394 . S
C322 C323 1.369 . S
C322 C326 1.531 1_655 S
C323 C322 1.369 . S
C323 C324 1.410 . S
C323 C331 1.503 1_655 S
C324 C323 1.410 . S
C324 C325 1.392 . S
C324 C327 1.511 . S
C325 C321 1.376 . S
C325 C324 1.392 . S
C325 H337 0.929 . S
C326 C322 1.531 1_455 S
C326 H338 0.960 . S
C326 H339 0.962 . S
C326 H340 0.960 1_455 S
C327 C324 1.511 . S
C327 H341 0.961 . S
C327 H342 0.961 . S
C327 H343 0.961 . S
C328 C329 1.370 . S
C328 C330 1.363 . S
C328 H344 0.931 . S
C329 C328 1.370 . S
C329 C333 1.408 . S
C330 C328 1.363 . S
C330 C331 1.370 . S
C330 C334 1.524 . S
C331 C323 1.503 1_455 S
C331 C330 1.370 . S
C331 C332 1.403 . S
C332 C331 1.403 . S
C332 C333 1.404 . S
C332 C335 1.539 1_455 S
C333 C329 1.408 . S
C333 C332 1.404 . S
C333 H345 0.930 . S
C334 C330 1.524 . S
C334 H346 0.956 . S
C334 H347 0.961 . S
C334 H348 0.961 . S
C335 C332 1.539 1_655 S
C335 H349 0.958 . S
C335 H350 0.961 . S
C335 H351 0.960 . S
H336 C320 0.931 . S
H337 C325 0.929 . S
H338 C326 0.960 . S
H339 C326 0.962 . S
H340 C326 0.960 1_655 S
H341 C327 0.961 . S
H342 C327 0.961 . S
H343 C327 0.961 . S
H344 C328 0.931 . S
H345 C333 0.930 . S
H346 C334 0.956 . S
H347 C334 0.961 . S
H348 C334 0.961 . S
H349 C335 0.958 . S
H350 C335 0.961 . S
H351 C335 0.960 . S
C352 C353 1.391 . S
C352 C354 1.394 . S
C352 H368 0.931 . S
C353 C352 1.391 . S
C353 C357 1.376 . S
C354 C352 1.394 . S
C354 C355 1.369 . S
C354 C358 1.531 1_655 S
C355 C354 1.369 . S
C355 C356 1.410 . S
C355 C363 1.503 1_655 S
C356 C355 1.410 . S
C356 C357 1.392 . S
C356 C359 1.511 . S
C357 C353 1.376 . S
C357 C356 1.392 . S
C357 H369 0.929 . S
C358 C354 1.531 1_455 S
C358 H370 0.960 . S
C358 H371 0.962 . S
C358 H372 0.960 . S
C359 C356 1.511 . S
C359 H373 0.961 . S
C359 H374 0.961 . S
C359 H375 0.961 . S
C360 C361 1.370 . S
C360 C362 1.363 . S
C360 H376 0.931 . S
C361 C360 1.370 . S
C361 C365 1.408 . S
C362 C360 1.363 . S
C362 C363 1.370 . S
C362 C366 1.524 . S
C363 C355 1.503 1_455 S
C363 C362 1.370 . S
C363 C364 1.403 . S
C364 C363 1.403 . S
C364 C365 1.404 . S
C364 C367 1.539 . S
C365 C361 1.408 . S
C365 C364 1.404 . S
C365 H377 0.930 . S
C366 C362 1.524 . S
C366 H378 0.956 . S
C366 H379 0.961 . S
C366 H380 0.961 . S
C367 C364 1.539 . S
C367 H381 0.958 . S
C367 H382 0.961 . S
C367 H383 0.960 1_455 S
H368 C352 0.931 . S
H369 C357 0.929 . S
H370 C358 0.960 . S
H371 C358 0.962 . S
H372 C358 0.960 . S
H373 C359 0.961 . S
H374 C359 0.961 . S
H375 C359 0.961 . S
H376 C360 0.931 . S
H377 C365 0.930 . S
H378 C366 0.956 . S
H379 C366 0.961 . S
H380 C366 0.961 . S
H381 C367 0.958 . S
H382 C367 0.961 . S
H383 C367 0.960 1_655 S
C384 C385 1.391 . S
C384 C386 1.394 . S
C384 H400 0.931 . S
C385 C384 1.391 . S
C385 C389 1.376 . S
C386 C384 1.394 . S
C386 C387 1.369 . S
C386 C390 1.531 . S
C387 C386 1.369 . S
C387 C388 1.410 . S
C387 C395 1.503 . S
C388 C387 1.410 . S
C388 C389 1.392 . S
C388 C391 1.511 . S
C389 C385 1.376 . S
C389 C388 1.392 . S
C389 H401 0.929 . S
C390 C386 1.531 . S
C390 H402 0.960 . S
C390 H403 0.962 . S
C390 H404 0.960 . S
C391 C388 1.511 . S
C391 H405 0.961 . S
C391 H406 0.961 . S
C391 H407 0.961 . S
C392 C393 1.370 . S
C392 C394 1.363 . S
C392 H408 0.931 1_455 S
C393 C392 1.370 . S
C393 C397 1.408 . S
C394 C392 1.363 . S
C394 C395 1.370 . S
C394 C398 1.524 . S
C395 C387 1.503 . S
C395 C394 1.370 . S
C395 C396 1.403 . S
C396 C395 1.403 . S
C396 C397 1.404 . S
C396 C399 1.539 . S
C397 C393 1.408 . S
C397 C396 1.404 . S
C397 H409 0.930 . S
C398 C394 1.524 . S
C398 H410 0.956 . S
C398 H411 0.961 . S
C398 H412 0.961 . S
C399 C396 1.539 . S
C399 H413 0.958 . S
C399 H414 0.961 . S
C399 H415 0.960 . S
H400 C384 0.931 . S
H401 C389 0.929 . S
H402 C390 0.960 . S
H403 C390 0.962 . S
H404 C390 0.960 . S
H405 C391 0.961 . S
H406 C391 0.961 . S
H407 C391 0.961 . S
H408 C392 0.931 1_655 S
H409 C397 0.930 . S
H410 C398 0.956 . S
H411 C398 0.961 . S
H412 C398 0.961 . S
H413 C399 0.958 . S
H414 C399 0.961 . S
H415 C399 0.960 . S
C416 C417 1.391 . S
C416 C418 1.394 . S
C416 H432 0.931 . S
C417 C416 1.391 . S
C417 C421 1.376 . S
C418 C416 1.394 . S
C418 C419 1.369 . S
C418 C422 1.531 . S
C419 C418 1.369 . S
C419 C420 1.410 . S
C419 C427 1.503 1_556 S
C420 C419 1.410 . S
C420 C421 1.392 . S
C420 C423 1.511 1_556 S
C421 C417 1.376 . S
C421 C420 1.392 . S
C421 H433 0.929 . S
C422 C418 1.531 . S
C422 H434 0.960 . S
C422 H435 0.962 . S
C422 H436 0.960 . S
C423 C420 1.511 1_554 S
C423 H437 0.961 . S
C423 H438 0.961 . S
C423 H439 0.961 1_554 S
C424 C425 1.370 . S
C424 C426 1.363 . S
C424 H440 0.931 . S
C425 C424 1.370 . S
C425 C429 1.409 . S
C426 C424 1.363 . S
C426 C427 1.370 . S
C426 C430 1.524 . S
C427 C419 1.503 1_554 S
C427 C426 1.370 . S
C427 C428 1.403 1_554 S
C428 C427 1.403 1_556 S
C428 C429 1.404 1_556 S
C428 C431 1.539 . S
C429 C425 1.409 . S
C429 C428 1.404 1_554 S
C429 H441 0.929 1_554 S
C430 C426 1.524 . S
C430 H442 0.956 . S
C430 H443 0.961 . S
C430 H444 0.961 . S
C431 C428 1.539 . S
C431 H445 0.958 . S
C431 H446 0.961 . S
C431 H447 0.960 . S
H432 C416 0.931 . S
H433 C421 0.929 . S
H434 C422 0.960 . S
H435 C422 0.962 . S
H436 C422 0.960 . S
H437 C423 0.961 . S
H438 C423 0.961 . S
H439 C423 0.961 1_556 S
H440 C424 0.931 . S
H441 C429 0.929 1_556 S
H442 C430 0.956 . S
H443 C430 0.961 . S
H444 C430 0.961 . S
H445 C431 0.958 . S
H446 C431 0.961 . S
H447 C431 0.960 . S
C448 C449 1.391 . S
C448 C450 1.394 . S
C448 H464 0.931 . S
C449 C448 1.391 . S
C449 C453 1.376 . S
C450 C448 1.394 . S
C450 C451 1.369 . S
C450 C454 1.531 . S
C451 C450 1.369 . S
C451 C452 1.410 . S
C451 C459 1.503 . S
C452 C451 1.410 . S
C452 C453 1.392 . S
C452 C455 1.511 . S
C453 C449 1.376 . S
C453 C452 1.392 . S
C453 H465 0.929 . S
C454 C450 1.531 . S
C454 H466 0.960 . S
C454 H467 0.962 . S
C454 H468 0.960 . S
C455 C452 1.511 . S
C455 H469 0.961 . S
C455 H470 0.961 . S
C455 H471 0.961 . S
C456 C457 1.370 . S
C456 C458 1.363 . S
C456 H472 0.931 . S
C457 C456 1.370 . S
C457 C461 1.408 . S
C458 C456 1.363 . S
C458 C459 1.370 . S
C458 C462 1.524 . S
C459 C451 1.503 . S
C459 C458 1.370 . S
C459 C460 1.403 . S
C460 C459 1.403 . S
C460 C461 1.404 . S
C460 C463 1.539 . S
C461 C457 1.408 . S
C461 C460 1.404 . S
C461 H473 0.930 . S
C462 C458 1.524 . S
C462 H474 0.956 . S
C462 H475 0.961 . S
C462 H476 0.961 . S
C463 C460 1.539 . S
C463 H477 0.958 . S
C463 H478 0.961 . S
C463 H479 0.960 . S
H464 C448 0.931 . S
H465 C453 0.929 . S
H466 C454 0.960 . S
H467 C454 0.962 . S
H468 C454 0.960 . S
H469 C455 0.961 . S
H470 C455 0.961 . S
H471 C455 0.961 . S
H472 C456 0.931 . S
H473 C461 0.930 . S
H474 C462 0.956 . S
H475 C462 0.961 . S
H476 C462 0.961 . S
H477 C463 0.958 . S
H478 C463 0.961 . S
H479 C463 0.960 . S
C480 C481 1.391 . S
C480 C482 1.394 . S
C480 H496 0.931 . S
C481 C480 1.391 . S
C481 C485 1.376 1_554 S
C482 C480 1.394 . S
C482 C483 1.369 . S
C482 C486 1.531 . S
C483 C482 1.369 . S
C483 C484 1.410 1_554 S
C483 C491 1.503 1_554 S
C484 C483 1.410 1_556 S
C484 C485 1.392 . S
C484 C487 1.511 . S
C485 C481 1.376 1_556 S
C485 C484 1.392 . S
C485 H497 0.929 . S
C486 C482 1.531 . S
C486 H498 0.960 . S
C486 H499 0.962 . S
C486 H500 0.960 . S
C487 C484 1.511 . S
C487 H501 0.961 . S
C487 H502 0.961 . S
C487 H503 0.961 . S
C488 C489 1.370 . S
C488 C490 1.363 . S
C488 H504 0.931 . S
C489 C488 1.370 . S
C489 C493 1.408 . S
C490 C488 1.363 . S
C490 C491 1.370 . S
C490 C494 1.524 . S
C491 C483 1.503 1_556 S
C491 C490 1.370 . S
C491 C492 1.403 . S
C492 C491 1.403 . S
C492 C493 1.404 . S
C492 C495 1.539 . S
C493 C489 1.408 . S
C493 C492 1.404 . S
C493 H505 0.930 . S
C494 C490 1.524 . S
C494 H506 0.956 1_556 S
C494 H507 0.961 . S
C494 H508 0.961 . S
C495 C492 1.539 . S
C495 H509 0.958 1_556 S
C495 H510 0.961 . S
C495 H511 0.960 . S
H496 C480 0.931 . S
H497 C485 0.929 . S
H498 C486 0.960 . S
H499 C486 0.962 . S
H500 C486 0.960 . S
H501 C487 0.961 . S
H502 C487 0.961 . S
H503 C487 0.961 . S
H504 C488 0.931 . S
H505 C493 0.930 . S
H506 C494 0.956 1_554 S
H507 C494 0.961 . S
H508 C494 0.961 . S
H509 C495 0.958 1_554 S
H510 C495 0.961 . S
H511 C495 0.960 . S
C512 C513 1.391 1_556 S
C512 C514 1.394 . S
C512 H528 0.931 . S
C513 C512 1.391 1_554 S
C513 C517 1.376 1_655 S
C514 C512 1.394 . S
C514 C515 1.369 1_656 S
C514 C518 1.531 . S
C515 C514 1.369 1_454 S
C515 C516 1.410 . S
C515 C523 1.503 1_544 S
C516 C515 1.410 . S
C516 C517 1.392 . S
C516 C519 1.511 1_545 S
C517 C513 1.376 1_455 S
C517 C516 1.392 . S
C517 H529 0.929 . S
C518 C514 1.531 . S
C518 H530 0.960 . S
C518 H531 0.962 . S
C518 H532 0.960 . S
C519 C516 1.511 1_565 S
C519 H533 0.961 . S
C519 H534 0.961 . S
C519 H535 0.961 1_565 S
C520 C521 1.370 1_655 S
C520 C522 1.363 . S
C520 H536 0.931 . S
C521 C520 1.370 1_455 S
C521 C525 1.408 . S
C522 C520 1.363 . S
C522 C523 1.370 1_655 S
C522 C526 1.524 1_556 S
C523 C515 1.503 1_566 S
C523 C522 1.370 1_455 S
C523 C524 1.403 . S
C524 C523 1.403 . S
C524 C525 1.404 . S
C524 C527 1.539 1_565 S
C525 C521 1.408 . S
C525 C524 1.404 . S
C525 H537 0.930 . S
C526 C522 1.524 1_554 S
C526 H538 0.956 1_554 S
C526 H539 0.961 . S
C526 H540 0.961 . S
C527 C524 1.539 1_545 S
C527 H541 0.958 . S
C527 H542 0.961 . S
C527 H543 0.972 . S
H528 C512 0.931 . S
H529 C517 0.929 . S
H530 C518 0.960 . S
H531 C518 0.962 . S
H532 C518 0.960 . S
H533 C519 0.961 . S
H534 C519 0.961 . S
H535 C519 0.961 1_545 S
H536 C520 0.931 . S
H537 C525 0.930 . S
H538 C526 0.956 1_556 S
H539 C526 0.961 . S
H540 C526 0.961 . S
H541 C527 0.958 . S
H542 C527 0.961 . S
H543 C527 0.972 . S
C544 C545 1.391 1_655 S
C544 C546 1.394 . S
C544 H560 0.931 . S
C545 C544 1.391 1_455 S
C545 C549 1.376 . S
C546 C544 1.394 . S
C546 C547 1.369 1_655 S
C546 C550 1.531 . S
C547 C546 1.369 1_455 S
C547 C548 1.410 . S
C547 C555 1.503 1_545 S
C548 C547 1.410 . S
C548 C549 1.392 . S
C548 C551 1.511 . S
C549 C545 1.376 . S
C549 C548 1.392 . S
C549 H561 0.929 . S
C550 C546 1.531 . S
C550 H562 0.960 1_545 S
C550 H563 0.962 . S
C550 H564 0.960 . S
C551 C548 1.511 . S
C551 H565 0.961 . S
C551 H566 0.961 1_545 S
C551 H567 0.961 1_545 S
C552 C553 1.370 1_455 S
C552 C554 1.363 . S
C552 H568 0.931 . S
C553 C552 1.370 1_655 S
C553 C557 1.408 . S
C554 C552 1.363 . S
C554 C555 1.370 . S
C554 C558 1.524 1_565 S
C555 C547 1.503 1_565 S
C555 C554 1.370 . S
C555 C556 1.403 1_455 S
C556 C555 1.403 1_655 S
C556 C557 1.404 . S
C556 C559 1.539 . S
C557 C553 1.408 . S
C557 C556 1.404 . S
C557 H569 0.930 . S
C558 C554 1.524 1_545 S
C558 H570 0.956 1_455 S
C558 H571 0.961 . S
C558 H572 0.961 . S
C559 C556 1.539 . S
C559 H573 0.958 . S
C559 H574 0.961 1_655 S
C559 H575 0.960 1_655 S
H560 C544 0.931 . S
H561 C549 0.929 . S
H562 C550 0.960 1_565 S
H563 C550 0.962 . S
H564 C550 0.960 . S
H565 C551 0.961 . S
H566 C551 0.961 1_565 S
H567 C551 0.961 1_565 S
H568 C552 0.931 . S
H569 C557 0.930 . S
H570 C558 0.956 1_655 S
H571 C558 0.961 . S
H572 C558 0.961 . S
H573 C559 0.958 . S
H574 C559 0.961 1_455 S
H575 C559 0.960 1_455 S
C576 C577 1.391 . S
C576 C578 1.394 . S
C576 H592 0.931 . S
C577 C576 1.391 . S
C577 C581 1.376 . S
C578 C576 1.394 . S
C578 C579 1.369 . S
C578 C582 1.531 . S
C579 C578 1.369 . S
C579 C580 1.410 1_554 S
C579 C587 1.503 1_554 S
C580 C579 1.410 1_556 S
C580 C581 1.392 1_556 S
C580 C583 1.511 . S
C581 C577 1.376 . S
C581 C580 1.392 1_554 S
C581 H593 0.929 1_554 S
C582 C578 1.531 . S
C582 H594 0.960 . S
C582 H595 0.962 . S
C582 H596 0.960 . S
C583 C580 1.511 . S
C583 H597 0.961 . S
C583 H598 0.961 . S
C583 H599 0.961 . S
C584 C585 1.370 . S
C584 C586 1.363 . S
C584 H600 0.931 . S
C585 C584 1.370 . S
C585 C589 1.408 . S
C586 C584 1.363 . S
C586 C587 1.370 . S
C586 C590 1.524 . S
C587 C579 1.503 1_556 S
C587 C586 1.370 . S
C587 C588 1.403 1_556 S
C588 C587 1.403 1_554 S
C588 C589 1.404 1_554 S
C588 C591 1.539 . S
C589 C585 1.408 . S
C589 C588 1.404 1_556 S
C589 H601 0.930 . S
C590 C586 1.524 . S
C590 H602 0.956 . S
C590 H603 0.961 . S
C590 H604 0.961 . S
C591 C588 1.539 . S
C591 H605 0.958 . S
C591 H606 0.961 . S
C591 H607 0.960 . S
H592 C576 0.931 . S
H593 C581 0.929 1_556 S
H594 C582 0.960 . S
H595 C582 0.962 . S
H596 C582 0.960 . S
H597 C583 0.961 . S
H598 C583 0.961 . S
H599 C583 0.961 . S
H600 C584 0.931 . S
H601 C589 0.930 . S
H602 C590 0.956 . S
H603 C590 0.961 . S
H604 C590 0.961 . S
H605 C591 0.958 . S
H606 C591 0.961 . S
H607 C591 0.960 . S
C608 C609 1.391 . S
C608 C610 1.394 . S
C608 H624 0.931 . S
C609 C608 1.391 . S
C609 C613 1.376 . S
C610 C608 1.394 . S
C610 C611 1.369 . S
C610 C614 1.531 . S
C611 C610 1.369 . S
C611 C612 1.410 . S
C611 C619 1.503 . S
C612 C611 1.410 . S
C612 C613 1.392 . S
C612 C615 1.511 . S
C613 C609 1.376 . S
C613 C612 1.392 . S
C613 H625 0.929 . S
C614 C610 1.531 . S
C614 H626 0.960 . S
C614 H627 0.962 . S
C614 H628 0.960 . S
C615 C612 1.511 . S
C615 H629 0.961 . S
C615 H630 0.961 . S
C615 H631 0.961 . S
C616 C617 1.370 . S
C616 C618 1.363 . S
C616 H632 0.931 . S
C617 C616 1.370 . S
C617 C621 1.408 . S
C618 C616 1.363 . S
C618 C619 1.370 . S
C618 C622 1.524 . S
C619 C611 1.503 . S
C619 C618 1.370 . S
C619 C620 1.403 . S
C620 C619 1.403 . S
C620 C621 1.404 . S
C620 C623 1.539 . S
C621 C617 1.408 . S
C621 C620 1.404 . S
C621 H633 0.930 . S
C622 C618 1.524 . S
C622 H634 0.956 . S
C622 H635 0.961 . S
C622 H636 0.961 . S
C623 C620 1.539 . S
C623 H637 0.958 . S
C623 H638 0.961 . S
C623 H639 0.960 . S
H624 C608 0.931 . S
H625 C613 0.929 . S
H626 C614 0.960 . S
H627 C614 0.962 . S
H628 C614 0.960 . S
H629 C615 0.961 . S
H630 C615 0.961 . S
H631 C615 0.961 . S
H632 C616 0.931 . S
H633 C621 0.930 . S
H634 C622 0.956 . S
H635 C622 0.961 . S
H636 C622 0.961 . S
H637 C623 0.958 . S
H638 C623 0.961 . S
H639 C623 0.960 . S
C129 C20 1.527 1_556 S
C137 C16 1.530 . S
C161 C52 1.528 . S
C169 C48 1.528 1_554 S
C193 C84 1.522 1_556 S
C201 C80 1.530 . S
C225 C112 1.510 1_554 S
C233 C116 1.536 . S
C257 C19 0.569 . S
C265 C23 0.645 . S
C289 C51 0.683 . S
C297 C55 0.602 . S
C321 C87 0.560 . S
C329 C83 0.650 . S
C353 C119 0.564 . S
C361 C115 0.650 . S
C385 C114 1.868 . S
C393 C22 1.841 . S
C417 C117 2.066 . S
C425 C17 2.097 . S
C449 C86 1.838 . S
C457 C50 1.852 . S
C481 C81 2.110 . S
C489 C53 2.080 . S
C513 C18 1.846 . S
C521 C54 1.881 . S
C545 C21 1.750 . S
C553 C49 1.749 . S
C577 C82 1.890 . S
C585 C118 1.863 . S
C609 C113 1.747 . S
C617 C85 1.751 . S
